# Generated by pormake.
# Topology smd, (6)-cn, num edge types: 1
# Building blocks:
#     Node 0, Type 0, BuildingBlock: VOLQOD_clean_sbu_1, # of connection points: 6
#     Node 1, Type 0, BuildingBlock: VOLQOD_clean_sbu_1, # of connection points: 6
#     Node 2, Type 0, BuildingBlock: VOLQOD_clean_sbu_1, # of connection points: 6
#     Node 3, Type 0, BuildingBlock: VOLQOD_clean_sbu_1, # of connection points: 6
#     Node 4, Type 0, BuildingBlock: VOLQOD_clean_sbu_1, # of connection points: 6
#     Node 5, Type 0, BuildingBlock: VOLQOD_clean_sbu_1, # of connection points: 6
#     Node 6, Type 0, BuildingBlock: VOLQOD_clean_sbu_1, # of connection points: 6
#     Node 7, Type 0, BuildingBlock: VOLQOD_clean_sbu_1, # of connection points: 6
#     Node 8, Type 0, BuildingBlock: VOLQOD_clean_sbu_1, # of connection points: 6
#     Node 9, Type 0, BuildingBlock: VOLQOD_clean_sbu_1, # of connection points: 6
#     Node 10, Type 0, BuildingBlock: VOLQOD_clean_sbu_1, # of connection points: 6
#     Node 11, Type 0, BuildingBlock: VOLQOD_clean_sbu_1, # of connection points: 6
#     Node 12, Type 0, BuildingBlock: VOLQOD_clean_sbu_1, # of connection points: 6
#     Node 13, Type 0, BuildingBlock: VOLQOD_clean_sbu_1, # of connection points: 6
#     Node 14, Type 0, BuildingBlock: VOLQOD_clean_sbu_1, # of connection points: 6
#     Node 15, Type 0, BuildingBlock: VOLQOD_clean_sbu_1, # of connection points: 6
#     Node 16, Type 0, BuildingBlock: VOLQOD_clean_sbu_1, # of connection points: 6
#     Node 17, Type 0, BuildingBlock: VOLQOD_clean_sbu_1, # of connection points: 6
#     Edge 18, Type (0, 0), BuildingBlock: AJUNOK_clean_linker_0, # of connection points: 2
#     Edge 19, Type (0, 0), BuildingBlock: AJUNOK_clean_linker_0, # of connection points: 2
#     Edge 20, Type (0, 0), BuildingBlock: AJUNOK_clean_linker_0, # of connection points: 2
#     Edge 21, Type (0, 0), BuildingBlock: AJUNOK_clean_linker_0, # of connection points: 2
#     Edge 22, Type (0, 0), BuildingBlock: AJUNOK_clean_linker_0, # of connection points: 2
#     Edge 23, Type (0, 0), BuildingBlock: AJUNOK_clean_linker_0, # of connection points: 2
#     Edge 24, Type (0, 0), BuildingBlock: AJUNOK_clean_linker_0, # of connection points: 2
#     Edge 25, Type (0, 0), BuildingBlock: AJUNOK_clean_linker_0, # of connection points: 2
#     Edge 26, Type (0, 0), BuildingBlock: AJUNOK_clean_linker_0, # of connection points: 2
#     Edge 27, Type (0, 0), BuildingBlock: AJUNOK_clean_linker_0, # of connection points: 2
#     Edge 28, Type (0, 0), BuildingBlock: AJUNOK_clean_linker_0, # of connection points: 2
#     Edge 29, Type (0, 0), BuildingBlock: AJUNOK_clean_linker_0, # of connection points: 2
#     Edge 30, Type (0, 0), BuildingBlock: AJUNOK_clean_linker_0, # of connection points: 2
#     Edge 31, Type (0, 0), BuildingBlock: AJUNOK_clean_linker_0, # of connection points: 2
#     Edge 32, Type (0, 0), BuildingBlock: AJUNOK_clean_linker_0, # of connection points: 2
#     Edge 33, Type (0, 0), BuildingBlock: AJUNOK_clean_linker_0, # of connection points: 2
#     Edge 34, Type (0, 0), BuildingBlock: AJUNOK_clean_linker_0, # of connection points: 2
#     Edge 35, Type (0, 0), BuildingBlock: AJUNOK_clean_linker_0, # of connection points: 2
#     Edge 36, Type (0, 0), BuildingBlock: AJUNOK_clean_linker_0, # of connection points: 2
#     Edge 37, Type (0, 0), BuildingBlock: AJUNOK_clean_linker_0, # of connection points: 2
#     Edge 38, Type (0, 0), BuildingBlock: AJUNOK_clean_linker_0, # of connection points: 2
#     Edge 39, Type (0, 0), BuildingBlock: AJUNOK_clean_linker_0, # of connection points: 2
#     Edge 40, Type (0, 0), BuildingBlock: AJUNOK_clean_linker_0, # of connection points: 2
#     Edge 41, Type (0, 0), BuildingBlock: AJUNOK_clean_linker_0, # of connection points: 2
#     Edge 42, Type (0, 0), BuildingBlock: AJUNOK_clean_linker_0, # of connection points: 2
#     Edge 43, Type (0, 0), BuildingBlock: AJUNOK_clean_linker_0, # of connection points: 2
#     Edge 44, Type (0, 0), BuildingBlock: AJUNOK_clean_linker_0, # of connection points: 2
#     Edge 45, Type (0, 0), BuildingBlock: AJUNOK_clean_linker_0, # of connection points: 2
#     Edge 46, Type (0, 0), BuildingBlock: AJUNOK_clean_linker_0, # of connection points: 2
#     Edge 47, Type (0, 0), BuildingBlock: AJUNOK_clean_linker_0, # of connection points: 2
#     Edge 48, Type (0, 0), BuildingBlock: AJUNOK_clean_linker_0, # of connection points: 2
#     Edge 49, Type (0, 0), BuildingBlock: AJUNOK_clean_linker_0, # of connection points: 2
#     Edge 50, Type (0, 0), BuildingBlock: AJUNOK_clean_linker_0, # of connection points: 2
#     Edge 51, Type (0, 0), BuildingBlock: AJUNOK_clean_linker_0, # of connection points: 2
#     Edge 52, Type (0, 0), BuildingBlock: AJUNOK_clean_linker_0, # of connection points: 2
#     Edge 53, Type (0, 0), BuildingBlock: AJUNOK_clean_linker_0, # of connection points: 2
#     Edge 54, Type (0, 0), BuildingBlock: AJUNOK_clean_linker_0, # of connection points: 2
#     Edge 55, Type (0, 0), BuildingBlock: AJUNOK_clean_linker_0, # of connection points: 2
#     Edge 56, Type (0, 0), BuildingBlock: AJUNOK_clean_linker_0, # of connection points: 2
#     Edge 57, Type (0, 0), BuildingBlock: AJUNOK_clean_linker_0, # of connection points: 2
#     Edge 58, Type (0, 0), BuildingBlock: AJUNOK_clean_linker_0, # of connection points: 2
#     Edge 59, Type (0, 0), BuildingBlock: AJUNOK_clean_linker_0, # of connection points: 2
#     Edge 60, Type (0, 0), BuildingBlock: AJUNOK_clean_linker_0, # of connection points: 2
#     Edge 61, Type (0, 0), BuildingBlock: AJUNOK_clean_linker_0, # of connection points: 2
#     Edge 62, Type (0, 0), BuildingBlock: AJUNOK_clean_linker_0, # of connection points: 2
#     Edge 63, Type (0, 0), BuildingBlock: AJUNOK_clean_linker_0, # of connection points: 2
#     Edge 64, Type (0, 0), BuildingBlock: AJUNOK_clean_linker_0, # of connection points: 2
#     Edge 65, Type (0, 0), BuildingBlock: AJUNOK_clean_linker_0, # of connection points: 2
#     Edge 66, Type (0, 0), BuildingBlock: AJUNOK_clean_linker_0, # of connection points: 2
#     Edge 67, Type (0, 0), BuildingBlock: AJUNOK_clean_linker_0, # of connection points: 2
#     Edge 68, Type (0, 0), BuildingBlock: AJUNOK_clean_linker_0, # of connection points: 2
#     Edge 69, Type (0, 0), BuildingBlock: AJUNOK_clean_linker_0, # of connection points: 2
#     Edge 70, Type (0, 0), BuildingBlock: AJUNOK_clean_linker_0, # of connection points: 2
#     Edge 71, Type (0, 0), BuildingBlock: AJUNOK_clean_linker_0, # of connection points: 2
# Relax obj value: 0.180
# Max RMSD: 0.177
# Mean RMSD: 0.175
data_MOF--net-smd--node1-VOLQOD_clean_sbu_1--edge1-AJUNOK_clean_linker_0
_symmetry_space_group_name_H-M    P1
_symmetry_Int_Tables_number       1
_symmetry_cell_setting            triclinic
loop_
_symmetry_equiv_pos_as_xyz
'x, y, z'
_cell_length_a     59.235773
_cell_length_b     59.208468
_cell_length_c     12.964097
_cell_angle_alpha  90.025436
_cell_angle_beta   90.089469
_cell_angle_gamma 120.06046
loop_
_atom_site_label
_atom_site_type_symbol
_atom_site_fract_x
_atom_site_fract_y
_atom_site_fract_z
_atom_type_partial_charge
O0 O 0.0157 0.21239 0.25516 0.0
Zn1 Zn 0.01195 0.20166 0.40394 0.0
O2 O 0.00983 0.2282 0.48191 0.0
Zn3 Zn 0.04104 0.25178 0.55626 0.0
Zn4 Zn -0.00146 0.24667 0.39477 0.0
Zn5 Zn 0.98488 0.21118 0.58539 0.0
O6 O 0.03303 0.25157 0.71044 0.0
O7 O 0.00126 0.21022 0.7168 0.0
O8 O 0.04379 0.20025 0.45133 0.0
O9 O 0.06464 0.23684 0.5443 0.0
O10 O 0.05889 0.28816 0.48984 0.0
O11 O 0.02854 0.28228 0.37466 0.0
O12 O 0.96933 0.25018 0.46256 0.0
O13 O 0.97817 0.16655 0.41386 0.0
O14 O 0.96632 0.23055 0.61215 0.0
O15 O 0.9588 0.17603 0.53942 0.0
C16 C 0.00518 0.2232 0.20453 0.0
C17 C 0.01817 0.23093 0.76172 0.0
C18 C 0.05096 0.29631 0.41448 0.0
C19 C 0.06337 0.21647 0.50498 0.0
C20 C 0.96046 0.24419 0.55442 0.0
C21 C 0.95845 0.16053 0.47098 0.0
O22 O -0.00719 0.23294 0.24935 0.0
O23 O 0.80637 0.80986 0.70798 0.0
Zn24 Zn 0.81496 0.82236 0.56283 0.0
O25 O 0.78779 0.79752 0.47455 0.0
Zn26 Zn 0.79866 0.77543 0.40542 0.0
Zn27 Zn 0.7576 0.77729 0.55978 0.0
Zn28 Zn 0.77935 0.81553 0.37352 0.0
O29 O 0.78957 0.77274 0.25236 0.0
O30 O 0.78932 0.81012 0.23449 0.0
O31 O 0.84917 0.8249 0.52801 0.0
O32 O 0.83778 0.79253 0.41546 0.0
O33 O 0.78349 0.74035 0.48059 0.0
O34 O 0.75458 0.74286 0.58194 0.0
O35 O 0.72445 0.77252 0.49319 0.0
O36 O 0.81761 0.85767 0.55214 0.0
O37 O 0.74076 0.80003 0.36183 0.0
O38 O 0.79552 0.85338 0.4074 0.0
C39 C 0.78466 0.79892 0.75538 0.0
C40 C 0.78922 0.79031 0.19632 0.0
C41 C 0.7663 0.73104 0.55172 0.0
C42 C 0.85507 0.81171 0.46742 0.0
C43 C 0.72131 0.78306 0.41269 0.0
C44 C 0.80936 0.86707 0.48296 0.0
O45 O 0.7632 0.79034 0.70646 0.0
O46 O 0.20301 0.00343 0.27536 0.0
Zn47 Zn 0.19475 0.00804 0.42092 0.0
O48 O 0.22268 0.01154 0.508 0.0
Zn49 Zn 0.21316 0.97899 0.57778 0.0
Zn50 Zn 0.25268 0.02249 0.42127 0.0
Zn51 Zn 0.23097 0.03825 0.6073 0.0
O52 O 0.22125 0.98577 0.7318 0.0
O53 O 0.22148 0.02345 0.74657 0.0
O54 O 0.16076 0.97617 0.46072 0.0
O55 O 0.17433 0.95558 0.56492 0.0
O56 O 0.23029 0.9605 0.50589 0.0
O57 O 0.25702 0.99192 0.39893 0.0
O58 O 0.28579 0.05177 0.48468 0.0
O59 O 0.19217 0.04092 0.42828 0.0
O60 O 0.26942 0.06226 0.61756 0.0
O61 O 0.21443 0.05927 0.57224 0.0
C62 C 0.22468 0.01561 0.22796 0.0
C63 C 0.22157 0.0039 0.78643 0.0
C64 C 0.24695 0.96874 0.4327 0.0
C65 C 0.15604 0.95675 0.51776 0.0
C66 C 0.2889 0.06544 0.56514 0.0
C67 C 0.20055 0.05884 0.49655 0.0
O68 O 0.24596 0.02965 0.27664 0.0
O69 O 0.02516 0.79359 0.72969 0.0
Zn70 Zn 0.03361 0.80248 0.57703 0.0
O71 O 0.00196 0.79383 0.50265 0.0
Zn72 Zn -0.00733 0.76472 0.41408 0.0
Zn73 Zn 0.975 0.78416 0.60209 0.0
Zn74 Zn 0.00495 0.82205 0.42014 0.0
O75 O 0.98329 0.77031 0.27099 0.0
O76 O 0.00724 0.81363 0.27223 0.0
O77 O 0.05325 0.78608 0.50837 0.0
O78 O 0.02451 0.76294 0.38654 0.0
O79 O 0.96759 0.73128 0.48644 0.0
O80 O 0.95609 0.74526 0.62484 0.0
O81 O 0.95087 0.79687 0.56067 0.0
O82 O 0.05714 0.84126 0.5668 0.0
O83 O 0.97238 0.82493 0.43401 0.0
O84 O 0.03777 0.85557 0.45926 0.0
C85 C 0.00874 0.79704 0.78119 0.0
C86 C -0.00429 0.79203 0.22339 0.0
C87 C 0.95565 0.72686 0.57245 0.0
C88 C 0.04685 0.77185 0.42749 0.0
C89 C 0.95263 0.81327 0.4931 0.0
C90 C 0.05677 0.85981 0.51832 0.0
O91 O 0.99072 0.79923 0.73756 0.0
O92 O 0.24848 0.22581 0.27402 0.0
Zn93 Zn 0.24741 0.2167 0.42734 0.0
O94 O 0.22564 0.22709 0.50106 0.0
Zn95 Zn 0.24607 0.2577 0.5843 0.0
Zn96 Zn 0.20833 0.23497 0.39751 0.0
Zn97 Zn 0.19905 0.19971 0.58296 0.0
O98 O 0.23367 0.25133 0.73248 0.0
O99 O 0.20991 0.20787 0.73024 0.0
O100 O 0.28375 0.23346 0.49491 0.0
O101 O 0.28116 0.26165 0.60126 0.0
O102 O 0.25047 0.29071 0.51302 0.0
O103 O 0.22745 0.27276 0.37075 0.0
O104 O 0.1728 0.22564 0.43953 0.0
O105 O 0.2299 0.17732 0.43721 0.0
O106 O 0.16389 0.19767 0.56813 0.0
O107 O 0.19638 0.16575 0.54414 0.0
C108 C 0.22839 0.22146 0.22167 0.0
C109 C 0.22231 0.22938 0.77919 0.0
C110 C 0.24283 0.29279 0.42291 0.0
C111 C 0.29344 0.25095 0.56522 0.0
C112 C 0.15731 0.21024 0.5072 0.0
C113 C 0.20989 0.15991 0.4851 0.0
O114 O 0.20777 0.21808 0.26551 0.0
O115 O 0.77045 0.99082 0.70794 0.0
Zn116 Zn 0.76956 0.98222 0.5552 0.0
O117 O 0.79065 0.0142 0.4792 0.0
Zn118 Zn 0.76963 0.02145 0.3883 0.0
Zn119 Zn 0.80671 0.04283 0.57188 0.0
Zn120 Zn 0.81691 0.01263 0.39726 0.0
O121 O 0.78532 0.03148 0.24702 0.0
O122 O 0.80519 0.00801 0.25016 0.0
O123 O 0.73277 0.96146 0.49092 0.0
O124 O 0.73704 0.98828 0.36259 0.0
O125 O 0.75914 0.04586 0.45467 0.0
O126 O 0.78623 0.06103 0.58764 0.0
O127 O 0.84258 0.06776 0.52587 0.0
O128 O 0.78649 0.96011 0.54398 0.0
O129 O 0.85189 0.04626 0.40826 0.0
O130 O 0.82005 0.9816 0.43723 0.0
C131 C 0.78847 0.01015 0.75753 0.0
C132 C 0.79473 0.01901 0.20085 0.0
C133 C 0.76732 0.05968 0.53641 0.0
C134 C 0.72431 0.96651 0.40828 0.0
C135 C 0.85824 0.06668 0.46169 0.0
C136 C 0.80629 0.96232 0.49618 0.0
O137 O 0.80643 0.03007 0.712 0.0
O138 O 0.67299 0.54701 0.06061 0.0
Zn139 Zn 0.67772 0.53936 0.9152 0.0
O140 O 0.6808 0.56725 0.83014 0.0
Zn141 Zn 0.648 0.55765 0.76044 0.0
Zn142 Zn 0.69228 0.59729 0.91747 0.0
Zn143 Zn 0.70766 0.57581 0.73116 0.0
O144 O 0.65502 0.56427 0.60571 0.0
O145 O 0.69252 0.56407 0.59371 0.0
O146 O 0.64576 0.50574 0.87638 0.0
O147 O 0.6238 0.51883 0.77681 0.0
O148 O 0.63085 0.57735 0.82511 0.0
O149 O 0.66314 0.60402 0.92935 0.0
O150 O 0.72123 0.63021 0.85333 0.0
O151 O 0.7104 0.53651 0.90702 0.0
O152 O 0.72941 0.61439 0.71283 0.0
O153 O 0.73008 0.56088 0.76918 0.0
C154 C 0.68395 0.5684 0.11037 0.0
C155 C 0.67301 0.56395 0.55238 0.0
C156 C 0.64045 0.59559 0.89255 0.0
C157 C 0.62574 0.50085 0.82298 0.0
C158 C 0.73285 0.63373 0.76715 0.0
C159 C 0.72907 0.54607 0.8422 0.0
O160 O 0.69765 0.59023 0.0649 0.0
O161 O 0.47499 0.14712 0.06009 0.0
Zn162 Zn 0.48391 0.16075 0.91623 0.0
O163 O 0.45653 0.13709 0.82744 0.0
Zn164 Zn 0.46541 0.11402 0.7543 0.0
Zn165 Zn 0.42581 0.1187 0.9102 0.0
Zn166 Zn 0.45003 0.15635 0.72755 0.0
O167 O 0.45673 0.11423 0.60032 0.0
O168 O 0.46513 0.15526 0.59469 0.0
O169 O 0.51729 0.16242 0.87556 0.0
O170 O 0.50443 0.12921 0.76567 0.0
O171 O 0.44675 0.07764 0.82347 0.0
O172 O 0.41953 0.0829 0.92543 0.0
O173 O 0.39365 0.11531 0.83902 0.0
O174 O 0.48738 0.19666 0.91148 0.0
O175 O 0.41185 0.13915 0.69918 0.0
O176 O 0.46407 0.19308 0.77126 0.0
C177 C 0.45328 0.13836 0.1064 0.0
C178 C 0.46032 0.1343 0.54942 0.0
C179 C 0.4287 0.069 0.89156 0.0
C180 C 0.52233 0.14841 0.81585 0.0
C181 C 0.39173 0.1235 0.75025 0.0
C182 C 0.47839 0.20632 0.84646 0.0
O183 O 0.43213 0.1318 0.05754 0.0
O184 O 0.87663 0.34875 0.03715 0.0
Zn185 Zn 0.86323 0.34357 0.89294 0.0
O186 O 0.88812 0.3414 0.80566 0.0
Zn187 Zn 0.91011 0.37398 0.73368 0.0
Zn188 Zn 0.90816 0.33152 0.89203 0.0
Zn189 Zn 0.87014 0.31452 0.70739 0.0
O190 O 0.91109 0.36652 0.57982 0.0
O191 O 0.87321 0.32918 0.56934 0.0
O192 O 0.86037 0.37484 0.85501 0.0
O193 O 0.89336 0.39633 0.74577 0.0
O194 O 0.94606 0.39374 0.80497 0.0
O195 O 0.94214 0.36325 0.91546 0.0
O196 O 0.91478 0.30461 0.82303 0.0
O197 O 0.82787 0.31033 0.88492 0.0
O198 O 0.88744 0.2934 0.69095 0.0
O199 O 0.83294 0.29176 0.74421 0.0
C200 C 0.88675 0.3372 0.08466 0.0
C201 C 0.89279 0.34826 0.52693 0.0
C202 C 0.95479 0.3863 0.88009 0.0
C203 C 0.87387 0.39418 0.79591 0.0
C204 C 0.90513 0.29177 0.73991 0.0
C205 C 0.81897 0.29213 0.81775 0.0
O206 O 0.8941 0.32312 0.0371 0.0
O207 O 0.6929 0.12857 0.03966 0.0
Zn208 Zn 0.70032 0.13684 0.88418 0.0
O209 O 0.66806 0.12873 0.81395 0.0
Zn210 Zn 0.65496 0.09774 0.73161 0.0
Zn211 Zn 0.64411 0.12311 0.92041 0.0
Zn212 Zn 0.67039 0.15636 0.73027 0.0
O213 O 0.65021 0.10429 0.58121 0.0
O214 O 0.6726 0.14776 0.58354 0.0
O215 O 0.71708 0.1175 0.81282 0.0
O216 O 0.68352 0.09031 0.71608 0.0
O217 O 0.62595 0.06625 0.80607 0.0
O218 O 0.62377 0.08524 0.95057 0.0
O219 O 0.62028 0.13623 0.88482 0.0
O220 O 0.72445 0.1759 0.87063 0.0
O221 O 0.63837 0.16028 0.74509 0.0
O222 O 0.70315 0.18931 0.76808 0.0
C223 C 0.67854 0.13468 0.09279 0.0
C224 C 0.66238 0.12622 0.53459 0.0
C225 C 0.61771 0.06482 0.89831 0.0
C226 C 0.70679 0.09904 0.74635 0.0
C227 C 0.62044 0.15086 0.81295 0.0
C228 C 0.72288 0.194 0.82328 0.0
O229 O 0.66243 0.13981 0.04925 0.0
O230 O 0.89114 0.58176 0.07167 0.0
Zn231 Zn 0.8836 0.58205 0.91806 0.0
O232 O 0.89276 0.55886 0.84679 0.0
Zn233 Zn 0.92257 0.57752 0.75975 0.0
Zn234 Zn 0.90112 0.54009 0.94411 0.0
Zn235 Zn 0.8649 0.53473 0.76001 0.0
O236 O 0.91574 0.56417 0.61344 0.0
O237 O 0.87281 0.54785 0.61567 0.0
O238 O 0.90229 0.61874 0.85113 0.0
O239 O 0.92789 0.61283 0.74348 0.0
O240 O 0.95556 0.58217 0.82565 0.0
O241 O 0.9397 0.55676 0.96256 0.0
O242 O 0.886 0.50283 0.90272 0.0
O243 O 0.84468 0.56699 0.90551 0.0
O244 O 0.86205 0.49921 0.7644 0.0
O245 O 0.83134 0.5328 0.80061 0.0
C246 C 0.89034 0.5631 0.1243 0.0
C247 C 0.89424 0.55723 0.56687 0.0
C248 C 0.95903 0.57334 0.91026 0.0
C249 C 0.91956 0.62716 0.77999 0.0
C250 C 0.87137 0.48958 0.82805 0.0
C251 C 0.82657 0.54733 0.85833 0.0
O252 O 0.88955 0.54333 0.08217 0.0
O253 O 0.43681 0.328 0.06606 0.0
Zn254 Zn 0.43793 0.32067 0.91278 0.0
O255 O 0.45985 0.35323 0.84023 0.0
Zn256 Zn 0.43936 0.36172 0.75059 0.0
Zn257 Zn 0.47703 0.38091 0.93706 0.0
Zn258 Zn 0.48554 0.35135 0.75619 0.0
O259 O 0.4543 0.37051 0.60767 0.0
O260 O 0.47314 0.34614 0.60994 0.0
O261 O 0.40197 0.30003 0.84171 0.0
O262 O 0.40576 0.32931 0.72548 0.0
O263 O 0.43174 0.38831 0.81602 0.0
O264 O 0.45945 0.40196 0.94734 0.0
O265 O 0.51455 0.40374 0.90379 0.0
O266 O 0.45527 0.29897 0.90493 0.0
O267 O 0.52066 0.38482 0.7666 0.0
O268 O 0.48885 0.32046 0.79837 0.0
C269 C 0.4544 0.34692 0.11878 0.0
C270 C 0.46268 0.3572 0.56102 0.0
C271 C 0.44139 0.40245 0.89628 0.0
C272 C 0.39319 0.30658 0.76403 0.0
C273 C 0.52907 0.40322 0.83282 0.0
C274 C 0.47525 0.30132 0.85828 0.0
O275 O 0.47312 0.36686 0.07673 0.0
O276 O 0.34581 0.88331 0.9227 0.0
Zn277 Zn 0.34329 0.87277 0.07041 0.0
O278 O 0.34111 0.89855 0.15352 0.0
Zn279 Zn 0.37379 0.92257 0.2224 0.0
Zn280 Zn 0.32871 0.91678 0.06956 0.0
Zn281 Zn 0.31645 0.88077 0.25914 0.0
O282 O 0.3671 0.92416 0.37759 0.0
O283 O 0.334 0.88353 0.39116 0.0
O284 O 0.37577 0.87231 0.10921 0.0
O285 O 0.39732 0.90704 0.21152 0.0
O286 O 0.39104 0.95871 0.15148 0.0
O287 O 0.35697 0.95328 0.05971 0.0
O288 O 0.29844 0.91821 0.13639 0.0
O289 O 0.31174 0.83647 0.0887 0.0
O290 O 0.29443 0.89701 0.28226 0.0
O291 O 0.29403 0.84349 0.22692 0.0
C292 C 0.33661 0.89552 0.87331 0.0
C293 C 0.35182 0.90432 0.43211 0.0
C294 C 0.38042 0.96741 0.08927 0.0
C295 C 0.39533 0.88702 0.16577 0.0
C296 C 0.28852 0.91089 0.22605 0.0
C297 C 0.29427 0.82828 0.15843 0.0
O298 O 0.32511 0.90598 0.91956 0.0
O299 O 0.14021 0.47897 0.38728 0.0
Zn300 Zn 0.14858 0.4901 0.24103 0.0
O301 O 0.12113 0.46466 0.15601 0.0
Zn302 Zn 0.13134 0.44272 0.08197 0.0
Zn303 Zn 0.09124 0.44404 0.24128 0.0
Zn304 Zn 0.11249 0.48245 0.05515 0.0
O305 O 0.12209 0.4415 0.9295 0.0
O306 O 0.12724 0.48135 0.92017 0.0
O307 O 0.18247 0.49214 0.20419 0.0
O308 O 0.17059 0.45953 0.09208 0.0
O309 O 0.11508 0.40653 0.14902 0.0
O310 O 0.08861 0.40967 0.26237 0.0
O311 O 0.05804 0.43806 0.17003 0.0
O312 O 0.15126 0.5254 0.22891 0.0
O313 O 0.07385 0.46388 0.03335 0.0
O314 O 0.12552 0.51942 0.09433 0.0
C315 C 0.11861 0.46761 0.43545 0.0
C316 C 0.12513 0.46111 0.87722 0.0
C317 C 0.0989 0.39729 0.22364 0.0
C318 C 0.1881 0.47878 0.1433 0.0
C319 C 0.05458 0.44682 0.08496 0.0
C320 C 0.14075 0.5338 0.16542 0.0
O321 O 0.09681 0.45726 0.38775 0.0
O322 O 0.53399 0.67491 0.91765 0.0
Zn323 Zn 0.52619 0.67774 0.06474 0.0
O324 O 0.55511 0.68184 0.14512 0.0
Zn325 Zn 0.54872 0.6502 0.21529 0.0
Zn326 Zn 0.5857 0.69592 0.05998 0.0
Zn327 Zn 0.56039 0.70598 0.25054 0.0
O328 O 0.55632 0.65769 0.37102 0.0
O329 O 0.54473 0.68797 0.38061 0.0
O330 O 0.49393 0.64466 0.10801 0.0
O331 O 0.51013 0.62465 0.20249 0.0
O332 O 0.56964 0.63494 0.14644 0.0
O333 O 0.59532 0.6687 0.04716 0.0
O334 O 0.61703 0.72654 0.13088 0.0
O335 O 0.52152 0.70943 0.07693 0.0
O336 O 0.59826 0.72755 0.27766 0.0
O337 O 0.54614 0.72881 0.21445 0.0
C338 C 0.55509 0.6861 0.86601 0.0
C339 C 0.54951 0.67157 0.42366 0.0
C340 C 0.58805 0.64593 0.08051 0.0
C341 C 0.4908 0.62515 0.16109 0.0
C342 C 0.61858 0.73462 0.2236 0.0
C343 C 0.53095 0.72781 0.14319 0.0
O344 O 0.5773 0.69927 0.91025 0.0
O345 O 0.35988 0.46383 0.4027 0.0
Zn346 Zn 0.36761 0.47157 0.24854 0.0
O347 O 0.33569 0.46271 0.17561 0.0
Zn348 Zn 0.32545 0.43353 0.08522 0.0
Zn349 Zn 0.3084 0.45292 0.27223 0.0
Zn350 Zn 0.33919 0.49093 0.09166 0.0
O351 O 0.31629 0.44004 0.94333 0.0
O352 O 0.34363 0.48287 0.94569 0.0
O353 O 0.38628 0.45444 0.17787 0.0
O354 O 0.35692 0.43134 0.05754 0.0
O355 O 0.29907 0.39954 0.15136 0.0
O356 O 0.28808 0.4142 0.28863 0.0
O357 O 0.28541 0.46701 0.23217 0.0
O358 O 0.39176 0.51013 0.23439 0.0
O359 O 0.3063 0.49361 0.10074 0.0
O360 O 0.37171 0.52447 0.13095 0.0
C361 C 0.34172 0.46432 0.4543 0.0
C362 C 0.33101 0.46144 0.89675 0.0
C363 C 0.28656 0.39543 0.23566 0.0
C364 C 0.3794 0.44015 0.09697 0.0
C365 C 0.28691 0.48276 0.16217 0.0
C366 C 0.3912 0.52867 0.1867 0.0
O367 O 0.32278 0.46484 0.41056 0.0
O368 O 0.57878 0.8923 0.92593 0.0
Zn369 Zn 0.5773 0.88424 0.07975 0.0
O370 O 0.55627 0.89616 0.15065 0.0
Zn371 Zn 0.57708 0.92606 0.23721 0.0
Zn372 Zn 0.53849 0.90514 0.05147 0.0
Zn373 Zn 0.53063 0.86948 0.23745 0.0
O374 O 0.5638 0.91994 0.38336 0.0
O375 O 0.54414 0.87663 0.3815 0.0
O376 O 0.61345 0.90021 0.14836 0.0
O377 O 0.61152 0.92853 0.256 0.0
O378 O 0.58225 0.95977 0.17262 0.0
O379 O 0.5549 0.94346 0.04038 0.0
O380 O 0.50117 0.89074 0.08543 0.0
O381 O 0.55911 0.84497 0.09192 0.0
O382 O 0.49636 0.86943 0.23233 0.0
O383 O 0.52545 0.8346 0.19616 0.0
C384 C 0.56152 0.89379 0.87179 0.0
C385 C 0.55535 0.89821 0.42997 0.0
C386 C 0.57188 0.96287 0.09139 0.0
C387 C 0.62338 0.91736 0.21989 0.0
C388 C 0.48748 0.87803 0.16243 0.0
C389 C 0.5387 0.82803 0.13906 0.0
O390 O 0.54263 0.89492 0.91238 0.0
O391 O 0.10505 0.66037 0.39961 0.0
Zn392 Zn 0.10535 0.65216 0.24685 0.0
O393 O 0.12711 0.6841 0.16996 0.0
Zn394 Zn 0.10594 0.69251 0.08361 0.0
Zn395 Zn 0.14471 0.7115 0.26706 0.0
Zn396 Zn 0.1529 0.68181 0.08745 0.0
O397 O 0.11874 0.69927 0.93689 0.0
O398 O 0.14339 0.68064 0.94014 0.0
O399 O 0.06903 0.63151 0.18142 0.0
O400 O 0.07171 0.66051 0.06645 0.0
O401 O 0.09977 0.72004 0.15001 0.0
O402 O 0.12635 0.73184 0.28506 0.0
O403 O 0.18184 0.73457 0.23008 0.0
O404 O 0.12159 0.62941 0.23675 0.0
O405 O 0.18898 0.71314 0.1055 0.0
O406 O 0.15341 0.64907 0.12125 0.0
C407 C 0.12471 0.67789 0.44913 0.0
C408 C 0.13123 0.68986 0.89088 0.0
C409 C 0.10888 0.73322 0.23292 0.0
C410 C 0.05941 0.63793 0.10638 0.0
C411 C 0.19702 0.73253 0.16645 0.0
C412 C 0.14012 0.6304 0.18342 0.0
O413 O 0.14373 0.69679 0.40362 0.0
C414 C 0.07958 0.3491 0.21121 0.0
C415 C 0.09189 0.37196 0.27045 0.0
C416 C 0.06753 0.32456 0.25899 0.0
C417 C 0.06782 0.32211 0.36721 0.0
H418 H 0.0778 0.35018 0.12841 0.0
H419 H 0.05706 0.30735 0.21107 0.0
S420 S 0.10031 0.37628 0.55479 0.0
N421 N 0.10553 0.39086 0.44156 0.0
N422 N 0.08347 0.34462 0.53088 0.0
C423 C 0.08171 0.34481 0.42642 0.0
C424 C 0.09354 0.3698 0.37804 0.0
C425 C 0.69179 0.77612 0.263 0.0
C426 C 0.69481 0.77336 0.36946 0.0
C427 C 0.66708 0.7642 0.21646 0.0
C428 C 0.64437 0.7496 0.27495 0.0
H429 H 0.70871 0.78669 0.21408 0.0
H430 H 0.66582 0.76605 0.13381 0.0
S431 S 0.64144 0.7382 0.55825 0.0
N432 N 0.67288 0.75607 0.53285 0.0
N433 N 0.62643 0.73414 0.44666 0.0
C434 C 0.64704 0.74775 0.38251 0.0
C435 C 0.67224 0.7595 0.42941 0.0
C436 C 0.25771 0.93279 0.43103 0.0
C437 C 0.25355 0.95097 0.37763 0.0
C438 C 0.26748 0.91859 0.37972 0.0
C439 C 0.27325 0.92195 0.27305 0.0
H440 H 0.25469 0.9305 0.51364 0.0
H441 H 0.2717 0.90584 0.4254 0.0
S442 S 0.26069 0.9637 0.09558 0.0
N443 N 0.25232 0.96902 0.21049 0.0
N444 N 0.27051 0.94238 0.11415 0.0
C445 C 0.26711 0.9386 0.21771 0.0
C446 C 0.25734 0.95311 0.27001 0.0
C447 C 0.31861 0.09089 0.71081 0.0
C448 C 0.31547 0.0832 0.60624 0.0
C449 C 0.34336 0.10457 0.75664 0.0
C450 C 0.36597 0.11176 0.69897 0.0
H451 H 0.30178 0.08544 0.75912 0.0
H452 H 0.34476 0.10917 0.83813 0.0
S453 S 0.36881 0.09793 0.42113 0.0
N454 N 0.33738 0.08491 0.44549 0.0
N455 N 0.38386 0.11097 0.53097 0.0
C456 C 0.36326 0.10527 0.59329 0.0
C457 C 0.33803 0.09094 0.54706 0.0
C458 C 0.93141 0.26944 0.75236 0.0
C459 C 0.91684 0.27729 0.69205 0.0
C460 C 0.9448 0.2581 0.70702 0.0
C461 C 0.94457 0.2546 0.59933 0.0
H462 H 0.9328 0.27241 0.83512 0.0
H463 H 0.95612 0.2528 0.75682 0.0
S464 S 0.90879 0.27108 0.40682 0.0
N465 N 0.90231 0.27994 0.51857 0.0
N466 N 0.9279 0.25902 0.43394 0.0
C467 C 0.92974 0.2619 0.53818 0.0
C468 C 0.91574 0.27309 0.5844 0.0
C469 C 0.76127 0.68633 0.5609 0.0
C470 C 0.76135 0.70749 0.60993 0.0
C471 C 0.7538 0.66303 0.61464 0.0
C472 C 0.74637 0.66015 0.71961 0.0
H473 H 0.76579 0.68732 0.47951 0.0
H474 H 0.75262 0.64676 0.57184 0.0
S475 S 0.74845 0.71203 0.88756 0.0
N476 N 0.75705 0.7256 0.77253 0.0
N477 N 0.74316 0.68206 0.87322 0.0
C478 C 0.74848 0.68204 0.77122 0.0
C479 C 0.75588 0.70561 0.71642 0.0
C480 C 0.92468 0.69125 0.69228 0.0
C481 C 0.94554 0.70098 0.62173 0.0
C482 C 0.91656 0.66766 0.74549 0.0
C483 C 0.92939 0.65327 0.73151 0.0
H484 H 0.91447 0.70187 0.70599 0.0
H485 H 0.89998 0.66054 0.79682 0.0
S486 S 0.98753 0.67246 0.56547 0.0
N487 N 0.98008 0.6955 0.54692 0.0
N488 N 0.96567 0.65204 0.64786 0.0
C489 C 0.95096 0.66348 0.66379 0.0
C490 C 0.95879 0.68706 0.60862 0.0
C491 C 0.34179 0.27596 0.55485 0.0
C492 C 0.31925 0.25924 0.61039 0.0
C493 C 0.36592 0.29009 0.6051 0.0
C494 C 0.36839 0.28784 0.7125 0.0
H495 H 0.34046 0.27952 0.47369 0.0
H496 H 0.38263 0.30374 0.56004 0.0
S497 S 0.31539 0.24406 0.88951 0.0
N498 N 0.30093 0.23946 0.77609 0.0
N499 N 0.34651 0.26556 0.87024 0.0
C500 C 0.3463 0.26965 0.76725 0.0
C501 C 0.32163 0.25554 0.71623 0.0
C502 C 0.74929 0.10042 0.70854 0.0
C503 C 0.72215 0.08862 0.69425 0.0
C504 C 0.76399 0.0916 0.65441 0.0
C505 C 0.75222 0.07094 0.58268 0.0
H506 H 0.7593 0.11661 0.76162 0.0
H507 H 0.78475 0.10096 0.66937 0.0
S508 S 0.68164 0.03232 0.5204 0.0
N509 N 0.68398 0.05414 0.60525 0.0
N510 N 0.71171 0.03833 0.50309 0.0
C511 C 0.72517 0.05903 0.56742 0.0
C512 C 0.71013 0.06763 0.6234 0.0
C513 C 0.65147 0.92749 0.37556 0.0
C514 C 0.64871 0.92427 0.26754 0.0
C515 C 0.67606 0.93885 0.42307 0.0
C516 C 0.69871 0.9478 0.36372 0.0
H517 H 0.63455 0.92227 0.42331 0.0
H518 H 0.67747 0.94247 0.50541 0.0
S519 S 0.70198 0.94162 0.07998 0.0
N520 N 0.6705 0.92868 0.1042 0.0
N521 N 0.71687 0.95075 0.19287 0.0
C522 C 0.6961 0.94318 0.25656 0.0
C523 C 0.67102 0.93117 0.20849 0.0
C524 C 0.08311 0.76153 0.43321 0.0
C525 C 0.06548 0.7658 0.37589 0.0
C526 C 0.09825 0.75239 0.38515 0.0
C527 C 0.09636 0.7473 0.27801 0.0
H528 H 0.08429 0.76402 0.51621 0.0
H529 H 0.11056 0.74807 0.43341 0.0
S530 S 0.05689 0.76048 0.09121 0.0
N531 N 0.0497 0.7679 0.2046 0.0
N532 N 0.07806 0.75073 0.11483 0.0
C533 C 0.0802 0.75336 0.21912 0.0
C534 C 0.06479 0.7626 0.26792 0.0
C535 C 0.27161 0.3659 0.3889 0.0
C536 C 0.27306 0.3689 0.28073 0.0
C537 C 0.26183 0.34128 0.43469 0.0
C538 C 0.25267 0.31869 0.37406 0.0
H539 H 0.27895 0.3828 0.43893 0.0
H540 H 0.26152 0.33998 0.51808 0.0
S541 S 0.25108 0.3159 0.08709 0.0
N542 N 0.26385 0.34718 0.1144 0.0
N543 N 0.24511 0.30089 0.19943 0.0
C544 C 0.25338 0.32138 0.2656 0.0
C545 C 0.26366 0.34647 0.21923 0.0
C546 C 0.00134 0.42294 0.88021 0.0
C547 C 0.97921 0.40464 0.93439 0.0
C548 C 0.02542 0.4376 0.93087 0.0
C549 C 0.02815 0.43456 0.0376 0.0
H550 H 0.00037 0.425 0.79754 0.0
H551 H 0.04224 0.45049 0.88477 0.0
S552 S 0.97463 0.39247 0.21688 0.0
N553 N 0.96058 0.38668 0.10238 0.0
N554 N 0.00562 0.41415 0.1972 0.0
C555 C 0.00563 0.41763 0.09353 0.0
C556 C 0.98123 0.40271 0.04203 0.0
C557 C 0.5999 0.59344 0.96463 0.0
C558 C 0.62596 0.60816 0.9315 0.0
C559 C 0.58776 0.60544 0.01688 0.0
C560 C 0.60131 0.6325 0.03651 0.0
H561 H 0.58912 0.57251 0.95283 0.0
H562 H 0.56761 0.59358 0.04042 0.0
S563 S 0.6699 0.67952 0.96408 0.0
N564 N 0.66471 0.6511 0.92079 0.0
N565 N 0.6423 0.67346 0.01875 0.0
C566 C 0.62734 0.64728 0.00293 0.0
C567 C 0.63954 0.63517 0.95036 0.0
C568 C 0.39141 0.02996 0.96861 0.0
C569 C 0.41757 0.04252 0.93631 0.0
C570 C 0.38026 0.00633 0.02154 0.0
C571 C 0.3947 0.99408 0.04559 0.0
H572 H 0.37931 0.03852 0.95301 0.0
H573 H 0.35991 -0.00253 0.04333 0.0
S574 S 0.46407 0.01877 0.97946 0.0
N575 N 0.45789 0.04111 0.93282 0.0
N576 N 0.43665 -0.00383 0.0328 0.0
C577 C 0.42097 0.00635 0.01458 0.0
C578 C 0.43241 0.0306 0.95931 0.0
C579 C 0.59102 0.01615 0.892 0.0
C580 C 0.60356 0.03916 0.95063 0.0
C581 C 0.58003 0.99165 0.9392 0.0
C582 C 0.58155 0.98915 0.04684 0.0
H583 H 0.59008 0.01703 0.80873 0.0
H584 H 0.57111 0.97453 0.89007 0.0
S585 S 0.61103 0.04326 0.23633 0.0
N586 N 0.61576 0.05787 0.12351 0.0
N587 N 0.59543 0.01167 0.21124 0.0
C588 C 0.59342 0.01192 0.10685 0.0
C589 C 0.60428 0.03694 0.05904 0.0
C590 C 0.03027 0.62254 0.95288 0.0
C591 C 0.03447 0.61878 0.05694 0.0
C592 C 0.00643 0.6065 0.90402 0.0
C593 C 0.98554 0.58601 0.95709 0.0
H594 H 0.04541 0.63844 0.90873 0.0
H595 H 0.00409 0.61102 0.82513 0.0
S596 S 0.98735 0.56616 0.22803 0.0
N597 N 0.0166 0.59173 0.20921 0.0
N598 N 0.97147 0.56143 0.11805 0.0
C599 C 0.98996 0.581 0.05966 0.0
C600 C 0.01447 0.5974 0.10938 0.0
C601 C 0.41669 0.43142 0.09743 0.0
C602 C 0.39775 0.43415 0.04283 0.0
C603 C 0.4319 0.42264 0.04768 0.0
C604 C 0.42874 0.41635 0.94147 0.0
H605 H 0.41895 0.4349 0.17985 0.0
H606 H 0.44529 0.41953 0.09428 0.0
S607 S 0.3853 0.42527 0.76035 0.0
N608 N 0.37926 0.4336 0.87411 0.0
N609 N 0.40766 0.41694 0.78128 0.0
C610 C 0.41118 0.42087 0.88479 0.0
C611 C 0.39574 0.42981 0.9353 0.0
C612 C 0.11083 0.2353 0.5349 0.0
C613 C 0.08635 0.2131 0.51593 0.0
C614 C 0.13352 0.23372 0.53622 0.0
C615 C 0.1326 0.20984 0.52091 0.0
H616 H 0.11273 0.25435 0.54466 0.0
H617 H 0.15208 0.2515 0.54675 0.0
S618 S 0.0736 0.14557 0.47688 0.0
N619 N 0.06247 0.1661 0.48702 0.0
N620 N 0.10557 0.16326 0.49183 0.0
C621 C 0.10834 0.18723 0.50686 0.0
C622 C 0.08508 0.18884 0.50362 0.0
C623 C 0.81873 0.93273 0.40952 0.0
C624 C 0.81157 0.94054 0.5003 0.0
C625 C 0.81935 0.90943 0.40601 0.0
C626 C 0.81361 0.89362 0.49389 0.0
H627 H 0.82229 0.94382 0.33899 0.0
H628 H 0.82344 0.90326 0.33309 0.0
S629 S 0.79667 0.90695 0.75327 0.0
N630 N 0.80047 0.93173 0.68192 0.0
N631 N 0.80252 0.88826 0.67611 0.0
C632 C 0.80822 0.90211 0.58696 0.0
C633 C 0.80694 0.92551 0.58992 0.0
C634 C 0.09984 0.89094 0.59719 0.0
C635 C 0.08012 0.88632 0.52537 0.0
C636 C 0.12377 0.91424 0.59685 0.0
C637 C 0.12913 0.93406 0.52478 0.0
H638 H 0.09719 0.8761 0.6525 0.0
H639 H 0.13846 0.9163 0.65195 0.0
S640 S 0.08312 0.93307 0.32726 0.0
N641 N 0.06677 0.90454 0.38546 0.0
N642 N 0.11184 0.94844 0.38491 0.0
C643 C 0.10906 0.93044 0.45639 0.0
C644 C 0.08457 0.90658 0.45668 0.0
C645 C 0.19358 0.11653 0.56718 0.0
C646 C 0.20342 0.13243 0.47924 0.0
C647 C 0.1909 0.0917 0.56971 0.0
C648 C 0.19721 0.08162 0.48345 0.0
H649 H 0.1894 0.12391 0.63675 0.0
H650 H 0.18494 0.08075 0.64113 0.0
S651 S 0.22072 0.11407 0.23048 0.0
N652 N 0.21749 0.13552 0.30106 0.0
N653 N 0.2117 0.08835 0.30517 0.0
C654 C 0.20525 0.09647 0.39261 0.0
C655 C 0.20859 0.12205 0.39072 0.0
C656 C 0.90685 0.08921 0.43768 0.0
C657 C 0.88379 0.09039 0.44762 0.0
C658 C 0.93143 0.11215 0.4399 0.0
C659 C 0.93334 0.13666 0.45204 0.0
H660 H 0.90594 0.0705 0.43343 0.0
H661 H 0.94889 0.11063 0.43734 0.0
S662 S 0.87863 0.15022 0.46056 0.0
N663 N 0.86443 0.11812 0.45528 0.0
N664 N 0.91026 0.16094 0.45919 0.0
C665 C 0.91035 0.13802 0.45413 0.0
C666 C 0.88562 0.11493 0.45201 0.0
C667 C 0.91919 0.82184 0.56839 0.0
C668 C 0.93038 0.8175 0.48068 0.0
C669 C 0.89558 0.82177 0.5617 0.0
C670 C 0.88199 0.8165 0.46763 0.0
H671 H 0.92838 0.82453 0.64325 0.0
H672 H 0.88716 0.82428 0.63188 0.0
S673 S 0.90395 0.80545 0.21461 0.0
N674 N 0.92724 0.8096 0.29594 0.0
N675 N 0.88216 0.80839 0.28386 0.0
C676 C 0.89348 0.8131 0.37862 0.0
C677 C 0.9179 0.8139 0.38502 0.0
C678 C 0.78476 0.53566 0.771 0.0
C679 C 0.79981 0.54296 0.86176 0.0
C680 C 0.76104 0.53541 0.76686 0.0
C681 C 0.75121 0.54164 0.85414 0.0
H682 H 0.79206 0.5316 0.70095 0.0
H683 H 0.75071 0.53115 0.69395 0.0
S684 S 0.78179 0.55937 0.1131 0.0
N685 N 0.80248 0.55493 0.04267 0.0
N686 N 0.75725 0.55352 0.03563 0.0
C687 C 0.76518 0.5473 0.94713 0.0
C688 C 0.78971 0.54824 0.95072 0.0
C689 C 0.48954 0.27267 0.7761 0.0
C690 C 0.4809 0.27978 0.86469 0.0
C691 C 0.49025 0.24943 0.77311 0.0
C692 C 0.4831 0.23296 0.85948 0.0
H693 H 0.49411 0.2842 0.7063 0.0
H694 H 0.49536 0.24373 0.70131 0.0
S695 S 0.4623 0.24437 0.11408 0.0
N696 N 0.46716 0.26967 0.04366 0.0
N697 N 0.46932 0.22624 0.03858 0.0
C698 C 0.47637 0.24077 0.95098 0.0
C699 C 0.47503 0.26415 0.95341 0.0
C700 C 0.76175 0.22967 0.91396 0.0
C701 C 0.74536 0.22086 0.8267 0.0
C702 C 0.78479 0.25402 0.91404 0.0
C703 C 0.79232 0.26995 0.82605 0.0
H704 H 0.7571 0.2174 0.98161 0.0
H705 H 0.79751 0.25969 0.98081 0.0
S706 S 0.75578 0.25674 0.58048 0.0
N707 N 0.73764 0.23089 0.65251 0.0
N708 N 0.78133 0.27618 0.65209 0.0
C709 C 0.7757 0.26188 0.74009 0.0
C710 C 0.75206 0.23743 0.74058 0.0
C711 C 0.86088 0.44633 0.89657 0.0
C712 C 0.86712 0.46318 0.81187 0.0
C713 C 0.86135 0.42302 0.88833 0.0
C714 C 0.86889 0.41621 0.79591 0.0
H715 H 0.85648 0.45167 0.97071 0.0
H716 H 0.85735 0.41109 0.95669 0.0
S717 S 0.88539 0.45299 0.54995 0.0
N718 N 0.87923 0.47079 0.63092 0.0
N719 N 0.88105 0.42728 0.61613 0.0
C720 C 0.87412 0.43238 0.70938 0.0
C721 C 0.87297 0.45581 0.71716 0.0
C722 C 0.56438 0.44005 0.73448 0.0
C723 C 0.55578 0.42544 0.82585 0.0
C724 C 0.58761 0.46423 0.73292 0.0
C725 C 0.6032 0.47409 0.82193 0.0
H726 H 0.55236 0.43351 0.66567 0.0
H727 H 0.59309 0.47556 0.66242 0.0
S728 S 0.58989 0.44206 0.07807 0.0
N729 N 0.56492 0.42174 0.00569 0.0
N730 N 0.60902 0.46667 0.00212 0.0
C731 C 0.59544 0.45887 0.91203 0.0
C732 C 0.57156 0.43465 0.91417 0.0
C733 C 0.58251 0.14808 0.71899 0.0
C734 C 0.59837 0.15551 0.80733 0.0
C735 C 0.55817 0.14668 0.72096 0.0
C736 C 0.54929 0.15323 0.81062 0.0
H737 H 0.5882 0.14174 0.65029 0.0
H738 H 0.54591 0.13972 0.65288 0.0
S739 S 0.5851 0.17621 0.05874 0.0
N740 N 0.60457 0.17094 0.98417 0.0
N741 N 0.55926 0.16918 0.98746 0.0
C742 C 0.56585 0.16228 0.89722 0.0
C743 C 0.5903 0.16317 0.89569 0.0
C744 C 0.44544 0.86888 0.08586 0.0
C745 C 0.46169 0.87559 0.17293 0.0
C746 C 0.42323 0.87144 0.08628 0.0
C747 C 0.41698 0.88155 0.1728 0.0
H748 H 0.45045 0.86245 0.01567 0.0
H749 H 0.41166 0.86674 0.01642 0.0
S750 S 0.45244 0.90038 0.42241 0.0
N751 N 0.46929 0.89109 0.35007 0.0
N752 N 0.4278 0.89667 0.35018 0.0
C753 C 0.43253 0.8874 0.26183 0.0
C754 C 0.45483 0.88417 0.26213 0.0
C755 C 0.14946 0.59918 0.09191 0.0
C756 C 0.14429 0.6079 0.18499 0.0
C757 C 0.14941 0.57556 0.08725 0.0
C758 C 0.14498 0.56033 0.17603 0.0
H759 H 0.1521 0.6099 0.02099 0.0
H760 H 0.1521 0.56878 0.01311 0.0
S761 S 0.13317 0.57588 0.44029 0.0
N762 N 0.13624 0.6004 0.36908 0.0
N763 N 0.1371 0.5563 0.36077 0.0
C764 C 0.14143 0.56959 0.27075 0.0
C765 C 0.14081 0.59333 0.27509 0.0
C766 C 0.46061 0.58195 0.24094 0.0
C767 C 0.4643 0.6021 0.17335 0.0
C768 C 0.43655 0.55894 0.24835 0.0
C769 C 0.41502 0.55491 0.18824 0.0
H770 H 0.47661 0.58362 0.28731 0.0
H771 H 0.43516 0.54385 0.29962 0.0
S772 S 0.41351 0.60262 0.00632 0.0
N773 N 0.44371 0.61735 0.05056 0.0
N774 N 0.39842 0.57398 0.06428 0.0
C775 C 0.41798 0.57542 0.12404 0.0
C776 C 0.4426 0.59899 0.11659 0.0
C777 C 0.53472 0.76555 0.0453 0.0
C778 C 0.5265 0.74997 0.13426 0.0
C779 C 0.53753 0.79052 0.04567 0.0
C780 C 0.53167 0.80036 0.1343 0.0
H781 H 0.54082 0.75921 0.97778 0.0
H782 H 0.54526 0.80257 0.97752 0.0
S783 S 0.50682 0.76565 0.38299 0.0
N784 N 0.51085 0.74505 0.31021 0.0
N785 N 0.51524 0.79158 0.31037 0.0
C786 C 0.5216 0.78407 0.22109 0.0
C787 C 0.51928 0.75895 0.22122 0.0
C788 C 0.26095 0.7878 0.06778 0.0
C789 C 0.27286 0.80098 0.15993 0.0
C790 C 0.23696 0.76429 0.06983 0.0
C791 C 0.22438 0.75358 0.16404 0.0
H792 H 0.26925 0.79653 -0.0061 0.0
H793 H 0.22741 0.75547 -0.00249 0.0
S794 S 0.25036 0.77766 0.42616 0.0
N795 N 0.27244 0.7994 0.3475 0.0
N796 N 0.22739 0.75555 0.35102 0.0
C797 C 0.23729 0.76537 0.25634 0.0
C798 C 0.26158 0.78903 0.25436 0.0
C799 C 0.25399 0.49209 0.23716 0.0
C800 C 0.26454 0.48682 0.14969 0.0
C801 C 0.22991 0.4911 0.23241 0.0
C802 C 0.21519 0.48395 0.14074 0.0
H803 H 0.26402 0.49612 0.3107 0.0
H804 H 0.2221 0.49442 0.30263 0.0
S805 S 0.23515 0.46997 0.88865 0.0
N806 N 0.25955 0.47604 0.96724 0.0
N807 N 0.21368 0.47323 0.95881 0.0
C808 C 0.22604 0.47967 0.05163 0.0
C809 C 0.25091 0.48136 0.05595 0.0
C810 C 0.01019 0.20636 0.0351 0.0
C811 C 0.00902 0.22596 0.09187 0.0
C812 C 0.01421 0.20866 0.92838 0.0
C813 C 0.01801 0.231 0.8752 0.0
H814 H 0.00739 0.18884 0.07304 0.0
H815 H 0.01402 0.19268 0.88683 0.0
S816 S 0.01833 0.28857 0.98909 0.0
N817 N 0.01287 0.26886 0.08781 0.0
N818 N 0.0211 0.27341 0.88708 0.0
C819 C 0.01778 0.25115 0.93136 0.0
C820 C 0.01306 0.24854 0.03979 0.0
C821 C 0.80925 0.79686 0.02389 0.0
C822 C 0.78678 0.78752 0.08427 0.0
C823 C 0.80823 0.8003 0.91753 0.0
C824 C 0.7847 0.79464 0.86806 0.0
H825 H 0.82791 0.80263 0.05974 0.0
H826 H 0.82621 0.80791 0.87431 0.0
S827 S 0.72011 0.76814 -0.00538 0.0
N828 N 0.7403 0.77167 0.08936 0.0
N829 N 0.73805 0.77777 0.88898 0.0
C830 C 0.76187 0.78433 0.92806 0.0
C831 C 0.76302 0.78091 0.03638 0.0
C832 C 0.20435 0.98999 0.06718 0.0
C833 C 0.2252 0.01194 0.11539 0.0
C834 C 0.20404 0.98621 0.96031 0.0
C835 C 0.22448 0.00434 0.89861 0.0
H836 H 0.18797 0.97576 0.11205 0.0
H837 H 0.18721 0.96974 0.92534 0.0
S838 S 0.28424 0.06394 0.98573 0.0
N839 N 0.26748 0.05117 0.09247 0.0
N840 N 0.26655 0.04412 0.89163 0.0
C841 C 0.2458 0.02577 0.94569 0.0
C842 C 0.24628 0.02955 0.0542 0.0
C843 C 0.01078 0.81751 0.94958 0.0
C844 C 0.0084 0.79612 0.89396 0.0
C845 C 0.00641 0.81586 0.05597 0.0
C846 C -0.00121 0.7925 0.11003 0.0
H847 H 0.0157 0.83554 0.91017 0.0
H848 H 0.00866 0.83296 0.0958 0.0
S849 S 0.98854 0.73042 -0.00369 0.0
N850 N -0.00254 0.7508 0.89787 0.0
N851 N 0.98868 0.74726 0.0982 0.0
C852 C -0.0039 0.77082 0.05443 0.0
C853 C 0.00108 0.77274 0.94622 0.0
C854 C 0.20682 0.20452 0.05312 0.0
C855 C 0.22896 0.22264 0.10841 0.0
C856 C 0.20483 0.20707 0.94686 0.0
C857 C 0.22462 0.22824 0.89226 0.0
H858 H 0.19074 0.18836 0.09268 0.0
H859 H 0.18744 0.19251 0.90744 0.0
S860 S 0.28656 0.28121 0.00219 0.0
N861 N 0.27117 0.26237 0.10181 0.0
N862 N 0.26731 0.26756 0.90145 0.0
C863 C 0.24694 0.24655 0.94671 0.0
C864 C 0.24918 0.24361 0.05496 0.0
C865 C 0.79642 0.03714 0.02671 0.0
C866 C 0.79218 0.01595 0.08843 0.0
C867 C 0.79476 0.0348 0.91938 0.0
C868 C 0.78811 0.01101 0.87058 0.0
H869 H 0.80166 0.05579 0.06141 0.0
H870 H 0.79876 0.05179 0.87412 0.0
S871 S 0.77311 0.94918 -0.00132 0.0
N872 N 0.77995 0.97011 0.09433 0.0
N873 N 0.77611 0.9656 0.89167 0.0
C874 C 0.78285 0.98939 0.93151 0.0
C875 C 0.78513 0.99192 0.04086 0.0
C876 C 0.69956 0.58656 0.28592 0.0
C877 C 0.67985 0.56782 0.22255 0.0
C878 C 0.69656 0.5856 0.39296 0.0
C879 C 0.67352 0.5663 0.43989 0.0
H880 H 0.71774 0.60153 0.25297 0.0
H881 H 0.7126 0.59981 0.43974 0.0
S882 S 0.61523 0.51416 0.30807 0.0
N883 N 0.63586 0.53022 0.21387 0.0
N884 N 0.63022 0.52896 0.41602 0.0
C885 C 0.65319 0.5482 0.37763 0.0
C886 C 0.65639 0.5488 0.26852 0.0
C887 C 0.46637 0.12122 0.37244 0.0
C888 C 0.45649 0.13328 0.43682 0.0
C889 C 0.46497 0.12272 0.26477 0.0
C890 C 0.4529 0.13554 0.21887 0.0
H891 H 0.47608 0.11151 0.40525 0.0
H892 H 0.47352 0.11394 0.217 0.0
S893 S 0.42273 0.16887 0.35341 0.0
N894 N 0.4337 0.15794 0.44681 0.0
N895 N 0.43011 0.15952 0.24476 0.0
C896 C 0.44202 0.14667 0.28221 0.0
C897 C 0.44408 0.14586 0.39129 0.0
C898 C 0.8845 0.31968 0.26052 0.0
C899 C 0.89067 0.34102 0.19652 0.0
C900 C 0.886 0.32259 0.36763 0.0
C901 C 0.89451 0.34708 0.41418 0.0
H902 H 0.87747 0.30043 0.22787 0.0
H903 H 0.87995 0.30539 0.41461 0.0
S904 S 0.9156 0.40955 0.27918 0.0
N905 N 0.90711 0.38777 0.18572 0.0
N906 N 0.91086 0.39331 0.38816 0.0
C907 C 0.90212 0.36886 0.3509 0.0
C908 C 0.89991 0.36578 0.24161 0.0
C909 C 0.67219 0.15078 0.26042 0.0
C910 C 0.67777 0.13352 0.20655 0.0
C911 C 0.66686 0.14792 0.36604 0.0
C912 C 0.66633 0.12734 0.42186 0.0
H913 H 0.67153 0.16647 0.22009 0.0
H914 H 0.66278 0.16178 0.40408 0.0
S915 S 0.68093 0.07759 0.31866 0.0
N916 N 0.68348 0.09571 0.21755 0.0
N917 N 0.67315 0.0901 0.41705 0.0
C918 C 0.67227 0.11011 0.36967 0.0
C919 C 0.67817 0.11332 0.26185 0.0
C920 C 0.91039 0.55879 0.28471 0.0
C921 C 0.89265 0.56472 0.23688 0.0
C922 C 0.91133 0.55713 0.39197 0.0
C923 C 0.89407 0.56067 0.45459 0.0
H924 H 0.92341 0.55503 0.23859 0.0
H925 H 0.92504 0.55217 0.42574 0.0
S926 S 0.84494 0.57799 0.36665 0.0
N927 N 0.85849 0.5755 0.25917 0.0
N928 N 0.85965 0.57178 0.4617 0.0
C929 C 0.87666 0.56728 0.40772 0.0
C930 C 0.87614 0.56951 0.29842 0.0
C931 C 0.4574 0.37045 0.28 0.0
C932 C 0.45302 0.34733 0.2315 0.0
C933 C 0.46001 0.3733 0.38702 0.0
C934 C 0.459 0.35338 0.44878 0.0
H935 H 0.45928 0.38665 0.23449 0.0
H936 H 0.46364 0.39153 0.42121 0.0
S937 S 0.44644 0.28847 0.35908 0.0
N938 N 0.44643 0.30372 0.25242 0.0
N939 N 0.45184 0.3091 0.45452 0.0
C940 C 0.45394 0.32985 0.40137 0.0
C941 C 0.45076 0.32679 0.29231 0.0
C942 C 0.34993 0.88348 0.59932 0.0
C943 C 0.35229 0.90514 0.54541 0.0
C944 C 0.34481 0.88059 0.70515 0.0
C945 C 0.34121 0.89894 0.7608 0.0
H946 H 0.3514 0.86827 0.55861 0.0
H947 H 0.34308 0.86349 0.74315 0.0
S948 S 0.34605 0.95951 0.65519 0.0
N949 N 0.35132 0.94558 0.55476 0.0
N950 N 0.3414 0.94015 0.75443 0.0
C951 C 0.34396 0.92098 0.708 0.0
C952 C 0.34965 0.92412 0.60014 0.0
C953 C 0.14374 0.48148 0.70941 0.0
C954 C 0.12419 0.46036 0.76441 0.0
C955 C 0.14157 0.4837 0.60311 0.0
C956 C 0.11941 0.46521 0.54847 0.0
H957 H 0.1607 0.49662 0.74927 0.0
H958 H 0.15722 0.50028 0.56375 0.0
S959 S 0.06236 0.40663 0.65905 0.0
N960 N 0.08193 0.42074 0.75853 0.0
N961 N 0.07744 0.425 0.55794 0.0
C962 C 0.09961 0.44397 0.60297 0.0
C963 C 0.10213 0.44148 0.71123 0.0
C964 C 0.57368 0.68125 0.699 0.0
C965 C 0.55342 0.68199 0.75298 0.0
C966 C 0.57158 0.67581 0.59269 0.0
C967 C 0.5493 0.67127 0.53711 0.0
H968 H 0.59121 0.68478 0.73915 0.0
H969 H 0.5879 0.67629 0.55304 0.0
S970 S 0.49083 0.67075 0.64146 0.0
N971 N 0.51021 0.67723 0.74221 0.0
N972 N 0.5066 0.6675 0.54295 0.0
C973 C 0.52886 0.67163 0.59025 0.0
C974 C 0.53083 0.67687 0.69803 0.0
C975 C 0.31327 0.44575 0.72115 0.0
C976 C 0.33466 0.46131 0.78476 0.0
C977 C 0.31613 0.44638 0.61409 0.0
C978 C 0.34058 0.4621 0.56727 0.0
H979 H 0.29406 0.43367 0.75403 0.0
H980 H 0.29894 0.43469 0.56733 0.0
S981 S 0.40319 0.50405 0.70128 0.0
N982 N 0.38147 0.49142 0.79491 0.0
N983 N 0.38685 0.49202 0.59268 0.0
C984 C 0.36239 0.47666 0.63024 0.0
C985 C 0.3594 0.47647 0.73941 0.0
C986 C 0.55996 0.9156 0.71202 0.0
C987 C 0.56376 0.89638 0.75938 0.0
C988 C 0.55804 0.91657 0.60491 0.0
C989 C 0.55919 0.89792 0.54195 0.0
H990 H 0.5579 0.92969 0.75848 0.0
H991 H 0.55466 0.93141 0.5716 0.0
S992 S 0.57085 0.8448 0.62822 0.0
N993 N 0.57031 0.85941 0.73603 0.0
N994 N 0.56616 0.86073 0.53371 0.0
C995 C 0.56389 0.87911 0.58819 0.0
C996 C 0.56637 0.87849 0.69737 0.0
C997 C 0.10418 0.67552 0.61919 0.0
C998 C 0.12548 0.67813 0.56209 0.0
C999 C 0.10643 0.68025 0.72576 0.0
C1000 C 0.12989 0.68729 0.77803 0.0
H1001 H 0.08605 0.67073 0.5808 0.0
H1002 H 0.08962 0.67802 0.76766 0.0
S1003 S 0.19096 0.69592 0.6627 0.0
N1004 N 0.17049 0.68785 0.56471 0.0
N1005 N 0.17456 0.69618 0.76513 0.0
C1006 C 0.15109 0.68943 0.72174 0.0
C1007 C 0.14891 0.68497 0.61361 0.0
loop_
_geom_bond_atom_site_label_1
_geom_bond_atom_site_label_2
_geom_bond_distance
_geom_bond_site_symmetry_2
_ccdc_geom_bond_type
O0 Zn1 1.953 . S
O0 C16 1.225 . S
Zn1 O0 1.953 . S
Zn1 O2 1.949 . S
Zn1 O8 1.919 . S
Zn1 O13 1.924 1_455 S
O2 Zn1 1.949 . S
O2 Zn3 1.923 . S
O2 Zn4 1.950 . S
O2 Zn5 1.945 1_455 S
Zn3 O2 1.923 . S
Zn3 O6 1.933 . S
Zn3 O9 1.941 . S
Zn3 O10 1.965 . S
Zn4 O2 1.950 . S
Zn4 O11 1.938 . S
Zn4 O12 1.906 1_455 S
Zn4 O22 1.953 . S
Zn5 O2 1.945 1_655 S
Zn5 O7 1.932 1_655 S
Zn5 O14 1.977 . S
Zn5 O15 1.910 . S
O6 Zn3 1.933 . S
O6 C17 1.226 . S
O7 Zn5 1.932 1_455 S
O7 C17 1.307 . S
O8 Zn1 1.919 . S
O8 C19 1.253 . S
O9 Zn3 1.941 . S
O9 C19 1.283 . S
O10 Zn3 1.965 . S
O10 C18 1.303 . S
O11 Zn4 1.938 . S
O11 C18 1.247 . S
O12 Zn4 1.906 1_655 S
O12 C20 1.304 . S
O13 Zn1 1.924 1_655 S
O13 C21 1.311 . S
O14 Zn5 1.977 . S
O14 C20 1.272 . S
O15 Zn5 1.910 . S
O15 C21 1.231 . S
C16 O0 1.225 . S
C16 O22 1.297 . S
C17 O6 1.226 . S
C17 O7 1.307 . S
C18 O10 1.303 . S
C18 O11 1.247 . S
C19 O8 1.253 . S
C19 O9 1.283 . S
C20 O12 1.304 . S
C20 O14 1.272 . S
C21 O13 1.311 . S
C21 O15 1.231 . S
O22 Zn4 1.953 . S
O22 C16 1.297 . S
O23 Zn24 1.953 . S
O23 C39 1.225 . S
Zn24 O23 1.953 . S
Zn24 O25 1.949 . S
Zn24 O31 1.919 . S
Zn24 O36 1.924 . S
O25 Zn24 1.949 . S
O25 Zn26 1.923 . S
O25 Zn27 1.950 . S
O25 Zn28 1.945 . S
Zn26 O25 1.923 . S
Zn26 O29 1.933 . S
Zn26 O32 1.941 . S
Zn26 O33 1.965 . S
Zn27 O25 1.950 . S
Zn27 O34 1.938 . S
Zn27 O35 1.906 . S
Zn27 O45 1.953 . S
Zn28 O25 1.945 . S
Zn28 O30 1.932 . S
Zn28 O37 1.977 . S
Zn28 O38 1.910 . S
O29 Zn26 1.933 . S
O29 C40 1.226 . S
O30 Zn28 1.932 . S
O30 C40 1.307 . S
O31 Zn24 1.919 . S
O31 C42 1.253 . S
O32 Zn26 1.941 . S
O32 C42 1.283 . S
O33 Zn26 1.965 . S
O33 C41 1.303 . S
O34 Zn27 1.938 . S
O34 C41 1.247 . S
O35 Zn27 1.906 . S
O35 C43 1.304 . S
O36 Zn24 1.924 . S
O36 C44 1.311 . S
O37 Zn28 1.977 . S
O37 C43 1.272 . S
O38 Zn28 1.910 . S
O38 C44 1.231 . S
C39 O23 1.225 . S
C39 O45 1.298 . S
C40 O29 1.226 . S
C40 O30 1.307 . S
C41 O33 1.303 . S
C41 O34 1.247 . S
C42 O31 1.253 . S
C42 O32 1.283 . S
C43 O35 1.304 . S
C43 O37 1.272 . S
C44 O36 1.311 . S
C44 O38 1.231 . S
O45 Zn27 1.953 . S
O45 C39 1.298 . S
O46 Zn47 1.953 . S
O46 C62 1.225 . S
Zn47 O46 1.953 . S
Zn47 O48 1.949 . S
Zn47 O54 1.919 1_545 S
Zn47 O59 1.924 . S
O48 Zn47 1.949 . S
O48 Zn49 1.923 1_545 S
O48 Zn50 1.950 . S
O48 Zn51 1.945 . S
Zn49 O48 1.923 1_565 S
Zn49 O52 1.933 . S
Zn49 O55 1.941 . S
Zn49 O56 1.965 . S
Zn50 O48 1.950 . S
Zn50 O57 1.938 1_545 S
Zn50 O58 1.906 . S
Zn50 O68 1.953 . S
Zn51 O48 1.945 . S
Zn51 O53 1.932 . S
Zn51 O60 1.977 . S
Zn51 O61 1.910 . S
O52 Zn49 1.933 . S
O52 C63 1.226 1_565 S
O53 Zn51 1.932 . S
O53 C63 1.307 . S
O54 Zn47 1.919 1_565 S
O54 C65 1.253 . S
O55 Zn49 1.941 . S
O55 C65 1.283 . S
O56 Zn49 1.965 . S
O56 C64 1.303 . S
O57 Zn50 1.938 1_565 S
O57 C64 1.247 . S
O58 Zn50 1.906 . S
O58 C66 1.304 . S
O59 Zn47 1.924 . S
O59 C67 1.311 . S
O60 Zn51 1.977 . S
O60 C66 1.272 . S
O61 Zn51 1.910 . S
O61 C67 1.231 . S
C62 O46 1.225 . S
C62 O68 1.298 . S
C63 O52 1.226 1_545 S
C63 O53 1.307 . S
C64 O56 1.303 . S
C64 O57 1.247 . S
C65 O54 1.253 . S
C65 O55 1.283 . S
C66 O58 1.304 . S
C66 O60 1.272 . S
C67 O59 1.311 . S
C67 O61 1.231 . S
O68 Zn50 1.953 . S
O68 C62 1.298 . S
O69 Zn70 1.953 . S
O69 C85 1.225 . S
Zn70 O69 1.953 . S
Zn70 O71 1.949 . S
Zn70 O77 1.919 . S
Zn70 O82 1.924 . S
O71 Zn70 1.949 . S
O71 Zn72 1.923 . S
O71 Zn73 1.950 1_455 S
O71 Zn74 1.945 . S
Zn72 O71 1.923 . S
Zn72 O75 1.933 . S
Zn72 O78 1.941 . S
Zn72 O79 1.965 1_455 S
Zn73 O71 1.950 1_655 S
Zn73 O80 1.938 . S
Zn73 O81 1.906 . S
Zn73 O91 1.953 1_655 S
Zn74 O71 1.945 . S
Zn74 O76 1.932 . S
Zn74 O83 1.977 1_455 S
Zn74 O84 1.910 . S
O75 Zn72 1.933 . S
O75 C86 1.226 . S
O76 Zn74 1.932 . S
O76 C86 1.307 . S
O77 Zn70 1.919 . S
O77 C88 1.253 . S
O78 Zn72 1.941 . S
O78 C88 1.283 . S
O79 Zn72 1.965 1_655 S
O79 C87 1.303 . S
O80 Zn73 1.938 . S
O80 C87 1.247 . S
O81 Zn73 1.906 . S
O81 C89 1.304 . S
O82 Zn70 1.924 . S
O82 C90 1.311 . S
O83 Zn74 1.977 1_655 S
O83 C89 1.272 . S
O84 Zn74 1.910 . S
O84 C90 1.231 . S
C85 O69 1.225 . S
C85 O91 1.298 . S
C86 O75 1.226 . S
C86 O76 1.307 . S
C87 O79 1.303 . S
C87 O80 1.247 . S
C88 O77 1.253 . S
C88 O78 1.283 . S
C89 O81 1.304 . S
C89 O83 1.272 . S
C90 O82 1.311 . S
C90 O84 1.231 . S
O91 Zn73 1.953 1_455 S
O91 C85 1.298 . S
O92 Zn93 1.953 . S
O92 C108 1.225 . S
Zn93 O92 1.953 . S
Zn93 O94 1.949 . S
Zn93 O100 1.919 . S
Zn93 O105 1.924 . S
O94 Zn93 1.949 . S
O94 Zn95 1.923 . S
O94 Zn96 1.950 . S
O94 Zn97 1.945 . S
Zn95 O94 1.923 . S
Zn95 O98 1.933 . S
Zn95 O101 1.941 . S
Zn95 O102 1.965 . S
Zn96 O94 1.950 . S
Zn96 O103 1.938 . S
Zn96 O104 1.906 . S
Zn96 O114 1.953 . S
Zn97 O94 1.945 . S
Zn97 O99 1.932 . S
Zn97 O106 1.977 . S
Zn97 O107 1.910 . S
O98 Zn95 1.933 . S
O98 C109 1.226 . S
O99 Zn97 1.932 . S
O99 C109 1.307 . S
O100 Zn93 1.919 . S
O100 C111 1.253 . S
O101 Zn95 1.941 . S
O101 C111 1.283 . S
O102 Zn95 1.965 . S
O102 C110 1.303 . S
O103 Zn96 1.938 . S
O103 C110 1.247 . S
O104 Zn96 1.906 . S
O104 C112 1.304 . S
O105 Zn93 1.924 . S
O105 C113 1.311 . S
O106 Zn97 1.977 . S
O106 C112 1.272 . S
O107 Zn97 1.910 . S
O107 C113 1.231 . S
C108 O92 1.225 . S
C108 O114 1.298 . S
C109 O98 1.226 . S
C109 O99 1.307 . S
C110 O102 1.303 . S
C110 O103 1.247 . S
C111 O100 1.253 . S
C111 O101 1.283 . S
C112 O104 1.304 . S
C112 O106 1.272 . S
C113 O105 1.311 . S
C113 O107 1.231 . S
O114 Zn96 1.953 . S
O114 C108 1.298 . S
O115 Zn116 1.953 . S
O115 C131 1.225 1_565 S
Zn116 O115 1.953 . S
Zn116 O117 1.949 1_565 S
Zn116 O123 1.919 . S
Zn116 O128 1.924 . S
O117 Zn116 1.949 1_545 S
O117 Zn118 1.923 . S
O117 Zn119 1.950 . S
O117 Zn120 1.945 . S
Zn118 O117 1.923 . S
Zn118 O121 1.933 . S
Zn118 O124 1.939 1_545 S
Zn118 O125 1.965 . S
Zn119 O117 1.950 . S
Zn119 O126 1.938 . S
Zn119 O127 1.906 . S
Zn119 O137 1.953 . S
Zn120 O117 1.945 . S
Zn120 O122 1.932 . S
Zn120 O129 1.977 . S
Zn120 O130 1.910 1_545 S
O121 Zn118 1.933 . S
O121 C132 1.226 . S
O122 Zn120 1.932 . S
O122 C132 1.307 . S
O123 Zn116 1.919 . S
O123 C134 1.253 . S
O124 Zn118 1.939 1_565 S
O124 C134 1.291 . S
O125 Zn118 1.965 . S
O125 C133 1.303 . S
O126 Zn119 1.938 . S
O126 C133 1.247 . S
O127 Zn119 1.906 . S
O127 C135 1.304 . S
O128 Zn116 1.924 . S
O128 C136 1.311 . S
O129 Zn120 1.977 . S
O129 C135 1.272 . S
O130 Zn120 1.910 1_565 S
O130 C136 1.231 . S
C131 O115 1.225 1_545 S
C131 O137 1.298 . S
C132 O121 1.226 . S
C132 O122 1.307 . S
C133 O125 1.303 . S
C133 O126 1.247 . S
C134 O123 1.253 . S
C134 O124 1.291 . S
C135 O127 1.304 . S
C135 O129 1.272 . S
C136 O128 1.311 . S
C136 O130 1.231 . S
O137 Zn119 1.953 . S
O137 C131 1.298 . S
O138 Zn139 1.953 1_554 S
O138 C154 1.225 . S
Zn139 O138 1.953 1_556 S
Zn139 O140 1.949 . S
Zn139 O146 1.919 . S
Zn139 O151 1.924 . S
O140 Zn139 1.949 . S
O140 Zn141 1.923 . S
O140 Zn142 1.950 . S
O140 Zn143 1.945 . S
Zn141 O140 1.923 . S
Zn141 O144 1.933 . S
Zn141 O147 1.941 . S
Zn141 O148 1.965 . S
Zn142 O140 1.950 . S
Zn142 O149 1.938 . S
Zn142 O150 1.906 . S
Zn142 O160 1.953 1_556 S
Zn143 O140 1.945 . S
Zn143 O145 1.932 . S
Zn143 O152 1.977 . S
Zn143 O153 1.910 . S
O144 Zn141 1.933 . S
O144 C155 1.226 . S
O145 Zn143 1.932 . S
O145 C155 1.307 . S
O146 Zn139 1.919 . S
O146 C157 1.253 . S
O147 Zn141 1.941 . S
O147 C157 1.283 . S
O148 Zn141 1.965 . S
O148 C156 1.303 . S
O149 Zn142 1.938 . S
O149 C156 1.247 . S
O150 Zn142 1.906 . S
O150 C158 1.304 . S
O151 Zn139 1.924 . S
O151 C159 1.311 . S
O152 Zn143 1.977 . S
O152 C158 1.272 . S
O153 Zn143 1.910 . S
O153 C159 1.231 . S
C154 O138 1.225 . S
C154 O160 1.298 . S
C155 O144 1.226 . S
C155 O145 1.307 . S
C156 O148 1.303 . S
C156 O149 1.247 . S
C157 O146 1.253 . S
C157 O147 1.283 . S
C158 O150 1.304 . S
C158 O152 1.272 . S
C159 O151 1.311 . S
C159 O153 1.231 . S
O160 Zn142 1.953 1_554 S
O160 C154 1.298 . S
O161 Zn162 1.953 1_554 S
O161 C177 1.225 . S
Zn162 O161 1.953 1_556 S
Zn162 O163 1.949 . S
Zn162 O169 1.919 . S
Zn162 O174 1.924 . S
O163 Zn162 1.949 . S
O163 Zn164 1.923 . S
O163 Zn165 1.950 . S
O163 Zn166 1.945 . S
Zn164 O163 1.923 . S
Zn164 O167 1.933 . S
Zn164 O170 1.941 . S
Zn164 O171 1.965 . S
Zn165 O163 1.950 . S
Zn165 O172 1.938 . S
Zn165 O173 1.906 . S
Zn165 O183 1.953 1_556 S
Zn166 O163 1.945 . S
Zn166 O168 1.932 . S
Zn166 O175 1.977 . S
Zn166 O176 1.910 . S
O167 Zn164 1.933 . S
O167 C178 1.226 . S
O168 Zn166 1.932 . S
O168 C178 1.307 . S
O169 Zn162 1.919 . S
O169 C180 1.253 . S
O170 Zn164 1.941 . S
O170 C180 1.283 . S
O171 Zn164 1.965 . S
O171 C179 1.303 . S
O172 Zn165 1.938 . S
O172 C179 1.247 . S
O173 Zn165 1.906 . S
O173 C181 1.304 . S
O174 Zn162 1.924 . S
O174 C182 1.311 . S
O175 Zn166 1.977 . S
O175 C181 1.272 . S
O176 Zn166 1.910 . S
O176 C182 1.231 . S
C177 O161 1.225 . S
C177 O183 1.298 . S
C178 O167 1.226 . S
C178 O168 1.307 . S
C179 O171 1.303 . S
C179 O172 1.247 . S
C180 O169 1.253 . S
C180 O170 1.283 . S
C181 O173 1.304 . S
C181 O175 1.272 . S
C182 O174 1.311 . S
C182 O176 1.231 . S
O183 Zn165 1.953 1_554 S
O183 C177 1.298 . S
O184 Zn185 1.953 1_554 S
O184 C200 1.225 . S
Zn185 O184 1.953 1_556 S
Zn185 O186 1.949 . S
Zn185 O192 1.919 . S
Zn185 O197 1.924 . S
O186 Zn185 1.949 . S
O186 Zn187 1.923 . S
O186 Zn188 1.950 . S
O186 Zn189 1.945 . S
Zn187 O186 1.923 . S
Zn187 O190 1.933 . S
Zn187 O193 1.941 . S
Zn187 O194 1.965 . S
Zn188 O186 1.950 . S
Zn188 O195 1.938 . S
Zn188 O196 1.906 . S
Zn188 O206 1.953 1_556 S
Zn189 O186 1.945 . S
Zn189 O191 1.932 . S
Zn189 O198 1.977 . S
Zn189 O199 1.910 . S
O190 Zn187 1.933 . S
O190 C201 1.226 . S
O191 Zn189 1.932 . S
O191 C201 1.307 . S
O192 Zn185 1.919 . S
O192 C203 1.253 . S
O193 Zn187 1.941 . S
O193 C203 1.283 . S
O194 Zn187 1.965 . S
O194 C202 1.303 . S
O195 Zn188 1.938 . S
O195 C202 1.247 . S
O196 Zn188 1.906 . S
O196 C204 1.304 . S
O197 Zn185 1.924 . S
O197 C205 1.311 . S
O198 Zn189 1.977 . S
O198 C204 1.272 . S
O199 Zn189 1.910 . S
O199 C205 1.231 . S
C200 O184 1.225 . S
C200 O206 1.298 . S
C201 O190 1.226 . S
C201 O191 1.307 . S
C202 O194 1.303 . S
C202 O195 1.247 . S
C203 O192 1.253 . S
C203 O193 1.283 . S
C204 O196 1.304 . S
C204 O198 1.272 . S
C205 O197 1.311 . S
C205 O199 1.231 . S
O206 Zn188 1.953 1_554 S
O206 C200 1.298 . S
O207 Zn208 1.953 1_554 S
O207 C223 1.225 . S
Zn208 O207 1.953 1_556 S
Zn208 O209 1.949 . S
Zn208 O215 1.919 . S
Zn208 O220 1.924 . S
O209 Zn208 1.949 . S
O209 Zn210 1.923 . S
O209 Zn211 1.950 . S
O209 Zn212 1.945 . S
Zn210 O209 1.923 . S
Zn210 O213 1.933 . S
Zn210 O216 1.941 . S
Zn210 O217 1.965 . S
Zn211 O209 1.950 . S
Zn211 O218 1.938 . S
Zn211 O219 1.906 . S
Zn211 O229 1.953 1_556 S
Zn212 O209 1.945 . S
Zn212 O214 1.932 . S
Zn212 O221 1.977 . S
Zn212 O222 1.910 . S
O213 Zn210 1.933 . S
O213 C224 1.226 . S
O214 Zn212 1.932 . S
O214 C224 1.307 . S
O215 Zn208 1.919 . S
O215 C226 1.253 . S
O216 Zn210 1.941 . S
O216 C226 1.283 . S
O217 Zn210 1.965 . S
O217 C225 1.303 . S
O218 Zn211 1.938 . S
O218 C225 1.247 . S
O219 Zn211 1.906 . S
O219 C227 1.304 . S
O220 Zn208 1.924 . S
O220 C228 1.311 . S
O221 Zn212 1.977 . S
O221 C227 1.272 . S
O222 Zn212 1.910 . S
O222 C228 1.231 . S
C223 O207 1.225 . S
C223 O229 1.298 . S
C224 O213 1.226 . S
C224 O214 1.307 . S
C225 O217 1.303 . S
C225 O218 1.247 . S
C226 O215 1.253 . S
C226 O216 1.283 . S
C227 O219 1.304 . S
C227 O221 1.272 . S
C228 O220 1.311 . S
C228 O222 1.231 . S
O229 Zn211 1.953 1_554 S
O229 C223 1.298 . S
O230 Zn231 1.953 1_554 S
O230 C246 1.225 . S
Zn231 O230 1.953 1_556 S
Zn231 O232 1.949 . S
Zn231 O238 1.919 . S
Zn231 O243 1.924 . S
O232 Zn231 1.949 . S
O232 Zn233 1.923 . S
O232 Zn234 1.950 . S
O232 Zn235 1.945 . S
Zn233 O232 1.923 . S
Zn233 O236 1.933 . S
Zn233 O239 1.941 . S
Zn233 O240 1.965 . S
Zn234 O232 1.950 . S
Zn234 O241 1.938 . S
Zn234 O242 1.906 . S
Zn234 O252 1.953 1_556 S
Zn235 O232 1.945 . S
Zn235 O237 1.932 . S
Zn235 O244 1.977 . S
Zn235 O245 1.910 . S
O236 Zn233 1.933 . S
O236 C247 1.226 . S
O237 Zn235 1.932 . S
O237 C247 1.307 . S
O238 Zn231 1.919 . S
O238 C249 1.253 . S
O239 Zn233 1.941 . S
O239 C249 1.283 . S
O240 Zn233 1.965 . S
O240 C248 1.303 . S
O241 Zn234 1.938 . S
O241 C248 1.247 . S
O242 Zn234 1.906 . S
O242 C250 1.304 . S
O243 Zn231 1.924 . S
O243 C251 1.311 . S
O244 Zn235 1.977 . S
O244 C250 1.272 . S
O245 Zn235 1.910 . S
O245 C251 1.231 . S
C246 O230 1.225 . S
C246 O252 1.298 . S
C247 O236 1.226 . S
C247 O237 1.307 . S
C248 O240 1.303 . S
C248 O241 1.247 . S
C249 O238 1.253 . S
C249 O239 1.283 . S
C250 O242 1.304 . S
C250 O244 1.272 . S
C251 O243 1.311 . S
C251 O245 1.231 . S
O252 Zn234 1.953 1_554 S
O252 C246 1.298 . S
O253 Zn254 1.953 1_554 S
O253 C269 1.225 . S
Zn254 O253 1.953 1_556 S
Zn254 O255 1.949 . S
Zn254 O261 1.919 . S
Zn254 O266 1.924 . S
O255 Zn254 1.949 . S
O255 Zn256 1.923 . S
O255 Zn257 1.950 . S
O255 Zn258 1.945 . S
Zn256 O255 1.923 . S
Zn256 O259 1.933 . S
Zn256 O262 1.941 . S
Zn256 O263 1.965 . S
Zn257 O255 1.950 . S
Zn257 O264 1.938 . S
Zn257 O265 1.906 . S
Zn257 O275 1.953 1_556 S
Zn258 O255 1.945 . S
Zn258 O260 1.932 . S
Zn258 O267 1.977 . S
Zn258 O268 1.910 . S
O259 Zn256 1.933 . S
O259 C270 1.226 . S
O260 Zn258 1.932 . S
O260 C270 1.307 . S
O261 Zn254 1.919 . S
O261 C272 1.253 . S
O262 Zn256 1.941 . S
O262 C272 1.283 . S
O263 Zn256 1.965 . S
O263 C271 1.303 . S
O264 Zn257 1.938 . S
O264 C271 1.247 . S
O265 Zn257 1.906 . S
O265 C273 1.304 . S
O266 Zn254 1.924 . S
O266 C274 1.311 . S
O267 Zn258 1.977 . S
O267 C273 1.272 . S
O268 Zn258 1.910 . S
O268 C274 1.231 . S
C269 O253 1.225 . S
C269 O275 1.298 . S
C270 O259 1.226 . S
C270 O260 1.307 . S
C271 O263 1.303 . S
C271 O264 1.247 . S
C272 O261 1.253 . S
C272 O262 1.283 . S
C273 O265 1.304 . S
C273 O267 1.272 . S
C274 O266 1.311 . S
C274 O268 1.231 . S
O275 Zn257 1.953 1_554 S
O275 C269 1.298 . S
O276 Zn277 1.953 1_556 S
O276 C292 1.225 . S
Zn277 O276 1.953 1_554 S
Zn277 O278 1.949 . S
Zn277 O284 1.919 . S
Zn277 O289 1.924 . S
O278 Zn277 1.949 . S
O278 Zn279 1.923 . S
O278 Zn280 1.950 . S
O278 Zn281 1.945 . S
Zn279 O278 1.923 . S
Zn279 O282 1.933 . S
Zn279 O285 1.941 . S
Zn279 O286 1.965 . S
Zn280 O278 1.950 . S
Zn280 O287 1.938 . S
Zn280 O288 1.906 . S
Zn280 O298 1.953 1_554 S
Zn281 O278 1.945 . S
Zn281 O283 1.932 . S
Zn281 O290 1.977 . S
Zn281 O291 1.910 . S
O282 Zn279 1.933 . S
O282 C293 1.226 . S
O283 Zn281 1.932 . S
O283 C293 1.307 . S
O284 Zn277 1.919 . S
O284 C295 1.253 . S
O285 Zn279 1.941 . S
O285 C295 1.283 . S
O286 Zn279 1.965 . S
O286 C294 1.303 . S
O287 Zn280 1.938 . S
O287 C294 1.247 . S
O288 Zn280 1.906 . S
O288 C296 1.304 . S
O289 Zn277 1.924 . S
O289 C297 1.311 . S
O290 Zn281 1.977 . S
O290 C296 1.272 . S
O291 Zn281 1.910 . S
O291 C297 1.231 . S
C292 O276 1.225 . S
C292 O298 1.298 . S
C293 O282 1.226 . S
C293 O283 1.307 . S
C294 O286 1.303 . S
C294 O287 1.247 . S
C295 O284 1.253 . S
C295 O285 1.283 . S
C296 O288 1.304 . S
C296 O290 1.272 . S
C297 O289 1.311 . S
C297 O291 1.231 . S
O298 Zn280 1.953 1_556 S
O298 C292 1.298 . S
O299 Zn300 1.953 . S
O299 C315 1.225 . S
Zn300 O299 1.953 . S
Zn300 O301 1.949 . S
Zn300 O307 1.919 . S
Zn300 O312 1.924 . S
O301 Zn300 1.949 . S
O301 Zn302 1.923 . S
O301 Zn303 1.950 . S
O301 Zn304 1.945 . S
Zn302 O301 1.923 . S
Zn302 O305 1.933 1_554 S
Zn302 O308 1.941 . S
Zn302 O309 1.965 . S
Zn303 O301 1.950 . S
Zn303 O310 1.938 . S
Zn303 O311 1.906 . S
Zn303 O321 1.953 . S
Zn304 O301 1.945 . S
Zn304 O306 1.932 1_554 S
Zn304 O313 1.977 . S
Zn304 O314 1.910 . S
O305 Zn302 1.933 1_556 S
O305 C316 1.226 . S
O306 Zn304 1.932 1_556 S
O306 C316 1.307 . S
O307 Zn300 1.919 . S
O307 C318 1.253 . S
O308 Zn302 1.941 . S
O308 C318 1.283 . S
O309 Zn302 1.965 . S
O309 C317 1.303 . S
O310 Zn303 1.938 . S
O310 C317 1.247 . S
O311 Zn303 1.906 . S
O311 C319 1.304 . S
O312 Zn300 1.924 . S
O312 C320 1.311 . S
O313 Zn304 1.977 . S
O313 C319 1.272 . S
O314 Zn304 1.910 . S
O314 C320 1.231 . S
C315 O299 1.225 . S
C315 O321 1.298 . S
C316 O305 1.226 . S
C316 O306 1.307 . S
C317 O309 1.303 . S
C317 O310 1.247 . S
C318 O307 1.253 . S
C318 O308 1.283 . S
C319 O311 1.304 . S
C319 O313 1.272 . S
C320 O312 1.311 . S
C320 O314 1.231 . S
O321 Zn303 1.953 . S
O321 C315 1.298 . S
O322 Zn323 1.953 1_556 S
O322 C338 1.225 . S
Zn323 O322 1.953 1_554 S
Zn323 O324 1.949 . S
Zn323 O330 1.919 . S
Zn323 O335 1.924 . S
O324 Zn323 1.949 . S
O324 Zn325 1.923 . S
O324 Zn326 1.950 . S
O324 Zn327 1.945 . S
Zn325 O324 1.923 . S
Zn325 O328 1.933 . S
Zn325 O331 1.941 . S
Zn325 O332 1.965 . S
Zn326 O324 1.950 . S
Zn326 O333 1.938 . S
Zn326 O334 1.906 . S
Zn326 O344 1.953 1_554 S
Zn327 O324 1.945 . S
Zn327 O329 1.932 . S
Zn327 O336 1.977 . S
Zn327 O337 1.910 . S
O328 Zn325 1.933 . S
O328 C339 1.226 . S
O329 Zn327 1.932 . S
O329 C339 1.307 . S
O330 Zn323 1.919 . S
O330 C341 1.253 . S
O331 Zn325 1.941 . S
O331 C341 1.283 . S
O332 Zn325 1.965 . S
O332 C340 1.303 . S
O333 Zn326 1.938 . S
O333 C340 1.247 . S
O334 Zn326 1.906 . S
O334 C342 1.304 . S
O335 Zn323 1.924 . S
O335 C343 1.311 . S
O336 Zn327 1.977 . S
O336 C342 1.272 . S
O337 Zn327 1.910 . S
O337 C343 1.231 . S
C338 O322 1.225 . S
C338 O344 1.298 . S
C339 O328 1.226 . S
C339 O329 1.307 . S
C340 O332 1.303 . S
C340 O333 1.247 . S
C341 O330 1.253 . S
C341 O331 1.283 . S
C342 O334 1.304 . S
C342 O336 1.272 . S
C343 O335 1.311 . S
C343 O337 1.231 . S
O344 Zn326 1.953 1_556 S
O344 C338 1.298 . S
O345 Zn346 1.953 . S
O345 C361 1.225 . S
Zn346 O345 1.953 . S
Zn346 O347 1.949 . S
Zn346 O353 1.919 . S
Zn346 O358 1.924 . S
O347 Zn346 1.949 . S
O347 Zn348 1.923 . S
O347 Zn349 1.950 . S
O347 Zn350 1.945 . S
Zn348 O347 1.923 . S
Zn348 O351 1.933 1_554 S
Zn348 O354 1.941 . S
Zn348 O355 1.965 . S
Zn349 O347 1.950 . S
Zn349 O356 1.938 . S
Zn349 O357 1.906 . S
Zn349 O367 1.953 . S
Zn350 O347 1.945 . S
Zn350 O352 1.932 1_554 S
Zn350 O359 1.977 . S
Zn350 O360 1.910 . S
O351 Zn348 1.933 1_556 S
O351 C362 1.226 . S
O352 Zn350 1.932 1_556 S
O352 C362 1.307 . S
O353 Zn346 1.919 . S
O353 C364 1.253 . S
O354 Zn348 1.941 . S
O354 C364 1.283 . S
O355 Zn348 1.965 . S
O355 C363 1.303 . S
O356 Zn349 1.938 . S
O356 C363 1.247 . S
O357 Zn349 1.906 . S
O357 C365 1.304 . S
O358 Zn346 1.924 . S
O358 C366 1.311 . S
O359 Zn350 1.977 . S
O359 C365 1.272 . S
O360 Zn350 1.910 . S
O360 C366 1.231 . S
C361 O345 1.225 . S
C361 O367 1.298 . S
C362 O351 1.226 . S
C362 O352 1.307 . S
C363 O355 1.303 . S
C363 O356 1.247 . S
C364 O353 1.253 . S
C364 O354 1.283 . S
C365 O357 1.304 . S
C365 O359 1.272 . S
C366 O358 1.311 . S
C366 O360 1.231 . S
O367 Zn349 1.953 . S
O367 C361 1.298 . S
O368 Zn369 1.953 1_556 S
O368 C384 1.225 . S
Zn369 O368 1.953 1_554 S
Zn369 O370 1.949 . S
Zn369 O376 1.919 . S
Zn369 O381 1.924 . S
O370 Zn369 1.949 . S
O370 Zn371 1.923 . S
O370 Zn372 1.950 . S
O370 Zn373 1.945 . S
Zn371 O370 1.923 . S
Zn371 O374 1.933 . S
Zn371 O377 1.941 . S
Zn371 O378 1.965 . S
Zn372 O370 1.950 . S
Zn372 O379 1.938 . S
Zn372 O380 1.906 . S
Zn372 O390 1.953 1_554 S
Zn373 O370 1.945 . S
Zn373 O375 1.932 . S
Zn373 O382 1.977 . S
Zn373 O383 1.910 . S
O374 Zn371 1.933 . S
O374 C385 1.226 . S
O375 Zn373 1.932 . S
O375 C385 1.307 . S
O376 Zn369 1.919 . S
O376 C387 1.253 . S
O377 Zn371 1.941 . S
O377 C387 1.283 . S
O378 Zn371 1.965 . S
O378 C386 1.303 . S
O379 Zn372 1.938 . S
O379 C386 1.247 . S
O380 Zn372 1.906 . S
O380 C388 1.304 . S
O381 Zn369 1.924 . S
O381 C389 1.311 . S
O382 Zn373 1.977 . S
O382 C388 1.272 . S
O383 Zn373 1.910 . S
O383 C389 1.231 . S
C384 O368 1.225 . S
C384 O390 1.298 . S
C385 O374 1.226 . S
C385 O375 1.307 . S
C386 O378 1.303 . S
C386 O379 1.247 . S
C387 O376 1.253 . S
C387 O377 1.283 . S
C388 O380 1.304 . S
C388 O382 1.272 . S
C389 O381 1.311 . S
C389 O383 1.231 . S
O390 Zn372 1.953 1_556 S
O390 C384 1.298 . S
O391 Zn392 1.953 . S
O391 C407 1.225 . S
Zn392 O391 1.953 . S
Zn392 O393 1.949 . S
Zn392 O399 1.919 . S
Zn392 O404 1.924 . S
O393 Zn392 1.949 . S
O393 Zn394 1.923 . S
O393 Zn395 1.950 . S
O393 Zn396 1.945 . S
Zn394 O393 1.923 . S
Zn394 O397 1.933 1_554 S
Zn394 O400 1.941 . S
Zn394 O401 1.965 . S
Zn395 O393 1.950 . S
Zn395 O402 1.938 . S
Zn395 O403 1.906 . S
Zn395 O413 1.953 . S
Zn396 O393 1.945 . S
Zn396 O398 1.932 1_554 S
Zn396 O405 1.977 . S
Zn396 O406 1.910 . S
O397 Zn394 1.933 1_556 S
O397 C408 1.226 . S
O398 Zn396 1.932 1_556 S
O398 C408 1.307 . S
O399 Zn392 1.919 . S
O399 C410 1.253 . S
O400 Zn394 1.941 . S
O400 C410 1.283 . S
O401 Zn394 1.965 . S
O401 C409 1.303 . S
O402 Zn395 1.938 . S
O402 C409 1.247 . S
O403 Zn395 1.906 . S
O403 C411 1.304 . S
O404 Zn392 1.924 . S
O404 C412 1.311 . S
O405 Zn396 1.977 . S
O405 C411 1.272 . S
O406 Zn396 1.910 . S
O406 C412 1.231 . S
C407 O391 1.225 . S
C407 O413 1.298 . S
C408 O397 1.226 . S
C408 O398 1.307 . S
C409 O401 1.303 . S
C409 O402 1.247 . S
C410 O399 1.253 . S
C410 O400 1.283 . S
C411 O403 1.304 . S
C411 O405 1.272 . S
C412 O404 1.311 . S
C412 O406 1.231 . S
O413 Zn395 1.953 . S
O413 C407 1.298 . S
C414 C415 1.369 . S
C414 C416 1.419 . S
C414 H418 0.930 . S
C415 C414 1.369 . S
C415 C424 1.429 . S
C416 C414 1.419 . S
C416 C417 1.363 . S
C416 H419 0.929 . S
C417 C416 1.363 . S
C417 C423 1.428 . S
H418 C414 0.930 . S
H419 C416 0.929 . S
S420 N421 1.613 . S
S420 N422 1.610 . S
N421 S420 1.613 . S
N421 C424 1.350 . S
N422 S420 1.610 . S
N422 C423 1.351 . S
C423 C417 1.428 . S
C423 N422 1.351 . S
C423 C424 1.434 . S
C424 C415 1.429 . S
C424 N421 1.350 . S
C424 C423 1.434 . S
C425 C426 1.369 . S
C425 C427 1.419 . S
C425 H429 0.930 . S
C426 C425 1.369 . S
C426 C435 1.429 . S
C427 C425 1.419 . S
C427 C428 1.363 . S
C427 H430 0.929 . S
C428 C427 1.363 . S
C428 C434 1.428 . S
H429 C425 0.930 . S
H430 C427 0.929 . S
S431 N432 1.613 . S
S431 N433 1.610 . S
N432 S431 1.613 . S
N432 C435 1.350 . S
N433 S431 1.610 . S
N433 C434 1.351 . S
C434 C428 1.428 . S
C434 N433 1.351 . S
C434 C435 1.434 . S
C435 C426 1.429 . S
C435 N432 1.350 . S
C435 C434 1.434 . S
C436 C437 1.369 . S
C436 C438 1.419 . S
C436 H440 0.930 . S
C437 C436 1.369 . S
C437 C446 1.429 . S
C438 C436 1.419 . S
C438 C439 1.363 . S
C438 H441 0.929 . S
C439 C438 1.363 . S
C439 C445 1.428 . S
H440 C436 0.930 . S
H441 C438 0.929 . S
S442 N443 1.613 . S
S442 N444 1.610 . S
N443 S442 1.613 . S
N443 C446 1.350 . S
N444 S442 1.610 . S
N444 C445 1.351 . S
C445 C439 1.428 . S
C445 N444 1.351 . S
C445 C446 1.434 . S
C446 C437 1.429 . S
C446 N443 1.350 . S
C446 C445 1.434 . S
C447 C448 1.369 . S
C447 C449 1.419 . S
C447 H451 0.930 . S
C448 C447 1.369 . S
C448 C457 1.429 . S
C449 C447 1.419 . S
C449 C450 1.363 . S
C449 H452 0.929 . S
C450 C449 1.363 . S
C450 C456 1.428 . S
H451 C447 0.930 . S
H452 C449 0.929 . S
S453 N454 1.613 . S
S453 N455 1.610 . S
N454 S453 1.613 . S
N454 C457 1.350 . S
N455 S453 1.610 . S
N455 C456 1.351 . S
C456 C450 1.428 . S
C456 N455 1.351 . S
C456 C457 1.434 . S
C457 C448 1.429 . S
C457 N454 1.350 . S
C457 C456 1.434 . S
C458 C459 1.369 . S
C458 C460 1.419 . S
C458 H462 0.930 . S
C459 C458 1.369 . S
C459 C468 1.429 . S
C460 C458 1.419 . S
C460 C461 1.363 . S
C460 H463 0.929 . S
C461 C460 1.363 . S
C461 C467 1.428 . S
H462 C458 0.930 . S
H463 C460 0.929 . S
S464 N465 1.613 . S
S464 N466 1.610 . S
N465 S464 1.613 . S
N465 C468 1.350 . S
N466 S464 1.610 . S
N466 C467 1.351 . S
C467 C461 1.428 . S
C467 N466 1.351 . S
C467 C468 1.434 . S
C468 C459 1.429 . S
C468 N465 1.350 . S
C468 C467 1.434 . S
C469 C470 1.369 . S
C469 C471 1.419 . S
C469 H473 0.930 . S
C470 C469 1.369 . S
C470 C479 1.429 . S
C471 C469 1.419 . S
C471 C472 1.363 . S
C471 H474 0.929 . S
C472 C471 1.363 . S
C472 C478 1.428 . S
H473 C469 0.930 . S
H474 C471 0.929 . S
S475 N476 1.613 . S
S475 N477 1.610 . S
N476 S475 1.613 . S
N476 C479 1.350 . S
N477 S475 1.610 . S
N477 C478 1.351 . S
C478 C472 1.428 . S
C478 N477 1.351 . S
C478 C479 1.434 . S
C479 C470 1.429 . S
C479 N476 1.350 . S
C479 C478 1.434 . S
C480 C481 1.369 . S
C480 C482 1.419 . S
C480 H484 0.930 . S
C481 C480 1.369 . S
C481 C490 1.429 . S
C482 C480 1.419 . S
C482 C483 1.363 . S
C482 H485 0.929 . S
C483 C482 1.363 . S
C483 C489 1.428 . S
H484 C480 0.930 . S
H485 C482 0.929 . S
S486 N487 1.608 1_455 S
S486 N488 1.605 1_455 S
N487 S486 1.608 1_655 S
N487 C490 1.350 . S
N488 S486 1.605 1_655 S
N488 C489 1.351 . S
C489 C483 1.428 . S
C489 N488 1.351 . S
C489 C490 1.434 . S
C490 C481 1.429 . S
C490 N487 1.350 . S
C490 C489 1.434 . S
C491 C492 1.369 . S
C491 C493 1.419 . S
C491 H495 0.930 . S
C492 C491 1.369 . S
C492 C501 1.429 . S
C493 C491 1.419 . S
C493 C494 1.363 . S
C493 H496 0.929 . S
C494 C493 1.363 . S
C494 C500 1.428 . S
H495 C491 0.930 . S
H496 C493 0.929 . S
S497 N498 1.613 . S
S497 N499 1.610 . S
N498 S497 1.613 . S
N498 C501 1.350 . S
N499 S497 1.610 . S
N499 C500 1.351 . S
C500 C494 1.428 . S
C500 N499 1.351 . S
C500 C501 1.434 . S
C501 C492 1.429 . S
C501 N498 1.350 . S
C501 C500 1.434 . S
C502 C503 1.369 . S
C502 C504 1.419 . S
C502 H506 0.930 . S
C503 C502 1.369 . S
C503 C512 1.429 . S
C504 C502 1.419 . S
C504 C505 1.363 . S
C504 H507 0.929 . S
C505 C504 1.363 . S
C505 C511 1.428 . S
H506 C502 0.930 . S
H507 C504 0.929 . S
S508 N509 1.613 . S
S508 N510 1.610 . S
N509 S508 1.613 . S
N509 C512 1.350 . S
N510 S508 1.610 . S
N510 C511 1.351 . S
C511 C505 1.428 . S
C511 N510 1.351 . S
C511 C512 1.434 . S
C512 C503 1.429 . S
C512 N509 1.350 . S
C512 C511 1.434 . S
C513 C514 1.369 . S
C513 C515 1.419 . S
C513 H517 0.930 . S
C514 C513 1.369 . S
C514 C523 1.429 . S
C515 C513 1.419 . S
C515 C516 1.363 . S
C515 H518 0.929 . S
C516 C515 1.363 . S
C516 C522 1.428 . S
H517 C513 0.930 . S
H518 C515 0.929 . S
S519 N520 1.613 1_545 S
S519 N521 1.610 1_545 S
N520 S519 1.613 1_565 S
N520 C523 1.350 . S
N521 S519 1.610 1_565 S
N521 C522 1.351 . S
C522 C516 1.428 . S
C522 N521 1.351 . S
C522 C523 1.434 . S
C523 C514 1.429 . S
C523 N520 1.350 . S
C523 C522 1.434 . S
C524 C525 1.369 . S
C524 C526 1.419 . S
C524 H528 0.930 . S
C525 C524 1.369 . S
C525 C534 1.429 . S
C526 C524 1.419 . S
C526 C527 1.363 . S
C526 H529 0.929 . S
C527 C526 1.363 . S
C527 C533 1.428 . S
H528 C524 0.930 . S
H529 C526 0.929 . S
S530 N531 1.613 . S
S530 N532 1.610 . S
N531 S530 1.613 . S
N531 C534 1.350 . S
N532 S530 1.610 . S
N532 C533 1.351 . S
C533 C527 1.428 . S
C533 N532 1.351 . S
C533 C534 1.434 . S
C534 C525 1.429 . S
C534 N531 1.350 . S
C534 C533 1.434 . S
C535 C536 1.369 . S
C535 C537 1.419 . S
C535 H539 0.930 . S
C536 C535 1.369 . S
C536 C545 1.429 . S
C537 C535 1.419 . S
C537 C538 1.363 . S
C537 H540 0.929 . S
C538 C537 1.363 . S
C538 C544 1.428 . S
H539 C535 0.930 . S
H540 C537 0.929 . S
S541 N542 1.613 . S
S541 N543 1.610 . S
N542 S541 1.613 . S
N542 C545 1.350 . S
N543 S541 1.610 . S
N543 C544 1.351 . S
C544 C538 1.428 . S
C544 N543 1.351 . S
C544 C545 1.434 . S
C545 C536 1.429 . S
C545 N542 1.350 . S
C545 C544 1.434 . S
C546 C547 1.369 1_455 S
C546 C548 1.419 . S
C546 H550 0.930 . S
C547 C546 1.369 1_655 S
C547 C556 1.429 1_556 S
C548 C546 1.419 . S
C548 C549 1.363 1_556 S
C548 H551 0.929 . S
C549 C548 1.363 1_554 S
C549 C555 1.428 . S
H550 C546 0.930 . S
H551 C548 0.929 . S
S552 N553 1.613 . S
S552 N554 1.610 1_655 S
N553 S552 1.613 . S
N553 C556 1.350 . S
N554 S552 1.610 1_455 S
N554 C555 1.351 . S
C555 C549 1.428 . S
C555 N554 1.351 . S
C555 C556 1.434 1_455 S
C556 C547 1.429 1_554 S
C556 N553 1.350 . S
C556 C555 1.434 1_655 S
C557 C558 1.369 . S
C557 C559 1.419 1_556 S
C557 H561 0.930 . S
C558 C557 1.369 . S
C558 C567 1.429 . S
C559 C557 1.419 1_554 S
C559 C560 1.363 . S
C559 H562 0.929 . S
C560 C559 1.363 . S
C560 C566 1.428 . S
H561 C557 0.930 . S
H562 C559 0.929 . S
S563 N564 1.613 . S
S563 N565 1.610 1_556 S
N564 S563 1.613 . S
N564 C567 1.350 . S
N565 S563 1.610 1_554 S
N565 C566 1.351 . S
C566 C560 1.428 . S
C566 N565 1.351 . S
C566 C567 1.434 1_554 S
C567 C558 1.429 . S
C567 N564 1.350 . S
C567 C566 1.434 1_556 S
C568 C569 1.369 . S
C568 C570 1.419 . S
C568 H572 0.930 . S
C569 C568 1.369 . S
C569 C578 1.429 1_556 S
C570 C568 1.419 . S
C570 C571 1.363 1_546 S
C570 H573 0.929 1_545 S
C571 C570 1.363 1_564 S
C571 C577 1.428 1_565 S
H572 C568 0.930 . S
H573 C570 0.929 1_565 S
S574 N575 1.613 . S
S574 N576 1.610 . S
N575 S574 1.613 . S
N575 C578 1.350 . S
N576 S574 1.610 . S
N576 C577 1.351 . S
C577 C571 1.428 1_545 S
C577 N576 1.351 . S
C577 C578 1.434 . S
C578 C569 1.429 1_554 S
C578 N575 1.350 . S
C578 C577 1.434 . S
C579 C580 1.369 . S
C579 C581 1.419 1_545 S
C579 H583 0.930 . S
C580 C579 1.369 . S
C580 C589 1.429 1_556 S
C581 C579 1.419 1_565 S
C581 C582 1.363 1_556 S
C581 H584 0.929 . S
C582 C581 1.363 1_554 S
C582 C588 1.428 1_565 S
H583 C579 0.930 . S
H584 C581 0.929 . S
S585 N586 1.613 . S
S585 N587 1.610 . S
N586 S585 1.613 . S
N586 C589 1.350 . S
N587 S585 1.610 . S
N587 C588 1.351 . S
C588 C582 1.428 1_545 S
C588 N587 1.351 . S
C588 C589 1.434 . S
C589 C580 1.429 1_554 S
C589 N586 1.350 . S
C589 C588 1.434 . S
C590 C591 1.369 . S
C590 C592 1.381 1_455 S
C590 H594 0.930 . S
C591 C590 1.369 . S
C591 C600 1.429 1_554 S
C592 C590 1.381 1_655 S
C592 C593 1.360 1_554 S
C592 H595 0.973 . S
C593 C592 1.360 1_556 S
C593 C599 1.428 1_655 S
H594 C590 0.930 . S
H595 C592 0.973 . S
S596 N597 1.613 . S
S596 N598 1.610 . S
N597 S596 1.613 . S
N597 C600 1.350 . S
N598 S596 1.610 . S
N598 C599 1.351 . S
C599 C593 1.428 1_455 S
C599 N598 1.351 . S
C599 C600 1.434 . S
C600 C591 1.429 1_556 S
C600 N597 1.350 . S
C600 C599 1.434 . S
C601 C602 1.369 . S
C601 C603 1.419 . S
C601 H605 0.930 . S
C602 C601 1.369 . S
C602 C611 1.429 1_554 S
C603 C601 1.419 . S
C603 C604 1.363 1_554 S
C603 H606 0.929 . S
C604 C603 1.363 1_556 S
C604 C610 1.428 . S
H605 C601 0.930 . S
H606 C603 0.929 . S
S607 N608 1.613 . S
S607 N609 1.610 . S
N608 S607 1.613 . S
N608 C611 1.350 . S
N609 S607 1.610 . S
N609 C610 1.351 . S
C610 C604 1.428 . S
C610 N609 1.351 . S
C610 C611 1.434 . S
C611 C602 1.429 1_556 S
C611 N608 1.350 . S
C611 C610 1.434 . S
C612 C613 1.369 . S
C612 C614 1.419 . S
C612 H616 0.930 . S
C613 C612 1.369 . S
C613 C622 1.429 . S
C614 C612 1.419 . S
C614 C615 1.363 . S
C614 H617 0.929 . S
C615 C614 1.363 . S
C615 C621 1.428 . S
H616 C612 0.930 . S
H617 C614 0.929 . S
S618 N619 1.613 . S
S618 N620 1.610 . S
N619 S618 1.613 . S
N619 C622 1.350 . S
N620 S618 1.610 . S
N620 C621 1.351 . S
C621 C615 1.428 . S
C621 N620 1.351 . S
C621 C622 1.434 . S
C622 C613 1.429 . S
C622 N619 1.350 . S
C622 C621 1.434 . S
C623 C624 1.369 . S
C623 C625 1.419 . S
C623 H627 0.930 . S
C624 C623 1.369 . S
C624 C633 1.429 . S
C625 C623 1.419 . S
C625 C626 1.363 . S
C625 H628 0.929 . S
C626 C625 1.363 . S
C626 C632 1.428 . S
H627 C623 0.930 . S
H628 C625 0.929 . S
S629 N630 1.613 . S
S629 N631 1.610 . S
N630 S629 1.613 . S
N630 C633 1.350 . S
N631 S629 1.610 . S
N631 C632 1.351 . S
C632 C626 1.428 . S
C632 N631 1.351 . S
C632 C633 1.434 . S
C633 C624 1.429 . S
C633 N630 1.350 . S
C633 C632 1.434 . S
C634 C635 1.369 . S
C634 C636 1.419 . S
C634 H638 0.930 . S
C635 C634 1.369 . S
C635 C644 1.429 . S
C636 C634 1.419 . S
C636 C637 1.363 . S
C636 H639 0.929 . S
C637 C636 1.363 . S
C637 C643 1.428 . S
H638 C634 0.930 . S
H639 C636 0.929 . S
S640 N641 1.613 . S
S640 N642 1.610 . S
N641 S640 1.613 . S
N641 C644 1.350 . S
N642 S640 1.610 . S
N642 C643 1.351 . S
C643 C637 1.428 . S
C643 N642 1.351 . S
C643 C644 1.434 . S
C644 C635 1.429 . S
C644 N641 1.350 . S
C644 C643 1.434 . S
C645 C646 1.369 . S
C645 C647 1.419 . S
C645 H649 0.930 . S
C646 C645 1.369 . S
C646 C655 1.429 . S
C647 C645 1.419 . S
C647 C648 1.363 . S
C647 H650 0.929 . S
C648 C647 1.363 . S
C648 C654 1.428 . S
H649 C645 0.930 . S
H650 C647 0.929 . S
S651 N652 1.613 . S
S651 N653 1.610 . S
N652 S651 1.613 . S
N652 C655 1.350 . S
N653 S651 1.610 . S
N653 C654 1.351 . S
C654 C648 1.428 . S
C654 N653 1.351 . S
C654 C655 1.434 . S
C655 C646 1.429 . S
C655 N652 1.350 . S
C655 C654 1.434 . S
C656 C657 1.369 . S
C656 C658 1.419 . S
C656 H660 0.930 . S
C657 C656 1.369 . S
C657 C666 1.429 . S
C658 C656 1.419 . S
C658 C659 1.363 . S
C658 H661 0.929 . S
C659 C658 1.363 . S
C659 C665 1.428 . S
H660 C656 0.930 . S
H661 C658 0.929 . S
S662 N663 1.613 . S
S662 N664 1.610 . S
N663 S662 1.613 . S
N663 C666 1.350 . S
N664 S662 1.610 . S
N664 C665 1.351 . S
C665 C659 1.428 . S
C665 N664 1.351 . S
C665 C666 1.434 . S
C666 C657 1.429 . S
C666 N663 1.350 . S
C666 C665 1.434 . S
C667 C668 1.369 . S
C667 C669 1.419 . S
C667 H671 0.930 . S
C668 C667 1.369 . S
C668 C677 1.429 . S
C669 C667 1.419 . S
C669 C670 1.363 . S
C669 H672 0.929 . S
C670 C669 1.363 . S
C670 C676 1.428 . S
H671 C667 0.930 . S
H672 C669 0.929 . S
S673 N674 1.613 . S
S673 N675 1.610 . S
N674 S673 1.613 . S
N674 C677 1.350 . S
N675 S673 1.610 . S
N675 C676 1.351 . S
C676 C670 1.428 . S
C676 N675 1.351 . S
C676 C677 1.434 . S
C677 C668 1.429 . S
C677 N674 1.350 . S
C677 C676 1.434 . S
C678 C679 1.369 . S
C678 C680 1.419 . S
C678 H682 0.930 . S
C679 C678 1.369 . S
C679 C688 1.429 . S
C680 C678 1.419 . S
C680 C681 1.363 . S
C680 H683 0.929 . S
C681 C680 1.363 . S
C681 C687 1.428 . S
H682 C678 0.930 . S
H683 C680 0.929 . S
S684 N685 1.613 . S
S684 N686 1.610 . S
N685 S684 1.613 . S
N685 C688 1.350 1_554 S
N686 S684 1.610 . S
N686 C687 1.351 1_554 S
C687 C681 1.428 . S
C687 N686 1.351 1_556 S
C687 C688 1.434 . S
C688 C679 1.429 . S
C688 N685 1.350 1_556 S
C688 C687 1.434 . S
C689 C690 1.369 . S
C689 C691 1.419 . S
C689 H693 0.930 . S
C690 C689 1.369 . S
C690 C699 1.429 . S
C691 C689 1.419 . S
C691 C692 1.363 . S
C691 H694 0.929 . S
C692 C691 1.363 . S
C692 C698 1.428 . S
H693 C689 0.930 . S
H694 C691 0.929 . S
S695 N696 1.613 . S
S695 N697 1.610 . S
N696 S695 1.613 . S
N696 C699 1.350 1_554 S
N697 S695 1.610 . S
N697 C698 1.351 1_554 S
C698 C692 1.428 . S
C698 N697 1.351 1_556 S
C698 C699 1.434 . S
C699 C690 1.429 . S
C699 N696 1.350 1_556 S
C699 C698 1.434 . S
C700 C701 1.369 . S
C700 C702 1.419 . S
C700 H704 0.930 . S
C701 C700 1.369 . S
C701 C710 1.429 . S
C702 C700 1.419 . S
C702 C703 1.363 . S
C702 H705 0.929 . S
C703 C702 1.363 . S
C703 C709 1.428 . S
H704 C700 0.930 . S
H705 C702 0.929 . S
S706 N707 1.613 . S
S706 N708 1.610 . S
N707 S706 1.613 . S
N707 C710 1.350 . S
N708 S706 1.610 . S
N708 C709 1.351 . S
C709 C703 1.428 . S
C709 N708 1.351 . S
C709 C710 1.434 . S
C710 C701 1.429 . S
C710 N707 1.350 . S
C710 C709 1.434 . S
C711 C712 1.369 . S
C711 C713 1.419 . S
C711 H715 0.930 . S
C712 C711 1.369 . S
C712 C721 1.429 . S
C713 C711 1.419 . S
C713 C714 1.363 . S
C713 H716 0.929 . S
C714 C713 1.363 . S
C714 C720 1.428 . S
H715 C711 0.930 . S
H716 C713 0.929 . S
S717 N718 1.613 . S
S717 N719 1.610 . S
N718 S717 1.613 . S
N718 C721 1.350 . S
N719 S717 1.610 . S
N719 C720 1.351 . S
C720 C714 1.428 . S
C720 N719 1.351 . S
C720 C721 1.434 . S
C721 C712 1.429 . S
C721 N718 1.350 . S
C721 C720 1.434 . S
C722 C723 1.369 . S
C722 C724 1.419 . S
C722 H726 0.930 . S
C723 C722 1.369 . S
C723 C732 1.429 . S
C724 C722 1.419 . S
C724 C725 1.363 . S
C724 H727 0.929 . S
C725 C724 1.363 . S
C725 C731 1.428 . S
H726 C722 0.930 . S
H727 C724 0.929 . S
S728 N729 1.613 1_554 S
S728 N730 1.610 1_554 S
N729 S728 1.613 1_556 S
N729 C732 1.350 . S
N730 S728 1.610 1_556 S
N730 C731 1.351 . S
C731 C725 1.428 . S
C731 N730 1.351 . S
C731 C732 1.434 . S
C732 C723 1.429 . S
C732 N729 1.350 . S
C732 C731 1.434 . S
C733 C734 1.369 . S
C733 C735 1.419 . S
C733 H737 0.930 . S
C734 C733 1.369 . S
C734 C743 1.429 . S
C735 C733 1.419 . S
C735 C736 1.363 . S
C735 H738 0.929 . S
C736 C735 1.363 . S
C736 C742 1.428 . S
H737 C733 0.930 . S
H738 C735 0.929 . S
S739 N740 1.613 1_554 S
S739 N741 1.610 1_554 S
N740 S739 1.613 1_556 S
N740 C743 1.350 . S
N741 S739 1.610 1_556 S
N741 C742 1.351 . S
C742 C736 1.428 . S
C742 N741 1.351 . S
C742 C743 1.434 . S
C743 C734 1.429 . S
C743 N740 1.350 . S
C743 C742 1.434 . S
C744 C745 1.369 . S
C744 C746 1.419 . S
C744 H748 0.930 . S
C745 C744 1.369 . S
C745 C754 1.429 . S
C746 C744 1.419 . S
C746 C747 1.363 . S
C746 H749 0.929 . S
C747 C746 1.363 . S
C747 C753 1.428 . S
H748 C744 0.930 . S
H749 C746 0.929 . S
S750 N751 1.613 . S
S750 N752 1.610 . S
N751 S750 1.613 . S
N751 C754 1.350 . S
N752 S750 1.610 . S
N752 C753 1.351 . S
C753 C747 1.428 . S
C753 N752 1.351 . S
C753 C754 1.434 . S
C754 C745 1.429 . S
C754 N751 1.350 . S
C754 C753 1.434 . S
C755 C756 1.369 . S
C755 C757 1.419 . S
C755 H759 0.930 . S
C756 C755 1.369 . S
C756 C765 1.429 . S
C757 C755 1.419 . S
C757 C758 1.363 . S
C757 H760 0.929 . S
C758 C757 1.363 . S
C758 C764 1.428 . S
H759 C755 0.930 . S
H760 C757 0.929 . S
S761 N762 1.613 . S
S761 N763 1.610 . S
N762 S761 1.613 . S
N762 C765 1.350 . S
N763 S761 1.610 . S
N763 C764 1.351 . S
C764 C758 1.428 . S
C764 N763 1.351 . S
C764 C765 1.434 . S
C765 C756 1.429 . S
C765 N762 1.350 . S
C765 C764 1.434 . S
C766 C767 1.369 . S
C766 C768 1.419 . S
C766 H770 0.930 . S
C767 C766 1.369 . S
C767 C776 1.429 . S
C768 C766 1.419 . S
C768 C769 1.363 . S
C768 H771 0.929 . S
C769 C768 1.363 . S
C769 C775 1.428 . S
H770 C766 0.930 . S
H771 C768 0.929 . S
S772 N773 1.613 . S
S772 N774 1.610 . S
N773 S772 1.613 . S
N773 C776 1.350 . S
N774 S772 1.610 . S
N774 C775 1.351 . S
C775 C769 1.428 . S
C775 N774 1.351 . S
C775 C776 1.434 . S
C776 C767 1.429 . S
C776 N773 1.350 . S
C776 C775 1.434 . S
C777 C778 1.369 . S
C777 C779 1.419 . S
C777 H781 0.930 . S
C778 C777 1.369 . S
C778 C787 1.429 . S
C779 C777 1.419 . S
C779 C780 1.363 . S
C779 H782 0.929 . S
C780 C779 1.363 . S
C780 C786 1.428 . S
H781 C777 0.930 . S
H782 C779 0.929 . S
S783 N784 1.613 . S
S783 N785 1.610 . S
N784 S783 1.613 . S
N784 C787 1.350 . S
N785 S783 1.610 . S
N785 C786 1.351 . S
C786 C780 1.428 . S
C786 N785 1.351 . S
C786 C787 1.434 . S
C787 C778 1.429 . S
C787 N784 1.350 . S
C787 C786 1.434 . S
C788 C789 1.369 . S
C788 C790 1.419 . S
C788 H792 0.930 . S
C789 C788 1.369 . S
C789 C798 1.429 . S
C790 C788 1.419 . S
C790 C791 1.363 . S
C790 H793 0.929 . S
C791 C790 1.363 . S
C791 C797 1.428 . S
H792 C788 0.930 . S
H793 C790 0.929 . S
S794 N795 1.613 . S
S794 N796 1.610 . S
N795 S794 1.613 . S
N795 C798 1.350 . S
N796 S794 1.610 . S
N796 C797 1.351 . S
C797 C791 1.428 . S
C797 N796 1.351 . S
C797 C798 1.434 . S
C798 C789 1.429 . S
C798 N795 1.350 . S
C798 C797 1.434 . S
C799 C800 1.369 . S
C799 C801 1.419 . S
C799 H803 0.930 . S
C800 C799 1.369 . S
C800 C809 1.429 . S
C801 C799 1.419 . S
C801 C802 1.363 . S
C801 H804 0.929 . S
C802 C801 1.363 . S
C802 C808 1.428 . S
H803 C799 0.930 . S
H804 C801 0.929 . S
S805 N806 1.613 . S
S805 N807 1.610 . S
N806 S805 1.613 . S
N806 C809 1.350 1_556 S
N807 S805 1.610 . S
N807 C808 1.351 1_556 S
C808 C802 1.428 . S
C808 N807 1.351 1_554 S
C808 C809 1.434 . S
C809 C800 1.429 . S
C809 N806 1.350 1_554 S
C809 C808 1.434 . S
C810 C811 1.369 1_655 S
C810 C812 1.419 1_654 S
C810 H814 0.930 . S
C811 C810 1.369 1_455 S
C811 C820 1.429 . S
C812 C810 1.419 1_456 S
C812 C813 1.363 . S
C812 H815 0.929 1_455 S
C813 C812 1.363 . S
C813 C819 1.428 . S
H814 C810 0.930 . S
H815 C812 0.929 1_655 S
S816 N817 1.613 . S
S816 N818 1.610 1_554 S
N817 S816 1.613 . S
N817 C820 1.350 . S
N818 S816 1.610 1_556 S
N818 C819 1.351 . S
C819 C813 1.428 . S
C819 N818 1.351 . S
C819 C820 1.434 1_556 S
C820 C811 1.429 . S
C820 N817 1.350 . S
C820 C819 1.434 1_554 S
C821 C822 1.369 . S
C821 C823 1.419 1_554 S
C821 H825 0.930 . S
C822 C821 1.369 . S
C822 C831 1.429 . S
C823 C821 1.419 1_556 S
C823 C824 1.363 . S
C823 H826 0.929 . S
C824 C823 1.363 . S
C824 C830 1.428 . S
H825 C821 0.930 . S
H826 C823 0.929 . S
S827 N828 1.613 . S
S827 N829 1.610 1_554 S
N828 S827 1.613 . S
N828 C831 1.350 . S
N829 S827 1.610 1_556 S
N829 C830 1.351 . S
C830 C824 1.428 . S
C830 N829 1.351 . S
C830 C831 1.434 1_556 S
C831 C822 1.429 . S
C831 N828 1.350 . S
C831 C830 1.434 1_554 S
C832 C833 1.369 . S
C832 C834 1.419 1_544 S
C832 H836 0.930 1_545 S
C833 C832 1.369 . S
C833 C842 1.429 . S
C834 C832 1.419 1_566 S
C834 C835 1.363 1_565 S
C834 H837 0.929 . S
C835 C834 1.363 1_545 S
C835 C841 1.428 . S
H836 C832 0.930 1_565 S
H837 C834 0.929 . S
S838 N839 1.613 1_556 S
S838 N840 1.610 . S
N839 S838 1.613 1_554 S
N839 C842 1.350 . S
N840 S838 1.610 . S
N840 C841 1.351 . S
C841 C835 1.428 . S
C841 N840 1.351 . S
C841 C842 1.434 1_556 S
C842 C833 1.429 . S
C842 N839 1.350 . S
C842 C841 1.434 1_554 S
C843 C844 1.369 . S
C843 C845 1.419 1_556 S
C843 H847 0.930 . S
C844 C843 1.369 . S
C844 C853 1.429 . S
C845 C843 1.419 1_554 S
C845 C846 1.363 . S
C845 H848 0.929 . S
C846 C845 1.363 . S
C846 C852 1.428 1_455 S
H847 C843 0.930 . S
H848 C845 0.929 . S
S849 N850 1.613 . S
S849 N851 1.610 1_556 S
N850 S849 1.613 . S
N850 C853 1.350 1_655 S
N851 S849 1.610 1_554 S
N851 C852 1.351 . S
C852 C846 1.428 1_655 S
C852 N851 1.351 . S
C852 C853 1.434 1_654 S
C853 C844 1.429 . S
C853 N850 1.350 1_455 S
C853 C852 1.434 1_456 S
C854 C855 1.369 . S
C854 C856 1.419 1_554 S
C854 H858 0.930 . S
C855 C854 1.369 . S
C855 C864 1.429 . S
C856 C854 1.419 1_556 S
C856 C857 1.363 . S
C856 H859 0.929 . S
C857 C856 1.363 . S
C857 C863 1.428 . S
H858 C854 0.930 . S
H859 C856 0.929 . S
S860 N861 1.613 . S
S860 N862 1.610 1_554 S
N861 S860 1.613 . S
N861 C864 1.350 . S
N862 S860 1.610 1_556 S
N862 C863 1.351 . S
C863 C857 1.428 . S
C863 N862 1.351 . S
C863 C864 1.434 1_556 S
C864 C855 1.429 . S
C864 N861 1.350 . S
C864 C863 1.434 1_554 S
C865 C866 1.369 . S
C865 C867 1.419 1_554 S
C865 H869 0.930 . S
C866 C865 1.369 . S
C866 C875 1.429 1_545 S
C867 C865 1.419 1_556 S
C867 C868 1.363 . S
C867 H870 0.929 . S
C868 C867 1.363 . S
C868 C874 1.428 1_545 S
H869 C865 0.930 . S
H870 C867 0.929 . S
S871 N872 1.613 . S
S871 N873 1.610 1_554 S
N872 S871 1.613 . S
N872 C875 1.350 . S
N873 S871 1.610 1_556 S
N873 C874 1.351 . S
C874 C868 1.428 1_565 S
C874 N873 1.351 . S
C874 C875 1.434 1_556 S
C875 C866 1.429 1_565 S
C875 N872 1.350 . S
C875 C874 1.434 1_554 S
C876 C877 1.369 . S
C876 C878 1.419 . S
C876 H880 0.930 . S
C877 C876 1.369 . S
C877 C886 1.429 . S
C878 C876 1.419 . S
C878 C879 1.363 . S
C878 H881 0.929 . S
C879 C878 1.363 . S
C879 C885 1.428 . S
H880 C876 0.930 . S
H881 C878 0.929 . S
S882 N883 1.613 . S
S882 N884 1.610 . S
N883 S882 1.613 . S
N883 C886 1.350 . S
N884 S882 1.610 . S
N884 C885 1.351 . S
C885 C879 1.428 . S
C885 N884 1.351 . S
C885 C886 1.434 . S
C886 C877 1.429 . S
C886 N883 1.350 . S
C886 C885 1.434 . S
C887 C888 1.369 . S
C887 C889 1.419 . S
C887 H891 0.930 . S
C888 C887 1.369 . S
C888 C897 1.429 . S
C889 C887 1.419 . S
C889 C890 1.363 . S
C889 H892 0.929 . S
C890 C889 1.363 . S
C890 C896 1.428 . S
H891 C887 0.930 . S
H892 C889 0.929 . S
S893 N894 1.613 . S
S893 N895 1.610 . S
N894 S893 1.613 . S
N894 C897 1.350 . S
N895 S893 1.610 . S
N895 C896 1.351 . S
C896 C890 1.428 . S
C896 N895 1.351 . S
C896 C897 1.434 . S
C897 C888 1.429 . S
C897 N894 1.350 . S
C897 C896 1.434 . S
C898 C899 1.369 . S
C898 C900 1.419 . S
C898 H902 0.930 . S
C899 C898 1.369 . S
C899 C908 1.429 . S
C900 C898 1.419 . S
C900 C901 1.363 . S
C900 H903 0.929 . S
C901 C900 1.363 . S
C901 C907 1.428 . S
H902 C898 0.930 . S
H903 C900 0.929 . S
S904 N905 1.613 . S
S904 N906 1.610 . S
N905 S904 1.613 . S
N905 C908 1.350 . S
N906 S904 1.610 . S
N906 C907 1.351 . S
C907 C901 1.428 . S
C907 N906 1.351 . S
C907 C908 1.434 . S
C908 C899 1.429 . S
C908 N905 1.350 . S
C908 C907 1.434 . S
C909 C910 1.369 . S
C909 C911 1.419 . S
C909 H913 0.930 . S
C910 C909 1.369 . S
C910 C919 1.429 . S
C911 C909 1.419 . S
C911 C912 1.363 . S
C911 H914 0.929 . S
C912 C911 1.363 . S
C912 C918 1.428 . S
H913 C909 0.930 . S
H914 C911 0.929 . S
S915 N916 1.613 . S
S915 N917 1.610 . S
N916 S915 1.613 . S
N916 C919 1.350 . S
N917 S915 1.610 . S
N917 C918 1.351 . S
C918 C912 1.428 . S
C918 N917 1.351 . S
C918 C919 1.434 . S
C919 C910 1.429 . S
C919 N916 1.350 . S
C919 C918 1.434 . S
C920 C921 1.369 . S
C920 C922 1.419 . S
C920 H924 0.930 . S
C921 C920 1.369 . S
C921 C930 1.429 . S
C922 C920 1.419 . S
C922 C923 1.363 . S
C922 H925 0.929 . S
C923 C922 1.363 . S
C923 C929 1.428 . S
H924 C920 0.930 . S
H925 C922 0.929 . S
S926 N927 1.613 . S
S926 N928 1.610 . S
N927 S926 1.613 . S
N927 C930 1.350 . S
N928 S926 1.610 . S
N928 C929 1.351 . S
C929 C923 1.428 . S
C929 N928 1.351 . S
C929 C930 1.434 . S
C930 C921 1.429 . S
C930 N927 1.350 . S
C930 C929 1.434 . S
C931 C932 1.369 . S
C931 C933 1.419 . S
C931 H935 0.930 . S
C932 C931 1.369 . S
C932 C941 1.429 . S
C933 C931 1.419 . S
C933 C934 1.363 . S
C933 H936 0.929 . S
C934 C933 1.363 . S
C934 C940 1.428 . S
H935 C931 0.930 . S
H936 C933 0.929 . S
S937 N938 1.613 . S
S937 N939 1.610 . S
N938 S937 1.613 . S
N938 C941 1.350 . S
N939 S937 1.610 . S
N939 C940 1.351 . S
C940 C934 1.428 . S
C940 N939 1.351 . S
C940 C941 1.434 . S
C941 C932 1.429 . S
C941 N938 1.350 . S
C941 C940 1.434 . S
C942 C943 1.369 . S
C942 C944 1.419 . S
C942 H946 0.930 . S
C943 C942 1.369 . S
C943 C952 1.429 . S
C944 C942 1.419 . S
C944 C945 1.363 . S
C944 H947 0.929 . S
C945 C944 1.363 . S
C945 C951 1.428 . S
H946 C942 0.930 . S
H947 C944 0.929 . S
S948 N949 1.613 . S
S948 N950 1.610 . S
N949 S948 1.613 . S
N949 C952 1.350 . S
N950 S948 1.610 . S
N950 C951 1.351 . S
C951 C945 1.428 . S
C951 N950 1.351 . S
C951 C952 1.434 . S
C952 C943 1.429 . S
C952 N949 1.350 . S
C952 C951 1.434 . S
C953 C954 1.369 . S
C953 C955 1.419 . S
C953 H957 0.930 . S
C954 C953 1.369 . S
C954 C963 1.429 . S
C955 C953 1.419 . S
C955 C956 1.363 . S
C955 H958 0.929 . S
C956 C955 1.363 . S
C956 C962 1.428 . S
H957 C953 0.930 . S
H958 C955 0.929 . S
S959 N960 1.613 . S
S959 N961 1.610 . S
N960 S959 1.613 . S
N960 C963 1.350 . S
N961 S959 1.610 . S
N961 C962 1.351 . S
C962 C956 1.428 . S
C962 N961 1.351 . S
C962 C963 1.434 . S
C963 C954 1.429 . S
C963 N960 1.350 . S
C963 C962 1.434 . S
C964 C965 1.369 . S
C964 C966 1.419 . S
C964 H968 0.930 . S
C965 C964 1.369 . S
C965 C974 1.429 . S
C966 C964 1.419 . S
C966 C967 1.363 . S
C966 H969 0.929 . S
C967 C966 1.363 . S
C967 C973 1.428 . S
H968 C964 0.930 . S
H969 C966 0.929 . S
S970 N971 1.613 . S
S970 N972 1.610 . S
N971 S970 1.613 . S
N971 C974 1.350 . S
N972 S970 1.610 . S
N972 C973 1.351 . S
C973 C967 1.428 . S
C973 N972 1.351 . S
C973 C974 1.434 . S
C974 C965 1.429 . S
C974 N971 1.350 . S
C974 C973 1.434 . S
C975 C976 1.369 . S
C975 C977 1.419 . S
C975 H979 0.930 . S
C976 C975 1.369 . S
C976 C985 1.429 . S
C977 C975 1.419 . S
C977 C978 1.363 . S
C977 H980 0.929 . S
C978 C977 1.363 . S
C978 C984 1.428 . S
H979 C975 0.930 . S
H980 C977 0.929 . S
S981 N982 1.613 . S
S981 N983 1.610 . S
N982 S981 1.613 . S
N982 C985 1.350 . S
N983 S981 1.610 . S
N983 C984 1.351 . S
C984 C978 1.428 . S
C984 N983 1.351 . S
C984 C985 1.434 . S
C985 C976 1.429 . S
C985 N982 1.350 . S
C985 C984 1.434 . S
C986 C987 1.369 . S
C986 C988 1.419 . S
C986 H990 0.930 . S
C987 C986 1.369 . S
C987 C996 1.429 . S
C988 C986 1.419 . S
C988 C989 1.363 . S
C988 H991 0.929 . S
C989 C988 1.363 . S
C989 C995 1.428 . S
H990 C986 0.930 . S
H991 C988 0.929 . S
S992 N993 1.613 . S
S992 N994 1.610 . S
N993 S992 1.613 . S
N993 C996 1.350 . S
N994 S992 1.610 . S
N994 C995 1.351 . S
C995 C989 1.428 . S
C995 N994 1.351 . S
C995 C996 1.434 . S
C996 C987 1.429 . S
C996 N993 1.350 . S
C996 C995 1.434 . S
C997 C998 1.369 . S
C997 C999 1.419 . S
C997 H1001 0.930 . S
C998 C997 1.369 . S
C998 C1007 1.429 . S
C999 C997 1.419 . S
C999 C1000 1.363 . S
C999 H1002 0.929 . S
C1000 C999 1.363 . S
C1000 C1006 1.428 . S
H1001 C997 0.930 . S
H1002 C999 0.929 . S
S1003 N1004 1.613 . S
S1003 N1005 1.610 . S
N1004 S1003 1.613 . S
N1004 C1007 1.350 . S
N1005 S1003 1.610 . S
N1005 C1006 1.351 . S
C1006 C1000 1.428 . S
C1006 N1005 1.351 . S
C1006 C1007 1.434 . S
C1007 C998 1.429 . S
C1007 N1004 1.350 . S
C1007 C1006 1.434 . S
C415 C317 1.585 . S
C417 C18 1.581 . S
C426 C43 1.546 . S
C428 C342 1.547 . S
C437 C64 1.536 . S
C439 C296 1.593 . S
C448 C66 1.540 . S
C450 C181 1.541 . S
C459 C204 1.536 . S
C461 C20 1.536 . S
C470 C41 1.532 . S
C472 C158 1.589 . S
C481 C87 1.523 . S
C483 C249 1.501 . S
C492 C111 1.497 . S
C494 C272 1.494 . S
C503 C226 1.505 . S
C505 C133 1.526 . S
C514 C387 1.502 . S
C516 C134 1.503 . S
C525 C88 1.502 . S
C527 C409 1.524 . S
C536 C363 1.524 . S
C538 C110 1.525 . S
C547 C202 1.541 . S
C549 C319 1.597 . S
C558 C156 1.593 . S
C560 C340 1.589 . S
C569 C179 1.592 . S
C571 C294 1.594 . S
C580 C225 1.532 . S
C582 C386 1.532 . S
C591 C410 1.509 . S
C593 C248 1.525 . S
C602 C364 1.503 . S
C604 C271 1.523 . S
C613 C19 1.422 . S
C615 C112 1.451 . S
C624 C136 1.426 . S
C626 C44 1.450 . S
C635 C90 1.435 . S
C637 C65 1.436 . S
C646 C113 1.439 . S
C648 C67 1.463 . S
C657 C135 1.469 . S
C659 C21 1.463 . S
C668 C89 1.479 . S
C670 C42 1.442 . S
C679 C251 1.437 . S
C681 C159 1.463 . S
C690 C274 1.451 . S
C692 C182 1.477 . S
C701 C228 1.433 . S
C703 C205 1.460 . S
C712 C250 1.470 . S
C714 C203 1.433 . S
C723 C273 1.468 . S
C725 C157 1.434 . S
C734 C227 1.454 . S
C736 C180 1.419 . S
C745 C388 1.470 . S
C747 C295 1.439 . S
C756 C412 1.428 . S
C758 C320 1.455 . S
C767 C341 1.437 . S
C769 C366 1.435 . S
C778 C343 1.481 . S
C780 C389 1.456 . S
C789 C297 1.456 . S
C791 C411 1.463 . S
C800 C365 1.483 . S
C802 C318 1.452 . S
C811 C16 1.440 . S
C813 C17 1.445 . S
C822 C40 1.441 . S
C824 C39 1.445 . S
C833 C62 1.445 . S
C835 C63 1.442 . S
C844 C85 1.444 . S
C846 C86 1.455 . S
C855 C108 1.445 . S
C857 C109 1.454 . S
C866 C132 1.448 . S
C868 C131 1.449 . S
C877 C154 1.438 . S
C879 C155 1.449 . S
C888 C178 1.442 . S
C890 C177 1.445 . S
C899 C200 1.437 . S
C901 C201 1.447 . S
C910 C223 1.452 . S
C912 C224 1.453 . S
C921 C246 1.451 . S
C923 C247 1.450 . S
C932 C269 1.449 . S
C934 C270 1.448 . S
C943 C293 1.444 . S
C945 C292 1.444 . S
C954 C316 1.444 . S
C956 C315 1.443 . S
C965 C338 1.438 . S
C967 C339 1.448 . S
C976 C362 1.453 . S
C978 C361 1.451 . S
C987 C384 1.450 . S
C989 C385 1.451 . S
C998 C407 1.446 . S
C1000 C408 1.454 . S
