# Generated by pormake.
# Topology usf, (4)-cn, num edge types: 1
# Building blocks:
#     Node 0, Type 0, BuildingBlock: ESEHIV_clean_sbu_0, # of connection points: 4
#     Node 1, Type 0, BuildingBlock: ESEHIV_clean_sbu_0, # of connection points: 4
#     Node 2, Type 0, BuildingBlock: ESEHIV_clean_sbu_0, # of connection points: 4
#     Node 3, Type 0, BuildingBlock: ESEHIV_clean_sbu_0, # of connection points: 4
#     Node 4, Type 0, BuildingBlock: ESEHIV_clean_sbu_0, # of connection points: 4
#     Node 5, Type 0, BuildingBlock: ESEHIV_clean_sbu_0, # of connection points: 4
#     Node 6, Type 0, BuildingBlock: ESEHIV_clean_sbu_0, # of connection points: 4
#     Node 7, Type 0, BuildingBlock: ESEHIV_clean_sbu_0, # of connection points: 4
#     Node 8, Type 0, BuildingBlock: ESEHIV_clean_sbu_0, # of connection points: 4
#     Node 9, Type 0, BuildingBlock: ESEHIV_clean_sbu_0, # of connection points: 4
#     Node 10, Type 0, BuildingBlock: ESEHIV_clean_sbu_0, # of connection points: 4
#     Node 11, Type 0, BuildingBlock: ESEHIV_clean_sbu_0, # of connection points: 4
#     Node 12, Type 0, BuildingBlock: ESEHIV_clean_sbu_0, # of connection points: 4
#     Node 13, Type 0, BuildingBlock: ESEHIV_clean_sbu_0, # of connection points: 4
#     Node 14, Type 0, BuildingBlock: ESEHIV_clean_sbu_0, # of connection points: 4
#     Node 15, Type 0, BuildingBlock: ESEHIV_clean_sbu_0, # of connection points: 4
#     Node 16, Type 0, BuildingBlock: ESEHIV_clean_sbu_0, # of connection points: 4
#     Node 17, Type 0, BuildingBlock: ESEHIV_clean_sbu_0, # of connection points: 4
#     Edge 18, Type (0, 0), BuildingBlock: XUDNAN_clean_linker_2, # of connection points: 2
#     Edge 19, Type (0, 0), BuildingBlock: XUDNAN_clean_linker_2, # of connection points: 2
#     Edge 20, Type (0, 0), BuildingBlock: XUDNAN_clean_linker_2, # of connection points: 2
#     Edge 21, Type (0, 0), BuildingBlock: XUDNAN_clean_linker_2, # of connection points: 2
#     Edge 22, Type (0, 0), BuildingBlock: XUDNAN_clean_linker_2, # of connection points: 2
#     Edge 23, Type (0, 0), BuildingBlock: XUDNAN_clean_linker_2, # of connection points: 2
#     Edge 24, Type (0, 0), BuildingBlock: XUDNAN_clean_linker_2, # of connection points: 2
#     Edge 25, Type (0, 0), BuildingBlock: XUDNAN_clean_linker_2, # of connection points: 2
#     Edge 26, Type (0, 0), BuildingBlock: XUDNAN_clean_linker_2, # of connection points: 2
#     Edge 27, Type (0, 0), BuildingBlock: XUDNAN_clean_linker_2, # of connection points: 2
#     Edge 28, Type (0, 0), BuildingBlock: XUDNAN_clean_linker_2, # of connection points: 2
#     Edge 29, Type (0, 0), BuildingBlock: XUDNAN_clean_linker_2, # of connection points: 2
#     Edge 30, Type (0, 0), BuildingBlock: XUDNAN_clean_linker_2, # of connection points: 2
#     Edge 31, Type (0, 0), BuildingBlock: XUDNAN_clean_linker_2, # of connection points: 2
#     Edge 32, Type (0, 0), BuildingBlock: XUDNAN_clean_linker_2, # of connection points: 2
#     Edge 33, Type (0, 0), BuildingBlock: XUDNAN_clean_linker_2, # of connection points: 2
#     Edge 34, Type (0, 0), BuildingBlock: XUDNAN_clean_linker_2, # of connection points: 2
#     Edge 35, Type (0, 0), BuildingBlock: XUDNAN_clean_linker_2, # of connection points: 2
#     Edge 36, Type (0, 0), BuildingBlock: XUDNAN_clean_linker_2, # of connection points: 2
#     Edge 37, Type (0, 0), BuildingBlock: XUDNAN_clean_linker_2, # of connection points: 2
#     Edge 38, Type (0, 0), BuildingBlock: XUDNAN_clean_linker_2, # of connection points: 2
#     Edge 39, Type (0, 0), BuildingBlock: XUDNAN_clean_linker_2, # of connection points: 2
#     Edge 40, Type (0, 0), BuildingBlock: XUDNAN_clean_linker_2, # of connection points: 2
#     Edge 41, Type (0, 0), BuildingBlock: XUDNAN_clean_linker_2, # of connection points: 2
#     Edge 42, Type (0, 0), BuildingBlock: XUDNAN_clean_linker_2, # of connection points: 2
#     Edge 43, Type (0, 0), BuildingBlock: XUDNAN_clean_linker_2, # of connection points: 2
#     Edge 44, Type (0, 0), BuildingBlock: XUDNAN_clean_linker_2, # of connection points: 2
#     Edge 45, Type (0, 0), BuildingBlock: XUDNAN_clean_linker_2, # of connection points: 2
#     Edge 46, Type (0, 0), BuildingBlock: XUDNAN_clean_linker_2, # of connection points: 2
#     Edge 47, Type (0, 0), BuildingBlock: XUDNAN_clean_linker_2, # of connection points: 2
#     Edge 48, Type (0, 0), BuildingBlock: XUDNAN_clean_linker_2, # of connection points: 2
#     Edge 49, Type (0, 0), BuildingBlock: XUDNAN_clean_linker_2, # of connection points: 2
#     Edge 50, Type (0, 0), BuildingBlock: XUDNAN_clean_linker_2, # of connection points: 2
#     Edge 51, Type (0, 0), BuildingBlock: XUDNAN_clean_linker_2, # of connection points: 2
#     Edge 52, Type (0, 0), BuildingBlock: XUDNAN_clean_linker_2, # of connection points: 2
#     Edge 53, Type (0, 0), BuildingBlock: XUDNAN_clean_linker_2, # of connection points: 2
# Relax obj value: 0.024
# Max RMSD: 0.177
# Mean RMSD: 0.118
data_MOF--net-usf--node1-ESEHIV_clean_sbu_0--edge1-XUDNAN_clean_linker_2
_symmetry_space_group_name_H-M    P1
_symmetry_Int_Tables_number       1
_symmetry_cell_setting            triclinic
loop_
_symmetry_equiv_pos_as_xyz
'x, y, z'
_cell_length_a     46.725368
_cell_length_b     49.726621
_cell_length_c     33.178409
_cell_angle_alpha  90.040871
_cell_angle_beta   90.042493
_cell_angle_gamma 117.93981
loop_
_atom_site_label
_atom_site_type_symbol
_atom_site_fract_x
_atom_site_fract_y
_atom_site_fract_z
_atom_type_partial_charge
Cu0 Cu 0.99423 0.49158 0.03147 0.0
N1 N 0.96791 0.47817 0.98553 0.0
N2 N 0.95496 0.47232 0.92004 0.0
C3 C 0.97847 0.4869 0.94766 0.0
C4 C 0.92849 0.45373 0.94161 0.0
C5 C 0.93658 0.45732 0.98196 0.0
O6 O 0.03421 0.4895 1.0171 0.0
C7 C 0.96928 0.53035 0.05096 0.0
O8 O 0.94309 0.50516 0.04172 0.0
H9 H 1.00333 0.50287 0.94063 0.0
H10 H 0.92084 0.44538 1.00688 0.0
N11 N 0.97612 0.46576 0.07551 0.0
N12 N 0.97022 0.45117 0.13992 0.0
C13 C 0.98335 0.47478 0.11409 0.0
C14 C 0.95745 0.43535 0.07694 0.0
C15 C 0.95392 0.42625 0.11674 0.0
C16 C 0.02825 0.46359 1.00236 0.0
O17 O 0.99789 0.44249 1.00001 0.0
H18 H 0.99937 0.49806 0.12286 0.0
H19 H 0.94801 0.42068 0.05092 0.0
O20 O 0.99679 0.53074 0.04802 0.0
H21 H 0.90492 0.43855 0.92928 0.0
H22 H 0.94092 0.40311 0.12773 0.0
Cu23 Cu 0.47831 0.51566 0.02605 0.0
N24 N 0.43823 0.48037 0.03237 0.0
N25 N 0.40308 0.433 0.05221 0.0
C26 C 0.43459 0.45371 0.04737 0.0
C27 C 0.38628 0.44732 0.03934 0.0
C28 C 0.40797 0.47646 0.02719 0.0
O29 O 0.50153 0.52025 0.07931 0.0
C30 C 0.47853 0.51086 0.94099 0.0
O31 O 0.45094 0.51099 0.94806 0.0
H32 H 0.45487 0.4502 0.0563 0.0
H33 H 0.4021 0.4938 1.01634 0.0
N34 N 0.47458 0.5516 0.0205 0.0
N35 N 0.48774 0.59884 0.99931 0.0
C36 C 0.49142 0.57376 0.99354 0.0
C37 C 0.45978 0.56319 0.04442 0.0
C38 C 0.46792 0.59238 0.03145 0.0
C39 C 0.48473 0.51492 0.11206 0.0
O40 O 0.45363 0.50627 0.10878 0.0
H41 H 0.50743 0.57211 0.97126 0.0
H42 H 0.44504 0.55171 0.07027 0.0
O43 O 0.49585 0.51168 0.9718 0.0
H44 H 0.36017 0.43765 0.039 0.0
H45 H 0.46019 0.60775 0.04489 0.0
Cu46 Cu 0.51129 0.97025 0.03833 0.0
N47 N 0.51265 0.98683 0.98731 0.0
N48 N 0.50833 0.98551 0.91998 0.0
C49 C 0.50971 0.97081 0.95352 0.0
C50 C 0.51053 0.0121 0.93343 0.0
C51 C 0.5131 0.0128 0.97503 0.0
O52 O 0.47836 0.92772 0.03121 0.0
C53 C 0.57508 1.00722 0.0555 0.0
O54 O 0.56489 0.02624 0.0427 0.0
H55 H 0.50713 0.94803 0.95405 0.0
H56 H 0.51439 0.03063 0.99475 0.0
N57 N 0.49612 0.98625 0.07939 0.0
N58 N 0.47343 0.98682 0.13847 0.0
C59 C 0.47932 0.96982 0.11137 0.0
C60 C 0.50114 0.01481 0.08652 0.0
C61 C 0.48724 0.01525 0.12314 0.0
C62 C 0.45027 0.92553 0.02569 0.0
O63 O 0.44712 0.95041 0.02719 0.0
H64 H 0.47258 0.94598 0.11531 0.0
H65 H 0.51464 0.03415 0.06719 0.0
O66 O 0.55526 0.9788 0.05446 0.0
H67 H 0.50994 0.02966 0.91479 0.0
H68 H 0.48752 0.03492 0.1375 0.0
Cu69 Cu 0.46691 0.96737 0.52821 0.0
N70 N 0.43754 0.951 0.48546 0.0
N71 N 0.41928 0.94341 0.42195 0.0
C72 C 0.44404 0.96044 0.44698 0.0
C73 C 0.39616 0.92255 0.44592 0.0
C74 C 0.40752 0.92728 0.48507 0.0
O75 O 0.50861 0.97071 0.5099 0.0
C76 C 0.43616 0.99822 0.55719 0.0
O77 O 0.41322 0.96987 0.555 0.0
H78 H 0.46718 0.97859 0.43745 0.0
H79 H 0.39501 0.91404 0.51123 0.0
N80 N 0.455 0.94171 0.57287 0.0
N81 N 0.4547 0.92854 0.63726 0.0
C82 C 0.46202 0.9516 0.61115 0.0
C83 C 0.44269 0.91128 0.57464 0.0
C84 C 0.44251 0.90306 0.61444 0.0
C85 C 0.507 0.94837 0.489 0.0
O86 O 0.47845 0.92567 0.48046 0.0
H87 H 0.47405 0.97546 0.61936 0.0
H88 H 0.43565 0.89631 0.54874 0.0
O89 O 0.46476 1.00412 0.54627 0.0
H90 H 0.37283 0.90489 0.43598 0.0
H91 H 0.43483 0.88025 0.62557 0.0
Cu92 Cu 0.98574 0.53151 0.52062 0.0
N93 N 1.00501 0.53771 0.57168 0.0
N94 N 1.00666 0.52921 0.63757 0.0
C95 C 0.98771 0.52552 0.6053 0.0
C96 C 0.03735 0.54518 0.62415 0.0
C97 C 0.03627 0.55032 0.58327 0.0
O98 O 0.94292 0.4959 0.5287 0.0
C99 C 0.01696 0.58981 0.4911 0.0
O100 O 0.04046 0.58258 0.49542 0.0
H101 H 0.96152 0.51313 0.60582 0.0
H102 H 0.05679 0.56114 0.56322 0.0
N103 N 1.00714 0.51945 0.48263 0.0
N104 N 0.01555 0.50137 0.42473 0.0
C105 C 0.99817 0.51282 0.44382 0.0
C106 C 0.0313 0.51227 0.4882 0.0
C107 C 0.03641 0.50091 0.4525 0.0
C108 C 0.9455 0.47253 0.54014 0.0
O109 O 0.97458 0.47466 0.54143 0.0
H110 H 0.97817 0.51492 0.43043 0.0
H111 H 0.04339 0.51393 0.5166 0.0
O112 O 0.98837 0.57017 0.50142 0.0
H113 H 0.05891 0.55118 0.64202 0.0
H114 H 0.05364 0.49241 0.44754 0.0
Cu115 Cu 0.50847 0.50162 0.52228 0.0
N116 N 0.51179 0.52501 0.47472 0.0
N117 N 0.51587 0.537 0.40823 0.0
C118 C 0.50885 0.51471 0.43603 0.0
C119 C 0.5234 0.56226 0.43034 0.0
C120 C 0.52057 0.55484 0.47094 0.0
O121 O 0.47359 0.4616 0.50699 0.0
C122 C 0.57363 0.53076 0.53688 0.0
O123 O 0.56639 0.55325 0.53454 0.0
H124 H 0.50314 0.49156 0.42842 0.0
H125 H 0.5257 0.57042 0.49593 0.0
N126 N 0.499 0.51425 0.57334 0.0
N127 N 0.49584 0.5188 0.6413 0.0
C128 C 0.50525 0.50651 0.61051 0.0
C129 C 0.4854 0.53232 0.58098 0.0
C130 C 0.48331 0.53503 0.62236 0.0
C131 C 0.44438 0.45709 0.50941 0.0
O132 O 0.4385 0.47684 0.52919 0.0
H133 H 0.5163 0.49186 0.6148 0.0
H134 H 0.47751 0.54286 0.55805 0.0
O135 O 0.55102 0.50369 0.53117 0.0
H136 H 0.53104 0.58475 0.418 0.0
H137 H 0.47372 0.54846 0.63723 0.0
Cu138 Cu 0.70734 0.86602 0.363 0.0
N139 N 0.7219 0.89427 0.32103 0.0
N140 N 0.72941 0.9125 0.25816 0.0
C141 C 0.71933 0.88745 0.28146 0.0
C142 C 0.73878 0.93602 0.28421 0.0
C143 C 0.73417 0.9247 0.323 0.0
O144 O 0.70261 0.82771 0.3394 0.0
C145 C 0.65149 0.87614 0.37083 0.0
O146 O 0.65411 0.88147 0.33189 0.0
H147 H 0.70901 0.86439 0.27005 0.0
H148 H 0.73865 0.93758 0.35066 0.0
N149 N 0.73788 0.87871 0.40454 0.0
N150 N 0.75767 0.8842 0.46713 0.0
C151 C 0.73079 0.87443 0.44413 0.0
C152 C 0.77037 0.89192 0.40225 0.0
C153 C 0.78267 0.89522 0.44087 0.0
C154 C 0.71601 0.81256 0.3539 0.0
O155 O 0.72882 0.81928 0.39011 0.0
H156 H 0.70628 0.86319 0.45567 0.0
H157 H 0.78404 0.89803 0.37446 0.0
O158 O 0.66922 0.86615 0.38758 0.0
H159 H 0.74806 0.95969 0.27587 0.0
H160 H 0.80801 0.90472 0.44892 0.0
Cu161 Cu 0.17631 0.85777 0.36724 0.0
N162 N 0.18978 0.84847 0.31861 0.0
N163 N 0.19714 0.84895 0.25212 0.0
C164 C 0.18605 0.85915 0.28291 0.0
C165 C 0.20817 0.83092 0.26907 0.0
C166 C 0.20365 0.8307 0.31017 0.0
O167 O 0.1772 0.89734 0.35759 0.0
C168 C 0.13835 0.7986 0.39088 0.0
O169 O 0.16747 0.80097 0.38836 0.0
H170 H 0.17465 0.8736 0.27961 0.0
H171 H 0.20985 0.81818 0.33202 0.0
N172 N 0.206 0.86409 0.40853 0.0
N173 N 0.22765 0.8754 0.46997 0.0
C174 C 0.20428 0.87445 0.44536 0.0
C175 C 0.23164 0.8586 0.40973 0.0
C176 C 0.24489 0.8653 0.4479 0.0
C177 C 0.20588 0.9189 0.35157 0.0
O178 O 0.23008 0.91244 0.35353 0.0
H179 H 0.18557 0.88026 0.4543 0.0
H180 H 0.23994 0.85001 0.38495 0.0
O181 O 0.13513 0.82223 0.38309 0.0
H182 H 0.21881 0.81885 0.25301 0.0
H183 H 0.26544 0.86288 0.45867 0.0
Cu184 Cu 0.18163 0.28624 0.36505 0.0
N185 N 0.18675 0.26339 0.32318 0.0
N186 N 0.17878 0.24372 0.26097 0.0
C187 C 0.16555 0.25078 0.29268 0.0
C188 C 0.20924 0.25099 0.27255 0.0
C189 C 0.21395 0.26275 0.31118 0.0
O190 O 0.14286 0.29023 0.35287 0.0
C191 C 0.24572 0.33684 0.35189 0.0
O192 O 0.24193 0.3291 0.31365 0.0
H193 H 0.14176 0.24934 0.29212 0.0
H194 H 0.23653 0.27268 0.32776 0.0
N195 N 0.17262 0.26529 0.41373 0.0
N196 N 0.16798 0.25966 0.48064 0.0
C197 C 0.18137 0.27922 0.44975 0.0
C198 C 0.15294 0.23577 0.42185 0.0
C199 C 0.15002 0.23221 0.46326 0.0
C200 C 0.13559 0.29694 0.31861 0.0
O201 O 0.1583 0.30928 0.29111 0.0
H202 H 0.19575 0.30362 0.45306 0.0
H203 H 0.14053 0.21839 0.39934 0.0
O204 O 0.22188 0.32373 0.3759 0.0
H205 H 0.22743 0.24977 0.25356 0.0
H206 H 0.13524 0.21123 0.4792 0.0
Cu207 Cu 0.15913 0.30886 0.88186 0.0
N208 N 0.13924 0.29914 0.83085 0.0
N209 N 0.13627 0.29309 0.76377 0.0
C210 C 0.15584 0.30529 0.79597 0.0
C211 C 0.10596 0.27904 0.77901 0.0
C212 C 0.10786 0.28286 0.82035 0.0
O213 O 0.20099 0.30939 0.87422 0.0
C214 C 0.13183 0.34507 0.90436 0.0
O215 O 0.1064 0.31912 0.89557 0.0
H216 H 0.18202 0.31718 0.79464 0.0
H217 H 0.08778 0.2737 0.84121 0.0
N218 N 0.13676 0.2786 0.92019 0.0
N219 N 0.1252 0.25444 0.97952 0.0
C220 C 0.14512 0.28 0.95931 0.0
C221 C 0.11081 0.2511 0.91535 0.0
C222 C 0.1035 0.23623 0.95195 0.0
C223 C 0.19883 0.28531 0.85755 0.0
O224 O 0.16995 0.26291 0.84934 0.0
H225 H 0.16542 0.29949 0.97264 0.0
H226 H 0.09845 0.24215 0.88712 0.0
O227 O 0.15983 0.3467 0.90093 0.0
H228 H 0.08399 0.26654 0.7617 0.0
H229 H 0.08423 0.21348 0.95755 0.0
Cu230 Cu 0.67524 0.85429 0.85737 0.0
N231 N 0.69577 0.84506 0.81481 0.0
N232 N 0.71801 0.84472 0.75516 0.0
C233 C 0.70316 0.85729 0.77748 0.0
C234 C 0.71939 0.82339 0.77898 0.0
C235 C 0.70538 0.82343 0.81544 0.0
O236 O 0.67057 0.89021 0.84239 0.0
C237 C 0.62189 0.80683 0.90137 0.0
O238 O 0.63381 0.82429 0.93317 0.0
H239 H 0.69808 0.87521 0.76697 0.0
H240 H 0.70206 0.80843 0.84057 0.0
N241 N 0.7009 0.86367 0.90411 0.0
N242 N 0.71798 0.87805 0.96738 0.0
C243 C 0.69855 0.87824 0.93728 0.0
C244 C 0.72311 0.8546 0.91335 0.0
C245 C 0.73358 0.86333 0.95229 0.0
C246 C 0.69619 0.91376 0.83116 0.0
O247 O 0.72387 0.91293 0.83109 0.0
H248 H 0.68159 0.88728 0.94 0.0
H249 H 0.73064 0.8418 0.8937 0.0
O250 O 0.63453 0.81675 0.86686 0.0
H251 H 0.72933 0.80845 0.77039 0.0
H252 H 0.75096 0.85875 0.96846 0.0
Cu253 Cu 0.19133 0.8199 0.8569 0.0
N254 N 0.21042 0.85155 0.81965 0.0
N255 N 0.22563 0.87743 0.76194 0.0
C256 C 0.21235 0.84965 0.77935 0.0
C257 C 0.23253 0.89748 0.79241 0.0
C258 C 0.22316 0.88148 0.82791 0.0
O259 O 0.15348 0.78533 0.83285 0.0
C260 C 0.24739 0.83352 0.89859 0.0
O261 O 0.24551 0.85893 0.90219 0.0
H262 H 0.20285 0.82832 0.76307 0.0
H263 H 0.22475 0.891 0.85763 0.0
N264 N 0.17565 0.83415 0.89923 0.0
N265 N 0.16922 0.84786 0.96129 0.0
C266 C 0.1796 0.83144 0.93893 0.0
C267 C 0.16171 0.85242 0.89644 0.0
C268 C 0.15765 0.86085 0.93461 0.0
C269 C 0.1333 0.79234 0.81605 0.0
O270 O 0.14106 0.82125 0.81276 0.0
H271 H 0.19176 0.81927 0.95093 0.0
H272 H 0.15639 0.86044 0.8686 0.0
O273 O 0.22556 0.81159 0.8785 0.0
H274 H 0.24317 0.92194 0.78922 0.0
H275 H 0.14785 0.87611 0.94194 0.0
Cu276 Cu 0.39289 0.20887 0.70859 0.0
N277 N 0.41454 0.23335 0.6644 0.0
N278 N 0.43032 0.24572 0.60042 0.0
C279 C 0.40747 0.22558 0.62527 0.0
C280 C 0.45249 0.26703 0.62484 0.0
C281 C 0.44272 0.25936 0.6642 0.0
O282 O 0.38509 0.16791 0.69395 0.0
C283 C 0.34149 0.20633 0.75543 0.0
O284 O 0.34938 0.18958 0.77885 0.0
H285 H 0.38715 0.20452 0.6154 0.0
H286 H 0.4562 0.27109 0.69073 0.0
N287 N 0.41821 0.22175 0.75548 0.0
N288 N 0.42796 0.21971 0.82122 0.0
C289 C 0.41679 0.20374 0.78663 0.0
C290 C 0.43133 0.25012 0.77078 0.0
C291 C 0.43755 0.24897 0.81114 0.0
C292 C 0.41008 0.16472 0.6859 0.0
O293 O 0.43887 0.18816 0.69103 0.0
H294 H 0.40402 0.17913 0.78507 0.0
H295 H 0.43291 0.26975 0.75494 0.0
O296 O 0.35463 0.21397 0.72078 0.0
H297 H 0.47479 0.28621 0.615 0.0
H298 H 0.44613 0.2679 0.83202 0.0
Cu299 Cu 0.81429 0.19531 0.68269 0.0
N300 N 0.77719 0.15699 0.68691 0.0
N301 N 0.7454 0.10941 0.70842 0.0
C302 C 0.76978 0.13714 0.71787 0.0
C303 C 0.73713 0.11167 0.67019 0.0
C304 C 0.7566 0.14101 0.65707 0.0
O305 O 0.83806 0.20029 0.73536 0.0
C306 C 0.82074 0.19953 0.59688 0.0
O307 O 0.79495 0.20319 0.60229 0.0
H308 H 0.7834 0.14221 0.74573 0.0
H309 H 0.75688 0.14942 0.62701 0.0
N310 N 0.80361 0.22735 0.67918 0.0
N311 N 0.80851 0.27274 0.66067 0.0
C312 C 0.82363 0.25544 0.66516 0.0
C313 C 0.77475 0.22678 0.68405 0.0
C314 C 0.7777 0.25473 0.67275 0.0
C315 C 0.82602 0.20593 0.76729 0.0
O316 O 0.80037 0.21 0.76294 0.0
H317 H 0.84835 0.26231 0.65618 0.0
H318 H 0.75287 0.20709 0.69372 0.0
O319 O 0.83462 0.19574 0.62849 0.0
H320 H 0.71919 0.09307 0.65254 0.0
H321 H 0.75844 0.261 0.67277 0.0
Cu322 Cu 0.85131 0.67616 0.68222 0.0
N323 N 0.8374 0.69361 0.72296 0.0
N324 N 0.83514 0.7135 0.78264 0.0
C325 C 0.84521 0.69589 0.76244 0.0
C326 C 0.81997 0.72223 0.75501 0.0
C327 C 0.82126 0.70982 0.71835 0.0
O328 O 0.88855 0.67251 0.70373 0.0
C329 C 0.79356 0.64341 0.64168 0.0
O330 O 0.80005 0.67165 0.63443 0.0
H331 H 0.85978 0.68646 0.77556 0.0
H332 H 0.81242 0.71366 0.68995 0.0
N333 N 0.86718 0.70295 0.63838 0.0
N334 N 0.88476 0.72061 0.5764 0.0
C335 C 0.87397 0.69634 0.60136 0.0
C336 C 0.87405 0.73242 0.63689 0.0
C337 C 0.88483 0.74334 0.59874 0.0
C338 C 0.91131 0.69813 0.71536 0.0
O339 O 0.90718 0.72235 0.71117 0.0
H340 H 0.87044 0.67399 0.59281 0.0
H341 H 0.87161 0.74516 0.66187 0.0
O342 O 0.81355 0.63881 0.66322 0.0
H343 H 0.80959 0.73729 0.76067 0.0
H344 H 0.8925 0.76636 0.58846 0.0
Cu345 Cu 0.878 0.71663 0.17921 0.0
N346 N 0.89172 0.73902 0.1314 0.0
N347 N 0.89306 0.75284 0.06709 0.0
C348 C 0.87664 0.73168 0.09533 0.0
C349 C 0.91935 0.7744 0.08602 0.0
C350 C 0.91858 0.76571 0.12563 0.0
O351 O 0.88732 0.68207 0.17502 0.0
C352 C 0.82218 0.70549 0.2257 0.0
O353 O 0.8371 0.69877 0.25441 0.0
H354 H 0.85384 0.7115 0.08998 0.0
H355 H 0.93648 0.77793 0.14854 0.0
N356 N 0.90245 0.7404 0.22242 0.0
N357 N 0.91829 0.75051 0.28673 0.0
C358 C 0.90819 0.72952 0.25696 0.0
C359 C 0.90975 0.76945 0.23031 0.0
C360 C 0.91965 0.7758 0.26989 0.0
C361 C 0.88087 0.66452 0.14453 0.0
O362 O 0.86194 0.66569 0.11608 0.0
H363 H 0.90155 0.70574 0.26133 0.0
H364 H 0.90556 0.78414 0.2098 0.0
O365 O 0.83348 0.7093 0.1899 0.0
H366 H 0.93804 0.79469 0.072 0.0
H367 H 0.92537 0.79677 0.28568 0.0
Cu368 Cu 0.35158 0.18363 0.2104 0.0
N369 N 0.38452 0.20085 0.24939 0.0
N370 N 0.41216 0.21591 0.30762 0.0
C371 C 0.38249 0.20231 0.28992 0.0
C372 C 0.43333 0.22337 0.27664 0.0
C373 C 0.41634 0.21395 0.24121 0.0
O374 O 0.31434 0.14739 0.23322 0.0
C375 C 0.36611 0.23857 0.17243 0.0
O376 O 0.39391 0.23814 0.16939 0.0
H377 H 0.3597 0.19298 0.30592 0.0
H378 H 0.42657 0.21628 0.2114 0.0
N379 N 0.36776 0.1703 0.16726 0.0
N380 N 0.38281 0.16402 0.10535 0.0
C381 C 0.36685 0.1756 0.12749 0.0
C382 C 0.38477 0.15479 0.17025 0.0
C383 C 0.39399 0.15083 0.13225 0.0
C384 C 0.32078 0.12896 0.25335 0.0
O385 O 0.35132 0.13597 0.2588 0.0
H386 H 0.35503 0.18799 0.11513 0.0
H387 H 0.39097 0.14767 0.19824 0.0
O388 O 0.34262 0.21624 0.19002 0.0
H389 H 0.45944 0.23491 0.27887 0.0
H390 H 0.40882 0.14004 0.1252 0.0
Cu391 Cu 0.85406 0.18187 0.18155 0.0
N392 N 0.8461 0.19762 0.23079 0.0
N393 N 0.84298 0.20398 0.29828 0.0
C394 C 0.85224 0.1908 0.26853 0.0
C395 C 0.8306 0.21982 0.27807 0.0
C396 C 0.83253 0.2159 0.23696 0.0
O397 O 0.89525 0.18214 0.19304 0.0
C398 C 0.79081 0.14249 0.16606 0.0
O399 O 0.79138 0.16912 0.16833 0.0
H400 H 0.86275 0.17582 0.27394 0.0
H401 H 0.82416 0.22546 0.21332 0.0
N402 N 0.85693 0.203 0.13186 0.0
N403 N 0.85637 0.21104 0.06448 0.0
C404 C 0.85772 0.19266 0.09404 0.0
C405 C 0.85519 0.22896 0.12584 0.0
C406 C 0.85482 0.23391 0.08477 0.0
C407 C 0.92196 0.20596 0.18595 0.0
O408 O 0.92166 0.22775 0.16393 0.0
H409 H 0.85819 0.17143 0.08836 0.0
H410 H 0.85371 0.24314 0.1496 0.0
O411 O 0.81716 0.14143 0.1728 0.0
H412 H 0.82087 0.23353 0.29182 0.0
H413 H 0.85354 0.25304 0.07099 0.0
H414 H 1.00132 0.52492 0.35876 0.0
H415 H 0.01813 0.45076 0.3996 0.0
H416 H 1.00683 0.4288 0.33083 0.0
H417 H 0.93653 0.48217 0.28989 0.0
H418 H 0.9498 0.51189 0.25254 0.0
H419 H 0.95884 0.5215 0.30499 0.0
H420 H 0.02001 0.55185 0.28828 0.0
H421 H 0.01113 0.54247 0.23576 0.0
H422 H 0.03947 0.53334 0.26146 0.0
H423 H 0.99135 0.41392 0.25813 0.0
H424 H 0.97852 0.41006 0.18526 0.0
H425 H 0.97451 0.49529 0.19125 0.0
C426 C 1.00255 0.50404 0.3531 0.0
C427 C 0.01046 0.48941 0.38436 0.0
C428 C 0.01233 0.46237 0.3759 0.0
C429 C 1.00575 0.44967 0.33707 0.0
C430 C 0.99776 0.46454 0.30695 0.0
C431 C 0.9966 0.49137 0.31438 0.0
C432 C 0.98851 0.50338 0.27646 0.0
C433 C 0.95652 0.50481 0.28127 0.0
C434 C 0.01645 0.53461 0.26481 0.0
C435 C 0.98506 0.479 0.24659 0.0
C436 C 0.99011 0.45661 0.26484 0.0
C437 C 0.98751 0.4314 0.24347 0.0
C438 C 0.98 0.42927 0.20223 0.0
C439 C 0.97562 0.4524 0.18275 0.0
C440 C 0.97805 0.47746 0.20538 0.0
H441 H 0.47047 0.49794 0.35451 0.0
H442 H 0.5671 0.5738 0.3622 0.0
H443 H 0.57196 0.57404 0.28778 0.0
H444 H 0.48362 0.45944 0.26725 0.0
H445 H 0.44461 0.44934 0.24522 0.0
H446 H 0.44986 0.45334 0.2991 0.0
H447 H 0.42838 0.49276 0.29917 0.0
H448 H 0.42294 0.48878 0.24537 0.0
H449 H 0.44735 0.52583 0.26723 0.0
H450 H 0.56579 0.56612 0.21024 0.0
H451 H 0.54698 0.55441 0.13917 0.0
H452 H 0.45312 0.48627 0.18151 0.0
C453 C 0.49281 0.51424 0.34047 0.0
C454 C 0.51867 0.53562 0.36451 0.0
C455 C 0.54711 0.55711 0.34466 0.0
C456 C 0.55009 0.55734 0.30227 0.0
C457 C 0.52418 0.5362 0.27934 0.0
C458 C 0.4959 0.51524 0.29784 0.0
C459 C 0.47073 0.49653 0.26616 0.0
C460 C 0.46167 0.46265 0.26965 0.0
C461 C 0.44057 0.50127 0.2697 0.0
C462 C 0.48913 0.51019 0.22715 0.0
C463 C 0.52014 0.53272 0.23525 0.0
C464 C 0.54149 0.54848 0.20376 0.0
C465 C 0.5307 0.54156 0.16327 0.0
C466 C 0.49858 0.51936 0.15421 0.0
C467 C 0.47788 0.50337 0.187 0.0
H468 H 0.48829 0.01863 0.20879 0.0
H469 H 0.42338 0.93158 0.15511 0.0
H470 H 0.39924 0.91209 0.22191 0.0
H471 H 0.50473 0.98915 0.29644 0.0
H472 H 0.50626 0.01845 0.32973 0.0
H473 H 0.51601 0.0267 0.27723 0.0
H474 H 0.47226 0.04455 0.27051 0.0
H475 H 0.46248 0.0365 0.32313 0.0
H476 H 0.43118 0.01938 0.28553 0.0
H477 H 0.38507 0.90088 0.295 0.0
H478 H 0.38246 0.89839 0.36912 0.0
H479 H 0.45628 0.99298 0.37553 0.0
C480 C 0.46847 0.99574 0.21102 0.0
C481 C 0.45758 0.97662 0.17681 0.0
C482 C 0.43215 0.94651 0.18103 0.0
C483 C 0.41819 0.93532 0.21877 0.0
C484 C 0.42992 0.95453 0.25207 0.0
C485 C 0.45442 0.98414 0.24859 0.0
C486 C 0.4641 0.99934 0.28951 0.0
C487 C 0.49989 0.00896 0.29876 0.0
C488 C 0.45707 0.02655 0.29233 0.0
C489 C 0.44167 0.97348 0.31654 0.0
C490 C 0.42192 0.94796 0.29432 0.0
C491 C 0.40013 0.92086 0.31271 0.0
C492 C 0.39873 0.91971 0.35496 0.0
C493 C 0.41911 0.94546 0.3785 0.0
C494 C 0.44051 0.97277 0.35869 0.0
H495 H 0.03213 0.55292 0.71092 0.0
H496 H 0.95649 0.47358 0.65189 0.0
H497 H 0.93567 0.44998 0.71804 0.0
H498 H 0.04628 0.51219 0.79377 0.0
H499 H 0.05259 0.54122 0.83045 0.0
H500 H 0.06254 0.55137 0.7783 0.0
H501 H 0.02525 0.57688 0.77764 0.0
H502 H 0.01512 0.56672 0.82971 0.0
H503 H 0.98344 0.55507 0.79244 0.0
H504 H 0.92213 0.43547 0.7903 0.0
H505 H 0.91687 0.43081 0.86413 0.0
H506 H 1.00026 0.52014 0.87693 0.0
C507 C 0.01143 0.53046 0.71209 0.0
C508 C 0.99579 0.51516 0.67637 0.0
C509 C 0.96853 0.48589 0.67893 0.0
C510 C 0.95664 0.47222 0.71634 0.0
C511 C 0.97221 0.48811 0.75103 0.0
C512 C 0.99903 0.51655 0.74934 0.0
C513 C 0.01053 0.52904 0.79131 0.0
C514 C 0.04503 0.53372 0.79889 0.0
C515 C 1.00845 0.55868 0.79817 0.0
C516 C 0.9859 0.50325 0.81673 0.0
C517 C 0.96413 0.47983 0.79286 0.0
C518 C 0.93902 0.45368 0.80936 0.0
C519 C 0.93608 0.45135 0.85143 0.0
C520 C 0.95804 0.47509 0.87669 0.0
C521 C 0.98326 0.50136 0.85878 0.0
H522 H 0.46026 0.52682 0.70193 0.0
H523 H 0.53793 0.50396 0.68146 0.0
H524 H 0.54337 0.49996 0.7552 0.0
H525 H 0.49393 0.57256 0.79121 0.0
H526 H 0.45515 0.55942 0.8154 0.0
H527 H 0.45779 0.56057 0.76121 0.0
H528 H 0.41619 0.50333 0.75779 0.0
H529 H 0.41339 0.50205 0.81195 0.0
H530 H 0.42384 0.47618 0.78553 0.0
H531 H 0.54058 0.49962 0.83493 0.0
H532 H 0.52766 0.50038 0.90765 0.0
H533 H 0.45148 0.52254 0.87417 0.0
C534 C 0.47863 0.52117 0.71267 0.0
C535 C 0.49871 0.51583 0.685 0.0
C536 C 0.52197 0.50798 0.70131 0.0
C537 C 0.52538 0.50581 0.7435 0.0
C538 C 0.50528 0.51136 0.76978 0.0
C539 C 0.48221 0.51872 0.75468 0.0
C540 C 0.46308 0.52311 0.78885 0.0
C541 C 0.46778 0.55586 0.78917 0.0
C542 C 0.42699 0.49978 0.78584 0.0
C543 C 0.47879 0.5171 0.82558 0.0
C544 C 0.5033 0.51055 0.81431 0.0
C545 C 0.52129 0.50464 0.84372 0.0
C546 C 0.51386 0.50518 0.88519 0.0
C547 C 0.48839 0.51132 0.89733 0.0
C548 C 0.47097 0.51747 0.86656 0.0
H549 H 0.48671 1.00494 0.85486 0.0
H550 H 0.51886 0.9395 0.89138 0.0
H551 H 0.50672 0.91697 0.82374 0.0
H552 H 0.42182 0.95547 0.791 0.0
H553 H 0.42898 0.98388 0.75311 0.0
H554 H 0.43989 0.99514 0.8048 0.0
H555 H 0.49889 0.03141 0.78315 0.0
H556 H 0.48806 0.02045 0.73136 0.0
H557 H 0.52101 0.01662 0.75411 0.0
H558 H 0.48951 0.90008 0.7528 0.0
H559 H 0.47291 0.89319 0.68124 0.0
H560 H 0.45436 0.97071 0.68917 0.0
C561 C 0.49156 0.9861 0.84871 0.0
C562 C 0.5033 0.97383 0.87916 0.0
C563 C 0.50912 0.94901 0.86933 0.0
C564 C 0.50247 0.93606 0.83074 0.0
C565 C 0.49036 0.94831 0.80185 0.0
C566 C 0.48536 0.97303 0.8101 0.0
C567 C 0.47272 0.98212 0.7732 0.0
C568 C 0.43884 0.97895 0.78101 0.0
C569 C 0.4966 0.01457 0.75966 0.0
C570 C 0.47135 0.95857 0.7431 0.0
C571 C 0.48137 0.93914 0.76039 0.0
C572 C 0.48172 0.91522 0.73884 0.0
C573 C 0.47201 0.91132 0.69832 0.0
C574 C 0.46237 0.93139 0.67964 0.0
C575 C 0.46189 0.95519 0.70256 0.0
H576 H 0.69231 0.8623 0.69307 0.0
H577 H 0.7716 0.84427 0.72543 0.0
H578 H 0.79208 0.85531 0.65561 0.0
H579 H 0.6775 0.82707 0.59686 0.0
H580 H 0.66799 0.85426 0.57237 0.0
H581 H 0.66089 0.84727 0.62558 0.0
H582 H 0.69651 0.90477 0.64014 0.0
H583 H 0.70366 0.91193 0.5869 0.0
H584 H 0.73739 0.92391 0.62118 0.0
H585 H 0.80318 0.86685 0.58208 0.0
H586 H 0.80256 0.87551 0.50891 0.0
H587 H 0.7154 0.88492 0.52316 0.0
C588 C 0.71424 0.86116 0.68551 0.0
C589 C 0.73043 0.85248 0.71469 0.0
C590 C 0.75871 0.85063 0.70349 0.0
C591 C 0.77063 0.85706 0.66398 0.0
C592 C 0.75394 0.86519 0.63583 0.0
C593 C 0.72628 0.86716 0.64597 0.0
C594 C 0.71199 0.87478 0.60933 0.0
C595 C 0.67756 0.84932 0.60053 0.0
C596 C 0.71242 0.90569 0.61472 0.0
C597 C 0.73567 0.87632 0.57699 0.0
C598 C 0.75992 0.87114 0.59307 0.0
C599 C 0.78441 0.87109 0.56916 0.0
C600 C 0.78395 0.87618 0.52763 0.0
C601 C 0.75898 0.88092 0.51023 0.0
C602 C 0.73468 0.88116 0.53549 0.0
H603 H 0.23744 0.84618 0.70281 0.0
H604 H 0.22069 0.92363 0.72506 0.0
H605 H 0.22385 0.93401 0.65209 0.0
H606 H 0.29413 0.88026 0.61851 0.0
H607 H 0.27866 0.84481 0.59126 0.0
H608 H 0.27735 0.8447 0.64556 0.0
H609 H 0.21539 0.80898 0.6435 0.0
H610 H 0.21652 0.80895 0.58929 0.0
H611 H 0.18983 0.82018 0.61502 0.0
H612 H 0.22348 0.93303 0.57694 0.0
H613 H 0.22178 0.92175 0.50404 0.0
H614 H 0.24072 0.84624 0.53028 0.0
C615 C 0.23465 0.86541 0.69226 0.0
C616 C 0.22894 0.88417 0.71954 0.0
C617 C 0.22556 0.90924 0.70473 0.0
C618 C 0.22721 0.91526 0.66334 0.0
C619 C 0.23263 0.8962 0.63723 0.0
C620 C 0.23658 0.87193 0.65105 0.0
C621 C 0.2411 0.8544 0.61647 0.0
C622 C 0.27482 0.85616 0.61806 0.0
C623 C 0.2141 0.82117 0.61605 0.0
C624 C 0.23816 0.87211 0.58104 0.0
C625 C 0.23336 0.89619 0.59371 0.0
C626 C 0.22774 0.91457 0.5666 0.0
C627 C 0.22668 0.90797 0.52541 0.0
C628 C 0.23148 0.88341 0.51186 0.0
C629 C 0.23776 0.86558 0.54 0.0
H630 H 0.12243 0.2312 0.53893 0.0
H631 H 0.21814 0.3066 0.518 0.0
H632 H 0.22024 0.32327 0.58843 0.0
H633 H 0.09362 0.27087 0.60187 0.0
H634 H 0.07142 0.23939 0.63544 0.0
H635 H 0.07779 0.23231 0.58382 0.0
H636 H 0.10431 0.19946 0.60747 0.0
H637 H 0.09768 0.20616 0.65917 0.0
H638 H 0.13788 0.21538 0.64225 0.0
H639 H 0.21112 0.33312 0.66002 0.0
H640 H 0.19242 0.33435 0.729 0.0
H641 H 0.1031 0.25181 0.70454 0.0
C642 C 0.14406 0.25088 0.54933 0.0
C643 C 0.17009 0.26765 0.52278 0.0
C644 C 0.19773 0.29361 0.53754 0.0
C645 C 0.19921 0.3032 0.57757 0.0
C646 C 0.17289 0.28655 0.60265 0.0
C647 C 0.14593 0.26081 0.58928 0.0
C648 C 0.12073 0.24741 0.62233 0.0
C649 C 0.08902 0.24751 0.61012 0.0
C650 C 0.11481 0.21519 0.63347 0.0
C651 C 0.13764 0.2698 0.6562 0.0
C652 C 0.16771 0.29215 0.64417 0.0
C653 C 0.18773 0.31557 0.66992 0.0
C654 C 0.1769 0.31599 0.70919 0.0
C655 C 0.14632 0.29309 0.72257 0.0
C656 C 0.12644 0.26982 0.69538 0.0
H657 H 0.73517 0.87347 0.20537 0.0
H658 H 0.72101 0.95354 0.21224 0.0
H659 H 0.71727 0.95403 0.13794 0.0
H660 H 0.78428 0.89534 0.11535 0.0
H661 H 0.76683 0.85707 0.09582 0.0
H662 H 0.76881 0.86341 0.14944 0.0
H663 H 0.70685 0.82871 0.15478 0.0
H664 H 0.70464 0.82226 0.1012 0.0
H665 H 0.6799 0.83691 0.12436 0.0
H666 H 0.7126 0.94417 0.06251 0.0
H667 H 0.7104 0.92635 0.99226 0.0
H668 H 0.7285 0.85339 0.03523 0.0
C669 C 0.7312 0.89107 0.19128 0.0
C670 C 0.72835 0.91346 0.21471 0.0
C671 C 0.72362 0.93635 0.19497 0.0
C672 C 0.72127 0.9367 0.15277 0.0
C673 C 0.72396 0.91415 0.13065 0.0
C674 C 0.72907 0.89189 0.14924 0.0
C675 C 0.73124 0.87029 0.11866 0.0
C676 C 0.76479 0.87162 0.1199 0.0
C677 C 0.70403 0.83761 0.12514 0.0
C678 C 0.72635 0.88373 0.07994 0.0
C679 C 0.72203 0.90892 0.08742 0.0
C680 C 0.71617 0.92458 0.05631 0.0
C681 C 0.7148 0.91424 1.01655 0.0
C682 C 0.71955 0.88867 1.00821 0.0
C683 C 0.7254 0.87334 0.0405 0.0
H684 H 0.17462 0.81116 1.01827 0.0
H685 H 0.17433 0.89764 1.00143 0.0
H686 H 0.18331 0.90791 0.07415 0.0
H687 H 0.13347 0.79216 0.11243 0.0
H688 H 0.15734 0.77564 0.13311 0.0
H689 H 0.15125 0.77522 0.07948 0.0
H690 H 0.21356 0.80264 0.06838 0.0
H691 H 0.21965 0.80292 0.12205 0.0
H692 H 0.23811 0.83806 0.09411 0.0
H693 H 0.19222 0.90891 0.14836 0.0
H694 H 0.19837 0.89959 0.22 0.0
H695 H 0.19305 0.81258 0.18871 0.0
C696 C 0.17667 0.83236 0.02976 0.0
C697 C 0.17361 0.8535 1.00401 0.0
C698 C 0.17602 0.8808 0.02048 0.0
C699 C 0.18145 0.88701 0.06175 0.0
C700 C 0.18452 0.86576 0.08613 0.0
C701 C 0.18217 0.83896 0.07084 0.0
C702 C 0.18587 0.81974 0.10374 0.0
C703 C 0.15515 0.78887 0.1074 0.0
C704 C 0.21609 0.8156 0.09663 0.0
C705 C 0.19019 0.83976 0.14002 0.0
C706 C 0.1896 0.8663 0.1291 0.0
C707 C 0.19266 0.88819 0.15734 0.0
C708 C 0.19594 0.88259 0.19797 0.0
C709 C 0.19596 0.85526 0.21002 0.0
C710 C 0.19347 0.83381 0.18045 0.0
H711 H 0.17942 0.27502 0.0262 0.0
H712 H 0.0751 0.21875 0.0282 0.0
H713 H 0.07793 0.20732 0.10012 0.0
H714 H 0.19881 0.22803 0.09257 0.0
H715 H 0.23154 0.25997 0.11721 0.0
H716 H 0.22142 0.26326 0.06567 0.0
H717 H 0.21409 0.31026 0.08451 0.0
H718 H 0.22446 0.30722 0.13597 0.0
H719 H 0.18673 0.30723 0.12462 0.0
H720 H 0.09186 0.20393 0.17259 0.0
H721 H 0.116 0.20892 0.24036 0.0
H722 H 0.2113 0.26636 0.19084 0.0
C723 C 0.15716 0.26037 0.04178 0.0
C724 C 0.127 0.24774 0.0215 0.0
C725 C 0.09849 0.22838 0.04294 0.0
C726 C 0.09986 0.22183 0.08382 0.0
C727 C 0.12998 0.23455 0.10282 0.0
C728 C 0.15814 0.25336 0.0825 0.0
C729 C 0.18737 0.26446 0.1101 0.0
C730 C 0.21118 0.25325 0.09551 0.0
C731 C 0.20414 0.29936 0.11403 0.0
C732 C 0.17121 0.24916 0.14921 0.0
C733 C 0.13809 0.23203 0.14436 0.0
C734 C 0.1178 0.21701 0.17664 0.0
C735 C 0.13169 0.21993 0.21497 0.0
C736 C 0.16553 0.2376 0.22075 0.0
C737 C 0.1855 0.25201 0.18719 0.0
H738 H 0.38667 0.20928 0.05551 0.0
H739 H 0.39261 0.12479 0.05764 0.0
H740 H 0.40564 0.13031 0.9851 0.0
H741 H 0.34963 0.19823 0.95623 0.0
H742 H 0.37185 0.23793 0.94304 0.0
H743 H 0.36232 0.22696 0.99502 0.0
H744 H 0.42312 0.2573 1.01337 0.0
H745 H 0.43295 0.26816 0.96143 0.0
H746 H 0.45208 0.24906 0.98757 0.0
H747 H 0.41835 0.14508 0.91221 0.0
H748 H 0.4293 0.16803 0.8441 0.0
H749 H 0.41502 0.24272 0.88943 0.0
C750 C 0.39027 0.19173 0.04064 0.0
C751 C 0.38867 0.1666 0.06243 0.0
C752 C 0.39409 0.14441 0.04181 0.0
C753 C 0.40138 0.14728 1.00053 0.0
C754 C 0.4032 0.17249 0.98012 0.0
C755 C 0.3977 0.19429 0.99941 0.0
C756 C 0.4015 0.21937 0.97053 0.0
C757 C 0.36941 0.22068 0.96593 0.0
C758 C 0.42906 0.2503 0.98404 0.0
C759 C 0.41019 0.20833 0.9321 0.0
C760 C 0.41091 0.18119 0.93823 0.0
C761 C 0.41788 0.16635 0.90704 0.0
C762 C 0.42402 0.1795 0.86848 0.0
C763 C 0.42335 0.20727 0.86142 0.0
C764 C 0.41644 0.22183 0.89389 0.0
H765 H 0.81317 0.22975 0.83549 0.0
H766 H 0.86486 0.18129 0.79635 0.0
H767 H 0.87855 0.17717 0.86782 0.0
H768 H 0.86857 0.27274 0.91645 0.0
H769 H 0.83648 0.2705 0.94865 0.0
H770 H 0.83197 0.27009 0.89469 0.0
H771 H 0.77867 0.21941 0.89975 0.0
H772 H 0.78312 0.21955 0.95367 0.0
H773 H 0.77885 0.18725 0.92456 0.0
H774 H 0.88346 0.17597 0.94676 0.0
H775 H 0.88283 0.18134 0.02103 0.0
H776 H 0.829 0.23188 1.0072 0.0
C777 C 0.82768 0.21848 0.84167 0.0
C778 C 0.83795 0.20589 0.8097 0.0
C779 C 0.85688 0.1914 0.8198 0.0
C780 C 0.8646 0.18881 0.86054 0.0
C781 C 0.85354 0.20106 0.89125 0.0
C782 C 0.8358 0.21598 0.88197 0.0
C783 C 0.82665 0.22731 0.92003 0.0
C784 C 0.84183 0.26223 0.91994 0.0
C785 C 0.78963 0.21249 0.92477 0.0
C786 C 0.84171 0.21634 0.95252 0.0
C787 C 0.85698 0.20104 0.93551 0.0
C788 C 0.87172 0.18814 0.96001 0.0
C789 C 0.87109 0.19115 1.00243 0.0
C790 C 0.85608 0.20721 0.02063 0.0
C791 C 0.84118 0.21986 0.99479 0.0
H792 H 0.8703 0.70449 1.01621 0.0
H793 H 0.89743 0.80043 0.02363 0.0
H794 H 0.88371 0.8003 0.95148 0.0
H795 H 0.90435 0.70844 0.91792 0.0
H796 H 0.87306 0.67173 0.90192 0.0
H797 H 0.8832 0.67896 0.95457 0.0
H798 H 0.82332 0.66345 0.97128 0.0
H799 H 0.81298 0.65616 0.91867 0.0
H800 H 0.80349 0.68229 0.94605 0.0
H801 H 0.86632 0.7895 0.87915 0.0
H802 H 0.85068 0.76997 0.8098 0.0
H803 H 0.83798 0.68166 0.84779 0.0
C804 C 0.87297 0.72532 1.00258 0.0
C805 C 0.88459 0.75245 0.02533 0.0
C806 C 0.88855 0.7795 1.00652 0.0
C807 C 0.88071 0.77957 0.96572 0.0
C808 C 0.86941 0.75247 0.94402 0.0
C809 C 0.86589 0.72591 0.96162 0.0
C810 C 0.85491 0.70032 0.93097 0.0
C811 C 0.88041 0.68922 0.92606 0.0
C812 C 0.8217 0.674 0.94243 0.0
C813 C 0.85265 0.71662 0.89344 0.0
C814 C 0.86076 0.74658 0.9018 0.0
C815 C 0.85998 0.7661 0.87223 0.0
C816 C 0.85089 0.75477 0.833 0.0
C817 C 0.84309 0.72432 0.8235 0.0
C818 C 0.84404 0.70507 0.85422 0.0
H819 H 0.37129 0.20864 0.37148 0.0
H820 H 0.47162 0.23434 0.3422 0.0
H821 H 0.48613 0.24468 0.41317 0.0
H822 H 0.38767 0.26377 0.4496 0.0
H823 H 0.35514 0.23851 0.48185 0.0
H824 H 0.35182 0.23305 0.42803 0.0
H825 H 0.34153 0.17752 0.43719 0.0
H826 H 0.34472 0.18278 0.49106 0.0
H827 H 0.37026 0.17022 0.46517 0.0
H828 H 0.49121 0.25422 0.48661 0.0
H829 H 0.48535 0.25932 0.55967 0.0
H830 H 0.38192 0.22512 0.5443 0.0
C831 C 0.39628 0.21626 0.37974 0.0
C832 C 0.4202 0.22099 0.35022 0.0
C833 C 0.45263 0.23102 0.3632 0.0
C834 C 0.46128 0.23686 0.40387 0.0
C835 C 0.4373 0.2323 0.43179 0.0
C836 C 0.40541 0.22195 0.42055 0.0
C837 C 0.38448 0.21863 0.4572 0.0
C838 C 0.36886 0.23975 0.45396 0.0
C839 C 0.35872 0.1853 0.46299 0.0
C840 C 0.40975 0.22893 0.49054 0.0
C841 C 0.44007 0.23688 0.47497 0.0
C842 C 0.46757 0.24795 0.49926 0.0
C843 C 0.46406 0.25096 0.54067 0.0
C844 C 0.43325 0.2427 0.5576 0.0
C845 C 0.40571 0.23136 0.53214 0.0
H846 H 0.80888 0.21579 0.35727 0.0
H847 H 0.88217 0.18657 0.34061 0.0
H848 H 0.88602 0.18279 0.41461 0.0
H849 H 0.84413 0.26185 0.44588 0.0
H850 H 0.80545 0.25144 0.46899 0.0
H851 H 0.80884 0.2518 0.4149 0.0
H852 H 0.76405 0.19565 0.41197 0.0
H853 H 0.7605 0.19516 0.46602 0.0
H854 H 0.76868 0.1673 0.44101 0.0
H855 H 0.88145 0.18259 0.49417 0.0
H856 H 0.86756 0.18458 0.56625 0.0
H857 H 0.79784 0.21412 0.5287 0.0
C858 C 0.82602 0.20882 0.36884 0.0
C859 C 0.84524 0.20155 0.34217 0.0
C860 C 0.86685 0.19206 0.35964 0.0
C861 C 0.86935 0.19 0.402 0.0
C862 C 0.85008 0.19741 0.42724 0.0
C863 C 0.82877 0.20658 0.411 0.0
C864 C 0.81032 0.21296 0.44414 0.0
C865 C 0.81763 0.2465 0.44342 0.0
C866 C 0.77373 0.19149 0.44056 0.0
C867 C 0.82438 0.20597 0.48164 0.0
C868 C 0.84741 0.19711 0.47166 0.0
C869 C 0.8634 0.18953 0.50197 0.0
C870 C 0.85544 0.19079 0.54305 0.0
C871 C 0.83154 0.19946 0.55385 0.0
C872 C 0.8162 0.20728 0.52218 0.0
H873 H 0.88221 0.75825 0.51869 0.0
H874 H 0.90757 0.68582 0.53887 0.0
H875 H 0.92199 0.68753 0.46695 0.0
H876 H 0.84618 0.73368 0.42223 0.0
H877 H 0.86149 0.77181 0.40287 0.0
H878 H 0.85417 0.76485 0.45598 0.0
H879 H 0.91378 0.8052 0.46987 0.0
H880 H 0.92103 0.81146 0.41653 0.0
H881 H 0.94629 0.80091 0.44668 0.0
H882 H 0.93185 0.6961 0.39198 0.0
H883 H 0.93498 0.70998 0.31992 0.0
H884 H 0.90344 0.77691 0.34963 0.0
C885 C 0.89123 0.74303 0.50822 0.0
C886 C 0.89378 0.72192 0.53457 0.0
C887 C 0.90507 0.70197 0.51926 0.0
C888 C 0.91355 0.70293 0.4785 0.0
C889 C 0.91066 0.724 0.45339 0.0
C890 C 0.89973 0.74366 0.46769 0.0
C891 C 0.89779 0.76348 0.43429 0.0
C892 C 0.86282 0.75809 0.42852 0.0
C893 C 0.92112 0.79726 0.44233 0.0
C894 C 0.90891 0.75162 0.39881 0.0
C895 C 0.91643 0.72899 0.41044 0.0
C896 C 0.92618 0.71391 0.38259 0.0
C897 C 0.9278 0.72187 0.34175 0.0
C898 C 0.91969 0.74466 0.32908 0.0
C899 C 0.91052 0.7599 0.35827 0.0
H900 H 0.01932 0.42069 0.947 0.0
H901 H 0.09364 0.48809 0.0233 0.0
H902 H 0.13154 0.4683 1.00235 0.0
H903 H 0.0341 0.36076 0.96995 0.0
H904 H 0.02547 0.34452 0.92004 0.0
H905 H 1.00669 0.36673 0.93737 0.0
H906 H 0.02956 0.40251 0.87568 0.0
H907 H 0.0483 0.38026 0.85794 0.0
H908 H 0.07247 0.42064 0.86574 0.0
H909 H 0.1594 0.43604 0.97595 0.0
H910 H 0.17279 0.39665 0.94843 0.0
H911 H 0.07829 0.35172 0.89164 0.0
C912 C 0.04373 0.43175 0.959 0.0
C913 C 0.05348 0.45595 0.98688 0.0
C914 C 0.0857 0.4697 1.00163 0.0
C915 C 0.10731 0.45848 0.98994 0.0
C916 C 0.09637 0.4338 0.96317 0.0
C917 C 0.06527 0.42096 0.94771 0.0
C918 C 0.05802 0.39372 0.92139 0.0
C919 C 0.0294 0.36473 0.93822 0.0
C920 C 0.05173 0.39965 0.87759 0.0
C921 C 0.08951 0.39236 0.92509 0.0
C922 C 0.11172 0.41573 0.94878 0.0
C923 C 0.14214 0.41791 0.95711 0.0
C924 C 0.14962 0.39548 0.94131 0.0
C925 C 0.12659 0.37101 0.91794 0.0
C926 C 0.09648 0.37001 0.90946 0.0
H927 H 0.58983 0.7784 0.97093 0.0
H928 H 0.59853 0.76138 0.84433 0.0
H929 H 0.5625 0.70651 0.85506 0.0
H930 H 0.59208 0.71358 1.00881 0.0
H931 H 0.56286 0.70624 0.04828 0.0
H932 H 0.58701 0.74445 0.03012 0.0
H933 H 0.53498 0.74861 1.01411 0.0
H934 H 0.51061 0.71043 0.03247 0.0
H935 H 0.50428 0.72044 0.98226 0.0
H936 H 0.52985 0.65278 0.88103 0.0
H937 H 0.50044 0.60487 0.91935 0.0
H938 H 0.51144 0.65663 0.02862 0.0
C939 C 0.58372 0.76326 0.94524 0.0
C940 C 0.59705 0.77439 0.90668 0.0
C941 C 0.58856 0.7536 0.87407 0.0
C942 C 0.56813 0.72231 0.87991 0.0
C943 C 0.55603 0.71206 0.91846 0.0
C944 C 0.5632 0.73197 0.95049 0.0
C945 C 0.54796 0.71499 0.98918 0.0
C946 C 0.57404 0.72012 0.02096 0.0
C947 C 0.52297 0.72417 1.00546 0.0
C948 C 0.53165 0.68235 0.97413 0.0
C949 C 0.53661 0.68118 0.93322 0.0
C950 C 0.52547 0.6535 0.91294 0.0
C951 C 0.50894 0.62639 0.93497 0.0
C952 C 0.50342 0.62699 0.97688 0.0
C953 C 0.51472 0.65545 0.9965 0.0
H954 H 0.26862 0.85311 0.97346 0.0
H955 H 0.28798 0.81183 0.86931 0.0
H956 H 0.34078 0.82164 0.89929 0.0
H957 H 0.34157 0.91261 0.9811 0.0
H958 H 0.34359 0.9148 0.03535 0.0
H959 H 0.30496 0.89762 1.01068 0.0
H960 H 0.28787 0.84802 0.0515 0.0
H961 H 0.32658 0.86529 0.07675 0.0
H962 H 0.31303 0.82949 0.05082 0.0
H963 H 0.39629 0.84661 0.93436 0.0
H964 H 0.44654 0.88317 0.96947 0.0
H965 H 0.3893 0.90658 0.05076 0.0
C966 C 0.28343 0.84499 0.95778 0.0
C967 C 0.27426 0.83146 0.9194 0.0
C968 C 0.29437 0.82167 0.89919 0.0
C969 C 0.32442 0.82727 0.91601 0.0
C970 C 0.33351 0.84206 0.95335 0.0
C971 C 0.31311 0.85021 0.97425 0.0
C972 C 0.32952 0.86918 1.01101 0.0
C973 C 0.32995 0.90037 1.00938 0.0
C974 C 0.31329 0.85196 0.04983 0.0
C975 C 0.3631 0.87226 1.00635 0.0
C976 C 0.365 0.85596 0.97354 0.0
C977 C 0.39479 0.85864 0.96079 0.0
C978 C 0.42325 0.87928 0.98107 0.0
C979 C 0.42159 0.89716 1.01326 0.0
C980 C 0.39106 0.89256 0.02685 0.0
H981 H 0.47619 0.05602 0.58883 0.0
H982 H 0.37584 0.99275 0.56167 0.0
H983 H 0.35849 0.02772 0.59211 0.0
H984 H 0.46063 0.07976 0.68494 0.0
H985 H 0.49061 0.11906 0.67958 0.0
H986 H 0.49598 0.0897 0.65421 0.0
H987 H 0.50121 0.11662 0.58574 0.0
H988 H 0.49617 0.14622 0.61097 0.0
H989 H 0.46967 0.1255 0.56993 0.0
H990 H 0.35104 0.06837 0.6273 0.0
H991 H 0.35485 0.11389 0.66213 0.0
H992 H 0.45949 0.15151 0.66711 0.0
C993 C 0.45067 0.04978 0.58884 0.0
C994 C 0.42745 0.02153 0.57278 0.0
C995 C 0.39419 0.01412 0.57388 0.0
C996 C 0.38398 0.03386 0.59114 0.0
C997 C 0.40722 0.06116 0.60741 0.0
C998 C 0.4399 0.06933 0.60626 0.0
C999 C 0.45961 0.09999 0.62658 0.0
C1000 C 0.47778 0.09693 0.66352 0.0
C1001 C 0.48305 0.12347 0.5965 0.0
C1002 C 0.43289 0.10758 0.63908 0.0
C1003 C 0.40286 0.08478 0.62783 0.0
C1004 C 0.37446 0.08647 0.6362 0.0
C1005 C 0.37683 0.11237 0.65615 0.0
C1006 C 0.40739 0.13634 0.66745 0.0
C1007 C 0.4357 0.13363 0.65895 0.0
H1008 H 0.8721 0.31516 0.65748 0.0
H1009 H 0.77573 0.29937 0.62387 0.0
H1010 H 0.79929 0.35002 0.59156 0.0
H1011 H 0.90575 0.3961 0.67768 0.0
H1012 H 0.94482 0.40473 0.65721 0.0
H1013 H 0.92 0.36813 0.67984 0.0
H1014 H 0.92296 0.34126 0.61413 0.0
H1015 H 0.94787 0.37769 0.59133 0.0
H1016 H 0.91085 0.35098 0.56705 0.0
H1017 H 0.83509 0.40321 0.55993 0.0
H1018 H 0.87899 0.45162 0.53254 0.0
H1019 H 0.95035 0.42993 0.58627 0.0
C1020 C 0.85582 0.32219 0.64337 0.0
C1021 C 0.82196 0.303 0.64337 0.0
C1022 C 0.8017 0.3136 0.62486 0.0
C1023 C 0.8149 0.34238 0.6062 0.0
C1024 C 0.84846 0.3605 0.60635 0.0
C1025 C 0.86855 0.35071 0.62467 0.0
C1026 C 0.9038 0.37379 0.61989 0.0
C1027 C 0.91951 0.38643 0.6611 0.0
C1028 C 0.92245 0.36011 0.59671 0.0
C1029 C 0.90057 0.39782 0.5953 0.0
C1030 C 0.86858 0.39018 0.588 0.0
C1031 C 0.86022 0.40933 0.56558 0.0
C1032 C 0.88524 0.43679 0.55013 0.0
C1033 C 0.91813 0.44452 0.55681 0.0
C1034 C 0.92552 0.4247 0.58002 0.0
H1035 H 0.75438 0.64898 0.5858 0.0
H1036 H 0.76269 0.58166 0.66094 0.0
H1037 H 0.7086 0.54259 0.63674 0.0
H1038 H 0.67351 0.62632 0.6049 0.0
H1039 H 0.66467 0.63433 0.55477 0.0
H1040 H 0.70502 0.65508 0.57465 0.0
H1041 H 0.72751 0.63869 0.51321 0.0
H1042 H 0.68711 0.61781 0.49311 0.0
H1043 H 0.71134 0.59883 0.50138 0.0
H1044 H 0.64993 0.51196 0.60704 0.0
H1045 H 0.59493 0.49486 0.57806 0.0
H1046 H 0.62781 0.58383 0.52428 0.0
C1047 C 0.74522 0.62595 0.59694 0.0
C1048 C 0.76288 0.61844 0.62535 0.0
C1049 C 0.74972 0.58795 0.63899 0.0
C1050 C 0.719 0.56564 0.62537 0.0
C1051 C 0.70195 0.57415 0.59786 0.0
C1052 C 0.71495 0.60369 0.58378 0.0
C1053 C 0.69163 0.60819 0.55652 0.0
C1054 C 0.68321 0.63239 0.57376 0.0
C1055 C 0.70521 0.61635 0.51351 0.0
C1056 C 0.66291 0.57678 0.55804 0.0
C1057 C 0.66914 0.55712 0.58148 0.0
C1058 C 0.64511 0.5272 0.58832 0.0
C1059 C 0.61397 0.51758 0.57158 0.0
C1060 C 0.60713 0.53798 0.54879 0.0
C1061 C 0.63226 0.56763 0.54143 0.0
H1062 H 0.868 0.61982 0.08803 0.0
H1063 H 0.9339 0.66843 0.18568 0.0
H1064 H 0.96612 0.64194 0.17016 0.0
H1065 H 0.86873 0.54824 0.10393 0.0
H1066 H 0.86631 0.53964 0.05087 0.0
H1067 H 0.84902 0.56269 0.07003 0.0
H1068 H 0.8836 0.60522 1.01933 0.0
H1069 H 0.90139 0.58246 1.00047 0.0
H1070 H 0.92701 0.62032 1.01921 0.0
H1071 H 0.99267 0.61073 0.14132 0.0
H1072 H 1.00627 0.57341 0.1078 0.0
H1073 H 0.92169 0.54471 0.03135 0.0
C1074 C 0.88907 0.62478 0.10641 0.0
C1075 C 0.89834 0.64629 0.13811 0.0
C1076 C 0.9261 0.65196 0.16138 0.0
C1077 C 0.94474 0.63716 0.15258 0.0
C1078 C 0.93525 0.61652 0.12059 0.0
C1079 C 0.90772 0.61002 0.09832 0.0
C1080 C 0.90203 0.58633 0.06626 0.0
C1081 C 0.86961 0.55752 0.07321 0.0
C1082 C 0.90361 0.59937 0.02381 0.0
C1083 C 0.93056 0.58041 0.07391 0.0
C1084 C 0.94981 0.59827 0.10497 0.0
C1085 C 0.97766 0.59661 0.11704 0.0
C1086 C 0.98541 0.57558 0.09763 0.0
C1087 C 0.96513 0.55624 0.06693 0.0
C1088 C 0.93772 0.5592 0.05472 0.0
H1089 H 0.41139 0.28516 0.12791 0.0
H1090 H 0.31496 0.25214 0.17787 0.0
H1091 H 0.31286 0.2977 0.15057 0.0
H1092 H 0.43984 0.36322 0.14921 0.0
H1093 H 0.46296 0.37624 0.10336 0.0
H1094 H 0.45588 0.34056 0.12532 0.0
H1095 H 0.43063 0.31279 0.05823 0.0
H1096 H 0.43772 0.34841 0.03596 0.0
H1097 H 0.39748 0.31663 0.03611 0.0
H1098 H 0.32309 0.34892 0.1192 0.0
H1099 H 0.34387 0.39949 0.08742 0.0
H1100 H 0.43331 0.39753 0.05772 0.0
C1101 C 0.38966 0.28728 0.13313 0.0
C1102 C 0.36332 0.26496 0.15524 0.0
C1103 C 0.33543 0.26883 0.16105 0.0
C1104 C 0.33407 0.29468 0.14564 0.0
C1105 C 0.36073 0.31636 0.12432 0.0
C1106 C 0.38792 0.31272 0.11798 0.0
C1107 C 0.41364 0.33926 0.09472 0.0
C1108 C 0.44492 0.35579 0.11965 0.0
C1109 C 0.42024 0.32863 0.05384 0.0
C1110 C 0.39703 0.35886 0.08938 0.0
C1111 C 0.36647 0.34528 0.1064 0.0
C1112 C 0.34691 0.35955 0.10561 0.0
C1113 C 0.35893 0.38834 0.08722 0.0
C1114 C 0.39036 0.40283 0.06983 0.0
C1115 C 0.40938 0.38751 0.07092 0.0
H1116 H 0.73446 0.14213 0.14563 0.0
H1117 H 0.77798 0.08219 0.15559 0.0
H1118 H 0.72678 0.03924 0.13015 0.0
H1119 H 0.65368 0.08843 0.1754 0.0
H1120 H 0.63537 0.1034 0.14017 0.0
H1121 H 0.67468 0.12797 0.16106 0.0
H1122 H 0.69832 0.1425 0.08891 0.0
H1123 H 0.65914 0.11792 0.06781 0.0
H1124 H 0.69364 0.11288 0.05407 0.0
H1125 H 0.66841 1.00261 0.10158 0.0
H1126 H 0.61276 0.97854 0.07231 0.0
H1127 H 0.61187 0.06517 0.08065 0.0
C1128 C 0.73342 0.11999 0.14291 0.0
C1129 C 0.76034 0.1156 0.15286 0.0
C1130 C 0.75765 0.08614 0.14836 0.0
C1131 C 0.72864 0.06163 0.13391 0.0
C1132 C 0.70263 0.06701 0.12401 0.0
C1133 C 0.70508 0.09567 0.12842 0.0
C1134 C 0.67473 0.09655 0.1147 0.0
C1135 C 0.65867 0.10455 0.14993 0.0
C1136 C 0.6819 0.11877 0.07927 0.0
C1137 C 0.65459 0.06396 0.10144 0.0
C1138 C 0.6706 0.0469 0.10719 0.0
C1139 C 0.65587 0.01595 0.09699 0.0
C1140 C 0.62425 1.00242 0.08041 0.0
C1141 C 0.60798 0.01997 0.07378 0.0
C1142 C 0.62359 0.05103 0.08476 0.0
H1143 H 0.51694 0.92877 0.41655 0.0
H1144 H 0.56089 0.95954 0.53393 0.0
H1145 H 0.60267 0.94381 0.51691 0.0
H1146 H 0.52698 0.86394 0.40888 0.0
H1147 H 0.53679 0.8678 0.35596 0.0
H1148 H 0.51201 0.88346 0.3761 0.0
H1149 H 0.55179 0.93676 0.34851 0.0
H1150 H 0.57637 0.92114 0.32744 0.0
H1151 H 0.59419 0.95325 0.36121 0.0
H1152 H 0.63532 0.91838 0.48935 0.0
H1153 H 0.66212 0.89434 0.44984 0.0
H1154 H 0.59899 0.88375 0.34849 0.0
C1155 C 0.53591 0.93293 0.43826 0.0
C1156 C 0.53594 0.9456 0.47645 0.0
C1157 C 0.56084 0.9504 0.50427 0.0
C1158 C 0.58441 0.94121 0.49496 0.0
C1159 C 0.58304 0.92783 0.45742 0.0
C1160 C 0.55993 0.92455 0.42909 0.0
C1161 C 0.56363 0.90966 0.3909 0.0
C1162 C 0.53303 0.87942 0.38249 0.0
C1163 C 0.572 0.93151 0.35489 0.0
C1164 C 0.59198 0.90434 0.40236 0.0
C1165 C 0.60262 0.91464 0.44102 0.0
C1166 C 0.62747 0.91072 0.45885 0.0
C1167 C 0.64235 0.89674 0.43627 0.0
C1168 C 0.63272 0.88717 0.39599 0.0
C1169 C 0.60703 0.89093 0.3791 0.0
H1170 H 0.06943 0.62496 0.44608 0.0
H1171 H 0.98355 0.62381 0.49719 0.0
H1172 H 1.00242 0.67688 0.47286 0.0
H1173 H 0.12411 0.6988 0.47319 0.0
H1174 H 0.14801 0.70638 0.42798 0.0
H1175 H 0.12571 0.66803 0.44624 0.0
H1176 H 0.09648 0.65092 0.37728 0.0
H1177 H 0.11881 0.68928 0.35871 0.0
H1178 H 0.07517 0.67012 0.35695 0.0
H1179 H 0.03541 0.73361 0.44599 0.0
H1180 H 0.0768 0.78423 0.4207 0.0
H1181 H 0.13872 0.74449 0.3883 0.0
C1182 C 0.05424 0.6356 0.45194 0.0
C1183 C 0.02504 0.62019 0.47373 0.0
C1184 C 1.00595 0.63508 0.48037 0.0
C1185 C 0.01658 0.66527 0.46671 0.0
C1186 C 0.04609 0.68003 0.44602 0.0
C1187 C 0.06431 0.66526 0.43846 0.0
C1188 C 0.09564 0.68564 0.41725 0.0
C1189 C 0.12508 0.68997 0.44269 0.0
C1190 C 0.09656 0.67325 0.37504 0.0
C1191 C 0.09296 0.71468 0.41474 0.0
C1192 C 0.06426 0.71136 0.43103 0.0
C1193 C 0.05776 0.73615 0.43292 0.0
C1194 C 0.08134 0.76484 0.41841 0.0
C1195 C 0.11113 0.76849 0.40258 0.0
C1196 C 0.11636 0.74275 0.4003 0.0
H1197 H 0.26284 0.36412 0.42682 0.0
H1198 H 0.3037 0.35218 0.31495 0.0
H1199 H 0.35845 0.37843 0.34474 0.0
H1200 H 0.32815 0.44006 0.44801 0.0
H1201 H 0.32628 0.43395 0.5017 0.0
H1202 H 0.29041 0.41404 0.47139 0.0
H1203 H 0.28346 0.36272 0.49944 0.0
H1204 H 0.31965 0.38246 0.52931 0.0
H1205 H 0.31615 0.35331 0.49435 0.0
H1206 H 0.4089 0.4038 0.3881 0.0
H1207 H 0.45169 0.43335 0.43786 0.0
H1208 H 0.37863 0.43143 0.5201 0.0
C1209 C 0.28333 0.36729 0.40844 0.0
C1210 C 0.27883 0.356 0.36846 0.0
C1211 C 0.30639 0.36073 0.3455 0.0
C1212 C 0.33765 0.37541 0.36229 0.0
C1213 C 0.34115 0.38564 0.40202 0.0
C1214 C 0.31481 0.38235 0.42453 0.0
C1215 C 0.32537 0.39646 0.46601 0.0
C1216 C 0.31707 0.42269 0.47212 0.0
C1217 C 0.31025 0.37229 0.49923 0.0
C1218 C 0.36171 0.40811 0.46335 0.0
C1219 C 0.37028 0.4012 0.42642 0.0
C1220 C 0.40246 0.40942 0.41707 0.0
C1221 C 0.42661 0.42596 0.44569 0.0
C1222 C 0.41855 0.43457 0.48298 0.0
C1223 C 0.38556 0.42505 0.49196 0.0
H1224 H 0.80439 0.71362 0.30159 0.0
H1225 H 0.78538 0.72127 0.17525 0.0
H1226 H 0.75072 0.74457 0.19466 0.0
H1227 H 0.72428 0.69901 0.34146 0.0
H1228 H 0.74214 0.7218 0.38574 0.0
H1229 H 0.76135 0.70185 0.36194 0.0
H1230 H 0.81457 0.75244 0.35507 0.0
H1231 H 0.79563 0.77244 0.37912 0.0
H1232 H 0.81393 0.78434 0.33014 0.0
H1233 H 0.72224 0.77192 0.22843 0.0
H1234 H 0.70436 0.80138 0.27248 0.0
H1235 H 0.74352 0.77663 0.37626 0.0
C1236 C 0.79225 0.71935 0.27789 0.0
C1237 C 0.7974 0.71518 0.23679 0.0
C1238 C 0.7816 0.72386 0.20692 0.0
C1239 C 0.76185 0.73715 0.2177 0.0
C1240 C 0.75805 0.74166 0.25852 0.0
C1241 C 0.77276 0.73286 0.28811 0.0
C1242 C 0.76735 0.74254 0.32957 0.0
C1243 C 0.7476 0.71463 0.35625 0.0
C1244 C 0.79979 0.76424 0.34964 0.0
C1245 C 0.74792 0.75883 0.31877 0.0
C1246 C 0.74235 0.75776 0.27772 0.0
C1247 C 0.72617 0.77253 0.26064 0.0
C1248 C 0.71599 0.78918 0.28597 0.0
C1249 C 0.72226 0.79126 0.32801 0.0
C1250 C 0.73797 0.77534 0.3444 0.0
H1251 H 0.32985 0.09003 0.30278 0.0
H1252 H 0.25423 0.09985 0.23907 0.0
H1253 H 0.21414 0.04809 0.26189 0.0
H1254 H 0.30426 0.0141 0.2775 0.0
H1255 H 0.31555 1.00451 0.32522 0.0
H1256 H 0.33665 0.04291 0.30678 0.0
H1257 H 0.32304 0.06252 0.37275 0.0
H1258 H 0.30183 0.02409 0.3914 0.0
H1259 H 0.28142 0.0471 0.3886 0.0
H1260 H 0.18296 0.99195 0.28941 0.0
H1261 H 0.16595 0.93981 0.31603 0.0
H1262 H 0.26348 0.96954 0.36019 0.0
C1263 C 0.3048 0.08164 0.29387 0.0
C1264 C 0.29528 0.09919 0.26909 0.0
C1265 C 0.26217 0.08699 0.25822 0.0
C1266 C 0.23923 0.05756 0.27106 0.0
C1267 C 0.24974 0.04069 0.29499 0.0
C1268 C 0.28188 0.05261 0.30631 0.0
C1269 C 0.288 0.02995 0.33024 0.0
C1270 C 0.31255 0.02243 0.30863 0.0
C1271 C 0.29923 0.04162 0.3733 0.0
C1272 C 0.25447 1.00301 0.3302 0.0
C1273 C 0.23241 0.00939 0.31017 0.0
C1274 C 0.20014 0.987 0.30542 0.0
C1275 C 0.19057 0.95745 0.3208 0.0
C1276 C 0.21331 0.95053 0.34031 0.0
C1277 C 0.2454 0.97396 0.34551 0.0
H1278 H 0.10956 0.30054 0.24516 0.0
H1279 H 0.08272 0.26002 0.36414 0.0
H1280 H 0.02622 0.22999 0.34148 0.0
H1281 H 0.0358 0.30639 0.22725 0.0
H1282 H 0.03448 0.29758 0.17435 0.0
H1283 H 0.07281 0.31603 0.20021 0.0
H1284 H 0.08554 0.27294 0.17696 0.0
H1285 H 0.04701 0.25417 0.15154 0.0
H1286 H 0.05754 0.23399 0.18887 0.0
H1287 H 0.97303 0.20175 0.30488 0.0
H1288 H 0.92522 0.18378 0.26025 0.0
H1289 H 0.98536 0.24435 0.16609 0.0
C1290 C 0.09173 0.28573 0.26668 0.0
C1291 C 0.10081 0.28278 0.30654 0.0
C1292 C 0.07658 0.26291 0.33354 0.0
C1293 C 0.04436 0.2455 0.32085 0.0
C1294 C 0.03648 0.24827 0.28111 0.0
C1295 C 0.05929 0.26833 0.25462 0.0
C1296 C 0.04418 0.26746 0.21378 0.0
C1297 C 0.04698 0.29872 0.2033 0.0
C1298 C 0.05949 0.2565 0.18085 0.0
C1299 C 0.00926 0.24402 0.22164 0.0
C1300 C 1.00552 0.23278 0.26042 0.0
C1301 C 0.97564 0.21052 0.27452 0.0
C1302 C 0.94864 0.20022 0.24879 0.0
C1303 C 0.95152 0.21254 0.20963 0.0
C1304 C 0.98241 0.23442 0.19582 0.0
H1305 H 0.28862 0.21198 0.72826 0.0
H1306 H 0.35903 0.23814 0.82497 0.0
H1307 H 0.3337 0.26613 0.85837 0.0
H1308 H 0.27895 0.28131 0.72695 0.0
H1309 H 0.2358 0.26069 0.7189 0.0
H1310 H 0.26159 0.24564 0.70003 0.0
H1311 H 0.22783 0.19536 0.73893 0.0
H1312 H 0.20188 0.2102 0.7576 0.0
H1313 H 0.22191 0.19672 0.79244 0.0
H1314 H 0.29999 0.29074 0.88214 0.0
H1315 H 0.25619 0.30391 0.89859 0.0
H1316 H 0.2053 0.25816 0.78971 0.0
C1317 C 0.29885 0.224 0.75614 0.0
C1318 C 0.32589 0.2232 0.77394 0.0
C1319 C 0.33829 0.23856 0.81092 0.0
C1320 C 0.32422 0.25468 0.82996 0.0
C1321 C 0.29742 0.25493 0.81195 0.0
C1322 C 0.28454 0.23963 0.77615 0.0
C1323 C 0.25374 0.24104 0.76529 0.0
C1324 C 0.25778 0.2582 0.72542 0.0
C1325 C 0.22463 0.20892 0.76348 0.0
C1326 C 0.25116 0.25909 0.80073 0.0
C1327 C 0.27697 0.26756 0.82684 0.0
C1328 C 0.27965 0.28425 0.86187 0.0
C1329 C 0.25483 0.29179 0.87092 0.0
C1330 C 0.22748 0.28199 0.8455 0.0
C1331 C 0.22599 0.26588 0.80973 0.0
H1332 H 0.75269 0.06001 0.69056 0.0
H1333 H 0.71288 0.0972 0.77885 0.0
H1334 H 0.69172 0.04909 0.81818 0.0
H1335 H 0.68992 0.9813 0.69426 0.0
H1336 H 0.71798 0.96603 0.69013 0.0
H1337 H 0.72769 1.00234 0.66787 0.0
H1338 H 0.78141 0.02756 0.70835 0.0
H1339 H 0.77194 0.99129 0.73041 0.0
H1340 H 0.78035 0.02347 0.7624 0.0
H1341 H 0.67374 0.99555 0.84665 0.0
H1342 H 0.66782 0.94509 0.86702 0.0
H1343 H 0.72418 0.94556 0.76319 0.0
C1344 C 0.73932 0.05777 0.71809 0.0
C1345 C 0.73395 0.08191 0.73172 0.0
C1346 C 0.71697 0.07873 0.76812 0.0
C1347 C 0.7048 0.05149 0.79038 0.0
C1348 C 0.71032 0.02789 0.77606 0.0
C1349 C 0.72772 0.03104 0.74106 0.0
C1350 C 0.73248 1.00332 0.73363 0.0
C1351 C 0.71603 0.98731 0.69413 0.0
C1352 C 0.76869 0.01193 0.73373 0.0
C1353 C 0.7152 0.98409 0.76994 0.0
C1354 C 0.7019 0.99826 0.79363 0.0
C1355 C 0.68423 0.98439 0.82838 0.0
C1356 C 0.68078 0.95569 0.83962 0.0
C1357 C 0.69557 0.94161 0.81668 0.0
C1358 C 0.71271 0.95595 0.78129 0.0
H1359 H 0.08018 0.80024 0.8174 0.0
H1360 H 0.11124 0.73301 0.78824 0.0
H1361 H 0.05555 0.69805 0.76351 0.0
H1362 H 0.99836 0.74655 0.85085 0.0
H1363 H 0.9816 0.76971 0.83034 0.0
H1364 H 0.0228 0.7873 0.84832 0.0
H1365 H 0.04273 0.81328 0.77882 0.0
H1366 H 1.00172 0.7958 0.76067 0.0
H1367 H 0.03205 0.79018 0.73388 0.0
H1368 H 0.99558 0.67265 0.73589 0.0
H1369 H 0.94061 0.66057 0.71056 0.0
H1370 H 0.952 0.74538 0.76126 0.0
C1371 C 0.07534 0.77804 0.80616 0.0
C1372 C 0.10006 0.7694 0.8044 0.0
C1373 C 0.09256 0.74003 0.78991 0.0
C1374 C 0.06102 0.7201 0.7758 0.0
C1375 C 0.03728 0.72977 0.77724 0.0
C1376 C 0.04428 0.75803 0.79267 0.0
C1377 C 0.01561 0.76413 0.79012 0.0
C1378 C 1.00391 0.76709 0.83242 0.0
C1379 C 0.02351 0.79251 0.76433 0.0
C1380 C 0.99143 0.73539 0.76946 0.0
C1381 C 1.00386 0.71548 0.76243 0.0
C1382 C 0.98567 0.68805 0.74178 0.0
C1383 C 0.95445 0.68129 0.72757 0.0
C1384 C 0.94202 0.70206 0.73379 0.0
C1385 C 0.96071 0.729 0.75577 0.0
loop_
_geom_bond_atom_site_label_1
_geom_bond_atom_site_label_2
_geom_bond_distance
_geom_bond_site_symmetry_2
_ccdc_geom_bond_type
Cu0 N1 1.999 1_554 S
Cu0 O6 1.974 1_554 S
Cu0 N11 1.985 . S
Cu0 O20 1.959 . S
N1 Cu0 1.999 1_556 S
N1 C3 1.263 . S
N1 C5 1.389 . S
N2 C3 1.358 . S
N2 C4 1.400 . S
C3 N1 1.263 . S
C3 N2 1.358 . S
C3 H9 0.930 . S
C4 N2 1.400 . S
C4 C5 1.351 . S
C4 H21 0.930 . S
C5 N1 1.389 . S
C5 C4 1.351 . S
C5 H10 0.930 . S
O6 Cu0 1.974 1_556 S
O6 C16 1.282 . S
C7 O8 1.261 . S
C7 O20 1.251 1_655 S
O8 C7 1.261 . S
H9 C3 0.930 . S
H10 C5 0.930 . S
N11 Cu0 1.985 . S
N11 C13 1.335 . S
N11 C14 1.390 . S
N12 C13 1.345 . S
N12 C15 1.336 . S
C13 N11 1.335 . S
C13 N12 1.345 . S
C13 H18 0.930 . S
C14 N11 1.390 . S
C14 C15 1.346 . S
C14 H19 0.930 . S
C15 N12 1.336 . S
C15 C14 1.346 . S
C15 H22 0.929 . S
C16 O6 1.282 . S
C16 O17 1.216 . S
O17 C16 1.216 . S
H18 C13 0.930 . S
H19 C14 0.930 . S
O20 Cu0 1.959 . S
O20 C7 1.251 1_455 S
H21 C4 0.930 . S
H22 C15 0.929 . S
Cu23 N24 1.999 . S
Cu23 O29 1.974 . S
Cu23 N34 1.985 . S
Cu23 O43 1.959 1_554 S
N24 Cu23 1.999 . S
N24 C26 1.263 . S
N24 C28 1.389 1_554 S
N25 C26 1.358 . S
N25 C27 1.400 . S
C26 N24 1.263 . S
C26 N25 1.358 . S
C26 H32 0.930 . S
C27 N25 1.400 . S
C27 C28 1.351 1_554 S
C27 H44 0.930 1_554 S
C28 N24 1.389 1_556 S
C28 C27 1.351 1_556 S
C28 H33 0.930 . S
O29 Cu23 1.974 . S
O29 C39 1.282 . S
C30 O31 1.261 . S
C30 O43 1.251 . S
O31 C30 1.261 . S
H32 C26 0.930 . S
H33 C28 0.930 . S
N34 Cu23 1.985 . S
N34 C36 1.335 1_554 S
N34 C37 1.390 . S
N35 C36 1.345 . S
N35 C38 1.336 1_556 S
C36 N34 1.335 1_556 S
C36 N35 1.345 . S
C36 H41 0.930 . S
C37 N34 1.390 . S
C37 C38 1.346 . S
C37 H42 0.930 . S
C38 N35 1.336 1_554 S
C38 C37 1.346 . S
C38 H45 0.929 . S
C39 O29 1.282 . S
C39 O40 1.216 . S
O40 C39 1.216 . S
H41 C36 0.930 . S
H42 C37 0.930 . S
O43 Cu23 1.959 1_556 S
O43 C30 1.251 . S
H44 C27 0.930 1_556 S
H45 C38 0.929 . S
Cu46 N47 1.999 1_554 S
Cu46 O52 1.974 1_544 S
Cu46 N57 1.985 . S
Cu46 O66 1.959 . S
N47 Cu46 1.999 1_556 S
N47 C49 1.263 . S
N47 C51 1.389 . S
N48 C49 1.358 . S
N48 C50 1.400 . S
C49 N47 1.263 . S
C49 N48 1.358 . S
C49 H55 0.930 . S
C50 N48 1.400 . S
C50 C51 1.351 . S
C50 H67 0.930 . S
C51 N47 1.389 . S
C51 C50 1.351 . S
C51 H56 0.930 . S
O52 Cu46 1.974 1_566 S
O52 C62 1.282 . S
C53 O54 1.261 . S
C53 O66 1.251 . S
O54 C53 1.261 . S
H55 C49 0.930 . S
H56 C51 0.930 . S
N57 Cu46 1.985 . S
N57 C59 1.335 . S
N57 C60 1.390 1_545 S
N58 C59 1.345 . S
N58 C61 1.336 1_545 S
C59 N57 1.335 . S
C59 N58 1.345 . S
C59 H64 0.930 . S
C60 N57 1.390 1_565 S
C60 C61 1.346 . S
C60 H65 0.930 . S
C61 N58 1.336 1_565 S
C61 C60 1.346 . S
C61 H68 0.929 . S
C62 O52 1.282 . S
C62 O63 1.216 1_565 S
O63 C62 1.216 1_545 S
H64 C59 0.930 . S
H65 C60 0.930 . S
O66 Cu46 1.959 . S
O66 C53 1.251 . S
H67 C50 0.930 . S
H68 C61 0.929 . S
Cu69 N70 1.999 . S
Cu69 O75 1.974 . S
Cu69 N80 1.985 . S
Cu69 O89 1.959 . S
N70 Cu69 1.999 . S
N70 C72 1.263 . S
N70 C74 1.389 . S
N71 C72 1.358 . S
N71 C73 1.400 . S
C72 N70 1.263 . S
C72 N71 1.358 . S
C72 H78 0.941 . S
C73 N71 1.400 . S
C73 C74 1.351 . S
C73 H90 0.930 . S
C74 N70 1.389 . S
C74 C73 1.351 . S
C74 H79 0.930 . S
O75 Cu69 1.974 . S
O75 C85 1.282 1_545 S
C76 O77 1.261 . S
C76 O89 1.251 . S
O77 C76 1.261 . S
H78 C72 0.941 . S
H79 C74 0.930 . S
N80 Cu69 1.985 . S
N80 C82 1.335 . S
N80 C83 1.390 1_545 S
N81 C82 1.345 . S
N81 C84 1.336 1_545 S
C82 N80 1.335 . S
C82 N81 1.345 . S
C82 H87 0.930 . S
C83 N80 1.390 1_565 S
C83 C84 1.346 . S
C83 H88 0.930 . S
C84 N81 1.336 1_565 S
C84 C83 1.346 . S
C84 H91 0.929 . S
C85 O75 1.282 1_565 S
C85 O86 1.216 . S
O86 C85 1.216 . S
H87 C82 0.930 . S
H88 C83 0.930 . S
O89 Cu69 1.959 . S
O89 C76 1.251 . S
H90 C73 0.930 . S
H91 C84 0.929 . S
Cu92 N93 1.999 . S
Cu92 O98 1.974 . S
Cu92 N103 1.985 . S
Cu92 O112 1.959 1_655 S
N93 Cu92 1.999 . S
N93 C95 1.272 . S
N93 C97 1.389 . S
N94 C95 1.358 . S
N94 C96 1.412 . S
C95 N93 1.272 . S
C95 N94 1.358 . S
C95 H101 0.917 1_655 S
C96 N94 1.412 . S
C96 C97 1.351 . S
C96 H113 0.930 . S
C97 N93 1.389 . S
C97 C96 1.351 . S
C97 H102 0.930 . S
O98 Cu92 1.974 . S
O98 C108 1.282 . S
C99 O100 1.261 . S
C99 O112 1.251 . S
O100 C99 1.261 . S
H101 C95 0.917 1_455 S
H102 C97 0.930 . S
N103 Cu92 1.985 . S
N103 C105 1.335 . S
N103 C106 1.390 . S
N104 C105 1.345 . S
N104 C107 1.336 . S
C105 N103 1.335 . S
C105 N104 1.345 . S
C105 H110 0.930 . S
C106 N103 1.390 . S
C106 C107 1.346 . S
C106 H111 0.930 . S
C107 N104 1.336 . S
C107 C106 1.346 . S
C107 H114 0.929 . S
C108 O98 1.282 . S
C108 O109 1.216 1_655 S
O109 C108 1.216 1_455 S
H110 C105 0.930 . S
H111 C106 0.930 . S
O112 Cu92 1.959 1_455 S
O112 C99 1.251 . S
H113 C96 0.930 . S
H114 C107 0.929 . S
Cu115 N116 1.999 . S
Cu115 O121 1.974 . S
Cu115 N126 1.985 . S
Cu115 O135 1.959 . S
N116 Cu115 1.999 . S
N116 C118 1.263 . S
N116 C120 1.389 . S
N117 C118 1.358 . S
N117 C119 1.400 . S
C118 N116 1.263 . S
C118 N117 1.358 . S
C118 H124 0.930 . S
C119 N117 1.400 . S
C119 C120 1.351 . S
C119 H136 0.930 . S
C120 N116 1.389 . S
C120 C119 1.351 . S
C120 H125 0.930 . S
O121 Cu115 1.974 . S
O121 C131 1.282 . S
C122 O123 1.261 . S
C122 O135 1.251 . S
O123 C122 1.261 . S
H124 C118 0.930 . S
H125 C120 0.930 . S
N126 Cu115 1.985 . S
N126 C128 1.335 . S
N126 C129 1.390 . S
N127 C128 1.345 . S
N127 C130 1.336 . S
C128 N126 1.335 . S
C128 N127 1.345 . S
C128 H133 0.930 . S
C129 N126 1.390 . S
C129 C130 1.346 . S
C129 H134 0.930 . S
C130 N127 1.336 . S
C130 C129 1.346 . S
C130 H137 0.929 . S
C131 O121 1.282 . S
C131 O132 1.216 . S
O132 C131 1.216 . S
H133 C128 0.930 . S
H134 C129 0.930 . S
O135 Cu115 1.959 . S
O135 C122 1.251 . S
H136 C119 0.930 . S
H137 C130 0.929 . S
Cu138 N139 1.999 . S
Cu138 O144 1.974 . S
Cu138 N149 1.985 . S
Cu138 O158 1.959 . S
N139 Cu138 1.999 . S
N139 C141 1.263 . S
N139 C143 1.389 . S
N140 C141 1.358 . S
N140 C142 1.400 . S
C141 N139 1.263 . S
C141 N140 1.358 . S
C141 H147 0.930 . S
C142 N140 1.400 . S
C142 C143 1.351 . S
C142 H159 0.930 . S
C143 N139 1.389 . S
C143 C142 1.351 . S
C143 H148 0.930 . S
O144 Cu138 1.974 . S
O144 C154 1.282 . S
C145 O146 1.261 . S
C145 O158 1.251 . S
O146 C145 1.261 . S
H147 C141 0.930 . S
H148 C143 0.930 . S
N149 Cu138 1.985 . S
N149 C151 1.335 . S
N149 C152 1.390 . S
N150 C151 1.345 . S
N150 C153 1.336 . S
C151 N149 1.335 . S
C151 N150 1.345 . S
C151 H156 0.930 . S
C152 N149 1.390 . S
C152 C153 1.346 . S
C152 H157 0.930 . S
C153 N150 1.336 . S
C153 C152 1.346 . S
C153 H160 0.929 . S
C154 O144 1.282 . S
C154 O155 1.216 . S
O155 C154 1.216 . S
H156 C151 0.930 . S
H157 C152 0.930 . S
O158 Cu138 1.959 . S
O158 C145 1.251 . S
H159 C142 0.930 . S
H160 C153 0.929 . S
Cu161 N162 1.999 . S
Cu161 O167 1.974 . S
Cu161 N172 1.985 . S
Cu161 O181 1.959 . S
N162 Cu161 1.999 . S
N162 C164 1.263 . S
N162 C166 1.389 . S
N163 C164 1.358 . S
N163 C165 1.400 . S
C164 N162 1.263 . S
C164 N163 1.358 . S
C164 H170 0.930 . S
C165 N163 1.400 . S
C165 C166 1.351 . S
C165 H182 0.930 . S
C166 N162 1.389 . S
C166 C165 1.351 . S
C166 H171 0.930 . S
O167 Cu161 1.974 . S
O167 C177 1.282 . S
C168 O169 1.261 . S
C168 O181 1.251 . S
O169 C168 1.261 . S
H170 C164 0.930 . S
H171 C166 0.930 . S
N172 Cu161 1.985 . S
N172 C174 1.335 . S
N172 C175 1.390 . S
N173 C174 1.345 . S
N173 C176 1.336 . S
C174 N172 1.335 . S
C174 N173 1.345 . S
C174 H179 0.930 . S
C175 N172 1.390 . S
C175 C176 1.346 . S
C175 H180 0.930 . S
C176 N173 1.336 . S
C176 C175 1.346 . S
C176 H183 0.929 . S
C177 O167 1.282 . S
C177 O178 1.216 . S
O178 C177 1.216 . S
H179 C174 0.930 . S
H180 C175 0.930 . S
O181 Cu161 1.959 . S
O181 C168 1.251 . S
H182 C165 0.930 . S
H183 C176 0.929 . S
Cu184 N185 1.999 . S
Cu184 O190 1.974 . S
Cu184 N195 1.985 . S
Cu184 O204 1.959 . S
N185 Cu184 1.999 . S
N185 C187 1.263 . S
N185 C189 1.389 . S
N186 C187 1.358 . S
N186 C188 1.400 . S
C187 N185 1.263 . S
C187 N186 1.358 . S
C187 H193 0.930 . S
C188 N186 1.400 . S
C188 C189 1.351 . S
C188 H205 0.930 . S
C189 N185 1.389 . S
C189 C188 1.351 . S
C189 H194 0.930 . S
O190 Cu184 1.974 . S
O190 C200 1.282 . S
C191 O192 1.261 . S
C191 O204 1.251 . S
O192 C191 1.261 . S
H193 C187 0.930 . S
H194 C189 0.930 . S
N195 Cu184 1.985 . S
N195 C197 1.335 . S
N195 C198 1.390 . S
N196 C197 1.345 . S
N196 C199 1.336 . S
C197 N195 1.335 . S
C197 N196 1.345 . S
C197 H202 0.930 . S
C198 N195 1.390 . S
C198 C199 1.346 . S
C198 H203 0.930 . S
C199 N196 1.336 . S
C199 C198 1.346 . S
C199 H206 0.929 . S
C200 O190 1.282 . S
C200 O201 1.216 . S
O201 C200 1.216 . S
H202 C197 0.930 . S
H203 C198 0.930 . S
O204 Cu184 1.959 . S
O204 C191 1.251 . S
H205 C188 0.930 . S
H206 C199 0.929 . S
Cu207 N208 1.999 . S
Cu207 O213 1.974 . S
Cu207 N218 1.985 . S
Cu207 O227 1.959 . S
N208 Cu207 1.999 . S
N208 C210 1.263 . S
N208 C212 1.389 . S
N209 C210 1.358 . S
N209 C211 1.400 . S
C210 N208 1.263 . S
C210 N209 1.358 . S
C210 H216 0.930 . S
C211 N209 1.400 . S
C211 C212 1.351 . S
C211 H228 0.930 . S
C212 N208 1.389 . S
C212 C211 1.351 . S
C212 H217 0.930 . S
O213 Cu207 1.974 . S
O213 C223 1.282 . S
C214 O215 1.261 . S
C214 O227 1.251 . S
O215 C214 1.261 . S
H216 C210 0.930 . S
H217 C212 0.930 . S
N218 Cu207 1.985 . S
N218 C220 1.335 . S
N218 C221 1.390 . S
N219 C220 1.345 . S
N219 C222 1.336 . S
C220 N218 1.335 . S
C220 N219 1.345 . S
C220 H225 0.930 . S
C221 N218 1.390 . S
C221 C222 1.346 . S
C221 H226 0.930 . S
C222 N219 1.336 . S
C222 C221 1.346 . S
C222 H229 0.929 . S
C223 O213 1.282 . S
C223 O224 1.216 . S
O224 C223 1.216 . S
H225 C220 0.930 . S
H226 C221 0.930 . S
O227 Cu207 1.959 . S
O227 C214 1.251 . S
H228 C211 0.930 . S
H229 C222 0.929 . S
Cu230 N231 1.999 . S
Cu230 O236 1.974 . S
Cu230 N241 1.985 . S
Cu230 O250 1.959 . S
N231 Cu230 1.999 . S
N231 C233 1.263 . S
N231 C235 1.389 . S
N232 C233 1.358 . S
N232 C234 1.400 . S
C233 N231 1.263 . S
C233 N232 1.358 . S
C233 H239 0.930 . S
C234 N232 1.400 . S
C234 C235 1.351 . S
C234 H251 0.930 . S
C235 N231 1.389 . S
C235 C234 1.351 . S
C235 H240 0.930 . S
O236 Cu230 1.974 . S
O236 C246 1.282 . S
C237 O238 1.261 . S
C237 O250 1.251 . S
O238 C237 1.261 . S
H239 C233 0.930 . S
H240 C235 0.930 . S
N241 Cu230 1.985 . S
N241 C243 1.335 . S
N241 C244 1.390 . S
N242 C243 1.345 . S
N242 C245 1.336 . S
C243 N241 1.335 . S
C243 N242 1.345 . S
C243 H248 0.930 . S
C244 N241 1.390 . S
C244 C245 1.346 . S
C244 H249 0.930 . S
C245 N242 1.336 . S
C245 C244 1.346 . S
C245 H252 0.929 . S
C246 O236 1.282 . S
C246 O247 1.216 . S
O247 C246 1.216 . S
H248 C243 0.930 . S
H249 C244 0.930 . S
O250 Cu230 1.959 . S
O250 C237 1.251 . S
H251 C234 0.930 . S
H252 C245 0.929 . S
Cu253 N254 1.999 . S
Cu253 O259 1.974 . S
Cu253 N264 1.985 . S
Cu253 O273 1.959 . S
N254 Cu253 1.999 . S
N254 C256 1.263 . S
N254 C258 1.389 . S
N255 C256 1.358 . S
N255 C257 1.400 . S
C256 N254 1.263 . S
C256 N255 1.358 . S
C256 H262 0.930 . S
C257 N255 1.400 . S
C257 C258 1.351 . S
C257 H274 0.930 . S
C258 N254 1.389 . S
C258 C257 1.351 . S
C258 H263 0.930 . S
O259 Cu253 1.974 . S
O259 C269 1.282 . S
C260 O261 1.261 . S
C260 O273 1.251 . S
O261 C260 1.261 . S
H262 C256 0.930 . S
H263 C258 0.930 . S
N264 Cu253 1.985 . S
N264 C266 1.335 . S
N264 C267 1.390 . S
N265 C266 1.345 . S
N265 C268 1.336 . S
C266 N264 1.335 . S
C266 N265 1.345 . S
C266 H271 0.930 . S
C267 N264 1.390 . S
C267 C268 1.346 . S
C267 H272 0.930 . S
C268 N265 1.336 . S
C268 C267 1.346 . S
C268 H275 0.929 . S
C269 O259 1.282 . S
C269 O270 1.216 . S
O270 C269 1.216 . S
H271 C266 0.930 . S
H272 C267 0.930 . S
O273 Cu253 1.959 . S
O273 C260 1.251 . S
H274 C257 0.930 . S
H275 C268 0.929 . S
Cu276 N277 1.999 . S
Cu276 O282 1.974 . S
Cu276 N287 1.985 . S
Cu276 O296 1.959 . S
N277 Cu276 1.999 . S
N277 C279 1.263 . S
N277 C281 1.389 . S
N278 C279 1.358 . S
N278 C280 1.400 . S
C279 N277 1.263 . S
C279 N278 1.358 . S
C279 H285 0.930 . S
C280 N278 1.400 . S
C280 C281 1.351 . S
C280 H297 0.930 . S
C281 N277 1.389 . S
C281 C280 1.351 . S
C281 H286 0.930 . S
O282 Cu276 1.974 . S
O282 C292 1.282 . S
C283 O284 1.261 . S
C283 O296 1.251 . S
O284 C283 1.261 . S
H285 C279 0.930 . S
H286 C281 0.930 . S
N287 Cu276 1.985 . S
N287 C289 1.335 . S
N287 C290 1.390 . S
N288 C289 1.345 . S
N288 C291 1.336 . S
C289 N287 1.335 . S
C289 N288 1.345 . S
C289 H294 0.930 . S
C290 N287 1.390 . S
C290 C291 1.346 . S
C290 H295 0.930 . S
C291 N288 1.336 . S
C291 C290 1.346 . S
C291 H298 0.929 . S
C292 O282 1.282 . S
C292 O293 1.216 . S
O293 C292 1.216 . S
H294 C289 0.930 . S
H295 C290 0.930 . S
O296 Cu276 1.959 . S
O296 C283 1.251 . S
H297 C280 0.930 . S
H298 C291 0.929 . S
Cu299 N300 1.999 . S
Cu299 O305 1.974 . S
Cu299 N310 1.985 . S
Cu299 O319 1.959 . S
N300 Cu299 1.999 . S
N300 C302 1.263 . S
N300 C304 1.389 . S
N301 C302 1.358 . S
N301 C303 1.400 . S
C302 N300 1.263 . S
C302 N301 1.358 . S
C302 H308 0.930 . S
C303 N301 1.400 . S
C303 C304 1.351 . S
C303 H320 0.930 . S
C304 N300 1.389 . S
C304 C303 1.351 . S
C304 H309 0.930 . S
O305 Cu299 1.974 . S
O305 C315 1.282 . S
C306 O307 1.261 . S
C306 O319 1.251 . S
O307 C306 1.261 . S
H308 C302 0.930 . S
H309 C304 0.930 . S
N310 Cu299 1.985 . S
N310 C312 1.335 . S
N310 C313 1.390 . S
N311 C312 1.345 . S
N311 C314 1.336 . S
C312 N310 1.335 . S
C312 N311 1.345 . S
C312 H317 0.930 . S
C313 N310 1.390 . S
C313 C314 1.346 . S
C313 H318 0.930 . S
C314 N311 1.336 . S
C314 C313 1.346 . S
C314 H321 0.929 . S
C315 O305 1.282 . S
C315 O316 1.216 . S
O316 C315 1.216 . S
H317 C312 0.930 . S
H318 C313 0.930 . S
O319 Cu299 1.959 . S
O319 C306 1.251 . S
H320 C303 0.930 . S
H321 C314 0.929 . S
Cu322 N323 1.999 . S
Cu322 O328 1.974 . S
Cu322 N333 1.985 . S
Cu322 O342 1.959 . S
N323 Cu322 1.999 . S
N323 C325 1.263 . S
N323 C327 1.389 . S
N324 C325 1.358 . S
N324 C326 1.400 . S
C325 N323 1.263 . S
C325 N324 1.358 . S
C325 H331 0.930 . S
C326 N324 1.400 . S
C326 C327 1.351 . S
C326 H343 0.930 . S
C327 N323 1.389 . S
C327 C326 1.351 . S
C327 H332 0.930 . S
O328 Cu322 1.974 . S
O328 C338 1.282 . S
C329 O330 1.261 . S
C329 O342 1.251 . S
O330 C329 1.261 . S
H331 C325 0.930 . S
H332 C327 0.930 . S
N333 Cu322 1.985 . S
N333 C335 1.335 . S
N333 C336 1.390 . S
N334 C335 1.345 . S
N334 C337 1.336 . S
C335 N333 1.335 . S
C335 N334 1.345 . S
C335 H340 0.930 . S
C336 N333 1.390 . S
C336 C337 1.346 . S
C336 H341 0.930 . S
C337 N334 1.336 . S
C337 C336 1.346 . S
C337 H344 0.929 . S
C338 O328 1.282 . S
C338 O339 1.216 . S
O339 C338 1.216 . S
H340 C335 0.930 . S
H341 C336 0.930 . S
O342 Cu322 1.959 . S
O342 C329 1.251 . S
H343 C326 0.930 . S
H344 C337 0.929 . S
Cu345 N346 1.999 . S
Cu345 O351 1.974 . S
Cu345 N356 1.985 . S
Cu345 O365 1.959 . S
N346 Cu345 1.999 . S
N346 C348 1.263 . S
N346 C350 1.389 . S
N347 C348 1.358 . S
N347 C349 1.400 . S
C348 N346 1.263 . S
C348 N347 1.358 . S
C348 H354 0.930 . S
C349 N347 1.400 . S
C349 C350 1.351 . S
C349 H366 0.930 . S
C350 N346 1.389 . S
C350 C349 1.351 . S
C350 H355 0.930 . S
O351 Cu345 1.974 . S
O351 C361 1.282 . S
C352 O353 1.261 . S
C352 O365 1.251 . S
O353 C352 1.261 . S
H354 C348 0.930 . S
H355 C350 0.930 . S
N356 Cu345 1.985 . S
N356 C358 1.335 . S
N356 C359 1.390 . S
N357 C358 1.345 . S
N357 C360 1.336 . S
C358 N356 1.335 . S
C358 N357 1.345 . S
C358 H363 0.930 . S
C359 N356 1.390 . S
C359 C360 1.346 . S
C359 H364 0.930 . S
C360 N357 1.336 . S
C360 C359 1.346 . S
C360 H367 0.929 . S
C361 O351 1.282 . S
C361 O362 1.216 . S
O362 C361 1.216 . S
H363 C358 0.930 . S
H364 C359 0.930 . S
O365 Cu345 1.959 . S
O365 C352 1.251 . S
H366 C349 0.930 . S
H367 C360 0.929 . S
Cu368 N369 1.999 . S
Cu368 O374 1.974 . S
Cu368 N379 1.985 . S
Cu368 O388 1.959 . S
N369 Cu368 1.999 . S
N369 C371 1.263 . S
N369 C373 1.389 . S
N370 C371 1.358 . S
N370 C372 1.400 . S
C371 N369 1.263 . S
C371 N370 1.358 . S
C371 H377 0.930 . S
C372 N370 1.400 . S
C372 C373 1.351 . S
C372 H389 0.930 . S
C373 N369 1.389 . S
C373 C372 1.351 . S
C373 H378 0.930 . S
O374 Cu368 1.974 . S
O374 C384 1.282 . S
C375 O376 1.261 . S
C375 O388 1.251 . S
O376 C375 1.261 . S
H377 C371 0.930 . S
H378 C373 0.930 . S
N379 Cu368 1.985 . S
N379 C381 1.335 . S
N379 C382 1.390 . S
N380 C381 1.345 . S
N380 C383 1.336 . S
C381 N379 1.335 . S
C381 N380 1.345 . S
C381 H386 0.930 . S
C382 N379 1.390 . S
C382 C383 1.346 . S
C382 H387 0.930 . S
C383 N380 1.336 . S
C383 C382 1.346 . S
C383 H390 0.929 . S
C384 O374 1.282 . S
C384 O385 1.216 . S
O385 C384 1.216 . S
H386 C381 0.930 . S
H387 C382 0.930 . S
O388 Cu368 1.959 . S
O388 C375 1.251 . S
H389 C372 0.930 . S
H390 C383 0.929 . S
Cu391 N392 1.999 . S
Cu391 O397 1.974 . S
Cu391 N402 1.985 . S
Cu391 O411 1.959 . S
N392 Cu391 1.999 . S
N392 C394 1.263 . S
N392 C396 1.389 . S
N393 C394 1.358 . S
N393 C395 1.400 . S
C394 N392 1.263 . S
C394 N393 1.358 . S
C394 H400 0.930 . S
C395 N393 1.400 . S
C395 C396 1.351 . S
C395 H412 0.930 . S
C396 N392 1.389 . S
C396 C395 1.351 . S
C396 H401 0.930 . S
O397 Cu391 1.974 . S
O397 C407 1.282 . S
C398 O399 1.261 . S
C398 O411 1.251 . S
O399 C398 1.261 . S
H400 C394 0.930 . S
H401 C396 0.930 . S
N402 Cu391 1.985 . S
N402 C404 1.335 . S
N402 C405 1.390 . S
N403 C404 1.345 . S
N403 C406 1.336 . S
C404 N402 1.335 . S
C404 N403 1.345 . S
C404 H409 0.930 . S
C405 N402 1.390 . S
C405 C406 1.346 . S
C405 H410 0.930 . S
C406 N403 1.336 . S
C406 C405 1.346 . S
C406 H413 0.929 . S
C407 O397 1.282 . S
C407 O408 1.216 . S
O408 C407 1.216 . S
H409 C404 0.930 . S
H410 C405 0.930 . S
O411 Cu391 1.959 . S
O411 C398 1.251 . S
H412 C395 0.930 . S
H413 C406 0.929 . S
H414 C426 0.930 . S
H415 C428 0.932 1_655 S
H416 C429 0.930 . S
H417 C433 0.959 . S
H418 C433 0.959 1_455 S
H419 C433 0.961 . S
H420 C434 0.960 . S
H421 C434 0.961 . S
H422 C434 0.959 . S
H423 C437 0.929 . S
H424 C438 0.931 . S
H425 C440 0.930 . S
C426 H414 0.930 . S
C426 C427 1.399 1_455 S
C426 C431 1.399 . S
C427 C426 1.399 1_655 S
C427 C428 1.372 1_655 S
C428 H415 0.932 1_455 S
C428 C427 1.372 1_455 S
C428 C429 1.391 . S
C429 H416 0.930 . S
C429 C428 1.391 . S
C429 C430 1.390 . S
C430 C429 1.390 . S
C430 C431 1.394 . S
C430 C436 1.465 . S
C431 C426 1.399 . S
C431 C430 1.394 . S
C431 C432 1.516 . S
C432 C431 1.516 . S
C432 C433 1.502 1_455 S
C432 C434 1.561 . S
C432 C435 1.526 . S
C433 H417 0.959 . S
C433 H418 0.959 1_655 S
C433 H419 0.961 . S
C433 C432 1.502 1_655 S
C434 H420 0.960 . S
C434 H421 0.961 . S
C434 H422 0.959 . S
C434 C432 1.561 . S
C435 C432 1.526 . S
C435 C436 1.396 . S
C435 C440 1.390 . S
C436 C430 1.465 . S
C436 C435 1.396 . S
C436 C437 1.399 . S
C437 H423 0.929 . S
C437 C436 1.399 . S
C437 C438 1.385 . S
C438 H424 0.931 . S
C438 C437 1.385 . S
C438 C439 1.389 . S
C439 C438 1.389 . S
C439 C440 1.387 . S
C440 H425 0.930 . S
C440 C435 1.390 . S
C440 C439 1.387 . S
H441 C453 0.930 . S
H442 C455 0.930 . S
H443 C456 0.930 . S
H444 C460 0.959 . S
H445 C460 0.959 . S
H446 C460 0.961 . S
H447 C461 0.960 . S
H448 C461 0.961 . S
H449 C461 0.959 . S
H450 C464 0.929 . S
H451 C465 0.931 . S
H452 C467 0.930 . S
C453 H441 0.930 . S
C453 C454 1.399 . S
C453 C458 1.399 . S
C454 C453 1.399 . S
C454 C455 1.376 . S
C455 H442 0.930 . S
C455 C454 1.376 . S
C455 C456 1.388 . S
C456 H443 0.930 . S
C456 C455 1.388 . S
C456 C457 1.390 . S
C457 C456 1.390 . S
C457 C458 1.394 . S
C457 C463 1.465 . S
C458 C453 1.399 . S
C458 C457 1.394 . S
C458 C459 1.516 . S
C459 C458 1.516 . S
C459 C460 1.502 . S
C459 C461 1.561 . S
C459 C462 1.526 . S
C460 H444 0.959 . S
C460 H445 0.959 . S
C460 H446 0.961 . S
C460 C459 1.502 . S
C461 H447 0.960 . S
C461 H448 0.961 . S
C461 H449 0.959 . S
C461 C459 1.561 . S
C462 C459 1.526 . S
C462 C463 1.396 . S
C462 C467 1.390 . S
C463 C457 1.465 . S
C463 C462 1.396 . S
C463 C464 1.399 . S
C464 H450 0.929 . S
C464 C463 1.399 . S
C464 C465 1.385 . S
C465 H451 0.931 . S
C465 C464 1.385 . S
C465 C466 1.389 . S
C466 C465 1.389 . S
C466 C467 1.387 . S
C467 H452 0.930 . S
C467 C462 1.390 . S
C467 C466 1.387 . S
H468 C480 0.930 . S
H469 C482 0.930 . S
H470 C483 0.930 . S
H471 C487 0.959 . S
H472 C487 0.959 . S
H473 C487 0.961 . S
H474 C488 0.960 . S
H475 C488 0.961 . S
H476 C488 0.959 . S
H477 C491 0.929 . S
H478 C492 0.931 . S
H479 C494 0.930 . S
C480 H468 0.930 . S
C480 C481 1.399 . S
C480 C485 1.399 . S
C481 C480 1.399 . S
C481 C482 1.376 1_545 S
C482 H469 0.930 . S
C482 C481 1.376 1_565 S
C482 C483 1.388 . S
C483 H470 0.930 . S
C483 C482 1.388 . S
C483 C484 1.390 . S
C484 C483 1.390 . S
C484 C485 1.394 1_565 S
C484 C490 1.465 1_565 S
C485 C480 1.399 . S
C485 C484 1.394 1_545 S
C485 C486 1.516 . S
C486 C485 1.516 . S
C486 C487 1.502 . S
C486 C488 1.561 . S
C486 C489 1.526 . S
C487 H471 0.959 . S
C487 H472 0.959 . S
C487 H473 0.961 . S
C487 C486 1.502 . S
C488 H474 0.960 . S
C488 H475 0.961 . S
C488 H476 0.959 . S
C488 C486 1.561 . S
C489 C486 1.526 . S
C489 C490 1.396 . S
C489 C494 1.390 . S
C490 C484 1.465 1_545 S
C490 C489 1.396 . S
C490 C491 1.399 1_545 S
C491 H477 0.929 . S
C491 C490 1.399 1_565 S
C491 C492 1.385 . S
C492 H478 0.931 . S
C492 C491 1.385 . S
C492 C493 1.389 1_565 S
C493 C492 1.389 1_545 S
C493 C494 1.387 . S
C494 H479 0.930 . S
C494 C489 1.390 . S
C494 C493 1.387 . S
H495 C507 0.930 . S
H496 C509 0.930 . S
H497 C510 0.930 . S
H498 C514 0.959 . S
H499 C514 0.959 . S
H500 C514 0.961 . S
H501 C515 0.960 . S
H502 C515 0.961 . S
H503 C515 0.959 . S
H504 C518 0.929 . S
H505 C519 0.931 . S
H506 C521 0.930 . S
C507 H495 0.930 . S
C507 C508 1.398 1_455 S
C507 C512 1.399 . S
C508 C507 1.398 1_655 S
C508 C509 1.377 . S
C509 H496 0.930 . S
C509 C508 1.377 . S
C509 C510 1.388 . S
C510 H497 0.930 . S
C510 C509 1.388 . S
C510 C511 1.390 . S
C511 C510 1.390 . S
C511 C512 1.394 1_655 S
C511 C517 1.465 . S
C512 C507 1.399 . S
C512 C511 1.394 1_455 S
C512 C513 1.516 . S
C513 C512 1.516 . S
C513 C514 1.502 . S
C513 C515 1.561 . S
C513 C516 1.526 . S
C514 H498 0.959 . S
C514 H499 0.959 . S
C514 H500 0.961 . S
C514 C513 1.502 . S
C515 H501 0.960 . S
C515 H502 0.961 . S
C515 H503 0.959 . S
C515 C513 1.561 . S
C516 C513 1.526 . S
C516 C517 1.396 1_455 S
C516 C521 1.390 . S
C517 C511 1.465 . S
C517 C516 1.396 1_655 S
C517 C518 1.399 . S
C518 H504 0.929 . S
C518 C517 1.399 . S
C518 C519 1.385 . S
C519 H505 0.931 . S
C519 C518 1.385 . S
C519 C520 1.389 1_655 S
C520 C519 1.389 1_455 S
C520 C521 1.387 . S
C521 H506 0.930 . S
C521 C516 1.390 . S
C521 C520 1.387 . S
H522 C534 0.930 . S
H523 C536 0.930 . S
H524 C537 0.930 . S
H525 C541 0.959 . S
H526 C541 0.959 . S
H527 C541 0.961 . S
H528 C542 0.960 . S
H529 C542 0.961 . S
H530 C542 0.959 . S
H531 C545 0.929 . S
H532 C546 0.931 . S
H533 C548 0.930 . S
C534 H522 0.930 . S
C534 C535 1.399 . S
C534 C539 1.399 . S
C535 C534 1.399 . S
C535 C536 1.376 . S
C536 H523 0.930 . S
C536 C535 1.376 . S
C536 C537 1.388 . S
C537 H524 0.930 . S
C537 C536 1.388 . S
C537 C538 1.390 . S
C538 C537 1.390 . S
C538 C539 1.394 . S
C538 C544 1.465 . S
C539 C534 1.399 . S
C539 C538 1.394 . S
C539 C540 1.516 . S
C540 C539 1.516 . S
C540 C541 1.502 . S
C540 C542 1.561 . S
C540 C543 1.526 . S
C541 H525 0.959 . S
C541 H526 0.959 . S
C541 H527 0.961 . S
C541 C540 1.502 . S
C542 H528 0.960 . S
C542 H529 0.961 . S
C542 H530 0.959 . S
C542 C540 1.561 . S
C543 C540 1.526 . S
C543 C544 1.396 . S
C543 C548 1.390 . S
C544 C538 1.465 . S
C544 C543 1.396 . S
C544 C545 1.399 . S
C545 H531 0.929 . S
C545 C544 1.399 . S
C545 C546 1.385 . S
C546 H532 0.931 . S
C546 C545 1.385 . S
C546 C547 1.389 . S
C547 C546 1.389 . S
C547 C548 1.387 . S
C548 H533 0.930 . S
C548 C543 1.390 . S
C548 C547 1.387 . S
H549 C561 0.930 . S
H550 C563 0.930 . S
H551 C564 0.930 . S
H552 C568 0.959 . S
H553 C568 0.959 . S
H554 C568 0.961 . S
H555 C569 0.960 . S
H556 C569 0.961 . S
H557 C569 0.959 . S
H558 C572 0.929 . S
H559 C573 0.931 . S
H560 C575 0.930 . S
C561 H549 0.930 . S
C561 C562 1.399 . S
C561 C566 1.399 . S
C562 C561 1.399 . S
C562 C563 1.376 1_545 S
C563 H550 0.930 . S
C563 C562 1.376 1_565 S
C563 C564 1.388 . S
C564 H551 0.930 . S
C564 C563 1.388 . S
C564 C565 1.390 1_565 S
C565 C564 1.390 1_545 S
C565 C566 1.394 . S
C565 C571 1.465 . S
C566 C561 1.399 . S
C566 C565 1.394 . S
C566 C567 1.516 . S
C567 C566 1.516 . S
C567 C568 1.502 . S
C567 C569 1.561 . S
C567 C570 1.526 . S
C568 H552 0.959 . S
C568 H553 0.959 . S
C568 H554 0.961 . S
C568 C567 1.502 . S
C569 H555 0.960 . S
C569 H556 0.961 . S
C569 H557 0.959 . S
C569 C567 1.561 . S
C570 C567 1.526 . S
C570 C571 1.396 . S
C570 C575 1.390 . S
C571 C565 1.465 . S
C571 C570 1.396 . S
C571 C572 1.399 1_545 S
C572 H558 0.929 . S
C572 C571 1.399 1_565 S
C572 C573 1.385 . S
C573 H559 0.931 . S
C573 C572 1.385 . S
C573 C574 1.389 1_565 S
C574 C573 1.389 1_545 S
C574 C575 1.387 . S
C575 H560 0.930 . S
C575 C570 1.390 . S
C575 C574 1.387 . S
H576 C588 0.930 . S
H577 C590 0.930 . S
H578 C591 0.930 . S
H579 C595 0.959 . S
H580 C595 0.959 . S
H581 C595 0.961 . S
H582 C596 0.960 . S
H583 C596 0.961 . S
H584 C596 0.959 . S
H585 C599 0.929 . S
H586 C600 0.931 . S
H587 C602 0.930 . S
C588 H576 0.930 . S
C588 C589 1.399 . S
C588 C593 1.399 . S
C589 C588 1.399 . S
C589 C590 1.376 . S
C590 H577 0.930 . S
C590 C589 1.376 . S
C590 C591 1.388 . S
C591 H578 0.930 . S
C591 C590 1.388 . S
C591 C592 1.390 . S
C592 C591 1.390 . S
C592 C593 1.394 . S
C592 C598 1.465 . S
C593 C588 1.399 . S
C593 C592 1.394 . S
C593 C594 1.516 . S
C594 C593 1.516 . S
C594 C595 1.502 . S
C594 C596 1.561 . S
C594 C597 1.526 . S
C595 H579 0.959 . S
C595 H580 0.959 . S
C595 H581 0.961 . S
C595 C594 1.502 . S
C596 H582 0.960 . S
C596 H583 0.961 . S
C596 H584 0.959 . S
C596 C594 1.561 . S
C597 C594 1.526 . S
C597 C598 1.396 . S
C597 C602 1.390 . S
C598 C592 1.465 . S
C598 C597 1.396 . S
C598 C599 1.399 . S
C599 H585 0.929 . S
C599 C598 1.399 . S
C599 C600 1.385 . S
C600 H586 0.931 . S
C600 C599 1.385 . S
C600 C601 1.389 . S
C601 C600 1.389 . S
C601 C602 1.387 . S
C602 H587 0.930 . S
C602 C597 1.390 . S
C602 C601 1.387 . S
H603 C615 0.930 . S
H604 C617 0.930 . S
H605 C618 0.930 . S
H606 C622 0.959 . S
H607 C622 0.959 . S
H608 C622 0.961 . S
H609 C623 0.960 . S
H610 C623 0.961 . S
H611 C623 0.959 . S
H612 C626 0.929 . S
H613 C627 0.931 . S
H614 C629 0.930 . S
C615 H603 0.930 . S
C615 C616 1.399 . S
C615 C620 1.399 . S
C616 C615 1.399 . S
C616 C617 1.376 . S
C617 H604 0.930 . S
C617 C616 1.376 . S
C617 C618 1.388 . S
C618 H605 0.930 . S
C618 C617 1.388 . S
C618 C619 1.390 . S
C619 C618 1.390 . S
C619 C620 1.394 . S
C619 C625 1.465 . S
C620 C615 1.399 . S
C620 C619 1.394 . S
C620 C621 1.516 . S
C621 C620 1.516 . S
C621 C622 1.502 . S
C621 C623 1.561 . S
C621 C624 1.526 . S
C622 H606 0.959 . S
C622 H607 0.959 . S
C622 H608 0.961 . S
C622 C621 1.502 . S
C623 H609 0.960 . S
C623 H610 0.961 . S
C623 H611 0.959 . S
C623 C621 1.561 . S
C624 C621 1.526 . S
C624 C625 1.396 . S
C624 C629 1.390 . S
C625 C619 1.465 . S
C625 C624 1.396 . S
C625 C626 1.399 . S
C626 H612 0.929 . S
C626 C625 1.399 . S
C626 C627 1.385 . S
C627 H613 0.931 . S
C627 C626 1.385 . S
C627 C628 1.389 . S
C628 C627 1.389 . S
C628 C629 1.387 . S
C629 H614 0.930 . S
C629 C624 1.390 . S
C629 C628 1.387 . S
H630 C642 0.930 . S
H631 C644 0.930 . S
H632 C645 0.930 . S
H633 C649 0.959 . S
H634 C649 0.959 . S
H635 C649 0.961 . S
H636 C650 0.960 . S
H637 C650 0.961 . S
H638 C650 0.959 . S
H639 C653 0.929 . S
H640 C654 0.931 . S
H641 C656 0.930 . S
C642 H630 0.930 . S
C642 C643 1.399 . S
C642 C647 1.399 . S
C643 C642 1.399 . S
C643 C644 1.376 . S
C644 H631 0.930 . S
C644 C643 1.376 . S
C644 C645 1.388 . S
C645 H632 0.930 . S
C645 C644 1.388 . S
C645 C646 1.390 . S
C646 C645 1.390 . S
C646 C647 1.394 . S
C646 C652 1.465 . S
C647 C642 1.399 . S
C647 C646 1.394 . S
C647 C648 1.516 . S
C648 C647 1.516 . S
C648 C649 1.502 . S
C648 C650 1.561 . S
C648 C651 1.526 . S
C649 H633 0.959 . S
C649 H634 0.959 . S
C649 H635 0.961 . S
C649 C648 1.502 . S
C650 H636 0.960 . S
C650 H637 0.961 . S
C650 H638 0.959 . S
C650 C648 1.561 . S
C651 C648 1.526 . S
C651 C652 1.396 . S
C651 C656 1.390 . S
C652 C646 1.465 . S
C652 C651 1.396 . S
C652 C653 1.399 . S
C653 H639 0.929 . S
C653 C652 1.399 . S
C653 C654 1.385 . S
C654 H640 0.931 . S
C654 C653 1.385 . S
C654 C655 1.389 . S
C655 C654 1.389 . S
C655 C656 1.387 . S
C656 H641 0.930 . S
C656 C651 1.390 . S
C656 C655 1.387 . S
H657 C669 0.930 . S
H658 C671 0.930 . S
H659 C672 0.930 . S
H660 C676 0.959 . S
H661 C676 0.959 . S
H662 C676 0.961 . S
H663 C677 0.960 . S
H664 C677 0.961 . S
H665 C677 0.959 . S
H666 C680 0.929 . S
H667 C681 0.931 1_556 S
H668 C683 0.930 . S
C669 H657 0.930 . S
C669 C670 1.399 . S
C669 C674 1.399 . S
C670 C669 1.399 . S
C670 C671 1.376 . S
C671 H658 0.930 . S
C671 C670 1.376 . S
C671 C672 1.388 . S
C672 H659 0.930 . S
C672 C671 1.388 . S
C672 C673 1.390 . S
C673 C672 1.390 . S
C673 C674 1.394 . S
C673 C679 1.465 . S
C674 C669 1.399 . S
C674 C673 1.394 . S
C674 C675 1.516 . S
C675 C674 1.516 . S
C675 C676 1.502 . S
C675 C677 1.561 . S
C675 C678 1.526 . S
C676 H660 0.959 . S
C676 H661 0.959 . S
C676 H662 0.961 . S
C676 C675 1.502 . S
C677 H663 0.960 . S
C677 H664 0.961 . S
C677 H665 0.959 . S
C677 C675 1.561 . S
C678 C675 1.526 . S
C678 C679 1.396 . S
C678 C683 1.390 . S
C679 C673 1.465 . S
C679 C678 1.396 . S
C679 C680 1.399 . S
C680 H666 0.929 . S
C680 C679 1.399 . S
C680 C681 1.385 . S
C681 H667 0.931 1_554 S
C681 C680 1.385 . S
C681 C682 1.389 1_554 S
C682 C681 1.389 1_556 S
C682 C683 1.387 1_556 S
C683 H668 0.930 . S
C683 C678 1.390 . S
C683 C682 1.387 1_554 S
H684 C696 0.930 . S
H685 C698 0.930 1_556 S
H686 C699 0.930 . S
H687 C703 0.959 . S
H688 C703 0.959 . S
H689 C703 0.961 . S
H690 C704 0.960 . S
H691 C704 0.961 . S
H692 C704 0.959 . S
H693 C707 0.929 . S
H694 C708 0.931 . S
H695 C710 0.930 . S
C696 H684 0.930 . S
C696 C697 1.399 1_554 S
C696 C701 1.399 . S
C697 C696 1.399 1_556 S
C697 C698 1.376 1_556 S
C698 H685 0.930 1_554 S
C698 C697 1.376 1_554 S
C698 C699 1.388 . S
C699 H686 0.930 . S
C699 C698 1.388 . S
C699 C700 1.390 . S
C700 C699 1.390 . S
C700 C701 1.394 . S
C700 C706 1.465 . S
C701 C696 1.399 . S
C701 C700 1.394 . S
C701 C702 1.516 . S
C702 C701 1.516 . S
C702 C703 1.502 . S
C702 C704 1.561 . S
C702 C705 1.526 . S
C703 H687 0.959 . S
C703 H688 0.959 . S
C703 H689 0.961 . S
C703 C702 1.502 . S
C704 H690 0.960 . S
C704 H691 0.961 . S
C704 H692 0.959 . S
C704 C702 1.561 . S
C705 C702 1.526 . S
C705 C706 1.396 . S
C705 C710 1.390 . S
C706 C700 1.465 . S
C706 C705 1.396 . S
C706 C707 1.399 . S
C707 H693 0.929 . S
C707 C706 1.399 . S
C707 C708 1.385 . S
C708 H694 0.931 . S
C708 C707 1.385 . S
C708 C709 1.389 . S
C709 C708 1.389 . S
C709 C710 1.387 . S
C710 H695 0.930 . S
C710 C705 1.390 . S
C710 C709 1.387 . S
H711 C723 0.930 . S
H712 C725 0.930 1_556 S
H713 C726 0.930 . S
H714 C730 0.959 . S
H715 C730 0.959 . S
H716 C730 0.961 . S
H717 C731 0.960 . S
H718 C731 0.961 . S
H719 C731 0.959 . S
H720 C734 0.929 . S
H721 C735 0.931 . S
H722 C737 0.930 . S
C723 H711 0.930 . S
C723 C724 1.399 1_554 S
C723 C728 1.399 . S
C724 C723 1.399 1_556 S
C724 C725 1.376 1_556 S
C725 H712 0.930 1_554 S
C725 C724 1.376 1_554 S
C725 C726 1.388 . S
C726 H713 0.930 . S
C726 C725 1.388 . S
C726 C727 1.390 . S
C727 C726 1.390 . S
C727 C728 1.394 . S
C727 C733 1.465 . S
C728 C723 1.399 . S
C728 C727 1.394 . S
C728 C729 1.516 . S
C729 C728 1.516 . S
C729 C730 1.502 . S
C729 C731 1.561 . S
C729 C732 1.526 . S
C730 H714 0.959 . S
C730 H715 0.959 . S
C730 H716 0.961 . S
C730 C729 1.502 . S
C731 H717 0.960 . S
C731 H718 0.961 . S
C731 H719 0.959 . S
C731 C729 1.561 . S
C732 C729 1.526 . S
C732 C733 1.396 . S
C732 C737 1.390 . S
C733 C727 1.465 . S
C733 C732 1.396 . S
C733 C734 1.399 . S
C734 H720 0.929 . S
C734 C733 1.399 . S
C734 C735 1.385 . S
C735 H721 0.931 . S
C735 C734 1.385 . S
C735 C736 1.389 . S
C736 C735 1.389 . S
C736 C737 1.387 . S
C737 H722 0.930 . S
C737 C732 1.390 . S
C737 C736 1.387 . S
H738 C750 0.926 1_554 S
H739 C752 0.930 . S
H740 C753 0.930 . S
H741 C757 0.959 . S
H742 C757 0.959 . S
H743 C757 0.961 . S
H744 C758 0.960 . S
H745 C758 0.961 . S
H746 C758 0.959 . S
H747 C761 0.929 . S
H748 C762 0.931 . S
H749 C764 0.930 . S
C750 H738 0.926 1_556 S
C750 C751 1.394 1_556 S
C750 C755 1.407 . S
C751 C750 1.394 1_554 S
C751 C752 1.376 . S
C752 H739 0.930 . S
C752 C751 1.376 . S
C752 C753 1.388 1_554 S
C753 H740 0.930 . S
C753 C752 1.388 1_556 S
C753 C754 1.390 . S
C754 C753 1.390 . S
C754 C755 1.394 . S
C754 C760 1.465 . S
C755 C750 1.407 . S
C755 C754 1.394 . S
C755 C756 1.516 . S
C756 C755 1.516 . S
C756 C757 1.502 . S
C756 C758 1.561 . S
C756 C759 1.526 . S
C757 H741 0.959 . S
C757 H742 0.959 . S
C757 H743 0.961 . S
C757 C756 1.502 . S
C758 H744 0.960 . S
C758 H745 0.961 . S
C758 H746 0.959 . S
C758 C756 1.561 . S
C759 C756 1.526 . S
C759 C760 1.396 . S
C759 C764 1.390 . S
C760 C754 1.465 . S
C760 C759 1.396 . S
C760 C761 1.399 . S
C761 H747 0.929 . S
C761 C760 1.399 . S
C761 C762 1.385 . S
C762 H748 0.931 . S
C762 C761 1.385 . S
C762 C763 1.389 . S
C763 C762 1.389 . S
C763 C764 1.387 . S
C764 H749 0.930 . S
C764 C759 1.390 . S
C764 C763 1.387 . S
H765 C777 0.930 . S
H766 C779 0.930 . S
H767 C780 0.930 . S
H768 C784 0.959 . S
H769 C784 0.959 . S
H770 C784 0.961 . S
H771 C785 0.960 . S
H772 C785 0.961 . S
H773 C785 0.959 . S
H774 C788 0.929 . S
H775 C789 0.931 1_554 S
H776 C791 0.930 . S
C777 H765 0.930 . S
C777 C778 1.399 . S
C777 C782 1.399 . S
C778 C777 1.399 . S
C778 C779 1.376 . S
C779 H766 0.930 . S
C779 C778 1.376 . S
C779 C780 1.388 . S
C780 H767 0.930 . S
C780 C779 1.388 . S
C780 C781 1.390 . S
C781 C780 1.390 . S
C781 C782 1.394 . S
C781 C787 1.465 . S
C782 C777 1.399 . S
C782 C781 1.394 . S
C782 C783 1.516 . S
C783 C782 1.516 . S
C783 C784 1.502 . S
C783 C785 1.561 . S
C783 C786 1.526 . S
C784 H768 0.959 . S
C784 H769 0.959 . S
C784 H770 0.961 . S
C784 C783 1.502 . S
C785 H771 0.960 . S
C785 H772 0.961 . S
C785 H773 0.959 . S
C785 C783 1.561 . S
C786 C783 1.526 . S
C786 C787 1.396 . S
C786 C791 1.390 . S
C787 C781 1.465 . S
C787 C786 1.396 . S
C787 C788 1.399 . S
C788 H774 0.929 . S
C788 C787 1.399 . S
C788 C789 1.385 . S
C789 H775 0.931 1_556 S
C789 C788 1.385 . S
C789 C790 1.389 1_556 S
C790 C789 1.389 1_554 S
C790 C791 1.387 1_554 S
C791 H776 0.930 . S
C791 C786 1.390 . S
C791 C790 1.387 1_556 S
H792 C804 0.930 1_554 S
H793 C806 0.930 . S
H794 C807 0.930 . S
H795 C811 0.959 . S
H796 C811 0.959 . S
H797 C811 0.961 . S
H798 C812 0.960 . S
H799 C812 0.961 . S
H800 C812 0.959 . S
H801 C815 0.929 . S
H802 C816 0.931 . S
H803 C818 0.930 . S
C804 H792 0.930 1_556 S
C804 C805 1.399 1_556 S
C804 C809 1.399 . S
C805 C804 1.399 1_554 S
C805 C806 1.376 . S
C806 H793 0.930 . S
C806 C805 1.376 . S
C806 C807 1.388 1_554 S
C807 H794 0.930 . S
C807 C806 1.388 1_556 S
C807 C808 1.390 . S
C808 C807 1.390 . S
C808 C809 1.394 . S
C808 C814 1.465 . S
C809 C804 1.399 . S
C809 C808 1.394 . S
C809 C810 1.516 . S
C810 C809 1.516 . S
C810 C811 1.502 . S
C810 C812 1.561 . S
C810 C813 1.526 . S
C811 H795 0.959 . S
C811 H796 0.959 . S
C811 H797 0.961 . S
C811 C810 1.502 . S
C812 H798 0.960 . S
C812 H799 0.961 . S
C812 H800 0.959 . S
C812 C810 1.561 . S
C813 C810 1.526 . S
C813 C814 1.396 . S
C813 C818 1.390 . S
C814 C808 1.465 . S
C814 C813 1.396 . S
C814 C815 1.399 . S
C815 H801 0.929 . S
C815 C814 1.399 . S
C815 C816 1.385 . S
C816 H802 0.931 . S
C816 C815 1.385 . S
C816 C817 1.389 . S
C817 C816 1.389 . S
C817 C818 1.387 . S
C818 H803 0.930 . S
C818 C813 1.390 . S
C818 C817 1.387 . S
H819 C831 0.930 . S
H820 C833 0.930 . S
H821 C834 0.930 . S
H822 C838 0.959 . S
H823 C838 0.959 . S
H824 C838 0.961 . S
H825 C839 0.960 . S
H826 C839 0.961 . S
H827 C839 0.959 . S
H828 C842 0.929 . S
H829 C843 0.931 . S
H830 C845 0.930 . S
C831 H819 0.930 . S
C831 C832 1.399 . S
C831 C836 1.399 . S
C832 C831 1.399 . S
C832 C833 1.376 . S
C833 H820 0.930 . S
C833 C832 1.376 . S
C833 C834 1.388 . S
C834 H821 0.930 . S
C834 C833 1.388 . S
C834 C835 1.390 . S
C835 C834 1.390 . S
C835 C836 1.394 . S
C835 C841 1.465 . S
C836 C831 1.399 . S
C836 C835 1.394 . S
C836 C837 1.516 . S
C837 C836 1.516 . S
C837 C838 1.502 . S
C837 C839 1.561 . S
C837 C840 1.526 . S
C838 H822 0.959 . S
C838 H823 0.959 . S
C838 H824 0.961 . S
C838 C837 1.502 . S
C839 H825 0.960 . S
C839 H826 0.961 . S
C839 H827 0.959 . S
C839 C837 1.561 . S
C840 C837 1.526 . S
C840 C841 1.396 . S
C840 C845 1.390 . S
C841 C835 1.465 . S
C841 C840 1.396 . S
C841 C842 1.399 . S
C842 H828 0.929 . S
C842 C841 1.399 . S
C842 C843 1.385 . S
C843 H829 0.931 . S
C843 C842 1.385 . S
C843 C844 1.389 . S
C844 C843 1.389 . S
C844 C845 1.387 . S
C845 H830 0.930 . S
C845 C840 1.390 . S
C845 C844 1.387 . S
H846 C858 0.930 . S
H847 C860 0.930 . S
H848 C861 0.930 . S
H849 C865 0.959 . S
H850 C865 0.959 . S
H851 C865 0.961 . S
H852 C866 0.960 . S
H853 C866 0.961 . S
H854 C866 0.959 . S
H855 C869 0.929 . S
H856 C870 0.931 . S
H857 C872 0.930 . S
C858 H846 0.930 . S
C858 C859 1.399 . S
C858 C863 1.399 . S
C859 C858 1.399 . S
C859 C860 1.376 . S
C860 H847 0.930 . S
C860 C859 1.376 . S
C860 C861 1.388 . S
C861 H848 0.930 . S
C861 C860 1.388 . S
C861 C862 1.390 . S
C862 C861 1.390 . S
C862 C863 1.394 . S
C862 C868 1.465 . S
C863 C858 1.399 . S
C863 C862 1.394 . S
C863 C864 1.516 . S
C864 C863 1.516 . S
C864 C865 1.502 . S
C864 C866 1.561 . S
C864 C867 1.526 . S
C865 H849 0.959 . S
C865 H850 0.959 . S
C865 H851 0.961 . S
C865 C864 1.502 . S
C866 H852 0.960 . S
C866 H853 0.961 . S
C866 H854 0.959 . S
C866 C864 1.561 . S
C867 C864 1.526 . S
C867 C868 1.396 . S
C867 C872 1.390 . S
C868 C862 1.465 . S
C868 C867 1.396 . S
C868 C869 1.399 . S
C869 H855 0.929 . S
C869 C868 1.399 . S
C869 C870 1.385 . S
C870 H856 0.931 . S
C870 C869 1.385 . S
C870 C871 1.389 . S
C871 C870 1.389 . S
C871 C872 1.387 . S
C872 H857 0.930 . S
C872 C867 1.390 . S
C872 C871 1.387 . S
H873 C885 0.930 . S
H874 C887 0.930 . S
H875 C888 0.930 . S
H876 C892 0.959 . S
H877 C892 0.959 . S
H878 C892 0.961 . S
H879 C893 0.960 . S
H880 C893 0.961 . S
H881 C893 0.959 . S
H882 C896 0.929 . S
H883 C897 0.931 . S
H884 C899 0.930 . S
C885 H873 0.930 . S
C885 C886 1.399 . S
C885 C890 1.399 . S
C886 C885 1.399 . S
C886 C887 1.376 . S
C887 H874 0.930 . S
C887 C886 1.376 . S
C887 C888 1.388 . S
C888 H875 0.930 . S
C888 C887 1.388 . S
C888 C889 1.390 . S
C889 C888 1.390 . S
C889 C890 1.394 . S
C889 C895 1.465 . S
C890 C885 1.399 . S
C890 C889 1.394 . S
C890 C891 1.516 . S
C891 C890 1.516 . S
C891 C892 1.502 . S
C891 C893 1.561 . S
C891 C894 1.526 . S
C892 H876 0.959 . S
C892 H877 0.959 . S
C892 H878 0.961 . S
C892 C891 1.502 . S
C893 H879 0.960 . S
C893 H880 0.961 . S
C893 H881 0.959 . S
C893 C891 1.561 . S
C894 C891 1.526 . S
C894 C895 1.396 . S
C894 C899 1.390 . S
C895 C889 1.465 . S
C895 C894 1.396 . S
C895 C896 1.399 . S
C896 H882 0.929 . S
C896 C895 1.399 . S
C896 C897 1.385 . S
C897 H883 0.931 . S
C897 C896 1.385 . S
C897 C898 1.389 . S
C898 C897 1.389 . S
C898 C899 1.387 . S
C899 H884 0.930 . S
C899 C894 1.390 . S
C899 C898 1.387 . S
H900 C912 0.930 . S
H901 C914 0.930 . S
H902 C915 0.930 . S
H903 C919 0.959 . S
H904 C919 0.959 . S
H905 C919 0.961 . S
H906 C920 0.960 . S
H907 C920 0.961 . S
H908 C920 0.959 . S
H909 C923 0.929 . S
H910 C924 0.931 . S
H911 C926 0.930 . S
C912 H900 0.930 . S
C912 C913 1.399 . S
C912 C917 1.399 . S
C913 C912 1.399 . S
C913 C914 1.376 . S
C914 H901 0.930 . S
C914 C913 1.376 . S
C914 C915 1.388 . S
C915 H902 0.930 . S
C915 C914 1.388 . S
C915 C916 1.390 . S
C916 C915 1.390 . S
C916 C917 1.394 . S
C916 C922 1.465 . S
C917 C912 1.399 . S
C917 C916 1.394 . S
C917 C918 1.516 . S
C918 C917 1.516 . S
C918 C919 1.502 . S
C918 C920 1.561 . S
C918 C921 1.526 . S
C919 H903 0.959 . S
C919 H904 0.959 . S
C919 H905 0.961 . S
C919 C918 1.502 . S
C920 H906 0.960 . S
C920 H907 0.961 . S
C920 H908 0.959 . S
C920 C918 1.561 . S
C921 C918 1.526 . S
C921 C922 1.396 . S
C921 C926 1.390 . S
C922 C916 1.465 . S
C922 C921 1.396 . S
C922 C923 1.399 . S
C923 H909 0.929 . S
C923 C922 1.399 . S
C923 C924 1.385 . S
C924 H910 0.931 . S
C924 C923 1.385 . S
C924 C925 1.389 . S
C925 C924 1.389 . S
C925 C926 1.387 . S
C926 H911 0.930 . S
C926 C921 1.390 . S
C926 C925 1.387 . S
H927 C939 0.930 . S
H928 C941 0.930 . S
H929 C942 0.930 . S
H930 C946 0.959 . S
H931 C946 0.959 1_554 S
H932 C946 0.961 . S
H933 C947 0.960 . S
H934 C947 0.977 . S
H935 C947 0.959 . S
H936 C950 0.929 . S
H937 C951 0.931 . S
H938 C953 0.930 . S
C939 H927 0.930 . S
C939 C940 1.399 . S
C939 C944 1.399 . S
C940 C939 1.399 . S
C940 C941 1.376 . S
C941 H928 0.930 . S
C941 C940 1.376 . S
C941 C942 1.388 . S
C942 H929 0.930 . S
C942 C941 1.388 . S
C942 C943 1.390 . S
C943 C942 1.390 . S
C943 C944 1.394 . S
C943 C949 1.465 . S
C944 C939 1.399 . S
C944 C943 1.394 . S
C944 C945 1.516 . S
C945 C944 1.516 . S
C945 C946 1.502 . S
C945 C947 1.561 . S
C945 C948 1.526 . S
C946 H930 0.959 . S
C946 H931 0.959 1_556 S
C946 H932 0.961 . S
C946 C945 1.502 . S
C947 H933 0.960 . S
C947 H934 0.977 . S
C947 H935 0.959 . S
C947 C945 1.561 . S
C948 C945 1.526 . S
C948 C949 1.396 . S
C948 C953 1.390 . S
C949 C943 1.465 . S
C949 C948 1.396 . S
C949 C950 1.399 . S
C950 H936 0.929 . S
C950 C949 1.399 . S
C950 C951 1.385 . S
C951 H937 0.931 . S
C951 C950 1.385 . S
C951 C952 1.389 . S
C952 C951 1.389 . S
C952 C953 1.387 . S
C953 H938 0.930 . S
C953 C948 1.390 . S
C953 C952 1.387 . S
H954 C966 0.930 . S
H955 C968 0.930 . S
H956 C969 0.930 . S
H957 C973 0.962 . S
H958 C973 0.947 1_554 S
H959 C973 0.959 1_554 S
H960 C974 0.960 . S
H961 C974 0.961 . S
H962 C974 0.959 . S
H963 C977 0.929 . S
H964 C978 0.931 . S
H965 C980 0.930 1_554 S
C966 H954 0.930 . S
C966 C967 1.399 . S
C966 C971 1.399 . S
C967 C966 1.399 . S
C967 C968 1.376 . S
C968 H955 0.930 . S
C968 C967 1.376 . S
C968 C969 1.388 . S
C969 H956 0.930 . S
C969 C968 1.388 . S
C969 C970 1.390 . S
C970 C969 1.390 . S
C970 C971 1.394 . S
C970 C976 1.465 . S
C971 C966 1.399 . S
C971 C970 1.394 . S
C971 C972 1.516 . S
C972 C971 1.516 . S
C972 C973 1.513 . S
C972 C974 1.561 . S
C972 C975 1.526 . S
C973 H957 0.962 . S
C973 H958 0.947 1_556 S
C973 H959 0.959 1_556 S
C973 C972 1.513 . S
C974 H960 0.960 . S
C974 H961 0.961 . S
C974 H962 0.959 . S
C974 C972 1.561 . S
C975 C972 1.526 . S
C975 C976 1.396 . S
C975 C980 1.390 . S
C976 C970 1.465 . S
C976 C975 1.396 . S
C976 C977 1.399 . S
C977 H963 0.929 . S
C977 C976 1.399 . S
C977 C978 1.385 . S
C978 H964 0.931 . S
C978 C977 1.385 . S
C978 C979 1.389 . S
C979 C978 1.389 . S
C979 C980 1.387 . S
C980 H965 0.930 1_556 S
C980 C975 1.390 . S
C980 C979 1.387 . S
H981 C993 0.930 . S
H982 C995 0.930 . S
H983 C996 0.930 . S
H984 C1000 0.959 . S
H985 C1000 0.959 . S
H986 C1000 0.961 . S
H987 C1001 0.960 . S
H988 C1001 0.961 . S
H989 C1001 0.959 . S
H990 C1004 0.929 . S
H991 C1005 0.931 . S
H992 C1007 0.930 . S
C993 H981 0.930 . S
C993 C994 1.399 . S
C993 C998 1.399 . S
C994 C993 1.399 . S
C994 C995 1.376 . S
C995 H982 0.930 . S
C995 C994 1.376 . S
C995 C996 1.388 . S
C996 H983 0.930 . S
C996 C995 1.388 . S
C996 C997 1.390 . S
C997 C996 1.390 . S
C997 C998 1.394 . S
C997 C1003 1.465 . S
C998 C993 1.399 . S
C998 C997 1.394 . S
C998 C999 1.516 . S
C999 C998 1.516 . S
C999 C1000 1.502 . S
C999 C1001 1.561 . S
C999 C1002 1.526 . S
C1000 H984 0.959 . S
C1000 H985 0.959 . S
C1000 H986 0.961 . S
C1000 C999 1.502 . S
C1001 H987 0.960 . S
C1001 H988 0.961 . S
C1001 H989 0.959 . S
C1001 C999 1.561 . S
C1002 C999 1.526 . S
C1002 C1003 1.396 . S
C1002 C1007 1.390 . S
C1003 C997 1.465 . S
C1003 C1002 1.396 . S
C1003 C1004 1.399 . S
C1004 H990 0.929 . S
C1004 C1003 1.399 . S
C1004 C1005 1.385 . S
C1005 H991 0.931 . S
C1005 C1004 1.385 . S
C1005 C1006 1.389 . S
C1006 C1005 1.389 . S
C1006 C1007 1.387 . S
C1007 H992 0.930 . S
C1007 C1002 1.390 . S
C1007 C1006 1.387 . S
H1008 C1020 0.930 . S
H1009 C1022 0.930 . S
H1010 C1023 0.930 . S
H1011 C1027 0.959 . S
H1012 C1027 0.959 . S
H1013 C1027 0.961 . S
H1014 C1028 0.960 . S
H1015 C1028 0.961 . S
H1016 C1028 0.959 . S
H1017 C1031 0.929 . S
H1018 C1032 0.931 . S
H1019 C1034 0.930 . S
C1020 H1008 0.930 . S
C1020 C1021 1.399 . S
C1020 C1025 1.399 . S
C1021 C1020 1.399 . S
C1021 C1022 1.376 . S
C1022 H1009 0.930 . S
C1022 C1021 1.376 . S
C1022 C1023 1.388 . S
C1023 H1010 0.930 . S
C1023 C1022 1.388 . S
C1023 C1024 1.390 . S
C1024 C1023 1.390 . S
C1024 C1025 1.394 . S
C1024 C1030 1.465 . S
C1025 C1020 1.399 . S
C1025 C1024 1.394 . S
C1025 C1026 1.516 . S
C1026 C1025 1.516 . S
C1026 C1027 1.502 . S
C1026 C1028 1.561 . S
C1026 C1029 1.526 . S
C1027 H1011 0.959 . S
C1027 H1012 0.959 . S
C1027 H1013 0.961 . S
C1027 C1026 1.502 . S
C1028 H1014 0.960 . S
C1028 H1015 0.961 . S
C1028 H1016 0.959 . S
C1028 C1026 1.561 . S
C1029 C1026 1.526 . S
C1029 C1030 1.396 . S
C1029 C1034 1.390 . S
C1030 C1024 1.465 . S
C1030 C1029 1.396 . S
C1030 C1031 1.399 . S
C1031 H1017 0.929 . S
C1031 C1030 1.399 . S
C1031 C1032 1.385 . S
C1032 H1018 0.931 . S
C1032 C1031 1.385 . S
C1032 C1033 1.389 . S
C1033 C1032 1.389 . S
C1033 C1034 1.387 . S
C1034 H1019 0.930 . S
C1034 C1029 1.390 . S
C1034 C1033 1.387 . S
H1035 C1047 0.930 . S
H1036 C1049 0.930 . S
H1037 C1050 0.930 . S
H1038 C1054 0.959 . S
H1039 C1054 0.959 . S
H1040 C1054 0.961 . S
H1041 C1055 0.960 . S
H1042 C1055 0.961 . S
H1043 C1055 0.959 . S
H1044 C1058 0.929 . S
H1045 C1059 0.931 . S
H1046 C1061 0.930 . S
C1047 H1035 0.930 . S
C1047 C1048 1.399 . S
C1047 C1052 1.399 . S
C1048 C1047 1.399 . S
C1048 C1049 1.376 . S
C1049 H1036 0.930 . S
C1049 C1048 1.376 . S
C1049 C1050 1.388 . S
C1050 H1037 0.930 . S
C1050 C1049 1.388 . S
C1050 C1051 1.390 . S
C1051 C1050 1.390 . S
C1051 C1052 1.394 . S
C1051 C1057 1.465 . S
C1052 C1047 1.399 . S
C1052 C1051 1.394 . S
C1052 C1053 1.516 . S
C1053 C1052 1.516 . S
C1053 C1054 1.502 . S
C1053 C1055 1.561 . S
C1053 C1056 1.526 . S
C1054 H1038 0.959 . S
C1054 H1039 0.959 . S
C1054 H1040 0.961 . S
C1054 C1053 1.502 . S
C1055 H1041 0.960 . S
C1055 H1042 0.961 . S
C1055 H1043 0.959 . S
C1055 C1053 1.561 . S
C1056 C1053 1.526 . S
C1056 C1057 1.396 . S
C1056 C1061 1.390 . S
C1057 C1051 1.465 . S
C1057 C1056 1.396 . S
C1057 C1058 1.399 . S
C1058 H1044 0.929 . S
C1058 C1057 1.399 . S
C1058 C1059 1.385 . S
C1059 H1045 0.931 . S
C1059 C1058 1.385 . S
C1059 C1060 1.389 . S
C1060 C1059 1.389 . S
C1060 C1061 1.387 . S
C1061 H1046 0.930 . S
C1061 C1056 1.390 . S
C1061 C1060 1.387 . S
H1062 C1074 0.930 . S
H1063 C1076 0.930 . S
H1064 C1077 0.930 . S
H1065 C1081 0.959 . S
H1066 C1081 0.959 . S
H1067 C1081 0.961 . S
H1068 C1082 0.960 . S
H1069 C1082 0.961 1_556 S
H1070 C1082 0.959 . S
H1071 C1085 0.929 . S
H1072 C1086 0.931 . S
H1073 C1088 0.930 . S
C1074 H1062 0.930 . S
C1074 C1075 1.399 . S
C1074 C1079 1.399 . S
C1075 C1074 1.399 . S
C1075 C1076 1.376 . S
C1076 H1063 0.930 . S
C1076 C1075 1.376 . S
C1076 C1077 1.388 . S
C1077 H1064 0.930 . S
C1077 C1076 1.388 . S
C1077 C1078 1.390 . S
C1078 C1077 1.390 . S
C1078 C1079 1.394 . S
C1078 C1084 1.465 . S
C1079 C1074 1.399 . S
C1079 C1078 1.394 . S
C1079 C1080 1.516 . S
C1080 C1079 1.516 . S
C1080 C1081 1.502 . S
C1080 C1082 1.561 . S
C1080 C1083 1.526 . S
C1081 H1065 0.959 . S
C1081 H1066 0.959 . S
C1081 H1067 0.961 . S
C1081 C1080 1.502 . S
C1082 H1068 0.960 . S
C1082 H1069 0.961 1_554 S
C1082 H1070 0.959 . S
C1082 C1080 1.561 . S
C1083 C1080 1.526 . S
C1083 C1084 1.396 . S
C1083 C1088 1.390 . S
C1084 C1078 1.465 . S
C1084 C1083 1.396 . S
C1084 C1085 1.399 . S
C1085 H1071 0.929 . S
C1085 C1084 1.399 . S
C1085 C1086 1.385 . S
C1086 H1072 0.931 . S
C1086 C1085 1.385 . S
C1086 C1087 1.389 . S
C1087 C1086 1.389 . S
C1087 C1088 1.387 . S
C1088 H1073 0.930 . S
C1088 C1083 1.390 . S
C1088 C1087 1.387 . S
H1089 C1101 0.930 . S
H1090 C1103 0.930 . S
H1091 C1104 0.930 . S
H1092 C1108 0.959 . S
H1093 C1108 0.959 . S
H1094 C1108 0.961 . S
H1095 C1109 0.960 . S
H1096 C1109 0.975 . S
H1097 C1109 0.959 . S
H1098 C1112 0.929 . S
H1099 C1113 0.931 . S
H1100 C1115 0.930 . S
C1101 H1089 0.930 . S
C1101 C1102 1.399 . S
C1101 C1106 1.399 . S
C1102 C1101 1.399 . S
C1102 C1103 1.376 . S
C1103 H1090 0.930 . S
C1103 C1102 1.376 . S
C1103 C1104 1.388 . S
C1104 H1091 0.930 . S
C1104 C1103 1.388 . S
C1104 C1105 1.390 . S
C1105 C1104 1.390 . S
C1105 C1106 1.394 . S
C1105 C1111 1.465 . S
C1106 C1101 1.399 . S
C1106 C1105 1.394 . S
C1106 C1107 1.516 . S
C1107 C1106 1.516 . S
C1107 C1108 1.502 . S
C1107 C1109 1.561 . S
C1107 C1110 1.526 . S
C1108 H1092 0.959 . S
C1108 H1093 0.959 . S
C1108 H1094 0.961 . S
C1108 C1107 1.502 . S
C1109 H1095 0.960 . S
C1109 H1096 0.975 . S
C1109 H1097 0.959 . S
C1109 C1107 1.561 . S
C1110 C1107 1.526 . S
C1110 C1111 1.396 . S
C1110 C1115 1.390 . S
C1111 C1105 1.465 . S
C1111 C1110 1.396 . S
C1111 C1112 1.399 . S
C1112 H1098 0.929 . S
C1112 C1111 1.399 . S
C1112 C1113 1.385 . S
C1113 H1099 0.931 . S
C1113 C1112 1.385 . S
C1113 C1114 1.389 . S
C1114 C1113 1.389 . S
C1114 C1115 1.387 . S
C1115 H1100 0.930 . S
C1115 C1110 1.390 . S
C1115 C1114 1.387 . S
H1116 C1128 0.930 . S
H1117 C1130 0.930 . S
H1118 C1131 0.930 . S
H1119 C1135 0.959 . S
H1120 C1135 0.959 . S
H1121 C1135 0.961 . S
H1122 C1136 0.960 . S
H1123 C1136 0.961 . S
H1124 C1136 0.959 . S
H1125 C1139 0.929 . S
H1126 C1140 0.931 1_556 S
H1127 C1142 0.930 . S
C1128 H1116 0.930 . S
C1128 C1129 1.399 . S
C1128 C1133 1.399 . S
C1129 C1128 1.399 . S
C1129 C1130 1.376 . S
C1130 H1117 0.930 . S
C1130 C1129 1.376 . S
C1130 C1131 1.388 . S
C1131 H1118 0.930 . S
C1131 C1130 1.388 . S
C1131 C1132 1.390 . S
C1132 C1131 1.390 . S
C1132 C1133 1.394 . S
C1132 C1138 1.465 . S
C1133 C1128 1.399 . S
C1133 C1132 1.394 . S
C1133 C1134 1.516 . S
C1134 C1133 1.516 . S
C1134 C1135 1.502 . S
C1134 C1136 1.561 . S
C1134 C1137 1.526 . S
C1135 H1119 0.959 . S
C1135 H1120 0.959 . S
C1135 H1121 0.961 . S
C1135 C1134 1.502 . S
C1136 H1122 0.960 . S
C1136 H1123 0.961 . S
C1136 H1124 0.959 . S
C1136 C1134 1.561 . S
C1137 C1134 1.526 . S
C1137 C1138 1.396 . S
C1137 C1142 1.390 . S
C1138 C1132 1.465 . S
C1138 C1137 1.396 . S
C1138 C1139 1.399 . S
C1139 H1125 0.929 . S
C1139 C1138 1.399 . S
C1139 C1140 1.385 . S
C1140 H1126 0.931 1_554 S
C1140 C1139 1.385 . S
C1140 C1141 1.389 . S
C1141 C1140 1.389 . S
C1141 C1142 1.387 . S
C1142 H1127 0.930 . S
C1142 C1137 1.390 . S
C1142 C1141 1.387 . S
H1143 C1155 0.930 . S
H1144 C1157 0.930 . S
H1145 C1158 0.930 . S
H1146 C1162 0.959 . S
H1147 C1162 0.959 . S
H1148 C1162 0.961 . S
H1149 C1163 0.960 . S
H1150 C1163 0.961 . S
H1151 C1163 0.959 . S
H1152 C1166 0.929 . S
H1153 C1167 0.931 . S
H1154 C1169 0.930 . S
C1155 H1143 0.930 . S
C1155 C1156 1.399 . S
C1155 C1160 1.399 . S
C1156 C1155 1.399 . S
C1156 C1157 1.376 . S
C1157 H1144 0.930 . S
C1157 C1156 1.376 . S
C1157 C1158 1.388 . S
C1158 H1145 0.930 . S
C1158 C1157 1.388 . S
C1158 C1159 1.390 . S
C1159 C1158 1.390 . S
C1159 C1160 1.394 . S
C1159 C1165 1.465 . S
C1160 C1155 1.399 . S
C1160 C1159 1.394 . S
C1160 C1161 1.516 . S
C1161 C1160 1.516 . S
C1161 C1162 1.502 . S
C1161 C1163 1.561 . S
C1161 C1164 1.526 . S
C1162 H1146 0.959 . S
C1162 H1147 0.959 . S
C1162 H1148 0.961 . S
C1162 C1161 1.502 . S
C1163 H1149 0.960 . S
C1163 H1150 0.961 . S
C1163 H1151 0.959 . S
C1163 C1161 1.561 . S
C1164 C1161 1.526 . S
C1164 C1165 1.396 . S
C1164 C1169 1.390 . S
C1165 C1159 1.465 . S
C1165 C1164 1.396 . S
C1165 C1166 1.399 . S
C1166 H1152 0.929 . S
C1166 C1165 1.399 . S
C1166 C1167 1.385 . S
C1167 H1153 0.931 . S
C1167 C1166 1.385 . S
C1167 C1168 1.389 . S
C1168 C1167 1.389 . S
C1168 C1169 1.387 . S
C1169 H1154 0.930 . S
C1169 C1164 1.390 . S
C1169 C1168 1.387 . S
H1170 C1182 0.930 . S
H1171 C1184 0.930 . S
H1172 C1185 0.930 . S
H1173 C1189 0.959 . S
H1174 C1189 0.959 . S
H1175 C1189 0.961 . S
H1176 C1190 0.960 . S
H1177 C1190 0.961 . S
H1178 C1190 0.959 . S
H1179 C1193 0.929 . S
H1180 C1194 0.931 . S
H1181 C1196 0.930 . S
C1182 H1170 0.930 . S
C1182 C1183 1.399 . S
C1182 C1187 1.399 . S
C1183 C1182 1.399 . S
C1183 C1184 1.376 . S
C1184 H1171 0.930 . S
C1184 C1183 1.376 . S
C1184 C1185 1.388 . S
C1185 H1172 0.930 . S
C1185 C1184 1.388 . S
C1185 C1186 1.390 . S
C1186 C1185 1.390 . S
C1186 C1187 1.394 . S
C1186 C1192 1.465 . S
C1187 C1182 1.399 . S
C1187 C1186 1.394 . S
C1187 C1188 1.516 . S
C1188 C1187 1.516 . S
C1188 C1189 1.502 . S
C1188 C1190 1.561 . S
C1188 C1191 1.526 . S
C1189 H1173 0.959 . S
C1189 H1174 0.959 . S
C1189 H1175 0.961 . S
C1189 C1188 1.502 . S
C1190 H1176 0.960 . S
C1190 H1177 0.961 . S
C1190 H1178 0.959 . S
C1190 C1188 1.561 . S
C1191 C1188 1.526 . S
C1191 C1192 1.396 . S
C1191 C1196 1.390 . S
C1192 C1186 1.465 . S
C1192 C1191 1.396 . S
C1192 C1193 1.399 . S
C1193 H1179 0.929 . S
C1193 C1192 1.399 . S
C1193 C1194 1.385 . S
C1194 H1180 0.931 . S
C1194 C1193 1.385 . S
C1194 C1195 1.389 . S
C1195 C1194 1.389 . S
C1195 C1196 1.387 . S
C1196 H1181 0.930 . S
C1196 C1191 1.390 . S
C1196 C1195 1.387 . S
H1197 C1209 0.930 . S
H1198 C1211 0.930 . S
H1199 C1212 0.930 . S
H1200 C1216 0.959 . S
H1201 C1216 0.959 . S
H1202 C1216 0.961 . S
H1203 C1217 0.960 . S
H1204 C1217 0.961 . S
H1205 C1217 0.959 . S
H1206 C1220 0.929 . S
H1207 C1221 0.931 . S
H1208 C1223 0.930 . S
C1209 H1197 0.930 . S
C1209 C1210 1.399 . S
C1209 C1214 1.399 . S
C1210 C1209 1.399 . S
C1210 C1211 1.376 . S
C1211 H1198 0.930 . S
C1211 C1210 1.376 . S
C1211 C1212 1.388 . S
C1212 H1199 0.930 . S
C1212 C1211 1.388 . S
C1212 C1213 1.390 . S
C1213 C1212 1.390 . S
C1213 C1214 1.394 . S
C1213 C1219 1.465 . S
C1214 C1209 1.399 . S
C1214 C1213 1.394 . S
C1214 C1215 1.516 . S
C1215 C1214 1.516 . S
C1215 C1216 1.502 . S
C1215 C1217 1.561 . S
C1215 C1218 1.526 . S
C1216 H1200 0.959 . S
C1216 H1201 0.959 . S
C1216 H1202 0.961 . S
C1216 C1215 1.502 . S
C1217 H1203 0.960 . S
C1217 H1204 0.961 . S
C1217 H1205 0.959 . S
C1217 C1215 1.561 . S
C1218 C1215 1.526 . S
C1218 C1219 1.396 . S
C1218 C1223 1.390 . S
C1219 C1213 1.465 . S
C1219 C1218 1.396 . S
C1219 C1220 1.399 . S
C1220 H1206 0.929 . S
C1220 C1219 1.399 . S
C1220 C1221 1.385 . S
C1221 H1207 0.931 . S
C1221 C1220 1.385 . S
C1221 C1222 1.389 . S
C1222 C1221 1.389 . S
C1222 C1223 1.387 . S
C1223 H1208 0.930 . S
C1223 C1218 1.390 . S
C1223 C1222 1.387 . S
H1224 C1236 0.930 . S
H1225 C1238 0.930 . S
H1226 C1239 0.930 . S
H1227 C1243 0.959 . S
H1228 C1243 0.959 . S
H1229 C1243 0.961 . S
H1230 C1244 0.960 . S
H1231 C1244 0.961 . S
H1232 C1244 0.959 . S
H1233 C1247 0.929 . S
H1234 C1248 0.931 . S
H1235 C1250 0.930 . S
C1236 H1224 0.930 . S
C1236 C1237 1.399 . S
C1236 C1241 1.399 . S
C1237 C1236 1.399 . S
C1237 C1238 1.376 . S
C1238 H1225 0.930 . S
C1238 C1237 1.376 . S
C1238 C1239 1.388 . S
C1239 H1226 0.930 . S
C1239 C1238 1.388 . S
C1239 C1240 1.390 . S
C1240 C1239 1.390 . S
C1240 C1241 1.394 . S
C1240 C1246 1.465 . S
C1241 C1236 1.399 . S
C1241 C1240 1.394 . S
C1241 C1242 1.516 . S
C1242 C1241 1.516 . S
C1242 C1243 1.502 . S
C1242 C1244 1.561 . S
C1242 C1245 1.526 . S
C1243 H1227 0.959 . S
C1243 H1228 0.959 . S
C1243 H1229 0.961 . S
C1243 C1242 1.502 . S
C1244 H1230 0.960 . S
C1244 H1231 0.961 . S
C1244 H1232 0.959 . S
C1244 C1242 1.561 . S
C1245 C1242 1.526 . S
C1245 C1246 1.396 . S
C1245 C1250 1.390 . S
C1246 C1240 1.465 . S
C1246 C1245 1.396 . S
C1246 C1247 1.399 . S
C1247 H1233 0.929 . S
C1247 C1246 1.399 . S
C1247 C1248 1.385 . S
C1248 H1234 0.931 . S
C1248 C1247 1.385 . S
C1248 C1249 1.389 . S
C1249 C1248 1.389 . S
C1249 C1250 1.387 . S
C1250 H1235 0.930 . S
C1250 C1245 1.390 . S
C1250 C1249 1.387 . S
H1251 C1263 0.930 . S
H1252 C1265 0.930 . S
H1253 C1266 0.951 . S
H1254 C1270 0.959 . S
H1255 C1270 0.959 . S
H1256 C1270 0.961 . S
H1257 C1271 0.960 . S
H1258 C1271 0.961 . S
H1259 C1271 0.959 . S
H1260 C1274 0.929 . S
H1261 C1275 0.931 . S
H1262 C1277 0.930 . S
C1263 H1251 0.930 . S
C1263 C1264 1.399 . S
C1263 C1268 1.399 . S
C1264 C1263 1.399 . S
C1264 C1265 1.376 . S
C1265 H1252 0.930 . S
C1265 C1264 1.376 . S
C1265 C1266 1.350 1_545 S
C1266 H1253 0.951 . S
C1266 C1265 1.350 1_565 S
C1266 C1267 1.408 . S
C1267 C1266 1.408 . S
C1267 C1268 1.394 1_565 S
C1267 C1273 1.465 . S
C1268 C1263 1.399 . S
C1268 C1267 1.394 1_545 S
C1268 C1269 1.516 . S
C1269 C1268 1.516 . S
C1269 C1270 1.502 . S
C1269 C1271 1.561 . S
C1269 C1272 1.526 1_545 S
C1270 H1254 0.959 . S
C1270 H1255 0.959 . S
C1270 H1256 0.961 . S
C1270 C1269 1.502 . S
C1271 H1257 0.960 . S
C1271 H1258 0.961 . S
C1271 H1259 0.959 . S
C1271 C1269 1.561 . S
C1272 C1269 1.526 1_565 S
C1272 C1273 1.396 . S
C1272 C1277 1.390 . S
C1273 C1267 1.465 . S
C1273 C1272 1.396 . S
C1273 C1274 1.399 . S
C1274 H1260 0.929 . S
C1274 C1273 1.399 . S
C1274 C1275 1.385 . S
C1275 H1261 0.931 . S
C1275 C1274 1.385 . S
C1275 C1276 1.389 . S
C1276 C1275 1.389 . S
C1276 C1277 1.387 . S
C1277 H1262 0.930 . S
C1277 C1272 1.390 . S
C1277 C1276 1.387 . S
H1278 C1290 0.930 . S
H1279 C1292 0.930 . S
H1280 C1293 0.930 . S
H1281 C1297 0.959 1_655 S
H1282 C1297 0.959 1_655 S
H1283 C1297 0.961 . S
H1284 C1298 0.960 . S
H1285 C1298 0.961 . S
H1286 C1298 0.959 . S
H1287 C1301 0.929 . S
H1288 C1302 0.931 . S
H1289 C1304 0.930 . S
C1290 H1278 0.930 . S
C1290 C1291 1.399 . S
C1290 C1295 1.399 . S
C1291 C1290 1.399 . S
C1291 C1292 1.376 . S
C1292 H1279 0.930 . S
C1292 C1291 1.376 . S
C1292 C1293 1.388 . S
C1293 H1280 0.930 . S
C1293 C1292 1.388 . S
C1293 C1294 1.390 . S
C1294 C1293 1.390 . S
C1294 C1295 1.394 . S
C1294 C1300 1.465 1_455 S
C1295 C1290 1.399 . S
C1295 C1294 1.394 . S
C1295 C1296 1.516 . S
C1296 C1295 1.516 . S
C1296 C1297 1.502 . S
C1296 C1298 1.561 . S
C1296 C1299 1.526 1_455 S
C1297 H1281 0.959 1_455 S
C1297 H1282 0.959 1_455 S
C1297 H1283 0.961 . S
C1297 C1296 1.502 . S
C1298 H1284 0.960 . S
C1298 H1285 0.961 . S
C1298 H1286 0.959 . S
C1298 C1296 1.561 . S
C1299 C1296 1.526 1_655 S
C1299 C1300 1.396 . S
C1299 C1304 1.390 . S
C1300 C1294 1.465 1_655 S
C1300 C1299 1.396 . S
C1300 C1301 1.399 . S
C1301 H1287 0.929 . S
C1301 C1300 1.399 . S
C1301 C1302 1.385 . S
C1302 H1288 0.931 . S
C1302 C1301 1.385 . S
C1302 C1303 1.389 . S
C1303 C1302 1.389 . S
C1303 C1304 1.387 . S
C1304 H1289 0.930 . S
C1304 C1299 1.390 . S
C1304 C1303 1.387 . S
H1305 C1317 0.930 . S
H1306 C1319 0.930 . S
H1307 C1320 0.930 . S
H1308 C1324 0.959 . S
H1309 C1324 0.959 . S
H1310 C1324 0.961 . S
H1311 C1325 0.960 . S
H1312 C1325 0.961 . S
H1313 C1325 0.959 . S
H1314 C1328 0.929 . S
H1315 C1329 0.931 . S
H1316 C1331 0.930 . S
C1317 H1305 0.930 . S
C1317 C1318 1.399 . S
C1317 C1322 1.399 . S
C1318 C1317 1.399 . S
C1318 C1319 1.376 . S
C1319 H1306 0.930 . S
C1319 C1318 1.376 . S
C1319 C1320 1.388 . S
C1320 H1307 0.930 . S
C1320 C1319 1.388 . S
C1320 C1321 1.390 . S
C1321 C1320 1.390 . S
C1321 C1322 1.394 . S
C1321 C1327 1.465 . S
C1322 C1317 1.399 . S
C1322 C1321 1.394 . S
C1322 C1323 1.516 . S
C1323 C1322 1.516 . S
C1323 C1324 1.502 . S
C1323 C1325 1.561 . S
C1323 C1326 1.526 . S
C1324 H1308 0.959 . S
C1324 H1309 0.959 . S
C1324 H1310 0.961 . S
C1324 C1323 1.502 . S
C1325 H1311 0.960 . S
C1325 H1312 0.961 . S
C1325 H1313 0.959 . S
C1325 C1323 1.561 . S
C1326 C1323 1.526 . S
C1326 C1327 1.396 . S
C1326 C1331 1.390 . S
C1327 C1321 1.465 . S
C1327 C1326 1.396 . S
C1327 C1328 1.399 . S
C1328 H1314 0.929 . S
C1328 C1327 1.399 . S
C1328 C1329 1.385 . S
C1329 H1315 0.931 . S
C1329 C1328 1.385 . S
C1329 C1330 1.389 . S
C1330 C1329 1.389 . S
C1330 C1331 1.387 . S
C1331 H1316 0.930 . S
C1331 C1326 1.390 . S
C1331 C1330 1.387 . S
H1332 C1344 0.930 . S
H1333 C1346 0.930 . S
H1334 C1347 0.930 . S
H1335 C1351 0.959 . S
H1336 C1351 0.959 . S
H1337 C1351 0.961 . S
H1338 C1352 0.960 . S
H1339 C1352 0.961 . S
H1340 C1352 0.959 . S
H1341 C1355 0.929 . S
H1342 C1356 0.931 . S
H1343 C1358 0.930 . S
C1344 H1332 0.930 . S
C1344 C1345 1.399 . S
C1344 C1349 1.399 . S
C1345 C1344 1.399 . S
C1345 C1346 1.376 . S
C1346 H1333 0.930 . S
C1346 C1345 1.376 . S
C1346 C1347 1.388 . S
C1347 H1334 0.930 . S
C1347 C1346 1.388 . S
C1347 C1348 1.390 . S
C1348 C1347 1.390 . S
C1348 C1349 1.394 . S
C1348 C1354 1.465 1_545 S
C1349 C1344 1.399 . S
C1349 C1348 1.394 . S
C1349 C1350 1.516 1_545 S
C1350 C1349 1.516 1_565 S
C1350 C1351 1.502 . S
C1350 C1352 1.561 . S
C1350 C1353 1.526 . S
C1351 H1335 0.959 . S
C1351 H1336 0.959 . S
C1351 H1337 0.961 . S
C1351 C1350 1.502 . S
C1352 H1338 0.960 . S
C1352 H1339 0.961 . S
C1352 H1340 0.959 . S
C1352 C1350 1.561 . S
C1353 C1350 1.526 . S
C1353 C1354 1.396 . S
C1353 C1358 1.390 . S
C1354 C1348 1.465 1_565 S
C1354 C1353 1.396 . S
C1354 C1355 1.399 . S
C1355 H1341 0.929 . S
C1355 C1354 1.399 . S
C1355 C1356 1.385 . S
C1356 H1342 0.931 . S
C1356 C1355 1.385 . S
C1356 C1357 1.389 . S
C1357 C1356 1.389 . S
C1357 C1358 1.387 . S
C1358 H1343 0.930 . S
C1358 C1353 1.390 . S
C1358 C1357 1.387 . S
H1359 C1371 0.930 . S
H1360 C1373 0.930 . S
H1361 C1374 0.930 . S
H1362 C1378 0.959 . S
H1363 C1378 0.959 . S
H1364 C1378 0.961 1_455 S
H1365 C1379 0.960 . S
H1366 C1379 0.961 . S
H1367 C1379 0.959 . S
H1368 C1382 0.929 . S
H1369 C1383 0.931 . S
H1370 C1385 0.930 . S
C1371 H1359 0.930 . S
C1371 C1372 1.399 . S
C1371 C1376 1.399 . S
C1372 C1371 1.399 . S
C1372 C1373 1.376 . S
C1373 H1360 0.930 . S
C1373 C1372 1.376 . S
C1373 C1374 1.388 . S
C1374 H1361 0.930 . S
C1374 C1373 1.388 . S
C1374 C1375 1.390 . S
C1375 C1374 1.390 . S
C1375 C1376 1.394 . S
C1375 C1381 1.465 1_455 S
C1376 C1371 1.399 . S
C1376 C1375 1.394 . S
C1376 C1377 1.516 1_455 S
C1377 C1376 1.516 1_655 S
C1377 C1378 1.502 . S
C1377 C1379 1.561 . S
C1377 C1380 1.526 . S
C1378 H1362 0.959 . S
C1378 H1363 0.959 . S
C1378 H1364 0.961 1_655 S
C1378 C1377 1.502 . S
C1379 H1365 0.960 . S
C1379 H1366 0.961 . S
C1379 H1367 0.959 . S
C1379 C1377 1.561 . S
C1380 C1377 1.526 . S
C1380 C1381 1.396 . S
C1380 C1385 1.390 . S
C1381 C1375 1.465 1_655 S
C1381 C1380 1.396 . S
C1381 C1382 1.399 . S
C1382 H1368 0.929 . S
C1382 C1381 1.399 . S
C1382 C1383 1.385 . S
C1383 H1369 0.931 . S
C1383 C1382 1.385 . S
C1383 C1384 1.389 . S
C1384 C1383 1.389 . S
C1384 C1385 1.387 . S
C1385 H1370 0.930 . S
C1385 C1380 1.390 . S
C1385 C1384 1.387 . S
C427 N104 1.131 . S
C439 N12 1.136 . S
C454 N117 1.865 . S
C466 C39 1.867 . S
C481 N58 1.135 . S
C493 N71 1.177 . S
C508 N94 1.179 . S
C520 N2 1.201 . S
C535 N127 1.816 . S
C547 C30 1.868 . S
C562 N48 1.114 . S
C574 N81 1.123 . S
C589 N232 1.175 . S
C601 N150 1.139 . S
C616 N255 1.194 . S
C628 N173 1.154 . S
C643 N196 1.170 . S
C655 N209 1.135 . S
C670 N140 1.102 . S
C682 N242 1.108 . S
C697 N265 1.172 . S
C709 N163 1.177 . S
C724 N219 1.152 . S
C736 N186 1.169 . S
C751 N380 1.143 . S
C763 N288 1.141 . S
C778 C315 1.867 . S
C790 N403 1.859 . S
C805 N347 1.153 . S
C817 N324 1.179 . S
C832 N370 1.153 . S
C844 N278 1.134 . S
C859 N393 1.837 . S
C871 C306 1.883 . S
C886 N334 1.125 . S
C898 N357 1.089 . S
C913 C16 1.493 . S
C925 C214 1.491 . S
C940 C237 1.566 . S
C952 N35 1.548 . S
C967 C260 1.526 . S
C979 C62 1.525 . S
C994 C76 1.575 . S
C1006 C292 1.573 . S
C1021 N311 1.504 . S
C1033 C108 1.489 . S
C1048 C329 1.571 . S
C1060 C122 1.551 . S
C1075 C361 1.497 . S
C1087 C7 1.491 . S
C1102 C375 1.598 . S
C1114 N25 1.601 . S
C1129 C398 1.510 . S
C1141 C53 1.519 . S
C1156 C85 1.541 . S
C1168 C145 1.526 . S
C1183 C99 1.526 . S
C1195 C168 1.535 . S
C1210 C191 1.545 . S
C1222 C131 1.504 . S
C1237 C352 1.529 . S
C1249 C154 1.532 . S
C1264 C384 1.557 . S
C1276 C177 1.564 . S
C1291 C200 1.522 . S
C1303 C407 1.521 . S
C1318 C283 1.569 . S
C1330 C223 1.532 . S
C1345 N301 1.481 . S
C1357 C246 1.476 . S
C1372 C269 1.509 . S
C1384 C338 1.556 . S
