# Generated by pormake.
# Topology wgj, (5)-cn, num edge types: 1
# Building blocks:
#     Node 0, Type 0, BuildingBlock: XOMCOT_clean_sbu_1, # of connection points: 5
#     Node 1, Type 0, BuildingBlock: XOMCOT_clean_sbu_1, # of connection points: 5
#     Node 2, Type 0, BuildingBlock: XOMCOT_clean_sbu_1, # of connection points: 5
#     Node 3, Type 0, BuildingBlock: XOMCOT_clean_sbu_1, # of connection points: 5
#     Node 4, Type 0, BuildingBlock: XOMCOT_clean_sbu_1, # of connection points: 5
#     Node 5, Type 0, BuildingBlock: XOMCOT_clean_sbu_1, # of connection points: 5
#     Node 6, Type 0, BuildingBlock: XOMCOT_clean_sbu_1, # of connection points: 5
#     Node 7, Type 0, BuildingBlock: XOMCOT_clean_sbu_1, # of connection points: 5
#     Node 8, Type 0, BuildingBlock: XOMCOT_clean_sbu_1, # of connection points: 5
#     Node 9, Type 0, BuildingBlock: XOMCOT_clean_sbu_1, # of connection points: 5
#     Node 10, Type 0, BuildingBlock: XOMCOT_clean_sbu_1, # of connection points: 5
#     Node 11, Type 0, BuildingBlock: XOMCOT_clean_sbu_1, # of connection points: 5
#     Node 12, Type 0, BuildingBlock: XOMCOT_clean_sbu_1, # of connection points: 5
#     Node 13, Type 0, BuildingBlock: XOMCOT_clean_sbu_1, # of connection points: 5
#     Node 14, Type 0, BuildingBlock: XOMCOT_clean_sbu_1, # of connection points: 5
#     Node 15, Type 0, BuildingBlock: XOMCOT_clean_sbu_1, # of connection points: 5
#     Node 16, Type 0, BuildingBlock: XOMCOT_clean_sbu_1, # of connection points: 5
#     Node 17, Type 0, BuildingBlock: XOMCOT_clean_sbu_1, # of connection points: 5
#     Node 18, Type 0, BuildingBlock: XOMCOT_clean_sbu_1, # of connection points: 5
#     Node 19, Type 0, BuildingBlock: XOMCOT_clean_sbu_1, # of connection points: 5
#     Node 20, Type 0, BuildingBlock: XOMCOT_clean_sbu_1, # of connection points: 5
#     Node 21, Type 0, BuildingBlock: XOMCOT_clean_sbu_1, # of connection points: 5
#     Node 22, Type 0, BuildingBlock: XOMCOT_clean_sbu_1, # of connection points: 5
#     Node 23, Type 0, BuildingBlock: XOMCOT_clean_sbu_1, # of connection points: 5
#     Node 24, Type 0, BuildingBlock: XOMCOT_clean_sbu_1, # of connection points: 5
#     Node 25, Type 0, BuildingBlock: XOMCOT_clean_sbu_1, # of connection points: 5
#     Node 26, Type 0, BuildingBlock: XOMCOT_clean_sbu_1, # of connection points: 5
#     Node 27, Type 0, BuildingBlock: XOMCOT_clean_sbu_1, # of connection points: 5
#     Node 28, Type 0, BuildingBlock: XOMCOT_clean_sbu_1, # of connection points: 5
#     Node 29, Type 0, BuildingBlock: XOMCOT_clean_sbu_1, # of connection points: 5
#     Node 30, Type 0, BuildingBlock: XOMCOT_clean_sbu_1, # of connection points: 5
#     Node 31, Type 0, BuildingBlock: XOMCOT_clean_sbu_1, # of connection points: 5
#     Edge 32, Type (0, 0), BuildingBlock: AJUNOK_clean_linker_0, # of connection points: 2
#     Edge 33, Type (0, 0), BuildingBlock: AJUNOK_clean_linker_0, # of connection points: 2
#     Edge 34, Type (0, 0), BuildingBlock: AJUNOK_clean_linker_0, # of connection points: 2
#     Edge 35, Type (0, 0), BuildingBlock: AJUNOK_clean_linker_0, # of connection points: 2
#     Edge 36, Type (0, 0), BuildingBlock: AJUNOK_clean_linker_0, # of connection points: 2
#     Edge 37, Type (0, 0), BuildingBlock: AJUNOK_clean_linker_0, # of connection points: 2
#     Edge 38, Type (0, 0), BuildingBlock: AJUNOK_clean_linker_0, # of connection points: 2
#     Edge 39, Type (0, 0), BuildingBlock: AJUNOK_clean_linker_0, # of connection points: 2
#     Edge 40, Type (0, 0), BuildingBlock: AJUNOK_clean_linker_0, # of connection points: 2
#     Edge 41, Type (0, 0), BuildingBlock: AJUNOK_clean_linker_0, # of connection points: 2
#     Edge 42, Type (0, 0), BuildingBlock: AJUNOK_clean_linker_0, # of connection points: 2
#     Edge 43, Type (0, 0), BuildingBlock: AJUNOK_clean_linker_0, # of connection points: 2
#     Edge 44, Type (0, 0), BuildingBlock: AJUNOK_clean_linker_0, # of connection points: 2
#     Edge 45, Type (0, 0), BuildingBlock: AJUNOK_clean_linker_0, # of connection points: 2
#     Edge 46, Type (0, 0), BuildingBlock: AJUNOK_clean_linker_0, # of connection points: 2
#     Edge 47, Type (0, 0), BuildingBlock: AJUNOK_clean_linker_0, # of connection points: 2
#     Edge 48, Type (0, 0), BuildingBlock: AJUNOK_clean_linker_0, # of connection points: 2
#     Edge 49, Type (0, 0), BuildingBlock: AJUNOK_clean_linker_0, # of connection points: 2
#     Edge 50, Type (0, 0), BuildingBlock: AJUNOK_clean_linker_0, # of connection points: 2
#     Edge 51, Type (0, 0), BuildingBlock: AJUNOK_clean_linker_0, # of connection points: 2
#     Edge 52, Type (0, 0), BuildingBlock: AJUNOK_clean_linker_0, # of connection points: 2
#     Edge 53, Type (0, 0), BuildingBlock: AJUNOK_clean_linker_0, # of connection points: 2
#     Edge 54, Type (0, 0), BuildingBlock: AJUNOK_clean_linker_0, # of connection points: 2
#     Edge 55, Type (0, 0), BuildingBlock: AJUNOK_clean_linker_0, # of connection points: 2
#     Edge 56, Type (0, 0), BuildingBlock: AJUNOK_clean_linker_0, # of connection points: 2
#     Edge 57, Type (0, 0), BuildingBlock: AJUNOK_clean_linker_0, # of connection points: 2
#     Edge 58, Type (0, 0), BuildingBlock: AJUNOK_clean_linker_0, # of connection points: 2
#     Edge 59, Type (0, 0), BuildingBlock: AJUNOK_clean_linker_0, # of connection points: 2
#     Edge 60, Type (0, 0), BuildingBlock: AJUNOK_clean_linker_0, # of connection points: 2
#     Edge 61, Type (0, 0), BuildingBlock: AJUNOK_clean_linker_0, # of connection points: 2
#     Edge 62, Type (0, 0), BuildingBlock: AJUNOK_clean_linker_0, # of connection points: 2
#     Edge 63, Type (0, 0), BuildingBlock: AJUNOK_clean_linker_0, # of connection points: 2
#     Edge 64, Type (0, 0), BuildingBlock: AJUNOK_clean_linker_0, # of connection points: 2
#     Edge 65, Type (0, 0), BuildingBlock: AJUNOK_clean_linker_0, # of connection points: 2
#     Edge 66, Type (0, 0), BuildingBlock: AJUNOK_clean_linker_0, # of connection points: 2
#     Edge 67, Type (0, 0), BuildingBlock: AJUNOK_clean_linker_0, # of connection points: 2
#     Edge 68, Type (0, 0), BuildingBlock: AJUNOK_clean_linker_0, # of connection points: 2
#     Edge 69, Type (0, 0), BuildingBlock: AJUNOK_clean_linker_0, # of connection points: 2
#     Edge 70, Type (0, 0), BuildingBlock: AJUNOK_clean_linker_0, # of connection points: 2
#     Edge 71, Type (0, 0), BuildingBlock: AJUNOK_clean_linker_0, # of connection points: 2
#     Edge 72, Type (0, 0), BuildingBlock: AJUNOK_clean_linker_0, # of connection points: 2
#     Edge 73, Type (0, 0), BuildingBlock: AJUNOK_clean_linker_0, # of connection points: 2
#     Edge 74, Type (0, 0), BuildingBlock: AJUNOK_clean_linker_0, # of connection points: 2
#     Edge 75, Type (0, 0), BuildingBlock: AJUNOK_clean_linker_0, # of connection points: 2
#     Edge 76, Type (0, 0), BuildingBlock: AJUNOK_clean_linker_0, # of connection points: 2
#     Edge 77, Type (0, 0), BuildingBlock: AJUNOK_clean_linker_0, # of connection points: 2
#     Edge 78, Type (0, 0), BuildingBlock: AJUNOK_clean_linker_0, # of connection points: 2
#     Edge 79, Type (0, 0), BuildingBlock: AJUNOK_clean_linker_0, # of connection points: 2
#     Edge 80, Type (0, 0), BuildingBlock: AJUNOK_clean_linker_0, # of connection points: 2
#     Edge 81, Type (0, 0), BuildingBlock: AJUNOK_clean_linker_0, # of connection points: 2
#     Edge 82, Type (0, 0), BuildingBlock: AJUNOK_clean_linker_0, # of connection points: 2
#     Edge 83, Type (0, 0), BuildingBlock: AJUNOK_clean_linker_0, # of connection points: 2
#     Edge 84, Type (0, 0), BuildingBlock: AJUNOK_clean_linker_0, # of connection points: 2
#     Edge 85, Type (0, 0), BuildingBlock: AJUNOK_clean_linker_0, # of connection points: 2
#     Edge 86, Type (0, 0), BuildingBlock: AJUNOK_clean_linker_0, # of connection points: 2
#     Edge 87, Type (0, 0), BuildingBlock: AJUNOK_clean_linker_0, # of connection points: 2
#     Edge 88, Type (0, 0), BuildingBlock: AJUNOK_clean_linker_0, # of connection points: 2
#     Edge 89, Type (0, 0), BuildingBlock: AJUNOK_clean_linker_0, # of connection points: 2
#     Edge 90, Type (0, 0), BuildingBlock: AJUNOK_clean_linker_0, # of connection points: 2
#     Edge 91, Type (0, 0), BuildingBlock: AJUNOK_clean_linker_0, # of connection points: 2
#     Edge 92, Type (0, 0), BuildingBlock: AJUNOK_clean_linker_0, # of connection points: 2
#     Edge 93, Type (0, 0), BuildingBlock: AJUNOK_clean_linker_0, # of connection points: 2
#     Edge 94, Type (0, 0), BuildingBlock: AJUNOK_clean_linker_0, # of connection points: 2
#     Edge 95, Type (0, 0), BuildingBlock: AJUNOK_clean_linker_0, # of connection points: 2
#     Edge 96, Type (0, 0), BuildingBlock: AJUNOK_clean_linker_0, # of connection points: 2
#     Edge 97, Type (0, 0), BuildingBlock: AJUNOK_clean_linker_0, # of connection points: 2
#     Edge 98, Type (0, 0), BuildingBlock: AJUNOK_clean_linker_0, # of connection points: 2
#     Edge 99, Type (0, 0), BuildingBlock: AJUNOK_clean_linker_0, # of connection points: 2
#     Edge 100, Type (0, 0), BuildingBlock: AJUNOK_clean_linker_0, # of connection points: 2
#     Edge 101, Type (0, 0), BuildingBlock: AJUNOK_clean_linker_0, # of connection points: 2
#     Edge 102, Type (0, 0), BuildingBlock: AJUNOK_clean_linker_0, # of connection points: 2
#     Edge 103, Type (0, 0), BuildingBlock: AJUNOK_clean_linker_0, # of connection points: 2
#     Edge 104, Type (0, 0), BuildingBlock: AJUNOK_clean_linker_0, # of connection points: 2
#     Edge 105, Type (0, 0), BuildingBlock: AJUNOK_clean_linker_0, # of connection points: 2
#     Edge 106, Type (0, 0), BuildingBlock: AJUNOK_clean_linker_0, # of connection points: 2
#     Edge 107, Type (0, 0), BuildingBlock: AJUNOK_clean_linker_0, # of connection points: 2
#     Edge 108, Type (0, 0), BuildingBlock: AJUNOK_clean_linker_0, # of connection points: 2
#     Edge 109, Type (0, 0), BuildingBlock: AJUNOK_clean_linker_0, # of connection points: 2
#     Edge 110, Type (0, 0), BuildingBlock: AJUNOK_clean_linker_0, # of connection points: 2
#     Edge 111, Type (0, 0), BuildingBlock: AJUNOK_clean_linker_0, # of connection points: 2
# Relax obj value: 0.277
# Max RMSD: 0.146
# Mean RMSD: 0.146
data_MOF--net-wgj--node1-XOMCOT_clean_sbu_1--edge1-AJUNOK_clean_linker_0
_symmetry_space_group_name_H-M    P1
_symmetry_Int_Tables_number       1
_symmetry_cell_setting            triclinic
loop_
_symmetry_equiv_pos_as_xyz
'x, y, z'
_cell_length_a     51.498695
_cell_length_b     51.47895
_cell_length_c     21.928297
_cell_angle_alpha  90.012794
_cell_angle_beta   90.020335
_cell_angle_gamma 90.009568
loop_
_atom_site_label
_atom_site_type_symbol
_atom_site_fract_x
_atom_site_fract_y
_atom_site_fract_z
_atom_type_partial_charge
C0 C 0.20497 0.20174 0.26562 0.0
C1 C 0.22194 0.22093 0.24784 0.0
N2 N 0.23649 0.22747 0.29647 0.0
N3 N 0.20924 0.19602 0.32474 0.0
C4 C 0.22868 0.21186 0.34214 0.0
H5 H 0.18919 0.19399 0.23867 0.0
Co6 Co 0.1871 0.17729 0.37372 0.0
C7 C 0.22007 0.1676 0.48946 0.0
O8 O 0.19972 0.1675 0.5256 0.0
N9 N 0.16338 0.15837 0.42103 0.0
C10 C 0.14216 0.12534 0.46382 0.0
C11 C 0.16633 0.13534 0.44971 0.0
C12 C 0.13736 0.16165 0.41727 0.0
N13 N 0.12405 0.14182 0.44242 0.0
O14 O 0.19554 0.14614 0.32748 0.0
H15 H 0.18467 0.12542 0.45553 0.0
H16 H 0.12824 0.17724 0.39217 0.0
O17 O 0.2167 0.17096 0.43189 0.0
C18 C 0.17739 0.141 0.28948 0.0
O19 O 0.15632 0.15534 0.29063 0.0
N20 N 0.17702 0.20891 0.41074 0.0
C21 C 0.16613 0.26189 0.42192 0.0
C22 C 0.18244 0.24946 0.46409 0.0
C23 C 0.18808 0.22289 0.45706 0.0
C24 C 0.15959 0.22049 0.37262 0.0
C25 C 0.154 0.24691 0.37709 0.0
H26 H 0.20279 0.21459 0.48581 0.0
H27 H 0.15166 0.20956 0.33482 0.0
H28 H 0.23578 0.21319 0.38845 0.0
H29 H 0.22219 0.23073 0.20416 0.0
H30 H 0.13819 0.10651 0.48371 0.0
H31 H 0.19227 0.26057 0.49911 0.0
H32 H 0.1413 0.25584 0.34374 0.0
C33 C 0.08777 0.95355 0.51597 0.0
C34 C 0.06878 0.97081 0.49868 0.0
N35 N 0.06339 0.98621 0.54669 0.0
N36 N 0.09443 0.95831 0.57431 0.0
C37 C 0.0796 0.97857 0.59146 0.0
H38 H 0.09473 0.93727 0.48943 0.0
Co39 Co 0.11306 0.93592 0.62284 0.0
C40 C 0.12172 0.96792 0.74009 0.0
O41 O 0.11998 0.94728 0.77513 0.0
N42 N 0.13204 0.91195 0.66975 0.0
C43 C 0.1652 0.89108 0.71304 0.0
C44 C 0.15477 0.91514 0.6996 0.0
C45 C 0.12936 0.88588 0.66484 0.0
N46 N 0.1493 0.87279 0.69011 0.0
O47 O 0.14408 0.94436 0.57662 0.0
H48 H 0.16422 0.93365 0.70679 0.0
H49 H 0.11412 0.87655 0.63906 0.0
O50 O 0.11962 0.96516 0.68199 0.0
C51 C 0.14864 0.9263 0.53798 0.0
O52 O 0.13401 0.90543 0.53919 0.0
N53 N 0.08141 0.92578 0.65955 0.0
C54 C 0.02884 0.91235 0.67191 0.0
C55 C 0.04017 0.93132 0.7097 0.0
C56 C 0.06647 0.93798 0.70244 0.0
C57 C 0.07076 0.90692 0.62376 0.0
C58 C 0.04472 0.89989 0.62914 0.0
H59 H 0.0738 0.95423 0.728 0.0
H60 H 0.08206 0.89872 0.58694 0.0
H61 H 0.07958 0.98651 0.63706 0.0
H62 H 0.05833 0.9707 0.45583 0.0
H63 H 0.18392 0.88735 0.73375 0.0
H64 H 0.0285 0.94176 0.74267 0.0
H65 H 0.03677 0.886 0.59712 0.0
C66 C 0.33694 0.84034 0.76373 0.0
C67 C 0.32005 0.82166 0.74305 0.0
N68 N 0.30404 0.81539 0.78924 0.0
N69 N 0.33132 0.84591 0.82229 0.0
C70 C 0.31115 0.83044 0.83658 0.0
H71 H 0.35366 0.8477 0.73943 0.0
Co72 Co 0.35336 0.86354 0.87317 0.0
C73 C 0.32195 0.87179 0.99029 0.0
O74 O 0.34314 0.86986 1.02333 0.0
N75 N 0.37731 0.88147 0.92217 0.0
C76 C 0.39921 0.91375 0.9659 0.0
C77 C 0.37486 0.90454 0.95079 0.0
C78 C 0.40323 0.87738 0.91964 0.0
N79 N 0.41711 0.89665 0.94584 0.0
O80 O 0.34553 0.89535 0.82883 0.0
H81 H 0.35677 0.91497 0.95609 0.0
H82 H 0.41185 0.8621 0.89281 0.0
O83 O 0.3238 0.86978 0.93194 0.0
C84 C 0.36385 0.90103 0.79174 0.0
O85 O 0.38516 0.88706 0.79327 0.0
N86 N 0.36263 0.83122 0.90819 0.0
C87 C 0.37328 0.77808 0.91705 0.0
C88 C 0.35532 0.7898 0.9564 0.0
C89 C 0.34993 0.81644 0.95067 0.0
C90 C 0.38097 0.82008 0.87168 0.0
C91 C 0.38662 0.79365 0.87535 0.0
H92 H 0.33409 0.82415 0.97687 0.0
H93 H 0.38976 0.83141 0.83566 0.0
H94 H 0.3032 0.82865 0.88207 0.0
H95 H 0.321 0.81182 0.69947 0.0
H96 H 0.4034 0.93232 0.98689 0.0
H97 H 0.34428 0.77815 0.98834 0.0
H98 H 0.4004 0.78519 0.84375 0.0
C99 C 0.45281 0.09075 1.01825 0.0
C100 C 0.47166 0.07403 0.99772 0.0
N101 N 0.47711 0.05719 1.0429 0.0
N102 N 0.44633 0.0843 0.0758 0.0
C103 C 0.46142 0.06376 0.08961 0.0
H104 H 0.44574 0.10775 0.99453 0.0
Co105 Co 0.42732 0.10561 0.12601 0.0
C106 C 0.41852 0.07361 0.24177 0.0
O107 O 0.41997 0.09483 0.27489 0.0
N108 N 0.40788 0.12882 0.17438 0.0
C109 C 0.37346 0.14889 0.21406 0.0
C110 C 0.38424 0.12512 0.19953 0.0
C111 C 0.41083 0.15496 0.17366 0.0
N112 N 0.39018 0.16768 0.1971 0.0
O113 O 0.39644 0.09731 0.07856 0.0
H114 H 0.37445 0.10656 0.20206 0.0
H115 H 0.42679 0.16473 0.15149 0.0
O116 O 0.42097 0.07553 0.1835 0.0
C117 C 0.39093 0.11584 1.04186 0.0
O118 O 0.40439 0.13744 1.04558 0.0
N119 N 0.4588 0.11546 0.16391 0.0
C120 C 0.51162 0.12789 0.17615 0.0
C121 C 0.50023 0.10837 0.21215 0.0
C122 C 0.47383 0.1022 0.2049 0.0
C123 C 0.46949 0.13487 0.12993 0.0
C124 C 0.49567 0.14138 0.13521 0.0
H125 H 0.46652 0.08546 0.22863 0.0
H126 H 0.45813 0.14385 0.09422 0.0
H127 H 0.46225 0.05494 0.13435 0.0
H128 H 0.48201 0.07554 0.95491 0.0
H129 H 0.35393 0.15212 0.23063 0.0
H130 H 0.51189 0.0971 0.2436 0.0
H131 H 0.50363 0.15569 0.10425 0.0
C132 C 0.20009 0.83735 0.33197 0.0
C133 C 0.21725 0.81898 0.35306 0.0
N134 N 0.23406 0.81356 0.30781 0.0
N135 N 0.2063 0.84354 0.2741 0.0
C136 C 0.2271 0.82877 0.26065 0.0
H137 H 0.18306 0.84436 0.35567 0.0
Co138 Co 0.18517 0.86215 0.22281 0.0
C139 C 0.21859 0.87074 0.1087 0.0
O140 O 0.19818 0.8689 0.07299 0.0
N141 N 0.16229 0.88124 0.17308 0.0
C142 C 0.14276 0.9153 0.13035 0.0
C143 C 0.16634 0.90449 0.14623 0.0
C144 C 0.13614 0.87857 0.17356 0.0
N145 N 0.12376 0.89901 0.14821 0.0
O146 O 0.19308 0.8933 0.26965 0.0
H147 H 0.18499 0.91407 0.14338 0.0
H148 H 0.12612 0.86304 0.1968 0.0
O149 O 0.21551 0.86854 0.1667 0.0
C150 C 0.1745 0.89938 0.30562 0.0
O151 O 0.1527 0.88626 0.30186 0.0
N152 N 0.1758 0.83037 0.18517 0.0
C153 C 0.16486 0.77715 0.17552 0.0
C154 C 0.1844 0.78858 0.13981 0.0
C155 C 0.18979 0.81523 0.14572 0.0
C156 C 0.15606 0.81962 0.21806 0.0
C157 C 0.15019 0.79323 0.21373 0.0
H158 H 0.20666 0.82268 0.12276 0.0
H159 H 0.14631 0.83113 0.25233 0.0
H160 H 0.23589 0.82777 0.21591 0.0
H161 H 0.21618 0.80892 0.39634 0.0
H162 H 0.13978 0.93462 0.11216 0.0
H163 H 0.19666 0.77672 0.11092 0.0
H164 H 0.13507 0.78521 0.24247 0.0
C165 C 0.45128 0.955 0.58791 0.0
C166 C 0.46982 0.97218 0.60804 0.0
N167 N 0.47549 0.98843 0.56185 0.0
N168 N 0.44546 0.96042 0.52936 0.0
C169 C 0.46039 0.98099 0.51483 0.0
H170 H 0.44414 0.9383 0.61264 0.0
Co171 Co 0.42762 0.93816 0.47888 0.0
C172 C 0.41956 0.97049 0.36198 0.0
O173 O 0.42187 0.94991 0.32692 0.0
N174 N 0.40938 0.91411 0.43037 0.0
C175 C 0.37664 0.89301 0.3858 0.0
C176 C 0.38686 0.91714 0.39954 0.0
C177 C 0.41211 0.88804 0.43557 0.0
N178 N 0.39242 0.8748 0.40954 0.0
O179 O 0.39604 0.94616 0.5234 0.0
H180 H 0.37732 0.93558 0.39203 0.0
H181 H 0.42715 0.87883 0.46222 0.0
O182 O 0.42131 0.96771 0.42017 0.0
C183 C 0.39082 0.92809 0.56147 0.0
O184 O 0.40519 0.90704 0.56088 0.0
N185 N 0.45979 0.92864 0.44362 0.0
C186 C 0.51282 0.91731 0.43507 0.0
C187 C 0.50142 0.93572 0.39625 0.0
C188 C 0.47483 0.94145 0.40185 0.0
C189 C 0.47057 0.90987 0.4795 0.0
C190 C 0.49693 0.90388 0.47596 0.0
H191 H 0.46734 0.95758 0.37619 0.0
H192 H 0.45906 0.90101 0.51508 0.0
H193 H 0.46216 0.98869 0.4691 0.0
H194 H 0.47962 0.97172 0.65172 0.0
H195 H 0.35808 0.88918 0.36441 0.0
H196 H 0.51329 0.94682 0.36489 0.0
H197 H 0.5051 0.88974 0.50713 0.0
C198 C 0.33729 0.20447 0.82946 0.0
C199 C 0.31924 0.22275 0.84644 0.0
N200 N 0.30236 0.2259 0.80004 0.0
N201 N 0.33167 0.19607 0.77284 0.0
C202 C 0.31001 0.209 0.75664 0.0
H203 H 0.35458 0.19925 0.85461 0.0
Co204 Co 0.35452 0.17802 0.72429 0.0
C205 C 0.32378 0.16994 0.60608 0.0
O206 O 0.34479 0.1737 0.57327 0.0
N207 N 0.37897 0.15949 0.67725 0.0
C208 C 0.39975 0.12686 0.63137 0.0
C209 C 0.37575 0.13716 0.64568 0.0
C210 C 0.40505 0.16195 0.68255 0.0
N211 N 0.41808 0.14237 0.65551 0.0
O212 O 0.3467 0.14677 0.77012 0.0
H213 H 0.35724 0.12786 0.6376 0.0
H214 H 0.41447 0.17671 0.70964 0.0
O215 O 0.32561 0.17081 0.66454 0.0
C216 C 0.36461 0.14278 0.80945 0.0
O217 O 0.38504 0.15803 0.80893 0.0
N218 N 0.36393 0.21011 0.68794 0.0
C219 C 0.37514 0.2634 0.67868 0.0
C220 C 0.35564 0.25197 0.64264 0.0
C221 C 0.35001 0.22538 0.64866 0.0
C222 C 0.38357 0.22083 0.7213 0.0
C223 C 0.38965 0.2472 0.71698 0.0
H224 H 0.33311 0.21807 0.62554 0.0
H225 H 0.39304 0.20938 0.75607 0.0
H226 H 0.30096 0.20717 0.71243 0.0
H227 H 0.31978 0.23435 0.88762 0.0
H228 H 0.40342 0.10844 0.60915 0.0
H229 H 0.34398 0.26368 0.61211 0.0
H230 H 0.40448 0.25513 0.74669 0.0
C231 C 0.0897 0.08547 0.08669 0.0
C232 C 0.07027 0.06915 0.10611 0.0
N233 N 0.06338 0.05394 0.05884 0.0
N234 N 0.09505 0.08033 1.02776 0.0
C235 C 0.079 0.06075 1.01233 0.0
H236 H 0.09774 0.10155 0.11217 0.0
Co237 Co 0.11316 0.10241 0.97748 0.0
C238 C 0.1216 0.071 0.86049 0.0
O239 O 0.1199 0.09227 0.82765 0.0
N240 N 0.13168 0.12619 0.92886 0.0
C241 C 0.16518 0.14695 0.88696 0.0
C242 C 0.1551 0.12298 0.90225 0.0
C243 C 0.12819 0.15225 0.92989 0.0
N244 N 0.14826 0.16537 0.90497 0.0
O245 O 0.14461 0.09433 1.02276 0.0
H246 H 0.16522 0.10462 0.89896 0.0
H247 H 0.11227 0.16167 0.95311 0.0
O248 O 0.1194 0.07277 0.9188 0.0
C249 C 0.15038 0.11279 0.05945 0.0
O250 O 0.13669 0.13427 0.05703 0.0
N251 N 0.08109 0.11209 0.94173 0.0
C252 C 0.02776 0.12278 0.93367 0.0
C253 C 0.03953 0.10468 0.89438 0.0
C254 C 0.06619 0.09934 0.89959 0.0
C255 C 0.07013 0.1307 0.97775 0.0
C256 C 0.04369 0.13643 0.97434 0.0
H257 H 0.07386 0.08353 0.87319 0.0
H258 H 0.08162 0.13964 1.01333 0.0
H259 H 0.07686 0.05343 0.96634 0.0
H260 H 0.06085 0.06955 0.15022 0.0
H261 H 0.18441 0.1506 0.86898 0.0
H262 H 0.02807 0.0939 0.86161 0.0
H263 H 0.03553 0.15031 1.00614 0.0
C264 C 0.83482 0.84013 0.83714 0.0
C265 C 0.81688 0.82228 0.85705 0.0
N266 N 0.80135 0.81621 0.80974 0.0
N267 N 0.83035 0.84539 0.7779 0.0
C268 C 0.80985 0.83054 0.76246 0.0
H269 H 0.85129 0.84725 0.86276 0.0
Co270 Co 0.85302 0.86272 0.72784 0.0
C271 C 0.82093 0.87151 0.61073 0.0
O272 O 0.84145 0.86991 0.57533 0.0
N273 N 0.87738 0.88032 0.67935 0.0
C274 C 0.89954 0.91223 0.63493 0.0
C275 C 0.87511 0.90311 0.64948 0.0
C276 C 0.90329 0.87628 0.68309 0.0
N277 N 0.91734 0.89534 0.65652 0.0
O278 O 0.84524 0.89469 0.77157 0.0
H279 H 0.85705 0.91347 0.64296 0.0
H280 H 0.91175 0.86119 0.71084 0.0
O281 O 0.82383 0.86917 0.66872 0.0
C282 C 0.86337 0.90035 0.80915 0.0
O283 O 0.88454 0.88615 0.80877 0.0
N284 N 0.86218 0.83031 0.69331 0.0
C285 C 0.87312 0.77709 0.68302 0.0
C286 C 0.85535 0.7892 0.64342 0.0
C287 C 0.84986 0.81579 0.64981 0.0
C288 C 0.88029 0.81901 0.73012 0.0
C289 C 0.88615 0.79264 0.7256 0.0
H290 H 0.83446 0.8238 0.62262 0.0
H291 H 0.88886 0.83019 0.76672 0.0
H292 H 0.80251 0.82873 0.71642 0.0
H293 H 0.81669 0.81286 0.90119 0.0
H294 H 0.90386 0.93059 0.61317 0.0
H295 H 0.84504 0.77807 0.60923 0.0
H296 H 0.89969 0.78421 0.75782 0.0
C297 C 0.95265 0.08904 0.58333 0.0
C298 C 0.97126 0.07211 0.60407 0.0
N299 N 0.97656 0.05516 0.55899 0.0
N300 N 0.94621 0.08263 0.52574 0.0
C301 C 0.96099 0.06186 0.51215 0.0
H302 H 0.94581 0.10618 0.60686 0.0
Co303 Co 0.92791 0.10432 0.47529 0.0
C304 C 0.91957 0.07293 0.35856 0.0
O305 O 0.92206 0.09415 0.32582 0.0
N306 N 0.90916 0.12793 0.42685 0.0
C307 C 0.87567 0.14857 0.38428 0.0
C308 C 0.8861 0.1246 0.39845 0.0
C309 C 0.91201 0.15403 0.43021 0.0
N310 N 0.8919 0.16698 0.40532 0.0
O311 O 0.89659 0.09623 0.52119 0.0
H312 H 0.87641 0.10609 0.39307 0.0
H313 H 0.92738 0.16353 0.45517 0.0
O314 O 0.92145 0.07461 0.41697 0.0
C315 C 0.89103 0.11447 0.55859 0.0
O316 O 0.90482 0.1359 0.55662 0.0
N317 N 0.95987 0.11381 0.43866 0.0
C318 C 1.01302 0.12485 0.4287 0.0
C319 C 1.00151 0.10561 0.39226 0.0
C320 C 0.97493 0.1001 0.39849 0.0
C321 C 0.97076 0.13318 0.47259 0.0
C322 C 0.99713 0.13908 0.4682 0.0
H323 H 0.96751 0.08334 0.37502 0.0
H324 H 0.95937 0.1426 0.50758 0.0
H325 H 0.96182 0.05304 0.46741 0.0
H326 H 0.98165 0.0736 0.64685 0.0
H327 H 0.85669 0.1522 0.36482 0.0
H328 H 1.01329 0.09366 0.36246 0.0
H329 H 1.00528 0.15387 0.49769 0.0
C330 C 0.70807 0.19855 0.33802 0.0
C331 C 0.725 0.21772 0.35615 0.0
N332 N 0.73858 0.22542 0.30696 0.0
N333 N 0.71135 0.19403 0.27798 0.0
C334 C 0.7303 0.21044 0.26048 0.0
H335 H 0.69277 0.19022 0.36546 0.0
Co336 Co 0.68821 0.1763 0.22945 0.0
C337 C 0.7182 0.16785 0.10979 0.0
O338 O 0.69673 0.16893 0.07753 0.0
N339 N 0.66349 0.15833 0.18272 0.0
C340 C 0.64096 0.1263 0.13981 0.0
C341 C 0.6655 0.13531 0.1537 0.0
C342 C 0.63764 0.16257 0.18686 0.0
N343 N 0.62336 0.14345 0.16111 0.0
O344 O 0.69675 0.14451 0.2731 0.0
H345 H 0.68348 0.12485 0.14697 0.0
H346 H 0.62945 0.17794 0.2142 0.0
O347 O 0.71677 0.17023 0.1681 0.0
C348 C 0.67885 0.13913 0.31154 0.0
O349 O 0.6578 0.1535 0.3117 0.0
N350 N 0.67805 0.20855 0.19544 0.0
C351 C 0.6656 0.26137 0.18564 0.0
C352 C 0.68185 0.24939 0.14253 0.0
C353 C 0.68828 0.22297 0.14885 0.0
C354 C 0.66111 0.21973 0.2354 0.0
C355 C 0.65471 0.24597 0.23152 0.0
H356 H 0.70282 0.21513 0.11898 0.0
H357 H 0.65389 0.20849 0.27347 0.0
H358 H 0.73657 0.21268 0.2137 0.0
H359 H 0.72568 0.22683 0.40062 0.0
H360 H 0.63645 0.10788 0.11847 0.0
H361 H 0.69095 0.26072 0.10683 0.0
H362 H 0.64197 0.25436 0.26553 0.0
C363 C 0.58725 0.95441 0.08574 0.0
C364 C 0.56846 0.9719 0.10295 0.0
N365 N 0.56345 0.98751 0.0551 0.0
N366 N 0.59425 0.95926 1.02769 0.0
C367 C 0.57969 0.97973 1.01049 0.0
H368 H 0.59388 0.93796 0.11214 0.0
Co369 Co 0.61288 0.93662 0.97959 0.0
C370 C 0.62173 0.96802 0.8618 0.0
O371 O 0.62004 0.94726 0.82714 0.0
N372 N 0.63178 0.91237 0.93318 0.0
C373 C 0.66494 0.89117 0.89082 0.0
C374 C 0.65463 0.91534 0.90375 0.0
C375 C 0.6289 0.88632 0.93829 0.0
N376 N 0.64886 0.87302 0.91367 0.0
O377 O 0.64399 0.94524 1.02535 0.0
H378 H 0.66422 0.93377 0.89648 0.0
H379 H 0.61344 0.87717 0.96363 0.0
O380 O 0.61948 0.96552 0.9199 0.0
C381 C 0.6487 0.92729 0.06413 0.0
O382 O 0.63396 0.90649 0.06375 0.0
N383 N 0.58123 0.92644 0.94317 0.0
C384 C 0.52863 0.91325 0.93113 0.0
C385 C 0.54002 0.93202 0.89296 0.0
C386 C 0.56634 0.93859 0.90009 0.0
C387 C 0.57052 0.90778 0.97937 0.0
C388 C 0.54446 0.90089 0.97419 0.0
H389 H 0.57374 0.9547 0.87423 0.0
H390 H 0.58181 0.89968 1.01634 0.0
H391 H 0.57984 0.98773 0.96493 0.0
H392 H 0.55787 0.97183 0.1456 0.0
H393 H 0.68369 0.88729 0.87044 0.0
H394 H 0.52839 0.9424 0.85979 0.0
H395 H 0.53645 0.88718 1.00655 0.0
C396 C 0.8391 0.20048 0.76438 0.0
C397 C 0.82238 0.21923 0.74322 0.0
N398 N 0.80597 0.22535 0.78877 0.0
N399 N 0.83306 0.19485 0.8227 0.0
C400 C 0.81259 0.21008 0.83605 0.0
H401 H 0.85582 0.19291 0.74044 0.0
Co402 Co 0.85437 0.17658 0.8744 0.0
C403 C 0.82104 0.1685 0.98899 0.0
O404 O 0.84148 0.17066 1.02452 0.0
N405 N 0.87746 0.15779 0.92435 0.0
C406 C 0.89705 0.12446 0.96984 0.0
C407 C 0.87345 0.13519 0.95401 0.0
C408 C 0.90364 0.16009 0.92201 0.0
N409 N 0.91614 0.13991 0.9484 0.0
O410 O 0.84656 0.14526 0.82835 0.0
H411 H 0.85471 0.12606 0.95992 0.0
H412 H 0.91344 0.17492 0.89589 0.0
O413 O 0.82406 0.17034 0.93089 0.0
C414 C 0.86508 0.1392 0.79218 0.0
O415 O 0.88683 0.15241 0.79549 0.0
N416 N 0.86368 0.20858 0.91135 0.0
C417 C 0.87461 0.26178 0.92161 0.0
C418 C 0.85529 0.25022 0.95768 0.0
C419 C 0.84986 0.22361 0.95138 0.0
C420 C 0.88322 0.21946 0.87804 0.0
C421 C 0.88903 0.24588 0.88248 0.0
H422 H 0.83311 0.21615 0.9747 0.0
H423 H 0.89291 0.20801 0.84354 0.0
H424 H 0.80427 0.21184 0.88116 0.0
H425 H 0.82316 0.22869 0.69917 0.0
H426 H 0.89973 0.10619 0.99331 0.0
H427 H 0.84324 0.26196 0.98732 0.0
H428 H 0.90396 0.25404 0.85342 0.0
C429 C 0.58983 0.08659 0.51456 0.0
C430 C 0.5706 0.07028 0.4941 0.0
N431 N 0.56414 0.05423 0.54011 0.0
N432 N 0.59561 0.08056 0.57278 0.0
C433 C 0.5799 0.06051 0.58686 0.0
H434 H 0.5976 0.10312 0.49024 0.0
Co435 Co 0.61401 0.10224 0.62346 0.0
C436 C 0.62127 0.07072 0.74033 0.0
O437 O 0.61826 0.0919 0.773 0.0
N438 N 0.6329 0.12577 0.67229 0.0
C439 C 0.66576 0.14554 0.71924 0.0
C440 C 0.65517 0.12188 0.70337 0.0
C441 C 0.63077 0.15195 0.66884 0.0
N442 N 0.65064 0.16458 0.69624 0.0
O443 O 0.64544 0.09383 0.5781 0.0
H444 H 0.66408 0.10313 0.71081 0.0
H445 H 0.61622 0.16165 0.64169 0.0
O446 O 0.62005 0.07245 0.68184 0.0
C447 C 0.65139 0.11202 0.54088 0.0
O448 O 0.6378 0.13358 0.54239 0.0
N449 N 0.58198 0.11209 0.65967 0.0
C450 C 0.5289 0.12375 0.66903 0.0
C451 C 0.5401 0.10427 0.70528 0.0
C452 C 0.56662 0.09848 0.69941 0.0
C453 C 0.57144 0.13172 0.62598 0.0
C454 C 0.5451 0.13791 0.63005 0.0
H455 H 0.57371 0.08155 0.7227 0.0
H456 H 0.58306 0.14115 0.59143 0.0
H457 H 0.57814 0.0524 0.63218 0.0
H458 H 0.56106 0.07119 0.45016 0.0
H459 H 0.68365 0.14824 0.74422 0.0
H460 H 0.52811 0.09234 0.73466 0.0
H461 H 0.53723 0.15292 0.60077 0.0
C462 C 0.7024 0.83868 0.26653 0.0
C463 C 0.7186 0.81917 0.24691 0.0
N464 N 0.73388 0.81224 0.29401 0.0
N465 N 0.70767 0.84402 0.32542 0.0
C466 C 0.72721 0.82789 0.34061 0.0
H467 H 0.68643 0.84693 0.24108 0.0
Co468 Co 0.68592 0.86249 0.37581 0.0
C469 C 0.7176 0.87109 0.49218 0.0
O470 O 0.69641 0.86957 0.52531 0.0
N471 N 0.66247 0.88141 0.42442 0.0
C472 C 0.64234 0.91541 0.4658 0.0
C473 C 0.6661 0.90487 0.45061 0.0
C474 C 0.63636 0.87836 0.42347 0.0
N475 N 0.62363 0.89875 0.44811 0.0
O476 O 0.69428 0.89375 0.33028 0.0
H477 H 0.68462 0.91471 0.4536 0.0
H478 H 0.62666 0.86254 0.40047 0.0
O479 O 0.71571 0.86867 0.43394 0.0
C480 C 0.67586 0.89989 0.29393 0.0
O481 O 0.65417 0.88653 0.29632 0.0
N482 N 0.67608 0.8306 0.41223 0.0
C483 C 0.6657 0.77721 0.42056 0.0
C484 C 0.68391 0.78908 0.45937 0.0
C485 C 0.68908 0.81576 0.45404 0.0
C486 C 0.65725 0.81957 0.37693 0.0
C487 C 0.65167 0.79307 0.38049 0.0
H488 H 0.70503 0.82347 0.4799 0.0
H489 H 0.64808 0.831 0.34158 0.0
H490 H 0.73474 0.82586 0.38644 0.0
H491 H 0.71822 0.80989 0.20261 0.0
H492 H 0.63904 0.93476 0.48349 0.0
H493 H 0.69496 0.77766 0.4917 0.0
H494 H 0.63766 0.78482 0.34913 0.0
C495 C 0.95018 0.95539 1.0096 0.0
C496 C 0.96839 0.97281 0.98892 0.0
N497 N 0.97414 0.98912 1.03497 0.0
N498 N 0.94464 0.96074 0.06831 0.0
C499 C 0.95941 0.98149 0.08242 0.0
H500 H 0.94313 0.93856 0.98517 0.0
Co501 Co 0.92742 0.93833 0.11948 0.0
C502 C 0.91975 0.97032 0.23663 0.0
O503 O 0.92232 0.94965 0.27126 0.0
N504 N 0.90982 0.91419 0.16901 0.0
C505 C 0.87786 0.89285 0.21543 0.0
C506 C 0.88726 0.91703 0.19956 0.0
C507 C 0.9134 0.88817 0.16614 0.0
N508 N 0.89428 0.87461 0.19395 0.0
O509 O 0.89544 0.94609 0.07619 0.0
H510 H 0.87726 0.9353 0.20586 0.0
H511 H 0.9282 0.87927 0.13832 0.0
O512 O 0.92128 0.96775 0.17838 0.0
C513 C 0.88946 0.92784 1.03921 0.0
O514 O 0.9032 0.90637 1.0405 0.0
N515 N 0.95994 0.92915 0.15345 0.0
C516 C 1.01307 0.91823 0.16079 0.0
C517 C 1.00169 0.93646 0.20008 0.0
C518 C 0.97504 0.942 0.19507 0.0
C519 C 0.97073 0.91058 0.11702 0.0
C520 C 0.99716 0.9048 0.11992 0.0
H521 H 0.96752 0.95798 0.22117 0.0
H522 H 0.95911 0.90165 0.0817 0.0
H523 H 0.96144 0.98912 0.12815 0.0
H524 H 0.97798 0.97241 0.94501 0.0
H525 H 0.8596 0.88902 0.23816 0.0
H526 H 1.01357 0.94753 0.2315 0.0
H527 H 1.00531 0.89076 0.0885 0.0
C528 C 0.70311 0.70167 0.76835 0.0
C529 C 0.71957 0.72117 0.74991 0.0
N530 N 0.73424 0.72811 0.79803 0.0
N531 N 0.70781 0.69611 0.82737 0.0
C532 C 0.72705 0.71236 0.84407 0.0
H533 H 0.68733 0.69356 0.74197 0.0
Co534 Co 0.68592 0.67715 0.87643 0.0
C535 C 0.7185 0.66738 0.99252 0.0
O536 O 0.69783 0.66673 1.02761 0.0
N537 N 0.6623 0.65798 0.92367 0.0
C538 C 0.64111 0.62423 0.96315 0.0
C539 C 0.66525 0.6343 0.94919 0.0
C540 C 0.63629 0.66165 0.92197 0.0
N541 N 0.6229 0.64144 0.94539 0.0
O542 O 0.6947 0.6461 0.82978 0.0
H543 H 0.68353 0.62406 0.95255 0.0
H544 H 0.62715 0.67789 0.89935 0.0
O545 O 0.71557 0.67102 0.93486 0.0
C546 C 0.67655 0.63998 0.79255 0.0
O547 O 0.65471 0.65309 0.7948 0.0
N548 N 0.67568 0.70866 0.91377 0.0
C549 C 0.66455 0.76165 0.92616 0.0
C550 C 0.6813 0.74912 0.96734 0.0
C551 C 0.68697 0.72261 0.95981 0.0
C552 C 0.65801 0.72027 0.8763 0.0
C553 C 0.65225 0.74663 0.8815 0.0
H554 H 0.70192 0.71433 0.98792 0.0
H555 H 0.64992 0.70939 0.8386 0.0
H556 H 0.7344 0.71384 0.89014 0.0
H557 H 0.71936 0.7309 0.70613 0.0
H558 H 0.63724 0.60487 0.98014 0.0
H559 H 0.69148 0.76011 1.00202 0.0
H560 H 0.6391 0.75545 0.84896 0.0
C561 C 0.59252 0.45906 1.01097 0.0
C562 C 0.57498 0.47752 0.99241 0.0
N563 N 0.5668 0.49043 1.04206 0.0
N564 N 0.59562 0.46053 0.07208 0.0
C565 C 0.57957 0.47987 0.08942 0.0
H566 H 0.60049 0.44425 0.98178 0.0
Co567 Co 0.6114 0.43663 0.12426 0.0
C568 C 0.63183 0.47186 0.22859 0.0
O569 O 0.65063 0.45608 0.24481 0.0
N570 N 0.62652 0.41136 0.1759 0.0
C571 C 0.62958 0.38198 0.25018 0.0
C572 C 0.62079 0.40644 0.23486 0.0
C573 C 0.63912 0.38967 0.15704 0.0
N574 N 0.64072 0.37121 0.20064 0.0
O575 O 0.64459 0.44336 0.08489 0.0
H576 H 0.60915 0.41891 0.2636 0.0
H577 H 0.64615 0.38684 0.11143 0.0
O578 O 0.6167 0.46548 0.18451 0.0
C579 C 0.64609 0.42831 1.03854 0.0
O580 O 0.62744 0.41131 1.0296 0.0
N581 N 0.57843 0.42841 0.15488 0.0
C582 C 0.52535 0.41878 0.16399 0.0
C583 C 0.53772 0.43536 0.20584 0.0
C584 C 0.56452 0.44007 0.20035 0.0
C585 C 0.56697 0.41086 0.11702 0.0
C586 C 0.54043 0.40588 0.12048 0.0
H587 H 0.5736 0.45409 0.23018 0.0
H588 H 0.57829 0.40194 0.08116 0.0
H589 H 0.57576 0.48488 0.13642 0.0
H590 H 0.56714 0.47967 0.94686 0.0
H591 H 0.62623 0.37216 0.29312 0.0
H592 H 0.52659 0.44556 0.24019 0.0
H593 H 0.53158 0.39274 0.08794 0.0
C594 C 0.83596 0.33986 0.26817 0.0
C595 C 0.81844 0.32161 0.2483 0.0
N596 N 0.80289 0.31549 0.29543 0.0
N597 N 0.83115 0.34537 0.32717 0.0
C598 C 0.81087 0.33021 0.34256 0.0
H599 H 0.85245 0.34705 0.24278 0.0
Co600 Co 0.85369 0.36322 0.37654 0.0
C601 C 0.82308 0.37168 0.49479 0.0
O602 O 0.84438 0.36953 0.52734 0.0
N603 N 0.87807 0.38149 0.42395 0.0
C604 C 0.89973 0.41451 0.46575 0.0
C605 C 0.87544 0.40452 0.45284 0.0
C606 C 0.90407 0.37819 0.41908 0.0
N607 N 0.91764 0.39805 0.44339 0.0
O608 O 0.84551 0.39484 0.33188 0.0
H609 H 0.85717 0.41449 0.45949 0.0
H610 H 0.913 0.3626 0.39372 0.0
O611 O 0.82464 0.36969 0.43641 0.0
C612 C 0.86346 0.39992 0.29338 0.0
O613 O 0.88441 0.38539 0.29363 0.0
N614 N 0.86326 0.33107 0.41186 0.0
C615 C 0.87408 0.27785 0.42045 0.0
C616 C 0.85577 0.2895 0.4592 0.0
C617 C 0.85038 0.31615 0.45376 0.0
C618 C 0.88178 0.32006 0.37569 0.0
C619 C 0.88757 0.29365 0.37937 0.0
H620 H 0.83436 0.32377 0.47952 0.0
H621 H 0.89062 0.33145 0.33985 0.0
H622 H 0.80339 0.32843 0.38847 0.0
H623 H 0.81862 0.31191 0.20447 0.0
H624 H 0.90388 0.43335 0.48544 0.0
H625 H 0.84442 0.27781 0.49044 0.0
H626 H 0.90171 0.28543 0.34829 0.0
C627 C 0.95148 0.58611 0.51881 0.0
C628 C 0.96938 0.56835 0.49835 0.0
N629 N 0.97508 0.55227 0.54485 0.0
N630 N 0.94581 0.58098 0.57756 0.0
C631 C 0.96048 0.56024 0.59218 0.0
H632 H 0.94446 0.60281 0.49387 0.0
Co633 Co 0.92761 0.60305 0.62749 0.0
C634 C 0.91941 0.5716 0.74431 0.0
O635 O 0.9224 0.59265 0.77746 0.0
N636 N 0.90888 0.6268 0.67572 0.0
C637 C 0.87544 0.64675 0.71979 0.0
C638 C 0.8862 0.62303 0.70524 0.0
C639 C 0.91118 0.65296 0.67215 0.0
N640 N 0.89095 0.66564 0.6977 0.0
O641 O 0.89621 0.59512 0.58138 0.0
H642 H 0.87707 0.60433 0.71192 0.0
H643 H 0.92605 0.66261 0.64585 0.0
O644 O 0.92095 0.57347 0.6859 0.0
C645 C 0.89098 0.6134 0.54378 0.0
O646 O 0.90525 0.63452 0.54532 0.0
N647 N 0.95959 0.61251 0.6643 0.0
C648 C 1.01268 0.62386 0.67459 0.0
C649 C 1.00126 0.60451 0.71085 0.0
C650 C 0.97471 0.59885 0.70446 0.0
C651 C 0.97036 0.63202 0.63066 0.0
C652 C 0.99671 0.63806 0.63519 0.0
H653 H 0.96737 0.58203 0.7278 0.0
H654 H 0.95891 0.64147 0.59582 0.0
H655 H 0.96183 0.55219 0.63764 0.0
H656 H 0.97902 0.56854 0.45448 0.0
H657 H 0.85708 0.64967 0.74275 0.0
H658 H 1.01309 0.5926 0.7406 0.0
H659 H 1.00478 0.65295 0.60588 0.0
C660 C 0.70324 0.33471 0.83837 0.0
C661 C 0.72034 0.3159 0.85738 0.0
N662 N 0.73762 0.31189 0.81231 0.0
N663 N 0.70979 0.34245 0.78175 0.0
C664 C 0.7309 0.32829 0.76715 0.0
H665 H 0.68589 0.34076 0.86219 0.0
Co666 Co 0.68807 0.36129 0.7321 0.0
C667 C 0.72044 0.37029 0.61635 0.0
O668 O 0.69979 0.36821 0.58146 0.0
N669 N 0.66456 0.38054 0.68424 0.0
C670 C 0.64467 0.41414 0.64035 0.0
C671 C 0.66838 0.40355 0.65609 0.0
C672 C 0.6384 0.37791 0.68607 0.0
N673 N 0.62582 0.398 0.65973 0.0
O674 O 0.69642 0.39224 0.77877 0.0
H675 H 0.68701 0.41305 0.65161 0.0
H676 H 0.62856 0.36251 0.71019 0.0
O677 O 0.71781 0.36803 0.67445 0.0
C678 C 0.67859 0.39675 0.81787 0.0
O679 O 0.65764 0.38222 0.81694 0.0
N680 N 0.67836 0.32965 0.69433 0.0
C681 C 0.66761 0.27638 0.68361 0.0
C682 C 0.68678 0.28819 0.64736 0.0
C683 C 0.69215 0.31478 0.65401 0.0
C684 C 0.6588 0.31865 0.7274 0.0
C685 C 0.65299 0.29224 0.72248 0.0
H686 H 0.7088 0.32239 0.6305 0.0
H687 H 0.64922 0.32992 0.76236 0.0
H688 H 0.73951 0.32798 0.72216 0.0
H689 H 0.71916 0.30483 0.89925 0.0
H690 H 0.64155 0.43316 0.62066 0.0
H691 H 0.6984 0.27677 0.61616 0.0
H692 H 0.63832 0.28401 0.75213 0.0
C693 C 0.95026 0.45467 0.08899 0.0
C694 C 0.96883 0.47218 0.10755 0.0
N695 N 0.97524 0.48708 0.05935 0.0
N696 N 0.94501 0.45866 1.02956 0.0
C697 C 0.96041 0.47855 1.01287 0.0
H698 H 0.94263 0.43877 0.11574 0.0
Co699 Co 0.92692 0.43623 0.97999 0.0
C700 C 0.91834 0.46843 0.86324 0.0
O701 O 0.92016 0.44787 0.82797 0.0
N702 N 0.90847 0.41219 0.93204 0.0
C703 C 0.8759 0.39111 0.88675 0.0
C704 C 0.88588 0.41523 0.90147 0.0
C705 C 0.91145 0.38613 0.93628 0.0
N706 N 0.8919 0.3729 0.90961 0.0
O707 O 0.89552 0.44446 1.02492 0.0
H708 H 0.87621 0.43364 0.89456 0.0
H709 H 0.9266 0.37688 0.96257 0.0
O710 O 0.92049 0.4656 0.92128 0.0
C711 C 0.89026 0.42649 0.0632 0.0
O712 O 0.90448 0.40533 0.06261 0.0
N713 N 0.95891 0.42653 0.94415 0.0
C714 C 1.01203 0.41548 0.93466 0.0
C715 C 1.00025 0.43357 0.8955 0.0
C716 C 0.97364 0.43904 0.90131 0.0
C717 C 0.96997 0.40809 0.98048 0.0
C718 C 0.99636 0.40224 0.97648 0.0
H719 H 0.96591 0.45484 0.87497 0.0
H720 H 0.95864 0.39936 1.01656 0.0
H721 H 0.96257 0.48494 0.96619 0.0
H722 H 0.97798 0.47287 0.15197 0.0
H723 H 0.85737 0.38725 0.86526 0.0
H724 H 1.01181 0.44466 0.86351 0.0
H725 H 1.00466 0.38823 1.00775 0.0
C726 C 0.83502 0.70113 0.34126 0.0
C727 C 0.81722 0.71899 0.36183 0.0
N728 N 0.80094 0.72452 0.31559 0.0
N729 N 0.82993 0.69559 0.28242 0.0
C730 C 0.80897 0.70999 0.26812 0.0
H731 H 0.85179 0.69419 0.36606 0.0
Co732 Co 0.85237 0.67805 0.23197 0.0
C733 C 0.82133 0.67085 0.11388 0.0
O734 O 0.8425 0.67439 0.08152 0.0
N735 N 0.8765 0.65999 0.18317 0.0
C736 C 0.897 0.62781 0.13514 0.0
C737 C 0.87311 0.63761 0.15198 0.0
C738 C 0.90262 0.66295 0.18589 0.0
N739 N 0.91551 0.64373 0.15707 0.0
O740 O 0.84459 0.64628 0.27636 0.0
H741 H 0.85463 0.62801 0.14569 0.0
H742 H 0.91223 0.67785 0.21224 0.0
O743 O 0.82299 0.67166 0.17244 0.0
C744 C 0.86289 0.6409 0.31377 0.0
O745 O 0.88404 0.65512 0.31237 0.0
N746 N 0.86179 0.71042 0.19709 0.0
C747 C 0.87518 0.76312 0.18505 0.0
C748 C 0.85526 0.75213 0.14951 0.0
C749 C 0.84861 0.72583 0.15671 0.0
C750 C 0.8813 0.72082 0.23134 0.0
C751 C 0.88833 0.7469 0.22605 0.0
H752 H 0.83171 0.71883 0.13306 0.0
H753 H 0.89019 0.70922 0.26672 0.0
H754 H 0.80128 0.71177 0.22238 0.0
H755 H 0.81724 0.72842 0.40597 0.0
H756 H 0.90054 0.60944 0.11258 0.0
H757 H 0.84419 0.76401 0.11815 0.0
H758 H 0.90292 0.75458 0.25669 0.0
C759 C 0.5912 0.58551 0.58755 0.0
C760 C 0.57215 0.56887 0.6075 0.0
N761 N 0.5656 0.55325 0.56072 0.0
N762 N 0.59664 0.58019 0.52876 0.0
C763 C 0.58103 0.56016 0.51394 0.0
H764 H 0.59894 0.60186 0.61259 0.0
Co765 Co 0.61456 0.60238 0.47843 0.0
C766 C 0.62099 0.57172 0.36027 0.0
O767 O 0.61719 0.59317 0.32907 0.0
N768 N 0.63299 0.62631 0.4297 0.0
C769 C 0.66563 0.64652 0.38297 0.0
C770 C 0.65531 0.62271 0.39864 0.0
C771 C 0.63046 0.65246 0.43301 0.0
N772 N 0.65019 0.66532 0.40579 0.0
O773 O 0.64617 0.59425 0.52323 0.0
H774 H 0.66444 0.60406 0.39118 0.0
H775 H 0.61576 0.66201 0.45998 0.0
O776 O 0.62075 0.57289 0.41891 0.0
C777 C 0.65183 0.61259 0.56037 0.0
O778 O 0.63801 0.63399 0.55838 0.0
N779 N 0.58229 0.61221 0.44342 0.0
C780 C 0.52946 0.62545 0.43433 0.0
C781 C 0.54015 0.60569 0.39789 0.0
C782 C 0.56653 0.59912 0.40358 0.0
C783 C 0.57219 0.63169 0.47826 0.0
C784 C 0.54605 0.63863 0.47445 0.0
H785 H 0.57325 0.58221 0.37954 0.0
H786 H 0.58405 0.64048 0.51332 0.0
H787 H 0.57906 0.55252 0.4682 0.0
H788 H 0.56271 0.56931 0.65159 0.0
H789 H 0.68357 0.64953 0.35837 0.0
H790 H 0.52798 0.59461 0.36712 0.0
H791 H 0.53862 0.65313 0.50567 0.0
C792 C 0.33715 0.33963 0.33561 0.0
C793 C 0.31995 0.32117 0.35608 0.0
N794 N 0.30394 0.31514 0.30967 0.0
N795 N 0.33171 0.34526 0.27697 0.0
C796 C 0.31137 0.33005 0.26246 0.0
H797 H 0.35375 0.34702 0.36033 0.0
Co798 Co 0.35304 0.36376 0.22596 0.0
C799 C 0.31982 0.37232 0.11117 0.0
O800 O 0.34039 0.37122 0.07582 0.0
N801 N 0.37598 0.38272 0.17645 0.0
C802 C 0.39562 0.41697 0.135 0.0
C803 C 0.37201 0.40615 0.15044 0.0
C804 C 0.40211 0.37992 0.17687 0.0
N805 N 0.41455 0.40049 0.15229 0.0
O806 O 0.34521 0.39501 0.27268 0.0
H807 H 0.35339 0.41582 0.148 0.0
H808 H 0.41202 0.36418 0.19963 0.0
O809 O 0.32279 0.36993 0.16919 0.0
C810 C 0.36394 0.40043 0.30893 0.0
O811 O 0.38529 0.38659 0.30521 0.0
N812 N 0.36252 0.33191 0.18883 0.0
C813 C 0.37287 0.27867 0.18066 0.0
C814 C 0.35437 0.29025 0.14241 0.0
C815 C 0.34919 0.31697 0.1477 0.0
C816 C 0.38155 0.32097 0.2237 0.0
C817 C 0.38701 0.29446 0.22044 0.0
H818 H 0.33297 0.32462 0.12265 0.0
H819 H 0.39094 0.33247 0.25859 0.0
H820 H 0.30332 0.32847 0.21704 0.0
H821 H 0.32051 0.31143 0.39981 0.0
H822 H 0.39865 0.43641 0.11761 0.0
H823 H 0.34278 0.27846 0.11185 0.0
H824 H 0.40126 0.28613 0.25109 0.0
C825 C 0.45063 0.58644 0.08438 0.0
C826 C 0.46995 0.56975 0.10285 0.0
N827 N 0.47769 0.55603 0.05392 0.0
N828 N 0.44608 0.58284 1.02443 0.0
C829 C 0.46271 0.56403 1.00725 0.0
H830 H 0.44198 0.60162 0.11166 0.0
Co831 Co 0.42703 0.6048 0.97556 0.0
C832 C 0.41816 0.57336 0.85825 0.0
O833 O 0.41796 0.59466 0.8253 0.0
N834 N 0.40762 0.6282 0.9283 0.0
C835 C 0.37338 0.64845 0.88856 0.0
C836 C 0.38389 0.62464 0.90348 0.0
C837 C 0.41089 0.65428 0.92868 0.0
N838 N 0.39036 0.66709 0.90499 0.0
O839 O 0.39607 0.59576 1.02202 0.0
H840 H 0.37396 0.60615 0.90113 0.0
H841 H 0.42707 0.66388 0.95053 0.0
O842 O 0.42132 0.57527 0.91631 0.0
C843 C 0.39035 0.6141 0.05914 0.0
O844 O 0.40378 0.63574 0.05635 0.0
N845 N 0.4585 0.61561 0.93896 0.0
C846 C 0.51138 0.62736 0.92979 0.0
C847 C 0.49941 0.61104 0.88684 0.0
C848 C 0.47293 0.60491 0.89294 0.0
C849 C 0.46956 0.6332 0.97759 0.0
C850 C 0.4959 0.63922 0.97411 0.0
H851 H 0.46509 0.59005 0.86386 0.0
H852 H 0.45826 0.64089 1.01504 0.0
H853 H 0.46499 0.5575 0.96066 0.0
H854 H 0.479 0.56916 0.1474 0.0
H855 H 0.35388 0.65184 0.87188 0.0
H856 H 0.51086 0.60143 0.85211 0.0
H857 H 0.5044 0.65202 1.00788 0.0
C858 C 0.20495 0.70268 0.83263 0.0
C859 C 0.22229 0.72156 0.85011 0.0
N860 N 0.23775 0.7268 0.80223 0.0
N861 N 0.20984 0.69583 0.77446 0.0
C862 C 0.23009 0.71069 0.75728 0.0
H863 H 0.18849 0.69598 0.85887 0.0
Co864 Co 0.18735 0.67702 0.7266 0.0
C865 C 0.21835 0.66766 0.60881 0.0
O866 O 0.19715 0.66902 0.57566 0.0
N867 N 0.1631 0.65792 0.68068 0.0
C868 C 0.14182 0.6248 0.63825 0.0
C869 C 0.166 0.63496 0.65159 0.0
C870 C 0.13707 0.66093 0.6856 0.0
N871 N 0.12373 0.64107 0.66061 0.0
O872 O 0.19591 0.64605 0.7733 0.0
H873 H 0.18438 0.62525 0.64466 0.0
H874 H 0.12795 0.67638 0.7111 0.0
O875 O 0.21648 0.67019 0.66702 0.0
C876 C 0.17813 0.64163 0.8127 0.0
O877 O 0.15736 0.65641 0.81229 0.0
N878 N 0.17725 0.7086 0.68918 0.0
C879 C 0.16573 0.76157 0.67706 0.0
C880 C 0.1834 0.74944 0.63747 0.0
C881 C 0.18931 0.72298 0.645 0.0
C882 C 0.15892 0.7199 0.72539 0.0
C883 C 0.15288 0.7462 0.72017 0.0
H884 H 0.20511 0.7152 0.61879 0.0
H885 H 0.15052 0.70889 0.76245 0.0
H886 H 0.23784 0.71106 0.71146 0.0
H887 H 0.22212 0.73216 0.89277 0.0
H888 H 0.13785 0.60604 0.61797 0.0
H889 H 0.19412 0.7607 0.60423 0.0
H890 H 0.1391 0.75473 0.75169 0.0
C891 C 0.08902 0.45325 0.58333 0.0
C892 C 0.06976 0.46992 0.60214 0.0
N893 N 0.06261 0.48445 0.55397 0.0
N894 N 0.09414 0.45761 0.52394 0.0
C895 C 0.07795 0.47692 0.50746 0.0
H896 H 0.09728 0.43761 0.60988 0.0
Co897 Co 0.11321 0.43573 0.47492 0.0
C898 C 0.12235 0.46724 0.35812 0.0
O899 O 0.12224 0.44588 0.32535 0.0
N900 N 0.1327 0.41222 0.42774 0.0
C901 C 0.16745 0.39181 0.39089 0.0
C902 C 0.15665 0.41569 0.40416 0.0
C903 C 0.12952 0.38611 0.42868 0.0
N904 N 0.15039 0.37318 0.40694 0.0
O905 O 0.14404 0.44444 0.5221 0.0
H906 H 0.1666 0.43418 0.40205 0.0
H907 H 0.11316 0.37659 0.44987 0.0
O908 O 0.11938 0.46542 0.41625 0.0
C909 C 0.14965 0.42602 0.55903 0.0
O910 O 0.13621 0.4044 0.55582 0.0
N911 N 0.08179 0.42535 0.43739 0.0
C912 C 0.02884 0.41377 0.42669 0.0
C913 C 0.04082 0.43117 0.38615 0.0
C914 C 0.06731 0.43709 0.39289 0.0
C915 C 0.07068 0.40713 0.47421 0.0
C916 C 0.04435 0.4011 0.4698 0.0
H917 H 0.07506 0.45264 0.36581 0.0
H918 H 0.0819 0.39881 0.51105 0.0
H919 H 0.07633 0.48424 0.46138 0.0
H920 H 0.06039 0.47002 0.64633 0.0
H921 H 0.18718 0.38845 0.37584 0.0
H922 H 0.02941 0.44168 0.35279 0.0
H923 H 0.03593 0.38751 0.50192 0.0
C924 C 0.33697 0.70346 0.26731 0.0
C925 C 0.31956 0.72219 0.24919 0.0
N926 N 0.30404 0.72767 0.29686 0.0
N927 N 0.33206 0.69695 0.32567 0.0
C928 C 0.31173 0.71182 0.34225 0.0
H929 H 0.35338 0.69651 0.24126 0.0
Co930 Co 0.35441 0.67857 0.37482 0.0
C931 C 0.32189 0.66916 0.49104 0.0
O932 O 0.34232 0.67076 0.52678 0.0
N933 N 0.37843 0.65995 0.42249 0.0
C934 C 0.39974 0.62766 0.46777 0.0
C935 C 0.37557 0.63724 0.4524 0.0
C936 C 0.40445 0.66341 0.41933 0.0
N937 N 0.418 0.64414 0.44657 0.0
O938 O 0.34638 0.64726 0.32844 0.0
H939 H 0.35726 0.62731 0.45883 0.0
H940 H 0.4133 0.67837 0.39189 0.0
O941 O 0.32494 0.67168 0.43312 0.0
C942 C 0.36452 0.64188 0.2906 0.0
O943 O 0.38582 0.65587 0.29212 0.0
N944 N 0.36397 0.71045 0.41185 0.0
C945 C 0.37511 0.76358 0.42325 0.0
C946 C 0.3572 0.75148 0.46239 0.0
C947 C 0.35156 0.72491 0.45535 0.0
C948 C 0.38241 0.72174 0.37595 0.0
C949 C 0.38829 0.7481 0.38088 0.0
H950 H 0.33575 0.717 0.4814 0.0
H951 H 0.3911 0.71065 0.33939 0.0
H952 H 0.30382 0.71227 0.3879 0.0
H953 H 0.31963 0.73243 0.20607 0.0
H954 H 0.40354 0.60931 0.49016 0.0
H955 H 0.34622 0.76281 0.49501 0.0
H956 H 0.40225 0.75657 0.34974 0.0
C957 C 0.09074 0.58448 1.01029 0.0
C958 C 0.0723 0.56734 0.98947 0.0
N959 N 0.06393 0.55321 1.03728 0.0
N960 N 0.09419 0.58084 0.0706 0.0
C961 C 0.07782 0.56147 0.08557 0.0
H962 H 0.09964 0.59984 0.98401 0.0
Co963 Co 0.11182 0.60313 0.12156 0.0
C964 C 0.11947 0.5705 0.23842 0.0
O965 O 0.11753 0.59098 0.27391 0.0
N966 N 0.12988 0.62704 0.17068 0.0
C967 C 0.16245 0.64801 0.21623 0.0
C968 C 0.15226 0.62392 0.20202 0.0
C969 C 0.12721 0.65311 0.16557 0.0
N970 N 0.14677 0.66626 0.19232 0.0
O971 O 0.1437 0.59509 0.07801 0.0
H972 H 0.16176 0.60546 0.20949 0.0
H973 H 0.11241 0.66239 0.13829 0.0
O974 O 0.11765 0.5735 0.18031 0.0
C975 C 0.14893 0.61328 1.04022 0.0
O976 O 0.13416 0.63405 1.04013 0.0
N977 N 0.07951 0.61289 0.1559 0.0
C978 C 0.02655 0.62501 0.16396 0.0
C979 C 0.03779 0.60675 0.20359 0.0
C980 C 0.06434 0.60071 0.19844 0.0
C981 C 0.06899 0.63158 0.1194 0.0
C982 C 0.04275 0.63809 0.12297 0.0
H983 H 0.07174 0.58485 0.22519 0.0
H984 H 0.08068 0.64015 0.08374 0.0
H985 H 0.07448 0.55505 0.13188 0.0
H986 H 0.06484 0.56623 0.94341 0.0
H987 H 0.18096 0.65178 0.23792 0.0
H988 H 0.02585 0.59604 0.23552 0.0
H989 H 0.03497 0.65248 0.09191 0.0
C990 C 0.19837 0.3365 0.76607 0.0
C991 C 0.21427 0.31716 0.7446 0.0
N992 N 0.23205 0.31185 0.78789 0.0
N993 N 0.20612 0.34334 0.82248 0.0
C994 C 0.2268 0.32817 0.83446 0.0
H995 H 0.18085 0.34344 0.74432 0.0
Co996 Co 0.18504 0.3617 0.8743 0.0
C997 C 0.21693 0.36951 0.99025 0.0
O998 O 0.19573 0.36677 1.0229 0.0
N999 N 0.16187 0.38046 0.92393 0.0
C1000 C 0.1415 0.41394 0.96727 0.0
C1001 C 0.16538 0.40354 0.95217 0.0
C1002 C 0.13577 0.37755 0.92168 0.0
N1003 N 0.12297 0.39767 0.947 0.0
O1004 O 0.19302 0.3931 0.82852 0.0
H1005 H 0.1839 0.41325 0.95679 0.0
H1006 H 0.12612 0.36216 0.89714 0.0
O1007 O 0.21521 0.36792 0.93175 0.0
C1008 C 0.17459 0.39919 0.79209 0.0
O1009 O 0.15289 0.38588 0.79482 0.0
N1010 N 0.17565 0.32964 0.91087 0.0
C1011 C 0.16492 0.27646 0.91956 0.0
C1012 C 0.1843 0.28776 0.95574 0.0
C1013 C 0.18971 0.3144 0.95004 0.0
C1014 C 0.15604 0.31888 0.87745 0.0
C1015 C 0.15032 0.29243 0.88116 0.0
H1016 H 0.20666 0.32169 0.97289 0.0
H1017 H 0.14638 0.3304 0.84307 0.0
H1018 H 0.23647 0.3276 0.87824 0.0
H1019 H 0.21137 0.30629 0.70292 0.0
H1020 H 0.13798 0.43294 0.98678 0.0
H1021 H 0.1964 0.27579 0.98478 0.0
H1022 H 0.13552 0.28427 0.8517 0.0
C1023 C 0.45345 0.45327 0.51311 0.0
C1024 C 0.4719 0.47043 0.49242 0.0
N1025 N 0.47725 0.48719 0.53783 0.0
N1026 N 0.44742 0.4592 0.57125 0.0
C1027 C 0.46207 0.48007 0.58493 0.0
H1028 H 0.44649 0.43628 0.48912 0.0
Co1029 Co 0.42961 0.43734 0.62255 0.0
C1030 C 0.4221 0.47026 0.73848 0.0
O1031 O 0.42545 0.44989 0.77376 0.0
N1032 N 0.41135 0.41374 0.67207 0.0
C1033 C 0.37901 0.39376 0.7203 0.0
C1034 C 0.38948 0.41749 0.70474 0.0
C1035 C 0.4134 0.38758 0.66755 0.0
N1036 N 0.39379 0.37484 0.69556 0.0
O1037 O 0.39798 0.44503 0.57749 0.0
H1038 H 0.38063 0.43619 0.71318 0.0
H1039 H 0.42759 0.37803 0.63907 0.0
O1040 O 0.4232 0.46729 0.68024 0.0
C1041 C 0.39231 0.42678 0.54018 0.0
O1042 O 0.40625 0.40545 0.54149 0.0
N1043 N 0.46185 0.42812 0.65844 0.0
C1044 C 0.51487 0.41666 0.66831 0.0
C1045 C 0.50359 0.43595 0.70485 0.0
C1046 C 0.47706 0.44174 0.69851 0.0
C1047 C 0.47253 0.40859 0.62465 0.0
C1048 C 0.49889 0.40253 0.62886 0.0
H1049 H 0.46979 0.45855 0.722 0.0
H1050 H 0.46098 0.39911 0.59002 0.0
H1051 H 0.46361 0.48825 0.63024 0.0
H1052 H 0.48184 0.46963 0.44896 0.0
H1053 H 0.36136 0.39092 0.74608 0.0
H1054 H 0.51553 0.44764 0.73487 0.0
H1055 H 0.50698 0.38773 0.59931 0.0
C1056 C 0.15495 0.09722 0.16552 0.0
C1057 C 0.16654 0.10907 0.11454 0.0
C1058 C 0.16164 0.10479 0.22515 0.0
C1059 C 0.18074 0.12383 0.23588 0.0
H1060 H 0.13829 0.08464 0.15945 0.0
H1061 H 0.14976 0.09791 0.2626 0.0
S1062 S 0.2209 0.15616 0.1182 0.0
N1063 N 0.2006 0.13778 0.07885 0.0
N1064 N 0.2144 0.1506 0.19081 0.0
C1065 C 0.19512 0.13275 0.18562 0.0
C1066 C 0.1877 0.12572 0.12488 0.0
C1067 C 0.15304 0.94239 0.43247 0.0
C1068 C 0.16465 0.93003 0.48275 0.0
C1069 C 0.15935 0.9351 0.37242 0.0
C1070 C 0.17802 0.91577 0.36058 0.0
H1071 H 0.13661 0.9552 0.4394 0.0
H1072 H 0.14751 0.94253 0.33547 0.0
S1073 S 0.21772 0.88157 0.47627 0.0
N1074 N 0.19806 0.9002 0.51668 0.0
N1075 N 0.21115 0.88784 0.40401 0.0
C1076 C 0.19236 0.90615 0.41021 0.0
C1077 C 0.18535 0.91294 0.47137 0.0
C1078 C 0.37932 0.93707 0.72664 0.0
C1079 C 0.36032 0.918 0.73782 0.0
C1080 C 0.38605 0.94431 0.66682 0.0
C1081 C 0.37454 0.93212 0.61616 0.0
H1082 H 0.39115 0.94421 0.76394 0.0
H1083 H 0.40271 0.95686 0.66046 0.0
S1084 S 0.32037 0.88485 0.62084 0.0
N1085 N 0.32672 0.89092 0.69332 0.0
N1086 N 0.34067 0.90304 0.58109 0.0
C1087 C 0.35344 0.91546 0.62683 0.0
C1088 C 0.34597 0.90879 0.68774 0.0
C1089 C 0.34847 0.13798 0.91484 0.0
C1090 C 0.36099 0.12661 0.86447 0.0
C1091 C 0.35544 0.13125 0.97485 0.0
C1092 C 0.37471 0.1125 0.98658 0.0
H1093 H 0.33576 0.1545 0.9081 0.0
H1094 H 0.34786 0.14288 1.012 0.0
S1095 S 0.40962 0.07368 0.87041 0.0
N1096 N 0.39109 0.09351 0.83019 0.0
N1097 N 0.40299 0.07977 0.94272 0.0
C1098 C 0.38463 0.09853 0.93668 0.0
C1099 C 0.3781 0.1059 0.87559 0.0
C1100 C 0.87888 0.93656 0.87376 0.0
C1101 C 0.8597 0.91768 0.86237 0.0
C1102 C 0.88533 0.94397 0.93363 0.0
C1103 C 0.87343 0.93207 0.98415 0.0
H1104 H 0.89102 0.94337 0.83671 0.0
H1105 H 0.90207 0.95638 0.94024 0.0
S1106 S 0.81834 0.88589 0.97858 0.0
N1107 N 0.82529 0.89147 0.9062 0.0
N1108 N 0.83876 0.90384 1.01867 0.0
C1109 C 0.85207 0.91577 0.97311 0.0
C1110 C 0.84486 0.90897 0.9121 0.0
C1111 C 0.84862 0.13563 0.68654 0.0
C1112 C 0.86111 0.12366 0.73619 0.0
C1113 C 0.85559 0.12955 0.62615 0.0
C1114 C 0.87463 0.11069 0.61334 0.0
H1115 H 0.83597 0.15211 0.6942 0.0
H1116 H 0.84819 0.1417 0.58972 0.0
S1117 S 0.90862 0.06979 0.72706 0.0
N1118 N 0.8905 0.08955 0.76846 0.0
N1119 N 0.90219 0.07688 0.65513 0.0
C1120 C 0.88423 0.09595 0.66232 0.0
C1121 C 0.87783 0.10275 0.72382 0.0
C1122 C 0.6954 0.13336 0.41642 0.0
C1123 C 0.68289 0.12237 0.36553 0.0
C1124 C 0.68792 0.1267 0.47614 0.0
C1125 C 0.66833 0.10819 0.487 0.0
H1126 H 0.70845 0.14965 0.41036 0.0
H1127 H 0.69535 0.13824 0.51362 0.0
S1128 S 0.6344 0.06926 0.36939 0.0
N1129 N 0.65313 0.08919 0.32997 0.0
N1130 N 0.64047 0.07538 0.44198 0.0
C1131 C 0.65882 0.09419 0.43671 0.0
C1132 C 0.66577 0.10159 0.37591 0.0
C1133 C 0.69204 0.90491 0.18852 0.0
C1134 C 0.67975 0.91622 0.23927 0.0
C1135 C 0.68483 0.91182 0.12878 0.0
C1136 C 0.6657 0.93078 0.11787 0.0
H1137 H 0.70465 0.88828 0.19469 0.0
H1138 H 0.69202 0.90013 0.09131 0.0
S1139 S 0.63213 0.97009 0.23523 0.0
N1140 N 0.65051 0.94987 0.27476 0.0
N1141 N 0.63822 0.96393 0.16268 0.0
C1142 C 0.6563 0.94487 0.16809 0.0
C1143 C 0.66301 0.93729 0.22888 0.0
C1144 C 0.65596 0.5964 0.66601 0.0
C1145 C 0.66774 0.60871 0.61587 0.0
C1146 C 0.66196 0.60387 0.72615 0.0
C1147 C 0.68056 0.62325 0.73829 0.0
H1148 H 0.63963 0.58351 0.65886 0.0
H1149 H 0.64993 0.59654 0.76285 0.0
S1150 S 0.72119 0.65677 0.62331 0.0
N1151 N 0.70158 0.6382 0.58257 0.0
N1152 N 0.71415 0.65079 0.69547 0.0
C1153 C 0.69523 0.63263 0.68895 0.0
C1154 C 0.68849 0.62571 0.62767 0.0
C1155 C 0.66549 0.43522 0.87802 0.0
C1156 C 0.68217 0.41379 0.87157 0.0
C1157 C 0.65758 0.44388 0.93598 0.0
C1158 C 0.66549 0.43088 0.98934 0.0
H1159 H 0.65608 0.44337 0.83816 0.0
H1160 H 0.64244 0.45844 0.93837 0.0
S1161 S 0.71286 0.37692 0.99744 0.0
N1162 N 0.70996 0.38292 0.92374 0.0
N1163 N 0.69395 0.39818 1.03226 0.0
C1164 C 0.68468 0.41168 0.98367 0.0
C1165 C 0.69326 0.40332 0.92475 0.0
C1166 C 0.88553 0.44303 0.16834 0.0
C1167 C 0.87402 0.4307 0.11786 0.0
C1168 C 0.87881 0.43595 0.22826 0.0
C1169 C 0.85977 0.41694 0.23968 0.0
H1170 H 0.90215 0.4556 0.16181 0.0
H1171 H 0.89069 0.44312 0.26543 0.0
S1172 S 0.81964 0.38369 0.12322 0.0
N1173 N 0.84002 0.40169 0.08319 0.0
N1174 N 0.82603 0.38992 0.19561 0.0
C1175 C 0.84537 0.40768 0.18975 0.0
C1176 C 0.85285 0.41415 0.12876 0.0
C1177 C 0.84728 0.63602 0.41973 0.0
C1178 C 0.85918 0.62456 0.36862 0.0
C1179 C 0.8548 0.62919 0.47933 0.0
C1180 C 0.87388 0.61013 0.48993 0.0
H1181 H 0.83468 0.65267 0.41382 0.0
H1182 H 0.84782 0.64095 0.51691 0.0
S1183 S 0.90648 0.57039 0.3718 0.0
N1184 N 0.88806 0.5907 0.33264 0.0
N1185 N 0.90083 0.57669 0.44448 0.0
C1186 C 0.88291 0.59592 0.43948 0.0
C1187 C 0.8759 0.60344 0.37878 0.0
C1188 C 0.38765 0.4428 0.4345 0.0
C1189 C 0.37607 0.4308 0.4853 0.0
C1190 C 0.38055 0.43579 0.37473 0.0
C1191 C 0.36114 0.41711 0.36365 0.0
H1192 H 0.40455 0.45505 0.44068 0.0
H1193 H 0.39234 0.44283 0.33728 0.0
S1194 S 0.32107 0.38445 0.48109 0.0
N1195 N 0.3418 0.40225 0.52065 0.0
N1196 N 0.32731 0.39046 0.40854 0.0
C1197 C 0.34688 0.408 0.41394 0.0
C1198 C 0.35467 0.41447 0.4748 0.0
C1199 C 0.38582 0.59811 0.16503 0.0
C1200 C 0.37429 0.61034 0.11445 0.0
C1201 C 0.37952 0.60566 0.22496 0.0
C1202 C 0.36085 0.62504 0.23641 0.0
H1203 H 0.40215 0.58517 0.15845 0.0
H1204 H 0.39137 0.59839 0.26207 0.0
S1205 S 0.32089 0.65848 0.12 0.0
N1206 N 0.34065 0.6398 0.07997 0.0
N1207 N 0.32757 0.6526 0.19239 0.0
C1208 C 0.34647 0.63438 0.18656 0.0
C1209 C 0.35349 0.62736 0.12554 0.0
C1210 C 0.15636 0.59707 0.93551 0.0
C1211 C 0.1663 0.60993 0.98712 0.0
C1212 C 0.16364 0.60468 0.87626 0.0
C1213 C 0.18173 0.62477 0.86672 0.0
H1214 H 0.14041 0.58353 0.94044 0.0
H1215 H 0.15283 0.5969 0.83796 0.0
S1216 S 0.21758 0.66035 0.98701 0.0
N1217 N 0.19781 0.64094 1.02501 0.0
N1218 N 0.2128 0.65388 0.91407 0.0
C1219 C 0.19461 0.63486 0.91802 0.0
C1220 C 0.18658 0.62776 0.97823 0.0
C1221 C 0.15983 0.43499 0.72495 0.0
C1222 C 0.17837 0.41557 0.73726 0.0
C1223 C 0.15378 0.44228 0.66473 0.0
C1224 C 0.16544 0.42975 0.61474 0.0
H1225 H 0.14792 0.44251 0.76165 0.0
H1226 H 0.13752 0.45525 0.65747 0.0
S1227 S 0.21833 0.3811 0.62256 0.0
N1228 N 0.21148 0.38741 0.69466 0.0
N1229 N 0.19891 0.39979 0.58167 0.0
C1230 C 0.18605 0.41259 0.62665 0.0
C1231 C 0.19281 0.40582 0.68796 0.0
C1232 C 0.15033 0.30414 0.46589 0.0
C1233 C 0.16365 0.29063 0.4199 0.0
C1234 C 0.14605 0.33108 0.46134 0.0
C1235 C 0.15521 0.34552 0.41099 0.0
H1236 H 0.1427 0.29374 0.50489 0.0
H1237 H 0.13562 0.3407 0.49776 0.0
S1238 S 0.19248 0.3191 0.28014 0.0
N1239 N 0.18679 0.29356 0.32372 0.0
N1240 N 0.17895 0.34406 0.31528 0.0
C1241 C 0.16918 0.3322 0.36561 0.0
C1242 C 0.1733 0.3048 0.37 0.0
C1243 C 0.95575 0.92428 0.66543 0.0
C1244 C 0.9452 0.8991 0.6606 0.0
C1245 C 0.98265 0.92831 0.67099 0.0
C1246 C 1.00022 0.90736 0.67206 0.0
H1247 H 0.94315 0.9411 0.66541 0.0
H1248 H 0.98975 0.94805 0.67292 0.0
S1249 S 0.98279 0.83751 0.66161 0.0
N1250 N 0.95472 0.85285 0.65661 0.0
N1251 N 1.005 0.86039 0.66953 0.0
C1252 C 0.98993 0.88206 0.66807 0.0
C1253 C 0.96256 0.87795 0.66186 0.0
C1254 C 0.39308 0.70922 0.95943 0.0
C1255 C 0.38556 0.69473 0.90774 0.0
C1256 C 0.38846 0.73611 0.9631 0.0
C1257 C 0.37649 0.74947 0.91485 0.0
H1258 H 0.40237 0.69965 0.9976 0.0
H1259 H 0.39468 0.74658 1.00339 0.0
S1260 S 0.35263 0.72073 0.77028 0.0
N1261 N 0.36511 0.69589 0.80794 0.0
N1262 N 0.35664 0.74635 0.81467 0.0
C1263 C 0.36866 0.73524 0.86331 0.0
C1264 C 0.3731 0.70789 0.85982 0.0
C1265 C 0.5576 0.11126 0.17448 0.0
C1266 C 0.54031 0.13246 0.1762 0.0
C1267 C 0.58455 0.11497 0.16916 0.0
C1268 C 0.59544 0.14004 0.1651 0.0
H1269 H 0.55024 0.09155 0.17586 0.0
H1270 H 0.59692 0.09799 0.16871 0.0
S1271 S 0.55869 0.20214 0.16817 0.0
N1272 N 0.5362 0.17951 0.17556 0.0
N1273 N 0.58651 0.18644 0.16237 0.0
C1274 C 0.57836 0.16142 0.16693 0.0
C1275 C 0.55095 0.15764 0.17315 0.0
C1276 C 0.15661 0.70871 0.23922 0.0
C1277 C 0.15215 0.69364 0.18692 0.0
C1278 C 0.1608 0.73563 0.2349 0.0
C1279 C 0.16116 0.74841 0.17797 0.0
H1280 H 0.15632 0.69965 0.28378 0.0
H1281 H 0.16386 0.74654 0.27654 0.0
S1282 S 0.15271 0.71701 1.02698 0.0
N1283 N 0.14976 0.69295 0.07636 0.0
N1284 N 0.1579 0.74345 0.06799 0.0
C1285 C 0.15758 0.73331 0.12517 0.0
C1286 C 0.15295 0.70597 0.12972 0.0
C1287 C 0.55488 0.90239 0.38859 0.0
C1288 C 0.54141 0.91367 0.43763 0.0
C1289 C 0.58169 0.89738 0.39246 0.0
C1290 C 0.59605 0.90383 0.44515 0.0
H1291 H 0.54452 0.89701 0.34747 0.0
H1292 H 0.59133 0.88864 0.35369 0.0
S1293 S 0.56984 0.93459 0.58507 0.0
N1294 N 0.54436 0.93164 0.53979 0.0
N1295 N 0.59469 0.92254 0.54674 0.0
C1296 C 0.58281 0.91559 0.49389 0.0
C1297 C 0.55552 0.92039 0.49024 0.0
C1298 C 0.40911 0.32933 0.68596 0.0
C1299 C 0.38849 0.34717 0.69177 0.0
C1300 C 0.40462 0.30249 0.68055 0.0
C1301 C 0.37928 0.29219 0.6806 0.0
H1302 H 0.429 0.33614 0.6862 0.0
H1303 H 0.42121 0.28968 0.67634 0.0
S1304 S 0.31831 0.3302 0.69489 0.0
N1305 N 0.34151 0.3523 0.69568 0.0
N1306 N 0.33326 0.30198 0.68877 0.0
C1307 C 0.35846 0.30973 0.68653 0.0
C1308 C 0.36299 0.33712 0.69149 0.0
C1309 C 0.96154 0.15578 0.94443 0.0
C1310 C 0.94387 0.13488 0.94578 0.0
C1311 C 0.98842 0.15171 0.93953 0.0
C1312 C 0.99896 0.12652 0.93563 0.0
H1313 H 0.95453 0.17556 0.94763 0.0
H1314 H 1.00108 0.16851 0.93864 0.0
S1315 S 0.96149 0.06488 0.93737 0.0
N1316 N 0.93915 0.08781 0.94155 0.0
N1317 N 0.98961 0.08022 0.93512 0.0
C1318 C 0.98161 0.10537 0.93722 0.0
C1319 C 0.95415 0.10951 0.9418 0.0
C1320 C 0.90235 0.73797 0.68945 0.0
C1321 C 0.87714 0.7483 0.68348 0.0
C1322 C 0.9066 0.7111 0.69437 0.0
C1323 C 0.88584 0.69329 0.69379 0.0
H1324 H 0.91902 0.7508 0.69046 0.0
H1325 H 0.92634 0.70422 0.6994 0.0
S1326 S 0.816 0.71011 0.67763 0.0
N1327 N 0.83102 0.73842 0.67741 0.0
N1328 N 0.83905 0.68802 0.68416 0.0
C1329 C 0.86052 0.7033 0.687 0.0
C1330 C 0.85618 0.73071 0.68227 0.0
C1331 C 0.05498 0.12741 0.48663 0.0
C1332 C 0.04171 0.12857 0.43041 0.0
C1333 C 0.08195 0.13132 0.49013 0.0
C1334 C 0.09654 0.13706 0.43779 0.0
H1335 H 0.04443 0.1233 0.52826 0.0
H1336 H 0.09144 0.13033 0.53415 0.0
S1337 S 0.07158 0.14105 0.27941 0.0
N1338 N 0.04554 0.13482 0.32097 0.0
N1339 N 0.09613 0.14255 0.3278 0.0
C1340 C 0.08365 0.13794 0.38126 0.0
C1341 C 0.05627 0.13355 0.3775 0.0
C1342 C 0.65893 0.33072 0.24414 0.0
C1343 C 0.64879 0.34434 0.19382 0.0
C1344 C 0.66494 0.30416 0.24045 0.0
C1345 C 0.66115 0.29 0.18619 0.0
H1346 H 0.66204 0.34065 0.28705 0.0
H1347 H 0.67243 0.29453 0.28072 0.0
S1348 S 0.63501 0.3159 1.04103 0.0
N1349 N 0.63501 0.3411 0.0876 0.0
N1350 N 0.64696 0.29145 0.08083 0.0
C1351 C 0.6517 0.30336 0.13502 0.0
C1352 C 0.64534 0.33042 0.13877 0.0
C1353 C 0.4556 0.92545 0.93666 0.0
C1354 C 0.44498 0.90033 0.94233 0.0
C1355 C 0.4825 0.92937 0.93119 0.0
C1356 C 0.50001 0.90836 0.93101 0.0
H1357 H 0.44304 0.9423 0.93587 0.0
H1358 H 0.48967 0.94908 0.92855 0.0
S1359 S 0.4824 0.83863 0.94395 0.0
N1360 N 0.45438 0.85409 0.94829 0.0
N1361 N 0.50466 0.8614 0.93524 0.0
C1362 C 0.48966 0.88312 0.93587 0.0
C1363 C 0.46229 0.87913 0.9421 0.0
C1364 C 0.88167 0.33085 0.86101 0.0
C1365 C 0.88694 0.34539 0.91376 0.0
C1366 C 0.87771 0.30386 0.8641 0.0
C1367 C 0.87835 0.2905 0.92026 0.0
H1368 H 0.88111 0.34039 0.81702 0.0
H1369 H 0.87398 0.29335 0.82218 0.0
S1370 S 0.8892 0.32029 0.07217 0.0
N1371 N 0.89121 0.34489 1.02403 0.0
N1372 N 0.88345 0.29428 1.03008 0.0
C1373 C 0.88278 0.30504 0.97354 0.0
C1374 C 0.8872 0.33244 0.97023 0.0
C1375 C 0.46014 0.13192 0.60738 0.0
C1376 C 0.44549 0.13701 0.66004 0.0
C1377 C 0.48706 0.12767 0.61085 0.0
C1378 C 0.50024 0.12785 0.66727 0.0
H1379 H 0.45074 0.13174 0.5632 0.0
H1380 H 0.49764 0.12406 0.569 0.0
S1381 S 0.47006 0.13798 0.81899 0.0
N1382 N 0.44566 0.14054 0.77045 0.0
N1383 N 0.49615 0.13228 0.77721 0.0
C1384 C 0.48558 0.13208 0.72043 0.0
C1385 C 0.45825 0.13677 0.71675 0.0
C1386 C 0.63732 0.73743 0.41559 0.0
C1387 C 0.66236 0.74836 0.41833 0.0
C1388 C 0.63363 0.71047 0.41079 0.0
C1389 C 0.65479 0.69314 0.40831 0.0
H1390 H 0.62035 0.74984 0.41739 0.0
H1391 H 0.61395 0.70314 0.40856 0.0
S1392 S 0.72453 0.71188 0.41303 0.0
N1393 N 0.70877 0.73976 0.4163 0.0
N1394 N 0.70193 0.68917 0.40996 0.0
C1395 C 0.68001 0.70383 0.41098 0.0
C1396 C 0.68375 0.73135 0.4155 0.0
C1397 C 0.05504 0.9033 0.20746 0.0
C1398 C 0.04166 0.91456 0.1583 0.0
C1399 C 0.08182 0.89816 0.20375 0.0
C1400 C 0.09625 0.90447 0.15109 0.0
H1401 H 0.04464 0.89798 0.24854 0.0
H1402 H 0.09137 0.8894 0.24263 0.0
S1403 S 0.07028 0.93533 1.01102 0.0
N1404 N 0.04476 0.93251 0.05615 0.0
N1405 N 0.09506 0.92317 1.04947 0.0
C1406 C 0.08311 0.9163 0.10227 0.0
C1407 C 0.05584 0.92122 0.10577 0.0
C1408 C 0.66507 0.80419 0.87027 0.0
C1409 C 0.66154 0.79046 0.92534 0.0
C1410 C 0.66142 0.8312 0.86705 0.0
C1411 C 0.65372 0.84548 0.91851 0.0
H1412 H 0.67071 0.79393 0.82921 0.0
H1413 H 0.66407 0.84096 0.82375 0.0
S1414 S 0.64391 0.81939 0.07456 0.0
N1415 N 0.65134 0.79359 1.03325 0.0
N1416 N 0.64442 0.84431 1.02712 0.0
C1417 C 0.65079 0.83218 0.9742 0.0
C1418 C 0.65479 0.80471 0.97766 0.0
C1419 C 0.45661 0.39897 0.20737 0.0
C1420 C 0.44207 0.4059 0.15528 0.0
C1421 C 0.48341 0.404 0.21106 0.0
C1422 C 0.49667 0.41583 0.16247 0.0
H1423 H 0.44715 0.38973 0.24574 0.0
H1424 H 0.49394 0.39806 0.2515 0.0
S1425 S 0.46771 0.43845 1.01703 0.0
N1426 N 0.44303 0.42582 0.05493 0.0
N1427 N 0.49333 0.43511 0.0617 0.0
C1428 C 0.48236 0.42321 0.11067 0.0
C1429 C 0.45509 0.41833 0.10714 0.0
C1430 C 0.88022 0.20896 0.35848 0.0
C1431 C 0.88664 0.19439 0.41043 0.0
C1432 C 0.87608 0.23588 0.36233 0.0
C1433 C 0.87773 0.24915 0.41852 0.0
H1434 H 0.87894 0.1995 0.31447 0.0
H1435 H 0.87148 0.24643 0.32096 0.0
S1436 S 0.89188 0.21925 0.56873 0.0
N1437 N 0.89308 0.19475 0.52015 0.0
N1438 N 0.88507 0.24527 0.5276 0.0
C1439 C 0.88331 0.23458 0.4711 0.0
C1440 C 0.88788 0.20724 0.46699 0.0
C1441 C 0.0546 0.62667 0.61658 0.0
C1442 C 0.04137 0.62769 0.67285 0.0
C1443 C 0.08157 0.63062 0.61301 0.0
C1444 C 0.09622 0.63627 0.66536 0.0
H1445 H 0.04402 0.62262 0.57494 0.0
H1446 H 0.09101 0.62972 0.56895 0.0
S1447 S 0.0714 0.63994 0.82387 0.0
N1448 N 0.04533 0.63374 0.78236 0.0
N1449 N 0.09591 0.64157 0.7754 0.0
C1450 C 0.08338 0.63704 0.72194 0.0
C1451 C 0.056 0.63259 0.72576 0.0
C1452 C 0.63876 0.23687 0.68502 0.0
C1453 C 0.66393 0.24755 0.68491 0.0
C1454 C 0.6347 0.20995 0.6894 0.0
C1455 C 0.6556 0.19236 0.69394 0.0
H1456 H 0.62196 0.24946 0.68161 0.0
H1457 H 0.61491 0.20288 0.68976 0.0
S1458 S 0.72557 0.21045 0.69676 0.0
N1459 N 0.71016 0.23847 0.69185 0.0
N1460 N 0.70271 0.18796 0.69719 0.0
C1461 C 0.68096 0.20281 0.69383 0.0
C1462 C 0.68506 0.23031 0.68983 0.0
C1463 C 0.08125 0.40961 0.99483 0.0
C1464 C 0.09553 0.40291 0.94263 0.0
C1465 C 0.0543 0.41371 0.99168 0.0
C1466 C 0.04072 0.41175 0.93595 0.0
H1467 H 0.09095 0.41114 1.0385 0.0
H1468 H 0.04398 0.41854 1.03322 0.0
S1469 S 0.06976 0.39676 0.78529 0.0
N1470 N 0.09453 0.39587 0.83312 0.0
N1471 N 0.04398 0.40378 0.82702 0.0
C1472 C 0.05499 0.40587 0.88312 0.0
C1473 C 0.08235 0.40136 0.88652 0.0
C1474 C 0.86461 0.83657 0.18911 0.0
C1475 C 0.89002 0.84675 0.19158 0.0
C1476 C 0.86003 0.80968 0.18544 0.0
C1477 C 0.88065 0.7917 0.18401 0.0
H1478 H 0.84803 0.84947 0.18945 0.0
H1479 H 0.84011 0.80293 0.18502 0.0
S1480 S 0.95088 0.80804 0.18834 0.0
N1481 N 0.9361 0.83642 0.1929 0.0
N1482 N 0.92754 0.78616 0.18335 0.0
C1483 C 0.90616 0.8016 0.18563 0.0
C1484 C 0.91082 0.82898 0.18994 0.0
C1485 C 0.483 0.61008 0.43752 0.0
C1486 C 0.50087 0.63078 0.43495 0.0
C1487 C 0.45613 0.61455 0.44197 0.0
C1488 C 0.44587 0.63994 0.44418 0.0
H1489 H 0.48984 0.59018 0.43719 0.0
H1490 H 0.44331 0.59791 0.44297 0.0
S1491 S 0.48437 0.70097 0.43956 0.0
N1492 N 0.50627 0.67769 0.43389 0.0
N1493 N 0.45609 0.68608 0.44516 0.0
C1494 C 0.46357 0.66082 0.44201 0.0
C1495 C 0.49091 0.65625 0.4368 0.0
C1496 C 0.39289 0.20952 0.14125 0.0
C1497 C 0.38508 0.19528 0.19311 0.0
C1498 C 0.38826 0.23637 0.13653 0.0
C1499 C 0.37591 0.25002 0.18378 0.0
H1500 H 0.40249 0.19978 0.10376 0.0
H1501 H 0.39479 0.24662 0.0962 0.0
S1502 S 0.35107 0.2221 0.32826 0.0
N1503 N 0.36384 0.19704 0.29195 0.0
N1504 N 0.35537 0.24746 0.28321 0.0
C1505 C 0.36772 0.23607 0.23542 0.0
C1506 C 0.37219 0.20872 0.24001 0.0
C1507 C 0.58117 0.64503 0.88934 0.0
C1508 C 0.59516 0.63726 0.94161 0.0
C1509 C 0.55416 0.64124 0.88489 0.0
C1510 C 0.54011 0.63 0.93303 0.0
H1511 H 0.59123 0.65387 0.8513 0.0
H1512 H 0.54415 0.64758 0.84408 0.0
S1513 S 0.56741 0.60554 0.07868 0.0
N1514 N 0.59282 0.61708 1.04153 0.0
N1515 N 0.54216 0.61036 1.03365 0.0
C1516 C 0.55386 0.6219 0.98515 0.0
C1517 C 0.58134 0.62538 0.98929 0.0
C1518 C 0.1607 0.83084 0.73745 0.0
C1519 C 0.15437 0.84532 0.68532 0.0
C1520 C 0.16446 0.80384 0.73408 0.0
C1521 C 0.16242 0.79036 0.67823 0.0
H1522 H 0.16219 0.84041 0.78129 0.0
H1523 H 0.16905 0.79342 0.77562 0.0
S1524 S 0.14868 0.82001 0.5275 0.0
N1525 N 0.1479 0.8447 0.57562 0.0
N1526 N 0.15505 0.79401 0.56908 0.0
C1527 C 0.15702 0.80485 0.62539 0.0
C1528 C 0.15291 0.83229 0.629 0.0
C1529 C 0.95985 0.40998 0.48885 0.0
C1530 C 0.94516 0.4027 0.43768 0.0
C1531 C 0.98682 0.41363 0.48461 0.0
C1532 C 1.00008 0.41055 0.42877 0.0
H1533 H 0.95043 0.41235 0.53265 0.0
H1534 H 0.99742 0.41896 0.52543 0.0
S1535 S 0.96997 0.39399 0.28016 0.0
N1536 N 0.94544 0.39414 0.32871 0.0
N1537 N 0.99609 0.40113 0.32062 0.0
C1538 C 0.98543 0.40417 0.37682 0.0
C1539 C 0.958 0.40014 0.38133 0.0
C1540 C 0.37702 0.80578 0.36587 0.0
C1541 C 0.37855 0.79239 0.42193 0.0
C1542 C 0.38108 0.83274 0.36232 0.0
C1543 C 0.38726 0.84731 0.41446 0.0
H1544 H 0.37259 0.79531 0.32429 0.0
H1545 H 0.37991 0.84223 0.31833 0.0
S1546 S 0.39172 0.82227 0.57274 0.0
N1547 N 0.38531 0.79625 0.53125 0.0
N1548 N 0.39307 0.84684 0.52438 0.0
C1549 C 0.38825 0.83438 0.47097 0.0
C1550 C 0.3838 0.80697 0.47476 0.0
C1551 C 0.98405 0.63575 0.21519 0.0
C1552 C 0.99789 0.62927 0.16198 0.0
C1553 C 0.95718 0.64077 0.21325 0.0
C1554 C 0.94312 0.63896 0.15828 0.0
H1555 H 0.99413 0.63738 0.25838 0.0
H1556 H 0.94723 0.64578 0.25512 0.0
S1557 S 0.96993 0.62227 1.0067 0.0
N1558 N 0.99525 0.621 0.05286 0.0
N1559 N 0.94488 0.63019 1.04984 0.0
C1560 C 0.95661 0.63214 0.10513 0.0
C1561 C 0.98395 0.62738 0.10681 0.0
C1562 C 0.15053 0.23409 0.96516 0.0
C1563 C 0.16166 0.24785 0.91643 0.0
C1564 C 0.14604 0.20719 0.96096 0.0
C1565 C 0.15286 0.19305 0.90819 0.0
H1566 H 0.14491 0.24426 1.00635 0.0
H1567 H 0.13744 0.19731 0.99957 0.0
S1568 S 0.18336 0.2202 0.76892 0.0
N1569 N 0.17987 0.24551 0.81449 0.0
N1570 N 0.1717 0.19501 0.80676 0.0
C1571 C 0.16445 0.20662 0.8597 0.0
C1572 C 0.16873 0.234 0.86374 0.0
C1573 C 0.58359 0.39739 0.71421 0.0
C1574 C 0.59821 0.40313 0.66149 0.0
C1575 C 0.55673 0.40235 0.71687 0.0
C1576 C 0.54346 0.41281 0.66654 0.0
H1577 H 0.59306 0.38928 0.75396 0.0
H1578 H 0.5462 0.39759 0.75814 0.0
S1579 S 0.57253 0.43157 0.51828 0.0
N1580 N 0.59725 0.42023 0.5583 0.0
N1581 N 0.54685 0.4292 0.56304 0.0
C1582 C 0.55781 0.41876 0.61381 0.0
C1583 C 0.58515 0.41405 0.61137 0.0
C1584 C 0.27093 0.2549 0.25354 0.0
C1585 C 0.25348 0.24946 0.30099 0.0
C1586 C 0.28731 0.27653 0.25645 0.0
C1587 C 0.28662 0.29344 0.30682 0.0
H1588 H 0.27206 0.24216 0.21434 0.0
H1589 H 0.3009 0.27985 0.21959 0.0
S1590 S 0.24281 0.28917 0.44005 0.0
N1591 N 0.23536 0.26363 0.39795 0.0
N1592 N 0.26637 0.30426 0.40328 0.0
C1593 C 0.26907 0.28845 0.35407 0.0
C1594 C 0.25239 0.26646 0.35119 0.0
C1595 C 0.03457 1.01886 0.50078 0.0
C1596 C 0.04189 1.0039 0.55152 0.0
C1597 C 1.01308 0.03541 0.50331 0.0
C1598 C 0.99809 0.03752 0.5567 0.0
H1599 H 0.04571 1.01789 0.45898 0.0
H1600 H 1.00843 0.04698 0.46354 0.0
S1601 S 1.00811 1.00167 0.70117 0.0
N1602 N 0.03169 0.99155 0.65612 0.0
N1603 N 0.99143 0.02292 0.66068 0.0
C1604 C 1.00507 0.02265 0.60765 0.0
C1605 C 0.02693 1.00575 0.60515 0.0
C1606 C 0.28765 0.77674 0.84281 0.0
C1607 C 0.28722 0.79326 0.79174 0.0
C1608 C 0.27168 0.75479 0.84548 0.0
C1609 C 0.25494 0.7486 0.79707 0.0
H1610 H 0.30065 0.78063 0.88055 0.0
H1611 H 0.27244 0.74247 0.88547 0.0
S1612 S 0.24549 0.78679 0.65522 0.0
N1613 N 0.26816 0.80272 0.69312 0.0
N1614 N 0.23799 0.76148 0.69798 0.0
C1615 C 0.25428 0.76508 0.74592 0.0
C1616 C 0.2705 0.78742 0.7433 0.0
C1617 C 0.53507 0.02062 0.10086 0.0
C1618 C 0.54218 1.00548 0.05021 0.0
C1619 C 0.5137 0.03736 0.09835 0.0
C1620 C 0.49863 0.03949 1.04507 0.0
H1621 H 0.54626 1.01959 0.14261 0.0
H1622 H 0.50918 0.04902 0.13806 0.0
S1623 S 0.50808 1.00318 0.90096 0.0
N1624 N 0.53169 0.99298 0.94589 0.0
N1625 N 0.49167 0.02469 0.9413 0.0
C1626 C 0.50542 0.02446 0.99419 0.0
C1627 C 0.52715 1.00738 0.99669 0.0
C1628 C 0.27 0.75498 0.25158 0.0
C1629 C 0.28625 0.74906 0.30108 0.0
C1630 C 0.25307 0.77621 0.25388 0.0
C1631 C 0.25194 0.79225 0.30574 0.0
H1632 H 0.27026 0.74294 0.21108 0.0
H1633 H 0.24048 0.77986 0.21525 0.0
S1634 S 0.29208 0.78658 0.44509 0.0
N1635 N 0.30131 0.76199 0.40188 0.0
N1636 N 0.26922 0.80176 0.40615 0.0
C1637 C 0.26826 0.78678 0.35518 0.0
C1638 C 0.28552 0.76521 0.35288 0.0
C1639 C 0.5216 0.9979 0.58097 0.0
C1640 C 0.4973 1.00562 0.55804 0.0
C1641 C 0.54347 1.01376 0.57415 0.0
C1642 C 0.54172 0.0378 0.54413 0.0
H1643 H 0.52378 0.97926 0.60322 0.0
H1644 H 0.56194 1.00717 0.59198 0.0
S1645 S 0.48183 0.06793 0.48209 0.0
N1646 N 0.47231 0.03933 0.50784 0.0
N1647 N 0.51333 0.0695 0.49581 0.0
C1648 C 0.51738 0.04599 0.52229 0.0
C1649 C 0.49518 0.02978 0.52905 0.0
C1650 C 0.27046 0.25527 0.84695 0.0
C1651 C 0.28351 0.24643 0.79465 0.0
C1652 C 0.25367 0.27657 0.84438 0.0
C1653 C 0.24933 0.28993 0.78936 0.0
H1654 H 0.27331 0.24563 0.89031 0.0
H1655 H 0.24382 0.28242 0.88576 0.0
S1656 S 0.27828 0.27451 0.63882 0.0
N1657 N 0.2907 0.25274 0.6857 0.0
N1658 N 0.25899 0.29268 0.68114 0.0
C1659 C 0.26183 0.28107 0.73641 0.0
C1660 C 0.27896 0.25935 0.73895 0.0
C1661 C 0.04223 1.0141 1.02252 0.0
C1662 C 0.04076 0.03786 0.0538 0.0
C1663 C 0.02021 0.9985 1.01508 0.0
C1664 C 0.99602 1.00625 1.03858 0.0
H1665 H 0.06062 1.00747 1.00433 0.0
H1666 H 0.02222 0.98 0.99212 0.0
S1667 S 0.98127 0.06809 0.1174 0.0
N1668 N 1.01277 0.06946 0.10359 0.0
N1669 N 0.97142 0.03979 0.09044 0.0
C1670 C 0.99416 0.03021 0.06862 0.0
C1671 C 1.01653 0.04614 0.07601 0.0
C1672 C 0.76757 0.75638 0.75324 0.0
C1673 C 0.7508 0.75047 0.8017 0.0
C1674 C 0.78383 0.77812 0.75572 0.0
C1675 C 0.78363 0.79477 0.80661 0.0
H1676 H 0.76832 0.74387 0.7136 0.0
H1677 H 0.79702 0.78162 0.71817 0.0
S1678 S 0.74074 0.78986 0.94148 0.0
N1679 N 0.73325 0.76432 0.89944 0.0
N1680 N 0.76391 0.80522 0.90397 0.0
C1681 C 0.76641 0.78954 0.85447 0.0
C1682 C 0.74992 0.76739 0.85205 0.0
C1683 C 0.77241 0.25367 0.34993 0.0
C1684 C 0.75465 0.24813 0.3031 0.0
C1685 C 0.78789 0.27599 0.34773 0.0
C1686 C 0.78597 0.29348 0.29868 0.0
H1687 H 0.77453 0.24046 0.38803 0.0
H1688 H 0.80182 0.27934 0.3839 0.0
S1689 S 0.74061 0.28942 0.16827 0.0
N1690 N 0.73465 0.26305 0.2088 0.0
N1691 N 0.76411 0.30484 0.20455 0.0
C1692 C 0.768 0.28847 0.2523 0.0
C1693 C 0.7522 0.26583 0.25453 0.0
C1694 C 0.74776 0.26559 0.82677 0.0
C1695 C 0.75525 0.29047 0.80698 0.0
C1696 C 0.76431 0.24427 0.81962 0.0
C1697 C 0.78872 0.24713 0.79201 0.0
H1698 H 0.72884 0.26253 0.84703 0.0
H1699 H 0.758 0.22537 0.83545 0.0
S1700 S 0.81819 0.30857 0.73734 0.0
N1701 N 0.78906 0.31705 0.76172 0.0
N1702 N 0.82031 0.2769 0.74836 0.0
C1703 C 0.79656 0.27193 0.77264 0.0
C1704 C 0.77974 0.29363 0.78007 0.0
C1705 C 0.77404 0.79179 0.33032 0.0
C1706 C 0.75048 0.78995 0.29839 0.0
C1707 C 0.79021 0.77016 0.33705 0.0
C1708 C 0.78325 0.74596 0.31221 0.0
H1709 H 0.7801 0.8102 0.34956 0.0
H1710 H 0.80855 0.77251 0.36053 0.0
S1711 S 0.72226 0.7302 0.23081 0.0
N1712 N 0.71994 0.76153 0.24618 0.0
N1713 N 0.75066 0.72089 0.25815 0.0
C1714 C 0.7595 0.7437 0.28139 0.0
C1715 C 0.74299 0.7657 0.27467 0.0
C1716 C 0.5267 0.505 0.09281 0.0
C1717 C 0.54499 0.50767 1.04552 0.0
C1718 C 0.50472 0.52093 0.09532 0.0
C1719 C 0.50022 0.53977 0.05034 0.0
H1720 H 0.52911 0.49016 0.12732 0.0
H1721 H 0.4909 0.51827 0.132 0.0
S1722 S 0.54348 0.55595 0.92059 0.0
N1723 N 0.55813 0.5316 0.95541 0.0
N1724 N 0.51659 0.56137 0.95959 0.0
C1725 C 0.51858 0.54291 1.00351 0.0
C1726 C 0.54103 0.52685 1.00123 0.0
C1727 C 0.03523 0.5185 0.59904 0.0
C1728 C 0.04045 0.50129 0.5509 0.0
C1729 C 1.01357 0.53489 0.59729 0.0
C1730 C 0.99641 0.53445 0.54738 0.0
H1731 H 0.04823 0.51952 0.6378 0.0
H1732 H 1.01051 0.54837 0.63451 0.0
S1733 S 0.9997 0.49088 0.41344 0.0
N1734 N 0.02552 0.48332 0.45443 0.0
N1735 N 0.98491 0.5144 0.45106 0.0
C1736 C 1.00105 0.51697 0.49971 0.0
C1737 C 0.02305 0.50028 0.50149 0.0
C1738 C 0.02013 0.49904 0.08641 0.0
C1739 C 0.99708 0.50433 0.05436 0.0
C1740 C 0.04204 0.51482 0.07953 0.0
C1741 C 0.04173 0.53636 1.04018 0.0
H1742 H 0.02145 0.48231 0.11613 0.0
H1743 H 0.05946 0.51009 0.10492 0.0
S1744 S 0.98571 0.55918 0.94816 0.0
N1745 N 0.97491 0.53304 0.98356 0.0
N1746 N 1.01611 0.56275 0.97047 0.0
C1747 C 1.01876 0.54195 1.00809 0.0
C1748 C 0.99643 0.52592 1.01527 0.0
C1749 C 0.52339 0.49676 0.51935 0.0
C1750 C 0.49896 0.50453 0.54141 0.0
C1751 C 0.54519 0.51269 0.52652 0.0
C1752 C 0.54325 0.53678 0.5562 0.0
H1753 H 0.52574 0.47801 0.49766 0.0
H1754 H 0.56377 0.50609 0.50935 0.0
S1755 S 0.48307 0.56704 0.61601 0.0
N1756 N 0.47367 0.53838 0.59027 0.0
N1757 N 0.51464 0.56858 0.60329 0.0
C1758 C 0.51881 0.54502 0.57716 0.0
C1759 C 0.49666 0.52879 0.56988 0.0
C1760 C 0.24996 0.16531 0.58126 0.0
C1761 C 0.2469 0.16685 0.51725 0.0
C1762 C 0.27464 0.16587 0.60931 0.0
C1763 C 0.29768 0.16796 0.57493 0.0
H1764 H 0.23306 0.16398 0.61047 0.0
H1765 H 0.27558 0.16497 0.65861 0.0
S1766 S 0.30085 0.17211 0.40546 0.0
N1767 N 0.26951 0.1701 0.42032 0.0
N1768 N 0.31556 0.1712 0.47232 0.0
C1769 C 0.29495 0.16917 0.51072 0.0
C1770 C 0.26977 0.1686 0.48219 0.0
C1771 C 0.12239 0.02159 0.86251 0.0
C1772 C 0.12297 0.04492 0.82886 0.0
C1773 C 0.12246 0.99706 0.83353 0.0
C1774 C 0.12305 0.99448 0.76929 0.0
H1775 H 0.12155 0.0222 0.91184 0.0
H1776 H 0.12169 0.97993 0.86212 0.0
S1777 S 0.12525 0.04932 0.65932 0.0
N1778 N 0.12463 0.06355 0.72675 0.0
N1779 N 0.12471 1.01782 0.67312 0.0
C1780 C 0.12396 1.01762 0.73507 0.0
C1781 C 0.12393 0.04263 0.76451 0.0
C1782 C 0.24803 0.87257 1.01605 0.0
C1783 C 0.24525 0.87237 0.08025 0.0
C1784 C 0.27262 0.87281 0.98753 0.0
C1785 C 0.29583 0.87292 1.02161 0.0
H1786 H 0.23099 0.87222 0.9871 0.0
H1787 H 0.27337 0.87258 0.93817 0.0
S1788 S 0.29972 0.8731 0.19133 0.0
N1789 N 0.26827 0.87278 0.17693 0.0
N1790 N 0.31416 0.8733 0.12414 0.0
C1791 C 0.29336 0.87312 0.08597 0.0
C1792 C 0.26827 0.87282 0.11496 0.0
C1793 C 0.41995 0.99969 0.26867 0.0
C1794 C 0.41795 0.99703 0.33274 0.0
C1795 C 0.41967 0.02422 0.2397 0.0
C1796 C 0.4173 0.04748 0.27317 0.0
H1797 H 0.42214 0.98263 0.24024 0.0
H1798 H 0.4217 0.02489 0.19057 0.0
S1799 S 0.41014 0.05162 0.44199 0.0
N1800 N 0.41268 0.02019 0.42843 0.0
N1801 N 0.41198 0.06593 0.37478 0.0
C1802 C 0.41479 0.0451 0.33728 0.0
C1803 C 0.41516 1.02009 0.36674 0.0
C1804 C 0.79153 0.87223 0.51785 0.0
C1805 C 0.79431 0.87278 0.58203 0.0
C1806 C 0.76693 0.87207 0.48931 0.0
C1807 C 0.74373 0.87252 0.52338 0.0
H1808 H 0.80857 0.87157 0.48896 0.0
H1809 H 0.76617 0.87128 0.43998 0.0
S1810 S 0.73985 0.87469 0.693 0.0
N1811 N 0.77129 0.87429 0.67864 0.0
N1812 N 0.72541 0.87405 0.62581 0.0
C1813 C 0.7462 0.87346 0.58769 0.0
C1814 C 0.77129 0.87358 0.61668 0.0
C1815 C 0.92028 0.02358 0.35982 0.0
C1816 C 0.91796 0.04694 0.32677 0.0
C1817 C 0.92039 0.99916 0.33042 0.0
C1818 C 0.91821 0.99673 0.26634 0.0
H1819 H 0.92248 0.02409 0.40893 0.0
H1820 H 0.9226 0.982 0.3585 0.0
S1821 S 0.91013 0.05168 0.15822 0.0
N1822 N 0.9123 0.06577 0.22566 0.0
N1823 N 0.91263 0.0202 0.17114 0.0
C1824 C 0.91537 1.0199 0.23278 0.0
C1825 C 0.91521 0.0448 0.26269 0.0
C1826 C 0.79193 0.16611 0.08202 0.0
C1827 C 0.79445 0.16703 1.01781 0.0
C1828 C 0.76747 0.16604 0.1111 0.0
C1829 C 0.74412 0.16681 0.07761 0.0
H1830 H 0.80908 0.16572 0.11058 0.0
H1831 H 0.76694 0.16562 0.16047 0.0
S1832 S 0.73952 0.16922 0.90808 0.0
N1833 N 0.77103 0.16854 0.9217 0.0
N1834 N 0.72536 0.16836 0.97558 0.0
C1835 C 0.74632 0.16745 1.01321 0.0
C1836 C 0.77128 0.16756 0.98363 0.0
C1837 C 0.62236 0.02134 0.7387 0.0
C1838 C 0.6229 0.04473 0.77211 0.0
C1839 C 0.62248 0.99688 0.76796 0.0
C1840 C 0.6231 0.99447 0.83222 0.0
H1841 H 0.62145 0.02184 0.68937 0.0
H1842 H 0.62168 0.97968 0.7396 0.0
S1843 S 0.62557 0.04955 0.94155 0.0
N1844 N 0.6248 0.06362 0.87395 0.0
N1845 N 0.62499 1.01802 0.92812 0.0
C1846 C 0.62408 1.01769 0.86618 0.0
C1847 C 0.62398 0.04261 0.83646 0.0
C1848 C 0.7476 0.66638 0.08602 0.0
C1849 C 0.74508 0.6671 1.02176 0.0
C1850 C 0.77206 0.66724 0.11524 0.0
C1851 C 0.7954 0.66879 0.08183 0.0
H1852 H 0.73045 0.66546 0.1145 0.0
H1853 H 0.77259 0.66698 0.16462 0.0
S1854 S 0.79998 0.67082 0.91226 0.0
N1855 N 0.7685 0.66916 0.92578 0.0
N1856 N 0.81412 0.67068 0.97982 0.0
C1857 C 0.79319 0.66924 1.01741 0.0
C1858 C 0.76824 0.66842 0.98773 0.0
C1859 C 0.63585 0.49994 0.32352 0.0
C1860 C 0.62841 0.49729 0.26176 0.0
C1861 C 0.63308 0.52373 0.35537 0.0
C1862 C 0.62323 0.54619 0.32666 0.0
H1863 H 0.64372 0.4834 0.34777 0.0
H1864 H 0.63906 0.52457 0.40268 0.0
S1865 S 0.60128 0.54986 0.16497 0.0
N1866 N 0.61103 0.51954 0.17324 0.0
N1867 N 0.60578 0.56378 0.23195 0.0
C1868 C 0.61574 0.54373 0.26479 0.0
C1869 C 0.61833 0.51949 0.23276 0.0
C1870 C 0.74934 0.37042 0.52273 0.0
C1871 C 0.74688 0.37208 0.58687 0.0
C1872 C 0.77376 0.37081 0.49345 0.0
C1873 C 0.7971 0.37294 0.52667 0.0
H1874 H 0.73221 0.3684 0.49448 0.0
H1875 H 0.77429 0.36901 0.44426 0.0
S1876 S 0.80173 0.37937 0.69555 0.0
N1877 N 0.77027 0.37692 0.6824 0.0
N1878 N 0.81586 0.3778 0.62809 0.0
C1879 C 0.79492 0.37517 0.59085 0.0
C1880 C 0.77001 0.3747 0.62065 0.0
C1881 C 0.91889 0.49772 0.7703 0.0
C1882 C 0.9171 0.49501 0.83436 0.0
C1883 C 0.91911 0.52228 0.74164 0.0
C1884 C 0.91751 0.54551 0.77545 0.0
H1885 H 0.92055 0.48067 0.74164 0.0
H1886 H 0.92098 0.523 0.69247 0.0
S1887 S 0.91094 0.54956 0.94437 0.0
N1888 N 0.91266 0.51809 0.93044 0.0
N1889 N 0.91296 0.56394 0.87727 0.0
C1890 C 0.91516 0.5431 0.83955 0.0
C1891 C 0.91498 0.51805 0.86871 0.0
C1892 C 0.29068 0.37357 1.01785 0.0
C1893 C 0.29322 0.37299 0.08211 0.0
C1894 C 0.26621 0.3728 0.9887 0.0
C1895 C 0.24289 0.37147 1.02218 0.0
H1896 H 0.30782 0.3743 0.98932 0.0
H1897 H 0.26565 0.37298 0.93932 0.0
S1898 S 0.23836 0.36995 0.19182 0.0
N1899 N 0.26984 0.3714 0.17819 0.0
N1900 N 0.2242 0.37 0.12429 0.0
C1901 C 0.24512 0.37123 0.08662 0.0
C1902 C 0.27007 0.37199 0.11624 0.0
C1903 C 0.42085 0.52407 0.86035 0.0
C1904 C 0.41784 0.54723 0.82679 0.0
C1905 C 0.42179 0.49955 0.8315 0.0
C1906 C 0.41987 0.49679 0.76745 0.0
H1907 H 0.4228 0.52483 0.9095 0.0
H1908 H 0.42439 0.48259 0.86005 0.0
S1909 S 0.411 0.55106 0.65784 0.0
N1910 N 0.41231 0.56547 0.72502 0.0
N1911 N 0.41424 0.51971 0.67157 0.0
C1912 C 0.41655 0.51973 0.7333 0.0
C1913 C 0.41551 0.54474 0.76265 0.0
C1914 C 0.29234 0.66745 0.58358 0.0
C1915 C 0.29521 0.66743 0.5194 0.0
C1916 C 0.2677 0.66711 0.61191 0.0
C1917 C 0.24453 0.66664 0.57767 0.0
H1918 H 0.30933 0.6681 0.61264 0.0
H1919 H 0.26689 0.66753 0.66126 0.0
S1920 S 0.24088 0.66581 0.40796 0.0
N1921 N 0.27231 0.66644 0.42258 0.0
N1922 N 0.22635 0.66573 0.47504 0.0
C1923 C 0.2471 0.66623 0.51336 0.0
C1924 C 0.27223 0.66664 0.48455 0.0
C1925 C 0.12289 0.51665 0.36019 0.0
C1926 C 0.12268 0.49335 0.32642 0.0
C1927 C 0.12225 0.54121 0.33137 0.0
C1928 C 0.12125 0.54387 0.26717 0.0
H1929 H 0.12338 0.516 0.40954 0.0
H1930 H 0.1223 0.55831 0.36012 0.0
S1931 S 0.12005 0.48911 0.15684 0.0
N1932 N 0.12136 0.47481 0.22414 0.0
N1933 N 0.12005 0.5206 0.17085 0.0
C1934 C 0.12115 0.52074 0.23277 0.0
C1935 C 0.12188 0.4957 0.26205 0.0
loop_
_geom_bond_atom_site_label_1
_geom_bond_atom_site_label_2
_geom_bond_distance
_geom_bond_site_symmetry_2
_ccdc_geom_bond_type
C0 C1 1.351 . S
C0 N3 1.368 . S
C0 H5 0.931 . S
C1 C0 1.351 . S
C1 N2 1.373 . S
C1 H29 0.930 . S
N2 C1 1.373 . S
N2 C4 1.340 . S
N3 C0 1.368 . S
N3 C4 1.321 . S
N3 Co6 2.135 . S
C4 N2 1.340 . S
C4 N3 1.321 . S
C4 H28 0.930 . S
H5 C0 0.931 . S
Co6 N3 2.135 . S
Co6 N9 2.121 . S
Co6 O14 2.055 . S
Co6 O17 2.039 . S
Co6 N20 2.140 . S
C7 O8 1.227 . S
C7 O17 1.265 . S
O8 C7 1.227 . S
N9 Co6 2.121 . S
N9 C11 1.375 . S
N9 C12 1.313 . S
C10 C11 1.338 . S
C10 N13 1.377 . S
C10 H30 0.930 . S
C11 N9 1.375 . S
C11 C10 1.338 . S
C11 H15 0.931 . S
C12 N9 1.313 . S
C12 N13 1.344 . S
C12 H16 0.930 . S
N13 C10 1.377 . S
N13 C12 1.344 . S
O14 Co6 2.055 . S
O14 C18 1.253 . S
H15 C11 0.931 . S
H16 C12 0.930 . S
O17 Co6 2.039 . S
O17 C7 1.265 . S
C18 O14 1.253 . S
C18 O19 1.227 . S
O19 C18 1.227 . S
N20 Co6 2.140 . S
N20 C23 1.346 . S
N20 C24 1.345 . S
C21 C22 1.387 . S
C21 C25 1.391 . S
C22 C21 1.387 . S
C22 C23 1.369 . S
C22 H31 0.929 . S
C23 N20 1.346 . S
C23 C22 1.369 . S
C23 H26 0.928 . S
C24 N20 1.345 . S
C24 C25 1.371 . S
C24 H27 0.931 . S
C25 C21 1.391 . S
C25 C24 1.371 . S
C25 H32 0.930 . S
H26 C23 0.928 . S
H27 C24 0.931 . S
H28 C4 0.930 . S
H29 C1 0.930 . S
H30 C10 0.930 . S
H31 C22 0.929 . S
H32 C25 0.930 . S
C33 C34 1.351 . S
C33 N36 1.368 . S
C33 H38 0.931 . S
C34 C33 1.351 . S
C34 N35 1.373 . S
C34 H62 0.930 . S
N35 C34 1.373 . S
N35 C37 1.340 . S
N36 C33 1.368 . S
N36 C37 1.321 . S
N36 Co39 2.135 . S
C37 N35 1.340 . S
C37 N36 1.321 . S
C37 H61 0.930 . S
H38 C33 0.931 . S
Co39 N36 2.135 . S
Co39 N42 2.121 . S
Co39 O47 2.055 . S
Co39 O50 2.039 . S
Co39 N53 2.140 . S
C40 O41 1.227 . S
C40 O50 1.265 . S
O41 C40 1.227 . S
N42 Co39 2.121 . S
N42 C44 1.375 . S
N42 C45 1.313 . S
C43 C44 1.338 . S
C43 N46 1.377 . S
C43 H63 0.930 . S
C44 N42 1.375 . S
C44 C43 1.338 . S
C44 H48 0.931 . S
C45 N42 1.313 . S
C45 N46 1.344 . S
C45 H49 0.930 . S
N46 C43 1.377 . S
N46 C45 1.344 . S
O47 Co39 2.055 . S
O47 C51 1.253 . S
H48 C44 0.931 . S
H49 C45 0.930 . S
O50 Co39 2.039 . S
O50 C40 1.265 . S
C51 O47 1.253 . S
C51 O52 1.227 . S
O52 C51 1.227 . S
N53 Co39 2.140 . S
N53 C56 1.346 . S
N53 C57 1.345 . S
C54 C55 1.387 . S
C54 C58 1.391 . S
C55 C54 1.387 . S
C55 C56 1.369 . S
C55 H64 0.929 1_455 S
C56 N53 1.346 . S
C56 C55 1.369 . S
C56 H59 0.928 . S
C57 N53 1.345 . S
C57 C58 1.371 . S
C57 H60 0.931 . S
C58 C54 1.391 . S
C58 C57 1.371 . S
C58 H65 0.930 . S
H59 C56 0.928 . S
H60 C57 0.931 . S
H61 C37 0.930 . S
H62 C34 0.930 . S
H63 C43 0.930 . S
H64 C55 0.929 1_655 S
H65 C58 0.930 . S
C66 C67 1.351 . S
C66 N69 1.368 . S
C66 H71 0.931 . S
C67 C66 1.351 . S
C67 N68 1.373 . S
C67 H95 0.930 . S
N68 C67 1.373 . S
N68 C70 1.340 . S
N69 C66 1.368 . S
N69 C70 1.321 . S
N69 Co72 2.135 . S
C70 N68 1.340 . S
C70 N69 1.321 . S
C70 H94 0.930 . S
H71 C66 0.931 . S
Co72 N69 2.135 . S
Co72 N75 2.121 . S
Co72 O80 2.055 . S
Co72 O83 2.039 . S
Co72 N86 2.140 . S
C73 O74 1.227 . S
C73 O83 1.265 . S
O74 C73 1.227 . S
N75 Co72 2.121 . S
N75 C77 1.375 . S
N75 C78 1.313 . S
C76 C77 1.338 . S
C76 N79 1.377 . S
C76 H96 0.930 . S
C77 N75 1.375 . S
C77 C76 1.338 . S
C77 H81 0.931 . S
C78 N75 1.313 . S
C78 N79 1.344 . S
C78 H82 0.930 . S
N79 C76 1.377 . S
N79 C78 1.344 . S
O80 Co72 2.055 . S
O80 C84 1.253 . S
H81 C77 0.931 . S
H82 C78 0.930 . S
O83 Co72 2.039 . S
O83 C73 1.265 . S
C84 O80 1.253 . S
C84 O85 1.227 . S
O85 C84 1.227 . S
N86 Co72 2.140 . S
N86 C89 1.346 . S
N86 C90 1.345 . S
C87 C88 1.387 . S
C87 C91 1.391 . S
C88 C87 1.387 . S
C88 C89 1.369 . S
C88 H97 0.929 . S
C89 N86 1.346 . S
C89 C88 1.369 . S
C89 H92 0.928 . S
C90 N86 1.345 . S
C90 C91 1.371 . S
C90 H93 0.931 . S
C91 C87 1.391 . S
C91 C90 1.371 . S
C91 H98 0.930 . S
H92 C89 0.928 . S
H93 C90 0.931 . S
H94 C70 0.930 . S
H95 C67 0.930 . S
H96 C76 0.930 . S
H97 C88 0.929 . S
H98 C91 0.930 . S
C99 C100 1.351 . S
C99 N102 1.368 1_556 S
C99 H104 0.931 . S
C100 C99 1.351 . S
C100 N101 1.372 . S
C100 H128 0.930 . S
N101 C100 1.372 . S
N101 C103 1.342 1_556 S
N102 C99 1.368 1_554 S
N102 C103 1.321 . S
N102 Co105 2.135 . S
C103 N101 1.342 1_554 S
C103 N102 1.321 . S
C103 H127 0.930 . S
H104 C99 0.931 . S
Co105 N102 2.135 . S
Co105 N108 2.121 . S
Co105 O113 2.055 . S
Co105 O116 2.039 . S
Co105 N119 2.140 . S
C106 O107 1.227 . S
C106 O116 1.265 . S
O107 C106 1.227 . S
N108 Co105 2.121 . S
N108 C110 1.375 . S
N108 C111 1.313 . S
C109 C110 1.338 . S
C109 N112 1.377 . S
C109 H129 0.930 . S
C110 N108 1.375 . S
C110 C109 1.338 . S
C110 H114 0.931 . S
C111 N108 1.313 . S
C111 N112 1.344 . S
C111 H115 0.930 . S
N112 C109 1.377 . S
N112 C111 1.344 . S
O113 Co105 2.055 . S
O113 C117 1.253 1_554 S
H114 C110 0.931 . S
H115 C111 0.930 . S
O116 Co105 2.039 . S
O116 C106 1.265 . S
C117 O113 1.253 1_556 S
C117 O118 1.227 . S
O118 C117 1.227 . S
N119 Co105 2.140 . S
N119 C122 1.346 . S
N119 C123 1.345 . S
C120 C121 1.387 . S
C120 C124 1.391 . S
C121 C120 1.387 . S
C121 C122 1.369 . S
C121 H130 0.929 . S
C122 N119 1.346 . S
C122 C121 1.369 . S
C122 H125 0.928 . S
C123 N119 1.345 . S
C123 C124 1.371 . S
C123 H126 0.931 . S
C124 C120 1.391 . S
C124 C123 1.371 . S
C124 H131 0.930 . S
H125 C122 0.928 . S
H126 C123 0.931 . S
H127 C103 0.930 . S
H128 C100 0.930 . S
H129 C109 0.930 . S
H130 C121 0.929 . S
H131 C124 0.930 . S
C132 C133 1.351 . S
C132 N135 1.368 . S
C132 H137 0.931 . S
C133 C132 1.351 . S
C133 N134 1.373 . S
C133 H161 0.930 . S
N134 C133 1.373 . S
N134 C136 1.340 . S
N135 C132 1.368 . S
N135 C136 1.321 . S
N135 Co138 2.135 . S
C136 N134 1.340 . S
C136 N135 1.321 . S
C136 H160 0.930 . S
H137 C132 0.931 . S
Co138 N135 2.135 . S
Co138 N141 2.121 . S
Co138 O146 2.055 . S
Co138 O149 2.039 . S
Co138 N152 2.140 . S
C139 O140 1.227 . S
C139 O149 1.265 . S
O140 C139 1.227 . S
N141 Co138 2.121 . S
N141 C143 1.375 . S
N141 C144 1.313 . S
C142 C143 1.338 . S
C142 N145 1.377 . S
C142 H162 0.930 . S
C143 N141 1.375 . S
C143 C142 1.338 . S
C143 H147 0.931 . S
C144 N141 1.313 . S
C144 N145 1.344 . S
C144 H148 0.930 . S
N145 C142 1.377 . S
N145 C144 1.344 . S
O146 Co138 2.055 . S
O146 C150 1.253 . S
H147 C143 0.931 . S
H148 C144 0.930 . S
O149 Co138 2.039 . S
O149 C139 1.265 . S
C150 O146 1.253 . S
C150 O151 1.227 . S
O151 C150 1.227 . S
N152 Co138 2.140 . S
N152 C155 1.346 . S
N152 C156 1.345 . S
C153 C154 1.387 . S
C153 C157 1.391 . S
C154 C153 1.387 . S
C154 C155 1.369 . S
C154 H163 0.929 . S
C155 N152 1.346 . S
C155 C154 1.369 . S
C155 H158 0.928 . S
C156 N152 1.345 . S
C156 C157 1.371 . S
C156 H159 0.931 . S
C157 C153 1.391 . S
C157 C156 1.371 . S
C157 H164 0.930 . S
H158 C155 0.928 . S
H159 C156 0.931 . S
H160 C136 0.930 . S
H161 C133 0.930 . S
H162 C142 0.930 . S
H163 C154 0.929 . S
H164 C157 0.930 . S
C165 C166 1.351 . S
C165 N168 1.368 . S
C165 H170 0.931 . S
C166 C165 1.351 . S
C166 N167 1.373 . S
C166 H194 0.930 . S
N167 C166 1.373 . S
N167 C169 1.340 . S
N168 C165 1.368 . S
N168 C169 1.321 . S
N168 Co171 2.135 . S
C169 N167 1.340 . S
C169 N168 1.321 . S
C169 H193 0.930 . S
H170 C165 0.931 . S
Co171 N168 2.135 . S
Co171 N174 2.121 . S
Co171 O179 2.055 . S
Co171 O182 2.039 . S
Co171 N185 2.140 . S
C172 O173 1.227 . S
C172 O182 1.265 . S
O173 C172 1.227 . S
N174 Co171 2.121 . S
N174 C176 1.375 . S
N174 C177 1.313 . S
C175 C176 1.338 . S
C175 N178 1.377 . S
C175 H195 0.930 . S
C176 N174 1.375 . S
C176 C175 1.338 . S
C176 H180 0.931 . S
C177 N174 1.313 . S
C177 N178 1.344 . S
C177 H181 0.930 . S
N178 C175 1.377 . S
N178 C177 1.344 . S
O179 Co171 2.055 . S
O179 C183 1.253 . S
H180 C176 0.931 . S
H181 C177 0.930 . S
O182 Co171 2.039 . S
O182 C172 1.265 . S
C183 O179 1.253 . S
C183 O184 1.227 . S
O184 C183 1.227 . S
N185 Co171 2.140 . S
N185 C188 1.346 . S
N185 C189 1.345 . S
C186 C187 1.387 . S
C186 C190 1.391 . S
C187 C186 1.387 . S
C187 C188 1.369 . S
C187 H196 0.929 . S
C188 N185 1.346 . S
C188 C187 1.369 . S
C188 H191 0.928 . S
C189 N185 1.345 . S
C189 C190 1.371 . S
C189 H192 0.931 . S
C190 C186 1.391 . S
C190 C189 1.371 . S
C190 H197 0.930 . S
H191 C188 0.928 . S
H192 C189 0.931 . S
H193 C169 0.930 . S
H194 C166 0.930 . S
H195 C175 0.930 . S
H196 C187 0.929 . S
H197 C190 0.930 . S
C198 C199 1.351 . S
C198 N201 1.368 . S
C198 H203 0.931 . S
C199 C198 1.351 . S
C199 N200 1.373 . S
C199 H227 0.930 . S
N200 C199 1.373 . S
N200 C202 1.340 . S
N201 C198 1.368 . S
N201 C202 1.321 . S
N201 Co204 2.135 . S
C202 N200 1.340 . S
C202 N201 1.321 . S
C202 H226 0.930 . S
H203 C198 0.931 . S
Co204 N201 2.135 . S
Co204 N207 2.121 . S
Co204 O212 2.055 . S
Co204 O215 2.039 . S
Co204 N218 2.140 . S
C205 O206 1.227 . S
C205 O215 1.265 . S
O206 C205 1.227 . S
N207 Co204 2.121 . S
N207 C209 1.375 . S
N207 C210 1.313 . S
C208 C209 1.338 . S
C208 N211 1.377 . S
C208 H228 0.930 . S
C209 N207 1.375 . S
C209 C208 1.338 . S
C209 H213 0.931 . S
C210 N207 1.313 . S
C210 N211 1.344 . S
C210 H214 0.930 . S
N211 C208 1.377 . S
N211 C210 1.344 . S
O212 Co204 2.055 . S
O212 C216 1.253 . S
H213 C209 0.931 . S
H214 C210 0.930 . S
O215 Co204 2.039 . S
O215 C205 1.265 . S
C216 O212 1.253 . S
C216 O217 1.227 . S
O217 C216 1.227 . S
N218 Co204 2.140 . S
N218 C221 1.346 . S
N218 C222 1.345 . S
C219 C220 1.387 . S
C219 C223 1.391 . S
C220 C219 1.387 . S
C220 C221 1.369 . S
C220 H229 0.929 . S
C221 N218 1.346 . S
C221 C220 1.369 . S
C221 H224 0.928 . S
C222 N218 1.345 . S
C222 C223 1.371 . S
C222 H225 0.931 . S
C223 C219 1.391 . S
C223 C222 1.371 . S
C223 H230 0.930 . S
H224 C221 0.928 . S
H225 C222 0.931 . S
H226 C202 0.930 . S
H227 C199 0.930 . S
H228 C208 0.930 . S
H229 C220 0.929 . S
H230 C223 0.930 . S
C231 C232 1.351 . S
C231 N234 1.368 1_554 S
C231 H236 0.931 . S
C232 C231 1.351 . S
C232 N233 1.372 . S
C232 H260 0.930 . S
N233 C232 1.372 . S
N233 C235 1.342 1_554 S
N234 C231 1.368 1_556 S
N234 C235 1.321 . S
N234 Co237 2.135 . S
C235 N233 1.342 1_556 S
C235 N234 1.321 . S
C235 H259 0.930 . S
H236 C231 0.931 . S
Co237 N234 2.135 . S
Co237 N240 2.121 . S
Co237 O245 2.055 . S
Co237 O248 2.039 . S
Co237 N251 2.140 . S
C238 O239 1.227 . S
C238 O248 1.265 . S
O239 C238 1.227 . S
N240 Co237 2.121 . S
N240 C242 1.375 . S
N240 C243 1.313 . S
C241 C242 1.338 . S
C241 N244 1.377 . S
C241 H261 0.930 . S
C242 N240 1.375 . S
C242 C241 1.338 . S
C242 H246 0.931 . S
C243 N240 1.313 . S
C243 N244 1.344 . S
C243 H247 0.930 . S
N244 C241 1.377 . S
N244 C243 1.344 . S
O245 Co237 2.055 . S
O245 C249 1.253 1_556 S
H246 C242 0.931 . S
H247 C243 0.930 . S
O248 Co237 2.039 . S
O248 C238 1.265 . S
C249 O245 1.253 1_554 S
C249 O250 1.227 . S
O250 C249 1.227 . S
N251 Co237 2.140 . S
N251 C254 1.346 . S
N251 C255 1.345 . S
C252 C253 1.387 . S
C252 C256 1.391 . S
C253 C252 1.387 . S
C253 C254 1.369 . S
C253 H262 0.929 1_455 S
C254 N251 1.346 . S
C254 C253 1.369 . S
C254 H257 0.928 . S
C255 N251 1.345 . S
C255 C256 1.371 . S
C255 H258 0.931 . S
C256 C252 1.391 . S
C256 C255 1.371 . S
C256 H263 0.930 . S
H257 C254 0.928 . S
H258 C255 0.931 . S
H259 C235 0.930 . S
H260 C232 0.930 . S
H261 C241 0.930 . S
H262 C253 0.929 1_655 S
H263 C256 0.930 . S
C264 C265 1.351 . S
C264 N267 1.368 . S
C264 H269 0.931 . S
C265 C264 1.351 . S
C265 N266 1.373 . S
C265 H293 0.930 . S
N266 C265 1.373 . S
N266 C268 1.340 . S
N267 C264 1.368 . S
N267 C268 1.321 . S
N267 Co270 2.135 . S
C268 N266 1.340 . S
C268 N267 1.321 . S
C268 H292 0.930 . S
H269 C264 0.931 . S
Co270 N267 2.135 . S
Co270 N273 2.121 . S
Co270 O278 2.055 . S
Co270 O281 2.039 . S
Co270 N284 2.140 . S
C271 O272 1.227 . S
C271 O281 1.265 . S
O272 C271 1.227 . S
N273 Co270 2.121 . S
N273 C275 1.375 . S
N273 C276 1.313 . S
C274 C275 1.338 . S
C274 N277 1.377 . S
C274 H294 0.930 . S
C275 N273 1.375 . S
C275 C274 1.338 . S
C275 H279 0.931 . S
C276 N273 1.313 . S
C276 N277 1.344 . S
C276 H280 0.930 . S
N277 C274 1.377 . S
N277 C276 1.344 . S
O278 Co270 2.055 . S
O278 C282 1.253 . S
H279 C275 0.931 . S
H280 C276 0.930 . S
O281 Co270 2.039 . S
O281 C271 1.265 . S
C282 O278 1.253 . S
C282 O283 1.227 . S
O283 C282 1.227 . S
N284 Co270 2.140 . S
N284 C287 1.346 . S
N284 C288 1.345 . S
C285 C286 1.387 . S
C285 C289 1.391 . S
C286 C285 1.387 . S
C286 C287 1.369 . S
C286 H295 0.929 . S
C287 N284 1.346 . S
C287 C286 1.369 . S
C287 H290 0.928 . S
C288 N284 1.345 . S
C288 C289 1.371 . S
C288 H291 0.931 . S
C289 C285 1.391 . S
C289 C288 1.371 . S
C289 H296 0.930 . S
H290 C287 0.928 . S
H291 C288 0.931 . S
H292 C268 0.930 . S
H293 C265 0.930 . S
H294 C274 0.930 . S
H295 C286 0.929 . S
H296 C289 0.930 . S
C297 C298 1.351 . S
C297 N300 1.368 . S
C297 H302 0.931 . S
C298 C297 1.351 . S
C298 N299 1.373 . S
C298 H326 0.930 . S
N299 C298 1.373 . S
N299 C301 1.340 . S
N300 C297 1.368 . S
N300 C301 1.321 . S
N300 Co303 2.135 . S
C301 N299 1.340 . S
C301 N300 1.321 . S
C301 H325 0.930 . S
H302 C297 0.931 . S
Co303 N300 2.135 . S
Co303 N306 2.121 . S
Co303 O311 2.055 . S
Co303 O314 2.039 . S
Co303 N317 2.140 . S
C304 O305 1.227 . S
C304 O314 1.265 . S
O305 C304 1.227 . S
N306 Co303 2.121 . S
N306 C308 1.375 . S
N306 C309 1.313 . S
C307 C308 1.338 . S
C307 N310 1.377 . S
C307 H327 0.930 . S
C308 N306 1.375 . S
C308 C307 1.338 . S
C308 H312 0.931 . S
C309 N306 1.313 . S
C309 N310 1.344 . S
C309 H313 0.930 . S
N310 C307 1.377 . S
N310 C309 1.344 . S
O311 Co303 2.055 . S
O311 C315 1.253 . S
H312 C308 0.931 . S
H313 C309 0.930 . S
O314 Co303 2.039 . S
O314 C304 1.265 . S
C315 O311 1.253 . S
C315 O316 1.227 . S
O316 C315 1.227 . S
N317 Co303 2.140 . S
N317 C320 1.346 . S
N317 C321 1.345 . S
C318 C319 1.387 . S
C318 C322 1.391 . S
C319 C318 1.387 . S
C319 C320 1.369 . S
C319 H328 0.929 1_655 S
C320 N317 1.346 . S
C320 C319 1.369 . S
C320 H323 0.928 . S
C321 N317 1.345 . S
C321 C322 1.371 . S
C321 H324 0.931 . S
C322 C318 1.391 . S
C322 C321 1.371 . S
C322 H329 0.930 . S
H323 C320 0.928 . S
H324 C321 0.931 . S
H325 C301 0.930 . S
H326 C298 0.930 . S
H327 C307 0.930 . S
H328 C319 0.929 1_455 S
H329 C322 0.930 . S
C330 C331 1.351 . S
C330 N333 1.368 . S
C330 H335 0.931 . S
C331 C330 1.351 . S
C331 N332 1.373 . S
C331 H359 0.930 . S
N332 C331 1.373 . S
N332 C334 1.340 . S
N333 C330 1.368 . S
N333 C334 1.321 . S
N333 Co336 2.135 . S
C334 N332 1.340 . S
C334 N333 1.321 . S
C334 H358 0.930 . S
H335 C330 0.931 . S
Co336 N333 2.135 . S
Co336 N339 2.121 . S
Co336 O344 2.055 . S
Co336 O347 2.039 . S
Co336 N350 2.140 . S
C337 O338 1.227 . S
C337 O347 1.265 . S
O338 C337 1.227 . S
N339 Co336 2.121 . S
N339 C341 1.375 . S
N339 C342 1.313 . S
C340 C341 1.338 . S
C340 N343 1.377 . S
C340 H360 0.930 . S
C341 N339 1.375 . S
C341 C340 1.338 . S
C341 H345 0.931 . S
C342 N339 1.313 . S
C342 N343 1.344 . S
C342 H346 0.930 . S
N343 C340 1.377 . S
N343 C342 1.344 . S
O344 Co336 2.055 . S
O344 C348 1.253 . S
H345 C341 0.931 . S
H346 C342 0.930 . S
O347 Co336 2.039 . S
O347 C337 1.265 . S
C348 O344 1.253 . S
C348 O349 1.227 . S
O349 C348 1.227 . S
N350 Co336 2.140 . S
N350 C353 1.346 . S
N350 C354 1.345 . S
C351 C352 1.387 . S
C351 C355 1.391 . S
C352 C351 1.387 . S
C352 C353 1.369 . S
C352 H361 0.929 . S
C353 N350 1.346 . S
C353 C352 1.369 . S
C353 H356 0.928 . S
C354 N350 1.345 . S
C354 C355 1.371 . S
C354 H357 0.931 . S
C355 C351 1.391 . S
C355 C354 1.371 . S
C355 H362 0.930 . S
H356 C353 0.928 . S
H357 C354 0.931 . S
H358 C334 0.930 . S
H359 C331 0.930 . S
H360 C340 0.930 . S
H361 C352 0.929 . S
H362 C355 0.930 . S
C363 C364 1.351 . S
C363 N366 1.368 1_554 S
C363 H368 0.931 . S
C364 C363 1.351 . S
C364 N365 1.372 . S
C364 H392 0.930 . S
N365 C364 1.372 . S
N365 C367 1.342 1_554 S
N366 C363 1.368 1_556 S
N366 C367 1.321 . S
N366 Co369 2.135 . S
C367 N365 1.342 1_556 S
C367 N366 1.321 . S
C367 H391 0.930 . S
H368 C363 0.931 . S
Co369 N366 2.135 . S
Co369 N372 2.121 . S
Co369 O377 2.055 . S
Co369 O380 2.039 . S
Co369 N383 2.140 . S
C370 O371 1.227 . S
C370 O380 1.265 . S
O371 C370 1.227 . S
N372 Co369 2.121 . S
N372 C374 1.375 . S
N372 C375 1.313 . S
C373 C374 1.338 . S
C373 N376 1.377 . S
C373 H393 0.930 . S
C374 N372 1.375 . S
C374 C373 1.338 . S
C374 H378 0.931 . S
C375 N372 1.313 . S
C375 N376 1.344 . S
C375 H379 0.930 . S
N376 C373 1.377 . S
N376 C375 1.344 . S
O377 Co369 2.055 . S
O377 C381 1.253 1_556 S
H378 C374 0.931 . S
H379 C375 0.930 . S
O380 Co369 2.039 . S
O380 C370 1.265 . S
C381 O377 1.253 1_554 S
C381 O382 1.227 . S
O382 C381 1.227 . S
N383 Co369 2.140 . S
N383 C386 1.346 . S
N383 C387 1.345 . S
C384 C385 1.387 . S
C384 C388 1.391 . S
C385 C384 1.387 . S
C385 C386 1.369 . S
C385 H394 0.929 . S
C386 N383 1.346 . S
C386 C385 1.369 . S
C386 H389 0.928 . S
C387 N383 1.345 . S
C387 C388 1.371 . S
C387 H390 0.931 . S
C388 C384 1.391 . S
C388 C387 1.371 . S
C388 H395 0.930 . S
H389 C386 0.928 . S
H390 C387 0.931 . S
H391 C367 0.930 . S
H392 C364 0.930 . S
H393 C373 0.930 . S
H394 C385 0.929 . S
H395 C388 0.930 . S
C396 C397 1.351 . S
C396 N399 1.368 . S
C396 H401 0.931 . S
C397 C396 1.351 . S
C397 N398 1.373 . S
C397 H425 0.930 . S
N398 C397 1.373 . S
N398 C400 1.340 . S
N399 C396 1.368 . S
N399 C400 1.321 . S
N399 Co402 2.135 . S
C400 N398 1.340 . S
C400 N399 1.321 . S
C400 H424 0.930 . S
H401 C396 0.931 . S
Co402 N399 2.135 . S
Co402 N405 2.121 . S
Co402 O410 2.055 . S
Co402 O413 2.039 . S
Co402 N416 2.140 . S
C403 O404 1.227 . S
C403 O413 1.265 . S
O404 C403 1.227 . S
N405 Co402 2.121 . S
N405 C407 1.375 . S
N405 C408 1.313 . S
C406 C407 1.338 . S
C406 N409 1.377 . S
C406 H426 0.930 . S
C407 N405 1.375 . S
C407 C406 1.338 . S
C407 H411 0.931 . S
C408 N405 1.313 . S
C408 N409 1.344 . S
C408 H412 0.930 . S
N409 C406 1.377 . S
N409 C408 1.344 . S
O410 Co402 2.055 . S
O410 C414 1.253 . S
H411 C407 0.931 . S
H412 C408 0.930 . S
O413 Co402 2.039 . S
O413 C403 1.265 . S
C414 O410 1.253 . S
C414 O415 1.227 . S
O415 C414 1.227 . S
N416 Co402 2.140 . S
N416 C419 1.346 . S
N416 C420 1.345 . S
C417 C418 1.387 . S
C417 C421 1.391 . S
C418 C417 1.387 . S
C418 C419 1.369 . S
C418 H427 0.929 . S
C419 N416 1.346 . S
C419 C418 1.369 . S
C419 H422 0.928 . S
C420 N416 1.345 . S
C420 C421 1.371 . S
C420 H423 0.931 . S
C421 C417 1.391 . S
C421 C420 1.371 . S
C421 H428 0.930 . S
H422 C419 0.928 . S
H423 C420 0.931 . S
H424 C400 0.930 . S
H425 C397 0.930 . S
H426 C406 0.930 . S
H427 C418 0.929 . S
H428 C421 0.930 . S
C429 C430 1.351 . S
C429 N432 1.368 . S
C429 H434 0.931 . S
C430 C429 1.351 . S
C430 N431 1.373 . S
C430 H458 0.930 . S
N431 C430 1.373 . S
N431 C433 1.340 . S
N432 C429 1.368 . S
N432 C433 1.321 . S
N432 Co435 2.135 . S
C433 N431 1.340 . S
C433 N432 1.321 . S
C433 H457 0.930 . S
H434 C429 0.931 . S
Co435 N432 2.135 . S
Co435 N438 2.121 . S
Co435 O443 2.055 . S
Co435 O446 2.039 . S
Co435 N449 2.140 . S
C436 O437 1.227 . S
C436 O446 1.265 . S
O437 C436 1.227 . S
N438 Co435 2.121 . S
N438 C440 1.375 . S
N438 C441 1.313 . S
C439 C440 1.338 . S
C439 N442 1.377 . S
C439 H459 0.930 . S
C440 N438 1.375 . S
C440 C439 1.338 . S
C440 H444 0.931 . S
C441 N438 1.313 . S
C441 N442 1.344 . S
C441 H445 0.930 . S
N442 C439 1.377 . S
N442 C441 1.344 . S
O443 Co435 2.055 . S
O443 C447 1.253 . S
H444 C440 0.931 . S
H445 C441 0.930 . S
O446 Co435 2.039 . S
O446 C436 1.265 . S
C447 O443 1.253 . S
C447 O448 1.227 . S
O448 C447 1.227 . S
N449 Co435 2.140 . S
N449 C452 1.346 . S
N449 C453 1.345 . S
C450 C451 1.387 . S
C450 C454 1.391 . S
C451 C450 1.387 . S
C451 C452 1.369 . S
C451 H460 0.929 . S
C452 N449 1.346 . S
C452 C451 1.369 . S
C452 H455 0.928 . S
C453 N449 1.345 . S
C453 C454 1.371 . S
C453 H456 0.931 . S
C454 C450 1.391 . S
C454 C453 1.371 . S
C454 H461 0.930 . S
H455 C452 0.928 . S
H456 C453 0.931 . S
H457 C433 0.930 . S
H458 C430 0.930 . S
H459 C439 0.930 . S
H460 C451 0.929 . S
H461 C454 0.930 . S
C462 C463 1.351 . S
C462 N465 1.368 . S
C462 H467 0.931 . S
C463 C462 1.351 . S
C463 N464 1.373 . S
C463 H491 0.930 . S
N464 C463 1.373 . S
N464 C466 1.340 . S
N465 C462 1.368 . S
N465 C466 1.321 . S
N465 Co468 2.135 . S
C466 N464 1.340 . S
C466 N465 1.321 . S
C466 H490 0.930 . S
H467 C462 0.931 . S
Co468 N465 2.135 . S
Co468 N471 2.121 . S
Co468 O476 2.055 . S
Co468 O479 2.039 . S
Co468 N482 2.140 . S
C469 O470 1.227 . S
C469 O479 1.265 . S
O470 C469 1.227 . S
N471 Co468 2.121 . S
N471 C473 1.375 . S
N471 C474 1.313 . S
C472 C473 1.338 . S
C472 N475 1.377 . S
C472 H492 0.930 . S
C473 N471 1.375 . S
C473 C472 1.338 . S
C473 H477 0.931 . S
C474 N471 1.313 . S
C474 N475 1.344 . S
C474 H478 0.930 . S
N475 C472 1.377 . S
N475 C474 1.344 . S
O476 Co468 2.055 . S
O476 C480 1.253 . S
H477 C473 0.931 . S
H478 C474 0.930 . S
O479 Co468 2.039 . S
O479 C469 1.265 . S
C480 O476 1.253 . S
C480 O481 1.227 . S
O481 C480 1.227 . S
N482 Co468 2.140 . S
N482 C485 1.346 . S
N482 C486 1.345 . S
C483 C484 1.387 . S
C483 C487 1.391 . S
C484 C483 1.387 . S
C484 C485 1.369 . S
C484 H493 0.929 . S
C485 N482 1.346 . S
C485 C484 1.369 . S
C485 H488 0.928 . S
C486 N482 1.345 . S
C486 C487 1.371 . S
C486 H489 0.931 . S
C487 C483 1.391 . S
C487 C486 1.371 . S
C487 H494 0.930 . S
H488 C485 0.928 . S
H489 C486 0.931 . S
H490 C466 0.930 . S
H491 C463 0.930 . S
H492 C472 0.930 . S
H493 C484 0.929 . S
H494 C487 0.930 . S
C495 C496 1.351 . S
C495 N498 1.368 1_556 S
C495 H500 0.931 . S
C496 C495 1.351 . S
C496 N497 1.372 . S
C496 H524 0.930 . S
N497 C496 1.372 . S
N497 C499 1.342 1_556 S
N498 C495 1.368 1_554 S
N498 C499 1.321 . S
N498 Co501 2.135 . S
C499 N497 1.342 1_554 S
C499 N498 1.321 . S
C499 H523 0.930 . S
H500 C495 0.931 . S
Co501 N498 2.135 . S
Co501 N504 2.121 . S
Co501 O509 2.055 . S
Co501 O512 2.039 . S
Co501 N515 2.140 . S
C502 O503 1.227 . S
C502 O512 1.265 . S
O503 C502 1.227 . S
N504 Co501 2.121 . S
N504 C506 1.375 . S
N504 C507 1.313 . S
C505 C506 1.338 . S
C505 N508 1.377 . S
C505 H525 0.930 . S
C506 N504 1.375 . S
C506 C505 1.338 . S
C506 H510 0.931 . S
C507 N504 1.313 . S
C507 N508 1.344 . S
C507 H511 0.930 . S
N508 C505 1.377 . S
N508 C507 1.344 . S
O509 Co501 2.055 . S
O509 C513 1.253 1_554 S
H510 C506 0.931 . S
H511 C507 0.930 . S
O512 Co501 2.039 . S
O512 C502 1.265 . S
C513 O509 1.253 1_556 S
C513 O514 1.227 . S
O514 C513 1.227 . S
N515 Co501 2.140 . S
N515 C518 1.346 . S
N515 C519 1.345 . S
C516 C517 1.387 . S
C516 C520 1.391 . S
C517 C516 1.387 . S
C517 C518 1.369 . S
C517 H526 0.929 1_655 S
C518 N515 1.346 . S
C518 C517 1.369 . S
C518 H521 0.928 . S
C519 N515 1.345 . S
C519 C520 1.371 . S
C519 H522 0.931 . S
C520 C516 1.391 . S
C520 C519 1.371 . S
C520 H527 0.930 . S
H521 C518 0.928 . S
H522 C519 0.931 . S
H523 C499 0.930 . S
H524 C496 0.930 . S
H525 C505 0.930 . S
H526 C517 0.929 1_455 S
H527 C520 0.930 . S
C528 C529 1.351 . S
C528 N531 1.368 . S
C528 H533 0.931 . S
C529 C528 1.351 . S
C529 N530 1.373 . S
C529 H557 0.930 . S
N530 C529 1.373 . S
N530 C532 1.340 . S
N531 C528 1.368 . S
N531 C532 1.321 . S
N531 Co534 2.135 . S
C532 N530 1.340 . S
C532 N531 1.321 . S
C532 H556 0.930 . S
H533 C528 0.931 . S
Co534 N531 2.135 . S
Co534 N537 2.121 . S
Co534 O542 2.055 . S
Co534 O545 2.039 . S
Co534 N548 2.140 . S
C535 O536 1.227 . S
C535 O545 1.265 . S
O536 C535 1.227 . S
N537 Co534 2.121 . S
N537 C539 1.375 . S
N537 C540 1.313 . S
C538 C539 1.338 . S
C538 N541 1.377 . S
C538 H558 0.930 . S
C539 N537 1.375 . S
C539 C538 1.338 . S
C539 H543 0.931 . S
C540 N537 1.313 . S
C540 N541 1.344 . S
C540 H544 0.930 . S
N541 C538 1.377 . S
N541 C540 1.344 . S
O542 Co534 2.055 . S
O542 C546 1.253 . S
H543 C539 0.931 . S
H544 C540 0.930 . S
O545 Co534 2.039 . S
O545 C535 1.265 . S
C546 O542 1.253 . S
C546 O547 1.227 . S
O547 C546 1.227 . S
N548 Co534 2.140 . S
N548 C551 1.346 . S
N548 C552 1.345 . S
C549 C550 1.387 . S
C549 C553 1.391 . S
C550 C549 1.387 . S
C550 C551 1.369 . S
C550 H559 0.929 . S
C551 N548 1.346 . S
C551 C550 1.369 . S
C551 H554 0.928 . S
C552 N548 1.345 . S
C552 C553 1.371 . S
C552 H555 0.931 . S
C553 C549 1.391 . S
C553 C552 1.371 . S
C553 H560 0.930 . S
H554 C551 0.928 . S
H555 C552 0.931 . S
H556 C532 0.930 . S
H557 C529 0.930 . S
H558 C538 0.930 . S
H559 C550 0.929 . S
H560 C553 0.930 . S
C561 C562 1.351 . S
C561 N564 1.368 1_556 S
C561 H566 0.931 . S
C562 C561 1.351 . S
C562 N563 1.372 . S
C562 H590 0.930 . S
N563 C562 1.372 . S
N563 C565 1.342 1_556 S
N564 C561 1.368 1_554 S
N564 C565 1.321 . S
N564 Co567 2.135 . S
C565 N563 1.342 1_554 S
C565 N564 1.321 . S
C565 H589 0.930 . S
H566 C561 0.931 . S
Co567 N564 2.135 . S
Co567 N570 2.121 . S
Co567 O575 2.055 . S
Co567 O578 2.039 . S
Co567 N581 2.140 . S
C568 O569 1.227 . S
C568 O578 1.265 . S
O569 C568 1.227 . S
N570 Co567 2.121 . S
N570 C572 1.375 . S
N570 C573 1.313 . S
C571 C572 1.338 . S
C571 N574 1.377 . S
C571 H591 0.930 . S
C572 N570 1.375 . S
C572 C571 1.338 . S
C572 H576 0.931 . S
C573 N570 1.313 . S
C573 N574 1.344 . S
C573 H577 0.930 . S
N574 C571 1.377 . S
N574 C573 1.344 . S
O575 Co567 2.055 . S
O575 C579 1.253 1_554 S
H576 C572 0.931 . S
H577 C573 0.930 . S
O578 Co567 2.039 . S
O578 C568 1.265 . S
C579 O575 1.253 1_556 S
C579 O580 1.227 . S
O580 C579 1.227 . S
N581 Co567 2.140 . S
N581 C584 1.346 . S
N581 C585 1.345 . S
C582 C583 1.387 . S
C582 C586 1.391 . S
C583 C582 1.387 . S
C583 C584 1.369 . S
C583 H592 0.929 . S
C584 N581 1.346 . S
C584 C583 1.369 . S
C584 H587 0.928 . S
C585 N581 1.345 . S
C585 C586 1.371 . S
C585 H588 0.931 . S
C586 C582 1.391 . S
C586 C585 1.371 . S
C586 H593 0.930 . S
H587 C584 0.928 . S
H588 C585 0.931 . S
H589 C565 0.930 . S
H590 C562 0.930 . S
H591 C571 0.930 . S
H592 C583 0.929 . S
H593 C586 0.930 . S
C594 C595 1.351 . S
C594 N597 1.368 . S
C594 H599 0.931 . S
C595 C594 1.351 . S
C595 N596 1.373 . S
C595 H623 0.930 . S
N596 C595 1.373 . S
N596 C598 1.340 . S
N597 C594 1.368 . S
N597 C598 1.321 . S
N597 Co600 2.135 . S
C598 N596 1.340 . S
C598 N597 1.321 . S
C598 H622 0.930 . S
H599 C594 0.931 . S
Co600 N597 2.135 . S
Co600 N603 2.121 . S
Co600 O608 2.055 . S
Co600 O611 2.039 . S
Co600 N614 2.140 . S
C601 O602 1.227 . S
C601 O611 1.265 . S
O602 C601 1.227 . S
N603 Co600 2.121 . S
N603 C605 1.375 . S
N603 C606 1.313 . S
C604 C605 1.338 . S
C604 N607 1.377 . S
C604 H624 0.930 . S
C605 N603 1.375 . S
C605 C604 1.338 . S
C605 H609 0.931 . S
C606 N603 1.313 . S
C606 N607 1.344 . S
C606 H610 0.930 . S
N607 C604 1.377 . S
N607 C606 1.344 . S
O608 Co600 2.055 . S
O608 C612 1.253 . S
H609 C605 0.931 . S
H610 C606 0.930 . S
O611 Co600 2.039 . S
O611 C601 1.265 . S
C612 O608 1.253 . S
C612 O613 1.227 . S
O613 C612 1.227 . S
N614 Co600 2.140 . S
N614 C617 1.346 . S
N614 C618 1.345 . S
C615 C616 1.387 . S
C615 C619 1.391 . S
C616 C615 1.387 . S
C616 C617 1.369 . S
C616 H625 0.929 . S
C617 N614 1.346 . S
C617 C616 1.369 . S
C617 H620 0.928 . S
C618 N614 1.345 . S
C618 C619 1.371 . S
C618 H621 0.931 . S
C619 C615 1.391 . S
C619 C618 1.371 . S
C619 H626 0.930 . S
H620 C617 0.928 . S
H621 C618 0.931 . S
H622 C598 0.930 . S
H623 C595 0.930 . S
H624 C604 0.930 . S
H625 C616 0.929 . S
H626 C619 0.930 . S
C627 C628 1.351 . S
C627 N630 1.368 . S
C627 H632 0.931 . S
C628 C627 1.351 . S
C628 N629 1.373 . S
C628 H656 0.930 . S
N629 C628 1.373 . S
N629 C631 1.340 . S
N630 C627 1.368 . S
N630 C631 1.321 . S
N630 Co633 2.135 . S
C631 N629 1.340 . S
C631 N630 1.321 . S
C631 H655 0.930 . S
H632 C627 0.931 . S
Co633 N630 2.135 . S
Co633 N636 2.121 . S
Co633 O641 2.055 . S
Co633 O644 2.039 . S
Co633 N647 2.140 . S
C634 O635 1.227 . S
C634 O644 1.265 . S
O635 C634 1.227 . S
N636 Co633 2.121 . S
N636 C638 1.375 . S
N636 C639 1.313 . S
C637 C638 1.338 . S
C637 N640 1.377 . S
C637 H657 0.930 . S
C638 N636 1.375 . S
C638 C637 1.338 . S
C638 H642 0.931 . S
C639 N636 1.313 . S
C639 N640 1.344 . S
C639 H643 0.930 . S
N640 C637 1.377 . S
N640 C639 1.344 . S
O641 Co633 2.055 . S
O641 C645 1.253 . S
H642 C638 0.931 . S
H643 C639 0.930 . S
O644 Co633 2.039 . S
O644 C634 1.265 . S
C645 O641 1.253 . S
C645 O646 1.227 . S
O646 C645 1.227 . S
N647 Co633 2.140 . S
N647 C650 1.346 . S
N647 C651 1.345 . S
C648 C649 1.387 . S
C648 C652 1.391 . S
C649 C648 1.387 . S
C649 C650 1.369 . S
C649 H658 0.929 1_655 S
C650 N647 1.346 . S
C650 C649 1.369 . S
C650 H653 0.928 . S
C651 N647 1.345 . S
C651 C652 1.371 . S
C651 H654 0.931 . S
C652 C648 1.391 . S
C652 C651 1.371 . S
C652 H659 0.930 . S
H653 C650 0.928 . S
H654 C651 0.931 . S
H655 C631 0.930 . S
H656 C628 0.930 . S
H657 C637 0.930 . S
H658 C649 0.929 1_455 S
H659 C652 0.930 . S
C660 C661 1.351 . S
C660 N663 1.368 . S
C660 H665 0.931 . S
C661 C660 1.351 . S
C661 N662 1.373 . S
C661 H689 0.930 . S
N662 C661 1.373 . S
N662 C664 1.340 . S
N663 C660 1.368 . S
N663 C664 1.321 . S
N663 Co666 2.135 . S
C664 N662 1.340 . S
C664 N663 1.321 . S
C664 H688 0.930 . S
H665 C660 0.931 . S
Co666 N663 2.135 . S
Co666 N669 2.121 . S
Co666 O674 2.055 . S
Co666 O677 2.039 . S
Co666 N680 2.140 . S
C667 O668 1.227 . S
C667 O677 1.265 . S
O668 C667 1.227 . S
N669 Co666 2.121 . S
N669 C671 1.375 . S
N669 C672 1.313 . S
C670 C671 1.338 . S
C670 N673 1.377 . S
C670 H690 0.930 . S
C671 N669 1.375 . S
C671 C670 1.338 . S
C671 H675 0.931 . S
C672 N669 1.313 . S
C672 N673 1.344 . S
C672 H676 0.930 . S
N673 C670 1.377 . S
N673 C672 1.344 . S
O674 Co666 2.055 . S
O674 C678 1.253 . S
H675 C671 0.931 . S
H676 C672 0.930 . S
O677 Co666 2.039 . S
O677 C667 1.265 . S
C678 O674 1.253 . S
C678 O679 1.227 . S
O679 C678 1.227 . S
N680 Co666 2.140 . S
N680 C683 1.346 . S
N680 C684 1.345 . S
C681 C682 1.387 . S
C681 C685 1.391 . S
C682 C681 1.387 . S
C682 C683 1.369 . S
C682 H691 0.929 . S
C683 N680 1.346 . S
C683 C682 1.369 . S
C683 H686 0.928 . S
C684 N680 1.345 . S
C684 C685 1.371 . S
C684 H687 0.931 . S
C685 C681 1.391 . S
C685 C684 1.371 . S
C685 H692 0.930 . S
H686 C683 0.928 . S
H687 C684 0.931 . S
H688 C664 0.930 . S
H689 C661 0.930 . S
H690 C670 0.930 . S
H691 C682 0.929 . S
H692 C685 0.930 . S
C693 C694 1.351 . S
C693 N696 1.368 1_554 S
C693 H698 0.931 . S
C694 C693 1.351 . S
C694 N695 1.372 . S
C694 H722 0.930 . S
N695 C694 1.372 . S
N695 C697 1.342 1_554 S
N696 C693 1.368 1_556 S
N696 C697 1.321 . S
N696 Co699 2.135 . S
C697 N695 1.342 1_556 S
C697 N696 1.321 . S
C697 H721 0.930 . S
H698 C693 0.931 . S
Co699 N696 2.135 . S
Co699 N702 2.121 . S
Co699 O707 2.055 . S
Co699 O710 2.039 . S
Co699 N713 2.140 . S
C700 O701 1.227 . S
C700 O710 1.265 . S
O701 C700 1.227 . S
N702 Co699 2.121 . S
N702 C704 1.375 . S
N702 C705 1.313 . S
C703 C704 1.338 . S
C703 N706 1.377 . S
C703 H723 0.930 . S
C704 N702 1.375 . S
C704 C703 1.338 . S
C704 H708 0.931 . S
C705 N702 1.313 . S
C705 N706 1.344 . S
C705 H709 0.930 . S
N706 C703 1.377 . S
N706 C705 1.344 . S
O707 Co699 2.055 . S
O707 C711 1.253 1_556 S
H708 C704 0.931 . S
H709 C705 0.930 . S
O710 Co699 2.039 . S
O710 C700 1.265 . S
C711 O707 1.253 1_554 S
C711 O712 1.227 . S
O712 C711 1.227 . S
N713 Co699 2.140 . S
N713 C716 1.346 . S
N713 C717 1.345 . S
C714 C715 1.387 . S
C714 C718 1.391 . S
C715 C714 1.387 . S
C715 C716 1.369 . S
C715 H724 0.929 1_655 S
C716 N713 1.346 . S
C716 C715 1.369 . S
C716 H719 0.928 . S
C717 N713 1.345 . S
C717 C718 1.371 . S
C717 H720 0.931 . S
C718 C714 1.391 . S
C718 C717 1.371 . S
C718 H725 0.930 . S
H719 C716 0.928 . S
H720 C717 0.931 . S
H721 C697 0.930 . S
H722 C694 0.930 . S
H723 C703 0.930 . S
H724 C715 0.929 1_455 S
H725 C718 0.930 . S
C726 C727 1.351 . S
C726 N729 1.368 . S
C726 H731 0.931 . S
C727 C726 1.351 . S
C727 N728 1.373 . S
C727 H755 0.930 . S
N728 C727 1.373 . S
N728 C730 1.340 . S
N729 C726 1.368 . S
N729 C730 1.321 . S
N729 Co732 2.135 . S
C730 N728 1.340 . S
C730 N729 1.321 . S
C730 H754 0.930 . S
H731 C726 0.931 . S
Co732 N729 2.135 . S
Co732 N735 2.121 . S
Co732 O740 2.055 . S
Co732 O743 2.039 . S
Co732 N746 2.140 . S
C733 O734 1.227 . S
C733 O743 1.265 . S
O734 C733 1.227 . S
N735 Co732 2.121 . S
N735 C737 1.375 . S
N735 C738 1.313 . S
C736 C737 1.338 . S
C736 N739 1.377 . S
C736 H756 0.930 . S
C737 N735 1.375 . S
C737 C736 1.338 . S
C737 H741 0.931 . S
C738 N735 1.313 . S
C738 N739 1.344 . S
C738 H742 0.930 . S
N739 C736 1.377 . S
N739 C738 1.344 . S
O740 Co732 2.055 . S
O740 C744 1.253 . S
H741 C737 0.931 . S
H742 C738 0.930 . S
O743 Co732 2.039 . S
O743 C733 1.265 . S
C744 O740 1.253 . S
C744 O745 1.227 . S
O745 C744 1.227 . S
N746 Co732 2.140 . S
N746 C749 1.346 . S
N746 C750 1.345 . S
C747 C748 1.387 . S
C747 C751 1.391 . S
C748 C747 1.387 . S
C748 C749 1.369 . S
C748 H757 0.929 . S
C749 N746 1.346 . S
C749 C748 1.369 . S
C749 H752 0.928 . S
C750 N746 1.345 . S
C750 C751 1.371 . S
C750 H753 0.931 . S
C751 C747 1.391 . S
C751 C750 1.371 . S
C751 H758 0.930 . S
H752 C749 0.928 . S
H753 C750 0.931 . S
H754 C730 0.930 . S
H755 C727 0.930 . S
H756 C736 0.930 . S
H757 C748 0.929 . S
H758 C751 0.930 . S
C759 C760 1.351 . S
C759 N762 1.368 . S
C759 H764 0.931 . S
C760 C759 1.351 . S
C760 N761 1.373 . S
C760 H788 0.930 . S
N761 C760 1.373 . S
N761 C763 1.340 . S
N762 C759 1.368 . S
N762 C763 1.321 . S
N762 Co765 2.135 . S
C763 N761 1.340 . S
C763 N762 1.321 . S
C763 H787 0.930 . S
H764 C759 0.931 . S
Co765 N762 2.135 . S
Co765 N768 2.121 . S
Co765 O773 2.055 . S
Co765 O776 2.039 . S
Co765 N779 2.140 . S
C766 O767 1.227 . S
C766 O776 1.265 . S
O767 C766 1.227 . S
N768 Co765 2.121 . S
N768 C770 1.375 . S
N768 C771 1.313 . S
C769 C770 1.338 . S
C769 N772 1.377 . S
C769 H789 0.930 . S
C770 N768 1.375 . S
C770 C769 1.338 . S
C770 H774 0.931 . S
C771 N768 1.313 . S
C771 N772 1.344 . S
C771 H775 0.930 . S
N772 C769 1.377 . S
N772 C771 1.344 . S
O773 Co765 2.055 . S
O773 C777 1.253 . S
H774 C770 0.931 . S
H775 C771 0.930 . S
O776 Co765 2.039 . S
O776 C766 1.265 . S
C777 O773 1.253 . S
C777 O778 1.227 . S
O778 C777 1.227 . S
N779 Co765 2.140 . S
N779 C782 1.346 . S
N779 C783 1.345 . S
C780 C781 1.387 . S
C780 C784 1.391 . S
C781 C780 1.387 . S
C781 C782 1.369 . S
C781 H790 0.929 . S
C782 N779 1.346 . S
C782 C781 1.369 . S
C782 H785 0.928 . S
C783 N779 1.345 . S
C783 C784 1.371 . S
C783 H786 0.931 . S
C784 C780 1.391 . S
C784 C783 1.371 . S
C784 H791 0.930 . S
H785 C782 0.928 . S
H786 C783 0.931 . S
H787 C763 0.930 . S
H788 C760 0.930 . S
H789 C769 0.930 . S
H790 C781 0.929 . S
H791 C784 0.930 . S
C792 C793 1.351 . S
C792 N795 1.368 . S
C792 H797 0.931 . S
C793 C792 1.351 . S
C793 N794 1.373 . S
C793 H821 0.930 . S
N794 C793 1.373 . S
N794 C796 1.340 . S
N795 C792 1.368 . S
N795 C796 1.321 . S
N795 Co798 2.135 . S
C796 N794 1.340 . S
C796 N795 1.321 . S
C796 H820 0.930 . S
H797 C792 0.931 . S
Co798 N795 2.135 . S
Co798 N801 2.121 . S
Co798 O806 2.055 . S
Co798 O809 2.039 . S
Co798 N812 2.140 . S
C799 O800 1.227 . S
C799 O809 1.265 . S
O800 C799 1.227 . S
N801 Co798 2.121 . S
N801 C803 1.375 . S
N801 C804 1.313 . S
C802 C803 1.338 . S
C802 N805 1.377 . S
C802 H822 0.930 . S
C803 N801 1.375 . S
C803 C802 1.338 . S
C803 H807 0.931 . S
C804 N801 1.313 . S
C804 N805 1.344 . S
C804 H808 0.930 . S
N805 C802 1.377 . S
N805 C804 1.344 . S
O806 Co798 2.055 . S
O806 C810 1.253 . S
H807 C803 0.931 . S
H808 C804 0.930 . S
O809 Co798 2.039 . S
O809 C799 1.265 . S
C810 O806 1.253 . S
C810 O811 1.227 . S
O811 C810 1.227 . S
N812 Co798 2.140 . S
N812 C815 1.346 . S
N812 C816 1.345 . S
C813 C814 1.387 . S
C813 C817 1.391 . S
C814 C813 1.387 . S
C814 C815 1.369 . S
C814 H823 0.929 . S
C815 N812 1.346 . S
C815 C814 1.369 . S
C815 H818 0.928 . S
C816 N812 1.345 . S
C816 C817 1.371 . S
C816 H819 0.931 . S
C817 C813 1.391 . S
C817 C816 1.371 . S
C817 H824 0.930 . S
H818 C815 0.928 . S
H819 C816 0.931 . S
H820 C796 0.930 . S
H821 C793 0.930 . S
H822 C802 0.930 . S
H823 C814 0.929 . S
H824 C817 0.930 . S
C825 C826 1.351 . S
C825 N828 1.368 1_554 S
C825 H830 0.931 . S
C826 C825 1.351 . S
C826 N827 1.372 . S
C826 H854 0.930 . S
N827 C826 1.372 . S
N827 C829 1.342 1_554 S
N828 C825 1.368 1_556 S
N828 C829 1.321 . S
N828 Co831 2.135 . S
C829 N827 1.342 1_556 S
C829 N828 1.321 . S
C829 H853 0.930 . S
H830 C825 0.931 . S
Co831 N828 2.135 . S
Co831 N834 2.121 . S
Co831 O839 2.055 . S
Co831 O842 2.039 . S
Co831 N845 2.140 . S
C832 O833 1.227 . S
C832 O842 1.265 . S
O833 C832 1.227 . S
N834 Co831 2.121 . S
N834 C836 1.375 . S
N834 C837 1.313 . S
C835 C836 1.338 . S
C835 N838 1.377 . S
C835 H855 0.930 . S
C836 N834 1.375 . S
C836 C835 1.338 . S
C836 H840 0.931 . S
C837 N834 1.313 . S
C837 N838 1.344 . S
C837 H841 0.930 . S
N838 C835 1.377 . S
N838 C837 1.344 . S
O839 Co831 2.055 . S
O839 C843 1.253 1_556 S
H840 C836 0.931 . S
H841 C837 0.930 . S
O842 Co831 2.039 . S
O842 C832 1.265 . S
C843 O839 1.253 1_554 S
C843 O844 1.227 . S
O844 C843 1.227 . S
N845 Co831 2.140 . S
N845 C848 1.346 . S
N845 C849 1.345 . S
C846 C847 1.387 . S
C846 C850 1.391 . S
C847 C846 1.387 . S
C847 C848 1.369 . S
C847 H856 0.929 . S
C848 N845 1.346 . S
C848 C847 1.369 . S
C848 H851 0.928 . S
C849 N845 1.345 . S
C849 C850 1.371 . S
C849 H852 0.931 . S
C850 C846 1.391 . S
C850 C849 1.371 . S
C850 H857 0.930 . S
H851 C848 0.928 . S
H852 C849 0.931 . S
H853 C829 0.930 . S
H854 C826 0.930 . S
H855 C835 0.930 . S
H856 C847 0.929 . S
H857 C850 0.930 . S
C858 C859 1.351 . S
C858 N861 1.368 . S
C858 H863 0.931 . S
C859 C858 1.351 . S
C859 N860 1.373 . S
C859 H887 0.930 . S
N860 C859 1.373 . S
N860 C862 1.340 . S
N861 C858 1.368 . S
N861 C862 1.321 . S
N861 Co864 2.135 . S
C862 N860 1.340 . S
C862 N861 1.321 . S
C862 H886 0.930 . S
H863 C858 0.931 . S
Co864 N861 2.135 . S
Co864 N867 2.121 . S
Co864 O872 2.055 . S
Co864 O875 2.039 . S
Co864 N878 2.140 . S
C865 O866 1.227 . S
C865 O875 1.265 . S
O866 C865 1.227 . S
N867 Co864 2.121 . S
N867 C869 1.375 . S
N867 C870 1.313 . S
C868 C869 1.338 . S
C868 N871 1.377 . S
C868 H888 0.930 . S
C869 N867 1.375 . S
C869 C868 1.338 . S
C869 H873 0.931 . S
C870 N867 1.313 . S
C870 N871 1.344 . S
C870 H874 0.930 . S
N871 C868 1.377 . S
N871 C870 1.344 . S
O872 Co864 2.055 . S
O872 C876 1.253 . S
H873 C869 0.931 . S
H874 C870 0.930 . S
O875 Co864 2.039 . S
O875 C865 1.265 . S
C876 O872 1.253 . S
C876 O877 1.227 . S
O877 C876 1.227 . S
N878 Co864 2.140 . S
N878 C881 1.346 . S
N878 C882 1.345 . S
C879 C880 1.387 . S
C879 C883 1.391 . S
C880 C879 1.387 . S
C880 C881 1.369 . S
C880 H889 0.929 . S
C881 N878 1.346 . S
C881 C880 1.369 . S
C881 H884 0.928 . S
C882 N878 1.345 . S
C882 C883 1.371 . S
C882 H885 0.931 . S
C883 C879 1.391 . S
C883 C882 1.371 . S
C883 H890 0.930 . S
H884 C881 0.928 . S
H885 C882 0.931 . S
H886 C862 0.930 . S
H887 C859 0.930 . S
H888 C868 0.930 . S
H889 C880 0.929 . S
H890 C883 0.930 . S
C891 C892 1.351 . S
C891 N894 1.368 . S
C891 H896 0.931 . S
C892 C891 1.351 . S
C892 N893 1.373 . S
C892 H920 0.930 . S
N893 C892 1.373 . S
N893 C895 1.340 . S
N894 C891 1.368 . S
N894 C895 1.321 . S
N894 Co897 2.135 . S
C895 N893 1.340 . S
C895 N894 1.321 . S
C895 H919 0.930 . S
H896 C891 0.931 . S
Co897 N894 2.135 . S
Co897 N900 2.121 . S
Co897 O905 2.055 . S
Co897 O908 2.039 . S
Co897 N911 2.140 . S
C898 O899 1.227 . S
C898 O908 1.265 . S
O899 C898 1.227 . S
N900 Co897 2.121 . S
N900 C902 1.375 . S
N900 C903 1.313 . S
C901 C902 1.338 . S
C901 N904 1.377 . S
C901 H921 0.930 . S
C902 N900 1.375 . S
C902 C901 1.338 . S
C902 H906 0.931 . S
C903 N900 1.313 . S
C903 N904 1.344 . S
C903 H907 0.930 . S
N904 C901 1.377 . S
N904 C903 1.344 . S
O905 Co897 2.055 . S
O905 C909 1.253 . S
H906 C902 0.931 . S
H907 C903 0.930 . S
O908 Co897 2.039 . S
O908 C898 1.265 . S
C909 O905 1.253 . S
C909 O910 1.227 . S
O910 C909 1.227 . S
N911 Co897 2.140 . S
N911 C914 1.346 . S
N911 C915 1.345 . S
C912 C913 1.387 . S
C912 C916 1.391 . S
C913 C912 1.387 . S
C913 C914 1.369 . S
C913 H922 0.929 1_455 S
C914 N911 1.346 . S
C914 C913 1.369 . S
C914 H917 0.928 . S
C915 N911 1.345 . S
C915 C916 1.371 . S
C915 H918 0.931 . S
C916 C912 1.391 . S
C916 C915 1.371 . S
C916 H923 0.930 . S
H917 C914 0.928 . S
H918 C915 0.931 . S
H919 C895 0.930 . S
H920 C892 0.930 . S
H921 C901 0.930 . S
H922 C913 0.929 1_655 S
H923 C916 0.930 . S
C924 C925 1.351 . S
C924 N927 1.368 . S
C924 H929 0.931 . S
C925 C924 1.351 . S
C925 N926 1.373 . S
C925 H953 0.930 . S
N926 C925 1.373 . S
N926 C928 1.340 . S
N927 C924 1.368 . S
N927 C928 1.321 . S
N927 Co930 2.135 . S
C928 N926 1.340 . S
C928 N927 1.321 . S
C928 H952 0.930 . S
H929 C924 0.931 . S
Co930 N927 2.135 . S
Co930 N933 2.121 . S
Co930 O938 2.055 . S
Co930 O941 2.039 . S
Co930 N944 2.140 . S
C931 O932 1.227 . S
C931 O941 1.265 . S
O932 C931 1.227 . S
N933 Co930 2.121 . S
N933 C935 1.375 . S
N933 C936 1.313 . S
C934 C935 1.338 . S
C934 N937 1.377 . S
C934 H954 0.930 . S
C935 N933 1.375 . S
C935 C934 1.338 . S
C935 H939 0.931 . S
C936 N933 1.313 . S
C936 N937 1.344 . S
C936 H940 0.930 . S
N937 C934 1.377 . S
N937 C936 1.344 . S
O938 Co930 2.055 . S
O938 C942 1.253 . S
H939 C935 0.931 . S
H940 C936 0.930 . S
O941 Co930 2.039 . S
O941 C931 1.265 . S
C942 O938 1.253 . S
C942 O943 1.227 . S
O943 C942 1.227 . S
N944 Co930 2.140 . S
N944 C947 1.346 . S
N944 C948 1.345 . S
C945 C946 1.387 . S
C945 C949 1.391 . S
C946 C945 1.387 . S
C946 C947 1.369 . S
C946 H955 0.929 . S
C947 N944 1.346 . S
C947 C946 1.369 . S
C947 H950 0.928 . S
C948 N944 1.345 . S
C948 C949 1.371 . S
C948 H951 0.931 . S
C949 C945 1.391 . S
C949 C948 1.371 . S
C949 H956 0.930 . S
H950 C947 0.928 . S
H951 C948 0.931 . S
H952 C928 0.930 . S
H953 C925 0.930 . S
H954 C934 0.930 . S
H955 C946 0.929 . S
H956 C949 0.930 . S
C957 C958 1.351 . S
C957 N960 1.368 1_556 S
C957 H962 0.931 . S
C958 C957 1.351 . S
C958 N959 1.372 . S
C958 H986 0.930 . S
N959 C958 1.372 . S
N959 C961 1.342 1_556 S
N960 C957 1.368 1_554 S
N960 C961 1.321 . S
N960 Co963 2.135 . S
C961 N959 1.342 1_554 S
C961 N960 1.321 . S
C961 H985 0.930 . S
H962 C957 0.931 . S
Co963 N960 2.135 . S
Co963 N966 2.121 . S
Co963 O971 2.055 . S
Co963 O974 2.039 . S
Co963 N977 2.140 . S
C964 O965 1.227 . S
C964 O974 1.265 . S
O965 C964 1.227 . S
N966 Co963 2.121 . S
N966 C968 1.375 . S
N966 C969 1.313 . S
C967 C968 1.338 . S
C967 N970 1.377 . S
C967 H987 0.930 . S
C968 N966 1.375 . S
C968 C967 1.338 . S
C968 H972 0.931 . S
C969 N966 1.313 . S
C969 N970 1.344 . S
C969 H973 0.930 . S
N970 C967 1.377 . S
N970 C969 1.344 . S
O971 Co963 2.055 . S
O971 C975 1.253 1_554 S
H972 C968 0.931 . S
H973 C969 0.930 . S
O974 Co963 2.039 . S
O974 C964 1.265 . S
C975 O971 1.253 1_556 S
C975 O976 1.227 . S
O976 C975 1.227 . S
N977 Co963 2.140 . S
N977 C980 1.346 . S
N977 C981 1.345 . S
C978 C979 1.387 . S
C978 C982 1.391 . S
C979 C978 1.387 . S
C979 C980 1.369 . S
C979 H988 0.929 1_455 S
C980 N977 1.346 . S
C980 C979 1.369 . S
C980 H983 0.928 . S
C981 N977 1.345 . S
C981 C982 1.371 . S
C981 H984 0.931 . S
C982 C978 1.391 . S
C982 C981 1.371 . S
C982 H989 0.930 . S
H983 C980 0.928 . S
H984 C981 0.931 . S
H985 C961 0.930 . S
H986 C958 0.930 . S
H987 C967 0.930 . S
H988 C979 0.929 1_655 S
H989 C982 0.930 . S
C990 C991 1.351 . S
C990 N993 1.368 . S
C990 H995 0.931 . S
C991 C990 1.351 . S
C991 N992 1.373 . S
C991 H1019 0.930 . S
N992 C991 1.373 . S
N992 C994 1.340 . S
N993 C990 1.368 . S
N993 C994 1.321 . S
N993 Co996 2.135 . S
C994 N992 1.340 . S
C994 N993 1.321 . S
C994 H1018 0.930 . S
H995 C990 0.931 . S
Co996 N993 2.135 . S
Co996 N999 2.121 . S
Co996 O1004 2.055 . S
Co996 O1007 2.039 . S
Co996 N1010 2.140 . S
C997 O998 1.227 . S
C997 O1007 1.265 . S
O998 C997 1.227 . S
N999 Co996 2.121 . S
N999 C1001 1.375 . S
N999 C1002 1.313 . S
C1000 C1001 1.338 . S
C1000 N1003 1.377 . S
C1000 H1020 0.930 . S
C1001 N999 1.375 . S
C1001 C1000 1.338 . S
C1001 H1005 0.931 . S
C1002 N999 1.313 . S
C1002 N1003 1.344 . S
C1002 H1006 0.930 . S
N1003 C1000 1.377 . S
N1003 C1002 1.344 . S
O1004 Co996 2.055 . S
O1004 C1008 1.253 . S
H1005 C1001 0.931 . S
H1006 C1002 0.930 . S
O1007 Co996 2.039 . S
O1007 C997 1.265 . S
C1008 O1004 1.253 . S
C1008 O1009 1.227 . S
O1009 C1008 1.227 . S
N1010 Co996 2.140 . S
N1010 C1013 1.346 . S
N1010 C1014 1.345 . S
C1011 C1012 1.387 . S
C1011 C1015 1.391 . S
C1012 C1011 1.387 . S
C1012 C1013 1.369 . S
C1012 H1021 0.929 . S
C1013 N1010 1.346 . S
C1013 C1012 1.369 . S
C1013 H1016 0.928 . S
C1014 N1010 1.345 . S
C1014 C1015 1.371 . S
C1014 H1017 0.931 . S
C1015 C1011 1.391 . S
C1015 C1014 1.371 . S
C1015 H1022 0.930 . S
H1016 C1013 0.928 . S
H1017 C1014 0.931 . S
H1018 C994 0.930 . S
H1019 C991 0.930 . S
H1020 C1000 0.930 . S
H1021 C1012 0.929 . S
H1022 C1015 0.930 . S
C1023 C1024 1.351 . S
C1023 N1026 1.368 . S
C1023 H1028 0.931 . S
C1024 C1023 1.351 . S
C1024 N1025 1.373 . S
C1024 H1052 0.930 . S
N1025 C1024 1.373 . S
N1025 C1027 1.340 . S
N1026 C1023 1.368 . S
N1026 C1027 1.321 . S
N1026 Co1029 2.135 . S
C1027 N1025 1.340 . S
C1027 N1026 1.321 . S
C1027 H1051 0.930 . S
H1028 C1023 0.931 . S
Co1029 N1026 2.135 . S
Co1029 N1032 2.121 . S
Co1029 O1037 2.055 . S
Co1029 O1040 2.039 . S
Co1029 N1043 2.140 . S
C1030 O1031 1.227 . S
C1030 O1040 1.265 . S
O1031 C1030 1.227 . S
N1032 Co1029 2.121 . S
N1032 C1034 1.375 . S
N1032 C1035 1.313 . S
C1033 C1034 1.338 . S
C1033 N1036 1.377 . S
C1033 H1053 0.930 . S
C1034 N1032 1.375 . S
C1034 C1033 1.338 . S
C1034 H1038 0.931 . S
C1035 N1032 1.313 . S
C1035 N1036 1.344 . S
C1035 H1039 0.930 . S
N1036 C1033 1.377 . S
N1036 C1035 1.344 . S
O1037 Co1029 2.055 . S
O1037 C1041 1.253 . S
H1038 C1034 0.931 . S
H1039 C1035 0.930 . S
O1040 Co1029 2.039 . S
O1040 C1030 1.265 . S
C1041 O1037 1.253 . S
C1041 O1042 1.227 . S
O1042 C1041 1.227 . S
N1043 Co1029 2.140 . S
N1043 C1046 1.346 . S
N1043 C1047 1.345 . S
C1044 C1045 1.387 . S
C1044 C1048 1.391 . S
C1045 C1044 1.387 . S
C1045 C1046 1.369 . S
C1045 H1054 0.929 . S
C1046 N1043 1.346 . S
C1046 C1045 1.369 . S
C1046 H1049 0.928 . S
C1047 N1043 1.345 . S
C1047 C1048 1.371 . S
C1047 H1050 0.931 . S
C1048 C1044 1.391 . S
C1048 C1047 1.371 . S
C1048 H1055 0.930 . S
H1049 C1046 0.928 . S
H1050 C1047 0.931 . S
H1051 C1027 0.930 . S
H1052 C1024 0.930 . S
H1053 C1033 0.930 . S
H1054 C1045 0.929 . S
H1055 C1048 0.930 . S
C1056 C1057 1.369 . S
C1056 C1058 1.419 . S
C1056 H1060 0.930 . S
C1057 C1056 1.369 . S
C1057 C1066 1.429 . S
C1058 C1056 1.419 . S
C1058 C1059 1.363 . S
C1058 H1061 0.929 . S
C1059 C1058 1.363 . S
C1059 C1065 1.428 . S
H1060 C1056 0.930 . S
H1061 C1058 0.929 . S
S1062 N1063 1.613 . S
S1062 N1064 1.610 . S
N1063 S1062 1.613 . S
N1063 C1066 1.350 . S
N1064 S1062 1.610 . S
N1064 C1065 1.351 . S
C1065 C1059 1.428 . S
C1065 N1064 1.351 . S
C1065 C1066 1.434 . S
C1066 C1057 1.429 . S
C1066 N1063 1.350 . S
C1066 C1065 1.434 . S
C1067 C1068 1.369 . S
C1067 C1069 1.419 . S
C1067 H1071 0.930 . S
C1068 C1067 1.369 . S
C1068 C1077 1.429 . S
C1069 C1067 1.419 . S
C1069 C1070 1.363 . S
C1069 H1072 0.929 . S
C1070 C1069 1.363 . S
C1070 C1076 1.428 . S
H1071 C1067 0.930 . S
H1072 C1069 0.929 . S
S1073 N1074 1.613 . S
S1073 N1075 1.610 . S
N1074 S1073 1.613 . S
N1074 C1077 1.350 . S
N1075 S1073 1.610 . S
N1075 C1076 1.351 . S
C1076 C1070 1.428 . S
C1076 N1075 1.351 . S
C1076 C1077 1.434 . S
C1077 C1068 1.429 . S
C1077 N1074 1.350 . S
C1077 C1076 1.434 . S
C1078 C1079 1.369 . S
C1078 C1080 1.419 . S
C1078 H1082 0.930 . S
C1079 C1078 1.369 . S
C1079 C1088 1.429 . S
C1080 C1078 1.419 . S
C1080 C1081 1.363 . S
C1080 H1083 0.929 . S
C1081 C1080 1.363 . S
C1081 C1087 1.428 . S
H1082 C1078 0.930 . S
H1083 C1080 0.929 . S
S1084 N1085 1.613 . S
S1084 N1086 1.610 . S
N1085 S1084 1.613 . S
N1085 C1088 1.350 . S
N1086 S1084 1.610 . S
N1086 C1087 1.351 . S
C1087 C1081 1.428 . S
C1087 N1086 1.351 . S
C1087 C1088 1.434 . S
C1088 C1079 1.429 . S
C1088 N1085 1.350 . S
C1088 C1087 1.434 . S
C1089 C1090 1.369 . S
C1089 C1091 1.419 . S
C1089 H1093 0.930 . S
C1090 C1089 1.369 . S
C1090 C1099 1.429 . S
C1091 C1089 1.419 . S
C1091 C1092 1.363 . S
C1091 H1094 0.929 . S
C1092 C1091 1.363 . S
C1092 C1098 1.428 . S
H1093 C1089 0.930 . S
H1094 C1091 0.929 . S
S1095 N1096 1.613 . S
S1095 N1097 1.610 . S
N1096 S1095 1.613 . S
N1096 C1099 1.350 . S
N1097 S1095 1.610 . S
N1097 C1098 1.351 . S
C1098 C1092 1.428 . S
C1098 N1097 1.351 . S
C1098 C1099 1.434 . S
C1099 C1090 1.429 . S
C1099 N1096 1.350 . S
C1099 C1098 1.434 . S
C1100 C1101 1.369 . S
C1100 C1102 1.419 . S
C1100 H1104 0.930 . S
C1101 C1100 1.369 . S
C1101 C1110 1.429 . S
C1102 C1100 1.419 . S
C1102 C1103 1.363 . S
C1102 H1105 0.929 . S
C1103 C1102 1.363 . S
C1103 C1109 1.428 . S
H1104 C1100 0.930 . S
H1105 C1102 0.929 . S
S1106 N1107 1.613 . S
S1106 N1108 1.610 . S
N1107 S1106 1.613 . S
N1107 C1110 1.350 . S
N1108 S1106 1.610 . S
N1108 C1109 1.351 . S
C1109 C1103 1.428 . S
C1109 N1108 1.351 . S
C1109 C1110 1.434 . S
C1110 C1101 1.429 . S
C1110 N1107 1.350 . S
C1110 C1109 1.434 . S
C1111 C1112 1.369 . S
C1111 C1113 1.419 . S
C1111 H1115 0.930 . S
C1112 C1111 1.369 . S
C1112 C1121 1.429 . S
C1113 C1111 1.419 . S
C1113 C1114 1.363 . S
C1113 H1116 0.929 . S
C1114 C1113 1.363 . S
C1114 C1120 1.428 . S
H1115 C1111 0.930 . S
H1116 C1113 0.929 . S
S1117 N1118 1.613 . S
S1117 N1119 1.610 . S
N1118 S1117 1.613 . S
N1118 C1121 1.350 . S
N1119 S1117 1.610 . S
N1119 C1120 1.351 . S
C1120 C1114 1.428 . S
C1120 N1119 1.351 . S
C1120 C1121 1.434 . S
C1121 C1112 1.429 . S
C1121 N1118 1.350 . S
C1121 C1120 1.434 . S
C1122 C1123 1.369 . S
C1122 C1124 1.419 . S
C1122 H1126 0.930 . S
C1123 C1122 1.369 . S
C1123 C1132 1.429 . S
C1124 C1122 1.419 . S
C1124 C1125 1.363 . S
C1124 H1127 0.929 . S
C1125 C1124 1.363 . S
C1125 C1131 1.428 . S
H1126 C1122 0.930 . S
H1127 C1124 0.929 . S
S1128 N1129 1.613 . S
S1128 N1130 1.610 . S
N1129 S1128 1.613 . S
N1129 C1132 1.350 . S
N1130 S1128 1.610 . S
N1130 C1131 1.351 . S
C1131 C1125 1.428 . S
C1131 N1130 1.351 . S
C1131 C1132 1.434 . S
C1132 C1123 1.429 . S
C1132 N1129 1.350 . S
C1132 C1131 1.434 . S
C1133 C1134 1.369 . S
C1133 C1135 1.419 . S
C1133 H1137 0.930 . S
C1134 C1133 1.369 . S
C1134 C1143 1.429 . S
C1135 C1133 1.419 . S
C1135 C1136 1.363 . S
C1135 H1138 0.929 . S
C1136 C1135 1.363 . S
C1136 C1142 1.428 . S
H1137 C1133 0.930 . S
H1138 C1135 0.929 . S
S1139 N1140 1.613 . S
S1139 N1141 1.610 . S
N1140 S1139 1.613 . S
N1140 C1143 1.350 . S
N1141 S1139 1.610 . S
N1141 C1142 1.351 . S
C1142 C1136 1.428 . S
C1142 N1141 1.351 . S
C1142 C1143 1.434 . S
C1143 C1134 1.429 . S
C1143 N1140 1.350 . S
C1143 C1142 1.434 . S
C1144 C1145 1.369 . S
C1144 C1146 1.419 . S
C1144 H1148 0.930 . S
C1145 C1144 1.369 . S
C1145 C1154 1.429 . S
C1146 C1144 1.419 . S
C1146 C1147 1.363 . S
C1146 H1149 0.929 . S
C1147 C1146 1.363 . S
C1147 C1153 1.428 . S
H1148 C1144 0.930 . S
H1149 C1146 0.929 . S
S1150 N1151 1.613 . S
S1150 N1152 1.610 . S
N1151 S1150 1.613 . S
N1151 C1154 1.350 . S
N1152 S1150 1.610 . S
N1152 C1153 1.351 . S
C1153 C1147 1.428 . S
C1153 N1152 1.351 . S
C1153 C1154 1.434 . S
C1154 C1145 1.429 . S
C1154 N1151 1.350 . S
C1154 C1153 1.434 . S
C1155 C1156 1.369 . S
C1155 C1157 1.419 . S
C1155 H1159 0.930 . S
C1156 C1155 1.369 . S
C1156 C1165 1.429 . S
C1157 C1155 1.419 . S
C1157 C1158 1.363 . S
C1157 H1160 0.929 . S
C1158 C1157 1.363 . S
C1158 C1164 1.428 . S
H1159 C1155 0.930 . S
H1160 C1157 0.929 . S
S1161 N1162 1.613 . S
S1161 N1163 1.610 . S
N1162 S1161 1.613 . S
N1162 C1165 1.350 . S
N1163 S1161 1.610 . S
N1163 C1164 1.351 . S
C1164 C1158 1.428 . S
C1164 N1163 1.351 . S
C1164 C1165 1.434 . S
C1165 C1156 1.429 . S
C1165 N1162 1.350 . S
C1165 C1164 1.434 . S
C1166 C1167 1.369 . S
C1166 C1168 1.419 . S
C1166 H1170 0.930 . S
C1167 C1166 1.369 . S
C1167 C1176 1.429 . S
C1168 C1166 1.419 . S
C1168 C1169 1.363 . S
C1168 H1171 0.929 . S
C1169 C1168 1.363 . S
C1169 C1175 1.428 . S
H1170 C1166 0.930 . S
H1171 C1168 0.929 . S
S1172 N1173 1.613 . S
S1172 N1174 1.610 . S
N1173 S1172 1.613 . S
N1173 C1176 1.350 . S
N1174 S1172 1.610 . S
N1174 C1175 1.351 . S
C1175 C1169 1.428 . S
C1175 N1174 1.351 . S
C1175 C1176 1.434 . S
C1176 C1167 1.429 . S
C1176 N1173 1.350 . S
C1176 C1175 1.434 . S
C1177 C1178 1.369 . S
C1177 C1179 1.419 . S
C1177 H1181 0.930 . S
C1178 C1177 1.369 . S
C1178 C1187 1.429 . S
C1179 C1177 1.419 . S
C1179 C1180 1.363 . S
C1179 H1182 0.929 . S
C1180 C1179 1.363 . S
C1180 C1186 1.428 . S
H1181 C1177 0.930 . S
H1182 C1179 0.929 . S
S1183 N1184 1.613 . S
S1183 N1185 1.610 . S
N1184 S1183 1.613 . S
N1184 C1187 1.350 . S
N1185 S1183 1.610 . S
N1185 C1186 1.351 . S
C1186 C1180 1.428 . S
C1186 N1185 1.351 . S
C1186 C1187 1.434 . S
C1187 C1178 1.429 . S
C1187 N1184 1.350 . S
C1187 C1186 1.434 . S
C1188 C1189 1.369 . S
C1188 C1190 1.419 . S
C1188 H1192 0.930 . S
C1189 C1188 1.369 . S
C1189 C1198 1.429 . S
C1190 C1188 1.419 . S
C1190 C1191 1.363 . S
C1190 H1193 0.929 . S
C1191 C1190 1.363 . S
C1191 C1197 1.428 . S
H1192 C1188 0.930 . S
H1193 C1190 0.929 . S
S1194 N1195 1.613 . S
S1194 N1196 1.610 . S
N1195 S1194 1.613 . S
N1195 C1198 1.350 . S
N1196 S1194 1.610 . S
N1196 C1197 1.351 . S
C1197 C1191 1.428 . S
C1197 N1196 1.351 . S
C1197 C1198 1.434 . S
C1198 C1189 1.429 . S
C1198 N1195 1.350 . S
C1198 C1197 1.434 . S
C1199 C1200 1.369 . S
C1199 C1201 1.419 . S
C1199 H1203 0.930 . S
C1200 C1199 1.369 . S
C1200 C1209 1.429 . S
C1201 C1199 1.419 . S
C1201 C1202 1.363 . S
C1201 H1204 0.929 . S
C1202 C1201 1.363 . S
C1202 C1208 1.428 . S
H1203 C1199 0.930 . S
H1204 C1201 0.929 . S
S1205 N1206 1.613 . S
S1205 N1207 1.610 . S
N1206 S1205 1.613 . S
N1206 C1209 1.350 . S
N1207 S1205 1.610 . S
N1207 C1208 1.351 . S
C1208 C1202 1.428 . S
C1208 N1207 1.351 . S
C1208 C1209 1.434 . S
C1209 C1200 1.429 . S
C1209 N1206 1.350 . S
C1209 C1208 1.434 . S
C1210 C1211 1.369 . S
C1210 C1212 1.419 . S
C1210 H1214 0.930 . S
C1211 C1210 1.369 . S
C1211 C1220 1.429 . S
C1212 C1210 1.419 . S
C1212 C1213 1.363 . S
C1212 H1215 0.929 . S
C1213 C1212 1.363 . S
C1213 C1219 1.428 . S
H1214 C1210 0.930 . S
H1215 C1212 0.929 . S
S1216 N1217 1.613 . S
S1216 N1218 1.610 . S
N1217 S1216 1.613 . S
N1217 C1220 1.350 . S
N1218 S1216 1.610 . S
N1218 C1219 1.351 . S
C1219 C1213 1.428 . S
C1219 N1218 1.351 . S
C1219 C1220 1.434 . S
C1220 C1211 1.429 . S
C1220 N1217 1.350 . S
C1220 C1219 1.434 . S
C1221 C1222 1.369 . S
C1221 C1223 1.419 . S
C1221 H1225 0.930 . S
C1222 C1221 1.369 . S
C1222 C1231 1.429 . S
C1223 C1221 1.419 . S
C1223 C1224 1.363 . S
C1223 H1226 0.929 . S
C1224 C1223 1.363 . S
C1224 C1230 1.428 . S
H1225 C1221 0.930 . S
H1226 C1223 0.929 . S
S1227 N1228 1.613 . S
S1227 N1229 1.610 . S
N1228 S1227 1.613 . S
N1228 C1231 1.350 . S
N1229 S1227 1.610 . S
N1229 C1230 1.351 . S
C1230 C1224 1.428 . S
C1230 N1229 1.351 . S
C1230 C1231 1.434 . S
C1231 C1222 1.429 . S
C1231 N1228 1.350 . S
C1231 C1230 1.434 . S
C1232 C1233 1.369 . S
C1232 C1234 1.419 . S
C1232 H1236 0.930 . S
C1233 C1232 1.369 . S
C1233 C1242 1.429 . S
C1234 C1232 1.419 . S
C1234 C1235 1.363 . S
C1234 H1237 0.929 . S
C1235 C1234 1.363 . S
C1235 C1241 1.428 . S
H1236 C1232 0.930 . S
H1237 C1234 0.929 . S
S1238 N1239 1.613 . S
S1238 N1240 1.610 . S
N1239 S1238 1.613 . S
N1239 C1242 1.350 . S
N1240 S1238 1.610 . S
N1240 C1241 1.351 . S
C1241 C1235 1.428 . S
C1241 N1240 1.351 . S
C1241 C1242 1.434 . S
C1242 C1233 1.429 . S
C1242 N1239 1.350 . S
C1242 C1241 1.434 . S
C1243 C1244 1.369 . S
C1243 C1245 1.419 . S
C1243 H1247 0.930 . S
C1244 C1243 1.369 . S
C1244 C1253 1.429 . S
C1245 C1243 1.419 . S
C1245 C1246 1.363 . S
C1245 H1248 0.929 . S
C1246 C1245 1.363 . S
C1246 C1252 1.428 . S
H1247 C1243 0.930 . S
H1248 C1245 0.929 . S
S1249 N1250 1.613 . S
S1249 N1251 1.610 . S
N1250 S1249 1.613 . S
N1250 C1253 1.350 . S
N1251 S1249 1.610 . S
N1251 C1252 1.351 . S
C1252 C1246 1.428 . S
C1252 N1251 1.351 . S
C1252 C1253 1.434 . S
C1253 C1244 1.429 . S
C1253 N1250 1.350 . S
C1253 C1252 1.434 . S
C1254 C1255 1.369 . S
C1254 C1256 1.419 . S
C1254 H1258 0.930 . S
C1255 C1254 1.369 . S
C1255 C1264 1.429 . S
C1256 C1254 1.419 . S
C1256 C1257 1.363 . S
C1256 H1259 0.929 . S
C1257 C1256 1.363 . S
C1257 C1263 1.428 . S
H1258 C1254 0.930 . S
H1259 C1256 0.929 . S
S1260 N1261 1.613 . S
S1260 N1262 1.610 . S
N1261 S1260 1.613 . S
N1261 C1264 1.350 . S
N1262 S1260 1.610 . S
N1262 C1263 1.351 . S
C1263 C1257 1.428 . S
C1263 N1262 1.351 . S
C1263 C1264 1.434 . S
C1264 C1255 1.429 . S
C1264 N1261 1.350 . S
C1264 C1263 1.434 . S
C1265 C1266 1.369 . S
C1265 C1267 1.419 . S
C1265 H1269 0.930 . S
C1266 C1265 1.369 . S
C1266 C1275 1.429 . S
C1267 C1265 1.419 . S
C1267 C1268 1.363 . S
C1267 H1270 0.929 . S
C1268 C1267 1.363 . S
C1268 C1274 1.428 . S
H1269 C1265 0.930 . S
H1270 C1267 0.929 . S
S1271 N1272 1.613 . S
S1271 N1273 1.610 . S
N1272 S1271 1.613 . S
N1272 C1275 1.350 . S
N1273 S1271 1.610 . S
N1273 C1274 1.351 . S
C1274 C1268 1.428 . S
C1274 N1273 1.351 . S
C1274 C1275 1.434 . S
C1275 C1266 1.429 . S
C1275 N1272 1.350 . S
C1275 C1274 1.434 . S
C1276 C1277 1.369 . S
C1276 C1278 1.419 . S
C1276 H1280 0.930 . S
C1277 C1276 1.369 . S
C1277 C1286 1.429 . S
C1278 C1276 1.419 . S
C1278 C1279 1.363 . S
C1278 H1281 0.929 . S
C1279 C1278 1.363 . S
C1279 C1285 1.428 . S
H1280 C1276 0.930 . S
H1281 C1278 0.929 . S
S1282 N1283 1.613 1_556 S
S1282 N1284 1.610 1_556 S
N1283 S1282 1.613 1_554 S
N1283 C1286 1.350 . S
N1284 S1282 1.610 1_554 S
N1284 C1285 1.351 . S
C1285 C1279 1.428 . S
C1285 N1284 1.351 . S
C1285 C1286 1.434 . S
C1286 C1277 1.429 . S
C1286 N1283 1.350 . S
C1286 C1285 1.434 . S
C1287 C1288 1.369 . S
C1287 C1289 1.419 . S
C1287 H1291 0.930 . S
C1288 C1287 1.369 . S
C1288 C1297 1.429 . S
C1289 C1287 1.419 . S
C1289 C1290 1.363 . S
C1289 H1292 0.929 . S
C1290 C1289 1.363 . S
C1290 C1296 1.428 . S
H1291 C1287 0.930 . S
H1292 C1289 0.929 . S
S1293 N1294 1.613 . S
S1293 N1295 1.610 . S
N1294 S1293 1.613 . S
N1294 C1297 1.350 . S
N1295 S1293 1.610 . S
N1295 C1296 1.351 . S
C1296 C1290 1.428 . S
C1296 N1295 1.351 . S
C1296 C1297 1.434 . S
C1297 C1288 1.429 . S
C1297 N1294 1.350 . S
C1297 C1296 1.434 . S
C1298 C1299 1.369 . S
C1298 C1300 1.419 . S
C1298 H1302 0.930 . S
C1299 C1298 1.369 . S
C1299 C1308 1.429 . S
C1300 C1298 1.419 . S
C1300 C1301 1.363 . S
C1300 H1303 0.929 . S
C1301 C1300 1.363 . S
C1301 C1307 1.428 . S
H1302 C1298 0.930 . S
H1303 C1300 0.929 . S
S1304 N1305 1.613 . S
S1304 N1306 1.610 . S
N1305 S1304 1.613 . S
N1305 C1308 1.350 . S
N1306 S1304 1.610 . S
N1306 C1307 1.351 . S
C1307 C1301 1.428 . S
C1307 N1306 1.351 . S
C1307 C1308 1.434 . S
C1308 C1299 1.429 . S
C1308 N1305 1.350 . S
C1308 C1307 1.434 . S
C1309 C1310 1.369 . S
C1309 C1311 1.419 . S
C1309 H1313 0.930 . S
C1310 C1309 1.369 . S
C1310 C1319 1.429 . S
C1311 C1309 1.419 . S
C1311 C1312 1.363 . S
C1311 H1314 0.929 . S
C1312 C1311 1.363 . S
C1312 C1318 1.428 . S
H1313 C1309 0.930 . S
H1314 C1311 0.929 . S
S1315 N1316 1.613 . S
S1315 N1317 1.610 . S
N1316 S1315 1.613 . S
N1316 C1319 1.350 . S
N1317 S1315 1.610 . S
N1317 C1318 1.351 . S
C1318 C1312 1.428 . S
C1318 N1317 1.351 . S
C1318 C1319 1.434 . S
C1319 C1310 1.429 . S
C1319 N1316 1.350 . S
C1319 C1318 1.434 . S
C1320 C1321 1.369 . S
C1320 C1322 1.419 . S
C1320 H1324 0.930 . S
C1321 C1320 1.369 . S
C1321 C1330 1.429 . S
C1322 C1320 1.419 . S
C1322 C1323 1.363 . S
C1322 H1325 0.929 . S
C1323 C1322 1.363 . S
C1323 C1329 1.428 . S
H1324 C1320 0.930 . S
H1325 C1322 0.929 . S
S1326 N1327 1.613 . S
S1326 N1328 1.610 . S
N1327 S1326 1.613 . S
N1327 C1330 1.350 . S
N1328 S1326 1.610 . S
N1328 C1329 1.351 . S
C1329 C1323 1.428 . S
C1329 N1328 1.351 . S
C1329 C1330 1.434 . S
C1330 C1321 1.429 . S
C1330 N1327 1.350 . S
C1330 C1329 1.434 . S
C1331 C1332 1.369 . S
C1331 C1333 1.419 . S
C1331 H1335 0.930 . S
C1332 C1331 1.369 . S
C1332 C1341 1.429 . S
C1333 C1331 1.419 . S
C1333 C1334 1.363 . S
C1333 H1336 0.929 . S
C1334 C1333 1.363 . S
C1334 C1340 1.428 . S
H1335 C1331 0.930 . S
H1336 C1333 0.929 . S
S1337 N1338 1.613 . S
S1337 N1339 1.610 . S
N1338 S1337 1.613 . S
N1338 C1341 1.350 . S
N1339 S1337 1.610 . S
N1339 C1340 1.351 . S
C1340 C1334 1.428 . S
C1340 N1339 1.351 . S
C1340 C1341 1.434 . S
C1341 C1332 1.429 . S
C1341 N1338 1.350 . S
C1341 C1340 1.434 . S
C1342 C1343 1.369 . S
C1342 C1344 1.419 . S
C1342 H1346 0.930 . S
C1343 C1342 1.369 . S
C1343 C1352 1.429 . S
C1344 C1342 1.419 . S
C1344 C1345 1.363 . S
C1344 H1347 0.929 . S
C1345 C1344 1.363 . S
C1345 C1351 1.428 . S
H1346 C1342 0.930 . S
H1347 C1344 0.929 . S
S1348 N1349 1.613 1_556 S
S1348 N1350 1.610 1_556 S
N1349 S1348 1.613 1_554 S
N1349 C1352 1.350 . S
N1350 S1348 1.610 1_554 S
N1350 C1351 1.351 . S
C1351 C1345 1.428 . S
C1351 N1350 1.351 . S
C1351 C1352 1.434 . S
C1352 C1343 1.429 . S
C1352 N1349 1.350 . S
C1352 C1351 1.434 . S
C1353 C1354 1.369 . S
C1353 C1355 1.419 . S
C1353 H1357 0.930 . S
C1354 C1353 1.369 . S
C1354 C1363 1.429 . S
C1355 C1353 1.419 . S
C1355 C1356 1.363 . S
C1355 H1358 0.929 . S
C1356 C1355 1.363 . S
C1356 C1362 1.428 . S
H1357 C1353 0.930 . S
H1358 C1355 0.929 . S
S1359 N1360 1.613 . S
S1359 N1361 1.610 . S
N1360 S1359 1.613 . S
N1360 C1363 1.350 . S
N1361 S1359 1.610 . S
N1361 C1362 1.351 . S
C1362 C1356 1.428 . S
C1362 N1361 1.351 . S
C1362 C1363 1.434 . S
C1363 C1354 1.429 . S
C1363 N1360 1.350 . S
C1363 C1362 1.434 . S
C1364 C1365 1.369 . S
C1364 C1366 1.419 . S
C1364 H1368 0.930 . S
C1365 C1364 1.369 . S
C1365 C1374 1.429 . S
C1366 C1364 1.419 . S
C1366 C1367 1.363 . S
C1366 H1369 0.929 . S
C1367 C1366 1.363 . S
C1367 C1373 1.428 . S
H1368 C1364 0.930 . S
H1369 C1366 0.929 . S
S1370 N1371 1.613 . S
S1370 N1372 1.610 . S
N1371 S1370 1.613 . S
N1371 C1374 1.350 . S
N1372 S1370 1.610 . S
N1372 C1373 1.351 . S
C1373 C1367 1.428 . S
C1373 N1372 1.351 . S
C1373 C1374 1.434 . S
C1374 C1365 1.429 . S
C1374 N1371 1.350 . S
C1374 C1373 1.434 . S
C1375 C1376 1.369 . S
C1375 C1377 1.419 . S
C1375 H1379 0.930 . S
C1376 C1375 1.369 . S
C1376 C1385 1.429 . S
C1377 C1375 1.419 . S
C1377 C1378 1.363 . S
C1377 H1380 0.929 . S
C1378 C1377 1.363 . S
C1378 C1384 1.428 . S
H1379 C1375 0.930 . S
H1380 C1377 0.929 . S
S1381 N1382 1.613 . S
S1381 N1383 1.610 . S
N1382 S1381 1.613 . S
N1382 C1385 1.350 . S
N1383 S1381 1.610 . S
N1383 C1384 1.351 . S
C1384 C1378 1.428 . S
C1384 N1383 1.351 . S
C1384 C1385 1.434 . S
C1385 C1376 1.429 . S
C1385 N1382 1.350 . S
C1385 C1384 1.434 . S
C1386 C1387 1.369 . S
C1386 C1388 1.419 . S
C1386 H1390 0.930 . S
C1387 C1386 1.369 . S
C1387 C1396 1.429 . S
C1388 C1386 1.419 . S
C1388 C1389 1.363 . S
C1388 H1391 0.929 . S
C1389 C1388 1.363 . S
C1389 C1395 1.428 . S
H1390 C1386 0.930 . S
H1391 C1388 0.929 . S
S1392 N1393 1.613 . S
S1392 N1394 1.610 . S
N1393 S1392 1.613 . S
N1393 C1396 1.350 . S
N1394 S1392 1.610 . S
N1394 C1395 1.351 . S
C1395 C1389 1.428 . S
C1395 N1394 1.351 . S
C1395 C1396 1.434 . S
C1396 C1387 1.429 . S
C1396 N1393 1.350 . S
C1396 C1395 1.434 . S
C1397 C1398 1.369 . S
C1397 C1399 1.419 . S
C1397 H1401 0.930 . S
C1398 C1397 1.369 . S
C1398 C1407 1.429 . S
C1399 C1397 1.419 . S
C1399 C1400 1.363 . S
C1399 H1402 0.929 . S
C1400 C1399 1.363 . S
C1400 C1406 1.428 . S
H1401 C1397 0.930 . S
H1402 C1399 0.929 . S
S1403 N1404 1.613 . S
S1403 N1405 1.610 . S
N1404 S1403 1.613 . S
N1404 C1407 1.350 . S
N1405 S1403 1.610 . S
N1405 C1406 1.351 . S
C1406 C1400 1.428 . S
C1406 N1405 1.351 . S
C1406 C1407 1.434 . S
C1407 C1398 1.429 . S
C1407 N1404 1.350 . S
C1407 C1406 1.434 . S
C1408 C1409 1.369 . S
C1408 C1410 1.419 . S
C1408 H1412 0.930 . S
C1409 C1408 1.369 . S
C1409 C1418 1.429 . S
C1410 C1408 1.419 . S
C1410 C1411 1.363 . S
C1410 H1413 0.929 . S
C1411 C1410 1.363 . S
C1411 C1417 1.428 . S
H1412 C1408 0.930 . S
H1413 C1410 0.929 . S
S1414 N1415 1.613 . S
S1414 N1416 1.610 . S
N1415 S1414 1.613 . S
N1415 C1418 1.350 . S
N1416 S1414 1.610 . S
N1416 C1417 1.351 . S
C1417 C1411 1.428 . S
C1417 N1416 1.351 . S
C1417 C1418 1.434 . S
C1418 C1409 1.429 . S
C1418 N1415 1.350 . S
C1418 C1417 1.434 . S
C1419 C1420 1.369 . S
C1419 C1421 1.419 . S
C1419 H1423 0.930 . S
C1420 C1419 1.369 . S
C1420 C1429 1.429 . S
C1421 C1419 1.419 . S
C1421 C1422 1.363 . S
C1421 H1424 0.929 . S
C1422 C1421 1.363 . S
C1422 C1428 1.428 . S
H1423 C1419 0.930 . S
H1424 C1421 0.929 . S
S1425 N1426 1.613 1_556 S
S1425 N1427 1.610 1_556 S
N1426 S1425 1.613 1_554 S
N1426 C1429 1.350 . S
N1427 S1425 1.610 1_554 S
N1427 C1428 1.351 . S
C1428 C1422 1.428 . S
C1428 N1427 1.351 . S
C1428 C1429 1.434 . S
C1429 C1420 1.429 . S
C1429 N1426 1.350 . S
C1429 C1428 1.434 . S
C1430 C1431 1.369 . S
C1430 C1432 1.419 . S
C1430 H1434 0.930 . S
C1431 C1430 1.369 . S
C1431 C1440 1.429 . S
C1432 C1430 1.419 . S
C1432 C1433 1.363 . S
C1432 H1435 0.929 . S
C1433 C1432 1.363 . S
C1433 C1439 1.428 . S
H1434 C1430 0.930 . S
H1435 C1432 0.929 . S
S1436 N1437 1.613 . S
S1436 N1438 1.610 . S
N1437 S1436 1.613 . S
N1437 C1440 1.350 . S
N1438 S1436 1.610 . S
N1438 C1439 1.351 . S
C1439 C1433 1.428 . S
C1439 N1438 1.351 . S
C1439 C1440 1.434 . S
C1440 C1431 1.429 . S
C1440 N1437 1.350 . S
C1440 C1439 1.434 . S
C1441 C1442 1.369 . S
C1441 C1443 1.419 . S
C1441 H1445 0.930 . S
C1442 C1441 1.369 . S
C1442 C1451 1.429 . S
C1443 C1441 1.419 . S
C1443 C1444 1.363 . S
C1443 H1446 0.929 . S
C1444 C1443 1.363 . S
C1444 C1450 1.428 . S
H1445 C1441 0.930 . S
H1446 C1443 0.929 . S
S1447 N1448 1.613 . S
S1447 N1449 1.610 . S
N1448 S1447 1.613 . S
N1448 C1451 1.350 . S
N1449 S1447 1.610 . S
N1449 C1450 1.351 . S
C1450 C1444 1.428 . S
C1450 N1449 1.351 . S
C1450 C1451 1.434 . S
C1451 C1442 1.429 . S
C1451 N1448 1.350 . S
C1451 C1450 1.434 . S
C1452 C1453 1.369 . S
C1452 C1454 1.419 . S
C1452 H1456 0.930 . S
C1453 C1452 1.369 . S
C1453 C1462 1.429 . S
C1454 C1452 1.419 . S
C1454 C1455 1.363 . S
C1454 H1457 0.929 . S
C1455 C1454 1.363 . S
C1455 C1461 1.428 . S
H1456 C1452 0.930 . S
H1457 C1454 0.929 . S
S1458 N1459 1.613 . S
S1458 N1460 1.610 . S
N1459 S1458 1.613 . S
N1459 C1462 1.350 . S
N1460 S1458 1.610 . S
N1460 C1461 1.351 . S
C1461 C1455 1.428 . S
C1461 N1460 1.351 . S
C1461 C1462 1.434 . S
C1462 C1453 1.429 . S
C1462 N1459 1.350 . S
C1462 C1461 1.434 . S
C1463 C1464 1.369 . S
C1463 C1465 1.419 . S
C1463 H1467 0.930 . S
C1464 C1463 1.369 . S
C1464 C1473 1.429 . S
C1465 C1463 1.419 . S
C1465 C1466 1.363 . S
C1465 H1468 0.929 . S
C1466 C1465 1.363 . S
C1466 C1472 1.428 . S
H1467 C1463 0.930 . S
H1468 C1465 0.929 . S
S1469 N1470 1.613 . S
S1469 N1471 1.610 . S
N1470 S1469 1.613 . S
N1470 C1473 1.350 . S
N1471 S1469 1.610 . S
N1471 C1472 1.351 . S
C1472 C1466 1.428 . S
C1472 N1471 1.351 . S
C1472 C1473 1.434 . S
C1473 C1464 1.429 . S
C1473 N1470 1.350 . S
C1473 C1472 1.434 . S
C1474 C1475 1.369 . S
C1474 C1476 1.419 . S
C1474 H1478 0.930 . S
C1475 C1474 1.369 . S
C1475 C1484 1.429 . S
C1476 C1474 1.419 . S
C1476 C1477 1.363 . S
C1476 H1479 0.929 . S
C1477 C1476 1.363 . S
C1477 C1483 1.428 . S
H1478 C1474 0.930 . S
H1479 C1476 0.929 . S
S1480 N1481 1.613 . S
S1480 N1482 1.610 . S
N1481 S1480 1.613 . S
N1481 C1484 1.350 . S
N1482 S1480 1.610 . S
N1482 C1483 1.351 . S
C1483 C1477 1.428 . S
C1483 N1482 1.351 . S
C1483 C1484 1.434 . S
C1484 C1475 1.429 . S
C1484 N1481 1.350 . S
C1484 C1483 1.434 . S
C1485 C1486 1.369 . S
C1485 C1487 1.419 . S
C1485 H1489 0.930 . S
C1486 C1485 1.369 . S
C1486 C1495 1.429 . S
C1487 C1485 1.419 . S
C1487 C1488 1.363 . S
C1487 H1490 0.929 . S
C1488 C1487 1.363 . S
C1488 C1494 1.428 . S
H1489 C1485 0.930 . S
H1490 C1487 0.929 . S
S1491 N1492 1.613 . S
S1491 N1493 1.610 . S
N1492 S1491 1.613 . S
N1492 C1495 1.350 . S
N1493 S1491 1.610 . S
N1493 C1494 1.351 . S
C1494 C1488 1.428 . S
C1494 N1493 1.351 . S
C1494 C1495 1.434 . S
C1495 C1486 1.429 . S
C1495 N1492 1.350 . S
C1495 C1494 1.434 . S
C1496 C1497 1.369 . S
C1496 C1498 1.419 . S
C1496 H1500 0.930 . S
C1497 C1496 1.369 . S
C1497 C1506 1.429 . S
C1498 C1496 1.419 . S
C1498 C1499 1.363 . S
C1498 H1501 0.929 . S
C1499 C1498 1.363 . S
C1499 C1505 1.428 . S
H1500 C1496 0.930 . S
H1501 C1498 0.929 . S
S1502 N1503 1.613 . S
S1502 N1504 1.610 . S
N1503 S1502 1.613 . S
N1503 C1506 1.350 . S
N1504 S1502 1.610 . S
N1504 C1505 1.351 . S
C1505 C1499 1.428 . S
C1505 N1504 1.351 . S
C1505 C1506 1.434 . S
C1506 C1497 1.429 . S
C1506 N1503 1.350 . S
C1506 C1505 1.434 . S
C1507 C1508 1.369 . S
C1507 C1509 1.419 . S
C1507 H1511 0.930 . S
C1508 C1507 1.369 . S
C1508 C1517 1.429 . S
C1509 C1507 1.419 . S
C1509 C1510 1.363 . S
C1509 H1512 0.929 . S
C1510 C1509 1.363 . S
C1510 C1516 1.428 . S
H1511 C1507 0.930 . S
H1512 C1509 0.929 . S
S1513 N1514 1.613 1_554 S
S1513 N1515 1.610 1_554 S
N1514 S1513 1.613 1_556 S
N1514 C1517 1.350 . S
N1515 S1513 1.610 1_556 S
N1515 C1516 1.351 . S
C1516 C1510 1.428 . S
C1516 N1515 1.351 . S
C1516 C1517 1.434 . S
C1517 C1508 1.429 . S
C1517 N1514 1.350 . S
C1517 C1516 1.434 . S
C1518 C1519 1.369 . S
C1518 C1520 1.419 . S
C1518 H1522 0.930 . S
C1519 C1518 1.369 . S
C1519 C1528 1.429 . S
C1520 C1518 1.419 . S
C1520 C1521 1.363 . S
C1520 H1523 0.929 . S
C1521 C1520 1.363 . S
C1521 C1527 1.428 . S
H1522 C1518 0.930 . S
H1523 C1520 0.929 . S
S1524 N1525 1.613 . S
S1524 N1526 1.610 . S
N1525 S1524 1.613 . S
N1525 C1528 1.350 . S
N1526 S1524 1.610 . S
N1526 C1527 1.351 . S
C1527 C1521 1.428 . S
C1527 N1526 1.351 . S
C1527 C1528 1.434 . S
C1528 C1519 1.429 . S
C1528 N1525 1.350 . S
C1528 C1527 1.434 . S
C1529 C1530 1.369 . S
C1529 C1531 1.419 . S
C1529 H1533 0.930 . S
C1530 C1529 1.369 . S
C1530 C1539 1.429 . S
C1531 C1529 1.419 . S
C1531 C1532 1.363 . S
C1531 H1534 0.929 . S
C1532 C1531 1.363 . S
C1532 C1538 1.428 . S
H1533 C1529 0.930 . S
H1534 C1531 0.929 . S
S1535 N1536 1.613 . S
S1535 N1537 1.610 . S
N1536 S1535 1.613 . S
N1536 C1539 1.350 . S
N1537 S1535 1.610 . S
N1537 C1538 1.351 . S
C1538 C1532 1.428 . S
C1538 N1537 1.351 . S
C1538 C1539 1.434 . S
C1539 C1530 1.429 . S
C1539 N1536 1.350 . S
C1539 C1538 1.434 . S
C1540 C1541 1.369 . S
C1540 C1542 1.419 . S
C1540 H1544 0.930 . S
C1541 C1540 1.369 . S
C1541 C1550 1.429 . S
C1542 C1540 1.419 . S
C1542 C1543 1.363 . S
C1542 H1545 0.929 . S
C1543 C1542 1.363 . S
C1543 C1549 1.428 . S
H1544 C1540 0.930 . S
H1545 C1542 0.929 . S
S1546 N1547 1.613 . S
S1546 N1548 1.610 . S
N1547 S1546 1.613 . S
N1547 C1550 1.350 . S
N1548 S1546 1.610 . S
N1548 C1549 1.351 . S
C1549 C1543 1.428 . S
C1549 N1548 1.351 . S
C1549 C1550 1.434 . S
C1550 C1541 1.429 . S
C1550 N1547 1.350 . S
C1550 C1549 1.434 . S
C1551 C1552 1.369 . S
C1551 C1553 1.419 . S
C1551 H1555 0.930 . S
C1552 C1551 1.369 . S
C1552 C1561 1.429 . S
C1553 C1551 1.419 . S
C1553 C1554 1.363 . S
C1553 H1556 0.929 . S
C1554 C1553 1.363 . S
C1554 C1560 1.428 . S
H1555 C1551 0.930 . S
H1556 C1553 0.929 . S
S1557 N1558 1.613 . S
S1557 N1559 1.610 . S
N1558 S1557 1.613 . S
N1558 C1561 1.350 . S
N1559 S1557 1.610 . S
N1559 C1560 1.351 . S
C1560 C1554 1.428 . S
C1560 N1559 1.351 . S
C1560 C1561 1.434 . S
C1561 C1552 1.429 . S
C1561 N1558 1.350 . S
C1561 C1560 1.434 . S
C1562 C1563 1.369 . S
C1562 C1564 1.419 . S
C1562 H1566 0.930 . S
C1563 C1562 1.369 . S
C1563 C1572 1.429 . S
C1564 C1562 1.419 . S
C1564 C1565 1.363 . S
C1564 H1567 0.929 . S
C1565 C1564 1.363 . S
C1565 C1571 1.428 . S
H1566 C1562 0.930 . S
H1567 C1564 0.929 . S
S1568 N1569 1.613 . S
S1568 N1570 1.610 . S
N1569 S1568 1.613 . S
N1569 C1572 1.350 . S
N1570 S1568 1.610 . S
N1570 C1571 1.351 . S
C1571 C1565 1.428 . S
C1571 N1570 1.351 . S
C1571 C1572 1.434 . S
C1572 C1563 1.429 . S
C1572 N1569 1.350 . S
C1572 C1571 1.434 . S
C1573 C1574 1.369 . S
C1573 C1575 1.419 . S
C1573 H1577 0.930 . S
C1574 C1573 1.369 . S
C1574 C1583 1.429 . S
C1575 C1573 1.419 . S
C1575 C1576 1.363 . S
C1575 H1578 0.929 . S
C1576 C1575 1.363 . S
C1576 C1582 1.428 . S
H1577 C1573 0.930 . S
H1578 C1575 0.929 . S
S1579 N1580 1.613 . S
S1579 N1581 1.610 . S
N1580 S1579 1.613 . S
N1580 C1583 1.350 . S
N1581 S1579 1.610 . S
N1581 C1582 1.351 . S
C1582 C1576 1.428 . S
C1582 N1581 1.351 . S
C1582 C1583 1.434 . S
C1583 C1574 1.429 . S
C1583 N1580 1.350 . S
C1583 C1582 1.434 . S
C1584 C1585 1.369 . S
C1584 C1586 1.419 . S
C1584 H1588 0.930 . S
C1585 C1584 1.369 . S
C1585 C1594 1.429 . S
C1586 C1584 1.419 . S
C1586 C1587 1.363 . S
C1586 H1589 0.929 . S
C1587 C1586 1.363 . S
C1587 C1593 1.428 . S
H1588 C1584 0.930 . S
H1589 C1586 0.929 . S
S1590 N1591 1.613 . S
S1590 N1592 1.610 . S
N1591 S1590 1.613 . S
N1591 C1594 1.350 . S
N1592 S1590 1.610 . S
N1592 C1593 1.351 . S
C1593 C1587 1.428 . S
C1593 N1592 1.351 . S
C1593 C1594 1.434 . S
C1594 C1585 1.429 . S
C1594 N1591 1.350 . S
C1594 C1593 1.434 . S
C1595 C1596 1.369 . S
C1595 C1597 1.419 1_465 S
C1595 H1599 0.930 . S
C1596 C1595 1.369 . S
C1596 C1605 1.429 . S
C1597 C1595 1.419 1_645 S
C1597 C1598 1.363 . S
C1597 H1600 0.929 . S
C1598 C1597 1.363 . S
C1598 C1604 1.428 . S
H1599 C1595 0.930 . S
H1600 C1597 0.929 . S
S1601 N1602 1.613 1_655 S
S1601 N1603 1.610 1_565 S
N1602 S1601 1.613 1_455 S
N1602 C1605 1.350 . S
N1603 S1601 1.610 1_545 S
N1603 C1604 1.351 . S
C1604 C1598 1.428 . S
C1604 N1603 1.351 . S
C1604 C1605 1.434 1_645 S
C1605 C1596 1.429 . S
C1605 N1602 1.350 . S
C1605 C1604 1.434 1_465 S
C1606 C1607 1.369 . S
C1606 C1608 1.419 . S
C1606 H1610 0.930 . S
C1607 C1606 1.369 . S
C1607 C1616 1.429 . S
C1608 C1606 1.419 . S
C1608 C1609 1.363 . S
C1608 H1611 0.929 . S
C1609 C1608 1.363 . S
C1609 C1615 1.428 . S
H1610 C1606 0.930 . S
H1611 C1608 0.929 . S
S1612 N1613 1.613 . S
S1612 N1614 1.610 . S
N1613 S1612 1.613 . S
N1613 C1616 1.350 . S
N1614 S1612 1.610 . S
N1614 C1615 1.351 . S
C1615 C1609 1.428 . S
C1615 N1614 1.351 . S
C1615 C1616 1.434 . S
C1616 C1607 1.429 . S
C1616 N1613 1.350 . S
C1616 C1615 1.434 . S
C1617 C1618 1.369 1_544 S
C1617 C1619 1.419 . S
C1617 H1621 0.930 . S
C1618 C1617 1.369 1_566 S
C1618 C1627 1.429 . S
C1619 C1617 1.419 . S
C1619 C1620 1.363 . S
C1619 H1622 0.929 . S
C1620 C1619 1.363 . S
C1620 C1626 1.428 1_544 S
H1621 C1617 0.930 . S
H1622 C1619 0.929 . S
S1623 N1624 1.613 . S
S1623 N1625 1.610 . S
N1624 S1623 1.613 . S
N1624 C1627 1.350 . S
N1625 S1623 1.610 . S
N1625 C1626 1.351 . S
C1626 C1620 1.428 1_566 S
C1626 N1625 1.351 . S
C1626 C1627 1.434 . S
C1627 C1618 1.429 . S
C1627 N1624 1.350 . S
C1627 C1626 1.434 . S
C1628 C1629 1.369 . S
C1628 C1630 1.419 . S
C1628 H1632 0.930 . S
C1629 C1628 1.369 . S
C1629 C1638 1.429 . S
C1630 C1628 1.419 . S
C1630 C1631 1.363 . S
C1630 H1633 0.929 . S
C1631 C1630 1.363 . S
C1631 C1637 1.428 . S
H1632 C1628 0.930 . S
H1633 C1630 0.929 . S
S1634 N1635 1.613 . S
S1634 N1636 1.610 . S
N1635 S1634 1.613 . S
N1635 C1638 1.350 . S
N1636 S1634 1.610 . S
N1636 C1637 1.351 . S
C1637 C1631 1.428 . S
C1637 N1636 1.351 . S
C1637 C1638 1.434 . S
C1638 C1629 1.429 . S
C1638 N1635 1.350 . S
C1638 C1637 1.434 . S
C1639 C1640 1.369 . S
C1639 C1641 1.419 . S
C1639 H1643 0.930 . S
C1640 C1639 1.369 . S
C1640 C1649 1.429 1_565 S
C1641 C1639 1.419 . S
C1641 C1642 1.363 1_565 S
C1641 H1644 0.929 . S
C1642 C1641 1.363 1_545 S
C1642 C1648 1.428 . S
H1643 C1639 0.930 . S
H1644 C1641 0.929 . S
S1645 N1646 1.613 . S
S1645 N1647 1.610 . S
N1646 S1645 1.613 . S
N1646 C1649 1.350 . S
N1647 S1645 1.610 . S
N1647 C1648 1.351 . S
C1648 C1642 1.428 . S
C1648 N1647 1.351 . S
C1648 C1649 1.434 . S
C1649 C1640 1.429 1_545 S
C1649 N1646 1.350 . S
C1649 C1648 1.434 . S
C1650 C1651 1.369 . S
C1650 C1652 1.419 . S
C1650 H1654 0.930 . S
C1651 C1650 1.369 . S
C1651 C1660 1.429 . S
C1652 C1650 1.419 . S
C1652 C1653 1.363 . S
C1652 H1655 0.929 . S
C1653 C1652 1.363 . S
C1653 C1659 1.428 . S
H1654 C1650 0.930 . S
H1655 C1652 0.929 . S
S1656 N1657 1.613 . S
S1656 N1658 1.610 . S
N1657 S1656 1.613 . S
N1657 C1660 1.350 . S
N1658 S1656 1.610 . S
N1658 C1659 1.351 . S
C1659 C1653 1.428 . S
C1659 N1658 1.351 . S
C1659 C1660 1.434 . S
C1660 C1651 1.429 . S
C1660 N1657 1.350 . S
C1660 C1659 1.434 . S
C1661 C1662 1.369 1_565 S
C1661 C1663 1.419 1_455 S
C1661 H1665 0.930 . S
C1662 C1661 1.369 1_545 S
C1662 C1671 1.429 1_556 S
C1663 C1661 1.419 1_655 S
C1663 C1664 1.363 1_556 S
C1663 H1666 0.929 . S
C1664 C1663 1.363 1_554 S
C1664 C1670 1.428 1_565 S
H1665 C1661 0.930 . S
H1666 C1663 0.929 . S
S1667 N1668 1.613 1_655 S
S1667 N1669 1.610 . S
N1668 S1667 1.613 1_455 S
N1668 C1671 1.350 . S
N1669 S1667 1.610 . S
N1669 C1670 1.351 . S
C1670 C1664 1.428 1_545 S
C1670 N1669 1.351 . S
C1670 C1671 1.434 1_655 S
C1671 C1662 1.429 1_554 S
C1671 N1668 1.350 . S
C1671 C1670 1.434 1_455 S
C1672 C1673 1.369 . S
C1672 C1674 1.419 . S
C1672 H1676 0.930 . S
C1673 C1672 1.369 . S
C1673 C1682 1.429 . S
C1674 C1672 1.419 . S
C1674 C1675 1.363 . S
C1674 H1677 0.929 . S
C1675 C1674 1.363 . S
C1675 C1681 1.428 . S
H1676 C1672 0.930 . S
H1677 C1674 0.929 . S
S1678 N1679 1.613 . S
S1678 N1680 1.610 . S
N1679 S1678 1.613 . S
N1679 C1682 1.350 . S
N1680 S1678 1.610 . S
N1680 C1681 1.351 . S
C1681 C1675 1.428 . S
C1681 N1680 1.351 . S
C1681 C1682 1.434 . S
C1682 C1673 1.429 . S
C1682 N1679 1.350 . S
C1682 C1681 1.434 . S
C1683 C1684 1.369 . S
C1683 C1685 1.419 . S
C1683 H1687 0.930 . S
C1684 C1683 1.369 . S
C1684 C1693 1.429 . S
C1685 C1683 1.419 . S
C1685 C1686 1.363 . S
C1685 H1688 0.929 . S
C1686 C1685 1.363 . S
C1686 C1692 1.428 . S
H1687 C1683 0.930 . S
H1688 C1685 0.929 . S
S1689 N1690 1.613 . S
S1689 N1691 1.610 . S
N1690 S1689 1.613 . S
N1690 C1693 1.350 . S
N1691 S1689 1.610 . S
N1691 C1692 1.351 . S
C1692 C1686 1.428 . S
C1692 N1691 1.351 . S
C1692 C1693 1.434 . S
C1693 C1684 1.429 . S
C1693 N1690 1.350 . S
C1693 C1692 1.434 . S
C1694 C1695 1.369 . S
C1694 C1696 1.419 . S
C1694 H1698 0.930 . S
C1695 C1694 1.369 . S
C1695 C1704 1.429 . S
C1696 C1694 1.419 . S
C1696 C1697 1.363 . S
C1696 H1699 0.929 . S
C1697 C1696 1.363 . S
C1697 C1703 1.428 . S
H1698 C1694 0.930 . S
H1699 C1696 0.929 . S
S1700 N1701 1.613 . S
S1700 N1702 1.610 . S
N1701 S1700 1.613 . S
N1701 C1704 1.350 . S
N1702 S1700 1.610 . S
N1702 C1703 1.351 . S
C1703 C1697 1.428 . S
C1703 N1702 1.351 . S
C1703 C1704 1.434 . S
C1704 C1695 1.429 . S
C1704 N1701 1.350 . S
C1704 C1703 1.434 . S
C1705 C1706 1.369 . S
C1705 C1707 1.419 . S
C1705 H1709 0.930 . S
C1706 C1705 1.369 . S
C1706 C1715 1.429 . S
C1707 C1705 1.419 . S
C1707 C1708 1.363 . S
C1707 H1710 0.929 . S
C1708 C1707 1.363 . S
C1708 C1714 1.428 . S
H1709 C1705 0.930 . S
H1710 C1707 0.929 . S
S1711 N1712 1.613 . S
S1711 N1713 1.610 . S
N1712 S1711 1.613 . S
N1712 C1715 1.350 . S
N1713 S1711 1.610 . S
N1713 C1714 1.351 . S
C1714 C1708 1.428 . S
C1714 N1713 1.351 . S
C1714 C1715 1.434 . S
C1715 C1706 1.429 . S
C1715 N1712 1.350 . S
C1715 C1714 1.434 . S
C1716 C1717 1.369 . S
C1716 C1718 1.419 . S
C1716 H1720 0.930 . S
C1717 C1716 1.369 . S
C1717 C1726 1.429 1_554 S
C1718 C1716 1.419 . S
C1718 C1719 1.363 1_554 S
C1718 H1721 0.929 . S
C1719 C1718 1.363 1_556 S
C1719 C1725 1.428 . S
H1720 C1716 0.930 . S
H1721 C1718 0.929 . S
S1722 N1723 1.613 . S
S1722 N1724 1.610 . S
N1723 S1722 1.613 . S
N1723 C1726 1.350 . S
N1724 S1722 1.610 . S
N1724 C1725 1.351 . S
C1725 C1719 1.428 . S
C1725 N1724 1.351 . S
C1725 C1726 1.434 . S
C1726 C1717 1.429 1_556 S
C1726 N1723 1.350 . S
C1726 C1725 1.434 . S
C1727 C1728 1.369 . S
C1727 C1729 1.419 1_455 S
C1727 H1731 0.930 . S
C1728 C1727 1.369 . S
C1728 C1737 1.429 . S
C1729 C1727 1.419 1_655 S
C1729 C1730 1.363 . S
C1729 H1732 0.929 . S
C1730 C1729 1.363 . S
C1730 C1736 1.428 . S
H1731 C1727 0.930 . S
H1732 C1729 0.929 . S
S1733 N1734 1.613 1_655 S
S1733 N1735 1.610 . S
N1734 S1733 1.613 1_455 S
N1734 C1737 1.350 . S
N1735 S1733 1.610 . S
N1735 C1736 1.351 . S
C1736 C1730 1.428 . S
C1736 N1735 1.351 . S
C1736 C1737 1.434 1_655 S
C1737 C1728 1.429 . S
C1737 N1734 1.350 . S
C1737 C1736 1.434 1_455 S
C1738 C1739 1.369 . S
C1738 C1740 1.418 1_656 S
C1738 H1742 0.930 1_556 S
C1739 C1738 1.369 . S
C1739 C1748 1.429 . S
C1740 C1738 1.418 1_454 S
C1740 C1741 1.364 . S
C1740 H1743 0.930 . S
C1741 C1740 1.364 . S
C1741 C1747 1.428 1_554 S
H1742 C1738 0.930 1_554 S
H1743 C1740 0.930 . S
S1744 N1745 1.613 . S
S1744 N1746 1.610 1_655 S
N1745 S1744 1.613 . S
N1745 C1748 1.350 . S
N1746 S1744 1.610 1_455 S
N1746 C1747 1.352 . S
C1747 C1741 1.428 1_556 S
C1747 N1746 1.352 . S
C1747 C1748 1.435 1_455 S
C1748 C1739 1.429 . S
C1748 N1745 1.350 . S
C1748 C1747 1.435 1_655 S
C1749 C1750 1.369 . S
C1749 C1751 1.419 . S
C1749 H1753 0.930 . S
C1750 C1749 1.369 . S
C1750 C1759 1.429 . S
C1751 C1749 1.419 . S
C1751 C1752 1.363 . S
C1751 H1754 0.929 . S
C1752 C1751 1.363 . S
C1752 C1758 1.428 . S
H1753 C1749 0.930 . S
H1754 C1751 0.929 . S
S1755 N1756 1.613 . S
S1755 N1757 1.610 . S
N1756 S1755 1.613 . S
N1756 C1759 1.350 . S
N1757 S1755 1.610 . S
N1757 C1758 1.351 . S
C1758 C1752 1.428 . S
C1758 N1757 1.351 . S
C1758 C1759 1.434 . S
C1759 C1750 1.429 . S
C1759 N1756 1.350 . S
C1759 C1758 1.434 . S
C1760 C1761 1.369 . S
C1760 C1762 1.419 . S
C1760 H1764 0.930 . S
C1761 C1760 1.369 . S
C1761 C1770 1.429 . S
C1762 C1760 1.419 . S
C1762 C1763 1.363 . S
C1762 H1765 0.929 . S
C1763 C1762 1.363 . S
C1763 C1769 1.428 . S
H1764 C1760 0.930 . S
H1765 C1762 0.929 . S
S1766 N1767 1.613 . S
S1766 N1768 1.610 . S
N1767 S1766 1.613 . S
N1767 C1770 1.350 . S
N1768 S1766 1.610 . S
N1768 C1769 1.351 . S
C1769 C1763 1.428 . S
C1769 N1768 1.351 . S
C1769 C1770 1.434 . S
C1770 C1761 1.429 . S
C1770 N1767 1.350 . S
C1770 C1769 1.434 . S
C1771 C1772 1.361 1_565 S
C1771 C1773 1.426 . S
C1771 H1775 0.931 . S
C1772 C1771 1.361 1_545 S
C1772 C1781 1.429 . S
C1773 C1771 1.426 . S
C1773 C1774 1.363 . S
C1773 H1776 0.929 . S
C1774 C1773 1.363 . S
C1774 C1780 1.428 1_565 S
H1775 C1771 0.931 . S
H1776 C1773 0.929 . S
S1777 N1778 1.613 . S
S1777 N1779 1.610 . S
N1778 S1777 1.613 . S
N1778 C1781 1.350 . S
N1779 S1777 1.610 . S
N1779 C1780 1.351 . S
C1780 C1774 1.428 1_545 S
C1780 N1779 1.351 . S
C1780 C1781 1.434 . S
C1781 C1772 1.429 . S
C1781 N1778 1.350 . S
C1781 C1780 1.434 . S
C1782 C1783 1.369 1_556 S
C1782 C1784 1.419 . S
C1782 H1786 0.930 . S
C1783 C1782 1.369 1_554 S
C1783 C1792 1.429 . S
C1784 C1782 1.419 . S
C1784 C1785 1.363 . S
C1784 H1787 0.929 . S
C1785 C1784 1.363 . S
C1785 C1791 1.428 1_556 S
H1786 C1782 0.930 . S
H1787 C1784 0.929 . S
S1788 N1789 1.613 . S
S1788 N1790 1.610 . S
N1789 S1788 1.613 . S
N1789 C1792 1.350 . S
N1790 S1788 1.610 . S
N1790 C1791 1.351 . S
C1791 C1785 1.428 1_554 S
C1791 N1790 1.351 . S
C1791 C1792 1.434 . S
C1792 C1783 1.429 . S
C1792 N1789 1.350 . S
C1792 C1791 1.434 . S
C1793 C1794 1.369 . S
C1793 C1795 1.419 . S
C1793 H1797 0.930 . S
C1794 C1793 1.369 . S
C1794 C1803 1.429 1_565 S
C1795 C1793 1.419 . S
C1795 C1796 1.363 1_565 S
C1795 H1798 0.929 . S
C1796 C1795 1.363 1_545 S
C1796 C1802 1.428 . S
H1797 C1793 0.930 . S
H1798 C1795 0.929 . S
S1799 N1800 1.613 . S
S1799 N1801 1.610 . S
N1800 S1799 1.613 . S
N1800 C1803 1.350 . S
N1801 S1799 1.610 . S
N1801 C1802 1.351 . S
C1802 C1796 1.428 . S
C1802 N1801 1.351 . S
C1802 C1803 1.434 . S
C1803 C1794 1.429 1_545 S
C1803 N1800 1.350 . S
C1803 C1802 1.434 . S
C1804 C1805 1.369 . S
C1804 C1806 1.419 . S
C1804 H1808 0.930 . S
C1805 C1804 1.369 . S
C1805 C1814 1.429 . S
C1806 C1804 1.419 . S
C1806 C1807 1.363 . S
C1806 H1809 0.929 . S
C1807 C1806 1.363 . S
C1807 C1813 1.428 . S
H1808 C1804 0.930 . S
H1809 C1806 0.929 . S
S1810 N1811 1.613 . S
S1810 N1812 1.610 . S
N1811 S1810 1.613 . S
N1811 C1814 1.350 . S
N1812 S1810 1.610 . S
N1812 C1813 1.351 . S
C1813 C1807 1.428 . S
C1813 N1812 1.351 . S
C1813 C1814 1.434 . S
C1814 C1805 1.429 . S
C1814 N1811 1.350 . S
C1814 C1813 1.434 . S
C1815 C1816 1.369 . S
C1815 C1817 1.419 1_545 S
C1815 H1819 0.930 . S
C1816 C1815 1.369 . S
C1816 C1825 1.429 . S
C1817 C1815 1.419 1_565 S
C1817 C1818 1.363 . S
C1817 H1820 0.929 . S
C1818 C1817 1.363 . S
C1818 C1824 1.428 . S
H1819 C1815 0.930 . S
H1820 C1817 0.929 . S
S1821 N1822 1.613 . S
S1821 N1823 1.610 1_545 S
N1822 S1821 1.613 . S
N1822 C1825 1.350 . S
N1823 S1821 1.610 1_565 S
N1823 C1824 1.351 . S
C1824 C1818 1.428 . S
C1824 N1823 1.351 . S
C1824 C1825 1.434 1_565 S
C1825 C1816 1.429 . S
C1825 N1822 1.350 . S
C1825 C1824 1.434 1_545 S
C1826 C1827 1.369 1_554 S
C1826 C1828 1.419 . S
C1826 H1830 0.930 . S
C1827 C1826 1.369 1_556 S
C1827 C1836 1.429 . S
C1828 C1826 1.419 . S
C1828 C1829 1.363 . S
C1828 H1831 0.929 . S
C1829 C1828 1.363 . S
C1829 C1835 1.428 1_554 S
H1830 C1826 0.930 . S
H1831 C1828 0.929 . S
S1832 N1833 1.613 . S
S1832 N1834 1.610 . S
N1833 S1832 1.613 . S
N1833 C1836 1.350 . S
N1834 S1832 1.610 . S
N1834 C1835 1.351 . S
C1835 C1829 1.428 1_556 S
C1835 N1834 1.351 . S
C1835 C1836 1.434 . S
C1836 C1827 1.429 . S
C1836 N1833 1.350 . S
C1836 C1835 1.434 . S
C1837 C1838 1.369 . S
C1837 C1839 1.419 1_545 S
C1837 H1841 0.930 . S
C1838 C1837 1.369 . S
C1838 C1847 1.429 . S
C1839 C1837 1.419 1_565 S
C1839 C1840 1.363 . S
C1839 H1842 0.929 . S
C1840 C1839 1.363 . S
C1840 C1846 1.428 . S
H1841 C1837 0.930 . S
H1842 C1839 0.929 . S
S1843 N1844 1.613 . S
S1843 N1845 1.603 1_545 S
N1844 S1843 1.613 . S
N1844 C1847 1.350 . S
N1845 S1843 1.603 1_565 S
N1845 C1846 1.352 . S
C1846 C1840 1.428 . S
C1846 N1845 1.352 . S
C1846 C1847 1.434 1_565 S
C1847 C1838 1.429 . S
C1847 N1844 1.350 . S
C1847 C1846 1.434 1_545 S
C1848 C1849 1.369 1_554 S
C1848 C1850 1.419 . S
C1848 H1852 0.930 . S
C1849 C1848 1.369 1_556 S
C1849 C1858 1.429 . S
C1850 C1848 1.419 . S
C1850 C1851 1.363 . S
C1850 H1853 0.929 . S
C1851 C1850 1.363 . S
C1851 C1857 1.428 1_554 S
H1852 C1848 0.930 . S
H1853 C1850 0.929 . S
S1854 N1855 1.613 . S
S1854 N1856 1.610 . S
N1855 S1854 1.613 . S
N1855 C1858 1.350 . S
N1856 S1854 1.610 . S
N1856 C1857 1.351 . S
C1857 C1851 1.428 1_556 S
C1857 N1856 1.351 . S
C1857 C1858 1.434 . S
C1858 C1849 1.429 . S
C1858 N1855 1.350 . S
C1858 C1857 1.434 . S
C1859 C1860 1.369 . S
C1859 C1861 1.419 . S
C1859 H1863 0.930 . S
C1860 C1859 1.369 . S
C1860 C1869 1.429 . S
C1861 C1859 1.419 . S
C1861 C1862 1.363 . S
C1861 H1864 0.929 . S
C1862 C1861 1.363 . S
C1862 C1868 1.428 . S
H1863 C1859 0.930 . S
H1864 C1861 0.929 . S
S1865 N1866 1.613 . S
S1865 N1867 1.610 . S
N1866 S1865 1.613 . S
N1866 C1869 1.350 . S
N1867 S1865 1.610 . S
N1867 C1868 1.351 . S
C1868 C1862 1.428 . S
C1868 N1867 1.351 . S
C1868 C1869 1.434 . S
C1869 C1860 1.429 . S
C1869 N1866 1.350 . S
C1869 C1868 1.434 . S
C1870 C1871 1.369 . S
C1870 C1872 1.419 . S
C1870 H1874 0.930 . S
C1871 C1870 1.369 . S
C1871 C1880 1.429 . S
C1872 C1870 1.419 . S
C1872 C1873 1.363 . S
C1872 H1875 0.929 . S
C1873 C1872 1.363 . S
C1873 C1879 1.428 . S
H1874 C1870 0.930 . S
H1875 C1872 0.929 . S
S1876 N1877 1.613 . S
S1876 N1878 1.610 . S
N1877 S1876 1.613 . S
N1877 C1880 1.350 . S
N1878 S1876 1.610 . S
N1878 C1879 1.351 . S
C1879 C1873 1.428 . S
C1879 N1878 1.351 . S
C1879 C1880 1.434 . S
C1880 C1871 1.429 . S
C1880 N1877 1.350 . S
C1880 C1879 1.434 . S
C1881 C1882 1.369 . S
C1881 C1883 1.419 . S
C1881 H1885 0.930 . S
C1882 C1881 1.369 . S
C1882 C1891 1.429 . S
C1883 C1881 1.419 . S
C1883 C1884 1.363 . S
C1883 H1886 0.929 . S
C1884 C1883 1.363 . S
C1884 C1890 1.428 . S
H1885 C1881 0.930 . S
H1886 C1883 0.929 . S
S1887 N1888 1.613 . S
S1887 N1889 1.610 . S
N1888 S1887 1.613 . S
N1888 C1891 1.350 . S
N1889 S1887 1.610 . S
N1889 C1890 1.351 . S
C1890 C1884 1.428 . S
C1890 N1889 1.351 . S
C1890 C1891 1.434 . S
C1891 C1882 1.429 . S
C1891 N1888 1.350 . S
C1891 C1890 1.434 . S
C1892 C1893 1.369 1_556 S
C1892 C1894 1.419 . S
C1892 H1896 0.930 . S
C1893 C1892 1.369 1_554 S
C1893 C1902 1.429 . S
C1894 C1892 1.419 . S
C1894 C1895 1.363 . S
C1894 H1897 0.929 . S
C1895 C1894 1.363 . S
C1895 C1901 1.428 1_556 S
H1896 C1892 0.930 . S
H1897 C1894 0.929 . S
S1898 N1899 1.613 . S
S1898 N1900 1.610 . S
N1899 S1898 1.613 . S
N1899 C1902 1.350 . S
N1900 S1898 1.610 . S
N1900 C1901 1.351 . S
C1901 C1895 1.428 1_554 S
C1901 N1900 1.351 . S
C1901 C1902 1.434 . S
C1902 C1893 1.429 . S
C1902 N1899 1.350 . S
C1902 C1901 1.434 . S
C1903 C1904 1.369 . S
C1903 C1905 1.419 . S
C1903 H1907 0.930 . S
C1904 C1903 1.369 . S
C1904 C1913 1.429 . S
C1905 C1903 1.419 . S
C1905 C1906 1.363 . S
C1905 H1908 0.929 . S
C1906 C1905 1.363 . S
C1906 C1912 1.428 . S
H1907 C1903 0.930 . S
H1908 C1905 0.929 . S
S1909 N1910 1.613 . S
S1909 N1911 1.610 . S
N1910 S1909 1.613 . S
N1910 C1913 1.350 . S
N1911 S1909 1.610 . S
N1911 C1912 1.351 . S
C1912 C1906 1.428 . S
C1912 N1911 1.351 . S
C1912 C1913 1.434 . S
C1913 C1904 1.429 . S
C1913 N1910 1.350 . S
C1913 C1912 1.434 . S
C1914 C1915 1.369 . S
C1914 C1916 1.419 . S
C1914 H1918 0.930 . S
C1915 C1914 1.369 . S
C1915 C1924 1.429 . S
C1916 C1914 1.419 . S
C1916 C1917 1.363 . S
C1916 H1919 0.929 . S
C1917 C1916 1.363 . S
C1917 C1923 1.428 . S
H1918 C1914 0.930 . S
H1919 C1916 0.929 . S
S1920 N1921 1.613 . S
S1920 N1922 1.610 . S
N1921 S1920 1.613 . S
N1921 C1924 1.350 . S
N1922 S1920 1.610 . S
N1922 C1923 1.351 . S
C1923 C1917 1.428 . S
C1923 N1922 1.351 . S
C1923 C1924 1.434 . S
C1924 C1915 1.429 . S
C1924 N1921 1.350 . S
C1924 C1923 1.434 . S
C1925 C1926 1.369 . S
C1925 C1927 1.419 . S
C1925 H1929 0.930 . S
C1926 C1925 1.369 . S
C1926 C1935 1.429 . S
C1927 C1925 1.419 . S
C1927 C1928 1.363 . S
C1927 H1930 0.929 . S
C1928 C1927 1.363 . S
C1928 C1934 1.428 . S
H1929 C1925 0.930 . S
H1930 C1927 0.929 . S
S1931 N1932 1.613 . S
S1931 N1933 1.610 . S
N1932 S1931 1.613 . S
N1932 C1935 1.350 . S
N1933 S1931 1.610 . S
N1933 C1934 1.351 . S
C1934 C1928 1.428 . S
C1934 N1933 1.351 . S
C1934 C1935 1.434 . S
C1935 C1926 1.429 . S
C1935 N1932 1.350 . S
C1935 C1934 1.434 . S
C1057 C249 1.697 . S
C1059 C18 1.698 . S
C1068 C51 1.698 . S
C1070 C150 1.697 . S
C1079 C84 1.695 . S
C1081 C183 1.695 . S
C1090 C216 1.697 . S
C1092 C117 1.697 . S
C1101 C282 1.696 . S
C1103 C513 1.695 . S
C1112 C414 1.695 . S
C1114 C315 1.696 . S
C1123 C348 1.697 . S
C1125 C447 1.698 . S
C1134 C480 1.694 . S
C1136 C381 1.695 . S
C1145 C777 1.695 . S
C1147 C546 1.696 . S
C1156 C678 1.696 . S
C1158 C579 1.695 . S
C1167 C711 1.698 . S
C1169 C612 1.697 . S
C1178 C744 1.695 . S
C1180 C645 1.697 . S
C1189 C1041 1.695 . S
C1191 C810 1.696 . S
C1200 C843 1.695 . S
C1202 C942 1.695 . S
C1211 C975 1.695 . S
C1213 C876 1.697 . S
C1222 C1008 1.697 . S
C1224 C909 1.698 . S
C1233 C21 1.524 . S
C1235 N904 1.517 . S
C1244 N277 1.518 . S
C1246 C54 1.526 1_655 S
C1255 N838 1.516 . S
C1257 C87 1.524 . S
C1266 C120 1.527 . S
C1268 N343 1.516 . S
C1277 N970 1.522 . S
C1279 C153 1.523 . S
C1288 C186 1.521 . S
C1290 N475 1.519 . S
C1299 N1036 1.520 . S
C1301 C219 1.521 . S
C1310 N409 1.522 . S
C1312 C252 1.520 1_655 S
C1321 C285 1.519 . S
C1323 N640 1.522 . S
C1332 C318 1.523 1_455 S
C1334 N13 1.521 . S
C1343 N574 1.517 . S
C1345 C351 1.526 . S
C1354 N79 1.516 . S
C1356 C384 1.525 . S
C1365 N706 1.521 . S
C1367 C417 1.523 . S
C1376 N211 1.520 . S
C1378 C450 1.524 . S
C1387 C483 1.520 . S
C1389 N772 1.521 . S
C1398 C516 1.526 1_455 S
C1400 N145 1.516 . S
C1409 C549 1.523 . S
C1411 N376 1.521 . S
C1420 N805 1.518 . S
C1422 C582 1.522 . S
C1431 N310 1.523 . S
C1433 C615 1.523 . S
C1442 C648 1.526 1_455 S
C1444 N871 1.519 . S
C1453 C681 1.519 . S
C1455 N442 1.521 . S
C1464 N1003 1.523 . S
C1466 C714 1.522 1_455 S
C1475 N508 1.515 . S
C1477 C747 1.526 . S
C1486 C780 1.527 . S
C1488 N937 1.516 . S
C1497 N112 1.518 . S
C1499 C813 1.523 . S
C1508 N541 1.523 . S
C1510 C846 1.520 . S
C1519 N46 1.518 . S
C1521 C879 1.525 . S
C1530 N607 1.520 . S
C1532 C912 1.525 1_655 S
C1541 C945 1.520 . S
C1543 N178 1.523 . S
C1552 C978 1.527 1_655 S
C1554 N739 1.516 . S
C1563 C1011 1.525 . S
C1565 N244 1.517 . S
C1574 N673 1.521 . S
C1576 C1044 1.521 . S
C1585 N2 1.180 . S
C1587 N794 1.185 . S
C1596 N35 1.180 . S
C1598 N299 1.184 . S
C1607 N68 1.191 . S
C1609 N860 1.177 . S
C1618 N365 1.183 1_556 S
C1620 N101 1.184 1_554 S
C1629 N926 1.184 . S
C1631 N134 1.183 . S
C1640 N167 1.186 . S
C1642 N431 1.180 . S
C1651 N200 1.180 . S
C1653 N992 1.185 . S
C1662 N233 1.177 1_556 S
C1664 N497 1.188 1_554 S
C1673 N530 1.177 . S
C1675 N266 1.187 . S
C1684 N332 1.179 . S
C1686 N596 1.187 . S
C1695 N662 1.192 . S
C1697 N398 1.176 . S
C1706 N464 1.175 . S
C1708 N728 1.189 . S
C1717 N563 1.191 1_554 S
C1719 N827 1.177 1_556 S
C1728 N893 1.180 . S
C1730 N629 1.186 . S
C1739 N695 1.191 1_556 S
C1741 N959 1.177 1_554 S
C1750 N1025 1.191 . S
C1752 N761 1.176 . S
C1761 C7 1.822 . S
C1763 C205 1.825 . S
C1772 C238 1.825 . S
C1774 C40 1.822 . S
C1783 C139 1.823 . S
C1785 C73 1.825 . S
C1794 C172 1.823 . S
C1796 C106 1.825 . S
C1805 C271 1.825 . S
C1807 C469 1.826 . S
C1816 C304 1.823 . S
C1818 C502 1.821 . S
C1827 C403 1.820 . S
C1829 C337 1.823 . S
C1838 C436 1.823 . S
C1840 C370 1.821 . S
C1849 C535 1.826 . S
C1851 C733 1.826 . S
C1860 C568 1.820 . S
C1862 C766 1.823 . S
C1871 C667 1.821 . S
C1873 C601 1.824 . S
C1882 C700 1.821 . S
C1884 C634 1.824 . S
C1893 C799 1.824 . S
C1895 C997 1.826 . S
C1904 C832 1.826 . S
C1906 C1030 1.822 . S
C1915 C931 1.824 . S
C1917 C865 1.826 . S
C1926 C898 1.827 . S
C1928 C964 1.825 . S
