# Generated by pormake.
# Topology fna, (5)-cn, num edge types: 1
# Building blocks:
#     Node 0, Type 0, BuildingBlock: XOMCOT_clean_sbu_0, # of connection points: 5
#     Node 1, Type 0, BuildingBlock: XOMCOT_clean_sbu_0, # of connection points: 5
#     Node 2, Type 0, BuildingBlock: XOMCOT_clean_sbu_0, # of connection points: 5
#     Node 3, Type 0, BuildingBlock: XOMCOT_clean_sbu_0, # of connection points: 5
#     Node 4, Type 0, BuildingBlock: XOMCOT_clean_sbu_0, # of connection points: 5
#     Node 5, Type 0, BuildingBlock: XOMCOT_clean_sbu_0, # of connection points: 5
#     Node 6, Type 0, BuildingBlock: XOMCOT_clean_sbu_0, # of connection points: 5
#     Node 7, Type 0, BuildingBlock: XOMCOT_clean_sbu_0, # of connection points: 5
#     Node 8, Type 0, BuildingBlock: XOMCOT_clean_sbu_0, # of connection points: 5
#     Node 9, Type 0, BuildingBlock: XOMCOT_clean_sbu_0, # of connection points: 5
#     Node 10, Type 0, BuildingBlock: XOMCOT_clean_sbu_0, # of connection points: 5
#     Node 11, Type 0, BuildingBlock: XOMCOT_clean_sbu_0, # of connection points: 5
#     Edge 12, Type (0, 0), BuildingBlock: TEMPAE_clean_linker_10, # of connection points: 2
#     Edge 13, Type (0, 0), BuildingBlock: TEMPAE_clean_linker_10, # of connection points: 2
#     Edge 14, Type (0, 0), BuildingBlock: TEMPAE_clean_linker_10, # of connection points: 2
#     Edge 15, Type (0, 0), BuildingBlock: TEMPAE_clean_linker_10, # of connection points: 2
#     Edge 16, Type (0, 0), BuildingBlock: TEMPAE_clean_linker_10, # of connection points: 2
#     Edge 17, Type (0, 0), BuildingBlock: TEMPAE_clean_linker_10, # of connection points: 2
#     Edge 18, Type (0, 0), BuildingBlock: TEMPAE_clean_linker_10, # of connection points: 2
#     Edge 19, Type (0, 0), BuildingBlock: TEMPAE_clean_linker_10, # of connection points: 2
#     Edge 20, Type (0, 0), BuildingBlock: TEMPAE_clean_linker_10, # of connection points: 2
#     Edge 21, Type (0, 0), BuildingBlock: TEMPAE_clean_linker_10, # of connection points: 2
#     Edge 22, Type (0, 0), BuildingBlock: TEMPAE_clean_linker_10, # of connection points: 2
#     Edge 23, Type (0, 0), BuildingBlock: TEMPAE_clean_linker_10, # of connection points: 2
#     Edge 24, Type (0, 0), BuildingBlock: TEMPAE_clean_linker_10, # of connection points: 2
#     Edge 25, Type (0, 0), BuildingBlock: TEMPAE_clean_linker_10, # of connection points: 2
#     Edge 26, Type (0, 0), BuildingBlock: TEMPAE_clean_linker_10, # of connection points: 2
#     Edge 27, Type (0, 0), BuildingBlock: TEMPAE_clean_linker_10, # of connection points: 2
#     Edge 28, Type (0, 0), BuildingBlock: TEMPAE_clean_linker_10, # of connection points: 2
#     Edge 29, Type (0, 0), BuildingBlock: TEMPAE_clean_linker_10, # of connection points: 2
#     Edge 30, Type (0, 0), BuildingBlock: TEMPAE_clean_linker_10, # of connection points: 2
#     Edge 31, Type (0, 0), BuildingBlock: TEMPAE_clean_linker_10, # of connection points: 2
#     Edge 32, Type (0, 0), BuildingBlock: TEMPAE_clean_linker_10, # of connection points: 2
#     Edge 33, Type (0, 0), BuildingBlock: TEMPAE_clean_linker_10, # of connection points: 2
#     Edge 34, Type (0, 0), BuildingBlock: TEMPAE_clean_linker_10, # of connection points: 2
#     Edge 35, Type (0, 0), BuildingBlock: TEMPAE_clean_linker_10, # of connection points: 2
#     Edge 36, Type (0, 0), BuildingBlock: TEMPAE_clean_linker_10, # of connection points: 2
#     Edge 37, Type (0, 0), BuildingBlock: TEMPAE_clean_linker_10, # of connection points: 2
#     Edge 38, Type (0, 0), BuildingBlock: TEMPAE_clean_linker_10, # of connection points: 2
#     Edge 39, Type (0, 0), BuildingBlock: TEMPAE_clean_linker_10, # of connection points: 2
#     Edge 40, Type (0, 0), BuildingBlock: TEMPAE_clean_linker_10, # of connection points: 2
#     Edge 41, Type (0, 0), BuildingBlock: TEMPAE_clean_linker_10, # of connection points: 2
# Relax obj value: 0.321
# Max RMSD: 0.211
# Mean RMSD: 0.211
data_MOF--net-fna--node1-XOMCOT_clean_sbu_0--edge1-TEMPAE_clean_linker_10
_symmetry_space_group_name_H-M    P1
_symmetry_Int_Tables_number       1
_symmetry_cell_setting            triclinic
loop_
_symmetry_equiv_pos_as_xyz
'x, y, z'
_cell_length_a     46.004323
_cell_length_b     46.072977
_cell_length_c     46.515642
_cell_angle_alpha  89.999438
_cell_angle_beta   89.907348
_cell_angle_gamma 120.02356
loop_
_atom_site_label
_atom_site_type_symbol
_atom_site_fract_x
_atom_site_fract_y
_atom_site_fract_z
_atom_type_partial_charge
Co0 Co 0.33625 0.28726 0.48406 0.0
C1 C 0.32496 0.24181 0.43483 0.0
C2 C 0.28029 0.24307 0.44508 0.0
C3 C 0.27288 0.2193 0.42409 0.0
N4 N 0.31324 0.25795 0.45144 0.0
N5 N 0.30096 0.2182 0.41771 0.0
H6 H 0.34986 0.24529 0.43696 0.0
H7 H 0.26204 0.24711 0.45624 0.0
C8 C 0.28482 0.30981 0.47259 0.0
O9 O 0.29134 0.31399 0.4449 0.0
N10 N 0.35937 0.3152 0.51657 0.0
C11 C 0.39284 0.33524 0.519 0.0
C12 C 0.4 0.34768 0.54648 0.0
C13 C 0.34659 0.31523 0.54261 0.0
N14 N 0.37096 0.33489 0.56139 0.0
C15 C 0.38607 0.32404 0.44049 0.0
C16 C 0.39173 0.38528 0.45321 0.0
C17 C 0.41591 0.38473 0.43512 0.0
C18 C 0.41193 0.35327 0.42796 0.0
C19 C 0.36594 0.3555 0.46476 0.0
N20 N 0.36376 0.32536 0.45903 0.0
H21 H 0.38559 0.30075 0.43678 0.0
H22 H 0.34979 0.35728 0.48066 0.0
H23 H 0.41088 0.3397 0.5022 0.0
H24 H 0.32029 0.29978 0.54802 0.0
O25 O 0.36488 0.26747 0.4881 0.0
O26 O 0.31535 0.24926 0.50893 0.0
O27 O 0.3005 0.30001 0.48891 0.0
C28 C 0.34191 0.24655 0.50589 0.0
H29 H 0.24817 0.20313 0.41531 0.0
H30 H 0.42481 0.3644 0.55489 0.0
H31 H 0.39386 0.40867 0.46019 0.0
H32 H 0.42947 0.35121 0.41377 0.0
Co33 Co 0.05583 0.33355 0.64499 0.0
C34 C 0.08927 0.32454 0.59407 0.0
C35 C 0.04143 0.28082 0.60123 0.0
C36 C 0.05762 0.27423 0.5794 0.0
N37 N 0.06105 0.31265 0.61028 0.0
N38 N 0.08792 0.30172 0.57501 0.0
H39 H 0.1115 0.34858 0.5976 0.0
H40 H 0.01807 0.26251 0.61094 0.0
C41 C 0.98031 0.28219 0.63776 0.0
O42 O 0.97817 0.29143 0.61149 0.0
N43 N 0.05201 0.35447 0.67955 0.0
C44 C 0.0651 0.38759 0.68384 0.0
C45 C 0.06057 0.39275 0.71218 0.0
C46 C 0.04024 0.33991 0.7053 0.0
N47 N 0.04515 0.36278 0.72572 0.0
C48 C 0.06471 0.38286 0.60272 0.0
C49 C 0.01102 0.38955 0.62065 0.0
C50 C 0.03394 0.41303 0.601 0.0
C51 C 0.06038 0.40853 0.59128 0.0
C52 C 0.0159 0.36387 0.63113 0.0
N53 N 0.04297 0.36123 0.62274 0.0
H54 H 0.08679 0.38182 0.59675 0.0
H55 H 0.99944 0.34791 0.64794 0.0
H56 H 0.07778 0.40672 0.66763 0.0
H57 H 0.02981 0.31337 0.70917 0.0
O58 O 0.10422 0.36331 0.64735 0.0
O59 O 0.0754 0.31269 0.66683 0.0
O60 O 1.00817 0.29651 0.65121 0.0
C61 C 0.10402 0.33997 0.66344 0.0
H62 H 0.04824 0.25043 0.56856 0.0
H63 H 0.06838 0.41682 0.72201 0.0
H64 H 0.9906 0.3921 0.62941 0.0
H65 H 0.07848 0.42548 0.57576 0.0
Co66 Co 0.73085 0.04653 0.81358 0.0
C67 C 0.7738 0.08214 0.76344 0.0
C68 C 0.78281 0.0435 0.77871 0.0
C69 C 0.80618 0.06158 0.75776 0.0
N70 N 0.76206 0.056 0.78198 0.0
N71 N 0.80068 0.0861 0.74825 0.0
H72 H 0.76427 0.09923 0.76231 0.0
H73 H 0.78272 0.02428 0.79209 0.0
C74 C 0.71643 0.97448 0.80078 0.0
O75 O 0.71679 0.97705 0.77264 0.0
N76 N 0.70065 0.038 0.84523 0.0
C77 C 0.68119 0.05174 0.84956 0.0
C78 C 0.66957 0.0453 0.87742 0.0
C79 C 0.70068 0.02345 0.87027 0.0
N80 N 0.68206 0.0277 0.89053 0.0
C81 C 0.69303 0.06342 0.77548 0.0
C82 C 0.63635 1.00065 0.77395 0.0
C83 C 0.63417 0.02807 0.7634 0.0
C84 C 0.66349 0.05964 0.76356 0.0
C85 C 0.66615 1.0057 0.78643 0.0
N86 N 0.69405 0.03688 0.7874 0.0
H87 H 0.71407 0.08845 0.77753 0.0
H88 H 0.6655 0.98477 0.79728 0.0
H89 H 0.67757 0.0673 0.83427 0.0
H90 H 0.71562 0.0117 0.87383 0.0
O91 O 0.74897 0.0944 0.81977 0.0
O92 O 0.76728 0.06306 0.84021 0.0
O93 O 0.72012 0.9986 0.81673 0.0
C94 C 0.76869 0.0918 0.83839 0.0
H95 H 0.82715 0.05843 0.75165 0.0
H96 H 0.65491 0.05486 0.88761 0.0
H97 H 0.61476 0.97561 0.774 0.0
H98 H 0.6633 0.08192 0.7565 0.0
Co99 Co 0.68017 0.72289 0.98538 0.0
C100 C 0.69179 0.76516 0.93321 0.0
C101 C 0.73739 0.77703 0.95504 0.0
C102 C 0.74484 0.79986 0.93324 0.0
N103 N 0.70421 0.75479 0.95478 0.0
N104 N 0.71616 0.79256 0.91949 0.0
H105 H 0.66542 0.75408 0.92852 0.0
H106 H 0.75474 0.77783 0.9711 0.0
C107 C 0.73756 0.70885 0.97246 0.0
O108 O 0.73807 0.71477 0.94478 0.0
N109 N 0.6568 0.69215 0.01625 0.0
C110 C 0.62352 0.6714 0.01936 0.0
C111 C 0.61751 0.65851 0.04683 0.0
C112 C 0.67053 0.69174 0.0416 0.0
N113 N 0.64713 0.6716 0.06083 0.0
C114 C 0.62564 0.68688 0.94648 0.0
C115 C 0.62965 0.62905 0.94547 0.0
C116 C 0.60017 0.62761 0.93552 0.0
C117 C 0.59905 0.65749 0.93507 0.0
C118 C 0.65545 0.6588 0.9571 0.0
N119 N 0.65297 0.68715 0.95825 0.0
H120 H 0.62245 0.70842 0.94847 0.0
H121 H 0.67574 0.65766 0.96744 0.0
H122 H 0.60477 0.66719 0.0034 0.0
H123 H 0.69687 0.7079 0.04642 0.0
O124 O 0.65151 0.74242 0.99107 0.0
O125 O 0.69999 0.75848 0.01297 0.0
O126 O 0.71591 0.70996 0.98887 0.0
C127 C 0.67338 0.76117 0.01038 0.0
H128 H 0.76924 0.82155 0.92918 0.0
H129 H 0.5931 0.6417 0.05598 0.0
H130 H 0.63208 0.60686 0.94586 0.0
H131 H 0.57675 0.65777 0.92811 0.0
Co132 Co 0.96415 0.68145 0.14988 0.0
C133 C 0.92895 0.69282 0.10127 0.0
C134 C 0.96927 0.73876 0.11772 0.0
C135 C 0.9522 0.74626 0.09756 0.0
N136 N 0.95527 0.70522 0.11968 0.0
N137 N 0.92653 0.71737 0.08733 0.0
H138 H 0.91027 0.66659 0.09984 0.0
H139 H 0.98915 0.75672 0.13134 0.0
C140 C 0.03605 0.73738 0.13583 0.0
O141 O 0.03118 0.73528 0.1079 0.0
N142 N 0.97222 0.65811 0.18027 0.0
C143 C 0.95662 0.62465 0.18422 0.0
C144 C 0.9628 0.61843 0.21183 0.0
C145 C 0.98782 0.67178 0.20521 0.0
N146 N 0.98233 0.64812 0.22485 0.0
C147 C 0.94612 0.62852 0.10931 0.0
C148 C 1.00734 0.63098 0.10977 0.0
C149 C 0.97945 0.60239 0.09845 0.0
C150 C 0.94878 0.60208 0.09734 0.0
C151 C 1.00343 0.65644 0.12212 0.0
N152 N 0.97293 0.65483 0.12234 0.0
H153 H 0.92157 0.62595 0.11059 0.0
H154 H 0.02443 0.67561 0.13381 0.0
H155 H 0.93991 0.60619 0.16891 0.0
H156 H 1.00011 0.69835 0.2098 0.0
O157 O 0.91613 0.65214 0.15598 0.0
O158 O 0.94827 0.70063 0.17799 0.0
O159 O 0.01271 0.71768 0.15288 0.0
C160 C 0.91918 0.6737 0.17558 0.0
H161 H 0.95763 0.77125 0.09187 0.0
H162 H 0.95236 0.59412 0.22205 0.0
H163 H 0.03175 0.63289 0.11072 0.0
H164 H 0.92626 0.58047 0.08936 0.0
Co165 Co 0.28527 0.95853 0.3144 0.0
C166 C 0.24379 0.92722 0.26245 0.0
C167 C 0.24495 0.97293 0.27316 0.0
C168 C 0.22235 0.95761 0.25117 0.0
N169 N 0.25907 0.95428 0.28002 0.0
N170 N 0.22142 0.92867 0.24453 0.0
H171 H 0.24674 0.90546 0.26435 0.0
H172 H 0.2484 0.99473 0.28469 0.0
C173 C 0.30805 0.0331 0.30764 0.0
O174 O 0.31669 0.03387 0.28059 0.0
N175 N 0.30978 0.96157 0.34881 0.0
C176 C 0.32754 0.94605 0.3538 0.0
C177 C 0.33454 0.94804 0.38272 0.0
C178 C 0.30628 0.97288 0.37449 0.0
N179 N 0.32112 0.96488 0.39549 0.0
C180 C 0.3268 0.95281 0.27117 0.0
C181 C 0.38674 1.00512 0.29126 0.0
C182 C 0.38781 0.98343 0.27059 0.0
C183 C 0.35712 0.95782 0.25976 0.0
C184 C 0.35584 0.99965 0.30167 0.0
N185 N 0.32632 0.97318 0.29222 0.0
H186 H 0.3039 0.93113 0.26434 0.0
H187 H 0.35586 0.0151 0.31915 0.0
H188 H 0.33325 0.93257 0.33781 0.0
H189 H 0.29122 0.98458 0.37807 0.0
O190 O 0.26842 0.91064 0.31501 0.0
O191 O 0.24429 0.93643 0.3362 0.0
O192 O 0.29531 1.00581 0.32193 0.0
C193 C 0.24483 0.90886 0.33177 0.0
H194 H 0.20659 0.96638 0.24185 0.0
H195 H 0.34758 0.93717 0.39368 0.0
H196 H 0.40951 0.02492 0.3008 0.0
H197 H 0.35636 0.94074 0.24341 0.0
Co198 Co 0.72888 0.68346 0.34817 0.0
C199 C 0.77219 0.69317 0.39845 0.0
C200 C 0.77365 0.73885 0.38709 0.0
C201 C 0.79758 0.74569 0.40786 0.0
N202 N 0.75718 0.7057 0.38143 0.0
N203 N 0.79687 0.71693 0.4149 0.0
H204 H 0.76687 0.6676 0.39731 0.0
H205 H 0.7709 0.75748 0.37525 0.0
C206 C 0.70796 0.73662 0.35762 0.0
O207 O 0.70037 0.7291 0.38487 0.0
N208 N 0.70188 0.66107 0.31502 0.0
C209 C 0.68121 0.62779 0.31232 0.0
C210 C 0.66916 0.62112 0.28472 0.0
C211 C 0.70269 0.67423 0.28899 0.0
N212 N 0.68287 0.65027 0.26996 0.0
C213 C 0.68943 0.63326 0.39039 0.0
C214 C 0.62926 0.62903 0.37546 0.0
C215 C 0.62872 0.60398 0.39282 0.0
C216 C 0.65931 0.607 0.40129 0.0
C217 C 0.65989 0.65521 0.36551 0.0
N218 N 0.68952 0.65658 0.37219 0.0
H219 H 0.71222 0.6329 0.39458 0.0
H220 H 0.65929 0.67223 0.34991 0.0
H221 H 0.67584 0.60953 0.3291 0.0
H222 H 0.71862 0.7005 0.28387 0.0
O223 O 0.74757 0.65377 0.34519 0.0
O224 O 0.76795 0.70356 0.32445 0.0
O225 O 0.71816 0.72044 0.34239 0.0
C226 C 0.76975 0.67661 0.32804 0.0
H227 H 0.81589 0.77044 0.41535 0.0
H228 H 0.6519 0.59655 0.27621 0.0
H229 H 0.60608 0.62733 0.36825 0.0
H230 H 0.65982 0.58776 0.4143 0.0
Co231 Co 0.0593 0.72948 0.51178 0.0
C232 C 0.09285 0.77118 0.56311 0.0
C233 C 0.04866 0.77307 0.55227 0.0
C234 C 0.06502 0.79551 0.57415 0.0
N235 N 0.06568 0.75715 0.54561 0.0
N236 N 0.09299 0.7945 0.58091 0.0
H237 H 0.11318 0.76589 0.56178 0.0
H238 H 0.02738 0.77089 0.54066 0.0
C239 C 0.98572 0.71069 0.5196 0.0
O240 O 0.98449 0.70055 0.54621 0.0
N241 N 0.0542 0.70308 0.47806 0.0
C242 C 0.06787 0.68353 0.47415 0.0
C243 C 0.0618 0.67183 0.44643 0.0
C244 C 0.04007 0.70319 0.45278 0.0
N245 N 0.04425 0.68413 0.43286 0.0
C246 C 0.06415 0.68731 0.55485 0.0
C247 C 1.00875 0.62876 0.53626 0.0
C248 C 0.03087 0.62666 0.55565 0.0
C249 C 0.05815 0.65649 0.56583 0.0
C250 C 0.01535 0.66005 0.52617 0.0
N251 N 0.04331 0.68888 0.53482 0.0
H252 H 0.0871 0.70952 0.56075 0.0
H253 H 0.99957 0.66072 0.50933 0.0
H254 H 0.08223 0.67901 0.49011 0.0
H255 H 0.02767 0.71752 0.44913 0.0
O256 O 0.10695 0.74439 0.51045 0.0
O257 O 0.08229 0.76947 0.48902 0.0
O258 O 0.01275 0.72208 0.50498 0.0
C259 C 0.1094 0.76806 0.4935 0.0
H260 H 0.05814 0.81305 0.58283 0.0
H261 H 0.07086 0.65641 0.43697 0.0
H262 H 0.98744 0.60628 0.5278 0.0
H263 H 0.07616 0.65592 0.58046 0.0
Co264 Co 0.33794 0.05161 0.682 0.0
C265 C 0.31802 0.08784 0.72398 0.0
C266 C 0.32004 0.04676 0.74351 0.0
C267 C 0.31502 0.06455 0.76475 0.0
N268 N 0.32219 0.06135 0.7178 0.0
N269 N 0.3138 0.09034 0.75247 0.0
H270 H 0.3203 0.10632 0.70844 0.0
H271 H 0.32462 0.02629 0.74717 0.0
C272 C 0.28254 0.97758 0.6942 0.0
O273 O 0.29365 0.97428 0.71924 0.0
N274 N 0.35426 0.04247 0.64698 0.0
C275 C 0.38675 0.05609 0.63953 0.0
C276 C 0.38845 0.04662 0.61192 0.0
C277 C 0.33653 0.02485 0.62396 0.0
N278 N 0.35686 0.02694 0.60203 0.0
C279 C 0.39206 0.06325 0.71865 0.0
C280 C 0.39033 1.00342 0.70779 0.0
C281 C 0.41826 0.02887 0.72232 0.0
C282 C 0.41836 0.05886 0.72826 0.0
C283 C 0.36507 0.00924 0.69781 0.0
N284 N 0.36626 0.03895 0.70312 0.0
H285 H 0.39338 0.08708 0.72215 0.0
H286 H 0.34582 0.99069 0.68412 0.0
H287 H 0.40773 0.07277 0.65292 0.0
H288 H 0.30943 0.01169 0.62315 0.0
O289 O 0.36987 0.09903 0.67596 0.0
O290 O 0.3176 0.07145 0.65953 0.0
O291 O 0.29785 1.00498 0.68013 0.0
C292 C 0.34663 0.09876 0.65974 0.0
H293 H 0.31395 0.05985 0.78764 0.0
H294 H 0.41135 0.055 0.59978 0.0
H295 H 0.38847 0.97956 0.70303 0.0
H296 H 0.43939 0.07969 0.73881 0.0
Co297 Co 0.29041 0.3338 0.84329 0.0
C298 C 0.24301 0.32187 0.89176 0.0
C299 C 0.23352 0.27644 0.87113 0.0
C300 C 0.20876 0.26884 0.89116 0.0
N301 N 0.25562 0.30957 0.87192 0.0
N302 N 0.21436 0.29746 0.90406 0.0
H303 H 0.25305 0.34827 0.89558 0.0
H304 H 0.23432 0.25906 0.85597 0.0
C305 C 0.30118 0.27478 0.85754 0.0
O306 O 0.29291 0.27355 0.88474 0.0
N307 N 0.32396 0.35736 0.81428 0.0
C308 C 0.34604 0.39044 0.81238 0.0
C309 C 0.36096 0.39694 0.78566 0.0
C310 C 0.32561 0.34424 0.78895 0.0
N311 N 0.3478 0.36784 0.77088 0.0
C312 C 0.32422 0.38645 0.88422 0.0
C313 C 0.3814 0.38131 0.88766 0.0
C314 C 0.38291 0.4109 0.89728 0.0
C315 C 0.35325 0.41251 0.89663 0.0
C316 C 0.35206 0.35608 0.87499 0.0
N317 N 0.32416 0.35924 0.87246 0.0
H318 H 0.30306 0.39012 0.88132 0.0
H319 H 0.35338 0.3358 0.86483 0.0
H320 H 0.34984 0.40882 0.82857 0.0
H321 H 0.30891 0.31831 0.78321 0.0
O322 O 0.27285 0.36384 0.83631 0.0
O323 O 0.25711 0.31583 0.81368 0.0
O324 O 0.30223 0.29723 0.84085 0.0
C325 C 0.25521 0.34288 0.81605 0.0
H326 H 0.18764 0.24407 0.895 0.0
H327 H 0.37916 0.42139 0.77748 0.0
H328 H 0.40338 0.37846 0.88819 0.0
H329 H 0.35302 0.43488 0.90337 0.0
Co330 Co 0.96536 0.28819 0.01234 0.0
C331 C 0.9332 0.24838 0.06491 0.0
C332 C 0.97074 0.23855 0.04805 0.0
C333 C 0.95374 0.21589 0.06968 0.0
N334 N 0.95839 0.25947 0.04534 0.0
N335 N 0.92986 0.22183 0.0802 0.0
H336 H 0.9161 0.25789 0.06658 0.0
H337 H 0.98893 0.23792 0.03371 0.0
C338 C 0.0382 0.30594 0.0254 0.0
O339 O 0.03387 0.30163 0.05332 0.0
N340 N 0.97147 0.31569 0.97918 0.0
C341 C 0.95962 0.3368 0.97496 0.0
C342 C 0.96649 0.34827 0.94708 0.0
C343 C 0.98505 0.31431 0.95394 0.0
N344 N 0.98227 0.33391 0.93382 0.0
C345 C 0.94561 0.326 0.04796 0.0
C346 C 1.00709 0.3844 0.04829 0.0
C347 C 0.97878 0.38558 0.05795 0.0
C348 C 0.94791 0.35548 0.05854 0.0
C349 C 1.0036 0.35454 0.0374 0.0
N350 N 0.973 0.32582 0.03679 0.0
H351 H 0.92102 0.30412 0.04633 0.0
H352 H 0.02528 0.3557 0.02747 0.0
H353 H 0.94596 0.34266 0.99062 0.0
H354 H 0.99517 0.29792 0.95009 0.0
O355 O 0.91703 0.26674 0.00669 0.0
O356 O 0.95045 0.25011 0.98772 0.0
O357 O 0.01441 0.30254 0.00915 0.0
C358 C 0.92059 0.24624 0.98965 0.0
H359 H 0.95688 0.19486 0.07545 0.0
H360 H 0.95981 0.36543 0.9373 0.0
H361 H 0.03164 0.40674 0.0478 0.0
H362 H 0.92509 0.35496 0.06518 0.0
Co363 Co 0.68411 0.96346 0.18077 0.0
C364 C 0.69151 0.93077 0.23282 0.0
C365 C 0.73748 0.97539 0.22261 0.0
C366 C 0.74346 0.95869 0.24433 0.0
N367 N 0.70467 0.95819 0.21558 0.0
N368 N 0.71452 0.93036 0.25068 0.0
H369 H 0.66611 0.91025 0.23086 0.0
H370 H 0.75658 0.99689 0.21115 0.0
C371 C 0.73632 0.03811 0.18963 0.0
O372 O 0.72773 0.03878 0.21647 0.0
N373 N 0.6635 0.96727 0.1461 0.0
C374 C 0.63026 0.95094 0.1407 0.0
C375 C 0.62554 0.95463 0.11206 0.0
C376 C 0.67863 0.98076 0.12088 0.0
N377 N 0.65593 0.97333 0.0998 0.0
C378 C 0.63267 0.95406 0.22138 0.0
C379 C 0.62916 0.0097 0.20423 0.0
C380 C 0.6045 0.98661 0.22289 0.0
C381 C 0.60705 0.95902 0.23217 0.0
C382 C 0.65461 1.00408 0.19431 0.0
N383 N 0.65594 0.97625 0.2025 0.0
H384 H 0.63216 0.93109 0.22666 0.0
H385 H 0.67163 0.02082 0.17817 0.0
H386 H 0.61094 0.93599 0.1562 0.0
H387 H 0.70553 0.99375 0.1176 0.0
O388 O 0.65456 0.91505 0.17825 0.0
O389 O 0.70538 0.94408 0.15908 0.0
O390 O 0.72121 0.01117 0.17498 0.0
C391 C 0.67808 0.91542 0.16221 0.0
H392 H 0.7679 0.96564 0.25298 0.0
H393 H 0.60175 0.94362 0.10086 0.0
H394 H 0.62797 0.03122 0.19639 0.0
H395 H 0.5881 0.94022 0.24611 0.0
C396 C 0.36576 0.15728 0.64264 0.0
C397 C 0.35455 0.12355 0.63684 0.0
C398 C 0.36886 0.17921 0.6202 0.0
C399 C 0.36122 0.16698 0.59155 0.0
C400 C 0.35239 0.13346 0.58562 0.0
C401 C 0.34872 0.1121 0.6084 0.0
C402 C 0.37802 0.21472 0.62737 0.0
C403 C 0.34451 0.1194 0.55548 0.0
C404 C 0.32025 0.20188 0.54294 0.0
C405 C 0.34691 0.22394 0.5252 0.0
C406 C 0.32486 0.18363 0.56467 0.0
C407 C 0.3569 0.18707 0.56867 0.0
C408 C 0.38379 0.20843 0.55026 0.0
C409 C 0.3785 0.22679 0.52872 0.0
C410 C 0.2954 0.16098 0.58366 0.0
C411 C 0.41814 0.21224 0.55365 0.0
H412 H 0.37031 0.16598 0.66471 0.0
H413 H 0.34041 0.08599 0.60399 0.0
H414 H 0.39743 0.23263 0.61231 0.0
H415 H 0.35554 0.21749 0.62495 0.0
H416 H 0.38745 0.22162 0.64973 0.0
H417 H 0.34328 0.09473 0.55397 0.0
H418 H 0.31989 0.11605 0.54874 0.0
H419 H 0.36366 0.13697 0.54006 0.0
H420 H 0.29571 0.19946 0.54035 0.0
H421 H 0.39926 0.24403 0.51524 0.0
H422 H 0.30166 0.16832 0.60652 0.0
H423 H 0.28979 0.13469 0.5816 0.0
H424 H 0.27236 0.16188 0.57818 0.0
H425 H 0.42839 0.2228 0.57515 0.0
H426 H 0.43605 0.22888 0.53698 0.0
H427 H 0.41637 0.18736 0.55241 0.0
C428 C 0.1309 0.31786 0.69594 0.0
C429 C 0.13298 0.34523 0.68096 0.0
C430 C 0.15423 0.32233 0.71718 0.0
C431 C 0.18073 0.35502 0.72337 0.0
C432 C 0.18417 0.38265 0.70723 0.0
C433 C 0.16005 0.37745 0.6862 0.0
C434 C 0.14969 0.29209 0.73374 0.0
C435 C 0.21255 0.41774 0.71288 0.0
C436 C 0.21452 0.3599 0.79858 0.0
C437 C 0.23946 0.35182 0.79297 0.0
C438 C 0.19645 0.36343 0.77579 0.0
C439 C 0.20431 0.35954 0.74701 0.0
C440 C 0.23154 0.35426 0.74143 0.0
C441 C 0.24843 0.34994 0.76453 0.0
C442 C 0.16734 0.36871 0.78258 0.0
C443 C 0.24134 0.35073 0.71117 0.0
H444 H 0.11013 0.29284 0.69188 0.0
H445 H 0.16161 0.39871 0.6748 0.0
H446 H 0.17241 0.28969 0.73157 0.0
H447 H 0.14632 0.29521 0.75694 0.0
H448 H 0.12766 0.2684 0.72623 0.0
H449 H 0.21374 0.43587 0.69652 0.0
H450 H 0.20919 0.42612 0.73436 0.0
H451 H 0.23692 0.41825 0.71312 0.0
H452 H 0.20783 0.36142 0.82066 0.0
H453 H 0.26819 0.34418 0.76033 0.0
H454 H 0.14342 0.34534 0.77791 0.0
H455 H 0.16817 0.38878 0.76883 0.0
H456 H 0.16713 0.37541 0.80549 0.0
H457 H 0.22266 0.32584 0.70249 0.0
H458 H 0.26648 0.35284 0.71036 0.0
H459 H 0.2415 0.37007 0.69686 0.0
C460 C 0.80612 0.15094 0.85487 0.0
C461 C 0.78607 0.11681 0.86099 0.0
C462 C 0.82496 0.17362 0.87682 0.0
C463 C 0.82272 0.16171 0.90536 0.0
C464 C 0.80039 0.12759 0.91176 0.0
C465 C 0.78272 0.10551 0.88941 0.0
C466 C 0.84878 0.2098 0.86918 0.0
C467 C 0.79663 0.11387 0.9419 0.0
C468 C 0.9004 0.20257 0.95181 0.0
C469 C 0.89381 0.22272 0.97019 0.0
C470 C 0.87761 0.18306 0.93048 0.0
C471 C 0.84714 0.18332 0.92756 0.0
C472 C 0.83982 0.20293 0.94648 0.0
C473 C 0.86338 0.22258 0.96759 0.0
C474 C 0.88634 0.16236 0.91086 0.0
C475 C 0.80733 0.20337 0.94419 0.0
H476 H 0.80835 0.15955 0.83285 0.0
H477 H 0.76652 0.0791 0.89416 0.0
H478 H 0.84608 0.22673 0.88453 0.0
H479 H 0.87502 0.21496 0.87076 0.0
H480 H 0.8446 0.21593 0.84702 0.0
H481 H 0.77462 0.08819 0.94395 0.0
H482 H 0.81952 0.11294 0.94775 0.0
H483 H 0.79388 0.13043 0.95764 0.0
H484 H 0.92388 0.20255 0.95364 0.0
H485 H 0.85829 0.23831 0.98161 0.0
H486 H 0.88574 0.16925 0.8881 0.0
H487 H 0.86749 0.13538 0.91329 0.0
H488 H 0.91158 0.16581 0.91543 0.0
H489 H 0.80553 0.21281 0.92271 0.0
H490 H 0.80512 0.21938 0.96091 0.0
H491 H 0.78569 0.17753 0.94627 0.0
C492 C 0.65831 0.80387 0.02666 0.0
C493 C 0.66549 0.77847 0.03295 0.0
C494 C 0.65538 0.82292 0.04899 0.0
C495 C 0.65898 0.8156 0.07801 0.0
C496 C 0.66359 0.78814 0.08427 0.0
C497 C 0.66731 0.77028 0.06163 0.0
C498 C 0.6508 0.85224 0.04147 0.0
C499 C 0.66685 0.77892 0.1148 0.0
C500 C 0.70038 0.88889 0.12934 0.0
C501 C 0.67288 0.88677 0.14425 0.0
C502 C 0.69602 0.86579 0.10789 0.0
C503 C 0.66331 0.83951 0.10134 0.0
C504 C 0.63549 0.8362 0.11722 0.0
C505 C 0.64058 0.86003 0.13851 0.0
C506 C 0.72646 0.87016 0.09165 0.0
C507 C 0.60034 0.80814 0.11113 0.0
H508 H 0.65685 0.81 0.0044 0.0
H509 H 0.67243 0.75024 0.06641 0.0
H510 H 0.63071 0.85202 0.05484 0.0
H511 H 0.67436 0.87599 0.04609 0.0
H512 H 0.64445 0.85219 0.01843 0.0
H513 H 0.66474 0.75385 0.11613 0.0
H514 H 0.69166 0.79777 0.12351 0.0
H515 H 0.64732 0.779 0.12876 0.0
H516 H 0.72544 0.90945 0.13372 0.0
H517 H 0.61921 0.85848 0.14978 0.0
H518 H 0.72361 0.87342 0.06838 0.0
H519 H 0.72874 0.84743 0.09405 0.0
H520 H 0.75012 0.89215 0.09926 0.0
H521 H 0.59275 0.81122 0.08923 0.0
H522 H 0.58181 0.80753 0.12682 0.0
H523 H 0.59944 0.78362 0.11165 0.0
C524 C 0.86107 0.65633 0.19267 0.0
C525 C 0.89425 0.66514 0.19852 0.0
C526 C 0.83909 0.65263 0.21528 0.0
C527 C 0.85064 0.65709 0.24413 0.0
C528 C 0.88336 0.66314 0.24997 0.0
C529 C 0.90491 0.66759 0.22705 0.0
C530 C 0.80446 0.64647 0.2082 0.0
C531 C 0.89647 0.66727 0.28034 0.0
C532 C 0.81796 0.69858 0.29452 0.0
C533 C 0.79316 0.67132 0.31006 0.0
C534 C 0.83682 0.69411 0.27324 0.0
C535 C 0.83115 0.66153 0.26751 0.0
C536 C 0.80732 0.634 0.28407 0.0
C537 C 0.7884 0.6392 0.30517 0.0
C538 C 0.86215 0.72426 0.25627 0.0
C539 C 0.8011 0.59902 0.27886 0.0
H540 H 0.85296 0.65425 0.17052 0.0
H541 H 0.93053 0.67381 0.23147 0.0
H542 H 0.78535 0.62643 0.22211 0.0
H543 H 0.80338 0.66963 0.21241 0.0
H544 H 0.79778 0.63929 0.18533 0.0
H545 H 0.92031 0.66669 0.28138 0.0
H546 H 0.90115 0.69164 0.28908 0.0
H547 H 0.87768 0.64724 0.29447 0.0
H548 H 0.82192 0.72353 0.29831 0.0
H549 H 0.76908 0.61802 0.31699 0.0
H550 H 0.85567 0.72052 0.23308 0.0
H551 H 0.88752 0.7273 0.25858 0.0
H552 H 0.86328 0.74784 0.26332 0.0
H553 H 0.78936 0.59018 0.25746 0.0
H554 H 0.78431 0.58101 0.2954 0.0
H555 H 0.82517 0.59893 0.2787 0.0
C556 C 0.24367 0.87023 0.36915 0.0
C557 C 0.22591 0.88034 0.35122 0.0
C558 C 0.22843 0.85043 0.39356 0.0
C559 C 0.19422 0.83934 0.39933 0.0
C560 C 0.17555 0.84739 0.37991 0.0
C561 C 0.1919 0.86858 0.35647 0.0
C562 C 0.24953 0.84355 0.41424 0.0
C563 C 0.1387 0.83504 0.3847 0.0
C564 C 0.14261 0.7689 0.45171 0.0
C565 C 0.13809 0.7865 0.47416 0.0
C566 C 0.16209 0.78582 0.42758 0.0
C567 C 0.17828 0.82124 0.42649 0.0
C568 C 0.1762 0.83921 0.45042 0.0
C569 C 0.1553 0.82152 0.4737 0.0
C570 C 0.16276 0.76563 0.40229 0.0
C571 C 0.19429 0.87705 0.45065 0.0
H572 H 0.27023 0.88002 0.3654 0.0
H573 H 0.17839 0.87687 0.34278 0.0
H574 H 0.25193 0.85677 0.4348 0.0
H575 H 0.23727 0.81639 0.41917 0.0
H576 H 0.27513 0.85206 0.40569 0.0
H577 H 0.12701 0.84009 0.3659 0.0
H578 H 0.12497 0.80768 0.38905 0.0
H579 H 0.13554 0.84766 0.40377 0.0
H580 H 0.12858 0.74174 0.45186 0.0
H581 H 0.1513 0.83498 0.49096 0.0
H582 H 0.18875 0.77572 0.39419 0.0
H583 H 0.14772 0.76746 0.38449 0.0
H584 H 0.15223 0.73874 0.40779 0.0
H585 H 0.22073 0.88751 0.44355 0.0
H586 H 0.19414 0.88712 0.47232 0.0
H587 H 0.18198 0.88599 0.43537 0.0
C588 C 0.27499 0.16468 0.39023 0.0
C589 C 0.30379 0.19414 0.39937 0.0
C590 C 0.27736 0.14044 0.37361 0.0
C591 C 0.30931 0.14529 0.36603 0.0
C592 C 0.33849 0.17511 0.37462 0.0
C593 C 0.3354 0.1992 0.39093 0.0
C594 C 0.24553 0.10912 0.36479 0.0
C595 C 0.37306 0.18121 0.36717 0.0
C596 C 0.31175 0.06513 0.35218 0.0
C597 C 0.31128 0.06342 0.32203 0.0
C598 C 0.31229 0.09214 0.36665 0.0
C599 C 0.31197 0.11814 0.35067 0.0
C600 C 0.3124 0.11707 0.32019 0.0
C601 C 0.31229 0.08984 0.30622 0.0
C602 C 0.31237 0.09237 0.39913 0.0
C603 C 0.3118 0.14411 0.30234 0.0
H604 H 0.25037 0.15992 0.39654 0.0
H605 H 0.35791 0.22194 0.39719 0.0
H606 H 0.24551 0.10527 0.34124 0.0
H607 H 0.24426 0.08696 0.37543 0.0
H608 H 0.22263 0.11014 0.37058 0.0
H609 H 0.39324 0.20629 0.37428 0.0
H610 H 0.37709 0.16181 0.37752 0.0
H611 H 0.37532 0.17907 0.34363 0.0
H612 H 0.31145 0.04509 0.36462 0.0
H613 H 0.31186 0.08869 0.28294 0.0
H614 H 0.28888 0.09069 0.40723 0.0
H615 H 0.3336 0.11626 0.40719 0.0
H616 H 0.31446 0.07123 0.40834 0.0
H617 H 0.28785 0.14387 0.30606 0.0
H618 H 0.31426 0.14077 0.27898 0.0
H619 H 0.33243 0.16915 0.30891 0.0
C620 C 0.23204 0.31344 0.46834 0.0
C621 C 0.25721 0.31355 0.48542 0.0
C622 C 0.20413 0.31344 0.48095 0.0
C623 C 0.20145 0.31377 0.51133 0.0
C624 C 0.22749 0.31524 0.52857 0.0
C625 C 0.25489 0.31503 0.51545 0.0
C626 C 0.17694 0.31187 0.46181 0.0
C627 C 0.22596 0.31596 0.561 0.0
C628 C 0.14148 0.33633 0.54869 0.0
C629 C 0.11508 0.30469 0.55701 0.0
C630 C 0.16926 0.33969 0.53308 0.0
C631 C 0.17073 0.31072 0.52535 0.0
C632 C 0.14369 0.27868 0.53279 0.0
C633 C 0.11634 0.27607 0.54852 0.0
C634 C 0.19751 0.37431 0.5256 0.0
C635 C 0.14417 0.2471 0.52499 0.0
H636 H 0.23356 0.31223 0.44516 0.0
H637 H 0.27434 0.31549 0.5289 0.0
H638 H 0.15341 0.28766 0.46513 0.0
H639 H 0.17157 0.3321 0.46751 0.0
H640 H 0.18384 0.31423 0.43868 0.0
H641 H 0.24916 0.31908 0.57125 0.0
H642 H 0.22208 0.33676 0.56811 0.0
H643 H 0.20429 0.29226 0.56892 0.0
H644 H 0.14063 0.35862 0.5546 0.0
H645 H 0.09649 0.25149 0.55494 0.0
H646 H 0.20303 0.37607 0.50224 0.0
H647 H 0.22066 0.37922 0.53708 0.0
H648 H 0.19163 0.3942 0.53147 0.0
H649 H 0.14892 0.24678 0.50164 0.0
H650 H 0.12023 0.22407 0.53051 0.0
H651 H 0.16491 0.24646 0.53657 0.0
C652 C 0.84266 0.10956 0.70894 0.0
C653 C 0.8222 0.11347 0.72919 0.0
C654 C 0.86595 0.13664 0.69208 0.0
C655 C 0.86887 0.16856 0.6953 0.0
C656 C 0.84731 0.1724 0.71476 0.0
C657 C 0.82437 0.14492 0.73149 0.0
C658 C 0.88845 0.13137 0.67167 0.0
C659 C 0.84948 0.20594 0.71888 0.0
C660 C 0.95471 0.24415 0.68012 0.0
C661 C 0.95092 0.25373 0.65229 0.0
C662 C 0.92817 0.21689 0.69431 0.0
C663 C 0.89668 0.19848 0.68053 0.0
C664 C 0.89232 0.20826 0.65267 0.0
C665 C 0.91952 0.23573 0.63884 0.0
C666 C 0.9341 0.2075 0.72397 0.0
C667 C 0.85902 0.18954 0.63743 0.0
H668 H 0.84084 0.08533 0.70654 0.0
H669 H 0.80908 0.14857 0.74717 0.0
H670 H 0.88751 0.14071 0.64991 0.0
H671 H 0.91484 0.14593 0.67918 0.0
H672 H 0.88138 0.10457 0.67001 0.0
H673 H 0.82857 0.204 0.73227 0.0
H674 H 0.87355 0.22352 0.72951 0.0
H675 H 0.84917 0.21701 0.69778 0.0
H676 H 0.97872 0.25779 0.69092 0.0
H677 H 0.91621 0.24293 0.61745 0.0
H678 H 0.93015 0.18169 0.72367 0.0
H679 H 0.91583 0.20768 0.73946 0.0
H680 H 0.95986 0.22483 0.73196 0.0
H681 H 0.85246 0.16314 0.63386 0.0
H682 H 0.85926 0.20098 0.61634 0.0
H683 H 0.83891 0.18903 0.651 0.0
C684 C 0.72071 0.94569 0.84472 0.0
C685 C 0.71321 0.94414 0.81528 0.0
C686 C 0.71884 0.91823 0.85936 0.0
C687 C 0.70899 0.88798 0.84438 0.0
C688 C 0.70085 0.88587 0.81475 0.0
C689 C 0.70328 0.91407 0.80046 0.0
C690 C 0.7281 0.92192 0.89085 0.0
C691 C 0.68977 0.85391 0.79815 0.0
C692 C 0.73986 0.83424 0.88013 0.0
C693 C 0.71249 0.81299 0.89769 0.0
C694 C 0.7384 0.85745 0.86145 0.0
C695 C 0.70868 0.85938 0.8599 0.0
C696 C 0.68023 0.8366 0.87617 0.0
C697 C 0.68249 0.81379 0.89492 0.0
C698 C 0.76942 0.88127 0.84465 0.0
C699 C 0.64794 0.83757 0.87502 0.0
H700 H 0.72875 0.96878 0.85646 0.0
H701 H 0.69731 0.91253 0.77779 0.0
H702 H 0.70697 0.90244 0.90365 0.0
H703 H 0.74994 0.91822 0.89401 0.0
H704 H 0.73457 0.94692 0.8995 0.0
H705 H 0.68277 0.85573 0.77565 0.0
H706 H 0.71025 0.84783 0.79777 0.0
H707 H 0.66791 0.83274 0.80895 0.0
H708 H 0.76289 0.83335 0.88152 0.0
H709 H 0.66118 0.79772 0.90834 0.0
H710 H 0.7796 0.90706 0.85316 0.0
H711 H 0.76314 0.88172 0.82171 0.0
H712 H 0.78937 0.87444 0.84599 0.0
H713 H 0.65142 0.86039 0.88616 0.0
H714 H 0.62683 0.81531 0.8855 0.0
H715 H 0.64101 0.83891 0.85243 0.0
C716 C 0.79428 0.71285 0.972 0.0
C717 C 0.76386 0.70359 0.98605 0.0
C718 C 0.82093 0.71241 0.98655 0.0
C719 C 0.817 0.70233 0.0158 0.0
C720 C 0.78568 0.69121 0.02953 0.0
C721 C 0.75963 0.69202 0.01456 0.0
C722 C 0.85387 0.72443 0.9711 0.0
C723 C 0.78015 0.68008 0.06059 0.0
C724 C 0.87996 0.68388 0.05322 0.0
C725 C 0.89981 0.71376 0.06847 0.0
C726 C 0.85332 0.67991 0.03557 0.0
C727 C 0.84635 0.70647 0.03293 0.0
C728 C 0.86656 0.73681 0.04788 0.0
C729 C 0.89281 0.74002 0.06545 0.0
C730 C 0.83229 0.6471 0.0201 0.0
C731 C 0.86001 0.76577 0.04583 0.0
H732 H 0.79784 0.72186 0.95003 0.0
H733 H 0.73613 0.68446 0.0256 0.0
H734 H 0.87312 0.74869 0.98039 0.0
H735 H 0.86288 0.70635 0.97405 0.0
H736 H 0.85186 0.72798 0.94771 0.0
H737 H 0.75337 0.6685 0.06706 0.0
H738 H 0.78869 0.66176 0.06448 0.0
H739 H 0.7952 0.70201 0.07467 0.0
H740 H 0.88524 0.66354 0.05504 0.0
H741 H 0.90734 0.76303 0.07736 0.0
H742 H 0.83198 0.6516 0.9967 0.0
H743 H 0.80595 0.63513 0.02782 0.0
H744 H 0.84169 0.62935 0.02345 0.0
H745 H 0.86008 0.77276 0.023 0.0
H746 H 0.87898 0.78825 0.05767 0.0
H747 H 0.83483 0.75823 0.05475 0.0
C748 C 0.16626 0.89892 0.2201 0.0
C749 C 0.19785 0.90242 0.22568 0.0
C750 C 0.14232 0.87243 0.20326 0.0
C751 C 0.14999 0.84866 0.19156 0.0
C752 C 0.18211 0.85246 0.19642 0.0
C753 C 0.2056 0.87922 0.21344 0.0
C754 C 0.10831 0.86922 0.19886 0.0
C755 C 0.19137 0.8278 0.18423 0.0
C756 C 0.07394 0.76285 0.17813 0.0
C757 C 0.06777 0.76426 0.14872 0.0
C758 C 0.1013 0.78957 0.192 0.0
C759 C 0.12338 0.8186 0.17614 0.0
C760 C 0.11833 0.81961 0.14616 0.0
C761 C 0.09056 0.79241 0.13278 0.0
C762 C 0.10564 0.78722 0.22396 0.0
C763 C 0.14146 0.84998 0.12845 0.0
H764 H 0.15969 0.91627 0.22969 0.0
H765 H 0.23004 0.88192 0.21729 0.0
H766 H 0.10231 0.8673 0.17561 0.0
H767 H 0.08868 0.84591 0.20928 0.0
H768 H 0.10694 0.8908 0.20795 0.0
H769 H 0.21811 0.8356 0.18814 0.0
H770 H 0.1754 0.8028 0.19415 0.0
H771 H 0.18661 0.82494 0.16075 0.0
H772 H 0.05682 0.74108 0.19065 0.0
H773 H 0.08608 0.79377 0.11009 0.0
H774 H 0.10202 0.80633 0.23537 0.0
H775 H 0.13147 0.79255 0.2287 0.0
H776 H 0.08752 0.76214 0.23281 0.0
H777 H 0.13846 0.8715 0.13499 0.0
H778 H 0.13622 0.84561 0.10506 0.0
H779 H 0.16802 0.85721 0.13235 0.0
C780 C 0.95969 0.72575 0.47926 0.0
C781 C 0.95613 0.71021 0.50607 0.0
C782 C 0.93246 0.72585 0.46579 0.0
C783 C 0.90054 0.70978 0.47921 0.0
C784 C 0.89661 0.69387 0.5062 0.0
C785 C 0.92447 0.69441 0.51938 0.0
C786 C 0.93796 0.7433 0.43713 0.0
C787 C 0.8629 0.67608 0.52103 0.0
C788 C 0.83959 0.73768 0.45368 0.0
C789 C 0.82091 0.71353 0.4327 0.0
C790 C 0.86482 0.73621 0.4696 0.0
C791 C 0.87148 0.70973 0.46474 0.0
C792 C 0.85195 0.68459 0.4444 0.0
C793 C 0.82711 0.68686 0.42858 0.0
C794 C 0.88514 0.76366 0.49095 0.0
C795 C 0.85807 0.65583 0.43859 0.0
H796 H 0.98398 0.73814 0.46872 0.0
H797 H 0.92137 0.68222 0.53999 0.0
H798 H 0.9215 0.72518 0.42061 0.0
H799 H 0.9311 0.76317 0.4387 0.0
H800 H 0.9644 0.75489 0.42966 0.0
H801 H 0.8639 0.6648 0.54185 0.0
H802 H 0.85375 0.69389 0.52502 0.0
H803 H 0.84424 0.65595 0.50695 0.0
H804 H 0.83477 0.75807 0.45751 0.0
H805 H 0.81339 0.66817 0.41232 0.0
H806 H 0.91171 0.77789 0.48378 0.0
H807 H 0.88479 0.75271 0.51227 0.0
H808 H 0.87565 0.78146 0.49345 0.0
H809 H 0.88307 0.66546 0.42842 0.0
H810 H 0.83878 0.6367 0.42416 0.0
H811 H 0.85824 0.64353 0.45905 0.0
C812 C 0.24008 0.95378 0.6547 0.0
C813 C 0.25325 0.94865 0.68021 0.0
C814 C 0.21368 0.92704 0.63998 0.0
C815 C 0.19978 0.89407 0.65092 0.0
C816 C 0.21261 0.88861 0.6768 0.0
C817 C 0.23915 0.91597 0.69119 0.0
C818 C 0.20084 0.93414 0.61251 0.0
C819 C 0.19861 0.8538 0.68905 0.0
C820 C 0.11239 0.83233 0.6231 0.0
C821 C 0.11949 0.81706 0.60012 0.0
C822 C 0.13811 0.85646 0.64049 0.0
C823 C 0.17191 0.86556 0.63498 0.0
C824 C 0.17919 0.84935 0.61255 0.0
C825 C 0.15297 0.82542 0.59538 0.0
C826 C 0.12921 0.87316 0.66411 0.0
C827 C 0.21485 0.85829 0.60589 0.0
H828 H 0.25051 0.97887 0.64601 0.0
H829 H 0.24918 0.91167 0.71077 0.0
H830 H 0.20396 0.92028 0.59438 0.0
H831 H 0.17362 0.92526 0.61452 0.0
H832 H 0.21416 0.96125 0.60702 0.0
H833 H 0.21093 0.85374 0.70955 0.0
H834 H 0.17125 0.84242 0.69292 0.0
H835 H 0.20199 0.83759 0.67334 0.0
H836 H 0.08664 0.82571 0.62729 0.0
H837 H 0.15899 0.81422 0.57758 0.0
H838 H 0.13979 0.90012 0.65896 0.0
H839 H 0.14041 0.8717 0.68477 0.0
H840 H 0.10164 0.86162 0.66701 0.0
H841 H 0.22899 0.88429 0.59748 0.0
H842 H 0.21608 0.84121 0.58969 0.0
H843 H 0.22772 0.85739 0.62574 0.0
C844 C 0.32706 0.25576 0.82026 0.0
C845 C 0.30644 0.24835 0.8446 0.0
C846 C 0.32953 0.23051 0.80543 0.0
C847 C 0.3102 0.19678 0.81466 0.0
C848 C 0.28962 0.18919 0.83945 0.0
C849 C 0.28834 0.21515 0.85435 0.0
C850 C 0.35247 0.23994 0.77962 0.0
C851 C 0.26803 0.1535 0.84962 0.0
C852 C 0.29162 0.12888 0.75884 0.0
C853 C 0.31337 0.11752 0.76739 0.0
C854 C 0.28994 0.15432 0.77426 0.0
C855 C 0.31134 0.16946 0.79823 0.0
C856 C 0.33401 0.15859 0.80639 0.0
C857 C 0.33437 0.13244 0.79115 0.0
C858 C 0.26489 0.16461 0.7652 0.0
C859 C 0.35808 0.17476 0.83109 0.0
H860 H 0.34111 0.28142 0.81261 0.0
H861 H 0.27196 0.20923 0.87286 0.0
H862 H 0.36998 0.23012 0.78214 0.0
H863 H 0.33749 0.22842 0.75995 0.0
H864 H 0.3674 0.26751 0.77636 0.0
H865 H 0.25339 0.15175 0.86921 0.0
H866 H 0.25028 0.1383 0.83235 0.0
H867 H 0.28386 0.1422 0.85433 0.0
H868 H 0.2753 0.11716 0.74056 0.0
H869 H 0.35148 0.12388 0.7975 0.0
H870 H 0.27815 0.19149 0.75909 0.0
H871 H 0.24806 0.16155 0.7835 0.0
H872 H 0.24931 0.14965 0.74674 0.0
H873 H 0.37373 0.20215 0.82733 0.0
H874 H 0.37492 0.16419 0.83406 0.0
H875 H 0.34392 0.17129 0.85132 0.0
C876 C 0.09119 0.30249 0.02456 0.0
C877 C 0.06981 0.31195 0.01133 0.0
C878 C 0.11792 0.30304 0.00921 0.0
C879 C 0.12355 0.31355 0.98006 0.0
C880 C 0.10329 0.3251 0.96725 0.0
C881 C 0.07672 0.32406 0.98296 0.0
C882 C 0.13882 0.29041 0.02366 0.0
C883 C 0.10839 0.33678 0.93635 0.0
C884 C 0.20344 0.33089 0.94016 0.0
C885 C 0.19224 0.30128 0.92414 0.0
C886 C 0.18167 0.33514 0.95884 0.0
C887 C 0.14792 0.30906 0.96193 0.0
C888 C 0.13666 0.27892 0.94636 0.0
C889 C 0.15874 0.27551 0.92765 0.0
C890 C 0.19459 0.36779 0.97485 0.0
C891 C 0.1009 0.25038 0.94896 0.0
H892 H 0.086 0.29301 0.0464 0.0
H893 H 0.06058 0.33178 0.97259 0.0
H894 H 0.13293 0.266 0.01409 0.0
H895 H 0.16595 0.30807 0.02006 0.0
H896 H 0.134 0.28689 0.04717 0.0
H897 H 0.09333 0.34873 0.9307 0.0
H898 H 0.13526 0.35492 0.93213 0.0
H899 H 0.1009 0.31504 0.92186 0.0
H900 H 0.22921 0.3509 0.93812 0.0
H901 H 0.14922 0.25266 0.91533 0.0
H902 H 0.19023 0.36298 0.99827 0.0
H903 H 0.1806 0.38042 0.96794 0.0
H904 H 0.2218 0.3851 0.97111 0.0
H905 H 0.09448 0.2433 0.97187 0.0
H906 H 0.09659 0.22783 0.93678 0.0
H907 H 0.08341 0.25843 0.94076 0.0
C908 C 0.78192 0.09922 0.18978 0.0
C909 C 0.7646 0.06819 0.17568 0.0
C910 C 0.80903 0.12719 0.17636 0.0
C911 C 0.8192 0.12401 0.14827 0.0
C912 C 0.80157 0.09284 0.13391 0.0
C913 C 0.77462 0.06551 0.14769 0.0
C914 C 0.82693 0.16009 0.19226 0.0
C915 C 0.81145 0.08811 0.10402 0.0
C916 C 0.87125 0.19759 0.09805 0.0
C917 C 0.90306 0.20039 0.0998 0.0
C918 C 0.84414 0.17411 0.11487 0.0
C919 C 0.84874 0.15269 0.13385 0.0
C920 C 0.8811 0.15643 0.13667 0.0
C921 C 0.90778 0.18023 0.11975 0.0
C922 C 0.81013 0.1711 0.11122 0.0
C923 C 0.88723 0.13415 0.15656 0.0
H924 H 0.77439 0.10167 0.21132 0.0
H925 H 0.7616 0.04178 0.13644 0.0
H926 H 0.85359 0.16736 0.19563 0.0
H927 H 0.82674 0.18018 0.17924 0.0
H928 H 0.8153 0.15889 0.2135 0.0
H929 H 0.79482 0.06241 0.09562 0.0
H930 H 0.81053 0.10631 0.08897 0.0
H931 H 0.83765 0.09302 0.10413 0.0
H932 H 0.86702 0.21269 0.08265 0.0
H933 H 0.93231 0.18256 0.12172 0.0
H934 H 0.79884 0.17041 0.13248 0.0
H935 H 0.79302 0.14726 0.10007 0.0
H936 H 0.81151 0.19214 0.09846 0.0
H937 H 0.87752 0.13417 0.1784 0.0
H938 H 0.91429 0.14209 0.1582 0.0
H939 H 0.87347 0.10796 0.14855 0.0
C940 C 0.73449 0.90874 0.29044 0.0
C941 C 0.71051 0.90317 0.26922 0.0
C942 C 0.73262 0.88218 0.30686 0.0
C943 C 0.70585 0.84909 0.30239 0.0
C944 C 0.68072 0.84343 0.282 0.0
C945 C 0.68343 0.87036 0.2656 0.0
C946 C 0.76013 0.88937 0.32818 0.0
C947 C 0.65157 0.80862 0.27666 0.0
C948 C 0.72169 0.77692 0.31687 0.0
C949 C 0.70675 0.76528 0.34397 0.0
C950 C 0.72162 0.8041 0.30334 0.0
C951 C 0.70587 0.82011 0.31694 0.0
C952 C 0.69041 0.80839 0.34417 0.0
C953 C 0.69124 0.78127 0.35747 0.0
C954 C 0.73869 0.81582 0.27447 0.0
C955 C 0.67283 0.82438 0.35913 0.0
H956 H 0.75514 0.93387 0.29402 0.0
H957 H 0.66476 0.86522 0.2493 0.0
H958 H 0.74922 0.87885 0.34955 0.0
H959 H 0.77433 0.87703 0.32103 0.0
H960 H 0.778 0.91665 0.33057 0.0
H961 H 0.63219 0.80886 0.2626 0.0
H962 H 0.66076 0.79307 0.26623 0.0
H963 H 0.63964 0.79632 0.2973 0.0
H964 H 0.73391 0.76497 0.30618 0.0
H965 H 0.67952 0.77243 0.3783 0.0
H966 H 0.75858 0.84257 0.27574 0.0
H967 H 0.72029 0.81391 0.25812 0.0
H968 H 0.75023 0.80097 0.26695 0.0
H969 H 0.6908 0.85131 0.36306 0.0
H970 H 0.66163 0.81212 0.38 0.0
H971 H 0.65264 0.82299 0.34517 0.0
C972 C 0.47783 0.41861 0.42372 0.0
C973 C 0.44648 0.41678 0.42622 0.0
C974 C 0.50719 0.44905 0.41754 0.0
C975 C 0.50556 0.47877 0.41455 0.0
C976 C 0.47412 0.47721 0.41679 0.0
C977 C 0.44499 0.44626 0.42212 0.0
C978 C 0.54009 0.44944 0.41462 0.0
C979 C 0.47132 0.5084 0.41414 0.0
C980 C 0.58682 0.5613 0.42699 0.0
C981 C 0.59661 0.57276 0.3988 0.0
C982 C 0.55684 0.53111 0.43247 0.0
C983 C 0.53678 0.5115 0.40916 0.0
C984 C 0.54683 0.52295 0.38064 0.0
C985 C 0.5764 0.55362 0.37584 0.0
C986 C 0.54664 0.52019 0.4632 0.0
C987 C 0.52677 0.50244 0.35516 0.0
H988 H 0.47978 0.39644 0.42736 0.0
H989 H 0.42102 0.44532 0.42334 0.0
H990 H 0.55232 0.46115 0.39389 0.0
H991 H 0.55742 0.4648 0.43204 0.0
H992 H 0.53682 0.42388 0.41566 0.0
H993 H 0.44513 0.5031 0.41697 0.0
H994 H 0.48741 0.52703 0.43053 0.0
H995 H 0.48051 0.52011 0.39275 0.0
H996 H 0.60251 0.57613 0.44471 0.0
H997 H 0.58428 0.56226 0.354 0.0
H998 H 0.54588 0.49608 0.46718 0.0
H999 H 0.521 0.51592 0.46718 0.0
H1000 H 0.56415 0.53899 0.47888 0.0
H1001 H 0.52497 0.47751 0.35562 0.0
H1002 H 0.53811 0.5148 0.33435 0.0
H1003 H 0.5008 0.49807 0.35627 0.0
C1004 C 0.06132 0.47445 0.5886 0.0
C1005 C 0.03189 0.44339 0.5927 0.0
C1006 C 0.06001 0.50359 0.58224 0.0
C1007 C 0.02855 0.50204 0.58057 0.0
C1008 C 0.99873 0.47091 0.58465 0.0
C1009 C 1.00073 0.44197 0.59034 0.0
C1010 C 0.09242 0.53616 0.57757 0.0
C1011 C 0.96469 0.46826 0.58336 0.0
C1012 C 0.03007 0.5849 0.59091 0.0
C1013 C 0.02788 0.59374 0.5625 0.0
C1014 C 0.02924 0.55461 0.5972 0.0
C1015 C 0.02698 0.53307 0.57446 0.0
C1016 C 0.02457 0.54185 0.54575 0.0
C1017 C 0.02475 0.57191 0.54016 0.0
C1018 C 0.03124 0.54588 0.62813 0.0
C1019 C 0.02289 0.52005 0.52084 0.0
H1020 H 0.08561 0.47632 0.59099 0.0
H1021 H 0.97776 0.41819 0.59299 0.0
H1022 H 0.09195 0.54707 0.55643 0.0
H1023 H 0.09526 0.55456 0.5943 0.0
H1024 H 0.11475 0.53289 0.57831 0.0
H1025 H 0.94391 0.44236 0.58756 0.0
H1026 H 0.96332 0.48534 0.59943 0.0
H1027 H 0.96084 0.47626 0.56189 0.0
H1028 H 0.03243 0.60171 0.60821 0.0
H1029 H 0.02362 0.57893 0.51812 0.0
H1030 H 0.05472 0.54516 0.63161 0.0
H1031 H 0.00997 0.52056 0.63322 0.0
H1032 H 0.03077 0.5642 0.64337 0.0
H1033 H 0.04606 0.51826 0.52023 0.0
H1034 H 0.0202 0.52997 0.49985 0.0
H1035 H 1.00142 0.49426 0.52363 0.0
C1036 C 0.59932 0.04608 0.73468 0.0
C1037 C 0.60109 0.02457 0.75515 0.0
C1038 C 0.56908 0.04569 0.7293 0.0
C1039 C 0.53947 0.02237 0.7439 0.0
C1040 C 0.54059 0.99948 0.76349 0.0
C1041 C 0.57139 1.00125 0.76926 0.0
C1042 C 0.56907 0.07097 0.70862 0.0
C1043 C 0.50937 0.97355 0.77886 0.0
C1044 C 0.46901 0.04223 0.75261 0.0
C1045 C 0.44817 0.02533 0.72911 0.0
C1046 C 0.49882 0.04163 0.75756 0.0
C1047 C 0.50753 0.0226 0.73927 0.0
C1048 C 0.48605 1.00433 0.71628 0.0
C1049 C 0.45709 0.00642 0.71114 0.0
C1050 C 0.5214 0.06203 0.782 0.0
C1051 C 0.49391 0.9829 0.6968 0.0
H1052 H 0.6217 0.06371 0.72308 0.0
H1053 H 0.57215 0.98488 0.78556 0.0
H1054 H 0.55111 0.05795 0.69089 0.0
H1055 H 0.56066 0.08671 0.71992 0.0
H1056 H 0.59428 0.08764 0.69919 0.0
H1057 H 0.51381 0.95552 0.79125 0.0
H1058 H 0.50047 0.9861 0.79393 0.0
H1059 H 0.48891 0.95936 0.76318 0.0
H1060 H 0.46228 0.0563 0.76713 0.0
H1061 H 0.44195 0.99379 0.69251 0.0
H1062 H 0.54672 0.08012 0.77356 0.0
H1063 H 0.52451 0.04541 0.79739 0.0
H1064 H 0.51146 0.07616 0.79383 0.0
H1065 H 0.51705 0.999 0.68431 0.0
H1066 H 0.47321 0.96796 0.68149 0.0
H1067 H 0.49867 0.96549 0.70978 0.0
C1068 C 0.54703 0.5923 0.90729 0.0
C1069 C 0.56963 0.59476 0.92873 0.0
C1070 C 0.51687 0.56212 0.90249 0.0
C1071 C 0.50924 0.53345 0.91921 0.0
C1072 C 0.53222 0.53548 0.94039 0.0
C1073 C 0.56188 0.56608 0.94506 0.0
C1074 C 0.49292 0.56104 0.8798 0.0
C1075 C 0.52526 0.50541 0.95843 0.0
C1076 C 0.41785 0.46407 0.92558 0.0
C1077 C 0.41578 0.44117 0.90461 0.0
C1078 C 0.44806 0.49413 0.9306 0.0
C1079 C 0.47716 0.50134 0.9146 0.0
C1080 C 0.47554 0.47801 0.89398 0.0
C1081 C 0.44491 0.44847 0.88906 0.0
C1082 C 0.4487 0.51847 0.95266 0.0
C1083 C 0.50606 0.48451 0.87672 0.0
H1084 H 0.5528 0.61405 0.8943 0.0
H1085 H 0.57858 0.56766 0.96215 0.0
H1086 H 0.48856 0.54175 0.86347 0.0
H1087 H 0.46826 0.55382 0.88974 0.0
H1088 H 0.50242 0.58554 0.86876 0.0
H1089 H 0.54633 0.51072 0.97317 0.0
H1090 H 0.50223 0.4973 0.97145 0.0
H1091 H 0.52066 0.48409 0.94434 0.0
H1092 H 0.39574 0.45865 0.93799 0.0
H1093 H 0.44368 0.43155 0.87231 0.0
H1094 H 0.45606 0.54287 0.94223 0.0
H1095 H 0.46775 0.52321 0.96936 0.0
H1096 H 0.42397 0.50917 0.96332 0.0
H1097 H 0.51446 0.50716 0.86318 0.0
H1098 H 0.50107 0.46311 0.86254 0.0
H1099 H 0.52709 0.48948 0.89133 0.0
C1100 C 1.00233 0.4473 0.049 0.0
C1101 C 0.98077 0.41828 0.06475 0.0
C1102 C 1.00332 0.47785 0.05399 0.0
C1103 C 0.98168 0.47944 0.07477 0.0
C1104 C 0.95985 0.45039 0.09076 0.0
C1105 C 0.95992 0.42032 0.0858 0.0
C1106 C 0.02739 0.50839 0.03683 0.0
C1107 C 0.93613 0.45096 0.11293 0.0
C1108 C 1.00208 0.56339 0.10696 0.0
C1109 C 0.98146 0.57185 0.09092 0.0
C1110 C 1.00293 0.53387 0.10148 0.0
C1111 C 0.98202 0.51158 0.07992 0.0
C1112 C 0.96122 0.51983 0.06356 0.0
C1113 C 0.96145 0.54998 0.06903 0.0
C1114 C 0.02592 0.5263 0.11909 0.0
C1115 C 0.93824 0.49651 0.04059 0.0
H1116 H 0.01802 0.4461 0.0322 0.0
H1117 H 0.9435 0.39835 0.09842 0.0
H1118 H 0.0132 0.51719 0.02368 0.0
H1119 H 0.04377 0.52914 0.05155 0.0
H1120 H 0.04353 0.50334 0.02229 0.0
H1121 H 0.92017 0.42605 0.12307 0.0
H1122 H 0.95053 0.46936 0.13002 0.0
H1123 H 0.91957 0.45911 0.10278 0.0
H1124 H 0.01705 0.57939 0.12444 0.0
H1125 H 0.94573 0.55627 0.05622 0.0
H1126 H 0.04233 0.52151 0.10472 0.0
H1127 H 0.01083 0.50327 0.132 0.0
H1128 H 0.04201 0.54711 0.13392 0.0
H1129 H 0.9531 0.49229 0.02403 0.0
H1130 H 0.92344 0.50644 0.02989 0.0
H1131 H 0.9206 0.47176 0.0502 0.0
C1132 C 0.45035 0.01675 0.26108 0.0
C1133 C 0.42037 0.98569 0.26228 0.0
C1134 C 0.48131 0.01876 0.25511 0.0
C1135 C 0.48241 0.98909 0.2496 0.0
C1136 C 0.45228 0.95776 0.25021 0.0
C1137 C 0.42183 0.95641 0.25685 0.0
C1138 C 0.51293 0.05262 0.25497 0.0
C1139 C 0.45221 0.92553 0.24407 0.0
C1140 C 0.55629 0.99405 0.20832 0.0
C1141 C 0.5745 0.98939 0.23022 0.0
C1142 C 0.52655 0.99443 0.21436 0.0
C1143 C 0.51496 0.99062 0.2431 0.0
C1144 C 0.53375 0.98678 0.26541 0.0
C1145 C 0.56308 0.98582 0.25866 0.0
C1146 C 0.50697 0.99784 0.18986 0.0
C1147 C 0.5226 0.98323 0.29638 0.0
H1148 H 0.4497 0.03962 0.26482 0.0
H1149 H 0.39922 0.93215 0.25837 0.0
H1150 H 0.53106 0.05287 0.27081 0.0
H1151 H 0.5251 0.0576 0.23354 0.0
H1152 H 0.50797 0.07327 0.26024 0.0
H1153 H 0.42648 0.90335 0.2442 0.0
H1154 H 0.46382 0.92704 0.22279 0.0
H1155 H 0.46747 0.92161 0.26039 0.0
H1156 H 0.56475 0.9963 0.18624 0.0
H1157 H 0.57718 0.98233 0.27563 0.0
H1158 H 0.5029 0.01929 0.19373 0.0
H1159 H 0.48185 0.97495 0.18852 0.0
H1160 H 0.51989 1.00158 0.16884 0.0
H1161 H 0.51878 1.00438 0.30248 0.0
H1162 H 0.54107 0.98261 0.31135 0.0
H1163 H 0.49818 0.9598 0.29916 0.0
C1164 C 0.34464 0.33152 0.73062 0.0
C1165 C 0.35234 0.36323 0.7409 0.0
C1166 C 0.34666 0.32601 0.70125 0.0
C1167 C 0.35724 0.35301 0.68175 0.0
C1168 C 0.36563 0.38519 0.69196 0.0
C1169 C 0.36288 0.38987 0.7214 0.0
C1170 C 0.33734 0.29127 0.69109 0.0
C1171 C 0.37743 0.41467 0.67177 0.0
C1172 C 0.39394 0.34733 0.61055 0.0
C1173 C 0.36724 0.33918 0.59159 0.0
C1174 C 0.39097 0.35189 0.63993 0.0
C1175 C 0.36042 0.34784 0.65072 0.0
C1176 C 0.33317 0.33922 0.63186 0.0
C1177 C 0.33696 0.33511 0.60246 0.0
C1178 C 0.42062 0.36119 0.6594 0.0
C1179 C 0.3001 0.33447 0.64274 0.0
H1180 H 0.33699 0.31091 0.74554 0.0
H1181 H 0.36839 0.4143 0.72897 0.0
H1182 H 0.31685 0.28241 0.67501 0.0
H1183 H 0.35914 0.29183 0.68032 0.0
H1184 H 0.32899 0.27285 0.70901 0.0
H1185 H 0.38338 0.43816 0.68322 0.0
H1186 H 0.4002 0.41874 0.66004 0.0
H1187 H 0.35782 0.40939 0.65548 0.0
H1188 H 0.41716 0.34981 0.60252 0.0
H1189 H 0.31634 0.32913 0.58793 0.0
H1190 H 0.41364 0.34189 0.67637 0.0
H1191 H 0.428 0.38529 0.67035 0.0
H1192 H 0.44272 0.36367 0.64753 0.0
H1193 H 0.2899 0.31493 0.65973 0.0
H1194 H 0.28115 0.32704 0.62536 0.0
H1195 H 0.30393 0.35805 0.6526 0.0
C1196 C 0.01176 0.32543 0.76563 0.0
C1197 C 0.03719 0.35682 0.75591 0.0
C1198 C 1.00321 0.31974 0.79488 0.0
C1199 C 0.02024 0.3462 0.81478 0.0
C1200 C 0.04632 0.37771 0.80522 0.0
C1201 C 0.05462 0.38254 0.77597 0.0
C1202 C 0.97549 0.28567 0.80439 0.0
C1203 C 0.06493 0.4066 0.8258 0.0
C1204 C 0.97571 0.3461 0.88334 0.0
C1205 C 0.99167 0.33666 0.90393 0.0
C1206 C 0.98453 0.34891 0.85422 0.0
C1207 C 1.00968 0.3417 0.84537 0.0
C1208 C 0.02558 0.33163 0.86588 0.0
C1209 C 0.01654 0.32946 0.89495 0.0
C1210 C 0.96721 0.36 0.83297 0.0
C1211 C 0.05237 0.32353 0.85718 0.0
H1212 H 0.99799 0.30547 0.75034 0.0
H1213 H 0.07483 0.40661 0.76887 0.0
H1214 H 0.9844 0.27603 0.82216 0.0
H1215 H 0.95401 0.28773 0.81276 0.0
H1216 H 0.96639 0.26713 0.78657 0.0
H1217 H 0.08522 0.42923 0.81502 0.0
H1218 H 0.04713 0.41327 0.83579 0.0
H1219 H 0.07616 0.39924 0.84342 0.0
H1220 H 0.95603 0.35107 0.88987 0.0
H1221 H 0.02931 0.32252 0.91068 0.0
H1222 H 0.95495 0.34081 0.81593 0.0
H1223 H 0.98599 0.38356 0.8223 0.0
H1224 H 0.94792 0.36432 0.84333 0.0
H1225 H 0.04286 0.30442 0.83987 0.0
H1226 H 0.06074 0.31404 0.87548 0.0
H1227 H 0.07447 0.3463 0.84844 0.0
C1228 C 0.70284 0.01194 0.93353 0.0
C1229 C 0.67946 0.01904 0.92064 0.0
C1230 C 0.70082 1.00402 0.96283 0.0
C1231 C 0.67529 1.00394 0.97983 0.0
C1232 C 0.6518 0.01131 0.96715 0.0
C1233 C 0.65393 0.01837 0.93768 0.0
C1234 C 0.72598 0.99573 0.97557 0.0
C1235 C 0.6244 0.0118 0.98473 0.0
C1236 C 0.64595 0.95528 0.04951 0.0
C1237 C 0.66264 0.98068 0.06983 0.0
C1238 C 0.65106 0.96225 0.02005 0.0
C1239 C 0.67263 0.99563 0.01086 0.0
C1240 C 0.69012 0.02127 0.0314 0.0
C1241 C 0.68522 0.01334 0.06077 0.0
C1242 C 0.63288 0.93403 0.9988 0.0
C1243 C 0.7129 0.05724 0.02241 0.0
H1244 H 0.72308 0.01291 0.92095 0.0
H1245 H 0.63543 0.02326 0.92803 0.0
H1246 H 0.74106 0.01442 0.99227 0.0
H1247 H 0.71272 0.97084 0.98623 0.0
H1248 H 0.74334 0.9954 0.95912 0.0
H1249 H 0.60902 0.01942 0.97184 0.0
H1250 H 0.60758 0.98655 0.99386 0.0
H1251 H 0.63556 0.0294 0.00305 0.0
H1252 H 0.62897 0.92993 0.05678 0.0
H1253 H 0.69799 0.0328 0.07674 0.0
H1254 H 0.65083 0.93402 0.98284 0.0
H1255 H 0.61416 0.93772 0.98679 0.0
H1256 H 0.61965 0.90912 0.00947 0.0
H1257 H 0.73196 0.05897 0.0068 0.0
H1258 H 0.72605 0.07379 0.04099 0.0
H1259 H 0.69792 0.06678 0.01146 0.0
C1260 C 0.68416 0.67495 0.10053 0.0
C1261 C 0.6526 0.66856 0.09089 0.0
C1262 C 0.69038 0.6736 0.12983 0.0
C1263 C 0.66424 0.66512 0.14993 0.0
C1264 C 0.63229 0.65848 0.14042 0.0
C1265 C 0.62691 0.66046 0.11102 0.0
C1266 C 0.72485 0.68103 0.13923 0.0
C1267 C 0.60372 0.64905 0.16128 0.0
C1268 C 0.66869 0.62733 0.22081 0.0
C1269 C 0.67875 0.65438 0.23979 0.0
C1270 C 0.6639 0.63055 0.19155 0.0
C1271 C 0.66982 0.66175 0.18083 0.0
C1272 C 0.68054 0.68939 0.19963 0.0
C1273 C 0.68471 0.68532 0.22896 0.0
C1274 C 0.65226 0.60045 0.17213 0.0
C1275 C 0.68741 0.72316 0.18879 0.0
H1276 H 0.70402 0.68081 0.08513 0.0
H1277 H 0.60267 0.65611 0.10391 0.0
H1278 H 0.73488 0.70105 0.15578 0.0
H1279 H 0.72323 0.65839 0.14918 0.0
H1280 H 0.74294 0.68909 0.12104 0.0
H1281 H 0.58046 0.64488 0.15039 0.0
H1282 H 0.59814 0.62581 0.17296 0.0
H1283 H 0.61097 0.66909 0.17756 0.0
H1284 H 0.66476 0.60355 0.22872 0.0
H1285 H 0.69219 0.70627 0.24343 0.0
H1286 H 0.67088 0.6061 0.15475 0.0
H1287 H 0.62822 0.59451 0.16172 0.0
H1288 H 0.64855 0.57788 0.18394 0.0
H1289 H 0.70648 0.73202 0.17138 0.0
H1290 H 0.69654 0.74236 0.20607 0.0
H1291 H 0.66422 0.72097 0.17948 0.0
C1292 C 0.96626 0.63514 0.27557 0.0
C1293 C 0.99054 0.65381 0.25477 0.0
C1294 C 0.97363 0.64112 0.30492 0.0
C1295 C 1.00631 0.66581 0.31351 0.0
C1296 C 0.03084 0.68495 0.2925 0.0
C1297 C 0.02247 0.67895 0.2633 0.0
C1298 C 0.94654 0.62093 0.3267 0.0
C1299 C 0.06608 0.71117 0.30084 0.0
C1300 C 0.02199 0.69879 0.39003 0.0
C1301 C 0.03386 0.67915 0.40306 0.0
C1302 C 0.0124 0.6944 0.36101 0.0
C1303 C 0.01537 0.6703 0.34441 0.0
C1304 C 0.02718 0.65037 0.35727 0.0
C1305 C 0.03585 0.65473 0.38641 0.0
C1306 C 0.99929 0.71569 0.34806 0.0
C1307 C 0.03089 0.62452 0.34015 0.0
H1308 H 0.94131 0.61631 0.26879 0.0
H1309 H 0.04104 0.69339 0.24702 0.0
H1310 H 0.95368 0.60514 0.33946 0.0
H1311 H 0.94376 0.63792 0.34193 0.0
H1312 H 0.92185 0.60441 0.31643 0.0
H1313 H 0.08188 0.72442 0.28186 0.0
H1314 H 0.06545 0.72996 0.31535 0.0
H1315 H 0.07816 0.69921 0.31283 0.0
H1316 H 0.02038 0.71788 0.40225 0.0
H1317 H 0.04418 0.63879 0.39599 0.0
H1318 H 0.97454 0.6995 0.33781 0.0
H1319 H 0.01665 0.73199 0.33099 0.0
H1320 H 0.9965 0.73181 0.36431 0.0
H1321 H 1.00615 0.60541 0.33151 0.0
H1322 H 0.04121 0.61158 0.35321 0.0
H1323 H 0.04777 0.63665 0.3215 0.0
C1324 C 0.37102 0.01233 0.55503 0.0
C1325 C 0.34739 0.01366 0.57329 0.0
C1326 C 0.36343 1.00238 0.52633 0.0
C1327 C 0.33101 0.99248 0.51569 0.0
C1328 C 0.30638 0.99202 0.53422 0.0
C1329 C 0.31497 1.00302 0.56271 0.0
C1330 C 0.39049 1.00338 0.50716 0.0
C1331 C 0.27125 0.98074 0.52378 0.0
C1332 C 0.32807 1.00265 0.43526 0.0
C1333 C 0.32049 0.97089 0.4256 0.0
C1334 C 0.33023 0.00972 0.46472 0.0
C1335 C 0.32378 0.98405 0.48481 0.0
C1336 C 0.31395 0.95131 0.47505 0.0
C1337 C 0.31294 0.94525 0.44545 0.0
C1338 C 0.34122 0.04506 0.47428 0.0
C1339 C 0.30569 0.92302 0.49582 0.0
H1340 H 0.39577 0.01944 0.56297 0.0
H1341 H 0.29639 1.00393 0.57635 0.0
H1342 H 0.3821 0.97817 0.49804 0.0
H1343 H 0.39532 0.02069 0.48886 0.0
H1344 H 0.41447 0.0118 0.51879 0.0
H1345 H 0.25387 0.97728 0.54177 0.0
H1346 H 0.27177 0.99971 0.50879 0.0
H1347 H 0.26109 0.9568 0.51178 0.0
H1348 H 0.33375 0.02228 0.41967 0.0
H1349 H 0.30636 0.92052 0.43772 0.0
H1350 H 0.36607 0.05599 0.48493 0.0
H1351 H 0.32329 0.04503 0.49026 0.0
H1352 H 0.34322 0.06152 0.45602 0.0
H1353 H 0.329 0.92715 0.50649 0.0
H1354 H 0.29387 0.89828 0.48488 0.0
H1355 H 0.28846 0.92232 0.51289 0.0
loop_
_geom_bond_atom_site_label_1
_geom_bond_atom_site_label_2
_geom_bond_distance
_geom_bond_site_symmetry_2
_ccdc_geom_bond_type
Co0 N4 2.148 . S
Co0 N10 2.128 . S
Co0 N20 2.194 . S
Co0 O25 2.351 . S
Co0 O26 2.155 . S
Co0 O27 2.096 . S
C1 N4 1.301 . S
C1 N5 1.328 . S
C1 H6 0.930 . S
C2 C3 1.333 . S
C2 N4 1.317 . S
C2 H7 0.930 . S
C3 C2 1.333 . S
C3 N5 1.350 . S
C3 H29 0.931 . S
N4 Co0 2.148 . S
N4 C1 1.301 . S
N4 C2 1.317 . S
N5 C1 1.328 . S
N5 C3 1.350 . S
H6 C1 0.930 . S
H7 C2 0.930 . S
C8 O9 1.224 . S
C8 O27 1.247 . S
O9 C8 1.224 . S
N10 Co0 2.128 . S
N10 C11 1.355 . S
N10 C13 1.311 . S
C11 N10 1.355 . S
C11 C12 1.363 . S
C11 H23 0.929 . S
C12 C11 1.363 . S
C12 N14 1.375 . S
C12 H30 0.931 . S
C13 N10 1.311 . S
C13 N14 1.347 . S
C13 H24 0.929 . S
N14 C12 1.375 . S
N14 C13 1.347 . S
C15 C18 1.365 . S
C15 N20 1.328 . S
C15 H21 0.929 . S
C16 C17 1.362 . S
C16 C19 1.378 . S
C16 H31 0.929 . S
C17 C16 1.362 . S
C17 C18 1.366 . S
C18 C15 1.365 . S
C18 C17 1.366 . S
C18 H32 0.930 . S
C19 C16 1.378 . S
C19 N20 1.315 . S
C19 H22 0.930 . S
N20 Co0 2.194 . S
N20 C15 1.328 . S
N20 C19 1.315 . S
H21 C15 0.929 . S
H22 C19 0.930 . S
H23 C11 0.929 . S
H24 C13 0.929 . S
O25 Co0 2.351 . S
O25 C28 1.244 . S
O26 Co0 2.155 . S
O26 C28 1.240 . S
O27 Co0 2.096 . S
O27 C8 1.247 . S
C28 O25 1.244 . S
C28 O26 1.240 . S
H29 C3 0.931 . S
H30 C12 0.931 . S
H31 C16 0.929 . S
H32 C18 0.930 . S
Co33 N37 2.148 . S
Co33 N43 2.128 . S
Co33 N53 2.194 . S
Co33 O58 2.351 . S
Co33 O59 2.155 . S
Co33 O60 2.096 . S
C34 N37 1.301 . S
C34 N38 1.328 . S
C34 H39 0.930 . S
C35 C36 1.333 . S
C35 N37 1.317 . S
C35 H40 0.930 . S
C36 C35 1.333 . S
C36 N38 1.350 . S
C36 H62 0.931 . S
N37 Co33 2.148 . S
N37 C34 1.301 . S
N37 C35 1.317 . S
N38 C34 1.328 . S
N38 C36 1.350 . S
H39 C34 0.930 . S
H40 C35 0.930 . S
C41 O42 1.224 . S
C41 O60 1.247 1_655 S
O42 C41 1.224 . S
N43 Co33 2.128 . S
N43 C44 1.355 . S
N43 C46 1.311 . S
C44 N43 1.355 . S
C44 C45 1.363 . S
C44 H56 0.929 . S
C45 C44 1.363 . S
C45 N47 1.375 . S
C45 H63 0.931 . S
C46 N43 1.311 . S
C46 N47 1.347 . S
C46 H57 0.929 . S
N47 C45 1.375 . S
N47 C46 1.347 . S
C48 C51 1.365 . S
C48 N53 1.328 . S
C48 H54 0.929 . S
C49 C50 1.362 . S
C49 C52 1.378 . S
C49 H64 0.929 . S
C50 C49 1.362 . S
C50 C51 1.366 . S
C51 C48 1.365 . S
C51 C50 1.366 . S
C51 H65 0.930 . S
C52 C49 1.378 . S
C52 N53 1.315 . S
C52 H55 0.930 . S
N53 Co33 2.194 . S
N53 C48 1.328 . S
N53 C52 1.315 . S
H54 C48 0.929 . S
H55 C52 0.930 . S
H56 C44 0.929 . S
H57 C46 0.929 . S
O58 Co33 2.351 . S
O58 C61 1.244 . S
O59 Co33 2.155 . S
O59 C61 1.240 . S
O60 Co33 2.096 . S
O60 C41 1.247 1_455 S
C61 O58 1.244 . S
C61 O59 1.240 . S
H62 C36 0.931 . S
H63 C45 0.931 . S
H64 C49 0.929 . S
H65 C51 0.930 . S
Co66 N70 2.148 . S
Co66 N76 2.128 . S
Co66 N86 2.194 . S
Co66 O91 2.351 . S
Co66 O92 2.155 . S
Co66 O93 2.096 . S
C67 N70 1.301 . S
C67 N71 1.328 . S
C67 H72 0.930 . S
C68 C69 1.333 . S
C68 N70 1.317 . S
C68 H73 0.930 . S
C69 C68 1.333 . S
C69 N71 1.350 . S
C69 H95 0.931 . S
N70 Co66 2.148 . S
N70 C67 1.301 . S
N70 C68 1.317 . S
N71 C67 1.328 . S
N71 C69 1.350 . S
H72 C67 0.930 . S
H73 C68 0.930 . S
C74 O75 1.224 . S
C74 O93 1.247 1_565 S
O75 C74 1.224 . S
N76 Co66 2.128 . S
N76 C77 1.355 . S
N76 C79 1.311 . S
C77 N76 1.355 . S
C77 C78 1.363 . S
C77 H89 0.929 . S
C78 C77 1.363 . S
C78 N80 1.375 . S
C78 H96 0.931 . S
C79 N76 1.311 . S
C79 N80 1.347 . S
C79 H90 0.968 . S
N80 C78 1.375 . S
N80 C79 1.347 . S
C81 C84 1.365 . S
C81 N86 1.328 . S
C81 H87 0.929 . S
C82 C83 1.362 . S
C82 C85 1.378 . S
C82 H97 0.929 . S
C83 C82 1.362 . S
C83 C84 1.366 . S
C84 C81 1.365 . S
C84 C83 1.366 . S
C84 H98 0.930 . S
C85 C82 1.378 . S
C85 N86 1.315 . S
C85 H88 0.930 . S
N86 Co66 2.194 . S
N86 C81 1.328 . S
N86 C85 1.315 . S
H87 C81 0.929 . S
H88 C85 0.930 . S
H89 C77 0.929 . S
H90 C79 0.968 . S
O91 Co66 2.351 . S
O91 C94 1.244 . S
O92 Co66 2.155 . S
O92 C94 1.240 . S
O93 Co66 2.096 . S
O93 C74 1.247 1_545 S
C94 O91 1.244 . S
C94 O92 1.240 . S
H95 C69 0.931 . S
H96 C78 0.931 . S
H97 C82 0.929 . S
H98 C84 0.930 . S
Co99 N103 2.148 1_554 S
Co99 N109 2.128 . S
Co99 N119 2.194 1_554 S
Co99 O124 2.351 . S
Co99 O125 2.154 . S
Co99 O126 2.095 . S
C100 N103 1.301 . S
C100 N104 1.328 . S
C100 H105 0.930 . S
C101 C102 1.333 . S
C101 N103 1.317 . S
C101 H106 0.930 . S
C102 C101 1.333 . S
C102 N104 1.350 . S
C102 H128 0.931 . S
N103 Co99 2.148 1_556 S
N103 C100 1.301 . S
N103 C101 1.317 . S
N104 C100 1.328 . S
N104 C102 1.350 . S
H105 C100 0.930 . S
H106 C101 0.930 . S
C107 O108 1.224 . S
C107 O126 1.247 1_556 S
O108 C107 1.224 . S
N109 Co99 2.128 . S
N109 C110 1.355 . S
N109 C112 1.311 . S
C110 N109 1.355 . S
C110 C111 1.363 . S
C110 H122 0.929 . S
C111 C110 1.363 . S
C111 N113 1.375 . S
C111 H129 0.931 . S
C112 N109 1.311 . S
C112 N113 1.347 . S
C112 H123 0.929 . S
N113 C111 1.375 . S
N113 C112 1.347 . S
C114 C117 1.365 . S
C114 N119 1.328 . S
C114 H120 0.929 . S
C115 C116 1.362 . S
C115 C118 1.378 . S
C115 H130 0.929 . S
C116 C115 1.362 . S
C116 C117 1.366 . S
C117 C114 1.365 . S
C117 C116 1.366 . S
C117 H131 0.930 . S
C118 C115 1.378 . S
C118 N119 1.315 . S
C118 H121 0.930 . S
N119 Co99 2.194 1_556 S
N119 C114 1.328 . S
N119 C118 1.315 . S
H120 C114 0.929 . S
H121 C118 0.930 . S
H122 C110 0.929 . S
H123 C112 0.929 . S
O124 Co99 2.351 . S
O124 C127 1.244 . S
O125 Co99 2.154 . S
O125 C127 1.240 . S
O126 Co99 2.095 . S
O126 C107 1.247 1_554 S
C127 O124 1.244 . S
C127 O125 1.240 . S
H128 C102 0.931 . S
H129 C111 0.931 . S
H130 C115 0.929 . S
H131 C117 0.930 . S
Co132 N136 2.148 . S
Co132 N142 2.128 . S
Co132 N152 2.194 . S
Co132 O157 2.351 . S
Co132 O158 2.155 . S
Co132 O159 2.096 . S
C133 N136 1.301 . S
C133 N137 1.328 . S
C133 H138 0.930 . S
C134 C135 1.333 . S
C134 N136 1.317 . S
C134 H139 0.930 . S
C135 C134 1.333 . S
C135 N137 1.350 . S
C135 H161 0.931 . S
N136 Co132 2.148 . S
N136 C133 1.301 . S
N136 C134 1.317 . S
N137 C133 1.328 . S
N137 C135 1.350 . S
H138 C133 0.930 . S
H139 C134 0.930 . S
C140 O141 1.224 . S
C140 O159 1.247 1_455 S
O141 C140 1.224 . S
N142 Co132 2.128 . S
N142 C143 1.355 . S
N142 C145 1.311 . S
C143 N142 1.355 . S
C143 C144 1.363 . S
C143 H155 0.929 . S
C144 C143 1.363 . S
C144 N146 1.375 . S
C144 H162 0.931 . S
C145 N142 1.311 . S
C145 N146 1.347 . S
C145 H156 0.935 . S
N146 C144 1.375 . S
N146 C145 1.347 . S
C147 C150 1.365 . S
C147 N152 1.328 . S
C147 H153 0.929 . S
C148 C149 1.362 . S
C148 C151 1.378 . S
C148 H163 0.929 . S
C149 C148 1.362 . S
C149 C150 1.366 . S
C150 C147 1.365 . S
C150 C149 1.366 . S
C150 H164 0.930 . S
C151 C148 1.378 . S
C151 N152 1.315 . S
C151 H154 0.930 . S
N152 Co132 2.194 . S
N152 C147 1.328 . S
N152 C151 1.315 . S
H153 C147 0.929 . S
H154 C151 0.930 . S
H155 C143 0.929 . S
H156 C145 0.935 . S
O157 Co132 2.351 . S
O157 C160 1.244 . S
O158 Co132 2.155 . S
O158 C160 1.240 . S
O159 Co132 2.096 . S
O159 C140 1.247 1_655 S
C160 O157 1.244 . S
C160 O158 1.240 . S
H161 C135 0.931 . S
H162 C144 0.931 . S
H163 C148 0.929 . S
H164 C150 0.930 . S
Co165 N169 2.148 . S
Co165 N175 2.128 . S
Co165 N185 2.194 . S
Co165 O190 2.351 . S
Co165 O191 2.155 . S
Co165 O192 2.096 . S
C166 N169 1.301 . S
C166 N170 1.328 . S
C166 H171 0.930 . S
C167 C168 1.333 . S
C167 N169 1.317 . S
C167 H172 0.930 . S
C168 C167 1.333 . S
C168 N170 1.350 . S
C168 H194 0.931 . S
N169 Co165 2.148 . S
N169 C166 1.301 . S
N169 C167 1.317 . S
N170 C166 1.328 . S
N170 C168 1.350 . S
H171 C166 0.930 . S
H172 C167 0.930 . S
C173 O174 1.224 . S
C173 O192 1.247 1_545 S
O174 C173 1.224 . S
N175 Co165 2.128 . S
N175 C176 1.355 . S
N175 C178 1.311 . S
C176 N175 1.355 . S
C176 C177 1.363 . S
C176 H188 0.929 . S
C177 C176 1.363 . S
C177 N179 1.375 . S
C177 H195 0.931 . S
C178 N175 1.311 . S
C178 N179 1.347 . S
C178 H189 0.968 . S
N179 C177 1.375 . S
N179 C178 1.347 . S
C180 C183 1.365 . S
C180 N185 1.328 . S
C180 H186 0.929 . S
C181 C182 1.362 . S
C181 C184 1.378 . S
C181 H196 0.929 . S
C182 C181 1.362 . S
C182 C183 1.366 . S
C183 C180 1.365 . S
C183 C182 1.366 . S
C183 H197 0.930 . S
C184 C181 1.378 . S
C184 N185 1.315 . S
C184 H187 0.930 . S
N185 Co165 2.194 . S
N185 C180 1.328 . S
N185 C184 1.315 . S
H186 C180 0.929 . S
H187 C184 0.930 . S
H188 C176 0.929 . S
H189 C178 0.968 . S
O190 Co165 2.351 . S
O190 C193 1.244 . S
O191 Co165 2.155 . S
O191 C193 1.240 . S
O192 Co165 2.096 . S
O192 C173 1.247 1_565 S
C193 O190 1.244 . S
C193 O191 1.240 . S
H194 C168 0.931 . S
H195 C177 0.931 . S
H196 C181 0.929 . S
H197 C183 0.930 . S
Co198 N202 2.148 . S
Co198 N208 2.128 . S
Co198 N218 2.194 . S
Co198 O223 2.351 . S
Co198 O224 2.155 . S
Co198 O225 2.096 . S
C199 N202 1.301 . S
C199 N203 1.328 . S
C199 H204 0.930 . S
C200 C201 1.333 . S
C200 N202 1.317 . S
C200 H205 0.930 . S
C201 C200 1.333 . S
C201 N203 1.350 . S
C201 H227 0.931 . S
N202 Co198 2.148 . S
N202 C199 1.301 . S
N202 C200 1.317 . S
N203 C199 1.328 . S
N203 C201 1.350 . S
H204 C199 0.930 . S
H205 C200 0.930 . S
C206 O207 1.224 . S
C206 O225 1.247 . S
O207 C206 1.224 . S
N208 Co198 2.128 . S
N208 C209 1.355 . S
N208 C211 1.311 . S
C209 N208 1.355 . S
C209 C210 1.363 . S
C209 H221 0.929 . S
C210 C209 1.363 . S
C210 N212 1.375 . S
C210 H228 0.931 . S
C211 N208 1.311 . S
C211 N212 1.347 . S
C211 H222 0.929 . S
N212 C210 1.375 . S
N212 C211 1.347 . S
C213 C216 1.365 . S
C213 N218 1.328 . S
C213 H219 0.929 . S
C214 C215 1.362 . S
C214 C217 1.378 . S
C214 H229 0.929 . S
C215 C214 1.362 . S
C215 C216 1.366 . S
C216 C213 1.365 . S
C216 C215 1.366 . S
C216 H230 0.930 . S
C217 C214 1.378 . S
C217 N218 1.315 . S
C217 H220 0.930 . S
N218 Co198 2.194 . S
N218 C213 1.328 . S
N218 C217 1.315 . S
H219 C213 0.929 . S
H220 C217 0.930 . S
H221 C209 0.929 . S
H222 C211 0.929 . S
O223 Co198 2.351 . S
O223 C226 1.244 . S
O224 Co198 2.155 . S
O224 C226 1.240 . S
O225 Co198 2.096 . S
O225 C206 1.247 . S
C226 O223 1.244 . S
C226 O224 1.240 . S
H227 C201 0.931 . S
H228 C210 0.931 . S
H229 C214 0.929 . S
H230 C216 0.930 . S
Co231 N235 2.148 . S
Co231 N241 2.128 . S
Co231 N251 2.194 . S
Co231 O256 2.351 . S
Co231 O257 2.155 . S
Co231 O258 2.096 . S
C232 N235 1.301 . S
C232 N236 1.328 . S
C232 H237 0.930 . S
C233 C234 1.333 . S
C233 N235 1.317 . S
C233 H238 0.930 . S
C234 C233 1.333 . S
C234 N236 1.350 . S
C234 H260 0.931 . S
N235 Co231 2.148 . S
N235 C232 1.301 . S
N235 C233 1.317 . S
N236 C232 1.328 . S
N236 C234 1.350 . S
H237 C232 0.930 . S
H238 C233 0.930 . S
C239 O240 1.224 . S
C239 O258 1.247 1_655 S
O240 C239 1.224 . S
N241 Co231 2.128 . S
N241 C242 1.355 . S
N241 C244 1.311 . S
C242 N241 1.355 . S
C242 C243 1.363 . S
C242 H254 0.929 . S
C243 C242 1.363 . S
C243 N245 1.375 . S
C243 H261 0.931 . S
C244 N241 1.311 . S
C244 N245 1.347 . S
C244 H255 0.967 . S
N245 C243 1.375 . S
N245 C244 1.347 . S
C246 C249 1.365 . S
C246 N251 1.328 . S
C246 H252 0.929 . S
C247 C248 1.362 . S
C247 C250 1.378 . S
C247 H262 0.929 . S
C248 C247 1.362 . S
C248 C249 1.366 . S
C249 C246 1.365 . S
C249 C248 1.366 . S
C249 H263 0.930 . S
C250 C247 1.378 . S
C250 N251 1.315 . S
C250 H253 0.930 . S
N251 Co231 2.194 . S
N251 C246 1.328 . S
N251 C250 1.315 . S
H252 C246 0.929 . S
H253 C250 0.930 . S
H254 C242 0.929 . S
H255 C244 0.967 . S
O256 Co231 2.351 . S
O256 C259 1.244 . S
O257 Co231 2.155 . S
O257 C259 1.240 . S
O258 Co231 2.096 . S
O258 C239 1.247 1_455 S
C259 O256 1.244 . S
C259 O257 1.240 . S
H260 C234 0.931 . S
H261 C243 0.931 . S
H262 C247 0.929 . S
H263 C249 0.930 . S
Co264 N268 2.148 . S
Co264 N274 2.128 . S
Co264 N284 2.194 . S
Co264 O289 2.351 . S
Co264 O290 2.155 . S
Co264 O291 2.096 . S
C265 N268 1.301 . S
C265 N269 1.328 . S
C265 H270 0.930 . S
C266 C267 1.333 . S
C266 N268 1.317 . S
C266 H271 0.930 . S
C267 C266 1.333 . S
C267 N269 1.350 . S
C267 H293 0.931 . S
N268 Co264 2.148 . S
N268 C265 1.301 . S
N268 C266 1.317 . S
N269 C265 1.328 . S
N269 C267 1.350 . S
H270 C265 0.930 . S
H271 C266 0.930 . S
C272 O273 1.224 . S
C272 O291 1.247 1_565 S
O273 C272 1.224 . S
N274 Co264 2.128 . S
N274 C275 1.355 . S
N274 C277 1.311 . S
C275 N274 1.355 . S
C275 C276 1.363 . S
C275 H287 0.929 . S
C276 C275 1.363 . S
C276 N278 1.375 . S
C276 H294 0.931 . S
C277 N274 1.311 . S
C277 N278 1.347 . S
C277 H288 0.935 . S
N278 C276 1.375 . S
N278 C277 1.347 . S
C279 C282 1.365 . S
C279 N284 1.328 . S
C279 H285 0.929 . S
C280 C281 1.362 . S
C280 C283 1.378 . S
C280 H295 0.929 . S
C281 C280 1.362 . S
C281 C282 1.366 . S
C282 C279 1.365 . S
C282 C281 1.366 . S
C282 H296 0.930 . S
C283 C280 1.378 . S
C283 N284 1.315 . S
C283 H286 0.930 . S
N284 Co264 2.194 . S
N284 C279 1.328 . S
N284 C283 1.315 . S
H285 C279 0.929 . S
H286 C283 0.930 . S
H287 C275 0.929 . S
H288 C277 0.935 . S
O289 Co264 2.351 . S
O289 C292 1.244 . S
O290 Co264 2.155 . S
O290 C292 1.240 . S
O291 Co264 2.096 . S
O291 C272 1.247 1_545 S
C292 O289 1.244 . S
C292 O290 1.240 . S
H293 C267 0.931 . S
H294 C276 0.931 . S
H295 C280 0.929 . S
H296 C282 0.930 . S
Co297 N301 2.148 . S
Co297 N307 2.128 . S
Co297 N317 2.194 . S
Co297 O322 2.351 . S
Co297 O323 2.155 . S
Co297 O324 2.096 . S
C298 N301 1.301 . S
C298 N302 1.328 . S
C298 H303 0.930 . S
C299 C300 1.333 . S
C299 N301 1.317 . S
C299 H304 0.930 . S
C300 C299 1.333 . S
C300 N302 1.350 . S
C300 H326 0.931 . S
N301 Co297 2.148 . S
N301 C298 1.301 . S
N301 C299 1.317 . S
N302 C298 1.328 . S
N302 C300 1.350 . S
H303 C298 0.930 . S
H304 C299 0.930 . S
C305 O306 1.224 . S
C305 O324 1.247 . S
O306 C305 1.224 . S
N307 Co297 2.128 . S
N307 C308 1.355 . S
N307 C310 1.311 . S
C308 N307 1.355 . S
C308 C309 1.363 . S
C308 H320 0.929 . S
C309 C308 1.363 . S
C309 N311 1.375 . S
C309 H327 0.931 . S
C310 N307 1.311 . S
C310 N311 1.347 . S
C310 H321 0.929 . S
N311 C309 1.375 . S
N311 C310 1.347 . S
C312 C315 1.365 . S
C312 N317 1.328 . S
C312 H318 0.929 . S
C313 C314 1.362 . S
C313 C316 1.378 . S
C313 H328 0.929 . S
C314 C313 1.362 . S
C314 C315 1.366 . S
C315 C312 1.365 . S
C315 C314 1.366 . S
C315 H329 0.930 . S
C316 C313 1.378 . S
C316 N317 1.315 . S
C316 H319 0.930 . S
N317 Co297 2.194 . S
N317 C312 1.328 . S
N317 C316 1.315 . S
H318 C312 0.929 . S
H319 C316 0.930 . S
H320 C308 0.929 . S
H321 C310 0.929 . S
O322 Co297 2.351 . S
O322 C325 1.244 . S
O323 Co297 2.155 . S
O323 C325 1.240 . S
O324 Co297 2.096 . S
O324 C305 1.247 . S
C325 O322 1.244 . S
C325 O323 1.240 . S
H326 C300 0.931 . S
H327 C309 0.931 . S
H328 C313 0.929 . S
H329 C315 0.930 . S
Co330 N334 2.148 1_556 S
Co330 N340 2.128 . S
Co330 N350 2.194 1_556 S
Co330 O355 2.351 . S
Co330 O356 2.155 . S
Co330 O357 2.096 . S
C331 N334 1.301 . S
C331 N335 1.328 . S
C331 H336 0.930 . S
C332 C333 1.333 . S
C332 N334 1.317 . S
C332 H337 0.930 . S
C333 C332 1.333 . S
C333 N335 1.350 . S
C333 H359 0.931 . S
N334 Co330 2.148 1_554 S
N334 C331 1.301 . S
N334 C332 1.317 . S
N335 C331 1.328 . S
N335 C333 1.350 . S
H336 C331 0.930 . S
H337 C332 0.930 . S
C338 O339 1.224 1_556 S
C338 O357 1.247 1_455 S
O339 C338 1.224 1_554 S
N340 Co330 2.128 . S
N340 C341 1.355 . S
N340 C343 1.311 . S
C341 N340 1.355 . S
C341 C342 1.363 . S
C341 H353 0.929 . S
C342 C341 1.363 . S
C342 N344 1.375 . S
C342 H360 0.931 . S
C343 N340 1.311 . S
C343 N344 1.347 . S
C343 H354 0.968 . S
N344 C342 1.375 . S
N344 C343 1.347 . S
C345 C348 1.365 . S
C345 N350 1.328 . S
C345 H351 0.929 . S
C346 C347 1.362 . S
C346 C349 1.378 . S
C346 H361 0.929 . S
C347 C346 1.362 . S
C347 C348 1.366 . S
C348 C345 1.365 . S
C348 C347 1.366 . S
C348 H362 0.930 . S
C349 C346 1.378 . S
C349 N350 1.315 . S
C349 H352 0.930 . S
N350 Co330 2.194 1_554 S
N350 C345 1.328 . S
N350 C349 1.315 . S
H351 C345 0.929 . S
H352 C349 0.930 . S
H353 C341 0.929 . S
H354 C343 0.968 . S
O355 Co330 2.351 . S
O355 C358 1.244 . S
O356 Co330 2.155 . S
O356 C358 1.240 . S
O357 Co330 2.096 . S
O357 C338 1.247 1_655 S
C358 O355 1.244 . S
C358 O356 1.240 . S
H359 C333 0.931 . S
H360 C342 0.931 . S
H361 C346 0.929 . S
H362 C348 0.930 . S
Co363 N367 2.148 . S
Co363 N373 2.128 . S
Co363 N383 2.194 . S
Co363 O388 2.351 . S
Co363 O389 2.155 . S
Co363 O390 2.096 . S
C364 N367 1.301 . S
C364 N368 1.328 . S
C364 H369 0.930 . S
C365 C366 1.333 . S
C365 N367 1.317 . S
C365 H370 0.930 . S
C366 C365 1.333 . S
C366 N368 1.350 . S
C366 H392 0.931 . S
N367 Co363 2.148 . S
N367 C364 1.301 . S
N367 C365 1.317 . S
N368 C364 1.328 . S
N368 C366 1.350 . S
H369 C364 0.930 . S
H370 C365 0.930 . S
C371 O372 1.224 . S
C371 O390 1.247 1_545 S
O372 C371 1.224 . S
N373 Co363 2.128 . S
N373 C374 1.355 . S
N373 C376 1.311 . S
C374 N373 1.355 . S
C374 C375 1.363 . S
C374 H386 0.929 . S
C375 C374 1.363 . S
C375 N377 1.375 . S
C375 H393 0.931 . S
C376 N373 1.311 . S
C376 N377 1.347 . S
C376 H387 0.935 . S
N377 C375 1.375 . S
N377 C376 1.347 . S
C378 C381 1.365 . S
C378 N383 1.328 . S
C378 H384 0.929 . S
C379 C380 1.362 . S
C379 C382 1.378 . S
C379 H394 0.929 . S
C380 C379 1.362 . S
C380 C381 1.366 . S
C381 C378 1.365 . S
C381 C380 1.366 . S
C381 H395 0.930 . S
C382 C379 1.378 . S
C382 N383 1.315 . S
C382 H385 0.930 . S
N383 Co363 2.194 . S
N383 C378 1.328 . S
N383 C382 1.315 . S
H384 C378 0.929 . S
H385 C382 0.930 . S
H386 C374 0.929 . S
H387 C376 0.935 . S
O388 Co363 2.351 . S
O388 C391 1.244 . S
O389 Co363 2.155 . S
O389 C391 1.240 . S
O390 Co363 2.096 . S
O390 C371 1.247 1_565 S
C391 O388 1.244 . S
C391 O389 1.240 . S
H392 C366 0.931 . S
H393 C375 0.931 . S
H394 C379 0.929 . S
H395 C381 0.930 . S
C396 C397 1.391 . S
C396 C398 1.394 . S
C396 H412 0.931 . S
C397 C396 1.391 . S
C397 C401 1.376 . S
C398 C396 1.394 . S
C398 C399 1.369 . S
C398 C402 1.531 . S
C399 C398 1.369 . S
C399 C400 1.410 . S
C399 C407 1.503 . S
C400 C399 1.410 . S
C400 C401 1.392 . S
C400 C403 1.511 . S
C401 C397 1.376 . S
C401 C400 1.392 . S
C401 H413 0.929 . S
C402 C398 1.531 . S
C402 H414 0.960 . S
C402 H415 0.962 . S
C402 H416 0.960 . S
C403 C400 1.511 . S
C403 H417 0.961 . S
C403 H418 0.961 . S
C403 H419 0.961 . S
C404 C405 1.370 . S
C404 C406 1.363 . S
C404 H420 0.931 . S
C405 C404 1.370 . S
C405 C409 1.408 . S
C406 C404 1.363 . S
C406 C407 1.370 . S
C406 C410 1.524 . S
C407 C399 1.503 . S
C407 C406 1.370 . S
C407 C408 1.403 . S
C408 C407 1.403 . S
C408 C409 1.404 . S
C408 C411 1.539 . S
C409 C405 1.408 . S
C409 C408 1.404 . S
C409 H421 0.930 . S
C410 C406 1.524 . S
C410 H422 0.956 . S
C410 H423 0.961 . S
C410 H424 0.961 . S
C411 C408 1.539 . S
C411 H425 0.958 . S
C411 H426 0.961 . S
C411 H427 0.960 . S
H412 C396 0.931 . S
H413 C401 0.929 . S
H414 C402 0.960 . S
H415 C402 0.962 . S
H416 C402 0.960 . S
H417 C403 0.961 . S
H418 C403 0.961 . S
H419 C403 0.961 . S
H420 C404 0.931 . S
H421 C409 0.930 . S
H422 C410 0.956 . S
H423 C410 0.961 . S
H424 C410 0.961 . S
H425 C411 0.958 . S
H426 C411 0.961 . S
H427 C411 0.960 . S
C428 C429 1.391 . S
C428 C430 1.394 . S
C428 H444 0.931 . S
C429 C428 1.391 . S
C429 C433 1.376 . S
C430 C428 1.394 . S
C430 C431 1.369 . S
C430 C434 1.531 . S
C431 C430 1.369 . S
C431 C432 1.410 . S
C431 C439 1.503 . S
C432 C431 1.410 . S
C432 C433 1.392 . S
C432 C435 1.511 . S
C433 C429 1.376 . S
C433 C432 1.392 . S
C433 H445 0.929 . S
C434 C430 1.531 . S
C434 H446 0.960 . S
C434 H447 0.962 . S
C434 H448 0.960 . S
C435 C432 1.511 . S
C435 H449 0.961 . S
C435 H450 0.961 . S
C435 H451 0.961 . S
C436 C437 1.370 . S
C436 C438 1.363 . S
C436 H452 0.931 . S
C437 C436 1.370 . S
C437 C441 1.408 . S
C438 C436 1.363 . S
C438 C439 1.370 . S
C438 C442 1.524 . S
C439 C431 1.503 . S
C439 C438 1.370 . S
C439 C440 1.403 . S
C440 C439 1.403 . S
C440 C441 1.404 . S
C440 C443 1.539 . S
C441 C437 1.408 . S
C441 C440 1.404 . S
C441 H453 0.930 . S
C442 C438 1.524 . S
C442 H454 0.956 . S
C442 H455 0.961 . S
C442 H456 0.961 . S
C443 C440 1.539 . S
C443 H457 0.958 . S
C443 H458 0.961 . S
C443 H459 0.960 . S
H444 C428 0.931 . S
H445 C433 0.929 . S
H446 C434 0.960 . S
H447 C434 0.962 . S
H448 C434 0.960 . S
H449 C435 0.961 . S
H450 C435 0.961 . S
H451 C435 0.961 . S
H452 C436 0.931 . S
H453 C441 0.930 . S
H454 C442 0.956 . S
H455 C442 0.961 . S
H456 C442 0.961 . S
H457 C443 0.958 . S
H458 C443 0.961 . S
H459 C443 0.960 . S
C460 C461 1.391 . S
C460 C462 1.394 . S
C460 H476 0.931 . S
C461 C460 1.391 . S
C461 C465 1.376 . S
C462 C460 1.394 . S
C462 C463 1.369 . S
C462 C466 1.531 . S
C463 C462 1.369 . S
C463 C464 1.410 . S
C463 C471 1.503 . S
C464 C463 1.410 . S
C464 C465 1.392 . S
C464 C467 1.511 . S
C465 C461 1.376 . S
C465 C464 1.392 . S
C465 H477 0.929 . S
C466 C462 1.531 . S
C466 H478 0.960 . S
C466 H479 0.962 . S
C466 H480 0.960 . S
C467 C464 1.511 . S
C467 H481 0.961 . S
C467 H482 0.961 . S
C467 H483 0.961 . S
C468 C469 1.370 . S
C468 C470 1.363 . S
C468 H484 0.931 . S
C469 C468 1.370 . S
C469 C473 1.408 . S
C470 C468 1.363 . S
C470 C471 1.370 . S
C470 C474 1.524 . S
C471 C463 1.503 . S
C471 C470 1.370 . S
C471 C472 1.403 . S
C472 C471 1.403 . S
C472 C473 1.404 . S
C472 C475 1.539 . S
C473 C469 1.408 . S
C473 C472 1.404 . S
C473 H485 0.930 . S
C474 C470 1.524 . S
C474 H486 0.956 . S
C474 H487 0.961 . S
C474 H488 0.961 . S
C475 C472 1.539 . S
C475 H489 0.958 . S
C475 H490 0.961 . S
C475 H491 0.960 . S
H476 C460 0.931 . S
H477 C465 0.929 . S
H478 C466 0.960 . S
H479 C466 0.962 . S
H480 C466 0.960 . S
H481 C467 0.961 . S
H482 C467 0.961 . S
H483 C467 0.961 . S
H484 C468 0.931 . S
H485 C473 0.930 . S
H486 C474 0.956 . S
H487 C474 0.961 . S
H488 C474 0.961 . S
H489 C475 0.958 . S
H490 C475 0.961 . S
H491 C475 0.960 . S
C492 C493 1.391 . S
C492 C494 1.394 . S
C492 H508 0.893 1_554 S
C493 C492 1.391 . S
C493 C497 1.376 . S
C494 C492 1.394 . S
C494 C495 1.369 . S
C494 C498 1.531 . S
C495 C494 1.369 . S
C495 C496 1.410 . S
C495 C503 1.503 . S
C496 C495 1.410 . S
C496 C497 1.392 . S
C496 C499 1.511 . S
C497 C493 1.376 . S
C497 C496 1.392 . S
C497 H509 0.929 . S
C498 C494 1.531 . S
C498 H510 0.960 . S
C498 H511 0.962 . S
C498 H512 0.960 . S
C499 C496 1.511 . S
C499 H513 0.961 . S
C499 H514 0.961 . S
C499 H515 0.961 . S
C500 C501 1.370 . S
C500 C502 1.363 . S
C500 H516 0.931 . S
C501 C500 1.370 . S
C501 C505 1.408 . S
C502 C500 1.363 . S
C502 C503 1.370 . S
C502 C506 1.524 . S
C503 C495 1.503 . S
C503 C502 1.370 . S
C503 C504 1.403 . S
C504 C503 1.403 . S
C504 C505 1.404 . S
C504 C507 1.539 . S
C505 C501 1.408 . S
C505 C504 1.404 . S
C505 H517 0.930 . S
C506 C502 1.524 . S
C506 H518 0.956 . S
C506 H519 0.961 . S
C506 H520 0.961 . S
C507 C504 1.539 . S
C507 H521 0.958 . S
C507 H522 0.961 . S
C507 H523 0.960 . S
H508 C492 0.893 1_556 S
H509 C497 0.929 . S
H510 C498 0.960 . S
H511 C498 0.962 . S
H512 C498 0.960 . S
H513 C499 0.961 . S
H514 C499 0.961 . S
H515 C499 0.961 . S
H516 C500 0.931 . S
H517 C505 0.930 . S
H518 C506 0.956 . S
H519 C506 0.961 . S
H520 C506 0.961 . S
H521 C507 0.958 . S
H522 C507 0.961 . S
H523 C507 0.960 . S
C524 C525 1.391 . S
C524 C526 1.394 . S
C524 H540 0.931 . S
C525 C524 1.391 . S
C525 C529 1.376 . S
C526 C524 1.394 . S
C526 C527 1.369 . S
C526 C530 1.531 . S
C527 C526 1.369 . S
C527 C528 1.410 . S
C527 C535 1.503 . S
C528 C527 1.410 . S
C528 C529 1.392 . S
C528 C531 1.511 . S
C529 C525 1.376 . S
C529 C528 1.392 . S
C529 H541 0.929 . S
C530 C526 1.531 . S
C530 H542 0.960 . S
C530 H543 0.962 . S
C530 H544 0.960 . S
C531 C528 1.511 . S
C531 H545 0.961 . S
C531 H546 0.961 . S
C531 H547 0.961 . S
C532 C533 1.370 . S
C532 C534 1.363 . S
C532 H548 0.931 . S
C533 C532 1.370 . S
C533 C537 1.408 . S
C534 C532 1.363 . S
C534 C535 1.370 . S
C534 C538 1.524 . S
C535 C527 1.503 . S
C535 C534 1.370 . S
C535 C536 1.403 . S
C536 C535 1.403 . S
C536 C537 1.404 . S
C536 C539 1.539 . S
C537 C533 1.408 . S
C537 C536 1.404 . S
C537 H549 0.930 . S
C538 C534 1.524 . S
C538 H550 0.956 . S
C538 H551 0.961 . S
C538 H552 0.961 . S
C539 C536 1.539 . S
C539 H553 0.958 . S
C539 H554 0.961 . S
C539 H555 0.960 . S
H540 C524 0.931 . S
H541 C529 0.929 . S
H542 C530 0.960 . S
H543 C530 0.962 . S
H544 C530 0.960 . S
H545 C531 0.961 . S
H546 C531 0.961 . S
H547 C531 0.961 . S
H548 C532 0.931 . S
H549 C537 0.930 . S
H550 C538 0.956 . S
H551 C538 0.961 . S
H552 C538 0.961 . S
H553 C539 0.958 . S
H554 C539 0.961 . S
H555 C539 0.960 . S
C556 C557 1.391 . S
C556 C558 1.394 . S
C556 H572 0.931 . S
C557 C556 1.391 . S
C557 C561 1.376 . S
C558 C556 1.394 . S
C558 C559 1.369 . S
C558 C562 1.531 . S
C559 C558 1.369 . S
C559 C560 1.410 . S
C559 C567 1.503 . S
C560 C559 1.410 . S
C560 C561 1.392 . S
C560 C563 1.511 . S
C561 C557 1.376 . S
C561 C560 1.392 . S
C561 H573 0.929 . S
C562 C558 1.531 . S
C562 H574 0.960 . S
C562 H575 0.962 . S
C562 H576 0.960 . S
C563 C560 1.511 . S
C563 H577 0.961 . S
C563 H578 0.961 . S
C563 H579 0.961 . S
C564 C565 1.370 . S
C564 C566 1.363 . S
C564 H580 0.931 . S
C565 C564 1.370 . S
C565 C569 1.408 . S
C566 C564 1.363 . S
C566 C567 1.370 . S
C566 C570 1.524 . S
C567 C559 1.503 . S
C567 C566 1.370 . S
C567 C568 1.403 . S
C568 C567 1.403 . S
C568 C569 1.404 . S
C568 C571 1.539 . S
C569 C565 1.408 . S
C569 C568 1.404 . S
C569 H581 0.930 . S
C570 C566 1.524 . S
C570 H582 0.956 . S
C570 H583 0.961 . S
C570 H584 0.961 . S
C571 C568 1.539 . S
C571 H585 0.958 . S
C571 H586 0.961 . S
C571 H587 0.960 . S
H572 C556 0.931 . S
H573 C561 0.929 . S
H574 C562 0.960 . S
H575 C562 0.962 . S
H576 C562 0.960 . S
H577 C563 0.961 . S
H578 C563 0.961 . S
H579 C563 0.961 . S
H580 C564 0.931 . S
H581 C569 0.930 . S
H582 C570 0.956 . S
H583 C570 0.961 . S
H584 C570 0.961 . S
H585 C571 0.958 . S
H586 C571 0.961 . S
H587 C571 0.960 . S
C588 C589 1.391 . S
C588 C590 1.394 . S
C588 H604 0.931 . S
C589 C588 1.391 . S
C589 C593 1.376 . S
C590 C588 1.394 . S
C590 C591 1.369 . S
C590 C594 1.531 . S
C591 C590 1.369 . S
C591 C592 1.410 . S
C591 C599 1.503 . S
C592 C591 1.410 . S
C592 C593 1.392 . S
C592 C595 1.511 . S
C593 C589 1.376 . S
C593 C592 1.392 . S
C593 H605 0.929 . S
C594 C590 1.531 . S
C594 H606 0.960 . S
C594 H607 0.962 . S
C594 H608 0.960 . S
C595 C592 1.511 . S
C595 H609 0.961 . S
C595 H610 0.961 . S
C595 H611 0.961 . S
C596 C597 1.370 . S
C596 C598 1.363 . S
C596 H612 0.931 . S
C597 C596 1.370 . S
C597 C601 1.408 . S
C598 C596 1.363 . S
C598 C599 1.370 . S
C598 C602 1.524 . S
C599 C591 1.503 . S
C599 C598 1.370 . S
C599 C600 1.403 . S
C600 C599 1.403 . S
C600 C601 1.404 . S
C600 C603 1.539 . S
C601 C597 1.408 . S
C601 C600 1.404 . S
C601 H613 0.930 . S
C602 C598 1.524 . S
C602 H614 0.956 . S
C602 H615 0.961 . S
C602 H616 0.961 . S
C603 C600 1.539 . S
C603 H617 0.958 . S
C603 H618 0.961 . S
C603 H619 0.960 . S
H604 C588 0.931 . S
H605 C593 0.929 . S
H606 C594 0.960 . S
H607 C594 0.962 . S
H608 C594 0.960 . S
H609 C595 0.961 . S
H610 C595 0.961 . S
H611 C595 0.961 . S
H612 C596 0.931 . S
H613 C601 0.930 . S
H614 C602 0.956 . S
H615 C602 0.961 . S
H616 C602 0.961 . S
H617 C603 0.958 . S
H618 C603 0.961 . S
H619 C603 0.960 . S
C620 C621 1.391 . S
C620 C622 1.394 . S
C620 H636 0.931 . S
C621 C620 1.391 . S
C621 C625 1.376 . S
C622 C620 1.394 . S
C622 C623 1.369 . S
C622 C626 1.531 . S
C623 C622 1.369 . S
C623 C624 1.410 . S
C623 C631 1.503 . S
C624 C623 1.410 . S
C624 C625 1.392 . S
C624 C627 1.511 . S
C625 C621 1.376 . S
C625 C624 1.392 . S
C625 H637 0.929 . S
C626 C622 1.531 . S
C626 H638 0.960 . S
C626 H639 0.962 . S
C626 H640 0.960 . S
C627 C624 1.511 . S
C627 H641 0.961 . S
C627 H642 0.961 . S
C627 H643 0.961 . S
C628 C629 1.370 . S
C628 C630 1.363 . S
C628 H644 0.931 . S
C629 C628 1.370 . S
C629 C633 1.408 . S
C630 C628 1.363 . S
C630 C631 1.370 . S
C630 C634 1.524 . S
C631 C623 1.503 . S
C631 C630 1.370 . S
C631 C632 1.403 . S
C632 C631 1.403 . S
C632 C633 1.404 . S
C632 C635 1.539 . S
C633 C629 1.408 . S
C633 C632 1.404 . S
C633 H645 0.930 . S
C634 C630 1.524 . S
C634 H646 0.956 . S
C634 H647 0.961 . S
C634 H648 0.961 . S
C635 C632 1.539 . S
C635 H649 0.958 . S
C635 H650 0.961 . S
C635 H651 0.960 . S
H636 C620 0.931 . S
H637 C625 0.929 . S
H638 C626 0.960 . S
H639 C626 0.962 . S
H640 C626 0.960 . S
H641 C627 0.961 . S
H642 C627 0.961 . S
H643 C627 0.961 . S
H644 C628 0.931 . S
H645 C633 0.930 . S
H646 C634 0.956 . S
H647 C634 0.961 . S
H648 C634 0.961 . S
H649 C635 0.958 . S
H650 C635 0.961 . S
H651 C635 0.960 . S
C652 C653 1.391 . S
C652 C654 1.394 . S
C652 H668 0.931 . S
C653 C652 1.391 . S
C653 C657 1.376 . S
C654 C652 1.394 . S
C654 C655 1.369 . S
C654 C658 1.531 . S
C655 C654 1.369 . S
C655 C656 1.410 . S
C655 C663 1.503 . S
C656 C655 1.410 . S
C656 C657 1.392 . S
C656 C659 1.511 . S
C657 C653 1.376 . S
C657 C656 1.392 . S
C657 H669 0.929 . S
C658 C654 1.531 . S
C658 H670 0.960 . S
C658 H671 0.962 . S
C658 H672 0.960 . S
C659 C656 1.511 . S
C659 H673 0.961 . S
C659 H674 0.961 . S
C659 H675 0.961 . S
C660 C661 1.370 . S
C660 C662 1.363 . S
C660 H676 0.931 . S
C661 C660 1.370 . S
C661 C665 1.408 . S
C662 C660 1.363 . S
C662 C663 1.370 . S
C662 C666 1.524 . S
C663 C655 1.503 . S
C663 C662 1.370 . S
C663 C664 1.403 . S
C664 C663 1.403 . S
C664 C665 1.404 . S
C664 C667 1.539 . S
C665 C661 1.408 . S
C665 C664 1.404 . S
C665 H677 0.930 . S
C666 C662 1.524 . S
C666 H678 0.956 . S
C666 H679 0.961 . S
C666 H680 0.961 . S
C667 C664 1.539 . S
C667 H681 0.958 . S
C667 H682 0.961 . S
C667 H683 0.960 . S
H668 C652 0.931 . S
H669 C657 0.929 . S
H670 C658 0.960 . S
H671 C658 0.962 . S
H672 C658 0.960 . S
H673 C659 0.961 . S
H674 C659 0.961 . S
H675 C659 0.961 . S
H676 C660 0.931 . S
H677 C665 0.930 . S
H678 C666 0.956 . S
H679 C666 0.961 . S
H680 C666 0.961 . S
H681 C667 0.958 . S
H682 C667 0.961 . S
H683 C667 0.960 . S
C684 C685 1.391 . S
C684 C686 1.394 . S
C684 H700 0.931 . S
C685 C684 1.391 . S
C685 C689 1.376 . S
C686 C684 1.394 . S
C686 C687 1.369 . S
C686 C690 1.531 . S
C687 C686 1.369 . S
C687 C688 1.410 . S
C687 C695 1.503 . S
C688 C687 1.410 . S
C688 C689 1.392 . S
C688 C691 1.511 . S
C689 C685 1.376 . S
C689 C688 1.392 . S
C689 H701 0.929 . S
C690 C686 1.531 . S
C690 H702 0.960 . S
C690 H703 0.962 . S
C690 H704 0.960 . S
C691 C688 1.511 . S
C691 H705 0.961 . S
C691 H706 0.961 . S
C691 H707 0.961 . S
C692 C693 1.370 . S
C692 C694 1.363 . S
C692 H708 0.931 . S
C693 C692 1.370 . S
C693 C697 1.408 . S
C694 C692 1.363 . S
C694 C695 1.370 . S
C694 C698 1.524 . S
C695 C687 1.503 . S
C695 C694 1.370 . S
C695 C696 1.403 . S
C696 C695 1.403 . S
C696 C697 1.404 . S
C696 C699 1.539 . S
C697 C693 1.408 . S
C697 C696 1.404 . S
C697 H709 0.930 . S
C698 C694 1.524 . S
C698 H710 0.956 . S
C698 H711 0.961 . S
C698 H712 0.961 . S
C699 C696 1.539 . S
C699 H713 0.958 . S
C699 H714 0.961 . S
C699 H715 0.960 . S
H700 C684 0.931 . S
H701 C689 0.929 . S
H702 C690 0.960 . S
H703 C690 0.962 . S
H704 C690 0.960 . S
H705 C691 0.961 . S
H706 C691 0.961 . S
H707 C691 0.961 . S
H708 C692 0.931 . S
H709 C697 0.930 . S
H710 C698 0.956 . S
H711 C698 0.961 . S
H712 C698 0.961 . S
H713 C699 0.958 . S
H714 C699 0.961 . S
H715 C699 0.960 . S
C716 C717 1.391 1_556 S
C716 C718 1.394 1_556 S
C716 H732 0.931 . S
C717 C716 1.391 1_554 S
C717 C721 1.376 . S
C718 C716 1.394 1_554 S
C718 C719 1.369 . S
C718 C722 1.531 1_554 S
C719 C718 1.369 . S
C719 C720 1.410 . S
C719 C727 1.503 . S
C720 C719 1.410 . S
C720 C721 1.392 . S
C720 C723 1.511 . S
C721 C717 1.376 . S
C721 C720 1.392 . S
C721 H733 0.929 . S
C722 C718 1.531 1_556 S
C722 H734 0.960 1_556 S
C722 H735 0.962 . S
C722 H736 0.960 . S
C723 C720 1.511 . S
C723 H737 0.961 . S
C723 H738 0.961 . S
C723 H739 0.961 . S
C724 C725 1.370 . S
C724 C726 1.363 . S
C724 H740 0.931 . S
C725 C724 1.370 . S
C725 C729 1.408 . S
C726 C724 1.363 . S
C726 C727 1.370 . S
C726 C730 1.524 . S
C727 C719 1.503 . S
C727 C726 1.370 . S
C727 C728 1.403 . S
C728 C727 1.403 . S
C728 C729 1.404 . S
C728 C731 1.539 . S
C729 C725 1.408 . S
C729 C728 1.404 . S
C729 H741 0.930 . S
C730 C726 1.524 . S
C730 H742 0.956 . S
C730 H743 0.961 . S
C730 H744 0.961 . S
C731 C728 1.539 . S
C731 H745 0.958 . S
C731 H746 0.961 . S
C731 H747 0.960 . S
H732 C716 0.931 . S
H733 C721 0.929 . S
H734 C722 0.960 1_554 S
H735 C722 0.962 . S
H736 C722 0.960 . S
H737 C723 0.961 . S
H738 C723 0.961 . S
H739 C723 0.961 . S
H740 C724 0.931 . S
H741 C729 0.930 . S
H742 C730 0.956 . S
H743 C730 0.961 . S
H744 C730 0.961 . S
H745 C731 0.958 . S
H746 C731 0.961 . S
H747 C731 0.960 . S
C748 C749 1.391 . S
C748 C750 1.394 . S
C748 H764 0.931 . S
C749 C748 1.391 . S
C749 C753 1.376 . S
C750 C748 1.394 . S
C750 C751 1.369 . S
C750 C754 1.531 . S
C751 C750 1.369 . S
C751 C752 1.410 . S
C751 C759 1.503 . S
C752 C751 1.410 . S
C752 C753 1.392 . S
C752 C755 1.511 . S
C753 C749 1.376 . S
C753 C752 1.392 . S
C753 H765 0.929 . S
C754 C750 1.531 . S
C754 H766 0.960 . S
C754 H767 0.962 . S
C754 H768 0.960 . S
C755 C752 1.511 . S
C755 H769 0.961 . S
C755 H770 0.961 . S
C755 H771 0.961 . S
C756 C757 1.370 . S
C756 C758 1.363 . S
C756 H772 0.931 . S
C757 C756 1.370 . S
C757 C761 1.408 . S
C758 C756 1.363 . S
C758 C759 1.370 . S
C758 C762 1.524 . S
C759 C751 1.503 . S
C759 C758 1.370 . S
C759 C760 1.403 . S
C760 C759 1.403 . S
C760 C761 1.404 . S
C760 C763 1.539 . S
C761 C757 1.408 . S
C761 C760 1.404 . S
C761 H773 0.930 . S
C762 C758 1.524 . S
C762 H774 0.956 . S
C762 H775 0.961 . S
C762 H776 0.961 . S
C763 C760 1.539 . S
C763 H777 0.958 . S
C763 H778 0.961 . S
C763 H779 0.960 . S
H764 C748 0.931 . S
H765 C753 0.929 . S
H766 C754 0.960 . S
H767 C754 0.962 . S
H768 C754 0.960 . S
H769 C755 0.961 . S
H770 C755 0.961 . S
H771 C755 0.961 . S
H772 C756 0.931 . S
H773 C761 0.930 . S
H774 C762 0.956 . S
H775 C762 0.961 . S
H776 C762 0.961 . S
H777 C763 0.958 . S
H778 C763 0.961 . S
H779 C763 0.960 . S
C780 C781 1.391 . S
C780 C782 1.394 . S
C780 H796 0.931 . S
C781 C780 1.391 . S
C781 C785 1.376 . S
C782 C780 1.394 . S
C782 C783 1.369 . S
C782 C786 1.531 . S
C783 C782 1.369 . S
C783 C784 1.410 . S
C783 C791 1.503 . S
C784 C783 1.410 . S
C784 C785 1.392 . S
C784 C787 1.511 . S
C785 C781 1.376 . S
C785 C784 1.392 . S
C785 H797 0.929 . S
C786 C782 1.531 . S
C786 H798 0.960 . S
C786 H799 0.962 . S
C786 H800 0.960 . S
C787 C784 1.511 . S
C787 H801 0.961 . S
C787 H802 0.961 . S
C787 H803 0.961 . S
C788 C789 1.370 . S
C788 C790 1.363 . S
C788 H804 0.931 . S
C789 C788 1.370 . S
C789 C793 1.408 . S
C790 C788 1.363 . S
C790 C791 1.370 . S
C790 C794 1.524 . S
C791 C783 1.503 . S
C791 C790 1.370 . S
C791 C792 1.403 . S
C792 C791 1.403 . S
C792 C793 1.404 . S
C792 C795 1.539 . S
C793 C789 1.408 . S
C793 C792 1.404 . S
C793 H805 0.930 . S
C794 C790 1.524 . S
C794 H806 0.956 . S
C794 H807 0.961 . S
C794 H808 0.961 . S
C795 C792 1.539 . S
C795 H809 0.958 . S
C795 H810 0.961 . S
C795 H811 0.960 . S
H796 C780 0.931 . S
H797 C785 0.929 . S
H798 C786 0.960 . S
H799 C786 0.962 . S
H800 C786 0.960 . S
H801 C787 0.961 . S
H802 C787 0.961 . S
H803 C787 0.961 . S
H804 C788 0.931 . S
H805 C793 0.930 . S
H806 C794 0.956 . S
H807 C794 0.961 . S
H808 C794 0.961 . S
H809 C795 0.958 . S
H810 C795 0.961 . S
H811 C795 0.960 . S
C812 C813 1.391 . S
C812 C814 1.394 . S
C812 H828 0.931 . S
C813 C812 1.391 . S
C813 C817 1.376 . S
C814 C812 1.394 . S
C814 C815 1.369 . S
C814 C818 1.531 . S
C815 C814 1.369 . S
C815 C816 1.410 . S
C815 C823 1.503 . S
C816 C815 1.410 . S
C816 C817 1.392 . S
C816 C819 1.511 . S
C817 C813 1.376 . S
C817 C816 1.392 . S
C817 H829 0.929 . S
C818 C814 1.531 . S
C818 H830 0.960 . S
C818 H831 0.962 . S
C818 H832 0.960 . S
C819 C816 1.511 . S
C819 H833 0.961 . S
C819 H834 0.961 . S
C819 H835 0.961 . S
C820 C821 1.370 . S
C820 C822 1.363 . S
C820 H836 0.931 . S
C821 C820 1.370 . S
C821 C825 1.408 . S
C822 C820 1.363 . S
C822 C823 1.370 . S
C822 C826 1.524 . S
C823 C815 1.503 . S
C823 C822 1.370 . S
C823 C824 1.403 . S
C824 C823 1.403 . S
C824 C825 1.404 . S
C824 C827 1.539 . S
C825 C821 1.408 . S
C825 C824 1.404 . S
C825 H837 0.930 . S
C826 C822 1.524 . S
C826 H838 0.956 . S
C826 H839 0.961 . S
C826 H840 0.961 . S
C827 C824 1.539 . S
C827 H841 0.958 . S
C827 H842 0.961 . S
C827 H843 0.960 . S
H828 C812 0.931 . S
H829 C817 0.929 . S
H830 C818 0.960 . S
H831 C818 0.962 . S
H832 C818 0.960 . S
H833 C819 0.961 . S
H834 C819 0.961 . S
H835 C819 0.961 . S
H836 C820 0.931 . S
H837 C825 0.930 . S
H838 C826 0.956 . S
H839 C826 0.961 . S
H840 C826 0.961 . S
H841 C827 0.958 . S
H842 C827 0.961 . S
H843 C827 0.960 . S
C844 C845 1.391 . S
C844 C846 1.394 . S
C844 H860 0.931 . S
C845 C844 1.391 . S
C845 C849 1.376 . S
C846 C844 1.394 . S
C846 C847 1.369 . S
C846 C850 1.531 . S
C847 C846 1.369 . S
C847 C848 1.410 . S
C847 C855 1.503 . S
C848 C847 1.410 . S
C848 C849 1.392 . S
C848 C851 1.511 . S
C849 C845 1.376 . S
C849 C848 1.392 . S
C849 H861 0.929 . S
C850 C846 1.531 . S
C850 H862 0.960 . S
C850 H863 0.962 . S
C850 H864 0.960 . S
C851 C848 1.511 . S
C851 H865 0.961 . S
C851 H866 0.961 . S
C851 H867 0.961 . S
C852 C853 1.370 . S
C852 C854 1.363 . S
C852 H868 0.931 . S
C853 C852 1.370 . S
C853 C857 1.408 . S
C854 C852 1.363 . S
C854 C855 1.370 . S
C854 C858 1.524 . S
C855 C847 1.503 . S
C855 C854 1.370 . S
C855 C856 1.403 . S
C856 C855 1.403 . S
C856 C857 1.404 . S
C856 C859 1.539 . S
C857 C853 1.408 . S
C857 C856 1.404 . S
C857 H869 0.930 . S
C858 C854 1.524 . S
C858 H870 0.956 . S
C858 H871 0.961 . S
C858 H872 0.961 . S
C859 C856 1.539 . S
C859 H873 0.958 . S
C859 H874 0.961 . S
C859 H875 0.960 . S
H860 C844 0.931 . S
H861 C849 0.929 . S
H862 C850 0.960 . S
H863 C850 0.962 . S
H864 C850 0.960 . S
H865 C851 0.961 . S
H866 C851 0.961 . S
H867 C851 0.961 . S
H868 C852 0.931 . S
H869 C857 0.930 . S
H870 C858 0.956 . S
H871 C858 0.961 . S
H872 C858 0.961 . S
H873 C859 0.958 . S
H874 C859 0.961 . S
H875 C859 0.960 . S
C876 C877 1.391 . S
C876 C878 1.394 . S
C876 H892 0.931 1_556 S
C877 C876 1.391 . S
C877 C881 1.376 . S
C878 C876 1.394 . S
C878 C879 1.369 . S
C878 C882 1.521 1_556 S
C879 C878 1.369 . S
C879 C880 1.410 . S
C879 C887 1.503 . S
C880 C879 1.410 . S
C880 C881 1.392 . S
C880 C883 1.511 . S
C881 C877 1.376 . S
C881 C880 1.392 . S
C881 H893 0.929 . S
C882 C878 1.521 1_554 S
C882 H894 0.945 1_554 S
C882 H895 0.975 . S
C882 H896 0.972 . S
C883 C880 1.511 . S
C883 H897 0.961 . S
C883 H898 0.961 . S
C883 H899 0.961 . S
C884 C885 1.370 . S
C884 C886 1.363 . S
C884 H900 0.931 . S
C885 C884 1.370 . S
C885 C889 1.408 . S
C886 C884 1.363 . S
C886 C887 1.370 . S
C886 C890 1.524 . S
C887 C879 1.503 . S
C887 C886 1.370 . S
C887 C888 1.403 . S
C888 C887 1.403 . S
C888 C889 1.404 . S
C888 C891 1.539 . S
C889 C885 1.408 . S
C889 C888 1.404 . S
C889 H901 0.930 . S
C890 C886 1.524 . S
C890 H902 0.956 . S
C890 H903 0.961 . S
C890 H904 0.961 . S
C891 C888 1.539 . S
C891 H905 0.958 . S
C891 H906 0.961 . S
C891 H907 0.960 . S
H892 C876 0.931 1_554 S
H893 C881 0.929 . S
H894 C882 0.945 1_556 S
H895 C882 0.975 . S
H896 C882 0.972 . S
H897 C883 0.961 . S
H898 C883 0.961 . S
H899 C883 0.961 . S
H900 C884 0.931 . S
H901 C889 0.930 . S
H902 C890 0.956 . S
H903 C890 0.961 . S
H904 C890 0.961 . S
H905 C891 0.958 . S
H906 C891 0.961 . S
H907 C891 0.960 . S
C908 C909 1.391 . S
C908 C910 1.394 . S
C908 H924 0.931 . S
C909 C908 1.391 . S
C909 C913 1.376 . S
C910 C908 1.394 . S
C910 C911 1.369 . S
C910 C914 1.531 . S
C911 C910 1.369 . S
C911 C912 1.410 . S
C911 C919 1.503 . S
C912 C911 1.410 . S
C912 C913 1.392 . S
C912 C915 1.511 . S
C913 C909 1.376 . S
C913 C912 1.392 . S
C913 H925 0.929 . S
C914 C910 1.531 . S
C914 H926 0.960 . S
C914 H927 0.962 . S
C914 H928 0.960 . S
C915 C912 1.511 . S
C915 H929 0.961 . S
C915 H930 0.961 . S
C915 H931 0.961 . S
C916 C917 1.370 . S
C916 C918 1.363 . S
C916 H932 0.931 . S
C917 C916 1.370 . S
C917 C921 1.408 . S
C918 C916 1.363 . S
C918 C919 1.370 . S
C918 C922 1.524 . S
C919 C911 1.503 . S
C919 C918 1.370 . S
C919 C920 1.403 . S
C920 C919 1.403 . S
C920 C921 1.404 . S
C920 C923 1.539 . S
C921 C917 1.408 . S
C921 C920 1.404 . S
C921 H933 0.930 . S
C922 C918 1.524 . S
C922 H934 0.956 . S
C922 H935 0.961 . S
C922 H936 0.961 . S
C923 C920 1.539 . S
C923 H937 0.958 . S
C923 H938 0.961 . S
C923 H939 0.960 . S
H924 C908 0.931 . S
H925 C913 0.929 . S
H926 C914 0.960 . S
H927 C914 0.962 . S
H928 C914 0.960 . S
H929 C915 0.961 . S
H930 C915 0.961 . S
H931 C915 0.961 . S
H932 C916 0.931 . S
H933 C921 0.930 . S
H934 C922 0.956 . S
H935 C922 0.961 . S
H936 C922 0.961 . S
H937 C923 0.958 . S
H938 C923 0.961 . S
H939 C923 0.960 . S
C940 C941 1.391 . S
C940 C942 1.394 . S
C940 H956 0.931 . S
C941 C940 1.391 . S
C941 C945 1.376 . S
C942 C940 1.394 . S
C942 C943 1.369 . S
C942 C946 1.531 . S
C943 C942 1.369 . S
C943 C944 1.410 . S
C943 C951 1.503 . S
C944 C943 1.410 . S
C944 C945 1.392 . S
C944 C947 1.511 . S
C945 C941 1.376 . S
C945 C944 1.392 . S
C945 H957 0.929 . S
C946 C942 1.531 . S
C946 H958 0.960 . S
C946 H959 0.962 . S
C946 H960 0.960 . S
C947 C944 1.511 . S
C947 H961 0.961 . S
C947 H962 0.961 . S
C947 H963 0.961 . S
C948 C949 1.370 . S
C948 C950 1.363 . S
C948 H964 0.931 . S
C949 C948 1.370 . S
C949 C953 1.408 . S
C950 C948 1.363 . S
C950 C951 1.370 . S
C950 C954 1.524 . S
C951 C943 1.503 . S
C951 C950 1.370 . S
C951 C952 1.403 . S
C952 C951 1.403 . S
C952 C953 1.404 . S
C952 C955 1.539 . S
C953 C949 1.408 . S
C953 C952 1.404 . S
C953 H965 0.930 . S
C954 C950 1.524 . S
C954 H966 0.956 . S
C954 H967 0.961 . S
C954 H968 0.961 . S
C955 C952 1.539 . S
C955 H969 0.958 . S
C955 H970 0.961 . S
C955 H971 0.960 . S
H956 C940 0.931 . S
H957 C945 0.929 . S
H958 C946 0.960 . S
H959 C946 0.962 . S
H960 C946 0.960 . S
H961 C947 0.961 . S
H962 C947 0.961 . S
H963 C947 0.961 . S
H964 C948 0.931 . S
H965 C953 0.930 . S
H966 C954 0.956 . S
H967 C954 0.961 . S
H968 C954 0.961 . S
H969 C955 0.958 . S
H970 C955 0.961 . S
H971 C955 0.960 . S
C972 C973 1.391 . S
C972 C974 1.394 . S
C972 H988 0.931 . S
C973 C972 1.391 . S
C973 C977 1.376 . S
C974 C972 1.394 . S
C974 C975 1.369 . S
C974 C978 1.531 . S
C975 C974 1.369 . S
C975 C976 1.410 . S
C975 C983 1.503 . S
C976 C975 1.410 . S
C976 C977 1.392 . S
C976 C979 1.511 . S
C977 C973 1.376 . S
C977 C976 1.392 . S
C977 H989 0.929 . S
C978 C974 1.531 . S
C978 H990 0.960 . S
C978 H991 0.962 . S
C978 H992 0.960 . S
C979 C976 1.511 . S
C979 H993 0.961 . S
C979 H994 0.961 . S
C979 H995 0.961 . S
C980 C981 1.370 . S
C980 C982 1.363 . S
C980 H996 0.931 . S
C981 C980 1.370 . S
C981 C985 1.408 . S
C982 C980 1.363 . S
C982 C983 1.370 . S
C982 C986 1.524 . S
C983 C975 1.503 . S
C983 C982 1.370 . S
C983 C984 1.403 . S
C984 C983 1.403 . S
C984 C985 1.404 . S
C984 C987 1.539 . S
C985 C981 1.408 . S
C985 C984 1.404 . S
C985 H997 0.930 . S
C986 C982 1.524 . S
C986 H998 0.956 . S
C986 H999 0.961 . S
C986 H1000 0.961 . S
C987 C984 1.539 . S
C987 H1001 0.958 . S
C987 H1002 0.961 . S
C987 H1003 0.960 . S
H988 C972 0.931 . S
H989 C977 0.929 . S
H990 C978 0.960 . S
H991 C978 0.962 . S
H992 C978 0.960 . S
H993 C979 0.961 . S
H994 C979 0.961 . S
H995 C979 0.961 . S
H996 C980 0.931 . S
H997 C985 0.930 . S
H998 C986 0.956 . S
H999 C986 0.961 . S
H1000 C986 0.961 . S
H1001 C987 0.958 . S
H1002 C987 0.961 . S
H1003 C987 0.960 . S
C1004 C1005 1.391 . S
C1004 C1006 1.394 . S
C1004 H1020 0.931 . S
C1005 C1004 1.391 . S
C1005 C1009 1.376 . S
C1006 C1004 1.394 . S
C1006 C1007 1.369 . S
C1006 C1010 1.531 . S
C1007 C1006 1.369 . S
C1007 C1008 1.410 . S
C1007 C1015 1.503 . S
C1008 C1007 1.410 . S
C1008 C1009 1.392 . S
C1008 C1011 1.511 1_455 S
C1009 C1005 1.376 . S
C1009 C1008 1.392 . S
C1009 H1021 0.929 . S
C1010 C1006 1.531 . S
C1010 H1022 0.960 . S
C1010 H1023 0.962 . S
C1010 H1024 0.960 . S
C1011 C1008 1.511 1_655 S
C1011 H1025 0.961 . S
C1011 H1026 0.961 . S
C1011 H1027 0.961 . S
C1012 C1013 1.370 . S
C1012 C1014 1.363 . S
C1012 H1028 0.931 . S
C1013 C1012 1.370 . S
C1013 C1017 1.408 . S
C1014 C1012 1.363 . S
C1014 C1015 1.370 . S
C1014 C1018 1.524 . S
C1015 C1007 1.503 . S
C1015 C1014 1.370 . S
C1015 C1016 1.403 . S
C1016 C1015 1.403 . S
C1016 C1017 1.404 . S
C1016 C1019 1.539 . S
C1017 C1013 1.408 . S
C1017 C1016 1.404 . S
C1017 H1029 0.930 . S
C1018 C1014 1.524 . S
C1018 H1030 0.956 . S
C1018 H1031 0.961 . S
C1018 H1032 0.961 . S
C1019 C1016 1.539 . S
C1019 H1033 0.958 . S
C1019 H1034 0.961 . S
C1019 H1035 0.960 . S
H1020 C1004 0.931 . S
H1021 C1009 0.929 . S
H1022 C1010 0.960 . S
H1023 C1010 0.962 . S
H1024 C1010 0.960 . S
H1025 C1011 0.961 . S
H1026 C1011 0.961 . S
H1027 C1011 0.961 . S
H1028 C1012 0.931 . S
H1029 C1017 0.930 . S
H1030 C1018 0.956 . S
H1031 C1018 0.961 . S
H1032 C1018 0.961 . S
H1033 C1019 0.958 . S
H1034 C1019 0.961 . S
H1035 C1019 0.960 . S
C1036 C1037 1.391 . S
C1036 C1038 1.394 . S
C1036 H1052 0.931 . S
C1037 C1036 1.391 . S
C1037 C1041 1.376 . S
C1038 C1036 1.394 . S
C1038 C1039 1.369 . S
C1038 C1042 1.531 . S
C1039 C1038 1.369 . S
C1039 C1040 1.410 . S
C1039 C1047 1.503 . S
C1040 C1039 1.410 . S
C1040 C1041 1.392 . S
C1040 C1043 1.511 . S
C1041 C1037 1.376 . S
C1041 C1040 1.392 . S
C1041 H1053 0.929 . S
C1042 C1038 1.531 . S
C1042 H1054 0.960 . S
C1042 H1055 0.962 . S
C1042 H1056 0.960 . S
C1043 C1040 1.511 . S
C1043 H1057 0.961 . S
C1043 H1058 0.961 . S
C1043 H1059 0.961 1_545 S
C1044 C1045 1.370 . S
C1044 C1046 1.363 . S
C1044 H1060 0.931 . S
C1045 C1044 1.370 . S
C1045 C1049 1.408 . S
C1046 C1044 1.363 . S
C1046 C1047 1.370 . S
C1046 C1050 1.524 . S
C1047 C1039 1.503 . S
C1047 C1046 1.370 . S
C1047 C1048 1.403 . S
C1048 C1047 1.403 . S
C1048 C1049 1.404 . S
C1048 C1051 1.539 1_545 S
C1049 C1045 1.408 . S
C1049 C1048 1.404 . S
C1049 H1061 0.930 . S
C1050 C1046 1.524 . S
C1050 H1062 0.956 . S
C1050 H1063 0.961 . S
C1050 H1064 0.961 . S
C1051 C1048 1.539 1_565 S
C1051 H1065 0.958 1_565 S
C1051 H1066 0.961 . S
C1051 H1067 0.960 . S
H1052 C1036 0.931 . S
H1053 C1041 0.929 . S
H1054 C1042 0.960 . S
H1055 C1042 0.962 . S
H1056 C1042 0.960 . S
H1057 C1043 0.961 . S
H1058 C1043 0.961 . S
H1059 C1043 0.961 1_565 S
H1060 C1044 0.931 . S
H1061 C1049 0.930 . S
H1062 C1050 0.956 . S
H1063 C1050 0.961 . S
H1064 C1050 0.961 . S
H1065 C1051 0.958 1_545 S
H1066 C1051 0.961 . S
H1067 C1051 0.960 . S
C1068 C1069 1.391 . S
C1068 C1070 1.394 . S
C1068 H1084 0.931 . S
C1069 C1068 1.391 . S
C1069 C1073 1.376 . S
C1070 C1068 1.394 . S
C1070 C1071 1.369 . S
C1070 C1074 1.531 . S
C1071 C1070 1.369 . S
C1071 C1072 1.410 . S
C1071 C1079 1.503 . S
C1072 C1071 1.410 . S
C1072 C1073 1.392 . S
C1072 C1075 1.511 . S
C1073 C1069 1.376 . S
C1073 C1072 1.392 . S
C1073 H1085 0.929 . S
C1074 C1070 1.531 . S
C1074 H1086 0.960 . S
C1074 H1087 0.962 . S
C1074 H1088 0.960 . S
C1075 C1072 1.511 . S
C1075 H1089 0.961 . S
C1075 H1090 0.961 . S
C1075 H1091 0.961 . S
C1076 C1077 1.370 . S
C1076 C1078 1.363 . S
C1076 H1092 0.931 . S
C1077 C1076 1.370 . S
C1077 C1081 1.408 . S
C1078 C1076 1.363 . S
C1078 C1079 1.370 . S
C1078 C1082 1.524 . S
C1079 C1071 1.503 . S
C1079 C1078 1.370 . S
C1079 C1080 1.403 . S
C1080 C1079 1.403 . S
C1080 C1081 1.404 . S
C1080 C1083 1.539 . S
C1081 C1077 1.408 . S
C1081 C1080 1.404 . S
C1081 H1093 0.930 . S
C1082 C1078 1.524 . S
C1082 H1094 0.956 . S
C1082 H1095 0.961 . S
C1082 H1096 0.961 . S
C1083 C1080 1.539 . S
C1083 H1097 0.958 . S
C1083 H1098 0.961 . S
C1083 H1099 0.960 . S
H1084 C1068 0.931 . S
H1085 C1073 0.929 . S
H1086 C1074 0.960 . S
H1087 C1074 0.962 . S
H1088 C1074 0.960 . S
H1089 C1075 0.961 . S
H1090 C1075 0.961 . S
H1091 C1075 0.961 . S
H1092 C1076 0.931 . S
H1093 C1081 0.930 . S
H1094 C1082 0.956 . S
H1095 C1082 0.961 . S
H1096 C1082 0.961 . S
H1097 C1083 0.958 . S
H1098 C1083 0.961 . S
H1099 C1083 0.960 . S
C1100 C1101 1.391 . S
C1100 C1102 1.394 . S
C1100 H1116 0.931 . S
C1101 C1100 1.391 . S
C1101 C1105 1.376 . S
C1102 C1100 1.394 . S
C1102 C1103 1.369 . S
C1102 C1106 1.531 . S
C1103 C1102 1.369 . S
C1103 C1104 1.410 . S
C1103 C1111 1.503 . S
C1104 C1103 1.410 . S
C1104 C1105 1.392 . S
C1104 C1107 1.511 . S
C1105 C1101 1.376 . S
C1105 C1104 1.392 . S
C1105 H1117 0.929 . S
C1106 C1102 1.531 . S
C1106 H1118 0.960 . S
C1106 H1119 0.962 . S
C1106 H1120 0.960 . S
C1107 C1104 1.511 . S
C1107 H1121 0.961 . S
C1107 H1122 0.961 . S
C1107 H1123 0.961 . S
C1108 C1109 1.370 . S
C1108 C1110 1.363 . S
C1108 H1124 0.931 . S
C1109 C1108 1.370 . S
C1109 C1113 1.408 . S
C1110 C1108 1.363 . S
C1110 C1111 1.370 . S
C1110 C1114 1.524 . S
C1111 C1103 1.503 . S
C1111 C1110 1.370 . S
C1111 C1112 1.403 . S
C1112 C1111 1.403 . S
C1112 C1113 1.404 . S
C1112 C1115 1.539 . S
C1113 C1109 1.408 . S
C1113 C1112 1.404 . S
C1113 H1125 0.930 . S
C1114 C1110 1.524 . S
C1114 H1126 0.956 1_655 S
C1114 H1127 0.961 . S
C1114 H1128 0.961 1_655 S
C1115 C1112 1.539 . S
C1115 H1129 0.958 . S
C1115 H1130 0.961 . S
C1115 H1131 0.960 . S
H1116 C1100 0.931 . S
H1117 C1105 0.929 . S
H1118 C1106 0.960 . S
H1119 C1106 0.962 . S
H1120 C1106 0.960 . S
H1121 C1107 0.961 . S
H1122 C1107 0.961 . S
H1123 C1107 0.961 . S
H1124 C1108 0.931 . S
H1125 C1113 0.930 . S
H1126 C1114 0.956 1_455 S
H1127 C1114 0.961 . S
H1128 C1114 0.961 1_455 S
H1129 C1115 0.958 . S
H1130 C1115 0.961 . S
H1131 C1115 0.960 . S
C1132 C1133 1.391 . S
C1132 C1134 1.394 . S
C1132 H1148 0.931 . S
C1133 C1132 1.391 . S
C1133 C1137 1.376 . S
C1134 C1132 1.394 . S
C1134 C1135 1.369 . S
C1134 C1138 1.531 1_565 S
C1135 C1134 1.369 . S
C1135 C1136 1.410 . S
C1135 C1143 1.503 . S
C1136 C1135 1.410 . S
C1136 C1137 1.392 . S
C1136 C1139 1.511 . S
C1137 C1133 1.376 . S
C1137 C1136 1.392 . S
C1137 H1149 0.929 . S
C1138 C1134 1.531 1_545 S
C1138 H1150 0.960 . S
C1138 H1151 0.962 1_545 S
C1138 H1152 0.960 . S
C1139 C1136 1.511 . S
C1139 H1153 0.961 . S
C1139 H1154 0.961 . S
C1139 H1155 0.961 . S
C1140 C1141 1.370 . S
C1140 C1142 1.363 . S
C1140 H1156 0.931 . S
C1141 C1140 1.370 . S
C1141 C1145 1.408 . S
C1142 C1140 1.363 . S
C1142 C1143 1.370 . S
C1142 C1146 1.524 . S
C1143 C1135 1.503 . S
C1143 C1142 1.370 . S
C1143 C1144 1.403 . S
C1144 C1143 1.403 . S
C1144 C1145 1.404 . S
C1144 C1147 1.539 . S
C1145 C1141 1.408 . S
C1145 C1144 1.404 . S
C1145 H1157 0.930 . S
C1146 C1142 1.524 . S
C1146 H1158 0.956 . S
C1146 H1159 0.961 . S
C1146 H1160 0.961 . S
C1147 C1144 1.539 . S
C1147 H1161 0.958 1_565 S
C1147 H1162 0.961 . S
C1147 H1163 0.960 . S
H1148 C1132 0.931 . S
H1149 C1137 0.929 . S
H1150 C1138 0.960 . S
H1151 C1138 0.962 1_565 S
H1152 C1138 0.960 . S
H1153 C1139 0.961 . S
H1154 C1139 0.961 . S
H1155 C1139 0.961 . S
H1156 C1140 0.931 . S
H1157 C1145 0.930 . S
H1158 C1146 0.956 . S
H1159 C1146 0.961 . S
H1160 C1146 0.961 . S
H1161 C1147 0.958 1_545 S
H1162 C1147 0.961 . S
H1163 C1147 0.960 . S
C1164 C1165 1.391 . S
C1164 C1166 1.394 . S
C1164 H1180 0.931 . S
C1165 C1164 1.391 . S
C1165 C1169 1.376 . S
C1166 C1164 1.394 . S
C1166 C1167 1.369 . S
C1166 C1170 1.531 . S
C1167 C1166 1.369 . S
C1167 C1168 1.410 . S
C1167 C1175 1.503 . S
C1168 C1167 1.410 . S
C1168 C1169 1.392 . S
C1168 C1171 1.511 . S
C1169 C1165 1.376 . S
C1169 C1168 1.392 . S
C1169 H1181 0.929 . S
C1170 C1166 1.531 . S
C1170 H1182 0.960 . S
C1170 H1183 0.962 . S
C1170 H1184 0.960 . S
C1171 C1168 1.511 . S
C1171 H1185 0.961 . S
C1171 H1186 0.961 . S
C1171 H1187 0.961 . S
C1172 C1173 1.370 . S
C1172 C1174 1.363 . S
C1172 H1188 0.931 . S
C1173 C1172 1.370 . S
C1173 C1177 1.408 . S
C1174 C1172 1.363 . S
C1174 C1175 1.370 . S
C1174 C1178 1.524 . S
C1175 C1167 1.503 . S
C1175 C1174 1.370 . S
C1175 C1176 1.403 . S
C1176 C1175 1.403 . S
C1176 C1177 1.404 . S
C1176 C1179 1.539 . S
C1177 C1173 1.408 . S
C1177 C1176 1.404 . S
C1177 H1189 0.930 . S
C1178 C1174 1.524 . S
C1178 H1190 0.956 . S
C1178 H1191 0.961 . S
C1178 H1192 0.961 . S
C1179 C1176 1.539 . S
C1179 H1193 0.958 . S
C1179 H1194 0.961 . S
C1179 H1195 0.960 . S
H1180 C1164 0.931 . S
H1181 C1169 0.929 . S
H1182 C1170 0.960 . S
H1183 C1170 0.962 . S
H1184 C1170 0.960 . S
H1185 C1171 0.961 . S
H1186 C1171 0.961 . S
H1187 C1171 0.961 . S
H1188 C1172 0.931 . S
H1189 C1177 0.930 . S
H1190 C1178 0.956 . S
H1191 C1178 0.961 . S
H1192 C1178 0.961 . S
H1193 C1179 0.958 . S
H1194 C1179 0.961 . S
H1195 C1179 0.960 . S
C1196 C1197 1.391 1_655 S
C1196 C1198 1.394 . S
C1196 H1212 0.931 . S
C1197 C1196 1.391 1_455 S
C1197 C1201 1.376 . S
C1198 C1196 1.394 . S
C1198 C1199 1.369 1_655 S
C1198 C1202 1.531 . S
C1199 C1198 1.369 1_455 S
C1199 C1200 1.410 . S
C1199 C1207 1.503 . S
C1200 C1199 1.410 . S
C1200 C1201 1.392 . S
C1200 C1203 1.511 . S
C1201 C1197 1.376 . S
C1201 C1200 1.392 . S
C1201 H1213 0.929 . S
C1202 C1198 1.531 . S
C1202 H1214 0.960 . S
C1202 H1215 0.962 . S
C1202 H1216 0.960 . S
C1203 C1200 1.511 . S
C1203 H1217 0.961 . S
C1203 H1218 0.961 . S
C1203 H1219 0.961 . S
C1204 C1205 1.370 1_655 S
C1204 C1206 1.363 . S
C1204 H1220 0.931 . S
C1205 C1204 1.370 1_455 S
C1205 C1209 1.408 . S
C1206 C1204 1.363 . S
C1206 C1207 1.370 1_655 S
C1206 C1210 1.524 . S
C1207 C1199 1.503 . S
C1207 C1206 1.370 1_455 S
C1207 C1208 1.403 . S
C1208 C1207 1.403 . S
C1208 C1209 1.404 . S
C1208 C1211 1.539 . S
C1209 C1205 1.408 . S
C1209 C1208 1.404 . S
C1209 H1221 0.930 . S
C1210 C1206 1.524 . S
C1210 H1222 0.956 . S
C1210 H1223 0.961 . S
C1210 H1224 0.961 . S
C1211 C1208 1.539 . S
C1211 H1225 0.958 . S
C1211 H1226 0.961 . S
C1211 H1227 0.960 . S
H1212 C1196 0.931 . S
H1213 C1201 0.929 . S
H1214 C1202 0.960 . S
H1215 C1202 0.962 . S
H1216 C1202 0.960 . S
H1217 C1203 0.961 . S
H1218 C1203 0.961 . S
H1219 C1203 0.961 . S
H1220 C1204 0.931 . S
H1221 C1209 0.930 . S
H1222 C1210 0.956 . S
H1223 C1210 0.961 . S
H1224 C1210 0.961 . S
H1225 C1211 0.958 . S
H1226 C1211 0.961 . S
H1227 C1211 0.960 . S
C1228 C1229 1.391 . S
C1228 C1230 1.394 . S
C1228 H1244 0.931 . S
C1229 C1228 1.391 . S
C1229 C1233 1.376 1_545 S
C1230 C1228 1.394 . S
C1230 C1231 1.369 . S
C1230 C1234 1.531 . S
C1231 C1230 1.369 . S
C1231 C1232 1.410 1_545 S
C1231 C1239 1.503 1_556 S
C1232 C1231 1.410 1_565 S
C1232 C1233 1.392 . S
C1232 C1235 1.511 . S
C1233 C1229 1.376 1_565 S
C1233 C1232 1.392 . S
C1233 H1245 0.929 . S
C1234 C1230 1.531 . S
C1234 H1246 0.963 . S
C1234 H1247 0.962 . S
C1234 H1248 0.960 . S
C1235 C1232 1.511 . S
C1235 H1249 0.961 . S
C1235 H1250 0.930 1_556 S
C1235 H1251 0.961 . S
C1236 C1237 1.370 1_565 S
C1236 C1238 1.363 . S
C1236 H1252 0.931 . S
C1237 C1236 1.370 1_545 S
C1237 C1241 1.408 . S
C1238 C1236 1.363 . S
C1238 C1239 1.370 1_565 S
C1238 C1242 1.524 . S
C1239 C1231 1.503 1_554 S
C1239 C1238 1.370 1_545 S
C1239 C1240 1.403 . S
C1240 C1239 1.403 . S
C1240 C1241 1.404 . S
C1240 C1243 1.539 . S
C1241 C1237 1.408 . S
C1241 C1240 1.404 . S
C1241 H1253 0.930 . S
C1242 C1238 1.524 . S
C1242 H1254 0.937 1_554 S
C1242 H1255 0.961 1_554 S
C1242 H1256 0.961 . S
C1243 C1240 1.539 . S
C1243 H1257 0.958 . S
C1243 H1258 0.961 . S
C1243 H1259 0.960 1_554 S
H1244 C1228 0.931 . S
H1245 C1233 0.929 . S
H1246 C1234 0.963 . S
H1247 C1234 0.962 . S
H1248 C1234 0.960 . S
H1249 C1235 0.961 . S
H1250 C1235 0.930 1_554 S
H1251 C1235 0.961 . S
H1252 C1236 0.931 . S
H1253 C1241 0.930 . S
H1254 C1242 0.937 1_556 S
H1255 C1242 0.961 1_556 S
H1256 C1242 0.961 . S
H1257 C1243 0.958 . S
H1258 C1243 0.961 . S
H1259 C1243 0.960 1_556 S
C1260 C1261 1.391 . S
C1260 C1262 1.394 . S
C1260 H1276 0.931 . S
C1261 C1260 1.391 . S
C1261 C1265 1.376 . S
C1262 C1260 1.394 . S
C1262 C1263 1.369 . S
C1262 C1266 1.531 . S
C1263 C1262 1.369 . S
C1263 C1264 1.410 . S
C1263 C1271 1.503 . S
C1264 C1263 1.410 . S
C1264 C1265 1.392 . S
C1264 C1267 1.511 . S
C1265 C1261 1.376 . S
C1265 C1264 1.392 . S
C1265 H1277 0.929 . S
C1266 C1262 1.531 . S
C1266 H1278 0.960 . S
C1266 H1279 0.962 . S
C1266 H1280 0.960 . S
C1267 C1264 1.511 . S
C1267 H1281 0.961 . S
C1267 H1282 0.961 . S
C1267 H1283 0.961 . S
C1268 C1269 1.370 . S
C1268 C1270 1.363 . S
C1268 H1284 0.931 . S
C1269 C1268 1.370 . S
C1269 C1273 1.408 . S
C1270 C1268 1.363 . S
C1270 C1271 1.370 . S
C1270 C1274 1.524 . S
C1271 C1263 1.503 . S
C1271 C1270 1.370 . S
C1271 C1272 1.403 . S
C1272 C1271 1.403 . S
C1272 C1273 1.404 . S
C1272 C1275 1.539 . S
C1273 C1269 1.408 . S
C1273 C1272 1.404 . S
C1273 H1285 0.930 . S
C1274 C1270 1.524 . S
C1274 H1286 0.956 . S
C1274 H1287 0.961 . S
C1274 H1288 0.961 . S
C1275 C1272 1.539 . S
C1275 H1289 0.958 . S
C1275 H1290 0.961 . S
C1275 H1291 0.960 . S
H1276 C1260 0.931 . S
H1277 C1265 0.929 . S
H1278 C1266 0.960 . S
H1279 C1266 0.962 . S
H1280 C1266 0.960 . S
H1281 C1267 0.961 . S
H1282 C1267 0.961 . S
H1283 C1267 0.961 . S
H1284 C1268 0.931 . S
H1285 C1273 0.930 . S
H1286 C1274 0.956 . S
H1287 C1274 0.961 . S
H1288 C1274 0.961 . S
H1289 C1275 0.958 . S
H1290 C1275 0.961 . S
H1291 C1275 0.960 . S
C1292 C1293 1.391 1_655 S
C1292 C1294 1.394 . S
C1292 H1308 0.931 . S
C1293 C1292 1.391 1_455 S
C1293 C1297 1.376 . S
C1294 C1292 1.394 . S
C1294 C1295 1.369 1_655 S
C1294 C1298 1.531 . S
C1295 C1294 1.369 1_455 S
C1295 C1296 1.410 . S
C1295 C1303 1.503 . S
C1296 C1295 1.410 . S
C1296 C1297 1.392 . S
C1296 C1299 1.511 . S
C1297 C1293 1.376 . S
C1297 C1296 1.392 . S
C1297 H1309 0.929 . S
C1298 C1294 1.531 . S
C1298 H1310 0.960 . S
C1298 H1311 0.962 . S
C1298 H1312 0.960 . S
C1299 C1296 1.511 . S
C1299 H1313 0.961 . S
C1299 H1314 0.961 . S
C1299 H1315 0.961 . S
C1300 C1301 1.371 1_655 S
C1300 C1302 1.363 . S
C1300 H1316 0.931 . S
C1301 C1300 1.371 1_455 S
C1301 C1305 1.407 . S
C1302 C1300 1.363 . S
C1302 C1303 1.370 1_655 S
C1302 C1306 1.524 . S
C1303 C1295 1.503 . S
C1303 C1302 1.370 1_455 S
C1303 C1304 1.403 . S
C1304 C1303 1.403 . S
C1304 C1305 1.404 . S
C1304 C1307 1.539 . S
C1305 C1301 1.407 . S
C1305 C1304 1.404 . S
C1305 H1317 0.930 . S
C1306 C1302 1.524 . S
C1306 H1318 0.956 . S
C1306 H1319 0.961 . S
C1306 H1320 0.961 . S
C1307 C1304 1.539 . S
C1307 H1321 0.958 . S
C1307 H1322 0.961 . S
C1307 H1323 0.960 . S
H1308 C1292 0.931 . S
H1309 C1297 0.929 . S
H1310 C1298 0.960 . S
H1311 C1298 0.962 . S
H1312 C1298 0.960 . S
H1313 C1299 0.961 . S
H1314 C1299 0.961 . S
H1315 C1299 0.961 . S
H1316 C1300 0.931 . S
H1317 C1305 0.930 . S
H1318 C1306 0.956 . S
H1319 C1306 0.961 . S
H1320 C1306 0.961 . S
H1321 C1307 0.958 . S
H1322 C1307 0.961 . S
H1323 C1307 0.960 . S
C1324 C1325 1.391 . S
C1324 C1326 1.394 . S
C1324 H1340 0.931 . S
C1325 C1324 1.391 . S
C1325 C1329 1.376 . S
C1326 C1324 1.394 . S
C1326 C1327 1.369 . S
C1326 C1330 1.531 . S
C1327 C1326 1.369 . S
C1327 C1328 1.410 . S
C1327 C1335 1.503 . S
C1328 C1327 1.410 . S
C1328 C1329 1.392 . S
C1328 C1331 1.511 . S
C1329 C1325 1.376 . S
C1329 C1328 1.392 . S
C1329 H1341 0.929 1_565 S
C1330 C1326 1.531 . S
C1330 H1342 0.960 . S
C1330 H1343 0.962 1_565 S
C1330 H1344 0.960 . S
C1331 C1328 1.511 . S
C1331 H1345 0.961 1_565 S
C1331 H1346 0.961 1_565 S
C1331 H1347 0.961 . S
C1332 C1333 1.356 1_545 S
C1332 C1334 1.363 . S
C1332 H1348 0.931 . S
C1333 C1332 1.356 1_565 S
C1333 C1337 1.425 . S
C1334 C1332 1.363 . S
C1334 C1335 1.370 1_545 S
C1334 C1338 1.524 . S
C1335 C1327 1.503 . S
C1335 C1334 1.370 1_565 S
C1335 C1336 1.403 . S
C1336 C1335 1.403 . S
C1336 C1337 1.404 . S
C1336 C1339 1.539 . S
C1337 C1333 1.425 . S
C1337 C1336 1.404 . S
C1337 H1349 0.930 . S
C1338 C1334 1.524 . S
C1338 H1350 0.956 . S
C1338 H1351 0.961 . S
C1338 H1352 0.961 . S
C1339 C1336 1.539 . S
C1339 H1353 0.958 . S
C1339 H1354 0.961 . S
C1339 H1355 0.960 . S
H1340 C1324 0.931 . S
H1341 C1329 0.929 1_545 S
H1342 C1330 0.960 . S
H1343 C1330 0.962 1_545 S
H1344 C1330 0.960 . S
H1345 C1331 0.961 1_545 S
H1346 C1331 0.961 1_545 S
H1347 C1331 0.961 . S
H1348 C1332 0.931 . S
H1349 C1337 0.930 . S
H1350 C1338 0.956 . S
H1351 C1338 0.961 . S
H1352 C1338 0.961 . S
H1353 C1339 0.958 . S
H1354 C1339 0.961 . S
H1355 C1339 0.960 . S
C397 C292 0.707 . S
C405 C28 0.728 . S
C429 C61 0.768 . S
C437 C325 0.686 . S
C461 C94 0.719 . S
C469 C358 0.724 . S
C493 C127 0.731 . S
C501 C391 0.720 . S
C525 C160 0.701 . S
C533 C226 0.730 . S
C557 C193 0.659 . S
C565 C259 0.715 . S
C589 N5 1.735 . S
C597 C173 1.760 . S
C621 C8 1.749 . S
C629 N38 1.719 . S
C653 N71 1.735 . S
C661 C41 1.747 . S
C685 C74 1.729 . S
C693 N104 1.725 . S
C717 C107 1.749 1_554 S
C725 N137 1.719 . S
C749 N170 1.739 . S
C757 C140 1.760 . S
C781 C239 1.732 . S
C789 N203 1.722 . S
C813 C272 1.730 . S
C821 N236 1.725 . S
C845 C305 1.759 . S
C853 N269 1.739 . S
C877 C338 1.746 . S
C885 N302 1.719 . S
C909 C371 1.766 . S
C917 N335 1.734 . S
C941 N368 1.731 . S
C949 C206 1.746 . S
C973 C17 1.303 . S
C981 C215 1.301 . S
C1005 C50 1.303 . S
C1013 C248 1.301 . S
C1037 C83 1.303 . S
C1045 C281 1.302 . S
C1069 C116 1.302 . S
C1077 C314 1.303 . S
C1101 C347 1.294 . S
C1109 C149 1.301 . S
C1133 C182 1.297 . S
C1141 C380 1.304 . S
C1165 N311 0.827 . S
C1173 N14 0.928 . S
C1197 N47 0.833 . S
C1205 N344 0.924 1_455 S
C1229 N80 0.848 . S
C1237 N377 0.923 1_545 S
C1261 N113 0.830 . S
C1269 N212 0.926 . S
C1293 N146 0.937 1_455 S
C1301 N245 0.887 . S
C1325 N278 0.965 1_565 S
C1333 N179 0.880 . S
