# Generated by pormake.
# Topology uma, (4)-cn, num edge types: 1
# Building blocks:
#     Node 0, Type 0, BuildingBlock: ESEHIV_clean_sbu_0, # of connection points: 4
#     Node 1, Type 0, BuildingBlock: ESEHIV_clean_sbu_0, # of connection points: 4
#     Node 2, Type 0, BuildingBlock: ESEHIV_clean_sbu_0, # of connection points: 4
#     Node 3, Type 0, BuildingBlock: ESEHIV_clean_sbu_0, # of connection points: 4
#     Node 4, Type 0, BuildingBlock: ESEHIV_clean_sbu_0, # of connection points: 4
#     Node 5, Type 0, BuildingBlock: ESEHIV_clean_sbu_0, # of connection points: 4
#     Node 6, Type 0, BuildingBlock: ESEHIV_clean_sbu_0, # of connection points: 4
#     Node 7, Type 0, BuildingBlock: ESEHIV_clean_sbu_0, # of connection points: 4
#     Node 8, Type 0, BuildingBlock: ESEHIV_clean_sbu_0, # of connection points: 4
#     Node 9, Type 0, BuildingBlock: ESEHIV_clean_sbu_0, # of connection points: 4
#     Node 10, Type 0, BuildingBlock: ESEHIV_clean_sbu_0, # of connection points: 4
#     Node 11, Type 0, BuildingBlock: ESEHIV_clean_sbu_0, # of connection points: 4
#     Node 12, Type 0, BuildingBlock: ESEHIV_clean_sbu_0, # of connection points: 4
#     Node 13, Type 0, BuildingBlock: ESEHIV_clean_sbu_0, # of connection points: 4
#     Node 14, Type 0, BuildingBlock: ESEHIV_clean_sbu_0, # of connection points: 4
#     Node 15, Type 0, BuildingBlock: ESEHIV_clean_sbu_0, # of connection points: 4
#     Node 16, Type 0, BuildingBlock: ESEHIV_clean_sbu_0, # of connection points: 4
#     Node 17, Type 0, BuildingBlock: ESEHIV_clean_sbu_0, # of connection points: 4
#     Node 18, Type 0, BuildingBlock: ESEHIV_clean_sbu_0, # of connection points: 4
#     Node 19, Type 0, BuildingBlock: ESEHIV_clean_sbu_0, # of connection points: 4
#     Node 20, Type 0, BuildingBlock: ESEHIV_clean_sbu_0, # of connection points: 4
#     Node 21, Type 0, BuildingBlock: ESEHIV_clean_sbu_0, # of connection points: 4
#     Node 22, Type 0, BuildingBlock: ESEHIV_clean_sbu_0, # of connection points: 4
#     Node 23, Type 0, BuildingBlock: ESEHIV_clean_sbu_0, # of connection points: 4
#     Node 24, Type 0, BuildingBlock: ESEHIV_clean_sbu_0, # of connection points: 4
#     Node 25, Type 0, BuildingBlock: ESEHIV_clean_sbu_0, # of connection points: 4
#     Node 26, Type 0, BuildingBlock: ESEHIV_clean_sbu_0, # of connection points: 4
#     Node 27, Type 0, BuildingBlock: ESEHIV_clean_sbu_0, # of connection points: 4
#     Node 28, Type 0, BuildingBlock: ESEHIV_clean_sbu_0, # of connection points: 4
#     Node 29, Type 0, BuildingBlock: ESEHIV_clean_sbu_0, # of connection points: 4
#     Node 30, Type 0, BuildingBlock: ESEHIV_clean_sbu_0, # of connection points: 4
#     Node 31, Type 0, BuildingBlock: ESEHIV_clean_sbu_0, # of connection points: 4
#     Node 32, Type 0, BuildingBlock: ESEHIV_clean_sbu_0, # of connection points: 4
#     Node 33, Type 0, BuildingBlock: ESEHIV_clean_sbu_0, # of connection points: 4
#     Node 34, Type 0, BuildingBlock: ESEHIV_clean_sbu_0, # of connection points: 4
#     Node 35, Type 0, BuildingBlock: ESEHIV_clean_sbu_0, # of connection points: 4
#     Edge 36, Type (0, 0), BuildingBlock: KIFKEQ_clean_linker_1, # of connection points: 2
#     Edge 37, Type (0, 0), BuildingBlock: KIFKEQ_clean_linker_1, # of connection points: 2
#     Edge 38, Type (0, 0), BuildingBlock: KIFKEQ_clean_linker_1, # of connection points: 2
#     Edge 39, Type (0, 0), BuildingBlock: KIFKEQ_clean_linker_1, # of connection points: 2
#     Edge 40, Type (0, 0), BuildingBlock: KIFKEQ_clean_linker_1, # of connection points: 2
#     Edge 41, Type (0, 0), BuildingBlock: KIFKEQ_clean_linker_1, # of connection points: 2
#     Edge 42, Type (0, 0), BuildingBlock: KIFKEQ_clean_linker_1, # of connection points: 2
#     Edge 43, Type (0, 0), BuildingBlock: KIFKEQ_clean_linker_1, # of connection points: 2
#     Edge 44, Type (0, 0), BuildingBlock: KIFKEQ_clean_linker_1, # of connection points: 2
#     Edge 45, Type (0, 0), BuildingBlock: KIFKEQ_clean_linker_1, # of connection points: 2
#     Edge 46, Type (0, 0), BuildingBlock: KIFKEQ_clean_linker_1, # of connection points: 2
#     Edge 47, Type (0, 0), BuildingBlock: KIFKEQ_clean_linker_1, # of connection points: 2
#     Edge 48, Type (0, 0), BuildingBlock: KIFKEQ_clean_linker_1, # of connection points: 2
#     Edge 49, Type (0, 0), BuildingBlock: KIFKEQ_clean_linker_1, # of connection points: 2
#     Edge 50, Type (0, 0), BuildingBlock: KIFKEQ_clean_linker_1, # of connection points: 2
#     Edge 51, Type (0, 0), BuildingBlock: KIFKEQ_clean_linker_1, # of connection points: 2
#     Edge 52, Type (0, 0), BuildingBlock: KIFKEQ_clean_linker_1, # of connection points: 2
#     Edge 53, Type (0, 0), BuildingBlock: KIFKEQ_clean_linker_1, # of connection points: 2
#     Edge 54, Type (0, 0), BuildingBlock: KIFKEQ_clean_linker_1, # of connection points: 2
#     Edge 55, Type (0, 0), BuildingBlock: KIFKEQ_clean_linker_1, # of connection points: 2
#     Edge 56, Type (0, 0), BuildingBlock: KIFKEQ_clean_linker_1, # of connection points: 2
#     Edge 57, Type (0, 0), BuildingBlock: KIFKEQ_clean_linker_1, # of connection points: 2
#     Edge 58, Type (0, 0), BuildingBlock: KIFKEQ_clean_linker_1, # of connection points: 2
#     Edge 59, Type (0, 0), BuildingBlock: KIFKEQ_clean_linker_1, # of connection points: 2
#     Edge 60, Type (0, 0), BuildingBlock: KIFKEQ_clean_linker_1, # of connection points: 2
#     Edge 61, Type (0, 0), BuildingBlock: KIFKEQ_clean_linker_1, # of connection points: 2
#     Edge 62, Type (0, 0), BuildingBlock: KIFKEQ_clean_linker_1, # of connection points: 2
#     Edge 63, Type (0, 0), BuildingBlock: KIFKEQ_clean_linker_1, # of connection points: 2
#     Edge 64, Type (0, 0), BuildingBlock: KIFKEQ_clean_linker_1, # of connection points: 2
#     Edge 65, Type (0, 0), BuildingBlock: KIFKEQ_clean_linker_1, # of connection points: 2
#     Edge 66, Type (0, 0), BuildingBlock: KIFKEQ_clean_linker_1, # of connection points: 2
#     Edge 67, Type (0, 0), BuildingBlock: KIFKEQ_clean_linker_1, # of connection points: 2
#     Edge 68, Type (0, 0), BuildingBlock: KIFKEQ_clean_linker_1, # of connection points: 2
#     Edge 69, Type (0, 0), BuildingBlock: KIFKEQ_clean_linker_1, # of connection points: 2
#     Edge 70, Type (0, 0), BuildingBlock: KIFKEQ_clean_linker_1, # of connection points: 2
#     Edge 71, Type (0, 0), BuildingBlock: KIFKEQ_clean_linker_1, # of connection points: 2
#     Edge 72, Type (0, 0), BuildingBlock: KIFKEQ_clean_linker_1, # of connection points: 2
#     Edge 73, Type (0, 0), BuildingBlock: KIFKEQ_clean_linker_1, # of connection points: 2
#     Edge 74, Type (0, 0), BuildingBlock: KIFKEQ_clean_linker_1, # of connection points: 2
#     Edge 75, Type (0, 0), BuildingBlock: KIFKEQ_clean_linker_1, # of connection points: 2
#     Edge 76, Type (0, 0), BuildingBlock: KIFKEQ_clean_linker_1, # of connection points: 2
#     Edge 77, Type (0, 0), BuildingBlock: KIFKEQ_clean_linker_1, # of connection points: 2
#     Edge 78, Type (0, 0), BuildingBlock: KIFKEQ_clean_linker_1, # of connection points: 2
#     Edge 79, Type (0, 0), BuildingBlock: KIFKEQ_clean_linker_1, # of connection points: 2
#     Edge 80, Type (0, 0), BuildingBlock: KIFKEQ_clean_linker_1, # of connection points: 2
#     Edge 81, Type (0, 0), BuildingBlock: KIFKEQ_clean_linker_1, # of connection points: 2
#     Edge 82, Type (0, 0), BuildingBlock: KIFKEQ_clean_linker_1, # of connection points: 2
#     Edge 83, Type (0, 0), BuildingBlock: KIFKEQ_clean_linker_1, # of connection points: 2
#     Edge 84, Type (0, 0), BuildingBlock: KIFKEQ_clean_linker_1, # of connection points: 2
#     Edge 85, Type (0, 0), BuildingBlock: KIFKEQ_clean_linker_1, # of connection points: 2
#     Edge 86, Type (0, 0), BuildingBlock: KIFKEQ_clean_linker_1, # of connection points: 2
#     Edge 87, Type (0, 0), BuildingBlock: KIFKEQ_clean_linker_1, # of connection points: 2
#     Edge 88, Type (0, 0), BuildingBlock: KIFKEQ_clean_linker_1, # of connection points: 2
#     Edge 89, Type (0, 0), BuildingBlock: KIFKEQ_clean_linker_1, # of connection points: 2
#     Edge 90, Type (0, 0), BuildingBlock: KIFKEQ_clean_linker_1, # of connection points: 2
#     Edge 91, Type (0, 0), BuildingBlock: KIFKEQ_clean_linker_1, # of connection points: 2
#     Edge 92, Type (0, 0), BuildingBlock: KIFKEQ_clean_linker_1, # of connection points: 2
#     Edge 93, Type (0, 0), BuildingBlock: KIFKEQ_clean_linker_1, # of connection points: 2
#     Edge 94, Type (0, 0), BuildingBlock: KIFKEQ_clean_linker_1, # of connection points: 2
#     Edge 95, Type (0, 0), BuildingBlock: KIFKEQ_clean_linker_1, # of connection points: 2
#     Edge 96, Type (0, 0), BuildingBlock: KIFKEQ_clean_linker_1, # of connection points: 2
#     Edge 97, Type (0, 0), BuildingBlock: KIFKEQ_clean_linker_1, # of connection points: 2
#     Edge 98, Type (0, 0), BuildingBlock: KIFKEQ_clean_linker_1, # of connection points: 2
#     Edge 99, Type (0, 0), BuildingBlock: KIFKEQ_clean_linker_1, # of connection points: 2
#     Edge 100, Type (0, 0), BuildingBlock: KIFKEQ_clean_linker_1, # of connection points: 2
#     Edge 101, Type (0, 0), BuildingBlock: KIFKEQ_clean_linker_1, # of connection points: 2
#     Edge 102, Type (0, 0), BuildingBlock: KIFKEQ_clean_linker_1, # of connection points: 2
#     Edge 103, Type (0, 0), BuildingBlock: KIFKEQ_clean_linker_1, # of connection points: 2
#     Edge 104, Type (0, 0), BuildingBlock: KIFKEQ_clean_linker_1, # of connection points: 2
#     Edge 105, Type (0, 0), BuildingBlock: KIFKEQ_clean_linker_1, # of connection points: 2
#     Edge 106, Type (0, 0), BuildingBlock: KIFKEQ_clean_linker_1, # of connection points: 2
#     Edge 107, Type (0, 0), BuildingBlock: KIFKEQ_clean_linker_1, # of connection points: 2
# Relax obj value: 0.123
# Max RMSD: 0.140
# Mean RMSD: 0.126
data_MOF--net-uma--node1-ESEHIV_clean_sbu_0--edge1-KIFKEQ_clean_linker_1
_symmetry_space_group_name_H-M    P1
_symmetry_Int_Tables_number       1
_symmetry_cell_setting            triclinic
loop_
_symmetry_equiv_pos_as_xyz
'x, y, z'
_cell_length_a     97.495986
_cell_length_b     97.44984
_cell_length_c     37.926537
_cell_angle_alpha  90.053831
_cell_angle_beta   89.990001
_cell_angle_gamma 120.05076
loop_
_atom_site_label
_atom_site_type_symbol
_atom_site_fract_x
_atom_site_fract_y
_atom_site_fract_z
_atom_type_partial_charge
Cu0 Cu 0.10485 0.37476 0.04942 0.0
N1 N 0.0852 0.3589 0.0666 0.0
N2 N 0.05922 0.34707 0.07907 0.0
C3 C 0.07258 0.36086 0.0715 0.0
C4 C 0.06373 0.33602 0.07908 0.0
C5 C 0.0797 0.34332 0.07114 0.0
O6 O 0.10742 0.39392 0.07306 0.0
C7 C 0.111 0.37902 0.97233 0.0
O8 O 0.12598 0.38927 0.97833 0.0
H9 H 0.07316 0.37217 0.06834 0.0
H10 H 0.08658 0.33753 0.06722 0.0
N11 N 0.12131 0.37063 0.06176 0.0
N12 N 0.14509 0.37229 0.06665 0.0
C13 C 0.13627 0.37723 0.04897 0.0
C14 C 0.12077 0.36122 0.08836 0.0
C15 C 0.13535 0.36224 0.09148 0.0
C16 C 0.11525 0.39882 0.10181 0.0
O17 O 0.12416 0.39294 0.11166 0.0
H18 H 0.14089 0.38601 0.02829 0.0
H19 H 0.11063 0.35448 0.10522 0.0
O20 O 0.10138 0.37324 0.99815 0.0
H21 H 0.05592 0.32341 0.08259 0.0
H22 H 0.13858 0.35616 0.11074 0.0
Cu23 Cu 0.63082 0.72707 0.02644 0.0
N24 N 0.62106 0.7058 1.01202 0.0
N25 N 0.62147 0.68307 1.00632 0.0
C26 C 0.62699 0.69682 0.02403 0.0
C27 C 0.61151 0.6833 0.98186 0.0
C28 C 0.61122 0.69735 0.98553 0.0
O29 O 0.63574 0.7246 0.07574 0.0
C30 C 0.64248 0.73791 0.9608 0.0
O31 O 0.62711 0.73171 0.9571 0.0
H32 H 0.63637 0.70102 0.04345 0.0
H33 H 0.60511 0.70148 0.96861 0.0
N34 N 0.61861 0.7373 0.0251 0.0
N35 N 0.61304 0.75714 0.02435 0.0
C36 C 0.62448 0.75316 0.02707 0.0
C37 C 0.6029 0.73101 0.02067 0.0
C38 C 0.59944 0.74315 0.02037 0.0
C39 C 0.62337 0.71732 0.0951 0.0
O40 O 0.60985 0.71508 0.08252 0.0
H41 H 0.63696 0.7616 0.0305 0.0
H42 H 0.59457 0.71849 1.01752 0.0
O43 O 0.64788 0.73806 0.99166 0.0
H44 H 0.60543 0.67434 0.96183 0.0
H45 H 0.58779 0.74174 1.01668 0.0
Cu46 Cu 0.28035 0.91874 0.05157 0.0
N47 N 0.27587 0.93492 0.0622 0.0
N48 N 0.2793 0.95941 0.06268 0.0
C49 C 0.28641 0.95057 0.06344 0.0
C50 C 0.26362 0.94892 0.0624 0.0
C51 C 0.26154 0.93382 0.062 0.0
O52 O 0.29964 0.92325 0.07866 0.0
C53 C 0.2871 0.93062 0.98088 0.0
O54 O 0.29545 0.94433 0.99668 0.0
H55 H 0.29907 0.95546 0.06183 0.0
H56 H 0.25042 0.92286 0.0588 0.0
N57 N 0.26308 0.89954 0.06803 0.0
N58 N 0.24183 0.87505 0.07209 0.0
C59 C 0.25407 0.88543 0.05158 0.0
C60 C 0.25636 0.89789 0.09988 0.0
C61 C 0.24332 0.88293 0.10243 0.0
C62 C 0.31368 0.93491 0.07409 0.0
O63 O 0.31668 0.94398 0.04628 0.0
H64 H 0.25612 0.883 0.02484 0.0
H65 H 0.2605 0.90712 0.11965 0.0
O66 O 0.28109 0.91796 0.99942 0.0
H67 H 0.25441 0.95194 0.05931 0.0
H68 H 0.23549 0.8782 0.12494 0.0
Cu69 Cu 0.38335 0.10846 0.99795 0.0
N70 N 0.36196 0.09503 0.98813 0.0
N71 N 0.33841 0.07285 0.99122 0.0
C72 C 0.35233 0.08222 1.00755 0.0
C73 C 0.33925 0.08016 0.96039 0.0
C74 C 0.35381 0.09391 0.95862 0.0
O75 O 0.39591 0.10241 0.96685 0.0
C76 C 0.38219 0.11394 0.07096 0.0
O77 O 0.37928 0.12479 0.0585 0.0
H78 H 0.35604 0.07912 0.0317 0.0
H79 H 0.35852 0.10195 0.93648 0.0
N80 N 0.38931 0.12961 0.98707 0.0
N81 N 0.38962 0.15248 0.97714 0.0
C82 C 0.38067 0.13699 0.9862 0.0
C83 C 0.4041 0.14078 0.97816 0.0
C84 C 0.40434 0.15481 0.97201 0.0
C85 C 0.39055 0.08857 0.95357 0.0
O86 O 0.37658 0.07715 0.96372 0.0
H87 H 0.36812 0.13113 0.992 0.0
H88 H 0.41407 0.13883 0.97645 0.0
O89 O 0.38539 0.10591 0.04918 0.0
H90 H 0.33034 0.0755 0.93986 0.0
H91 H 0.41466 0.16597 0.96495 0.0
Cu92 Cu 0.90958 0.28384 1.01689 0.0
N93 N 0.92128 0.3012 0.04678 0.0
N94 N 0.94487 0.31735 0.07175 0.0
C95 C 0.93708 0.30979 0.04216 0.0
C96 C 0.93342 0.31356 0.09613 0.0
C97 C 0.91886 0.30359 0.08065 0.0
O98 O 0.91885 0.29273 0.97014 0.0
C99 C 0.90691 0.26351 0.06939 0.0
O100 O 0.8956 0.26656 0.07728 0.0
H101 H 0.9429 0.30874 1.01884 0.0
H102 H 0.90762 0.29721 0.0942 0.0
N103 N 0.88725 0.27524 1.01666 0.0
N104 N 0.86116 0.257 1.01671 0.0
C105 C 0.87614 0.2598 1.01173 0.0
C106 C 0.87903 0.28251 0.02471 0.0
C107 C 0.86305 0.2714 0.02463 0.0
C108 C 0.9182 0.30525 0.96312 0.0
O109 O 0.90996 0.30898 0.98449 0.0
H110 H 0.87912 0.25071 1.00626 0.0
H111 H 0.88429 0.29495 0.03118 0.0
O112 O 0.91413 0.26855 0.03992 0.0
H113 H 0.93548 0.31674 0.12376 0.0
H114 H 0.85361 0.27383 0.03042 0.0
Cu115 Cu 0.73415 0.64643 0.99875 0.0
N116 N 0.71295 0.63534 1.01375 0.0
N117 N 0.68903 0.63305 0.02049 0.0
C118 C 0.70485 0.64297 1.01969 0.0
C119 C 0.68706 0.61848 1.01498 0.0
C120 C 0.70185 0.61992 1.0108 0.0
O121 O 0.73131 0.64758 0.94752 0.0
C122 C 0.74173 0.66233 0.06124 0.0
O123 O 0.73425 0.6473 0.07036 0.0
H124 H 0.71043 0.65577 0.02011 0.0
H125 H 0.7042 0.61057 1.00345 0.0
N126 N 0.74617 0.63638 1.0069 0.0
N127 N 0.76728 0.6328 1.00784 0.0
C128 C 0.76133 0.64198 0.99656 0.0
C129 C 0.74232 0.62319 0.02545 0.0
C130 C 0.75524 0.62093 0.02601 0.0
C131 C 0.72619 0.63427 0.93168 0.0
O132 O 0.72603 0.6226 0.9493 0.0
H133 H 0.76782 0.65266 0.98111 0.0
H134 H 0.73103 0.61589 0.03824 0.0
O135 O 0.74388 0.66571 0.02833 0.0
H136 H 0.67575 0.60767 1.01246 0.0
H137 H 0.75575 0.61145 0.03961 0.0
Cu138 Cu 0.91616 0.64525 0.97819 0.0
N139 N 0.93554 0.66163 0.96059 0.0
N140 N 0.96173 0.67451 0.95013 0.0
C141 C 0.94996 0.66508 0.9725 0.0
C142 C 0.95444 0.67747 0.92339 0.0
C143 C 0.93834 0.66953 0.9299 0.0
O144 O 0.91363 0.62574 0.95587 0.0
C145 C 0.92568 0.64584 0.05248 0.0
O146 O 0.93431 0.63966 0.04233 0.0
H147 H 0.95167 0.65973 0.99573 0.0
H148 H 0.92931 0.66884 0.91233 0.0
N149 N 0.89896 0.64739 0.96205 0.0
N150 N 0.87585 0.64733 0.95942 0.0
C151 C 0.88667 0.64655 0.9806 0.0
C152 C 0.89563 0.64849 0.92811 0.0
C153 C 0.88156 0.64859 0.92643 0.0
C154 C 0.92483 0.62259 0.95275 0.0
O155 O 0.93767 0.63057 0.97184 0.0
H156 H 0.88559 0.64517 1.00895 0.0
H157 H 0.90263 0.64859 0.90591 0.0
O158 O 0.91685 0.64752 0.03007 0.0
H159 H 0.96022 0.68435 0.90008 0.0
H160 H 0.87568 0.6489 0.90249 0.0
Cu161 Cu 0.36746 0.28227 0.98179 0.0
N162 N 0.35242 0.28763 0.96657 0.0
N163 N 0.34266 0.3033 0.9512 0.0
C164 C 0.35505 0.30256 0.96495 0.0
C165 C 0.33163 0.28808 0.94431 0.0
C166 C 0.33768 0.27845 0.9538 0.0
O167 O 0.38709 0.29799 0.95811 0.0
C168 C 0.35367 0.27068 0.04717 0.0
O169 O 0.34263 0.26072 0.02553 0.0
H170 H 0.36581 0.31271 0.9741 0.0
H171 H 0.33179 0.2657 0.95124 0.0
N172 N 0.36269 0.26225 0.96426 0.0
N173 N 0.36276 0.23947 0.95571 0.0
C174 C 0.36687 0.25197 0.97753 0.0
C175 C 0.35573 0.25602 0.93315 0.0
C176 C 0.35569 0.24202 0.92787 0.0
C177 C 0.39497 0.31279 0.96489 0.0
O178 O 0.39231 0.31797 0.99465 0.0
H179 H 0.37337 0.25397 1.00191 0.0
H180 H 0.35141 0.26154 0.91497 0.0
O181 O 0.36661 0.28164 0.03384 0.0
H182 H 0.3201 0.28415 0.93274 0.0
H183 H 0.35099 0.23442 0.90498 0.0
Cu184 Cu 0.73085 0.10403 1.01526 0.0
N185 N 0.70971 0.09087 0.02911 0.0
N186 N 0.68758 0.06707 0.03266 0.0
C187 C 0.70178 0.07586 1.01703 0.0
C188 C 0.68647 0.07699 0.0559 0.0
C189 C 0.70015 0.09173 0.05357 0.0
O190 O 0.72925 0.09708 0.96576 0.0
C191 C 0.74252 0.10479 0.081 0.0
O192 O 0.73446 0.11218 0.08474 0.0
H193 H 0.70687 0.07119 0.99851 0.0
H194 H 0.70314 0.10204 0.06962 0.0
N195 N 0.73911 0.12627 1.01671 0.0
N196 N 0.75727 0.15236 1.01698 0.0
C197 C 0.75458 0.13738 1.01268 0.0
C198 C 0.73172 0.13445 0.02398 0.0
C199 C 0.74281 0.15046 0.02406 0.0
C200 C 0.72126 0.10137 0.94651 0.0
O201 O 0.7176 0.1116 0.95965 0.0
H202 H 0.76367 0.13444 1.00687 0.0
H203 H 0.71919 0.12914 0.02946 0.0
O204 O 0.74317 0.09971 0.05022 0.0
H205 H 0.67669 0.07375 0.07386 0.0
H206 H 0.74038 0.1599 0.02986 0.0
Cu207 Cu 0.64224 0.91335 0.0287 0.0
N208 N 0.63339 0.92573 1.01462 0.0
N209 N 0.63358 0.94879 1.0098 0.0
C210 C 0.64235 0.9416 1.01129 0.0
C211 C 0.6184 0.93689 1.01213 0.0
C212 C 0.61831 0.92268 1.01518 0.0
O213 O 0.64298 0.91635 0.08029 0.0
C214 C 0.65933 0.92163 0.96769 0.0
O215 O 0.64448 0.91447 0.95731 0.0
H216 H 0.65515 0.94786 1.01297 0.0
H217 H 0.60806 0.91116 0.01997 0.0
N218 N 0.62992 0.89144 1.0174 0.0
N219 N 0.62183 0.86536 1.01285 0.0
C220 C 0.63274 0.87962 0.02652 0.0
C221 C 0.61685 0.88445 0.99718 0.0
C222 C 0.61186 0.86852 0.99436 0.0
C223 C 0.62933 0.90931 0.09504 0.0
O224 O 0.6172 0.89905 0.07618 0.0
H225 H 0.64262 0.88149 0.0429 0.0
H226 H 0.61145 0.89058 0.98477 0.0
O227 O 0.66203 0.92229 1.00089 0.0
H228 H 0.60812 0.93839 1.01306 0.0
H229 H 0.60181 0.86002 0.97904 0.0
Cu230 Cu 0.10732 0.72978 0.02723 0.0
N231 N 0.09831 0.7122 0.99744 0.0
N232 N 0.07448 0.69843 0.97145 0.0
C233 C 0.08261 0.70266 1.00211 0.0
C234 C 0.08569 0.70452 0.94614 0.0
C235 C 0.10035 0.71304 0.96221 0.0
O236 O 0.09801 0.72083 0.07404 0.0
C237 C 0.1091 0.75127 0.9757 0.0
O238 O 0.12385 0.75448 0.97432 0.0
H239 H 0.07702 0.70154 0.02741 0.0
H240 H 0.11111 0.72166 0.94912 0.0
N241 N 0.12973 0.74081 0.02947 0.0
N242 N 0.15441 0.76176 0.03339 0.0
C243 C 0.13897 0.75567 0.0422 0.0
C244 C 0.13972 0.73728 1.01264 0.0
C245 C 0.1549 0.75015 1.01495 0.0
C246 C 0.10169 0.71076 0.08569 0.0
O247 O 0.11198 0.70869 0.06744 0.0
H248 H 0.13426 0.76234 0.05509 0.0
H249 H 0.13609 0.7265 0.99785 0.0
O250 O 0.10031 0.7427 1.00107 0.0
H251 H 0.08334 0.70502 0.9184 0.0
H252 H 0.1654 0.75108 1.0029 0.0
Cu253 Cu 0.29342 0.38964 0.02174 0.0
N254 N 0.31161 0.40106 0.99436 0.0
N255 N 0.32845 0.3968 0.96246 0.0
C256 C 0.32158 0.3953 0.9941 0.0
C257 C 0.32307 0.40445 0.94211 0.0
C258 C 0.31282 0.40726 0.962 0.0
O259 O 0.30209 0.38789 0.06791 0.0
C260 C 0.27682 0.3739 0.96253 0.0
O261 O 0.27724 0.38753 0.95998 0.0
H262 H 0.32129 0.38731 1.01432 0.0
H263 H 0.30505 0.41124 0.95177 0.0
N264 N 0.2808 0.39919 0.02789 0.0
N265 N 0.25915 0.40143 0.03542 0.0
C266 C 0.26484 0.39141 0.03119 0.0
C267 C 0.28532 0.41469 0.02991 0.0
C268 C 0.27203 0.41609 0.03481 0.0
C269 C 0.31182 0.40138 0.0815 0.0
O270 O 0.31401 0.41415 0.06494 0.0
H271 H 0.25756 0.37862 0.03067 0.0
H272 H 0.29742 0.42431 0.02775 0.0
O273 O 0.2817 0.37081 0.99122 0.0
H274 H 0.32482 0.40609 0.9139 0.0
H275 H 0.27183 0.42707 0.03708 0.0
Cu276 Cu 0.77393 0.71711 0.36628 0.0
N277 N 0.76016 0.69593 0.37703 0.0
N278 N 0.73589 0.67576 0.3884 0.0
C279 C 0.74645 0.69114 0.39433 0.0
C280 C 0.74334 0.67054 0.36685 0.0
C281 C 0.75837 0.68303 0.35992 0.0
O282 O 0.76603 0.72811 0.39643 0.0
C283 C 0.78046 0.71869 0.29157 0.0
O284 O 0.79382 0.71966 0.3014 0.0
H285 H 0.74348 0.69926 0.40706 0.0
H286 H 0.76662 0.68315 0.3407 0.0
N287 N 0.79493 0.72342 0.37968 0.0
N288 N 0.81894 0.72586 0.38718 0.0
C289 C 0.80424 0.71704 0.37307 0.0
C290 C 0.80393 0.73642 0.39916 0.0
C291 C 0.81861 0.73795 0.40382 0.0
C292 C 0.76861 0.74228 0.39602 0.0
O293 O 0.77784 0.75212 0.37159 0.0
H294 H 0.80046 0.70643 0.35748 0.0
H295 H 0.80008 0.74433 0.40918 0.0
O296 O 0.77118 0.71885 0.31516 0.0
H297 H 0.73784 0.65898 0.35444 0.0
H298 H 0.82828 0.74732 0.41851 0.0
Cu299 Cu 0.31628 0.06645 0.37072 0.0
N300 N 0.30506 0.04566 0.35382 0.0
N301 N 0.30376 0.02215 0.34767 0.0
C302 C 0.31282 0.03803 0.34438 0.0
C303 C 0.28957 0.01964 0.35915 0.0
C304 C 0.29042 0.03415 0.36303 0.0
O305 O 0.31972 0.0624 0.42005 0.0
C306 C 0.33076 0.0792 0.30752 0.0
O307 O 0.3158 0.07448 0.30105 0.0
H308 H 0.3255 0.04412 0.34007 0.0
H309 H 0.28168 0.03616 0.37582 0.0
N310 N 0.30497 0.07759 0.36869 0.0
N311 N 0.29962 0.09755 0.36963 0.0
C312 C 0.31076 0.09327 0.37443 0.0
C313 C 0.28971 0.07183 0.35961 0.0
C314 C 0.28638 0.08401 0.36033 0.0
C315 C 0.30785 0.05759 0.44089 0.0
O316 O 0.29567 0.05882 0.43046 0.0
H317 H 0.3229 0.10134 0.3821 0.0
H318 H 0.28161 0.05964 0.35245 0.0
O319 O 0.33458 0.0772 0.33858 0.0
H320 H 0.27976 0.00827 0.36708 0.0
H321 H 0.2751 0.08298 0.35372 0.0
Cu322 Cu 0.96924 0.24302 0.34326 0.0
N323 N 0.98804 0.2556 0.31822 0.0
N324 N 1.00493 0.27986 0.2975 0.0
C325 C 0.99601 0.27127 0.32492 0.0
C326 C 1.00271 0.26914 0.27233 0.0
C327 C 0.99234 0.25414 0.28527 0.0
O328 O 0.97458 0.2521 0.39121 0.0
C329 C 0.95138 0.23817 0.2845 0.0
O330 O 0.95693 0.22849 0.28012 0.0
H331 H 0.99351 0.27645 0.34755 0.0
H332 H 0.98704 0.24325 0.27022 0.0
N333 N 0.96195 0.22112 0.34598 0.0
N334 N 0.94413 0.19509 0.34893 0.0
C335 C 0.94664 0.21003 0.35146 0.0
C336 C 0.9695 0.21298 0.33998 0.0
C337 C 0.95856 0.19694 0.3418 0.0
C338 C 0.98722 0.25277 0.40296 0.0
O339 O 0.99373 0.24619 0.38419 0.0
H340 H 0.93742 0.21295 0.35556 0.0
H341 H 0.98196 0.21831 0.33377 0.0
O342 O 0.95398 0.2455 0.31397 0.0
H343 H 1.00717 0.272 0.24562 0.0
H344 H 0.96106 0.18742 0.33777 0.0
Cu345 Cu 0.04946 0.43673 0.33382 0.0
N346 N 0.03401 0.41574 0.32321 0.0
N347 N 0.02355 0.38994 0.31037 0.0
C348 C 0.03694 0.40413 0.31363 0.0
C349 C 0.01165 0.39279 0.31773 0.0
C350 C 0.01814 0.4087 0.32573 0.0
O351 O 0.06766 0.44111 0.30414 0.0
C352 C 0.04976 0.42704 0.40525 0.0
O353 O 0.047 0.41365 0.39071 0.0
H354 H 0.04871 0.40596 0.30975 0.0
H355 H 0.01178 0.41463 0.33379 0.0
N356 N 0.04249 0.45071 0.31963 0.0
N357 N 0.04006 0.4724 0.31464 0.0
C358 C 0.04677 0.46523 0.3327 0.0
C359 C 0.03281 0.44861 0.29242 0.0
C360 C 0.03128 0.46187 0.28929 0.0
C361 C 0.07643 0.43498 0.30811 0.0
O362 O 0.07544 0.42744 0.33756 0.0
H363 H 0.05471 0.4704 0.35489 0.0
H364 H 0.02749 0.43827 0.27555 0.0
O365 O 0.05252 0.43871 0.38532 0.0
H366 H 0.9992 0.38392 0.31872 0.0
H367 H 0.02451 0.46369 0.26912 0.0
Cu368 Cu 0.58511 0.6161 0.34578 0.0
N369 N 0.59729 0.63187 0.37836 0.0
N370 N 0.62164 0.64487 0.40172 0.0
C371 C 0.61293 0.6404 0.37196 0.0
C372 C 0.61099 0.63943 0.42824 0.0
C373 C 0.59594 0.63127 0.41374 0.0
O374 O 0.59213 0.62709 0.29971 0.0
C375 C 0.58463 0.59101 0.38424 0.0
O376 O 0.5702 0.5876 0.39253 0.0
H377 H 0.6179 0.64087 0.34615 0.0
H378 H 0.58518 0.62339 0.42783 0.0
N379 N 0.56306 0.60728 0.35185 0.0
N380 N 0.53695 0.58955 0.35265 0.0
C381 C 0.55145 0.59283 0.34116 0.0
C382 C 0.55563 0.61345 0.37025 0.0
C383 C 0.5396 0.60261 0.37075 0.0
C384 C 0.5914 0.63983 0.29784 0.0
O385 O 0.58481 0.64313 0.32427 0.0
H386 H 0.55371 0.5847 0.32619 0.0
H387 H 0.56154 0.62483 0.38339 0.0
O388 O 0.59183 0.60088 0.35926 0.0
H389 H 0.6139 0.63925 0.45573 0.0
H390 H 0.5307 0.604 0.38475 0.0
Cu391 Cu 0.40838 0.97796 0.33626 0.0
N392 N 0.3884 0.96757 0.3575 0.0
N393 N 0.3651 0.96605 0.36908 0.0
C394 C 0.37661 0.96963 0.34506 0.0
C395 C 0.3698 0.96137 0.39797 0.0
C396 C 0.38423 0.96241 0.39081 0.0
O397 O 0.40259 0.9783 0.28632 0.0
C398 C 0.42937 1.00102 0.38667 0.0
O399 O 0.43606 0.99224 0.38781 0.0
H400 H 0.37746 0.97553 0.32033 0.0
H401 H 0.3918 0.96105 0.4096 0.0
N402 N 0.41993 0.96712 0.34082 0.0
N403 N 0.44024 0.96226 0.34106 0.0
C404 C 0.4349 0.97198 0.3298 0.0
C405 C 0.41556 0.95372 0.35904 0.0
C406 C 0.42797 0.95071 0.35925 0.0
C407 C 0.39449 0.96453 0.27231 0.0
O408 O 0.39305 0.95231 0.29011 0.0
H409 H 0.44203 0.98291 0.3155 0.0
H410 H 0.40427 0.94683 0.37213 0.0
O411 O 0.41868 0.99801 0.36348 0.0
H412 H 0.36386 0.95852 0.42326 0.0
H413 H 0.42798 0.94083 0.37225 0.0
Cu414 Cu 0.58802 0.97098 0.33655 0.0
N415 N 0.60802 0.98937 0.33356 0.0
N416 N 0.63444 1.00482 0.33067 0.0
C417 C 0.62185 0.99031 0.32438 0.0
C418 C 0.62824 0.01344 0.34375 0.0
C419 C 0.61198 1.0039 0.34549 0.0
O420 O 0.58897 0.95504 0.30591 0.0
C421 C 0.59453 0.96845 0.4093 0.0
O422 O 0.60869 0.97221 0.39783 0.0
H423 H 0.6228 0.98034 0.3152 0.0
H424 H 0.60368 1.00709 0.35624 0.0
N425 N 0.57247 0.97544 0.31921 0.0
N426 N 0.55028 0.97698 0.31297 0.0
C427 C 0.55765 0.97057 0.33144 0.0
C428 C 0.57445 0.98515 0.2921 0.0
C429 C 0.5609 0.98612 0.2882 0.0
C430 C 0.59834 0.9496 0.31076 0.0
O431 O 0.60602 0.95252 0.34077 0.0
H432 H 0.55255 0.9628 0.35391 0.0
H433 H 0.58512 0.99123 0.27644 0.0
O434 O 0.58373 0.96607 0.38702 0.0
H435 H 0.63496 0.02564 0.35245 0.0
H436 H 0.55901 0.99298 0.26838 0.0
Cu437 Cu 0.03835 0.613 0.34598 0.0
N438 N 0.04475 0.62934 0.37861 0.0
N439 N 0.03388 0.64228 0.40461 0.0
C440 C 0.03831 0.6386 0.37399 0.0
C441 C 0.03873 0.63593 0.42988 0.0
C442 C 0.04536 0.62787 0.41377 0.0
O443 O 0.04185 0.62372 0.29952 0.0
C444 C 0.014 0.5895 0.38853 0.0
O445 O 0.02508 0.58615 0.39655 0.0
H446 H 0.0338 0.63963 0.34863 0.0
H447 H 0.04747 0.61916 0.42644 0.0
N448 N 0.04975 0.6021 0.34848 0.0
N449 N 0.05495 0.58211 0.34573 0.0
C450 C 0.04462 0.58709 0.3376 0.0
C451 C 0.06392 0.60688 0.36361 0.0
C452 C 0.06718 0.59463 0.36186 0.0
C453 C 0.05616 0.63484 0.29447 0.0
O454 O 0.06667 0.63703 0.31879 0.0
H455 H 0.03329 0.57983 0.32484 0.0
H456 H 0.07115 0.6183 0.37599 0.0
O457 O 0.0165 0.59928 0.36339 0.0
H458 H 0.03523 0.63477 0.4573 0.0
H459 H 0.07746 0.59473 0.37294 0.0
Cu460 Cu 0.40598 0.43831 0.3486 0.0
N461 N 0.38917 0.42649 0.37916 0.0
N462 N 0.37559 0.40254 0.40418 0.0
C463 C 0.38111 0.41074 0.37395 0.0
C464 C 0.37986 0.41364 0.42958 0.0
C465 C 0.38831 0.42846 0.41408 0.0
O466 O 0.39644 0.43077 0.30113 0.0
C467 C 0.42849 0.43995 0.39623 0.0
O468 O 0.42729 0.45216 0.40651 0.0
H469 H 0.38183 0.40539 0.34948 0.0
H470 H 0.39539 0.43954 0.42791 0.0
N471 N 0.41453 0.46046 0.35206 0.0
N472 N 0.43249 0.48652 0.35311 0.0
C473 C 0.42956 0.47179 0.34441 0.0
C474 C 0.40764 0.46827 0.36565 0.0
C475 C 0.41862 0.48427 0.36626 0.0
C476 C 0.38428 0.4323 0.29587 0.0
O477 O 0.38064 0.43943 0.32048 0.0
H478 H 0.43836 0.46914 0.33437 0.0
H479 H 0.3956 0.46268 0.37535 0.0
O480 O 0.42133 0.43266 0.36794 0.0
H481 H 0.37904 0.41125 0.45761 0.0
H482 H 0.41652 0.49348 0.3761 0.0
Cu483 Cu 0.3153 0.2487 0.37586 0.0
N484 N 0.33493 0.26509 0.39073 0.0
N485 N 0.35219 0.2903 0.40424 0.0
C486 C 0.33696 0.27858 0.40533 0.0
C487 C 0.36014 0.28387 0.38872 0.0
C488 C 0.34944 0.26826 0.38053 0.0
O489 O 0.30055 0.25481 0.39704 0.0
C490 C 0.32282 0.2619 0.30674 0.0
O491 O 0.3271 0.27511 0.32412 0.0
H492 H 0.32724 0.28036 0.41271 0.0
H493 H 0.3518 0.26031 0.3652 0.0
N494 N 0.31213 0.22935 0.39457 0.0
N495 N 0.30913 0.20506 0.40181 0.0
C496 C 0.31163 0.21666 0.37848 0.0
C497 C 0.31009 0.22568 0.42904 0.0
C498 C 0.30819 0.21082 0.43358 0.0
C499 C 0.2873 0.24586 0.41211 0.0
O500 O 0.28095 0.23041 0.40965 0.0
H501 H 0.31287 0.21589 0.3503 0.0
H502 H 0.31001 0.23337 0.44954 0.0
O503 O 0.31626 0.24881 0.32378 0.0
H504 H 0.37253 0.29032 0.38136 0.0
H505 H 0.30649 0.20481 0.45856 0.0
Cu506 Cu 0.78959 0.07167 0.36461 0.0
N507 N 0.77462 0.05155 0.34867 0.0
N508 N 0.74928 0.03529 0.3337 0.0
C509 C 0.75936 0.04664 0.35597 0.0
C510 C 0.75857 0.03255 0.31179 0.0
C511 C 0.77429 0.04276 0.32088 0.0
O512 O 0.78504 0.07045 0.41569 0.0
C513 C 0.78925 0.08518 0.30154 0.0
O514 O 0.79779 0.07853 0.29442 0.0
H515 H 0.75582 0.05263 0.37481 0.0
H516 H 0.78458 0.04485 0.30584 0.0
N517 N 0.81115 0.078 0.35795 0.0
N518 N 0.83746 0.09446 0.35387 0.0
C519 C 0.82323 0.09305 0.36138 0.0
C520 C 0.81791 0.06952 0.34787 0.0
C521 C 0.83411 0.07961 0.34544 0.0
C522 C 0.7902 0.06288 0.43377 0.0
O523 O 0.79908 0.05816 0.41784 0.0
H524 H 0.82151 0.10276 0.36928 0.0
H525 H 0.81152 0.05695 0.3423 0.0
O526 O 0.78479 0.08488 0.33346 0.0
H527 H 0.75442 0.02502 0.28868 0.0
H528 H 0.84267 0.07627 0.33727 0.0
Cu529 Cu 0.94993 0.70302 0.36826 0.0
N530 N 0.94052 0.68307 0.38935 0.0
N531 N 0.94361 0.66303 0.40815 0.0
C532 C 0.94942 0.6788 0.4084 0.0
C533 C 0.93014 0.65702 0.389 0.0
C534 C 0.92821 0.66941 0.37759 0.0
O535 O 0.96995 0.71455 0.3951 0.0
C536 C 0.93921 0.69344 0.29869 0.0
O537 O 0.92619 0.69155 0.31337 0.0
H538 H 0.96133 0.68716 0.41697 0.0
H539 H 0.91972 0.66858 0.35817 0.0
N540 N 0.93809 0.71333 0.37461 0.0
N541 N 0.91885 0.71961 0.3763 0.0
C542 C 0.92225 0.70771 0.37539 0.0
C543 C 0.94479 0.72919 0.37585 0.0
C544 C 0.93306 0.73308 0.37688 0.0
C545 C 0.98327 0.72706 0.38997 0.0
O546 O 0.98566 0.73517 0.36073 0.0
H547 H 0.91343 0.69525 0.37368 0.0
H548 H 0.95741 0.73739 0.37503 0.0
O549 O 0.95181 0.69932 0.31744 0.0
H550 H 0.92335 0.64484 0.38012 0.0
H551 H 0.93487 0.74499 0.37755 0.0
Cu552 Cu 0.44458 0.03958 0.70485 0.0
N553 N 0.42904 0.01825 0.70815 0.0
N554 N 0.40591 0.9959 0.70047 0.0
C555 C 0.41407 0.01179 0.69626 0.0
C556 C 0.41614 0.99224 0.71593 0.0
C557 C 0.43043 1.00606 0.7205 0.0
O558 O 0.43646 0.05133 0.73254 0.0
C559 C 0.43765 0.04383 0.6326 0.0
O560 O 0.42526 0.04405 0.64551 0.0
H561 H 0.40926 0.01864 0.68482 0.0
H562 H 0.44116 1.00711 0.73142 0.0
N563 N 0.46326 0.04182 0.72492 0.0
N564 N 0.48698 0.04361 0.73186 0.0
C565 C 0.4766 0.04406 0.70875 0.0
C566 C 0.46529 0.03988 0.75925 0.0
C567 C 0.47985 0.04103 0.76364 0.0
C568 C 0.44459 0.06243 0.7546 0.0
O569 O 0.45998 0.06825 0.75608 0.0
H570 H 0.47839 0.04543 0.68053 0.0
H571 H 0.4566 0.03749 0.77961 0.0
O572 O 0.44772 0.04364 0.6538 0.0
H573 H 0.41363 0.98041 0.7226 0.0
H574 H 0.48476 0.04 0.78842 0.0
Cu575 Cu 0.97878 0.39516 0.6962 0.0
N576 N 0.96863 0.37493 0.67598 0.0
N577 N 0.96654 0.35115 0.6679 0.0
C578 C 0.97063 0.3634 0.69012 0.0
C579 C 0.96161 0.3551 0.63827 0.0
C580 C 0.96294 0.36983 0.64332 0.0
O581 O 0.97943 0.38989 0.74623 0.0
C582 C 0.99723 0.41159 0.63875 0.0
O583 O 0.9834 0.40978 0.62996 0.0
H584 H 0.97669 0.3648 0.7149 0.0
H585 H 0.96118 0.37682 0.62362 0.0
N586 N 0.96782 0.40657 0.69216 0.0
N587 N 0.96347 0.42719 0.69166 0.0
C588 C 0.97361 0.42203 0.70038 0.0
C589 C 0.95348 0.40175 0.6779 0.0
C590 C 0.95077 0.41438 0.67757 0.0
C591 C 0.96572 0.38266 0.76066 0.0
O592 O 0.95366 0.38165 0.74303 0.0
H593 H 0.98532 0.42947 0.71132 0.0
H594 H 0.94568 0.38996 0.66777 0.0
O595 O 0.99865 0.40656 0.66896 0.0
H596 H 0.95823 0.34835 0.614 0.0
H597 H 0.94025 0.41413 0.66757 0.0
Cu598 Cu 0.62111 0.58729 0.69795 0.0
N599 N 0.62383 0.60771 0.70224 0.0
N600 N 0.63696 0.63392 0.71173 0.0
C601 C 0.63564 0.61985 0.72005 0.0
C602 C 0.62512 0.63045 0.68867 0.0
C603 C 0.61706 0.61427 0.6828 0.0
O604 O 0.63915 0.5881 0.72368 0.0
C605 C 0.62736 0.5917 0.62325 0.0
O606 O 0.6391 0.60572 0.63211 0.0
H607 H 0.64373 0.6186 0.73736 0.0
H608 H 0.60776 0.60793 0.66364 0.0
N609 N 0.60215 0.57254 0.72055 0.0
N610 N 0.57885 0.55088 0.73388 0.0
C611 C 0.59044 0.5582 0.70934 0.0
C612 C 0.59776 0.57437 0.75299 0.0
C613 C 0.5835 0.56114 0.76125 0.0
C614 C 0.65358 0.59872 0.71825 0.0
O615 O 0.65703 0.60764 0.69002 0.0
H616 H 0.59057 0.55315 0.684 0.0
H617 H 0.60452 0.58465 0.76956 0.0
O618 O 0.61908 0.58193 0.64744 0.0
H619 H 0.62329 0.6391 0.67477 0.0
H620 H 0.57698 0.55935 0.78552 0.0
Cu621 Cu 0.72657 0.78054 0.68053 0.0
N622 N 0.73432 0.76833 0.70086 0.0
N623 N 0.72776 0.7442 0.72064 0.0
C624 C 0.72663 0.75269 0.69398 0.0
C625 C 0.7368 0.75495 0.74524 0.0
C626 C 0.741 0.76989 0.7328 0.0
O627 O 0.72486 0.77511 0.62997 0.0
C628 C 0.71036 0.77853 0.74086 0.0
O629 O 0.72501 0.78888 0.74945 0.0
H630 H 0.71821 0.74745 0.67257 0.0
H631 H 0.74661 0.78072 0.74803 0.0
N632 N 0.73967 0.80256 0.68633 0.0
N633 N 0.74683 0.82826 0.69041 0.0
C634 C 0.73514 0.81347 0.68207 0.0
C635 C 0.75476 0.81068 0.69765 0.0
C636 C 0.75921 0.82651 0.70015 0.0
C637 C 0.73821 0.78047 0.61436 0.0
O638 O 0.75114 0.78972 0.6323 0.0
H639 H 0.72331 0.81049 0.67407 0.0
H640 H 0.76194 0.80543 0.70406 0.0
O641 O 0.7073 0.77382 0.7088 0.0
H642 H 0.73878 0.75211 0.77166 0.0
H643 H 0.77071 0.83597 0.70844 0.0
Cu644 Cu 0.25505 0.94221 0.65771 0.0
N645 N 0.26866 0.93518 0.64257 0.0
N646 N 0.29146 0.93499 0.63947 0.0
C647 C 0.28208 0.93839 0.6594 0.0
C648 C 0.28344 0.92913 0.609 0.0
C649 C 0.26934 0.92924 0.61102 0.0
O650 O 0.2623 0.96288 0.63413 0.0
C651 C 0.25393 0.93085 0.72634 0.0
O652 O 0.24835 0.91742 0.709 0.0
H653 H 0.28558 0.94457 0.68441 0.0
H654 H 0.26075 0.92624 0.59012 0.0
N655 N 0.23422 0.92795 0.64233 0.0
N656 N 0.20848 0.90929 0.6379 0.0
C657 C 0.2212 0.91684 0.65964 0.0
C658 C 0.22952 0.92731 0.60875 0.0
C659 C 0.21379 0.91591 0.60591 0.0
C660 C 0.27694 0.97317 0.62968 0.0
O661 O 0.28771 0.97086 0.64491 0.0
H662 H 0.22095 0.91451 0.68758 0.0
H663 H 0.23711 0.93466 0.58767 0.0
O664 O 0.25698 0.94338 0.70935 0.0
H665 H 0.2878 0.92581 0.58618 0.0
H666 H 0.20687 0.91259 0.58189 0.0
Cu667 Cu 0.06471 0.29822 0.68711 0.0
N668 N 0.04366 0.28883 0.70281 0.0
N669 N 0.0208 0.289 0.7063 0.0
C670 C 0.03675 0.2977 0.7075 0.0
C671 C 0.01745 0.27394 0.70107 0.0
C672 C 0.03157 0.27386 0.69898 0.0
O673 O 0.06166 0.3013 0.63703 0.0
C674 C 0.07503 0.31288 0.75043 0.0
O675 O 0.06751 0.29767 0.75795 0.0
H676 H 0.04334 0.31054 0.70752 0.0
H677 H 0.03283 0.26384 0.69149 0.0
N678 N 0.07406 0.28533 0.69232 0.0
N679 N 0.09213 0.27735 0.69305 0.0
C680 C 0.08911 0.2891 0.68442 0.0
C681 C 0.06743 0.27078 0.70671 0.0
C682 C 0.07843 0.26584 0.70708 0.0
C683 C 0.05352 0.28818 0.62057 0.0
O684 O 0.05159 0.27517 0.6355 0.0
H685 H 0.09767 0.30028 0.6727 0.0
H686 H 0.05552 0.26434 0.7171 0.0
O687 O 0.07621 0.31685 0.71796 0.0
H688 H 1.00572 0.26391 0.69661 0.0
H689 H 0.07656 0.25477 0.71792 0.0
Cu690 Cu 0.24131 0.29225 0.6796 0.0
N691 N 0.254 0.28544 0.70175 0.0
N692 N 0.27877 0.29274 0.71895 0.0
C693 C 0.26945 0.29297 0.69296 0.0
C694 C 0.26865 0.28432 0.74518 0.0
C695 C 0.25337 0.27982 0.7345 0.0
O696 O 0.24744 0.29299 0.62933 0.0
C697 C 0.24104 0.30801 0.73905 0.0
O698 O 0.23046 0.2932 0.7458 0.0
H699 H 0.27395 0.30055 0.67 0.0
H700 H 0.24293 0.27456 0.75104 0.0
N701 N 0.21905 0.27903 0.68338 0.0
N702 N 0.19334 0.27228 0.68643 0.0
C703 C 0.20835 0.28388 0.67917 0.0
C704 C 0.21055 0.26379 0.6935 0.0
C705 C 0.19476 0.2596 0.6953 0.0
C706 C 0.24401 0.2792 0.61814 0.0
O707 O 0.23616 0.26717 0.63961 0.0
H708 H 0.21167 0.29593 0.67232 0.0
H709 H 0.21552 0.25636 0.69992 0.0
O710 O 0.24718 0.31141 0.70809 0.0
H711 H 0.27212 0.2827 0.77126 0.0
H712 H 0.18512 0.24807 0.70283 0.0
Cu713 Cu 0.73503 0.96552 0.68233 0.0
N714 N 0.71526 0.95653 0.66046 0.0
N715 N 0.69446 0.95763 0.63911 0.0
C716 C 0.71038 0.9646 0.6402 0.0
C717 C 0.68909 0.9443 0.65852 0.0
C718 C 0.70195 0.94364 0.67158 0.0
O719 O 0.7487 0.98569 0.65757 0.0
C720 C 0.7334 0.96023 0.75805 0.0
O721 O 0.7416 0.95314 0.75197 0.0
H722 H 0.71821 0.97638 0.63029 0.0
H723 H 0.70161 0.93542 0.69118 0.0
N724 N 0.74406 0.9526 0.67549 0.0
N725 N 0.74919 0.93257 0.67403 0.0
C726 C 0.7384 0.93701 0.68201 0.0
C727 C 0.75871 0.95803 0.66255 0.0
C728 C 0.7619 0.94581 0.66159 0.0
C729 C 0.74684 0.99775 0.6558 0.0
O730 O 0.73612 0.99826 0.67589 0.0
H731 H 0.72683 0.92926 0.69325 0.0
H732 H 0.76659 0.97015 0.65449 0.0
O733 O 0.73079 0.96725 0.73265 0.0
H734 H 0.67683 0.93653 0.66584 0.0
H735 H 0.77278 0.94665 0.6522 0.0
Cu736 Cu 0.06658 0.7696 0.66936 0.0
N737 N 0.04596 0.75872 0.68722 0.0
N738 N 0.02666 0.73485 0.70496 0.0
C739 C 0.03731 0.74315 0.67966 0.0
C740 C 0.02833 0.74572 0.72925 0.0
C741 C 0.04019 0.76048 0.71812 0.0
O742 O 0.06323 0.7628 0.61938 0.0
C743 C 0.07868 0.76823 0.73343 0.0
O744 O 0.07485 0.77922 0.7383 0.0
H745 H 0.04058 0.73767 0.65896 0.0
H746 H 0.04548 0.77122 0.73369 0.0
N747 N 0.0773 0.79194 0.67183 0.0
N748 N 0.09773 0.817 0.67219 0.0
C749 C 0.09304 0.8015 0.66703 0.0
C750 C 0.07176 0.80167 0.68044 0.0
C751 C 0.08429 0.81709 0.68056 0.0
C752 C 0.05677 0.76897 0.60064 0.0
O753 O 0.05485 0.78019 0.61485 0.0
H754 H 0.10088 0.79709 0.65991 0.0
H755 H 0.05954 0.7978 0.68674 0.0
O756 O 0.07741 0.76249 0.70239 0.0
H757 H 0.02254 0.74301 0.7547 0.0
H758 H 0.08355 0.82751 0.68713 0.0
Cu759 Cu 0.97146 0.57415 0.70011 0.0
N760 N 0.98797 0.59528 0.70475 0.0
N761 N 1.00016 0.62173 0.71023 0.0
C762 C 0.98616 0.60802 0.70927 0.0
C763 C 1.01128 0.61745 0.70644 0.0
C764 C 1.00372 0.60115 0.7029 0.0
O765 O 0.95507 0.57193 0.73388 0.0
C766 C 0.96718 0.58046 0.62756 0.0
O767 O 0.96878 0.59384 0.63942 0.0
H768 H 0.97479 0.60731 0.71153 0.0
H769 H 1.00932 0.59411 0.69861 0.0
N770 N 0.97831 0.55995 0.71412 0.0
N771 N 0.98058 0.53813 0.7184 0.0
C772 C 0.97293 0.54493 0.70275 0.0
C773 C 0.98962 0.56268 0.73792 0.0
C774 C 0.99108 0.54935 0.74052 0.0
C775 C 0.94669 0.5786 0.732 0.0
O776 O 0.9463 0.58528 0.70223 0.0
H777 H 0.96371 0.53918 0.68312 0.0
H778 H 0.99631 0.5736 0.75254 0.0
O779 O 0.96635 0.57015 0.64956 0.0
H780 H 0.02393 0.62555 0.70514 0.0
H781 H 0.9991 0.54796 0.75792 0.0
Cu782 Cu 0.43675 0.40555 0.70345 0.0
N783 N 0.41559 0.40035 0.70924 0.0
N784 N 0.38922 0.38494 0.71359 0.0
C785 C 0.40346 0.38602 0.71873 0.0
C786 C 0.39258 0.39918 0.70055 0.0
C787 C 0.4088 0.4086 0.69772 0.0
O788 O 0.43853 0.39022 0.73437 0.0
C789 C 0.45018 0.41054 0.63211 0.0
O790 O 0.46419 0.41924 0.64646 0.0
H791 H 0.405 0.37621 0.7267 0.0
H792 H 0.41515 0.42029 0.68611 0.0
N793 N 0.45057 0.4269 0.71759 0.0
N794 N 0.4719 0.45096 0.72775 0.0
C795 C 0.46659 0.43604 0.71549 0.0
C796 C 0.44576 0.43639 0.73211 0.0
C797 C 0.45874 0.4511 0.73828 0.0
C798 C 0.44052 0.39311 0.76746 0.0
O799 O 0.44361 0.40712 0.77876 0.0
H800 H 0.47424 0.43181 0.70583 0.0
H801 H 0.43359 0.43288 0.73788 0.0
O802 O 0.43809 0.40312 0.65202 0.0
H803 H 0.38392 0.40237 0.69228 0.0
H804 H 0.45844 0.46122 0.74913 0.0
Cu805 Cu 0.62431 0.03706 0.68882 0.0
N806 N 0.64033 0.04267 0.65569 0.0
N807 N 0.65513 0.03405 0.62921 0.0
C808 C 0.64995 0.03664 0.66004 0.0
C809 C 0.64888 0.03913 0.6042 0.0
C810 C 0.63965 0.04437 0.62061 0.0
O811 O 0.6353 0.04088 0.73483 0.0
C812 C 0.59953 0.01166 0.65038 0.0
O813 O 0.59457 0.02173 0.64464 0.0
H814 H 0.65078 0.03156 0.6848 0.0
H815 H 0.63113 0.04669 0.60771 0.0
N816 N 0.6138 0.04879 0.68528 0.0
N817 N 0.59419 0.05455 0.68821 0.0
C818 C 0.59949 0.04479 0.69908 0.0
C819 C 0.61786 0.06172 0.66551 0.0
C820 C 0.60585 0.0653 0.66729 0.0
C821 C 0.64741 0.05477 0.73802 0.0
O822 O 0.6502 0.06503 0.71268 0.0
H823 H 0.5929 0.03451 0.71571 0.0
H824 H 0.62852 0.06774 0.6498 0.0
O825 O 0.61032 0.01502 0.67354 0.0
H826 H 0.64898 0.03696 0.57622 0.0
H827 H 0.60547 0.07468 0.65287 0.0
H828 H 0.96015 0.31601 0.13064 0.0
H829 H 0.96791 0.3341 0.02437 0.0
H830 H 0.98837 0.32471 0.13604 0.0
H831 H 0.99592 0.3424 0.02923 0.0
H832 H 0.04782 0.36567 0.05411 0.0
H833 H 0.02073 0.36045 0.05668 0.0
H834 H 1.00669 0.31683 0.11267 0.0
H835 H 0.034 0.32235 0.1113 0.0
C836 C 0.96792 0.32211 0.10867 0.0
C837 C 0.96177 0.32437 0.07704 0.0
C838 C 0.98407 0.32691 0.11157 0.0
C839 C 0.99447 0.33418 0.083 0.0
C840 C 0.98837 0.33699 0.05194 0.0
C841 C 0.97227 0.33214 0.04902 0.0
C842 C 0.03909 0.35509 0.06755 0.0
C843 C 0.04323 0.3444 0.08233 0.0
C844 C 0.02344 0.35201 0.06868 0.0
C845 C 1.01142 0.33815 0.08464 0.0
C846 C 0.01561 0.32769 0.10038 0.0
C847 C 0.03129 0.33076 0.09921 0.0
H848 H 0.69067 0.65786 0.05586 0.0
H849 H 0.66053 0.61918 0.98675 0.0
H850 H 0.67209 0.66764 0.0533 0.0
H851 H 0.64165 0.62885 0.98453 0.0
H852 H 0.62582 0.66623 0.95451 0.0
H853 H 0.64041 0.65189 0.95974 0.0
H854 H 0.64567 0.66139 0.07163 0.0
H855 H 0.63118 0.67566 0.06629 0.0
C856 C 0.67998 0.65136 0.04036 0.0
C857 C 0.67712 0.63776 0.0215 0.0
C858 C 0.66923 0.65689 0.03909 0.0
C859 C 0.65532 0.64903 1.01873 0.0
C860 C 0.65228 0.63524 1.0003 0.0
C861 C 0.66302 0.6296 1.00187 0.0
C862 C 0.62977 0.66491 0.9803 0.0
C863 C 0.62753 0.67228 1.00989 0.0
C864 C 0.63817 0.65672 0.98334 0.0
C865 C 0.64448 0.65571 1.01603 0.0
C866 C 0.64133 0.66224 0.0459 0.0
C867 C 0.63298 0.67039 0.04287 0.0
H868 H 0.32241 0.04752 0.94827 0.0
H869 H 0.32892 0.062 0.05741 0.0
H870 H 0.30635 0.01983 0.96628 0.0
H871 H 0.31275 0.03421 0.07548 0.0
H872 H 0.2715 0.98086 0.08629 0.0
H873 H 0.28388 0.00894 0.06894 0.0
H874 H 0.31585 1.00297 1.00038 0.0
H875 H 0.30372 0.97528 1.01783 0.0
C876 C 0.32007 0.04482 0.97605 0.0
C877 C 0.32696 0.0569 1.00146 0.0
C878 C 0.31099 0.02897 0.98636 0.0
C879 C 0.30842 0.02491 0.02227 0.0
C880 C 0.3145 0.03704 0.04764 0.0
C881 C 0.3238 0.05289 0.03733 0.0
C882 C 0.28121 0.98566 0.06765 0.0
C883 C 0.28677 0.97597 0.05374 0.0
C884 C 0.28827 1.00165 0.05777 0.0
C885 C 0.30072 0.00805 0.03313 0.0
C886 C 0.30617 0.9983 1.01914 0.0
C887 C 0.29935 0.9825 0.02948 0.0
H888 H 0.05365 0.68059 0.92018 0.0
H889 H 0.05862 0.70859 1.01259 0.0
H890 H 0.02612 0.67469 0.9136 0.0
H891 H 0.03162 0.70291 1.00609 0.0
H892 H 0.97827 0.67653 1.0092 0.0
H893 H 1.0052 0.68141 1.013 0.0
H894 H 1.00985 0.68675 0.89986 0.0
H895 H 0.98252 0.68114 0.8959 0.0
C896 C 0.04885 0.68538 0.93912 0.0
C897 C 0.05819 0.69462 0.96749 0.0
C898 C 0.03314 0.68211 0.93529 0.0
C899 C 0.02654 0.68813 0.95967 0.0
C900 C 0.03609 0.69767 0.98744 0.0
C901 C 0.05163 0.70086 0.99128 0.0
C902 C 0.98494 0.67864 0.98506 0.0
C903 C 0.97812 0.67844 0.95227 0.0
C904 C 1.0005 0.68159 0.98725 0.0
C905 C 1.00978 0.68453 0.95674 0.0
C906 C 1.00301 0.68438 0.92387 0.0
C907 C 0.98739 0.6814 0.92167 0.0
H908 H 0.36712 0.33364 0.94513 0.0
H909 H 0.31598 0.30543 0.9441 0.0
H910 H 0.36547 0.35767 0.94106 0.0
H911 H 0.31442 0.32957 0.93917 0.0
H912 H 0.31648 0.37549 0.90936 0.0
H913 H 0.32093 0.3531 0.90039 0.0
H914 H 0.35614 0.37113 0.98306 0.0
H915 H 0.35155 0.39338 0.9919 0.0
C916 C 0.3555 0.33248 0.9441 0.0
C917 C 0.34166 0.31747 0.94566 0.0
C918 C 0.35459 0.34632 0.9415 0.0
C919 C 0.33983 0.34555 0.93994 0.0
C920 C 0.32599 0.33056 0.93994 0.0
C921 C 0.32689 0.3167 0.94285 0.0
C922 C 0.3256 0.37495 0.92458 0.0
C923 C 0.33388 0.38626 0.95097 0.0
C924 C 0.32797 0.36202 0.91986 0.0
C925 C 0.33881 0.36028 0.94118 0.0
C926 C 0.34782 0.37219 0.96598 0.0
C927 C 0.34527 0.38495 0.971 0.0
H928 H 0.66101 0.97167 0.98149 0.0
H929 H 0.61999 0.96445 0.0401 0.0
H930 H 0.67237 1.00025 0.98626 0.0
H931 H 0.63123 0.99321 0.0443 0.0
H932 H 0.66811 0.04532 0.081 0.0
H933 H 0.65342 0.01643 0.07386 0.0
H934 H 0.66877 0.02176 0.96543 0.0
H935 H 0.68334 0.05043 0.97261 0.0
C936 C 0.65436 0.97619 0.99523 0.0
C937 C 0.63959 0.96572 1.01044 0.0
C938 C 0.66081 0.99262 0.99771 0.0
C939 C 0.65272 0.99911 1.01563 0.0
C940 C 0.63784 0.98865 0.03052 0.0
C941 C 0.63131 0.97215 0.02778 0.0
C942 C 0.66809 0.04031 0.0555 0.0
C943 C 0.67712 0.05021 0.02756 0.0
C944 C 0.65968 0.02374 0.05138 0.0
C945 C 0.66011 0.01671 1.01921 0.0
C946 C 0.66847 0.0267 0.99083 0.0
C947 C 0.67683 0.04317 0.99494 0.0
H948 H 0.71269 0.65926 0.34124 0.0
H949 H 0.72131 0.67714 0.44766 0.0
H950 H 0.68494 0.65133 0.34699 0.0
H951 H 0.69315 0.66834 0.45471 0.0
H952 H 0.64577 0.66784 0.43967 0.0
H953 H 0.67353 0.6742 0.4392 0.0
H954 H 0.66076 0.63423 0.37 0.0
H955 H 0.63377 0.62899 0.36839 0.0
C956 C 0.70847 0.66096 0.36636 0.0
C957 C 0.71909 0.66866 0.39412 0.0
C958 C 0.69249 0.65641 0.36981 0.0
C959 C 0.68659 0.65911 0.40145 0.0
C960 C 0.6972 0.66629 0.42973 0.0
C961 C 0.71329 0.67115 0.42595 0.0
C962 C 0.64908 0.66054 0.42443 0.0
C963 C 0.63774 0.64811 0.40374 0.0
C964 C 0.66492 0.66404 0.42431 0.0
C965 C 0.66959 0.65488 0.40411 0.0
C966 C 0.65791 0.64194 0.38492 0.0
C967 C 0.64232 0.6388 0.38426 0.0
H968 H 0.3505 0.96729 0.30945 0.0
H969 H 0.35195 0.97463 0.422 0.0
H970 H 0.33336 0.97868 0.30278 0.0
H971 H 0.33464 0.98586 0.41533 0.0
H972 H 0.29549 0.9975 0.39258 0.0
H973 H 0.30792 0.9811 0.39742 0.0
H974 H 0.33827 1.00604 0.30927 0.0
H975 H 0.32574 0.02228 0.30437 0.0
C976 C 0.34704 0.97119 0.33284 0.0
C977 C 0.35284 0.97024 0.36621 0.0
C978 C 0.33722 0.97773 0.32899 0.0
C979 C 0.33279 0.98339 0.35845 0.0
C980 C 0.33775 0.98154 0.39209 0.0
C981 C 0.34767 0.97506 0.39594 0.0
C982 C 0.30456 0.99922 0.37376 0.0
C983 C 0.30961 0.01115 0.34796 0.0
C984 C 0.31181 0.98994 0.37679 0.0
C985 C 0.32411 0.99226 0.35379 0.0
C986 C 0.32872 1.0038 0.3272 0.0
C987 C 0.32162 0.01318 0.32446 0.0
H988 H 0.02132 0.30219 0.3461 0.0
H989 H 1.0017 0.29529 0.24145 0.0
H990 H 0.02723 0.32968 0.34546 0.0
H991 H 1.00766 0.32292 0.24052 0.0
H992 H 0.99898 0.36376 0.28077 0.0
H993 H 0.99661 0.33771 0.27315 0.0
H994 H 0.04336 0.35578 0.31725 0.0
H995 H 0.0456 0.38158 0.32556 0.0
C996 C 0.01865 0.30674 0.32261 0.0
C997 C 1.01116 0.29667 0.2938 0.0
C998 C 0.02203 0.32247 0.32218 0.0
C999 C 0.01783 0.32848 0.29301 0.0
C1000 C 1.01091 0.3186 0.2635 0.0
C1001 C 1.0077 0.30286 0.26381 0.0
C1002 C 1.00875 0.36216 0.28877 0.0
C1003 C 0.02244 0.37479 0.30389 0.0
C1004 C 1.00747 0.34729 0.28403 0.0
C1005 C 0.0198 0.34466 0.29461 0.0
C1006 C 0.03361 0.35737 0.30903 0.0
C1007 C 0.03493 0.37223 0.31351 0.0
H1008 H 0.65867 0.02694 0.37002 0.0
H1009 H 0.64789 0.99277 0.28677 0.0
H1010 H 0.68627 0.03385 0.36826 0.0
H1011 H 0.67573 0.99985 0.28463 0.0
H1012 H 0.72456 1.00592 0.31962 0.0
H1013 H 0.69639 0.99821 0.31685 0.0
H1014 H 0.70921 0.04714 0.33268 0.0
H1015 H 0.73694 0.05455 0.33623 0.0
C1016 C 0.66222 0.02107 0.35088 0.0
C1017 C 0.651 0.00936 0.32839 0.0
C1018 C 0.67812 0.02503 0.34986 0.0
C1019 C 0.68335 0.0175 0.32612 0.0
C1020 C 0.67214 1.00578 0.30353 0.0
C1021 C 0.65617 1.00175 0.30468 0.0
C1022 C 0.72124 0.01494 0.32228 0.0
C1023 C 0.73286 0.03074 0.32892 0.0
C1024 C 0.70515 0.01058 0.32061 0.0
C1025 C 0.70044 0.02201 0.32521 0.0
C1026 C 0.71226 0.03792 0.33014 0.0
C1027 C 0.7282 0.04219 0.33211 0.0
H1028 H 0.95055 0.64798 0.35826 0.0
H1029 H 0.96039 0.66429 0.46573 0.0
H1030 H 0.97227 0.6427 0.3592 0.0
H1031 H 0.98165 0.65787 0.46825 0.0
H1032 H 0.03055 0.6629 0.44686 0.0
H1033 H 1.00731 0.66633 0.45071 0.0
H1034 H 0.98277 0.62794 0.37607 0.0
H1035 H 1.00627 0.62585 0.37 0.0
C1036 C 0.95695 0.6497 0.38271 0.0
C1037 C 0.95364 0.65625 0.41212 0.0
C1038 C 0.96952 0.6467 0.38339 0.0
C1039 C 0.97892 0.6498 0.41389 0.0
C1040 C 0.97499 0.6556 0.44402 0.0
C1041 C 0.96262 0.65899 0.44294 0.0
C1042 C 0.02017 0.65543 0.43111 0.0
C1043 C 0.02031 0.64438 0.40767 0.0
C1044 C 1.00675 0.65719 0.43355 0.0
C1045 C 0.99303 0.64754 0.41334 0.0
C1046 C 0.99314 0.63605 0.39108 0.0
C1047 C 1.00665 0.63476 0.38771 0.0
H1048 H 0.39483 0.39196 0.38315 0.0
H1049 H 0.35056 0.37763 0.4357 0.0
H1050 H 0.39086 0.36549 0.389 0.0
H1051 H 0.34552 0.35031 0.43877 0.0
H1052 H 0.34444 0.30367 0.45719 0.0
H1053 H 0.35097 0.33135 0.46161 0.0
H1054 H 0.37677 0.34133 0.36325 0.0
H1055 H 0.371 0.31411 0.36051 0.0
C1056 C 0.3842 0.38302 0.39605 0.0
C1057 C 0.37302 0.38679 0.40909 0.0
C1058 C 0.38174 0.36771 0.39891 0.0
C1059 C 0.36768 0.35549 0.41368 0.0
C1060 C 0.35658 0.35936 0.4275 0.0
C1061 C 0.35933 0.37494 0.42556 0.0
C1062 C 0.35179 0.31198 0.43707 0.0
C1063 C 0.35744 0.30686 0.40884 0.0
C1064 C 0.35539 0.3278 0.43928 0.0
C1065 C 0.36445 0.33877 0.41286 0.0
C1066 C 0.37016 0.33352 0.38477 0.0
C1067 C 0.36685 0.31784 0.38303 0.0
H1068 H 0.30478 0.93749 0.70337 0.0
H1069 H 0.31541 0.94446 0.59212 0.0
H1070 H 0.33301 0.95056 0.71671 0.0
H1071 H 0.34364 0.95709 0.60534 0.0
H1072 H 0.38991 0.99996 0.64695 0.0
H1073 H 0.36229 0.98274 0.63094 0.0
H1074 H 0.35767 0.94983 0.71265 0.0
H1075 H 0.3853 0.96741 0.72946 0.0
C1076 C 0.31315 0.94157 0.68174 0.0
C1077 C 0.30785 0.9401 0.64673 0.0
C1078 C 0.32933 0.94894 0.68936 0.0
C1079 C 0.3406 0.95504 0.6621 0.0
C1080 C 0.33526 0.95274 0.62697 0.0
C1081 C 0.31906 0.94533 0.61936 0.0
C1082 C 0.38301 0.9891 0.66163 0.0
C1083 C 0.38978 0.98517 0.68978 0.0
C1084 C 0.36722 0.97909 0.65209 0.0
C1085 C 0.35776 0.96488 0.67047 0.0
C1086 C 0.36461 0.96075 0.69813 0.0
C1087 C 0.38047 0.97076 0.7076 0.0
H1088 H 0.9742 0.33595 0.61796 0.0
H1089 H 0.96762 0.3381 0.73 0.0
H1090 H 0.98504 0.31846 0.62859 0.0
H1091 H 0.97869 0.32092 0.74057 0.0
H1092 H 0.02247 0.31355 0.74255 0.0
H1093 H 1.00655 0.32621 0.73342 0.0
H1094 H 0.97959 0.29174 0.65298 0.0
H1095 H 0.99559 0.27904 0.66233 0.0
C1096 C 0.97471 0.33242 0.64475 0.0
C1097 C 0.97026 0.33866 0.67315 0.0
C1098 C 0.98097 0.32242 0.65086 0.0
C1099 C 0.98296 0.31852 0.68548 0.0
C1100 C 0.9776 0.32396 0.71365 0.0
C1101 C 0.97126 0.33382 0.70755 0.0
C1102 C 0.013 0.30858 0.72327 0.0
C1103 C 1.01022 0.29528 0.70333 0.0
C1104 C 1.00383 0.31576 0.71812 0.0
C1105 C 0.99178 0.30997 0.69248 0.0
C1106 C 0.98881 0.2965 0.67285 0.0
C1107 C 0.99786 0.28914 0.67844 0.0
H1108 H 0.72393 0.72018 0.67934 0.0
H1109 H 0.70594 0.73128 0.77223 0.0
H1110 H 0.70207 0.69264 0.68188 0.0
H1111 H 0.68378 0.70382 0.77446 0.0
H1112 H 0.63681 0.66138 0.72139 0.0
H1113 H 0.66002 0.68796 0.72894 0.0
H1114 H 0.69068 0.66794 0.72453 0.0
H1115 H 0.66761 0.64152 0.71737 0.0
C1116 C 0.71547 0.71655 0.70076 0.0
C1117 C 0.71671 0.72765 0.72595 0.0
C1118 C 0.70297 0.70087 0.70219 0.0
C1119 C 0.69123 0.69614 0.72833 0.0
C1120 C 0.69267 0.70718 0.75404 0.0
C1121 C 0.7054 0.72278 0.75304 0.0
C1122 C 0.64851 0.6627 0.72248 0.0
C1123 C 0.65038 0.64938 0.71898 0.0
C1124 C 0.66175 0.67784 0.72699 0.0
C1125 C 0.67713 0.67997 0.72732 0.0
C1126 C 0.67897 0.66663 0.72435 0.0
C1127 C 0.66575 0.6515 0.72052 0.0
H1128 H 0.36374 0.37697 0.67209 0.0
H1129 H 0.37964 0.36087 0.76078 0.0
H1130 H 0.33781 0.35311 0.67538 0.0
H1131 H 0.35345 0.33676 0.76408 0.0
H1132 H 0.2967 0.30751 0.77705 0.0
H1133 H 0.32434 0.32906 0.77728 0.0
H1134 H 0.32683 0.32389 0.66484 0.0
H1135 H 0.29941 0.30225 0.66467 0.0
C1136 C 0.36166 0.36839 0.69251 0.0
C1137 C 0.37376 0.37088 0.71626 0.0
C1138 C 0.34683 0.35461 0.69415 0.0
C1139 C 0.3436 0.34297 0.71982 0.0
C1140 C 0.35559 0.34551 0.74402 0.0
C1141 C 0.37058 0.35926 0.74202 0.0
C1142 C 0.30327 0.31065 0.75256 0.0
C1143 C 0.29575 0.30325 0.72073 0.0
C1144 C 0.3191 0.32306 0.75268 0.0
C1145 C 0.32767 0.32837 0.72097 0.0
C1146 C 0.32045 0.3203 0.6896 0.0
C1147 C 0.30474 0.30787 0.68952 0.0
H1148 H 0.69826 0.97589 0.58225 0.0
H1149 H 0.67277 0.95917 0.68012 0.0
H1150 H 0.68733 0.99348 0.57422 0.0
H1151 H 0.66267 0.97716 0.67378 0.0
H1152 H 0.63893 1.00408 0.65236 0.0
H1153 H 0.64606 0.98372 0.64717 0.0
H1154 H 0.68948 0.01708 0.59421 0.0
H1155 H 0.68112 0.03702 0.59627 0.0
C1156 C 0.69011 0.97584 0.60172 0.0
C1157 C 0.68613 0.96599 0.63146 0.0
C1158 C 0.68401 0.98607 0.59746 0.0
C1159 C 0.67406 0.98688 0.6233 0.0
C1160 C 0.66988 0.97669 0.65265 0.0
C1161 C 0.67568 0.96628 0.65643 0.0
C1162 C 0.64977 1.0069 0.63874 0.0
C1163 C 0.65945 0.02205 0.6245 0.0
C1164 C 0.65407 0.9953 0.63629 0.0
C1165 C 0.66858 0.99872 0.62101 0.0
C1166 C 0.67814 0.01386 0.60591 0.0
C1167 C 0.67349 0.02536 0.60729 0.0
H1168 H 0.0264 0.7191 0.76407 0.0
H1169 H 0.01173 0.71255 0.65524 0.0
H1170 H 0.01867 0.69102 0.76805 0.0
H1171 H 1.00395 0.68451 0.65903 0.0
H1172 H 0.98059 0.6319 0.68613 0.0
H1173 H 0.98493 0.65883 0.68823 0.0
H1174 H 0.02962 0.67469 0.74097 0.0
H1175 H 0.0252 0.64765 0.73914 0.0
C1176 C 0.02109 0.71154 0.74132 0.0
C1177 C 0.01951 0.71794 0.7094 0.0
C1178 C 0.01687 0.69553 0.74343 0.0
C1179 C 1.01078 0.68555 0.7138 0.0
C1180 C 1.00849 0.69182 0.68241 0.0
C1181 C 0.01292 0.70785 0.68019 0.0
C1182 C 0.99125 0.64107 0.69858 0.0
C1183 C 1.00256 0.6376 0.71246 0.0
C1184 C 0.99378 0.65653 0.69955 0.0
C1185 C 1.00761 0.66891 0.71479 0.0
C1186 C 0.01877 0.6654 0.72935 0.0
C1187 C 0.01633 0.64995 0.72799 0.0
H1188 H 0.23334 0.37756 1.00326 0.0
H1189 H 0.24783 0.41626 0.07653 0.0
H1190 H 0.20564 0.37099 1.0097 0.0
H1191 H 0.22015 0.40954 0.0835 0.0
H1192 H 0.1668 0.37767 0.11718 0.0
H1193 H 0.19457 0.38505 0.10891 0.0
H1194 H 0.18866 0.38491 0.99616 0.0
H1195 H 0.16085 0.3778 1.00457 0.0
C1196 C 0.23059 0.3846 0.02087 0.0
C1197 C 0.24278 0.39742 0.03942 0.0
C1198 C 0.21476 0.38092 0.02435 0.0
C1199 C 0.2107 0.38975 0.0471 0.0
C1200 C 0.22288 0.40248 0.06586 0.0
C1201 C 0.23873 0.40638 0.06176 0.0
C1202 C 0.17143 0.37924 0.09064 0.0
C1203 C 0.16162 0.37714 0.06152 0.0
C1204 C 0.18735 0.38354 0.0859 0.0
C1205 C 0.19381 0.38553 0.05189 0.0
C1206 C 0.18401 0.38338 0.02269 0.0
C1207 C 0.16814 0.37943 0.02748 0.0
H1208 H 0.59102 0.76511 0.04337 0.0
H1209 H 0.63916 0.78527 1.00652 0.0
H1210 H 0.59353 0.79122 0.04255 0.0
H1211 H 0.64165 0.81149 1.00508 0.0
H1212 H 0.64531 0.85925 0.03262 0.0
H1213 H 0.64357 0.83343 0.03742 0.0
H1214 H 0.59466 0.81058 1.00426 0.0
H1215 H 0.59616 0.8361 1.00114 0.0
C1216 C 0.60213 0.77508 0.03477 0.0
C1217 C 0.61483 0.77291 0.02479 0.0
C1218 C 0.60359 0.79017 0.03421 0.0
C1219 C 0.61777 0.80367 0.02341 0.0
C1220 C 0.63058 0.80153 1.01397 0.0
C1221 C 0.62914 0.78641 1.01472 0.0
C1222 C 0.63412 0.84873 0.02673 0.0
C1223 C 0.62091 0.85 1.01635 0.0
C1224 C 0.63316 0.83384 0.0291 0.0
C1225 C 0.61896 0.81971 0.02126 0.0
C1226 C 0.60577 0.82103 1.01108 0.0
C1227 C 0.60671 0.83584 1.00878 0.0
H1228 H 0.15877 0.78104 0.08897 0.0
H1229 H 0.17914 0.77927 0.98942 0.0
H1230 H 0.18009 0.80825 0.09762 0.0
H1231 H 0.20013 0.8067 0.99697 0.0
H1232 H 0.24408 0.85253 0.03425 0.0
H1233 H 0.2233 0.82496 0.02506 0.0
H1234 H 0.19015 0.83422 0.0812 0.0
H1235 H 0.2111 0.86134 0.09153 0.0
C1236 C 0.16775 0.78654 0.06876 0.0
C1237 C 0.16723 0.77791 0.03859 0.0
C1238 C 0.18 0.80226 0.07352 0.0
C1239 C 0.19199 0.80999 0.04792 0.0
C1240 C 0.19141 0.80126 1.0177 0.0
C1241 C 0.17929 0.78546 1.01325 0.0
C1242 C 0.2323 0.84862 0.04438 0.0
C1243 C 0.2293 0.8591 0.06388 0.0
C1244 C 0.2203 0.83278 0.03908 0.0
C1245 C 0.20487 0.82704 0.05267 0.0
C1246 C 0.20187 0.83782 0.07117 0.0
C1247 C 0.21389 0.8535 0.07692 0.0
H1248 H 0.36764 0.22345 0.90332 0.0
H1249 H 0.36569 0.22634 1.01661 0.0
H1250 H 0.37315 0.20183 0.90899 0.0
H1251 H 0.37152 0.20468 0.02236 0.0
H1252 H 0.36666 0.15442 1.01401 0.0
H1253 H 0.35969 0.17534 1.0098 0.0
H1254 H 0.39523 0.1985 0.92915 0.0
H1255 H 0.40197 0.17764 0.93302 0.0
C1256 C 0.36828 0.21942 0.92951 0.0
C1257 C 0.36616 0.22667 0.95951 0.0
C1258 C 0.3716 0.20707 0.93277 0.0
C1259 C 0.37282 0.20149 0.96613 0.0
C1260 C 0.37055 0.2086 0.99624 0.0
C1261 C 0.36737 0.22111 0.99297 0.0
C1262 C 0.37285 0.16391 0.99518 0.0
C1263 C 0.38489 0.16434 0.97388 0.0
C1264 C 0.36898 0.17599 0.99302 0.0
C1265 C 0.3769 0.18864 0.96913 0.0
C1266 C 0.38878 0.18891 0.94762 0.0
C1267 C 0.39275 0.17698 0.95005 0.0
H1268 H 0.85561 0.22908 0.98674 0.0
H1269 H 0.83266 0.24997 0.04546 0.0
H1270 H 0.8308 0.20378 0.98595 0.0
H1271 H 0.80803 0.22483 0.04452 0.0
H1272 H 0.762 0.18217 1.00719 0.0
H1273 H 0.787 0.20706 1.00637 0.0
H1274 H 0.81227 0.18173 0.02232 0.0
H1275 H 0.78719 0.15673 0.02323 0.0
C1276 C 0.84538 0.22836 0.99966 0.0
C1277 C 0.84636 0.24184 1.016 0.0
C1278 C 0.83107 0.21375 0.99923 0.0
C1279 C 0.81723 0.21212 1.01502 0.0
C1280 C 0.81825 0.22557 0.03143 0.0
C1281 C 0.83252 0.24013 0.03196 0.0
C1282 C 0.77281 0.1818 1.01082 0.0
C1283 C 0.77234 0.16722 1.01551 0.0
C1284 C 0.78726 0.1962 1.01035 0.0
C1285 C 0.80181 0.19658 1.01449 0.0
C1286 C 0.8014 0.182 1.01864 0.0
C1287 C 0.78692 0.16757 1.01919 0.0
H1288 H 0.85693 0.63206 1.01585 0.0
H1289 H 0.8605 0.65992 0.92433 0.0
H1290 H 0.83095 0.62896 0.02929 0.0
H1291 H 0.83454 0.65656 0.93715 0.0
H1292 H 0.79389 0.66004 0.9874 0.0
H1293 H 0.82031 0.66406 0.97782 0.0
H1294 H 0.80376 0.61541 1.00657 0.0
H1295 H 0.77726 0.61128 1.01591 0.0
C1296 C 0.85226 0.63763 0.99874 0.0
C1297 C 0.86087 0.64619 0.96888 0.0
C1298 C 0.83726 0.63571 1.00622 0.0
C1299 C 0.83051 0.64245 0.98427 0.0
C1300 C 0.83931 0.65129 0.9549 0.0
C1301 C 0.8542 0.6531 0.94731 0.0
C1302 C 0.79573 0.65011 0.99147 0.0
C1303 C 0.78317 0.63528 1.0024 0.0
C1304 C 0.81101 0.65244 0.98598 0.0
C1305 C 0.81429 0.64007 0.99136 0.0
C1306 C 0.80181 0.62531 1.00263 0.0
C1307 C 0.78651 0.62293 1.00796 0.0
H1308 H 0.8194 0.69838 0.37509 0.0
H1309 H 0.84986 0.74868 0.39148 0.0
H1310 H 0.84289 0.69537 0.3701 0.0
H1311 H 0.87291 0.74562 0.38792 0.0
H1312 H 0.91226 0.74033 0.3441 0.0
H1313 H 0.88746 0.74048 0.34453 0.0
H1314 H 0.86551 0.69695 0.40434 0.0
H1315 H 0.89063 0.69672 0.40337 0.0
C1316 C 0.83103 0.70877 0.37762 0.0
C1317 C 0.83262 0.72377 0.38386 0.0
C1318 C 0.8445 0.70703 0.3751 0.0
C1319 C 0.85987 0.72026 0.37838 0.0
C1320 C 0.86135 0.73517 0.38465 0.0
C1321 C 0.84801 0.7369 0.38721 0.0
C1322 C 0.90219 0.73078 0.35746 0.0
C1323 C 0.90356 0.71868 0.37432 0.0
C1324 C 0.88791 0.73087 0.35773 0.0
C1325 C 0.87448 0.71891 0.37512 0.0
C1326 C 0.87558 0.70635 0.39067 0.0
C1327 C 0.88997 0.70622 0.39019 0.0
H1328 H 0.32271 0.19676 0.34914 0.0
H1329 H 0.29206 0.17819 0.43977 0.0
H1330 H 0.32073 0.17085 0.34023 0.0
H1331 H 0.29033 0.15265 0.43141 0.0
H1332 H 0.27652 0.10429 0.38608 0.0
H1333 H 0.27883 0.13023 0.39146 0.0
H1334 H 0.32877 0.15261 0.36783 0.0
H1335 H 0.32636 0.12644 0.36167 0.0
C1336 C 0.3155 0.18717 0.36703 0.0
C1337 C 0.3076 0.18966 0.39525 0.0
C1338 C 0.31449 0.17234 0.36217 0.0
C1339 C 0.30536 0.15957 0.38509 0.0
C1340 C 0.29735 0.16208 0.41298 0.0
C1341 C 0.29847 0.17685 0.418 0.0
C1342 C 0.288 0.11468 0.38172 0.0
C1343 C 0.30124 0.11315 0.3734 0.0
C1344 C 0.28936 0.12964 0.38514 0.0
C1345 C 0.304 0.14362 0.38021 0.0
C1346 C 0.31727 0.14214 0.37156 0.0
C1347 C 0.31592 0.12711 0.36841 0.0
H1348 H 0.84376 0.12493 0.34732 0.0
H1349 H 0.86643 0.0969 0.36042 0.0
H1350 H 0.86955 0.14898 0.34702 0.0
H1351 H 0.89228 0.12101 0.3602 0.0
H1352 H 0.93639 0.16635 0.32065 0.0
H1353 H 0.91077 0.14203 0.32245 0.0
H1354 H 0.89168 0.16591 0.38393 0.0
H1355 H 0.91727 0.19023 0.38206 0.0
C1356 C 0.8542 0.12384 0.35053 0.0
C1357 C 0.85287 0.10883 0.35394 0.0
C1358 C 0.86907 0.13772 0.35037 0.0
C1359 C 0.88312 0.13705 0.35363 0.0
C1360 C 0.88179 0.12204 0.35708 0.0
C1361 C 0.86691 0.10816 0.35724 0.0
C1362 C 0.92682 0.16643 0.33489 0.0
C1363 C 0.92903 0.18041 0.35107 0.0
C1364 C 0.91205 0.15241 0.33594 0.0
C1365 C 0.89902 0.15192 0.35321 0.0
C1366 C 0.90129 0.16585 0.36978 0.0
C1367 C 0.91604 0.17985 0.36873 0.0
H1368 H 0.02133 0.48371 0.29006 0.0
H1369 H 0.06344 0.49713 0.35182 0.0
H1370 H 0.02525 0.51016 0.29678 0.0
H1371 H 0.06687 0.52344 0.36016 0.0
H1372 H 0.07788 0.57425 0.33805 0.0
H1373 H 0.07433 0.54777 0.33108 0.0
H1374 H 0.02357 0.52766 0.33694 0.0
H1375 H 0.02717 0.55412 0.34319 0.0
C1376 C 0.03145 0.49223 0.30514 0.0
C1377 C 0.04211 0.48809 0.32013 0.0
C1378 C 0.03358 0.50746 0.30942 0.0
C1379 C 0.04639 0.51909 0.32908 0.0
C1380 C 0.05698 0.51494 0.34441 0.0
C1381 C 0.05489 0.4997 0.33998 0.0
C1382 C 0.06596 0.56417 0.33794 0.0
C1383 C 0.05282 0.56639 0.341 0.0
C1384 C 0.06391 0.54892 0.33408 0.0
C1385 C 0.04864 0.53542 0.33341 0.0
C1386 C 0.03551 0.53769 0.33661 0.0
C1387 C 0.03757 0.55294 0.34022 0.0
H1388 H 0.53237 0.55979 0.34307 0.0
H1389 H 0.50734 0.58558 0.35506 0.0
H1390 H 0.50717 0.53489 0.34161 0.0
H1391 H 0.48218 0.56078 0.35339 0.0
H1392 H 0.44151 0.51335 0.39147 0.0
H1393 H 0.46661 0.53803 0.38924 0.0
H1394 H 0.48317 0.51844 0.30875 0.0
H1395 H 0.45792 0.49358 0.31105 0.0
C1396 C 0.52152 0.56021 0.34488 0.0
C1397 C 0.52199 0.57479 0.34941 0.0
C1398 C 0.507 0.54588 0.34406 0.0
C1399 C 0.49253 0.5457 0.34769 0.0
C1400 C 0.49303 0.56033 0.35131 0.0
C1401 C 0.50751 0.57463 0.3522 0.0
C1402 C 0.45035 0.51427 0.37293 0.0
C1403 C 0.4475 0.50133 0.35133 0.0
C1404 C 0.46485 0.52853 0.37163 0.0
C1405 C 0.47701 0.53039 0.34868 0.0
C1406 C 0.4742 0.51746 0.32708 0.0
C1407 C 0.45966 0.50315 0.32838 0.0
H1408 H 0.45497 0.95139 0.38445 0.0
H1409 H 0.46163 0.9779 0.28875 0.0
H1410 H 0.48135 0.9549 0.37831 0.0
H1411 H 0.488 0.98119 0.28206 0.0
H1412 H 0.54039 0.99782 0.29699 0.0
H1413 H 0.51402 0.99426 0.30387 0.0
H1414 H 0.49765 0.94762 0.34733 0.0
H1415 H 0.52428 0.95143 0.34103 0.0
C1416 C 0.46196 0.95781 0.36177 0.0
C1417 C 0.45601 0.96431 0.33705 0.0
C1418 C 0.4772 0.95982 0.35818 0.0
C1419 C 0.48703 0.96833 0.32963 0.0
C1420 C 0.48103 0.97479 0.30481 0.0
C1421 C 0.46581 0.97287 0.30854 0.0
C1422 C 0.53118 0.98675 0.30785 0.0
C1423 C 0.53457 0.97489 0.31826 0.0
C1424 C 0.51593 0.98466 0.31171 0.0
C1425 C 0.50345 0.97058 0.32594 0.0
C1426 C 0.50688 0.95874 0.33669 0.0
C1427 C 0.52221 0.9609 0.33304 0.0
H1428 H 0.56701 0.02809 0.70889 0.0
H1429 H 0.58599 0.0774 0.68192 0.0
H1430 H 0.5411 0.02537 0.7184 0.0
H1431 H 0.55997 0.07459 0.69119 0.0
H1432 H 0.50714 0.05935 0.6777 0.0
H1433 H 0.53306 0.06192 0.6665 0.0
H1434 H 0.52744 0.03371 0.75888 0.0
H1435 H 0.50153 0.03082 0.76944 0.0
C1436 C 0.56578 0.03843 0.70531 0.0
C1437 C 0.57878 0.053 0.69468 0.0
C1438 C 0.55083 0.03684 0.7107 0.0
C1439 C 0.54837 0.04975 0.70555 0.0
C1440 C 0.56133 0.06432 0.6949 0.0
C1441 C 0.57631 0.06593 0.68963 0.0
C1442 C 0.51138 0.05359 0.69541 0.0
C1443 C 0.5022 0.04493 0.72457 0.0
C1444 C 0.52633 0.05519 0.68921 0.0
C1445 C 0.53242 0.04805 0.71181 0.0
C1446 C 0.52313 0.03926 0.7407 0.0
C1447 C 0.50829 0.03775 0.747 0.0
H1448 H 0.98214 0.4498 0.73929 0.0
H1449 H 0.95036 0.44096 0.65208 0.0
H1450 H 0.98607 0.47644 0.7455 0.0
H1451 H 0.95448 0.46766 0.6577 0.0
H1452 H 0.95348 0.51158 0.69789 0.0
H1453 H 0.94919 0.48477 0.69165 0.0
H1454 H 0.99801 0.50186 0.7203 0.0
H1455 H 1.00211 0.52847 0.72718 0.0
C1456 C 0.9761 0.45357 0.72118 0.0
C1457 C 0.9659 0.44311 0.69522 0.0
C1458 C 0.97838 0.46893 0.72466 0.0
C1459 C 0.97064 0.47441 0.7021 0.0
C1460 C 0.96047 0.46392 0.67607 0.0
C1461 C 0.95811 0.44853 0.67276 0.0
C1462 C 0.96332 0.50963 0.70262 0.0
C1463 C 0.97812 0.52227 0.71326 0.0
C1464 C 0.96088 0.4942 0.69898 0.0
C1465 C 0.97321 0.49094 0.70561 0.0
C1466 C 0.98807 0.50368 0.71572 0.0
C1467 C 0.99046 0.51905 0.71958 0.0
H1468 H 0.56258 0.53455 0.67511 0.0
H1469 H 0.56233 0.53187 0.7887 0.0
H1470 H 0.53729 0.50952 0.67316 0.0
H1471 H 0.5373 0.50708 0.7868 0.0
H1472 H 0.48393 0.47535 0.77425 0.0
H1473 H 0.51014 0.49875 0.77431 0.0
H1474 H 0.52318 0.48058 0.68433 0.0
H1475 H 0.49652 0.45712 0.68378 0.0
C1476 C 0.55727 0.52858 0.69963 0.0
C1477 C 0.56448 0.53548 0.73209 0.0
C1478 C 0.54274 0.51418 0.69853 0.0
C1479 C 0.53504 0.5063 0.72986 0.0
C1480 C 0.54259 0.51294 0.76213 0.0
C1481 C 0.55702 0.52725 0.76323 0.0
C1482 C 0.49232 0.4763 0.75436 0.0
C1483 C 0.48799 0.46429 0.72892 0.0
C1484 C 0.50749 0.48971 0.7546 0.0
C1485 C 0.51892 0.49165 0.72938 0.0
C1486 C 0.51469 0.47959 0.70401 0.0
C1487 C 0.49945 0.46604 0.70392 0.0
H1488 H 0.72241 0.90344 0.67456 0.0
H1489 H 0.77333 0.92677 0.68418 0.0
H1490 H 0.72088 0.87766 0.6805 0.0
H1491 H 0.77188 0.90129 0.68872 0.0
H1492 H 0.76437 0.85472 0.72969 0.0
H1493 H 0.76393 0.87943 0.72788 0.0
H1494 H 0.72728 0.85975 0.64846 0.0
H1495 H 0.72766 0.83489 0.65047 0.0
C1496 C 0.73326 0.9031 0.67804 0.0
C1497 C 0.748 0.91725 0.67863 0.0
C1498 C 0.73241 0.88831 0.68109 0.0
C1499 C 0.74626 0.88733 0.6851 0.0
C1500 C 0.76093 0.90151 0.68612 0.0
C1501 C 0.76178 0.9162 0.68301 0.0
C1502 C 0.75627 0.85564 0.71165 0.0
C1503 C 0.74617 0.84278 0.68998 0.0
C1504 C 0.756 0.86986 0.71063 0.0
C1505 C 0.74566 0.87171 0.68779 0.0
C1506 C 0.73529 0.85874 0.66665 0.0
C1507 C 0.73553 0.84446 0.66774 0.0
H1508 H 0.12571 0.81717 0.67835 0.0
H1509 H 0.10628 0.84782 0.66046 0.0
H1510 H 0.15243 0.8398 0.67233 0.0
H1511 H 0.13296 0.87048 0.65567 0.0
H1512 H 0.1813 0.90317 0.60511 0.0
H1513 H 0.15477 0.88103 0.61508 0.0
H1514 H 0.17245 0.86454 0.69974 0.0
H1515 H 0.19929 0.88667 0.68896 0.0
C1516 C 0.12707 0.82869 0.67315 0.0
C1517 C 0.11368 0.83052 0.66967 0.0
C1518 C 0.14247 0.84176 0.67015 0.0
C1519 C 0.14496 0.85705 0.66342 0.0
C1520 C 0.13157 0.8589 0.66042 0.0
C1521 C 0.1162 0.84587 0.66352 0.0
C1522 C 0.1796 0.89483 0.62581 0.0
C1523 C 0.19254 0.89669 0.64602 0.0
C1524 C 0.16428 0.88216 0.63181 0.0
C1525 C 0.16135 0.87089 0.65823 0.0
C1526 C 0.17424 0.87287 0.67891 0.0
C1527 C 0.18963 0.88566 0.673 0.0
H1528 H 0.16581 0.25343 0.72164 0.0
H1529 H 0.18799 0.29375 0.65176 0.0
H1530 H 0.1418 0.2551 0.72187 0.0
H1531 H 0.16381 0.29541 0.65197 0.0
H1532 H 0.12234 0.30256 0.68995 0.0
H1533 H 0.147 0.30172 0.68753 0.0
H1534 H 0.12001 0.25057 0.68539 0.0
H1535 H 0.09556 0.25142 0.68794 0.0
C1536 C 0.16558 0.26257 0.70596 0.0
C1537 C 0.17899 0.27338 0.68651 0.0
C1538 C 0.1517 0.26354 0.70609 0.0
C1539 C 0.15068 0.27534 0.68675 0.0
C1540 C 0.16412 0.28626 0.66752 0.0
C1541 C 0.17805 0.28528 0.66737 0.0
C1542 C 0.12166 0.29114 0.68862 0.0
C1543 C 0.10684 0.27706 0.68956 0.0
C1544 C 0.13584 0.29065 0.68722 0.0
C1545 C 0.13562 0.27606 0.68668 0.0
C1546 C 0.12078 0.26204 0.68668 0.0
C1547 C 0.10666 0.26252 0.68811 0.0
H1548 H 0.07689 0.44464 0.23973 0.0
H1549 H 0.09489 0.42113 0.30581 0.0
H1550 H 0.0879 0.43874 0.18784 0.0
H1551 H 0.10562 0.41503 0.25409 0.0
H1552 H 0.09036 0.40468 0.1033 0.0
H1553 H 0.08274 0.41586 0.15219 0.0
H1554 H 0.1252 0.42555 0.20837 0.0
H1555 H 0.13261 0.41415 0.16 0.0
C1556 C 0.08338 0.43841 0.24333 0.0
C1557 C 0.08499 0.43338 0.27714 0.0
C1558 C 0.08957 0.43489 0.21345 0.0
C1559 C 0.09762 0.42633 0.21655 0.0
C1560 C 0.0997 0.42182 0.25053 0.0
C1561 C 0.09348 0.42528 0.28034 0.0
C1562 C 0.09824 0.40953 0.12572 0.0
C1563 C 0.11206 0.4084 0.12772 0.0
C1564 C 0.09387 0.41595 0.15386 0.0
C1565 C 0.10321 0.42141 0.18464 0.0
C1566 C 0.1175 0.42113 0.18556 0.0
C1567 C 0.12182 0.4147 0.15759 0.0
H1568 H 0.59823 0.67039 0.29908 0.0
H1569 H 0.60158 0.63667 0.23098 0.0
H1570 H 0.6088 0.69011 0.25298 0.0
H1571 H 0.61195 0.65666 0.18356 0.0
H1572 H 0.63968 0.7017 0.11224 0.0
H1573 H 0.63375 0.68305 0.16149 0.0
H1574 H 0.59855 0.69398 0.19957 0.0
H1575 H 0.60457 0.71243 0.15133 0.0
C1576 C 0.60114 0.66709 0.27409 0.0
C1577 C 0.59873 0.65173 0.26874 0.0
C1578 C 0.60723 0.6785 0.24745 0.0
C1579 C 0.61101 0.67502 0.21409 0.0
C1580 C 0.60921 0.65983 0.2089 0.0
C1581 C 0.60317 0.64832 0.23599 0.0
C1582 C 0.63105 0.70044 0.13185 0.0
C1583 C 0.62279 0.70877 0.12816 0.0
C1584 C 0.62744 0.68954 0.15974 0.0
C1585 C 0.61565 0.68693 0.18475 0.0
C1586 C 0.60787 0.69575 0.18141 0.0
C1587 C 0.61135 0.70641 0.15363 0.0
H1588 H 0.34309 0.96166 0.07741 0.0
H1589 H 0.31285 0.91832 0.1337 0.0
H1590 H 0.36325 0.96952 0.12328 0.0
H1591 H 0.33302 0.92621 0.17963 0.0
H1592 H 0.3782 0.93666 0.23664 0.0
H1593 H 0.35939 0.92984 0.1887 0.0
H1594 H 0.36876 0.97806 0.18601 0.0
H1595 H 0.38781 0.98498 0.2346 0.0
C1596 C 0.34074 0.95373 0.09945 0.0
C1597 C 0.32628 0.93925 0.10155 0.0
C1598 C 0.3523 0.95834 0.126 0.0
C1599 C 0.34987 0.94855 0.15533 0.0
C1600 C 0.33545 0.93402 0.1573 0.0
C1601 C 0.32382 0.92947 0.13093 0.0
C1602 C 0.37642 0.94593 0.2258 0.0
C1603 C 0.3846 0.96142 0.23979 0.0
C1604 C 0.36546 0.94194 0.19833 0.0
C1605 C 0.36229 0.95329 0.18358 0.0
C1606 C 0.37089 0.96897 0.19657 0.0
C1607 C 0.38187 0.97298 0.22442 0.0
H1608 H 0.41842 0.10958 0.91954 0.0
H1609 H 0.38212 0.06021 0.92172 0.0
H1610 H 0.43123 0.10416 0.87024 0.0
H1611 H 0.39499 0.05474 0.87326 0.0
H1612 H 0.41265 0.05123 0.76468 0.0
H1613 H 0.40002 0.05815 0.81162 0.0
H1614 H 0.44605 0.09172 0.85345 0.0
H1615 H 0.45862 0.08507 0.80616 0.0
C1616 C 0.41323 0.09755 0.9098 0.0
C1617 C 0.39919 0.08537 0.92485 0.0
C1618 C 0.42061 0.0944 0.88145 0.0
C1619 C 0.41416 0.07898 0.86724 0.0
C1620 C 0.40022 0.06682 0.88271 0.0
C1621 C 0.39288 0.06996 0.91093 0.0
C1622 C 0.42009 0.06022 0.78363 0.0
C1623 C 0.4367 0.06755 0.78139 0.0
C1624 C 0.41283 0.06411 0.8109 0.0
C1625 C 0.42193 0.07546 0.83686 0.0
C1626 C 0.43856 0.08306 0.83399 0.0
C1627 C 0.4458 0.07917 0.80677 0.0
H1628 H 0.9321 0.30107 0.90249 0.0
H1629 H 0.92637 0.33611 0.96012 0.0
H1630 H 0.946 0.32073 0.85537 0.0
H1631 H 0.94032 0.35542 0.91454 0.0
H1632 H 0.94292 0.37736 0.80774 0.0
H1633 H 0.93317 0.35869 0.85621 0.0
H1634 H 0.96995 0.34719 0.83723 0.0
H1635 H 0.9797 0.36607 0.78755 0.0
C1636 C 0.93391 0.31293 0.90532 0.0
C1637 C 0.92775 0.31682 0.93482 0.0
C1638 C 0.94196 0.32423 0.87845 0.0
C1639 C 0.94406 0.33965 0.88074 0.0
C1640 C 0.93859 0.34361 0.91119 0.0
C1641 C 0.93054 0.33243 0.93752 0.0
C1642 C 0.94918 0.37112 0.81424 0.0
C1643 C 0.96225 0.37344 0.79405 0.0
C1644 C 0.94357 0.36035 0.84216 0.0
C1645 C 0.95076 0.35138 0.85097 0.0
C1646 C 0.96406 0.35382 0.83116 0.0
C1647 C 0.96982 0.36484 0.80309 0.0
H1648 H 0.71492 0.6069 0.89438 0.0
H1649 H 0.71832 0.6528 0.88999 0.0
H1650 H 0.69823 0.59855 0.84231 0.0
H1651 H 0.70157 0.64434 0.83685 0.0
H1652 H 0.6824 0.62601 0.72288 0.0
H1653 H 0.70082 0.63555 0.77254 0.0
H1654 H 0.67043 0.59245 0.82932 0.0
H1655 H 0.6518 0.58295 0.77985 0.0
C1656 C 0.71227 0.61534 0.88213 0.0
C1657 C 0.71798 0.63056 0.89674 0.0
C1658 C 0.70257 0.61045 0.85225 0.0
C1659 C 0.69835 0.62065 0.8356 0.0
C1660 C 0.7046 0.63617 0.84906 0.0
C1661 C 0.71424 0.64105 0.87945 0.0
C1662 C 0.67966 0.61846 0.7458 0.0
C1663 C 0.66557 0.60362 0.74715 0.0
C1664 C 0.69019 0.62404 0.77443 0.0
C1665 C 0.68712 0.61482 0.805 0.0
C1666 C 0.67323 0.59983 0.80608 0.0
C1667 C 0.66254 0.59436 0.77768 0.0
H1668 H 0.90405 0.60979 0.89675 0.0
H1669 H 0.94623 0.61275 0.94108 0.0
H1670 H 0.90687 0.59665 0.84449 0.0
H1671 H 0.94923 0.60001 0.88892 0.0
H1672 H 0.94744 0.56883 0.7997 0.0
H1673 H 0.93977 0.57663 0.85405 0.0
H1674 H 0.92374 0.60346 0.79354 0.0
H1675 H 0.93108 0.59537 0.73924 0.0
C1676 C 0.91377 0.60742 0.89568 0.0
C1677 C 0.9249 0.61238 0.92331 0.0
C1678 C 0.9155 0.60002 0.86547 0.0
C1679 C 0.92836 0.5973 0.86208 0.0
C1680 C 0.93906 0.60167 0.89046 0.0
C1681 C 0.93737 0.60909 0.92051 0.0
C1682 C 0.94203 0.57617 0.79789 0.0
C1683 C 0.93997 0.58148 0.76486 0.0
C1684 C 0.93774 0.58078 0.8292 0.0
C1685 C 0.93125 0.59086 0.82852 0.0
C1686 C 0.92854 0.59558 0.79536 0.0
C1687 C 0.93283 0.59097 0.76405 0.0
H1688 H 0.40237 0.30661 0.8987 0.0
H1689 H 0.40877 0.34513 0.96597 0.0
H1690 H 0.41532 0.32529 0.85035 0.0
H1691 H 0.42112 0.36363 0.9177 0.0
H1692 H 0.45182 0.39693 0.83445 0.0
H1693 H 0.44311 0.37738 0.88144 0.0
H1694 H 0.41139 0.34116 0.80874 0.0
H1695 H 0.42072 0.36078 0.76126 0.0
C1696 C 0.40667 0.31908 0.90335 0.0
C1697 C 0.40455 0.3243 0.9365 0.0
C1698 C 0.41398 0.32981 0.87541 0.0
C1699 C 0.41933 0.34611 0.8797 0.0
C1700 C 0.41751 0.35131 0.91318 0.0
C1701 C 0.41031 0.34062 0.94108 0.0
C1702 C 0.4432 0.38472 0.8283 0.0
C1703 C 0.43699 0.38046 0.79401 0.0
C1704 C 0.43803 0.37348 0.85545 0.0
C1705 C 0.42624 0.35761 0.84944 0.0
C1706 C 0.42055 0.35318 0.81463 0.0
C1707 C 0.42591 0.36445 0.78724 0.0
H1708 H 0.70785 0.06978 0.92716 0.0
H1709 H 0.71611 0.11517 0.89053 0.0
H1710 H 0.69032 0.05685 0.87623 0.0
H1711 H 0.69875 0.10253 0.84063 0.0
H1712 H 0.67731 0.0798 0.73908 0.0
H1713 H 0.69647 0.08941 0.78644 0.0
H1714 H 0.66374 0.05077 0.85257 0.0
H1715 H 0.64437 0.0407 0.80387 0.0
C1716 C 0.70632 0.07704 0.90772 0.0
C1717 C 0.71362 0.09356 0.91257 0.0
C1718 C 0.69604 0.06961 0.87887 0.0
C1719 C 0.69304 0.07859 0.85406 0.0
C1720 C 0.70087 0.09515 0.85859 0.0
C1721 C 0.71091 0.10247 0.88732 0.0
C1722 C 0.67407 0.07323 0.76359 0.0
C1723 C 0.65908 0.05958 0.76766 0.0
C1724 C 0.68515 0.07882 0.79097 0.0
C1725 C 0.68166 0.07111 0.8238 0.0
C1726 C 0.6669 0.05703 0.82766 0.0
C1727 C 0.65574 0.0513 0.79984 0.0
H1728 H 0.64956 0.93414 0.13901 0.0
H1729 H 0.60131 0.89555 0.1304 0.0
H1730 H 0.64226 0.94342 0.19235 0.0
H1731 H 0.59414 0.90486 0.18274 0.0
H1732 H 0.58297 0.9383 0.24739 0.0
H1733 H 0.59128 0.92835 0.19732 0.0
H1734 H 0.63235 0.93553 0.25565 0.0
H1735 H 0.62401 0.94534 0.30583 0.0
C1736 C 0.63751 0.9275 0.14867 0.0
C1737 C 0.62606 0.91412 0.13013 0.0
C1738 C 0.6333 0.93284 0.17919 0.0
C1739 C 0.61752 0.92502 0.19157 0.0
C1740 C 0.6063 0.91136 0.17367 0.0
C1741 C 0.6105 0.90597 0.14364 0.0
C1742 C 0.59369 0.93762 0.24971 0.0
C1743 C 0.60269 0.9425 0.28089 0.0
C1744 C 0.59847 0.93191 0.22098 0.0
C1745 C 0.61252 0.93114 0.22238 0.0
C1746 C 0.62155 0.93606 0.25351 0.0
C1747 C 0.61664 0.94154 0.28244 0.0
H1748 H 0.03844 0.63725 0.23916 0.0
H1749 H 0.08616 0.65796 0.27943 0.0
H1750 H 0.04844 0.65611 0.18939 0.0
H1751 H 0.09586 0.67653 0.23108 0.0
H1752 H 0.1119 0.69327 0.12045 0.0
H1753 H 0.09971 0.67495 0.16879 0.0
H1754 H 0.06192 0.68583 0.17216 0.0
H1755 H 0.07425 0.70438 0.12241 0.0
C1756 C 0.05099 0.64574 0.2375 0.0
C1757 C 0.06145 0.64585 0.26334 0.0
C1758 C 0.05672 0.65665 0.20914 0.0
C1759 C 0.07303 0.66783 0.20586 0.0
C1760 C 0.08329 0.66799 0.23211 0.0
C1761 C 0.07764 0.65725 0.26014 0.0
C1762 C 0.10103 0.69193 0.13138 0.0
C1763 C 0.0942 0.70052 0.11745 0.0
C1764 C 0.09401 0.68136 0.1594 0.0
C1765 C 0.07982 0.67887 0.17481 0.0
C1766 C 0.07281 0.68736 0.16091 0.0
C1767 C 0.07997 0.69813 0.13266 0.0
H1768 H 0.38641 0.41646 0.23609 0.0
H1769 H 0.35731 0.43316 0.28427 0.0
H1770 H 0.36825 0.40698 0.18491 0.0
H1771 H 0.33951 0.42369 0.23453 0.0
H1772 H 0.32484 0.42711 0.12381 0.0
H1773 H 0.34235 0.43304 0.17373 0.0
H1774 H 0.33865 0.38717 0.16433 0.0
H1775 H 0.32086 0.38116 0.11299 0.0
C1776 C 0.3762 0.41808 0.23595 0.0
C1777 C 0.37358 0.42585 0.26432 0.0
C1778 C 0.36572 0.41253 0.20676 0.0
C1779 C 0.35245 0.41471 0.20532 0.0
C1780 C 0.3497 0.42203 0.23422 0.0
C1781 C 0.36002 0.42749 0.26299 0.0
C1782 C 0.32759 0.41814 0.13228 0.0
C1783 C 0.32125 0.40357 0.11432 0.0
C1784 C 0.33768 0.42157 0.16115 0.0
C1785 C 0.34195 0.4106 0.17338 0.0
C1786 C 0.33569 0.39594 0.15555 0.0
C1787 C 0.32534 0.3924 0.12645 0.0
H1788 H 0.76337 0.79596 0.57068 0.0
H1789 H 0.71745 0.75363 0.5765 0.0
H1790 H 0.76891 0.78673 0.51607 0.0
H1791 H 0.72291 0.74434 0.52079 0.0
H1792 H 0.74928 0.72498 0.45092 0.0
H1793 H 0.73995 0.73432 0.50001 0.0
H1794 H 0.76298 0.78129 0.45484 0.0
H1795 H 0.77259 0.77202 0.4061 0.0
C1796 C 0.75429 0.78476 0.55992 0.0
C1797 C 0.73996 0.77554 0.57815 0.0
C1798 C 0.75745 0.77948 0.5283 0.0
C1799 C 0.74642 0.76473 0.51377 0.0
C1800 C 0.73179 0.75569 0.53132 0.0
C1801 C 0.72855 0.76108 0.56306 0.0
C1802 C 0.75229 0.7373 0.45126 0.0
C1803 C 0.76187 0.74777 0.42456 0.0
C1804 C 0.7468 0.74263 0.47939 0.0
C1805 C 0.75075 0.75862 0.48174 0.0
C1806 C 0.75989 0.76896 0.45436 0.0
C1807 C 0.76537 0.76362 0.42622 0.0
H1808 H 0.28669 0.05052 0.49424 0.0
H1809 H 0.32392 0.04197 0.4596 0.0
H1810 H 0.27983 0.0312 0.54121 0.0
H1811 H 0.3169 0.02233 0.50667 0.0
H1812 H 0.30724 0.99586 0.61222 0.0
H1813 H 0.31591 0.01732 0.56957 0.0
H1814 H 0.26709 1.00289 0.54728 0.0
H1815 H 0.2584 0.9815 0.59038 0.0
C1816 C 0.29358 0.04465 0.49689 0.0
C1817 C 0.3059 0.04787 0.47299 0.0
C1818 C 0.28951 0.03339 0.52373 0.0
C1819 C 0.29759 0.02491 0.52764 0.0
C1820 C 0.31042 0.02864 0.50473 0.0
C1821 C 0.31452 0.03997 0.47774 0.0
C1822 C 0.2983 0.9973 0.59847 0.0
C1823 C 0.28206 0.98688 0.60501 0.0
C1824 C 0.30332 0.00959 0.57369 0.0
C1825 C 0.29227 0.01194 0.55472 0.0
C1826 C 0.27602 1.00165 0.56162 0.0
C1827 C 0.27099 0.9893 0.58633 0.0
H1828 H 0.05955 0.30829 0.56353 0.0
H1829 H 0.02393 0.26402 0.60873 0.0
H1830 H 0.04262 0.30302 0.51117 0.0
H1831 H 1.00718 0.25888 0.55738 0.0
H1832 H 0.97551 0.25531 0.46767 0.0
H1833 H 0.99106 0.26711 0.52167 0.0
H1834 H 0.03431 0.28287 0.46278 0.0
H1835 H 0.01889 0.27111 0.40955 0.0
C1836 C 0.04806 0.29759 0.56251 0.0
C1837 C 0.04322 0.28646 0.58996 0.0
C1838 C 0.03836 0.29454 0.53259 0.0
C1839 C 0.02349 0.28049 0.53001 0.0
C1840 C 0.01842 0.26987 0.55846 0.0
C1841 C 0.02816 0.27275 0.58779 0.0
C1842 C 0.98833 0.26162 0.46626 0.0
C1843 C 0.99597 0.26213 0.4345 0.0
C1844 C 0.99726 0.26831 0.49715 0.0
C1845 C 0.01398 0.27588 0.49666 0.0
C1846 C 0.02152 0.27729 0.46424 0.0
C1847 C 0.01265 0.27041 0.43373 0.0
H1848 H 0.25659 0.23217 0.4347 0.0
H1849 H 0.30183 0.27501 0.44518 0.0
H1850 H 0.24547 0.24174 0.47923 0.0
H1851 H 0.29098 0.28431 0.49144 0.0
H1852 H 0.26466 0.30043 0.56748 0.0
H1853 H 0.27439 0.29382 0.51378 0.0
H1854 H 0.24604 0.24406 0.53927 0.0
H1855 H 0.23603 0.25051 0.59068 0.0
C1856 C 0.26418 0.24368 0.44648 0.0
C1857 C 0.28015 0.25271 0.43637 0.0
C1858 C 0.25784 0.24917 0.47246 0.0
C1859 C 0.26734 0.26373 0.49002 0.0
C1860 C 0.28317 0.27311 0.47872 0.0
C1861 C 0.28945 0.26772 0.45214 0.0
C1862 C 0.26034 0.28809 0.56111 0.0
C1863 C 0.24948 0.27606 0.58362 0.0
C1864 C 0.26603 0.28427 0.53044 0.0
C1865 C 0.26098 0.26831 0.52154 0.0
C1866 C 0.25 0.25644 0.54411 0.0
C1867 C 0.24432 0.26022 0.57422 0.0
H1868 H 0.76863 0.99956 0.60752 0.0
H1869 H 0.74242 0.02264 0.6376 0.0
H1870 H 0.77935 0.01709 0.55695 0.0
H1871 H 0.75348 0.04052 0.58715 0.0
H1872 H 0.76208 0.05554 0.46721 0.0
H1873 H 0.75228 0.04127 0.52324 0.0
H1874 H 0.79718 0.04341 0.53926 0.0
H1875 H 0.80663 0.05711 0.48336 0.0
C1876 C 0.76533 0.00854 0.60372 0.0
C1877 C 0.75468 0.00965 0.62694 0.0
C1878 C 0.77156 0.01871 0.57463 0.0
C1879 C 0.76739 0.03038 0.56773 0.0
C1880 C 0.75689 0.03164 0.59126 0.0
C1881 C 0.75066 0.02145 0.62047 0.0
C1882 C 0.76994 0.05327 0.48318 0.0
C1883 C 0.78511 0.05741 0.47067 0.0
C1884 C 0.76432 0.04503 0.51532 0.0
C1885 C 0.77379 0.04082 0.5357 0.0
C1886 C 0.78932 0.04595 0.52403 0.0
C1887 C 0.79483 0.054 0.49202 0.0
H1888 H 0.04469 0.73873 0.57302 0.0
H1889 H 0.05142 0.78496 0.54909 0.0
H1890 H 0.02839 0.72807 0.51965 0.0
H1891 H 0.03516 0.77445 0.49664 0.0
H1892 H 0.01251 0.75431 0.39139 0.0
H1893 H 0.03226 0.76383 0.43846 0.0
H1894 H 1.00218 0.72198 0.49958 0.0
H1895 H 0.98258 0.71237 0.45236 0.0
C1896 C 0.04302 0.74669 0.556 0.0
C1897 C 0.04943 0.76272 0.56538 0.0
C1898 C 0.03349 0.74055 0.5256 0.0
C1899 C 0.03029 0.75034 0.50366 0.0
C1900 C 0.0374 0.76652 0.51236 0.0
C1901 C 0.04673 0.77256 0.5427 0.0
C1902 C 1.01013 0.74707 0.41473 0.0
C1903 C 0.99581 0.7326 0.41795 0.0
C1904 C 0.02147 0.75256 0.44191 0.0
C1905 C 0.01889 0.74375 0.47317 0.0
C1906 C 1.00476 0.72906 0.4759 0.0
C1907 C 0.9934 0.72359 0.4488 0.0
H1908 H 0.12883 0.38459 0.91194 0.0
H1909 H 0.0808 0.35808 0.95079 0.0
H1910 H 0.12023 0.37041 0.85562 0.0
H1911 H 0.07229 0.34416 0.89474 0.0
H1912 H 0.06902 0.30615 0.81985 0.0
H1913 H 0.07756 0.32394 0.8697 0.0
H1914 H 0.10268 0.36397 0.80012 0.0
H1915 H 0.09396 0.34581 0.74904 0.0
C1916 C 0.1164 0.37599 0.90832 0.0
C1917 C 0.10556 0.37235 0.93623 0.0
C1918 C 0.11147 0.3679 0.87593 0.0
C1919 C 0.09561 0.35597 0.8708 0.0
C1920 C 0.08465 0.35306 0.89798 0.0
C1921 C 0.08954 0.36111 0.93018 0.0
C1922 C 0.07634 0.31873 0.81477 0.0
C1923 C 0.08076 0.32449 0.78016 0.0
C1924 C 0.08115 0.32899 0.84359 0.0
C1925 C 0.09065 0.34543 0.83904 0.0
C1926 C 0.09534 0.35134 0.80452 0.0
C1927 C 0.09032 0.34097 0.77529 0.0
H1928 H 0.63249 0.73287 0.89275 0.0
H1929 H 0.67519 0.75566 0.9554 0.0
H1930 H 0.64802 0.74144 0.83922 0.0
H1931 H 0.69093 0.76492 0.90129 0.0
H1932 H 0.71607 0.76697 0.79977 0.0
H1933 H 0.69981 0.75687 0.85238 0.0
H1934 H 0.66337 0.76289 0.80205 0.0
H1935 H 0.67962 0.77241 0.74854 0.0
C1936 C 0.64526 0.73988 0.89519 0.0
C1937 C 0.65258 0.74358 0.9286 0.0
C1938 C 0.6542 0.74491 0.86422 0.0
C1939 C 0.6708 0.75397 0.8655 0.0
C1940 C 0.67818 0.75775 0.89901 0.0
C1941 C 0.66918 0.75254 0.93018 0.0
C1942 C 0.70447 0.76594 0.79984 0.0
C1943 C 0.69908 0.77045 0.77009 0.0
C1944 C 0.6952 0.76032 0.83024 0.0
C1945 C 0.68031 0.75927 0.83208 0.0
C1946 C 0.6747 0.76337 0.80173 0.0
C1947 C 0.68396 0.76881 0.77094 0.0
H1948 H 0.28964 0.95534 0.94257 0.0
H1949 H 0.2745 0.90559 0.93361 0.0
H1950 H 0.28116 0.95547 0.88281 0.0
H1951 H 0.26682 0.90586 0.87234 0.0
H1952 H 0.24072 0.90673 0.77399 0.0
H1953 H 0.24867 0.90654 0.83471 0.0
H1954 H 0.28573 0.9555 0.82399 0.0
H1955 H 0.27699 0.95581 0.76398 0.0
C1956 C 0.28477 0.94443 0.92754 0.0
C1957 C 0.28284 0.93045 0.94303 0.0
C1958 C 0.27995 0.94453 0.89287 0.0
C1959 C 0.27328 0.93072 0.87204 0.0
C1960 C 0.27159 0.91673 0.88741 0.0
C1961 C 0.27616 0.91656 0.92255 0.0
C1962 C 0.25044 0.91751 0.78485 0.0
C1963 C 0.25812 0.93133 0.76423 0.0
C1964 C 0.25518 0.91736 0.81968 0.0
C1965 C 0.268 0.93095 0.83481 0.0
C1966 C 0.27562 0.94483 0.81398 0.0
C1967 C 0.27064 0.94505 0.77935 0.0
H1968 H 0.38274 0.13312 0.12348 0.0
H1969 H 0.37521 0.0861 0.10546 0.0
H1970 H 0.37358 0.12605 0.18387 0.0
H1971 H 0.36581 0.07891 0.16655 0.0
H1972 H 0.35598 0.07509 0.28895 0.0
H1973 H 0.3716 0.08412 0.23395 0.0
H1974 H 0.34624 0.10812 0.20442 0.0
H1975 H 0.33083 0.09911 0.25836 0.0
C1976 C 0.37937 0.12131 0.13257 0.0
C1977 C 0.37957 0.11014 0.10936 0.0
C1978 C 0.37406 0.11724 0.16729 0.0
C1979 C 0.36869 0.10183 0.18002 0.0
C1980 C 0.3699 0.09091 0.15767 0.0
C1981 C 0.37529 0.09502 0.12264 0.0
C1982 C 0.35408 0.08261 0.27098 0.0
C1983 C 0.34228 0.08652 0.27813 0.0
C1984 C 0.36287 0.08762 0.23933 0.0
C1985 C 0.36023 0.09691 0.21472 0.0
C1986 C 0.34879 0.10119 0.2228 0.0
C1987 C 0.33991 0.096 0.2538 0.0
H1988 H 0.93522 0.25484 0.28089 0.0
H1989 H 0.95212 0.22964 0.21682 0.0
H1990 H 0.92452 0.26047 0.22756 0.0
H1991 H 0.94167 0.23532 0.16442 0.0
H1992 H 0.93565 0.26443 0.07436 0.0
H1993 H 0.94657 0.2587 0.12699 0.0
H1994 H 0.90288 0.24444 0.18279 0.0
H1995 H 0.89194 0.24988 0.13061 0.0
C1996 C 0.93664 0.2505 0.25564 0.0
C1997 C 0.94442 0.24169 0.25332 0.0
C1998 C 0.93052 0.25369 0.22512 0.0
C1999 C 0.93232 0.24837 0.19174 0.0
C2000 C 0.94023 0.23973 0.18957 0.0
C2001 C 0.9461 0.23637 0.21987 0.0
C2002 C 0.92828 0.25974 0.0976 0.0
C2003 C 0.91292 0.2576 0.09817 0.0
C2004 C 0.93456 0.25659 0.12784 0.0
C2005 C 0.92566 0.25139 0.15926 0.0
C2006 C 0.91016 0.24877 0.15933 0.0
C2007 C 0.90385 0.25174 0.12918 0.0
H2008 H 0.75142 0.71039 0.26248 0.0
H2009 H 0.79772 0.71798 0.2353 0.0
H2010 H 0.74201 0.70019 0.20319 0.0
H2011 H 0.78825 0.70751 0.17642 0.0
H2012 H 0.76846 0.69226 0.06553 0.0
H2013 H 0.77808 0.70927 0.11833 0.0
H2014 H 0.73596 0.67578 0.17464 0.0
H2015 H 0.72652 0.65917 0.12256 0.0
C2016 C 0.75968 0.71014 0.24376 0.0
C2017 C 0.7753 0.71488 0.25398 0.0
C2018 C 0.75426 0.70418 0.20973 0.0
C2019 C 0.7643 0.70281 0.18493 0.0
C2020 C 0.78018 0.70846 0.19453 0.0
C2021 C 0.78559 0.71439 0.22854 0.0
C2022 C 0.76115 0.68881 0.08899 0.0
C2023 C 0.74677 0.67435 0.08989 0.0
C2024 C 0.7667 0.69845 0.11937 0.0
C2025 C 0.75784 0.69392 0.151 0.0
C2026 C 0.74307 0.67985 0.15091 0.0
C2027 C 0.73769 0.67022 0.12097 0.0
H2028 H 0.96244 0.69213 0.25861 0.0
H2029 H 0.91359 0.68078 0.25521 0.0
H2030 H 0.95956 0.68091 0.19921 0.0
H2031 H 0.9106 0.66928 0.19729 0.0
H2032 H 0.91262 0.66276 0.08 0.0
H2033 H 0.91704 0.67517 0.1377 0.0
H2034 H 0.9475 0.65655 0.1659 0.0
H2035 H 0.94344 0.64451 0.10748 0.0
C2036 C 0.95113 0.68732 0.24526 0.0
C2037 C 0.9383 0.68748 0.26186 0.0
C2038 C 0.94942 0.68074 0.21127 0.0
C2039 C 0.93483 0.67416 0.19304 0.0
C2040 C 0.92211 0.67445 0.20981 0.0
C2041 C 0.92383 0.68102 0.24344 0.0
C2042 C 0.92019 0.6612 0.0985 0.0
C2043 C 0.92756 0.65249 0.08892 0.0
C2044 C 0.92272 0.66832 0.13184 0.0
C2045 C 0.93262 0.6669 0.15692 0.0
C2046 C 0.93997 0.65814 0.14735 0.0
C2047 C 0.93749 0.65106 0.11385 0.0
H2048 H 0.31856 0.23761 0.2622 0.0
H2049 H 0.33724 0.2882 0.26469 0.0
H2050 H 0.32708 0.23961 0.20083 0.0
H2051 H 0.34547 0.29016 0.20346 0.0
H2052 H 0.37116 0.29105 0.10153 0.0
H2053 H 0.36413 0.2886 0.16425 0.0
H2054 H 0.32112 0.24454 0.14273 0.0
H2055 H 0.32823 0.24681 0.08088 0.0
C2056 C 0.32435 0.24914 0.24964 0.0
C2057 C 0.3271 0.26271 0.26857 0.0
C2058 C 0.32925 0.25031 0.21432 0.0
C2059 C 0.33707 0.26509 0.19689 0.0
C2060 C 0.33976 0.27862 0.21591 0.0
C2061 C 0.33485 0.27744 0.25111 0.0
C2062 C 0.36029 0.28078 0.1103 0.0
C2063 C 0.35029 0.26917 0.08592 0.0
C2064 C 0.35617 0.27941 0.14627 0.0
C2065 C 0.34198 0.26636 0.15886 0.0
C2066 C 0.33221 0.25465 0.13444 0.0
C2067 C 0.33628 0.25604 0.09868 0.0
H2068 H 0.80253 0.09371 0.23667 0.0
H2069 H 0.76255 0.08815 0.2971 0.0
H2070 H 0.79157 0.09851 0.18368 0.0
H2071 H 0.75133 0.09275 0.24358 0.0
H2072 H 0.74306 0.11578 0.14718 0.0
H2073 H 0.75458 0.11213 0.20039 0.0
H2074 H 0.77041 0.08458 0.14188 0.0
H2075 H 0.759 0.08853 0.08781 0.0
C2076 C 0.79142 0.09366 0.23873 0.0
C2077 C 0.78344 0.09059 0.27127 0.0
C2078 C 0.78503 0.09624 0.20812 0.0
C2079 C 0.77042 0.0958 0.20898 0.0
C2080 C 0.76267 0.09328 0.24183 0.0
C2081 C 0.76911 0.09072 0.27264 0.0
C2082 C 0.749 0.10893 0.14539 0.0
C2083 C 0.75008 0.10245 0.11293 0.0
C2084 C 0.75553 0.10674 0.17621 0.0
C2085 C 0.76339 0.098 0.17576 0.0
C2086 C 0.76458 0.09155 0.14326 0.0
C2087 C 0.758 0.09374 0.11221 0.0
H2088 H 0.71242 0.96988 0.77815 0.0
H2089 H 0.73562 0.945 0.81682 0.0
H2090 H 0.69644 0.96279 0.8317 0.0
H2091 H 0.71942 0.93768 0.8701 0.0
H2092 H 0.69198 0.93395 0.97334 0.0
H2093 H 0.71176 0.94569 0.92575 0.0
H2094 H 0.67466 0.93816 0.8527 0.0
H2095 H 0.6553 0.92676 0.89931 0.0
C2096 C 0.71429 0.96308 0.79822 0.0
C2097 C 0.72526 0.95792 0.79281 0.0
C2098 C 0.70503 0.95891 0.82894 0.0
C2099 C 0.70643 0.94944 0.8552 0.0
C2100 C 0.71802 0.94503 0.85067 0.0
C2101 C 0.72728 0.94918 0.8199 0.0
C2102 C 0.68813 0.93492 0.94714 0.0
C2103 C 0.67199 0.92932 0.94032 0.0
C2104 C 0.69944 0.9416 0.91981 0.0
C2105 C 0.69487 0.94303 0.88526 0.0
C2106 C 0.67876 0.93759 0.8789 0.0
C2107 C 0.66757 0.93085 0.90583 0.0
H2108 H 0.05843 0.75482 0.78738 0.0
H2109 H 0.10533 0.76719 0.75283 0.0
H2110 H 0.06454 0.75002 0.84687 0.0
H2111 H 0.11154 0.76215 0.81252 0.0
H2112 H 0.12464 0.77462 0.92783 0.0
H2113 H 0.11649 0.77607 0.86803 0.0
H2114 H 0.07079 0.73472 0.88754 0.0
H2115 H 0.07899 0.73343 0.94802 0.0
C2116 C 0.06992 0.75598 0.79236 0.0
C2117 C 0.08137 0.76122 0.76544 0.0
C2118 C 0.07344 0.75327 0.82654 0.0
C2119 C 0.08862 0.75592 0.83487 0.0
C2120 C 0.0998 0.76026 0.80728 0.0
C2121 C 0.09621 0.76289 0.7729 0.0
C2122 C 0.11272 0.76601 0.91964 0.0
C2123 C 0.10244 0.75399 0.94289 0.0
C2124 C 0.10813 0.76667 0.88504 0.0
C2125 C 0.09311 0.7553 0.87244 0.0
C2126 C 0.08248 0.74369 0.89622 0.0
C2127 C 0.0871 0.74304 0.93107 0.0
H2128 H 0.2263 0.30411 0.80176 0.0
H2129 H 0.26894 0.33693 0.74616 0.0
H2130 H 0.23644 0.31953 0.85533 0.0
H2131 H 0.27914 0.35268 0.80053 0.0
H2132 H 0.28056 0.38438 0.89532 0.0
H2133 H 0.27315 0.36923 0.84087 0.0
H2134 H 0.25758 0.32616 0.90027 0.0
H2135 H 0.26513 0.34152 0.95551 0.0
C2136 C 0.23785 0.31473 0.80082 0.0
C2137 C 0.2468 0.31925 0.76943 0.0
C2138 C 0.24373 0.32348 0.83184 0.0
C2139 C 0.25873 0.33718 0.83257 0.0
C2140 C 0.26753 0.34213 0.80091 0.0
C2141 C 0.26166 0.33321 0.76966 0.0
C2142 C 0.27559 0.37166 0.89697 0.0
C2143 C 0.27318 0.36412 0.92996 0.0
C2144 C 0.2715 0.363 0.86554 0.0
C2145 C 0.26467 0.34647 0.86605 0.0
C2146 C 0.26267 0.3389 0.89898 0.0
C2147 C 0.26703 0.34766 0.93063 0.0
H2148 H 0.05099 0.45147 0.44436 0.0
H2149 H 0.0419 0.40347 0.45382 0.0
H2150 H 0.04247 0.45051 0.50531 0.0
H2151 H 0.03299 0.40235 0.51419 0.0
H2152 H 0.02109 0.4045 0.62805 0.0
H2153 H 0.0377 0.41058 0.57514 0.0
H2154 H 0.01742 0.43779 0.53373 0.0
H2155 H 1.00131 0.43201 0.58627 0.0
C2156 C 0.0474 0.44079 0.45953 0.0
C2157 C 0.047 0.4275 0.44388 0.0
C2158 C 0.04239 0.44018 0.49451 0.0
C2159 C 0.0368 0.42627 0.51481 0.0
C2160 C 0.03731 0.41333 0.49973 0.0
C2161 C 0.04234 0.41394 0.46483 0.0
C2162 C 0.0206 0.41218 0.60807 0.0
C2163 C 1.00985 0.41773 0.61135 0.0
C2164 C 0.02996 0.41551 0.5775 0.0
C2165 C 0.02887 0.42459 0.54977 0.0
C2166 C 0.01882 0.43093 0.5544 0.0
C2167 C 1.00946 0.42752 0.58461 0.0
H2168 H 0.64589 0.60426 0.56478 0.0
H2169 H 0.59774 0.57207 0.59654 0.0
H2170 H 0.6375 0.60149 0.50347 0.0
H2171 H 0.58902 0.57007 0.53582 0.0
H2172 H 0.57469 0.56436 0.42393 0.0
H2173 H 0.58638 0.56201 0.47877 0.0
H2174 H 0.62554 0.60977 0.46438 0.0
H2175 H 0.61425 0.61135 0.40866 0.0
C2176 C 0.63348 0.59651 0.55858 0.0
C2177 C 0.62249 0.58839 0.58559 0.0
C2178 C 0.62859 0.59504 0.52331 0.0
C2179 C 0.61246 0.58571 0.51405 0.0
C2180 C 0.60157 0.57717 0.5412 0.0
C2181 C 0.60655 0.57836 0.57635 0.0
C2182 C 0.58612 0.57408 0.43196 0.0
C2183 C 0.59366 0.588 0.4117 0.0
C2184 C 0.59273 0.5729 0.46388 0.0
C2185 C 0.60684 0.58581 0.47706 0.0
C2186 C 0.61481 0.59939 0.45549 0.0
C2187 C 0.60838 0.60036 0.42316 0.0
H2188 H 0.42082 0.04734 0.57866 0.0
H2189 H 0.45591 0.03372 0.59902 0.0
H2190 H 0.4201 0.04029 0.51669 0.0
H2191 H 0.45465 0.02588 0.53785 0.0
H2192 H 0.45676 0.01876 0.42306 0.0
H2193 H 0.46021 0.03199 0.4795 0.0
H2194 H 0.41084 0.01919 0.47786 0.0
H2195 H 0.40782 1.00681 0.42024 0.0
C2196 C 0.42846 0.04292 0.56988 0.0
C2197 C 0.43847 0.04117 0.59399 0.0
C2198 C 0.42794 0.03869 0.53424 0.0
C2199 C 0.43723 0.03235 0.52165 0.0
C2200 C 0.4475 0.03098 0.54581 0.0
C2201 C 0.44819 0.03543 0.58126 0.0
C2202 C 0.44677 0.01917 0.43436 0.0
C2203 C 0.43205 0.01181 0.417 0.0
C2204 C 0.44865 0.02656 0.46716 0.0
C2205 C 0.43575 0.02647 0.48421 0.0
C2206 C 0.42118 0.01974 0.46585 0.0
C2207 C 0.4194 0.01263 0.43259 0.0
H2208 H 0.57351 0.97545 0.44106 0.0
H2209 H 0.61073 0.96515 0.46429 0.0
H2210 H 0.57326 0.98262 0.50241 0.0
H2211 H 0.60989 0.97135 0.52619 0.0
H2212 H 0.62121 1.0066 0.61739 0.0
H2213 H 0.61831 0.99308 0.56188 0.0
H2214 H 0.56824 0.97757 0.56169 0.0
H2215 H 0.57164 0.99191 0.61687 0.0
C2216 C 0.58131 0.97424 0.45955 0.0
C2217 C 0.59221 0.96983 0.44767 0.0
C2218 C 0.58115 0.97832 0.495 0.0
C2219 C 0.59171 0.97782 0.51977 0.0
C2220 C 0.60188 0.97238 0.50807 0.0
C2221 C 0.60226 0.96863 0.47252 0.0
C2222 C 0.6095 0.9997 0.60631 0.0
C2223 C 0.59663 0.99999 0.62206 0.0
C2224 C 0.60777 0.99198 0.57405 0.0
C2225 C 0.593 0.98416 0.5566 0.0
C2226 C 0.57989 0.98369 0.57359 0.0
C2227 C 0.58174 0.99169 0.60563 0.0
H2228 H 0.96319 0.59623 0.57229 0.0
H2229 H 0.97673 0.56134 0.59583 0.0
H2230 H 0.97029 0.59629 0.51068 0.0
H2231 H 0.98476 0.56203 0.53496 0.0
H2232 H 0.9955 0.56127 0.42168 0.0
H2233 H 0.98046 0.55687 0.47603 0.0
H2234 H 0.99182 0.60586 0.47426 0.0
H2235 H 1.00595 0.60963 0.41922 0.0
C2236 C 0.96758 0.58846 0.56423 0.0
C2237 C 0.96937 0.57878 0.58913 0.0
C2238 C 0.97185 0.58862 0.52881 0.0
C2239 C 0.97839 0.57933 0.51726 0.0
C2240 C 0.97959 0.5692 0.54212 0.0
C2241 C 0.97502 0.56883 0.57738 0.0
C2242 C 0.99419 0.57088 0.43231 0.0
C2243 C 1.00158 0.58573 0.41559 0.0
C2244 C 0.98581 0.56848 0.46397 0.0
C2245 C 0.98499 0.58104 0.48048 0.0
C2246 C 0.99178 0.5957 0.4626 0.0
C2247 C 0.99986 0.59794 0.43059 0.0
H2248 H 0.41741 0.40876 0.41394 0.0
H2249 H 0.45358 0.45643 0.43944 0.0
H2250 H 0.42351 0.39914 0.46815 0.0
H2251 H 0.45978 0.44703 0.49316 0.0
H2252 H 0.47326 0.42667 0.58264 0.0
H2253 H 0.46989 0.43152 0.52108 0.0
H2254 H 0.41921 0.40183 0.53161 0.0
H2255 H 0.42257 0.39681 0.59323 0.0
C2256 C 0.42704 0.41708 0.4304 0.0
C2257 C 0.43505 0.43333 0.42222 0.0
C2258 C 0.43041 0.41163 0.46178 0.0
C2259 C 0.44207 0.42231 0.48538 0.0
C2260 C 0.45083 0.43839 0.47569 0.0
C2261 C 0.4473 0.44381 0.44474 0.0
C2262 C 0.46139 0.42093 0.57177 0.0
C2263 C 0.44818 0.41144 0.59322 0.0
C2264 C 0.45946 0.42379 0.53639 0.0
C2265 C 0.44427 0.41722 0.52128 0.0
C2266 C 0.4311 0.407 0.54214 0.0
C2267 C 0.43303 0.40418 0.57764 0.0
loop_
_geom_bond_atom_site_label_1
_geom_bond_atom_site_label_2
_geom_bond_distance
_geom_bond_site_symmetry_2
_ccdc_geom_bond_type
Cu0 N1 1.999 . S
Cu0 O6 1.974 . S
Cu0 N11 1.985 . S
Cu0 O20 1.959 1_554 S
N1 Cu0 1.999 . S
N1 C3 1.263 . S
N1 C5 1.389 1_554 S
N2 C3 1.358 . S
N2 C4 1.400 1_554 S
C3 N1 1.263 . S
C3 N2 1.358 . S
C3 H9 0.930 . S
C4 N2 1.400 1_556 S
C4 C5 1.351 . S
C4 H21 0.930 . S
C5 N1 1.389 1_556 S
C5 C4 1.351 . S
C5 H10 0.930 . S
O6 Cu0 1.974 . S
O6 C16 1.282 . S
C7 O8 1.261 . S
C7 O20 1.251 . S
O8 C7 1.261 . S
H9 C3 0.930 . S
H10 C5 0.930 . S
N11 Cu0 1.985 . S
N11 C13 1.335 1_554 S
N11 C14 1.390 . S
N12 C13 1.342 1_554 S
N12 C15 1.344 . S
C13 N11 1.335 1_556 S
C13 N12 1.342 1_556 S
C13 H18 0.930 . S
C14 N11 1.390 . S
C14 C15 1.346 . S
C14 H19 0.930 . S
C15 N12 1.344 . S
C15 C14 1.346 . S
C15 H22 0.929 . S
C16 O6 1.282 . S
C16 O17 1.216 . S
O17 C16 1.216 . S
H18 C13 0.930 . S
H19 C14 0.930 . S
O20 Cu0 1.959 1_556 S
O20 C7 1.251 . S
H21 C4 0.930 . S
H22 C15 0.929 . S
Cu23 N24 1.999 . S
Cu23 O29 1.974 . S
Cu23 N34 1.985 . S
Cu23 O43 1.959 1_554 S
N24 Cu23 1.999 . S
N24 C26 1.263 . S
N24 C28 1.389 1_554 S
N25 C26 1.358 . S
N25 C27 1.400 1_554 S
C26 N24 1.263 . S
C26 N25 1.358 . S
C26 H32 0.930 . S
C27 N25 1.400 1_556 S
C27 C28 1.351 . S
C27 H44 0.930 . S
C28 N24 1.389 1_556 S
C28 C27 1.351 . S
C28 H33 0.930 . S
O29 Cu23 1.974 . S
O29 C39 1.282 . S
C30 O31 1.261 . S
C30 O43 1.251 . S
O31 C30 1.261 . S
H32 C26 0.930 . S
H33 C28 0.930 . S
N34 Cu23 1.985 . S
N34 C36 1.335 1_554 S
N34 C37 1.390 . S
N35 C36 1.342 1_554 S
N35 C38 1.344 . S
C36 N34 1.335 1_556 S
C36 N35 1.342 1_556 S
C36 H41 0.930 . S
C37 N34 1.390 . S
C37 C38 1.346 . S
C37 H42 0.930 . S
C38 N35 1.344 . S
C38 C37 1.346 . S
C38 H45 0.929 . S
C39 O29 1.282 . S
C39 O40 1.216 . S
O40 C39 1.216 . S
H41 C36 0.930 . S
H42 C37 0.930 . S
O43 Cu23 1.959 1_556 S
O43 C30 1.251 . S
H44 C27 0.930 . S
H45 C38 0.929 . S
Cu46 N47 1.999 . S
Cu46 O52 1.974 . S
Cu46 N57 1.985 . S
Cu46 O66 1.959 1_554 S
N47 Cu46 1.999 . S
N47 C49 1.263 . S
N47 C51 1.389 1_554 S
N48 C49 1.358 . S
N48 C50 1.400 1_554 S
C49 N47 1.263 . S
C49 N48 1.358 . S
C49 H55 0.930 . S
C50 N48 1.400 1_556 S
C50 C51 1.351 . S
C50 H67 0.930 . S
C51 N47 1.389 1_556 S
C51 C50 1.351 . S
C51 H56 0.930 . S
O52 Cu46 1.974 . S
O52 C62 1.282 . S
C53 O54 1.261 . S
C53 O66 1.251 . S
O54 C53 1.261 . S
H55 C49 0.930 . S
H56 C51 0.930 . S
N57 Cu46 1.985 . S
N57 C59 1.335 1_554 S
N57 C60 1.390 . S
N58 C59 1.342 1_554 S
N58 C61 1.344 . S
C59 N57 1.335 1_556 S
C59 N58 1.342 1_556 S
C59 H64 0.930 . S
C60 N57 1.390 . S
C60 C61 1.346 . S
C60 H65 0.930 . S
C61 N58 1.344 . S
C61 C60 1.346 . S
C61 H68 0.929 . S
C62 O52 1.282 . S
C62 O63 1.216 . S
O63 C62 1.216 . S
H64 C59 0.930 . S
H65 C60 0.930 . S
O66 Cu46 1.959 1_556 S
O66 C53 1.251 . S
H67 C50 0.930 . S
H68 C61 0.929 . S
Cu69 N70 1.999 . S
Cu69 O75 1.974 . S
Cu69 N80 1.985 . S
Cu69 O89 1.959 1_556 S
N70 Cu69 1.999 . S
N70 C72 1.263 . S
N70 C74 1.389 1_556 S
N71 C72 1.358 . S
N71 C73 1.400 1_556 S
C72 N70 1.263 . S
C72 N71 1.358 . S
C72 H78 0.930 . S
C73 N71 1.400 1_554 S
C73 C74 1.351 . S
C73 H90 0.930 . S
C74 N70 1.389 1_554 S
C74 C73 1.351 . S
C74 H79 0.930 . S
O75 Cu69 1.974 . S
O75 C85 1.282 . S
C76 O77 1.261 . S
C76 O89 1.251 . S
O77 C76 1.261 . S
H78 C72 0.930 . S
H79 C74 0.930 . S
N80 Cu69 1.985 . S
N80 C82 1.335 1_556 S
N80 C83 1.390 . S
N81 C82 1.342 1_556 S
N81 C84 1.344 . S
C82 N80 1.335 1_554 S
C82 N81 1.342 1_554 S
C82 H87 0.930 . S
C83 N80 1.390 . S
C83 C84 1.346 . S
C83 H88 0.930 . S
C84 N81 1.344 . S
C84 C83 1.346 . S
C84 H91 0.929 . S
C85 O75 1.282 . S
C85 O86 1.216 . S
O86 C85 1.216 . S
H87 C82 0.930 . S
H88 C83 0.930 . S
O89 Cu69 1.959 1_554 S
O89 C76 1.251 . S
H90 C73 0.930 . S
H91 C84 0.929 . S
Cu92 N93 1.999 . S
Cu92 O98 1.974 . S
Cu92 N103 1.985 . S
Cu92 O112 1.959 1_556 S
N93 Cu92 1.999 . S
N93 C95 1.263 . S
N93 C97 1.389 1_556 S
N94 C95 1.358 . S
N94 C96 1.400 1_556 S
C95 N93 1.263 . S
C95 N94 1.358 . S
C95 H101 0.930 . S
C96 N94 1.400 1_554 S
C96 C97 1.351 . S
C96 H113 0.930 . S
C97 N93 1.389 1_554 S
C97 C96 1.351 . S
C97 H102 0.930 . S
O98 Cu92 1.974 . S
O98 C108 1.282 . S
C99 O100 1.261 . S
C99 O112 1.251 . S
O100 C99 1.261 . S
H101 C95 0.930 . S
H102 C97 0.930 . S
N103 Cu92 1.985 . S
N103 C105 1.335 1_556 S
N103 C106 1.390 . S
N104 C105 1.342 1_556 S
N104 C107 1.344 . S
C105 N103 1.335 1_554 S
C105 N104 1.342 1_554 S
C105 H110 0.930 . S
C106 N103 1.390 . S
C106 C107 1.346 . S
C106 H111 0.930 . S
C107 N104 1.344 . S
C107 C106 1.346 . S
C107 H114 0.929 . S
C108 O98 1.282 . S
C108 O109 1.216 . S
O109 C108 1.216 . S
H110 C105 0.930 . S
H111 C106 0.930 . S
O112 Cu92 1.959 1_554 S
O112 C99 1.251 . S
H113 C96 0.930 . S
H114 C107 0.929 . S
Cu115 N116 1.999 . S
Cu115 O121 1.974 . S
Cu115 N126 1.985 . S
Cu115 O135 1.959 1_556 S
N116 Cu115 1.999 . S
N116 C118 1.263 . S
N116 C120 1.389 1_556 S
N117 C118 1.358 . S
N117 C119 1.400 1_556 S
C118 N116 1.263 . S
C118 N117 1.358 . S
C118 H124 0.930 . S
C119 N117 1.400 1_554 S
C119 C120 1.351 . S
C119 H136 0.930 . S
C120 N116 1.389 1_554 S
C120 C119 1.351 . S
C120 H125 0.930 . S
O121 Cu115 1.974 . S
O121 C131 1.282 . S
C122 O123 1.261 . S
C122 O135 1.251 . S
O123 C122 1.261 . S
H124 C118 0.930 . S
H125 C120 0.930 . S
N126 Cu115 1.985 . S
N126 C128 1.335 1_556 S
N126 C129 1.390 . S
N127 C128 1.342 1_556 S
N127 C130 1.344 . S
C128 N126 1.335 1_554 S
C128 N127 1.342 1_554 S
C128 H133 0.930 . S
C129 N126 1.390 . S
C129 C130 1.346 . S
C129 H134 0.930 . S
C130 N127 1.344 . S
C130 C129 1.346 . S
C130 H137 0.929 . S
C131 O121 1.282 . S
C131 O132 1.216 . S
O132 C131 1.216 . S
H133 C128 0.930 . S
H134 C129 0.930 . S
O135 Cu115 1.959 1_554 S
O135 C122 1.251 . S
H136 C119 0.930 . S
H137 C130 0.929 . S
Cu138 N139 1.999 . S
Cu138 O144 1.974 . S
Cu138 N149 1.985 . S
Cu138 O158 1.959 1_556 S
N139 Cu138 1.999 . S
N139 C141 1.263 . S
N139 C143 1.389 1_556 S
N140 C141 1.358 . S
N140 C142 1.400 1_556 S
C141 N139 1.263 . S
C141 N140 1.358 . S
C141 H147 0.930 . S
C142 N140 1.400 1_554 S
C142 C143 1.351 . S
C142 H159 0.930 . S
C143 N139 1.389 1_554 S
C143 C142 1.351 . S
C143 H148 0.930 . S
O144 Cu138 1.974 . S
O144 C154 1.282 . S
C145 O146 1.261 . S
C145 O158 1.251 . S
O146 C145 1.261 . S
H147 C141 0.930 . S
H148 C143 0.930 . S
N149 Cu138 1.985 . S
N149 C151 1.335 1_556 S
N149 C152 1.390 . S
N150 C151 1.342 1_556 S
N150 C153 1.344 . S
C151 N149 1.335 1_554 S
C151 N150 1.342 1_554 S
C151 H156 0.930 . S
C152 N149 1.390 . S
C152 C153 1.346 . S
C152 H157 0.930 . S
C153 N150 1.344 . S
C153 C152 1.346 . S
C153 H160 0.929 . S
C154 O144 1.282 . S
C154 O155 1.216 . S
O155 C154 1.216 . S
H156 C151 0.930 . S
H157 C152 0.930 . S
O158 Cu138 1.959 1_554 S
O158 C145 1.251 . S
H159 C142 0.930 . S
H160 C153 0.929 . S
Cu161 N162 1.999 . S
Cu161 O167 1.974 . S
Cu161 N172 1.985 . S
Cu161 O181 1.959 1_556 S
N162 Cu161 1.999 . S
N162 C164 1.263 . S
N162 C166 1.389 1_556 S
N163 C164 1.358 . S
N163 C165 1.400 1_556 S
C164 N162 1.263 . S
C164 N163 1.358 . S
C164 H170 0.930 . S
C165 N163 1.400 1_554 S
C165 C166 1.351 . S
C165 H182 0.930 . S
C166 N162 1.389 1_554 S
C166 C165 1.351 . S
C166 H171 0.930 . S
O167 Cu161 1.974 . S
O167 C177 1.282 . S
C168 O169 1.261 . S
C168 O181 1.251 . S
O169 C168 1.261 . S
H170 C164 0.930 . S
H171 C166 0.930 . S
N172 Cu161 1.985 . S
N172 C174 1.335 1_556 S
N172 C175 1.390 . S
N173 C174 1.342 1_556 S
N173 C176 1.344 . S
C174 N172 1.335 1_554 S
C174 N173 1.342 1_554 S
C174 H179 0.930 . S
C175 N172 1.390 . S
C175 C176 1.346 . S
C175 H180 0.930 . S
C176 N173 1.344 . S
C176 C175 1.346 . S
C176 H183 0.929 . S
C177 O167 1.282 . S
C177 O178 1.216 . S
O178 C177 1.216 . S
H179 C174 0.930 . S
H180 C175 0.930 . S
O181 Cu161 1.959 1_554 S
O181 C168 1.251 . S
H182 C165 0.930 . S
H183 C176 0.929 . S
Cu184 N185 1.999 . S
Cu184 O190 1.974 . S
Cu184 N195 1.985 . S
Cu184 O204 1.959 1_556 S
N185 Cu184 1.999 . S
N185 C187 1.263 . S
N185 C189 1.389 1_556 S
N186 C187 1.358 . S
N186 C188 1.400 1_556 S
C187 N185 1.263 . S
C187 N186 1.358 . S
C187 H193 0.930 . S
C188 N186 1.400 1_554 S
C188 C189 1.351 . S
C188 H205 0.930 . S
C189 N185 1.389 1_554 S
C189 C188 1.351 . S
C189 H194 0.930 . S
O190 Cu184 1.974 . S
O190 C200 1.282 . S
C191 O192 1.261 . S
C191 O204 1.251 . S
O192 C191 1.261 . S
H193 C187 0.930 . S
H194 C189 0.930 . S
N195 Cu184 1.985 . S
N195 C197 1.335 1_556 S
N195 C198 1.390 . S
N196 C197 1.342 1_556 S
N196 C199 1.344 . S
C197 N195 1.335 1_554 S
C197 N196 1.342 1_554 S
C197 H202 0.930 . S
C198 N195 1.390 . S
C198 C199 1.346 . S
C198 H203 0.930 . S
C199 N196 1.344 . S
C199 C198 1.346 . S
C199 H206 0.929 . S
C200 O190 1.282 . S
C200 O201 1.216 . S
O201 C200 1.216 . S
H202 C197 0.930 . S
H203 C198 0.930 . S
O204 Cu184 1.959 1_554 S
O204 C191 1.251 . S
H205 C188 0.930 . S
H206 C199 0.929 . S
Cu207 N208 1.999 . S
Cu207 O213 1.974 . S
Cu207 N218 1.985 . S
Cu207 O227 1.959 1_554 S
N208 Cu207 1.999 . S
N208 C210 1.263 . S
N208 C212 1.389 1_554 S
N209 C210 1.358 . S
N209 C211 1.400 1_554 S
C210 N208 1.263 . S
C210 N209 1.358 . S
C210 H216 0.930 . S
C211 N209 1.400 1_556 S
C211 C212 1.351 . S
C211 H228 0.930 . S
C212 N208 1.389 1_556 S
C212 C211 1.351 . S
C212 H217 0.930 . S
O213 Cu207 1.974 . S
O213 C223 1.282 . S
C214 O215 1.261 . S
C214 O227 1.251 . S
O215 C214 1.261 . S
H216 C210 0.930 . S
H217 C212 0.930 . S
N218 Cu207 1.985 . S
N218 C220 1.335 1_554 S
N218 C221 1.390 . S
N219 C220 1.342 1_554 S
N219 C222 1.344 . S
C220 N218 1.335 1_556 S
C220 N219 1.342 1_556 S
C220 H225 0.930 . S
C221 N218 1.390 . S
C221 C222 1.346 . S
C221 H226 0.930 . S
C222 N219 1.344 . S
C222 C221 1.346 . S
C222 H229 0.929 . S
C223 O213 1.282 . S
C223 O224 1.216 . S
O224 C223 1.216 . S
H225 C220 0.930 . S
H226 C221 0.930 . S
O227 Cu207 1.959 1_556 S
O227 C214 1.251 . S
H228 C211 0.930 . S
H229 C222 0.929 . S
Cu230 N231 1.999 . S
Cu230 O236 1.974 . S
Cu230 N241 1.985 . S
Cu230 O250 1.959 1_554 S
N231 Cu230 1.999 . S
N231 C233 1.263 . S
N231 C235 1.389 1_554 S
N232 C233 1.358 . S
N232 C234 1.400 1_554 S
C233 N231 1.263 . S
C233 N232 1.358 . S
C233 H239 0.930 . S
C234 N232 1.400 1_556 S
C234 C235 1.351 . S
C234 H251 0.930 . S
C235 N231 1.389 1_556 S
C235 C234 1.351 . S
C235 H240 0.930 . S
O236 Cu230 1.974 . S
O236 C246 1.282 . S
C237 O238 1.261 . S
C237 O250 1.251 . S
O238 C237 1.261 . S
H239 C233 0.930 . S
H240 C235 0.930 . S
N241 Cu230 1.985 . S
N241 C243 1.335 1_554 S
N241 C244 1.390 . S
N242 C243 1.342 1_554 S
N242 C245 1.344 . S
C243 N241 1.335 1_556 S
C243 N242 1.342 1_556 S
C243 H248 0.930 . S
C244 N241 1.390 . S
C244 C245 1.346 . S
C244 H249 0.930 . S
C245 N242 1.344 . S
C245 C244 1.346 . S
C245 H252 0.929 . S
C246 O236 1.282 . S
C246 O247 1.216 . S
O247 C246 1.216 . S
H248 C243 0.930 . S
H249 C244 0.930 . S
O250 Cu230 1.959 1_556 S
O250 C237 1.251 . S
H251 C234 0.930 . S
H252 C245 0.929 . S
Cu253 N254 1.999 . S
Cu253 O259 1.974 . S
Cu253 N264 1.985 . S
Cu253 O273 1.959 1_554 S
N254 Cu253 1.999 . S
N254 C256 1.263 . S
N254 C258 1.389 1_554 S
N255 C256 1.358 . S
N255 C257 1.400 1_554 S
C256 N254 1.263 . S
C256 N255 1.358 . S
C256 H262 0.930 . S
C257 N255 1.400 1_556 S
C257 C258 1.351 . S
C257 H274 0.930 . S
C258 N254 1.389 1_556 S
C258 C257 1.351 . S
C258 H263 0.930 . S
O259 Cu253 1.974 . S
O259 C269 1.282 . S
C260 O261 1.261 . S
C260 O273 1.251 . S
O261 C260 1.261 . S
H262 C256 0.930 . S
H263 C258 0.930 . S
N264 Cu253 1.985 . S
N264 C266 1.335 1_554 S
N264 C267 1.390 . S
N265 C266 1.342 1_554 S
N265 C268 1.344 . S
C266 N264 1.335 1_556 S
C266 N265 1.342 1_556 S
C266 H271 0.930 . S
C267 N264 1.390 . S
C267 C268 1.346 . S
C267 H272 0.930 . S
C268 N265 1.344 . S
C268 C267 1.346 . S
C268 H275 0.929 . S
C269 O259 1.282 . S
C269 O270 1.216 . S
O270 C269 1.216 . S
H271 C266 0.930 . S
H272 C267 0.930 . S
O273 Cu253 1.959 1_556 S
O273 C260 1.251 . S
H274 C257 0.930 . S
H275 C268 0.929 . S
Cu276 N277 1.999 . S
Cu276 O282 1.974 . S
Cu276 N287 1.985 . S
Cu276 O296 1.959 . S
N277 Cu276 1.999 . S
N277 C279 1.263 . S
N277 C281 1.389 . S
N278 C279 1.358 . S
N278 C280 1.400 . S
C279 N277 1.263 . S
C279 N278 1.358 . S
C279 H285 0.930 . S
C280 N278 1.400 . S
C280 C281 1.351 . S
C280 H297 0.930 . S
C281 N277 1.389 . S
C281 C280 1.351 . S
C281 H286 0.930 . S
O282 Cu276 1.974 . S
O282 C292 1.282 . S
C283 O284 1.261 . S
C283 O296 1.251 . S
O284 C283 1.261 . S
H285 C279 0.930 . S
H286 C281 0.930 . S
N287 Cu276 1.985 . S
N287 C289 1.335 . S
N287 C290 1.390 . S
N288 C289 1.345 . S
N288 C291 1.336 . S
C289 N287 1.335 . S
C289 N288 1.345 . S
C289 H294 0.930 . S
C290 N287 1.390 . S
C290 C291 1.346 . S
C290 H295 0.930 . S
C291 N288 1.336 . S
C291 C290 1.346 . S
C291 H298 0.929 . S
C292 O282 1.282 . S
C292 O293 1.216 . S
O293 C292 1.216 . S
H294 C289 0.930 . S
H295 C290 0.930 . S
O296 Cu276 1.959 . S
O296 C283 1.251 . S
H297 C280 0.930 . S
H298 C291 0.929 . S
Cu299 N300 1.999 . S
Cu299 O305 1.974 . S
Cu299 N310 1.985 . S
Cu299 O319 1.959 . S
N300 Cu299 1.999 . S
N300 C302 1.263 . S
N300 C304 1.389 . S
N301 C302 1.358 . S
N301 C303 1.400 . S
C302 N300 1.263 . S
C302 N301 1.358 . S
C302 H308 0.930 . S
C303 N301 1.400 . S
C303 C304 1.351 . S
C303 H320 0.930 . S
C304 N300 1.389 . S
C304 C303 1.351 . S
C304 H309 0.930 . S
O305 Cu299 1.974 . S
O305 C315 1.282 . S
C306 O307 1.261 . S
C306 O319 1.251 . S
O307 C306 1.261 . S
H308 C302 0.930 . S
H309 C304 0.930 . S
N310 Cu299 1.985 . S
N310 C312 1.335 . S
N310 C313 1.390 . S
N311 C312 1.345 . S
N311 C314 1.336 . S
C312 N310 1.335 . S
C312 N311 1.345 . S
C312 H317 0.930 . S
C313 N310 1.390 . S
C313 C314 1.346 . S
C313 H318 0.930 . S
C314 N311 1.336 . S
C314 C313 1.346 . S
C314 H321 0.929 . S
C315 O305 1.282 . S
C315 O316 1.216 . S
O316 C315 1.216 . S
H317 C312 0.930 . S
H318 C313 0.930 . S
O319 Cu299 1.959 . S
O319 C306 1.251 . S
H320 C303 0.930 . S
H321 C314 0.929 . S
Cu322 N323 1.999 . S
Cu322 O328 1.974 . S
Cu322 N333 1.985 . S
Cu322 O342 1.959 . S
N323 Cu322 1.999 . S
N323 C325 1.263 . S
N323 C327 1.389 . S
N324 C325 1.358 . S
N324 C326 1.400 . S
C325 N323 1.263 . S
C325 N324 1.358 . S
C325 H331 0.930 . S
C326 N324 1.400 . S
C326 C327 1.351 . S
C326 H343 0.930 . S
C327 N323 1.389 . S
C327 C326 1.351 . S
C327 H332 0.930 . S
O328 Cu322 1.974 . S
O328 C338 1.282 . S
C329 O330 1.261 . S
C329 O342 1.251 . S
O330 C329 1.261 . S
H331 C325 0.930 . S
H332 C327 0.930 . S
N333 Cu322 1.985 . S
N333 C335 1.335 . S
N333 C336 1.390 . S
N334 C335 1.345 . S
N334 C337 1.336 . S
C335 N333 1.335 . S
C335 N334 1.345 . S
C335 H340 0.930 . S
C336 N333 1.390 . S
C336 C337 1.346 . S
C336 H341 0.930 . S
C337 N334 1.336 . S
C337 C336 1.346 . S
C337 H344 0.929 . S
C338 O328 1.282 . S
C338 O339 1.216 . S
O339 C338 1.216 . S
H340 C335 0.930 . S
H341 C336 0.930 . S
O342 Cu322 1.959 . S
O342 C329 1.251 . S
H343 C326 0.930 . S
H344 C337 0.929 . S
Cu345 N346 1.999 . S
Cu345 O351 1.974 . S
Cu345 N356 1.985 . S
Cu345 O365 1.959 . S
N346 Cu345 1.999 . S
N346 C348 1.263 . S
N346 C350 1.389 . S
N347 C348 1.358 . S
N347 C349 1.400 . S
C348 N346 1.263 . S
C348 N347 1.358 . S
C348 H354 0.930 . S
C349 N347 1.400 . S
C349 C350 1.351 . S
C349 H366 0.930 . S
C350 N346 1.389 . S
C350 C349 1.351 . S
C350 H355 0.930 . S
O351 Cu345 1.974 . S
O351 C361 1.282 . S
C352 O353 1.261 . S
C352 O365 1.251 . S
O353 C352 1.261 . S
H354 C348 0.930 . S
H355 C350 0.930 . S
N356 Cu345 1.985 . S
N356 C358 1.335 . S
N356 C359 1.390 . S
N357 C358 1.345 . S
N357 C360 1.336 . S
C358 N356 1.335 . S
C358 N357 1.345 . S
C358 H363 0.930 . S
C359 N356 1.390 . S
C359 C360 1.346 . S
C359 H364 0.930 . S
C360 N357 1.336 . S
C360 C359 1.346 . S
C360 H367 0.929 . S
C361 O351 1.282 . S
C361 O362 1.216 . S
O362 C361 1.216 . S
H363 C358 0.930 . S
H364 C359 0.930 . S
O365 Cu345 1.959 . S
O365 C352 1.251 . S
H366 C349 0.930 . S
H367 C360 0.929 . S
Cu368 N369 1.999 . S
Cu368 O374 1.974 . S
Cu368 N379 1.985 . S
Cu368 O388 1.959 . S
N369 Cu368 1.999 . S
N369 C371 1.263 . S
N369 C373 1.389 . S
N370 C371 1.358 . S
N370 C372 1.400 . S
C371 N369 1.263 . S
C371 N370 1.358 . S
C371 H377 0.930 . S
C372 N370 1.400 . S
C372 C373 1.351 . S
C372 H389 0.930 . S
C373 N369 1.389 . S
C373 C372 1.351 . S
C373 H378 0.930 . S
O374 Cu368 1.974 . S
O374 C384 1.282 . S
C375 O376 1.261 . S
C375 O388 1.251 . S
O376 C375 1.261 . S
H377 C371 0.930 . S
H378 C373 0.930 . S
N379 Cu368 1.985 . S
N379 C381 1.335 . S
N379 C382 1.390 . S
N380 C381 1.345 . S
N380 C383 1.336 . S
C381 N379 1.335 . S
C381 N380 1.345 . S
C381 H386 0.930 . S
C382 N379 1.390 . S
C382 C383 1.346 . S
C382 H387 0.930 . S
C383 N380 1.336 . S
C383 C382 1.346 . S
C383 H390 0.929 . S
C384 O374 1.282 . S
C384 O385 1.216 . S
O385 C384 1.216 . S
H386 C381 0.930 . S
H387 C382 0.930 . S
O388 Cu368 1.959 . S
O388 C375 1.251 . S
H389 C372 0.930 . S
H390 C383 0.929 . S
Cu391 N392 1.999 . S
Cu391 O397 1.974 . S
Cu391 N402 1.985 . S
Cu391 O411 1.959 . S
N392 Cu391 1.999 . S
N392 C394 1.263 . S
N392 C396 1.389 . S
N393 C394 1.358 . S
N393 C395 1.400 . S
C394 N392 1.263 . S
C394 N393 1.358 . S
C394 H400 0.930 . S
C395 N393 1.400 . S
C395 C396 1.351 . S
C395 H412 0.930 . S
C396 N392 1.389 . S
C396 C395 1.351 . S
C396 H401 0.930 . S
O397 Cu391 1.974 . S
O397 C407 1.282 . S
C398 O399 1.261 . S
C398 O411 1.251 . S
O399 C398 1.261 . S
H400 C394 0.930 . S
H401 C396 0.930 . S
N402 Cu391 1.985 . S
N402 C404 1.335 . S
N402 C405 1.390 . S
N403 C404 1.345 . S
N403 C406 1.336 . S
C404 N402 1.335 . S
C404 N403 1.345 . S
C404 H409 0.930 . S
C405 N402 1.390 . S
C405 C406 1.346 . S
C405 H410 0.930 . S
C406 N403 1.336 . S
C406 C405 1.346 . S
C406 H413 0.929 . S
C407 O397 1.282 . S
C407 O408 1.216 . S
O408 C407 1.216 . S
H409 C404 0.930 . S
H410 C405 0.930 . S
O411 Cu391 1.959 . S
O411 C398 1.251 . S
H412 C395 0.930 . S
H413 C406 0.929 . S
Cu414 N415 1.999 . S
Cu414 O420 1.974 . S
Cu414 N425 1.985 . S
Cu414 O434 1.959 . S
N415 Cu414 1.999 . S
N415 C417 1.263 . S
N415 C419 1.389 . S
N416 C417 1.358 . S
N416 C418 1.400 . S
C417 N415 1.263 . S
C417 N416 1.358 . S
C417 H423 0.930 . S
C418 N416 1.400 . S
C418 C419 1.351 . S
C418 H435 0.930 . S
C419 N415 1.389 . S
C419 C418 1.351 . S
C419 H424 0.930 . S
O420 Cu414 1.974 . S
O420 C430 1.282 . S
C421 O422 1.261 . S
C421 O434 1.251 . S
O422 C421 1.261 . S
H423 C417 0.930 . S
H424 C419 0.930 . S
N425 Cu414 1.985 . S
N425 C427 1.335 . S
N425 C428 1.390 . S
N426 C427 1.345 . S
N426 C429 1.336 . S
C427 N425 1.335 . S
C427 N426 1.345 . S
C427 H432 0.930 . S
C428 N425 1.390 . S
C428 C429 1.346 . S
C428 H433 0.930 . S
C429 N426 1.336 . S
C429 C428 1.346 . S
C429 H436 0.929 . S
C430 O420 1.282 . S
C430 O431 1.216 . S
O431 C430 1.216 . S
H432 C427 0.930 . S
H433 C428 0.930 . S
O434 Cu414 1.959 . S
O434 C421 1.251 . S
H435 C418 0.930 . S
H436 C429 0.929 . S
Cu437 N438 1.999 . S
Cu437 O443 1.974 . S
Cu437 N448 1.985 . S
Cu437 O457 1.959 . S
N438 Cu437 1.999 . S
N438 C440 1.263 . S
N438 C442 1.389 . S
N439 C440 1.358 . S
N439 C441 1.400 . S
C440 N438 1.263 . S
C440 N439 1.358 . S
C440 H446 0.930 . S
C441 N439 1.400 . S
C441 C442 1.351 . S
C441 H458 0.930 . S
C442 N438 1.389 . S
C442 C441 1.351 . S
C442 H447 0.930 . S
O443 Cu437 1.974 . S
O443 C453 1.282 . S
C444 O445 1.261 . S
C444 O457 1.251 . S
O445 C444 1.261 . S
H446 C440 0.930 . S
H447 C442 0.930 . S
N448 Cu437 1.985 . S
N448 C450 1.335 . S
N448 C451 1.390 . S
N449 C450 1.345 . S
N449 C452 1.336 . S
C450 N448 1.335 . S
C450 N449 1.345 . S
C450 H455 0.930 . S
C451 N448 1.390 . S
C451 C452 1.346 . S
C451 H456 0.930 . S
C452 N449 1.336 . S
C452 C451 1.346 . S
C452 H459 0.929 . S
C453 O443 1.282 . S
C453 O454 1.216 . S
O454 C453 1.216 . S
H455 C450 0.930 . S
H456 C451 0.930 . S
O457 Cu437 1.959 . S
O457 C444 1.251 . S
H458 C441 0.930 . S
H459 C452 0.929 . S
Cu460 N461 1.999 . S
Cu460 O466 1.974 . S
Cu460 N471 1.985 . S
Cu460 O480 1.959 . S
N461 Cu460 1.999 . S
N461 C463 1.263 . S
N461 C465 1.389 . S
N462 C463 1.358 . S
N462 C464 1.400 . S
C463 N461 1.263 . S
C463 N462 1.358 . S
C463 H469 0.930 . S
C464 N462 1.400 . S
C464 C465 1.351 . S
C464 H481 0.930 . S
C465 N461 1.389 . S
C465 C464 1.351 . S
C465 H470 0.930 . S
O466 Cu460 1.974 . S
O466 C476 1.282 . S
C467 O468 1.261 . S
C467 O480 1.251 . S
O468 C467 1.261 . S
H469 C463 0.930 . S
H470 C465 0.930 . S
N471 Cu460 1.985 . S
N471 C473 1.335 . S
N471 C474 1.390 . S
N472 C473 1.345 . S
N472 C475 1.336 . S
C473 N471 1.335 . S
C473 N472 1.345 . S
C473 H478 0.930 . S
C474 N471 1.390 . S
C474 C475 1.346 . S
C474 H479 0.930 . S
C475 N472 1.336 . S
C475 C474 1.346 . S
C475 H482 0.929 . S
C476 O466 1.282 . S
C476 O477 1.216 . S
O477 C476 1.216 . S
H478 C473 0.930 . S
H479 C474 0.930 . S
O480 Cu460 1.959 . S
O480 C467 1.251 . S
H481 C464 0.930 . S
H482 C475 0.929 . S
Cu483 N484 1.999 . S
Cu483 O489 1.974 . S
Cu483 N494 1.985 . S
Cu483 O503 1.959 . S
N484 Cu483 1.999 . S
N484 C486 1.263 . S
N484 C488 1.389 . S
N485 C486 1.358 . S
N485 C487 1.400 . S
C486 N484 1.263 . S
C486 N485 1.358 . S
C486 H492 0.930 . S
C487 N485 1.400 . S
C487 C488 1.351 . S
C487 H504 0.930 . S
C488 N484 1.389 . S
C488 C487 1.351 . S
C488 H493 0.930 . S
O489 Cu483 1.974 . S
O489 C499 1.282 . S
C490 O491 1.261 . S
C490 O503 1.251 . S
O491 C490 1.261 . S
H492 C486 0.930 . S
H493 C488 0.930 . S
N494 Cu483 1.985 . S
N494 C496 1.335 . S
N494 C497 1.390 . S
N495 C496 1.345 . S
N495 C498 1.336 . S
C496 N494 1.335 . S
C496 N495 1.345 . S
C496 H501 0.930 . S
C497 N494 1.390 . S
C497 C498 1.346 . S
C497 H502 0.930 . S
C498 N495 1.336 . S
C498 C497 1.346 . S
C498 H505 0.929 . S
C499 O489 1.282 . S
C499 O500 1.216 . S
O500 C499 1.216 . S
H501 C496 0.930 . S
H502 C497 0.930 . S
O503 Cu483 1.959 . S
O503 C490 1.251 . S
H504 C487 0.930 . S
H505 C498 0.929 . S
Cu506 N507 1.999 . S
Cu506 O512 1.974 . S
Cu506 N517 1.985 . S
Cu506 O526 1.959 . S
N507 Cu506 1.999 . S
N507 C509 1.263 . S
N507 C511 1.389 . S
N508 C509 1.358 . S
N508 C510 1.400 . S
C509 N507 1.263 . S
C509 N508 1.358 . S
C509 H515 0.930 . S
C510 N508 1.400 . S
C510 C511 1.351 . S
C510 H527 0.930 . S
C511 N507 1.389 . S
C511 C510 1.351 . S
C511 H516 0.930 . S
O512 Cu506 1.974 . S
O512 C522 1.282 . S
C513 O514 1.261 . S
C513 O526 1.251 . S
O514 C513 1.261 . S
H515 C509 0.930 . S
H516 C511 0.930 . S
N517 Cu506 1.985 . S
N517 C519 1.335 . S
N517 C520 1.390 . S
N518 C519 1.345 . S
N518 C521 1.336 . S
C519 N517 1.335 . S
C519 N518 1.345 . S
C519 H524 0.930 . S
C520 N517 1.390 . S
C520 C521 1.346 . S
C520 H525 0.930 . S
C521 N518 1.336 . S
C521 C520 1.346 . S
C521 H528 0.929 . S
C522 O512 1.282 . S
C522 O523 1.216 . S
O523 C522 1.216 . S
H524 C519 0.930 . S
H525 C520 0.930 . S
O526 Cu506 1.959 . S
O526 C513 1.251 . S
H527 C510 0.930 . S
H528 C521 0.929 . S
Cu529 N530 1.999 . S
Cu529 O535 1.974 . S
Cu529 N540 1.985 . S
Cu529 O549 1.959 . S
N530 Cu529 1.999 . S
N530 C532 1.263 . S
N530 C534 1.389 . S
N531 C532 1.358 . S
N531 C533 1.400 . S
C532 N530 1.263 . S
C532 N531 1.358 . S
C532 H538 0.930 . S
C533 N531 1.400 . S
C533 C534 1.351 . S
C533 H550 0.930 . S
C534 N530 1.389 . S
C534 C533 1.351 . S
C534 H539 0.930 . S
O535 Cu529 1.974 . S
O535 C545 1.282 . S
C536 O537 1.261 . S
C536 O549 1.251 . S
O537 C536 1.261 . S
H538 C532 0.930 . S
H539 C534 0.930 . S
N540 Cu529 1.985 . S
N540 C542 1.335 . S
N540 C543 1.390 . S
N541 C542 1.345 . S
N541 C544 1.336 . S
C542 N540 1.335 . S
C542 N541 1.345 . S
C542 H547 0.930 . S
C543 N540 1.390 . S
C543 C544 1.346 . S
C543 H548 0.930 . S
C544 N541 1.336 . S
C544 C543 1.346 . S
C544 H551 0.929 . S
C545 O535 1.282 . S
C545 O546 1.216 . S
O546 C545 1.216 . S
H547 C542 0.930 . S
H548 C543 0.930 . S
O549 Cu529 1.959 . S
O549 C536 1.251 . S
H550 C533 0.930 . S
H551 C544 0.929 . S
Cu552 N553 1.999 . S
Cu552 O558 1.974 . S
Cu552 N563 1.985 . S
Cu552 O572 1.959 . S
N553 Cu552 1.999 . S
N553 C555 1.263 . S
N553 C557 1.389 . S
N554 C555 1.358 . S
N554 C556 1.400 . S
C555 N553 1.263 . S
C555 N554 1.358 . S
C555 H561 0.930 . S
C556 N554 1.400 . S
C556 C557 1.351 . S
C556 H573 0.930 . S
C557 N553 1.389 . S
C557 C556 1.351 . S
C557 H562 0.930 . S
O558 Cu552 1.974 . S
O558 C568 1.282 . S
C559 O560 1.261 . S
C559 O572 1.251 . S
O560 C559 1.261 . S
H561 C555 0.930 . S
H562 C557 0.930 . S
N563 Cu552 1.985 . S
N563 C565 1.335 . S
N563 C566 1.390 . S
N564 C565 1.345 . S
N564 C567 1.336 . S
C565 N563 1.335 . S
C565 N564 1.345 . S
C565 H570 0.930 . S
C566 N563 1.390 . S
C566 C567 1.346 . S
C566 H571 0.930 . S
C567 N564 1.336 . S
C567 C566 1.346 . S
C567 H574 0.929 . S
C568 O558 1.282 . S
C568 O569 1.216 . S
O569 C568 1.216 . S
H570 C565 0.930 . S
H571 C566 0.930 . S
O572 Cu552 1.959 . S
O572 C559 1.251 . S
H573 C556 0.930 . S
H574 C567 0.929 . S
Cu575 N576 1.999 . S
Cu575 O581 1.974 . S
Cu575 N586 1.985 . S
Cu575 O595 1.959 . S
N576 Cu575 1.999 . S
N576 C578 1.263 . S
N576 C580 1.389 . S
N577 C578 1.358 . S
N577 C579 1.400 . S
C578 N576 1.263 . S
C578 N577 1.358 . S
C578 H584 0.930 . S
C579 N577 1.400 . S
C579 C580 1.351 . S
C579 H596 0.930 . S
C580 N576 1.389 . S
C580 C579 1.351 . S
C580 H585 0.930 . S
O581 Cu575 1.974 . S
O581 C591 1.282 . S
C582 O583 1.261 . S
C582 O595 1.251 . S
O583 C582 1.261 . S
H584 C578 0.930 . S
H585 C580 0.930 . S
N586 Cu575 1.985 . S
N586 C588 1.335 . S
N586 C589 1.390 . S
N587 C588 1.345 . S
N587 C590 1.336 . S
C588 N586 1.335 . S
C588 N587 1.345 . S
C588 H593 0.930 . S
C589 N586 1.390 . S
C589 C590 1.346 . S
C589 H594 0.930 . S
C590 N587 1.336 . S
C590 C589 1.346 . S
C590 H597 0.929 . S
C591 O581 1.282 . S
C591 O592 1.216 . S
O592 C591 1.216 . S
H593 C588 0.930 . S
H594 C589 0.930 . S
O595 Cu575 1.959 . S
O595 C582 1.251 . S
H596 C579 0.930 . S
H597 C590 0.929 . S
Cu598 N599 1.999 . S
Cu598 O604 1.974 . S
Cu598 N609 1.985 . S
Cu598 O618 1.959 . S
N599 Cu598 1.999 . S
N599 C601 1.263 . S
N599 C603 1.389 . S
N600 C601 1.358 . S
N600 C602 1.400 . S
C601 N599 1.263 . S
C601 N600 1.358 . S
C601 H607 0.930 . S
C602 N600 1.400 . S
C602 C603 1.351 . S
C602 H619 0.930 . S
C603 N599 1.389 . S
C603 C602 1.351 . S
C603 H608 0.930 . S
O604 Cu598 1.974 . S
O604 C614 1.282 . S
C605 O606 1.261 . S
C605 O618 1.251 . S
O606 C605 1.261 . S
H607 C601 0.930 . S
H608 C603 0.930 . S
N609 Cu598 1.985 . S
N609 C611 1.335 . S
N609 C612 1.390 . S
N610 C611 1.345 . S
N610 C613 1.336 . S
C611 N609 1.335 . S
C611 N610 1.345 . S
C611 H616 0.930 . S
C612 N609 1.390 . S
C612 C613 1.346 . S
C612 H617 0.930 . S
C613 N610 1.336 . S
C613 C612 1.346 . S
C613 H620 0.929 . S
C614 O604 1.282 . S
C614 O615 1.216 . S
O615 C614 1.216 . S
H616 C611 0.930 . S
H617 C612 0.930 . S
O618 Cu598 1.959 . S
O618 C605 1.251 . S
H619 C602 0.930 . S
H620 C613 0.929 . S
Cu621 N622 1.999 . S
Cu621 O627 1.974 . S
Cu621 N632 1.985 . S
Cu621 O641 1.959 . S
N622 Cu621 1.999 . S
N622 C624 1.263 . S
N622 C626 1.389 . S
N623 C624 1.358 . S
N623 C625 1.400 . S
C624 N622 1.263 . S
C624 N623 1.358 . S
C624 H630 0.930 . S
C625 N623 1.400 . S
C625 C626 1.351 . S
C625 H642 0.930 . S
C626 N622 1.389 . S
C626 C625 1.351 . S
C626 H631 0.930 . S
O627 Cu621 1.974 . S
O627 C637 1.282 . S
C628 O629 1.261 . S
C628 O641 1.251 . S
O629 C628 1.261 . S
H630 C624 0.930 . S
H631 C626 0.930 . S
N632 Cu621 1.985 . S
N632 C634 1.335 . S
N632 C635 1.390 . S
N633 C634 1.345 . S
N633 C636 1.336 . S
C634 N632 1.335 . S
C634 N633 1.345 . S
C634 H639 0.930 . S
C635 N632 1.390 . S
C635 C636 1.346 . S
C635 H640 0.930 . S
C636 N633 1.336 . S
C636 C635 1.346 . S
C636 H643 0.929 . S
C637 O627 1.282 . S
C637 O638 1.216 . S
O638 C637 1.216 . S
H639 C634 0.930 . S
H640 C635 0.930 . S
O641 Cu621 1.959 . S
O641 C628 1.251 . S
H642 C625 0.930 . S
H643 C636 0.929 . S
Cu644 N645 1.999 . S
Cu644 O650 1.974 . S
Cu644 N655 1.985 . S
Cu644 O664 1.959 . S
N645 Cu644 1.999 . S
N645 C647 1.263 . S
N645 C649 1.389 . S
N646 C647 1.358 . S
N646 C648 1.400 . S
C647 N645 1.263 . S
C647 N646 1.358 . S
C647 H653 0.930 . S
C648 N646 1.400 . S
C648 C649 1.351 . S
C648 H665 0.930 . S
C649 N645 1.389 . S
C649 C648 1.351 . S
C649 H654 0.930 . S
O650 Cu644 1.974 . S
O650 C660 1.282 . S
C651 O652 1.261 . S
C651 O664 1.251 . S
O652 C651 1.261 . S
H653 C647 0.930 . S
H654 C649 0.930 . S
N655 Cu644 1.985 . S
N655 C657 1.335 . S
N655 C658 1.390 . S
N656 C657 1.345 . S
N656 C659 1.336 . S
C657 N655 1.335 . S
C657 N656 1.345 . S
C657 H662 0.930 . S
C658 N655 1.390 . S
C658 C659 1.346 . S
C658 H663 0.930 . S
C659 N656 1.336 . S
C659 C658 1.346 . S
C659 H666 0.929 . S
C660 O650 1.282 . S
C660 O661 1.216 . S
O661 C660 1.216 . S
H662 C657 0.930 . S
H663 C658 0.930 . S
O664 Cu644 1.959 . S
O664 C651 1.251 . S
H665 C648 0.930 . S
H666 C659 0.929 . S
Cu667 N668 1.999 . S
Cu667 O673 1.974 . S
Cu667 N678 1.985 . S
Cu667 O687 1.959 . S
N668 Cu667 1.999 . S
N668 C670 1.263 . S
N668 C672 1.389 . S
N669 C670 1.358 . S
N669 C671 1.400 . S
C670 N668 1.263 . S
C670 N669 1.358 . S
C670 H676 0.930 . S
C671 N669 1.400 . S
C671 C672 1.351 . S
C671 H688 0.930 . S
C672 N668 1.389 . S
C672 C671 1.351 . S
C672 H677 0.930 . S
O673 Cu667 1.974 . S
O673 C683 1.282 . S
C674 O675 1.261 . S
C674 O687 1.251 . S
O675 C674 1.261 . S
H676 C670 0.930 . S
H677 C672 0.930 . S
N678 Cu667 1.985 . S
N678 C680 1.335 . S
N678 C681 1.390 . S
N679 C680 1.345 . S
N679 C682 1.336 . S
C680 N678 1.335 . S
C680 N679 1.345 . S
C680 H685 0.930 . S
C681 N678 1.390 . S
C681 C682 1.346 . S
C681 H686 0.930 . S
C682 N679 1.336 . S
C682 C681 1.346 . S
C682 H689 0.929 . S
C683 O673 1.282 . S
C683 O684 1.216 . S
O684 C683 1.216 . S
H685 C680 0.930 . S
H686 C681 0.930 . S
O687 Cu667 1.959 . S
O687 C674 1.251 . S
H688 C671 0.930 . S
H689 C682 0.929 . S
Cu690 N691 1.999 . S
Cu690 O696 1.974 . S
Cu690 N701 1.985 . S
Cu690 O710 1.959 . S
N691 Cu690 1.999 . S
N691 C693 1.263 . S
N691 C695 1.389 . S
N692 C693 1.358 . S
N692 C694 1.400 . S
C693 N691 1.263 . S
C693 N692 1.358 . S
C693 H699 0.930 . S
C694 N692 1.400 . S
C694 C695 1.351 . S
C694 H711 0.930 . S
C695 N691 1.389 . S
C695 C694 1.351 . S
C695 H700 0.930 . S
O696 Cu690 1.974 . S
O696 C706 1.282 . S
C697 O698 1.261 . S
C697 O710 1.251 . S
O698 C697 1.261 . S
H699 C693 0.930 . S
H700 C695 0.930 . S
N701 Cu690 1.985 . S
N701 C703 1.335 . S
N701 C704 1.390 . S
N702 C703 1.345 . S
N702 C705 1.336 . S
C703 N701 1.335 . S
C703 N702 1.345 . S
C703 H708 0.930 . S
C704 N701 1.390 . S
C704 C705 1.346 . S
C704 H709 0.930 . S
C705 N702 1.336 . S
C705 C704 1.346 . S
C705 H712 0.929 . S
C706 O696 1.282 . S
C706 O707 1.216 . S
O707 C706 1.216 . S
H708 C703 0.930 . S
H709 C704 0.930 . S
O710 Cu690 1.959 . S
O710 C697 1.251 . S
H711 C694 0.930 . S
H712 C705 0.929 . S
Cu713 N714 1.999 . S
Cu713 O719 1.974 . S
Cu713 N724 1.985 . S
Cu713 O733 1.959 . S
N714 Cu713 1.999 . S
N714 C716 1.263 . S
N714 C718 1.389 . S
N715 C716 1.358 . S
N715 C717 1.400 . S
C716 N714 1.263 . S
C716 N715 1.358 . S
C716 H722 0.930 . S
C717 N715 1.400 . S
C717 C718 1.351 . S
C717 H734 0.930 . S
C718 N714 1.389 . S
C718 C717 1.351 . S
C718 H723 0.930 . S
O719 Cu713 1.974 . S
O719 C729 1.282 . S
C720 O721 1.261 . S
C720 O733 1.251 . S
O721 C720 1.261 . S
H722 C716 0.930 . S
H723 C718 0.930 . S
N724 Cu713 1.985 . S
N724 C726 1.335 . S
N724 C727 1.390 . S
N725 C726 1.345 . S
N725 C728 1.336 . S
C726 N724 1.335 . S
C726 N725 1.345 . S
C726 H731 0.930 . S
C727 N724 1.390 . S
C727 C728 1.346 . S
C727 H732 0.930 . S
C728 N725 1.336 . S
C728 C727 1.346 . S
C728 H735 0.929 . S
C729 O719 1.282 . S
C729 O730 1.216 . S
O730 C729 1.216 . S
H731 C726 0.930 . S
H732 C727 0.930 . S
O733 Cu713 1.959 . S
O733 C720 1.251 . S
H734 C717 0.930 . S
H735 C728 0.929 . S
Cu736 N737 1.999 . S
Cu736 O742 1.974 . S
Cu736 N747 1.985 . S
Cu736 O756 1.959 . S
N737 Cu736 1.999 . S
N737 C739 1.263 . S
N737 C741 1.389 . S
N738 C739 1.358 . S
N738 C740 1.400 . S
C739 N737 1.263 . S
C739 N738 1.358 . S
C739 H745 0.930 . S
C740 N738 1.400 . S
C740 C741 1.351 . S
C740 H757 0.930 . S
C741 N737 1.389 . S
C741 C740 1.351 . S
C741 H746 0.930 . S
O742 Cu736 1.974 . S
O742 C752 1.282 . S
C743 O744 1.261 . S
C743 O756 1.251 . S
O744 C743 1.261 . S
H745 C739 0.930 . S
H746 C741 0.930 . S
N747 Cu736 1.985 . S
N747 C749 1.335 . S
N747 C750 1.390 . S
N748 C749 1.345 . S
N748 C751 1.336 . S
C749 N747 1.335 . S
C749 N748 1.345 . S
C749 H754 0.930 . S
C750 N747 1.390 . S
C750 C751 1.346 . S
C750 H755 0.930 . S
C751 N748 1.336 . S
C751 C750 1.346 . S
C751 H758 0.929 . S
C752 O742 1.282 . S
C752 O753 1.216 . S
O753 C752 1.216 . S
H754 C749 0.930 . S
H755 C750 0.930 . S
O756 Cu736 1.959 . S
O756 C743 1.251 . S
H757 C740 0.930 . S
H758 C751 0.929 . S
Cu759 N760 1.999 . S
Cu759 O765 1.974 . S
Cu759 N770 1.985 . S
Cu759 O779 1.959 . S
N760 Cu759 1.999 . S
N760 C762 1.263 . S
N760 C764 1.389 . S
N761 C762 1.358 . S
N761 C763 1.400 . S
C762 N760 1.263 . S
C762 N761 1.358 . S
C762 H768 0.930 . S
C763 N761 1.400 . S
C763 C764 1.351 . S
C763 H780 0.930 . S
C764 N760 1.389 . S
C764 C763 1.351 . S
C764 H769 0.930 . S
O765 Cu759 1.974 . S
O765 C775 1.282 . S
C766 O767 1.261 . S
C766 O779 1.251 . S
O767 C766 1.261 . S
H768 C762 0.930 . S
H769 C764 0.930 . S
N770 Cu759 1.985 . S
N770 C772 1.335 . S
N770 C773 1.390 . S
N771 C772 1.345 . S
N771 C774 1.336 . S
C772 N770 1.335 . S
C772 N771 1.345 . S
C772 H777 0.930 . S
C773 N770 1.390 . S
C773 C774 1.346 . S
C773 H778 0.930 . S
C774 N771 1.336 . S
C774 C773 1.346 . S
C774 H781 0.929 . S
C775 O765 1.282 . S
C775 O776 1.216 . S
O776 C775 1.216 . S
H777 C772 0.930 . S
H778 C773 0.930 . S
O779 Cu759 1.959 . S
O779 C766 1.251 . S
H780 C763 0.930 . S
H781 C774 0.929 . S
Cu782 N783 1.999 . S
Cu782 O788 1.974 . S
Cu782 N793 1.985 . S
Cu782 O802 1.959 . S
N783 Cu782 1.999 . S
N783 C785 1.263 . S
N783 C787 1.389 . S
N784 C785 1.358 . S
N784 C786 1.400 . S
C785 N783 1.263 . S
C785 N784 1.358 . S
C785 H791 0.930 . S
C786 N784 1.400 . S
C786 C787 1.351 . S
C786 H803 0.930 . S
C787 N783 1.389 . S
C787 C786 1.351 . S
C787 H792 0.930 . S
O788 Cu782 1.974 . S
O788 C798 1.282 . S
C789 O790 1.261 . S
C789 O802 1.251 . S
O790 C789 1.261 . S
H791 C785 0.930 . S
H792 C787 0.930 . S
N793 Cu782 1.985 . S
N793 C795 1.335 . S
N793 C796 1.390 . S
N794 C795 1.345 . S
N794 C797 1.336 . S
C795 N793 1.335 . S
C795 N794 1.345 . S
C795 H800 0.930 . S
C796 N793 1.390 . S
C796 C797 1.346 . S
C796 H801 0.930 . S
C797 N794 1.336 . S
C797 C796 1.346 . S
C797 H804 0.929 . S
C798 O788 1.282 . S
C798 O799 1.216 . S
O799 C798 1.216 . S
H800 C795 0.930 . S
H801 C796 0.930 . S
O802 Cu782 1.959 . S
O802 C789 1.251 . S
H803 C786 0.930 . S
H804 C797 0.929 . S
Cu805 N806 1.999 . S
Cu805 O811 1.974 . S
Cu805 N816 1.985 . S
Cu805 O825 1.959 . S
N806 Cu805 1.999 . S
N806 C808 1.263 . S
N806 C810 1.389 . S
N807 C808 1.358 . S
N807 C809 1.400 . S
C808 N806 1.263 . S
C808 N807 1.358 . S
C808 H814 0.930 . S
C809 N807 1.400 . S
C809 C810 1.351 . S
C809 H826 0.930 . S
C810 N806 1.389 . S
C810 C809 1.351 . S
C810 H815 0.930 . S
O811 Cu805 1.974 . S
O811 C821 1.282 . S
C812 O813 1.261 . S
C812 O825 1.251 . S
O813 C812 1.261 . S
H814 C808 0.930 . S
H815 C810 0.930 . S
N816 Cu805 1.985 . S
N816 C818 1.335 . S
N816 C819 1.390 . S
N817 C818 1.345 . S
N817 C820 1.336 . S
C818 N816 1.335 . S
C818 N817 1.345 . S
C818 H823 0.930 . S
C819 N816 1.390 . S
C819 C820 1.346 . S
C819 H824 0.930 . S
C820 N817 1.336 . S
C820 C819 1.346 . S
C820 H827 0.929 . S
C821 O811 1.282 . S
C821 O822 1.216 . S
O822 C821 1.216 . S
H823 C818 0.930 . S
H824 C819 0.930 . S
O825 Cu805 1.959 . S
O825 C812 1.251 . S
H826 C809 0.930 . S
H827 C820 0.929 . S
H828 C836 0.950 . S
H829 C841 0.950 . S
H830 C838 0.950 . S
H831 C840 0.950 . S
H832 C842 0.950 . S
H833 C844 0.950 . S
H834 C846 0.950 . S
H835 C847 0.950 . S
C836 H828 0.950 . S
C836 C837 1.386 . S
C836 C838 1.391 . S
C837 C836 1.386 . S
C837 C841 1.393 1_556 S
C838 H830 0.950 . S
C838 C836 1.391 . S
C838 C839 1.400 . S
C839 C838 1.400 . S
C839 C840 1.398 1_556 S
C839 C845 1.491 1_656 S
C840 H831 0.950 . S
C840 C839 1.398 1_554 S
C840 C841 1.391 . S
C841 H829 0.950 . S
C841 C837 1.393 1_554 S
C841 C840 1.391 . S
C842 H832 0.950 . S
C842 C843 1.386 . S
C842 C844 1.391 . S
C843 C842 1.386 . S
C843 C847 1.393 1_554 S
C844 H833 0.950 . S
C844 C842 1.391 . S
C844 C845 1.400 . S
C845 C839 1.491 1_454 S
C845 C844 1.400 . S
C845 C846 1.398 1_554 S
C846 H834 0.950 . S
C846 C845 1.398 1_556 S
C846 C847 1.391 . S
C847 H835 0.950 . S
C847 C843 1.393 1_556 S
C847 C846 1.391 . S
H848 C856 0.950 . S
H849 C861 0.950 . S
H850 C858 0.955 . S
H851 C860 0.950 . S
H852 C862 0.950 . S
H853 C864 0.957 . S
H854 C866 0.950 . S
H855 C867 0.950 . S
C856 H848 0.950 . S
C856 C857 1.386 . S
C856 C858 1.389 1_556 S
C857 C856 1.386 . S
C857 C861 1.393 . S
C858 H850 0.955 . S
C858 C856 1.389 1_554 S
C858 C859 1.398 1_554 S
C859 C858 1.398 1_556 S
C859 C860 1.398 . S
C859 C865 1.491 1_556 S
C860 H851 0.950 . S
C860 C859 1.398 . S
C860 C861 1.391 . S
C861 H849 0.950 . S
C861 C857 1.393 . S
C861 C860 1.391 . S
C862 H852 0.950 . S
C862 C863 1.386 . S
C862 C864 1.388 1_554 S
C863 C862 1.386 . S
C863 C867 1.393 . S
C864 H853 0.957 . S
C864 C862 1.388 1_556 S
C864 C865 1.398 1_556 S
C865 C859 1.491 1_554 S
C865 C864 1.398 1_554 S
C865 C866 1.398 . S
C866 H854 0.950 . S
C866 C865 1.398 . S
C866 C867 1.391 . S
C867 H855 0.950 . S
C867 C863 1.393 . S
C867 C866 1.391 . S
H868 C876 0.950 . S
H869 C881 0.950 . S
H870 C878 0.950 . S
H871 C880 0.950 . S
H872 C882 0.950 . S
H873 C884 0.950 . S
H874 C886 0.950 . S
H875 C887 0.950 . S
C876 H868 0.950 . S
C876 C877 1.386 . S
C876 C878 1.391 . S
C877 C876 1.386 . S
C877 C881 1.393 1_556 S
C878 H870 0.950 . S
C878 C876 1.391 . S
C878 C879 1.400 . S
C879 C878 1.400 . S
C879 C880 1.398 1_556 S
C879 C885 1.491 1_546 S
C880 H871 0.950 . S
C880 C879 1.398 1_554 S
C880 C881 1.391 . S
C881 H869 0.950 . S
C881 C877 1.393 1_554 S
C881 C880 1.391 . S
C882 H872 0.950 . S
C882 C883 1.386 . S
C882 C884 1.391 . S
C883 C882 1.386 . S
C883 C887 1.393 1_554 S
C884 H873 0.950 . S
C884 C882 1.391 . S
C884 C885 1.400 . S
C885 C879 1.491 1_564 S
C885 C884 1.400 . S
C885 C886 1.398 1_554 S
C886 H874 0.950 . S
C886 C885 1.398 1_556 S
C886 C887 1.391 . S
C887 H875 0.950 . S
C887 C883 1.393 1_556 S
C887 C886 1.391 . S
H888 C896 0.950 . S
H889 C901 0.950 . S
H890 C898 0.950 . S
H891 C900 0.950 . S
H892 C902 0.950 . S
H893 C904 0.950 . S
H894 C906 0.950 . S
H895 C907 0.950 . S
C896 H888 0.950 . S
C896 C897 1.386 1_556 S
C896 C898 1.391 . S
C897 C896 1.386 1_554 S
C897 C901 1.393 . S
C898 H890 0.950 . S
C898 C896 1.391 . S
C898 C899 1.400 1_556 S
C899 C898 1.400 1_554 S
C899 C900 1.398 . S
C899 C905 1.491 1_454 S
C900 H891 0.950 . S
C900 C899 1.398 . S
C900 C901 1.391 . S
C901 H889 0.950 . S
C901 C897 1.393 . S
C901 C900 1.391 . S
C902 H892 0.950 . S
C902 C903 1.386 1_554 S
C902 C904 1.391 . S
C903 C902 1.386 1_556 S
C903 C907 1.393 . S
C904 H893 0.950 . S
C904 C902 1.391 . S
C904 C905 1.400 1_554 S
C905 C899 1.491 1_656 S
C905 C904 1.400 1_556 S
C905 C906 1.398 . S
C906 H894 0.950 . S
C906 C905 1.398 . S
C906 C907 1.391 . S
C907 H895 0.950 . S
C907 C903 1.393 . S
C907 C906 1.391 . S
H908 C916 0.950 . S
H909 C921 0.950 . S
H910 C918 0.950 . S
H911 C920 0.950 . S
H912 C922 0.950 . S
H913 C924 0.950 . S
H914 C926 0.950 . S
H915 C927 0.950 . S
C916 H908 0.950 . S
C916 C917 1.386 . S
C916 C918 1.391 . S
C917 C916 1.386 . S
C917 C921 1.393 1_556 S
C918 H910 0.950 . S
C918 C916 1.391 . S
C918 C919 1.400 . S
C919 C918 1.400 . S
C919 C920 1.398 1_556 S
C919 C925 1.491 1_556 S
C920 H911 0.950 . S
C920 C919 1.398 1_554 S
C920 C921 1.391 . S
C921 H909 0.950 . S
C921 C917 1.393 1_554 S
C921 C920 1.391 . S
C922 H912 0.950 . S
C922 C923 1.386 . S
C922 C924 1.391 . S
C923 C922 1.386 . S
C923 C927 1.393 1_554 S
C924 H913 0.950 . S
C924 C922 1.391 . S
C924 C925 1.400 . S
C925 C919 1.491 1_554 S
C925 C924 1.400 . S
C925 C926 1.398 1_554 S
C926 H914 0.950 . S
C926 C925 1.398 1_556 S
C926 C927 1.391 . S
C927 H915 0.950 . S
C927 C923 1.393 1_556 S
C927 C926 1.391 . S
H928 C936 0.946 1_556 S
H929 C941 0.950 . S
H930 C938 0.950 . S
H931 C940 0.950 . S
H932 C942 0.948 1_554 S
H933 C944 0.950 . S
H934 C946 0.950 . S
H935 C947 0.950 . S
C936 H928 0.946 1_554 S
C936 C937 1.391 . S
C936 C938 1.389 1_554 S
C937 C936 1.391 . S
C937 C941 1.393 . S
C938 H930 0.950 . S
C938 C936 1.389 1_556 S
C938 C939 1.400 1_556 S
C939 C938 1.400 1_554 S
C939 C940 1.398 . S
C939 C945 1.491 1_564 S
C940 H931 0.950 . S
C940 C939 1.398 . S
C940 C941 1.391 . S
C941 H929 0.950 . S
C941 C937 1.393 . S
C941 C940 1.391 . S
C942 H932 0.948 1_556 S
C942 C943 1.389 . S
C942 C944 1.390 1_556 S
C943 C942 1.389 . S
C943 C947 1.393 . S
C944 H933 0.950 . S
C944 C942 1.390 1_554 S
C944 C945 1.400 1_554 S
C945 C939 1.491 1_546 S
C945 C944 1.400 1_556 S
C945 C946 1.398 . S
C946 H934 0.950 . S
C946 C945 1.398 . S
C946 C947 1.391 . S
C947 H935 0.950 . S
C947 C943 1.393 . S
C947 C946 1.391 . S
H948 C956 0.950 . S
H949 C961 0.950 . S
H950 C958 0.950 . S
H951 C960 0.950 . S
H952 C962 0.950 . S
H953 C964 0.950 . S
H954 C966 0.950 . S
H955 C967 0.950 . S
C956 H948 0.950 . S
C956 C957 1.386 . S
C956 C958 1.391 . S
C957 C956 1.386 . S
C957 C961 1.393 . S
C958 H950 0.950 . S
C958 C956 1.391 . S
C958 C959 1.400 . S
C959 C958 1.400 . S
C959 C960 1.398 . S
C959 C965 1.491 . S
C960 H951 0.950 . S
C960 C959 1.398 . S
C960 C961 1.391 . S
C961 H949 0.950 . S
C961 C957 1.393 . S
C961 C960 1.391 . S
C962 H952 0.950 . S
C962 C963 1.386 . S
C962 C964 1.391 . S
C963 C962 1.386 . S
C963 C967 1.393 . S
C964 H953 0.950 . S
C964 C962 1.391 . S
C964 C965 1.400 . S
C965 C959 1.491 . S
C965 C964 1.400 . S
C965 C966 1.398 . S
C966 H954 0.950 . S
C966 C965 1.398 . S
C966 C967 1.391 . S
C967 H955 0.950 . S
C967 C963 1.393 . S
C967 C966 1.391 . S
H968 C976 0.950 . S
H969 C981 0.950 . S
H970 C978 0.950 . S
H971 C980 0.950 . S
H972 C982 0.950 . S
H973 C984 0.950 . S
H974 C986 0.950 . S
H975 C987 0.950 . S
C976 H968 0.950 . S
C976 C977 1.386 . S
C976 C978 1.391 . S
C977 C976 1.386 . S
C977 C981 1.393 . S
C978 H970 0.950 . S
C978 C976 1.391 . S
C978 C979 1.400 . S
C979 C978 1.400 . S
C979 C980 1.398 . S
C979 C985 1.491 . S
C980 H971 0.950 . S
C980 C979 1.398 . S
C980 C981 1.391 . S
C981 H969 0.950 . S
C981 C977 1.393 . S
C981 C980 1.391 . S
C982 H972 0.950 . S
C982 C983 1.386 1_565 S
C982 C984 1.391 . S
C983 C982 1.386 1_545 S
C983 C987 1.393 . S
C984 H973 0.950 . S
C984 C982 1.391 . S
C984 C985 1.400 . S
C985 C979 1.491 . S
C985 C984 1.400 . S
C985 C986 1.398 1_565 S
C986 H974 0.950 . S
C986 C985 1.398 1_545 S
C986 C987 1.391 . S
C987 H975 0.950 . S
C987 C983 1.393 . S
C987 C986 1.391 . S
H988 C996 0.950 . S
H989 C1001 0.950 . S
H990 C998 0.950 . S
H991 C1000 0.925 1_655 S
H992 C1002 0.950 . S
H993 C1004 0.950 . S
H994 C1006 0.950 . S
H995 C1007 0.950 . S
C996 H988 0.950 . S
C996 C997 1.386 1_455 S
C996 C998 1.391 . S
C997 C996 1.386 1_655 S
C997 C1001 1.393 . S
C998 H990 0.950 . S
C998 C996 1.391 . S
C998 C999 1.400 . S
C999 C998 1.400 . S
C999 C1000 1.425 . S
C999 C1005 1.491 . S
C1000 H991 0.925 1_455 S
C1000 C999 1.425 . S
C1000 C1001 1.392 1_455 S
C1001 H989 0.950 . S
C1001 C997 1.393 . S
C1001 C1000 1.392 1_655 S
C1002 H992 0.950 . S
C1002 C1003 1.386 . S
C1002 C1004 1.391 . S
C1003 C1002 1.386 . S
C1003 C1007 1.393 . S
C1004 H993 0.950 . S
C1004 C1002 1.391 . S
C1004 C1005 1.400 . S
C1005 C999 1.491 . S
C1005 C1004 1.400 . S
C1005 C1006 1.398 . S
C1006 H994 0.950 . S
C1006 C1005 1.398 . S
C1006 C1007 1.391 . S
C1007 H995 0.950 . S
C1007 C1003 1.393 . S
C1007 C1006 1.391 . S
H1008 C1016 0.950 . S
H1009 C1021 0.950 . S
H1010 C1018 0.950 . S
H1011 C1020 0.950 . S
H1012 C1022 0.950 . S
H1013 C1024 0.950 . S
H1014 C1026 0.946 1_545 S
H1015 C1027 0.950 . S
C1016 H1008 0.950 . S
C1016 C1017 1.386 . S
C1016 C1018 1.391 . S
C1017 C1016 1.386 . S
C1017 C1021 1.393 . S
C1018 H1010 0.950 . S
C1018 C1016 1.391 . S
C1018 C1019 1.400 . S
C1019 C1018 1.400 . S
C1019 C1020 1.398 . S
C1019 C1025 1.491 . S
C1020 H1011 0.950 . S
C1020 C1019 1.398 . S
C1020 C1021 1.391 . S
C1021 H1009 0.950 . S
C1021 C1017 1.393 . S
C1021 C1020 1.391 . S
C1022 H1012 0.950 . S
C1022 C1023 1.386 1_565 S
C1022 C1024 1.391 . S
C1023 C1022 1.386 1_545 S
C1023 C1027 1.393 . S
C1024 H1013 0.950 . S
C1024 C1022 1.391 . S
C1024 C1025 1.400 . S
C1025 C1019 1.491 . S
C1025 C1024 1.400 . S
C1025 C1026 1.402 . S
C1026 H1014 0.946 1_565 S
C1026 C1025 1.402 . S
C1026 C1027 1.391 1_565 S
C1027 H1015 0.950 . S
C1027 C1023 1.393 . S
C1027 C1026 1.391 1_545 S
H1028 C1036 0.950 . S
H1029 C1041 0.950 . S
H1030 C1038 0.943 . S
H1031 C1040 0.950 . S
H1032 C1042 0.950 . S
H1033 C1044 0.950 . S
H1034 C1046 0.950 . S
H1035 C1047 0.950 . S
C1036 H1028 0.950 . S
C1036 C1037 1.386 . S
C1036 C1038 1.468 . S
C1037 C1036 1.386 . S
C1037 C1041 1.393 1_655 S
C1038 H1030 0.943 . S
C1038 C1036 1.468 . S
C1038 C1039 1.336 1_655 S
C1039 C1038 1.336 1_455 S
C1039 C1040 1.398 . S
C1039 C1045 1.491 . S
C1040 H1031 0.950 . S
C1040 C1039 1.398 . S
C1040 C1041 1.391 . S
C1041 H1029 0.950 . S
C1041 C1037 1.393 1_455 S
C1041 C1040 1.391 . S
C1042 H1032 0.950 . S
C1042 C1043 1.386 . S
C1042 C1044 1.391 . S
C1043 C1042 1.386 . S
C1043 C1047 1.393 . S
C1044 H1033 0.950 . S
C1044 C1042 1.391 . S
C1044 C1045 1.400 . S
C1045 C1039 1.491 . S
C1045 C1044 1.400 . S
C1045 C1046 1.398 . S
C1046 H1034 0.950 . S
C1046 C1045 1.398 . S
C1046 C1047 1.391 . S
C1047 H1035 0.950 . S
C1047 C1043 1.393 . S
C1047 C1046 1.391 . S
H1048 C1056 0.950 . S
H1049 C1061 0.950 . S
H1050 C1058 0.950 . S
H1051 C1060 0.950 . S
H1052 C1062 0.950 . S
H1053 C1064 0.950 . S
H1054 C1066 0.950 . S
H1055 C1067 0.950 . S
C1056 H1048 0.950 . S
C1056 C1057 1.386 . S
C1056 C1058 1.391 . S
C1057 C1056 1.386 . S
C1057 C1061 1.393 . S
C1058 H1050 0.950 . S
C1058 C1056 1.391 . S
C1058 C1059 1.400 . S
C1059 C1058 1.400 . S
C1059 C1060 1.398 . S
C1059 C1065 1.491 . S
C1060 H1051 0.950 . S
C1060 C1059 1.398 . S
C1060 C1061 1.391 . S
C1061 H1049 0.950 . S
C1061 C1057 1.393 . S
C1061 C1060 1.391 . S
C1062 H1052 0.950 . S
C1062 C1063 1.386 . S
C1062 C1064 1.391 . S
C1063 C1062 1.386 . S
C1063 C1067 1.393 . S
C1064 H1053 0.950 . S
C1064 C1062 1.391 . S
C1064 C1065 1.400 . S
C1065 C1059 1.491 . S
C1065 C1064 1.400 . S
C1065 C1066 1.398 . S
C1066 H1054 0.950 . S
C1066 C1065 1.398 . S
C1066 C1067 1.391 . S
C1067 H1055 0.950 . S
C1067 C1063 1.393 . S
C1067 C1066 1.391 . S
H1068 C1076 0.951 . S
H1069 C1081 0.950 . S
H1070 C1078 0.950 . S
H1071 C1080 0.950 . S
H1072 C1082 0.950 . S
H1073 C1084 0.950 . S
H1074 C1086 0.950 . S
H1075 C1087 0.950 . S
C1076 H1068 0.951 . S
C1076 C1077 1.386 . S
C1076 C1078 1.391 1_565 S
C1077 C1076 1.386 . S
C1077 C1081 1.393 . S
C1078 H1070 0.950 . S
C1078 C1076 1.391 1_545 S
C1078 C1079 1.400 . S
C1079 C1078 1.400 . S
C1079 C1080 1.398 . S
C1079 C1085 1.491 . S
C1080 H1071 0.950 . S
C1080 C1079 1.398 . S
C1080 C1081 1.391 1_545 S
C1081 H1069 0.950 . S
C1081 C1077 1.393 . S
C1081 C1080 1.391 1_565 S
C1082 H1072 0.950 . S
C1082 C1083 1.386 . S
C1082 C1084 1.391 . S
C1083 C1082 1.386 . S
C1083 C1087 1.393 . S
C1084 H1073 0.950 . S
C1084 C1082 1.391 . S
C1084 C1085 1.400 . S
C1085 C1079 1.491 . S
C1085 C1084 1.400 . S
C1085 C1086 1.398 . S
C1086 H1074 0.950 . S
C1086 C1085 1.398 . S
C1086 C1087 1.391 . S
C1087 H1075 0.950 . S
C1087 C1083 1.393 . S
C1087 C1086 1.391 . S
H1088 C1096 0.950 . S
H1089 C1101 0.950 . S
H1090 C1098 0.950 . S
H1091 C1100 0.950 . S
H1092 C1102 0.950 . S
H1093 C1104 0.950 . S
H1094 C1106 0.950 . S
H1095 C1107 0.950 . S
C1096 H1088 0.950 . S
C1096 C1097 1.386 . S
C1096 C1098 1.391 . S
C1097 C1096 1.386 . S
C1097 C1101 1.393 . S
C1098 H1090 0.950 . S
C1098 C1096 1.391 . S
C1098 C1099 1.400 . S
C1099 C1098 1.400 . S
C1099 C1100 1.398 . S
C1099 C1105 1.491 . S
C1100 H1091 0.950 . S
C1100 C1099 1.398 . S
C1100 C1101 1.391 . S
C1101 H1089 0.950 . S
C1101 C1097 1.393 . S
C1101 C1100 1.391 . S
C1102 H1092 0.950 . S
C1102 C1103 1.386 . S
C1102 C1104 1.391 . S
C1103 C1102 1.386 . S
C1103 C1107 1.393 1_455 S
C1104 H1093 0.950 . S
C1104 C1102 1.391 . S
C1104 C1105 1.400 1_455 S
C1105 C1099 1.491 . S
C1105 C1104 1.400 1_655 S
C1105 C1106 1.398 . S
C1106 H1094 0.950 . S
C1106 C1105 1.398 . S
C1106 C1107 1.391 . S
C1107 H1095 0.950 . S
C1107 C1103 1.393 1_655 S
C1107 C1106 1.391 . S
H1108 C1116 0.950 . S
H1109 C1121 0.950 . S
H1110 C1118 0.950 . S
H1111 C1120 0.950 . S
H1112 C1122 0.950 . S
H1113 C1124 0.950 . S
H1114 C1126 0.950 . S
H1115 C1127 0.950 . S
C1116 H1108 0.950 . S
C1116 C1117 1.386 . S
C1116 C1118 1.391 . S
C1117 C1116 1.386 . S
C1117 C1121 1.393 . S
C1118 H1110 0.950 . S
C1118 C1116 1.391 . S
C1118 C1119 1.400 . S
C1119 C1118 1.400 . S
C1119 C1120 1.398 . S
C1119 C1125 1.491 . S
C1120 H1111 0.950 . S
C1120 C1119 1.398 . S
C1120 C1121 1.391 . S
C1121 H1109 0.950 . S
C1121 C1117 1.393 . S
C1121 C1120 1.391 . S
C1122 H1112 0.950 . S
C1122 C1123 1.386 . S
C1122 C1124 1.391 . S
C1123 C1122 1.386 . S
C1123 C1127 1.393 . S
C1124 H1113 0.950 . S
C1124 C1122 1.391 . S
C1124 C1125 1.400 . S
C1125 C1119 1.491 . S
C1125 C1124 1.400 . S
C1125 C1126 1.398 . S
C1126 H1114 0.950 . S
C1126 C1125 1.398 . S
C1126 C1127 1.391 . S
C1127 H1115 0.950 . S
C1127 C1123 1.393 . S
C1127 C1126 1.391 . S
H1128 C1136 0.950 . S
H1129 C1141 0.950 . S
H1130 C1138 0.950 . S
H1131 C1140 0.950 . S
H1132 C1142 0.950 . S
H1133 C1144 0.950 . S
H1134 C1146 0.950 . S
H1135 C1147 0.950 . S
C1136 H1128 0.950 . S
C1136 C1137 1.386 . S
C1136 C1138 1.391 . S
C1137 C1136 1.386 . S
C1137 C1141 1.393 . S
C1138 H1130 0.950 . S
C1138 C1136 1.391 . S
C1138 C1139 1.400 . S
C1139 C1138 1.400 . S
C1139 C1140 1.398 . S
C1139 C1145 1.491 . S
C1140 H1131 0.950 . S
C1140 C1139 1.398 . S
C1140 C1141 1.391 . S
C1141 H1129 0.950 . S
C1141 C1137 1.393 . S
C1141 C1140 1.391 . S
C1142 H1132 0.950 . S
C1142 C1143 1.386 . S
C1142 C1144 1.391 . S
C1143 C1142 1.386 . S
C1143 C1147 1.393 . S
C1144 H1133 0.950 . S
C1144 C1142 1.391 . S
C1144 C1145 1.400 . S
C1145 C1139 1.491 . S
C1145 C1144 1.400 . S
C1145 C1146 1.398 . S
C1146 H1134 0.950 . S
C1146 C1145 1.398 . S
C1146 C1147 1.391 . S
C1147 H1135 0.950 . S
C1147 C1143 1.393 . S
C1147 C1146 1.391 . S
H1148 C1156 0.950 . S
H1149 C1161 0.950 . S
H1150 C1158 0.950 . S
H1151 C1160 0.952 . S
H1152 C1162 0.950 . S
H1153 C1164 0.950 . S
H1154 C1166 0.950 . S
H1155 C1167 0.950 . S
C1156 H1148 0.950 . S
C1156 C1157 1.386 1_545 S
C1156 C1158 1.391 . S
C1157 C1156 1.386 1_565 S
C1157 C1161 1.393 . S
C1158 H1150 0.950 . S
C1158 C1156 1.391 . S
C1158 C1159 1.400 . S
C1159 C1158 1.400 . S
C1159 C1160 1.398 . S
C1159 C1165 1.491 . S
C1160 H1151 0.952 . S
C1160 C1159 1.398 . S
C1160 C1161 1.391 1_545 S
C1161 H1149 0.950 . S
C1161 C1157 1.393 . S
C1161 C1160 1.391 1_565 S
C1162 H1152 0.950 . S
C1162 C1163 1.386 . S
C1162 C1164 1.391 . S
C1163 C1162 1.386 . S
C1163 C1167 1.393 . S
C1164 H1153 0.950 . S
C1164 C1162 1.391 . S
C1164 C1165 1.400 . S
C1165 C1159 1.491 . S
C1165 C1164 1.400 . S
C1165 C1166 1.398 . S
C1166 H1154 0.950 . S
C1166 C1165 1.398 . S
C1166 C1167 1.391 . S
C1167 H1155 0.950 . S
C1167 C1163 1.393 . S
C1167 C1166 1.391 . S
H1168 C1176 0.950 . S
H1169 C1181 0.950 . S
H1170 C1178 0.947 1_455 S
H1171 C1180 0.950 . S
H1172 C1182 0.950 . S
H1173 C1184 0.950 . S
H1174 C1186 0.950 . S
H1175 C1187 0.950 . S
C1176 H1168 0.950 . S
C1176 C1177 1.386 . S
C1176 C1178 1.391 1_455 S
C1177 C1176 1.386 . S
C1177 C1181 1.393 1_455 S
C1178 H1170 0.947 1_655 S
C1178 C1176 1.391 1_655 S
C1178 C1179 1.403 . S
C1179 C1178 1.403 . S
C1179 C1180 1.398 . S
C1179 C1185 1.491 . S
C1180 H1171 0.950 . S
C1180 C1179 1.398 . S
C1180 C1181 1.391 . S
C1181 H1169 0.950 . S
C1181 C1177 1.393 1_655 S
C1181 C1180 1.391 . S
C1182 H1172 0.950 . S
C1182 C1183 1.386 . S
C1182 C1184 1.391 . S
C1183 C1182 1.386 . S
C1183 C1187 1.393 . S
C1184 H1173 0.950 . S
C1184 C1182 1.391 . S
C1184 C1185 1.400 . S
C1185 C1179 1.491 . S
C1185 C1184 1.400 . S
C1185 C1186 1.398 . S
C1186 H1174 0.950 . S
C1186 C1185 1.398 . S
C1186 C1187 1.391 . S
C1187 H1175 0.950 . S
C1187 C1183 1.393 . S
C1187 C1186 1.391 . S
H1188 C1196 0.950 . S
H1189 C1201 0.950 . S
H1190 C1198 0.950 . S
H1191 C1200 0.950 . S
H1192 C1202 0.950 . S
H1193 C1204 0.950 . S
H1194 C1206 0.950 . S
H1195 C1207 0.950 . S
C1196 H1188 0.950 . S
C1196 C1197 1.386 1_554 S
C1196 C1198 1.391 . S
C1197 C1196 1.386 1_556 S
C1197 C1201 1.393 . S
C1198 H1190 0.950 . S
C1198 C1196 1.391 . S
C1198 C1199 1.400 1_554 S
C1199 C1198 1.400 1_556 S
C1199 C1200 1.398 . S
C1199 C1205 1.491 . S
C1200 H1191 0.950 . S
C1200 C1199 1.398 . S
C1200 C1201 1.391 . S
C1201 H1189 0.950 . S
C1201 C1197 1.393 . S
C1201 C1200 1.391 . S
C1202 H1192 0.950 . S
C1202 C1203 1.386 . S
C1202 C1204 1.391 . S
C1203 C1202 1.386 . S
C1203 C1207 1.393 1_556 S
C1204 H1193 0.950 . S
C1204 C1202 1.391 . S
C1204 C1205 1.400 . S
C1205 C1199 1.491 . S
C1205 C1204 1.400 . S
C1205 C1206 1.398 1_556 S
C1206 H1194 0.950 . S
C1206 C1205 1.398 1_554 S
C1206 C1207 1.391 . S
C1207 H1195 0.950 . S
C1207 C1203 1.393 1_554 S
C1207 C1206 1.391 . S
H1208 C1216 0.950 . S
H1209 C1221 0.950 . S
H1210 C1218 0.950 . S
H1211 C1220 0.950 . S
H1212 C1222 0.950 . S
H1213 C1224 0.950 . S
H1214 C1226 0.950 . S
H1215 C1227 0.950 . S
C1216 H1208 0.950 . S
C1216 C1217 1.386 1_554 S
C1216 C1218 1.391 . S
C1217 C1216 1.386 1_556 S
C1217 C1221 1.393 . S
C1218 H1210 0.950 . S
C1218 C1216 1.391 . S
C1218 C1219 1.400 1_554 S
C1219 C1218 1.400 1_556 S
C1219 C1220 1.398 . S
C1219 C1225 1.491 . S
C1220 H1211 0.950 . S
C1220 C1219 1.398 . S
C1220 C1221 1.391 . S
C1221 H1209 0.950 . S
C1221 C1217 1.393 . S
C1221 C1220 1.391 . S
C1222 H1212 0.950 . S
C1222 C1223 1.386 . S
C1222 C1224 1.391 . S
C1223 C1222 1.386 . S
C1223 C1227 1.393 1_556 S
C1224 H1213 0.950 . S
C1224 C1222 1.391 . S
C1224 C1225 1.400 . S
C1225 C1219 1.491 . S
C1225 C1224 1.400 . S
C1225 C1226 1.398 1_556 S
C1226 H1214 0.950 . S
C1226 C1225 1.398 1_554 S
C1226 C1227 1.391 . S
C1227 H1215 0.950 . S
C1227 C1223 1.393 1_554 S
C1227 C1226 1.391 . S
H1228 C1236 0.950 . S
H1229 C1241 0.950 . S
H1230 C1238 0.950 . S
H1231 C1240 0.950 . S
H1232 C1242 0.950 . S
H1233 C1244 0.950 . S
H1234 C1246 0.950 . S
H1235 C1247 0.950 . S
C1236 H1228 0.950 . S
C1236 C1237 1.386 1_554 S
C1236 C1238 1.391 . S
C1237 C1236 1.386 1_556 S
C1237 C1241 1.393 . S
C1238 H1230 0.950 . S
C1238 C1236 1.391 . S
C1238 C1239 1.400 1_554 S
C1239 C1238 1.400 1_556 S
C1239 C1240 1.398 . S
C1239 C1245 1.491 . S
C1240 H1231 0.950 . S
C1240 C1239 1.398 . S
C1240 C1241 1.391 . S
C1241 H1229 0.950 . S
C1241 C1237 1.393 . S
C1241 C1240 1.391 . S
C1242 H1232 0.950 . S
C1242 C1243 1.386 . S
C1242 C1244 1.391 . S
C1243 C1242 1.386 . S
C1243 C1247 1.393 1_556 S
C1244 H1233 0.950 . S
C1244 C1242 1.391 . S
C1244 C1245 1.400 . S
C1245 C1239 1.491 . S
C1245 C1244 1.400 . S
C1245 C1246 1.398 1_556 S
C1246 H1234 0.950 . S
C1246 C1245 1.398 1_554 S
C1246 C1247 1.391 . S
C1247 H1235 0.950 . S
C1247 C1243 1.393 1_554 S
C1247 C1246 1.391 . S
H1248 C1256 0.950 . S
H1249 C1261 0.950 . S
H1250 C1258 0.950 . S
H1251 C1260 0.950 . S
H1252 C1262 0.950 . S
H1253 C1264 0.950 . S
H1254 C1266 0.950 . S
H1255 C1267 0.950 . S
C1256 H1248 0.950 . S
C1256 C1257 1.386 . S
C1256 C1258 1.391 . S
C1257 C1256 1.386 . S
C1257 C1261 1.393 1_554 S
C1258 H1250 0.950 . S
C1258 C1256 1.391 . S
C1258 C1259 1.400 . S
C1259 C1258 1.400 . S
C1259 C1260 1.398 1_554 S
C1259 C1265 1.491 . S
C1260 H1251 0.950 . S
C1260 C1259 1.398 1_556 S
C1260 C1261 1.391 . S
C1261 H1249 0.950 . S
C1261 C1257 1.393 1_556 S
C1261 C1260 1.391 . S
C1262 H1252 0.950 . S
C1262 C1263 1.386 1_556 S
C1262 C1264 1.391 . S
C1263 C1262 1.386 1_554 S
C1263 C1267 1.393 . S
C1264 H1253 0.950 . S
C1264 C1262 1.391 . S
C1264 C1265 1.400 1_556 S
C1265 C1259 1.491 . S
C1265 C1264 1.400 1_554 S
C1265 C1266 1.398 . S
C1266 H1254 0.950 . S
C1266 C1265 1.398 . S
C1266 C1267 1.391 . S
C1267 H1255 0.950 . S
C1267 C1263 1.393 . S
C1267 C1266 1.391 . S
H1268 C1276 0.950 . S
H1269 C1281 0.950 . S
H1270 C1278 0.950 . S
H1271 C1280 0.950 . S
H1272 C1282 0.950 . S
H1273 C1284 0.950 . S
H1274 C1286 0.950 . S
H1275 C1287 0.950 . S
C1276 H1268 0.950 . S
C1276 C1277 1.386 . S
C1276 C1278 1.391 . S
C1277 C1276 1.386 . S
C1277 C1281 1.393 1_554 S
C1278 H1270 0.950 . S
C1278 C1276 1.391 . S
C1278 C1279 1.400 . S
C1279 C1278 1.400 . S
C1279 C1280 1.398 1_554 S
C1279 C1285 1.491 . S
C1280 H1271 0.950 . S
C1280 C1279 1.398 1_556 S
C1280 C1281 1.391 . S
C1281 H1269 0.950 . S
C1281 C1277 1.393 1_556 S
C1281 C1280 1.391 . S
C1282 H1272 0.950 . S
C1282 C1283 1.386 1_556 S
C1282 C1284 1.391 . S
C1283 C1282 1.386 1_554 S
C1283 C1287 1.393 . S
C1284 H1273 0.950 . S
C1284 C1282 1.391 . S
C1284 C1285 1.400 1_556 S
C1285 C1279 1.491 . S
C1285 C1284 1.400 1_554 S
C1285 C1286 1.398 . S
C1286 H1274 0.950 . S
C1286 C1285 1.398 . S
C1286 C1287 1.391 . S
C1287 H1275 0.950 . S
C1287 C1283 1.393 . S
C1287 C1286 1.391 . S
H1288 C1296 0.950 . S
H1289 C1301 0.950 . S
H1290 C1298 0.950 . S
H1291 C1300 0.950 . S
H1292 C1302 0.950 . S
H1293 C1304 0.950 . S
H1294 C1306 0.950 . S
H1295 C1307 0.950 . S
C1296 H1288 0.950 . S
C1296 C1297 1.386 1_556 S
C1296 C1298 1.391 . S
C1297 C1296 1.386 1_554 S
C1297 C1301 1.393 . S
C1298 H1290 0.950 . S
C1298 C1296 1.391 . S
C1298 C1299 1.400 1_556 S
C1299 C1298 1.400 1_554 S
C1299 C1300 1.398 . S
C1299 C1305 1.491 . S
C1300 H1291 0.950 . S
C1300 C1299 1.398 . S
C1300 C1301 1.391 . S
C1301 H1289 0.950 . S
C1301 C1297 1.393 . S
C1301 C1300 1.391 . S
C1302 H1292 0.950 . S
C1302 C1303 1.386 . S
C1302 C1304 1.391 . S
C1303 C1302 1.386 . S
C1303 C1307 1.393 1_554 S
C1304 H1293 0.950 . S
C1304 C1302 1.391 . S
C1304 C1305 1.400 . S
C1305 C1299 1.491 . S
C1305 C1304 1.400 . S
C1305 C1306 1.398 1_554 S
C1306 H1294 0.950 . S
C1306 C1305 1.398 1_556 S
C1306 C1307 1.391 . S
C1307 H1295 0.950 . S
C1307 C1303 1.393 1_556 S
C1307 C1306 1.391 . S
H1308 C1316 0.950 . S
H1309 C1321 0.950 . S
H1310 C1318 0.950 . S
H1311 C1320 0.950 . S
H1312 C1322 0.950 . S
H1313 C1324 0.950 . S
H1314 C1326 0.950 . S
H1315 C1327 0.950 . S
C1316 H1308 0.950 . S
C1316 C1317 1.386 . S
C1316 C1318 1.391 . S
C1317 C1316 1.386 . S
C1317 C1321 1.393 . S
C1318 H1310 0.950 . S
C1318 C1316 1.391 . S
C1318 C1319 1.400 . S
C1319 C1318 1.400 . S
C1319 C1320 1.398 . S
C1319 C1325 1.491 . S
C1320 H1311 0.950 . S
C1320 C1319 1.398 . S
C1320 C1321 1.391 . S
C1321 H1309 0.950 . S
C1321 C1317 1.393 . S
C1321 C1320 1.391 . S
C1322 H1312 0.950 . S
C1322 C1323 1.386 . S
C1322 C1324 1.391 . S
C1323 C1322 1.386 . S
C1323 C1327 1.393 . S
C1324 H1313 0.950 . S
C1324 C1322 1.391 . S
C1324 C1325 1.400 . S
C1325 C1319 1.491 . S
C1325 C1324 1.400 . S
C1325 C1326 1.398 . S
C1326 H1314 0.950 . S
C1326 C1325 1.398 . S
C1326 C1327 1.391 . S
C1327 H1315 0.950 . S
C1327 C1323 1.393 . S
C1327 C1326 1.391 . S
H1328 C1336 0.950 . S
H1329 C1341 0.950 . S
H1330 C1338 0.950 . S
H1331 C1340 0.950 . S
H1332 C1342 0.950 . S
H1333 C1344 0.950 . S
H1334 C1346 0.950 . S
H1335 C1347 0.950 . S
C1336 H1328 0.950 . S
C1336 C1337 1.386 . S
C1336 C1338 1.391 . S
C1337 C1336 1.386 . S
C1337 C1341 1.393 . S
C1338 H1330 0.950 . S
C1338 C1336 1.391 . S
C1338 C1339 1.400 . S
C1339 C1338 1.400 . S
C1339 C1340 1.398 . S
C1339 C1345 1.491 . S
C1340 H1331 0.950 . S
C1340 C1339 1.398 . S
C1340 C1341 1.391 . S
C1341 H1329 0.950 . S
C1341 C1337 1.393 . S
C1341 C1340 1.391 . S
C1342 H1332 0.950 . S
C1342 C1343 1.386 . S
C1342 C1344 1.391 . S
C1343 C1342 1.386 . S
C1343 C1347 1.393 . S
C1344 H1333 0.950 . S
C1344 C1342 1.391 . S
C1344 C1345 1.400 . S
C1345 C1339 1.491 . S
C1345 C1344 1.400 . S
C1345 C1346 1.398 . S
C1346 H1334 0.950 . S
C1346 C1345 1.398 . S
C1346 C1347 1.391 . S
C1347 H1335 0.950 . S
C1347 C1343 1.393 . S
C1347 C1346 1.391 . S
H1348 C1356 0.950 . S
H1349 C1361 0.950 . S
H1350 C1358 0.950 . S
H1351 C1360 0.950 . S
H1352 C1362 0.950 . S
H1353 C1364 0.950 . S
H1354 C1366 0.950 . S
H1355 C1367 0.950 . S
C1356 H1348 0.950 . S
C1356 C1357 1.386 . S
C1356 C1358 1.391 . S
C1357 C1356 1.386 . S
C1357 C1361 1.393 . S
C1358 H1350 0.950 . S
C1358 C1356 1.391 . S
C1358 C1359 1.400 . S
C1359 C1358 1.400 . S
C1359 C1360 1.398 . S
C1359 C1365 1.491 . S
C1360 H1351 0.950 . S
C1360 C1359 1.398 . S
C1360 C1361 1.391 . S
C1361 H1349 0.950 . S
C1361 C1357 1.393 . S
C1361 C1360 1.391 . S
C1362 H1352 0.950 . S
C1362 C1363 1.386 . S
C1362 C1364 1.391 . S
C1363 C1362 1.386 . S
C1363 C1367 1.393 . S
C1364 H1353 0.950 . S
C1364 C1362 1.391 . S
C1364 C1365 1.400 . S
C1365 C1359 1.491 . S
C1365 C1364 1.400 . S
C1365 C1366 1.398 . S
C1366 H1354 0.950 . S
C1366 C1365 1.398 . S
C1366 C1367 1.391 . S
C1367 H1355 0.950 . S
C1367 C1363 1.393 . S
C1367 C1366 1.391 . S
H1368 C1376 0.950 . S
H1369 C1381 0.950 . S
H1370 C1378 0.950 . S
H1371 C1380 0.950 . S
H1372 C1382 0.950 . S
H1373 C1384 0.950 . S
H1374 C1386 0.950 . S
H1375 C1387 0.950 . S
C1376 H1368 0.950 . S
C1376 C1377 1.386 . S
C1376 C1378 1.391 . S
C1377 C1376 1.386 . S
C1377 C1381 1.393 . S
C1378 H1370 0.950 . S
C1378 C1376 1.391 . S
C1378 C1379 1.400 . S
C1379 C1378 1.400 . S
C1379 C1380 1.398 . S
C1379 C1385 1.491 . S
C1380 H1371 0.950 . S
C1380 C1379 1.398 . S
C1380 C1381 1.391 . S
C1381 H1369 0.950 . S
C1381 C1377 1.393 . S
C1381 C1380 1.391 . S
C1382 H1372 0.950 . S
C1382 C1383 1.386 . S
C1382 C1384 1.391 . S
C1383 C1382 1.386 . S
C1383 C1387 1.393 . S
C1384 H1373 0.950 . S
C1384 C1382 1.391 . S
C1384 C1385 1.400 . S
C1385 C1379 1.491 . S
C1385 C1384 1.400 . S
C1385 C1386 1.398 . S
C1386 H1374 0.950 . S
C1386 C1385 1.398 . S
C1386 C1387 1.391 . S
C1387 H1375 0.950 . S
C1387 C1383 1.393 . S
C1387 C1386 1.391 . S
H1388 C1396 0.950 . S
H1389 C1401 0.950 . S
H1390 C1398 0.950 . S
H1391 C1400 0.950 . S
H1392 C1402 0.950 . S
H1393 C1404 0.950 . S
H1394 C1406 0.950 . S
H1395 C1407 0.950 . S
C1396 H1388 0.950 . S
C1396 C1397 1.386 . S
C1396 C1398 1.391 . S
C1397 C1396 1.386 . S
C1397 C1401 1.393 . S
C1398 H1390 0.950 . S
C1398 C1396 1.391 . S
C1398 C1399 1.400 . S
C1399 C1398 1.400 . S
C1399 C1400 1.398 . S
C1399 C1405 1.491 . S
C1400 H1391 0.950 . S
C1400 C1399 1.398 . S
C1400 C1401 1.391 . S
C1401 H1389 0.950 . S
C1401 C1397 1.393 . S
C1401 C1400 1.391 . S
C1402 H1392 0.950 . S
C1402 C1403 1.386 . S
C1402 C1404 1.391 . S
C1403 C1402 1.386 . S
C1403 C1407 1.393 . S
C1404 H1393 0.950 . S
C1404 C1402 1.391 . S
C1404 C1405 1.400 . S
C1405 C1399 1.491 . S
C1405 C1404 1.400 . S
C1405 C1406 1.398 . S
C1406 H1394 0.950 . S
C1406 C1405 1.398 . S
C1406 C1407 1.391 . S
C1407 H1395 0.950 . S
C1407 C1403 1.393 . S
C1407 C1406 1.391 . S
H1408 C1416 0.950 . S
H1409 C1421 0.950 . S
H1410 C1418 0.950 . S
H1411 C1420 0.950 . S
H1412 C1422 0.950 . S
H1413 C1424 0.950 . S
H1414 C1426 0.950 . S
H1415 C1427 0.950 . S
C1416 H1408 0.950 . S
C1416 C1417 1.386 . S
C1416 C1418 1.391 . S
C1417 C1416 1.386 . S
C1417 C1421 1.393 . S
C1418 H1410 0.950 . S
C1418 C1416 1.391 . S
C1418 C1419 1.400 . S
C1419 C1418 1.400 . S
C1419 C1420 1.398 . S
C1419 C1425 1.491 . S
C1420 H1411 0.950 . S
C1420 C1419 1.398 . S
C1420 C1421 1.391 . S
C1421 H1409 0.950 . S
C1421 C1417 1.393 . S
C1421 C1420 1.391 . S
C1422 H1412 0.950 . S
C1422 C1423 1.386 . S
C1422 C1424 1.391 . S
C1423 C1422 1.386 . S
C1423 C1427 1.393 . S
C1424 H1413 0.950 . S
C1424 C1422 1.391 . S
C1424 C1425 1.400 . S
C1425 C1419 1.491 . S
C1425 C1424 1.400 . S
C1425 C1426 1.398 . S
C1426 H1414 0.950 . S
C1426 C1425 1.398 . S
C1426 C1427 1.391 . S
C1427 H1415 0.950 . S
C1427 C1423 1.393 . S
C1427 C1426 1.391 . S
H1428 C1436 0.950 . S
H1429 C1441 0.950 . S
H1430 C1438 0.950 . S
H1431 C1440 0.950 . S
H1432 C1442 0.950 . S
H1433 C1444 0.950 . S
H1434 C1446 0.950 . S
H1435 C1447 0.950 . S
C1436 H1428 0.950 . S
C1436 C1437 1.386 . S
C1436 C1438 1.391 . S
C1437 C1436 1.386 . S
C1437 C1441 1.393 . S
C1438 H1430 0.950 . S
C1438 C1436 1.391 . S
C1438 C1439 1.400 . S
C1439 C1438 1.400 . S
C1439 C1440 1.398 . S
C1439 C1445 1.491 . S
C1440 H1431 0.950 . S
C1440 C1439 1.398 . S
C1440 C1441 1.391 . S
C1441 H1429 0.950 . S
C1441 C1437 1.393 . S
C1441 C1440 1.391 . S
C1442 H1432 0.950 . S
C1442 C1443 1.386 . S
C1442 C1444 1.391 . S
C1443 C1442 1.386 . S
C1443 C1447 1.393 . S
C1444 H1433 0.950 . S
C1444 C1442 1.391 . S
C1444 C1445 1.400 . S
C1445 C1439 1.491 . S
C1445 C1444 1.400 . S
C1445 C1446 1.398 . S
C1446 H1434 0.950 . S
C1446 C1445 1.398 . S
C1446 C1447 1.391 . S
C1447 H1435 0.950 . S
C1447 C1443 1.393 . S
C1447 C1446 1.391 . S
H1448 C1456 0.950 . S
H1449 C1461 0.950 . S
H1450 C1458 0.950 . S
H1451 C1460 0.950 . S
H1452 C1462 0.950 . S
H1453 C1464 0.950 . S
H1454 C1466 0.950 . S
H1455 C1467 0.950 . S
C1456 H1448 0.950 . S
C1456 C1457 1.386 . S
C1456 C1458 1.391 . S
C1457 C1456 1.386 . S
C1457 C1461 1.393 . S
C1458 H1450 0.950 . S
C1458 C1456 1.391 . S
C1458 C1459 1.400 . S
C1459 C1458 1.400 . S
C1459 C1460 1.398 . S
C1459 C1465 1.491 . S
C1460 H1451 0.950 . S
C1460 C1459 1.398 . S
C1460 C1461 1.391 . S
C1461 H1449 0.950 . S
C1461 C1457 1.393 . S
C1461 C1460 1.391 . S
C1462 H1452 0.950 . S
C1462 C1463 1.386 . S
C1462 C1464 1.391 . S
C1463 C1462 1.386 . S
C1463 C1467 1.393 . S
C1464 H1453 0.950 . S
C1464 C1462 1.391 . S
C1464 C1465 1.400 . S
C1465 C1459 1.491 . S
C1465 C1464 1.400 . S
C1465 C1466 1.398 . S
C1466 H1454 0.950 . S
C1466 C1465 1.398 . S
C1466 C1467 1.391 . S
C1467 H1455 0.950 . S
C1467 C1463 1.393 . S
C1467 C1466 1.391 . S
H1468 C1476 0.950 . S
H1469 C1481 0.950 . S
H1470 C1478 0.950 . S
H1471 C1480 0.950 . S
H1472 C1482 0.950 . S
H1473 C1484 0.950 . S
H1474 C1486 0.950 . S
H1475 C1487 0.950 . S
C1476 H1468 0.950 . S
C1476 C1477 1.386 . S
C1476 C1478 1.391 . S
C1477 C1476 1.386 . S
C1477 C1481 1.393 . S
C1478 H1470 0.950 . S
C1478 C1476 1.391 . S
C1478 C1479 1.400 . S
C1479 C1478 1.400 . S
C1479 C1480 1.398 . S
C1479 C1485 1.491 . S
C1480 H1471 0.950 . S
C1480 C1479 1.398 . S
C1480 C1481 1.391 . S
C1481 H1469 0.950 . S
C1481 C1477 1.393 . S
C1481 C1480 1.391 . S
C1482 H1472 0.950 . S
C1482 C1483 1.386 . S
C1482 C1484 1.391 . S
C1483 C1482 1.386 . S
C1483 C1487 1.393 . S
C1484 H1473 0.950 . S
C1484 C1482 1.391 . S
C1484 C1485 1.400 . S
C1485 C1479 1.491 . S
C1485 C1484 1.400 . S
C1485 C1486 1.398 . S
C1486 H1474 0.950 . S
C1486 C1485 1.398 . S
C1486 C1487 1.391 . S
C1487 H1475 0.950 . S
C1487 C1483 1.393 . S
C1487 C1486 1.391 . S
H1488 C1496 0.950 . S
H1489 C1501 0.950 . S
H1490 C1498 0.950 . S
H1491 C1500 0.950 . S
H1492 C1502 0.950 . S
H1493 C1504 0.950 . S
H1494 C1506 0.950 . S
H1495 C1507 0.950 . S
C1496 H1488 0.950 . S
C1496 C1497 1.386 . S
C1496 C1498 1.391 . S
C1497 C1496 1.386 . S
C1497 C1501 1.393 . S
C1498 H1490 0.950 . S
C1498 C1496 1.391 . S
C1498 C1499 1.400 . S
C1499 C1498 1.400 . S
C1499 C1500 1.398 . S
C1499 C1505 1.491 . S
C1500 H1491 0.950 . S
C1500 C1499 1.398 . S
C1500 C1501 1.391 . S
C1501 H1489 0.950 . S
C1501 C1497 1.393 . S
C1501 C1500 1.391 . S
C1502 H1492 0.950 . S
C1502 C1503 1.386 . S
C1502 C1504 1.391 . S
C1503 C1502 1.386 . S
C1503 C1507 1.393 . S
C1504 H1493 0.950 . S
C1504 C1502 1.391 . S
C1504 C1505 1.400 . S
C1505 C1499 1.491 . S
C1505 C1504 1.400 . S
C1505 C1506 1.398 . S
C1506 H1494 0.950 . S
C1506 C1505 1.398 . S
C1506 C1507 1.391 . S
C1507 H1495 0.950 . S
C1507 C1503 1.393 . S
C1507 C1506 1.391 . S
H1508 C1516 0.950 . S
H1509 C1521 0.950 . S
H1510 C1518 0.950 . S
H1511 C1520 0.950 . S
H1512 C1522 0.950 . S
H1513 C1524 0.950 . S
H1514 C1526 0.950 . S
H1515 C1527 0.950 . S
C1516 H1508 0.950 . S
C1516 C1517 1.386 . S
C1516 C1518 1.391 . S
C1517 C1516 1.386 . S
C1517 C1521 1.393 . S
C1518 H1510 0.950 . S
C1518 C1516 1.391 . S
C1518 C1519 1.400 . S
C1519 C1518 1.400 . S
C1519 C1520 1.398 . S
C1519 C1525 1.491 . S
C1520 H1511 0.950 . S
C1520 C1519 1.398 . S
C1520 C1521 1.391 . S
C1521 H1509 0.950 . S
C1521 C1517 1.393 . S
C1521 C1520 1.391 . S
C1522 H1512 0.950 . S
C1522 C1523 1.386 . S
C1522 C1524 1.391 . S
C1523 C1522 1.386 . S
C1523 C1527 1.393 . S
C1524 H1513 0.950 . S
C1524 C1522 1.391 . S
C1524 C1525 1.400 . S
C1525 C1519 1.491 . S
C1525 C1524 1.400 . S
C1525 C1526 1.398 . S
C1526 H1514 0.950 . S
C1526 C1525 1.398 . S
C1526 C1527 1.391 . S
C1527 H1515 0.950 . S
C1527 C1523 1.393 . S
C1527 C1526 1.391 . S
H1528 C1536 0.950 . S
H1529 C1541 0.950 . S
H1530 C1538 0.950 . S
H1531 C1540 0.950 . S
H1532 C1542 0.950 . S
H1533 C1544 0.950 . S
H1534 C1546 0.950 . S
H1535 C1547 0.950 . S
C1536 H1528 0.950 . S
C1536 C1537 1.386 . S
C1536 C1538 1.391 . S
C1537 C1536 1.386 . S
C1537 C1541 1.393 . S
C1538 H1530 0.950 . S
C1538 C1536 1.391 . S
C1538 C1539 1.400 . S
C1539 C1538 1.400 . S
C1539 C1540 1.398 . S
C1539 C1545 1.491 . S
C1540 H1531 0.950 . S
C1540 C1539 1.398 . S
C1540 C1541 1.391 . S
C1541 H1529 0.950 . S
C1541 C1537 1.393 . S
C1541 C1540 1.391 . S
C1542 H1532 0.950 . S
C1542 C1543 1.386 . S
C1542 C1544 1.391 . S
C1543 C1542 1.386 . S
C1543 C1547 1.393 . S
C1544 H1533 0.950 . S
C1544 C1542 1.391 . S
C1544 C1545 1.400 . S
C1545 C1539 1.491 . S
C1545 C1544 1.400 . S
C1545 C1546 1.398 . S
C1546 H1534 0.950 . S
C1546 C1545 1.398 . S
C1546 C1547 1.391 . S
C1547 H1535 0.950 . S
C1547 C1543 1.393 . S
C1547 C1546 1.391 . S
H1548 C1556 0.950 . S
H1549 C1561 0.950 . S
H1550 C1558 0.950 . S
H1551 C1560 0.950 . S
H1552 C1562 0.950 . S
H1553 C1564 0.950 . S
H1554 C1566 0.950 . S
H1555 C1567 0.950 . S
C1556 H1548 0.950 . S
C1556 C1557 1.386 . S
C1556 C1558 1.391 . S
C1557 C1556 1.386 . S
C1557 C1561 1.393 . S
C1558 H1550 0.950 . S
C1558 C1556 1.391 . S
C1558 C1559 1.400 . S
C1559 C1558 1.400 . S
C1559 C1560 1.398 . S
C1559 C1565 1.491 . S
C1560 H1551 0.950 . S
C1560 C1559 1.398 . S
C1560 C1561 1.391 . S
C1561 H1549 0.950 . S
C1561 C1557 1.393 . S
C1561 C1560 1.391 . S
C1562 H1552 0.950 . S
C1562 C1563 1.386 . S
C1562 C1564 1.391 . S
C1563 C1562 1.386 . S
C1563 C1567 1.393 . S
C1564 H1553 0.950 . S
C1564 C1562 1.391 . S
C1564 C1565 1.400 . S
C1565 C1559 1.491 . S
C1565 C1564 1.400 . S
C1565 C1566 1.398 . S
C1566 H1554 0.950 . S
C1566 C1565 1.398 . S
C1566 C1567 1.391 . S
C1567 H1555 0.950 . S
C1567 C1563 1.393 . S
C1567 C1566 1.391 . S
H1568 C1576 0.950 . S
H1569 C1581 0.950 . S
H1570 C1578 0.950 . S
H1571 C1580 0.950 . S
H1572 C1582 0.950 . S
H1573 C1584 0.950 . S
H1574 C1586 0.950 . S
H1575 C1587 0.950 . S
C1576 H1568 0.950 . S
C1576 C1577 1.386 . S
C1576 C1578 1.391 . S
C1577 C1576 1.386 . S
C1577 C1581 1.393 . S
C1578 H1570 0.950 . S
C1578 C1576 1.391 . S
C1578 C1579 1.400 . S
C1579 C1578 1.400 . S
C1579 C1580 1.398 . S
C1579 C1585 1.491 . S
C1580 H1571 0.950 . S
C1580 C1579 1.398 . S
C1580 C1581 1.391 . S
C1581 H1569 0.950 . S
C1581 C1577 1.393 . S
C1581 C1580 1.391 . S
C1582 H1572 0.950 . S
C1582 C1583 1.386 . S
C1582 C1584 1.391 . S
C1583 C1582 1.386 . S
C1583 C1587 1.393 . S
C1584 H1573 0.950 . S
C1584 C1582 1.391 . S
C1584 C1585 1.400 . S
C1585 C1579 1.491 . S
C1585 C1584 1.400 . S
C1585 C1586 1.398 . S
C1586 H1574 0.950 . S
C1586 C1585 1.398 . S
C1586 C1587 1.391 . S
C1587 H1575 0.950 . S
C1587 C1583 1.393 . S
C1587 C1586 1.391 . S
H1588 C1596 0.950 . S
H1589 C1601 0.950 . S
H1590 C1598 0.950 . S
H1591 C1600 0.950 . S
H1592 C1602 0.950 . S
H1593 C1604 0.950 . S
H1594 C1606 0.950 . S
H1595 C1607 0.950 . S
C1596 H1588 0.950 . S
C1596 C1597 1.386 . S
C1596 C1598 1.391 . S
C1597 C1596 1.386 . S
C1597 C1601 1.393 . S
C1598 H1590 0.950 . S
C1598 C1596 1.391 . S
C1598 C1599 1.400 . S
C1599 C1598 1.400 . S
C1599 C1600 1.398 . S
C1599 C1605 1.491 . S
C1600 H1591 0.950 . S
C1600 C1599 1.398 . S
C1600 C1601 1.391 . S
C1601 H1589 0.950 . S
C1601 C1597 1.393 . S
C1601 C1600 1.391 . S
C1602 H1592 0.950 . S
C1602 C1603 1.386 . S
C1602 C1604 1.391 . S
C1603 C1602 1.386 . S
C1603 C1607 1.393 . S
C1604 H1593 0.950 . S
C1604 C1602 1.391 . S
C1604 C1605 1.400 . S
C1605 C1599 1.491 . S
C1605 C1604 1.400 . S
C1605 C1606 1.398 . S
C1606 H1594 0.950 . S
C1606 C1605 1.398 . S
C1606 C1607 1.391 . S
C1607 H1595 0.950 . S
C1607 C1603 1.393 . S
C1607 C1606 1.391 . S
H1608 C1616 0.950 . S
H1609 C1621 0.950 . S
H1610 C1618 0.950 . S
H1611 C1620 0.950 . S
H1612 C1622 0.950 . S
H1613 C1624 0.950 . S
H1614 C1626 0.950 . S
H1615 C1627 0.950 . S
C1616 H1608 0.950 . S
C1616 C1617 1.386 . S
C1616 C1618 1.391 . S
C1617 C1616 1.386 . S
C1617 C1621 1.393 . S
C1618 H1610 0.950 . S
C1618 C1616 1.391 . S
C1618 C1619 1.400 . S
C1619 C1618 1.400 . S
C1619 C1620 1.398 . S
C1619 C1625 1.491 . S
C1620 H1611 0.950 . S
C1620 C1619 1.398 . S
C1620 C1621 1.391 . S
C1621 H1609 0.950 . S
C1621 C1617 1.393 . S
C1621 C1620 1.391 . S
C1622 H1612 0.950 . S
C1622 C1623 1.386 . S
C1622 C1624 1.391 . S
C1623 C1622 1.386 . S
C1623 C1627 1.393 . S
C1624 H1613 0.950 . S
C1624 C1622 1.391 . S
C1624 C1625 1.400 . S
C1625 C1619 1.491 . S
C1625 C1624 1.400 . S
C1625 C1626 1.398 . S
C1626 H1614 0.950 . S
C1626 C1625 1.398 . S
C1626 C1627 1.391 . S
C1627 H1615 0.950 . S
C1627 C1623 1.393 . S
C1627 C1626 1.391 . S
H1628 C1636 0.950 . S
H1629 C1641 0.950 . S
H1630 C1638 0.950 . S
H1631 C1640 0.950 . S
H1632 C1642 0.950 . S
H1633 C1644 0.950 . S
H1634 C1646 0.950 . S
H1635 C1647 0.950 . S
C1636 H1628 0.950 . S
C1636 C1637 1.386 . S
C1636 C1638 1.391 . S
C1637 C1636 1.386 . S
C1637 C1641 1.393 . S
C1638 H1630 0.950 . S
C1638 C1636 1.391 . S
C1638 C1639 1.400 . S
C1639 C1638 1.400 . S
C1639 C1640 1.398 . S
C1639 C1645 1.491 . S
C1640 H1631 0.950 . S
C1640 C1639 1.398 . S
C1640 C1641 1.391 . S
C1641 H1629 0.950 . S
C1641 C1637 1.393 . S
C1641 C1640 1.391 . S
C1642 H1632 0.950 . S
C1642 C1643 1.386 . S
C1642 C1644 1.391 . S
C1643 C1642 1.386 . S
C1643 C1647 1.393 . S
C1644 H1633 0.950 . S
C1644 C1642 1.391 . S
C1644 C1645 1.400 . S
C1645 C1639 1.491 . S
C1645 C1644 1.400 . S
C1645 C1646 1.398 . S
C1646 H1634 0.950 . S
C1646 C1645 1.398 . S
C1646 C1647 1.391 . S
C1647 H1635 0.950 . S
C1647 C1643 1.393 . S
C1647 C1646 1.391 . S
H1648 C1656 0.950 . S
H1649 C1661 0.950 . S
H1650 C1658 0.950 . S
H1651 C1660 0.950 . S
H1652 C1662 0.950 . S
H1653 C1664 0.950 . S
H1654 C1666 0.950 . S
H1655 C1667 0.950 . S
C1656 H1648 0.950 . S
C1656 C1657 1.386 . S
C1656 C1658 1.391 . S
C1657 C1656 1.386 . S
C1657 C1661 1.393 . S
C1658 H1650 0.950 . S
C1658 C1656 1.391 . S
C1658 C1659 1.400 . S
C1659 C1658 1.400 . S
C1659 C1660 1.398 . S
C1659 C1665 1.491 . S
C1660 H1651 0.950 . S
C1660 C1659 1.398 . S
C1660 C1661 1.391 . S
C1661 H1649 0.950 . S
C1661 C1657 1.393 . S
C1661 C1660 1.391 . S
C1662 H1652 0.950 . S
C1662 C1663 1.386 . S
C1662 C1664 1.391 . S
C1663 C1662 1.386 . S
C1663 C1667 1.393 . S
C1664 H1653 0.950 . S
C1664 C1662 1.391 . S
C1664 C1665 1.400 . S
C1665 C1659 1.491 . S
C1665 C1664 1.400 . S
C1665 C1666 1.398 . S
C1666 H1654 0.950 . S
C1666 C1665 1.398 . S
C1666 C1667 1.391 . S
C1667 H1655 0.950 . S
C1667 C1663 1.393 . S
C1667 C1666 1.391 . S
H1668 C1676 0.950 . S
H1669 C1681 0.950 . S
H1670 C1678 0.950 . S
H1671 C1680 0.950 . S
H1672 C1682 0.950 . S
H1673 C1684 0.950 . S
H1674 C1686 0.950 . S
H1675 C1687 0.950 . S
C1676 H1668 0.950 . S
C1676 C1677 1.386 . S
C1676 C1678 1.391 . S
C1677 C1676 1.386 . S
C1677 C1681 1.393 . S
C1678 H1670 0.950 . S
C1678 C1676 1.391 . S
C1678 C1679 1.400 . S
C1679 C1678 1.400 . S
C1679 C1680 1.398 . S
C1679 C1685 1.491 . S
C1680 H1671 0.950 . S
C1680 C1679 1.398 . S
C1680 C1681 1.391 . S
C1681 H1669 0.950 . S
C1681 C1677 1.393 . S
C1681 C1680 1.391 . S
C1682 H1672 0.950 . S
C1682 C1683 1.386 . S
C1682 C1684 1.391 . S
C1683 C1682 1.386 . S
C1683 C1687 1.393 . S
C1684 H1673 0.950 . S
C1684 C1682 1.391 . S
C1684 C1685 1.400 . S
C1685 C1679 1.491 . S
C1685 C1684 1.400 . S
C1685 C1686 1.398 . S
C1686 H1674 0.950 . S
C1686 C1685 1.398 . S
C1686 C1687 1.391 . S
C1687 H1675 0.950 . S
C1687 C1683 1.393 . S
C1687 C1686 1.391 . S
H1688 C1696 0.950 . S
H1689 C1701 0.950 . S
H1690 C1698 0.950 . S
H1691 C1700 0.950 . S
H1692 C1702 0.950 . S
H1693 C1704 0.950 . S
H1694 C1706 0.950 . S
H1695 C1707 0.950 . S
C1696 H1688 0.950 . S
C1696 C1697 1.386 . S
C1696 C1698 1.391 . S
C1697 C1696 1.386 . S
C1697 C1701 1.393 . S
C1698 H1690 0.950 . S
C1698 C1696 1.391 . S
C1698 C1699 1.400 . S
C1699 C1698 1.400 . S
C1699 C1700 1.398 . S
C1699 C1705 1.491 . S
C1700 H1691 0.950 . S
C1700 C1699 1.398 . S
C1700 C1701 1.391 . S
C1701 H1689 0.950 . S
C1701 C1697 1.393 . S
C1701 C1700 1.391 . S
C1702 H1692 0.950 . S
C1702 C1703 1.386 . S
C1702 C1704 1.391 . S
C1703 C1702 1.386 . S
C1703 C1707 1.393 . S
C1704 H1693 0.950 . S
C1704 C1702 1.391 . S
C1704 C1705 1.400 . S
C1705 C1699 1.491 . S
C1705 C1704 1.400 . S
C1705 C1706 1.398 . S
C1706 H1694 0.950 . S
C1706 C1705 1.398 . S
C1706 C1707 1.391 . S
C1707 H1695 0.950 . S
C1707 C1703 1.393 . S
C1707 C1706 1.391 . S
H1708 C1716 0.950 . S
H1709 C1721 0.950 . S
H1710 C1718 0.950 . S
H1711 C1720 0.950 . S
H1712 C1722 0.950 . S
H1713 C1724 0.950 . S
H1714 C1726 0.950 . S
H1715 C1727 0.950 . S
C1716 H1708 0.950 . S
C1716 C1717 1.386 . S
C1716 C1718 1.391 . S
C1717 C1716 1.386 . S
C1717 C1721 1.393 . S
C1718 H1710 0.950 . S
C1718 C1716 1.391 . S
C1718 C1719 1.400 . S
C1719 C1718 1.400 . S
C1719 C1720 1.398 . S
C1719 C1725 1.491 . S
C1720 H1711 0.950 . S
C1720 C1719 1.398 . S
C1720 C1721 1.391 . S
C1721 H1709 0.950 . S
C1721 C1717 1.393 . S
C1721 C1720 1.391 . S
C1722 H1712 0.950 . S
C1722 C1723 1.386 . S
C1722 C1724 1.391 . S
C1723 C1722 1.386 . S
C1723 C1727 1.393 . S
C1724 H1713 0.950 . S
C1724 C1722 1.391 . S
C1724 C1725 1.400 . S
C1725 C1719 1.491 . S
C1725 C1724 1.400 . S
C1725 C1726 1.398 . S
C1726 H1714 0.950 . S
C1726 C1725 1.398 . S
C1726 C1727 1.391 . S
C1727 H1715 0.950 . S
C1727 C1723 1.393 . S
C1727 C1726 1.391 . S
H1728 C1736 0.950 . S
H1729 C1741 0.950 . S
H1730 C1738 0.950 . S
H1731 C1740 0.950 . S
H1732 C1742 0.950 . S
H1733 C1744 0.950 . S
H1734 C1746 0.950 . S
H1735 C1747 0.950 . S
C1736 H1728 0.950 . S
C1736 C1737 1.386 . S
C1736 C1738 1.391 . S
C1737 C1736 1.386 . S
C1737 C1741 1.393 . S
C1738 H1730 0.950 . S
C1738 C1736 1.391 . S
C1738 C1739 1.400 . S
C1739 C1738 1.400 . S
C1739 C1740 1.398 . S
C1739 C1745 1.491 . S
C1740 H1731 0.950 . S
C1740 C1739 1.398 . S
C1740 C1741 1.391 . S
C1741 H1729 0.950 . S
C1741 C1737 1.393 . S
C1741 C1740 1.391 . S
C1742 H1732 0.950 . S
C1742 C1743 1.386 . S
C1742 C1744 1.391 . S
C1743 C1742 1.386 . S
C1743 C1747 1.393 . S
C1744 H1733 0.950 . S
C1744 C1742 1.391 . S
C1744 C1745 1.400 . S
C1745 C1739 1.491 . S
C1745 C1744 1.400 . S
C1745 C1746 1.398 . S
C1746 H1734 0.950 . S
C1746 C1745 1.398 . S
C1746 C1747 1.391 . S
C1747 H1735 0.950 . S
C1747 C1743 1.393 . S
C1747 C1746 1.391 . S
H1748 C1756 0.950 . S
H1749 C1761 0.950 . S
H1750 C1758 0.950 . S
H1751 C1760 0.950 . S
H1752 C1762 0.950 . S
H1753 C1764 0.950 . S
H1754 C1766 0.950 . S
H1755 C1767 0.950 . S
C1756 H1748 0.950 . S
C1756 C1757 1.386 . S
C1756 C1758 1.391 . S
C1757 C1756 1.386 . S
C1757 C1761 1.393 . S
C1758 H1750 0.950 . S
C1758 C1756 1.391 . S
C1758 C1759 1.400 . S
C1759 C1758 1.400 . S
C1759 C1760 1.398 . S
C1759 C1765 1.491 . S
C1760 H1751 0.950 . S
C1760 C1759 1.398 . S
C1760 C1761 1.391 . S
C1761 H1749 0.950 . S
C1761 C1757 1.393 . S
C1761 C1760 1.391 . S
C1762 H1752 0.950 . S
C1762 C1763 1.386 . S
C1762 C1764 1.391 . S
C1763 C1762 1.386 . S
C1763 C1767 1.393 . S
C1764 H1753 0.950 . S
C1764 C1762 1.391 . S
C1764 C1765 1.400 . S
C1765 C1759 1.491 . S
C1765 C1764 1.400 . S
C1765 C1766 1.398 . S
C1766 H1754 0.950 . S
C1766 C1765 1.398 . S
C1766 C1767 1.391 . S
C1767 H1755 0.950 . S
C1767 C1763 1.393 . S
C1767 C1766 1.391 . S
H1768 C1776 0.950 . S
H1769 C1781 0.950 . S
H1770 C1778 0.950 . S
H1771 C1780 0.950 . S
H1772 C1782 0.950 . S
H1773 C1784 0.950 . S
H1774 C1786 0.950 . S
H1775 C1787 0.950 . S
C1776 H1768 0.950 . S
C1776 C1777 1.386 . S
C1776 C1778 1.391 . S
C1777 C1776 1.386 . S
C1777 C1781 1.393 . S
C1778 H1770 0.950 . S
C1778 C1776 1.391 . S
C1778 C1779 1.400 . S
C1779 C1778 1.400 . S
C1779 C1780 1.398 . S
C1779 C1785 1.491 . S
C1780 H1771 0.950 . S
C1780 C1779 1.398 . S
C1780 C1781 1.391 . S
C1781 H1769 0.950 . S
C1781 C1777 1.393 . S
C1781 C1780 1.391 . S
C1782 H1772 0.950 . S
C1782 C1783 1.386 . S
C1782 C1784 1.391 . S
C1783 C1782 1.386 . S
C1783 C1787 1.393 . S
C1784 H1773 0.950 . S
C1784 C1782 1.391 . S
C1784 C1785 1.400 . S
C1785 C1779 1.491 . S
C1785 C1784 1.400 . S
C1785 C1786 1.398 . S
C1786 H1774 0.950 . S
C1786 C1785 1.398 . S
C1786 C1787 1.391 . S
C1787 H1775 0.950 . S
C1787 C1783 1.393 . S
C1787 C1786 1.391 . S
H1788 C1796 0.950 . S
H1789 C1801 0.950 . S
H1790 C1798 0.950 . S
H1791 C1800 0.950 . S
H1792 C1802 0.950 . S
H1793 C1804 0.950 . S
H1794 C1806 0.950 . S
H1795 C1807 0.950 . S
C1796 H1788 0.950 . S
C1796 C1797 1.386 . S
C1796 C1798 1.391 . S
C1797 C1796 1.386 . S
C1797 C1801 1.393 . S
C1798 H1790 0.950 . S
C1798 C1796 1.391 . S
C1798 C1799 1.400 . S
C1799 C1798 1.400 . S
C1799 C1800 1.398 . S
C1799 C1805 1.491 . S
C1800 H1791 0.950 . S
C1800 C1799 1.398 . S
C1800 C1801 1.391 . S
C1801 H1789 0.950 . S
C1801 C1797 1.393 . S
C1801 C1800 1.391 . S
C1802 H1792 0.950 . S
C1802 C1803 1.386 . S
C1802 C1804 1.391 . S
C1803 C1802 1.386 . S
C1803 C1807 1.393 . S
C1804 H1793 0.950 . S
C1804 C1802 1.391 . S
C1804 C1805 1.400 . S
C1805 C1799 1.491 . S
C1805 C1804 1.400 . S
C1805 C1806 1.398 . S
C1806 H1794 0.950 . S
C1806 C1805 1.398 . S
C1806 C1807 1.391 . S
C1807 H1795 0.950 . S
C1807 C1803 1.393 . S
C1807 C1806 1.391 . S
H1808 C1816 0.950 1_565 S
H1809 C1821 0.950 . S
H1810 C1818 0.950 . S
H1811 C1820 0.950 . S
H1812 C1822 0.950 1_545 S
H1813 C1824 0.950 . S
H1814 C1826 0.950 . S
H1815 C1827 0.950 . S
C1816 H1808 0.950 1_545 S
C1816 C1817 1.386 . S
C1816 C1818 1.391 1_545 S
C1817 C1816 1.386 . S
C1817 C1821 1.393 . S
C1818 H1810 0.950 . S
C1818 C1816 1.391 1_565 S
C1818 C1819 1.400 1_565 S
C1819 C1818 1.400 1_545 S
C1819 C1820 1.398 . S
C1819 C1825 1.491 1_545 S
C1820 H1811 0.950 . S
C1820 C1819 1.398 . S
C1820 C1821 1.391 . S
C1821 H1809 0.950 . S
C1821 C1817 1.393 . S
C1821 C1820 1.391 . S
C1822 H1812 0.950 1_565 S
C1822 C1823 1.386 . S
C1822 C1824 1.391 1_565 S
C1823 C1822 1.386 . S
C1823 C1827 1.393 . S
C1824 H1813 0.950 . S
C1824 C1822 1.391 1_545 S
C1824 C1825 1.400 1_545 S
C1825 C1819 1.491 1_565 S
C1825 C1824 1.400 1_565 S
C1825 C1826 1.398 . S
C1826 H1814 0.950 . S
C1826 C1825 1.398 . S
C1826 C1827 1.391 . S
C1827 H1815 0.950 . S
C1827 C1823 1.393 . S
C1827 C1826 1.391 . S
H1828 C1836 0.950 . S
H1829 C1841 0.930 1_655 S
H1830 C1838 0.950 . S
H1831 C1840 0.950 . S
H1832 C1842 0.950 . S
H1833 C1844 0.950 . S
H1834 C1846 0.950 . S
H1835 C1847 0.930 1_455 S
C1836 H1828 0.950 . S
C1836 C1837 1.386 . S
C1836 C1838 1.391 . S
C1837 C1836 1.386 . S
C1837 C1841 1.429 . S
C1838 H1830 0.950 . S
C1838 C1836 1.391 . S
C1838 C1839 1.400 . S
C1839 C1838 1.400 . S
C1839 C1840 1.398 1_455 S
C1839 C1845 1.491 1_455 S
C1840 H1831 0.950 . S
C1840 C1839 1.398 1_655 S
C1840 C1841 1.376 1_655 S
C1841 H1829 0.930 1_455 S
C1841 C1837 1.429 . S
C1841 C1840 1.376 1_455 S
C1842 H1832 0.950 . S
C1842 C1843 1.386 . S
C1842 C1844 1.391 . S
C1843 C1842 1.386 . S
C1843 C1847 1.428 . S
C1844 H1833 0.950 . S
C1844 C1842 1.391 . S
C1844 C1845 1.400 . S
C1845 C1839 1.491 1_655 S
C1845 C1844 1.400 . S
C1845 C1846 1.398 1_655 S
C1846 H1834 0.950 . S
C1846 C1845 1.398 1_455 S
C1846 C1847 1.376 1_455 S
C1847 H1835 0.930 1_655 S
C1847 C1843 1.428 . S
C1847 C1846 1.376 1_655 S
H1848 C1856 0.950 . S
H1849 C1861 0.950 . S
H1850 C1858 0.950 . S
H1851 C1860 0.950 . S
H1852 C1862 0.950 . S
H1853 C1864 0.950 . S
H1854 C1866 0.950 . S
H1855 C1867 0.950 . S
C1856 H1848 0.950 . S
C1856 C1857 1.386 . S
C1856 C1858 1.391 . S
C1857 C1856 1.386 . S
C1857 C1861 1.393 . S
C1858 H1850 0.950 . S
C1858 C1856 1.391 . S
C1858 C1859 1.400 . S
C1859 C1858 1.400 . S
C1859 C1860 1.398 . S
C1859 C1865 1.491 . S
C1860 H1851 0.950 . S
C1860 C1859 1.398 . S
C1860 C1861 1.391 . S
C1861 H1849 0.950 . S
C1861 C1857 1.393 . S
C1861 C1860 1.391 . S
C1862 H1852 0.950 . S
C1862 C1863 1.386 . S
C1862 C1864 1.391 . S
C1863 C1862 1.386 . S
C1863 C1867 1.393 . S
C1864 H1853 0.950 . S
C1864 C1862 1.391 . S
C1864 C1865 1.400 . S
C1865 C1859 1.491 . S
C1865 C1864 1.400 . S
C1865 C1866 1.398 . S
C1866 H1854 0.950 . S
C1866 C1865 1.398 . S
C1866 C1867 1.391 . S
C1867 H1855 0.950 . S
C1867 C1863 1.393 . S
C1867 C1866 1.391 . S
H1868 C1876 0.950 . S
H1869 C1881 0.950 1_545 S
H1870 C1878 0.950 . S
H1871 C1880 0.950 . S
H1872 C1882 0.950 . S
H1873 C1884 0.950 . S
H1874 C1886 0.950 . S
H1875 C1887 0.950 1_565 S
C1876 H1868 0.950 . S
C1876 C1877 1.386 . S
C1876 C1878 1.391 . S
C1877 C1876 1.386 . S
C1877 C1881 1.393 . S
C1878 H1870 0.950 . S
C1878 C1876 1.391 . S
C1878 C1879 1.400 . S
C1879 C1878 1.400 . S
C1879 C1880 1.398 1_565 S
C1879 C1885 1.491 1_565 S
C1880 H1871 0.950 . S
C1880 C1879 1.398 1_545 S
C1880 C1881 1.391 1_545 S
C1881 H1869 0.950 1_565 S
C1881 C1877 1.393 . S
C1881 C1880 1.391 1_565 S
C1882 H1872 0.950 . S
C1882 C1883 1.386 . S
C1882 C1884 1.391 . S
C1883 C1882 1.386 . S
C1883 C1887 1.393 . S
C1884 H1873 0.950 . S
C1884 C1882 1.391 . S
C1884 C1885 1.400 . S
C1885 C1879 1.491 1_545 S
C1885 C1884 1.400 . S
C1885 C1886 1.398 1_545 S
C1886 H1874 0.950 . S
C1886 C1885 1.398 1_565 S
C1886 C1887 1.391 1_565 S
C1887 H1875 0.950 1_545 S
C1887 C1883 1.393 . S
C1887 C1886 1.391 1_545 S
H1888 C1896 0.950 . S
H1889 C1901 0.950 . S
H1890 C1898 0.950 . S
H1891 C1900 0.950 1_655 S
H1892 C1902 0.950 . S
H1893 C1904 0.950 . S
H1894 C1906 0.950 1_455 S
H1895 C1907 0.950 . S
C1896 H1888 0.950 . S
C1896 C1897 1.386 . S
C1896 C1898 1.391 . S
C1897 C1896 1.386 . S
C1897 C1901 1.393 . S
C1898 H1890 0.950 . S
C1898 C1896 1.391 . S
C1898 C1899 1.400 . S
C1899 C1898 1.400 . S
C1899 C1900 1.398 . S
C1899 C1905 1.491 1_455 S
C1900 H1891 0.950 1_455 S
C1900 C1899 1.398 . S
C1900 C1901 1.391 . S
C1901 H1889 0.950 . S
C1901 C1897 1.393 . S
C1901 C1900 1.391 . S
C1902 H1892 0.950 . S
C1902 C1903 1.386 . S
C1902 C1904 1.391 . S
C1903 C1902 1.386 . S
C1903 C1907 1.393 . S
C1904 H1893 0.950 . S
C1904 C1902 1.391 . S
C1904 C1905 1.400 . S
C1905 C1899 1.491 1_655 S
C1905 C1904 1.400 . S
C1905 C1906 1.398 . S
C1906 H1894 0.950 1_655 S
C1906 C1905 1.398 . S
C1906 C1907 1.391 . S
C1907 H1895 0.950 . S
C1907 C1903 1.393 . S
C1907 C1906 1.391 . S
H1908 C1916 0.950 . S
H1909 C1921 0.950 . S
H1910 C1918 0.950 . S
H1911 C1920 0.950 . S
H1912 C1922 0.950 . S
H1913 C1924 0.950 . S
H1914 C1926 0.950 . S
H1915 C1927 0.950 . S
C1916 H1908 0.950 . S
C1916 C1917 1.386 . S
C1916 C1918 1.391 . S
C1917 C1916 1.386 . S
C1917 C1921 1.393 . S
C1918 H1910 0.950 . S
C1918 C1916 1.391 . S
C1918 C1919 1.400 . S
C1919 C1918 1.400 . S
C1919 C1920 1.398 . S
C1919 C1925 1.491 . S
C1920 H1911 0.950 . S
C1920 C1919 1.398 . S
C1920 C1921 1.391 . S
C1921 H1909 0.950 . S
C1921 C1917 1.393 . S
C1921 C1920 1.391 . S
C1922 H1912 0.950 . S
C1922 C1923 1.386 . S
C1922 C1924 1.391 . S
C1923 C1922 1.386 . S
C1923 C1927 1.393 . S
C1924 H1913 0.950 . S
C1924 C1922 1.391 . S
C1924 C1925 1.400 . S
C1925 C1919 1.491 . S
C1925 C1924 1.400 . S
C1925 C1926 1.398 . S
C1926 H1914 0.950 . S
C1926 C1925 1.398 . S
C1926 C1927 1.391 . S
C1927 H1915 0.950 . S
C1927 C1923 1.393 . S
C1927 C1926 1.391 . S
H1928 C1936 0.950 . S
H1929 C1941 0.950 . S
H1930 C1938 0.950 . S
H1931 C1940 0.950 . S
H1932 C1942 0.950 . S
H1933 C1944 0.950 . S
H1934 C1946 0.950 . S
H1935 C1947 0.950 . S
C1936 H1928 0.950 . S
C1936 C1937 1.386 . S
C1936 C1938 1.391 . S
C1937 C1936 1.386 . S
C1937 C1941 1.393 . S
C1938 H1930 0.950 . S
C1938 C1936 1.391 . S
C1938 C1939 1.400 . S
C1939 C1938 1.400 . S
C1939 C1940 1.398 . S
C1939 C1945 1.491 . S
C1940 H1931 0.950 . S
C1940 C1939 1.398 . S
C1940 C1941 1.391 . S
C1941 H1929 0.950 . S
C1941 C1937 1.393 . S
C1941 C1940 1.391 . S
C1942 H1932 0.950 . S
C1942 C1943 1.386 . S
C1942 C1944 1.391 . S
C1943 C1942 1.386 . S
C1943 C1947 1.393 . S
C1944 H1933 0.950 . S
C1944 C1942 1.391 . S
C1944 C1945 1.400 . S
C1945 C1939 1.491 . S
C1945 C1944 1.400 . S
C1945 C1946 1.398 . S
C1946 H1934 0.950 . S
C1946 C1945 1.398 . S
C1946 C1947 1.391 . S
C1947 H1935 0.950 . S
C1947 C1943 1.393 . S
C1947 C1946 1.391 . S
H1948 C1956 0.950 . S
H1949 C1961 0.950 . S
H1950 C1958 0.950 . S
H1951 C1960 0.950 . S
H1952 C1962 0.950 . S
H1953 C1964 0.950 . S
H1954 C1966 0.950 . S
H1955 C1967 0.950 . S
C1956 H1948 0.950 . S
C1956 C1957 1.386 . S
C1956 C1958 1.391 . S
C1957 C1956 1.386 . S
C1957 C1961 1.393 . S
C1958 H1950 0.950 . S
C1958 C1956 1.391 . S
C1958 C1959 1.400 . S
C1959 C1958 1.400 . S
C1959 C1960 1.398 . S
C1959 C1965 1.491 . S
C1960 H1951 0.950 . S
C1960 C1959 1.398 . S
C1960 C1961 1.391 . S
C1961 H1949 0.950 . S
C1961 C1957 1.393 . S
C1961 C1960 1.391 . S
C1962 H1952 0.950 . S
C1962 C1963 1.386 . S
C1962 C1964 1.391 . S
C1963 C1962 1.386 . S
C1963 C1967 1.393 . S
C1964 H1953 0.950 . S
C1964 C1962 1.391 . S
C1964 C1965 1.400 . S
C1965 C1959 1.491 . S
C1965 C1964 1.400 . S
C1965 C1966 1.398 . S
C1966 H1954 0.950 . S
C1966 C1965 1.398 . S
C1966 C1967 1.391 . S
C1967 H1955 0.950 . S
C1967 C1963 1.393 . S
C1967 C1966 1.391 . S
H1968 C1976 0.950 . S
H1969 C1981 0.950 . S
H1970 C1978 0.950 . S
H1971 C1980 0.950 . S
H1972 C1982 0.950 . S
H1973 C1984 0.950 . S
H1974 C1986 0.950 . S
H1975 C1987 0.950 . S
C1976 H1968 0.950 . S
C1976 C1977 1.386 . S
C1976 C1978 1.391 . S
C1977 C1976 1.386 . S
C1977 C1981 1.393 . S
C1978 H1970 0.950 . S
C1978 C1976 1.391 . S
C1978 C1979 1.400 . S
C1979 C1978 1.400 . S
C1979 C1980 1.398 . S
C1979 C1985 1.491 . S
C1980 H1971 0.950 . S
C1980 C1979 1.398 . S
C1980 C1981 1.391 . S
C1981 H1969 0.950 . S
C1981 C1977 1.393 . S
C1981 C1980 1.391 . S
C1982 H1972 0.950 . S
C1982 C1983 1.386 . S
C1982 C1984 1.391 . S
C1983 C1982 1.386 . S
C1983 C1987 1.393 . S
C1984 H1973 0.950 . S
C1984 C1982 1.391 . S
C1984 C1985 1.400 . S
C1985 C1979 1.491 . S
C1985 C1984 1.400 . S
C1985 C1986 1.398 . S
C1986 H1974 0.950 . S
C1986 C1985 1.398 . S
C1986 C1987 1.391 . S
C1987 H1975 0.950 . S
C1987 C1983 1.393 . S
C1987 C1986 1.391 . S
H1988 C1996 0.950 . S
H1989 C2001 0.950 . S
H1990 C1998 0.950 . S
H1991 C2000 0.950 . S
H1992 C2002 0.950 . S
H1993 C2004 0.950 . S
H1994 C2006 0.950 . S
H1995 C2007 0.950 . S
C1996 H1988 0.950 . S
C1996 C1997 1.386 . S
C1996 C1998 1.391 . S
C1997 C1996 1.386 . S
C1997 C2001 1.393 . S
C1998 H1990 0.950 . S
C1998 C1996 1.391 . S
C1998 C1999 1.400 . S
C1999 C1998 1.400 . S
C1999 C2000 1.398 . S
C1999 C2005 1.491 . S
C2000 H1991 0.950 . S
C2000 C1999 1.398 . S
C2000 C2001 1.391 . S
C2001 H1989 0.950 . S
C2001 C1997 1.393 . S
C2001 C2000 1.391 . S
C2002 H1992 0.950 . S
C2002 C2003 1.386 . S
C2002 C2004 1.391 . S
C2003 C2002 1.386 . S
C2003 C2007 1.393 . S
C2004 H1993 0.950 . S
C2004 C2002 1.391 . S
C2004 C2005 1.400 . S
C2005 C1999 1.491 . S
C2005 C2004 1.400 . S
C2005 C2006 1.398 . S
C2006 H1994 0.950 . S
C2006 C2005 1.398 . S
C2006 C2007 1.391 . S
C2007 H1995 0.950 . S
C2007 C2003 1.393 . S
C2007 C2006 1.391 . S
H2008 C2016 0.950 . S
H2009 C2021 0.950 . S
H2010 C2018 0.950 . S
H2011 C2020 0.950 . S
H2012 C2022 0.950 . S
H2013 C2024 0.950 . S
H2014 C2026 0.950 . S
H2015 C2027 0.950 . S
C2016 H2008 0.950 . S
C2016 C2017 1.386 . S
C2016 C2018 1.391 . S
C2017 C2016 1.386 . S
C2017 C2021 1.393 . S
C2018 H2010 0.950 . S
C2018 C2016 1.391 . S
C2018 C2019 1.400 . S
C2019 C2018 1.400 . S
C2019 C2020 1.398 . S
C2019 C2025 1.491 . S
C2020 H2011 0.950 . S
C2020 C2019 1.398 . S
C2020 C2021 1.391 . S
C2021 H2009 0.950 . S
C2021 C2017 1.393 . S
C2021 C2020 1.391 . S
C2022 H2012 0.950 . S
C2022 C2023 1.386 . S
C2022 C2024 1.391 . S
C2023 C2022 1.386 . S
C2023 C2027 1.393 . S
C2024 H2013 0.950 . S
C2024 C2022 1.391 . S
C2024 C2025 1.400 . S
C2025 C2019 1.491 . S
C2025 C2024 1.400 . S
C2025 C2026 1.398 . S
C2026 H2014 0.950 . S
C2026 C2025 1.398 . S
C2026 C2027 1.391 . S
C2027 H2015 0.950 . S
C2027 C2023 1.393 . S
C2027 C2026 1.391 . S
H2028 C2036 0.950 . S
H2029 C2041 0.950 . S
H2030 C2038 0.950 . S
H2031 C2040 0.950 . S
H2032 C2042 0.950 . S
H2033 C2044 0.950 . S
H2034 C2046 0.950 . S
H2035 C2047 0.950 . S
C2036 H2028 0.950 . S
C2036 C2037 1.386 . S
C2036 C2038 1.391 . S
C2037 C2036 1.386 . S
C2037 C2041 1.393 . S
C2038 H2030 0.950 . S
C2038 C2036 1.391 . S
C2038 C2039 1.400 . S
C2039 C2038 1.400 . S
C2039 C2040 1.398 . S
C2039 C2045 1.491 . S
C2040 H2031 0.950 . S
C2040 C2039 1.398 . S
C2040 C2041 1.391 . S
C2041 H2029 0.950 . S
C2041 C2037 1.393 . S
C2041 C2040 1.391 . S
C2042 H2032 0.950 . S
C2042 C2043 1.386 . S
C2042 C2044 1.391 . S
C2043 C2042 1.386 . S
C2043 C2047 1.393 . S
C2044 H2033 0.950 . S
C2044 C2042 1.391 . S
C2044 C2045 1.400 . S
C2045 C2039 1.491 . S
C2045 C2044 1.400 . S
C2045 C2046 1.398 . S
C2046 H2034 0.950 . S
C2046 C2045 1.398 . S
C2046 C2047 1.391 . S
C2047 H2035 0.950 . S
C2047 C2043 1.393 . S
C2047 C2046 1.391 . S
H2048 C2056 0.950 . S
H2049 C2061 0.950 . S
H2050 C2058 0.950 . S
H2051 C2060 0.950 . S
H2052 C2062 0.950 . S
H2053 C2064 0.950 . S
H2054 C2066 0.950 . S
H2055 C2067 0.950 . S
C2056 H2048 0.950 . S
C2056 C2057 1.386 . S
C2056 C2058 1.391 . S
C2057 C2056 1.386 . S
C2057 C2061 1.393 . S
C2058 H2050 0.950 . S
C2058 C2056 1.391 . S
C2058 C2059 1.400 . S
C2059 C2058 1.400 . S
C2059 C2060 1.398 . S
C2059 C2065 1.491 . S
C2060 H2051 0.950 . S
C2060 C2059 1.398 . S
C2060 C2061 1.391 . S
C2061 H2049 0.950 . S
C2061 C2057 1.393 . S
C2061 C2060 1.391 . S
C2062 H2052 0.950 . S
C2062 C2063 1.386 . S
C2062 C2064 1.391 . S
C2063 C2062 1.386 . S
C2063 C2067 1.393 . S
C2064 H2053 0.950 . S
C2064 C2062 1.391 . S
C2064 C2065 1.400 . S
C2065 C2059 1.491 . S
C2065 C2064 1.400 . S
C2065 C2066 1.398 . S
C2066 H2054 0.950 . S
C2066 C2065 1.398 . S
C2066 C2067 1.391 . S
C2067 H2055 0.950 . S
C2067 C2063 1.393 . S
C2067 C2066 1.391 . S
H2068 C2076 0.950 . S
H2069 C2081 0.950 . S
H2070 C2078 0.950 . S
H2071 C2080 0.950 . S
H2072 C2082 0.950 . S
H2073 C2084 0.950 . S
H2074 C2086 0.950 . S
H2075 C2087 0.950 . S
C2076 H2068 0.950 . S
C2076 C2077 1.386 . S
C2076 C2078 1.391 . S
C2077 C2076 1.386 . S
C2077 C2081 1.393 . S
C2078 H2070 0.950 . S
C2078 C2076 1.391 . S
C2078 C2079 1.400 . S
C2079 C2078 1.400 . S
C2079 C2080 1.398 . S
C2079 C2085 1.491 . S
C2080 H2071 0.950 . S
C2080 C2079 1.398 . S
C2080 C2081 1.391 . S
C2081 H2069 0.950 . S
C2081 C2077 1.393 . S
C2081 C2080 1.391 . S
C2082 H2072 0.950 . S
C2082 C2083 1.386 . S
C2082 C2084 1.391 . S
C2083 C2082 1.386 . S
C2083 C2087 1.393 . S
C2084 H2073 0.950 . S
C2084 C2082 1.391 . S
C2084 C2085 1.400 . S
C2085 C2079 1.491 . S
C2085 C2084 1.400 . S
C2085 C2086 1.398 . S
C2086 H2074 0.950 . S
C2086 C2085 1.398 . S
C2086 C2087 1.391 . S
C2087 H2075 0.950 . S
C2087 C2083 1.393 . S
C2087 C2086 1.391 . S
H2088 C2096 0.950 . S
H2089 C2101 0.950 . S
H2090 C2098 0.950 . S
H2091 C2100 0.950 . S
H2092 C2102 0.950 . S
H2093 C2104 0.950 . S
H2094 C2106 0.950 . S
H2095 C2107 0.950 . S
C2096 H2088 0.950 . S
C2096 C2097 1.386 . S
C2096 C2098 1.391 . S
C2097 C2096 1.386 . S
C2097 C2101 1.393 . S
C2098 H2090 0.950 . S
C2098 C2096 1.391 . S
C2098 C2099 1.400 . S
C2099 C2098 1.400 . S
C2099 C2100 1.398 . S
C2099 C2105 1.491 . S
C2100 H2091 0.950 . S
C2100 C2099 1.398 . S
C2100 C2101 1.391 . S
C2101 H2089 0.950 . S
C2101 C2097 1.393 . S
C2101 C2100 1.391 . S
C2102 H2092 0.950 . S
C2102 C2103 1.386 . S
C2102 C2104 1.391 . S
C2103 C2102 1.386 . S
C2103 C2107 1.393 . S
C2104 H2093 0.950 . S
C2104 C2102 1.391 . S
C2104 C2105 1.400 . S
C2105 C2099 1.491 . S
C2105 C2104 1.400 . S
C2105 C2106 1.398 . S
C2106 H2094 0.950 . S
C2106 C2105 1.398 . S
C2106 C2107 1.391 . S
C2107 H2095 0.950 . S
C2107 C2103 1.393 . S
C2107 C2106 1.391 . S
H2108 C2116 0.950 . S
H2109 C2121 0.950 . S
H2110 C2118 0.950 . S
H2111 C2120 0.950 . S
H2112 C2122 0.950 . S
H2113 C2124 0.950 . S
H2114 C2126 0.950 . S
H2115 C2127 0.950 . S
C2116 H2108 0.950 . S
C2116 C2117 1.386 . S
C2116 C2118 1.391 . S
C2117 C2116 1.386 . S
C2117 C2121 1.393 . S
C2118 H2110 0.950 . S
C2118 C2116 1.391 . S
C2118 C2119 1.400 . S
C2119 C2118 1.400 . S
C2119 C2120 1.398 . S
C2119 C2125 1.491 . S
C2120 H2111 0.950 . S
C2120 C2119 1.398 . S
C2120 C2121 1.391 . S
C2121 H2109 0.950 . S
C2121 C2117 1.393 . S
C2121 C2120 1.391 . S
C2122 H2112 0.950 . S
C2122 C2123 1.386 . S
C2122 C2124 1.391 . S
C2123 C2122 1.386 . S
C2123 C2127 1.393 . S
C2124 H2113 0.950 . S
C2124 C2122 1.391 . S
C2124 C2125 1.400 . S
C2125 C2119 1.491 . S
C2125 C2124 1.400 . S
C2125 C2126 1.398 . S
C2126 H2114 0.950 . S
C2126 C2125 1.398 . S
C2126 C2127 1.391 . S
C2127 H2115 0.950 . S
C2127 C2123 1.393 . S
C2127 C2126 1.391 . S
H2128 C2136 0.950 . S
H2129 C2141 0.950 . S
H2130 C2138 0.950 . S
H2131 C2140 0.950 . S
H2132 C2142 0.950 . S
H2133 C2144 0.950 . S
H2134 C2146 0.950 . S
H2135 C2147 0.950 . S
C2136 H2128 0.950 . S
C2136 C2137 1.386 . S
C2136 C2138 1.391 . S
C2137 C2136 1.386 . S
C2137 C2141 1.393 . S
C2138 H2130 0.950 . S
C2138 C2136 1.391 . S
C2138 C2139 1.400 . S
C2139 C2138 1.400 . S
C2139 C2140 1.398 . S
C2139 C2145 1.491 . S
C2140 H2131 0.950 . S
C2140 C2139 1.398 . S
C2140 C2141 1.391 . S
C2141 H2129 0.950 . S
C2141 C2137 1.393 . S
C2141 C2140 1.391 . S
C2142 H2132 0.950 . S
C2142 C2143 1.386 . S
C2142 C2144 1.391 . S
C2143 C2142 1.386 . S
C2143 C2147 1.393 . S
C2144 H2133 0.950 . S
C2144 C2142 1.391 . S
C2144 C2145 1.400 . S
C2145 C2139 1.491 . S
C2145 C2144 1.400 . S
C2145 C2146 1.398 . S
C2146 H2134 0.950 . S
C2146 C2145 1.398 . S
C2146 C2147 1.391 . S
C2147 H2135 0.950 . S
C2147 C2143 1.393 . S
C2147 C2146 1.391 . S
H2148 C2156 0.950 . S
H2149 C2161 0.950 . S
H2150 C2158 0.950 1_655 S
H2151 C2160 0.950 . S
H2152 C2162 0.950 . S
H2153 C2164 0.950 1_455 S
H2154 C2166 0.950 . S
H2155 C2167 0.950 . S
C2156 H2148 0.950 . S
C2156 C2157 1.386 . S
C2156 C2158 1.391 . S
C2157 C2156 1.386 . S
C2157 C2161 1.393 . S
C2158 H2150 0.950 1_455 S
C2158 C2156 1.391 . S
C2158 C2159 1.400 . S
C2159 C2158 1.400 . S
C2159 C2160 1.398 . S
C2159 C2165 1.491 1_455 S
C2160 H2151 0.950 . S
C2160 C2159 1.398 . S
C2160 C2161 1.391 . S
C2161 H2149 0.950 . S
C2161 C2157 1.393 . S
C2161 C2160 1.391 . S
C2162 H2152 0.950 . S
C2162 C2163 1.386 . S
C2162 C2164 1.391 . S
C2163 C2162 1.386 . S
C2163 C2167 1.393 . S
C2164 H2153 0.950 1_655 S
C2164 C2162 1.391 . S
C2164 C2165 1.400 . S
C2165 C2159 1.491 1_655 S
C2165 C2164 1.400 . S
C2165 C2166 1.398 . S
C2166 H2154 0.950 . S
C2166 C2165 1.398 . S
C2166 C2167 1.391 . S
C2167 H2155 0.950 . S
C2167 C2163 1.393 . S
C2167 C2166 1.391 . S
H2168 C2176 0.950 . S
H2169 C2181 0.950 . S
H2170 C2178 0.950 . S
H2171 C2180 0.950 . S
H2172 C2182 0.950 . S
H2173 C2184 0.950 . S
H2174 C2186 0.950 . S
H2175 C2187 0.950 . S
C2176 H2168 0.950 . S
C2176 C2177 1.386 . S
C2176 C2178 1.391 . S
C2177 C2176 1.386 . S
C2177 C2181 1.393 . S
C2178 H2170 0.950 . S
C2178 C2176 1.391 . S
C2178 C2179 1.400 . S
C2179 C2178 1.400 . S
C2179 C2180 1.398 . S
C2179 C2185 1.491 . S
C2180 H2171 0.950 . S
C2180 C2179 1.398 . S
C2180 C2181 1.391 . S
C2181 H2169 0.950 . S
C2181 C2177 1.393 . S
C2181 C2180 1.391 . S
C2182 H2172 0.950 . S
C2182 C2183 1.386 . S
C2182 C2184 1.391 . S
C2183 C2182 1.386 . S
C2183 C2187 1.393 . S
C2184 H2173 0.950 . S
C2184 C2182 1.391 . S
C2184 C2185 1.400 . S
C2185 C2179 1.491 . S
C2185 C2184 1.400 . S
C2185 C2186 1.398 . S
C2186 H2174 0.950 . S
C2186 C2185 1.398 . S
C2186 C2187 1.391 . S
C2187 H2175 0.950 . S
C2187 C2183 1.393 . S
C2187 C2186 1.391 . S
H2188 C2196 0.950 . S
H2189 C2201 0.950 . S
H2190 C2198 0.950 . S
H2191 C2200 0.950 . S
H2192 C2202 0.950 . S
H2193 C2204 0.950 . S
H2194 C2206 0.950 . S
H2195 C2207 0.950 . S
C2196 H2188 0.950 . S
C2196 C2197 1.386 . S
C2196 C2198 1.391 . S
C2197 C2196 1.386 . S
C2197 C2201 1.393 . S
C2198 H2190 0.950 . S
C2198 C2196 1.391 . S
C2198 C2199 1.400 . S
C2199 C2198 1.400 . S
C2199 C2200 1.398 . S
C2199 C2205 1.491 1_545 S
C2200 H2191 0.950 . S
C2200 C2199 1.398 . S
C2200 C2201 1.391 . S
C2201 H2189 0.950 . S
C2201 C2197 1.393 . S
C2201 C2200 1.391 . S
C2202 H2192 0.950 . S
C2202 C2203 1.386 . S
C2202 C2204 1.391 . S
C2203 C2202 1.386 . S
C2203 C2207 1.393 . S
C2204 H2193 0.950 . S
C2204 C2202 1.391 . S
C2204 C2205 1.400 . S
C2205 C2199 1.491 1_565 S
C2205 C2204 1.400 . S
C2205 C2206 1.398 . S
C2206 H2194 0.950 . S
C2206 C2205 1.398 . S
C2206 C2207 1.391 . S
C2207 H2195 0.950 . S
C2207 C2203 1.393 . S
C2207 C2206 1.391 . S
H2208 C2216 0.950 . S
H2209 C2221 0.950 . S
H2210 C2218 0.950 . S
H2211 C2220 0.950 . S
H2212 C2222 0.950 . S
H2213 C2224 0.950 . S
H2214 C2226 0.950 . S
H2215 C2227 0.950 . S
C2216 H2208 0.950 . S
C2216 C2217 1.386 . S
C2216 C2218 1.391 . S
C2217 C2216 1.386 . S
C2217 C2221 1.393 . S
C2218 H2210 0.950 . S
C2218 C2216 1.391 . S
C2218 C2219 1.400 . S
C2219 C2218 1.400 . S
C2219 C2220 1.398 . S
C2219 C2225 1.491 1_565 S
C2220 H2211 0.950 . S
C2220 C2219 1.398 . S
C2220 C2221 1.391 . S
C2221 H2209 0.950 . S
C2221 C2217 1.393 . S
C2221 C2220 1.391 . S
C2222 H2212 0.950 . S
C2222 C2223 1.386 . S
C2222 C2224 1.391 . S
C2223 C2222 1.386 . S
C2223 C2227 1.393 . S
C2224 H2213 0.950 . S
C2224 C2222 1.391 . S
C2224 C2225 1.400 . S
C2225 C2219 1.491 1_545 S
C2225 C2224 1.400 . S
C2225 C2226 1.398 . S
C2226 H2214 0.950 . S
C2226 C2225 1.398 . S
C2226 C2227 1.391 . S
C2227 H2215 0.950 . S
C2227 C2223 1.393 . S
C2227 C2226 1.391 . S
H2228 C2236 0.950 . S
H2229 C2241 0.950 . S
H2230 C2238 0.950 . S
H2231 C2240 0.950 . S
H2232 C2242 0.950 . S
H2233 C2244 0.950 . S
H2234 C2246 0.950 . S
H2235 C2247 0.950 . S
C2236 H2228 0.950 . S
C2236 C2237 1.386 . S
C2236 C2238 1.391 . S
C2237 C2236 1.386 . S
C2237 C2241 1.393 . S
C2238 H2230 0.950 . S
C2238 C2236 1.391 . S
C2238 C2239 1.400 . S
C2239 C2238 1.400 . S
C2239 C2240 1.398 . S
C2239 C2245 1.491 1_655 S
C2240 H2231 0.950 . S
C2240 C2239 1.398 . S
C2240 C2241 1.391 . S
C2241 H2229 0.950 . S
C2241 C2237 1.393 . S
C2241 C2240 1.391 . S
C2242 H2232 0.950 . S
C2242 C2243 1.386 . S
C2242 C2244 1.391 . S
C2243 C2242 1.386 . S
C2243 C2247 1.393 . S
C2244 H2233 0.950 . S
C2244 C2242 1.391 . S
C2244 C2245 1.400 . S
C2245 C2239 1.491 1_455 S
C2245 C2244 1.400 . S
C2245 C2246 1.398 . S
C2246 H2234 0.950 . S
C2246 C2245 1.398 . S
C2246 C2247 1.391 . S
C2247 H2235 0.950 . S
C2247 C2243 1.393 . S
C2247 C2246 1.391 . S
H2248 C2256 0.950 . S
H2249 C2261 0.950 . S
H2250 C2258 0.950 . S
H2251 C2260 0.950 . S
H2252 C2262 0.950 . S
H2253 C2264 0.950 . S
H2254 C2266 0.950 . S
H2255 C2267 0.950 . S
C2256 H2248 0.950 . S
C2256 C2257 1.386 . S
C2256 C2258 1.391 . S
C2257 C2256 1.386 . S
C2257 C2261 1.393 . S
C2258 H2250 0.950 . S
C2258 C2256 1.391 . S
C2258 C2259 1.400 . S
C2259 C2258 1.400 . S
C2259 C2260 1.398 . S
C2259 C2265 1.491 . S
C2260 H2251 0.950 . S
C2260 C2259 1.398 . S
C2260 C2261 1.391 . S
C2261 H2249 0.950 . S
C2261 C2257 1.393 . S
C2261 C2260 1.391 . S
C2262 H2252 0.950 . S
C2262 C2263 1.386 . S
C2262 C2264 1.391 . S
C2263 C2262 1.386 . S
C2263 C2267 1.393 . S
C2264 H2253 0.950 . S
C2264 C2262 1.391 . S
C2264 C2265 1.400 . S
C2265 C2259 1.491 . S
C2265 C2264 1.400 . S
C2265 C2266 1.398 . S
C2266 H2254 0.950 . S
C2266 C2265 1.398 . S
C2266 C2267 1.391 . S
C2267 H2255 0.950 . S
C2267 C2263 1.393 . S
C2267 C2266 1.391 . S
C837 N94 1.165 . S
C843 N2 1.136 . S
C857 N117 1.152 . S
C863 N25 1.155 . S
C877 N71 1.167 . S
C883 N48 1.124 . S
C897 N232 1.162 . S
C903 N140 1.142 . S
C917 N163 1.129 . S
C923 N255 1.167 . S
C937 N209 1.144 . S
C943 N186 1.128 . S
C957 N278 1.124 . S
C963 N370 1.147 . S
C977 N393 1.140 . S
C983 N301 1.133 . S
C997 N324 1.110 . S
C1003 N347 1.148 . S
C1017 N416 1.148 . S
C1023 N508 1.111 . S
C1037 N531 1.143 . S
C1043 N439 1.111 . S
C1057 N462 1.113 . S
C1063 N485 1.141 . S
C1077 N646 1.112 . S
C1083 N554 1.152 . S
C1097 N577 1.121 . S
C1103 N669 1.131 . S
C1117 N623 1.112 . S
C1123 N600 1.143 . S
C1137 N784 1.133 . S
C1143 N692 1.120 . S
C1157 N715 1.114 . S
C1163 N807 1.152 . S
C1177 N738 1.112 . S
C1183 N761 1.143 . S
C1197 N265 1.661 1_556 S
C1203 N12 1.673 1_556 S
C1217 N35 1.665 1_556 S
C1223 N219 1.668 1_556 S
C1237 N242 1.662 1_556 S
C1243 N58 1.671 1_556 S
C1257 N173 1.673 1_554 S
C1263 N81 1.661 1_554 S
C1277 N104 1.668 1_554 S
C1283 N196 1.666 1_554 S
C1297 N150 1.669 1_554 S
C1303 N127 1.665 1_554 S
C1317 N288 1.759 . S
C1323 N541 1.746 . S
C1337 N495 1.753 . S
C1343 N311 1.752 . S
C1357 N518 1.748 . S
C1363 N334 1.758 . S
C1377 N357 1.726 . S
C1383 N449 1.710 . S
C1397 N380 1.726 . S
C1403 N472 1.711 . S
C1417 N403 1.713 . S
C1423 N426 1.723 . S
C1437 N817 1.712 . S
C1443 N564 1.724 . S
C1457 N587 1.726 . S
C1463 N771 1.710 . S
C1477 N610 1.724 . S
C1483 N794 1.712 . S
C1497 N725 1.744 . S
C1503 N633 1.761 . S
C1517 N748 1.745 . S
C1523 N656 1.761 . S
C1537 N702 1.761 . S
C1543 N679 1.745 . S
C1557 C361 1.932 . S
C1563 C16 1.929 . S
C1577 C384 1.931 . S
C1583 C39 1.929 . S
C1597 C62 1.932 . S
C1603 C407 1.929 . S
C1617 C85 1.932 . S
C1623 C568 1.927 . S
C1637 C108 1.933 . S
C1643 C591 1.928 . S
C1657 C131 1.933 . S
C1663 C614 1.930 . S
C1677 C154 1.933 . S
C1683 C775 1.929 . S
C1697 C177 1.933 . S
C1703 C798 1.928 . S
C1717 C200 1.932 . S
C1723 C821 1.927 . S
C1737 C223 1.932 . S
C1743 C430 1.929 . S
C1757 C453 1.932 . S
C1763 C246 1.929 . S
C1777 C476 1.931 . S
C1783 C269 1.929 . S
C1797 C637 2.270 . S
C1803 C292 2.270 . S
C1817 C315 2.271 . S
C1823 C660 2.272 . S
C1837 C683 2.272 . S
C1843 C338 2.271 . S
C1857 C499 2.271 . S
C1863 C706 2.271 . S
C1877 C729 2.271 . S
C1883 C522 2.272 . S
C1897 C752 2.271 . S
C1903 C545 2.271 . S
C1917 C7 1.934 . S
C1923 C674 1.939 . S
C1937 C30 1.941 . S
C1943 C628 1.940 . S
C1957 C53 1.946 . S
C1963 C651 1.944 . S
C1977 C76 1.939 . S
C1983 C306 1.939 . S
C1997 C329 1.937 . S
C2003 C99 1.934 . S
C2017 C283 1.950 . S
C2023 C122 1.951 . S
C2037 C536 1.943 . S
C2043 C145 1.930 . S
C2057 C490 1.956 . S
C2063 C168 1.943 . S
C2077 C513 1.936 . S
C2083 C191 1.935 . S
C2097 C720 1.943 . S
C2103 C214 1.930 . S
C2117 C743 1.936 . S
C2123 C237 1.937 . S
C2137 C697 1.949 . S
C2143 C260 1.951 . S
C2157 C352 1.613 . S
C2163 C582 1.628 . S
C2177 C605 1.634 . S
C2183 C375 1.626 . S
C2197 C559 1.628 . S
C2203 C398 1.633 . S
C2217 C421 1.630 . S
C2223 C812 1.632 . S
C2237 C766 1.608 . S
C2243 C444 1.612 . S
C2257 C467 1.608 . S
C2263 C789 1.620 . S
