# Generated by pormake.
# Topology qtz-e, (6)-cn, num edge types: 1
# Building blocks:
#     Node 0, Type 0, BuildingBlock: MIFKUJ_clean_sbu_0, # of connection points: 6
#     Node 1, Type 0, BuildingBlock: MIFKUJ_clean_sbu_0, # of connection points: 6
#     Node 2, Type 0, BuildingBlock: MIFKUJ_clean_sbu_0, # of connection points: 6
#     Node 3, Type 0, BuildingBlock: MIFKUJ_clean_sbu_0, # of connection points: 6
#     Node 4, Type 0, BuildingBlock: MIFKUJ_clean_sbu_0, # of connection points: 6
#     Node 5, Type 0, BuildingBlock: MIFKUJ_clean_sbu_0, # of connection points: 6
#     Edge 6, Type (0, 0), BuildingBlock: ZUJKAS_clean_linker_0, # of connection points: 2
#     Edge 7, Type (0, 0), BuildingBlock: ZUJKAS_clean_linker_0, # of connection points: 2
#     Edge 8, Type (0, 0), BuildingBlock: ZUJKAS_clean_linker_0, # of connection points: 2
#     Edge 9, Type (0, 0), BuildingBlock: ZUJKAS_clean_linker_0, # of connection points: 2
#     Edge 10, Type (0, 0), BuildingBlock: ZUJKAS_clean_linker_0, # of connection points: 2
#     Edge 11, Type (0, 0), BuildingBlock: ZUJKAS_clean_linker_0, # of connection points: 2
#     Edge 12, Type (0, 0), BuildingBlock: ZUJKAS_clean_linker_0, # of connection points: 2
#     Edge 13, Type (0, 0), BuildingBlock: ZUJKAS_clean_linker_0, # of connection points: 2
#     Edge 14, Type (0, 0), BuildingBlock: ZUJKAS_clean_linker_0, # of connection points: 2
#     Edge 15, Type (0, 0), BuildingBlock: ZUJKAS_clean_linker_0, # of connection points: 2
#     Edge 16, Type (0, 0), BuildingBlock: ZUJKAS_clean_linker_0, # of connection points: 2
#     Edge 17, Type (0, 0), BuildingBlock: ZUJKAS_clean_linker_0, # of connection points: 2
#     Edge 18, Type (0, 0), BuildingBlock: ZUJKAS_clean_linker_0, # of connection points: 2
#     Edge 19, Type (0, 0), BuildingBlock: ZUJKAS_clean_linker_0, # of connection points: 2
#     Edge 20, Type (0, 0), BuildingBlock: ZUJKAS_clean_linker_0, # of connection points: 2
#     Edge 21, Type (0, 0), BuildingBlock: ZUJKAS_clean_linker_0, # of connection points: 2
#     Edge 22, Type (0, 0), BuildingBlock: ZUJKAS_clean_linker_0, # of connection points: 2
#     Edge 23, Type (0, 0), BuildingBlock: ZUJKAS_clean_linker_0, # of connection points: 2
# Relax obj value: 0.224
# Max RMSD: 0.224
# Mean RMSD: 0.224
data_MOF--net-qtz-e--node1-MIFKUJ_clean_sbu_0--edge1-ZUJKAS_clean_linker_0
_symmetry_space_group_name_H-M    P1
_symmetry_Int_Tables_number       1
_symmetry_cell_setting            triclinic
loop_
_symmetry_equiv_pos_as_xyz
'x, y, z'
_cell_length_a     31.653256
_cell_length_b     31.691897
_cell_length_c     52.933548
_cell_angle_alpha  90.03724
_cell_angle_beta   90.155784
_cell_angle_gamma 120.14702
loop_
_atom_site_label
_atom_site_type_symbol
_atom_site_fract_x
_atom_site_fract_y
_atom_site_fract_z
_atom_type_partial_charge
Zn0 Zn 0.18402 0.34423 0.97819 0.0
Zn1 Zn 0.17561 0.35209 0.05739 0.0
C2 C 0.24909 0.43037 0.94893 0.0
O3 O 0.22006 0.44561 0.95736 0.0
C4 C 0.13789 0.25174 0.07551 0.0
O5 O 0.18233 0.25969 0.07184 0.0
O6 O 0.14409 0.2808 0.95964 0.0
O7 O 0.20348 0.33342 0.01242 0.0
O8 O 0.24131 0.36119 0.04801 0.0
C9 C 0.14759 0.24321 0.96388 0.0
O10 O 0.17653 0.24453 0.98208 0.0
O11 O 0.24177 0.38877 0.95585 0.0
C12 C 0.14643 0.39744 0.09468 0.0
O13 O 0.10328 0.36518 0.08575 0.0
O14 O 0.18426 0.39907 0.08542 0.0
O15 O 0.15046 0.37082 0.02637 0.0
O16 O 0.14218 0.37424 0.98517 0.0
O17 O 0.1278 0.28449 0.06944 0.0
C18 C 0.24343 0.35869 0.02419 0.0
C19 C 0.13409 0.38325 0.00755 0.0
Zn20 Zn 0.83793 0.19833 0.31388 0.0
Zn21 Zn 0.81106 0.21045 0.38673 0.0
C22 C 0.7981 0.23598 0.27746 0.0
O23 O 0.76348 0.18991 0.27721 0.0
C24 C 0.86684 0.16591 0.40486 0.0
O25 O 0.90496 0.20964 0.40174 0.0
O26 O 0.87318 0.16992 0.29504 0.0
O27 O 0.86687 0.22486 0.34795 0.0
O28 O 0.87373 0.27273 0.3789 0.0
C29 C 0.9078 0.19815 0.28053 0.0
O30 O 0.91984 0.24424 0.27917 0.0
O31 O 0.83437 0.2493 0.29225 0.0
C32 C 0.73584 0.17845 0.4227 0.0
O33 O 0.7289 0.13693 0.41346 0.0
O34 O 0.77053 0.21815 0.41391 0.0
O35 O 0.77472 0.19375 0.35325 0.0
O36 O 0.76944 0.1446 0.32294 0.0
O37 O 0.82482 0.15801 0.39827 0.0
C38 C 0.88678 0.26778 0.35691 0.0
C39 C 0.75191 0.15189 0.34304 0.0
Zn40 Zn 0.64711 0.83935 0.64512 0.0
Zn41 Zn 0.63405 0.81232 0.7235 0.0
C42 C 0.56883 0.80809 0.60937 0.0
O43 O 0.57934 0.77332 0.60595 0.0
C44 C 0.7149 0.87683 0.75447 0.0
O45 O 0.68525 0.89335 0.75969 0.0
O46 O 0.70904 0.8778 0.62554 0.0
O47 O 0.65279 0.86367 0.68033 0.0
O48 O 0.61601 0.86358 0.71478 0.0
C49 C 0.71978 0.92056 0.61896 0.0
O50 O 0.69219 0.93795 0.62686 0.0
O51 O 0.59272 0.84091 0.6258 0.0
C52 C 0.59858 0.74062 0.76358 0.0
O53 O 0.64336 0.74831 0.76229 0.0
O54 O 0.5859 0.76403 0.7488 0.0
O55 O 0.629 0.77646 0.69073 0.0
O56 O 0.63148 0.76936 0.64953 0.0
O57 O 0.70173 0.84301 0.73818 0.0
C58 C 0.62617 0.87659 0.6919 0.0
C59 C 0.62454 0.75048 0.67149 0.0
Zn60 Zn 0.79189 0.64986 0.99177 0.0
Zn61 Zn 0.76234 0.58724 0.04239 0.0
C62 C 0.75946 0.58805 0.94702 0.0
O63 O 0.80198 0.62179 0.93831 0.0
C64 C 0.80034 0.6775 0.07022 0.0
O65 O 0.75374 0.66263 0.07312 0.0
O66 O 0.8265 0.70645 0.96792 0.0
O67 O 0.74508 0.66173 0.01253 0.0
O68 O 0.70366 0.59029 0.03172 0.0
C69 C 0.82652 0.74647 0.96948 0.0
O70 O 0.80372 0.75346 0.98829 0.0
O71 O 0.74814 0.59121 0.96972 0.0
C72 C 0.78714 0.54505 0.08164 0.0
O73 O 0.82963 0.57766 0.07236 0.0
O74 O 0.74842 0.54056 0.07161 0.0
O75 O 0.79087 0.5648 0.01569 0.0
O76 O 0.84503 0.64064 0.00774 0.0
O77 O 0.81278 0.65273 0.05642 0.0
C78 C 0.70586 0.62838 0.02247 0.0
C79 C 0.83465 0.59683 0.01106 0.0
Zn80 Zn 0.14994 0.79857 0.31082 0.0
Zn81 Zn 0.16945 0.79956 0.38964 0.0
C82 C 0.18756 0.74389 0.28293 0.0
O83 O 0.23065 0.7776 0.29119 0.0
C84 C 0.10002 0.82395 0.41415 0.0
O85 O 0.06547 0.77875 0.4098 0.0
O86 O 0.11028 0.82146 0.29185 0.0
O87 O 0.12189 0.77351 0.34502 0.0
O88 O 0.1166 0.73201 0.37852 0.0
C89 C 0.0678 0.78703 0.28616 0.0
O90 O 0.05352 0.74317 0.29501 0.0
O91 O 0.14984 0.74577 0.28929 0.0
C92 C 0.24486 0.83292 0.42685 0.0
O93 O 0.24383 0.87336 0.42304 0.0
O94 O 0.21599 0.79498 0.41423 0.0
O95 O 0.20663 0.83478 0.35803 0.0
O96 O 0.2194 0.85348 0.31776 0.0
O97 O 0.14317 0.83837 0.4065 0.0
C98 C 0.10708 0.73234 0.35524 0.0
C99 C 0.23535 0.86009 0.34044 0.0
Zn100 Zn 0.3426 0.13959 0.65436 0.0
Zn101 Zn 0.36363 0.16967 0.73245 0.0
C102 C 0.40967 0.16762 0.61449 0.0
O103 O 0.38645 0.19121 0.60925 0.0
C104 C 0.2827 0.10571 0.76379 0.0
O105 O 0.31225 0.08945 0.76986 0.0
O106 O 0.27895 0.10025 0.63537 0.0
O107 O 0.3403 0.11733 0.68963 0.0
O108 O 0.37999 0.1177 0.72304 0.0
C109 C 0.27465 0.06512 0.62187 0.0
O110 O 0.31041 0.05544 0.62178 0.0
O111 O 0.39777 0.14136 0.63425 0.0
C112 C 0.4038 0.24331 0.77177 0.0
O113 O 0.36088 0.24006 0.76972 0.0
O114 O 0.41339 0.21658 0.75774 0.0
O115 O 0.3669 0.20675 0.70028 0.0
O116 O 0.35842 0.20941 0.65901 0.0
O117 O 0.29643 0.13942 0.74746 0.0
C118 C 0.36717 0.10375 0.70044 0.0
C119 C 0.36929 0.23069 0.6805 0.0
H120 H 0.10422 0.67094 0.26125 0.0
H121 H 0.09688 0.6089 0.23121 0.0
H122 H 0.25246 0.66657 0.23529 0.0
H123 H 0.26011 0.72837 0.2656 0.0
H124 H 0.14315 0.62829 0.18388 0.0
H125 H 0.19596 0.5189 0.24425 0.0
H126 H 0.17753 0.55995 0.25716 0.0
H127 H 0.23815 0.58348 0.2449 0.0
C128 C 0.13684 0.67015 0.25597 0.0
C129 C 0.1828 0.70472 0.26578 0.0
C130 C 0.13256 0.63467 0.23879 0.0
C131 C 0.17404 0.63285 0.23119 0.0
C132 C 0.21985 0.66678 0.24123 0.0
H133 H 0.2293 0.4657 0.11918 0.0
H134 H 0.23577 0.523 0.15214 0.0
C135 C 0.22419 0.70231 0.25843 0.0
C136 C 0.16978 0.59747 0.21156 0.0
H137 H 0.18926 0.50248 0.20016 0.0
C138 C 0.15294 0.60057 0.18747 0.0
C139 C 0.18279 0.56152 0.21629 0.0
C140 C 0.19923 0.5553 0.2421 0.0
C141 C 0.14951 0.56923 0.16781 0.0
C142 C 0.16254 0.53328 0.17251 0.0
C143 C 0.1794 0.53015 0.19661 0.0
C144 C 0.15845 0.49832 0.15267 0.0
C145 C 0.13297 0.57554 0.14203 0.0
C146 C 0.11277 0.46512 0.14225 0.0
C147 C 0.10893 0.43237 0.12345 0.0
C148 C 0.15072 0.43202 0.11476 0.0
C149 C 0.19642 0.46507 0.1254 0.0
C150 C 0.20019 0.49777 0.14426 0.0
H151 H 0.13632 0.61198 0.13991 0.0
H152 H 0.15452 0.57085 0.1269 0.0
H153 H 0.094 0.54744 0.13927 0.0
H154 H 0.08 0.46438 0.14876 0.0
H155 H 0.07317 0.4074 0.11571 0.0
H156 H 0.44468 0.22382 0.57239 0.0
H157 H 0.50256 0.22511 0.54168 0.0
H158 H 0.51751 0.1186 0.58543 0.0
H159 H 0.45944 0.11719 0.61662 0.0
H160 H 0.6086 0.2002 0.56616 0.0
H161 H 0.46608 0.11013 0.49209 0.0
H162 H 0.46824 0.16265 0.50634 0.0
H163 H 0.45156 0.10934 0.52511 0.0
C164 C 0.46029 0.2007 0.57562 0.0
C165 C 0.44707 0.17005 0.59685 0.0
C166 C 0.49331 0.20145 0.55798 0.0
C167 C 0.51367 0.17142 0.56108 0.0
C168 C 0.50193 0.14187 0.58266 0.0
H169 H 0.6554 0.09967 0.44232 0.0
H170 H 0.60341 0.09813 0.47667 0.0
C171 C 0.46875 0.14108 0.60041 0.0
C172 C 0.54619 0.1703 0.54133 0.0
H173 H 0.54848 0.14388 0.47898 0.0
C174 C 0.59552 0.18767 0.54712 0.0
C175 C 0.52881 0.15346 0.5166 0.0
C176 C 0.47569 0.13241 0.50962 0.0
C177 C 0.62826 0.18971 0.5286 0.0
C178 C 0.6112 0.17448 0.50363 0.0
C179 C 0.56161 0.15607 0.49805 0.0
C180 C 0.64378 0.1761 0.48309 0.0
C181 C 0.68065 0.20756 0.53594 0.0
C182 C 0.68344 0.22061 0.47501 0.0
C183 C 0.71335 0.22168 0.45526 0.0
C184 C 0.70399 0.17821 0.44324 0.0
C185 C 0.66388 0.13382 0.45123 0.0
C186 C 0.63404 0.13282 0.47088 0.0
H187 H 0.68506 0.20661 0.55673 0.0
H188 H 0.69431 0.1852 0.52676 0.0
H189 H 0.70375 0.24585 0.52957 0.0
H190 H 0.69099 0.25456 0.48382 0.0
H191 H 0.74381 0.25647 0.44949 0.0
H192 H 0.30688 0.40525 0.92161 0.0
H193 H 0.3702 0.45563 0.8909 0.0
H194 H 0.3432 0.57418 0.90459 0.0
H195 H 0.28069 0.5246 0.93544 0.0
H196 H 0.36217 0.49623 0.84704 0.0
H197 H 0.4898 0.64144 0.91203 0.0
H198 H 0.43767 0.58619 0.92335 0.0
H199 H 0.43059 0.63594 0.9123 0.0
C200 C 0.31474 0.4422 0.91823 0.0
C201 C 0.28884 0.46096 0.93106 0.0
C202 C 0.35082 0.47088 0.9006 0.0
C203 C 0.36203 0.51898 0.89571 0.0
C204 C 0.33609 0.53763 0.90847 0.0
H205 H 0.50141 0.71072 0.76928 0.0
H206 H 0.44483 0.65395 0.80078 0.0
C207 C 0.30006 0.50905 0.92601 0.0
C208 C 0.39936 0.54917 0.87655 0.0
H209 H 0.50237 0.65987 0.86754 0.0
C210 C 0.39306 0.53181 0.85159 0.0
C211 C 0.43996 0.59551 0.88249 0.0
C212 C 0.45019 0.6156 0.90906 0.0
C213 C 0.42526 0.56021 0.8323 0.0
C214 C 0.46456 0.60719 0.8381 0.0
C215 C 0.47185 0.62396 0.86314 0.0
C216 C 0.49824 0.63982 0.81836 0.0
C217 C 0.41717 0.53998 0.80581 0.0
C218 C 0.54699 0.65075 0.81792 0.0
C219 C 0.57936 0.683 0.79991 0.0
C220 C 0.56371 0.70542 0.78218 0.0
C221 C 0.51469 0.69418 0.78265 0.0
C222 C 0.48226 0.66161 0.80057 0.0
H223 H 0.39018 0.50027 0.8052 0.0
H224 H 0.40343 0.55917 0.79374 0.0
H225 H 0.45214 0.54629 0.7976 0.0
H226 H 0.56001 0.63437 0.83155 0.0
H227 H 0.61681 0.69076 0.8001 0.0
H228 H 0.7222 0.22023 0.24673 0.0
H229 H 0.71992 0.27547 0.21528 0.0
H230 H 0.86621 0.38579 0.23609 0.0
H231 H 0.86893 0.33071 0.26776 0.0
H232 H 0.73738 0.37578 0.22194 0.0
H233 H 0.86919 0.36216 0.15787 0.0
H234 H 0.837 0.31812 0.18247 0.0
H235 H 0.88751 0.37711 0.19037 0.0
C236 C 0.75388 0.25631 0.24475 0.0
C237 C 0.7959 0.2709 0.25963 0.0
C238 C 0.75241 0.28785 0.2268 0.0
C239 C 0.79303 0.33442 0.22319 0.0
C240 C 0.83466 0.34972 0.23842 0.0
H241 H 0.8634 0.5579 0.11094 0.0
H242 H 0.8628 0.50757 0.14584 0.0
C243 C 0.83608 0.31826 0.25655 0.0
C244 C 0.79205 0.36626 0.20297 0.0
H245 H 0.84059 0.41476 0.14547 0.0
C246 C 0.75993 0.38445 0.2052 0.0
C247 C 0.82145 0.37727 0.18119 0.0
C248 C 0.85557 0.35748 0.17758 0.0
C249 C 0.75708 0.41423 0.18638 0.0
C250 C 0.78617 0.42493 0.16443 0.0
C251 C 0.81822 0.40654 0.16225 0.0
C252 C 0.78517 0.45616 0.14373 0.0
C253 C 0.72388 0.43493 0.19054 0.0
C254 C 0.74165 0.44409 0.13077 0.0
C255 C 0.74176 0.47328 0.11083 0.0
C256 C 0.78556 0.51457 0.10325 0.0
C257 C 0.82898 0.52632 0.11622 0.0
C258 C 0.82875 0.49753 0.13622 0.0
H259 H 0.71518 0.4349 0.21086 0.0
H260 H 0.74064 0.47286 0.18333 0.0
H261 H 0.689 0.41217 0.18027 0.0
H262 H 0.70775 0.41167 0.13577 0.0
H263 H 0.70781 0.46301 0.10107 0.0
H264 H 0.54554 0.88055 0.60715 0.0
H265 H 0.48758 0.88577 0.57829 0.0
H266 H 0.45149 0.7467 0.54586 0.0
H267 H 0.50875 0.74098 0.57464 0.0
H268 H 0.4918 0.88398 0.52426 0.0
H269 H 0.31705 0.73213 0.5606 0.0
H270 H 0.37278 0.75984 0.57898 0.0
H271 H 0.36308 0.71605 0.55477 0.0
C272 C 0.52479 0.85082 0.59409 0.0
C273 C 0.53174 0.81033 0.5932 0.0
C274 C 0.4918 0.85391 0.57759 0.0
C275 C 0.46487 0.81636 0.56013 0.0
C276 C 0.47125 0.77567 0.55948 0.0
H277 H 0.26211 0.75808 0.43709 0.0
H278 H 0.31686 0.75617 0.46927 0.0
C279 C 0.50426 0.77262 0.57587 0.0
C280 C 0.43217 0.82067 0.54151 0.0
H281 H 0.3142 0.76421 0.52042 0.0
C282 C 0.45287 0.85814 0.52353 0.0
C283 C 0.38152 0.78665 0.54053 0.0
C284 C 0.35709 0.74661 0.55987 0.0
C285 C 0.4245 0.86167 0.50409 0.0
C286 C 0.37381 0.82741 0.50298 0.0
C287 C 0.35305 0.79032 0.5212 0.0
C288 C 0.3416 0.82926 0.48308 0.0
C289 C 0.44947 0.90105 0.48444 0.0
C290 C 0.33705 0.87083 0.48024 0.0
C291 C 0.30613 0.87216 0.46176 0.0
C292 C 0.27852 0.83165 0.44595 0.0
C293 C 0.28286 0.7899 0.44894 0.0
C294 C 0.31409 0.78873 0.46734 0.0
H295 H 0.48938 0.9148 0.48374 0.0
H296 H 0.43375 0.88757 0.46536 0.0
H297 H 0.44436 0.93228 0.48925 0.0
H298 H 0.35695 0.90208 0.49255 0.0
H299 H 0.30341 0.90478 0.46011 0.0
H300 H 0.76992 0.57604 0.89672 0.0
H301 H 0.70905 0.51621 0.86773 0.0
H302 H 0.60672 0.45324 0.92904 0.0
H303 H 0.66751 0.513 0.95832 0.0
H304 H 0.61279 0.38369 0.89622 0.0
H305 H 0.58599 0.51988 0.84337 0.0
H306 H 0.64846 0.53443 0.84641 0.0
H307 H 0.61481 0.53241 0.87409 0.0
C308 C 0.73459 0.54936 0.90414 0.0
C309 C 0.72357 0.54952 0.92987 0.0
C310 C 0.69974 0.51534 0.88748 0.0
C311 C 0.65314 0.48078 0.89616 0.0
C312 C 0.6424 0.47981 0.92194 0.0
H313 H 0.3946 0.30558 0.80412 0.0
H314 H 0.45461 0.36197 0.83463 0.0
C315 C 0.67721 0.51399 0.93864 0.0
C316 C 0.61559 0.44592 0.87825 0.0
H317 H 0.54819 0.43979 0.82639 0.0
C318 C 0.59854 0.39586 0.88098 0.0
C319 C 0.59664 0.4619 0.85858 0.0
C320 C 0.61198 0.51502 0.85546 0.0
C321 C 0.56368 0.36139 0.86426 0.0
C322 C 0.54585 0.37751 0.8441 0.0
C323 C 0.56224 0.42751 0.84169 0.0
C324 C 0.50963 0.34304 0.82552 0.0
C325 C 0.54566 0.30795 0.86854 0.0
C326 C 0.52082 0.31407 0.80998 0.0
C327 C 0.48654 0.28168 0.79251 0.0
C328 C 0.44044 0.27783 0.79013 0.0
C329 C 0.42963 0.30741 0.8055 0.0
C330 C 0.46392 0.33975 0.82295 0.0
H331 H 0.55321 0.30086 0.88812 0.0
H332 H 0.50578 0.28558 0.86489 0.0
H333 H 0.56466 0.2958 0.85536 0.0
H334 H 0.55624 0.31673 0.81124 0.0
H335 H 0.49623 0.25974 0.78086 0.0
H336 H 0.25256 0.44562 0.01295 0.0
H337 H 0.32736 0.5198 1.00003 0.0
H338 H 0.40272 0.43804 0.99679 0.0
H339 H 0.3277 0.36395 0.00914 0.0
H340 H 0.40512 0.55885 0.02971 0.0
H341 H 0.4629 0.5266 0.9373 0.0
H342 H 0.40062 0.49135 0.94831 0.0
H343 H 0.44527 0.47452 0.95702 0.0
C344 C 0.28483 0.44346 0.00853 0.0
C345 C 0.28479 0.39945 0.01161 0.0
C346 C 0.32738 0.48568 1.00119 0.0
C347 C 0.37046 0.4844 0.99703 0.0
C348 C 0.36958 0.43967 0.99906 0.0
H349 H 0.62682 0.58374 0.05309 0.0
H350 H 0.54606 0.57221 0.04488 0.0
C351 C 0.32696 0.39743 0.00632 0.0
C352 C 0.4181 0.53022 0.99541 0.0
H353 H 0.5295 0.57365 0.96812 0.0
C354 C 0.43197 0.5632 0.01571 0.0
C355 C 0.45296 0.53713 0.97683 0.0
C356 C 0.43942 0.50573 0.95349 0.0
C357 C 0.48113 0.59821 0.01982 0.0
C358 C 0.51688 0.59966 1.00338 0.0
C359 C 0.50214 0.57184 0.98108 0.0
C360 C 0.56782 0.61877 0.01185 0.0
C361 C 0.49473 0.63047 0.04286 0.0
C362 C 0.60729 0.64986 0.99642 0.0
C363 C 0.65379 0.65659 1.00117 0.0
C364 C 0.66093 0.63134 0.02105 0.0
C365 C 0.62221 0.60331 0.03754 0.0
C366 C 0.57612 0.5972 0.03302 0.0
H367 H 0.46614 0.64 0.04704 0.0
H368 H 0.4974 0.61049 0.05943 0.0
H369 H 0.53034 0.6646 0.04039 0.0
H370 H 0.60147 0.66638 0.97985 0.0
H371 H 0.68309 0.67841 0.98814 0.0
H372 H 0.16945 0.70363 0.33891 0.0
H373 H 0.14889 0.62792 0.31653 0.0
H374 H -0.0035 0.5872 0.31739 0.0
H375 H 0.01793 0.66446 0.33797 0.0
H376 H 0.10424 0.54701 0.33541 0.0
H377 H -0.00426 0.52973 0.25197 0.0
H378 H 0.02981 0.58753 0.2681 0.0
H379 H 0.96753 0.54458 0.27695 0.0
C380 C 0.13181 0.67885 0.33356 0.0
C381 C 0.09512 0.6894 0.33985 0.0
C382 C 0.12006 0.63576 0.32075 0.0
C383 C 0.07115 0.60181 0.31479 0.0
C384 C 0.0347 0.61328 0.32073 0.0
H385 H 0.87435 0.34596 0.35419 0.0
H386 H 0.9258 0.42245 0.33204 0.0
C387 C 0.04671 0.65701 0.33291 0.0
C388 C 0.05686 0.55111 0.30732 0.0
H389 H 0.96296 0.452 0.27842 0.0
C390 C 0.07484 0.52664 0.32205 0.0
C391 C 0.01934 0.52411 0.28948 0.0
C392 C 0.00263 0.5483 0.27059 0.0
C393 C 0.05148 0.47563 0.32225 0.0
C394 C 0.00891 0.44859 0.30748 0.0
C395 C -0.00493 0.47294 0.29015 0.0
C396 C 0.97238 0.39852 0.31506 0.0
C397 C 0.06895 0.45104 0.34052 0.0
C398 C 0.98072 0.35927 0.31217 0.0
C399 C 0.95123 0.3154 0.32495 0.0
C400 C 0.9135 0.31071 0.3407 0.0
C401 C 0.90357 0.34901 0.34231 0.0
C402 C 0.93255 0.39241 0.32944 0.0
H403 H 0.10298 0.47755 0.35054 0.0
H404 H 0.04026 0.43028 0.3548 0.0
H405 H 0.0761 0.42478 0.33021 0.0
H406 H 0.01147 0.36348 0.30123 0.0
H407 H 0.95964 0.28629 0.32372 0.0
H408 H 0.324 0.02954 0.66659 0.0
H409 H 0.35961 0.98349 0.64768 0.0
H410 H 0.49669 0.07917 0.68469 0.0
H411 H 0.46138 0.12508 0.70345 0.0
H412 H 0.49195 0.03673 0.62727 0.0
H413 H 0.39553 0.9092 0.70703 0.0
H414 H 0.36448 0.93212 0.68774 0.0
H415 H 0.41151 0.97233 0.70918 0.0
C416 C 0.36221 0.04164 0.66983 0.0
C417 C 0.39011 0.08068 0.68632 0.0
C418 C 0.38242 0.01542 0.65909 0.0
C419 C 0.43078 0.02831 0.66471 0.0
C420 C 0.45947 0.06915 0.67994 0.0
H421 H 0.65437 0.96779 0.67563 0.0
H422 H 0.6011 -0.00264 0.66003 0.0
C423 C 0.43918 0.09496 0.69084 0.0
C424 C 0.4491 -0.00517 0.65903 0.0
H425 H 0.45791 0.90319 0.68723 0.0
C426 C 0.48379 0.00663 0.63989 0.0
C427 C 0.43774 0.95532 0.67532 0.0
C428 C 0.4003 0.94114 0.69603 0.0
C429 C 0.50967 0.98147 0.63763 0.0
C430 C 0.50177 0.94511 0.6556 0.0
C431 C 0.4643 0.93109 0.67345 0.0
C432 C 0.53566 0.92591 0.65896 0.0
C433 C 0.54585 -0.00507 0.61641 0.0
C434 C 0.51699 0.87593 0.66352 0.0
C435 C 0.54714 0.85948 0.67332 0.0
C436 C 0.5966 0.89256 0.67807 0.0
C437 C 0.61625 0.94181 0.67186 0.0
C438 C 0.58589 0.95851 0.6626 0.0
H439 H 0.53267 0.00493 0.5992 0.0
H440 H 0.581 0.02733 0.62204 0.0
H441 H 0.55248 0.96464 0.61163 0.0
H442 H 0.47845 0.85005 0.66091 0.0
H443 H 0.53153 0.82123 0.67799 0.0
H444 H 0.5937 0.68126 0.6344 0.0
H445 H 0.55278 0.59289 0.6399 0.0
H446 H 0.57238 0.61191 0.72061 0.0
H447 H 0.61275 0.7004 0.71533 0.0
H448 H 0.5822 0.53222 0.66257 0.0
H449 H 0.42431 0.52474 0.71286 0.0
H450 H 0.4689 0.57847 0.69627 0.0
H451 H 0.4833 0.56383 0.72671 0.0
C452 C 0.5898 0.66672 0.65331 0.0
C453 C 0.60581 0.69773 0.67448 0.0
C454 C 0.56637 0.61624 0.65641 0.0
C455 C 0.55864 0.59599 0.68069 0.0
C456 C 0.57695 0.62688 0.70177 0.0
H457 H 0.40077 0.28826 0.72274 0.0
H458 H 0.44601 0.37744 0.72441 0.0
C459 C 0.6002 0.67739 0.6987 0.0
C460 C 0.53004 0.54249 0.68372 0.0
H461 H 0.42206 0.45 0.7063 0.0
C462 C 0.54729 0.51422 0.67221 0.0
C463 C 0.48464 0.51929 0.69645 0.0
C464 C 0.46384 0.54799 0.70864 0.0
C465 C 0.51997 0.46317 0.67275 0.0
C466 C 0.47391 0.44001 0.68474 0.0
C467 C 0.45728 0.46814 0.69697 0.0
C468 C 0.44217 0.38651 0.68414 0.0
C469 C 0.54054 0.43436 0.66048 0.0
C470 C 0.42352 0.36244 0.66106 0.0
C471 C 0.39765 0.31158 0.66001 0.0
C472 C 0.38996 0.28403 0.68208 0.0
C473 C 0.40632 0.30841 0.70539 0.0
C474 C 0.43219 0.35932 0.70641 0.0
H475 H 0.58065 0.45689 0.65768 0.0
H476 H 0.53272 0.40201 0.67204 0.0
H477 H 0.52315 0.42125 0.64169 0.0
H478 H 0.43021 0.38305 0.64375 0.0
H479 H 0.38523 0.29397 0.64179 0.0
H480 H 0.14318 0.44145 0.04759 0.0
H481 H 0.10392 0.49058 0.05302 0.0
H482 H 0.02984 0.43751 0.98153 0.0
H483 H 0.06974 0.38924 0.97581 0.0
H484 H 0.07113 0.5362 0.98653 0.0
H485 H 0.96314 0.44181 0.07219 0.0
H486 H 0.02811 0.46752 0.07466 0.0
H487 H -0.00657 0.41727 0.05353 0.0
C488 C 0.11788 0.43971 0.03327 0.0
C489 C 0.10883 0.41103 0.01146 0.0
C490 C 0.09563 0.46789 0.03636 0.0
C491 C 0.06353 0.46719 0.01782 0.0
C492 C 0.05457 0.43857 0.99605 0.0
H493 H 0.82228 0.50568 0.01207 0.0
H494 H 0.88482 0.48287 0.01621 0.0
C495 C 0.07719 0.4109 0.99283 0.0
C496 C 0.03895 0.49612 0.02069 0.0
H497 H 0.95125 0.50305 0.05466 0.0
C498 C 0.04529 0.52947 1.00157 0.0
C499 C 0.00563 0.48737 0.04048 0.0
C500 C -0.00325 0.45135 0.06132 0.0
C501 C 0.01698 0.5521 1.0008 0.0
C502 C 0.98216 0.54174 0.02 0.0
C503 C 0.978 0.51075 0.03997 0.0
C504 C 0.94527 0.55714 0.01797 0.0
C505 C 0.02244 0.58444 0.97866 0.0
C506 C 0.95858 0.60659 0.01754 0.0
C507 C 0.92277 0.61983 0.01481 0.0
C508 C 0.87318 0.58374 0.01282 0.0
C509 C 0.86015 0.53435 0.01352 0.0
C510 C 0.89582 0.52124 0.01601 0.0
H511 H 0.04498 0.58184 0.96334 0.0
H512 H 0.98613 0.57468 0.97073 0.0
H513 H 0.04047 0.62296 0.98509 0.0
H514 H -0.0035 0.63484 0.01943 0.0
H515 H 0.93381 0.65819 0.01463 0.0
H516 H 0.29057 0.84936 0.37621 0.0
H517 H 0.3786 0.89973 0.38253 0.0
H518 H 0.3848 -0.00247 0.32397 0.0
H519 H 0.29691 0.94541 0.3167 0.0
H520 H 0.44908 0.97353 0.31557 0.0
H521 H 0.46644 0.02501 0.41653 0.0
H522 H 0.43235 0.96012 0.41248 0.0
H523 H 0.40857 -0.00294 0.40013 0.0
C524 C 0.31066 0.88218 0.36507 0.0
C525 C 0.28721 0.89371 0.346 0.0
C526 C 0.36094 0.91117 0.36882 0.0
C527 C 0.38836 0.95295 0.35404 0.0
C528 C 0.36442 0.96548 0.33564 0.0
H529 H 0.69091 0.17342 0.36895 0.0
H530 H 0.60305 0.12131 0.37448 0.0
C531 C 0.31432 0.93579 0.33146 0.0
C532 C 0.44244 0.98047 0.35567 0.0
H533 H 0.53931 0.0367 0.39628 0.0
C534 C 0.4687 0.98768 0.33323 0.0
C535 C 0.46815 -0.00097 0.37869 0.0
C536 C 0.44238 -0.00465 0.40325 0.0
C537 C 0.51978 0.01309 0.33304 0.0
C538 C 0.54552 0.02985 0.35615 0.0
C539 C 0.51943 0.02284 0.37866 0.0
C540 C 0.59956 0.058 0.35683 0.0
C541 C 0.54548 0.02311 0.30787 0.0
C542 C 0.62713 0.03895 0.3462 0.0
C543 C 0.67733 0.06899 0.34254 0.0
C544 C 0.70078 0.11806 0.35012 0.0
C545 C 0.67378 0.13577 0.36277 0.0
C546 C 0.62354 0.106 0.36602 0.0
H547 H 0.52095 0.01964 0.29196 0.0
H548 H 0.57803 0.06033 0.30737 0.0
H549 H 0.55765 -0.00375 0.3047 0.0
H550 H 0.60946 0.00149 0.33968 0.0
H551 H 0.69749 0.05427 0.33312 0.0
H552 H 0.25748 0.05757 0.80885 0.0
H553 H 0.19675 0.05339 0.83837 0.0
H554 H 0.14623 0.11736 0.78259 0.0
H555 H 0.20838 0.12334 0.7532 0.0
H556 H 0.17821 0.17194 0.82228 0.0
H557 H 0.05523 0.98562 0.85632 0.0
H558 H 0.117 -0.00199 0.85751 0.0
H559 H 0.08972 -0.00254 0.82745 0.0
C560 C 0.23245 0.06933 0.80254 0.0
C561 C 0.23842 0.0918 0.77892 0.0
C562 C 0.19716 0.06632 0.81939 0.0
C563 C 0.16662 0.08486 0.81273 0.0
C564 C 0.16933 0.10277 0.78816 0.0
H565 H 0.07932 0.22412 0.92715 0.0
H566 H 0.06363 0.17261 0.88986 0.0
C567 C 0.20507 0.10642 0.77142 0.0
C568 C 0.1412 0.0961 0.83287 0.0
H569 H 0.07694 0.05143 0.88758 0.0
C570 C 0.15464 0.14524 0.83608 0.0
C571 C 0.11061 0.06138 0.85098 0.0
C572 C 0.09195 0.00761 0.84769 0.0
C573 C 0.14219 0.16138 0.8579 0.0
C574 C 0.11468 0.12724 0.87692 0.0
C575 C 0.09816 0.07751 0.873 0.0
C576 C 0.10977 0.1443 0.90217 0.0
C577 C 0.16219 0.21554 0.86129 0.0
C578 C 0.13772 0.14227 0.92225 0.0
C579 C 0.14647 0.17133 0.94367 0.0
C580 C 0.12768 0.20311 0.94514 0.0
C581 C 0.09511 0.20073 0.9263 0.0
C582 C 0.08593 0.17121 0.90503 0.0
H583 H 0.18874 0.23749 0.84632 0.0
H584 H 0.13169 0.22328 0.86059 0.0
H585 H 0.18062 0.22795 0.87991 0.0
H586 H 0.15631 0.12156 0.92042 0.0
H587 H 0.17124 0.17186 0.95799 0.0
H588 H 0.87882 0.10253 0.26965 0.0
H589 H 0.9136 0.07276 0.23757 0.0
H590 H 0.02369 0.22125 0.22091 0.0
H591 H -0.01016 0.25091 0.25277 0.0
H592 H 0.91787 0.09127 0.18769 0.0
H593 H 0.10468 0.15594 0.22093 0.0
H594 H 0.05711 0.15016 0.24193 0.0
H595 H 0.09268 0.20524 0.22389 0.0
C596 C 0.91113 0.12866 0.2595 0.0
C597 C 0.93152 0.17911 0.26365 0.0
C598 C 0.93091 0.11159 0.24122 0.0
C599 C 0.97179 0.14468 0.22716 0.0
C600 C -0.00699 0.19487 0.23198 0.0
H601 H 0.04636 0.22995 0.08933 0.0
H602 H -0.00087 0.17871 0.12409 0.0
C603 C 0.97324 0.21188 0.25005 0.0
C604 C 0.98916 0.12868 0.20518 0.0
H605 H 0.09599 0.16339 0.17466 0.0
C606 C 0.95666 0.10544 0.18502 0.0
C607 C 0.0393 0.14493 0.20186 0.0
C608 C 0.07521 0.16488 0.22349 0.0
C609 C 0.97409 0.10488 0.16074 0.0
C610 C 0.02513 0.12953 0.15653 0.0
C611 C 0.05684 0.14577 0.17748 0.0
C612 C 0.04651 0.14891 0.13128 0.0
C613 C 0.93767 0.0806 0.13961 0.0
C614 C 0.08878 0.149 0.1231 0.0
C615 C 0.11689 0.17965 0.10338 0.0
C616 C 0.1031 0.21068 0.09156 0.0
C617 C 0.05833 0.20686 0.09812 0.0
C618 C 0.03067 0.17675 0.1179 0.0
H619 H 0.90605 0.04587 0.14631 0.0
H620 H 0.92328 0.10459 0.13364 0.0
H621 H 0.95412 0.07279 0.12305 0.0
H622 H 0.10185 0.12793 0.13309 0.0
H623 H 0.15099 0.18141 0.09862 0.0
H624 H 0.78215 0.89435 0.59754 0.0
H625 H 0.83667 0.93325 0.56159 0.0
H626 H 0.79568 0.04415 0.56033 0.0
H627 H 0.74262 0.00659 0.59641 0.0
H628 H 0.80888 0.941 0.51601 0.0
H629 H 0.93866 0.12669 0.54835 0.0
H630 H 0.90199 0.07833 0.57026 0.0
H631 H 0.87832 0.11399 0.55594 0.0
C632 C 0.78575 0.92774 0.58997 0.0
C633 C 0.75793 0.94732 0.59978 0.0
C634 C 0.81692 0.94989 0.56944 0.0
C635 C 0.82094 0.99208 0.55847 0.0
C636 C 0.79448 0.01253 0.56888 0.0
H637 H 0.79283 0.07769 0.42053 0.0
H638 H 0.79563 0.02896 0.45503 0.0
C639 C 0.76366 0.99067 0.58943 0.0
C640 C 0.84714 0.01142 0.53429 0.0
H641 H 0.91374 0.11933 0.5035 0.0
C642 C 0.83307 0.97986 0.51336 0.0
C643 C 0.88014 0.06176 0.53077 0.0
C644 C 0.90102 0.09689 0.55266 0.0
C645 C 0.84638 -0.00185 0.48875 0.0
C646 C 0.87313 0.04923 0.48503 0.0
C647 C 0.89218 0.08015 0.50615 0.0
C648 C 0.87412 0.07172 0.46029 0.0
C649 C 0.82964 0.96257 0.46699 0.0
C650 C 0.91738 0.11182 0.45129 0.0
C651 C 0.91571 0.14063 0.43173 0.0
C652 C 0.8707 0.12979 0.42091 0.0
C653 C 0.82812 0.08723 0.42847 0.0
C654 C 0.82976 0.05882 0.44811 0.0
H655 H 0.83083 0.92927 0.47231 0.0
H656 H 0.79112 0.95098 0.46231 0.0
H657 H 0.85247 0.97882 0.44994 0.0
H658 H 0.95203 0.12257 0.46041 0.0
H659 H 0.94924 0.173 0.4262 0.0
H660 H 0.73911 0.92819 0.79867 0.0
H661 H 0.79427 0.92923 0.83101 0.0
H662 H 0.84252 0.85532 0.78035 0.0
H663 H 0.78592 0.85266 0.74805 0.0
H664 H 0.8025 0.80342 0.82048 0.0
H665 H 0.93336 0.98899 0.85343 0.0
H666 H 0.87342 0.98147 0.85186 0.0
H667 H 0.90237 0.97764 0.82333 0.0
C668 C 0.7626 0.91359 0.79405 0.0
C669 C 0.75734 0.88934 0.77101 0.0
C670 C 0.79471 0.91475 0.81254 0.0
C671 C 0.82278 0.89249 0.80815 0.0
C672 C 0.82125 0.87277 0.78416 0.0
H673 H 0.88822 0.75153 0.93214 0.0
H674 H 0.90517 0.7966 0.89244 0.0
C675 C 0.78871 0.87108 0.76575 0.0
C676 C 0.84385 0.87985 0.82994 0.0
H677 H 0.90431 0.92459 0.88584 0.0
C678 C 0.82612 0.83009 0.83439 0.0
C679 C 0.87443 0.91457 0.84817 0.0
C680 C 0.89734 0.96866 0.84377 0.0
C681 C 0.83451 0.81373 0.85737 0.0
C682 C 0.86227 0.84823 0.87632 0.0
C683 C 0.88287 0.89825 0.8713 0.0
C684 C 0.86428 0.8321 0.90228 0.0
C685 C 0.81025 0.75938 0.86185 0.0
C686 C 0.83857 0.83986 0.92155 0.0
C687 C 0.82926 0.8146 0.94436 0.0
C688 C 0.84521 0.78092 0.94808 0.0
C689 C 0.87474 0.77663 0.92962 0.0
C690 C 0.88455 0.80239 0.90696 0.0
H691 H 0.78353 0.73785 0.84677 0.0
H692 H 0.83847 0.74842 0.86234 0.0
H693 H 0.79092 0.74954 0.88026 0.0
H694 H 0.82268 0.86273 0.91828 0.0
H695 H 0.8067 0.81894 0.95829 0.0
H696 H 0.98593 0.71645 0.26305 0.0
H697 H 0.94429 0.72511 0.22657 0.0
H698 H 0.03948 0.88137 0.22869 0.0
H699 H 0.08313 0.87273 0.26489 0.0
H700 H 0.89482 0.77052 0.21704 0.0
H701 H 0.063 0.85132 0.1581 0.0
H702 H 0.06081 0.8265 0.189 0.0
H703 H 0.06498 0.88494 0.18583 0.0
C704 C -0.00215 0.7528 0.256 0.0
C705 C 0.03831 0.79386 0.26665 0.0
C706 C 0.97388 0.75772 0.23511 0.0
C707 C 0.98938 0.8038 0.22453 0.0
C708 C 0.02775 0.84534 0.2361 0.0
H709 H 0.7932 0.74909 0.09531 0.0
H710 H 0.84425 0.79819 0.13075 0.0
C711 C 0.05237 0.84037 0.2569 0.0
C712 C 0.96651 0.80666 0.20059 0.0
H713 H 0.98907 0.82708 0.13743 0.0
C714 C 0.91538 0.78368 0.19964 0.0
C715 C -0.0064 0.82399 0.17796 0.0
C716 C 0.04859 0.8478 0.17758 0.0
C717 C 0.89027 0.77338 0.17655 0.0
C718 C 0.91729 0.78863 0.15378 0.0
C719 C 0.96854 0.81552 0.1549 0.0
C720 C 0.89357 0.76961 0.12889 0.0
C721 C 0.8352 0.74246 0.17683 0.0
C722 C 0.90701 0.74079 0.11467 0.0
C723 C 0.87891 0.714 0.09401 0.0
C724 C 0.83638 0.71495 0.08745 0.0
C725 C 0.82539 0.74711 0.10025 0.0
C726 C 0.85427 0.77486 0.12061 0.0
H727 H 0.82102 0.72622 0.19569 0.0
H728 H 0.81909 0.7654 0.17185 0.0
H729 H 0.82231 0.71232 0.16284 0.0
H730 H 0.93738 0.73638 0.12055 0.0
H731 H 0.88847 0.6897 0.08446 0.0
H732 H 0.20119 0.08454 0.61043 0.0
H733 H 0.13676 0.04357 0.57839 0.0
H734 H 0.19013 0.94516 0.56216 0.0
H735 H 0.25328 0.98484 0.59406 0.0
H736 H 0.14987 0.03923 0.52866 0.0
H737 H 0.04588 0.85125 0.56331 0.0
H738 H 0.08552 0.90147 0.5838 0.0
H739 H 0.10946 0.8703 0.56531 0.0
C740 C 0.19839 0.05346 0.60038 0.0
C741 C 0.23238 0.03796 0.60475 0.0
C742 C 0.16161 0.03014 0.5821 0.0
C743 C 0.15794 0.99064 0.56823 0.0
C744 C 0.19115 0.97453 0.57313 0.0
H745 H 0.16559 0.91704 0.4281 0.0
H746 H 0.16044 0.96118 0.46406 0.0
C747 C 0.22772 -0.0023 0.59123 0.0
C748 C 0.12393 0.96934 0.54652 0.0
H749 H 0.05857 0.85973 0.51688 0.0
C750 C 0.12842 -5e-05 0.52629 0.0
C751 C 0.0941 0.91828 0.54359 0.0
C752 C 0.08304 0.88362 0.56535 0.0
C753 C 0.10973 0.98057 0.50229 0.0
C754 C 0.08755 0.92959 0.4984 0.0
C755 C 0.07682 0.89896 0.51947 0.0
C756 C 0.08518 0.90834 0.47302 0.0
C757 C 0.11652 0.0152 0.48112 0.0
C758 C 0.04447 0.86379 0.46557 0.0
C759 C 0.0478 0.83752 0.44512 0.0
C760 C 0.09195 0.85543 0.43184 0.0
C761 C 0.13109 0.90192 0.43798 0.0
C762 C 0.12791 0.92777 0.45846 0.0
H763 H 0.11044 0.0448 0.48808 0.0
H764 H 0.15474 0.03272 0.47424 0.0
H765 H 0.09121 -0.00367 0.4651 0.0
H766 H 0.01112 0.84791 0.47653 0.0
H767 H 0.01686 0.80195 0.44076 0.0
loop_
_geom_bond_atom_site_label_1
_geom_bond_atom_site_label_2
_geom_bond_distance
_geom_bond_site_symmetry_2
_ccdc_geom_bond_type
Zn0 O6 1.969 . S
Zn0 O7 1.965 1_556 S
Zn0 O11 2.024 . S
Zn0 O16 1.969 . S
Zn1 O8 1.969 . S
Zn1 O14 1.969 . S
Zn1 O15 1.965 . S
Zn1 O17 2.024 . S
C2 O3 1.229 . S
C2 O11 1.058 . S
O3 C2 1.229 . S
C4 O5 1.229 . S
C4 O17 1.058 . S
O5 C4 1.229 . S
O6 Zn0 1.969 . S
O6 C9 1.267 . S
O7 Zn0 1.965 1_554 S
O7 C18 1.260 . S
O8 Zn1 1.969 . S
O8 C18 1.258 . S
C9 O6 1.267 . S
C9 O10 1.228 . S
O10 C9 1.228 . S
O11 Zn0 2.024 . S
O11 C2 1.058 . S
C12 O13 1.228 . S
C12 O14 1.267 . S
O13 C12 1.228 . S
O14 Zn1 1.969 . S
O14 C12 1.267 . S
O15 Zn1 1.965 . S
O15 C19 1.260 . S
O16 Zn0 1.969 . S
O16 C19 1.258 1_556 S
O17 Zn1 2.024 . S
O17 C4 1.058 . S
C18 O7 1.260 . S
C18 O8 1.258 . S
C19 O15 1.260 . S
C19 O16 1.258 1_554 S
Zn20 O26 1.969 . S
Zn20 O27 1.965 . S
Zn20 O31 2.024 . S
Zn20 O36 1.969 . S
Zn21 O28 1.969 . S
Zn21 O34 1.969 . S
Zn21 O35 1.965 . S
Zn21 O37 2.024 . S
C22 O23 1.229 . S
C22 O31 1.058 . S
O23 C22 1.229 . S
C24 O25 1.229 . S
C24 O37 1.058 . S
O25 C24 1.229 . S
O26 Zn20 1.969 . S
O26 C29 1.267 . S
O27 Zn20 1.965 . S
O27 C38 1.260 . S
O28 Zn21 1.969 . S
O28 C38 1.258 . S
C29 O26 1.267 . S
C29 O30 1.228 . S
O30 C29 1.228 . S
O31 Zn20 2.024 . S
O31 C22 1.058 . S
C32 O33 1.228 . S
C32 O34 1.267 . S
O33 C32 1.228 . S
O34 Zn21 1.969 . S
O34 C32 1.267 . S
O35 Zn21 1.965 . S
O35 C39 1.260 . S
O36 Zn20 1.969 . S
O36 C39 1.258 . S
O37 Zn21 2.024 . S
O37 C24 1.058 . S
C38 O27 1.260 . S
C38 O28 1.258 . S
C39 O35 1.260 . S
C39 O36 1.258 . S
Zn40 O46 1.969 . S
Zn40 O47 1.965 . S
Zn40 O51 2.024 . S
Zn40 O56 1.969 . S
Zn41 O48 1.969 . S
Zn41 O54 1.969 . S
Zn41 O55 1.965 . S
Zn41 O57 2.024 . S
C42 O43 1.229 . S
C42 O51 1.058 . S
O43 C42 1.229 . S
C44 O45 1.229 . S
C44 O57 1.058 . S
O45 C44 1.229 . S
O46 Zn40 1.969 . S
O46 C49 1.267 . S
O47 Zn40 1.965 . S
O47 C58 1.260 . S
O48 Zn41 1.969 . S
O48 C58 1.258 . S
C49 O46 1.267 . S
C49 O50 1.228 . S
O50 C49 1.228 . S
O51 Zn40 2.024 . S
O51 C42 1.058 . S
C52 O53 1.228 . S
C52 O54 1.267 . S
O53 C52 1.228 . S
O54 Zn41 1.969 . S
O54 C52 1.267 . S
O55 Zn41 1.965 . S
O55 C59 1.260 . S
O56 Zn40 1.969 . S
O56 C59 1.258 . S
O57 Zn41 2.024 . S
O57 C44 1.058 . S
C58 O47 1.260 . S
C58 O48 1.258 . S
C59 O55 1.260 . S
C59 O56 1.258 . S
Zn60 O66 1.969 . S
Zn60 O67 1.965 1_556 S
Zn60 O71 2.024 . S
Zn60 O76 1.969 . S
Zn61 O68 1.969 . S
Zn61 O74 1.969 . S
Zn61 O75 1.965 . S
Zn61 O77 2.024 . S
C62 O63 1.229 . S
C62 O71 1.058 . S
O63 C62 1.229 . S
C64 O65 1.229 . S
C64 O77 1.058 . S
O65 C64 1.229 . S
O66 Zn60 1.969 . S
O66 C69 1.267 . S
O67 Zn60 1.965 1_554 S
O67 C78 1.260 . S
O68 Zn61 1.969 . S
O68 C78 1.258 . S
C69 O66 1.267 . S
C69 O70 1.228 . S
O70 C69 1.228 . S
O71 Zn60 2.024 . S
O71 C62 1.058 . S
C72 O73 1.228 . S
C72 O74 1.267 . S
O73 C72 1.228 . S
O74 Zn61 1.969 . S
O74 C72 1.267 . S
O75 Zn61 1.965 . S
O75 C79 1.260 . S
O76 Zn60 1.969 . S
O76 C79 1.258 1_556 S
O77 Zn61 2.024 . S
O77 C64 1.058 . S
C78 O67 1.260 . S
C78 O68 1.258 . S
C79 O75 1.260 . S
C79 O76 1.258 1_554 S
Zn80 O86 1.969 . S
Zn80 O87 1.965 . S
Zn80 O91 2.024 . S
Zn80 O96 1.969 . S
Zn81 O88 1.969 . S
Zn81 O94 1.969 . S
Zn81 O95 1.965 . S
Zn81 O97 2.024 . S
C82 O83 1.229 . S
C82 O91 1.058 . S
O83 C82 1.229 . S
C84 O85 1.229 . S
C84 O97 1.058 . S
O85 C84 1.229 . S
O86 Zn80 1.969 . S
O86 C89 1.267 . S
O87 Zn80 1.965 . S
O87 C98 1.260 . S
O88 Zn81 1.969 . S
O88 C98 1.258 . S
C89 O86 1.267 . S
C89 O90 1.228 . S
O90 C89 1.228 . S
O91 Zn80 2.024 . S
O91 C82 1.058 . S
C92 O93 1.228 . S
C92 O94 1.267 . S
O93 C92 1.228 . S
O94 Zn81 1.969 . S
O94 C92 1.267 . S
O95 Zn81 1.965 . S
O95 C99 1.260 . S
O96 Zn80 1.969 . S
O96 C99 1.258 . S
O97 Zn81 2.024 . S
O97 C84 1.058 . S
C98 O87 1.260 . S
C98 O88 1.258 . S
C99 O95 1.260 . S
C99 O96 1.258 . S
Zn100 O106 1.969 . S
Zn100 O107 1.965 . S
Zn100 O111 2.024 . S
Zn100 O116 1.969 . S
Zn101 O108 1.969 . S
Zn101 O114 1.969 . S
Zn101 O115 1.965 . S
Zn101 O117 2.024 . S
C102 O103 1.229 . S
C102 O111 1.058 . S
O103 C102 1.229 . S
C104 O105 1.229 . S
C104 O117 1.058 . S
O105 C104 1.229 . S
O106 Zn100 1.969 . S
O106 C109 1.267 . S
O107 Zn100 1.965 . S
O107 C118 1.260 . S
O108 Zn101 1.969 . S
O108 C118 1.258 . S
C109 O106 1.267 . S
C109 O110 1.228 . S
O110 C109 1.228 . S
O111 Zn100 2.024 . S
O111 C102 1.058 . S
C112 O113 1.228 . S
C112 O114 1.267 . S
O113 C112 1.228 . S
O114 Zn101 1.969 . S
O114 C112 1.267 . S
O115 Zn101 1.965 . S
O115 C119 1.260 . S
O116 Zn100 1.969 . S
O116 C119 1.258 . S
O117 Zn101 2.024 . S
O117 C104 1.058 . S
C118 O107 1.260 . S
C118 O108 1.258 . S
C119 O115 1.260 . S
C119 O116 1.258 . S
H120 C128 0.929 . S
H121 C130 0.930 . S
H122 C132 0.930 . S
H123 C135 0.929 . S
H124 C138 0.930 . S
H125 C140 0.960 . S
H126 C140 0.960 . S
H127 C140 0.960 . S
C128 H120 0.929 . S
C128 C129 1.377 . S
C128 C130 1.384 . S
C129 C128 1.377 . S
C129 C135 1.390 . S
C130 H121 0.930 . S
C130 C128 1.384 . S
C130 C131 1.372 . S
C131 C130 1.372 . S
C131 C132 1.400 . S
C131 C136 1.490 . S
C132 H122 0.930 . S
C132 C131 1.400 . S
C132 C135 1.386 . S
H133 C149 0.930 . S
H134 C150 0.931 . S
C135 H123 0.929 . S
C135 C129 1.390 . S
C135 C132 1.386 . S
C136 C131 1.490 . S
C136 C138 1.395 . S
C136 C139 1.403 . S
H137 C143 0.930 . S
C138 H124 0.930 . S
C138 C136 1.395 . S
C138 C141 1.403 . S
C139 C136 1.403 . S
C139 C140 1.524 . S
C139 C143 1.400 . S
C140 H125 0.960 . S
C140 H126 0.960 . S
C140 H127 0.960 . S
C140 C139 1.524 . S
C141 C138 1.403 . S
C141 C142 1.392 . S
C141 C145 1.495 . S
C142 C141 1.392 . S
C142 C143 1.385 . S
C142 C144 1.478 . S
C143 H137 0.930 . S
C143 C139 1.400 . S
C143 C142 1.385 . S
C144 C142 1.478 . S
C144 C146 1.381 . S
C144 C150 1.383 . S
C145 C141 1.495 . S
C145 H151 0.959 . S
C145 H152 0.961 . S
C145 H153 0.960 . S
C146 C144 1.381 . S
C146 C147 1.394 . S
C146 H154 0.930 . S
C147 C146 1.394 . S
C147 C148 1.383 . S
C147 H155 0.929 . S
C148 C147 1.383 . S
C148 C149 1.377 . S
C149 H133 0.930 . S
C149 C148 1.377 . S
C149 C150 1.379 . S
C150 H134 0.931 . S
C150 C144 1.383 . S
C150 C149 1.379 . S
H151 C145 0.959 . S
H152 C145 0.961 . S
H153 C145 0.960 . S
H154 C146 0.930 . S
H155 C147 0.929 . S
H156 C164 0.929 . S
H157 C166 0.930 . S
H158 C168 0.930 . S
H159 C171 0.929 . S
H160 C174 0.930 . S
H161 C176 0.960 . S
H162 C176 0.960 . S
H163 C176 0.960 . S
C164 H156 0.929 . S
C164 C165 1.377 . S
C164 C166 1.384 . S
C165 C164 1.377 . S
C165 C171 1.390 . S
C166 H157 0.930 . S
C166 C164 1.384 . S
C166 C167 1.372 . S
C167 C166 1.372 . S
C167 C168 1.400 . S
C167 C172 1.490 . S
C168 H158 0.930 . S
C168 C167 1.400 . S
C168 C171 1.386 . S
H169 C185 0.930 . S
H170 C186 0.931 . S
C171 H159 0.929 . S
C171 C165 1.390 . S
C171 C168 1.386 . S
C172 C167 1.490 . S
C172 C174 1.395 . S
C172 C175 1.403 . S
H173 C179 0.930 . S
C174 H160 0.930 . S
C174 C172 1.395 . S
C174 C177 1.403 . S
C175 C172 1.403 . S
C175 C176 1.524 . S
C175 C179 1.400 . S
C176 H161 0.960 . S
C176 H162 0.960 . S
C176 H163 0.960 . S
C176 C175 1.524 . S
C177 C174 1.403 . S
C177 C178 1.392 . S
C177 C181 1.495 . S
C178 C177 1.392 . S
C178 C179 1.385 . S
C178 C180 1.478 . S
C179 H173 0.930 . S
C179 C175 1.400 . S
C179 C178 1.385 . S
C180 C178 1.478 . S
C180 C182 1.381 . S
C180 C186 1.383 . S
C181 C177 1.495 . S
C181 H187 0.959 . S
C181 H188 0.961 . S
C181 H189 0.960 . S
C182 C180 1.381 . S
C182 C183 1.394 . S
C182 H190 0.930 . S
C183 C182 1.394 . S
C183 C184 1.383 . S
C183 H191 0.929 . S
C184 C183 1.383 . S
C184 C185 1.377 . S
C185 H169 0.930 . S
C185 C184 1.377 . S
C185 C186 1.379 . S
C186 H170 0.931 . S
C186 C180 1.383 . S
C186 C185 1.379 . S
H187 C181 0.959 . S
H188 C181 0.961 . S
H189 C181 0.960 . S
H190 C182 0.930 . S
H191 C183 0.929 . S
H192 C200 0.929 . S
H193 C202 0.930 . S
H194 C204 0.930 . S
H195 C207 0.929 . S
H196 C210 0.930 . S
H197 C212 0.960 . S
H198 C212 0.960 . S
H199 C212 0.960 . S
C200 H192 0.929 . S
C200 C201 1.377 . S
C200 C202 1.384 . S
C201 C200 1.377 . S
C201 C207 1.390 . S
C202 H193 0.930 . S
C202 C200 1.384 . S
C202 C203 1.372 . S
C203 C202 1.372 . S
C203 C204 1.400 . S
C203 C208 1.490 . S
C204 H194 0.930 . S
C204 C203 1.400 . S
C204 C207 1.386 . S
H205 C221 0.930 . S
H206 C222 0.931 . S
C207 H195 0.929 . S
C207 C201 1.390 . S
C207 C204 1.386 . S
C208 C203 1.490 . S
C208 C210 1.395 . S
C208 C211 1.403 . S
H209 C215 0.930 . S
C210 H196 0.930 . S
C210 C208 1.395 . S
C210 C213 1.403 . S
C211 C208 1.403 . S
C211 C212 1.524 . S
C211 C215 1.400 . S
C212 H197 0.960 . S
C212 H198 0.960 . S
C212 H199 0.960 . S
C212 C211 1.524 . S
C213 C210 1.403 . S
C213 C214 1.392 . S
C213 C217 1.495 . S
C214 C213 1.392 . S
C214 C215 1.385 . S
C214 C216 1.478 . S
C215 H209 0.930 . S
C215 C211 1.400 . S
C215 C214 1.385 . S
C216 C214 1.478 . S
C216 C218 1.381 . S
C216 C222 1.383 . S
C217 C213 1.495 . S
C217 H223 0.959 . S
C217 H224 0.961 . S
C217 H225 0.960 . S
C218 C216 1.381 . S
C218 C219 1.394 . S
C218 H226 0.930 . S
C219 C218 1.394 . S
C219 C220 1.383 . S
C219 H227 0.929 . S
C220 C219 1.383 . S
C220 C221 1.377 . S
C221 H205 0.930 . S
C221 C220 1.377 . S
C221 C222 1.379 . S
C222 H206 0.931 . S
C222 C216 1.383 . S
C222 C221 1.379 . S
H223 C217 0.959 . S
H224 C217 0.961 . S
H225 C217 0.960 . S
H226 C218 0.930 . S
H227 C219 0.929 . S
H228 C236 0.929 . S
H229 C238 0.930 . S
H230 C240 0.930 . S
H231 C243 0.929 . S
H232 C246 0.930 . S
H233 C248 0.960 . S
H234 C248 0.960 . S
H235 C248 0.960 . S
C236 H228 0.929 . S
C236 C237 1.377 . S
C236 C238 1.384 . S
C237 C236 1.377 . S
C237 C243 1.390 . S
C238 H229 0.930 . S
C238 C236 1.384 . S
C238 C239 1.372 . S
C239 C238 1.372 . S
C239 C240 1.400 . S
C239 C244 1.490 . S
C240 H230 0.930 . S
C240 C239 1.400 . S
C240 C243 1.386 . S
H241 C257 0.930 . S
H242 C258 0.931 . S
C243 H231 0.929 . S
C243 C237 1.390 . S
C243 C240 1.386 . S
C244 C239 1.490 . S
C244 C246 1.395 . S
C244 C247 1.403 . S
H245 C251 0.930 . S
C246 H232 0.930 . S
C246 C244 1.395 . S
C246 C249 1.403 . S
C247 C244 1.403 . S
C247 C248 1.524 . S
C247 C251 1.400 . S
C248 H233 0.960 . S
C248 H234 0.960 . S
C248 H235 0.960 . S
C248 C247 1.524 . S
C249 C246 1.403 . S
C249 C250 1.392 . S
C249 C253 1.495 . S
C250 C249 1.392 . S
C250 C251 1.385 . S
C250 C252 1.478 . S
C251 H245 0.930 . S
C251 C247 1.400 . S
C251 C250 1.385 . S
C252 C250 1.478 . S
C252 C254 1.381 . S
C252 C258 1.383 . S
C253 C249 1.495 . S
C253 H259 0.959 . S
C253 H260 0.961 . S
C253 H261 0.960 . S
C254 C252 1.381 . S
C254 C255 1.394 . S
C254 H262 0.930 . S
C255 C254 1.394 . S
C255 C256 1.383 . S
C255 H263 0.929 . S
C256 C255 1.383 . S
C256 C257 1.377 . S
C257 H241 0.930 . S
C257 C256 1.377 . S
C257 C258 1.379 . S
C258 H242 0.931 . S
C258 C252 1.383 . S
C258 C257 1.379 . S
H259 C253 0.959 . S
H260 C253 0.961 . S
H261 C253 0.960 . S
H262 C254 0.930 . S
H263 C255 0.929 . S
H264 C272 0.929 . S
H265 C274 0.930 . S
H266 C276 0.930 . S
H267 C279 0.929 . S
H268 C282 0.930 . S
H269 C284 0.960 . S
H270 C284 0.960 . S
H271 C284 0.960 . S
C272 H264 0.929 . S
C272 C273 1.377 . S
C272 C274 1.384 . S
C273 C272 1.377 . S
C273 C279 1.390 . S
C274 H265 0.930 . S
C274 C272 1.384 . S
C274 C275 1.372 . S
C275 C274 1.372 . S
C275 C276 1.400 . S
C275 C280 1.490 . S
C276 H266 0.930 . S
C276 C275 1.400 . S
C276 C279 1.386 . S
H277 C293 0.930 . S
H278 C294 0.931 . S
C279 H267 0.929 . S
C279 C273 1.390 . S
C279 C276 1.386 . S
C280 C275 1.490 . S
C280 C282 1.395 . S
C280 C283 1.403 . S
H281 C287 0.930 . S
C282 H268 0.930 . S
C282 C280 1.395 . S
C282 C285 1.403 . S
C283 C280 1.403 . S
C283 C284 1.524 . S
C283 C287 1.400 . S
C284 H269 0.960 . S
C284 H270 0.960 . S
C284 H271 0.960 . S
C284 C283 1.524 . S
C285 C282 1.403 . S
C285 C286 1.392 . S
C285 C289 1.495 . S
C286 C285 1.392 . S
C286 C287 1.385 . S
C286 C288 1.478 . S
C287 H281 0.930 . S
C287 C283 1.400 . S
C287 C286 1.385 . S
C288 C286 1.478 . S
C288 C290 1.381 . S
C288 C294 1.383 . S
C289 C285 1.495 . S
C289 H295 0.959 . S
C289 H296 0.961 . S
C289 H297 0.960 . S
C290 C288 1.381 . S
C290 C291 1.394 . S
C290 H298 0.930 . S
C291 C290 1.394 . S
C291 C292 1.383 . S
C291 H299 0.929 . S
C292 C291 1.383 . S
C292 C293 1.377 . S
C293 H277 0.930 . S
C293 C292 1.377 . S
C293 C294 1.379 . S
C294 H278 0.931 . S
C294 C288 1.383 . S
C294 C293 1.379 . S
H295 C289 0.959 . S
H296 C289 0.961 . S
H297 C289 0.960 . S
H298 C290 0.930 . S
H299 C291 0.929 . S
H300 C308 0.929 . S
H301 C310 0.930 . S
H302 C312 0.930 . S
H303 C315 0.929 . S
H304 C318 0.930 . S
H305 C320 0.960 . S
H306 C320 0.960 . S
H307 C320 0.960 . S
C308 H300 0.929 . S
C308 C309 1.377 . S
C308 C310 1.384 . S
C309 C308 1.377 . S
C309 C315 1.390 . S
C310 H301 0.930 . S
C310 C308 1.384 . S
C310 C311 1.372 . S
C311 C310 1.372 . S
C311 C312 1.400 . S
C311 C316 1.490 . S
C312 H302 0.930 . S
C312 C311 1.400 . S
C312 C315 1.386 . S
H313 C329 0.930 . S
H314 C330 0.931 . S
C315 H303 0.929 . S
C315 C309 1.390 . S
C315 C312 1.386 . S
C316 C311 1.490 . S
C316 C318 1.395 . S
C316 C319 1.403 . S
H317 C323 0.930 . S
C318 H304 0.930 . S
C318 C316 1.395 . S
C318 C321 1.403 . S
C319 C316 1.403 . S
C319 C320 1.524 . S
C319 C323 1.400 . S
C320 H305 0.960 . S
C320 H306 0.960 . S
C320 H307 0.960 . S
C320 C319 1.524 . S
C321 C318 1.403 . S
C321 C322 1.392 . S
C321 C325 1.495 . S
C322 C321 1.392 . S
C322 C323 1.385 . S
C322 C324 1.478 . S
C323 H317 0.930 . S
C323 C319 1.400 . S
C323 C322 1.385 . S
C324 C322 1.478 . S
C324 C326 1.381 . S
C324 C330 1.383 . S
C325 C321 1.495 . S
C325 H331 0.959 . S
C325 H332 0.961 . S
C325 H333 0.960 . S
C326 C324 1.381 . S
C326 C327 1.394 . S
C326 H334 0.930 . S
C327 C326 1.394 . S
C327 C328 1.383 . S
C327 H335 0.929 . S
C328 C327 1.383 . S
C328 C329 1.377 . S
C329 H313 0.930 . S
C329 C328 1.377 . S
C329 C330 1.379 . S
C330 H314 0.931 . S
C330 C324 1.383 . S
C330 C329 1.379 . S
H331 C325 0.959 . S
H332 C325 0.961 . S
H333 C325 0.960 . S
H334 C326 0.930 . S
H335 C327 0.929 . S
H336 C344 0.929 . S
H337 C346 0.930 . S
H338 C348 0.930 . S
H339 C351 0.929 . S
H340 C354 0.930 . S
H341 C356 0.960 . S
H342 C356 0.960 . S
H343 C356 0.960 . S
C344 H336 0.929 . S
C344 C345 1.377 . S
C344 C346 1.384 . S
C345 C344 1.377 . S
C345 C351 1.390 . S
C346 H337 0.930 . S
C346 C344 1.384 . S
C346 C347 1.372 . S
C347 C346 1.372 . S
C347 C348 1.400 . S
C347 C352 1.490 . S
C348 H338 0.930 . S
C348 C347 1.400 . S
C348 C351 1.386 . S
H349 C365 0.930 . S
H350 C366 0.931 . S
C351 H339 0.929 . S
C351 C345 1.390 . S
C351 C348 1.386 . S
C352 C347 1.490 . S
C352 C354 1.395 . S
C352 C355 1.403 . S
H353 C359 0.930 1_556 S
C354 H340 0.930 . S
C354 C352 1.395 . S
C354 C357 1.403 . S
C355 C352 1.403 . S
C355 C356 1.524 1_554 S
C355 C359 1.400 . S
C356 H341 0.960 . S
C356 H342 0.960 . S
C356 H343 0.960 . S
C356 C355 1.524 1_556 S
C357 C354 1.403 . S
C357 C358 1.392 . S
C357 C361 1.495 . S
C358 C357 1.392 . S
C358 C359 1.385 . S
C358 C360 1.478 . S
C359 H353 0.930 1_554 S
C359 C355 1.400 . S
C359 C358 1.385 . S
C360 C358 1.478 . S
C360 C362 1.381 . S
C360 C366 1.383 . S
C361 C357 1.495 . S
C361 H367 0.959 . S
C361 H368 0.961 . S
C361 H369 0.960 . S
C362 C360 1.381 . S
C362 C363 1.394 . S
C362 H370 0.930 . S
C363 C362 1.394 . S
C363 C364 1.383 . S
C363 H371 0.929 . S
C364 C363 1.383 . S
C364 C365 1.377 . S
C365 H349 0.930 . S
C365 C364 1.377 . S
C365 C366 1.379 . S
C366 H350 0.931 . S
C366 C360 1.383 . S
C366 C365 1.379 . S
H367 C361 0.959 . S
H368 C361 0.961 . S
H369 C361 0.960 . S
H370 C362 0.930 . S
H371 C363 0.929 . S
H372 C380 0.929 . S
H373 C382 0.930 . S
H374 C384 0.930 . S
H375 C387 0.929 . S
H376 C390 0.930 . S
H377 C392 0.960 . S
H378 C392 0.960 . S
H379 C392 0.960 . S
C380 H372 0.929 . S
C380 C381 1.377 . S
C380 C382 1.384 . S
C381 C380 1.377 . S
C381 C387 1.390 . S
C382 H373 0.930 . S
C382 C380 1.384 . S
C382 C383 1.372 . S
C383 C382 1.372 . S
C383 C384 1.400 . S
C383 C388 1.490 . S
C384 H374 0.930 . S
C384 C383 1.400 . S
C384 C387 1.386 . S
H385 C401 0.930 . S
H386 C402 0.931 . S
C387 H375 0.929 . S
C387 C381 1.390 . S
C387 C384 1.386 . S
C388 C383 1.490 . S
C388 C390 1.395 . S
C388 C391 1.403 . S
H389 C395 0.930 . S
C390 H376 0.930 . S
C390 C388 1.395 . S
C390 C393 1.403 1_455 S
C391 C388 1.403 . S
C391 C392 1.524 . S
C391 C395 1.400 1_455 S
C392 H377 0.960 . S
C392 H378 0.960 . S
C392 H379 0.960 . S
C392 C391 1.524 . S
C393 C390 1.403 1_655 S
C393 C394 1.392 . S
C393 C397 1.495 . S
C394 C393 1.392 . S
C394 C395 1.385 . S
C394 C396 1.478 . S
C395 H389 0.930 . S
C395 C391 1.400 1_655 S
C395 C394 1.385 . S
C396 C394 1.478 . S
C396 C398 1.381 . S
C396 C402 1.383 . S
C397 C393 1.495 . S
C397 H403 0.959 . S
C397 H404 0.961 . S
C397 H405 0.960 . S
C398 C396 1.381 . S
C398 C399 1.394 . S
C398 H406 0.930 . S
C399 C398 1.394 . S
C399 C400 1.383 . S
C399 H407 0.929 . S
C400 C399 1.383 . S
C400 C401 1.377 . S
C401 H385 0.930 . S
C401 C400 1.377 . S
C401 C402 1.379 . S
C402 H386 0.931 . S
C402 C396 1.383 . S
C402 C401 1.379 . S
H403 C397 0.959 . S
H404 C397 0.961 . S
H405 C397 0.960 . S
H406 C398 0.930 . S
H407 C399 0.929 . S
H408 C416 0.929 . S
H409 C418 0.930 . S
H410 C420 0.930 . S
H411 C423 0.929 . S
H412 C426 0.930 . S
H413 C428 0.960 . S
H414 C428 0.960 . S
H415 C428 0.960 . S
C416 H408 0.929 . S
C416 C417 1.377 . S
C416 C418 1.384 . S
C417 C416 1.377 . S
C417 C423 1.390 . S
C418 H409 0.930 . S
C418 C416 1.384 . S
C418 C419 1.372 . S
C419 C418 1.372 . S
C419 C420 1.400 . S
C419 C424 1.490 . S
C420 H410 0.930 . S
C420 C419 1.400 . S
C420 C423 1.386 . S
H421 C437 0.930 . S
H422 C438 0.931 . S
C423 H411 0.929 . S
C423 C417 1.390 . S
C423 C420 1.386 . S
C424 C419 1.490 . S
C424 C426 1.395 . S
C424 C427 1.403 . S
H425 C431 0.930 . S
C426 H412 0.930 . S
C426 C424 1.395 . S
C426 C429 1.403 1_545 S
C427 C424 1.403 . S
C427 C428 1.524 . S
C427 C431 1.400 1_545 S
C428 H413 0.960 . S
C428 H414 0.960 . S
C428 H415 0.960 . S
C428 C427 1.524 . S
C429 C426 1.403 1_565 S
C429 C430 1.392 . S
C429 C433 1.495 . S
C430 C429 1.392 . S
C430 C431 1.385 . S
C430 C432 1.478 . S
C431 H425 0.930 . S
C431 C427 1.400 1_565 S
C431 C430 1.385 . S
C432 C430 1.478 . S
C432 C434 1.381 . S
C432 C438 1.383 . S
C433 C429 1.495 . S
C433 H439 0.959 . S
C433 H440 0.961 . S
C433 H441 0.960 . S
C434 C432 1.381 . S
C434 C435 1.394 . S
C434 H442 0.930 . S
C435 C434 1.394 . S
C435 C436 1.383 . S
C435 H443 0.929 . S
C436 C435 1.383 . S
C436 C437 1.377 . S
C437 H421 0.930 . S
C437 C436 1.377 . S
C437 C438 1.379 . S
C438 H422 0.931 . S
C438 C432 1.383 . S
C438 C437 1.379 . S
H439 C433 0.959 . S
H440 C433 0.961 . S
H441 C433 0.960 . S
H442 C434 0.930 . S
H443 C435 0.929 . S
H444 C452 0.929 . S
H445 C454 0.930 . S
H446 C456 0.930 . S
H447 C459 0.929 . S
H448 C462 0.930 . S
H449 C464 0.960 . S
H450 C464 0.960 . S
H451 C464 0.960 . S
C452 H444 0.929 . S
C452 C453 1.377 . S
C452 C454 1.384 . S
C453 C452 1.377 . S
C453 C459 1.390 . S
C454 H445 0.930 . S
C454 C452 1.384 . S
C454 C455 1.372 . S
C455 C454 1.372 . S
C455 C456 1.400 . S
C455 C460 1.490 . S
C456 H446 0.930 . S
C456 C455 1.400 . S
C456 C459 1.386 . S
H457 C473 0.930 . S
H458 C474 0.931 . S
C459 H447 0.929 . S
C459 C453 1.390 . S
C459 C456 1.386 . S
C460 C455 1.490 . S
C460 C462 1.395 . S
C460 C463 1.403 . S
H461 C467 0.930 . S
C462 H448 0.930 . S
C462 C460 1.395 . S
C462 C465 1.403 . S
C463 C460 1.403 . S
C463 C464 1.524 . S
C463 C467 1.400 . S
C464 H449 0.960 . S
C464 H450 0.960 . S
C464 H451 0.960 . S
C464 C463 1.524 . S
C465 C462 1.403 . S
C465 C466 1.392 . S
C465 C469 1.495 . S
C466 C465 1.392 . S
C466 C467 1.385 . S
C466 C468 1.478 . S
C467 H461 0.930 . S
C467 C463 1.400 . S
C467 C466 1.385 . S
C468 C466 1.478 . S
C468 C470 1.381 . S
C468 C474 1.383 . S
C469 C465 1.495 . S
C469 H475 0.959 . S
C469 H476 0.961 . S
C469 H477 0.960 . S
C470 C468 1.381 . S
C470 C471 1.394 . S
C470 H478 0.930 . S
C471 C470 1.394 . S
C471 C472 1.383 . S
C471 H479 0.929 . S
C472 C471 1.383 . S
C472 C473 1.377 . S
C473 H457 0.930 . S
C473 C472 1.377 . S
C473 C474 1.379 . S
C474 H458 0.931 . S
C474 C468 1.383 . S
C474 C473 1.379 . S
H475 C469 0.959 . S
H476 C469 0.961 . S
H477 C469 0.960 . S
H478 C470 0.930 . S
H479 C471 0.929 . S
H480 C488 0.929 . S
H481 C490 0.930 . S
H482 C492 0.930 . S
H483 C495 0.929 . S
H484 C498 0.930 . S
H485 C500 0.960 . S
H486 C500 0.960 . S
H487 C500 0.960 1_556 S
C488 H480 0.929 . S
C488 C489 1.377 . S
C488 C490 1.384 . S
C489 C488 1.377 . S
C489 C495 1.390 1_554 S
C490 H481 0.930 . S
C490 C488 1.384 . S
C490 C491 1.372 . S
C491 C490 1.372 . S
C491 C492 1.400 1_554 S
C491 C496 1.490 . S
C492 H482 0.930 . S
C492 C491 1.400 1_556 S
C492 C495 1.386 . S
H493 C509 0.930 . S
H494 C510 0.931 . S
C495 H483 0.929 . S
C495 C489 1.390 1_556 S
C495 C492 1.386 . S
C496 C491 1.490 . S
C496 C498 1.395 . S
C496 C499 1.403 1_455 S
H497 C503 0.930 . S
C498 H484 0.930 . S
C498 C496 1.395 . S
C498 C501 1.403 . S
C499 C496 1.403 1_655 S
C499 C500 1.524 . S
C499 C503 1.400 . S
C500 H485 0.960 . S
C500 H486 0.960 . S
C500 H487 0.960 1_554 S
C500 C499 1.524 . S
C501 C498 1.403 . S
C501 C502 1.392 1_455 S
C501 C505 1.495 . S
C502 C501 1.392 1_655 S
C502 C503 1.385 . S
C502 C504 1.478 . S
C503 H497 0.930 . S
C503 C499 1.400 . S
C503 C502 1.385 . S
C504 C502 1.478 . S
C504 C506 1.381 . S
C504 C510 1.383 1_554 S
C505 C501 1.495 . S
C505 H511 0.961 . S
C505 H512 0.961 1_554 S
C505 H513 0.960 . S
C506 C504 1.381 . S
C506 C507 1.394 . S
C506 H514 0.930 . S
C507 C506 1.394 . S
C507 C508 1.383 . S
C507 H515 0.929 . S
C508 C507 1.383 . S
C508 C509 1.377 1_554 S
C509 H493 0.930 . S
C509 C508 1.377 1_556 S
C509 C510 1.379 . S
C510 H494 0.931 . S
C510 C504 1.383 1_556 S
C510 C509 1.379 . S
H511 C505 0.961 . S
H512 C505 0.961 1_556 S
H513 C505 0.960 . S
H514 C506 0.930 . S
H515 C507 0.929 . S
H516 C524 0.929 . S
H517 C526 0.930 . S
H518 C528 0.930 . S
H519 C531 0.929 . S
H520 C534 0.930 . S
H521 C536 0.960 . S
H522 C536 0.960 . S
H523 C536 0.960 . S
C524 H516 0.929 . S
C524 C525 1.377 . S
C524 C526 1.384 . S
C525 C524 1.377 . S
C525 C531 1.390 . S
C526 H517 0.930 . S
C526 C524 1.384 . S
C526 C527 1.372 . S
C527 C526 1.372 . S
C527 C528 1.400 . S
C527 C532 1.490 . S
C528 H518 0.930 . S
C528 C527 1.400 . S
C528 C531 1.386 . S
H529 C545 0.930 . S
H530 C546 0.931 . S
C531 H519 0.929 . S
C531 C525 1.390 . S
C531 C528 1.386 . S
C532 C527 1.490 . S
C532 C534 1.395 . S
C532 C535 1.403 1_565 S
H533 C539 0.930 . S
C534 H520 0.930 . S
C534 C532 1.395 . S
C534 C537 1.403 . S
C535 C532 1.403 1_545 S
C535 C536 1.524 . S
C535 C539 1.400 . S
C536 H521 0.960 . S
C536 H522 0.960 . S
C536 H523 0.960 . S
C536 C535 1.524 . S
C537 C534 1.403 . S
C537 C538 1.392 1_565 S
C537 C541 1.495 . S
C538 C537 1.392 1_545 S
C538 C539 1.385 . S
C538 C540 1.478 . S
C539 H533 0.930 . S
C539 C535 1.400 . S
C539 C538 1.385 . S
C540 C538 1.478 . S
C540 C542 1.381 . S
C540 C546 1.383 . S
C541 C537 1.495 . S
C541 H547 0.959 . S
C541 H548 0.961 . S
C541 H549 0.960 . S
C542 C540 1.381 . S
C542 C543 1.394 . S
C542 H550 0.930 . S
C543 C542 1.394 . S
C543 C544 1.383 . S
C543 H551 0.929 . S
C544 C543 1.383 . S
C544 C545 1.377 . S
C545 H529 0.930 . S
C545 C544 1.377 . S
C545 C546 1.379 . S
C546 H530 0.931 . S
C546 C540 1.383 . S
C546 C545 1.379 . S
H547 C541 0.959 . S
H548 C541 0.961 . S
H549 C541 0.960 . S
H550 C542 0.930 . S
H551 C543 0.929 . S
H552 C560 0.929 . S
H553 C562 0.930 . S
H554 C564 0.930 . S
H555 C567 0.929 . S
H556 C570 0.930 . S
H557 C572 0.960 . S
H558 C572 0.960 . S
H559 C572 0.960 . S
C560 H552 0.929 . S
C560 C561 1.377 . S
C560 C562 1.384 . S
C561 C560 1.377 . S
C561 C567 1.390 . S
C562 H553 0.930 . S
C562 C560 1.384 . S
C562 C563 1.372 . S
C563 C562 1.372 . S
C563 C564 1.400 . S
C563 C568 1.490 . S
C564 H554 0.930 . S
C564 C563 1.400 . S
C564 C567 1.386 . S
H565 C581 0.930 . S
H566 C582 0.931 . S
C567 H555 0.929 . S
C567 C561 1.390 . S
C567 C564 1.386 . S
C568 C563 1.490 . S
C568 C570 1.395 . S
C568 C571 1.403 . S
H569 C575 0.930 . S
C570 H556 0.930 . S
C570 C568 1.395 . S
C570 C573 1.403 . S
C571 C568 1.403 . S
C571 C572 1.524 . S
C571 C575 1.400 . S
C572 H557 0.960 . S
C572 H558 0.960 . S
C572 H559 0.960 . S
C572 C571 1.524 . S
C573 C570 1.403 . S
C573 C574 1.392 . S
C573 C577 1.495 . S
C574 C573 1.392 . S
C574 C575 1.385 . S
C574 C576 1.478 . S
C575 H569 0.930 . S
C575 C571 1.400 . S
C575 C574 1.385 . S
C576 C574 1.478 . S
C576 C578 1.381 . S
C576 C582 1.383 . S
C577 C573 1.495 . S
C577 H583 0.959 . S
C577 H584 0.961 . S
C577 H585 0.960 . S
C578 C576 1.381 . S
C578 C579 1.394 . S
C578 H586 0.930 . S
C579 C578 1.394 . S
C579 C580 1.383 . S
C579 H587 0.929 . S
C580 C579 1.383 . S
C580 C581 1.377 . S
C581 H565 0.930 . S
C581 C580 1.377 . S
C581 C582 1.379 . S
C582 H566 0.931 . S
C582 C576 1.383 . S
C582 C581 1.379 . S
H583 C577 0.959 . S
H584 C577 0.961 . S
H585 C577 0.960 . S
H586 C578 0.930 . S
H587 C579 0.929 . S
H588 C596 0.929 . S
H589 C598 0.930 . S
H590 C600 0.930 . S
H591 C603 0.929 . S
H592 C606 0.930 . S
H593 C608 0.960 . S
H594 C608 0.960 . S
H595 C608 0.960 . S
C596 H588 0.929 . S
C596 C597 1.377 . S
C596 C598 1.384 . S
C597 C596 1.377 . S
C597 C603 1.390 . S
C598 H589 0.930 . S
C598 C596 1.384 . S
C598 C599 1.372 . S
C599 C598 1.372 . S
C599 C600 1.400 . S
C599 C604 1.490 . S
C600 H590 0.930 . S
C600 C599 1.400 . S
C600 C603 1.386 . S
H601 C617 0.930 . S
H602 C618 0.931 . S
C603 H591 0.929 . S
C603 C597 1.390 . S
C603 C600 1.386 . S
C604 C599 1.490 . S
C604 C606 1.395 . S
C604 C607 1.403 1_655 S
H605 C611 0.930 . S
C606 H592 0.930 . S
C606 C604 1.395 . S
C606 C609 1.403 . S
C607 C604 1.403 1_455 S
C607 C608 1.524 . S
C607 C611 1.400 . S
C608 H593 0.960 . S
C608 H594 0.960 . S
C608 H595 0.960 . S
C608 C607 1.524 . S
C609 C606 1.403 . S
C609 C610 1.392 1_655 S
C609 C613 1.495 . S
C610 C609 1.392 1_455 S
C610 C611 1.385 . S
C610 C612 1.478 . S
C611 H605 0.930 . S
C611 C607 1.400 . S
C611 C610 1.385 . S
C612 C610 1.478 . S
C612 C614 1.381 . S
C612 C618 1.383 . S
C613 C609 1.495 . S
C613 H619 0.959 . S
C613 H620 0.961 . S
C613 H621 0.960 . S
C614 C612 1.381 . S
C614 C615 1.394 . S
C614 H622 0.930 . S
C615 C614 1.394 . S
C615 C616 1.383 . S
C615 H623 0.929 . S
C616 C615 1.383 . S
C616 C617 1.377 . S
C617 H601 0.930 . S
C617 C616 1.377 . S
C617 C618 1.379 . S
C618 H602 0.931 . S
C618 C612 1.383 . S
C618 C617 1.379 . S
H619 C613 0.959 . S
H620 C613 0.961 . S
H621 C613 0.960 . S
H622 C614 0.930 . S
H623 C615 0.929 . S
H624 C632 0.929 . S
H625 C634 0.930 . S
H626 C636 0.930 . S
H627 C639 0.929 . S
H628 C642 0.930 . S
H629 C644 0.960 . S
H630 C644 0.960 . S
H631 C644 0.960 . S
C632 H624 0.929 . S
C632 C633 1.377 . S
C632 C634 1.384 . S
C633 C632 1.377 . S
C633 C639 1.390 . S
C634 H625 0.930 . S
C634 C632 1.384 . S
C634 C635 1.372 . S
C635 C634 1.372 . S
C635 C636 1.400 . S
C635 C640 1.490 . S
C636 H626 0.930 . S
C636 C635 1.400 . S
C636 C639 1.386 . S
H637 C653 0.930 . S
H638 C654 0.931 . S
C639 H627 0.929 . S
C639 C633 1.390 . S
C639 C636 1.386 . S
C640 C635 1.490 . S
C640 C642 1.395 . S
C640 C643 1.403 1_565 S
H641 C647 0.930 . S
C642 H628 0.930 . S
C642 C640 1.395 . S
C642 C645 1.403 1_565 S
C643 C640 1.403 1_545 S
C643 C644 1.524 . S
C643 C647 1.400 . S
C644 H629 0.960 . S
C644 H630 0.960 . S
C644 H631 0.960 . S
C644 C643 1.524 . S
C645 C642 1.403 1_545 S
C645 C646 1.392 . S
C645 C649 1.495 . S
C646 C645 1.392 . S
C646 C647 1.385 . S
C646 C648 1.478 . S
C647 H641 0.930 . S
C647 C643 1.400 . S
C647 C646 1.385 . S
C648 C646 1.478 . S
C648 C650 1.381 . S
C648 C654 1.383 . S
C649 C645 1.495 . S
C649 H655 0.959 1_545 S
C649 H656 0.961 1_545 S
C649 H657 0.960 . S
C650 C648 1.381 . S
C650 C651 1.394 . S
C650 H658 0.930 . S
C651 C650 1.394 . S
C651 C652 1.383 . S
C651 H659 0.929 . S
C652 C651 1.383 . S
C652 C653 1.377 . S
C653 H637 0.930 . S
C653 C652 1.377 . S
C653 C654 1.379 . S
C654 H638 0.931 . S
C654 C648 1.383 . S
C654 C653 1.379 . S
H655 C649 0.959 1_565 S
H656 C649 0.961 1_565 S
H657 C649 0.960 . S
H658 C650 0.930 . S
H659 C651 0.929 . S
H660 C668 0.929 . S
H661 C670 0.930 . S
H662 C672 0.930 . S
H663 C675 0.929 . S
H664 C678 0.930 . S
H665 C680 0.960 . S
H666 C680 0.960 . S
H667 C680 0.960 . S
C668 H660 0.929 . S
C668 C669 1.377 . S
C668 C670 1.384 . S
C669 C668 1.377 . S
C669 C675 1.390 . S
C670 H661 0.930 . S
C670 C668 1.384 . S
C670 C671 1.372 . S
C671 C670 1.372 . S
C671 C672 1.400 . S
C671 C676 1.490 . S
C672 H662 0.930 . S
C672 C671 1.400 . S
C672 C675 1.386 . S
H673 C689 0.930 . S
H674 C690 0.931 . S
C675 H663 0.929 . S
C675 C669 1.390 . S
C675 C672 1.386 . S
C676 C671 1.490 . S
C676 C678 1.395 . S
C676 C679 1.403 . S
H677 C683 0.930 . S
C678 H664 0.930 . S
C678 C676 1.395 . S
C678 C681 1.403 . S
C679 C676 1.403 . S
C679 C680 1.524 . S
C679 C683 1.400 . S
C680 H665 0.960 . S
C680 H666 0.960 . S
C680 H667 0.960 . S
C680 C679 1.524 . S
C681 C678 1.403 . S
C681 C682 1.392 . S
C681 C685 1.495 . S
C682 C681 1.392 . S
C682 C683 1.385 . S
C682 C684 1.478 . S
C683 H677 0.930 . S
C683 C679 1.400 . S
C683 C682 1.385 . S
C684 C682 1.478 . S
C684 C686 1.381 . S
C684 C690 1.383 . S
C685 C681 1.495 . S
C685 H691 0.959 . S
C685 H692 0.961 . S
C685 H693 0.960 . S
C686 C684 1.381 . S
C686 C687 1.394 . S
C686 H694 0.930 . S
C687 C686 1.394 . S
C687 C688 1.383 . S
C687 H695 0.929 . S
C688 C687 1.383 . S
C688 C689 1.377 . S
C689 H673 0.930 . S
C689 C688 1.377 . S
C689 C690 1.379 . S
C690 H674 0.931 . S
C690 C684 1.383 . S
C690 C689 1.379 . S
H691 C685 0.959 . S
H692 C685 0.961 . S
H693 C685 0.960 . S
H694 C686 0.930 . S
H695 C687 0.929 . S
H696 C704 0.929 . S
H697 C706 0.930 . S
H698 C708 0.930 . S
H699 C711 0.929 . S
H700 C714 0.930 . S
H701 C716 0.960 . S
H702 C716 0.960 . S
H703 C716 0.960 . S
C704 H696 0.929 . S
C704 C705 1.377 . S
C704 C706 1.384 . S
C705 C704 1.377 . S
C705 C711 1.390 . S
C706 H697 0.930 . S
C706 C704 1.384 . S
C706 C707 1.372 . S
C707 C706 1.372 . S
C707 C708 1.400 . S
C707 C712 1.490 . S
C708 H698 0.930 . S
C708 C707 1.400 . S
C708 C711 1.386 . S
H709 C725 0.930 . S
H710 C726 0.931 . S
C711 H699 0.929 . S
C711 C705 1.390 . S
C711 C708 1.386 . S
C712 C707 1.490 . S
C712 C714 1.395 1_455 S
C712 C715 1.403 . S
H713 C719 0.930 . S
C714 H700 0.930 . S
C714 C712 1.395 1_655 S
C714 C717 1.403 . S
C715 C712 1.403 . S
C715 C716 1.524 . S
C715 C719 1.400 1_455 S
C716 H701 0.960 . S
C716 H702 0.960 . S
C716 H703 0.960 . S
C716 C715 1.524 . S
C717 C714 1.403 . S
C717 C718 1.392 . S
C717 C721 1.495 . S
C718 C717 1.392 . S
C718 C719 1.385 . S
C718 C720 1.478 . S
C719 H713 0.930 . S
C719 C715 1.400 1_655 S
C719 C718 1.385 . S
C720 C718 1.478 . S
C720 C722 1.381 . S
C720 C726 1.383 . S
C721 C717 1.495 . S
C721 H727 0.959 . S
C721 H728 0.961 . S
C721 H729 0.960 . S
C722 C720 1.381 . S
C722 C723 1.394 . S
C722 H730 0.930 . S
C723 C722 1.394 . S
C723 C724 1.383 . S
C723 H731 0.929 . S
C724 C723 1.383 . S
C724 C725 1.377 . S
C725 H709 0.930 . S
C725 C724 1.377 . S
C725 C726 1.379 . S
C726 H710 0.931 . S
C726 C720 1.383 . S
C726 C725 1.379 . S
H727 C721 0.959 . S
H728 C721 0.961 . S
H729 C721 0.960 . S
H730 C722 0.930 . S
H731 C723 0.929 . S
H732 C740 0.929 . S
H733 C742 0.930 . S
H734 C744 0.930 . S
H735 C747 0.929 . S
H736 C750 0.930 . S
H737 C752 0.960 . S
H738 C752 0.960 . S
H739 C752 0.960 1_545 S
C740 H732 0.929 . S
C740 C741 1.377 . S
C740 C742 1.384 . S
C741 C740 1.377 . S
C741 C747 1.390 . S
C742 H733 0.930 . S
C742 C740 1.384 . S
C742 C743 1.372 . S
C743 C742 1.372 . S
C743 C744 1.400 . S
C743 C748 1.490 . S
C744 H734 0.930 . S
C744 C743 1.400 . S
C744 C747 1.386 . S
H745 C761 0.930 . S
H746 C762 0.931 . S
C747 H735 0.929 . S
C747 C741 1.390 . S
C747 C744 1.386 . S
C748 C743 1.490 . S
C748 C750 1.395 . S
C748 C751 1.403 1_545 S
H749 C755 0.930 . S
C750 H736 0.930 . S
C750 C748 1.395 . S
C750 C753 1.403 1_545 S
C751 C748 1.403 1_565 S
C751 C752 1.524 . S
C751 C755 1.400 . S
C752 H737 0.960 . S
C752 H738 0.960 . S
C752 H739 0.960 1_565 S
C752 C751 1.524 . S
C753 C750 1.403 1_565 S
C753 C754 1.392 . S
C753 C757 1.495 . S
C754 C753 1.392 . S
C754 C755 1.385 . S
C754 C756 1.478 . S
C755 H749 0.930 . S
C755 C751 1.400 . S
C755 C754 1.385 . S
C756 C754 1.478 . S
C756 C758 1.381 . S
C756 C762 1.383 . S
C757 C753 1.495 . S
C757 H763 0.959 1_565 S
C757 H764 0.961 1_565 S
C757 H765 0.960 . S
C758 C756 1.381 . S
C758 C759 1.394 . S
C758 H766 0.930 . S
C759 C758 1.394 . S
C759 C760 1.383 . S
C759 H767 0.929 . S
C760 C759 1.383 . S
C760 C761 1.377 . S
C761 H745 0.930 . S
C761 C760 1.377 . S
C761 C762 1.379 . S
C762 H746 0.931 . S
C762 C756 1.383 . S
C762 C761 1.379 . S
H763 C757 0.959 1_545 S
H764 C757 0.961 1_545 S
H765 C757 0.960 . S
H766 C758 0.930 . S
H767 C759 0.929 . S
C129 C82 0.954 . S
C148 C12 1.021 . S
C165 C102 0.959 . S
C184 C32 0.960 . S
C201 C2 0.963 . S
C220 C52 1.000 . S
C237 C22 0.952 . S
C256 C72 0.980 . S
C273 C42 0.968 . S
C292 C92 0.983 . S
C309 C62 0.951 . S
C328 C112 0.985 . S
C345 C18 0.698 . S
C364 C78 0.705 . S
C381 C98 0.694 . S
C400 C38 0.686 . S
C417 C118 0.706 . S
C436 C58 0.711 . S
C453 C59 0.818 . S
C472 C119 0.777 . S
C489 C19 0.833 . S
C508 C79 0.875 . S
C525 C99 0.830 . S
C544 C39 0.869 . S
C561 C104 0.888 . S
C580 C9 0.863 . S
C597 C29 0.932 . S
C616 C4 0.911 . S
C633 C49 0.924 . S
C652 C24 0.957 . S
C669 C44 0.882 . S
C688 C69 0.868 . S
C705 C89 0.916 . S
C724 C64 0.820 . S
C741 C109 0.922 . S
C760 C84 0.958 . S
