# Generated by pormake.
# Topology uno, (4)-cn, num edge types: 1
# Building blocks:
#     Node 0, Type 0, BuildingBlock: NAWXER_clean_sbu_0, # of connection points: 4
#     Node 1, Type 0, BuildingBlock: NAWXER_clean_sbu_0, # of connection points: 4
#     Node 2, Type 0, BuildingBlock: NAWXER_clean_sbu_0, # of connection points: 4
#     Node 3, Type 0, BuildingBlock: NAWXER_clean_sbu_0, # of connection points: 4
#     Node 4, Type 0, BuildingBlock: NAWXER_clean_sbu_0, # of connection points: 4
#     Node 5, Type 0, BuildingBlock: NAWXER_clean_sbu_0, # of connection points: 4
#     Node 6, Type 0, BuildingBlock: NAWXER_clean_sbu_0, # of connection points: 4
#     Node 7, Type 0, BuildingBlock: NAWXER_clean_sbu_0, # of connection points: 4
#     Node 8, Type 0, BuildingBlock: NAWXER_clean_sbu_0, # of connection points: 4
#     Node 9, Type 0, BuildingBlock: NAWXER_clean_sbu_0, # of connection points: 4
#     Node 10, Type 0, BuildingBlock: NAWXER_clean_sbu_0, # of connection points: 4
#     Node 11, Type 0, BuildingBlock: NAWXER_clean_sbu_0, # of connection points: 4
#     Node 12, Type 0, BuildingBlock: NAWXER_clean_sbu_0, # of connection points: 4
#     Node 13, Type 0, BuildingBlock: NAWXER_clean_sbu_0, # of connection points: 4
#     Node 14, Type 0, BuildingBlock: NAWXER_clean_sbu_0, # of connection points: 4
#     Node 15, Type 0, BuildingBlock: NAWXER_clean_sbu_0, # of connection points: 4
#     Node 16, Type 0, BuildingBlock: NAWXER_clean_sbu_0, # of connection points: 4
#     Node 17, Type 0, BuildingBlock: NAWXER_clean_sbu_0, # of connection points: 4
#     Node 18, Type 0, BuildingBlock: NAWXER_clean_sbu_0, # of connection points: 4
#     Node 19, Type 0, BuildingBlock: NAWXER_clean_sbu_0, # of connection points: 4
#     Node 20, Type 0, BuildingBlock: NAWXER_clean_sbu_0, # of connection points: 4
#     Node 21, Type 0, BuildingBlock: NAWXER_clean_sbu_0, # of connection points: 4
#     Node 22, Type 0, BuildingBlock: NAWXER_clean_sbu_0, # of connection points: 4
#     Node 23, Type 0, BuildingBlock: NAWXER_clean_sbu_0, # of connection points: 4
#     Edge 24, Type (0, 0), BuildingBlock: AJUNOK_clean_linker_0, # of connection points: 2
#     Edge 25, Type (0, 0), BuildingBlock: AJUNOK_clean_linker_0, # of connection points: 2
#     Edge 26, Type (0, 0), BuildingBlock: AJUNOK_clean_linker_0, # of connection points: 2
#     Edge 27, Type (0, 0), BuildingBlock: AJUNOK_clean_linker_0, # of connection points: 2
#     Edge 28, Type (0, 0), BuildingBlock: AJUNOK_clean_linker_0, # of connection points: 2
#     Edge 29, Type (0, 0), BuildingBlock: AJUNOK_clean_linker_0, # of connection points: 2
#     Edge 30, Type (0, 0), BuildingBlock: AJUNOK_clean_linker_0, # of connection points: 2
#     Edge 31, Type (0, 0), BuildingBlock: AJUNOK_clean_linker_0, # of connection points: 2
#     Edge 32, Type (0, 0), BuildingBlock: AJUNOK_clean_linker_0, # of connection points: 2
#     Edge 33, Type (0, 0), BuildingBlock: AJUNOK_clean_linker_0, # of connection points: 2
#     Edge 34, Type (0, 0), BuildingBlock: AJUNOK_clean_linker_0, # of connection points: 2
#     Edge 35, Type (0, 0), BuildingBlock: AJUNOK_clean_linker_0, # of connection points: 2
#     Edge 36, Type (0, 0), BuildingBlock: AJUNOK_clean_linker_0, # of connection points: 2
#     Edge 37, Type (0, 0), BuildingBlock: AJUNOK_clean_linker_0, # of connection points: 2
#     Edge 38, Type (0, 0), BuildingBlock: AJUNOK_clean_linker_0, # of connection points: 2
#     Edge 39, Type (0, 0), BuildingBlock: AJUNOK_clean_linker_0, # of connection points: 2
#     Edge 40, Type (0, 0), BuildingBlock: AJUNOK_clean_linker_0, # of connection points: 2
#     Edge 41, Type (0, 0), BuildingBlock: AJUNOK_clean_linker_0, # of connection points: 2
#     Edge 42, Type (0, 0), BuildingBlock: AJUNOK_clean_linker_0, # of connection points: 2
#     Edge 43, Type (0, 0), BuildingBlock: AJUNOK_clean_linker_0, # of connection points: 2
#     Edge 44, Type (0, 0), BuildingBlock: AJUNOK_clean_linker_0, # of connection points: 2
#     Edge 45, Type (0, 0), BuildingBlock: AJUNOK_clean_linker_0, # of connection points: 2
#     Edge 46, Type (0, 0), BuildingBlock: AJUNOK_clean_linker_0, # of connection points: 2
#     Edge 47, Type (0, 0), BuildingBlock: AJUNOK_clean_linker_0, # of connection points: 2
#     Edge 48, Type (0, 0), BuildingBlock: AJUNOK_clean_linker_0, # of connection points: 2
#     Edge 49, Type (0, 0), BuildingBlock: AJUNOK_clean_linker_0, # of connection points: 2
#     Edge 50, Type (0, 0), BuildingBlock: AJUNOK_clean_linker_0, # of connection points: 2
#     Edge 51, Type (0, 0), BuildingBlock: AJUNOK_clean_linker_0, # of connection points: 2
#     Edge 52, Type (0, 0), BuildingBlock: AJUNOK_clean_linker_0, # of connection points: 2
#     Edge 53, Type (0, 0), BuildingBlock: AJUNOK_clean_linker_0, # of connection points: 2
#     Edge 54, Type (0, 0), BuildingBlock: AJUNOK_clean_linker_0, # of connection points: 2
#     Edge 55, Type (0, 0), BuildingBlock: AJUNOK_clean_linker_0, # of connection points: 2
#     Edge 56, Type (0, 0), BuildingBlock: AJUNOK_clean_linker_0, # of connection points: 2
#     Edge 57, Type (0, 0), BuildingBlock: AJUNOK_clean_linker_0, # of connection points: 2
#     Edge 58, Type (0, 0), BuildingBlock: AJUNOK_clean_linker_0, # of connection points: 2
#     Edge 59, Type (0, 0), BuildingBlock: AJUNOK_clean_linker_0, # of connection points: 2
#     Edge 60, Type (0, 0), BuildingBlock: AJUNOK_clean_linker_0, # of connection points: 2
#     Edge 61, Type (0, 0), BuildingBlock: AJUNOK_clean_linker_0, # of connection points: 2
#     Edge 62, Type (0, 0), BuildingBlock: AJUNOK_clean_linker_0, # of connection points: 2
#     Edge 63, Type (0, 0), BuildingBlock: AJUNOK_clean_linker_0, # of connection points: 2
#     Edge 64, Type (0, 0), BuildingBlock: AJUNOK_clean_linker_0, # of connection points: 2
#     Edge 65, Type (0, 0), BuildingBlock: AJUNOK_clean_linker_0, # of connection points: 2
#     Edge 66, Type (0, 0), BuildingBlock: AJUNOK_clean_linker_0, # of connection points: 2
#     Edge 67, Type (0, 0), BuildingBlock: AJUNOK_clean_linker_0, # of connection points: 2
#     Edge 68, Type (0, 0), BuildingBlock: AJUNOK_clean_linker_0, # of connection points: 2
#     Edge 69, Type (0, 0), BuildingBlock: AJUNOK_clean_linker_0, # of connection points: 2
#     Edge 70, Type (0, 0), BuildingBlock: AJUNOK_clean_linker_0, # of connection points: 2
#     Edge 71, Type (0, 0), BuildingBlock: AJUNOK_clean_linker_0, # of connection points: 2
# Relax obj value: 0.465
# Max RMSD: 0.255
# Mean RMSD: 0.237
data_MOF--net-uno--node1-NAWXER_clean_sbu_0--edge1-AJUNOK_clean_linker_0
_symmetry_space_group_name_H-M    P1
_symmetry_Int_Tables_number       1
_symmetry_cell_setting            triclinic
loop_
_symmetry_equiv_pos_as_xyz
'x, y, z'
_cell_length_a     37.078522
_cell_length_b     37.050954
_cell_length_c     37.090369
_cell_angle_alpha  89.793896
_cell_angle_beta   89.788919
_cell_angle_gamma 89.711808
loop_
_atom_site_label
_atom_site_type_symbol
_atom_site_fract_x
_atom_site_fract_y
_atom_site_fract_z
_atom_type_partial_charge
C0 C 0.03996 0.25324 0.25698 0.0
C1 C 0.13423 0.3223 0.20244 0.0
O2 O 0.04218 0.2641 0.22459 0.0
Zn3 Zn 0.08116 0.29675 0.23105 0.0
O4 O 0.05708 0.27031 0.28171 0.0
Zn5 Zn 0.09953 0.31175 0.28158 0.0
O6 O 0.0825 0.35738 0.30129 0.0
O7 O 0.05943 0.34724 0.2478 0.0
O8 O 0.13515 0.32587 0.23686 0.0
O9 O 0.10663 0.30842 0.18807 0.0
O10 O 0.11981 0.26069 0.25762 0.0
O11 O 0.13389 0.2852 0.31015 0.0
C12 C 0.06293 0.36765 0.2753 0.0
C13 C 0.13686 0.25941 0.28768 0.0
C14 C 0.99381 0.76785 0.51841 0.0
C15 C 0.98291 0.86031 0.42944 0.0
O16 O 0.99595 0.7646 0.48443 0.0
Zn17 Zn 0.97589 0.81068 0.47244 0.0
O18 O 0.97589 0.79455 0.53165 0.0
Zn19 Zn 0.95235 0.84442 0.50951 0.0
O20 O 0.90053 0.84456 0.51399 0.0
O21 O 0.91795 0.80322 0.47551 0.0
O22 O 0.96869 0.87082 0.45926 0.0
O23 O 0.98768 0.8269 0.42401 0.0
O24 O 0.01178 0.84595 0.50567 0.0
O25 O 0.97526 0.87676 0.54171 0.0
C26 C 0.89251 0.81925 0.49286 0.0
C27 C 0.00704 0.86936 0.53092 0.0
C28 C 0.48165 0.74588 0.76832 0.0
C29 C 0.37813 0.69247 0.7117 0.0
O30 O 0.4765 0.73892 0.7353 0.0
Zn31 Zn 0.43299 0.71249 0.74098 0.0
O32 O 0.46149 0.73078 0.79228 0.0
Zn33 Zn 0.41312 0.69664 0.79111 0.0
O34 O 0.42473 0.6486 0.80905 0.0
O35 O 0.44852 0.65888 0.75556 0.0
O36 O 0.37689 0.68749 0.74599 0.0
O37 O 0.40641 0.70566 0.69773 0.0
O38 O 0.39953 0.75176 0.76986 0.0
O39 O 0.38188 0.72583 0.82083 0.0
C40 C 0.44296 0.63766 0.78228 0.0
C41 C 0.38244 0.7532 0.80002 0.0
C42 C 0.62828 0.19425 0.02329 0.0
C43 C 0.51391 0.13212 0.04161 0.0
O44 O 0.61823 0.17453 0.04935 0.0
Zn45 Zn 0.56957 0.16391 0.03289 0.0
O46 O 0.60632 0.20111 0.99759 0.0
Zn47 Zn 0.55269 0.18604 0.98409 0.0
O48 O 0.5257 0.22976 0.9812 0.0
O49 O 0.53493 0.21225 0.03717 0.0
O50 O 0.51461 0.15094 0.01244 0.0
O51 O 0.54135 0.13127 0.06214 0.0
O52 O 0.5768 0.12916 0.98617 0.0
O53 O 0.55825 0.16106 0.9396 0.0
C54 C 0.51922 0.23354 0.01454 0.0
C55 C 0.57069 0.1317 0.95219 0.0
C56 C 0.02857 0.97825 0.34427 0.0
C57 C 0.01923 0.10283 0.29638 0.0
O58 O 0.00152 0.99712 0.35403 0.0
Zn59 Zn 0.97672 0.04745 0.347 0.0
O60 O 0.05213 0.99139 0.32273 0.0
Zn61 Zn 0.02713 0.03883 0.31693 0.0
O62 O 0.03333 0.05791 0.37012 0.0
O63 O 0.98048 0.06278 0.39753 0.0
O64 O 0.04319 0.07964 0.28764 0.0
O65 O 0.99373 0.0937 0.31786 0.0
O66 O 0.93303 0.02903 0.32369 0.0
O67 O 0.98142 0.01953 0.29034 0.0
C68 C 0.01481 0.06516 0.39834 0.0
C69 C 0.94767 0.01546 0.29561 0.0
C70 C 0.23795 0.73302 0.53077 0.0
C71 C 0.18924 0.7904 0.63612 0.0
O72 O 0.23029 0.766 0.53569 0.0
Zn73 Zn 0.20599 0.76102 0.58082 0.0
O74 O 0.22384 0.70918 0.55169 0.0
Zn75 Zn 0.19003 0.71077 0.60013 0.0
O76 O 0.14146 0.69406 0.58814 0.0
O77 O 0.1509 0.74999 0.57055 0.0
O78 O 0.18268 0.75634 0.63726 0.0
O79 O 0.20221 0.80409 0.6075 0.0
O80 O 0.24513 0.73125 0.61335 0.0
O81 O 0.21914 0.68041 0.63122 0.0
C82 C 0.12961 0.72325 0.57469 0.0
C83 C 0.24644 0.70113 0.63055 0.0
C84 C 0.53033 0.88657 0.8098 0.0
C85 C 0.55068 1.0008 0.87105 0.0
O86 O 0.55631 0.89588 0.82972 0.0
Zn87 Zn 0.54077 0.94493 0.84001 0.0
O88 O 0.50547 0.90948 0.80232 0.0
Zn89 Zn 0.49313 0.9639 0.8167 0.0
O90 O 0.49277 0.99089 0.77278 0.0
O91 O 0.54766 0.97901 0.79201 0.0
O92 O 0.52186 1.00112 0.85193 0.0
O93 O 0.56982 0.97226 0.87317 0.0
O94 O 0.49274 0.93882 0.87306 0.0
O95 O 0.44762 0.95995 0.84077 0.0
C96 C 0.5265 0.99583 0.77015 0.0
C97 C 0.45899 0.94606 0.86991 0.0
C98 C 0.38046 0.28481 0.06124 0.0
C99 C 0.26695 0.3075 0.12404 0.0
O100 O 0.37033 0.31251 0.07848 0.0
Zn101 Zn 0.3221 0.29645 0.09195 0.0
O102 O 0.35862 0.25857 0.05704 0.0
Zn103 Zn 0.30488 0.24661 0.07346 0.0
O104 O 0.27744 0.24143 0.03054 0.0
O105 O 0.28598 0.29833 0.04474 0.0
O106 O 0.26722 0.27718 0.10735 0.0
O107 O 0.2947 0.32757 0.12365 0.0
O108 O 0.33083 0.25127 0.12907 0.0
O109 O 0.31078 0.20342 0.10062 0.0
C110 C 0.26999 0.27446 0.02544 0.0
C111 C 0.32475 0.21715 0.12851 0.0
C112 C 0.31515 0.13045 0.25753 0.0
C113 C 0.28508 0.07231 0.37207 0.0
O114 O 0.3335 0.13169 0.2865 0.0
Zn115 Zn 0.30306 0.0981 0.31291 0.0
O116 O 0.28654 0.11114 0.25618 0.0
Zn117 Zn 0.25574 0.07599 0.29186 0.0
O118 O 0.211 0.10097 0.29098 0.0
O119 O 0.25508 0.13212 0.31569 0.0
O120 O 0.26117 0.06666 0.34805 0.0
O121 O 0.31467 0.08694 0.36323 0.0
O122 O 0.31126 0.05084 0.27939 0.0
O123 O 0.2571 0.03057 0.26701 0.0
C124 C 0.22204 0.1298 0.30569 0.0
C125 C 0.29097 0.02863 0.2625 0.0
C126 C 0.12935 0.95955 0.55869 0.0
C127 C 0.22282 0.03363 0.50877 0.0
O128 O 0.15801 0.95089 0.54191 0.0
Zn129 Zn 0.17804 0.9974 0.54109 0.0
O130 O 0.1249 0.99236 0.56927 0.0
Zn131 Zn 0.156 0.04313 0.56354 0.0
O132 O 0.11833 0.07224 0.54303 0.0
O133 O 0.13584 0.02586 0.50944 0.0
O134 O 0.19998 0.05378 0.52552 0.0
O135 O 0.22157 0.99989 0.51354 0.0
O136 O 0.19093 0.00297 0.59695 0.0
O137 O 0.17045 0.05652 0.6122 0.0
C138 C 0.1153 0.05352 0.51457 0.0
C139 C 0.18642 0.0275 0.62074 0.0
C140 C 0.20553 0.87596 0.76462 0.0
C141 C 0.22549 0.94528 0.874 0.0
O142 O 0.18667 0.87514 0.79337 0.0
Zn143 Zn 0.21515 0.91072 0.81819 0.0
O144 O 0.23352 0.89617 0.76267 0.0
Zn145 Zn 0.2617 0.93464 0.79682 0.0
O146 O 0.30799 0.91184 0.80125 0.0
O147 O 0.26412 0.87937 0.82458 0.0
O148 O 0.2496 0.95207 0.85016 0.0
O149 O 0.20036 0.92348 0.86679 0.0
O150 O 0.206 0.95628 0.78163 0.0
O151 O 0.25974 0.97704 0.76705 0.0
C152 C 0.29758 0.88291 0.81638 0.0
C153 C 0.22578 0.97785 0.76295 0.0
C154 C 0.38293 0.04905 0.05626 0.0
C155 C 0.27573 0.99295 0.01158 0.0
O156 O 0.35418 0.06314 0.04402 0.0
Zn157 Zn 0.32683 0.02029 0.04181 0.0
O158 O 0.38382 0.01497 0.06306 0.0
Zn159 Zn 0.34593 0.96983 0.05724 0.0
O160 O 0.37572 0.93914 0.02746 0.0
O161 O 0.35801 0.99024 0.0016 0.0
O162 O 0.29669 0.96878 0.02512 0.0
O163 O 0.28092 0.02577 0.01932 0.0
O164 O 0.31867 0.00935 0.0976 0.0
O165 O 0.33557 0.95299 0.10616 0.0
C166 C 0.37468 0.9598 0.99998 0.0
C167 C 0.32312 0.98229 0.11864 0.0
C168 C 0.76957 0.24084 0.97975 0.0
C169 C 0.82329 0.30302 0.87943 0.0
O170 O 0.77706 0.27399 0.97638 0.0
Zn171 Zn 0.80431 0.27081 0.93305 0.0
O172 O 0.78549 0.21784 0.95907 0.0
Zn173 Zn 0.8216 0.22198 0.91182 0.0
O174 O 0.87005 0.20516 0.92345 0.0
O175 O 0.85816 0.25776 0.94817 0.0
O176 O 0.82954 0.26896 0.87698 0.0
O177 O 0.80983 0.31543 0.90832 0.0
O178 O 0.76679 0.24243 0.89742 0.0
O179 O 0.79452 0.19273 0.87878 0.0
C180 C 0.88018 0.2318 0.94204 0.0
C181 C 0.76678 0.21311 0.87898 0.0
C182 C 0.04365 0.50822 0.13794 0.0
C183 C 0.02156 0.62084 0.20226 0.0
O184 O 0.06337 0.53624 0.13814 0.0
Zn185 Zn 0.03268 0.56285 0.17076 0.0
O186 O 0.01371 0.50789 0.15553 0.0
Zn187 Zn 0.9836 0.54503 0.19078 0.0
O188 O 0.93972 0.55083 0.16503 0.0
O189 O 0.98681 0.57087 0.13494 0.0
O190 O 0.99586 0.59851 0.20766 0.0
O191 O 0.04845 0.61129 0.18341 0.0
O192 O 0.03583 0.52598 0.21764 0.0
O193 O 0.97928 0.51688 0.23342 0.0
C194 C 0.95281 0.56448 0.13651 0.0
C195 C 0.01242 0.50944 0.23733 0.0
C196 C 0.7442 0.77389 0.46928 0.0
C197 C 0.68159 0.70734 0.37864 0.0
O198 O 0.73728 0.7404 0.46886 0.0
Zn199 Zn 0.70339 0.74102 0.43018 0.0
O200 O 0.72422 0.79563 0.45087 0.0
Zn201 Zn 0.68232 0.78872 0.40936 0.0
O202 O 0.63526 0.80434 0.42604 0.0
O203 O 0.65136 0.75315 0.4516 0.0
O204 O 0.67349 0.74102 0.37626 0.0
O205 O 0.69713 0.69581 0.40685 0.0
O206 O 0.73518 0.76959 0.38956 0.0
O207 O 0.70409 0.81828 0.37271 0.0
C208 C 0.62804 0.77834 0.44699 0.0
C209 C 0.73217 0.79847 0.37061 0.0
C210 C 0.86292 0.80826 0.29054 0.0
C211 C 0.97409 0.76291 0.24333 0.0
O212 O 0.88926 0.7934 0.30676 0.0
Zn213 Zn 0.92104 0.79383 0.26716 0.0
O214 O 0.86592 0.81728 0.25719 0.0
Zn215 Zn 0.90838 0.81343 0.2162 0.0
O216 O 0.88043 0.78708 0.18094 0.0
O217 O 0.89213 0.75729 0.23163 0.0
O218 O 0.95634 0.77845 0.21785 0.0
O219 O 0.96601 0.77027 0.27567 0.0
O220 O 0.92825 0.85026 0.26326 0.0
O221 O 0.92003 0.86448 0.20639 0.0
C222 C 0.87834 0.75844 0.19995 0.0
C223 C 0.92613 0.87425 0.23856 0.0
C224 C 0.63571 0.19405 0.79736 0.0
C225 C 0.53122 0.24607 0.74132 0.0
O226 O 0.60677 0.20584 0.81147 0.0
Zn227 Zn 0.58021 0.21166 0.76828 0.0
O228 O 0.63692 0.18863 0.76314 0.0
Zn229 Zn 0.5998 0.19713 0.71793 0.0
O230 O 0.63104 0.22629 0.6883 0.0
O231 O 0.61384 0.25127 0.73981 0.0
O232 O 0.55172 0.23197 0.71705 0.0
O233 O 0.53591 0.23725 0.77399 0.0
O234 O 0.56737 0.15746 0.75464 0.0
O235 O 0.5881 0.14937 0.69963 0.0
C236 C 0.63123 0.25299 0.7098 0.0
C237 C 0.57214 0.13712 0.72724 0.0
C238 C 0.45655 0.50066 0.63797 0.0
C239 C 0.48136 0.38698 0.69937 0.0
O240 O 0.43748 0.47221 0.63768 0.0
Zn241 Zn 0.46901 0.44544 0.66918 0.0
O242 O 0.48653 0.50124 0.65524 0.0
Zn243 Zn 0.51776 0.46375 0.68904 0.0
O244 O 0.56157 0.45985 0.66259 0.0
O245 O 0.51483 0.43966 0.63251 0.0
O246 O 0.50669 0.4096 0.70491 0.0
O247 O 0.45428 0.39643 0.68089 0.0
O248 O 0.46534 0.48047 0.71723 0.0
O249 O 0.52172 0.49044 0.73235 0.0
C250 C 0.54865 0.4469 0.63384 0.0
C251 C 0.48846 0.49672 0.73723 0.0
C252 C 0.01992 0.27947 0.98711 0.0
C253 C 0.06734 0.38027 0.05247 0.0
O254 O 0.02568 0.2825 0.02063 0.0
Zn255 Zn 0.05162 0.32649 0.01878 0.0
O256 O 0.03573 0.30129 0.96509 0.0
Zn257 Zn 0.06931 0.35004 0.97106 0.0
O258 O 0.11868 0.3404 0.95528 0.0
O259 O 0.10577 0.31191 0.00574 0.0
O260 O 0.0742 0.38391 0.01867 0.0
O261 O 0.05547 0.35035 0.06394 0.0
O262 O 0.01311 0.36123 0.99001 0.0
O263 O 0.04123 0.38273 0.94169 0.0
C264 C 0.12834 0.31974 0.98076 0.0
C265 C 0.01293 0.3804 0.96106 0.0
C266 C 0.37975 0.69379 0.48355 0.0
C267 C 0.49525 0.63304 0.46679 0.0
O268 O 0.39107 0.67526 0.45721 0.0
Zn269 Zn 0.43911 0.66436 0.47515 0.0
O270 O 0.40078 0.70005 0.51004 0.0
Zn271 Zn 0.45433 0.68525 0.52454 0.0
O272 O 0.48029 0.72891 0.52933 0.0
O273 O 0.47369 0.7125 0.47269 0.0
O274 O 0.49382 0.65086 0.49646 0.0
O275 O 0.4681 0.63269 0.4459 0.0
O276 O 0.43085 0.62857 0.52131 0.0
O277 O 0.44791 0.65983 0.56855 0.0
C278 C 0.48844 0.73296 0.49638 0.0
C279 C 0.4359 0.63074 0.5555 0.0
C280 C 0.62846 0.55359 0.44647 0.0
C281 C 0.7325 0.49536 0.49733 0.0
O282 O 0.65731 0.56731 0.45838 0.0
Zn283 Zn 0.68401 0.52364 0.4637 0.0
O284 O 0.62737 0.5195 0.44045 0.0
Zn285 Zn 0.66421 0.47398 0.44744 0.0
O286 O 0.63284 0.44368 0.47584 0.0
O287 O 0.65008 0.4942 0.50236 0.0
O288 O 0.71239 0.47166 0.48209 0.0
O289 O 0.72751 0.52843 0.49002 0.0
O290 O 0.69942 0.51052 0.40995 0.0
O291 O 0.67552 0.45756 0.3988 0.0
C292 C 0.63262 0.46431 0.50322 0.0
C293 C 0.69377 0.4844 0.38827 0.0
C294 C 0.80546 0.38734 0.75019 0.0
C295 C 0.78203 0.4497 0.63676 0.0
O296 O 0.82505 0.38716 0.72194 0.0
Zn297 Zn 0.79385 0.41904 0.69501 0.0
O298 O 0.77539 0.40473 0.75057 0.0
Zn299 Zn 0.74463 0.4389 0.71318 0.0
O300 O 0.70106 0.41253 0.70876 0.0
O301 O 0.74835 0.38262 0.68851 0.0
O302 O 0.75638 0.45509 0.65929 0.0
O303 O 0.80918 0.43115 0.64617 0.0
O304 O 0.79668 0.46687 0.73028 0.0
O305 O 0.74008 0.4821 0.74011 0.0
C306 C 0.71441 0.38392 0.69552 0.0
C307 C 0.77324 0.48687 0.74652 0.0
C308 C 0.88035 0.46061 0.94483 0.0
C309 C 0.77518 0.51731 0.99603 0.0
O310 O 0.85158 0.44665 0.9569 0.0
Zn311 Zn 0.82454 0.49003 0.96275 0.0
O312 O 0.88146 0.4949 0.9396 0.0
Zn313 Zn 0.84439 0.54014 0.94743 0.0
O314 O 0.87489 0.57002 0.97669 0.0
O315 O 0.85699 0.51902 0.00246 0.0
O316 O 0.79543 0.54143 0.98135 0.0
O317 O 0.78039 0.48441 0.9883 0.0
O318 O 0.8104 0.50429 0.90893 0.0
O319 O 0.83372 0.55793 0.89918 0.0
C320 C 0.87395 0.54914 0.004 0.0
C321 C 0.81617 0.53108 0.88788 0.0
C322 C 0.70493 0.62708 0.24791 0.0
C323 C 0.72588 0.56247 0.13554 0.0
O324 O 0.68487 0.62686 0.22015 0.0
Zn325 Zn 0.71562 0.59473 0.19296 0.0
O326 O 0.73526 0.61013 0.24767 0.0
Zn327 Zn 0.76534 0.57553 0.2102 0.0
O328 O 0.80869 0.60168 0.20271 0.0
O329 O 0.76087 0.63095 0.18301 0.0
O330 O 0.75203 0.55772 0.15747 0.0
O331 O 0.69894 0.58128 0.1451 0.0
O332 O 0.71397 0.54759 0.22976 0.0
O333 O 0.77093 0.53304 0.23837 0.0
C334 C 0.7951 0.62962 0.18829 0.0
C335 C 0.73795 0.52825 0.24598 0.0
C336 C 0.23352 0.32819 0.17883 0.0
C337 C 0.23353 0.31899 0.14218 0.0
C338 C 0.20091 0.33227 0.19782 0.0
C339 C 0.16739 0.32759 0.18057 0.0
H340 H 0.25872 0.32987 0.19341 0.0
H341 H 0.20213 0.33684 0.22661 0.0
S342 S 0.15386 0.31092 0.08286 0.0
N343 N 0.19805 0.31034 0.08811 0.0
N344 N 0.13679 0.31909 0.12319 0.0
C345 C 0.1674 0.32192 0.14304 0.0
C346 C 0.2005 0.31721 0.124 0.0
C347 C 0.99411 0.88735 0.368 0.0
C348 C 1.00039 0.88701 0.40536 0.0
C349 C 0.00846 0.9149 0.34601 0.0
C350 C 0.03053 0.9421 0.3605 0.0
H351 H 0.97616 0.86772 0.35617 0.0
H352 H 0.99967 0.91674 0.31822 0.0
S353 S 0.05981 0.94938 0.45555 0.0
N354 N 0.03344 0.9136 0.45504 0.0
N355 N 0.06082 0.96456 0.41362 0.0
C356 C 0.03956 0.93985 0.39712 0.0
C357 C 0.02433 0.91256 0.4196 0.0
C358 C 0.27951 0.68296 0.68628 0.0
C359 C 0.27997 0.69149 0.64939 0.0
C360 C 0.31174 0.68105 0.706 0.0
C361 C 0.34542 0.68733 0.68933 0.0
H362 H 0.25406 0.68003 0.70041 0.0
H363 H 0.31 0.67652 0.73482 0.0
S364 S 0.36064 0.70366 0.59153 0.0
N365 N 0.31638 0.70163 0.59589 0.0
N366 N 0.37703 0.69715 0.63238 0.0
C367 C 0.34611 0.69277 0.6517 0.0
C368 C 0.31333 0.69516 0.63188 0.0
C369 C 0.57927 0.06494 0.94475 0.0
C370 C 0.5725 0.09906 0.92908 0.0
C371 C 0.57403 0.03299 0.92525 0.0
C372 C 0.56141 0.03412 0.88964 0.0
H373 H 0.587 0.06271 0.9728 0.0
H374 H 0.57798 0.0073 0.93875 0.0
S375 S 0.54585 0.11599 0.83396 0.0
N376 N 0.55742 0.13165 0.87388 0.0
N377 N 0.54677 0.07161 0.83785 0.0
C378 C 0.55696 0.06786 0.87285 0.0
C379 C 0.56279 0.10035 0.8924 0.0
C380 C 0.16653 0.16207 0.2861 0.0
C381 C 0.19842 0.16205 0.30649 0.0
C382 C 0.14661 0.19367 0.28096 0.0
C383 C 0.15746 0.22647 0.29636 0.0
H384 H 0.15755 0.13785 0.27261 0.0
H385 H 0.12274 0.19243 0.26424 0.0
S386 S 0.23644 0.24034 0.35551 0.0
N387 N 0.23836 0.19717 0.3447 0.0
N388 N 0.20027 0.25671 0.33522 0.0
C389 C 0.18797 0.22659 0.3186 0.0
C390 C 0.20863 0.19433 0.32359 0.0
C391 C 0.07334 0.87855 0.53489 0.0
C392 C 0.03838 0.88929 0.54514 0.0
C393 C 0.10316 0.90013 0.54227 0.0
C394 C 0.09925 0.93345 0.56003 0.0
H395 H 0.07764 0.85409 0.51952 0.0
H396 H 0.12915 0.89148 0.53194 0.0
S397 S 0.01459 0.97007 0.59947 0.0
N398 N 0.00225 0.93259 0.57911 0.0
N399 N 0.05852 0.97325 0.59294 0.0
C400 C 0.06498 0.94282 0.57358 0.0
C401 C 0.0345 0.9207 0.5661 0.0
C402 C 0.30819 0.81727 0.82884 0.0
C403 C 0.32222 0.85129 0.81908 0.0
C404 C 0.32857 0.78559 0.82449 0.0
C405 C 0.3635 0.7868 0.8099 0.0
H406 H 0.28061 0.81476 0.83819 0.0
H407 H 0.31616 0.75987 0.83067 0.0
S408 S 0.4156 0.86896 0.78705 0.0
N409 N 0.37556 0.88432 0.79948 0.0
N410 N 0.41336 0.8246 0.79066 0.0
C411 C 0.3789 0.82062 0.80265 0.0
C412 C 0.35841 0.85293 0.8075 0.0
C413 C 0.41574 0.1061 0.04297 0.0
C414 C 0.41606 0.07126 0.05828 0.0
C415 C 0.44745 0.12591 0.03895 0.0
C416 C 0.48077 0.11204 0.05058 0.0
H417 H 0.39105 0.11776 0.0325 0.0
H418 H 0.44592 0.15207 0.02586 0.0
S419 S 0.49612 0.02406 0.09602 0.0
N420 N 0.45238 0.0249 0.08775 0.0
N421 N 0.5121 0.0627 0.08057 0.0
C422 C 0.48138 0.0783 0.06797 0.0
C423 C 0.44899 0.05777 0.07171 0.0
C424 C 0.06932 0.08681 0.43013 0.0
C425 C 0.03524 0.07014 0.4321 0.0
C426 C 0.09468 0.08277 0.45782 0.0
C427 C 0.08677 0.06197 0.48842 0.0
H428 H 0.07727 0.10132 0.40598 0.0
H429 H 0.12117 0.09459 0.45454 0.0
S430 S 0.00133 0.01422 0.5079 0.0
N431 N 0.99464 0.03333 0.46814 0.0
N432 N 0.04236 0.02599 0.52035 0.0
C433 C 0.0523 0.04677 0.49178 0.0
C434 C 0.02639 0.05094 0.46361 0.0
C435 C 0.19838 0.84904 0.66718 0.0
C436 C 0.18655 0.81302 0.66895 0.0
C437 C 0.20304 0.86943 0.69834 0.0
C438 C 0.19543 0.85499 0.73256 0.0
H439 H 0.20582 0.86125 0.64165 0.0
H440 H 0.2136 0.89654 0.69562 0.0
S441 S 0.15937 0.7639 0.75212 0.0
N442 N 0.16417 0.76486 0.70783 0.0
N443 N 0.17237 0.80389 0.76656 0.0
C444 C 0.18108 0.82007 0.7348 0.0
C445 C 0.17675 0.79891 0.70294 0.0
C446 C 0.42866 0.93617 0.96723 0.0
C447 C 0.39337 0.94998 0.96629 0.0
C448 C 0.44906 0.93284 0.93548 0.0
C449 C 0.4347 0.94286 0.90169 0.0
H450 H 0.44132 0.92995 0.9928 0.0
H451 H 0.47685 0.924 0.93776 0.0
S452 S 0.34061 0.97351 0.88476 0.0
N453 N 0.34305 0.96906 0.92899 0.0
N454 N 0.38083 0.96205 0.86914 0.0
C455 C 0.39823 0.95371 0.90031 0.0
C456 C 0.37773 0.95754 0.93268 0.0
C457 C 0.3179 0.13666 0.19108 0.0
C458 C 0.32524 0.15135 0.22512 0.0
C459 C 0.32036 0.15761 0.15978 0.0
C460 C 0.32972 0.19437 0.16122 0.0
H461 H 0.30882 0.109 0.18872 0.0
H462 H 0.31306 0.14517 0.13446 0.0
S463 S 0.35539 0.24459 0.2437 0.0
N464 N 0.34549 0.20369 0.25845 0.0
N465 N 0.34976 0.2436 0.19956 0.0
C466 C 0.3395 0.20877 0.19494 0.0
C467 C 0.33735 0.18713 0.22692 0.0
C468 C 0.82768 0.3317 0.78126 0.0
C469 C 0.81672 0.36796 0.78296 0.0
C470 C 0.83226 0.31129 0.81289 0.0
C471 C 0.82637 0.32665 0.84717 0.0
H472 H 0.83058 0.31847 0.7554 0.0
H473 H 0.8385 0.28282 0.81028 0.0
S474 S 0.8047 0.42296 0.8654 0.0
N475 N 0.80493 0.41987 0.82101 0.0
N476 N 0.81448 0.38211 0.8805 0.0
C477 C 0.81861 0.36389 0.84899 0.0
C478 C 0.81344 0.38438 0.81683 0.0
C479 C 0.94639 0.57573 0.07014 0.0
C480 C 0.9302 0.56768 0.10368 0.0
C481 C 0.92738 0.57172 0.03776 0.0
C482 C 0.89175 0.55912 0.03789 0.0
H483 H 0.9745 0.58343 0.06865 0.0
H484 H 0.94128 0.57649 0.01246 0.0
S485 S 0.83472 0.54082 0.11807 0.0
N486 N 0.8744 0.55169 0.13479 0.0
N487 N 0.83932 0.54329 0.07385 0.0
C488 C 0.87439 0.55352 0.0711 0.0
C489 C 0.89344 0.55812 0.10404 0.0
C490 C 0.67233 0.69948 0.31222 0.0
C491 C 0.67971 0.68399 0.34625 0.0
C492 C 0.67875 0.6803 0.28023 0.0
C493 C 0.69317 0.64522 0.28124 0.0
H494 H 0.66347 0.72731 0.31008 0.0
H495 H 0.67436 0.69372 0.2546 0.0
S496 S 0.71058 0.58981 0.3628 0.0
N497 N 0.697 0.62922 0.3786 0.0
N498 N 0.70988 0.59382 0.31848 0.0
C499 C 0.69807 0.62845 0.31487 0.0
C500 C 0.69103 0.64764 0.34739 0.0
C501 C 0.80169 0.69621 0.17779 0.0
C502 C 0.81788 0.66195 0.18229 0.0
C503 C 0.82213 0.72795 0.18018 0.0
C504 C 0.85927 0.72631 0.18717 0.0
H505 H 0.77274 0.69872 0.17482 0.0
H506 H 0.80836 0.7538 0.1793 0.0
S507 S 0.91582 0.64397 0.19423 0.0
N508 N 0.87447 0.62872 0.18852 0.0
N509 N 0.91231 0.6884 0.19394 0.0
C510 C 0.87624 0.69247 0.18869 0.0
C511 C 0.85568 0.66023 0.18591 0.0
C512 C 0.63764 0.31947 0.71356 0.0
C513 C 0.65107 0.28631 0.70099 0.0
C514 C 0.65741 0.35124 0.70947 0.0
C515 C 0.6918 0.35106 0.6932 0.0
H516 H 0.61188 0.3208 0.72743 0.0
H517 H 0.64618 0.37581 0.7207 0.0
S518 S 0.73779 0.27135 0.65318 0.0
N519 N 0.6995 0.25527 0.66931 0.0
N520 N 0.73728 0.315 0.66209 0.0
C521 C 0.70483 0.31827 0.67894 0.0
C522 C 0.68432 0.28588 0.68271 0.0
C523 C 0.42875 0.56387 0.56278 0.0
C524 C 0.43341 0.59808 0.57863 0.0
C525 C 0.43409 0.53205 0.58275 0.0
C526 C 0.44464 0.53349 0.619 0.0
H527 H 0.42287 0.56154 0.53431 0.0
H528 H 0.4321 0.50629 0.56918 0.0
S529 S 0.45365 0.61542 0.67512 0.0
N530 N 0.44375 0.6309 0.63452 0.0
N531 N 0.4548 0.57105 0.67139 0.0
C532 C 0.44672 0.5672 0.63589 0.0
C533 C 0.44074 0.59954 0.61587 0.0
C534 C 0.70014 0.21294 0.87363 0.0
C535 C 0.73385 0.20321 0.85919 0.0
C536 C 0.66836 0.20737 0.85436 0.0
C537 C 0.669 0.19248 0.81945 0.0
H538 H 0.69832 0.22565 0.89986 0.0
H539 H 0.64328 0.21648 0.86641 0.0
S540 S 0.75047 0.15964 0.77084 0.0
N541 N 0.76612 0.17541 0.80931 0.0
N542 N 0.70631 0.16557 0.77241 0.0
C543 C 0.70248 0.18096 0.80541 0.0
C544 C 0.73493 0.18617 0.82543 0.0
C545 C 0.06869 0.47797 0.08306 0.0
C546 C 0.05498 0.47555 0.11831 0.0
C547 C 0.07479 0.44677 0.06249 0.0
C548 C 0.06786 0.41211 0.07671 0.0
H549 H 0.07291 0.50414 0.07066 0.0
H550 H 0.08343 0.45001 0.03475 0.0
S551 S 0.03818 0.39175 0.17043 0.0
N552 N 0.03886 0.43624 0.16824 0.0
N553 N 0.05122 0.37756 0.13029 0.0
C554 C 0.05693 0.4095 0.11308 0.0
C555 C 0.05018 0.44124 0.13368 0.0
C556 C 0.79664 0.81171 0.36715 0.0
C557 C 0.76339 0.80945 0.34945 0.0
C558 C 0.82872 0.81364 0.34764 0.0
C559 C 0.82854 0.81304 0.30977 0.0
H560 H 0.79794 0.81018 0.39633 0.0
H561 H 0.8539 0.81396 0.36238 0.0
S562 S 0.74778 0.80948 0.25107 0.0
N563 N 0.7314 0.80876 0.29256 0.0
N564 N 0.79203 0.81224 0.25525 0.0
C565 C 0.79518 0.81303 0.29173 0.0
C566 C 0.76239 0.8112 0.3118 0.0
C567 C 0.6057 0.46177 0.6014 0.0
C568 C 0.57155 0.4453 0.60095 0.0
C569 C 0.62564 0.46662 0.56973 0.0
C570 C 0.61264 0.45466 0.53635 0.0
H571 H 0.61659 0.47259 0.62615 0.0
H572 H 0.65119 0.48063 0.57133 0.0
S573 S 0.52679 0.40646 0.52061 0.0
N574 N 0.52684 0.41454 0.56438 0.0
N575 N 0.56493 0.4232 0.50481 0.0
C576 C 0.57968 0.43613 0.53562 0.0
C577 C 0.55899 0.43158 0.56793 0.0
C578 C 0.97978 0.43588 0.94139 0.0
C579 C 0.97942 0.39914 0.9507 0.0
C580 C 0.94741 0.45526 0.93725 0.0
C581 C 0.91367 0.43839 0.94191 0.0
H582 H 0.00513 0.45017 0.93933 0.0
H583 H 0.94896 0.48402 0.93216 0.0
S584 S 0.89906 0.34064 0.95923 0.0
N585 N 0.94329 0.34541 0.95974 0.0
N586 N 0.88245 0.38128 0.95106 0.0
C587 C 0.91327 0.40084 0.94819 0.0
C588 C 0.94617 0.38136 0.9529 0.0
C589 C 0.59435 0.60915 0.46346 0.0
C590 C 0.59499 0.57567 0.4456 0.0
C591 C 0.562 0.62776 0.46937 0.0
C592 C 0.52901 0.61405 0.45709 0.0
H593 H 0.61879 0.62041 0.47459 0.0
H594 H 0.5628 0.65286 0.48427 0.0
S595 S 0.51608 0.52967 0.4054 0.0
N596 N 0.55987 0.53094 0.41325 0.0
N597 N 0.49901 0.56653 0.42383 0.0
C598 C 0.52934 0.58181 0.43725 0.0
C599 C 0.56234 0.56248 0.43164 0.0
C600 C 0.00923 0.16898 0.30683 0.0
C601 C 0.02153 0.14097 0.28411 0.0
C602 C 0.01348 0.2055 0.29729 0.0
C603 C 0.02893 0.21539 0.26409 0.0
H604 H 0.9976 0.16267 0.33292 0.0
H605 H 0.00545 0.22611 0.31638 0.0
S606 S 0.06429 0.15237 0.1944 0.0
N607 N 0.04926 0.12568 0.22681 0.0
N608 N 0.0561 0.19395 0.20815 0.0
C609 C 0.04004 0.18754 0.24054 0.0
C610 C 0.03667 0.15047 0.25074 0.0
C611 C 0.07384 0.70821 0.53996 0.0
C612 C 0.09098 0.72838 0.56682 0.0
C613 C 0.03973 0.71865 0.52691 0.0
C614 C 0.02153 0.74922 0.54074 0.0
H615 H 0.08796 0.68604 0.52709 0.0
H616 H 0.02882 0.70435 0.50401 0.0
S617 S 0.05333 0.80697 0.61589 0.0
N618 N 0.08613 0.77731 0.60978 0.0
N619 N 0.02181 0.7963 0.58654 0.0
C620 C 0.03708 0.76708 0.57035 0.0
C621 C 0.072 0.75694 0.58292 0.0
C622 C 0.51651 0.84123 0.76258 0.0
C623 C 0.52616 0.84873 0.79828 0.0
C624 C 0.50576 0.80654 0.7524 0.0
C625 C 0.50298 0.77828 0.77787 0.0
H626 H 0.51586 0.86271 0.74268 0.0
H627 H 0.49688 0.80274 0.72489 0.0
S628 S 0.52764 0.78374 0.87448 0.0
N629 N 0.53511 0.82478 0.85864 0.0
N630 N 0.5133 0.7598 0.83993 0.0
C631 C 0.51432 0.78508 0.81333 0.0
C632 C 0.52627 0.82026 0.82344 0.0
C633 C 0.44465 0.27042 0.0745 0.0
C634 C 0.41818 0.28053 0.04936 0.0
C635 C 0.47878 0.25817 0.06316 0.0
C636 C 0.48769 0.25583 0.02624 0.0
H637 H 0.43815 0.26974 0.103 0.0
H638 H 0.49745 0.24842 0.08341 0.0
S639 S 0.42851 0.28408 0.95022 0.0
N640 N 0.40358 0.29065 0.9866 0.0
N641 N 0.46779 0.26892 0.96484 0.0
C642 C 0.46212 0.26885 0.00107 0.0
C643 C 0.42726 0.28069 0.01274 0.0
C644 C 0.28368 0.98316 0.21303 0.0
C645 C 0.30517 0.0092 0.23036 0.0
C646 C 0.29083 0.97239 0.17734 0.0
C647 C 0.3194 0.98772 0.15778 0.0
H648 H 0.25985 0.97267 0.22633 0.0
H649 H 0.27265 0.95377 0.16432 0.0
S650 S 0.38601 0.05376 0.19101 0.0
N651 N 0.3586 0.04713 0.22555 0.0
N652 N 0.37103 0.02752 0.15853 0.0
C653 C 0.34241 0.01183 0.17529 0.0
C654 C 0.33567 0.0223 0.21166 0.0
C655 C 0.23313 0.07852 0.45945 0.0
C656 C 0.2452 0.04801 0.47872 0.0
C657 C 0.24773 0.08721 0.42559 0.0
C658 C 0.27546 0.06627 0.41017 0.0
H659 H 0.21045 0.09427 0.46925 0.0
H660 H 0.23617 0.10959 0.41061 0.0
S661 S 0.31974 0.9865 0.45111 0.0
N662 N 0.28887 0.99868 0.48098 0.0
N663 N 0.31658 0.01581 0.41757 0.0
C664 C 0.28964 0.03741 0.43009 0.0
C665 C 0.27447 0.02813 0.46437 0.0
C666 C 0.23 0.02396 0.71323 0.0
C667 C 0.21072 0.99597 0.73044 0.0
C668 C 0.22116 0.03553 0.67813 0.0
C669 C 0.19334 0.01884 0.65889 0.0
H670 H 0.25303 0.03598 0.72638 0.0
H671 H 0.23722 0.05636 0.66539 0.0
S672 S 0.1332 0.94619 0.69169 0.0
N673 N 0.16074 0.95373 0.72568 0.0
N674 N 0.14529 0.97476 0.65966 0.0
C675 C 0.17298 0.99203 0.67611 0.0
C676 C 0.1813 0.98082 0.71195 0.0
C677 C 0.22932 0.93661 0.94066 0.0
C678 C 0.22969 0.95994 0.91066 0.0
C679 C 0.24156 0.94822 0.97451 0.0
C680 C 0.25357 0.98382 0.97965 0.0
H681 H 0.22214 0.90851 0.93735 0.0
H682 H 0.2435 0.9287 0.99624 0.0
S683 S 0.25536 0.05633 0.91004 0.0
N684 N 0.24021 0.02058 0.88855 0.0
N685 N 0.26171 0.04313 0.95211 0.0
C686 C 0.25106 0.00812 0.95034 0.0
C687 C 0.23959 0.99596 0.91581 0.0
C688 C 0.19435 0.33193 0.98632 0.0
C689 C 0.16601 0.30698 0.98379 0.0
C690 C 0.22907 0.32089 0.99711 0.0
C691 C 0.23682 0.28441 0.00495 0.0
H692 H 0.18905 0.36045 0.98243 0.0
H693 H 0.2494 0.34135 0.0012 0.0
S694 S 0.17223 0.20821 0.9975 0.0
N695 N 0.1482 0.24431 0.98693 0.0
N696 N 0.21334 0.22295 0.00556 0.0
C697 C 0.20911 0.25893 0.99949 0.0
C698 C 0.1737 0.2704 0.98946 0.0
C699 C 0.72901 0.19358 0.00671 0.0
C700 C 0.73639 0.23026 0.9999 0.0
C701 C 0.69436 0.18224 0.01726 0.0
C702 C 0.66577 0.20711 0.02054 0.0
H703 H 0.74961 0.17328 0.00204 0.0
H704 H 0.68933 0.15362 0.02042 0.0
S705 S 0.67092 0.3062 0.00941 0.0
N706 N 0.71225 0.29171 0.00092 0.0
N707 N 0.64723 0.26981 0.01907 0.0
C708 C 0.67305 0.24383 0.01584 0.0
C709 C 0.70838 0.25558 0.00607 0.0
C710 C 0.07103 0.43445 0.27577 0.0
C711 C 0.04785 0.40455 0.2742 0.0
C712 C 0.05881 0.46925 0.26644 0.0
C713 C 0.02278 0.47542 0.25616 0.0
H714 H 0.09937 0.43052 0.2817 0.0
H715 H 0.07813 0.49107 0.26547 0.0
S716 S 0.95079 0.40594 0.25162 0.0
N717 N 0.98717 0.38328 0.26395 0.0
N718 N 0.96344 0.44846 0.248 0.0
C719 C 0.9988 0.44588 0.2573 0.0
C720 C 0.01156 0.41047 0.26581 0.0
C721 C 0.84547 0.77174 0.48405 0.0
C722 C 0.8542 0.80819 0.4891 0.0
C723 C 0.80946 0.76069 0.48065 0.0
C724 C 0.78061 0.78575 0.48123 0.0
H725 H 0.86665 0.75153 0.48268 0.0
H726 H 0.80445 0.73236 0.47574 0.0
S727 S 0.78913 0.88453 0.49424 0.0
N728 N 0.83106 0.86935 0.49573 0.0
N729 N 0.76356 0.84876 0.48788 0.0
C730 C 0.789 0.82226 0.48681 0.0
C731 C 0.82568 0.83342 0.4911 0.0
C732 C 0.29736 0.74999 0.50426 0.0
C733 C 0.27032 0.72367 0.50896 0.0
C734 C 0.33247 0.74042 0.49384 0.0
C735 C 0.34153 0.70445 0.48638 0.0
H736 H 0.29234 0.77785 0.51158 0.0
H737 H 0.35309 0.76105 0.49325 0.0
S738 S 0.28018 0.6259 0.49 0.0
N739 N 0.25465 0.6604 0.5024 0.0
N740 N 0.32044 0.64278 0.48124 0.0
C741 C 0.31426 0.67831 0.48793 0.0
C742 C 0.27866 0.68785 0.49952 0.0
C743 C 0.91466 0.95763 0.29666 0.0
C744 C 0.93109 0.98496 0.27615 0.0
C745 C 0.91249 0.92223 0.28363 0.0
C746 C 0.92597 0.91283 0.24929 0.0
H747 H 0.90656 0.96268 0.32429 0.0
H748 H 0.90124 0.90174 0.30124 0.0
S749 S 0.96638 0.97568 0.18283 0.0
N750 N 0.95771 1.00113 0.21835 0.0
N751 N 0.95229 0.93473 0.19339 0.0
C752 C 0.93933 0.94054 0.22718 0.0
C753 C 0.94214 0.97656 0.24071 0.0
C754 C 0.57589 0.03927 0.75511 0.0
C755 C 0.54018 0.02761 0.74954 0.0
C756 C 0.58668 0.07429 0.74561 0.0
C757 C 0.56238 0.09875 0.72981 0.0
H758 H 0.59499 0.02228 0.76935 0.0
H759 H 0.61364 0.08296 0.75256 0.0
S760 S 0.46788 0.08075 0.70427 0.0
N761 N 0.48188 0.04266 0.72296 0.0
N762 N 0.5026 0.10846 0.70553 0.0
C763 C 0.52768 0.08686 0.72142 0.0
C764 C 0.51654 0.05119 0.73098 0.0
C765 C 0.50029 0.2867 0.69659 0.0
C766 C 0.50957 0.27887 0.7326 0.0
C767 C 0.4882 0.32128 0.6864 0.0
C768 C 0.48582 0.34937 0.7117 0.0
H769 H 0.5042 0.26655 0.67583 0.0
H770 H 0.48312 0.32673 0.65814 0.0
S771 S 0.50328 0.34273 0.80963 0.0
N772 N 0.51188 0.30185 0.79415 0.0
N773 N 0.49075 0.36686 0.77429 0.0
C774 C 0.49298 0.34157 0.74791 0.0
C775 C 0.50433 0.30625 0.75856 0.0
C776 C 0.92635 0.23961 0.98979 0.0
C777 C 0.91808 0.23544 0.95323 0.0
C778 C 0.96089 0.25018 1.00062 0.0
C779 C 0.98814 0.25832 0.97516 0.0
H780 H 0.90553 0.23615 0.01008 0.0
H781 H 0.96523 0.25465 0.02911 0.0
S782 S 0.98016 0.2491 0.87595 0.0
N783 N 0.94008 0.23741 0.89157 0.0
N784 N 0.00476 0.25875 0.91167 0.0
C785 C 0.98057 0.25238 0.93851 0.0
C786 C 0.94556 0.24069 0.92761 0.0
C787 C 0.00742 0.72214 0.20034 0.0
C788 C 0.99527 0.72947 0.23562 0.0
C789 C 0.01885 0.68727 0.19035 0.0
C790 C 0.01764 0.65838 0.21504 0.0
H791 H 0.00626 0.74297 0.17981 0.0
H792 H 0.02621 0.68238 0.16249 0.0
S793 S 0.99144 0.66319 0.31124 0.0
N794 N 0.98625 0.70485 0.29613 0.0
N795 N 0.00608 0.6395 0.27651 0.0
C796 C 0.0075 0.66558 0.25067 0.0
C797 C 0.99685 0.70111 0.26121 0.0
C798 C 0.52688 0.76655 0.45181 0.0
C799 C 0.52176 0.75287 0.48687 0.0
C800 C 0.56113 0.77771 0.43995 0.0
C801 C 0.59153 0.77439 0.46237 0.0
H802 H 0.50465 0.76709 0.43294 0.0
H803 H 0.56426 0.78655 0.41224 0.0
S804 S 0.59258 0.74247 0.557 0.0
N805 N 0.54998 0.73927 0.5447 0.0
N806 N 0.61422 0.75871 0.52157 0.0
C807 C 0.58657 0.76236 0.49784 0.0
C808 C 0.55168 0.75205 0.51033 0.0
C809 C 0.68109 0.49006 0.32241 0.0
C810 C 0.70624 0.48739 0.35058 0.0
C811 C 0.69185 0.50061 0.28752 0.0
C812 C 0.72824 0.50812 0.27949 0.0
H813 H 0.65263 0.48635 0.32793 0.0
H814 H 0.67127 0.50474 0.26725 0.0
S815 S 0.80481 0.5007 0.34382 0.0
N816 N 0.76893 0.49038 0.36812 0.0
N817 N 0.78981 0.5086 0.30268 0.0
C818 C 0.7539 0.50268 0.30714 0.0
C819 C 0.74271 0.49287 0.34269 0.0
C820 C 0.7621 0.44873 0.53693 0.0
C821 C 0.75421 0.48527 0.52958 0.0
C822 C 0.77413 0.4376 0.57116 0.0
C823 C 0.77796 0.46254 0.59935 0.0
H824 H 0.75708 0.42832 0.51674 0.0
H825 H 0.77801 0.40904 0.57629 0.0
S826 S 0.76479 0.56141 0.59386 0.0
N827 N 0.75502 0.54676 0.55309 0.0
N828 N 0.77601 0.52521 0.61741 0.0
C829 C 0.77231 0.49917 0.59198 0.0
C830 C 0.76098 0.51072 0.55704 0.0
C831 C 0.83097 0.52118 0.82315 0.0
C832 C 0.80511 0.52867 0.8499 0.0
C833 C 0.82053 0.51081 0.78831 0.0
C834 C 0.78383 0.5079 0.77898 0.0
H835 H 0.85939 0.52097 0.82988 0.0
H836 H 0.84135 0.50282 0.76936 0.0
S837 S 0.70605 0.52986 0.83894 0.0
N838 N 0.74186 0.53585 0.86451 0.0
N839 N 0.72173 0.51783 0.79901 0.0
C840 C 0.75787 0.51848 0.80499 0.0
C841 C 0.76864 0.52829 0.84054 0.0
C842 C 0.73124 0.57373 0.0694 0.0
C843 C 0.72952 0.54912 0.0983 0.0
C844 C 0.74336 0.56276 0.03515 0.0
C845 C 0.75336 0.52665 0.02849 0.0
H846 H 0.72575 0.6021 0.07395 0.0
H847 H 0.7468 0.58306 0.01434 0.0
S848 S 0.74939 0.45127 0.09498 0.0
N849 N 0.73609 0.48708 0.11788 0.0
N850 N 0.75727 0.46574 0.05356 0.0
C851 C 0.74881 0.50134 0.05674 0.0
C852 C 0.73742 0.51279 0.09168 0.0
C853 C 0.42944 0.57267 0.77271 0.0
C854 C 0.45481 0.59977 0.77973 0.0
C855 C 0.44051 0.53795 0.76206 0.0
C856 C 0.47737 0.52908 0.75844 0.0
H857 H 0.40089 0.57904 0.77305 0.0
H858 H 0.42002 0.51872 0.75444 0.0
S859 S 0.55409 0.59008 0.77891 0.0
N860 N 0.51781 0.6152 0.78565 0.0
N861 N 0.53913 0.54992 0.76716 0.0
C862 C 0.50287 0.55543 0.76854 0.0
C863 C 0.49146 0.59087 0.77861 0.0
loop_
_geom_bond_atom_site_label_1
_geom_bond_atom_site_label_2
_geom_bond_distance
_geom_bond_site_symmetry_2
_ccdc_geom_bond_type
C0 O2 1.247 . S
C0 O4 1.258 . S
C1 O8 1.247 . S
C1 O9 1.258 . S
O2 C0 1.247 . S
O2 Zn3 2.028 . S
Zn3 O2 2.028 . S
Zn3 O7 2.035 . S
Zn3 O9 2.035 . S
Zn3 O10 2.028 . S
O4 C0 1.258 . S
O4 Zn5 2.035 . S
Zn5 O4 2.035 . S
Zn5 O6 2.028 . S
Zn5 O8 2.028 . S
Zn5 O11 2.035 . S
O6 Zn5 2.028 . S
O6 C12 1.247 . S
O7 Zn3 2.035 . S
O7 C12 1.258 . S
O8 C1 1.247 . S
O8 Zn5 2.028 . S
O9 C1 1.258 . S
O9 Zn3 2.035 . S
O10 Zn3 2.028 . S
O10 C13 1.247 . S
O11 Zn5 2.035 . S
O11 C13 1.258 . S
C12 O6 1.247 . S
C12 O7 1.258 . S
C13 O10 1.247 . S
C13 O11 1.258 . S
C14 O16 1.247 . S
C14 O18 1.258 . S
C15 O22 1.247 . S
C15 O23 1.258 . S
O16 C14 1.247 . S
O16 Zn17 2.028 . S
Zn17 O16 2.028 . S
Zn17 O21 2.035 1_455 S
Zn17 O23 2.035 1_455 S
Zn17 O24 2.028 . S
O18 C14 1.258 . S
O18 Zn19 2.035 1_455 S
Zn19 O18 2.035 1_655 S
Zn19 O20 2.028 . S
Zn19 O22 2.028 . S
Zn19 O25 2.035 1_655 S
O20 Zn19 2.028 . S
O20 C26 1.247 . S
O21 Zn17 2.035 1_655 S
O21 C26 1.258 . S
O22 C15 1.247 . S
O22 Zn19 2.028 . S
O23 C15 1.258 . S
O23 Zn17 2.035 1_655 S
O24 Zn17 2.028 . S
O24 C27 1.247 . S
O25 Zn19 2.035 1_455 S
O25 C27 1.258 . S
C26 O20 1.247 . S
C26 O21 1.258 . S
C27 O24 1.247 . S
C27 O25 1.258 . S
C28 O30 1.247 . S
C28 O32 1.258 . S
C29 O36 1.247 . S
C29 O37 1.258 . S
O30 C28 1.247 . S
O30 Zn31 2.028 . S
Zn31 O30 2.028 . S
Zn31 O35 2.035 . S
Zn31 O37 2.035 . S
Zn31 O38 2.028 . S
O32 C28 1.258 . S
O32 Zn33 2.035 . S
Zn33 O32 2.035 . S
Zn33 O34 2.028 . S
Zn33 O36 2.028 . S
Zn33 O39 2.035 . S
O34 Zn33 2.028 . S
O34 C40 1.247 . S
O35 Zn31 2.035 . S
O35 C40 1.258 . S
O36 C29 1.247 . S
O36 Zn33 2.028 . S
O37 C29 1.258 . S
O37 Zn31 2.035 . S
O38 Zn31 2.028 . S
O38 C41 1.247 . S
O39 Zn33 2.035 . S
O39 C41 1.258 . S
C40 O34 1.247 . S
C40 O35 1.258 . S
C41 O38 1.247 . S
C41 O39 1.258 . S
C42 O44 1.247 1_556 S
C42 O46 1.258 . S
C43 O50 1.247 1_554 S
C43 O51 1.258 . S
O44 C42 1.247 1_554 S
O44 Zn45 2.028 . S
Zn45 O44 2.028 . S
Zn45 O49 2.035 . S
Zn45 O51 2.035 . S
Zn45 O52 2.028 1_554 S
O46 C42 1.258 . S
O46 Zn47 2.035 . S
Zn47 O46 2.035 . S
Zn47 O48 2.028 1_556 S
Zn47 O50 2.028 . S
Zn47 O53 2.035 . S
O48 Zn47 2.028 1_554 S
O48 C54 1.247 . S
O49 Zn45 2.035 . S
O49 C54 1.258 . S
O50 C43 1.247 1_556 S
O50 Zn47 2.028 . S
O51 C43 1.258 . S
O51 Zn45 2.035 . S
O52 Zn45 2.028 1_556 S
O52 C55 1.247 . S
O53 Zn47 2.035 . S
O53 C55 1.258 . S
C54 O48 1.247 . S
C54 O49 1.258 . S
C55 O52 1.247 . S
C55 O53 1.258 . S
C56 O58 1.247 . S
C56 O60 1.258 1_655 S
C57 O64 1.247 . S
C57 O65 1.258 1_455 S
O58 C56 1.247 . S
O58 Zn59 2.028 1_565 S
Zn59 O58 2.028 1_545 S
Zn59 O63 2.035 1_655 S
Zn59 O65 2.035 . S
Zn59 O66 2.028 1_545 S
O60 C56 1.258 1_455 S
O60 Zn61 2.035 . S
Zn61 O60 2.035 . S
Zn61 O62 2.028 1_565 S
Zn61 O64 2.028 1_565 S
Zn61 O67 2.035 1_455 S
O62 Zn61 2.028 1_545 S
O62 C68 1.247 . S
O63 Zn59 2.035 1_455 S
O63 C68 1.258 . S
O64 C57 1.247 . S
O64 Zn61 2.028 1_545 S
O65 C57 1.258 1_655 S
O65 Zn59 2.035 . S
O66 Zn59 2.028 1_565 S
O66 C69 1.247 . S
O67 Zn61 2.035 1_655 S
O67 C69 1.258 . S
C68 O62 1.247 . S
C68 O63 1.258 . S
C69 O66 1.247 . S
C69 O67 1.258 . S
C70 O72 1.247 . S
C70 O74 1.258 . S
C71 O78 1.247 . S
C71 O79 1.258 . S
O72 C70 1.247 . S
O72 Zn73 2.028 . S
Zn73 O72 2.028 . S
Zn73 O77 2.035 . S
Zn73 O79 2.035 . S
Zn73 O80 2.028 . S
O74 C70 1.258 . S
O74 Zn75 2.035 . S
Zn75 O74 2.035 . S
Zn75 O76 2.028 . S
Zn75 O78 2.028 . S
Zn75 O81 2.035 . S
O76 Zn75 2.028 . S
O76 C82 1.247 . S
O77 Zn73 2.035 . S
O77 C82 1.258 . S
O78 C71 1.247 . S
O78 Zn75 2.028 . S
O79 C71 1.258 . S
O79 Zn73 2.035 . S
O80 Zn73 2.028 . S
O80 C83 1.247 . S
O81 Zn75 2.035 . S
O81 C83 1.258 . S
C82 O76 1.247 . S
C82 O77 1.258 . S
C83 O80 1.247 . S
C83 O81 1.258 . S
C84 O86 1.247 . S
C84 O88 1.258 . S
C85 O92 1.247 . S
C85 O93 1.258 . S
O86 C84 1.247 . S
O86 Zn87 2.028 . S
Zn87 O86 2.028 . S
Zn87 O91 2.035 1_565 S
Zn87 O93 2.035 1_565 S
Zn87 O94 2.028 . S
O88 C84 1.258 . S
O88 Zn89 2.035 1_565 S
Zn89 O88 2.035 1_545 S
Zn89 O90 2.028 . S
Zn89 O92 2.028 . S
Zn89 O95 2.035 1_545 S
O90 Zn89 2.028 . S
O90 C96 1.247 . S
O91 Zn87 2.035 1_545 S
O91 C96 1.258 . S
O92 C85 1.247 . S
O92 Zn89 2.028 . S
O93 C85 1.258 . S
O93 Zn87 2.035 1_545 S
O94 Zn87 2.028 . S
O94 C97 1.247 . S
O95 Zn89 2.035 1_565 S
O95 C97 1.258 . S
C96 O90 1.247 . S
C96 O91 1.258 . S
C97 O94 1.247 . S
C97 O95 1.258 . S
C98 O100 1.247 . S
C98 O102 1.258 . S
C99 O106 1.247 . S
C99 O107 1.258 . S
O100 C98 1.247 . S
O100 Zn101 2.028 . S
Zn101 O100 2.028 . S
Zn101 O105 2.035 . S
Zn101 O107 2.035 . S
Zn101 O108 2.028 . S
O102 C98 1.258 . S
O102 Zn103 2.035 . S
Zn103 O102 2.035 . S
Zn103 O104 2.028 . S
Zn103 O106 2.028 . S
Zn103 O109 2.035 . S
O104 Zn103 2.028 . S
O104 C110 1.247 . S
O105 Zn101 2.035 . S
O105 C110 1.258 . S
O106 C99 1.247 . S
O106 Zn103 2.028 . S
O107 C99 1.258 . S
O107 Zn101 2.035 . S
O108 Zn101 2.028 . S
O108 C111 1.247 . S
O109 Zn103 2.035 . S
O109 C111 1.258 . S
C110 O104 1.247 . S
C110 O105 1.258 . S
C111 O108 1.247 . S
C111 O109 1.258 . S
C112 O114 1.247 . S
C112 O116 1.258 . S
C113 O120 1.247 . S
C113 O121 1.258 . S
O114 C112 1.247 . S
O114 Zn115 2.028 . S
Zn115 O114 2.028 . S
Zn115 O119 2.035 . S
Zn115 O121 2.035 . S
Zn115 O122 2.028 . S
O116 C112 1.258 . S
O116 Zn117 2.035 . S
Zn117 O116 2.035 . S
Zn117 O118 2.028 . S
Zn117 O120 2.028 . S
Zn117 O123 2.035 . S
O118 Zn117 2.028 . S
O118 C124 1.247 . S
O119 Zn115 2.035 . S
O119 C124 1.258 . S
O120 C113 1.247 . S
O120 Zn117 2.028 . S
O121 C113 1.258 . S
O121 Zn115 2.035 . S
O122 Zn115 2.028 . S
O122 C125 1.247 . S
O123 Zn117 2.035 . S
O123 C125 1.258 . S
C124 O118 1.247 . S
C124 O119 1.258 . S
C125 O122 1.247 . S
C125 O123 1.258 . S
C126 O128 1.247 . S
C126 O130 1.258 . S
C127 O134 1.247 . S
C127 O135 1.258 . S
O128 C126 1.247 . S
O128 Zn129 2.028 . S
Zn129 O128 2.028 . S
Zn129 O133 2.035 . S
Zn129 O135 2.035 1_565 S
Zn129 O136 2.028 . S
O130 C126 1.258 . S
O130 Zn131 2.035 1_565 S
Zn131 O130 2.035 1_545 S
Zn131 O132 2.028 . S
Zn131 O134 2.028 . S
Zn131 O137 2.035 . S
O132 Zn131 2.028 . S
O132 C138 1.247 . S
O133 Zn129 2.035 . S
O133 C138 1.258 1_565 S
O134 C127 1.247 . S
O134 Zn131 2.028 . S
O135 C127 1.258 . S
O135 Zn129 2.035 1_545 S
O136 Zn129 2.028 . S
O136 C139 1.247 . S
O137 Zn131 2.035 . S
O137 C139 1.258 1_545 S
C138 O132 1.247 . S
C138 O133 1.258 1_545 S
C139 O136 1.247 . S
C139 O137 1.258 1_565 S
C140 O142 1.247 . S
C140 O144 1.258 . S
C141 O148 1.247 . S
C141 O149 1.258 . S
O142 C140 1.247 . S
O142 Zn143 2.028 . S
Zn143 O142 2.028 . S
Zn143 O147 2.035 . S
Zn143 O149 2.035 . S
Zn143 O150 2.028 . S
O144 C140 1.258 . S
O144 Zn145 2.035 . S
Zn145 O144 2.035 . S
Zn145 O146 2.028 . S
Zn145 O148 2.028 . S
Zn145 O151 2.035 . S
O146 Zn145 2.028 . S
O146 C152 1.247 . S
O147 Zn143 2.035 . S
O147 C152 1.258 . S
O148 C141 1.247 . S
O148 Zn145 2.028 . S
O149 C141 1.258 . S
O149 Zn143 2.035 . S
O150 Zn143 2.028 . S
O150 C153 1.247 . S
O151 Zn145 2.035 . S
O151 C153 1.258 . S
C152 O146 1.247 . S
C152 O147 1.258 . S
C153 O150 1.247 . S
C153 O151 1.258 . S
C154 O156 1.247 . S
C154 O158 1.258 . S
C155 O162 1.247 . S
C155 O163 1.258 . S
O156 C154 1.247 . S
O156 Zn157 2.028 1_554 S
Zn157 O156 2.028 1_556 S
Zn157 O161 2.035 . S
Zn157 O163 2.035 1_545 S
Zn157 O164 2.028 1_556 S
O158 C154 1.258 . S
O158 Zn159 2.035 1_545 S
Zn159 O158 2.035 1_565 S
Zn159 O160 2.028 1_554 S
Zn159 O162 2.028 1_554 S
Zn159 O165 2.035 . S
O160 Zn159 2.028 1_556 S
O160 C166 1.247 . S
O161 Zn157 2.035 . S
O161 C166 1.258 1_545 S
O162 C155 1.247 . S
O162 Zn159 2.028 1_556 S
O163 C155 1.258 . S
O163 Zn157 2.035 1_565 S
O164 Zn157 2.028 1_554 S
O164 C167 1.247 . S
O165 Zn159 2.035 . S
O165 C167 1.258 1_565 S
C166 O160 1.247 . S
C166 O161 1.258 1_565 S
C167 O164 1.247 . S
C167 O165 1.258 1_545 S
C168 O170 1.247 . S
C168 O172 1.258 . S
C169 O176 1.247 . S
C169 O177 1.258 . S
O170 C168 1.247 . S
O170 Zn171 2.028 . S
Zn171 O170 2.028 . S
Zn171 O175 2.035 . S
Zn171 O177 2.035 . S
Zn171 O178 2.028 . S
O172 C168 1.258 . S
O172 Zn173 2.035 . S
Zn173 O172 2.035 . S
Zn173 O174 2.028 . S
Zn173 O176 2.028 . S
Zn173 O179 2.035 . S
O174 Zn173 2.028 . S
O174 C180 1.247 . S
O175 Zn171 2.035 . S
O175 C180 1.258 . S
O176 C169 1.247 . S
O176 Zn173 2.028 . S
O177 C169 1.258 . S
O177 Zn171 2.035 . S
O178 Zn171 2.028 . S
O178 C181 1.247 . S
O179 Zn173 2.035 . S
O179 C181 1.258 . S
C180 O174 1.247 . S
C180 O175 1.258 . S
C181 O178 1.247 . S
C181 O179 1.258 . S
C182 O184 1.247 . S
C182 O186 1.258 1_455 S
C183 O190 1.247 . S
C183 O191 1.258 1_655 S
O184 C182 1.247 . S
O184 Zn185 2.028 . S
Zn185 O184 2.028 . S
Zn185 O189 2.035 1_455 S
Zn185 O191 2.035 . S
Zn185 O192 2.028 . S
O186 C182 1.258 1_655 S
O186 Zn187 2.035 . S
Zn187 O186 2.035 . S
Zn187 O188 2.028 . S
Zn187 O190 2.028 . S
Zn187 O193 2.035 1_655 S
O188 Zn187 2.028 . S
O188 C194 1.247 . S
O189 Zn185 2.035 1_655 S
O189 C194 1.258 . S
O190 C183 1.247 . S
O190 Zn187 2.028 . S
O191 C183 1.258 1_455 S
O191 Zn185 2.035 . S
O192 Zn185 2.028 . S
O192 C195 1.247 . S
O193 Zn187 2.035 1_455 S
O193 C195 1.258 . S
C194 O188 1.247 . S
C194 O189 1.258 . S
C195 O192 1.247 . S
C195 O193 1.258 . S
C196 O198 1.247 . S
C196 O200 1.258 . S
C197 O204 1.247 . S
C197 O205 1.258 . S
O198 C196 1.247 . S
O198 Zn199 2.028 . S
Zn199 O198 2.028 . S
Zn199 O203 2.035 . S
Zn199 O205 2.035 . S
Zn199 O206 2.028 . S
O200 C196 1.258 . S
O200 Zn201 2.035 . S
Zn201 O200 2.035 . S
Zn201 O202 2.028 . S
Zn201 O204 2.028 . S
Zn201 O207 2.035 . S
O202 Zn201 2.028 . S
O202 C208 1.247 . S
O203 Zn199 2.035 . S
O203 C208 1.258 . S
O204 C197 1.247 . S
O204 Zn201 2.028 . S
O205 C197 1.258 . S
O205 Zn199 2.035 . S
O206 Zn199 2.028 . S
O206 C209 1.247 . S
O207 Zn201 2.035 . S
O207 C209 1.258 . S
C208 O202 1.247 . S
C208 O203 1.258 . S
C209 O206 1.247 . S
C209 O207 1.258 . S
C210 O212 1.247 . S
C210 O214 1.258 . S
C211 O218 1.247 . S
C211 O219 1.258 . S
O212 C210 1.247 . S
O212 Zn213 2.028 . S
Zn213 O212 2.028 . S
Zn213 O217 2.035 . S
Zn213 O219 2.035 . S
Zn213 O220 2.028 . S
O214 C210 1.258 . S
O214 Zn215 2.035 . S
Zn215 O214 2.035 . S
Zn215 O216 2.028 . S
Zn215 O218 2.028 . S
Zn215 O221 2.035 . S
O216 Zn215 2.028 . S
O216 C222 1.247 . S
O217 Zn213 2.035 . S
O217 C222 1.258 . S
O218 C211 1.247 . S
O218 Zn215 2.028 . S
O219 C211 1.258 . S
O219 Zn213 2.035 . S
O220 Zn213 2.028 . S
O220 C223 1.247 . S
O221 Zn215 2.035 . S
O221 C223 1.258 . S
C222 O216 1.247 . S
C222 O217 1.258 . S
C223 O220 1.247 . S
C223 O221 1.258 . S
C224 O226 1.247 . S
C224 O228 1.258 . S
C225 O232 1.247 . S
C225 O233 1.258 . S
O226 C224 1.247 . S
O226 Zn227 2.028 . S
Zn227 O226 2.028 . S
Zn227 O231 2.035 . S
Zn227 O233 2.035 . S
Zn227 O234 2.028 . S
O228 C224 1.258 . S
O228 Zn229 2.035 . S
Zn229 O228 2.035 . S
Zn229 O230 2.028 . S
Zn229 O232 2.028 . S
Zn229 O235 2.035 . S
O230 Zn229 2.028 . S
O230 C236 1.247 . S
O231 Zn227 2.035 . S
O231 C236 1.258 . S
O232 C225 1.247 . S
O232 Zn229 2.028 . S
O233 C225 1.258 . S
O233 Zn227 2.035 . S
O234 Zn227 2.028 . S
O234 C237 1.247 . S
O235 Zn229 2.035 . S
O235 C237 1.258 . S
C236 O230 1.247 . S
C236 O231 1.258 . S
C237 O234 1.247 . S
C237 O235 1.258 . S
C238 O240 1.247 . S
C238 O242 1.258 . S
C239 O246 1.247 . S
C239 O247 1.258 . S
O240 C238 1.247 . S
O240 Zn241 2.028 . S
Zn241 O240 2.028 . S
Zn241 O245 2.035 . S
Zn241 O247 2.035 . S
Zn241 O248 2.028 . S
O242 C238 1.258 . S
O242 Zn243 2.035 . S
Zn243 O242 2.035 . S
Zn243 O244 2.028 . S
Zn243 O246 2.028 . S
Zn243 O249 2.035 . S
O244 Zn243 2.028 . S
O244 C250 1.247 . S
O245 Zn241 2.035 . S
O245 C250 1.258 . S
O246 C239 1.247 . S
O246 Zn243 2.028 . S
O247 C239 1.258 . S
O247 Zn241 2.035 . S
O248 Zn241 2.028 . S
O248 C251 1.247 . S
O249 Zn243 2.035 . S
O249 C251 1.258 . S
C250 O244 1.247 . S
C250 O245 1.258 . S
C251 O248 1.247 . S
C251 O249 1.258 . S
C252 O254 1.247 . S
C252 O256 1.258 . S
C253 O260 1.247 . S
C253 O261 1.258 . S
O254 C252 1.247 . S
O254 Zn255 2.028 1_556 S
Zn255 O254 2.028 1_554 S
Zn255 O259 2.035 1_655 S
Zn255 O261 2.035 1_655 S
Zn255 O262 2.028 . S
O256 C252 1.258 . S
O256 Zn257 2.035 1_655 S
Zn257 O256 2.035 1_455 S
Zn257 O258 2.028 . S
Zn257 O260 2.028 1_556 S
Zn257 O263 2.035 1_455 S
O258 Zn257 2.028 . S
O258 C264 1.247 1_556 S
O259 Zn255 2.035 1_455 S
O259 C264 1.258 . S
O260 C253 1.247 . S
O260 Zn257 2.028 1_554 S
O261 C253 1.258 . S
O261 Zn255 2.035 1_455 S
O262 Zn255 2.028 . S
O262 C265 1.247 1_554 S
O263 Zn257 2.035 1_655 S
O263 C265 1.258 . S
C264 O258 1.247 1_554 S
C264 O259 1.258 . S
C265 O262 1.247 1_556 S
C265 O263 1.258 . S
C266 O268 1.247 . S
C266 O270 1.258 . S
C267 O274 1.247 . S
C267 O275 1.258 . S
O268 C266 1.247 . S
O268 Zn269 2.028 . S
Zn269 O268 2.028 . S
Zn269 O273 2.035 . S
Zn269 O275 2.035 . S
Zn269 O276 2.028 . S
O270 C266 1.258 . S
O270 Zn271 2.035 . S
Zn271 O270 2.035 . S
Zn271 O272 2.028 . S
Zn271 O274 2.028 . S
Zn271 O277 2.035 . S
O272 Zn271 2.028 . S
O272 C278 1.247 . S
O273 Zn269 2.035 . S
O273 C278 1.258 . S
O274 C267 1.247 . S
O274 Zn271 2.028 . S
O275 C267 1.258 . S
O275 Zn269 2.035 . S
O276 Zn269 2.028 . S
O276 C279 1.247 . S
O277 Zn271 2.035 . S
O277 C279 1.258 . S
C278 O272 1.247 . S
C278 O273 1.258 . S
C279 O276 1.247 . S
C279 O277 1.258 . S
C280 O282 1.247 . S
C280 O284 1.258 . S
C281 O288 1.247 . S
C281 O289 1.258 . S
O282 C280 1.247 . S
O282 Zn283 2.028 . S
Zn283 O282 2.028 . S
Zn283 O287 2.035 . S
Zn283 O289 2.035 . S
Zn283 O290 2.028 . S
O284 C280 1.258 . S
O284 Zn285 2.035 . S
Zn285 O284 2.035 . S
Zn285 O286 2.028 . S
Zn285 O288 2.028 . S
Zn285 O291 2.035 . S
O286 Zn285 2.028 . S
O286 C292 1.247 . S
O287 Zn283 2.035 . S
O287 C292 1.258 . S
O288 C281 1.247 . S
O288 Zn285 2.028 . S
O289 C281 1.258 . S
O289 Zn283 2.035 . S
O290 Zn283 2.028 . S
O290 C293 1.247 . S
O291 Zn285 2.035 . S
O291 C293 1.258 . S
C292 O286 1.247 . S
C292 O287 1.258 . S
C293 O290 1.247 . S
C293 O291 1.258 . S
C294 O296 1.247 . S
C294 O298 1.258 . S
C295 O302 1.247 . S
C295 O303 1.258 . S
O296 C294 1.247 . S
O296 Zn297 2.028 . S
Zn297 O296 2.028 . S
Zn297 O301 2.035 . S
Zn297 O303 2.035 . S
Zn297 O304 2.028 . S
O298 C294 1.258 . S
O298 Zn299 2.035 . S
Zn299 O298 2.035 . S
Zn299 O300 2.028 . S
Zn299 O302 2.028 . S
Zn299 O305 2.035 . S
O300 Zn299 2.028 . S
O300 C306 1.247 . S
O301 Zn297 2.035 . S
O301 C306 1.258 . S
O302 C295 1.247 . S
O302 Zn299 2.028 . S
O303 C295 1.258 . S
O303 Zn297 2.035 . S
O304 Zn297 2.028 . S
O304 C307 1.247 . S
O305 Zn299 2.035 . S
O305 C307 1.258 . S
C306 O300 1.247 . S
C306 O301 1.258 . S
C307 O304 1.247 . S
C307 O305 1.258 . S
C308 O310 1.247 . S
C308 O312 1.258 . S
C309 O316 1.247 . S
C309 O317 1.258 . S
O310 C308 1.247 . S
O310 Zn311 2.028 1_556 S
Zn311 O310 2.028 1_554 S
Zn311 O315 2.035 . S
Zn311 O317 2.035 . S
Zn311 O318 2.028 1_554 S
O312 C308 1.258 . S
O312 Zn313 2.035 . S
Zn313 O312 2.035 . S
Zn313 O314 2.028 1_556 S
Zn313 O316 2.028 1_556 S
Zn313 O319 2.035 . S
O314 Zn313 2.028 1_554 S
O314 C320 1.247 . S
O315 Zn311 2.035 . S
O315 C320 1.258 . S
O316 C309 1.247 . S
O316 Zn313 2.028 1_554 S
O317 C309 1.258 . S
O317 Zn311 2.035 . S
O318 Zn311 2.028 1_556 S
O318 C321 1.247 . S
O319 Zn313 2.035 . S
O319 C321 1.258 . S
C320 O314 1.247 . S
C320 O315 1.258 . S
C321 O318 1.247 . S
C321 O319 1.258 . S
C322 O324 1.247 . S
C322 O326 1.258 . S
C323 O330 1.247 . S
C323 O331 1.258 . S
O324 C322 1.247 . S
O324 Zn325 2.028 . S
Zn325 O324 2.028 . S
Zn325 O329 2.035 . S
Zn325 O331 2.035 . S
Zn325 O332 2.028 . S
O326 C322 1.258 . S
O326 Zn327 2.035 . S
Zn327 O326 2.035 . S
Zn327 O328 2.028 . S
Zn327 O330 2.028 . S
Zn327 O333 2.035 . S
O328 Zn327 2.028 . S
O328 C334 1.247 . S
O329 Zn325 2.035 . S
O329 C334 1.258 . S
O330 C323 1.247 . S
O330 Zn327 2.028 . S
O331 C323 1.258 . S
O331 Zn325 2.035 . S
O332 Zn325 2.028 . S
O332 C335 1.247 . S
O333 Zn327 2.035 . S
O333 C335 1.258 . S
C334 O328 1.247 . S
C334 O329 1.258 . S
C335 O332 1.247 . S
C335 O333 1.258 . S
C336 C337 1.369 . S
C336 C338 1.419 . S
C336 H340 0.930 . S
C337 C336 1.369 . S
C337 C346 1.429 . S
C338 C336 1.419 . S
C338 C339 1.363 . S
C338 H341 0.929 . S
C339 C338 1.363 . S
C339 C345 1.428 . S
H340 C336 0.930 . S
H341 C338 0.929 . S
S342 N343 1.613 . S
S342 N344 1.610 . S
N343 S342 1.613 . S
N343 C346 1.350 . S
N344 S342 1.610 . S
N344 C345 1.351 . S
C345 C339 1.428 . S
C345 N344 1.351 . S
C345 C346 1.434 . S
C346 C337 1.429 . S
C346 N343 1.350 . S
C346 C345 1.434 . S
C347 C348 1.369 . S
C347 C349 1.419 . S
C347 H351 0.930 . S
C348 C347 1.369 . S
C348 C357 1.429 . S
C349 C347 1.419 . S
C349 C350 1.363 . S
C349 H352 0.929 . S
C350 C349 1.363 . S
C350 C356 1.428 . S
H351 C347 0.930 . S
H352 C349 0.929 . S
S353 N354 1.613 . S
S353 N355 1.610 . S
N354 S353 1.613 . S
N354 C357 1.350 1_455 S
N355 S353 1.610 . S
N355 C356 1.351 1_455 S
C356 C350 1.428 . S
C356 N355 1.351 1_655 S
C356 C357 1.434 . S
C357 C348 1.429 . S
C357 N354 1.350 1_655 S
C357 C356 1.434 . S
C358 C359 1.369 . S
C358 C360 1.419 . S
C358 H362 0.930 . S
C359 C358 1.369 . S
C359 C368 1.429 . S
C360 C358 1.419 . S
C360 C361 1.363 . S
C360 H363 0.929 . S
C361 C360 1.363 . S
C361 C367 1.428 . S
H362 C358 0.930 . S
H363 C360 0.929 . S
S364 N365 1.613 . S
S364 N366 1.610 . S
N365 S364 1.613 . S
N365 C368 1.350 . S
N366 S364 1.610 . S
N366 C367 1.351 . S
C367 C361 1.428 . S
C367 N366 1.351 . S
C367 C368 1.434 . S
C368 C359 1.429 . S
C368 N365 1.350 . S
C368 C367 1.434 . S
C369 C370 1.369 . S
C369 C371 1.419 . S
C369 H373 0.930 . S
C370 C369 1.369 . S
C370 C379 1.429 . S
C371 C369 1.419 . S
C371 C372 1.363 . S
C371 H374 0.929 . S
C372 C371 1.363 . S
C372 C378 1.428 . S
H373 C369 0.930 . S
H374 C371 0.929 . S
S375 N376 1.613 . S
S375 N377 1.610 . S
N376 S375 1.613 . S
N376 C379 1.350 . S
N377 S375 1.610 . S
N377 C378 1.351 . S
C378 C372 1.428 . S
C378 N377 1.351 . S
C378 C379 1.434 . S
C379 C370 1.429 . S
C379 N376 1.350 . S
C379 C378 1.434 . S
C380 C381 1.369 . S
C380 C382 1.419 . S
C380 H384 0.930 . S
C381 C380 1.369 . S
C381 C390 1.429 . S
C382 C380 1.419 . S
C382 C383 1.363 . S
C382 H385 0.929 . S
C383 C382 1.363 . S
C383 C389 1.428 . S
H384 C380 0.930 . S
H385 C382 0.929 . S
S386 N387 1.613 . S
S386 N388 1.610 . S
N387 S386 1.613 . S
N387 C390 1.350 . S
N388 S386 1.610 . S
N388 C389 1.351 . S
C389 C383 1.428 . S
C389 N388 1.351 . S
C389 C390 1.434 . S
C390 C381 1.429 . S
C390 N387 1.350 . S
C390 C389 1.434 . S
C391 C392 1.369 . S
C391 C393 1.419 . S
C391 H395 0.930 . S
C392 C391 1.369 . S
C392 C401 1.429 . S
C393 C391 1.419 . S
C393 C394 1.363 . S
C393 H396 0.929 . S
C394 C393 1.363 . S
C394 C400 1.428 . S
H395 C391 0.930 . S
H396 C393 0.929 . S
S397 N398 1.613 . S
S397 N399 1.610 . S
N398 S397 1.613 . S
N398 C401 1.350 . S
N399 S397 1.610 . S
N399 C400 1.351 . S
C400 C394 1.428 . S
C400 N399 1.351 . S
C400 C401 1.434 . S
C401 C392 1.429 . S
C401 N398 1.350 . S
C401 C400 1.434 . S
C402 C403 1.369 . S
C402 C404 1.419 . S
C402 H406 0.930 . S
C403 C402 1.369 . S
C403 C412 1.429 . S
C404 C402 1.419 . S
C404 C405 1.363 . S
C404 H407 0.929 . S
C405 C404 1.363 . S
C405 C411 1.428 . S
H406 C402 0.930 . S
H407 C404 0.929 . S
S408 N409 1.613 . S
S408 N410 1.610 . S
N409 S408 1.613 . S
N409 C412 1.350 . S
N410 S408 1.610 . S
N410 C411 1.351 . S
C411 C405 1.428 . S
C411 N410 1.351 . S
C411 C412 1.434 . S
C412 C403 1.429 . S
C412 N409 1.350 . S
C412 C411 1.434 . S
C413 C414 1.369 . S
C413 C415 1.419 . S
C413 H417 0.930 . S
C414 C413 1.369 . S
C414 C423 1.429 1_554 S
C415 C413 1.419 . S
C415 C416 1.363 . S
C415 H418 0.929 . S
C416 C415 1.363 . S
C416 C422 1.428 1_554 S
H417 C413 0.930 . S
H418 C415 0.929 . S
S419 N420 1.613 . S
S419 N421 1.610 . S
N420 S419 1.613 . S
N420 C423 1.350 . S
N421 S419 1.610 . S
N421 C422 1.351 . S
C422 C416 1.428 1_556 S
C422 N421 1.351 . S
C422 C423 1.434 . S
C423 C414 1.429 1_556 S
C423 N420 1.350 . S
C423 C422 1.434 . S
C424 C425 1.369 . S
C424 C426 1.419 . S
C424 H428 0.930 . S
C425 C424 1.369 . S
C425 C434 1.429 . S
C426 C424 1.419 . S
C426 C427 1.363 . S
C426 H429 0.929 . S
C427 C426 1.363 . S
C427 C433 1.415 1_545 S
H428 C424 0.930 . S
H429 C426 0.929 . S
S430 N431 1.613 . S
S430 N432 1.610 . S
N431 S430 1.613 . S
N431 C434 1.350 1_565 S
N432 S430 1.610 . S
N432 C433 1.368 . S
C433 C427 1.415 1_565 S
C433 N432 1.368 . S
C433 C434 1.432 1_565 S
C434 C425 1.429 . S
C434 N431 1.350 1_545 S
C434 C433 1.432 1_545 S
C435 C436 1.369 . S
C435 C437 1.419 . S
C435 H439 0.930 . S
C436 C435 1.369 . S
C436 C445 1.429 . S
C437 C435 1.419 . S
C437 C438 1.363 . S
C437 H440 0.929 . S
C438 C437 1.363 . S
C438 C444 1.428 . S
H439 C435 0.930 . S
H440 C437 0.929 . S
S441 N442 1.613 . S
S441 N443 1.610 . S
N442 S441 1.613 . S
N442 C445 1.350 . S
N443 S441 1.610 . S
N443 C444 1.351 . S
C444 C438 1.428 . S
C444 N443 1.351 . S
C444 C445 1.434 . S
C445 C436 1.429 . S
C445 N442 1.350 . S
C445 C444 1.434 . S
C446 C447 1.369 . S
C446 C448 1.419 . S
C446 H450 0.930 1_565 S
C447 C446 1.369 . S
C447 C456 1.429 . S
C448 C446 1.419 . S
C448 C449 1.363 . S
C448 H451 0.929 . S
C449 C448 1.363 . S
C449 C455 1.428 . S
H450 C446 0.930 1_545 S
H451 C448 0.929 . S
S452 N453 1.613 . S
S452 N454 1.610 . S
N453 S452 1.613 . S
N453 C456 1.350 . S
N454 S452 1.610 . S
N454 C455 1.351 . S
C455 C449 1.428 . S
C455 N454 1.351 . S
C455 C456 1.434 . S
C456 C447 1.429 . S
C456 N453 1.350 . S
C456 C455 1.434 . S
C457 C458 1.369 . S
C457 C459 1.419 . S
C457 H461 0.930 . S
C458 C457 1.369 . S
C458 C467 1.429 . S
C459 C457 1.419 . S
C459 C460 1.363 . S
C459 H462 0.929 . S
C460 C459 1.363 . S
C460 C466 1.428 . S
H461 C457 0.930 . S
H462 C459 0.929 . S
S463 N464 1.613 . S
S463 N465 1.610 . S
N464 S463 1.613 . S
N464 C467 1.350 . S
N465 S463 1.610 . S
N465 C466 1.351 . S
C466 C460 1.428 . S
C466 N465 1.351 . S
C466 C467 1.434 . S
C467 C458 1.429 . S
C467 N464 1.350 . S
C467 C466 1.434 . S
C468 C469 1.369 . S
C468 C470 1.419 . S
C468 H472 0.930 . S
C469 C468 1.369 . S
C469 C478 1.429 . S
C470 C468 1.419 . S
C470 C471 1.363 . S
C470 H473 0.929 . S
C471 C470 1.363 . S
C471 C477 1.428 . S
H472 C468 0.930 . S
H473 C470 0.929 . S
S474 N475 1.613 . S
S474 N476 1.610 . S
N475 S474 1.613 . S
N475 C478 1.350 . S
N476 S474 1.610 . S
N476 C477 1.351 . S
C477 C471 1.428 . S
C477 N476 1.351 . S
C477 C478 1.434 . S
C478 C469 1.429 . S
C478 N475 1.350 . S
C478 C477 1.434 . S
C479 C480 1.369 . S
C479 C481 1.419 . S
C479 H483 0.930 . S
C480 C479 1.369 . S
C480 C489 1.429 . S
C481 C479 1.419 . S
C481 C482 1.363 . S
C481 H484 0.929 . S
C482 C481 1.363 . S
C482 C488 1.428 . S
H483 C479 0.930 . S
H484 C481 0.929 . S
S485 N486 1.613 . S
S485 N487 1.610 . S
N486 S485 1.613 . S
N486 C489 1.350 . S
N487 S485 1.610 . S
N487 C488 1.351 . S
C488 C482 1.428 . S
C488 N487 1.351 . S
C488 C489 1.434 . S
C489 C480 1.429 . S
C489 N486 1.350 . S
C489 C488 1.434 . S
C490 C491 1.369 . S
C490 C492 1.419 . S
C490 H494 0.930 . S
C491 C490 1.369 . S
C491 C500 1.429 . S
C492 C490 1.419 . S
C492 C493 1.363 . S
C492 H495 0.929 . S
C493 C492 1.363 . S
C493 C499 1.428 . S
H494 C490 0.930 . S
H495 C492 0.929 . S
S496 N497 1.613 . S
S496 N498 1.610 . S
N497 S496 1.613 . S
N497 C500 1.350 . S
N498 S496 1.610 . S
N498 C499 1.351 . S
C499 C493 1.428 . S
C499 N498 1.351 . S
C499 C500 1.434 . S
C500 C491 1.429 . S
C500 N497 1.350 . S
C500 C499 1.434 . S
C501 C502 1.369 . S
C501 C503 1.419 . S
C501 H505 0.930 . S
C502 C501 1.369 . S
C502 C511 1.429 . S
C503 C501 1.419 . S
C503 C504 1.363 . S
C503 H506 0.929 . S
C504 C503 1.363 . S
C504 C510 1.428 . S
H505 C501 0.930 . S
H506 C503 0.929 . S
S507 N508 1.613 . S
S507 N509 1.610 . S
N508 S507 1.613 . S
N508 C511 1.350 . S
N509 S507 1.610 . S
N509 C510 1.351 . S
C510 C504 1.428 . S
C510 N509 1.351 . S
C510 C511 1.434 . S
C511 C502 1.429 . S
C511 N508 1.350 . S
C511 C510 1.434 . S
C512 C513 1.369 . S
C512 C514 1.419 . S
C512 H516 0.930 . S
C513 C512 1.369 . S
C513 C522 1.429 . S
C514 C512 1.419 . S
C514 C515 1.363 . S
C514 H517 0.929 . S
C515 C514 1.363 . S
C515 C521 1.428 . S
H516 C512 0.930 . S
H517 C514 0.929 . S
S518 N519 1.613 . S
S518 N520 1.610 . S
N519 S518 1.613 . S
N519 C522 1.350 . S
N520 S518 1.610 . S
N520 C521 1.351 . S
C521 C515 1.428 . S
C521 N520 1.351 . S
C521 C522 1.434 . S
C522 C513 1.429 . S
C522 N519 1.350 . S
C522 C521 1.434 . S
C523 C524 1.369 . S
C523 C525 1.419 . S
C523 H527 0.930 . S
C524 C523 1.369 . S
C524 C533 1.429 . S
C525 C523 1.419 . S
C525 C526 1.363 . S
C525 H528 0.929 . S
C526 C525 1.363 . S
C526 C532 1.428 . S
H527 C523 0.930 . S
H528 C525 0.929 . S
S529 N530 1.613 . S
S529 N531 1.610 . S
N530 S529 1.613 . S
N530 C533 1.350 . S
N531 S529 1.610 . S
N531 C532 1.351 . S
C532 C526 1.428 . S
C532 N531 1.351 . S
C532 C533 1.434 . S
C533 C524 1.429 . S
C533 N530 1.350 . S
C533 C532 1.434 . S
C534 C535 1.369 . S
C534 C536 1.419 . S
C534 H538 0.930 . S
C535 C534 1.369 . S
C535 C544 1.429 . S
C536 C534 1.419 . S
C536 C537 1.363 . S
C536 H539 0.929 . S
C537 C536 1.363 . S
C537 C543 1.428 . S
H538 C534 0.930 . S
H539 C536 0.929 . S
S540 N541 1.613 . S
S540 N542 1.610 . S
N541 S540 1.613 . S
N541 C544 1.350 . S
N542 S540 1.610 . S
N542 C543 1.351 . S
C543 C537 1.428 . S
C543 N542 1.351 . S
C543 C544 1.434 . S
C544 C535 1.429 . S
C544 N541 1.350 . S
C544 C543 1.434 . S
C545 C546 1.369 1_655 S
C545 C547 1.419 1_655 S
C545 H549 0.930 . S
C546 C545 1.369 1_455 S
C546 C555 1.429 . S
C547 C545 1.419 1_455 S
C547 C548 1.363 . S
C547 H550 0.929 1_455 S
C548 C547 1.363 . S
C548 C554 1.428 . S
H549 C545 0.930 . S
H550 C547 0.929 1_655 S
S551 N552 1.613 . S
S551 N553 1.610 . S
N552 S551 1.613 . S
N552 C555 1.350 . S
N553 S551 1.610 . S
N553 C554 1.351 . S
C554 C548 1.428 . S
C554 N553 1.351 . S
C554 C555 1.434 . S
C555 C546 1.429 . S
C555 N552 1.350 . S
C555 C554 1.434 . S
C556 C557 1.369 . S
C556 C558 1.419 . S
C556 H560 0.930 . S
C557 C556 1.369 . S
C557 C566 1.429 . S
C558 C556 1.419 . S
C558 C559 1.363 . S
C558 H561 0.929 . S
C559 C558 1.363 . S
C559 C565 1.428 . S
H560 C556 0.930 . S
H561 C558 0.929 . S
S562 N563 1.613 . S
S562 N564 1.610 . S
N563 S562 1.613 . S
N563 C566 1.350 . S
N564 S562 1.610 . S
N564 C565 1.351 . S
C565 C559 1.428 . S
C565 N564 1.351 . S
C565 C566 1.434 . S
C566 C557 1.429 . S
C566 N563 1.350 . S
C566 C565 1.434 . S
C567 C568 1.369 . S
C567 C569 1.419 . S
C567 H571 0.930 . S
C568 C567 1.369 . S
C568 C577 1.429 . S
C569 C567 1.419 . S
C569 C570 1.363 . S
C569 H572 0.929 . S
C570 C569 1.363 . S
C570 C576 1.428 . S
H571 C567 0.930 . S
H572 C569 0.929 . S
S573 N574 1.613 . S
S573 N575 1.610 . S
N574 S573 1.613 . S
N574 C577 1.350 . S
N575 S573 1.610 . S
N575 C576 1.351 . S
C576 C570 1.428 . S
C576 N575 1.351 . S
C576 C577 1.434 . S
C577 C568 1.429 . S
C577 N574 1.350 . S
C577 C576 1.434 . S
C578 C579 1.369 . S
C578 C580 1.419 . S
C578 H582 0.930 . S
C579 C578 1.369 . S
C579 C588 1.429 . S
C580 C578 1.419 . S
C580 C581 1.363 . S
C580 H583 0.929 . S
C581 C580 1.363 . S
C581 C587 1.428 . S
H582 C578 0.930 . S
H583 C580 0.929 . S
S584 N585 1.613 . S
S584 N586 1.610 . S
N585 S584 1.613 . S
N585 C588 1.350 . S
N586 S584 1.610 . S
N586 C587 1.351 . S
C587 C581 1.428 . S
C587 N586 1.351 . S
C587 C588 1.434 . S
C588 C579 1.429 . S
C588 N585 1.350 . S
C588 C587 1.434 . S
C589 C590 1.369 . S
C589 C591 1.419 . S
C589 H593 0.930 . S
C590 C589 1.369 . S
C590 C599 1.429 . S
C591 C589 1.419 . S
C591 C592 1.363 . S
C591 H594 0.929 . S
C592 C591 1.363 . S
C592 C598 1.428 . S
H593 C589 0.930 . S
H594 C591 0.929 . S
S595 N596 1.613 . S
S595 N597 1.610 . S
N596 S595 1.613 . S
N596 C599 1.350 . S
N597 S595 1.610 . S
N597 C598 1.351 . S
C598 C592 1.428 . S
C598 N597 1.351 . S
C598 C599 1.434 . S
C599 C590 1.429 . S
C599 N596 1.350 . S
C599 C598 1.434 . S
C600 C601 1.369 . S
C600 C602 1.419 . S
C600 H604 0.930 1_455 S
C601 C600 1.369 . S
C601 C610 1.429 . S
C602 C600 1.419 . S
C602 C603 1.363 . S
C602 H605 0.929 . S
C603 C602 1.363 . S
C603 C609 1.428 . S
H604 C600 0.930 1_655 S
H605 C602 0.929 . S
S606 N607 1.613 . S
S606 N608 1.610 . S
N607 S606 1.613 . S
N607 C610 1.350 . S
N608 S606 1.610 . S
N608 C609 1.351 . S
C609 C603 1.428 . S
C609 N608 1.351 . S
C609 C610 1.434 . S
C610 C601 1.429 . S
C610 N607 1.350 . S
C610 C609 1.434 . S
C611 C612 1.369 . S
C611 C613 1.419 . S
C611 H615 0.930 . S
C612 C611 1.369 . S
C612 C621 1.429 . S
C613 C611 1.419 . S
C613 C614 1.363 . S
C613 H616 0.929 . S
C614 C613 1.363 . S
C614 C620 1.428 . S
H615 C611 0.930 . S
H616 C613 0.929 . S
S617 N618 1.613 . S
S617 N619 1.610 . S
N618 S617 1.613 . S
N618 C621 1.350 . S
N619 S617 1.610 . S
N619 C620 1.351 . S
C620 C614 1.428 . S
C620 N619 1.351 . S
C620 C621 1.434 . S
C621 C612 1.429 . S
C621 N618 1.350 . S
C621 C620 1.434 . S
C622 C623 1.369 . S
C622 C624 1.419 . S
C622 H626 0.930 . S
C623 C622 1.369 . S
C623 C632 1.429 . S
C624 C622 1.419 . S
C624 C625 1.363 . S
C624 H627 0.929 . S
C625 C624 1.363 . S
C625 C631 1.428 . S
H626 C622 0.930 . S
H627 C624 0.929 . S
S628 N629 1.613 . S
S628 N630 1.610 . S
N629 S628 1.613 . S
N629 C632 1.350 . S
N630 S628 1.610 . S
N630 C631 1.351 . S
C631 C625 1.428 . S
C631 N630 1.351 . S
C631 C632 1.434 . S
C632 C623 1.429 . S
C632 N629 1.350 . S
C632 C631 1.434 . S
C633 C634 1.369 . S
C633 C635 1.419 . S
C633 H637 0.930 . S
C634 C633 1.369 . S
C634 C643 1.429 . S
C635 C633 1.419 . S
C635 C636 1.363 . S
C635 H638 0.929 . S
C636 C635 1.363 . S
C636 C642 1.428 . S
H637 C633 0.930 . S
H638 C635 0.929 . S
S639 N640 1.613 . S
S639 N641 1.610 . S
N640 S639 1.613 . S
N640 C643 1.350 . S
N641 S639 1.610 . S
N641 C642 1.351 . S
C642 C636 1.428 . S
C642 N641 1.351 . S
C642 C643 1.434 . S
C643 C634 1.429 . S
C643 N640 1.350 . S
C643 C642 1.434 . S
C644 C645 1.369 . S
C644 C646 1.419 . S
C644 H648 0.930 . S
C645 C644 1.369 . S
C645 C654 1.429 . S
C646 C644 1.419 . S
C646 C647 1.363 . S
C646 H649 0.929 1_545 S
C647 C646 1.363 . S
C647 C653 1.428 . S
H648 C644 0.930 . S
H649 C646 0.929 1_565 S
S650 N651 1.613 . S
S650 N652 1.610 . S
N651 S650 1.613 . S
N651 C654 1.350 . S
N652 S650 1.610 . S
N652 C653 1.351 . S
C653 C647 1.428 . S
C653 N652 1.351 . S
C653 C654 1.434 . S
C654 C645 1.429 . S
C654 N651 1.350 . S
C654 C653 1.434 . S
C655 C656 1.369 . S
C655 C657 1.419 . S
C655 H659 0.930 . S
C656 C655 1.369 . S
C656 C665 1.429 . S
C657 C655 1.419 . S
C657 C658 1.363 . S
C657 H660 0.929 . S
C658 C657 1.363 . S
C658 C664 1.428 . S
H659 C655 0.930 . S
H660 C657 0.929 . S
S661 N662 1.613 1_565 S
S661 N663 1.610 1_565 S
N662 S661 1.613 1_545 S
N662 C665 1.350 . S
N663 S661 1.610 1_545 S
N663 C664 1.351 . S
C664 C658 1.428 . S
C664 N663 1.351 . S
C664 C665 1.434 . S
C665 C656 1.429 . S
C665 N662 1.350 . S
C665 C664 1.434 . S
C666 C667 1.369 . S
C666 C668 1.419 . S
C666 H670 0.930 . S
C667 C666 1.369 . S
C667 C676 1.429 . S
C668 C666 1.419 . S
C668 C669 1.363 . S
C668 H671 0.929 . S
C669 C668 1.363 . S
C669 C675 1.428 . S
H670 C666 0.930 . S
H671 C668 0.929 . S
S672 N673 1.613 . S
S672 N674 1.610 . S
N673 S672 1.613 . S
N673 C676 1.350 . S
N674 S672 1.610 . S
N674 C675 1.351 . S
C675 C669 1.428 . S
C675 N674 1.351 . S
C675 C676 1.434 . S
C676 C667 1.429 . S
C676 N673 1.350 . S
C676 C675 1.434 . S
C677 C678 1.369 . S
C677 C679 1.419 . S
C677 H681 0.930 . S
C678 C677 1.369 . S
C678 C687 1.429 . S
C679 C677 1.419 . S
C679 C680 1.363 . S
C679 H682 0.929 . S
C680 C679 1.363 . S
C680 C686 1.428 . S
H681 C677 0.930 . S
H682 C679 0.929 . S
S683 N684 1.613 . S
S683 N685 1.610 . S
N684 S683 1.613 . S
N684 C687 1.350 . S
N685 S683 1.610 . S
N685 C686 1.351 . S
C686 C680 1.428 . S
C686 N685 1.351 . S
C686 C687 1.434 . S
C687 C678 1.429 . S
C687 N684 1.350 . S
C687 C686 1.434 . S
C688 C689 1.369 . S
C688 C690 1.419 . S
C688 H692 0.930 . S
C689 C688 1.369 . S
C689 C698 1.429 . S
C690 C688 1.419 . S
C690 C691 1.363 . S
C690 H693 0.929 . S
C691 C690 1.363 . S
C691 C697 1.428 . S
H692 C688 0.930 . S
H693 C690 0.929 . S
S694 N695 1.613 . S
S694 N696 1.610 . S
N695 S694 1.613 . S
N695 C698 1.350 . S
N696 S694 1.610 . S
N696 C697 1.351 . S
C697 C691 1.428 . S
C697 N696 1.351 . S
C697 C698 1.434 . S
C698 C689 1.429 . S
C698 N695 1.350 . S
C698 C697 1.434 . S
C699 C700 1.369 . S
C699 C701 1.419 . S
C699 H703 0.930 . S
C700 C699 1.369 . S
C700 C709 1.429 . S
C701 C699 1.419 . S
C701 C702 1.363 . S
C701 H704 0.929 1_556 S
C702 C701 1.363 . S
C702 C708 1.428 . S
H703 C699 0.930 . S
H704 C701 0.929 1_554 S
S705 N706 1.613 . S
S705 N707 1.610 . S
N706 S705 1.613 . S
N706 C709 1.350 . S
N707 S705 1.610 . S
N707 C708 1.351 . S
C708 C702 1.428 . S
C708 N707 1.351 . S
C708 C709 1.434 . S
C709 C700 1.429 . S
C709 N706 1.350 . S
C709 C708 1.434 . S
C710 C711 1.369 . S
C710 C712 1.419 . S
C710 H714 0.930 . S
C711 C710 1.369 . S
C711 C720 1.429 . S
C712 C710 1.419 . S
C712 C713 1.363 . S
C712 H715 0.929 . S
C713 C712 1.363 . S
C713 C719 1.428 . S
H714 C710 0.930 . S
H715 C712 0.929 . S
S716 N717 1.613 1_655 S
S716 N718 1.610 1_655 S
N717 S716 1.613 1_455 S
N717 C720 1.350 . S
N718 S716 1.610 1_455 S
N718 C719 1.351 . S
C719 C713 1.428 . S
C719 N718 1.351 . S
C719 C720 1.434 . S
C720 C711 1.429 . S
C720 N717 1.350 . S
C720 C719 1.434 . S
C721 C722 1.369 . S
C721 C723 1.419 . S
C721 H725 0.930 . S
C722 C721 1.369 . S
C722 C731 1.429 . S
C723 C721 1.419 . S
C723 C724 1.363 . S
C723 H726 0.929 . S
C724 C723 1.363 . S
C724 C730 1.428 . S
H725 C721 0.930 . S
H726 C723 0.929 . S
S727 N728 1.613 . S
S727 N729 1.610 . S
N728 S727 1.613 . S
N728 C731 1.350 . S
N729 S727 1.610 . S
N729 C730 1.351 . S
C730 C724 1.428 . S
C730 N729 1.351 . S
C730 C731 1.434 . S
C731 C722 1.429 . S
C731 N728 1.350 . S
C731 C730 1.434 . S
C732 C733 1.369 . S
C732 C734 1.419 . S
C732 H736 0.930 . S
C733 C732 1.369 . S
C733 C742 1.429 . S
C734 C732 1.419 . S
C734 C735 1.363 . S
C734 H737 0.929 . S
C735 C734 1.363 . S
C735 C741 1.428 . S
H736 C732 0.930 . S
H737 C734 0.929 . S
S738 N739 1.613 . S
S738 N740 1.610 . S
N739 S738 1.613 . S
N739 C742 1.350 . S
N740 S738 1.610 . S
N740 C741 1.351 . S
C741 C735 1.428 . S
C741 N740 1.351 . S
C741 C742 1.434 . S
C742 C733 1.429 . S
C742 N739 1.350 . S
C742 C741 1.434 . S
C743 C744 1.369 . S
C743 C745 1.419 . S
C743 H747 0.930 . S
C744 C743 1.369 . S
C744 C753 1.429 . S
C745 C743 1.419 . S
C745 C746 1.363 . S
C745 H748 0.929 . S
C746 C745 1.363 . S
C746 C752 1.428 . S
H747 C743 0.930 . S
H748 C745 0.929 . S
S749 N750 1.613 . S
S749 N751 1.610 . S
N750 S749 1.613 . S
N750 C753 1.350 . S
N751 S749 1.610 . S
N751 C752 1.351 . S
C752 C746 1.428 . S
C752 N751 1.351 . S
C752 C753 1.434 . S
C753 C744 1.429 . S
C753 N750 1.350 . S
C753 C752 1.434 . S
C754 C755 1.369 . S
C754 C756 1.419 . S
C754 H758 0.930 . S
C755 C754 1.369 . S
C755 C764 1.429 . S
C756 C754 1.419 . S
C756 C757 1.363 . S
C756 H759 0.929 . S
C757 C756 1.363 . S
C757 C763 1.428 . S
H758 C754 0.930 . S
H759 C756 0.929 . S
S760 N761 1.613 . S
S760 N762 1.610 . S
N761 S760 1.613 . S
N761 C764 1.350 . S
N762 S760 1.610 . S
N762 C763 1.351 . S
C763 C757 1.428 . S
C763 N762 1.351 . S
C763 C764 1.434 . S
C764 C755 1.429 . S
C764 N761 1.350 . S
C764 C763 1.434 . S
C765 C766 1.369 . S
C765 C767 1.419 . S
C765 H769 0.930 . S
C766 C765 1.369 . S
C766 C775 1.429 . S
C767 C765 1.419 . S
C767 C768 1.363 . S
C767 H770 0.929 . S
C768 C767 1.363 . S
C768 C774 1.428 . S
H769 C765 0.930 . S
H770 C767 0.929 . S
S771 N772 1.613 . S
S771 N773 1.610 . S
N772 S771 1.613 . S
N772 C775 1.350 . S
N773 S771 1.610 . S
N773 C774 1.351 . S
C774 C768 1.428 . S
C774 N773 1.351 . S
C774 C775 1.434 . S
C775 C766 1.429 . S
C775 N772 1.350 . S
C775 C774 1.434 . S
C776 C777 1.369 . S
C776 C778 1.419 . S
C776 H780 0.930 . S
C777 C776 1.369 . S
C777 C786 1.429 . S
C778 C776 1.419 . S
C778 C779 1.363 . S
C778 H781 0.929 . S
C779 C778 1.363 . S
C779 C785 1.428 . S
H780 C776 0.930 . S
H781 C778 0.929 . S
S782 N783 1.613 . S
S782 N784 1.610 . S
N783 S782 1.613 . S
N783 C786 1.350 . S
N784 S782 1.610 . S
N784 C785 1.351 . S
C785 C779 1.428 . S
C785 N784 1.351 . S
C785 C786 1.434 . S
C786 C777 1.429 . S
C786 N783 1.350 . S
C786 C785 1.434 . S
C787 C788 1.369 . S
C787 C789 1.419 . S
C787 H791 0.930 . S
C788 C787 1.369 . S
C788 C797 1.429 . S
C789 C787 1.419 . S
C789 C790 1.363 . S
C789 H792 0.929 . S
C790 C789 1.363 . S
C790 C796 1.428 . S
H791 C787 0.930 . S
H792 C789 0.929 . S
S793 N794 1.613 . S
S793 N795 1.610 . S
N794 S793 1.613 . S
N794 C797 1.350 . S
N795 S793 1.610 . S
N795 C796 1.351 . S
C796 C790 1.428 . S
C796 N795 1.351 . S
C796 C797 1.434 . S
C797 C788 1.429 . S
C797 N794 1.350 . S
C797 C796 1.434 . S
C798 C799 1.369 . S
C798 C800 1.419 . S
C798 H802 0.930 . S
C799 C798 1.369 . S
C799 C808 1.429 . S
C800 C798 1.419 . S
C800 C801 1.363 . S
C800 H803 0.929 . S
C801 C800 1.363 . S
C801 C807 1.428 . S
H802 C798 0.930 . S
H803 C800 0.929 . S
S804 N805 1.613 . S
S804 N806 1.610 . S
N805 S804 1.613 . S
N805 C808 1.350 . S
N806 S804 1.610 . S
N806 C807 1.351 . S
C807 C801 1.428 . S
C807 N806 1.351 . S
C807 C808 1.434 . S
C808 C799 1.429 . S
C808 N805 1.350 . S
C808 C807 1.434 . S
C809 C810 1.369 . S
C809 C811 1.419 . S
C809 H813 0.930 . S
C810 C809 1.369 . S
C810 C819 1.429 . S
C811 C809 1.419 . S
C811 C812 1.363 . S
C811 H814 0.929 . S
C812 C811 1.363 . S
C812 C818 1.428 . S
H813 C809 0.930 . S
H814 C811 0.929 . S
S815 N816 1.613 . S
S815 N817 1.610 . S
N816 S815 1.613 . S
N816 C819 1.350 . S
N817 S815 1.610 . S
N817 C818 1.351 . S
C818 C812 1.428 . S
C818 N817 1.351 . S
C818 C819 1.434 . S
C819 C810 1.429 . S
C819 N816 1.350 . S
C819 C818 1.434 . S
C820 C821 1.369 . S
C820 C822 1.419 . S
C820 H824 0.930 . S
C821 C820 1.369 . S
C821 C830 1.429 . S
C822 C820 1.419 . S
C822 C823 1.363 . S
C822 H825 0.929 . S
C823 C822 1.363 . S
C823 C829 1.428 . S
H824 C820 0.930 . S
H825 C822 0.929 . S
S826 N827 1.613 . S
S826 N828 1.610 . S
N827 S826 1.613 . S
N827 C830 1.350 . S
N828 S826 1.610 . S
N828 C829 1.351 . S
C829 C823 1.428 . S
C829 N828 1.351 . S
C829 C830 1.434 . S
C830 C821 1.429 . S
C830 N827 1.350 . S
C830 C829 1.434 . S
C831 C832 1.369 . S
C831 C833 1.419 . S
C831 H835 0.930 . S
C832 C831 1.369 . S
C832 C841 1.429 . S
C833 C831 1.419 . S
C833 C834 1.363 . S
C833 H836 0.929 . S
C834 C833 1.363 . S
C834 C840 1.428 . S
H835 C831 0.930 . S
H836 C833 0.929 . S
S837 N838 1.613 . S
S837 N839 1.610 . S
N838 S837 1.613 . S
N838 C841 1.350 . S
N839 S837 1.610 . S
N839 C840 1.351 . S
C840 C834 1.428 . S
C840 N839 1.351 . S
C840 C841 1.434 . S
C841 C832 1.429 . S
C841 N838 1.350 . S
C841 C840 1.434 . S
C842 C843 1.369 . S
C842 C844 1.419 . S
C842 H846 0.930 . S
C843 C842 1.369 . S
C843 C852 1.429 . S
C844 C842 1.419 . S
C844 C845 1.363 . S
C844 H847 0.929 . S
C845 C844 1.363 . S
C845 C851 1.428 . S
H846 C842 0.930 . S
H847 C844 0.929 . S
S848 N849 1.613 . S
S848 N850 1.610 . S
N849 S848 1.613 . S
N849 C852 1.350 . S
N850 S848 1.610 . S
N850 C851 1.351 . S
C851 C845 1.428 . S
C851 N850 1.351 . S
C851 C852 1.434 . S
C852 C843 1.429 . S
C852 N849 1.350 . S
C852 C851 1.434 . S
C853 C854 1.369 . S
C853 C855 1.419 . S
C853 H857 0.930 . S
C854 C853 1.369 . S
C854 C863 1.429 . S
C855 C853 1.419 . S
C855 C856 1.363 . S
C855 H858 0.929 . S
C856 C855 1.363 . S
C856 C862 1.428 . S
H857 C853 0.930 . S
H858 C855 0.929 . S
S859 N860 1.613 . S
S859 N861 1.610 . S
N860 S859 1.613 . S
N860 C863 1.350 . S
N861 S859 1.610 . S
N861 C862 1.351 . S
C862 C856 1.428 . S
C862 N861 1.351 . S
C862 C863 1.434 . S
C863 C854 1.429 . S
C863 N860 1.350 . S
C863 C862 1.434 . S
C337 C99 1.501 . S
C339 C1 1.438 . S
C348 C15 1.080 . S
C350 C56 1.079 . S
C359 C83 1.411 . S
C361 C29 1.365 . S
C370 C55 1.276 . S
C372 C85 1.272 . S
C381 C124 1.437 . S
C383 C13 1.500 . S
C392 C27 1.269 . S
C394 C126 1.276 . S
C403 C152 1.472 . S
C405 C41 1.559 . S
C414 C154 1.071 . S
C416 C43 1.053 . S
C425 C68 1.066 . S
C427 C138 1.058 . S
C436 C71 1.332 . S
C438 C140 1.407 . S
C447 C166 1.086 . S
C449 C97 1.087 . S
C458 C112 1.499 . S
C460 C111 1.439 . S
C469 C294 1.561 . S
C471 C169 1.486 . S
C480 C194 1.277 . S
C482 C320 1.266 . S
C491 C197 1.359 . S
C493 C322 1.410 . S
C502 C334 1.325 . S
C504 C222 1.408 . S
C513 C236 1.406 . S
C515 C306 1.354 . S
C524 C279 1.203 . S
C526 C238 1.241 . S
C535 C181 1.404 . S
C537 C224 1.318 . S
C546 C182 1.064 . S
C548 C253 1.075 . S
C557 C209 1.558 . S
C559 C210 1.473 . S
C568 C250 1.206 . S
C570 C292 1.231 . S
C579 C265 1.088 . S
C581 C308 1.084 . S
C590 C280 1.210 . S
C592 C267 1.235 . S
C601 C57 2.441 . S
C603 C0 2.330 . S
C612 C82 1.580 . S
C614 C14 1.514 . S
C623 C84 2.564 . S
C625 C28 2.484 . S
C634 C98 2.124 . S
C636 C54 2.055 . S
C645 C125 2.336 . S
C647 C167 2.442 . S
C656 C127 2.056 . S
C658 C113 2.128 . S
C667 C153 2.138 . S
C669 C139 2.235 . S
C678 C141 1.469 . S
C680 C155 1.419 . S
C689 C264 2.440 . S
C691 C110 2.330 . S
C700 C168 2.125 . S
C702 C42 2.237 . S
C711 C12 2.126 . S
C713 C195 2.058 . S
C722 C26 2.562 . S
C724 C196 2.484 . S
C733 C70 2.105 . S
C735 C266 2.177 . S
C744 C69 1.424 . S
C746 C223 1.470 . S
C755 C96 1.521 . S
C757 C237 1.581 . S
C766 C225 2.101 . S
C768 C239 2.182 . S
C777 C180 1.467 . S
C779 C252 1.423 . S
C788 C211 2.138 . S
C790 C183 2.235 . S
C799 C278 2.307 . S
C801 C208 2.376 . S
C810 C293 2.184 . S
C812 C335 2.102 . S
C821 C281 2.313 . S
C823 C295 2.375 . S
C832 C321 2.571 . S
C834 C307 2.484 . S
C843 C323 1.582 . S
C845 C309 1.515 . S
C854 C40 2.377 . S
C856 C251 2.313 . S
