# Generated by pormake.
# Topology uni, (4)-cn, num edge types: 1
# Building blocks:
#     Node 0, Type 0, BuildingBlock: CEKHIL_clean_sbu_0, # of connection points: 4
#     Node 1, Type 0, BuildingBlock: CEKHIL_clean_sbu_0, # of connection points: 4
#     Node 2, Type 0, BuildingBlock: CEKHIL_clean_sbu_0, # of connection points: 4
#     Node 3, Type 0, BuildingBlock: CEKHIL_clean_sbu_0, # of connection points: 4
#     Node 4, Type 0, BuildingBlock: CEKHIL_clean_sbu_0, # of connection points: 4
#     Node 5, Type 0, BuildingBlock: CEKHIL_clean_sbu_0, # of connection points: 4
#     Edge 6, Type (0, 0), BuildingBlock: MIFKUJ_clean_linker_0, # of connection points: 2
#     Edge 7, Type (0, 0), BuildingBlock: MIFKUJ_clean_linker_0, # of connection points: 2
#     Edge 8, Type (0, 0), BuildingBlock: MIFKUJ_clean_linker_0, # of connection points: 2
#     Edge 9, Type (0, 0), BuildingBlock: MIFKUJ_clean_linker_0, # of connection points: 2
#     Edge 10, Type (0, 0), BuildingBlock: MIFKUJ_clean_linker_0, # of connection points: 2
#     Edge 11, Type (0, 0), BuildingBlock: MIFKUJ_clean_linker_0, # of connection points: 2
#     Edge 12, Type (0, 0), BuildingBlock: MIFKUJ_clean_linker_0, # of connection points: 2
#     Edge 13, Type (0, 0), BuildingBlock: MIFKUJ_clean_linker_0, # of connection points: 2
#     Edge 14, Type (0, 0), BuildingBlock: MIFKUJ_clean_linker_0, # of connection points: 2
#     Edge 15, Type (0, 0), BuildingBlock: MIFKUJ_clean_linker_0, # of connection points: 2
#     Edge 16, Type (0, 0), BuildingBlock: MIFKUJ_clean_linker_0, # of connection points: 2
#     Edge 17, Type (0, 0), BuildingBlock: MIFKUJ_clean_linker_0, # of connection points: 2
# Relax obj value: 0.072
# Max RMSD: 0.101
# Mean RMSD: 0.095
data_MOF--net-uni--node1-CEKHIL_clean_sbu_0--edge1-MIFKUJ_clean_linker_0
_symmetry_space_group_name_H-M    P1
_symmetry_Int_Tables_number       1
_symmetry_cell_setting            triclinic
loop_
_symmetry_equiv_pos_as_xyz
'x, y, z'
_cell_length_a     50.073345
_cell_length_b     49.67611
_cell_length_c     29.972835
_cell_angle_alpha  89.936522
_cell_angle_beta   90.064278
_cell_angle_gamma 120.83426
loop_
_atom_site_label
_atom_site_type_symbol
_atom_site_fract_x
_atom_site_fract_y
_atom_site_fract_z
_atom_type_partial_charge
Co0 Co 0.66313 0.03614 0.07918 0.0
O1 O 0.67979 0.01746 0.11883 0.0
O2 O 0.64178 0.99122 0.07037 0.0
C3 C 0.70997 0.07614 0.05591 0.0
O4 O 0.64021 0.04597 0.03129 0.0
Co5 Co 0.67506 0.10332 0.08982 0.0
O6 O 0.65718 0.09742 0.02901 0.0
C7 C 0.63047 0.05269 0.15018 0.0
C8 C 0.66018 0.99075 0.10056 0.0
C9 C 0.64109 0.06989 0.01297 0.0
O10 O 0.6323 0.03187 0.12676 0.0
O11 O 0.64731 0.08215 0.14249 0.0
O12 O 0.69786 0.04856 0.03778 0.0
O13 O 0.6945 0.07822 0.08879 0.0
Co14 Co 0.65916 0.66585 0.24328 0.0
O15 O 0.69587 0.683 0.28077 0.0
O16 O 0.68083 0.64322 0.23423 0.0
C17 C 0.66712 0.71286 0.21971 0.0
O18 O 0.62478 0.64264 0.19686 0.0
Co19 Co 0.60554 0.6788 0.25763 0.0
O20 O 0.58985 0.65816 0.19901 0.0
C21 C 0.61049 0.63359 0.31645 0.0
C22 C 0.70095 0.66212 0.26333 0.0
C23 C 0.60076 0.64255 0.18113 0.0
O24 O 0.63268 0.63541 0.29223 0.0
O25 O 0.59862 0.65075 0.30979 0.0
O26 O 0.68148 0.7004 0.20042 0.0
O27 O 0.65022 0.69775 0.25358 0.0
Co28 Co 0.02537 0.65929 0.39083 0.0
O29 O 1.00579 0.67599 0.35324 0.0
O30 O 0.98071 0.63691 0.40075 0.0
C31 C 0.06505 0.70657 0.41365 0.0
O32 O 0.0369 0.63648 0.43698 0.0
Co33 Co 0.09238 0.6731 0.37484 0.0
O34 O 0.08819 0.65454 0.43502 0.0
C35 C 0.04123 0.62895 0.31556 0.0
C36 C 0.97954 0.6556 0.37142 0.0
C37 C 0.06155 0.63799 0.45304 0.0
O38 O 0.02084 0.62878 0.3421 0.0
O39 O 0.07058 0.64714 0.32087 0.0
O40 O 0.03814 0.69396 0.43331 0.0
O41 O 0.0665 0.69141 0.37981 0.0
Co42 Co 0.39486 0.02342 0.57837 0.0
O43 O 0.37666 0.04152 0.61588 0.0
O44 O 0.41669 0.06858 0.57076 0.0
C45 C 0.34876 0.98339 0.55299 0.0
O46 O 0.41905 0.0138 0.53242 0.0
Co47 Co 0.38278 0.95631 0.59134 0.0
O48 O 0.40256 0.96243 0.53189 0.0
C49 C 0.42563 0.00694 0.65262 0.0
C50 C 0.3971 0.0685 0.59926 0.0
C51 C 0.41874 0.98982 0.51536 0.0
O52 O 0.42449 0.02761 0.62787 0.0
O53 O 0.40879 0.97741 0.64549 0.0
O54 O 0.36122 0.01099 0.53472 0.0
O55 O 0.36341 0.98138 0.58703 0.0
Co56 Co 0.40036 0.39476 0.74498 0.0
O57 O 0.36516 0.37865 0.78551 0.0
O58 O 0.3766 0.41491 0.73414 0.0
C59 C 0.39406 0.34777 0.7246 0.0
O60 O 0.43288 0.41688 0.69583 0.0
Co61 Co 0.45676 0.38574 0.75875 0.0
O62 O 0.46906 0.40302 0.69767 0.0
C63 C 0.45159 0.43268 0.81304 0.0
C64 C 0.35807 0.39751 0.76579 0.0
C65 C 0.45683 0.41724 0.67926 0.0
O66 O 0.42766 0.42804 0.79033 0.0
O67 O 0.46494 0.41681 0.80721 0.0
O68 O 0.37737 0.35796 0.70622 0.0
O69 O 0.41182 0.36476 0.75682 0.0
Co70 Co 0.03307 0.39866 0.89082 0.0
O71 O 0.05325 0.38349 0.85149 0.0
O72 O 0.07766 0.4217 0.90058 0.0
C73 C 0.99464 0.35066 0.9133 0.0
O74 O 0.0214 0.42041 0.9384 0.0
Co75 Co 0.96522 0.38317 0.87941 0.0
O76 O 0.96961 0.39897 0.94141 0.0
C77 C 0.0148 0.43006 0.81974 0.0
C78 C 0.07925 0.40387 0.87032 0.0
C79 C 0.99669 0.41686 0.95734 0.0
O80 O 0.0361 0.42929 0.84313 0.0
O81 O 0.98568 0.41197 0.82735 0.0
O82 O 0.02177 0.36383 0.93236 0.0
O83 O 0.99204 0.36579 0.88026 0.0
H84 H 0.62205 0.09047 0.20729 0.0
H85 H 0.58527 0.07555 0.26821 0.0
H86 H 0.55021 0.97788 0.24048 0.0
H87 H 0.58716 0.99267 0.17829 0.0
H88 H 0.50295 0.98981 0.25655 0.0
H89 H 0.59642 0.01123 0.32948 0.0
H90 H 0.65238 0.04125 0.3474 0.0
H91 H 0.64317 0.1173 0.39633 0.0
H92 H 0.58721 0.08791 0.37811 0.0
H93 H 0.42002 0.94463 0.46435 0.0
H94 H 0.45451 0.95204 0.40194 0.0
H95 H 0.49768 0.05229 0.41481 0.0
H96 H 0.46336 0.04517 0.47743 0.0
H97 H 0.54062 0.0343 0.40744 0.0
H98 H 0.4477 0.01375 0.33031 0.0
H99 H 0.39182 0.98374 0.31188 0.0
H100 H 0.40005 0.90544 0.27125 0.0
H101 H 0.45594 0.93485 0.29002 0.0
C102 C 0.60668 0.06574 0.21388 0.0
C103 C 0.60782 0.04279 0.18771 0.0
C104 C 0.58563 0.05725 0.24905 0.0
C105 C 0.56523 0.02561 0.25944 0.0
C106 C 0.56584 1.00248 0.2332 0.0
C107 C 0.58706 0.01098 0.19776 0.0
C108 C 0.54333 0.01722 0.29765 0.0
C109 C 0.51119 0.999 0.28976 0.0
C110 C 0.55401 0.02972 0.34085 0.0
C111 C 0.58764 0.04744 0.35212 0.0
C112 C 0.60636 0.03444 0.34377 0.0
C113 C 0.63808 0.05133 0.35403 0.0
C114 C 0.65133 0.08119 0.37291 0.0
C115 C 0.63287 0.09418 0.38168 0.0
C116 C 0.60114 0.0774 0.37145 0.0
C117 C 0.43674 0.9683 0.45388 0.0
C118 C 0.43885 0.99431 0.47611 0.0
C119 C 0.45639 0.97247 0.41799 0.0
C120 C 0.47861 1.00272 0.40347 0.0
C121 C 0.48073 0.02872 0.42542 0.0
C122 C 0.46097 0.02458 0.46116 0.0
C123 C 0.50024 0.00733 0.3662 0.0
C124 C 0.53237 0.02485 0.37434 0.0
C125 C 0.48951 0.99409 0.32336 0.0
C126 C 0.45592 0.97637 0.31206 0.0
C127 C 0.43754 0.99003 0.31783 0.0
C128 C 0.40587 0.97315 0.30724 0.0
C129 C 0.39237 0.94266 0.29054 0.0
C130 C 0.41053 0.92903 0.28427 0.0
C131 C 0.4422 0.9458 0.29484 0.0
H132 H 0.36785 0.92963 0.28235 0.0
H133 H 0.67589 0.09423 0.38083 0.0
H134 H 0.63044 0.59494 0.35038 0.0
H135 H 0.60689 0.55685 0.41157 0.0
H136 H 0.53591 0.58092 0.42586 0.0
H137 H 0.55928 0.61897 0.36622 0.0
H138 H 0.5567 0.57817 0.50458 0.0
H139 H 0.52282 0.51245 0.37305 0.0
H140 H 0.53042 0.49105 0.30316 0.0
H141 H 0.58227 0.45753 0.37405 0.0
H142 H 0.5753 0.4791 0.44429 0.0
H143 H 0.44069 0.45432 0.63216 0.0
H144 H 0.46856 0.48923 0.56973 0.0
H145 H 0.53583 0.45964 0.57288 0.0
H146 H 0.50794 0.42433 0.63482 0.0
H147 H 0.52137 0.46541 0.48791 0.0
H148 H 0.55249 0.52861 0.62021 0.0
H149 H 0.54443 0.54975 0.69002 0.0
H150 H 0.49762 0.58814 0.61735 0.0
H151 H 0.50504 0.56687 0.54717 0.0
C152 C 0.60983 0.59209 0.36662 0.0
C153 C 0.59691 0.6102 0.35328 0.0
C154 C 0.5963 0.57022 0.40148 0.0
C155 C 0.56946 0.56585 0.42328 0.0
C156 C 0.55666 0.5839 0.40988 0.0
C157 C 0.57014 0.60572 0.37549 0.0
C158 C 0.55444 0.54288 0.46036 0.0
C159 C 0.54876 0.55346 0.5007 0.0
C160 C 0.54475 0.51075 0.45596 0.0
C161 C 0.54884 0.4977 0.4138 0.0
C162 C 0.53604 0.50073 0.37366 0.0
C163 C 0.5402 0.48853 0.334 0.0
C164 C 0.5569 0.47303 0.33414 0.0
C165 C 0.56939 0.4696 0.37397 0.0
C166 C 0.56533 0.48179 0.41372 0.0
C167 C 0.46125 0.45498 0.6194 0.0
C168 C 0.47214 0.43661 0.63894 0.0
C169 C 0.47726 0.4751 0.58378 0.0
C170 C 0.50462 0.47748 0.56706 0.0
C171 C 0.51487 0.45832 0.58529 0.0
C172 C 0.49888 0.43817 0.62088 0.0
C173 C 0.52302 0.50065 0.53156 0.0
C174 C 0.52946 0.49014 0.49176 0.0
C175 C 0.5334 0.5329 0.53635 0.0
C176 C 0.5291 0.54592 0.57848 0.0
C177 C 0.54029 0.54138 0.61916 0.0
C178 C 0.53587 0.55341 0.65879 0.0
C179 C 0.52046 0.57021 0.65813 0.0
C180 C 0.50952 0.57509 0.61782 0.0
C181 C 0.51386 0.56309 0.5781 0.0
H182 H 0.51706 0.5795 0.68885 0.0
H183 H 0.56009 0.4636 0.3034 0.0
H184 H 0.97567 0.43484 0.76123 0.0
H185 H 0.98844 0.4717 0.7005 0.0
H186 H 0.08603 0.51429 0.73089 0.0
H187 H 0.07339 0.47719 0.79299 0.0
H188 H 0.06874 0.55845 0.71383 0.0
H189 H 0.05776 0.46797 0.6416 0.0
H190 H 0.0329 0.41175 0.62363 0.0
H191 H 0.95301 0.41204 0.57205 0.0
H192 H 0.97721 0.46819 0.59029 0.0
H193 H 0.10852 0.64175 0.50496 0.0
H194 H 0.10417 0.60855 0.56812 0.0
H195 H 1.00434 0.55728 0.55463 0.0
H196 H 1.00841 0.59041 0.49141 0.0
H197 H 0.02817 0.51836 0.56209 0.0
H198 H 0.03807 0.60805 0.63868 0.0
H199 H 0.06268 0.66412 0.65751 0.0
H200 H 0.14509 0.66534 0.7007 0.0
H201 H 0.12111 0.60933 0.68152 0.0
C202 C 0.99997 0.45191 0.75532 0.0
C203 C 0.02352 0.45281 0.78222 0.0
C204 C 1.0072 0.47299 0.72023 0.0
C205 C 0.03819 0.49554 0.71063 0.0
C206 C 0.06192 0.49698 0.73758 0.0
C207 C 0.05467 0.47568 0.77295 0.0
C208 C 0.04518 0.51736 0.67239 0.0
C209 C 0.06046 0.54976 0.68043 0.0
C210 C 0.03382 0.50601 0.62895 0.0
C211 C 0.01923 0.47227 0.6176 0.0
C212 C 0.0348 0.45601 0.6267 0.0
C213 C 0.02084 0.42415 0.61642 0.0
C214 C 0.99137 0.40832 0.59678 0.0
C215 C 0.97583 0.42433 0.58728 0.0
C216 C 0.98968 0.45619 0.59752 0.0
C217 C 0.08558 0.62353 0.51548 0.0
C218 C 0.0588 0.61877 0.49289 0.0
C219 C 0.08315 0.60462 0.55179 0.0
C220 C 0.05393 0.58046 0.56628 0.0
C221 C 0.02715 0.57577 0.54404 0.0
C222 C 0.02952 0.59484 0.50797 0.0
C223 C 0.05125 0.55942 0.60365 0.0
C224 C 0.03677 0.52712 0.59537 0.0
C225 C 0.06345 0.57091 0.64673 0.0
C226 C 0.07794 0.60459 0.65815 0.0
C227 C 0.06156 0.62034 0.65178 0.0
C228 C 0.07536 0.6521 0.66261 0.0
C229 C 0.10547 0.66831 0.68016 0.0
C230 C 0.12179 0.65277 0.68702 0.0
C231 C 0.1081 0.62102 0.6762 0.0
H232 H 0.11611 0.69289 0.68854 0.0
H233 H 0.98059 0.38365 0.58886 0.0
H234 H 0.59024 0.01531 0.98445 0.0
H235 H 0.55613 0.00794 0.9216 0.0
H236 H 0.61346 0.10588 0.88764 0.0
H237 H 0.64692 0.11366 0.95178 0.0
H238 H 0.5564 0.09062 0.88 0.0
H239 H 0.61342 0.04417 0.82618 0.0
H240 H 0.63515 0.00946 0.82763 0.0
H241 H 0.54301 0.92876 0.83422 0.0
H242 H 0.52073 0.963 0.8334 0.0
H243 H 0.47717 0.06532 0.66844 0.0
H244 H 0.51638 0.07957 0.72721 0.0
H245 H 0.46391 0.98582 0.78067 0.0
H246 H 0.4253 0.97134 0.72207 0.0
H247 H 0.52287 1.00284 0.77328 0.0
H248 H 0.46674 0.05103 0.83121 0.0
H249 H 0.44606 0.08663 0.82774 0.0
H250 H 0.53851 0.16534 0.81018 0.0
H251 H 0.55968 0.13014 0.813 0.0
C252 C 0.59576 0.03526 0.96342 0.0
C253 C 0.62141 0.06506 0.97312 0.0
C254 C 0.57627 0.03099 0.92726 0.0
C255 C 0.5824 0.05622 0.89915 0.0
C256 C 0.60814 0.08599 0.90866 0.0
C257 C 0.62735 0.09039 0.94532 0.0
C258 C 0.56149 0.05168 0.86068 0.0
C259 C 0.5495 0.07171 0.85626 0.0
C260 C 0.55208 0.02685 0.82974 0.0
C261 C 0.56542 0.00619 0.83008 0.0
C262 C 0.5978 0.01903 0.82823 0.0
C263 C 0.61022 0.99944 0.8289 0.0
C264 C 0.59048 0.96693 0.83111 0.0
C265 C 0.55828 0.95394 0.83255 0.0
C266 C 0.54574 0.97343 0.83192 0.0
C267 C 0.47385 0.04787 0.69303 0.0
C268 C 0.44812 0.01713 0.69029 0.0
C269 C 0.49628 0.05605 0.72666 0.0
C270 C 0.49314 0.03376 0.75851 0.0
C271 C 0.46705 1.00338 0.75639 0.0
C272 C 0.44488 0.99516 0.72279 0.0
C273 C 0.51726 0.04127 0.79333 0.0
C274 C 0.52996 0.02186 0.7969 0.0
C275 C 0.52748 0.06678 0.82317 0.0
C276 C 0.51475 0.08792 0.82185 0.0
C277 C 0.48262 0.07591 0.8263 0.0
C278 C 0.47082 0.09602 0.8245 0.0
C279 C 0.49095 0.12822 0.81861 0.0
C280 C 0.52294 0.14039 0.81466 0.0
C281 C 0.53485 0.12038 0.81639 0.0
H282 H 0.48177 0.14374 0.81721 0.0
H283 H 0.60014 0.95181 0.83163 0.0
H284 H 0.54171 0.62292 0.15197 0.0
H285 H 0.51469 0.58982 0.08757 0.0
H286 H 0.59597 0.58491 0.05538 0.0
H287 H 0.62315 0.61775 0.12019 0.0
H288 H 0.56837 0.59698 0.9804 0.0
H289 H 0.53945 0.52482 0.10281 0.0
H290 H 0.51898 0.50392 0.17771 0.0
H291 H 0.43095 0.49316 0.14199 0.0
H292 H 0.45108 0.51447 0.06701 0.0
H293 H 0.51112 0.46352 0.84352 0.0
H294 H 0.53357 0.50227 0.90295 0.0
H295 H 0.44575 0.49728 0.92122 0.0
H296 H 0.42289 0.45826 0.86086 0.0
H297 H 0.47339 0.49258 1.00181 0.0
H298 H 0.50123 0.56038 0.87626 0.0
H299 H 0.52183 0.57981 0.8009 0.0
H300 H 0.61187 0.59824 0.84186 0.0
H301 H 0.59169 0.57841 0.91731 0.0
C302 C 0.55394 0.61492 0.13117 0.0
C303 C 0.58462 0.62296 0.1414 0.0
C304 C 0.53839 0.59592 0.09441 0.0
C305 C 0.55327 0.58481 0.06675 0.0
C306 C 0.58407 0.59326 0.07627 0.0
C307 C 0.59951 0.6119 0.11345 0.0
C308 C 0.53645 0.5639 0.02842 0.0
C309 C 0.54775 0.57406 0.98507 0.0
C310 C 0.50905 0.53435 0.03444 0.0
C311 C 0.4969 0.52162 0.0795 0.0
C312 C 0.51583 0.51831 0.11108 0.0
C313 C 0.50427 0.50632 0.15351 0.0
C314 C 0.47372 0.49732 0.16466 0.0
C315 C 0.45464 0.50021 0.13334 0.0
C316 C 0.46611 0.51224 0.09086 0.0
C317 C 0.49649 0.47069 0.85991 0.0
C318 C 0.46513 0.45769 0.84749 0.0
C319 C 0.50946 0.493 0.89381 0.0
C320 C 0.49141 0.50279 0.91641 0.0
C321 C 0.4601 0.49007 0.90409 0.0
C322 C 0.44713 0.46793 0.86952 0.0
C323 C 0.50544 0.52553 0.95377 0.0
C324 C 0.49373 0.5157 0.99701 0.0
C325 C 0.53247 0.55537 0.94763 0.0
C326 C 0.54486 0.56765 0.90241 0.0
C327 C 0.52537 0.56834 0.86913 0.0
C328 C 0.53698 0.57946 0.8264 0.0
C329 C 0.56812 0.59019 0.81657 0.0
C330 C 0.58774 0.5899 0.84952 0.0
C331 C 0.57624 0.57875 0.8923 0.0
H332 H 0.57706 0.59877 0.78345 0.0
H333 H 0.4648 0.48802 0.19752 0.0
H334 H 0.95557 0.40168 0.02623 0.0
H335 H 0.96 0.43404 0.09054 0.0
H336 H 0.04852 0.50813 0.04137 0.0
H337 H 0.04499 0.47504 0.97872 0.0
H338 H 0.053 0.50644 0.1248 0.0
H339 H 0.97316 0.50469 0.03047 0.0
H340 H 0.92343 0.47901 0.98932 0.0
H341 H 0.87404 0.43696 0.11079 0.0
H342 H 0.92352 0.46213 0.15255 0.0
H343 H 0.07089 0.63721 0.23658 0.0
H344 H 0.0593 0.59856 0.17837 0.0
H345 H 0.97824 0.53052 0.25121 0.0
H346 H 0.9893 0.5698 0.30942 0.0
H347 H 0.96717 0.52485 0.16238 0.0
H348 H 0.04716 0.53059 0.25719 0.0
H349 H 0.09697 0.55753 0.29801 0.0
H350 H 0.14636 0.593 0.17462 0.0
H351 H 0.09681 0.5666 0.1331 0.0
C352 C 0.97604 0.42483 0.02936 0.0
C353 C 0.99988 0.43587 0.99733 0.0
C354 C 0.97846 0.44346 0.06598 0.0
C355 C 1.00425 0.47402 0.07053 0.0
C356 C 0.02831 0.48476 0.03885 0.0
C357 C 0.02629 0.46581 0.00293 0.0
C358 C 1.00646 0.49494 0.10802 0.0
C359 C 0.03429 0.51066 0.13251 0.0
C360 C 0.98176 0.49985 0.11956 0.0
C361 C 0.95204 0.48504 0.09452 0.0
C362 C 0.9517 0.48984 0.04833 0.0
C363 C 0.92356 0.47539 0.02492 0.0
C364 C 0.8956 0.45629 0.04741 0.0
C365 C 0.89571 0.45171 0.0934 0.0
C366 C 0.92378 0.46609 0.11696 0.0
C367 C 0.05037 0.61413 0.24007 0.0
C368 C 0.03121 0.60645 0.2779 0.0
C369 C 0.04385 0.59197 0.20681 0.0
C370 C 0.01843 0.56129 0.21096 0.0
C371 C 0.99819 0.55395 0.24747 0.0
C372 C 1.00447 0.57641 0.28066 0.0
C373 C 0.014 0.53692 0.17788 0.0
C374 C 0.98576 0.52046 0.15459 0.0
C375 C 0.03835 0.53139 0.16723 0.0
C376 C 0.06824 0.54675 0.19207 0.0
C377 C 0.06863 0.54424 0.23879 0.0
C378 C 0.09682 0.55941 0.26205 0.0
C379 C 0.1248 0.577 0.23893 0.0
C380 C 0.12466 0.57937 0.19248 0.0
C381 C 0.09654 0.56426 0.16907 0.0
H382 H 0.1466 0.58876 0.257 0.0
H383 H 0.87385 0.44511 0.02921 0.0
H384 H 0.66984 0.75848 0.27172 0.0
H385 H 0.66986 0.80558 0.24884 0.0
H386 H 0.66637 0.77945 0.11064 0.0
H387 H 0.66881 0.73323 0.13387 0.0
H388 H 0.69913 0.83824 0.11353 0.0
H389 H 0.59953 0.76814 0.1744 0.0
H390 H 0.56117 0.73194 0.22919 0.0
H391 H 0.59433 0.80643 0.32515 0.0
H392 H 0.6332 0.843 0.27114 0.0
H393 H 0.63694 0.93715 0.05105 0.0
H394 H 0.63885 0.88985 0.06837 0.0
H395 H 0.68409 0.93067 0.19338 0.0
H396 H 0.68313 0.97844 0.17572 0.0
H397 H 0.62747 0.86328 0.19252 0.0
H398 H 0.72871 0.93234 0.12451 0.0
H399 H 0.76249 0.96591 0.06362 0.0
H400 H 0.71841 0.88841 0.97258 0.0
H401 H 0.68403 0.85449 0.03283 0.0
C402 C 0.66937 0.76297 0.23642 0.0
C403 C 0.66916 0.74219 0.20454 0.0
C404 C 0.66903 0.78977 0.2233 0.0
C405 C 0.66697 0.79577 0.17794 0.0
C406 C 0.66769 0.7754 0.14587 0.0
C407 C 0.66908 0.74898 0.15908 0.0
C408 C 0.66387 0.8231 0.16447 0.0
C409 C 0.68308 0.8433 0.1305 0.0
C410 C 0.64296 0.83011 0.18629 0.0
C411 C 0.61945 0.80825 0.21881 0.0
C412 C 0.59876 0.77676 0.20727 0.0
C413 C 0.57692 0.75618 0.23819 0.0
C414 C 0.57536 0.76686 0.28065 0.0
C415 C 0.59558 0.79818 0.29225 0.0
C416 C 0.61751 0.81886 0.26148 0.0
C417 C 0.64719 0.93601 0.08231 0.0
C418 C 0.65987 0.96152 0.11207 0.0
C419 C 0.64836 0.90903 0.09205 0.0
C420 C 0.66169 0.90683 0.13207 0.0
C421 C 0.67374 0.93195 0.16228 0.0
C422 C 0.6732 0.95921 0.15213 0.0
C423 C 0.66303 0.87829 0.14253 0.0
C424 C 0.64336 0.8579 0.17571 0.0
C425 C 0.68277 0.87065 0.11912 0.0
C426 C 0.70357 0.891 0.08304 0.0
C427 C 0.72601 0.92255 0.09141 0.0
C428 C 0.74531 0.94162 0.05703 0.0
C429 C 0.74254 0.92933 0.01422 0.0
C430 C 0.72051 0.89791 0.00573 0.0
C431 C 0.70112 0.87876 0.03998 0.0
H432 H 0.75751 0.94413 0.98766 0.0
H433 H 0.55843 0.75089 0.30454 0.0
H434 H 0.92016 0.61306 0.39918 0.0
H435 H 0.87212 0.61282 0.38191 0.0
H436 H 0.92428 0.69588 0.30158 0.0
H437 H 0.97224 0.69623 0.31856 0.0
H438 H 0.88333 0.70016 0.35891 0.0
H439 H 0.88047 0.625 0.25291 0.0
H440 H 0.88096 0.57726 0.23191 0.0
H441 H 0.79952 0.52134 0.31156 0.0
H442 H 0.7988 0.56882 0.33351 0.0
H443 H 0.76131 0.70826 0.25462 0.0
H444 H 0.80777 0.70587 0.27202 0.0
H445 H 0.7497 0.61084 0.31932 0.0
H446 H 0.70329 0.61252 0.2977 0.0
H447 H 0.79354 0.61154 0.28224 0.0
H448 H 0.79429 0.68295 0.39014 0.0
H449 H 0.79304 0.72912 0.41743 0.0
H450 H 0.87645 0.78994 0.34438 0.0
H451 H 0.87801 0.74412 0.31624 0.0
C452 C 0.92138 0.63119 0.37767 0.0
C453 C 0.95008 0.65461 0.36017 0.0
C454 C 0.89387 0.63099 0.36774 0.0
C455 C 0.8945 0.65426 0.34022 0.0
C456 C 0.92315 0.67769 0.32289 0.0
C457 C 0.95057 0.67777 0.33251 0.0
C458 C 0.86548 0.65456 0.32976 0.0
C459 C 0.86377 0.68093 0.34175 0.0
C460 C 0.8395 0.62903 0.30882 0.0
C461 C 0.83975 0.60049 0.29516 0.0
C462 C 0.86279 0.60254 0.26618 0.0
C463 C 0.8631 0.57553 0.25407 0.0
C464 C 0.84034 0.54629 0.27048 0.0
C465 C 0.81716 0.544 0.29892 0.0
C466 C 0.81678 0.57095 0.31117 0.0
C467 C 0.75861 0.6869 0.26869 0.0
C468 C 0.72885 0.66064 0.27509 0.0
C469 C 0.7852 0.68559 0.27917 0.0
C470 C 0.78266 0.65848 0.29847 0.0
C471 C 0.75265 0.63214 0.30468 0.0
C472 C 0.72606 0.63309 0.29253 0.0
C473 C 0.81111 0.65735 0.31129 0.0
C474 C 0.81284 0.63081 0.29972 0.0
C475 C 0.83687 0.68247 0.33366 0.0
C476 C 0.83611 0.71008 0.3508 0.0
C477 C 0.81227 0.70616 0.37972 0.0
C478 C 0.81152 0.73227 0.39535 0.0
C479 C 0.83461 0.76244 0.38256 0.0
C480 C 0.85856 0.76656 0.35422 0.0
C481 C 0.85942 0.74054 0.33847 0.0
H482 H 0.83397 0.78261 0.39469 0.0
H483 H 0.84062 0.52541 0.26108 0.0
H484 H 0.11165 0.74961 0.36187 0.0
H485 H 0.15841 0.79776 0.3849 0.0
H486 H 0.12895 0.77758 0.52238 0.0
H487 H 0.08076 0.73024 0.49866 0.0
H488 H 0.15477 0.83594 0.51292 0.0
H489 H 0.18757 0.76486 0.47195 0.0
H490 H 0.19273 0.72719 0.42463 0.0
H491 H 0.23995 0.79825 0.32481 0.0
H492 H 0.23469 0.83624 0.37127 0.0
H493 H 0.31058 0.93016 0.5992 0.0
H494 H 0.26149 0.88477 0.57464 0.0
H495 H 0.27142 0.92832 0.44645 0.0
H496 H 0.32038 0.9745 0.47135 0.0
H497 H 0.25655 0.85915 0.45203 0.0
H498 H 0.2227 0.9302 0.50109 0.0
H499 H 0.21946 0.96542 0.55588 0.0
H500 H 0.17656 0.88991 0.65038 0.0
H501 H 0.17998 0.85434 0.59635 0.0
C502 C 0.11509 0.75554 0.39701 0.0
C503 C 0.09271 0.73613 0.42854 0.0
C504 C 0.14202 0.78299 0.41026 0.0
C505 C 0.14794 0.79108 0.45563 0.0
C506 C 0.12518 0.77194 0.48718 0.0
C507 C 0.09766 0.74485 0.4737 0.0
C508 C 0.17783 0.81939 0.46983 0.0
C509 C 0.17696 0.84067 0.49987 0.0
C510 C 0.2071 0.82604 0.45289 0.0
C511 C 0.21047 0.80331 0.42493 0.0
C512 C 0.19887 0.7724 0.43978 0.0
C513 C 0.20184 0.75099 0.41313 0.0
C514 C 0.21659 0.7603 0.37169 0.0
C515 C 0.22849 0.79106 0.35688 0.0
C516 C 0.22555 0.81255 0.38338 0.0
C517 C 0.30235 0.93014 0.56576 0.0
C518 C 0.31933 0.95592 0.53717 0.0
C519 C 0.27426 0.90421 0.55186 0.0
C520 C 0.26282 0.90325 0.50883 0.0
C521 C 0.27989 0.92869 0.47985 0.0
C522 C 0.30776 0.95503 0.49411 0.0
C523 C 0.23312 0.87542 0.49433 0.0
C524 C 0.23418 0.85425 0.46462 0.0
C525 C 0.20421 0.86842 0.51254 0.0
C526 C 0.20188 0.88971 0.54484 0.0
C527 C 0.21284 0.92118 0.5337 0.0
C528 C 0.21091 0.94119 0.56458 0.0
C529 C 0.19789 0.92993 0.60663 0.0
C530 C 0.18668 0.89861 0.61782 0.0
C531 C 0.18858 0.87851 0.58707 0.0
H532 H 0.19642 0.94546 0.63049 0.0
H533 H 0.21885 0.7437 0.3511 0.0
H534 H 0.34994 0.2991 0.67427 0.0
H535 H 0.34992 0.2517 0.65053 0.0
H536 H 0.43901 0.28606 0.71361 0.0
H537 H 0.43877 0.33281 0.73856 0.0
H538 H 0.43048 0.26054 0.61896 0.0
H539 H 0.38498 0.23603 0.76833 0.0
H540 H 0.34634 0.23071 0.82404 0.0
H541 H 0.27231 0.16471 0.73957 0.0
H542 H 0.31054 0.17001 0.68305 0.0
H543 H 0.44711 0.12744 0.61185 0.0
H544 H 0.44658 0.1749 0.63208 0.0
H545 H 0.34611 0.12245 0.62893 0.0
H546 H 0.34685 0.07462 0.61287 0.0
H547 H 0.35921 0.1583 0.6909 0.0
H548 H 0.39903 0.17905 0.5422 0.0
H549 H 0.43355 0.18449 0.47982 0.0
H550 H 0.51218 0.25656 0.55114 0.0
H551 H 0.47818 0.25129 0.61419 0.0
C552 C 0.36955 0.29657 0.68292 0.0
C553 C 0.39432 0.31968 0.70838 0.0
C554 C 0.3695 0.2695 0.66938 0.0
C555 C 0.39449 0.26541 0.68032 0.0
C556 C 0.41955 0.2888 0.70474 0.0
C557 C 0.4193 0.31546 0.7191 0.0
C558 C 0.39427 0.23638 0.66749 0.0
C559 C 0.41511 0.23815 0.6348 0.0
C560 C 0.37347 0.20707 0.68711 0.0
C561 C 0.35058 0.20368 0.72129 0.0
C562 C 0.36045 0.22061 0.76148 0.0
C563 C 0.33863 0.21755 0.79323 0.0
C564 C 0.30689 0.19746 0.78529 0.0
C565 C 0.2969 0.1803 0.74564 0.0
C566 C 0.31863 0.18331 0.71376 0.0
C567 C 0.42498 0.12618 0.61565 0.0
C568 C 0.39703 0.09744 0.6108 0.0
C569 C 0.42462 0.15341 0.62673 0.0
C570 C 0.39628 0.15283 0.63104 0.0
C571 C 0.36836 0.1239 0.626 0.0
C572 C 0.36875 0.09649 0.61664 0.0
C573 C 0.39556 0.18197 0.6418 0.0
C574 C 0.37454 0.1804 0.67437 0.0
C575 C 0.41557 0.21131 0.62093 0.0
C576 C 0.43609 0.21456 0.58308 0.0
C577 C 0.42371 0.19592 0.54469 0.0
C578 C 0.44318 0.19899 0.5092 0.0
C579 C 0.47505 0.2208 0.51157 0.0
C580 C 0.4875 0.23965 0.54938 0.0
C581 C 0.46814 0.23665 0.58499 0.0
H582 H 0.49008 0.22314 0.48406 0.0
H583 H 0.29003 0.19512 0.80992 0.0
H584 H 0.12632 0.41531 0.9273 0.0
H585 H 0.17342 0.41394 0.91117 0.0
H586 H 0.14708 0.39633 0.77221 0.0
H587 H 0.09857 0.39488 0.78945 0.0
H588 H 0.16937 0.36395 0.78862 0.0
H589 H 0.20943 0.47207 0.8218 0.0
H590 H 0.21752 0.51786 0.86511 0.0
H591 H 0.25737 0.49255 0.97232 0.0
H592 H 0.24918 0.44638 0.92987 0.0
H593 H 0.32797 0.41966 0.71537 0.0
H594 H 0.28085 0.42068 0.73432 0.0
H595 H 0.27777 0.38011 0.86272 0.0
H596 H 0.32441 0.37805 0.84346 0.0
H597 H 0.27203 0.44221 0.8515 0.0
H598 H 0.22964 0.33218 0.81029 0.0
H599 H 0.22428 0.29098 0.75882 0.0
H600 H 0.19192 0.3274 0.65566 0.0
H601 H 0.19757 0.36913 0.70637 0.0
C602 C 0.13075 0.41134 0.89328 0.0
C603 C 0.10892 0.40543 0.85956 0.0
C604 C 0.1579 0.41081 0.88389 0.0
C605 C 0.16463 0.40581 0.84009 0.0
C606 C 0.14277 0.40023 0.80631 0.0
C607 C 0.11506 0.39959 0.81607 0.0
C608 C 0.19378 0.40538 0.82969 0.0
C609 C 0.19175 0.38144 0.80211 0.0
C610 C 0.22339 0.42784 0.84724 0.0
C611 C 0.22841 0.45561 0.87282 0.0
C612 C 0.21974 0.47616 0.85473 0.0
C613 C 0.22436 0.50219 0.87911 0.0
C614 C 0.23787 0.50806 0.92149 0.0
C615 C 0.24687 0.48795 0.93952 0.0
C616 C 0.24227 0.46187 0.9153 0.0
C617 C 0.3173 0.41096 0.74768 0.0
C618 C 0.32992 0.39873 0.77791 0.0
C619 C 0.29036 0.41154 0.7584 0.0
C620 C 0.27583 0.40047 0.79989 0.0
C621 C 0.28865 0.38876 0.83051 0.0
C622 C 0.31522 0.38752 0.81942 0.0
C623 C 0.24713 0.40097 0.81095 0.0
C624 C 0.24942 0.42491 0.83836 0.0
C625 C 0.21799 0.37918 0.79223 0.0
C626 C 0.21439 0.35397 0.76194 0.0
C627 C 0.22171 0.3316 0.77649 0.0
C628 C 0.21854 0.3081 0.74749 0.0
C629 C 0.20786 0.30663 0.70395 0.0
C630 C 0.20024 0.3286 0.68937 0.0
C631 C 0.2034 0.35215 0.71823 0.0
H632 H 0.20542 0.28842 0.68155 0.0
H633 H 0.24143 0.52822 0.94031 0.0
H634 H 0.95345 0.30197 0.86266 0.0
H635 H 0.90682 0.25396 0.88694 0.0
H636 H 0.92657 0.28599 0.02352 0.0
H637 H 0.97484 0.33295 0.99921 0.0
H638 H 0.90329 0.22812 0.02624 0.0
H639 H 0.8695 0.29012 0.95083 0.0
H640 H 0.86601 0.32132 0.88949 0.0
H641 H 0.8285 0.24117 0.80305 0.0
H642 H 0.83214 0.20959 0.86372 0.0
H643 H 0.74536 0.13168 0.09907 0.0
H644 H 0.7947 0.17692 0.07488 0.0
H645 H 0.79074 0.12858 0.95346 0.0
H646 H 0.74147 0.08279 0.9779 0.0
H647 H 0.805 0.19374 0.94375 0.0
H648 H 0.83822 0.1323 0.02698 0.0
H649 H 0.8394 0.10364 0.09348 0.0
H650 H 0.875 0.18738 0.17206 0.0
H651 H 0.87362 0.21643 0.10614 0.0
C652 C 0.94793 0.29851 0.89791 0.0
C653 C 0.96759 0.32105 0.9291 0.0
C654 C 0.92105 0.27121 0.9118 0.0
C655 C 0.91231 0.26654 0.95704 0.0
C656 C 0.93249 0.28889 0.98841 0.0
C657 C 0.96008 0.31575 0.97459 0.0
C658 C 0.88214 0.23858 0.97136 0.0
C659 C 0.88182 0.221 0.0084 0.0
C660 C 0.85382 0.22873 0.94817 0.0
C661 C 0.85136 0.24758 0.91171 0.0
C662 C 0.86067 0.27921 0.91866 0.0
C663 C 0.85865 0.29695 0.88402 0.0
C664 C 0.84711 0.28326 0.84237 0.0
C665 C 0.83747 0.25176 0.83531 0.0
C666 C 0.83948 0.23391 0.86982 0.0
C667 C 0.75495 0.13063 0.06719 0.0
C668 C 0.73953 0.10363 0.0404 0.0
C669 C 0.7832 0.15648 0.05351 0.0
C670 C 0.79646 0.15605 0.01251 0.0
C671 C 0.78091 0.12934 0.98528 0.0
C672 C 0.75283 0.10321 0.9993 0.0
C673 C 0.82648 0.18361 0.99813 0.0
C674 C 0.82664 0.20106 0.96127 0.0
C675 C 0.85438 0.19384 0.02222 0.0
C676 C 0.85555 0.17646 0.06171 0.0
C677 C 0.84607 0.14454 0.05852 0.0
C678 C 0.84682 0.12824 0.09609 0.0
C679 C 0.8572 0.14366 0.137 0.0
C680 C 0.86694 0.17545 0.14037 0.0
C681 C 0.86621 0.19185 0.1029 0.0
H682 H 0.85775 0.131 0.16605 0.0
H683 H 0.84557 0.29704 0.81559 0.0
loop_
_geom_bond_atom_site_label_1
_geom_bond_atom_site_label_2
_geom_bond_distance
_geom_bond_site_symmetry_2
_ccdc_geom_bond_type
Co0 O1 2.216 . S
Co0 O2 2.091 1_545 S
Co0 O4 2.004 . S
Co0 O10 2.021 . S
Co0 O12 2.137 . S
Co0 O13 2.244 . S
O1 Co0 2.216 . S
O1 C8 1.247 1_545 S
O2 Co0 2.091 1_565 S
O2 C8 1.261 . S
C3 O12 1.247 . S
C3 O13 1.272 . S
O4 Co0 2.004 . S
O4 C9 1.259 1_554 S
Co5 O6 2.061 . S
Co5 O11 2.052 . S
Co5 O13 2.135 . S
O6 Co5 2.061 . S
O6 C9 1.235 1_554 S
C7 O10 1.238 . S
C7 O11 1.241 . S
C8 O1 1.247 1_565 S
C8 O2 1.261 . S
C9 O4 1.259 1_556 S
C9 O6 1.235 1_556 S
O10 Co0 2.021 . S
O10 C7 1.238 . S
O11 Co5 2.052 . S
O11 C7 1.241 . S
O12 Co0 2.137 . S
O12 C3 1.247 . S
O13 Co0 2.244 . S
O13 C3 1.272 . S
O13 Co5 2.135 . S
Co14 O15 2.216 . S
Co14 O16 2.091 . S
Co14 O18 2.004 . S
Co14 O24 2.021 . S
Co14 O26 2.137 . S
Co14 O27 2.244 . S
O15 Co14 2.216 . S
O15 C22 1.247 . S
O16 Co14 2.091 . S
O16 C22 1.261 . S
C17 O26 1.247 . S
C17 O27 1.272 . S
O18 Co14 2.004 . S
O18 C23 1.259 . S
Co19 O20 2.061 . S
Co19 O25 2.052 . S
Co19 O27 2.135 . S
O20 Co19 2.061 . S
O20 C23 1.235 . S
C21 O24 1.238 . S
C21 O25 1.241 . S
C22 O15 1.247 . S
C22 O16 1.261 . S
C23 O18 1.259 . S
C23 O20 1.235 . S
O24 Co14 2.021 . S
O24 C21 1.238 . S
O25 Co19 2.052 . S
O25 C21 1.241 . S
O26 Co14 2.137 . S
O26 C17 1.247 . S
O27 Co14 2.244 . S
O27 C17 1.272 . S
O27 Co19 2.135 . S
Co28 O29 2.205 1_455 S
Co28 O30 2.091 1_455 S
Co28 O32 2.004 . S
Co28 O38 2.021 . S
Co28 O40 2.137 . S
Co28 O41 2.244 . S
O29 Co28 2.205 1_655 S
O29 C36 1.261 . S
O30 Co28 2.091 1_655 S
O30 C36 1.261 . S
C31 O40 1.247 . S
C31 O41 1.272 . S
O32 Co28 2.004 . S
O32 C37 1.259 . S
Co33 O34 2.061 . S
Co33 O39 2.052 . S
Co33 O41 2.135 . S
O34 Co33 2.061 . S
O34 C37 1.235 . S
C35 O38 1.238 . S
C35 O39 1.241 . S
C36 O29 1.261 . S
C36 O30 1.261 . S
C37 O32 1.259 . S
C37 O34 1.235 . S
O38 Co28 2.021 . S
O38 C35 1.238 . S
O39 Co33 2.052 . S
O39 C35 1.241 . S
O40 Co28 2.137 . S
O40 C31 1.247 . S
O41 Co28 2.244 . S
O41 C31 1.272 . S
O41 Co33 2.135 . S
Co42 O43 2.216 . S
Co42 O44 2.091 . S
Co42 O46 2.004 . S
Co42 O52 2.021 . S
Co42 O54 2.137 . S
Co42 O55 2.244 1_545 S
O43 Co42 2.216 . S
O43 C50 1.247 . S
O44 Co42 2.091 . S
O44 C50 1.261 . S
C45 O54 1.247 1_565 S
C45 O55 1.272 . S
O46 Co42 2.004 . S
O46 C51 1.259 . S
Co47 O48 2.061 . S
Co47 O53 2.052 . S
Co47 O55 2.135 . S
O48 Co47 2.061 . S
O48 C51 1.235 1_565 S
C49 O52 1.238 . S
C49 O53 1.241 1_545 S
C50 O43 1.247 . S
C50 O44 1.261 . S
C51 O46 1.259 . S
C51 O48 1.235 1_545 S
O52 Co42 2.021 . S
O52 C49 1.238 . S
O53 Co47 2.052 . S
O53 C49 1.241 1_565 S
O54 Co42 2.137 . S
O54 C45 1.247 1_545 S
O55 Co42 2.244 1_565 S
O55 C45 1.272 . S
O55 Co47 2.135 . S
Co56 O57 2.216 . S
Co56 O58 2.091 . S
Co56 O60 2.004 . S
Co56 O66 2.021 . S
Co56 O68 2.137 . S
Co56 O69 2.244 . S
O57 Co56 2.216 . S
O57 C64 1.247 . S
O58 Co56 2.091 . S
O58 C64 1.261 . S
C59 O68 1.247 . S
C59 O69 1.272 . S
O60 Co56 2.004 . S
O60 C65 1.259 . S
Co61 O62 2.061 . S
Co61 O67 2.052 . S
Co61 O69 2.135 . S
O62 Co61 2.061 . S
O62 C65 1.235 . S
C63 O66 1.238 . S
C63 O67 1.241 . S
C64 O57 1.247 . S
C64 O58 1.261 . S
C65 O60 1.259 . S
C65 O62 1.235 . S
O66 Co56 2.021 . S
O66 C63 1.238 . S
O67 Co61 2.052 . S
O67 C63 1.241 . S
O68 Co56 2.137 . S
O68 C59 1.247 . S
O69 Co56 2.244 . S
O69 C59 1.272 . S
O69 Co61 2.135 . S
Co70 O71 2.216 . S
Co70 O72 2.091 . S
Co70 O74 2.004 . S
Co70 O80 2.021 . S
Co70 O82 2.137 . S
Co70 O83 2.244 1_455 S
O71 Co70 2.216 . S
O71 C78 1.247 . S
O72 Co70 2.091 . S
O72 C78 1.261 . S
C73 O82 1.247 1_655 S
C73 O83 1.272 . S
O74 Co70 2.004 . S
O74 C79 1.259 . S
Co75 O76 2.061 . S
Co75 O81 2.052 . S
Co75 O83 2.135 . S
O76 Co75 2.061 . S
O76 C79 1.235 1_655 S
C77 O80 1.238 . S
C77 O81 1.241 1_455 S
C78 O71 1.247 . S
C78 O72 1.261 . S
C79 O74 1.259 . S
C79 O76 1.235 1_455 S
O80 Co70 2.021 . S
O80 C77 1.238 . S
O81 Co75 2.052 . S
O81 C77 1.241 1_655 S
O82 Co70 2.137 . S
O82 C73 1.247 1_455 S
O83 Co70 2.244 1_655 S
O83 C73 1.272 . S
O83 Co75 2.135 . S
H84 C102 0.951 . S
H85 C104 0.951 . S
H86 C106 0.950 . S
H87 C107 0.950 . S
H88 C109 0.950 1_565 S
H89 C112 0.950 . S
H90 C113 0.950 . S
H91 C115 0.950 . S
H92 C116 0.950 . S
H93 C117 0.951 . S
H94 C119 0.951 . S
H95 C121 0.950 . S
H96 C122 0.950 . S
H97 C124 0.950 . S
H98 C127 0.950 . S
H99 C128 0.950 1_545 S
H100 C130 0.950 . S
H101 C131 0.950 . S
C102 H84 0.951 . S
C102 C103 1.366 . S
C102 C104 1.388 . S
C103 C102 1.366 . S
C103 C107 1.385 1_545 S
C104 H85 0.951 . S
C104 C102 1.388 . S
C104 C105 1.366 . S
C105 C104 1.366 . S
C105 C106 1.414 1_545 S
C105 C108 1.499 . S
C106 H86 0.950 . S
C106 C105 1.414 1_565 S
C106 C107 1.374 . S
C107 H87 0.950 . S
C107 C103 1.385 1_565 S
C107 C106 1.374 . S
C108 C105 1.499 . S
C108 C109 1.373 . S
C108 C110 1.389 . S
C109 H88 0.950 1_545 S
C109 C108 1.373 . S
C109 C125 1.377 . S
C110 C108 1.389 . S
C110 C111 1.524 . S
C110 C124 1.377 . S
C111 C110 1.524 . S
C111 C112 1.397 . S
C111 C116 1.363 . S
C112 H89 0.950 . S
C112 C111 1.397 . S
C112 C113 1.334 . S
C113 H90 0.950 . S
C113 C112 1.334 . S
C113 C114 1.287 . S
C114 C113 1.287 . S
C114 C115 1.524 . S
C114 H133 0.913 . S
C115 H91 0.950 . S
C115 C114 1.524 . S
C115 C116 1.415 . S
C116 H92 0.950 . S
C116 C111 1.363 . S
C116 C115 1.415 . S
C117 H93 0.951 . S
C117 C118 1.366 1_565 S
C117 C119 1.388 . S
C118 C117 1.366 1_545 S
C118 C122 1.385 . S
C119 H94 0.951 . S
C119 C117 1.388 . S
C119 C120 1.366 1_565 S
C120 C119 1.366 1_545 S
C120 C121 1.414 . S
C120 C123 1.499 . S
C121 H95 0.950 . S
C121 C120 1.414 . S
C121 C122 1.374 . S
C122 H96 0.950 . S
C122 C118 1.385 . S
C122 C121 1.374 . S
C123 C120 1.499 . S
C123 C124 1.373 . S
C123 C125 1.389 . S
C124 H97 0.950 . S
C124 C110 1.377 . S
C124 C123 1.373 . S
C125 C109 1.377 . S
C125 C123 1.389 . S
C125 C126 1.524 1_545 S
C126 C125 1.524 1_565 S
C126 C127 1.397 1_565 S
C126 C131 1.363 . S
C127 H98 0.950 . S
C127 C126 1.397 1_545 S
C127 C128 1.334 1_545 S
C128 H99 0.950 1_565 S
C128 C127 1.334 1_565 S
C128 C129 1.287 . S
C129 C128 1.287 . S
C129 C130 1.524 . S
C129 H132 0.999 . S
C130 H100 0.950 . S
C130 C129 1.524 . S
C130 C131 1.415 . S
C131 H101 0.950 . S
C131 C126 1.363 . S
C131 C130 1.415 . S
H132 C129 0.999 . S
H133 C114 0.913 . S
H134 C152 0.951 . S
H135 C154 0.951 . S
H136 C156 0.950 . S
H137 C157 0.950 . S
H138 C159 0.950 . S
H139 C162 0.950 . S
H140 C163 0.950 . S
H141 C165 0.950 . S
H142 C166 0.950 . S
H143 C167 0.951 . S
H144 C169 0.951 . S
H145 C171 0.950 . S
H146 C172 0.950 . S
H147 C174 0.950 . S
H148 C177 0.950 . S
H149 C178 0.950 . S
H150 C180 0.950 . S
H151 C181 0.950 . S
C152 H134 0.951 . S
C152 C153 1.366 . S
C152 C154 1.388 . S
C153 C152 1.366 . S
C153 C157 1.385 . S
C154 H135 0.951 . S
C154 C152 1.388 . S
C154 C155 1.366 . S
C155 C154 1.366 . S
C155 C156 1.414 . S
C155 C158 1.499 . S
C156 H136 0.950 . S
C156 C155 1.414 . S
C156 C157 1.374 . S
C157 H137 0.950 . S
C157 C153 1.385 . S
C157 C156 1.374 . S
C158 C155 1.499 . S
C158 C159 1.373 . S
C158 C160 1.389 . S
C159 H138 0.950 . S
C159 C158 1.373 . S
C159 C175 1.377 . S
C160 C158 1.389 . S
C160 C161 1.524 . S
C160 C174 1.377 . S
C161 C160 1.524 . S
C161 C162 1.397 . S
C161 C166 1.363 . S
C162 H139 0.950 . S
C162 C161 1.397 . S
C162 C163 1.334 . S
C163 H140 0.950 . S
C163 C162 1.334 . S
C163 C164 1.287 . S
C164 C163 1.287 . S
C164 C165 1.524 . S
C164 H183 0.913 . S
C165 H141 0.950 . S
C165 C164 1.524 . S
C165 C166 1.415 . S
C166 H142 0.950 . S
C166 C161 1.363 . S
C166 C165 1.415 . S
C167 H143 0.951 . S
C167 C168 1.366 . S
C167 C169 1.388 . S
C168 C167 1.366 . S
C168 C172 1.385 . S
C169 H144 0.951 . S
C169 C167 1.388 . S
C169 C170 1.366 . S
C170 C169 1.366 . S
C170 C171 1.414 . S
C170 C173 1.499 . S
C171 H145 0.950 . S
C171 C170 1.414 . S
C171 C172 1.374 . S
C172 H146 0.950 . S
C172 C168 1.385 . S
C172 C171 1.374 . S
C173 C170 1.499 . S
C173 C174 1.373 . S
C173 C175 1.389 . S
C174 H147 0.950 . S
C174 C160 1.377 . S
C174 C173 1.373 . S
C175 C159 1.377 . S
C175 C173 1.389 . S
C175 C176 1.524 . S
C176 C175 1.524 . S
C176 C177 1.397 . S
C176 C181 1.363 . S
C177 H148 0.950 . S
C177 C176 1.397 . S
C177 C178 1.334 . S
C178 H149 0.950 . S
C178 C177 1.334 . S
C178 C179 1.287 . S
C179 C178 1.287 . S
C179 C180 1.524 . S
C179 H182 0.999 . S
C180 H150 0.950 . S
C180 C179 1.524 . S
C180 C181 1.415 . S
C181 H151 0.950 . S
C181 C176 1.363 . S
C181 C180 1.415 . S
H182 C179 0.999 . S
H183 C164 0.913 . S
H184 C202 0.951 . S
H185 C204 0.951 . S
H186 C206 0.950 . S
H187 C207 0.950 . S
H188 C209 0.950 . S
H189 C212 0.950 . S
H190 C213 0.950 . S
H191 C215 0.950 . S
H192 C216 0.950 . S
H193 C217 0.951 . S
H194 C219 0.951 . S
H195 C221 0.950 . S
H196 C222 0.950 . S
H197 C224 0.950 . S
H198 C227 0.950 . S
H199 C228 0.950 . S
H200 C230 0.950 . S
H201 C231 0.950 . S
C202 H184 0.951 . S
C202 C203 1.366 1_655 S
C202 C204 1.388 . S
C203 C202 1.366 1_455 S
C203 C207 1.385 . S
C204 H185 0.951 . S
C204 C202 1.388 . S
C204 C205 1.366 1_655 S
C205 C204 1.366 1_455 S
C205 C206 1.414 . S
C205 C208 1.499 . S
C206 H186 0.950 . S
C206 C205 1.414 . S
C206 C207 1.374 . S
C207 H187 0.950 . S
C207 C203 1.385 . S
C207 C206 1.374 . S
C208 C205 1.499 . S
C208 C209 1.373 . S
C208 C210 1.389 . S
C209 H188 0.950 . S
C209 C208 1.373 . S
C209 C225 1.377 . S
C210 C208 1.389 . S
C210 C211 1.524 . S
C210 C224 1.377 . S
C211 C210 1.524 . S
C211 C212 1.397 . S
C211 C216 1.363 1_455 S
C212 H189 0.950 . S
C212 C211 1.397 . S
C212 C213 1.334 . S
C213 H190 0.950 . S
C213 C212 1.334 . S
C213 C214 1.287 1_455 S
C214 C213 1.287 1_655 S
C214 C215 1.524 . S
C214 H233 0.913 . S
C215 H191 0.950 . S
C215 C214 1.524 . S
C215 C216 1.415 . S
C216 H192 0.950 . S
C216 C211 1.363 1_655 S
C216 C215 1.415 . S
C217 H193 0.951 . S
C217 C218 1.366 . S
C217 C219 1.388 . S
C218 C217 1.366 . S
C218 C222 1.385 1_455 S
C219 H194 0.951 . S
C219 C217 1.388 . S
C219 C220 1.366 . S
C220 C219 1.366 . S
C220 C221 1.414 1_455 S
C220 C223 1.499 . S
C221 H195 0.950 . S
C221 C220 1.414 1_655 S
C221 C222 1.374 . S
C222 H196 0.950 . S
C222 C218 1.385 1_655 S
C222 C221 1.374 . S
C223 C220 1.499 . S
C223 C224 1.373 . S
C223 C225 1.389 . S
C224 H197 0.950 . S
C224 C210 1.377 . S
C224 C223 1.373 . S
C225 C209 1.377 . S
C225 C223 1.389 . S
C225 C226 1.524 . S
C226 C225 1.524 . S
C226 C227 1.397 . S
C226 C231 1.363 . S
C227 H198 0.950 . S
C227 C226 1.397 . S
C227 C228 1.334 . S
C228 H199 0.950 . S
C228 C227 1.334 . S
C228 C229 1.287 . S
C229 C228 1.287 . S
C229 C230 1.524 . S
C229 H232 0.999 . S
C230 H200 0.950 . S
C230 C229 1.524 . S
C230 C231 1.415 . S
C231 H201 0.950 . S
C231 C226 1.363 . S
C231 C230 1.415 . S
H232 C229 0.999 . S
H233 C214 0.913 . S
H234 C252 0.951 1_565 S
H235 C254 0.951 1_565 S
H236 C256 0.950 . S
H237 C257 0.950 . S
H238 C259 0.950 . S
H239 C262 0.950 . S
H240 C263 0.950 . S
H241 C265 0.950 . S
H242 C266 0.950 . S
H243 C267 0.951 . S
H244 C269 0.951 . S
H245 C271 0.950 1_565 S
H246 C272 0.950 1_565 S
H247 C274 0.950 1_565 S
H248 C277 0.950 . S
H249 C278 0.950 . S
H250 C280 0.950 . S
H251 C281 0.950 . S
C252 H234 0.951 1_545 S
C252 C253 1.366 . S
C252 C254 1.388 . S
C253 C252 1.366 . S
C253 C257 1.385 . S
C254 H235 0.951 1_545 S
C254 C252 1.388 . S
C254 C255 1.366 . S
C255 C254 1.366 . S
C255 C256 1.414 . S
C255 C258 1.499 . S
C256 H236 0.950 . S
C256 C255 1.414 . S
C256 C257 1.374 . S
C257 H237 0.950 . S
C257 C253 1.385 . S
C257 C256 1.374 . S
C258 C255 1.499 . S
C258 C259 1.373 . S
C258 C260 1.389 . S
C259 H238 0.950 . S
C259 C258 1.373 . S
C259 C275 1.377 . S
C260 C258 1.389 . S
C260 C261 1.524 1_545 S
C260 C274 1.377 . S
C261 C260 1.524 1_565 S
C261 C262 1.397 . S
C261 C266 1.363 . S
C262 H239 0.950 . S
C262 C261 1.397 . S
C262 C263 1.334 . S
C263 H240 0.950 . S
C263 C262 1.334 . S
C263 C264 1.287 . S
C264 C263 1.287 . S
C264 C265 1.524 . S
C264 H283 0.913 . S
C265 H241 0.950 . S
C265 C264 1.524 . S
C265 C266 1.415 . S
C266 H242 0.950 . S
C266 C261 1.363 . S
C266 C265 1.415 . S
C267 H243 0.951 . S
C267 C268 1.366 . S
C267 C269 1.388 . S
C268 C267 1.366 . S
C268 C272 1.385 . S
C269 H244 0.951 . S
C269 C267 1.388 . S
C269 C270 1.366 . S
C270 C269 1.366 . S
C270 C271 1.414 . S
C270 C273 1.499 . S
C271 H245 0.950 1_545 S
C271 C270 1.414 . S
C271 C272 1.374 . S
C272 H246 0.950 1_545 S
C272 C268 1.385 . S
C272 C271 1.374 . S
C273 C270 1.499 . S
C273 C274 1.373 . S
C273 C275 1.389 . S
C274 H247 0.950 1_545 S
C274 C260 1.377 . S
C274 C273 1.373 . S
C275 C259 1.377 . S
C275 C273 1.389 . S
C275 C276 1.524 . S
C276 C275 1.524 . S
C276 C277 1.397 . S
C276 C281 1.363 . S
C277 H248 0.950 . S
C277 C276 1.397 . S
C277 C278 1.334 . S
C278 H249 0.950 . S
C278 C277 1.334 . S
C278 C279 1.287 . S
C279 C278 1.287 . S
C279 C280 1.524 . S
C279 H282 0.999 . S
C280 H250 0.950 . S
C280 C279 1.524 . S
C280 C281 1.415 . S
C281 H251 0.950 . S
C281 C276 1.363 . S
C281 C280 1.415 . S
H282 C279 0.999 . S
H283 C264 0.913 . S
H284 C302 0.951 . S
H285 C304 0.951 . S
H286 C306 0.950 . S
H287 C307 0.950 . S
H288 C309 0.950 . S
H289 C312 0.950 . S
H290 C313 0.950 . S
H291 C315 0.950 . S
H292 C316 0.950 . S
H293 C317 0.951 . S
H294 C319 0.951 . S
H295 C321 0.950 . S
H296 C322 0.950 . S
H297 C324 0.950 . S
H298 C327 0.950 . S
H299 C328 0.950 . S
H300 C330 0.950 . S
H301 C331 0.950 . S
C302 H284 0.951 . S
C302 C303 1.366 . S
C302 C304 1.388 . S
C303 C302 1.366 . S
C303 C307 1.385 . S
C304 H285 0.951 . S
C304 C302 1.388 . S
C304 C305 1.366 . S
C305 C304 1.366 . S
C305 C306 1.414 . S
C305 C308 1.499 . S
C306 H286 0.950 . S
C306 C305 1.414 . S
C306 C307 1.374 . S
C307 H287 0.950 . S
C307 C303 1.385 . S
C307 C306 1.374 . S
C308 C305 1.499 . S
C308 C309 1.373 1_554 S
C308 C310 1.389 . S
C309 H288 0.950 . S
C309 C308 1.373 1_556 S
C309 C325 1.377 . S
C310 C308 1.389 . S
C310 C311 1.524 . S
C310 C324 1.377 1_554 S
C311 C310 1.524 . S
C311 C312 1.397 . S
C311 C316 1.363 . S
C312 H289 0.950 . S
C312 C311 1.397 . S
C312 C313 1.334 . S
C313 H290 0.950 . S
C313 C312 1.334 . S
C313 C314 1.287 . S
C314 C313 1.287 . S
C314 C315 1.524 . S
C314 H333 0.913 . S
C315 H291 0.950 . S
C315 C314 1.524 . S
C315 C316 1.415 . S
C316 H292 0.950 . S
C316 C311 1.363 . S
C316 C315 1.415 . S
C317 H293 0.951 . S
C317 C318 1.366 . S
C317 C319 1.388 . S
C318 C317 1.366 . S
C318 C322 1.385 . S
C319 H294 0.951 . S
C319 C317 1.388 . S
C319 C320 1.366 . S
C320 C319 1.366 . S
C320 C321 1.414 . S
C320 C323 1.499 . S
C321 H295 0.950 . S
C321 C320 1.414 . S
C321 C322 1.374 . S
C322 H296 0.950 . S
C322 C318 1.385 . S
C322 C321 1.374 . S
C323 C320 1.499 . S
C323 C324 1.373 . S
C323 C325 1.389 . S
C324 H297 0.950 . S
C324 C310 1.377 1_556 S
C324 C323 1.373 . S
C325 C309 1.377 . S
C325 C323 1.389 . S
C325 C326 1.524 . S
C326 C325 1.524 . S
C326 C327 1.397 . S
C326 C331 1.363 . S
C327 H298 0.950 . S
C327 C326 1.397 . S
C327 C328 1.334 . S
C328 H299 0.950 . S
C328 C327 1.334 . S
C328 C329 1.287 . S
C329 C328 1.287 . S
C329 C330 1.524 . S
C329 H332 0.999 . S
C330 H300 0.950 . S
C330 C329 1.524 . S
C330 C331 1.415 . S
C331 H301 0.950 . S
C331 C326 1.363 . S
C331 C330 1.415 . S
H332 C329 0.999 . S
H333 C314 0.913 . S
H334 C352 0.947 . S
H335 C354 0.950 1_655 S
H336 C356 0.950 . S
H337 C357 0.950 1_556 S
H338 C359 0.950 . S
H339 C362 0.950 . S
H340 C363 0.950 . S
H341 C365 0.950 . S
H342 C366 0.950 . S
H343 C367 0.951 . S
H344 C369 0.951 . S
H345 C371 0.950 . S
H346 C372 0.950 . S
H347 C374 0.950 . S
H348 C377 0.950 . S
H349 C378 0.950 . S
H350 C380 0.950 . S
H351 C381 0.950 . S
C352 H334 0.947 . S
C352 C353 1.366 . S
C352 C354 1.388 . S
C353 C352 1.366 . S
C353 C357 1.385 . S
C354 H335 0.950 1_455 S
C354 C352 1.388 . S
C354 C355 1.366 . S
C355 C354 1.366 . S
C355 C356 1.414 . S
C355 C358 1.499 . S
C356 H336 0.950 . S
C356 C355 1.414 . S
C356 C357 1.374 . S
C357 H337 0.950 1_554 S
C357 C353 1.385 . S
C357 C356 1.374 . S
C358 C355 1.499 . S
C358 C359 1.373 . S
C358 C360 1.389 1_455 S
C359 H338 0.950 . S
C359 C358 1.373 . S
C359 C375 1.377 . S
C360 C358 1.389 1_655 S
C360 C361 1.524 . S
C360 C374 1.377 . S
C361 C360 1.524 . S
C361 C362 1.397 . S
C361 C366 1.363 . S
C362 H339 0.950 . S
C362 C361 1.397 . S
C362 C363 1.334 . S
C363 H340 0.950 . S
C363 C362 1.334 . S
C363 C364 1.287 . S
C364 C363 1.287 . S
C364 C365 1.524 . S
C364 H383 0.913 . S
C365 H341 0.950 . S
C365 C364 1.524 . S
C365 C366 1.415 . S
C366 H342 0.950 . S
C366 C361 1.363 . S
C366 C365 1.415 . S
C367 H343 0.951 . S
C367 C368 1.366 . S
C367 C369 1.388 . S
C368 C367 1.366 . S
C368 C372 1.385 . S
C369 H344 0.951 . S
C369 C367 1.388 . S
C369 C370 1.366 . S
C370 C369 1.366 . S
C370 C371 1.414 . S
C370 C373 1.499 . S
C371 H345 0.950 . S
C371 C370 1.414 . S
C371 C372 1.374 . S
C372 H346 0.950 . S
C372 C368 1.385 . S
C372 C371 1.374 . S
C373 C370 1.499 . S
C373 C374 1.373 1_455 S
C373 C375 1.389 . S
C374 H347 0.950 . S
C374 C360 1.377 . S
C374 C373 1.373 1_655 S
C375 C359 1.377 . S
C375 C373 1.389 . S
C375 C376 1.524 . S
C376 C375 1.524 . S
C376 C377 1.397 . S
C376 C381 1.363 . S
C377 H348 0.950 . S
C377 C376 1.397 . S
C377 C378 1.334 . S
C378 H349 0.950 . S
C378 C377 1.334 . S
C378 C379 1.287 . S
C379 C378 1.287 . S
C379 C380 1.524 . S
C379 H382 0.999 . S
C380 H350 0.950 . S
C380 C379 1.524 . S
C380 C381 1.415 . S
C381 H351 0.950 . S
C381 C376 1.363 . S
C381 C380 1.415 . S
H382 C379 0.999 . S
H383 C364 0.913 . S
H384 C402 0.951 . S
H385 C404 0.951 . S
H386 C406 0.950 . S
H387 C407 0.950 . S
H388 C409 0.950 . S
H389 C412 0.950 . S
H390 C413 0.950 . S
H391 C415 0.950 . S
H392 C416 0.950 . S
H393 C417 0.951 . S
H394 C419 0.951 . S
H395 C421 0.950 . S
H396 C422 0.950 . S
H397 C424 0.950 . S
H398 C427 0.950 . S
H399 C428 0.950 . S
H400 C430 0.950 . S
H401 C431 0.950 . S
C402 H384 0.951 . S
C402 C403 1.366 . S
C402 C404 1.388 . S
C403 C402 1.366 . S
C403 C407 1.385 . S
C404 H385 0.951 . S
C404 C402 1.388 . S
C404 C405 1.366 . S
C405 C404 1.366 . S
C405 C406 1.414 . S
C405 C408 1.499 . S
C406 H386 0.950 . S
C406 C405 1.414 . S
C406 C407 1.374 . S
C407 H387 0.950 . S
C407 C403 1.385 . S
C407 C406 1.374 . S
C408 C405 1.499 . S
C408 C409 1.373 . S
C408 C410 1.389 . S
C409 H388 0.950 . S
C409 C408 1.373 . S
C409 C425 1.377 . S
C410 C408 1.389 . S
C410 C411 1.524 . S
C410 C424 1.377 . S
C411 C410 1.524 . S
C411 C412 1.397 . S
C411 C416 1.363 . S
C412 H389 0.950 . S
C412 C411 1.397 . S
C412 C413 1.334 . S
C413 H390 0.950 . S
C413 C412 1.334 . S
C413 C414 1.287 . S
C414 C413 1.287 . S
C414 C415 1.524 . S
C414 H433 0.913 . S
C415 H391 0.950 . S
C415 C414 1.524 . S
C415 C416 1.415 . S
C416 H392 0.950 . S
C416 C411 1.363 . S
C416 C415 1.415 . S
C417 H393 0.951 . S
C417 C418 1.366 . S
C417 C419 1.388 . S
C418 C417 1.366 . S
C418 C422 1.385 . S
C419 H394 0.951 . S
C419 C417 1.388 . S
C419 C420 1.366 . S
C420 C419 1.366 . S
C420 C421 1.414 . S
C420 C423 1.499 . S
C421 H395 0.950 . S
C421 C420 1.414 . S
C421 C422 1.374 . S
C422 H396 0.950 . S
C422 C418 1.385 . S
C422 C421 1.374 . S
C423 C420 1.499 . S
C423 C424 1.373 . S
C423 C425 1.389 . S
C424 H397 0.950 . S
C424 C410 1.377 . S
C424 C423 1.373 . S
C425 C409 1.377 . S
C425 C423 1.389 . S
C425 C426 1.524 . S
C426 C425 1.524 . S
C426 C427 1.397 . S
C426 C431 1.363 . S
C427 H398 0.950 . S
C427 C426 1.397 . S
C427 C428 1.334 . S
C428 H399 0.950 . S
C428 C427 1.334 . S
C428 C429 1.287 . S
C429 C428 1.287 . S
C429 C430 1.524 1_554 S
C429 H432 0.999 1_554 S
C430 H400 0.950 . S
C430 C429 1.524 1_556 S
C430 C431 1.415 1_556 S
C431 H401 0.950 . S
C431 C426 1.363 . S
C431 C430 1.415 1_554 S
H432 C429 0.999 1_556 S
H433 C414 0.913 . S
H434 C452 0.951 . S
H435 C454 0.951 . S
H436 C456 0.950 . S
H437 C457 0.950 . S
H438 C459 0.950 . S
H439 C462 0.950 . S
H440 C463 0.950 . S
H441 C465 0.950 . S
H442 C466 0.950 . S
H443 C467 0.951 . S
H444 C469 0.951 . S
H445 C471 0.950 . S
H446 C472 0.950 . S
H447 C474 0.950 . S
H448 C477 0.950 . S
H449 C478 0.950 . S
H450 C480 0.950 . S
H451 C481 0.950 . S
C452 H434 0.951 . S
C452 C453 1.366 . S
C452 C454 1.388 . S
C453 C452 1.366 . S
C453 C457 1.385 . S
C454 H435 0.951 . S
C454 C452 1.388 . S
C454 C455 1.366 . S
C455 C454 1.366 . S
C455 C456 1.414 . S
C455 C458 1.499 . S
C456 H436 0.950 . S
C456 C455 1.414 . S
C456 C457 1.374 . S
C457 H437 0.950 . S
C457 C453 1.385 . S
C457 C456 1.374 . S
C458 C455 1.499 . S
C458 C459 1.373 . S
C458 C460 1.389 . S
C459 H438 0.950 . S
C459 C458 1.373 . S
C459 C475 1.377 . S
C460 C458 1.389 . S
C460 C461 1.524 . S
C460 C474 1.377 . S
C461 C460 1.524 . S
C461 C462 1.397 . S
C461 C466 1.363 . S
C462 H439 0.950 . S
C462 C461 1.397 . S
C462 C463 1.334 . S
C463 H440 0.950 . S
C463 C462 1.334 . S
C463 C464 1.287 . S
C464 C463 1.287 . S
C464 C465 1.524 . S
C464 H483 0.913 . S
C465 H441 0.950 . S
C465 C464 1.524 . S
C465 C466 1.415 . S
C466 H442 0.950 . S
C466 C461 1.363 . S
C466 C465 1.415 . S
C467 H443 0.951 . S
C467 C468 1.366 . S
C467 C469 1.388 . S
C468 C467 1.366 . S
C468 C472 1.385 . S
C469 H444 0.951 . S
C469 C467 1.388 . S
C469 C470 1.366 . S
C470 C469 1.366 . S
C470 C471 1.414 . S
C470 C473 1.499 . S
C471 H445 0.950 . S
C471 C470 1.414 . S
C471 C472 1.374 . S
C472 H446 0.950 . S
C472 C468 1.385 . S
C472 C471 1.374 . S
C473 C470 1.499 . S
C473 C474 1.373 . S
C473 C475 1.389 . S
C474 H447 0.950 . S
C474 C460 1.377 . S
C474 C473 1.373 . S
C475 C459 1.377 . S
C475 C473 1.389 . S
C475 C476 1.524 . S
C476 C475 1.524 . S
C476 C477 1.397 . S
C476 C481 1.363 . S
C477 H448 0.950 . S
C477 C476 1.397 . S
C477 C478 1.334 . S
C478 H449 0.950 . S
C478 C477 1.334 . S
C478 C479 1.287 . S
C479 C478 1.287 . S
C479 C480 1.524 . S
C479 H482 0.999 . S
C480 H450 0.950 . S
C480 C479 1.524 . S
C480 C481 1.415 . S
C481 H451 0.950 . S
C481 C476 1.363 . S
C481 C480 1.415 . S
H482 C479 0.999 . S
H483 C464 0.913 . S
H484 C502 0.951 . S
H485 C504 0.951 . S
H486 C506 0.950 . S
H487 C507 0.950 . S
H488 C509 0.950 . S
H489 C512 0.950 . S
H490 C513 0.950 . S
H491 C515 0.950 . S
H492 C516 0.950 . S
H493 C517 0.951 . S
H494 C519 0.951 . S
H495 C521 0.950 . S
H496 C522 0.950 . S
H497 C524 0.950 . S
H498 C527 0.950 . S
H499 C528 0.950 . S
H500 C530 0.950 . S
H501 C531 0.950 . S
C502 H484 0.951 . S
C502 C503 1.366 . S
C502 C504 1.388 . S
C503 C502 1.366 . S
C503 C507 1.385 . S
C504 H485 0.951 . S
C504 C502 1.388 . S
C504 C505 1.366 . S
C505 C504 1.366 . S
C505 C506 1.414 . S
C505 C508 1.499 . S
C506 H486 0.950 . S
C506 C505 1.414 . S
C506 C507 1.374 . S
C507 H487 0.950 . S
C507 C503 1.385 . S
C507 C506 1.374 . S
C508 C505 1.499 . S
C508 C509 1.373 . S
C508 C510 1.389 . S
C509 H488 0.950 . S
C509 C508 1.373 . S
C509 C525 1.377 . S
C510 C508 1.389 . S
C510 C511 1.524 . S
C510 C524 1.377 . S
C511 C510 1.524 . S
C511 C512 1.397 . S
C511 C516 1.363 . S
C512 H489 0.950 . S
C512 C511 1.397 . S
C512 C513 1.334 . S
C513 H490 0.950 . S
C513 C512 1.334 . S
C513 C514 1.287 . S
C514 C513 1.287 . S
C514 C515 1.524 . S
C514 H533 0.913 . S
C515 H491 0.950 . S
C515 C514 1.524 . S
C515 C516 1.415 . S
C516 H492 0.950 . S
C516 C511 1.363 . S
C516 C515 1.415 . S
C517 H493 0.951 . S
C517 C518 1.366 . S
C517 C519 1.388 . S
C518 C517 1.366 . S
C518 C522 1.385 . S
C519 H494 0.951 . S
C519 C517 1.388 . S
C519 C520 1.366 . S
C520 C519 1.366 . S
C520 C521 1.414 . S
C520 C523 1.499 . S
C521 H495 0.950 . S
C521 C520 1.414 . S
C521 C522 1.374 . S
C522 H496 0.950 . S
C522 C518 1.385 . S
C522 C521 1.374 . S
C523 C520 1.499 . S
C523 C524 1.373 . S
C523 C525 1.389 . S
C524 H497 0.950 . S
C524 C510 1.377 . S
C524 C523 1.373 . S
C525 C509 1.377 . S
C525 C523 1.389 . S
C525 C526 1.524 . S
C526 C525 1.524 . S
C526 C527 1.397 . S
C526 C531 1.363 . S
C527 H498 0.950 . S
C527 C526 1.397 . S
C527 C528 1.334 . S
C528 H499 0.950 . S
C528 C527 1.334 . S
C528 C529 1.287 . S
C529 C528 1.287 . S
C529 C530 1.524 . S
C529 H532 0.999 . S
C530 H500 0.950 . S
C530 C529 1.524 . S
C530 C531 1.415 . S
C531 H501 0.950 . S
C531 C526 1.363 . S
C531 C530 1.415 . S
H532 C529 0.999 . S
H533 C514 0.913 . S
H534 C552 0.951 . S
H535 C554 0.951 . S
H536 C556 0.950 . S
H537 C557 0.950 . S
H538 C559 0.950 . S
H539 C562 0.950 . S
H540 C563 0.950 . S
H541 C565 0.950 . S
H542 C566 0.950 . S
H543 C567 0.951 . S
H544 C569 0.951 . S
H545 C571 0.950 . S
H546 C572 0.950 . S
H547 C574 0.950 . S
H548 C577 0.950 . S
H549 C578 0.950 . S
H550 C580 0.950 . S
H551 C581 0.950 . S
C552 H534 0.951 . S
C552 C553 1.366 . S
C552 C554 1.388 . S
C553 C552 1.366 . S
C553 C557 1.385 . S
C554 H535 0.951 . S
C554 C552 1.388 . S
C554 C555 1.366 . S
C555 C554 1.366 . S
C555 C556 1.414 . S
C555 C558 1.499 . S
C556 H536 0.950 . S
C556 C555 1.414 . S
C556 C557 1.374 . S
C557 H537 0.950 . S
C557 C553 1.385 . S
C557 C556 1.374 . S
C558 C555 1.499 . S
C558 C559 1.373 . S
C558 C560 1.389 . S
C559 H538 0.950 . S
C559 C558 1.373 . S
C559 C575 1.377 . S
C560 C558 1.389 . S
C560 C561 1.524 . S
C560 C574 1.377 . S
C561 C560 1.524 . S
C561 C562 1.397 . S
C561 C566 1.363 . S
C562 H539 0.950 . S
C562 C561 1.397 . S
C562 C563 1.334 . S
C563 H540 0.950 . S
C563 C562 1.334 . S
C563 C564 1.287 . S
C564 C563 1.287 . S
C564 C565 1.524 . S
C564 H583 0.913 . S
C565 H541 0.950 . S
C565 C564 1.524 . S
C565 C566 1.415 . S
C566 H542 0.950 . S
C566 C561 1.363 . S
C566 C565 1.415 . S
C567 H543 0.951 . S
C567 C568 1.366 . S
C567 C569 1.388 . S
C568 C567 1.366 . S
C568 C572 1.385 . S
C569 H544 0.951 . S
C569 C567 1.388 . S
C569 C570 1.366 . S
C570 C569 1.366 . S
C570 C571 1.414 . S
C570 C573 1.499 . S
C571 H545 0.950 . S
C571 C570 1.414 . S
C571 C572 1.374 . S
C572 H546 0.950 . S
C572 C568 1.385 . S
C572 C571 1.374 . S
C573 C570 1.499 . S
C573 C574 1.373 . S
C573 C575 1.389 . S
C574 H547 0.950 . S
C574 C560 1.377 . S
C574 C573 1.373 . S
C575 C559 1.377 . S
C575 C573 1.389 . S
C575 C576 1.524 . S
C576 C575 1.524 . S
C576 C577 1.397 . S
C576 C581 1.363 . S
C577 H548 0.950 . S
C577 C576 1.397 . S
C577 C578 1.334 . S
C578 H549 0.950 . S
C578 C577 1.334 . S
C578 C579 1.287 . S
C579 C578 1.287 . S
C579 C580 1.524 . S
C579 H582 0.999 . S
C580 H550 0.950 . S
C580 C579 1.524 . S
C580 C581 1.415 . S
C581 H551 0.950 . S
C581 C576 1.363 . S
C581 C580 1.415 . S
H582 C579 0.999 . S
H583 C564 0.913 . S
H584 C602 0.951 . S
H585 C604 0.951 . S
H586 C606 0.950 . S
H587 C607 0.950 . S
H588 C609 0.950 . S
H589 C612 0.950 . S
H590 C613 0.950 . S
H591 C615 0.950 . S
H592 C616 0.950 . S
H593 C617 0.951 . S
H594 C619 0.951 . S
H595 C621 0.950 . S
H596 C622 0.950 . S
H597 C624 0.950 . S
H598 C627 0.950 . S
H599 C628 0.950 . S
H600 C630 0.950 . S
H601 C631 0.950 . S
C602 H584 0.951 . S
C602 C603 1.366 . S
C602 C604 1.388 . S
C603 C602 1.366 . S
C603 C607 1.385 . S
C604 H585 0.951 . S
C604 C602 1.388 . S
C604 C605 1.366 . S
C605 C604 1.366 . S
C605 C606 1.414 . S
C605 C608 1.499 . S
C606 H586 0.950 . S
C606 C605 1.414 . S
C606 C607 1.374 . S
C607 H587 0.950 . S
C607 C603 1.385 . S
C607 C606 1.374 . S
C608 C605 1.499 . S
C608 C609 1.373 . S
C608 C610 1.389 . S
C609 H588 0.950 . S
C609 C608 1.373 . S
C609 C625 1.377 . S
C610 C608 1.389 . S
C610 C611 1.524 . S
C610 C624 1.377 . S
C611 C610 1.524 . S
C611 C612 1.397 . S
C611 C616 1.363 . S
C612 H589 0.950 . S
C612 C611 1.397 . S
C612 C613 1.334 . S
C613 H590 0.950 . S
C613 C612 1.334 . S
C613 C614 1.287 . S
C614 C613 1.287 . S
C614 C615 1.524 . S
C614 H633 0.913 . S
C615 H591 0.950 . S
C615 C614 1.524 . S
C615 C616 1.415 . S
C616 H592 0.950 . S
C616 C611 1.363 . S
C616 C615 1.415 . S
C617 H593 0.951 . S
C617 C618 1.366 . S
C617 C619 1.388 . S
C618 C617 1.366 . S
C618 C622 1.385 . S
C619 H594 0.951 . S
C619 C617 1.388 . S
C619 C620 1.366 . S
C620 C619 1.366 . S
C620 C621 1.414 . S
C620 C623 1.499 . S
C621 H595 0.950 . S
C621 C620 1.414 . S
C621 C622 1.374 . S
C622 H596 0.950 . S
C622 C618 1.385 . S
C622 C621 1.374 . S
C623 C620 1.499 . S
C623 C624 1.373 . S
C623 C625 1.389 . S
C624 H597 0.950 . S
C624 C610 1.377 . S
C624 C623 1.373 . S
C625 C609 1.377 . S
C625 C623 1.389 . S
C625 C626 1.524 . S
C626 C625 1.524 . S
C626 C627 1.397 . S
C626 C631 1.363 . S
C627 H598 0.950 . S
C627 C626 1.397 . S
C627 C628 1.334 . S
C628 H599 0.950 . S
C628 C627 1.334 . S
C628 C629 1.287 . S
C629 C628 1.287 . S
C629 C630 1.524 . S
C629 H632 0.999 . S
C630 H600 0.950 . S
C630 C629 1.524 . S
C630 C631 1.415 . S
C631 H601 0.950 . S
C631 C626 1.363 . S
C631 C630 1.415 . S
H632 C629 0.999 . S
H633 C614 0.913 . S
H634 C652 0.951 . S
H635 C654 0.951 . S
H636 C656 0.950 1_554 S
H637 C657 0.950 1_554 S
H638 C659 0.950 . S
H639 C662 0.950 . S
H640 C663 0.950 . S
H641 C665 0.950 . S
H642 C666 0.950 . S
H643 C667 0.951 . S
H644 C669 0.951 . S
H645 C671 0.950 . S
H646 C672 0.950 . S
H647 C674 0.950 . S
H648 C677 0.950 . S
H649 C678 0.950 . S
H650 C680 0.950 . S
H651 C681 0.950 . S
C652 H634 0.951 . S
C652 C653 1.366 . S
C652 C654 1.388 . S
C653 C652 1.366 . S
C653 C657 1.385 . S
C654 H635 0.951 . S
C654 C652 1.388 . S
C654 C655 1.366 . S
C655 C654 1.366 . S
C655 C656 1.414 . S
C655 C658 1.499 . S
C656 H636 0.950 1_556 S
C656 C655 1.414 . S
C656 C657 1.374 . S
C657 H637 0.950 1_556 S
C657 C653 1.385 . S
C657 C656 1.374 . S
C658 C655 1.499 . S
C658 C659 1.373 1_556 S
C658 C660 1.389 . S
C659 H638 0.950 . S
C659 C658 1.373 1_554 S
C659 C675 1.377 . S
C660 C658 1.389 . S
C660 C661 1.524 . S
C660 C674 1.377 . S
C661 C660 1.524 . S
C661 C662 1.397 . S
C661 C666 1.363 . S
C662 H639 0.950 . S
C662 C661 1.397 . S
C662 C663 1.334 . S
C663 H640 0.950 . S
C663 C662 1.334 . S
C663 C664 1.287 . S
C664 C663 1.287 . S
C664 C665 1.524 . S
C664 H683 0.913 . S
C665 H641 0.950 . S
C665 C664 1.524 . S
C665 C666 1.415 . S
C666 H642 0.950 . S
C666 C661 1.363 . S
C666 C665 1.415 . S
C667 H643 0.951 . S
C667 C668 1.366 . S
C667 C669 1.388 . S
C668 C667 1.366 . S
C668 C672 1.385 1_554 S
C669 H644 0.951 . S
C669 C667 1.388 . S
C669 C670 1.366 . S
C670 C669 1.366 . S
C670 C671 1.414 1_554 S
C670 C673 1.499 1_554 S
C671 H645 0.950 . S
C671 C670 1.414 1_556 S
C671 C672 1.374 . S
C672 H646 0.950 . S
C672 C668 1.385 1_556 S
C672 C671 1.374 . S
C673 C670 1.499 1_556 S
C673 C674 1.373 . S
C673 C675 1.389 1_556 S
C674 H647 0.950 . S
C674 C660 1.377 . S
C674 C673 1.373 . S
C675 C659 1.377 . S
C675 C673 1.389 1_554 S
C675 C676 1.524 . S
C676 C675 1.524 . S
C676 C677 1.397 . S
C676 C681 1.363 . S
C677 H648 0.950 . S
C677 C676 1.397 . S
C677 C678 1.334 . S
C678 H649 0.950 . S
C678 C677 1.334 . S
C678 C679 1.287 . S
C679 C678 1.287 . S
C679 C680 1.524 . S
C679 H682 0.999 . S
C680 H650 0.950 . S
C680 C679 1.524 . S
C680 C681 1.415 . S
C681 H651 0.950 . S
C681 C676 1.363 . S
C681 C680 1.415 . S
H682 C679 0.999 . S
H683 C664 0.913 . S
C103 C7 1.707 . S
C118 C51 1.736 . S
C153 C21 1.653 . S
C168 C65 1.679 . S
C203 C77 1.682 . S
C218 C37 1.708 . S
C253 C9 1.736 . S
C268 C49 1.707 . S
C303 C23 1.679 . S
C318 C63 1.653 . S
C353 C79 1.709 1_554 S
C368 C35 1.682 . S
C403 C17 1.334 . S
C418 C8 1.329 . S
C453 C36 1.301 . S
C468 C22 1.300 . S
C503 C31 1.365 . S
C518 C45 1.365 . S
C553 C59 1.334 . S
C568 C50 1.330 . S
C603 C78 1.301 . S
C618 C64 1.300 . S
C653 C73 1.365 . S
C668 C3 1.366 . S
