# Generated by pormake.
# Topology hbo, (4)-cn, num edge types: 1
# Building blocks:
#     Node 0, Type 0, BuildingBlock: CEKHIL_clean_sbu_0, # of connection points: 4
#     Node 1, Type 0, BuildingBlock: CEKHIL_clean_sbu_0, # of connection points: 4
#     Node 2, Type 0, BuildingBlock: CEKHIL_clean_sbu_0, # of connection points: 4
#     Node 3, Type 0, BuildingBlock: CEKHIL_clean_sbu_0, # of connection points: 4
#     Node 4, Type 0, BuildingBlock: CEKHIL_clean_sbu_0, # of connection points: 4
#     Node 5, Type 0, BuildingBlock: CEKHIL_clean_sbu_0, # of connection points: 4
#     Node 6, Type 0, BuildingBlock: CEKHIL_clean_sbu_0, # of connection points: 4
#     Node 7, Type 0, BuildingBlock: CEKHIL_clean_sbu_0, # of connection points: 4
#     Node 8, Type 0, BuildingBlock: CEKHIL_clean_sbu_0, # of connection points: 4
#     Node 9, Type 0, BuildingBlock: CEKHIL_clean_sbu_0, # of connection points: 4
#     Node 10, Type 0, BuildingBlock: CEKHIL_clean_sbu_0, # of connection points: 4
#     Node 11, Type 0, BuildingBlock: CEKHIL_clean_sbu_0, # of connection points: 4
#     Node 12, Type 0, BuildingBlock: CEKHIL_clean_sbu_0, # of connection points: 4
#     Node 13, Type 0, BuildingBlock: CEKHIL_clean_sbu_0, # of connection points: 4
#     Node 14, Type 0, BuildingBlock: CEKHIL_clean_sbu_0, # of connection points: 4
#     Node 15, Type 0, BuildingBlock: CEKHIL_clean_sbu_0, # of connection points: 4
#     Node 16, Type 0, BuildingBlock: CEKHIL_clean_sbu_0, # of connection points: 4
#     Node 17, Type 0, BuildingBlock: CEKHIL_clean_sbu_0, # of connection points: 4
#     Node 18, Type 0, BuildingBlock: CEKHIL_clean_sbu_0, # of connection points: 4
#     Node 19, Type 0, BuildingBlock: CEKHIL_clean_sbu_0, # of connection points: 4
#     Node 20, Type 0, BuildingBlock: CEKHIL_clean_sbu_0, # of connection points: 4
#     Node 21, Type 0, BuildingBlock: CEKHIL_clean_sbu_0, # of connection points: 4
#     Node 22, Type 0, BuildingBlock: CEKHIL_clean_sbu_0, # of connection points: 4
#     Node 23, Type 0, BuildingBlock: CEKHIL_clean_sbu_0, # of connection points: 4
#     Edge 24, Type (0, 0), BuildingBlock: MIFKUJ_clean_linker_0, # of connection points: 2
#     Edge 25, Type (0, 0), BuildingBlock: MIFKUJ_clean_linker_0, # of connection points: 2
#     Edge 26, Type (0, 0), BuildingBlock: MIFKUJ_clean_linker_0, # of connection points: 2
#     Edge 27, Type (0, 0), BuildingBlock: MIFKUJ_clean_linker_0, # of connection points: 2
#     Edge 28, Type (0, 0), BuildingBlock: MIFKUJ_clean_linker_0, # of connection points: 2
#     Edge 29, Type (0, 0), BuildingBlock: MIFKUJ_clean_linker_0, # of connection points: 2
#     Edge 30, Type (0, 0), BuildingBlock: MIFKUJ_clean_linker_0, # of connection points: 2
#     Edge 31, Type (0, 0), BuildingBlock: MIFKUJ_clean_linker_0, # of connection points: 2
#     Edge 32, Type (0, 0), BuildingBlock: MIFKUJ_clean_linker_0, # of connection points: 2
#     Edge 33, Type (0, 0), BuildingBlock: MIFKUJ_clean_linker_0, # of connection points: 2
#     Edge 34, Type (0, 0), BuildingBlock: MIFKUJ_clean_linker_0, # of connection points: 2
#     Edge 35, Type (0, 0), BuildingBlock: MIFKUJ_clean_linker_0, # of connection points: 2
#     Edge 36, Type (0, 0), BuildingBlock: MIFKUJ_clean_linker_0, # of connection points: 2
#     Edge 37, Type (0, 0), BuildingBlock: MIFKUJ_clean_linker_0, # of connection points: 2
#     Edge 38, Type (0, 0), BuildingBlock: MIFKUJ_clean_linker_0, # of connection points: 2
#     Edge 39, Type (0, 0), BuildingBlock: MIFKUJ_clean_linker_0, # of connection points: 2
#     Edge 40, Type (0, 0), BuildingBlock: MIFKUJ_clean_linker_0, # of connection points: 2
#     Edge 41, Type (0, 0), BuildingBlock: MIFKUJ_clean_linker_0, # of connection points: 2
#     Edge 42, Type (0, 0), BuildingBlock: MIFKUJ_clean_linker_0, # of connection points: 2
#     Edge 43, Type (0, 0), BuildingBlock: MIFKUJ_clean_linker_0, # of connection points: 2
#     Edge 44, Type (0, 0), BuildingBlock: MIFKUJ_clean_linker_0, # of connection points: 2
#     Edge 45, Type (0, 0), BuildingBlock: MIFKUJ_clean_linker_0, # of connection points: 2
#     Edge 46, Type (0, 0), BuildingBlock: MIFKUJ_clean_linker_0, # of connection points: 2
#     Edge 47, Type (0, 0), BuildingBlock: MIFKUJ_clean_linker_0, # of connection points: 2
#     Edge 48, Type (0, 0), BuildingBlock: MIFKUJ_clean_linker_0, # of connection points: 2
#     Edge 49, Type (0, 0), BuildingBlock: MIFKUJ_clean_linker_0, # of connection points: 2
#     Edge 50, Type (0, 0), BuildingBlock: MIFKUJ_clean_linker_0, # of connection points: 2
#     Edge 51, Type (0, 0), BuildingBlock: MIFKUJ_clean_linker_0, # of connection points: 2
#     Edge 52, Type (0, 0), BuildingBlock: MIFKUJ_clean_linker_0, # of connection points: 2
#     Edge 53, Type (0, 0), BuildingBlock: MIFKUJ_clean_linker_0, # of connection points: 2
#     Edge 54, Type (0, 0), BuildingBlock: MIFKUJ_clean_linker_0, # of connection points: 2
#     Edge 55, Type (0, 0), BuildingBlock: MIFKUJ_clean_linker_0, # of connection points: 2
#     Edge 56, Type (0, 0), BuildingBlock: MIFKUJ_clean_linker_0, # of connection points: 2
#     Edge 57, Type (0, 0), BuildingBlock: MIFKUJ_clean_linker_0, # of connection points: 2
#     Edge 58, Type (0, 0), BuildingBlock: MIFKUJ_clean_linker_0, # of connection points: 2
#     Edge 59, Type (0, 0), BuildingBlock: MIFKUJ_clean_linker_0, # of connection points: 2
#     Edge 60, Type (0, 0), BuildingBlock: MIFKUJ_clean_linker_0, # of connection points: 2
#     Edge 61, Type (0, 0), BuildingBlock: MIFKUJ_clean_linker_0, # of connection points: 2
#     Edge 62, Type (0, 0), BuildingBlock: MIFKUJ_clean_linker_0, # of connection points: 2
#     Edge 63, Type (0, 0), BuildingBlock: MIFKUJ_clean_linker_0, # of connection points: 2
#     Edge 64, Type (0, 0), BuildingBlock: MIFKUJ_clean_linker_0, # of connection points: 2
#     Edge 65, Type (0, 0), BuildingBlock: MIFKUJ_clean_linker_0, # of connection points: 2
#     Edge 66, Type (0, 0), BuildingBlock: MIFKUJ_clean_linker_0, # of connection points: 2
#     Edge 67, Type (0, 0), BuildingBlock: MIFKUJ_clean_linker_0, # of connection points: 2
#     Edge 68, Type (0, 0), BuildingBlock: MIFKUJ_clean_linker_0, # of connection points: 2
#     Edge 69, Type (0, 0), BuildingBlock: MIFKUJ_clean_linker_0, # of connection points: 2
#     Edge 70, Type (0, 0), BuildingBlock: MIFKUJ_clean_linker_0, # of connection points: 2
#     Edge 71, Type (0, 0), BuildingBlock: MIFKUJ_clean_linker_0, # of connection points: 2
# Relax obj value: 0.228
# Max RMSD: 0.245
# Mean RMSD: 0.239
data_MOF--net-hbo--node1-CEKHIL_clean_sbu_0--edge1-MIFKUJ_clean_linker_0
_symmetry_space_group_name_H-M    P1
_symmetry_Int_Tables_number       1
_symmetry_cell_setting            triclinic
loop_
_symmetry_equiv_pos_as_xyz
'x, y, z'
_cell_length_a     68.039557
_cell_length_b     67.062169
_cell_length_c     66.856867
_cell_angle_alpha  89.874996
_cell_angle_beta   89.866793
_cell_angle_gamma 88.806741
loop_
_atom_site_label
_atom_site_type_symbol
_atom_site_fract_x
_atom_site_fract_y
_atom_site_fract_z
_atom_type_partial_charge
Co0 Co 0.13534 0.36123 0.24694 0.0
O1 O 0.10802 0.36408 0.25355 0.0
O2 O 0.1204 0.36668 0.22295 0.0
C3 C 0.1418 0.33376 0.26492 0.0
O4 O 0.16232 0.35816 0.23422 0.0
Co5 Co 0.16728 0.36528 0.27952 0.0
O6 O 0.18513 0.35463 0.25833 0.0
C7 C 0.14442 0.40049 0.2667 0.0
C8 C 0.10508 0.36734 0.23462 0.0
C9 C 0.17994 0.35399 0.24003 0.0
O10 O 0.13852 0.39058 0.2515 0.0
O11 O 0.15463 0.3926 0.2808 0.0
O12 O 0.13389 0.3323 0.24731 0.0
O13 O 0.14352 0.3516 0.27187 0.0
Co14 Co 0.12768 0.63976 0.72871 0.0
O15 O 0.10069 0.64073 0.72058 0.0
O16 O 0.11138 0.63115 0.75052 0.0
C17 C 0.13605 0.66972 0.71715 0.0
O18 O 0.1541 0.63785 0.74279 0.0
Co19 Co 0.16082 0.63897 0.6969 0.0
O20 O 0.17852 0.64105 0.72028 0.0
C21 C 0.13852 0.60282 0.70396 0.0
C22 C 0.09667 0.63442 0.73848 0.0
C23 C 0.17238 0.63933 0.7382 0.0
O24 O 0.13018 0.61156 0.71889 0.0
O25 O 0.15045 0.61155 0.69219 0.0
O26 O 0.12692 0.66809 0.73414 0.0
O27 O 0.13766 0.65356 0.70661 0.0
Co28 Co 0.86098 0.63298 0.24135 0.0
O29 O 0.88757 0.62553 0.2476 0.0
O30 O 0.87578 0.62905 0.21687 0.0
C31 C 0.85838 0.65848 0.2628 0.0
O32 O 0.83452 0.64165 0.22943 0.0
Co33 Co 0.82858 0.6296 0.27416 0.0
O34 O 0.81235 0.64446 0.25445 0.0
C35 C 0.84561 0.59338 0.25579 0.0
C36 C 0.89073 0.6252 0.22846 0.0
C37 C 0.81742 0.64681 0.23625 0.0
O38 O 0.85372 0.60401 0.24215 0.0
O39 O 0.83633 0.60088 0.27075 0.0
O40 O 0.86675 0.66093 0.24551 0.0
O41 O 0.85391 0.6404 0.2673 0.0
Co42 Co 0.87243 0.3428 0.72197 0.0
O43 O 0.90008 0.34747 0.71998 0.0
O44 O 0.8825 0.34931 0.74799 0.0
C45 C 0.87152 0.31452 0.70425 0.0
O46 O 0.84396 0.33826 0.72988 0.0
Co47 Co 0.84645 0.34505 0.684 0.0
O48 O 0.8263 0.3336 0.70194 0.0
C49 C 0.86107 0.38193 0.7012 0.0
C50 C 0.89943 0.35078 0.73911 0.0
C51 C 0.82803 0.33343 0.72092 0.0
O52 O 0.86691 0.37177 0.71643 0.0
O53 O 0.85373 0.37392 0.68562 0.0
O54 O 0.87721 0.31425 0.72279 0.0
O55 O 0.86924 0.33208 0.69633 0.0
Co56 Co 0.2391 0.13307 0.36992 0.0
O57 O 0.23472 0.13023 0.39811 0.0
O58 O 0.26316 0.12412 0.38276 0.0
C59 C 0.22429 0.16297 0.36603 0.0
O60 O 0.24939 0.13534 0.34141 0.0
Co61 Co 0.20387 0.13486 0.34043 0.0
O62 O 0.22417 0.14245 0.32065 0.0
C63 C 0.21474 0.09694 0.3599 0.0
C64 C 0.25308 0.12465 0.39931 0.0
C65 C 0.24251 0.14041 0.32417 0.0
O66 O 0.23084 0.10466 0.36594 0.0
O67 O 0.20124 0.107 0.35087 0.0
O68 O 0.24223 0.16174 0.37265 0.0
O69 O 0.21534 0.14627 0.36426 0.0
Co70 Co 0.35468 0.7411 0.86277 0.0
O71 O 0.38102 0.74922 0.86788 0.0
O72 O 0.37114 0.71789 0.8676 0.0
C73 C 0.34946 0.76085 0.83611 0.0
O74 O 0.32927 0.72685 0.8573 0.0
Co75 Co 0.31947 0.77091 0.86621 0.0
O76 O 0.30392 0.74876 0.85526 0.0
C77 C 0.34003 0.75702 0.90237 0.0
C78 C 0.38534 0.73036 0.86989 0.0
C79 C 0.3111 0.73111 0.85382 0.0
O80 O 0.3486 0.74325 0.89204 0.0
O81 O 0.32918 0.77077 0.89456 0.0
O82 O 0.35878 0.74385 0.83407 0.0
O83 O 0.34516 0.76602 0.85423 0.0
Co84 Co 0.75607 0.85749 0.3615 0.0
O85 O 0.76379 0.86465 0.38798 0.0
O86 O 0.73295 0.86392 0.37715 0.0
C87 C 0.77516 0.83011 0.35838 0.0
O88 O 0.74257 0.8503 0.3356 0.0
Co89 Co 0.78643 0.85814 0.32674 0.0
O90 O 0.76497 0.84605 0.31109 0.0
C91 C 0.7716 0.89574 0.34389 0.0
C92 C 0.74516 0.86728 0.39164 0.0
C93 C 0.7474 0.84532 0.31766 0.0
O94 O 0.75824 0.88602 0.35307 0.0
O95 O 0.78552 0.88725 0.33395 0.0
O96 O 0.75853 0.82929 0.36793 0.0
O97 O 0.78065 0.84773 0.35319 0.0
Co98 Co 0.63117 0.24952 0.85328 0.0
O99 O 0.60509 0.24809 0.86376 0.0
O100 O 0.62144 0.27609 0.85952 0.0
C101 C 0.62651 0.22909 0.8274 0.0
O102 O 0.65797 0.25666 0.84215 0.0
Co103 Co 0.6582 0.21165 0.85108 0.0
O104 O 0.67274 0.22824 0.83158 0.0
C105 C 0.64999 0.23095 0.88994 0.0
C106 C 0.60539 0.26738 0.86505 0.0
C107 C 0.6713 0.2472 0.83207 0.0
O108 O 0.642 0.24599 0.88092 0.0
O109 O 0.65607 0.21519 0.88085 0.0
O110 O 0.62134 0.24781 0.82601 0.0
O111 O 0.63262 0.22312 0.8447 0.0
Co112 Co 0.25921 0.87543 0.64562 0.0
O113 O 0.26467 0.90083 0.63392 0.0
O114 O 0.23504 0.89081 0.64291 0.0
C115 C 0.28325 0.87479 0.66859 0.0
O116 O 0.24822 0.85056 0.65858 0.0
Co117 Co 0.28999 0.84063 0.64203 0.0
O118 O 0.27254 0.8275 0.66159 0.0
C119 C 0.26514 0.85109 0.6075 0.0
C120 C 0.24594 0.9047 0.63543 0.0
C121 C 0.255 0.83365 0.66499 0.0
O122 O 0.25543 0.86366 0.61834 0.0
O123 O 0.28043 0.84151 0.61368 0.0
O124 O 0.26706 0.88487 0.67183 0.0
O125 O 0.28538 0.86786 0.65066 0.0
Co126 Co 0.6206 0.76672 0.13843 0.0
O127 O 0.59316 0.7681 0.13194 0.0
O128 O 0.61122 0.74021 0.13362 0.0
C129 C 0.61977 0.78719 0.16485 0.0
O130 O 0.64894 0.75934 0.14552 0.0
Co131 Co 0.64633 0.80412 0.13453 0.0
O132 O 0.66705 0.78698 0.1471 0.0
C133 C 0.63105 0.78514 0.09862 0.0
C134 C 0.59423 0.7488 0.1303 0.0
C135 C 0.66506 0.76827 0.14946 0.0
O136 O 0.6271 0.76981 0.10934 0.0
O137 O 0.63722 0.8014 0.1061 0.0
O138 O 0.6146 0.76873 0.16677 0.0
O139 O 0.6229 0.79316 0.14672 0.0
Co140 Co 0.73045 0.12167 0.64191 0.0
O141 O 0.72455 0.09647 0.63007 0.0
O142 O 0.75443 0.10639 0.63815 0.0
C143 C 0.7069 0.12156 0.66547 0.0
O144 O 0.7423 0.14607 0.65466 0.0
Co145 Co 0.70012 0.15717 0.64157 0.0
O146 O 0.71956 0.17057 0.65862 0.0
C147 C 0.72412 0.14834 0.60562 0.0
C148 C 0.74331 0.09258 0.631 0.0
C149 C 0.73695 0.16351 0.66081 0.0
O150 O 0.73328 0.1341 0.61479 0.0
O151 O 0.70984 0.15846 0.61328 0.0
O152 O 0.72332 0.1117 0.66823 0.0
O153 O 0.70447 0.12927 0.64791 0.0
Co154 Co 0.37094 0.23209 0.13841 0.0
O155 O 0.39881 0.22668 0.13789 0.0
O156 O 0.38464 0.25663 0.1348 0.0
C157 C 0.36298 0.2135 0.16504 0.0
O158 O 0.34326 0.24389 0.1391 0.0
Co159 Co 0.341 0.19897 0.13018 0.0
O160 O 0.32104 0.21958 0.13798 0.0
C161 C 0.36504 0.21384 0.09725 0.0
C162 C 0.40066 0.24577 0.13516 0.0
C163 C 0.32549 0.23782 0.14005 0.0
O164 O 0.37012 0.2283 0.10858 0.0
O165 O 0.35468 0.19938 0.1035 0.0
O166 O 0.3705 0.231 0.16747 0.0
O167 O 0.36295 0.20685 0.14687 0.0
Co168 Co 0.85342 0.61397 0.77158 0.0
O169 O 0.85809 0.58594 0.77613 0.0
O170 O 0.85819 0.60089 0.74647 0.0
C171 C 0.8268 0.61836 0.79086 0.0
O172 O 0.84831 0.64184 0.76064 0.0
Co173 Co 0.857 0.64506 0.80569 0.0
O174 O 0.84581 0.66404 0.78575 0.0
C175 C 0.89276 0.62717 0.78818 0.0
C176 C 0.85999 0.58455 0.75682 0.0
C177 C 0.8445 0.65946 0.76732 0.0
O178 O 0.88225 0.61894 0.77469 0.0
O179 O 0.88543 0.6371 0.80282 0.0
O180 O 0.82527 0.6105 0.77319 0.0
O181 O 0.84454 0.62063 0.7973 0.0
Co182 Co 0.88027 0.34311 0.25037 0.0
O183 O 0.90761 0.34682 0.25521 0.0
O184 O 0.89313 0.35054 0.22569 0.0
C185 C 0.87716 0.31436 0.26712 0.0
O186 O 0.85238 0.33985 0.23996 0.0
Co187 Co 0.85144 0.3445 0.28656 0.0
O188 O 0.83184 0.3368 0.26626 0.0
C189 C 0.8677 0.38168 0.27142 0.0
C190 C 0.90904 0.35142 0.2364 0.0
C191 C 0.83523 0.33684 0.2475 0.0
O192 O 0.875 0.37202 0.2565 0.0
O193 O 0.85897 0.37325 0.28604 0.0
O194 O 0.88421 0.31431 0.24903 0.0
O195 O 0.87474 0.33174 0.27519 0.0
Co196 Co 0.13577 0.37252 0.772 0.0
O197 O 0.13015 0.40031 0.7769 0.0
O198 O 0.12963 0.38571 0.74717 0.0
C199 C 0.16299 0.36985 0.79061 0.0
O200 O 0.14183 0.34502 0.76061 0.0
Co201 Co 0.13532 0.34062 0.80562 0.0
O202 O 0.14922 0.32367 0.78551 0.0
C203 C 0.09799 0.35766 0.79058 0.0
C204 C 0.12777 0.40192 0.75767 0.0
C205 C 0.14868 0.32816 0.76698 0.0
O206 O 0.10738 0.36617 0.7763 0.0
O207 O 0.10656 0.34796 0.80471 0.0
O208 O 0.16377 0.37743 0.77273 0.0
O209 O 0.14561 0.36617 0.79737 0.0
Co210 Co 0.1346 0.63295 0.2165 0.0
O211 O 0.12903 0.6055 0.21154 0.0
O212 O 0.12843 0.61982 0.24141 0.0
C213 C 0.16194 0.63484 0.19795 0.0
O214 O 0.14053 0.66059 0.22735 0.0
Co215 Co 0.13213 0.66337 0.18156 0.0
O216 O 0.14328 0.68189 0.20144 0.0
C217 C 0.096 0.64678 0.19762 0.0
C218 C 0.12625 0.60386 0.23069 0.0
C219 C 0.14465 0.67781 0.22002 0.0
O220 O 0.10604 0.64001 0.21249 0.0
O221 O 0.10389 0.65519 0.18249 0.0
O222 O 0.16262 0.62709 0.21577 0.0
O223 O 0.1445 0.63871 0.19104 0.0
Co224 Co 0.76156 0.84504 0.63013 0.0
O225 O 0.77012 0.8475 0.60299 0.0
O226 O 0.73914 0.85077 0.61327 0.0
C227 C 0.77844 0.81724 0.63825 0.0
O228 O 0.74733 0.84276 0.65674 0.0
Co229 Co 0.79182 0.8496 0.66442 0.0
O230 O 0.76966 0.84096 0.68153 0.0
C231 C 0.77934 0.88472 0.64142 0.0
C232 C 0.7518 0.85124 0.59868 0.0
C233 C 0.75204 0.8401 0.6752 0.0
O234 O 0.76558 0.87435 0.63385 0.0
O235 O 0.79264 0.87725 0.65286 0.0
O236 O 0.76204 0.81613 0.62839 0.0
O237 O 0.78528 0.83498 0.64033 0.0
Co238 Co 0.62697 0.24977 0.14158 0.0
O239 O 0.6005 0.24336 0.13543 0.0
O240 O 0.61252 0.2738 0.13366 0.0
C241 C 0.62899 0.23223 0.17013 0.0
O242 O 0.65377 0.26147 0.14745 0.0
Co243 Co 0.65789 0.21465 0.14227 0.0
O244 O 0.67576 0.23597 0.15076 0.0
C245 C 0.64246 0.22939 0.10401 0.0
C246 C 0.59765 0.26209 0.13136 0.0
C247 C 0.67121 0.25452 0.15104 0.0
O248 O 0.63461 0.24451 0.113 0.0
O249 O 0.65068 0.21473 0.11325 0.0
O250 O 0.62105 0.25004 0.17019 0.0
O251 O 0.63328 0.22507 0.15275 0.0
Co252 Co 0.24207 0.15161 0.6268 0.0
O253 O 0.23773 0.14931 0.59864 0.0
O254 O 0.26623 0.14307 0.6137 0.0
C255 C 0.22691 0.18115 0.63166 0.0
O256 O 0.25195 0.15324 0.65548 0.0
Co257 Co 0.20621 0.15132 0.65556 0.0
O258 O 0.22587 0.16146 0.67476 0.0
C259 C 0.21904 0.1141 0.6364 0.0
C260 C 0.25598 0.14345 0.59727 0.0
C261 C 0.24437 0.15937 0.67211 0.0
O262 O 0.23449 0.12299 0.63023 0.0
O263 O 0.20499 0.12313 0.64564 0.0
O264 O 0.24482 0.18041 0.62482 0.0
O265 O 0.21809 0.16429 0.63265 0.0
Co266 Co 0.37534 0.75294 0.15375 0.0
O267 O 0.40308 0.75632 0.1513 0.0
O268 O 0.38805 0.7273 0.14937 0.0
C269 C 0.3712 0.7727 0.18051 0.0
O270 O 0.3473 0.74353 0.15653 0.0
Co271 Co 0.34605 0.78889 0.14901 0.0
O272 O 0.32608 0.76966 0.15799 0.0
C273 C 0.36513 0.77121 0.11342 0.0
C274 C 0.40434 0.73711 0.14905 0.0
C275 C 0.32988 0.75099 0.15892 0.0
O276 O 0.37204 0.75675 0.12412 0.0
O277 O 0.35588 0.78631 0.12082 0.0
O278 O 0.37736 0.75435 0.18281 0.0
O279 O 0.3695 0.77884 0.16229 0.0
Co280 Co 0.73643 0.13474 0.36241 0.0
O281 O 0.73004 0.10969 0.37451 0.0
O282 O 0.75966 0.11804 0.36379 0.0
C283 C 0.71112 0.1365 0.34102 0.0
O284 O 0.74866 0.15828 0.34835 0.0
Co285 Co 0.70899 0.17231 0.36536 0.0
O286 O 0.72688 0.18376 0.34521 0.0
C287 C 0.73437 0.16081 0.39947 0.0
C288 C 0.74836 0.10463 0.37147 0.0
C289 C 0.74356 0.17558 0.34158 0.0
O290 O 0.74218 0.14646 0.38931 0.0
O291 O 0.72029 0.17201 0.39301 0.0
O292 O 0.72658 0.12556 0.33691 0.0
O293 O 0.71055 0.1442 0.35872 0.0
Co294 Co 0.3709 0.26591 0.86244 0.0
O295 O 0.37854 0.27149 0.88937 0.0
O296 O 0.38003 0.24154 0.87535 0.0
C297 C 0.34228 0.28301 0.86314 0.0
O298 O 0.36332 0.25461 0.8352 0.0
Co299 Co 0.36655 0.30069 0.83178 0.0
O300 O 0.35165 0.28045 0.81686 0.0
C301 C 0.40568 0.28809 0.84608 0.0
C302 C 0.38271 0.2526 0.89105 0.0
C303 C 0.35383 0.26179 0.82005 0.0
O304 O 0.39826 0.27209 0.85327 0.0
O305 O 0.39527 0.30214 0.83821 0.0
O306 O 0.34338 0.26504 0.87044 0.0
O307 O 0.35876 0.29059 0.85773 0.0
Co308 Co 0.24464 0.86082 0.36341 0.0
O309 O 0.24825 0.88606 0.37607 0.0
O310 O 0.21969 0.87508 0.36519 0.0
C311 C 0.2701 0.86278 0.34216 0.0
O312 O 0.23568 0.83586 0.34887 0.0
Co313 Co 0.27702 0.8275 0.36711 0.0
O314 O 0.26147 0.81447 0.34606 0.0
C315 C 0.25115 0.83675 0.4014 0.0
C316 C 0.22956 0.88928 0.37345 0.0
C317 C 0.24384 0.81975 0.34195 0.0
O318 O 0.24032 0.84807 0.39025 0.0
O319 O 0.26724 0.82851 0.39539 0.0
O320 O 0.25346 0.87168 0.338 0.0
O321 O 0.27137 0.85493 0.35978 0.0
Co322 Co 0.6238 0.73585 0.86073 0.0
O323 O 0.61975 0.72862 0.88808 0.0
O324 O 0.61501 0.75905 0.87562 0.0
C325 C 0.65304 0.72067 0.85667 0.0
O326 O 0.62743 0.74867 0.83348 0.0
Co327 Co 0.62507 0.7024 0.82864 0.0
O328 O 0.63305 0.72444 0.81072 0.0
C329 C 0.5882 0.71262 0.84887 0.0
C330 C 0.61473 0.74716 0.89102 0.0
C331 C 0.63206 0.74277 0.81574 0.0
O332 O 0.59595 0.72887 0.85476 0.0
O333 O 0.59796 0.6988 0.83987 0.0
O334 O 0.65186 0.73807 0.86515 0.0
O335 O 0.6365 0.71213 0.85328 0.0
H336 H 0.12502 0.59392 0.27049 0.0
H337 H 0.12119 0.56045 0.28472 0.0
H338 H 0.11352 0.53668 0.22539 0.0
H339 H 0.11709 0.56986 0.21119 0.0
H340 H 0.08957 0.51859 0.25271 0.0
H341 H 0.15898 0.53788 0.24717 0.0
H342 H 0.18684 0.55925 0.25565 0.0
H343 H 0.17829 0.54683 0.31808 0.0
H344 H 0.15022 0.52556 0.30994 0.0
H345 H 0.12927 0.42415 0.23705 0.0
H346 H 0.1201 0.45932 0.2389 0.0
H347 H 0.13709 0.4605 0.30104 0.0
H348 H 0.14694 0.42525 0.29914 0.0
H349 H 0.15105 0.49118 0.28276 0.0
H350 H 0.08784 0.46398 0.28697 0.0
H351 H 0.06065 0.44183 0.27847 0.0
H352 H 0.05647 0.46844 0.22014 0.0
H353 H 0.08385 0.49054 0.22813 0.0
C354 C 0.12217 0.58159 0.26055 0.0
C355 C 0.12164 0.58442 0.23972 0.0
C356 C 0.11999 0.56251 0.26869 0.0
C357 C 0.11727 0.54609 0.25607 0.0
C358 C 0.11556 0.54916 0.2354 0.0
C359 C 0.11778 0.56812 0.22729 0.0
C360 C 0.11835 0.52538 0.26374 0.0
C361 C 0.10292 0.51253 0.2594 0.0
C362 C 0.1355 0.51769 0.27316 0.0
C363 C 0.1524 0.53037 0.27798 0.0
C364 C 0.16298 0.53982 0.26271 0.0
C365 C 0.17881 0.5519 0.26745 0.0
C366 C 0.18429 0.55445 0.2874 0.0
C367 C 0.17399 0.54488 0.30264 0.0
C368 C 0.15813 0.53282 0.29798 0.0
C369 C 0.13101 0.43182 0.25116 0.0
C370 C 0.1389 0.42189 0.26793 0.0
C371 C 0.12555 0.45192 0.25225 0.0
C372 C 0.12747 0.46246 0.27024 0.0
C373 C 0.13533 0.45261 0.28705 0.0
C374 C 0.14102 0.4325 0.28591 0.0
C375 C 0.12263 0.4841 0.27082 0.0
C376 C 0.13735 0.49716 0.27674 0.0
C377 C 0.10474 0.49195 0.26299 0.0
C378 C 0.08799 0.47892 0.25816 0.0
C379 C 0.0812 0.46506 0.27229 0.0
C380 C 0.06574 0.45251 0.26756 0.0
C381 C 0.05684 0.45371 0.24877 0.0
C382 C 0.06336 0.46753 0.23469 0.0
C383 C 0.07883 0.48011 0.23934 0.0
H384 H 0.0449 0.44395 0.24512 0.0
H385 H 0.19655 0.5638 0.29104 0.0
H386 H 0.92024 0.6499 0.8067 0.0
H387 H 0.95574 0.64932 0.80082 0.0
H388 H 0.94956 0.60086 0.75915 0.0
H389 H 0.91409 0.60128 0.76487 0.0
H390 H 0.98232 0.59622 0.78426 0.0
H391 H 0.95174 0.64519 0.7408 0.0
H392 H 0.93101 0.67474 0.73283 0.0
H393 H 0.96738 0.71108 0.76968 0.0
H394 H 0.98817 0.68166 0.7781 0.0
H395 H 0.0638 0.63858 0.71573 0.0
H396 H 0.02972 0.63541 0.7264 0.0
H397 H 0.04901 0.62124 0.78631 0.0
H398 H 0.08331 0.62411 0.77564 0.0
H399 H 0.0098 0.65698 0.75335 0.0
H400 H 0.01487 0.5896 0.80711 0.0
H401 H 0.03508 0.55903 0.81213 0.0
H402 H 0.049 0.5576 0.74946 0.0
H403 H 0.02866 0.58799 0.74403 0.0
C404 C 0.92645 0.63894 0.79649 0.0
C405 C 0.91434 0.62575 0.7861 0.0
C406 C 0.9467 0.63866 0.79314 0.0
C407 C 0.95514 0.62514 0.77948 0.0
C408 C 0.94325 0.61138 0.76978 0.0
C409 C 0.92299 0.61175 0.77296 0.0
C410 C 0.97614 0.62622 0.77418 0.0
C411 C 0.98842 0.60952 0.77762 0.0
C412 C 0.98388 0.64349 0.76525 0.0
C413 C 0.97136 0.66118 0.76027 0.0
C414 C 0.9552 0.65944 0.74736 0.0
C415 C 0.94346 0.67617 0.74273 0.0
C416 C 0.94783 0.69476 0.7508 0.0
C417 C 0.96398 0.69666 0.76348 0.0
C418 C 0.97575 0.67997 0.76818 0.0
C419 C 0.06082 0.63467 0.73116 0.0
C420 C 0.07619 0.63162 0.74488 0.0
C421 C 0.04135 0.63293 0.73723 0.0
C422 C 0.03688 0.62807 0.75711 0.0
C423 C 0.05219 0.62481 0.77084 0.0
C424 C 0.07174 0.6265 0.76475 0.0
C425 C 0.01612 0.62697 0.76342 0.0
C426 C 0.00383 0.64373 0.76021 0.0
C427 C 0.00834 0.60961 0.7722 0.0
C428 C 0.02043 0.5912 0.77522 0.0
C429 C 0.0222 0.58272 0.7944 0.0
C430 C 0.03368 0.56543 0.79731 0.0
C431 C 0.04337 0.55642 0.78114 0.0
C432 C 0.04155 0.56464 0.76199 0.0
C433 C 0.03007 0.58191 0.75899 0.0
H434 H 0.05227 0.54304 0.78343 0.0
H435 H 0.93874 0.7077 0.74718 0.0
H436 H 0.8913 0.40464 0.2481 0.0
H437 H 0.89094 0.44097 0.24546 0.0
H438 H 0.84544 0.44466 0.29048 0.0
H439 H 0.84605 0.40841 0.29359 0.0
H440 H 0.86215 0.46456 0.23328 0.0
H441 H 0.84737 0.48743 0.31594 0.0
H442 H 0.85623 0.47603 0.34989 0.0
H443 H 0.90864 0.44751 0.32692 0.0
H444 H 0.90024 0.45897 0.29287 0.0
H445 H 0.82525 0.56586 0.27704 0.0
H446 H 0.83135 0.52998 0.27845 0.0
H447 H 0.87762 0.53525 0.23464 0.0
H448 H 0.87143 0.57129 0.23288 0.0
H449 H 0.86451 0.51135 0.29053 0.0
H450 H 0.88121 0.49071 0.20874 0.0
H451 H 0.87281 0.502 0.1746 0.0
H452 H 0.81755 0.52584 0.19583 0.0
H453 H 0.82552 0.51448 0.23003 0.0
C454 C 0.88136 0.4132 0.25761 0.0
C455 C 0.86865 0.40365 0.27102 0.0
C456 C 0.88118 0.43395 0.25605 0.0
C457 C 0.86827 0.44551 0.26785 0.0
C458 C 0.85581 0.43604 0.2815 0.0
C459 C 0.85612 0.41531 0.28321 0.0
C460 C 0.86689 0.46739 0.26503 0.0
C461 C 0.86304 0.47484 0.24575 0.0
C462 C 0.86776 0.48073 0.28133 0.0
C463 C 0.87307 0.47394 0.30181 0.0
C464 C 0.86083 0.47881 0.31814 0.0
C465 C 0.86577 0.47232 0.3374 0.0
C466 C 0.88296 0.46101 0.34055 0.0
C467 C 0.89529 0.45621 0.32445 0.0
C468 C 0.89043 0.46268 0.30516 0.0
C469 C 0.8366 0.55941 0.26752 0.0
C470 C 0.84791 0.57145 0.2549 0.0
C471 C 0.84009 0.5389 0.2684 0.0
C472 C 0.85495 0.52999 0.2567 0.0
C473 C 0.86595 0.54183 0.24365 0.0
C474 C 0.86238 0.56241 0.24267 0.0
C475 C 0.85932 0.50841 0.25891 0.0
C476 C 0.86381 0.50106 0.27806 0.0
C477 C 0.85914 0.49518 0.24249 0.0
C478 C 0.85408 0.50196 0.22197 0.0
C479 C 0.86725 0.49833 0.2061 0.0
C480 C 0.86257 0.50474 0.18675 0.0
C481 C 0.84469 0.5147 0.18306 0.0
C482 C 0.83143 0.51821 0.19872 0.0
C483 C 0.83604 0.51181 0.2181 0.0
H484 H 0.8411 0.51965 0.16807 0.0
H485 H 0.88675 0.45599 0.35548 0.0
H486 H 0.07222 0.34181 0.81767 0.0
H487 H 0.0363 0.34352 0.81664 0.0
H488 H 0.03874 0.37811 0.76224 0.0
H489 H 0.07449 0.3768 0.76326 0.0
H490 H 0.01088 0.3927 0.78716 0.0
H491 H 0.03163 0.328 0.76123 0.0
H492 H 0.04834 0.29505 0.76294 0.0
H493 H 0.01324 0.27953 0.81389 0.0
H494 H 0.99649 0.31252 0.81262 0.0
H495 H 0.932 0.36834 0.72457 0.0
H496 H 0.9631 0.37324 0.74194 0.0
H497 H 0.93871 0.34802 0.79572 0.0
H498 H 0.90723 0.34357 0.7785 0.0
H499 H 0.97494 0.32947 0.78033 0.0
H500 H 0.94888 0.3924 0.79989 0.0
H501 H 0.93211 0.42512 0.79627 0.0
H502 H 0.97698 0.44402 0.75558 0.0
H503 H 0.99379 0.41125 0.75856 0.0
C504 C 0.06513 0.34987 0.80553 0.0
C505 C 0.07627 0.35903 0.79045 0.0
C506 C 0.0446 0.35083 0.80499 0.0
C507 C 0.0349 0.36083 0.7893 0.0
C508 C 0.04596 0.37038 0.77452 0.0
C509 C 0.06642 0.36949 0.77507 0.0
C510 C 0.01326 0.36063 0.78748 0.0
C511 C 0.00298 0.3789 0.78566 0.0
C512 C 0.00292 0.34259 0.7862 0.0
C513 C 0.01302 0.32281 0.78701 0.0
C514 C 0.02761 0.31762 0.77291 0.0
C515 C 0.03706 0.29893 0.77377 0.0
C516 C 0.03191 0.28523 0.78856 0.0
C517 C 0.01726 0.29018 0.80248 0.0
C518 C 0.00778 0.30887 0.8017 0.0
C519 C 0.93318 0.36414 0.74018 0.0
C520 C 0.91735 0.35548 0.75021 0.0
C521 C 0.95086 0.36705 0.7501 0.0
C522 C 0.95308 0.36105 0.77009 0.0
C523 C 0.93715 0.35284 0.78032 0.0
C524 C 0.91925 0.35033 0.7705 0.0
C525 C 0.97273 0.36153 0.77928 0.0
C526 C 0.98268 0.34329 0.78242 0.0
C527 C 0.98278 0.3796 0.78153 0.0
C528 C 0.97255 0.39927 0.77937 0.0
C529 C 0.95506 0.40343 0.78997 0.0
C530 C 0.94555 0.42201 0.78806 0.0
C531 C 0.95345 0.43663 0.77569 0.0
C532 C 0.97086 0.43268 0.76515 0.0
C533 C 0.98039 0.41409 0.76695 0.0
H534 H 0.9461 0.45103 0.7743 0.0
H535 H 0.03923 0.27076 0.7892 0.0
H536 H 0.12302 0.40985 0.71782 0.0
H537 H 0.12313 0.44265 0.70158 0.0
H538 H 0.12647 0.47092 0.75931 0.0
H539 H 0.12641 0.43833 0.77565 0.0
H540 H 0.0997 0.47825 0.70501 0.0
H541 H 0.16229 0.50494 0.75616 0.0
H542 H 0.19004 0.49046 0.77535 0.0
H543 H 0.19353 0.44087 0.73489 0.0
H544 H 0.166 0.45521 0.71528 0.0
H545 H 0.10769 0.58182 0.71826 0.0
H546 H 0.10431 0.54574 0.71867 0.0
H547 H 0.1579 0.53892 0.68452 0.0
H548 H 0.16145 0.57521 0.68406 0.0
H549 H 0.15893 0.51786 0.71902 0.0
H550 H 0.11574 0.5245 0.66393 0.0
H551 H 0.08829 0.53857 0.64406 0.0
H552 H 0.04734 0.52104 0.68945 0.0
H553 H 0.07457 0.5071 0.70974 0.0
C554 C 0.12346 0.42308 0.72706 0.0
C555 C 0.12492 0.42154 0.748 0.0
C556 C 0.12347 0.44176 0.71776 0.0
C557 C 0.1251 0.45909 0.72926 0.0
C558 C 0.12545 0.45764 0.7502 0.0
C559 C 0.12537 0.43902 0.7595 0.0
C560 C 0.12788 0.47863 0.71956 0.0
C561 C 0.11266 0.48693 0.70791 0.0
C562 C 0.14508 0.48959 0.72293 0.0
C563 C 0.16199 0.4811 0.73433 0.0
C564 C 0.16906 0.49101 0.75128 0.0
C565 C 0.18474 0.48282 0.76225 0.0
C566 C 0.19351 0.46473 0.75637 0.0
C567 C 0.18668 0.45485 0.73946 0.0
C568 C 0.17103 0.46299 0.72843 0.0
C569 C 0.11859 0.57269 0.7105 0.0
C570 C 0.13497 0.58134 0.70132 0.0
C571 C 0.11653 0.55207 0.7106 0.0
C572 C 0.13081 0.53968 0.70156 0.0
C573 C 0.14668 0.54828 0.69151 0.0
C574 C 0.14867 0.56899 0.69124 0.0
C575 C 0.1304 0.51792 0.70507 0.0
C576 C 0.14609 0.50913 0.71569 0.0
C577 C 0.11372 0.50652 0.70056 0.0
C578 C 0.09724 0.51483 0.68841 0.0
C579 C 0.1009 0.52376 0.66975 0.0
C580 C 0.08537 0.5317 0.65839 0.0
C581 C 0.06608 0.53072 0.66549 0.0
C582 C 0.06229 0.52178 0.68396 0.0
C583 C 0.07776 0.51382 0.69538 0.0
H584 H 0.05408 0.53687 0.65668 0.0
H585 H 0.20562 0.4584 0.7649 0.0
H586 H 0.90507 0.636 0.19174 0.0
H587 H 0.93985 0.63808 0.18229 0.0
H588 H 0.95653 0.61099 0.23851 0.0
H589 H 0.92204 0.60916 0.24809 0.0
H590 H 0.97347 0.64636 0.23309 0.0
H591 H 0.96368 0.58678 0.19441 0.0
H592 H 0.9479 0.56617 0.16879 0.0
H593 H 0.96368 0.60829 0.12334 0.0
H594 H 0.97933 0.62931 0.14875 0.0
H595 H 0.07441 0.62863 0.2266 0.0
H596 H 0.03903 0.62442 0.22771 0.0
H597 H 0.03293 0.65506 0.17121 0.0
H598 H 0.06863 0.65924 0.16978 0.0
H599 H 0.00999 0.62108 0.17372 0.0
H600 H 0.02127 0.67968 0.21228 0.0
H601 H 0.03727 0.70006 0.23795 0.0
H602 H 0.01834 0.65972 0.28373 0.0
H603 H 0.00246 0.63893 0.2583 0.0
C604 C 0.91617 0.63002 0.20181 0.0
C605 C 0.91092 0.62265 0.22074 0.0
C606 C 0.93601 0.63122 0.19641 0.0
C607 C 0.95075 0.62485 0.20979 0.0
C608 C 0.94538 0.61616 0.22805 0.0
C609 C 0.92567 0.6151 0.23349 0.0
C610 C 0.97169 0.62912 0.20601 0.0
C611 C 0.98149 0.64063 0.2202 0.0
C612 C 0.98192 0.62234 0.18879 0.0
C613 C 0.97247 0.60974 0.17352 0.0
C614 C 0.96362 0.59175 0.17899 0.0
C615 C 0.95473 0.57997 0.16449 0.0
C616 C 0.95473 0.58595 0.14446 0.0
C617 C 0.96366 0.6037 0.13887 0.0
C618 C 0.97255 0.61555 0.15331 0.0
C619 C 0.06564 0.63457 0.21437 0.0
C620 C 0.0744 0.64447 0.19817 0.0
C621 C 0.04538 0.63212 0.21505 0.0
C622 C 0.03337 0.63964 0.19966 0.0
C623 C 0.04199 0.6492 0.18325 0.0
C624 C 0.06236 0.65166 0.18253 0.0
C625 C 0.0118 0.63774 0.20115 0.0
C626 C 0.00188 0.62688 0.18651 0.0
C627 C 0.00135 0.64512 0.21797 0.0
C628 C 0.01079 0.65767 0.23334 0.0
C629 C 0.02063 0.67508 0.2278 0.0
C630 C 0.02966 0.68672 0.24231 0.0
C631 C 0.02885 0.68117 0.26245 0.0
C632 C 0.01896 0.66399 0.26812 0.0
C633 C 0.00993 0.65229 0.25367 0.0
H634 H 0.03585 0.6902 0.27366 0.0
H635 H 0.94786 0.5768 0.13326 0.0
H636 H 0.85471 0.57568 0.71746 0.0
H637 H 0.85759 0.54279 0.70167 0.0
H638 H 0.87565 0.51696 0.75801 0.0
H639 H 0.87249 0.54969 0.77398 0.0
H640 H 0.89814 0.50394 0.72265 0.0
H641 H 0.83073 0.51323 0.74711 0.0
H642 H 0.79889 0.53143 0.7487 0.0
H643 H 0.79221 0.52533 0.68517 0.0
H644 H 0.82418 0.50732 0.68319 0.0
H645 H 0.87816 0.40348 0.73069 0.0
H646 H 0.88065 0.43941 0.73311 0.0
H647 H 0.8512 0.44645 0.67637 0.0
H648 H 0.84829 0.41014 0.67389 0.0
H649 H 0.83604 0.47145 0.70364 0.0
H650 H 0.89954 0.45533 0.68018 0.0
H651 H 0.93153 0.43764 0.67762 0.0
H652 H 0.94688 0.4576 0.73637 0.0
H653 H 0.91472 0.47477 0.73967 0.0
C654 C 0.85949 0.56302 0.72642 0.0
C655 C 0.86326 0.56515 0.74697 0.0
C656 C 0.86112 0.5443 0.71739 0.0
C657 C 0.86679 0.52756 0.72873 0.0
C658 C 0.87132 0.52979 0.74905 0.0
C659 C 0.8694 0.54842 0.75815 0.0
C660 C 0.8668 0.50743 0.7199 0.0
C661 C 0.88463 0.49672 0.71851 0.0
C662 C 0.84919 0.49851 0.71374 0.0
C663 C 0.82993 0.50917 0.71497 0.0
C664 C 0.82255 0.51593 0.73346 0.0
C665 C 0.80447 0.52618 0.73444 0.0
C666 C 0.79356 0.5296 0.71703 0.0
C667 C 0.80069 0.52271 0.69863 0.0
C668 C 0.81878 0.51248 0.69757 0.0
C669 C 0.87223 0.41256 0.71861 0.0
C670 C 0.86296 0.40387 0.70209 0.0
C671 C 0.87385 0.43315 0.71996 0.0
C672 C 0.86641 0.44558 0.70477 0.0
C673 C 0.85716 0.43707 0.68819 0.0
C674 C 0.85552 0.41634 0.6868 0.0
C675 C 0.86738 0.46748 0.7071 0.0
C676 C 0.84971 0.47864 0.70728 0.0
C677 C 0.88522 0.47686 0.71194 0.0
C678 C 0.90457 0.46627 0.71022 0.0
C679 C 0.90961 0.45574 0.69269 0.0
C680 C 0.92779 0.44576 0.69112 0.0
C681 C 0.94119 0.44637 0.70689 0.0
C682 C 0.93643 0.45698 0.72425 0.0
C683 C 0.91821 0.46684 0.72598 0.0
H684 H 0.95529 0.43871 0.70563 0.0
H685 H 0.77957 0.53753 0.71782 0.0
H686 H 0.94044 0.36342 0.25747 0.0
H687 H 0.97202 0.37402 0.24484 0.0
H688 H 0.95231 0.36554 0.18422 0.0
H689 H 0.92012 0.35491 0.19693 0.0
H690 H 0.9892 0.34707 0.19337 0.0
H691 H 0.96052 0.4113 0.19648 0.0
H692 H 0.94015 0.43884 0.21024 0.0
H693 H 0.97817 0.44214 0.26123 0.0
H694 H -0.00142 0.41438 0.24801 0.0
H695 H 0.09257 0.36837 0.19559 0.0
H696 H 0.05865 0.37357 0.18375 0.0
H697 H 0.03911 0.3815 0.24472 0.0
H698 H 0.0726 0.37643 0.25653 0.0
H699 H 0.02067 0.40789 0.21921 0.0
H700 H 0.03811 0.33575 0.22189 0.0
H701 H 0.0575 0.30634 0.21058 0.0
H702 H 0.03988 0.31779 0.14992 0.0
H703 H 0.02055 0.34739 0.1609 0.0
C704 C 0.94269 0.36388 0.24143 0.0
C705 C 0.92786 0.35823 0.22817 0.0
C706 C 0.96071 0.37015 0.23422 0.0
C707 C 0.96437 0.37088 0.2136 0.0
C708 C 0.94963 0.36528 0.20019 0.0
C709 C 0.93134 0.3592 0.20745 0.0
C710 C 0.98433 0.37593 0.20677 0.0
C711 C 0.99601 0.3607 0.19827 0.0
C712 C 0.99315 0.39372 0.2132 0.0
C713 C 0.98114 0.41072 0.22118 0.0
C714 C 0.96452 0.41783 0.21066 0.0
C715 C 0.95295 0.43349 0.21838 0.0
C716 C 0.95787 0.44224 0.23659 0.0
C717 C 0.9744 0.43537 0.2471 0.0
C718 C 0.98601 0.4197 0.23947 0.0
C719 C 0.08102 0.37145 0.20639 0.0
C720 C 0.08514 0.37175 0.22699 0.0
C721 C 0.06171 0.37445 0.19961 0.0
C722 C 0.04639 0.37787 0.21337 0.0
C723 C 0.05072 0.379 0.23383 0.0
C724 C 0.06986 0.3759 0.24058 0.0
C725 C 0.02551 0.37843 0.20723 0.0
C726 C 0.01372 0.39475 0.21327 0.0
C727 C 0.01657 0.36162 0.19868 0.0
C728 C 0.02814 0.34387 0.19215 0.0
C729 C 0.0385 0.33204 0.20613 0.0
C730 C 0.04945 0.31535 0.19979 0.0
C731 C 0.04998 0.31024 0.17953 0.0
C732 C 0.03951 0.32179 0.16559 0.0
C733 C 0.02856 0.33853 0.17186 0.0
H734 H 0.05846 0.29731 0.17465 0.0
H735 H 0.94888 0.45434 0.24255 0.0
H736 H 0.29472 0.1397 0.5855 0.0
H737 H 0.307 0.12882 0.55245 0.0
H738 H 0.24738 0.11983 0.53318 0.0
H739 H 0.23516 0.13087 0.56559 0.0
H740 H 0.27461 0.08845 0.52186 0.0
H741 H 0.26798 0.16274 0.52291 0.0
H742 H 0.27794 0.19549 0.53574 0.0
H743 H 0.33805 0.18177 0.52043 0.0
H744 H 0.32841 0.14885 0.50769 0.0
H745 H 0.23384 0.11341 0.43276 0.0
H746 H 0.24732 0.10823 0.46605 0.0
H747 H 0.30561 0.11946 0.4437 0.0
H748 H 0.29204 0.12454 0.40991 0.0
H749 H 0.29589 0.1425 0.47642 0.0
H750 H 0.29864 0.07444 0.46272 0.0
H751 H 0.28873 0.04207 0.44908 0.0
H752 H 0.23817 0.04245 0.48762 0.0
H753 H 0.2476 0.07496 0.50133 0.0
C754 C 0.28433 0.13527 0.57419 0.0
C755 C 0.26399 0.13634 0.57799 0.0
C756 C 0.29135 0.12901 0.55542 0.0
C757 C 0.27807 0.12342 0.54048 0.0
C758 C 0.25787 0.12391 0.54458 0.0
C759 C 0.25089 0.13043 0.56305 0.0
C760 C 0.28446 0.11867 0.51984 0.0
C761 C 0.27958 0.10008 0.51188 0.0
C762 C 0.29183 0.13356 0.50703 0.0
C763 C 0.29754 0.15331 0.51461 0.0
C764 C 0.28333 0.16668 0.52242 0.0
C765 C 0.28891 0.18527 0.52965 0.0
C766 C 0.30863 0.19068 0.52896 0.0
C767 C 0.32279 0.17754 0.521 0.0
C768 C 0.31728 0.15892 0.51378 0.0
C769 C 0.24957 0.11448 0.43482 0.0
C770 C 0.26188 0.1195 0.41882 0.0
C771 C 0.2573 0.11133 0.45384 0.0
C772 C 0.27751 0.11323 0.45732 0.0
C773 C 0.29 0.11775 0.44126 0.0
C774 C 0.28225 0.12063 0.42203 0.0
C775 C 0.28463 0.11273 0.47824 0.0
C776 C 0.29199 0.13035 0.48632 0.0
C777 C 0.27975 0.09684 0.49115 0.0
C778 C 0.27389 0.07718 0.48311 0.0
C779 C 0.28536 0.06768 0.46824 0.0
C780 C 0.27983 0.04929 0.4605 0.0
C781 C 0.26286 0.04019 0.46751 0.0
C782 C 0.25136 0.04948 0.48226 0.0
C783 C 0.25683 0.06788 0.49007 0.0
H784 H 0.25866 0.02593 0.46152 0.0
H785 H 0.31292 0.20508 0.53456 0.0
H786 H 0.35974 0.72907 0.92497 0.0
H787 H 0.36697 0.73053 0.96067 0.0
H788 H 0.33572 0.78699 0.96483 0.0
H789 H 0.32843 0.78578 0.92912 0.0
H790 H 0.37223 0.78709 0.9832 0.0
H791 H 0.31461 0.74638 0.98167 0.0
H792 H 0.29495 0.71791 0.97081 0.0
H793 H 0.33859 0.67712 0.99433 0.0
H794 H 0.35865 0.70538 0.0051 0.0
H795 H 0.35216 0.79838 0.08569 0.0
H796 H 0.35204 0.79474 0.04951 0.0
H797 H 0.38183 0.73756 0.05486 0.0
H798 H 0.38183 0.7409 0.09128 0.0
H799 H 0.34976 0.7358 0.03121 0.0
H800 H 0.40594 0.77659 0.03575 0.0
H801 H 0.42545 0.80508 0.04681 0.0
H802 H 0.38498 0.84564 0.01779 0.0
H803 H 0.36505 0.81741 0.00679 0.0
C804 C 0.35428 0.74177 0.93346 0.0
C805 C 0.34346 0.75731 0.92418 0.0
C806 C 0.35843 0.74254 0.95386 0.0
C807 C 0.35182 0.75884 0.9653 0.0
C808 C 0.34096 0.77432 0.95616 0.0
C809 C 0.33672 0.77353 0.93579 0.0
C810 C 0.35636 0.75987 0.98683 0.0
C811 C 0.3672 0.776 0.99377 0.0
C812 C 0.35031 0.74499 0.00038 0.0
C813 C 0.33824 0.72799 0.99398 0.0
C814 C 0.3201 0.73134 0.98437 0.0
C815 C 0.30886 0.71524 0.97826 0.0
C816 C 0.31554 0.69572 0.98182 0.0
C817 C 0.33345 0.69225 0.99155 0.0
C818 C 0.34475 0.7083 -0.00233 0.0
C819 C 0.35891 0.7851 0.07924 0.0
C820 C 0.36689 0.76987 0.09143 0.0
C821 C 0.35892 0.78311 0.05852 0.0
C822 C 0.36704 0.76595 0.04954 0.0
C823 C 0.3755 0.75093 0.06156 0.0
C824 C 0.37551 0.75289 0.08235 0.0
C825 C 0.36537 0.76324 0.0277 0.0
C826 C 0.35505 0.74678 0.02066 0.0
C827 C 0.37193 0.77781 0.01405 0.0
C828 C 0.38392 0.79487 0.02056 0.0
C829 C 0.40111 0.79159 0.03185 0.0
C830 C 0.41227 0.8077 0.03809 0.0
C831 C 0.40644 0.82716 0.03304 0.0
C832 C 0.38947 0.83056 0.0217 0.0
C833 C 0.37825 0.8145 0.01543 0.0
H834 H 0.41509 0.83961 0.03789 0.0
H835 H 0.30682 0.68327 0.97708 0.0
H836 H 0.76458 0.8893 0.41864 0.0
H837 H 0.75763 0.89166 0.45437 0.0
H838 H 0.70423 0.85913 0.44616 0.0
H839 H 0.71086 0.85723 0.41005 0.0
H840 H 0.70472 0.88916 0.48037 0.0
H841 H 0.73963 0.83119 0.45341 0.0
H842 H 0.7647 0.81548 0.43151 0.0
H843 H 0.81006 0.84689 0.46202 0.0
H844 H 0.7852 0.86306 0.48386 0.0
H845 H 0.71586 0.8472 0.58079 0.0
H846 H 0.70788 0.85367 0.54547 0.0
H847 H 0.76667 0.87476 0.53577 0.0
H848 H 0.77483 0.86761 0.57048 0.0
H849 H 0.75844 0.84747 0.50984 0.0
H850 H 0.72438 0.90594 0.53658 0.0
H851 H 0.69974 0.92359 0.55751 0.0
H852 H 0.6534 0.89267 0.52806 0.0
H853 H 0.67779 0.87463 0.50713 0.0
C854 C 0.75103 0.88323 0.42435 0.0
C855 C 0.73845 0.87271 0.41181 0.0
C856 C 0.747 0.88473 0.4447 0.0
C857 C 0.73061 0.87528 0.45283 0.0
C858 C 0.71693 0.86654 0.44007 0.0
C859 C 0.7208 0.86535 0.41953 0.0
C860 C 0.73043 0.87087 0.47444 0.0
C861 C 0.71624 0.87985 0.48692 0.0
C862 C 0.74551 0.85871 0.4828 0.0
C863 C 0.76055 0.8484 0.47019 0.0
C864 C 0.75494 0.8348 0.45539 0.0
C865 C 0.76911 0.82582 0.44298 0.0
C866 C 0.78896 0.8302 0.44536 0.0
C867 C 0.79468 0.84351 0.4602 0.0
C868 C 0.78056 0.85256 0.47261 0.0
C869 C 0.72695 0.85337 0.57106 0.0
C870 C 0.74605 0.85658 0.57816 0.0
C871 C 0.72236 0.85717 0.55098 0.0
C872 C 0.73671 0.86465 0.53799 0.0
C873 C 0.75543 0.8688 0.54547 0.0
C874 C 0.76011 0.86465 0.56528 0.0
C875 C 0.73326 0.8665 0.51621 0.0
C876 C 0.74673 0.8567 0.50351 0.0
C877 C 0.71755 0.87793 0.50785 0.0
C878 C 0.70293 0.88875 0.52047 0.0
C879 C 0.70895 0.90276 0.5347 0.0
C880 C 0.69503 0.91287 0.54654 0.0
C881 C 0.67502 0.9092 0.54417 0.0
C882 C 0.6689 0.89546 0.52991 0.0
C883 C 0.68276 0.8853 0.51806 0.0
H884 H 0.66427 0.91705 0.55334 0.0
H885 H 0.79991 0.82326 0.43571 0.0
H886 H 0.63183 0.25986 0.07878 0.0
H887 H 0.63347 0.26006 0.04235 0.0
H888 H 0.65468 0.19897 0.0428 0.0
H889 H 0.65354 0.19872 0.07928 0.0
H890 H 0.67601 0.22116 0.01827 0.0
H891 H 0.6073 0.21094 0.02977 0.0
H892 H 0.57464 0.21831 0.04436 0.0
H893 H 0.57323 0.27552 0.01538 0.0
H894 H 0.60603 0.26861 0.00084 0.0
H895 H 0.66174 0.20087 0.91521 0.0
H896 H 0.66111 0.20108 0.95167 0.0
H897 H 0.64068 0.26242 0.9511 0.0
H898 H 0.64089 0.2623 0.91462 0.0
H899 H 0.61899 0.24017 0.97568 0.0
H900 H 0.68789 0.25009 0.96414 0.0
H901 H 0.72056 0.24246 0.94971 0.0
H902 H 0.72143 0.18529 0.97878 0.0
H903 H 0.68863 0.19247 0.99317 0.0
C904 C 0.63675 0.24641 0.07116 0.0
C905 C 0.64258 0.22927 0.08194 0.0
C906 C 0.63761 0.24655 0.05033 0.0
C907 C 0.64402 0.22947 0.03992 0.0
C908 C 0.64971 0.2123 0.0506 0.0
C909 C 0.649 0.21218 0.07144 0.0
C910 C 0.6453 0.22969 0.01788 0.0
C911 C 0.66348 0.22504 0.00892 0.0
C912 C 0.62904 0.23522 0.0058 0.0
C913 C 0.60921 0.23933 0.01436 0.0
C914 C 0.60009 0.22515 0.02662 0.0
C915 C 0.58154 0.22924 0.03486 0.0
C916 C 0.57189 0.24739 0.03084 0.0
C917 C 0.58074 0.26147 0.0185 0.0
C918 C 0.5993 0.25747 0.01024 0.0
C919 C 0.65731 0.21449 0.9228 0.0
C920 C 0.65134 0.23156 0.91197 0.0
C921 C 0.65701 0.21459 0.94365 0.0
C922 C 0.65097 0.23181 0.95403 0.0
C923 C 0.64536 0.24898 0.94332 0.0
C924 C 0.64556 0.24889 0.92247 0.0
C925 C 0.64971 0.23166 0.97608 0.0
C926 C 0.63152 0.2363 0.98503 0.0
C927 C 0.66595 0.22606 0.98816 0.0
C928 C 0.68572 0.22176 0.97959 0.0
C929 C 0.69498 0.23583 0.96734 0.0
C930 C 0.71354 0.2316 0.95919 0.0
C931 C 0.72305 0.21338 0.96329 0.0
C932 C 0.71404 0.19938 0.9756 0.0
C933 C 0.69547 0.20354 0.98377 0.0
H934 H 0.73741 0.21013 0.95696 0.0
H935 H 0.55753 0.25053 0.03725 0.0
H936 H 0.27113 0.81596 0.43031 0.0
H937 H 0.26367 0.81454 0.46576 0.0
H938 H 0.21028 0.84905 0.45603 0.0
H939 H 0.21792 0.85103 0.42034 0.0
H940 H 0.23083 0.865 0.4843 0.0
H941 H 0.20857 0.80004 0.47281 0.0
H942 H 0.20857 0.76599 0.45903 0.0
H943 H 0.26145 0.7514 0.49127 0.0
H944 H 0.26197 0.78545 0.50502 0.0
H945 H 0.23008 0.86315 0.59095 0.0
H946 H 0.21845 0.85689 0.55705 0.0
H947 H 0.27215 0.82408 0.54397 0.0
H948 H 0.28374 0.82985 0.5779 0.0
H949 H 0.24037 0.80595 0.52831 0.0
H950 H 0.2658 0.87393 0.53159 0.0
H951 H 0.26579 0.90825 0.54485 0.0
H952 H 0.20546 0.91661 0.52742 0.0
H953 H 0.20508 0.88224 0.51428 0.0
C954 C 0.25762 0.823 0.43556 0.0
C955 C 0.24524 0.83379 0.42247 0.0
C956 C 0.25325 0.82199 0.45588 0.0
C957 C 0.23627 0.83147 0.46353 0.0
C958 C 0.22341 0.84155 0.45041 0.0
C959 C 0.22783 0.84268 0.43003 0.0
C960 C 0.23356 0.83291 0.48545 0.0
C961 C 0.23231 0.85201 0.49394 0.0
C962 C 0.23559 0.816 0.49802 0.0
C963 C 0.23531 0.79537 0.48993 0.0
C964 C 0.22026 0.78962 0.47689 0.0
C965 C 0.22016 0.7703 0.46908 0.0
C966 C 0.235 0.75654 0.47427 0.0
C967 C 0.24995 0.76206 0.48729 0.0
C968 C 0.25013 0.78137 0.49514 0.0
C969 C 0.23942 0.85456 0.58089 0.0
C970 C 0.25796 0.84718 0.58707 0.0
C971 C 0.23269 0.85095 0.56155 0.0
C972 C 0.24451 0.84017 0.54799 0.0
C973 C 0.26278 0.83238 0.55426 0.0
C974 C 0.26944 0.83582 0.57362 0.0
C975 C 0.23867 0.83801 0.52685 0.0
C976 C 0.23825 0.8188 0.51861 0.0
C977 C 0.235 0.85479 0.51447 0.0
C978 C 0.23534 0.87548 0.52219 0.0
C979 C 0.25251 0.88306 0.53071 0.0
C980 C 0.25258 0.90251 0.53818 0.0
C981 C 0.23562 0.91458 0.53704 0.0
C982 C 0.21858 0.90723 0.52834 0.0
C983 C 0.21842 0.88778 0.52088 0.0
H984 H 0.23569 0.92963 0.54284 0.0
H985 H 0.2349 0.74159 0.46819 0.0
H986 H 0.61867 0.75299 0.07757 0.0
H987 H 0.61325 0.75057 0.04173 0.0
H988 H 0.63052 0.81162 0.03407 0.0
H989 H 0.63595 0.81434 0.0702 0.0
H990 H 0.59636 0.80067 0.01132 0.0
H991 H 0.66291 0.7783 0.02279 0.0
H992 H 0.68914 0.75881 0.03973 0.0
H993 H 0.66191 0.70433 0.02238 0.0
H994 H 0.63535 0.7235 0.00558 0.0
H995 H 0.61569 0.78544 0.90513 0.0
H996 H 0.61473 0.79559 0.94039 0.0
H997 H 0.60289 0.735 0.95776 0.0
H998 H 0.60406 0.72478 0.92281 0.0
H999 H 0.63577 0.74914 0.97508 0.0
H1000 H 0.56889 0.77075 0.96441 0.0
H1001 H 0.54203 0.7896 0.94784 0.0
H1002 H 0.56904 0.84474 0.96341 0.0
H1003 H 0.59625 0.82619 0.97983 0.0
C1004 C 0.62136 0.76596 0.06836 0.0
C1005 C 0.62799 0.78381 0.07677 0.0
C1006 C 0.61818 0.76454 0.04787 0.0
C1007 C 0.62162 0.78087 0.03532 0.0
C1008 C 0.62778 0.79888 0.04359 0.0
C1009 C 0.63103 0.80033 0.06419 0.0
C1010 C 0.61967 0.77853 0.01348 0.0
C1011 C 0.60516 0.78967 0.00323 0.0
C1012 C 0.63098 0.76394 0.00316 0.0
C1013 C 0.64707 0.75235 0.01305 0.0
C1014 C 0.66244 0.76217 0.0227 0.0
C1015 C 0.67738 0.75117 0.03226 0.0
C1016 C 0.67717 0.73035 0.03216 0.0
C1017 C 0.66205 0.72046 0.02245 0.0
C1018 C 0.64706 0.73139 0.01289 0.0
C1019 C 0.6124 0.77443 0.91647 0.0
C1020 C 0.6103 0.75428 0.91136 0.0
C1021 C 0.61183 0.78024 0.93656 0.0
C1022 C 0.60894 0.76597 0.95163 0.0
C1023 C 0.60533 0.74617 0.94634 0.0
C1024 C 0.60603 0.74036 0.92638 0.0
C1025 C 0.61209 0.77089 0.97289 0.0
C1026 C 0.627 0.76027 0.98303 0.0
C1027 C 0.60109 0.78589 0.98301 0.0
C1028 C 0.58474 0.79707 0.97315 0.0
C1029 C 0.56922 0.78689 0.96413 0.0
C1030 C 0.5539 0.79752 0.9548 0.0
C1031 C 0.55386 0.81836 0.95452 0.0
C1032 C 0.56911 0.8286 0.96361 0.0
C1033 C 0.58448 0.81803 0.97295 0.0
H1034 H 0.54198 0.82657 0.94729 0.0
H1035 H 0.68874 0.72186 0.03958 0.0
H1036 H 0.74506 0.12512 0.57931 0.0
H1037 H 0.75435 0.13357 0.54508 0.0
H1038 H 0.7283 0.19237 0.55239 0.0
H1039 H 0.71841 0.1838 0.58638 0.0
H1040 H 0.71477 0.17583 0.52074 0.0
H1041 H 0.77876 0.18495 0.54664 0.0
H1042 H 0.80866 0.1767 0.56597 0.0
H1043 H 0.81963 0.12538 0.52901 0.0
H1044 H 0.78963 0.13312 0.50963 0.0
H1045 H 0.73237 0.19539 0.42071 0.0
H1046 H 0.73917 0.19959 0.45628 0.0
H1047 H 0.75854 0.13803 0.46016 0.0
H1048 H 0.75235 0.13387 0.42442 0.0
H1049 H 0.7785 0.16213 0.48668 0.0
H1050 H 0.71076 0.14967 0.46687 0.0
H1051 H 0.6804 0.1573 0.44798 0.0
H1052 H 0.67678 0.21539 0.4748 0.0
H1053 H 0.70728 0.20817 0.49366 0.0
C1054 C 0.74148 0.13991 0.57367 0.0
C1055 C 0.73073 0.15369 0.58536 0.0
C1056 C 0.747 0.1448 0.5542 0.0
C1057 C 0.7422 0.16369 0.54628 0.0
C1058 C 0.73215 0.17772 0.55824 0.0
C1059 C 0.72638 0.17275 0.57758 0.0
C1060 C 0.74537 0.16783 0.52481 0.0
C1061 C 0.72887 0.17337 0.51343 0.0
C1062 C 0.76366 0.16422 0.51521 0.0
C1063 C 0.78185 0.15957 0.52672 0.0
C1064 C 0.78746 0.17183 0.5427 0.0
C1065 C 0.80445 0.16725 0.55366 0.0
C1066 C 0.81602 0.15051 0.54874 0.0
C1067 C 0.81065 0.13834 0.5328 0.0
C1068 C 0.79367 0.14284 0.5218 0.0
C1069 C 0.73845 0.18286 0.42906 0.0
C1070 C 0.74138 0.16416 0.41997 0.0
C1071 C 0.74245 0.18533 0.44932 0.0
C1072 C 0.74896 0.169 0.46085 0.0
C1073 C 0.75349 0.15079 0.45147 0.0
C1074 C 0.7498 0.1484 0.43111 0.0
C1075 C 0.74787 0.16987 0.48287 0.0
C1076 C 0.76463 0.16513 0.49424 0.0
C1077 C 0.72982 0.17424 0.49261 0.0
C1078 C 0.71137 0.17847 0.48148 0.0
C1079 C 0.70353 0.1641 0.46864 0.0
C1080 C 0.6863 0.16835 0.45795 0.0
C1081 C 0.67669 0.18684 0.46015 0.0
C1082 C 0.68426 0.2011 0.47309 0.0
C1083 C 0.7015 0.19694 0.48378 0.0
H1084 H 0.66336 0.1901 0.45186 0.0
H1085 H 0.82915 0.14699 0.55725 0.0
H1086 H 0.38889 0.24074 0.07904 0.0
H1087 H 0.3971 0.24308 0.04363 0.0
H1088 H 0.36367 0.19053 0.03165 0.0
H1089 H 0.35536 0.18792 0.06721 0.0
H1090 H 0.39977 0.19303 0.00891 0.0
H1091 H 0.34136 0.23199 0.02413 0.0
H1092 H 0.32168 0.25673 0.0432 0.0
H1093 H 0.36281 0.30214 0.02818 0.0
H1094 H 0.3829 0.27756 0.00925 0.0
H1095 H 0.37666 0.21501 0.90552 0.0
H1096 H 0.37952 0.20439 0.94054 0.0
H1097 H 0.40485 0.26092 0.95548 0.0
H1098 H 0.40147 0.27173 0.92078 0.0
H1099 H 0.37335 0.25478 0.97696 0.0
H1100 H 0.43094 0.21619 0.95963 0.0
H1101 H 0.45064 0.19132 0.94077 0.0
H1102 H 0.41154 0.14526 0.95914 0.0
H1103 H 0.39143 0.16991 0.9779 0.0
C1104 C 0.38335 0.22955 0.06897 0.0
C1105 C 0.37114 0.21433 0.07596 0.0
C1106 C 0.38817 0.23087 0.04874 0.0
C1107 C 0.38083 0.21708 0.03506 0.0
C1108 C 0.36949 0.20128 0.04203 0.0
C1109 C 0.36463 0.19993 0.06232 0.0
C1110 C 0.38337 0.22047 0.01335 0.0
C1111 C 0.39388 0.20641 0.00179 0.0
C1112 C 0.37587 0.23805 0.00424 0.0
C1113 C 0.36372 0.2529 0.01544 0.0
C1114 C 0.34628 0.24722 0.02502 0.0
C1115 C 0.33504 0.26121 0.03578 0.0
C1116 C 0.34102 0.28098 0.03694 0.0
C1117 C 0.35822 0.28681 0.02729 0.0
C1118 C 0.36953 0.27286 0.01653 0.0
C1119 C 0.38336 0.2249 0.91621 0.0
C1120 C 0.38859 0.24427 0.91059 0.0
C1121 C 0.38503 0.21881 0.9362 0.0
C1122 C 0.39227 0.23193 0.95067 0.0
C1123 C 0.39905 0.25063 0.94461 0.0
C1124 C 0.39712 0.25679 0.92479 0.0
C1125 C 0.39019 0.22757 0.97232 0.0
C1126 C 0.37949 0.24143 0.98394 0.0
C1127 C 0.39752 0.2098 0.98134 0.0
C1128 C 0.40955 0.19495 0.97001 0.0
C1129 C 0.42642 0.20079 0.9595 0.0
C1130 C 0.43769 0.18672 0.94886 0.0
C1131 C 0.43231 0.16673 0.94871 0.0
C1132 C 0.41567 0.16076 0.95925 0.0
C1133 C 0.40434 0.17477 0.96991 0.0
H1134 H 0.44106 0.15586 0.94047 0.0
H1135 H 0.3323 0.2918 0.04528 0.0
H1136 H 0.58189 0.30035 0.13183 0.0
H1137 H 0.5474 0.31001 0.12501 0.0
H1138 H 0.5353 0.24905 0.1094 0.0
H1139 H 0.56924 0.2396 0.11571 0.0
H1140 H 0.51451 0.27354 0.08628 0.0
H1141 H 0.53008 0.26806 0.1589 0.0
H1142 H 0.54712 0.27955 0.18921 0.0
H1143 H 0.52301 0.33862 0.18049 0.0
H1144 H 0.50597 0.32747 0.15004 0.0
H1145 H 0.43507 0.22616 0.12689 0.0
H1146 H 0.46692 0.24065 0.11962 0.0
H1147 H 0.44205 0.29974 0.12796 0.0
H1148 H 0.40987 0.2853 0.13505 0.0
H1149 H 0.47866 0.29155 0.1486 0.0
H1150 H 0.45254 0.28959 0.08322 0.0
H1151 H 0.43465 0.27501 0.05495 0.0
H1152 H 0.47826 0.22804 0.05045 0.0
H1153 H 0.49622 0.24207 0.07893 0.0
C1154 C 0.57188 0.28921 0.1265 0.0
C1155 C 0.5781 0.26918 0.12465 0.0
C1156 C 0.55223 0.2947 0.12265 0.0
C1157 C 0.53871 0.2802 0.11692 0.0
C1158 C 0.5454 0.26054 0.11375 0.0
C1159 C 0.56482 0.2551 0.11759 0.0
C1160 C 0.5172 0.28419 0.11651 0.0
C1161 C 0.5066 0.27779 0.09978 0.0
C1162 C 0.50682 0.29039 0.13387 0.0
C1163 C 0.51699 0.29702 0.15214 0.0
C1164 C 0.52851 0.28351 0.16343 0.0
C1165 C 0.53815 0.28996 0.18062 0.0
C1166 C 0.5362 0.30982 0.18673 0.0
C1167 C 0.52455 0.32326 0.17571 0.0
C1168 C 0.51491 0.31689 0.15849 0.0
C1169 C 0.43635 0.24223 0.12721 0.0
C1170 C 0.42001 0.2546 0.13155 0.0
C1171 C 0.4545 0.25049 0.12292 0.0
C1172 C 0.4567 0.27125 0.123 0.0
C1173 C 0.44054 0.28369 0.12767 0.0
C1174 C 0.42224 0.27542 0.13173 0.0
C1175 C 0.47626 0.2795 0.1189 0.0
C1176 C 0.48639 0.28825 0.13474 0.0
C1177 C 0.48622 0.27523 0.10078 0.0
C1178 C 0.47574 0.26692 0.08327 0.0
C1179 C 0.45828 0.2761 0.07627 0.0
C1180 C 0.44812 0.26792 0.0602 0.0
C1181 C 0.45531 0.25061 0.05091 0.0
C1182 C 0.47272 0.24147 0.05764 0.0
C1183 C 0.48292 0.24955 0.07373 0.0
H1184 H 0.44739 0.24428 0.0385 0.0
H1185 H 0.54367 0.31478 0.20004 0.0
H1186 H 0.56111 0.74109 0.8594 0.0
H1187 H 0.52696 0.73645 0.86865 0.0
H1188 H 0.53354 0.67315 0.85842 0.0
H1189 H 0.56788 0.67773 0.84855 0.0
H1190 H 0.50023 0.68744 0.84283 0.0
H1191 H 0.53081 0.69133 0.90632 0.0
H1192 H 0.55324 0.705 0.9315 0.0
H1193 H 0.52015 0.7602 0.93172 0.0
H1194 H 0.49771 0.74703 0.90629 0.0
H1195 H 0.39965 0.69195 0.87216 0.0
H1196 H 0.43418 0.68121 0.87537 0.0
H1197 H 0.45115 0.74271 0.87958 0.0
H1198 H 0.4169 0.75347 0.87671 0.0
H1199 H 0.47304 0.71909 0.90426 0.0
H1200 H 0.45048 0.71857 0.83453 0.0
H1201 H 0.42922 0.70696 0.80726 0.0
H1202 H 0.44811 0.64646 0.81841 0.0
H1203 H 0.46932 0.65774 0.84591 0.0
C1204 C 0.55535 0.72615 0.85908 0.0
C1205 C 0.56722 0.70976 0.85331 0.0
C1206 C 0.53586 0.7235 0.86457 0.0
C1207 C 0.52791 0.70438 0.86478 0.0
C1208 C 0.53952 0.68799 0.85859 0.0
C1209 C 0.55907 0.69066 0.85287 0.0
C1210 C 0.50713 0.70196 0.87059 0.0
C1211 C 0.49433 0.6938 0.85656 0.0
C1212 C 0.49948 0.71037 0.88847 0.0
C1213 C 0.51256 0.71816 0.90433 0.0
C1214 C 0.52832 0.7064 0.9117 0.0
C1215 C 0.54107 0.71408 0.926 0.0
C1216 C 0.53814 0.73346 0.93319 0.0
C1217 C 0.5224 0.74518 0.92615 0.0
C1218 C 0.50963 0.7376 0.91182 0.0
C1219 C 0.41075 0.70313 0.87409 0.0
C1220 C 0.40566 0.72355 0.8739 0.0
C1221 C 0.43042 0.69697 0.87594 0.0
C1222 C 0.44519 0.71119 0.87751 0.0
C1223 C 0.43997 0.7315 0.87844 0.0
C1224 C 0.42039 0.73764 0.87662 0.0
C1225 C 0.46622 0.70545 0.87606 0.0
C1226 C 0.47905 0.71203 0.89094 0.0
C1227 C 0.47394 0.69568 0.85893 0.0
C1228 C 0.46125 0.68895 0.8424 0.0
C1229 C 0.44998 0.70278 0.83124 0.0
C1230 C 0.43796 0.69627 0.81574 0.0
C1231 C 0.43726 0.67598 0.81115 0.0
C1232 C 0.44863 0.66216 0.82202 0.0
C1233 C 0.46064 0.6686 0.83756 0.0
H1234 H 0.42795 0.67096 0.79914 0.0
H1235 H 0.54806 0.7394 0.94421 0.0
H1236 H 0.79887 0.92242 0.3306 0.0
H1237 H 0.79817 0.95864 0.33532 0.0
H1238 H 0.74241 0.95478 0.36579 0.0
H1239 H 0.74281 0.91886 0.36102 0.0
H1240 H 0.74274 0.98503 0.33883 0.0
H1241 H 0.78467 0.9588 0.39184 0.0
H1242 H 0.8134 0.93989 0.40481 0.0
H1243 H 0.85207 0.97793 0.3721 0.0
H1244 H 0.82353 0.99691 0.35872 0.0
H1245 H 0.72861 0.07399 0.38845 0.0
H1246 H 0.7365 0.03849 0.38501 0.0
H1247 H 0.79094 0.05249 0.35546 0.0
H1248 H 0.78333 0.0881 0.35915 0.0
H1249 H 0.79402 0.01807 0.37892 0.0
H1250 H 0.7528 0.04547 0.32739 0.0
H1251 H 0.72441 0.0646 0.31395 0.0
H1252 H 0.68491 0.02429 0.34253 0.0
H1253 H 0.71307 0.00512 0.35643 0.0
C1254 C 0.7864 0.9293 0.33817 0.0
C1255 C 0.77094 0.91772 0.34549 0.0
C1256 C 0.78608 0.94996 0.34093 0.0
C1257 C 0.77033 0.95928 0.35107 0.0
C1258 C 0.7547 0.94783 0.35794 0.0
C1259 C 0.755 0.92727 0.35523 0.0
C1260 C 0.76996 0.98096 0.35484 0.0
C1261 C 0.75387 0.99223 0.34771 0.0
C1262 C 0.78483 0.99039 0.36591 0.0
C1263 C 0.80197 0.97913 0.37413 0.0
C1264 C 0.79929 0.96304 0.38731 0.0
C1265 C 0.81555 0.95232 0.39475 0.0
C1266 C 0.83455 0.95767 0.38924 0.0
C1267 C 0.83734 0.97379 0.37633 0.0
C1268 C 0.82114 0.98453 0.36883 0.0
C1269 C 0.74251 0.06953 0.38171 0.0
C1270 C 0.75519 0.08377 0.37374 0.0
C1271 C 0.74697 0.04926 0.37972 0.0
C1272 C 0.76405 0.04297 0.36954 0.0
C1273 C 0.77762 0.05712 0.36323 0.0
C1274 C 0.77322 0.07744 0.36534 0.0
C1275 C 0.76646 0.02192 0.36345 0.0
C1276 C 0.78296 0.01087 0.36996 0.0
C1277 C 0.75203 0.01264 0.35167 0.0
C1278 C 0.73505 0.02396 0.34309 0.0
C1279 C 0.73806 0.04077 0.33092 0.0
C1280 C 0.72201 0.05161 0.32321 0.0
C1281 C 0.70287 0.04568 0.32742 0.0
C1282 C 0.69974 0.02887 0.3393 0.0
C1283 C 0.71574 0.018 0.34709 0.0
H1284 H 0.69046 0.0541 0.32144 0.0
H1285 H 0.84711 0.94935 0.39501 0.0
H1286 H 0.43208 0.26407 0.86592 0.0
H1287 H 0.46663 0.27032 0.87224 0.0
H1288 H 0.4624 0.32493 0.8382 0.0
H1289 H 0.42769 0.31878 0.83158 0.0
H1290 H 0.4956 0.30225 0.82929 0.0
H1291 H 0.46422 0.32848 0.88755 0.0
H1292 H 0.441 0.32817 0.91591 0.0
H1293 H 0.47139 0.27717 0.94078 0.0
H1294 H 0.49463 0.27698 0.91242 0.0
H1295 H 0.59512 0.30586 0.85525 0.0
H1296 H 0.56175 0.32044 0.85661 0.0
H1297 H 0.54175 0.26821 0.88783 0.0
H1298 H 0.57483 0.2538 0.88668 0.0
H1299 H 0.52064 0.30109 0.89898 0.0
H1300 H 0.5435 0.26879 0.83721 0.0
H1301 H 0.56582 0.26553 0.80821 0.0
H1302 H 0.55059 0.32527 0.78984 0.0
H1303 H 0.52838 0.32895 0.81893 0.0
C1304 C 0.43846 0.27735 0.8596 0.0
C1305 C 0.42706 0.29095 0.84828 0.0
C1306 C 0.45818 0.28099 0.86341 0.0
C1307 C 0.46689 0.29832 0.85606 0.0
C1308 C 0.45582 0.3116 0.84418 0.0
C1309 C 0.43603 0.30801 0.84039 0.0
C1310 C 0.48774 0.30207 0.86051 0.0
C1311 C 0.50106 0.30263 0.84452 0.0
C1312 C 0.49479 0.30235 0.8804 0.0
C1313 C 0.48116 0.3027 0.8978 0.0
C1314 C 0.46592 0.31715 0.89903 0.0
C1315 C 0.45275 0.31706 0.9151 0.0
C1316 C 0.45471 0.30265 0.93013 0.0
C1317 C 0.4699 0.28834 0.92914 0.0
C1318 C 0.48311 0.28835 0.91309 0.0
C1319 C 0.58373 0.29789 0.86305 0.0
C1320 C 0.58736 0.27856 0.8705 0.0
C1321 C 0.5647 0.30619 0.86377 0.0
C1322 C 0.54925 0.2952 0.87196 0.0
C1323 C 0.55343 0.27691 0.88138 0.0
C1324 C 0.57233 0.26862 0.88058 0.0
C1325 C 0.52847 0.30054 0.86777 0.0
C1326 C 0.51513 0.30161 0.88378 0.0
C1327 C 0.52134 0.30149 0.84789 0.0
C1328 C 0.53452 0.29924 0.83034 0.0
C1329 C 0.54502 0.28126 0.82704 0.0
C1330 C 0.55764 0.27934 0.81059 0.0
C1331 C 0.55967 0.29521 0.79722 0.0
C1332 C 0.54904 0.31302 0.80024 0.0
C1333 C 0.53645 0.31504 0.81671 0.0
H1334 H 0.56944 0.29369 0.78449 0.0
H1335 H 0.44447 0.30257 0.94254 0.0
H1336 H 0.19423 0.90486 0.36056 0.0
H1337 H 0.18345 0.93996 0.36228 0.0
H1338 H 0.23464 0.95338 0.39734 0.0
H1339 H 0.2453 0.91853 0.3959 0.0
H1340 H 0.20315 0.97613 0.40885 0.0
H1341 H 0.23612 0.95661 0.34695 0.0
H1342 H 0.23991 0.93679 0.31609 0.0
H1343 H 0.18315 0.95754 0.29603 0.0
H1344 H 0.17892 0.97727 0.32695 0.0
H1345 H 0.23716 0.07125 0.38266 0.0
H1346 H 0.23201 0.03579 0.38844 0.0
H1347 H 0.18003 0.0385 0.35163 0.0
H1348 H 0.1851 0.07395 0.3456 0.0
H1349 H 0.20409 0.00763 0.34163 0.0
H1350 H 0.17573 0.03387 0.40114 0.0
H1351 H 0.17366 0.05417 0.43178 0.0
H1352 H 0.22255 0.02128 0.45673 0.0
H1353 H 0.22537 0.0012 0.426 0.0
C1354 C 0.20286 0.91521 0.3691 0.0
C1355 C 0.22076 0.90907 0.37783 0.0
C1356 C 0.19673 0.93524 0.37002 0.0
C1357 C 0.20844 0.9493 0.37965 0.0
C1358 C 0.22541 0.9428 0.3898 0.0
C1359 C 0.23155 0.92288 0.38885 0.0
C1360 C 0.20473 0.97099 0.37712 0.0
C1361 C 0.2033 0.98308 0.39419 0.0
C1362 C 0.20453 0.97997 0.35793 0.0
C1363 C 0.20709 0.96818 0.33935 0.0
C1364 C 0.22439 0.95681 0.33602 0.0
C1365 C 0.22663 0.94562 0.31852 0.0
C1366 C 0.21175 0.94585 0.30414 0.0
C1367 C 0.19463 0.95733 0.30721 0.0
C1368 C 0.1923 0.96851 0.32472 0.0
C1369 C 0.22461 0.06435 0.3758 0.0
C1370 C 0.21159 0.07546 0.36359 0.0
C1371 C 0.22158 0.04411 0.37927 0.0
C1372 C 0.20549 0.0346 0.37067 0.0
C1373 C 0.19247 0.04561 0.3585 0.0
C1374 C 0.19542 0.06587 0.35507 0.0
C1375 C 0.20303 0.01288 0.3734 0.0
C1376 C 0.20338 0.00077 0.35633 0.0
C1377 C 0.2024 0.00397 0.3926 0.0
C1378 C 0.20085 0.0161 0.41114 0.0
C1379 C 0.18621 0.03111 0.41305 0.0
C1380 C 0.18491 0.0426 0.43045 0.0
C1381 C 0.19806 0.0391 0.44615 0.0
C1382 C 0.21249 0.02408 0.4445 0.0
C1383 C 0.21394 0.01263 0.42709 0.0
H1384 H 0.19701 0.04798 0.45963 0.0
H1385 H 0.21351 0.93719 0.29059 0.0
H1386 H 0.55937 0.76322 0.11634 0.0
H1387 H 0.5287 0.7455 0.11352 0.0
H1388 H 0.55833 0.6906 0.13073 0.0
H1389 H 0.58934 0.70844 0.13371 0.0
H1390 H 0.51295 0.71335 0.09435 0.0
H1391 H 0.5274 0.6691 0.16408 0.0
H1392 H 0.55014 0.66705 0.19282 0.0
H1393 H 0.55578 0.73072 0.19191 0.0
H1394 H 0.53296 0.7331 0.1633 0.0
H1395 H 0.41295 0.70178 0.12995 0.0
H1396 H 0.44602 0.68764 0.12303 0.0
H1397 H 0.47167 0.73607 0.15563 0.0
H1398 H 0.43912 0.75026 0.16217 0.0
H1399 H 0.49001 0.69815 0.1631 0.0
H1400 H 0.46579 0.74189 0.10709 0.0
H1401 H 0.44208 0.74859 0.07987 0.0
H1402 H 0.45521 0.69096 0.05468 0.0
H1403 H 0.47885 0.68389 0.08192 0.0
C1404 C 0.55948 0.7473 0.11917 0.0
C1405 C 0.57663 0.73728 0.12563 0.0
C1406 C 0.54197 0.73712 0.11731 0.0
C1407 C 0.54122 0.71675 0.12201 0.0
C1408 C 0.55863 0.70633 0.12706 0.0
C1409 C 0.57627 0.71655 0.12884 0.0
C1410 C 0.52167 0.70791 0.12489 0.0
C1411 C 0.50801 0.70926 0.10922 0.0
C1412 C 0.5152 0.70244 0.14424 0.0
C1413 C 0.52872 0.70122 0.1615 0.0
C1414 C 0.53351 0.68263 0.17007 0.0
C1415 C 0.54639 0.68142 0.18631 0.0
C1416 C 0.55446 0.69874 0.19414 0.0
C1417 C 0.54958 0.71732 0.1858 0.0
C1418 C 0.53668 0.7186 0.16959 0.0
C1419 C 0.42571 0.70913 0.13587 0.0
C1420 C 0.42361 0.72717 0.14642 0.0
C1421 C 0.44449 0.70105 0.13196 0.0
C1422 C 0.4612 0.71077 0.13896 0.0
C1423 C 0.45893 0.72823 0.1503 0.0
C1424 C 0.44035 0.73643 0.15386 0.0
C1425 C 0.48128 0.70472 0.13282 0.0
C1426 C 0.49507 0.70062 0.1479 0.0
C1427 C 0.48782 0.70793 0.11303 0.0
C1428 C 0.47389 0.7123 0.09657 0.0
C1429 C 0.46354 0.73064 0.09577 0.0
C1430 C 0.45012 0.7345 0.08036 0.0
C1431 C 0.4471 0.72019 0.06558 0.0
C1432 C 0.45753 0.70201 0.06615 0.0
C1433 C 0.47093 0.69807 0.08157 0.0
H1434 H 0.4367 0.72319 0.05366 0.0
H1435 H 0.56445 0.69777 0.2067 0.0
H1436 H 0.80295 0.91341 0.65735 0.0
H1437 H 0.80075 0.94947 0.65142 0.0
H1438 H 0.75387 0.94078 0.60924 0.0
H1439 H 0.75581 0.90496 0.61502 0.0
H1440 H 0.80254 0.97443 0.61632 0.0
H1441 H 0.71794 0.97464 0.62053 0.0
H1442 H 0.69151 0.95488 0.63561 0.0
H1443 H 0.73044 0.93595 0.68275 0.0
H1444 H 0.75698 0.95583 0.66812 0.0
H1445 H 0.72572 0.06424 0.60874 0.0
H1446 H 0.7361 0.02938 0.60514 0.0
H1447 H 0.78855 0.04079 0.63911 0.0
H1448 H 0.77852 0.07587 0.64216 0.0
H1449 H 0.73848 0.0055 0.63567 0.0
H1450 H 0.82361 0.00436 0.62994 0.0
H1451 H 0.84994 0.02396 0.6145 0.0
H1452 H 0.80976 0.04539 0.56953 0.0
H1453 H 0.78327 0.02571 0.58451 0.0
C1454 C 0.7923 0.91916 0.64667 0.0
C1455 C 0.77932 0.90632 0.63694 0.0
C1456 C 0.79117 0.93972 0.64322 0.0
C1457 C 0.77702 0.94769 0.63007 0.0
C1458 C 0.76475 0.93486 0.6196 0.0
C1459 C 0.76584 0.91439 0.62303 0.0
C1460 C 0.77374 0.96946 0.62852 0.0
C1461 C 0.78865 0.98136 0.62072 0.0
C1462 C 0.75547 0.97827 0.63394 0.0
C1463 C 0.73949 0.96656 0.6431 0.0
C1464 C 0.72082 0.96632 0.63416 0.0
C1465 C 0.70583 0.95509 0.64262 0.0
C1466 C 0.70932 0.94411 0.66009 0.0
C1467 C 0.72778 0.9444 0.66918 0.0
C1468 C 0.74281 0.95563 0.66079 0.0
C1469 C 0.73969 0.05941 0.61502 0.0
C1470 C 0.75123 0.07265 0.6259 0.0
C1471 C 0.74561 0.0395 0.61296 0.0
C1472 C 0.76306 0.03245 0.62191 0.0
C1473 C 0.77517 0.04593 0.63183 0.0
C1474 C 0.76938 0.06596 0.63365 0.0
C1475 C 0.76715 0.01071 0.62308 0.0
C1476 C 0.75238 -0.00127 0.63105 0.0
C1477 C 0.78553 0.00194 0.61776 0.0
C1478 C 0.8014 0.0137 0.60849 0.0
C1479 C 0.82041 0.01319 0.61671 0.0
C1480 C 0.83536 0.02433 0.60805 0.0
C1481 C 0.8315 0.03597 0.59109 0.0
C1482 C 0.8127 0.03644 0.58272 0.0
C1483 C 0.79771 0.02532 0.59131 0.0
H1484 H 0.8431 0.04458 0.58441 0.0
H1485 H 0.6977 0.9354 0.6666 0.0
H1486 H 0.24519 0.09025 0.61608 0.0
H1487 H 0.24484 0.05417 0.61252 0.0
H1488 H 0.19027 0.05224 0.64536 0.0
H1489 H 0.19039 0.08857 0.64901 0.0
H1490 H 0.24638 0.0285 0.64415 0.0
H1491 H 0.16574 0.00943 0.62783 0.0
H1492 H 0.13652 0.02429 0.61131 0.0
H1493 H 0.17365 0.05847 0.57284 0.0
H1494 H 0.20307 0.04363 0.58894 0.0
H1495 H 0.21086 0.92178 0.6471 0.0
H1496 H 0.20117 0.95712 0.64385 0.0
H1497 H 0.25324 0.96759 0.60876 0.0
H1498 H 0.26314 0.9326 0.61223 0.0
H1499 H 0.19572 0.98656 0.6128 0.0
H1500 H 0.27637 0.00589 0.62974 0.0
H1501 H 0.30537 0.99072 0.64641 0.0
H1502 H 0.2677 0.9565 0.6843 0.0
H1503 H 0.23851 0.9717 0.66809 0.0
C1504 C 0.23299 0.08226 0.62246 0.0
C1505 C 0.21793 0.09233 0.63307 0.0
C1506 C 0.23281 0.06162 0.62035 0.0
C1507 C 0.21754 0.05058 0.62867 0.0
C1508 C 0.2021 0.06055 0.63868 0.0
C1509 C 0.20226 0.08129 0.64084 0.0
C1510 C 0.21887 0.02855 0.62826 0.0
C1511 C 0.23539 0.01938 0.63709 0.0
C1512 C 0.20416 0.01666 0.61969 0.0
C1513 C 0.18659 0.0256 0.60978 0.0
C1514 C 0.16766 0.02009 0.61582 0.0
C1515 C 0.15106 0.02851 0.60653 0.0
C1516 C 0.15323 0.04238 0.59109 0.0
C1517 C 0.172 0.04781 0.58487 0.0
C1518 C 0.18864 0.03942 0.5941 0.0
C1519 C 0.21996 0.93155 0.6383 0.0
C1520 C 0.23794 0.92461 0.63026 0.0
C1521 C 0.21438 0.95167 0.6364 0.0
C1522 C 0.2267 0.96494 0.62638 0.0
C1523 C 0.2437 0.95759 0.61679 0.0
C1524 C 0.24936 0.93762 0.61884 0.0
C1525 C 0.22349 0.98672 0.62818 0.0
C1526 C 0.20662 0.99578 0.61986 0.0
C1527 C 0.2378 -0.00135 0.63735 0.0
C1528 C 0.25527 0.9898 0.64756 0.0
C1529 C 0.27429 0.99521 0.64171 0.0
C1530 C 0.29076 0.9866 0.65107 0.0
C1531 C 0.28838 0.97261 0.66636 0.0
C1532 C 0.26953 0.96728 0.6724 0.0
C1533 C 0.25302 0.97588 0.66313 0.0
H1534 H 0.30115 0.96593 0.67356 0.0
H1535 H 0.14036 0.04888 0.58392 0.0
H1536 H 0.16118 0.30188 0.24874 0.0
H1537 H 0.17628 0.27362 0.2666 0.0
H1538 H 0.15526 0.29807 0.32264 0.0
H1539 H 0.14158 0.32707 0.30484 0.0
H1540 H 0.18888 0.28439 0.32885 0.0
H1541 H 0.13284 0.25678 0.29552 0.0
H1542 H 0.1118 0.24884 0.26672 0.0
H1543 H 0.1597 0.21625 0.23934 0.0
H1544 H 0.18108 0.22418 0.26787 0.0
H1545 H 0.18592 0.17099 0.35773 0.0
H1546 H 0.17192 0.20098 0.34206 0.0
H1547 H 0.22963 0.22647 0.33931 0.0
H1548 H 0.24356 0.19678 0.35572 0.0
H1549 H 0.17752 0.21502 0.30685 0.0
H1550 H 0.22607 0.27696 0.33962 0.0
H1551 H 0.24369 0.28454 0.37082 0.0
H1552 H 0.2042 0.24783 0.40404 0.0
H1553 H 0.1862 0.24024 0.3731 0.0
C1554 C 0.15978 0.30108 0.26487 0.0
C1555 C 0.1501 0.31639 0.2755 0.0
C1556 C 0.16831 0.28492 0.27507 0.0
C1557 C 0.16655 0.28341 0.29598 0.0
C1558 C 0.15685 0.29883 0.30654 0.0
C1559 C 0.14894 0.31532 0.29639 0.0
C1560 C 0.17485 0.26589 0.30696 0.0
C1561 C 0.18632 0.26922 0.32404 0.0
C1562 C 0.17145 0.24604 0.30087 0.0
C1563 C 0.15859 0.24123 0.28373 0.0
C1564 C 0.1389 0.24802 0.2833 0.0
C1565 C 0.12692 0.24351 0.26703 0.0
C1566 C 0.13442 0.23209 0.25119 0.0
C1567 C 0.15391 0.22511 0.2516 0.0
C1568 C 0.16596 0.22959 0.26782 0.0
C1569 C 0.19556 0.18312 0.35402 0.0
C1570 C 0.21578 0.18165 0.35799 0.0
C1571 C 0.18757 0.2002 0.345 0.0
C1572 C 0.1997 0.21602 0.33958 0.0
C1573 C 0.21992 0.21463 0.34369 0.0
C1574 C 0.22787 0.19765 0.35302 0.0
C1575 C 0.19122 0.23354 0.32888 0.0
C1576 C 0.17994 0.2302 0.31171 0.0
C1577 C 0.19426 0.25333 0.33528 0.0
C1578 C 0.20493 0.25786 0.35399 0.0
C1579 C 0.22112 0.27055 0.35359 0.0
C1580 C 0.23118 0.27484 0.37123 0.0
C1581 C 0.22511 0.26662 0.38939 0.0
C1582 C 0.20894 0.25412 0.38995 0.0
C1583 C 0.19882 0.2498 0.37237 0.0
H1584 H 0.23292 0.26996 0.40302 0.0
H1585 H 0.12512 0.22862 0.23861 0.0
H1586 H 0.27096 0.73166 0.85234 0.0
H1587 H 0.24988 0.70626 0.83835 0.0
H1588 H 0.30073 0.6687 0.82621 0.0
H1589 H 0.32202 0.69404 0.84026 0.0
H1590 H 0.27796 0.67581 0.79321 0.0
H1591 H 0.26861 0.65246 0.85908 0.0
H1592 H 0.26219 0.65458 0.89531 0.0
H1593 H 0.20443 0.67893 0.88389 0.0
H1594 H 0.2106 0.67727 0.84757 0.0
H1595 H 0.20848 0.6212 0.73985 0.0
H1596 H 0.2341 0.6265 0.76483 0.0
H1597 H 0.19495 0.66679 0.79679 0.0
H1598 H 0.16893 0.66022 0.77272 0.0
H1599 H 0.21681 0.64912 0.82251 0.0
H1600 H 0.23209 0.68357 0.75913 0.0
H1601 H 0.23811 0.68393 0.72268 0.0
H1602 H 0.28509 0.64076 0.73005 0.0
H1603 H 0.27898 0.64001 0.7665 0.0
C1604 C 0.27767 0.71789 0.84696 0.0
C1605 C 0.29818 0.71496 0.84724 0.0
C1606 C 0.26558 0.7033 0.83915 0.0
C1607 C 0.27376 0.68555 0.83142 0.0
C1608 C 0.29416 0.68226 0.83225 0.0
C1609 C 0.30627 0.69678 0.84026 0.0
C1610 C 0.26116 0.67182 0.82021 0.0
C1611 C 0.26486 0.66947 0.79972 0.0
C1612 C 0.24399 0.66382 0.8287 0.0
C1613 C 0.24012 0.66481 0.85055 0.0
C1614 C 0.25458 0.65841 0.86428 0.0
C1615 C 0.25098 0.6595 0.88484 0.0
C1616 C 0.23292 0.6669 0.8919 0.0
C1617 C 0.21841 0.67319 0.8784 0.0
C1618 C 0.22194 0.67214 0.85781 0.0
C1619 C 0.20531 0.63084 0.75248 0.0
C1620 C 0.18688 0.64044 0.75438 0.0
C1621 C 0.21997 0.63399 0.76665 0.0
C1622 C 0.21671 0.64754 0.78239 0.0
C1623 C 0.19789 0.65628 0.78481 0.0
C1624 C 0.18303 0.65259 0.77103 0.0
C1625 C 0.2331 0.65406 0.79531 0.0
C1626 C 0.23017 0.65498 0.81611 0.0
C1627 C 0.25097 0.66097 0.78713 0.0
C1628 C 0.25481 0.66149 0.76535 0.0
C1629 C 0.2435 0.67403 0.75286 0.0
C1630 C 0.24697 0.67433 0.73225 0.0
C1631 C 0.26192 0.66229 0.72403 0.0
C1632 C 0.27347 0.65001 0.73643 0.0
C1633 C 0.27 0.64965 0.75705 0.0
H1634 H 0.26461 0.66252 0.70807 0.0
H1635 H 0.23016 0.66774 0.90783 0.0
H1636 H 0.83345 0.65833 0.29475 0.0
H1637 H 0.8208 0.68726 0.3133 0.0
H1638 H 0.85663 0.72594 0.27751 0.0
H1639 H 0.86914 0.69711 0.25862 0.0
H1640 H 0.85641 0.73403 0.32001 0.0
H1641 H 0.81264 0.72365 0.26471 0.0
H1642 H 0.79105 0.70371 0.24335 0.0
H1643 H 0.75328 0.69277 0.29354 0.0
H1644 H 0.77486 0.71232 0.3153 0.0
H1645 H 0.80838 0.82771 0.33558 0.0
H1646 H 0.82414 0.79759 0.32202 0.0
H1647 H 0.7815 0.76146 0.35228 0.0
H1648 H 0.76546 0.79156 0.36566 0.0
H1649 H 0.78538 0.7512 0.3136 0.0
H1650 H 0.82852 0.76267 0.36874 0.0
H1651 H 0.85052 0.78202 0.39019 0.0
H1652 H 0.88955 0.79079 0.34053 0.0
H1653 H 0.86763 0.77173 0.3187 0.0
C1654 C 0.83875 0.67297 0.29093 0.0
C1655 C 0.85213 0.67555 0.27516 0.0
C1656 C 0.83152 0.68943 0.30152 0.0
C1657 C 0.83773 0.70862 0.2966 0.0
C1658 C 0.85171 0.71117 0.28144 0.0
C1659 C 0.85875 0.69474 0.27066 0.0
C1660 C 0.82891 0.72614 0.30663 0.0
C1661 C 0.84093 0.73797 0.31851 0.0
C1662 C 0.80866 0.73084 0.30484 0.0
C1663 C 0.79552 0.71926 0.29171 0.0
C1664 C 0.79984 0.71683 0.27125 0.0
C1665 C 0.78759 0.70562 0.25905 0.0
C1666 C 0.77084 0.69692 0.26711 0.0
C1667 C 0.76628 0.69948 0.28734 0.0
C1668 C 0.77852 0.71063 0.29961 0.0
C1669 C 0.80247 0.81334 0.3395 0.0
C1670 C 0.78567 0.81195 0.3516 0.0
C1671 C 0.81154 0.79616 0.33181 0.0
C1672 C 0.80403 0.77732 0.33627 0.0
C1673 C 0.78748 0.77588 0.34868 0.0
C1674 C 0.77838 0.79307 0.35634 0.0
C1675 C 0.81286 0.75922 0.32712 0.0
C1676 C 0.80084 0.74726 0.31529 0.0
C1677 C 0.83313 0.75442 0.32895 0.0
C1678 C 0.84633 0.76592 0.34204 0.0
C1679 C 0.8417 0.76887 0.36235 0.0
C1680 C 0.85418 0.77976 0.37459 0.0
C1681 C 0.87139 0.78767 0.36672 0.0
C1682 C 0.87619 0.78467 0.3466 0.0
C1683 C 0.86376 0.77381 0.33429 0.0
H1684 H 0.88104 0.79609 0.37622 0.0
H1685 H 0.76138 0.68823 0.25767 0.0
H1686 H 0.79595 0.31348 0.70801 0.0
H1687 H 0.76858 0.30156 0.7279 0.0
H1688 H 0.79396 0.32688 0.78095 0.0
H1689 H 0.82188 0.33836 0.76117 0.0
H1690 H 0.78166 0.29107 0.7888 0.0
H1691 H 0.75307 0.34862 0.75756 0.0
H1692 H 0.74426 0.37132 0.72979 0.0
H1693 H 0.71073 0.32529 0.70236 0.0
H1694 H 0.71956 0.30221 0.72984 0.0
H1695 H 0.6927 0.2783 0.84536 0.0
H1696 H 0.71876 0.29559 0.82707 0.0
H1697 H 0.708 0.25932 0.77518 0.0
H1698 H 0.68226 0.24177 0.79356 0.0
H1699 H 0.71226 0.3031 0.76856 0.0
H1700 H 0.74396 0.2452 0.79924 0.0
H1701 H 0.7524 0.22338 0.82784 0.0
H1702 H 0.77961 0.27235 0.85749 0.0
H1703 H 0.77106 0.29453 0.82916 0.0
C1704 C 0.79566 0.31672 0.72388 0.0
C1705 C 0.81105 0.327 0.73299 0.0
C1706 C 0.77993 0.30994 0.73523 0.0
C1707 C 0.77901 0.31365 0.75586 0.0
C1708 C 0.79433 0.32393 0.76503 0.0
C1709 C 0.81024 0.33051 0.75371 0.0
C1710 C 0.76235 0.30617 0.76789 0.0
C1711 C 0.7665 0.29405 0.78457 0.0
C1712 C 0.74253 0.30978 0.76223 0.0
C1713 C 0.73711 0.32364 0.7457 0.0
C1714 C 0.74393 0.34329 0.74554 0.0
C1715 C 0.73892 0.35624 0.72986 0.0
C1716 C 0.72698 0.34974 0.7143 0.0
C1717 C 0.71999 0.33029 0.71442 0.0
C1718 C 0.72497 0.31728 0.73006 0.0
C1719 C 0.69587 0.27418 0.83001 0.0
C1720 C 0.68581 0.25862 0.82084 0.0
C1721 C 0.71071 0.28399 0.81964 0.0
C1722 C 0.71529 0.27859 0.79987 0.0
C1723 C 0.70466 0.26361 0.79045 0.0
C1724 C 0.69013 0.25355 0.80095 0.0
C1725 C 0.7317 0.28803 0.78922 0.0
C1726 C 0.72747 0.30042 0.77283 0.0
C1727 C 0.7514 0.28489 0.79526 0.0
C1728 C 0.75665 0.27156 0.81222 0.0
C1729 C 0.75156 0.25135 0.81195 0.0
C1730 C 0.75641 0.23891 0.82808 0.0
C1731 C 0.76647 0.24649 0.8445 0.0
C1732 C 0.77178 0.26651 0.84478 0.0
C1733 C 0.76695 0.27902 0.82869 0.0
H1734 H 0.77021 0.23684 0.85698 0.0
H1735 H 0.72312 0.35978 0.70218 0.0
H1736 H 0.26443 0.79809 0.68292 0.0
H1737 H 0.24185 0.77294 0.69479 0.0
H1738 H 0.19262 0.81248 0.68214 0.0
H1739 H 0.2151 0.83781 0.67 0.0
H1740 H 0.21254 0.76998 0.72303 0.0
H1741 H 0.15804 0.78401 0.65894 0.0
H1742 H 0.15709 0.79924 0.6253 0.0
H1743 H 0.21853 0.78543 0.61735 0.0
H1744 H 0.21975 0.76988 0.65081 0.0
H1745 H 0.1323 0.70556 0.73576 0.0
H1746 H 0.15009 0.73597 0.72843 0.0
H1747 H 0.17923 0.70658 0.67889 0.0
H1748 H 0.1612 0.67611 0.68595 0.0
H1749 H 0.1683 0.74512 0.67007 0.0
H1750 H 0.19917 0.70854 0.72382 0.0
H1751 H 0.19875 0.69226 0.75681 0.0
H1752 H 0.18783 0.74881 0.78509 0.0
H1753 H 0.18673 0.76532 0.7521 0.0
C1754 C 0.24882 0.8016 0.68286 0.0
C1755 C 0.24154 0.81983 0.67511 0.0
C1756 C 0.23595 0.78724 0.68982 0.0
C1757 C 0.2156 0.79077 0.68903 0.0
C1758 C 0.20831 0.80944 0.68262 0.0
C1759 C 0.22118 0.82388 0.6757 0.0
C1760 C 0.20217 0.77416 0.69288 0.0
C1761 C 0.20272 0.76462 0.71156 0.0
C1762 C 0.18963 0.76705 0.67774 0.0
C1763 C 0.18901 0.77601 0.65745 0.0
C1764 C 0.17131 0.78417 0.64997 0.0
C1765 C 0.17073 0.79286 0.63094 0.0
C1766 C 0.18775 0.79337 0.61922 0.0
C1767 C 0.20537 0.7851 0.62647 0.0
C1768 C 0.20602 0.77636 0.64547 0.0
C1769 C 0.14235 0.70563 0.72316 0.0
C1770 C 0.14553 0.68844 0.7115 0.0
C1771 C 0.15248 0.723 0.71902 0.0
C1772 C 0.16613 0.72339 0.70331 0.0
C1773 C 0.16874 0.70652 0.69111 0.0
C1774 C 0.1585 0.68913 0.69518 0.0
C1775 C 0.17853 0.74096 0.70027 0.0
C1776 C 0.17787 0.75063 0.68169 0.0
C1777 C 0.19111 0.748 0.71547 0.0
C1778 C 0.1926 0.73816 0.73539 0.0
C1779 C 0.19646 0.71752 0.73702 0.0
C1780 C 0.19648 0.70823 0.75575 0.0
C1781 C 0.19345 0.71949 0.77306 0.0
C1782 C 0.19019 0.74009 0.77166 0.0
C1783 C 0.1897 0.74941 0.75293 0.0
H1784 H 0.19358 0.71226 0.78755 0.0
H1785 H 0.18728 0.80013 0.60451 0.0
H1786 H 0.6645 0.73136 0.16688 0.0
H1787 H 0.69232 0.71222 0.18076 0.0
H1788 H 0.73165 0.75875 0.16334 0.0
H1789 H 0.70384 0.77837 0.15 0.0
H1790 H 0.74127 0.71507 0.15133 0.0
H1791 H 0.72944 0.7591 0.20653 0.0
H1792 H 0.71289 0.7769 0.23431 0.0
H1793 H 0.69505 0.72113 0.25941 0.0
H1794 H 0.7114 0.703 0.23173 0.0
H1795 H 0.82455 0.67272 0.2055 0.0
H1796 H 0.80016 0.6939 0.1881 0.0
H1797 H 0.75358 0.66464 0.21994 0.0
H1798 H 0.77781 0.64413 0.23775 0.0
H1799 H 0.74991 0.70298 0.22397 0.0
H1800 H 0.76282 0.65883 0.1679 0.0
H1801 H 0.78374 0.64198 0.14265 0.0
H1802 H 0.80146 0.69875 0.11981 0.0
H1803 H 0.78082 0.71594 0.14509 0.0
C1804 C 0.67905 0.73755 0.16598 0.0
C1805 C 0.68194 0.75639 0.15734 0.0
C1806 C 0.69489 0.72664 0.17402 0.0
C1807 C 0.71394 0.73417 0.17312 0.0
C1808 C 0.717 0.75279 0.16423 0.0
C1809 C 0.70109 0.76394 0.15662 0.0
C1810 C 0.73068 0.72214 0.18089 0.0
C1811 C 0.74337 0.71255 0.16722 0.0
C1812 C 0.73319 0.7188 0.20158 0.0
C1813 C 0.72146 0.72971 0.21692 0.0
C1814 C 0.72166 0.75065 0.21775 0.0
C1815 C 0.71252 0.76078 0.23361 0.0
C1816 C 0.7031 0.75013 0.2487 0.0
C1817 C 0.70248 0.72935 0.24778 0.0
C1818 C 0.71166 0.71914 0.23201 0.0
C1819 C 0.80907 0.67054 0.20837 0.0
C1820 C 0.80303 0.65686 0.22298 0.0
C1821 C 0.79515 0.68262 0.19844 0.0
C1822 C 0.77501 0.68087 0.20271 0.0
C1823 C 0.76902 0.66637 0.21648 0.0
C1824 C 0.78287 0.65461 0.2266 0.0
C1825 C 0.76016 0.69515 0.19445 0.0
C1826 C 0.74784 0.70533 0.20805 0.0
C1827 C 0.75807 0.69901 0.17373 0.0
C1828 C 0.77044 0.68866 0.15852 0.0
C1829 C 0.7713 0.66771 0.1576 0.0
C1830 C 0.78308 0.6581 0.14326 0.0
C1831 C 0.79396 0.66928 0.12967 0.0
C1832 C 0.79304 0.69011 0.13036 0.0
C1833 C 0.7813 0.69979 0.14468 0.0
H1834 H 0.80307 0.66182 0.11858 0.0
H1835 H 0.69621 0.75797 0.26107 0.0
H1836 H 0.73547 0.20409 0.66184 0.0
H1837 H 0.76257 0.22636 0.66855 0.0
H1838 H 0.8002 0.1759 0.68298 0.0
H1839 H 0.77322 0.15326 0.67581 0.0
H1840 H 0.7978 0.21572 0.71024 0.0
H1841 H 0.81159 0.18795 0.64437 0.0
H1842 H 0.80178 0.17838 0.61027 0.0
H1843 H 0.78479 0.23909 0.59751 0.0
H1844 H 0.79421 0.24896 0.63166 0.0
H1845 H 0.87949 0.27626 0.71523 0.0
H1846 H 0.8609 0.24691 0.70615 0.0
H1847 H 0.8262 0.28259 0.66501 0.0
H1848 H 0.84561 0.3117 0.67312 0.0
H1849 H 0.8295 0.24662 0.65115 0.0
H1850 H 0.81225 0.27491 0.71521 0.0
H1851 H 0.81787 0.28623 0.74981 0.0
H1852 H 0.83725 0.22727 0.76654 0.0
H1853 H 0.83202 0.21561 0.73201 0.0
C1854 C 0.74937 0.19768 0.6668 0.0
C1855 C 0.75224 0.1769 0.66823 0.0
C1856 C 0.76484 0.21043 0.67049 0.0
C1857 C 0.7833 0.20265 0.67598 0.0
C1858 C 0.78599 0.18205 0.67862 0.0
C1859 C 0.7706 0.1692 0.67455 0.0
C1860 C 0.79986 0.21621 0.67817 0.0
C1861 C 0.80513 0.22218 0.6974 0.0
C1862 C 0.80876 0.22498 0.66129 0.0
C1863 C 0.80341 0.21915 0.64064 0.0
C1864 C 0.80559 0.19922 0.63435 0.0
C1865 C 0.80014 0.19375 0.615 0.0
C1866 C 0.7926 0.20811 0.60175 0.0
C1867 C 0.7906 0.22798 0.6078 0.0
C1868 C 0.79601 0.23353 0.62714 0.0
C1869 C 0.86824 0.27771 0.70385 0.0
C1870 C 0.8636 0.29635 0.69527 0.0
C1871 C 0.85754 0.26097 0.69879 0.0
C1872 C 0.84167 0.26274 0.6855 0.0
C1873 C 0.83821 0.28094 0.67553 0.0
C1874 C 0.84927 0.2976 0.68023 0.0
C1875 C 0.82764 0.24628 0.68336 0.0
C1876 C 0.82261 0.23989 0.66409 0.0
C1877 C 0.81865 0.23738 0.70025 0.0
C1878 C 0.82196 0.24444 0.72097 0.0
C1879 C 0.81785 0.2644 0.72623 0.0
C1880 C 0.82093 0.27087 0.74582 0.0
C1881 C 0.82793 0.25751 0.76032 0.0
C1882 C 0.83186 0.23762 0.75528 0.0
C1883 C 0.82885 0.23106 0.7357 0.0
H1884 H 0.83027 0.26256 0.77548 0.0
H1885 H 0.78835 0.20384 0.58679 0.0
H1886 H 0.22008 0.35391 0.24232 0.0
H1887 H 0.24345 0.33744 0.21947 0.0
H1888 H 0.19556 0.31972 0.18179 0.0
H1889 H 0.17212 0.33646 0.20427 0.0
H1890 H 0.22207 0.28796 0.19645 0.0
H1891 H 0.22277 0.35103 0.16251 0.0
H1892 H 0.22581 0.38752 0.15999 0.0
H1893 H 0.28495 0.38303 0.18207 0.0
H1894 H 0.28217 0.34652 0.18501 0.0
H1895 H 0.28632 0.23611 0.1312 0.0
H1896 H 0.26012 0.25907 0.14234 0.0
H1897 H 0.303 0.2948 0.17245 0.0
H1898 H 0.32924 0.27255 0.16047 0.0
H1899 H 0.27634 0.31834 0.15805 0.0
H1900 H 0.27508 0.25763 0.19709 0.0
H1901 H 0.27354 0.22115 0.20129 0.0
H1902 H 0.21704 0.22124 0.17281 0.0
H1903 H 0.21833 0.25773 0.16827 0.0
C1904 C 0.21456 0.34683 0.22897 0.0
C1905 C 0.19428 0.34647 0.22509 0.0
C1906 C 0.22791 0.33749 0.21593 0.0
C1907 C 0.22115 0.32743 0.199 0.0
C1908 C 0.201 0.3275 0.19477 0.0
C1909 C 0.18767 0.33715 0.20759 0.0
C1910 C 0.23501 0.31537 0.18676 0.0
C1911 C 0.23373 0.29457 0.18771 0.0
C1912 C 0.25046 0.32409 0.1759 0.0
C1913 C 0.25219 0.34604 0.17415 0.0
C1914 C 0.23636 0.35784 0.16701 0.0
C1915 C 0.23805 0.37852 0.16547 0.0
C1916 C 0.25554 0.38759 0.17091 0.0
C1917 C 0.2714 0.37598 0.17788 0.0
C1918 C 0.26978 0.35529 0.17946 0.0
C1919 C 0.29014 0.24902 0.13998 0.0
C1920 C 0.30978 0.25246 0.14511 0.0
C1921 C 0.27517 0.26208 0.14641 0.0
C1922 C 0.27953 0.27842 0.15865 0.0
C1923 C 0.29924 0.2823 0.16306 0.0
C1924 C 0.31423 0.26953 0.15624 0.0
C1925 C 0.26363 0.2908 0.16792 0.0
C1926 C 0.26455 0.31168 0.16653 0.0
C1927 C 0.24803 0.28216 0.17877 0.0
C1928 C 0.24692 0.26034 0.18211 0.0
C1929 C 0.26236 0.24985 0.19168 0.0
C1930 C 0.26153 0.22917 0.19411 0.0
C1931 C 0.24528 0.21887 0.18718 0.0
C1932 C 0.22967 0.22924 0.17808 0.0
C1933 C 0.23042 0.24992 0.17559 0.0
H1934 H 0.24477 0.20284 0.18884 0.0
H1935 H 0.25683 0.40361 0.1697 0.0
H1936 H 0.3658 0.22096 0.20493 0.0
H1937 H 0.34664 0.2062 0.23206 0.0
H1938 H 0.31686 0.1694 0.18943 0.0
H1939 H 0.3363 0.18371 0.16226 0.0
H1940 H 0.29209 0.19363 0.21756 0.0
H1941 H 0.34743 0.14672 0.21617 0.0
H1942 H 0.38276 0.13781 0.21713 0.0
H1943 H 0.38755 0.16482 0.27505 0.0
H1944 H 0.35229 0.17414 0.2743 0.0
H1945 H 0.23681 0.13654 0.28405 0.0
H1946 H 0.25867 0.14687 0.25711 0.0
H1947 H 0.3008 0.16652 0.30066 0.0
H1948 H 0.27938 0.15519 0.32765 0.0
H1949 H 0.31989 0.15111 0.27177 0.0
H1950 H 0.26838 0.20006 0.27497 0.0
H1951 H 0.23425 0.21316 0.2761 0.0
H1952 H 0.22332 0.18832 0.21816 0.0
H1953 H 0.25738 0.17498 0.21672 0.0
C1954 C 0.35533 0.20956 0.20137 0.0
C1955 C 0.35253 0.20348 0.18149 0.0
C1956 C 0.34443 0.20116 0.21686 0.0
C1957 C 0.33038 0.18675 0.21268 0.0
C1958 C 0.32766 0.18052 0.19289 0.0
C1959 C 0.33882 0.18865 0.17743 0.0
C1960 C 0.31804 0.17874 0.22891 0.0
C1961 C 0.29803 0.1841 0.22928 0.0
C1962 C 0.3261 0.16704 0.24458 0.0
C1963 C 0.34726 0.16129 0.24509 0.0
C1964 C 0.35605 0.15091 0.22903 0.0
C1965 C 0.37606 0.14575 0.22956 0.0
C1966 C 0.38741 0.15079 0.24612 0.0
C1967 C 0.37875 0.16094 0.26222 0.0
C1968 C 0.35876 0.16615 0.26176 0.0
C1969 C 0.25083 0.14289 0.28785 0.0
C1970 C 0.25639 0.14513 0.30792 0.0
C1971 C 0.26326 0.14894 0.27245 0.0
C1972 C 0.2812 0.15797 0.27681 0.0
C1973 C 0.28702 0.15966 0.29688 0.0
C1974 C 0.27479 0.15317 0.3123 0.0
C1975 C 0.29371 0.16587 0.26047 0.0
C1976 C 0.3138 0.1606 0.26008 0.0
C1977 C 0.28585 0.17827 0.24511 0.0
C1978 C 0.26538 0.18636 0.24582 0.0
C1979 C 0.25867 0.1973 0.26251 0.0
C1980 C 0.23935 0.20481 0.26319 0.0
C1981 C 0.22662 0.20156 0.24721 0.0
C1982 C 0.2332 0.19082 0.23051 0.0
C1983 C 0.25253 0.18333 0.22974 0.0
H1984 H 0.21167 0.20737 0.24775 0.0
H1985 H 0.40289 0.14678 0.2465 0.0
H1986 H 0.35653 0.75351 0.79653 0.0
H1987 H 0.34819 0.77516 0.76813 0.0
H1988 H 0.32299 0.81885 0.80853 0.0
H1989 H 0.33098 0.7972 0.8369 0.0
H1990 H 0.29923 0.81222 0.77782 0.0
H1991 H 0.36776 0.82582 0.78642 0.0
H1992 H 0.40307 0.81735 0.78945 0.0
H1993 H 0.4029 0.7915 0.73075 0.0
H1994 H 0.36751 0.79957 0.72748 0.0
H1995 H 0.28191 0.88733 0.70727 0.0
H1996 H 0.29663 0.87056 0.73621 0.0
H1997 H 0.32527 0.82781 0.6971 0.0
H1998 H 0.31152 0.84518 0.66809 0.0
H1999 H 0.34792 0.83462 0.72764 0.0
H2000 H 0.27896 0.81925 0.71988 0.0
H2001 H 0.24336 0.82688 0.71742 0.0
H2002 H 0.24433 0.85546 0.7747 0.0
H2003 H 0.2799 0.84815 0.77755 0.0
C2004 C 0.34922 0.76774 0.79933 0.0
C2005 C 0.34438 0.77369 0.8189 0.0
C2006 C 0.3446 0.78014 0.78312 0.0
C2007 C 0.3352 0.7987 0.78627 0.0
C2008 C 0.3303 0.8046 0.8058 0.0
C2009 C 0.33486 0.79221 0.82198 0.0
C2010 C 0.32974 0.81171 0.76919 0.0
C2011 C 0.30992 0.81737 0.767 0.0
C2012 C 0.34365 0.81798 0.75485 0.0
C2013 C 0.36493 0.81313 0.75679 0.0
C2014 C 0.37521 0.81818 0.77422 0.0
C2015 C 0.39525 0.81348 0.77597 0.0
C2016 C 0.40521 0.80385 0.76032 0.0
C2017 C 0.39516 0.79894 0.74287 0.0
C2018 C 0.37511 0.80359 0.74105 0.0
C2019 C 0.2917 0.87462 0.70483 0.0
C2020 C 0.29518 0.86725 0.68546 0.0
C2021 C 0.29997 0.86495 0.72137 0.0
C2022 C 0.31145 0.8475 0.71884 0.0
C2023 C 0.31623 0.84109 0.69943 0.0
C2024 C 0.30829 0.851 0.68284 0.0
C2025 C 0.31739 0.8352 0.73631 0.0
C2026 C 0.33725 0.82957 0.73852 0.0
C2027 C 0.3035 0.82885 0.75068 0.0
C2028 C 0.28213 0.83332 0.74884 0.0
C2029 C 0.27161 0.82728 0.73189 0.0
C2030 C 0.25145 0.83152 0.73043 0.0
C2031 C 0.24164 0.84169 0.74582 0.0
C2032 C 0.25195 0.84761 0.76277 0.0
C2033 C 0.27209 0.8434 0.76433 0.0
H2034 H 0.22604 0.84494 0.74463 0.0
H2035 H 0.42072 0.80023 0.7617 0.0
H2036 H 0.74839 0.84531 0.27687 0.0
H2037 H 0.72167 0.83735 0.25405 0.0
H2038 H 0.68443 0.82339 0.3042 0.0
H2039 H 0.711 0.83163 0.32728 0.0
H2040 H 0.68563 0.79481 0.26935 0.0
H2041 H 0.67449 0.86401 0.28644 0.0
H2042 H 0.68499 0.89865 0.2912 0.0
H2043 H 0.70138 0.90214 0.22925 0.0
H2044 H 0.69126 0.86739 0.2242 0.0
H2045 H 0.60803 0.78234 0.20342 0.0
H2046 H 0.62353 0.79621 0.23313 0.0
H2047 H 0.6618 0.83052 0.19536 0.0
H2048 H 0.64533 0.81795 0.16583 0.0
H2049 H 0.65644 0.84959 0.22828 0.0
H2050 H 0.67224 0.78101 0.2111 0.0
H2051 H 0.66455 0.74581 0.2049 0.0
H2052 H 0.64274 0.7401 0.26486 0.0
H2053 H 0.64994 0.77542 0.27136 0.0
C2054 C 0.73458 0.84041 0.28307 0.0
C2055 C 0.73173 0.83923 0.30387 0.0
C2056 C 0.71935 0.83593 0.27003 0.0
C2057 C 0.70114 0.82998 0.27755 0.0
C2058 C 0.69842 0.82805 0.29822 0.0
C2059 C 0.71356 0.83283 0.31133 0.0
C2060 C 0.68483 0.82639 0.26365 0.0
C2061 C 0.67889 0.80677 0.26063 0.0
C2062 C 0.6765 0.84204 0.25209 0.0
C2063 C 0.68223 0.86306 0.25498 0.0
C2064 C 0.68045 0.87212 0.27387 0.0
C2065 C 0.68632 0.89178 0.27661 0.0
C2066 C 0.69388 0.90258 0.26055 0.0
C2067 C 0.69552 0.89375 0.24168 0.0
C2068 C 0.6897 0.87409 0.23886 0.0
C2069 C 0.61935 0.79331 0.20153 0.0
C2070 C 0.62589 0.79867 0.18237 0.0
C2071 C 0.62825 0.80115 0.21848 0.0
C2072 C 0.64434 0.81378 0.21644 0.0
C2073 C 0.64958 0.8206 0.19732 0.0
C2074 C 0.64024 0.81328 0.18041 0.0
C2075 C 0.65731 0.81787 0.23364 0.0
C2076 C 0.66277 0.8376 0.23725 0.0
C2077 C 0.6655 0.80222 0.2455 0.0
C2078 C 0.6614 0.78093 0.24165 0.0
C2079 C 0.66562 0.77231 0.22291 0.0
C2080 C 0.66135 0.75234 0.21933 0.0
C2081 C 0.65307 0.74076 0.23442 0.0
C2082 C 0.64908 0.74911 0.25316 0.0
C2083 C 0.65324 0.76911 0.2568 0.0
H2084 H 0.64986 0.72527 0.23163 0.0
H2085 H 0.69843 0.91779 0.26271 0.0
H2086 H 0.71135 0.11145 0.70474 0.0
H2087 H 0.693 0.1253 0.73314 0.0
H2088 H 0.65565 0.15888 0.69265 0.0
H2089 H 0.67365 0.14484 0.66421 0.0
H2090 H 0.69247 0.16406 0.74173 0.0
H2091 H 0.61141 0.1687 0.71513 0.0
H2092 H 0.58849 0.14922 0.69482 0.0
H2093 H 0.62151 0.09555 0.70798 0.0
H2094 H 0.64447 0.11465 0.72859 0.0
H2095 H 0.63694 0.24059 0.78993 0.0
H2096 H 0.64692 0.21858 0.76228 0.0
H2097 H 0.63222 0.16718 0.79775 0.0
H2098 H 0.62288 0.18907 0.82569 0.0
H2099 H 0.62043 0.16799 0.75345 0.0
H2100 H 0.67407 0.17372 0.80023 0.0
H2101 H 0.69782 0.19136 0.8212 0.0
H2102 H 0.72053 0.22082 0.76925 0.0
H2103 H 0.69656 0.20368 0.74799 0.0
C2104 C 0.69895 0.12144 0.70188 0.0
C2105 C 0.69405 0.12726 0.68231 0.0
C2106 C 0.68852 0.12935 0.7181 0.0
C2107 C 0.67301 0.1431 0.71496 0.0
C2108 C 0.66743 0.14811 0.69538 0.0
C2109 C 0.67781 0.14016 0.67915 0.0
C2110 C 0.66416 0.15391 0.73206 0.0
C2111 C 0.67672 0.16478 0.74435 0.0
C2112 C 0.64363 0.15484 0.73543 0.0
C2113 C 0.62975 0.14315 0.72327 0.0
C2114 C 0.61373 0.15273 0.71377 0.0
C2115 C 0.60074 0.14176 0.70219 0.0
C2116 C 0.60357 0.12117 0.70007 0.0
C2117 C 0.61937 0.11151 0.70957 0.0
C2118 C 0.6324 0.12241 0.72118 0.0
C2119 C 0.63541 0.22463 0.7916 0.0
C2120 C 0.62916 0.2164 0.80979 0.0
C2121 C 0.64116 0.21213 0.7759 0.0
C2122 C 0.64027 0.19137 0.77815 0.0
C2123 C 0.63288 0.1832 0.79585 0.0
C2124 C 0.62762 0.19566 0.81172 0.0
C2125 C 0.64876 0.17817 0.76275 0.0
C2126 C 0.63616 0.16706 0.75079 0.0
C2127 C 0.66929 0.17682 0.75975 0.0
C2128 C 0.68332 0.18762 0.77256 0.0
C2129 C 0.6839 0.1842 0.79331 0.0
C2130 C 0.69747 0.19403 0.80524 0.0
C2131 C 0.71068 0.20719 0.79656 0.0
C2132 C 0.7103 0.21059 0.77594 0.0
C2133 C 0.6967 0.20086 0.76395 0.0
H2134 H 0.72116 0.21478 0.80583 0.0
H2135 H 0.59351 0.11271 0.69108 0.0
H2136 H 0.76406 0.77965 0.63979 0.0
H2137 H 0.77576 0.75192 0.66064 0.0
H2138 H 0.82249 0.7882 0.68297 0.0
H2139 H 0.811 0.81596 0.66197 0.0
H2140 H 0.83551 0.75095 0.67512 0.0
H2141 H 0.78182 0.78181 0.71011 0.0
H2142 H 0.74819 0.79501 0.71545 0.0
H2143 H 0.72505 0.73677 0.70584 0.0
H2144 H 0.75859 0.7232 0.70018 0.0
H2145 H 0.85013 0.6995 0.76987 0.0
H2146 H 0.83934 0.72527 0.74598 0.0
H2147 H 0.81309 0.68038 0.70918 0.0
H2148 H 0.82433 0.65441 0.73265 0.0
H2149 H 0.78978 0.72117 0.72425 0.0
H2150 H 0.84532 0.69152 0.68737 0.0
H2151 H 0.87978 0.67958 0.68502 0.0
H2152 H 0.89965 0.73767 0.70138 0.0
H2153 H 0.86525 0.74984 0.70414 0.0
C2154 C 0.77695 0.78166 0.64898 0.0
C2155 C 0.78658 0.79999 0.64935 0.0
C2156 C 0.78354 0.76584 0.66096 0.0
C2157 C 0.7998 0.76814 0.67355 0.0
C2158 C 0.80987 0.78618 0.67339 0.0
C2159 C 0.80328 0.80202 0.66142 0.0
C2160 C 0.80607 0.75185 0.68718 0.0
C2161 C 0.8255 0.74452 0.6859 0.0
C2162 C 0.79297 0.7434 0.7012 0.0
C2163 C 0.77273 0.75154 0.70441 0.0
C2164 C 0.76956 0.77185 0.70889 0.0
C2165 C 0.7505 0.7794 0.71203 0.0
C2166 C 0.73446 0.76678 0.71087 0.0
C2167 C 0.73748 0.74655 0.70666 0.0
C2168 C 0.75652 0.73891 0.70349 0.0
C2169 C 0.84212 0.69513 0.75665 0.0
C2170 C 0.83814 0.67499 0.75301 0.0
C2171 C 0.83602 0.70982 0.74306 0.0
C2172 C 0.82555 0.70458 0.72591 0.0
C2173 C 0.82128 0.68456 0.72235 0.0
C2174 C 0.82776 0.66981 0.73569 0.0
C2175 C 0.81895 0.72015 0.71179 0.0
C2176 C 0.79957 0.72746 0.71319 0.0
C2177 C 0.83209 0.72873 0.69805 0.0
C2178 C 0.85274 0.7215 0.69622 0.0
C2179 C 0.85704 0.70167 0.69069 0.0
C2180 C 0.87655 0.69488 0.68923 0.0
C2181 C 0.8919 0.70784 0.69313 0.0
C2182 C 0.88775 0.72764 0.69841 0.0
C2183 C 0.86825 0.73449 0.69991 0.0
H2184 H 0.907 0.70255 0.692 0.0
H2185 H 0.71972 0.77267 0.71329 0.0
H2186 H 0.66942 0.288 0.17444 0.0
H2187 H 0.69748 0.30683 0.18676 0.0
H2188 H 0.73667 0.27088 0.15012 0.0
H2189 H 0.70891 0.25165 0.13857 0.0
H2190 H 0.74896 0.27016 0.18618 0.0
H2191 H 0.72741 0.32227 0.14176 0.0
H2192 H 0.70403 0.34652 0.12672 0.0
H2193 H 0.69618 0.37513 0.18366 0.0
H2194 H 0.71932 0.35088 0.19911 0.0
H2195 H 0.83637 0.32067 0.20994 0.0
H2196 H 0.80822 0.31105 0.18948 0.0
H2197 H 0.76845 0.33475 0.23421 0.0
H2198 H 0.79639 0.3441 0.25484 0.0
H2199 H 0.75717 0.34317 0.19278 0.0
H2200 H 0.77603 0.28884 0.23709 0.0
H2201 H 0.79941 0.26468 0.2521 0.0
H2202 H 0.81217 0.24024 0.19406 0.0
H2203 H 0.78899 0.26454 0.17866 0.0
C2204 C 0.684 0.28448 0.16875 0.0
C2205 C 0.68711 0.26829 0.15577 0.0
C2206 C 0.70002 0.29527 0.17571 0.0
C2207 C 0.71923 0.29025 0.16938 0.0
C2208 C 0.72204 0.27492 0.15536 0.0
C2209 C 0.70618 0.26395 0.14876 0.0
C2210 C 0.73663 0.2992 0.17895 0.0
C2211 C 0.75087 0.28616 0.18719 0.0
C2212 C 0.73893 0.32006 0.18087 0.0
C2213 C 0.72497 0.33463 0.17164 0.0
C2214 C 0.72057 0.33363 0.15112 0.0
C2215 C 0.70739 0.3474 0.14251 0.0
C2216 C 0.69859 0.36233 0.15424 0.0
C2217 C 0.70299 0.36355 0.1746 0.0
C2218 C 0.71616 0.3498 0.18328 0.0
C2219 C 0.82163 0.3241 0.21524 0.0
C2220 C 0.81856 0.33295 0.23405 0.0
C2221 C 0.8056 0.31861 0.20357 0.0
C2222 C 0.78632 0.32218 0.21041 0.0
C2223 C 0.78323 0.33195 0.22867 0.0
C2224 C 0.79921 0.33713 0.24048 0.0
C2225 C 0.76939 0.31408 0.19952 0.0
C2226 C 0.75524 0.32723 0.19133 0.0
C2227 C 0.76712 0.29331 0.1975 0.0
C2228 C 0.78103 0.27869 0.20671 0.0
C2229 C 0.78398 0.27846 0.22751 0.0
C2230 C 0.79718 0.2647 0.23609 0.0
C2231 C 0.80739 0.25099 0.22402 0.0
C2232 C 0.80431 0.25093 0.20337 0.0
C2233 C 0.79115 0.26468 0.19471 0.0
H2234 H 0.81766 0.24038 0.23062 0.0
H2235 H 0.68839 0.37298 0.14754 0.0
H2236 H 0.14854 0.3315 0.72618 0.0
H2237 H 0.16168 0.3077 0.7018 0.0
H2238 H 0.18015 0.2684 0.74967 0.0
H2239 H 0.16671 0.29192 0.7742 0.0
H2240 H 0.19757 0.29346 0.69471 0.0
H2241 H 0.17619 0.22049 0.73487 0.0
H2242 H 0.15062 0.20836 0.75785 0.0
H2243 H 0.11042 0.25388 0.73676 0.0
H2244 H 0.13565 0.2661 0.71348 0.0
H2245 H 0.24743 0.20964 0.65109 0.0
H2246 H 0.23399 0.236 0.67268 0.0
H2247 H 0.17512 0.2188 0.65734 0.0
H2248 H 0.18857 0.19172 0.63666 0.0
H2249 H 0.17693 0.22296 0.69492 0.0
H2250 H 0.19813 0.26279 0.63958 0.0
H2251 H 0.22164 0.27538 0.61469 0.0
H2252 H 0.25786 0.29764 0.66181 0.0
H2253 H 0.23466 0.28502 0.68699 0.0
C2254 C 0.1553 0.31776 0.73157 0.0
C2255 C 0.15639 0.31356 0.75218 0.0
C2256 C 0.16291 0.30422 0.71759 0.0
C2257 C 0.17173 0.28621 0.7239 0.0
C2258 C 0.17309 0.28206 0.74445 0.0
C2259 C 0.1654 0.29555 0.75846 0.0
C2260 C 0.17934 0.27169 0.70894 0.0
C2261 C 0.19307 0.27803 0.6947 0.0
C2262 C 0.17323 0.25166 0.70877 0.0
C2263 C 0.15788 0.24432 0.72259 0.0
C2264 C 0.16187 0.22786 0.7351 0.0
C2265 C 0.14744 0.22098 0.74818 0.0
C2266 C 0.12893 0.23039 0.74881 0.0
C2267 C 0.12479 0.24666 0.73631 0.0
C2268 C 0.13915 0.25358 0.72319 0.0
C2269 C 0.23163 0.21178 0.65204 0.0
C2270 C 0.21897 0.19882 0.64212 0.0
C2271 C 0.22396 0.22685 0.66436 0.0
C2272 C 0.20353 0.22957 0.66648 0.0
C2273 C 0.19093 0.21698 0.656 0.0
C2274 C 0.19858 0.20162 0.64409 0.0
C2275 C 0.19521 0.24465 0.68054 0.0
C2276 C 0.18143 0.23838 0.69478 0.0
C2277 C 0.20096 0.26484 0.68035 0.0
C2278 C 0.21478 0.2727 0.66519 0.0
C2279 C 0.21118 0.27024 0.64464 0.0
C2280 C 0.22444 0.27742 0.63047 0.0
C2281 C 0.24127 0.28724 0.63666 0.0
C2282 C 0.24483 0.29001 0.65703 0.0
C2283 C 0.23163 0.28285 0.67126 0.0
H2284 H 0.25153 0.29277 0.62567 0.0
H2285 H 0.11778 0.22504 0.75896 0.0
H2286 H 0.19917 0.62093 0.20371 0.0
H2287 H 0.22951 0.6369 0.19343 0.0
H2288 H 0.19562 0.68208 0.16191 0.0
H2289 H 0.16533 0.66533 0.17102 0.0
H2290 H 0.22834 0.67595 0.14308 0.0
H2291 H 0.2104 0.68616 0.21159 0.0
H2292 H 0.20263 0.67742 0.24647 0.0
H2293 H 0.25991 0.65039 0.25348 0.0
H2294 H 0.268 0.65868 0.2185 0.0
H2295 H 0.29059 0.75892 0.15431 0.0
H2296 H 0.26357 0.73578 0.15835 0.0
H2297 H 0.30479 0.68896 0.17495 0.0
H2298 H 0.33202 0.71193 0.17076 0.0
H2299 H 0.27048 0.69385 0.20054 0.0
H2300 H 0.28797 0.68605 0.13125 0.0
H2301 H 0.29521 0.69795 0.09715 0.0
H2302 H 0.2372 0.72408 0.09298 0.0
H2303 H 0.22972 0.7126 0.12719 0.0
C2304 C 0.19825 0.63399 0.19417 0.0
C2305 C 0.17994 0.64217 0.18849 0.0
C2306 C 0.21557 0.64316 0.18841 0.0
C2307 C 0.2148 0.66107 0.17751 0.0
C2308 C 0.19657 0.66838 0.17051 0.0
C2309 C 0.17924 0.65885 0.17579 0.0
C2310 C 0.23267 0.67308 0.17489 0.0
C2311 C 0.23745 0.67996 0.15568 0.0
C2312 C 0.24473 0.67813 0.19132 0.0
C2313 C 0.23973 0.67281 0.21229 0.0
C2314 C 0.22126 0.6781 0.22045 0.0
C2315 C 0.21682 0.6733 0.24028 0.0
C2316 C 0.23072 0.66331 0.25216 0.0
C2317 C 0.24914 0.65811 0.24424 0.0
C2318 C 0.25367 0.66286 0.22442 0.0
C2319 C 0.29394 0.74373 0.15889 0.0
C2320 C 0.31346 0.73724 0.16215 0.0
C2321 C 0.2785 0.73053 0.16108 0.0
C2322 C 0.28229 0.71068 0.16673 0.0
C2323 C 0.30166 0.70423 0.17047 0.0
C2324 C 0.31716 0.71736 0.16803 0.0
C2325 C 0.26592 0.69674 0.16886 0.0
C2326 C 0.26145 0.68956 0.18797 0.0
C2327 C 0.25392 0.69178 0.15246 0.0
C2328 C 0.25835 0.69862 0.13185 0.0
C2329 C 0.27682 0.69449 0.12313 0.0
C2330 C 0.28095 0.70113 0.10377 0.0
C2331 C 0.26669 0.7118 0.09292 0.0
C2332 C 0.24824 0.71582 0.1014 0.0
C2333 C 0.24404 0.70924 0.12077 0.0
H2334 H 0.26992 0.71693 0.07793 0.0
H2335 H 0.22724 0.65964 0.26753 0.0
H2336 H 0.85573 0.31169 0.30142 0.0
H2337 H 0.83795 0.28294 0.31343 0.0
H2338 H 0.86265 0.24719 0.26559 0.0
H2339 H 0.87997 0.27627 0.25301 0.0
H2340 H 0.82536 0.2433 0.26616 0.0
H2341 H 0.87408 0.23783 0.31608 0.0
H2342 H 0.89667 0.24868 0.3425 0.0
H2343 H 0.84757 0.267 0.379 0.0
H2344 H 0.82466 0.25654 0.3527 0.0
H2345 H 0.77566 0.1613 0.32109 0.0
H2346 H 0.80195 0.1809 0.30604 0.0
H2347 H 0.77134 0.23524 0.32287 0.0
H2348 H 0.74486 0.21593 0.33756 0.0
H2349 H 0.81638 0.22309 0.33689 0.0
H2350 H 0.76965 0.23769 0.28214 0.0
H2351 H 0.74741 0.22866 0.25467 0.0
H2352 H 0.7935 0.19313 0.22772 0.0
H2353 H 0.81597 0.20189 0.25516 0.0
C2354 C 0.85766 0.29764 0.29365 0.0
C2355 C 0.86907 0.29626 0.27617 0.0
C2356 C 0.84762 0.28112 0.30065 0.0
C2357 C 0.84913 0.26281 0.29055 0.0
C2358 C 0.86131 0.26116 0.27364 0.0
C2359 C 0.8712 0.27777 0.26649 0.0
C2360 C 0.83611 0.24631 0.29628 0.0
C2361 C 0.82368 0.23862 0.28157 0.0
C2362 C 0.83392 0.24016 0.31641 0.0
C2363 C 0.84764 0.24647 0.33234 0.0
C2364 C 0.86809 0.2443 0.32968 0.0
C2365 C 0.88096 0.25036 0.34465 0.0
C2366 C 0.87356 0.25854 0.36241 0.0
C2367 C 0.85327 0.26065 0.36525 0.0
C2368 C 0.84034 0.25462 0.35032 0.0
C2369 C 0.77442 0.17743 0.32133 0.0
C2370 C 0.7583 0.18711 0.33062 0.0
C2371 C 0.78937 0.18853 0.31268 0.0
C2372 C 0.78844 0.20939 0.31345 0.0
C2373 C 0.77214 0.2191 0.32214 0.0
C2374 C 0.75706 0.20805 0.33048 0.0
C2375 C 0.80524 0.22116 0.30689 0.0
C2376 C 0.81839 0.22768 0.32146 0.0
C2377 C 0.80808 0.22631 0.28669 0.0
C2378 C 0.79436 0.22018 0.27082 0.0
C2379 C 0.77493 0.22771 0.27052 0.0
C2380 C 0.76234 0.22278 0.25487 0.0
C2381 C 0.76904 0.21035 0.23945 0.0
C2382 C 0.78832 0.20275 0.23968 0.0
C2383 C 0.80099 0.20768 0.25528 0.0
H2384 H 0.75927 0.20655 0.22735 0.0
H2385 H 0.88355 0.26323 0.37398 0.0
H2386 H 0.20083 0.37809 0.78113 0.0
H2387 H 0.23058 0.36357 0.79601 0.0
H2388 H 0.19526 0.3302 0.83748 0.0
H2389 H 0.16547 0.34532 0.82319 0.0
H2390 H 0.22638 0.34282 0.85578 0.0
H2391 H 0.21462 0.3084 0.7951 0.0
H2392 H 0.20796 0.30399 0.75917 0.0
H2393 H 0.26256 0.33144 0.74445 0.0
H2394 H 0.26947 0.33629 0.7803 0.0
H2395 H 0.30566 0.27104 0.87401 0.0
H2396 H 0.27408 0.28638 0.86422 0.0
H2397 H 0.30461 0.33209 0.83189 0.0
H2398 H 0.33613 0.31717 0.84186 0.0
H2399 H 0.27485 0.31072 0.80983 0.0
H2400 H 0.28481 0.34503 0.87294 0.0
H2401 H 0.29055 0.34609 0.90933 0.0
H2402 H 0.23749 0.31401 0.91961 0.0
H2403 H 0.23159 0.31251 0.88324 0.0
C2404 C 0.19943 0.36782 0.79356 0.0
C2405 C 0.18087 0.36264 0.80086 0.0
C2406 C 0.21641 0.35945 0.80196 0.0
C2407 C 0.21509 0.34543 0.81751 0.0
C2408 C 0.19659 0.34088 0.8254 0.0
C2409 C 0.17959 0.3495 0.81719 0.0
C2410 C 0.233 0.33518 0.82513 0.0
C2411 C 0.23684 0.33558 0.84575 0.0
C2412 C 0.24662 0.32567 0.81204 0.0
C2413 C 0.24248 0.32288 0.79042 0.0
C2414 C 0.22514 0.31366 0.78421 0.0
C2415 C 0.22132 0.31105 0.76386 0.0
C2416 C 0.23479 0.31747 0.74954 0.0
C2417 C 0.25213 0.32649 0.75556 0.0
C2418 C 0.25601 0.32916 0.7759 0.0
C2419 C 0.30561 0.28448 0.865 0.0
C2420 C 0.32331 0.29288 0.85861 0.0
C2421 C 0.28762 0.29319 0.85945 0.0
C2422 C 0.28716 0.31029 0.84735 0.0
C2423 C 0.30478 0.31886 0.84122 0.0
C2424 C 0.32273 0.31033 0.84696 0.0
C2425 C 0.26834 0.31885 0.84028 0.0
C2426 C 0.2643 0.31797 0.81978 0.0
C2427 C 0.25437 0.32744 0.85351 0.0
C2428 C 0.25787 0.32847 0.87537 0.0
C2429 C 0.27446 0.33805 0.88295 0.0
C2430 C 0.27772 0.33876 0.90357 0.0
C2431 C 0.26442 0.33007 0.91677 0.0
C2432 C 0.2478 0.32071 0.90937 0.0
C2433 C 0.24448 0.31994 0.88876 0.0
H2434 H 0.26698 0.33064 0.93273 0.0
H2435 H 0.2318 0.31541 0.73379 0.0
H2436 H 0.20603 0.8252 0.3281 0.0
H2437 H 0.1874 0.80243 0.30709 0.0
H2438 H 0.23696 0.76129 0.30587 0.0
H2439 H 0.25565 0.78379 0.32656 0.0
H2440 H 0.22173 0.76588 0.26945 0.0
H2441 H 0.19807 0.75282 0.33583 0.0
H2442 H 0.18343 0.76152 0.36852 0.0
H2443 H 0.13069 0.78239 0.33939 0.0
H2444 H 0.14515 0.77406 0.30648 0.0
H2445 H 0.16268 0.67297 0.25636 0.0
H2446 H 0.17825 0.69878 0.27648 0.0
H2447 H 0.15857 0.74369 0.23446 0.0
H2448 H 0.14376 0.71802 0.21383 0.0
H2449 H 0.15817 0.73815 0.2915 0.0
H2450 H 0.18876 0.75649 0.22371 0.0
H2451 H 0.20654 0.74687 0.1929 0.0
H2452 H 0.24941 0.71437 0.22778 0.0
H2453 H 0.23119 0.72287 0.25867 0.0
C2454 C 0.21295 0.8113 0.32336 0.0
C2455 C 0.23233 0.80634 0.3291 0.0
C2456 C 0.20227 0.7983 0.3114 0.0
C2457 C 0.21077 0.78012 0.30505 0.0
C2458 C 0.23013 0.77525 0.31059 0.0
C2459 C 0.24077 0.78816 0.32251 0.0
C2460 C 0.19965 0.76599 0.29262 0.0
C2461 C 0.20779 0.75991 0.27428 0.0
C2462 C 0.18152 0.7581 0.29894 0.0
C2463 C 0.17277 0.76303 0.31869 0.0
C2464 C 0.18342 0.75942 0.33639 0.0
C2465 C 0.17514 0.76425 0.35496 0.0
C2466 C 0.15616 0.77256 0.35603 0.0
C2467 C 0.1454 0.77599 0.33854 0.0
C2468 C 0.15362 0.77121 0.31992 0.0
C2469 C 0.1616 0.68835 0.25146 0.0
C2470 C 0.1522 0.69343 0.23339 0.0
C2471 C 0.17057 0.70304 0.2629 0.0
C2472 C 0.17007 0.723 0.25656 0.0
C2473 C 0.15978 0.72826 0.23916 0.0
C2474 C 0.15116 0.71358 0.22751 0.0
C2475 C 0.18015 0.73837 0.26829 0.0
C2476 C 0.17192 0.74447 0.28659 0.0
C2477 C 0.19829 0.74619 0.26206 0.0
C2478 C 0.20827 0.73978 0.2434 0.0
C2479 C 0.20159 0.74673 0.22473 0.0
C2480 C 0.2118 0.74155 0.20726 0.0
C2481 C 0.229 0.72985 0.20835 0.0
C2482 C 0.23598 0.72326 0.22691 0.0
C2483 C 0.2256 0.72807 0.24438 0.0
H2484 H 0.23699 0.72605 0.19482 0.0
H2485 H 0.14978 0.77629 0.37042 0.0
H2486 H 0.78862 0.61682 0.77932 0.0
H2487 H 0.76106 0.63699 0.79183 0.0
H2488 H 0.79895 0.66367 0.83552 0.0
H2489 H 0.82658 0.64305 0.8234 0.0
H2490 H 0.76449 0.6564 0.85158 0.0
H2491 H 0.78599 0.69017 0.79379 0.0
H2492 H 0.79666 0.69521 0.75898 0.0
H2493 H 0.74089 0.67536 0.73777 0.0
H2494 H 0.72981 0.67024 0.77255 0.0
H2495 H 0.68954 0.73254 0.86733 0.0
H2496 H 0.72116 0.71759 0.85715 0.0
H2497 H 0.6909 0.67458 0.8213 0.0
H2498 H 0.65924 0.6892 0.83163 0.0
H2499 H 0.72442 0.69504 0.80244 0.0
H2500 H 0.70548 0.65941 0.86342 0.0
H2501 H 0.69623 0.65829 0.8991 0.0
H2502 H 0.75018 0.68637 0.91482 0.0
H2503 H 0.75962 0.6879 0.87919 0.0
C2504 C 0.79106 0.6268 0.79175 0.0
C2505 C 0.80979 0.62852 0.80026 0.0
C2506 C 0.77535 0.63846 0.79875 0.0
C2507 C 0.77812 0.65221 0.81422 0.0
C2508 C 0.79658 0.65329 0.82341 0.0
C2509 C 0.81232 0.64149 0.81649 0.0
C2510 C 0.7616 0.66533 0.8207 0.0
C2511 C 0.75594 0.66511 0.84088 0.0
C2512 C 0.75054 0.67683 0.80677 0.0
C2513 C 0.75715 0.67962 0.78578 0.0
C2514 C 0.77605 0.68671 0.78171 0.0
C2515 C 0.78217 0.68962 0.76197 0.0
C2516 C 0.76954 0.68545 0.74614 0.0
C2517 C 0.75068 0.67852 0.75004 0.0
C2518 C 0.74445 0.67568 0.76977 0.0
C2519 C 0.68965 0.7199 0.85727 0.0
C2520 C 0.67199 0.71189 0.85036 0.0
C2521 C 0.70766 0.71143 0.85149 0.0
C2522 C 0.7082 0.69501 0.83858 0.0
C2523 C 0.69064 0.68729 0.83129 0.0
C2524 C 0.67263 0.69556 0.83727 0.0
C2525 C 0.72704 0.6854 0.83304 0.0
C2526 C 0.73315 0.68643 0.81307 0.0
C2527 C 0.73877 0.67508 0.84725 0.0
C2528 C 0.73314 0.67398 0.86865 0.0
C2529 C 0.71529 0.6655 0.87448 0.0
C2530 C 0.71003 0.66476 0.89469 0.0
C2531 C 0.72258 0.67231 0.90921 0.0
C2532 C 0.74045 0.68056 0.90356 0.0
C2533 C 0.74577 0.68136 0.88336 0.0
H2534 H 0.71848 0.67173 0.92485 0.0
H2535 H 0.77432 0.68765 0.73086 0.0
H2536 H 0.71737 0.82201 0.66739 0.0
H2537 H 0.69351 0.80992 0.69167 0.0
H2538 H 0.7277 0.8343 0.73975 0.0
H2539 H 0.75196 0.84584 0.71556 0.0
H2540 H 0.71904 0.79736 0.7477 0.0
H2541 H 0.68241 0.85492 0.72558 0.0
H2542 H 0.66702 0.87791 0.70111 0.0
H2543 H 0.63011 0.8311 0.68044 0.0
H2544 H 0.64547 0.80774 0.7046 0.0
H2545 H 0.64918 0.77831 0.82319 0.0
H2546 H 0.66593 0.79947 0.79893 0.0
H2547 H 0.64656 0.76193 0.75088 0.0
H2548 H 0.63015 0.74037 0.77508 0.0
H2549 H 0.64663 0.80744 0.74413 0.0
H2550 H 0.6865 0.74939 0.76326 0.0
H2551 H 0.70122 0.72647 0.78825 0.0
H2552 H 0.73173 0.77514 0.81478 0.0
H2553 H 0.7169 0.79841 0.79013 0.0
C2554 C 0.71962 0.82509 0.68311 0.0
C2555 C 0.73653 0.83483 0.68961 0.0
C2556 C 0.70594 0.81823 0.69697 0.0
C2557 C 0.70872 0.82138 0.71752 0.0
C2558 C 0.72527 0.83171 0.72397 0.0
C2559 C 0.7391 0.8383 0.71014 0.0
C2560 C 0.69519 0.81258 0.73236 0.0
C2561 C 0.70325 0.79991 0.74709 0.0
C2562 C 0.67453 0.8155 0.73132 0.0
C2563 C 0.66522 0.82953 0.7168 0.0
C2564 C 0.67112 0.84948 0.71571 0.0
C2565 C 0.66238 0.86259 0.70191 0.0
C2566 C 0.64762 0.85596 0.6892 0.0
C2567 C 0.64155 0.83621 0.69029 0.0
C2568 C 0.65025 0.82304 0.70405 0.0
C2569 C 0.64803 0.77487 0.80742 0.0
C2570 C 0.63851 0.75763 0.80099 0.0
C2571 C 0.65761 0.78694 0.79362 0.0
C2572 C 0.65748 0.78212 0.77323 0.0
C2573 C 0.64672 0.76584 0.7666 0.0
C2574 C 0.63746 0.75353 0.78042 0.0
C2575 C 0.67059 0.79245 0.75925 0.0
C2576 C 0.66246 0.80522 0.74473 0.0
C2577 C 0.69119 0.78968 0.76043 0.0
C2578 C 0.7004 0.77567 0.77503 0.0
C2579 C 0.69621 0.75523 0.77454 0.0
C2580 C 0.70459 0.74217 0.78862 0.0
C2581 C 0.71735 0.74935 0.80314 0.0
C2582 C 0.72181 0.7696 0.80355 0.0
C2583 C 0.71343 0.78273 0.78953 0.0
H2584 H 0.72382 0.73922 0.81403 0.0
H2585 H 0.64088 0.86613 0.67853 0.0
H2586 H 0.70965 0.12299 0.30276 0.0
H2587 H 0.69177 0.13828 0.27489 0.0
H2588 H 0.66516 0.18129 0.3151 0.0
H2589 H 0.68258 0.1657 0.3432 0.0
H2590 H 0.63969 0.17046 0.28597 0.0
H2591 H 0.7052 0.19519 0.2894 0.0
H2592 H 0.74128 0.19261 0.29213 0.0
H2593 H 0.7441 0.15817 0.23816 0.0
H2594 H 0.70798 0.16074 0.23493 0.0
H2595 H 0.62232 0.24409 0.20869 0.0
H2596 H 0.63282 0.22666 0.23926 0.0
H2597 H 0.65798 0.17895 0.20366 0.0
H2598 H 0.64761 0.19618 0.17319 0.0
H2599 H 0.68358 0.19384 0.23172 0.0
H2600 H 0.61629 0.17188 0.22836 0.0
H2601 H 0.58033 0.17695 0.22662 0.0
H2602 H 0.58102 0.20903 0.28212 0.0
H2603 H 0.61704 0.20439 0.28405 0.0
C2604 C 0.69971 0.13547 0.30573 0.0
C2605 C 0.6978 0.14343 0.32505 0.0
C2606 C 0.68957 0.14422 0.28981 0.0
C2607 C 0.67758 0.1612 0.29293 0.0
C2608 C 0.67449 0.16828 0.31241 0.0
C2609 C 0.68451 0.15941 0.32841 0.0
C2610 C 0.66961 0.17241 0.27565 0.0
C2611 C 0.64925 0.17578 0.27419 0.0
C2612 C 0.68216 0.17934 0.26036 0.0
C2613 C 0.70389 0.17795 0.26206 0.0
C2614 C 0.71351 0.18696 0.27818 0.0
C2615 C 0.73395 0.18549 0.27983 0.0
C2616 C 0.74495 0.17496 0.26553 0.0
C2617 C 0.73554 0.16618 0.24932 0.0
C2618 C 0.71509 0.16773 0.24751 0.0
C2619 C 0.62996 0.22981 0.20743 0.0
C2620 C 0.63425 0.22151 0.18861 0.0
C2621 C 0.63586 0.21987 0.22486 0.0
C2622 C 0.64609 0.20153 0.22362 0.0
C2623 C 0.65011 0.19311 0.20485 0.0
C2624 C 0.64416 0.20297 0.18749 0.0
C2625 C 0.65359 0.19149 0.24176 0.0
C2626 C 0.67396 0.1885 0.24346 0.0
C2627 C 0.64104 0.18526 0.25736 0.0
C2628 C 0.61938 0.18796 0.25624 0.0
C2629 C 0.6088 0.18016 0.24011 0.0
C2630 C 0.5884 0.18293 0.23911 0.0
C2631 C 0.5784 0.19335 0.25422 0.0
C2632 C 0.58878 0.20098 0.27041 0.0
C2633 C 0.60919 0.19827 0.27147 0.0
H2634 H 0.56261 0.19548 0.25342 0.0
H2635 H 0.76079 0.17379 0.26692 0.0
H2636 H 0.23488 0.18311 0.70378 0.0
H2637 H 0.25691 0.19648 0.72886 0.0
H2638 H 0.30566 0.16371 0.70271 0.0
H2639 H 0.28367 0.15032 0.67713 0.0
H2640 H 0.30021 0.16536 0.75002 0.0
H2641 H 0.30674 0.20505 0.68937 0.0
H2642 H 0.29263 0.22356 0.66071 0.0
H2643 H 0.26186 0.26316 0.70092 0.0
H2644 H 0.27543 0.24461 0.7298 0.0
H2645 H 0.36707 0.22513 0.80674 0.0
H2646 H 0.35167 0.20424 0.78125 0.0
H2647 H 0.30328 0.24677 0.77708 0.0
H2648 H 0.31908 0.26794 0.80148 0.0
H2649 H 0.31287 0.23754 0.74213 0.0
H2650 H 0.30139 0.19894 0.80174 0.0
H2651 H 0.31039 0.18012 0.83222 0.0
H2652 H 0.34531 0.1391 0.79716 0.0
H2653 H 0.3367 0.15784 0.76648 0.0
C2654 C 0.2502 0.17841 0.70349 0.0
C2655 C 0.25753 0.16565 0.68842 0.0
C2656 C 0.26276 0.18609 0.71785 0.0
C2657 C 0.28283 0.18104 0.71757 0.0
C2658 C 0.29015 0.16765 0.70315 0.0
C2659 C 0.2776 0.16013 0.68853 0.0
C2660 C 0.29618 0.19127 0.73137 0.0
C2661 C 0.30341 0.18104 0.7482 0.0
C2662 C 0.29973 0.21182 0.72913 0.0
C2663 C 0.29202 0.22335 0.71174 0.0
C2664 C 0.29686 0.21762 0.69209 0.0
C2665 C 0.28896 0.22813 0.6758 0.0
C2666 C 0.27635 0.24453 0.67898 0.0
C2667 C 0.27163 0.25046 0.69846 0.0
C2668 C 0.27943 0.23996 0.71479 0.0
C2669 C 0.35312 0.22987 0.80036 0.0
C2670 C 0.34434 0.24819 0.80589 0.0
C2671 C 0.34427 0.21792 0.78588 0.0
C2672 C 0.32623 0.22386 0.7772 0.0
C2673 C 0.31728 0.24191 0.78328 0.0
C2674 C 0.3263 0.254 0.79729 0.0
C2675 C 0.3167 0.21185 0.76137 0.0
C2676 C 0.31011 0.22177 0.74401 0.0
C2677 C 0.31333 0.19114 0.76344 0.0
C2678 C 0.31862 0.17994 0.78187 0.0
C2679 C 0.31113 0.18601 0.80056 0.0
C2680 C 0.31613 0.17534 0.81786 0.0
C2681 C 0.32848 0.15847 0.81664 0.0
C2682 C 0.3358 0.1522 0.79809 0.0
C2683 C 0.33086 0.16284 0.78074 0.0
H2684 H 0.33232 0.15022 0.83005 0.0
H2685 H 0.27023 0.25262 0.66635 0.0
H2686 H 0.27153 0.87877 0.30475 0.0
H2687 H 0.29309 0.86822 0.27729 0.0
H2688 H 0.32308 0.82668 0.31671 0.0
H2689 H 0.30208 0.83768 0.34439 0.0
H2690 H 0.3483 0.84198 0.2904 0.0
H2691 H 0.28456 0.81187 0.2881 0.0
H2692 H 0.24833 0.81157 0.28704 0.0
H2693 H 0.24864 0.84509 0.23231 0.0
H2694 H 0.28489 0.84579 0.23311 0.0
H2695 H 0.37454 0.76453 0.22044 0.0
H2696 H 0.36154 0.78469 0.24822 0.0
H2697 H 0.34011 0.82902 0.20635 0.0
H2698 H 0.35318 0.80919 0.17861 0.0
H2699 H 0.31165 0.81459 0.23291 0.0
H2700 H 0.37654 0.84101 0.23409 0.0
H2701 H 0.41274 0.83929 0.23535 0.0
H2702 H 0.41028 0.81033 0.29262 0.0
H2703 H 0.37403 0.8116 0.29157 0.0
C2704 C 0.28296 0.86765 0.30763 0.0
C2705 C 0.2849 0.85873 0.32656 0.0
C2706 C 0.29523 0.86163 0.29195 0.0
C2707 C 0.30932 0.84633 0.2949 0.0
C2708 C 0.31219 0.83842 0.31413 0.0
C2709 C 0.30011 0.84464 0.32989 0.0
C2710 C 0.3197 0.83724 0.27767 0.0
C2711 C 0.34032 0.83588 0.27787 0.0
C2712 C 0.30923 0.82948 0.26126 0.0
C2713 C 0.28743 0.82907 0.26078 0.0
C2714 C 0.2769 0.81931 0.27592 0.0
C2715 C 0.25637 0.81904 0.27536 0.0
C2716 C 0.2462 0.82835 0.25967 0.0
C2717 C 0.25654 0.83791 0.24447 0.0
C2718 C 0.27708 0.83824 0.24496 0.0
C2719 C 0.36725 0.77868 0.21721 0.0
C2720 C 0.36471 0.78523 0.1974 0.0
C2721 C 0.35996 0.7902 0.23305 0.0
C2722 C 0.34997 0.80831 0.22923 0.0
C2723 C 0.34783 0.81508 0.20951 0.0
C2724 C 0.35527 0.8037 0.19372 0.0
C2725 C 0.34021 0.81935 0.24562 0.0
C2726 C 0.31966 0.82092 0.24531 0.0
C2727 C 0.35075 0.82702 0.26197 0.0
C2728 C 0.37255 0.82623 0.26265 0.0
C2729 C 0.3837 0.8341 0.24687 0.0
C2730 C 0.40424 0.83324 0.24756 0.0
C2731 C 0.4138 0.82466 0.26403 0.0
C2732 C 0.40285 0.81695 0.27986 0.0
C2733 C 0.38231 0.81776 0.27923 0.0
H2734 H 0.4297 0.82401 0.26454 0.0
H2735 H 0.2303 0.8281 0.25928 0.0
loop_
_geom_bond_atom_site_label_1
_geom_bond_atom_site_label_2
_geom_bond_distance
_geom_bond_site_symmetry_2
_ccdc_geom_bond_type
Co0 O1 2.216 . S
Co0 O2 2.091 . S
Co0 O4 2.004 . S
Co0 O10 2.021 . S
Co0 O12 2.137 . S
Co0 O13 2.244 . S
O1 Co0 2.216 . S
O1 C8 1.247 . S
O2 Co0 2.091 . S
O2 C8 1.261 . S
C3 O12 1.247 . S
C3 O13 1.272 . S
O4 Co0 2.004 . S
O4 C9 1.259 . S
Co5 O6 2.061 . S
Co5 O11 2.052 . S
Co5 O13 2.135 . S
O6 Co5 2.061 . S
O6 C9 1.235 . S
C7 O10 1.238 . S
C7 O11 1.241 . S
C8 O1 1.247 . S
C8 O2 1.261 . S
C9 O4 1.259 . S
C9 O6 1.235 . S
O10 Co0 2.021 . S
O10 C7 1.238 . S
O11 Co5 2.052 . S
O11 C7 1.241 . S
O12 Co0 2.137 . S
O12 C3 1.247 . S
O13 Co0 2.244 . S
O13 C3 1.272 . S
O13 Co5 2.135 . S
Co14 O15 2.216 . S
Co14 O16 2.091 . S
Co14 O18 2.004 . S
Co14 O24 2.021 . S
Co14 O26 2.137 . S
Co14 O27 2.244 . S
O15 Co14 2.216 . S
O15 C22 1.247 . S
O16 Co14 2.091 . S
O16 C22 1.261 . S
C17 O26 1.247 . S
C17 O27 1.272 . S
O18 Co14 2.004 . S
O18 C23 1.259 . S
Co19 O20 2.061 . S
Co19 O25 2.052 . S
Co19 O27 2.135 . S
O20 Co19 2.061 . S
O20 C23 1.235 . S
C21 O24 1.238 . S
C21 O25 1.241 . S
C22 O15 1.247 . S
C22 O16 1.261 . S
C23 O18 1.259 . S
C23 O20 1.235 . S
O24 Co14 2.021 . S
O24 C21 1.238 . S
O25 Co19 2.052 . S
O25 C21 1.241 . S
O26 Co14 2.137 . S
O26 C17 1.247 . S
O27 Co14 2.244 . S
O27 C17 1.272 . S
O27 Co19 2.135 . S
Co28 O29 2.216 . S
Co28 O30 2.091 . S
Co28 O32 2.004 . S
Co28 O38 2.021 . S
Co28 O40 2.137 . S
Co28 O41 2.244 . S
O29 Co28 2.216 . S
O29 C36 1.247 . S
O30 Co28 2.091 . S
O30 C36 1.261 . S
C31 O40 1.247 . S
C31 O41 1.272 . S
O32 Co28 2.004 . S
O32 C37 1.259 . S
Co33 O34 2.061 . S
Co33 O39 2.052 . S
Co33 O41 2.135 . S
O34 Co33 2.061 . S
O34 C37 1.235 . S
C35 O38 1.238 . S
C35 O39 1.241 . S
C36 O29 1.247 . S
C36 O30 1.261 . S
C37 O32 1.259 . S
C37 O34 1.235 . S
O38 Co28 2.021 . S
O38 C35 1.238 . S
O39 Co33 2.052 . S
O39 C35 1.241 . S
O40 Co28 2.137 . S
O40 C31 1.247 . S
O41 Co28 2.244 . S
O41 C31 1.272 . S
O41 Co33 2.135 . S
Co42 O43 2.216 . S
Co42 O44 2.091 . S
Co42 O46 2.004 . S
Co42 O52 2.021 . S
Co42 O54 2.137 . S
Co42 O55 2.244 . S
O43 Co42 2.216 . S
O43 C50 1.247 . S
O44 Co42 2.091 . S
O44 C50 1.261 . S
C45 O54 1.247 . S
C45 O55 1.272 . S
O46 Co42 2.004 . S
O46 C51 1.259 . S
Co47 O48 2.061 . S
Co47 O53 2.052 . S
Co47 O55 2.135 . S
O48 Co47 2.061 . S
O48 C51 1.235 . S
C49 O52 1.238 . S
C49 O53 1.241 . S
C50 O43 1.247 . S
C50 O44 1.261 . S
C51 O46 1.259 . S
C51 O48 1.235 . S
O52 Co42 2.021 . S
O52 C49 1.238 . S
O53 Co47 2.052 . S
O53 C49 1.241 . S
O54 Co42 2.137 . S
O54 C45 1.247 . S
O55 Co42 2.244 . S
O55 C45 1.272 . S
O55 Co47 2.135 . S
Co56 O57 2.216 . S
Co56 O58 2.091 . S
Co56 O60 2.004 . S
Co56 O66 2.021 . S
Co56 O68 2.137 . S
Co56 O69 2.244 . S
O57 Co56 2.216 . S
O57 C64 1.247 . S
O58 Co56 2.091 . S
O58 C64 1.261 . S
C59 O68 1.247 . S
C59 O69 1.272 . S
O60 Co56 2.004 . S
O60 C65 1.259 . S
Co61 O62 2.061 . S
Co61 O67 2.052 . S
Co61 O69 2.135 . S
O62 Co61 2.061 . S
O62 C65 1.235 . S
C63 O66 1.238 . S
C63 O67 1.241 . S
C64 O57 1.247 . S
C64 O58 1.261 . S
C65 O60 1.259 . S
C65 O62 1.235 . S
O66 Co56 2.021 . S
O66 C63 1.238 . S
O67 Co61 2.052 . S
O67 C63 1.241 . S
O68 Co56 2.137 . S
O68 C59 1.247 . S
O69 Co56 2.244 . S
O69 C59 1.272 . S
O69 Co61 2.135 . S
Co70 O71 2.216 . S
Co70 O72 2.091 . S
Co70 O74 2.004 . S
Co70 O80 2.021 . S
Co70 O82 2.137 . S
Co70 O83 2.244 . S
O71 Co70 2.216 . S
O71 C78 1.247 . S
O72 Co70 2.091 . S
O72 C78 1.261 . S
C73 O82 1.247 . S
C73 O83 1.272 . S
O74 Co70 2.004 . S
O74 C79 1.259 . S
Co75 O76 2.061 . S
Co75 O81 2.052 . S
Co75 O83 2.135 . S
O76 Co75 2.061 . S
O76 C79 1.235 . S
C77 O80 1.238 . S
C77 O81 1.241 . S
C78 O71 1.247 . S
C78 O72 1.261 . S
C79 O74 1.259 . S
C79 O76 1.235 . S
O80 Co70 2.021 . S
O80 C77 1.238 . S
O81 Co75 2.052 . S
O81 C77 1.241 . S
O82 Co70 2.137 . S
O82 C73 1.247 . S
O83 Co70 2.244 . S
O83 C73 1.272 . S
O83 Co75 2.135 . S
Co84 O85 2.216 . S
Co84 O86 2.091 . S
Co84 O88 2.004 . S
Co84 O94 2.021 . S
Co84 O96 2.137 . S
Co84 O97 2.244 . S
O85 Co84 2.216 . S
O85 C92 1.247 . S
O86 Co84 2.091 . S
O86 C92 1.261 . S
C87 O96 1.247 . S
C87 O97 1.272 . S
O88 Co84 2.004 . S
O88 C93 1.259 . S
Co89 O90 2.061 . S
Co89 O95 2.052 . S
Co89 O97 2.135 . S
O90 Co89 2.061 . S
O90 C93 1.235 . S
C91 O94 1.238 . S
C91 O95 1.241 . S
C92 O85 1.247 . S
C92 O86 1.261 . S
C93 O88 1.259 . S
C93 O90 1.235 . S
O94 Co84 2.021 . S
O94 C91 1.238 . S
O95 Co89 2.052 . S
O95 C91 1.241 . S
O96 Co84 2.137 . S
O96 C87 1.247 . S
O97 Co84 2.244 . S
O97 C87 1.272 . S
O97 Co89 2.135 . S
Co98 O99 2.216 . S
Co98 O100 2.091 . S
Co98 O102 2.004 . S
Co98 O108 2.021 . S
Co98 O110 2.137 . S
Co98 O111 2.244 . S
O99 Co98 2.216 . S
O99 C106 1.247 . S
O100 Co98 2.091 . S
O100 C106 1.261 . S
C101 O110 1.247 . S
C101 O111 1.272 . S
O102 Co98 2.004 . S
O102 C107 1.259 . S
Co103 O104 2.061 . S
Co103 O109 2.052 . S
Co103 O111 2.135 . S
O104 Co103 2.061 . S
O104 C107 1.235 . S
C105 O108 1.238 . S
C105 O109 1.241 . S
C106 O99 1.247 . S
C106 O100 1.261 . S
C107 O102 1.259 . S
C107 O104 1.235 . S
O108 Co98 2.021 . S
O108 C105 1.238 . S
O109 Co103 2.052 . S
O109 C105 1.241 . S
O110 Co98 2.137 . S
O110 C101 1.247 . S
O111 Co98 2.244 . S
O111 C101 1.272 . S
O111 Co103 2.135 . S
Co112 O113 2.216 . S
Co112 O114 2.091 . S
Co112 O116 2.004 . S
Co112 O122 2.021 . S
Co112 O124 2.137 . S
Co112 O125 2.244 . S
O113 Co112 2.216 . S
O113 C120 1.247 . S
O114 Co112 2.091 . S
O114 C120 1.261 . S
C115 O124 1.247 . S
C115 O125 1.272 . S
O116 Co112 2.004 . S
O116 C121 1.259 . S
Co117 O118 2.061 . S
Co117 O123 2.052 . S
Co117 O125 2.135 . S
O118 Co117 2.061 . S
O118 C121 1.235 . S
C119 O122 1.238 . S
C119 O123 1.241 . S
C120 O113 1.247 . S
C120 O114 1.261 . S
C121 O116 1.259 . S
C121 O118 1.235 . S
O122 Co112 2.021 . S
O122 C119 1.238 . S
O123 Co117 2.052 . S
O123 C119 1.241 . S
O124 Co112 2.137 . S
O124 C115 1.247 . S
O125 Co112 2.244 . S
O125 C115 1.272 . S
O125 Co117 2.135 . S
Co126 O127 2.216 . S
Co126 O128 2.091 . S
Co126 O130 2.004 . S
Co126 O136 2.021 . S
Co126 O138 2.137 . S
Co126 O139 2.244 . S
O127 Co126 2.216 . S
O127 C134 1.247 . S
O128 Co126 2.091 . S
O128 C134 1.261 . S
C129 O138 1.247 . S
C129 O139 1.272 . S
O130 Co126 2.004 . S
O130 C135 1.259 . S
Co131 O132 2.061 . S
Co131 O137 2.052 . S
Co131 O139 2.135 . S
O132 Co131 2.061 . S
O132 C135 1.235 . S
C133 O136 1.238 . S
C133 O137 1.241 . S
C134 O127 1.247 . S
C134 O128 1.261 . S
C135 O130 1.259 . S
C135 O132 1.235 . S
O136 Co126 2.021 . S
O136 C133 1.238 . S
O137 Co131 2.052 . S
O137 C133 1.241 . S
O138 Co126 2.137 . S
O138 C129 1.247 . S
O139 Co126 2.244 . S
O139 C129 1.272 . S
O139 Co131 2.135 . S
Co140 O141 2.216 . S
Co140 O142 2.091 . S
Co140 O144 2.004 . S
Co140 O150 2.021 . S
Co140 O152 2.137 . S
Co140 O153 2.244 . S
O141 Co140 2.216 . S
O141 C148 1.247 . S
O142 Co140 2.091 . S
O142 C148 1.261 . S
C143 O152 1.247 . S
C143 O153 1.272 . S
O144 Co140 2.004 . S
O144 C149 1.259 . S
Co145 O146 2.061 . S
Co145 O151 2.052 . S
Co145 O153 2.135 . S
O146 Co145 2.061 . S
O146 C149 1.235 . S
C147 O150 1.238 . S
C147 O151 1.241 . S
C148 O141 1.247 . S
C148 O142 1.261 . S
C149 O144 1.259 . S
C149 O146 1.235 . S
O150 Co140 2.021 . S
O150 C147 1.238 . S
O151 Co145 2.052 . S
O151 C147 1.241 . S
O152 Co140 2.137 . S
O152 C143 1.247 . S
O153 Co140 2.244 . S
O153 C143 1.272 . S
O153 Co145 2.135 . S
Co154 O155 2.216 . S
Co154 O156 2.091 . S
Co154 O158 2.004 . S
Co154 O164 2.021 . S
Co154 O166 2.137 . S
Co154 O167 2.244 . S
O155 Co154 2.216 . S
O155 C162 1.247 . S
O156 Co154 2.091 . S
O156 C162 1.261 . S
C157 O166 1.247 . S
C157 O167 1.272 . S
O158 Co154 2.004 . S
O158 C163 1.259 . S
Co159 O160 2.061 . S
Co159 O165 2.052 . S
Co159 O167 2.135 . S
O160 Co159 2.061 . S
O160 C163 1.235 . S
C161 O164 1.238 . S
C161 O165 1.241 . S
C162 O155 1.247 . S
C162 O156 1.261 . S
C163 O158 1.259 . S
C163 O160 1.235 . S
O164 Co154 2.021 . S
O164 C161 1.238 . S
O165 Co159 2.052 . S
O165 C161 1.241 . S
O166 Co154 2.137 . S
O166 C157 1.247 . S
O167 Co154 2.244 . S
O167 C157 1.272 . S
O167 Co159 2.135 . S
Co168 O169 2.216 . S
Co168 O170 2.091 . S
Co168 O172 2.004 . S
Co168 O178 2.021 . S
Co168 O180 2.137 . S
Co168 O181 2.244 . S
O169 Co168 2.216 . S
O169 C176 1.247 . S
O170 Co168 2.091 . S
O170 C176 1.261 . S
C171 O180 1.247 . S
C171 O181 1.272 . S
O172 Co168 2.004 . S
O172 C177 1.259 . S
Co173 O174 2.061 . S
Co173 O179 2.052 . S
Co173 O181 2.135 . S
O174 Co173 2.061 . S
O174 C177 1.235 . S
C175 O178 1.238 . S
C175 O179 1.241 . S
C176 O169 1.247 . S
C176 O170 1.261 . S
C177 O172 1.259 . S
C177 O174 1.235 . S
O178 Co168 2.021 . S
O178 C175 1.238 . S
O179 Co173 2.052 . S
O179 C175 1.241 . S
O180 Co168 2.137 . S
O180 C171 1.247 . S
O181 Co168 2.244 . S
O181 C171 1.272 . S
O181 Co173 2.135 . S
Co182 O183 2.216 . S
Co182 O184 2.091 . S
Co182 O186 2.004 . S
Co182 O192 2.021 . S
Co182 O194 2.137 . S
Co182 O195 2.244 . S
O183 Co182 2.216 . S
O183 C190 1.247 . S
O184 Co182 2.091 . S
O184 C190 1.261 . S
C185 O194 1.247 . S
C185 O195 1.272 . S
O186 Co182 2.004 . S
O186 C191 1.259 . S
Co187 O188 2.061 . S
Co187 O193 2.052 . S
Co187 O195 2.135 . S
O188 Co187 2.061 . S
O188 C191 1.235 . S
C189 O192 1.238 . S
C189 O193 1.241 . S
C190 O183 1.247 . S
C190 O184 1.261 . S
C191 O186 1.259 . S
C191 O188 1.235 . S
O192 Co182 2.021 . S
O192 C189 1.238 . S
O193 Co187 2.052 . S
O193 C189 1.241 . S
O194 Co182 2.137 . S
O194 C185 1.247 . S
O195 Co182 2.244 . S
O195 C185 1.272 . S
O195 Co187 2.135 . S
Co196 O197 2.216 . S
Co196 O198 2.091 . S
Co196 O200 2.004 . S
Co196 O206 2.021 . S
Co196 O208 2.137 . S
Co196 O209 2.244 . S
O197 Co196 2.216 . S
O197 C204 1.247 . S
O198 Co196 2.091 . S
O198 C204 1.261 . S
C199 O208 1.247 . S
C199 O209 1.272 . S
O200 Co196 2.004 . S
O200 C205 1.259 . S
Co201 O202 2.061 . S
Co201 O207 2.052 . S
Co201 O209 2.135 . S
O202 Co201 2.061 . S
O202 C205 1.235 . S
C203 O206 1.238 . S
C203 O207 1.241 . S
C204 O197 1.247 . S
C204 O198 1.261 . S
C205 O200 1.259 . S
C205 O202 1.235 . S
O206 Co196 2.021 . S
O206 C203 1.238 . S
O207 Co201 2.052 . S
O207 C203 1.241 . S
O208 Co196 2.137 . S
O208 C199 1.247 . S
O209 Co196 2.244 . S
O209 C199 1.272 . S
O209 Co201 2.135 . S
Co210 O211 2.216 . S
Co210 O212 2.091 . S
Co210 O214 2.004 . S
Co210 O220 2.021 . S
Co210 O222 2.137 . S
Co210 O223 2.244 . S
O211 Co210 2.216 . S
O211 C218 1.247 . S
O212 Co210 2.091 . S
O212 C218 1.261 . S
C213 O222 1.247 . S
C213 O223 1.272 . S
O214 Co210 2.004 . S
O214 C219 1.259 . S
Co215 O216 2.061 . S
Co215 O221 2.052 . S
Co215 O223 2.135 . S
O216 Co215 2.061 . S
O216 C219 1.235 . S
C217 O220 1.238 . S
C217 O221 1.241 . S
C218 O211 1.247 . S
C218 O212 1.261 . S
C219 O214 1.259 . S
C219 O216 1.235 . S
O220 Co210 2.021 . S
O220 C217 1.238 . S
O221 Co215 2.052 . S
O221 C217 1.241 . S
O222 Co210 2.137 . S
O222 C213 1.247 . S
O223 Co210 2.244 . S
O223 C213 1.272 . S
O223 Co215 2.135 . S
Co224 O225 2.216 . S
Co224 O226 2.091 . S
Co224 O228 2.004 . S
Co224 O234 2.021 . S
Co224 O236 2.137 . S
Co224 O237 2.244 . S
O225 Co224 2.216 . S
O225 C232 1.247 . S
O226 Co224 2.091 . S
O226 C232 1.261 . S
C227 O236 1.247 . S
C227 O237 1.272 . S
O228 Co224 2.004 . S
O228 C233 1.259 . S
Co229 O230 2.061 . S
Co229 O235 2.052 . S
Co229 O237 2.135 . S
O230 Co229 2.061 . S
O230 C233 1.235 . S
C231 O234 1.238 . S
C231 O235 1.241 . S
C232 O225 1.247 . S
C232 O226 1.261 . S
C233 O228 1.259 . S
C233 O230 1.235 . S
O234 Co224 2.021 . S
O234 C231 1.238 . S
O235 Co229 2.052 . S
O235 C231 1.241 . S
O236 Co224 2.137 . S
O236 C227 1.247 . S
O237 Co224 2.244 . S
O237 C227 1.272 . S
O237 Co229 2.135 . S
Co238 O239 2.216 . S
Co238 O240 2.091 . S
Co238 O242 2.004 . S
Co238 O248 2.021 . S
Co238 O250 2.137 . S
Co238 O251 2.244 . S
O239 Co238 2.216 . S
O239 C246 1.247 . S
O240 Co238 2.091 . S
O240 C246 1.261 . S
C241 O250 1.247 . S
C241 O251 1.272 . S
O242 Co238 2.004 . S
O242 C247 1.259 . S
Co243 O244 2.061 . S
Co243 O249 2.052 . S
Co243 O251 2.135 . S
O244 Co243 2.061 . S
O244 C247 1.235 . S
C245 O248 1.238 . S
C245 O249 1.241 . S
C246 O239 1.247 . S
C246 O240 1.261 . S
C247 O242 1.259 . S
C247 O244 1.235 . S
O248 Co238 2.021 . S
O248 C245 1.238 . S
O249 Co243 2.052 . S
O249 C245 1.241 . S
O250 Co238 2.137 . S
O250 C241 1.247 . S
O251 Co238 2.244 . S
O251 C241 1.272 . S
O251 Co243 2.135 . S
Co252 O253 2.216 . S
Co252 O254 2.091 . S
Co252 O256 2.004 . S
Co252 O262 2.021 . S
Co252 O264 2.137 . S
Co252 O265 2.244 . S
O253 Co252 2.216 . S
O253 C260 1.247 . S
O254 Co252 2.091 . S
O254 C260 1.261 . S
C255 O264 1.247 . S
C255 O265 1.272 . S
O256 Co252 2.004 . S
O256 C261 1.259 . S
Co257 O258 2.061 . S
Co257 O263 2.052 . S
Co257 O265 2.135 . S
O258 Co257 2.061 . S
O258 C261 1.235 . S
C259 O262 1.238 . S
C259 O263 1.241 . S
C260 O253 1.247 . S
C260 O254 1.261 . S
C261 O256 1.259 . S
C261 O258 1.235 . S
O262 Co252 2.021 . S
O262 C259 1.238 . S
O263 Co257 2.052 . S
O263 C259 1.241 . S
O264 Co252 2.137 . S
O264 C255 1.247 . S
O265 Co252 2.244 . S
O265 C255 1.272 . S
O265 Co257 2.135 . S
Co266 O267 2.216 . S
Co266 O268 2.091 . S
Co266 O270 2.004 . S
Co266 O276 2.021 . S
Co266 O278 2.137 . S
Co266 O279 2.244 . S
O267 Co266 2.216 . S
O267 C274 1.247 . S
O268 Co266 2.091 . S
O268 C274 1.261 . S
C269 O278 1.247 . S
C269 O279 1.272 . S
O270 Co266 2.004 . S
O270 C275 1.259 . S
Co271 O272 2.061 . S
Co271 O277 2.052 . S
Co271 O279 2.135 . S
O272 Co271 2.061 . S
O272 C275 1.235 . S
C273 O276 1.238 . S
C273 O277 1.241 . S
C274 O267 1.247 . S
C274 O268 1.261 . S
C275 O270 1.259 . S
C275 O272 1.235 . S
O276 Co266 2.021 . S
O276 C273 1.238 . S
O277 Co271 2.052 . S
O277 C273 1.241 . S
O278 Co266 2.137 . S
O278 C269 1.247 . S
O279 Co266 2.244 . S
O279 C269 1.272 . S
O279 Co271 2.135 . S
Co280 O281 2.216 . S
Co280 O282 2.091 . S
Co280 O284 2.004 . S
Co280 O290 2.021 . S
Co280 O292 2.137 . S
Co280 O293 2.244 . S
O281 Co280 2.216 . S
O281 C288 1.247 . S
O282 Co280 2.091 . S
O282 C288 1.261 . S
C283 O292 1.247 . S
C283 O293 1.272 . S
O284 Co280 2.004 . S
O284 C289 1.259 . S
Co285 O286 2.061 . S
Co285 O291 2.052 . S
Co285 O293 2.135 . S
O286 Co285 2.061 . S
O286 C289 1.235 . S
C287 O290 1.238 . S
C287 O291 1.241 . S
C288 O281 1.247 . S
C288 O282 1.261 . S
C289 O284 1.259 . S
C289 O286 1.235 . S
O290 Co280 2.021 . S
O290 C287 1.238 . S
O291 Co285 2.052 . S
O291 C287 1.241 . S
O292 Co280 2.137 . S
O292 C283 1.247 . S
O293 Co280 2.244 . S
O293 C283 1.272 . S
O293 Co285 2.135 . S
Co294 O295 2.216 . S
Co294 O296 2.091 . S
Co294 O298 2.004 . S
Co294 O304 2.021 . S
Co294 O306 2.137 . S
Co294 O307 2.244 . S
O295 Co294 2.216 . S
O295 C302 1.247 . S
O296 Co294 2.091 . S
O296 C302 1.261 . S
C297 O306 1.247 . S
C297 O307 1.272 . S
O298 Co294 2.004 . S
O298 C303 1.259 . S
Co299 O300 2.061 . S
Co299 O305 2.052 . S
Co299 O307 2.135 . S
O300 Co299 2.061 . S
O300 C303 1.235 . S
C301 O304 1.238 . S
C301 O305 1.241 . S
C302 O295 1.247 . S
C302 O296 1.261 . S
C303 O298 1.259 . S
C303 O300 1.235 . S
O304 Co294 2.021 . S
O304 C301 1.238 . S
O305 Co299 2.052 . S
O305 C301 1.241 . S
O306 Co294 2.137 . S
O306 C297 1.247 . S
O307 Co294 2.244 . S
O307 C297 1.272 . S
O307 Co299 2.135 . S
Co308 O309 2.216 . S
Co308 O310 2.091 . S
Co308 O312 2.004 . S
Co308 O318 2.021 . S
Co308 O320 2.137 . S
Co308 O321 2.244 . S
O309 Co308 2.216 . S
O309 C316 1.247 . S
O310 Co308 2.091 . S
O310 C316 1.261 . S
C311 O320 1.247 . S
C311 O321 1.272 . S
O312 Co308 2.004 . S
O312 C317 1.259 . S
Co313 O314 2.061 . S
Co313 O319 2.052 . S
Co313 O321 2.135 . S
O314 Co313 2.061 . S
O314 C317 1.235 . S
C315 O318 1.238 . S
C315 O319 1.241 . S
C316 O309 1.247 . S
C316 O310 1.261 . S
C317 O312 1.259 . S
C317 O314 1.235 . S
O318 Co308 2.021 . S
O318 C315 1.238 . S
O319 Co313 2.052 . S
O319 C315 1.241 . S
O320 Co308 2.137 . S
O320 C311 1.247 . S
O321 Co308 2.244 . S
O321 C311 1.272 . S
O321 Co313 2.135 . S
Co322 O323 2.216 . S
Co322 O324 2.091 . S
Co322 O326 2.004 . S
Co322 O332 2.021 . S
Co322 O334 2.137 . S
Co322 O335 2.244 . S
O323 Co322 2.216 . S
O323 C330 1.247 . S
O324 Co322 2.091 . S
O324 C330 1.261 . S
C325 O334 1.247 . S
C325 O335 1.272 . S
O326 Co322 2.004 . S
O326 C331 1.259 . S
Co327 O328 2.061 . S
Co327 O333 2.052 . S
Co327 O335 2.135 . S
O328 Co327 2.061 . S
O328 C331 1.235 . S
C329 O332 1.238 . S
C329 O333 1.241 . S
C330 O323 1.247 . S
C330 O324 1.261 . S
C331 O326 1.259 . S
C331 O328 1.235 . S
O332 Co322 2.021 . S
O332 C329 1.238 . S
O333 Co327 2.052 . S
O333 C329 1.241 . S
O334 Co322 2.137 . S
O334 C325 1.247 . S
O335 Co322 2.244 . S
O335 C325 1.272 . S
O335 Co327 2.135 . S
H336 C354 0.951 . S
H337 C356 0.951 . S
H338 C358 0.950 . S
H339 C359 0.950 . S
H340 C361 0.950 . S
H341 C364 0.950 . S
H342 C365 0.950 . S
H343 C367 0.950 . S
H344 C368 0.950 . S
H345 C369 0.951 . S
H346 C371 0.951 . S
H347 C373 0.950 . S
H348 C374 0.950 . S
H349 C376 0.950 . S
H350 C379 0.950 . S
H351 C380 0.950 . S
H352 C382 0.950 . S
H353 C383 0.950 . S
C354 H336 0.951 . S
C354 C355 1.366 . S
C354 C356 1.388 . S
C355 C354 1.366 . S
C355 C359 1.385 . S
C356 H337 0.951 . S
C356 C354 1.388 . S
C356 C357 1.366 . S
C357 C356 1.366 . S
C357 C358 1.414 . S
C357 C360 1.499 . S
C358 H338 0.950 . S
C358 C357 1.414 . S
C358 C359 1.374 . S
C359 H339 0.950 . S
C359 C355 1.385 . S
C359 C358 1.374 . S
C360 C357 1.499 . S
C360 C361 1.373 . S
C360 C362 1.389 . S
C361 H340 0.950 . S
C361 C360 1.373 . S
C361 C377 1.377 . S
C362 C360 1.389 . S
C362 C363 1.524 . S
C362 C376 1.377 . S
C363 C362 1.524 . S
C363 C364 1.397 . S
C363 C368 1.363 . S
C364 H341 0.950 . S
C364 C363 1.397 . S
C364 C365 1.334 . S
C365 H342 0.950 . S
C365 C364 1.334 . S
C365 C366 1.287 . S
C366 C365 1.287 . S
C366 C367 1.524 . S
C366 H385 0.913 . S
C367 H343 0.950 . S
C367 C366 1.524 . S
C367 C368 1.415 . S
C368 H344 0.950 . S
C368 C363 1.363 . S
C368 C367 1.415 . S
C369 H345 0.951 . S
C369 C370 1.366 . S
C369 C371 1.388 . S
C370 C369 1.366 . S
C370 C374 1.385 . S
C371 H346 0.951 . S
C371 C369 1.388 . S
C371 C372 1.366 . S
C372 C371 1.366 . S
C372 C373 1.414 . S
C372 C375 1.499 . S
C373 H347 0.950 . S
C373 C372 1.414 . S
C373 C374 1.374 . S
C374 H348 0.950 . S
C374 C370 1.385 . S
C374 C373 1.374 . S
C375 C372 1.499 . S
C375 C376 1.373 . S
C375 C377 1.389 . S
C376 H349 0.950 . S
C376 C362 1.377 . S
C376 C375 1.373 . S
C377 C361 1.377 . S
C377 C375 1.389 . S
C377 C378 1.524 . S
C378 C377 1.524 . S
C378 C379 1.397 . S
C378 C383 1.363 . S
C379 H350 0.950 . S
C379 C378 1.397 . S
C379 C380 1.334 . S
C380 H351 0.950 . S
C380 C379 1.334 . S
C380 C381 1.287 . S
C381 C380 1.287 . S
C381 C382 1.524 . S
C381 H384 0.999 . S
C382 H352 0.950 . S
C382 C381 1.524 . S
C382 C383 1.415 . S
C383 H353 0.950 . S
C383 C378 1.363 . S
C383 C382 1.415 . S
H384 C381 0.999 . S
H385 C366 0.913 . S
H386 C404 0.951 . S
H387 C406 0.951 . S
H388 C408 0.950 . S
H389 C409 0.950 . S
H390 C411 0.950 . S
H391 C414 0.950 . S
H392 C415 0.950 . S
H393 C417 0.950 . S
H394 C418 0.950 . S
H395 C419 0.951 . S
H396 C421 0.951 . S
H397 C423 0.950 . S
H398 C424 0.950 . S
H399 C426 0.950 . S
H400 C429 0.950 . S
H401 C430 0.950 . S
H402 C432 0.950 . S
H403 C433 0.950 1_655 S
C404 H386 0.951 . S
C404 C405 1.366 . S
C404 C406 1.388 . S
C405 C404 1.366 . S
C405 C409 1.385 . S
C406 H387 0.951 . S
C406 C404 1.388 . S
C406 C407 1.366 . S
C407 C406 1.366 . S
C407 C408 1.414 . S
C407 C410 1.499 . S
C408 H388 0.950 . S
C408 C407 1.414 . S
C408 C409 1.374 . S
C409 H389 0.950 . S
C409 C405 1.385 . S
C409 C408 1.374 . S
C410 C407 1.499 . S
C410 C411 1.373 . S
C410 C412 1.389 . S
C411 H390 0.950 . S
C411 C410 1.373 . S
C411 C427 1.377 1_655 S
C412 C410 1.389 . S
C412 C413 1.524 . S
C412 C426 1.377 1_655 S
C413 C412 1.524 . S
C413 C414 1.397 . S
C413 C418 1.363 . S
C414 H391 0.950 . S
C414 C413 1.397 . S
C414 C415 1.334 . S
C415 H392 0.950 . S
C415 C414 1.334 . S
C415 C416 1.287 . S
C416 C415 1.287 . S
C416 C417 1.524 . S
C416 H435 0.913 . S
C417 H393 0.950 . S
C417 C416 1.524 . S
C417 C418 1.415 . S
C418 H394 0.950 . S
C418 C413 1.363 . S
C418 C417 1.415 . S
C419 H395 0.951 . S
C419 C420 1.366 . S
C419 C421 1.388 . S
C420 C419 1.366 . S
C420 C424 1.385 . S
C421 H396 0.951 . S
C421 C419 1.388 . S
C421 C422 1.366 . S
C422 C421 1.366 . S
C422 C423 1.414 . S
C422 C425 1.499 . S
C423 H397 0.950 . S
C423 C422 1.414 . S
C423 C424 1.374 . S
C424 H398 0.950 . S
C424 C420 1.385 . S
C424 C423 1.374 . S
C425 C422 1.499 . S
C425 C426 1.373 . S
C425 C427 1.389 . S
C426 H399 0.950 . S
C426 C412 1.377 1_455 S
C426 C425 1.373 . S
C427 C411 1.377 1_455 S
C427 C425 1.389 . S
C427 C428 1.524 . S
C428 C427 1.524 . S
C428 C429 1.397 . S
C428 C433 1.363 . S
C429 H400 0.950 . S
C429 C428 1.397 . S
C429 C430 1.334 . S
C430 H401 0.950 . S
C430 C429 1.334 . S
C430 C431 1.287 . S
C431 C430 1.287 . S
C431 C432 1.524 . S
C431 H434 0.999 . S
C432 H402 0.950 . S
C432 C431 1.524 . S
C432 C433 1.415 . S
C433 H403 0.950 1_455 S
C433 C428 1.363 . S
C433 C432 1.415 . S
H434 C431 0.999 . S
H435 C416 0.913 . S
H436 C454 0.951 . S
H437 C456 0.951 . S
H438 C458 0.950 . S
H439 C459 0.950 . S
H440 C461 0.950 . S
H441 C464 0.950 . S
H442 C465 0.950 . S
H443 C467 0.950 . S
H444 C468 0.950 . S
H445 C469 0.951 . S
H446 C471 0.951 . S
H447 C473 0.950 . S
H448 C474 0.950 . S
H449 C476 0.950 . S
H450 C479 0.950 . S
H451 C480 0.950 . S
H452 C482 0.950 . S
H453 C483 0.950 . S
C454 H436 0.951 . S
C454 C455 1.366 . S
C454 C456 1.388 . S
C455 C454 1.366 . S
C455 C459 1.385 . S
C456 H437 0.951 . S
C456 C454 1.388 . S
C456 C457 1.366 . S
C457 C456 1.366 . S
C457 C458 1.414 . S
C457 C460 1.499 . S
C458 H438 0.950 . S
C458 C457 1.414 . S
C458 C459 1.374 . S
C459 H439 0.950 . S
C459 C455 1.385 . S
C459 C458 1.374 . S
C460 C457 1.499 . S
C460 C461 1.373 . S
C460 C462 1.389 . S
C461 H440 0.950 . S
C461 C460 1.373 . S
C461 C477 1.377 . S
C462 C460 1.389 . S
C462 C463 1.524 . S
C462 C476 1.377 . S
C463 C462 1.524 . S
C463 C464 1.397 . S
C463 C468 1.363 . S
C464 H441 0.950 . S
C464 C463 1.397 . S
C464 C465 1.334 . S
C465 H442 0.950 . S
C465 C464 1.334 . S
C465 C466 1.287 . S
C466 C465 1.287 . S
C466 C467 1.524 . S
C466 H485 0.913 . S
C467 H443 0.950 . S
C467 C466 1.524 . S
C467 C468 1.415 . S
C468 H444 0.950 . S
C468 C463 1.363 . S
C468 C467 1.415 . S
C469 H445 0.951 . S
C469 C470 1.366 . S
C469 C471 1.388 . S
C470 C469 1.366 . S
C470 C474 1.385 . S
C471 H446 0.951 . S
C471 C469 1.388 . S
C471 C472 1.366 . S
C472 C471 1.366 . S
C472 C473 1.414 . S
C472 C475 1.499 . S
C473 H447 0.950 . S
C473 C472 1.414 . S
C473 C474 1.374 . S
C474 H448 0.950 . S
C474 C470 1.385 . S
C474 C473 1.374 . S
C475 C472 1.499 . S
C475 C476 1.373 . S
C475 C477 1.389 . S
C476 H449 0.950 . S
C476 C462 1.377 . S
C476 C475 1.373 . S
C477 C461 1.377 . S
C477 C475 1.389 . S
C477 C478 1.524 . S
C478 C477 1.524 . S
C478 C479 1.397 . S
C478 C483 1.363 . S
C479 H450 0.950 . S
C479 C478 1.397 . S
C479 C480 1.334 . S
C480 H451 0.950 . S
C480 C479 1.334 . S
C480 C481 1.287 . S
C481 C480 1.287 . S
C481 C482 1.524 . S
C481 H484 0.999 . S
C482 H452 0.950 . S
C482 C481 1.524 . S
C482 C483 1.415 . S
C483 H453 0.950 . S
C483 C478 1.363 . S
C483 C482 1.415 . S
H484 C481 0.999 . S
H485 C466 0.913 . S
H486 C504 0.951 . S
H487 C506 0.951 . S
H488 C508 0.950 . S
H489 C509 0.950 . S
H490 C511 0.950 . S
H491 C514 0.950 . S
H492 C515 0.950 . S
H493 C517 0.950 . S
H494 C518 0.950 . S
H495 C519 0.951 . S
H496 C521 0.951 . S
H497 C523 0.950 . S
H498 C524 0.950 . S
H499 C526 0.950 . S
H500 C529 0.950 . S
H501 C530 0.950 . S
H502 C532 0.950 . S
H503 C533 0.950 1_455 S
C504 H486 0.951 . S
C504 C505 1.366 . S
C504 C506 1.388 . S
C505 C504 1.366 . S
C505 C509 1.385 . S
C506 H487 0.951 . S
C506 C504 1.388 . S
C506 C507 1.366 . S
C507 C506 1.366 . S
C507 C508 1.414 . S
C507 C510 1.499 . S
C508 H488 0.950 . S
C508 C507 1.414 . S
C508 C509 1.374 . S
C509 H489 0.950 . S
C509 C505 1.385 . S
C509 C508 1.374 . S
C510 C507 1.499 . S
C510 C511 1.373 . S
C510 C512 1.389 . S
C511 H490 0.950 . S
C511 C510 1.373 . S
C511 C527 1.377 1_455 S
C512 C510 1.389 . S
C512 C513 1.524 . S
C512 C526 1.377 1_455 S
C513 C512 1.524 . S
C513 C514 1.397 . S
C513 C518 1.363 . S
C514 H491 0.950 . S
C514 C513 1.397 . S
C514 C515 1.334 . S
C515 H492 0.950 . S
C515 C514 1.334 . S
C515 C516 1.287 . S
C516 C515 1.287 . S
C516 C517 1.524 . S
C516 H535 0.913 . S
C517 H493 0.950 . S
C517 C516 1.524 . S
C517 C518 1.415 . S
C518 H494 0.950 . S
C518 C513 1.363 . S
C518 C517 1.415 . S
C519 H495 0.951 . S
C519 C520 1.366 . S
C519 C521 1.388 . S
C520 C519 1.366 . S
C520 C524 1.385 . S
C521 H496 0.951 . S
C521 C519 1.388 . S
C521 C522 1.366 . S
C522 C521 1.366 . S
C522 C523 1.414 . S
C522 C525 1.499 . S
C523 H497 0.950 . S
C523 C522 1.414 . S
C523 C524 1.374 . S
C524 H498 0.950 . S
C524 C520 1.385 . S
C524 C523 1.374 . S
C525 C522 1.499 . S
C525 C526 1.373 . S
C525 C527 1.389 . S
C526 H499 0.950 . S
C526 C512 1.377 1_655 S
C526 C525 1.373 . S
C527 C511 1.377 1_655 S
C527 C525 1.389 . S
C527 C528 1.524 . S
C528 C527 1.524 . S
C528 C529 1.397 . S
C528 C533 1.363 . S
C529 H500 0.950 . S
C529 C528 1.397 . S
C529 C530 1.334 . S
C530 H501 0.950 . S
C530 C529 1.334 . S
C530 C531 1.287 . S
C531 C530 1.287 . S
C531 C532 1.524 . S
C531 H534 0.999 . S
C532 H502 0.950 . S
C532 C531 1.524 . S
C532 C533 1.415 . S
C533 H503 0.950 1_655 S
C533 C528 1.363 . S
C533 C532 1.415 . S
H534 C531 0.999 . S
H535 C516 0.913 . S
H536 C554 0.951 . S
H537 C556 0.951 . S
H538 C558 0.950 . S
H539 C559 0.950 . S
H540 C561 0.950 . S
H541 C564 0.950 . S
H542 C565 0.950 . S
H543 C567 0.950 . S
H544 C568 0.950 . S
H545 C569 0.951 . S
H546 C571 0.951 . S
H547 C573 0.950 . S
H548 C574 0.950 . S
H549 C576 0.950 . S
H550 C579 0.950 . S
H551 C580 0.950 . S
H552 C582 0.950 . S
H553 C583 0.950 . S
C554 H536 0.951 . S
C554 C555 1.366 . S
C554 C556 1.388 . S
C555 C554 1.366 . S
C555 C559 1.385 . S
C556 H537 0.951 . S
C556 C554 1.388 . S
C556 C557 1.366 . S
C557 C556 1.366 . S
C557 C558 1.414 . S
C557 C560 1.499 . S
C558 H538 0.950 . S
C558 C557 1.414 . S
C558 C559 1.374 . S
C559 H539 0.950 . S
C559 C555 1.385 . S
C559 C558 1.374 . S
C560 C557 1.499 . S
C560 C561 1.373 . S
C560 C562 1.389 . S
C561 H540 0.950 . S
C561 C560 1.373 . S
C561 C577 1.377 . S
C562 C560 1.389 . S
C562 C563 1.524 . S
C562 C576 1.377 . S
C563 C562 1.524 . S
C563 C564 1.397 . S
C563 C568 1.363 . S
C564 H541 0.950 . S
C564 C563 1.397 . S
C564 C565 1.334 . S
C565 H542 0.950 . S
C565 C564 1.334 . S
C565 C566 1.287 . S
C566 C565 1.287 . S
C566 C567 1.524 . S
C566 H585 0.913 . S
C567 H543 0.950 . S
C567 C566 1.524 . S
C567 C568 1.415 . S
C568 H544 0.950 . S
C568 C563 1.363 . S
C568 C567 1.415 . S
C569 H545 0.951 . S
C569 C570 1.366 . S
C569 C571 1.388 . S
C570 C569 1.366 . S
C570 C574 1.385 . S
C571 H546 0.951 . S
C571 C569 1.388 . S
C571 C572 1.366 . S
C572 C571 1.366 . S
C572 C573 1.414 . S
C572 C575 1.499 . S
C573 H547 0.950 . S
C573 C572 1.414 . S
C573 C574 1.374 . S
C574 H548 0.950 . S
C574 C570 1.385 . S
C574 C573 1.374 . S
C575 C572 1.499 . S
C575 C576 1.373 . S
C575 C577 1.389 . S
C576 H549 0.950 . S
C576 C562 1.377 . S
C576 C575 1.373 . S
C577 C561 1.377 . S
C577 C575 1.389 . S
C577 C578 1.524 . S
C578 C577 1.524 . S
C578 C579 1.397 . S
C578 C583 1.363 . S
C579 H550 0.950 . S
C579 C578 1.397 . S
C579 C580 1.334 . S
C580 H551 0.950 . S
C580 C579 1.334 . S
C580 C581 1.287 . S
C581 C580 1.287 . S
C581 C582 1.524 . S
C581 H584 0.999 . S
C582 H552 0.950 . S
C582 C581 1.524 . S
C582 C583 1.415 . S
C583 H553 0.950 . S
C583 C578 1.363 . S
C583 C582 1.415 . S
H584 C581 0.999 . S
H585 C566 0.913 . S
H586 C604 0.951 . S
H587 C606 0.951 . S
H588 C608 0.950 . S
H589 C609 0.950 . S
H590 C611 0.950 . S
H591 C614 0.950 . S
H592 C615 0.950 . S
H593 C617 0.950 . S
H594 C618 0.925 1_455 S
H595 C619 0.951 . S
H596 C621 0.951 . S
H597 C623 0.950 . S
H598 C624 0.950 . S
H599 C626 0.950 . S
H600 C629 0.950 . S
H601 C630 0.950 . S
H602 C632 0.950 . S
H603 C633 0.950 . S
C604 H586 0.951 . S
C604 C605 1.366 . S
C604 C606 1.388 . S
C605 C604 1.366 . S
C605 C609 1.385 . S
C606 H587 0.951 . S
C606 C604 1.388 . S
C606 C607 1.366 . S
C607 C606 1.366 . S
C607 C608 1.414 . S
C607 C610 1.499 . S
C608 H588 0.950 . S
C608 C607 1.414 . S
C608 C609 1.374 . S
C609 H589 0.950 . S
C609 C605 1.385 . S
C609 C608 1.374 . S
C610 C607 1.499 . S
C610 C611 1.373 . S
C610 C612 1.389 . S
C611 H590 0.950 . S
C611 C610 1.373 . S
C611 C627 1.377 1_655 S
C612 C610 1.389 . S
C612 C613 1.524 . S
C612 C626 1.377 1_655 S
C613 C612 1.524 . S
C613 C614 1.397 . S
C613 C618 1.363 . S
C614 H591 0.950 . S
C614 C613 1.397 . S
C614 C615 1.334 . S
C615 H592 0.950 . S
C615 C614 1.334 . S
C615 C616 1.287 . S
C616 C615 1.287 . S
C616 C617 1.524 . S
C616 H635 0.913 . S
C617 H593 0.950 . S
C617 C616 1.524 . S
C617 C618 1.415 . S
C618 H594 0.925 1_655 S
C618 C613 1.363 . S
C618 C617 1.415 . S
C619 H595 0.951 . S
C619 C620 1.366 . S
C619 C621 1.388 . S
C620 C619 1.366 . S
C620 C624 1.385 . S
C621 H596 0.951 . S
C621 C619 1.388 . S
C621 C622 1.366 . S
C622 C621 1.366 . S
C622 C623 1.414 . S
C622 C625 1.499 . S
C623 H597 0.950 . S
C623 C622 1.414 . S
C623 C624 1.374 . S
C624 H598 0.950 . S
C624 C620 1.385 . S
C624 C623 1.374 . S
C625 C622 1.499 . S
C625 C626 1.373 . S
C625 C627 1.389 . S
C626 H599 0.950 . S
C626 C612 1.377 1_455 S
C626 C625 1.373 . S
C627 C611 1.377 1_455 S
C627 C625 1.389 . S
C627 C628 1.524 . S
C628 C627 1.524 . S
C628 C629 1.397 . S
C628 C633 1.363 . S
C629 H600 0.950 . S
C629 C628 1.397 . S
C629 C630 1.334 . S
C630 H601 0.950 . S
C630 C629 1.334 . S
C630 C631 1.287 . S
C631 C630 1.287 . S
C631 C632 1.524 . S
C631 H634 0.999 . S
C632 H602 0.950 . S
C632 C631 1.524 . S
C632 C633 1.415 . S
C633 H603 0.950 . S
C633 C628 1.363 . S
C633 C632 1.415 . S
H634 C631 0.999 . S
H635 C616 0.913 . S
H636 C654 0.951 . S
H637 C656 0.951 . S
H638 C658 0.950 . S
H639 C659 0.950 . S
H640 C661 0.950 . S
H641 C664 0.950 . S
H642 C665 0.950 . S
H643 C667 0.950 . S
H644 C668 0.950 . S
H645 C669 0.951 . S
H646 C671 0.951 . S
H647 C673 0.950 . S
H648 C674 0.950 . S
H649 C676 0.950 . S
H650 C679 0.950 . S
H651 C680 0.950 . S
H652 C682 0.950 . S
H653 C683 0.950 . S
C654 H636 0.951 . S
C654 C655 1.366 . S
C654 C656 1.388 . S
C655 C654 1.366 . S
C655 C659 1.385 . S
C656 H637 0.951 . S
C656 C654 1.388 . S
C656 C657 1.366 . S
C657 C656 1.366 . S
C657 C658 1.414 . S
C657 C660 1.499 . S
C658 H638 0.950 . S
C658 C657 1.414 . S
C658 C659 1.374 . S
C659 H639 0.950 . S
C659 C655 1.385 . S
C659 C658 1.374 . S
C660 C657 1.499 . S
C660 C661 1.373 . S
C660 C662 1.389 . S
C661 H640 0.950 . S
C661 C660 1.373 . S
C661 C677 1.377 . S
C662 C660 1.389 . S
C662 C663 1.524 . S
C662 C676 1.377 . S
C663 C662 1.524 . S
C663 C664 1.397 . S
C663 C668 1.363 . S
C664 H641 0.950 . S
C664 C663 1.397 . S
C664 C665 1.334 . S
C665 H642 0.950 . S
C665 C664 1.334 . S
C665 C666 1.287 . S
C666 C665 1.287 . S
C666 C667 1.524 . S
C666 H685 0.913 . S
C667 H643 0.950 . S
C667 C666 1.524 . S
C667 C668 1.415 . S
C668 H644 0.950 . S
C668 C663 1.363 . S
C668 C667 1.415 . S
C669 H645 0.951 . S
C669 C670 1.366 . S
C669 C671 1.388 . S
C670 C669 1.366 . S
C670 C674 1.385 . S
C671 H646 0.951 . S
C671 C669 1.388 . S
C671 C672 1.366 . S
C672 C671 1.366 . S
C672 C673 1.414 . S
C672 C675 1.499 . S
C673 H647 0.950 . S
C673 C672 1.414 . S
C673 C674 1.374 . S
C674 H648 0.950 . S
C674 C670 1.385 . S
C674 C673 1.374 . S
C675 C672 1.499 . S
C675 C676 1.373 . S
C675 C677 1.389 . S
C676 H649 0.950 . S
C676 C662 1.377 . S
C676 C675 1.373 . S
C677 C661 1.377 . S
C677 C675 1.389 . S
C677 C678 1.524 . S
C678 C677 1.524 . S
C678 C679 1.397 . S
C678 C683 1.363 . S
C679 H650 0.950 . S
C679 C678 1.397 . S
C679 C680 1.334 . S
C680 H651 0.950 . S
C680 C679 1.334 . S
C680 C681 1.287 . S
C681 C680 1.287 . S
C681 C682 1.524 . S
C681 H684 0.999 . S
C682 H652 0.950 . S
C682 C681 1.524 . S
C682 C683 1.415 . S
C683 H653 0.950 . S
C683 C678 1.363 . S
C683 C682 1.415 . S
H684 C681 0.999 . S
H685 C666 0.913 . S
H686 C704 0.951 . S
H687 C706 0.951 . S
H688 C708 0.950 . S
H689 C709 0.950 . S
H690 C711 0.950 . S
H691 C714 0.950 . S
H692 C715 0.950 . S
H693 C717 0.950 . S
H694 C718 0.950 . S
H695 C719 0.951 . S
H696 C721 0.951 . S
H697 C723 0.950 . S
H698 C724 0.950 . S
H699 C726 0.950 . S
H700 C729 0.950 . S
H701 C730 0.950 . S
H702 C732 0.950 . S
H703 C733 0.950 . S
C704 H686 0.951 . S
C704 C705 1.366 . S
C704 C706 1.388 . S
C705 C704 1.366 . S
C705 C709 1.385 . S
C706 H687 0.951 . S
C706 C704 1.388 . S
C706 C707 1.366 . S
C707 C706 1.366 . S
C707 C708 1.414 . S
C707 C710 1.499 . S
C708 H688 0.950 . S
C708 C707 1.414 . S
C708 C709 1.374 . S
C709 H689 0.950 . S
C709 C705 1.385 . S
C709 C708 1.374 . S
C710 C707 1.499 . S
C710 C711 1.373 . S
C710 C712 1.389 . S
C711 H690 0.950 . S
C711 C710 1.373 . S
C711 C727 1.377 1_655 S
C712 C710 1.389 . S
C712 C713 1.524 . S
C712 C726 1.377 1_655 S
C713 C712 1.524 . S
C713 C714 1.397 . S
C713 C718 1.363 . S
C714 H691 0.950 . S
C714 C713 1.397 . S
C714 C715 1.334 . S
C715 H692 0.950 . S
C715 C714 1.334 . S
C715 C716 1.287 . S
C716 C715 1.287 . S
C716 C717 1.524 . S
C716 H735 0.913 . S
C717 H693 0.950 . S
C717 C716 1.524 . S
C717 C718 1.415 . S
C718 H694 0.950 . S
C718 C713 1.363 . S
C718 C717 1.415 . S
C719 H695 0.951 . S
C719 C720 1.366 . S
C719 C721 1.388 . S
C720 C719 1.366 . S
C720 C724 1.385 . S
C721 H696 0.951 . S
C721 C719 1.388 . S
C721 C722 1.366 . S
C722 C721 1.366 . S
C722 C723 1.414 . S
C722 C725 1.499 . S
C723 H697 0.950 . S
C723 C722 1.414 . S
C723 C724 1.374 . S
C724 H698 0.950 . S
C724 C720 1.385 . S
C724 C723 1.374 . S
C725 C722 1.499 . S
C725 C726 1.373 . S
C725 C727 1.389 . S
C726 H699 0.950 . S
C726 C712 1.377 1_455 S
C726 C725 1.373 . S
C727 C711 1.377 1_455 S
C727 C725 1.389 . S
C727 C728 1.524 . S
C728 C727 1.524 . S
C728 C729 1.397 . S
C728 C733 1.363 . S
C729 H700 0.950 . S
C729 C728 1.397 . S
C729 C730 1.334 . S
C730 H701 0.950 . S
C730 C729 1.334 . S
C730 C731 1.287 . S
C731 C730 1.287 . S
C731 C732 1.524 . S
C731 H734 0.999 . S
C732 H702 0.950 . S
C732 C731 1.524 . S
C732 C733 1.415 . S
C733 H703 0.950 . S
C733 C728 1.363 . S
C733 C732 1.415 . S
H734 C731 0.999 . S
H735 C716 0.913 . S
H736 C754 0.951 . S
H737 C756 0.951 . S
H738 C758 0.950 . S
H739 C759 0.950 . S
H740 C761 0.950 . S
H741 C764 0.950 . S
H742 C765 0.950 . S
H743 C767 0.950 . S
H744 C768 0.950 . S
H745 C769 0.951 . S
H746 C771 0.951 . S
H747 C773 0.950 . S
H748 C774 0.950 . S
H749 C776 0.950 . S
H750 C779 0.950 . S
H751 C780 0.950 . S
H752 C782 0.950 . S
H753 C783 0.950 . S
C754 H736 0.951 . S
C754 C755 1.366 . S
C754 C756 1.388 . S
C755 C754 1.366 . S
C755 C759 1.385 . S
C756 H737 0.951 . S
C756 C754 1.388 . S
C756 C757 1.366 . S
C757 C756 1.366 . S
C757 C758 1.414 . S
C757 C760 1.499 . S
C758 H738 0.950 . S
C758 C757 1.414 . S
C758 C759 1.374 . S
C759 H739 0.950 . S
C759 C755 1.385 . S
C759 C758 1.374 . S
C760 C757 1.499 . S
C760 C761 1.373 . S
C760 C762 1.389 . S
C761 H740 0.950 . S
C761 C760 1.373 . S
C761 C777 1.377 . S
C762 C760 1.389 . S
C762 C763 1.524 . S
C762 C776 1.377 . S
C763 C762 1.524 . S
C763 C764 1.397 . S
C763 C768 1.363 . S
C764 H741 0.950 . S
C764 C763 1.397 . S
C764 C765 1.334 . S
C765 H742 0.950 . S
C765 C764 1.334 . S
C765 C766 1.287 . S
C766 C765 1.287 . S
C766 C767 1.524 . S
C766 H785 0.913 . S
C767 H743 0.950 . S
C767 C766 1.524 . S
C767 C768 1.415 . S
C768 H744 0.950 . S
C768 C763 1.363 . S
C768 C767 1.415 . S
C769 H745 0.951 . S
C769 C770 1.366 . S
C769 C771 1.388 . S
C770 C769 1.366 . S
C770 C774 1.385 . S
C771 H746 0.951 . S
C771 C769 1.388 . S
C771 C772 1.366 . S
C772 C771 1.366 . S
C772 C773 1.414 . S
C772 C775 1.499 . S
C773 H747 0.950 . S
C773 C772 1.414 . S
C773 C774 1.374 . S
C774 H748 0.950 . S
C774 C770 1.385 . S
C774 C773 1.374 . S
C775 C772 1.499 . S
C775 C776 1.373 . S
C775 C777 1.389 . S
C776 H749 0.950 . S
C776 C762 1.377 . S
C776 C775 1.373 . S
C777 C761 1.377 . S
C777 C775 1.389 . S
C777 C778 1.524 . S
C778 C777 1.524 . S
C778 C779 1.397 . S
C778 C783 1.363 . S
C779 H750 0.950 . S
C779 C778 1.397 . S
C779 C780 1.334 . S
C780 H751 0.950 . S
C780 C779 1.334 . S
C780 C781 1.287 . S
C781 C780 1.287 . S
C781 C782 1.524 . S
C781 H784 0.999 . S
C782 H752 0.950 . S
C782 C781 1.524 . S
C782 C783 1.415 . S
C783 H753 0.950 . S
C783 C778 1.363 . S
C783 C782 1.415 . S
H784 C781 0.999 . S
H785 C766 0.913 . S
H786 C804 0.951 . S
H787 C806 0.951 . S
H788 C808 0.950 . S
H789 C809 0.950 . S
H790 C811 0.950 . S
H791 C814 0.950 . S
H792 C815 0.950 . S
H793 C817 0.950 . S
H794 C818 0.950 . S
H795 C819 0.951 . S
H796 C821 0.951 . S
H797 C823 0.950 . S
H798 C824 0.950 . S
H799 C826 0.950 . S
H800 C829 0.950 . S
H801 C830 0.950 . S
H802 C832 0.950 . S
H803 C833 0.950 . S
C804 H786 0.951 . S
C804 C805 1.366 . S
C804 C806 1.388 . S
C805 C804 1.366 . S
C805 C809 1.385 . S
C806 H787 0.951 . S
C806 C804 1.388 . S
C806 C807 1.366 . S
C807 C806 1.366 . S
C807 C808 1.414 . S
C807 C810 1.499 . S
C808 H788 0.950 . S
C808 C807 1.414 . S
C808 C809 1.374 . S
C809 H789 0.950 . S
C809 C805 1.385 . S
C809 C808 1.374 . S
C810 C807 1.499 . S
C810 C811 1.373 . S
C810 C812 1.389 . S
C811 H790 0.950 . S
C811 C810 1.373 . S
C811 C827 1.377 1_556 S
C812 C810 1.389 . S
C812 C813 1.524 . S
C812 C826 1.377 1_556 S
C813 C812 1.524 . S
C813 C814 1.397 . S
C813 C818 1.363 . S
C814 H791 0.950 . S
C814 C813 1.397 . S
C814 C815 1.334 . S
C815 H792 0.950 . S
C815 C814 1.334 . S
C815 C816 1.287 . S
C816 C815 1.287 . S
C816 C817 1.524 . S
C816 H835 0.913 . S
C817 H793 0.950 . S
C817 C816 1.524 . S
C817 C818 1.415 . S
C818 H794 0.950 . S
C818 C813 1.363 . S
C818 C817 1.415 . S
C819 H795 0.951 . S
C819 C820 1.366 . S
C819 C821 1.388 . S
C820 C819 1.366 . S
C820 C824 1.385 . S
C821 H796 0.951 . S
C821 C819 1.388 . S
C821 C822 1.366 . S
C822 C821 1.366 . S
C822 C823 1.414 . S
C822 C825 1.499 . S
C823 H797 0.950 . S
C823 C822 1.414 . S
C823 C824 1.374 . S
C824 H798 0.950 . S
C824 C820 1.385 . S
C824 C823 1.374 . S
C825 C822 1.499 . S
C825 C826 1.373 . S
C825 C827 1.389 . S
C826 H799 0.950 . S
C826 C812 1.377 1_554 S
C826 C825 1.373 . S
C827 C811 1.377 1_554 S
C827 C825 1.389 . S
C827 C828 1.524 . S
C828 C827 1.524 . S
C828 C829 1.397 . S
C828 C833 1.363 . S
C829 H800 0.950 . S
C829 C828 1.397 . S
C829 C830 1.334 . S
C830 H801 0.950 . S
C830 C829 1.334 . S
C830 C831 1.287 . S
C831 C830 1.287 . S
C831 C832 1.524 . S
C831 H834 0.999 . S
C832 H802 0.950 . S
C832 C831 1.524 . S
C832 C833 1.415 . S
C833 H803 0.950 . S
C833 C828 1.363 . S
C833 C832 1.415 . S
H834 C831 0.999 . S
H835 C816 0.913 . S
H836 C854 0.951 . S
H837 C856 0.951 . S
H838 C858 0.950 . S
H839 C859 0.950 . S
H840 C861 0.950 . S
H841 C864 0.950 . S
H842 C865 0.950 . S
H843 C867 0.950 . S
H844 C868 0.950 . S
H845 C869 0.951 . S
H846 C871 0.951 . S
H847 C873 0.950 . S
H848 C874 0.950 . S
H849 C876 0.950 . S
H850 C879 0.950 . S
H851 C880 0.950 . S
H852 C882 0.950 . S
H853 C883 0.950 . S
C854 H836 0.951 . S
C854 C855 1.366 . S
C854 C856 1.388 . S
C855 C854 1.366 . S
C855 C859 1.385 . S
C856 H837 0.951 . S
C856 C854 1.388 . S
C856 C857 1.366 . S
C857 C856 1.366 . S
C857 C858 1.414 . S
C857 C860 1.499 . S
C858 H838 0.950 . S
C858 C857 1.414 . S
C858 C859 1.374 . S
C859 H839 0.950 . S
C859 C855 1.385 . S
C859 C858 1.374 . S
C860 C857 1.499 . S
C860 C861 1.373 . S
C860 C862 1.389 . S
C861 H840 0.950 . S
C861 C860 1.373 . S
C861 C877 1.377 . S
C862 C860 1.389 . S
C862 C863 1.524 . S
C862 C876 1.377 . S
C863 C862 1.524 . S
C863 C864 1.397 . S
C863 C868 1.363 . S
C864 H841 0.950 . S
C864 C863 1.397 . S
C864 C865 1.334 . S
C865 H842 0.950 . S
C865 C864 1.334 . S
C865 C866 1.287 . S
C866 C865 1.287 . S
C866 C867 1.524 . S
C866 H885 0.913 . S
C867 H843 0.950 . S
C867 C866 1.524 . S
C867 C868 1.415 . S
C868 H844 0.950 . S
C868 C863 1.363 . S
C868 C867 1.415 . S
C869 H845 0.951 . S
C869 C870 1.366 . S
C869 C871 1.388 . S
C870 C869 1.366 . S
C870 C874 1.385 . S
C871 H846 0.951 . S
C871 C869 1.388 . S
C871 C872 1.366 . S
C872 C871 1.366 . S
C872 C873 1.414 . S
C872 C875 1.499 . S
C873 H847 0.950 . S
C873 C872 1.414 . S
C873 C874 1.374 . S
C874 H848 0.950 . S
C874 C870 1.385 . S
C874 C873 1.374 . S
C875 C872 1.499 . S
C875 C876 1.373 . S
C875 C877 1.389 . S
C876 H849 0.950 . S
C876 C862 1.377 . S
C876 C875 1.373 . S
C877 C861 1.377 . S
C877 C875 1.389 . S
C877 C878 1.524 . S
C878 C877 1.524 . S
C878 C879 1.397 . S
C878 C883 1.363 . S
C879 H850 0.950 . S
C879 C878 1.397 . S
C879 C880 1.334 . S
C880 H851 0.950 . S
C880 C879 1.334 . S
C880 C881 1.287 . S
C881 C880 1.287 . S
C881 C882 1.524 . S
C881 H884 0.999 . S
C882 H852 0.950 . S
C882 C881 1.524 . S
C882 C883 1.415 . S
C883 H853 0.950 . S
C883 C878 1.363 . S
C883 C882 1.415 . S
H884 C881 0.999 . S
H885 C866 0.913 . S
H886 C904 0.951 . S
H887 C906 0.951 . S
H888 C908 0.950 . S
H889 C909 0.950 . S
H890 C911 0.950 . S
H891 C914 0.950 . S
H892 C915 0.950 . S
H893 C917 0.950 . S
H894 C918 0.950 . S
H895 C919 0.951 . S
H896 C921 0.951 . S
H897 C923 0.950 . S
H898 C924 0.950 . S
H899 C926 0.950 . S
H900 C929 0.950 . S
H901 C930 0.950 . S
H902 C932 0.950 . S
H903 C933 0.950 . S
C904 H886 0.951 . S
C904 C905 1.366 . S
C904 C906 1.388 . S
C905 C904 1.366 . S
C905 C909 1.385 . S
C906 H887 0.951 . S
C906 C904 1.388 . S
C906 C907 1.366 . S
C907 C906 1.366 . S
C907 C908 1.414 . S
C907 C910 1.499 . S
C908 H888 0.950 . S
C908 C907 1.414 . S
C908 C909 1.374 . S
C909 H889 0.950 . S
C909 C905 1.385 . S
C909 C908 1.374 . S
C910 C907 1.499 . S
C910 C911 1.373 . S
C910 C912 1.389 . S
C911 H890 0.950 . S
C911 C910 1.373 . S
C911 C927 1.377 1_554 S
C912 C910 1.389 . S
C912 C913 1.524 . S
C912 C926 1.377 1_554 S
C913 C912 1.524 . S
C913 C914 1.397 . S
C913 C918 1.363 . S
C914 H891 0.950 . S
C914 C913 1.397 . S
C914 C915 1.334 . S
C915 H892 0.950 . S
C915 C914 1.334 . S
C915 C916 1.287 . S
C916 C915 1.287 . S
C916 C917 1.524 . S
C916 H935 0.913 . S
C917 H893 0.950 . S
C917 C916 1.524 . S
C917 C918 1.415 . S
C918 H894 0.950 . S
C918 C913 1.363 . S
C918 C917 1.415 . S
C919 H895 0.951 . S
C919 C920 1.366 . S
C919 C921 1.388 . S
C920 C919 1.366 . S
C920 C924 1.385 . S
C921 H896 0.951 . S
C921 C919 1.388 . S
C921 C922 1.366 . S
C922 C921 1.366 . S
C922 C923 1.414 . S
C922 C925 1.499 . S
C923 H897 0.950 . S
C923 C922 1.414 . S
C923 C924 1.374 . S
C924 H898 0.950 . S
C924 C920 1.385 . S
C924 C923 1.374 . S
C925 C922 1.499 . S
C925 C926 1.373 . S
C925 C927 1.389 . S
C926 H899 0.950 . S
C926 C912 1.377 1_556 S
C926 C925 1.373 . S
C927 C911 1.377 1_556 S
C927 C925 1.389 . S
C927 C928 1.524 . S
C928 C927 1.524 . S
C928 C929 1.397 . S
C928 C933 1.363 . S
C929 H900 0.950 . S
C929 C928 1.397 . S
C929 C930 1.334 . S
C930 H901 0.950 . S
C930 C929 1.334 . S
C930 C931 1.287 . S
C931 C930 1.287 . S
C931 C932 1.524 . S
C931 H934 0.999 . S
C932 H902 0.950 . S
C932 C931 1.524 . S
C932 C933 1.415 . S
C933 H903 0.950 . S
C933 C928 1.363 . S
C933 C932 1.415 . S
H934 C931 0.999 . S
H935 C916 0.913 . S
H936 C954 0.951 . S
H937 C956 0.951 . S
H938 C958 0.950 . S
H939 C959 0.950 . S
H940 C961 0.950 . S
H941 C964 0.950 . S
H942 C965 0.950 . S
H943 C967 0.950 . S
H944 C968 0.950 . S
H945 C969 0.951 . S
H946 C971 0.951 . S
H947 C973 0.950 . S
H948 C974 0.950 . S
H949 C976 0.950 . S
H950 C979 0.950 . S
H951 C980 0.950 . S
H952 C982 0.950 . S
H953 C983 0.950 . S
C954 H936 0.951 . S
C954 C955 1.366 . S
C954 C956 1.388 . S
C955 C954 1.366 . S
C955 C959 1.385 . S
C956 H937 0.951 . S
C956 C954 1.388 . S
C956 C957 1.366 . S
C957 C956 1.366 . S
C957 C958 1.414 . S
C957 C960 1.499 . S
C958 H938 0.950 . S
C958 C957 1.414 . S
C958 C959 1.374 . S
C959 H939 0.950 . S
C959 C955 1.385 . S
C959 C958 1.374 . S
C960 C957 1.499 . S
C960 C961 1.373 . S
C960 C962 1.389 . S
C961 H940 0.950 . S
C961 C960 1.373 . S
C961 C977 1.377 . S
C962 C960 1.389 . S
C962 C963 1.524 . S
C962 C976 1.377 . S
C963 C962 1.524 . S
C963 C964 1.397 . S
C963 C968 1.363 . S
C964 H941 0.950 . S
C964 C963 1.397 . S
C964 C965 1.334 . S
C965 H942 0.950 . S
C965 C964 1.334 . S
C965 C966 1.287 . S
C966 C965 1.287 . S
C966 C967 1.524 . S
C966 H985 0.913 . S
C967 H943 0.950 . S
C967 C966 1.524 . S
C967 C968 1.415 . S
C968 H944 0.950 . S
C968 C963 1.363 . S
C968 C967 1.415 . S
C969 H945 0.951 . S
C969 C970 1.366 . S
C969 C971 1.388 . S
C970 C969 1.366 . S
C970 C974 1.385 . S
C971 H946 0.951 . S
C971 C969 1.388 . S
C971 C972 1.366 . S
C972 C971 1.366 . S
C972 C973 1.414 . S
C972 C975 1.499 . S
C973 H947 0.950 . S
C973 C972 1.414 . S
C973 C974 1.374 . S
C974 H948 0.950 . S
C974 C970 1.385 . S
C974 C973 1.374 . S
C975 C972 1.499 . S
C975 C976 1.373 . S
C975 C977 1.389 . S
C976 H949 0.950 . S
C976 C962 1.377 . S
C976 C975 1.373 . S
C977 C961 1.377 . S
C977 C975 1.389 . S
C977 C978 1.524 . S
C978 C977 1.524 . S
C978 C979 1.397 . S
C978 C983 1.363 . S
C979 H950 0.950 . S
C979 C978 1.397 . S
C979 C980 1.334 . S
C980 H951 0.950 . S
C980 C979 1.334 . S
C980 C981 1.287 . S
C981 C980 1.287 . S
C981 C982 1.524 . S
C981 H984 0.999 . S
C982 H952 0.950 . S
C982 C981 1.524 . S
C982 C983 1.415 . S
C983 H953 0.950 . S
C983 C978 1.363 . S
C983 C982 1.415 . S
H984 C981 0.999 . S
H985 C966 0.913 . S
H986 C1004 0.951 . S
H987 C1006 0.951 . S
H988 C1008 0.950 . S
H989 C1009 0.950 . S
H990 C1011 0.950 . S
H991 C1014 0.950 . S
H992 C1015 0.950 . S
H993 C1017 0.950 . S
H994 C1018 0.950 . S
H995 C1019 0.951 . S
H996 C1021 0.951 . S
H997 C1023 0.950 . S
H998 C1024 0.950 . S
H999 C1026 0.950 . S
H1000 C1029 0.950 . S
H1001 C1030 0.950 . S
H1002 C1032 0.950 . S
H1003 C1033 0.952 . S
C1004 H986 0.951 . S
C1004 C1005 1.366 . S
C1004 C1006 1.388 . S
C1005 C1004 1.366 . S
C1005 C1009 1.385 . S
C1006 H987 0.951 . S
C1006 C1004 1.388 . S
C1006 C1007 1.366 . S
C1007 C1006 1.366 . S
C1007 C1008 1.414 . S
C1007 C1010 1.499 . S
C1008 H988 0.950 . S
C1008 C1007 1.414 . S
C1008 C1009 1.374 . S
C1009 H989 0.950 . S
C1009 C1005 1.385 . S
C1009 C1008 1.374 . S
C1010 C1007 1.499 . S
C1010 C1011 1.373 . S
C1010 C1012 1.389 . S
C1011 H990 0.950 . S
C1011 C1010 1.373 . S
C1011 C1027 1.377 1_554 S
C1012 C1010 1.389 . S
C1012 C1013 1.524 . S
C1012 C1026 1.377 1_554 S
C1013 C1012 1.524 . S
C1013 C1014 1.397 . S
C1013 C1018 1.363 . S
C1014 H991 0.950 . S
C1014 C1013 1.397 . S
C1014 C1015 1.334 . S
C1015 H992 0.950 . S
C1015 C1014 1.334 . S
C1015 C1016 1.287 . S
C1016 C1015 1.287 . S
C1016 C1017 1.524 . S
C1016 H1035 0.913 . S
C1017 H993 0.950 . S
C1017 C1016 1.524 . S
C1017 C1018 1.415 . S
C1018 H994 0.950 . S
C1018 C1013 1.363 . S
C1018 C1017 1.415 . S
C1019 H995 0.951 . S
C1019 C1020 1.366 . S
C1019 C1021 1.388 . S
C1020 C1019 1.366 . S
C1020 C1024 1.385 . S
C1021 H996 0.951 . S
C1021 C1019 1.388 . S
C1021 C1022 1.366 . S
C1022 C1021 1.366 . S
C1022 C1023 1.414 . S
C1022 C1025 1.499 . S
C1023 H997 0.950 . S
C1023 C1022 1.414 . S
C1023 C1024 1.374 . S
C1024 H998 0.950 . S
C1024 C1020 1.385 . S
C1024 C1023 1.374 . S
C1025 C1022 1.499 . S
C1025 C1026 1.373 . S
C1025 C1027 1.389 . S
C1026 H999 0.950 . S
C1026 C1012 1.377 1_556 S
C1026 C1025 1.373 . S
C1027 C1011 1.377 1_556 S
C1027 C1025 1.389 . S
C1027 C1028 1.524 . S
C1028 C1027 1.524 . S
C1028 C1029 1.397 . S
C1028 C1033 1.363 . S
C1029 H1000 0.950 . S
C1029 C1028 1.397 . S
C1029 C1030 1.334 . S
C1030 H1001 0.950 . S
C1030 C1029 1.334 . S
C1030 C1031 1.287 . S
C1031 C1030 1.287 . S
C1031 C1032 1.524 . S
C1031 H1034 0.999 . S
C1032 H1002 0.950 . S
C1032 C1031 1.524 . S
C1032 C1033 1.415 . S
C1033 H1003 0.952 . S
C1033 C1028 1.363 . S
C1033 C1032 1.415 . S
H1034 C1031 0.999 . S
H1035 C1016 0.913 . S
H1036 C1054 0.951 . S
H1037 C1056 0.951 . S
H1038 C1058 0.950 . S
H1039 C1059 0.950 . S
H1040 C1061 0.950 . S
H1041 C1064 0.950 . S
H1042 C1065 0.950 . S
H1043 C1067 0.950 . S
H1044 C1068 0.950 . S
H1045 C1069 0.951 . S
H1046 C1071 0.951 . S
H1047 C1073 0.950 . S
H1048 C1074 0.950 . S
H1049 C1076 0.950 . S
H1050 C1079 0.950 . S
H1051 C1080 0.950 . S
H1052 C1082 0.950 . S
H1053 C1083 0.950 . S
C1054 H1036 0.951 . S
C1054 C1055 1.366 . S
C1054 C1056 1.388 . S
C1055 C1054 1.366 . S
C1055 C1059 1.385 . S
C1056 H1037 0.951 . S
C1056 C1054 1.388 . S
C1056 C1057 1.366 . S
C1057 C1056 1.366 . S
C1057 C1058 1.414 . S
C1057 C1060 1.499 . S
C1058 H1038 0.950 . S
C1058 C1057 1.414 . S
C1058 C1059 1.374 . S
C1059 H1039 0.950 . S
C1059 C1055 1.385 . S
C1059 C1058 1.374 . S
C1060 C1057 1.499 . S
C1060 C1061 1.373 . S
C1060 C1062 1.389 . S
C1061 H1040 0.950 . S
C1061 C1060 1.373 . S
C1061 C1077 1.377 . S
C1062 C1060 1.389 . S
C1062 C1063 1.524 . S
C1062 C1076 1.377 . S
C1063 C1062 1.524 . S
C1063 C1064 1.397 . S
C1063 C1068 1.363 . S
C1064 H1041 0.950 . S
C1064 C1063 1.397 . S
C1064 C1065 1.334 . S
C1065 H1042 0.950 . S
C1065 C1064 1.334 . S
C1065 C1066 1.287 . S
C1066 C1065 1.287 . S
C1066 C1067 1.524 . S
C1066 H1085 0.913 . S
C1067 H1043 0.950 . S
C1067 C1066 1.524 . S
C1067 C1068 1.415 . S
C1068 H1044 0.950 . S
C1068 C1063 1.363 . S
C1068 C1067 1.415 . S
C1069 H1045 0.951 . S
C1069 C1070 1.366 . S
C1069 C1071 1.388 . S
C1070 C1069 1.366 . S
C1070 C1074 1.385 . S
C1071 H1046 0.951 . S
C1071 C1069 1.388 . S
C1071 C1072 1.366 . S
C1072 C1071 1.366 . S
C1072 C1073 1.414 . S
C1072 C1075 1.499 . S
C1073 H1047 0.950 . S
C1073 C1072 1.414 . S
C1073 C1074 1.374 . S
C1074 H1048 0.950 . S
C1074 C1070 1.385 . S
C1074 C1073 1.374 . S
C1075 C1072 1.499 . S
C1075 C1076 1.373 . S
C1075 C1077 1.389 . S
C1076 H1049 0.950 . S
C1076 C1062 1.377 . S
C1076 C1075 1.373 . S
C1077 C1061 1.377 . S
C1077 C1075 1.389 . S
C1077 C1078 1.524 . S
C1078 C1077 1.524 . S
C1078 C1079 1.397 . S
C1078 C1083 1.363 . S
C1079 H1050 0.950 . S
C1079 C1078 1.397 . S
C1079 C1080 1.334 . S
C1080 H1051 0.950 . S
C1080 C1079 1.334 . S
C1080 C1081 1.287 . S
C1081 C1080 1.287 . S
C1081 C1082 1.524 . S
C1081 H1084 0.999 . S
C1082 H1052 0.950 . S
C1082 C1081 1.524 . S
C1082 C1083 1.415 . S
C1083 H1053 0.950 . S
C1083 C1078 1.363 . S
C1083 C1082 1.415 . S
H1084 C1081 0.999 . S
H1085 C1066 0.913 . S
H1086 C1104 0.951 . S
H1087 C1106 0.951 . S
H1088 C1108 0.950 . S
H1089 C1109 0.950 . S
H1090 C1111 0.950 . S
H1091 C1114 0.950 . S
H1092 C1115 0.950 . S
H1093 C1117 0.950 . S
H1094 C1118 0.950 . S
H1095 C1119 0.951 . S
H1096 C1121 0.951 . S
H1097 C1123 0.950 . S
H1098 C1124 0.950 . S
H1099 C1126 0.950 . S
H1100 C1129 0.950 . S
H1101 C1130 0.950 . S
H1102 C1132 0.950 . S
H1103 C1133 0.950 . S
C1104 H1086 0.951 . S
C1104 C1105 1.366 . S
C1104 C1106 1.388 . S
C1105 C1104 1.366 . S
C1105 C1109 1.385 . S
C1106 H1087 0.951 . S
C1106 C1104 1.388 . S
C1106 C1107 1.366 . S
C1107 C1106 1.366 . S
C1107 C1108 1.414 . S
C1107 C1110 1.499 . S
C1108 H1088 0.950 . S
C1108 C1107 1.414 . S
C1108 C1109 1.374 . S
C1109 H1089 0.950 . S
C1109 C1105 1.385 . S
C1109 C1108 1.374 . S
C1110 C1107 1.499 . S
C1110 C1111 1.373 . S
C1110 C1112 1.389 . S
C1111 H1090 0.950 . S
C1111 C1110 1.373 . S
C1111 C1127 1.377 1_554 S
C1112 C1110 1.389 . S
C1112 C1113 1.524 . S
C1112 C1126 1.377 1_554 S
C1113 C1112 1.524 . S
C1113 C1114 1.397 . S
C1113 C1118 1.363 . S
C1114 H1091 0.950 . S
C1114 C1113 1.397 . S
C1114 C1115 1.334 . S
C1115 H1092 0.950 . S
C1115 C1114 1.334 . S
C1115 C1116 1.287 . S
C1116 C1115 1.287 . S
C1116 C1117 1.524 . S
C1116 H1135 0.913 . S
C1117 H1093 0.950 . S
C1117 C1116 1.524 . S
C1117 C1118 1.415 . S
C1118 H1094 0.950 . S
C1118 C1113 1.363 . S
C1118 C1117 1.415 . S
C1119 H1095 0.951 . S
C1119 C1120 1.366 . S
C1119 C1121 1.388 . S
C1120 C1119 1.366 . S
C1120 C1124 1.385 . S
C1121 H1096 0.951 . S
C1121 C1119 1.388 . S
C1121 C1122 1.366 . S
C1122 C1121 1.366 . S
C1122 C1123 1.414 . S
C1122 C1125 1.499 . S
C1123 H1097 0.950 . S
C1123 C1122 1.414 . S
C1123 C1124 1.374 . S
C1124 H1098 0.950 . S
C1124 C1120 1.385 . S
C1124 C1123 1.374 . S
C1125 C1122 1.499 . S
C1125 C1126 1.373 . S
C1125 C1127 1.389 . S
C1126 H1099 0.950 . S
C1126 C1112 1.377 1_556 S
C1126 C1125 1.373 . S
C1127 C1111 1.377 1_556 S
C1127 C1125 1.389 . S
C1127 C1128 1.524 . S
C1128 C1127 1.524 . S
C1128 C1129 1.397 . S
C1128 C1133 1.363 . S
C1129 H1100 0.950 . S
C1129 C1128 1.397 . S
C1129 C1130 1.334 . S
C1130 H1101 0.950 . S
C1130 C1129 1.334 . S
C1130 C1131 1.287 . S
C1131 C1130 1.287 . S
C1131 C1132 1.524 . S
C1131 H1134 0.999 . S
C1132 H1102 0.950 . S
C1132 C1131 1.524 . S
C1132 C1133 1.415 . S
C1133 H1103 0.950 . S
C1133 C1128 1.363 . S
C1133 C1132 1.415 . S
H1134 C1131 0.999 . S
H1135 C1116 0.913 . S
H1136 C1154 0.951 . S
H1137 C1156 0.951 . S
H1138 C1158 0.950 . S
H1139 C1159 0.950 . S
H1140 C1161 0.950 . S
H1141 C1164 0.950 . S
H1142 C1165 0.950 . S
H1143 C1167 0.950 . S
H1144 C1168 0.950 . S
H1145 C1169 0.951 . S
H1146 C1171 0.951 . S
H1147 C1173 0.950 . S
H1148 C1174 0.950 . S
H1149 C1176 0.950 . S
H1150 C1179 0.950 . S
H1151 C1180 0.950 . S
H1152 C1182 0.950 . S
H1153 C1183 0.950 . S
C1154 H1136 0.951 . S
C1154 C1155 1.366 . S
C1154 C1156 1.388 . S
C1155 C1154 1.366 . S
C1155 C1159 1.385 . S
C1156 H1137 0.951 . S
C1156 C1154 1.388 . S
C1156 C1157 1.366 . S
C1157 C1156 1.366 . S
C1157 C1158 1.414 . S
C1157 C1160 1.499 . S
C1158 H1138 0.950 . S
C1158 C1157 1.414 . S
C1158 C1159 1.374 . S
C1159 H1139 0.950 . S
C1159 C1155 1.385 . S
C1159 C1158 1.374 . S
C1160 C1157 1.499 . S
C1160 C1161 1.373 . S
C1160 C1162 1.389 . S
C1161 H1140 0.950 . S
C1161 C1160 1.373 . S
C1161 C1177 1.377 . S
C1162 C1160 1.389 . S
C1162 C1163 1.524 . S
C1162 C1176 1.377 . S
C1163 C1162 1.524 . S
C1163 C1164 1.397 . S
C1163 C1168 1.363 . S
C1164 H1141 0.950 . S
C1164 C1163 1.397 . S
C1164 C1165 1.334 . S
C1165 H1142 0.950 . S
C1165 C1164 1.334 . S
C1165 C1166 1.287 . S
C1166 C1165 1.287 . S
C1166 C1167 1.524 . S
C1166 H1185 0.913 . S
C1167 H1143 0.950 . S
C1167 C1166 1.524 . S
C1167 C1168 1.415 . S
C1168 H1144 0.950 . S
C1168 C1163 1.363 . S
C1168 C1167 1.415 . S
C1169 H1145 0.951 . S
C1169 C1170 1.366 . S
C1169 C1171 1.388 . S
C1170 C1169 1.366 . S
C1170 C1174 1.385 . S
C1171 H1146 0.951 . S
C1171 C1169 1.388 . S
C1171 C1172 1.366 . S
C1172 C1171 1.366 . S
C1172 C1173 1.414 . S
C1172 C1175 1.499 . S
C1173 H1147 0.950 . S
C1173 C1172 1.414 . S
C1173 C1174 1.374 . S
C1174 H1148 0.950 . S
C1174 C1170 1.385 . S
C1174 C1173 1.374 . S
C1175 C1172 1.499 . S
C1175 C1176 1.373 . S
C1175 C1177 1.389 . S
C1176 H1149 0.950 . S
C1176 C1162 1.377 . S
C1176 C1175 1.373 . S
C1177 C1161 1.377 . S
C1177 C1175 1.389 . S
C1177 C1178 1.524 . S
C1178 C1177 1.524 . S
C1178 C1179 1.397 . S
C1178 C1183 1.363 . S
C1179 H1150 0.950 . S
C1179 C1178 1.397 . S
C1179 C1180 1.334 . S
C1180 H1151 0.950 . S
C1180 C1179 1.334 . S
C1180 C1181 1.287 . S
C1181 C1180 1.287 . S
C1181 C1182 1.524 . S
C1181 H1184 0.999 . S
C1182 H1152 0.950 . S
C1182 C1181 1.524 . S
C1182 C1183 1.415 . S
C1183 H1153 0.950 . S
C1183 C1178 1.363 . S
C1183 C1182 1.415 . S
H1184 C1181 0.999 . S
H1185 C1166 0.913 . S
H1186 C1204 0.951 . S
H1187 C1206 0.951 . S
H1188 C1208 0.950 . S
H1189 C1209 0.950 . S
H1190 C1211 0.950 . S
H1191 C1214 0.950 . S
H1192 C1215 0.950 . S
H1193 C1217 0.950 . S
H1194 C1218 0.950 . S
H1195 C1219 0.951 . S
H1196 C1221 0.951 . S
H1197 C1223 0.950 . S
H1198 C1224 0.950 . S
H1199 C1226 0.950 . S
H1200 C1229 0.950 . S
H1201 C1230 0.950 . S
H1202 C1232 0.950 . S
H1203 C1233 0.950 . S
C1204 H1186 0.951 . S
C1204 C1205 1.366 . S
C1204 C1206 1.388 . S
C1205 C1204 1.366 . S
C1205 C1209 1.385 . S
C1206 H1187 0.951 . S
C1206 C1204 1.388 . S
C1206 C1207 1.366 . S
C1207 C1206 1.366 . S
C1207 C1208 1.414 . S
C1207 C1210 1.499 . S
C1208 H1188 0.950 . S
C1208 C1207 1.414 . S
C1208 C1209 1.374 . S
C1209 H1189 0.950 . S
C1209 C1205 1.385 . S
C1209 C1208 1.374 . S
C1210 C1207 1.499 . S
C1210 C1211 1.373 . S
C1210 C1212 1.389 . S
C1211 H1190 0.950 . S
C1211 C1210 1.373 . S
C1211 C1227 1.377 . S
C1212 C1210 1.389 . S
C1212 C1213 1.524 . S
C1212 C1226 1.377 . S
C1213 C1212 1.524 . S
C1213 C1214 1.397 . S
C1213 C1218 1.363 . S
C1214 H1191 0.950 . S
C1214 C1213 1.397 . S
C1214 C1215 1.334 . S
C1215 H1192 0.950 . S
C1215 C1214 1.334 . S
C1215 C1216 1.287 . S
C1216 C1215 1.287 . S
C1216 C1217 1.524 . S
C1216 H1235 0.913 . S
C1217 H1193 0.950 . S
C1217 C1216 1.524 . S
C1217 C1218 1.415 . S
C1218 H1194 0.950 . S
C1218 C1213 1.363 . S
C1218 C1217 1.415 . S
C1219 H1195 0.951 . S
C1219 C1220 1.366 . S
C1219 C1221 1.388 . S
C1220 C1219 1.366 . S
C1220 C1224 1.385 . S
C1221 H1196 0.951 . S
C1221 C1219 1.388 . S
C1221 C1222 1.366 . S
C1222 C1221 1.366 . S
C1222 C1223 1.414 . S
C1222 C1225 1.499 . S
C1223 H1197 0.950 . S
C1223 C1222 1.414 . S
C1223 C1224 1.374 . S
C1224 H1198 0.950 . S
C1224 C1220 1.385 . S
C1224 C1223 1.374 . S
C1225 C1222 1.499 . S
C1225 C1226 1.373 . S
C1225 C1227 1.389 . S
C1226 H1199 0.950 . S
C1226 C1212 1.377 . S
C1226 C1225 1.373 . S
C1227 C1211 1.377 . S
C1227 C1225 1.389 . S
C1227 C1228 1.524 . S
C1228 C1227 1.524 . S
C1228 C1229 1.397 . S
C1228 C1233 1.363 . S
C1229 H1200 0.950 . S
C1229 C1228 1.397 . S
C1229 C1230 1.334 . S
C1230 H1201 0.950 . S
C1230 C1229 1.334 . S
C1230 C1231 1.287 . S
C1231 C1230 1.287 . S
C1231 C1232 1.524 . S
C1231 H1234 0.999 . S
C1232 H1202 0.950 . S
C1232 C1231 1.524 . S
C1232 C1233 1.415 . S
C1233 H1203 0.950 . S
C1233 C1228 1.363 . S
C1233 C1232 1.415 . S
H1234 C1231 0.999 . S
H1235 C1216 0.913 . S
H1236 C1254 0.951 . S
H1237 C1256 0.951 . S
H1238 C1258 0.950 . S
H1239 C1259 0.950 . S
H1240 C1261 0.950 . S
H1241 C1264 0.950 . S
H1242 C1265 0.950 . S
H1243 C1267 0.950 . S
H1244 C1268 0.950 . S
H1245 C1269 0.951 . S
H1246 C1271 0.951 . S
H1247 C1273 0.950 . S
H1248 C1274 0.950 . S
H1249 C1276 0.950 . S
H1250 C1279 0.950 . S
H1251 C1280 0.950 . S
H1252 C1282 0.950 . S
H1253 C1283 0.950 . S
C1254 H1236 0.951 . S
C1254 C1255 1.366 . S
C1254 C1256 1.388 . S
C1255 C1254 1.366 . S
C1255 C1259 1.385 . S
C1256 H1237 0.951 . S
C1256 C1254 1.388 . S
C1256 C1257 1.366 . S
C1257 C1256 1.366 . S
C1257 C1258 1.414 . S
C1257 C1260 1.499 . S
C1258 H1238 0.950 . S
C1258 C1257 1.414 . S
C1258 C1259 1.374 . S
C1259 H1239 0.950 . S
C1259 C1255 1.385 . S
C1259 C1258 1.374 . S
C1260 C1257 1.499 . S
C1260 C1261 1.373 . S
C1260 C1262 1.389 . S
C1261 H1240 0.950 . S
C1261 C1260 1.373 . S
C1261 C1277 1.377 1_565 S
C1262 C1260 1.389 . S
C1262 C1263 1.524 . S
C1262 C1276 1.377 1_565 S
C1263 C1262 1.524 . S
C1263 C1264 1.397 . S
C1263 C1268 1.363 . S
C1264 H1241 0.950 . S
C1264 C1263 1.397 . S
C1264 C1265 1.334 . S
C1265 H1242 0.950 . S
C1265 C1264 1.334 . S
C1265 C1266 1.287 . S
C1266 C1265 1.287 . S
C1266 C1267 1.524 . S
C1266 H1285 0.913 . S
C1267 H1243 0.950 . S
C1267 C1266 1.524 . S
C1267 C1268 1.415 . S
C1268 H1244 0.950 . S
C1268 C1263 1.363 . S
C1268 C1267 1.415 . S
C1269 H1245 0.951 . S
C1269 C1270 1.366 . S
C1269 C1271 1.388 . S
C1270 C1269 1.366 . S
C1270 C1274 1.385 . S
C1271 H1246 0.951 . S
C1271 C1269 1.388 . S
C1271 C1272 1.366 . S
C1272 C1271 1.366 . S
C1272 C1273 1.414 . S
C1272 C1275 1.499 . S
C1273 H1247 0.950 . S
C1273 C1272 1.414 . S
C1273 C1274 1.374 . S
C1274 H1248 0.950 . S
C1274 C1270 1.385 . S
C1274 C1273 1.374 . S
C1275 C1272 1.499 . S
C1275 C1276 1.373 . S
C1275 C1277 1.389 . S
C1276 H1249 0.950 . S
C1276 C1262 1.377 1_545 S
C1276 C1275 1.373 . S
C1277 C1261 1.377 1_545 S
C1277 C1275 1.389 . S
C1277 C1278 1.524 . S
C1278 C1277 1.524 . S
C1278 C1279 1.397 . S
C1278 C1283 1.363 . S
C1279 H1250 0.950 . S
C1279 C1278 1.397 . S
C1279 C1280 1.334 . S
C1280 H1251 0.950 . S
C1280 C1279 1.334 . S
C1280 C1281 1.287 . S
C1281 C1280 1.287 . S
C1281 C1282 1.524 . S
C1281 H1284 0.999 . S
C1282 H1252 0.950 . S
C1282 C1281 1.524 . S
C1282 C1283 1.415 . S
C1283 H1253 0.950 . S
C1283 C1278 1.363 . S
C1283 C1282 1.415 . S
H1284 C1281 0.999 . S
H1285 C1266 0.913 . S
H1286 C1304 0.951 . S
H1287 C1306 0.951 . S
H1288 C1308 0.950 . S
H1289 C1309 0.950 . S
H1290 C1311 0.950 . S
H1291 C1314 0.950 . S
H1292 C1315 0.950 . S
H1293 C1317 0.950 . S
H1294 C1318 0.950 . S
H1295 C1319 0.951 . S
H1296 C1321 0.951 . S
H1297 C1323 0.950 . S
H1298 C1324 0.950 . S
H1299 C1326 0.950 . S
H1300 C1329 0.950 . S
H1301 C1330 0.950 . S
H1302 C1332 0.950 . S
H1303 C1333 0.950 . S
C1304 H1286 0.951 . S
C1304 C1305 1.366 . S
C1304 C1306 1.388 . S
C1305 C1304 1.366 . S
C1305 C1309 1.385 . S
C1306 H1287 0.951 . S
C1306 C1304 1.388 . S
C1306 C1307 1.366 . S
C1307 C1306 1.366 . S
C1307 C1308 1.414 . S
C1307 C1310 1.499 . S
C1308 H1288 0.950 . S
C1308 C1307 1.414 . S
C1308 C1309 1.374 . S
C1309 H1289 0.950 . S
C1309 C1305 1.385 . S
C1309 C1308 1.374 . S
C1310 C1307 1.499 . S
C1310 C1311 1.373 . S
C1310 C1312 1.389 . S
C1311 H1290 0.950 . S
C1311 C1310 1.373 . S
C1311 C1327 1.377 . S
C1312 C1310 1.389 . S
C1312 C1313 1.524 . S
C1312 C1326 1.377 . S
C1313 C1312 1.524 . S
C1313 C1314 1.397 . S
C1313 C1318 1.363 . S
C1314 H1291 0.950 . S
C1314 C1313 1.397 . S
C1314 C1315 1.334 . S
C1315 H1292 0.950 . S
C1315 C1314 1.334 . S
C1315 C1316 1.287 . S
C1316 C1315 1.287 . S
C1316 C1317 1.524 . S
C1316 H1335 0.913 . S
C1317 H1293 0.950 . S
C1317 C1316 1.524 . S
C1317 C1318 1.415 . S
C1318 H1294 0.950 . S
C1318 C1313 1.363 . S
C1318 C1317 1.415 . S
C1319 H1295 0.951 . S
C1319 C1320 1.366 . S
C1319 C1321 1.388 . S
C1320 C1319 1.366 . S
C1320 C1324 1.385 . S
C1321 H1296 0.951 . S
C1321 C1319 1.388 . S
C1321 C1322 1.366 . S
C1322 C1321 1.366 . S
C1322 C1323 1.414 . S
C1322 C1325 1.499 . S
C1323 H1297 0.950 . S
C1323 C1322 1.414 . S
C1323 C1324 1.374 . S
C1324 H1298 0.950 . S
C1324 C1320 1.385 . S
C1324 C1323 1.374 . S
C1325 C1322 1.499 . S
C1325 C1326 1.373 . S
C1325 C1327 1.389 . S
C1326 H1299 0.950 . S
C1326 C1312 1.377 . S
C1326 C1325 1.373 . S
C1327 C1311 1.377 . S
C1327 C1325 1.389 . S
C1327 C1328 1.524 . S
C1328 C1327 1.524 . S
C1328 C1329 1.397 . S
C1328 C1333 1.363 . S
C1329 H1300 0.950 . S
C1329 C1328 1.397 . S
C1329 C1330 1.334 . S
C1330 H1301 0.950 . S
C1330 C1329 1.334 . S
C1330 C1331 1.287 . S
C1331 C1330 1.287 . S
C1331 C1332 1.524 . S
C1331 H1334 0.999 . S
C1332 H1302 0.950 . S
C1332 C1331 1.524 . S
C1332 C1333 1.415 . S
C1333 H1303 0.950 . S
C1333 C1328 1.363 . S
C1333 C1332 1.415 . S
H1334 C1331 0.999 . S
H1335 C1316 0.913 . S
H1336 C1354 0.951 . S
H1337 C1356 0.951 . S
H1338 C1358 0.950 . S
H1339 C1359 0.950 . S
H1340 C1361 0.950 . S
H1341 C1364 0.950 . S
H1342 C1365 0.950 . S
H1343 C1367 0.950 . S
H1344 C1368 0.950 . S
H1345 C1369 0.951 . S
H1346 C1371 0.951 . S
H1347 C1373 0.950 . S
H1348 C1374 0.950 . S
H1349 C1376 0.950 . S
H1350 C1379 0.950 . S
H1351 C1380 0.950 . S
H1352 C1382 0.950 . S
H1353 C1383 0.950 . S
C1354 H1336 0.951 . S
C1354 C1355 1.366 . S
C1354 C1356 1.388 . S
C1355 C1354 1.366 . S
C1355 C1359 1.385 . S
C1356 H1337 0.951 . S
C1356 C1354 1.388 . S
C1356 C1357 1.366 . S
C1357 C1356 1.366 . S
C1357 C1358 1.414 . S
C1357 C1360 1.499 . S
C1358 H1338 0.950 . S
C1358 C1357 1.414 . S
C1358 C1359 1.374 . S
C1359 H1339 0.950 . S
C1359 C1355 1.385 . S
C1359 C1358 1.374 . S
C1360 C1357 1.499 . S
C1360 C1361 1.373 . S
C1360 C1362 1.389 . S
C1361 H1340 0.950 . S
C1361 C1360 1.373 . S
C1361 C1377 1.377 1_565 S
C1362 C1360 1.389 . S
C1362 C1363 1.524 . S
C1362 C1376 1.377 1_565 S
C1363 C1362 1.524 . S
C1363 C1364 1.397 . S
C1363 C1368 1.363 . S
C1364 H1341 0.950 . S
C1364 C1363 1.397 . S
C1364 C1365 1.334 . S
C1365 H1342 0.950 . S
C1365 C1364 1.334 . S
C1365 C1366 1.287 . S
C1366 C1365 1.287 . S
C1366 C1367 1.524 . S
C1366 H1385 0.913 . S
C1367 H1343 0.950 . S
C1367 C1366 1.524 . S
C1367 C1368 1.415 . S
C1368 H1344 0.950 . S
C1368 C1363 1.363 . S
C1368 C1367 1.415 . S
C1369 H1345 0.951 . S
C1369 C1370 1.366 . S
C1369 C1371 1.388 . S
C1370 C1369 1.366 . S
C1370 C1374 1.385 . S
C1371 H1346 0.951 . S
C1371 C1369 1.388 . S
C1371 C1372 1.366 . S
C1372 C1371 1.366 . S
C1372 C1373 1.414 . S
C1372 C1375 1.499 . S
C1373 H1347 0.950 . S
C1373 C1372 1.414 . S
C1373 C1374 1.374 . S
C1374 H1348 0.950 . S
C1374 C1370 1.385 . S
C1374 C1373 1.374 . S
C1375 C1372 1.499 . S
C1375 C1376 1.373 . S
C1375 C1377 1.389 . S
C1376 H1349 0.950 . S
C1376 C1362 1.377 1_545 S
C1376 C1375 1.373 . S
C1377 C1361 1.377 1_545 S
C1377 C1375 1.389 . S
C1377 C1378 1.524 . S
C1378 C1377 1.524 . S
C1378 C1379 1.397 . S
C1378 C1383 1.363 . S
C1379 H1350 0.950 . S
C1379 C1378 1.397 . S
C1379 C1380 1.334 . S
C1380 H1351 0.950 . S
C1380 C1379 1.334 . S
C1380 C1381 1.287 . S
C1381 C1380 1.287 . S
C1381 C1382 1.524 . S
C1381 H1384 0.999 . S
C1382 H1352 0.950 . S
C1382 C1381 1.524 . S
C1382 C1383 1.415 . S
C1383 H1353 0.950 . S
C1383 C1378 1.363 . S
C1383 C1382 1.415 . S
H1384 C1381 0.999 . S
H1385 C1366 0.913 . S
H1386 C1404 0.951 . S
H1387 C1406 0.951 . S
H1388 C1408 0.950 . S
H1389 C1409 0.950 . S
H1390 C1411 0.950 . S
H1391 C1414 0.950 . S
H1392 C1415 0.950 . S
H1393 C1417 0.950 . S
H1394 C1418 0.950 . S
H1395 C1419 0.951 . S
H1396 C1421 0.951 . S
H1397 C1423 0.950 . S
H1398 C1424 0.950 . S
H1399 C1426 0.950 . S
H1400 C1429 0.950 . S
H1401 C1430 0.950 . S
H1402 C1432 0.950 . S
H1403 C1433 0.950 . S
C1404 H1386 0.951 . S
C1404 C1405 1.366 . S
C1404 C1406 1.388 . S
C1405 C1404 1.366 . S
C1405 C1409 1.385 . S
C1406 H1387 0.951 . S
C1406 C1404 1.388 . S
C1406 C1407 1.366 . S
C1407 C1406 1.366 . S
C1407 C1408 1.414 . S
C1407 C1410 1.499 . S
C1408 H1388 0.950 . S
C1408 C1407 1.414 . S
C1408 C1409 1.374 . S
C1409 H1389 0.950 . S
C1409 C1405 1.385 . S
C1409 C1408 1.374 . S
C1410 C1407 1.499 . S
C1410 C1411 1.373 . S
C1410 C1412 1.389 . S
C1411 H1390 0.950 . S
C1411 C1410 1.373 . S
C1411 C1427 1.377 . S
C1412 C1410 1.389 . S
C1412 C1413 1.524 . S
C1412 C1426 1.377 . S
C1413 C1412 1.524 . S
C1413 C1414 1.397 . S
C1413 C1418 1.363 . S
C1414 H1391 0.950 . S
C1414 C1413 1.397 . S
C1414 C1415 1.334 . S
C1415 H1392 0.950 . S
C1415 C1414 1.334 . S
C1415 C1416 1.287 . S
C1416 C1415 1.287 . S
C1416 C1417 1.524 . S
C1416 H1435 0.913 . S
C1417 H1393 0.950 . S
C1417 C1416 1.524 . S
C1417 C1418 1.415 . S
C1418 H1394 0.950 . S
C1418 C1413 1.363 . S
C1418 C1417 1.415 . S
C1419 H1395 0.951 . S
C1419 C1420 1.366 . S
C1419 C1421 1.388 . S
C1420 C1419 1.366 . S
C1420 C1424 1.385 . S
C1421 H1396 0.951 . S
C1421 C1419 1.388 . S
C1421 C1422 1.366 . S
C1422 C1421 1.366 . S
C1422 C1423 1.414 . S
C1422 C1425 1.499 . S
C1423 H1397 0.950 . S
C1423 C1422 1.414 . S
C1423 C1424 1.374 . S
C1424 H1398 0.950 . S
C1424 C1420 1.385 . S
C1424 C1423 1.374 . S
C1425 C1422 1.499 . S
C1425 C1426 1.373 . S
C1425 C1427 1.389 . S
C1426 H1399 0.950 . S
C1426 C1412 1.377 . S
C1426 C1425 1.373 . S
C1427 C1411 1.377 . S
C1427 C1425 1.389 . S
C1427 C1428 1.524 . S
C1428 C1427 1.524 . S
C1428 C1429 1.397 . S
C1428 C1433 1.363 . S
C1429 H1400 0.950 . S
C1429 C1428 1.397 . S
C1429 C1430 1.334 . S
C1430 H1401 0.950 . S
C1430 C1429 1.334 . S
C1430 C1431 1.287 . S
C1431 C1430 1.287 . S
C1431 C1432 1.524 . S
C1431 H1434 0.999 . S
C1432 H1402 0.950 . S
C1432 C1431 1.524 . S
C1432 C1433 1.415 . S
C1433 H1403 0.950 . S
C1433 C1428 1.363 . S
C1433 C1432 1.415 . S
H1434 C1431 0.999 . S
H1435 C1416 0.913 . S
H1436 C1454 0.951 . S
H1437 C1456 0.951 . S
H1438 C1458 0.950 . S
H1439 C1459 0.950 . S
H1440 C1461 0.950 . S
H1441 C1464 0.950 . S
H1442 C1465 0.950 . S
H1443 C1467 0.950 . S
H1444 C1468 0.950 . S
H1445 C1469 0.951 . S
H1446 C1471 0.951 . S
H1447 C1473 0.950 . S
H1448 C1474 0.950 . S
H1449 C1476 0.950 . S
H1450 C1479 0.950 . S
H1451 C1480 0.950 . S
H1452 C1482 0.950 . S
H1453 C1483 0.975 . S
C1454 H1436 0.951 . S
C1454 C1455 1.366 . S
C1454 C1456 1.388 . S
C1455 C1454 1.366 . S
C1455 C1459 1.385 . S
C1456 H1437 0.951 . S
C1456 C1454 1.388 . S
C1456 C1457 1.366 . S
C1457 C1456 1.366 . S
C1457 C1458 1.414 . S
C1457 C1460 1.499 . S
C1458 H1438 0.950 . S
C1458 C1457 1.414 . S
C1458 C1459 1.374 . S
C1459 H1439 0.950 . S
C1459 C1455 1.385 . S
C1459 C1458 1.374 . S
C1460 C1457 1.499 . S
C1460 C1461 1.373 . S
C1460 C1462 1.389 . S
C1461 H1440 0.950 . S
C1461 C1460 1.373 . S
C1461 C1477 1.377 1_565 S
C1462 C1460 1.389 . S
C1462 C1463 1.524 . S
C1462 C1476 1.377 1_565 S
C1463 C1462 1.524 . S
C1463 C1464 1.397 . S
C1463 C1468 1.363 . S
C1464 H1441 0.950 . S
C1464 C1463 1.397 . S
C1464 C1465 1.334 . S
C1465 H1442 0.950 . S
C1465 C1464 1.334 . S
C1465 C1466 1.287 . S
C1466 C1465 1.287 . S
C1466 C1467 1.524 . S
C1466 H1485 0.913 . S
C1467 H1443 0.950 . S
C1467 C1466 1.524 . S
C1467 C1468 1.415 . S
C1468 H1444 0.950 . S
C1468 C1463 1.363 . S
C1468 C1467 1.415 . S
C1469 H1445 0.951 . S
C1469 C1470 1.366 . S
C1469 C1471 1.388 . S
C1470 C1469 1.366 . S
C1470 C1474 1.385 . S
C1471 H1446 0.951 . S
C1471 C1469 1.388 . S
C1471 C1472 1.366 . S
C1472 C1471 1.366 . S
C1472 C1473 1.414 . S
C1472 C1475 1.499 . S
C1473 H1447 0.950 . S
C1473 C1472 1.414 . S
C1473 C1474 1.374 . S
C1474 H1448 0.950 . S
C1474 C1470 1.385 . S
C1474 C1473 1.374 . S
C1475 C1472 1.499 . S
C1475 C1476 1.373 . S
C1475 C1477 1.389 . S
C1476 H1449 0.950 . S
C1476 C1462 1.377 1_545 S
C1476 C1475 1.373 . S
C1477 C1461 1.377 1_545 S
C1477 C1475 1.389 . S
C1477 C1478 1.524 . S
C1478 C1477 1.524 . S
C1478 C1479 1.397 . S
C1478 C1483 1.363 . S
C1479 H1450 0.950 . S
C1479 C1478 1.397 . S
C1479 C1480 1.334 . S
C1480 H1451 0.950 . S
C1480 C1479 1.334 . S
C1480 C1481 1.287 . S
C1481 C1480 1.287 . S
C1481 C1482 1.524 . S
C1481 H1484 0.999 . S
C1482 H1452 0.950 . S
C1482 C1481 1.524 . S
C1482 C1483 1.415 . S
C1483 H1453 0.975 . S
C1483 C1478 1.363 . S
C1483 C1482 1.415 . S
H1484 C1481 0.999 . S
H1485 C1466 0.913 . S
H1486 C1504 0.951 . S
H1487 C1506 0.951 . S
H1488 C1508 0.950 . S
H1489 C1509 0.950 . S
H1490 C1511 0.950 . S
H1491 C1514 0.950 . S
H1492 C1515 0.950 . S
H1493 C1517 0.950 . S
H1494 C1518 0.950 . S
H1495 C1519 0.951 . S
H1496 C1521 0.951 . S
H1497 C1523 0.950 . S
H1498 C1524 0.950 . S
H1499 C1526 0.950 . S
H1500 C1529 0.950 . S
H1501 C1530 0.950 . S
H1502 C1532 0.950 . S
H1503 C1533 0.950 . S
C1504 H1486 0.951 . S
C1504 C1505 1.366 . S
C1504 C1506 1.388 . S
C1505 C1504 1.366 . S
C1505 C1509 1.385 . S
C1506 H1487 0.951 . S
C1506 C1504 1.388 . S
C1506 C1507 1.366 . S
C1507 C1506 1.366 . S
C1507 C1508 1.414 . S
C1507 C1510 1.499 . S
C1508 H1488 0.950 . S
C1508 C1507 1.414 . S
C1508 C1509 1.374 . S
C1509 H1489 0.950 . S
C1509 C1505 1.385 . S
C1509 C1508 1.374 . S
C1510 C1507 1.499 . S
C1510 C1511 1.373 . S
C1510 C1512 1.389 . S
C1511 H1490 0.950 . S
C1511 C1510 1.373 . S
C1511 C1527 1.377 1_545 S
C1512 C1510 1.389 . S
C1512 C1513 1.524 . S
C1512 C1526 1.377 1_545 S
C1513 C1512 1.524 . S
C1513 C1514 1.397 . S
C1513 C1518 1.363 . S
C1514 H1491 0.950 . S
C1514 C1513 1.397 . S
C1514 C1515 1.334 . S
C1515 H1492 0.950 . S
C1515 C1514 1.334 . S
C1515 C1516 1.287 . S
C1516 C1515 1.287 . S
C1516 C1517 1.524 . S
C1516 H1535 0.913 . S
C1517 H1493 0.950 . S
C1517 C1516 1.524 . S
C1517 C1518 1.415 . S
C1518 H1494 0.950 . S
C1518 C1513 1.363 . S
C1518 C1517 1.415 . S
C1519 H1495 0.951 . S
C1519 C1520 1.366 . S
C1519 C1521 1.388 . S
C1520 C1519 1.366 . S
C1520 C1524 1.385 . S
C1521 H1496 0.951 . S
C1521 C1519 1.388 . S
C1521 C1522 1.366 . S
C1522 C1521 1.366 . S
C1522 C1523 1.414 . S
C1522 C1525 1.499 . S
C1523 H1497 0.950 . S
C1523 C1522 1.414 . S
C1523 C1524 1.374 . S
C1524 H1498 0.950 . S
C1524 C1520 1.385 . S
C1524 C1523 1.374 . S
C1525 C1522 1.499 . S
C1525 C1526 1.373 . S
C1525 C1527 1.389 . S
C1526 H1499 0.950 . S
C1526 C1512 1.377 1_565 S
C1526 C1525 1.373 . S
C1527 C1511 1.377 1_565 S
C1527 C1525 1.389 . S
C1527 C1528 1.524 . S
C1528 C1527 1.524 . S
C1528 C1529 1.397 . S
C1528 C1533 1.363 . S
C1529 H1500 0.950 . S
C1529 C1528 1.397 . S
C1529 C1530 1.334 . S
C1530 H1501 0.950 . S
C1530 C1529 1.334 . S
C1530 C1531 1.287 . S
C1531 C1530 1.287 . S
C1531 C1532 1.524 . S
C1531 H1534 0.999 . S
C1532 H1502 0.950 . S
C1532 C1531 1.524 . S
C1532 C1533 1.415 . S
C1533 H1503 0.950 . S
C1533 C1528 1.363 . S
C1533 C1532 1.415 . S
H1534 C1531 0.999 . S
H1535 C1516 0.913 . S
H1536 C1554 0.951 . S
H1537 C1556 0.951 . S
H1538 C1558 0.950 . S
H1539 C1559 0.950 . S
H1540 C1561 0.950 . S
H1541 C1564 0.950 . S
H1542 C1565 0.950 . S
H1543 C1567 0.950 . S
H1544 C1568 0.950 . S
H1545 C1569 0.951 . S
H1546 C1571 0.951 . S
H1547 C1573 0.950 . S
H1548 C1574 0.950 . S
H1549 C1576 0.950 . S
H1550 C1579 0.950 . S
H1551 C1580 0.950 . S
H1552 C1582 0.950 . S
H1553 C1583 0.950 . S
C1554 H1536 0.951 . S
C1554 C1555 1.366 . S
C1554 C1556 1.388 . S
C1555 C1554 1.366 . S
C1555 C1559 1.385 . S
C1556 H1537 0.951 . S
C1556 C1554 1.388 . S
C1556 C1557 1.366 . S
C1557 C1556 1.366 . S
C1557 C1558 1.414 . S
C1557 C1560 1.499 . S
C1558 H1538 0.950 . S
C1558 C1557 1.414 . S
C1558 C1559 1.374 . S
C1559 H1539 0.950 . S
C1559 C1555 1.385 . S
C1559 C1558 1.374 . S
C1560 C1557 1.499 . S
C1560 C1561 1.373 . S
C1560 C1562 1.389 . S
C1561 H1540 0.950 . S
C1561 C1560 1.373 . S
C1561 C1577 1.377 . S
C1562 C1560 1.389 . S
C1562 C1563 1.524 . S
C1562 C1576 1.377 . S
C1563 C1562 1.524 . S
C1563 C1564 1.397 . S
C1563 C1568 1.363 . S
C1564 H1541 0.950 . S
C1564 C1563 1.397 . S
C1564 C1565 1.334 . S
C1565 H1542 0.950 . S
C1565 C1564 1.334 . S
C1565 C1566 1.287 . S
C1566 C1565 1.287 . S
C1566 C1567 1.524 . S
C1566 H1585 0.913 . S
C1567 H1543 0.950 . S
C1567 C1566 1.524 . S
C1567 C1568 1.415 . S
C1568 H1544 0.950 . S
C1568 C1563 1.363 . S
C1568 C1567 1.415 . S
C1569 H1545 0.951 . S
C1569 C1570 1.366 . S
C1569 C1571 1.388 . S
C1570 C1569 1.366 . S
C1570 C1574 1.385 . S
C1571 H1546 0.951 . S
C1571 C1569 1.388 . S
C1571 C1572 1.366 . S
C1572 C1571 1.366 . S
C1572 C1573 1.414 . S
C1572 C1575 1.499 . S
C1573 H1547 0.950 . S
C1573 C1572 1.414 . S
C1573 C1574 1.374 . S
C1574 H1548 0.950 . S
C1574 C1570 1.385 . S
C1574 C1573 1.374 . S
C1575 C1572 1.499 . S
C1575 C1576 1.373 . S
C1575 C1577 1.389 . S
C1576 H1549 0.950 . S
C1576 C1562 1.377 . S
C1576 C1575 1.373 . S
C1577 C1561 1.377 . S
C1577 C1575 1.389 . S
C1577 C1578 1.524 . S
C1578 C1577 1.524 . S
C1578 C1579 1.397 . S
C1578 C1583 1.363 . S
C1579 H1550 0.950 . S
C1579 C1578 1.397 . S
C1579 C1580 1.334 . S
C1580 H1551 0.950 . S
C1580 C1579 1.334 . S
C1580 C1581 1.287 . S
C1581 C1580 1.287 . S
C1581 C1582 1.524 . S
C1581 H1584 0.999 . S
C1582 H1552 0.950 . S
C1582 C1581 1.524 . S
C1582 C1583 1.415 . S
C1583 H1553 0.950 . S
C1583 C1578 1.363 . S
C1583 C1582 1.415 . S
H1584 C1581 0.999 . S
H1585 C1566 0.913 . S
H1586 C1604 0.951 . S
H1587 C1606 0.951 . S
H1588 C1608 0.950 . S
H1589 C1609 0.950 . S
H1590 C1611 0.950 . S
H1591 C1614 0.950 . S
H1592 C1615 0.950 . S
H1593 C1617 0.950 . S
H1594 C1618 0.950 . S
H1595 C1619 0.951 . S
H1596 C1621 0.951 . S
H1597 C1623 0.950 . S
H1598 C1624 0.950 . S
H1599 C1626 0.950 . S
H1600 C1629 0.950 . S
H1601 C1630 0.950 . S
H1602 C1632 0.950 . S
H1603 C1633 0.950 . S
C1604 H1586 0.951 . S
C1604 C1605 1.366 . S
C1604 C1606 1.388 . S
C1605 C1604 1.366 . S
C1605 C1609 1.385 . S
C1606 H1587 0.951 . S
C1606 C1604 1.388 . S
C1606 C1607 1.366 . S
C1607 C1606 1.366 . S
C1607 C1608 1.414 . S
C1607 C1610 1.499 . S
C1608 H1588 0.950 . S
C1608 C1607 1.414 . S
C1608 C1609 1.374 . S
C1609 H1589 0.950 . S
C1609 C1605 1.385 . S
C1609 C1608 1.374 . S
C1610 C1607 1.499 . S
C1610 C1611 1.373 . S
C1610 C1612 1.389 . S
C1611 H1590 0.950 . S
C1611 C1610 1.373 . S
C1611 C1627 1.377 . S
C1612 C1610 1.389 . S
C1612 C1613 1.524 . S
C1612 C1626 1.377 . S
C1613 C1612 1.524 . S
C1613 C1614 1.397 . S
C1613 C1618 1.363 . S
C1614 H1591 0.950 . S
C1614 C1613 1.397 . S
C1614 C1615 1.334 . S
C1615 H1592 0.950 . S
C1615 C1614 1.334 . S
C1615 C1616 1.287 . S
C1616 C1615 1.287 . S
C1616 C1617 1.524 . S
C1616 H1635 0.913 . S
C1617 H1593 0.950 . S
C1617 C1616 1.524 . S
C1617 C1618 1.415 . S
C1618 H1594 0.950 . S
C1618 C1613 1.363 . S
C1618 C1617 1.415 . S
C1619 H1595 0.951 . S
C1619 C1620 1.366 . S
C1619 C1621 1.388 . S
C1620 C1619 1.366 . S
C1620 C1624 1.385 . S
C1621 H1596 0.951 . S
C1621 C1619 1.388 . S
C1621 C1622 1.366 . S
C1622 C1621 1.366 . S
C1622 C1623 1.414 . S
C1622 C1625 1.499 . S
C1623 H1597 0.950 . S
C1623 C1622 1.414 . S
C1623 C1624 1.374 . S
C1624 H1598 0.950 . S
C1624 C1620 1.385 . S
C1624 C1623 1.374 . S
C1625 C1622 1.499 . S
C1625 C1626 1.373 . S
C1625 C1627 1.389 . S
C1626 H1599 0.950 . S
C1626 C1612 1.377 . S
C1626 C1625 1.373 . S
C1627 C1611 1.377 . S
C1627 C1625 1.389 . S
C1627 C1628 1.524 . S
C1628 C1627 1.524 . S
C1628 C1629 1.397 . S
C1628 C1633 1.363 . S
C1629 H1600 0.950 . S
C1629 C1628 1.397 . S
C1629 C1630 1.334 . S
C1630 H1601 0.950 . S
C1630 C1629 1.334 . S
C1630 C1631 1.287 . S
C1631 C1630 1.287 . S
C1631 C1632 1.524 . S
C1631 H1634 0.999 . S
C1632 H1602 0.950 . S
C1632 C1631 1.524 . S
C1632 C1633 1.415 . S
C1633 H1603 0.950 . S
C1633 C1628 1.363 . S
C1633 C1632 1.415 . S
H1634 C1631 0.999 . S
H1635 C1616 0.913 . S
H1636 C1654 0.951 . S
H1637 C1656 0.951 . S
H1638 C1658 0.950 . S
H1639 C1659 0.950 . S
H1640 C1661 0.950 . S
H1641 C1664 0.950 . S
H1642 C1665 0.950 . S
H1643 C1667 0.950 . S
H1644 C1668 0.950 . S
H1645 C1669 0.951 . S
H1646 C1671 0.951 . S
H1647 C1673 0.950 . S
H1648 C1674 0.950 . S
H1649 C1676 0.950 . S
H1650 C1679 0.950 . S
H1651 C1680 0.950 . S
H1652 C1682 0.950 . S
H1653 C1683 0.950 . S
C1654 H1636 0.951 . S
C1654 C1655 1.366 . S
C1654 C1656 1.388 . S
C1655 C1654 1.366 . S
C1655 C1659 1.385 . S
C1656 H1637 0.951 . S
C1656 C1654 1.388 . S
C1656 C1657 1.366 . S
C1657 C1656 1.366 . S
C1657 C1658 1.414 . S
C1657 C1660 1.499 . S
C1658 H1638 0.950 . S
C1658 C1657 1.414 . S
C1658 C1659 1.374 . S
C1659 H1639 0.950 . S
C1659 C1655 1.385 . S
C1659 C1658 1.374 . S
C1660 C1657 1.499 . S
C1660 C1661 1.373 . S
C1660 C1662 1.389 . S
C1661 H1640 0.950 . S
C1661 C1660 1.373 . S
C1661 C1677 1.377 . S
C1662 C1660 1.389 . S
C1662 C1663 1.524 . S
C1662 C1676 1.377 . S
C1663 C1662 1.524 . S
C1663 C1664 1.397 . S
C1663 C1668 1.363 . S
C1664 H1641 0.950 . S
C1664 C1663 1.397 . S
C1664 C1665 1.334 . S
C1665 H1642 0.950 . S
C1665 C1664 1.334 . S
C1665 C1666 1.287 . S
C1666 C1665 1.287 . S
C1666 C1667 1.524 . S
C1666 H1685 0.913 . S
C1667 H1643 0.950 . S
C1667 C1666 1.524 . S
C1667 C1668 1.415 . S
C1668 H1644 0.950 . S
C1668 C1663 1.363 . S
C1668 C1667 1.415 . S
C1669 H1645 0.951 . S
C1669 C1670 1.366 . S
C1669 C1671 1.388 . S
C1670 C1669 1.366 . S
C1670 C1674 1.385 . S
C1671 H1646 0.951 . S
C1671 C1669 1.388 . S
C1671 C1672 1.366 . S
C1672 C1671 1.366 . S
C1672 C1673 1.414 . S
C1672 C1675 1.499 . S
C1673 H1647 0.950 . S
C1673 C1672 1.414 . S
C1673 C1674 1.374 . S
C1674 H1648 0.950 . S
C1674 C1670 1.385 . S
C1674 C1673 1.374 . S
C1675 C1672 1.499 . S
C1675 C1676 1.373 . S
C1675 C1677 1.389 . S
C1676 H1649 0.950 . S
C1676 C1662 1.377 . S
C1676 C1675 1.373 . S
C1677 C1661 1.377 . S
C1677 C1675 1.389 . S
C1677 C1678 1.524 . S
C1678 C1677 1.524 . S
C1678 C1679 1.397 . S
C1678 C1683 1.363 . S
C1679 H1650 0.950 . S
C1679 C1678 1.397 . S
C1679 C1680 1.334 . S
C1680 H1651 0.950 . S
C1680 C1679 1.334 . S
C1680 C1681 1.287 . S
C1681 C1680 1.287 . S
C1681 C1682 1.524 . S
C1681 H1684 0.999 . S
C1682 H1652 0.950 . S
C1682 C1681 1.524 . S
C1682 C1683 1.415 . S
C1683 H1653 0.950 . S
C1683 C1678 1.363 . S
C1683 C1682 1.415 . S
H1684 C1681 0.999 . S
H1685 C1666 0.913 . S
H1686 C1704 0.951 . S
H1687 C1706 0.951 . S
H1688 C1708 0.950 . S
H1689 C1709 0.950 . S
H1690 C1711 0.950 . S
H1691 C1714 0.950 . S
H1692 C1715 0.950 . S
H1693 C1717 0.950 . S
H1694 C1718 0.950 . S
H1695 C1719 0.951 . S
H1696 C1721 0.951 . S
H1697 C1723 0.950 . S
H1698 C1724 0.950 . S
H1699 C1726 0.950 . S
H1700 C1729 0.950 . S
H1701 C1730 0.950 . S
H1702 C1732 0.950 . S
H1703 C1733 0.950 . S
C1704 H1686 0.951 . S
C1704 C1705 1.366 . S
C1704 C1706 1.388 . S
C1705 C1704 1.366 . S
C1705 C1709 1.385 . S
C1706 H1687 0.951 . S
C1706 C1704 1.388 . S
C1706 C1707 1.366 . S
C1707 C1706 1.366 . S
C1707 C1708 1.414 . S
C1707 C1710 1.499 . S
C1708 H1688 0.950 . S
C1708 C1707 1.414 . S
C1708 C1709 1.374 . S
C1709 H1689 0.950 . S
C1709 C1705 1.385 . S
C1709 C1708 1.374 . S
C1710 C1707 1.499 . S
C1710 C1711 1.373 . S
C1710 C1712 1.389 . S
C1711 H1690 0.950 . S
C1711 C1710 1.373 . S
C1711 C1727 1.377 . S
C1712 C1710 1.389 . S
C1712 C1713 1.524 . S
C1712 C1726 1.377 . S
C1713 C1712 1.524 . S
C1713 C1714 1.397 . S
C1713 C1718 1.363 . S
C1714 H1691 0.950 . S
C1714 C1713 1.397 . S
C1714 C1715 1.334 . S
C1715 H1692 0.950 . S
C1715 C1714 1.334 . S
C1715 C1716 1.287 . S
C1716 C1715 1.287 . S
C1716 C1717 1.524 . S
C1716 H1735 0.913 . S
C1717 H1693 0.950 . S
C1717 C1716 1.524 . S
C1717 C1718 1.415 . S
C1718 H1694 0.950 . S
C1718 C1713 1.363 . S
C1718 C1717 1.415 . S
C1719 H1695 0.951 . S
C1719 C1720 1.366 . S
C1719 C1721 1.388 . S
C1720 C1719 1.366 . S
C1720 C1724 1.385 . S
C1721 H1696 0.951 . S
C1721 C1719 1.388 . S
C1721 C1722 1.366 . S
C1722 C1721 1.366 . S
C1722 C1723 1.414 . S
C1722 C1725 1.499 . S
C1723 H1697 0.950 . S
C1723 C1722 1.414 . S
C1723 C1724 1.374 . S
C1724 H1698 0.950 . S
C1724 C1720 1.385 . S
C1724 C1723 1.374 . S
C1725 C1722 1.499 . S
C1725 C1726 1.373 . S
C1725 C1727 1.389 . S
C1726 H1699 0.950 . S
C1726 C1712 1.377 . S
C1726 C1725 1.373 . S
C1727 C1711 1.377 . S
C1727 C1725 1.389 . S
C1727 C1728 1.524 . S
C1728 C1727 1.524 . S
C1728 C1729 1.397 . S
C1728 C1733 1.363 . S
C1729 H1700 0.950 . S
C1729 C1728 1.397 . S
C1729 C1730 1.334 . S
C1730 H1701 0.950 . S
C1730 C1729 1.334 . S
C1730 C1731 1.287 . S
C1731 C1730 1.287 . S
C1731 C1732 1.524 . S
C1731 H1734 0.999 . S
C1732 H1702 0.950 . S
C1732 C1731 1.524 . S
C1732 C1733 1.415 . S
C1733 H1703 0.950 . S
C1733 C1728 1.363 . S
C1733 C1732 1.415 . S
H1734 C1731 0.999 . S
H1735 C1716 0.913 . S
H1736 C1754 0.951 . S
H1737 C1756 0.951 . S
H1738 C1758 0.950 . S
H1739 C1759 0.950 . S
H1740 C1761 0.950 . S
H1741 C1764 0.950 . S
H1742 C1765 0.950 . S
H1743 C1767 0.950 . S
H1744 C1768 0.950 . S
H1745 C1769 0.951 . S
H1746 C1771 0.951 . S
H1747 C1773 0.950 . S
H1748 C1774 0.950 . S
H1749 C1776 0.950 . S
H1750 C1779 0.950 . S
H1751 C1780 0.950 . S
H1752 C1782 0.950 . S
H1753 C1783 0.950 . S
C1754 H1736 0.951 . S
C1754 C1755 1.366 . S
C1754 C1756 1.388 . S
C1755 C1754 1.366 . S
C1755 C1759 1.385 . S
C1756 H1737 0.951 . S
C1756 C1754 1.388 . S
C1756 C1757 1.366 . S
C1757 C1756 1.366 . S
C1757 C1758 1.414 . S
C1757 C1760 1.499 . S
C1758 H1738 0.950 . S
C1758 C1757 1.414 . S
C1758 C1759 1.374 . S
C1759 H1739 0.950 . S
C1759 C1755 1.385 . S
C1759 C1758 1.374 . S
C1760 C1757 1.499 . S
C1760 C1761 1.373 . S
C1760 C1762 1.389 . S
C1761 H1740 0.950 . S
C1761 C1760 1.373 . S
C1761 C1777 1.377 . S
C1762 C1760 1.389 . S
C1762 C1763 1.524 . S
C1762 C1776 1.377 . S
C1763 C1762 1.524 . S
C1763 C1764 1.397 . S
C1763 C1768 1.363 . S
C1764 H1741 0.950 . S
C1764 C1763 1.397 . S
C1764 C1765 1.334 . S
C1765 H1742 0.950 . S
C1765 C1764 1.334 . S
C1765 C1766 1.287 . S
C1766 C1765 1.287 . S
C1766 C1767 1.524 . S
C1766 H1785 0.913 . S
C1767 H1743 0.950 . S
C1767 C1766 1.524 . S
C1767 C1768 1.415 . S
C1768 H1744 0.950 . S
C1768 C1763 1.363 . S
C1768 C1767 1.415 . S
C1769 H1745 0.951 . S
C1769 C1770 1.366 . S
C1769 C1771 1.388 . S
C1770 C1769 1.366 . S
C1770 C1774 1.385 . S
C1771 H1746 0.951 . S
C1771 C1769 1.388 . S
C1771 C1772 1.366 . S
C1772 C1771 1.366 . S
C1772 C1773 1.414 . S
C1772 C1775 1.499 . S
C1773 H1747 0.950 . S
C1773 C1772 1.414 . S
C1773 C1774 1.374 . S
C1774 H1748 0.950 . S
C1774 C1770 1.385 . S
C1774 C1773 1.374 . S
C1775 C1772 1.499 . S
C1775 C1776 1.373 . S
C1775 C1777 1.389 . S
C1776 H1749 0.950 . S
C1776 C1762 1.377 . S
C1776 C1775 1.373 . S
C1777 C1761 1.377 . S
C1777 C1775 1.389 . S
C1777 C1778 1.524 . S
C1778 C1777 1.524 . S
C1778 C1779 1.397 . S
C1778 C1783 1.363 . S
C1779 H1750 0.950 . S
C1779 C1778 1.397 . S
C1779 C1780 1.334 . S
C1780 H1751 0.950 . S
C1780 C1779 1.334 . S
C1780 C1781 1.287 . S
C1781 C1780 1.287 . S
C1781 C1782 1.524 . S
C1781 H1784 0.999 . S
C1782 H1752 0.950 . S
C1782 C1781 1.524 . S
C1782 C1783 1.415 . S
C1783 H1753 0.950 . S
C1783 C1778 1.363 . S
C1783 C1782 1.415 . S
H1784 C1781 0.999 . S
H1785 C1766 0.913 . S
H1786 C1804 0.951 . S
H1787 C1806 0.951 . S
H1788 C1808 0.950 . S
H1789 C1809 0.950 . S
H1790 C1811 0.950 . S
H1791 C1814 0.950 . S
H1792 C1815 0.950 . S
H1793 C1817 0.950 . S
H1794 C1818 0.950 . S
H1795 C1819 0.951 . S
H1796 C1821 0.951 . S
H1797 C1823 0.950 . S
H1798 C1824 0.950 . S
H1799 C1826 0.950 . S
H1800 C1829 0.950 . S
H1801 C1830 0.950 . S
H1802 C1832 0.950 . S
H1803 C1833 0.950 . S
C1804 H1786 0.951 . S
C1804 C1805 1.366 . S
C1804 C1806 1.388 . S
C1805 C1804 1.366 . S
C1805 C1809 1.385 . S
C1806 H1787 0.951 . S
C1806 C1804 1.388 . S
C1806 C1807 1.366 . S
C1807 C1806 1.366 . S
C1807 C1808 1.414 . S
C1807 C1810 1.499 . S
C1808 H1788 0.950 . S
C1808 C1807 1.414 . S
C1808 C1809 1.374 . S
C1809 H1789 0.950 . S
C1809 C1805 1.385 . S
C1809 C1808 1.374 . S
C1810 C1807 1.499 . S
C1810 C1811 1.373 . S
C1810 C1812 1.389 . S
C1811 H1790 0.950 . S
C1811 C1810 1.373 . S
C1811 C1827 1.377 . S
C1812 C1810 1.389 . S
C1812 C1813 1.524 . S
C1812 C1826 1.377 . S
C1813 C1812 1.524 . S
C1813 C1814 1.397 . S
C1813 C1818 1.363 . S
C1814 H1791 0.950 . S
C1814 C1813 1.397 . S
C1814 C1815 1.334 . S
C1815 H1792 0.950 . S
C1815 C1814 1.334 . S
C1815 C1816 1.287 . S
C1816 C1815 1.287 . S
C1816 C1817 1.524 . S
C1816 H1835 0.913 . S
C1817 H1793 0.950 . S
C1817 C1816 1.524 . S
C1817 C1818 1.415 . S
C1818 H1794 0.950 . S
C1818 C1813 1.363 . S
C1818 C1817 1.415 . S
C1819 H1795 0.951 . S
C1819 C1820 1.366 . S
C1819 C1821 1.388 . S
C1820 C1819 1.366 . S
C1820 C1824 1.385 . S
C1821 H1796 0.951 . S
C1821 C1819 1.388 . S
C1821 C1822 1.366 . S
C1822 C1821 1.366 . S
C1822 C1823 1.414 . S
C1822 C1825 1.499 . S
C1823 H1797 0.950 . S
C1823 C1822 1.414 . S
C1823 C1824 1.374 . S
C1824 H1798 0.950 . S
C1824 C1820 1.385 . S
C1824 C1823 1.374 . S
C1825 C1822 1.499 . S
C1825 C1826 1.373 . S
C1825 C1827 1.389 . S
C1826 H1799 0.950 . S
C1826 C1812 1.377 . S
C1826 C1825 1.373 . S
C1827 C1811 1.377 . S
C1827 C1825 1.389 . S
C1827 C1828 1.524 . S
C1828 C1827 1.524 . S
C1828 C1829 1.397 . S
C1828 C1833 1.363 . S
C1829 H1800 0.950 . S
C1829 C1828 1.397 . S
C1829 C1830 1.334 . S
C1830 H1801 0.950 . S
C1830 C1829 1.334 . S
C1830 C1831 1.287 . S
C1831 C1830 1.287 . S
C1831 C1832 1.524 . S
C1831 H1834 0.999 . S
C1832 H1802 0.950 . S
C1832 C1831 1.524 . S
C1832 C1833 1.415 . S
C1833 H1803 0.950 . S
C1833 C1828 1.363 . S
C1833 C1832 1.415 . S
H1834 C1831 0.999 . S
H1835 C1816 0.913 . S
H1836 C1854 0.951 . S
H1837 C1856 0.951 . S
H1838 C1858 0.950 . S
H1839 C1859 0.950 . S
H1840 C1861 0.950 . S
H1841 C1864 0.950 . S
H1842 C1865 0.950 . S
H1843 C1867 0.950 . S
H1844 C1868 0.950 . S
H1845 C1869 0.951 . S
H1846 C1871 0.951 . S
H1847 C1873 0.950 . S
H1848 C1874 0.950 . S
H1849 C1876 0.950 . S
H1850 C1879 0.950 . S
H1851 C1880 0.950 . S
H1852 C1882 0.950 . S
H1853 C1883 0.950 . S
C1854 H1836 0.951 . S
C1854 C1855 1.366 . S
C1854 C1856 1.388 . S
C1855 C1854 1.366 . S
C1855 C1859 1.385 . S
C1856 H1837 0.951 . S
C1856 C1854 1.388 . S
C1856 C1857 1.366 . S
C1857 C1856 1.366 . S
C1857 C1858 1.414 . S
C1857 C1860 1.499 . S
C1858 H1838 0.950 . S
C1858 C1857 1.414 . S
C1858 C1859 1.374 . S
C1859 H1839 0.950 . S
C1859 C1855 1.385 . S
C1859 C1858 1.374 . S
C1860 C1857 1.499 . S
C1860 C1861 1.373 . S
C1860 C1862 1.389 . S
C1861 H1840 0.950 . S
C1861 C1860 1.373 . S
C1861 C1877 1.377 . S
C1862 C1860 1.389 . S
C1862 C1863 1.524 . S
C1862 C1876 1.377 . S
C1863 C1862 1.524 . S
C1863 C1864 1.397 . S
C1863 C1868 1.363 . S
C1864 H1841 0.950 . S
C1864 C1863 1.397 . S
C1864 C1865 1.334 . S
C1865 H1842 0.950 . S
C1865 C1864 1.334 . S
C1865 C1866 1.287 . S
C1866 C1865 1.287 . S
C1866 C1867 1.524 . S
C1866 H1885 0.913 . S
C1867 H1843 0.950 . S
C1867 C1866 1.524 . S
C1867 C1868 1.415 . S
C1868 H1844 0.950 . S
C1868 C1863 1.363 . S
C1868 C1867 1.415 . S
C1869 H1845 0.951 . S
C1869 C1870 1.366 . S
C1869 C1871 1.388 . S
C1870 C1869 1.366 . S
C1870 C1874 1.385 . S
C1871 H1846 0.951 . S
C1871 C1869 1.388 . S
C1871 C1872 1.366 . S
C1872 C1871 1.366 . S
C1872 C1873 1.414 . S
C1872 C1875 1.499 . S
C1873 H1847 0.950 . S
C1873 C1872 1.414 . S
C1873 C1874 1.374 . S
C1874 H1848 0.950 . S
C1874 C1870 1.385 . S
C1874 C1873 1.374 . S
C1875 C1872 1.499 . S
C1875 C1876 1.373 . S
C1875 C1877 1.389 . S
C1876 H1849 0.950 . S
C1876 C1862 1.377 . S
C1876 C1875 1.373 . S
C1877 C1861 1.377 . S
C1877 C1875 1.389 . S
C1877 C1878 1.524 . S
C1878 C1877 1.524 . S
C1878 C1879 1.397 . S
C1878 C1883 1.363 . S
C1879 H1850 0.950 . S
C1879 C1878 1.397 . S
C1879 C1880 1.334 . S
C1880 H1851 0.950 . S
C1880 C1879 1.334 . S
C1880 C1881 1.287 . S
C1881 C1880 1.287 . S
C1881 C1882 1.524 . S
C1881 H1884 0.999 . S
C1882 H1852 0.950 . S
C1882 C1881 1.524 . S
C1882 C1883 1.415 . S
C1883 H1853 0.950 . S
C1883 C1878 1.363 . S
C1883 C1882 1.415 . S
H1884 C1881 0.999 . S
H1885 C1866 0.913 . S
H1886 C1904 0.951 . S
H1887 C1906 0.951 . S
H1888 C1908 0.950 . S
H1889 C1909 0.950 . S
H1890 C1911 0.950 . S
H1891 C1914 0.950 . S
H1892 C1915 0.950 . S
H1893 C1917 0.950 . S
H1894 C1918 0.950 . S
H1895 C1919 0.951 . S
H1896 C1921 0.951 . S
H1897 C1923 0.950 . S
H1898 C1924 0.950 . S
H1899 C1926 0.950 . S
H1900 C1929 0.950 . S
H1901 C1930 0.950 . S
H1902 C1932 0.950 . S
H1903 C1933 0.950 . S
C1904 H1886 0.951 . S
C1904 C1905 1.366 . S
C1904 C1906 1.388 . S
C1905 C1904 1.366 . S
C1905 C1909 1.385 . S
C1906 H1887 0.951 . S
C1906 C1904 1.388 . S
C1906 C1907 1.366 . S
C1907 C1906 1.366 . S
C1907 C1908 1.414 . S
C1907 C1910 1.499 . S
C1908 H1888 0.950 . S
C1908 C1907 1.414 . S
C1908 C1909 1.374 . S
C1909 H1889 0.950 . S
C1909 C1905 1.385 . S
C1909 C1908 1.374 . S
C1910 C1907 1.499 . S
C1910 C1911 1.373 . S
C1910 C1912 1.389 . S
C1911 H1890 0.950 . S
C1911 C1910 1.373 . S
C1911 C1927 1.377 . S
C1912 C1910 1.389 . S
C1912 C1913 1.524 . S
C1912 C1926 1.377 . S
C1913 C1912 1.524 . S
C1913 C1914 1.397 . S
C1913 C1918 1.363 . S
C1914 H1891 0.950 . S
C1914 C1913 1.397 . S
C1914 C1915 1.334 . S
C1915 H1892 0.950 . S
C1915 C1914 1.334 . S
C1915 C1916 1.287 . S
C1916 C1915 1.287 . S
C1916 C1917 1.524 . S
C1916 H1935 0.913 . S
C1917 H1893 0.950 . S
C1917 C1916 1.524 . S
C1917 C1918 1.415 . S
C1918 H1894 0.950 . S
C1918 C1913 1.363 . S
C1918 C1917 1.415 . S
C1919 H1895 0.951 . S
C1919 C1920 1.366 . S
C1919 C1921 1.388 . S
C1920 C1919 1.366 . S
C1920 C1924 1.385 . S
C1921 H1896 0.951 . S
C1921 C1919 1.388 . S
C1921 C1922 1.366 . S
C1922 C1921 1.366 . S
C1922 C1923 1.414 . S
C1922 C1925 1.499 . S
C1923 H1897 0.950 . S
C1923 C1922 1.414 . S
C1923 C1924 1.374 . S
C1924 H1898 0.950 . S
C1924 C1920 1.385 . S
C1924 C1923 1.374 . S
C1925 C1922 1.499 . S
C1925 C1926 1.373 . S
C1925 C1927 1.389 . S
C1926 H1899 0.950 . S
C1926 C1912 1.377 . S
C1926 C1925 1.373 . S
C1927 C1911 1.377 . S
C1927 C1925 1.389 . S
C1927 C1928 1.524 . S
C1928 C1927 1.524 . S
C1928 C1929 1.397 . S
C1928 C1933 1.363 . S
C1929 H1900 0.950 . S
C1929 C1928 1.397 . S
C1929 C1930 1.334 . S
C1930 H1901 0.950 . S
C1930 C1929 1.334 . S
C1930 C1931 1.287 . S
C1931 C1930 1.287 . S
C1931 C1932 1.524 . S
C1931 H1934 0.999 . S
C1932 H1902 0.950 . S
C1932 C1931 1.524 . S
C1932 C1933 1.415 . S
C1933 H1903 0.950 . S
C1933 C1928 1.363 . S
C1933 C1932 1.415 . S
H1934 C1931 0.999 . S
H1935 C1916 0.913 . S
H1936 C1954 0.951 . S
H1937 C1956 0.951 . S
H1938 C1958 0.950 . S
H1939 C1959 0.950 . S
H1940 C1961 0.950 . S
H1941 C1964 0.950 . S
H1942 C1965 0.950 . S
H1943 C1967 0.950 . S
H1944 C1968 0.950 . S
H1945 C1969 0.951 . S
H1946 C1971 0.951 . S
H1947 C1973 0.950 . S
H1948 C1974 0.950 . S
H1949 C1976 0.950 . S
H1950 C1979 0.950 . S
H1951 C1980 0.950 . S
H1952 C1982 0.950 . S
H1953 C1983 0.950 . S
C1954 H1936 0.951 . S
C1954 C1955 1.366 . S
C1954 C1956 1.388 . S
C1955 C1954 1.366 . S
C1955 C1959 1.385 . S
C1956 H1937 0.951 . S
C1956 C1954 1.388 . S
C1956 C1957 1.366 . S
C1957 C1956 1.366 . S
C1957 C1958 1.414 . S
C1957 C1960 1.499 . S
C1958 H1938 0.950 . S
C1958 C1957 1.414 . S
C1958 C1959 1.374 . S
C1959 H1939 0.950 . S
C1959 C1955 1.385 . S
C1959 C1958 1.374 . S
C1960 C1957 1.499 . S
C1960 C1961 1.373 . S
C1960 C1962 1.389 . S
C1961 H1940 0.950 . S
C1961 C1960 1.373 . S
C1961 C1977 1.377 . S
C1962 C1960 1.389 . S
C1962 C1963 1.524 . S
C1962 C1976 1.377 . S
C1963 C1962 1.524 . S
C1963 C1964 1.397 . S
C1963 C1968 1.363 . S
C1964 H1941 0.950 . S
C1964 C1963 1.397 . S
C1964 C1965 1.334 . S
C1965 H1942 0.950 . S
C1965 C1964 1.334 . S
C1965 C1966 1.287 . S
C1966 C1965 1.287 . S
C1966 C1967 1.524 . S
C1966 H1985 0.913 . S
C1967 H1943 0.950 . S
C1967 C1966 1.524 . S
C1967 C1968 1.415 . S
C1968 H1944 0.950 . S
C1968 C1963 1.363 . S
C1968 C1967 1.415 . S
C1969 H1945 0.951 . S
C1969 C1970 1.366 . S
C1969 C1971 1.388 . S
C1970 C1969 1.366 . S
C1970 C1974 1.385 . S
C1971 H1946 0.951 . S
C1971 C1969 1.388 . S
C1971 C1972 1.366 . S
C1972 C1971 1.366 . S
C1972 C1973 1.414 . S
C1972 C1975 1.499 . S
C1973 H1947 0.950 . S
C1973 C1972 1.414 . S
C1973 C1974 1.374 . S
C1974 H1948 0.950 . S
C1974 C1970 1.385 . S
C1974 C1973 1.374 . S
C1975 C1972 1.499 . S
C1975 C1976 1.373 . S
C1975 C1977 1.389 . S
C1976 H1949 0.950 . S
C1976 C1962 1.377 . S
C1976 C1975 1.373 . S
C1977 C1961 1.377 . S
C1977 C1975 1.389 . S
C1977 C1978 1.524 . S
C1978 C1977 1.524 . S
C1978 C1979 1.397 . S
C1978 C1983 1.363 . S
C1979 H1950 0.950 . S
C1979 C1978 1.397 . S
C1979 C1980 1.334 . S
C1980 H1951 0.950 . S
C1980 C1979 1.334 . S
C1980 C1981 1.287 . S
C1981 C1980 1.287 . S
C1981 C1982 1.524 . S
C1981 H1984 0.999 . S
C1982 H1952 0.950 . S
C1982 C1981 1.524 . S
C1982 C1983 1.415 . S
C1983 H1953 0.950 . S
C1983 C1978 1.363 . S
C1983 C1982 1.415 . S
H1984 C1981 0.999 . S
H1985 C1966 0.913 . S
H1986 C2004 0.951 . S
H1987 C2006 0.951 . S
H1988 C2008 0.950 . S
H1989 C2009 0.950 . S
H1990 C2011 0.950 . S
H1991 C2014 0.950 . S
H1992 C2015 0.950 . S
H1993 C2017 0.950 . S
H1994 C2018 0.950 . S
H1995 C2019 0.951 . S
H1996 C2021 0.951 . S
H1997 C2023 0.950 . S
H1998 C2024 0.950 . S
H1999 C2026 0.950 . S
H2000 C2029 0.950 . S
H2001 C2030 0.950 . S
H2002 C2032 0.950 . S
H2003 C2033 0.950 . S
C2004 H1986 0.951 . S
C2004 C2005 1.366 . S
C2004 C2006 1.388 . S
C2005 C2004 1.366 . S
C2005 C2009 1.385 . S
C2006 H1987 0.951 . S
C2006 C2004 1.388 . S
C2006 C2007 1.366 . S
C2007 C2006 1.366 . S
C2007 C2008 1.414 . S
C2007 C2010 1.499 . S
C2008 H1988 0.950 . S
C2008 C2007 1.414 . S
C2008 C2009 1.374 . S
C2009 H1989 0.950 . S
C2009 C2005 1.385 . S
C2009 C2008 1.374 . S
C2010 C2007 1.499 . S
C2010 C2011 1.373 . S
C2010 C2012 1.389 . S
C2011 H1990 0.950 . S
C2011 C2010 1.373 . S
C2011 C2027 1.377 . S
C2012 C2010 1.389 . S
C2012 C2013 1.524 . S
C2012 C2026 1.377 . S
C2013 C2012 1.524 . S
C2013 C2014 1.397 . S
C2013 C2018 1.363 . S
C2014 H1991 0.950 . S
C2014 C2013 1.397 . S
C2014 C2015 1.334 . S
C2015 H1992 0.950 . S
C2015 C2014 1.334 . S
C2015 C2016 1.287 . S
C2016 C2015 1.287 . S
C2016 C2017 1.524 . S
C2016 H2035 0.913 . S
C2017 H1993 0.950 . S
C2017 C2016 1.524 . S
C2017 C2018 1.415 . S
C2018 H1994 0.950 . S
C2018 C2013 1.363 . S
C2018 C2017 1.415 . S
C2019 H1995 0.951 . S
C2019 C2020 1.366 . S
C2019 C2021 1.388 . S
C2020 C2019 1.366 . S
C2020 C2024 1.385 . S
C2021 H1996 0.951 . S
C2021 C2019 1.388 . S
C2021 C2022 1.366 . S
C2022 C2021 1.366 . S
C2022 C2023 1.414 . S
C2022 C2025 1.499 . S
C2023 H1997 0.950 . S
C2023 C2022 1.414 . S
C2023 C2024 1.374 . S
C2024 H1998 0.950 . S
C2024 C2020 1.385 . S
C2024 C2023 1.374 . S
C2025 C2022 1.499 . S
C2025 C2026 1.373 . S
C2025 C2027 1.389 . S
C2026 H1999 0.950 . S
C2026 C2012 1.377 . S
C2026 C2025 1.373 . S
C2027 C2011 1.377 . S
C2027 C2025 1.389 . S
C2027 C2028 1.524 . S
C2028 C2027 1.524 . S
C2028 C2029 1.397 . S
C2028 C2033 1.363 . S
C2029 H2000 0.950 . S
C2029 C2028 1.397 . S
C2029 C2030 1.334 . S
C2030 H2001 0.950 . S
C2030 C2029 1.334 . S
C2030 C2031 1.287 . S
C2031 C2030 1.287 . S
C2031 C2032 1.524 . S
C2031 H2034 0.999 . S
C2032 H2002 0.950 . S
C2032 C2031 1.524 . S
C2032 C2033 1.415 . S
C2033 H2003 0.950 . S
C2033 C2028 1.363 . S
C2033 C2032 1.415 . S
H2034 C2031 0.999 . S
H2035 C2016 0.913 . S
H2036 C2054 0.951 . S
H2037 C2056 0.951 . S
H2038 C2058 0.950 . S
H2039 C2059 0.950 . S
H2040 C2061 0.950 . S
H2041 C2064 0.950 . S
H2042 C2065 0.950 . S
H2043 C2067 0.950 . S
H2044 C2068 0.950 . S
H2045 C2069 0.951 . S
H2046 C2071 0.951 . S
H2047 C2073 0.950 . S
H2048 C2074 0.950 . S
H2049 C2076 0.950 . S
H2050 C2079 0.950 . S
H2051 C2080 0.950 . S
H2052 C2082 0.950 . S
H2053 C2083 0.950 . S
C2054 H2036 0.951 . S
C2054 C2055 1.366 . S
C2054 C2056 1.388 . S
C2055 C2054 1.366 . S
C2055 C2059 1.385 . S
C2056 H2037 0.951 . S
C2056 C2054 1.388 . S
C2056 C2057 1.366 . S
C2057 C2056 1.366 . S
C2057 C2058 1.414 . S
C2057 C2060 1.499 . S
C2058 H2038 0.950 . S
C2058 C2057 1.414 . S
C2058 C2059 1.374 . S
C2059 H2039 0.950 . S
C2059 C2055 1.385 . S
C2059 C2058 1.374 . S
C2060 C2057 1.499 . S
C2060 C2061 1.373 . S
C2060 C2062 1.389 . S
C2061 H2040 0.950 . S
C2061 C2060 1.373 . S
C2061 C2077 1.377 . S
C2062 C2060 1.389 . S
C2062 C2063 1.524 . S
C2062 C2076 1.377 . S
C2063 C2062 1.524 . S
C2063 C2064 1.397 . S
C2063 C2068 1.363 . S
C2064 H2041 0.950 . S
C2064 C2063 1.397 . S
C2064 C2065 1.334 . S
C2065 H2042 0.950 . S
C2065 C2064 1.334 . S
C2065 C2066 1.287 . S
C2066 C2065 1.287 . S
C2066 C2067 1.524 . S
C2066 H2085 0.913 . S
C2067 H2043 0.950 . S
C2067 C2066 1.524 . S
C2067 C2068 1.415 . S
C2068 H2044 0.950 . S
C2068 C2063 1.363 . S
C2068 C2067 1.415 . S
C2069 H2045 0.951 . S
C2069 C2070 1.366 . S
C2069 C2071 1.388 . S
C2070 C2069 1.366 . S
C2070 C2074 1.385 . S
C2071 H2046 0.951 . S
C2071 C2069 1.388 . S
C2071 C2072 1.366 . S
C2072 C2071 1.366 . S
C2072 C2073 1.414 . S
C2072 C2075 1.499 . S
C2073 H2047 0.950 . S
C2073 C2072 1.414 . S
C2073 C2074 1.374 . S
C2074 H2048 0.950 . S
C2074 C2070 1.385 . S
C2074 C2073 1.374 . S
C2075 C2072 1.499 . S
C2075 C2076 1.373 . S
C2075 C2077 1.389 . S
C2076 H2049 0.950 . S
C2076 C2062 1.377 . S
C2076 C2075 1.373 . S
C2077 C2061 1.377 . S
C2077 C2075 1.389 . S
C2077 C2078 1.524 . S
C2078 C2077 1.524 . S
C2078 C2079 1.397 . S
C2078 C2083 1.363 . S
C2079 H2050 0.950 . S
C2079 C2078 1.397 . S
C2079 C2080 1.334 . S
C2080 H2051 0.950 . S
C2080 C2079 1.334 . S
C2080 C2081 1.287 . S
C2081 C2080 1.287 . S
C2081 C2082 1.524 . S
C2081 H2084 0.999 . S
C2082 H2052 0.950 . S
C2082 C2081 1.524 . S
C2082 C2083 1.415 . S
C2083 H2053 0.950 . S
C2083 C2078 1.363 . S
C2083 C2082 1.415 . S
H2084 C2081 0.999 . S
H2085 C2066 0.913 . S
H2086 C2104 0.951 . S
H2087 C2106 0.951 . S
H2088 C2108 0.950 . S
H2089 C2109 0.950 . S
H2090 C2111 0.950 . S
H2091 C2114 0.950 . S
H2092 C2115 0.950 . S
H2093 C2117 0.950 . S
H2094 C2118 0.950 . S
H2095 C2119 0.951 . S
H2096 C2121 0.951 . S
H2097 C2123 0.950 . S
H2098 C2124 0.950 . S
H2099 C2126 0.950 . S
H2100 C2129 0.950 . S
H2101 C2130 0.950 . S
H2102 C2132 0.950 . S
H2103 C2133 0.950 . S
C2104 H2086 0.951 . S
C2104 C2105 1.366 . S
C2104 C2106 1.388 . S
C2105 C2104 1.366 . S
C2105 C2109 1.385 . S
C2106 H2087 0.951 . S
C2106 C2104 1.388 . S
C2106 C2107 1.366 . S
C2107 C2106 1.366 . S
C2107 C2108 1.414 . S
C2107 C2110 1.499 . S
C2108 H2088 0.950 . S
C2108 C2107 1.414 . S
C2108 C2109 1.374 . S
C2109 H2089 0.950 . S
C2109 C2105 1.385 . S
C2109 C2108 1.374 . S
C2110 C2107 1.499 . S
C2110 C2111 1.373 . S
C2110 C2112 1.389 . S
C2111 H2090 0.950 . S
C2111 C2110 1.373 . S
C2111 C2127 1.377 . S
C2112 C2110 1.389 . S
C2112 C2113 1.524 . S
C2112 C2126 1.377 . S
C2113 C2112 1.524 . S
C2113 C2114 1.397 . S
C2113 C2118 1.363 . S
C2114 H2091 0.950 . S
C2114 C2113 1.397 . S
C2114 C2115 1.334 . S
C2115 H2092 0.950 . S
C2115 C2114 1.334 . S
C2115 C2116 1.287 . S
C2116 C2115 1.287 . S
C2116 C2117 1.524 . S
C2116 H2135 0.913 . S
C2117 H2093 0.950 . S
C2117 C2116 1.524 . S
C2117 C2118 1.415 . S
C2118 H2094 0.950 . S
C2118 C2113 1.363 . S
C2118 C2117 1.415 . S
C2119 H2095 0.951 . S
C2119 C2120 1.366 . S
C2119 C2121 1.388 . S
C2120 C2119 1.366 . S
C2120 C2124 1.385 . S
C2121 H2096 0.951 . S
C2121 C2119 1.388 . S
C2121 C2122 1.366 . S
C2122 C2121 1.366 . S
C2122 C2123 1.414 . S
C2122 C2125 1.499 . S
C2123 H2097 0.950 . S
C2123 C2122 1.414 . S
C2123 C2124 1.374 . S
C2124 H2098 0.950 . S
C2124 C2120 1.385 . S
C2124 C2123 1.374 . S
C2125 C2122 1.499 . S
C2125 C2126 1.373 . S
C2125 C2127 1.389 . S
C2126 H2099 0.950 . S
C2126 C2112 1.377 . S
C2126 C2125 1.373 . S
C2127 C2111 1.377 . S
C2127 C2125 1.389 . S
C2127 C2128 1.524 . S
C2128 C2127 1.524 . S
C2128 C2129 1.397 . S
C2128 C2133 1.363 . S
C2129 H2100 0.950 . S
C2129 C2128 1.397 . S
C2129 C2130 1.334 . S
C2130 H2101 0.950 . S
C2130 C2129 1.334 . S
C2130 C2131 1.287 . S
C2131 C2130 1.287 . S
C2131 C2132 1.524 . S
C2131 H2134 0.999 . S
C2132 H2102 0.950 . S
C2132 C2131 1.524 . S
C2132 C2133 1.415 . S
C2133 H2103 0.950 . S
C2133 C2128 1.363 . S
C2133 C2132 1.415 . S
H2134 C2131 0.999 . S
H2135 C2116 0.913 . S
H2136 C2154 0.951 . S
H2137 C2156 0.951 . S
H2138 C2158 0.950 . S
H2139 C2159 0.950 . S
H2140 C2161 0.950 . S
H2141 C2164 0.950 . S
H2142 C2165 0.950 . S
H2143 C2167 0.950 . S
H2144 C2168 0.950 . S
H2145 C2169 0.951 . S
H2146 C2171 0.951 . S
H2147 C2173 0.950 . S
H2148 C2174 0.950 . S
H2149 C2176 0.950 . S
H2150 C2179 0.950 . S
H2151 C2180 0.950 . S
H2152 C2182 0.950 . S
H2153 C2183 0.950 . S
C2154 H2136 0.951 . S
C2154 C2155 1.366 . S
C2154 C2156 1.388 . S
C2155 C2154 1.366 . S
C2155 C2159 1.385 . S
C2156 H2137 0.951 . S
C2156 C2154 1.388 . S
C2156 C2157 1.366 . S
C2157 C2156 1.366 . S
C2157 C2158 1.414 . S
C2157 C2160 1.499 . S
C2158 H2138 0.950 . S
C2158 C2157 1.414 . S
C2158 C2159 1.374 . S
C2159 H2139 0.950 . S
C2159 C2155 1.385 . S
C2159 C2158 1.374 . S
C2160 C2157 1.499 . S
C2160 C2161 1.373 . S
C2160 C2162 1.389 . S
C2161 H2140 0.950 . S
C2161 C2160 1.373 . S
C2161 C2177 1.377 . S
C2162 C2160 1.389 . S
C2162 C2163 1.524 . S
C2162 C2176 1.377 . S
C2163 C2162 1.524 . S
C2163 C2164 1.397 . S
C2163 C2168 1.363 . S
C2164 H2141 0.950 . S
C2164 C2163 1.397 . S
C2164 C2165 1.334 . S
C2165 H2142 0.950 . S
C2165 C2164 1.334 . S
C2165 C2166 1.287 . S
C2166 C2165 1.287 . S
C2166 C2167 1.524 . S
C2166 H2185 0.913 . S
C2167 H2143 0.950 . S
C2167 C2166 1.524 . S
C2167 C2168 1.415 . S
C2168 H2144 0.950 . S
C2168 C2163 1.363 . S
C2168 C2167 1.415 . S
C2169 H2145 0.951 . S
C2169 C2170 1.366 . S
C2169 C2171 1.388 . S
C2170 C2169 1.366 . S
C2170 C2174 1.385 . S
C2171 H2146 0.951 . S
C2171 C2169 1.388 . S
C2171 C2172 1.366 . S
C2172 C2171 1.366 . S
C2172 C2173 1.414 . S
C2172 C2175 1.499 . S
C2173 H2147 0.950 . S
C2173 C2172 1.414 . S
C2173 C2174 1.374 . S
C2174 H2148 0.950 . S
C2174 C2170 1.385 . S
C2174 C2173 1.374 . S
C2175 C2172 1.499 . S
C2175 C2176 1.373 . S
C2175 C2177 1.389 . S
C2176 H2149 0.950 . S
C2176 C2162 1.377 . S
C2176 C2175 1.373 . S
C2177 C2161 1.377 . S
C2177 C2175 1.389 . S
C2177 C2178 1.524 . S
C2178 C2177 1.524 . S
C2178 C2179 1.397 . S
C2178 C2183 1.363 . S
C2179 H2150 0.950 . S
C2179 C2178 1.397 . S
C2179 C2180 1.334 . S
C2180 H2151 0.950 . S
C2180 C2179 1.334 . S
C2180 C2181 1.287 . S
C2181 C2180 1.287 . S
C2181 C2182 1.524 . S
C2181 H2184 0.999 . S
C2182 H2152 0.950 . S
C2182 C2181 1.524 . S
C2182 C2183 1.415 . S
C2183 H2153 0.950 . S
C2183 C2178 1.363 . S
C2183 C2182 1.415 . S
H2184 C2181 0.999 . S
H2185 C2166 0.913 . S
H2186 C2204 0.951 . S
H2187 C2206 0.951 . S
H2188 C2208 0.950 . S
H2189 C2209 0.950 . S
H2190 C2211 0.950 . S
H2191 C2214 0.950 . S
H2192 C2215 0.950 . S
H2193 C2217 0.950 . S
H2194 C2218 0.950 . S
H2195 C2219 0.951 . S
H2196 C2221 0.951 . S
H2197 C2223 0.950 . S
H2198 C2224 0.950 . S
H2199 C2226 0.950 . S
H2200 C2229 0.950 . S
H2201 C2230 0.950 . S
H2202 C2232 0.950 . S
H2203 C2233 0.950 . S
C2204 H2186 0.951 . S
C2204 C2205 1.366 . S
C2204 C2206 1.388 . S
C2205 C2204 1.366 . S
C2205 C2209 1.385 . S
C2206 H2187 0.951 . S
C2206 C2204 1.388 . S
C2206 C2207 1.366 . S
C2207 C2206 1.366 . S
C2207 C2208 1.414 . S
C2207 C2210 1.499 . S
C2208 H2188 0.950 . S
C2208 C2207 1.414 . S
C2208 C2209 1.374 . S
C2209 H2189 0.950 . S
C2209 C2205 1.385 . S
C2209 C2208 1.374 . S
C2210 C2207 1.499 . S
C2210 C2211 1.373 . S
C2210 C2212 1.389 . S
C2211 H2190 0.950 . S
C2211 C2210 1.373 . S
C2211 C2227 1.377 . S
C2212 C2210 1.389 . S
C2212 C2213 1.524 . S
C2212 C2226 1.377 . S
C2213 C2212 1.524 . S
C2213 C2214 1.397 . S
C2213 C2218 1.363 . S
C2214 H2191 0.950 . S
C2214 C2213 1.397 . S
C2214 C2215 1.334 . S
C2215 H2192 0.950 . S
C2215 C2214 1.334 . S
C2215 C2216 1.287 . S
C2216 C2215 1.287 . S
C2216 C2217 1.524 . S
C2216 H2235 0.913 . S
C2217 H2193 0.950 . S
C2217 C2216 1.524 . S
C2217 C2218 1.415 . S
C2218 H2194 0.950 . S
C2218 C2213 1.363 . S
C2218 C2217 1.415 . S
C2219 H2195 0.951 . S
C2219 C2220 1.366 . S
C2219 C2221 1.388 . S
C2220 C2219 1.366 . S
C2220 C2224 1.385 . S
C2221 H2196 0.951 . S
C2221 C2219 1.388 . S
C2221 C2222 1.366 . S
C2222 C2221 1.366 . S
C2222 C2223 1.414 . S
C2222 C2225 1.499 . S
C2223 H2197 0.950 . S
C2223 C2222 1.414 . S
C2223 C2224 1.374 . S
C2224 H2198 0.950 . S
C2224 C2220 1.385 . S
C2224 C2223 1.374 . S
C2225 C2222 1.499 . S
C2225 C2226 1.373 . S
C2225 C2227 1.389 . S
C2226 H2199 0.950 . S
C2226 C2212 1.377 . S
C2226 C2225 1.373 . S
C2227 C2211 1.377 . S
C2227 C2225 1.389 . S
C2227 C2228 1.524 . S
C2228 C2227 1.524 . S
C2228 C2229 1.397 . S
C2228 C2233 1.363 . S
C2229 H2200 0.950 . S
C2229 C2228 1.397 . S
C2229 C2230 1.334 . S
C2230 H2201 0.950 . S
C2230 C2229 1.334 . S
C2230 C2231 1.287 . S
C2231 C2230 1.287 . S
C2231 C2232 1.524 . S
C2231 H2234 0.999 . S
C2232 H2202 0.950 . S
C2232 C2231 1.524 . S
C2232 C2233 1.415 . S
C2233 H2203 0.950 . S
C2233 C2228 1.363 . S
C2233 C2232 1.415 . S
H2234 C2231 0.999 . S
H2235 C2216 0.913 . S
H2236 C2254 0.951 . S
H2237 C2256 0.951 . S
H2238 C2258 0.950 . S
H2239 C2259 0.950 . S
H2240 C2261 0.950 . S
H2241 C2264 0.950 . S
H2242 C2265 0.950 . S
H2243 C2267 0.950 . S
H2244 C2268 0.950 . S
H2245 C2269 0.951 . S
H2246 C2271 0.951 . S
H2247 C2273 0.950 . S
H2248 C2274 0.950 . S
H2249 C2276 0.950 . S
H2250 C2279 0.950 . S
H2251 C2280 0.950 . S
H2252 C2282 0.950 . S
H2253 C2283 0.950 . S
C2254 H2236 0.951 . S
C2254 C2255 1.366 . S
C2254 C2256 1.388 . S
C2255 C2254 1.366 . S
C2255 C2259 1.385 . S
C2256 H2237 0.951 . S
C2256 C2254 1.388 . S
C2256 C2257 1.366 . S
C2257 C2256 1.366 . S
C2257 C2258 1.414 . S
C2257 C2260 1.499 . S
C2258 H2238 0.950 . S
C2258 C2257 1.414 . S
C2258 C2259 1.374 . S
C2259 H2239 0.950 . S
C2259 C2255 1.385 . S
C2259 C2258 1.374 . S
C2260 C2257 1.499 . S
C2260 C2261 1.373 . S
C2260 C2262 1.389 . S
C2261 H2240 0.950 . S
C2261 C2260 1.373 . S
C2261 C2277 1.377 . S
C2262 C2260 1.389 . S
C2262 C2263 1.524 . S
C2262 C2276 1.377 . S
C2263 C2262 1.524 . S
C2263 C2264 1.397 . S
C2263 C2268 1.363 . S
C2264 H2241 0.950 . S
C2264 C2263 1.397 . S
C2264 C2265 1.334 . S
C2265 H2242 0.950 . S
C2265 C2264 1.334 . S
C2265 C2266 1.287 . S
C2266 C2265 1.287 . S
C2266 C2267 1.524 . S
C2266 H2285 0.913 . S
C2267 H2243 0.950 . S
C2267 C2266 1.524 . S
C2267 C2268 1.415 . S
C2268 H2244 0.950 . S
C2268 C2263 1.363 . S
C2268 C2267 1.415 . S
C2269 H2245 0.951 . S
C2269 C2270 1.366 . S
C2269 C2271 1.388 . S
C2270 C2269 1.366 . S
C2270 C2274 1.385 . S
C2271 H2246 0.951 . S
C2271 C2269 1.388 . S
C2271 C2272 1.366 . S
C2272 C2271 1.366 . S
C2272 C2273 1.414 . S
C2272 C2275 1.499 . S
C2273 H2247 0.950 . S
C2273 C2272 1.414 . S
C2273 C2274 1.374 . S
C2274 H2248 0.950 . S
C2274 C2270 1.385 . S
C2274 C2273 1.374 . S
C2275 C2272 1.499 . S
C2275 C2276 1.373 . S
C2275 C2277 1.389 . S
C2276 H2249 0.950 . S
C2276 C2262 1.377 . S
C2276 C2275 1.373 . S
C2277 C2261 1.377 . S
C2277 C2275 1.389 . S
C2277 C2278 1.524 . S
C2278 C2277 1.524 . S
C2278 C2279 1.397 . S
C2278 C2283 1.363 . S
C2279 H2250 0.950 . S
C2279 C2278 1.397 . S
C2279 C2280 1.334 . S
C2280 H2251 0.950 . S
C2280 C2279 1.334 . S
C2280 C2281 1.287 . S
C2281 C2280 1.287 . S
C2281 C2282 1.524 . S
C2281 H2284 0.999 . S
C2282 H2252 0.950 . S
C2282 C2281 1.524 . S
C2282 C2283 1.415 . S
C2283 H2253 0.950 . S
C2283 C2278 1.363 . S
C2283 C2282 1.415 . S
H2284 C2281 0.999 . S
H2285 C2266 0.913 . S
H2286 C2304 0.951 . S
H2287 C2306 0.951 . S
H2288 C2308 0.950 . S
H2289 C2309 0.950 . S
H2290 C2311 0.950 . S
H2291 C2314 0.950 . S
H2292 C2315 0.950 . S
H2293 C2317 0.950 . S
H2294 C2318 0.950 . S
H2295 C2319 0.951 . S
H2296 C2321 0.951 . S
H2297 C2323 0.950 . S
H2298 C2324 0.950 . S
H2299 C2326 0.950 . S
H2300 C2329 0.950 . S
H2301 C2330 0.950 . S
H2302 C2332 0.950 . S
H2303 C2333 0.950 . S
C2304 H2286 0.951 . S
C2304 C2305 1.366 . S
C2304 C2306 1.388 . S
C2305 C2304 1.366 . S
C2305 C2309 1.385 . S
C2306 H2287 0.951 . S
C2306 C2304 1.388 . S
C2306 C2307 1.366 . S
C2307 C2306 1.366 . S
C2307 C2308 1.414 . S
C2307 C2310 1.499 . S
C2308 H2288 0.950 . S
C2308 C2307 1.414 . S
C2308 C2309 1.374 . S
C2309 H2289 0.950 . S
C2309 C2305 1.385 . S
C2309 C2308 1.374 . S
C2310 C2307 1.499 . S
C2310 C2311 1.373 . S
C2310 C2312 1.389 . S
C2311 H2290 0.950 . S
C2311 C2310 1.373 . S
C2311 C2327 1.377 . S
C2312 C2310 1.389 . S
C2312 C2313 1.524 . S
C2312 C2326 1.377 . S
C2313 C2312 1.524 . S
C2313 C2314 1.397 . S
C2313 C2318 1.363 . S
C2314 H2291 0.950 . S
C2314 C2313 1.397 . S
C2314 C2315 1.334 . S
C2315 H2292 0.950 . S
C2315 C2314 1.334 . S
C2315 C2316 1.287 . S
C2316 C2315 1.287 . S
C2316 C2317 1.524 . S
C2316 H2335 0.913 . S
C2317 H2293 0.950 . S
C2317 C2316 1.524 . S
C2317 C2318 1.415 . S
C2318 H2294 0.950 . S
C2318 C2313 1.363 . S
C2318 C2317 1.415 . S
C2319 H2295 0.951 . S
C2319 C2320 1.366 . S
C2319 C2321 1.388 . S
C2320 C2319 1.366 . S
C2320 C2324 1.385 . S
C2321 H2296 0.951 . S
C2321 C2319 1.388 . S
C2321 C2322 1.366 . S
C2322 C2321 1.366 . S
C2322 C2323 1.414 . S
C2322 C2325 1.499 . S
C2323 H2297 0.950 . S
C2323 C2322 1.414 . S
C2323 C2324 1.374 . S
C2324 H2298 0.950 . S
C2324 C2320 1.385 . S
C2324 C2323 1.374 . S
C2325 C2322 1.499 . S
C2325 C2326 1.373 . S
C2325 C2327 1.389 . S
C2326 H2299 0.950 . S
C2326 C2312 1.377 . S
C2326 C2325 1.373 . S
C2327 C2311 1.377 . S
C2327 C2325 1.389 . S
C2327 C2328 1.524 . S
C2328 C2327 1.524 . S
C2328 C2329 1.397 . S
C2328 C2333 1.363 . S
C2329 H2300 0.950 . S
C2329 C2328 1.397 . S
C2329 C2330 1.334 . S
C2330 H2301 0.950 . S
C2330 C2329 1.334 . S
C2330 C2331 1.287 . S
C2331 C2330 1.287 . S
C2331 C2332 1.524 . S
C2331 H2334 0.999 . S
C2332 H2302 0.950 . S
C2332 C2331 1.524 . S
C2332 C2333 1.415 . S
C2333 H2303 0.950 . S
C2333 C2328 1.363 . S
C2333 C2332 1.415 . S
H2334 C2331 0.999 . S
H2335 C2316 0.913 . S
H2336 C2354 0.951 . S
H2337 C2356 0.951 . S
H2338 C2358 0.950 . S
H2339 C2359 0.950 . S
H2340 C2361 0.950 . S
H2341 C2364 0.950 . S
H2342 C2365 0.950 . S
H2343 C2367 0.950 . S
H2344 C2368 0.950 . S
H2345 C2369 0.951 . S
H2346 C2371 0.951 . S
H2347 C2373 0.950 . S
H2348 C2374 0.950 . S
H2349 C2376 0.950 . S
H2350 C2379 0.950 . S
H2351 C2380 0.950 . S
H2352 C2382 0.950 . S
H2353 C2383 0.950 . S
C2354 H2336 0.951 . S
C2354 C2355 1.366 . S
C2354 C2356 1.388 . S
C2355 C2354 1.366 . S
C2355 C2359 1.385 . S
C2356 H2337 0.951 . S
C2356 C2354 1.388 . S
C2356 C2357 1.366 . S
C2357 C2356 1.366 . S
C2357 C2358 1.414 . S
C2357 C2360 1.499 . S
C2358 H2338 0.950 . S
C2358 C2357 1.414 . S
C2358 C2359 1.374 . S
C2359 H2339 0.950 . S
C2359 C2355 1.385 . S
C2359 C2358 1.374 . S
C2360 C2357 1.499 . S
C2360 C2361 1.373 . S
C2360 C2362 1.389 . S
C2361 H2340 0.950 . S
C2361 C2360 1.373 . S
C2361 C2377 1.377 . S
C2362 C2360 1.389 . S
C2362 C2363 1.524 . S
C2362 C2376 1.377 . S
C2363 C2362 1.524 . S
C2363 C2364 1.397 . S
C2363 C2368 1.363 . S
C2364 H2341 0.950 . S
C2364 C2363 1.397 . S
C2364 C2365 1.334 . S
C2365 H2342 0.950 . S
C2365 C2364 1.334 . S
C2365 C2366 1.287 . S
C2366 C2365 1.287 . S
C2366 C2367 1.524 . S
C2366 H2385 0.913 . S
C2367 H2343 0.950 . S
C2367 C2366 1.524 . S
C2367 C2368 1.415 . S
C2368 H2344 0.950 . S
C2368 C2363 1.363 . S
C2368 C2367 1.415 . S
C2369 H2345 0.951 . S
C2369 C2370 1.366 . S
C2369 C2371 1.388 . S
C2370 C2369 1.366 . S
C2370 C2374 1.385 . S
C2371 H2346 0.951 . S
C2371 C2369 1.388 . S
C2371 C2372 1.366 . S
C2372 C2371 1.366 . S
C2372 C2373 1.414 . S
C2372 C2375 1.499 . S
C2373 H2347 0.950 . S
C2373 C2372 1.414 . S
C2373 C2374 1.374 . S
C2374 H2348 0.950 . S
C2374 C2370 1.385 . S
C2374 C2373 1.374 . S
C2375 C2372 1.499 . S
C2375 C2376 1.373 . S
C2375 C2377 1.389 . S
C2376 H2349 0.950 . S
C2376 C2362 1.377 . S
C2376 C2375 1.373 . S
C2377 C2361 1.377 . S
C2377 C2375 1.389 . S
C2377 C2378 1.524 . S
C2378 C2377 1.524 . S
C2378 C2379 1.397 . S
C2378 C2383 1.363 . S
C2379 H2350 0.950 . S
C2379 C2378 1.397 . S
C2379 C2380 1.334 . S
C2380 H2351 0.950 . S
C2380 C2379 1.334 . S
C2380 C2381 1.287 . S
C2381 C2380 1.287 . S
C2381 C2382 1.524 . S
C2381 H2384 0.999 . S
C2382 H2352 0.950 . S
C2382 C2381 1.524 . S
C2382 C2383 1.415 . S
C2383 H2353 0.950 . S
C2383 C2378 1.363 . S
C2383 C2382 1.415 . S
H2384 C2381 0.999 . S
H2385 C2366 0.913 . S
H2386 C2404 0.951 . S
H2387 C2406 0.951 . S
H2388 C2408 0.950 . S
H2389 C2409 0.950 . S
H2390 C2411 0.950 . S
H2391 C2414 0.950 . S
H2392 C2415 0.950 . S
H2393 C2417 0.950 . S
H2394 C2418 0.950 . S
H2395 C2419 0.951 . S
H2396 C2421 0.951 . S
H2397 C2423 0.950 . S
H2398 C2424 0.950 . S
H2399 C2426 0.950 . S
H2400 C2429 0.950 . S
H2401 C2430 0.950 . S
H2402 C2432 0.950 . S
H2403 C2433 0.950 . S
C2404 H2386 0.951 . S
C2404 C2405 1.366 . S
C2404 C2406 1.388 . S
C2405 C2404 1.366 . S
C2405 C2409 1.385 . S
C2406 H2387 0.951 . S
C2406 C2404 1.388 . S
C2406 C2407 1.366 . S
C2407 C2406 1.366 . S
C2407 C2408 1.414 . S
C2407 C2410 1.499 . S
C2408 H2388 0.950 . S
C2408 C2407 1.414 . S
C2408 C2409 1.374 . S
C2409 H2389 0.950 . S
C2409 C2405 1.385 . S
C2409 C2408 1.374 . S
C2410 C2407 1.499 . S
C2410 C2411 1.373 . S
C2410 C2412 1.389 . S
C2411 H2390 0.950 . S
C2411 C2410 1.373 . S
C2411 C2427 1.377 . S
C2412 C2410 1.389 . S
C2412 C2413 1.524 . S
C2412 C2426 1.377 . S
C2413 C2412 1.524 . S
C2413 C2414 1.397 . S
C2413 C2418 1.363 . S
C2414 H2391 0.950 . S
C2414 C2413 1.397 . S
C2414 C2415 1.334 . S
C2415 H2392 0.950 . S
C2415 C2414 1.334 . S
C2415 C2416 1.287 . S
C2416 C2415 1.287 . S
C2416 C2417 1.524 . S
C2416 H2435 0.913 . S
C2417 H2393 0.950 . S
C2417 C2416 1.524 . S
C2417 C2418 1.415 . S
C2418 H2394 0.950 . S
C2418 C2413 1.363 . S
C2418 C2417 1.415 . S
C2419 H2395 0.951 . S
C2419 C2420 1.366 . S
C2419 C2421 1.388 . S
C2420 C2419 1.366 . S
C2420 C2424 1.385 . S
C2421 H2396 0.951 . S
C2421 C2419 1.388 . S
C2421 C2422 1.366 . S
C2422 C2421 1.366 . S
C2422 C2423 1.414 . S
C2422 C2425 1.499 . S
C2423 H2397 0.950 . S
C2423 C2422 1.414 . S
C2423 C2424 1.374 . S
C2424 H2398 0.950 . S
C2424 C2420 1.385 . S
C2424 C2423 1.374 . S
C2425 C2422 1.499 . S
C2425 C2426 1.373 . S
C2425 C2427 1.389 . S
C2426 H2399 0.950 . S
C2426 C2412 1.377 . S
C2426 C2425 1.373 . S
C2427 C2411 1.377 . S
C2427 C2425 1.389 . S
C2427 C2428 1.524 . S
C2428 C2427 1.524 . S
C2428 C2429 1.397 . S
C2428 C2433 1.363 . S
C2429 H2400 0.950 . S
C2429 C2428 1.397 . S
C2429 C2430 1.334 . S
C2430 H2401 0.950 . S
C2430 C2429 1.334 . S
C2430 C2431 1.287 . S
C2431 C2430 1.287 . S
C2431 C2432 1.524 . S
C2431 H2434 0.999 . S
C2432 H2402 0.950 . S
C2432 C2431 1.524 . S
C2432 C2433 1.415 . S
C2433 H2403 0.950 . S
C2433 C2428 1.363 . S
C2433 C2432 1.415 . S
H2434 C2431 0.999 . S
H2435 C2416 0.913 . S
H2436 C2454 0.951 . S
H2437 C2456 0.951 . S
H2438 C2458 0.950 . S
H2439 C2459 0.950 . S
H2440 C2461 0.950 . S
H2441 C2464 0.950 . S
H2442 C2465 0.950 . S
H2443 C2467 0.950 . S
H2444 C2468 0.950 . S
H2445 C2469 0.951 . S
H2446 C2471 0.951 . S
H2447 C2473 0.950 . S
H2448 C2474 0.950 . S
H2449 C2476 0.950 . S
H2450 C2479 0.950 . S
H2451 C2480 0.950 . S
H2452 C2482 0.950 . S
H2453 C2483 0.950 . S
C2454 H2436 0.951 . S
C2454 C2455 1.366 . S
C2454 C2456 1.388 . S
C2455 C2454 1.366 . S
C2455 C2459 1.385 . S
C2456 H2437 0.951 . S
C2456 C2454 1.388 . S
C2456 C2457 1.366 . S
C2457 C2456 1.366 . S
C2457 C2458 1.414 . S
C2457 C2460 1.499 . S
C2458 H2438 0.950 . S
C2458 C2457 1.414 . S
C2458 C2459 1.374 . S
C2459 H2439 0.950 . S
C2459 C2455 1.385 . S
C2459 C2458 1.374 . S
C2460 C2457 1.499 . S
C2460 C2461 1.373 . S
C2460 C2462 1.389 . S
C2461 H2440 0.950 . S
C2461 C2460 1.373 . S
C2461 C2477 1.377 . S
C2462 C2460 1.389 . S
C2462 C2463 1.524 . S
C2462 C2476 1.377 . S
C2463 C2462 1.524 . S
C2463 C2464 1.397 . S
C2463 C2468 1.363 . S
C2464 H2441 0.950 . S
C2464 C2463 1.397 . S
C2464 C2465 1.334 . S
C2465 H2442 0.950 . S
C2465 C2464 1.334 . S
C2465 C2466 1.287 . S
C2466 C2465 1.287 . S
C2466 C2467 1.524 . S
C2466 H2485 0.913 . S
C2467 H2443 0.950 . S
C2467 C2466 1.524 . S
C2467 C2468 1.415 . S
C2468 H2444 0.950 . S
C2468 C2463 1.363 . S
C2468 C2467 1.415 . S
C2469 H2445 0.951 . S
C2469 C2470 1.366 . S
C2469 C2471 1.388 . S
C2470 C2469 1.366 . S
C2470 C2474 1.385 . S
C2471 H2446 0.951 . S
C2471 C2469 1.388 . S
C2471 C2472 1.366 . S
C2472 C2471 1.366 . S
C2472 C2473 1.414 . S
C2472 C2475 1.499 . S
C2473 H2447 0.950 . S
C2473 C2472 1.414 . S
C2473 C2474 1.374 . S
C2474 H2448 0.950 . S
C2474 C2470 1.385 . S
C2474 C2473 1.374 . S
C2475 C2472 1.499 . S
C2475 C2476 1.373 . S
C2475 C2477 1.389 . S
C2476 H2449 0.950 . S
C2476 C2462 1.377 . S
C2476 C2475 1.373 . S
C2477 C2461 1.377 . S
C2477 C2475 1.389 . S
C2477 C2478 1.524 . S
C2478 C2477 1.524 . S
C2478 C2479 1.397 . S
C2478 C2483 1.363 . S
C2479 H2450 0.950 . S
C2479 C2478 1.397 . S
C2479 C2480 1.334 . S
C2480 H2451 0.950 . S
C2480 C2479 1.334 . S
C2480 C2481 1.287 . S
C2481 C2480 1.287 . S
C2481 C2482 1.524 . S
C2481 H2484 0.999 . S
C2482 H2452 0.950 . S
C2482 C2481 1.524 . S
C2482 C2483 1.415 . S
C2483 H2453 0.950 . S
C2483 C2478 1.363 . S
C2483 C2482 1.415 . S
H2484 C2481 0.999 . S
H2485 C2466 0.913 . S
H2486 C2504 0.951 . S
H2487 C2506 0.951 . S
H2488 C2508 0.950 . S
H2489 C2509 0.950 . S
H2490 C2511 0.950 . S
H2491 C2514 0.950 . S
H2492 C2515 0.950 . S
H2493 C2517 0.950 . S
H2494 C2518 0.950 . S
H2495 C2519 0.951 . S
H2496 C2521 0.951 . S
H2497 C2523 0.950 . S
H2498 C2524 0.950 . S
H2499 C2526 0.950 . S
H2500 C2529 0.950 . S
H2501 C2530 0.950 . S
H2502 C2532 0.950 . S
H2503 C2533 0.950 . S
C2504 H2486 0.951 . S
C2504 C2505 1.366 . S
C2504 C2506 1.388 . S
C2505 C2504 1.366 . S
C2505 C2509 1.385 . S
C2506 H2487 0.951 . S
C2506 C2504 1.388 . S
C2506 C2507 1.366 . S
C2507 C2506 1.366 . S
C2507 C2508 1.414 . S
C2507 C2510 1.499 . S
C2508 H2488 0.950 . S
C2508 C2507 1.414 . S
C2508 C2509 1.374 . S
C2509 H2489 0.950 . S
C2509 C2505 1.385 . S
C2509 C2508 1.374 . S
C2510 C2507 1.499 . S
C2510 C2511 1.373 . S
C2510 C2512 1.389 . S
C2511 H2490 0.950 . S
C2511 C2510 1.373 . S
C2511 C2527 1.377 . S
C2512 C2510 1.389 . S
C2512 C2513 1.524 . S
C2512 C2526 1.377 . S
C2513 C2512 1.524 . S
C2513 C2514 1.397 . S
C2513 C2518 1.363 . S
C2514 H2491 0.950 . S
C2514 C2513 1.397 . S
C2514 C2515 1.334 . S
C2515 H2492 0.950 . S
C2515 C2514 1.334 . S
C2515 C2516 1.287 . S
C2516 C2515 1.287 . S
C2516 C2517 1.524 . S
C2516 H2535 0.913 . S
C2517 H2493 0.950 . S
C2517 C2516 1.524 . S
C2517 C2518 1.415 . S
C2518 H2494 0.950 . S
C2518 C2513 1.363 . S
C2518 C2517 1.415 . S
C2519 H2495 0.951 . S
C2519 C2520 1.366 . S
C2519 C2521 1.388 . S
C2520 C2519 1.366 . S
C2520 C2524 1.385 . S
C2521 H2496 0.951 . S
C2521 C2519 1.388 . S
C2521 C2522 1.366 . S
C2522 C2521 1.366 . S
C2522 C2523 1.414 . S
C2522 C2525 1.499 . S
C2523 H2497 0.950 . S
C2523 C2522 1.414 . S
C2523 C2524 1.374 . S
C2524 H2498 0.950 . S
C2524 C2520 1.385 . S
C2524 C2523 1.374 . S
C2525 C2522 1.499 . S
C2525 C2526 1.373 . S
C2525 C2527 1.389 . S
C2526 H2499 0.950 . S
C2526 C2512 1.377 . S
C2526 C2525 1.373 . S
C2527 C2511 1.377 . S
C2527 C2525 1.389 . S
C2527 C2528 1.524 . S
C2528 C2527 1.524 . S
C2528 C2529 1.397 . S
C2528 C2533 1.363 . S
C2529 H2500 0.950 . S
C2529 C2528 1.397 . S
C2529 C2530 1.334 . S
C2530 H2501 0.950 . S
C2530 C2529 1.334 . S
C2530 C2531 1.287 . S
C2531 C2530 1.287 . S
C2531 C2532 1.524 . S
C2531 H2534 0.999 . S
C2532 H2502 0.950 . S
C2532 C2531 1.524 . S
C2532 C2533 1.415 . S
C2533 H2503 0.950 . S
C2533 C2528 1.363 . S
C2533 C2532 1.415 . S
H2534 C2531 0.999 . S
H2535 C2516 0.913 . S
H2536 C2554 0.951 . S
H2537 C2556 0.951 . S
H2538 C2558 0.950 . S
H2539 C2559 0.950 . S
H2540 C2561 0.950 . S
H2541 C2564 0.950 . S
H2542 C2565 0.950 . S
H2543 C2567 0.950 . S
H2544 C2568 0.950 . S
H2545 C2569 0.951 . S
H2546 C2571 0.951 . S
H2547 C2573 0.950 . S
H2548 C2574 0.950 . S
H2549 C2576 0.950 . S
H2550 C2579 0.950 . S
H2551 C2580 0.950 . S
H2552 C2582 0.950 . S
H2553 C2583 0.950 . S
C2554 H2536 0.951 . S
C2554 C2555 1.366 . S
C2554 C2556 1.388 . S
C2555 C2554 1.366 . S
C2555 C2559 1.385 . S
C2556 H2537 0.951 . S
C2556 C2554 1.388 . S
C2556 C2557 1.366 . S
C2557 C2556 1.366 . S
C2557 C2558 1.414 . S
C2557 C2560 1.499 . S
C2558 H2538 0.950 . S
C2558 C2557 1.414 . S
C2558 C2559 1.374 . S
C2559 H2539 0.950 . S
C2559 C2555 1.385 . S
C2559 C2558 1.374 . S
C2560 C2557 1.499 . S
C2560 C2561 1.373 . S
C2560 C2562 1.389 . S
C2561 H2540 0.950 . S
C2561 C2560 1.373 . S
C2561 C2577 1.377 . S
C2562 C2560 1.389 . S
C2562 C2563 1.524 . S
C2562 C2576 1.377 . S
C2563 C2562 1.524 . S
C2563 C2564 1.397 . S
C2563 C2568 1.363 . S
C2564 H2541 0.950 . S
C2564 C2563 1.397 . S
C2564 C2565 1.334 . S
C2565 H2542 0.950 . S
C2565 C2564 1.334 . S
C2565 C2566 1.287 . S
C2566 C2565 1.287 . S
C2566 C2567 1.524 . S
C2566 H2585 0.913 . S
C2567 H2543 0.950 . S
C2567 C2566 1.524 . S
C2567 C2568 1.415 . S
C2568 H2544 0.950 . S
C2568 C2563 1.363 . S
C2568 C2567 1.415 . S
C2569 H2545 0.951 . S
C2569 C2570 1.366 . S
C2569 C2571 1.388 . S
C2570 C2569 1.366 . S
C2570 C2574 1.385 . S
C2571 H2546 0.951 . S
C2571 C2569 1.388 . S
C2571 C2572 1.366 . S
C2572 C2571 1.366 . S
C2572 C2573 1.414 . S
C2572 C2575 1.499 . S
C2573 H2547 0.950 . S
C2573 C2572 1.414 . S
C2573 C2574 1.374 . S
C2574 H2548 0.950 . S
C2574 C2570 1.385 . S
C2574 C2573 1.374 . S
C2575 C2572 1.499 . S
C2575 C2576 1.373 . S
C2575 C2577 1.389 . S
C2576 H2549 0.950 . S
C2576 C2562 1.377 . S
C2576 C2575 1.373 . S
C2577 C2561 1.377 . S
C2577 C2575 1.389 . S
C2577 C2578 1.524 . S
C2578 C2577 1.524 . S
C2578 C2579 1.397 . S
C2578 C2583 1.363 . S
C2579 H2550 0.950 . S
C2579 C2578 1.397 . S
C2579 C2580 1.334 . S
C2580 H2551 0.950 . S
C2580 C2579 1.334 . S
C2580 C2581 1.287 . S
C2581 C2580 1.287 . S
C2581 C2582 1.524 . S
C2581 H2584 0.999 . S
C2582 H2552 0.950 . S
C2582 C2581 1.524 . S
C2582 C2583 1.415 . S
C2583 H2553 0.950 . S
C2583 C2578 1.363 . S
C2583 C2582 1.415 . S
H2584 C2581 0.999 . S
H2585 C2566 0.913 . S
H2586 C2604 0.951 . S
H2587 C2606 0.951 . S
H2588 C2608 0.950 . S
H2589 C2609 0.950 . S
H2590 C2611 0.950 . S
H2591 C2614 0.950 . S
H2592 C2615 0.950 . S
H2593 C2617 0.950 . S
H2594 C2618 0.950 . S
H2595 C2619 0.951 . S
H2596 C2621 0.951 . S
H2597 C2623 0.950 . S
H2598 C2624 0.950 . S
H2599 C2626 0.950 . S
H2600 C2629 0.950 . S
H2601 C2630 0.950 . S
H2602 C2632 0.950 . S
H2603 C2633 0.950 . S
C2604 H2586 0.951 . S
C2604 C2605 1.366 . S
C2604 C2606 1.388 . S
C2605 C2604 1.366 . S
C2605 C2609 1.385 . S
C2606 H2587 0.951 . S
C2606 C2604 1.388 . S
C2606 C2607 1.366 . S
C2607 C2606 1.366 . S
C2607 C2608 1.414 . S
C2607 C2610 1.499 . S
C2608 H2588 0.950 . S
C2608 C2607 1.414 . S
C2608 C2609 1.374 . S
C2609 H2589 0.950 . S
C2609 C2605 1.385 . S
C2609 C2608 1.374 . S
C2610 C2607 1.499 . S
C2610 C2611 1.373 . S
C2610 C2612 1.389 . S
C2611 H2590 0.950 . S
C2611 C2610 1.373 . S
C2611 C2627 1.377 . S
C2612 C2610 1.389 . S
C2612 C2613 1.524 . S
C2612 C2626 1.377 . S
C2613 C2612 1.524 . S
C2613 C2614 1.397 . S
C2613 C2618 1.363 . S
C2614 H2591 0.950 . S
C2614 C2613 1.397 . S
C2614 C2615 1.334 . S
C2615 H2592 0.950 . S
C2615 C2614 1.334 . S
C2615 C2616 1.287 . S
C2616 C2615 1.287 . S
C2616 C2617 1.524 . S
C2616 H2635 0.913 . S
C2617 H2593 0.950 . S
C2617 C2616 1.524 . S
C2617 C2618 1.415 . S
C2618 H2594 0.950 . S
C2618 C2613 1.363 . S
C2618 C2617 1.415 . S
C2619 H2595 0.951 . S
C2619 C2620 1.366 . S
C2619 C2621 1.388 . S
C2620 C2619 1.366 . S
C2620 C2624 1.385 . S
C2621 H2596 0.951 . S
C2621 C2619 1.388 . S
C2621 C2622 1.366 . S
C2622 C2621 1.366 . S
C2622 C2623 1.414 . S
C2622 C2625 1.499 . S
C2623 H2597 0.950 . S
C2623 C2622 1.414 . S
C2623 C2624 1.374 . S
C2624 H2598 0.950 . S
C2624 C2620 1.385 . S
C2624 C2623 1.374 . S
C2625 C2622 1.499 . S
C2625 C2626 1.373 . S
C2625 C2627 1.389 . S
C2626 H2599 0.950 . S
C2626 C2612 1.377 . S
C2626 C2625 1.373 . S
C2627 C2611 1.377 . S
C2627 C2625 1.389 . S
C2627 C2628 1.524 . S
C2628 C2627 1.524 . S
C2628 C2629 1.397 . S
C2628 C2633 1.363 . S
C2629 H2600 0.950 . S
C2629 C2628 1.397 . S
C2629 C2630 1.334 . S
C2630 H2601 0.950 . S
C2630 C2629 1.334 . S
C2630 C2631 1.287 . S
C2631 C2630 1.287 . S
C2631 C2632 1.524 . S
C2631 H2634 0.999 . S
C2632 H2602 0.950 . S
C2632 C2631 1.524 . S
C2632 C2633 1.415 . S
C2633 H2603 0.950 . S
C2633 C2628 1.363 . S
C2633 C2632 1.415 . S
H2634 C2631 0.999 . S
H2635 C2616 0.913 . S
H2636 C2654 0.951 . S
H2637 C2656 0.951 . S
H2638 C2658 0.950 . S
H2639 C2659 0.950 . S
H2640 C2661 0.950 . S
H2641 C2664 0.950 . S
H2642 C2665 0.950 . S
H2643 C2667 0.950 . S
H2644 C2668 0.950 . S
H2645 C2669 0.951 . S
H2646 C2671 0.951 . S
H2647 C2673 0.950 . S
H2648 C2674 0.950 . S
H2649 C2676 0.950 . S
H2650 C2679 0.950 . S
H2651 C2680 0.950 . S
H2652 C2682 0.950 . S
H2653 C2683 0.950 . S
C2654 H2636 0.951 . S
C2654 C2655 1.366 . S
C2654 C2656 1.388 . S
C2655 C2654 1.366 . S
C2655 C2659 1.385 . S
C2656 H2637 0.951 . S
C2656 C2654 1.388 . S
C2656 C2657 1.366 . S
C2657 C2656 1.366 . S
C2657 C2658 1.414 . S
C2657 C2660 1.499 . S
C2658 H2638 0.950 . S
C2658 C2657 1.414 . S
C2658 C2659 1.374 . S
C2659 H2639 0.950 . S
C2659 C2655 1.385 . S
C2659 C2658 1.374 . S
C2660 C2657 1.499 . S
C2660 C2661 1.373 . S
C2660 C2662 1.389 . S
C2661 H2640 0.950 . S
C2661 C2660 1.373 . S
C2661 C2677 1.377 . S
C2662 C2660 1.389 . S
C2662 C2663 1.524 . S
C2662 C2676 1.377 . S
C2663 C2662 1.524 . S
C2663 C2664 1.397 . S
C2663 C2668 1.363 . S
C2664 H2641 0.950 . S
C2664 C2663 1.397 . S
C2664 C2665 1.334 . S
C2665 H2642 0.950 . S
C2665 C2664 1.334 . S
C2665 C2666 1.287 . S
C2666 C2665 1.287 . S
C2666 C2667 1.524 . S
C2666 H2685 0.913 . S
C2667 H2643 0.950 . S
C2667 C2666 1.524 . S
C2667 C2668 1.415 . S
C2668 H2644 0.950 . S
C2668 C2663 1.363 . S
C2668 C2667 1.415 . S
C2669 H2645 0.951 . S
C2669 C2670 1.366 . S
C2669 C2671 1.388 . S
C2670 C2669 1.366 . S
C2670 C2674 1.385 . S
C2671 H2646 0.951 . S
C2671 C2669 1.388 . S
C2671 C2672 1.366 . S
C2672 C2671 1.366 . S
C2672 C2673 1.414 . S
C2672 C2675 1.499 . S
C2673 H2647 0.950 . S
C2673 C2672 1.414 . S
C2673 C2674 1.374 . S
C2674 H2648 0.950 . S
C2674 C2670 1.385 . S
C2674 C2673 1.374 . S
C2675 C2672 1.499 . S
C2675 C2676 1.373 . S
C2675 C2677 1.389 . S
C2676 H2649 0.950 . S
C2676 C2662 1.377 . S
C2676 C2675 1.373 . S
C2677 C2661 1.377 . S
C2677 C2675 1.389 . S
C2677 C2678 1.524 . S
C2678 C2677 1.524 . S
C2678 C2679 1.397 . S
C2678 C2683 1.363 . S
C2679 H2650 0.950 . S
C2679 C2678 1.397 . S
C2679 C2680 1.334 . S
C2680 H2651 0.950 . S
C2680 C2679 1.334 . S
C2680 C2681 1.287 . S
C2681 C2680 1.287 . S
C2681 C2682 1.524 . S
C2681 H2684 0.999 . S
C2682 H2652 0.950 . S
C2682 C2681 1.524 . S
C2682 C2683 1.415 . S
C2683 H2653 0.950 . S
C2683 C2678 1.363 . S
C2683 C2682 1.415 . S
H2684 C2681 0.999 . S
H2685 C2666 0.913 . S
H2686 C2704 0.951 . S
H2687 C2706 0.951 . S
H2688 C2708 0.950 . S
H2689 C2709 0.950 . S
H2690 C2711 0.950 . S
H2691 C2714 0.950 . S
H2692 C2715 0.950 . S
H2693 C2717 0.950 . S
H2694 C2718 0.950 . S
H2695 C2719 0.951 . S
H2696 C2721 0.951 . S
H2697 C2723 0.950 . S
H2698 C2724 0.950 . S
H2699 C2726 0.950 . S
H2700 C2729 0.950 . S
H2701 C2730 0.950 . S
H2702 C2732 0.950 . S
H2703 C2733 0.950 . S
C2704 H2686 0.951 . S
C2704 C2705 1.366 . S
C2704 C2706 1.388 . S
C2705 C2704 1.366 . S
C2705 C2709 1.385 . S
C2706 H2687 0.951 . S
C2706 C2704 1.388 . S
C2706 C2707 1.366 . S
C2707 C2706 1.366 . S
C2707 C2708 1.414 . S
C2707 C2710 1.499 . S
C2708 H2688 0.950 . S
C2708 C2707 1.414 . S
C2708 C2709 1.374 . S
C2709 H2689 0.950 . S
C2709 C2705 1.385 . S
C2709 C2708 1.374 . S
C2710 C2707 1.499 . S
C2710 C2711 1.373 . S
C2710 C2712 1.389 . S
C2711 H2690 0.950 . S
C2711 C2710 1.373 . S
C2711 C2727 1.377 . S
C2712 C2710 1.389 . S
C2712 C2713 1.524 . S
C2712 C2726 1.377 . S
C2713 C2712 1.524 . S
C2713 C2714 1.397 . S
C2713 C2718 1.363 . S
C2714 H2691 0.950 . S
C2714 C2713 1.397 . S
C2714 C2715 1.334 . S
C2715 H2692 0.950 . S
C2715 C2714 1.334 . S
C2715 C2716 1.287 . S
C2716 C2715 1.287 . S
C2716 C2717 1.524 . S
C2716 H2735 0.913 . S
C2717 H2693 0.950 . S
C2717 C2716 1.524 . S
C2717 C2718 1.415 . S
C2718 H2694 0.950 . S
C2718 C2713 1.363 . S
C2718 C2717 1.415 . S
C2719 H2695 0.951 . S
C2719 C2720 1.366 . S
C2719 C2721 1.388 . S
C2720 C2719 1.366 . S
C2720 C2724 1.385 . S
C2721 H2696 0.951 . S
C2721 C2719 1.388 . S
C2721 C2722 1.366 . S
C2722 C2721 1.366 . S
C2722 C2723 1.414 . S
C2722 C2725 1.499 . S
C2723 H2697 0.950 . S
C2723 C2722 1.414 . S
C2723 C2724 1.374 . S
C2724 H2698 0.950 . S
C2724 C2720 1.385 . S
C2724 C2723 1.374 . S
C2725 C2722 1.499 . S
C2725 C2726 1.373 . S
C2725 C2727 1.389 . S
C2726 H2699 0.950 . S
C2726 C2712 1.377 . S
C2726 C2725 1.373 . S
C2727 C2711 1.377 . S
C2727 C2725 1.389 . S
C2727 C2728 1.524 . S
C2728 C2727 1.524 . S
C2728 C2729 1.397 . S
C2728 C2733 1.363 . S
C2729 H2700 0.950 . S
C2729 C2728 1.397 . S
C2729 C2730 1.334 . S
C2730 H2701 0.950 . S
C2730 C2729 1.334 . S
C2730 C2731 1.287 . S
C2731 C2730 1.287 . S
C2731 C2732 1.524 . S
C2731 H2734 0.999 . S
C2732 H2702 0.950 . S
C2732 C2731 1.524 . S
C2732 C2733 1.415 . S
C2733 H2703 0.950 . S
C2733 C2728 1.363 . S
C2733 C2732 1.415 . S
H2734 C2731 0.999 . S
H2735 C2716 0.913 . S
C355 C218 1.180 . S
C370 C7 1.169 . S
C405 C175 1.285 . S
C420 C22 1.297 . S
C455 C189 1.290 . S
C470 C35 1.286 . S
C505 C203 1.290 . S
C520 C50 1.303 . S
C555 C204 1.287 . S
C570 C21 1.273 . S
C605 C36 1.281 . S
C620 C217 1.269 . S
C655 C176 1.280 . S
C670 C49 1.266 . S
C705 C190 1.160 . S
C720 C8 1.160 . S
C755 C260 1.099 . S
C770 C64 1.099 . S
C805 C77 1.374 . S
C820 C273 1.378 . S
C855 C92 1.124 . S
C870 C232 1.124 . S
C905 C245 1.365 . S
C920 C105 1.362 . S
C955 C315 1.414 . S
C970 C119 1.416 . S
C1005 C133 1.126 . S
C1020 C330 1.136 . S
C1055 C147 1.427 . S
C1070 C287 1.427 . S
C1105 C161 1.101 . S
C1120 C302 1.110 . S
C1155 C246 1.163 . S
C1170 C162 1.163 . S
C1205 C329 1.334 . S
C1220 C78 1.348 . S
C1255 C91 1.297 . S
C1270 C288 1.308 . S
C1305 C301 1.325 . S
C1320 C106 1.338 . S
C1355 C316 1.237 . S
C1370 C63 1.227 . S
C1405 C134 1.239 . S
C1420 C274 1.239 . S
C1455 C231 1.253 . S
C1470 C148 1.265 . S
C1505 C259 1.245 . S
C1520 C120 1.257 . S
C1555 C3 0.654 . S
C1570 C59 0.653 . S
C1605 C79 0.713 . S
C1620 C23 0.715 . S
C1655 C31 0.723 . S
C1670 C87 0.721 . S
C1705 C51 0.712 . S
C1720 C107 0.712 . S
C1755 C121 0.724 . S
C1770 C17 0.723 . S
C1805 C135 0.683 . S
C1820 C37 0.683 . S
C1855 C149 0.726 . S
C1870 C45 0.725 . S
C1905 C9 0.624 . S
C1920 C163 0.623 . S
C1955 C157 0.608 . S
C1970 C65 0.623 . S
C2005 C73 0.793 . S
C2020 C115 0.793 . S
C2055 C93 0.629 . S
C2070 C129 0.618 . S
C2105 C143 0.791 . S
C2120 C101 0.792 . S
C2155 C227 0.665 . S
C2170 C177 0.673 . S
C2205 C247 0.667 . S
C2220 C191 0.667 . S
C2255 C205 0.680 . S
C2270 C255 0.670 . S
C2305 C213 0.700 . S
C2320 C275 0.703 . S
C2355 C185 0.716 . S
C2370 C289 0.720 . S
C2405 C199 0.753 . S
C2420 C297 0.752 . S
C2455 C317 0.688 . S
C2470 C219 0.689 . S
C2505 C171 0.749 . S
C2520 C325 0.748 . S
C2555 C233 0.635 . S
C2570 C331 0.636 . S
C2605 C283 0.765 . S
C2620 C241 0.764 . S
C2655 C261 0.618 . S
C2670 C303 0.615 . S
C2705 C311 0.765 . S
C2720 C269 0.764 . S
