# Generated by pormake.
# Topology wjz, (5)-cn, num edge types: 1
# Building blocks:
#     Node 0, Type 0, BuildingBlock: XOMCOT_clean_sbu_1, # of connection points: 5
#     Node 1, Type 0, BuildingBlock: XOMCOT_clean_sbu_1, # of connection points: 5
#     Node 2, Type 0, BuildingBlock: XOMCOT_clean_sbu_1, # of connection points: 5
#     Node 3, Type 0, BuildingBlock: XOMCOT_clean_sbu_1, # of connection points: 5
#     Node 4, Type 0, BuildingBlock: XOMCOT_clean_sbu_1, # of connection points: 5
#     Node 5, Type 0, BuildingBlock: XOMCOT_clean_sbu_1, # of connection points: 5
#     Node 6, Type 0, BuildingBlock: XOMCOT_clean_sbu_1, # of connection points: 5
#     Node 7, Type 0, BuildingBlock: XOMCOT_clean_sbu_1, # of connection points: 5
#     Node 8, Type 0, BuildingBlock: XOMCOT_clean_sbu_1, # of connection points: 5
#     Node 9, Type 0, BuildingBlock: XOMCOT_clean_sbu_1, # of connection points: 5
#     Node 10, Type 0, BuildingBlock: XOMCOT_clean_sbu_1, # of connection points: 5
#     Node 11, Type 0, BuildingBlock: XOMCOT_clean_sbu_1, # of connection points: 5
#     Edge 12, Type (0, 0), BuildingBlock: XIVTED_clean_linker_0, # of connection points: 2
#     Edge 13, Type (0, 0), BuildingBlock: XIVTED_clean_linker_0, # of connection points: 2
#     Edge 14, Type (0, 0), BuildingBlock: XIVTED_clean_linker_0, # of connection points: 2
#     Edge 15, Type (0, 0), BuildingBlock: XIVTED_clean_linker_0, # of connection points: 2
#     Edge 16, Type (0, 0), BuildingBlock: XIVTED_clean_linker_0, # of connection points: 2
#     Edge 17, Type (0, 0), BuildingBlock: XIVTED_clean_linker_0, # of connection points: 2
#     Edge 18, Type (0, 0), BuildingBlock: XIVTED_clean_linker_0, # of connection points: 2
#     Edge 19, Type (0, 0), BuildingBlock: XIVTED_clean_linker_0, # of connection points: 2
#     Edge 20, Type (0, 0), BuildingBlock: XIVTED_clean_linker_0, # of connection points: 2
#     Edge 21, Type (0, 0), BuildingBlock: XIVTED_clean_linker_0, # of connection points: 2
#     Edge 22, Type (0, 0), BuildingBlock: XIVTED_clean_linker_0, # of connection points: 2
#     Edge 23, Type (0, 0), BuildingBlock: XIVTED_clean_linker_0, # of connection points: 2
#     Edge 24, Type (0, 0), BuildingBlock: XIVTED_clean_linker_0, # of connection points: 2
#     Edge 25, Type (0, 0), BuildingBlock: XIVTED_clean_linker_0, # of connection points: 2
#     Edge 26, Type (0, 0), BuildingBlock: XIVTED_clean_linker_0, # of connection points: 2
#     Edge 27, Type (0, 0), BuildingBlock: XIVTED_clean_linker_0, # of connection points: 2
#     Edge 28, Type (0, 0), BuildingBlock: XIVTED_clean_linker_0, # of connection points: 2
#     Edge 29, Type (0, 0), BuildingBlock: XIVTED_clean_linker_0, # of connection points: 2
#     Edge 30, Type (0, 0), BuildingBlock: XIVTED_clean_linker_0, # of connection points: 2
#     Edge 31, Type (0, 0), BuildingBlock: XIVTED_clean_linker_0, # of connection points: 2
#     Edge 32, Type (0, 0), BuildingBlock: XIVTED_clean_linker_0, # of connection points: 2
#     Edge 33, Type (0, 0), BuildingBlock: XIVTED_clean_linker_0, # of connection points: 2
#     Edge 34, Type (0, 0), BuildingBlock: XIVTED_clean_linker_0, # of connection points: 2
#     Edge 35, Type (0, 0), BuildingBlock: XIVTED_clean_linker_0, # of connection points: 2
#     Edge 36, Type (0, 0), BuildingBlock: XIVTED_clean_linker_0, # of connection points: 2
#     Edge 37, Type (0, 0), BuildingBlock: XIVTED_clean_linker_0, # of connection points: 2
#     Edge 38, Type (0, 0), BuildingBlock: XIVTED_clean_linker_0, # of connection points: 2
#     Edge 39, Type (0, 0), BuildingBlock: XIVTED_clean_linker_0, # of connection points: 2
#     Edge 40, Type (0, 0), BuildingBlock: XIVTED_clean_linker_0, # of connection points: 2
#     Edge 41, Type (0, 0), BuildingBlock: XIVTED_clean_linker_0, # of connection points: 2
# Relax obj value: 0.173
# Max RMSD: 0.191
# Mean RMSD: 0.191
data_MOF--net-wjz--node1-XOMCOT_clean_sbu_1--edge1-XIVTED_clean_linker_0
_symmetry_space_group_name_H-M    P1
_symmetry_Int_Tables_number       1
_symmetry_cell_setting            triclinic
loop_
_symmetry_equiv_pos_as_xyz
'x, y, z'
_cell_length_a     73.709665
_cell_length_b     73.708371
_cell_length_c     17.535493
_cell_angle_alpha  90.019749
_cell_angle_beta   89.989596
_cell_angle_gamma 120.01204
loop_
_atom_site_label
_atom_site_type_symbol
_atom_site_fract_x
_atom_site_fract_y
_atom_site_fract_z
_atom_type_partial_charge
C0 C 0.32936 0.45192 0.05801 0.0
C1 C 0.32735 0.44816 0.98064 0.0
N2 N 0.3283 0.46488 0.94546 0.0
N3 N 0.33179 0.471 0.07156 0.0
C4 C 0.33068 0.47831 0.00216 0.0
H5 H 0.32973 0.44171 0.10149 0.0
Co6 Co 0.33764 0.4843 0.16611 0.0
C7 C 0.36804 0.52901 0.12723 0.0
O8 O 0.37963 0.53086 0.18697 0.0
N9 N 0.34248 0.49703 0.26318 0.0
C10 C 0.34208 0.51691 0.35833 0.0
C11 C 0.34245 0.51489 0.28055 0.0
C12 C 0.34105 0.48803 0.33194 0.0
N13 N 0.34113 0.49992 0.3908 0.0
O14 O 0.31183 0.48398 0.16372 0.0
H15 H 0.34131 0.52521 0.23952 0.0
H16 H 0.33796 0.47221 0.33905 0.0
O17 O 0.35119 0.51166 0.11484 0.0
C18 C 0.29589 0.46757 0.18869 0.0
O19 O 0.29788 0.45147 0.20861 0.0
N20 N 0.36295 0.48358 0.16865 0.0
C21 C 0.39652 0.476 0.16399 0.0
C22 C 0.39512 0.48953 0.11132 0.0
C23 C 0.37802 0.49274 0.11354 0.0
C24 C 0.36375 0.46981 0.21853 0.0
C25 C 0.38058 0.46615 0.21838 0.0
H26 H 0.37642 0.50162 0.06785 0.0
H27 H 0.3506 0.46039 0.25499 0.0
H28 H 0.33228 0.49349 0.99312 0.0
H29 H 0.32563 0.4343 0.9526 0.0
H30 H 0.34168 0.52955 0.38824 0.0
H31 H 0.40677 0.49703 0.06696 0.0
H32 H 0.38043 0.45471 0.25752 0.0
C33 C 0.87118 0.33969 0.21636 0.0
C34 C 0.87227 0.33793 0.13849 0.0
N35 N 0.85598 0.3386 0.10657 0.0
N36 N 0.85438 0.34163 0.23317 0.0
C37 C 0.84522 0.34042 0.16544 0.0
H38 H 0.88233 0.34029 0.25779 0.0
Co39 Co 0.84687 0.34693 0.32803 0.0
C40 C 0.83321 0.37815 0.29447 0.0
O41 O 0.84194 0.38856 0.35745 0.0
N42 N 0.83881 0.35137 0.42475 0.0
C43 C 0.81798 0.34978 0.51979 0.0
C44 C 0.82018 0.34977 0.44199 0.0
C45 C 0.84722 0.35151 0.4934 0.0
N46 N 0.83498 0.35073 0.55201 0.0
O47 O 0.82101 0.32146 0.32284 0.0
H48 H 0.80829 0.3474 0.40072 0.0
H49 H 0.86142 0.35096 0.50103 0.0
O50 O 0.83412 0.3617 0.27848 0.0
C51 C 0.82224 0.30579 0.34621 0.0
O52 O 0.84076 0.30847 0.36375 0.0
N53 N 0.87327 0.37146 0.33425 0.0
C54 C 0.91526 0.40306 0.33866 0.0
C55 C 0.90113 0.40459 0.28932 0.0
C56 C 0.88026 0.38843 0.28698 0.0
C57 C 0.88712 0.36935 0.37948 0.0
C58 C 0.908 0.38514 0.38413 0.0
H59 H 0.87025 0.38915 0.24378 0.0
H60 H 0.88231 0.35469 0.40821 0.0
H61 H 0.83095 0.34098 0.15938 0.0
H62 H 0.88461 0.33718 0.10775 0.0
H63 H 0.80431 0.3478 0.5501 0.0
H64 H 0.90629 0.41782 0.25116 0.0
H65 H 0.91865 0.38274 0.41965 0.0
C66 C 0.53806 0.87052 0.39083 0.0
C67 C 0.54149 0.87213 0.31327 0.0
N68 N 0.52382 0.85761 0.27858 0.0
N69 N 0.51825 0.85522 0.40485 0.0
C70 C 0.5101 0.84748 0.33553 0.0
H71 H 0.54912 0.88018 0.4342 0.0
Co72 Co 0.50533 0.84807 0.49984 0.0
C73 C 0.46137 0.83761 0.46619 0.0
O74 O 0.46064 0.84716 0.52848 0.0
N75 N 0.4927 0.84035 0.59689 0.0
C76 C 0.47214 0.82012 0.69076 0.0
C77 C 0.47464 0.82254 0.61312 0.0
C78 C 0.50124 0.84796 0.66616 0.0
N79 N 0.48897 0.83613 0.72423 0.0
O80 O 0.50302 0.82137 0.49312 0.0
H81 H 0.4644 0.81131 0.57124 0.0
H82 H 0.51688 0.86087 0.67448 0.0
O83 O 0.47796 0.83695 0.45046 0.0
C84 C 0.51922 0.82092 0.515 0.0
O85 O 0.53605 0.83861 0.53354 0.0
N86 N 0.50901 0.87521 0.50725 0.0
C87 C 0.52121 0.91765 0.51438 0.0
C88 C 0.50573 0.90429 0.46288 0.0
C89 C 0.50015 0.8832 0.45909 0.0
C90 C 0.52489 0.88829 0.55443 0.0
C91 C 0.53088 0.90941 0.5604 0.0
H92 H 0.48958 0.87375 0.41447 0.0
H93 H 0.53394 0.88268 0.584 0.0
H94 H 0.49421 0.83503 0.32674 0.0
H95 H 0.55584 0.8832 0.28477 0.0
H96 H 0.45924 0.80716 0.71995 0.0
H97 H 0.49839 0.91019 0.42435 0.0
H98 H 0.54377 0.91942 0.59768 0.0
C99 C 0.65737 0.53957 0.55489 0.0
C100 C 0.65935 0.54311 0.47736 0.0
N101 N 0.65877 0.52644 0.4431 0.0
N102 N 0.65533 0.52068 0.56934 0.0
C103 C 0.65662 0.51327 0.50038 0.0
H104 H 0.6568 0.54981 0.59783 0.0
Co105 Co 0.64976 0.50747 0.6639 0.0
C106 C 0.62014 0.4624 0.6237 0.0
O107 O 0.60823 0.45966 0.68337 0.0
N108 N 0.64507 0.49474 0.76067 0.0
C109 C 0.64569 0.47512 0.85626 0.0
C110 C 0.6456 0.47716 0.77838 0.0
C111 C 0.64582 0.50353 0.82926 0.0
N112 N 0.64589 0.4918 0.88834 0.0
O113 O 0.67574 0.50816 0.66113 0.0
H114 H 0.64721 0.46707 0.73754 0.0
H115 H 0.64824 0.51911 0.83627 0.0
O116 O 0.63654 0.4802 0.61259 0.0
C117 C 0.6915 0.52477 0.68591 0.0
O118 O 0.68914 0.54069 0.70535 0.0
N119 N 0.62439 0.50792 0.66729 0.0
C120 C 0.59046 0.51491 0.66886 0.0
C121 C 0.59118 0.5009 0.61658 0.0
C122 C 0.60848 0.49795 0.61567 0.0
C123 C 0.62436 0.52237 0.71564 0.0
C124 C 0.60738 0.52575 0.71875 0.0
H125 H 0.60944 0.48853 0.57054 0.0
H126 H 0.63815 0.53241 0.74845 0.0
H127 H 0.65528 0.49818 0.49199 0.0
H128 H 0.6608 0.55675 0.44857 0.0
H129 H 0.64639 0.4627 0.88658 0.0
H130 H 0.57878 0.49274 0.57522 0.0
H131 H 0.60808 0.53764 0.75692 0.0
C132 C 0.11951 0.65707 0.71636 0.0
C133 C 0.11844 0.65889 0.63851 0.0
N134 N 0.13428 0.65743 0.60633 0.0
N135 N 0.13583 0.65432 0.73291 0.0
C136 C 0.14476 0.65511 0.66504 0.0
H137 H 0.10861 0.65693 0.75795 0.0
Co138 Co 0.1428 0.64835 0.82763 0.0
C139 C 0.15531 0.61629 0.79283 0.0
O140 O 0.14617 0.60573 0.85511 0.0
N141 N 0.1503 0.64323 0.92431 0.0
C142 C 0.17054 0.64381 0.01976 0.0
C143 C 0.16855 0.64405 0.94192 0.0
C144 C 0.14193 0.64333 0.9928 0.0
N145 N 0.1538 0.6435 0.05166 0.0
O146 O 0.1691 0.67338 0.82383 0.0
H147 H 0.18039 0.64609 0.90095 0.0
H148 H 0.12806 0.64451 0.00013 0.0
O149 O 0.155 0.6331 0.77764 0.0
C150 C 0.16852 0.68923 0.84921 0.0
O151 O 0.15027 0.68708 0.86786 0.0
N152 N 0.11601 0.62427 0.83243 0.0
C153 C 0.07371 0.59339 0.835 0.0
C154 C 0.08774 0.59161 0.78587 0.0
C155 C 0.10876 0.60743 0.78436 0.0
C156 C 0.1023 0.62665 0.87752 0.0
C157 C 0.08125 0.61123 0.88117 0.0
H158 H 0.11872 0.60655 0.74127 0.0
H159 H 0.10739 0.64126 0.90701 0.0
H160 H 0.15863 0.65385 0.65872 0.0
H161 H 0.10638 0.66017 0.60796 0.0
H162 H 0.18395 0.64523 0.05034 0.0
H163 H 0.08242 0.57844 0.74728 0.0
H164 H 0.07074 0.61385 0.91663 0.0
C165 C 0.45867 0.12408 0.90681 0.0
C166 C 0.45545 0.12298 0.82916 0.0
N167 N 0.47287 0.13834 0.79581 0.0
N168 N 0.47814 0.13986 0.92231 0.0
C169 C 0.48616 0.14855 0.85386 0.0
H170 H 0.44778 0.11358 0.949 0.0
Co171 Co 0.49144 0.14637 0.01679 0.0
C172 C 0.53496 0.15531 0.98051 0.0
O173 O 0.53596 0.14623 0.0436 0.0
N174 N 0.50458 0.15342 0.11366 0.0
C175 C 0.52544 0.17303 0.20813 0.0
C176 C 0.52284 0.17095 0.13037 0.0
C177 C 0.49613 0.14553 0.18283 0.0
N178 N 0.50852 0.15703 0.24123 0.0
O179 O 0.49531 0.17384 0.00991 0.0
H180 H 0.53312 0.18226 0.08877 0.0
H181 H 0.48042 0.13274 0.19099 0.0
O182 O 0.51844 0.15621 0.96556 0.0
C183 C 0.48423 0.17815 0.05376 0.0
O184 O 0.47066 0.1636 0.09966 0.0
N185 N 0.48635 0.11865 0.02342 0.0
C186 C 0.47224 0.07571 0.02801 0.0
C187 C 0.48824 0.08887 0.97775 0.0
C188 C 0.49477 0.11021 0.9752 0.0
C189 C 0.47012 0.10585 0.06989 0.0
C190 C 0.46314 0.08447 0.07448 0.0
H191 H 0.50569 0.11948 0.93121 0.0
H192 H 0.46156 0.11198 0.09993 0.0
H193 H 0.50173 0.16174 0.84659 0.0
H194 H 0.44149 0.11152 0.79965 0.0
H195 H 0.53843 0.1858 0.23773 0.0
H196 H 0.49526 0.08266 0.93913 0.0
H197 H 0.44997 0.07471 0.11106 0.0
C198 C 0.52895 0.65124 0.77137 0.0
C199 C 0.53182 0.65292 0.84926 0.0
N200 N 0.515 0.6525 0.88135 0.0
N201 N 0.51033 0.64959 0.75472 0.0
C202 C 0.50249 0.65092 0.82257 0.0
H203 H 0.53938 0.65046 0.72984 0.0
Co204 Co 0.49742 0.64439 0.66 0.0
C205 C 0.45227 0.61386 0.69521 0.0
O206 O 0.44992 0.60308 0.63264 0.0
N207 N 0.48489 0.64003 0.5634 0.0
C208 C 0.46576 0.6417 0.46814 0.0
C209 C 0.46792 0.64172 0.54598 0.0
C210 C 0.49316 0.63982 0.49483 0.0
N211 N 0.48178 0.64064 0.43606 0.0
O212 O 0.49722 0.66991 0.66562 0.0
H213 H 0.45843 0.64419 0.58712 0.0
H214 H 0.50787 0.64027 0.4874 0.0
O215 O 0.46999 0.63001 0.70995 0.0
C216 C 0.51375 0.68584 0.64122 0.0
O217 O 0.52972 0.68366 0.62091 0.0
N218 N 0.49893 0.61966 0.65359 0.0
C219 C 0.50847 0.58747 0.64836 0.0
C220 C 0.49282 0.58615 0.69735 0.0
C221 C 0.48855 0.6026 0.70016 0.0
C222 C 0.51485 0.62156 0.60861 0.0
C223 C 0.51955 0.60549 0.60363 0.0
H224 H 0.4778 0.60197 0.7431 0.0
H225 H 0.52494 0.63621 0.58019 0.0
H226 H 0.48779 0.65061 0.8288 0.0
H227 H 0.54482 0.65344 0.87987 0.0
H228 H 0.45413 0.64374 0.4377 0.0
H229 H 0.48441 0.57283 0.7349 0.0
H230 H 0.53257 0.60772 0.56836 0.0
C231 C 0.87588 0.54501 0.94763 0.0
C232 C 0.87772 0.54857 0.02511 0.0
N233 N 0.86187 0.53184 0.05993 0.0
N234 N 0.8591 0.52602 0.93371 0.0
C235 C 0.85069 0.51858 0.003 0.0
H236 H 0.88641 0.55535 0.90429 0.0
Co237 Co 0.85114 0.51301 0.83892 0.0
C238 C 0.83655 0.46795 0.87375 0.0
O239 O 0.84526 0.46594 0.81129 0.0
N240 N 0.84271 0.50046 0.74188 0.0
C241 C 0.82158 0.48109 0.64765 0.0
C242 C 0.82409 0.48335 0.72534 0.0
C243 C 0.85078 0.50876 0.67274 0.0
N244 N 0.83838 0.49719 0.61443 0.0
O245 O 0.82552 0.51301 0.84495 0.0
H246 H 0.8124 0.47372 0.76703 0.0
H247 H 0.86451 0.5239 0.66476 0.0
O248 O 0.83785 0.48553 0.88908 0.0
C249 C 0.82568 0.52943 0.82192 0.0
O250 O 0.84363 0.54582 0.80251 0.0
N251 N 0.87723 0.51413 0.83238 0.0
C252 C 0.91856 0.5223 0.82784 0.0
C253 C 0.90406 0.50747 0.87867 0.0
C254 C 0.88362 0.50396 0.88127 0.0
C255 C 0.89143 0.52927 0.78525 0.0
C256 C 0.91201 0.53329 0.78075 0.0
H257 H 0.87346 0.49393 0.92572 0.0
H258 H 0.88723 0.53932 0.75464 0.0
H259 H 0.83697 0.50347 0.01174 0.0
H260 H 0.8899 0.56232 0.05346 0.0
H261 H 0.80802 0.46894 0.61828 0.0
H262 H 0.9086 0.49907 0.9178 0.0
H263 H 0.92297 0.54573 0.74378 0.0
C264 C 0.3275 0.87239 0.13064 0.0
C265 C 0.32548 0.87391 0.20809 0.0
N266 N 0.32789 0.85892 0.24274 0.0
N267 N 0.33141 0.8567 0.11658 0.0
C268 C 0.33115 0.84855 0.18575 0.0
H269 H 0.32672 0.88244 0.0874 0.0
Co270 Co 0.33742 0.84972 0.02168 0.0
C271 C 0.37093 0.8393 0.05411 0.0
O272 O 0.38084 0.84882 0.99127 0.0
N273 N 0.34248 0.84215 0.92447 0.0
C274 C 0.34237 0.82172 0.83049 0.0
C275 C 0.34244 0.8242 0.90811 0.0
C276 C 0.34156 0.84978 0.85523 0.0
N277 N 0.34172 0.83782 0.7971 0.0
O278 O 0.31299 0.82298 0.02723 0.0
H279 H 0.34129 0.8129 0.94994 0.0
H280 H 0.33894 0.86277 0.84702 0.0
O281 O 0.35369 0.83854 0.07129 0.0
C282 C 0.29651 0.82264 0.00379 0.0
O283 O 0.29754 0.84044 0.9858 0.0
N284 N 0.36098 0.87691 0.0154 0.0
C285 C 0.39131 0.91941 0.01216 0.0
C286 C 0.39304 0.90575 0.06329 0.0
C287 C 0.37749 0.88465 0.06513 0.0
C288 C 0.3586 0.89024 0.96812 0.0
C289 C 0.37379 0.9114 0.96416 0.0
H290 H 0.37829 0.875 0.10964 0.0
H291 H 0.34418 0.88481 0.93707 0.0
H292 H 0.33387 0.83562 0.19432 0.0
H293 H 0.32267 0.8853 0.23656 0.0
H294 H 0.34204 0.80863 0.80126 0.0
H295 H 0.40598 0.91141 0.10311 0.0
H296 H 0.37121 0.92161 0.92689 0.0
C297 C 0.47117 0.33147 0.2284 0.0
C298 C 0.4679 0.33067 0.30612 0.0
N299 N 0.48397 0.34786 0.33805 0.0
N300 N 0.48923 0.34904 0.21142 0.0
C301 C 0.49647 0.3588 0.27911 0.0
H302 H 0.46142 0.31966 0.18721 0.0
Co303 Co 0.5021 0.35665 0.11619 0.0
C304 C 0.54727 0.38756 0.15807 0.0
O305 O 0.55139 0.39924 0.09678 0.0
N306 N 0.51484 0.3638 0.01928 0.0
C307 C 0.53464 0.36578 0.92015 0.0
C308 C 0.53224 0.36339 0.99787 0.0
C309 C 0.50661 0.3658 0.95293 0.0
N310 N 0.51839 0.36714 0.89181 0.0
O311 O 0.50468 0.3322 0.11586 0.0
H312 H 0.54192 0.36026 0.03577 0.0
H313 H 0.49168 0.36513 0.94866 0.0
O314 O 0.52907 0.37165 0.16744 0.0
C315 C 0.49333 0.31775 0.06895 0.0
O316 O 0.48066 0.32034 0.02337 0.0
N317 N 0.49801 0.37977 0.11592 0.0
C318 C 0.4837 0.40836 0.11649 0.0
C319 C 0.50224 0.41295 0.15451 0.0
C320 C 0.5091 0.39836 0.15397 0.0
C321 C 0.4797 0.37493 0.08047 0.0
C322 C 0.47244 0.3891 0.07882 0.0
H323 H 0.52271 0.40184 0.18724 0.0
H324 H 0.47036 0.35962 0.05497 0.0
H325 H 0.51082 0.37359 0.28524 0.0
H326 H 0.45516 0.31794 0.33681 0.0
H327 H 0.5466 0.36507 0.88664 0.0
H328 H 0.51115 0.4275 0.18554 0.0
H329 H 0.45767 0.38464 0.05099 0.0
C330 C 0.11209 0.45052 0.44214 0.0
C331 C 0.11057 0.44708 0.51967 0.0
N332 N 0.127 0.46351 0.5535 0.0
N333 N 0.12926 0.46915 0.42726 0.0
C334 C 0.13821 0.47644 0.49593 0.0
H335 H 0.10107 0.44039 0.39951 0.0
Co336 Co 0.13717 0.48219 0.3326 0.0
C337 C 0.15214 0.52731 0.36852 0.0
O338 O 0.14358 0.52959 0.30616 0.0
N339 N 0.14554 0.49476 0.23573 0.0
C340 C 0.16644 0.51398 0.14077 0.0
C341 C 0.16415 0.51182 0.21858 0.0
C342 C 0.13727 0.48641 0.16689 0.0
N343 N 0.1495 0.4979 0.10819 0.0
O344 O 0.16271 0.48198 0.33804 0.0
H345 H 0.17596 0.52147 0.2599 0.0
H346 H 0.12352 0.47127 0.15931 0.0
O347 O 0.15064 0.50962 0.38316 0.0
C348 C 0.16236 0.46542 0.31561 0.0
O349 O 0.14432 0.44908 0.29665 0.0
N350 N 0.11115 0.48128 0.32663 0.0
C351 C 0.07004 0.4737 0.32179 0.0
C352 C 0.0846 0.48835 0.37296 0.0
C353 C 0.10494 0.49158 0.37564 0.0
C354 C 0.09685 0.46623 0.27948 0.0
C355 C 0.07639 0.46253 0.27473 0.0
H356 H 0.11515 0.50151 0.42018 0.0
H357 H 0.10086 0.45602 0.24899 0.0
H358 H 0.15238 0.49125 0.50376 0.0
H359 H 0.09816 0.43365 0.54878 0.0
H360 H 0.17992 0.52606 0.11083 0.0
H361 H 0.08017 0.49682 0.41218 0.0
H362 H 0.06534 0.45019 0.23759 0.0
C363 C 0.66625 0.1201 0.63489 0.0
C364 C 0.66823 0.11895 0.7126 0.0
N365 N 0.6661 0.13429 0.74573 0.0
N366 N 0.66274 0.13598 0.61926 0.0
C367 C 0.66319 0.14457 0.68761 0.0
H368 H 0.6666 0.10957 0.5927 0.0
Co369 Co 0.65661 0.14281 0.52447 0.0
C370 C 0.62343 0.15377 0.55816 0.0
O371 O 0.61326 0.14448 0.49539 0.0
N372 N 0.65136 0.15021 0.42755 0.0
C373 C 0.65127 0.17037 0.33295 0.0
C374 C 0.65164 0.16825 0.41067 0.0
C375 C 0.65171 0.14214 0.3586 0.0
N376 N 0.65144 0.15395 0.30024 0.0
O377 O 0.68101 0.16954 0.52941 0.0
H378 H 0.65331 0.17986 0.45211 0.0
H379 H 0.65332 0.12854 0.35057 0.0
O380 O 0.64053 0.15413 0.57429 0.0
C381 C 0.69749 0.17021 0.50411 0.0
O382 O 0.69668 0.15259 0.48488 0.0
N383 N 0.63303 0.11567 0.51873 0.0
C384 C 0.60212 0.07343 0.51262 0.0
C385 C 0.60038 0.0871 0.56371 0.0
C386 C 0.61622 0.10807 0.56703 0.0
C387 C 0.63551 0.10225 0.47226 0.0
C388 C 0.62005 0.08123 0.46681 0.0
H389 H 0.6153 0.11773 0.61125 0.0
H390 H 0.65012 0.10757 0.44251 0.0
H391 H 0.66132 0.15808 0.69465 0.0
H392 H 0.67017 0.10717 0.74239 0.0
H393 H 0.65223 0.18366 0.30298 0.0
H394 H 0.58714 0.08156 0.60208 0.0
H395 H 0.62263 0.07096 0.42985 0.0
H396 H 0.3257 0.51431 0.50219 0.0
H397 H 0.34002 0.4475 0.8325 0.0
H398 H 0.35071 0.47318 0.46347 0.0
H399 H 0.31817 0.49118 0.87228 0.0
H400 H 0.34249 0.45543 0.69653 0.0
H401 H 0.32187 0.50521 0.63709 0.0
C402 C 0.33052 0.50346 0.52188 0.0
C403 C 0.33862 0.49457 0.47091 0.0
C404 C 0.3371 0.46324 0.73498 0.0
C405 C 0.33398 0.48383 0.62608 0.0
C406 C 0.33552 0.45859 0.81277 0.0
C407 C 0.32887 0.46867 0.86439 0.0
C408 C 0.33196 0.47807 0.7082 0.0
C409 C 0.32362 0.4832 0.83508 0.0
C410 C 0.32819 0.49816 0.59912 0.0
C411 C 0.34419 0.48027 0.5002 0.0
N412 N 0.32529 0.48746 0.75911 0.0
N413 N 0.34179 0.47538 0.57572 0.0
H414 H 0.83541 0.35664 0.04171 0.0
H415 H 0.85677 0.33373 0.61552 0.0
H416 H 0.86819 0.32345 0.98778 0.0
H417 H 0.82041 0.36309 0.67136 0.0
H418 H 0.86175 0.33042 0.75121 0.0
H419 H 0.82992 0.35921 0.90643 0.0
C420 C 0.84123 0.34964 0.0016 0.0
C421 C 0.85216 0.33965 0.02652 0.0
C422 C 0.85269 0.3376 0.73382 0.0
C423 C 0.84626 0.34295 0.8706 0.0
C424 C 0.84998 0.33966 0.65623 0.0
C425 C 0.83823 0.34883 0.63193 0.0
C426 C 0.84364 0.34479 0.78766 0.0
C427 C 0.82942 0.35578 0.68754 0.0
C428 C 0.83823 0.35128 0.92406 0.0
C429 C 0.85982 0.33141 0.97127 0.0
N430 N 0.83234 0.35366 0.76277 0.0
N431 N 0.85674 0.33325 0.89589 0.0
H432 H 0.54259 0.88633 0.16554 0.0
H433 H 0.47363 0.80635 0.83561 0.0
H434 H 0.49555 0.82188 0.20644 0.0
H435 H 0.51571 0.87236 0.79757 0.0
H436 H 0.48245 0.81148 0.97071 0.0
H437 H 0.53441 0.88109 0.02955 0.0
C438 C 0.53068 0.87102 0.14597 0.0
C439 C 0.51974 0.85453 0.19775 0.0
C440 C 0.48975 0.82485 0.93282 0.0
C441 C 0.51011 0.84848 0.04192 0.0
C442 C 0.48462 0.82196 0.85548 0.0
C443 C 0.4939 0.83895 0.80463 0.0
C444 C 0.50433 0.84487 0.95992 0.0
C445 C 0.50834 0.85874 0.83416 0.0
C446 C 0.52589 0.86808 0.06828 0.0
C447 C 0.50421 0.83512 0.16894 0.0
N448 N 0.51311 0.86115 0.90974 0.0
N449 N 0.49988 0.83264 0.09307 0.0
H450 H 0.63469 0.51758 0.95896 0.0
H451 H 0.67006 0.50073 0.37238 0.0
H452 H 0.66174 0.47839 0.00145 0.0
H453 H 0.64623 0.54261 0.3286 0.0
H454 H 0.66704 0.49233 0.23674 0.0
H455 H 0.63878 0.52696 0.09396 0.0
C456 C 0.64158 0.51101 0.99644 0.0
C457 C 0.64789 0.49717 0.96835 0.0
C458 C 0.66254 0.50342 0.25673 0.0
C459 C 0.65244 0.50772 0.12362 0.0
C460 C 0.66419 0.50818 0.33438 0.0
C461 C 0.65834 0.52238 0.36235 0.0
C462 C 0.65493 0.51287 0.20631 0.0
C463 C 0.65115 0.53176 0.30982 0.0
C464 C 0.64383 0.51632 0.07371 0.0
C465 C 0.65639 0.4889 0.02026 0.0
N466 N 0.64957 0.52678 0.2345 0.0
N467 N 0.65842 0.4943 0.0952 0.0
H468 H 0.13312 0.66171 0.11506 0.0
H469 H 0.15336 0.63786 0.54142 0.0
H470 H 0.16739 0.63019 0.17112 0.0
H471 H 0.12285 0.67325 0.48746 0.0
H472 H 0.15836 0.63472 0.40611 0.0
H473 H 0.1284 0.66537 0.25075 0.0
C474 C 0.1395 0.65537 0.1558 0.0
C475 C 0.1506 0.64552 0.13156 0.0
C476 C 0.15065 0.64326 0.42373 0.0
C477 C 0.1455 0.64995 0.28729 0.0
C478 C 0.14794 0.64523 0.50129 0.0
C479 C 0.13781 0.65602 0.52622 0.0
C480 C 0.14311 0.65206 0.37025 0.0
C481 C 0.13061 0.6647 0.47094 0.0
C482 C 0.13694 0.65763 0.2334 0.0
C483 C 0.15889 0.63804 0.18723 0.0
N484 N 0.1334 0.66252 0.39554 0.0
N485 N 0.15614 0.64037 0.26245 0.0
H486 H 0.50103 0.1745 0.72525 0.0
H487 H 0.48154 0.12073 0.31345 0.0
H488 H 0.4554 0.10973 0.68148 0.0
H489 H 0.52375 0.1866 0.35359 0.0
H490 H 0.4722 0.1163 0.44844 0.0
H491 H 0.50999 0.17915 0.58982 0.0
C492 C 0.49287 0.16125 0.68731 0.0
C493 C 0.47741 0.14168 0.7152 0.0
C494 C 0.48351 0.13173 0.4277 0.0
C495 C 0.4876 0.14692 0.55954 0.0
C496 C 0.48881 0.13429 0.35041 0.0
C497 C 0.50344 0.15409 0.32157 0.0
C498 C 0.49292 0.14907 0.47697 0.0
C499 C 0.51259 0.171 0.37293 0.0
C500 C 0.49796 0.16394 0.60981 0.0
C501 C 0.46721 0.12516 0.66278 0.0
N502 N 0.50716 0.1681 0.44793 0.0
N503 N 0.47253 0.12814 0.58771 0.0
H504 H 0.52056 0.65722 0.3726 0.0
H505 H 0.47638 0.63489 0.94619 0.0
H506 H 0.45489 0.62848 0.31655 0.0
H507 H 0.54235 0.66717 0.00027 0.0
H508 H 0.46831 0.63233 0.08148 0.0
H509 H 0.52887 0.6604 0.23694 0.0
C510 C 0.50785 0.65139 0.33187 0.0
C511 C 0.48694 0.64245 0.35614 0.0
C512 C 0.48457 0.64007 0.06389 0.0
C513 C 0.49643 0.64634 0.20037 0.0
C514 C 0.48922 0.6417 0.98634 0.0
C515 C 0.51013 0.65144 0.96144 0.0
C516 C 0.50091 0.64814 0.11741 0.0
C517 C 0.52603 0.65942 0.01675 0.0
C518 C 0.51264 0.65338 0.25428 0.0
C519 C 0.47121 0.63562 0.30044 0.0
N520 N 0.52109 0.6576 0.09214 0.0
N521 N 0.47627 0.63767 0.22522 0.0
H522 H 0.80859 0.48428 0.50329 0.0
H523 H 0.89103 0.5483 0.17281 0.0
H524 H 0.87527 0.52177 0.54096 0.0
H525 H 0.82515 0.50627 0.13263 0.0
H526 H 0.88533 0.54029 0.30875 0.0
H527 H 0.81423 0.49316 0.36831 0.0
C528 C 0.82445 0.49426 0.48337 0.0
C529 C 0.84149 0.50223 0.5341 0.0
C530 C 0.87211 0.53284 0.27021 0.0
C531 C 0.84801 0.51275 0.37886 0.0
C532 C 0.87532 0.53755 0.1925 0.0
C533 C 0.85855 0.52795 0.14086 0.0
C534 C 0.85195 0.51848 0.29682 0.0
C535 C 0.8386 0.51386 0.16995 0.0
C536 C 0.82764 0.49945 0.40608 0.0
C537 C 0.86163 0.51544 0.50447 0.0
N538 N 0.83587 0.50956 0.24585 0.0
N539 N 0.86432 0.52027 0.42893 0.0
H540 H 0.3386 0.88786 0.35547 0.0
H541 H 0.3265 0.80781 0.68643 0.0
H542 H 0.31951 0.82296 0.31541 0.0
H543 H 0.35151 0.87404 0.72322 0.0
H544 H 0.32257 0.81278 0.5514 0.0
H545 H 0.34152 0.88267 0.49137 0.0
C546 C 0.33481 0.87246 0.3752 0.0
C547 C 0.32879 0.85582 0.32363 0.0
C548 C 0.32893 0.82624 0.58899 0.0
C549 C 0.33238 0.84983 0.47953 0.0
C550 C 0.33132 0.82344 0.6663 0.0
C551 C 0.33941 0.84054 0.71677 0.0
C552 C 0.33462 0.84629 0.56155 0.0
C553 C 0.34498 0.86035 0.68692 0.0
C554 C 0.33665 0.86955 0.45288 0.0
C555 C 0.32444 0.8363 0.35273 0.0
N556 N 0.34248 0.86266 0.61138 0.0
N557 N 0.32632 0.83385 0.42864 0.0
H558 H 0.54557 0.38404 0.7741 0.0
H559 H 0.45597 0.33348 0.45549 0.0
H560 H 0.47964 0.34939 0.82731 0.0
H561 H 0.52179 0.3728 0.40572 0.0
H562 H 0.46397 0.33987 0.5916 0.0
H563 H 0.5369 0.38103 0.63848 0.0
C564 C 0.52926 0.37585 0.7572 0.0
C565 C 0.51333 0.36689 0.81218 0.0
C566 C 0.47663 0.34719 0.5507 0.0
C567 C 0.5032 0.36328 0.65675 0.0
C568 C 0.47208 0.34346 0.47288 0.0
C569 C 0.4882 0.35248 0.41844 0.0
C570 C 0.49748 0.35996 0.57453 0.0
C571 C 0.50876 0.36556 0.44482 0.0
C572 C 0.52429 0.37418 0.67975 0.0
C573 C 0.49243 0.3567 0.78705 0.0
N574 N 0.51279 0.36877 0.52072 0.0
N575 N 0.48797 0.35501 0.71118 0.0
H576 H 0.11224 0.47372 0.03677 0.0
H577 H 0.16429 0.48832 0.62399 0.0
H578 H 0.17883 0.51014 0.9956 0.0
H579 H 0.09824 0.44831 0.66795 0.0
H580 H 0.1699 0.49676 0.75967 0.0
H581 H 0.10677 0.46446 0.90175 0.0
C582 C 0.12574 0.47971 -0.00043 0.0
C583 C 0.14604 0.49272 0.02805 0.0
C584 C 0.15418 0.48606 0.73968 0.0
C585 C 0.13985 0.48231 0.87273 0.0
C586 C 0.15095 0.4813 0.66205 0.0
C587 C 0.13074 0.4676 0.63417 0.0
C588 C 0.13708 0.47715 0.79008 0.0
C589 C 0.11412 0.45875 0.68669 0.0
C590 C 0.12259 0.47447 0.92228 0.0
C591 C 0.16288 0.50029 0.97648 0.0
N592 N 0.11765 0.46375 0.76193 0.0
N593 N 0.1594 0.49497 0.90148 0.0
H594 H 0.68296 0.12333 0.86266 0.0
H595 H 0.63714 0.16715 0.18263 0.0
H596 H 0.64605 0.15253 0.81357 0.0
H597 H 0.67023 0.13415 0.23411 0.0
H598 H 0.64124 0.16284 0.04674 0.0
H599 H 0.67935 0.12791 0.99892 0.0
C600 C 0.67411 0.1307 0.88036 0.0
C601 C 0.66488 0.13762 0.82623 0.0
C602 C 0.64757 0.1565 0.08775 0.0
C603 C 0.66076 0.143 0.98221 0.0
C604 C 0.64531 0.15904 0.16536 0.0
C605 C 0.6533 0.15098 0.21996 0.0
C606 C 0.65802 0.14589 0.06433 0.0
C607 C 0.66353 0.14036 0.19423 0.0
C608 C 0.6721 0.13336 0.9582 0.0
C609 C 0.65378 0.14728 0.85274 0.0
N610 N 0.66564 0.13817 0.1183 0.0
N611 N 0.65201 0.14964 0.92868 0.0
H612 H 0.45249 0.6307 0.8351 0.0
H613 H 0.35091 0.52863 0.98747 0.0
H614 H 0.41484 0.57677 0.69365 0.0
H615 H 0.40487 0.5666 0.12844 0.0
H616 H 0.36866 0.55185 0.87992 0.0
H617 H 0.42937 0.61275 0.94268 0.0
C618 C 0.43935 0.61516 0.82636 0.0
C619 C 0.43611 0.60496 0.75581 0.0
C620 C 0.37646 0.55518 0.93474 0.0
C621 C 0.40912 0.58466 0.87807 0.0
C622 C 0.36639 0.54187 0.9962 0.0
C623 C 0.37667 0.54518 0.0666 0.0
C624 C 0.39675 0.57222 0.94425 0.0
C625 C 0.39647 0.56317 0.07492 0.0
C626 C 0.42608 0.60499 0.88777 0.0
C627 C 0.4182 0.58512 0.74728 0.0
N628 N 0.40595 0.57593 0.01424 0.0
N629 N 0.40546 0.57553 0.80794 0.0
H630 H 0.81798 0.36325 0.15123 0.0
H631 H 0.82127 0.46818 0.01654 0.0
H632 H 0.83297 0.41522 0.30169 0.0
H633 H 0.83452 0.42979 0.86665 0.0
H634 H 0.81518 0.4438 0.12057 0.0
H635 H 0.81369 0.38261 0.04651 0.0
C636 C 0.82024 0.37864 0.16255 0.0
C637 C 0.82654 0.38786 0.23492 0.0
C638 C 0.81921 0.44065 0.06463 0.0
C639 C 0.82101 0.40984 0.11575 0.0
C640 C 0.82277 0.4546 0.00513 0.0
C641 C 0.82908 0.45144 0.93311 0.0
C642 C 0.82156 0.42317 0.05172 0.0
C643 C 0.83005 0.43309 0.92147 0.0
C644 C 0.81769 0.38964 0.10272 0.0
C645 C 0.82847 0.4076 0.24661 0.0
N646 N 0.82652 0.41973 0.98037 0.0
N647 N 0.82589 0.41802 0.18744 0.0
H648 H 0.40649 0.83688 0.03478 0.0
H649 H 0.45782 0.81809 0.32896 0.0
H650 H 0.35998 0.82762 0.20339 0.0
H651 H 0.42707 0.84283 0.46913 0.0
H652 H 0.43394 0.81347 0.22478 0.0
H653 H 0.42664 0.8315 0.13342 0.0
C654 C 0.4003 0.83334 0.09226 0.0
C655 C 0.38157 0.83293 0.11082 0.0
C656 C 0.4325 0.82001 0.27816 0.0
C657 C 0.4045 0.82654 0.22426 0.0
C658 C 0.44609 0.82259 0.33792 0.0
C659 C 0.44492 0.8315 0.40725 0.0
C660 C 0.41755 0.82631 0.28796 0.0
C661 C 0.42883 0.83625 0.41633 0.0
C662 C 0.41175 0.83008 0.14859 0.0
C663 C 0.37435 0.82826 0.18635 0.0
N664 N 0.41587 0.83374 0.35713 0.0
N665 N 0.38601 0.82562 0.24054 0.0
H666 H 0.58549 0.42365 0.16915 0.0
H667 H 0.58209 0.42616 0.61315 0.0
H668 H 0.54232 0.36883 0.29731 0.0
H669 H 0.64012 0.46285 0.49095 0.0
H670 H 0.56702 0.40466 0.49915 0.0
H671 H 0.60598 0.43856 0.28547 0.0
C672 C 0.58045 0.41462 0.22138 0.0
C673 C 0.56184 0.39519 0.22382 0.0
C674 C 0.58315 0.41729 0.49771 0.0
C675 C 0.58502 0.41229 0.35709 0.0
C676 C 0.59178 0.42958 0.5628 0.0
C677 C 0.61222 0.44683 0.56096 0.0
C678 C 0.59494 0.4225 0.43012 0.0
C679 C 0.62406 0.45029 0.49417 0.0
C680 C 0.59217 0.42313 0.28774 0.0
C681 C 0.55623 0.38412 0.29312 0.0
N682 N 0.61511 0.43855 0.43087 0.0
N683 N 0.56751 0.39301 0.35736 0.0
H684 H 0.1665 0.52622 0.51212 0.0
H685 H 0.17149 0.63163 0.65088 0.0
H686 H 0.15484 0.5658 0.36275 0.0
H687 H 0.15432 0.57861 0.79829 0.0
H688 H 0.17566 0.61235 0.54553 0.0
H689 H 0.17241 0.55024 0.6172 0.0
C690 C 0.16532 0.53999 0.50102 0.0
C691 C 0.15953 0.5436 0.42876 0.0
C692 C 0.17121 0.60507 0.60122 0.0
C693 C 0.16681 0.57146 0.54871 0.0
C694 C 0.16871 0.61601 0.6614 0.0
C695 C 0.16184 0.6065 0.73306 0.0
C696 C 0.16728 0.58462 0.61324 0.0
C697 C 0.15928 0.58647 0.74378 0.0
C698 C 0.16877 0.55374 0.56116 0.0
C699 C 0.15892 0.56217 0.41769 0.0
N700 N 0.16184 0.57612 0.68431 0.0
N701 N 0.16234 0.57533 0.47722 0.0
H702 H 0.5861 0.15328 0.54712 0.0
H703 H 0.57271 0.15661 0.99211 0.0
H704 H 0.63698 0.16839 0.70316 0.0
H705 H 0.53403 0.1664 0.83173 0.0
H706 H 0.59671 0.16101 0.88804 0.0
H707 H 0.56681 0.15831 0.65041 0.0
C708 C 0.59334 0.15785 0.60284 0.0
C709 C 0.61305 0.15993 0.61678 0.0
C710 C 0.58308 0.16246 0.87596 0.0
C711 C 0.5909 0.16544 0.73555 0.0
C712 C 0.56934 0.15991 0.93531 0.0
C713 C 0.55109 0.16082 0.92064 0.0
C714 C 0.57836 0.16563 0.80125 0.0
C715 C 0.54767 0.16529 0.84589 0.0
C716 C 0.58231 0.16073 0.66182 0.0
C717 C 0.62167 0.16609 0.6901 0.0
N718 N 0.56098 0.1672 0.78885 0.0
N719 N 0.61041 0.16827 0.74707 0.0
H720 H 0.28896 0.50077 0.1878 0.0
H721 H 0.16721 0.43166 0.28719 0.0
H722 H 0.25775 0.43391 0.22385 0.0
H723 H 0.20226 0.49895 0.31127 0.0
H724 H 0.19964 0.43204 0.25449 0.0
H725 H 0.25649 0.50027 0.22116 0.0
C726 C 0.27523 0.48596 0.20206 0.0
C727 C 0.27604 0.46734 0.20307 0.0
C728 C 0.20025 0.44671 0.26737 0.0
C729 C 0.23893 0.46669 0.24164 0.0
C730 C 0.18176 0.4465 0.28609 0.0
C731 C 0.18206 0.4653 0.30209 0.0
C732 C 0.21914 0.46588 0.2637 0.0
C733 C 0.20134 0.48408 0.29977 0.0
C734 C 0.25676 0.48571 0.22163 0.0
C735 C 0.25783 0.44863 0.22252 0.0
N736 N 0.21911 0.48391 0.28037 0.0
N737 N 0.24 0.44878 0.24094 0.0
H738 H 0.78162 0.29742 0.35637 0.0
H739 H 0.73642 0.17716 0.46791 0.0
H740 H 0.81977 0.26839 0.37642 0.0
H741 H 0.70123 0.2091 0.49704 0.0
H742 H 0.76653 0.21002 0.42621 0.0
H743 H 0.75108 0.26446 0.39707 0.0
C744 C 0.78352 0.28405 0.36847 0.0
C745 C 0.80325 0.28562 0.36307 0.0
C746 C 0.75228 0.20989 0.44214 0.0
C747 C 0.76852 0.24805 0.41016 0.0
C748 C 0.73508 0.19114 0.4661 0.0
C749 C 0.71632 0.19042 0.48613 0.0
C750 C 0.75065 0.22805 0.43737 0.0
C751 C 0.71547 0.20901 0.48259 0.0
C752 C 0.76614 0.26532 0.39228 0.0
C753 C 0.80487 0.26789 0.38005 0.0
N754 N 0.73237 0.22707 0.45815 0.0
N755 N 0.78775 0.24986 0.40283 0.0
H756 H 0.55222 0.81473 0.53988 0.0
H757 H 0.48091 0.69337 0.64229 0.0
H758 H 0.48477 0.78153 0.5219 0.0
H759 H 0.54774 0.72369 0.60683 0.0
H760 H 0.48201 0.72617 0.60882 0.0
H761 H 0.55087 0.78191 0.57257 0.0
C762 C 0.53712 0.80049 0.54232 0.0
C763 C 0.51858 0.80084 0.52808 0.0
C764 C 0.49642 0.72562 0.60854 0.0
C765 C 0.5169 0.76325 0.56646 0.0
C766 C 0.49583 0.70698 0.62818 0.0
C767 C 0.51427 0.70583 0.62734 0.0
C768 C 0.51561 0.74325 0.58859 0.0
C769 C 0.53315 0.72387 0.60805 0.0
C770 C 0.53636 0.78176 0.56105 0.0
C771 C 0.49945 0.78192 0.53203 0.0
N772 N 0.53333 0.74183 0.58951 0.0
N773 N 0.49909 0.76388 0.55138 0.0
H774 H 0.82034 0.5628 0.79152 0.0
H775 H 0.69911 0.49202 0.68694 0.0
H776 H 0.78601 0.49554 0.81711 0.0
H777 H 0.72929 0.55889 0.72127 0.0
H778 H 0.73175 0.49316 0.7226 0.0
H779 H 0.78777 0.56182 0.75633 0.0
C780 C 0.80592 0.54784 0.79027 0.0
C781 C 0.80586 0.52923 0.80739 0.0
C782 C 0.73122 0.50758 0.72217 0.0
C783 C 0.76864 0.52797 0.7661 0.0
C784 C 0.71265 0.50697 0.70127 0.0
C785 C 0.7115 0.5254 0.70118 0.0
C786 C 0.74879 0.52678 0.74242 0.0
C787 C 0.72948 0.5443 0.72077 0.0
C788 C 0.78735 0.5473 0.77011 0.0
C789 C 0.78674 0.51028 0.80479 0.0
N790 N 0.7474 0.54451 0.74053 0.0
N791 N 0.7689 0.51012 0.78396 0.0
H792 H 0.25757 0.81658 0.97475 0.0
H793 H 0.20879 0.69637 0.85526 0.0
H794 H 0.2918 0.78337 0.99258 0.0
H795 H 0.17231 0.72693 0.88485 0.0
H796 H 0.24011 0.72868 0.89592 0.0
H797 H 0.22664 0.78419 0.93483 0.0
C798 C 0.25853 0.80241 0.97083 0.0
C799 C 0.27726 0.80265 0.98711 0.0
C800 C 0.22525 0.72829 0.89328 0.0
C801 C 0.24196 0.76552 0.94036 0.0
C802 C 0.20741 0.70993 0.8695 0.0
C803 C 0.18793 0.70899 0.86666 0.0
C804 C 0.22356 0.74583 0.91371 0.0
C805 C 0.187 0.72694 0.88638 0.0
C806 C 0.24086 0.78392 0.94789 0.0
C807 C 0.27761 0.78383 0.98103 0.0
N808 N 0.20454 0.74461 0.90902 0.0
N809 N 0.26023 0.76602 0.9576 0.0
H810 H 0.48562 0.29251 0.94566 0.0
H811 H 0.47771 0.19726 0.17477 0.0
H812 H 0.503 0.29879 0.1832 0.0
H813 H 0.49782 0.20741 0.93985 0.0
H814 H 0.48218 0.23249 0.17873 0.0
H815 H 0.48544 0.25918 0.94123 0.0
C816 C 0.48944 0.28687 0.99679 0.0
C817 C 0.49428 0.2983 0.06498 0.0
C818 C 0.48571 0.22701 0.12654 0.0
C819 C 0.49377 0.26024 0.06049 0.0
C820 C 0.48303 0.20692 0.12401 0.0
C821 C 0.48732 0.19947 0.05674 0.0
C822 C 0.49221 0.23949 0.06078 0.0
C823 C 0.49438 0.21264 0.99279 0.0
C824 C 0.48944 0.26797 0.99406 0.0
C825 C 0.49925 0.29042 0.12951 0.0
N826 N 0.49634 0.23198 0.99601 0.0
N827 N 0.49858 0.27167 0.12603 0.0
H828 H 0.41876 0.4706 0.27859 0.0
H829 H 0.46737 0.4204 0.00029 0.0
H830 H 0.41183 0.46807 0.03377 0.0
H831 H 0.48017 0.42859 0.24171 0.0
H832 H 0.44928 0.44046 0.01053 0.0
H833 H 0.44342 0.45768 0.26599 0.0
C834 C 0.42256 0.46749 0.22219 0.0
C835 C 0.41315 0.47034 0.15719 0.0
C836 C 0.45624 0.43809 0.06121 0.0
C837 C 0.44131 0.45555 0.1423 0.0
C838 C 0.46651 0.42661 0.05536 0.0
C839 C 0.47512 0.42272 0.12034 0.0
C840 C 0.45433 0.44555 0.13278 0.0
C841 C 0.47382 0.43132 0.19015 0.0
C842 C 0.4367 0.46021 0.21499 0.0
C843 C 0.41883 0.4663 0.08544 0.0
N844 N 0.46337 0.44212 0.19473 0.0
N845 N 0.43236 0.45893 0.08001 0.0
H846 H 0.9418 0.42029 0.45992 0.0
H847 H 0.044 0.46633 0.19983 0.0
H848 H 0.94031 0.42107 0.21403 0.0
H849 H 0.04536 0.46869 0.4458 0.0
H850 H 0.00633 0.45347 0.20338 0.0
H851 H 0.97996 0.44188 0.4558 0.0
C852 C 0.94952 0.42523 0.40509 0.0
C853 C 0.93792 0.41873 0.33723 0.0
C854 C 0.01491 0.45705 0.25655 0.0
C855 C 0.98157 0.44329 0.3319 0.0
C856 C 0.03639 0.46431 0.25454 0.0
C857 C 0.04781 0.46842 0.32261 0.0
C858 C 0.00472 0.45368 0.3272 0.0
C859 C 0.03723 0.46584 0.39188 0.0
C860 C 0.97129 0.43758 0.40272 0.0
C861 C 0.94865 0.42579 0.26774 0.0
N862 N 0.01625 0.45841 0.3924 0.0
N863 N 0.9699 0.43746 0.26683 0.0
H864 H 0.58554 0.04781 0.38847 0.0
H865 H 0.53073 0.9434 0.63838 0.0
H866 H 0.58312 0.04746 0.63438 0.0
H867 H 0.52942 0.94383 0.39238 0.0
H868 H 0.54722 0.98158 0.63818 0.0
H869 H 0.56237 0.00981 0.38848 0.0
C870 C 0.58 0.03973 0.44243 0.0
C871 C 0.58637 0.05078 0.51152 0.0
C872 C 0.54311 0.97332 0.58423 0.0
C873 C 0.55989 0.00732 0.51208 0.0
C874 C 0.53377 0.95154 0.58435 0.0
C875 C 0.52884 0.94045 0.51531 0.0
C876 C 0.54775 0.98412 0.51452 0.0
C877 C 0.53284 0.95173 0.44695 0.0
C878 C 0.56672 0.01806 0.44243 0.0
C879 C 0.5785 0.0396 0.57977 0.0
N880 N 0.54227 0.97297 0.44827 0.0
N881 N 0.56585 0.01846 0.57834 0.0
H882 H 0.57016 0.52071 0.78904 0.0
H883 H 0.518 0.57046 0.52684 0.0
H884 H 0.57223 0.52115 0.54307 0.0
H885 H 0.51414 0.56832 0.7725 0.0
H886 H 0.53373 0.54811 0.53099 0.0
H887 H 0.54562 0.53387 0.7838 0.0
C888 C 0.56528 0.52338 0.73393 0.0
C889 C 0.57341 0.52002 0.66644 0.0
C890 C 0.52919 0.55228 0.58398 0.0
C891 C 0.5454 0.53514 0.6599 0.0
C892 C 0.52026 0.56507 0.5816 0.0
C893 C 0.51496 0.57142 0.64944 0.0
C894 C 0.53305 0.54596 0.65478 0.0
C895 C 0.51792 0.56375 0.71879 0.0
C896 C 0.55122 0.53083 0.73093 0.0
C897 C 0.5663 0.52342 0.59654 0.0
N898 N 0.52703 0.55165 0.71973 0.0
N899 N 0.55291 0.53104 0.59512 0.0
H900 H 0.04884 0.57526 0.70985 0.0
H901 H 0.94302 0.52694 0.95223 0.0
H902 H 0.04673 0.57683 0.95558 0.0
H903 H 0.94511 0.53079 0.70646 0.0
H904 H 0.98061 0.53979 0.95393 0.0
H905 H 0.01067 0.55362 0.70737 0.0
C906 C 0.04038 0.57072 0.76337 0.0
C907 C 0.05096 0.578 0.83306 0.0
C908 C 0.97282 0.53763 0.89954 0.0
C909 C 0.00726 0.55353 0.83055 0.0
C910 C 0.95131 0.53013 0.89848 0.0
C911 C 0.94091 0.52791 0.82906 0.0
C912 C 0.98408 0.54302 0.83074 0.0
C913 C 0.95256 0.5326 0.76132 0.0
C914 C 0.01857 0.55849 0.76189 0.0
C915 C 0.03916 0.57182 0.90057 0.0
N916 N 0.97355 0.54008 0.76388 0.0
N917 N 0.01794 0.56009 0.89761 0.0
H918 H 0.46075 0.04899 0.14999 0.0
H919 H 0.40836 0.94602 0.89068 0.0
H920 H 0.46394 0.05007 0.90417 0.0
H921 H 0.40863 0.94479 0.13671 0.0
H922 H 0.4308 0.98411 0.89448 0.0
H923 H 0.44369 0.01076 0.14664 0.0
C924 C 0.45796 0.04117 0.09535 0.0
C925 C 0.4637 0.05272 0.02728 0.0
C926 C 0.42612 0.97549 0.94765 0.0
C927 C 0.44417 0.009 0.02289 0.0
C928 C 0.41326 0.95377 0.94548 0.0
C929 C 0.40655 0.94222 0.01345 0.0
C930 C 0.43219 0.9858 0.01836 0.0
C931 C 0.41357 0.95303 0.08288 0.0
C932 C 0.4483 0.01937 0.09344 0.0
C933 C 0.45996 0.04182 0.95809 0.0
N934 N 0.42585 0.97422 0.08355 0.0
N935 N 0.45028 0.02057 0.95766 0.0
loop_
_geom_bond_atom_site_label_1
_geom_bond_atom_site_label_2
_geom_bond_distance
_geom_bond_site_symmetry_2
_ccdc_geom_bond_type
C0 C1 1.351 . S
C0 N3 1.368 . S
C0 H5 0.931 . S
C1 C0 1.351 . S
C1 N2 1.373 . S
C1 H29 0.930 . S
N2 C1 1.373 . S
N2 C4 1.340 . S
N3 C0 1.368 . S
N3 C4 1.321 . S
N3 Co6 2.135 1_556 S
C4 N2 1.340 . S
C4 N3 1.321 . S
C4 H28 0.930 . S
H5 C0 0.931 . S
Co6 N3 2.135 1_554 S
Co6 N9 2.121 . S
Co6 O14 2.055 . S
Co6 O17 2.039 . S
Co6 N20 2.140 . S
C7 O8 1.227 . S
C7 O17 1.265 . S
O8 C7 1.227 . S
N9 Co6 2.121 . S
N9 C11 1.375 . S
N9 C12 1.313 . S
C10 C11 1.338 . S
C10 N13 1.377 . S
C10 H30 0.930 . S
C11 N9 1.375 . S
C11 C10 1.338 . S
C11 H15 0.931 . S
C12 N9 1.313 . S
C12 N13 1.344 . S
C12 H16 0.930 . S
N13 C10 1.377 . S
N13 C12 1.344 . S
O14 Co6 2.055 . S
O14 C18 1.253 . S
H15 C11 0.931 . S
H16 C12 0.930 . S
O17 Co6 2.039 . S
O17 C7 1.265 . S
C18 O14 1.253 . S
C18 O19 1.227 . S
O19 C18 1.227 . S
N20 Co6 2.140 . S
N20 C23 1.346 . S
N20 C24 1.345 . S
C21 C22 1.387 . S
C21 C25 1.391 . S
C22 C21 1.387 . S
C22 C23 1.369 . S
C22 H31 0.941 . S
C23 N20 1.346 . S
C23 C22 1.369 . S
C23 H26 0.928 1_554 S
C24 N20 1.345 . S
C24 C25 1.371 . S
C24 H27 0.931 . S
C25 C21 1.391 . S
C25 C24 1.371 . S
C25 H32 0.930 . S
H26 C23 0.928 1_556 S
H27 C24 0.931 . S
H28 C4 0.930 . S
H29 C1 0.930 . S
H30 C10 0.930 . S
H31 C22 0.941 . S
H32 C25 0.930 . S
C33 C34 1.351 . S
C33 N36 1.368 . S
C33 H38 0.931 . S
C34 C33 1.351 . S
C34 N35 1.373 . S
C34 H62 0.930 . S
N35 C34 1.373 . S
N35 C37 1.340 . S
N36 C33 1.368 . S
N36 C37 1.321 . S
N36 Co39 2.135 . S
C37 N35 1.340 . S
C37 N36 1.321 . S
C37 H61 0.930 . S
H38 C33 0.931 . S
Co39 N36 2.135 . S
Co39 N42 2.121 . S
Co39 O47 2.055 . S
Co39 O50 2.039 . S
Co39 N53 2.140 . S
C40 O41 1.227 . S
C40 O50 1.265 . S
O41 C40 1.227 . S
N42 Co39 2.121 . S
N42 C44 1.375 . S
N42 C45 1.313 . S
C43 C44 1.338 . S
C43 N46 1.377 . S
C43 H63 0.930 . S
C44 N42 1.375 . S
C44 C43 1.338 . S
C44 H48 0.931 . S
C45 N42 1.313 . S
C45 N46 1.344 . S
C45 H49 0.930 . S
N46 C43 1.377 . S
N46 C45 1.344 . S
O47 Co39 2.055 . S
O47 C51 1.253 . S
H48 C44 0.931 . S
H49 C45 0.930 . S
O50 Co39 2.039 . S
O50 C40 1.265 . S
C51 O47 1.253 . S
C51 O52 1.227 . S
O52 C51 1.227 . S
N53 Co39 2.140 . S
N53 C56 1.346 . S
N53 C57 1.345 . S
C54 C55 1.387 . S
C54 C58 1.391 . S
C55 C54 1.387 . S
C55 C56 1.369 . S
C55 H64 0.929 . S
C56 N53 1.346 . S
C56 C55 1.369 . S
C56 H59 0.928 . S
C57 N53 1.345 . S
C57 C58 1.371 . S
C57 H60 0.931 . S
C58 C54 1.391 . S
C58 C57 1.371 . S
C58 H65 0.930 . S
H59 C56 0.928 . S
H60 C57 0.931 . S
H61 C37 0.930 . S
H62 C34 0.930 . S
H63 C43 0.930 . S
H64 C55 0.929 . S
H65 C58 0.930 . S
C66 C67 1.351 . S
C66 N69 1.368 . S
C66 H71 0.931 . S
C67 C66 1.351 . S
C67 N68 1.373 . S
C67 H95 0.930 . S
N68 C67 1.373 . S
N68 C70 1.340 . S
N69 C66 1.368 . S
N69 C70 1.321 . S
N69 Co72 2.135 . S
C70 N68 1.340 . S
C70 N69 1.321 . S
C70 H94 0.930 . S
H71 C66 0.931 . S
Co72 N69 2.135 . S
Co72 N75 2.121 . S
Co72 O80 2.055 . S
Co72 O83 2.039 . S
Co72 N86 2.140 . S
C73 O74 1.227 . S
C73 O83 1.265 . S
O74 C73 1.227 . S
N75 Co72 2.121 . S
N75 C77 1.375 . S
N75 C78 1.313 . S
C76 C77 1.338 . S
C76 N79 1.377 . S
C76 H96 0.930 . S
C77 N75 1.375 . S
C77 C76 1.338 . S
C77 H81 0.931 . S
C78 N75 1.313 . S
C78 N79 1.344 . S
C78 H82 0.930 . S
N79 C76 1.377 . S
N79 C78 1.344 . S
O80 Co72 2.055 . S
O80 C84 1.253 . S
H81 C77 0.931 . S
H82 C78 0.930 . S
O83 Co72 2.039 . S
O83 C73 1.265 . S
C84 O80 1.253 . S
C84 O85 1.227 . S
O85 C84 1.227 . S
N86 Co72 2.140 . S
N86 C89 1.346 . S
N86 C90 1.345 . S
C87 C88 1.387 . S
C87 C91 1.391 . S
C88 C87 1.387 . S
C88 C89 1.369 . S
C88 H97 0.929 . S
C89 N86 1.346 . S
C89 C88 1.369 . S
C89 H92 0.928 . S
C90 N86 1.345 . S
C90 C91 1.371 . S
C90 H93 0.931 . S
C91 C87 1.391 . S
C91 C90 1.371 . S
C91 H98 0.930 . S
H92 C89 0.928 . S
H93 C90 0.931 . S
H94 C70 0.930 . S
H95 C67 0.930 . S
H96 C76 0.930 . S
H97 C88 0.929 . S
H98 C91 0.930 . S
C99 C100 1.351 . S
C99 N102 1.368 . S
C99 H104 0.931 . S
C100 C99 1.351 . S
C100 N101 1.373 . S
C100 H128 0.930 . S
N101 C100 1.373 . S
N101 C103 1.340 . S
N102 C99 1.368 . S
N102 C103 1.321 . S
N102 Co105 2.135 . S
C103 N101 1.340 . S
C103 N102 1.321 . S
C103 H127 0.930 . S
H104 C99 0.931 . S
Co105 N102 2.135 . S
Co105 N108 2.121 . S
Co105 O113 2.055 . S
Co105 O116 2.039 . S
Co105 N119 2.140 . S
C106 O107 1.227 . S
C106 O116 1.265 . S
O107 C106 1.227 . S
N108 Co105 2.121 . S
N108 C110 1.375 . S
N108 C111 1.313 . S
C109 C110 1.338 . S
C109 N112 1.377 . S
C109 H129 0.930 . S
C110 N108 1.375 . S
C110 C109 1.338 . S
C110 H114 0.931 . S
C111 N108 1.313 . S
C111 N112 1.344 . S
C111 H115 0.930 . S
N112 C109 1.377 . S
N112 C111 1.344 . S
O113 Co105 2.055 . S
O113 C117 1.253 . S
H114 C110 0.931 . S
H115 C111 0.930 . S
O116 Co105 2.039 . S
O116 C106 1.265 . S
C117 O113 1.253 . S
C117 O118 1.227 . S
O118 C117 1.227 . S
N119 Co105 2.140 . S
N119 C122 1.346 . S
N119 C123 1.345 . S
C120 C121 1.387 . S
C120 C124 1.391 . S
C121 C120 1.387 . S
C121 C122 1.369 . S
C121 H130 0.929 . S
C122 N119 1.346 . S
C122 C121 1.369 . S
C122 H125 0.928 . S
C123 N119 1.345 . S
C123 C124 1.371 . S
C123 H126 0.931 . S
C124 C120 1.391 . S
C124 C123 1.371 . S
C124 H131 0.930 . S
H125 C122 0.928 . S
H126 C123 0.931 . S
H127 C103 0.930 . S
H128 C100 0.930 . S
H129 C109 0.930 . S
H130 C121 0.929 . S
H131 C124 0.930 . S
C132 C133 1.351 . S
C132 N135 1.368 . S
C132 H137 0.931 . S
C133 C132 1.351 . S
C133 N134 1.373 . S
C133 H161 0.930 . S
N134 C133 1.373 . S
N134 C136 1.340 . S
N135 C132 1.368 . S
N135 C136 1.321 . S
N135 Co138 2.135 . S
C136 N134 1.340 . S
C136 N135 1.321 . S
C136 H160 0.930 . S
H137 C132 0.931 . S
Co138 N135 2.135 . S
Co138 N141 2.121 . S
Co138 O146 2.055 . S
Co138 O149 2.039 . S
Co138 N152 2.140 . S
C139 O140 1.227 . S
C139 O149 1.265 . S
O140 C139 1.227 . S
N141 Co138 2.121 . S
N141 C143 1.375 . S
N141 C144 1.313 . S
C142 C143 1.338 . S
C142 N145 1.377 . S
C142 H162 0.930 1_556 S
C143 N141 1.375 . S
C143 C142 1.338 . S
C143 H147 0.931 . S
C144 N141 1.313 . S
C144 N145 1.344 . S
C144 H148 0.930 . S
N145 C142 1.377 . S
N145 C144 1.344 . S
O146 Co138 2.055 . S
O146 C150 1.253 . S
H147 C143 0.931 . S
H148 C144 0.930 . S
O149 Co138 2.039 . S
O149 C139 1.265 . S
C150 O146 1.253 . S
C150 O151 1.227 . S
O151 C150 1.227 . S
N152 Co138 2.140 . S
N152 C155 1.346 . S
N152 C156 1.345 . S
C153 C154 1.387 . S
C153 C157 1.391 . S
C154 C153 1.387 . S
C154 C155 1.369 . S
C154 H163 0.929 . S
C155 N152 1.346 . S
C155 C154 1.369 . S
C155 H158 0.928 . S
C156 N152 1.345 . S
C156 C157 1.371 . S
C156 H159 0.931 . S
C157 C153 1.391 . S
C157 C156 1.371 . S
C157 H164 0.930 . S
H158 C155 0.928 . S
H159 C156 0.931 . S
H160 C136 0.930 . S
H161 C133 0.930 . S
H162 C142 0.930 1_554 S
H163 C154 0.929 . S
H164 C157 0.930 . S
C165 C166 1.351 . S
C165 N168 1.368 . S
C165 H170 0.931 . S
C166 C165 1.351 . S
C166 N167 1.373 . S
C166 H194 0.930 . S
N167 C166 1.373 . S
N167 C169 1.340 . S
N168 C165 1.368 . S
N168 C169 1.321 . S
N168 Co171 2.135 . S
C169 N167 1.340 . S
C169 N168 1.321 . S
C169 H193 0.930 . S
H170 C165 0.931 . S
Co171 N168 2.135 . S
Co171 N174 2.121 1_556 S
Co171 O179 2.055 . S
Co171 O182 2.039 . S
Co171 N185 2.140 . S
C172 O173 1.227 . S
C172 O182 1.265 . S
O173 C172 1.227 . S
N174 Co171 2.121 1_554 S
N174 C176 1.375 . S
N174 C177 1.313 . S
C175 C176 1.338 . S
C175 N178 1.377 . S
C175 H195 0.930 . S
C176 N174 1.375 . S
C176 C175 1.338 . S
C176 H180 0.931 . S
C177 N174 1.313 . S
C177 N178 1.344 . S
C177 H181 0.930 . S
N178 C175 1.377 . S
N178 C177 1.344 . S
O179 Co171 2.055 . S
O179 C183 1.253 . S
H180 C176 0.931 . S
H181 C177 0.930 . S
O182 Co171 2.039 . S
O182 C172 1.265 . S
C183 O179 1.253 . S
C183 O184 1.227 . S
O184 C183 1.227 . S
N185 Co171 2.140 . S
N185 C188 1.346 . S
N185 C189 1.345 . S
C186 C187 1.387 . S
C186 C190 1.391 . S
C187 C186 1.387 . S
C187 C188 1.369 . S
C187 H196 0.929 . S
C188 N185 1.346 . S
C188 C187 1.369 . S
C188 H191 0.928 . S
C189 N185 1.345 . S
C189 C190 1.371 . S
C189 H192 0.931 1_556 S
C190 C186 1.391 . S
C190 C189 1.371 . S
C190 H197 0.930 1_556 S
H191 C188 0.928 . S
H192 C189 0.931 1_554 S
H193 C169 0.930 . S
H194 C166 0.930 . S
H195 C175 0.930 . S
H196 C187 0.929 . S
H197 C190 0.930 1_554 S
C198 C199 1.351 . S
C198 N201 1.368 . S
C198 H203 0.931 . S
C199 C198 1.351 . S
C199 N200 1.373 . S
C199 H227 0.930 . S
N200 C199 1.373 . S
N200 C202 1.340 . S
N201 C198 1.368 . S
N201 C202 1.321 . S
N201 Co204 2.135 . S
C202 N200 1.340 . S
C202 N201 1.321 . S
C202 H226 0.930 . S
H203 C198 0.931 . S
Co204 N201 2.135 . S
Co204 N207 2.121 . S
Co204 O212 2.055 . S
Co204 O215 2.039 . S
Co204 N218 2.140 . S
C205 O206 1.227 . S
C205 O215 1.265 . S
O206 C205 1.227 . S
N207 Co204 2.121 . S
N207 C209 1.375 . S
N207 C210 1.313 . S
C208 C209 1.338 . S
C208 N211 1.377 . S
C208 H228 0.930 . S
C209 N207 1.375 . S
C209 C208 1.338 . S
C209 H213 0.931 . S
C210 N207 1.313 . S
C210 N211 1.344 . S
C210 H214 0.930 . S
N211 C208 1.377 . S
N211 C210 1.344 . S
O212 Co204 2.055 . S
O212 C216 1.253 . S
H213 C209 0.931 . S
H214 C210 0.930 . S
O215 Co204 2.039 . S
O215 C205 1.265 . S
C216 O212 1.253 . S
C216 O217 1.227 . S
O217 C216 1.227 . S
N218 Co204 2.140 . S
N218 C221 1.346 . S
N218 C222 1.345 . S
C219 C220 1.387 . S
C219 C223 1.391 . S
C220 C219 1.387 . S
C220 C221 1.369 . S
C220 H229 0.929 . S
C221 N218 1.346 . S
C221 C220 1.369 . S
C221 H224 0.928 . S
C222 N218 1.345 . S
C222 C223 1.371 . S
C222 H225 0.931 . S
C223 C219 1.391 . S
C223 C222 1.371 . S
C223 H230 0.930 . S
H224 C221 0.928 . S
H225 C222 0.931 . S
H226 C202 0.930 . S
H227 C199 0.930 . S
H228 C208 0.930 . S
H229 C220 0.929 . S
H230 C223 0.930 . S
C231 C232 1.351 . S
C231 N234 1.368 . S
C231 H236 0.931 . S
C232 C231 1.351 . S
C232 N233 1.373 . S
C232 H260 0.930 . S
N233 C232 1.373 . S
N233 C235 1.340 . S
N234 C231 1.368 . S
N234 C235 1.321 . S
N234 Co237 2.135 1_554 S
C235 N233 1.340 . S
C235 N234 1.321 . S
C235 H259 0.930 . S
H236 C231 0.931 . S
Co237 N234 2.135 1_556 S
Co237 N240 2.121 . S
Co237 O245 2.055 . S
Co237 O248 2.039 . S
Co237 N251 2.140 . S
C238 O239 1.227 . S
C238 O248 1.265 . S
O239 C238 1.227 . S
N240 Co237 2.121 . S
N240 C242 1.375 . S
N240 C243 1.313 . S
C241 C242 1.338 . S
C241 N244 1.377 . S
C241 H261 0.930 . S
C242 N240 1.375 . S
C242 C241 1.338 . S
C242 H246 0.931 . S
C243 N240 1.313 . S
C243 N244 1.344 . S
C243 H247 0.930 . S
N244 C241 1.377 . S
N244 C243 1.344 . S
O245 Co237 2.055 . S
O245 C249 1.253 . S
H246 C242 0.931 . S
H247 C243 0.930 . S
O248 Co237 2.039 . S
O248 C238 1.265 . S
C249 O245 1.253 . S
C249 O250 1.227 . S
O250 C249 1.227 . S
N251 Co237 2.140 . S
N251 C254 1.346 . S
N251 C255 1.345 . S
C252 C253 1.387 . S
C252 C256 1.391 . S
C253 C252 1.387 . S
C253 C254 1.369 . S
C253 H262 0.941 . S
C254 N251 1.346 . S
C254 C253 1.369 . S
C254 H257 0.928 1_556 S
C255 N251 1.345 . S
C255 C256 1.371 . S
C255 H258 0.931 . S
C256 C252 1.391 . S
C256 C255 1.371 . S
C256 H263 0.930 . S
H257 C254 0.928 1_554 S
H258 C255 0.931 . S
H259 C235 0.930 . S
H260 C232 0.930 . S
H261 C241 0.930 . S
H262 C253 0.941 . S
H263 C256 0.930 . S
C264 C265 1.351 . S
C264 N267 1.368 . S
C264 H269 0.931 . S
C265 C264 1.351 . S
C265 N266 1.373 . S
C265 H293 0.930 . S
N266 C265 1.373 . S
N266 C268 1.340 . S
N267 C264 1.368 . S
N267 C268 1.321 . S
N267 Co270 2.135 . S
C268 N266 1.340 . S
C268 N267 1.321 . S
C268 H292 0.930 . S
H269 C264 0.931 . S
Co270 N267 2.135 . S
Co270 N273 2.121 1_554 S
Co270 O278 2.055 . S
Co270 O281 2.039 . S
Co270 N284 2.140 . S
C271 O272 1.227 . S
C271 O281 1.265 . S
O272 C271 1.227 . S
N273 Co270 2.121 1_556 S
N273 C275 1.375 . S
N273 C276 1.313 . S
C274 C275 1.338 . S
C274 N277 1.377 . S
C274 H294 0.930 . S
C275 N273 1.375 . S
C275 C274 1.338 . S
C275 H279 0.931 . S
C276 N273 1.313 . S
C276 N277 1.344 . S
C276 H280 0.930 . S
N277 C274 1.377 . S
N277 C276 1.344 . S
O278 Co270 2.055 . S
O278 C282 1.253 . S
H279 C275 0.931 . S
H280 C276 0.930 . S
O281 Co270 2.039 . S
O281 C271 1.265 . S
C282 O278 1.253 . S
C282 O283 1.227 . S
O283 C282 1.227 . S
N284 Co270 2.140 . S
N284 C287 1.346 . S
N284 C288 1.345 . S
C285 C286 1.387 . S
C285 C289 1.391 . S
C286 C285 1.387 . S
C286 C287 1.369 . S
C286 H295 0.929 . S
C287 N284 1.346 . S
C287 C286 1.369 . S
C287 H290 0.928 . S
C288 N284 1.345 . S
C288 C289 1.371 . S
C288 H291 0.931 1_554 S
C289 C285 1.391 . S
C289 C288 1.371 . S
C289 H296 0.930 1_554 S
H290 C287 0.928 . S
H291 C288 0.931 1_556 S
H292 C268 0.930 . S
H293 C265 0.930 . S
H294 C274 0.930 . S
H295 C286 0.929 . S
H296 C289 0.930 1_556 S
C297 C298 1.351 . S
C297 N300 1.368 . S
C297 H302 0.931 . S
C298 C297 1.351 . S
C298 N299 1.373 . S
C298 H326 0.930 . S
N299 C298 1.373 . S
N299 C301 1.340 . S
N300 C297 1.368 . S
N300 C301 1.321 . S
N300 Co303 2.135 . S
C301 N299 1.340 . S
C301 N300 1.321 . S
C301 H325 0.930 . S
H302 C297 0.931 . S
Co303 N300 2.135 . S
Co303 N306 2.121 . S
Co303 O311 2.055 . S
Co303 O314 2.039 . S
Co303 N317 2.140 . S
C304 O305 1.227 . S
C304 O314 1.265 . S
O305 C304 1.227 . S
N306 Co303 2.121 . S
N306 C308 1.375 . S
N306 C309 1.313 . S
C307 C308 1.338 . S
C307 N310 1.377 . S
C307 H327 0.930 1_554 S
C308 N306 1.375 . S
C308 C307 1.338 . S
C308 H312 0.931 . S
C309 N306 1.313 . S
C309 N310 1.344 . S
C309 H313 0.930 . S
N310 C307 1.377 . S
N310 C309 1.344 . S
O311 Co303 2.055 . S
O311 C315 1.253 . S
H312 C308 0.931 . S
H313 C309 0.930 . S
O314 Co303 2.039 . S
O314 C304 1.265 . S
C315 O311 1.253 . S
C315 O316 1.227 . S
O316 C315 1.227 . S
N317 Co303 2.140 . S
N317 C320 1.346 . S
N317 C321 1.345 . S
C318 C319 1.387 . S
C318 C322 1.391 . S
C319 C318 1.387 . S
C319 C320 1.369 . S
C319 H328 0.929 . S
C320 N317 1.346 . S
C320 C319 1.369 . S
C320 H323 0.928 . S
C321 N317 1.345 . S
C321 C322 1.371 . S
C321 H324 0.931 . S
C322 C318 1.391 . S
C322 C321 1.371 . S
C322 H329 0.930 . S
H323 C320 0.928 . S
H324 C321 0.931 . S
H325 C301 0.930 . S
H326 C298 0.930 . S
H327 C307 0.930 1_556 S
H328 C319 0.929 . S
H329 C322 0.930 . S
C330 C331 1.351 . S
C330 N333 1.368 . S
C330 H335 0.931 . S
C331 C330 1.351 . S
C331 N332 1.373 . S
C331 H359 0.930 . S
N332 C331 1.373 . S
N332 C334 1.340 . S
N333 C330 1.368 . S
N333 C334 1.321 . S
N333 Co336 2.135 . S
C334 N332 1.340 . S
C334 N333 1.321 . S
C334 H358 0.930 . S
H335 C330 0.931 . S
Co336 N333 2.135 . S
Co336 N339 2.121 . S
Co336 O344 2.055 . S
Co336 O347 2.039 . S
Co336 N350 2.140 . S
C337 O338 1.227 . S
C337 O347 1.265 . S
O338 C337 1.227 . S
N339 Co336 2.121 . S
N339 C341 1.375 . S
N339 C342 1.313 . S
C340 C341 1.338 . S
C340 N343 1.377 . S
C340 H360 0.930 . S
C341 N339 1.375 . S
C341 C340 1.338 . S
C341 H345 0.931 . S
C342 N339 1.313 . S
C342 N343 1.344 . S
C342 H346 0.930 . S
N343 C340 1.377 . S
N343 C342 1.344 . S
O344 Co336 2.055 . S
O344 C348 1.253 . S
H345 C341 0.931 . S
H346 C342 0.930 . S
O347 Co336 2.039 . S
O347 C337 1.265 . S
C348 O344 1.253 . S
C348 O349 1.227 . S
O349 C348 1.227 . S
N350 Co336 2.140 . S
N350 C353 1.346 . S
N350 C354 1.345 . S
C351 C352 1.387 . S
C351 C355 1.391 . S
C352 C351 1.387 . S
C352 C353 1.369 . S
C352 H361 0.929 . S
C353 N350 1.346 . S
C353 C352 1.369 . S
C353 H356 0.928 . S
C354 N350 1.345 . S
C354 C355 1.371 . S
C354 H357 0.931 . S
C355 C351 1.391 . S
C355 C354 1.371 . S
C355 H362 0.930 . S
H356 C353 0.928 . S
H357 C354 0.931 . S
H358 C334 0.930 . S
H359 C331 0.930 . S
H360 C340 0.930 . S
H361 C352 0.929 . S
H362 C355 0.930 . S
C363 C364 1.351 . S
C363 N366 1.368 . S
C363 H368 0.931 . S
C364 C363 1.351 . S
C364 N365 1.373 . S
C364 H392 0.930 . S
N365 C364 1.373 . S
N365 C367 1.340 . S
N366 C363 1.368 . S
N366 C367 1.321 . S
N366 Co369 2.135 . S
C367 N365 1.340 . S
C367 N366 1.321 . S
C367 H391 0.930 . S
H368 C363 0.931 . S
Co369 N366 2.135 . S
Co369 N372 2.121 . S
Co369 O377 2.055 . S
Co369 O380 2.039 . S
Co369 N383 2.140 . S
C370 O371 1.227 . S
C370 O380 1.265 . S
O371 C370 1.227 . S
N372 Co369 2.121 . S
N372 C374 1.375 . S
N372 C375 1.313 . S
C373 C374 1.338 . S
C373 N376 1.377 . S
C373 H393 0.930 . S
C374 N372 1.375 . S
C374 C373 1.338 . S
C374 H378 0.931 . S
C375 N372 1.313 . S
C375 N376 1.344 . S
C375 H379 0.930 . S
N376 C373 1.377 . S
N376 C375 1.344 . S
O377 Co369 2.055 . S
O377 C381 1.253 . S
H378 C374 0.931 . S
H379 C375 0.930 . S
O380 Co369 2.039 . S
O380 C370 1.265 . S
C381 O377 1.253 . S
C381 O382 1.227 . S
O382 C381 1.227 . S
N383 Co369 2.140 . S
N383 C386 1.346 . S
N383 C387 1.345 . S
C384 C385 1.387 . S
C384 C388 1.391 . S
C385 C384 1.387 . S
C385 C386 1.369 . S
C385 H394 0.929 . S
C386 N383 1.346 . S
C386 C385 1.369 . S
C386 H389 0.928 . S
C387 N383 1.345 . S
C387 C388 1.371 . S
C387 H390 0.931 . S
C388 C384 1.391 . S
C388 C387 1.371 . S
C388 H395 0.930 . S
H389 C386 0.928 . S
H390 C387 0.931 . S
H391 C367 0.930 . S
H392 C364 0.930 . S
H393 C373 0.930 . S
H394 C385 0.929 . S
H395 C388 0.930 . S
H396 C402 0.930 . S
H397 C406 0.930 . S
H398 C411 0.929 . S
H399 C409 0.929 . S
H400 C404 0.929 . S
H401 C410 0.929 . S
C402 H396 0.930 . S
C402 C403 1.367 . S
C402 C410 1.378 . S
C403 C402 1.367 . S
C403 C411 1.433 . S
C404 H400 0.929 . S
C404 C406 1.378 . S
C404 C408 1.350 . S
C405 C408 1.463 . S
C405 C410 1.350 . S
C405 N413 1.427 . S
C406 H397 0.930 . S
C406 C404 1.378 . S
C406 C407 1.367 . S
C407 C406 1.367 . S
C407 C409 1.433 . S
C408 C404 1.350 . S
C408 C405 1.463 . S
C408 N412 1.427 . S
C409 H399 0.929 . S
C409 C407 1.433 . S
C409 N412 1.384 . S
C410 H401 0.929 . S
C410 C402 1.378 . S
C410 C405 1.350 . S
C411 H398 0.929 . S
C411 C403 1.433 . S
C411 N413 1.384 . S
N412 C408 1.427 . S
N412 C409 1.384 . S
N413 C405 1.427 . S
N413 C411 1.384 . S
H414 C420 0.930 . S
H415 C424 0.930 . S
H416 C429 0.929 . S
H417 C427 0.929 . S
H418 C422 0.929 . S
H419 C428 0.929 . S
C420 H414 0.930 . S
C420 C421 1.367 . S
C420 C428 1.378 . S
C421 C420 1.367 . S
C421 C429 1.433 . S
C422 H418 0.929 . S
C422 C424 1.378 . S
C422 C426 1.350 . S
C423 C426 1.463 . S
C423 C428 1.350 . S
C423 N431 1.427 . S
C424 H415 0.930 . S
C424 C422 1.378 . S
C424 C425 1.367 . S
C425 C424 1.367 . S
C425 C427 1.433 . S
C426 C422 1.350 . S
C426 C423 1.463 . S
C426 N430 1.427 . S
C427 H417 0.929 . S
C427 C425 1.433 . S
C427 N430 1.384 . S
C428 H419 0.929 . S
C428 C420 1.378 . S
C428 C423 1.350 . S
C429 H416 0.929 . S
C429 C421 1.433 . S
C429 N431 1.384 . S
N430 C426 1.427 . S
N430 C427 1.384 . S
N431 C423 1.427 . S
N431 C429 1.384 . S
H432 C438 0.930 . S
H433 C442 0.930 . S
H434 C447 0.929 . S
H435 C445 0.929 . S
H436 C440 0.929 . S
H437 C446 0.929 . S
C438 H432 0.930 . S
C438 C439 1.367 . S
C438 C446 1.378 1_554 S
C439 C438 1.367 . S
C439 C447 1.433 . S
C440 H436 0.929 . S
C440 C442 1.378 . S
C440 C444 1.350 . S
C441 C444 1.463 . S
C441 C446 1.350 . S
C441 N449 1.427 1_556 S
C442 H433 0.930 . S
C442 C440 1.378 . S
C442 C443 1.367 . S
C443 C442 1.367 . S
C443 C445 1.433 . S
C444 C440 1.350 . S
C444 C441 1.463 . S
C444 N448 1.427 . S
C445 H435 0.929 . S
C445 C443 1.433 . S
C445 N448 1.384 . S
C446 H437 0.929 . S
C446 C438 1.378 1_556 S
C446 C441 1.350 . S
C447 H434 0.929 . S
C447 C439 1.433 . S
C447 N449 1.384 . S
N448 C444 1.427 . S
N448 C445 1.384 . S
N449 C441 1.427 1_554 S
N449 C447 1.384 . S
H450 C456 0.930 . S
H451 C460 0.930 . S
H452 C465 0.929 . S
H453 C463 0.929 . S
H454 C458 0.929 . S
H455 C464 0.929 . S
C456 H450 0.930 . S
C456 C457 1.367 . S
C456 C464 1.378 1_556 S
C457 C456 1.367 . S
C457 C465 1.433 . S
C458 H454 0.929 . S
C458 C460 1.378 . S
C458 C462 1.350 . S
C459 C462 1.463 . S
C459 C464 1.350 . S
C459 N467 1.427 . S
C460 H451 0.930 . S
C460 C458 1.378 . S
C460 C461 1.367 . S
C461 C460 1.367 . S
C461 C463 1.433 . S
C462 C458 1.350 . S
C462 C459 1.463 . S
C462 N466 1.427 . S
C463 H453 0.929 . S
C463 C461 1.433 . S
C463 N466 1.384 . S
C464 H455 0.929 . S
C464 C456 1.378 1_554 S
C464 C459 1.350 . S
C465 H452 0.929 . S
C465 C457 1.433 . S
C465 N467 1.384 1_556 S
N466 C462 1.427 . S
N466 C463 1.384 . S
N467 C459 1.427 . S
N467 C465 1.384 1_554 S
H468 C474 0.930 . S
H469 C478 0.930 . S
H470 C483 0.929 . S
H471 C481 0.929 . S
H472 C476 0.929 . S
H473 C482 0.929 . S
C474 H468 0.930 . S
C474 C475 1.367 . S
C474 C482 1.378 . S
C475 C474 1.367 . S
C475 C483 1.433 . S
C476 H472 0.929 . S
C476 C478 1.378 . S
C476 C480 1.350 . S
C477 C480 1.463 . S
C477 C482 1.350 . S
C477 N485 1.427 . S
C478 H469 0.930 . S
C478 C476 1.378 . S
C478 C479 1.367 . S
C479 C478 1.367 . S
C479 C481 1.433 . S
C480 C476 1.350 . S
C480 C477 1.463 . S
C480 N484 1.427 . S
C481 H471 0.929 . S
C481 C479 1.433 . S
C481 N484 1.384 . S
C482 H473 0.929 . S
C482 C474 1.378 . S
C482 C477 1.350 . S
C483 H470 0.929 . S
C483 C475 1.433 . S
C483 N485 1.384 . S
N484 C480 1.427 . S
N484 C481 1.384 . S
N485 C477 1.427 . S
N485 C483 1.384 . S
H486 C492 0.930 . S
H487 C496 0.930 . S
H488 C501 0.929 . S
H489 C499 0.929 . S
H490 C494 0.929 . S
H491 C500 0.929 . S
C492 H486 0.930 . S
C492 C493 1.367 . S
C492 C500 1.378 . S
C493 C492 1.367 . S
C493 C501 1.433 . S
C494 H490 0.929 . S
C494 C496 1.378 . S
C494 C498 1.350 . S
C495 C498 1.463 . S
C495 C500 1.350 . S
C495 N503 1.427 . S
C496 H487 0.930 . S
C496 C494 1.378 . S
C496 C497 1.367 . S
C497 C496 1.367 . S
C497 C499 1.433 . S
C498 C494 1.350 . S
C498 C495 1.463 . S
C498 N502 1.427 . S
C499 H489 0.929 . S
C499 C497 1.433 . S
C499 N502 1.384 . S
C500 H491 0.929 . S
C500 C492 1.378 . S
C500 C495 1.350 . S
C501 H488 0.929 . S
C501 C493 1.433 . S
C501 N503 1.384 . S
N502 C498 1.427 . S
N502 C499 1.384 . S
N503 C495 1.427 . S
N503 C501 1.384 . S
H504 C510 0.930 . S
H505 C514 0.930 . S
H506 C519 0.929 . S
H507 C517 0.929 . S
H508 C512 0.929 . S
H509 C518 0.929 . S
C510 H504 0.930 . S
C510 C511 1.367 . S
C510 C518 1.378 . S
C511 C510 1.367 . S
C511 C519 1.433 . S
C512 H508 0.929 . S
C512 C514 1.378 . S
C512 C516 1.350 . S
C513 C516 1.463 . S
C513 C518 1.350 . S
C513 N521 1.427 . S
C514 H505 0.930 . S
C514 C512 1.378 . S
C514 C515 1.367 . S
C515 C514 1.367 . S
C515 C517 1.433 . S
C516 C512 1.350 . S
C516 C513 1.463 . S
C516 N520 1.427 . S
C517 H507 0.929 . S
C517 C515 1.433 . S
C517 N520 1.384 . S
C518 H509 0.929 . S
C518 C510 1.378 . S
C518 C513 1.350 . S
C519 H506 0.929 . S
C519 C511 1.433 . S
C519 N521 1.384 . S
N520 C516 1.427 . S
N520 C517 1.384 . S
N521 C513 1.427 . S
N521 C519 1.384 . S
H522 C528 0.930 . S
H523 C532 0.930 . S
H524 C537 0.929 . S
H525 C535 0.929 . S
H526 C530 0.929 . S
H527 C536 0.929 . S
C528 H522 0.930 . S
C528 C529 1.367 . S
C528 C536 1.378 . S
C529 C528 1.367 . S
C529 C537 1.433 . S
C530 H526 0.929 . S
C530 C532 1.378 . S
C530 C534 1.350 . S
C531 C534 1.463 . S
C531 C536 1.350 . S
C531 N539 1.427 . S
C532 H523 0.930 . S
C532 C530 1.378 . S
C532 C533 1.367 . S
C533 C532 1.367 . S
C533 C535 1.433 . S
C534 C530 1.350 . S
C534 C531 1.463 . S
C534 N538 1.427 . S
C535 H525 0.929 . S
C535 C533 1.433 . S
C535 N538 1.384 . S
C536 H527 0.929 . S
C536 C528 1.378 . S
C536 C531 1.350 . S
C537 H524 0.929 . S
C537 C529 1.433 . S
C537 N539 1.384 . S
N538 C534 1.427 . S
N538 C535 1.384 . S
N539 C531 1.427 . S
N539 C537 1.384 . S
H540 C546 0.930 . S
H541 C550 0.930 . S
H542 C555 0.929 . S
H543 C553 0.929 . S
H544 C548 0.929 . S
H545 C554 0.929 . S
C546 H540 0.930 . S
C546 C547 1.367 . S
C546 C554 1.378 . S
C547 C546 1.367 . S
C547 C555 1.433 . S
C548 H544 0.929 . S
C548 C550 1.378 . S
C548 C552 1.350 . S
C549 C552 1.463 . S
C549 C554 1.350 . S
C549 N557 1.427 . S
C550 H541 0.930 . S
C550 C548 1.378 . S
C550 C551 1.367 . S
C551 C550 1.367 . S
C551 C553 1.433 . S
C552 C548 1.350 . S
C552 C549 1.463 . S
C552 N556 1.427 . S
C553 H543 0.929 . S
C553 C551 1.433 . S
C553 N556 1.384 . S
C554 H545 0.929 . S
C554 C546 1.378 . S
C554 C549 1.350 . S
C555 H542 0.929 . S
C555 C547 1.433 . S
C555 N557 1.384 . S
N556 C552 1.427 . S
N556 C553 1.384 . S
N557 C549 1.427 . S
N557 C555 1.384 . S
H558 C564 0.930 . S
H559 C568 0.930 . S
H560 C573 0.929 . S
H561 C571 0.929 . S
H562 C566 0.929 . S
H563 C572 0.929 . S
C564 H558 0.930 . S
C564 C565 1.367 . S
C564 C572 1.378 . S
C565 C564 1.367 . S
C565 C573 1.433 . S
C566 H562 0.929 . S
C566 C568 1.378 . S
C566 C570 1.350 . S
C567 C570 1.463 . S
C567 C572 1.350 . S
C567 N575 1.427 . S
C568 H559 0.930 . S
C568 C566 1.378 . S
C568 C569 1.367 . S
C569 C568 1.367 . S
C569 C571 1.433 . S
C570 C566 1.350 . S
C570 C567 1.463 . S
C570 N574 1.427 . S
C571 H561 0.929 . S
C571 C569 1.433 . S
C571 N574 1.384 . S
C572 H563 0.929 . S
C572 C564 1.378 . S
C572 C567 1.350 . S
C573 H560 0.929 . S
C573 C565 1.433 . S
C573 N575 1.384 . S
N574 C570 1.427 . S
N574 C571 1.384 . S
N575 C567 1.427 . S
N575 C573 1.384 . S
H576 C582 0.930 . S
H577 C586 0.930 . S
H578 C591 0.929 . S
H579 C589 0.929 . S
H580 C584 0.929 . S
H581 C590 0.932 . S
C582 H576 0.930 . S
C582 C583 1.367 . S
C582 C590 1.368 1_554 S
C583 C582 1.367 . S
C583 C591 1.433 . S
C584 H580 0.929 . S
C584 C586 1.378 . S
C584 C588 1.350 . S
C585 C588 1.463 . S
C585 C590 1.357 . S
C585 N593 1.427 . S
C586 H577 0.930 . S
C586 C584 1.378 . S
C586 C587 1.367 . S
C587 C586 1.367 . S
C587 C589 1.433 . S
C588 C584 1.350 . S
C588 C585 1.463 . S
C588 N592 1.427 . S
C589 H579 0.929 . S
C589 C587 1.433 . S
C589 N592 1.384 . S
C590 H581 0.932 . S
C590 C582 1.368 1_556 S
C590 C585 1.357 . S
C591 H578 0.929 . S
C591 C583 1.433 . S
C591 N593 1.384 1_554 S
N592 C588 1.427 . S
N592 C589 1.384 . S
N593 C585 1.427 . S
N593 C591 1.384 1_556 S
H594 C600 0.930 . S
H595 C604 0.930 . S
H596 C609 0.929 . S
H597 C607 0.929 . S
H598 C602 0.929 . S
H599 C608 0.929 1_554 S
C600 H594 0.930 . S
C600 C601 1.367 . S
C600 C608 1.378 . S
C601 C600 1.367 . S
C601 C609 1.433 . S
C602 H598 0.929 . S
C602 C604 1.378 . S
C602 C606 1.350 . S
C603 C606 1.463 . S
C603 C608 1.350 1_554 S
C603 N611 1.427 1_554 S
C604 H595 0.930 . S
C604 C602 1.378 . S
C604 C605 1.367 . S
C605 C604 1.367 . S
C605 C607 1.433 . S
C606 C602 1.350 . S
C606 C603 1.463 . S
C606 N610 1.427 . S
C607 H597 0.929 . S
C607 C605 1.433 . S
C607 N610 1.384 . S
C608 H599 0.929 1_556 S
C608 C600 1.378 . S
C608 C603 1.350 1_556 S
C609 H596 0.929 . S
C609 C601 1.433 . S
C609 N611 1.384 . S
N610 C606 1.427 . S
N610 C607 1.384 . S
N611 C603 1.427 1_556 S
N611 C609 1.384 . S
H612 C618 0.930 . S
H613 C622 0.930 . S
H614 C627 0.929 . S
H615 C625 0.929 . S
H616 C620 0.929 . S
H617 C626 0.929 . S
C618 H612 0.930 . S
C618 C619 1.367 . S
C618 C626 1.378 . S
C619 C618 1.367 . S
C619 C627 1.433 . S
C620 H616 0.929 . S
C620 C622 1.378 . S
C620 C624 1.350 . S
C621 C624 1.463 . S
C621 C626 1.350 . S
C621 N629 1.427 . S
C622 H613 0.930 . S
C622 C620 1.378 . S
C622 C623 1.367 1_556 S
C623 C622 1.367 1_554 S
C623 C625 1.433 . S
C624 C620 1.350 . S
C624 C621 1.463 . S
C624 N628 1.427 . S
C625 H615 0.929 . S
C625 C623 1.433 . S
C625 N628 1.384 1_554 S
C626 H617 0.929 . S
C626 C618 1.378 . S
C626 C621 1.350 . S
C627 H614 0.929 . S
C627 C619 1.433 . S
C627 N629 1.384 . S
N628 C624 1.427 . S
N628 C625 1.384 1_556 S
N629 C621 1.427 . S
N629 C627 1.384 . S
H630 C636 0.930 . S
H631 C640 0.930 . S
H632 C645 0.929 . S
H633 C643 0.929 . S
H634 C638 0.929 . S
H635 C644 0.929 . S
C636 H630 0.930 . S
C636 C637 1.367 . S
C636 C644 1.378 . S
C637 C636 1.367 . S
C637 C645 1.433 . S
C638 H634 0.929 . S
C638 C640 1.378 . S
C638 C642 1.350 . S
C639 C642 1.463 . S
C639 C644 1.350 . S
C639 N647 1.427 . S
C640 H631 0.930 . S
C640 C638 1.378 . S
C640 C641 1.367 1_554 S
C641 C640 1.367 1_556 S
C641 C643 1.433 . S
C642 C638 1.350 . S
C642 C639 1.463 . S
C642 N646 1.427 1_554 S
C643 H633 0.929 . S
C643 C641 1.433 . S
C643 N646 1.384 . S
C644 H635 0.929 . S
C644 C636 1.378 . S
C644 C639 1.350 . S
C645 H632 0.929 . S
C645 C637 1.433 . S
C645 N647 1.384 . S
N646 C642 1.427 1_556 S
N646 C643 1.384 . S
N647 C639 1.427 . S
N647 C645 1.384 . S
H648 C654 0.930 . S
H649 C658 0.930 . S
H650 C663 0.929 . S
H651 C661 0.929 . S
H652 C656 0.929 . S
H653 C662 0.929 . S
C654 H648 0.930 . S
C654 C655 1.367 . S
C654 C662 1.378 . S
C655 C654 1.367 . S
C655 C663 1.433 . S
C656 H652 0.929 . S
C656 C658 1.378 . S
C656 C660 1.350 . S
C657 C660 1.463 . S
C657 C662 1.350 . S
C657 N665 1.427 . S
C658 H649 0.930 . S
C658 C656 1.378 . S
C658 C659 1.367 . S
C659 C658 1.367 . S
C659 C661 1.433 . S
C660 C656 1.350 . S
C660 C657 1.463 . S
C660 N664 1.427 . S
C661 H651 0.929 . S
C661 C659 1.433 . S
C661 N664 1.384 . S
C662 H653 0.929 . S
C662 C654 1.378 . S
C662 C657 1.350 . S
C663 H650 0.929 . S
C663 C655 1.433 . S
C663 N665 1.384 . S
N664 C660 1.427 . S
N664 C661 1.384 . S
N665 C657 1.427 . S
N665 C663 1.384 . S
H666 C672 0.930 . S
H667 C676 0.930 . S
H668 C681 0.929 . S
H669 C679 0.929 . S
H670 C674 0.929 . S
H671 C680 0.929 . S
C672 H666 0.930 . S
C672 C673 1.367 . S
C672 C680 1.378 . S
C673 C672 1.367 . S
C673 C681 1.433 . S
C674 H670 0.929 . S
C674 C676 1.378 . S
C674 C678 1.350 . S
C675 C678 1.463 . S
C675 C680 1.350 . S
C675 N683 1.427 . S
C676 H667 0.930 . S
C676 C674 1.378 . S
C676 C677 1.367 . S
C677 C676 1.367 . S
C677 C679 1.433 . S
C678 C674 1.350 . S
C678 C675 1.463 . S
C678 N682 1.427 . S
C679 H669 0.929 . S
C679 C677 1.433 . S
C679 N682 1.384 . S
C680 H671 0.929 . S
C680 C672 1.378 . S
C680 C675 1.350 . S
C681 H668 0.929 . S
C681 C673 1.433 . S
C681 N683 1.384 . S
N682 C678 1.427 . S
N682 C679 1.384 . S
N683 C675 1.427 . S
N683 C681 1.384 . S
H684 C690 0.930 . S
H685 C694 0.930 . S
H686 C699 0.929 . S
H687 C697 0.929 . S
H688 C692 0.929 . S
H689 C698 0.929 . S
C690 H684 0.930 . S
C690 C691 1.367 . S
C690 C698 1.378 . S
C691 C690 1.367 . S
C691 C699 1.433 . S
C692 H688 0.929 . S
C692 C694 1.378 . S
C692 C696 1.350 . S
C693 C696 1.463 . S
C693 C698 1.350 . S
C693 N701 1.427 . S
C694 H685 0.930 . S
C694 C692 1.378 . S
C694 C695 1.367 . S
C695 C694 1.367 . S
C695 C697 1.433 . S
C696 C692 1.350 . S
C696 C693 1.463 . S
C696 N700 1.427 . S
C697 H687 0.929 . S
C697 C695 1.433 . S
C697 N700 1.384 . S
C698 H689 0.929 . S
C698 C690 1.378 . S
C698 C693 1.350 . S
C699 H686 0.929 . S
C699 C691 1.433 . S
C699 N701 1.384 . S
N700 C696 1.427 . S
N700 C697 1.384 . S
N701 C693 1.427 . S
N701 C699 1.384 . S
H702 C708 0.930 . S
H703 C712 0.930 . S
H704 C717 0.929 . S
H705 C715 0.929 . S
H706 C710 0.929 . S
H707 C716 0.929 . S
C708 H702 0.930 . S
C708 C709 1.367 . S
C708 C716 1.378 . S
C709 C708 1.367 . S
C709 C717 1.433 . S
C710 H706 0.929 . S
C710 C712 1.378 . S
C710 C714 1.350 . S
C711 C714 1.463 . S
C711 C716 1.350 . S
C711 N719 1.427 . S
C712 H703 0.930 . S
C712 C710 1.378 . S
C712 C713 1.367 . S
C713 C712 1.367 . S
C713 C715 1.433 . S
C714 C710 1.350 . S
C714 C711 1.463 . S
C714 N718 1.427 . S
C715 H705 0.929 . S
C715 C713 1.433 . S
C715 N718 1.384 . S
C716 H707 0.929 . S
C716 C708 1.378 . S
C716 C711 1.350 . S
C717 H704 0.929 . S
C717 C709 1.433 . S
C717 N719 1.384 . S
N718 C714 1.427 . S
N718 C715 1.384 . S
N719 C711 1.427 . S
N719 C717 1.384 . S
H720 C726 0.930 . S
H721 C730 0.930 . S
H722 C735 0.929 . S
H723 C733 0.929 . S
H724 C728 0.929 . S
H725 C734 0.929 . S
C726 H720 0.930 . S
C726 C727 1.367 . S
C726 C734 1.378 . S
C727 C726 1.367 . S
C727 C735 1.433 . S
C728 H724 0.929 . S
C728 C730 1.378 . S
C728 C732 1.350 . S
C729 C732 1.463 . S
C729 C734 1.350 . S
C729 N737 1.427 . S
C730 H721 0.930 . S
C730 C728 1.378 . S
C730 C731 1.367 . S
C731 C730 1.367 . S
C731 C733 1.433 . S
C732 C728 1.350 . S
C732 C729 1.463 . S
C732 N736 1.427 . S
C733 H723 0.929 . S
C733 C731 1.433 . S
C733 N736 1.384 . S
C734 H725 0.929 . S
C734 C726 1.378 . S
C734 C729 1.350 . S
C735 H722 0.929 . S
C735 C727 1.433 . S
C735 N737 1.384 . S
N736 C732 1.427 . S
N736 C733 1.384 . S
N737 C729 1.427 . S
N737 C735 1.384 . S
H738 C744 0.930 . S
H739 C748 0.930 . S
H740 C753 0.929 . S
H741 C751 0.929 . S
H742 C746 0.929 . S
H743 C752 0.929 . S
C744 H738 0.930 . S
C744 C745 1.367 . S
C744 C752 1.378 . S
C745 C744 1.367 . S
C745 C753 1.433 . S
C746 H742 0.929 . S
C746 C748 1.378 . S
C746 C750 1.350 . S
C747 C750 1.463 . S
C747 C752 1.350 . S
C747 N755 1.427 . S
C748 H739 0.930 . S
C748 C746 1.378 . S
C748 C749 1.367 . S
C749 C748 1.367 . S
C749 C751 1.433 . S
C750 C746 1.350 . S
C750 C747 1.463 . S
C750 N754 1.427 . S
C751 H741 0.929 . S
C751 C749 1.433 . S
C751 N754 1.384 . S
C752 H743 0.929 . S
C752 C744 1.378 . S
C752 C747 1.350 . S
C753 H740 0.929 . S
C753 C745 1.433 . S
C753 N755 1.384 . S
N754 C750 1.427 . S
N754 C751 1.384 . S
N755 C747 1.427 . S
N755 C753 1.384 . S
H756 C762 0.930 . S
H757 C766 0.930 . S
H758 C771 0.929 . S
H759 C769 0.929 . S
H760 C764 0.929 . S
H761 C770 0.929 . S
C762 H756 0.930 . S
C762 C763 1.367 . S
C762 C770 1.378 . S
C763 C762 1.367 . S
C763 C771 1.433 . S
C764 H760 0.929 . S
C764 C766 1.378 . S
C764 C768 1.350 . S
C765 C768 1.463 . S
C765 C770 1.350 . S
C765 N773 1.427 . S
C766 H757 0.930 . S
C766 C764 1.378 . S
C766 C767 1.367 . S
C767 C766 1.367 . S
C767 C769 1.433 . S
C768 C764 1.350 . S
C768 C765 1.463 . S
C768 N772 1.427 . S
C769 H759 0.929 . S
C769 C767 1.433 . S
C769 N772 1.384 . S
C770 H761 0.929 . S
C770 C762 1.378 . S
C770 C765 1.350 . S
C771 H758 0.929 . S
C771 C763 1.433 . S
C771 N773 1.384 . S
N772 C768 1.427 . S
N772 C769 1.384 . S
N773 C765 1.427 . S
N773 C771 1.384 . S
H774 C780 0.930 . S
H775 C784 0.930 . S
H776 C789 0.929 . S
H777 C787 0.929 . S
H778 C782 0.929 . S
H779 C788 0.929 . S
C780 H774 0.930 . S
C780 C781 1.367 . S
C780 C788 1.378 . S
C781 C780 1.367 . S
C781 C789 1.433 . S
C782 H778 0.929 . S
C782 C784 1.378 . S
C782 C786 1.350 . S
C783 C786 1.463 . S
C783 C788 1.350 . S
C783 N791 1.427 . S
C784 H775 0.930 . S
C784 C782 1.378 . S
C784 C785 1.367 . S
C785 C784 1.367 . S
C785 C787 1.433 . S
C786 C782 1.350 . S
C786 C783 1.463 . S
C786 N790 1.427 . S
C787 H777 0.929 . S
C787 C785 1.433 . S
C787 N790 1.384 . S
C788 H779 0.929 . S
C788 C780 1.378 . S
C788 C783 1.350 . S
C789 H776 0.929 . S
C789 C781 1.433 . S
C789 N791 1.384 . S
N790 C786 1.427 . S
N790 C787 1.384 . S
N791 C783 1.427 . S
N791 C789 1.384 . S
H792 C798 0.930 . S
H793 C802 0.930 . S
H794 C807 0.929 . S
H795 C805 0.929 . S
H796 C800 0.929 . S
H797 C806 0.929 . S
C798 H792 0.930 . S
C798 C799 1.367 . S
C798 C806 1.378 . S
C799 C798 1.367 . S
C799 C807 1.433 1_554 S
C800 H796 0.929 . S
C800 C802 1.378 . S
C800 C804 1.350 . S
C801 C804 1.463 . S
C801 C806 1.350 1_556 S
C801 N809 1.427 . S
C802 H793 0.930 . S
C802 C800 1.378 . S
C802 C803 1.367 . S
C803 C802 1.367 . S
C803 C805 1.433 . S
C804 C800 1.350 . S
C804 C801 1.463 . S
C804 N808 1.427 . S
C805 H795 0.929 . S
C805 C803 1.433 . S
C805 N808 1.384 . S
C806 H797 0.929 . S
C806 C798 1.378 . S
C806 C801 1.350 1_554 S
C807 H794 0.929 . S
C807 C799 1.433 1_556 S
C807 N809 1.384 . S
N808 C804 1.427 . S
N808 C805 1.384 . S
N809 C801 1.427 . S
N809 C807 1.384 . S
H810 C816 0.930 . S
H811 C820 0.930 . S
H812 C825 0.929 . S
H813 C823 0.929 . S
H814 C818 0.929 . S
H815 C824 0.929 . S
C816 H810 0.930 . S
C816 C817 1.367 . S
C816 C824 1.378 . S
C817 C816 1.367 . S
C817 C825 1.433 . S
C818 H814 0.929 . S
C818 C820 1.378 . S
C818 C822 1.350 . S
C819 C822 1.463 . S
C819 C824 1.350 . S
C819 N827 1.427 . S
C820 H811 0.930 . S
C820 C818 1.378 . S
C820 C821 1.367 1_554 S
C821 C820 1.367 1_556 S
C821 C823 1.433 . S
C822 C818 1.350 . S
C822 C819 1.463 . S
C822 N826 1.427 1_554 S
C823 H813 0.929 . S
C823 C821 1.433 . S
C823 N826 1.384 . S
C824 H815 0.929 . S
C824 C816 1.378 . S
C824 C819 1.350 . S
C825 H812 0.929 . S
C825 C817 1.433 . S
C825 N827 1.384 . S
N826 C822 1.427 1_556 S
N826 C823 1.384 . S
N827 C819 1.427 . S
N827 C825 1.384 . S
H828 C834 0.930 . S
H829 C838 0.930 . S
H830 C843 0.929 . S
H831 C841 0.929 . S
H832 C836 0.929 . S
H833 C842 0.929 . S
C834 H828 0.930 . S
C834 C835 1.367 . S
C834 C842 1.378 . S
C835 C834 1.367 . S
C835 C843 1.433 . S
C836 H832 0.929 . S
C836 C838 1.378 . S
C836 C840 1.350 . S
C837 C840 1.463 . S
C837 C842 1.350 . S
C837 N845 1.427 . S
C838 H829 0.930 . S
C838 C836 1.378 . S
C838 C839 1.367 . S
C839 C838 1.367 . S
C839 C841 1.433 . S
C840 C836 1.350 . S
C840 C837 1.463 . S
C840 N844 1.427 . S
C841 H831 0.929 . S
C841 C839 1.433 . S
C841 N844 1.384 . S
C842 H833 0.929 . S
C842 C834 1.378 . S
C842 C837 1.350 . S
C843 H830 0.929 . S
C843 C835 1.433 . S
C843 N845 1.384 . S
N844 C840 1.427 . S
N844 C841 1.384 . S
N845 C837 1.427 . S
N845 C843 1.384 . S
H846 C852 0.930 . S
H847 C856 0.930 . S
H848 C861 0.929 . S
H849 C859 0.929 . S
H850 C854 0.929 . S
H851 C860 0.929 . S
C852 H846 0.930 . S
C852 C853 1.367 . S
C852 C860 1.378 . S
C853 C852 1.367 . S
C853 C861 1.433 . S
C854 H850 0.929 . S
C854 C856 1.378 . S
C854 C858 1.350 . S
C855 C858 1.463 1_655 S
C855 C860 1.350 . S
C855 N863 1.427 . S
C856 H847 0.930 . S
C856 C854 1.378 . S
C856 C857 1.367 . S
C857 C856 1.367 . S
C857 C859 1.433 . S
C858 C854 1.350 . S
C858 C855 1.463 1_455 S
C858 N862 1.427 . S
C859 H849 0.929 . S
C859 C857 1.433 . S
C859 N862 1.384 . S
C860 H851 0.929 . S
C860 C852 1.378 . S
C860 C855 1.350 . S
C861 H848 0.929 . S
C861 C853 1.433 . S
C861 N863 1.384 . S
N862 C858 1.427 . S
N862 C859 1.384 . S
N863 C855 1.427 . S
N863 C861 1.384 . S
H864 C870 0.930 . S
H865 C874 0.930 . S
H866 C879 0.929 . S
H867 C877 0.929 . S
H868 C872 0.929 . S
H869 C878 0.929 . S
C870 H864 0.930 . S
C870 C871 1.367 . S
C870 C878 1.378 . S
C871 C870 1.367 . S
C871 C879 1.433 . S
C872 H868 0.929 . S
C872 C874 1.378 . S
C872 C876 1.350 . S
C873 C876 1.463 1_545 S
C873 C878 1.350 . S
C873 N881 1.427 . S
C874 H865 0.930 . S
C874 C872 1.378 . S
C874 C875 1.367 . S
C875 C874 1.367 . S
C875 C877 1.433 . S
C876 C872 1.350 . S
C876 C873 1.463 1_565 S
C876 N880 1.427 . S
C877 H867 0.929 . S
C877 C875 1.433 . S
C877 N880 1.384 . S
C878 H869 0.929 . S
C878 C870 1.378 . S
C878 C873 1.350 . S
C879 H866 0.929 . S
C879 C871 1.433 . S
C879 N881 1.384 . S
N880 C876 1.427 . S
N880 C877 1.384 . S
N881 C873 1.427 . S
N881 C879 1.384 . S
H882 C888 0.930 . S
H883 C892 0.930 . S
H884 C897 0.929 . S
H885 C895 0.929 . S
H886 C890 0.929 . S
H887 C896 0.929 . S
C888 H882 0.930 . S
C888 C889 1.367 . S
C888 C896 1.378 . S
C889 C888 1.367 . S
C889 C897 1.433 . S
C890 H886 0.929 . S
C890 C892 1.378 . S
C890 C894 1.350 . S
C891 C894 1.463 . S
C891 C896 1.350 . S
C891 N899 1.427 . S
C892 H883 0.930 . S
C892 C890 1.378 . S
C892 C893 1.367 . S
C893 C892 1.367 . S
C893 C895 1.433 . S
C894 C890 1.350 . S
C894 C891 1.463 . S
C894 N898 1.427 . S
C895 H885 0.929 . S
C895 C893 1.433 . S
C895 N898 1.384 . S
C896 H887 0.929 . S
C896 C888 1.378 . S
C896 C891 1.350 . S
C897 H884 0.929 . S
C897 C889 1.433 . S
C897 N899 1.384 . S
N898 C894 1.427 . S
N898 C895 1.384 . S
N899 C891 1.427 . S
N899 C897 1.384 . S
H900 C906 0.930 . S
H901 C910 0.930 . S
H902 C915 0.929 . S
H903 C913 0.929 . S
H904 C908 0.929 . S
H905 C914 0.929 . S
C906 H900 0.930 . S
C906 C907 1.367 . S
C906 C914 1.378 . S
C907 C906 1.367 . S
C907 C915 1.433 . S
C908 H904 0.929 . S
C908 C910 1.378 . S
C908 C912 1.350 . S
C909 C912 1.463 1_455 S
C909 C914 1.350 . S
C909 N917 1.427 . S
C910 H901 0.930 . S
C910 C908 1.378 . S
C910 C911 1.367 . S
C911 C910 1.367 . S
C911 C913 1.433 . S
C912 C908 1.350 . S
C912 C909 1.463 1_655 S
C912 N916 1.427 . S
C913 H903 0.929 . S
C913 C911 1.433 . S
C913 N916 1.384 . S
C914 H905 0.929 . S
C914 C906 1.378 . S
C914 C909 1.350 . S
C915 H902 0.929 . S
C915 C907 1.433 . S
C915 N917 1.384 . S
N916 C912 1.427 . S
N916 C913 1.384 . S
N917 C909 1.427 . S
N917 C915 1.384 . S
H918 C924 0.930 . S
H919 C928 0.930 . S
H920 C933 0.929 . S
H921 C931 0.929 . S
H922 C926 0.929 . S
H923 C932 0.929 . S
C924 H918 0.930 . S
C924 C925 1.367 1_554 S
C924 C932 1.378 . S
C925 C924 1.367 1_556 S
C925 C933 1.433 . S
C926 H922 0.929 . S
C926 C928 1.378 . S
C926 C930 1.350 1_556 S
C927 C930 1.463 1_546 S
C927 C932 1.350 1_556 S
C927 N935 1.427 . S
C928 H919 0.930 . S
C928 C926 1.378 . S
C928 C929 1.367 1_556 S
C929 C928 1.367 1_554 S
C929 C931 1.433 . S
C930 C926 1.350 1_554 S
C930 C927 1.463 1_564 S
C930 N934 1.427 . S
C931 H921 0.929 . S
C931 C929 1.433 . S
C931 N934 1.384 . S
C932 H923 0.929 . S
C932 C924 1.378 . S
C932 C927 1.350 1_554 S
C933 H920 0.929 . S
C933 C925 1.433 . S
C933 N935 1.384 . S
N934 C930 1.427 . S
N934 C931 1.384 . S
N935 C927 1.427 . S
N935 C933 1.384 . S
C403 N13 1.218 . S
C407 N2 1.217 . S
C421 N35 1.218 1_556 S
C425 N46 1.219 . S
C439 N68 1.216 . S
C443 N79 1.217 . S
C457 N112 1.210 . S
C461 N101 1.208 . S
C475 N145 1.214 1_554 S
C479 N134 1.213 . S
C493 N167 1.209 . S
C497 N178 1.210 . S
C511 N211 1.216 . S
C515 N200 1.215 1_554 S
C529 N244 1.216 . S
C533 N233 1.215 . S
C547 N266 1.215 . S
C551 N277 1.216 . S
C565 N310 1.213 1_556 S
C569 N299 1.212 . S
C583 N343 1.213 . S
C587 N332 1.212 . S
C601 N365 1.208 . S
C605 N376 1.209 . S
C619 C205 1.555 . S
C623 C7 1.550 . S
C637 C40 1.551 . S
C641 C238 1.551 . S
C655 C271 1.553 . S
C659 C73 1.560 . S
C673 C304 1.556 . S
C677 C106 1.561 . S
C691 C337 1.557 . S
C695 C139 1.551 . S
C709 C370 1.561 . S
C713 C172 1.559 . S
C727 C18 1.187 . S
C731 C348 1.194 . S
C745 C51 1.186 . S
C749 C381 1.190 . S
C763 C84 1.198 . S
C767 C216 1.194 . S
C781 C249 1.195 . S
C785 C117 1.189 . S
C799 C282 1.198 . S
C803 C150 1.194 . S
C817 C315 1.187 . S
C821 C183 1.186 . S
C835 C21 1.476 . S
C839 C318 1.476 . S
C853 C54 1.477 . S
C857 C351 1.475 . S
C871 C384 1.477 . S
C875 C87 1.475 . S
C889 C120 1.476 . S
C893 C219 1.475 . S
C907 C153 1.482 . S
C911 C252 1.479 . S
C925 C186 1.477 . S
C929 C285 1.475 . S
