# Generated by pormake.
# Topology wfa, (4)-cn, num edge types: 1
# Building blocks:
#     Node 0, Type 0, BuildingBlock: ESEHIV_clean_sbu_0, # of connection points: 4
#     Node 1, Type 0, BuildingBlock: ESEHIV_clean_sbu_0, # of connection points: 4
#     Node 2, Type 0, BuildingBlock: ESEHIV_clean_sbu_0, # of connection points: 4
#     Node 3, Type 0, BuildingBlock: ESEHIV_clean_sbu_0, # of connection points: 4
#     Node 4, Type 0, BuildingBlock: ESEHIV_clean_sbu_0, # of connection points: 4
#     Node 5, Type 0, BuildingBlock: ESEHIV_clean_sbu_0, # of connection points: 4
#     Node 6, Type 0, BuildingBlock: ESEHIV_clean_sbu_0, # of connection points: 4
#     Node 7, Type 0, BuildingBlock: ESEHIV_clean_sbu_0, # of connection points: 4
#     Node 8, Type 0, BuildingBlock: ESEHIV_clean_sbu_0, # of connection points: 4
#     Node 9, Type 0, BuildingBlock: ESEHIV_clean_sbu_0, # of connection points: 4
#     Node 10, Type 0, BuildingBlock: ESEHIV_clean_sbu_0, # of connection points: 4
#     Node 11, Type 0, BuildingBlock: ESEHIV_clean_sbu_0, # of connection points: 4
#     Node 12, Type 0, BuildingBlock: ESEHIV_clean_sbu_0, # of connection points: 4
#     Node 13, Type 0, BuildingBlock: ESEHIV_clean_sbu_0, # of connection points: 4
#     Node 14, Type 0, BuildingBlock: ESEHIV_clean_sbu_0, # of connection points: 4
#     Node 15, Type 0, BuildingBlock: ESEHIV_clean_sbu_0, # of connection points: 4
#     Edge 16, Type (0, 0), BuildingBlock: XIVTED_clean_linker_0, # of connection points: 2
#     Edge 17, Type (0, 0), BuildingBlock: XIVTED_clean_linker_0, # of connection points: 2
#     Edge 18, Type (0, 0), BuildingBlock: XIVTED_clean_linker_0, # of connection points: 2
#     Edge 19, Type (0, 0), BuildingBlock: XIVTED_clean_linker_0, # of connection points: 2
#     Edge 20, Type (0, 0), BuildingBlock: XIVTED_clean_linker_0, # of connection points: 2
#     Edge 21, Type (0, 0), BuildingBlock: XIVTED_clean_linker_0, # of connection points: 2
#     Edge 22, Type (0, 0), BuildingBlock: XIVTED_clean_linker_0, # of connection points: 2
#     Edge 23, Type (0, 0), BuildingBlock: XIVTED_clean_linker_0, # of connection points: 2
#     Edge 24, Type (0, 0), BuildingBlock: XIVTED_clean_linker_0, # of connection points: 2
#     Edge 25, Type (0, 0), BuildingBlock: XIVTED_clean_linker_0, # of connection points: 2
#     Edge 26, Type (0, 0), BuildingBlock: XIVTED_clean_linker_0, # of connection points: 2
#     Edge 27, Type (0, 0), BuildingBlock: XIVTED_clean_linker_0, # of connection points: 2
#     Edge 28, Type (0, 0), BuildingBlock: XIVTED_clean_linker_0, # of connection points: 2
#     Edge 29, Type (0, 0), BuildingBlock: XIVTED_clean_linker_0, # of connection points: 2
#     Edge 30, Type (0, 0), BuildingBlock: XIVTED_clean_linker_0, # of connection points: 2
#     Edge 31, Type (0, 0), BuildingBlock: XIVTED_clean_linker_0, # of connection points: 2
#     Edge 32, Type (0, 0), BuildingBlock: XIVTED_clean_linker_0, # of connection points: 2
#     Edge 33, Type (0, 0), BuildingBlock: XIVTED_clean_linker_0, # of connection points: 2
#     Edge 34, Type (0, 0), BuildingBlock: XIVTED_clean_linker_0, # of connection points: 2
#     Edge 35, Type (0, 0), BuildingBlock: XIVTED_clean_linker_0, # of connection points: 2
#     Edge 36, Type (0, 0), BuildingBlock: XIVTED_clean_linker_0, # of connection points: 2
#     Edge 37, Type (0, 0), BuildingBlock: XIVTED_clean_linker_0, # of connection points: 2
#     Edge 38, Type (0, 0), BuildingBlock: XIVTED_clean_linker_0, # of connection points: 2
#     Edge 39, Type (0, 0), BuildingBlock: XIVTED_clean_linker_0, # of connection points: 2
#     Edge 40, Type (0, 0), BuildingBlock: XIVTED_clean_linker_0, # of connection points: 2
#     Edge 41, Type (0, 0), BuildingBlock: XIVTED_clean_linker_0, # of connection points: 2
#     Edge 42, Type (0, 0), BuildingBlock: XIVTED_clean_linker_0, # of connection points: 2
#     Edge 43, Type (0, 0), BuildingBlock: XIVTED_clean_linker_0, # of connection points: 2
#     Edge 44, Type (0, 0), BuildingBlock: XIVTED_clean_linker_0, # of connection points: 2
#     Edge 45, Type (0, 0), BuildingBlock: XIVTED_clean_linker_0, # of connection points: 2
#     Edge 46, Type (0, 0), BuildingBlock: XIVTED_clean_linker_0, # of connection points: 2
#     Edge 47, Type (0, 0), BuildingBlock: XIVTED_clean_linker_0, # of connection points: 2
# Relax obj value: 0.146
# Max RMSD: 0.163
# Mean RMSD: 0.152
data_MOF--net-wfa--node1-ESEHIV_clean_sbu_0--edge1-XIVTED_clean_linker_0
_symmetry_space_group_name_H-M    P1
_symmetry_Int_Tables_number       1
_symmetry_cell_setting            triclinic
loop_
_symmetry_equiv_pos_as_xyz
'x, y, z'
_cell_length_a     52.325719
_cell_length_b     52.23646
_cell_length_c     22.966944
_cell_angle_alpha  88.204575
_cell_angle_beta   87.786549
_cell_angle_gamma 88.384685
loop_
_atom_site_label
_atom_site_type_symbol
_atom_site_fract_x
_atom_site_fract_y
_atom_site_fract_z
_atom_type_partial_charge
Cu0 Cu 0.67431 0.99058 0.05022 0.0
N1 N 0.65418 0.97137 0.1045 0.0
N2 N 0.62138 0.9724 0.17095 0.0
C3 C 0.6297 0.9789 0.11637 0.0
C4 C 0.64136 0.9594 0.1944 0.0
C5 C 0.66152 0.95881 0.15345 0.0
O6 O 0.64789 1.01177 0.01164 0.0
C7 C 0.71846 0.99396 0.11133 0.0
O8 O 0.72033 0.97033 0.09349 0.0
H9 H 0.61955 0.99259 0.08941 0.0
H10 H 0.68098 0.95269 0.1618 0.0
N11 N 0.69354 0.97226 0.993 0.0
N12 N 0.72234 0.96587 0.91923 0.0
C13 C 0.70972 0.98325 0.95301 0.0
C14 C 0.69592 0.94693 0.98439 0.0
C15 C 0.71366 0.94293 0.93902 0.0
C16 C 0.63577 1.00134 0.97162 0.0
O17 O 0.64692 0.98199 0.94466 0.0
H18 H 0.71262 1.00369 0.95001 0.0
H19 H 0.68577 0.9324 1.00981 0.0
O20 O 0.69912 1.00794 0.09685 0.0
H21 H 0.64231 0.9531 0.23963 0.0
H22 H 0.71959 0.92454 0.92192 0.0
Cu23 Cu 0.55194 0.65725 0.07547 0.0
N24 N 0.57365 0.63621 0.12123 0.0
N25 N 0.57503 0.60108 0.18066 0.0
C26 C 0.56941 0.61089 0.12744 0.0
C27 C 0.58474 0.62088 0.20826 0.0
C28 C 0.58381 0.64243 0.17173 0.0
O29 O 0.5284 0.63138 0.04778 0.0
C30 C 0.55475 0.70276 0.13414 0.0
O31 O 0.57714 0.70131 0.10641 0.0
H32 H 0.55845 0.60078 0.0974 0.0
H33 H 0.58677 0.6618 0.1847 0.0
N34 N 0.56808 0.67375 1.01022 0.0
N35 N 0.57361 0.70035 0.93223 0.0
C36 C 0.55742 0.69242 0.9761 0.0
C37 C 0.59189 0.66986 0.98753 0.0
C38 C 0.59532 0.68612 0.93944 0.0
C39 C 0.53463 0.61955 1.00093 0.0
O40 O 0.55076 0.63041 0.96328 0.0
H41 H 0.53801 0.69971 0.98291 0.0
H42 H 0.60571 0.65609 1.00465 0.0
O43 O 0.53891 0.68488 0.12743 0.0
H44 H 0.58941 0.62066 0.25376 0.0
H45 H 0.61261 0.6875 0.91224 0.0
Cu46 Cu 0.87331 0.54341 0.0324 0.0
N47 N 0.88578 0.51194 0.0618 0.0
N48 N 0.91271 0.48285 0.10122 0.0
C49 C 0.90865 0.50776 0.08584 0.0
C50 C 0.89149 0.47092 0.08597 0.0
C51 C 0.87493 0.48892 0.06163 0.0
O52 O 0.90415 0.56473 0.02778 0.0
C53 C 0.84592 0.55107 0.14098 0.0
O54 O 0.86589 0.53865 0.16188 0.0
H55 H 0.92217 0.52273 0.09122 0.0
H56 H 0.85634 0.4855 0.04483 0.0
N57 N 0.86021 0.53712 0.95882 0.0
N58 N 0.83499 0.53357 0.88261 0.0
C59 C 0.83727 0.54345 0.93608 0.0
C60 C 0.87238 0.52236 0.91895 0.0
C61 C 0.85713 0.52037 0.87199 0.0
C62 C 0.91794 0.56909 0.98151 0.0
O63 O 0.90923 0.56321 0.93095 0.0
H64 H 0.8226 0.55497 0.95817 0.0
H65 H 0.89106 0.51335 0.92417 0.0
O66 O 0.84568 0.55619 0.0862 0.0
H67 H 0.88796 0.45071 0.09269 0.0
H68 H 0.86175 0.50951 0.83343 0.0
Cu69 Cu 0.99637 0.88732 0.06589 0.0
N70 N 0.02797 0.89953 0.08585 0.0
N71 N 0.05689 0.92614 0.11688 0.0
C72 C 0.03187 0.9223 0.10936 0.0
C73 C 0.06928 0.90495 0.09693 0.0
C74 C 0.05135 0.88855 0.07777 0.0
O75 O 0.97427 0.91802 0.05732 0.0
C76 C 0.99284 0.86009 0.17594 0.0
O77 O 1.00911 0.87708 0.19142 0.0
H78 H 1.01669 0.93598 0.12001 0.0
H79 H 0.05507 0.86999 0.0591 0.0
N80 N 1.00128 0.87188 0.99364 0.0
N81 N 1.00363 0.84327 0.92278 0.0
C82 C 0.99523 0.84816 0.97799 0.0
C83 C 1.01382 0.8823 0.94691 0.0
C84 C 1.0153 0.86478 0.90325 0.0
C85 C 0.96555 0.93043 0.10104 0.0
O86 O 0.96798 0.92012 0.15353 0.0
H87 H 0.98545 0.83459 1.00695 0.0
H88 H 0.02167 0.90126 0.94513 0.0
O89 O 0.98416 0.86179 0.12472 0.0
H90 H 0.08975 0.90134 0.09705 0.0
H91 H 0.02412 0.86777 0.86026 0.0
Cu92 Cu 0.18071 1.00521 0.47774 0.0
N93 N 0.16611 0.03238 0.43483 0.0
N94 N 0.14179 0.04414 0.36007 0.0
C95 C 0.14378 0.02953 0.40912 0.0
C96 C 0.1635 0.05753 0.35568 0.0
C97 C 0.17842 0.05035 0.40209 0.0
O98 O 0.1518 0.98179 0.49145 0.0
C99 C 0.22998 1.00618 0.42628 0.0
O100 O 0.2312 0.02487 0.46291 0.0
H101 H 0.13131 1.0138 0.42009 0.0
H102 H 0.19818 0.05517 0.40652 0.0
N103 N 0.1931 1.01622 0.54826 0.0
N104 N 0.21674 1.01905 0.62705 0.0
C105 C 0.21158 1.005 0.5806 0.0
C106 C 0.18637 0.03804 0.57506 0.0
C107 C 0.20079 0.0398 0.62365 0.0
C108 C 0.13718 0.98365 0.53717 0.0
O109 O 0.1445 0.99749 0.57992 0.0
H110 H 0.22128 0.98712 0.56967 0.0
H111 H 0.17227 0.05193 0.55963 0.0
O112 O 0.20961 0.99318 0.42689 0.0
H113 H 0.16952 0.06916 0.31804 0.0
H114 H 0.20014 0.05561 0.65305 0.0
Cu115 Cu 0.51955 0.15975 0.43999 0.0
N116 N 0.49959 0.13951 0.39307 0.0
N117 N 0.50281 0.10426 0.33847 0.0
C118 C 0.50416 0.11393 0.39219 0.0
C119 C 0.49508 0.12429 0.30451 0.0
C120 C 0.4932 0.14589 0.33803 0.0
O121 O 0.54293 0.13304 0.47385 0.0
C122 C 0.51686 0.20522 0.37511 0.0
O123 O 0.49389 0.20406 0.4 0.0
H124 H 0.51222 0.10318 0.42807 0.0
H125 H 0.49153 0.16533 0.32078 0.0
N126 N 0.50226 0.17721 0.50173 0.0
N127 N 0.49547 0.20512 0.57395 0.0
C128 C 0.51234 0.19571 0.5332 0.0
C129 C 0.47811 0.17491 0.52299 0.0
C130 C 0.47391 0.19196 0.56745 0.0
C131 C 0.53566 0.12103 0.52101 0.0
O132 O 0.51838 0.13221 0.55528 0.0
H133 H 0.5318 0.20196 0.52644 0.0
H134 H 0.46449 0.16184 0.5071 0.0
O135 O 0.53314 0.18706 0.38613 0.0
H136 H 0.49461 0.12421 0.25743 0.0
H137 H 0.45612 0.19467 0.59238 0.0
Cu138 Cu 0.37743 0.53003 0.41597 0.0
N139 N 0.39886 0.50562 0.37797 0.0
N140 N 0.4366 0.49643 0.33175 0.0
C141 C 0.42459 0.50639 0.37935 0.0
C142 C 0.41753 0.48784 0.30014 0.0
C143 C 0.39439 0.49359 0.32852 0.0
O144 O 0.4026 0.55578 0.43437 0.0
C145 C 0.33333 0.5238 0.35568 0.0
O146 O 0.33533 0.50218 0.38618 0.0
H147 H 0.43422 0.5172 0.41053 0.0
H148 H 0.37576 0.492 0.31042 0.0
N149 N 0.36127 0.51681 0.48505 0.0
N150 N 0.33516 0.51308 0.5648 0.0
C151 C 0.34239 0.52805 0.51808 0.0
C152 C 0.36601 0.49394 0.5114 0.0
C153 C 0.35006 0.49159 0.56039 0.0
C154 C 0.41473 0.55298 0.48162 0.0
O155 O 0.40435 0.53925 0.52467 0.0
H156 H 0.33436 0.54694 0.50828 0.0
H157 H 0.38006 0.47991 0.49591 0.0
O158 O 0.35033 0.54056 0.36164 0.0
H159 H 0.41986 0.48025 0.25691 0.0
H160 H 0.3493 0.47507 0.58995 0.0
Cu161 Cu 1.00899 0.37947 0.51228 0.0
N162 N 0.0332 0.38633 0.45261 0.0
N163 N 0.03807 0.40213 0.36118 0.0
C164 C 0.02879 0.40632 0.41567 0.0
C165 C 0.04966 0.37873 0.36426 0.0
C166 C 0.04669 0.36905 0.42077 0.0
O167 O 0.99372 0.41332 0.5287 0.0
C168 C 0.99531 0.33135 0.4787 0.0
O169 O 1.01574 0.32527 0.50812 0.0
H170 H 1.01495 0.42149 0.42571 0.0
H171 H 0.05061 0.34944 0.43491 0.0
N172 N 0.02256 0.36465 0.58034 0.0
N173 N 0.02458 0.34113 0.66331 0.0
C174 C 1.00935 0.35091 0.62149 0.0
C175 C 0.04698 0.36361 0.59671 0.0
C176 C 0.04826 0.34925 0.64807 0.0
C177 C 1.00813 0.42875 0.55334 0.0
O178 O 0.03003 0.41987 0.57281 0.0
H179 H 0.98903 0.34775 0.62002 0.0
H180 H 0.06279 0.37221 0.57231 0.0
O181 O 0.98718 0.35465 0.47721 0.0
H182 H 0.05695 0.36815 0.3271 0.0
H183 H 0.06544 0.34441 0.67127 0.0
Cu184 Cu 0.40492 1.01223 0.95818 0.0
N185 N 0.42337 0.03656 0.91275 0.0
N186 N 0.45764 0.04491 0.85362 0.0
C187 C 0.44898 0.03429 0.90472 0.0
C188 C 0.43651 0.05536 0.82929 0.0
C189 C 0.41547 0.05013 0.86566 0.0
O190 O 0.43191 0.98672 0.97706 0.0
C191 C 0.35784 1.0157 0.90728 0.0
O192 O 0.35751 0.03696 0.9364 0.0
H193 H 0.46061 1.02189 0.93162 0.0
H194 H 0.39568 0.05318 0.85476 0.0
N195 N 0.38961 0.02523 0.02717 0.0
N196 N 0.36467 0.02793 0.10861 0.0
C197 C 0.37164 1.01373 0.06203 0.0
C198 C 0.39403 0.04751 0.05223 0.0
C199 C 0.37879 0.04919 0.10245 0.0
C200 C 0.44503 0.98972 0.02206 0.0
O201 O 0.43466 1.00291 0.06501 0.0
H202 H 0.36412 0.99517 0.05369 0.0
H203 H 0.40746 0.06149 0.03522 0.0
O204 O 0.37746 1.00066 0.91007 0.0
H205 H 0.43585 0.06394 0.78586 0.0
H206 H 0.37798 0.06503 0.1318 0.0
Cu207 Cu 0.51394 0.38921 0.92479 0.0
N208 N 0.48965 0.41122 0.88857 0.0
N209 N 0.48293 0.44842 0.8382 0.0
C210 C 0.49252 0.43685 0.88637 0.0
C211 C 0.47223 0.42929 0.81015 0.0
C212 C 0.47648 0.40649 0.84102 0.0
O213 O 0.53985 0.41444 0.94378 0.0
C214 C 0.50619 0.34482 0.86486 0.0
O215 O 0.48537 0.34681 0.89841 0.0
H216 H 0.5047 0.44634 0.91487 0.0
H217 H 0.47321 0.38759 0.82543 0.0
N218 N 0.50164 0.37252 0.99424 0.0
N219 N 0.49977 0.34579 0.07299 0.0
C220 C 0.51348 0.35319 0.02437 0.0
C221 C 0.47961 0.37733 0.02447 0.0
C222 C 0.47844 0.36101 0.07293 0.0
C223 C 0.53732 0.42603 0.99221 0.0
O224 O 0.52432 0.41484 0.03541 0.0
H225 H 0.532 0.34506 0.01133 0.0
H226 H 0.46545 0.3918 0.01225 0.0
O227 O 0.52308 0.36197 0.86834 0.0
H228 H 0.46424 0.43105 0.76741 0.0
H229 H 0.46288 0.3603 0.10533 0.0
Cu230 Cu 0.14832 0.54481 0.93282 0.0
N231 N 0.12827 0.51932 0.90316 0.0
N232 N 0.09199 0.50794 0.86276 0.0
C233 C 0.10253 0.52125 0.90477 0.0
C234 C 0.11206 0.49617 0.8349 0.0
C235 C 0.13436 0.50327 0.85973 0.0
O236 O 0.12249 0.573 0.94172 0.0
C237 C 0.19467 0.53382 0.87271 0.0
O238 O 0.19346 0.51413 0.90965 0.0
H239 H 0.09193 0.53485 0.93119 0.0
H240 H 0.15357 0.49937 0.84273 0.0
N241 N 0.16179 0.53397 1.00502 0.0
N242 N 0.18754 0.52736 0.08064 0.0
C243 C 0.18375 0.54048 0.02959 0.0
C244 C 0.15136 0.51633 0.0418 0.0
C245 C 0.16698 0.51233 0.08826 0.0
C246 C 0.10878 0.5751 0.98882 0.0
O247 O 0.11709 0.56393 0.03673 0.0
H248 H 0.19704 0.5539 1.00945 0.0
H249 H 0.13364 0.50689 0.03498 0.0
O250 O 0.17669 0.5509 0.87508 0.0
H251 H 0.11102 0.48516 0.79598 0.0
H252 H 0.16332 0.49925 0.12488 0.0
Cu253 Cu 0.99045 0.16325 0.03411 0.0
N254 N 1.01886 0.14983 0.99292 0.0
N255 N 0.03352 0.13026 0.91268 0.0
C256 C 1.01622 0.13013 0.95761 0.0
C257 C 0.04819 0.15058 0.92075 0.0
C258 C 0.03923 0.16253 0.97064 0.0
O259 O 0.96696 0.1344 0.03985 0.0
C260 C 0.99292 0.213 0.98787 0.0
O261 O 1.01051 0.21358 0.02702 0.0
H262 H 0.9993 0.11865 0.9589 0.0
H263 H 0.04494 0.18102 0.98459 0.0
N264 N 0.99889 0.17389 0.10799 0.0
N265 N 0.9985 0.19558 0.1905 0.0
C266 C 0.98728 0.19266 0.13921 0.0
C267 C 1.01808 0.16464 0.14055 0.0
C268 C 1.01782 0.1779 0.19155 0.0
C269 C 0.9631 0.12124 0.08699 0.0
O270 O 0.97049 0.1302 0.1362 0.0
H271 H 0.97099 0.20397 0.12444 0.0
H272 H 0.03138 0.14941 0.12783 0.0
O273 O 0.9797 0.1929 0.98544 0.0
H274 H 0.06227 0.158 0.88929 0.0
H275 H 0.03123 0.17515 0.22608 0.0
Cu276 Cu 0.90043 1.00416 0.53115 0.0
N277 N 0.91071 0.03584 0.5559 0.0
N278 N 0.93484 0.06323 0.60099 0.0
C279 C 0.926 0.03918 0.6006 0.0
C280 C 0.92414 0.07564 0.55511 0.0
C281 C 0.90936 0.05867 0.52729 0.0
O282 O 0.93296 0.98441 0.5225 0.0
C283 C 0.85585 1.00504 0.60275 0.0
O284 O 0.85405 0.02784 0.57716 0.0
H285 H 0.93118 0.02395 0.63103 0.0
H286 H 0.89954 0.06233 0.48717 0.0
N287 N 0.88715 1.00914 0.45656 0.0
N288 N 0.86265 1.01272 0.37843 0.0
C289 C 0.86328 1.00721 0.43654 0.0
C290 C 0.90182 1.01625 0.40987 0.0
C291 C 0.88692 1.01848 0.36198 0.0
C292 C 0.94611 0.97595 0.56499 0.0
O293 O 0.93553 0.97583 0.61782 0.0
H294 H 0.84691 1.00148 0.46361 0.0
H295 H 0.92209 1.01968 0.41083 0.0
O296 O 0.87489 0.99041 0.58841 0.0
H297 H 0.92774 0.09515 0.54062 0.0
H298 H 0.89349 0.02414 0.31833 0.0
Cu299 Cu 0.55368 0.88567 0.56249 0.0
N300 N 0.5788 0.90318 0.60131 0.0
N301 N 0.58467 0.93612 0.66015 0.0
C302 C 0.57597 0.92862 0.60896 0.0
C303 C 0.59503 0.91454 0.68443 0.0
C304 C 0.59136 0.89437 0.64831 0.0
O305 O 0.52936 0.91434 0.54392 0.0
C306 C 0.55765 0.83876 0.62187 0.0
O307 O 0.57819 0.8383 0.58713 0.0
H308 H 0.56393 0.94073 0.58252 0.0
H309 H 0.59424 0.87434 0.66011 0.0
N310 N 0.56557 0.86961 0.49326 0.0
N311 N 0.56775 0.84327 0.41731 0.0
C312 C 0.55389 0.85105 0.46497 0.0
C313 C 0.58762 0.87354 0.46273 0.0
C314 C 0.58897 0.8575 0.41598 0.0
C315 C 0.53401 0.92838 0.49813 0.0
O316 O 0.54859 0.91859 0.4562 0.0
H317 H 0.53555 0.84349 0.47908 0.0
H318 H 0.60179 0.88706 0.4739 0.0
O319 O 0.54238 0.85831 0.61855 0.0
H320 H 0.60207 0.91275 0.72809 0.0
H321 H 0.60467 0.85613 0.38408 0.0
Cu322 Cu 0.64642 0.56162 0.54822 0.0
N323 N 0.62604 0.58164 0.59982 0.0
N324 N 0.59288 0.58128 0.66555 0.0
C325 C 0.60143 0.57552 0.6112 0.0
C326 C 0.61283 0.59258 0.68902 0.0
C327 C 0.6332 0.5927 0.64861 0.0
O328 O 0.62016 0.5409 0.51371 0.0
C329 C 0.69121 0.55727 0.60935 0.0
O330 O 0.69285 0.58061 0.58691 0.0
H331 H 0.59129 0.5633 0.58391 0.0
H332 H 0.65266 0.5973 0.65742 0.0
N333 N 0.66498 0.57933 0.48781 0.0
N334 N 0.69451 0.58578 0.41536 0.0
C335 C 0.68445 0.5689 0.45528 0.0
C336 C 0.66264 0.60376 0.46794 0.0
C337 C 0.6807 0.60774 0.42312 0.0
C338 C 0.60756 0.55121 0.47192 0.0
O339 O 0.61757 0.57068 0.44258 0.0
H340 H 0.69103 0.54918 0.46085 0.0
H341 H 0.64882 0.61769 0.48488 0.0
O342 O 0.67197 0.54398 0.59765 0.0
H343 H 0.61363 0.59799 0.73399 0.0
H344 H 0.68374 0.6256 0.39899 0.0
Cu345 Cu 0.97589 0.66091 0.5806 0.0
N346 N 0.95404 0.63927 0.62394 0.0
N347 N 0.95382 0.60341 0.68022 0.0
C348 C 0.96323 0.62707 0.6716 0.0
C349 C 0.9374 0.60083 0.63707 0.0
C350 C 0.93753 0.62295 0.6025 0.0
O351 O 1.00025 0.63522 0.5504 0.0
C352 C 0.97287 0.69672 0.66627 0.0
O353 O 0.94861 0.69177 0.66074 0.0
H354 H 0.97995 0.63344 0.69281 0.0
H355 H 0.92949 0.62502 0.55993 0.0
N356 N 0.96041 0.68028 0.52036 0.0
N357 N 0.9555 0.7103 0.44919 0.0
C358 C 0.97165 0.69902 0.48756 0.0
C359 C 0.93625 0.67978 0.50247 0.0
C360 C 0.93321 0.69811 0.45847 0.0
C361 C 0.99179 0.62074 0.51215 0.0
O362 O 0.97205 0.62905 0.48263 0.0
H363 H 0.99131 0.70428 0.49202 0.0
H364 H 0.92167 0.66735 0.52081 0.0
O365 O 0.98955 0.6849 0.63437 0.0
H366 H 0.92841 0.58316 0.62709 0.0
H367 H 0.91569 0.70261 0.4363 0.0
H368 H 0.54766 0.08559 0.37717 0.0
H369 H 0.57534 0.9863 0.12717 0.0
H370 H 0.49174 0.07284 0.24985 0.0
H371 H 0.61855 0.9884 0.28286 0.0
H372 H 0.54326 1.01585 0.17099 0.0
H373 H 0.57253 0.04864 0.34412 0.0
C374 C 0.54009 0.07433 0.34374 0.0
C375 C 0.51692 0.08168 0.31855 0.0
C376 C 0.55952 1.00949 0.19594 0.0
C377 C 0.54652 0.03989 0.2764 0.0
C378 C 0.57786 0.99263 0.17095 0.0
C379 C 0.5999 0.98501 0.20101 0.0
C380 C 0.56331 1.01902 0.25138 0.0
C381 C 0.60197 0.99357 0.25794 0.0
C382 C 0.5546 0.05342 0.32383 0.0
C383 C 0.50926 0.06761 0.2713 0.0
N384 N 0.58417 1.01033 0.28077 0.0
N385 N 0.52411 0.04746 0.25147 0.0
H386 H 0.47737 0.50533 0.39793 0.0
H387 H 0.56351 0.55737 0.12697 0.0
H388 H 0.45546 0.50142 0.21917 0.0
H389 H 0.55914 0.59277 0.29446 0.0
H390 H 0.53425 0.52456 0.16563 0.0
H391 H 0.51757 0.52462 0.36363 0.0
C392 C 0.48103 0.50821 0.35152 0.0
C393 C 0.46248 0.50226 0.31163 0.0
C394 C 0.54005 0.53937 0.19393 0.0
C395 C 0.50861 0.52438 0.27245 0.0
C396 C 0.55678 0.55808 0.17206 0.0
C397 C 0.56343 0.57838 0.20691 0.0
C398 C 0.53011 0.54066 0.25135 0.0
C399 C 0.55461 0.57773 0.26561 0.0
C400 C 0.50398 0.51928 0.33214 0.0
C401 C 0.46887 0.50579 0.25184 0.0
N402 N 0.53816 0.55943 0.28569 0.0
N403 N 0.4912 0.51694 0.23416 0.0
H404 H 0.93006 0.43324 0.09896 0.0
H405 H 0.03132 0.45304 0.34322 0.0
H406 H 0.94585 0.50667 0.16864 0.0
H407 H 1.01994 0.38044 0.26557 0.0
H408 H 1.0041 0.47396 0.27056 0.0
H409 H 0.96583 0.41421 0.15213 0.0
C410 C 0.94102 0.44539 0.12534 0.0
C411 C 0.93468 0.47159 0.12964 0.0
C412 C 1.00793 0.45353 0.26855 0.0
C413 C 0.97592 0.44993 0.19037 0.0
C414 C 0.02361 0.44166 0.30976 0.0
C415 C 0.02788 0.41503 0.31041 0.0
C416 C 0.99608 0.43859 0.22804 0.0
C417 C 1.01735 0.40104 0.26636 0.0
C418 C 0.96161 0.43454 0.15535 0.0
C419 C 0.95 0.48645 0.16363 0.0
N420 N 1.00159 0.41293 0.22756 0.0
N421 N 0.9697 0.47538 0.19302 0.0
H422 H 0.10468 0.94453 0.09759 0.0
H423 H 0.09121 0.03613 0.36617 0.0
H424 H 0.03384 0.95766 0.19594 0.0
H425 H 0.15749 0.03411 0.24919 0.0
H426 H 0.06801 1.01159 0.29724 0.0
H427 H 0.12326 0.98008 0.14679 0.0
C428 C 0.09301 0.95491 0.12937 0.0
C429 C 0.06773 0.94792 0.14297 0.0
C430 C 0.08742 1.01703 0.28579 0.0
C431 C 0.08878 0.98876 0.19919 0.0
C432 C 0.10051 0.03124 0.32491 0.0
C433 C 0.1262 0.03714 0.31324 0.0
C434 C 0.1003 1.00823 0.23512 0.0
C435 C 0.13763 0.03013 0.25956 0.0
C436 C 0.10354 0.97537 0.15706 0.0
C437 C 0.05335 0.96239 0.18377 0.0
N438 N 0.12477 1.01558 0.22298 0.0
N439 N 0.06415 0.9819 0.21084 0.0
H440 H 0.50256 0.03243 0.90474 0.0
H441 H 0.57036 0.98215 0.61063 0.0
H442 H 0.4689 0.04171 0.7365 0.0
H443 H 0.57675 0.94265 0.7776 0.0
H444 H 0.54362 1.01537 0.65762 0.0
H445 H 0.54 1.01124 0.85806 0.0
C446 C 0.50309 0.03032 0.85798 0.0
C447 C 0.48202 0.03825 0.82497 0.0
C448 C 0.55126 0.99959 0.68389 0.0
C449 C 0.52516 1.01435 0.77137 0.0
C450 C 0.56652 0.98056 0.65722 0.0
C451 C 0.57522 0.95891 0.68959 0.0
C452 C 0.54511 0.99739 0.74374 0.0
C453 C 0.57035 0.95861 0.75034 0.0
C454 C 0.5245 1.01824 0.8315 0.0
C455 C 0.48438 0.03578 0.76412 0.0
N456 N 0.55537 0.97735 0.77525 0.0
N457 N 0.50537 0.02377 0.73942 0.0
H458 H 0.58622 0.56899 0.78207 0.0
H459 H 0.48671 0.46416 0.72327 0.0
H460 H 0.5491 0.56624 0.61788 0.0
H461 H 0.49772 0.4897 0.89724 0.0
H462 H 0.50837 0.50201 0.68395 0.0
H463 H 0.55348 0.54126 0.82622 0.0
C464 C 0.57101 0.56305 0.75538 0.0
C465 C 0.57097 0.5696 0.69547 0.0
C466 C 0.50575 0.4995 0.73077 0.0
C467 C 0.53364 0.53712 0.74589 0.0
C468 C 0.49319 0.47784 0.75344 0.0
C469 C 0.49082 0.47314 0.81405 0.0
C470 C 0.51643 0.51651 0.76873 0.0
C471 C 0.49982 0.49191 0.85035 0.0
C472 C 0.55232 0.54703 0.7807 0.0
C473 C 0.55053 0.56107 0.66362 0.0
N474 N 0.51266 0.51241 0.82727 0.0
N475 N 0.53309 0.5449 0.68879 0.0
H476 H 0.96821 0.55607 0.64343 0.0
H477 H 0.04958 0.52406 0.92519 0.0
H478 H 0.96952 0.60514 0.79049 0.0
H479 H 0.07568 0.50361 0.75167 0.0
H480 H 1.01023 0.54218 0.88501 0.0
H481 H 0.99785 0.52588 0.69239 0.0
C482 C 0.97411 0.56009 0.68679 0.0
C483 C 0.96648 0.58314 0.71307 0.0
C484 C 0.02449 0.53341 0.85601 0.0
C485 C 1.00016 0.54877 0.76913 0.0
C486 C 0.04699 0.52303 0.87881 0.0
C487 C 0.06651 0.51288 0.84171 0.0
C488 C 1.0212 0.53343 0.79574 0.0
C489 C 0.06148 0.5114 0.78214 0.0
C490 C 0.99115 0.54298 0.71441 0.0
C491 C 0.97502 0.5876 0.76888 0.0
N492 N 0.03948 0.5219 0.7609 0.0
N493 N 0.99149 0.57065 0.79497 0.0
H494 H 0.02622 0.08036 0.89602 0.0
H495 H 0.94577 0.11306 0.61929 0.0
H496 H 0.02793 0.15426 0.80786 0.0
H497 H 0.96736 0.03531 0.67017 0.0
H498 H 0.97647 0.12853 0.68643 0.0
H499 H 1.00627 0.06285 0.81158 0.0
C500 C 0.02314 0.09262 0.85787 0.0
C501 C 0.02887 0.11863 0.85843 0.0
C502 C 0.97459 0.10807 0.6824 0.0
C503 C 1.00512 0.09924 0.76297 0.0
C504 C 0.95699 0.09918 0.64404 0.0
C505 C 0.95348 0.07276 0.63928 0.0
C506 C 0.98862 0.09047 0.71687 0.0
C507 C 0.96867 0.05582 0.6731 0.0
C508 C 1.01159 0.08275 0.80996 0.0
C509 C 0.02411 0.134 0.80861 0.0
N510 N 0.98531 0.06497 0.7108 0.0
N511 N 1.01202 0.1242 0.76327 0.0
H512 H 0.72792 1.00983 0.85372 0.0
H513 H 0.85223 0.95974 0.66899 0.0
H514 H 0.76035 0.93354 0.87734 0.0
H515 H 0.81437 0.03335 0.64172 0.0
H516 H 0.81959 0.94932 0.74564 0.0
H517 H 0.76026 1.01845 0.77696 0.0
C518 C 0.7419 0.99487 0.84311 0.0
C519 C 0.74129 0.97092 0.87266 0.0
C520 C 0.81845 0.96772 0.72269 0.0
C521 C 0.77868 0.98068 0.78346 0.0
C522 C 0.83709 0.97367 0.67888 0.0
C523 C 0.83617 0.99749 0.6486 0.0
C524 C 0.79878 0.98573 0.73653 0.0
C525 C 0.81603 1.01475 0.66359 0.0
C526 C 0.76037 0.99978 0.7988 0.0
C527 C 0.75982 0.95222 0.8557 0.0
N528 N 0.79833 1.00857 0.70626 0.0
N529 N 0.77776 0.95751 0.81251 0.0
H530 H 0.52991 0.83769 0.7281 0.0
H531 H 0.59535 0.70249 0.82311 0.0
H532 H 0.57921 0.79113 0.61703 0.0
H533 H 0.54075 0.74205 0.93606 0.0
H534 H 0.58832 0.73519 0.74723 0.0
H535 H 0.53146 0.80318 0.80415 0.0
C536 C 0.54068 0.82013 0.7193 0.0
C537 C 0.55458 0.81744 0.66612 0.0
C538 C 0.57775 0.73682 0.78847 0.0
C539 C 0.55672 0.77812 0.75292 0.0
C540 C 0.58193 0.71813 0.83216 0.0
C541 C 0.56881 0.71948 0.88648 0.0
C542 C 0.56039 0.7574 0.79872 0.0
C543 C 0.55122 0.74011 0.89484 0.0
C544 C 0.5417 0.80051 0.76282 0.0
C545 C 0.56838 0.7943 0.65741 0.0
N546 N 0.54765 0.75833 0.85166 0.0
N547 N 0.5692 0.77579 0.70018 0.0
H548 H 0.83807 0.53646 0.76496 0.0
H549 H 0.68696 0.53356 0.71857 0.0
H550 H 0.7837 0.53602 0.91076 0.0
H551 H 0.74206 0.56162 0.58948 0.0
H552 H 0.72181 0.52666 0.78762 0.0
H553 H 0.8028 0.53855 0.69843 0.0
C554 C 0.81865 0.53674 0.78302 0.0
C555 C 0.81389 0.53608 0.84362 0.0
C556 C 0.72623 0.53401 0.7439 0.0
C557 C 0.77308 0.53832 0.76717 0.0
C558 C 0.70645 0.53759 0.70433 0.0
C559 C 0.71173 0.54791 0.64808 0.0
C560 C 0.75142 0.54045 0.72656 0.0
C561 C 0.73719 0.55347 0.63229 0.0
C562 C 0.79847 0.538 0.74495 0.0
C563 C 0.78823 0.53675 0.86438 0.0
N564 N 0.75599 0.54964 0.67109 0.0
N565 N 0.76876 0.5377 0.82624 0.0
H566 H 0.96579 0.80875 0.93678 0.0
H567 H 1.0186 0.72143 0.67401 0.0
H568 H 0.03479 0.82494 0.83511 0.0
H569 H 0.94283 0.71665 0.75398 0.0
H570 H 0.02768 0.75583 0.74039 0.0
H571 H 0.95998 0.77117 0.87827 0.0
C572 C 0.97985 0.8043 0.90254 0.0
C573 C 1.00069 0.82022 0.89066 0.0
C574 C 1.00912 0.74712 0.74347 0.0
C575 C 0.9941 0.77717 0.82303 0.0
C576 C 1.00398 0.72743 0.70576 0.0
C577 C 0.97987 0.71624 0.70812 0.0
C578 C 0.9901 0.75544 0.78416 0.0
C579 C 0.96162 0.72483 0.75013 0.0
C580 C 0.97645 0.7829 0.86884 0.0
C581 C 1.0182 0.81352 0.84524 0.0
N582 N 0.96709 0.74385 0.78628 0.0
N583 N 1.0145 0.79257 0.81308 0.0
H584 H 0.26174 0.99161 0.61385 0.0
H585 H 0.30926 0.03402 0.92258 0.0
H586 H 0.21618 0.03527 0.73807 0.0
H587 H 0.35628 0.98695 0.80794 0.0
H588 H 0.27408 0.03137 0.8573 0.0
H589 H 0.29547 0.98654 0.68514 0.0
C590 C 0.25867 0.99988 0.65624 0.0
C591 C 0.2361 1.01414 0.66964 0.0
C592 C 0.29195 1.02141 0.84627 0.0
C593 C 0.27473 1.00853 0.75129 0.0
C594 C 0.31213 1.02291 0.8837 0.0
C595 C 0.33586 1.01084 0.87055 0.0
C596 C 0.2954 1.00798 0.79442 0.0
C597 C 0.33829 0.99651 0.81977 0.0
C598 C 0.278 0.99706 0.69684 0.0
C599 C 0.23336 0.02457 0.72519 0.0
N600 N 0.31839 0.99572 0.78309 0.0
N601 N 0.2524 1.02166 0.7636 0.0
H602 H 0.53019 0.24365 0.56675 0.0
H603 H 0.47935 0.30117 0.87153 0.0
H604 H 0.4699 0.21208 0.67796 0.0
H605 H 0.5373 0.33866 0.76379 0.0
H606 H 0.47844 0.26726 0.80213 0.0
H607 H 0.53551 0.27712 0.63807 0.0
C608 C 0.51815 0.24358 0.60614 0.0
C609 C 0.49941 0.22487 0.61583 0.0
C610 C 0.49149 0.28275 0.7933 0.0
C611 C 0.50545 0.26337 0.69785 0.0
C612 C 0.49206 0.30229 0.83323 0.0
C613 C 0.50833 0.3231 0.82369 0.0
C614 C 0.50722 0.28368 0.74242 0.0
C615 C 0.52447 0.32304 0.77318 0.0
C616 C 0.52117 0.26282 0.64677 0.0
C617 C 0.4843 0.22612 0.66768 0.0
N618 N 0.52339 0.30374 0.73422 0.0
N619 N 0.48766 0.24488 0.7063 0.0
H620 H 0.3326 0.49276 0.67518 0.0
H621 H 0.19954 0.56343 0.77009 0.0
H622 H 0.29341 0.54594 0.55956 0.0
H623 H 0.23898 0.50541 0.87301 0.0
H624 H 0.23443 0.56047 0.69488 0.0
H625 H 0.29931 0.50009 0.74992 0.0
C626 C 0.31693 0.50592 0.66519 0.0
C627 C 0.31585 0.51847 0.6103 0.0
C628 C 0.23543 0.54853 0.73415 0.0
C629 C 0.27725 0.52729 0.6971 0.0
C630 C 0.21558 0.5503 0.77721 0.0
C631 C 0.21617 0.53457 0.82802 0.0
C632 C 0.25608 0.53103 0.74218 0.0
C633 C 0.23744 0.51781 0.83459 0.0
C634 C 0.29787 0.51024 0.70829 0.0
C635 C 0.29519 0.53585 0.60109 0.0
N636 N 0.25633 0.51649 0.79242 0.0
N637 N 0.27666 0.53963 0.64385 0.0
H638 H 0.04586 0.33786 0.76891 0.0
H639 H 0.96951 0.21429 0.88153 0.0
H640 H 0.98717 0.3058 0.66894 0.0
H641 H 1.01512 0.25934 0.99037 0.0
H642 H 0.97482 0.24703 0.80284 0.0
H643 H 0.03488 0.30824 0.84979 0.0
C644 C 0.03065 0.32456 0.76401 0.0
C645 C 1.01747 0.32431 0.71205 0.0
C646 C 0.98337 0.24982 0.84427 0.0
C647 C 1.00467 0.29015 0.80471 0.0
C648 C 0.98023 0.23121 0.88928 0.0
C649 C 0.99202 0.23394 0.94259 0.0
C650 C 0.99854 0.27115 0.85265 0.0
C651 C 1.00586 0.25621 0.94995 0.0
C652 C 0.02424 0.30772 0.81035 0.0
C653 C 0.99767 0.30682 0.70842 0.0
N654 N 1.00891 0.27372 0.90549 0.0
N655 N 0.99201 0.29028 0.75391 0.0
H656 H 0.22947 0.98404 0.31787 0.0
H657 H 0.36489 0.04337 0.22019 0.0
H658 H 0.27847 1.02274 0.43145 0.0
H659 H 0.32248 0.99838 0.10494 0.0
H660 H 0.33328 0.03445 0.29821 0.0
H661 H 0.26328 0.98665 0.24014 0.0
C662 C 0.24745 0.99262 0.32685 0.0
C663 C 0.25104 1.00331 0.38126 0.0
C664 C 0.33081 0.02639 0.256 0.0
C665 C 0.28956 1.00672 0.2925 0.0
C666 C 0.34886 0.03166 0.21116 0.0
C667 C 0.34634 1.02181 0.15558 0.0
C668 C 0.30974 1.01126 0.24561 0.0
C669 C 0.32529 1.00629 0.14711 0.0
C670 C 0.26667 0.99428 0.28236 0.0
C671 C 0.27466 1.01443 0.39016 0.0
N672 N 0.30771 1.00165 0.19144 0.0
N673 N 0.2928 1.01599 0.34638 0.0
H674 H 0.50157 0.25427 0.39026 0.0
H675 H 0.53007 0.30258 0.05923 0.0
H676 H 0.54194 0.20643 0.26587 0.0
H677 H 0.48469 0.34409 0.18749 0.0
H678 H 0.53913 0.26905 0.13408 0.0
H679 H 0.50065 0.28923 0.31781 0.0
C680 C 0.51073 0.25129 0.34778 0.0
C681 C 0.52194 0.22738 0.33432 0.0
C682 C 0.52729 0.28558 0.14576 0.0
C683 C 0.52029 0.26748 0.2495 0.0
C684 C 0.52217 0.30479 0.10308 0.0
C685 C 0.50635 0.32622 0.11669 0.0
C686 C 0.51674 0.28787 0.20272 0.0
C687 C 0.49656 0.32785 0.17434 0.0
C688 C 0.51003 0.27127 0.3061 0.0
C689 C 0.53339 0.22465 0.27836 0.0
N690 N 0.50187 0.30905 0.21479 0.0
N691 N 0.53201 0.24437 0.23769 0.0
H692 H 0.32312 0.56334 0.27403 0.0
H693 H 0.20324 0.48986 0.1568 0.0
H694 H 0.29458 0.49131 0.34252 0.0
H695 H 0.22216 0.5655 0.09076 0.0
H696 H 0.23822 0.49079 0.22238 0.0
H697 H 0.28792 0.56549 0.20494 0.0
C698 C 0.30951 0.54808 0.27482 0.0
C699 C 0.31201 0.52707 0.3143 0.0
C700 C 0.23483 0.50733 0.19383 0.0
C701 C 0.27188 0.52933 0.23532 0.0
C702 C 0.21457 0.50687 0.15625 0.0
C703 C 0.20924 0.52778 0.11829 0.0
C704 C 0.25036 0.52884 0.19409 0.0
C705 C 0.22545 0.54889 0.11905 0.0
C706 C 0.28946 0.5493 0.23531 0.0
C707 C 0.29375 0.50787 0.31308 0.0
N708 N 0.24522 0.54893 0.15643 0.0
N709 N 0.27473 0.50947 0.27451 0.0
H710 H 1.00378 0.18989 0.30687 0.0
H711 H 0.97607 0.33786 0.3689 0.0
H712 H 0.97876 0.24396 0.17389 0.0
H713 H 0.99453 0.28021 0.50018 0.0
H714 H 0.97162 0.30377 0.29863 0.0
H715 H 0.99619 0.22251 0.37962 0.0
C716 C 0.99662 0.20866 0.29303 0.0
C717 C 0.99214 0.21426 0.23415 0.0
C718 C 0.97611 0.29858 0.34317 0.0
C719 C 0.98336 0.25199 0.31745 0.0
C720 C 0.97836 0.31802 0.3834 0.0
C721 C 0.98576 0.31181 0.44034 0.0
C722 C 0.98135 0.27289 0.36025 0.0
C723 C 0.98896 0.28584 0.45659 0.0
C724 C 0.99213 0.2273 0.33465 0.0
C725 C 0.9824 0.23882 0.21886 0.0
N726 N 0.98702 0.26744 0.41671 0.0
N727 N 0.97863 0.25689 0.26012 0.0
H728 H 0.71468 1.02171 0.21241 0.0
H729 H 0.86498 1.00219 0.26376 0.0
H730 H 0.76902 0.98498 0.09416 0.0
H731 H 0.81159 1.02115 0.40464 0.0
H732 H 0.82989 1.002 0.19782 0.0
H733 H 0.74966 0.0282 0.27951 0.0
C734 C 0.73403 1.01563 0.19997 0.0
C735 C 0.73906 1.00293 0.14757 0.0
C736 C 0.82569 1.00625 0.24309 0.0
C737 C 0.77884 1.00991 0.22386 0.0
C738 C 0.84585 1.0065 0.28091 0.0
C739 C 0.84138 1.01181 0.34004 0.0
C740 C 0.80054 1.01138 0.26393 0.0
C741 C 0.81593 1.01676 0.35955 0.0
C742 C 0.75389 1.01903 0.23849 0.0
C743 C 0.76432 0.9949 0.13405 0.0
N744 N 0.79643 1.01648 0.32157 0.0
N745 N 0.78313 0.99849 0.17177 0.0
H746 H 0.53826 0.80102 0.43655 0.0
H747 H 0.5702 0.7511 0.11376 0.0
H748 H 0.58336 0.84094 0.30344 0.0
H749 H 0.52925 0.70497 0.24304 0.0
H750 H 0.57018 0.78597 0.18134 0.0
H751 H 0.53051 0.76754 0.36648 0.0
C752 C 0.54636 0.80291 0.3926 0.0
C753 C 0.56173 0.82387 0.37627 0.0
C754 C 0.56093 0.76841 0.19522 0.0
C755 C 0.55287 0.78554 0.29572 0.0
C756 C 0.5608 0.74844 0.15632 0.0
C757 C 0.54971 0.725 0.17256 0.0
C758 C 0.55015 0.76512 0.25184 0.0
C759 C 0.53782 0.72279 0.22844 0.0
C760 C 0.54199 0.78371 0.35267 0.0
C761 C 0.57181 0.82507 0.31867 0.0
N762 N 0.53861 0.74249 0.26637 0.0
N763 N 0.56725 0.8063 0.28092 0.0
H764 H 0.70364 0.60959 0.30935 0.0
H765 H 0.83901 0.53658 0.25574 0.0
H766 H 0.73471 0.55206 0.42747 0.0
H767 H 0.80155 0.57959 0.11845 0.0
H768 H 0.8023 0.54528 0.32125 0.0
H769 H 0.74032 0.60197 0.24143 0.0
C770 C 0.71817 0.59543 0.32118 0.0
C771 C 0.71594 0.58142 0.37442 0.0
C772 C 0.80202 0.55287 0.27686 0.0
C773 C 0.75813 0.57264 0.29663 0.0
C774 C 0.82311 0.54799 0.23923 0.0
C775 C 0.82355 0.55734 0.18111 0.0
C776 C 0.78099 0.56747 0.25692 0.0
C777 C 0.80215 0.57195 0.16274 0.0
C778 C 0.73906 0.59099 0.28216 0.0
C779 C 0.73534 0.56312 0.38686 0.0
N780 N 0.78181 0.57661 0.20049 0.0
N781 N 0.75555 0.55939 0.34858 0.0
H782 H 1.0109 0.84999 0.28465 0.0
H783 H 0.9319 0.72209 0.34767 0.0
H784 H 0.96001 0.8204 0.16108 0.0
H785 H 0.99059 0.74743 0.45768 0.0
H786 H 0.94011 0.7587 0.28098 0.0
H787 H 1.00174 0.81362 0.35041 0.0
C788 C 0.99767 0.83591 0.2713 0.0
C789 C 0.98622 0.83839 0.21698 0.0
C790 C 0.95121 0.75622 0.31966 0.0
C791 C 0.97563 0.79631 0.29274 0.0
C792 C 0.94645 0.73535 0.358 0.0
C793 C 0.96054 0.73155 0.40864 0.0
C794 C 0.9701 0.77364 0.33207 0.0
C795 C 0.97942 0.74929 0.41907 0.0
C796 C 0.99251 0.81503 0.30899 0.0
C797 C 0.96928 0.81936 0.20243 0.0
N798 N 0.98354 0.76953 0.38136 0.0
N799 N 0.9645 0.79916 0.24005 0.0
H800 H 0.47561 0.96605 0.93757 0.0
H801 H 0.6027 0.03276 0.03608 0.0
H802 H 0.47964 1.00939 0.09379 0.0
H803 H 0.60352 0.97518 0.90515 0.0
H804 H 0.55634 0.02831 0.04944 0.0
H805 H 0.52188 0.97062 0.92078 0.0
C806 C 0.48622 0.97608 0.96892 0.0
C807 C 0.47352 0.98735 0.01713 0.0
C808 C 0.56668 1.01679 0.01746 0.0
C809 C 0.52639 0.99355 0.9969 0.0
C810 C 0.59315 1.01957 1.00929 0.0
C811 C 0.6073 1.00399 0.97025 0.0
C812 C 0.55413 0.99854 0.9859 0.0
C813 C 0.59364 0.98735 0.93652 0.0
C814 C 0.51262 0.97894 0.95899 0.0
C815 C 0.4884 1.00036 0.05594 0.0
N816 N 0.56797 0.98487 0.94556 0.0
N817 N 0.51386 1.00337 0.04459 0.0
H818 H 0.55827 0.45962 0.90819 0.0
H819 H 0.51022 0.58573 0.07925 0.0
H820 H 0.52298 0.45777 0.08118 0.0
H821 H 0.55144 0.58833 0.91281 0.0
H822 H 0.51192 0.53874 0.07713 0.0
H823 H 0.55604 0.50666 0.90855 0.0
C824 C 0.55046 0.46899 0.9466 0.0
C825 C 0.54079 0.45442 0.99463 0.0
C826 C 0.52062 0.54963 0.04112 0.0
C827 C 0.53724 0.50854 0.99446 0.0
C828 C 0.5193 0.57655 0.0419 0.0
C829 C 0.53085 0.59129 0.99642 0.0
C830 C 0.53378 0.53719 0.99482 0.0
C831 C 0.54241 0.578 0.9493 0.0
C832 C 0.54891 0.49593 0.94655 0.0
C833 C 0.53065 0.46793 0.04291 0.0
N834 N 0.54379 0.5519 0.95004 0.0
N835 N 0.52891 0.49402 0.0413 0.0
H836 H 0.94696 0.57311 0.07867 0.0
H837 H 0.07943 0.5865 0.89291 0.0
H838 H 0.95155 0.58191 0.89128 0.0
H839 H 0.07408 0.57965 0.08065 0.0
H840 H 0.03259 0.58996 0.8917 0.0
H841 H 0.99305 0.58004 0.08069 0.0
C842 C 0.95752 0.57691 0.03798 0.0
C843 C 0.94519 0.5768 0.98469 0.0
C844 C 0.04168 0.58806 0.93323 0.0
C845 C 0.99836 0.58455 0.9866 0.0
C846 C 0.06853 0.58632 0.93397 0.0
C847 C 0.08096 0.58267 0.98697 0.0
C848 C 0.02699 0.58602 0.98581 0.0
C849 C 0.06554 0.58229 0.03863 0.0
C850 C 0.98395 0.58077 0.03911 0.0
C851 C 0.96013 0.58168 0.93341 0.0
N852 N 0.03954 0.58363 0.03669 0.0
N853 N 0.98581 0.58517 0.93561 0.0
H854 H 0.94786 0.09005 0.17886 0.0
H855 H 0.96659 0.9612 1.00112 0.0
H856 H 0.96213 0.08979 0.99261 0.0
H857 H 0.94823 0.96317 0.18574 0.0
H858 H 0.96057 1.00789 0.99454 0.0
H859 H 0.94319 0.0437 0.1796 0.0
C860 C 0.94963 0.08031 0.13788 0.0
C861 C 0.95557 0.09396 0.08566 0.0
C862 C 0.95753 0.99807 0.03634 0.0
C863 C 0.95068 0.04043 0.08632 0.0
C864 C 0.96087 0.97134 0.04013 0.0
C865 C 0.95808 0.9581 0.09418 0.0
C866 C 0.95141 1.01177 0.08698 0.0
C867 C 0.95074 0.97243 0.14316 0.0
C868 C 0.94704 0.05374 0.13837 0.0
C869 C 0.95756 0.08016 0.03396 0.0
N870 N 0.94791 0.99839 0.13847 0.0
N871 N 0.95547 0.05416 0.03571 0.0
H872 H 0.1067 0.97351 0.63348 0.0
H873 H 0.97625 0.97824 0.46333 0.0
H874 H 0.10567 0.97503 0.44578 0.0
H875 H 0.98065 0.96259 0.64829 0.0
H876 H 0.02316 0.97511 0.45417 0.0
H877 H 0.06066 0.96715 0.63821 0.0
C878 C 0.09686 0.97209 0.59312 0.0
C879 C 0.11023 0.97486 0.53917 0.0
C880 C 1.01382 0.97204 0.49661 0.0
C881 C 0.05689 0.96816 0.54424 0.0
C882 C 0.98698 0.97377 0.50191 0.0
C883 C 0.97428 0.97075 0.55677 0.0
C884 C 0.02822 0.96745 0.54656 0.0
C885 C 0.9894 0.96512 0.60509 0.0
C886 C 0.07044 0.96854 0.59585 0.0
C887 C 0.09627 0.9729 0.48839 0.0
N888 N 1.0154 0.96391 0.59891 0.0
N889 N 0.07034 0.97005 0.49215 0.0
H890 H 0.55292 0.96384 0.41848 0.0
H891 H 0.50875 0.08799 0.59384 0.0
H892 H 0.50987 0.95878 0.58238 0.0
H893 H 0.56988 0.08832 0.46249 0.0
H894 H 0.50732 0.04148 0.58896 0.0
H895 H 0.55565 1.00994 0.42897 0.0
C896 C 0.54361 0.97238 0.45638 0.0
C897 C 0.53114 0.95705 0.49971 0.0
C898 C 0.52113 0.05165 0.56129 0.0
C899 C 0.53455 1.01047 0.51214 0.0
C900 C 0.52217 0.07834 0.5643 0.0
C901 C 0.53904 0.09245 0.52712 0.0
C902 C 0.53693 0.03867 0.52054 0.0
C903 C 0.55603 0.07847 0.49059 0.0
C904 C 0.54549 0.99882 0.46256 0.0
C905 C 0.51958 0.96962 0.54767 0.0
N906 N 0.55425 0.05249 0.48743 0.0
N907 N 0.52156 0.99552 0.55254 0.0
H908 H 0.5751 0.52192 0.54355 0.0
H909 H 0.44646 0.5746 0.39507 0.0
H910 H 0.57535 0.57316 0.39249 0.0
H911 H 0.44795 0.53865 0.56675 0.0
H912 H 0.49344 0.57279 0.39014 0.0
H913 H 0.52817 0.52421 0.54696 0.0
C914 C 0.56538 0.53325 0.51041 0.0
C915 C 0.57941 0.54754 0.46798 0.0
C916 C 0.48344 0.56552 0.4291 0.0
C917 C 0.52548 0.55056 0.47213 0.0
C918 C 0.45657 0.56679 0.43216 0.0
C919 C 0.44299 0.55683 0.48143 0.0
C920 C 0.49694 0.5538 0.47514 0.0
C921 C 0.45737 0.5466 0.52776 0.0
C922 C 0.53852 0.53481 0.5128 0.0
C923 C 0.56551 0.56193 0.42634 0.0
N924 N 0.48339 0.54509 0.52319 0.0
N925 N 0.53947 0.56321 0.42971 0.0
H926 H 0.02307 0.59294 0.58668 0.0
H927 H 0.97518 0.45711 0.48424 0.0
H928 H 0.97336 0.58431 0.4433 0.0
H929 H 0.03109 0.46481 0.61537 0.0
H930 H 0.97277 0.50392 0.47191 0.0
H931 H 0.02646 0.54616 0.59816 0.0
C932 C 1.01324 0.58128 0.55693 0.0
C933 C 0.99794 0.59272 0.51386 0.0
C934 C 0.98546 0.49536 0.50366 0.0
C935 C 1.00104 0.53906 0.52807 0.0
C936 C 0.98661 0.46862 0.51113 0.0
C937 C 1.00333 0.45695 0.55093 0.0
C938 C 1.00105 0.5106 0.53635 0.0
C939 C 1.01797 0.47292 0.58402 0.0
C940 C 1.01498 0.55453 0.56387 0.0
C941 C 0.98537 0.57648 0.47719 0.0
N942 N 1.01654 0.49883 0.57591 0.0
N943 N 0.98701 0.5506 0.48546 0.0
loop_
_geom_bond_atom_site_label_1
_geom_bond_atom_site_label_2
_geom_bond_distance
_geom_bond_site_symmetry_2
_ccdc_geom_bond_type
Cu0 N1 1.999 . S
Cu0 O6 1.974 . S
Cu0 N11 1.985 1_544 S
Cu0 O20 1.959 . S
N1 Cu0 1.999 . S
N1 C3 1.263 . S
N1 C5 1.389 . S
N2 C3 1.358 . S
N2 C4 1.400 . S
C3 N1 1.263 . S
C3 N2 1.358 . S
C3 H9 0.930 . S
C4 N2 1.400 . S
C4 C5 1.351 . S
C4 H21 0.930 . S
C5 N1 1.389 . S
C5 C4 1.351 . S
C5 H10 0.930 . S
O6 Cu0 1.974 . S
O6 C16 1.282 1_545 S
C7 O8 1.261 . S
C7 O20 1.251 1_565 S
O8 C7 1.261 . S
H9 C3 0.930 . S
H10 C5 0.930 . S
N11 Cu0 1.985 1_566 S
N11 C13 1.335 . S
N11 C14 1.390 . S
N12 C13 1.345 . S
N12 C15 1.336 . S
C13 N11 1.335 . S
C13 N12 1.345 . S
C13 H18 0.930 1_565 S
C14 N11 1.390 . S
C14 C15 1.346 . S
C14 H19 0.930 . S
C15 N12 1.336 . S
C15 C14 1.346 . S
C15 H22 0.929 . S
C16 O6 1.282 1_565 S
C16 O17 1.216 . S
O17 C16 1.216 . S
H18 C13 0.930 1_545 S
H19 C14 0.930 . S
O20 Cu0 1.959 . S
O20 C7 1.251 1_545 S
H21 C4 0.930 . S
H22 C15 0.929 . S
Cu23 N24 1.999 . S
Cu23 O29 1.974 . S
Cu23 N34 1.979 1_554 S
Cu23 O43 1.959 . S
N24 Cu23 1.999 . S
N24 C26 1.263 . S
N24 C28 1.389 . S
N25 C26 1.358 . S
N25 C27 1.400 . S
C26 N24 1.263 . S
C26 N25 1.358 . S
C26 H32 0.930 . S
C27 N25 1.400 . S
C27 C28 1.351 . S
C27 H44 0.930 . S
C28 N24 1.389 . S
C28 C27 1.351 . S
C28 H33 0.930 . S
O29 Cu23 1.974 . S
O29 C39 1.282 . S
C30 O31 1.261 . S
C30 O43 1.251 . S
O31 C30 1.261 . S
H32 C26 0.930 . S
H33 C28 0.930 . S
N34 Cu23 1.979 1_556 S
N34 C36 1.336 . S
N34 C37 1.396 . S
N35 C36 1.345 . S
N35 C38 1.336 . S
C36 N34 1.336 . S
C36 N35 1.345 . S
C36 H41 0.930 1_556 S
C37 N34 1.396 . S
C37 C38 1.346 . S
C37 H42 0.930 . S
C38 N35 1.336 . S
C38 C37 1.346 . S
C38 H45 0.929 . S
C39 O29 1.282 . S
C39 O40 1.216 . S
O40 C39 1.216 . S
H41 C36 0.930 1_554 S
H42 C37 0.930 . S
O43 Cu23 1.959 . S
O43 C30 1.251 . S
H44 C27 0.930 . S
H45 C38 0.929 . S
Cu46 N47 1.999 . S
Cu46 O52 1.974 . S
Cu46 N57 1.985 1_554 S
Cu46 O66 1.959 . S
N47 Cu46 1.999 . S
N47 C49 1.263 . S
N47 C51 1.389 . S
N48 C49 1.358 . S
N48 C50 1.400 . S
C49 N47 1.263 . S
C49 N48 1.358 . S
C49 H55 0.930 . S
C50 N48 1.400 . S
C50 C51 1.351 . S
C50 H67 0.930 . S
C51 N47 1.389 . S
C51 C50 1.351 . S
C51 H56 0.930 . S
O52 Cu46 1.974 . S
O52 C62 1.282 . S
C53 O54 1.261 . S
C53 O66 1.251 . S
O54 C53 1.261 . S
H55 C49 0.930 . S
H56 C51 0.930 . S
N57 Cu46 1.985 1_556 S
N57 C59 1.335 . S
N57 C60 1.390 . S
N58 C59 1.345 . S
N58 C61 1.336 . S
C59 N57 1.335 . S
C59 N58 1.345 . S
C59 H64 0.930 1_556 S
C60 N57 1.390 . S
C60 C61 1.346 . S
C60 H65 0.930 . S
C61 N58 1.336 . S
C61 C60 1.346 . S
C61 H68 0.929 . S
C62 O52 1.282 . S
C62 O63 1.216 . S
O63 C62 1.216 . S
H64 C59 0.930 1_554 S
H65 C60 0.930 . S
O66 Cu46 1.959 . S
O66 C53 1.251 . S
H67 C50 0.930 . S
H68 C61 0.929 . S
Cu69 N70 1.999 . S
Cu69 O75 1.974 1_554 S
Cu69 N80 1.985 1_454 S
Cu69 O89 1.959 . S
N70 Cu69 1.999 . S
N70 C72 1.263 . S
N70 C74 1.389 . S
N71 C72 1.358 . S
N71 C73 1.400 . S
C72 N70 1.263 . S
C72 N71 1.358 . S
C72 H78 0.930 . S
C73 N71 1.400 . S
C73 C74 1.351 . S
C73 H90 0.930 . S
C74 N70 1.389 . S
C74 C73 1.351 . S
C74 H79 0.930 . S
O75 Cu69 1.974 1_556 S
O75 C85 1.282 1_455 S
C76 O77 1.261 . S
C76 O89 1.251 1_655 S
O77 C76 1.261 . S
H78 C72 0.930 . S
H79 C74 0.930 . S
N80 Cu69 1.985 1_656 S
N80 C82 1.335 . S
N80 C83 1.390 . S
N81 C82 1.345 . S
N81 C84 1.336 . S
C82 N80 1.335 . S
C82 N81 1.345 . S
C82 H87 0.930 1_655 S
C83 N80 1.390 . S
C83 C84 1.346 . S
C83 H88 0.930 . S
C84 N81 1.336 . S
C84 C83 1.346 . S
C84 H91 0.929 . S
C85 O75 1.282 1_655 S
C85 O86 1.212 1_556 S
O86 C85 1.212 1_554 S
H87 C82 0.930 1_455 S
H88 C83 0.930 . S
O89 Cu69 1.959 . S
O89 C76 1.251 1_455 S
H90 C73 0.930 . S
H91 C84 0.929 . S
Cu92 N93 1.999 . S
Cu92 O98 1.974 . S
Cu92 N103 1.985 1_565 S
Cu92 O112 1.959 . S
N93 Cu92 1.999 . S
N93 C95 1.263 . S
N93 C97 1.389 . S
N94 C95 1.358 . S
N94 C96 1.400 . S
C95 N93 1.263 . S
C95 N94 1.358 . S
C95 H101 0.930 . S
C96 N94 1.400 . S
C96 C97 1.351 . S
C96 H113 0.930 . S
C97 N93 1.389 . S
C97 C96 1.351 . S
C97 H102 0.930 . S
O98 Cu92 1.974 . S
O98 C108 1.282 1_565 S
C99 O100 1.261 . S
C99 O112 1.251 1_545 S
O100 C99 1.261 . S
H101 C95 0.930 . S
H102 C97 0.930 . S
N103 Cu92 1.985 1_545 S
N103 C105 1.335 . S
N103 C106 1.390 . S
N104 C105 1.345 . S
N104 C107 1.336 . S
C105 N103 1.335 . S
C105 N104 1.345 . S
C105 H110 0.930 1_545 S
C106 N103 1.390 . S
C106 C107 1.346 . S
C106 H111 0.930 . S
C107 N104 1.336 . S
C107 C106 1.346 . S
C107 H114 0.929 . S
C108 O98 1.282 1_545 S
C108 O109 1.216 . S
O109 C108 1.216 . S
H110 C105 0.930 1_565 S
H111 C106 0.930 . S
O112 Cu92 1.959 . S
O112 C99 1.251 1_565 S
H113 C96 0.930 . S
H114 C107 0.929 . S
Cu115 N116 1.999 . S
Cu115 O121 1.974 . S
Cu115 N126 1.985 . S
Cu115 O135 1.959 . S
N116 Cu115 1.999 . S
N116 C118 1.263 . S
N116 C120 1.389 . S
N117 C118 1.358 . S
N117 C119 1.400 . S
C118 N116 1.263 . S
C118 N117 1.358 . S
C118 H124 0.930 . S
C119 N117 1.400 . S
C119 C120 1.351 . S
C119 H136 0.930 . S
C120 N116 1.389 . S
C120 C119 1.351 . S
C120 H125 0.930 . S
O121 Cu115 1.974 . S
O121 C131 1.282 . S
C122 O123 1.261 . S
C122 O135 1.251 . S
O123 C122 1.261 . S
H124 C118 0.930 . S
H125 C120 0.930 . S
N126 Cu115 1.985 . S
N126 C128 1.335 . S
N126 C129 1.390 . S
N127 C128 1.345 . S
N127 C130 1.336 . S
C128 N126 1.335 . S
C128 N127 1.345 . S
C128 H133 0.930 . S
C129 N126 1.390 . S
C129 C130 1.346 . S
C129 H134 0.930 . S
C130 N127 1.336 . S
C130 C129 1.346 . S
C130 H137 0.929 . S
C131 O121 1.282 . S
C131 O132 1.216 . S
O132 C131 1.216 . S
H133 C128 0.930 . S
H134 C129 0.930 . S
O135 Cu115 1.959 . S
O135 C122 1.251 . S
H136 C119 0.930 . S
H137 C130 0.929 . S
Cu138 N139 1.999 . S
Cu138 O144 1.974 . S
Cu138 N149 1.985 . S
Cu138 O158 1.959 . S
N139 Cu138 1.999 . S
N139 C141 1.263 . S
N139 C143 1.389 . S
N140 C141 1.358 . S
N140 C142 1.400 . S
C141 N139 1.263 . S
C141 N140 1.358 . S
C141 H147 0.930 . S
C142 N140 1.400 . S
C142 C143 1.351 . S
C142 H159 0.930 . S
C143 N139 1.389 . S
C143 C142 1.351 . S
C143 H148 0.930 . S
O144 Cu138 1.974 . S
O144 C154 1.282 . S
C145 O146 1.261 . S
C145 O158 1.251 . S
O146 C145 1.261 . S
H147 C141 0.930 . S
H148 C143 0.930 . S
N149 Cu138 1.985 . S
N149 C151 1.335 . S
N149 C152 1.390 . S
N150 C151 1.345 . S
N150 C153 1.336 . S
C151 N149 1.335 . S
C151 N150 1.345 . S
C151 H156 0.930 . S
C152 N149 1.390 . S
C152 C153 1.346 . S
C152 H157 0.930 . S
C153 N150 1.336 . S
C153 C152 1.346 . S
C153 H160 0.929 . S
C154 O144 1.282 . S
C154 O155 1.216 . S
O155 C154 1.216 . S
H156 C151 0.930 . S
H157 C152 0.930 . S
O158 Cu138 1.959 . S
O158 C145 1.251 . S
H159 C142 0.930 . S
H160 C153 0.929 . S
Cu161 N162 1.999 . S
Cu161 O167 1.974 . S
Cu161 N172 1.985 1_655 S
Cu161 O181 1.959 . S
N162 Cu161 1.999 . S
N162 C164 1.263 . S
N162 C166 1.389 . S
N163 C164 1.358 . S
N163 C165 1.400 . S
C164 N162 1.263 . S
C164 N163 1.358 . S
C164 H170 0.930 . S
C165 N163 1.400 . S
C165 C166 1.351 . S
C165 H182 0.930 . S
C166 N162 1.389 . S
C166 C165 1.351 . S
C166 H171 0.930 . S
O167 Cu161 1.974 . S
O167 C177 1.282 1_655 S
C168 O169 1.261 . S
C168 O181 1.251 1_455 S
O169 C168 1.261 . S
H170 C164 0.930 . S
H171 C166 0.930 . S
N172 Cu161 1.985 1_455 S
N172 C174 1.335 . S
N172 C175 1.390 . S
N173 C174 1.345 . S
N173 C176 1.336 . S
C174 N172 1.335 . S
C174 N173 1.345 . S
C174 H179 0.930 1_455 S
C175 N172 1.390 . S
C175 C176 1.346 . S
C175 H180 0.930 . S
C176 N173 1.336 . S
C176 C175 1.346 . S
C176 H183 0.929 . S
C177 O167 1.282 1_455 S
C177 O178 1.216 . S
O178 C177 1.216 . S
H179 C174 0.930 1_655 S
H180 C175 0.930 . S
O181 Cu161 1.959 . S
O181 C168 1.251 1_655 S
H182 C165 0.930 . S
H183 C176 0.929 . S
Cu184 N185 1.999 . S
Cu184 O190 1.974 . S
Cu184 N195 1.985 1_566 S
Cu184 O204 1.959 . S
N185 Cu184 1.999 . S
N185 C187 1.263 . S
N185 C189 1.389 . S
N186 C187 1.358 . S
N186 C188 1.400 . S
C187 N185 1.263 . S
C187 N186 1.358 . S
C187 H193 0.930 . S
C188 N186 1.400 . S
C188 C189 1.351 . S
C188 H205 0.930 . S
C189 N185 1.389 . S
C189 C188 1.351 . S
C189 H194 0.930 . S
O190 Cu184 1.974 . S
O190 C200 1.282 1_565 S
C191 O192 1.261 . S
C191 O204 1.251 1_545 S
O192 C191 1.261 . S
H193 C187 0.930 . S
H194 C189 0.930 . S
N195 Cu184 1.985 1_544 S
N195 C197 1.335 . S
N195 C198 1.390 . S
N196 C197 1.345 . S
N196 C199 1.336 . S
C197 N195 1.335 . S
C197 N196 1.345 . S
C197 H202 0.930 1_545 S
C198 N195 1.390 . S
C198 C199 1.346 . S
C198 H203 0.930 . S
C199 N196 1.336 . S
C199 C198 1.346 . S
C199 H206 0.929 . S
C200 O190 1.282 1_545 S
C200 O201 1.216 . S
O201 C200 1.216 . S
H202 C197 0.930 1_565 S
H203 C198 0.930 . S
O204 Cu184 1.959 . S
O204 C191 1.251 1_565 S
H205 C188 0.930 . S
H206 C199 0.929 . S
Cu207 N208 1.999 . S
Cu207 O213 1.974 . S
Cu207 N218 1.979 1_556 S
Cu207 O227 1.959 . S
N208 Cu207 1.999 . S
N208 C210 1.263 . S
N208 C212 1.389 . S
N209 C210 1.358 . S
N209 C211 1.400 . S
C210 N208 1.263 . S
C210 N209 1.358 . S
C210 H216 0.930 . S
C211 N209 1.400 . S
C211 C212 1.351 . S
C211 H228 0.930 . S
C212 N208 1.389 . S
C212 C211 1.351 . S
C212 H217 0.930 . S
O213 Cu207 1.974 . S
O213 C223 1.282 . S
C214 O215 1.261 . S
C214 O227 1.251 . S
O215 C214 1.261 . S
H216 C210 0.930 . S
H217 C212 0.930 . S
N218 Cu207 1.979 1_554 S
N218 C220 1.336 . S
N218 C221 1.396 . S
N219 C220 1.345 . S
N219 C222 1.336 . S
C220 N218 1.336 . S
C220 N219 1.345 . S
C220 H225 0.930 1_554 S
C221 N218 1.396 . S
C221 C222 1.346 . S
C221 H226 0.930 . S
C222 N219 1.336 . S
C222 C221 1.346 . S
C222 H229 0.929 . S
C223 O213 1.282 . S
C223 O224 1.216 . S
O224 C223 1.216 . S
H225 C220 0.930 1_556 S
H226 C221 0.930 . S
O227 Cu207 1.959 . S
O227 C214 1.251 . S
H228 C211 0.930 . S
H229 C222 0.929 . S
Cu230 N231 1.999 . S
Cu230 O236 1.974 . S
Cu230 N241 1.985 1_556 S
Cu230 O250 1.959 . S
N231 Cu230 1.999 . S
N231 C233 1.263 . S
N231 C235 1.389 . S
N232 C233 1.358 . S
N232 C234 1.400 . S
C233 N231 1.263 . S
C233 N232 1.358 . S
C233 H239 0.930 . S
C234 N232 1.400 . S
C234 C235 1.351 . S
C234 H251 0.930 . S
C235 N231 1.389 . S
C235 C234 1.351 . S
C235 H240 0.930 . S
O236 Cu230 1.974 . S
O236 C246 1.282 . S
C237 O238 1.261 . S
C237 O250 1.251 . S
O238 C237 1.261 . S
H239 C233 0.930 . S
H240 C235 0.930 . S
N241 Cu230 1.985 1_554 S
N241 C243 1.335 . S
N241 C244 1.390 . S
N242 C243 1.345 . S
N242 C245 1.336 . S
C243 N241 1.335 . S
C243 N242 1.345 . S
C243 H248 0.930 1_554 S
C244 N241 1.390 . S
C244 C245 1.346 . S
C244 H249 0.930 . S
C245 N242 1.336 . S
C245 C244 1.346 . S
C245 H252 0.929 . S
C246 O236 1.282 . S
C246 O247 1.216 . S
O247 C246 1.216 . S
H248 C243 0.930 1_556 S
H249 C244 0.930 . S
O250 Cu230 1.959 . S
O250 C237 1.251 . S
H251 C234 0.930 . S
H252 C245 0.929 . S
Cu253 N254 1.999 . S
Cu253 O259 1.974 1_556 S
Cu253 N264 1.985 1_656 S
Cu253 O273 1.959 . S
N254 Cu253 1.999 . S
N254 C256 1.263 . S
N254 C258 1.389 . S
N255 C256 1.358 . S
N255 C257 1.400 . S
C256 N254 1.263 . S
C256 N255 1.358 . S
C256 H262 0.930 . S
C257 N255 1.400 . S
C257 C258 1.351 . S
C257 H274 0.930 . S
C258 N254 1.389 . S
C258 C257 1.351 . S
C258 H263 0.930 . S
O259 Cu253 1.974 1_554 S
O259 C269 1.282 1_655 S
C260 O261 1.261 . S
C260 O273 1.251 1_455 S
O261 C260 1.261 . S
H262 C256 0.930 . S
H263 C258 0.930 . S
N264 Cu253 1.985 1_454 S
N264 C266 1.335 . S
N264 C267 1.390 . S
N265 C266 1.345 . S
N265 C268 1.336 . S
C266 N264 1.335 . S
C266 N265 1.345 . S
C266 H271 0.930 1_455 S
C267 N264 1.390 . S
C267 C268 1.346 . S
C267 H272 0.930 . S
C268 N265 1.336 . S
C268 C267 1.346 . S
C268 H275 0.929 . S
C269 O259 1.282 1_455 S
C269 O270 1.212 1_554 S
O270 C269 1.212 1_556 S
H271 C266 0.930 1_655 S
H272 C267 0.930 . S
O273 Cu253 1.959 . S
O273 C260 1.251 1_655 S
H274 C257 0.930 . S
H275 C268 0.929 . S
Cu276 N277 1.999 . S
Cu276 O282 1.974 . S
Cu276 N287 1.985 1_545 S
Cu276 O296 1.959 . S
N277 Cu276 1.999 . S
N277 C279 1.263 . S
N277 C281 1.389 . S
N278 C279 1.358 . S
N278 C280 1.400 . S
C279 N277 1.263 . S
C279 N278 1.358 . S
C279 H285 0.930 . S
C280 N278 1.400 . S
C280 C281 1.351 . S
C280 H297 0.930 . S
C281 N277 1.389 . S
C281 C280 1.351 . S
C281 H286 0.930 . S
O282 Cu276 1.974 . S
O282 C292 1.282 1_545 S
C283 O284 1.261 . S
C283 O296 1.251 1_565 S
O284 C283 1.261 . S
H285 C279 0.930 . S
H286 C281 0.930 . S
N287 Cu276 1.985 1_565 S
N287 C289 1.335 . S
N287 C290 1.390 . S
N288 C289 1.345 . S
N288 C291 1.336 . S
C289 N287 1.335 . S
C289 N288 1.345 . S
C289 H294 0.930 1_565 S
C290 N287 1.390 . S
C290 C291 1.346 . S
C290 H295 0.930 . S
C291 N288 1.336 . S
C291 C290 1.346 . S
C291 H298 0.929 . S
C292 O282 1.282 1_565 S
C292 O293 1.216 . S
O293 C292 1.216 . S
H294 C289 0.930 1_545 S
H295 C290 0.930 . S
O296 Cu276 1.959 . S
O296 C283 1.251 1_545 S
H297 C280 0.930 . S
H298 C291 0.929 . S
Cu299 N300 1.999 . S
Cu299 O305 1.974 . S
Cu299 N310 1.985 . S
Cu299 O319 1.959 . S
N300 Cu299 1.999 . S
N300 C302 1.263 . S
N300 C304 1.389 . S
N301 C302 1.358 . S
N301 C303 1.400 . S
C302 N300 1.263 . S
C302 N301 1.358 . S
C302 H308 0.930 . S
C303 N301 1.400 . S
C303 C304 1.351 . S
C303 H320 0.930 . S
C304 N300 1.389 . S
C304 C303 1.351 . S
C304 H309 0.930 . S
O305 Cu299 1.974 . S
O305 C315 1.282 . S
C306 O307 1.261 . S
C306 O319 1.251 . S
O307 C306 1.261 . S
H308 C302 0.930 . S
H309 C304 0.930 . S
N310 Cu299 1.985 . S
N310 C312 1.335 . S
N310 C313 1.390 . S
N311 C312 1.345 . S
N311 C314 1.336 . S
C312 N310 1.335 . S
C312 N311 1.345 . S
C312 H317 0.930 . S
C313 N310 1.390 . S
C313 C314 1.346 . S
C313 H318 0.930 . S
C314 N311 1.336 . S
C314 C313 1.346 . S
C314 H321 0.929 . S
C315 O305 1.282 . S
C315 O316 1.216 . S
O316 C315 1.216 . S
H317 C312 0.930 . S
H318 C313 0.930 . S
O319 Cu299 1.959 . S
O319 C306 1.251 . S
H320 C303 0.930 . S
H321 C314 0.929 . S
Cu322 N323 1.999 . S
Cu322 O328 1.974 . S
Cu322 N333 1.985 . S
Cu322 O342 1.959 . S
N323 Cu322 1.999 . S
N323 C325 1.263 . S
N323 C327 1.389 . S
N324 C325 1.358 . S
N324 C326 1.400 . S
C325 N323 1.263 . S
C325 N324 1.358 . S
C325 H331 0.930 . S
C326 N324 1.400 . S
C326 C327 1.351 . S
C326 H343 0.930 . S
C327 N323 1.389 . S
C327 C326 1.351 . S
C327 H332 0.930 . S
O328 Cu322 1.974 . S
O328 C338 1.282 . S
C329 O330 1.261 . S
C329 O342 1.251 . S
O330 C329 1.261 . S
H331 C325 0.930 . S
H332 C327 0.930 . S
N333 Cu322 1.985 . S
N333 C335 1.335 . S
N333 C336 1.390 . S
N334 C335 1.345 . S
N334 C337 1.336 . S
C335 N333 1.335 . S
C335 N334 1.345 . S
C335 H340 0.930 . S
C336 N333 1.390 . S
C336 C337 1.346 . S
C336 H341 0.930 . S
C337 N334 1.336 . S
C337 C336 1.346 . S
C337 H344 0.929 . S
C338 O328 1.282 . S
C338 O339 1.216 . S
O339 C338 1.216 . S
H340 C335 0.930 . S
H341 C336 0.930 . S
O342 Cu322 1.959 . S
O342 C329 1.251 . S
H343 C326 0.930 . S
H344 C337 0.929 . S
Cu345 N346 1.999 . S
Cu345 O351 1.974 . S
Cu345 N356 1.985 1_455 S
Cu345 O365 1.959 . S
N346 Cu345 1.999 . S
N346 C348 1.263 . S
N346 C350 1.389 . S
N347 C348 1.358 . S
N347 C349 1.400 . S
C348 N346 1.263 . S
C348 N347 1.358 . S
C348 H354 0.930 . S
C349 N347 1.400 . S
C349 C350 1.351 . S
C349 H366 0.930 . S
C350 N346 1.389 . S
C350 C349 1.351 . S
C350 H355 0.930 . S
O351 Cu345 1.974 . S
O351 C361 1.282 1_455 S
C352 O353 1.261 . S
C352 O365 1.251 1_655 S
O353 C352 1.261 . S
H354 C348 0.930 . S
H355 C350 0.930 . S
N356 Cu345 1.985 1_655 S
N356 C358 1.335 . S
N356 C359 1.390 . S
N357 C358 1.345 . S
N357 C360 1.336 . S
C358 N356 1.335 . S
C358 N357 1.345 . S
C358 H363 0.930 1_655 S
C359 N356 1.390 . S
C359 C360 1.346 . S
C359 H364 0.930 . S
C360 N357 1.336 . S
C360 C359 1.346 . S
C360 H367 0.929 . S
C361 O351 1.282 1_655 S
C361 O362 1.216 . S
O362 C361 1.216 . S
H363 C358 0.930 1_455 S
H364 C359 0.930 . S
O365 Cu345 1.959 . S
O365 C352 1.251 1_455 S
H366 C349 0.930 . S
H367 C360 0.929 . S
H368 C374 0.930 . S
H369 C378 0.930 . S
H370 C383 0.929 . S
H371 C381 0.929 . S
H372 C376 0.929 . S
H373 C382 0.929 . S
C374 H368 0.930 . S
C374 C375 1.367 . S
C374 C382 1.378 . S
C375 C374 1.367 . S
C375 C383 1.433 . S
C376 H372 0.929 . S
C376 C378 1.378 . S
C376 C380 1.350 . S
C377 C380 1.463 . S
C377 C382 1.350 . S
C377 N385 1.427 . S
C378 H369 0.930 . S
C378 C376 1.378 . S
C378 C379 1.367 . S
C379 C378 1.367 . S
C379 C381 1.433 . S
C380 C376 1.350 . S
C380 C377 1.463 . S
C380 N384 1.427 . S
C381 H371 0.929 . S
C381 C379 1.433 . S
C381 N384 1.384 . S
C382 H373 0.929 . S
C382 C374 1.378 . S
C382 C377 1.350 . S
C383 H370 0.929 . S
C383 C375 1.433 . S
C383 N385 1.384 . S
N384 C380 1.427 . S
N384 C381 1.384 . S
N385 C377 1.427 . S
N385 C383 1.384 . S
H386 C392 0.930 . S
H387 C396 0.930 . S
H388 C401 0.929 . S
H389 C399 0.929 . S
H390 C394 0.929 . S
H391 C400 0.929 . S
C392 H386 0.930 . S
C392 C393 1.367 . S
C392 C400 1.378 . S
C393 C392 1.367 . S
C393 C401 1.433 . S
C394 H390 0.929 . S
C394 C396 1.378 . S
C394 C398 1.350 . S
C395 C398 1.463 . S
C395 C400 1.350 . S
C395 N403 1.427 . S
C396 H387 0.930 . S
C396 C394 1.378 . S
C396 C397 1.367 . S
C397 C396 1.367 . S
C397 C399 1.433 . S
C398 C394 1.350 . S
C398 C395 1.463 . S
C398 N402 1.427 . S
C399 H389 0.929 . S
C399 C397 1.433 . S
C399 N402 1.384 . S
C400 H391 0.929 . S
C400 C392 1.378 . S
C400 C395 1.350 . S
C401 H388 0.929 . S
C401 C393 1.433 . S
C401 N403 1.384 . S
N402 C398 1.427 . S
N402 C399 1.384 . S
N403 C395 1.427 . S
N403 C401 1.384 . S
H404 C410 0.930 . S
H405 C414 0.930 . S
H406 C419 0.929 . S
H407 C417 0.929 . S
H408 C412 0.929 . S
H409 C418 0.929 . S
C410 H404 0.930 . S
C410 C411 1.367 . S
C410 C418 1.378 . S
C411 C410 1.367 . S
C411 C419 1.433 . S
C412 H408 0.929 . S
C412 C414 1.378 . S
C412 C416 1.350 . S
C413 C416 1.463 . S
C413 C418 1.350 . S
C413 N421 1.427 . S
C414 H405 0.930 . S
C414 C412 1.378 . S
C414 C415 1.367 . S
C415 C414 1.367 . S
C415 C417 1.433 . S
C416 C412 1.350 . S
C416 C413 1.463 . S
C416 N420 1.427 . S
C417 H407 0.929 . S
C417 C415 1.433 . S
C417 N420 1.384 . S
C418 H409 0.929 . S
C418 C410 1.378 . S
C418 C413 1.350 . S
C419 H406 0.929 . S
C419 C411 1.433 . S
C419 N421 1.384 . S
N420 C416 1.427 . S
N420 C417 1.384 . S
N421 C413 1.427 . S
N421 C419 1.384 . S
H422 C428 0.930 . S
H423 C432 0.930 . S
H424 C437 0.929 . S
H425 C435 0.929 . S
H426 C430 0.929 . S
H427 C436 0.929 . S
C428 H422 0.930 . S
C428 C429 1.367 . S
C428 C436 1.378 . S
C429 C428 1.367 . S
C429 C437 1.433 . S
C430 H426 0.929 . S
C430 C432 1.378 . S
C430 C434 1.350 . S
C431 C434 1.463 . S
C431 C436 1.350 . S
C431 N439 1.427 . S
C432 H423 0.930 . S
C432 C430 1.378 . S
C432 C433 1.367 . S
C433 C432 1.367 . S
C433 C435 1.433 . S
C434 C430 1.350 . S
C434 C431 1.463 . S
C434 N438 1.427 . S
C435 H425 0.929 . S
C435 C433 1.433 . S
C435 N438 1.384 . S
C436 H427 0.929 . S
C436 C428 1.378 . S
C436 C431 1.350 . S
C437 H424 0.929 . S
C437 C429 1.433 . S
C437 N439 1.384 . S
N438 C434 1.427 . S
N438 C435 1.384 . S
N439 C431 1.427 . S
N439 C437 1.384 . S
H440 C446 0.930 . S
H441 C450 0.930 . S
H442 C455 0.929 . S
H443 C453 0.929 . S
H444 C448 0.929 . S
H445 C454 0.929 . S
C446 H440 0.930 . S
C446 C447 1.367 . S
C446 C454 1.378 . S
C447 C446 1.367 . S
C447 C455 1.433 . S
C448 H444 0.929 . S
C448 C450 1.378 . S
C448 C452 1.350 . S
C449 C452 1.463 . S
C449 C454 1.350 . S
C449 N457 1.427 . S
C450 H441 0.930 . S
C450 C448 1.378 . S
C450 C451 1.367 . S
C451 C450 1.367 . S
C451 C453 1.433 . S
C452 C448 1.350 . S
C452 C449 1.463 . S
C452 N456 1.427 . S
C453 H443 0.929 . S
C453 C451 1.433 . S
C453 N456 1.384 . S
C454 H445 0.929 . S
C454 C446 1.378 . S
C454 C449 1.350 . S
C455 H442 0.929 . S
C455 C447 1.433 . S
C455 N457 1.384 . S
N456 C452 1.427 . S
N456 C453 1.384 . S
N457 C449 1.427 . S
N457 C455 1.384 . S
H458 C464 0.930 . S
H459 C468 0.930 . S
H460 C473 0.929 . S
H461 C471 0.929 . S
H462 C466 0.929 . S
H463 C472 0.929 . S
C464 H458 0.930 . S
C464 C465 1.367 . S
C464 C472 1.378 . S
C465 C464 1.367 . S
C465 C473 1.433 . S
C466 H462 0.929 . S
C466 C468 1.378 . S
C466 C470 1.350 . S
C467 C470 1.463 . S
C467 C472 1.350 . S
C467 N475 1.427 . S
C468 H459 0.930 . S
C468 C466 1.378 . S
C468 C469 1.367 . S
C469 C468 1.367 . S
C469 C471 1.433 . S
C470 C466 1.350 . S
C470 C467 1.463 . S
C470 N474 1.427 . S
C471 H461 0.929 . S
C471 C469 1.433 . S
C471 N474 1.384 . S
C472 H463 0.929 . S
C472 C464 1.378 . S
C472 C467 1.350 . S
C473 H460 0.929 . S
C473 C465 1.433 . S
C473 N475 1.384 . S
N474 C470 1.427 . S
N474 C471 1.384 . S
N475 C467 1.427 . S
N475 C473 1.384 . S
H476 C482 0.930 . S
H477 C486 0.930 . S
H478 C491 0.929 . S
H479 C489 0.929 . S
H480 C484 0.929 . S
H481 C490 0.929 . S
C482 H476 0.930 . S
C482 C483 1.367 . S
C482 C490 1.378 . S
C483 C482 1.367 . S
C483 C491 1.433 . S
C484 H480 0.929 . S
C484 C486 1.378 . S
C484 C488 1.350 . S
C485 C488 1.463 . S
C485 C490 1.350 . S
C485 N493 1.427 . S
C486 H477 0.930 . S
C486 C484 1.378 . S
C486 C487 1.367 . S
C487 C486 1.367 . S
C487 C489 1.433 . S
C488 C484 1.350 . S
C488 C485 1.463 . S
C488 N492 1.427 . S
C489 H479 0.929 . S
C489 C487 1.433 . S
C489 N492 1.384 . S
C490 H481 0.929 . S
C490 C482 1.378 . S
C490 C485 1.350 . S
C491 H478 0.929 . S
C491 C483 1.433 . S
C491 N493 1.384 . S
N492 C488 1.427 . S
N492 C489 1.384 . S
N493 C485 1.427 . S
N493 C491 1.384 . S
H494 C500 0.930 . S
H495 C504 0.930 . S
H496 C509 0.929 . S
H497 C507 0.929 . S
H498 C502 0.929 . S
H499 C508 0.929 . S
C500 H494 0.930 . S
C500 C501 1.367 . S
C500 C508 1.378 . S
C501 C500 1.367 . S
C501 C509 1.433 . S
C502 H498 0.929 . S
C502 C504 1.378 . S
C502 C506 1.350 . S
C503 C506 1.463 . S
C503 C508 1.350 . S
C503 N511 1.427 . S
C504 H495 0.930 . S
C504 C502 1.378 . S
C504 C505 1.367 . S
C505 C504 1.367 . S
C505 C507 1.433 . S
C506 C502 1.350 . S
C506 C503 1.463 . S
C506 N510 1.427 . S
C507 H497 0.929 . S
C507 C505 1.433 . S
C507 N510 1.384 . S
C508 H499 0.929 . S
C508 C500 1.378 . S
C508 C503 1.350 . S
C509 H496 0.929 . S
C509 C501 1.433 . S
C509 N511 1.384 . S
N510 C506 1.427 . S
N510 C507 1.384 . S
N511 C503 1.427 . S
N511 C509 1.384 . S
H512 C518 0.930 . S
H513 C522 0.930 . S
H514 C527 0.929 . S
H515 C525 0.929 . S
H516 C520 0.929 . S
H517 C526 0.929 . S
C518 H512 0.930 . S
C518 C519 1.367 1_545 S
C518 C526 1.378 . S
C519 C518 1.367 1_565 S
C519 C527 1.433 . S
C520 H516 0.929 . S
C520 C522 1.378 . S
C520 C524 1.350 . S
C521 C524 1.463 . S
C521 C526 1.350 1_565 S
C521 N529 1.427 . S
C522 H513 0.930 . S
C522 C520 1.378 . S
C522 C523 1.367 . S
C523 C522 1.367 . S
C523 C525 1.433 1_565 S
C524 C520 1.350 . S
C524 C521 1.463 . S
C524 N528 1.427 1_565 S
C525 H515 0.929 . S
C525 C523 1.433 1_545 S
C525 N528 1.384 . S
C526 H517 0.929 . S
C526 C518 1.378 . S
C526 C521 1.350 1_545 S
C527 H514 0.929 . S
C527 C519 1.433 . S
C527 N529 1.384 . S
N528 C524 1.427 1_545 S
N528 C525 1.384 . S
N529 C521 1.427 . S
N529 C527 1.384 . S
H530 C536 0.930 . S
H531 C540 0.930 . S
H532 C545 0.929 . S
H533 C543 0.929 . S
H534 C538 0.929 . S
H535 C544 0.929 . S
C536 H530 0.930 . S
C536 C537 1.367 . S
C536 C544 1.378 . S
C537 C536 1.367 . S
C537 C545 1.433 . S
C538 H534 0.929 . S
C538 C540 1.378 . S
C538 C542 1.350 . S
C539 C542 1.463 . S
C539 C544 1.350 . S
C539 N547 1.427 . S
C540 H531 0.930 . S
C540 C538 1.378 . S
C540 C541 1.367 . S
C541 C540 1.367 . S
C541 C543 1.433 . S
C542 C538 1.350 . S
C542 C539 1.463 . S
C542 N546 1.427 . S
C543 H533 0.929 . S
C543 C541 1.433 . S
C543 N546 1.384 . S
C544 H535 0.929 . S
C544 C536 1.378 . S
C544 C539 1.350 . S
C545 H532 0.929 . S
C545 C537 1.433 . S
C545 N547 1.384 . S
N546 C542 1.427 . S
N546 C543 1.384 . S
N547 C539 1.427 . S
N547 C545 1.384 . S
H548 C554 0.930 . S
H549 C558 0.930 . S
H550 C563 0.929 . S
H551 C561 0.929 . S
H552 C556 0.929 . S
H553 C562 0.929 . S
C554 H548 0.930 . S
C554 C555 1.367 . S
C554 C562 1.378 . S
C555 C554 1.367 . S
C555 C563 1.433 . S
C556 H552 0.929 . S
C556 C558 1.378 . S
C556 C560 1.350 . S
C557 C560 1.463 . S
C557 C562 1.350 . S
C557 N565 1.427 . S
C558 H549 0.930 . S
C558 C556 1.378 . S
C558 C559 1.367 . S
C559 C558 1.367 . S
C559 C561 1.433 . S
C560 C556 1.350 . S
C560 C557 1.463 . S
C560 N564 1.427 . S
C561 H551 0.929 . S
C561 C559 1.433 . S
C561 N564 1.384 . S
C562 H553 0.929 . S
C562 C554 1.378 . S
C562 C557 1.350 . S
C563 H550 0.929 . S
C563 C555 1.433 . S
C563 N565 1.384 . S
N564 C560 1.427 . S
N564 C561 1.384 . S
N565 C557 1.427 . S
N565 C563 1.384 . S
H566 C572 0.930 . S
H567 C576 0.930 . S
H568 C581 0.929 . S
H569 C579 0.929 . S
H570 C574 0.929 . S
H571 C580 0.929 . S
C572 H566 0.930 . S
C572 C573 1.367 . S
C572 C580 1.378 . S
C573 C572 1.367 . S
C573 C581 1.433 1_655 S
C574 H570 0.929 . S
C574 C576 1.378 . S
C574 C578 1.350 1_455 S
C575 C578 1.463 . S
C575 C580 1.350 . S
C575 N583 1.427 1_655 S
C576 H567 0.930 . S
C576 C574 1.378 . S
C576 C577 1.367 1_455 S
C577 C576 1.367 1_655 S
C577 C579 1.433 . S
C578 C574 1.350 1_655 S
C578 C575 1.463 . S
C578 N582 1.427 . S
C579 H569 0.929 . S
C579 C577 1.433 . S
C579 N582 1.384 . S
C580 H571 0.929 . S
C580 C572 1.378 . S
C580 C575 1.350 . S
C581 H568 0.929 . S
C581 C573 1.433 1_455 S
C581 N583 1.384 . S
N582 C578 1.427 . S
N582 C579 1.384 . S
N583 C575 1.427 1_455 S
N583 C581 1.384 . S
H584 C590 0.939 . S
H585 C594 0.930 . S
H586 C599 0.929 . S
H587 C597 0.929 . S
H588 C592 0.929 . S
H589 C598 0.929 . S
C590 H584 0.939 . S
C590 C591 1.358 1_565 S
C590 C598 1.379 . S
C591 C590 1.358 1_545 S
C591 C599 1.433 . S
C592 H588 0.929 . S
C592 C594 1.378 . S
C592 C596 1.350 . S
C593 C596 1.463 . S
C593 C598 1.350 1_545 S
C593 N601 1.427 . S
C594 H585 0.930 . S
C594 C592 1.378 . S
C594 C595 1.367 . S
C595 C594 1.367 . S
C595 C597 1.433 1_545 S
C596 C592 1.350 . S
C596 C593 1.463 . S
C596 N600 1.427 1_545 S
C597 H587 0.929 . S
C597 C595 1.433 1_565 S
C597 N600 1.384 . S
C598 H589 0.929 . S
C598 C590 1.379 . S
C598 C593 1.350 1_565 S
C599 H586 0.929 . S
C599 C591 1.433 . S
C599 N601 1.384 . S
N600 C596 1.427 1_565 S
N600 C597 1.384 . S
N601 C593 1.427 . S
N601 C599 1.384 . S
H602 C608 0.930 . S
H603 C612 0.930 . S
H604 C617 0.929 . S
H605 C615 0.929 . S
H606 C610 0.929 . S
H607 C616 0.929 . S
C608 H602 0.930 . S
C608 C609 1.367 . S
C608 C616 1.378 . S
C609 C608 1.367 . S
C609 C617 1.433 . S
C610 H606 0.929 . S
C610 C612 1.378 . S
C610 C614 1.350 . S
C611 C614 1.463 . S
C611 C616 1.350 . S
C611 N619 1.427 . S
C612 H603 0.930 . S
C612 C610 1.378 . S
C612 C613 1.367 . S
C613 C612 1.367 . S
C613 C615 1.433 . S
C614 C610 1.350 . S
C614 C611 1.463 . S
C614 N618 1.427 . S
C615 H605 0.929 . S
C615 C613 1.433 . S
C615 N618 1.384 . S
C616 H607 0.929 . S
C616 C608 1.378 . S
C616 C611 1.350 . S
C617 H604 0.929 . S
C617 C609 1.433 . S
C617 N619 1.384 . S
N618 C614 1.427 . S
N618 C615 1.384 . S
N619 C611 1.427 . S
N619 C617 1.384 . S
H620 C626 0.930 . S
H621 C630 0.930 . S
H622 C635 0.929 . S
H623 C633 0.929 . S
H624 C628 0.929 . S
H625 C634 0.929 . S
C626 H620 0.930 . S
C626 C627 1.367 . S
C626 C634 1.378 . S
C627 C626 1.367 . S
C627 C635 1.433 . S
C628 H624 0.929 . S
C628 C630 1.378 . S
C628 C632 1.350 . S
C629 C632 1.463 . S
C629 C634 1.350 . S
C629 N637 1.427 . S
C630 H621 0.930 . S
C630 C628 1.378 . S
C630 C631 1.367 . S
C631 C630 1.367 . S
C631 C633 1.433 . S
C632 C628 1.350 . S
C632 C629 1.463 . S
C632 N636 1.427 . S
C633 H623 0.929 . S
C633 C631 1.433 . S
C633 N636 1.384 . S
C634 H625 0.929 . S
C634 C626 1.378 . S
C634 C629 1.350 . S
C635 H622 0.929 . S
C635 C627 1.433 . S
C635 N637 1.384 . S
N636 C632 1.427 . S
N636 C633 1.384 . S
N637 C629 1.427 . S
N637 C635 1.384 . S
H638 C644 0.930 . S
H639 C648 0.930 . S
H640 C653 0.929 . S
H641 C651 0.929 . S
H642 C646 0.929 . S
H643 C652 0.929 . S
C644 H638 0.930 . S
C644 C645 1.367 . S
C644 C652 1.378 . S
C645 C644 1.367 . S
C645 C653 1.433 1_455 S
C646 H642 0.929 . S
C646 C648 1.378 . S
C646 C650 1.350 1_655 S
C647 C650 1.463 . S
C647 C652 1.350 . S
C647 N655 1.427 1_455 S
C648 H639 0.930 . S
C648 C646 1.378 . S
C648 C649 1.367 1_655 S
C649 C648 1.367 1_455 S
C649 C651 1.433 . S
C650 C646 1.350 1_455 S
C650 C647 1.463 . S
C650 N654 1.427 . S
C651 H641 0.929 . S
C651 C649 1.433 . S
C651 N654 1.384 . S
C652 H643 0.929 . S
C652 C644 1.378 . S
C652 C647 1.350 . S
C653 H640 0.929 . S
C653 C645 1.433 1_655 S
C653 N655 1.384 . S
N654 C650 1.427 . S
N654 C651 1.384 . S
N655 C647 1.427 1_655 S
N655 C653 1.384 . S
H656 C662 0.930 . S
H657 C666 0.930 . S
H658 C671 0.929 . S
H659 C669 0.929 . S
H660 C664 0.929 . S
H661 C670 0.929 . S
C662 H656 0.930 . S
C662 C663 1.367 1_565 S
C662 C670 1.378 . S
C663 C662 1.367 1_545 S
C663 C671 1.433 . S
C664 H660 0.929 . S
C664 C666 1.378 . S
C664 C668 1.350 . S
C665 C668 1.463 . S
C665 C670 1.350 1_545 S
C665 N673 1.427 . S
C666 H657 0.930 . S
C666 C664 1.378 . S
C666 C667 1.367 . S
C667 C666 1.367 . S
C667 C669 1.433 1_545 S
C668 C664 1.350 . S
C668 C665 1.463 . S
C668 N672 1.427 1_545 S
C669 H659 0.929 . S
C669 C667 1.433 1_565 S
C669 N672 1.384 . S
C670 H661 0.929 . S
C670 C662 1.378 . S
C670 C665 1.350 1_565 S
C671 H658 0.929 . S
C671 C663 1.433 . S
C671 N673 1.384 . S
N672 C668 1.427 1_565 S
N672 C669 1.384 . S
N673 C665 1.427 . S
N673 C671 1.384 . S
H674 C680 0.930 . S
H675 C684 0.930 . S
H676 C689 0.929 . S
H677 C687 0.929 . S
H678 C682 0.929 . S
H679 C688 0.929 . S
C680 H674 0.930 . S
C680 C681 1.367 . S
C680 C688 1.378 . S
C681 C680 1.367 . S
C681 C689 1.433 . S
C682 H678 0.929 . S
C682 C684 1.378 . S
C682 C686 1.350 . S
C683 C686 1.463 . S
C683 C688 1.350 . S
C683 N691 1.427 . S
C684 H675 0.930 . S
C684 C682 1.378 . S
C684 C685 1.367 . S
C685 C684 1.367 . S
C685 C687 1.433 . S
C686 C682 1.350 . S
C686 C683 1.463 . S
C686 N690 1.427 . S
C687 H677 0.929 . S
C687 C685 1.433 . S
C687 N690 1.384 . S
C688 H679 0.929 . S
C688 C680 1.378 . S
C688 C683 1.350 . S
C689 H676 0.929 . S
C689 C681 1.433 . S
C689 N691 1.384 . S
N690 C686 1.427 . S
N690 C687 1.384 . S
N691 C683 1.427 . S
N691 C689 1.384 . S
H692 C698 0.930 . S
H693 C702 0.930 . S
H694 C707 0.929 . S
H695 C705 0.929 . S
H696 C700 0.929 . S
H697 C706 0.929 . S
C698 H692 0.930 . S
C698 C699 1.367 . S
C698 C706 1.378 . S
C699 C698 1.367 . S
C699 C707 1.433 . S
C700 H696 0.929 . S
C700 C702 1.378 . S
C700 C704 1.350 . S
C701 C704 1.463 . S
C701 C706 1.350 . S
C701 N709 1.427 . S
C702 H693 0.930 . S
C702 C700 1.378 . S
C702 C703 1.367 . S
C703 C702 1.367 . S
C703 C705 1.433 . S
C704 C700 1.350 . S
C704 C701 1.463 . S
C704 N708 1.427 . S
C705 H695 0.929 . S
C705 C703 1.433 . S
C705 N708 1.384 . S
C706 H697 0.929 . S
C706 C698 1.378 . S
C706 C701 1.350 . S
C707 H694 0.929 . S
C707 C699 1.433 . S
C707 N709 1.384 . S
N708 C704 1.427 . S
N708 C705 1.384 . S
N709 C701 1.427 . S
N709 C707 1.384 . S
H710 C716 0.930 . S
H711 C720 0.930 . S
H712 C725 0.943 . S
H713 C723 0.929 . S
H714 C718 0.929 . S
H715 C724 0.929 . S
C716 H710 0.930 . S
C716 C717 1.367 . S
C716 C724 1.378 . S
C717 C716 1.367 . S
C717 C725 1.418 1_455 S
C718 H714 0.929 . S
C718 C720 1.378 . S
C718 C722 1.350 1_655 S
C719 C722 1.463 . S
C719 C724 1.350 . S
C719 N727 1.427 1_455 S
C720 H711 0.930 . S
C720 C718 1.378 . S
C720 C721 1.367 1_655 S
C721 C720 1.367 1_455 S
C721 C723 1.433 . S
C722 C718 1.350 1_455 S
C722 C719 1.463 . S
C722 N726 1.427 . S
C723 H713 0.929 . S
C723 C721 1.433 . S
C723 N726 1.384 . S
C724 H715 0.929 . S
C724 C716 1.378 . S
C724 C719 1.350 . S
C725 H712 0.943 . S
C725 C717 1.418 1_655 S
C725 N727 1.385 . S
N726 C722 1.427 . S
N726 C723 1.384 . S
N727 C719 1.427 1_655 S
N727 C725 1.385 . S
H728 C734 0.930 . S
H729 C738 0.930 . S
H730 C743 0.929 . S
H731 C741 0.929 1_545 S
H732 C736 0.929 . S
H733 C742 0.929 . S
C734 H728 0.930 . S
C734 C735 1.367 1_545 S
C734 C742 1.378 . S
C735 C734 1.367 1_565 S
C735 C743 1.433 . S
C736 H732 0.929 . S
C736 C738 1.378 . S
C736 C740 1.350 . S
C737 C740 1.463 . S
C737 C742 1.350 1_565 S
C737 N745 1.427 . S
C738 H729 0.930 . S
C738 C736 1.378 . S
C738 C739 1.367 . S
C739 C738 1.367 . S
C739 C741 1.433 . S
C740 C736 1.350 . S
C740 C737 1.463 . S
C740 N744 1.408 1_565 S
C741 H731 0.929 1_565 S
C741 C739 1.433 . S
C741 N744 1.383 1_565 S
C742 H733 0.929 . S
C742 C734 1.378 . S
C742 C737 1.350 1_545 S
C743 H730 0.929 . S
C743 C735 1.433 . S
C743 N745 1.384 . S
N744 C740 1.408 1_545 S
N744 C741 1.383 1_545 S
N745 C737 1.427 . S
N745 C743 1.384 . S
H746 C752 0.930 . S
H747 C756 0.930 . S
H748 C761 0.929 . S
H749 C759 0.929 . S
H750 C754 0.929 . S
H751 C760 0.929 . S
C752 H746 0.930 . S
C752 C753 1.367 . S
C752 C760 1.378 . S
C753 C752 1.367 . S
C753 C761 1.433 . S
C754 H750 0.929 . S
C754 C756 1.378 . S
C754 C758 1.350 . S
C755 C758 1.463 . S
C755 C760 1.350 . S
C755 N763 1.427 . S
C756 H747 0.930 . S
C756 C754 1.378 . S
C756 C757 1.367 . S
C757 C756 1.367 . S
C757 C759 1.433 . S
C758 C754 1.350 . S
C758 C755 1.463 . S
C758 N762 1.427 . S
C759 H749 0.929 . S
C759 C757 1.433 . S
C759 N762 1.384 . S
C760 H751 0.929 . S
C760 C752 1.378 . S
C760 C755 1.350 . S
C761 H748 0.929 . S
C761 C753 1.433 . S
C761 N763 1.384 . S
N762 C758 1.427 . S
N762 C759 1.384 . S
N763 C755 1.427 . S
N763 C761 1.384 . S
H764 C770 0.930 . S
H765 C774 0.930 . S
H766 C779 0.929 . S
H767 C777 0.929 . S
H768 C772 0.929 . S
H769 C778 0.929 . S
C770 H764 0.930 . S
C770 C771 1.367 . S
C770 C778 1.378 . S
C771 C770 1.367 . S
C771 C779 1.433 . S
C772 H768 0.929 . S
C772 C774 1.378 . S
C772 C776 1.350 . S
C773 C776 1.463 . S
C773 C778 1.350 . S
C773 N781 1.427 . S
C774 H765 0.930 . S
C774 C772 1.378 . S
C774 C775 1.367 . S
C775 C774 1.367 . S
C775 C777 1.433 . S
C776 C772 1.350 . S
C776 C773 1.463 . S
C776 N780 1.427 . S
C777 H767 0.929 . S
C777 C775 1.433 . S
C777 N780 1.384 . S
C778 H769 0.929 . S
C778 C770 1.378 . S
C778 C773 1.350 . S
C779 H766 0.929 . S
C779 C771 1.433 . S
C779 N781 1.384 . S
N780 C776 1.427 . S
N780 C777 1.384 . S
N781 C773 1.427 . S
N781 C779 1.384 . S
H782 C788 0.930 . S
H783 C792 0.930 . S
H784 C797 0.941 . S
H785 C795 0.929 . S
H786 C790 0.915 1_455 S
H787 C796 0.929 . S
C788 H782 0.930 . S
C788 C789 1.367 . S
C788 C796 1.378 . S
C789 C788 1.367 . S
C789 C797 1.424 1_655 S
C790 H786 0.915 1_655 S
C790 C792 1.378 . S
C790 C794 1.350 . S
C791 C794 1.463 . S
C791 C796 1.350 . S
C791 N799 1.427 . S
C792 H783 0.930 . S
C792 C790 1.378 . S
C792 C793 1.367 . S
C793 C792 1.367 . S
C793 C795 1.433 . S
C794 C790 1.350 . S
C794 C791 1.463 . S
C794 N798 1.427 . S
C795 H785 0.929 . S
C795 C793 1.433 . S
C795 N798 1.384 . S
C796 H787 0.929 . S
C796 C788 1.378 . S
C796 C791 1.350 . S
C797 H784 0.941 . S
C797 C789 1.424 1_455 S
C797 N799 1.381 1_455 S
N798 C794 1.427 . S
N798 C795 1.384 . S
N799 C791 1.427 . S
N799 C797 1.381 1_655 S
H800 C806 0.930 . S
H801 C810 0.930 . S
H802 C815 0.929 . S
H803 C813 0.929 . S
H804 C808 0.929 . S
H805 C814 0.929 . S
C806 H800 0.930 . S
C806 C807 1.367 1_565 S
C806 C814 1.378 . S
C807 C806 1.367 1_545 S
C807 C815 1.433 1_554 S
C808 H804 0.929 . S
C808 C810 1.378 . S
C808 C812 1.325 1_545 S
C809 C812 1.461 1_544 S
C809 C814 1.331 1_545 S
C809 N817 1.451 1_554 S
C810 H801 0.930 . S
C810 C808 1.378 . S
C810 C811 1.367 1_545 S
C811 C810 1.367 1_565 S
C811 C813 1.433 1_556 S
C812 C808 1.325 1_565 S
C812 C809 1.461 1_566 S
C812 N816 1.457 1_556 S
C813 H803 0.929 . S
C813 C811 1.433 1_554 S
C813 N816 1.384 . S
C814 H805 0.929 . S
C814 C806 1.378 . S
C814 C809 1.331 1_565 S
C815 H802 0.929 . S
C815 C807 1.433 1_556 S
C815 N817 1.384 . S
N816 C812 1.457 1_554 S
N816 C813 1.384 . S
N817 C809 1.451 1_556 S
N817 C815 1.384 . S
H818 C824 0.930 . S
H819 C828 0.930 . S
H820 C833 0.929 . S
H821 C831 0.929 . S
H822 C826 0.929 . S
H823 C832 0.929 . S
C824 H818 0.930 . S
C824 C825 1.361 1_556 S
C824 C832 1.378 . S
C825 C824 1.361 1_554 S
C825 C833 1.440 . S
C826 H822 0.929 . S
C826 C828 1.378 . S
C826 C830 1.350 . S
C827 C830 1.463 1_556 S
C827 C832 1.350 . S
C827 N835 1.427 1_556 S
C828 H819 0.930 . S
C828 C826 1.378 . S
C828 C829 1.361 1_554 S
C829 C828 1.361 1_556 S
C829 C831 1.440 . S
C830 C826 1.350 . S
C830 C827 1.463 1_554 S
C830 N834 1.427 1_554 S
C831 H821 0.929 . S
C831 C829 1.440 . S
C831 N834 1.384 . S
C832 H823 0.929 . S
C832 C824 1.378 . S
C832 C827 1.350 . S
C833 H820 0.929 . S
C833 C825 1.440 . S
C833 N835 1.384 . S
N834 C830 1.427 1_556 S
N834 C831 1.384 . S
N835 C827 1.427 1_554 S
N835 C833 1.384 . S
H836 C842 0.930 . S
H837 C846 0.930 . S
H838 C851 0.929 . S
H839 C849 0.929 . S
H840 C844 0.929 . S
H841 C850 0.929 . S
C842 H836 0.930 . S
C842 C843 1.367 1_554 S
C842 C850 1.378 . S
C843 C842 1.367 1_556 S
C843 C851 1.433 . S
C844 H840 0.929 . S
C844 C846 1.378 . S
C844 C848 1.356 . S
C845 C848 1.462 1_654 S
C845 C850 1.356 . S
C845 N853 1.421 1_554 S
C846 H837 0.930 . S
C846 C844 1.378 . S
C846 C847 1.367 1_556 S
C847 C846 1.367 1_554 S
C847 C849 1.433 . S
C848 C844 1.356 . S
C848 C845 1.462 1_456 S
C848 N852 1.421 1_556 S
C849 H839 0.929 . S
C849 C847 1.433 . S
C849 N852 1.384 . S
C850 H841 0.929 . S
C850 C842 1.378 . S
C850 C845 1.356 . S
C851 H838 0.929 . S
C851 C843 1.433 . S
C851 N853 1.384 . S
N852 C848 1.421 1_554 S
N852 C849 1.384 . S
N853 C845 1.421 1_556 S
N853 C851 1.384 . S
H854 C860 0.930 . S
H855 C864 0.930 . S
H856 C869 0.929 . S
H857 C867 0.929 . S
H858 C862 0.929 . S
H859 C868 0.929 . S
C860 H854 0.930 . S
C860 C861 1.367 1_655 S
C860 C868 1.378 . S
C861 C860 1.367 1_455 S
C861 C869 1.433 1_554 S
C862 H858 0.929 . S
C862 C864 1.378 . S
C862 C866 1.343 1_455 S
C863 C866 1.457 1_444 S
C863 C868 1.345 1_455 S
C863 N871 1.438 1_554 S
C864 H855 0.930 . S
C864 C862 1.378 . S
C864 C865 1.367 1_455 S
C865 C864 1.367 1_655 S
C865 C867 1.433 1_556 S
C866 C862 1.343 1_655 S
C866 C863 1.457 1_666 S
C866 N870 1.441 1_556 S
C867 H857 0.929 . S
C867 C865 1.433 1_554 S
C867 N870 1.384 . S
C868 H859 0.929 . S
C868 C860 1.378 . S
C868 C863 1.345 1_655 S
C869 H856 0.929 . S
C869 C861 1.433 1_556 S
C869 N871 1.384 . S
N870 C866 1.441 1_554 S
N870 C867 1.384 . S
N871 C863 1.438 1_556 S
N871 C869 1.384 . S
H872 C878 0.930 . S
H873 C882 0.930 . S
H874 C887 0.929 . S
H875 C885 0.929 . S
H876 C880 0.929 . S
H877 C886 0.929 . S
C878 H872 0.930 . S
C878 C879 1.367 1_565 S
C878 C886 1.378 . S
C879 C878 1.367 1_545 S
C879 C887 1.433 . S
C880 H876 0.929 . S
C880 C882 1.378 . S
C880 C884 1.334 1_545 S
C881 C884 1.461 1_445 S
C881 C886 1.341 1_545 S
C881 N889 1.437 . S
C882 H873 0.930 . S
C882 C880 1.378 . S
C882 C883 1.367 1_545 S
C883 C882 1.367 1_565 S
C883 C885 1.433 . S
C884 C880 1.334 1_565 S
C884 C881 1.461 1_665 S
C884 N888 1.446 . S
C885 H875 0.929 . S
C885 C883 1.433 . S
C885 N888 1.384 . S
C886 H877 0.929 . S
C886 C878 1.378 . S
C886 C881 1.341 1_565 S
C887 H874 0.929 . S
C887 C879 1.433 . S
C887 N889 1.384 . S
N888 C884 1.446 . S
N888 C885 1.384 . S
N889 C881 1.437 . S
N889 C887 1.384 . S
H890 C896 0.930 . S
H891 C900 0.930 . S
H892 C905 0.929 . S
H893 C903 0.929 . S
H894 C898 0.929 1_565 S
H895 C904 0.929 1_545 S
C896 H890 0.930 . S
C896 C897 1.367 . S
C896 C904 1.378 . S
C897 C896 1.367 . S
C897 C905 1.433 . S
C898 H894 0.929 1_545 S
C898 C900 1.378 . S
C898 C902 1.350 . S
C899 C902 1.463 1_565 S
C899 C904 1.350 . S
C899 N907 1.427 . S
C900 H891 0.930 . S
C900 C898 1.378 . S
C900 C901 1.367 . S
C901 C900 1.367 . S
C901 C903 1.433 . S
C902 C898 1.350 . S
C902 C899 1.463 1_545 S
C902 N906 1.427 . S
C903 H893 0.929 . S
C903 C901 1.433 . S
C903 N906 1.384 . S
C904 H895 0.929 1_565 S
C904 C896 1.378 . S
C904 C899 1.350 . S
C905 H892 0.929 . S
C905 C897 1.433 . S
C905 N907 1.384 . S
N906 C902 1.427 . S
N906 C903 1.384 . S
N907 C899 1.427 . S
N907 C905 1.384 . S
H908 C914 0.930 . S
H909 C918 0.930 . S
H910 C923 0.929 . S
H911 C921 0.929 . S
H912 C916 0.929 . S
H913 C922 0.929 . S
C914 H908 0.930 . S
C914 C915 1.367 . S
C914 C922 1.378 . S
C915 C914 1.367 . S
C915 C923 1.433 . S
C916 H912 0.929 . S
C916 C918 1.378 . S
C916 C920 1.350 . S
C917 C920 1.463 . S
C917 C922 1.350 . S
C917 N925 1.427 . S
C918 H909 0.930 . S
C918 C916 1.378 . S
C918 C919 1.367 . S
C919 C918 1.367 . S
C919 C921 1.433 . S
C920 C916 1.350 . S
C920 C917 1.463 . S
C920 N924 1.427 . S
C921 H911 0.929 . S
C921 C919 1.433 . S
C921 N924 1.384 . S
C922 H913 0.929 . S
C922 C914 1.378 . S
C922 C917 1.350 . S
C923 H910 0.929 . S
C923 C915 1.433 . S
C923 N925 1.384 . S
N924 C920 1.427 . S
N924 C921 1.384 . S
N925 C917 1.427 . S
N925 C923 1.384 . S
H926 C932 0.929 1_455 S
H927 C936 0.930 1_655 S
H928 C941 0.929 . S
H929 C939 0.929 . S
H930 C934 0.929 . S
H931 C940 0.929 . S
C932 H926 0.929 1_655 S
C932 C933 1.367 . S
C932 C940 1.378 1_655 S
C933 C932 1.367 . S
C933 C941 1.433 . S
C934 H930 0.929 . S
C934 C936 1.378 1_655 S
C934 C938 1.350 1_655 S
C935 C938 1.463 1_655 S
C935 C940 1.350 1_655 S
C935 N943 1.427 . S
C936 H927 0.930 1_455 S
C936 C934 1.378 1_455 S
C936 C937 1.367 . S
C937 C936 1.367 . S
C937 C939 1.433 . S
C938 C934 1.350 1_455 S
C938 C935 1.463 1_455 S
C938 N942 1.427 . S
C939 H929 0.929 . S
C939 C937 1.433 . S
C939 N942 1.384 . S
C940 H931 0.929 . S
C940 C932 1.378 1_455 S
C940 C935 1.350 1_455 S
C941 H928 0.929 . S
C941 C933 1.433 . S
C941 N943 1.384 . S
N942 C938 1.427 . S
N942 C939 1.384 . S
N943 C935 1.427 . S
N943 C941 1.384 . S
C375 N117 0.597 . S
C379 N2 0.566 . S
C393 N140 0.879 . S
C397 N25 0.878 . S
C411 N48 0.619 . S
C415 N163 0.568 . S
C429 N71 0.495 . S
C433 N94 0.479 . S
C447 N186 0.570 . S
C451 N301 0.590 . S
C465 N324 0.898 . S
C469 N209 0.878 . S
C483 N347 0.551 . S
C487 N232 0.604 . S
C501 N255 0.499 . S
C505 N278 0.487 . S
C519 N12 1.720 . S
C523 C283 1.733 . S
C537 C306 2.101 . S
C541 N35 2.076 . S
C555 N58 2.331 . S
C559 C329 2.364 . S
C573 N81 1.916 . S
C577 C352 1.927 . S
C591 N104 1.913 . S
C595 C191 1.927 . S
C609 N127 2.331 . S
C613 C214 2.367 . S
C627 N150 2.067 . S
C631 C237 2.098 . S
C645 N173 1.727 . S
C649 C260 1.738 . S
C663 C99 1.732 . S
C667 N196 1.721 . S
C681 C122 2.104 . S
C685 N219 2.076 . S
C699 C145 2.364 . S
C703 N242 2.329 . S
C717 N265 1.911 . S
C721 C168 1.924 . S
C735 C7 1.923 . S
C739 N288 1.911 . S
C753 N311 2.325 . S
C757 C30 2.367 . S
C771 N334 2.068 . S
C775 C53 2.098 . S
C789 C76 1.729 . S
C793 N357 1.717 . S
C807 C200 1.527 1_554 S
C811 C16 1.526 1_556 S
C825 C223 2.110 1_554 S
C829 C39 2.110 1_556 S
C843 C62 2.526 1_556 S
C847 C246 2.526 1_554 S
C861 C269 1.899 . S
C865 C85 1.897 . S
C879 C108 1.896 . S
C883 C292 1.894 . S
C897 C315 2.533 . S
C901 C131 2.533 . S
C915 C338 2.118 . S
C919 C154 2.118 . S
C933 C361 1.528 . S
C937 C177 1.527 . S
