# Generated by pormake.
# Topology wlu, (5)-cn, num edge types: 1
# Building blocks:
#     Node 0, Type 0, BuildingBlock: XOMCOT_clean_sbu_1, # of connection points: 5
#     Node 1, Type 0, BuildingBlock: XOMCOT_clean_sbu_1, # of connection points: 5
#     Node 2, Type 0, BuildingBlock: XOMCOT_clean_sbu_1, # of connection points: 5
#     Node 3, Type 0, BuildingBlock: XOMCOT_clean_sbu_1, # of connection points: 5
#     Node 4, Type 0, BuildingBlock: XOMCOT_clean_sbu_1, # of connection points: 5
#     Node 5, Type 0, BuildingBlock: XOMCOT_clean_sbu_1, # of connection points: 5
#     Node 6, Type 0, BuildingBlock: XOMCOT_clean_sbu_1, # of connection points: 5
#     Node 7, Type 0, BuildingBlock: XOMCOT_clean_sbu_1, # of connection points: 5
#     Node 8, Type 0, BuildingBlock: XOMCOT_clean_sbu_1, # of connection points: 5
#     Node 9, Type 0, BuildingBlock: XOMCOT_clean_sbu_1, # of connection points: 5
#     Node 10, Type 0, BuildingBlock: XOMCOT_clean_sbu_1, # of connection points: 5
#     Node 11, Type 0, BuildingBlock: XOMCOT_clean_sbu_1, # of connection points: 5
#     Node 12, Type 0, BuildingBlock: XOMCOT_clean_sbu_1, # of connection points: 5
#     Node 13, Type 0, BuildingBlock: XOMCOT_clean_sbu_1, # of connection points: 5
#     Node 14, Type 0, BuildingBlock: XOMCOT_clean_sbu_1, # of connection points: 5
#     Node 15, Type 0, BuildingBlock: XOMCOT_clean_sbu_1, # of connection points: 5
#     Node 16, Type 0, BuildingBlock: XOMCOT_clean_sbu_1, # of connection points: 5
#     Node 17, Type 0, BuildingBlock: XOMCOT_clean_sbu_1, # of connection points: 5
#     Node 18, Type 0, BuildingBlock: XOMCOT_clean_sbu_1, # of connection points: 5
#     Node 19, Type 0, BuildingBlock: XOMCOT_clean_sbu_1, # of connection points: 5
#     Node 20, Type 0, BuildingBlock: XOMCOT_clean_sbu_1, # of connection points: 5
#     Node 21, Type 0, BuildingBlock: XOMCOT_clean_sbu_1, # of connection points: 5
#     Node 22, Type 0, BuildingBlock: XOMCOT_clean_sbu_1, # of connection points: 5
#     Node 23, Type 0, BuildingBlock: XOMCOT_clean_sbu_1, # of connection points: 5
#     Node 24, Type 0, BuildingBlock: XOMCOT_clean_sbu_1, # of connection points: 5
#     Node 25, Type 0, BuildingBlock: XOMCOT_clean_sbu_1, # of connection points: 5
#     Node 26, Type 0, BuildingBlock: XOMCOT_clean_sbu_1, # of connection points: 5
#     Node 27, Type 0, BuildingBlock: XOMCOT_clean_sbu_1, # of connection points: 5
#     Node 28, Type 0, BuildingBlock: XOMCOT_clean_sbu_1, # of connection points: 5
#     Node 29, Type 0, BuildingBlock: XOMCOT_clean_sbu_1, # of connection points: 5
#     Node 30, Type 0, BuildingBlock: XOMCOT_clean_sbu_1, # of connection points: 5
#     Node 31, Type 0, BuildingBlock: XOMCOT_clean_sbu_1, # of connection points: 5
#     Node 32, Type 0, BuildingBlock: XOMCOT_clean_sbu_1, # of connection points: 5
#     Node 33, Type 0, BuildingBlock: XOMCOT_clean_sbu_1, # of connection points: 5
#     Node 34, Type 0, BuildingBlock: XOMCOT_clean_sbu_1, # of connection points: 5
#     Node 35, Type 0, BuildingBlock: XOMCOT_clean_sbu_1, # of connection points: 5
#     Edge 36, Type (0, 0), BuildingBlock: KIFKEQ_clean_linker_1, # of connection points: 2
#     Edge 37, Type (0, 0), BuildingBlock: KIFKEQ_clean_linker_1, # of connection points: 2
#     Edge 38, Type (0, 0), BuildingBlock: KIFKEQ_clean_linker_1, # of connection points: 2
#     Edge 39, Type (0, 0), BuildingBlock: KIFKEQ_clean_linker_1, # of connection points: 2
#     Edge 40, Type (0, 0), BuildingBlock: KIFKEQ_clean_linker_1, # of connection points: 2
#     Edge 41, Type (0, 0), BuildingBlock: KIFKEQ_clean_linker_1, # of connection points: 2
#     Edge 42, Type (0, 0), BuildingBlock: KIFKEQ_clean_linker_1, # of connection points: 2
#     Edge 43, Type (0, 0), BuildingBlock: KIFKEQ_clean_linker_1, # of connection points: 2
#     Edge 44, Type (0, 0), BuildingBlock: KIFKEQ_clean_linker_1, # of connection points: 2
#     Edge 45, Type (0, 0), BuildingBlock: KIFKEQ_clean_linker_1, # of connection points: 2
#     Edge 46, Type (0, 0), BuildingBlock: KIFKEQ_clean_linker_1, # of connection points: 2
#     Edge 47, Type (0, 0), BuildingBlock: KIFKEQ_clean_linker_1, # of connection points: 2
#     Edge 48, Type (0, 0), BuildingBlock: KIFKEQ_clean_linker_1, # of connection points: 2
#     Edge 49, Type (0, 0), BuildingBlock: KIFKEQ_clean_linker_1, # of connection points: 2
#     Edge 50, Type (0, 0), BuildingBlock: KIFKEQ_clean_linker_1, # of connection points: 2
#     Edge 51, Type (0, 0), BuildingBlock: KIFKEQ_clean_linker_1, # of connection points: 2
#     Edge 52, Type (0, 0), BuildingBlock: KIFKEQ_clean_linker_1, # of connection points: 2
#     Edge 53, Type (0, 0), BuildingBlock: KIFKEQ_clean_linker_1, # of connection points: 2
#     Edge 54, Type (0, 0), BuildingBlock: KIFKEQ_clean_linker_1, # of connection points: 2
#     Edge 55, Type (0, 0), BuildingBlock: KIFKEQ_clean_linker_1, # of connection points: 2
#     Edge 56, Type (0, 0), BuildingBlock: KIFKEQ_clean_linker_1, # of connection points: 2
#     Edge 57, Type (0, 0), BuildingBlock: KIFKEQ_clean_linker_1, # of connection points: 2
#     Edge 58, Type (0, 0), BuildingBlock: KIFKEQ_clean_linker_1, # of connection points: 2
#     Edge 59, Type (0, 0), BuildingBlock: KIFKEQ_clean_linker_1, # of connection points: 2
#     Edge 60, Type (0, 0), BuildingBlock: KIFKEQ_clean_linker_1, # of connection points: 2
#     Edge 61, Type (0, 0), BuildingBlock: KIFKEQ_clean_linker_1, # of connection points: 2
#     Edge 62, Type (0, 0), BuildingBlock: KIFKEQ_clean_linker_1, # of connection points: 2
#     Edge 63, Type (0, 0), BuildingBlock: KIFKEQ_clean_linker_1, # of connection points: 2
#     Edge 64, Type (0, 0), BuildingBlock: KIFKEQ_clean_linker_1, # of connection points: 2
#     Edge 65, Type (0, 0), BuildingBlock: KIFKEQ_clean_linker_1, # of connection points: 2
#     Edge 66, Type (0, 0), BuildingBlock: KIFKEQ_clean_linker_1, # of connection points: 2
#     Edge 67, Type (0, 0), BuildingBlock: KIFKEQ_clean_linker_1, # of connection points: 2
#     Edge 68, Type (0, 0), BuildingBlock: KIFKEQ_clean_linker_1, # of connection points: 2
#     Edge 69, Type (0, 0), BuildingBlock: KIFKEQ_clean_linker_1, # of connection points: 2
#     Edge 70, Type (0, 0), BuildingBlock: KIFKEQ_clean_linker_1, # of connection points: 2
#     Edge 71, Type (0, 0), BuildingBlock: KIFKEQ_clean_linker_1, # of connection points: 2
#     Edge 72, Type (0, 0), BuildingBlock: KIFKEQ_clean_linker_1, # of connection points: 2
#     Edge 73, Type (0, 0), BuildingBlock: KIFKEQ_clean_linker_1, # of connection points: 2
#     Edge 74, Type (0, 0), BuildingBlock: KIFKEQ_clean_linker_1, # of connection points: 2
#     Edge 75, Type (0, 0), BuildingBlock: KIFKEQ_clean_linker_1, # of connection points: 2
#     Edge 76, Type (0, 0), BuildingBlock: KIFKEQ_clean_linker_1, # of connection points: 2
#     Edge 77, Type (0, 0), BuildingBlock: KIFKEQ_clean_linker_1, # of connection points: 2
#     Edge 78, Type (0, 0), BuildingBlock: KIFKEQ_clean_linker_1, # of connection points: 2
#     Edge 79, Type (0, 0), BuildingBlock: KIFKEQ_clean_linker_1, # of connection points: 2
#     Edge 80, Type (0, 0), BuildingBlock: KIFKEQ_clean_linker_1, # of connection points: 2
#     Edge 81, Type (0, 0), BuildingBlock: KIFKEQ_clean_linker_1, # of connection points: 2
#     Edge 82, Type (0, 0), BuildingBlock: KIFKEQ_clean_linker_1, # of connection points: 2
#     Edge 83, Type (0, 0), BuildingBlock: KIFKEQ_clean_linker_1, # of connection points: 2
#     Edge 84, Type (0, 0), BuildingBlock: KIFKEQ_clean_linker_1, # of connection points: 2
#     Edge 85, Type (0, 0), BuildingBlock: KIFKEQ_clean_linker_1, # of connection points: 2
#     Edge 86, Type (0, 0), BuildingBlock: KIFKEQ_clean_linker_1, # of connection points: 2
#     Edge 87, Type (0, 0), BuildingBlock: KIFKEQ_clean_linker_1, # of connection points: 2
#     Edge 88, Type (0, 0), BuildingBlock: KIFKEQ_clean_linker_1, # of connection points: 2
#     Edge 89, Type (0, 0), BuildingBlock: KIFKEQ_clean_linker_1, # of connection points: 2
#     Edge 90, Type (0, 0), BuildingBlock: KIFKEQ_clean_linker_1, # of connection points: 2
#     Edge 91, Type (0, 0), BuildingBlock: KIFKEQ_clean_linker_1, # of connection points: 2
#     Edge 92, Type (0, 0), BuildingBlock: KIFKEQ_clean_linker_1, # of connection points: 2
#     Edge 93, Type (0, 0), BuildingBlock: KIFKEQ_clean_linker_1, # of connection points: 2
#     Edge 94, Type (0, 0), BuildingBlock: KIFKEQ_clean_linker_1, # of connection points: 2
#     Edge 95, Type (0, 0), BuildingBlock: KIFKEQ_clean_linker_1, # of connection points: 2
#     Edge 96, Type (0, 0), BuildingBlock: KIFKEQ_clean_linker_1, # of connection points: 2
#     Edge 97, Type (0, 0), BuildingBlock: KIFKEQ_clean_linker_1, # of connection points: 2
#     Edge 98, Type (0, 0), BuildingBlock: KIFKEQ_clean_linker_1, # of connection points: 2
#     Edge 99, Type (0, 0), BuildingBlock: KIFKEQ_clean_linker_1, # of connection points: 2
#     Edge 100, Type (0, 0), BuildingBlock: KIFKEQ_clean_linker_1, # of connection points: 2
#     Edge 101, Type (0, 0), BuildingBlock: KIFKEQ_clean_linker_1, # of connection points: 2
#     Edge 102, Type (0, 0), BuildingBlock: KIFKEQ_clean_linker_1, # of connection points: 2
#     Edge 103, Type (0, 0), BuildingBlock: KIFKEQ_clean_linker_1, # of connection points: 2
#     Edge 104, Type (0, 0), BuildingBlock: KIFKEQ_clean_linker_1, # of connection points: 2
#     Edge 105, Type (0, 0), BuildingBlock: KIFKEQ_clean_linker_1, # of connection points: 2
#     Edge 106, Type (0, 0), BuildingBlock: KIFKEQ_clean_linker_1, # of connection points: 2
#     Edge 107, Type (0, 0), BuildingBlock: KIFKEQ_clean_linker_1, # of connection points: 2
#     Edge 108, Type (0, 0), BuildingBlock: KIFKEQ_clean_linker_1, # of connection points: 2
#     Edge 109, Type (0, 0), BuildingBlock: KIFKEQ_clean_linker_1, # of connection points: 2
#     Edge 110, Type (0, 0), BuildingBlock: KIFKEQ_clean_linker_1, # of connection points: 2
#     Edge 111, Type (0, 0), BuildingBlock: KIFKEQ_clean_linker_1, # of connection points: 2
#     Edge 112, Type (0, 0), BuildingBlock: KIFKEQ_clean_linker_1, # of connection points: 2
#     Edge 113, Type (0, 0), BuildingBlock: KIFKEQ_clean_linker_1, # of connection points: 2
#     Edge 114, Type (0, 0), BuildingBlock: KIFKEQ_clean_linker_1, # of connection points: 2
#     Edge 115, Type (0, 0), BuildingBlock: KIFKEQ_clean_linker_1, # of connection points: 2
#     Edge 116, Type (0, 0), BuildingBlock: KIFKEQ_clean_linker_1, # of connection points: 2
#     Edge 117, Type (0, 0), BuildingBlock: KIFKEQ_clean_linker_1, # of connection points: 2
#     Edge 118, Type (0, 0), BuildingBlock: KIFKEQ_clean_linker_1, # of connection points: 2
#     Edge 119, Type (0, 0), BuildingBlock: KIFKEQ_clean_linker_1, # of connection points: 2
#     Edge 120, Type (0, 0), BuildingBlock: KIFKEQ_clean_linker_1, # of connection points: 2
#     Edge 121, Type (0, 0), BuildingBlock: KIFKEQ_clean_linker_1, # of connection points: 2
#     Edge 122, Type (0, 0), BuildingBlock: KIFKEQ_clean_linker_1, # of connection points: 2
#     Edge 123, Type (0, 0), BuildingBlock: KIFKEQ_clean_linker_1, # of connection points: 2
#     Edge 124, Type (0, 0), BuildingBlock: KIFKEQ_clean_linker_1, # of connection points: 2
#     Edge 125, Type (0, 0), BuildingBlock: KIFKEQ_clean_linker_1, # of connection points: 2
# Relax obj value: 0.195
# Max RMSD: 0.162
# Mean RMSD: 0.162
data_MOF--net-wlu--node1-XOMCOT_clean_sbu_1--edge1-KIFKEQ_clean_linker_1
_symmetry_space_group_name_H-M    P1
_symmetry_Int_Tables_number       1
_symmetry_cell_setting            triclinic
loop_
_symmetry_equiv_pos_as_xyz
'x, y, z'
_cell_length_a     68.799673
_cell_length_b     68.831476
_cell_length_c     54.266069
_cell_angle_alpha  90.019262
_cell_angle_beta   90.003546
_cell_angle_gamma 120.03574
loop_
_atom_site_label
_atom_site_type_symbol
_atom_site_fract_x
_atom_site_fract_y
_atom_site_fract_z
_atom_type_partial_charge
C0 C 0.24604 0.14923 0.06882 0.0
C1 C 0.23391 0.12638 0.06541 0.0
N2 N 0.24708 0.11993 0.05378 0.0
N3 N 0.26671 0.15719 0.05922 0.0
C4 C 0.2669 0.13901 0.05027 0.0
H5 H 0.2404 0.15931 0.07835 0.0
Co6 Co 0.29037 0.18639 0.06148 0.0
C7 C 0.31092 0.19787 1.01226 0.0
O8 O 0.31142 0.21706 1.01539 0.0
N9 N 0.31502 0.21579 0.0645 0.0
C10 C 0.35108 0.24243 0.06428 0.0
C11 C 0.33629 0.21999 0.06135 0.0
C12 C 0.31749 0.23609 0.07015 0.0
N13 N 0.33921 0.2525 0.06978 0.0
O14 O 0.30676 0.17606 0.08084 0.0
H15 H 0.3408 0.20745 0.05685 0.0
H16 H 0.30391 0.23914 0.07423 0.0
O17 O 0.30302 0.18307 0.0295 0.0
C18 C 0.30021 0.17552 0.10299 0.0
O19 O 0.28449 0.18069 0.10696 0.0
N20 N 0.27246 0.1961 0.04548 0.0
C21 C 0.24027 0.20664 0.02953 0.0
C22 C 0.24767 0.19546 1.01387 0.0
C23 C 0.26327 0.18969 0.02248 0.0
C24 C 0.26453 0.20592 0.06125 0.0
C25 C 0.2488 0.21174 0.05356 0.0
H26 H 0.26716 0.17928 1.011 0.0
H27 H 0.26983 0.20848 0.0803 0.0
H28 H 0.28147 0.13979 0.0417 0.0
H29 H 0.21697 0.11534 0.07182 0.0
H30 H 0.36918 0.25069 0.06285 0.0
H31 H 0.24068 0.1903 0.99556 0.0
H32 H 0.24308 0.21982 0.06646 0.0
C33 C 0.84481 0.09675 0.06773 0.0
C34 C 0.8676 0.10705 0.06388 0.0
N35 N 0.87401 0.12619 0.05131 0.0
N36 N 0.83698 0.10938 0.05761 0.0
C37 C 0.85513 0.1272 0.04777 0.0
H38 H 0.83466 0.08137 0.07784 0.0
Co39 Co 0.80808 0.10426 0.06055 0.0
C40 C 0.79788 0.11987 1.01418 0.0
O41 O 0.77782 0.10193 1.0151 0.0
N42 N 0.77887 0.09959 0.06464 0.0
C43 C 0.75154 0.10785 0.06855 0.0
C44 C 0.77388 0.11627 0.06345 0.0
C45 C 0.75943 0.0814 0.07171 0.0
N46 N 0.74263 0.08599 0.0738 0.0
O47 O 0.81862 0.12914 0.08297 0.0
H48 H 0.78586 0.13361 0.05932 0.0
H49 H 0.75741 0.06518 0.07586 0.0
O50 O 0.81238 0.12334 0.03104 0.0
C51 C 0.81632 0.12084 0.10455 0.0
O52 O 0.80858 0.09914 0.10641 0.0
N53 N 0.79805 0.0783 0.04107 0.0
C54 C 0.78713 0.03717 0.01961 0.0
C55 C 0.79739 0.05695 1.00564 0.0
C56 C 0.80334 0.07749 0.01693 0.0
C57 C 0.78891 0.05929 0.055 0.0
C58 C 0.78291 0.03854 0.04461 0.0
H59 H 0.81317 0.09266 1.00648 0.0
H60 H 0.78721 0.0604 0.07467 0.0
H61 H 0.85473 0.14117 0.03915 0.0
H62 H 0.87863 0.10104 0.07003 0.0
H63 H 0.74271 0.11717 0.06931 0.0
H64 H 0.80187 0.05671 0.98656 0.0
H65 H 0.77555 0.02376 0.05623 0.0
C66 C 0.90763 0.75874 0.07025 0.0
C67 C 0.89804 0.77193 0.06677 0.0
N68 N 0.87805 0.75938 0.0556 0.0
N69 N 0.8937 0.73803 0.06132 0.0
C70 C 0.87584 0.73892 0.05252 0.0
H71 H 0.92345 0.7637 0.07929 0.0
Co72 Co 0.8974 0.71332 0.06434 0.0
C73 C 0.88098 0.68772 0.01825 0.0
O74 O 0.89852 0.68494 0.01914 0.0
N75 N 0.90044 0.6877 0.06849 0.0
C76 C 0.88895 0.65123 0.07189 0.0
C77 C 0.88233 0.66674 0.06817 0.0
C78 C 0.91786 0.68436 0.07347 0.0
N79 N 0.91127 0.66237 0.07523 0.0
O80 O 0.87239 0.69989 0.08636 0.0
H81 H 0.86523 0.66291 0.06516 0.0
H82 H 0.93506 0.69746 0.07578 0.0
O83 O 0.87798 0.69909 0.03506 0.0
C84 C 0.8789 0.70677 0.10826 0.0
O85 O 0.90001 0.72215 0.1118 0.0
N86 N 0.92327 0.72811 0.0446 0.0
C87 C 0.96402 0.7552 0.02082 0.0
C88 C 0.94368 0.74844 1.00862 0.0
C89 C 0.92343 0.73517 0.02099 0.0
C90 C 0.94292 0.73598 0.05718 0.0
C91 C 0.96351 0.74895 0.04546 0.0
H92 H 0.90801 0.73143 1.01184 0.0
H93 H 0.9426 0.73286 0.07673 0.0
H94 H 0.86105 0.72458 0.04499 0.0
H95 H 0.90512 0.78932 0.07217 0.0
H96 H 0.87817 0.63318 0.07257 0.0
H97 H 0.94343 0.75368 0.98986 0.0
H98 H 0.97889 0.75485 0.05589 0.0
C99 C 0.15957 0.24585 0.45247 0.0
C100 C 0.13684 0.232 0.45596 0.0
N101 N 0.12923 0.24309 0.46975 0.0
N102 N 0.16618 0.2655 0.46404 0.0
C103 C 0.14736 0.26337 0.47432 0.0
H104 H 0.17054 0.24202 0.44187 0.0
Co105 Co 0.1946 0.29051 0.46302 0.0
C106 C 0.20257 0.31165 0.51179 0.0
O107 O 0.22309 0.31512 0.50971 0.0
N108 N 0.22347 0.31663 0.46101 0.0
C109 C 0.24818 0.35323 0.45889 0.0
C110 C 0.226 0.3374 0.46173 0.0
C111 C 0.24463 0.32047 0.4575 0.0
N112 N 0.26001 0.34262 0.45628 0.0
O113 O 0.1831 0.30508 0.44237 0.0
H114 H 0.21244 0.34089 0.46412 0.0
H115 H 0.24892 0.30751 0.45588 0.0
O116 O 0.18859 0.30227 0.49402 0.0
C117 C 0.18646 0.3017 0.42004 0.0
O118 O 0.19639 0.28991 0.41593 0.0
N119 N 0.20529 0.27427 0.481 0.0
C120 C 0.21841 0.24554 0.50221 0.0
C121 C 0.20402 0.25108 0.5148 0.0
C122 C 0.19726 0.26503 0.50366 0.0
C123 C 0.21775 0.26761 0.46777 0.0
C124 C 0.22516 0.25396 0.47825 0.0
H125 H 0.18478 0.26751 0.51289 0.0
H126 H 0.22156 0.27252 0.44867 0.0
H127 H 0.14678 0.27671 0.48423 0.0
H128 H 0.12672 0.21511 0.44892 0.0
H129 H 0.25487 0.37118 0.4582 0.0
H130 H 0.19724 0.24398 0.5327 0.0
H131 H 0.23584 0.24985 0.46745 0.0
C132 C 0.75295 0.90908 0.47255 0.0
C133 C 0.76547 0.89903 0.47778 0.0
N134 N 0.75133 0.87773 0.48487 0.0
N135 N 0.73109 0.89423 0.47668 0.0
C136 C 0.73063 0.8753 0.48401 0.0
H137 H 0.75934 0.92596 0.46574 0.0
Co138 Co 0.70645 0.89774 0.47128 0.0
C139 C 0.67766 0.87952 0.51565 0.0
O140 O 0.67214 0.89513 0.51317 0.0
N141 N 0.68105 0.90057 0.46496 0.0
C142 C 0.64501 0.88932 0.45815 0.0
C143 C 0.66027 0.88247 0.46239 0.0
C144 C 0.67795 0.91832 0.46147 0.0
N145 N 0.65616 0.91185 0.45761 0.0
O146 O 0.69434 0.87264 0.44926 0.0
H147 H 0.65632 0.86521 0.46407 0.0
H148 H 0.69106 0.93566 0.46208 0.0
O149 O 0.69127 0.87846 0.5003 0.0
C150 C 0.70227 0.87927 0.42768 0.0
O151 O 0.7178 0.90041 0.42472 0.0
N152 N 0.72007 0.92384 0.49077 0.0
C153 C 0.74952 0.96516 0.51238 0.0
C154 C 0.73927 0.94553 0.52661 0.0
C155 C 0.72495 0.92491 0.51534 0.0
C156 C 0.72997 0.94279 0.47676 0.0
C157 C 0.7444 0.96364 0.48721 0.0
H158 H 0.71922 0.90989 0.52613 0.0
H159 H 0.72746 0.94153 0.45702 0.0
H160 H 0.71532 0.85995 0.48848 0.0
H161 H 0.78348 0.9066 0.47582 0.0
H162 H 0.62712 0.87859 0.45543 0.0
H163 H 0.74344 0.94588 0.54592 0.0
H164 H 0.75215 0.97833 0.47548 0.0
C165 C 0.09164 0.85122 0.45877 0.0
C166 C 0.10256 0.87411 0.46221 0.0
N167 N 0.12115 0.88005 0.47568 0.0
N168 N 0.10338 0.84287 0.46999 0.0
C169 C 0.12124 0.86082 0.48016 0.0
H170 H 0.07652 0.84135 0.44812 0.0
Co171 Co 0.09779 0.81365 0.46759 0.0
C172 C 0.10726 0.80235 0.51653 0.0
O173 O 0.08841 0.78326 0.5135 0.0
N174 N 0.09314 0.78419 0.46423 0.0
C175 C 0.10369 0.75846 0.46285 0.0
C176 C 0.11034 0.78034 0.46799 0.0
C177 C 0.07625 0.76421 0.45597 0.0
N178 N 0.08224 0.74824 0.45511 0.0
O179 O 0.12409 0.82408 0.44754 0.0
H180 H 0.12698 0.79286 0.47395 0.0
H181 H 0.06021 0.76143 0.4497 0.0
O182 O 0.11433 0.81706 0.49919 0.0
C183 C 0.11708 0.82339 0.42557 0.0
O184 O 0.09567 0.81663 0.42239 0.0
N185 N 0.07056 0.80396 0.48455 0.0
C186 C 0.02864 0.7931 0.50359 0.0
C187 C 0.04824 0.8064 0.51718 0.0
C188 C 0.06909 0.81204 0.50711 0.0
C189 C 0.05177 0.79241 0.4705 0.0
C190 C 0.03059 0.78619 0.47989 0.0
H191 H 0.08405 0.82357 0.51713 0.0
H192 H 0.0533 0.78905 0.45139 0.0
H193 H 0.13466 0.85998 0.48961 0.0
H194 H 0.09741 0.88554 0.4551 0.0
H195 H 0.11403 0.75079 0.46469 0.0
H196 H 0.04749 0.81271 0.53523 0.0
H197 H 0.01596 0.77699 0.46827 0.0
C198 C 0.75496 0.85401 0.9601 0.0
C199 C 0.76656 0.87697 0.95792 0.0
N200 N 0.75232 0.88461 0.96255 0.0
N201 N 0.73354 0.84712 0.9665 0.0
C202 C 0.73225 0.86607 0.96692 0.0
H203 H 0.76189 0.84312 0.9575 0.0
Co204 Co 0.71104 0.8175 0.97233 0.0
C205 C 0.70641 0.84124 0.01842 0.0
O206 O 0.72665 0.85892 0.01763 0.0
N207 N 0.68876 0.78778 0.97767 0.0
C208 C 0.66615 0.75539 0.99621 0.0
C209 C 0.67966 0.77809 0.99951 0.0
C210 C 0.68062 0.77062 0.96141 0.0
N211 N 0.66687 0.75068 0.97225 0.0
O212 O 0.69114 0.82199 0.9514 0.0
H213 H 0.68345 0.78668 0.01703 0.0
H214 H 0.68572 0.77252 0.94231 0.0
O215 O 0.70022 0.82595 1.00193 0.0
C216 C 0.69505 0.81875 0.92922 0.0
O217 O 0.7109 0.81374 0.92534 0.0
N218 N 0.73108 0.81202 0.99025 0.0
C219 C 0.76316 0.80171 1.00728 0.0
C220 C 0.75588 0.81349 0.02226 0.0
C221 C 0.7397 0.81843 1.01342 0.0
C222 C 0.73753 0.80006 0.97582 0.0
C223 C 0.75337 0.79461 0.98396 0.0
H224 H 0.73456 0.82755 0.02521 0.0
H225 H 0.73054 0.79505 0.95752 0.0
H226 H 0.71712 0.86633 0.97174 0.0
H227 H 0.78425 0.88724 0.95374 0.0
H228 H 0.65695 0.74325 1.01049 0.0
H229 H 0.76297 0.81933 0.0404 0.0
H230 H 0.75793 0.78497 0.97194 0.0
C231 C 0.1468 0.90196 0.95366 0.0
C232 C 0.1237 0.88957 0.95428 0.0
N233 N 0.11772 0.86887 0.96238 0.0
N234 N 0.15537 0.88919 0.96172 0.0
C235 C 0.13711 0.86895 0.96615 0.0
H236 H 0.15637 0.91907 0.94738 0.0
Co237 Co 0.18516 0.89499 0.96406 0.0
C238 C 0.16584 0.87516 1.01369 0.0
O239 O 0.15454 0.88591 1.0141 0.0
N240 N 0.21424 0.90004 0.96587 0.0
C241 C 0.24299 0.89491 0.97374 0.0
C242 C 0.22008 0.88529 0.97449 0.0
C243 C 0.23382 0.91832 0.95938 0.0
N244 N 0.2516 0.91568 0.96428 0.0
O245 O 0.17694 0.86928 0.94355 0.0
H246 H 0.2084 0.86849 0.98074 0.0
H247 H 0.23505 0.93336 0.95155 0.0
O248 O 0.17793 0.87707 0.99484 0.0
C249 C 0.17832 0.87599 0.92134 0.0
O250 O 0.18503 0.8973 0.9176 0.0
N251 N 0.19427 0.92179 0.98152 0.0
C252 C 0.20781 0.9645 1.00006 0.0
C253 C 0.20699 0.9477 1.01545 0.0
C254 C 0.20065 0.92651 1.00564 0.0
C255 C 0.19717 0.93856 0.96601 0.0
C256 C 0.20351 0.95987 0.97488 0.0
H257 H 0.20127 0.91423 0.01743 0.0
H258 H 0.19452 0.93531 0.94645 0.0
H259 H 0.13802 0.85443 0.97215 0.0
H260 H 0.11224 0.89547 0.94964 0.0
H261 H 0.25258 0.88707 0.97924 0.0
H262 H 0.21098 0.95078 0.03487 0.0
H263 H 0.20516 0.97266 0.96204 0.0
C264 C 0.0922 0.24357 0.9654 0.0
C265 C 0.10242 0.23116 0.97021 0.0
N266 N 0.12296 0.24503 0.97957 0.0
N267 N 0.10614 0.26507 0.97205 0.0
C268 C 0.12478 0.26548 0.98045 0.0
H269 H 0.07583 0.2374 0.95717 0.0
Co270 Co 0.10153 0.28924 0.96815 0.0
C271 C 0.11047 0.31078 0.01676 0.0
O272 O 0.0922 0.31197 1.01306 0.0
N273 N 0.09776 0.31437 0.96346 0.0
C274 C 0.10826 0.35061 0.96098 0.0
C275 C 0.1149 0.33551 0.96703 0.0
C276 C 0.08099 0.31725 0.95449 0.0
N277 N 0.0869 0.33914 0.95299 0.0
O278 O 0.12874 0.3046 0.94949 0.0
H279 H 0.13141 0.33974 0.97358 0.0
H280 H 0.06502 0.30384 0.94826 0.0
O281 O 0.11713 0.30222 1.00003 0.0
C282 C 0.12359 0.29742 0.92741 0.0
O283 O 0.10286 0.28156 0.92286 0.0
N284 N 0.0735 0.27244 0.98383 0.0
C285 C 0.03021 0.24148 0.99983 0.0
C286 C 0.04876 0.24837 1.01551 0.0
C287 C 0.07032 0.26348 1.00698 0.0
C288 C 0.05583 0.26489 0.968 0.0
C289 C 0.03403 0.25004 0.97578 0.0
H290 H 0.08446 0.26699 0.01858 0.0
H291 H 0.0588 0.26947 0.94877 0.0
H292 H 0.13948 0.28055 0.9869 0.0
H293 H 0.09556 0.21348 0.96641 0.0
H294 H 0.11848 0.36867 0.96245 0.0
H295 H 0.04679 0.24135 0.03381 0.0
H296 H 0.0204 0.24493 0.96276 0.0
C297 C 0.84615 0.75741 0.57726 0.0
C298 C 0.86874 0.77004 0.57211 0.0
N299 N 0.87488 0.75698 0.55976 0.0
N300 N 0.8382 0.73655 0.56817 0.0
C301 C 0.85607 0.73679 0.55766 0.0
H302 H 0.83627 0.76287 0.58754 0.0
Co303 Co 0.80974 0.71208 0.57245 0.0
C304 C 0.79753 0.68841 0.52494 0.0
O305 O 0.77728 0.68517 0.5289 0.0
N306 N 0.78097 0.6866 0.57752 0.0
C307 C 0.75576 0.65031 0.58163 0.0
C308 C 0.77802 0.66566 0.57838 0.0
C309 C 0.75999 0.68338 0.58053 0.0
N310 N 0.74434 0.66143 0.58284 0.0
O311 O 0.82244 0.69808 0.59207 0.0
H312 H 0.79124 0.66164 0.57624 0.0
H313 H 0.75592 0.69659 0.58034 0.0
O314 O 0.81284 0.69857 0.54127 0.0
C315 C 0.82388 0.70535 0.61403 0.0
O316 O 0.81742 0.72008 0.61819 0.0
N317 N 0.79803 0.72789 0.55576 0.0
C318 C 0.78661 0.75907 0.53852 0.0
C319 C 0.79713 0.75086 0.52296 0.0
C320 C 0.80327 0.73573 0.53213 0.0
C321 C 0.78853 0.73633 0.57128 0.0
C322 C 0.78225 0.75155 0.56296 0.0
H323 H 0.81342 0.73153 0.52062 0.0
H324 H 0.78648 0.73175 0.59057 0.0
H325 H 0.85554 0.72214 0.54964 0.0
H326 H 0.87982 0.78737 0.57727 0.0
H327 H 0.74862 0.63234 0.58315 0.0
H328 H 0.80173 0.75704 0.50428 0.0
H329 H 0.77451 0.75775 0.57573 0.0
C330 C 0.2505 0.09887 0.57428 0.0
C331 C 0.2412 0.11253 0.57478 0.0
N332 N 0.25741 0.1336 0.56941 0.0
N333 N 0.27244 0.11123 0.56826 0.0
C334 C 0.27625 0.13242 0.56637 0.0
H335 H 0.24151 0.08098 0.57737 0.0
Co336 Co 0.2938 0.10229 0.56293 0.0
C337 C 0.29701 0.12799 0.51614 0.0
O338 O 0.27549 0.12144 0.51649 0.0
N339 N 0.31508 0.09351 0.55785 0.0
C340 C 0.33773 0.08367 0.53949 0.0
C341 C 0.3243 0.0929 0.53609 0.0
C342 C 0.32312 0.08447 0.57421 0.0
N343 N 0.33694 0.07829 0.56346 0.0
O344 O 0.31427 0.12629 0.58429 0.0
H345 H 0.32097 0.09812 0.51858 0.0
H346 H 0.31823 0.08167 0.5934 0.0
O347 O 0.30541 0.12171 0.53336 0.0
C348 C 0.3086 0.11963 0.6065 0.0
O349 O 0.29189 0.09911 0.61002 0.0
N350 N 0.27305 0.07701 0.54486 0.0
C351 C 0.24036 0.03485 0.52747 0.0
C352 C 0.25266 0.05271 0.51107 0.0
C353 C 0.26929 0.07356 0.52009 0.0
C354 C 0.26209 0.05958 0.56081 0.0
C355 C 0.24571 0.03848 0.55261 0.0
H356 H 0.2792 0.08644 0.50696 0.0
H357 H 0.26606 0.0622 0.58024 0.0
H358 H 0.2924 0.14661 0.56152 0.0
H359 H 0.22361 0.10713 0.57736 0.0
H360 H 0.34717 0.08092 0.52533 0.0
H361 H 0.2495 0.0507 0.49144 0.0
H362 H 0.23752 0.02511 0.56598 0.0
C363 C 0.90953 0.1419 0.57385 0.0
C364 C 0.89665 0.11895 0.57563 0.0
N365 N 0.87504 0.11302 0.57158 0.0
N366 N 0.89622 0.15045 0.56825 0.0
C367 C 0.87523 0.13253 0.56793 0.0
H368 H 0.92754 0.15164 0.57611 0.0
Co369 Co 0.90543 0.18067 0.56325 0.0
C370 C 0.87643 0.15942 0.51664 0.0
O371 O 0.87593 0.14012 0.51758 0.0
N372 N 0.91491 0.21099 0.55859 0.0
C373 C 0.92984 0.24432 0.54034 0.0
C374 C 0.92007 0.22162 0.53659 0.0
C375 C 0.92152 0.22758 0.57545 0.0
N376 N 0.93068 0.24796 0.56474 0.0
O377 O 0.88122 0.17723 0.58388 0.0
H378 H 0.91807 0.21353 0.51894 0.0
H379 H 0.92096 0.22499 0.59515 0.0
O380 O 0.88697 0.17433 0.53321 0.0
C381 C 0.88762 0.17938 0.60632 0.0
O382 O 0.90815 0.1836 0.61084 0.0
N383 N 0.93066 0.18478 0.54555 0.0
C384 C 0.97245 0.1944 0.52712 0.0
C385 C 0.95286 0.18209 0.51303 0.0
C386 C 0.93205 0.1774 0.52262 0.0
C387 C 0.9495 0.19672 0.55942 0.0
C388 C 0.97051 0.20184 0.55056 0.0
H389 H 0.91733 0.16776 0.51157 0.0
H390 H 0.94811 0.20232 0.57763 0.0
H391 H 0.86049 0.13373 0.56367 0.0
H392 H 0.90283 0.10752 0.57912 0.0
H393 H 0.93648 0.25724 0.52631 0.0
H394 H 0.95353 0.17581 0.49494 0.0
H395 H 0.98512 0.21173 0.56198 0.0
C396 C 0.90707 0.4825 0.40423 0.0
C397 C 0.89517 0.45993 0.39885 0.0
N398 N 0.90973 0.45359 0.39092 0.0
N399 N 0.92899 0.49039 0.39937 0.0
C400 C 0.93009 0.47238 0.39145 0.0
H401 H 0.90024 0.49238 0.4117 0.0
Co402 Co 0.95295 0.51908 0.40482 0.0
C403 C 0.98108 0.53127 0.35968 0.0
O404 O 0.98574 0.55212 0.36249 0.0
N405 N 0.97769 0.54797 0.41111 0.0
C406 C 0.01353 0.57425 0.41642 0.0
C407 C 0.99894 0.55178 0.41307 0.0
C408 C 0.97987 0.56853 0.41417 0.0
N409 N 0.00148 0.58469 0.4171 0.0
O410 O 0.9664 0.50672 0.4257 0.0
H411 H 0.00369 0.53906 0.41122 0.0
H412 H 0.96624 0.57202 0.41349 0.0
O413 O 0.96808 0.51619 0.37505 0.0
C414 C 0.95875 0.50511 0.44747 0.0
O415 O 0.94332 0.51073 0.45113 0.0
N416 N 0.93795 0.53076 0.3866 0.0
C417 C 0.90753 0.54235 0.36733 0.0
C418 C 0.91799 0.53393 0.35193 0.0
C419 C 0.93285 0.52776 0.36204 0.0
C420 C 0.92766 0.53862 0.40175 0.0
C421 C 0.91274 0.54488 0.39249 0.0
H422 H 0.93905 0.51941 0.35031 0.0
H423 H 0.93058 0.53937 0.4214 0.0
H424 H 0.94562 0.47304 0.38638 0.0
H425 H 0.8773 0.44891 0.40134 0.0
H426 H 0.03162 0.58236 0.41802 0.0
H427 H 0.91382 0.53101 0.33253 0.0
H428 H 0.90495 0.55118 0.40508 0.0
C429 C 0.52397 0.43198 0.40542 0.0
C430 C 0.54696 0.44524 0.4072 0.0
N431 N 0.55238 0.46671 0.40359 0.0
N432 N 0.515 0.44507 0.40041 0.0
C433 C 0.53272 0.46617 0.40016 0.0
H434 H 0.51459 0.41395 0.40726 0.0
Co435 Co 0.48498 0.43719 0.3958 0.0
C436 C 0.50767 0.4643 0.34949 0.0
O437 O 0.52339 0.45876 0.34958 0.0
N438 N 0.45504 0.42936 0.39161 0.0
C439 C 0.42283 0.42304 0.37512 0.0
C440 C 0.44514 0.43073 0.37069 0.0
C441 C 0.43827 0.42023 0.40834 0.0
N442 N 0.41855 0.41643 0.39877 0.0
O443 O 0.48961 0.46115 0.41763 0.0
H444 H 0.45335 0.43637 0.35306 0.0
H445 H 0.44041 0.41643 0.42714 0.0
O446 O 0.49284 0.45704 0.36661 0.0
C447 C 0.48725 0.45401 0.43977 0.0
O448 O 0.48219 0.4331 0.44333 0.0
N449 N 0.47935 0.41202 0.37706 0.0
C450 C 0.4665 0.36963 0.35815 0.0
C451 C 0.4744 0.38822 0.34244 0.0
C452 C 0.48031 0.4093 0.35221 0.0
C453 C 0.47134 0.39397 0.3924 0.0
C454 C 0.46483 0.37265 0.38339 0.0
H455 H 0.48494 0.42291 0.33957 0.0
H456 H 0.47001 0.39626 0.41192 0.0
H457 H 0.53126 0.48087 0.39664 0.0
H458 H 0.55882 0.43943 0.40982 0.0
H459 H 0.41053 0.42178 0.36181 0.0
H460 H 0.47537 0.38632 0.32273 0.0
H461 H 0.45873 0.35866 0.39609 0.0
C462 C 0.57518 0.08982 0.40421 0.0
C463 C 0.56489 0.10253 0.40313 0.0
N464 N 0.54297 0.08876 0.39833 0.0
N465 N 0.5599 0.06811 0.39959 0.0
C466 C 0.54034 0.06803 0.3968 0.0
H467 H 0.59274 0.09636 0.40808 0.0
Co468 Co 0.5628 0.04236 0.39812 0.0
C469 C 0.54406 0.04355 0.34804 0.0
O470 O 0.55452 0.06559 0.34849 0.0
N471 N 0.56511 0.01677 0.39727 0.0
C472 C 0.55737 0.98176 0.39135 0.0
C473 C 0.55047 0.99697 0.38684 0.0
C474 C 0.58055 0.01315 0.40836 0.0
N475 N 0.57627 0.99192 0.40499 0.0
O476 O 0.53605 0.02651 0.41811 0.0
H477 H 0.53536 0.99352 0.37713 0.0
H478 H 0.59421 0.02565 0.41936 0.0
O479 O 0.54576 0.03286 0.3665 0.0
C480 C 0.54251 0.03185 0.44045 0.0
O481 O 0.56396 0.0458 0.44445 0.0
N482 N 0.59061 0.05824 0.3817 0.0
C483 C 0.63464 0.0864 0.36578 0.0
C484 C 0.61767 0.07303 0.34888 0.0
C485 C 0.59574 0.05866 0.3573 0.0
C486 C 0.60736 0.06935 0.39844 0.0
C487 C 0.62936 0.0837 0.39093 0.0
H488 H 0.58321 0.04806 0.34411 0.0
H489 H 0.60336 0.06771 0.41787 0.0
H490 H 0.52461 0.05307 0.39242 0.0
H491 H 0.57297 0.12053 0.40551 0.0
H492 H 0.54896 0.96451 0.38515 0.0
H493 H 0.62112 0.07403 0.32931 0.0
H494 H 0.64206 0.09285 0.40478 0.0
C495 C 0.81511 0.58042 0.79229 0.0
C496 C 0.79231 0.5719 0.79011 0.0
N497 N 0.78778 0.58815 0.79628 0.0
N498 N 0.82493 0.6019 0.80018 0.0
C499 C 0.80785 0.60627 0.80156 0.0
H500 H 0.82369 0.57122 0.78863 0.0
Co501 Co 0.8554 0.62239 0.80694 0.0
C502 C 0.83169 0.62434 0.85267 0.0
O503 O 0.81715 0.60276 0.85104 0.0
N504 N 0.88566 0.64282 0.81305 0.0
C505 C 0.91826 0.66501 0.83157 0.0
C506 C 0.89542 0.65226 0.83477 0.0
C507 C 0.9029 0.65006 0.79698 0.0
N508 N 0.92295 0.66362 0.80777 0.0
O509 O 0.85333 0.64375 0.7862 0.0
H510 H 0.88667 0.64967 0.85206 0.0
H511 H 0.90091 0.6449 0.77789 0.0
O512 O 0.84715 0.6337 0.83638 0.0
C513 C 0.85622 0.63964 0.76397 0.0
O514 O 0.86019 0.62312 0.75989 0.0
N515 N 0.85851 0.60077 0.82487 0.0
C516 C 0.86652 0.5674 0.84296 0.0
C517 C 0.86231 0.58082 0.85912 0.0
C518 C 0.85886 0.5978 0.84973 0.0
C519 C 0.86378 0.58874 0.8091 0.0
C520 C 0.86766 0.57192 0.81764 0.0
H521 H 0.85719 0.60872 0.86265 0.0
H522 H 0.86499 0.5923 0.78957 0.0
H523 H 0.81002 0.62232 0.80722 0.0
H524 H 0.77994 0.55479 0.78546 0.0
H525 H 0.93048 0.67454 0.8457 0.0
H526 H 0.86174 0.57836 0.87887 0.0
H527 H 0.87191 0.56283 0.80443 0.0
C528 C 0.43309 0.24545 0.79707 0.0
C529 C 0.4452 0.23448 0.79695 0.0
N530 N 0.43071 0.21224 0.79856 0.0
N531 N 0.41106 0.23023 0.79925 0.0
C532 C 0.41013 0.21016 0.7991 0.0
H533 H 0.44003 0.26342 0.79639 0.0
Co534 Co 0.38702 0.23547 0.8022 0.0
C535 C 0.38115 0.20702 0.84876 0.0
O536 O 0.40146 0.20975 0.84876 0.0
N537 N 0.363 0.24078 0.8048 0.0
C538 C 0.33611 0.24602 0.82038 0.0
C539 C 0.35204 0.24022 0.82568 0.0
C540 C 0.35381 0.24753 0.78715 0.0
N541 N 0.3373 0.25066 0.79618 0.0
O542 O 0.36967 0.21057 0.78039 0.0
H543 H 0.35592 0.23675 0.84387 0.0
H544 H 0.35932 0.25044 0.76816 0.0
O545 O 0.37529 0.21603 0.8318 0.0
C546 C 0.37459 0.21747 0.75816 0.0
O547 O 0.38947 0.23872 0.75448 0.0
N548 N 0.40461 0.26145 0.82098 0.0
C549 C 0.43264 0.30416 0.84037 0.0
C550 C 0.42728 0.2849 0.85423 0.0
C551 C 0.41307 0.2636 0.84424 0.0
C552 C 0.40975 0.28004 0.80734 0.0
C553 C 0.42352 0.30151 0.81672 0.0
H554 H 0.4094 0.24918 0.85514 0.0
H555 H 0.40334 0.27811 0.78876 0.0
H556 H 0.39464 0.19437 0.80134 0.0
H557 H 0.46331 0.24236 0.7965 0.0
H558 H 0.32515 0.24766 0.8335 0.0
H559 H 0.43402 0.2863 0.8726 0.0
H560 H 0.42754 0.31591 0.80525 0.0
C561 C 0.76132 0.18487 0.78557 0.0
C562 C 0.77381 0.20797 0.78561 0.0
N563 N 0.79484 0.21405 0.79267 0.0
N564 N 0.77438 0.17642 0.79293 0.0
C565 C 0.79485 0.19469 0.79627 0.0
H566 H 0.74382 0.17519 0.78065 0.0
Co567 Co 0.7685 0.14679 0.79718 0.0
C568 C 0.78806 0.16868 0.84587 0.0
O569 O 0.77747 0.18009 0.84422 0.0
N570 N 0.76332 0.11783 0.80082 0.0
C571 C 0.76739 0.08891 0.81122 0.0
C572 C 0.77717 0.11185 0.8117 0.0
C573 C 0.74548 0.09835 0.79331 0.0
N574 N 0.74747 0.08047 0.79967 0.0
O575 O 0.7944 0.15406 0.77732 0.0
H576 H 0.79352 0.12341 0.8192 0.0
H577 H 0.73124 0.09728 0.78358 0.0
O578 O 0.7862 0.15536 0.82832 0.0
C579 C 0.78803 0.15204 0.75488 0.0
O580 O 0.76683 0.14549 0.7505 0.0
N581 N 0.7415 0.1384 0.81401 0.0
C582 C 0.69824 0.12444 0.83159 0.0
C583 C 0.71544 0.12717 0.84771 0.0
C584 C 0.73678 0.13347 0.83844 0.0
C585 C 0.72463 0.13417 0.79796 0.0
C586 C 0.70302 0.12738 0.80627 0.0
H587 H 0.74915 0.1339 0.85094 0.0
H588 H 0.72803 0.13602 0.77838 0.0
H589 H 0.80945 0.1938 0.80201 0.0
H590 H 0.76767 0.21938 0.78174 0.0
H591 H 0.77462 0.07921 0.81825 0.0
H592 H 0.71259 0.12455 0.86735 0.0
H593 H 0.69015 0.12424 0.79282 0.0
C594 C 0.42432 0.18343 0.29141 0.0
C595 C 0.43697 0.2063 0.29471 0.0
N596 N 0.42468 0.21293 0.30781 0.0
N597 N 0.40422 0.1758 0.30238 0.0
C598 C 0.40491 0.19413 0.31222 0.0
H599 H 0.42917 0.1731 0.28107 0.0
Co600 Co 0.38019 0.14688 0.30018 0.0
C601 C 0.35869 0.1363 0.34882 0.0
O602 O 0.35742 0.11673 0.34592 0.0
N603 N 0.35516 0.11769 0.29685 0.0
C604 C 0.31889 0.09207 0.2939 0.0
C605 C 0.33401 0.11376 0.30012 0.0
C606 C 0.3523 0.09807 0.28785 0.0
N607 N 0.33039 0.0822 0.28602 0.0
O608 O 0.36484 0.15749 0.27945 0.0
H609 H 0.32977 0.12616 0.30616 0.0
H610 H 0.36571 0.0956 0.28138 0.0
O611 O 0.36704 0.15096 0.33146 0.0
C612 C 0.37026 0.15507 0.25759 0.0
O613 O 0.38438 0.1476 0.25508 0.0
N614 N 0.39714 0.13686 0.31781 0.0
C615 C 0.42746 0.12543 0.33778 0.0
C616 C 0.42048 0.13812 0.35144 0.0
C617 C 0.40589 0.14429 0.34082 0.0
C618 C 0.40483 0.12566 0.30385 0.0
C619 C 0.41958 0.11934 0.31361 0.0
H620 H 0.40244 0.15581 0.35078 0.0
H621 H 0.40049 0.12269 0.28457 0.0
H622 H 0.39083 0.19388 0.3214 0.0
H623 H 0.45375 0.21722 0.28777 0.0
H624 H 0.30081 0.08432 0.29478 0.0
H625 H 0.42712 0.14416 0.36971 0.0
H626 H 0.42519 0.11022 0.30211 0.0
C627 C 0.81902 0.23736 0.30128 0.0
C628 C 0.79633 0.2262 0.30594 0.0
N629 N 0.79053 0.20607 0.31594 0.0
N630 N 0.82758 0.22446 0.30852 0.0
C631 C 0.80986 0.20549 0.31727 0.0
H632 H 0.82854 0.25356 0.29248 0.0
Co633 Co 0.85684 0.23053 0.30369 0.0
C634 C 0.87127 0.22085 0.35075 0.0
O635 O 0.89032 0.23946 0.34666 0.0
N636 N 0.88634 0.23581 0.29805 0.0
C637 C 0.91277 0.22643 0.29348 0.0
C638 C 0.89041 0.21853 0.29736 0.0
C639 C 0.90682 0.2542 0.29431 0.0
N640 N 0.9232 0.24892 0.2917 0.0
O641 O 0.84555 0.20407 0.28352 0.0
H642 H 0.87787 0.20109 0.29999 0.0
H643 H 0.90999 0.27119 0.29406 0.0
O644 O 0.85541 0.21421 0.33475 0.0
C645 C 0.84366 0.21017 0.26183 0.0
O646 O 0.84832 0.231 0.25863 0.0
N647 N 0.86719 0.25788 0.32056 0.0
C648 C 0.87707 0.30009 0.33786 0.0
C649 C 0.86724 0.28133 0.35345 0.0
C650 C 0.86185 0.26022 0.34425 0.0
C651 C 0.87596 0.27583 0.30502 0.0
C652 C 0.88144 0.29712 0.31335 0.0
H653 H 0.85238 0.24572 0.35583 0.0
H654 H 0.878 0.27341 0.2857 0.0
H655 H 0.81112 0.19139 0.32407 0.0
H656 H 0.78489 0.23216 0.30141 0.0
H657 H 0.92062 0.21624 0.29184 0.0
H658 H 0.86271 0.28274 0.37221 0.0
H659 H 0.88864 0.31105 0.30054 0.0
C660 C 0.76043 0.58118 0.30314 0.0
C661 C 0.77029 0.56823 0.30662 0.0
N662 N 0.79149 0.58166 0.31457 0.0
N663 N 0.77528 0.60259 0.30918 0.0
C664 C 0.79405 0.6024 0.31591 0.0
H665 H 0.74367 0.57547 0.29626 0.0
Co666 Co 0.77135 0.62714 0.30609 0.0
C667 C 0.78845 0.65314 0.35177 0.0
O668 O 0.77084 0.65581 0.35095 0.0
N669 N 0.76806 0.65265 0.3017 0.0
C670 C 0.77925 0.6888 0.29611 0.0
C671 C 0.78588 0.67373 0.30232 0.0
C672 C 0.75087 0.65547 0.29409 0.0
N673 N 0.75719 0.67732 0.29077 0.0
O674 O 0.79581 0.64028 0.28331 0.0
H675 H 0.80288 0.67791 0.30666 0.0
H676 H 0.73434 0.64193 0.28969 0.0
O677 O 0.79138 0.64173 0.33498 0.0
C678 C 0.78762 0.6348 0.26166 0.0
O679 O 0.76586 0.62115 0.25947 0.0
N680 N 0.74585 0.61257 0.32661 0.0
C681 C 0.7057 0.5855 0.35155 0.0
C682 C 0.72634 0.5923 0.36306 0.0
C683 C 0.74626 0.6056 0.35014 0.0
C684 C 0.72585 0.60468 0.31472 0.0
C685 C 0.70557 0.59177 0.32705 0.0
H686 H 0.7619 0.60931 0.35871 0.0
H687 H 0.7256 0.6073 0.29515 0.0
H688 H 0.80935 0.61727 0.32156 0.0
H689 H 0.76262 0.55043 0.30294 0.0
H690 H 0.79003 0.70682 0.29534 0.0
H691 H 0.72704 0.58697 0.38166 0.0
H692 H 0.68993 0.58573 0.31711 0.0
C693 C 0.51593 0.08611 0.90733 0.0
C694 C 0.53868 0.09792 0.9029 0.0
N695 N 0.54394 0.08504 0.88893 0.0
N696 N 0.50703 0.06591 0.89627 0.0
C697 C 0.52448 0.06574 0.88514 0.0
H698 H 0.50657 0.09154 0.91862 0.0
Co699 Co 0.47789 0.04265 0.90029 0.0
C700 C 0.46461 0.01891 0.85283 0.0
O701 O 0.44533 0.01809 0.85655 0.0
N702 N 0.44847 0.01841 0.90548 0.0
C703 C 0.42226 0.98256 0.91037 0.0
C704 C 0.44409 0.99698 0.90397 0.0
C705 C 0.42887 0.01645 0.91342 0.0
N706 N 0.41266 0.99478 0.91644 0.0
O707 O 0.48891 0.02749 0.92099 0.0
H708 H 0.4562 0.9921 0.8987 0.0
H709 H 0.42652 0.03038 0.91793 0.0
O710 O 0.48005 0.02786 0.86935 0.0
C711 C 0.48938 0.0344 0.94297 0.0
O712 O 0.48288 0.04919 0.94649 0.0
N713 N 0.46787 0.05957 0.88243 0.0
C714 C 0.45781 0.09071 0.86171 0.0
C715 C 0.46916 0.08221 0.84801 0.0
C716 C 0.47462 0.06718 0.85893 0.0
C717 C 0.45786 0.06858 0.89635 0.0
C718 C 0.45222 0.08375 0.88626 0.0
H719 H 0.48524 0.06263 0.84878 0.0
H720 H 0.45531 0.0649 0.91582 0.0
H721 H 0.5232 0.05136 0.87555 0.0
H722 H 0.5505 0.11451 0.90972 0.0
H723 H 0.41413 0.96443 0.91063 0.0
H724 H 0.47485 0.08802 0.82943 0.0
H725 H 0.44406 0.0904 0.89778 0.0
C726 C 0.90831 0.42381 0.91223 0.0
C727 C 0.89507 0.43345 0.90952 0.0
N728 N 0.90625 0.45185 0.89535 0.0
N729 N 0.92772 0.43621 0.89993 0.0
C730 C 0.92598 0.45317 0.88983 0.0
H731 H 0.90432 0.40902 0.92293 0.0
Co732 Co 0.95207 0.43174 0.9003 0.0
C733 C 0.97488 0.44803 0.85277 0.0
O734 O 0.97622 0.42967 0.85187 0.0
N735 N 0.97742 0.42787 0.9017 0.0
C736 C 0.0138 0.43843 0.90202 0.0
C737 C 0.99854 0.44559 0.90005 0.0
C738 C 0.98047 0.41014 0.90569 0.0
N739 N 0.00238 0.41614 0.90558 0.0
O740 O 0.96701 0.45626 0.92273 0.0
H741 H 0.00265 0.46282 0.89749 0.0
H742 H 0.96721 0.39314 0.90875 0.0
O743 O 0.96537 0.45164 0.87114 0.0
C744 C 0.96169 0.44899 0.94473 0.0
O745 O 0.94752 0.4275 0.94803 0.0
N746 N 0.93569 0.40631 0.88023 0.0
C747 C 0.90755 0.36632 0.85562 0.0
C748 C 0.91354 0.387 0.84469 0.0
C749 C 0.9273 0.40684 0.85754 0.0
C750 C 0.9283 0.38631 0.89188 0.0
C751 C 0.91485 0.36609 0.87965 0.0
H752 H 0.93057 0.42253 0.84949 0.0
H753 H 0.93228 0.38603 0.91109 0.0
H754 H 0.93922 0.46675 0.87943 0.0
H755 H 0.87859 0.4275 0.91742 0.0
H756 H 0.0319 0.44884 0.90151 0.0
H757 H 0.90747 0.38783 0.82653 0.0
H758 H 0.90951 0.35041 0.88925 0.0
C759 C 0.57735 0.49316 0.899 0.0
C760 C 0.56726 0.47029 0.89577 0.0
N761 N 0.5469 0.46301 0.88556 0.0
N762 N 0.56342 0.5002 0.89083 0.0
C763 C 0.54501 0.48148 0.88275 0.0
H764 H 0.59352 0.50388 0.90743 0.0
Co765 Co 0.56776 0.5289 0.89424 0.0
C766 C 0.5508 0.53846 0.84863 0.0
O767 O 0.56827 0.55883 0.84958 0.0
N768 N 0.5715 0.55788 0.89877 0.0
C769 C 0.56102 0.58344 0.90427 0.0
C770 C 0.55376 0.56127 0.8996 0.0
C771 C 0.58939 0.57839 0.90366 0.0
N772 N 0.58345 0.59421 0.90685 0.0
O773 O 0.54296 0.51751 0.9169 0.0
H774 H 0.53645 0.5483 0.89707 0.0
H775 H 0.60645 0.58191 0.90514 0.0
O776 O 0.54806 0.52404 0.86526 0.0
C777 C 0.54994 0.51738 0.93867 0.0
O778 O 0.57125 0.52365 0.94163 0.0
N779 N 0.5935 0.53973 0.87413 0.0
C780 C 0.6343 0.55297 0.85041 0.0
C781 C 0.61391 0.5402 0.83791 0.0
C782 C 0.59363 0.53346 0.85022 0.0
C783 C 0.61315 0.55071 0.88691 0.0
C784 C 0.63375 0.55812 0.87527 0.0
H785 H 0.57815 0.52242 0.84077 0.0
H786 H 0.61279 0.55309 0.90656 0.0
H787 H 0.53008 0.48124 0.87604 0.0
H788 H 0.57424 0.45982 0.9008 0.0
H789 H 0.55048 0.59087 0.90643 0.0
H790 H 0.61364 0.53516 0.81894 0.0
H791 H 0.64908 0.56696 0.88591 0.0
C792 C 0.57293 0.81948 0.73834 0.0
C793 C 0.56018 0.79677 0.73393 0.0
N794 N 0.57301 0.7903 0.72169 0.0
N795 N 0.59367 0.82714 0.729 0.0
C796 C 0.59319 0.80899 0.71893 0.0
H797 H 0.56775 0.82959 0.74861 0.0
Co798 Co 0.61824 0.85542 0.73393 0.0
C799 C 0.6466 0.86596 0.6892 0.0
O800 O 0.65172 0.887 0.69141 0.0
N801 N 0.6435 0.88384 0.74007 0.0
C802 C 0.67925 0.90845 0.74844 0.0
C803 C 0.66444 0.88682 0.74166 0.0
C804 C 0.64608 0.90401 0.74655 0.0
N805 N 0.6677 0.91928 0.75166 0.0
O806 O 0.63079 0.84273 0.75584 0.0
H807 H 0.6687 0.87393 0.73818 0.0
H808 H 0.63246 0.90738 0.74855 0.0
O809 O 0.63335 0.85134 0.70483 0.0
C810 C 0.6235 0.84188 0.77766 0.0
O811 O 0.60851 0.84812 0.78117 0.0
N812 N 0.6042 0.86751 0.71443 0.0
C813 C 0.57528 0.87984 0.69222 0.0
C814 C 0.58528 0.87 0.67832 0.0
C815 C 0.59929 0.86347 0.68988 0.0
C816 C 0.59429 0.87669 0.72821 0.0
C817 C 0.58014 0.88335 0.71746 0.0
H818 H 0.60486 0.85393 0.67928 0.0
H819 H 0.59653 0.87787 0.74798 0.0
H820 H 0.60771 0.80913 0.71105 0.0
H821 H 0.54302 0.78578 0.73974 0.0
H822 H 0.69716 0.91559 0.75088 0.0
H823 H 0.58125 0.86614 0.65899 0.0
H824 H 0.57254 0.89057 0.729 0.0
C825 C 0.18127 0.75622 0.73613 0.0
C826 C 0.20429 0.7691 0.73761 0.0
N827 N 0.2102 0.79059 0.73307 0.0
N828 N 0.17265 0.76947 0.73036 0.0
C829 C 0.1907 0.7904 0.72938 0.0
H830 H 0.17163 0.7383 0.73886 0.0
Co831 Co 0.14243 0.76134 0.72594 0.0
C832 C 0.16457 0.78848 0.67965 0.0
O833 O 0.17998 0.78252 0.67907 0.0
N834 N 0.11229 0.75316 0.72195 0.0
C835 C 0.07939 0.74365 0.70474 0.0
C836 C 0.102 0.75288 0.70065 0.0
C837 C 0.09554 0.74396 0.73874 0.0
N838 N 0.07532 0.73799 0.7287 0.0
O839 O 0.14701 0.78521 0.74777 0.0
H840 H 0.11018 0.75823 0.68295 0.0
H841 H 0.09794 0.74077 0.75769 0.0
O842 O 0.14996 0.78126 0.69698 0.0
C843 C 0.14465 0.7782 0.76996 0.0
O844 O 0.13957 0.75731 0.77371 0.0
N845 N 0.13692 0.73623 0.70702 0.0
C846 C 0.1243 0.69394 0.68781 0.0
C847 C 0.13153 0.71251 0.67216 0.0
C848 C 0.13736 0.73352 0.6821 0.0
C849 C 0.12943 0.7182 0.7223 0.0
C850 C 0.12315 0.69696 0.71316 0.0
H851 H 0.14142 0.74707 0.66953 0.0
H852 H 0.12839 0.72042 0.74189 0.0
H853 H 0.18957 0.80521 0.72535 0.0
H854 H 0.21582 0.76297 0.74079 0.0
H855 H 0.06687 0.74105 0.69105 0.0
H856 H 0.13205 0.71066 0.65239 0.0
H857 H 0.11761 0.68305 0.72588 0.0
C858 C 0.24604 0.41745 0.73247 0.0
C859 C 0.23627 0.43046 0.72873 0.0
N860 N 0.21487 0.41692 0.72149 0.0
N861 N 0.23092 0.39589 0.72727 0.0
C862 C 0.2121 0.39609 0.72081 0.0
H863 H 0.26296 0.42327 0.73888 0.0
Co864 Co 0.23434 0.37094 0.7302 0.0
C865 C 0.21539 0.34432 0.68497 0.0
O866 O 0.23192 0.33998 0.68549 0.0
N867 N 0.23713 0.345 0.73407 0.0
C868 C 0.22566 0.30881 0.74004 0.0
C869 C 0.21897 0.32433 0.73686 0.0
C870 C 0.25476 0.34143 0.73584 0.0
N871 N 0.24823 0.31954 0.73936 0.0
O872 O 0.20999 0.35833 0.75322 0.0
H873 H 0.20174 0.32067 0.7365 0.0
H874 H 0.27209 0.35439 0.73444 0.0
O875 O 0.214 0.35681 0.70159 0.0
C876 C 0.21811 0.36428 0.77485 0.0
O877 O 0.2399 0.37768 0.77707 0.0
N878 N 0.25975 0.38517 0.70982 0.0
C879 C 0.30059 0.41527 0.68757 0.0
C880 C 0.28031 0.40682 0.67454 0.0
C881 C 0.26001 0.39204 0.68612 0.0
C882 C 0.27922 0.39364 0.72284 0.0
C883 C 0.2998 0.40806 0.71192 0.0
H884 H 0.24459 0.3875 0.67657 0.0
H885 H 0.27866 0.38988 0.74227 0.0
H886 H 0.19661 0.38116 0.71574 0.0
H887 H 0.24413 0.44838 0.73169 0.0
H888 H 0.21465 0.29105 0.74319 0.0
H889 H 0.27994 0.41256 0.65606 0.0
H890 H 0.3149 0.41403 0.72285 0.0
C891 C 0.48092 0.92286 0.11114 0.0
C892 C 0.45789 0.91206 0.11237 0.0
N893 N 0.45226 0.91616 0.13466 0.0
N894 N 0.48966 0.93411 0.13238 0.0
C895 C 0.4717 0.9294 0.14654 0.0
H896 H 0.49061 0.9226 0.09563 0.0
Co897 Co 0.52005 0.9524 0.13859 0.0
C898 C 0.52162 0.98565 0.1737 0.0
O899 O 0.53386 0.00113 0.15743 0.0
N900 N 0.55083 0.97054 0.14495 0.0
C901 C 0.58363 0.98557 0.16461 0.0
C902 C 0.56076 0.97289 0.16715 0.0
C903 C 0.56808 0.98229 0.12929 0.0
N904 N 0.58806 0.99146 0.14083 0.0
O905 O 0.52001 0.97484 0.11711 0.0
H906 H 0.55197 0.96554 0.18416 0.0
H907 H 0.56635 0.98361 0.10969 0.0
O908 O 0.51384 0.96499 0.16819 0.0
C909 C 0.52416 0.97188 0.09488 0.0
O910 O 0.52944 0.95629 0.09056 0.0
N911 N 0.51998 0.92937 0.1565 0.0
C912 C 0.52499 0.89493 0.17645 0.0
C913 C 0.51704 0.90635 0.19105 0.0
C914 C 0.5143 0.92344 0.18055 0.0
C915 C 0.52718 0.9181 0.14202 0.0
C916 C 0.52976 0.90079 0.15158 0.0
H917 H 0.50818 0.93212 0.19187 0.0
H918 H 0.53139 0.923 0.12295 0.0
H919 H 0.47271 0.93589 0.16495 0.0
H920 H 0.44617 0.90193 0.09811 0.0
H921 H 0.59606 0.99006 0.17901 0.0
H922 H 0.51303 0.90212 0.2103 0.0
H923 H 0.5361 0.89253 0.13976 0.0
C924 C 0.0826 0.57401 0.12833 0.0
C925 C 0.09638 0.56499 0.13103 0.0
N926 N 0.08567 0.54657 0.14527 0.0
N927 N 0.06335 0.56126 0.14076 0.0
C928 C 0.06571 0.54468 0.15092 0.0
H929 H 0.086 0.58844 0.11726 0.0
Co930 Co 0.03824 0.56434 0.13917 0.0
C931 C 0.0145 0.54838 0.18665 0.0
O932 O 0.01056 0.56518 0.18566 0.0
N933 N 0.01227 0.56691 0.13628 0.0
C934 C 0.9759 0.55552 0.13272 0.0
C935 C 0.99129 0.54907 0.13803 0.0
C936 C 0.00906 0.5839 0.12898 0.0
N937 N 0.98705 0.57747 0.12686 0.0
O938 O 0.02424 0.53873 0.11795 0.0
H939 H 0.98741 0.5322 0.14259 0.0
H940 H 0.02242 0.60036 0.12404 0.0
O941 O 0.02575 0.54574 0.16941 0.0
C942 C 0.0279 0.54618 0.0959 0.0
O943 O 0.04005 0.56799 0.09261 0.0
N944 N 0.05366 0.59089 0.15773 0.0
C945 C 0.08262 0.63286 0.17829 0.0
C946 C 0.07549 0.61321 0.19209 0.0
C947 C 0.06132 0.59232 0.18131 0.0
C948 C 0.06152 0.60977 0.14375 0.0
C949 C 0.07548 0.63093 0.1538 0.0
H950 H 0.05754 0.57744 0.1916 0.0
H951 H 0.05782 0.60834 0.12427 0.0
H952 H 0.05261 0.53078 0.16113 0.0
H953 H 0.11279 0.57122 0.12284 0.0
H954 H 0.95787 0.54465 0.13294 0.0
H955 H 0.08124 0.61394 0.21083 0.0
H956 H 0.08153 0.64559 0.1421 0.0
C957 C 0.42639 0.51303 0.13007 0.0
C958 C 0.43636 0.5358 0.134 0.0
N959 N 0.45705 0.54305 0.14322 0.0
N960 N 0.44066 0.50604 0.13717 0.0
C961 C 0.45925 0.5247 0.14488 0.0
H962 H 0.40987 0.50228 0.12242 0.0
Co963 Co 0.43614 0.47727 0.13531 0.0
C964 C 0.4476 0.46782 0.1843 0.0
O965 O 0.42928 0.44815 0.18201 0.0
N966 N 0.43238 0.44822 0.13248 0.0
C967 C 0.44295 0.4225 0.13068 0.0
C968 C 0.44956 0.44433 0.13629 0.0
C969 C 0.41567 0.42847 0.12366 0.0
N970 N 0.4216 0.41251 0.12262 0.0
O971 O 0.46226 0.48808 0.1146 0.0
H972 H 0.46617 0.45683 0.14236 0.0
H973 H 0.3999 0.42591 0.11677 0.0
O974 O 0.4536 0.48205 0.16653 0.0
C975 C 0.4549 0.48519 0.0925 0.0
O976 O 0.43321 0.47687 0.08927 0.0
N977 N 0.40905 0.46699 0.15309 0.0
C978 C 0.36702 0.45472 0.17336 0.0
C979 C 0.38683 0.4685 0.18649 0.0
C980 C 0.40767 0.47485 0.17582 0.0
C981 C 0.39006 0.45499 0.13949 0.0
C982 C 0.36891 0.44801 0.14948 0.0
H983 H 0.42263 0.48687 0.18546 0.0
H984 H 0.39132 0.45184 0.12025 0.0
H985 H 0.47409 0.52479 0.15166 0.0
H986 H 0.42914 0.54626 0.12995 0.0
H987 H 0.45323 0.41474 0.13216 0.0
H988 H 0.38635 0.47516 0.20441 0.0
H989 H 0.35424 0.43787 0.13825 0.0
C990 C 0.08423 0.50869 0.6189 0.0
C991 C 0.09578 0.53178 0.62025 0.0
N992 N 0.08487 0.53807 0.6361 0.0
N993 N 0.06619 0.50057 0.63382 0.0
C994 C 0.06698 0.51884 0.64399 0.0
H995 H 0.08846 0.49846 0.60747 0.0
Co996 Co 0.04418 0.47072 0.63668 0.0
C997 C 0.0295 0.4652 0.68836 0.0
O998 O 0.03094 0.44685 0.68844 0.0
N999 N 0.02104 0.44027 0.63875 0.0
C1000 C 0.98662 0.41096 0.64427 0.0
C1001 C 6e-05 0.43374 0.64695 0.0
C1002 C 0.01945 0.42111 0.62992 0.0
N1003 N 0.99887 0.40312 0.63348 0.0
O1004 O 0.02428 0.47682 0.61801 0.0
H1005 H 0.99459 0.44498 0.65381 0.0
H1006 H 0.03261 0.42018 0.62018 0.0
O1007 O 0.03405 0.47695 0.66863 0.0
C1008 C 0.02611 0.47196 0.59575 0.0
O1009 O 0.03967 0.4641 0.59114 0.0
N1010 N 0.06535 0.46508 0.65235 0.0
C1011 C 0.0987 0.45668 0.66963 0.0
C1012 C 0.09281 0.47042 0.68304 0.0
C1013 C 0.07656 0.47497 0.67369 0.0
C1014 C 0.07254 0.45367 0.63804 0.0
C1015 C 0.08873 0.44878 0.64652 0.0
H1016 H 0.07325 0.48665 0.68351 0.0
H1017 H 0.06631 0.44906 0.61947 0.0
H1018 H 0.05425 0.51813 0.65627 0.0
H1019 H 0.11097 0.54304 0.61034 0.0
H1020 H 0.96893 0.40109 0.64867 0.0
H1021 H 0.10065 0.47761 0.70056 0.0
H1022 H 0.09383 0.43941 0.63475 0.0
C1023 C 0.47841 0.57103 0.62421 0.0
C1024 C 0.45545 0.55717 0.62293 0.0
N1025 N 0.45071 0.53606 0.62774 0.0
N1026 N 0.48806 0.55872 0.63014 0.0
C1027 C 0.47073 0.53742 0.6313 0.0
H1028 H 0.4872 0.58897 0.62155 0.0
Co1029 Co 0.51817 0.56679 0.63577 0.0
C1030 C 0.49466 0.54294 0.68244 0.0
O1031 O 0.48128 0.55138 0.68079 0.0
N1032 N 0.5479 0.57451 0.64086 0.0
C1033 C 0.57954 0.57925 0.65734 0.0
C1034 C 0.55713 0.57131 0.66133 0.0
C1035 C 0.56514 0.58487 0.62485 0.0
N1036 N 0.58453 0.58776 0.63442 0.0
O1037 O 0.51393 0.54256 0.61451 0.0
H1038 H 0.5484 0.56403 0.67836 0.0
H1039 H 0.56347 0.58996 0.60648 0.0
O1040 O 0.50933 0.54735 0.66555 0.0
C1041 C 0.51533 0.54948 0.59237 0.0
O1042 O 0.51979 0.57023 0.58899 0.0
N1043 N 0.52363 0.59231 0.65384 0.0
C1044 C 0.53586 0.63471 0.67221 0.0
C1045 C 0.53128 0.61703 0.68832 0.0
C1046 C 0.52584 0.59602 0.67872 0.0
C1047 C 0.52898 0.60967 0.63807 0.0
C1048 C 0.535 0.63097 0.64682 0.0
H1049 H 0.52429 0.58331 0.69138 0.0
H1050 H 0.52858 0.60689 0.61842 0.0
H1051 H 0.47273 0.52321 0.63588 0.0
H1052 H 0.44316 0.56239 0.62007 0.0
H1053 H 0.59138 0.57919 0.67043 0.0
H1054 H 0.53263 0.61965 0.70808 0.0
H1055 H 0.53883 0.64438 0.63384 0.0
C1056 C 0.42296 0.90864 0.62974 0.0
C1057 C 0.43404 0.89672 0.62777 0.0
N1058 N 0.45627 0.91113 0.63004 0.0
N1059 N 0.43806 0.93044 0.63372 0.0
C1060 C 0.45821 0.93156 0.63268 0.0
H1061 H 0.40498 0.90171 0.62904 0.0
Co1062 Co 0.43187 0.9536 0.63926 0.0
C1063 C 0.46296 0.96011 0.68396 0.0
O1064 O 0.46277 0.941 0.6822 0.0
N1065 N 0.42547 0.97669 0.64448 0.0
C1066 C 0.41595 0.99922 0.66372 0.0
C1067 C 0.42388 0.98463 0.6667 0.0
C1068 C 0.4183 0.98665 0.62825 0.0
N1069 N 0.4123 0.00039 0.63954 0.0
O1070 O 0.45571 0.97234 0.6167 0.0
H1071 H 0.42696 0.97916 0.68419 0.0
H1072 H 0.41616 0.98283 0.60877 0.0
O1073 O 0.45215 0.96505 0.66828 0.0
C1074 C 0.448 0.96785 0.59471 0.0
O1075 O 0.42674 0.95265 0.5917 0.0
N1076 N 0.40692 0.9346 0.65896 0.0
C1077 C 0.36599 0.9063 0.68202 0.0
C1078 C 0.38627 0.91032 0.69264 0.0
C1079 C 0.40664 0.92461 0.68081 0.0
C1080 C 0.38728 0.93035 0.64816 0.0
C1081 C 0.36669 0.91652 0.65948 0.0
H1082 H 0.42188 0.92712 0.6891 0.0
H1083 H 0.38764 0.93773 0.63045 0.0
H1084 H 0.47394 0.94695 0.63558 0.0
H1085 H 0.42619 0.87872 0.62562 0.0
H1086 H 0.4125 0.00776 0.67834 0.0
H1087 H 0.3864 0.90255 0.70995 0.0
H1088 H 0.35141 0.91345 0.65035 0.0
C1089 C 0.18727 0.42567 0.23954 0.0
C1090 C 0.21023 0.43486 0.24008 0.0
N1091 N 0.21497 0.41863 0.23446 0.0
N1092 N 0.17757 0.40379 0.23326 0.0
C1093 C 0.1949 0.39991 0.23113 0.0
H1094 H 0.17844 0.43466 0.24308 0.0
Co1095 Co 0.14713 0.38242 0.22884 0.0
C1096 C 0.16838 0.37822 0.18152 0.0
O1097 O 0.18354 0.39968 0.18118 0.0
N1098 N 0.11693 0.36114 0.22482 0.0
C1099 C 0.0843 0.3359 0.20854 0.0
C1100 C 0.10664 0.35016 0.20389 0.0
C1101 C 0.10038 0.35369 0.24181 0.0
N1102 N 0.08041 0.33818 0.23234 0.0
O1103 O 0.15108 0.36223 0.24989 0.0
H1104 H 0.11464 0.35256 0.18615 0.0
H1105 H 0.10292 0.35935 0.26075 0.0
O1106 O 0.15415 0.37034 0.1992 0.0
C1107 C 0.15041 0.36777 0.27221 0.0
O1108 O 0.14691 0.38461 0.27623 0.0
N1109 N 0.14221 0.4028 0.21089 0.0
C1110 C 0.13179 0.43472 0.19356 0.0
C1111 C 0.13678 0.42206 0.17706 0.0
C1112 C 0.14152 0.40582 0.18609 0.0
C1113 C 0.13634 0.41414 0.22698 0.0
C1114 C 0.13119 0.43018 0.21882 0.0
H1115 H 0.144 0.39556 0.17298 0.0
H1116 H 0.13573 0.41066 0.24649 0.0
H1117 H 0.19285 0.38374 0.22627 0.0
H1118 H 0.2225 0.45235 0.24313 0.0
H1119 H 0.07175 0.32501 0.19534 0.0
H1120 H 0.13703 0.42463 0.15735 0.0
H1121 H 0.12648 0.43869 0.23228 0.0
C1122 C 0.57673 0.75781 0.24228 0.0
C1123 C 0.5629 0.76674 0.23966 0.0
N1124 N 0.57447 0.78662 0.22801 0.0
N1125 N 0.59682 0.77184 0.23204 0.0
C1126 C 0.59504 0.78935 0.22367 0.0
H1127 H 0.57252 0.74221 0.25137 0.0
Co1128 Co 0.62133 0.76753 0.23207 0.0
C1129 C 0.64045 0.77862 0.18227 0.0
O1130 O 0.6417 0.76023 0.18414 0.0
N1131 N 0.64676 0.76378 0.23307 0.0
C1132 C 0.68303 0.77405 0.23157 0.0
C1133 C 0.66774 0.78112 0.22901 0.0
C1134 C 0.64997 0.74647 0.23902 0.0
N1135 N 0.67181 0.75227 0.23788 0.0
O1136 O 0.63751 0.79379 0.25215 0.0
H1137 H 0.6717 0.79802 0.22448 0.0
H1138 H 0.63687 0.72994 0.24424 0.0
O1139 O 0.63267 0.78467 0.20045 0.0
C1140 C 0.63377 0.78622 0.27418 0.0
O1141 O 0.62041 0.76453 0.27731 0.0
N1142 N 0.60373 0.74026 0.21518 0.0
C1143 C 0.57224 0.69789 0.19762 0.0
C1144 C 0.57865 0.71704 0.18321 0.0
C1145 C 0.59387 0.73818 0.19268 0.0
C1146 C 0.59671 0.72187 0.22982 0.0
C1147 C 0.58132 0.70049 0.22128 0.0
H1148 H 0.59689 0.75282 0.18232 0.0
H1149 H 0.60224 0.72392 0.24876 0.0
H1150 H 0.60857 0.80382 0.21464 0.0
H1151 H 0.54585 0.75944 0.24638 0.0
H1152 H 0.70107 0.78426 0.22961 0.0
H1153 H 0.57113 0.71578 0.16531 0.0
H1154 H 0.57624 0.68618 0.23329 0.0
C1155 C 0.23195 0.81691 0.24445 0.0
C1156 C 0.22012 0.79385 0.24271 0.0
N1157 N 0.20173 0.78788 0.22881 0.0
N1158 N 0.22106 0.82533 0.23166 0.0
C1159 C 0.2027 0.80729 0.22242 0.0
H1160 H 0.2473 0.82691 0.2547 0.0
Co1161 Co 0.22862 0.85512 0.22998 0.0
C1162 C 0.22034 0.86271 0.17882 0.0
O1163 O 0.24011 0.88103 0.18024 0.0
N1164 N 0.23544 0.88544 0.22898 0.0
C1165 C 0.22831 0.91348 0.22456 0.0
C1166 C 0.21951 0.89074 0.22319 0.0
C1167 C 0.25367 0.90547 0.23471 0.0
N1168 N 0.24979 0.9227 0.23182 0.0
O1169 O 0.20263 0.84818 0.24934 0.0
H1170 H 0.20234 0.87867 0.21841 0.0
H1171 H 0.26947 0.90774 0.24115 0.0
O1172 O 0.21242 0.84983 0.19775 0.0
C1173 C 0.21023 0.85263 0.27136 0.0
O1174 O 0.2318 0.8603 0.27472 0.0
N1175 N 0.25546 0.86145 0.21411 0.0
C1176 C 0.29722 0.86954 0.19708 0.0
C1177 C 0.27746 0.85546 0.18392 0.0
C1178 C 0.25671 0.85132 0.19297 0.0
C1179 C 0.2741 0.8732 0.22825 0.0
C1180 C 0.29519 0.87827 0.21971 0.0
H1181 H 0.24164 0.83948 0.18332 0.0
H1182 H 0.27253 0.87815 0.24669 0.0
H1183 H 0.18986 0.80834 0.21197 0.0
H1184 H 0.22468 0.7824 0.25103 0.0
H1185 H 0.21941 0.9225 0.22126 0.0
H1186 H 0.27785 0.84716 0.16714 0.0
H1187 H 0.30966 0.88884 0.23099 0.0
H1188 H 0.33742 0.1966 0.85554 0.0
H1189 H 0.39302 0.19732 0.89338 0.0
H1190 H 0.31716 0.18893 0.89448 0.0
H1191 H 0.37281 0.18982 0.93228 0.0
H1192 H 0.32608 0.16867 0.99971 0.0
H1193 H 0.33997 0.16507 0.95905 0.0
H1194 H 0.3243 0.21384 0.92934 0.0
H1195 H 0.3106 0.21728 0.96919 0.0
C1196 C 0.34525 0.1949 0.87208 0.0
C1197 C 0.3671 0.19816 0.87135 0.0
C1198 C 0.33362 0.19048 0.89444 0.0
C1199 C 0.34351 0.18916 0.91663 0.0
C1200 C 0.36463 0.19066 0.91559 0.0
C1201 C 0.37628 0.19509 0.89321 0.0
C1202 C 0.32537 0.17832 0.98433 0.0
C1203 C 0.31746 0.19341 0.98774 0.0
C1204 C 0.33339 0.17636 0.96111 0.0
C1205 C 0.33319 0.18912 0.94086 0.0
C1206 C 0.32443 0.20348 0.94429 0.0
C1207 C 0.31678 0.20564 0.96733 0.0
H1208 H 0.83378 0.13406 0.98285 0.0
H1209 H 0.77331 0.13677 0.99541 0.0
H1210 H 0.83719 0.15039 0.94156 0.0
H1211 H 0.77685 0.15338 0.95484 0.0
H1212 H 0.79318 0.19386 0.88679 0.0
H1213 H 0.80127 0.18733 0.92866 0.0
H1214 H 0.81204 0.13425 0.90255 0.0
H1215 H 0.80386 0.14069 0.86044 0.0
C1216 C 0.82172 0.1389 0.9771 0.0
C1217 C 0.80339 0.1344 0.99229 0.0
C1218 C 0.82351 0.14799 0.95344 0.0
C1219 C 0.80729 0.15318 0.94494 0.0
C1220 C 0.78978 0.14985 0.96088 0.0
C1221 C 0.78773 0.14035 0.98413 0.0
C1222 C 0.79767 0.18105 0.88979 0.0
C1223 C 0.79745 0.16753 0.8702 0.0
C1224 C 0.80231 0.17732 0.91385 0.0
C1225 C 0.80704 0.16011 0.91897 0.0
C1226 C 0.80856 0.14772 0.89919 0.0
C1227 C 0.80377 0.15136 0.87504 0.0
H1228 H 0.80439 0.60764 0.89289 0.0
H1229 H 0.86249 0.66771 0.86588 0.0
H1230 H 0.81091 0.62399 0.93397 0.0
H1231 H 0.86891 0.68405 0.90718 0.0
H1232 H 0.86991 0.71043 0.98494 0.0
H1233 H 0.85341 0.69675 0.94388 0.0
H1234 H 0.84355 0.6313 0.96186 0.0
H1235 H 0.86039 0.6451 1.00223 0.0
C1236 C 0.8183 0.62451 0.89554 0.0
C1237 C 0.83319 0.63617 0.87613 0.0
C1238 C 0.82201 0.63386 0.91913 0.0
C1239 C 0.84054 0.65518 0.92385 0.0
C1240 C 0.85441 0.66761 0.90407 0.0
C1241 C 0.8508 0.65818 0.88043 0.0
C1242 C 0.86349 0.69296 0.98027 0.0
C1243 C 0.86614 0.67869 0.99668 0.0
C1244 C 0.85429 0.6852 0.95677 0.0
C1245 C 0.84719 0.66296 0.94966 0.0
C1246 C 0.84858 0.64843 0.96685 0.0
C1247 C 0.85819 0.65629 0.98997 0.0
H1248 H 0.20813 0.29217 0.5516 0.0
H1249 H 0.1806 0.33348 0.5288 0.0
H1250 H 0.20226 0.29763 0.59429 0.0
H1251 H 0.17451 0.33917 0.57245 0.0
H1252 H 0.21123 0.37085 0.65038 0.0
H1253 H 0.19997 0.35988 0.60752 0.0
H1254 H 0.17622 0.29068 0.62679 0.0
H1255 H 0.18877 0.30197 0.66908 0.0
C1256 C 0.20024 0.30202 0.55581 0.0
C1257 C 0.19479 0.31238 0.53695 0.0
C1258 C 0.19669 0.30505 0.58039 0.0
C1259 C 0.18774 0.31875 0.58698 0.0
C1260 C 0.18142 0.32851 0.56801 0.0
C1261 C 0.18475 0.32517 0.54308 0.0
C1262 C 0.2028 0.35322 0.64557 0.0
C1263 C 0.20102 0.33723 0.66288 0.0
C1264 C 0.19631 0.34689 0.621 0.0
C1265 C 0.18774 0.32446 0.61353 0.0
C1266 C 0.18332 0.30818 0.63174 0.0
C1267 C 0.19026 0.31457 0.65605 0.0
H1268 H 0.62105 0.82871 0.66089 0.0
H1269 H 0.68595 0.88885 0.66474 0.0
H1270 H 0.62812 0.82377 0.61761 0.0
H1271 H 0.69324 0.88367 0.62197 0.0
H1272 H 0.70397 0.86964 0.54498 0.0
H1273 H 0.69709 0.85885 0.58861 0.0
H1274 H 0.63086 0.85074 0.58268 0.0
H1275 H 0.63795 0.86202 0.53954 0.0
C1276 C 0.63716 0.84033 0.6528 0.0
C1277 C 0.65293 0.85925 0.66605 0.0
C1278 C 0.64116 0.83757 0.62803 0.0
C1279 C 0.66121 0.85337 0.61638 0.0
C1280 C 0.67775 0.87108 0.63045 0.0
C1281 C 0.67355 0.87411 0.65492 0.0
C1282 C 0.68767 0.86474 0.55282 0.0
C1283 C 0.67152 0.86678 0.539 0.0
C1284 C 0.68377 0.85868 0.57779 0.0
C1285 C 0.66347 0.85405 0.58909 0.0
C1286 C 0.64657 0.85398 0.5745 0.0
C1287 C 0.65065 0.86052 0.5498 0.0
H1288 H 0.15208 0.82976 0.52882 0.0
H1289 H 0.0869 0.78466 0.55978 0.0
H1290 H 0.16926 0.83274 0.56956 0.0
H1291 H 0.10369 0.78743 0.59967 0.0
H1292 H 0.13364 0.80205 0.67307 0.0
H1293 H 0.12263 0.81169 0.63432 0.0
H1294 H 0.17525 0.80683 0.5965 0.0
H1295 H 0.1866 0.79765 0.63532 0.0
C1296 C 0.14144 0.8208 0.54433 0.0
C1297 C 0.1182 0.8068 0.54104 0.0
C1298 C 0.15123 0.82239 0.56759 0.0
C1299 C 0.13785 0.81036 0.58796 0.0
C1300 C 0.11454 0.79722 0.58464 0.0
C1301 C 0.1049 0.79543 0.56158 0.0
C1302 C 0.14318 0.80347 0.65661 0.0
C1303 C 0.16072 0.7986 0.65729 0.0
C1304 C 0.13682 0.80894 0.63434 0.0
C1305 C 0.14778 0.80962 0.61216 0.0
C1306 C 0.16647 0.80653 0.61319 0.0
C1307 C 0.17289 0.80112 0.6355 0.0
H1308 H 0.71968 0.8625 0.06316 0.0
H1309 H 0.66262 0.80872 0.02587 0.0
H1310 H 0.70024 0.84966 0.10251 0.0
H1311 H 0.64301 0.79619 0.06514 0.0
H1312 H 0.63729 0.75951 0.13806 0.0
H1313 H 0.64995 0.77735 0.0984 0.0
H1314 H 0.66878 0.84168 0.131 0.0
H1315 H 0.65603 0.82343 0.17153 0.0
C1316 C 0.70276 0.84828 0.06323 0.0
C1317 C 0.69292 0.83633 0.04137 0.0
C1318 C 0.69155 0.84098 0.08585 0.0
C1319 C 0.6702 0.82164 0.08711 0.0
C1320 C 0.65965 0.81085 0.06494 0.0
C1321 C 0.67088 0.81806 0.04239 0.0
C1322 C 0.64391 0.77745 0.13687 0.0
C1323 C 0.64587 0.7901 0.15803 0.0
C1324 C 0.65097 0.78769 0.11395 0.0
C1325 C 0.66035 0.81098 0.11136 0.0
C1326 C 0.66171 0.82369 0.13239 0.0
C1327 C 0.65431 0.81328 0.15553 0.0
H1328 H 0.19125 0.85518 0.02191 0.0
H1329 H 0.14658 0.87295 0.05855 0.0
H1330 H 0.20076 0.84546 0.06155 0.0
H1331 H 0.15648 0.86373 0.09819 0.0
H1332 H 0.17484 0.84032 0.16831 0.0
H1333 H 0.15761 0.83686 0.12753 0.0
H1334 H 0.22354 0.86971 0.09435 0.0
H1335 H 0.24035 0.87288 0.13438 0.0
C1336 C 0.18318 0.8567 0.03832 0.0
C1337 C 0.16847 0.86528 0.03698 0.0
C1338 C 0.1887 0.8512 0.06112 0.0
C1339 C 0.17969 0.85417 0.08319 0.0
C1340 C 0.16368 0.86112 0.08165 0.0
C1341 C 0.15813 0.86658 0.05884 0.0
C1342 C 0.18547 0.8463 0.15214 0.0
C1343 C 0.20893 0.85705 0.15454 0.0
C1344 C 0.17567 0.84449 0.12884 0.0
C1345 C 0.18918 0.85304 0.10758 0.0
C1346 C 0.21252 0.86264 0.11009 0.0
C1347 C 0.22222 0.86467 0.13319 0.0
H1348 H 0.09026 0.3101 0.05961 0.0
H1349 H 0.15464 0.32576 0.02969 0.0
H1350 H 0.10705 0.32309 0.09985 0.0
H1351 H 0.17178 0.33911 0.07062 0.0
H1352 H 0.19053 0.39174 0.13732 0.0
H1353 H 0.17877 0.37218 0.09789 0.0
H1354 H 0.12514 0.31453 0.13437 0.0
H1355 H 0.13681 0.33403 0.17381 0.0
C1356 C 0.10806 0.3162 0.06169 0.0
C1357 C 0.12118 0.3171 0.04139 0.0
C1358 C 0.11765 0.32344 0.0849 0.0
C1359 C 0.14074 0.33206 0.08853 0.0
C1360 C 0.15392 0.33257 0.06837 0.0
C1361 C 0.14415 0.32489 0.04501 0.0
C1362 C 0.17653 0.3747 0.13707 0.0
C1363 C 0.16427 0.36469 0.15872 0.0
C1364 C 0.16987 0.36345 0.11442 0.0
C1365 C 0.15079 0.34195 0.11292 0.0
C1366 C 0.13967 0.33126 0.13485 0.0
C1367 C 0.14638 0.34245 0.15749 0.0
H1368 H 0.77995 0.69468 0.48363 0.0
H1369 H 0.82784 0.67581 0.50848 0.0
H1370 H 0.78673 0.68885 0.44129 0.0
H1371 H 0.83445 0.66943 0.46512 0.0
H1372 H 0.79638 0.62882 0.3861 0.0
H1373 H 0.8059 0.64004 0.42939 0.0
H1374 H 0.82051 0.707 0.41101 0.0
H1375 H 0.81047 0.69564 0.36819 0.0
C1376 C 0.79199 0.68925 0.48001 0.0
C1377 C 0.80322 0.6855 0.49941 0.0
C1378 C 0.79605 0.68614 0.45566 0.0
C1379 C 0.81128 0.6789 0.44985 0.0
C1380 C 0.82271 0.67514 0.46914 0.0
C1381 C 0.81897 0.67879 0.49382 0.0
C1382 C 0.80275 0.64621 0.39115 0.0
C1383 C 0.80265 0.6614 0.37394 0.0
C1384 C 0.80818 0.65262 0.41592 0.0
C1385 C 0.8136 0.67429 0.42358 0.0
C1386 C 0.8162 0.69014 0.40564 0.0
C1387 C 0.81058 0.68369 0.38111 0.0
H1388 H 0.28215 0.13654 0.47283 0.0
H1389 H 0.3411 0.14108 0.50679 0.0
H1390 H 0.30058 0.14455 0.43277 0.0
H1391 H 0.35965 0.14954 0.46676 0.0
H1392 H 0.36327 0.11964 0.39187 0.0
H1393 H 0.35181 0.124 0.4326 0.0
H1394 H 0.33125 0.16942 0.40369 0.0
H1395 H 0.34288 0.16485 0.36209 0.0
C1396 C 0.29925 0.13979 0.4719 0.0
C1397 C 0.30993 0.13762 0.49301 0.0
C1398 C 0.30988 0.14455 0.44887 0.0
C1399 C 0.33145 0.1473 0.44642 0.0
C1400 C 0.34283 0.14704 0.4679 0.0
C1401 C 0.33221 0.14225 0.4909 0.0
C1402 C 0.3565 0.13075 0.39409 0.0
C1403 C 0.35372 0.14168 0.37367 0.0
C1404 C 0.35015 0.13347 0.41762 0.0
C1405 C 0.34065 0.14712 0.42156 0.0
C1406 C 0.33845 0.15871 0.40126 0.0
C1407 C 0.34517 0.1562 0.3775 0.0
H1408 H 0.86073 0.1352 0.47377 0.0
H1409 H 0.87579 0.19821 0.50721 0.0
H1410 H 0.85535 0.14851 0.43401 0.0
H1411 H 0.87028 0.21135 0.46757 0.0
H1412 H 0.89821 0.23816 0.39062 0.0
H1413 H 0.89463 0.22173 0.43081 0.0
H1414 H 0.83372 0.16246 0.40784 0.0
H1415 H 0.83729 0.17922 0.36673 0.0
C1416 C 0.86246 0.15171 0.47281 0.0
C1417 C 0.86918 0.16582 0.49366 0.0
C1418 C 0.85925 0.15928 0.44999 0.0
C1419 C 0.86274 0.18112 0.44752 0.0
C1420 C 0.86787 0.19458 0.46875 0.0
C1421 C 0.87102 0.18703 0.49152 0.0
C1422 C 0.88393 0.22162 0.3939 0.0
C1423 C 0.86806 0.20999 0.37526 0.0
C1424 C 0.88178 0.21229 0.41719 0.0
C1425 C 0.86377 0.19089 0.4227 0.0
C1426 C 0.8478 0.17903 0.40414 0.0
C1427 C 0.84981 0.1886 0.38066 0.0
H1428 H 0.02056 0.55545 0.33578 0.0
H1429 H 0.95651 0.49445 0.33042 0.0
H1430 H 0.02869 0.55124 0.29301 0.0
H1431 H 0.96444 0.49045 0.28715 0.0
H1432 H 0.97443 0.52941 0.20962 0.0
H1433 H 0.96694 0.51743 0.25254 0.0
H1434 H 0.03391 0.52757 0.2594 0.0
H1435 H 0.04117 0.53904 0.21594 0.0
C1436 C 0.00852 0.54075 0.32561 0.0
C1437 C 0.9879 0.52533 0.33633 0.0
C1438 C 0.01322 0.53827 0.30114 0.0
C1439 C 0.99717 0.52056 0.28667 0.0
C1440 C 0.97712 0.50425 0.29789 0.0
C1441 C 0.97263 0.50648 0.32265 0.0
C1442 C 0.9872 0.52813 0.22002 0.0
C1443 C 0.00833 0.53508 0.20955 0.0
C1444 C 0.98291 0.52123 0.2446 0.0
C1445 C 0.99987 0.52167 0.2594 0.0
C1446 C 0.02053 0.52707 0.24841 0.0
C1447 C 0.02464 0.53349 0.22354 0.0
H1448 H 0.49219 0.49746 0.19576 0.0
H1449 H 0.42812 0.45108 0.2282 0.0
H1450 H 0.50999 0.50312 0.23661 0.0
H1451 H 0.44554 0.45661 0.26825 0.0
H1452 H 0.47615 0.4769 0.34126 0.0
H1453 H 0.46414 0.48375 0.30151 0.0
H1454 H 0.51749 0.47888 0.2655 0.0
H1455 H 0.52964 0.47219 0.30523 0.0
C1456 C 0.48191 0.48876 0.21159 0.0
C1457 C 0.45882 0.47365 0.20871 0.0
C1458 C 0.49206 0.49192 0.23492 0.0
C1459 C 0.47917 0.48038 0.25576 0.0
C1460 C 0.45597 0.46605 0.2528 0.0
C1461 C 0.446 0.46268 0.22968 0.0
C1462 C 0.48559 0.47767 0.32496 0.0
C1463 C 0.50351 0.4734 0.32645 0.0
C1464 C 0.47869 0.48159 0.30213 0.0
C1465 C 0.48958 0.48143 0.28023 0.0
C1466 C 0.50873 0.47915 0.28196 0.0
C1467 C 0.51562 0.47519 0.30481 0.0
H1468 H 0.53936 0.0282 0.19172 0.0
H1469 H 0.50098 0.95883 0.21423 0.0
H1470 H 0.54107 0.04004 0.23411 0.0
H1471 H 0.5023 0.97077 0.25698 0.0
H1472 H 0.53038 0.05871 0.30909 0.0
H1473 H 0.52092 0.04316 0.26766 0.0
H1474 H 0.52853 0.98725 0.29064 0.0
H1475 H 0.5374 0.00259 0.33235 0.0
C1476 C 0.53094 0.01541 0.20566 0.0
C1477 C 0.52014 0.99251 0.19941 0.0
C1478 C 0.53182 0.02224 0.23012 0.0
C1479 C 0.52183 0.00642 0.2492 0.0
C1480 C 0.51044 0.98347 0.2429 0.0
C1481 C 0.50957 0.9766 0.21831 0.0
C1482 C 0.52967 0.04289 0.30543 0.0
C1483 C 0.53476 0.03198 0.3241 0.0
C1484 C 0.52441 0.03403 0.28155 0.0
C1485 C 0.52431 0.01409 0.2755 0.0
C1486 C 0.52826 0.00254 0.29452 0.0
C1487 C 0.53336 0.01135 0.31854 0.0
H1488 H 0.47631 0.94855 0.72649 0.0
H1489 H 0.46726 0.00105 0.6948 0.0
H1490 H 0.48139 0.9657 0.76709 0.0
H1491 H 0.47223 0.01808 0.73544 0.0
H1492 H 0.4404 0.01346 0.81152 0.0
H1493 H 0.44559 0.00293 0.77066 0.0
H1494 H 0.50346 0.99969 0.79569 0.0
H1495 H 0.49831 0.01061 0.83746 0.0
C1496 C 0.47588 0.96401 0.72802 0.0
C1497 C 0.47073 0.97306 0.70739 0.0
C1498 C 0.47889 0.97389 0.75136 0.0
C1499 C 0.4768 0.99301 0.75459 0.0
C1500 C 0.47349 0.00307 0.73364 0.0
C1501 C 0.47058 0.99328 0.71032 0.0
C1502 C 0.45434 0.01059 0.80854 0.0
C1503 C 0.46885 0.01273 0.82795 0.0
C1504 C 0.45744 0.00478 0.78489 0.0
C1505 C 0.47505 0.00068 0.77978 0.0
C1506 C 0.48973 0.00279 0.79908 0.0
C1507 C 0.48681 0.00903 0.82294 0.0
H1508 H 0.047 0.46453 0.73231 0.0
H1509 H 0.00144 0.4821 0.69777 0.0
H1510 H 0.03525 0.46977 0.77267 0.0
H1511 H 0.98928 0.48734 0.73876 0.0
H1512 H 0.95099 0.4461 0.81233 0.0
H1513 H 0.96685 0.45906 0.77135 0.0
H1514 H 0.03331 0.49479 0.80308 0.0
H1515 H 0.01728 0.48124 0.84396 0.0
C1516 C 0.03477 0.47005 0.73344 0.0
C1517 C 0.025 0.47277 0.71201 0.0
C1518 C 0.02816 0.47327 0.75662 0.0
C1519 C 0.01131 0.47902 0.75904 0.0
C1520 C 0.00229 0.48289 0.7375 0.0
C1521 C 0.00928 0.48002 0.71409 0.0
C1522 C 0.96885 0.45768 0.81062 0.0
C1523 C 0.98294 0.4629 0.83122 0.0
C1524 C 0.97799 0.46509 0.78712 0.0
C1525 C 0.0014 0.47765 0.78386 0.0
C1526 C 0.01523 0.48488 0.80492 0.0
C1527 C 0.00608 0.47738 0.82837 0.0
H1528 H 0.53497 0.50136 0.81873 0.0
H1529 H 0.53431 0.56315 0.8291 0.0
H1530 H 0.51686 0.49647 0.77819 0.0
H1531 H 0.51595 0.55812 0.78933 0.0
H1532 H 0.47129 0.53889 0.72462 0.0
H1533 H 0.47995 0.53222 0.76614 0.0
H1534 H 0.53137 0.5201 0.73736 0.0
H1535 H 0.52269 0.5267 0.69549 0.0
C1536 C 0.53029 0.51347 0.81267 0.0
C1537 C 0.53585 0.53256 0.82701 0.0
C1538 C 0.52016 0.5108 0.78944 0.0
C1539 C 0.51496 0.5269 0.78059 0.0
C1540 C 0.51948 0.54528 0.7957 0.0
C1541 C 0.53001 0.54819 0.81847 0.0
C1542 C 0.48414 0.53434 0.72694 0.0
C1543 C 0.49668 0.53391 0.70666 0.0
C1544 C 0.48911 0.53055 0.75082 0.0
C1545 C 0.50656 0.52598 0.75507 0.0
C1546 C 0.51781 0.52358 0.73467 0.0
C1547 C 0.51294 0.52753 0.71068 0.0
H1548 H 0.43718 0.38641 0.10385 0.0
H1549 H 0.37609 0.38713 0.12044 0.0
H1550 H 0.41534 0.34802 0.08984 0.0
H1551 H 0.35406 0.34881 0.10496 0.0
H1552 H 0.32545 0.27121 0.1044 0.0
H1553 H 0.34425 0.31092 0.11592 0.0
H1554 H 0.39195 0.32629 0.05682 0.0
H1555 H 0.37357 0.28664 0.04608 0.0
C1556 C 0.41908 0.37843 0.10449 0.0
C1557 C 0.40844 0.38991 0.11344 0.0
C1558 C 0.4065 0.35644 0.09604 0.0
C1559 C 0.38292 0.34536 0.09606 0.0
C1560 C 0.3722 0.35683 0.10483 0.0
C1561 C 0.38484 0.37888 0.11345 0.0
C1562 C 0.33976 0.28323 0.09375 0.0
C1563 C 0.34834 0.27597 0.07463 0.0
C1564 C 0.3505 0.30593 0.10026 0.0
C1565 C 0.36983 0.32173 0.08753 0.0
C1566 C 0.3775 0.31449 0.06745 0.0
C1567 C 0.36697 0.29185 0.06122 0.0
H1568 H 0.70458 0.0787 0.052 0.0
H1569 H 0.73064 0.06034 0.11434 0.0
H1570 H 0.6663 0.054 0.06646 0.0
H1571 H 0.69274 0.037 0.13021 0.0
H1572 H 0.62199 0.98313 0.14502 0.0
H1573 H 0.65921 0.00447 0.12666 0.0
H1574 H 0.64032 0.05048 0.09508 0.0
H1575 H 0.60262 0.02773 0.11197 0.0
C1576 C 0.70193 0.06939 0.06895 0.0
C1577 C 0.72025 0.07116 0.0821 0.0
C1578 C 0.68009 0.05541 0.07743 0.0
C1579 C 0.67623 0.04345 0.09966 0.0
C1580 C 0.69482 0.04541 0.11275 0.0
C1581 C 0.71658 0.05888 0.10385 0.0
C1582 C 0.62598 0.99776 0.13397 0.0
C1583 C 0.60977 0.00398 0.12982 0.0
C1584 C 0.64731 0.01014 0.1236 0.0
C1585 C 0.65304 0.02945 0.10948 0.0
C1586 C 0.63655 0.03553 0.10536 0.0
C1587 C 0.61501 0.0227 0.11516 0.0
H1588 H 0.90801 0.62587 0.05348 0.0
H1589 H 0.94497 0.67644 0.10831 0.0
H1590 H 0.92845 0.60666 0.06426 0.0
H1591 H 0.96489 0.65675 0.12018 0.0
H1592 H 0.00743 0.62315 0.12465 0.0
H1593 H 0.99124 0.64526 0.10971 0.0
H1594 H 0.92816 0.58433 0.09692 0.0
H1595 H 0.94462 0.5623 0.11 0.0
C1596 C 0.92056 0.63279 0.0679 0.0
C1597 C 0.92485 0.65243 0.08025 0.0
C1598 C 0.93218 0.62177 0.07422 0.0
C1599 C 0.94804 0.62989 0.09344 0.0
C1600 C 0.95293 0.65009 0.10517 0.0
C1601 C 0.94153 0.66136 0.09849 0.0
C1602 C 0.99022 0.6144 0.11829 0.0
C1603 C 0.97745 0.5908 0.11854 0.0
C1604 C 0.98084 0.62716 0.10999 0.0
C1605 C 0.95842 0.61662 0.10194 0.0
C1606 C 0.94564 0.59307 0.10245 0.0
C1607 C 0.95504 0.58036 0.11042 0.0
H1608 H 0.28283 0.32288 0.43764 0.0
H1609 H 0.29201 0.38601 0.46501 0.0
H1610 H 0.32261 0.34122 0.42749 0.0
H1611 H 0.33149 0.40426 0.45392 0.0
H1612 H 0.38772 0.42913 0.39321 0.0
H1613 H 0.34992 0.41105 0.41066 0.0
H1614 H 0.36271 0.3633 0.44826 0.0
H1615 H 0.40083 0.38171 0.43088 0.0
C1616 C 0.29321 0.34052 0.44183 0.0
C1617 C 0.28389 0.35293 0.45188 0.0
C1618 C 0.31606 0.35102 0.43598 0.0
C1619 C 0.33001 0.37415 0.43978 0.0
C1620 C 0.32099 0.38643 0.45054 0.0
C1621 C 0.29826 0.37593 0.45671 0.0
C1622 C 0.38248 0.41489 0.40536 0.0
C1623 C 0.39706 0.40675 0.4107 0.0
C1624 C 0.36096 0.40465 0.41545 0.0
C1625 C 0.35346 0.3858 0.43078 0.0
C1626 C 0.36813 0.37778 0.43643 0.0
C1627 C 0.38989 0.38835 0.42667 0.0
H1628 H 0.61644 0.90474 0.47456 0.0
H1629 H 0.67408 0.95044 0.43152 0.0
H1630 H 0.59806 0.92613 0.46454 0.0
H1631 H 0.65548 0.97166 0.42069 0.0
H1632 H 0.62021 0.01297 0.41851 0.0
H1633 H 0.64091 0.99543 0.43456 0.0
H1634 H 0.5811 0.93029 0.42825 0.0
H1635 H 0.56031 0.94776 0.41364 0.0
C1636 C 0.62513 0.91941 0.46292 0.0
C1637 C 0.64649 0.92582 0.45352 0.0
C1638 C 0.61463 0.93164 0.45712 0.0
C1639 C 0.62513 0.95037 0.44145 0.0
C1640 C 0.64698 0.95739 0.43293 0.0
C1641 C 0.65762 0.94526 0.43904 0.0
C1642 C 0.61143 0.99494 0.42092 0.0
C1643 C 0.58859 0.98179 0.4147 0.0
C1644 C 0.62335 0.98488 0.42987 0.0
C1645 C 0.61264 0.96147 0.43277 0.0
C1646 C 0.5898 0.9484 0.42666 0.0
C1647 C 0.57792 0.95842 0.41786 0.0
H1648 H 0.98638 0.60589 0.44658 0.0
H1649 H 0.03642 0.6168 0.39218 0.0
H1650 H 0.00456 0.64643 0.45374 0.0
H1651 H 0.05393 0.6572 0.39799 0.0
H1652 H 0.09793 0.72146 0.43869 0.0
H1653 H 0.0765 0.68233 0.42804 0.0
H1654 H 0.01483 0.68322 0.44009 0.0
H1655 H 0.03661 0.72251 0.45267 0.0
C1656 C 0.00101 0.6171 0.43581 0.0
C1657 C 0.01033 0.60842 0.41918 0.0
C1658 C 0.01137 0.64029 0.43976 0.0
C1659 C 0.03101 0.65516 0.42677 0.0
C1660 C 0.03931 0.64631 0.40894 0.0
C1661 C 0.02927 0.62321 0.40545 0.0
C1662 C 0.07983 0.71342 0.43941 0.0
C1663 C 0.06909 0.72525 0.44692 0.0
C1664 C 0.06743 0.6909 0.43279 0.0
C1665 C 0.04384 0.6795 0.43298 0.0
C1666 C 0.03298 0.69139 0.43994 0.0
C1667 C 0.04547 0.71401 0.44688 0.0
H1668 H 0.57681 0.62877 0.89575 0.0
H1669 H 0.62235 0.61245 0.93282 0.0
H1670 H 0.5988 0.66743 0.91005 0.0
H1671 H 0.64477 0.65131 0.94649 0.0
H1672 H 0.6573 0.71174 0.99454 0.0
H1673 H 0.63878 0.67441 0.97649 0.0
H1674 H 0.63537 0.7023 0.90641 0.0
H1675 H 0.65344 0.73981 0.9248 0.0
C1676 C 0.59161 0.63348 0.9068 0.0
C1677 C 0.59769 0.61747 0.91336 0.0
C1678 C 0.60436 0.6557 0.91475 0.0
C1679 C 0.62346 0.66239 0.92951 0.0
C1680 C 0.62999 0.64658 0.93537 0.0
C1681 C 0.61727 0.62437 0.92733 0.0
C1682 C 0.65249 0.70994 0.97533 0.0
C1683 C 0.65664 0.72872 0.96116 0.0
C1684 C 0.64215 0.68856 0.96488 0.0
C1685 C 0.63566 0.6854 0.94 0.0
C1686 C 0.64005 0.7042 0.92569 0.0
C1687 C 0.65053 0.72567 0.93615 0.0
H1688 H 0.28612 0.92233 0.99318 0.0
H1689 H 0.26989 0.94406 0.92564 0.0
H1690 H 0.32597 0.94488 0.98374 0.0
H1691 H 0.30993 0.96631 0.91564 0.0
H1692 H 0.38633 0.01368 0.9118 0.0
H1693 H 0.34739 0.99779 0.92572 0.0
H1694 H 0.34904 0.94005 0.95436 0.0
H1695 H 0.38775 0.95622 0.94152 0.0
C1696 C 0.29117 0.93204 0.97632 0.0
C1697 C 0.275 0.93121 0.95994 0.0
C1698 C 0.31396 0.94492 0.97086 0.0
C1699 C 0.32114 0.95705 0.94869 0.0
C1700 C 0.30499 0.95724 0.93292 0.0
C1701 C 0.28208 0.94448 0.93857 0.0
C1702 C 0.3784 0.99777 0.92141 0.0
C1703 C 0.39009 0.98615 0.92541 0.0
C1704 C 0.35606 0.98858 0.92917 0.0
C1705 C 0.3451 0.96768 0.94123 0.0
C1706 C 0.357 0.95634 0.9455 0.0
C1707 C 0.37917 0.96547 0.93778 0.0
H1708 H 0.04129 0.31849 0.95034 0.0
H1709 H 0.10203 0.38118 0.93541 0.0
H1710 H 0.019 0.33476 0.93591 0.0
H1711 H 0.07992 0.39773 0.92266 0.0
H1712 H 0.03783 0.41876 0.8818 0.0
H1713 H 0.05681 0.39772 0.89079 0.0
H1714 H 0.00822 0.36146 0.94804 0.0
H1715 H 0.98879 0.38206 0.93811 0.0
C1716 C 0.04993 0.33567 0.94394 0.0
C1717 C 0.07353 0.34849 0.94414 0.0
C1718 C 0.03712 0.3451 0.93594 0.0
C1719 C 0.04762 0.36756 0.92806 0.0
C1720 C 0.0712 0.38026 0.92816 0.0
C1721 C 0.08395 0.37083 0.93592 0.0
C1722 C 0.03117 0.40612 0.89612 0.0
C1723 C 0.01205 0.40213 0.90944 0.0
C1724 C 0.04205 0.39414 0.90139 0.0
C1725 C 0.0343 0.37815 0.92046 0.0
C1726 C 0.01456 0.3735 0.93311 0.0
C1727 C 0.00345 0.3853 0.92752 0.0
H1728 H 0.61441 0.5737 0.63813 0.0
H1729 H 0.60372 0.62467 0.60539 0.0
H1730 H 0.6526 0.59222 0.62194 0.0
H1731 H 0.64228 0.64351 0.58914 0.0
H1732 H 0.722 0.68141 0.60167 0.0
H1733 H 0.68181 0.66351 0.61023 0.0
H1734 H 0.67221 0.60128 0.58012 0.0
H1735 H 0.7121 0.61913 0.57096 0.0
C1736 C 0.62027 0.58883 0.62731 0.0
C1737 C 0.60626 0.59784 0.62303 0.0
C1738 C 0.64203 0.59934 0.61791 0.0
C1739 C 0.65034 0.61928 0.60429 0.0
C1740 C 0.63624 0.62818 0.59965 0.0
C1741 C 0.61423 0.61738 0.60875 0.0
C1742 C 0.7113 0.66406 0.5964 0.0
C1743 C 0.72042 0.65163 0.58602 0.0
C1744 C 0.68827 0.65383 0.60129 0.0
C1745 C 0.67401 0.63098 0.59602 0.0
C1746 C 0.68293 0.61884 0.58468 0.0
C1747 C 0.70583 0.62906 0.57962 0.0
H1748 H 0.38193 0.00915 0.6608 0.0
H1749 H 0.41875 0.01764 0.59346 0.0
H1750 H 0.36394 0.02834 0.64249 0.0
H1751 H 0.40099 0.03728 0.57509 0.0
H1752 H 0.34663 0.04879 0.54175 0.0
H1753 H 0.36532 0.03033 0.5602 0.0
H1754 H 0.37082 0.06433 0.62904 0.0
H1755 H 0.35167 0.08253 0.61051 0.0
C1756 C 0.38644 0.01542 0.64217 0.0
C1757 C 0.40186 0.01196 0.6286 0.0
C1758 C 0.37612 0.02647 0.63166 0.0
C1759 C 0.38104 0.03446 0.60734 0.0
C1760 C 0.39655 0.03107 0.59377 0.0
C1761 C 0.40677 0.01986 0.60426 0.0
C1762 C 0.35198 0.05246 0.56076 0.0
C1763 C 0.34775 0.06719 0.57466 0.0
C1764 C 0.36277 0.04191 0.57134 0.0
C1765 C 0.36971 0.0459 0.59608 0.0
C1766 C 0.36543 0.06062 0.61002 0.0
C1767 C 0.35448 0.07108 0.59945 0.0
H1768 H 0.97256 0.36511 0.65853 0.0
H1769 H 0.00644 0.39048 0.58925 0.0
H1770 H 0.95736 0.32668 0.64378 0.0
H1771 H 0.99024 0.35236 0.57358 0.0
H1772 H 0.97212 0.28202 0.55553 0.0
H1773 H 0.99035 0.31921 0.57417 0.0
H1774 H 0.9309 0.29974 0.61825 0.0
H1775 H 0.91365 0.26203 0.60062 0.0
C1776 C 0.97662 0.36232 0.64006 0.0
C1777 C 0.99071 0.38058 0.62503 0.0
C1778 C 0.96779 0.34035 0.63146 0.0
C1779 C 0.97242 0.33619 0.60736 0.0
C1780 C 0.98664 0.35467 0.59242 0.0
C1781 C 0.99589 0.37659 0.60128 0.0
C1782 C 0.96318 0.28582 0.56939 0.0
C1783 C 0.94155 0.26942 0.57667 0.0
C1784 C 0.97347 0.30716 0.57995 0.0
C1785 C 0.96208 0.31281 0.59757 0.0
C1786 C 0.94045 0.29608 0.60508 0.0
C1787 C 0.93042 0.27451 0.59493 0.0
H1788 H 0.96208 0.67268 0.82934 0.0
H1789 H 0.93348 0.67808 0.76071 0.0
H1790 H 0.99917 0.6903 0.81046 0.0
H1791 H 0.97063 0.69629 0.74186 0.0
H1792 H 0.03579 0.70779 0.70815 0.0
H1793 H 0.99897 0.6894 0.72749 0.0
H1794 H 0.02874 0.72479 0.79537 0.0
H1795 H 0.06575 0.7427 0.77598 0.0
C1796 C 0.96378 0.67787 0.81026 0.0
C1797 C 0.94485 0.67399 0.7965 0.0
C1798 C 0.98507 0.68805 0.79942 0.0
C1799 C 0.98802 0.6948 0.77459 0.0
C1800 C 0.96902 0.69096 0.76088 0.0
C1801 C 0.9477 0.68057 0.77167 0.0
C1802 C 0.03444 0.71171 0.72717 0.0
C1803 C 0.05365 0.72679 0.74052 0.0
C1804 C 0.01329 0.70121 0.73828 0.0
C1805 C 0.01073 0.70568 0.76299 0.0
C1806 C 0.03004 0.72067 0.77642 0.0
C1807 C 0.05127 0.731 0.76533 0.0
H1808 H 0.35244 0.28349 0.76179 0.0
H1809 H 0.29359 0.23687 0.8026 0.0
H1810 H 0.33146 0.30033 0.74393 0.0
H1811 H 0.27261 0.25342 0.78478 0.0
H1812 H 0.23645 0.27588 0.7327 0.0
H1813 H 0.25857 0.25836 0.74291 0.0
H1814 H 0.31426 0.32287 0.76352 0.0
H1815 H 0.29199 0.34049 0.75407 0.0
C1816 C 0.33492 0.27662 0.76653 0.0
C1817 C 0.32457 0.25896 0.78356 0.0
C1818 C 0.323 0.28632 0.75651 0.0
C1819 C 0.30044 0.27816 0.76301 0.0
C1820 C 0.28992 0.25992 0.77929 0.0
C1821 C 0.30191 0.25053 0.78959 0.0
C1822 C 0.25335 0.28641 0.73948 0.0
C1823 C 0.26221 0.30961 0.74293 0.0
C1824 C 0.26607 0.27634 0.74516 0.0
C1825 C 0.28805 0.28924 0.75411 0.0
C1826 C 0.2974 0.31256 0.75643 0.0
C1827 C 0.28459 0.32264 0.751 0.0
H1828 H 0.73831 0.04561 0.82927 0.0
H1829 H 0.7221 0.06276 0.75877 0.0
H1830 H 0.71581 0.00587 0.81927 0.0
H1831 H 0.69998 0.02288 0.74825 0.0
H1832 H 0.65111 0.94715 0.74295 0.0
H1833 H 0.66732 0.98615 0.7565 0.0
H1834 H 0.72138 0.98203 0.79198 0.0
H1835 H 0.70476 0.94318 0.77961 0.0
C1836 C 0.72986 0.04079 0.81162 0.0
C1837 C 0.73217 0.05717 0.79465 0.0
C1838 C 0.71701 0.01807 0.80584 0.0
C1839 C 0.70643 0.01119 0.78277 0.0
C1840 C 0.7078 0.02758 0.76623 0.0
C1841 C 0.7205 0.0504 0.77219 0.0
C1842 C 0.66626 0.95453 0.75396 0.0
C1843 C 0.6767 0.94206 0.76007 0.0
C1844 C 0.67566 0.97692 0.76151 0.0
C1845 C 0.69561 0.98721 0.7754 0.0
C1846 C 0.70581 0.97459 0.78167 0.0
C1847 C 0.69645 0.95233 0.77421 0.0
H1848 H 0.28986 0.05776 0.26417 0.0
H1849 H 0.34944 0.05586 0.28529 0.0
H1850 H 0.27283 0.01949 0.24957 0.0
H1851 H 0.33267 0.01753 0.26938 0.0
H1852 H 0.28052 0.94038 0.26842 0.0
H1853 H 0.30258 0.98002 0.27979 0.0
H1854 H 0.2752 0.99729 0.21733 0.0
H1855 H 0.25281 0.9577 0.20657 0.0
C1856 C 0.29939 0.04919 0.26566 0.0
C1857 C 0.32095 0.05984 0.27615 0.0
C1858 C 0.28973 0.0273 0.25689 0.0
C1859 C 0.30143 0.01546 0.25815 0.0
C1860 C 0.32317 0.02616 0.2683 0.0
C1861 C 0.33285 0.04817 0.27718 0.0
C1862 C 0.27957 0.95276 0.25697 0.0
C1863 C 0.26478 0.94605 0.23684 0.0
C1864 C 0.29221 0.97544 0.26341 0.0
C1865 C 0.2904 0.99179 0.24967 0.0
C1866 C 0.27655 0.98508 0.22868 0.0
C1867 C 0.26377 0.96245 0.22246 0.0
H1868 H 0.05031 0.29442 0.22768 0.0
H1869 H 0.06246 0.35511 0.26424 0.0
H1870 H 0.01282 0.27421 0.24581 0.0
H1871 H 0.02451 0.3349 0.28225 0.0
H1872 H 0.94349 0.29111 0.27229 0.0
H1873 H 0.98321 0.31442 0.26167 0.0
H1874 H 0.99633 0.26372 0.29052 0.0
H1875 H 0.95707 0.24079 0.30193 0.0
C1876 C 0.0449 0.30334 0.23973 0.0
C1877 C 0.05913 0.32623 0.24462 0.0
C1878 C 0.02356 0.29181 0.25017 0.0
C1879 C 0.01586 0.30304 0.2654 0.0
C1880 C 0.03012 0.32593 0.27052 0.0
C1881 C 0.05177 0.3374 0.26042 0.0
C1882 C 0.95488 0.28512 0.27688 0.0
C1883 C 0.94689 0.26381 0.28754 0.0
C1884 C 0.97761 0.29849 0.2708 0.0
C1885 C 0.99268 0.2907 0.27508 0.0
C1886 C 0.98495 0.26994 0.28674 0.0
C1887 C 0.96238 0.25674 0.29306 0.0
H1888 H 0.71159 0.65765 0.29174 0.0
H1889 H 0.77193 0.71807 0.26956 0.0
H1890 H 0.68905 0.67342 0.27664 0.0
H1891 H 0.74968 0.73424 0.25615 0.0
H1892 H 0.70593 0.75236 0.21376 0.0
H1893 H 0.72506 0.73189 0.22481 0.0
H1894 H 0.67949 0.70155 0.28612 0.0
H1895 H 0.65987 0.7215 0.2742 0.0
C1896 C 0.72009 0.67423 0.28365 0.0
C1897 C 0.74367 0.68652 0.28194 0.0
C1898 C 0.70715 0.68339 0.27525 0.0
C1899 C 0.7175 0.70508 0.26507 0.0
C1900 C 0.74104 0.71732 0.26342 0.0
C1901 C 0.75391 0.70813 0.27156 0.0
C1902 C 0.69997 0.74115 0.22946 0.0
C1903 C 0.68162 0.73861 0.24328 0.0
C1904 C 0.71095 0.72951 0.23591 0.0
C1905 C 0.70409 0.71535 0.25664 0.0
C1906 C 0.68514 0.71216 0.26993 0.0
C1907 C 0.67391 0.72359 0.26319 0.0
H1908 H 0.2814 0.16106 0.14788 0.0
H1909 H 0.34213 0.17994 0.10703 0.0
H1910 H 0.29856 0.15682 0.18503 0.0
H1911 H 0.35981 0.17644 0.14464 0.0
H1912 H 0.37624 0.14607 0.21044 0.0
H1913 H 0.3596 0.15044 0.17315 0.0
H1914 H 0.32569 0.17775 0.21566 0.0
H1915 H 0.34191 0.17252 0.25354 0.0
C1916 C 0.29849 0.16429 0.14685 0.0
C1917 C 0.31043 0.1708 0.1245 0.0
C1918 C 0.30843 0.1621 0.16829 0.0
C1919 C 0.33071 0.16657 0.16807 0.0
C1920 C 0.34254 0.17265 0.14552 0.0
C1921 C 0.33245 0.17463 0.12391 0.0
C1922 C 0.36528 0.15309 0.21198 0.0
C1923 C 0.36038 0.15891 0.23509 0.0
C1924 C 0.35584 0.15575 0.19041 0.0
C1925 C 0.34129 0.16449 0.19121 0.0
C1926 C 0.33657 0.17063 0.21433 0.0
C1927 C 0.34595 0.16779 0.23606 0.0
H1928 H 0.83485 0.16667 0.1097 0.0
H1929 H 0.80805 0.10518 0.15153 0.0
H1930 H 0.84168 0.18775 0.14816 0.0
H1931 H 0.81408 0.1259 0.1895 0.0
H1932 H 0.84696 0.17215 0.25584 0.0
H1933 H 0.84154 0.1511 0.2176 0.0
H1934 H 0.82207 0.1942 0.18024 0.0
H1935 H 0.8281 0.2154 0.21797 0.0
C1936 C 0.83037 0.15767 0.12703 0.0
C1937 C 0.82093 0.13427 0.12746 0.0
C1938 C 0.83414 0.16969 0.14911 0.0
C1939 C 0.82841 0.15854 0.17208 0.0
C1940 C 0.81908 0.13516 0.17235 0.0
C1941 C 0.81546 0.12323 0.15041 0.0
C1942 C 0.84128 0.1769 0.23949 0.0
C1943 C 0.838 0.19544 0.23993 0.0
C1944 C 0.8382 0.16489 0.21753 0.0
C1945 C 0.83159 0.17108 0.19562 0.0
C1946 C 0.82771 0.18925 0.19645 0.0
C1947 C 0.83095 0.20128 0.21823 0.0
H1948 H 0.77244 0.63083 0.2147 0.0
H1949 H 0.8335 0.6614 0.25767 0.0
H1950 H 0.79375 0.64827 0.1777 0.0
H1951 H 0.85517 0.67829 0.22017 0.0
H1952 H 0.88467 0.72445 0.15418 0.0
H1953 H 0.86282 0.70684 0.19103 0.0
H1954 H 0.81882 0.6477 0.14857 0.0
H1955 H 0.84034 0.66584 0.11141 0.0
C1956 C 0.79051 0.64108 0.21623 0.0
C1957 C 0.80128 0.64474 0.2392 0.0
C1958 C 0.80278 0.651 0.19487 0.0
C1959 C 0.82623 0.66472 0.1958 0.0
C1960 C 0.83709 0.66813 0.21877 0.0
C1961 C 0.82472 0.65833 0.24027 0.0
C1962 C 0.87019 0.70775 0.15267 0.0
C1963 C 0.86417 0.69653 0.12988 0.0
C1964 C 0.85779 0.69753 0.17389 0.0
C1965 C 0.83916 0.67571 0.17296 0.0
C1966 C 0.83291 0.66462 0.15 0.0
C1967 C 0.84521 0.67499 0.12866 0.0
H1968 H 0.15939 0.32062 0.41937 0.0
H1969 H 0.19904 0.30324 0.37235 0.0
H1970 H 0.14872 0.33469 0.38346 0.0
H1971 H 0.18922 0.31794 0.3369 0.0
H1972 H 0.1537 0.32943 0.27305 0.0
H1973 H 0.16045 0.31214 0.309 0.0
H1974 H 0.16371 0.3648 0.35534 0.0
H1975 H 0.15618 0.38136 0.31992 0.0
C1976 C 0.16593 0.31994 0.40144 0.0
C1977 C 0.18005 0.31081 0.39876 0.0
C1978 C 0.15991 0.32807 0.38082 0.0
C1979 C 0.16805 0.32744 0.35712 0.0
C1980 C 0.18219 0.31831 0.35463 0.0
C1981 C 0.18801 0.31004 0.37511 0.0
C1982 C 0.15576 0.33718 0.29096 0.0
C1983 C 0.15439 0.35675 0.29356 0.0
C1984 C 0.15973 0.32736 0.31159 0.0
C1985 C 0.16263 0.33704 0.33523 0.0
C1986 C 0.16114 0.35656 0.33766 0.0
C1987 C 0.15699 0.36619 0.31718 0.0
H1988 H 0.72044 0.88693 0.38176 0.0
H1989 H 0.66285 0.83916 0.42367 0.0
H1990 H 0.70426 0.865 0.34452 0.0
H1991 H 0.64623 0.81746 0.38619 0.0
H1992 H 0.63344 0.77192 0.32073 0.0
H1993 H 0.65032 0.79394 0.3574 0.0
H1994 H 0.67488 0.85488 0.31488 0.0
H1995 H 0.65837 0.83249 0.27753 0.0
C1996 C 0.70429 0.87168 0.38302 0.0
C1997 C 0.69296 0.86471 0.40571 0.0
C1998 C 0.69491 0.85922 0.36157 0.0
C1999 C 0.67385 0.83951 0.3622 0.0
C2000 C 0.66262 0.8324 0.38501 0.0
C2001 C 0.67212 0.84481 0.40654 0.0
C2002 C 0.6424 0.79003 0.31906 0.0
C2003 C 0.64447 0.80045 0.29613 0.0
C2004 C 0.65198 0.8027 0.34025 0.0
C2005 C 0.66382 0.82622 0.33928 0.0
C2006 C 0.66605 0.83676 0.3163 0.0
C2007 C 0.65652 0.82398 0.2949 0.0
H2008 H 0.15914 0.828 0.42159 0.0
H2009 H 0.10767 0.83147 0.37951 0.0
H2010 H 0.18117 0.83475 0.38387 0.0
H2011 H 0.12972 0.83875 0.34227 0.0
H2012 H 0.16407 0.82812 0.2754 0.0
H2013 H 0.14184 0.82102 0.31307 0.0
H2014 H 0.20253 0.86307 0.35417 0.0
H2015 H 0.2245 0.86957 0.31706 0.0
C2016 C 0.15268 0.83047 0.40439 0.0
C2017 C 0.13167 0.82913 0.40356 0.0
C2018 C 0.16527 0.83436 0.38275 0.0
C2019 C 0.15715 0.83715 0.3599 0.0
C2020 C 0.1363 0.8362 0.35932 0.0
C2021 C 0.12374 0.8322 0.38081 0.0
C2022 C 0.17255 0.83591 0.29248 0.0
C2023 C 0.19601 0.8493 0.29323 0.0
C2024 C 0.15987 0.83189 0.31409 0.0
C2025 C 0.17041 0.84133 0.33679 0.0
C2026 C 0.19384 0.85509 0.33725 0.0
C2027 C 0.20644 0.85896 0.31582 0.0
H2028 H 0.60577 0.83141 0.82376 0.0
H2029 H 0.66225 0.83974 0.78075 0.0
H2030 H 0.62185 0.82482 0.86051 0.0
H2031 H 0.67881 0.83381 0.81778 0.0
H2032 H 0.69308 0.80242 0.8833 0.0
H2033 H 0.67498 0.8065 0.84692 0.0
H2034 H 0.65155 0.84383 0.88952 0.0
H2035 H 0.66926 0.83905 0.92642 0.0
C2036 C 0.62166 0.83181 0.82215 0.0
C2037 C 0.63273 0.83607 0.7993 0.0
C2038 C 0.63099 0.82822 0.84332 0.0
C2039 C 0.65174 0.82894 0.84229 0.0
C2040 C 0.66265 0.83284 0.81929 0.0
C2041 C 0.6532 0.83626 0.79801 0.0
C2042 C 0.684 0.81146 0.885 0.0
C2043 C 0.68269 0.82051 0.90777 0.0
C2044 C 0.67373 0.81393 0.86401 0.0
C2045 C 0.66198 0.82571 0.86508 0.0
C2046 C 0.66028 0.83445 0.88801 0.0
C2047 C 0.67046 0.83179 0.90918 0.0
H2048 H 0.17333 0.8337 0.91858 0.0
H2049 H 0.16934 0.88412 0.8751 0.0
H2050 H 0.16516 0.81034 0.88171 0.0
H2051 H 0.16038 0.8607 0.83878 0.0
H2052 H 0.16787 0.82431 0.77239 0.0
H2053 H 0.17602 0.84753 0.8093 0.0
H2054 H 0.13693 0.78786 0.85309 0.0
H2055 H 0.12963 0.76486 0.81654 0.0
C2056 C 0.17047 0.83966 0.90125 0.0
C2057 C 0.17214 0.8608 0.89977 0.0
C2058 C 0.1657 0.82628 0.88008 0.0
C2059 C 0.16222 0.83365 0.85707 0.0
C2060 C 0.16346 0.85462 0.8559 0.0
C2061 C 0.16846 0.86802 0.87688 0.0
C2062 C 0.16092 0.81625 0.7899 0.0
C2063 C 0.14817 0.79279 0.79155 0.0
C2064 C 0.16553 0.82952 0.8111 0.0
C2065 C 0.15726 0.81961 0.83437 0.0
C2066 C 0.14406 0.79613 0.83573 0.0
C2067 C 0.13969 0.78292 0.81466 0.0
H2068 H 0.23256 0.37149 0.8224 0.0
H2069 H 0.17231 0.337 0.7784 0.0
H2070 H 0.21075 0.35566 0.85961 0.0
H2071 H 0.15019 0.32167 0.81595 0.0
H2072 H 0.12088 0.27793 0.8833 0.0
H2073 H 0.14365 0.29461 0.84685 0.0
H2074 H 0.18403 0.35631 0.88703 0.0
H2075 H 0.16142 0.33915 0.924 0.0
C2076 C 0.21457 0.36069 0.82066 0.0
C2077 C 0.20418 0.35542 0.79735 0.0
C2078 C 0.20202 0.35172 0.84211 0.0
C2079 C 0.17869 0.3373 0.8409 0.0
C2080 C 0.1682 0.3324 0.81759 0.0
C2081 C 0.18082 0.34129 0.79604 0.0
C2082 C 0.13475 0.29502 0.88445 0.0
C2083 C 0.13936 0.30726 0.90651 0.0
C2084 C 0.14767 0.30468 0.86342 0.0
C2085 C 0.16548 0.32696 0.86376 0.0
C2086 C 0.17052 0.33905 0.88609 0.0
C2087 C 0.15763 0.32925 0.90731 0.0
H2088 H 0.83588 0.66529 0.76199 0.0
H2089 H 0.87137 0.64102 0.71755 0.0
H2090 H 0.82922 0.68171 0.72522 0.0
H2091 H 0.86537 0.65786 0.68114 0.0
H2092 H 0.82712 0.66717 0.61696 0.0
H2093 H 0.83601 0.65237 0.65359 0.0
H2094 H 0.8468 0.71058 0.69507 0.0
H2095 H 0.83733 0.72488 0.65889 0.0
C2096 C 0.84257 0.66381 0.74447 0.0
C2097 C 0.85403 0.65179 0.74265 0.0
C2098 C 0.83881 0.67321 0.72337 0.0
C2099 C 0.84661 0.67095 0.70009 0.0
C2100 C 0.85868 0.65952 0.69857 0.0
C2101 C 0.86226 0.65001 0.71954 0.0
C2102 C 0.83162 0.67685 0.63386 0.0
C2103 C 0.83141 0.6971 0.63506 0.0
C2104 C 0.83675 0.66842 0.65488 0.0
C2105 C 0.84195 0.6802 0.67743 0.0
C2106 C 0.84239 0.7008 0.67826 0.0
C2107 C 0.83712 0.70908 0.6574 0.0
H2108 H 0.37409 0.23026 0.711 0.0
H2109 H 0.35248 0.17124 0.75599 0.0
H2110 H 0.35898 0.20697 0.6746 0.0
H2111 H 0.33799 0.1477 0.71919 0.0
H2112 H 0.29341 0.11118 0.6536 0.0
H2113 H 0.30919 0.13428 0.68985 0.0
H2114 H 0.36389 0.18413 0.64596 0.0
H2115 H 0.34734 0.16109 0.6091 0.0
C2116 C 0.3662 0.21223 0.7131 0.0
C2117 C 0.36445 0.2026 0.73646 0.0
C2118 C 0.35769 0.19884 0.69208 0.0
C2119 C 0.34734 0.17536 0.69369 0.0
C2120 C 0.34555 0.16569 0.71715 0.0
C2121 C 0.35389 0.17915 0.73831 0.0
C2122 C 0.30886 0.12706 0.65156 0.0
C2123 C 0.31911 0.13427 0.62833 0.0
C2124 C 0.31804 0.14029 0.67255 0.0
C2125 C 0.33795 0.16111 0.67111 0.0
C2126 C 0.34836 0.16833 0.64784 0.0
C2127 C 0.33898 0.1551 0.62666 0.0
H2128 H 0.90049 0.1952 0.65273 0.0
H2129 H 0.84145 0.15752 0.60775 0.0
H2130 H 0.87708 0.18945 0.68855 0.0
H2131 H 0.81777 0.15089 0.64397 0.0
H2132 H 0.78096 0.16019 0.70785 0.0
H2133 H 0.8048 0.16766 0.67215 0.0
H2134 H 0.85364 0.16244 0.71755 0.0
H2135 H 0.82989 0.15584 0.75376 0.0
C2136 C 0.88242 0.1856 0.65051 0.0
C2137 C 0.8728 0.17682 0.62737 0.0
C2138 C 0.86897 0.18211 0.67118 0.0
C2139 C 0.84545 0.16951 0.6694 0.0
C2140 C 0.8358 0.16094 0.64609 0.0
C2141 C 0.84933 0.16469 0.62527 0.0
C2142 C 0.79682 0.16068 0.7103 0.0
C2143 C 0.8035 0.15735 0.73369 0.0
C2144 C 0.81046 0.1648 0.68968 0.0
C2145 C 0.83114 0.16547 0.69171 0.0
C2146 C 0.83796 0.16234 0.71523 0.0
C2147 C 0.82435 0.15846 0.73603 0.0
H2148 H 0.00448 0.49653 0.59461 0.0
H2149 H 0.02124 0.45524 0.54955 0.0
H2150 H 0.98795 0.50418 0.55852 0.0
H2151 H 0.00441 0.46235 0.51397 0.0
H2152 H 0.99598 0.50022 0.44953 0.0
H2153 H 0.01161 0.49207 0.48592 0.0
H2154 H 0.95696 0.48705 0.53 0.0
H2155 H 0.94174 0.49568 0.49393 0.0
C2156 C 0.00438 0.48888 0.57712 0.0
C2157 C 0.01428 0.47542 0.57492 0.0
C2158 C 0.9949 0.49321 0.55644 0.0
C2159 C 0.99505 0.48405 0.53323 0.0
C2160 C 0.00444 0.47011 0.53134 0.0
C2161 C 0.01396 0.46591 0.55187 0.0
C2162 C 0.98726 0.49721 0.46696 0.0
C2163 C 0.96765 0.49861 0.46882 0.0
C2164 C 0.99616 0.4925 0.48784 0.0
C2165 C 0.98558 0.48898 0.51097 0.0
C2166 C 0.96578 0.49006 0.51264 0.0
C2167 C 0.95696 0.49484 0.49186 0.0
H2168 H 0.50786 0.55796 0.54561 0.0
H2169 H 0.51295 0.50827 0.58932 0.0
H2170 H 0.50087 0.53526 0.50906 0.0
H2171 H 0.50678 0.48566 0.55218 0.0
H2172 H 0.47255 0.4402 0.48634 0.0
H2173 H 0.47931 0.46282 0.52307 0.0
H2174 H 0.51748 0.52302 0.47979 0.0
H2175 H 0.50987 0.50014 0.44266 0.0
C2176 C 0.50771 0.54221 0.54741 0.0
C2177 C 0.51102 0.53495 0.57047 0.0
C2178 C 0.50385 0.52923 0.52627 0.0
C2179 C 0.50341 0.50863 0.52742 0.0
C2180 C 0.50672 0.5013 0.55055 0.0
C2181 C 0.51036 0.51427 0.57187 0.0
C2182 C 0.48232 0.4583 0.4846 0.0
C2183 C 0.49065 0.4684 0.46154 0.0
C2184 C 0.48639 0.47129 0.50579 0.0
C2185 C 0.49912 0.49482 0.50463 0.0
C2186 C 0.50734 0.50496 0.48145 0.0
C2187 C 0.50303 0.49189 0.46011 0.0
H2188 H 0.5004 0.994 0.44396 0.0
H2189 H 0.5503 0.04996 0.48617 0.0
H2190 H 0.47778 0.9787 0.48138 0.0
H2191 H 0.52768 0.03533 0.52302 0.0
H2192 H 0.49419 0.99188 0.59062 0.0
H2193 H 0.51629 0.00694 0.55295 0.0
H2194 H 0.45515 0.98332 0.51095 0.0
H2195 H 0.4333 0.96775 0.54823 0.0
C2196 C 0.50636 0.00318 0.4611 0.0
C2197 C 0.5272 0.0231 0.46205 0.0
C2198 C 0.49342 0.99447 0.48261 0.0
C2199 C 0.50095 0.00562 0.50549 0.0
C2200 C 0.52151 0.02589 0.50606 0.0
C2201 C 0.53444 0.03441 0.48476 0.0
C2202 C 0.48554 0.99005 0.57335 0.0
C2203 C 0.462 0.97858 0.5725 0.0
C2204 C 0.49818 0.99872 0.55168 0.0
C2205 C 0.48757 0.99633 0.52867 0.0
C2206 C 0.464 0.98514 0.52806 0.0
C2207 C 0.45144 0.97635 0.5496 0.0
H2208 H 0.54122 0.97568 0.04894 0.0
H2209 H 0.50078 0.99468 0.09232 0.0
H2210 H 0.53399 0.99132 1.01229 0.0
H2211 H 0.49295 0.00991 0.05531 0.0
H2212 H 0.49891 0.05254 0.98884 0.0
H2213 H 0.50861 0.03906 0.02545 0.0
H2214 H 0.50481 0.98383 0.98359 0.0
H2215 H 0.49562 0.99785 0.94646 0.0
C2216 C 0.53081 0.9833 0.05067 0.0
C2217 C 0.52156 0.98392 0.07359 0.0
C2218 C 0.52648 0.99209 0.02953 0.0
C2219 C 0.51264 0.00167 0.03061 0.0
C2220 C 0.50386 0.00286 0.05373 0.0
C2221 C 0.50834 0.99415 0.07501 0.0
C2222 C 0.5002 0.03753 0.98732 0.0
C2223 C 0.49642 0.02623 0.96465 0.0
C2224 C 0.50562 0.0297 1.00848 0.0
C2225 C 0.50734 0.01022 1.00771 0.0
C2226 C 0.50388 0.99904 0.9849 0.0
C2227 C 0.49855 0.00701 0.96358 0.0
H2228 H 0.99902 0.49099 0.94703 0.0
H2229 H 0.94626 0.43998 0.99176 0.0
H2230 H 0.01569 0.51387 0.98382 0.0
H2231 H 0.96226 0.46303 0.02823 0.0
H2232 H 0.00781 0.50014 0.09322 0.0
H2233 H 0.99256 0.4767 0.05642 0.0
H2234 H 0.01005 0.53589 1.013 0.0
H2235 H 0.02591 0.55908 0.04923 0.0
C2236 C 0.99085 0.48481 0.96466 0.0
C2237 C 0.97136 0.46372 0.96649 0.0
C2238 C 0.00034 0.49791 0.98578 0.0
C2239 C 0.99037 0.4903 1.00913 0.0
C2240 C 0.9707 0.46928 1.01075 0.0
C2241 C 0.9614 0.45613 0.98974 0.0
C2242 C 0.0084 0.50805 0.07577 0.0
C2243 C 0.01815 0.53144 0.07415 0.0
C2244 C 0.99958 0.49466 0.05467 0.0
C2245 C 0.00012 0.50439 0.03161 0.0
C2246 C 0.00975 0.52779 0.03021 0.0
C2247 C 0.01872 0.54111 0.05113 0.0
H2248 H 0.50124 0.50862 0.08945 0.0
H2249 H 0.44123 0.47244 0.04545 0.0
H2250 H 0.5241 0.51678 0.05212 0.0
H2251 H 0.46375 0.47979 1.0087 0.0
H2252 H 0.50877 0.51461 0.94288 0.0
H2253 H 0.48656 0.50788 0.98035 0.0
H2254 H 0.53601 0.50021 0.02171 0.0
H2255 H 0.55838 0.50767 0.9846 0.0
C2256 C 0.49296 0.50229 0.0719 0.0
C2257 C 0.46943 0.48999 0.07048 0.0
C2258 C 0.50601 0.50686 0.05047 0.0
C2259 C 0.49581 0.49906 0.02721 0.0
C2260 C 0.47228 0.48655 0.02604 0.0
C2261 C 0.45932 0.48218 0.04728 0.0
C2262 C 0.51476 0.51134 0.95996 0.0
C2263 C 0.53531 0.51166 0.96072 0.0
C2264 C 0.50205 0.50745 0.9815 0.0
C2265 C 0.50948 0.50355 1.00425 0.0
C2266 C 0.52991 0.50358 1.00478 0.0
C2267 C 0.54266 0.50766 0.98336 0.0
H2268 H 0.27576 0.10407 0.04619 0.0
H2269 H 0.20539 0.08418 0.0469 0.0
H2270 H 0.26601 0.06613 0.03439 0.0
H2271 H 0.19564 0.04607 0.03637 0.0
H2272 H 0.1881 0.98894 0.98751 0.0
H2273 H 0.19788 0.02631 1.00124 0.0
H2274 H 0.24865 0.02775 0.04933 0.0
H2275 H 0.2395 0.99052 0.03464 0.0
C2276 C 0.25822 0.09167 0.04386 0.0
C2277 C 0.24138 0.09733 0.04736 0.0
C2278 C 0.25261 0.0698 0.03744 0.0
C2279 C 0.23004 0.05305 0.0344 0.0
C2280 C 0.21321 0.05862 0.03825 0.0
C2281 C 0.21881 0.08048 0.04457 0.0
C2282 C 0.20148 0.99726 1.00089 0.0
C2283 C 0.21315 0.98681 1.00982 0.0
C2284 C 0.20689 0.0186 1.009 0.0
C2285 C 0.22403 0.03004 0.02642 0.0
C2286 C 0.23551 0.01948 0.03569 0.0
C2287 C 0.2301 0.99806 0.02751 0.0
H2288 H 0.91241 0.13761 0.07602 0.0
H2289 H 0.88628 0.15226 1.01069 0.0
H2290 H 0.95054 0.16586 0.06395 0.0
H2291 H 0.92436 0.18058 0.99868 0.0
H2292 H 0.01097 0.23684 0.04539 0.0
H2293 H 0.97313 0.2087 0.05834 0.0
H2294 H 0.95951 0.17975 0.98544 0.0
H2295 H 0.99738 0.20719 0.97264 0.0
C2296 C 0.91486 0.1468 0.05904 0.0
C2297 C 0.89643 0.14273 0.04423 0.0
C2298 C 0.93661 0.16309 0.05227 0.0
C2299 C 0.94035 0.17536 0.0304 0.0
C2300 C 0.92194 0.17124 1.01556 0.0
C2301 C 0.90017 0.15518 0.02249 0.0
C2302 C 1e-05 0.22433 0.03219 0.0
C2303 C 0.00722 0.22445 1.0079 0.0
C2304 C 0.97835 0.20828 0.03961 0.0
C2305 C 0.96341 0.19219 0.02282 0.0
C2306 C 0.97059 0.19221 0.99862 0.0
C2307 C 0.99228 0.20805 0.99129 0.0
H2308 H 0.77022 0.79014 0.05361 0.0
H2309 H 0.79684 0.80285 0.97948 0.0
H2310 H 0.79869 0.78068 0.06602 0.0
H2311 H 0.82461 0.79271 0.99177 0.0
H2312 H 0.84996 0.74516 1.01661 0.0
H2313 H 0.82237 0.75621 1.00576 0.0
H2314 H 0.84197 0.79966 0.0694 0.0
H2315 H 0.86957 0.78851 0.08029 0.0
C2316 C 0.7822 0.79111 0.04002 0.0
C2317 C 0.78103 0.79699 1.01546 0.0
C2318 C 0.79844 0.78563 0.04713 0.0
C2319 C 0.81365 0.78574 0.02976 0.0
C2320 C 0.81281 0.79209 1.00541 0.0
C2321 C 0.79681 0.7978 0.99838 0.0
C2322 C 0.84829 0.75698 0.02831 0.0
C2323 C 0.86192 0.76603 0.04923 0.0
C2324 C 0.83264 0.76342 0.02204 0.0
C2325 C 0.83011 0.77882 0.03674 0.0
C2326 C 0.84354 0.78768 0.05783 0.0
C2327 C 0.85943 0.78147 0.06392 0.0
H2328 H 0.98914 0.20629 0.48013 0.0
H2329 H 0.00657 0.19424 0.55282 0.0
H2330 H 0.02688 0.2171 0.46567 0.0
H2331 H 0.04427 0.20547 0.53846 0.0
H2332 H 0.11585 0.25436 0.51151 0.0
H2333 H 0.07737 0.24153 0.52461 0.0
H2334 H 0.05246 0.20103 0.45886 0.0
H2335 H 0.09107 0.21416 0.44557 0.0
C2336 C 0.00089 0.20569 0.49294 0.0
C2337 C 0.99486 0.19961 0.5177 0.0
C2338 C 0.02252 0.21193 0.48467 0.0
C2339 C 0.03857 0.21235 0.50101 0.0
C2340 C 0.03238 0.20573 0.52557 0.0
C2341 C 0.01077 0.19934 0.53378 0.0
C2342 C 0.10217 0.24283 0.49979 0.0
C2343 C 0.10648 0.23527 0.47752 0.0
C2344 C 0.08014 0.23532 0.50739 0.0
C2345 C 0.06192 0.22022 0.49278 0.0
C2346 C 0.06619 0.21275 0.47042 0.0
C2347 C 0.08826 0.2201 0.46294 0.0
H2348 H 0.76794 0.76082 0.49464 0.0
H2349 H 0.7945 0.79706 0.56277 0.0
H2350 H 0.76016 0.78999 0.48047 0.0
H2351 H 0.78626 0.82584 0.5489 0.0
H2352 H 0.78999 0.88441 0.50558 0.0
H2353 H 0.79919 0.85573 0.51743 0.0
H2354 H 0.73437 0.80411 0.4913 0.0
H2355 H 0.72544 0.83278 0.47888 0.0
C2356 C 0.77211 0.77501 0.50655 0.0
C2357 C 0.78169 0.77659 0.52986 0.0
C2358 C 0.76752 0.79161 0.49854 0.0
C2359 C 0.77261 0.81019 0.51359 0.0
C2360 C 0.78235 0.81183 0.5368 0.0
C2361 C 0.78681 0.7952 0.54486 0.0
C2362 C 0.77782 0.86696 0.50214 0.0
C2363 C 0.75695 0.86086 0.49142 0.0
C2364 C 0.783 0.85054 0.50912 0.0
C2365 C 0.76746 0.82767 0.50537 0.0
C2366 C 0.74675 0.82159 0.49427 0.0
C2367 C 0.74153 0.83801 0.48743 0.0
H2368 H 0.20108 0.00566 0.55095 0.0
H2369 H 0.23835 0.01306 0.48401 0.0
H2370 H 0.17266 0.96815 0.5381 0.0
H2371 H 0.20908 0.97583 0.47074 0.0
H2372 H 0.14452 0.89263 0.51824 0.0
H2373 H 0.1734 0.93065 0.53012 0.0
H2374 H 0.16535 0.95588 0.46035 0.0
H2375 H 0.13625 0.91786 0.44861 0.0
C2376 C 0.20335 0.99935 0.53355 0.0
C2377 C 0.22229 0.01245 0.5187 0.0
C2378 C 0.18694 0.97788 0.52617 0.0
C2379 C 0.18878 0.96912 0.50353 0.0
C2380 C 0.20726 0.9823 0.48825 0.0
C2381 C 0.22394 0.00368 0.49583 0.0
C2382 C 0.14899 0.90632 0.50547 0.0
C2383 C 0.13813 0.90238 0.48258 0.0
C2384 C 0.16538 0.92802 0.51229 0.0
C2385 C 0.17154 0.94613 0.49612 0.0
C2386 C 0.16094 0.94217 0.47308 0.0
C2387 C 0.14421 0.92051 0.46647 0.0
H2388 H 0.79742 0.00714 0.03935 0.0
H2389 H 0.76662 0.01829 0.97567 0.0
H2390 H 0.78931 0.97101 0.0227 0.0
H2391 H 0.75865 0.98192 0.95873 0.0
H2392 H 0.72505 0.90246 0.95813 0.0
H2393 H 0.734 0.94042 0.96977 0.0
H2394 H 0.80176 0.9569 0.98733 0.0
H2395 H 0.7928 0.91912 0.97638 0.0
C2396 C 0.78886 0.00181 0.02179 0.0
C2397 C 0.78251 0.01545 1.00888 0.0
C2398 C 0.78441 0.98122 1.01213 0.0
C2399 C 0.77343 0.97369 0.98936 0.0
C2400 C 0.76706 0.98729 0.97637 0.0
C2401 C 0.77174 0.0081 0.98596 0.0
C2402 C 0.74187 0.91424 0.96434 0.0
C2403 C 0.75814 0.90764 0.96646 0.0
C2404 C 0.74704 0.93602 0.97079 0.0
C2405 C 0.76851 0.95153 0.97967 0.0
C2406 C 0.78499 0.94521 0.98083 0.0
C2407 C 0.77989 0.92357 0.97427 0.0
H2408 H 0.97644 0.79417 0.99614 0.0
H2409 H 0.00055 0.74983 0.01855 0.0
H2410 H 0.01349 0.82065 0.97992 0.0
H2411 H 0.03741 0.77574 1.00142 0.0
H2412 H 0.10602 0.83939 0.99979 0.0
H2413 H 0.06838 0.81069 1.01152 0.0
H2414 H 0.04124 0.82901 0.94964 0.0
H2415 H 0.07915 0.85838 0.93851 0.0
C2416 C 0.9896 0.78991 0.99707 0.0
C2417 C 0.98576 0.77007 1.00869 0.0
C2418 C 0.01083 0.80502 0.98771 0.0
C2419 C 0.02858 0.80046 0.9895 0.0
C2420 C 0.02433 0.78009 1.00023 0.0
C2421 C 0.00321 0.76516 1.00991 0.0
C2422 C 0.09203 0.83706 0.98852 0.0
C2423 C 0.09548 0.85106 0.96822 0.0
C2424 C 0.0704 0.82054 0.99517 0.0
C2425 C 0.05166 0.8174 0.9815 0.0
C2426 C 0.0552 0.83116 0.96084 0.0
C2427 C 0.07689 0.84792 0.95438 0.0
H2428 H 0.20266 0.19871 0.05453 0.0
H2429 H 0.23841 0.22607 0.98636 0.0
H2430 H 0.17419 0.20794 0.04189 0.0
H2431 H 0.20973 0.23517 0.97357 0.0
H2432 H 0.16805 0.27155 0.97608 0.0
H2433 H 0.1965 0.26185 0.9876 0.0
H2434 H 0.14423 0.19575 1.00934 0.0
H2435 H 0.11582 0.20557 0.9981 0.0
C2436 C 0.20443 0.20676 0.03686 0.0
C2437 C 0.22279 0.2118 0.02147 0.0
C2438 C 0.18805 0.21185 0.02954 0.0
C2439 C 0.18977 0.22228 1.00677 0.0
C2440 C 0.20809 0.22729 0.99131 0.0
C2441 C 0.22438 0.22195 0.99853 0.0
C2442 C 0.16267 0.25502 0.98347 0.0
C2443 C 0.13973 0.23933 0.98628 0.0
C2444 C 0.17893 0.24939 0.98981 0.0
C2445 C 0.17255 0.22805 0.99934 0.0
C2446 C 0.14961 0.21238 1.00218 0.0
C2447 C 0.13337 0.21792 0.99559 0.0
H2448 H 0.88572 0.74123 0.51965 0.0
H2449 H 0.91419 0.78556 0.58202 0.0
H2450 H 0.92316 0.7501 0.50659 0.0
H2451 H 0.95168 0.79406 0.56947 0.0
H2452 H 0.01698 0.82153 0.52545 0.0
H2453 H 0.9798 0.81311 0.53909 0.0
H2454 H 0.95295 0.74383 0.51747 0.0
H2455 H 0.99005 0.75254 0.50317 0.0
C2456 C 0.90002 0.75274 0.53066 0.0
C2457 C 0.89707 0.76271 0.55182 0.0
C2458 C 0.92148 0.75777 0.52327 0.0
C2459 C 0.94049 0.77271 0.53705 0.0
C2460 C 0.93748 0.78275 0.5582 0.0
C2461 C 0.91601 0.77789 0.56543 0.0
C2462 C 0.00314 0.80447 0.52386 0.0
C2463 C 0.00635 0.78768 0.51324 0.0
C2464 C 0.98183 0.79961 0.53171 0.0
C2465 C 0.9633 0.7778 0.52931 0.0
C2466 C 0.9667 0.76092 0.51913 0.0
C2467 C 0.98796 0.76584 0.51106 0.0
H2468 H 0.27935 0.16438 0.53379 0.0
H2469 H 0.22771 0.14413 0.58916 0.0
H2470 H 0.271 0.19281 0.51898 0.0
H2471 H 0.21928 0.17275 0.57418 0.0
H2472 H 0.22773 0.24233 0.55087 0.0
H2473 H 0.23821 0.21639 0.56911 0.0
H2474 H 0.23571 0.18836 0.49727 0.0
H2475 H 0.22432 0.21338 0.4791 0.0
C2476 C 0.26653 0.16631 0.54315 0.0
C2477 C 0.25418 0.15202 0.56268 0.0
C2478 C 0.26161 0.18244 0.53449 0.0
C2479 C 0.24441 0.18484 0.54534 0.0
C2480 C 0.23268 0.17127 0.56556 0.0
C2481 C 0.23741 0.15486 0.57403 0.0
C2482 C 0.22915 0.23048 0.53896 0.0
C2483 C 0.22527 0.23012 0.51343 0.0
C2484 C 0.23525 0.21572 0.54944 0.0
C2485 C 0.23793 0.20054 0.53455 0.0
C2486 C 0.23413 0.20018 0.5091 0.0
C2487 C 0.22772 0.21466 0.49869 0.0
H2488 H 0.79018 0.99397 0.49239 0.0
H2489 H 0.74911 0.98469 0.55642 0.0
H2490 H 0.81983 0.02902 0.50944 0.0
H2491 H 0.77922 0.01994 0.57381 0.0
H2492 H 0.83051 0.0985 0.57664 0.0
H2493 H 0.79928 0.06193 0.56418 0.0
H2494 H 0.84632 0.04029 0.54473 0.0
H2495 H 0.87735 0.07671 0.55644 0.0
C2496 C 0.78742 0.99952 0.51006 0.0
C2497 C 0.76724 0.98667 0.52299 0.0
C2498 C 0.80453 0.01947 0.51997 0.0
C2499 C 0.8019 0.02713 0.54304 0.0
C2500 C 0.78165 0.01444 0.55595 0.0
C2501 C 0.76452 0.99426 0.54609 0.0
C2502 C 0.83415 0.08589 0.56983 0.0
C2503 C 0.85648 0.09067 0.56737 0.0
C2504 C 0.81627 0.0649 0.56291 0.0
C2505 C 0.8204 0.04838 0.55322 0.0
C2506 C 0.84264 0.05282 0.55181 0.0
C2507 C 0.86044 0.07367 0.55881 0.0
H2508 H 0.86748 0.32916 0.31398 0.0
H2509 H 0.89628 0.32126 0.38132 0.0
H2510 H 0.87528 0.36614 0.3275 0.0
H2511 H 0.90373 0.35825 0.39512 0.0
H2512 H 0.93696 0.43586 0.39544 0.0
H2513 H 0.92866 0.39834 0.38324 0.0
H2514 H 0.86259 0.38302 0.3594 0.0
H2515 H 0.87108 0.42072 0.3711 0.0
C2516 C 0.87554 0.33537 0.33166 0.0
C2517 C 0.88143 0.32238 0.34652 0.0
C2518 C 0.87979 0.35645 0.33951 0.0
C2519 C 0.89011 0.3651 0.36237 0.0
C2520 C 0.89592 0.35209 0.37731 0.0
C2521 C 0.89151 0.33088 0.36952 0.0
C2522 C 0.92073 0.42455 0.38744 0.0
C2523 C 0.90471 0.43131 0.38411 0.0
C2524 C 0.91589 0.40297 0.38072 0.0
C2525 C 0.89498 0.38774 0.37036 0.0
C2526 C 0.87892 0.39446 0.36715 0.0
C2527 C 0.88371 0.41597 0.37403 0.0
H2528 H 0.56426 0.50039 0.37108 0.0
H2529 H 0.59057 0.47552 0.42724 0.0
H2530 H 0.60187 0.53052 0.36185 0.0
H2531 H 0.62849 0.50639 0.41883 0.0
H2532 H 0.69365 0.54543 0.37334 0.0
H2533 H 0.6567 0.51795 0.38892 0.0
H2534 H 0.6328 0.56419 0.37406 0.0
H2535 H 0.6695 0.59104 0.35728 0.0
C2536 C 0.57811 0.50175 0.3819 0.0
C2537 C 0.57451 0.48565 0.39991 0.0
C2538 C 0.59975 0.51911 0.37669 0.0
C2539 C 0.61838 0.52105 0.3896 0.0
C2540 C 0.61465 0.50527 0.40819 0.0
C2541 C 0.59295 0.48764 0.41314 0.0
C2542 C 0.68051 0.54975 0.37378 0.0
C2543 C 0.68428 0.57022 0.36402 0.0
C2544 C 0.65934 0.53406 0.3828 0.0
C2545 C 0.64157 0.53867 0.38258 0.0
C2546 C 0.64583 0.55975 0.37396 0.0
C2547 C 0.66688 0.57524 0.36452 0.0
H2548 H 0.42791 0.10891 0.38347 0.0
H2549 H 0.46494 0.13024 0.31514 0.0
H2550 H 0.4561 0.10074 0.40033 0.0
H2551 H 0.49282 0.12184 0.33179 0.0
H2552 H 0.55035 0.12766 0.37779 0.0
H2553 H 0.52214 0.13705 0.36481 0.0
H2554 H 0.46973 0.07324 0.39216 0.0
H2555 H 0.49807 0.06399 0.40562 0.0
C2556 C 0.44207 0.11185 0.3721 0.0
C2557 C 0.44421 0.12011 0.34798 0.0
C2558 C 0.45808 0.10706 0.38167 0.0
C2559 C 0.47666 0.11075 0.36739 0.0
C2560 C 0.4788 0.11907 0.34331 0.0
C2561 C 0.46272 0.12364 0.33369 0.0
C2562 C 0.53286 0.1158 0.38146 0.0
C2563 C 0.52642 0.09505 0.39266 0.0
C2564 C 0.5167 0.12108 0.37379 0.0
C2565 C 0.49376 0.10579 0.37729 0.0
C2566 C 0.48731 0.08537 0.38931 0.0
C2567 C 0.5035 0.08001 0.39682 0.0
H2568 H 0.6461 0.52633 0.82477 0.0
H2569 H 0.67167 0.59445 0.84939 0.0
H2570 H 0.68319 0.53625 0.80923 0.0
H2571 H 0.70857 0.60483 0.83286 0.0
H2572 H 0.77636 0.60762 0.83231 0.0
H2573 H 0.73894 0.60019 0.84268 0.0
H2574 H 0.71196 0.5552 0.78034 0.0
H2575 H 0.74961 0.56214 0.77068 0.0
C2576 C 0.65959 0.54357 0.82631 0.0
C2577 C 0.65609 0.5596 0.83839 0.0
C2578 C 0.68088 0.54933 0.81732 0.0
C2579 C 0.69909 0.57136 0.8199 0.0
C2580 C 0.69519 0.58759 0.83104 0.0
C2581 C 0.67401 0.58172 0.84037 0.0
C2582 C 0.7625 0.59645 0.82057 0.0
C2583 C 0.76591 0.58548 0.80065 0.0
C2584 C 0.74095 0.59219 0.82647 0.0
C2585 C 0.72224 0.57703 0.81239 0.0
C2586 C 0.72583 0.56663 0.79192 0.0
C2587 C 0.7474 0.57068 0.78625 0.0
H2588 H 0.40503 0.16772 0.78887 0.0
H2589 H 0.46813 0.21713 0.82095 0.0
H2590 H 0.41169 0.13784 0.80303 0.0
H2591 H 0.47504 0.18744 0.83439 0.0
H2592 H 0.4642 0.12913 0.88376 0.0
H2593 H 0.45812 0.15823 0.86629 0.0
H2594 H 0.43658 0.12142 0.79783 0.0
H2595 H 0.44217 0.09188 0.81559 0.0
C2596 C 0.42042 0.17223 0.79867 0.0
C2597 C 0.43595 0.19484 0.8039 0.0
C2598 C 0.42431 0.15513 0.80662 0.0
C2599 C 0.44377 0.16029 0.82007 0.0
C2600 C 0.45971 0.18292 0.8244 0.0
C2601 C 0.45588 0.19998 0.81639 0.0
C2602 C 0.45791 0.12708 0.86508 0.0
C2603 C 0.45356 0.10814 0.8511 0.0
C2604 C 0.45472 0.14391 0.85496 0.0
C2605 C 0.44704 0.14221 0.83061 0.0
C2606 C 0.44244 0.12316 0.81667 0.0
C2607 C 0.44577 0.10634 0.82677 0.0
H2608 H 0.80442 0.25311 0.77055 0.0
H2609 H 0.82496 0.22518 0.82941 0.0
H2610 H 0.83346 0.2909 0.7827 0.0
H2611 H 0.85335 0.26259 0.84202 0.0
H2612 H 0.91369 0.33048 0.85019 0.0
H2613 H 0.88801 0.29418 0.83177 0.0
H2614 H 0.84166 0.31748 0.81476 0.0
H2615 H 0.86787 0.35404 0.83237 0.0
C2616 C 0.81517 0.2551 0.78605 0.0
C2617 C 0.81256 0.23624 0.7989 0.0
C2618 C 0.83174 0.2767 0.79309 0.0
C2619 C 0.84585 0.27986 0.81332 0.0
C2620 C 0.84323 0.26087 0.82599 0.0
C2621 C 0.82689 0.23936 0.81879 0.0
C2622 C 0.89807 0.32782 0.8423 0.0
C2623 C 0.89267 0.34496 0.84278 0.0
C2624 C 0.8833 0.30702 0.83185 0.0
C2625 C 0.8626 0.30275 0.822 0.0
C2626 C 0.85754 0.3202 0.82186 0.0
C2627 C 0.8725 0.34113 0.83203 0.0
H2628 H 0.41345 0.22639 0.34939 0.0
H2629 H 0.44953 0.25045 0.28095 0.0
H2630 H 0.42357 0.26458 0.36064 0.0
H2631 H 0.45896 0.28862 0.29149 0.0
H2632 H 0.49108 0.35721 0.32968 0.0
H2633 H 0.48115 0.31925 0.31717 0.0
H2634 H 0.4162 0.29345 0.35186 0.0
H2635 H 0.42676 0.33125 0.3653 0.0
C2636 C 0.42336 0.2399 0.33666 0.0
C2637 C 0.43075 0.23552 0.31436 0.0
C2638 C 0.42908 0.2618 0.34298 0.0
C2639 C 0.44201 0.27981 0.32693 0.0
C2640 C 0.44932 0.27532 0.30453 0.0
C2641 C 0.44389 0.25344 0.29842 0.0
C2642 C 0.47465 0.34335 0.3344 0.0
C2643 C 0.45972 0.34703 0.34853 0.0
C2644 C 0.46888 0.3216 0.32719 0.0
C2645 C 0.4479 0.30313 0.33366 0.0
C2646 C 0.43271 0.30709 0.34708 0.0
C2647 C 0.43865 0.32876 0.35462 0.0
H2648 H 0.75515 0.2112 0.32809 0.0
H2649 H 0.77493 0.16114 0.3189 0.0
H2650 H 0.71733 0.18197 0.33851 0.0
H2651 H 0.7372 0.1319 0.33042 0.0
H2652 H 0.66053 0.08344 0.32882 0.0
H2653 H 0.6982 0.11226 0.31593 0.0
H2654 H 0.69823 0.15683 0.37202 0.0
H2655 H 0.66054 0.12861 0.38412 0.0
C2656 C 0.75147 0.19397 0.32825 0.0
C2657 C 0.7682 0.18862 0.32264 0.0
C2658 C 0.72979 0.17719 0.33451 0.0
C2659 C 0.72422 0.15456 0.33542 0.0
C2660 C 0.74087 0.14913 0.32968 0.0
C2661 C 0.76261 0.16596 0.3234 0.0
C2662 C 0.66854 0.09948 0.3382 0.0
C2663 C 0.65754 0.10365 0.35758 0.0
C2664 C 0.6902 0.1159 0.33101 0.0
C2665 C 0.70126 0.13688 0.34293 0.0
C2666 C 0.69017 0.141 0.36222 0.0
C2667 C 0.66862 0.12466 0.36938 0.0
H2668 H 0.78376 0.541 0.33002 0.0
H2669 H 0.83679 0.60781 0.31169 0.0
H2670 H 0.81168 0.53043 0.34049 0.0
H2671 H 0.86472 0.59745 0.32293 0.0
H2672 H 0.90864 0.56464 0.32499 0.0
H2673 H 0.88016 0.57328 0.31021 0.0
H2674 H 0.83901 0.53966 0.37364 0.0
H2675 H 0.86704 0.53058 0.38796 0.0
C2676 C 0.80136 0.55339 0.32808 0.0
C2677 C 0.80802 0.57529 0.32017 0.0
C2678 C 0.81736 0.5474 0.33429 0.0
C2679 C 0.84041 0.56314 0.33265 0.0
C2680 C 0.8471 0.58489 0.32422 0.0
C2681 C 0.83108 0.59091 0.31809 0.0
C2682 C 0.8934 0.55894 0.33559 0.0
C2683 C 0.89015 0.54712 0.35773 0.0
C2684 C 0.87719 0.56402 0.32726 0.0
C2685 C 0.85736 0.55717 0.34079 0.0
C2686 C 0.85399 0.54499 0.36267 0.0
C2687 C 0.87018 0.54003 0.37103 0.0
H2688 H 0.58217 0.1059 0.9155 0.0
H2689 H 0.55526 0.07553 0.84488 0.0
H2690 H 0.61981 0.11473 0.90213 0.0
H2691 H 0.59299 0.08483 0.83127 0.0
H2692 H 0.66933 0.13724 0.81269 0.0
H2693 H 0.6316 0.12635 0.82654 0.0
H2694 H 0.63784 0.08846 0.88615 0.0
H2695 H 0.67517 0.09799 0.87153 0.0
C2696 C 0.5844 0.10125 0.89709 0.0
C2697 C 0.56595 0.09014 0.88113 0.0
C2698 C 0.6058 0.10613 0.88955 0.0
C2699 C 0.60915 0.10043 0.86572 0.0
C2700 C 0.59074 0.08939 0.84972 0.0
C2701 C 0.56925 0.08404 0.85748 0.0
C2702 C 0.66264 0.1262 0.82845 0.0
C2703 C 0.67543 0.11837 0.84078 0.0
C2704 C 0.64106 0.12013 0.83644 0.0
C2705 C 0.63192 0.10656 0.8573 0.0
C2706 C 0.64467 0.09905 0.87004 0.0
C2707 C 0.66612 0.10469 0.86173 0.0
H2708 H 0.88796 0.56667 0.88555 0.0
H2709 H 0.85387 0.52678 0.82134 0.0
H2710 H 0.8959 0.53752 0.89917 0.0
H2711 H 0.8629 0.49839 0.83448 0.0
H2712 H 0.91334 0.47288 0.85169 0.0
H2713 H 0.90216 0.50024 0.83988 0.0
H2714 H 0.87254 0.49393 0.91166 0.0
H2715 H 0.88349 0.46627 0.92333 0.0
C2716 C 0.88192 0.55166 0.87446 0.0
C2717 C 0.87041 0.54924 0.85219 0.0
C2718 C 0.88659 0.53505 0.88224 0.0
C2719 C 0.88015 0.51588 0.86773 0.0
C2720 C 0.86829 0.51319 0.8458 0.0
C2721 C 0.86328 0.52956 0.83824 0.0
C2722 C 0.90442 0.47735 0.86487 0.0
C2723 C 0.89922 0.46751 0.88836 0.0
C2724 C 0.89794 0.49285 0.85811 0.0
C2725 C 0.88651 0.4991 0.8749 0.0
C2726 C 0.8814 0.48938 0.89846 0.0
C2727 C 0.88749 0.47351 0.90505 0.0
H2728 H 0.47361 0.31906 0.86182 0.0
H2729 H 0.42723 0.3408 0.83988 0.0
H2730 H 0.50105 0.35745 0.87344 0.0
H2731 H 0.45423 0.37906 0.85227 0.0
H2732 H 0.51654 0.44851 0.84858 0.0
H2733 H 0.4884 0.40984 0.83907 0.0
H2734 H 0.51069 0.38707 0.90151 0.0
H2735 H 0.53925 0.42574 0.91039 0.0
C2736 C 0.46914 0.33201 0.85997 0.0
C2737 C 0.44835 0.32699 0.84986 0.0
C2738 C 0.48484 0.35404 0.86665 0.0
C2739 C 0.48 0.37151 0.86364 0.0
C2740 C 0.45882 0.36622 0.85432 0.0
C2741 C 0.44326 0.34426 0.84736 0.0
C2742 C 0.51531 0.43521 0.86029 0.0
C2743 C 0.53014 0.44014 0.88015 0.0
C2744 C 0.49911 0.41302 0.85495 0.0
C2745 C 0.49715 0.3952 0.86955 0.0
C2746 C 0.51191 0.40023 0.88958 0.0
C2747 C 0.52829 0.42242 0.89472 0.0
H2748 H 0.57429 0.67389 0.66336 0.0
H2749 H 0.51105 0.64598 0.70167 0.0
H2750 H 0.58372 0.71146 0.67655 0.0
H2751 H 0.51959 0.68362 0.71372 0.0
H2752 H 0.54879 0.75269 0.74849 0.0
H2753 H 0.54065 0.71485 0.73817 0.0
H2754 H 0.57546 0.73949 0.66876 0.0
H2755 H 0.58457 0.77739 0.68004 0.0
C2756 C 0.5624 0.67593 0.67459 0.0
C2757 C 0.542 0.6572 0.68157 0.0
C2758 C 0.56764 0.69746 0.68196 0.0
C2759 C 0.55233 0.70079 0.696 0.0
C2760 C 0.53199 0.68183 0.70325 0.0
C2761 C 0.52699 0.66024 0.6963 0.0
C2762 C 0.55456 0.74985 0.73102 0.0
C2763 C 0.56728 0.76785 0.71503 0.0
C2764 C 0.54986 0.72817 0.725 0.0
C2765 C 0.5574 0.72393 0.7026 0.0
C2766 C 0.56982 0.74204 0.68644 0.0
C2767 C 0.57491 0.76377 0.69274 0.0
H2768 H 0.35151 0.8644 0.70075 0.0
H2769 H 0.33085 0.91346 0.68933 0.0
H2770 H 0.31403 0.83764 0.71574 0.0
H2771 H 0.29357 0.88708 0.70505 0.0
H2772 H 0.22315 0.82508 0.70119 0.0
H2773 H 0.2613 0.85416 0.69172 0.0
H2774 H 0.28656 0.82726 0.74707 0.0
H2775 H 0.24818 0.79772 0.756 0.0
C2776 C 0.33905 0.8696 0.70196 0.0
C2777 C 0.34403 0.89093 0.6937 0.0
C2778 C 0.31755 0.85429 0.71062 0.0
C2779 C 0.3006 0.86007 0.71146 0.0
C2780 C 0.30597 0.88182 0.70415 0.0
C2781 C 0.32737 0.89699 0.69525 0.0
C2782 C 0.23681 0.82561 0.71164 0.0
C2783 C 0.23265 0.80908 0.72934 0.0
C2784 C 0.25876 0.84234 0.70624 0.0
C2785 C 0.27715 0.84312 0.71857 0.0
C2786 C 0.2729 0.82697 0.73686 0.0
C2787 C 0.25091 0.81009 0.74208 0.0
H2788 H 0.09755 0.41657 0.66638 0.0
H2789 H 0.13806 0.48407 0.69424 0.0
H2790 H 0.12581 0.40756 0.67984 0.0
H2791 H 0.16596 0.47471 0.70879 0.0
H2792 H 0.2222 0.45669 0.70332 0.0
H2793 H 0.19394 0.46669 0.69226 0.0
H2794 H 0.14163 0.40141 0.7164 0.0
H2795 H 0.16986 0.39142 0.72716 0.0
C2796 C 0.11247 0.42948 0.67545 0.0
C2797 C 0.11558 0.45108 0.6791 0.0
C2798 C 0.12857 0.42422 0.68347 0.0
C2799 C 0.14816 0.44039 0.69545 0.0
C2800 C 0.15116 0.46193 0.6994 0.0
C2801 C 0.13504 0.46721 0.69132 0.0
C2802 C 0.20468 0.44459 0.70648 0.0
C2803 C 0.19827 0.4232 0.71591 0.0
C2804 C 0.18847 0.45032 0.70019 0.0
C2805 C 0.16549 0.43481 0.70331 0.0
C2806 C 0.15915 0.4136 0.71328 0.0
C2807 C 0.17533 0.40786 0.71945 0.0
H2808 H 0.33464 0.87764 0.22378 0.0
H2809 H 0.31109 0.87309 0.1489 0.0
H2810 H 0.37184 0.8894 0.20869 0.0
H2811 H 0.3477 0.88204 0.1337 0.0
H2812 H 0.42099 0.92236 0.11257 0.0
H2813 H 0.38336 0.91068 0.1277 0.0
H2814 H 0.39559 0.87975 0.19086 0.0
H2815 H 0.43386 0.89339 0.17635 0.0
C2816 C 0.33726 0.87903 0.20406 0.0
C2817 C 0.31969 0.87474 0.18766 0.0
C2818 C 0.35868 0.88532 0.19531 0.0
C2819 C 0.36307 0.8868 0.16986 0.0
C2820 C 0.34528 0.88167 0.15343 0.0
C2821 C 0.32401 0.87603 0.1622 0.0
C2822 C 0.41543 0.91312 0.12972 0.0
C2823 C 0.43005 0.90877 0.14346 0.0
C2824 C 0.39382 0.90618 0.13834 0.0
C2825 C 0.38614 0.89409 0.16057 0.0
C2826 C 0.40089 0.88944 0.17401 0.0
C2827 C 0.42275 0.89704 0.16571 0.0
H2828 H 0.1087 0.53319 0.11625 0.0
H2829 H 0.07922 0.52485 0.18841 0.0
H2830 H 0.12077 0.5062 0.12685 0.0
H2831 H 0.09154 0.49812 0.19915 0.0
H2832 H 0.14291 0.47475 0.21566 0.0
H2833 H 0.13181 0.50185 0.20352 0.0
H2834 H 0.09905 0.46241 0.13893 0.0
H2835 H 0.10911 0.43448 0.15158 0.0
C2836 C 0.10499 0.5257 0.13442 0.0
C2837 C 0.09312 0.53109 0.15158 0.0
C2838 C 0.11172 0.51019 0.14039 0.0
C2839 C 0.10709 0.50019 0.1638 0.0
C2840 C 0.0954 0.50573 0.18102 0.0
C2841 C 0.08828 0.52087 0.17488 0.0
C2842 C 0.13311 0.47161 0.19901 0.0
C2843 C 0.12666 0.45218 0.18481 0.0
C2844 C 0.12689 0.48723 0.19203 0.0
C2845 C 0.11449 0.48408 0.17042 0.0
C2846 C 0.10873 0.46521 0.15564 0.0
C2847 C 0.11461 0.44931 0.16285 0.0
H2848 H 0.57062 0.67864 0.15312 0.0
H2849 H 0.53512 0.66672 0.22209 0.0
H2850 H 0.54235 0.64118 0.13881 0.0
H2851 H 0.50696 0.62938 0.20786 0.0
H2852 H 0.44902 0.57464 0.16216 0.0
H2853 H 0.47693 0.61284 0.17438 0.0
H2854 H 0.53007 0.60072 0.15161 0.0
H2855 H 0.50214 0.56257 0.13927 0.0
C2856 C 0.55673 0.66803 0.16513 0.0
C2857 C 0.55507 0.67545 0.18872 0.0
C2858 C 0.54067 0.64662 0.15703 0.0
C2859 C 0.52251 0.63245 0.17225 0.0
C2860 C 0.52071 0.64004 0.1957 0.0
C2861 C 0.5369 0.66129 0.20391 0.0
C2862 C 0.46665 0.58024 0.15959 0.0
C2863 C 0.47345 0.56567 0.14986 0.0
C2864 C 0.48259 0.60199 0.16673 0.0
C2865 C 0.50562 0.60967 0.16395 0.0
C2866 C 0.51242 0.59525 0.1538 0.0
C2867 C 0.49647 0.57339 0.14697 0.0
H2868 H 0.08636 0.65453 0.69821 0.0
H2869 H 0.14738 0.6825 0.6555 0.0
H2870 H 0.07642 0.61698 0.68451 0.0
H2871 H 0.13795 0.64482 0.64237 0.0
H2872 H 0.10486 0.57508 0.60722 0.0
H2873 H 0.11371 0.61304 0.61819 0.0
H2874 H 0.08725 0.58994 0.69133 0.0
H2875 H 0.07787 0.55201 0.67997 0.0
C2876 C 0.09768 0.65257 0.68592 0.0
C2877 C 0.11769 0.67137 0.67801 0.0
C2878 C 0.09208 0.63105 0.67818 0.0
C2879 C 0.1065 0.62775 0.66256 0.0
C2880 C 0.1263 0.64668 0.65417 0.0
C2881 C 0.13176 0.66828 0.66171 0.0
C2882 C 0.10106 0.57821 0.62565 0.0
C2883 C 0.0906 0.56059 0.64272 0.0
C2884 C 0.10616 0.59997 0.63198 0.0
C2885 C 0.10111 0.60462 0.65563 0.0
C2886 C 0.09091 0.58695 0.67276 0.0
C2887 C 0.0856 0.5652 0.66632 0.0
H2888 H 0.33504 0.45121 0.71101 0.0
H2889 H 0.31514 0.41952 0.63944 0.0
H2890 H 0.3711 0.47895 0.69422 0.0
H2891 H 0.35122 0.44831 0.62244 0.0
H2892 H 0.41103 0.52476 0.60579 0.0
H2893 H 0.3737 0.49431 0.61822 0.0
H2894 H 0.40432 0.47476 0.67511 0.0
H2895 H 0.44127 0.50483 0.66281 0.0
C2896 C 0.33836 0.44996 0.69175 0.0
C2897 C 0.32225 0.43274 0.67673 0.0
C2898 C 0.35898 0.46602 0.68212 0.0
C2899 C 0.36392 0.46559 0.65714 0.0
C2900 C 0.34771 0.44895 0.64178 0.0
C2901 C 0.32708 0.43256 0.65153 0.0
C2902 C 0.40969 0.51374 0.62074 0.0
C2903 C 0.42902 0.5171 0.63327 0.0
C2904 C 0.38845 0.49632 0.62772 0.0
C2905 C 0.38626 0.48234 0.64764 0.0
C2906 C 0.40561 0.48539 0.65974 0.0
C2907 C 0.42676 0.50248 0.65255 0.0
H2908 H 0.53494 0.87036 0.71157 0.0
H2909 H 0.57698 0.89945 0.64754 0.0
H2910 H 0.50674 0.87755 0.69372 0.0
H2911 H 0.5483 0.90625 0.62929 0.0
H2912 H 0.5013 0.93797 0.62352 0.0
H2913 H 0.53068 0.93015 0.63675 0.0
H2914 H 0.48 0.86363 0.65925 0.0
H2915 H 0.45081 0.87156 0.6469 0.0
C2916 C 0.53822 0.87842 0.69371 0.0
C2917 C 0.55829 0.88449 0.68106 0.0
C2918 C 0.52191 0.88227 0.68332 0.0
C2919 C 0.52521 0.89232 0.66 0.0
C2920 C 0.54533 0.89855 0.64733 0.0
C2921 C 0.56165 0.89453 0.65769 0.0
C2922 C 0.49644 0.92164 0.63116 0.0
C2923 C 0.47361 0.90552 0.63434 0.0
C2924 C 0.51328 0.9171 0.63855 0.0
C2925 C 0.50764 0.89638 0.64935 0.0
C2926 C 0.48488 0.8799 0.65137 0.0
C2927 C 0.4681 0.88439 0.64396 0.0
H2928 H 0.25475 0.44751 0.25576 0.0
H2929 H 0.22439 0.39696 0.1991 0.0
H2930 H 0.29208 0.45534 0.2424 0.0
H2931 H 0.26146 0.40472 0.18587 0.0
H2932 H 0.33035 0.45089 0.14892 0.0
H2933 H 0.2936 0.44027 0.16562 0.0
H2934 H 0.3161 0.43536 0.23835 0.0
H2935 H 0.35288 0.44507 0.22155 0.0
C2936 C 0.25607 0.43794 0.24067 0.0
C2937 C 0.23669 0.42164 0.22849 0.0
C2938 C 0.27735 0.44231 0.23314 0.0
C2939 C 0.27958 0.43071 0.21303 0.0
C2940 C 0.26018 0.414 0.20132 0.0
C2941 C 0.23896 0.40942 0.20906 0.0
C2942 C 0.32747 0.44711 0.16839 0.0
C2943 C 0.34462 0.44859 0.18379 0.0
C2944 C 0.3064 0.44115 0.17796 0.0
C2945 C 0.30201 0.43686 0.20322 0.0
C2946 C 0.31913 0.43868 0.2188 0.0
C2947 C 0.34019 0.44433 0.20916 0.0
H2948 H 0.53186 0.77562 0.21693 0.0
H2949 H 0.59891 0.832 0.22558 0.0
H2950 H 0.51811 0.80121 0.20699 0.0
H2951 H 0.58521 0.85762 0.21524 0.0
H2952 H 0.54844 0.89769 0.21817 0.0
H2953 H 0.55967 0.87093 0.23236 0.0
H2954 H 0.52316 0.8268 0.17189 0.0
H2955 H 0.51189 0.85342 0.15789 0.0
C2956 C 0.54363 0.79349 0.21684 0.0
C2957 C 0.56648 0.8018 0.222 0.0
C2958 C 0.53578 0.80812 0.21099 0.0
C2959 C 0.55057 0.8314 0.21039 0.0
C2960 C 0.57338 0.83976 0.21581 0.0
C2961 C 0.58128 0.82509 0.22143 0.0
C2962 C 0.5425 0.88206 0.20825 0.0
C2963 C 0.52934 0.8776 0.18694 0.0
C2964 C 0.5491 0.86689 0.21619 0.0
C2965 C 0.54241 0.84686 0.20313 0.0
C2966 C 0.52848 0.84203 0.18241 0.0
C2967 C 0.5221 0.85728 0.17434 0.0
H2968 H 0.12087 0.64458 0.20447 0.0
H2969 H 0.08112 0.67161 0.17474 0.0
H2970 H 0.14935 0.68205 0.2177 0.0
H2971 H 0.10931 0.70904 0.18841 0.0
H2972 H 0.17608 0.77491 0.18773 0.0
H2973 H 0.1465 0.73718 0.17717 0.0
H2974 H 0.15791 0.71233 0.24561 0.0
H2975 H 0.18781 0.75013 0.2559 0.0
C2976 C 0.11803 0.65849 0.20122 0.0
C2977 C 0.09882 0.6552 0.18851 0.0
C2978 C 0.13434 0.67998 0.2088 0.0
C2979 C 0.13173 0.69863 0.20395 0.0
C2980 C 0.11211 0.69515 0.19196 0.0
C2981 C 0.0959 0.67371 0.18424 0.0
C2982 C 0.17215 0.76142 0.20059 0.0
C2983 C 0.18427 0.7655 0.22264 0.0
C2984 C 0.15514 0.73978 0.19459 0.0
C2985 C 0.14971 0.72169 0.2106 0.0
C2986 C 0.16184 0.7258 0.2327 0.0
C2987 C 0.17898 0.74745 0.23861 0.0
loop_
_geom_bond_atom_site_label_1
_geom_bond_atom_site_label_2
_geom_bond_distance
_geom_bond_site_symmetry_2
_ccdc_geom_bond_type
C0 C1 1.351 . S
C0 N3 1.368 . S
C0 H5 0.931 . S
C1 C0 1.351 . S
C1 N2 1.373 . S
C1 H29 0.930 . S
N2 C1 1.373 . S
N2 C4 1.340 . S
N3 C0 1.368 . S
N3 C4 1.321 . S
N3 Co6 2.135 . S
C4 N2 1.340 . S
C4 N3 1.321 . S
C4 H28 0.930 . S
H5 C0 0.931 . S
Co6 N3 2.135 . S
Co6 N9 2.121 . S
Co6 O14 2.055 . S
Co6 O17 2.039 . S
Co6 N20 2.140 . S
C7 O8 1.227 . S
C7 O17 1.265 1_556 S
O8 C7 1.227 . S
N9 Co6 2.121 . S
N9 C11 1.375 . S
N9 C12 1.313 . S
C10 C11 1.338 . S
C10 N13 1.377 . S
C10 H30 0.930 . S
C11 N9 1.375 . S
C11 C10 1.338 . S
C11 H15 0.931 . S
C12 N9 1.313 . S
C12 N13 1.344 . S
C12 H16 0.930 . S
N13 C10 1.377 . S
N13 C12 1.344 . S
O14 Co6 2.055 . S
O14 C18 1.253 . S
H15 C11 0.931 . S
H16 C12 0.930 . S
O17 Co6 2.039 . S
O17 C7 1.265 1_554 S
C18 O14 1.253 . S
C18 O19 1.227 . S
O19 C18 1.227 . S
N20 Co6 2.140 . S
N20 C23 1.346 . S
N20 C24 1.345 . S
C21 C22 1.387 . S
C21 C25 1.391 . S
C22 C21 1.387 . S
C22 C23 1.369 . S
C22 H31 0.929 . S
C23 N20 1.346 . S
C23 C22 1.369 . S
C23 H26 0.928 . S
C24 N20 1.345 . S
C24 C25 1.371 . S
C24 H27 0.931 . S
C25 C21 1.391 . S
C25 C24 1.371 . S
C25 H32 0.930 . S
H26 C23 0.928 . S
H27 C24 0.931 . S
H28 C4 0.930 . S
H29 C1 0.930 . S
H30 C10 0.930 . S
H31 C22 0.929 . S
H32 C25 0.930 . S
C33 C34 1.351 . S
C33 N36 1.368 . S
C33 H38 0.931 . S
C34 C33 1.351 . S
C34 N35 1.373 . S
C34 H62 0.930 . S
N35 C34 1.373 . S
N35 C37 1.340 . S
N36 C33 1.368 . S
N36 C37 1.321 . S
N36 Co39 2.135 . S
C37 N35 1.340 . S
C37 N36 1.321 . S
C37 H61 0.930 . S
H38 C33 0.931 . S
Co39 N36 2.135 . S
Co39 N42 2.121 . S
Co39 O47 2.055 . S
Co39 O50 2.039 . S
Co39 N53 2.140 . S
C40 O41 1.227 . S
C40 O50 1.265 1_556 S
O41 C40 1.227 . S
N42 Co39 2.121 . S
N42 C44 1.375 . S
N42 C45 1.313 . S
C43 C44 1.338 . S
C43 N46 1.377 . S
C43 H63 0.930 . S
C44 N42 1.375 . S
C44 C43 1.338 . S
C44 H48 0.931 . S
C45 N42 1.313 . S
C45 N46 1.344 . S
C45 H49 0.930 . S
N46 C43 1.377 . S
N46 C45 1.344 . S
O47 Co39 2.055 . S
O47 C51 1.253 . S
H48 C44 0.931 . S
H49 C45 0.930 . S
O50 Co39 2.039 . S
O50 C40 1.265 1_554 S
C51 O47 1.253 . S
C51 O52 1.227 . S
O52 C51 1.227 . S
N53 Co39 2.140 . S
N53 C56 1.346 . S
N53 C57 1.345 . S
C54 C55 1.387 . S
C54 C58 1.391 . S
C55 C54 1.387 . S
C55 C56 1.369 . S
C55 H64 0.929 . S
C56 N53 1.346 . S
C56 C55 1.369 . S
C56 H59 0.928 . S
C57 N53 1.345 . S
C57 C58 1.371 . S
C57 H60 0.931 . S
C58 C54 1.391 . S
C58 C57 1.371 . S
C58 H65 0.930 . S
H59 C56 0.928 . S
H60 C57 0.931 . S
H61 C37 0.930 . S
H62 C34 0.930 . S
H63 C43 0.930 . S
H64 C55 0.929 . S
H65 C58 0.930 . S
C66 C67 1.351 . S
C66 N69 1.368 . S
C66 H71 0.931 . S
C67 C66 1.351 . S
C67 N68 1.373 . S
C67 H95 0.930 . S
N68 C67 1.373 . S
N68 C70 1.340 . S
N69 C66 1.368 . S
N69 C70 1.321 . S
N69 Co72 2.135 . S
C70 N68 1.340 . S
C70 N69 1.321 . S
C70 H94 0.930 . S
H71 C66 0.931 . S
Co72 N69 2.135 . S
Co72 N75 2.121 . S
Co72 O80 2.055 . S
Co72 O83 2.039 . S
Co72 N86 2.140 . S
C73 O74 1.227 . S
C73 O83 1.265 1_556 S
O74 C73 1.227 . S
N75 Co72 2.121 . S
N75 C77 1.375 . S
N75 C78 1.313 . S
C76 C77 1.338 . S
C76 N79 1.377 . S
C76 H96 0.930 . S
C77 N75 1.375 . S
C77 C76 1.338 . S
C77 H81 0.931 . S
C78 N75 1.313 . S
C78 N79 1.344 . S
C78 H82 0.930 . S
N79 C76 1.377 . S
N79 C78 1.344 . S
O80 Co72 2.055 . S
O80 C84 1.253 . S
H81 C77 0.931 . S
H82 C78 0.930 . S
O83 Co72 2.039 . S
O83 C73 1.265 1_554 S
C84 O80 1.253 . S
C84 O85 1.227 . S
O85 C84 1.227 . S
N86 Co72 2.140 . S
N86 C89 1.346 . S
N86 C90 1.345 . S
C87 C88 1.387 . S
C87 C91 1.391 . S
C88 C87 1.387 . S
C88 C89 1.369 . S
C88 H97 0.929 . S
C89 N86 1.346 . S
C89 C88 1.369 . S
C89 H92 0.928 . S
C90 N86 1.345 . S
C90 C91 1.371 . S
C90 H93 0.931 . S
C91 C87 1.391 . S
C91 C90 1.371 . S
C91 H98 0.930 . S
H92 C89 0.928 . S
H93 C90 0.931 . S
H94 C70 0.930 . S
H95 C67 0.930 . S
H96 C76 0.930 . S
H97 C88 0.929 . S
H98 C91 0.930 . S
C99 C100 1.351 . S
C99 N102 1.368 . S
C99 H104 0.931 . S
C100 C99 1.351 . S
C100 N101 1.373 . S
C100 H128 0.930 . S
N101 C100 1.373 . S
N101 C103 1.340 . S
N102 C99 1.368 . S
N102 C103 1.321 . S
N102 Co105 2.135 . S
C103 N101 1.340 . S
C103 N102 1.321 . S
C103 H127 0.930 . S
H104 C99 0.931 . S
Co105 N102 2.135 . S
Co105 N108 2.121 . S
Co105 O113 2.055 . S
Co105 O116 2.039 . S
Co105 N119 2.140 . S
C106 O107 1.227 . S
C106 O116 1.265 . S
O107 C106 1.227 . S
N108 Co105 2.121 . S
N108 C110 1.375 . S
N108 C111 1.313 . S
C109 C110 1.338 . S
C109 N112 1.377 . S
C109 H129 0.930 . S
C110 N108 1.375 . S
C110 C109 1.338 . S
C110 H114 0.931 . S
C111 N108 1.313 . S
C111 N112 1.344 . S
C111 H115 0.930 . S
N112 C109 1.377 . S
N112 C111 1.344 . S
O113 Co105 2.055 . S
O113 C117 1.253 . S
H114 C110 0.931 . S
H115 C111 0.930 . S
O116 Co105 2.039 . S
O116 C106 1.265 . S
C117 O113 1.253 . S
C117 O118 1.227 . S
O118 C117 1.227 . S
N119 Co105 2.140 . S
N119 C122 1.346 . S
N119 C123 1.345 . S
C120 C121 1.387 . S
C120 C124 1.391 . S
C121 C120 1.387 . S
C121 C122 1.369 . S
C121 H130 0.929 . S
C122 N119 1.346 . S
C122 C121 1.369 . S
C122 H125 0.928 . S
C123 N119 1.345 . S
C123 C124 1.371 . S
C123 H126 0.931 . S
C124 C120 1.391 . S
C124 C123 1.371 . S
C124 H131 0.930 . S
H125 C122 0.928 . S
H126 C123 0.931 . S
H127 C103 0.930 . S
H128 C100 0.930 . S
H129 C109 0.930 . S
H130 C121 0.929 . S
H131 C124 0.930 . S
C132 C133 1.351 . S
C132 N135 1.368 . S
C132 H137 0.931 . S
C133 C132 1.351 . S
C133 N134 1.373 . S
C133 H161 0.930 . S
N134 C133 1.373 . S
N134 C136 1.340 . S
N135 C132 1.368 . S
N135 C136 1.321 . S
N135 Co138 2.135 . S
C136 N134 1.340 . S
C136 N135 1.321 . S
C136 H160 0.930 . S
H137 C132 0.931 . S
Co138 N135 2.135 . S
Co138 N141 2.121 . S
Co138 O146 2.055 . S
Co138 O149 2.039 . S
Co138 N152 2.140 . S
C139 O140 1.227 . S
C139 O149 1.265 . S
O140 C139 1.227 . S
N141 Co138 2.121 . S
N141 C143 1.375 . S
N141 C144 1.313 . S
C142 C143 1.338 . S
C142 N145 1.377 . S
C142 H162 0.930 . S
C143 N141 1.375 . S
C143 C142 1.338 . S
C143 H147 0.931 . S
C144 N141 1.313 . S
C144 N145 1.344 . S
C144 H148 0.930 . S
N145 C142 1.377 . S
N145 C144 1.344 . S
O146 Co138 2.055 . S
O146 C150 1.253 . S
H147 C143 0.931 . S
H148 C144 0.930 . S
O149 Co138 2.039 . S
O149 C139 1.265 . S
C150 O146 1.253 . S
C150 O151 1.227 . S
O151 C150 1.227 . S
N152 Co138 2.140 . S
N152 C155 1.346 . S
N152 C156 1.345 . S
C153 C154 1.387 . S
C153 C157 1.391 . S
C154 C153 1.387 . S
C154 C155 1.369 . S
C154 H163 0.929 . S
C155 N152 1.346 . S
C155 C154 1.369 . S
C155 H158 0.928 . S
C156 N152 1.345 . S
C156 C157 1.371 . S
C156 H159 0.931 . S
C157 C153 1.391 . S
C157 C156 1.371 . S
C157 H164 0.930 . S
H158 C155 0.928 . S
H159 C156 0.931 . S
H160 C136 0.930 . S
H161 C133 0.930 . S
H162 C142 0.930 . S
H163 C154 0.929 . S
H164 C157 0.930 . S
C165 C166 1.351 . S
C165 N168 1.368 . S
C165 H170 0.931 . S
C166 C165 1.351 . S
C166 N167 1.373 . S
C166 H194 0.930 . S
N167 C166 1.373 . S
N167 C169 1.340 . S
N168 C165 1.368 . S
N168 C169 1.321 . S
N168 Co171 2.135 . S
C169 N167 1.340 . S
C169 N168 1.321 . S
C169 H193 0.930 . S
H170 C165 0.931 . S
Co171 N168 2.135 . S
Co171 N174 2.121 . S
Co171 O179 2.055 . S
Co171 O182 2.039 . S
Co171 N185 2.140 . S
C172 O173 1.227 . S
C172 O182 1.265 . S
O173 C172 1.227 . S
N174 Co171 2.121 . S
N174 C176 1.375 . S
N174 C177 1.313 . S
C175 C176 1.338 . S
C175 N178 1.377 . S
C175 H195 0.930 . S
C176 N174 1.375 . S
C176 C175 1.338 . S
C176 H180 0.931 . S
C177 N174 1.313 . S
C177 N178 1.344 . S
C177 H181 0.930 . S
N178 C175 1.377 . S
N178 C177 1.344 . S
O179 Co171 2.055 . S
O179 C183 1.253 . S
H180 C176 0.931 . S
H181 C177 0.930 . S
O182 Co171 2.039 . S
O182 C172 1.265 . S
C183 O179 1.253 . S
C183 O184 1.227 . S
O184 C183 1.227 . S
N185 Co171 2.140 . S
N185 C188 1.346 . S
N185 C189 1.345 . S
C186 C187 1.387 . S
C186 C190 1.391 . S
C187 C186 1.387 . S
C187 C188 1.369 . S
C187 H196 0.929 . S
C188 N185 1.346 . S
C188 C187 1.369 . S
C188 H191 0.928 . S
C189 N185 1.345 . S
C189 C190 1.371 . S
C189 H192 0.931 . S
C190 C186 1.391 . S
C190 C189 1.371 . S
C190 H197 0.930 . S
H191 C188 0.928 . S
H192 C189 0.931 . S
H193 C169 0.930 . S
H194 C166 0.930 . S
H195 C175 0.930 . S
H196 C187 0.929 . S
H197 C190 0.930 . S
C198 C199 1.351 . S
C198 N201 1.368 . S
C198 H203 0.931 . S
C199 C198 1.351 . S
C199 N200 1.373 . S
C199 H227 0.930 . S
N200 C199 1.373 . S
N200 C202 1.340 . S
N201 C198 1.368 . S
N201 C202 1.321 . S
N201 Co204 2.135 . S
C202 N200 1.340 . S
C202 N201 1.321 . S
C202 H226 0.930 . S
H203 C198 0.931 . S
Co204 N201 2.135 . S
Co204 N207 2.121 . S
Co204 O212 2.055 . S
Co204 O215 2.039 . S
Co204 N218 2.140 . S
C205 O206 1.227 . S
C205 O215 1.265 1_554 S
O206 C205 1.227 . S
N207 Co204 2.121 . S
N207 C209 1.375 . S
N207 C210 1.313 . S
C208 C209 1.338 . S
C208 N211 1.377 . S
C208 H228 0.930 . S
C209 N207 1.375 . S
C209 C208 1.338 . S
C209 H213 0.931 . S
C210 N207 1.313 . S
C210 N211 1.344 . S
C210 H214 0.930 . S
N211 C208 1.377 . S
N211 C210 1.344 . S
O212 Co204 2.055 . S
O212 C216 1.253 . S
H213 C209 0.931 . S
H214 C210 0.930 . S
O215 Co204 2.039 . S
O215 C205 1.265 1_556 S
C216 O212 1.253 . S
C216 O217 1.227 . S
O217 C216 1.227 . S
N218 Co204 2.140 . S
N218 C221 1.346 . S
N218 C222 1.345 . S
C219 C220 1.387 . S
C219 C223 1.391 . S
C220 C219 1.387 . S
C220 C221 1.369 . S
C220 H229 0.929 . S
C221 N218 1.346 . S
C221 C220 1.369 . S
C221 H224 0.928 . S
C222 N218 1.345 . S
C222 C223 1.371 . S
C222 H225 0.931 . S
C223 C219 1.391 . S
C223 C222 1.371 . S
C223 H230 0.930 . S
H224 C221 0.928 . S
H225 C222 0.931 . S
H226 C202 0.930 . S
H227 C199 0.930 . S
H228 C208 0.930 . S
H229 C220 0.929 . S
H230 C223 0.930 . S
C231 C232 1.351 . S
C231 N234 1.368 . S
C231 H236 0.931 . S
C232 C231 1.351 . S
C232 N233 1.373 . S
C232 H260 0.930 . S
N233 C232 1.373 . S
N233 C235 1.340 . S
N234 C231 1.368 . S
N234 C235 1.321 . S
N234 Co237 2.135 . S
C235 N233 1.340 . S
C235 N234 1.321 . S
C235 H259 0.930 . S
H236 C231 0.931 . S
Co237 N234 2.135 . S
Co237 N240 2.121 . S
Co237 O245 2.055 . S
Co237 O248 2.039 . S
Co237 N251 2.140 . S
C238 O239 1.227 . S
C238 O248 1.265 1_554 S
O239 C238 1.227 . S
N240 Co237 2.121 . S
N240 C242 1.375 . S
N240 C243 1.313 . S
C241 C242 1.338 . S
C241 N244 1.377 . S
C241 H261 0.930 . S
C242 N240 1.375 . S
C242 C241 1.338 . S
C242 H246 0.931 . S
C243 N240 1.313 . S
C243 N244 1.344 . S
C243 H247 0.930 . S
N244 C241 1.377 . S
N244 C243 1.344 . S
O245 Co237 2.055 . S
O245 C249 1.253 . S
H246 C242 0.931 . S
H247 C243 0.930 . S
O248 Co237 2.039 . S
O248 C238 1.265 1_556 S
C249 O245 1.253 . S
C249 O250 1.227 . S
O250 C249 1.227 . S
N251 Co237 2.140 . S
N251 C254 1.346 . S
N251 C255 1.345 . S
C252 C253 1.387 . S
C252 C256 1.391 . S
C253 C252 1.387 . S
C253 C254 1.369 . S
C253 H262 0.929 . S
C254 N251 1.346 . S
C254 C253 1.369 . S
C254 H257 0.928 . S
C255 N251 1.345 . S
C255 C256 1.371 . S
C255 H258 0.931 . S
C256 C252 1.391 . S
C256 C255 1.371 . S
C256 H263 0.930 . S
H257 C254 0.928 . S
H258 C255 0.931 . S
H259 C235 0.930 . S
H260 C232 0.930 . S
H261 C241 0.930 . S
H262 C253 0.929 . S
H263 C256 0.930 . S
C264 C265 1.351 . S
C264 N267 1.368 . S
C264 H269 0.931 . S
C265 C264 1.351 . S
C265 N266 1.373 . S
C265 H293 0.930 . S
N266 C265 1.373 . S
N266 C268 1.340 . S
N267 C264 1.368 . S
N267 C268 1.321 . S
N267 Co270 2.135 . S
C268 N266 1.340 . S
C268 N267 1.321 . S
C268 H292 0.930 . S
H269 C264 0.931 . S
Co270 N267 2.135 . S
Co270 N273 2.121 . S
Co270 O278 2.055 . S
Co270 O281 2.039 . S
Co270 N284 2.140 . S
C271 O272 1.227 . S
C271 O281 1.265 1_554 S
O272 C271 1.227 . S
N273 Co270 2.121 . S
N273 C275 1.375 . S
N273 C276 1.313 . S
C274 C275 1.338 . S
C274 N277 1.377 . S
C274 H294 0.930 . S
C275 N273 1.375 . S
C275 C274 1.338 . S
C275 H279 0.931 . S
C276 N273 1.313 . S
C276 N277 1.344 . S
C276 H280 0.930 . S
N277 C274 1.377 . S
N277 C276 1.344 . S
O278 Co270 2.055 . S
O278 C282 1.253 . S
H279 C275 0.931 . S
H280 C276 0.930 . S
O281 Co270 2.039 . S
O281 C271 1.265 1_556 S
C282 O278 1.253 . S
C282 O283 1.227 . S
O283 C282 1.227 . S
N284 Co270 2.140 . S
N284 C287 1.346 . S
N284 C288 1.345 . S
C285 C286 1.387 . S
C285 C289 1.391 . S
C286 C285 1.387 . S
C286 C287 1.369 . S
C286 H295 0.929 . S
C287 N284 1.346 . S
C287 C286 1.369 . S
C287 H290 0.928 . S
C288 N284 1.345 . S
C288 C289 1.371 . S
C288 H291 0.931 . S
C289 C285 1.391 . S
C289 C288 1.371 . S
C289 H296 0.930 . S
H290 C287 0.928 . S
H291 C288 0.931 . S
H292 C268 0.930 . S
H293 C265 0.930 . S
H294 C274 0.930 . S
H295 C286 0.929 . S
H296 C289 0.930 . S
C297 C298 1.351 . S
C297 N300 1.368 . S
C297 H302 0.931 . S
C298 C297 1.351 . S
C298 N299 1.373 . S
C298 H326 0.930 . S
N299 C298 1.373 . S
N299 C301 1.340 . S
N300 C297 1.368 . S
N300 C301 1.321 . S
N300 Co303 2.135 . S
C301 N299 1.340 . S
C301 N300 1.321 . S
C301 H325 0.930 . S
H302 C297 0.931 . S
Co303 N300 2.135 . S
Co303 N306 2.121 . S
Co303 O311 2.055 . S
Co303 O314 2.039 . S
Co303 N317 2.140 . S
C304 O305 1.227 . S
C304 O314 1.265 . S
O305 C304 1.227 . S
N306 Co303 2.121 . S
N306 C308 1.375 . S
N306 C309 1.313 . S
C307 C308 1.338 . S
C307 N310 1.377 . S
C307 H327 0.930 . S
C308 N306 1.375 . S
C308 C307 1.338 . S
C308 H312 0.931 . S
C309 N306 1.313 . S
C309 N310 1.344 . S
C309 H313 0.930 . S
N310 C307 1.377 . S
N310 C309 1.344 . S
O311 Co303 2.055 . S
O311 C315 1.253 . S
H312 C308 0.931 . S
H313 C309 0.930 . S
O314 Co303 2.039 . S
O314 C304 1.265 . S
C315 O311 1.253 . S
C315 O316 1.227 . S
O316 C315 1.227 . S
N317 Co303 2.140 . S
N317 C320 1.346 . S
N317 C321 1.345 . S
C318 C319 1.387 . S
C318 C322 1.391 . S
C319 C318 1.387 . S
C319 C320 1.369 . S
C319 H328 0.929 . S
C320 N317 1.346 . S
C320 C319 1.369 . S
C320 H323 0.928 . S
C321 N317 1.345 . S
C321 C322 1.371 . S
C321 H324 0.931 . S
C322 C318 1.391 . S
C322 C321 1.371 . S
C322 H329 0.930 . S
H323 C320 0.928 . S
H324 C321 0.931 . S
H325 C301 0.930 . S
H326 C298 0.930 . S
H327 C307 0.930 . S
H328 C319 0.929 . S
H329 C322 0.930 . S
C330 C331 1.351 . S
C330 N333 1.368 . S
C330 H335 0.931 . S
C331 C330 1.351 . S
C331 N332 1.373 . S
C331 H359 0.930 . S
N332 C331 1.373 . S
N332 C334 1.340 . S
N333 C330 1.368 . S
N333 C334 1.321 . S
N333 Co336 2.135 . S
C334 N332 1.340 . S
C334 N333 1.321 . S
C334 H358 0.930 . S
H335 C330 0.931 . S
Co336 N333 2.135 . S
Co336 N339 2.121 . S
Co336 O344 2.055 . S
Co336 O347 2.039 . S
Co336 N350 2.140 . S
C337 O338 1.227 . S
C337 O347 1.265 . S
O338 C337 1.227 . S
N339 Co336 2.121 . S
N339 C341 1.375 . S
N339 C342 1.313 . S
C340 C341 1.338 . S
C340 N343 1.377 . S
C340 H360 0.930 . S
C341 N339 1.375 . S
C341 C340 1.338 . S
C341 H345 0.931 . S
C342 N339 1.313 . S
C342 N343 1.344 . S
C342 H346 0.930 . S
N343 C340 1.377 . S
N343 C342 1.344 . S
O344 Co336 2.055 . S
O344 C348 1.253 . S
H345 C341 0.931 . S
H346 C342 0.930 . S
O347 Co336 2.039 . S
O347 C337 1.265 . S
C348 O344 1.253 . S
C348 O349 1.227 . S
O349 C348 1.227 . S
N350 Co336 2.140 . S
N350 C353 1.346 . S
N350 C354 1.345 . S
C351 C352 1.387 . S
C351 C355 1.391 . S
C352 C351 1.387 . S
C352 C353 1.369 . S
C352 H361 0.929 . S
C353 N350 1.346 . S
C353 C352 1.369 . S
C353 H356 0.928 . S
C354 N350 1.345 . S
C354 C355 1.371 . S
C354 H357 0.931 . S
C355 C351 1.391 . S
C355 C354 1.371 . S
C355 H362 0.930 . S
H356 C353 0.928 . S
H357 C354 0.931 . S
H358 C334 0.930 . S
H359 C331 0.930 . S
H360 C340 0.930 . S
H361 C352 0.929 . S
H362 C355 0.930 . S
C363 C364 1.351 . S
C363 N366 1.368 . S
C363 H368 0.931 . S
C364 C363 1.351 . S
C364 N365 1.373 . S
C364 H392 0.930 . S
N365 C364 1.373 . S
N365 C367 1.340 . S
N366 C363 1.368 . S
N366 C367 1.321 . S
N366 Co369 2.135 . S
C367 N365 1.340 . S
C367 N366 1.321 . S
C367 H391 0.930 . S
H368 C363 0.931 . S
Co369 N366 2.135 . S
Co369 N372 2.121 . S
Co369 O377 2.055 . S
Co369 O380 2.039 . S
Co369 N383 2.140 . S
C370 O371 1.227 . S
C370 O380 1.265 . S
O371 C370 1.227 . S
N372 Co369 2.121 . S
N372 C374 1.375 . S
N372 C375 1.313 . S
C373 C374 1.338 . S
C373 N376 1.377 . S
C373 H393 0.930 . S
C374 N372 1.375 . S
C374 C373 1.338 . S
C374 H378 0.931 . S
C375 N372 1.313 . S
C375 N376 1.344 . S
C375 H379 0.930 . S
N376 C373 1.377 . S
N376 C375 1.344 . S
O377 Co369 2.055 . S
O377 C381 1.253 . S
H378 C374 0.931 . S
H379 C375 0.930 . S
O380 Co369 2.039 . S
O380 C370 1.265 . S
C381 O377 1.253 . S
C381 O382 1.227 . S
O382 C381 1.227 . S
N383 Co369 2.140 . S
N383 C386 1.346 . S
N383 C387 1.345 . S
C384 C385 1.387 . S
C384 C388 1.391 . S
C385 C384 1.387 . S
C385 C386 1.369 . S
C385 H394 0.929 . S
C386 N383 1.346 . S
C386 C385 1.369 . S
C386 H389 0.928 . S
C387 N383 1.345 . S
C387 C388 1.371 . S
C387 H390 0.931 . S
C388 C384 1.391 . S
C388 C387 1.371 . S
C388 H395 0.930 . S
H389 C386 0.928 . S
H390 C387 0.931 . S
H391 C367 0.930 . S
H392 C364 0.930 . S
H393 C373 0.930 . S
H394 C385 0.929 . S
H395 C388 0.930 . S
C396 C397 1.351 . S
C396 N399 1.368 . S
C396 H401 0.931 . S
C397 C396 1.351 . S
C397 N398 1.373 . S
C397 H425 0.930 . S
N398 C397 1.373 . S
N398 C400 1.340 . S
N399 C396 1.368 . S
N399 C400 1.321 . S
N399 Co402 2.135 . S
C400 N398 1.340 . S
C400 N399 1.321 . S
C400 H424 0.930 . S
H401 C396 0.931 . S
Co402 N399 2.135 . S
Co402 N405 2.121 . S
Co402 O410 2.055 . S
Co402 O413 2.039 . S
Co402 N416 2.140 . S
C403 O404 1.227 . S
C403 O413 1.265 . S
O404 C403 1.227 . S
N405 Co402 2.121 . S
N405 C407 1.375 . S
N405 C408 1.313 . S
C406 C407 1.338 . S
C406 N409 1.377 . S
C406 H426 0.930 . S
C407 N405 1.375 . S
C407 C406 1.338 . S
C407 H411 0.931 . S
C408 N405 1.313 . S
C408 N409 1.344 . S
C408 H412 0.930 . S
N409 C406 1.377 . S
N409 C408 1.344 . S
O410 Co402 2.055 . S
O410 C414 1.253 . S
H411 C407 0.931 . S
H412 C408 0.930 . S
O413 Co402 2.039 . S
O413 C403 1.265 . S
C414 O410 1.253 . S
C414 O415 1.227 . S
O415 C414 1.227 . S
N416 Co402 2.140 . S
N416 C419 1.346 . S
N416 C420 1.345 . S
C417 C418 1.387 . S
C417 C421 1.391 . S
C418 C417 1.387 . S
C418 C419 1.369 . S
C418 H427 0.929 . S
C419 N416 1.346 . S
C419 C418 1.369 . S
C419 H422 0.928 . S
C420 N416 1.345 . S
C420 C421 1.371 . S
C420 H423 0.931 . S
C421 C417 1.391 . S
C421 C420 1.371 . S
C421 H428 0.930 . S
H422 C419 0.928 . S
H423 C420 0.931 . S
H424 C400 0.930 . S
H425 C397 0.930 . S
H426 C406 0.930 . S
H427 C418 0.929 . S
H428 C421 0.930 . S
C429 C430 1.351 . S
C429 N432 1.368 . S
C429 H434 0.931 . S
C430 C429 1.351 . S
C430 N431 1.373 . S
C430 H458 0.930 . S
N431 C430 1.373 . S
N431 C433 1.340 . S
N432 C429 1.368 . S
N432 C433 1.321 . S
N432 Co435 2.135 . S
C433 N431 1.340 . S
C433 N432 1.321 . S
C433 H457 0.930 . S
H434 C429 0.931 . S
Co435 N432 2.135 . S
Co435 N438 2.121 . S
Co435 O443 2.055 . S
Co435 O446 2.039 . S
Co435 N449 2.140 . S
C436 O437 1.227 . S
C436 O446 1.265 . S
O437 C436 1.227 . S
N438 Co435 2.121 . S
N438 C440 1.375 . S
N438 C441 1.313 . S
C439 C440 1.338 . S
C439 N442 1.377 . S
C439 H459 0.930 . S
C440 N438 1.375 . S
C440 C439 1.338 . S
C440 H444 0.931 . S
C441 N438 1.313 . S
C441 N442 1.344 . S
C441 H445 0.930 . S
N442 C439 1.377 . S
N442 C441 1.344 . S
O443 Co435 2.055 . S
O443 C447 1.253 . S
H444 C440 0.931 . S
H445 C441 0.930 . S
O446 Co435 2.039 . S
O446 C436 1.265 . S
C447 O443 1.253 . S
C447 O448 1.227 . S
O448 C447 1.227 . S
N449 Co435 2.140 . S
N449 C452 1.346 . S
N449 C453 1.345 . S
C450 C451 1.387 . S
C450 C454 1.391 . S
C451 C450 1.387 . S
C451 C452 1.369 . S
C451 H460 0.929 . S
C452 N449 1.346 . S
C452 C451 1.369 . S
C452 H455 0.928 . S
C453 N449 1.345 . S
C453 C454 1.371 . S
C453 H456 0.931 . S
C454 C450 1.391 . S
C454 C453 1.371 . S
C454 H461 0.930 . S
H455 C452 0.928 . S
H456 C453 0.931 . S
H457 C433 0.930 . S
H458 C430 0.930 . S
H459 C439 0.930 . S
H460 C451 0.929 . S
H461 C454 0.930 . S
C462 C463 1.351 . S
C462 N465 1.368 . S
C462 H467 0.931 . S
C463 C462 1.351 . S
C463 N464 1.373 . S
C463 H491 0.930 . S
N464 C463 1.373 . S
N464 C466 1.340 . S
N465 C462 1.368 . S
N465 C466 1.321 . S
N465 Co468 2.135 . S
C466 N464 1.340 . S
C466 N465 1.321 . S
C466 H490 0.930 . S
H467 C462 0.931 . S
Co468 N465 2.135 . S
Co468 N471 2.121 . S
Co468 O476 2.055 . S
Co468 O479 2.039 . S
Co468 N482 2.140 . S
C469 O470 1.227 . S
C469 O479 1.265 . S
O470 C469 1.227 . S
N471 Co468 2.121 . S
N471 C473 1.375 . S
N471 C474 1.313 . S
C472 C473 1.338 . S
C472 N475 1.377 . S
C472 H492 0.930 . S
C473 N471 1.375 . S
C473 C472 1.338 . S
C473 H477 0.931 . S
C474 N471 1.313 . S
C474 N475 1.344 . S
C474 H478 0.930 . S
N475 C472 1.377 . S
N475 C474 1.344 . S
O476 Co468 2.055 . S
O476 C480 1.253 . S
H477 C473 0.931 . S
H478 C474 0.930 . S
O479 Co468 2.039 . S
O479 C469 1.265 . S
C480 O476 1.253 . S
C480 O481 1.227 . S
O481 C480 1.227 . S
N482 Co468 2.140 . S
N482 C485 1.346 . S
N482 C486 1.345 . S
C483 C484 1.387 . S
C483 C487 1.391 . S
C484 C483 1.387 . S
C484 C485 1.369 . S
C484 H493 0.929 . S
C485 N482 1.346 . S
C485 C484 1.369 . S
C485 H488 0.928 . S
C486 N482 1.345 . S
C486 C487 1.371 . S
C486 H489 0.931 . S
C487 C483 1.391 . S
C487 C486 1.371 . S
C487 H494 0.930 . S
H488 C485 0.928 . S
H489 C486 0.931 . S
H490 C466 0.930 . S
H491 C463 0.930 . S
H492 C472 0.930 . S
H493 C484 0.929 . S
H494 C487 0.930 . S
C495 C496 1.351 . S
C495 N498 1.368 . S
C495 H500 0.931 . S
C496 C495 1.351 . S
C496 N497 1.373 . S
C496 H524 0.930 . S
N497 C496 1.373 . S
N497 C499 1.340 . S
N498 C495 1.368 . S
N498 C499 1.321 . S
N498 Co501 2.135 . S
C499 N497 1.340 . S
C499 N498 1.321 . S
C499 H523 0.930 . S
H500 C495 0.931 . S
Co501 N498 2.135 . S
Co501 N504 2.121 . S
Co501 O509 2.055 . S
Co501 O512 2.039 . S
Co501 N515 2.140 . S
C502 O503 1.227 . S
C502 O512 1.265 . S
O503 C502 1.227 . S
N504 Co501 2.121 . S
N504 C506 1.375 . S
N504 C507 1.313 . S
C505 C506 1.338 . S
C505 N508 1.377 . S
C505 H525 0.930 . S
C506 N504 1.375 . S
C506 C505 1.338 . S
C506 H510 0.931 . S
C507 N504 1.313 . S
C507 N508 1.344 . S
C507 H511 0.930 . S
N508 C505 1.377 . S
N508 C507 1.344 . S
O509 Co501 2.055 . S
O509 C513 1.253 . S
H510 C506 0.931 . S
H511 C507 0.930 . S
O512 Co501 2.039 . S
O512 C502 1.265 . S
C513 O509 1.253 . S
C513 O514 1.227 . S
O514 C513 1.227 . S
N515 Co501 2.140 . S
N515 C518 1.346 . S
N515 C519 1.345 . S
C516 C517 1.387 . S
C516 C520 1.391 . S
C517 C516 1.387 . S
C517 C518 1.369 . S
C517 H526 0.929 . S
C518 N515 1.346 . S
C518 C517 1.369 . S
C518 H521 0.928 . S
C519 N515 1.345 . S
C519 C520 1.371 . S
C519 H522 0.931 . S
C520 C516 1.391 . S
C520 C519 1.371 . S
C520 H527 0.930 . S
H521 C518 0.928 . S
H522 C519 0.931 . S
H523 C499 0.930 . S
H524 C496 0.930 . S
H525 C505 0.930 . S
H526 C517 0.929 . S
H527 C520 0.930 . S
C528 C529 1.351 . S
C528 N531 1.368 . S
C528 H533 0.931 . S
C529 C528 1.351 . S
C529 N530 1.373 . S
C529 H557 0.930 . S
N530 C529 1.373 . S
N530 C532 1.340 . S
N531 C528 1.368 . S
N531 C532 1.321 . S
N531 Co534 2.135 . S
C532 N530 1.340 . S
C532 N531 1.321 . S
C532 H556 0.930 . S
H533 C528 0.931 . S
Co534 N531 2.135 . S
Co534 N537 2.121 . S
Co534 O542 2.055 . S
Co534 O545 2.039 . S
Co534 N548 2.140 . S
C535 O536 1.227 . S
C535 O545 1.265 . S
O536 C535 1.227 . S
N537 Co534 2.121 . S
N537 C539 1.375 . S
N537 C540 1.313 . S
C538 C539 1.338 . S
C538 N541 1.377 . S
C538 H558 0.930 . S
C539 N537 1.375 . S
C539 C538 1.338 . S
C539 H543 0.931 . S
C540 N537 1.313 . S
C540 N541 1.344 . S
C540 H544 0.930 . S
N541 C538 1.377 . S
N541 C540 1.344 . S
O542 Co534 2.055 . S
O542 C546 1.253 . S
H543 C539 0.931 . S
H544 C540 0.930 . S
O545 Co534 2.039 . S
O545 C535 1.265 . S
C546 O542 1.253 . S
C546 O547 1.227 . S
O547 C546 1.227 . S
N548 Co534 2.140 . S
N548 C551 1.346 . S
N548 C552 1.345 . S
C549 C550 1.387 . S
C549 C553 1.391 . S
C550 C549 1.387 . S
C550 C551 1.369 . S
C550 H559 0.929 . S
C551 N548 1.346 . S
C551 C550 1.369 . S
C551 H554 0.928 . S
C552 N548 1.345 . S
C552 C553 1.371 . S
C552 H555 0.931 . S
C553 C549 1.391 . S
C553 C552 1.371 . S
C553 H560 0.930 . S
H554 C551 0.928 . S
H555 C552 0.931 . S
H556 C532 0.930 . S
H557 C529 0.930 . S
H558 C538 0.930 . S
H559 C550 0.929 . S
H560 C553 0.930 . S
C561 C562 1.351 . S
C561 N564 1.368 . S
C561 H566 0.931 . S
C562 C561 1.351 . S
C562 N563 1.373 . S
C562 H590 0.930 . S
N563 C562 1.373 . S
N563 C565 1.340 . S
N564 C561 1.368 . S
N564 C565 1.321 . S
N564 Co567 2.135 . S
C565 N563 1.340 . S
C565 N564 1.321 . S
C565 H589 0.930 . S
H566 C561 0.931 . S
Co567 N564 2.135 . S
Co567 N570 2.121 . S
Co567 O575 2.055 . S
Co567 O578 2.039 . S
Co567 N581 2.140 . S
C568 O569 1.227 . S
C568 O578 1.265 . S
O569 C568 1.227 . S
N570 Co567 2.121 . S
N570 C572 1.375 . S
N570 C573 1.313 . S
C571 C572 1.338 . S
C571 N574 1.377 . S
C571 H591 0.930 . S
C572 N570 1.375 . S
C572 C571 1.338 . S
C572 H576 0.931 . S
C573 N570 1.313 . S
C573 N574 1.344 . S
C573 H577 0.930 . S
N574 C571 1.377 . S
N574 C573 1.344 . S
O575 Co567 2.055 . S
O575 C579 1.253 . S
H576 C572 0.931 . S
H577 C573 0.930 . S
O578 Co567 2.039 . S
O578 C568 1.265 . S
C579 O575 1.253 . S
C579 O580 1.227 . S
O580 C579 1.227 . S
N581 Co567 2.140 . S
N581 C584 1.346 . S
N581 C585 1.345 . S
C582 C583 1.387 . S
C582 C586 1.391 . S
C583 C582 1.387 . S
C583 C584 1.369 . S
C583 H592 0.929 . S
C584 N581 1.346 . S
C584 C583 1.369 . S
C584 H587 0.928 . S
C585 N581 1.345 . S
C585 C586 1.371 . S
C585 H588 0.931 . S
C586 C582 1.391 . S
C586 C585 1.371 . S
C586 H593 0.930 . S
H587 C584 0.928 . S
H588 C585 0.931 . S
H589 C565 0.930 . S
H590 C562 0.930 . S
H591 C571 0.930 . S
H592 C583 0.929 . S
H593 C586 0.930 . S
C594 C595 1.351 . S
C594 N597 1.368 . S
C594 H599 0.931 . S
C595 C594 1.351 . S
C595 N596 1.373 . S
C595 H623 0.930 . S
N596 C595 1.373 . S
N596 C598 1.340 . S
N597 C594 1.368 . S
N597 C598 1.321 . S
N597 Co600 2.135 . S
C598 N596 1.340 . S
C598 N597 1.321 . S
C598 H622 0.930 . S
H599 C594 0.931 . S
Co600 N597 2.135 . S
Co600 N603 2.121 . S
Co600 O608 2.055 . S
Co600 O611 2.039 . S
Co600 N614 2.140 . S
C601 O602 1.227 . S
C601 O611 1.265 . S
O602 C601 1.227 . S
N603 Co600 2.121 . S
N603 C605 1.375 . S
N603 C606 1.313 . S
C604 C605 1.338 . S
C604 N607 1.377 . S
C604 H624 0.930 . S
C605 N603 1.375 . S
C605 C604 1.338 . S
C605 H609 0.931 . S
C606 N603 1.313 . S
C606 N607 1.344 . S
C606 H610 0.930 . S
N607 C604 1.377 . S
N607 C606 1.344 . S
O608 Co600 2.055 . S
O608 C612 1.253 . S
H609 C605 0.931 . S
H610 C606 0.930 . S
O611 Co600 2.039 . S
O611 C601 1.265 . S
C612 O608 1.253 . S
C612 O613 1.227 . S
O613 C612 1.227 . S
N614 Co600 2.140 . S
N614 C617 1.346 . S
N614 C618 1.345 . S
C615 C616 1.387 . S
C615 C619 1.391 . S
C616 C615 1.387 . S
C616 C617 1.369 . S
C616 H625 0.929 . S
C617 N614 1.346 . S
C617 C616 1.369 . S
C617 H620 0.928 . S
C618 N614 1.345 . S
C618 C619 1.371 . S
C618 H621 0.931 . S
C619 C615 1.391 . S
C619 C618 1.371 . S
C619 H626 0.930 . S
H620 C617 0.928 . S
H621 C618 0.931 . S
H622 C598 0.930 . S
H623 C595 0.930 . S
H624 C604 0.930 . S
H625 C616 0.929 . S
H626 C619 0.930 . S
C627 C628 1.351 . S
C627 N630 1.368 . S
C627 H632 0.931 . S
C628 C627 1.351 . S
C628 N629 1.373 . S
C628 H656 0.930 . S
N629 C628 1.373 . S
N629 C631 1.340 . S
N630 C627 1.368 . S
N630 C631 1.321 . S
N630 Co633 2.135 . S
C631 N629 1.340 . S
C631 N630 1.321 . S
C631 H655 0.930 . S
H632 C627 0.931 . S
Co633 N630 2.135 . S
Co633 N636 2.121 . S
Co633 O641 2.055 . S
Co633 O644 2.039 . S
Co633 N647 2.140 . S
C634 O635 1.227 . S
C634 O644 1.265 . S
O635 C634 1.227 . S
N636 Co633 2.121 . S
N636 C638 1.375 . S
N636 C639 1.313 . S
C637 C638 1.338 . S
C637 N640 1.377 . S
C637 H657 0.930 . S
C638 N636 1.375 . S
C638 C637 1.338 . S
C638 H642 0.931 . S
C639 N636 1.313 . S
C639 N640 1.344 . S
C639 H643 0.930 . S
N640 C637 1.377 . S
N640 C639 1.344 . S
O641 Co633 2.055 . S
O641 C645 1.253 . S
H642 C638 0.931 . S
H643 C639 0.930 . S
O644 Co633 2.039 . S
O644 C634 1.265 . S
C645 O641 1.253 . S
C645 O646 1.227 . S
O646 C645 1.227 . S
N647 Co633 2.140 . S
N647 C650 1.346 . S
N647 C651 1.345 . S
C648 C649 1.387 . S
C648 C652 1.391 . S
C649 C648 1.387 . S
C649 C650 1.369 . S
C649 H658 0.929 . S
C650 N647 1.346 . S
C650 C649 1.369 . S
C650 H653 0.928 . S
C651 N647 1.345 . S
C651 C652 1.371 . S
C651 H654 0.931 . S
C652 C648 1.391 . S
C652 C651 1.371 . S
C652 H659 0.930 . S
H653 C650 0.928 . S
H654 C651 0.931 . S
H655 C631 0.930 . S
H656 C628 0.930 . S
H657 C637 0.930 . S
H658 C649 0.929 . S
H659 C652 0.930 . S
C660 C661 1.351 . S
C660 N663 1.368 . S
C660 H665 0.931 . S
C661 C660 1.351 . S
C661 N662 1.373 . S
C661 H689 0.930 . S
N662 C661 1.373 . S
N662 C664 1.340 . S
N663 C660 1.368 . S
N663 C664 1.321 . S
N663 Co666 2.135 . S
C664 N662 1.340 . S
C664 N663 1.321 . S
C664 H688 0.930 . S
H665 C660 0.931 . S
Co666 N663 2.135 . S
Co666 N669 2.121 . S
Co666 O674 2.055 . S
Co666 O677 2.039 . S
Co666 N680 2.140 . S
C667 O668 1.227 . S
C667 O677 1.265 . S
O668 C667 1.227 . S
N669 Co666 2.121 . S
N669 C671 1.375 . S
N669 C672 1.313 . S
C670 C671 1.338 . S
C670 N673 1.377 . S
C670 H690 0.930 . S
C671 N669 1.375 . S
C671 C670 1.338 . S
C671 H675 0.931 . S
C672 N669 1.313 . S
C672 N673 1.344 . S
C672 H676 0.930 . S
N673 C670 1.377 . S
N673 C672 1.344 . S
O674 Co666 2.055 . S
O674 C678 1.253 . S
H675 C671 0.931 . S
H676 C672 0.930 . S
O677 Co666 2.039 . S
O677 C667 1.265 . S
C678 O674 1.253 . S
C678 O679 1.227 . S
O679 C678 1.227 . S
N680 Co666 2.140 . S
N680 C683 1.346 . S
N680 C684 1.345 . S
C681 C682 1.387 . S
C681 C685 1.391 . S
C682 C681 1.387 . S
C682 C683 1.369 . S
C682 H691 0.929 . S
C683 N680 1.346 . S
C683 C682 1.369 . S
C683 H686 0.928 . S
C684 N680 1.345 . S
C684 C685 1.371 . S
C684 H687 0.931 . S
C685 C681 1.391 . S
C685 C684 1.371 . S
C685 H692 0.930 . S
H686 C683 0.928 . S
H687 C684 0.931 . S
H688 C664 0.930 . S
H689 C661 0.930 . S
H690 C670 0.930 . S
H691 C682 0.929 . S
H692 C685 0.930 . S
C693 C694 1.351 . S
C693 N696 1.368 . S
C693 H698 0.931 . S
C694 C693 1.351 . S
C694 N695 1.373 . S
C694 H722 0.930 . S
N695 C694 1.373 . S
N695 C697 1.340 . S
N696 C693 1.368 . S
N696 C697 1.321 . S
N696 Co699 2.135 . S
C697 N695 1.340 . S
C697 N696 1.321 . S
C697 H721 0.930 . S
H698 C693 0.931 . S
Co699 N696 2.135 . S
Co699 N702 2.121 . S
Co699 O707 2.055 . S
Co699 O710 2.039 . S
Co699 N713 2.140 . S
C700 O701 1.227 . S
C700 O710 1.265 . S
O701 C700 1.227 . S
N702 Co699 2.121 . S
N702 C704 1.375 . S
N702 C705 1.313 . S
C703 C704 1.338 . S
C703 N706 1.377 . S
C703 H723 0.930 . S
C704 N702 1.375 . S
C704 C703 1.338 . S
C704 H708 0.931 . S
C705 N702 1.313 . S
C705 N706 1.344 . S
C705 H709 0.930 . S
N706 C703 1.377 . S
N706 C705 1.344 . S
O707 Co699 2.055 . S
O707 C711 1.253 . S
H708 C704 0.931 . S
H709 C705 0.930 . S
O710 Co699 2.039 . S
O710 C700 1.265 . S
C711 O707 1.253 . S
C711 O712 1.227 . S
O712 C711 1.227 . S
N713 Co699 2.140 . S
N713 C716 1.346 . S
N713 C717 1.345 . S
C714 C715 1.387 . S
C714 C718 1.391 . S
C715 C714 1.387 . S
C715 C716 1.369 . S
C715 H724 0.929 . S
C716 N713 1.346 . S
C716 C715 1.369 . S
C716 H719 0.928 . S
C717 N713 1.345 . S
C717 C718 1.371 . S
C717 H720 0.931 . S
C718 C714 1.391 . S
C718 C717 1.371 . S
C718 H725 0.930 . S
H719 C716 0.928 . S
H720 C717 0.931 . S
H721 C697 0.930 . S
H722 C694 0.930 . S
H723 C703 0.930 . S
H724 C715 0.929 . S
H725 C718 0.930 . S
C726 C727 1.351 . S
C726 N729 1.368 . S
C726 H731 0.931 . S
C727 C726 1.351 . S
C727 N728 1.373 . S
C727 H755 0.930 . S
N728 C727 1.373 . S
N728 C730 1.340 . S
N729 C726 1.368 . S
N729 C730 1.321 . S
N729 Co732 2.135 . S
C730 N728 1.340 . S
C730 N729 1.321 . S
C730 H754 0.930 . S
H731 C726 0.931 . S
Co732 N729 2.135 . S
Co732 N735 2.121 . S
Co732 O740 2.055 . S
Co732 O743 2.039 . S
Co732 N746 2.140 . S
C733 O734 1.227 . S
C733 O743 1.265 . S
O734 C733 1.227 . S
N735 Co732 2.121 . S
N735 C737 1.375 . S
N735 C738 1.313 . S
C736 C737 1.338 . S
C736 N739 1.377 . S
C736 H756 0.930 . S
C737 N735 1.375 . S
C737 C736 1.338 . S
C737 H741 0.931 . S
C738 N735 1.313 . S
C738 N739 1.344 . S
C738 H742 0.930 . S
N739 C736 1.377 . S
N739 C738 1.344 . S
O740 Co732 2.055 . S
O740 C744 1.253 . S
H741 C737 0.931 . S
H742 C738 0.930 . S
O743 Co732 2.039 . S
O743 C733 1.265 . S
C744 O740 1.253 . S
C744 O745 1.227 . S
O745 C744 1.227 . S
N746 Co732 2.140 . S
N746 C749 1.346 . S
N746 C750 1.345 . S
C747 C748 1.387 . S
C747 C751 1.391 . S
C748 C747 1.387 . S
C748 C749 1.369 . S
C748 H757 0.929 . S
C749 N746 1.346 . S
C749 C748 1.369 . S
C749 H752 0.928 . S
C750 N746 1.345 . S
C750 C751 1.371 . S
C750 H753 0.931 . S
C751 C747 1.391 . S
C751 C750 1.371 . S
C751 H758 0.930 . S
H752 C749 0.928 . S
H753 C750 0.931 . S
H754 C730 0.930 . S
H755 C727 0.930 . S
H756 C736 0.930 . S
H757 C748 0.929 . S
H758 C751 0.930 . S
C759 C760 1.351 . S
C759 N762 1.368 . S
C759 H764 0.931 . S
C760 C759 1.351 . S
C760 N761 1.373 . S
C760 H788 0.930 . S
N761 C760 1.373 . S
N761 C763 1.340 . S
N762 C759 1.368 . S
N762 C763 1.321 . S
N762 Co765 2.135 . S
C763 N761 1.340 . S
C763 N762 1.321 . S
C763 H787 0.930 . S
H764 C759 0.931 . S
Co765 N762 2.135 . S
Co765 N768 2.121 . S
Co765 O773 2.055 . S
Co765 O776 2.039 . S
Co765 N779 2.140 . S
C766 O767 1.227 . S
C766 O776 1.265 . S
O767 C766 1.227 . S
N768 Co765 2.121 . S
N768 C770 1.375 . S
N768 C771 1.313 . S
C769 C770 1.338 . S
C769 N772 1.377 . S
C769 H789 0.930 . S
C770 N768 1.375 . S
C770 C769 1.338 . S
C770 H774 0.931 . S
C771 N768 1.313 . S
C771 N772 1.344 . S
C771 H775 0.930 . S
N772 C769 1.377 . S
N772 C771 1.344 . S
O773 Co765 2.055 . S
O773 C777 1.253 . S
H774 C770 0.931 . S
H775 C771 0.930 . S
O776 Co765 2.039 . S
O776 C766 1.265 . S
C777 O773 1.253 . S
C777 O778 1.227 . S
O778 C777 1.227 . S
N779 Co765 2.140 . S
N779 C782 1.346 . S
N779 C783 1.345 . S
C780 C781 1.387 . S
C780 C784 1.391 . S
C781 C780 1.387 . S
C781 C782 1.369 . S
C781 H790 0.929 . S
C782 N779 1.346 . S
C782 C781 1.369 . S
C782 H785 0.928 . S
C783 N779 1.345 . S
C783 C784 1.371 . S
C783 H786 0.931 . S
C784 C780 1.391 . S
C784 C783 1.371 . S
C784 H791 0.930 . S
H785 C782 0.928 . S
H786 C783 0.931 . S
H787 C763 0.930 . S
H788 C760 0.930 . S
H789 C769 0.930 . S
H790 C781 0.929 . S
H791 C784 0.930 . S
C792 C793 1.351 . S
C792 N795 1.368 . S
C792 H797 0.931 . S
C793 C792 1.351 . S
C793 N794 1.373 . S
C793 H821 0.930 . S
N794 C793 1.373 . S
N794 C796 1.340 . S
N795 C792 1.368 . S
N795 C796 1.321 . S
N795 Co798 2.135 . S
C796 N794 1.340 . S
C796 N795 1.321 . S
C796 H820 0.930 . S
H797 C792 0.931 . S
Co798 N795 2.135 . S
Co798 N801 2.121 . S
Co798 O806 2.055 . S
Co798 O809 2.039 . S
Co798 N812 2.140 . S
C799 O800 1.227 . S
C799 O809 1.265 . S
O800 C799 1.227 . S
N801 Co798 2.121 . S
N801 C803 1.375 . S
N801 C804 1.313 . S
C802 C803 1.338 . S
C802 N805 1.377 . S
C802 H822 0.930 . S
C803 N801 1.375 . S
C803 C802 1.338 . S
C803 H807 0.931 . S
C804 N801 1.313 . S
C804 N805 1.344 . S
C804 H808 0.930 . S
N805 C802 1.377 . S
N805 C804 1.344 . S
O806 Co798 2.055 . S
O806 C810 1.253 . S
H807 C803 0.931 . S
H808 C804 0.930 . S
O809 Co798 2.039 . S
O809 C799 1.265 . S
C810 O806 1.253 . S
C810 O811 1.227 . S
O811 C810 1.227 . S
N812 Co798 2.140 . S
N812 C815 1.346 . S
N812 C816 1.345 . S
C813 C814 1.387 . S
C813 C817 1.391 . S
C814 C813 1.387 . S
C814 C815 1.369 . S
C814 H823 0.929 . S
C815 N812 1.346 . S
C815 C814 1.369 . S
C815 H818 0.928 . S
C816 N812 1.345 . S
C816 C817 1.371 . S
C816 H819 0.931 . S
C817 C813 1.391 . S
C817 C816 1.371 . S
C817 H824 0.930 . S
H818 C815 0.928 . S
H819 C816 0.931 . S
H820 C796 0.930 . S
H821 C793 0.930 . S
H822 C802 0.930 . S
H823 C814 0.929 . S
H824 C817 0.930 . S
C825 C826 1.351 . S
C825 N828 1.368 . S
C825 H830 0.931 . S
C826 C825 1.351 . S
C826 N827 1.373 . S
C826 H854 0.930 . S
N827 C826 1.373 . S
N827 C829 1.340 . S
N828 C825 1.368 . S
N828 C829 1.321 . S
N828 Co831 2.135 . S
C829 N827 1.340 . S
C829 N828 1.321 . S
C829 H853 0.930 . S
H830 C825 0.931 . S
Co831 N828 2.135 . S
Co831 N834 2.121 . S
Co831 O839 2.055 . S
Co831 O842 2.039 . S
Co831 N845 2.140 . S
C832 O833 1.227 . S
C832 O842 1.265 . S
O833 C832 1.227 . S
N834 Co831 2.121 . S
N834 C836 1.375 . S
N834 C837 1.313 . S
C835 C836 1.338 . S
C835 N838 1.377 . S
C835 H855 0.930 . S
C836 N834 1.375 . S
C836 C835 1.338 . S
C836 H840 0.931 . S
C837 N834 1.313 . S
C837 N838 1.344 . S
C837 H841 0.930 . S
N838 C835 1.377 . S
N838 C837 1.344 . S
O839 Co831 2.055 . S
O839 C843 1.253 . S
H840 C836 0.931 . S
H841 C837 0.930 . S
O842 Co831 2.039 . S
O842 C832 1.265 . S
C843 O839 1.253 . S
C843 O844 1.227 . S
O844 C843 1.227 . S
N845 Co831 2.140 . S
N845 C848 1.346 . S
N845 C849 1.345 . S
C846 C847 1.387 . S
C846 C850 1.391 . S
C847 C846 1.387 . S
C847 C848 1.369 . S
C847 H856 0.929 . S
C848 N845 1.346 . S
C848 C847 1.369 . S
C848 H851 0.928 . S
C849 N845 1.345 . S
C849 C850 1.371 . S
C849 H852 0.931 . S
C850 C846 1.391 . S
C850 C849 1.371 . S
C850 H857 0.930 . S
H851 C848 0.928 . S
H852 C849 0.931 . S
H853 C829 0.930 . S
H854 C826 0.930 . S
H855 C835 0.930 . S
H856 C847 0.929 . S
H857 C850 0.930 . S
C858 C859 1.351 . S
C858 N861 1.368 . S
C858 H863 0.931 . S
C859 C858 1.351 . S
C859 N860 1.373 . S
C859 H887 0.930 . S
N860 C859 1.373 . S
N860 C862 1.340 . S
N861 C858 1.368 . S
N861 C862 1.321 . S
N861 Co864 2.135 . S
C862 N860 1.340 . S
C862 N861 1.321 . S
C862 H886 0.930 . S
H863 C858 0.931 . S
Co864 N861 2.135 . S
Co864 N867 2.121 . S
Co864 O872 2.055 . S
Co864 O875 2.039 . S
Co864 N878 2.140 . S
C865 O866 1.227 . S
C865 O875 1.265 . S
O866 C865 1.227 . S
N867 Co864 2.121 . S
N867 C869 1.375 . S
N867 C870 1.313 . S
C868 C869 1.338 . S
C868 N871 1.377 . S
C868 H888 0.930 . S
C869 N867 1.375 . S
C869 C868 1.338 . S
C869 H873 0.931 . S
C870 N867 1.313 . S
C870 N871 1.344 . S
C870 H874 0.930 . S
N871 C868 1.377 . S
N871 C870 1.344 . S
O872 Co864 2.055 . S
O872 C876 1.253 . S
H873 C869 0.931 . S
H874 C870 0.930 . S
O875 Co864 2.039 . S
O875 C865 1.265 . S
C876 O872 1.253 . S
C876 O877 1.227 . S
O877 C876 1.227 . S
N878 Co864 2.140 . S
N878 C881 1.346 . S
N878 C882 1.345 . S
C879 C880 1.387 . S
C879 C883 1.391 . S
C880 C879 1.387 . S
C880 C881 1.369 . S
C880 H889 0.929 . S
C881 N878 1.346 . S
C881 C880 1.369 . S
C881 H884 0.928 . S
C882 N878 1.345 . S
C882 C883 1.371 . S
C882 H885 0.931 . S
C883 C879 1.391 . S
C883 C882 1.371 . S
C883 H890 0.930 . S
H884 C881 0.928 . S
H885 C882 0.931 . S
H886 C862 0.930 . S
H887 C859 0.930 . S
H888 C868 0.930 . S
H889 C880 0.929 . S
H890 C883 0.930 . S
C891 C892 1.351 . S
C891 N894 1.368 . S
C891 H896 0.931 . S
C892 C891 1.351 . S
C892 N893 1.373 . S
C892 H920 0.930 . S
N893 C892 1.373 . S
N893 C895 1.340 . S
N894 C891 1.368 . S
N894 C895 1.321 . S
N894 Co897 2.135 . S
C895 N893 1.340 . S
C895 N894 1.321 . S
C895 H919 0.930 . S
H896 C891 0.931 . S
Co897 N894 2.135 . S
Co897 N900 2.121 . S
Co897 O905 2.055 . S
Co897 O908 2.039 . S
Co897 N911 2.140 . S
C898 O899 1.227 . S
C898 O908 1.265 . S
O899 C898 1.227 . S
N900 Co897 2.121 . S
N900 C902 1.375 . S
N900 C903 1.313 . S
C901 C902 1.338 . S
C901 N904 1.377 . S
C901 H921 0.930 . S
C902 N900 1.375 . S
C902 C901 1.338 . S
C902 H906 0.931 . S
C903 N900 1.313 . S
C903 N904 1.344 . S
C903 H907 0.930 . S
N904 C901 1.377 . S
N904 C903 1.344 . S
O905 Co897 2.055 . S
O905 C909 1.253 . S
H906 C902 0.931 . S
H907 C903 0.930 . S
O908 Co897 2.039 . S
O908 C898 1.265 . S
C909 O905 1.253 . S
C909 O910 1.227 . S
O910 C909 1.227 . S
N911 Co897 2.140 . S
N911 C914 1.346 . S
N911 C915 1.345 . S
C912 C913 1.387 . S
C912 C916 1.391 . S
C913 C912 1.387 . S
C913 C914 1.369 . S
C913 H922 0.929 . S
C914 N911 1.346 . S
C914 C913 1.369 . S
C914 H917 0.928 . S
C915 N911 1.345 . S
C915 C916 1.371 . S
C915 H918 0.931 . S
C916 C912 1.391 . S
C916 C915 1.371 . S
C916 H923 0.930 . S
H917 C914 0.928 . S
H918 C915 0.931 . S
H919 C895 0.930 . S
H920 C892 0.930 . S
H921 C901 0.930 . S
H922 C913 0.929 . S
H923 C916 0.930 . S
C924 C925 1.351 . S
C924 N927 1.368 . S
C924 H929 0.931 . S
C925 C924 1.351 . S
C925 N926 1.373 . S
C925 H953 0.930 . S
N926 C925 1.373 . S
N926 C928 1.340 . S
N927 C924 1.368 . S
N927 C928 1.321 . S
N927 Co930 2.135 . S
C928 N926 1.340 . S
C928 N927 1.321 . S
C928 H952 0.930 . S
H929 C924 0.931 . S
Co930 N927 2.135 . S
Co930 N933 2.121 . S
Co930 O938 2.055 . S
Co930 O941 2.039 . S
Co930 N944 2.140 . S
C931 O932 1.227 . S
C931 O941 1.265 . S
O932 C931 1.227 . S
N933 Co930 2.121 . S
N933 C935 1.375 . S
N933 C936 1.313 . S
C934 C935 1.338 . S
C934 N937 1.377 . S
C934 H954 0.930 . S
C935 N933 1.375 . S
C935 C934 1.338 . S
C935 H939 0.931 . S
C936 N933 1.313 . S
C936 N937 1.344 . S
C936 H940 0.930 . S
N937 C934 1.377 . S
N937 C936 1.344 . S
O938 Co930 2.055 . S
O938 C942 1.253 . S
H939 C935 0.931 . S
H940 C936 0.930 . S
O941 Co930 2.039 . S
O941 C931 1.265 . S
C942 O938 1.253 . S
C942 O943 1.227 . S
O943 C942 1.227 . S
N944 Co930 2.140 . S
N944 C947 1.346 . S
N944 C948 1.345 . S
C945 C946 1.387 . S
C945 C949 1.391 . S
C946 C945 1.387 . S
C946 C947 1.369 . S
C946 H955 0.929 . S
C947 N944 1.346 . S
C947 C946 1.369 . S
C947 H950 0.928 . S
C948 N944 1.345 . S
C948 C949 1.371 . S
C948 H951 0.931 . S
C949 C945 1.391 . S
C949 C948 1.371 . S
C949 H956 0.930 . S
H950 C947 0.928 . S
H951 C948 0.931 . S
H952 C928 0.930 . S
H953 C925 0.930 . S
H954 C934 0.930 . S
H955 C946 0.929 . S
H956 C949 0.930 . S
C957 C958 1.351 . S
C957 N960 1.368 . S
C957 H962 0.931 . S
C958 C957 1.351 . S
C958 N959 1.373 . S
C958 H986 0.930 . S
N959 C958 1.373 . S
N959 C961 1.340 . S
N960 C957 1.368 . S
N960 C961 1.321 . S
N960 Co963 2.135 . S
C961 N959 1.340 . S
C961 N960 1.321 . S
C961 H985 0.930 . S
H962 C957 0.931 . S
Co963 N960 2.135 . S
Co963 N966 2.121 . S
Co963 O971 2.055 . S
Co963 O974 2.039 . S
Co963 N977 2.140 . S
C964 O965 1.227 . S
C964 O974 1.265 . S
O965 C964 1.227 . S
N966 Co963 2.121 . S
N966 C968 1.375 . S
N966 C969 1.313 . S
C967 C968 1.338 . S
C967 N970 1.377 . S
C967 H987 0.930 . S
C968 N966 1.375 . S
C968 C967 1.338 . S
C968 H972 0.931 . S
C969 N966 1.313 . S
C969 N970 1.344 . S
C969 H973 0.930 . S
N970 C967 1.377 . S
N970 C969 1.344 . S
O971 Co963 2.055 . S
O971 C975 1.253 . S
H972 C968 0.931 . S
H973 C969 0.930 . S
O974 Co963 2.039 . S
O974 C964 1.265 . S
C975 O971 1.253 . S
C975 O976 1.227 . S
O976 C975 1.227 . S
N977 Co963 2.140 . S
N977 C980 1.346 . S
N977 C981 1.345 . S
C978 C979 1.387 . S
C978 C982 1.391 . S
C979 C978 1.387 . S
C979 C980 1.369 . S
C979 H988 0.929 . S
C980 N977 1.346 . S
C980 C979 1.369 . S
C980 H983 0.928 . S
C981 N977 1.345 . S
C981 C982 1.371 . S
C981 H984 0.931 . S
C982 C978 1.391 . S
C982 C981 1.371 . S
C982 H989 0.930 . S
H983 C980 0.928 . S
H984 C981 0.931 . S
H985 C961 0.930 . S
H986 C958 0.930 . S
H987 C967 0.930 . S
H988 C979 0.929 . S
H989 C982 0.930 . S
C990 C991 1.351 . S
C990 N993 1.368 . S
C990 H995 0.931 . S
C991 C990 1.351 . S
C991 N992 1.373 . S
C991 H1019 0.930 . S
N992 C991 1.373 . S
N992 C994 1.340 . S
N993 C990 1.368 . S
N993 C994 1.321 . S
N993 Co996 2.135 . S
C994 N992 1.340 . S
C994 N993 1.321 . S
C994 H1018 0.930 . S
H995 C990 0.931 . S
Co996 N993 2.135 . S
Co996 N999 2.121 . S
Co996 O1004 2.055 . S
Co996 O1007 2.039 . S
Co996 N1010 2.140 . S
C997 O998 1.227 . S
C997 O1007 1.265 . S
O998 C997 1.227 . S
N999 Co996 2.121 . S
N999 C1001 1.375 . S
N999 C1002 1.313 . S
C1000 C1001 1.338 . S
C1000 N1003 1.377 . S
C1000 H1020 0.930 . S
C1001 N999 1.375 . S
C1001 C1000 1.338 . S
C1001 H1005 0.931 . S
C1002 N999 1.313 . S
C1002 N1003 1.344 . S
C1002 H1006 0.930 . S
N1003 C1000 1.377 . S
N1003 C1002 1.344 . S
O1004 Co996 2.055 . S
O1004 C1008 1.253 . S
H1005 C1001 0.931 . S
H1006 C1002 0.930 . S
O1007 Co996 2.039 . S
O1007 C997 1.265 . S
C1008 O1004 1.253 . S
C1008 O1009 1.227 . S
O1009 C1008 1.227 . S
N1010 Co996 2.140 . S
N1010 C1013 1.346 . S
N1010 C1014 1.345 . S
C1011 C1012 1.387 . S
C1011 C1015 1.391 . S
C1012 C1011 1.387 . S
C1012 C1013 1.369 . S
C1012 H1021 0.929 . S
C1013 N1010 1.346 . S
C1013 C1012 1.369 . S
C1013 H1016 0.928 . S
C1014 N1010 1.345 . S
C1014 C1015 1.371 . S
C1014 H1017 0.931 . S
C1015 C1011 1.391 . S
C1015 C1014 1.371 . S
C1015 H1022 0.930 . S
H1016 C1013 0.928 . S
H1017 C1014 0.931 . S
H1018 C994 0.930 . S
H1019 C991 0.930 . S
H1020 C1000 0.930 . S
H1021 C1012 0.929 . S
H1022 C1015 0.930 . S
C1023 C1024 1.351 . S
C1023 N1026 1.368 . S
C1023 H1028 0.931 . S
C1024 C1023 1.351 . S
C1024 N1025 1.373 . S
C1024 H1052 0.930 . S
N1025 C1024 1.373 . S
N1025 C1027 1.340 . S
N1026 C1023 1.368 . S
N1026 C1027 1.321 . S
N1026 Co1029 2.135 . S
C1027 N1025 1.340 . S
C1027 N1026 1.321 . S
C1027 H1051 0.930 . S
H1028 C1023 0.931 . S
Co1029 N1026 2.135 . S
Co1029 N1032 2.121 . S
Co1029 O1037 2.055 . S
Co1029 O1040 2.039 . S
Co1029 N1043 2.140 . S
C1030 O1031 1.227 . S
C1030 O1040 1.265 . S
O1031 C1030 1.227 . S
N1032 Co1029 2.121 . S
N1032 C1034 1.375 . S
N1032 C1035 1.313 . S
C1033 C1034 1.338 . S
C1033 N1036 1.377 . S
C1033 H1053 0.930 . S
C1034 N1032 1.375 . S
C1034 C1033 1.338 . S
C1034 H1038 0.931 . S
C1035 N1032 1.313 . S
C1035 N1036 1.344 . S
C1035 H1039 0.930 . S
N1036 C1033 1.377 . S
N1036 C1035 1.344 . S
O1037 Co1029 2.055 . S
O1037 C1041 1.253 . S
H1038 C1034 0.931 . S
H1039 C1035 0.930 . S
O1040 Co1029 2.039 . S
O1040 C1030 1.265 . S
C1041 O1037 1.253 . S
C1041 O1042 1.227 . S
O1042 C1041 1.227 . S
N1043 Co1029 2.140 . S
N1043 C1046 1.346 . S
N1043 C1047 1.345 . S
C1044 C1045 1.387 . S
C1044 C1048 1.391 . S
C1045 C1044 1.387 . S
C1045 C1046 1.369 . S
C1045 H1054 0.929 . S
C1046 N1043 1.346 . S
C1046 C1045 1.369 . S
C1046 H1049 0.928 . S
C1047 N1043 1.345 . S
C1047 C1048 1.371 . S
C1047 H1050 0.931 . S
C1048 C1044 1.391 . S
C1048 C1047 1.371 . S
C1048 H1055 0.930 . S
H1049 C1046 0.928 . S
H1050 C1047 0.931 . S
H1051 C1027 0.930 . S
H1052 C1024 0.930 . S
H1053 C1033 0.930 . S
H1054 C1045 0.929 . S
H1055 C1048 0.930 . S
C1056 C1057 1.351 . S
C1056 N1059 1.368 . S
C1056 H1061 0.931 . S
C1057 C1056 1.351 . S
C1057 N1058 1.373 . S
C1057 H1085 0.930 . S
N1058 C1057 1.373 . S
N1058 C1060 1.340 . S
N1059 C1056 1.368 . S
N1059 C1060 1.321 . S
N1059 Co1062 2.135 . S
C1060 N1058 1.340 . S
C1060 N1059 1.321 . S
C1060 H1084 0.930 . S
H1061 C1056 0.931 . S
Co1062 N1059 2.135 . S
Co1062 N1065 2.121 . S
Co1062 O1070 2.055 . S
Co1062 O1073 2.039 . S
Co1062 N1076 2.140 . S
C1063 O1064 1.227 . S
C1063 O1073 1.265 . S
O1064 C1063 1.227 . S
N1065 Co1062 2.121 . S
N1065 C1067 1.375 . S
N1065 C1068 1.313 . S
C1066 C1067 1.338 . S
C1066 N1069 1.377 . S
C1066 H1086 0.930 . S
C1067 N1065 1.375 . S
C1067 C1066 1.338 . S
C1067 H1071 0.931 . S
C1068 N1065 1.313 . S
C1068 N1069 1.344 . S
C1068 H1072 0.930 . S
N1069 C1066 1.377 . S
N1069 C1068 1.344 . S
O1070 Co1062 2.055 . S
O1070 C1074 1.253 . S
H1071 C1067 0.931 . S
H1072 C1068 0.930 . S
O1073 Co1062 2.039 . S
O1073 C1063 1.265 . S
C1074 O1070 1.253 . S
C1074 O1075 1.227 . S
O1075 C1074 1.227 . S
N1076 Co1062 2.140 . S
N1076 C1079 1.346 . S
N1076 C1080 1.345 . S
C1077 C1078 1.387 . S
C1077 C1081 1.391 . S
C1078 C1077 1.387 . S
C1078 C1079 1.369 . S
C1078 H1087 0.929 . S
C1079 N1076 1.346 . S
C1079 C1078 1.369 . S
C1079 H1082 0.928 . S
C1080 N1076 1.345 . S
C1080 C1081 1.371 . S
C1080 H1083 0.931 . S
C1081 C1077 1.391 . S
C1081 C1080 1.371 . S
C1081 H1088 0.930 . S
H1082 C1079 0.928 . S
H1083 C1080 0.931 . S
H1084 C1060 0.930 . S
H1085 C1057 0.930 . S
H1086 C1066 0.930 . S
H1087 C1078 0.929 . S
H1088 C1081 0.930 . S
C1089 C1090 1.351 . S
C1089 N1092 1.368 . S
C1089 H1094 0.931 . S
C1090 C1089 1.351 . S
C1090 N1091 1.373 . S
C1090 H1118 0.930 . S
N1091 C1090 1.373 . S
N1091 C1093 1.340 . S
N1092 C1089 1.368 . S
N1092 C1093 1.321 . S
N1092 Co1095 2.135 . S
C1093 N1091 1.340 . S
C1093 N1092 1.321 . S
C1093 H1117 0.930 . S
H1094 C1089 0.931 . S
Co1095 N1092 2.135 . S
Co1095 N1098 2.121 . S
Co1095 O1103 2.055 . S
Co1095 O1106 2.039 . S
Co1095 N1109 2.140 . S
C1096 O1097 1.227 . S
C1096 O1106 1.265 . S
O1097 C1096 1.227 . S
N1098 Co1095 2.121 . S
N1098 C1100 1.375 . S
N1098 C1101 1.313 . S
C1099 C1100 1.338 . S
C1099 N1102 1.377 . S
C1099 H1119 0.930 . S
C1100 N1098 1.375 . S
C1100 C1099 1.338 . S
C1100 H1104 0.931 . S
C1101 N1098 1.313 . S
C1101 N1102 1.344 . S
C1101 H1105 0.930 . S
N1102 C1099 1.377 . S
N1102 C1101 1.344 . S
O1103 Co1095 2.055 . S
O1103 C1107 1.253 . S
H1104 C1100 0.931 . S
H1105 C1101 0.930 . S
O1106 Co1095 2.039 . S
O1106 C1096 1.265 . S
C1107 O1103 1.253 . S
C1107 O1108 1.227 . S
O1108 C1107 1.227 . S
N1109 Co1095 2.140 . S
N1109 C1112 1.346 . S
N1109 C1113 1.345 . S
C1110 C1111 1.387 . S
C1110 C1114 1.391 . S
C1111 C1110 1.387 . S
C1111 C1112 1.369 . S
C1111 H1120 0.929 . S
C1112 N1109 1.346 . S
C1112 C1111 1.369 . S
C1112 H1115 0.928 . S
C1113 N1109 1.345 . S
C1113 C1114 1.371 . S
C1113 H1116 0.931 . S
C1114 C1110 1.391 . S
C1114 C1113 1.371 . S
C1114 H1121 0.930 . S
H1115 C1112 0.928 . S
H1116 C1113 0.931 . S
H1117 C1093 0.930 . S
H1118 C1090 0.930 . S
H1119 C1099 0.930 . S
H1120 C1111 0.929 . S
H1121 C1114 0.930 . S
C1122 C1123 1.351 . S
C1122 N1125 1.368 . S
C1122 H1127 0.931 . S
C1123 C1122 1.351 . S
C1123 N1124 1.373 . S
C1123 H1151 0.930 . S
N1124 C1123 1.373 . S
N1124 C1126 1.340 . S
N1125 C1122 1.368 . S
N1125 C1126 1.321 . S
N1125 Co1128 2.135 . S
C1126 N1124 1.340 . S
C1126 N1125 1.321 . S
C1126 H1150 0.930 . S
H1127 C1122 0.931 . S
Co1128 N1125 2.135 . S
Co1128 N1131 2.121 . S
Co1128 O1136 2.055 . S
Co1128 O1139 2.039 . S
Co1128 N1142 2.140 . S
C1129 O1130 1.227 . S
C1129 O1139 1.265 . S
O1130 C1129 1.227 . S
N1131 Co1128 2.121 . S
N1131 C1133 1.375 . S
N1131 C1134 1.313 . S
C1132 C1133 1.338 . S
C1132 N1135 1.377 . S
C1132 H1152 0.930 . S
C1133 N1131 1.375 . S
C1133 C1132 1.338 . S
C1133 H1137 0.931 . S
C1134 N1131 1.313 . S
C1134 N1135 1.344 . S
C1134 H1138 0.930 . S
N1135 C1132 1.377 . S
N1135 C1134 1.344 . S
O1136 Co1128 2.055 . S
O1136 C1140 1.253 . S
H1137 C1133 0.931 . S
H1138 C1134 0.930 . S
O1139 Co1128 2.039 . S
O1139 C1129 1.265 . S
C1140 O1136 1.253 . S
C1140 O1141 1.227 . S
O1141 C1140 1.227 . S
N1142 Co1128 2.140 . S
N1142 C1145 1.346 . S
N1142 C1146 1.345 . S
C1143 C1144 1.387 . S
C1143 C1147 1.391 . S
C1144 C1143 1.387 . S
C1144 C1145 1.369 . S
C1144 H1153 0.929 . S
C1145 N1142 1.346 . S
C1145 C1144 1.369 . S
C1145 H1148 0.928 . S
C1146 N1142 1.345 . S
C1146 C1147 1.371 . S
C1146 H1149 0.931 . S
C1147 C1143 1.391 . S
C1147 C1146 1.371 . S
C1147 H1154 0.930 . S
H1148 C1145 0.928 . S
H1149 C1146 0.931 . S
H1150 C1126 0.930 . S
H1151 C1123 0.930 . S
H1152 C1132 0.930 . S
H1153 C1144 0.929 . S
H1154 C1147 0.930 . S
C1155 C1156 1.351 . S
C1155 N1158 1.368 . S
C1155 H1160 0.931 . S
C1156 C1155 1.351 . S
C1156 N1157 1.373 . S
C1156 H1184 0.930 . S
N1157 C1156 1.373 . S
N1157 C1159 1.340 . S
N1158 C1155 1.368 . S
N1158 C1159 1.321 . S
N1158 Co1161 2.135 . S
C1159 N1157 1.340 . S
C1159 N1158 1.321 . S
C1159 H1183 0.930 . S
H1160 C1155 0.931 . S
Co1161 N1158 2.135 . S
Co1161 N1164 2.121 . S
Co1161 O1169 2.055 . S
Co1161 O1172 2.039 . S
Co1161 N1175 2.140 . S
C1162 O1163 1.227 . S
C1162 O1172 1.265 . S
O1163 C1162 1.227 . S
N1164 Co1161 2.121 . S
N1164 C1166 1.375 . S
N1164 C1167 1.313 . S
C1165 C1166 1.338 . S
C1165 N1168 1.377 . S
C1165 H1185 0.930 . S
C1166 N1164 1.375 . S
C1166 C1165 1.338 . S
C1166 H1170 0.931 . S
C1167 N1164 1.313 . S
C1167 N1168 1.344 . S
C1167 H1171 0.930 . S
N1168 C1165 1.377 . S
N1168 C1167 1.344 . S
O1169 Co1161 2.055 . S
O1169 C1173 1.253 . S
H1170 C1166 0.931 . S
H1171 C1167 0.930 . S
O1172 Co1161 2.039 . S
O1172 C1162 1.265 . S
C1173 O1169 1.253 . S
C1173 O1174 1.227 . S
O1174 C1173 1.227 . S
N1175 Co1161 2.140 . S
N1175 C1178 1.346 . S
N1175 C1179 1.345 . S
C1176 C1177 1.387 . S
C1176 C1180 1.391 . S
C1177 C1176 1.387 . S
C1177 C1178 1.369 . S
C1177 H1186 0.929 . S
C1178 N1175 1.346 . S
C1178 C1177 1.369 . S
C1178 H1181 0.928 . S
C1179 N1175 1.345 . S
C1179 C1180 1.371 . S
C1179 H1182 0.931 . S
C1180 C1176 1.391 . S
C1180 C1179 1.371 . S
C1180 H1187 0.930 . S
H1181 C1178 0.928 . S
H1182 C1179 0.931 . S
H1183 C1159 0.930 . S
H1184 C1156 0.930 . S
H1185 C1165 0.930 . S
H1186 C1177 0.929 . S
H1187 C1180 0.930 . S
H1188 C1196 0.950 . S
H1189 C1201 0.950 . S
H1190 C1198 0.950 . S
H1191 C1200 0.950 . S
H1192 C1202 0.950 . S
H1193 C1204 0.950 . S
H1194 C1206 0.950 . S
H1195 C1207 0.950 . S
C1196 H1188 0.950 . S
C1196 C1197 1.386 . S
C1196 C1198 1.391 . S
C1197 C1196 1.386 . S
C1197 C1201 1.393 . S
C1198 H1190 0.950 . S
C1198 C1196 1.391 . S
C1198 C1199 1.400 . S
C1199 C1198 1.400 . S
C1199 C1200 1.398 . S
C1199 C1205 1.491 . S
C1200 H1191 0.950 . S
C1200 C1199 1.398 . S
C1200 C1201 1.391 . S
C1201 H1189 0.950 . S
C1201 C1197 1.393 . S
C1201 C1200 1.391 . S
C1202 H1192 0.950 . S
C1202 C1203 1.386 . S
C1202 C1204 1.391 . S
C1203 C1202 1.386 . S
C1203 C1207 1.393 . S
C1204 H1193 0.950 . S
C1204 C1202 1.391 . S
C1204 C1205 1.400 . S
C1205 C1199 1.491 . S
C1205 C1204 1.400 . S
C1205 C1206 1.398 . S
C1206 H1194 0.950 . S
C1206 C1205 1.398 . S
C1206 C1207 1.391 . S
C1207 H1195 0.950 . S
C1207 C1203 1.393 . S
C1207 C1206 1.391 . S
H1208 C1216 0.950 . S
H1209 C1221 0.950 . S
H1210 C1218 0.950 . S
H1211 C1220 0.950 . S
H1212 C1222 0.950 . S
H1213 C1224 0.950 . S
H1214 C1226 0.950 . S
H1215 C1227 0.950 . S
C1216 H1208 0.950 . S
C1216 C1217 1.386 . S
C1216 C1218 1.391 . S
C1217 C1216 1.386 . S
C1217 C1221 1.393 . S
C1218 H1210 0.950 . S
C1218 C1216 1.391 . S
C1218 C1219 1.400 . S
C1219 C1218 1.400 . S
C1219 C1220 1.398 . S
C1219 C1225 1.491 . S
C1220 H1211 0.950 . S
C1220 C1219 1.398 . S
C1220 C1221 1.391 . S
C1221 H1209 0.950 . S
C1221 C1217 1.393 . S
C1221 C1220 1.391 . S
C1222 H1212 0.950 . S
C1222 C1223 1.386 . S
C1222 C1224 1.391 . S
C1223 C1222 1.386 . S
C1223 C1227 1.393 . S
C1224 H1213 0.950 . S
C1224 C1222 1.391 . S
C1224 C1225 1.400 . S
C1225 C1219 1.491 . S
C1225 C1224 1.400 . S
C1225 C1226 1.398 . S
C1226 H1214 0.950 . S
C1226 C1225 1.398 . S
C1226 C1227 1.391 . S
C1227 H1215 0.950 . S
C1227 C1223 1.393 . S
C1227 C1226 1.391 . S
H1228 C1236 0.950 . S
H1229 C1241 0.950 . S
H1230 C1238 0.950 . S
H1231 C1240 0.950 . S
H1232 C1242 0.950 . S
H1233 C1244 0.950 . S
H1234 C1246 0.950 . S
H1235 C1247 0.950 . S
C1236 H1228 0.950 . S
C1236 C1237 1.386 . S
C1236 C1238 1.391 . S
C1237 C1236 1.386 . S
C1237 C1241 1.393 . S
C1238 H1230 0.950 . S
C1238 C1236 1.391 . S
C1238 C1239 1.400 . S
C1239 C1238 1.400 . S
C1239 C1240 1.398 . S
C1239 C1245 1.491 . S
C1240 H1231 0.950 . S
C1240 C1239 1.398 . S
C1240 C1241 1.391 . S
C1241 H1229 0.950 . S
C1241 C1237 1.393 . S
C1241 C1240 1.391 . S
C1242 H1232 0.950 . S
C1242 C1243 1.386 . S
C1242 C1244 1.391 . S
C1243 C1242 1.386 . S
C1243 C1247 1.393 . S
C1244 H1233 0.950 . S
C1244 C1242 1.391 . S
C1244 C1245 1.400 . S
C1245 C1239 1.491 . S
C1245 C1244 1.400 . S
C1245 C1246 1.398 . S
C1246 H1234 0.950 . S
C1246 C1245 1.398 . S
C1246 C1247 1.391 . S
C1247 H1235 0.950 . S
C1247 C1243 1.393 . S
C1247 C1246 1.391 . S
H1248 C1256 0.950 . S
H1249 C1261 0.950 . S
H1250 C1258 0.950 . S
H1251 C1260 0.950 . S
H1252 C1262 0.950 . S
H1253 C1264 0.950 . S
H1254 C1266 0.950 . S
H1255 C1267 0.950 . S
C1256 H1248 0.950 . S
C1256 C1257 1.386 . S
C1256 C1258 1.391 . S
C1257 C1256 1.386 . S
C1257 C1261 1.393 . S
C1258 H1250 0.950 . S
C1258 C1256 1.391 . S
C1258 C1259 1.400 . S
C1259 C1258 1.400 . S
C1259 C1260 1.398 . S
C1259 C1265 1.491 . S
C1260 H1251 0.950 . S
C1260 C1259 1.398 . S
C1260 C1261 1.391 . S
C1261 H1249 0.950 . S
C1261 C1257 1.393 . S
C1261 C1260 1.391 . S
C1262 H1252 0.950 . S
C1262 C1263 1.386 . S
C1262 C1264 1.391 . S
C1263 C1262 1.386 . S
C1263 C1267 1.393 . S
C1264 H1253 0.950 . S
C1264 C1262 1.391 . S
C1264 C1265 1.400 . S
C1265 C1259 1.491 . S
C1265 C1264 1.400 . S
C1265 C1266 1.398 . S
C1266 H1254 0.950 . S
C1266 C1265 1.398 . S
C1266 C1267 1.391 . S
C1267 H1255 0.950 . S
C1267 C1263 1.393 . S
C1267 C1266 1.391 . S
H1268 C1276 0.950 . S
H1269 C1281 0.950 . S
H1270 C1278 0.950 . S
H1271 C1280 0.950 . S
H1272 C1282 0.950 . S
H1273 C1284 0.950 . S
H1274 C1286 0.950 . S
H1275 C1287 0.950 . S
C1276 H1268 0.950 . S
C1276 C1277 1.386 . S
C1276 C1278 1.391 . S
C1277 C1276 1.386 . S
C1277 C1281 1.393 . S
C1278 H1270 0.950 . S
C1278 C1276 1.391 . S
C1278 C1279 1.400 . S
C1279 C1278 1.400 . S
C1279 C1280 1.398 . S
C1279 C1285 1.491 . S
C1280 H1271 0.950 . S
C1280 C1279 1.398 . S
C1280 C1281 1.391 . S
C1281 H1269 0.950 . S
C1281 C1277 1.393 . S
C1281 C1280 1.391 . S
C1282 H1272 0.950 . S
C1282 C1283 1.386 . S
C1282 C1284 1.391 . S
C1283 C1282 1.386 . S
C1283 C1287 1.393 . S
C1284 H1273 0.950 . S
C1284 C1282 1.391 . S
C1284 C1285 1.400 . S
C1285 C1279 1.491 . S
C1285 C1284 1.400 . S
C1285 C1286 1.398 . S
C1286 H1274 0.950 . S
C1286 C1285 1.398 . S
C1286 C1287 1.391 . S
C1287 H1275 0.950 . S
C1287 C1283 1.393 . S
C1287 C1286 1.391 . S
H1288 C1296 0.950 . S
H1289 C1301 0.950 . S
H1290 C1298 0.950 . S
H1291 C1300 0.950 . S
H1292 C1302 0.950 . S
H1293 C1304 0.950 . S
H1294 C1306 0.950 . S
H1295 C1307 0.950 . S
C1296 H1288 0.950 . S
C1296 C1297 1.386 . S
C1296 C1298 1.391 . S
C1297 C1296 1.386 . S
C1297 C1301 1.393 . S
C1298 H1290 0.950 . S
C1298 C1296 1.391 . S
C1298 C1299 1.400 . S
C1299 C1298 1.400 . S
C1299 C1300 1.398 . S
C1299 C1305 1.491 . S
C1300 H1291 0.950 . S
C1300 C1299 1.398 . S
C1300 C1301 1.391 . S
C1301 H1289 0.950 . S
C1301 C1297 1.393 . S
C1301 C1300 1.391 . S
C1302 H1292 0.950 . S
C1302 C1303 1.386 . S
C1302 C1304 1.391 . S
C1303 C1302 1.386 . S
C1303 C1307 1.393 . S
C1304 H1293 0.950 . S
C1304 C1302 1.391 . S
C1304 C1305 1.400 . S
C1305 C1299 1.491 . S
C1305 C1304 1.400 . S
C1305 C1306 1.398 . S
C1306 H1294 0.950 . S
C1306 C1305 1.398 . S
C1306 C1307 1.391 . S
C1307 H1295 0.950 . S
C1307 C1303 1.393 . S
C1307 C1306 1.391 . S
H1308 C1316 0.950 . S
H1309 C1321 0.950 . S
H1310 C1318 0.950 . S
H1311 C1320 0.950 . S
H1312 C1322 0.950 . S
H1313 C1324 0.950 . S
H1314 C1326 0.950 . S
H1315 C1327 0.950 . S
C1316 H1308 0.950 . S
C1316 C1317 1.386 . S
C1316 C1318 1.391 . S
C1317 C1316 1.386 . S
C1317 C1321 1.393 . S
C1318 H1310 0.950 . S
C1318 C1316 1.391 . S
C1318 C1319 1.400 . S
C1319 C1318 1.400 . S
C1319 C1320 1.398 . S
C1319 C1325 1.491 . S
C1320 H1311 0.950 . S
C1320 C1319 1.398 . S
C1320 C1321 1.391 . S
C1321 H1309 0.950 . S
C1321 C1317 1.393 . S
C1321 C1320 1.391 . S
C1322 H1312 0.950 . S
C1322 C1323 1.386 . S
C1322 C1324 1.391 . S
C1323 C1322 1.386 . S
C1323 C1327 1.393 . S
C1324 H1313 0.950 . S
C1324 C1322 1.391 . S
C1324 C1325 1.400 . S
C1325 C1319 1.491 . S
C1325 C1324 1.400 . S
C1325 C1326 1.398 . S
C1326 H1314 0.950 . S
C1326 C1325 1.398 . S
C1326 C1327 1.391 . S
C1327 H1315 0.950 . S
C1327 C1323 1.393 . S
C1327 C1326 1.391 . S
H1328 C1336 0.950 . S
H1329 C1341 0.950 . S
H1330 C1338 0.950 . S
H1331 C1340 0.950 . S
H1332 C1342 0.950 . S
H1333 C1344 0.950 . S
H1334 C1346 0.950 . S
H1335 C1347 0.950 . S
C1336 H1328 0.950 . S
C1336 C1337 1.386 . S
C1336 C1338 1.391 . S
C1337 C1336 1.386 . S
C1337 C1341 1.393 . S
C1338 H1330 0.950 . S
C1338 C1336 1.391 . S
C1338 C1339 1.400 . S
C1339 C1338 1.400 . S
C1339 C1340 1.398 . S
C1339 C1345 1.491 . S
C1340 H1331 0.950 . S
C1340 C1339 1.398 . S
C1340 C1341 1.391 . S
C1341 H1329 0.950 . S
C1341 C1337 1.393 . S
C1341 C1340 1.391 . S
C1342 H1332 0.950 . S
C1342 C1343 1.386 . S
C1342 C1344 1.391 . S
C1343 C1342 1.386 . S
C1343 C1347 1.393 . S
C1344 H1333 0.950 . S
C1344 C1342 1.391 . S
C1344 C1345 1.400 . S
C1345 C1339 1.491 . S
C1345 C1344 1.400 . S
C1345 C1346 1.398 . S
C1346 H1334 0.950 . S
C1346 C1345 1.398 . S
C1346 C1347 1.391 . S
C1347 H1335 0.950 . S
C1347 C1343 1.393 . S
C1347 C1346 1.391 . S
H1348 C1356 0.950 . S
H1349 C1361 0.950 . S
H1350 C1358 0.950 . S
H1351 C1360 0.950 . S
H1352 C1362 0.950 . S
H1353 C1364 0.950 . S
H1354 C1366 0.950 . S
H1355 C1367 0.950 . S
C1356 H1348 0.950 . S
C1356 C1357 1.386 . S
C1356 C1358 1.391 . S
C1357 C1356 1.386 . S
C1357 C1361 1.393 . S
C1358 H1350 0.950 . S
C1358 C1356 1.391 . S
C1358 C1359 1.400 . S
C1359 C1358 1.400 . S
C1359 C1360 1.398 . S
C1359 C1365 1.491 . S
C1360 H1351 0.950 . S
C1360 C1359 1.398 . S
C1360 C1361 1.391 . S
C1361 H1349 0.950 . S
C1361 C1357 1.393 . S
C1361 C1360 1.391 . S
C1362 H1352 0.950 . S
C1362 C1363 1.386 . S
C1362 C1364 1.391 . S
C1363 C1362 1.386 . S
C1363 C1367 1.393 . S
C1364 H1353 0.950 . S
C1364 C1362 1.391 . S
C1364 C1365 1.400 . S
C1365 C1359 1.491 . S
C1365 C1364 1.400 . S
C1365 C1366 1.398 . S
C1366 H1354 0.950 . S
C1366 C1365 1.398 . S
C1366 C1367 1.391 . S
C1367 H1355 0.950 . S
C1367 C1363 1.393 . S
C1367 C1366 1.391 . S
H1368 C1376 0.950 . S
H1369 C1381 0.950 . S
H1370 C1378 0.950 . S
H1371 C1380 0.950 . S
H1372 C1382 0.950 . S
H1373 C1384 0.950 . S
H1374 C1386 0.950 . S
H1375 C1387 0.950 . S
C1376 H1368 0.950 . S
C1376 C1377 1.386 . S
C1376 C1378 1.391 . S
C1377 C1376 1.386 . S
C1377 C1381 1.393 . S
C1378 H1370 0.950 . S
C1378 C1376 1.391 . S
C1378 C1379 1.400 . S
C1379 C1378 1.400 . S
C1379 C1380 1.398 . S
C1379 C1385 1.491 . S
C1380 H1371 0.950 . S
C1380 C1379 1.398 . S
C1380 C1381 1.391 . S
C1381 H1369 0.950 . S
C1381 C1377 1.393 . S
C1381 C1380 1.391 . S
C1382 H1372 0.950 . S
C1382 C1383 1.386 . S
C1382 C1384 1.391 . S
C1383 C1382 1.386 . S
C1383 C1387 1.393 . S
C1384 H1373 0.950 . S
C1384 C1382 1.391 . S
C1384 C1385 1.400 . S
C1385 C1379 1.491 . S
C1385 C1384 1.400 . S
C1385 C1386 1.398 . S
C1386 H1374 0.950 . S
C1386 C1385 1.398 . S
C1386 C1387 1.391 . S
C1387 H1375 0.950 . S
C1387 C1383 1.393 . S
C1387 C1386 1.391 . S
H1388 C1396 0.950 . S
H1389 C1401 0.950 . S
H1390 C1398 0.950 . S
H1391 C1400 0.950 . S
H1392 C1402 0.950 . S
H1393 C1404 0.950 . S
H1394 C1406 0.950 . S
H1395 C1407 0.950 . S
C1396 H1388 0.950 . S
C1396 C1397 1.386 . S
C1396 C1398 1.391 . S
C1397 C1396 1.386 . S
C1397 C1401 1.393 . S
C1398 H1390 0.950 . S
C1398 C1396 1.391 . S
C1398 C1399 1.400 . S
C1399 C1398 1.400 . S
C1399 C1400 1.398 . S
C1399 C1405 1.491 . S
C1400 H1391 0.950 . S
C1400 C1399 1.398 . S
C1400 C1401 1.391 . S
C1401 H1389 0.950 . S
C1401 C1397 1.393 . S
C1401 C1400 1.391 . S
C1402 H1392 0.950 . S
C1402 C1403 1.386 . S
C1402 C1404 1.391 . S
C1403 C1402 1.386 . S
C1403 C1407 1.393 . S
C1404 H1393 0.950 . S
C1404 C1402 1.391 . S
C1404 C1405 1.400 . S
C1405 C1399 1.491 . S
C1405 C1404 1.400 . S
C1405 C1406 1.398 . S
C1406 H1394 0.950 . S
C1406 C1405 1.398 . S
C1406 C1407 1.391 . S
C1407 H1395 0.950 . S
C1407 C1403 1.393 . S
C1407 C1406 1.391 . S
H1408 C1416 0.950 . S
H1409 C1421 0.950 . S
H1410 C1418 0.950 . S
H1411 C1420 0.950 . S
H1412 C1422 0.950 . S
H1413 C1424 0.950 . S
H1414 C1426 0.950 . S
H1415 C1427 0.950 . S
C1416 H1408 0.950 . S
C1416 C1417 1.386 . S
C1416 C1418 1.391 . S
C1417 C1416 1.386 . S
C1417 C1421 1.393 . S
C1418 H1410 0.950 . S
C1418 C1416 1.391 . S
C1418 C1419 1.400 . S
C1419 C1418 1.400 . S
C1419 C1420 1.398 . S
C1419 C1425 1.491 . S
C1420 H1411 0.950 . S
C1420 C1419 1.398 . S
C1420 C1421 1.391 . S
C1421 H1409 0.950 . S
C1421 C1417 1.393 . S
C1421 C1420 1.391 . S
C1422 H1412 0.950 . S
C1422 C1423 1.386 . S
C1422 C1424 1.391 . S
C1423 C1422 1.386 . S
C1423 C1427 1.393 . S
C1424 H1413 0.950 . S
C1424 C1422 1.391 . S
C1424 C1425 1.400 . S
C1425 C1419 1.491 . S
C1425 C1424 1.400 . S
C1425 C1426 1.398 . S
C1426 H1414 0.950 . S
C1426 C1425 1.398 . S
C1426 C1427 1.391 . S
C1427 H1415 0.950 . S
C1427 C1423 1.393 . S
C1427 C1426 1.391 . S
H1428 C1436 0.950 1_455 S
H1429 C1441 0.950 . S
H1430 C1438 0.950 . S
H1431 C1440 0.950 . S
H1432 C1442 0.950 1_655 S
H1433 C1444 0.950 . S
H1434 C1446 0.950 . S
H1435 C1447 0.950 . S
C1436 H1428 0.950 1_655 S
C1436 C1437 1.386 . S
C1436 C1438 1.391 1_655 S
C1437 C1436 1.386 . S
C1437 C1441 1.393 . S
C1438 H1430 0.950 . S
C1438 C1436 1.391 1_455 S
C1438 C1439 1.400 1_455 S
C1439 C1438 1.400 1_655 S
C1439 C1440 1.398 . S
C1439 C1445 1.491 1_655 S
C1440 H1431 0.950 . S
C1440 C1439 1.398 . S
C1440 C1441 1.391 . S
C1441 H1429 0.950 . S
C1441 C1437 1.393 . S
C1441 C1440 1.391 . S
C1442 H1432 0.950 1_455 S
C1442 C1443 1.386 . S
C1442 C1444 1.391 1_455 S
C1443 C1442 1.386 . S
C1443 C1447 1.393 . S
C1444 H1433 0.950 . S
C1444 C1442 1.391 1_655 S
C1444 C1445 1.400 1_655 S
C1445 C1439 1.491 1_455 S
C1445 C1444 1.400 1_455 S
C1445 C1446 1.398 . S
C1446 H1434 0.950 . S
C1446 C1445 1.398 . S
C1446 C1447 1.391 . S
C1447 H1435 0.950 . S
C1447 C1443 1.393 . S
C1447 C1446 1.391 . S
H1448 C1456 0.950 . S
H1449 C1461 0.950 . S
H1450 C1458 0.950 . S
H1451 C1460 0.950 . S
H1452 C1462 0.950 . S
H1453 C1464 0.950 . S
H1454 C1466 0.950 . S
H1455 C1467 0.950 . S
C1456 H1448 0.950 . S
C1456 C1457 1.386 . S
C1456 C1458 1.391 . S
C1457 C1456 1.386 . S
C1457 C1461 1.393 . S
C1458 H1450 0.950 . S
C1458 C1456 1.391 . S
C1458 C1459 1.400 . S
C1459 C1458 1.400 . S
C1459 C1460 1.398 . S
C1459 C1465 1.491 . S
C1460 H1451 0.950 . S
C1460 C1459 1.398 . S
C1460 C1461 1.391 . S
C1461 H1449 0.950 . S
C1461 C1457 1.393 . S
C1461 C1460 1.391 . S
C1462 H1452 0.950 . S
C1462 C1463 1.386 . S
C1462 C1464 1.391 . S
C1463 C1462 1.386 . S
C1463 C1467 1.393 . S
C1464 H1453 0.950 . S
C1464 C1462 1.391 . S
C1464 C1465 1.400 . S
C1465 C1459 1.491 . S
C1465 C1464 1.400 . S
C1465 C1466 1.398 . S
C1466 H1454 0.950 . S
C1466 C1465 1.398 . S
C1466 C1467 1.391 . S
C1467 H1455 0.950 . S
C1467 C1463 1.393 . S
C1467 C1466 1.391 . S
H1468 C1476 0.950 . S
H1469 C1481 0.950 1_545 S
H1470 C1478 0.950 . S
H1471 C1480 0.950 . S
H1472 C1482 0.950 . S
H1473 C1484 0.950 . S
H1474 C1486 0.950 . S
H1475 C1487 0.950 1_565 S
C1476 H1468 0.950 . S
C1476 C1477 1.386 . S
C1476 C1478 1.391 . S
C1477 C1476 1.386 . S
C1477 C1481 1.393 . S
C1478 H1470 0.950 . S
C1478 C1476 1.391 . S
C1478 C1479 1.400 . S
C1479 C1478 1.400 . S
C1479 C1480 1.398 1_565 S
C1479 C1485 1.491 1_565 S
C1480 H1471 0.950 . S
C1480 C1479 1.398 1_545 S
C1480 C1481 1.391 1_545 S
C1481 H1469 0.950 1_565 S
C1481 C1477 1.393 . S
C1481 C1480 1.391 1_565 S
C1482 H1472 0.950 . S
C1482 C1483 1.386 . S
C1482 C1484 1.391 . S
C1483 C1482 1.386 . S
C1483 C1487 1.393 . S
C1484 H1473 0.950 . S
C1484 C1482 1.391 . S
C1484 C1485 1.400 . S
C1485 C1479 1.491 1_545 S
C1485 C1484 1.400 . S
C1485 C1486 1.398 1_545 S
C1486 H1474 0.950 . S
C1486 C1485 1.398 1_565 S
C1486 C1487 1.391 1_565 S
C1487 H1475 0.950 1_545 S
C1487 C1483 1.393 . S
C1487 C1486 1.391 1_545 S
H1488 C1496 0.950 . S
H1489 C1501 0.950 . S
H1490 C1498 0.950 . S
H1491 C1500 0.950 1_545 S
H1492 C1502 0.950 . S
H1493 C1504 0.950 . S
H1494 C1506 0.950 1_565 S
H1495 C1507 0.950 . S
C1496 H1488 0.950 . S
C1496 C1497 1.386 . S
C1496 C1498 1.391 . S
C1497 C1496 1.386 . S
C1497 C1501 1.393 . S
C1498 H1490 0.950 . S
C1498 C1496 1.391 . S
C1498 C1499 1.400 . S
C1499 C1498 1.400 . S
C1499 C1500 1.398 . S
C1499 C1505 1.491 1_565 S
C1500 H1491 0.950 1_565 S
C1500 C1499 1.398 . S
C1500 C1501 1.391 . S
C1501 H1489 0.950 . S
C1501 C1497 1.393 . S
C1501 C1500 1.391 . S
C1502 H1492 0.950 . S
C1502 C1503 1.386 . S
C1502 C1504 1.391 . S
C1503 C1502 1.386 . S
C1503 C1507 1.393 . S
C1504 H1493 0.950 . S
C1504 C1502 1.391 . S
C1504 C1505 1.400 . S
C1505 C1499 1.491 1_545 S
C1505 C1504 1.400 . S
C1505 C1506 1.398 . S
C1506 H1494 0.950 1_545 S
C1506 C1505 1.398 . S
C1506 C1507 1.391 . S
C1507 H1495 0.950 . S
C1507 C1503 1.393 . S
C1507 C1506 1.391 . S
H1508 C1516 0.950 . S
H1509 C1521 0.950 1_655 S
H1510 C1518 0.950 . S
H1511 C1520 0.950 . S
H1512 C1522 0.950 . S
H1513 C1524 0.950 . S
H1514 C1526 0.950 . S
H1515 C1527 0.950 1_455 S
C1516 H1508 0.950 . S
C1516 C1517 1.386 . S
C1516 C1518 1.391 . S
C1517 C1516 1.386 . S
C1517 C1521 1.393 . S
C1518 H1510 0.950 . S
C1518 C1516 1.391 . S
C1518 C1519 1.400 . S
C1519 C1518 1.400 . S
C1519 C1520 1.398 1_455 S
C1519 C1525 1.491 1_455 S
C1520 H1511 0.950 . S
C1520 C1519 1.398 1_655 S
C1520 C1521 1.391 1_655 S
C1521 H1509 0.950 1_455 S
C1521 C1517 1.393 . S
C1521 C1520 1.391 1_455 S
C1522 H1512 0.950 . S
C1522 C1523 1.386 . S
C1522 C1524 1.391 . S
C1523 C1522 1.386 . S
C1523 C1527 1.393 . S
C1524 H1513 0.950 . S
C1524 C1522 1.391 . S
C1524 C1525 1.400 . S
C1525 C1519 1.491 1_655 S
C1525 C1524 1.400 . S
C1525 C1526 1.398 1_655 S
C1526 H1514 0.950 . S
C1526 C1525 1.398 1_455 S
C1526 C1527 1.391 1_455 S
C1527 H1515 0.950 1_655 S
C1527 C1523 1.393 . S
C1527 C1526 1.391 1_655 S
H1528 C1536 0.950 . S
H1529 C1541 0.950 . S
H1530 C1538 0.950 . S
H1531 C1540 0.950 . S
H1532 C1542 0.950 . S
H1533 C1544 0.950 . S
H1534 C1546 0.950 . S
H1535 C1547 0.950 . S
C1536 H1528 0.950 . S
C1536 C1537 1.386 . S
C1536 C1538 1.391 . S
C1537 C1536 1.386 . S
C1537 C1541 1.393 . S
C1538 H1530 0.950 . S
C1538 C1536 1.391 . S
C1538 C1539 1.400 . S
C1539 C1538 1.400 . S
C1539 C1540 1.398 . S
C1539 C1545 1.491 . S
C1540 H1531 0.950 . S
C1540 C1539 1.398 . S
C1540 C1541 1.391 . S
C1541 H1529 0.950 . S
C1541 C1537 1.393 . S
C1541 C1540 1.391 . S
C1542 H1532 0.950 . S
C1542 C1543 1.386 . S
C1542 C1544 1.391 . S
C1543 C1542 1.386 . S
C1543 C1547 1.393 . S
C1544 H1533 0.950 . S
C1544 C1542 1.391 . S
C1544 C1545 1.400 . S
C1545 C1539 1.491 . S
C1545 C1544 1.400 . S
C1545 C1546 1.398 . S
C1546 H1534 0.950 . S
C1546 C1545 1.398 . S
C1546 C1547 1.391 . S
C1547 H1535 0.950 . S
C1547 C1543 1.393 . S
C1547 C1546 1.391 . S
H1548 C1556 0.950 . S
H1549 C1561 0.950 . S
H1550 C1558 0.950 . S
H1551 C1560 0.950 . S
H1552 C1562 0.950 . S
H1553 C1564 0.950 . S
H1554 C1566 0.950 . S
H1555 C1567 0.950 . S
C1556 H1548 0.950 . S
C1556 C1557 1.386 . S
C1556 C1558 1.391 . S
C1557 C1556 1.386 . S
C1557 C1561 1.393 . S
C1558 H1550 0.950 . S
C1558 C1556 1.391 . S
C1558 C1559 1.400 . S
C1559 C1558 1.400 . S
C1559 C1560 1.398 . S
C1559 C1565 1.491 . S
C1560 H1551 0.950 . S
C1560 C1559 1.398 . S
C1560 C1561 1.391 . S
C1561 H1549 0.950 . S
C1561 C1557 1.393 . S
C1561 C1560 1.391 . S
C1562 H1552 0.950 . S
C1562 C1563 1.386 . S
C1562 C1564 1.391 . S
C1563 C1562 1.386 . S
C1563 C1567 1.393 . S
C1564 H1553 0.950 . S
C1564 C1562 1.391 . S
C1564 C1565 1.400 . S
C1565 C1559 1.491 . S
C1565 C1564 1.400 . S
C1565 C1566 1.398 . S
C1566 H1554 0.950 . S
C1566 C1565 1.398 . S
C1566 C1567 1.391 . S
C1567 H1555 0.950 . S
C1567 C1563 1.393 . S
C1567 C1566 1.391 . S
H1568 C1576 0.950 . S
H1569 C1581 0.950 . S
H1570 C1578 0.950 . S
H1571 C1580 0.950 . S
H1572 C1582 0.950 . S
H1573 C1584 0.950 . S
H1574 C1586 0.950 . S
H1575 C1587 0.950 . S
C1576 H1568 0.950 . S
C1576 C1577 1.386 . S
C1576 C1578 1.391 . S
C1577 C1576 1.386 . S
C1577 C1581 1.393 . S
C1578 H1570 0.950 . S
C1578 C1576 1.391 . S
C1578 C1579 1.400 . S
C1579 C1578 1.400 . S
C1579 C1580 1.398 . S
C1579 C1585 1.491 . S
C1580 H1571 0.950 . S
C1580 C1579 1.398 . S
C1580 C1581 1.391 . S
C1581 H1569 0.950 . S
C1581 C1577 1.393 . S
C1581 C1580 1.391 . S
C1582 H1572 0.950 . S
C1582 C1583 1.386 1_545 S
C1582 C1584 1.391 . S
C1583 C1582 1.386 1_565 S
C1583 C1587 1.393 . S
C1584 H1573 0.950 . S
C1584 C1582 1.391 . S
C1584 C1585 1.400 . S
C1585 C1579 1.491 . S
C1585 C1584 1.400 . S
C1585 C1586 1.398 . S
C1586 H1574 0.950 . S
C1586 C1585 1.398 . S
C1586 C1587 1.391 1_545 S
C1587 H1575 0.950 . S
C1587 C1583 1.393 . S
C1587 C1586 1.391 1_565 S
H1588 C1596 0.950 . S
H1589 C1601 0.950 . S
H1590 C1598 0.950 . S
H1591 C1600 0.950 . S
H1592 C1602 0.949 1_455 S
H1593 C1604 0.950 . S
H1594 C1606 0.950 . S
H1595 C1607 0.950 . S
C1596 H1588 0.950 . S
C1596 C1597 1.386 . S
C1596 C1598 1.391 . S
C1597 C1596 1.386 . S
C1597 C1601 1.393 . S
C1598 H1590 0.950 . S
C1598 C1596 1.391 . S
C1598 C1599 1.400 . S
C1599 C1598 1.400 . S
C1599 C1600 1.398 . S
C1599 C1605 1.491 . S
C1600 H1591 0.950 . S
C1600 C1599 1.398 . S
C1600 C1601 1.391 . S
C1601 H1589 0.950 . S
C1601 C1597 1.393 . S
C1601 C1600 1.391 . S
C1602 H1592 0.949 1_655 S
C1602 C1603 1.385 1_655 S
C1602 C1604 1.392 . S
C1603 C1602 1.385 1_455 S
C1603 C1607 1.393 1_455 S
C1604 H1593 0.950 . S
C1604 C1602 1.392 . S
C1604 C1605 1.400 . S
C1605 C1599 1.491 . S
C1605 C1604 1.400 . S
C1605 C1606 1.398 . S
C1606 H1594 0.950 . S
C1606 C1605 1.398 . S
C1606 C1607 1.391 . S
C1607 H1595 0.950 . S
C1607 C1603 1.393 1_655 S
C1607 C1606 1.391 . S
H1608 C1616 0.950 . S
H1609 C1621 0.950 . S
H1610 C1618 0.950 . S
H1611 C1620 0.950 . S
H1612 C1622 0.950 . S
H1613 C1624 0.950 . S
H1614 C1626 0.950 . S
H1615 C1627 0.950 . S
C1616 H1608 0.950 . S
C1616 C1617 1.386 . S
C1616 C1618 1.391 . S
C1617 C1616 1.386 . S
C1617 C1621 1.393 . S
C1618 H1610 0.950 . S
C1618 C1616 1.391 . S
C1618 C1619 1.400 . S
C1619 C1618 1.400 . S
C1619 C1620 1.398 . S
C1619 C1625 1.491 . S
C1620 H1611 0.950 . S
C1620 C1619 1.398 . S
C1620 C1621 1.391 . S
C1621 H1609 0.950 . S
C1621 C1617 1.393 . S
C1621 C1620 1.391 . S
C1622 H1612 0.950 . S
C1622 C1623 1.386 . S
C1622 C1624 1.391 . S
C1623 C1622 1.386 . S
C1623 C1627 1.393 . S
C1624 H1613 0.950 . S
C1624 C1622 1.391 . S
C1624 C1625 1.400 . S
C1625 C1619 1.491 . S
C1625 C1624 1.400 . S
C1625 C1626 1.398 . S
C1626 H1614 0.950 . S
C1626 C1625 1.398 . S
C1626 C1627 1.391 . S
C1627 H1615 0.950 . S
C1627 C1623 1.393 . S
C1627 C1626 1.391 . S
H1628 C1636 0.950 . S
H1629 C1641 0.950 . S
H1630 C1638 0.950 . S
H1631 C1640 0.950 . S
H1632 C1642 0.950 . S
H1633 C1644 0.950 . S
H1634 C1646 0.950 1_545 S
H1635 C1647 0.950 . S
C1636 H1628 0.950 . S
C1636 C1637 1.386 . S
C1636 C1638 1.391 . S
C1637 C1636 1.386 . S
C1637 C1641 1.393 . S
C1638 H1630 0.950 . S
C1638 C1636 1.391 . S
C1638 C1639 1.400 . S
C1639 C1638 1.400 . S
C1639 C1640 1.398 . S
C1639 C1645 1.491 . S
C1640 H1631 0.950 . S
C1640 C1639 1.398 . S
C1640 C1641 1.391 . S
C1641 H1629 0.950 . S
C1641 C1637 1.393 . S
C1641 C1640 1.391 . S
C1642 H1632 0.950 . S
C1642 C1643 1.386 1_565 S
C1642 C1644 1.391 . S
C1643 C1642 1.386 1_545 S
C1643 C1647 1.393 . S
C1644 H1633 0.950 . S
C1644 C1642 1.391 . S
C1644 C1645 1.400 . S
C1645 C1639 1.491 . S
C1645 C1644 1.400 . S
C1645 C1646 1.398 . S
C1646 H1634 0.950 1_565 S
C1646 C1645 1.398 . S
C1646 C1647 1.391 1_565 S
C1647 H1635 0.950 . S
C1647 C1643 1.393 . S
C1647 C1646 1.391 1_545 S
H1648 C1656 0.950 . S
H1649 C1661 0.950 . S
H1650 C1658 0.950 . S
H1651 C1660 0.950 . S
H1652 C1662 0.950 . S
H1653 C1664 0.950 . S
H1654 C1666 0.950 . S
H1655 C1667 0.950 . S
C1656 H1648 0.950 . S
C1656 C1657 1.386 . S
C1656 C1658 1.391 . S
C1657 C1656 1.386 . S
C1657 C1661 1.393 1_655 S
C1658 H1650 0.950 . S
C1658 C1656 1.391 . S
C1658 C1659 1.400 1_655 S
C1659 C1658 1.400 1_455 S
C1659 C1660 1.398 . S
C1659 C1665 1.491 . S
C1660 H1651 0.950 . S
C1660 C1659 1.398 . S
C1660 C1661 1.391 . S
C1661 H1649 0.950 . S
C1661 C1657 1.393 1_455 S
C1661 C1660 1.391 . S
C1662 H1652 0.950 . S
C1662 C1663 1.386 . S
C1662 C1664 1.391 . S
C1663 C1662 1.386 . S
C1663 C1667 1.393 . S
C1664 H1653 0.950 . S
C1664 C1662 1.391 . S
C1664 C1665 1.400 . S
C1665 C1659 1.491 . S
C1665 C1664 1.400 . S
C1665 C1666 1.398 . S
C1666 H1654 0.950 . S
C1666 C1665 1.398 . S
C1666 C1667 1.391 . S
C1667 H1655 0.950 . S
C1667 C1663 1.393 . S
C1667 C1666 1.391 . S
H1668 C1676 0.950 . S
H1669 C1681 0.950 . S
H1670 C1678 0.950 . S
H1671 C1680 0.950 . S
H1672 C1682 0.950 . S
H1673 C1684 0.950 . S
H1674 C1686 0.950 . S
H1675 C1687 0.950 . S
C1676 H1668 0.950 . S
C1676 C1677 1.386 . S
C1676 C1678 1.391 . S
C1677 C1676 1.386 . S
C1677 C1681 1.393 . S
C1678 H1670 0.950 . S
C1678 C1676 1.391 . S
C1678 C1679 1.400 . S
C1679 C1678 1.400 . S
C1679 C1680 1.398 . S
C1679 C1685 1.491 . S
C1680 H1671 0.950 . S
C1680 C1679 1.398 . S
C1680 C1681 1.391 . S
C1681 H1669 0.950 . S
C1681 C1677 1.393 . S
C1681 C1680 1.391 . S
C1682 H1672 0.950 . S
C1682 C1683 1.386 . S
C1682 C1684 1.391 . S
C1683 C1682 1.386 . S
C1683 C1687 1.393 . S
C1684 H1673 0.950 . S
C1684 C1682 1.391 . S
C1684 C1685 1.400 . S
C1685 C1679 1.491 . S
C1685 C1684 1.400 . S
C1685 C1686 1.398 . S
C1686 H1674 0.950 . S
C1686 C1685 1.398 . S
C1686 C1687 1.391 . S
C1687 H1675 0.950 . S
C1687 C1683 1.393 . S
C1687 C1686 1.391 . S
H1688 C1696 0.950 . S
H1689 C1701 0.950 . S
H1690 C1698 0.950 . S
H1691 C1700 0.950 . S
H1692 C1702 0.962 . S
H1693 C1704 0.950 . S
H1694 C1706 0.950 . S
H1695 C1707 0.950 . S
C1696 H1688 0.950 . S
C1696 C1697 1.386 . S
C1696 C1698 1.391 . S
C1697 C1696 1.386 . S
C1697 C1701 1.393 . S
C1698 H1690 0.950 . S
C1698 C1696 1.391 . S
C1698 C1699 1.400 . S
C1699 C1698 1.400 . S
C1699 C1700 1.398 . S
C1699 C1705 1.491 . S
C1700 H1691 0.950 . S
C1700 C1699 1.398 . S
C1700 C1701 1.391 . S
C1701 H1689 0.950 . S
C1701 C1697 1.393 . S
C1701 C1700 1.391 . S
C1702 H1692 0.962 . S
C1702 C1703 1.375 . S
C1702 C1704 1.391 1_545 S
C1703 C1702 1.375 . S
C1703 C1707 1.393 1_545 S
C1704 H1693 0.950 . S
C1704 C1702 1.391 1_565 S
C1704 C1705 1.400 . S
C1705 C1699 1.491 . S
C1705 C1704 1.400 . S
C1705 C1706 1.398 . S
C1706 H1694 0.950 . S
C1706 C1705 1.398 . S
C1706 C1707 1.391 . S
C1707 H1695 0.950 . S
C1707 C1703 1.393 1_565 S
C1707 C1706 1.391 . S
H1708 C1716 0.950 . S
H1709 C1721 0.950 . S
H1710 C1718 0.950 . S
H1711 C1720 0.950 . S
H1712 C1722 0.950 . S
H1713 C1724 0.950 . S
H1714 C1726 0.950 1_655 S
H1715 C1727 0.950 . S
C1716 H1708 0.950 . S
C1716 C1717 1.386 . S
C1716 C1718 1.391 . S
C1717 C1716 1.386 . S
C1717 C1721 1.393 . S
C1718 H1710 0.950 . S
C1718 C1716 1.391 . S
C1718 C1719 1.400 . S
C1719 C1718 1.400 . S
C1719 C1720 1.398 . S
C1719 C1725 1.491 . S
C1720 H1711 0.950 . S
C1720 C1719 1.398 . S
C1720 C1721 1.391 . S
C1721 H1709 0.950 . S
C1721 C1717 1.393 . S
C1721 C1720 1.391 . S
C1722 H1712 0.950 . S
C1722 C1723 1.386 1_455 S
C1722 C1724 1.391 . S
C1723 C1722 1.386 1_655 S
C1723 C1727 1.393 . S
C1724 H1713 0.950 . S
C1724 C1722 1.391 . S
C1724 C1725 1.400 . S
C1725 C1719 1.491 . S
C1725 C1724 1.400 . S
C1725 C1726 1.398 . S
C1726 H1714 0.950 1_455 S
C1726 C1725 1.398 . S
C1726 C1727 1.391 1_455 S
C1727 H1715 0.950 . S
C1727 C1723 1.393 . S
C1727 C1726 1.391 1_655 S
H1728 C1736 0.950 . S
H1729 C1741 0.950 . S
H1730 C1738 0.950 . S
H1731 C1740 0.950 . S
H1732 C1742 0.950 . S
H1733 C1744 0.950 . S
H1734 C1746 0.950 . S
H1735 C1747 0.950 . S
C1736 H1728 0.950 . S
C1736 C1737 1.386 . S
C1736 C1738 1.391 . S
C1737 C1736 1.386 . S
C1737 C1741 1.393 . S
C1738 H1730 0.950 . S
C1738 C1736 1.391 . S
C1738 C1739 1.400 . S
C1739 C1738 1.400 . S
C1739 C1740 1.398 . S
C1739 C1745 1.491 . S
C1740 H1731 0.950 . S
C1740 C1739 1.398 . S
C1740 C1741 1.391 . S
C1741 H1729 0.950 . S
C1741 C1737 1.393 . S
C1741 C1740 1.391 . S
C1742 H1732 0.950 . S
C1742 C1743 1.386 . S
C1742 C1744 1.391 . S
C1743 C1742 1.386 . S
C1743 C1747 1.393 . S
C1744 H1733 0.950 . S
C1744 C1742 1.391 . S
C1744 C1745 1.400 . S
C1745 C1739 1.491 . S
C1745 C1744 1.400 . S
C1745 C1746 1.398 . S
C1746 H1734 0.950 . S
C1746 C1745 1.398 . S
C1746 C1747 1.391 . S
C1747 H1735 0.950 . S
C1747 C1743 1.393 . S
C1747 C1746 1.391 . S
H1748 C1756 0.967 . S
H1749 C1761 0.950 . S
H1750 C1758 0.950 . S
H1751 C1760 0.950 . S
H1752 C1762 0.950 . S
H1753 C1764 0.950 . S
H1754 C1766 0.950 . S
H1755 C1767 0.950 . S
C1756 H1748 0.967 . S
C1756 C1757 1.400 . S
C1756 C1758 1.361 1_565 S
C1757 C1756 1.400 . S
C1757 C1761 1.393 1_565 S
C1758 H1750 0.950 . S
C1758 C1756 1.361 1_545 S
C1758 C1759 1.400 . S
C1759 C1758 1.400 . S
C1759 C1760 1.398 . S
C1759 C1765 1.491 . S
C1760 H1751 0.950 . S
C1760 C1759 1.398 . S
C1760 C1761 1.391 . S
C1761 H1749 0.950 . S
C1761 C1757 1.393 1_545 S
C1761 C1760 1.391 . S
C1762 H1752 0.950 . S
C1762 C1763 1.386 . S
C1762 C1764 1.391 . S
C1763 C1762 1.386 . S
C1763 C1767 1.393 . S
C1764 H1753 0.950 . S
C1764 C1762 1.391 . S
C1764 C1765 1.400 . S
C1765 C1759 1.491 . S
C1765 C1764 1.400 . S
C1765 C1766 1.398 . S
C1766 H1754 0.950 . S
C1766 C1765 1.398 . S
C1766 C1767 1.391 . S
C1767 H1755 0.950 . S
C1767 C1763 1.393 . S
C1767 C1766 1.391 . S
H1768 C1776 0.950 . S
H1769 C1781 0.950 . S
H1770 C1778 0.950 . S
H1771 C1780 0.950 1_455 S
H1772 C1782 0.950 . S
H1773 C1784 0.950 . S
H1774 C1786 0.950 . S
H1775 C1787 0.950 . S
C1776 H1768 0.950 . S
C1776 C1777 1.386 1_655 S
C1776 C1778 1.391 . S
C1777 C1776 1.386 1_455 S
C1777 C1781 1.393 . S
C1778 H1770 0.950 . S
C1778 C1776 1.391 . S
C1778 C1779 1.400 . S
C1779 C1778 1.400 . S
C1779 C1780 1.398 . S
C1779 C1785 1.491 . S
C1780 H1771 0.950 1_655 S
C1780 C1779 1.398 . S
C1780 C1781 1.391 1_655 S
C1781 H1769 0.950 . S
C1781 C1777 1.393 . S
C1781 C1780 1.391 1_455 S
C1782 H1772 0.950 . S
C1782 C1783 1.386 . S
C1782 C1784 1.391 . S
C1783 C1782 1.386 . S
C1783 C1787 1.393 . S
C1784 H1773 0.950 . S
C1784 C1782 1.391 . S
C1784 C1785 1.400 . S
C1785 C1779 1.491 . S
C1785 C1784 1.400 . S
C1785 C1786 1.398 . S
C1786 H1774 0.950 . S
C1786 C1785 1.398 . S
C1786 C1787 1.391 . S
C1787 H1775 0.950 . S
C1787 C1783 1.393 . S
C1787 C1786 1.391 . S
H1788 C1796 0.950 . S
H1789 C1801 0.950 . S
H1790 C1798 0.950 . S
H1791 C1800 0.950 . S
H1792 C1802 0.950 . S
H1793 C1804 0.950 . S
H1794 C1806 0.950 . S
H1795 C1807 0.950 . S
C1796 H1788 0.950 . S
C1796 C1797 1.386 . S
C1796 C1798 1.391 . S
C1797 C1796 1.386 . S
C1797 C1801 1.393 . S
C1798 H1790 0.950 . S
C1798 C1796 1.391 . S
C1798 C1799 1.400 . S
C1799 C1798 1.400 . S
C1799 C1800 1.398 . S
C1799 C1805 1.491 1_655 S
C1800 H1791 0.950 . S
C1800 C1799 1.398 . S
C1800 C1801 1.391 . S
C1801 H1789 0.950 . S
C1801 C1797 1.393 . S
C1801 C1800 1.391 . S
C1802 H1792 0.950 . S
C1802 C1803 1.386 . S
C1802 C1804 1.391 . S
C1803 C1802 1.386 . S
C1803 C1807 1.393 . S
C1804 H1793 0.950 . S
C1804 C1802 1.391 . S
C1804 C1805 1.400 . S
C1805 C1799 1.491 1_455 S
C1805 C1804 1.400 . S
C1805 C1806 1.398 . S
C1806 H1794 0.950 . S
C1806 C1805 1.398 . S
C1806 C1807 1.391 . S
C1807 H1795 0.950 . S
C1807 C1803 1.393 . S
C1807 C1806 1.391 . S
H1808 C1816 0.950 . S
H1809 C1821 0.950 . S
H1810 C1818 0.950 . S
H1811 C1820 0.950 . S
H1812 C1822 0.950 . S
H1813 C1824 0.950 . S
H1814 C1826 0.950 . S
H1815 C1827 0.950 . S
C1816 H1808 0.950 . S
C1816 C1817 1.386 . S
C1816 C1818 1.391 . S
C1817 C1816 1.386 . S
C1817 C1821 1.393 . S
C1818 H1810 0.950 . S
C1818 C1816 1.391 . S
C1818 C1819 1.400 . S
C1819 C1818 1.400 . S
C1819 C1820 1.398 . S
C1819 C1825 1.491 . S
C1820 H1811 0.950 . S
C1820 C1819 1.398 . S
C1820 C1821 1.391 . S
C1821 H1809 0.950 . S
C1821 C1817 1.393 . S
C1821 C1820 1.391 . S
C1822 H1812 0.950 . S
C1822 C1823 1.386 . S
C1822 C1824 1.391 . S
C1823 C1822 1.386 . S
C1823 C1827 1.393 . S
C1824 H1813 0.950 . S
C1824 C1822 1.391 . S
C1824 C1825 1.400 . S
C1825 C1819 1.491 . S
C1825 C1824 1.400 . S
C1825 C1826 1.398 . S
C1826 H1814 0.950 . S
C1826 C1825 1.398 . S
C1826 C1827 1.391 . S
C1827 H1815 0.950 . S
C1827 C1823 1.393 . S
C1827 C1826 1.391 . S
H1828 C1836 0.950 . S
H1829 C1841 0.950 . S
H1830 C1838 0.950 . S
H1831 C1840 0.950 . S
H1832 C1842 0.950 . S
H1833 C1844 0.950 . S
H1834 C1846 0.950 . S
H1835 C1847 0.950 . S
C1836 H1828 0.950 . S
C1836 C1837 1.386 . S
C1836 C1838 1.391 . S
C1837 C1836 1.386 . S
C1837 C1841 1.393 . S
C1838 H1830 0.950 . S
C1838 C1836 1.391 . S
C1838 C1839 1.400 . S
C1839 C1838 1.400 . S
C1839 C1840 1.398 . S
C1839 C1845 1.491 1_545 S
C1840 H1831 0.950 . S
C1840 C1839 1.398 . S
C1840 C1841 1.391 . S
C1841 H1829 0.950 . S
C1841 C1837 1.393 . S
C1841 C1840 1.391 . S
C1842 H1832 0.950 . S
C1842 C1843 1.386 . S
C1842 C1844 1.391 . S
C1843 C1842 1.386 . S
C1843 C1847 1.393 . S
C1844 H1833 0.950 . S
C1844 C1842 1.391 . S
C1844 C1845 1.400 . S
C1845 C1839 1.491 1_565 S
C1845 C1844 1.400 . S
C1845 C1846 1.398 . S
C1846 H1834 0.950 . S
C1846 C1845 1.398 . S
C1846 C1847 1.391 . S
C1847 H1835 0.950 . S
C1847 C1843 1.393 . S
C1847 C1846 1.391 . S
H1848 C1856 0.950 . S
H1849 C1861 0.950 . S
H1850 C1858 0.950 . S
H1851 C1860 0.950 . S
H1852 C1862 0.950 . S
H1853 C1864 0.950 . S
H1854 C1866 0.950 . S
H1855 C1867 0.950 . S
C1856 H1848 0.950 . S
C1856 C1857 1.386 . S
C1856 C1858 1.391 . S
C1857 C1856 1.386 . S
C1857 C1861 1.393 . S
C1858 H1850 0.950 . S
C1858 C1856 1.391 . S
C1858 C1859 1.400 . S
C1859 C1858 1.400 . S
C1859 C1860 1.398 . S
C1859 C1865 1.491 1_545 S
C1860 H1851 0.950 . S
C1860 C1859 1.398 . S
C1860 C1861 1.391 . S
C1861 H1849 0.950 . S
C1861 C1857 1.393 . S
C1861 C1860 1.391 . S
C1862 H1852 0.950 . S
C1862 C1863 1.386 . S
C1862 C1864 1.391 . S
C1863 C1862 1.386 . S
C1863 C1867 1.393 . S
C1864 H1853 0.950 . S
C1864 C1862 1.391 . S
C1864 C1865 1.400 . S
C1865 C1859 1.491 1_565 S
C1865 C1864 1.400 . S
C1865 C1866 1.398 . S
C1866 H1854 0.950 . S
C1866 C1865 1.398 . S
C1866 C1867 1.391 . S
C1867 H1855 0.950 . S
C1867 C1863 1.393 . S
C1867 C1866 1.391 . S
H1868 C1876 0.950 . S
H1869 C1881 0.950 . S
H1870 C1878 0.950 . S
H1871 C1880 0.950 . S
H1872 C1882 0.950 . S
H1873 C1884 0.950 . S
H1874 C1886 0.950 . S
H1875 C1887 0.950 . S
C1876 H1868 0.950 . S
C1876 C1877 1.386 . S
C1876 C1878 1.391 . S
C1877 C1876 1.386 . S
C1877 C1881 1.393 . S
C1878 H1870 0.950 . S
C1878 C1876 1.391 . S
C1878 C1879 1.400 . S
C1879 C1878 1.400 . S
C1879 C1880 1.398 . S
C1879 C1885 1.491 1_455 S
C1880 H1871 0.950 . S
C1880 C1879 1.398 . S
C1880 C1881 1.391 . S
C1881 H1869 0.950 . S
C1881 C1877 1.393 . S
C1881 C1880 1.391 . S
C1882 H1872 0.950 . S
C1882 C1883 1.386 . S
C1882 C1884 1.391 . S
C1883 C1882 1.386 . S
C1883 C1887 1.393 . S
C1884 H1873 0.950 . S
C1884 C1882 1.391 . S
C1884 C1885 1.400 . S
C1885 C1879 1.491 1_655 S
C1885 C1884 1.400 . S
C1885 C1886 1.398 . S
C1886 H1874 0.950 . S
C1886 C1885 1.398 . S
C1886 C1887 1.391 . S
C1887 H1875 0.950 . S
C1887 C1883 1.393 . S
C1887 C1886 1.391 . S
H1888 C1896 0.950 . S
H1889 C1901 0.950 . S
H1890 C1898 0.950 . S
H1891 C1900 0.950 . S
H1892 C1902 0.950 . S
H1893 C1904 0.950 . S
H1894 C1906 0.950 . S
H1895 C1907 0.950 . S
C1896 H1888 0.950 . S
C1896 C1897 1.386 . S
C1896 C1898 1.391 . S
C1897 C1896 1.386 . S
C1897 C1901 1.393 . S
C1898 H1890 0.950 . S
C1898 C1896 1.391 . S
C1898 C1899 1.400 . S
C1899 C1898 1.400 . S
C1899 C1900 1.398 . S
C1899 C1905 1.491 . S
C1900 H1891 0.950 . S
C1900 C1899 1.398 . S
C1900 C1901 1.391 . S
C1901 H1889 0.950 . S
C1901 C1897 1.393 . S
C1901 C1900 1.391 . S
C1902 H1892 0.950 . S
C1902 C1903 1.386 . S
C1902 C1904 1.391 . S
C1903 C1902 1.386 . S
C1903 C1907 1.393 . S
C1904 H1893 0.950 . S
C1904 C1902 1.391 . S
C1904 C1905 1.400 . S
C1905 C1899 1.491 . S
C1905 C1904 1.400 . S
C1905 C1906 1.398 . S
C1906 H1894 0.950 . S
C1906 C1905 1.398 . S
C1906 C1907 1.391 . S
C1907 H1895 0.950 . S
C1907 C1903 1.393 . S
C1907 C1906 1.391 . S
H1908 C1916 0.950 . S
H1909 C1921 0.950 . S
H1910 C1918 0.950 . S
H1911 C1920 0.950 . S
H1912 C1922 0.950 . S
H1913 C1924 0.950 . S
H1914 C1926 0.950 . S
H1915 C1927 0.950 . S
C1916 H1908 0.950 . S
C1916 C1917 1.386 . S
C1916 C1918 1.391 . S
C1917 C1916 1.386 . S
C1917 C1921 1.393 . S
C1918 H1910 0.950 . S
C1918 C1916 1.391 . S
C1918 C1919 1.400 . S
C1919 C1918 1.400 . S
C1919 C1920 1.398 . S
C1919 C1925 1.491 . S
C1920 H1911 0.950 . S
C1920 C1919 1.398 . S
C1920 C1921 1.391 . S
C1921 H1909 0.950 . S
C1921 C1917 1.393 . S
C1921 C1920 1.391 . S
C1922 H1912 0.950 . S
C1922 C1923 1.386 . S
C1922 C1924 1.391 . S
C1923 C1922 1.386 . S
C1923 C1927 1.393 . S
C1924 H1913 0.950 . S
C1924 C1922 1.391 . S
C1924 C1925 1.400 . S
C1925 C1919 1.491 . S
C1925 C1924 1.400 . S
C1925 C1926 1.398 . S
C1926 H1914 0.950 . S
C1926 C1925 1.398 . S
C1926 C1927 1.391 . S
C1927 H1915 0.950 . S
C1927 C1923 1.393 . S
C1927 C1926 1.391 . S
H1928 C1936 0.950 . S
H1929 C1941 0.950 . S
H1930 C1938 0.950 . S
H1931 C1940 0.950 . S
H1932 C1942 0.950 . S
H1933 C1944 0.950 . S
H1934 C1946 0.950 . S
H1935 C1947 0.950 . S
C1936 H1928 0.950 . S
C1936 C1937 1.386 . S
C1936 C1938 1.391 . S
C1937 C1936 1.386 . S
C1937 C1941 1.393 . S
C1938 H1930 0.950 . S
C1938 C1936 1.391 . S
C1938 C1939 1.400 . S
C1939 C1938 1.400 . S
C1939 C1940 1.398 . S
C1939 C1945 1.491 . S
C1940 H1931 0.950 . S
C1940 C1939 1.398 . S
C1940 C1941 1.391 . S
C1941 H1929 0.950 . S
C1941 C1937 1.393 . S
C1941 C1940 1.391 . S
C1942 H1932 0.950 . S
C1942 C1943 1.386 . S
C1942 C1944 1.391 . S
C1943 C1942 1.386 . S
C1943 C1947 1.393 . S
C1944 H1933 0.950 . S
C1944 C1942 1.391 . S
C1944 C1945 1.400 . S
C1945 C1939 1.491 . S
C1945 C1944 1.400 . S
C1945 C1946 1.398 . S
C1946 H1934 0.950 . S
C1946 C1945 1.398 . S
C1946 C1947 1.391 . S
C1947 H1935 0.950 . S
C1947 C1943 1.393 . S
C1947 C1946 1.391 . S
H1948 C1956 0.950 . S
H1949 C1961 0.950 . S
H1950 C1958 0.950 . S
H1951 C1960 0.950 . S
H1952 C1962 0.950 . S
H1953 C1964 0.950 . S
H1954 C1966 0.950 . S
H1955 C1967 0.950 . S
C1956 H1948 0.950 . S
C1956 C1957 1.386 . S
C1956 C1958 1.391 . S
C1957 C1956 1.386 . S
C1957 C1961 1.393 . S
C1958 H1950 0.950 . S
C1958 C1956 1.391 . S
C1958 C1959 1.400 . S
C1959 C1958 1.400 . S
C1959 C1960 1.398 . S
C1959 C1965 1.491 . S
C1960 H1951 0.950 . S
C1960 C1959 1.398 . S
C1960 C1961 1.391 . S
C1961 H1949 0.950 . S
C1961 C1957 1.393 . S
C1961 C1960 1.391 . S
C1962 H1952 0.950 . S
C1962 C1963 1.386 . S
C1962 C1964 1.391 . S
C1963 C1962 1.386 . S
C1963 C1967 1.393 . S
C1964 H1953 0.950 . S
C1964 C1962 1.391 . S
C1964 C1965 1.400 . S
C1965 C1959 1.491 . S
C1965 C1964 1.400 . S
C1965 C1966 1.398 . S
C1966 H1954 0.950 . S
C1966 C1965 1.398 . S
C1966 C1967 1.391 . S
C1967 H1955 0.950 . S
C1967 C1963 1.393 . S
C1967 C1966 1.391 . S
H1968 C1976 0.950 . S
H1969 C1981 0.950 . S
H1970 C1978 0.950 . S
H1971 C1980 0.950 . S
H1972 C1982 0.950 . S
H1973 C1984 0.950 . S
H1974 C1986 0.950 . S
H1975 C1987 0.950 . S
C1976 H1968 0.950 . S
C1976 C1977 1.386 . S
C1976 C1978 1.391 . S
C1977 C1976 1.386 . S
C1977 C1981 1.393 . S
C1978 H1970 0.950 . S
C1978 C1976 1.391 . S
C1978 C1979 1.400 . S
C1979 C1978 1.400 . S
C1979 C1980 1.398 . S
C1979 C1985 1.491 . S
C1980 H1971 0.950 . S
C1980 C1979 1.398 . S
C1980 C1981 1.391 . S
C1981 H1969 0.950 . S
C1981 C1977 1.393 . S
C1981 C1980 1.391 . S
C1982 H1972 0.950 . S
C1982 C1983 1.386 . S
C1982 C1984 1.391 . S
C1983 C1982 1.386 . S
C1983 C1987 1.393 . S
C1984 H1973 0.950 . S
C1984 C1982 1.391 . S
C1984 C1985 1.400 . S
C1985 C1979 1.491 . S
C1985 C1984 1.400 . S
C1985 C1986 1.398 . S
C1986 H1974 0.950 . S
C1986 C1985 1.398 . S
C1986 C1987 1.391 . S
C1987 H1975 0.950 . S
C1987 C1983 1.393 . S
C1987 C1986 1.391 . S
H1988 C1996 0.950 . S
H1989 C2001 0.950 . S
H1990 C1998 0.950 . S
H1991 C2000 0.950 . S
H1992 C2002 0.950 . S
H1993 C2004 0.950 . S
H1994 C2006 0.950 . S
H1995 C2007 0.950 . S
C1996 H1988 0.950 . S
C1996 C1997 1.386 . S
C1996 C1998 1.391 . S
C1997 C1996 1.386 . S
C1997 C2001 1.393 . S
C1998 H1990 0.950 . S
C1998 C1996 1.391 . S
C1998 C1999 1.400 . S
C1999 C1998 1.400 . S
C1999 C2000 1.398 . S
C1999 C2005 1.491 . S
C2000 H1991 0.950 . S
C2000 C1999 1.398 . S
C2000 C2001 1.391 . S
C2001 H1989 0.950 . S
C2001 C1997 1.393 . S
C2001 C2000 1.391 . S
C2002 H1992 0.950 . S
C2002 C2003 1.386 . S
C2002 C2004 1.391 . S
C2003 C2002 1.386 . S
C2003 C2007 1.393 . S
C2004 H1993 0.950 . S
C2004 C2002 1.391 . S
C2004 C2005 1.400 . S
C2005 C1999 1.491 . S
C2005 C2004 1.400 . S
C2005 C2006 1.398 . S
C2006 H1994 0.950 . S
C2006 C2005 1.398 . S
C2006 C2007 1.391 . S
C2007 H1995 0.950 . S
C2007 C2003 1.393 . S
C2007 C2006 1.391 . S
H2008 C2016 0.950 . S
H2009 C2021 0.950 . S
H2010 C2018 0.950 . S
H2011 C2020 0.950 . S
H2012 C2022 0.950 . S
H2013 C2024 0.950 . S
H2014 C2026 0.950 . S
H2015 C2027 0.950 . S
C2016 H2008 0.950 . S
C2016 C2017 1.386 . S
C2016 C2018 1.391 . S
C2017 C2016 1.386 . S
C2017 C2021 1.393 . S
C2018 H2010 0.950 . S
C2018 C2016 1.391 . S
C2018 C2019 1.400 . S
C2019 C2018 1.400 . S
C2019 C2020 1.398 . S
C2019 C2025 1.491 . S
C2020 H2011 0.950 . S
C2020 C2019 1.398 . S
C2020 C2021 1.391 . S
C2021 H2009 0.950 . S
C2021 C2017 1.393 . S
C2021 C2020 1.391 . S
C2022 H2012 0.950 . S
C2022 C2023 1.386 . S
C2022 C2024 1.391 . S
C2023 C2022 1.386 . S
C2023 C2027 1.393 . S
C2024 H2013 0.950 . S
C2024 C2022 1.391 . S
C2024 C2025 1.400 . S
C2025 C2019 1.491 . S
C2025 C2024 1.400 . S
C2025 C2026 1.398 . S
C2026 H2014 0.950 . S
C2026 C2025 1.398 . S
C2026 C2027 1.391 . S
C2027 H2015 0.950 . S
C2027 C2023 1.393 . S
C2027 C2026 1.391 . S
H2028 C2036 0.950 . S
H2029 C2041 0.950 . S
H2030 C2038 0.950 . S
H2031 C2040 0.950 . S
H2032 C2042 0.950 . S
H2033 C2044 0.950 . S
H2034 C2046 0.950 . S
H2035 C2047 0.950 . S
C2036 H2028 0.950 . S
C2036 C2037 1.386 . S
C2036 C2038 1.391 . S
C2037 C2036 1.386 . S
C2037 C2041 1.393 . S
C2038 H2030 0.950 . S
C2038 C2036 1.391 . S
C2038 C2039 1.400 . S
C2039 C2038 1.400 . S
C2039 C2040 1.398 . S
C2039 C2045 1.491 . S
C2040 H2031 0.950 . S
C2040 C2039 1.398 . S
C2040 C2041 1.391 . S
C2041 H2029 0.950 . S
C2041 C2037 1.393 . S
C2041 C2040 1.391 . S
C2042 H2032 0.950 . S
C2042 C2043 1.386 . S
C2042 C2044 1.391 . S
C2043 C2042 1.386 . S
C2043 C2047 1.393 . S
C2044 H2033 0.950 . S
C2044 C2042 1.391 . S
C2044 C2045 1.400 . S
C2045 C2039 1.491 . S
C2045 C2044 1.400 . S
C2045 C2046 1.398 . S
C2046 H2034 0.950 . S
C2046 C2045 1.398 . S
C2046 C2047 1.391 . S
C2047 H2035 0.950 . S
C2047 C2043 1.393 . S
C2047 C2046 1.391 . S
H2048 C2056 0.950 . S
H2049 C2061 0.950 . S
H2050 C2058 0.950 . S
H2051 C2060 0.950 . S
H2052 C2062 0.950 . S
H2053 C2064 0.950 . S
H2054 C2066 0.950 . S
H2055 C2067 0.950 . S
C2056 H2048 0.950 . S
C2056 C2057 1.386 . S
C2056 C2058 1.391 . S
C2057 C2056 1.386 . S
C2057 C2061 1.393 . S
C2058 H2050 0.950 . S
C2058 C2056 1.391 . S
C2058 C2059 1.400 . S
C2059 C2058 1.400 . S
C2059 C2060 1.398 . S
C2059 C2065 1.491 . S
C2060 H2051 0.950 . S
C2060 C2059 1.398 . S
C2060 C2061 1.391 . S
C2061 H2049 0.950 . S
C2061 C2057 1.393 . S
C2061 C2060 1.391 . S
C2062 H2052 0.950 . S
C2062 C2063 1.386 . S
C2062 C2064 1.391 . S
C2063 C2062 1.386 . S
C2063 C2067 1.393 . S
C2064 H2053 0.950 . S
C2064 C2062 1.391 . S
C2064 C2065 1.400 . S
C2065 C2059 1.491 . S
C2065 C2064 1.400 . S
C2065 C2066 1.398 . S
C2066 H2054 0.950 . S
C2066 C2065 1.398 . S
C2066 C2067 1.391 . S
C2067 H2055 0.950 . S
C2067 C2063 1.393 . S
C2067 C2066 1.391 . S
H2068 C2076 0.950 . S
H2069 C2081 0.950 . S
H2070 C2078 0.950 . S
H2071 C2080 0.950 . S
H2072 C2082 0.950 . S
H2073 C2084 0.950 . S
H2074 C2086 0.950 . S
H2075 C2087 0.950 . S
C2076 H2068 0.950 . S
C2076 C2077 1.386 . S
C2076 C2078 1.391 . S
C2077 C2076 1.386 . S
C2077 C2081 1.393 . S
C2078 H2070 0.950 . S
C2078 C2076 1.391 . S
C2078 C2079 1.400 . S
C2079 C2078 1.400 . S
C2079 C2080 1.398 . S
C2079 C2085 1.491 . S
C2080 H2071 0.950 . S
C2080 C2079 1.398 . S
C2080 C2081 1.391 . S
C2081 H2069 0.950 . S
C2081 C2077 1.393 . S
C2081 C2080 1.391 . S
C2082 H2072 0.950 . S
C2082 C2083 1.386 . S
C2082 C2084 1.391 . S
C2083 C2082 1.386 . S
C2083 C2087 1.393 . S
C2084 H2073 0.950 . S
C2084 C2082 1.391 . S
C2084 C2085 1.400 . S
C2085 C2079 1.491 . S
C2085 C2084 1.400 . S
C2085 C2086 1.398 . S
C2086 H2074 0.950 . S
C2086 C2085 1.398 . S
C2086 C2087 1.391 . S
C2087 H2075 0.950 . S
C2087 C2083 1.393 . S
C2087 C2086 1.391 . S
H2088 C2096 0.950 . S
H2089 C2101 0.950 . S
H2090 C2098 0.950 . S
H2091 C2100 0.950 . S
H2092 C2102 0.950 . S
H2093 C2104 0.950 . S
H2094 C2106 0.950 . S
H2095 C2107 0.950 . S
C2096 H2088 0.950 . S
C2096 C2097 1.386 . S
C2096 C2098 1.391 . S
C2097 C2096 1.386 . S
C2097 C2101 1.393 . S
C2098 H2090 0.950 . S
C2098 C2096 1.391 . S
C2098 C2099 1.400 . S
C2099 C2098 1.400 . S
C2099 C2100 1.398 . S
C2099 C2105 1.491 . S
C2100 H2091 0.950 . S
C2100 C2099 1.398 . S
C2100 C2101 1.391 . S
C2101 H2089 0.950 . S
C2101 C2097 1.393 . S
C2101 C2100 1.391 . S
C2102 H2092 0.950 . S
C2102 C2103 1.386 . S
C2102 C2104 1.391 . S
C2103 C2102 1.386 . S
C2103 C2107 1.393 . S
C2104 H2093 0.950 . S
C2104 C2102 1.391 . S
C2104 C2105 1.400 . S
C2105 C2099 1.491 . S
C2105 C2104 1.400 . S
C2105 C2106 1.398 . S
C2106 H2094 0.950 . S
C2106 C2105 1.398 . S
C2106 C2107 1.391 . S
C2107 H2095 0.950 . S
C2107 C2103 1.393 . S
C2107 C2106 1.391 . S
H2108 C2116 0.950 . S
H2109 C2121 0.950 . S
H2110 C2118 0.950 . S
H2111 C2120 0.950 . S
H2112 C2122 0.950 . S
H2113 C2124 0.950 . S
H2114 C2126 0.950 . S
H2115 C2127 0.950 . S
C2116 H2108 0.950 . S
C2116 C2117 1.386 . S
C2116 C2118 1.391 . S
C2117 C2116 1.386 . S
C2117 C2121 1.393 . S
C2118 H2110 0.950 . S
C2118 C2116 1.391 . S
C2118 C2119 1.400 . S
C2119 C2118 1.400 . S
C2119 C2120 1.398 . S
C2119 C2125 1.491 . S
C2120 H2111 0.950 . S
C2120 C2119 1.398 . S
C2120 C2121 1.391 . S
C2121 H2109 0.950 . S
C2121 C2117 1.393 . S
C2121 C2120 1.391 . S
C2122 H2112 0.950 . S
C2122 C2123 1.386 . S
C2122 C2124 1.391 . S
C2123 C2122 1.386 . S
C2123 C2127 1.393 . S
C2124 H2113 0.950 . S
C2124 C2122 1.391 . S
C2124 C2125 1.400 . S
C2125 C2119 1.491 . S
C2125 C2124 1.400 . S
C2125 C2126 1.398 . S
C2126 H2114 0.950 . S
C2126 C2125 1.398 . S
C2126 C2127 1.391 . S
C2127 H2115 0.950 . S
C2127 C2123 1.393 . S
C2127 C2126 1.391 . S
H2128 C2136 0.950 . S
H2129 C2141 0.950 . S
H2130 C2138 0.950 . S
H2131 C2140 0.950 . S
H2132 C2142 0.950 . S
H2133 C2144 0.950 . S
H2134 C2146 0.950 . S
H2135 C2147 0.950 . S
C2136 H2128 0.950 . S
C2136 C2137 1.386 . S
C2136 C2138 1.391 . S
C2137 C2136 1.386 . S
C2137 C2141 1.393 . S
C2138 H2130 0.950 . S
C2138 C2136 1.391 . S
C2138 C2139 1.400 . S
C2139 C2138 1.400 . S
C2139 C2140 1.398 . S
C2139 C2145 1.491 . S
C2140 H2131 0.950 . S
C2140 C2139 1.398 . S
C2140 C2141 1.391 . S
C2141 H2129 0.950 . S
C2141 C2137 1.393 . S
C2141 C2140 1.391 . S
C2142 H2132 0.950 . S
C2142 C2143 1.386 . S
C2142 C2144 1.391 . S
C2143 C2142 1.386 . S
C2143 C2147 1.393 . S
C2144 H2133 0.950 . S
C2144 C2142 1.391 . S
C2144 C2145 1.400 . S
C2145 C2139 1.491 . S
C2145 C2144 1.400 . S
C2145 C2146 1.398 . S
C2146 H2134 0.950 . S
C2146 C2145 1.398 . S
C2146 C2147 1.391 . S
C2147 H2135 0.950 . S
C2147 C2143 1.393 . S
C2147 C2146 1.391 . S
H2148 C2156 0.950 . S
H2149 C2161 0.950 . S
H2150 C2158 0.950 . S
H2151 C2160 0.950 . S
H2152 C2162 0.950 . S
H2153 C2164 0.950 . S
H2154 C2166 0.950 . S
H2155 C2167 0.950 . S
C2156 H2148 0.950 . S
C2156 C2157 1.386 . S
C2156 C2158 1.391 . S
C2157 C2156 1.386 . S
C2157 C2161 1.393 . S
C2158 H2150 0.950 . S
C2158 C2156 1.391 . S
C2158 C2159 1.400 . S
C2159 C2158 1.400 . S
C2159 C2160 1.398 . S
C2159 C2165 1.491 1_455 S
C2160 H2151 0.950 . S
C2160 C2159 1.398 . S
C2160 C2161 1.391 . S
C2161 H2149 0.950 . S
C2161 C2157 1.393 . S
C2161 C2160 1.391 . S
C2162 H2152 0.950 . S
C2162 C2163 1.386 . S
C2162 C2164 1.391 . S
C2163 C2162 1.386 . S
C2163 C2167 1.393 . S
C2164 H2153 0.950 . S
C2164 C2162 1.391 . S
C2164 C2165 1.400 . S
C2165 C2159 1.491 1_655 S
C2165 C2164 1.400 . S
C2165 C2166 1.398 . S
C2166 H2154 0.950 . S
C2166 C2165 1.398 . S
C2166 C2167 1.391 . S
C2167 H2155 0.950 . S
C2167 C2163 1.393 . S
C2167 C2166 1.391 . S
H2168 C2176 0.950 . S
H2169 C2181 0.950 . S
H2170 C2178 0.950 . S
H2171 C2180 0.950 . S
H2172 C2182 0.950 . S
H2173 C2184 0.950 . S
H2174 C2186 0.950 . S
H2175 C2187 0.950 . S
C2176 H2168 0.950 . S
C2176 C2177 1.386 . S
C2176 C2178 1.391 . S
C2177 C2176 1.386 . S
C2177 C2181 1.393 . S
C2178 H2170 0.950 . S
C2178 C2176 1.391 . S
C2178 C2179 1.400 . S
C2179 C2178 1.400 . S
C2179 C2180 1.398 . S
C2179 C2185 1.491 . S
C2180 H2171 0.950 . S
C2180 C2179 1.398 . S
C2180 C2181 1.391 . S
C2181 H2169 0.950 . S
C2181 C2177 1.393 . S
C2181 C2180 1.391 . S
C2182 H2172 0.950 . S
C2182 C2183 1.386 . S
C2182 C2184 1.391 . S
C2183 C2182 1.386 . S
C2183 C2187 1.393 . S
C2184 H2173 0.950 . S
C2184 C2182 1.391 . S
C2184 C2185 1.400 . S
C2185 C2179 1.491 . S
C2185 C2184 1.400 . S
C2185 C2186 1.398 . S
C2186 H2174 0.950 . S
C2186 C2185 1.398 . S
C2186 C2187 1.391 . S
C2187 H2175 0.950 . S
C2187 C2183 1.393 . S
C2187 C2186 1.391 . S
H2188 C2196 0.950 . S
H2189 C2201 0.950 . S
H2190 C2198 0.950 . S
H2191 C2200 0.950 . S
H2192 C2202 0.950 . S
H2193 C2204 0.950 . S
H2194 C2206 0.950 . S
H2195 C2207 0.950 . S
C2196 H2188 0.950 . S
C2196 C2197 1.386 . S
C2196 C2198 1.391 1_545 S
C2197 C2196 1.386 . S
C2197 C2201 1.393 . S
C2198 H2190 0.950 . S
C2198 C2196 1.391 1_565 S
C2198 C2199 1.400 1_565 S
C2199 C2198 1.400 1_545 S
C2199 C2200 1.398 . S
C2199 C2205 1.491 1_545 S
C2200 H2191 0.950 . S
C2200 C2199 1.398 . S
C2200 C2201 1.391 . S
C2201 H2189 0.950 . S
C2201 C2197 1.393 . S
C2201 C2200 1.391 . S
C2202 H2192 0.950 . S
C2202 C2203 1.386 . S
C2202 C2204 1.391 1_565 S
C2203 C2202 1.386 . S
C2203 C2207 1.393 . S
C2204 H2193 0.950 . S
C2204 C2202 1.391 1_545 S
C2204 C2205 1.400 1_545 S
C2205 C2199 1.491 1_565 S
C2205 C2204 1.400 1_565 S
C2205 C2206 1.398 . S
C2206 H2194 0.950 . S
C2206 C2205 1.398 . S
C2206 C2207 1.391 . S
C2207 H2195 0.950 . S
C2207 C2203 1.393 . S
C2207 C2206 1.391 . S
H2208 C2216 0.950 . S
H2209 C2221 0.950 . S
H2210 C2218 0.950 1_556 S
H2211 C2220 0.946 . S
H2212 C2222 0.950 . S
H2213 C2224 0.950 1_554 S
H2214 C2226 0.946 . S
H2215 C2227 0.950 . S
C2216 H2208 0.950 . S
C2216 C2217 1.386 . S
C2216 C2218 1.391 . S
C2217 C2216 1.386 . S
C2217 C2221 1.393 . S
C2218 H2210 0.950 1_554 S
C2218 C2216 1.391 . S
C2218 C2219 1.400 . S
C2219 C2218 1.400 . S
C2219 C2220 1.400 1_565 S
C2219 C2225 1.491 1_564 S
C2220 H2211 0.946 . S
C2220 C2219 1.400 1_545 S
C2220 C2221 1.393 1_545 S
C2221 H2209 0.950 . S
C2221 C2217 1.393 . S
C2221 C2220 1.393 1_565 S
C2222 H2212 0.950 . S
C2222 C2223 1.386 . S
C2222 C2224 1.391 . S
C2223 C2222 1.386 . S
C2223 C2227 1.393 . S
C2224 H2213 0.950 1_556 S
C2224 C2222 1.391 . S
C2224 C2225 1.400 . S
C2225 C2219 1.491 1_546 S
C2225 C2224 1.400 . S
C2225 C2226 1.400 1_545 S
C2226 H2214 0.946 . S
C2226 C2225 1.400 1_565 S
C2226 C2227 1.393 1_565 S
C2227 H2215 0.950 . S
C2227 C2223 1.393 . S
C2227 C2226 1.393 1_545 S
H2228 C2236 0.950 1_455 S
H2229 C2241 0.950 . S
H2230 C2238 0.950 . S
H2231 C2240 0.950 . S
H2232 C2242 0.950 1_655 S
H2233 C2244 0.950 . S
H2234 C2246 0.950 . S
H2235 C2247 0.950 . S
C2236 H2228 0.950 1_655 S
C2236 C2237 1.386 . S
C2236 C2238 1.391 1_655 S
C2237 C2236 1.386 . S
C2237 C2241 1.393 . S
C2238 H2230 0.950 . S
C2238 C2236 1.391 1_455 S
C2238 C2239 1.400 1_455 S
C2239 C2238 1.400 1_655 S
C2239 C2240 1.398 . S
C2239 C2245 1.491 1_656 S
C2240 H2231 0.950 . S
C2240 C2239 1.398 . S
C2240 C2241 1.391 . S
C2241 H2229 0.950 . S
C2241 C2237 1.393 . S
C2241 C2240 1.391 . S
C2242 H2232 0.950 1_455 S
C2242 C2243 1.386 . S
C2242 C2244 1.391 1_455 S
C2243 C2242 1.386 . S
C2243 C2247 1.393 . S
C2244 H2233 0.950 . S
C2244 C2242 1.391 1_655 S
C2244 C2245 1.400 1_655 S
C2245 C2239 1.491 1_454 S
C2245 C2244 1.400 1_455 S
C2245 C2246 1.398 . S
C2246 H2234 0.950 . S
C2246 C2245 1.398 . S
C2246 C2247 1.391 . S
C2247 H2235 0.950 . S
C2247 C2243 1.393 . S
C2247 C2246 1.391 . S
H2248 C2256 0.950 . S
H2249 C2261 0.950 . S
H2250 C2258 0.950 . S
H2251 C2260 0.950 . S
H2252 C2262 0.950 . S
H2253 C2264 0.950 . S
H2254 C2266 0.950 . S
H2255 C2267 0.950 . S
C2256 H2248 0.950 . S
C2256 C2257 1.386 . S
C2256 C2258 1.391 . S
C2257 C2256 1.386 . S
C2257 C2261 1.393 . S
C2258 H2250 0.950 . S
C2258 C2256 1.391 . S
C2258 C2259 1.400 . S
C2259 C2258 1.400 . S
C2259 C2260 1.398 . S
C2259 C2265 1.491 1_554 S
C2260 H2251 0.950 . S
C2260 C2259 1.398 . S
C2260 C2261 1.391 . S
C2261 H2249 0.950 . S
C2261 C2257 1.393 . S
C2261 C2260 1.391 . S
C2262 H2252 0.950 . S
C2262 C2263 1.386 . S
C2262 C2264 1.391 . S
C2263 C2262 1.386 . S
C2263 C2267 1.393 . S
C2264 H2253 0.950 . S
C2264 C2262 1.391 . S
C2264 C2265 1.400 . S
C2265 C2259 1.491 1_556 S
C2265 C2264 1.400 . S
C2265 C2266 1.398 . S
C2266 H2254 0.950 . S
C2266 C2265 1.398 . S
C2266 C2267 1.391 . S
C2267 H2255 0.950 . S
C2267 C2263 1.393 . S
C2267 C2266 1.391 . S
H2268 C2276 0.950 . S
H2269 C2281 0.950 . S
H2270 C2278 0.950 . S
H2271 C2280 0.950 . S
H2272 C2282 0.950 1_565 S
H2273 C2284 0.950 . S
H2274 C2286 0.950 1_554 S
H2275 C2287 0.950 . S
C2276 H2268 0.950 . S
C2276 C2277 1.386 . S
C2276 C2278 1.391 . S
C2277 C2276 1.386 . S
C2277 C2281 1.393 1_554 S
C2278 H2270 0.950 . S
C2278 C2276 1.391 . S
C2278 C2279 1.400 1_554 S
C2279 C2278 1.400 1_556 S
C2279 C2280 1.398 . S
C2279 C2285 1.491 . S
C2280 H2271 0.950 . S
C2280 C2279 1.398 . S
C2280 C2281 1.391 . S
C2281 H2269 0.950 . S
C2281 C2277 1.393 1_556 S
C2281 C2280 1.391 . S
C2282 H2272 0.950 1_545 S
C2282 C2283 1.386 1_545 S
C2282 C2284 1.391 . S
C2283 C2282 1.386 1_565 S
C2283 C2287 1.393 . S
C2284 H2273 0.950 . S
C2284 C2282 1.391 . S
C2284 C2285 1.400 . S
C2285 C2279 1.491 . S
C2285 C2284 1.400 . S
C2285 C2286 1.398 . S
C2286 H2274 0.950 1_556 S
C2286 C2285 1.398 . S
C2286 C2287 1.391 1_545 S
C2287 H2275 0.950 . S
C2287 C2283 1.393 . S
C2287 C2286 1.391 1_565 S
H2288 C2296 0.950 . S
H2289 C2301 0.950 . S
H2290 C2298 0.950 . S
H2291 C2300 0.950 . S
H2292 C2302 0.950 . S
H2293 C2304 0.950 1_554 S
H2294 C2306 0.950 . S
H2295 C2307 0.968 . S
C2296 H2288 0.950 . S
C2296 C2297 1.386 1_556 S
C2296 C2298 1.391 . S
C2297 C2296 1.386 1_554 S
C2297 C2301 1.393 . S
C2298 H2290 0.950 . S
C2298 C2296 1.391 . S
C2298 C2299 1.400 . S
C2299 C2298 1.400 . S
C2299 C2300 1.398 1_556 S
C2299 C2305 1.491 . S
C2300 H2291 0.950 . S
C2300 C2299 1.398 1_554 S
C2300 C2301 1.391 . S
C2301 H2289 0.950 . S
C2301 C2297 1.393 . S
C2301 C2300 1.391 . S
C2302 H2292 0.950 . S
C2302 C2303 1.386 . S
C2302 C2304 1.391 1_455 S
C2303 C2302 1.386 . S
C2303 C2307 1.399 . S
C2304 H2293 0.950 1_556 S
C2304 C2302 1.391 1_655 S
C2304 C2305 1.400 . S
C2305 C2299 1.491 . S
C2305 C2304 1.400 . S
C2305 C2306 1.398 . S
C2306 H2294 0.950 . S
C2306 C2305 1.398 . S
C2306 C2307 1.367 1_655 S
C2307 H2295 0.968 . S
C2307 C2303 1.399 . S
C2307 C2306 1.367 1_455 S
H2308 C2316 0.950 1_554 S
H2309 C2321 0.950 . S
H2310 C2318 0.950 . S
H2311 C2320 0.950 . S
H2312 C2322 0.950 . S
H2313 C2324 0.950 . S
H2314 C2326 0.950 . S
H2315 C2327 0.950 . S
C2316 H2308 0.950 1_556 S
C2316 C2317 1.386 . S
C2316 C2318 1.391 1_556 S
C2317 C2316 1.386 . S
C2317 C2321 1.393 . S
C2318 H2310 0.950 . S
C2318 C2316 1.391 1_554 S
C2318 C2319 1.400 1_554 S
C2319 C2318 1.400 1_556 S
C2319 C2320 1.398 . S
C2319 C2325 1.491 . S
C2320 H2311 0.950 . S
C2320 C2319 1.398 . S
C2320 C2321 1.391 . S
C2321 H2309 0.950 . S
C2321 C2317 1.393 . S
C2321 C2320 1.391 . S
C2322 H2312 0.950 . S
C2322 C2323 1.386 1_556 S
C2322 C2324 1.391 . S
C2323 C2322 1.386 1_554 S
C2323 C2327 1.393 . S
C2324 H2313 0.950 . S
C2324 C2322 1.391 . S
C2324 C2325 1.400 . S
C2325 C2319 1.491 . S
C2325 C2324 1.400 . S
C2325 C2326 1.398 1_556 S
C2326 H2314 0.950 . S
C2326 C2325 1.398 1_554 S
C2326 C2327 1.391 . S
C2327 H2315 0.950 . S
C2327 C2323 1.393 . S
C2327 C2326 1.391 . S
H2328 C2336 0.950 . S
H2329 C2341 0.937 1_655 S
H2330 C2338 0.950 . S
H2331 C2340 0.950 . S
H2332 C2342 0.950 . S
H2333 C2344 0.950 . S
H2334 C2346 0.950 . S
H2335 C2347 0.950 . S
C2336 H2328 0.950 . S
C2336 C2337 1.386 . S
C2336 C2338 1.391 1_655 S
C2337 C2336 1.386 . S
C2337 C2341 1.393 1_655 S
C2338 H2330 0.950 . S
C2338 C2336 1.391 1_455 S
C2338 C2339 1.400 . S
C2339 C2338 1.400 . S
C2339 C2340 1.398 . S
C2339 C2345 1.491 . S
C2340 H2331 0.950 . S
C2340 C2339 1.398 . S
C2340 C2341 1.391 . S
C2341 H2329 0.937 1_455 S
C2341 C2337 1.393 1_455 S
C2341 C2340 1.391 . S
C2342 H2332 0.950 . S
C2342 C2343 1.386 . S
C2342 C2344 1.391 . S
C2343 C2342 1.386 . S
C2343 C2347 1.393 . S
C2344 H2333 0.950 . S
C2344 C2342 1.391 . S
C2344 C2345 1.400 . S
C2345 C2339 1.491 . S
C2345 C2344 1.400 . S
C2345 C2346 1.398 . S
C2346 H2334 0.950 . S
C2346 C2345 1.398 . S
C2346 C2347 1.391 . S
C2347 H2335 0.950 . S
C2347 C2343 1.393 . S
C2347 C2346 1.391 . S
H2348 C2356 0.950 . S
H2349 C2361 0.950 . S
H2350 C2358 0.950 . S
H2351 C2360 0.950 . S
H2352 C2362 0.950 . S
H2353 C2364 0.950 . S
H2354 C2366 0.950 . S
H2355 C2367 0.950 . S
C2356 H2348 0.950 . S
C2356 C2357 1.386 . S
C2356 C2358 1.391 . S
C2357 C2356 1.386 . S
C2357 C2361 1.393 . S
C2358 H2350 0.950 . S
C2358 C2356 1.391 . S
C2358 C2359 1.400 . S
C2359 C2358 1.400 . S
C2359 C2360 1.398 . S
C2359 C2365 1.491 . S
C2360 H2351 0.950 . S
C2360 C2359 1.398 . S
C2360 C2361 1.391 . S
C2361 H2349 0.950 . S
C2361 C2357 1.393 . S
C2361 C2360 1.391 . S
C2362 H2352 0.950 . S
C2362 C2363 1.386 . S
C2362 C2364 1.391 . S
C2363 C2362 1.386 . S
C2363 C2367 1.393 . S
C2364 H2353 0.950 . S
C2364 C2362 1.391 . S
C2364 C2365 1.400 . S
C2365 C2359 1.491 . S
C2365 C2364 1.400 . S
C2365 C2366 1.398 . S
C2366 H2354 0.950 . S
C2366 C2365 1.398 . S
C2366 C2367 1.391 . S
C2367 H2355 0.950 . S
C2367 C2363 1.393 . S
C2367 C2366 1.391 . S
H2368 C2376 0.967 . S
H2369 C2381 0.950 . S
H2370 C2378 0.950 . S
H2371 C2380 0.950 . S
H2372 C2382 0.950 . S
H2373 C2384 0.950 . S
H2374 C2386 0.950 . S
H2375 C2387 0.950 . S
C2376 H2368 0.967 . S
C2376 C2377 1.392 . S
C2376 C2378 1.369 1_545 S
C2377 C2376 1.392 . S
C2377 C2381 1.393 . S
C2378 H2370 0.950 . S
C2378 C2376 1.369 1_565 S
C2378 C2379 1.400 . S
C2379 C2378 1.400 . S
C2379 C2380 1.398 . S
C2379 C2385 1.491 . S
C2380 H2371 0.950 . S
C2380 C2379 1.398 . S
C2380 C2381 1.391 1_565 S
C2381 H2369 0.950 . S
C2381 C2377 1.393 . S
C2381 C2380 1.391 1_545 S
C2382 H2372 0.950 . S
C2382 C2383 1.386 . S
C2382 C2384 1.391 . S
C2383 C2382 1.386 . S
C2383 C2387 1.393 . S
C2384 H2373 0.950 . S
C2384 C2382 1.391 . S
C2384 C2385 1.400 . S
C2385 C2379 1.491 . S
C2385 C2384 1.400 . S
C2385 C2386 1.398 . S
C2386 H2374 0.950 . S
C2386 C2385 1.398 . S
C2386 C2387 1.391 . S
C2387 H2375 0.950 . S
C2387 C2383 1.393 . S
C2387 C2386 1.391 . S
H2388 C2396 0.948 1_545 S
H2389 C2401 0.950 1_556 S
H2390 C2398 0.950 . S
H2391 C2400 0.950 . S
H2392 C2402 0.950 . S
H2393 C2404 0.950 . S
H2394 C2406 0.950 . S
H2395 C2407 0.950 . S
C2396 H2388 0.948 1_565 S
C2396 C2397 1.386 1_565 S
C2396 C2398 1.391 . S
C2397 C2396 1.386 1_545 S
C2397 C2401 1.393 . S
C2398 H2390 0.950 . S
C2398 C2396 1.391 . S
C2398 C2399 1.400 . S
C2399 C2398 1.400 . S
C2399 C2400 1.398 1_554 S
C2399 C2405 1.491 . S
C2400 H2391 0.950 . S
C2400 C2399 1.398 1_556 S
C2400 C2401 1.391 1_566 S
C2401 H2389 0.950 1_554 S
C2401 C2397 1.393 . S
C2401 C2400 1.391 1_544 S
C2402 H2392 0.950 . S
C2402 C2403 1.386 . S
C2402 C2404 1.391 . S
C2403 C2402 1.386 . S
C2403 C2407 1.393 1_556 S
C2404 H2393 0.950 . S
C2404 C2402 1.391 . S
C2404 C2405 1.400 1_556 S
C2405 C2399 1.491 . S
C2405 C2404 1.400 1_554 S
C2405 C2406 1.398 . S
C2406 H2394 0.950 . S
C2406 C2405 1.398 . S
C2406 C2407 1.391 . S
C2407 H2395 0.950 . S
C2407 C2403 1.393 1_554 S
C2407 C2406 1.391 . S
H2408 C2416 0.950 . S
H2409 C2421 0.950 . S
H2410 C2418 0.950 . S
H2411 C2420 0.950 . S
H2412 C2422 0.950 . S
H2413 C2424 0.950 . S
H2414 C2426 0.950 . S
H2415 C2427 0.950 . S
C2416 H2408 0.950 . S
C2416 C2417 1.386 . S
C2416 C2418 1.391 1_655 S
C2417 C2416 1.386 . S
C2417 C2421 1.393 . S
C2418 H2410 0.950 . S
C2418 C2416 1.391 1_455 S
C2418 C2419 1.400 . S
C2419 C2418 1.400 . S
C2419 C2420 1.398 . S
C2419 C2425 1.491 . S
C2420 H2411 0.950 . S
C2420 C2419 1.398 . S
C2420 C2421 1.391 1_455 S
C2421 H2409 0.950 . S
C2421 C2417 1.393 . S
C2421 C2420 1.391 1_655 S
C2422 H2412 0.950 . S
C2422 C2423 1.386 . S
C2422 C2424 1.391 1_556 S
C2423 C2422 1.386 . S
C2423 C2427 1.393 . S
C2424 H2413 0.950 . S
C2424 C2422 1.391 1_554 S
C2424 C2425 1.400 . S
C2425 C2419 1.491 . S
C2425 C2424 1.400 . S
C2425 C2426 1.398 1_554 S
C2426 H2414 0.950 . S
C2426 C2425 1.398 1_556 S
C2426 C2427 1.391 . S
C2427 H2415 0.950 . S
C2427 C2423 1.393 . S
C2427 C2426 1.391 . S
H2428 C2436 0.950 . S
H2429 C2441 0.950 . S
H2430 C2438 0.950 . S
H2431 C2440 0.950 1_556 S
H2432 C2442 0.950 . S
H2433 C2444 0.950 . S
H2434 C2446 0.950 . S
H2435 C2447 0.950 . S
C2436 H2428 0.950 . S
C2436 C2437 1.386 . S
C2436 C2438 1.391 . S
C2437 C2436 1.386 . S
C2437 C2441 1.393 . S
C2438 H2430 0.950 . S
C2438 C2436 1.391 . S
C2438 C2439 1.400 . S
C2439 C2438 1.400 . S
C2439 C2440 1.398 . S
C2439 C2445 1.491 . S
C2440 H2431 0.950 1_554 S
C2440 C2439 1.398 . S
C2440 C2441 1.391 . S
C2441 H2429 0.950 . S
C2441 C2437 1.393 . S
C2441 C2440 1.391 . S
C2442 H2432 0.950 . S
C2442 C2443 1.386 . S
C2442 C2444 1.391 . S
C2443 C2442 1.386 . S
C2443 C2447 1.393 1_556 S
C2444 H2433 0.950 . S
C2444 C2442 1.391 . S
C2444 C2445 1.400 1_556 S
C2445 C2439 1.491 . S
C2445 C2444 1.400 1_554 S
C2445 C2446 1.398 . S
C2446 H2434 0.950 . S
C2446 C2445 1.398 . S
C2446 C2447 1.391 . S
C2447 H2435 0.950 . S
C2447 C2443 1.393 1_554 S
C2447 C2446 1.391 . S
H2448 C2456 0.950 . S
H2449 C2461 0.950 . S
H2450 C2458 0.950 . S
H2451 C2460 0.950 . S
H2452 C2462 0.950 . S
H2453 C2464 0.950 . S
H2454 C2466 0.950 . S
H2455 C2467 0.948 1_455 S
C2456 H2448 0.950 . S
C2456 C2457 1.386 . S
C2456 C2458 1.391 . S
C2457 C2456 1.386 . S
C2457 C2461 1.393 . S
C2458 H2450 0.950 . S
C2458 C2456 1.391 . S
C2458 C2459 1.400 . S
C2459 C2458 1.400 . S
C2459 C2460 1.398 . S
C2459 C2465 1.491 . S
C2460 H2451 0.950 . S
C2460 C2459 1.398 . S
C2460 C2461 1.391 . S
C2461 H2449 0.950 . S
C2461 C2457 1.393 . S
C2461 C2460 1.391 . S
C2462 H2452 0.950 . S
C2462 C2463 1.386 . S
C2462 C2464 1.391 1_455 S
C2463 C2462 1.386 . S
C2463 C2467 1.392 1_455 S
C2464 H2453 0.950 . S
C2464 C2462 1.391 1_655 S
C2464 C2465 1.400 . S
C2465 C2459 1.491 . S
C2465 C2464 1.400 . S
C2465 C2466 1.398 . S
C2466 H2454 0.950 . S
C2466 C2465 1.398 . S
C2466 C2467 1.393 . S
C2467 H2455 0.948 1_655 S
C2467 C2463 1.392 1_655 S
C2467 C2466 1.393 . S
H2468 C2476 0.950 . S
H2469 C2481 0.950 . S
H2470 C2478 0.950 . S
H2471 C2480 0.950 . S
H2472 C2482 0.950 . S
H2473 C2484 0.950 . S
H2474 C2486 0.950 . S
H2475 C2487 0.950 . S
C2476 H2468 0.950 . S
C2476 C2477 1.386 . S
C2476 C2478 1.391 . S
C2477 C2476 1.386 . S
C2477 C2481 1.393 . S
C2478 H2470 0.950 . S
C2478 C2476 1.391 . S
C2478 C2479 1.400 . S
C2479 C2478 1.400 . S
C2479 C2480 1.398 . S
C2479 C2485 1.491 . S
C2480 H2471 0.950 . S
C2480 C2479 1.398 . S
C2480 C2481 1.391 . S
C2481 H2469 0.950 . S
C2481 C2477 1.393 . S
C2481 C2480 1.391 . S
C2482 H2472 0.950 . S
C2482 C2483 1.386 . S
C2482 C2484 1.391 . S
C2483 C2482 1.386 . S
C2483 C2487 1.393 . S
C2484 H2473 0.950 . S
C2484 C2482 1.391 . S
C2484 C2485 1.400 . S
C2485 C2479 1.491 . S
C2485 C2484 1.400 . S
C2485 C2486 1.398 . S
C2486 H2474 0.950 . S
C2486 C2485 1.398 . S
C2486 C2487 1.391 . S
C2487 H2475 0.950 . S
C2487 C2483 1.393 . S
C2487 C2486 1.391 . S
H2488 C2496 0.950 1_565 S
H2489 C2501 0.950 . S
H2490 C2498 0.950 . S
H2491 C2500 0.950 . S
H2492 C2502 0.950 . S
H2493 C2504 0.950 . S
H2494 C2506 0.950 . S
H2495 C2507 0.950 . S
C2496 H2488 0.950 1_545 S
C2496 C2497 1.386 1_545 S
C2496 C2498 1.391 . S
C2497 C2496 1.386 1_565 S
C2497 C2501 1.393 . S
C2498 H2490 0.950 . S
C2498 C2496 1.391 . S
C2498 C2499 1.400 . S
C2499 C2498 1.400 . S
C2499 C2500 1.398 . S
C2499 C2505 1.491 . S
C2500 H2491 0.950 . S
C2500 C2499 1.398 . S
C2500 C2501 1.391 1_545 S
C2501 H2489 0.950 . S
C2501 C2497 1.393 . S
C2501 C2500 1.391 1_565 S
C2502 H2492 0.950 . S
C2502 C2503 1.386 . S
C2502 C2504 1.391 . S
C2503 C2502 1.386 . S
C2503 C2507 1.393 . S
C2504 H2493 0.950 . S
C2504 C2502 1.391 . S
C2504 C2505 1.400 . S
C2505 C2499 1.491 . S
C2505 C2504 1.400 . S
C2505 C2506 1.398 . S
C2506 H2494 0.950 . S
C2506 C2505 1.398 . S
C2506 C2507 1.391 . S
C2507 H2495 0.950 . S
C2507 C2503 1.393 . S
C2507 C2506 1.391 . S
H2508 C2516 0.950 . S
H2509 C2521 0.950 . S
H2510 C2518 0.950 . S
H2511 C2520 0.950 . S
H2512 C2522 0.950 . S
H2513 C2524 0.950 . S
H2514 C2526 0.950 . S
H2515 C2527 0.950 . S
C2516 H2508 0.950 . S
C2516 C2517 1.386 . S
C2516 C2518 1.391 . S
C2517 C2516 1.386 . S
C2517 C2521 1.393 . S
C2518 H2510 0.950 . S
C2518 C2516 1.391 . S
C2518 C2519 1.400 . S
C2519 C2518 1.400 . S
C2519 C2520 1.398 . S
C2519 C2525 1.491 . S
C2520 H2511 0.950 . S
C2520 C2519 1.398 . S
C2520 C2521 1.391 . S
C2521 H2509 0.950 . S
C2521 C2517 1.393 . S
C2521 C2520 1.391 . S
C2522 H2512 0.950 . S
C2522 C2523 1.386 . S
C2522 C2524 1.391 . S
C2523 C2522 1.386 . S
C2523 C2527 1.393 . S
C2524 H2513 0.950 . S
C2524 C2522 1.391 . S
C2524 C2525 1.400 . S
C2525 C2519 1.491 . S
C2525 C2524 1.400 . S
C2525 C2526 1.398 . S
C2526 H2514 0.950 . S
C2526 C2525 1.398 . S
C2526 C2527 1.391 . S
C2527 H2515 0.950 . S
C2527 C2523 1.393 . S
C2527 C2526 1.391 . S
H2528 C2536 0.950 . S
H2529 C2541 0.950 . S
H2530 C2538 0.950 . S
H2531 C2540 0.950 . S
H2532 C2542 0.950 . S
H2533 C2544 0.950 . S
H2534 C2546 0.950 . S
H2535 C2547 0.950 . S
C2536 H2528 0.950 . S
C2536 C2537 1.386 . S
C2536 C2538 1.391 . S
C2537 C2536 1.386 . S
C2537 C2541 1.393 . S
C2538 H2530 0.950 . S
C2538 C2536 1.391 . S
C2538 C2539 1.400 . S
C2539 C2538 1.400 . S
C2539 C2540 1.398 . S
C2539 C2545 1.491 . S
C2540 H2531 0.950 . S
C2540 C2539 1.398 . S
C2540 C2541 1.391 . S
C2541 H2529 0.950 . S
C2541 C2537 1.393 . S
C2541 C2540 1.391 . S
C2542 H2532 0.950 . S
C2542 C2543 1.386 . S
C2542 C2544 1.391 . S
C2543 C2542 1.386 . S
C2543 C2547 1.393 . S
C2544 H2533 0.950 . S
C2544 C2542 1.391 . S
C2544 C2545 1.400 . S
C2545 C2539 1.491 . S
C2545 C2544 1.400 . S
C2545 C2546 1.398 . S
C2546 H2534 0.950 . S
C2546 C2545 1.398 . S
C2546 C2547 1.391 . S
C2547 H2535 0.950 . S
C2547 C2543 1.393 . S
C2547 C2546 1.391 . S
H2548 C2556 0.950 . S
H2549 C2561 0.950 . S
H2550 C2558 0.950 . S
H2551 C2560 0.950 . S
H2552 C2562 0.950 . S
H2553 C2564 0.950 . S
H2554 C2566 0.950 . S
H2555 C2567 0.950 . S
C2556 H2548 0.950 . S
C2556 C2557 1.386 . S
C2556 C2558 1.391 . S
C2557 C2556 1.386 . S
C2557 C2561 1.393 . S
C2558 H2550 0.950 . S
C2558 C2556 1.391 . S
C2558 C2559 1.400 . S
C2559 C2558 1.400 . S
C2559 C2560 1.398 . S
C2559 C2565 1.491 . S
C2560 H2551 0.950 . S
C2560 C2559 1.398 . S
C2560 C2561 1.391 . S
C2561 H2549 0.950 . S
C2561 C2557 1.393 . S
C2561 C2560 1.391 . S
C2562 H2552 0.950 . S
C2562 C2563 1.386 . S
C2562 C2564 1.391 . S
C2563 C2562 1.386 . S
C2563 C2567 1.393 . S
C2564 H2553 0.950 . S
C2564 C2562 1.391 . S
C2564 C2565 1.400 . S
C2565 C2559 1.491 . S
C2565 C2564 1.400 . S
C2565 C2566 1.398 . S
C2566 H2554 0.950 . S
C2566 C2565 1.398 . S
C2566 C2567 1.391 . S
C2567 H2555 0.950 . S
C2567 C2563 1.393 . S
C2567 C2566 1.391 . S
H2568 C2576 0.950 . S
H2569 C2581 0.950 . S
H2570 C2578 0.950 . S
H2571 C2580 0.950 . S
H2572 C2582 0.950 . S
H2573 C2584 0.950 . S
H2574 C2586 0.950 . S
H2575 C2587 0.950 . S
C2576 H2568 0.950 . S
C2576 C2577 1.386 . S
C2576 C2578 1.391 . S
C2577 C2576 1.386 . S
C2577 C2581 1.393 . S
C2578 H2570 0.950 . S
C2578 C2576 1.391 . S
C2578 C2579 1.400 . S
C2579 C2578 1.400 . S
C2579 C2580 1.398 . S
C2579 C2585 1.491 . S
C2580 H2571 0.950 . S
C2580 C2579 1.398 . S
C2580 C2581 1.391 . S
C2581 H2569 0.950 . S
C2581 C2577 1.393 . S
C2581 C2580 1.391 . S
C2582 H2572 0.950 . S
C2582 C2583 1.386 . S
C2582 C2584 1.391 . S
C2583 C2582 1.386 . S
C2583 C2587 1.393 . S
C2584 H2573 0.950 . S
C2584 C2582 1.391 . S
C2584 C2585 1.400 . S
C2585 C2579 1.491 . S
C2585 C2584 1.400 . S
C2585 C2586 1.398 . S
C2586 H2574 0.950 . S
C2586 C2585 1.398 . S
C2586 C2587 1.391 . S
C2587 H2575 0.950 . S
C2587 C2583 1.393 . S
C2587 C2586 1.391 . S
H2588 C2596 0.950 . S
H2589 C2601 0.950 . S
H2590 C2598 0.950 . S
H2591 C2600 0.950 . S
H2592 C2602 0.950 . S
H2593 C2604 0.950 . S
H2594 C2606 0.950 . S
H2595 C2607 0.950 . S
C2596 H2588 0.950 . S
C2596 C2597 1.386 . S
C2596 C2598 1.391 . S
C2597 C2596 1.386 . S
C2597 C2601 1.393 . S
C2598 H2590 0.950 . S
C2598 C2596 1.391 . S
C2598 C2599 1.400 . S
C2599 C2598 1.400 . S
C2599 C2600 1.398 . S
C2599 C2605 1.491 . S
C2600 H2591 0.950 . S
C2600 C2599 1.398 . S
C2600 C2601 1.391 . S
C2601 H2589 0.950 . S
C2601 C2597 1.393 . S
C2601 C2600 1.391 . S
C2602 H2592 0.950 . S
C2602 C2603 1.386 . S
C2602 C2604 1.391 . S
C2603 C2602 1.386 . S
C2603 C2607 1.393 . S
C2604 H2593 0.950 . S
C2604 C2602 1.391 . S
C2604 C2605 1.400 . S
C2605 C2599 1.491 . S
C2605 C2604 1.400 . S
C2605 C2606 1.398 . S
C2606 H2594 0.950 . S
C2606 C2605 1.398 . S
C2606 C2607 1.391 . S
C2607 H2595 0.950 . S
C2607 C2603 1.393 . S
C2607 C2606 1.391 . S
H2608 C2616 0.950 . S
H2609 C2621 0.950 . S
H2610 C2618 0.950 . S
H2611 C2620 0.950 . S
H2612 C2622 0.950 . S
H2613 C2624 0.950 . S
H2614 C2626 0.950 . S
H2615 C2627 0.950 . S
C2616 H2608 0.950 . S
C2616 C2617 1.386 . S
C2616 C2618 1.391 . S
C2617 C2616 1.386 . S
C2617 C2621 1.393 . S
C2618 H2610 0.950 . S
C2618 C2616 1.391 . S
C2618 C2619 1.400 . S
C2619 C2618 1.400 . S
C2619 C2620 1.398 . S
C2619 C2625 1.491 . S
C2620 H2611 0.950 . S
C2620 C2619 1.398 . S
C2620 C2621 1.391 . S
C2621 H2609 0.950 . S
C2621 C2617 1.393 . S
C2621 C2620 1.391 . S
C2622 H2612 0.950 . S
C2622 C2623 1.386 . S
C2622 C2624 1.391 . S
C2623 C2622 1.386 . S
C2623 C2627 1.393 . S
C2624 H2613 0.950 . S
C2624 C2622 1.391 . S
C2624 C2625 1.400 . S
C2625 C2619 1.491 . S
C2625 C2624 1.400 . S
C2625 C2626 1.398 . S
C2626 H2614 0.950 . S
C2626 C2625 1.398 . S
C2626 C2627 1.391 . S
C2627 H2615 0.950 . S
C2627 C2623 1.393 . S
C2627 C2626 1.391 . S
H2628 C2636 0.950 . S
H2629 C2641 0.950 . S
H2630 C2638 0.950 . S
H2631 C2640 0.950 . S
H2632 C2642 0.950 . S
H2633 C2644 0.950 . S
H2634 C2646 0.950 . S
H2635 C2647 0.950 . S
C2636 H2628 0.950 . S
C2636 C2637 1.386 . S
C2636 C2638 1.391 . S
C2637 C2636 1.386 . S
C2637 C2641 1.393 . S
C2638 H2630 0.950 . S
C2638 C2636 1.391 . S
C2638 C2639 1.400 . S
C2639 C2638 1.400 . S
C2639 C2640 1.398 . S
C2639 C2645 1.491 . S
C2640 H2631 0.950 . S
C2640 C2639 1.398 . S
C2640 C2641 1.391 . S
C2641 H2629 0.950 . S
C2641 C2637 1.393 . S
C2641 C2640 1.391 . S
C2642 H2632 0.950 . S
C2642 C2643 1.386 . S
C2642 C2644 1.391 . S
C2643 C2642 1.386 . S
C2643 C2647 1.393 . S
C2644 H2633 0.950 . S
C2644 C2642 1.391 . S
C2644 C2645 1.400 . S
C2645 C2639 1.491 . S
C2645 C2644 1.400 . S
C2645 C2646 1.398 . S
C2646 H2634 0.950 . S
C2646 C2645 1.398 . S
C2646 C2647 1.391 . S
C2647 H2635 0.950 . S
C2647 C2643 1.393 . S
C2647 C2646 1.391 . S
H2648 C2656 0.950 . S
H2649 C2661 0.950 . S
H2650 C2658 0.950 . S
H2651 C2660 0.950 . S
H2652 C2662 0.950 . S
H2653 C2664 0.950 . S
H2654 C2666 0.950 . S
H2655 C2667 0.950 . S
C2656 H2648 0.950 . S
C2656 C2657 1.386 . S
C2656 C2658 1.391 . S
C2657 C2656 1.386 . S
C2657 C2661 1.393 . S
C2658 H2650 0.950 . S
C2658 C2656 1.391 . S
C2658 C2659 1.400 . S
C2659 C2658 1.400 . S
C2659 C2660 1.398 . S
C2659 C2665 1.491 . S
C2660 H2651 0.950 . S
C2660 C2659 1.398 . S
C2660 C2661 1.391 . S
C2661 H2649 0.950 . S
C2661 C2657 1.393 . S
C2661 C2660 1.391 . S
C2662 H2652 0.950 . S
C2662 C2663 1.386 . S
C2662 C2664 1.391 . S
C2663 C2662 1.386 . S
C2663 C2667 1.393 . S
C2664 H2653 0.950 . S
C2664 C2662 1.391 . S
C2664 C2665 1.400 . S
C2665 C2659 1.491 . S
C2665 C2664 1.400 . S
C2665 C2666 1.398 . S
C2666 H2654 0.950 . S
C2666 C2665 1.398 . S
C2666 C2667 1.391 . S
C2667 H2655 0.950 . S
C2667 C2663 1.393 . S
C2667 C2666 1.391 . S
H2668 C2676 0.950 . S
H2669 C2681 0.950 . S
H2670 C2678 0.950 . S
H2671 C2680 0.950 . S
H2672 C2682 0.950 . S
H2673 C2684 0.950 . S
H2674 C2686 0.950 . S
H2675 C2687 0.950 . S
C2676 H2668 0.950 . S
C2676 C2677 1.386 . S
C2676 C2678 1.391 . S
C2677 C2676 1.386 . S
C2677 C2681 1.393 . S
C2678 H2670 0.950 . S
C2678 C2676 1.391 . S
C2678 C2679 1.400 . S
C2679 C2678 1.400 . S
C2679 C2680 1.398 . S
C2679 C2685 1.491 . S
C2680 H2671 0.950 . S
C2680 C2679 1.398 . S
C2680 C2681 1.391 . S
C2681 H2669 0.950 . S
C2681 C2677 1.393 . S
C2681 C2680 1.391 . S
C2682 H2672 0.950 . S
C2682 C2683 1.386 . S
C2682 C2684 1.391 . S
C2683 C2682 1.386 . S
C2683 C2687 1.393 . S
C2684 H2673 0.950 . S
C2684 C2682 1.391 . S
C2684 C2685 1.400 . S
C2685 C2679 1.491 . S
C2685 C2684 1.400 . S
C2685 C2686 1.398 . S
C2686 H2674 0.950 . S
C2686 C2685 1.398 . S
C2686 C2687 1.391 . S
C2687 H2675 0.950 . S
C2687 C2683 1.393 . S
C2687 C2686 1.391 . S
H2688 C2696 0.950 . S
H2689 C2701 0.950 . S
H2690 C2698 0.950 . S
H2691 C2700 0.950 . S
H2692 C2702 0.950 . S
H2693 C2704 0.950 . S
H2694 C2706 0.950 . S
H2695 C2707 0.950 . S
C2696 H2688 0.950 . S
C2696 C2697 1.386 . S
C2696 C2698 1.391 . S
C2697 C2696 1.386 . S
C2697 C2701 1.393 . S
C2698 H2690 0.950 . S
C2698 C2696 1.391 . S
C2698 C2699 1.400 . S
C2699 C2698 1.400 . S
C2699 C2700 1.398 . S
C2699 C2705 1.491 . S
C2700 H2691 0.950 . S
C2700 C2699 1.398 . S
C2700 C2701 1.391 . S
C2701 H2689 0.950 . S
C2701 C2697 1.393 . S
C2701 C2700 1.391 . S
C2702 H2692 0.950 . S
C2702 C2703 1.386 . S
C2702 C2704 1.391 . S
C2703 C2702 1.386 . S
C2703 C2707 1.393 . S
C2704 H2693 0.950 . S
C2704 C2702 1.391 . S
C2704 C2705 1.400 . S
C2705 C2699 1.491 . S
C2705 C2704 1.400 . S
C2705 C2706 1.398 . S
C2706 H2694 0.950 . S
C2706 C2705 1.398 . S
C2706 C2707 1.391 . S
C2707 H2695 0.950 . S
C2707 C2703 1.393 . S
C2707 C2706 1.391 . S
H2708 C2716 0.950 . S
H2709 C2721 0.950 . S
H2710 C2718 0.950 . S
H2711 C2720 0.950 . S
H2712 C2722 0.950 . S
H2713 C2724 0.950 . S
H2714 C2726 0.950 . S
H2715 C2727 0.950 . S
C2716 H2708 0.950 . S
C2716 C2717 1.386 . S
C2716 C2718 1.391 . S
C2717 C2716 1.386 . S
C2717 C2721 1.393 . S
C2718 H2710 0.950 . S
C2718 C2716 1.391 . S
C2718 C2719 1.400 . S
C2719 C2718 1.400 . S
C2719 C2720 1.398 . S
C2719 C2725 1.491 . S
C2720 H2711 0.950 . S
C2720 C2719 1.398 . S
C2720 C2721 1.391 . S
C2721 H2709 0.950 . S
C2721 C2717 1.393 . S
C2721 C2720 1.391 . S
C2722 H2712 0.950 . S
C2722 C2723 1.386 . S
C2722 C2724 1.391 . S
C2723 C2722 1.386 . S
C2723 C2727 1.393 . S
C2724 H2713 0.950 . S
C2724 C2722 1.391 . S
C2724 C2725 1.400 . S
C2725 C2719 1.491 . S
C2725 C2724 1.400 . S
C2725 C2726 1.398 . S
C2726 H2714 0.950 . S
C2726 C2725 1.398 . S
C2726 C2727 1.391 . S
C2727 H2715 0.950 . S
C2727 C2723 1.393 . S
C2727 C2726 1.391 . S
H2728 C2736 0.950 . S
H2729 C2741 0.950 . S
H2730 C2738 0.950 . S
H2731 C2740 0.950 . S
H2732 C2742 0.950 . S
H2733 C2744 0.950 . S
H2734 C2746 0.950 . S
H2735 C2747 0.950 . S
C2736 H2728 0.950 . S
C2736 C2737 1.386 . S
C2736 C2738 1.391 . S
C2737 C2736 1.386 . S
C2737 C2741 1.393 . S
C2738 H2730 0.950 . S
C2738 C2736 1.391 . S
C2738 C2739 1.400 . S
C2739 C2738 1.400 . S
C2739 C2740 1.398 . S
C2739 C2745 1.491 . S
C2740 H2731 0.950 . S
C2740 C2739 1.398 . S
C2740 C2741 1.391 . S
C2741 H2729 0.950 . S
C2741 C2737 1.393 . S
C2741 C2740 1.391 . S
C2742 H2732 0.950 . S
C2742 C2743 1.386 . S
C2742 C2744 1.391 . S
C2743 C2742 1.386 . S
C2743 C2747 1.393 . S
C2744 H2733 0.950 . S
C2744 C2742 1.391 . S
C2744 C2745 1.400 . S
C2745 C2739 1.491 . S
C2745 C2744 1.400 . S
C2745 C2746 1.398 . S
C2746 H2734 0.950 . S
C2746 C2745 1.398 . S
C2746 C2747 1.391 . S
C2747 H2735 0.950 . S
C2747 C2743 1.393 . S
C2747 C2746 1.391 . S
H2748 C2756 0.950 . S
H2749 C2761 0.950 . S
H2750 C2758 0.950 . S
H2751 C2760 0.950 . S
H2752 C2762 0.950 . S
H2753 C2764 0.950 . S
H2754 C2766 0.950 . S
H2755 C2767 0.950 . S
C2756 H2748 0.950 . S
C2756 C2757 1.386 . S
C2756 C2758 1.391 . S
C2757 C2756 1.386 . S
C2757 C2761 1.393 . S
C2758 H2750 0.950 . S
C2758 C2756 1.391 . S
C2758 C2759 1.400 . S
C2759 C2758 1.400 . S
C2759 C2760 1.398 . S
C2759 C2765 1.491 . S
C2760 H2751 0.950 . S
C2760 C2759 1.398 . S
C2760 C2761 1.391 . S
C2761 H2749 0.950 . S
C2761 C2757 1.393 . S
C2761 C2760 1.391 . S
C2762 H2752 0.950 . S
C2762 C2763 1.386 . S
C2762 C2764 1.391 . S
C2763 C2762 1.386 . S
C2763 C2767 1.393 . S
C2764 H2753 0.950 . S
C2764 C2762 1.391 . S
C2764 C2765 1.400 . S
C2765 C2759 1.491 . S
C2765 C2764 1.400 . S
C2765 C2766 1.398 . S
C2766 H2754 0.950 . S
C2766 C2765 1.398 . S
C2766 C2767 1.391 . S
C2767 H2755 0.950 . S
C2767 C2763 1.393 . S
C2767 C2766 1.391 . S
H2768 C2776 0.950 . S
H2769 C2781 0.950 . S
H2770 C2778 0.950 . S
H2771 C2780 0.950 . S
H2772 C2782 0.950 . S
H2773 C2784 0.950 . S
H2774 C2786 0.950 . S
H2775 C2787 0.950 . S
C2776 H2768 0.950 . S
C2776 C2777 1.386 . S
C2776 C2778 1.391 . S
C2777 C2776 1.386 . S
C2777 C2781 1.393 . S
C2778 H2770 0.950 . S
C2778 C2776 1.391 . S
C2778 C2779 1.400 . S
C2779 C2778 1.400 . S
C2779 C2780 1.398 . S
C2779 C2785 1.491 . S
C2780 H2771 0.950 . S
C2780 C2779 1.398 . S
C2780 C2781 1.391 . S
C2781 H2769 0.950 . S
C2781 C2777 1.393 . S
C2781 C2780 1.391 . S
C2782 H2772 0.950 . S
C2782 C2783 1.386 . S
C2782 C2784 1.391 . S
C2783 C2782 1.386 . S
C2783 C2787 1.393 . S
C2784 H2773 0.950 . S
C2784 C2782 1.391 . S
C2784 C2785 1.400 . S
C2785 C2779 1.491 . S
C2785 C2784 1.400 . S
C2785 C2786 1.398 . S
C2786 H2774 0.950 . S
C2786 C2785 1.398 . S
C2786 C2787 1.391 . S
C2787 H2775 0.950 . S
C2787 C2783 1.393 . S
C2787 C2786 1.391 . S
H2788 C2796 0.950 . S
H2789 C2801 0.950 . S
H2790 C2798 0.950 . S
H2791 C2800 0.950 . S
H2792 C2802 0.950 . S
H2793 C2804 0.950 . S
H2794 C2806 0.950 . S
H2795 C2807 0.950 . S
C2796 H2788 0.950 . S
C2796 C2797 1.386 . S
C2796 C2798 1.391 . S
C2797 C2796 1.386 . S
C2797 C2801 1.393 . S
C2798 H2790 0.950 . S
C2798 C2796 1.391 . S
C2798 C2799 1.400 . S
C2799 C2798 1.400 . S
C2799 C2800 1.398 . S
C2799 C2805 1.491 . S
C2800 H2791 0.950 . S
C2800 C2799 1.398 . S
C2800 C2801 1.391 . S
C2801 H2789 0.950 . S
C2801 C2797 1.393 . S
C2801 C2800 1.391 . S
C2802 H2792 0.950 . S
C2802 C2803 1.386 . S
C2802 C2804 1.391 . S
C2803 C2802 1.386 . S
C2803 C2807 1.393 . S
C2804 H2793 0.950 . S
C2804 C2802 1.391 . S
C2804 C2805 1.400 . S
C2805 C2799 1.491 . S
C2805 C2804 1.400 . S
C2805 C2806 1.398 . S
C2806 H2794 0.950 . S
C2806 C2805 1.398 . S
C2806 C2807 1.391 . S
C2807 H2795 0.950 . S
C2807 C2803 1.393 . S
C2807 C2806 1.391 . S
H2808 C2816 0.950 . S
H2809 C2821 0.950 . S
H2810 C2818 0.950 . S
H2811 C2820 0.950 . S
H2812 C2822 0.950 . S
H2813 C2824 0.950 . S
H2814 C2826 0.950 . S
H2815 C2827 0.950 . S
C2816 H2808 0.950 . S
C2816 C2817 1.386 . S
C2816 C2818 1.391 . S
C2817 C2816 1.386 . S
C2817 C2821 1.393 . S
C2818 H2810 0.950 . S
C2818 C2816 1.391 . S
C2818 C2819 1.400 . S
C2819 C2818 1.400 . S
C2819 C2820 1.398 . S
C2819 C2825 1.491 . S
C2820 H2811 0.950 . S
C2820 C2819 1.398 . S
C2820 C2821 1.391 . S
C2821 H2809 0.950 . S
C2821 C2817 1.393 . S
C2821 C2820 1.391 . S
C2822 H2812 0.950 . S
C2822 C2823 1.386 . S
C2822 C2824 1.391 . S
C2823 C2822 1.386 . S
C2823 C2827 1.393 . S
C2824 H2813 0.950 . S
C2824 C2822 1.391 . S
C2824 C2825 1.400 . S
C2825 C2819 1.491 . S
C2825 C2824 1.400 . S
C2825 C2826 1.398 . S
C2826 H2814 0.950 . S
C2826 C2825 1.398 . S
C2826 C2827 1.391 . S
C2827 H2815 0.950 . S
C2827 C2823 1.393 . S
C2827 C2826 1.391 . S
H2828 C2836 0.950 . S
H2829 C2841 0.950 . S
H2830 C2838 0.950 . S
H2831 C2840 0.950 . S
H2832 C2842 0.950 . S
H2833 C2844 0.950 . S
H2834 C2846 0.950 . S
H2835 C2847 0.950 . S
C2836 H2828 0.950 . S
C2836 C2837 1.386 . S
C2836 C2838 1.391 . S
C2837 C2836 1.386 . S
C2837 C2841 1.393 . S
C2838 H2830 0.950 . S
C2838 C2836 1.391 . S
C2838 C2839 1.400 . S
C2839 C2838 1.400 . S
C2839 C2840 1.398 . S
C2839 C2845 1.491 . S
C2840 H2831 0.950 . S
C2840 C2839 1.398 . S
C2840 C2841 1.391 . S
C2841 H2829 0.950 . S
C2841 C2837 1.393 . S
C2841 C2840 1.391 . S
C2842 H2832 0.950 . S
C2842 C2843 1.386 . S
C2842 C2844 1.391 . S
C2843 C2842 1.386 . S
C2843 C2847 1.393 . S
C2844 H2833 0.950 . S
C2844 C2842 1.391 . S
C2844 C2845 1.400 . S
C2845 C2839 1.491 . S
C2845 C2844 1.400 . S
C2845 C2846 1.398 . S
C2846 H2834 0.950 . S
C2846 C2845 1.398 . S
C2846 C2847 1.391 . S
C2847 H2835 0.950 . S
C2847 C2843 1.393 . S
C2847 C2846 1.391 . S
H2848 C2856 0.950 . S
H2849 C2861 0.950 . S
H2850 C2858 0.950 . S
H2851 C2860 0.950 . S
H2852 C2862 0.950 . S
H2853 C2864 0.950 . S
H2854 C2866 0.950 . S
H2855 C2867 0.950 . S
C2856 H2848 0.950 . S
C2856 C2857 1.386 . S
C2856 C2858 1.391 . S
C2857 C2856 1.386 . S
C2857 C2861 1.393 . S
C2858 H2850 0.950 . S
C2858 C2856 1.391 . S
C2858 C2859 1.400 . S
C2859 C2858 1.400 . S
C2859 C2860 1.398 . S
C2859 C2865 1.491 . S
C2860 H2851 0.950 . S
C2860 C2859 1.398 . S
C2860 C2861 1.391 . S
C2861 H2849 0.950 . S
C2861 C2857 1.393 . S
C2861 C2860 1.391 . S
C2862 H2852 0.950 . S
C2862 C2863 1.386 . S
C2862 C2864 1.391 . S
C2863 C2862 1.386 . S
C2863 C2867 1.393 . S
C2864 H2853 0.950 . S
C2864 C2862 1.391 . S
C2864 C2865 1.400 . S
C2865 C2859 1.491 . S
C2865 C2864 1.400 . S
C2865 C2866 1.398 . S
C2866 H2854 0.950 . S
C2866 C2865 1.398 . S
C2866 C2867 1.391 . S
C2867 H2855 0.950 . S
C2867 C2863 1.393 . S
C2867 C2866 1.391 . S
H2868 C2876 0.950 . S
H2869 C2881 0.950 . S
H2870 C2878 0.950 . S
H2871 C2880 0.950 . S
H2872 C2882 0.950 . S
H2873 C2884 0.950 . S
H2874 C2886 0.950 . S
H2875 C2887 0.950 . S
C2876 H2868 0.950 . S
C2876 C2877 1.386 . S
C2876 C2878 1.391 . S
C2877 C2876 1.386 . S
C2877 C2881 1.393 . S
C2878 H2870 0.950 . S
C2878 C2876 1.391 . S
C2878 C2879 1.400 . S
C2879 C2878 1.400 . S
C2879 C2880 1.398 . S
C2879 C2885 1.491 . S
C2880 H2871 0.950 . S
C2880 C2879 1.398 . S
C2880 C2881 1.391 . S
C2881 H2869 0.950 . S
C2881 C2877 1.393 . S
C2881 C2880 1.391 . S
C2882 H2872 0.950 . S
C2882 C2883 1.386 . S
C2882 C2884 1.391 . S
C2883 C2882 1.386 . S
C2883 C2887 1.393 . S
C2884 H2873 0.950 . S
C2884 C2882 1.391 . S
C2884 C2885 1.400 . S
C2885 C2879 1.491 . S
C2885 C2884 1.400 . S
C2885 C2886 1.398 . S
C2886 H2874 0.950 . S
C2886 C2885 1.398 . S
C2886 C2887 1.391 . S
C2887 H2875 0.950 . S
C2887 C2883 1.393 . S
C2887 C2886 1.391 . S
H2888 C2896 0.950 . S
H2889 C2901 0.950 . S
H2890 C2898 0.950 . S
H2891 C2900 0.950 . S
H2892 C2902 0.950 . S
H2893 C2904 0.950 . S
H2894 C2906 0.950 . S
H2895 C2907 0.950 . S
C2896 H2888 0.950 . S
C2896 C2897 1.386 . S
C2896 C2898 1.391 . S
C2897 C2896 1.386 . S
C2897 C2901 1.393 . S
C2898 H2890 0.950 . S
C2898 C2896 1.391 . S
C2898 C2899 1.400 . S
C2899 C2898 1.400 . S
C2899 C2900 1.398 . S
C2899 C2905 1.491 . S
C2900 H2891 0.950 . S
C2900 C2899 1.398 . S
C2900 C2901 1.391 . S
C2901 H2889 0.950 . S
C2901 C2897 1.393 . S
C2901 C2900 1.391 . S
C2902 H2892 0.950 . S
C2902 C2903 1.386 . S
C2902 C2904 1.391 . S
C2903 C2902 1.386 . S
C2903 C2907 1.393 . S
C2904 H2893 0.950 . S
C2904 C2902 1.391 . S
C2904 C2905 1.400 . S
C2905 C2899 1.491 . S
C2905 C2904 1.400 . S
C2905 C2906 1.398 . S
C2906 H2894 0.950 . S
C2906 C2905 1.398 . S
C2906 C2907 1.391 . S
C2907 H2895 0.950 . S
C2907 C2903 1.393 . S
C2907 C2906 1.391 . S
H2908 C2916 0.950 . S
H2909 C2921 0.950 . S
H2910 C2918 0.950 . S
H2911 C2920 0.950 . S
H2912 C2922 0.950 . S
H2913 C2924 0.950 . S
H2914 C2926 0.950 . S
H2915 C2927 0.950 . S
C2916 H2908 0.950 . S
C2916 C2917 1.386 . S
C2916 C2918 1.391 . S
C2917 C2916 1.386 . S
C2917 C2921 1.393 . S
C2918 H2910 0.950 . S
C2918 C2916 1.391 . S
C2918 C2919 1.400 . S
C2919 C2918 1.400 . S
C2919 C2920 1.398 . S
C2919 C2925 1.491 . S
C2920 H2911 0.950 . S
C2920 C2919 1.398 . S
C2920 C2921 1.391 . S
C2921 H2909 0.950 . S
C2921 C2917 1.393 . S
C2921 C2920 1.391 . S
C2922 H2912 0.950 . S
C2922 C2923 1.386 . S
C2922 C2924 1.391 . S
C2923 C2922 1.386 . S
C2923 C2927 1.393 . S
C2924 H2913 0.950 . S
C2924 C2922 1.391 . S
C2924 C2925 1.400 . S
C2925 C2919 1.491 . S
C2925 C2924 1.400 . S
C2925 C2926 1.398 . S
C2926 H2914 0.950 . S
C2926 C2925 1.398 . S
C2926 C2927 1.391 . S
C2927 H2915 0.950 . S
C2927 C2923 1.393 . S
C2927 C2926 1.391 . S
H2928 C2936 0.950 . S
H2929 C2941 0.950 . S
H2930 C2938 0.950 . S
H2931 C2940 0.950 . S
H2932 C2942 0.950 . S
H2933 C2944 0.950 . S
H2934 C2946 0.950 . S
H2935 C2947 0.950 . S
C2936 H2928 0.950 . S
C2936 C2937 1.386 . S
C2936 C2938 1.391 . S
C2937 C2936 1.386 . S
C2937 C2941 1.393 . S
C2938 H2930 0.950 . S
C2938 C2936 1.391 . S
C2938 C2939 1.400 . S
C2939 C2938 1.400 . S
C2939 C2940 1.398 . S
C2939 C2945 1.491 . S
C2940 H2931 0.950 . S
C2940 C2939 1.398 . S
C2940 C2941 1.391 . S
C2941 H2929 0.950 . S
C2941 C2937 1.393 . S
C2941 C2940 1.391 . S
C2942 H2932 0.950 . S
C2942 C2943 1.386 . S
C2942 C2944 1.391 . S
C2943 C2942 1.386 . S
C2943 C2947 1.393 . S
C2944 H2933 0.950 . S
C2944 C2942 1.391 . S
C2944 C2945 1.400 . S
C2945 C2939 1.491 . S
C2945 C2944 1.400 . S
C2945 C2946 1.398 . S
C2946 H2934 0.950 . S
C2946 C2945 1.398 . S
C2946 C2947 1.391 . S
C2947 H2935 0.950 . S
C2947 C2943 1.393 . S
C2947 C2946 1.391 . S
H2948 C2956 0.950 . S
H2949 C2961 0.950 . S
H2950 C2958 0.950 . S
H2951 C2960 0.950 . S
H2952 C2962 0.950 . S
H2953 C2964 0.950 . S
H2954 C2966 0.950 . S
H2955 C2967 0.950 . S
C2956 H2948 0.950 . S
C2956 C2957 1.386 . S
C2956 C2958 1.391 . S
C2957 C2956 1.386 . S
C2957 C2961 1.393 . S
C2958 H2950 0.950 . S
C2958 C2956 1.391 . S
C2958 C2959 1.400 . S
C2959 C2958 1.400 . S
C2959 C2960 1.398 . S
C2959 C2965 1.491 . S
C2960 H2951 0.950 . S
C2960 C2959 1.398 . S
C2960 C2961 1.391 . S
C2961 H2949 0.950 . S
C2961 C2957 1.393 . S
C2961 C2960 1.391 . S
C2962 H2952 0.950 . S
C2962 C2963 1.386 . S
C2962 C2964 1.391 . S
C2963 C2962 1.386 . S
C2963 C2967 1.393 . S
C2964 H2953 0.950 . S
C2964 C2962 1.391 . S
C2964 C2965 1.400 . S
C2965 C2959 1.491 . S
C2965 C2964 1.400 . S
C2965 C2966 1.398 . S
C2966 H2954 0.950 . S
C2966 C2965 1.398 . S
C2966 C2967 1.391 . S
C2967 H2955 0.950 . S
C2967 C2963 1.393 . S
C2967 C2966 1.391 . S
H2968 C2976 0.950 . S
H2969 C2981 0.950 . S
H2970 C2978 0.950 . S
H2971 C2980 0.950 . S
H2972 C2982 0.950 . S
H2973 C2984 0.950 . S
H2974 C2986 0.950 . S
H2975 C2987 0.950 . S
C2976 H2968 0.950 . S
C2976 C2977 1.386 . S
C2976 C2978 1.391 . S
C2977 C2976 1.386 . S
C2977 C2981 1.393 . S
C2978 H2970 0.950 . S
C2978 C2976 1.391 . S
C2978 C2979 1.400 . S
C2979 C2978 1.400 . S
C2979 C2980 1.398 . S
C2979 C2985 1.491 . S
C2980 H2971 0.950 . S
C2980 C2979 1.398 . S
C2980 C2981 1.391 . S
C2981 H2969 0.950 . S
C2981 C2977 1.393 . S
C2981 C2980 1.391 . S
C2982 H2972 0.950 . S
C2982 C2983 1.386 . S
C2982 C2984 1.391 . S
C2983 C2982 1.386 . S
C2983 C2987 1.393 . S
C2984 H2973 0.950 . S
C2984 C2982 1.391 . S
C2984 C2985 1.400 . S
C2985 C2979 1.491 . S
C2985 C2984 1.400 . S
C2985 C2986 1.398 . S
C2986 H2974 0.950 . S
C2986 C2985 1.398 . S
C2986 C2987 1.391 . S
C2987 H2975 0.950 . S
C2987 C2983 1.393 . S
C2987 C2986 1.391 . S
C1197 C535 1.308 . S
C1203 C7 1.305 . S
C1217 C40 1.302 . S
C1223 C568 1.306 . S
C1237 C502 1.302 . S
C1243 C73 1.306 . S
C1257 C106 1.308 . S
C1263 C865 1.310 . S
C1277 C799 1.301 . S
C1283 C139 1.305 . S
C1297 C172 1.310 . S
C1303 C832 1.308 . S
C1317 C205 1.299 . S
C1323 C1129 1.296 . S
C1337 C238 1.294 . S
C1343 C1162 1.295 . S
C1357 C271 1.296 . S
C1363 C1096 1.294 . S
C1377 C304 1.298 . S
C1383 C667 1.295 . S
C1397 C337 1.309 . S
C1403 C601 1.307 . S
C1417 C370 1.309 . S
C1423 C634 1.306 . S
C1437 C403 1.302 . S
C1443 C931 1.298 . S
C1457 C964 1.296 . S
C1463 C436 1.294 . S
C1477 C898 1.305 . S
C1483 C469 1.308 . S
C1497 C1063 1.310 . S
C1503 C700 1.309 . S
C1517 C997 1.308 . S
C1523 C733 1.305 . S
C1537 C766 1.307 . S
C1543 C1030 1.303 . S
C1557 N970 1.532 . S
C1563 N13 1.530 . S
C1577 N46 1.546 . S
C1583 N904 1.548 . S
C1597 N79 1.538 . S
C1603 N937 1.541 . S
C1617 N112 1.554 . S
C1623 N442 1.553 . S
C1637 N145 1.551 . S
C1643 N475 1.553 . S
C1657 N409 1.555 . S
C1663 N178 1.554 . S
C1677 N772 1.548 . S
C1683 N211 1.545 . S
C1697 N244 1.549 . S
C1703 N706 1.546 . S
C1717 N277 1.537 . S
C1723 N739 1.535 . S
C1737 N1036 1.551 . S
C1743 N310 1.553 . S
C1757 N1069 1.540 . S
C1763 N343 1.537 . S
C1777 N1003 1.552 . S
C1783 N376 1.551 . S
C1797 N508 1.551 . S
C1803 N838 1.553 . S
C1817 N541 1.551 . S
C1823 N871 1.553 . S
C1837 N574 1.532 . S
C1843 N805 1.534 . S
C1857 N607 1.554 . S
C1863 N1168 1.555 . S
C1877 N1102 1.553 . S
C1883 N640 1.554 . S
C1897 N673 1.530 . S
C1903 N1135 1.530 . S
C1917 C18 1.928 . S
C1923 C612 1.928 . S
C1937 C51 1.928 . S
C1943 C645 1.928 . S
C1957 C678 1.932 . S
C1963 C84 1.932 . S
C1977 C117 1.926 . S
C1983 C1107 1.926 . S
C1997 C150 1.933 . S
C2003 C1140 1.933 . S
C2017 C183 1.932 . S
C2023 C1173 1.932 . S
C2037 C810 1.933 . S
C2043 C216 1.933 . S
C2057 C249 1.933 . S
C2063 C843 1.933 . S
C2077 C876 1.928 . S
C2083 C282 1.928 . S
C2097 C513 1.926 . S
C2103 C315 1.926 . S
C2117 C546 1.933 . S
C2123 C348 1.933 . S
C2137 C381 1.927 . S
C2143 C579 1.927 . S
C2157 C1008 1.934 . S
C2163 C414 1.934 . S
C2177 C1041 1.926 . S
C2183 C447 1.926 . S
C2197 C480 1.929 . S
C2203 C1074 1.929 . S
C2217 C909 1.931 . S
C2223 C711 1.931 . S
C2237 C744 1.928 . S
C2243 C942 1.928 . S
C2257 C975 1.932 . S
C2263 C777 1.932 . S
C2277 N2 1.015 . S
C2283 C252 0.999 . S
C2297 N35 1.028 . S
C2303 C285 1.015 . S
C2317 C219 0.992 . S
C2323 N68 1.024 . S
C2337 C384 0.991 . S
C2343 N101 1.027 . S
C2357 C318 1.002 . S
C2363 N134 1.013 . S
C2377 C351 1.011 . S
C2383 N167 1.030 . S
C2397 C54 0.993 . S
C2403 N200 1.022 . S
C2417 C87 1.019 . S
C2423 N233 1.005 . S
C2437 C21 1.000 . S
C2443 N266 1.015 . S
C2457 N299 1.032 . S
C2463 C186 0.992 . S
C2477 N332 1.026 . S
C2483 C120 0.991 . S
C2497 C153 0.991 . S
C2503 N365 1.026 . S
C2517 C648 1.018 . S
C2523 N398 1.026 . S
C2537 N431 1.006 . S
C2543 C681 1.015 . S
C2557 C615 0.998 . S
C2563 N464 1.017 . S
C2577 C780 0.993 . S
C2583 N497 1.033 . S
C2597 N530 1.020 . S
C2603 C714 0.995 . S
C2617 N563 1.034 . S
C2623 C747 0.995 . S
C2637 N596 1.034 . S
C2643 C450 0.999 . S
C2657 N629 1.014 . S
C2663 C483 1.000 . S
C2677 N662 1.019 . S
C2683 C417 0.995 . S
C2697 N695 1.011 . S
C2703 C582 1.027 . S
C2717 C516 1.026 . S
C2723 N728 1.008 . S
C2737 C549 1.012 . S
C2743 N761 1.007 . S
C2757 C1044 1.008 . S
C2763 N794 1.009 . S
C2777 C1077 0.999 . S
C2783 N827 1.034 . S
C2797 C1011 1.027 . S
C2803 N860 1.008 . S
C2817 C1176 1.026 . S
C2823 N893 1.015 . S
C2837 N926 1.028 . S
C2843 C1110 0.991 . S
C2857 C1143 1.004 . S
C2863 N959 1.011 . S
C2877 C846 0.994 . S
C2883 N992 1.034 . S
C2897 C879 0.991 . S
C2903 N1025 1.027 . S
C2917 C813 0.995 . S
C2923 N1058 1.020 . S
C2937 N1091 1.011 . S
C2943 C978 1.027 . S
C2957 N1124 1.010 . S
C2963 C912 1.007 . S
C2977 C945 1.012 . S
C2983 N1157 1.007 . S
