# Generated by pormake.
# Topology snk, (6)-cn, num edge types: 1
# Building blocks:
#     Node 0, Type 0, BuildingBlock: KUMBOL_clean_sbu_0, # of connection points: 6
#     Node 1, Type 0, BuildingBlock: KUMBOL_clean_sbu_0, # of connection points: 6
#     Node 2, Type 0, BuildingBlock: KUMBOL_clean_sbu_0, # of connection points: 6
#     Node 3, Type 0, BuildingBlock: KUMBOL_clean_sbu_0, # of connection points: 6
#     Node 4, Type 0, BuildingBlock: KUMBOL_clean_sbu_0, # of connection points: 6
#     Node 5, Type 0, BuildingBlock: KUMBOL_clean_sbu_0, # of connection points: 6
#     Node 6, Type 0, BuildingBlock: KUMBOL_clean_sbu_0, # of connection points: 6
#     Node 7, Type 0, BuildingBlock: KUMBOL_clean_sbu_0, # of connection points: 6
#     Edge 8, Type (0, 0), BuildingBlock: MIFKUJ_clean_linker_0, # of connection points: 2
#     Edge 9, Type (0, 0), BuildingBlock: MIFKUJ_clean_linker_0, # of connection points: 2
#     Edge 10, Type (0, 0), BuildingBlock: MIFKUJ_clean_linker_0, # of connection points: 2
#     Edge 11, Type (0, 0), BuildingBlock: MIFKUJ_clean_linker_0, # of connection points: 2
#     Edge 12, Type (0, 0), BuildingBlock: MIFKUJ_clean_linker_0, # of connection points: 2
#     Edge 13, Type (0, 0), BuildingBlock: MIFKUJ_clean_linker_0, # of connection points: 2
#     Edge 14, Type (0, 0), BuildingBlock: MIFKUJ_clean_linker_0, # of connection points: 2
#     Edge 15, Type (0, 0), BuildingBlock: MIFKUJ_clean_linker_0, # of connection points: 2
#     Edge 16, Type (0, 0), BuildingBlock: MIFKUJ_clean_linker_0, # of connection points: 2
#     Edge 17, Type (0, 0), BuildingBlock: MIFKUJ_clean_linker_0, # of connection points: 2
#     Edge 18, Type (0, 0), BuildingBlock: MIFKUJ_clean_linker_0, # of connection points: 2
#     Edge 19, Type (0, 0), BuildingBlock: MIFKUJ_clean_linker_0, # of connection points: 2
#     Edge 20, Type (0, 0), BuildingBlock: MIFKUJ_clean_linker_0, # of connection points: 2
#     Edge 21, Type (0, 0), BuildingBlock: MIFKUJ_clean_linker_0, # of connection points: 2
#     Edge 22, Type (0, 0), BuildingBlock: MIFKUJ_clean_linker_0, # of connection points: 2
#     Edge 23, Type (0, 0), BuildingBlock: MIFKUJ_clean_linker_0, # of connection points: 2
#     Edge 24, Type (0, 0), BuildingBlock: MIFKUJ_clean_linker_0, # of connection points: 2
#     Edge 25, Type (0, 0), BuildingBlock: MIFKUJ_clean_linker_0, # of connection points: 2
#     Edge 26, Type (0, 0), BuildingBlock: MIFKUJ_clean_linker_0, # of connection points: 2
#     Edge 27, Type (0, 0), BuildingBlock: MIFKUJ_clean_linker_0, # of connection points: 2
#     Edge 28, Type (0, 0), BuildingBlock: MIFKUJ_clean_linker_0, # of connection points: 2
#     Edge 29, Type (0, 0), BuildingBlock: MIFKUJ_clean_linker_0, # of connection points: 2
#     Edge 30, Type (0, 0), BuildingBlock: MIFKUJ_clean_linker_0, # of connection points: 2
#     Edge 31, Type (0, 0), BuildingBlock: MIFKUJ_clean_linker_0, # of connection points: 2
# Relax obj value: 0.014
# Max RMSD: 0.072
# Mean RMSD: 0.068
data_MOF--net-snk--node1-KUMBOL_clean_sbu_0--edge1-MIFKUJ_clean_linker_0
_symmetry_space_group_name_H-M    P1
_symmetry_Int_Tables_number       1
_symmetry_cell_setting            triclinic
loop_
_symmetry_equiv_pos_as_xyz
'x, y, z'
_cell_length_a     50.410918
_cell_length_b     50.392947
_cell_length_c     29.414746
_cell_angle_alpha  89.453305
_cell_angle_beta   89.421148
_cell_angle_gamma 90.032337
loop_
_atom_site_label
_atom_site_type_symbol
_atom_site_fract_x
_atom_site_fract_y
_atom_site_fract_z
_atom_type_partial_charge
Gd0 Gd 1.0017 0.02132 0.57177 0.0
Gd1 Gd 1.00095 0.9824 0.46862 0.0
C2 C 0.96005 0.90189 0.45834 0.0
C3 C 0.99735 0.87215 0.44619 0.0
C4 C 0.00481 0.91934 0.45684 0.0
C5 C 0.97783 0.92332 0.46265 0.0
C6 C 0.01487 0.89373 0.44836 0.0
C7 C 0.97 0.8763 0.45046 0.0
C8 C 0.93279 0.90708 0.45926 0.0
C9 C 0.92389 0.93318 0.46273 0.0
N10 N 0.96884 0.94856 0.46727 0.0
C11 C 0.94229 0.95383 0.46573 0.0
H12 H 0.93511 0.97395 0.46747 0.0
C13 C 0.04744 0.93819 0.44629 0.0
N14 N 0.02102 0.94084 0.45638 0.0
C15 C 0.05842 0.91312 0.43885 0.0
C16 C 0.0421 0.89075 0.44019 0.0
H17 H 0.06024 0.95535 0.4449 0.0
H18 H 0.95672 0.85975 0.44565 0.0
H19 H 0.06754 0.02883 0.57381 0.0
H20 H 0.91847 0.89126 0.45558 0.0
H21 H 0.90285 0.93747 0.46245 0.0
H22 H 0.00466 0.85236 0.43931 0.0
H23 H 0.94268 0.04932 0.59394 0.0
H24 H 0.08522 0.11154 0.58226 0.0
H25 H 0.10029 0.06502 0.57786 0.0
H26 H 0.99944 0.15177 0.59501 0.0
H27 H 0.07943 0.91109 0.43179 0.0
H28 H 0.05059 0.87138 0.4337 0.0
H29 H 0.04731 0.14361 0.59036 0.0
H30 H 0.92394 0.09405 0.6045 0.0
N31 N 0.03423 0.0547 0.57228 0.0
C32 C 0.07073 0.09583 0.57908 0.0
C33 C 0.07932 0.06956 0.57699 0.0
C34 C 0.04353 0.10138 0.57921 0.0
C35 C 0.0255 0.08012 0.57549 0.0
C36 C 0.06068 0.04909 0.57455 0.0
N37 N 0.98204 0.06326 0.58187 0.0
C38 C 0.99853 0.08454 0.58053 0.0
C39 C 0.94492 0.09168 0.59757 0.0
C40 C 0.96149 0.11385 0.59511 0.0
C41 C 0.95563 0.06636 0.5917 0.0
C42 C 0.98873 0.11041 0.58756 0.0
H43 H 0.95319 0.13342 0.60045 0.0
O44 O 0.98357 0.01903 0.63934 0.0
O45 O 0.98659 0.98367 0.54084 0.0
O46 O 0.9659 0.01107 0.47257 0.0
O47 O 0.98069 0.04535 0.51781 0.0
O48 O 0.96037 0.00396 0.5811 0.0
O49 O 0.0258 0.01343 0.63134 0.0
O50 O 0.01846 0.98566 0.40068 0.0
O51 O 0.0162 0.01999 0.49969 0.0
O52 O 0.03605 0.99148 0.56956 0.0
O53 O 0.02179 0.95792 0.522 0.0
O54 O 0.04237 0.99968 0.45965 0.0
O55 O 0.97637 0.99148 0.41017 0.0
C56 C 0.96317 0.98286 0.55728 0.0
C57 C 0.00652 0.13178 0.58915 0.0
C58 C 0.03385 0.1272 0.58577 0.0
C59 C 0.00608 0.01576 0.66007 0.0
C60 C 0.01079 0.03266 0.70012 0.0
C61 C 0.01853 0.05917 0.69397 0.0
C62 C 0.00808 0.02237 0.74478 0.0
C63 C 0.01353 0.03853 0.78266 0.0
C64 C 0.02352 0.07528 0.73109 0.0
C65 C 0.0211 0.06509 0.77509 0.0
C66 C 0.96464 0.03599 0.48653 0.0
C67 C 0.03967 0.02078 0.48346 0.0
C68 C 0.99579 0.98951 0.38078 0.0
C69 C 0.9905 0.9734 0.34004 0.0
C70 C 0.98284 0.94679 0.34496 0.0
C71 C 0.99249 0.98462 0.29597 0.0
C72 C 0.9864 0.96929 0.2574 0.0
C73 C 0.97716 0.9315 0.30712 0.0
C74 C 0.97886 0.94262 0.26367 0.0
C75 C 0.03731 0.96671 0.55458 0.0
H76 H 0.0209 0.06746 0.66052 0.0
H77 H 0.00232 1.00183 0.74995 0.0
H78 H 0.0294 0.09574 0.7257 0.0
H79 H 0.02496 0.07813 0.80335 0.0
H80 H 0.98107 0.93779 0.37801 0.0
H81 H 0.99821 0.00524 0.2918 0.0
H82 H 0.97134 0.91095 0.31151 0.0
H83 H 0.97452 0.9302 0.23481 0.0
Gd84 Gd 0.23102 0.75957 0.83156 0.0
Gd85 Gd 0.26859 0.74476 0.72532 0.0
C86 C 0.3361 0.68439 0.72155 0.0
C87 C 0.37459 0.71262 0.70842 0.0
C88 C 0.33048 0.73192 0.71346 0.0
C89 C 0.31968 0.70704 0.72104 0.0
C90 C 0.358 0.73498 0.70625 0.0
C91 C 0.36365 0.68737 0.71603 0.0
C92 C 0.32429 0.65942 0.72713 0.0
C93 C 0.29673 0.65748 0.73093 0.0
N94 N 0.29297 0.70491 0.7264 0.0
C95 C 0.28126 0.68051 0.72996 0.0
H96 H 0.26001 0.67864 0.73299 0.0
C97 C 0.32322 0.77756 0.69887 0.0
N98 N 0.31388 0.75303 0.71128 0.0
C99 C 0.3504 0.78166 0.69187 0.0
C100 C 0.36792 0.76032 0.69606 0.0
H101 H 0.30971 0.79411 0.69581 0.0
H102 H 0.37662 0.67023 0.71684 0.0
H103 H 0.23537 0.82553 0.82326 0.0
H104 H 0.33621 0.64154 0.72797 0.0
H105 H 0.28737 0.63824 0.73472 0.0
H106 H 0.39582 0.71458 0.70337 0.0
H107 H 0.19362 0.70767 0.86329 0.0
H108 H 0.15752 0.85847 0.83597 0.0
H109 H 0.20587 0.86449 0.82526 0.0
H110 H 0.10362 0.78258 0.87099 0.0
H111 H 0.35782 0.80124 0.6832 0.0
H112 H 0.38896 0.76352 0.6904 0.0
H113 H 0.11951 0.82775 0.85349 0.0
H114 H 0.14689 0.69805 0.88313 0.0
N115 N 0.20397 0.79754 0.82976 0.0
C116 C 0.17034 0.84124 0.83433 0.0
C117 C 0.19762 0.84473 0.82848 0.0
C118 C 0.1601 0.81563 0.84032 0.0
C119 C 0.17764 0.79387 0.83768 0.0
C120 C 0.21427 0.82255 0.82706 0.0
N121 N 0.18664 0.74847 0.84847 0.0
C122 C 0.16873 0.76855 0.84789 0.0
C123 C 0.15276 0.71796 0.87325 0.0
C124 C 0.13401 0.73834 0.87221 0.0
C125 C 0.17921 0.72348 0.86196 0.0
C126 C 0.14197 0.7641 0.86021 0.0
H127 H 0.1136 0.73409 0.88162 0.0
O128 O 0.23355 0.74451 0.90113 0.0
O129 O 0.26337 0.73614 0.79924 0.0
O130 O 0.23284 0.71799 0.73724 0.0
O131 O 0.20285 0.74173 0.78202 0.0
O132 O 0.24134 0.71672 0.84803 0.0
O133 O 0.24528 0.78488 0.88561 0.0
O134 O 0.26794 0.76143 0.65669 0.0
O135 O 0.23636 0.76825 0.75755 0.0
O136 O 0.26574 0.7875 0.81877 0.0
O137 O 0.29609 0.76339 0.77524 0.0
O138 O 0.2589 0.78796 0.71015 0.0
O139 O 0.25395 0.72144 0.66898 0.0
C140 C 0.26129 0.71444 0.82074 0.0
C141 C 0.12426 0.78559 0.86161 0.0
C142 C 0.13328 0.81129 0.85146 0.0
C143 C 0.241 0.76722 0.91764 0.0
C144 C 0.22649 0.77642 0.95861 0.0
C145 C 0.20324 0.79139 0.9538 0.0
C146 C 0.23572 0.77045 1.00278 0.0
C147 C 0.22176 0.77961 0.04161 0.0
C148 C 0.18915 0.80002 0.99178 0.0
C149 C 0.19822 0.79417 0.03529 0.0
C150 C 0.20843 0.72316 0.752 0.0
C151 C 0.2387 0.79024 0.73702 0.0
C152 C 0.25954 0.73957 0.63833 0.0
C153 C 0.27422 0.73056 0.59742 0.0
C154 C 0.29799 0.71649 0.60238 0.0
C155 C 0.2647 0.73591 0.55322 0.0
C156 C 0.27889 0.72695 0.51448 0.0
C157 C 0.31224 0.70798 0.56448 0.0
C158 C 0.30286 0.71316 0.52093 0.0
C159 C 0.29015 0.78248 0.80403 0.0
H160 H 0.19597 0.79659 0.92068 0.0
H161 H 0.25385 0.75917 1.0068 0.0
H162 H 0.1711 0.81136 0.98747 0.0
H163 H 0.18661 0.80092 0.06412 0.0
H164 H 0.30559 0.712 0.63556 0.0
H165 H 0.24621 0.74659 0.54909 0.0
H166 H 0.33068 0.6973 0.56889 0.0
H167 H 0.3146 0.70655 0.49215 0.0
Gd168 Gd 0.49635 0.02612 0.95093 0.0
Gd169 Gd 0.51187 0.98952 0.05773 0.0
C170 C 0.5694 0.91948 0.05853 0.0
C171 C 0.53997 0.88232 0.07505 0.0
C172 C 0.52248 0.92721 0.07063 0.0
C173 C 0.5475 0.93687 0.06052 0.0
C174 C 0.51846 0.8999 0.0789 0.0
C175 C 0.5654 0.8921 0.06487 0.0
C176 C 0.5947 0.9302 0.05117 0.0
C177 C 0.59776 0.95766 0.04747 0.0
N178 N 0.55064 0.96345 0.05479 0.0
C179 C 0.57544 0.9741 0.04996 0.0
H180 H 0.57817 0.99525 0.04687 0.0
C181 C 0.47775 0.93659 0.08934 0.0
N182 N 0.50222 0.94476 0.07434 0.0
C183 C 0.47272 0.90967 0.09762 0.0
C184 C 0.49309 0.89118 0.09185 0.0
H185 H 0.46191 0.95081 0.09357 0.0
H186 H 0.58192 0.8784 0.06295 0.0
H187 H 0.43025 0.0238 0.96085 0.0
H188 H 0.61201 0.91752 0.04916 0.0
H189 H 0.61729 0.9662 0.0425 0.0
H190 H 0.53725 0.86122 0.08085 0.0
H191 H 0.54919 0.06201 0.91741 0.0
H192 H 0.40033 0.10302 0.94979 0.0
H193 H 0.39241 0.05475 0.96031 0.0
H194 H 0.47808 0.15518 0.92199 0.0
H195 H 0.45316 0.9032 0.1084 0.0
H196 H 0.48918 0.87035 0.09844 0.0
H197 H 0.43233 0.1404 0.93773 0.0
H198 H 0.56051 0.10889 0.90159 0.0
N199 N 0.45925 0.05421 0.95295 0.0
C200 C 0.41692 0.08948 0.95113 0.0
C201 C 0.41242 0.06229 0.95661 0.0
C202 C 0.44283 0.09891 0.94553 0.0
C203 C 0.46385 0.0805 0.94604 0.0
C204 C 0.43393 0.0448 0.9569 0.0
N205 N 0.50884 0.07016 0.93399 0.0
C206 C 0.48944 0.08874 0.93624 0.0
C207 C 0.54046 0.10351 0.91141 0.0
C208 C 0.52091 0.12301 0.91518 0.0
C209 C 0.53396 0.07696 0.92026 0.0
C210 C 0.49493 0.11571 0.927 0.0
H211 H 0.52595 0.14354 0.90798 0.0
O212 O 0.51093 0.02239 0.88131 0.0
O213 O 0.5192 0.99341 0.98326 0.0
O214 O 0.5399 0.024 0.04283 0.0
O215 O 0.51555 0.054 0.99921 0.0
O216 O 0.53862 0.01438 0.93299 0.0
O217 O 0.46998 0.01314 0.89742 0.0
O218 O 0.49615 0.99281 0.12669 0.0
O219 O 0.4885 0.02204 0.02544 0.0
O220 O 0.46787 0.99208 0.96565 0.0
O221 O 0.49143 0.96185 1.01035 0.0
O222 O 0.46917 1.0 0.07463 0.0
O223 O 0.53704 0.00311 0.11253 0.0
C224 C 0.54065 0.99469 0.96089 0.0
C225 C 0.47426 0.13434 0.92873 0.0
C226 C 0.44822 0.12594 0.93778 0.0
C227 C 0.48774 0.01633 0.86516 0.0
C228 C 0.47941 0.03137 0.82419 0.0
C229 C 0.46449 0.0547 0.82882 0.0
C230 C 0.48692 0.02295 0.78019 0.0
C231 C 0.48005 0.03822 0.74146 0.0
C232 C 0.45757 0.06971 0.79076 0.0
C233 C 0.46537 0.06167 0.74744 0.0
C234 C 0.53527 0.04819 0.02668 0.0
C235 C 0.46685 0.0199 0.04718 0.0
C236 C 0.5189 0.99935 0.14396 0.0
C237 C 0.52691 0.98418 0.18494 0.0
C238 C 0.54151 0.96066 0.18029 0.0
C239 C 0.51925 0.99253 0.2289 0.0
C240 C 0.52571 0.97706 0.2676 0.0
C241 C 0.54805 0.94543 0.21833 0.0
C242 C 0.54013 0.95345 0.26162 0.0
C243 C 0.47227 0.96779 0.98166 0.0
H244 H 0.45813 0.06138 0.86184 0.0
H245 H 0.49842 0.00494 0.77618 0.0
H246 H 0.4461 0.0877 0.79486 0.0
H247 H 0.45959 0.07365 0.71841 0.0
H248 H 0.54788 0.95398 0.14724 0.0
H249 H 0.50791 0.01065 0.23287 0.0
H250 H 0.55928 0.92729 0.21424 0.0
H251 H 0.54561 0.9413 0.29063 0.0
Gd252 Gd 0.23302 0.25021 0.2183 0.0
Gd253 Gd 0.27301 0.25276 0.32043 0.0
C254 C 0.35301 0.29465 0.32923 0.0
C255 C 0.38328 0.25769 0.34064 0.0
C256 C 0.33617 0.24965 0.33057 0.0
C257 C 0.33179 0.2766 0.32518 0.0
C258 C 0.36196 0.23988 0.33834 0.0
C259 C 0.37873 0.28501 0.33687 0.0
C260 C 0.3475 0.32186 0.32806 0.0
C261 C 0.32131 0.33045 0.32442 0.0
N262 N 0.30645 0.28528 0.32076 0.0
C263 C 0.30088 0.31179 0.32173 0.0
H264 H 0.28068 0.31871 0.31993 0.0
C265 C 0.31802 0.20663 0.34017 0.0
N266 N 0.31492 0.23312 0.33103 0.0
C267 C 0.34327 0.19596 0.34684 0.0
C268 C 0.36538 0.21263 0.34572 0.0
H269 H 0.30107 0.19356 0.34148 0.0
H270 H 0.3951 0.2985 0.34172 0.0
H271 H 0.22789 0.18387 0.21497 0.0
H272 H 0.36316 0.33638 0.33148 0.0
H273 H 0.31679 0.35144 0.32436 0.0
H274 H 0.4032 0.25062 0.34711 0.0
H275 H 0.2023 0.30773 0.19561 0.0
H276 H 0.14568 0.16317 0.21513 0.0
H277 H 0.19304 0.14996 0.21388 0.0
H278 H 0.10187 0.24735 0.20814 0.0
H279 H 0.34558 0.17494 0.35344 0.0
H280 H 0.38487 0.2044 0.35185 0.0
H281 H 0.11181 0.19966 0.21473 0.0
H282 H 0.15654 0.32481 0.18907 0.0
N283 N 0.20092 0.21632 0.21815 0.0
C284 C 0.161 0.17822 0.21613 0.0
C285 C 0.18764 0.17068 0.21521 0.0
C286 C 0.15444 0.20517 0.21651 0.0
C287 C 0.17513 0.22401 0.21702 0.0
C288 C 0.20744 0.19008 0.21577 0.0
N289 N 0.19014 0.268 0.20943 0.0
C290 C 0.16954 0.25074 0.21261 0.0
C291 C 0.15991 0.30394 0.19583 0.0
C292 C 0.13846 0.28658 0.20097 0.0
C293 C 0.18579 0.2942 0.1994 0.0
C294 C 0.14312 0.25953 0.20859 0.0
H295 H 0.11844 0.29414 0.19783 0.0
O296 O 0.23462 0.2685 0.15086 0.0
O297 O 0.27056 0.26637 0.24799 0.0
O298 O 0.24376 0.28736 0.31631 0.0
O299 O 0.20932 0.27142 0.27252 0.0
O300 O 0.24949 0.29193 0.20779 0.0
O301 O 0.24175 0.22649 0.15852 0.0
O302 O 0.2704 0.23558 0.38865 0.0
O303 O 0.23548 0.2365 0.29069 0.0
O304 O 0.26304 0.21612 0.22216 0.0
O305 O 0.29731 0.23246 0.26603 0.0
O306 O 0.25643 0.21125 0.33153 0.0
O307 O 0.26433 0.27764 0.3788 0.0
C308 C 0.27088 0.28966 0.23102 0.0
C309 C 0.12233 0.24098 0.21078 0.0
C310 C 0.12798 0.21383 0.21459 0.0
C311 C 0.23872 0.24618 0.12994 0.0
C312 C 0.22195 0.24101 0.08994 0.0
C313 C 0.19542 0.2334 0.0962 0.0
C314 C 0.23233 0.24341 0.04527 0.0
C315 C 0.21624 0.23785 1.00733 0.0
C316 C 0.1794 0.22821 0.05905 0.0
C317 C 0.18965 0.23038 1.01501 0.0
C318 C 0.21871 0.28801 0.30298 0.0
C319 C 0.23515 0.21327 0.30804 0.0
C320 C 0.26646 0.25832 0.40838 0.0
C321 C 0.28256 0.26378 0.44908 0.0
C322 C 0.30916 0.27139 0.44401 0.0
C323 C 0.27141 0.26177 0.49328 0.0
C324 C 0.28683 0.26768 0.53187 0.0
C325 C 0.32453 0.27695 0.48181 0.0
C326 C 0.31352 0.27514 0.52536 0.0
C327 C 0.2881 0.21578 0.23558 0.0
H328 H 0.18704 0.23142 0.12978 0.0
H329 H 0.25288 0.24913 0.04014 0.0
H330 H 0.1589 0.22246 0.06443 0.0
H331 H 0.1766 0.22648 0.98681 0.0
H332 H 0.31812 0.27313 0.41086 0.0
H333 H 0.2508 0.25606 0.49752 0.0
H334 H 0.34509 0.28269 0.47732 0.0
H335 H 0.32608 0.27929 0.5541 0.0
Gd336 Gd 0.73333 0.25722 0.32088 0.0
Gd337 Gd 0.77299 0.24713 0.21518 0.0
C338 C 0.84713 0.19571 0.20667 0.0
C339 C 0.88204 0.22855 0.19612 0.0
C340 C 0.83597 0.24231 0.20301 0.0
C341 C 0.82823 0.21622 0.20894 0.0
C342 C 0.86292 0.24881 0.19594 0.0
C343 C 0.87414 0.20201 0.20128 0.0
C344 C 0.83821 0.16947 0.20811 0.0
C345 C 0.81107 0.16416 0.21108 0.0
N346 N 0.80197 0.21078 0.21373 0.0
C347 C 0.7931 0.18519 0.21345 0.0
H348 H 0.77217 0.18084 0.2155 0.0
C349 C 0.82327 0.28704 0.19192 0.0
N350 N 0.81692 0.26127 0.20213 0.0
C351 C 0.84973 0.29449 0.18502 0.0
C352 C 0.86971 0.27536 0.18759 0.0
H353 H 0.80797 0.30197 0.1901 0.0
H354 H 0.88898 0.18648 0.19997 0.0
H355 H 0.73718 0.32391 0.31973 0.0
H356 H 0.85209 0.15329 0.20545 0.0
H357 H 0.8039 0.14395 0.2112 0.0
H358 H 0.90287 0.23312 0.19103 0.0
H359 H 0.69505 0.20512 0.34753 0.0
H360 H 0.65852 0.35525 0.31269 0.0
H361 H 0.70705 0.36224 0.31529 0.0
H362 H 0.6037 0.27783 0.32779 0.0
H363 H 0.85466 0.31495 0.17742 0.0
H364 H 0.89019 0.28118 0.18199 0.0
H365 H 0.62003 0.32353 0.31668 0.0
H366 H 0.64724 0.1944 0.35457 0.0
N367 N 0.70617 0.29523 0.3188 0.0
C368 C 0.67167 0.33829 0.31478 0.0
C369 C 0.69904 0.34231 0.31637 0.0
C370 C 0.66157 0.31246 0.31744 0.0
C371 C 0.67957 0.29109 0.31991 0.0
C372 C 0.71609 0.32045 0.3189 0.0
N373 N 0.68841 0.24574 0.33112 0.0
C374 C 0.67038 0.2655 0.32645 0.0
C375 C 0.65348 0.21447 0.34649 0.0
C376 C 0.63461 0.23438 0.33967 0.0
C377 C 0.68048 0.2206 0.34271 0.0
C378 C 0.64296 0.26037 0.3302 0.0
H379 H 0.61371 0.2296 0.34275 0.0
O380 O 0.73245 0.24038 0.38944 0.0
O381 O 0.76735 0.23609 0.28832 0.0
O382 O 0.74017 0.21676 0.22536 0.0
O383 O 0.70784 0.23829 0.26837 0.0
O384 O 0.7455 0.21447 0.33481 0.0
O385 O 0.7463 0.28055 0.37833 0.0
O386 O 0.77185 0.26322 0.14609 0.0
O387 O 0.73918 0.26792 0.24799 0.0
O388 O 0.76725 0.28661 0.31236 0.0
O389 O 0.79906 0.26522 0.26779 0.0
O390 O 0.76032 0.28973 0.20129 0.0
O391 O 0.75867 0.22307 0.15966 0.0
C392 C 0.76587 0.21376 0.30807 0.0
C393 C 0.62487 0.28139 0.32546 0.0
C394 C 0.63417 0.3074 0.3191 0.0
C395 C 0.74018 0.26229 0.40845 0.0
C396 C 0.72467 0.27116 0.44853 0.0
C397 C 0.70133 0.28583 0.44241 0.0
C398 C 0.73332 0.26552 0.49316 0.0
C399 C 0.71893 0.27503 0.53121 0.0
C400 C 0.68693 0.29499 0.47976 0.0
C401 C 0.69565 0.28976 0.52378 0.0
C402 C 0.7152 0.22043 0.23823 0.0
C403 C 0.74014 0.29024 0.22836 0.0
C404 C 0.76364 0.24106 0.12851 0.0
C405 C 0.77776 0.23182 0.08724 0.0
C406 C 0.80119 0.21704 0.09138 0.0
C407 C 0.76757 0.23701 0.04347 0.0
C408 C 0.78057 0.22699 1.0044 0.0
C409 C 0.8142 0.20736 0.05299 0.0
C410 C 0.80398 0.21218 1.00987 0.0
C411 C 0.79201 0.28318 0.298 0.0
H412 H 0.69428 0.29039 0.40877 0.0
H413 H 0.7514 0.25428 0.4982 0.0
H414 H 0.66894 0.30629 0.47456 0.0
H415 H 0.68398 0.29704 0.55216 0.0
H416 H 0.80938 0.21275 0.12427 0.0
H417 H 0.74937 0.24827 0.03992 0.0
H418 H 0.83226 0.19597 0.05671 0.0
H419 H 0.8146 0.20453 0.9806 0.0
Gd420 Gd 0.73304 0.74773 0.71676 0.0
Gd421 Gd 0.77153 0.75209 0.82154 0.0
C422 C 0.84569 0.80426 0.82414 0.0
C423 C 0.88066 0.77184 0.8358 0.0
C424 C 0.83466 0.75767 0.83094 0.0
C425 C 0.82683 0.78358 0.8234 0.0
C426 C 0.86156 0.75159 0.83863 0.0
C427 C 0.87272 0.79818 0.82875 0.0
C428 C 0.8367 0.83048 0.82275 0.0
C429 C 0.80952 0.83557 0.82158 0.0
N430 N 0.8005 0.78881 0.82007 0.0
C431 C 0.79161 0.81443 0.82082 0.0
H432 H 0.7707 0.81882 0.8201 0.0
C433 C 0.82177 0.71406 0.85147 0.0
N434 N 0.81558 0.73884 0.83538 0.0
C435 C 0.84821 0.70691 0.85863 0.0
C436 C 0.86826 0.72564 0.85139 0.0
H437 H 0.80628 0.6995 0.85705 0.0
H438 H 0.88751 0.81379 0.82868 0.0
H439 H 0.74635 0.68152 0.71412 0.0
H440 H 0.85054 0.84684 0.82455 0.0
H441 H 0.80224 0.85574 0.82163 0.0
H442 H 0.90147 0.76753 0.84108 0.0
H443 H 0.68658 0.79221 0.68753 0.0
H444 H 0.67342 0.63919 0.72695 0.0
H445 H 0.72227 0.63949 0.71893 0.0
H446 H 0.60768 0.70753 0.72189 0.0
H447 H 0.85308 0.687 0.86988 0.0
H448 H 0.88871 0.72016 0.85754 0.0
H449 H 0.63082 0.66479 0.72979 0.0
H450 H 0.63768 0.79559 0.68544 0.0
N451 N 0.71171 0.70577 0.71951 0.0
C452 C 0.68391 0.65793 0.72454 0.0
C453 C 0.71146 0.65803 0.71992 0.0
C454 C 0.67017 0.68201 0.72464 0.0
C455 C 0.68479 0.70589 0.72151 0.0
C456 C 0.7251 0.68217 0.71716 0.0
N457 N 0.68652 0.75208 0.71066 0.0
C458 C 0.67178 0.72989 0.71764 0.0
C459 C 0.64697 0.77704 0.69508 0.0
C460 C 0.63146 0.75489 0.70596 0.0
C461 C 0.67462 0.77507 0.69639 0.0
C462 C 0.64381 0.73072 0.71606 0.0
H463 H 0.61004 0.75636 0.70444 0.0
O464 O 0.72781 0.76808 0.65175 0.0
O465 O 0.76949 0.76533 0.74828 0.0
O466 O 0.73907 0.78345 0.82168 0.0
O467 O 0.70975 0.77518 0.7625 0.0
O468 O 0.74712 0.79007 0.7076 0.0
O469 O 0.74418 0.72858 0.65343 0.0
O470 O 0.76873 0.73318 0.8885 0.0
O471 O 0.73457 0.73544 0.7904 0.0
O472 O 0.76969 0.72159 0.71142 0.0
O473 O 0.79671 0.72688 0.77475 0.0
O474 O 0.75659 0.7101 0.83055 0.0
O475 O 0.76214 0.77526 0.88155 0.0
C476 C 0.76864 0.78861 0.73089 0.0
C477 C 0.62917 0.70722 0.72222 0.0
C478 C 0.64234 0.68289 0.72653 0.0
C479 C 0.73585 0.748 0.62777 0.0
C480 C 0.71919 0.74054 0.58888 0.0
C481 C 0.69445 0.7285 0.5964 0.0
C482 C 0.728 0.74532 0.54387 0.0
C483 C 0.71189 0.73848 0.50671 0.0
C484 C 0.67847 0.7217 0.55993 0.0
C485 C 0.68703 0.72668 0.51543 0.0
C486 C 0.7167 0.78793 0.79963 0.0
C487 C 0.73498 0.7122 0.80784 0.0
C488 C 0.76472 0.75537 0.90976 0.0
C489 C 0.78123 0.76013 0.95015 0.0
C490 C 0.80678 0.77077 0.94488 0.0
C491 C 0.77151 0.75427 0.99429 0.0
C492 C 0.78748 0.75876 0.03273 0.0
C493 C 0.82264 0.77518 0.98256 0.0
C494 C 0.81314 0.76923 0.02613 0.0
C495 C 0.79146 0.71645 0.73474 0.0
H496 H 0.68751 0.7242 0.6304 0.0
H497 H 0.74715 0.75456 0.53784 0.0
H498 H 0.6594 0.71238 0.56618 0.0
H499 H 0.67435 0.72084 0.48774 0.0
H500 H 0.81445 0.77594 0.91171 0.0
H501 H 0.75174 0.74611 0.99862 0.0
H502 H 0.84231 0.78347 0.97799 0.0
H503 H 0.82574 0.77337 0.05482 0.0
Gd504 Gd 0.50636 0.51975 0.0676 0.0
Gd505 Gd 0.5007 0.48059 0.96429 0.0
C506 C 0.4502 0.40553 0.96151 0.0
C507 C 0.48357 0.37102 0.95404 0.0
C508 C 0.49671 0.41739 0.95744 0.0
C509 C 0.47044 0.42483 0.9625 0.0
C510 C 0.50355 0.39045 0.9523 0.0
C511 C 0.45693 0.37856 0.95846 0.0
C512 C 0.42378 0.41399 0.96177 0.0
C513 C 0.41811 0.4411 0.9623 0.0
N514 N 0.46458 0.45109 0.96476 0.0
C515 C 0.43884 0.45947 0.96337 0.0
H516 H 0.43407 0.48031 0.9636 0.0
C517 C 0.54115 0.43061 0.9437 0.0
N518 N 0.51542 0.4367 0.95457 0.0
C519 C 0.54897 0.40415 0.9391 0.0
C520 C 0.53014 0.38394 0.94394 0.0
H521 H 0.55576 0.44621 0.94007 0.0
H522 H 0.44164 0.36344 0.95822 0.0
H523 H 0.5732 0.52274 0.06253 0.0
H524 H 0.40772 0.39979 0.96009 0.0
H525 H 0.39782 0.44796 0.96155 0.0
H526 H 0.48844 0.3502 0.95053 0.0
H527 H 0.45344 0.55142 0.10887 0.0
H528 H 0.59666 0.60419 0.05725 0.0
H529 H 0.60827 0.55652 0.05696 0.0
H530 H 0.51536 0.65042 0.08634 0.0
H531 H 0.56948 0.39936 0.93171 0.0
H532 H 0.53621 0.36347 0.93993 0.0
H533 H 0.56165 0.63923 0.0672 0.0
H534 H 0.43911 0.59731 0.12491 0.0
N535 N 0.54155 0.55075 0.06404 0.0
C536 C 0.58108 0.5894 0.05954 0.0
C537 C 0.58771 0.56253 0.05957 0.0
C538 C 0.5545 0.59684 0.06471 0.0
C539 C 0.53499 0.57677 0.06729 0.0
C540 C 0.56764 0.54338 0.06272 0.0
N541 N 0.4916 0.56293 0.08425 0.0
C542 C 0.5091 0.58308 0.07803 0.0
C543 C 0.45881 0.59362 0.11145 0.0
C544 C 0.47608 0.61475 0.10249 0.0
C545 C 0.46702 0.56765 0.10246 0.0
C546 C 0.50178 0.6096 0.08643 0.0
H547 H 0.4697 0.63484 0.10952 0.0
O548 O 0.49061 0.51621 0.13682 0.0
O549 O 0.4881 0.48333 0.03721 0.0
O550 O 0.46892 0.51284 0.96649 0.0
O551 O 0.48122 0.5445 0.01995 0.0
O552 O 0.46436 0.50488 0.08006 0.0
O553 O 0.53188 0.50812 0.12352 0.0
O554 O 0.51914 0.48072 0.89688 0.0
O555 O 0.51788 0.51769 0.99378 0.0
O556 O 0.53948 0.48918 0.06033 0.0
O557 O 0.52146 0.45553 0.01735 0.0
O558 O 0.54268 0.49566 0.95305 0.0
O559 O 0.47756 0.49025 0.9044 0.0
C560 C 0.46514 0.48384 0.0556 0.0
C561 C 0.52067 0.62988 0.08066 0.0
C562 C 0.54702 0.62351 0.06974 0.0
C563 C 0.51355 0.51093 0.15463 0.0
C564 C 0.521 0.52655 0.19489 0.0
C565 C 0.53207 0.5519 0.18903 0.0
C566 C 0.51764 0.51611 0.23933 0.0
C567 C 0.52566 0.53091 0.27747 0.0
C568 C 0.53971 0.56668 0.22645 0.0
C569 C 0.53659 0.55633 0.27028 0.0
C570 C 0.46667 0.53664 0.98521 0.0
C571 C 0.54086 0.5174 0.97555 0.0
C572 C 0.4971 0.4861 0.8759 0.0
C573 C 0.49094 0.46982 0.83572 0.0
C574 C 0.48059 0.4442 0.84162 0.0
C575 C 0.49478 0.47997 0.79117 0.0
C576 C 0.48784 0.46462 0.75303 0.0
C577 C 0.47408 0.42885 0.80422 0.0
C578 C 0.4776 0.43894 0.7603 0.0
C579 C 0.53879 0.46412 0.04725 0.0
H580 H 0.53498 0.56024 0.1555 0.0
H581 H 0.50929 0.49645 0.24412 0.0
H582 H 0.54815 0.58627 0.22144 0.0
H583 H 0.5425 0.56841 0.29873 0.0
H584 H 0.47734 0.43605 0.8751 0.0
H585 H 0.50258 0.49985 0.78627 0.0
H586 H 0.46616 0.40906 0.80931 0.0
H587 H 0.4725 0.42648 0.73187 0.0
Gd588 Gd 0.99851 0.52418 0.45688 0.0
Gd589 Gd 0.01341 0.48661 0.56328 0.0
C590 C 0.07107 0.41674 0.56211 0.0
C591 C 0.04153 0.37923 0.57509 0.0
C592 C 0.02403 0.42416 0.57322 0.0
C593 C 0.04913 0.43404 0.56437 0.0
C594 C 0.01997 0.39669 0.57959 0.0
C595 C 0.06705 0.38924 0.56639 0.0
C596 C 0.09646 0.42765 0.55695 0.0
C597 C 0.09952 0.45518 0.55575 0.0
N598 N 0.05229 0.46073 0.56068 0.0
C599 C 0.07713 0.47152 0.55815 0.0
H600 H 0.07984 0.49273 0.55688 0.0
C601 C 0.97917 0.43314 0.59167 0.0
N602 N 0.00373 0.4416 0.57765 0.0
C603 C 0.97411 0.40606 0.59805 0.0
C604 C 0.99451 0.38771 0.59141 0.0
H605 H 0.9633 0.44727 0.59642 0.0
H606 H 0.08362 0.37561 0.56416 0.0
H607 H 0.93215 0.51817 0.46609 0.0
H608 H 0.11383 0.41504 0.55498 0.0
H609 H 0.11911 0.46384 0.55264 0.0
H610 H 0.03879 0.35802 0.57942 0.0
H611 H 0.04843 0.56336 0.4226 0.0
H612 H 0.89832 0.59591 0.46859 0.0
H613 H 0.89301 0.54713 0.47194 0.0
H614 H 0.97312 0.65274 0.44029 0.0
H615 H 0.9545 0.39938 0.60807 0.0
H616 H 0.99056 0.36676 0.59653 0.0
H617 H 0.92845 0.63526 0.45729 0.0
H618 H 0.05719 0.61123 0.41016 0.0
N619 N 0.95969 0.55011 0.46055 0.0
C620 C 0.91564 0.58327 0.46591 0.0
C621 C 0.91256 0.55575 0.46772 0.0
C622 C 0.94096 0.59412 0.45939 0.0
C623 C 0.96285 0.57678 0.45646 0.0
C624 C 0.93487 0.53937 0.46437 0.0
N625 N 0.00816 0.56914 0.4422 0.0
C626 C 0.98789 0.58661 0.44685 0.0
C627 C 0.03763 0.60458 0.42066 0.0
C628 C 0.01727 0.62297 0.42748 0.0
C629 C 0.03261 0.57754 0.42754 0.0
C630 C 0.9919 0.61405 0.44005 0.0
H631 H 0.02119 0.6439 0.42199 0.0
O632 O 0.01466 0.52213 0.38805 0.0
O633 O 0.02132 0.49154 0.48926 0.0
O634 O 0.04143 0.52135 0.55064 0.0
O635 O 0.01834 0.55158 0.50527 0.0
O636 O 0.04127 0.51306 0.4403 0.0
O637 O 0.97377 0.51126 0.40112 0.0
O638 O 0.99708 0.4885 0.63202 0.0
O639 O 0.99056 0.51936 0.53113 0.0
O640 O 0.97057 0.48937 0.46929 0.0
O641 O 0.99392 0.45918 0.51435 0.0
O642 O 0.9706 0.49726 0.57939 0.0
O643 O 0.03772 0.50028 0.61909 0.0
C644 C 0.04306 0.49317 0.46793 0.0
C645 C 0.97041 0.63155 0.44494 0.0
C646 C 0.94497 0.6216 0.45462 0.0
C647 C 0.99207 0.51556 0.37015 0.0
C648 C 0.98409 0.53105 0.32953 0.0
C649 C 0.9696 0.55459 0.33472 0.0
C650 C 0.99142 0.5228 0.28536 0.0
C651 C 0.98454 0.53825 0.24683 0.0
C652 C 0.96264 0.56981 0.29691 0.0
C653 C 0.97004 0.5618 0.25336 0.0
C654 C 0.03706 0.54566 0.53472 0.0
C655 C 0.96879 0.51747 0.55246 0.0
C656 C 0.01945 0.49572 0.64998 0.0
C657 C 0.02769 0.48066 0.6909 0.0
C658 C 0.04283 0.4575 0.68615 0.0
C659 C 0.01995 0.48891 0.73488 0.0
C660 C 0.02702 0.47376 0.77369 0.0
C661 C 0.05007 0.44266 0.72424 0.0
C662 C 0.04225 0.45064 0.76759 0.0
C663 C 0.97495 0.46511 0.48535 0.0
H664 H 0.96357 0.56123 0.36799 0.0
H665 H 0.00275 0.5047 0.28111 0.0
H666 H 0.95139 0.58791 0.30138 0.0
H667 H 0.96406 0.5739 0.22461 0.0
H668 H 0.04911 0.45084 0.65301 0.0
H669 H 0.00814 0.50672 0.73877 0.0
H670 H 0.06183 0.42486 0.72013 0.0
H671 H 0.04844 0.43882 0.79654 0.0
H672 H 0.09316 0.02141 0.47529 0.0
H673 H 0.12244 0.05649 0.44702 0.0
H674 H 0.05522 0.10881 0.43368 0.0
H675 H 0.02605 0.07377 0.46478 0.0
H676 H 0.1276 0.07601 0.37113 0.0
H677 H 0.06562 0.16101 0.40791 0.0
H678 H 0.04002 0.18703 0.46399 0.0
H679 H 0.09391 0.16316 0.56885 0.0
H680 H 0.1191 0.13617 0.51364 0.0
H681 H 0.1806 0.22437 0.31494 0.0
H682 H 0.14481 0.19396 0.33947 0.0
H683 H 0.20231 0.13144 0.35689 0.0
H684 H 0.23716 0.16097 0.32927 0.0
H685 H 0.13063 0.17129 0.41004 0.0
H686 H 0.18276 0.0734 0.3654 0.0
H687 H 0.20876 0.05284 0.30347 0.0
H688 H 0.17261 0.10535 0.20644 0.0
H689 H 0.14676 0.12647 0.26811 0.0
C690 C 0.08464 0.04065 0.46752 0.0
C691 C 0.05714 0.04461 0.4731 0.0
C692 C 0.10151 0.06089 0.45082 0.0
C693 C 0.09169 0.08603 0.43769 0.0
C694 C 0.06411 0.0903 0.44431 0.0
C695 C 0.04715 0.07 0.46201 0.0
C696 C 0.11023 0.10603 0.41374 0.0
C697 C 0.12832 0.09675 0.38053 0.0
C698 C 0.11103 0.13372 0.42284 0.0
C699 C 0.09373 0.14614 0.45711 0.0
C700 C 0.07154 0.16085 0.44322 0.0
C701 C 0.05717 0.17579 0.47476 0.0
C702 C 0.06531 0.17671 0.51996 0.0
C703 C 0.08755 0.16231 0.53387 0.0
C704 C 0.10162 0.14686 0.50265 0.0
C705 C 0.18539 0.20384 0.32232 0.0
C706 C 0.21186 0.19505 0.31836 0.0
C707 C 0.16485 0.18635 0.33715 0.0
C708 C 0.1701 0.15958 0.34943 0.0
C709 C 0.19674 0.15121 0.34601 0.0
C710 C 0.21701 0.16843 0.33054 0.0
C711 C 0.14852 0.14102 0.36867 0.0
C712 C 0.12992 0.15053 0.40073 0.0
C713 C 0.1469 0.11357 0.35791 0.0
C714 C 0.16322 0.10178 0.32126 0.0
C715 C 0.18056 0.08067 0.33087 0.0
C716 C 0.1953 0.06898 0.29589 0.0
C717 C 0.19252 0.07796 0.2511 0.0
C718 C 0.17501 0.09866 0.24123 0.0
C719 C 0.16048 0.11065 0.27619 0.0
H720 H 0.20381 0.06878 0.22401 0.0
H721 H 0.05439 0.18858 0.54424 0.0
H722 H 0.07625 0.97705 0.6171 0.0
H723 H 0.10875 0.94611 0.64874 0.0
H724 H 0.07607 0.88301 0.56852 0.0
H725 H 0.04277 0.91339 0.53878 0.0
H726 H 0.08732 0.86353 0.64645 0.0
H727 H 0.1357 0.91669 0.53941 0.0
H728 H 0.15199 0.95821 0.5039 0.0
H729 H 0.19078 0.97898 0.62791 0.0
H730 H 0.17439 0.93774 0.66438 0.0
H731 H 0.19439 0.77415 0.69322 0.0
H732 H 0.16097 0.80192 0.65708 0.0
H733 H 0.19783 0.87159 0.71357 0.0
H734 H 0.23409 0.84395 0.74112 0.0
H735 H 0.18281 0.88663 0.64312 0.0
H736 H 0.13099 0.82743 0.74852 0.0
H737 H 0.11604 0.78243 0.77148 0.0
H738 H 0.08333 0.77031 0.63953 0.0
H739 H 0.09891 0.81457 0.6149 0.0
C740 C 0.07591 0.95658 0.60624 0.0
C741 C 0.05708 0.94796 0.57459 0.0
C742 C 0.09468 0.93887 0.6242 0.0
C743 C 0.09538 0.91216 0.61048 0.0
C744 C 0.07621 0.90344 0.57965 0.0
C745 C 0.05727 0.92103 0.56216 0.0
C746 C 0.1161 0.89335 0.62791 0.0
C747 C 0.10824 0.86858 0.64582 0.0
C748 C 0.14348 0.89958 0.62675 0.0
C749 C 0.15361 0.92425 0.60475 0.0
C750 C 0.14757 0.93019 0.55919 0.0
C751 C 0.15683 0.95366 0.53888 0.0
C752 C 0.17236 0.97125 0.56367 0.0
C753 C 0.17872 0.96535 0.60877 0.0
C754 C 0.16947 0.94192 0.62927 0.0
C755 C 0.19501 0.79541 0.69836 0.0
C756 C 0.21603 0.80682 0.72229 0.0
C757 C 0.17556 0.81143 0.67811 0.0
C758 C 0.17542 0.8392 0.68424 0.0
C759 C 0.19677 0.85039 0.70818 0.0
C760 C 0.21735 0.83453 0.725 0.0
C761 C 0.15418 0.85698 0.66444 0.0
C762 C 0.16192 0.8816 0.64523 0.0
C763 C 0.12669 0.85029 0.6637 0.0
C764 C 0.11627 0.82429 0.67983 0.0
C765 C 0.12057 0.81519 0.72447 0.0
C766 C 0.11209 0.78979 0.73772 0.0
C767 C 0.09871 0.77364 0.70719 0.0
C768 C 0.09368 0.78284 0.66322 0.0
C769 C 0.10243 0.80801 0.6495 0.0
H770 H 0.09229 0.75398 0.71759 0.0
H771 H 0.1795 0.98942 0.54789 0.0
H772 H 0.34136 0.76789 0.81814 0.0
H773 H 0.37704 0.79566 0.84832 0.0
H774 H 0.32332 0.86214 0.855 0.0
H775 H 0.28741 0.8344 0.82642 0.0
H776 H 0.37809 0.8689 0.80915 0.0
H777 H 0.32996 0.83568 0.94262 0.0
H778 H 0.31287 0.80087 0.99445 0.0
H779 H 0.39226 0.77371 0.01841 0.0
H780 H 0.40979 0.80781 0.96536 0.0
H781 H 0.42446 0.97204 0.94021 0.0
H782 H 0.39788 0.93622 0.90924 0.0
H783 H 0.45574 0.87893 0.95454 0.0
H784 H 0.48232 0.91466 0.98646 0.0
H785 H 0.40574 0.86189 0.97033 0.0
H786 H 0.455 0.89715 0.84564 0.0
H787 H 0.47348 0.93256 0.79625 0.0
H788 H 0.3949 0.95513 0.75649 0.0
H789 H 0.37589 0.92023 0.80635 0.0
C790 C 0.33726 0.78846 0.82603 0.0
C791 C 0.31175 0.79913 0.8203 0.0
C792 C 0.35755 0.80416 0.84324 0.0
C793 C 0.35255 0.83073 0.85382 0.0
C794 C 0.32731 0.84158 0.84696 0.0
C795 C 0.3069 0.82576 0.8309 0.0
C796 C 0.37345 0.84753 0.87245 0.0
C797 C 0.38422 0.86745 0.84435 0.0
C798 C 0.38185 0.8448 0.91794 0.0
C799 C 0.37115 0.82395 0.9491 0.0
C800 C 0.34376 0.82195 0.95809 0.0
C801 C 0.33399 0.80241 0.9879 0.0
C802 C 0.35146 0.78503 1.00959 0.0
C803 C 0.37874 0.78718 1.00155 0.0
C804 C 0.38859 0.80653 0.97145 0.0
C805 C 0.4315 0.95183 0.94375 0.0
C806 C 0.45549 0.94613 0.96548 0.0
C807 C 0.41636 0.93142 0.92594 0.0
C808 C 0.4252 0.90508 0.92889 0.0
C809 C 0.44874 0.89919 0.9518 0.0
C810 C 0.46382 0.91961 0.97001 0.0
C811 C 0.4098 0.88387 0.90745 0.0
C812 C 0.40013 0.86304 0.93485 0.0
C813 C 0.40264 0.88555 0.86114 0.0
C814 C 0.41401 0.9061 0.82996 0.0
C815 C 0.44164 0.90972 0.82651 0.0
C816 C 0.45222 0.92972 0.79845 0.0
C817 C 0.43537 0.94608 0.77329 0.0
C818 C 0.40792 0.94243 0.77601 0.0
C819 C 0.39723 0.92252 0.80414 0.0
H820 H 0.44357 0.9616 0.75169 0.0
H821 H 0.34387 0.76995 0.03271 0.0
H822 H 0.41589 0.01351 0.07417 0.0
H823 H 0.38516 0.04711 0.10239 0.0
H824 H 0.44281 0.10816 0.07236 0.0
H825 H 0.47423 0.07422 0.04608 0.0
H826 H 0.4224 0.11073 0.15981 0.0
H827 H 0.36919 0.12093 1.00735 0.0
H828 H 0.34811 0.09929 0.94177 0.0
H829 H 0.31706 0.0382 0.03012 0.0
H830 H 0.33755 0.05986 0.0961 0.0
H831 H 0.3414 0.22078 0.2198 0.0
H832 H 0.37139 0.18873 0.18465 0.0
H833 H 0.30685 0.13263 0.1757 0.0
H834 H 0.2765 0.16561 0.2073 0.0
H835 H 0.33119 0.12754 0.10527 0.0
H836 H 0.36508 0.12897 0.25704 0.0
H837 H 0.38356 0.1473 0.32747 0.0
H838 H 0.44919 0.18023 0.25181 0.0
H839 H 0.43125 0.16189 0.18096 0.0
C840 C 0.42178 0.03419 0.07255 0.0
C841 C 0.44725 0.04124 0.05671 0.0
C842 C 0.40401 0.05349 0.08824 0.0
C843 C 0.41114 0.08045 0.08831 0.0
C844 C 0.43656 0.0876 0.07203 0.0
C845 C 0.45448 0.0682 0.0566 0.0
C846 C 0.39329 0.10059 0.10992 0.0
C847 C 0.40254 0.11469 0.14757 0.0
C848 C 0.36697 0.10509 0.09552 0.0
C849 C 0.35564 0.09142 0.05608 0.0
C850 C 0.35814 0.10269 1.0125 0.0
C851 C 0.3461 0.09058 0.9754 0.0
C852 C 0.33152 0.06721 0.98169 0.0
C853 C 0.32861 0.05613 0.02519 0.0
C854 C 0.34037 0.06835 0.06241 0.0
C855 C 0.33366 0.20157 0.21029 0.0
C856 C 0.30654 0.19578 0.2161 0.0
C857 C 0.35095 0.18302 0.19062 0.0
C858 C 0.34182 0.15771 0.17798 0.0
C859 C 0.31468 0.15188 0.18465 0.0
C860 C 0.29724 0.17076 0.2029 0.0
C861 C 0.36001 0.13777 0.15603 0.0
C862 C 0.35095 0.12376 0.11803 0.0
C863 C 0.38619 0.13267 0.17136 0.0
C864 C 0.39666 0.14432 0.21366 0.0
C865 C 0.38333 0.14032 0.25538 0.0
C866 C 0.39375 0.15064 0.29538 0.0
C867 C 0.41742 0.16508 0.29407 0.0
C868 C 0.43081 0.16911 0.25277 0.0
C869 C 0.42059 0.15867 0.21271 0.0
H870 H 0.42542 0.17307 0.32508 0.0
H871 H 0.32232 0.05781 0.95292 0.0
H872 H 0.97675 0.93005 0.57649 0.0
H873 H 0.94745 0.89501 0.60691 0.0
H874 H 0.88011 0.9469 0.59053 0.0
H875 H 0.90959 0.98212 0.56346 0.0
H876 H 0.87335 0.92755 0.66528 0.0
H877 H 0.88568 0.86702 0.52505 0.0
H878 H 0.91236 0.84061 0.47107 0.0
H879 H 0.96471 0.8175 0.57869 0.0
H880 H 0.93751 0.84278 0.63358 0.0
H881 H 0.76533 0.84032 0.70551 0.0
H882 H 0.79966 0.87026 0.67729 0.0
H883 H 0.85869 0.80988 0.70067 0.0
H884 H 0.82347 0.77892 0.72563 0.0
H885 H 0.87315 0.8318 0.62932 0.0
H886 H 0.855 0.87949 0.7689 0.0
H887 H 0.82682 0.89991 0.82837 0.0
H888 H 0.78839 0.9476 0.72678 0.0
H889 H 0.81652 0.92748 0.66709 0.0
C890 C 0.95561 0.93372 0.57849 0.0
C891 C 0.94563 0.95904 0.567 0.0
C892 C 0.93857 0.91341 0.59575 0.0
C893 C 0.91089 0.91754 0.60128 0.0
C894 C 0.9011 0.94261 0.58764 0.0
C895 C 0.91808 0.96292 0.57159 0.0
C896 C 0.89218 0.89745 0.62457 0.0
C897 C 0.87327 0.90671 0.65643 0.0
C898 C 0.8921 0.86966 0.61621 0.0
C899 C 0.91011 0.85732 0.58291 0.0
C900 C 0.90312 0.8566 0.53693 0.0
C901 C 0.91807 0.84152 0.50639 0.0
C902 C 0.94036 0.82758 0.52137 0.0
C903 C 0.94756 0.82844 0.56706 0.0
C904 C 0.93226 0.84294 0.59795 0.0
C905 C 0.78567 0.83341 0.7053 0.0
C906 C 0.79144 0.80722 0.7193 0.0
C907 C 0.80564 0.8509 0.68956 0.0
C908 C 0.83255 0.84327 0.6878 0.0
C909 C 0.83841 0.81691 0.70172 0.0
C910 C 0.81819 0.79912 0.71674 0.0
C911 C 0.85389 0.86213 0.66871 0.0
C912 C 0.87324 0.85267 0.63794 0.0
C913 C 0.85463 0.88975 0.67848 0.0
C914 C 0.83734 0.90154 0.71376 0.0
C915 C 0.84021 0.89401 0.75945 0.0
C916 C 0.82443 0.90568 0.79311 0.0
C917 C 0.80562 0.92484 0.7813 0.0
C918 C 0.80284 0.93263 0.73587 0.0
C919 C 0.81878 0.92121 0.70217 0.0
H920 H 0.79333 0.93376 0.80738 0.0
H921 H 0.952 0.81604 0.49757 0.0
H922 H 0.96183 0.09033 0.49155 0.0
H923 H 0.92881 0.1198 0.45777 0.0
H924 H 0.88798 0.05206 0.40331 0.0
H925 H 0.92131 0.02258 0.43603 0.0
H926 H 0.8901 0.08772 0.34164 0.0
H927 H 0.86466 0.08906 0.49843 0.0
H928 H 0.87075 0.09495 0.58078 0.0
H929 H 0.89155 0.1767 0.55829 0.0
H930 H 0.88588 0.17121 0.47566 0.0
H931 H 0.76048 0.16168 0.32931 0.0
H932 H 0.79487 0.13031 0.35305 0.0
H933 H 0.85471 0.18997 0.32904 0.0
H934 H 0.82009 0.22197 0.30765 0.0
H935 H 0.84304 0.15798 0.4272 0.0
H936 H 0.89704 0.12061 0.26843 0.0
H937 H 0.89089 0.10473 0.19016 0.0
H938 H 0.80928 0.08693 0.22051 0.0
H939 H 0.81526 0.10169 0.29927 0.0
C940 C 0.94572 0.08165 0.47266 0.0
C941 C 0.94424 0.05399 0.46675 0.0
C942 C 0.92672 0.09859 0.45343 0.0
C943 C 0.90552 0.08829 0.42829 0.0
C944 C 0.90406 0.06065 0.42242 0.0
C945 C 0.92317 0.04374 0.44128 0.0
C946 C 0.88535 0.1062 0.40681 0.0
C947 C 0.8798 0.10306 0.36049 0.0
C948 C 0.87173 0.12625 0.43116 0.0
C949 C 0.87511 0.12965 0.48081 0.0
C950 C 0.87072 0.10825 0.511 0.0
C951 C 0.87404 0.11153 0.55774 0.0
C952 C 0.88161 0.13616 0.57474 0.0
C953 C 0.88575 0.15761 0.54505 0.0
C954 C 0.88245 0.15444 0.49827 0.0
C955 C 0.78104 0.16794 0.32799 0.0
C956 C 0.78757 0.19411 0.31515 0.0
C957 C 0.80074 0.14986 0.34112 0.0
C958 C 0.82759 0.15732 0.34109 0.0
C959 C 0.83426 0.18343 0.32796 0.0
C960 C 0.81445 0.20171 0.31551 0.0
C961 C 0.8478 0.13942 0.36203 0.0
C962 C 0.85351 0.14277 0.40833 0.0
C963 C 0.86114 0.1191 0.33787 0.0
C964 C 0.85629 0.11337 0.28934 0.0
C965 C 0.87766 0.11371 0.25817 0.0
C966 C 0.87433 0.10452 0.21387 0.0
C967 C 0.84962 0.09509 0.20021 0.0
C968 C 0.82831 0.09458 0.23096 0.0
C969 C 0.83163 0.10352 0.27543 0.0
H970 H 0.84704 0.08803 0.1659 0.0
H971 H 0.88422 0.13865 0.61093 0.0
H972 H 0.72125 0.17475 0.19074 0.0
H973 H 0.68743 0.15144 0.14801 0.0
H974 H 0.62891 0.20901 0.18999 0.0
H975 H 0.66245 0.23193 0.23422 0.0
H976 H 0.60845 0.16192 0.194 0.0
H977 H 0.65566 0.2108 0.08247 0.0
H978 H 0.69462 0.22881 0.04131 0.0
H979 H 0.7167 0.15032 1.00016 0.0
H980 H 0.67824 0.13168 0.04196 0.0
H981 H 0.52341 0.10076 0.03007 0.0
H982 H 0.55184 0.13649 0.05763 0.0
H983 H 0.61506 0.0803 0.07949 0.0
H984 H 0.58666 0.04437 0.05301 0.0
H985 H 0.62781 0.1352 0.03501 0.0
H986 H 0.58378 0.08891 0.165 0.0
H987 H 0.54314 0.07317 0.20419 0.0
H988 H 0.51241 0.15264 0.2048 0.0
H989 H 0.55277 0.16875 0.16496 0.0
C990 C 0.70116 0.18236 0.19106 0.0
C991 C 0.69449 0.2052 0.21552 0.0
C992 C 0.68192 0.16918 0.16636 0.0
C993 C 0.65588 0.17897 0.16489 0.0
C994 C 0.64897 0.20132 0.1904 0.0
C995 C 0.66814 0.21431 0.21571 0.0
C996 C 0.63587 0.16533 0.13737 0.0
C997 C 0.61245 0.15663 0.15892 0.0
C998 C 0.64099 0.15868 0.09143 0.0
C999 C 0.66404 0.1698 0.06561 0.0
C1000 C 0.66889 0.19732 0.0649 0.0
C1001 C 0.69089 0.20766 0.04143 0.0
C1002 C 0.70809 0.19073 0.01811 0.0
C1003 C 0.70333 0.16341 0.01822 0.0
C1004 C 0.68142 0.15294 0.04178 0.0
C1005 C 0.54348 0.0961 0.0403 0.0
C1006 C 0.55285 0.06983 0.04004 0.0
C1007 C 0.55962 0.11649 0.05577 0.0
C1008 C 0.58538 0.11082 0.07028 0.0
C1009 C 0.5952 0.08487 0.06804 0.0
C1010 C 0.57892 0.06441 0.05343 0.0
C1011 C 0.60128 0.13121 0.09239 0.0
C1012 C 0.62375 0.14118 0.06972 0.0
C1013 C 0.59505 0.13959 0.13685 0.0
C1014 C 0.5711 0.12996 0.16159 0.0
C1015 C 0.56826 0.10297 0.17318 0.0
C1016 C 0.5453 0.094 0.19556 0.0
C1017 C 0.52517 0.11189 0.20686 0.0
C1018 C 0.528 0.13881 0.19596 0.0
C1019 C 0.55091 0.14787 0.1735 0.0
H1020 H 0.50741 0.10491 0.22416 0.0
H1021 H 0.72507 0.19876 0.99989 0.0
H1022 H 0.68174 0.81954 0.75303 0.0
H1023 H 0.65198 0.85337 0.78335 0.0
H1024 H 0.67987 0.83642 0.91875 0.0
H1025 H 0.71021 0.80302 0.88819 0.0
H1026 H 0.61174 0.85433 0.83645 0.0
H1027 H 0.67701 0.89057 0.98496 0.0
H1028 H 0.72446 0.89421 1.00386 0.0
H1029 H 0.74479 0.8976 0.8618 0.0
H1030 H 0.69746 0.89436 0.84208 0.0
H1031 H 0.53075 0.94093 0.96547 0.0
H1032 H 0.56065 0.90489 0.94394 0.0
H1033 H 0.62056 0.96233 0.90543 0.0
H1034 H 0.59131 0.99818 0.93032 0.0
H1035 H 0.64476 0.92383 0.93989 0.0
H1036 H 0.5769 0.9288 0.82656 0.0
H1037 H 0.53103 0.92892 0.79801 0.0
H1038 H 0.51882 0.85042 0.85233 0.0
H1039 H 0.56453 0.84995 0.88163 0.0
C1040 C 0.6814 0.82281 0.78927 0.0
C1041 C 0.69835 0.80843 0.81809 0.0
C1042 C 0.66435 0.84228 0.80667 0.0
C1043 C 0.66369 0.84785 0.85345 0.0
C1044 C 0.68028 0.83309 0.88244 0.0
C1045 C 0.69762 0.81388 0.86491 0.0
C1046 C 0.64589 0.86922 0.87158 0.0
C1047 C 0.61902 0.86948 0.85911 0.0
C1048 C 0.65523 0.88945 0.90056 0.0
C1049 C 0.68371 0.89191 0.9121 0.0
C1050 C 0.6916 0.8922 0.95778 0.0
C1051 C 0.71847 0.89418 0.96863 0.0
C1052 C 0.73763 0.89604 0.93405 0.0
C1053 C 0.72994 0.89606 0.88855 0.0
C1054 C 0.7031 0.89413 0.87752 0.0
C1055 C 0.55054 0.9458 0.95363 0.0
C1056 C 0.55896 0.97237 0.95092 0.0
C1057 C 0.56754 0.92516 0.94043 0.0
C1058 C 0.59293 0.93068 0.92221 0.0
C1059 C 0.60125 0.9573 0.91954 0.0
C1060 C 0.58447 0.97786 0.93361 0.0
C1061 C 0.6106 0.90901 0.90467 0.0
C1062 C 0.63743 0.90863 0.91736 0.0
C1063 C 0.60146 0.88927 0.87448 0.0
C1064 C 0.57405 0.88943 0.85659 0.0
C1065 C 0.56438 0.91162 0.8326 0.0
C1066 C 0.53842 0.91175 0.81628 0.0
C1067 C 0.52202 0.8897 0.82342 0.0
C1068 C 0.53155 0.86748 0.84686 0.0
C1069 C 0.55748 0.86726 0.86328 0.0
H1070 H 0.50198 0.88978 0.81064 0.0
H1071 H 0.75841 0.89752 0.94253 0.0
H1072 H 0.5282 0.57114 0.9642 0.0
H1073 H 0.55773 0.60724 0.93723 0.0
H1074 H 0.6227 0.55189 0.92885 0.0
H1075 H 0.59344 0.51619 0.95562 0.0
H1076 H 0.6401 0.59701 0.96446 0.0
H1077 H 0.58769 0.57454 0.8337 0.0
H1078 H 0.54605 0.56878 0.79162 0.0
H1079 H 0.52729 0.65109 0.81036 0.0
H1080 H 0.56868 0.65725 0.85314 0.0
H1081 H 0.73616 0.65946 0.82591 0.0
H1082 H 0.70098 0.63027 0.85449 0.0
H1083 H 0.64582 0.69554 0.85118 0.0
H1084 H 0.68142 0.72501 0.82184 0.0
H1085 H 0.62055 0.64998 0.82582 0.0
H1086 H 0.67343 0.67373 0.95198 0.0
H1087 H 0.71463 0.68034 0.99491 0.0
H1088 H 0.7315 0.59697 0.98757 0.0
H1089 H 0.6906 0.58992 0.94394 0.0
C1090 C 0.54885 0.56678 0.9571 0.0
C1091 C 0.55844 0.54067 0.96288 0.0
C1092 C 0.56578 0.58745 0.94118 0.0
C1093 C 0.59277 0.58261 0.93039 0.0
C1094 C 0.60221 0.55656 0.93679 0.0
C1095 C 0.58534 0.536 0.95215 0.0
C1096 C 0.61138 0.60413 0.91217 0.0
C1097 C 0.63578 0.60835 0.9339 0.0
C1098 C 0.60586 0.61992 0.87302 0.0
C1099 C 0.58111 0.61628 0.84709 0.0
C1100 C 0.57458 0.59136 0.82916 0.0
C1101 C 0.55104 0.58803 0.80514 0.0
C1102 C 0.53399 0.60954 0.79845 0.0
C1103 C 0.54049 0.63444 0.81565 0.0
C1104 C 0.56399 0.63786 0.83978 0.0
C1105 C 0.71648 0.66764 0.83075 0.0
C1106 C 0.71171 0.69459 0.82059 0.0
C1107 C 0.69625 0.65085 0.8475 0.0
C1108 C 0.67044 0.66043 0.85603 0.0
C1109 C 0.66538 0.68735 0.84518 0.0
C1110 C 0.68579 0.70427 0.82818 0.0
C1111 C 0.6495 0.64236 0.87762 0.0
C1112 C 0.62475 0.63878 0.85659 0.0
C1113 C 0.65454 0.62725 0.91773 0.0
C1114 C 0.67904 0.63133 0.94437 0.0
C1115 C 0.68601 0.65683 0.95927 0.0
C1116 C 0.7093 0.66066 0.98375 0.0
C1117 C 0.72569 0.6391 0.99389 0.0
C1118 C 0.71879 0.61366 0.97966 0.0
C1119 C 0.69554 0.60973 0.95508 0.0
H1120 H 0.74373 0.6421 1.01284 0.0
H1121 H 0.51578 0.60692 0.77984 0.0
H1122 H 0.68827 0.27562 0.21567 0.0
H1123 H 0.65183 0.30371 0.18858 0.0
H1124 H 0.70395 0.37156 0.18727 0.0
H1125 H 0.74057 0.34337 0.21355 0.0
H1126 H 0.64995 0.38016 0.22619 0.0
H1127 H 0.69557 0.34509 0.09347 0.0
H1128 H 0.71303 0.30943 0.04475 0.0
H1129 H 0.63479 0.27659 0.03353 0.0
H1130 H 0.61692 0.31185 0.08284 0.0
H1131 H 0.58477 0.47561 0.09176 0.0
H1132 H 0.61659 0.44479 0.12493 0.0
H1133 H 0.56892 0.37868 0.08177 0.0
H1134 H 0.53739 0.40956 0.04698 0.0
H1135 H 0.61788 0.36633 0.06922 0.0
H1136 H 0.57063 0.40118 0.19575 0.0
H1137 H 0.5512 0.43584 0.24442 0.0
H1138 H 0.62895 0.46653 0.2708 0.0
H1139 H 0.64884 0.43233 0.22164 0.0
C1140 C 0.6918 0.29661 0.21059 0.0
C1141 C 0.71711 0.30745 0.2178 0.0
C1142 C 0.67101 0.31262 0.19474 0.0
C1143 C 0.67514 0.33978 0.18593 0.0
C1144 C 0.70025 0.35072 0.19409 0.0
C1145 C 0.72114 0.33462 0.20907 0.0
C1146 C 0.65381 0.35658 0.16594 0.0
C1147 C 0.64305 0.37732 0.19176 0.0
C1148 C 0.64417 0.35229 0.12156 0.0
C1149 C 0.65495 0.33094 0.0923 0.0
C1150 C 0.68213 0.33009 0.08107 0.0
C1151 C 0.69209 0.30999 0.05324 0.0
C1152 C 0.67503 0.29074 0.0361 0.0
C1153 C 0.64798 0.29151 0.04686 0.0
C1154 C 0.63793 0.31155 0.07474 0.0
C1155 C 0.58099 0.45452 0.08924 0.0
C1156 C 0.55839 0.44514 0.06675 0.0
C1157 C 0.5992 0.43683 0.10857 0.0
C1158 C 0.59503 0.40924 0.10696 0.0
C1159 C 0.57267 0.3998 0.0838 0.0
C1160 C 0.5546 0.41752 0.06388 0.0
C1161 C 0.6141 0.39041 0.12914 0.0
C1162 C 0.62447 0.36918 0.10382 0.0
C1163 C 0.62304 0.39397 0.17434 0.0
C1164 C 0.61121 0.4143 0.20465 0.0
C1165 C 0.58359 0.41541 0.21171 0.0
C1166 C 0.57249 0.43498 0.23939 0.0
C1167 C 0.58882 0.45342 0.2606 0.0
C1168 C 0.61631 0.45226 0.25431 0.0
C1169 C 0.62751 0.43277 0.22656 0.0
H1170 H 0.58018 0.46858 0.28196 0.0
H1171 H 0.68275 0.27532 1.01431 0.0
H1172 H 0.92474 0.4689 0.45314 0.0
H1173 H 0.89684 0.43274 0.42602 0.0
H1174 H 0.95919 0.37656 0.45413 0.0
H1175 H 0.98713 0.41252 0.4824 0.0
H1176 H 0.93146 0.37959 0.35772 0.0
H1177 H 0.91807 0.36655 0.5194 0.0
H1178 H 0.90849 0.38153 0.59742 0.0
H1179 H 0.83314 0.41202 0.55474 0.0
H1180 H 0.84234 0.39737 0.47635 0.0
H1181 H 0.84515 0.27342 0.2994 0.0
H1182 H 0.8794 0.30032 0.33473 0.0
H1183 H 0.82016 0.3578 0.37411 0.0
H1184 H 0.78573 0.33053 0.34042 0.0
H1185 H 0.85117 0.34878 0.44186 0.0
H1186 H 0.86499 0.3697 0.28248 0.0
H1187 H 0.87305 0.35972 0.20159 0.0
H1188 H 0.94501 0.31899 0.23608 0.0
H1189 H 0.93746 0.329 0.31722 0.0
C1190 C 0.93248 0.44886 0.45365 0.0
C1191 C 0.95802 0.44344 0.46977 0.0
C1192 C 0.91655 0.4283 0.43833 0.0
C1193 C 0.92613 0.40222 0.43833 0.0
C1194 C 0.95164 0.39668 0.45412 0.0
C1195 C 0.96743 0.41717 0.4703 0.0
C1196 C 0.90936 0.38102 0.42064 0.0
C1197 C 0.91421 0.37226 0.37632 0.0
C1198 C 0.88664 0.37233 0.4448 0.0
C1199 C 0.881 0.38105 0.49194 0.0
C1200 C 0.89956 0.37665 0.52656 0.0
C1201 C 0.89418 0.38504 0.57087 0.0
C1202 C 0.87029 0.39783 0.58099 0.0
C1203 C 0.85166 0.40214 0.54685 0.0
C1204 C 0.85692 0.39374 0.5025 0.0
C1205 C 0.83947 0.29187 0.3154 0.0
C1206 C 0.81281 0.29994 0.31723 0.0
C1207 C 0.85906 0.30724 0.33544 0.0
C1208 C 0.85233 0.33115 0.35671 0.0
C1209 C 0.82574 0.33933 0.35808 0.0
C1210 C 0.80611 0.32379 0.33871 0.0
C1211 C 0.87281 0.34762 0.37822 0.0
C1212 C 0.86867 0.35556 0.42335 0.0
C1213 C 0.89594 0.35596 0.35445 0.0
C1214 C 0.90052 0.34985 0.30584 0.0
C1215 C 0.88246 0.35851 0.27279 0.0
C1216 C 0.88699 0.35293 0.22692 0.0
C1217 C 0.90946 0.33861 0.21372 0.0
C1218 C 0.92758 0.33004 0.24636 0.0
C1219 C 0.92326 0.33576 0.29227 0.0
H1220 H 0.91285 0.33419 0.1782 0.0
H1221 H 0.86617 0.40432 0.61531 0.0
H1222 H 0.80295 0.71006 0.64449 0.0
H1223 H 0.8342 0.67892 0.60977 0.0
H1224 H 0.85471 0.64914 0.74288 0.0
H1225 H 0.82413 0.68084 0.77753 0.0
H1226 H 0.89732 0.65081 0.6952 0.0
H1227 H 0.81004 0.61677 0.66712 0.0
H1228 H 0.76413 0.61894 0.6391 0.0
H1229 H 0.79319 0.63268 0.50317 0.0
H1230 H 0.83929 0.63101 0.53051 0.0
H1231 H 0.9174 0.5138 0.57928 0.0
H1232 H 0.88823 0.54925 0.60646 0.0
H1233 H 0.95012 0.60666 0.57973 0.0
H1234 H 0.97957 0.57104 0.55421 0.0
H1235 H 0.86664 0.59177 0.57241 0.0
H1236 H 0.9464 0.65641 0.65769 0.0
H1237 H 0.99005 0.6518 0.69416 0.0
H1238 H 0.97273 0.57045 0.72754 0.0
H1239 H 0.92885 0.57466 0.69179 0.0
C1240 C 0.81424 0.69695 0.66636 0.0
C1241 C 0.81115 0.69809 0.7139 0.0
C1242 C 0.83205 0.67901 0.64644 0.0
C1243 C 0.84667 0.66118 0.67347 0.0
C1244 C 0.84386 0.66263 0.72104 0.0
C1245 C 0.82639 0.6809 0.74097 0.0
C1246 C 0.86446 0.6407 0.65244 0.0
C1247 C 0.89056 0.63801 0.66823 0.0
C1248 C 0.85578 0.62355 0.61758 0.0
C1249 C 0.8281 0.62402 0.60093 0.0
C1250 C 0.80663 0.62038 0.63129 0.0
C1251 C 0.78058 0.62152 0.61553 0.0
C1252 C 0.77575 0.626 0.5694 0.0
C1253 C 0.79696 0.62925 0.5389 0.0
C1254 C 0.82306 0.6282 0.5545 0.0
C1255 C 0.92465 0.53405 0.57882 0.0
C1256 C 0.95058 0.53968 0.56367 0.0
C1257 C 0.90794 0.55434 0.59425 0.0
C1258 C 0.9169 0.58076 0.5956 0.0
C1259 C 0.94273 0.58648 0.57969 0.0
C1260 C 0.9595 0.56612 0.56447 0.0
C1261 C 0.89946 0.60191 0.61523 0.0
C1262 C 0.87343 0.60474 0.59912 0.0
C1263 C 0.90798 0.61871 0.65065 0.0
C1264 C 0.93445 0.61581 0.67169 0.0
C1265 C 0.95191 0.63755 0.67284 0.0
C1266 C 0.97667 0.63501 0.69339 0.0
C1267 C 0.98413 0.61086 0.71316 0.0
C1268 C 0.96692 0.58914 0.71216 0.0
C1269 C 0.94212 0.59158 0.6917 0.0
H1270 H 0.00317 0.60906 0.7295 0.0
H1271 H 0.75557 0.62691 0.55727 0.0
H1272 H 0.32367 0.27637 0.2115 0.0
H1273 H 0.35838 0.30559 0.17994 0.0
H1274 H 0.3061 0.37277 0.19476 0.0
H1275 H 0.27114 0.34328 0.2229 0.0
H1276 H 0.3256 0.37946 0.12031 0.0
H1277 H 0.3871 0.36829 0.26009 0.0
H1278 H 0.41404 0.34217 0.314 0.0
H1279 H 0.43564 0.28838 0.2075 0.0
H1280 H 0.40986 0.31505 0.15259 0.0
H1281 H 0.41327 0.4874 0.07963 0.0
H1282 H 0.38304 0.45316 0.10732 0.0
H1283 H 0.44322 0.39385 0.08439 0.0
H1284 H 0.47442 0.42894 0.05996 0.0
H1285 H 0.42136 0.37978 0.15584 0.0
H1286 H 0.374 0.39832 1.01619 0.0
H1287 H 0.35335 0.42648 0.95701 0.0
H1288 H 0.30521 0.46417 0.05884 0.0
H1289 H 0.32535 0.43591 0.11826 0.0
C1290 C 0.31983 0.29747 0.20889 0.0
C1291 C 0.29446 0.30736 0.2203 0.0
C1292 C 0.33997 0.31448 0.19099 0.0
C1293 C 0.33567 0.3421 0.18474 0.0
C1294 C 0.31054 0.35183 0.19819 0.0
C1295 C 0.29037 0.33485 0.21487 0.0
C1296 C 0.35573 0.36075 0.16108 0.0
C1297 C 0.34644 0.37955 0.12904 0.0
C1298 C 0.38352 0.36088 0.1693 0.0
C1299 C 0.39597 0.34308 0.2028 0.0
C1300 C 0.39727 0.35064 0.24846 0.0
C1301 C 0.41266 0.33601 0.27896 0.0
C1302 C 0.42634 0.31348 0.26428 0.0
C1303 C 0.4249 0.30571 0.21891 0.0
C1304 C 0.4101 0.3207 0.18803 0.0
C1305 C 0.42005 0.467 0.07971 0.0
C1306 C 0.44626 0.46111 0.066 0.0
C1307 C 0.4024 0.44709 0.09519 0.0
C1308 C 0.40991 0.42014 0.09706 0.0
C1309 C 0.43627 0.41417 0.08327 0.0
C1310 C 0.45419 0.43431 0.06848 0.0
C1311 C 0.39102 0.39889 0.11634 0.0
C1312 C 0.40048 0.37965 0.14728 0.0
C1313 C 0.3634 0.39813 0.10671 0.0
C1314 C 0.35156 0.41545 0.0715 0.0
C1315 C 0.35926 0.41288 0.0258 0.0
C1316 C 0.34752 0.4287 0.99228 0.0
C1317 C 0.32821 0.44733 1.00422 0.0
C1318 C 0.32029 0.44986 0.04965 0.0
C1319 C 0.33173 0.43383 0.0832 0.0
H1320 H 0.31927 0.45968 0.97826 0.0
H1321 H 0.43813 0.30209 0.28804 0.0
H1322 H 0.44638 0.5823 0.02247 0.0
H1323 H 0.41211 0.61134 0.99259 0.0
H1324 H 0.40922 0.5644 0.87079 0.0
H1325 H 0.44198 0.53404 0.90253 0.0
H1326 H 0.40667 0.64346 0.92998 0.0
H1327 H 0.35094 0.56707 0.81901 0.0
H1328 H 0.34129 0.51905 0.81887 0.0
H1329 H 0.35017 0.51565 0.96383 0.0
H1330 H 0.35952 0.56371 0.96492 0.0
H1331 H 0.31523 0.72169 0.8108 0.0
H1332 H 0.35037 0.69045 0.82858 0.0
H1333 H 0.29215 0.63624 0.88543 0.0
H1334 H 0.25682 0.66548 0.85909 0.0
H1335 H 0.32576 0.6074 0.85872 0.0
H1336 H 0.33764 0.68672 0.94835 0.0
H1337 H 0.34237 0.7353 0.9547 0.0
H1338 H 0.41419 0.73276 0.87515 0.0
H1339 H 0.40969 0.68422 0.8678 0.0
C1340 C 0.43821 0.57782 0.98978 0.0
C1341 C 0.44664 0.55531 0.96577 0.0
C1342 C 0.41866 0.59472 0.97228 0.0
C1343 C 0.40735 0.58999 0.92959 0.0
C1344 C 0.41669 0.56818 0.90448 0.0
C1345 C 0.4357 0.55083 0.92264 0.0
C1346 C 0.38586 0.6078 0.91169 0.0
C1347 C 0.3889 0.63548 0.91474 0.0
C1348 C 0.36231 0.59776 0.89217 0.0
C1349 C 0.3562 0.56894 0.89193 0.0
C1350 C 0.35071 0.5561 0.85086 0.0
C1351 C 0.34532 0.52887 0.85063 0.0
C1352 C 0.34521 0.5143 0.8913 0.0
C1353 C 0.35036 0.52695 0.93234 0.0
C1354 C 0.35571 0.55417 0.93278 0.0
C1355 C 0.30987 0.70259 0.82504 0.0
C1356 C 0.28314 0.69559 0.83129 0.0
C1357 C 0.33017 0.68494 0.83696 0.0
C1358 C 0.32446 0.66097 0.86015 0.0
C1359 C 0.29758 0.6543 0.8674 0.0
C1360 C 0.27725 0.6712 0.85265 0.0
C1361 C 0.34616 0.64319 0.87794 0.0
C1362 C 0.34331 0.61546 0.87451 0.0
C1363 C 0.36924 0.65317 0.89937 0.0
C1364 C 0.37323 0.68191 0.90728 0.0
C1365 C 0.35454 0.69653 0.93252 0.0
C1366 C 0.35713 0.72405 0.93613 0.0
C1367 C 0.37851 0.7371 0.91515 0.0
C1368 C 0.39762 0.72261 0.89127 0.0
C1369 C 0.39509 0.6951 0.88744 0.0
H1370 H 0.38025 0.75843 0.9172 0.0
H1371 H 0.34109 0.49322 0.89103 0.0
H1372 H 0.21168 0.68354 0.6899 0.0
H1373 H 0.17519 0.65967 0.65536 0.0
H1374 H 0.11887 0.70369 0.73607 0.0
H1375 H 0.15523 0.7286 0.76996 0.0
H1376 H 0.11602 0.64106 0.7301 0.0
H1377 H 0.11494 0.72295 0.64557 0.0
H1378 H 0.13674 0.76021 0.60502 0.0
H1379 H 0.16827 0.7064 0.506 0.0
H1380 H 0.14724 0.66871 0.54658 0.0
H1381 H 0.02487 0.59833 0.53299 0.0
H1382 H 0.04823 0.63399 0.57151 0.0
H1383 H 0.10797 0.57831 0.6154 0.0
H1384 H 0.08443 0.5424 0.57804 0.0
H1385 H 0.09839 0.65468 0.56569 0.0
H1386 H 0.12379 0.59088 0.72408 0.0
H1387 H 0.10716 0.55006 0.76137 0.0
H1388 H 0.02895 0.56582 0.71163 0.0
H1389 H 0.04487 0.60726 0.67521 0.0
C1390 C 0.19161 0.68821 0.70053 0.0
C1391 C 0.1864 0.70784 0.73299 0.0
C1392 C 0.17083 0.67454 0.68073 0.0
C1393 C 0.14459 0.6801 0.69334 0.0
C1394 C 0.13915 0.69923 0.72627 0.0
C1395 C 0.15995 0.71329 0.74565 0.0
C1396 C 0.12315 0.6657 0.67112 0.0
C1397 C 0.11163 0.64421 0.69442 0.0
C1398 C 0.11765 0.67023 0.62473 0.0
C1399 C 0.12958 0.69296 0.59928 0.0
C1400 C 0.12665 0.71903 0.61531 0.0
C1401 C 0.13886 0.74023 0.59232 0.0
C1402 C 0.15385 0.73567 0.55296 0.0
C1403 C 0.15662 0.7099 0.53647 0.0
C1404 C 0.14454 0.68861 0.55944 0.0
C1405 C 0.04316 0.59373 0.55038 0.0
C1406 C 0.05272 0.56755 0.55308 0.0
C1407 C 0.05643 0.61412 0.57231 0.0
C1408 C 0.0794 0.60856 0.597 0.0
C1409 C 0.08986 0.58277 0.59732 0.0
C1410 C 0.07646 0.56232 0.57594 0.0
C1411 C 0.09194 0.62934 0.62422 0.0
C1412 C 0.10189 0.65196 0.60176 0.0
C1413 C 0.09602 0.62579 0.67147 0.0
C1414 C 0.0856 0.60218 0.69668 0.0
C1415 C 0.10294 0.58593 0.72172 0.0
C1416 C 0.09364 0.56264 0.74263 0.0
C1417 C 0.06704 0.55535 0.73876 0.0
C1418 C 0.04955 0.57154 0.71461 0.0
C1419 C 0.05868 0.59498 0.69393 0.0
H1420 H 0.06003 0.53708 0.7543 0.0
H1421 H 0.16331 0.75211 0.53524 0.0
H1422 H 0.23177 0.33432 0.34562 0.0
H1423 H 0.20185 0.36788 0.37657 0.0
H1424 H 0.13444 0.32096 0.33684 0.0
H1425 H 0.16433 0.28791 0.30415 0.0
H1426 H 0.12294 0.36866 0.32 0.0
H1427 H 0.1575 0.32643 0.45167 0.0
H1428 H 0.19165 0.30881 0.5032 0.0
H1429 H 0.223 0.38727 0.52033 0.0
H1430 H 0.18929 0.40534 0.4683 0.0
H1431 H 0.03122 0.44022 0.46155 0.0
H1432 H 0.06093 0.40424 0.43808 0.0
H1433 H 0.12573 0.45981 0.42663 0.0
H1434 H 0.09586 0.496 0.44939 0.0
H1435 H 0.13689 0.40665 0.47295 0.0
H1436 H 0.10038 0.44663 0.33559 0.0
H1437 H 0.06296 0.46165 0.28851 0.0
H1438 H 0.03128 0.38253 0.28886 0.0
H1439 H 0.06832 0.36714 0.33661 0.0
C1440 C 0.21057 0.3311 0.34355 0.0
C1441 C 0.20051 0.30834 0.32243 0.0
C1442 C 0.19339 0.35029 0.36158 0.0
C1443 C 0.16568 0.34692 0.36007 0.0
C1444 C 0.15564 0.32421 0.33868 0.0
C1445 C 0.17281 0.30523 0.31999 0.0
C1446 C 0.14722 0.36722 0.37999 0.0
C1447 C 0.12592 0.37658 0.35373 0.0
C1448 C 0.15083 0.37792 0.42404 0.0
C1449 C 0.17102 0.3672 0.45568 0.0
C1450 C 0.17179 0.33991 0.46616 0.0
C1451 C 0.19106 0.32984 0.49549 0.0
C1452 C 0.20953 0.3469 0.51492 0.0
C1453 C 0.20871 0.37408 0.50519 0.0
C1454 C 0.18951 0.38425 0.4758 0.0
C1455 C 0.05188 0.44469 0.45493 0.0
C1456 C 0.06138 0.47083 0.45835 0.0
C1457 C 0.06883 0.42413 0.44126 0.0
C1458 C 0.0956 0.4293 0.43079 0.0
C1459 C 0.10522 0.45532 0.43491 0.0
C1460 C 0.08816 0.47596 0.44777 0.0
C1461 C 0.11314 0.40797 0.4127 0.0
C1462 C 0.1341 0.39848 0.43934 0.0
C1463 C 0.10888 0.39667 0.36954 0.0
C1464 C 0.08696 0.4058 0.34002 0.0
C1465 C 0.08533 0.43248 0.3259 0.0
C1466 C 0.0642 0.44106 0.29906 0.0
C1467 C 0.04472 0.42307 0.2858 0.0
C1468 C 0.04637 0.39645 0.29921 0.0
C1469 C 0.06743 0.38778 0.32613 0.0
H1470 H 0.02837 0.42976 0.26504 0.0
H1471 H 0.22445 0.33906 0.5376 0.0
H1472 H 0.04914 0.04524 0.85073 0.0
H1473 H 0.04398 0.03364 0.93105 0.0
H1474 H 0.96839 0.99733 0.90352 0.0
H1475 H 0.97329 0.00943 0.82267 0.0
H1476 H 0.96555 0.03018 0.97684 0.0
H1477 H 0.02213 0.95937 0.92817 0.0
H1478 H 0.06118 0.93923 0.89102 0.0
H1479 H 0.1127 0.98093 0.98119 0.0
H1480 H 0.07396 1.00163 0.0185 0.0
H1481 H 0.95 0.96417 0.19008 0.0
H1482 H 0.95457 0.97711 0.11022 0.0
H1483 H 0.03063 0.01243 0.13773 0.0
H1484 H 0.02631 0.99901 0.21801 0.0
H1485 H 0.03316 0.98044 0.06451 0.0
H1486 H 0.977 0.051 0.11376 0.0
H1487 H 0.9382 0.07143 0.15125 0.0
H1488 H 0.88617 0.03077 0.06056 0.0
H1489 H 0.92465 0.00979 0.02291 0.0
C1490 C 0.03147 0.03463 0.86167 0.0
C1491 C 0.01156 0.02835 0.83032 0.0
C1492 C 0.02861 0.02787 0.90763 0.0
C1493 C 0.00584 0.01451 0.92347 0.0
C1494 C 0.98614 0.00766 0.89213 0.0
C1495 C 0.98906 0.01434 0.84589 0.0
C1496 C 0.00238 0.00864 0.97297 0.0
C1497 C 0.98011 0.01892 0.99588 0.0
C1498 C 0.02179 0.99469 0.99819 0.0
C1499 C 0.04513 0.98224 0.97586 0.0
C1500 C 0.04179 0.96442 0.93984 0.0
C1501 C 0.06387 0.95287 0.9188 0.0
C1502 C 0.0894 0.95885 0.93366 0.0
C1503 C 0.09291 0.97635 0.96968 0.0
C1504 C 0.07089 0.98797 0.99082 0.0
C1505 C 0.96763 0.97489 0.17924 0.0
C1506 C 0.98787 0.98045 0.21035 0.0
C1507 C 0.97013 0.98244 0.13356 0.0
C1508 C 0.9929 0.99585 0.11783 0.0
C1509 C 0.01287 1.0021 0.14905 0.0
C1510 C 0.0103 0.99464 0.19497 0.0
C1511 C 0.99633 1.00196 0.06842 0.0
C1512 C 0.01859 0.99171 0.04551 0.0
C1513 C 0.97694 0.01599 0.04326 0.0
C1514 C 0.95373 0.02862 0.06577 0.0
C1515 C 0.95728 0.04624 0.10204 0.0
C1516 C 0.93535 0.05795 0.12328 0.0
C1517 C 0.90974 0.05235 0.10837 0.0
C1518 C 0.90602 0.03507 0.07211 0.0
C1519 C 0.92789 0.02328 0.05077 0.0
H1520 H 0.89278 0.06144 0.12486 0.0
H1521 H 0.10647 0.94988 0.91733 0.0
H1522 H 0.27894 0.69217 0.44374 0.0
H1523 H 0.26934 0.70127 0.36399 0.0
H1524 H 0.24766 0.78157 0.39724 0.0
H1525 H 0.25758 0.77264 0.47758 0.0
H1526 H 0.21398 0.75982 0.33429 0.0
H1527 H 0.30775 0.76919 0.35236 0.0
H1528 H 0.35256 0.75559 0.37595 0.0
H1529 H 0.34916 0.68854 0.2872 0.0
H1530 H 0.30413 0.70152 0.26358 0.0
H1531 H 0.22234 0.81402 0.11287 0.0
H1532 H 0.23178 0.80438 0.19247 0.0
H1533 H 0.25204 0.72387 0.15816 0.0
H1534 H 0.24217 0.73331 0.07794 0.0
H1535 H 0.28637 0.74546 0.22149 0.0
H1536 H 0.19259 0.73632 0.20319 0.0
H1537 H 0.14787 0.75015 0.17948 0.0
H1538 H 0.15141 0.81701 0.26862 0.0
H1539 H 0.19636 0.80381 0.29235 0.0
C1540 C 0.27212 0.71181 0.43422 0.0
C1541 C 0.26946 0.73181 0.4671 0.0
C1542 C 0.26662 0.71696 0.38851 0.0
C1543 C 0.25832 0.74227 0.37432 0.0
C1544 C 0.25422 0.76193 0.4073 0.0
C1545 C 0.25978 0.75677 0.45327 0.0
C1546 C 0.25473 0.7482 0.32494 0.0
C1547 C 0.22993 0.75703 0.30975 0.0
C1548 C 0.27533 0.74399 0.29258 0.0
C1549 C 0.30245 0.73618 0.30655 0.0
C1550 C 0.31646 0.75142 0.33815 0.0
C1551 C 0.34192 0.74384 0.35149 0.0
C1552 C 0.35367 0.72118 0.33318 0.0
C1553 C 0.34001 0.70607 0.3014 0.0
C1554 C 0.31453 0.71354 0.28801 0.0
C1555 C 0.22878 0.79421 0.12211 0.0
C1556 C 0.23104 0.77431 0.08897 0.0
C1557 C 0.23421 0.78875 0.16774 0.0
C1558 C 0.24209 0.76325 0.18158 0.0
C1559 C 0.24581 0.74366 0.14835 0.0
C1560 C 0.24028 0.74911 0.10246 0.0
C1561 C 0.24564 0.75708 0.23087 0.0
C1562 C 0.27043 0.74822 0.24604 0.0
C1563 C 0.22504 0.76129 0.26321 0.0
C1564 C 0.19795 0.76921 0.24921 0.0
C1565 C 0.18393 0.7541 0.21746 0.0
C1566 C 0.15852 0.7618 0.20406 0.0
C1567 C 0.14683 0.78448 0.22245 0.0
C1568 C 0.16051 0.79947 0.25436 0.0
C1569 C 0.18594 0.79187 0.26783 0.0
H1570 H 0.12716 0.79041 0.21204 0.0
H1571 H 0.37339 0.71535 0.34353 0.0
H1572 H 0.47216 0.99035 0.69999 0.0
H1573 H 0.47941 0.9798 0.61957 0.0
H1574 H 0.51265 0.05778 0.59658 0.0
H1575 H 0.50452 0.06857 0.67636 0.0
H1576 H 0.48005 0.04819 0.53211 0.0
H1577 H 0.55089 0.99774 0.59974 0.0
H1578 H 0.57018 0.9649 0.65262 0.0
H1579 H 0.52228 0.90355 0.59497 0.0
H1580 H 0.50246 0.93609 0.54212 0.0
H1581 H 0.5334 0.02494 0.30925 0.0
H1582 H 0.52567 0.03549 0.38957 0.0
H1583 H 0.49249 0.95744 0.41209 0.0
H1584 H 0.50098 0.94668 0.33242 0.0
H1585 H 0.52489 0.96699 0.47679 0.0
H1586 H 0.45413 0.01722 0.40906 0.0
H1587 H 0.43436 0.05001 0.35664 0.0
H1588 H 0.4817 0.11169 0.41456 0.0
H1589 H 0.502 0.07921 0.46696 0.0
C1590 C 0.48141 0.00502 0.67786 0.0
C1591 C 0.48776 0.03026 0.69448 0.0
C1592 C 0.48557 0.99901 0.63181 0.0
C1593 C 0.49677 0.01793 0.60164 0.0
C1594 C 0.50384 0.04286 0.61877 0.0
C1595 C 0.49932 0.04897 0.6645 0.0
C1596 C 0.50026 0.0123 0.55201 0.0
C1597 C 0.4902 0.03059 0.5201 0.0
C1598 C 0.51286 0.98904 0.5359 0.0
C1599 C 0.52503 0.9694 0.56725 0.0
C1600 C 0.54437 0.97727 0.59852 0.0
C1601 C 0.55541 0.95871 0.62846 0.0
C1602 C 0.54741 0.93217 0.62723 0.0
C1603 C 0.52844 0.92412 0.59593 0.0
C1604 C 0.51732 0.9426 0.56593 0.0
C1605 C 0.52404 0.01025 0.33125 0.0
C1606 C 0.51782 0.98499 0.31453 0.0
C1607 C 0.51961 0.01626 0.37723 0.0
C1608 C 0.50832 0.99733 0.40725 0.0
C1609 C 0.50136 0.97239 0.39002 0.0
C1610 C 0.50612 0.96627 0.34435 0.0
C1611 C 0.50471 0.0029 0.45687 0.0
C1612 C 0.51475 0.98461 0.48879 0.0
C1613 C 0.49206 0.02615 0.47297 0.0
C1614 C 0.47976 0.04573 0.44165 0.0
C1615 C 0.46045 0.03775 0.41041 0.0
C1616 C 0.44913 0.05628 0.38073 0.0
C1617 C 0.45681 0.08291 0.38219 0.0
C1618 C 0.47579 0.09106 0.41343 0.0
C1619 C 0.48719 0.0726 0.44316 0.0
H1620 H 0.44803 0.09722 0.35918 0.0
H1621 H 0.55596 0.91784 0.65048 0.0
H1622 H 0.24702 0.27721 0.96811 0.0
H1623 H 0.25925 0.28236 0.88749 0.0
H1624 H 0.21996 0.20857 0.85783 0.0
H1625 H 0.20836 0.20302 0.93813 0.0
H1626 H 0.26485 0.21225 0.8102 0.0
H1627 H 0.1899 0.26903 0.83834 0.0
H1628 H 0.16516 0.3047 0.87685 0.0
H1629 H 0.22494 0.36109 0.83624 0.0
H1630 H 0.25023 0.32566 0.79799 0.0
H1631 H 0.25564 0.22844 0.57043 0.0
H1632 H 0.24268 0.22349 0.65075 0.0
H1633 H 0.28119 0.29765 0.68074 0.0
H1634 H 0.29345 0.30303 0.6007 0.0
H1635 H 0.23654 0.29375 0.7282 0.0
H1636 H 0.31163 0.23712 0.70048 0.0
H1637 H 0.33658 0.20155 0.6621 0.0
H1638 H 0.27682 0.14498 0.70208 0.0
H1639 H 0.25133 0.18031 0.7402 0.0
C1640 C 0.2414 0.26188 0.94451 0.0
C1641 C 0.22646 0.23985 0.95956 0.0
C1642 C 0.24816 0.26496 0.89832 0.0
C1643 C 0.2401 0.24609 0.86625 0.0
C1644 C 0.22627 0.22351 0.88166 0.0
C1645 C 0.2195 0.22045 0.92764 0.0
C1646 C 0.24531 0.25004 0.81652 0.0
C1647 C 0.25839 0.22996 0.79223 0.0
C1648 C 0.23731 0.2733 0.79293 0.0
C1649 C 0.22209 0.29464 0.81572 0.0
C1650 C 0.19786 0.289 0.83792 0.0
C1651 C 0.18373 0.30918 0.85965 0.0
C1652 C 0.19351 0.33513 0.8591 0.0
C1653 C 0.21741 0.34097 0.8367 0.0
C1654 C 0.23165 0.32085 0.81497 0.0
C1655 C 0.26089 0.24391 0.59401 0.0
C1656 C 0.27587 0.26597 0.57918 0.0
C1657 C 0.25372 0.24094 0.64005 0.0
C1658 C 0.26142 0.25993 0.67218 0.0
C1659 C 0.27516 0.2826 0.65689 0.0
C1660 C 0.28231 0.28557 0.61106 0.0
C1661 C 0.25609 0.25595 0.72187 0.0
C1662 C 0.243 0.27603 0.74616 0.0
C1663 C 0.26411 0.2327 0.74548 0.0
C1664 C 0.27945 0.21141 0.72277 0.0
C1665 C 0.30372 0.21713 0.7008 0.0
C1666 C 0.31797 0.19701 0.67914 0.0
C1667 C 0.30825 0.17103 0.67954 0.0
C1668 C 0.2843 0.16512 0.70173 0.0
C1669 C 0.26995 0.18518 0.72339 0.0
H1670 H 0.31931 0.15548 0.66276 0.0
H1671 H 0.18253 0.35072 0.87593 0.0
H1672 H 0.76484 0.27402 0.96517 0.0
H1673 H 0.75384 0.28211 0.88514 0.0
H1674 H 0.76237 0.19853 0.85807 0.0
H1675 H 0.77388 0.19056 0.93754 0.0
H1676 H 0.7876 0.22564 0.79501 0.0
H1677 H 0.70088 0.23086 0.86342 0.0
H1678 H 0.6681 0.24755 0.91897 0.0
H1679 H 0.6778 0.32656 0.86542 0.0
H1680 H 0.71104 0.31042 0.81008 0.0
H1681 H 0.73401 0.22779 0.57062 0.0
H1682 H 0.74355 0.21915 0.65103 0.0
H1683 H 0.73304 0.30231 0.6798 0.0
H1684 H 0.72285 0.31079 0.59993 0.0
H1685 H 0.7085 0.27509 0.74229 0.0
H1686 H 0.79601 0.27018 0.67556 0.0
H1687 H 0.83038 0.25398 0.62241 0.0
H1688 H 0.8197 0.17461 0.67379 0.0
H1689 H 0.78502 0.19029 0.72688 0.0
C1690 C 0.76392 0.25736 0.94225 0.0
C1691 C 0.77036 0.23169 0.95761 0.0
C1692 C 0.75767 0.26198 0.89643 0.0
C1693 C 0.75721 0.24092 0.86526 0.0
C1694 C 0.76279 0.21517 0.88111 0.0
C1695 C 0.76929 0.21062 0.92663 0.0
C1696 C 0.75181 0.24566 0.81591 0.0
C1697 C 0.77008 0.23614 0.78351 0.0
C1698 C 0.7293 0.25987 0.80064 0.0
C1699 C 0.70862 0.26946 0.83282 0.0
C1700 C 0.6961 0.25181 0.86359 0.0
C1701 C 0.67745 0.26117 0.89507 0.0
C1702 C 0.67092 0.28811 0.89579 0.0
C1703 C 0.68291 0.30571 0.86486 0.0
C1704 C 0.70165 0.29646 0.8334 0.0
C1705 C 0.73414 0.24425 0.59403 0.0
C1706 C 0.72766 0.26996 0.57887 0.0
C1707 C 0.73958 0.23932 0.64009 0.0
C1708 C 0.73921 0.2601 0.67184 0.0
C1709 C 0.73331 0.28586 0.65635 0.0
C1710 C 0.72758 0.29072 0.61056 0.0
C1711 C 0.74432 0.25508 0.72128 0.0
C1712 C 0.72599 0.26454 0.75374 0.0
C1713 C 0.76679 0.24081 0.73665 0.0
C1714 C 0.78773 0.23138 0.70488 0.0
C1715 C 0.80086 0.24924 0.67531 0.0
C1716 C 0.82042 0.24015 0.64523 0.0
C1717 C 0.82717 0.21327 0.64464 0.0
C1718 C 0.81443 0.19542 0.67424 0.0
C1719 C 0.79484 0.2044 0.70435 0.0
H1720 H 0.84231 0.20626 0.62132 0.0
H1721 H 0.65653 0.29533 0.92028 0.0
H1722 H 0.68324 0.75959 0.43682 0.0
H1723 H 0.69582 0.7629 0.35655 0.0
H1724 H 0.77283 0.73044 0.38719 0.0
H1725 H 0.76038 0.72742 0.46795 0.0
H1726 H 0.77752 0.76923 0.32583 0.0
H1727 H 0.72258 0.69195 0.34182 0.0
H1728 H 0.68261 0.66672 0.36465 0.0
H1729 H 0.63505 0.71564 0.27731 0.0
H1730 H 0.67469 0.74143 0.25444 0.0
H1731 H 0.81415 0.73471 0.10227 0.0
H1732 H 0.80071 0.73104 0.18207 0.0
H1733 H 0.72547 0.76713 0.15063 0.0
H1734 H 0.73887 0.77086 0.07034 0.0
H1735 H 0.7197 0.72662 0.21204 0.0
H1736 H 0.77516 0.80369 0.19594 0.0
H1737 H 0.81543 0.82836 0.17291 0.0
H1738 H 0.8624 0.77902 0.26053 0.0
H1739 H 0.82244 0.75379 0.28358 0.0
C1740 C 0.7029 0.75322 0.4265 0.0
C1741 C 0.72072 0.74299 0.45873 0.0
C1742 C 0.71005 0.75505 0.38052 0.0
C1743 C 0.73507 0.74634 0.36547 0.0
C1744 C 0.75334 0.73714 0.39784 0.0
C1745 C 0.74625 0.73551 0.44403 0.0
C1746 C 0.74194 0.74644 0.31597 0.0
C1747 C 0.76504 0.75959 0.30109 0.0
C1748 C 0.72541 0.73437 0.2833 0.0
C1749 C 0.70157 0.71878 0.29675 0.0
C1750 C 0.70357 0.69745 0.32772 0.0
C1751 C 0.68098 0.68303 0.34064 0.0
C1752 C 0.6563 0.68962 0.32253 0.0
C1753 C 0.65417 0.71059 0.29136 0.0
C1754 C 0.6767 0.7251 0.27838 0.0
C1755 C 0.79468 0.74178 0.11225 0.0
C1756 C 0.77771 0.7534 0.07997 0.0
C1757 C 0.78703 0.7397 0.15795 0.0
C1758 C 0.7623 0.74935 0.17265 0.0
C1759 C 0.74472 0.75969 0.14018 0.0
C1760 C 0.75235 0.76172 0.09425 0.0
C1761 C 0.75527 0.74936 0.22203 0.0
C1762 C 0.73215 0.73625 0.23684 0.0
C1763 C 0.77182 0.76139 0.25466 0.0
C1764 C 0.79584 0.7767 0.24117 0.0
C1765 C 0.7941 0.79798 0.21006 0.0
C1766 C 0.81687 0.81208 0.19703 0.0
C1767 C 0.84147 0.80522 0.21516 0.0
C1768 C 0.84334 0.78429 0.24647 0.0
C1769 C 0.82063 0.7701 0.25956 0.0
H1770 H 0.85908 0.81616 0.20503 0.0
H1771 H 0.63883 0.67843 0.33257 0.0
H1772 H 0.45197 0.46202 0.68435 0.0
H1773 H 0.45863 0.47338 0.60418 0.0
H1774 H 0.53765 0.50098 0.63296 0.0
H1775 H 0.53089 0.48988 0.7138 0.0
H1776 H 0.51446 0.53292 0.57176 0.0
H1777 H 0.52647 0.43894 0.58745 0.0
H1778 H 0.51427 0.3934 0.61089 0.0
H1779 H 0.44549 0.39686 0.52611 0.0
H1780 H 0.45708 0.4426 0.50266 0.0
H1781 H 0.56209 0.53249 0.34549 0.0
H1782 H 0.55568 0.52103 0.4257 0.0
H1783 H 0.47607 0.4948 0.39799 0.0
H1784 H 0.48248 0.50618 0.31722 0.0
H1785 H 0.4998 0.4621 0.4586 0.0
H1786 H 0.48786 0.55618 0.44311 0.0
H1787 H 0.50024 0.60167 0.4196 0.0
H1788 H 0.56917 0.59786 0.50397 0.0
H1789 H 0.55741 0.55218 0.52748 0.0
C1790 C 0.47075 0.47063 0.67369 0.0
C1791 C 0.49103 0.47474 0.70542 0.0
C1792 C 0.47457 0.47704 0.62773 0.0
C1793 C 0.4989 0.48742 0.6121 0.0
C1794 C 0.51876 0.4928 0.64403 0.0
C1795 C 0.51486 0.48654 0.69028 0.0
C1796 C 0.50367 0.49202 0.56239 0.0
C1797 C 0.51162 0.51731 0.54713 0.0
C1798 C 0.49942 0.47187 0.52988 0.0
C1799 C 0.49252 0.44429 0.54363 0.0
C1800 C 0.50865 0.43006 0.57404 0.0
C1801 C 0.50185 0.40421 0.5873 0.0
C1802 C 0.47909 0.39227 0.57008 0.0
C1803 C 0.4631 0.40615 0.53946 0.0
C1804 C 0.46979 0.43203 0.52615 0.0
C1805 C 0.54323 0.52418 0.35639 0.0
C1806 C 0.52266 0.52059 0.325 0.0
C1807 C 0.53957 0.51768 0.40235 0.0
C1808 C 0.51517 0.50763 0.41828 0.0
C1809 C 0.49503 0.5027 0.38666 0.0
C1810 C 0.49873 0.50912 0.34045 0.0
C1811 C 0.51057 0.50299 0.468 0.0
C1812 C 0.50265 0.47769 0.48324 0.0
C1813 C 0.51488 0.52312 0.5005 0.0
C1814 C 0.52188 0.55067 0.48672 0.0
C1815 C 0.50576 0.56498 0.4564 0.0
C1816 C 0.51265 0.5908 0.44311 0.0
C1817 C 0.53551 0.60262 0.46019 0.0
C1818 C 0.55149 0.58867 0.49072 0.0
C1819 C 0.54471 0.56282 0.50406 0.0
H1820 H 0.54082 0.62262 0.44986 0.0
H1821 H 0.47386 0.37225 0.58039 0.0
H1822 H 0.02889 0.52326 0.81257 0.0
H1823 H 0.02124 0.53435 0.89268 0.0
H1824 H 0.99974 0.45306 0.92155 0.0
H1825 H 0.0072 0.44193 0.84175 0.0
H1826 H 0.96735 0.48753 0.9669 0.0
H1827 H 0.061 0.47442 0.94488 0.0
H1828 H 0.10456 0.48224 0.90828 0.0
H1829 H 0.1016 0.56413 0.94708 0.0
H1830 H 0.0578 0.55686 0.98337 0.0
H1831 H 0.98033 0.48905 0.20772 0.0
H1832 H 0.98764 0.47772 0.12755 0.0
H1833 H 0.01194 0.55826 0.09879 0.0
H1834 H 0.00512 0.56951 0.17868 0.0
H1835 H 0.0429 0.52408 0.05323 0.0
H1836 H 0.94946 0.53754 0.07507 0.0
H1837 H 0.9056 0.53021 0.11087 0.0
H1838 H 0.90782 0.44832 0.07194 0.0
H1839 H 0.9519 0.45509 0.03643 0.0
C1840 C 0.0222 0.50784 0.83582 0.0
C1841 C 0.01908 0.48162 0.82078 0.0
C1842 C 0.01798 0.51416 0.88172 0.0
C1843 C 0.01033 0.49444 0.91344 0.0
C1844 C 0.0058 0.46859 0.89794 0.0
C1845 C 0.01023 0.46224 0.85228 0.0
C1846 C 0.00807 0.50032 0.96301 0.0
C1847 C 0.98396 0.49525 0.98585 0.0
C1848 C 0.02957 0.51079 0.9878 0.0
C1849 C 0.056 0.51516 0.96641 0.0
C1850 C 0.06955 0.49414 0.94531 0.0
C1851 C 0.09429 0.49846 0.92466 0.0
C1852 C 0.10581 0.52368 0.92524 0.0
C1853 C 0.09263 0.54461 0.94659 0.0
C1854 C 0.06786 0.5404 0.96723 0.0
C1855 C 0.98766 0.5042 0.18445 0.0
C1856 C 0.99188 0.53024 0.19957 0.0
C1857 C 0.9916 0.49778 0.13851 0.0
C1858 C 0.99993 0.51725 0.10679 0.0
C1859 C 0.00537 0.54291 0.12236 0.0
C1860 C 1.00131 0.54934 0.16808 0.0
C1861 C 1.00215 0.5113 0.0572 0.0
C1862 C 0.02627 0.51636 0.03432 0.0
C1863 C 0.98063 0.50087 0.03236 0.0
C1864 C 0.9541 0.49675 0.05354 0.0
C1865 C 0.94069 0.51791 0.07446 0.0
C1866 C 0.91577 0.51387 0.09465 0.0
C1867 C 0.90396 0.4888 0.0938 0.0
C1868 C 0.91702 0.46773 0.07264 0.0
C1869 C 0.94196 0.47165 0.05246 0.0
H1870 H 0.88466 0.48571 0.10943 0.0
H1871 H 0.12497 0.52699 0.90923 0.0
loop_
_geom_bond_atom_site_label_1
_geom_bond_atom_site_label_2
_geom_bond_distance
_geom_bond_site_symmetry_2
_ccdc_geom_bond_type
Gd0 N31 2.657 . S
Gd0 N37 2.601 . S
Gd0 O44 2.547 1_455 S
Gd0 O45 2.607 1_445 S
Gd0 O47 2.432 1_455 S
Gd0 O48 2.547 1_445 S
Gd0 O49 2.411 . S
Gd0 O51 2.360 . S
Gd0 O52 2.321 1_545 S
Gd0 C59 2.829 1_455 S
Gd1 N10 2.657 1_455 S
Gd1 N14 2.601 1_455 S
Gd1 O45 2.360 1_455 S
Gd1 O46 2.321 1_465 S
Gd1 O50 2.547 . S
Gd1 O51 2.607 1_565 S
Gd1 O53 2.432 . S
Gd1 O54 2.547 1_565 S
Gd1 O55 2.411 1_455 S
Gd1 C68 2.829 . S
C2 C5 1.417 . S
C2 C7 1.431 . S
C2 C8 1.412 . S
C3 C6 1.437 . S
C3 C7 1.317 . S
C3 H22 0.929 . S
C4 C5 1.426 . S
C4 C6 1.413 . S
C4 N14 1.359 . S
C5 C2 1.417 . S
C5 C4 1.426 . S
C5 N10 1.350 . S
C6 C3 1.437 . S
C6 C4 1.413 . S
C6 C16 1.420 . S
C7 C2 1.431 . S
C7 C3 1.317 . S
C7 H18 0.930 . S
C8 C2 1.412 . S
C8 C9 1.355 . S
C8 H20 0.930 . S
C9 C8 1.355 . S
C9 C11 1.402 . S
C9 H21 0.930 . S
N10 Gd1 2.657 1_655 S
N10 C5 1.350 . S
N10 C11 1.307 . S
C11 C9 1.402 . S
C11 N10 1.307 . S
C11 H12 0.930 . S
H12 C11 0.930 . S
C13 N14 1.334 1_455 S
C13 C15 1.394 . S
C13 H17 0.930 . S
N14 Gd1 2.601 1_655 S
N14 C4 1.359 . S
N14 C13 1.334 1_655 S
C15 C13 1.394 . S
C15 C16 1.331 1_455 S
C15 H27 0.930 . S
C16 C6 1.420 . S
C16 C15 1.331 1_655 S
C16 H28 0.929 . S
H17 C13 0.930 . S
H18 C7 0.930 . S
H19 C36 0.930 . S
H20 C8 0.930 . S
H21 C9 0.930 . S
H22 C3 0.929 . S
H23 C41 0.930 . S
H24 C32 0.930 . S
H25 C33 0.930 . S
H26 C57 0.929 . S
H27 C15 0.930 . S
H28 C16 0.929 . S
H29 C58 0.930 . S
H30 C39 0.930 . S
N31 Gd0 2.657 . S
N31 C35 1.350 . S
N31 C36 1.307 . S
C32 H24 0.930 . S
C32 C33 1.355 . S
C32 C34 1.412 . S
C33 H25 0.930 . S
C33 C32 1.355 . S
C33 C36 1.402 . S
C34 C32 1.412 . S
C34 C35 1.417 . S
C34 C58 1.431 . S
C35 N31 1.350 . S
C35 C34 1.417 . S
C35 C38 1.426 . S
C36 H19 0.930 . S
C36 N31 1.307 . S
C36 C33 1.402 . S
N37 Gd0 2.601 . S
N37 C38 1.359 . S
N37 C41 1.334 1_455 S
C38 C35 1.426 . S
C38 N37 1.359 . S
C38 C42 1.413 . S
C39 H30 0.930 . S
C39 C40 1.322 1_655 S
C39 C41 1.394 . S
C40 C39 1.322 1_455 S
C40 C42 1.429 . S
C40 H43 0.929 . S
C41 H23 0.930 . S
C41 N37 1.334 1_655 S
C41 C39 1.394 . S
C42 C38 1.413 . S
C42 C40 1.429 . S
C42 C57 1.437 . S
H43 C40 0.929 . S
O44 Gd0 2.547 1_655 S
O44 C59 1.258 . S
O45 Gd0 2.607 1_665 S
O45 Gd1 2.360 1_655 S
O45 C56 1.284 . S
O46 Gd1 2.321 1_645 S
O46 C66 1.254 . S
O47 Gd0 2.432 1_655 S
O47 C66 1.268 . S
O48 Gd0 2.547 1_665 S
O48 C56 1.250 . S
O49 Gd0 2.411 . S
O49 C59 1.252 1_455 S
O50 Gd1 2.547 . S
O50 C68 1.258 . S
O51 Gd0 2.360 . S
O51 Gd1 2.607 1_545 S
O51 C67 1.284 . S
O52 Gd0 2.321 1_565 S
O52 C75 1.254 . S
O53 Gd1 2.432 . S
O53 C75 1.268 . S
O54 Gd1 2.547 1_545 S
O54 C67 1.250 . S
O55 Gd1 2.411 1_655 S
O55 C68 1.252 1_655 S
C56 O45 1.284 . S
C56 O48 1.250 . S
C57 H26 0.929 . S
C57 C42 1.437 . S
C57 C58 1.317 . S
C58 H29 0.930 . S
C58 C34 1.431 . S
C58 C57 1.317 . S
C59 Gd0 2.829 1_655 S
C59 O44 1.258 . S
C59 O49 1.252 1_655 S
C59 C60 1.497 . S
C60 C59 1.497 . S
C60 C61 1.395 . S
C60 C62 1.380 . S
C61 C60 1.395 . S
C61 C64 1.398 . S
C61 H76 0.930 . S
C62 C60 1.380 . S
C62 C63 1.391 . S
C62 H77 0.930 1_645 S
C63 C62 1.391 . S
C63 C65 1.387 . S
C64 C61 1.398 . S
C64 C65 1.380 . S
C64 H78 0.930 . S
C65 C63 1.387 . S
C65 C64 1.380 . S
C65 H79 0.930 . S
C66 O46 1.254 . S
C66 O47 1.268 . S
C67 O51 1.284 . S
C67 O54 1.250 . S
C68 Gd1 2.829 . S
C68 O50 1.258 . S
C68 O55 1.252 1_455 S
C68 C69 1.497 . S
C69 C68 1.497 . S
C69 C70 1.395 . S
C69 C71 1.380 . S
C70 C69 1.395 . S
C70 C73 1.398 . S
C70 H80 0.930 . S
C71 C69 1.380 . S
C71 C72 1.391 . S
C71 H81 0.930 1_465 S
C72 C71 1.391 . S
C72 C74 1.387 . S
C73 C70 1.398 . S
C73 C74 1.380 . S
C73 H82 0.930 . S
C74 C72 1.387 . S
C74 C73 1.380 . S
C74 H83 0.930 . S
C75 O52 1.254 . S
C75 O53 1.268 . S
H76 C61 0.930 . S
H77 C62 0.930 1_465 S
H78 C64 0.930 . S
H79 C65 0.930 . S
H80 C70 0.930 . S
H81 C71 0.930 1_645 S
H82 C73 0.930 . S
H83 C74 0.930 . S
Gd84 N115 2.661 . S
Gd84 N121 2.601 . S
Gd84 O128 2.545 . S
Gd84 O129 2.606 . S
Gd84 O131 2.429 . S
Gd84 O132 2.545 . S
Gd84 O133 2.412 . S
Gd84 O135 2.362 . S
Gd84 O136 2.324 . S
Gd84 C143 2.828 . S
Gd85 N94 2.661 . S
Gd85 N98 2.601 . S
Gd85 O129 2.362 . S
Gd85 O130 2.324 . S
Gd85 O134 2.545 . S
Gd85 O135 2.606 . S
Gd85 O137 2.429 . S
Gd85 O138 2.545 . S
Gd85 O139 2.412 . S
Gd85 C152 2.828 . S
C86 C89 1.417 . S
C86 C91 1.431 . S
C86 C92 1.412 . S
C87 C90 1.437 . S
C87 C91 1.317 . S
C87 H106 0.929 . S
C88 C89 1.426 . S
C88 C90 1.413 . S
C88 N98 1.359 . S
C89 C86 1.417 . S
C89 C88 1.426 . S
C89 N94 1.350 . S
C90 C87 1.437 . S
C90 C88 1.413 . S
C90 C100 1.391 . S
C91 C86 1.431 . S
C91 C87 1.317 . S
C91 H102 0.930 . S
C92 C86 1.412 . S
C92 C93 1.355 . S
C92 H104 0.930 . S
C93 C92 1.355 . S
C93 C95 1.402 . S
C93 H105 0.930 . S
N94 Gd85 2.661 . S
N94 C89 1.350 . S
N94 C95 1.307 . S
C95 C93 1.402 . S
C95 N94 1.307 . S
C95 H96 0.930 . S
H96 C95 0.930 . S
C97 N98 1.334 . S
C97 C99 1.394 . S
C97 H101 0.930 . S
N98 Gd85 2.601 . S
N98 C88 1.359 . S
N98 C97 1.334 . S
C99 C97 1.394 . S
C99 C100 1.359 . S
C99 H111 0.930 . S
C100 C90 1.391 . S
C100 C99 1.359 . S
C100 H112 0.929 . S
H101 C97 0.930 . S
H102 C91 0.930 . S
H103 C120 0.930 . S
H104 C92 0.930 . S
H105 C93 0.930 . S
H106 C87 0.929 . S
H107 C125 0.930 . S
H108 C116 0.930 . S
H109 C117 0.930 . S
H110 C141 0.929 . S
H111 C99 0.930 . S
H112 C100 0.929 . S
H113 C142 0.930 . S
H114 C123 0.930 . S
N115 Gd84 2.661 . S
N115 C119 1.350 . S
N115 C120 1.307 . S
C116 H108 0.930 . S
C116 C117 1.355 . S
C116 C118 1.412 . S
C117 H109 0.930 . S
C117 C116 1.355 . S
C117 C120 1.402 . S
C118 C116 1.412 . S
C118 C119 1.417 . S
C118 C142 1.431 . S
C119 N115 1.350 . S
C119 C118 1.417 . S
C119 C122 1.426 . S
C120 H103 0.930 . S
C120 N115 1.307 . S
C120 C117 1.402 . S
N121 Gd84 2.601 . S
N121 C122 1.359 . S
N121 C125 1.334 . S
C122 C119 1.426 . S
C122 N121 1.359 . S
C122 C126 1.413 . S
C123 H114 0.930 . S
C123 C124 1.359 . S
C123 C125 1.394 . S
C124 C123 1.359 . S
C124 C126 1.391 . S
C124 H127 0.929 . S
C125 H107 0.930 . S
C125 N121 1.334 . S
C125 C123 1.394 . S
C126 C122 1.413 . S
C126 C124 1.391 . S
C126 C141 1.437 . S
H127 C124 0.929 . S
O128 Gd84 2.545 . S
O128 C143 1.258 . S
O129 Gd84 2.606 . S
O129 Gd85 2.362 . S
O129 C140 1.284 . S
O130 Gd85 2.324 . S
O130 C150 1.254 . S
O131 Gd84 2.429 . S
O131 C150 1.268 . S
O132 Gd84 2.545 . S
O132 C140 1.250 . S
O133 Gd84 2.412 . S
O133 C143 1.252 . S
O134 Gd85 2.545 . S
O134 C152 1.258 . S
O135 Gd84 2.362 . S
O135 Gd85 2.606 . S
O135 C151 1.284 . S
O136 Gd84 2.324 . S
O136 C159 1.254 . S
O137 Gd85 2.429 . S
O137 C159 1.268 . S
O138 Gd85 2.545 . S
O138 C151 1.250 . S
O139 Gd85 2.412 . S
O139 C152 1.252 . S
C140 O129 1.284 . S
C140 O132 1.250 . S
C141 H110 0.929 . S
C141 C126 1.437 . S
C141 C142 1.317 . S
C142 H113 0.930 . S
C142 C118 1.431 . S
C142 C141 1.317 . S
C143 Gd84 2.828 . S
C143 O128 1.258 . S
C143 O133 1.252 . S
C143 C144 1.497 . S
C144 C143 1.497 . S
C144 C145 1.395 . S
C144 C146 1.380 . S
C145 C144 1.395 . S
C145 C148 1.398 1_556 S
C145 H160 0.930 . S
C146 C144 1.380 . S
C146 C147 1.391 1_556 S
C146 H161 0.930 . S
C147 C146 1.391 1_554 S
C147 C149 1.387 . S
C148 C145 1.398 1_554 S
C148 C149 1.380 . S
C148 H162 0.930 . S
C149 C147 1.387 . S
C149 C148 1.380 . S
C149 H163 0.930 . S
C150 O130 1.254 . S
C150 O131 1.268 . S
C151 O135 1.284 . S
C151 O138 1.250 . S
C152 Gd85 2.828 . S
C152 O134 1.258 . S
C152 O139 1.252 . S
C152 C153 1.497 . S
C153 C152 1.497 . S
C153 C154 1.395 . S
C153 C155 1.380 . S
C154 C153 1.395 . S
C154 C157 1.398 . S
C154 H164 0.930 . S
C155 C153 1.380 . S
C155 C156 1.391 . S
C155 H165 0.930 . S
C156 C155 1.391 . S
C156 C158 1.387 . S
C157 C154 1.398 . S
C157 C158 1.380 . S
C157 H166 0.930 . S
C158 C156 1.387 . S
C158 C157 1.380 . S
C158 H167 0.930 . S
C159 O136 1.254 . S
C159 O137 1.268 . S
H160 C145 0.930 . S
H161 C146 0.930 . S
H162 C148 0.930 . S
H163 C149 0.930 . S
H164 C154 0.930 . S
H165 C155 0.930 . S
H166 C157 0.930 . S
H167 C158 0.930 . S
Gd168 N199 2.661 . S
Gd168 N205 2.601 . S
Gd168 O212 2.545 . S
Gd168 O213 2.606 1_545 S
Gd168 O215 2.429 . S
Gd168 O216 2.545 1_545 S
Gd168 O217 2.412 . S
Gd168 O219 2.362 1_556 S
Gd168 O220 2.324 1_545 S
Gd168 C227 2.828 . S
Gd169 N178 2.661 . S
Gd169 N182 2.601 . S
Gd169 O213 2.362 1_554 S
Gd169 O214 2.324 1_565 S
Gd169 O218 2.545 . S
Gd169 O219 2.606 1_565 S
Gd169 O221 2.429 . S
Gd169 O222 2.545 1_565 S
Gd169 O223 2.412 . S
Gd169 C236 2.828 . S
C170 C173 1.417 . S
C170 C175 1.431 . S
C170 C176 1.412 . S
C171 C174 1.437 . S
C171 C175 1.317 . S
C171 H190 0.929 . S
C172 C173 1.426 . S
C172 C174 1.413 . S
C172 N182 1.359 . S
C173 C170 1.417 . S
C173 C172 1.426 . S
C173 N178 1.350 . S
C174 C171 1.437 . S
C174 C172 1.413 . S
C174 C184 1.391 . S
C175 C170 1.431 . S
C175 C171 1.317 . S
C175 H186 0.930 . S
C176 C170 1.412 . S
C176 C177 1.355 . S
C176 H188 0.930 . S
C177 C176 1.355 . S
C177 C179 1.402 . S
C177 H189 0.930 . S
N178 Gd169 2.661 . S
N178 C173 1.350 . S
N178 C179 1.307 . S
C179 C177 1.402 . S
C179 N178 1.307 . S
C179 H180 0.930 . S
H180 C179 0.930 . S
C181 N182 1.334 . S
C181 C183 1.394 . S
C181 H185 0.930 . S
N182 Gd169 2.601 . S
N182 C172 1.359 . S
N182 C181 1.334 . S
C183 C181 1.394 . S
C183 C184 1.359 . S
C183 H195 0.930 . S
C184 C174 1.391 . S
C184 C183 1.359 . S
C184 H196 0.929 . S
H185 C181 0.930 . S
H186 C175 0.930 . S
H187 C204 0.930 . S
H188 C176 0.930 . S
H189 C177 0.930 . S
H190 C171 0.929 . S
H191 C209 0.930 . S
H192 C200 0.930 . S
H193 C201 0.930 . S
H194 C225 0.929 . S
H195 C183 0.930 . S
H196 C184 0.929 . S
H197 C226 0.930 . S
H198 C207 0.930 . S
N199 Gd168 2.661 . S
N199 C203 1.350 . S
N199 C204 1.307 . S
C200 H192 0.930 . S
C200 C201 1.355 . S
C200 C202 1.412 . S
C201 H193 0.930 . S
C201 C200 1.355 . S
C201 C204 1.402 . S
C202 C200 1.412 . S
C202 C203 1.417 . S
C202 C226 1.431 . S
C203 N199 1.350 . S
C203 C202 1.417 . S
C203 C206 1.426 . S
C204 H187 0.930 . S
C204 N199 1.307 . S
C204 C201 1.402 . S
N205 Gd168 2.601 . S
N205 C206 1.359 . S
N205 C209 1.334 . S
C206 C203 1.426 . S
C206 N205 1.359 . S
C206 C210 1.413 . S
C207 H198 0.930 . S
C207 C208 1.359 . S
C207 C209 1.394 . S
C208 C207 1.359 . S
C208 C210 1.391 . S
C208 H211 0.929 . S
C209 H191 0.930 . S
C209 N205 1.334 . S
C209 C207 1.394 . S
C210 C206 1.413 . S
C210 C208 1.391 . S
C210 C225 1.437 . S
H211 C208 0.929 . S
O212 Gd168 2.545 . S
O212 C227 1.258 . S
O213 Gd168 2.606 1_565 S
O213 Gd169 2.362 1_556 S
O213 C224 1.284 . S
O214 Gd169 2.324 1_545 S
O214 C234 1.254 . S
O215 Gd168 2.429 . S
O215 C234 1.268 1_556 S
O216 Gd168 2.545 1_565 S
O216 C224 1.250 . S
O217 Gd168 2.412 . S
O217 C227 1.252 . S
O218 Gd169 2.545 . S
O218 C236 1.258 . S
O219 Gd168 2.362 1_554 S
O219 Gd169 2.606 1_545 S
O219 C235 1.284 . S
O220 Gd168 2.324 1_565 S
O220 C243 1.254 . S
O221 Gd169 2.429 . S
O221 C243 1.268 1_554 S
O222 Gd169 2.545 1_545 S
O222 C235 1.250 . S
O223 Gd169 2.412 . S
O223 C236 1.252 . S
C224 O213 1.284 . S
C224 O216 1.250 . S
C225 H194 0.929 . S
C225 C210 1.437 . S
C225 C226 1.317 . S
C226 H197 0.930 . S
C226 C202 1.431 . S
C226 C225 1.317 . S
C227 Gd168 2.828 . S
C227 O212 1.258 . S
C227 O217 1.252 . S
C227 C228 1.497 . S
C228 C227 1.497 . S
C228 C229 1.395 . S
C228 C230 1.380 . S
C229 C228 1.395 . S
C229 C232 1.398 . S
C229 H244 0.930 . S
C230 C228 1.380 . S
C230 C231 1.391 . S
C230 H245 0.930 1_545 S
C231 C230 1.391 . S
C231 C233 1.387 . S
C232 C229 1.398 . S
C232 C233 1.380 . S
C232 H246 0.930 . S
C233 C231 1.387 . S
C233 C232 1.380 . S
C233 H247 0.930 . S
C234 O214 1.254 . S
C234 O215 1.268 1_554 S
C235 O219 1.284 . S
C235 O222 1.250 . S
C236 Gd169 2.828 . S
C236 O218 1.258 . S
C236 O223 1.252 . S
C236 C237 1.497 . S
C237 C236 1.497 . S
C237 C238 1.395 . S
C237 C239 1.380 . S
C238 C237 1.395 . S
C238 C241 1.398 . S
C238 H248 0.930 . S
C239 C237 1.380 . S
C239 C240 1.391 . S
C239 H249 0.930 1_565 S
C240 C239 1.391 . S
C240 C242 1.387 . S
C241 C238 1.398 . S
C241 C242 1.380 . S
C241 H250 0.930 . S
C242 C240 1.387 . S
C242 C241 1.380 . S
C242 H251 0.930 . S
C243 O220 1.254 . S
C243 O221 1.268 1_556 S
H244 C229 0.930 . S
H245 C230 0.930 1_565 S
H246 C232 0.930 . S
H247 C233 0.930 . S
H248 C238 0.930 . S
H249 C239 0.930 1_545 S
H250 C241 0.930 . S
H251 C242 0.930 . S
Gd252 N283 2.661 . S
Gd252 N289 2.601 . S
Gd252 O296 2.545 . S
Gd252 O297 2.606 . S
Gd252 O299 2.429 . S
Gd252 O300 2.545 . S
Gd252 O301 2.412 . S
Gd252 O303 2.362 . S
Gd252 O304 2.324 . S
Gd252 C311 2.828 . S
Gd253 N262 2.661 . S
Gd253 N266 2.601 . S
Gd253 O297 2.362 . S
Gd253 O298 2.324 . S
Gd253 O302 2.545 . S
Gd253 O303 2.606 . S
Gd253 O305 2.429 . S
Gd253 O306 2.545 . S
Gd253 O307 2.412 . S
Gd253 C320 2.828 . S
C254 C257 1.417 . S
C254 C259 1.431 . S
C254 C260 1.412 . S
C255 C258 1.437 . S
C255 C259 1.317 . S
C255 H274 0.929 . S
C256 C257 1.426 . S
C256 C258 1.413 . S
C256 N266 1.359 . S
C257 C254 1.417 . S
C257 C256 1.426 . S
C257 N262 1.350 . S
C258 C255 1.437 . S
C258 C256 1.413 . S
C258 C268 1.391 . S
C259 C254 1.431 . S
C259 C255 1.317 . S
C259 H270 0.930 . S
C260 C254 1.412 . S
C260 C261 1.355 . S
C260 H272 0.930 . S
C261 C260 1.355 . S
C261 C263 1.402 . S
C261 H273 0.930 . S
N262 Gd253 2.661 . S
N262 C257 1.350 . S
N262 C263 1.307 . S
C263 C261 1.402 . S
C263 N262 1.307 . S
C263 H264 0.930 . S
H264 C263 0.930 . S
C265 N266 1.334 . S
C265 C267 1.394 . S
C265 H269 0.930 . S
N266 Gd253 2.601 . S
N266 C256 1.359 . S
N266 C265 1.334 . S
C267 C265 1.394 . S
C267 C268 1.359 . S
C267 H279 0.930 . S
C268 C258 1.391 . S
C268 C267 1.359 . S
C268 H280 0.929 . S
H269 C265 0.930 . S
H270 C259 0.930 . S
H271 C288 0.930 . S
H272 C260 0.930 . S
H273 C261 0.930 . S
H274 C255 0.929 . S
H275 C293 0.930 . S
H276 C284 0.930 . S
H277 C285 0.930 . S
H278 C309 0.929 . S
H279 C267 0.930 . S
H280 C268 0.929 . S
H281 C310 0.930 . S
H282 C291 0.930 . S
N283 Gd252 2.661 . S
N283 C287 1.350 . S
N283 C288 1.307 . S
C284 H276 0.930 . S
C284 C285 1.355 . S
C284 C286 1.412 . S
C285 H277 0.930 . S
C285 C284 1.355 . S
C285 C288 1.402 . S
C286 C284 1.412 . S
C286 C287 1.417 . S
C286 C310 1.431 . S
C287 N283 1.350 . S
C287 C286 1.417 . S
C287 C290 1.426 . S
C288 H271 0.930 . S
C288 N283 1.307 . S
C288 C285 1.402 . S
N289 Gd252 2.601 . S
N289 C290 1.359 . S
N289 C293 1.334 . S
C290 C287 1.426 . S
C290 N289 1.359 . S
C290 C294 1.413 . S
C291 H282 0.930 . S
C291 C292 1.359 . S
C291 C293 1.394 . S
C292 C291 1.359 . S
C292 C294 1.391 . S
C292 H295 0.929 . S
C293 H275 0.930 . S
C293 N289 1.334 . S
C293 C291 1.394 . S
C294 C290 1.413 . S
C294 C292 1.391 . S
C294 C309 1.437 . S
H295 C292 0.929 . S
O296 Gd252 2.545 . S
O296 C311 1.258 . S
O297 Gd252 2.606 . S
O297 Gd253 2.362 . S
O297 C308 1.284 . S
O298 Gd253 2.324 . S
O298 C318 1.254 . S
O299 Gd252 2.429 . S
O299 C318 1.268 . S
O300 Gd252 2.545 . S
O300 C308 1.250 . S
O301 Gd252 2.412 . S
O301 C311 1.252 . S
O302 Gd253 2.545 . S
O302 C320 1.258 . S
O303 Gd252 2.362 . S
O303 Gd253 2.606 . S
O303 C319 1.284 . S
O304 Gd252 2.324 . S
O304 C327 1.254 . S
O305 Gd253 2.429 . S
O305 C327 1.268 . S
O306 Gd253 2.545 . S
O306 C319 1.250 . S
O307 Gd253 2.412 . S
O307 C320 1.252 . S
C308 O297 1.284 . S
C308 O300 1.250 . S
C309 H278 0.929 . S
C309 C294 1.437 . S
C309 C310 1.317 . S
C310 H281 0.930 . S
C310 C286 1.431 . S
C310 C309 1.317 . S
C311 Gd252 2.828 . S
C311 O296 1.258 . S
C311 O301 1.252 . S
C311 C312 1.497 . S
C312 C311 1.497 . S
C312 C313 1.395 . S
C312 C314 1.380 . S
C313 C312 1.395 . S
C313 C316 1.398 1_554 S
C313 H328 0.930 . S
C314 C312 1.380 . S
C314 C315 1.391 1_554 S
C314 H329 0.930 . S
C315 C314 1.391 1_556 S
C315 C317 1.387 . S
C316 C313 1.398 1_556 S
C316 C317 1.380 . S
C316 H330 0.930 . S
C317 C315 1.387 . S
C317 C316 1.380 . S
C317 H331 0.930 . S
C318 O298 1.254 . S
C318 O299 1.268 . S
C319 O303 1.284 . S
C319 O306 1.250 . S
C320 Gd253 2.828 . S
C320 O302 1.258 . S
C320 O307 1.252 . S
C320 C321 1.497 . S
C321 C320 1.497 . S
C321 C322 1.395 . S
C321 C323 1.380 . S
C322 C321 1.395 . S
C322 C325 1.398 . S
C322 H332 0.930 . S
C323 C321 1.380 . S
C323 C324 1.391 . S
C323 H333 0.930 . S
C324 C323 1.391 . S
C324 C326 1.387 . S
C325 C322 1.398 . S
C325 C326 1.380 . S
C325 H334 0.930 . S
C326 C324 1.387 . S
C326 C325 1.380 . S
C326 H335 0.930 . S
C327 O304 1.254 . S
C327 O305 1.268 . S
H328 C313 0.930 . S
H329 C314 0.930 . S
H330 C316 0.930 . S
H331 C317 0.930 . S
H332 C322 0.930 . S
H333 C323 0.930 . S
H334 C325 0.930 . S
H335 C326 0.930 . S
Gd336 N367 2.661 . S
Gd336 N373 2.601 . S
Gd336 O380 2.545 . S
Gd336 O381 2.606 . S
Gd336 O383 2.429 . S
Gd336 O384 2.545 . S
Gd336 O385 2.412 . S
Gd336 O387 2.362 . S
Gd336 O388 2.324 . S
Gd336 C395 2.828 . S
Gd337 N346 2.661 . S
Gd337 N350 2.601 . S
Gd337 O381 2.362 . S
Gd337 O382 2.324 . S
Gd337 O386 2.545 . S
Gd337 O387 2.606 . S
Gd337 O389 2.429 . S
Gd337 O390 2.545 . S
Gd337 O391 2.412 . S
Gd337 C404 2.828 . S
C338 C341 1.417 . S
C338 C343 1.431 . S
C338 C344 1.412 . S
C339 C342 1.437 . S
C339 C343 1.317 . S
C339 H358 0.929 . S
C340 C341 1.426 . S
C340 C342 1.413 . S
C340 N350 1.359 . S
C341 C338 1.417 . S
C341 C340 1.426 . S
C341 N346 1.350 . S
C342 C339 1.437 . S
C342 C340 1.413 . S
C342 C352 1.391 . S
C343 C338 1.431 . S
C343 C339 1.317 . S
C343 H354 0.930 . S
C344 C338 1.412 . S
C344 C345 1.355 . S
C344 H356 0.930 . S
C345 C344 1.355 . S
C345 C347 1.402 . S
C345 H357 0.930 . S
N346 Gd337 2.661 . S
N346 C341 1.350 . S
N346 C347 1.307 . S
C347 C345 1.402 . S
C347 N346 1.307 . S
C347 H348 0.930 . S
H348 C347 0.930 . S
C349 N350 1.334 . S
C349 C351 1.394 . S
C349 H353 0.930 . S
N350 Gd337 2.601 . S
N350 C340 1.359 . S
N350 C349 1.334 . S
C351 C349 1.394 . S
C351 C352 1.359 . S
C351 H363 0.930 . S
C352 C342 1.391 . S
C352 C351 1.359 . S
C352 H364 0.929 . S
H353 C349 0.930 . S
H354 C343 0.930 . S
H355 C372 0.930 . S
H356 C344 0.930 . S
H357 C345 0.930 . S
H358 C339 0.929 . S
H359 C377 0.930 . S
H360 C368 0.930 . S
H361 C369 0.930 . S
H362 C393 0.929 . S
H363 C351 0.930 . S
H364 C352 0.929 . S
H365 C394 0.930 . S
H366 C375 0.930 . S
N367 Gd336 2.661 . S
N367 C371 1.350 . S
N367 C372 1.307 . S
C368 H360 0.930 . S
C368 C369 1.355 . S
C368 C370 1.412 . S
C369 H361 0.930 . S
C369 C368 1.355 . S
C369 C372 1.402 . S
C370 C368 1.412 . S
C370 C371 1.417 . S
C370 C394 1.431 . S
C371 N367 1.350 . S
C371 C370 1.417 . S
C371 C374 1.426 . S
C372 H355 0.930 . S
C372 N367 1.307 . S
C372 C369 1.402 . S
N373 Gd336 2.601 . S
N373 C374 1.359 . S
N373 C377 1.334 . S
C374 C371 1.426 . S
C374 N373 1.359 . S
C374 C378 1.413 . S
C375 H366 0.930 . S
C375 C376 1.359 . S
C375 C377 1.394 . S
C376 C375 1.359 . S
C376 C378 1.391 . S
C376 H379 0.929 . S
C377 H359 0.930 . S
C377 N373 1.334 . S
C377 C375 1.394 . S
C378 C374 1.413 . S
C378 C376 1.391 . S
C378 C393 1.437 . S
H379 C376 0.929 . S
O380 Gd336 2.545 . S
O380 C395 1.258 . S
O381 Gd336 2.606 . S
O381 Gd337 2.362 . S
O381 C392 1.284 . S
O382 Gd337 2.324 . S
O382 C402 1.254 . S
O383 Gd336 2.429 . S
O383 C402 1.268 . S
O384 Gd336 2.545 . S
O384 C392 1.250 . S
O385 Gd336 2.412 . S
O385 C395 1.252 . S
O386 Gd337 2.545 . S
O386 C404 1.258 . S
O387 Gd336 2.362 . S
O387 Gd337 2.606 . S
O387 C403 1.284 . S
O388 Gd336 2.324 . S
O388 C411 1.254 . S
O389 Gd337 2.429 . S
O389 C411 1.268 . S
O390 Gd337 2.545 . S
O390 C403 1.250 . S
O391 Gd337 2.412 . S
O391 C404 1.252 . S
C392 O381 1.284 . S
C392 O384 1.250 . S
C393 H362 0.929 . S
C393 C378 1.437 . S
C393 C394 1.317 . S
C394 H365 0.930 . S
C394 C370 1.431 . S
C394 C393 1.317 . S
C395 Gd336 2.828 . S
C395 O380 1.258 . S
C395 O385 1.252 . S
C395 C396 1.497 . S
C396 C395 1.497 . S
C396 C397 1.395 . S
C396 C398 1.380 . S
C397 C396 1.395 . S
C397 C400 1.398 . S
C397 H412 0.930 . S
C398 C396 1.380 . S
C398 C399 1.391 . S
C398 H413 0.930 . S
C399 C398 1.391 . S
C399 C401 1.387 . S
C400 C397 1.398 . S
C400 C401 1.380 . S
C400 H414 0.930 . S
C401 C399 1.387 . S
C401 C400 1.380 . S
C401 H415 0.930 . S
C402 O382 1.254 . S
C402 O383 1.268 . S
C403 O387 1.284 . S
C403 O390 1.250 . S
C404 Gd337 2.828 . S
C404 O386 1.258 . S
C404 O391 1.252 . S
C404 C405 1.497 . S
C405 C404 1.497 . S
C405 C406 1.395 . S
C405 C407 1.380 . S
C406 C405 1.395 . S
C406 C409 1.398 1_554 S
C406 H416 0.930 . S
C407 C405 1.380 . S
C407 C408 1.391 1_554 S
C407 H417 0.930 . S
C408 C407 1.391 1_556 S
C408 C410 1.387 . S
C409 C406 1.398 1_556 S
C409 C410 1.380 . S
C409 H418 0.930 . S
C410 C408 1.387 . S
C410 C409 1.380 . S
C410 H419 0.930 . S
C411 O388 1.254 . S
C411 O389 1.268 . S
H412 C397 0.930 . S
H413 C398 0.930 . S
H414 C400 0.930 . S
H415 C401 0.930 . S
H416 C406 0.930 . S
H417 C407 0.930 . S
H418 C409 0.930 . S
H419 C410 0.930 . S
Gd420 N451 2.661 . S
Gd420 N457 2.601 . S
Gd420 O464 2.545 . S
Gd420 O465 2.606 . S
Gd420 O467 2.429 . S
Gd420 O468 2.545 . S
Gd420 O469 2.412 . S
Gd420 O471 2.362 . S
Gd420 O472 2.324 . S
Gd420 C479 2.828 . S
Gd421 N430 2.661 . S
Gd421 N434 2.601 . S
Gd421 O465 2.362 . S
Gd421 O466 2.324 . S
Gd421 O470 2.545 . S
Gd421 O471 2.606 . S
Gd421 O473 2.429 . S
Gd421 O474 2.545 . S
Gd421 O475 2.412 . S
Gd421 C488 2.828 . S
C422 C425 1.417 . S
C422 C427 1.431 . S
C422 C428 1.412 . S
C423 C426 1.437 . S
C423 C427 1.317 . S
C423 H442 0.929 . S
C424 C425 1.426 . S
C424 C426 1.413 . S
C424 N434 1.359 . S
C425 C422 1.417 . S
C425 C424 1.426 . S
C425 N430 1.350 . S
C426 C423 1.437 . S
C426 C424 1.413 . S
C426 C436 1.391 . S
C427 C422 1.431 . S
C427 C423 1.317 . S
C427 H438 0.930 . S
C428 C422 1.412 . S
C428 C429 1.355 . S
C428 H440 0.930 . S
C429 C428 1.355 . S
C429 C431 1.402 . S
C429 H441 0.930 . S
N430 Gd421 2.661 . S
N430 C425 1.350 . S
N430 C431 1.307 . S
C431 C429 1.402 . S
C431 N430 1.307 . S
C431 H432 0.930 . S
H432 C431 0.930 . S
C433 N434 1.334 . S
C433 C435 1.394 . S
C433 H437 0.930 . S
N434 Gd421 2.601 . S
N434 C424 1.359 . S
N434 C433 1.334 . S
C435 C433 1.394 . S
C435 C436 1.359 . S
C435 H447 0.930 . S
C436 C426 1.391 . S
C436 C435 1.359 . S
C436 H448 0.929 . S
H437 C433 0.930 . S
H438 C427 0.930 . S
H439 C456 0.930 . S
H440 C428 0.930 . S
H441 C429 0.930 . S
H442 C423 0.929 . S
H443 C461 0.930 . S
H444 C452 0.930 . S
H445 C453 0.930 . S
H446 C477 0.929 . S
H447 C435 0.930 . S
H448 C436 0.929 . S
H449 C478 0.930 . S
H450 C459 0.930 . S
N451 Gd420 2.661 . S
N451 C455 1.350 . S
N451 C456 1.307 . S
C452 H444 0.930 . S
C452 C453 1.355 . S
C452 C454 1.412 . S
C453 H445 0.930 . S
C453 C452 1.355 . S
C453 C456 1.402 . S
C454 C452 1.412 . S
C454 C455 1.417 . S
C454 C478 1.431 . S
C455 N451 1.350 . S
C455 C454 1.417 . S
C455 C458 1.426 . S
C456 H439 0.930 . S
C456 N451 1.307 . S
C456 C453 1.402 . S
N457 Gd420 2.601 . S
N457 C458 1.359 . S
N457 C461 1.334 . S
C458 C455 1.426 . S
C458 N457 1.359 . S
C458 C462 1.413 . S
C459 H450 0.930 . S
C459 C460 1.359 . S
C459 C461 1.394 . S
C460 C459 1.359 . S
C460 C462 1.391 . S
C460 H463 0.929 . S
C461 H443 0.930 . S
C461 N457 1.334 . S
C461 C459 1.394 . S
C462 C458 1.413 . S
C462 C460 1.391 . S
C462 C477 1.437 . S
H463 C460 0.929 . S
O464 Gd420 2.545 . S
O464 C479 1.258 . S
O465 Gd420 2.606 . S
O465 Gd421 2.362 . S
O465 C476 1.284 . S
O466 Gd421 2.324 . S
O466 C486 1.254 . S
O467 Gd420 2.429 . S
O467 C486 1.268 . S
O468 Gd420 2.545 . S
O468 C476 1.250 . S
O469 Gd420 2.412 . S
O469 C479 1.252 . S
O470 Gd421 2.545 . S
O470 C488 1.258 . S
O471 Gd420 2.362 . S
O471 Gd421 2.606 . S
O471 C487 1.284 . S
O472 Gd420 2.324 . S
O472 C495 1.254 . S
O473 Gd421 2.429 . S
O473 C495 1.268 . S
O474 Gd421 2.545 . S
O474 C487 1.250 . S
O475 Gd421 2.412 . S
O475 C488 1.252 . S
C476 O465 1.284 . S
C476 O468 1.250 . S
C477 H446 0.929 . S
C477 C462 1.437 . S
C477 C478 1.317 . S
C478 H449 0.930 . S
C478 C454 1.431 . S
C478 C477 1.317 . S
C479 Gd420 2.828 . S
C479 O464 1.258 . S
C479 O469 1.252 . S
C479 C480 1.497 . S
C480 C479 1.497 . S
C480 C481 1.395 . S
C480 C482 1.380 . S
C481 C480 1.395 . S
C481 C484 1.398 . S
C481 H496 0.930 . S
C482 C480 1.380 . S
C482 C483 1.391 . S
C482 H497 0.930 . S
C483 C482 1.391 . S
C483 C485 1.387 . S
C484 C481 1.398 . S
C484 C485 1.380 . S
C484 H498 0.930 . S
C485 C483 1.387 . S
C485 C484 1.380 . S
C485 H499 0.930 . S
C486 O466 1.254 . S
C486 O467 1.268 . S
C487 O471 1.284 . S
C487 O474 1.250 . S
C488 Gd421 2.828 . S
C488 O470 1.258 . S
C488 O475 1.252 . S
C488 C489 1.497 . S
C489 C488 1.497 . S
C489 C490 1.395 . S
C489 C491 1.380 . S
C490 C489 1.395 . S
C490 C493 1.398 1_556 S
C490 H500 0.930 . S
C491 C489 1.380 . S
C491 C492 1.391 1_556 S
C491 H501 0.930 . S
C492 C491 1.391 1_554 S
C492 C494 1.387 . S
C493 C490 1.398 1_554 S
C493 C494 1.380 . S
C493 H502 0.930 . S
C494 C492 1.387 . S
C494 C493 1.380 . S
C494 H503 0.930 . S
C495 O472 1.254 . S
C495 O473 1.268 . S
H496 C481 0.930 . S
H497 C482 0.930 . S
H498 C484 0.930 . S
H499 C485 0.930 . S
H500 C490 0.930 . S
H501 C491 0.930 . S
H502 C493 0.930 . S
H503 C494 0.930 . S
Gd504 N535 2.661 . S
Gd504 N541 2.601 . S
Gd504 O548 2.545 . S
Gd504 O549 2.606 . S
Gd504 O551 2.429 . S
Gd504 O552 2.545 . S
Gd504 O553 2.412 . S
Gd504 O555 2.362 1_554 S
Gd504 O556 2.324 . S
Gd504 C563 2.828 . S
Gd505 N514 2.661 . S
Gd505 N518 2.601 . S
Gd505 O549 2.362 1_556 S
Gd505 O550 2.324 . S
Gd505 O554 2.545 . S
Gd505 O555 2.606 . S
Gd505 O557 2.429 . S
Gd505 O558 2.545 . S
Gd505 O559 2.412 . S
Gd505 C572 2.828 . S
C506 C509 1.417 . S
C506 C511 1.431 . S
C506 C512 1.412 . S
C507 C510 1.437 . S
C507 C511 1.317 . S
C507 H526 0.929 . S
C508 C509 1.426 . S
C508 C510 1.413 . S
C508 N518 1.359 . S
C509 C506 1.417 . S
C509 C508 1.426 . S
C509 N514 1.350 . S
C510 C507 1.437 . S
C510 C508 1.413 . S
C510 C520 1.391 . S
C511 C506 1.431 . S
C511 C507 1.317 . S
C511 H522 0.930 . S
C512 C506 1.412 . S
C512 C513 1.355 . S
C512 H524 0.930 . S
C513 C512 1.355 . S
C513 C515 1.402 . S
C513 H525 0.930 . S
N514 Gd505 2.661 . S
N514 C509 1.350 . S
N514 C515 1.307 . S
C515 C513 1.402 . S
C515 N514 1.307 . S
C515 H516 0.930 . S
H516 C515 0.930 . S
C517 N518 1.334 . S
C517 C519 1.394 . S
C517 H521 0.930 . S
N518 Gd505 2.601 . S
N518 C508 1.359 . S
N518 C517 1.334 . S
C519 C517 1.394 . S
C519 C520 1.359 . S
C519 H531 0.930 . S
C520 C510 1.391 . S
C520 C519 1.359 . S
C520 H532 0.929 . S
H521 C517 0.930 . S
H522 C511 0.930 . S
H523 C540 0.930 . S
H524 C512 0.930 . S
H525 C513 0.930 . S
H526 C507 0.929 . S
H527 C545 0.930 . S
H528 C536 0.930 . S
H529 C537 0.930 . S
H530 C561 0.929 . S
H531 C519 0.930 . S
H532 C520 0.929 . S
H533 C562 0.930 . S
H534 C543 0.930 . S
N535 Gd504 2.661 . S
N535 C539 1.350 . S
N535 C540 1.307 . S
C536 H528 0.930 . S
C536 C537 1.355 . S
C536 C538 1.412 . S
C537 H529 0.930 . S
C537 C536 1.355 . S
C537 C540 1.402 . S
C538 C536 1.412 . S
C538 C539 1.417 . S
C538 C562 1.431 . S
C539 N535 1.350 . S
C539 C538 1.417 . S
C539 C542 1.426 . S
C540 H523 0.930 . S
C540 N535 1.307 . S
C540 C537 1.402 . S
N541 Gd504 2.601 . S
N541 C542 1.359 . S
N541 C545 1.334 . S
C542 C539 1.426 . S
C542 N541 1.359 . S
C542 C546 1.413 . S
C543 H534 0.930 . S
C543 C544 1.359 . S
C543 C545 1.394 . S
C544 C543 1.359 . S
C544 C546 1.391 . S
C544 H547 0.929 . S
C545 H527 0.930 . S
C545 N541 1.334 . S
C545 C543 1.394 . S
C546 C542 1.413 . S
C546 C544 1.391 . S
C546 C561 1.437 . S
H547 C544 0.929 . S
O548 Gd504 2.545 . S
O548 C563 1.258 . S
O549 Gd504 2.606 . S
O549 Gd505 2.362 1_554 S
O549 C560 1.284 . S
O550 Gd505 2.324 . S
O550 C570 1.254 . S
O551 Gd504 2.429 . S
O551 C570 1.268 1_554 S
O552 Gd504 2.545 . S
O552 C560 1.250 . S
O553 Gd504 2.412 . S
O553 C563 1.252 . S
O554 Gd505 2.545 . S
O554 C572 1.258 . S
O555 Gd504 2.362 1_556 S
O555 Gd505 2.606 . S
O555 C571 1.284 . S
O556 Gd504 2.324 . S
O556 C579 1.254 . S
O557 Gd505 2.429 . S
O557 C579 1.268 1_556 S
O558 Gd505 2.545 . S
O558 C571 1.250 . S
O559 Gd505 2.412 . S
O559 C572 1.252 . S
C560 O549 1.284 . S
C560 O552 1.250 . S
C561 H530 0.929 . S
C561 C546 1.437 . S
C561 C562 1.317 . S
C562 H533 0.930 . S
C562 C538 1.431 . S
C562 C561 1.317 . S
C563 Gd504 2.828 . S
C563 O548 1.258 . S
C563 O553 1.252 . S
C563 C564 1.497 . S
C564 C563 1.497 . S
C564 C565 1.395 . S
C564 C566 1.380 . S
C565 C564 1.395 . S
C565 C568 1.398 . S
C565 H580 0.930 . S
C566 C564 1.380 . S
C566 C567 1.391 . S
C566 H581 0.930 . S
C567 C566 1.391 . S
C567 C569 1.387 . S
C568 C565 1.398 . S
C568 C569 1.380 . S
C568 H582 0.930 . S
C569 C567 1.387 . S
C569 C568 1.380 . S
C569 H583 0.930 . S
C570 O550 1.254 . S
C570 O551 1.268 1_556 S
C571 O555 1.284 . S
C571 O558 1.250 . S
C572 Gd505 2.828 . S
C572 O554 1.258 . S
C572 O559 1.252 . S
C572 C573 1.497 . S
C573 C572 1.497 . S
C573 C574 1.395 . S
C573 C575 1.380 . S
C574 C573 1.395 . S
C574 C577 1.398 . S
C574 H584 0.930 . S
C575 C573 1.380 . S
C575 C576 1.391 . S
C575 H585 0.930 . S
C576 C575 1.391 . S
C576 C578 1.387 . S
C577 C574 1.398 . S
C577 C578 1.380 . S
C577 H586 0.930 . S
C578 C576 1.387 . S
C578 C577 1.380 . S
C578 H587 0.930 . S
C579 O556 1.254 . S
C579 O557 1.268 1_554 S
H580 C565 0.930 . S
H581 C566 0.930 . S
H582 C568 0.930 . S
H583 C569 0.930 . S
H584 C574 0.930 . S
H585 C575 0.930 . S
H586 C577 0.930 . S
H587 C578 0.930 . S
Gd588 N619 2.657 1_455 S
Gd588 N625 2.601 1_455 S
Gd588 O632 2.547 . S
Gd588 O633 2.607 . S
Gd588 O635 2.432 . S
Gd588 O636 2.547 . S
Gd588 O637 2.411 1_455 S
Gd588 O639 2.360 1_455 S
Gd588 O640 2.321 1_455 S
Gd588 C647 2.829 . S
Gd589 N598 2.657 . S
Gd589 N602 2.601 . S
Gd589 O633 2.360 . S
Gd589 O634 2.321 . S
Gd589 O638 2.547 1_455 S
Gd589 O639 2.607 1_455 S
Gd589 O641 2.432 1_455 S
Gd589 O642 2.547 1_455 S
Gd589 O643 2.411 . S
Gd589 C656 2.829 1_455 S
C590 C593 1.417 . S
C590 C595 1.431 . S
C590 C596 1.412 . S
C591 C594 1.437 . S
C591 C595 1.317 . S
C591 H610 0.929 . S
C592 C593 1.426 . S
C592 C594 1.413 . S
C592 N602 1.359 . S
C593 C590 1.417 . S
C593 C592 1.426 . S
C593 N598 1.350 . S
C594 C591 1.437 . S
C594 C592 1.413 . S
C594 C604 1.430 . S
C595 C590 1.431 . S
C595 C591 1.317 . S
C595 H606 0.930 . S
C596 C590 1.412 . S
C596 C597 1.355 . S
C596 H608 0.930 . S
C597 C596 1.355 . S
C597 C599 1.402 . S
C597 H609 0.930 . S
N598 Gd589 2.657 . S
N598 C593 1.350 . S
N598 C599 1.307 . S
C599 C597 1.402 . S
C599 N598 1.307 . S
C599 H600 0.930 . S
H600 C599 0.930 . S
C601 N602 1.334 1_655 S
C601 C603 1.394 . S
C601 H605 0.930 . S
N602 Gd589 2.601 . S
N602 C592 1.359 . S
N602 C601 1.334 1_455 S
C603 C601 1.394 . S
C603 C604 1.322 1_655 S
C603 H615 0.930 . S
C604 C594 1.430 . S
C604 C603 1.322 1_455 S
C604 H616 0.929 . S
H605 C601 0.930 . S
H606 C595 0.930 . S
H607 C624 0.930 . S
H608 C596 0.930 . S
H609 C597 0.930 . S
H610 C591 0.929 . S
H611 C629 0.930 . S
H612 C620 0.930 . S
H613 C621 0.930 . S
H614 C645 0.929 . S
H615 C603 0.930 . S
H616 C604 0.929 . S
H617 C646 0.930 . S
H618 C627 0.930 . S
N619 Gd588 2.657 1_655 S
N619 C623 1.350 . S
N619 C624 1.307 . S
C620 H612 0.930 . S
C620 C621 1.355 . S
C620 C622 1.412 . S
C621 H613 0.930 . S
C621 C620 1.355 . S
C621 C624 1.402 . S
C622 C620 1.412 . S
C622 C623 1.417 . S
C622 C646 1.431 . S
C623 N619 1.350 . S
C623 C622 1.417 . S
C623 C626 1.426 . S
C624 H607 0.930 . S
C624 N619 1.307 . S
C624 C621 1.402 . S
N625 Gd588 2.601 1_655 S
N625 C626 1.359 . S
N625 C629 1.334 1_655 S
C626 C623 1.426 . S
C626 N625 1.359 . S
C626 C630 1.413 . S
C627 H618 0.930 . S
C627 C628 1.330 1_455 S
C627 C629 1.394 . S
C628 C627 1.330 1_655 S
C628 C630 1.421 . S
C628 H631 0.929 . S
C629 H611 0.930 . S
C629 N625 1.334 1_455 S
C629 C627 1.394 . S
C630 C626 1.413 . S
C630 C628 1.421 . S
C630 C645 1.437 . S
H631 C628 0.929 . S
O632 Gd588 2.547 . S
O632 C647 1.258 . S
O633 Gd588 2.607 . S
O633 Gd589 2.360 . S
O633 C644 1.284 . S
O634 Gd589 2.321 . S
O634 C654 1.254 . S
O635 Gd588 2.432 . S
O635 C654 1.268 . S
O636 Gd588 2.547 . S
O636 C644 1.250 . S
O637 Gd588 2.411 1_655 S
O637 C647 1.252 1_655 S
O638 Gd589 2.547 1_655 S
O638 C656 1.258 . S
O639 Gd588 2.360 1_655 S
O639 Gd589 2.607 1_655 S
O639 C655 1.284 . S
O640 Gd588 2.321 1_655 S
O640 C663 1.254 . S
O641 Gd589 2.432 1_655 S
O641 C663 1.268 . S
O642 Gd589 2.547 1_655 S
O642 C655 1.250 . S
O643 Gd589 2.411 . S
O643 C656 1.252 1_455 S
C644 O633 1.284 . S
C644 O636 1.250 . S
C645 H614 0.929 . S
C645 C630 1.437 . S
C645 C646 1.317 . S
C646 H617 0.930 . S
C646 C622 1.431 . S
C646 C645 1.317 . S
C647 Gd588 2.829 . S
C647 O632 1.258 . S
C647 O637 1.252 1_455 S
C647 C648 1.497 . S
C648 C647 1.497 . S
C648 C649 1.395 . S
C648 C650 1.380 . S
C649 C648 1.395 . S
C649 C652 1.398 . S
C649 H664 0.930 . S
C650 C648 1.380 . S
C650 C651 1.391 . S
C650 H665 0.930 1_455 S
C651 C650 1.391 . S
C651 C653 1.387 . S
C652 C649 1.398 . S
C652 C653 1.380 . S
C652 H666 0.930 . S
C653 C651 1.387 . S
C653 C652 1.380 . S
C653 H667 0.930 . S
C654 O634 1.254 . S
C654 O635 1.268 . S
C655 O639 1.284 . S
C655 O642 1.250 . S
C656 Gd589 2.829 1_655 S
C656 O638 1.258 . S
C656 O643 1.252 1_655 S
C656 C657 1.497 . S
C657 C656 1.497 . S
C657 C658 1.395 . S
C657 C659 1.380 . S
C658 C657 1.395 . S
C658 C661 1.398 . S
C658 H668 0.930 . S
C659 C657 1.380 . S
C659 C660 1.391 . S
C659 H669 0.930 1_655 S
C660 C659 1.391 . S
C660 C662 1.387 . S
C661 C658 1.398 . S
C661 C662 1.380 . S
C661 H670 0.930 . S
C662 C660 1.387 . S
C662 C661 1.380 . S
C662 H671 0.930 . S
C663 O640 1.254 . S
C663 O641 1.268 . S
H664 C649 0.930 . S
H665 C650 0.930 1_655 S
H666 C652 0.930 . S
H667 C653 0.930 . S
H668 C658 0.930 . S
H669 C659 0.930 1_455 S
H670 C661 0.930 . S
H671 C662 0.930 . S
H672 C690 0.951 . S
H673 C692 0.951 . S
H674 C694 0.950 . S
H675 C695 0.950 . S
H676 C697 0.950 . S
H677 C700 0.950 . S
H678 C701 0.950 . S
H679 C703 0.950 . S
H680 C704 0.950 . S
H681 C705 0.951 . S
H682 C707 0.951 . S
H683 C709 0.950 . S
H684 C710 0.950 . S
H685 C712 0.950 . S
H686 C715 0.950 . S
H687 C716 0.950 . S
H688 C718 0.950 . S
H689 C719 0.950 . S
C690 H672 0.951 . S
C690 C691 1.366 . S
C690 C692 1.388 . S
C691 C690 1.366 . S
C691 C695 1.385 . S
C692 H673 0.951 . S
C692 C690 1.388 . S
C692 C693 1.366 . S
C693 C692 1.366 . S
C693 C694 1.414 . S
C693 C696 1.499 . S
C694 H674 0.950 . S
C694 C693 1.414 . S
C694 C695 1.374 . S
C695 H675 0.950 . S
C695 C691 1.385 . S
C695 C694 1.374 . S
C696 C693 1.499 . S
C696 C697 1.373 . S
C696 C698 1.389 . S
C697 H676 0.950 . S
C697 C696 1.373 . S
C697 C713 1.377 . S
C698 C696 1.389 . S
C698 C699 1.524 . S
C698 C712 1.377 . S
C699 C698 1.524 . S
C699 C700 1.397 . S
C699 C704 1.363 . S
C700 H677 0.950 . S
C700 C699 1.397 . S
C700 C701 1.334 . S
C701 H678 0.950 . S
C701 C700 1.334 . S
C701 C702 1.287 . S
C702 C701 1.287 . S
C702 C703 1.524 . S
C702 H721 0.913 . S
C703 H679 0.950 . S
C703 C702 1.524 . S
C703 C704 1.415 . S
C704 H680 0.950 . S
C704 C699 1.363 . S
C704 C703 1.415 . S
C705 H681 0.951 . S
C705 C706 1.366 . S
C705 C707 1.388 . S
C706 C705 1.366 . S
C706 C710 1.385 . S
C707 H682 0.951 . S
C707 C705 1.388 . S
C707 C708 1.366 . S
C708 C707 1.366 . S
C708 C709 1.414 . S
C708 C711 1.499 . S
C709 H683 0.950 . S
C709 C708 1.414 . S
C709 C710 1.374 . S
C710 H684 0.950 . S
C710 C706 1.385 . S
C710 C709 1.374 . S
C711 C708 1.499 . S
C711 C712 1.373 . S
C711 C713 1.389 . S
C712 H685 0.950 . S
C712 C698 1.377 . S
C712 C711 1.373 . S
C713 C697 1.377 . S
C713 C711 1.389 . S
C713 C714 1.524 . S
C714 C713 1.524 . S
C714 C715 1.397 . S
C714 C719 1.363 . S
C715 H686 0.950 . S
C715 C714 1.397 . S
C715 C716 1.334 . S
C716 H687 0.950 . S
C716 C715 1.334 . S
C716 C717 1.287 . S
C717 C716 1.287 . S
C717 C718 1.524 . S
C717 H720 0.999 . S
C718 H688 0.950 . S
C718 C717 1.524 . S
C718 C719 1.415 . S
C719 H689 0.950 . S
C719 C714 1.363 . S
C719 C718 1.415 . S
H720 C717 0.999 . S
H721 C702 0.913 . S
H722 C740 0.951 . S
H723 C742 0.951 . S
H724 C744 0.950 . S
H725 C745 0.950 . S
H726 C747 0.950 . S
H727 C750 0.950 . S
H728 C751 0.950 . S
H729 C753 0.950 . S
H730 C754 0.950 . S
H731 C755 0.951 . S
H732 C757 0.951 . S
H733 C759 0.950 . S
H734 C760 0.950 . S
H735 C762 0.950 . S
H736 C765 0.950 . S
H737 C766 0.950 . S
H738 C768 0.950 . S
H739 C769 0.950 . S
C740 H722 0.951 . S
C740 C741 1.366 . S
C740 C742 1.388 . S
C741 C740 1.366 . S
C741 C745 1.385 . S
C742 H723 0.951 . S
C742 C740 1.388 . S
C742 C743 1.366 . S
C743 C742 1.366 . S
C743 C744 1.414 . S
C743 C746 1.499 . S
C744 H724 0.950 . S
C744 C743 1.414 . S
C744 C745 1.374 . S
C745 H725 0.950 . S
C745 C741 1.385 . S
C745 C744 1.374 . S
C746 C743 1.499 . S
C746 C747 1.373 . S
C746 C748 1.389 . S
C747 H726 0.950 . S
C747 C746 1.373 . S
C747 C763 1.377 . S
C748 C746 1.389 . S
C748 C749 1.524 . S
C748 C762 1.377 . S
C749 C748 1.524 . S
C749 C750 1.397 . S
C749 C754 1.363 . S
C750 H727 0.950 . S
C750 C749 1.397 . S
C750 C751 1.334 . S
C751 H728 0.950 . S
C751 C750 1.334 . S
C751 C752 1.287 . S
C752 C751 1.287 . S
C752 C753 1.524 . S
C752 H771 0.913 . S
C753 H729 0.950 . S
C753 C752 1.524 . S
C753 C754 1.415 . S
C754 H730 0.950 . S
C754 C749 1.363 . S
C754 C753 1.415 . S
C755 H731 0.951 . S
C755 C756 1.366 . S
C755 C757 1.388 . S
C756 C755 1.366 . S
C756 C760 1.385 . S
C757 H732 0.951 . S
C757 C755 1.388 . S
C757 C758 1.366 . S
C758 C757 1.366 . S
C758 C759 1.414 . S
C758 C761 1.499 . S
C759 H733 0.950 . S
C759 C758 1.414 . S
C759 C760 1.374 . S
C760 H734 0.950 . S
C760 C756 1.385 . S
C760 C759 1.374 . S
C761 C758 1.499 . S
C761 C762 1.373 . S
C761 C763 1.389 . S
C762 H735 0.950 . S
C762 C748 1.377 . S
C762 C761 1.373 . S
C763 C747 1.377 . S
C763 C761 1.389 . S
C763 C764 1.524 . S
C764 C763 1.524 . S
C764 C765 1.397 . S
C764 C769 1.363 . S
C765 H736 0.950 . S
C765 C764 1.397 . S
C765 C766 1.334 . S
C766 H737 0.950 . S
C766 C765 1.334 . S
C766 C767 1.287 . S
C767 C766 1.287 . S
C767 C768 1.524 . S
C767 H770 0.999 . S
C768 H738 0.950 . S
C768 C767 1.524 . S
C768 C769 1.415 . S
C769 H739 0.950 . S
C769 C764 1.363 . S
C769 C768 1.415 . S
H770 C767 0.999 . S
H771 C752 0.913 . S
H772 C790 0.951 . S
H773 C792 0.951 . S
H774 C794 0.950 . S
H775 C795 0.950 . S
H776 C797 0.950 . S
H777 C800 0.950 . S
H778 C801 0.950 . S
H779 C803 0.950 . S
H780 C804 0.950 . S
H781 C805 0.951 . S
H782 C807 0.951 . S
H783 C809 0.950 . S
H784 C810 0.950 . S
H785 C812 0.950 . S
H786 C815 0.950 . S
H787 C816 0.950 . S
H788 C818 0.950 . S
H789 C819 0.950 . S
C790 H772 0.951 . S
C790 C791 1.366 . S
C790 C792 1.388 . S
C791 C790 1.366 . S
C791 C795 1.385 . S
C792 H773 0.951 . S
C792 C790 1.388 . S
C792 C793 1.366 . S
C793 C792 1.366 . S
C793 C794 1.414 . S
C793 C796 1.499 . S
C794 H774 0.950 . S
C794 C793 1.414 . S
C794 C795 1.374 . S
C795 H775 0.950 . S
C795 C791 1.385 . S
C795 C794 1.374 . S
C796 C793 1.499 . S
C796 C797 1.373 . S
C796 C798 1.389 . S
C797 H776 0.950 . S
C797 C796 1.373 . S
C797 C813 1.377 . S
C798 C796 1.389 . S
C798 C799 1.524 . S
C798 C812 1.377 . S
C799 C798 1.524 . S
C799 C800 1.397 . S
C799 C804 1.363 . S
C800 H777 0.950 . S
C800 C799 1.397 . S
C800 C801 1.334 . S
C801 H778 0.950 . S
C801 C800 1.334 . S
C801 C802 1.287 . S
C802 C801 1.287 . S
C802 C803 1.524 . S
C802 H821 0.913 . S
C803 H779 0.950 . S
C803 C802 1.524 . S
C803 C804 1.415 . S
C804 H780 0.950 . S
C804 C799 1.363 . S
C804 C803 1.415 . S
C805 H781 0.951 . S
C805 C806 1.366 . S
C805 C807 1.388 . S
C806 C805 1.366 . S
C806 C810 1.385 . S
C807 H782 0.951 . S
C807 C805 1.388 . S
C807 C808 1.366 . S
C808 C807 1.366 . S
C808 C809 1.414 . S
C808 C811 1.499 . S
C809 H783 0.950 . S
C809 C808 1.414 . S
C809 C810 1.374 . S
C810 H784 0.950 . S
C810 C806 1.385 . S
C810 C809 1.374 . S
C811 C808 1.499 . S
C811 C812 1.373 . S
C811 C813 1.389 . S
C812 H785 0.950 . S
C812 C798 1.377 . S
C812 C811 1.373 . S
C813 C797 1.377 . S
C813 C811 1.389 . S
C813 C814 1.524 . S
C814 C813 1.524 . S
C814 C815 1.397 . S
C814 C819 1.363 . S
C815 H786 0.950 . S
C815 C814 1.397 . S
C815 C816 1.334 . S
C816 H787 0.950 . S
C816 C815 1.334 . S
C816 C817 1.287 . S
C817 C816 1.287 . S
C817 C818 1.524 . S
C817 H820 0.999 . S
C818 H788 0.950 . S
C818 C817 1.524 . S
C818 C819 1.415 . S
C819 H789 0.950 . S
C819 C814 1.363 . S
C819 C818 1.415 . S
H820 C817 0.999 . S
H821 C802 0.913 . S
H822 C840 0.951 . S
H823 C842 0.951 . S
H824 C844 0.950 . S
H825 C845 0.950 . S
H826 C847 0.950 . S
H827 C850 0.950 . S
H828 C851 0.950 . S
H829 C853 0.950 . S
H830 C854 0.950 . S
H831 C855 0.951 . S
H832 C857 0.951 . S
H833 C859 0.950 . S
H834 C860 0.950 . S
H835 C862 0.950 . S
H836 C865 0.950 . S
H837 C866 0.950 . S
H838 C868 0.950 . S
H839 C869 0.950 . S
C840 H822 0.951 . S
C840 C841 1.366 . S
C840 C842 1.388 . S
C841 C840 1.366 . S
C841 C845 1.385 . S
C842 H823 0.951 . S
C842 C840 1.388 . S
C842 C843 1.366 . S
C843 C842 1.366 . S
C843 C844 1.414 . S
C843 C846 1.499 . S
C844 H824 0.950 . S
C844 C843 1.414 . S
C844 C845 1.374 . S
C845 H825 0.950 . S
C845 C841 1.385 . S
C845 C844 1.374 . S
C846 C843 1.499 . S
C846 C847 1.373 . S
C846 C848 1.389 . S
C847 H826 0.950 . S
C847 C846 1.373 . S
C847 C863 1.377 . S
C848 C846 1.389 . S
C848 C849 1.524 . S
C848 C862 1.377 . S
C849 C848 1.524 . S
C849 C850 1.397 . S
C849 C854 1.363 . S
C850 H827 0.950 . S
C850 C849 1.397 . S
C850 C851 1.334 1_554 S
C851 H828 0.950 . S
C851 C850 1.334 1_556 S
C851 C852 1.287 . S
C852 C851 1.287 . S
C852 C853 1.524 1_556 S
C852 H871 0.913 . S
C853 H829 0.950 . S
C853 C852 1.524 1_554 S
C853 C854 1.415 . S
C854 H830 0.950 . S
C854 C849 1.363 . S
C854 C853 1.415 . S
C855 H831 0.951 . S
C855 C856 1.366 . S
C855 C857 1.388 . S
C856 C855 1.366 . S
C856 C860 1.385 . S
C857 H832 0.951 . S
C857 C855 1.388 . S
C857 C858 1.366 . S
C858 C857 1.366 . S
C858 C859 1.414 . S
C858 C861 1.499 . S
C859 H833 0.950 . S
C859 C858 1.414 . S
C859 C860 1.374 . S
C860 H834 0.950 . S
C860 C856 1.385 . S
C860 C859 1.374 . S
C861 C858 1.499 . S
C861 C862 1.373 . S
C861 C863 1.389 . S
C862 H835 0.950 . S
C862 C848 1.377 . S
C862 C861 1.373 . S
C863 C847 1.377 . S
C863 C861 1.389 . S
C863 C864 1.524 . S
C864 C863 1.524 . S
C864 C865 1.397 . S
C864 C869 1.363 . S
C865 H836 0.950 . S
C865 C864 1.397 . S
C865 C866 1.334 . S
C866 H837 0.950 . S
C866 C865 1.334 . S
C866 C867 1.287 . S
C867 C866 1.287 . S
C867 C868 1.524 . S
C867 H870 0.999 . S
C868 H838 0.950 . S
C868 C867 1.524 . S
C868 C869 1.415 . S
C869 H839 0.950 . S
C869 C864 1.363 . S
C869 C868 1.415 . S
H870 C867 0.999 . S
H871 C852 0.913 . S
H872 C890 0.951 . S
H873 C892 0.951 . S
H874 C894 0.950 . S
H875 C895 0.950 . S
H876 C897 0.950 . S
H877 C900 0.950 . S
H878 C901 0.950 . S
H879 C903 0.950 . S
H880 C904 0.950 . S
H881 C905 0.951 . S
H882 C907 0.951 . S
H883 C909 0.950 . S
H884 C910 0.950 . S
H885 C912 0.950 . S
H886 C915 0.950 . S
H887 C916 0.950 . S
H888 C918 0.950 . S
H889 C919 0.950 . S
C890 H872 0.951 . S
C890 C891 1.366 . S
C890 C892 1.388 . S
C891 C890 1.366 . S
C891 C895 1.385 . S
C892 H873 0.951 . S
C892 C890 1.388 . S
C892 C893 1.366 . S
C893 C892 1.366 . S
C893 C894 1.414 . S
C893 C896 1.499 . S
C894 H874 0.950 . S
C894 C893 1.414 . S
C894 C895 1.374 . S
C895 H875 0.950 . S
C895 C891 1.385 . S
C895 C894 1.374 . S
C896 C893 1.499 . S
C896 C897 1.373 . S
C896 C898 1.389 . S
C897 H876 0.950 . S
C897 C896 1.373 . S
C897 C913 1.377 . S
C898 C896 1.389 . S
C898 C899 1.524 . S
C898 C912 1.377 . S
C899 C898 1.524 . S
C899 C900 1.397 . S
C899 C904 1.363 . S
C900 H877 0.950 . S
C900 C899 1.397 . S
C900 C901 1.334 . S
C901 H878 0.950 . S
C901 C900 1.334 . S
C901 C902 1.287 . S
C902 C901 1.287 . S
C902 C903 1.524 . S
C902 H921 0.913 . S
C903 H879 0.950 . S
C903 C902 1.524 . S
C903 C904 1.415 . S
C904 H880 0.950 . S
C904 C899 1.363 . S
C904 C903 1.415 . S
C905 H881 0.951 . S
C905 C906 1.366 . S
C905 C907 1.388 . S
C906 C905 1.366 . S
C906 C910 1.385 . S
C907 H882 0.951 . S
C907 C905 1.388 . S
C907 C908 1.366 . S
C908 C907 1.366 . S
C908 C909 1.414 . S
C908 C911 1.499 . S
C909 H883 0.950 . S
C909 C908 1.414 . S
C909 C910 1.374 . S
C910 H884 0.950 . S
C910 C906 1.385 . S
C910 C909 1.374 . S
C911 C908 1.499 . S
C911 C912 1.373 . S
C911 C913 1.389 . S
C912 H885 0.950 . S
C912 C898 1.377 . S
C912 C911 1.373 . S
C913 C897 1.377 . S
C913 C911 1.389 . S
C913 C914 1.524 . S
C914 C913 1.524 . S
C914 C915 1.397 . S
C914 C919 1.363 . S
C915 H886 0.950 . S
C915 C914 1.397 . S
C915 C916 1.334 . S
C916 H887 0.950 . S
C916 C915 1.334 . S
C916 C917 1.287 . S
C917 C916 1.287 . S
C917 C918 1.524 . S
C917 H920 0.999 . S
C918 H888 0.950 . S
C918 C917 1.524 . S
C918 C919 1.415 . S
C919 H889 0.950 . S
C919 C914 1.363 . S
C919 C918 1.415 . S
H920 C917 0.999 . S
H921 C902 0.913 . S
H922 C940 0.951 . S
H923 C942 0.951 . S
H924 C944 0.950 . S
H925 C945 0.950 . S
H926 C947 0.950 . S
H927 C950 0.950 . S
H928 C951 0.950 . S
H929 C953 0.950 . S
H930 C954 0.950 . S
H931 C955 0.951 . S
H932 C957 0.951 . S
H933 C959 0.950 . S
H934 C960 0.950 . S
H935 C962 0.950 . S
H936 C965 0.950 . S
H937 C966 0.950 . S
H938 C968 0.950 . S
H939 C969 0.950 . S
C940 H922 0.951 . S
C940 C941 1.366 . S
C940 C942 1.388 . S
C941 C940 1.366 . S
C941 C945 1.385 . S
C942 H923 0.951 . S
C942 C940 1.388 . S
C942 C943 1.366 . S
C943 C942 1.366 . S
C943 C944 1.414 . S
C943 C946 1.499 . S
C944 H924 0.950 . S
C944 C943 1.414 . S
C944 C945 1.374 . S
C945 H925 0.950 . S
C945 C941 1.385 . S
C945 C944 1.374 . S
C946 C943 1.499 . S
C946 C947 1.373 . S
C946 C948 1.389 . S
C947 H926 0.950 . S
C947 C946 1.373 . S
C947 C963 1.377 . S
C948 C946 1.389 . S
C948 C949 1.524 . S
C948 C962 1.377 . S
C949 C948 1.524 . S
C949 C950 1.397 . S
C949 C954 1.363 . S
C950 H927 0.950 . S
C950 C949 1.397 . S
C950 C951 1.334 . S
C951 H928 0.950 . S
C951 C950 1.334 . S
C951 C952 1.287 . S
C952 C951 1.287 . S
C952 C953 1.524 . S
C952 H971 0.913 . S
C953 H929 0.950 . S
C953 C952 1.524 . S
C953 C954 1.415 . S
C954 H930 0.950 . S
C954 C949 1.363 . S
C954 C953 1.415 . S
C955 H931 0.951 . S
C955 C956 1.366 . S
C955 C957 1.388 . S
C956 C955 1.366 . S
C956 C960 1.385 . S
C957 H932 0.951 . S
C957 C955 1.388 . S
C957 C958 1.366 . S
C958 C957 1.366 . S
C958 C959 1.414 . S
C958 C961 1.499 . S
C959 H933 0.950 . S
C959 C958 1.414 . S
C959 C960 1.374 . S
C960 H934 0.950 . S
C960 C956 1.385 . S
C960 C959 1.374 . S
C961 C958 1.499 . S
C961 C962 1.373 . S
C961 C963 1.389 . S
C962 H935 0.950 . S
C962 C948 1.377 . S
C962 C961 1.373 . S
C963 C947 1.377 . S
C963 C961 1.389 . S
C963 C964 1.524 . S
C964 C963 1.524 . S
C964 C965 1.397 . S
C964 C969 1.363 . S
C965 H936 0.950 . S
C965 C964 1.397 . S
C965 C966 1.334 . S
C966 H937 0.950 . S
C966 C965 1.334 . S
C966 C967 1.287 . S
C967 C966 1.287 . S
C967 C968 1.524 . S
C967 H970 0.999 . S
C968 H938 0.950 . S
C968 C967 1.524 . S
C968 C969 1.415 . S
C969 H939 0.950 . S
C969 C964 1.363 . S
C969 C968 1.415 . S
H970 C967 0.999 . S
H971 C952 0.913 . S
H972 C990 0.951 . S
H973 C992 0.951 . S
H974 C994 0.950 . S
H975 C995 0.950 . S
H976 C997 0.950 . S
H977 C1000 0.950 . S
H978 C1001 0.950 . S
H979 C1003 0.950 . S
H980 C1004 0.950 . S
H981 C1005 0.951 . S
H982 C1007 0.951 . S
H983 C1009 0.950 . S
H984 C1010 0.950 . S
H985 C1012 0.950 . S
H986 C1015 0.950 . S
H987 C1016 0.950 . S
H988 C1018 0.950 . S
H989 C1019 0.950 . S
C990 H972 0.951 . S
C990 C991 1.366 . S
C990 C992 1.388 . S
C991 C990 1.366 . S
C991 C995 1.385 . S
C992 H973 0.951 . S
C992 C990 1.388 . S
C992 C993 1.366 . S
C993 C992 1.366 . S
C993 C994 1.414 . S
C993 C996 1.499 . S
C994 H974 0.950 . S
C994 C993 1.414 . S
C994 C995 1.374 . S
C995 H975 0.950 . S
C995 C991 1.385 . S
C995 C994 1.374 . S
C996 C993 1.499 . S
C996 C997 1.373 . S
C996 C998 1.389 . S
C997 H976 0.950 . S
C997 C996 1.373 . S
C997 C1013 1.377 . S
C998 C996 1.389 . S
C998 C999 1.524 . S
C998 C1012 1.377 . S
C999 C998 1.524 . S
C999 C1000 1.397 . S
C999 C1004 1.363 . S
C1000 H977 0.950 . S
C1000 C999 1.397 . S
C1000 C1001 1.334 . S
C1001 H978 0.950 . S
C1001 C1000 1.334 . S
C1001 C1002 1.287 . S
C1002 C1001 1.287 . S
C1002 C1003 1.524 . S
C1002 H1021 0.913 . S
C1003 H979 0.950 . S
C1003 C1002 1.524 . S
C1003 C1004 1.415 . S
C1004 H980 0.950 . S
C1004 C999 1.363 . S
C1004 C1003 1.415 . S
C1005 H981 0.951 . S
C1005 C1006 1.366 . S
C1005 C1007 1.388 . S
C1006 C1005 1.366 . S
C1006 C1010 1.385 . S
C1007 H982 0.951 . S
C1007 C1005 1.388 . S
C1007 C1008 1.366 . S
C1008 C1007 1.366 . S
C1008 C1009 1.414 . S
C1008 C1011 1.499 . S
C1009 H983 0.950 . S
C1009 C1008 1.414 . S
C1009 C1010 1.374 . S
C1010 H984 0.950 . S
C1010 C1006 1.385 . S
C1010 C1009 1.374 . S
C1011 C1008 1.499 . S
C1011 C1012 1.373 . S
C1011 C1013 1.389 . S
C1012 H985 0.950 . S
C1012 C998 1.377 . S
C1012 C1011 1.373 . S
C1013 C997 1.377 . S
C1013 C1011 1.389 . S
C1013 C1014 1.524 . S
C1014 C1013 1.524 . S
C1014 C1015 1.397 . S
C1014 C1019 1.363 . S
C1015 H986 0.950 . S
C1015 C1014 1.397 . S
C1015 C1016 1.334 . S
C1016 H987 0.950 . S
C1016 C1015 1.334 . S
C1016 C1017 1.287 . S
C1017 C1016 1.287 . S
C1017 C1018 1.524 . S
C1017 H1020 0.999 . S
C1018 H988 0.950 . S
C1018 C1017 1.524 . S
C1018 C1019 1.415 . S
C1019 H989 0.950 . S
C1019 C1014 1.363 . S
C1019 C1018 1.415 . S
H1020 C1017 0.999 . S
H1021 C1002 0.913 . S
H1022 C1040 0.951 . S
H1023 C1042 0.951 . S
H1024 C1044 0.950 . S
H1025 C1045 0.950 . S
H1026 C1047 0.950 . S
H1027 C1050 0.950 . S
H1028 C1051 0.950 . S
H1029 C1053 0.950 . S
H1030 C1054 0.950 . S
H1031 C1055 0.951 . S
H1032 C1057 0.951 . S
H1033 C1059 0.950 . S
H1034 C1060 0.950 . S
H1035 C1062 0.950 . S
H1036 C1065 0.950 . S
H1037 C1066 0.950 . S
H1038 C1068 0.950 . S
H1039 C1069 0.950 . S
C1040 H1022 0.951 . S
C1040 C1041 1.366 . S
C1040 C1042 1.388 . S
C1041 C1040 1.366 . S
C1041 C1045 1.385 . S
C1042 H1023 0.951 . S
C1042 C1040 1.388 . S
C1042 C1043 1.366 . S
C1043 C1042 1.366 . S
C1043 C1044 1.414 . S
C1043 C1046 1.499 . S
C1044 H1024 0.950 . S
C1044 C1043 1.414 . S
C1044 C1045 1.374 . S
C1045 H1025 0.950 . S
C1045 C1041 1.385 . S
C1045 C1044 1.374 . S
C1046 C1043 1.499 . S
C1046 C1047 1.373 . S
C1046 C1048 1.389 . S
C1047 H1026 0.950 . S
C1047 C1046 1.373 . S
C1047 C1063 1.377 . S
C1048 C1046 1.389 . S
C1048 C1049 1.524 . S
C1048 C1062 1.377 . S
C1049 C1048 1.524 . S
C1049 C1050 1.397 . S
C1049 C1054 1.363 . S
C1050 H1027 0.950 . S
C1050 C1049 1.397 . S
C1050 C1051 1.334 . S
C1051 H1028 0.950 . S
C1051 C1050 1.334 . S
C1051 C1052 1.287 . S
C1052 C1051 1.287 . S
C1052 C1053 1.524 . S
C1052 H1071 0.913 . S
C1053 H1029 0.950 . S
C1053 C1052 1.524 . S
C1053 C1054 1.415 . S
C1054 H1030 0.950 . S
C1054 C1049 1.363 . S
C1054 C1053 1.415 . S
C1055 H1031 0.951 . S
C1055 C1056 1.366 . S
C1055 C1057 1.388 . S
C1056 C1055 1.366 . S
C1056 C1060 1.385 . S
C1057 H1032 0.951 . S
C1057 C1055 1.388 . S
C1057 C1058 1.366 . S
C1058 C1057 1.366 . S
C1058 C1059 1.414 . S
C1058 C1061 1.499 . S
C1059 H1033 0.950 . S
C1059 C1058 1.414 . S
C1059 C1060 1.374 . S
C1060 H1034 0.950 . S
C1060 C1056 1.385 . S
C1060 C1059 1.374 . S
C1061 C1058 1.499 . S
C1061 C1062 1.373 . S
C1061 C1063 1.389 . S
C1062 H1035 0.950 . S
C1062 C1048 1.377 . S
C1062 C1061 1.373 . S
C1063 C1047 1.377 . S
C1063 C1061 1.389 . S
C1063 C1064 1.524 . S
C1064 C1063 1.524 . S
C1064 C1065 1.397 . S
C1064 C1069 1.363 . S
C1065 H1036 0.950 . S
C1065 C1064 1.397 . S
C1065 C1066 1.334 . S
C1066 H1037 0.950 . S
C1066 C1065 1.334 . S
C1066 C1067 1.287 . S
C1067 C1066 1.287 . S
C1067 C1068 1.524 . S
C1067 H1070 0.999 . S
C1068 H1038 0.950 . S
C1068 C1067 1.524 . S
C1068 C1069 1.415 . S
C1069 H1039 0.950 . S
C1069 C1064 1.363 . S
C1069 C1068 1.415 . S
H1070 C1067 0.999 . S
H1071 C1052 0.913 . S
H1072 C1090 0.951 . S
H1073 C1092 0.951 . S
H1074 C1094 0.950 . S
H1075 C1095 0.950 . S
H1076 C1097 0.950 . S
H1077 C1100 0.950 . S
H1078 C1101 0.950 . S
H1079 C1103 0.950 . S
H1080 C1104 0.950 . S
H1081 C1105 0.951 . S
H1082 C1107 0.951 . S
H1083 C1109 0.950 . S
H1084 C1110 0.950 . S
H1085 C1112 0.950 . S
H1086 C1115 0.950 . S
H1087 C1116 0.950 . S
H1088 C1118 0.950 . S
H1089 C1119 0.950 . S
C1090 H1072 0.951 . S
C1090 C1091 1.366 . S
C1090 C1092 1.388 . S
C1091 C1090 1.366 . S
C1091 C1095 1.385 . S
C1092 H1073 0.951 . S
C1092 C1090 1.388 . S
C1092 C1093 1.366 . S
C1093 C1092 1.366 . S
C1093 C1094 1.414 . S
C1093 C1096 1.499 . S
C1094 H1074 0.950 . S
C1094 C1093 1.414 . S
C1094 C1095 1.374 . S
C1095 H1075 0.950 . S
C1095 C1091 1.385 . S
C1095 C1094 1.374 . S
C1096 C1093 1.499 . S
C1096 C1097 1.373 . S
C1096 C1098 1.389 . S
C1097 H1076 0.950 . S
C1097 C1096 1.373 . S
C1097 C1113 1.377 . S
C1098 C1096 1.389 . S
C1098 C1099 1.524 . S
C1098 C1112 1.377 . S
C1099 C1098 1.524 . S
C1099 C1100 1.397 . S
C1099 C1104 1.363 . S
C1100 H1077 0.950 . S
C1100 C1099 1.397 . S
C1100 C1101 1.334 . S
C1101 H1078 0.950 . S
C1101 C1100 1.334 . S
C1101 C1102 1.287 . S
C1102 C1101 1.287 . S
C1102 C1103 1.524 . S
C1102 H1121 0.913 . S
C1103 H1079 0.950 . S
C1103 C1102 1.524 . S
C1103 C1104 1.415 . S
C1104 H1080 0.950 . S
C1104 C1099 1.363 . S
C1104 C1103 1.415 . S
C1105 H1081 0.951 . S
C1105 C1106 1.366 . S
C1105 C1107 1.388 . S
C1106 C1105 1.366 . S
C1106 C1110 1.385 . S
C1107 H1082 0.951 . S
C1107 C1105 1.388 . S
C1107 C1108 1.366 . S
C1108 C1107 1.366 . S
C1108 C1109 1.414 . S
C1108 C1111 1.499 . S
C1109 H1083 0.950 . S
C1109 C1108 1.414 . S
C1109 C1110 1.374 . S
C1110 H1084 0.950 . S
C1110 C1106 1.385 . S
C1110 C1109 1.374 . S
C1111 C1108 1.499 . S
C1111 C1112 1.373 . S
C1111 C1113 1.389 . S
C1112 H1085 0.950 . S
C1112 C1098 1.377 . S
C1112 C1111 1.373 . S
C1113 C1097 1.377 . S
C1113 C1111 1.389 . S
C1113 C1114 1.524 . S
C1114 C1113 1.524 . S
C1114 C1115 1.397 . S
C1114 C1119 1.363 . S
C1115 H1086 0.950 . S
C1115 C1114 1.397 . S
C1115 C1116 1.334 . S
C1116 H1087 0.950 . S
C1116 C1115 1.334 . S
C1116 C1117 1.287 . S
C1117 C1116 1.287 . S
C1117 C1118 1.524 . S
C1117 H1120 0.999 . S
C1118 H1088 0.950 . S
C1118 C1117 1.524 . S
C1118 C1119 1.415 . S
C1119 H1089 0.950 . S
C1119 C1114 1.363 . S
C1119 C1118 1.415 . S
H1120 C1117 0.999 . S
H1121 C1102 0.913 . S
H1122 C1140 0.951 . S
H1123 C1142 0.951 . S
H1124 C1144 0.950 . S
H1125 C1145 0.950 . S
H1126 C1147 0.950 . S
H1127 C1150 0.950 . S
H1128 C1151 0.950 . S
H1129 C1153 0.950 . S
H1130 C1154 0.950 . S
H1131 C1155 0.951 . S
H1132 C1157 0.951 . S
H1133 C1159 0.950 . S
H1134 C1160 0.950 . S
H1135 C1162 0.950 . S
H1136 C1165 0.950 . S
H1137 C1166 0.950 . S
H1138 C1168 0.950 . S
H1139 C1169 0.950 . S
C1140 H1122 0.951 . S
C1140 C1141 1.366 . S
C1140 C1142 1.388 . S
C1141 C1140 1.366 . S
C1141 C1145 1.385 . S
C1142 H1123 0.951 . S
C1142 C1140 1.388 . S
C1142 C1143 1.366 . S
C1143 C1142 1.366 . S
C1143 C1144 1.414 . S
C1143 C1146 1.499 . S
C1144 H1124 0.950 . S
C1144 C1143 1.414 . S
C1144 C1145 1.374 . S
C1145 H1125 0.950 . S
C1145 C1141 1.385 . S
C1145 C1144 1.374 . S
C1146 C1143 1.499 . S
C1146 C1147 1.373 . S
C1146 C1148 1.389 . S
C1147 H1126 0.950 . S
C1147 C1146 1.373 . S
C1147 C1163 1.377 . S
C1148 C1146 1.389 . S
C1148 C1149 1.524 . S
C1148 C1162 1.377 . S
C1149 C1148 1.524 . S
C1149 C1150 1.397 . S
C1149 C1154 1.363 . S
C1150 H1127 0.950 . S
C1150 C1149 1.397 . S
C1150 C1151 1.334 . S
C1151 H1128 0.950 . S
C1151 C1150 1.334 . S
C1151 C1152 1.287 . S
C1152 C1151 1.287 . S
C1152 C1153 1.524 . S
C1152 H1171 0.913 . S
C1153 H1129 0.950 . S
C1153 C1152 1.524 . S
C1153 C1154 1.415 . S
C1154 H1130 0.950 . S
C1154 C1149 1.363 . S
C1154 C1153 1.415 . S
C1155 H1131 0.951 . S
C1155 C1156 1.366 . S
C1155 C1157 1.388 . S
C1156 C1155 1.366 . S
C1156 C1160 1.385 . S
C1157 H1132 0.951 . S
C1157 C1155 1.388 . S
C1157 C1158 1.366 . S
C1158 C1157 1.366 . S
C1158 C1159 1.414 . S
C1158 C1161 1.499 . S
C1159 H1133 0.950 . S
C1159 C1158 1.414 . S
C1159 C1160 1.374 . S
C1160 H1134 0.950 . S
C1160 C1156 1.385 . S
C1160 C1159 1.374 . S
C1161 C1158 1.499 . S
C1161 C1162 1.373 . S
C1161 C1163 1.389 . S
C1162 H1135 0.950 . S
C1162 C1148 1.377 . S
C1162 C1161 1.373 . S
C1163 C1147 1.377 . S
C1163 C1161 1.389 . S
C1163 C1164 1.524 . S
C1164 C1163 1.524 . S
C1164 C1165 1.397 . S
C1164 C1169 1.363 . S
C1165 H1136 0.950 . S
C1165 C1164 1.397 . S
C1165 C1166 1.334 . S
C1166 H1137 0.950 . S
C1166 C1165 1.334 . S
C1166 C1167 1.287 . S
C1167 C1166 1.287 . S
C1167 C1168 1.524 . S
C1167 H1170 0.999 . S
C1168 H1138 0.950 . S
C1168 C1167 1.524 . S
C1168 C1169 1.415 . S
C1169 H1139 0.950 . S
C1169 C1164 1.363 . S
C1169 C1168 1.415 . S
H1170 C1167 0.999 . S
H1171 C1152 0.913 . S
H1172 C1190 0.951 . S
H1173 C1192 0.951 . S
H1174 C1194 0.950 . S
H1175 C1195 0.950 . S
H1176 C1197 0.950 . S
H1177 C1200 0.950 . S
H1178 C1201 0.950 . S
H1179 C1203 0.950 . S
H1180 C1204 0.950 . S
H1181 C1205 0.951 . S
H1182 C1207 0.951 . S
H1183 C1209 0.950 . S
H1184 C1210 0.950 . S
H1185 C1212 0.950 . S
H1186 C1215 0.950 . S
H1187 C1216 0.950 . S
H1188 C1218 0.950 . S
H1189 C1219 0.950 . S
C1190 H1172 0.951 . S
C1190 C1191 1.366 . S
C1190 C1192 1.388 . S
C1191 C1190 1.366 . S
C1191 C1195 1.385 . S
C1192 H1173 0.951 . S
C1192 C1190 1.388 . S
C1192 C1193 1.366 . S
C1193 C1192 1.366 . S
C1193 C1194 1.414 . S
C1193 C1196 1.499 . S
C1194 H1174 0.950 . S
C1194 C1193 1.414 . S
C1194 C1195 1.374 . S
C1195 H1175 0.950 . S
C1195 C1191 1.385 . S
C1195 C1194 1.374 . S
C1196 C1193 1.499 . S
C1196 C1197 1.373 . S
C1196 C1198 1.389 . S
C1197 H1176 0.950 . S
C1197 C1196 1.373 . S
C1197 C1213 1.377 . S
C1198 C1196 1.389 . S
C1198 C1199 1.524 . S
C1198 C1212 1.377 . S
C1199 C1198 1.524 . S
C1199 C1200 1.397 . S
C1199 C1204 1.363 . S
C1200 H1177 0.950 . S
C1200 C1199 1.397 . S
C1200 C1201 1.334 . S
C1201 H1178 0.950 . S
C1201 C1200 1.334 . S
C1201 C1202 1.287 . S
C1202 C1201 1.287 . S
C1202 C1203 1.524 . S
C1202 H1221 0.913 . S
C1203 H1179 0.950 . S
C1203 C1202 1.524 . S
C1203 C1204 1.415 . S
C1204 H1180 0.950 . S
C1204 C1199 1.363 . S
C1204 C1203 1.415 . S
C1205 H1181 0.951 . S
C1205 C1206 1.366 . S
C1205 C1207 1.388 . S
C1206 C1205 1.366 . S
C1206 C1210 1.385 . S
C1207 H1182 0.951 . S
C1207 C1205 1.388 . S
C1207 C1208 1.366 . S
C1208 C1207 1.366 . S
C1208 C1209 1.414 . S
C1208 C1211 1.499 . S
C1209 H1183 0.950 . S
C1209 C1208 1.414 . S
C1209 C1210 1.374 . S
C1210 H1184 0.950 . S
C1210 C1206 1.385 . S
C1210 C1209 1.374 . S
C1211 C1208 1.499 . S
C1211 C1212 1.373 . S
C1211 C1213 1.389 . S
C1212 H1185 0.950 . S
C1212 C1198 1.377 . S
C1212 C1211 1.373 . S
C1213 C1197 1.377 . S
C1213 C1211 1.389 . S
C1213 C1214 1.524 . S
C1214 C1213 1.524 . S
C1214 C1215 1.397 . S
C1214 C1219 1.363 . S
C1215 H1186 0.950 . S
C1215 C1214 1.397 . S
C1215 C1216 1.334 . S
C1216 H1187 0.950 . S
C1216 C1215 1.334 . S
C1216 C1217 1.287 . S
C1217 C1216 1.287 . S
C1217 C1218 1.524 . S
C1217 H1220 0.999 . S
C1218 H1188 0.950 . S
C1218 C1217 1.524 . S
C1218 C1219 1.415 . S
C1219 H1189 0.950 . S
C1219 C1214 1.363 . S
C1219 C1218 1.415 . S
H1220 C1217 0.999 . S
H1221 C1202 0.913 . S
H1222 C1240 0.951 . S
H1223 C1242 0.951 . S
H1224 C1244 0.950 . S
H1225 C1245 0.950 . S
H1226 C1247 0.950 . S
H1227 C1250 0.950 . S
H1228 C1251 0.950 . S
H1229 C1253 0.950 . S
H1230 C1254 0.950 . S
H1231 C1255 0.951 . S
H1232 C1257 0.951 . S
H1233 C1259 0.950 . S
H1234 C1260 0.950 . S
H1235 C1262 0.950 . S
H1236 C1265 0.950 . S
H1237 C1266 0.950 . S
H1238 C1268 0.950 . S
H1239 C1269 0.950 . S
C1240 H1222 0.951 . S
C1240 C1241 1.366 . S
C1240 C1242 1.388 . S
C1241 C1240 1.366 . S
C1241 C1245 1.385 . S
C1242 H1223 0.951 . S
C1242 C1240 1.388 . S
C1242 C1243 1.366 . S
C1243 C1242 1.366 . S
C1243 C1244 1.414 . S
C1243 C1246 1.499 . S
C1244 H1224 0.950 . S
C1244 C1243 1.414 . S
C1244 C1245 1.374 . S
C1245 H1225 0.950 . S
C1245 C1241 1.385 . S
C1245 C1244 1.374 . S
C1246 C1243 1.499 . S
C1246 C1247 1.373 . S
C1246 C1248 1.389 . S
C1247 H1226 0.950 . S
C1247 C1246 1.373 . S
C1247 C1263 1.377 . S
C1248 C1246 1.389 . S
C1248 C1249 1.524 . S
C1248 C1262 1.377 . S
C1249 C1248 1.524 . S
C1249 C1250 1.397 . S
C1249 C1254 1.363 . S
C1250 H1227 0.950 . S
C1250 C1249 1.397 . S
C1250 C1251 1.334 . S
C1251 H1228 0.950 . S
C1251 C1250 1.334 . S
C1251 C1252 1.287 . S
C1252 C1251 1.287 . S
C1252 C1253 1.524 . S
C1252 H1271 0.913 . S
C1253 H1229 0.950 . S
C1253 C1252 1.524 . S
C1253 C1254 1.415 . S
C1254 H1230 0.950 . S
C1254 C1249 1.363 . S
C1254 C1253 1.415 . S
C1255 H1231 0.951 . S
C1255 C1256 1.366 . S
C1255 C1257 1.388 . S
C1256 C1255 1.366 . S
C1256 C1260 1.385 . S
C1257 H1232 0.951 . S
C1257 C1255 1.388 . S
C1257 C1258 1.366 . S
C1258 C1257 1.366 . S
C1258 C1259 1.414 . S
C1258 C1261 1.499 . S
C1259 H1233 0.950 . S
C1259 C1258 1.414 . S
C1259 C1260 1.374 . S
C1260 H1234 0.950 . S
C1260 C1256 1.385 . S
C1260 C1259 1.374 . S
C1261 C1258 1.499 . S
C1261 C1262 1.373 . S
C1261 C1263 1.389 . S
C1262 H1235 0.950 . S
C1262 C1248 1.377 . S
C1262 C1261 1.373 . S
C1263 C1247 1.377 . S
C1263 C1261 1.389 . S
C1263 C1264 1.524 . S
C1264 C1263 1.524 . S
C1264 C1265 1.397 . S
C1264 C1269 1.363 . S
C1265 H1236 0.950 . S
C1265 C1264 1.397 . S
C1265 C1266 1.334 . S
C1266 H1237 0.950 . S
C1266 C1265 1.334 . S
C1266 C1267 1.287 . S
C1267 C1266 1.287 . S
C1267 C1268 1.524 . S
C1267 H1270 0.999 . S
C1268 H1238 0.950 . S
C1268 C1267 1.524 . S
C1268 C1269 1.415 . S
C1269 H1239 0.950 . S
C1269 C1264 1.363 . S
C1269 C1268 1.415 . S
H1270 C1267 0.999 . S
H1271 C1252 0.913 . S
H1272 C1290 0.951 . S
H1273 C1292 0.951 . S
H1274 C1294 0.950 . S
H1275 C1295 0.950 . S
H1276 C1297 0.950 . S
H1277 C1300 0.950 . S
H1278 C1301 0.950 . S
H1279 C1303 0.950 . S
H1280 C1304 0.950 . S
H1281 C1305 0.951 . S
H1282 C1307 0.951 . S
H1283 C1309 0.950 . S
H1284 C1310 0.950 . S
H1285 C1312 0.950 . S
H1286 C1315 0.950 . S
H1287 C1316 0.950 . S
H1288 C1318 0.950 . S
H1289 C1319 0.950 . S
C1290 H1272 0.951 . S
C1290 C1291 1.366 . S
C1290 C1292 1.388 . S
C1291 C1290 1.366 . S
C1291 C1295 1.385 . S
C1292 H1273 0.951 . S
C1292 C1290 1.388 . S
C1292 C1293 1.366 . S
C1293 C1292 1.366 . S
C1293 C1294 1.414 . S
C1293 C1296 1.499 . S
C1294 H1274 0.950 . S
C1294 C1293 1.414 . S
C1294 C1295 1.374 . S
C1295 H1275 0.950 . S
C1295 C1291 1.385 . S
C1295 C1294 1.374 . S
C1296 C1293 1.499 . S
C1296 C1297 1.373 . S
C1296 C1298 1.389 . S
C1297 H1276 0.950 . S
C1297 C1296 1.373 . S
C1297 C1313 1.377 . S
C1298 C1296 1.389 . S
C1298 C1299 1.524 . S
C1298 C1312 1.377 . S
C1299 C1298 1.524 . S
C1299 C1300 1.397 . S
C1299 C1304 1.363 . S
C1300 H1277 0.950 . S
C1300 C1299 1.397 . S
C1300 C1301 1.334 . S
C1301 H1278 0.950 . S
C1301 C1300 1.334 . S
C1301 C1302 1.287 . S
C1302 C1301 1.287 . S
C1302 C1303 1.524 . S
C1302 H1321 0.913 . S
C1303 H1279 0.950 . S
C1303 C1302 1.524 . S
C1303 C1304 1.415 . S
C1304 H1280 0.950 . S
C1304 C1299 1.363 . S
C1304 C1303 1.415 . S
C1305 H1281 0.951 . S
C1305 C1306 1.366 . S
C1305 C1307 1.388 . S
C1306 C1305 1.366 . S
C1306 C1310 1.385 . S
C1307 H1282 0.951 . S
C1307 C1305 1.388 . S
C1307 C1308 1.366 . S
C1308 C1307 1.366 . S
C1308 C1309 1.414 . S
C1308 C1311 1.499 . S
C1309 H1283 0.950 . S
C1309 C1308 1.414 . S
C1309 C1310 1.374 . S
C1310 H1284 0.950 . S
C1310 C1306 1.385 . S
C1310 C1309 1.374 . S
C1311 C1308 1.499 . S
C1311 C1312 1.373 . S
C1311 C1313 1.389 . S
C1312 H1285 0.950 . S
C1312 C1298 1.377 . S
C1312 C1311 1.373 . S
C1313 C1297 1.377 . S
C1313 C1311 1.389 . S
C1313 C1314 1.524 . S
C1314 C1313 1.524 . S
C1314 C1315 1.397 . S
C1314 C1319 1.363 . S
C1315 H1286 0.950 . S
C1315 C1314 1.397 . S
C1315 C1316 1.334 1_554 S
C1316 H1287 0.950 . S
C1316 C1315 1.334 1_556 S
C1316 C1317 1.287 . S
C1317 C1316 1.287 . S
C1317 C1318 1.524 1_556 S
C1317 H1320 0.999 . S
C1318 H1288 0.950 . S
C1318 C1317 1.524 1_554 S
C1318 C1319 1.415 . S
C1319 H1289 0.950 . S
C1319 C1314 1.363 . S
C1319 C1318 1.415 . S
H1320 C1317 0.999 . S
H1321 C1302 0.913 . S
H1322 C1340 0.953 1_554 S
H1323 C1342 0.951 . S
H1324 C1344 0.950 . S
H1325 C1345 0.950 . S
H1326 C1347 0.950 . S
H1327 C1350 0.950 . S
H1328 C1351 0.950 . S
H1329 C1353 0.950 . S
H1330 C1354 0.950 . S
H1331 C1355 0.951 . S
H1332 C1357 0.951 . S
H1333 C1359 0.950 . S
H1334 C1360 0.950 . S
H1335 C1362 0.950 . S
H1336 C1365 0.950 . S
H1337 C1366 0.950 . S
H1338 C1368 0.950 . S
H1339 C1369 0.950 . S
C1340 H1322 0.953 1_556 S
C1340 C1341 1.366 . S
C1340 C1342 1.388 . S
C1341 C1340 1.366 . S
C1341 C1345 1.385 . S
C1342 H1323 0.951 . S
C1342 C1340 1.388 . S
C1342 C1343 1.366 . S
C1343 C1342 1.366 . S
C1343 C1344 1.414 . S
C1343 C1346 1.499 . S
C1344 H1324 0.950 . S
C1344 C1343 1.414 . S
C1344 C1345 1.374 . S
C1345 H1325 0.950 . S
C1345 C1341 1.385 . S
C1345 C1344 1.374 . S
C1346 C1343 1.499 . S
C1346 C1347 1.373 . S
C1346 C1348 1.389 . S
C1347 H1326 0.950 . S
C1347 C1346 1.373 . S
C1347 C1363 1.377 . S
C1348 C1346 1.389 . S
C1348 C1349 1.524 . S
C1348 C1362 1.377 . S
C1349 C1348 1.524 . S
C1349 C1350 1.397 . S
C1349 C1354 1.363 . S
C1350 H1327 0.950 . S
C1350 C1349 1.397 . S
C1350 C1351 1.334 . S
C1351 H1328 0.950 . S
C1351 C1350 1.334 . S
C1351 C1352 1.287 . S
C1352 C1351 1.287 . S
C1352 C1353 1.524 . S
C1352 H1371 0.913 . S
C1353 H1329 0.950 . S
C1353 C1352 1.524 . S
C1353 C1354 1.415 . S
C1354 H1330 0.950 . S
C1354 C1349 1.363 . S
C1354 C1353 1.415 . S
C1355 H1331 0.951 . S
C1355 C1356 1.366 . S
C1355 C1357 1.388 . S
C1356 C1355 1.366 . S
C1356 C1360 1.385 . S
C1357 H1332 0.951 . S
C1357 C1355 1.388 . S
C1357 C1358 1.366 . S
C1358 C1357 1.366 . S
C1358 C1359 1.414 . S
C1358 C1361 1.499 . S
C1359 H1333 0.950 . S
C1359 C1358 1.414 . S
C1359 C1360 1.374 . S
C1360 H1334 0.950 . S
C1360 C1356 1.385 . S
C1360 C1359 1.374 . S
C1361 C1358 1.499 . S
C1361 C1362 1.373 . S
C1361 C1363 1.389 . S
C1362 H1335 0.950 . S
C1362 C1348 1.377 . S
C1362 C1361 1.373 . S
C1363 C1347 1.377 . S
C1363 C1361 1.389 . S
C1363 C1364 1.524 . S
C1364 C1363 1.524 . S
C1364 C1365 1.397 . S
C1364 C1369 1.363 . S
C1365 H1336 0.950 . S
C1365 C1364 1.397 . S
C1365 C1366 1.334 . S
C1366 H1337 0.950 . S
C1366 C1365 1.334 . S
C1366 C1367 1.287 . S
C1367 C1366 1.287 . S
C1367 C1368 1.524 . S
C1367 H1370 0.999 . S
C1368 H1338 0.950 . S
C1368 C1367 1.524 . S
C1368 C1369 1.415 . S
C1369 H1339 0.950 . S
C1369 C1364 1.363 . S
C1369 C1368 1.415 . S
H1370 C1367 0.999 . S
H1371 C1352 0.913 . S
H1372 C1390 0.951 . S
H1373 C1392 0.951 . S
H1374 C1394 0.950 . S
H1375 C1395 0.950 . S
H1376 C1397 0.950 . S
H1377 C1400 0.950 . S
H1378 C1401 0.950 . S
H1379 C1403 0.950 . S
H1380 C1404 0.950 . S
H1381 C1405 0.951 . S
H1382 C1407 0.951 . S
H1383 C1409 0.950 . S
H1384 C1410 0.950 . S
H1385 C1412 0.950 . S
H1386 C1415 0.950 . S
H1387 C1416 0.950 . S
H1388 C1418 0.950 . S
H1389 C1419 0.950 . S
C1390 H1372 0.951 . S
C1390 C1391 1.366 . S
C1390 C1392 1.388 . S
C1391 C1390 1.366 . S
C1391 C1395 1.385 . S
C1392 H1373 0.951 . S
C1392 C1390 1.388 . S
C1392 C1393 1.366 . S
C1393 C1392 1.366 . S
C1393 C1394 1.414 . S
C1393 C1396 1.499 . S
C1394 H1374 0.950 . S
C1394 C1393 1.414 . S
C1394 C1395 1.374 . S
C1395 H1375 0.950 . S
C1395 C1391 1.385 . S
C1395 C1394 1.374 . S
C1396 C1393 1.499 . S
C1396 C1397 1.373 . S
C1396 C1398 1.389 . S
C1397 H1376 0.950 . S
C1397 C1396 1.373 . S
C1397 C1413 1.377 . S
C1398 C1396 1.389 . S
C1398 C1399 1.524 . S
C1398 C1412 1.377 . S
C1399 C1398 1.524 . S
C1399 C1400 1.397 . S
C1399 C1404 1.363 . S
C1400 H1377 0.950 . S
C1400 C1399 1.397 . S
C1400 C1401 1.334 . S
C1401 H1378 0.950 . S
C1401 C1400 1.334 . S
C1401 C1402 1.287 . S
C1402 C1401 1.287 . S
C1402 C1403 1.524 . S
C1402 H1421 0.913 . S
C1403 H1379 0.950 . S
C1403 C1402 1.524 . S
C1403 C1404 1.415 . S
C1404 H1380 0.950 . S
C1404 C1399 1.363 . S
C1404 C1403 1.415 . S
C1405 H1381 0.951 . S
C1405 C1406 1.366 . S
C1405 C1407 1.388 . S
C1406 C1405 1.366 . S
C1406 C1410 1.385 . S
C1407 H1382 0.951 . S
C1407 C1405 1.388 . S
C1407 C1408 1.366 . S
C1408 C1407 1.366 . S
C1408 C1409 1.414 . S
C1408 C1411 1.499 . S
C1409 H1383 0.950 . S
C1409 C1408 1.414 . S
C1409 C1410 1.374 . S
C1410 H1384 0.950 . S
C1410 C1406 1.385 . S
C1410 C1409 1.374 . S
C1411 C1408 1.499 . S
C1411 C1412 1.373 . S
C1411 C1413 1.389 . S
C1412 H1385 0.950 . S
C1412 C1398 1.377 . S
C1412 C1411 1.373 . S
C1413 C1397 1.377 . S
C1413 C1411 1.389 . S
C1413 C1414 1.524 . S
C1414 C1413 1.524 . S
C1414 C1415 1.397 . S
C1414 C1419 1.363 . S
C1415 H1386 0.950 . S
C1415 C1414 1.397 . S
C1415 C1416 1.334 . S
C1416 H1387 0.950 . S
C1416 C1415 1.334 . S
C1416 C1417 1.287 . S
C1417 C1416 1.287 . S
C1417 C1418 1.524 . S
C1417 H1420 0.999 . S
C1418 H1388 0.950 . S
C1418 C1417 1.524 . S
C1418 C1419 1.415 . S
C1419 H1389 0.950 . S
C1419 C1414 1.363 . S
C1419 C1418 1.415 . S
H1420 C1417 0.999 . S
H1421 C1402 0.913 . S
H1422 C1440 0.951 . S
H1423 C1442 0.951 . S
H1424 C1444 0.950 . S
H1425 C1445 0.950 . S
H1426 C1447 0.950 . S
H1427 C1450 0.950 . S
H1428 C1451 0.950 . S
H1429 C1453 0.950 . S
H1430 C1454 0.950 . S
H1431 C1455 0.951 . S
H1432 C1457 0.951 . S
H1433 C1459 0.950 . S
H1434 C1460 0.950 . S
H1435 C1462 0.950 . S
H1436 C1465 0.950 . S
H1437 C1466 0.950 . S
H1438 C1468 0.950 . S
H1439 C1469 0.950 . S
C1440 H1422 0.951 . S
C1440 C1441 1.366 . S
C1440 C1442 1.388 . S
C1441 C1440 1.366 . S
C1441 C1445 1.385 . S
C1442 H1423 0.951 . S
C1442 C1440 1.388 . S
C1442 C1443 1.366 . S
C1443 C1442 1.366 . S
C1443 C1444 1.414 . S
C1443 C1446 1.499 . S
C1444 H1424 0.950 . S
C1444 C1443 1.414 . S
C1444 C1445 1.374 . S
C1445 H1425 0.950 . S
C1445 C1441 1.385 . S
C1445 C1444 1.374 . S
C1446 C1443 1.499 . S
C1446 C1447 1.373 . S
C1446 C1448 1.389 . S
C1447 H1426 0.950 . S
C1447 C1446 1.373 . S
C1447 C1463 1.377 . S
C1448 C1446 1.389 . S
C1448 C1449 1.524 . S
C1448 C1462 1.377 . S
C1449 C1448 1.524 . S
C1449 C1450 1.397 . S
C1449 C1454 1.363 . S
C1450 H1427 0.950 . S
C1450 C1449 1.397 . S
C1450 C1451 1.334 . S
C1451 H1428 0.950 . S
C1451 C1450 1.334 . S
C1451 C1452 1.287 . S
C1452 C1451 1.287 . S
C1452 C1453 1.524 . S
C1452 H1471 0.913 . S
C1453 H1429 0.950 . S
C1453 C1452 1.524 . S
C1453 C1454 1.415 . S
C1454 H1430 0.950 . S
C1454 C1449 1.363 . S
C1454 C1453 1.415 . S
C1455 H1431 0.951 . S
C1455 C1456 1.366 . S
C1455 C1457 1.388 . S
C1456 C1455 1.366 . S
C1456 C1460 1.385 . S
C1457 H1432 0.951 . S
C1457 C1455 1.388 . S
C1457 C1458 1.366 . S
C1458 C1457 1.366 . S
C1458 C1459 1.414 . S
C1458 C1461 1.499 . S
C1459 H1433 0.950 . S
C1459 C1458 1.414 . S
C1459 C1460 1.374 . S
C1460 H1434 0.950 . S
C1460 C1456 1.385 . S
C1460 C1459 1.374 . S
C1461 C1458 1.499 . S
C1461 C1462 1.373 . S
C1461 C1463 1.389 . S
C1462 H1435 0.950 . S
C1462 C1448 1.377 . S
C1462 C1461 1.373 . S
C1463 C1447 1.377 . S
C1463 C1461 1.389 . S
C1463 C1464 1.524 . S
C1464 C1463 1.524 . S
C1464 C1465 1.397 . S
C1464 C1469 1.363 . S
C1465 H1436 0.950 . S
C1465 C1464 1.397 . S
C1465 C1466 1.334 . S
C1466 H1437 0.950 . S
C1466 C1465 1.334 . S
C1466 C1467 1.287 . S
C1467 C1466 1.287 . S
C1467 C1468 1.524 . S
C1467 H1470 0.999 . S
C1468 H1438 0.950 . S
C1468 C1467 1.524 . S
C1468 C1469 1.415 . S
C1469 H1439 0.950 . S
C1469 C1464 1.363 . S
C1469 C1468 1.415 . S
H1470 C1467 0.999 . S
H1471 C1452 0.913 . S
H1472 C1490 0.951 . S
H1473 C1492 0.951 . S
H1474 C1494 0.950 . S
H1475 C1495 0.950 . S
H1476 C1497 0.950 . S
H1477 C1500 0.950 . S
H1478 C1501 0.950 1_565 S
H1479 C1503 0.950 . S
H1480 C1504 0.950 . S
H1481 C1505 0.951 . S
H1482 C1507 0.951 . S
H1483 C1509 0.950 . S
H1484 C1510 0.950 . S
H1485 C1512 0.950 . S
H1486 C1515 0.950 . S
H1487 C1516 0.950 1_545 S
H1488 C1518 0.950 . S
H1489 C1519 0.950 . S
C1490 H1472 0.951 . S
C1490 C1491 1.366 1_445 S
C1490 C1492 1.388 . S
C1491 C1490 1.366 1_665 S
C1491 C1495 1.385 . S
C1492 H1473 0.951 . S
C1492 C1490 1.388 . S
C1492 C1493 1.366 1_445 S
C1493 C1492 1.366 1_665 S
C1493 C1494 1.413 . S
C1493 C1496 1.499 1_655 S
C1494 H1474 0.950 . S
C1494 C1493 1.413 . S
C1494 C1495 1.374 . S
C1495 H1475 0.950 . S
C1495 C1491 1.385 . S
C1495 C1494 1.374 . S
C1496 C1493 1.499 1_455 S
C1496 C1497 1.352 1_455 S
C1496 C1498 1.410 1_565 S
C1497 H1476 0.950 . S
C1497 C1496 1.352 1_655 S
C1497 C1513 1.377 1_556 S
C1498 C1496 1.410 1_545 S
C1498 C1499 1.524 . S
C1498 C1512 1.377 1_556 S
C1499 C1498 1.524 . S
C1499 C1500 1.397 1_545 S
C1499 C1504 1.363 . S
C1500 H1477 0.950 . S
C1500 C1499 1.397 1_565 S
C1500 C1501 1.334 1_565 S
C1501 H1478 0.950 1_545 S
C1501 C1500 1.334 1_545 S
C1501 C1502 1.287 . S
C1502 C1501 1.287 . S
C1502 C1503 1.524 . S
C1502 H1521 0.913 . S
C1503 H1479 0.950 . S
C1503 C1502 1.524 . S
C1503 C1504 1.415 . S
C1504 H1480 0.950 . S
C1504 C1499 1.363 . S
C1504 C1503 1.415 . S
C1505 H1481 0.951 . S
C1505 C1506 1.366 1_665 S
C1505 C1507 1.388 . S
C1506 C1505 1.366 1_445 S
C1506 C1510 1.385 . S
C1507 H1482 0.951 . S
C1507 C1505 1.388 . S
C1507 C1508 1.364 1_665 S
C1508 C1507 1.364 1_445 S
C1508 C1509 1.416 . S
C1508 C1511 1.499 1_455 S
C1509 H1483 0.950 . S
C1509 C1508 1.416 . S
C1509 C1510 1.374 . S
C1510 H1484 0.950 . S
C1510 C1506 1.385 . S
C1510 C1509 1.374 . S
C1511 C1508 1.499 1_655 S
C1511 C1512 1.360 1_655 S
C1511 C1513 1.402 1_545 S
C1512 H1485 0.950 . S
C1512 C1498 1.377 1_554 S
C1512 C1511 1.360 1_455 S
C1513 C1497 1.377 1_554 S
C1513 C1511 1.402 1_565 S
C1513 C1514 1.524 . S
C1514 C1513 1.524 . S
C1514 C1515 1.397 1_565 S
C1514 C1519 1.363 . S
C1515 H1486 0.950 . S
C1515 C1514 1.397 1_545 S
C1515 C1516 1.334 1_545 S
C1516 H1487 0.950 1_565 S
C1516 C1515 1.334 1_565 S
C1516 C1517 1.287 . S
C1517 C1516 1.287 . S
C1517 C1518 1.524 . S
C1517 H1520 0.999 . S
C1518 H1488 0.950 . S
C1518 C1517 1.524 . S
C1518 C1519 1.415 . S
C1519 H1489 0.950 . S
C1519 C1514 1.363 . S
C1519 C1518 1.415 . S
H1520 C1517 0.999 . S
H1521 C1502 0.913 . S
H1522 C1540 0.951 . S
H1523 C1542 0.951 . S
H1524 C1544 0.950 . S
H1525 C1545 0.950 . S
H1526 C1547 0.950 . S
H1527 C1550 0.950 . S
H1528 C1551 0.950 . S
H1529 C1553 0.950 . S
H1530 C1554 0.950 . S
H1531 C1555 0.951 . S
H1532 C1557 0.951 . S
H1533 C1559 0.950 . S
H1534 C1560 0.950 . S
H1535 C1562 0.950 . S
H1536 C1565 0.950 . S
H1537 C1566 0.950 . S
H1538 C1568 0.950 . S
H1539 C1569 0.950 . S
C1540 H1522 0.951 . S
C1540 C1541 1.366 . S
C1540 C1542 1.388 . S
C1541 C1540 1.366 . S
C1541 C1545 1.385 . S
C1542 H1523 0.951 . S
C1542 C1540 1.388 . S
C1542 C1543 1.366 . S
C1543 C1542 1.366 . S
C1543 C1544 1.414 . S
C1543 C1546 1.499 . S
C1544 H1524 0.950 . S
C1544 C1543 1.414 . S
C1544 C1545 1.374 . S
C1545 H1525 0.950 . S
C1545 C1541 1.385 . S
C1545 C1544 1.374 . S
C1546 C1543 1.499 . S
C1546 C1547 1.373 . S
C1546 C1548 1.389 . S
C1547 H1526 0.950 . S
C1547 C1546 1.373 . S
C1547 C1563 1.377 . S
C1548 C1546 1.389 . S
C1548 C1549 1.524 . S
C1548 C1562 1.377 . S
C1549 C1548 1.524 . S
C1549 C1550 1.397 . S
C1549 C1554 1.363 . S
C1550 H1527 0.950 . S
C1550 C1549 1.397 . S
C1550 C1551 1.334 . S
C1551 H1528 0.950 . S
C1551 C1550 1.334 . S
C1551 C1552 1.287 . S
C1552 C1551 1.287 . S
C1552 C1553 1.524 . S
C1552 H1571 0.913 . S
C1553 H1529 0.950 . S
C1553 C1552 1.524 . S
C1553 C1554 1.415 . S
C1554 H1530 0.950 . S
C1554 C1549 1.363 . S
C1554 C1553 1.415 . S
C1555 H1531 0.951 . S
C1555 C1556 1.366 . S
C1555 C1557 1.388 . S
C1556 C1555 1.366 . S
C1556 C1560 1.385 . S
C1557 H1532 0.951 . S
C1557 C1555 1.388 . S
C1557 C1558 1.366 . S
C1558 C1557 1.366 . S
C1558 C1559 1.414 . S
C1558 C1561 1.499 . S
C1559 H1533 0.950 . S
C1559 C1558 1.414 . S
C1559 C1560 1.374 . S
C1560 H1534 0.950 . S
C1560 C1556 1.385 . S
C1560 C1559 1.374 . S
C1561 C1558 1.499 . S
C1561 C1562 1.373 . S
C1561 C1563 1.389 . S
C1562 H1535 0.950 . S
C1562 C1548 1.377 . S
C1562 C1561 1.373 . S
C1563 C1547 1.377 . S
C1563 C1561 1.389 . S
C1563 C1564 1.524 . S
C1564 C1563 1.524 . S
C1564 C1565 1.397 . S
C1564 C1569 1.363 . S
C1565 H1536 0.950 . S
C1565 C1564 1.397 . S
C1565 C1566 1.334 . S
C1566 H1537 0.950 . S
C1566 C1565 1.334 . S
C1566 C1567 1.287 . S
C1567 C1566 1.287 . S
C1567 C1568 1.524 . S
C1567 H1570 0.999 . S
C1568 H1538 0.950 . S
C1568 C1567 1.524 . S
C1568 C1569 1.415 . S
C1569 H1539 0.950 . S
C1569 C1564 1.363 . S
C1569 C1568 1.415 . S
H1570 C1567 0.999 . S
H1571 C1552 0.913 . S
H1572 C1590 0.951 . S
H1573 C1592 0.951 . S
H1574 C1594 0.950 . S
H1575 C1595 0.950 . S
H1576 C1597 0.950 . S
H1577 C1600 0.950 . S
H1578 C1601 0.950 . S
H1579 C1603 0.950 . S
H1580 C1604 0.950 . S
H1581 C1605 0.951 . S
H1582 C1607 0.951 . S
H1583 C1609 0.950 . S
H1584 C1610 0.950 . S
H1585 C1612 0.950 . S
H1586 C1615 0.950 . S
H1587 C1616 0.950 . S
H1588 C1618 0.950 . S
H1589 C1619 0.950 . S
C1590 H1572 0.951 . S
C1590 C1591 1.366 . S
C1590 C1592 1.388 . S
C1591 C1590 1.366 . S
C1591 C1595 1.385 1_565 S
C1592 H1573 0.951 . S
C1592 C1590 1.388 . S
C1592 C1593 1.366 . S
C1593 C1592 1.366 . S
C1593 C1594 1.414 1_565 S
C1593 C1596 1.499 . S
C1594 H1574 0.950 . S
C1594 C1593 1.414 1_545 S
C1594 C1595 1.374 . S
C1595 H1575 0.950 . S
C1595 C1591 1.385 1_545 S
C1595 C1594 1.374 . S
C1596 C1593 1.499 . S
C1596 C1597 1.373 1_565 S
C1596 C1598 1.389 . S
C1597 H1576 0.950 . S
C1597 C1596 1.373 1_545 S
C1597 C1613 1.377 . S
C1598 C1596 1.389 . S
C1598 C1599 1.524 . S
C1598 C1612 1.377 . S
C1599 C1598 1.524 . S
C1599 C1600 1.397 . S
C1599 C1604 1.363 . S
C1600 H1577 0.950 . S
C1600 C1599 1.397 . S
C1600 C1601 1.334 . S
C1601 H1578 0.950 . S
C1601 C1600 1.334 . S
C1601 C1602 1.287 . S
C1602 C1601 1.287 . S
C1602 C1603 1.524 . S
C1602 H1621 0.913 . S
C1603 H1579 0.950 . S
C1603 C1602 1.524 . S
C1603 C1604 1.415 . S
C1604 H1580 0.950 . S
C1604 C1599 1.363 . S
C1604 C1603 1.415 . S
C1605 H1581 0.951 . S
C1605 C1606 1.366 . S
C1605 C1607 1.388 . S
C1606 C1605 1.366 . S
C1606 C1610 1.385 1_545 S
C1607 H1582 0.951 . S
C1607 C1605 1.388 . S
C1607 C1608 1.366 . S
C1608 C1607 1.366 . S
C1608 C1609 1.414 1_545 S
C1608 C1611 1.499 . S
C1609 H1583 0.950 . S
C1609 C1608 1.414 1_565 S
C1609 C1610 1.374 . S
C1610 H1584 0.950 . S
C1610 C1606 1.385 1_565 S
C1610 C1609 1.374 . S
C1611 C1608 1.499 . S
C1611 C1612 1.373 1_545 S
C1611 C1613 1.389 . S
C1612 H1585 0.950 . S
C1612 C1598 1.377 . S
C1612 C1611 1.373 1_565 S
C1613 C1597 1.377 . S
C1613 C1611 1.389 . S
C1613 C1614 1.524 . S
C1614 C1613 1.524 . S
C1614 C1615 1.397 . S
C1614 C1619 1.363 . S
C1615 H1586 0.950 . S
C1615 C1614 1.397 . S
C1615 C1616 1.334 . S
C1616 H1587 0.950 . S
C1616 C1615 1.334 . S
C1616 C1617 1.287 . S
C1617 C1616 1.287 . S
C1617 C1618 1.524 . S
C1617 H1620 0.999 . S
C1618 H1588 0.950 . S
C1618 C1617 1.524 . S
C1618 C1619 1.415 . S
C1619 H1589 0.950 . S
C1619 C1614 1.363 . S
C1619 C1618 1.415 . S
H1620 C1617 0.999 . S
H1621 C1602 0.913 . S
H1622 C1640 0.951 . S
H1623 C1642 0.951 . S
H1624 C1644 0.950 . S
H1625 C1645 0.950 . S
H1626 C1647 0.950 . S
H1627 C1650 0.950 . S
H1628 C1651 0.950 . S
H1629 C1653 0.950 . S
H1630 C1654 0.950 . S
H1631 C1655 0.951 . S
H1632 C1657 0.951 . S
H1633 C1659 0.950 . S
H1634 C1660 0.950 . S
H1635 C1662 0.950 . S
H1636 C1665 0.950 . S
H1637 C1666 0.950 . S
H1638 C1668 0.950 . S
H1639 C1669 0.950 . S
C1640 H1622 0.951 . S
C1640 C1641 1.366 . S
C1640 C1642 1.388 . S
C1641 C1640 1.366 . S
C1641 C1645 1.385 . S
C1642 H1623 0.951 . S
C1642 C1640 1.388 . S
C1642 C1643 1.366 . S
C1643 C1642 1.366 . S
C1643 C1644 1.414 . S
C1643 C1646 1.499 . S
C1644 H1624 0.950 . S
C1644 C1643 1.414 . S
C1644 C1645 1.374 . S
C1645 H1625 0.950 . S
C1645 C1641 1.385 . S
C1645 C1644 1.374 . S
C1646 C1643 1.499 . S
C1646 C1647 1.373 . S
C1646 C1648 1.389 . S
C1647 H1626 0.950 . S
C1647 C1646 1.373 . S
C1647 C1663 1.377 . S
C1648 C1646 1.389 . S
C1648 C1649 1.524 . S
C1648 C1662 1.377 . S
C1649 C1648 1.524 . S
C1649 C1650 1.397 . S
C1649 C1654 1.363 . S
C1650 H1627 0.950 . S
C1650 C1649 1.397 . S
C1650 C1651 1.334 . S
C1651 H1628 0.950 . S
C1651 C1650 1.334 . S
C1651 C1652 1.287 . S
C1652 C1651 1.287 . S
C1652 C1653 1.524 . S
C1652 H1671 0.913 . S
C1653 H1629 0.950 . S
C1653 C1652 1.524 . S
C1653 C1654 1.415 . S
C1654 H1630 0.950 . S
C1654 C1649 1.363 . S
C1654 C1653 1.415 . S
C1655 H1631 0.951 . S
C1655 C1656 1.366 . S
C1655 C1657 1.388 . S
C1656 C1655 1.366 . S
C1656 C1660 1.385 . S
C1657 H1632 0.951 . S
C1657 C1655 1.388 . S
C1657 C1658 1.366 . S
C1658 C1657 1.366 . S
C1658 C1659 1.414 . S
C1658 C1661 1.499 . S
C1659 H1633 0.950 . S
C1659 C1658 1.414 . S
C1659 C1660 1.374 . S
C1660 H1634 0.950 . S
C1660 C1656 1.385 . S
C1660 C1659 1.374 . S
C1661 C1658 1.499 . S
C1661 C1662 1.373 . S
C1661 C1663 1.389 . S
C1662 H1635 0.950 . S
C1662 C1648 1.377 . S
C1662 C1661 1.373 . S
C1663 C1647 1.377 . S
C1663 C1661 1.389 . S
C1663 C1664 1.524 . S
C1664 C1663 1.524 . S
C1664 C1665 1.397 . S
C1664 C1669 1.363 . S
C1665 H1636 0.950 . S
C1665 C1664 1.397 . S
C1665 C1666 1.334 . S
C1666 H1637 0.950 . S
C1666 C1665 1.334 . S
C1666 C1667 1.287 . S
C1667 C1666 1.287 . S
C1667 C1668 1.524 . S
C1667 H1670 0.999 . S
C1668 H1638 0.950 . S
C1668 C1667 1.524 . S
C1668 C1669 1.415 . S
C1669 H1639 0.950 . S
C1669 C1664 1.363 . S
C1669 C1668 1.415 . S
H1670 C1667 0.999 . S
H1671 C1652 0.913 . S
H1672 C1690 0.951 . S
H1673 C1692 0.951 . S
H1674 C1694 0.950 . S
H1675 C1695 0.950 . S
H1676 C1697 0.950 . S
H1677 C1700 0.950 . S
H1678 C1701 0.950 . S
H1679 C1703 0.950 . S
H1680 C1704 0.950 . S
H1681 C1705 0.951 . S
H1682 C1707 0.951 . S
H1683 C1709 0.950 . S
H1684 C1710 0.950 . S
H1685 C1712 0.950 . S
H1686 C1715 0.950 . S
H1687 C1716 0.950 . S
H1688 C1718 0.950 . S
H1689 C1719 0.950 . S
C1690 H1672 0.951 . S
C1690 C1691 1.366 . S
C1690 C1692 1.388 . S
C1691 C1690 1.366 . S
C1691 C1695 1.385 . S
C1692 H1673 0.951 . S
C1692 C1690 1.388 . S
C1692 C1693 1.366 . S
C1693 C1692 1.366 . S
C1693 C1694 1.414 . S
C1693 C1696 1.499 . S
C1694 H1674 0.950 . S
C1694 C1693 1.414 . S
C1694 C1695 1.374 . S
C1695 H1675 0.950 . S
C1695 C1691 1.385 . S
C1695 C1694 1.374 . S
C1696 C1693 1.499 . S
C1696 C1697 1.373 . S
C1696 C1698 1.389 . S
C1697 H1676 0.950 . S
C1697 C1696 1.373 . S
C1697 C1713 1.377 . S
C1698 C1696 1.389 . S
C1698 C1699 1.524 . S
C1698 C1712 1.377 . S
C1699 C1698 1.524 . S
C1699 C1700 1.397 . S
C1699 C1704 1.363 . S
C1700 H1677 0.950 . S
C1700 C1699 1.397 . S
C1700 C1701 1.334 . S
C1701 H1678 0.950 . S
C1701 C1700 1.334 . S
C1701 C1702 1.287 . S
C1702 C1701 1.287 . S
C1702 C1703 1.524 . S
C1702 H1721 0.913 . S
C1703 H1679 0.950 . S
C1703 C1702 1.524 . S
C1703 C1704 1.415 . S
C1704 H1680 0.950 . S
C1704 C1699 1.363 . S
C1704 C1703 1.415 . S
C1705 H1681 0.951 . S
C1705 C1706 1.366 . S
C1705 C1707 1.388 . S
C1706 C1705 1.366 . S
C1706 C1710 1.385 . S
C1707 H1682 0.951 . S
C1707 C1705 1.388 . S
C1707 C1708 1.366 . S
C1708 C1707 1.366 . S
C1708 C1709 1.414 . S
C1708 C1711 1.499 . S
C1709 H1683 0.950 . S
C1709 C1708 1.414 . S
C1709 C1710 1.374 . S
C1710 H1684 0.950 . S
C1710 C1706 1.385 . S
C1710 C1709 1.374 . S
C1711 C1708 1.499 . S
C1711 C1712 1.373 . S
C1711 C1713 1.389 . S
C1712 H1685 0.950 . S
C1712 C1698 1.377 . S
C1712 C1711 1.373 . S
C1713 C1697 1.377 . S
C1713 C1711 1.389 . S
C1713 C1714 1.524 . S
C1714 C1713 1.524 . S
C1714 C1715 1.397 . S
C1714 C1719 1.363 . S
C1715 H1686 0.950 . S
C1715 C1714 1.397 . S
C1715 C1716 1.334 . S
C1716 H1687 0.950 . S
C1716 C1715 1.334 . S
C1716 C1717 1.287 . S
C1717 C1716 1.287 . S
C1717 C1718 1.524 . S
C1717 H1720 0.999 . S
C1718 H1688 0.950 . S
C1718 C1717 1.524 . S
C1718 C1719 1.415 . S
C1719 H1689 0.950 . S
C1719 C1714 1.363 . S
C1719 C1718 1.415 . S
H1720 C1717 0.999 . S
H1721 C1702 0.913 . S
H1722 C1740 0.951 . S
H1723 C1742 0.951 . S
H1724 C1744 0.950 . S
H1725 C1745 0.950 . S
H1726 C1747 0.950 . S
H1727 C1750 0.950 . S
H1728 C1751 0.950 . S
H1729 C1753 0.950 . S
H1730 C1754 0.950 . S
H1731 C1755 0.951 . S
H1732 C1757 0.951 . S
H1733 C1759 0.950 . S
H1734 C1760 0.950 . S
H1735 C1762 0.950 . S
H1736 C1765 0.950 . S
H1737 C1766 0.950 . S
H1738 C1768 0.950 . S
H1739 C1769 0.950 . S
C1740 H1722 0.951 . S
C1740 C1741 1.366 . S
C1740 C1742 1.388 . S
C1741 C1740 1.366 . S
C1741 C1745 1.385 . S
C1742 H1723 0.951 . S
C1742 C1740 1.388 . S
C1742 C1743 1.366 . S
C1743 C1742 1.366 . S
C1743 C1744 1.414 . S
C1743 C1746 1.499 . S
C1744 H1724 0.950 . S
C1744 C1743 1.414 . S
C1744 C1745 1.374 . S
C1745 H1725 0.950 . S
C1745 C1741 1.385 . S
C1745 C1744 1.374 . S
C1746 C1743 1.499 . S
C1746 C1747 1.373 . S
C1746 C1748 1.389 . S
C1747 H1726 0.950 . S
C1747 C1746 1.373 . S
C1747 C1763 1.377 . S
C1748 C1746 1.389 . S
C1748 C1749 1.524 . S
C1748 C1762 1.377 . S
C1749 C1748 1.524 . S
C1749 C1750 1.397 . S
C1749 C1754 1.363 . S
C1750 H1727 0.950 . S
C1750 C1749 1.397 . S
C1750 C1751 1.334 . S
C1751 H1728 0.950 . S
C1751 C1750 1.334 . S
C1751 C1752 1.287 . S
C1752 C1751 1.287 . S
C1752 C1753 1.524 . S
C1752 H1771 0.913 . S
C1753 H1729 0.950 . S
C1753 C1752 1.524 . S
C1753 C1754 1.415 . S
C1754 H1730 0.950 . S
C1754 C1749 1.363 . S
C1754 C1753 1.415 . S
C1755 H1731 0.951 . S
C1755 C1756 1.366 . S
C1755 C1757 1.388 . S
C1756 C1755 1.366 . S
C1756 C1760 1.385 . S
C1757 H1732 0.951 . S
C1757 C1755 1.388 . S
C1757 C1758 1.366 . S
C1758 C1757 1.366 . S
C1758 C1759 1.414 . S
C1758 C1761 1.499 . S
C1759 H1733 0.950 . S
C1759 C1758 1.414 . S
C1759 C1760 1.374 . S
C1760 H1734 0.950 . S
C1760 C1756 1.385 . S
C1760 C1759 1.374 . S
C1761 C1758 1.499 . S
C1761 C1762 1.373 . S
C1761 C1763 1.389 . S
C1762 H1735 0.950 . S
C1762 C1748 1.377 . S
C1762 C1761 1.373 . S
C1763 C1747 1.377 . S
C1763 C1761 1.389 . S
C1763 C1764 1.524 . S
C1764 C1763 1.524 . S
C1764 C1765 1.397 . S
C1764 C1769 1.363 . S
C1765 H1736 0.950 . S
C1765 C1764 1.397 . S
C1765 C1766 1.334 . S
C1766 H1737 0.950 . S
C1766 C1765 1.334 . S
C1766 C1767 1.287 . S
C1767 C1766 1.287 . S
C1767 C1768 1.524 . S
C1767 H1770 0.999 . S
C1768 H1738 0.950 . S
C1768 C1767 1.524 . S
C1768 C1769 1.415 . S
C1769 H1739 0.950 . S
C1769 C1764 1.363 . S
C1769 C1768 1.415 . S
H1770 C1767 0.999 . S
H1771 C1752 0.913 . S
H1772 C1790 0.951 . S
H1773 C1792 0.951 . S
H1774 C1794 0.950 . S
H1775 C1795 0.950 . S
H1776 C1797 0.950 . S
H1777 C1800 0.950 . S
H1778 C1801 0.950 . S
H1779 C1803 0.950 . S
H1780 C1804 0.950 . S
H1781 C1805 0.951 . S
H1782 C1807 0.951 . S
H1783 C1809 0.950 . S
H1784 C1810 0.950 . S
H1785 C1812 0.950 . S
H1786 C1815 0.950 . S
H1787 C1816 0.950 . S
H1788 C1818 0.950 . S
H1789 C1819 0.950 . S
C1790 H1772 0.951 . S
C1790 C1791 1.366 . S
C1790 C1792 1.388 . S
C1791 C1790 1.366 . S
C1791 C1795 1.385 . S
C1792 H1773 0.951 . S
C1792 C1790 1.388 . S
C1792 C1793 1.366 . S
C1793 C1792 1.366 . S
C1793 C1794 1.414 . S
C1793 C1796 1.499 . S
C1794 H1774 0.950 . S
C1794 C1793 1.414 . S
C1794 C1795 1.374 . S
C1795 H1775 0.950 . S
C1795 C1791 1.385 . S
C1795 C1794 1.374 . S
C1796 C1793 1.499 . S
C1796 C1797 1.373 . S
C1796 C1798 1.389 . S
C1797 H1776 0.950 . S
C1797 C1796 1.373 . S
C1797 C1813 1.377 . S
C1798 C1796 1.389 . S
C1798 C1799 1.524 . S
C1798 C1812 1.377 . S
C1799 C1798 1.524 . S
C1799 C1800 1.397 . S
C1799 C1804 1.363 . S
C1800 H1777 0.950 . S
C1800 C1799 1.397 . S
C1800 C1801 1.334 . S
C1801 H1778 0.950 . S
C1801 C1800 1.334 . S
C1801 C1802 1.287 . S
C1802 C1801 1.287 . S
C1802 C1803 1.524 . S
C1802 H1821 0.913 . S
C1803 H1779 0.950 . S
C1803 C1802 1.524 . S
C1803 C1804 1.415 . S
C1804 H1780 0.950 . S
C1804 C1799 1.363 . S
C1804 C1803 1.415 . S
C1805 H1781 0.951 . S
C1805 C1806 1.366 . S
C1805 C1807 1.388 . S
C1806 C1805 1.366 . S
C1806 C1810 1.385 . S
C1807 H1782 0.951 . S
C1807 C1805 1.388 . S
C1807 C1808 1.366 . S
C1808 C1807 1.366 . S
C1808 C1809 1.414 . S
C1808 C1811 1.499 . S
C1809 H1783 0.950 . S
C1809 C1808 1.414 . S
C1809 C1810 1.374 . S
C1810 H1784 0.950 . S
C1810 C1806 1.385 . S
C1810 C1809 1.374 . S
C1811 C1808 1.499 . S
C1811 C1812 1.373 . S
C1811 C1813 1.389 . S
C1812 H1785 0.950 . S
C1812 C1798 1.377 . S
C1812 C1811 1.373 . S
C1813 C1797 1.377 . S
C1813 C1811 1.389 . S
C1813 C1814 1.524 . S
C1814 C1813 1.524 . S
C1814 C1815 1.397 . S
C1814 C1819 1.363 . S
C1815 H1786 0.950 . S
C1815 C1814 1.397 . S
C1815 C1816 1.334 . S
C1816 H1787 0.950 . S
C1816 C1815 1.334 . S
C1816 C1817 1.287 . S
C1817 C1816 1.287 . S
C1817 C1818 1.524 . S
C1817 H1820 0.999 . S
C1818 H1788 0.950 . S
C1818 C1817 1.524 . S
C1818 C1819 1.415 . S
C1819 H1789 0.950 . S
C1819 C1814 1.363 . S
C1819 C1818 1.415 . S
H1820 C1817 0.999 . S
H1821 C1802 0.913 . S
H1822 C1840 0.951 . S
H1823 C1842 0.951 . S
H1824 C1844 0.950 . S
H1825 C1845 0.950 . S
H1826 C1847 0.950 . S
H1827 C1850 0.950 . S
H1828 C1851 0.950 . S
H1829 C1853 0.950 . S
H1830 C1854 0.950 . S
H1831 C1855 0.951 . S
H1832 C1857 0.951 . S
H1833 C1859 0.950 . S
H1834 C1860 0.950 . S
H1835 C1862 0.950 . S
H1836 C1865 0.950 . S
H1837 C1866 0.950 . S
H1838 C1868 0.950 . S
H1839 C1869 0.950 . S
C1840 H1822 0.951 . S
C1840 C1841 1.366 1_455 S
C1840 C1842 1.388 . S
C1841 C1840 1.366 1_655 S
C1841 C1845 1.385 . S
C1842 H1823 0.951 . S
C1842 C1840 1.388 . S
C1842 C1843 1.342 1_455 S
C1843 C1842 1.342 1_655 S
C1843 C1844 1.439 . S
C1843 C1846 1.499 . S
C1844 H1824 0.950 . S
C1844 C1843 1.439 . S
C1844 C1845 1.374 . S
C1845 H1825 0.950 . S
C1845 C1841 1.385 . S
C1845 C1844 1.374 . S
C1846 C1843 1.499 . S
C1846 C1847 1.395 . S
C1846 C1848 1.368 1_655 S
C1847 H1826 0.950 . S
C1847 C1846 1.395 . S
C1847 C1863 1.377 1_556 S
C1848 C1846 1.368 1_455 S
C1848 C1849 1.524 . S
C1848 C1862 1.377 1_556 S
C1849 C1848 1.524 . S
C1849 C1850 1.397 . S
C1849 C1854 1.363 . S
C1850 H1827 0.950 . S
C1850 C1849 1.397 . S
C1850 C1851 1.334 . S
C1851 H1828 0.950 . S
C1851 C1850 1.334 . S
C1851 C1852 1.287 . S
C1852 C1851 1.287 . S
C1852 C1853 1.524 . S
C1852 H1871 0.913 . S
C1853 H1829 0.950 . S
C1853 C1852 1.524 . S
C1853 C1854 1.415 . S
C1854 H1830 0.950 . S
C1854 C1849 1.363 . S
C1854 C1853 1.415 . S
C1855 H1831 0.951 . S
C1855 C1856 1.366 1_655 S
C1855 C1857 1.388 . S
C1856 C1855 1.366 1_455 S
C1856 C1860 1.385 . S
C1857 H1832 0.951 . S
C1857 C1855 1.388 . S
C1857 C1858 1.335 1_655 S
C1858 C1857 1.335 1_455 S
C1858 C1859 1.447 . S
C1858 C1861 1.499 . S
C1859 H1833 0.950 . S
C1859 C1858 1.447 . S
C1859 C1860 1.374 . S
C1860 H1834 0.950 . S
C1860 C1856 1.385 . S
C1860 C1859 1.374 . S
C1861 C1858 1.499 . S
C1861 C1862 1.403 . S
C1861 C1863 1.360 1_455 S
C1862 H1835 0.950 . S
C1862 C1848 1.377 1_554 S
C1862 C1861 1.403 . S
C1863 C1847 1.377 1_554 S
C1863 C1861 1.360 1_655 S
C1863 C1864 1.524 . S
C1864 C1863 1.524 . S
C1864 C1865 1.397 . S
C1864 C1869 1.363 . S
C1865 H1836 0.950 . S
C1865 C1864 1.397 . S
C1865 C1866 1.334 . S
C1866 H1837 0.950 . S
C1866 C1865 1.334 . S
C1866 C1867 1.287 . S
C1867 C1866 1.287 . S
C1867 C1868 1.524 . S
C1867 H1870 0.999 . S
C1868 H1838 0.950 . S
C1868 C1867 1.524 . S
C1868 C1869 1.415 . S
C1869 H1839 0.950 . S
C1869 C1864 1.363 . S
C1869 C1868 1.415 . S
H1870 C1867 0.999 . S
H1871 C1852 0.913 . S
C691 C67 1.614 . S
C706 C319 1.607 . S
C741 C75 1.472 . S
C756 C151 1.454 . S
C791 C159 1.310 . S
C806 C243 1.316 . S
C841 C235 1.455 . S
C856 C327 1.468 . S
C891 C56 1.614 . S
C906 C476 1.622 . S
C941 C66 1.472 . S
C956 C392 1.456 . S
C991 C402 1.311 . S
C1006 C234 1.305 . S
C1041 C486 1.472 . S
C1056 C224 1.460 . S
C1091 C571 1.615 . S
C1106 C487 1.616 . S
C1141 C403 1.456 . S
C1156 C579 1.470 . S
C1191 C663 1.311 . S
C1206 C411 1.315 . S
C1241 C495 1.471 . S
C1256 C655 1.459 . S
C1291 C308 1.614 . S
C1306 C560 1.614 . S
C1341 C570 1.472 . S
C1356 C140 1.456 . S
C1391 C150 1.310 . S
C1406 C654 1.309 . S
C1441 C318 1.471 . S
C1456 C644 1.453 . S
C1491 C63 1.539 1_565 S
C1506 C72 1.539 1_545 S
C1541 C156 1.538 . S
C1556 C147 1.538 . S
C1591 C231 1.537 1_565 S
C1606 C240 1.537 1_545 S
C1641 C315 1.540 . S
C1656 C324 1.540 . S
C1691 C408 1.537 . S
C1706 C399 1.537 . S
C1741 C483 1.540 . S
C1756 C492 1.540 . S
C1791 C576 1.540 . S
C1806 C567 1.540 . S
C1841 C660 1.538 . S
C1856 C651 1.538 . S
