# Generated by pormake.
# Topology gsi, (4)-cn, num edge types: 1
# Building blocks:
#     Node 0, Type 0, BuildingBlock: ICAMEG_clean_sbu_1, # of connection points: 4
#     Node 1, Type 0, BuildingBlock: ICAMEG_clean_sbu_1, # of connection points: 4
#     Node 2, Type 0, BuildingBlock: ICAMEG_clean_sbu_1, # of connection points: 4
#     Node 3, Type 0, BuildingBlock: ICAMEG_clean_sbu_1, # of connection points: 4
#     Node 4, Type 0, BuildingBlock: ICAMEG_clean_sbu_1, # of connection points: 4
#     Node 5, Type 0, BuildingBlock: ICAMEG_clean_sbu_1, # of connection points: 4
#     Node 6, Type 0, BuildingBlock: ICAMEG_clean_sbu_1, # of connection points: 4
#     Node 7, Type 0, BuildingBlock: ICAMEG_clean_sbu_1, # of connection points: 4
#     Node 8, Type 0, BuildingBlock: ICAMEG_clean_sbu_1, # of connection points: 4
#     Node 9, Type 0, BuildingBlock: ICAMEG_clean_sbu_1, # of connection points: 4
#     Node 10, Type 0, BuildingBlock: ICAMEG_clean_sbu_1, # of connection points: 4
#     Node 11, Type 0, BuildingBlock: ICAMEG_clean_sbu_1, # of connection points: 4
#     Node 12, Type 0, BuildingBlock: ICAMEG_clean_sbu_1, # of connection points: 4
#     Node 13, Type 0, BuildingBlock: ICAMEG_clean_sbu_1, # of connection points: 4
#     Node 14, Type 0, BuildingBlock: ICAMEG_clean_sbu_1, # of connection points: 4
#     Node 15, Type 0, BuildingBlock: ICAMEG_clean_sbu_1, # of connection points: 4
#     Edge 16, Type (0, 0), BuildingBlock: CIFDUS_clean_linker_0, # of connection points: 2
#     Edge 17, Type (0, 0), BuildingBlock: CIFDUS_clean_linker_0, # of connection points: 2
#     Edge 18, Type (0, 0), BuildingBlock: CIFDUS_clean_linker_0, # of connection points: 2
#     Edge 19, Type (0, 0), BuildingBlock: CIFDUS_clean_linker_0, # of connection points: 2
#     Edge 20, Type (0, 0), BuildingBlock: CIFDUS_clean_linker_0, # of connection points: 2
#     Edge 21, Type (0, 0), BuildingBlock: CIFDUS_clean_linker_0, # of connection points: 2
#     Edge 22, Type (0, 0), BuildingBlock: CIFDUS_clean_linker_0, # of connection points: 2
#     Edge 23, Type (0, 0), BuildingBlock: CIFDUS_clean_linker_0, # of connection points: 2
#     Edge 24, Type (0, 0), BuildingBlock: CIFDUS_clean_linker_0, # of connection points: 2
#     Edge 25, Type (0, 0), BuildingBlock: CIFDUS_clean_linker_0, # of connection points: 2
#     Edge 26, Type (0, 0), BuildingBlock: CIFDUS_clean_linker_0, # of connection points: 2
#     Edge 27, Type (0, 0), BuildingBlock: CIFDUS_clean_linker_0, # of connection points: 2
#     Edge 28, Type (0, 0), BuildingBlock: CIFDUS_clean_linker_0, # of connection points: 2
#     Edge 29, Type (0, 0), BuildingBlock: CIFDUS_clean_linker_0, # of connection points: 2
#     Edge 30, Type (0, 0), BuildingBlock: CIFDUS_clean_linker_0, # of connection points: 2
#     Edge 31, Type (0, 0), BuildingBlock: CIFDUS_clean_linker_0, # of connection points: 2
#     Edge 32, Type (0, 0), BuildingBlock: CIFDUS_clean_linker_0, # of connection points: 2
#     Edge 33, Type (0, 0), BuildingBlock: CIFDUS_clean_linker_0, # of connection points: 2
#     Edge 34, Type (0, 0), BuildingBlock: CIFDUS_clean_linker_0, # of connection points: 2
#     Edge 35, Type (0, 0), BuildingBlock: CIFDUS_clean_linker_0, # of connection points: 2
#     Edge 36, Type (0, 0), BuildingBlock: CIFDUS_clean_linker_0, # of connection points: 2
#     Edge 37, Type (0, 0), BuildingBlock: CIFDUS_clean_linker_0, # of connection points: 2
#     Edge 38, Type (0, 0), BuildingBlock: CIFDUS_clean_linker_0, # of connection points: 2
#     Edge 39, Type (0, 0), BuildingBlock: CIFDUS_clean_linker_0, # of connection points: 2
#     Edge 40, Type (0, 0), BuildingBlock: CIFDUS_clean_linker_0, # of connection points: 2
#     Edge 41, Type (0, 0), BuildingBlock: CIFDUS_clean_linker_0, # of connection points: 2
#     Edge 42, Type (0, 0), BuildingBlock: CIFDUS_clean_linker_0, # of connection points: 2
#     Edge 43, Type (0, 0), BuildingBlock: CIFDUS_clean_linker_0, # of connection points: 2
#     Edge 44, Type (0, 0), BuildingBlock: CIFDUS_clean_linker_0, # of connection points: 2
#     Edge 45, Type (0, 0), BuildingBlock: CIFDUS_clean_linker_0, # of connection points: 2
#     Edge 46, Type (0, 0), BuildingBlock: CIFDUS_clean_linker_0, # of connection points: 2
#     Edge 47, Type (0, 0), BuildingBlock: CIFDUS_clean_linker_0, # of connection points: 2
# Relax obj value: 0.182
# Max RMSD: 0.232
# Mean RMSD: 0.183
data_MOF--net-gsi--node1-ICAMEG_clean_sbu_1--edge1-CIFDUS_clean_linker_0
_symmetry_space_group_name_H-M    P1
_symmetry_Int_Tables_number       1
_symmetry_cell_setting            triclinic
loop_
_symmetry_equiv_pos_as_xyz
'x, y, z'
_cell_length_a     32.049062
_cell_length_b     42.041271
_cell_length_c     42.393587
_cell_angle_alpha  90.01429
_cell_angle_beta   90.004104
_cell_angle_gamma 99.64139
loop_
_atom_site_label
_atom_site_type_symbol
_atom_site_fract_x
_atom_site_fract_y
_atom_site_fract_z
_atom_type_partial_charge
Co0 Co 0.13325 0.15877 0.16937 0.0
Co1 Co 0.18867 0.21216 0.11839 0.0
O2 O 0.17139 0.16774 0.13323 0.0
C3 C 0.17798 0.11392 0.20595 0.0
O4 O 0.18335 0.13523 0.22886 0.0
C5 C 0.18859 0.16923 0.06053 0.0
O6 O 0.17798 0.14275 0.07708 0.0
O7 O 0.12801 0.21547 0.11195 0.0
O8 O 0.10343 0.19617 0.15877 0.0
H9 H 0.1784 0.33005 0.11343 0.0
H10 H 0.13914 0.10576 0.12435 0.0
O11 O 0.16099 0.12047 0.18001 0.0
H12 H 0.98863 0.1175 0.12449 0.0
H13 H 0.03794 0.0877 0.24476 0.0
H14 H 0.10395 0.19922 0.21915 0.0
H15 H 0.03995 0.15207 0.15831 0.0
H16 H 0.08408 0.09904 0.19816 0.0
O17 O 0.19206 0.19699 0.07343 0.0
H18 H 0.15974 0.27407 0.13249 0.0
H19 H 0.25079 0.24454 0.07107 0.0
H20 H 0.05777 0.189 0.26586 0.0
H21 H 0.08877 0.07046 0.09037 0.0
H22 H 0.02442 0.13289 0.27893 0.0
H23 H 0.01291 0.07626 0.09025 0.0
O24 O 0.17547 0.18759 0.19535 0.0
H25 H 0.31694 0.15679 0.11776 0.0
H26 H 0.26218 0.25565 0.14642 0.0
H27 H 0.33674 0.25221 0.15701 0.0
H28 H 0.36478 0.20259 0.14245 0.0
H29 H 0.24262 0.16099 0.10808 0.0
H30 H 0.27009 0.30014 0.05111 0.0
H31 H 0.23395 0.34339 0.07244 0.0
O32 O 0.18689 0.22969 0.16248 0.0
C33 C 0.09955 0.21178 0.13331 0.0
C34 C 0.19446 0.31143 0.10402 0.0
C35 C 0.24587 0.29464 0.069 0.0
N36 N 0.20433 0.25608 0.10309 0.0
C37 C 0.18411 0.2797 0.11478 0.0
C38 C 0.23469 0.26317 0.08032 0.0
C39 C 0.2256 0.3189 0.08099 0.0
C40 C 0.10618 0.10841 0.12447 0.0
N41 N 0.09263 0.13107 0.14319 0.0
C42 C 0.0778 0.08836 0.10516 0.0
C43 C 0.03525 0.09163 0.10509 0.0
C44 C 0.02162 0.11479 0.12427 0.0
C45 C 0.0509 0.13441 0.14327 0.0
C46 C 0.05227 0.11225 0.2393 0.0
C47 C 0.08946 0.17476 0.22464 0.0
C48 C 0.07848 0.11882 0.21298 0.0
N49 N 0.09662 0.14979 0.2059 0.0
C50 C 0.06338 0.16911 0.25114 0.0
C51 C 0.04469 0.13762 0.25846 0.0
C52 C 0.19031 0.21705 0.18951 0.0
C53 C 0.30526 0.17871 0.12382 0.0
C54 C 0.27403 0.23402 0.13971 0.0
C55 C 0.31636 0.23221 0.14589 0.0
C56 C 0.33206 0.20437 0.13775 0.0
N57 N 0.24796 0.20896 0.12552 0.0
C58 C 0.26307 0.18138 0.11805 0.0
Co59 Co 0.86624 0.3537 0.18278 0.0
Co60 Co 0.81079 0.3068 0.12552 0.0
O61 O 0.83259 0.34943 0.14375 0.0
C62 C 0.80393 0.39824 0.19304 0.0
O63 O 0.77471 0.37772 0.17871 0.0
C64 C 0.83153 0.35196 0.06957 0.0
O65 O 0.85143 0.37511 0.08745 0.0
O66 O 0.86967 0.29661 0.12406 0.0
O67 O 0.89261 0.31517 0.17164 0.0
H68 H 0.80017 0.18651 0.11683 0.0
H69 H 0.87048 0.41157 0.14229 0.0
O70 O 0.84146 0.39244 0.19591 0.0
H71 H 0.01685 0.38991 0.14757 0.0
H72 H 0.95587 0.41466 0.26792 0.0
H73 H 0.88672 0.30751 0.23092 0.0
H74 H 0.9594 0.35527 0.17609 0.0
H75 H 0.91511 0.40907 0.21831 0.0
O76 O 0.8172 0.32434 0.08125 0.0
H77 H 0.82518 0.24041 0.13938 0.0
H78 H 0.75212 0.28265 0.07259 0.0
H79 H 0.92745 0.31198 0.28053 0.0
H80 H 0.9271 0.44711 0.11372 0.0
H81 H 0.96238 0.36587 0.29934 0.0
H82 H 1.00089 0.43629 0.11617 0.0
O83 O 0.81991 0.32549 0.20506 0.0
H84 H 0.69964 0.37736 0.11099 0.0
H85 H 0.72671 0.27088 0.14569 0.0
H86 H 0.65437 0.28313 0.14859 0.0
H87 H 0.64032 0.33666 0.13093 0.0
H88 H 0.77156 0.3644 0.10932 0.0
H89 H 0.72679 0.22929 0.04908 0.0
H90 H 0.75066 0.1807 0.07132 0.0
O91 O 0.80153 0.28696 0.16874 0.0
C92 C 0.89554 0.2981 0.14712 0.0
C93 C 0.7895 0.20749 0.10696 0.0
C94 C 0.74837 0.2315 0.06891 0.0
N95 N 0.79009 0.26467 0.10739 0.0
C96 C 0.80348 0.23807 0.11967 0.0
C97 C 0.763 0.26169 0.08223 0.0
C98 C 0.76175 0.20425 0.08141 0.0
C99 C 0.90255 0.40683 0.14362 0.0
N100 N 0.91154 0.38131 0.16073 0.0
C101 C 0.93446 0.42698 0.12732 0.0
C102 C 0.97584 0.42087 0.12868 0.0
C103 C 0.98481 0.39483 0.14626 0.0
C104 C 0.95208 0.3752 0.16223 0.0
C105 C 0.94088 0.39104 0.25993 0.0
C106 C 0.90206 0.33102 0.23883 0.0
C107 C 0.91769 0.38772 0.23188 0.0
N108 N 0.89883 0.35794 0.22158 0.0
C109 C 0.92497 0.33341 0.26699 0.0
C110 C 0.94453 0.36365 0.27755 0.0
C111 C 0.8009 0.29763 0.19692 0.0
C112 C 0.70528 0.35387 0.11858 0.0
C113 C 0.72108 0.29432 0.13829 0.0
C114 C 0.67992 0.30107 0.13981 0.0
C115 C 0.67204 0.33107 0.12985 0.0
N116 N 0.75359 0.31673 0.1271 0.0
C117 C 0.74603 0.34624 0.11741 0.0
Co118 Co 0.13575 0.88506 0.29976 0.0
Co119 Co 0.21162 0.84983 0.33972 0.0
O120 O 0.18348 0.88682 0.32964 0.0
C121 C 0.19903 0.94286 0.27901 0.0
O122 O 0.22983 0.93167 0.29331 0.0
C123 C 0.2045 0.8415 0.40833 0.0
O124 O 0.18467 0.81229 0.40188 0.0
O125 O 0.15551 0.82118 0.34614 0.0
O126 O 0.10776 0.84389 0.31905 0.0
H127 H 0.23156 0.73395 0.33244 0.0
H128 H 0.16238 0.94352 0.33898 0.0
O129 O 0.16147 0.92706 0.27937 0.0
H130 H 0.01327 0.90488 0.36717 0.0
H131 H 0.0252 0.93106 0.23821 0.0
H132 H 0.08496 0.83305 0.26214 0.0
H133 H 0.04895 0.87608 0.32744 0.0
H134 H 0.085 0.93325 0.27518 0.0
O135 O 0.21394 0.86178 0.38596 0.0
H136 H 0.1978 0.78115 0.32036 0.0
H137 H 0.28639 0.84023 0.37903 0.0
H138 H 0.02486 0.82973 0.22524 0.0
H139 H 0.12776 0.97328 0.37856 0.0
H140 H 0.99459 0.87899 0.21306 0.0
H141 H 0.05266 0.95396 0.39293 0.0
O142 O 0.16412 0.86093 0.26749 0.0
H143 H 0.31887 0.95031 0.35585 0.0
H144 H 0.28932 0.84485 0.30223 0.0
H145 H 0.35769 0.88033 0.2934 0.0
H146 H 0.37294 0.93343 0.32045 0.0
H147 H 0.25048 0.91434 0.36347 0.0
H148 H 0.32075 0.79364 0.39196 0.0
H149 H 0.29299 0.74002 0.36893 0.0
O150 O 0.21092 0.83742 0.2947 0.0
C151 C 0.11791 0.82189 0.3366 0.0
C152 C 0.24376 0.7572 0.34277 0.0
C153 C 0.29388 0.79071 0.37613 0.0
N154 N 0.23992 0.81341 0.34907 0.0
C155 C 0.22482 0.78402 0.33599 0.0
C156 C 0.27428 0.817 0.36871 0.0
C157 C 0.27835 0.76062 0.36314 0.0
C158 C 0.1296 0.93514 0.34484 0.0
N159 N 0.10765 0.90828 0.33062 0.0
C160 C 0.1102 0.95201 0.36739 0.0
C161 C 0.06808 0.94114 0.37548 0.0
C162 C 0.04597 0.9136 0.36104 0.0
C163 C 0.06639 0.89735 0.33859 0.0
C164 C 0.03809 0.90942 0.24335 0.0
C165 C 0.07183 0.85456 0.25706 0.0
C166 C 0.07206 0.91053 0.26419 0.0
N167 N 0.08837 0.88326 0.27091 0.0
C168 C 0.03787 0.85254 0.2361 0.0
C169 C 0.02092 0.8802 0.22926 0.0
C170 C 0.19257 0.84308 0.26925 0.0
C171 C 0.31262 0.92721 0.34397 0.0
C172 C 0.29542 0.8681 0.31374 0.0
C173 C 0.33435 0.888 0.30883 0.0
C174 C 0.34291 0.91776 0.32406 0.0
N175 N 0.26582 0.87755 0.33327 0.0
C176 C 0.27404 0.90667 0.34833 0.0
Co177 Co 0.87089 0.62045 0.30816 0.0
Co178 Co 0.83065 0.67674 0.35083 0.0
O179 O 0.83303 0.63116 0.34147 0.0
C180 C 0.8156 0.57035 0.27107 0.0
O181 O 0.82022 0.59057 0.24723 0.0
C182 C 0.82243 0.64366 0.41452 0.0
O183 O 0.84637 0.6229 0.40545 0.0
O184 O 0.89233 0.68424 0.36078 0.0
O185 O 0.91374 0.66013 0.31791 0.0
H186 H 0.88222 0.79637 0.34503 0.0
H187 H 0.84039 0.57141 0.35658 0.0
O188 O 0.83002 0.57978 0.29823 0.0
H189 H 0.99603 0.58788 0.36424 0.0
H190 H 0.94865 0.54759 0.2443 0.0
H191 H 0.91924 0.65828 0.25735 0.0
H192 H 0.96104 0.61779 0.32507 0.0
H193 H 0.90233 0.56054 0.28718 0.0
O194 O 0.81533 0.66597 0.39598 0.0
H195 H 0.88364 0.73919 0.33329 0.0
H196 H 0.77335 0.71105 0.38885 0.0
H197 H 0.96605 0.64645 0.21427 0.0
H198 H 0.87406 0.5405 0.39577 0.0
H199 H 0.98096 0.59075 0.20749 0.0
H200 H 0.95245 0.54875 0.39986 0.0
O201 O 0.84124 0.64517 0.27754 0.0
H202 H 0.68225 0.6147 0.35241 0.0
H203 H 0.7749 0.71153 0.31179 0.0
H204 H 0.69955 0.70132 0.29689 0.0
H205 H 0.65257 0.65267 0.31737 0.0
H206 H 0.75803 0.6256 0.36635 0.0
H207 H 0.77098 0.76795 0.40142 0.0
H208 H 0.82557 0.81111 0.37933 0.0
O209 O 0.84464 0.68987 0.30628 0.0
C210 C 0.92114 0.67966 0.34121 0.0
C211 C 0.85827 0.77779 0.35484 0.0
C212 C 0.7959 0.76184 0.38653 0.0
N213 N 0.82879 0.72168 0.36054 0.0
C214 C 0.85892 0.74532 0.34829 0.0
C215 C 0.79758 0.72962 0.37949 0.0
C216 C 0.82651 0.78604 0.37409 0.0
C217 C 0.87453 0.57498 0.35808 0.0
N218 N 0.89869 0.59652 0.33861 0.0
C219 C 0.89341 0.55748 0.38038 0.0
C220 C 0.93738 0.56215 0.3827 0.0
C221 C 0.96185 0.58414 0.36276 0.0
C222 C 0.94184 0.6012 0.34075 0.0
C223 C 0.94237 0.57196 0.24698 0.0
C224 C 0.92561 0.63399 0.25458 0.0
C225 C 0.91608 0.57942 0.27118 0.0
N226 N 0.90794 0.61014 0.27472 0.0
C227 C 0.95214 0.62744 0.23014 0.0
C228 C 0.96049 0.59618 0.22635 0.0
C229 C 0.8377 0.67472 0.28036 0.0
C230 C 0.70237 0.63603 0.34341 0.0
C231 C 0.75477 0.69022 0.32071 0.0
C232 C 0.71206 0.68462 0.31224 0.0
C233 C 0.68574 0.65732 0.32373 0.0
N234 N 0.77088 0.66923 0.34005 0.0
C235 C 0.74528 0.64237 0.35131 0.0
Co236 Co 0.3681 0.8532 0.68449 0.0
Co237 Co 0.32248 0.79621 0.6329 0.0
O238 O 0.33552 0.84165 0.64583 0.0
C239 C 0.31835 0.89816 0.71548 0.0
O240 O 0.3121 0.87765 0.73904 0.0
C241 C 0.32616 0.83493 0.57176 0.0
O242 O 0.33615 0.86277 0.58623 0.0
O243 O 0.38436 0.79474 0.63119 0.0
O244 O 0.4006 0.81636 0.67879 0.0
H245 H 0.34005 0.67965 0.63678 0.0
H246 H 0.36628 0.9035 0.63589 0.0
O247 O 0.33748 0.89098 0.69067 0.0
H248 H 0.51715 0.89592 0.64913 0.0
H249 H 0.45119 0.92927 0.76264 0.0
H250 H 0.39137 0.81592 0.73908 0.0
H251 H 0.4626 0.86173 0.68071 0.0
H252 H 0.41188 0.91492 0.71325 0.0
O253 O 0.32284 0.80848 0.58704 0.0
H254 H 0.3535 0.73671 0.65312 0.0
H255 H 0.26685 0.75922 0.58408 0.0
H256 H 0.43067 0.82919 0.7887 0.0
H257 H 0.41986 0.9384 0.60403 0.0
H258 H 0.46088 0.88623 0.80074 0.0
H259 H 0.49593 0.93469 0.61052 0.0
O260 O 0.32325 0.82459 0.70856 0.0
H261 H 0.19151 0.84679 0.61895 0.0
H262 H 0.24753 0.75204 0.65837 0.0
H263 H 0.17144 0.75369 0.66321 0.0
H264 H 0.1428 0.80122 0.64322 0.0
H265 H 0.26735 0.84443 0.61506 0.0
H266 H 0.25289 0.70246 0.56676 0.0
H267 H 0.28944 0.66218 0.59329 0.0
O268 O 0.32022 0.78118 0.67789 0.0
C269 C 0.40896 0.79972 0.65501 0.0
C270 C 0.32387 0.69696 0.62507 0.0
C271 C 0.27501 0.70977 0.58574 0.0
N272 N 0.31091 0.75133 0.61967 0.0
C273 C 0.3313 0.72932 0.63426 0.0
C274 C 0.28321 0.74192 0.59557 0.0
C275 C 0.2955 0.68718 0.60065 0.0
C276 C 0.39932 0.90184 0.63893 0.0
N277 N 0.41123 0.8806 0.66013 0.0
C278 C 0.42952 0.92162 0.62079 0.0
C279 C 0.47218 0.91951 0.62443 0.0
C280 C 0.48411 0.89775 0.64606 0.0
C281 C 0.45303 0.87835 0.6638 0.0
C282 C 0.43822 0.90433 0.75765 0.0
C283 C 0.40451 0.84078 0.74413 0.0
C284 C 0.41589 0.89605 0.72973 0.0
N285 N 0.39942 0.86458 0.72325 0.0
C286 C 0.4267 0.84816 0.77227 0.0
C287 C 0.44363 0.88016 0.77902 0.0
C288 C 0.31107 0.79463 0.70332 0.0
C289 C 0.20351 0.82577 0.62741 0.0
C290 C 0.23545 0.77277 0.64938 0.0
C291 C 0.19224 0.77357 0.65228 0.0
C292 C 0.17621 0.80024 0.64109 0.0
N293 N 0.26209 0.7977 0.6355 0.0
C294 C 0.24658 0.82415 0.62498 0.0
Co295 Co 0.90645 0.8813 0.83873 0.0
Co296 Co 0.80945 0.884 0.8703 0.0
O297 O 0.86715 0.87433 0.87456 0.0
C298 C 0.91563 0.81514 0.85908 0.0
O299 O 0.87415 0.80795 0.85903 0.0
C300 C 0.83518 0.89974 0.93828 0.0
O301 O 0.87498 0.89854 0.9321 0.0
O302 O 0.83389 0.9294 0.85976 0.0
O303 O 0.88101 0.91955 0.82346 0.0
H304 H 0.69558 0.93302 0.81668 0.0
H305 H 0.94286 0.87732 0.90247 0.0
O306 O 0.93364 0.84379 0.85264 0.0
H307 H 0.00589 0.98468 0.86219 0.0
H308 H 0.04721 0.88622 0.78451 0.0
H309 H 0.89683 0.89528 0.77089 0.0
H310 H 0.95599 0.94753 0.82954 0.0
H311 H 0.9984 0.87932 0.82991 0.0
O312 O 0.80754 0.89572 0.91637 0.0
H313 H 0.76685 0.91899 0.8226 0.0
H314 H 0.73077 0.87184 0.90942 0.0
H315 H 0.94462 0.90263 0.72489 0.0
H316 H 0.99308 0.91359 0.9358 0.0
H317 H 0.02041 0.8981 0.73156 0.0
H318 H 0.02484 0.96775 0.91572 0.0
O319 O 0.86547 0.85127 0.81325 0.0
H320 H 0.80162 0.78018 0.9308 0.0
H321 H 0.74129 0.83447 0.84294 0.0
H322 H 0.71377 0.7773 0.854 0.0
H323 H 0.74384 0.74977 0.8983 0.0
H324 H 0.8288 0.83712 0.91853 0.0
H325 H 0.65924 0.88562 0.90455 0.0
H326 H 0.64119 0.9163 0.85785 0.0
O327 O 0.8073 0.87201 0.8242 0.0
C328 C 0.85876 0.93833 0.83674 0.0
C329 C 0.70303 0.91958 0.8371 0.0
C330 C 0.68265 0.89301 0.88644 0.0
N331 N 0.75294 0.89446 0.86622 0.0
C332 C 0.74332 0.9115 0.84055 0.0
C333 C 0.72327 0.88536 0.8891 0.0
C334 C 0.67254 0.91021 0.86022 0.0
C335 C 0.95671 0.9008 0.89354 0.0
N336 N 0.9463 0.91035 0.8642 0.0
C337 C 0.98506 0.92125 0.91253 0.0
C338 C 1.00283 0.95165 0.90126 0.0
C339 C 0.99217 0.96118 0.87125 0.0
C340 C 0.96371 0.94009 0.85293 0.0
C341 C 0.01428 0.88832 0.78132 0.0
C342 C 0.92983 0.89348 0.774 0.0
C343 C 0.98647 0.88438 0.80692 0.0
N344 N 0.94489 0.88717 0.80308 0.0
C345 C 0.95671 0.89757 0.74786 0.0
C346 C 0.99922 0.895 0.75161 0.0
C347 C 0.82682 0.85318 0.80853 0.0
C348 C 0.78806 0.79197 0.91156 0.0
C349 C 0.75458 0.82274 0.86229 0.0
C350 C 0.7388 0.79033 0.86845 0.0
C351 C 0.7557 0.7749 0.89328 0.0
N352 N 0.78636 0.83937 0.88032 0.0
C353 C 0.80313 0.82434 0.90465 0.0
Co354 Co 0.09652 0.63083 0.84089 0.0
Co355 Co 0.19374 0.62928 0.87312 0.0
O356 O 0.13554 0.6379 0.87685 0.0
C357 C 0.08703 0.69705 0.86071 0.0
O358 O 0.12851 0.70433 0.8606 0.0
C359 C 0.16821 0.61442 0.94169 0.0
O360 O 0.12922 0.61892 0.93671 0.0
O361 O 0.17129 0.58389 0.86097 0.0
O362 O 0.12224 0.59271 0.82584 0.0
H363 H 0.31108 0.58366 0.82017 0.0
H364 H 0.06018 0.63489 0.90463 0.0
O365 O 0.06911 0.6683 0.8546 0.0
H366 H 0.99755 0.52731 0.8646 0.0
H367 H 0.95575 0.62512 0.7865 0.0
H368 H 0.10632 0.61653 0.77313 0.0
H369 H 0.04726 0.5645 0.83185 0.0
H370 H 1.00453 0.6325 0.83192 0.0
O371 O 0.19471 0.61637 0.91898 0.0
H372 H 0.23906 0.59642 0.82523 0.0
H373 H 0.27116 0.64175 0.91357 0.0
H374 H 0.05855 0.60865 0.72712 0.0
H375 H 0.01025 0.59856 0.93811 0.0
H376 H 0.98268 0.61296 0.73367 0.0
H377 H 0.97866 0.5443 0.91813 0.0
O378 O 0.13742 0.66089 0.81516 0.0
H379 H 0.19721 0.73225 0.93481 0.0
H380 H 0.26151 0.67995 0.84751 0.0
H381 H 0.28778 0.73704 0.85967 0.0
H382 H 0.25578 0.76358 0.90373 0.0
H383 H 0.17129 0.6755 0.92145 0.0
H384 H 0.34342 0.62924 0.90955 0.0
H385 H 0.36385 0.60011 0.86253 0.0
O386 O 0.19675 0.64218 0.82744 0.0
C387 C 0.14673 0.57477 0.83776 0.0
C388 C 0.30259 0.59643 0.84074 0.0
C389 C 0.32072 0.62197 0.89092 0.0
N390 N 0.2509 0.61994 0.86959 0.0
C391 C 0.26186 0.60379 0.84372 0.0
C392 C 0.27969 0.62889 0.89311 0.0
C393 C 0.33217 0.60564 0.86453 0.0
C394 C 0.04645 0.61135 0.89577 0.0
N395 N 0.0568 0.60178 0.86642 0.0
C396 C 0.01825 0.59087 0.91483 0.0
C397 C 1.00056 0.56042 0.90362 0.0
C398 C 0.01119 0.55086 0.87361 0.0
C399 C 0.03953 0.57197 0.85522 0.0
C400 C 0.98873 0.62312 0.78336 0.0
C401 C 0.07328 0.61824 0.77619 0.0
C402 C 0.01652 0.62735 0.80898 0.0
N403 N 0.05815 0.62469 0.80521 0.0
C404 C 0.04642 0.61384 0.75004 0.0
C405 C 1.00385 0.61629 0.75372 0.0
C406 C 0.17642 0.65973 0.81091 0.0
C407 C 0.21171 0.72087 0.91575 0.0
C408 C 0.2474 0.6912 0.8668 0.0
C409 C 0.26246 0.72359 0.87356 0.0
C410 C 0.24449 0.73847 0.89826 0.0
N411 N 0.21537 0.67396 0.88418 0.0
C412 C 0.1974 0.68853 0.90826 0.0
Co413 Co 0.83503 0.16781 0.63434 0.0
Co414 Co 0.82643 0.15465 0.71504 0.0
O415 O 0.81851 0.14033 0.67102 0.0
C416 C 0.75159 0.16131 0.60155 0.0
O417 O 0.75071 0.19153 0.60884 0.0
C418 C 0.87135 0.10553 0.74423 0.0
O419 O 0.89754 0.12956 0.7568 0.0
O420 O 0.88742 0.17308 0.70708 0.0
O421 O 0.88867 0.18772 0.65585 0.0
H422 H 0.87992 0.2321 0.80201 0.0
H423 H 0.81216 0.09691 0.62716 0.0
O424 O 0.78167 0.14747 0.61154 0.0
H425 H 0.95674 0.1247 0.58433 0.0
H426 H 0.85161 0.19247 0.51819 0.0
H427 H 0.87195 0.23672 0.62589 0.0
H428 H 0.91944 0.16709 0.60497 0.0
H429 H 0.83249 0.15757 0.56447 0.0
O430 O 0.84185 0.11116 0.72584 0.0
H431 H 0.8671 0.21467 0.74681 0.0
H432 H 0.80024 0.12415 0.77745 0.0
H433 H 0.89198 0.27241 0.58027 0.0
H434 H 0.84801 0.05373 0.60637 0.0
H435 H 0.88174 0.25033 0.52594 0.0
H436 H 0.92088 0.06753 0.58483 0.0
O437 O 0.80612 0.20231 0.65208 0.0
H438 H 0.69517 0.07053 0.70894 0.0
H439 H 0.75454 0.18031 0.74503 0.0
H440 H 0.67892 0.15929 0.75363 0.0
H441 H 0.64877 0.10396 0.73566 0.0
H442 H 0.77061 0.09263 0.70047 0.0
H443 H 0.81235 0.14059 0.83299 0.0
H444 H 0.85314 0.1947 0.84555 0.0
O445 O 0.81094 0.19749 0.70475 0.0
C446 C 0.90603 0.18719 0.68294 0.0
C447 C 0.86255 0.20832 0.79683 0.0
C448 C 0.82456 0.15698 0.81422 0.0
N449 N 0.83358 0.16825 0.75887 0.0
C450 C 0.8552 0.19832 0.76562 0.0
C451 C 0.8177 0.14785 0.78273 0.0
C452 C 0.84749 0.18733 0.82124 0.0
C453 C 0.84383 0.10309 0.61774 0.0
N454 N 0.8638 0.13446 0.61741 0.0
C455 C 0.86398 0.07854 0.60604 0.0
C456 C 0.90488 0.0863 0.59398 0.0
C457 C 0.92504 0.11836 0.59373 0.0
C458 C 0.90389 0.14224 0.60563 0.0
C459 C 0.85622 0.20238 0.54174 0.0
C460 C 0.8676 0.22689 0.60233 0.0
C461 C 0.84531 0.18276 0.56804 0.0
N462 N 0.8511 0.19508 0.59787 0.0
C463 C 0.87892 0.24724 0.57658 0.0
C464 C 0.87314 0.23484 0.54611 0.0
C465 C 0.80159 0.21209 0.68008 0.0
C466 C 0.70798 0.09463 0.71698 0.0
C467 C 0.74168 0.15627 0.73697 0.0
C468 C 0.69882 0.14447 0.74201 0.0
C469 C 0.68194 0.11342 0.73193 0.0
N470 N 0.7671 0.13762 0.72245 0.0
C471 C 0.75071 0.10723 0.71235 0.0
Co472 Co 0.17715 0.34668 0.64572 0.0
Co473 Co 0.19021 0.35983 0.72521 0.0
O474 O 0.19062 0.37631 0.68163 0.0
C475 C 0.24893 0.36964 0.60235 0.0
O476 O 0.26255 0.34246 0.60808 0.0
C477 C 0.14186 0.41516 0.73212 0.0
O478 O 0.11875 0.40493 0.70739 0.0
O479 O 0.13052 0.33734 0.71973 0.0
O480 O 0.1362 0.31617 0.67177 0.0
H481 H 0.16014 0.27435 0.80885 0.0
H482 H 0.17043 0.41553 0.63768 0.0
O483 O 0.2172 0.37664 0.61763 0.0
H484 H 0.02755 0.35579 0.61533 0.0
H485 H 0.14294 0.3171 0.53222 0.0
H486 H 0.16857 0.27581 0.63808 0.0
H487 H 0.08579 0.32672 0.629 0.0
H488 H 0.15826 0.35433 0.57725 0.0
O489 O 0.17041 0.39971 0.74163 0.0
H490 H 0.16292 0.29573 0.7546 0.0
H491 H 0.21467 0.38922 0.78825 0.0
H492 H 0.15289 0.23766 0.5938 0.0
H493 H 0.11317 0.44557 0.62372 0.0
H494 H 0.14002 0.25826 0.54037 0.0
H495 H 0.0411 0.41565 0.61251 0.0
O496 O 0.22345 0.32347 0.65876 0.0
H497 H 0.30987 0.45319 0.71541 0.0
H498 H 0.26889 0.3409 0.75176 0.0
H499 H 0.34278 0.36807 0.75794 0.0
H500 H 0.36369 0.42467 0.73974 0.0
H501 H 0.23629 0.42501 0.70955 0.0
H502 H 0.21178 0.36893 0.8429 0.0
H503 H 0.18429 0.31112 0.85348 0.0
O504 O 0.21205 0.32003 0.71096 0.0
C505 C 0.11696 0.31716 0.69803 0.0
C506 C 0.17206 0.29961 0.80454 0.0
C507 C 0.20099 0.3527 0.82365 0.0
N508 N 0.18899 0.3437 0.7682 0.0
C509 C 0.17385 0.31185 0.77385 0.0
C510 C 0.2024 0.36408 0.79265 0.0
C511 C 0.18561 0.32025 0.82957 0.0
C512 C 0.13924 0.40235 0.63253 0.0
N513 N 0.13155 0.36943 0.63398 0.0
C514 C 0.10691 0.41949 0.62477 0.0
C515 C 0.06646 0.40268 0.61853 0.0
C516 C 0.05883 0.3691 0.62013 0.0
C517 C 0.09192 0.35278 0.62799 0.0
C518 C 0.14853 0.30782 0.55537 0.0
C519 C 0.16295 0.28497 0.61493 0.0
C520 C 0.15737 0.32881 0.58095 0.0
N521 N 0.16443 0.3173 0.61028 0.0
C522 C 0.1541 0.26324 0.58994 0.0
C523 C 0.14689 0.27482 0.55997 0.0
C524 C 0.22921 0.31179 0.68576 0.0
C525 C 0.30114 0.42855 0.72345 0.0
C526 C 0.27773 0.3655 0.7437 0.0
C527 C 0.31962 0.38079 0.74733 0.0
C528 C 0.33133 0.41253 0.7371 0.0
N529 N 0.24828 0.38138 0.73033 0.0
C530 C 0.25953 0.41248 0.72022 0.0
Co531 Co 0.58615 0.12975 0.3379 0.0
Co532 Co 0.68671 0.13679 0.37102 0.0
O533 O 0.62598 0.13916 0.37342 0.0
C534 C 0.57715 0.19694 0.35445 0.0
O535 O 0.61863 0.20405 0.35478 0.0
C536 C 0.65815 0.10815 0.43483 0.0
O537 O 0.61854 0.11038 0.42914 0.0
O538 O 0.6744 0.09343 0.35028 0.0
O539 O 0.61173 0.09126 0.32579 0.0
H540 H 0.81828 0.1166 0.31546 0.0
H541 H 0.55163 0.13917 0.40143 0.0
O542 O 0.55911 0.1681 0.34898 0.0
H543 H 0.48777 0.02872 0.37021 0.0
H544 H 0.44357 0.11973 0.2854 0.0
H545 H 0.59353 0.10959 0.27139 0.0
H546 H 0.53664 0.06304 0.33446 0.0
H547 H 0.49389 0.13079 0.32964 0.0
O548 O 0.68637 0.11549 0.41366 0.0
H549 H 0.74263 0.12068 0.31989 0.0
H550 H 0.7594 0.1471 0.41639 0.0
H551 H 0.54419 0.09802 0.22659 0.0
H552 H 0.5023 0.10591 0.43774 0.0
H553 H 0.46861 0.10308 0.23346 0.0
H554 H 0.47017 0.05019 0.42226 0.0
O555 O 0.62554 0.15738 0.30863 0.0
H556 H 0.66446 0.2235 0.44861 0.0
H557 H 0.7503 0.19586 0.35944 0.0
H558 H 0.76626 0.25005 0.38298 0.0
H559 H 0.72337 0.26417 0.42806 0.0
H560 H 0.64912 0.16993 0.42409 0.0
H561 H 0.83508 0.14296 0.41305 0.0
H562 H 0.86505 0.12776 0.36228 0.0
O563 O 0.69043 0.15872 0.32932 0.0
C564 C 0.64492 0.07949 0.33223 0.0
C565 C 0.80562 0.12332 0.3377 0.0
C566 C 0.81503 0.13805 0.39248 0.0
N567 N 0.74659 0.13425 0.3683 0.0
C568 C 0.76283 0.12576 0.34033 0.0
C569 C 0.77208 0.14021 0.39425 0.0
C570 C 0.83183 0.12954 0.36398 0.0
C571 C 0.53757 0.11501 0.39445 0.0
N572 N 0.54735 0.10295 0.36598 0.0
C573 C 0.50976 0.09626 0.41515 0.0
C574 C 0.49179 0.06499 0.40647 0.0
C575 C 0.50172 0.05291 0.3773 0.0
C576 C 0.52969 0.07235 0.35724 0.0
C577 C 0.47641 0.11738 0.28213 0.0
C578 C 0.56063 0.11164 0.27461 0.0
C579 C 0.50507 0.12368 0.30707 0.0
N580 N 0.54655 0.12061 0.30316 0.0
C581 C 0.53287 0.10515 0.24914 0.0
C582 C 0.49048 0.10803 0.253 0.0
C583 C 0.6656 0.16608 0.30812 0.0
C584 C 0.68366 0.21755 0.42918 0.0
C585 C 0.7315 0.20167 0.37911 0.0
C586 C 0.74071 0.23247 0.39233 0.0
C587 C 0.71664 0.24038 0.4176 0.0
N588 N 0.69937 0.17919 0.39076 0.0
C589 C 0.67535 0.18699 0.41532 0.0
Co590 Co 0.63776 0.65606 0.6858 0.0
Co591 Co 0.69754 0.70444 0.63283 0.0
O592 O 0.67755 0.66085 0.64995 0.0
C593 C 0.69363 0.60516 0.69945 0.0
O594 O 0.72367 0.61787 0.67999 0.0
C595 C 0.69892 0.65929 0.57624 0.0
O596 O 0.68733 0.63293 0.59284 0.0
O597 O 0.63774 0.70926 0.62397 0.0
O598 O 0.61182 0.69403 0.67143 0.0
H599 H 0.69365 0.82289 0.62099 0.0
H600 H 0.64165 0.59996 0.64441 0.0
O601 O 0.66021 0.61755 0.7027 0.0
H602 H 0.49332 0.61709 0.63953 0.0
H603 H 0.53499 0.59541 0.76356 0.0
H604 H 0.61026 0.70232 0.73088 0.0
H605 H 0.5453 0.65214 0.6725 0.0
H606 H 0.58328 0.60075 0.7179 0.0
O607 O 0.70218 0.68713 0.5889 0.0
H608 H 0.67137 0.76821 0.64245 0.0
H609 H 0.76311 0.73282 0.58599 0.0
H610 H 0.56189 0.69809 0.77648 0.0
H611 H 0.59061 0.56413 0.61134 0.0
H612 H 0.52386 0.64433 0.7931 0.0
H613 H 0.51583 0.57263 0.60873 0.0
O614 O 0.68085 0.68476 0.71106 0.0
H615 H 0.823 0.64611 0.63771 0.0
H616 H 0.77109 0.74734 0.66155 0.0
H617 H 0.84451 0.7425 0.67465 0.0
H618 H 0.87112 0.69166 0.66256 0.0
H619 H 0.74977 0.65174 0.62558 0.0
H620 H 0.78602 0.78707 0.56367 0.0
H621 H 0.75137 0.83261 0.58129 0.0
O622 O 0.69465 0.7245 0.6757 0.0
C623 C 0.60925 0.70824 0.64509 0.0
C624 C 0.70906 0.80326 0.61318 0.0
C625 C 0.76086 0.78314 0.58097 0.0
N626 N 0.71601 0.74733 0.61564 0.0
C627 C 0.69664 0.77223 0.6253 0.0
C628 C 0.74762 0.75244 0.59362 0.0
C629 C 0.74142 0.80869 0.59088 0.0
C630 C 0.60913 0.60366 0.64355 0.0
N631 N 0.5965 0.628 0.66049 0.0
C632 C 0.58039 0.58336 0.62472 0.0
C633 C 0.53845 0.58817 0.62324 0.0
C634 C 0.5258 0.61312 0.6405 0.0
C635 C 0.55543 0.63294 0.65907 0.0
C636 C 0.55132 0.61897 0.75652 0.0
C637 C 0.59368 0.67886 0.73786 0.0
C638 C 0.57881 0.62216 0.73072 0.0
N639 N 0.59941 0.65187 0.72158 0.0
C640 C 0.56639 0.6766 0.76375 0.0
C641 C 0.54509 0.64643 0.77308 0.0
C642 C 0.69726 0.71348 0.70352 0.0
C643 C 0.81193 0.66851 0.64281 0.0
C644 C 0.78226 0.72511 0.65607 0.0
C645 C 0.82398 0.72254 0.66359 0.0
C646 C 0.83888 0.69403 0.65682 0.0
N647 N 0.75597 0.70008 0.64202 0.0
C648 C 0.77037 0.67196 0.63566 0.0
Co649 Co 0.64857 0.37933 0.80194 0.0
Co650 Co 0.71955 0.3326 0.83182 0.0
O651 O 0.69798 0.3737 0.82812 0.0
C652 C 0.71047 0.43113 0.76967 0.0
O653 O 0.73368 0.40973 0.76093 0.0
C654 C 0.72576 0.35886 0.89938 0.0
O655 O 0.71306 0.386 0.89201 0.0
O656 O 0.66141 0.30822 0.83973 0.0
O657 O 0.61688 0.33683 0.81624 0.0
H658 H 0.71728 0.21532 0.80767 0.0
H659 H 0.68485 0.43097 0.84646 0.0
O660 O 0.67807 0.42281 0.78712 0.0
H661 H 0.53683 0.39744 0.88038 0.0
H662 H 0.54228 0.44244 0.75644 0.0
H663 H 0.58941 0.33669 0.76021 0.0
H664 H 0.56477 0.372 0.83431 0.0
H665 H 0.60361 0.43474 0.78892 0.0
O666 O 0.7283 0.33737 0.87861 0.0
H667 H 0.6947 0.26827 0.80241 0.0
H668 H 0.7892 0.30927 0.86771 0.0
H669 H 0.5276 0.34326 0.72771 0.0
H670 H 0.65808 0.45741 0.89243 0.0
H671 H 0.50366 0.39644 0.72567 0.0
H672 H 0.5836 0.44058 0.90973 0.0
O673 O 0.67059 0.35788 0.7645 0.0
H674 H 0.84201 0.42475 0.84167 0.0
H675 H 0.79048 0.32 0.79107 0.0
H676 H 0.86205 0.34863 0.77891 0.0
H677 H 0.88847 0.40135 0.80445 0.0
H678 H 0.77057 0.39559 0.85279 0.0
H679 H 0.81239 0.25656 0.87398 0.0
H680 H 0.77555 0.20901 0.84439 0.0
O681 O 0.7122 0.32573 0.78613 0.0
C682 C 0.62446 0.31209 0.83107 0.0
C683 C 0.73322 0.23582 0.82094 0.0
C684 C 0.78657 0.25897 0.85819 0.0
N685 N 0.7403 0.29183 0.83493 0.0
C686 C 0.72064 0.2659 0.81802 0.0
C687 C 0.77317 0.28872 0.85463 0.0
C688 C 0.76613 0.23233 0.84142 0.0
C689 C 0.65235 0.42363 0.85378 0.0
N690 N 0.62648 0.39984 0.83785 0.0
C691 C 0.63739 0.43864 0.87986 0.0
C692 C 0.59562 0.42915 0.88957 0.0
C693 C 0.56938 0.40492 0.87314 0.0
C694 C 0.58545 0.39045 0.84719 0.0
C695 C 0.55238 0.41914 0.75716 0.0
C696 C 0.57907 0.35988 0.75958 0.0
C697 C 0.5872 0.41466 0.77542 0.0
N698 N 0.60001 0.38525 0.77657 0.0
C699 C 0.54411 0.36346 0.74107 0.0
C700 C 0.53072 0.39332 0.73991 0.0
C701 C 0.69455 0.33657 0.76263 0.0
C702 C 0.83108 0.40161 0.8307 0.0
C703 C 0.80171 0.34279 0.80254 0.0
C704 C 0.84232 0.35895 0.79546 0.0
C705 C 0.85709 0.38851 0.80975 0.0
N706 N 0.7765 0.35551 0.82351 0.0
C707 C 0.79061 0.38476 0.83719 0.0
Co708 Co 0.37026 0.13088 0.79602 0.0
Co709 Co 0.30964 0.18043 0.83167 0.0
O710 O 0.32374 0.13701 0.82458 0.0
C711 C 0.30295 0.07131 0.78556 0.0
O712 O 0.27586 0.08193 0.8044 0.0
C713 C 0.30602 0.1525 0.89691 0.0
O714 O 0.33957 0.13935 0.891 0.0
O715 O 0.3682 0.19619 0.84658 0.0
O716 O 0.40446 0.17334 0.81009 0.0
H717 H 0.33421 0.3015 0.82354 0.0
H718 H 0.33782 0.08179 0.84466 0.0
O719 O 0.33938 0.08796 0.78061 0.0
H720 H 0.49125 0.10875 0.86398 0.0
H721 H 0.47024 0.06857 0.74076 0.0
H722 H 0.42485 0.17439 0.7524 0.0
H723 H 0.45828 0.13452 0.82055 0.0
H724 H 0.413 0.07551 0.77767 0.0
O725 O 0.29081 0.16872 0.87578 0.0
H726 H 0.35066 0.24699 0.81491 0.0
H727 H 0.2389 0.20582 0.86381 0.0
H728 H 0.48266 0.16861 0.71552 0.0
H729 H 0.36947 0.05497 0.88793 0.0
H730 H 0.50568 0.11538 0.70952 0.0
H731 H 0.44677 0.06847 0.89797 0.0
O732 O 0.34288 0.15206 0.76133 0.0
H733 H 0.17234 0.10278 0.82666 0.0
H734 H 0.25194 0.20489 0.78556 0.0
H735 H 0.1801 0.18504 0.7656 0.0
H736 H 0.1397 0.13365 0.78623 0.0
H737 H 0.2446 0.12336 0.84568 0.0
H738 H 0.22153 0.25997 0.87327 0.0
H739 H 0.26946 0.3083 0.8531 0.0
O740 O 0.32724 0.19438 0.78802 0.0
C741 C 0.40245 0.19401 0.83199 0.0
C742 C 0.31319 0.28063 0.83255 0.0
C743 C 0.24999 0.25733 0.86049 0.0
N744 N 0.29595 0.22317 0.83899 0.0
C745 C 0.32232 0.24966 0.82772 0.0
C746 C 0.26013 0.22672 0.85521 0.0
C747 C 0.27681 0.28443 0.84911 0.0
C748 C 0.37148 0.08755 0.84849 0.0
N749 N 0.39611 0.10967 0.82985 0.0
C750 C 0.38924 0.07238 0.87322 0.0
C751 C 0.43258 0.08002 0.87888 0.0
C752 C 0.45753 0.10264 0.85986 0.0
C753 C 0.43863 0.11732 0.83537 0.0
C754 C 0.46054 0.0919 0.74321 0.0
C755 C 0.4349 0.15121 0.75007 0.0
C756 C 0.42803 0.09596 0.76399 0.0
N757 N 0.41578 0.12541 0.76735 0.0
C758 C 0.46755 0.14806 0.72909 0.0
C759 C 0.48043 0.11818 0.7257 0.0
C760 C 0.33166 0.17967 0.76238 0.0
C761 C 0.18963 0.12518 0.81746 0.0
C762 C 0.23478 0.18235 0.79446 0.0
C763 C 0.19399 0.17132 0.78317 0.0
C764 C 0.17135 0.1425 0.79476 0.0
N765 N 0.25261 0.16513 0.81658 0.0
C766 C 0.23052 0.13696 0.82818 0.0
Co767 Co 0.39536 0.3805 0.3324 0.0
Co768 Co 0.29917 0.38192 0.36695 0.0
O769 O 0.35771 0.37367 0.36905 0.0
C770 C 0.40501 0.31435 0.35225 0.0
O771 O 0.36354 0.30717 0.35301 0.0
C772 C 0.3331 0.40872 0.42921 0.0
O773 O 0.37054 0.41722 0.41639 0.0
O774 O 0.31994 0.42706 0.35314 0.0
O775 O 0.36946 0.41864 0.31817 0.0
H776 H 0.17721 0.42472 0.3176 0.0
H777 H 0.4343 0.37598 0.39524 0.0
O778 O 0.42284 0.34291 0.34537 0.0
H779 H 0.49616 0.48348 0.35467 0.0
H780 H 0.53401 0.38556 0.27515 0.0
H781 H 0.38327 0.39495 0.26494 0.0
H782 H 0.44451 0.44677 0.32293 0.0
H783 H 0.48688 0.37833 0.32151 0.0
O784 O 0.30182 0.39572 0.41251 0.0
H785 H 0.24994 0.41289 0.32025 0.0
H786 H 0.22491 0.36993 0.41045 0.0
H787 H 0.42939 0.40268 0.21803 0.0
H788 H 0.48642 0.41174 0.42756 0.0
H789 H 0.50535 0.39798 0.22297 0.0
H790 H 0.51758 0.46598 0.40735 0.0
O791 O 0.35338 0.35075 0.30727 0.0
H792 H 0.30116 0.28334 0.43361 0.0
H793 H 0.23213 0.32873 0.34422 0.0
H794 H 0.20866 0.27198 0.35942 0.0
H795 H 0.24316 0.24894 0.40449 0.0
H796 H 0.32413 0.33984 0.41729 0.0
H797 H 0.152 0.38147 0.40885 0.0
H798 H 0.12767 0.40897 0.36212 0.0
O799 O 0.29327 0.3675 0.32163 0.0
C800 C 0.3445 0.43625 0.32997 0.0
C801 C 0.18739 0.41265 0.33805 0.0
C802 C 0.17326 0.38841 0.38928 0.0
N803 N 0.2416 0.39056 0.36537 0.0
C804 C 0.22852 0.40582 0.33965 0.0
C805 C 0.21463 0.382 0.39007 0.0
C806 C 0.15963 0.40383 0.36305 0.0
C807 C 0.44804 0.39942 0.38616 0.0
N808 N 0.43629 0.40928 0.35727 0.0
C809 C 0.47739 0.41962 0.40463 0.0
C810 C 0.4948 0.45008 0.3933 0.0
C811 C 0.48275 0.45993 0.36376 0.0
C812 C 0.45329 0.43909 0.34597 0.0
C813 C 0.50099 0.38773 0.27271 0.0
C814 C 0.41635 0.39307 0.26731 0.0
C815 C 0.47413 0.3836 0.29886 0.0
N816 N 0.43244 0.38648 0.29597 0.0
C817 C 0.44228 0.39738 0.24065 0.0
C818 C 0.48489 0.39471 0.24344 0.0
C819 C 0.31403 0.35121 0.30395 0.0
C820 C 0.28577 0.29314 0.41402 0.0
C821 C 0.24741 0.3189 0.36381 0.0
C822 C 0.23391 0.28674 0.37235 0.0
C823 C 0.25327 0.27383 0.39763 0.0
N824 N 0.27934 0.33769 0.37997 0.0
C825 C 0.29849 0.32518 0.40477 0.0
Co826 Co 0.33933 0.6722 0.14387 0.0
Co827 Co 0.32063 0.6593 0.22333 0.0
O828 O 0.31706 0.64448 0.17931 0.0
C829 C 0.25188 0.65205 0.11678 0.0
O830 O 0.23518 0.66574 0.14042 0.0
C831 C 0.35695 0.59854 0.22773 0.0
O832 O 0.38204 0.60895 0.20409 0.0
O833 O 0.38302 0.67452 0.21954 0.0
O834 O 0.38877 0.69303 0.16967 0.0
H835 H 0.36749 0.73706 0.31154 0.0
H836 H 0.31958 0.60126 0.13604 0.0
O837 O 0.29149 0.6515 0.11616 0.0
H838 H 0.47054 0.63106 0.10841 0.0
H839 H 0.37455 0.6968 0.02966 0.0
H840 H 0.37647 0.74134 0.13738 0.0
H841 H 0.4287 0.67279 0.12366 0.0
H842 H 0.34805 0.66193 0.07455 0.0
O843 O 0.33042 0.61557 0.23781 0.0
H844 H 0.36027 0.71924 0.25606 0.0
H845 H 0.2884 0.62962 0.28439 0.0
H846 H 0.40375 0.77699 0.09319 0.0
H847 H 0.36014 0.55872 0.12066 0.0
H848 H 0.40286 0.75475 0.03886 0.0
H849 H 0.43622 0.57354 0.10681 0.0
O850 O 0.3063 0.70615 0.15758 0.0
H851 H 0.18488 0.58132 0.20938 0.0
H852 H 0.24895 0.68914 0.24797 0.0
H853 H 0.17166 0.67203 0.25141 0.0
H854 H 0.13914 0.61772 0.23211 0.0
H855 H 0.26207 0.59955 0.20609 0.0
H856 H 0.29531 0.6463 0.34016 0.0
H857 H 0.33566 0.70013 0.35405 0.0
O858 O 0.31031 0.703 0.21047 0.0
C859 C 0.40375 0.69028 0.19721 0.0
C860 C 0.35007 0.71345 0.30577 0.0
C861 C 0.30958 0.6625 0.32185 0.0
N862 N 0.32402 0.67341 0.26698 0.0
C863 C 0.34576 0.70326 0.2744 0.0
C864 C 0.30588 0.65315 0.29023 0.0
C865 C 0.33207 0.69278 0.32962 0.0
C866 C 0.35263 0.60788 0.12988 0.0
N867 N 0.37178 0.63944 0.13081 0.0
C868 C 0.37544 0.5837 0.12125 0.0
C869 C 0.41814 0.59202 0.11351 0.0
C870 C 0.43742 0.62429 0.11442 0.0
C871 C 0.41361 0.6478 0.12317 0.0
C872 C 0.37515 0.70677 0.05323 0.0
C873 C 0.37621 0.73144 0.11383 0.0
C874 C 0.36004 0.68716 0.07874 0.0
N875 N 0.36089 0.69955 0.10861 0.0
C876 C 0.39159 0.75176 0.08889 0.0
C877 C 0.39105 0.73928 0.05841 0.0
C878 C 0.30153 0.71696 0.18523 0.0
C879 C 0.19869 0.605 0.21795 0.0
C880 C 0.23505 0.6655 0.23943 0.0
C881 C 0.19126 0.65593 0.2415 0.0
C882 C 0.17304 0.62545 0.23068 0.0
N883 N 0.26001 0.64527 0.22698 0.0
C884 C 0.24237 0.6154 0.21624 0.0
Co885 Co 0.68257 0.83493 0.15044 0.0
Co886 Co 0.69143 0.86339 0.22722 0.0
O887 O 0.69381 0.87029 0.18133 0.0
C888 C 0.76058 0.84796 0.1115 0.0
O889 O 0.7688 0.82009 0.12142 0.0
C890 C 0.63357 0.90797 0.24765 0.0
O891 O 0.60726 0.88262 0.25757 0.0
O892 O 0.63343 0.83705 0.22324 0.0
O893 O 0.63689 0.81065 0.17752 0.0
H894 H 0.66031 0.79642 0.32518 0.0
H895 H 0.68272 0.90211 0.12925 0.0
O896 O 0.72816 0.85871 0.12196 0.0
H897 H 0.54005 0.84352 0.10427 0.0
H898 H 0.66153 0.78792 0.04106 0.0
H899 H 0.66801 0.76353 0.15455 0.0
H900 H 0.59312 0.81534 0.12908 0.0
H901 H 0.67462 0.83187 0.0802 0.0
O902 O 0.66711 0.90436 0.23277 0.0
H903 H 0.66484 0.80642 0.26786 0.0
H904 H 0.71218 0.90556 0.2841 0.0
H905 H 0.65451 0.71883 0.11626 0.0
H906 H 0.63073 0.93116 0.10407 0.0
H907 H 0.65123 0.7309 0.05904 0.0
H908 H 0.5588 0.90182 0.09145 0.0
O909 O 0.7244 0.81213 0.1716 0.0
H910 H 0.80469 0.95842 0.20398 0.0
H911 H 0.7705 0.85549 0.26161 0.0
H912 H 0.84227 0.88732 0.26566 0.0
H913 H 0.85973 0.93925 0.23678 0.0
H914 H 0.7334 0.92567 0.20038 0.0
H915 H 0.70776 0.89674 0.34156 0.0
H916 H 0.68181 0.84179 0.36247 0.0
O917 O 0.71774 0.82359 0.223 0.0
C918 C 0.61872 0.81498 0.20357 0.0
C919 C 0.67165 0.82047 0.31636 0.0
C920 C 0.69824 0.87677 0.32556 0.0
N921 N 0.68863 0.85656 0.2726 0.0
C922 C 0.6743 0.82628 0.28393 0.0
C923 C 0.70051 0.88166 0.29298 0.0
C924 C 0.6837 0.84594 0.33727 0.0
C925 C 0.65157 0.88914 0.12362 0.0
N926 N 0.64109 0.85704 0.13044 0.0
C927 C 0.62223 0.90573 0.10946 0.0
C928 C 0.58185 0.88927 0.10242 0.0
C929 C 0.5713 0.85656 0.10962 0.0
C930 C 0.60146 0.84076 0.12377 0.0
C931 C 0.66284 0.78234 0.06593 0.0
C932 C 0.66646 0.76898 0.12972 0.0
C933 C 0.67029 0.80713 0.0882 0.0
N934 N 0.6719 0.80027 0.11966 0.0
C935 C 0.65887 0.74356 0.10813 0.0
C936 C 0.65706 0.75036 0.07604 0.0
C937 C 0.73203 0.80815 0.20064 0.0
C938 C 0.79748 0.93584 0.21669 0.0
C939 C 0.77792 0.87796 0.2488 0.0
C940 C 0.81858 0.89594 0.25128 0.0
C941 C 0.82835 0.92507 0.23508 0.0
N942 N 0.74779 0.88868 0.23073 0.0
C943 C 0.75715 0.9172 0.21476 0.0
H944 H 0.20166 0.28243 0.19372 0.0
H945 H 0.23046 0.198 0.24131 0.0
H946 H 0.27325 0.23227 0.27998 0.0
H947 H 0.30358 0.28648 0.2998 0.0
H948 H 0.27034 0.37055 0.25473 0.0
H949 H 0.22852 0.3363 0.21522 0.0
C950 C 0.21712 0.27151 0.21265 0.0
C951 C 0.21291 0.23768 0.21459 0.0
C952 C 0.24126 0.29135 0.23498 0.0
C953 C 0.23288 0.22393 0.23941 0.0
C954 C 0.25761 0.24353 0.2614 0.0
C955 C 0.28743 0.29715 0.28107 0.0
C956 C 0.29053 0.33083 0.2795 0.0
C957 C 0.26232 0.27725 0.25926 0.0
C958 C 0.26865 0.34462 0.2559 0.0
C959 C 0.2447 0.32507 0.23349 0.0
H960 H 0.74482 0.24166 0.18827 0.0
H961 H 0.80552 0.30535 0.26086 0.0
H962 H 0.76833 0.27034 0.30131 0.0
H963 H 0.719 0.22175 0.31611 0.0
H964 H 0.65461 0.1596 0.24432 0.0
H965 H 0.69188 0.1946 0.20317 0.0
C966 C 0.74962 0.24818 0.21286 0.0
C967 C 0.77788 0.27631 0.22137 0.0
C968 C 0.7273 0.22835 0.23606 0.0
C969 C 0.78392 0.284 0.25352 0.0
C970 C 0.76266 0.26399 0.27671 0.0
C971 C 0.71335 0.21582 0.29145 0.0
C972 C 0.68482 0.188 0.28309 0.0
C973 C 0.73439 0.23614 0.26823 0.0
C974 C 0.67659 0.18095 0.25114 0.0
C975 C 0.69802 0.20083 0.22773 0.0
H976 H 0.2211 0.72917 0.18334 0.0
H977 H 0.35063 0.7733 0.19919 0.0
H978 H 0.32739 0.82099 0.22162 0.0
H979 H 0.27043 0.84511 0.24535 0.0
H980 H 0.14063 0.80028 0.23261 0.0
H981 H 0.16326 0.7584 0.19948 0.0
C982 C 0.24404 0.74988 0.19053 0.0
C983 C 0.28745 0.74818 0.18933 0.0
C984 C 0.23028 0.77687 0.20425 0.0
C985 C 0.31712 0.77454 0.1995 0.0
C986 C 0.30381 0.80162 0.21256 0.0
C987 C 0.24712 0.82676 0.23436 0.0
C988 C 0.20405 0.82561 0.24129 0.0
C989 C 0.26052 0.8024 0.21628 0.0
C990 C 0.17394 0.8018 0.22716 0.0
C991 C 0.18696 0.77763 0.20861 0.0
H992 H 0.86426 0.73669 0.26564 0.0
H993 H 0.77459 0.6532 0.23822 0.0
H994 H 0.7351 0.68753 0.20718 0.0
H995 H 0.72031 0.74263 0.19526 0.0
H996 H 0.8099 0.82527 0.22498 0.0
H997 H 0.85519 0.79017 0.24787 0.0
C998 C 0.83678 0.72592 0.25204 0.0
C999 C 0.8222 0.69261 0.25417 0.0
C1000 C 0.81371 0.74584 0.23534 0.0
C1001 C 0.78663 0.6788 0.23656 0.0
C1002 C 0.76373 0.6985 0.21924 0.0
C1003 C 0.75019 0.75272 0.20621 0.0
C1004 C 0.76153 0.78636 0.20925 0.0
C1005 C 0.77602 0.73222 0.21956 0.0
C1006 C 0.80018 0.79943 0.22331 0.0
C1007 C 0.82618 0.77938 0.23615 0.0
H1008 H 0.30004 0.72952 0.70806 0.0
H1009 H 0.26351 0.81361 0.75138 0.0
H1010 H 0.21568 0.77895 0.78694 0.0
H1011 H 0.18389 0.72441 0.80545 0.0
H1012 H 0.22456 0.64105 0.76425 0.0
H1013 H 0.27057 0.6757 0.72753 0.0
C1014 C 0.28177 0.74035 0.72536 0.0
C1015 C 0.28534 0.77414 0.72703 0.0
C1016 C 0.25456 0.72033 0.74569 0.0
C1017 C 0.26164 0.7877 0.74976 0.0
C1018 C 0.23402 0.76788 0.76991 0.0
C1019 C 0.20234 0.71397 0.78799 0.0
C1020 C 0.20026 0.68033 0.78679 0.0
C1021 C 0.22996 0.73415 0.7679 0.0
C1022 C 0.22529 0.6669 0.76502 0.0
C1023 C 0.25173 0.68669 0.74427 0.0
H1024 H 0.7098 0.77887 0.70382 0.0
H1025 H 0.7375 0.69702 0.75638 0.0
H1026 H 0.78239 0.73328 0.79245 0.0
H1027 H 0.81501 0.78836 0.80828 0.0
H1028 H 0.78262 0.87006 0.75836 0.0
H1029 H 0.73871 0.83377 0.72153 0.0
C1030 C 0.72546 0.76896 0.72329 0.0
C1031 C 0.72045 0.73529 0.72739 0.0
C1032 C 0.75083 0.78991 0.74402 0.0
C1033 C 0.74061 0.72284 0.75288 0.0
C1034 C 0.76654 0.74354 0.77333 0.0
C1035 C 0.79867 0.79806 0.78904 0.0
C1036 C 0.80264 0.83163 0.7853 0.0
C1037 C 0.77225 0.77708 0.7689 0.0
C1038 C 0.78037 0.8442 0.76114 0.0
C1039 C 0.75518 0.8235 0.7403 0.0
H1040 H 0.76956 0.34291 0.73436 0.0
H1041 H 0.64033 0.29532 0.72633 0.0
H1042 H 0.66272 0.2528 0.69403 0.0
H1043 H 0.72082 0.2234 0.67912 0.0
H1044 H 0.85016 0.26898 0.69317 0.0
H1045 H 0.82655 0.31795 0.71226 0.0
C1046 C 0.74622 0.32404 0.72412 0.0
C1047 C 0.70346 0.32222 0.73235 0.0
C1048 C 0.75973 0.29874 0.7076 0.0
C1049 C 0.67333 0.29747 0.71966 0.0
C1050 C 0.6863 0.2728 0.70182 0.0
C1051 C 0.7436 0.24455 0.68543 0.0
C1052 C 0.78704 0.243 0.68476 0.0
C1053 C 0.72963 0.27224 0.69729 0.0
C1054 C 0.81659 0.27002 0.69344 0.0
C1055 C 0.80309 0.29789 0.70438 0.0
H1056 H 0.21212 0.24648 0.68274 0.0
H1057 H 0.31265 0.32691 0.69725 0.0
H1058 H 0.35885 0.2906 0.71697 0.0
H1059 H 0.36501 0.23771 0.73934 0.0
H1060 H 0.26528 0.15687 0.72465 0.0
H1061 H 0.2248 0.19107 0.69461 0.0
C1062 C 0.24464 0.25572 0.68922 0.0
C1063 C 0.25911 0.28914 0.68907 0.0
C1064 C 0.27103 0.2346 0.70044 0.0
C1065 C 0.30103 0.30119 0.69757 0.0
C1066 C 0.32736 0.28046 0.70882 0.0
C1067 C 0.33542 0.22733 0.72809 0.0
C1068 C 0.31812 0.19494 0.73389 0.0
C1069 C 0.31205 0.24733 0.71162 0.0
C1070 C 0.27947 0.18164 0.71985 0.0
C1071 C 0.25599 0.20136 0.70322 0.0
H1072 H 0.15937 0.96414 0.22885 0.0
H1073 H 0.25367 0.99566 0.29973 0.0
H1074 H 0.25739 0.0517 0.28243 0.0
H1075 H 0.22917 0.09218 0.2498 0.0
H1076 H 0.13797 0.05954 0.17689 0.0
H1077 H 0.13805 1.00365 0.19207 0.0
C1078 C 0.18116 0.98327 0.24019 0.0
C1079 C 0.20597 0.97587 0.26566 0.0
C1080 C 0.18353 0.01528 0.22984 0.0
C1081 C 0.23437 1.00077 0.27999 0.0
C1082 C 0.2363 0.03283 0.27022 0.0
C1083 C 0.2098 0.07279 0.23698 0.0
C1084 C 0.18335 0.08014 0.21242 0.0
C1085 C 0.21037 0.04046 0.24557 0.0
C1086 C 0.15872 0.05469 0.19583 0.0
C1087 C 0.15853 0.02264 0.2046 0.0
H1088 H 0.82475 0.42403 0.25017 0.0
H1089 H 0.76223 0.44118 0.16341 0.0
H1090 H 0.75618 0.4958 0.18124 0.0
H1091 H 0.77585 0.54038 0.21941 0.0
H1092 H 0.83432 0.52118 0.30761 0.0
H1093 H 0.83385 0.4655 0.29167 0.0
C1094 C 0.8092 0.43963 0.23545 0.0
C1095 C 0.79437 0.42898 0.20545 0.0
C1096 C 0.80516 0.47059 0.24611 0.0
C1097 C 0.77383 0.44904 0.18661 0.0
C1098 C 0.77056 0.48025 0.19676 0.0
C1099 C 0.78763 0.52381 0.23542 0.0
C1100 C 0.8057 0.5352 0.26445 0.0
C1101 C 0.78706 0.49156 0.22618 0.0
C1102 C 0.82035 0.51327 0.28508 0.0
C1103 C 0.82042 0.48138 0.27589 0.0
H1104 H 0.25307 0.19013 0.92086 0.0
H1105 H 0.31336 0.10875 0.94394 0.0
H1106 H 0.27896 0.10477 0.99581 0.0
H1107 H 0.23346 0.12588 0.03529 0.0
H1108 H 0.1782 0.2098 0.01264 0.0
H1109 H 0.20839 0.21105 0.95963 0.0
C1110 C 0.25855 0.17133 0.93709 0.0
C1111 C 0.28567 0.14967 0.92845 0.0
C1112 C 0.23931 0.16958 0.96689 0.0
C1113 C 0.29278 0.12578 0.95003 0.0
C1114 C 0.27299 0.12345 0.97964 0.0
C1115 C 0.22749 0.14405 0.01849 0.0
C1116 C 0.20315 0.16746 0.02762 0.0
C1117 C 0.24631 0.14532 0.98838 0.0
C1118 C 0.19654 0.19141 0.006 0.0
C1119 C 0.21394 0.19221 0.97578 0.0
H1120 H 0.79442 0.3091 0.02602 0.0
H1121 H 0.83638 0.41102 0.0406 0.0
H1122 H 0.80517 0.42262 0.99003 0.0
H1123 H 0.76428 0.40358 0.94185 0.0
H1124 H 0.72394 0.30132 0.9282 0.0
H1125 H 0.7552 0.29024 0.97855 0.0
C1126 C 0.79695 0.33391 0.0182 0.0
C1127 C 0.81767 0.35912 0.03725 0.0
C1128 C 0.77851 0.3404 0.9894 0.0
C1129 C 0.82087 0.39107 0.02641 0.0
C1130 C 0.80268 0.39775 0.99758 0.0
C1131 C 0.7619 0.37895 0.95018 0.0
C1132 C 0.74141 0.35333 0.93145 0.0
C1133 C 0.78093 0.37261 0.97901 0.0
C1134 C 0.73934 0.32148 0.94222 0.0
C1135 C 0.7574 0.31508 0.97094 0.0
H1136 H 0.30136 0.8832 0.53608 0.0
H1137 H 0.3136 0.78242 0.53359 0.0
H1138 H 0.27577 0.77579 0.48376 0.0
H1139 H 0.23608 0.79729 0.44235 0.0
H1140 H 0.22596 0.89821 0.44147 0.0
H1141 H 0.26583 0.9061 0.49127 0.0
C1142 C 0.2964 0.85996 0.52435 0.0
C1143 C 0.31001 0.83328 0.53887 0.0
C1144 C 0.27429 0.85617 0.49542 0.0
C1145 C 0.3032 0.80332 0.52325 0.0
C1146 C 0.28137 0.79942 0.49474 0.0
C1147 C 0.24213 0.821 0.45321 0.0
C1148 C 0.22708 0.84697 0.4388 0.0
C1149 C 0.26597 0.82543 0.48103 0.0
C1150 C 0.23661 0.87775 0.4525 0.0
C1151 C 0.25956 0.88225 0.48083 0.0
H1152 H 0.73977 0.61346 0.54988 0.0
H1153 H 0.69526 0.70266 0.52971 0.0
H1154 H 0.72922 0.70534 0.47812 0.0
H1155 H 0.77416 0.68423 0.43999 0.0
H1156 H 0.82168 0.5961 0.45943 0.0
H1157 H 0.78437 0.59131 0.51016 0.0
C1158 C 0.73687 0.6331 0.53388 0.0
C1159 C 0.71467 0.65769 0.54351 0.0
C1160 C 0.7576 0.635 0.50438 0.0
C1161 C 0.71196 0.68337 0.52282 0.0
C1162 C 0.73157 0.68502 0.49337 0.0
C1163 C 0.77644 0.66385 0.45515 0.0
C1164 C 0.80093 0.64062 0.44578 0.0
C1165 C 0.75501 0.6613 0.48414 0.0
C1166 C 0.80334 0.61448 0.46602 0.0
C1167 C 0.78182 0.61166 0.49501 0.0
H1168 H 0.94907 0.28721 0.09909 0.0
H1169 H 0.91812 0.26425 0.19634 0.0
H1170 H 0.97708 0.23462 0.20026 0.0
H1171 H 0.03924 0.21725 0.17723 0.0
H1172 H 0.07417 0.24227 0.08095 0.0
H1173 H 0.01228 0.26898 0.07554 0.0
C1174 C 0.95503 0.2753 0.12092 0.0
C1175 C 0.92917 0.2778 0.14735 0.0
C1176 C 0.99002 0.25892 0.12333 0.0
C1177 C 0.93762 0.26273 0.17569 0.0
C1178 C 0.97139 0.2458 0.17798 0.0
C1179 C 0.03339 0.2284 0.15495 0.0
C1180 C 0.06157 0.22766 0.12957 0.0
C1181 C 0.99815 0.24411 0.15213 0.0
C1182 C 0.05322 0.24246 0.10097 0.0
C1183 C 0.01772 0.25774 0.09783 0.0
H1184 H 0.94477 0.73639 0.37352 0.0
H1185 H 0.99328 0.6701 0.31104 0.0
H1186 H 0.06071 0.70627 0.30784 0.0
H1187 H 0.10398 0.75945 0.3181 0.0
H1188 H 0.05307 0.82828 0.37544 0.0
H1189 H 0.989 0.78878 0.38535 0.0
C1190 C 0.97024 0.72962 0.35956 0.0
C1191 C 0.96365 0.70034 0.34269 0.0
C1192 C 0.00871 0.75127 0.35669 0.0
C1193 C 0.99719 0.69225 0.32452 0.0
C1194 C 0.03591 0.71307 0.32248 0.0
C1195 C 0.07919 0.76535 0.33336 0.0
C1196 C 0.08323 0.79633 0.34649 0.0
C1197 C 0.04177 0.74296 0.33786 0.0
C1198 C 0.05061 0.80428 0.3655 0.0
C1199 C 0.01395 0.78179 0.371 0.0
H1200 H 0.56185 0.72969 0.69066 0.0
H1201 H 0.57561 0.72694 0.58956 0.0
H1202 H 0.51414 0.7543 0.58327 0.0
H1203 H 0.45559 0.77863 0.60701 0.0
H1204 H 0.44637 0.78318 0.70849 0.0
H1205 H 0.50668 0.75544 0.714 0.0
C1206 C 0.55149 0.73498 0.66716 0.0
C1207 C 0.5732 0.72599 0.6406 0.0
C1208 C 0.51673 0.75106 0.6638 0.0
C1209 C 0.55954 0.73357 0.61042 0.0
C1210 C 0.52429 0.74914 0.60683 0.0
C1211 C 0.46682 0.77349 0.63028 0.0
C1212 C 0.44623 0.78297 0.65728 0.0
C1213 C 0.50245 0.75791 0.6334 0.0
C1214 C 0.46154 0.77638 0.68727 0.0
C1215 C 0.49607 0.76041 0.6905 0.0
H1216 H 0.87154 0.08676 0.80511 0.0
H1217 H 0.86788 0.05015 0.71008 0.0
H1218 H 0.86546 0.99509 0.73024 0.0
H1219 H 0.86366 0.9573 0.77526 0.0
H1220 H 0.85902 0.9936 0.87008 0.0
H1221 H 0.86525 0.04876 0.84986 0.0
C1222 C 0.87057 0.06668 0.78888 0.0
C1223 C 0.87073 0.0724 0.75619 0.0
C1224 C 0.86743 0.03507 0.80069 0.0
C1225 C 0.86822 0.04623 0.73533 0.0
C1226 C 0.86677 0.01481 0.74687 0.0
C1227 C 0.86405 0.97736 0.79143 0.0
C1228 C 0.86116 0.97148 0.82414 0.0
C1229 C 0.86627 0.00892 0.77953 0.0
C1230 C 0.86107 0.99755 0.84483 0.0
C1231 C 0.86478 0.02908 0.83328 0.0
H1232 H 0.10103 0.54708 0.7871 0.0
H1233 H 0.19757 0.53088 0.85351 0.0
H1234 H 0.20379 0.48036 0.82711 0.0
H1235 H 0.18343 0.44133 0.78459 0.0
H1236 H 0.08732 0.4571 0.71778 0.0
H1237 H 0.07948 0.50714 0.74498 0.0
C1238 C 0.12332 0.53248 0.79598 0.0
C1239 C 0.14877 0.54304 0.82244 0.0
C1240 C 0.12697 0.50333 0.78053 0.0
C1241 C 0.17745 0.52357 0.83337 0.0
C1242 C 0.18113 0.49461 0.8182 0.0
C1243 C 0.1606 0.45557 0.77592 0.0
C1244 C 0.13603 0.44527 0.74902 0.0
C1245 C 0.15629 0.48435 0.79166 0.0
C1246 C 0.10668 0.46426 0.73835 0.0
C1247 C 0.10219 0.49295 0.75392 0.0
H1248 H 0.7324 0.88445 0.06555 0.0
H1249 H 0.8417 0.84463 0.09501 0.0
H1250 H 0.87714 0.86126 0.04521 0.0
H1251 H 0.87365 0.88113 0.99088 0.0
H1252 H 0.76188 0.91677 0.95984 0.0
H1253 H 0.73114 0.90811 0.0125 0.0
C1254 C 0.76436 0.8801 0.06134 0.0
C1255 C 0.78439 0.86332 0.08395 0.0
C1256 C 0.78397 0.88868 0.03212 0.0
C1257 C 0.82556 0.85744 0.07795 0.0
C1258 C 0.8458 0.86685 0.04942 0.0
C1259 C 0.84299 0.88768 0.99583 0.0
C1260 C 0.82012 0.89955 0.97141 0.0
C1261 C 0.82483 0.88161 0.02594 0.0
C1262 C 0.78013 0.9075 0.97817 0.0
C1263 C 0.76245 0.90247 0.00828 0.0
H1264 H 0.13296 0.63154 0.99683 0.0
H1265 H 0.24125 0.5949 0.96002 0.0
H1266 H 0.27464 0.60045 0.0118 0.0
H1267 H 0.27644 0.62039 0.06595 0.0
H1268 H 0.16996 0.65904 0.10313 0.0
H1269 H 0.13239 0.64751 0.05306 0.0
C1270 C 0.16347 0.62417 1.00028 0.0
C1271 C 0.1846 0.61299 0.97439 0.0
C1272 C 0.18306 0.62802 0.03018 0.0
C1273 C 0.22431 0.60377 0.97937 0.0
C1274 C 0.24354 0.60699 0.00901 0.0
C1275 C 0.24481 0.62604 0.06334 0.0
C1276 C 0.22633 0.64093 0.0883 0.0
C1277 C 0.22373 0.61988 0.03435 0.0
C1278 C 0.18511 0.64768 0.08439 0.0
C1279 C 0.16364 0.64121 0.05566 0.0
H1280 H 0.62651 0.13225 0.48731 0.0
H1281 H 0.72498 0.08156 0.45545 0.0
H1282 H 0.75925 0.08893 0.50712 0.0
H1283 H 0.76658 0.1165 0.55848 0.0
H1284 H 0.67256 0.17279 0.58765 0.0
H1285 H 0.63084 0.15611 0.54041 0.0
C1286 C 0.65472 0.12194 0.49204 0.0
C1287 C 0.673 0.10612 0.46771 0.0
C1288 C 0.67538 0.1277 0.5213 0.0
C1289 C 0.71019 0.09362 0.4739 0.0
C1290 C 0.72993 0.09803 0.50337 0.0
C1291 C 0.73649 0.12452 0.55484 0.0
C1292 C 0.72276 0.14597 0.5765 0.0
C1293 C 0.71364 0.11603 0.52687 0.0
C1294 C 0.68389 0.15637 0.57127 0.0
C1295 C 0.66009 0.14693 0.54419 0.0
H1296 H 0.32515 0.37317 0.57316 0.0
H1297 H 0.20465 0.40532 0.56502 0.0
H1298 H 0.22117 0.42236 0.51073 0.0
H1299 H 0.26615 0.42157 0.4634 0.0
H1300 H 0.38879 0.39329 0.47264 0.0
H1301 H 0.37544 0.38164 0.52864 0.0
C1302 C 0.30293 0.38461 0.55973 0.0
C1303 C 0.26338 0.38735 0.57297 0.0
C1304 C 0.31287 0.39475 0.52858 0.0
C1305 C 0.23518 0.40263 0.55542 0.0
C1306 C 0.2445 0.41223 0.52423 0.0
C1307 C 0.29027 0.41354 0.47791 0.0
C1308 C 0.32825 0.40805 0.46393 0.0
C1309 C 0.28263 0.40738 0.51023 0.0
C1310 C 0.3594 0.39784 0.48292 0.0
C1311 C 0.35165 0.39097 0.5149 0.0
H1312 H 1.00098 0.69019 0.86483 0.0
H1313 H 0.1142 0.76215 0.86505 0.0
H1314 H 0.07125 0.80492 0.86622 0.0
H1315 H 1.00161 0.82205 0.86393 0.0
H1316 H 0.88838 0.7501 0.8639 0.0
H1317 H 0.93131 0.70734 0.86613 0.0
C1318 C 0.01633 0.71521 0.8654 0.0
C1319 C 0.06086 0.72284 0.86461 0.0
C1320 C 0.99142 0.73978 0.86598 0.0
C1321 C 0.08007 0.75547 0.86558 0.0
C1322 C 0.0555 0.78001 0.86616 0.0
C1323 C 0.98625 0.79703 0.86466 0.0
C1324 C 0.94173 0.78939 0.86351 0.0
C1325 C 0.01115 0.77247 0.86586 0.0
C1326 C 0.92251 0.75678 0.8647 0.0
C1327 C 0.94707 0.73225 0.86589 0.0
H1328 H 0.08816 0.26524 0.66149 0.0
H1329 H 0.05724 0.31456 0.74543 0.0
H1330 H 0.99069 0.27634 0.75034 0.0
H1331 H 0.93886 0.23102 0.72815 0.0
H1332 H 0.97125 0.1838 0.6435 0.0
H1333 H 0.03984 0.21891 0.6417 0.0
C1334 C 0.06711 0.26776 0.68102 0.0
C1335 C 0.07767 0.29313 0.70284 0.0
C1336 C 0.02905 0.24594 0.68356 0.0
C1337 C 0.04994 0.29545 0.72816 0.0
C1338 C 0.01184 0.27357 0.73096 0.0
C1339 C 0.96134 0.22804 0.70975 0.0
C1340 C 0.94988 0.20489 0.68585 0.0
C1341 C 1.00073 0.24895 0.70851 0.0
C1342 C 0.97911 0.2016 0.66191 0.0
C1343 C 0.01836 0.2217 0.66087 0.0
H1344 H 0.49125 0.18995 0.35906 0.0
H1345 H 0.60415 0.26218 0.35706 0.0
H1346 H 0.56091 0.30482 0.35778 0.0
H1347 H 0.49106 0.32161 0.35594 0.0
H1348 H 0.37819 0.24934 0.35813 0.0
H1349 H 0.42148 0.20681 0.36057 0.0
C1350 C 0.50648 0.21501 0.35899 0.0
C1351 C 0.55098 0.22277 0.35775 0.0
C1352 C 0.48141 0.23946 0.35933 0.0
C1353 C 0.57004 0.25543 0.35794 0.0
C1354 C 0.5453 0.27987 0.35827 0.0
C1355 C 0.47585 0.29657 0.35717 0.0
C1356 C 0.43133 0.28875 0.3566 0.0
C1357 C 0.50096 0.27217 0.35849 0.0
C1358 C 0.41231 0.25614 0.35846 0.0
C1359 C 0.43707 0.23175 0.35978 0.0
H1360 H 0.74648 0.56049 0.68969 0.0
H1361 H 0.64736 0.58276 0.75074 0.0
H1362 H 0.64638 0.53247 0.779 0.0
H1363 H 0.66999 0.48077 0.78481 0.0
H1364 H 0.76763 0.45625 0.72385 0.0
H1365 H 0.77331 0.5088 0.69773 0.0
C1366 C 0.72501 0.55445 0.70937 0.0
C1367 C 0.69671 0.5754 0.71772 0.0
C1368 C 0.72424 0.52498 0.72564 0.0
C1369 C 0.66911 0.56707 0.74336 0.0
C1370 C 0.66855 0.53825 0.7597 0.0
C1371 C 0.69282 0.48687 0.76597 0.0
C1372 C 0.71809 0.46433 0.75623 0.0
C1373 C 0.69541 0.5168 0.75075 0.0
C1374 C 0.7477 0.47303 0.73191 0.0
C1375 C 0.75083 0.50307 0.71682 0.0
H1376 H 0.3362 0.04852 0.73307 0.0
H1377 H 0.25081 0.01897 0.81023 0.0
H1378 H 0.24515 0.96254 0.79384 0.0
H1379 H 0.27006 0.92123 0.76046 0.0
H1380 H 0.35375 0.95158 0.68236 0.0
H1381 H 0.35399 0.00792 0.696 0.0
C1382 C 0.31588 0.02976 0.74605 0.0
C1383 C 0.29428 0.0379 0.77302 0.0
C1384 C 0.31262 0.99744 0.73639 0.0
C1385 C 0.26772 0.01338 0.78937 0.0
C1386 C 0.26467 0.98107 0.7801 0.0
C1387 C 0.28779 0.94019 0.74612 0.0
C1388 C 0.31215 0.93205 0.72058 0.0
C1389 C 0.28777 0.97274 0.75407 0.0
C1390 C 0.33465 0.95698 0.70211 0.0
C1391 C 0.33505 0.9893 0.71001 0.0
H1392 H 0.48486 0.18842 0.82154 0.0
H1393 H 0.40669 0.25459 0.85703 0.0
H1394 H 0.46882 0.29685 0.86118 0.0
H1395 H 0.54486 0.31602 0.85107 0.0
H1396 H 0.62354 0.24823 0.82046 0.0
H1397 H 0.56189 0.20529 0.81881 0.0
C1398 C 0.48135 0.21184 0.83068 0.0
C1399 C 0.44086 0.2183 0.83847 0.0
C1400 C 0.51741 0.23576 0.83393 0.0
C1401 C 0.43726 0.24891 0.85052 0.0
C1402 C 0.47284 0.27315 0.85291 0.0
C1403 C 0.5485 0.29174 0.84447 0.0
C1404 C 0.58861 0.28536 0.83559 0.0
C1405 C 0.51296 0.26702 0.84412 0.0
C1406 C 0.59308 0.25372 0.8275 0.0
C1407 C 0.55775 0.2292 0.82634 0.0
H1408 H 0.31246 0.57178 0.27885 0.0
H1409 H 0.40777 0.55465 0.2119 0.0
H1410 H 0.4128 0.50352 0.23787 0.0
H1411 H 0.39005 0.46356 0.27937 0.0
H1412 H 0.29448 0.48067 0.3462 0.0
H1413 H 0.28994 0.53193 0.3205 0.0
C1414 C 0.33436 0.55691 0.26985 0.0
C1415 C 0.3597 0.56721 0.24335 0.0
C1416 C 0.33717 0.52751 0.28495 0.0
C1417 C 0.38787 0.54748 0.23219 0.0
C1418 C 0.3908 0.51818 0.24707 0.0
C1419 C 0.36827 0.47847 0.28848 0.0
C1420 C 0.34272 0.46806 0.31487 0.0
C1421 C 0.36562 0.50795 0.27347 0.0
C1422 C 0.31468 0.48791 0.32608 0.0
C1423 C 0.31197 0.51728 0.31132 0.0
H1424 H 0.58301 0.03339 0.30808 0.0
H1425 H 0.71831 0.05613 0.32091 0.0
H1426 H 0.72694 0.00681 0.29289 0.0
H1427 H 0.69598 0.95671 0.26545 0.0
H1428 H 0.56034 0.93123 0.25779 0.0
H1429 H 0.5519 0.98246 0.2825 0.0
C1430 C 0.61441 0.02759 0.30489 0.0
C1431 C 0.64993 0.04858 0.31672 0.0
C1432 C 0.61907 0.99882 0.28934 0.0
C1433 C 0.69035 0.04042 0.31234 0.0
C1434 C 0.69534 0.01227 0.29614 0.0
C1435 C 0.66458 0.9625 0.26893 0.0
C1436 C 0.62878 0.94034 0.2595 0.0
C1437 C 0.65994 0.99128 0.28454 0.0
C1438 C 0.58833 0.94799 0.26464 0.0
C1439 C 0.58352 0.97719 0.27891 0.0
H1440 H 0.59301 0.75461 0.18104 0.0
H1441 H 0.55325 0.82629 0.24169 0.0
H1442 H 0.48391 0.79213 0.24825 0.0
H1443 H 0.43222 0.7438 0.23235 0.0
H1444 H 0.47356 0.67275 0.17195 0.0
H1445 H 0.54467 0.70453 0.16983 0.0
C1446 C 0.56933 0.76275 0.19589 0.0
C1447 C 0.5782 0.79322 0.21049 0.0
C1448 C 0.52973 0.743 0.19957 0.0
C1449 C 0.54731 0.80303 0.2301 0.0
C1450 C 0.50757 0.78351 0.23378 0.0
C1451 C 0.45724 0.73496 0.21953 0.0
C1452 C 0.4479 0.706 0.20234 0.0
C1453 C 0.49811 0.75368 0.21814 0.0
C1454 C 0.48015 0.69501 0.18525 0.0
C1455 C 0.52074 0.71322 0.18397 0.0
loop_
_geom_bond_atom_site_label_1
_geom_bond_atom_site_label_2
_geom_bond_distance
_geom_bond_site_symmetry_2
_ccdc_geom_bond_type
Co0 O2 2.143 . S
Co0 O8 2.074 . S
Co0 O11 2.093 . S
Co0 O24 2.097 . S
Co0 N41 2.151 . S
Co0 N49 2.214 . S
Co1 O2 2.160 . S
Co1 O7 2.058 . S
Co1 O17 2.057 . S
Co1 O32 2.037 . S
Co1 N36 2.145 . S
Co1 N57 2.257 . S
O2 Co0 2.143 . S
O2 Co1 2.160 . S
C3 O4 1.278 . S
C3 O11 1.224 . S
O4 C3 1.278 . S
C5 O6 1.245 . S
C5 O17 1.232 . S
O6 C5 1.245 . S
O7 Co1 2.058 . S
O7 C33 1.269 . S
O8 Co0 2.074 . S
O8 C33 1.257 . S
H9 C34 0.930 . S
H10 C40 0.930 . S
O11 Co0 2.093 . S
O11 C3 1.224 . S
H12 C44 0.929 1_655 S
H13 C46 0.930 . S
H14 C47 0.930 . S
H15 C45 0.929 . S
H16 C48 0.928 . S
O17 Co1 2.057 . S
O17 C5 1.232 . S
H18 C37 0.929 . S
H19 C38 0.929 . S
H20 C50 0.931 . S
H21 C42 0.929 . S
H22 C51 0.930 . S
H23 C43 0.931 1_655 S
O24 Co0 2.097 . S
O24 C52 1.214 . S
H25 C53 0.929 . S
H26 C54 0.929 . S
H27 C55 0.930 . S
H28 C56 0.929 . S
H29 C58 0.930 . S
H30 C35 0.930 . S
H31 C39 0.930 . S
O32 Co1 2.037 . S
O32 C52 1.234 . S
C33 O7 1.269 . S
C33 O8 1.257 . S
C34 H9 0.930 . S
C34 C37 1.388 . S
C34 C39 1.418 . S
C35 H30 0.930 . S
C35 C38 1.404 . S
C35 C39 1.353 . S
N36 Co1 2.145 . S
N36 C37 1.397 . S
N36 C38 1.334 . S
C37 H18 0.929 . S
C37 C34 1.388 . S
C37 N36 1.397 . S
C38 H19 0.929 . S
C38 C35 1.404 . S
C38 N36 1.334 . S
C39 H31 0.930 . S
C39 C34 1.418 . S
C39 C35 1.353 . S
C40 H10 0.930 . S
C40 N41 1.330 . S
C40 C42 1.446 . S
N41 Co0 2.151 . S
N41 C40 1.330 . S
N41 C45 1.418 . S
C42 H21 0.929 . S
C42 C40 1.446 . S
C42 C43 1.332 . S
C43 H23 0.931 1_455 S
C43 C42 1.332 . S
C43 C44 1.267 . S
C44 H12 0.929 1_455 S
C44 C43 1.267 . S
C44 C45 1.251 . S
C45 H15 0.929 . S
C45 N41 1.418 . S
C45 C44 1.251 . S
C46 H13 0.930 . S
C46 C48 1.406 . S
C46 C51 1.261 . S
C47 H14 0.930 . S
C47 N49 1.325 . S
C47 C50 1.357 . S
C48 H16 0.928 . S
C48 C46 1.406 . S
C48 N49 1.261 . S
N49 Co0 2.214 . S
N49 C47 1.325 . S
N49 C48 1.261 . S
C50 H20 0.931 . S
C50 C47 1.357 . S
C50 C51 1.312 . S
C51 H22 0.930 . S
C51 C46 1.261 . S
C51 C50 1.312 . S
C52 O24 1.214 . S
C52 O32 1.234 . S
C53 H25 0.929 . S
C53 C56 1.391 . S
C53 C58 1.391 . S
C54 H26 0.929 . S
C54 C55 1.390 . S
C54 N57 1.391 . S
C55 H27 0.930 . S
C55 C54 1.390 . S
C55 C56 1.392 . S
C56 H28 0.929 . S
C56 C53 1.391 . S
C56 C55 1.392 . S
N57 Co1 2.257 . S
N57 C54 1.391 . S
N57 C58 1.388 . S
C58 H29 0.930 . S
C58 C53 1.391 . S
C58 N57 1.388 . S
Co59 O61 2.143 . S
Co59 O67 2.074 . S
Co59 O70 2.093 . S
Co59 O83 2.097 . S
Co59 N100 2.151 . S
Co59 N108 2.214 . S
Co60 O61 2.160 . S
Co60 O66 2.058 . S
Co60 O76 2.057 . S
Co60 O91 2.037 . S
Co60 N95 2.145 . S
Co60 N116 2.257 . S
O61 Co59 2.143 . S
O61 Co60 2.160 . S
C62 O63 1.278 . S
C62 O70 1.224 . S
O63 C62 1.278 . S
C64 O65 1.245 . S
C64 O76 1.232 . S
O65 C64 1.245 . S
O66 Co60 2.058 . S
O66 C92 1.269 . S
O67 Co59 2.074 . S
O67 C92 1.257 . S
H68 C93 0.930 . S
H69 C99 0.930 . S
O70 Co59 2.093 . S
O70 C62 1.224 . S
H71 C103 0.929 1_455 S
H72 C105 0.930 . S
H73 C106 0.930 . S
H74 C104 0.929 . S
H75 C107 0.928 . S
O76 Co60 2.057 . S
O76 C64 1.232 . S
H77 C96 0.929 . S
H78 C97 0.929 . S
H79 C109 0.931 . S
H80 C101 0.929 . S
H81 C110 0.930 . S
H82 C102 0.931 1_455 S
O83 Co59 2.097 . S
O83 C111 1.214 . S
H84 C112 0.929 . S
H85 C113 0.929 . S
H86 C114 0.930 . S
H87 C115 0.929 . S
H88 C117 0.930 . S
H89 C94 0.930 . S
H90 C98 0.930 . S
O91 Co60 2.037 . S
O91 C111 1.234 . S
C92 O66 1.269 . S
C92 O67 1.257 . S
C93 H68 0.930 . S
C93 C96 1.388 . S
C93 C98 1.418 . S
C94 H89 0.930 . S
C94 C97 1.404 . S
C94 C98 1.353 . S
N95 Co60 2.145 . S
N95 C96 1.397 . S
N95 C97 1.334 . S
C96 H77 0.929 . S
C96 C93 1.388 . S
C96 N95 1.397 . S
C97 H78 0.929 . S
C97 C94 1.404 . S
C97 N95 1.334 . S
C98 H90 0.930 . S
C98 C93 1.418 . S
C98 C94 1.353 . S
C99 H69 0.930 . S
C99 N100 1.330 . S
C99 C101 1.446 . S
N100 Co59 2.151 . S
N100 C99 1.330 . S
N100 C104 1.418 . S
C101 H80 0.929 . S
C101 C99 1.446 . S
C101 C102 1.332 . S
C102 H82 0.931 1_655 S
C102 C101 1.332 . S
C102 C103 1.267 . S
C103 H71 0.929 1_655 S
C103 C102 1.267 . S
C103 C104 1.251 . S
C104 H74 0.929 . S
C104 N100 1.418 . S
C104 C103 1.251 . S
C105 H72 0.930 . S
C105 C107 1.406 . S
C105 C110 1.261 . S
C106 H73 0.930 . S
C106 N108 1.325 . S
C106 C109 1.357 . S
C107 H75 0.928 . S
C107 C105 1.406 . S
C107 N108 1.261 . S
N108 Co59 2.214 . S
N108 C106 1.325 . S
N108 C107 1.261 . S
C109 H79 0.931 . S
C109 C106 1.357 . S
C109 C110 1.312 . S
C110 H81 0.930 . S
C110 C105 1.261 . S
C110 C109 1.312 . S
C111 O83 1.214 . S
C111 O91 1.234 . S
C112 H84 0.929 . S
C112 C115 1.391 . S
C112 C117 1.391 . S
C113 H85 0.929 . S
C113 C114 1.390 . S
C113 N116 1.391 . S
C114 H86 0.930 . S
C114 C113 1.390 . S
C114 C115 1.392 . S
C115 H87 0.929 . S
C115 C112 1.391 . S
C115 C114 1.392 . S
N116 Co60 2.257 . S
N116 C113 1.391 . S
N116 C117 1.388 . S
C117 H88 0.930 . S
C117 C112 1.391 . S
C117 N116 1.388 . S
Co118 O120 2.143 . S
Co118 O126 2.074 . S
Co118 O129 2.093 . S
Co118 O142 2.097 . S
Co118 N159 2.151 . S
Co118 N167 2.214 . S
Co119 O120 2.160 . S
Co119 O125 2.058 . S
Co119 O135 2.057 . S
Co119 O150 2.037 . S
Co119 N154 2.145 . S
Co119 N175 2.257 . S
O120 Co118 2.143 . S
O120 Co119 2.160 . S
C121 O122 1.278 . S
C121 O129 1.224 . S
O122 C121 1.278 . S
C123 O124 1.245 . S
C123 O135 1.232 . S
O124 C123 1.245 . S
O125 Co119 2.058 . S
O125 C151 1.269 . S
O126 Co118 2.074 . S
O126 C151 1.257 . S
H127 C152 0.930 . S
H128 C158 0.930 . S
O129 Co118 2.093 . S
O129 C121 1.224 . S
H130 C162 0.929 1_655 S
H131 C164 0.930 . S
H132 C165 0.930 . S
H133 C163 0.929 . S
H134 C166 0.928 . S
O135 Co119 2.057 . S
O135 C123 1.232 . S
H136 C155 0.929 . S
H137 C156 0.929 . S
H138 C168 0.931 . S
H139 C160 0.929 . S
H140 C169 0.930 . S
H141 C161 0.931 . S
O142 Co118 2.097 . S
O142 C170 1.214 . S
H143 C171 0.929 . S
H144 C172 0.929 . S
H145 C173 0.930 . S
H146 C174 0.929 . S
H147 C176 0.930 . S
H148 C153 0.930 . S
H149 C157 0.930 . S
O150 Co119 2.037 . S
O150 C170 1.234 . S
C151 O125 1.269 . S
C151 O126 1.257 . S
C152 H127 0.930 . S
C152 C155 1.388 . S
C152 C157 1.418 . S
C153 H148 0.930 . S
C153 C156 1.404 . S
C153 C157 1.353 . S
N154 Co119 2.145 . S
N154 C155 1.397 . S
N154 C156 1.334 . S
C155 H136 0.929 . S
C155 C152 1.388 . S
C155 N154 1.397 . S
C156 H137 0.929 . S
C156 C153 1.404 . S
C156 N154 1.334 . S
C157 H149 0.930 . S
C157 C152 1.418 . S
C157 C153 1.353 . S
C158 H128 0.930 . S
C158 N159 1.330 . S
C158 C160 1.446 . S
N159 Co118 2.151 . S
N159 C158 1.330 . S
N159 C163 1.418 . S
C160 H139 0.929 . S
C160 C158 1.446 . S
C160 C161 1.332 . S
C161 H141 0.931 . S
C161 C160 1.332 . S
C161 C162 1.267 . S
C162 H130 0.929 1_455 S
C162 C161 1.267 . S
C162 C163 1.251 . S
C163 H133 0.929 . S
C163 N159 1.418 . S
C163 C162 1.251 . S
C164 H131 0.930 . S
C164 C166 1.406 . S
C164 C169 1.261 . S
C165 H132 0.930 . S
C165 N167 1.325 . S
C165 C168 1.357 . S
C166 H134 0.928 . S
C166 C164 1.406 . S
C166 N167 1.261 . S
N167 Co118 2.214 . S
N167 C165 1.325 . S
N167 C166 1.261 . S
C168 H138 0.931 . S
C168 C165 1.357 . S
C168 C169 1.312 . S
C169 H140 0.930 . S
C169 C164 1.261 . S
C169 C168 1.312 . S
C170 O142 1.214 . S
C170 O150 1.234 . S
C171 H143 0.929 . S
C171 C174 1.391 . S
C171 C176 1.391 . S
C172 H144 0.929 . S
C172 C173 1.390 . S
C172 N175 1.391 . S
C173 H145 0.930 . S
C173 C172 1.390 . S
C173 C174 1.392 . S
C174 H146 0.929 . S
C174 C171 1.391 . S
C174 C173 1.392 . S
N175 Co119 2.257 . S
N175 C172 1.391 . S
N175 C176 1.388 . S
C176 H147 0.930 . S
C176 C171 1.391 . S
C176 N175 1.388 . S
Co177 O179 2.143 . S
Co177 O185 2.074 . S
Co177 O188 2.093 . S
Co177 O201 2.097 . S
Co177 N218 2.151 . S
Co177 N226 2.214 . S
Co178 O179 2.160 . S
Co178 O184 2.058 . S
Co178 O194 2.057 . S
Co178 O209 2.037 . S
Co178 N213 2.145 . S
Co178 N234 2.257 . S
O179 Co177 2.143 . S
O179 Co178 2.160 . S
C180 O181 1.278 . S
C180 O188 1.224 . S
O181 C180 1.278 . S
C182 O183 1.245 . S
C182 O194 1.232 . S
O183 C182 1.245 . S
O184 Co178 2.058 . S
O184 C210 1.269 . S
O185 Co177 2.074 . S
O185 C210 1.257 . S
H186 C211 0.930 . S
H187 C217 0.930 . S
O188 Co177 2.093 . S
O188 C180 1.224 . S
H189 C221 0.929 1_455 S
H190 C223 0.930 . S
H191 C224 0.930 . S
H192 C222 0.929 . S
H193 C225 0.928 . S
O194 Co178 2.057 . S
O194 C182 1.232 . S
H195 C214 0.929 . S
H196 C215 0.929 . S
H197 C227 0.931 . S
H198 C219 0.929 . S
H199 C228 0.930 . S
H200 C220 0.931 . S
O201 Co177 2.097 . S
O201 C229 1.214 . S
H202 C230 0.929 . S
H203 C231 0.929 . S
H204 C232 0.930 . S
H205 C233 0.929 . S
H206 C235 0.930 . S
H207 C212 0.930 . S
H208 C216 0.930 . S
O209 Co178 2.037 . S
O209 C229 1.234 . S
C210 O184 1.269 . S
C210 O185 1.257 . S
C211 H186 0.930 . S
C211 C214 1.388 . S
C211 C216 1.418 . S
C212 H207 0.930 . S
C212 C215 1.404 . S
C212 C216 1.353 . S
N213 Co178 2.145 . S
N213 C214 1.397 . S
N213 C215 1.334 . S
C214 H195 0.929 . S
C214 C211 1.388 . S
C214 N213 1.397 . S
C215 H196 0.929 . S
C215 C212 1.404 . S
C215 N213 1.334 . S
C216 H208 0.930 . S
C216 C211 1.418 . S
C216 C212 1.353 . S
C217 H187 0.930 . S
C217 N218 1.330 . S
C217 C219 1.446 . S
N218 Co177 2.151 . S
N218 C217 1.330 . S
N218 C222 1.418 . S
C219 H198 0.929 . S
C219 C217 1.446 . S
C219 C220 1.332 . S
C220 H200 0.931 . S
C220 C219 1.332 . S
C220 C221 1.267 . S
C221 H189 0.929 1_655 S
C221 C220 1.267 . S
C221 C222 1.251 . S
C222 H192 0.929 . S
C222 N218 1.418 . S
C222 C221 1.251 . S
C223 H190 0.930 . S
C223 C225 1.406 . S
C223 C228 1.261 . S
C224 H191 0.930 . S
C224 N226 1.325 . S
C224 C227 1.357 . S
C225 H193 0.928 . S
C225 C223 1.406 . S
C225 N226 1.261 . S
N226 Co177 2.214 . S
N226 C224 1.325 . S
N226 C225 1.261 . S
C227 H197 0.931 . S
C227 C224 1.357 . S
C227 C228 1.312 . S
C228 H199 0.930 . S
C228 C223 1.261 . S
C228 C227 1.312 . S
C229 O201 1.214 . S
C229 O209 1.234 . S
C230 H202 0.929 . S
C230 C233 1.391 . S
C230 C235 1.391 . S
C231 H203 0.929 . S
C231 C232 1.390 . S
C231 N234 1.391 . S
C232 H204 0.930 . S
C232 C231 1.390 . S
C232 C233 1.392 . S
C233 H205 0.929 . S
C233 C230 1.391 . S
C233 C232 1.392 . S
N234 Co178 2.257 . S
N234 C231 1.391 . S
N234 C235 1.388 . S
C235 H206 0.930 . S
C235 C230 1.391 . S
C235 N234 1.388 . S
Co236 O238 2.143 . S
Co236 O244 2.074 . S
Co236 O247 2.093 . S
Co236 O260 2.097 . S
Co236 N277 2.151 . S
Co236 N285 2.214 . S
Co237 O238 2.160 . S
Co237 O243 2.058 . S
Co237 O253 2.057 . S
Co237 O268 2.037 . S
Co237 N272 2.145 . S
Co237 N293 2.257 . S
O238 Co236 2.143 . S
O238 Co237 2.160 . S
C239 O240 1.278 . S
C239 O247 1.224 . S
O240 C239 1.278 . S
C241 O242 1.245 . S
C241 O253 1.232 . S
O242 C241 1.245 . S
O243 Co237 2.058 . S
O243 C269 1.269 . S
O244 Co236 2.074 . S
O244 C269 1.257 . S
H245 C270 0.930 . S
H246 C276 0.930 . S
O247 Co236 2.093 . S
O247 C239 1.224 . S
H248 C280 0.929 . S
H249 C282 0.930 . S
H250 C283 0.930 . S
H251 C281 0.929 . S
H252 C284 0.928 . S
O253 Co237 2.057 . S
O253 C241 1.232 . S
H254 C273 0.929 . S
H255 C274 0.929 . S
H256 C286 0.931 . S
H257 C278 0.929 . S
H258 C287 0.930 . S
H259 C279 0.931 . S
O260 Co236 2.097 . S
O260 C288 1.214 . S
H261 C289 0.929 . S
H262 C290 0.929 . S
H263 C291 0.930 . S
H264 C292 0.929 . S
H265 C294 0.930 . S
H266 C271 0.930 . S
H267 C275 0.930 . S
O268 Co237 2.037 . S
O268 C288 1.234 . S
C269 O243 1.269 . S
C269 O244 1.257 . S
C270 H245 0.930 . S
C270 C273 1.388 . S
C270 C275 1.418 . S
C271 H266 0.930 . S
C271 C274 1.404 . S
C271 C275 1.353 . S
N272 Co237 2.145 . S
N272 C273 1.397 . S
N272 C274 1.334 . S
C273 H254 0.929 . S
C273 C270 1.388 . S
C273 N272 1.397 . S
C274 H255 0.929 . S
C274 C271 1.404 . S
C274 N272 1.334 . S
C275 H267 0.930 . S
C275 C270 1.418 . S
C275 C271 1.353 . S
C276 H246 0.930 . S
C276 N277 1.330 . S
C276 C278 1.446 . S
N277 Co236 2.151 . S
N277 C276 1.330 . S
N277 C281 1.418 . S
C278 H257 0.929 . S
C278 C276 1.446 . S
C278 C279 1.332 . S
C279 H259 0.931 . S
C279 C278 1.332 . S
C279 C280 1.267 . S
C280 H248 0.929 . S
C280 C279 1.267 . S
C280 C281 1.251 . S
C281 H251 0.929 . S
C281 N277 1.418 . S
C281 C280 1.251 . S
C282 H249 0.930 . S
C282 C284 1.406 . S
C282 C287 1.261 . S
C283 H250 0.930 . S
C283 N285 1.325 . S
C283 C286 1.357 . S
C284 H252 0.928 . S
C284 C282 1.406 . S
C284 N285 1.261 . S
N285 Co236 2.214 . S
N285 C283 1.325 . S
N285 C284 1.261 . S
C286 H256 0.931 . S
C286 C283 1.357 . S
C286 C287 1.312 . S
C287 H258 0.930 . S
C287 C282 1.261 . S
C287 C286 1.312 . S
C288 O260 1.214 . S
C288 O268 1.234 . S
C289 H261 0.929 . S
C289 C292 1.391 . S
C289 C294 1.391 . S
C290 H262 0.929 . S
C290 C291 1.390 . S
C290 N293 1.391 . S
C291 H263 0.930 . S
C291 C290 1.390 . S
C291 C292 1.392 . S
C292 H264 0.929 . S
C292 C289 1.391 . S
C292 C291 1.392 . S
N293 Co237 2.257 . S
N293 C290 1.391 . S
N293 C294 1.388 . S
C294 H265 0.930 . S
C294 C289 1.391 . S
C294 N293 1.388 . S
Co295 O297 2.143 . S
Co295 O303 2.074 . S
Co295 O306 2.093 . S
Co295 O319 2.097 . S
Co295 N336 2.151 . S
Co295 N344 2.214 . S
Co296 O297 2.160 . S
Co296 O302 2.058 . S
Co296 O312 2.057 . S
Co296 O327 2.037 . S
Co296 N331 2.145 . S
Co296 N352 2.257 . S
O297 Co295 2.143 . S
O297 Co296 2.160 . S
C298 O299 1.278 . S
C298 O306 1.224 . S
O299 C298 1.278 . S
C300 O301 1.245 . S
C300 O312 1.232 . S
O301 C300 1.245 . S
O302 Co296 2.058 . S
O302 C328 1.269 . S
O303 Co295 2.074 . S
O303 C328 1.257 . S
H304 C329 0.930 . S
H305 C335 0.930 . S
O306 Co295 2.093 . S
O306 C298 1.224 . S
H307 C339 0.929 . S
H308 C341 0.930 . S
H309 C342 0.930 . S
H310 C340 0.929 . S
H311 C343 0.911 1_455 S
O312 Co296 2.057 . S
O312 C300 1.232 . S
H313 C332 0.929 . S
H314 C333 0.929 . S
H315 C345 0.931 . S
H316 C337 0.929 . S
H317 C346 0.930 . S
H318 C338 0.931 . S
O319 Co295 2.097 . S
O319 C347 1.214 . S
H320 C348 0.929 . S
H321 C349 0.929 . S
H322 C350 0.930 . S
H323 C351 0.929 . S
H324 C353 0.930 . S
H325 C330 0.930 . S
H326 C334 0.930 . S
O327 Co296 2.037 . S
O327 C347 1.234 . S
C328 O302 1.269 . S
C328 O303 1.257 . S
C329 H304 0.930 . S
C329 C332 1.388 . S
C329 C334 1.418 . S
C330 H325 0.930 . S
C330 C333 1.404 . S
C330 C334 1.353 . S
N331 Co296 2.145 . S
N331 C332 1.397 . S
N331 C333 1.334 . S
C332 H313 0.929 . S
C332 C329 1.388 . S
C332 N331 1.397 . S
C333 H314 0.929 . S
C333 C330 1.404 . S
C333 N331 1.334 . S
C334 H326 0.930 . S
C334 C329 1.418 . S
C334 C330 1.353 . S
C335 H305 0.930 . S
C335 N336 1.330 . S
C335 C337 1.446 1_655 S
N336 Co295 2.151 . S
N336 C335 1.330 . S
N336 C340 1.418 . S
C337 H316 0.929 . S
C337 C335 1.446 1_455 S
C337 C338 1.332 . S
C338 H318 0.931 . S
C338 C337 1.332 . S
C338 C339 1.267 . S
C339 H307 0.929 . S
C339 C338 1.267 . S
C339 C340 1.251 1_455 S
C340 H310 0.929 . S
C340 N336 1.418 . S
C340 C339 1.251 1_655 S
C341 H308 0.930 . S
C341 C343 1.406 1_455 S
C341 C346 1.261 1_455 S
C342 H309 0.930 . S
C342 N344 1.325 . S
C342 C345 1.357 . S
C343 H311 0.911 1_655 S
C343 C341 1.406 1_655 S
C343 N344 1.261 . S
N344 Co295 2.214 . S
N344 C342 1.325 . S
N344 C343 1.261 . S
C345 H315 0.931 . S
C345 C342 1.357 . S
C345 C346 1.312 . S
C346 H317 0.930 . S
C346 C341 1.261 1_655 S
C346 C345 1.312 . S
C347 O319 1.214 . S
C347 O327 1.234 . S
C348 H320 0.929 . S
C348 C351 1.391 . S
C348 C353 1.391 . S
C349 H321 0.929 . S
C349 C350 1.390 . S
C349 N352 1.391 . S
C350 H322 0.930 . S
C350 C349 1.390 . S
C350 C351 1.392 . S
C351 H323 0.929 . S
C351 C348 1.391 . S
C351 C350 1.392 . S
N352 Co296 2.257 . S
N352 C349 1.391 . S
N352 C353 1.388 . S
C353 H324 0.930 . S
C353 C348 1.391 . S
C353 N352 1.388 . S
Co354 O356 2.143 . S
Co354 O362 2.074 . S
Co354 O365 2.093 . S
Co354 O378 2.097 . S
Co354 N395 2.151 . S
Co354 N403 2.214 . S
Co355 O356 2.160 . S
Co355 O361 2.058 . S
Co355 O371 2.057 . S
Co355 O386 2.037 . S
Co355 N390 2.145 . S
Co355 N411 2.257 . S
O356 Co354 2.143 . S
O356 Co355 2.160 . S
C357 O358 1.278 . S
C357 O365 1.224 . S
O358 C357 1.278 . S
C359 O360 1.245 . S
C359 O371 1.232 . S
O360 C359 1.245 . S
O361 Co355 2.058 . S
O361 C387 1.269 . S
O362 Co354 2.074 . S
O362 C387 1.257 . S
H363 C388 0.930 . S
H364 C394 0.930 . S
O365 Co354 2.093 . S
O365 C357 1.224 . S
H366 C398 0.929 . S
H367 C400 0.930 . S
H368 C401 0.930 . S
H369 C399 0.929 . S
H370 C402 0.911 1_655 S
O371 Co355 2.057 . S
O371 C359 1.232 . S
H372 C391 0.929 . S
H373 C392 0.929 . S
H374 C404 0.931 . S
H375 C396 0.929 . S
H376 C405 0.930 . S
H377 C397 0.931 . S
O378 Co354 2.097 . S
O378 C406 1.214 . S
H379 C407 0.929 . S
H380 C408 0.929 . S
H381 C409 0.930 . S
H382 C410 0.929 . S
H383 C412 0.930 . S
H384 C389 0.930 . S
H385 C393 0.930 . S
O386 Co355 2.037 . S
O386 C406 1.234 . S
C387 O361 1.269 . S
C387 O362 1.257 . S
C388 H363 0.930 . S
C388 C391 1.388 . S
C388 C393 1.418 . S
C389 H384 0.930 . S
C389 C392 1.404 . S
C389 C393 1.353 . S
N390 Co355 2.145 . S
N390 C391 1.397 . S
N390 C392 1.334 . S
C391 H372 0.929 . S
C391 C388 1.388 . S
C391 N390 1.397 . S
C392 H373 0.929 . S
C392 C389 1.404 . S
C392 N390 1.334 . S
C393 H385 0.930 . S
C393 C388 1.418 . S
C393 C389 1.353 . S
C394 H364 0.930 . S
C394 N395 1.330 . S
C394 C396 1.446 1_455 S
N395 Co354 2.151 . S
N395 C394 1.330 . S
N395 C399 1.418 . S
C396 H375 0.929 . S
C396 C394 1.446 1_655 S
C396 C397 1.332 . S
C397 H377 0.931 . S
C397 C396 1.332 . S
C397 C398 1.267 . S
C398 H366 0.929 . S
C398 C397 1.267 . S
C398 C399 1.251 1_655 S
C399 H369 0.929 . S
C399 N395 1.418 . S
C399 C398 1.251 1_455 S
C400 H367 0.930 . S
C400 C402 1.406 1_655 S
C400 C405 1.261 1_655 S
C401 H368 0.930 . S
C401 N403 1.325 . S
C401 C404 1.357 . S
C402 H370 0.911 1_455 S
C402 C400 1.406 1_455 S
C402 N403 1.261 . S
N403 Co354 2.214 . S
N403 C401 1.325 . S
N403 C402 1.261 . S
C404 H374 0.931 . S
C404 C401 1.357 . S
C404 C405 1.312 . S
C405 H376 0.930 . S
C405 C400 1.261 1_455 S
C405 C404 1.312 . S
C406 O378 1.214 . S
C406 O386 1.234 . S
C407 H379 0.929 . S
C407 C410 1.391 . S
C407 C412 1.391 . S
C408 H380 0.929 . S
C408 C409 1.390 . S
C408 N411 1.391 . S
C409 H381 0.930 . S
C409 C408 1.390 . S
C409 C410 1.392 . S
C410 H382 0.929 . S
C410 C407 1.391 . S
C410 C409 1.392 . S
N411 Co355 2.257 . S
N411 C408 1.391 . S
N411 C412 1.388 . S
C412 H383 0.930 . S
C412 C407 1.391 . S
C412 N411 1.388 . S
Co413 O415 2.143 . S
Co413 O421 2.074 . S
Co413 O424 2.093 . S
Co413 O437 2.097 . S
Co413 N454 2.151 . S
Co413 N462 2.214 . S
Co414 O415 2.160 . S
Co414 O420 2.058 . S
Co414 O430 2.057 . S
Co414 O445 2.037 . S
Co414 N449 2.145 . S
Co414 N470 2.257 . S
O415 Co413 2.143 . S
O415 Co414 2.160 . S
C416 O417 1.278 . S
C416 O424 1.224 . S
O417 C416 1.278 . S
C418 O419 1.245 . S
C418 O430 1.232 . S
O419 C418 1.245 . S
O420 Co414 2.058 . S
O420 C446 1.269 . S
O421 Co413 2.074 . S
O421 C446 1.257 . S
H422 C447 0.930 . S
H423 C453 0.930 . S
O424 Co413 2.093 . S
O424 C416 1.224 . S
H425 C457 0.929 . S
H426 C459 0.930 . S
H427 C460 0.930 . S
H428 C458 0.929 . S
H429 C461 0.928 . S
O430 Co414 2.057 . S
O430 C418 1.232 . S
H431 C450 0.929 . S
H432 C451 0.929 . S
H433 C463 0.931 . S
H434 C455 0.929 . S
H435 C464 0.930 . S
H436 C456 0.931 . S
O437 Co413 2.097 . S
O437 C465 1.214 . S
H438 C466 0.929 . S
H439 C467 0.929 . S
H440 C468 0.930 . S
H441 C469 0.929 . S
H442 C471 0.930 . S
H443 C448 0.930 . S
H444 C452 0.930 . S
O445 Co414 2.037 . S
O445 C465 1.234 . S
C446 O420 1.269 . S
C446 O421 1.257 . S
C447 H422 0.930 . S
C447 C450 1.388 . S
C447 C452 1.418 . S
C448 H443 0.930 . S
C448 C451 1.404 . S
C448 C452 1.353 . S
N449 Co414 2.145 . S
N449 C450 1.397 . S
N449 C451 1.334 . S
C450 H431 0.929 . S
C450 C447 1.388 . S
C450 N449 1.397 . S
C451 H432 0.929 . S
C451 C448 1.404 . S
C451 N449 1.334 . S
C452 H444 0.930 . S
C452 C447 1.418 . S
C452 C448 1.353 . S
C453 H423 0.930 . S
C453 N454 1.330 . S
C453 C455 1.446 . S
N454 Co413 2.151 . S
N454 C453 1.330 . S
N454 C458 1.418 . S
C455 H434 0.929 . S
C455 C453 1.446 . S
C455 C456 1.332 . S
C456 H436 0.931 . S
C456 C455 1.332 . S
C456 C457 1.267 . S
C457 H425 0.929 . S
C457 C456 1.267 . S
C457 C458 1.251 . S
C458 H428 0.929 . S
C458 N454 1.418 . S
C458 C457 1.251 . S
C459 H426 0.930 . S
C459 C461 1.406 . S
C459 C464 1.261 . S
C460 H427 0.930 . S
C460 N462 1.325 . S
C460 C463 1.357 . S
C461 H429 0.928 . S
C461 C459 1.406 . S
C461 N462 1.261 . S
N462 Co413 2.214 . S
N462 C460 1.325 . S
N462 C461 1.261 . S
C463 H433 0.931 . S
C463 C460 1.357 . S
C463 C464 1.312 . S
C464 H435 0.930 . S
C464 C459 1.261 . S
C464 C463 1.312 . S
C465 O437 1.214 . S
C465 O445 1.234 . S
C466 H438 0.929 . S
C466 C469 1.391 . S
C466 C471 1.391 . S
C467 H439 0.929 . S
C467 C468 1.390 . S
C467 N470 1.391 . S
C468 H440 0.930 . S
C468 C467 1.390 . S
C468 C469 1.392 . S
C469 H441 0.929 . S
C469 C466 1.391 . S
C469 C468 1.392 . S
N470 Co414 2.257 . S
N470 C467 1.391 . S
N470 C471 1.388 . S
C471 H442 0.930 . S
C471 C466 1.391 . S
C471 N470 1.388 . S
Co472 O474 2.143 . S
Co472 O480 2.074 . S
Co472 O483 2.093 . S
Co472 O496 2.097 . S
Co472 N513 2.151 . S
Co472 N521 2.214 . S
Co473 O474 2.160 . S
Co473 O479 2.058 . S
Co473 O489 2.057 . S
Co473 O504 2.037 . S
Co473 N508 2.145 . S
Co473 N529 2.257 . S
O474 Co472 2.143 . S
O474 Co473 2.160 . S
C475 O476 1.278 . S
C475 O483 1.224 . S
O476 C475 1.278 . S
C477 O478 1.245 . S
C477 O489 1.232 . S
O478 C477 1.245 . S
O479 Co473 2.058 . S
O479 C505 1.269 . S
O480 Co472 2.074 . S
O480 C505 1.257 . S
H481 C506 0.930 . S
H482 C512 0.930 . S
O483 Co472 2.093 . S
O483 C475 1.224 . S
H484 C516 0.929 . S
H485 C518 0.930 . S
H486 C519 0.930 . S
H487 C517 0.929 . S
H488 C520 0.928 . S
O489 Co473 2.057 . S
O489 C477 1.232 . S
H490 C509 0.929 . S
H491 C510 0.929 . S
H492 C522 0.931 . S
H493 C514 0.929 . S
H494 C523 0.930 . S
H495 C515 0.931 . S
O496 Co472 2.097 . S
O496 C524 1.214 . S
H497 C525 0.929 . S
H498 C526 0.929 . S
H499 C527 0.930 . S
H500 C528 0.929 . S
H501 C530 0.930 . S
H502 C507 0.930 . S
H503 C511 0.930 . S
O504 Co473 2.037 . S
O504 C524 1.234 . S
C505 O479 1.269 . S
C505 O480 1.257 . S
C506 H481 0.930 . S
C506 C509 1.388 . S
C506 C511 1.418 . S
C507 H502 0.930 . S
C507 C510 1.404 . S
C507 C511 1.353 . S
N508 Co473 2.145 . S
N508 C509 1.397 . S
N508 C510 1.334 . S
C509 H490 0.929 . S
C509 C506 1.388 . S
C509 N508 1.397 . S
C510 H491 0.929 . S
C510 C507 1.404 . S
C510 N508 1.334 . S
C511 H503 0.930 . S
C511 C506 1.418 . S
C511 C507 1.353 . S
C512 H482 0.930 . S
C512 N513 1.330 . S
C512 C514 1.446 . S
N513 Co472 2.151 . S
N513 C512 1.330 . S
N513 C517 1.418 . S
C514 H493 0.929 . S
C514 C512 1.446 . S
C514 C515 1.332 . S
C515 H495 0.931 . S
C515 C514 1.332 . S
C515 C516 1.267 . S
C516 H484 0.929 . S
C516 C515 1.267 . S
C516 C517 1.251 . S
C517 H487 0.929 . S
C517 N513 1.418 . S
C517 C516 1.251 . S
C518 H485 0.930 . S
C518 C520 1.406 . S
C518 C523 1.261 . S
C519 H486 0.930 . S
C519 N521 1.325 . S
C519 C522 1.357 . S
C520 H488 0.928 . S
C520 C518 1.406 . S
C520 N521 1.261 . S
N521 Co472 2.214 . S
N521 C519 1.325 . S
N521 C520 1.261 . S
C522 H492 0.931 . S
C522 C519 1.357 . S
C522 C523 1.312 . S
C523 H494 0.930 . S
C523 C518 1.261 . S
C523 C522 1.312 . S
C524 O496 1.214 . S
C524 O504 1.234 . S
C525 H497 0.929 . S
C525 C528 1.391 . S
C525 C530 1.391 . S
C526 H498 0.929 . S
C526 C527 1.390 . S
C526 N529 1.391 . S
C527 H499 0.930 . S
C527 C526 1.390 . S
C527 C528 1.392 . S
C528 H500 0.929 . S
C528 C525 1.391 . S
C528 C527 1.392 . S
N529 Co473 2.257 . S
N529 C526 1.391 . S
N529 C530 1.388 . S
C530 H501 0.930 . S
C530 C525 1.391 . S
C530 N529 1.388 . S
Co531 O533 2.143 . S
Co531 O539 2.074 . S
Co531 O542 2.093 . S
Co531 O555 2.097 . S
Co531 N572 2.151 . S
Co531 N580 2.214 . S
Co532 O533 2.160 . S
Co532 O538 2.058 . S
Co532 O548 2.057 . S
Co532 O563 2.037 . S
Co532 N567 2.145 . S
Co532 N588 2.257 . S
O533 Co531 2.143 . S
O533 Co532 2.160 . S
C534 O535 1.278 . S
C534 O542 1.224 . S
O535 C534 1.278 . S
C536 O537 1.245 . S
C536 O548 1.232 . S
O537 C536 1.245 . S
O538 Co532 2.058 . S
O538 C564 1.269 . S
O539 Co531 2.074 . S
O539 C564 1.257 . S
H540 C565 0.930 . S
H541 C571 0.930 . S
O542 Co531 2.093 . S
O542 C534 1.224 . S
H543 C575 0.929 . S
H544 C577 0.930 . S
H545 C578 0.930 . S
H546 C576 0.929 . S
H547 C579 0.928 . S
O548 Co532 2.057 . S
O548 C536 1.232 . S
H549 C568 0.929 . S
H550 C569 0.929 . S
H551 C581 0.931 . S
H552 C573 0.929 . S
H553 C582 0.930 . S
H554 C574 0.931 . S
O555 Co531 2.097 . S
O555 C583 1.214 . S
H556 C584 0.929 . S
H557 C585 0.929 . S
H558 C586 0.930 . S
H559 C587 0.929 . S
H560 C589 0.930 . S
H561 C566 0.930 . S
H562 C570 0.930 . S
O563 Co532 2.037 . S
O563 C583 1.234 . S
C564 O538 1.269 . S
C564 O539 1.257 . S
C565 H540 0.930 . S
C565 C568 1.388 . S
C565 C570 1.418 . S
C566 H561 0.930 . S
C566 C569 1.404 . S
C566 C570 1.353 . S
N567 Co532 2.145 . S
N567 C568 1.397 . S
N567 C569 1.334 . S
C568 H549 0.929 . S
C568 C565 1.388 . S
C568 N567 1.397 . S
C569 H550 0.929 . S
C569 C566 1.404 . S
C569 N567 1.334 . S
C570 H562 0.930 . S
C570 C565 1.418 . S
C570 C566 1.353 . S
C571 H541 0.930 . S
C571 N572 1.330 . S
C571 C573 1.446 . S
N572 Co531 2.151 . S
N572 C571 1.330 . S
N572 C576 1.418 . S
C573 H552 0.929 . S
C573 C571 1.446 . S
C573 C574 1.332 . S
C574 H554 0.931 . S
C574 C573 1.332 . S
C574 C575 1.267 . S
C575 H543 0.929 . S
C575 C574 1.267 . S
C575 C576 1.251 . S
C576 H546 0.929 . S
C576 N572 1.418 . S
C576 C575 1.251 . S
C577 H544 0.930 . S
C577 C579 1.406 . S
C577 C582 1.261 . S
C578 H545 0.930 . S
C578 N580 1.325 . S
C578 C581 1.357 . S
C579 H547 0.928 . S
C579 C577 1.406 . S
C579 N580 1.261 . S
N580 Co531 2.214 . S
N580 C578 1.325 . S
N580 C579 1.261 . S
C581 H551 0.931 . S
C581 C578 1.357 . S
C581 C582 1.312 . S
C582 H553 0.930 . S
C582 C577 1.261 . S
C582 C581 1.312 . S
C583 O555 1.214 . S
C583 O563 1.234 . S
C584 H556 0.929 . S
C584 C587 1.391 . S
C584 C589 1.391 . S
C585 H557 0.929 . S
C585 C586 1.390 . S
C585 N588 1.391 . S
C586 H558 0.930 . S
C586 C585 1.390 . S
C586 C587 1.392 . S
C587 H559 0.929 . S
C587 C584 1.391 . S
C587 C586 1.392 . S
N588 Co532 2.257 . S
N588 C585 1.391 . S
N588 C589 1.388 . S
C589 H560 0.930 . S
C589 C584 1.391 . S
C589 N588 1.388 . S
Co590 O592 2.143 . S
Co590 O598 2.074 . S
Co590 O601 2.093 . S
Co590 O614 2.097 . S
Co590 N631 2.151 . S
Co590 N639 2.214 . S
Co591 O592 2.160 . S
Co591 O597 2.058 . S
Co591 O607 2.057 . S
Co591 O622 2.037 . S
Co591 N626 2.145 . S
Co591 N647 2.257 . S
O592 Co590 2.143 . S
O592 Co591 2.160 . S
C593 O594 1.278 . S
C593 O601 1.224 . S
O594 C593 1.278 . S
C595 O596 1.245 . S
C595 O607 1.232 . S
O596 C595 1.245 . S
O597 Co591 2.058 . S
O597 C623 1.269 . S
O598 Co590 2.074 . S
O598 C623 1.257 . S
H599 C624 0.930 . S
H600 C630 0.930 . S
O601 Co590 2.093 . S
O601 C593 1.224 . S
H602 C634 0.929 . S
H603 C636 0.930 . S
H604 C637 0.930 . S
H605 C635 0.929 . S
H606 C638 0.928 . S
O607 Co591 2.057 . S
O607 C595 1.232 . S
H608 C627 0.929 . S
H609 C628 0.929 . S
H610 C640 0.931 . S
H611 C632 0.929 . S
H612 C641 0.930 . S
H613 C633 0.931 . S
O614 Co590 2.097 . S
O614 C642 1.214 . S
H615 C643 0.929 . S
H616 C644 0.929 . S
H617 C645 0.930 . S
H618 C646 0.929 . S
H619 C648 0.930 . S
H620 C625 0.930 . S
H621 C629 0.930 . S
O622 Co591 2.037 . S
O622 C642 1.234 . S
C623 O597 1.269 . S
C623 O598 1.257 . S
C624 H599 0.930 . S
C624 C627 1.388 . S
C624 C629 1.418 . S
C625 H620 0.930 . S
C625 C628 1.404 . S
C625 C629 1.353 . S
N626 Co591 2.145 . S
N626 C627 1.397 . S
N626 C628 1.334 . S
C627 H608 0.929 . S
C627 C624 1.388 . S
C627 N626 1.397 . S
C628 H609 0.929 . S
C628 C625 1.404 . S
C628 N626 1.334 . S
C629 H621 0.930 . S
C629 C624 1.418 . S
C629 C625 1.353 . S
C630 H600 0.930 . S
C630 N631 1.330 . S
C630 C632 1.446 . S
N631 Co590 2.151 . S
N631 C630 1.330 . S
N631 C635 1.418 . S
C632 H611 0.929 . S
C632 C630 1.446 . S
C632 C633 1.332 . S
C633 H613 0.931 . S
C633 C632 1.332 . S
C633 C634 1.267 . S
C634 H602 0.929 . S
C634 C633 1.267 . S
C634 C635 1.251 . S
C635 H605 0.929 . S
C635 N631 1.418 . S
C635 C634 1.251 . S
C636 H603 0.930 . S
C636 C638 1.406 . S
C636 C641 1.261 . S
C637 H604 0.930 . S
C637 N639 1.325 . S
C637 C640 1.357 . S
C638 H606 0.928 . S
C638 C636 1.406 . S
C638 N639 1.261 . S
N639 Co590 2.214 . S
N639 C637 1.325 . S
N639 C638 1.261 . S
C640 H610 0.931 . S
C640 C637 1.357 . S
C640 C641 1.312 . S
C641 H612 0.930 . S
C641 C636 1.261 . S
C641 C640 1.312 . S
C642 O614 1.214 . S
C642 O622 1.234 . S
C643 H615 0.929 . S
C643 C646 1.391 . S
C643 C648 1.391 . S
C644 H616 0.929 . S
C644 C645 1.390 . S
C644 N647 1.391 . S
C645 H617 0.930 . S
C645 C644 1.390 . S
C645 C646 1.392 . S
C646 H618 0.929 . S
C646 C643 1.391 . S
C646 C645 1.392 . S
N647 Co591 2.257 . S
N647 C644 1.391 . S
N647 C648 1.388 . S
C648 H619 0.930 . S
C648 C643 1.391 . S
C648 N647 1.388 . S
Co649 O651 2.143 . S
Co649 O657 2.074 . S
Co649 O660 2.093 . S
Co649 O673 2.097 . S
Co649 N690 2.151 . S
Co649 N698 2.214 . S
Co650 O651 2.160 . S
Co650 O656 2.058 . S
Co650 O666 2.057 . S
Co650 O681 2.037 . S
Co650 N685 2.145 . S
Co650 N706 2.257 . S
O651 Co649 2.143 . S
O651 Co650 2.160 . S
C652 O653 1.278 . S
C652 O660 1.224 . S
O653 C652 1.278 . S
C654 O655 1.245 . S
C654 O666 1.232 . S
O655 C654 1.245 . S
O656 Co650 2.058 . S
O656 C682 1.269 . S
O657 Co649 2.074 . S
O657 C682 1.257 . S
H658 C683 0.930 . S
H659 C689 0.930 . S
O660 Co649 2.093 . S
O660 C652 1.224 . S
H661 C693 0.929 . S
H662 C695 0.930 . S
H663 C696 0.930 . S
H664 C694 0.929 . S
H665 C697 0.928 . S
O666 Co650 2.057 . S
O666 C654 1.232 . S
H667 C686 0.929 . S
H668 C687 0.929 . S
H669 C699 0.931 . S
H670 C691 0.929 . S
H671 C700 0.930 . S
H672 C692 0.931 . S
O673 Co649 2.097 . S
O673 C701 1.214 . S
H674 C702 0.929 . S
H675 C703 0.929 . S
H676 C704 0.930 . S
H677 C705 0.929 . S
H678 C707 0.930 . S
H679 C684 0.930 . S
H680 C688 0.930 . S
O681 Co650 2.037 . S
O681 C701 1.234 . S
C682 O656 1.269 . S
C682 O657 1.257 . S
C683 H658 0.930 . S
C683 C686 1.388 . S
C683 C688 1.418 . S
C684 H679 0.930 . S
C684 C687 1.404 . S
C684 C688 1.353 . S
N685 Co650 2.145 . S
N685 C686 1.397 . S
N685 C687 1.334 . S
C686 H667 0.929 . S
C686 C683 1.388 . S
C686 N685 1.397 . S
C687 H668 0.929 . S
C687 C684 1.404 . S
C687 N685 1.334 . S
C688 H680 0.930 . S
C688 C683 1.418 . S
C688 C684 1.353 . S
C689 H659 0.930 . S
C689 N690 1.330 . S
C689 C691 1.446 . S
N690 Co649 2.151 . S
N690 C689 1.330 . S
N690 C694 1.418 . S
C691 H670 0.929 . S
C691 C689 1.446 . S
C691 C692 1.332 . S
C692 H672 0.931 . S
C692 C691 1.332 . S
C692 C693 1.267 . S
C693 H661 0.929 . S
C693 C692 1.267 . S
C693 C694 1.251 . S
C694 H664 0.929 . S
C694 N690 1.418 . S
C694 C693 1.251 . S
C695 H662 0.930 . S
C695 C697 1.406 . S
C695 C700 1.261 . S
C696 H663 0.930 . S
C696 N698 1.325 . S
C696 C699 1.357 . S
C697 H665 0.928 . S
C697 C695 1.406 . S
C697 N698 1.261 . S
N698 Co649 2.214 . S
N698 C696 1.325 . S
N698 C697 1.261 . S
C699 H669 0.931 . S
C699 C696 1.357 . S
C699 C700 1.312 . S
C700 H671 0.930 . S
C700 C695 1.261 . S
C700 C699 1.312 . S
C701 O673 1.214 . S
C701 O681 1.234 . S
C702 H674 0.929 . S
C702 C705 1.391 . S
C702 C707 1.391 . S
C703 H675 0.929 . S
C703 C704 1.390 . S
C703 N706 1.391 . S
C704 H676 0.930 . S
C704 C703 1.390 . S
C704 C705 1.392 . S
C705 H677 0.929 . S
C705 C702 1.391 . S
C705 C704 1.392 . S
N706 Co650 2.257 . S
N706 C703 1.391 . S
N706 C707 1.388 . S
C707 H678 0.930 . S
C707 C702 1.391 . S
C707 N706 1.388 . S
Co708 O710 2.143 . S
Co708 O716 2.074 . S
Co708 O719 2.093 . S
Co708 O732 2.097 . S
Co708 N749 2.151 . S
Co708 N757 2.214 . S
Co709 O710 2.160 . S
Co709 O715 2.058 . S
Co709 O725 2.057 . S
Co709 O740 2.037 . S
Co709 N744 2.145 . S
Co709 N765 2.257 . S
O710 Co708 2.143 . S
O710 Co709 2.160 . S
C711 O712 1.278 . S
C711 O719 1.224 . S
O712 C711 1.278 . S
C713 O714 1.245 . S
C713 O725 1.232 . S
O714 C713 1.245 . S
O715 Co709 2.058 . S
O715 C741 1.269 . S
O716 Co708 2.074 . S
O716 C741 1.257 . S
H717 C742 0.930 . S
H718 C748 0.930 . S
O719 Co708 2.093 . S
O719 C711 1.224 . S
H720 C752 0.929 . S
H721 C754 0.930 . S
H722 C755 0.930 . S
H723 C753 0.929 . S
H724 C756 0.928 . S
O725 Co709 2.057 . S
O725 C713 1.232 . S
H726 C745 0.929 . S
H727 C746 0.929 . S
H728 C758 0.931 . S
H729 C750 0.929 . S
H730 C759 0.930 . S
H731 C751 0.931 . S
O732 Co708 2.097 . S
O732 C760 1.214 . S
H733 C761 0.929 . S
H734 C762 0.929 . S
H735 C763 0.930 . S
H736 C764 0.929 . S
H737 C766 0.930 . S
H738 C743 0.930 . S
H739 C747 0.930 . S
O740 Co709 2.037 . S
O740 C760 1.234 . S
C741 O715 1.269 . S
C741 O716 1.257 . S
C742 H717 0.930 . S
C742 C745 1.388 . S
C742 C747 1.418 . S
C743 H738 0.930 . S
C743 C746 1.404 . S
C743 C747 1.353 . S
N744 Co709 2.145 . S
N744 C745 1.397 . S
N744 C746 1.334 . S
C745 H726 0.929 . S
C745 C742 1.388 . S
C745 N744 1.397 . S
C746 H727 0.929 . S
C746 C743 1.404 . S
C746 N744 1.334 . S
C747 H739 0.930 . S
C747 C742 1.418 . S
C747 C743 1.353 . S
C748 H718 0.930 . S
C748 N749 1.330 . S
C748 C750 1.446 . S
N749 Co708 2.151 . S
N749 C748 1.330 . S
N749 C753 1.418 . S
C750 H729 0.929 . S
C750 C748 1.446 . S
C750 C751 1.332 . S
C751 H731 0.931 . S
C751 C750 1.332 . S
C751 C752 1.267 . S
C752 H720 0.929 . S
C752 C751 1.267 . S
C752 C753 1.251 . S
C753 H723 0.929 . S
C753 N749 1.418 . S
C753 C752 1.251 . S
C754 H721 0.930 . S
C754 C756 1.406 . S
C754 C759 1.261 . S
C755 H722 0.930 . S
C755 N757 1.325 . S
C755 C758 1.357 . S
C756 H724 0.928 . S
C756 C754 1.406 . S
C756 N757 1.261 . S
N757 Co708 2.214 . S
N757 C755 1.325 . S
N757 C756 1.261 . S
C758 H728 0.931 . S
C758 C755 1.357 . S
C758 C759 1.312 . S
C759 H730 0.930 . S
C759 C754 1.261 . S
C759 C758 1.312 . S
C760 O732 1.214 . S
C760 O740 1.234 . S
C761 H733 0.929 . S
C761 C764 1.391 . S
C761 C766 1.391 . S
C762 H734 0.929 . S
C762 C763 1.390 . S
C762 N765 1.391 . S
C763 H735 0.930 . S
C763 C762 1.390 . S
C763 C764 1.392 . S
C764 H736 0.929 . S
C764 C761 1.391 . S
C764 C763 1.392 . S
N765 Co709 2.257 . S
N765 C762 1.391 . S
N765 C766 1.388 . S
C766 H737 0.930 . S
C766 C761 1.391 . S
C766 N765 1.388 . S
Co767 O769 2.143 . S
Co767 O775 2.074 . S
Co767 O778 2.093 . S
Co767 O791 2.097 . S
Co767 N808 2.151 . S
Co767 N816 2.214 . S
Co768 O769 2.160 . S
Co768 O774 2.058 . S
Co768 O784 2.057 . S
Co768 O799 2.037 . S
Co768 N803 2.145 . S
Co768 N824 2.257 . S
O769 Co767 2.143 . S
O769 Co768 2.160 . S
C770 O771 1.278 . S
C770 O778 1.224 . S
O771 C770 1.278 . S
C772 O773 1.245 . S
C772 O784 1.232 . S
O773 C772 1.245 . S
O774 Co768 2.058 . S
O774 C800 1.269 . S
O775 Co767 2.074 . S
O775 C800 1.257 . S
H776 C801 0.930 . S
H777 C807 0.930 . S
O778 Co767 2.093 . S
O778 C770 1.224 . S
H779 C811 0.929 . S
H780 C813 0.930 . S
H781 C814 0.930 . S
H782 C812 0.929 . S
H783 C815 0.928 . S
O784 Co768 2.057 . S
O784 C772 1.232 . S
H785 C804 0.929 . S
H786 C805 0.929 . S
H787 C817 0.931 . S
H788 C809 0.929 . S
H789 C818 0.930 . S
H790 C810 0.931 . S
O791 Co767 2.097 . S
O791 C819 1.214 . S
H792 C820 0.929 . S
H793 C821 0.929 . S
H794 C822 0.930 . S
H795 C823 0.929 . S
H796 C825 0.930 . S
H797 C802 0.930 . S
H798 C806 0.930 . S
O799 Co768 2.037 . S
O799 C819 1.234 . S
C800 O774 1.269 . S
C800 O775 1.257 . S
C801 H776 0.930 . S
C801 C804 1.388 . S
C801 C806 1.418 . S
C802 H797 0.930 . S
C802 C805 1.404 . S
C802 C806 1.353 . S
N803 Co768 2.145 . S
N803 C804 1.397 . S
N803 C805 1.334 . S
C804 H785 0.929 . S
C804 C801 1.388 . S
C804 N803 1.397 . S
C805 H786 0.929 . S
C805 C802 1.404 . S
C805 N803 1.334 . S
C806 H798 0.930 . S
C806 C801 1.418 . S
C806 C802 1.353 . S
C807 H777 0.930 . S
C807 N808 1.330 . S
C807 C809 1.446 . S
N808 Co767 2.151 . S
N808 C807 1.330 . S
N808 C812 1.418 . S
C809 H788 0.929 . S
C809 C807 1.446 . S
C809 C810 1.332 . S
C810 H790 0.931 . S
C810 C809 1.332 . S
C810 C811 1.267 . S
C811 H779 0.929 . S
C811 C810 1.267 . S
C811 C812 1.251 . S
C812 H782 0.929 . S
C812 N808 1.418 . S
C812 C811 1.251 . S
C813 H780 0.930 . S
C813 C815 1.406 . S
C813 C818 1.261 . S
C814 H781 0.930 . S
C814 N816 1.325 . S
C814 C817 1.357 . S
C815 H783 0.928 . S
C815 C813 1.406 . S
C815 N816 1.261 . S
N816 Co767 2.214 . S
N816 C814 1.325 . S
N816 C815 1.261 . S
C817 H787 0.931 . S
C817 C814 1.357 . S
C817 C818 1.312 . S
C818 H789 0.930 . S
C818 C813 1.261 . S
C818 C817 1.312 . S
C819 O791 1.214 . S
C819 O799 1.234 . S
C820 H792 0.929 . S
C820 C823 1.391 . S
C820 C825 1.391 . S
C821 H793 0.929 . S
C821 C822 1.390 . S
C821 N824 1.391 . S
C822 H794 0.930 . S
C822 C821 1.390 . S
C822 C823 1.392 . S
C823 H795 0.929 . S
C823 C820 1.391 . S
C823 C822 1.392 . S
N824 Co768 2.257 . S
N824 C821 1.391 . S
N824 C825 1.388 . S
C825 H796 0.930 . S
C825 C820 1.391 . S
C825 N824 1.388 . S
Co826 O828 2.143 . S
Co826 O834 2.074 . S
Co826 O837 2.093 . S
Co826 O850 2.097 . S
Co826 N867 2.151 . S
Co826 N875 2.214 . S
Co827 O828 2.160 . S
Co827 O833 2.058 . S
Co827 O843 2.057 . S
Co827 O858 2.037 . S
Co827 N862 2.145 . S
Co827 N883 2.257 . S
O828 Co826 2.143 . S
O828 Co827 2.160 . S
C829 O830 1.278 . S
C829 O837 1.224 . S
O830 C829 1.278 . S
C831 O832 1.245 . S
C831 O843 1.232 . S
O832 C831 1.245 . S
O833 Co827 2.058 . S
O833 C859 1.269 . S
O834 Co826 2.074 . S
O834 C859 1.257 . S
H835 C860 0.930 . S
H836 C866 0.930 . S
O837 Co826 2.093 . S
O837 C829 1.224 . S
H838 C870 0.929 . S
H839 C872 0.930 . S
H840 C873 0.930 . S
H841 C871 0.929 . S
H842 C874 0.928 . S
O843 Co827 2.057 . S
O843 C831 1.232 . S
H844 C863 0.929 . S
H845 C864 0.929 . S
H846 C876 0.931 . S
H847 C868 0.929 . S
H848 C877 0.930 . S
H849 C869 0.931 . S
O850 Co826 2.097 . S
O850 C878 1.214 . S
H851 C879 0.929 . S
H852 C880 0.929 . S
H853 C881 0.930 . S
H854 C882 0.929 . S
H855 C884 0.930 . S
H856 C861 0.930 . S
H857 C865 0.930 . S
O858 Co827 2.037 . S
O858 C878 1.234 . S
C859 O833 1.269 . S
C859 O834 1.257 . S
C860 H835 0.930 . S
C860 C863 1.388 . S
C860 C865 1.418 . S
C861 H856 0.930 . S
C861 C864 1.404 . S
C861 C865 1.353 . S
N862 Co827 2.145 . S
N862 C863 1.397 . S
N862 C864 1.334 . S
C863 H844 0.929 . S
C863 C860 1.388 . S
C863 N862 1.397 . S
C864 H845 0.929 . S
C864 C861 1.404 . S
C864 N862 1.334 . S
C865 H857 0.930 . S
C865 C860 1.418 . S
C865 C861 1.353 . S
C866 H836 0.930 . S
C866 N867 1.330 . S
C866 C868 1.446 . S
N867 Co826 2.151 . S
N867 C866 1.330 . S
N867 C871 1.418 . S
C868 H847 0.929 . S
C868 C866 1.446 . S
C868 C869 1.332 . S
C869 H849 0.931 . S
C869 C868 1.332 . S
C869 C870 1.267 . S
C870 H838 0.929 . S
C870 C869 1.267 . S
C870 C871 1.251 . S
C871 H841 0.929 . S
C871 N867 1.418 . S
C871 C870 1.251 . S
C872 H839 0.930 . S
C872 C874 1.406 . S
C872 C877 1.261 . S
C873 H840 0.930 . S
C873 N875 1.325 . S
C873 C876 1.357 . S
C874 H842 0.928 . S
C874 C872 1.406 . S
C874 N875 1.261 . S
N875 Co826 2.214 . S
N875 C873 1.325 . S
N875 C874 1.261 . S
C876 H846 0.931 . S
C876 C873 1.357 . S
C876 C877 1.312 . S
C877 H848 0.930 . S
C877 C872 1.261 . S
C877 C876 1.312 . S
C878 O850 1.214 . S
C878 O858 1.234 . S
C879 H851 0.929 . S
C879 C882 1.391 . S
C879 C884 1.391 . S
C880 H852 0.929 . S
C880 C881 1.390 . S
C880 N883 1.391 . S
C881 H853 0.930 . S
C881 C880 1.390 . S
C881 C882 1.392 . S
C882 H854 0.929 . S
C882 C879 1.391 . S
C882 C881 1.392 . S
N883 Co827 2.257 . S
N883 C880 1.391 . S
N883 C884 1.388 . S
C884 H855 0.930 . S
C884 C879 1.391 . S
C884 N883 1.388 . S
Co885 O887 2.143 . S
Co885 O893 2.074 . S
Co885 O896 2.093 . S
Co885 O909 2.097 . S
Co885 N926 2.151 . S
Co885 N934 2.214 . S
Co886 O887 2.160 . S
Co886 O892 2.058 . S
Co886 O902 2.057 . S
Co886 O917 2.037 . S
Co886 N921 2.145 . S
Co886 N942 2.257 . S
O887 Co885 2.143 . S
O887 Co886 2.160 . S
C888 O889 1.278 . S
C888 O896 1.224 . S
O889 C888 1.278 . S
C890 O891 1.245 . S
C890 O902 1.232 . S
O891 C890 1.245 . S
O892 Co886 2.058 . S
O892 C918 1.269 . S
O893 Co885 2.074 . S
O893 C918 1.257 . S
H894 C919 0.930 . S
H895 C925 0.930 . S
O896 Co885 2.093 . S
O896 C888 1.224 . S
H897 C929 0.929 . S
H898 C931 0.930 . S
H899 C932 0.930 . S
H900 C930 0.929 . S
H901 C933 0.928 . S
O902 Co886 2.057 . S
O902 C890 1.232 . S
H903 C922 0.929 . S
H904 C923 0.929 . S
H905 C935 0.931 . S
H906 C927 0.929 . S
H907 C936 0.930 . S
H908 C928 0.931 . S
O909 Co885 2.097 . S
O909 C937 1.214 . S
H910 C938 0.929 . S
H911 C939 0.929 . S
H912 C940 0.930 . S
H913 C941 0.929 . S
H914 C943 0.930 . S
H915 C920 0.930 . S
H916 C924 0.930 . S
O917 Co886 2.037 . S
O917 C937 1.234 . S
C918 O892 1.269 . S
C918 O893 1.257 . S
C919 H894 0.930 . S
C919 C922 1.388 . S
C919 C924 1.418 . S
C920 H915 0.930 . S
C920 C923 1.404 . S
C920 C924 1.353 . S
N921 Co886 2.145 . S
N921 C922 1.397 . S
N921 C923 1.334 . S
C922 H903 0.929 . S
C922 C919 1.388 . S
C922 N921 1.397 . S
C923 H904 0.929 . S
C923 C920 1.404 . S
C923 N921 1.334 . S
C924 H916 0.930 . S
C924 C919 1.418 . S
C924 C920 1.353 . S
C925 H895 0.930 . S
C925 N926 1.330 . S
C925 C927 1.446 . S
N926 Co885 2.151 . S
N926 C925 1.330 . S
N926 C930 1.418 . S
C927 H906 0.929 . S
C927 C925 1.446 . S
C927 C928 1.332 . S
C928 H908 0.931 . S
C928 C927 1.332 . S
C928 C929 1.267 . S
C929 H897 0.929 . S
C929 C928 1.267 . S
C929 C930 1.251 . S
C930 H900 0.929 . S
C930 N926 1.418 . S
C930 C929 1.251 . S
C931 H898 0.930 . S
C931 C933 1.406 . S
C931 C936 1.261 . S
C932 H899 0.930 . S
C932 N934 1.325 . S
C932 C935 1.357 . S
C933 H901 0.928 . S
C933 C931 1.406 . S
C933 N934 1.261 . S
N934 Co885 2.214 . S
N934 C932 1.325 . S
N934 C933 1.261 . S
C935 H905 0.931 . S
C935 C932 1.357 . S
C935 C936 1.312 . S
C936 H907 0.930 . S
C936 C931 1.261 . S
C936 C935 1.312 . S
C937 O909 1.214 . S
C937 O917 1.234 . S
C938 H910 0.929 . S
C938 C941 1.391 . S
C938 C943 1.391 . S
C939 H911 0.929 . S
C939 C940 1.390 . S
C939 N942 1.391 . S
C940 H912 0.930 . S
C940 C939 1.390 . S
C940 C941 1.392 . S
C941 H913 0.929 . S
C941 C938 1.391 . S
C941 C940 1.392 . S
N942 Co886 2.257 . S
N942 C939 1.391 . S
N942 C943 1.388 . S
C943 H914 0.930 . S
C943 C938 1.391 . S
C943 N942 1.388 . S
H944 C950 0.930 . S
H945 C953 0.930 . S
H946 C954 0.930 . S
H947 C955 0.930 . S
H948 C958 0.930 . S
H949 C959 0.930 . S
C950 H944 0.930 . S
C950 C951 1.355 . S
C950 C952 1.415 . S
C951 C950 1.355 . S
C951 C953 1.419 . S
C952 C950 1.415 . S
C952 C957 1.425 . S
C952 C959 1.409 . S
C953 H945 0.930 . S
C953 C951 1.419 . S
C953 C954 1.362 . S
C954 H946 0.930 . S
C954 C953 1.362 . S
C954 C957 1.409 . S
C955 H947 0.930 . S
C955 C956 1.355 . S
C955 C957 1.415 . S
C956 C955 1.355 . S
C956 C958 1.419 . S
C957 C952 1.425 . S
C957 C954 1.409 . S
C957 C955 1.415 . S
C958 H948 0.930 . S
C958 C956 1.419 . S
C958 C959 1.362 . S
C959 H949 0.930 . S
C959 C952 1.409 . S
C959 C958 1.362 . S
H960 C966 0.930 . S
H961 C969 0.930 . S
H962 C970 0.930 . S
H963 C971 0.930 . S
H964 C974 0.930 . S
H965 C975 0.930 . S
C966 H960 0.930 . S
C966 C967 1.355 . S
C966 C968 1.415 . S
C967 C966 1.355 . S
C967 C969 1.419 . S
C968 C966 1.415 . S
C968 C973 1.425 . S
C968 C975 1.409 . S
C969 H961 0.930 . S
C969 C967 1.419 . S
C969 C970 1.362 . S
C970 H962 0.930 . S
C970 C969 1.362 . S
C970 C973 1.409 . S
C971 H963 0.930 . S
C971 C972 1.355 . S
C971 C973 1.415 . S
C972 C971 1.355 . S
C972 C974 1.419 . S
C973 C968 1.425 . S
C973 C970 1.409 . S
C973 C971 1.415 . S
C974 H964 0.930 . S
C974 C972 1.419 . S
C974 C975 1.362 . S
C975 H965 0.930 . S
C975 C968 1.409 . S
C975 C974 1.362 . S
H976 C982 0.930 . S
H977 C985 0.930 . S
H978 C986 0.930 . S
H979 C987 0.930 . S
H980 C990 0.930 . S
H981 C991 0.930 . S
C982 H976 0.930 . S
C982 C983 1.355 . S
C982 C984 1.415 . S
C983 C982 1.355 . S
C983 C985 1.419 . S
C984 C982 1.415 . S
C984 C989 1.425 . S
C984 C991 1.409 . S
C985 H977 0.930 . S
C985 C983 1.419 . S
C985 C986 1.362 . S
C986 H978 0.930 . S
C986 C985 1.362 . S
C986 C989 1.409 . S
C987 H979 0.930 . S
C987 C988 1.355 . S
C987 C989 1.415 . S
C988 C987 1.355 . S
C988 C990 1.419 . S
C989 C984 1.425 . S
C989 C986 1.409 . S
C989 C987 1.415 . S
C990 H980 0.930 . S
C990 C988 1.419 . S
C990 C991 1.362 . S
C991 H981 0.930 . S
C991 C984 1.409 . S
C991 C990 1.362 . S
H992 C998 0.930 . S
H993 C1001 0.930 . S
H994 C1002 0.930 . S
H995 C1003 0.930 . S
H996 C1006 0.930 . S
H997 C1007 0.930 . S
C998 H992 0.930 . S
C998 C999 1.355 . S
C998 C1000 1.415 . S
C999 C998 1.355 . S
C999 C1001 1.419 . S
C1000 C998 1.415 . S
C1000 C1005 1.425 . S
C1000 C1007 1.409 . S
C1001 H993 0.930 . S
C1001 C999 1.419 . S
C1001 C1002 1.362 . S
C1002 H994 0.930 . S
C1002 C1001 1.362 . S
C1002 C1005 1.409 . S
C1003 H995 0.930 . S
C1003 C1004 1.355 . S
C1003 C1005 1.415 . S
C1004 C1003 1.355 . S
C1004 C1006 1.419 . S
C1005 C1000 1.425 . S
C1005 C1002 1.409 . S
C1005 C1003 1.415 . S
C1006 H996 0.930 . S
C1006 C1004 1.419 . S
C1006 C1007 1.362 . S
C1007 H997 0.930 . S
C1007 C1000 1.409 . S
C1007 C1006 1.362 . S
H1008 C1014 0.930 . S
H1009 C1017 0.930 . S
H1010 C1018 0.930 . S
H1011 C1019 0.930 . S
H1012 C1022 0.930 . S
H1013 C1023 0.930 . S
C1014 H1008 0.930 . S
C1014 C1015 1.355 . S
C1014 C1016 1.415 . S
C1015 C1014 1.355 . S
C1015 C1017 1.419 . S
C1016 C1014 1.415 . S
C1016 C1021 1.425 . S
C1016 C1023 1.409 . S
C1017 H1009 0.930 . S
C1017 C1015 1.419 . S
C1017 C1018 1.362 . S
C1018 H1010 0.930 . S
C1018 C1017 1.362 . S
C1018 C1021 1.409 . S
C1019 H1011 0.930 . S
C1019 C1020 1.355 . S
C1019 C1021 1.415 . S
C1020 C1019 1.355 . S
C1020 C1022 1.419 . S
C1021 C1016 1.425 . S
C1021 C1018 1.409 . S
C1021 C1019 1.415 . S
C1022 H1012 0.930 . S
C1022 C1020 1.419 . S
C1022 C1023 1.362 . S
C1023 H1013 0.930 . S
C1023 C1016 1.409 . S
C1023 C1022 1.362 . S
H1024 C1030 0.930 . S
H1025 C1033 0.930 . S
H1026 C1034 0.930 . S
H1027 C1035 0.930 . S
H1028 C1038 0.930 . S
H1029 C1039 0.930 . S
C1030 H1024 0.930 . S
C1030 C1031 1.355 . S
C1030 C1032 1.415 . S
C1031 C1030 1.355 . S
C1031 C1033 1.419 . S
C1032 C1030 1.415 . S
C1032 C1037 1.425 . S
C1032 C1039 1.409 . S
C1033 H1025 0.930 . S
C1033 C1031 1.419 . S
C1033 C1034 1.362 . S
C1034 H1026 0.930 . S
C1034 C1033 1.362 . S
C1034 C1037 1.409 . S
C1035 H1027 0.930 . S
C1035 C1036 1.355 . S
C1035 C1037 1.415 . S
C1036 C1035 1.355 . S
C1036 C1038 1.419 . S
C1037 C1032 1.425 . S
C1037 C1034 1.409 . S
C1037 C1035 1.415 . S
C1038 H1028 0.930 . S
C1038 C1036 1.419 . S
C1038 C1039 1.362 . S
C1039 H1029 0.930 . S
C1039 C1032 1.409 . S
C1039 C1038 1.362 . S
H1040 C1046 0.930 . S
H1041 C1049 0.930 . S
H1042 C1050 0.930 . S
H1043 C1051 0.930 . S
H1044 C1054 0.930 . S
H1045 C1055 0.930 . S
C1046 H1040 0.930 . S
C1046 C1047 1.355 . S
C1046 C1048 1.415 . S
C1047 C1046 1.355 . S
C1047 C1049 1.419 . S
C1048 C1046 1.415 . S
C1048 C1053 1.425 . S
C1048 C1055 1.409 . S
C1049 H1041 0.930 . S
C1049 C1047 1.419 . S
C1049 C1050 1.362 . S
C1050 H1042 0.930 . S
C1050 C1049 1.362 . S
C1050 C1053 1.409 . S
C1051 H1043 0.930 . S
C1051 C1052 1.355 . S
C1051 C1053 1.415 . S
C1052 C1051 1.355 . S
C1052 C1054 1.419 . S
C1053 C1048 1.425 . S
C1053 C1050 1.409 . S
C1053 C1051 1.415 . S
C1054 H1044 0.930 . S
C1054 C1052 1.419 . S
C1054 C1055 1.362 . S
C1055 H1045 0.930 . S
C1055 C1048 1.409 . S
C1055 C1054 1.362 . S
H1056 C1062 0.930 . S
H1057 C1065 0.930 . S
H1058 C1066 0.930 . S
H1059 C1067 0.930 . S
H1060 C1070 0.930 . S
H1061 C1071 0.930 . S
C1062 H1056 0.930 . S
C1062 C1063 1.355 . S
C1062 C1064 1.415 . S
C1063 C1062 1.355 . S
C1063 C1065 1.419 . S
C1064 C1062 1.415 . S
C1064 C1069 1.425 . S
C1064 C1071 1.409 . S
C1065 H1057 0.930 . S
C1065 C1063 1.419 . S
C1065 C1066 1.362 . S
C1066 H1058 0.930 . S
C1066 C1065 1.362 . S
C1066 C1069 1.409 . S
C1067 H1059 0.930 . S
C1067 C1068 1.355 . S
C1067 C1069 1.415 . S
C1068 C1067 1.355 . S
C1068 C1070 1.419 . S
C1069 C1064 1.425 . S
C1069 C1066 1.409 . S
C1069 C1067 1.415 . S
C1070 H1060 0.930 . S
C1070 C1068 1.419 . S
C1070 C1071 1.362 . S
C1071 H1061 0.930 . S
C1071 C1064 1.409 . S
C1071 C1070 1.362 . S
H1072 C1078 0.930 . S
H1073 C1081 0.930 . S
H1074 C1082 0.930 . S
H1075 C1083 0.930 . S
H1076 C1086 0.930 . S
H1077 C1087 0.946 . S
C1078 H1072 0.930 . S
C1078 C1079 1.355 . S
C1078 C1080 1.415 . S
C1079 C1078 1.355 . S
C1079 C1081 1.419 . S
C1080 C1078 1.415 . S
C1080 C1085 1.425 1_565 S
C1080 C1087 1.411 . S
C1081 H1073 0.930 . S
C1081 C1079 1.419 . S
C1081 C1082 1.362 1_565 S
C1082 H1074 0.930 . S
C1082 C1081 1.362 1_545 S
C1082 C1085 1.409 . S
C1083 H1075 0.930 . S
C1083 C1084 1.355 . S
C1083 C1085 1.415 . S
C1084 C1083 1.355 . S
C1084 C1086 1.419 . S
C1085 C1080 1.425 1_545 S
C1085 C1082 1.409 . S
C1085 C1083 1.415 . S
C1086 H1076 0.930 . S
C1086 C1084 1.419 . S
C1086 C1087 1.345 1_545 S
C1087 H1077 0.946 . S
C1087 C1080 1.411 . S
C1087 C1086 1.345 1_565 S
H1088 C1094 0.930 . S
H1089 C1097 0.930 . S
H1090 C1098 0.930 . S
H1091 C1099 0.930 . S
H1092 C1102 0.930 . S
H1093 C1103 0.930 . S
C1094 H1088 0.930 . S
C1094 C1095 1.355 . S
C1094 C1096 1.415 . S
C1095 C1094 1.355 . S
C1095 C1097 1.419 . S
C1096 C1094 1.415 . S
C1096 C1101 1.425 . S
C1096 C1103 1.409 . S
C1097 H1089 0.930 . S
C1097 C1095 1.419 . S
C1097 C1098 1.362 . S
C1098 H1090 0.930 . S
C1098 C1097 1.362 . S
C1098 C1101 1.409 . S
C1099 H1091 0.930 . S
C1099 C1100 1.355 . S
C1099 C1101 1.415 . S
C1100 C1099 1.355 . S
C1100 C1102 1.419 . S
C1101 C1096 1.425 . S
C1101 C1098 1.409 . S
C1101 C1099 1.415 . S
C1102 H1092 0.930 . S
C1102 C1100 1.419 . S
C1102 C1103 1.362 . S
C1103 H1093 0.930 . S
C1103 C1096 1.409 . S
C1103 C1102 1.362 . S
H1104 C1110 0.930 . S
H1105 C1113 0.930 . S
H1106 C1114 0.930 . S
H1107 C1115 0.930 1_556 S
H1108 C1118 0.930 . S
H1109 C1119 0.930 . S
C1110 H1104 0.930 . S
C1110 C1111 1.355 . S
C1110 C1112 1.415 . S
C1111 C1110 1.355 . S
C1111 C1113 1.419 . S
C1112 C1110 1.415 . S
C1112 C1117 1.425 . S
C1112 C1119 1.409 1_556 S
C1113 H1105 0.930 . S
C1113 C1111 1.419 . S
C1113 C1114 1.362 . S
C1114 H1106 0.930 . S
C1114 C1113 1.362 . S
C1114 C1117 1.409 . S
C1115 H1107 0.930 1_554 S
C1115 C1116 1.355 . S
C1115 C1117 1.415 1_554 S
C1116 C1115 1.355 . S
C1116 C1118 1.419 . S
C1117 C1112 1.425 . S
C1117 C1114 1.409 . S
C1117 C1115 1.415 1_556 S
C1118 H1108 0.930 . S
C1118 C1116 1.419 . S
C1118 C1119 1.362 . S
C1119 H1109 0.930 . S
C1119 C1112 1.409 1_554 S
C1119 C1118 1.362 . S
H1120 C1126 0.930 . S
H1121 C1129 0.930 . S
H1122 C1130 0.930 . S
H1123 C1131 0.930 . S
H1124 C1134 0.930 . S
H1125 C1135 0.930 . S
C1126 H1120 0.930 . S
C1126 C1127 1.355 . S
C1126 C1128 1.415 1_554 S
C1127 C1126 1.355 . S
C1127 C1129 1.419 . S
C1128 C1126 1.415 1_556 S
C1128 C1133 1.425 . S
C1128 C1135 1.409 . S
C1129 H1121 0.930 . S
C1129 C1127 1.419 . S
C1129 C1130 1.362 1_554 S
C1130 H1122 0.930 . S
C1130 C1129 1.362 1_556 S
C1130 C1133 1.409 . S
C1131 H1123 0.930 . S
C1131 C1132 1.355 . S
C1131 C1133 1.415 . S
C1132 C1131 1.355 . S
C1132 C1134 1.419 . S
C1133 C1128 1.425 . S
C1133 C1130 1.409 . S
C1133 C1131 1.415 . S
C1134 H1124 0.930 . S
C1134 C1132 1.419 . S
C1134 C1135 1.362 . S
C1135 H1125 0.930 . S
C1135 C1128 1.409 . S
C1135 C1134 1.362 . S
H1136 C1142 0.930 . S
H1137 C1145 0.930 . S
H1138 C1146 0.930 . S
H1139 C1147 0.930 . S
H1140 C1150 0.930 . S
H1141 C1151 0.930 . S
C1142 H1136 0.930 . S
C1142 C1143 1.355 . S
C1142 C1144 1.415 . S
C1143 C1142 1.355 . S
C1143 C1145 1.419 . S
C1144 C1142 1.415 . S
C1144 C1149 1.425 . S
C1144 C1151 1.409 . S
C1145 H1137 0.930 . S
C1145 C1143 1.419 . S
C1145 C1146 1.362 . S
C1146 H1138 0.930 . S
C1146 C1145 1.362 . S
C1146 C1149 1.409 . S
C1147 H1139 0.930 . S
C1147 C1148 1.355 . S
C1147 C1149 1.415 . S
C1148 C1147 1.355 . S
C1148 C1150 1.419 . S
C1149 C1144 1.425 . S
C1149 C1146 1.409 . S
C1149 C1147 1.415 . S
C1150 H1140 0.930 . S
C1150 C1148 1.419 . S
C1150 C1151 1.362 . S
C1151 H1141 0.930 . S
C1151 C1144 1.409 . S
C1151 C1150 1.362 . S
H1152 C1158 0.930 . S
H1153 C1161 0.930 . S
H1154 C1162 0.930 . S
H1155 C1163 0.930 . S
H1156 C1166 0.930 . S
H1157 C1167 0.930 . S
C1158 H1152 0.930 . S
C1158 C1159 1.355 . S
C1158 C1160 1.415 . S
C1159 C1158 1.355 . S
C1159 C1161 1.419 . S
C1160 C1158 1.415 . S
C1160 C1165 1.425 . S
C1160 C1167 1.409 . S
C1161 H1153 0.930 . S
C1161 C1159 1.419 . S
C1161 C1162 1.362 . S
C1162 H1154 0.930 . S
C1162 C1161 1.362 . S
C1162 C1165 1.409 . S
C1163 H1155 0.930 . S
C1163 C1164 1.355 . S
C1163 C1165 1.415 . S
C1164 C1163 1.355 . S
C1164 C1166 1.419 . S
C1165 C1160 1.425 . S
C1165 C1162 1.409 . S
C1165 C1163 1.415 . S
C1166 H1156 0.930 . S
C1166 C1164 1.419 . S
C1166 C1167 1.362 . S
C1167 H1157 0.930 . S
C1167 C1160 1.409 . S
C1167 C1166 1.362 . S
H1168 C1174 0.930 . S
H1169 C1177 0.930 . S
H1170 C1178 0.930 . S
H1171 C1179 0.930 . S
H1172 C1182 0.930 . S
H1173 C1183 0.930 . S
C1174 H1168 0.930 . S
C1174 C1175 1.355 . S
C1174 C1176 1.415 . S
C1175 C1174 1.355 . S
C1175 C1177 1.419 . S
C1176 C1174 1.415 . S
C1176 C1181 1.425 1_655 S
C1176 C1183 1.409 1_655 S
C1177 H1169 0.930 . S
C1177 C1175 1.419 . S
C1177 C1178 1.362 . S
C1178 H1170 0.930 . S
C1178 C1177 1.362 . S
C1178 C1181 1.409 1_655 S
C1179 H1171 0.930 . S
C1179 C1180 1.355 . S
C1179 C1181 1.415 . S
C1180 C1179 1.355 . S
C1180 C1182 1.419 . S
C1181 C1176 1.425 1_455 S
C1181 C1178 1.409 1_455 S
C1181 C1179 1.415 . S
C1182 H1172 0.930 . S
C1182 C1180 1.419 . S
C1182 C1183 1.362 . S
C1183 H1173 0.930 . S
C1183 C1176 1.409 1_455 S
C1183 C1182 1.362 . S
H1184 C1190 0.930 . S
H1185 C1193 0.930 . S
H1186 C1194 0.930 . S
H1187 C1195 0.930 . S
H1188 C1198 0.930 . S
H1189 C1199 0.930 . S
C1190 H1184 0.930 . S
C1190 C1191 1.355 . S
C1190 C1192 1.415 . S
C1191 C1190 1.355 . S
C1191 C1193 1.419 . S
C1192 C1190 1.415 . S
C1192 C1197 1.425 1_655 S
C1192 C1199 1.409 . S
C1193 H1185 0.930 . S
C1193 C1191 1.419 . S
C1193 C1194 1.362 1_655 S
C1194 H1186 0.930 . S
C1194 C1193 1.362 1_455 S
C1194 C1197 1.409 . S
C1195 H1187 0.930 . S
C1195 C1196 1.355 . S
C1195 C1197 1.415 . S
C1196 C1195 1.355 . S
C1196 C1198 1.419 . S
C1197 C1192 1.425 1_455 S
C1197 C1194 1.409 . S
C1197 C1195 1.415 . S
C1198 H1188 0.930 . S
C1198 C1196 1.419 . S
C1198 C1199 1.362 1_455 S
C1199 H1189 0.930 . S
C1199 C1192 1.409 . S
C1199 C1198 1.362 1_655 S
H1200 C1206 0.930 . S
H1201 C1209 0.930 . S
H1202 C1210 0.930 . S
H1203 C1211 0.930 . S
H1204 C1214 0.930 . S
H1205 C1215 0.930 . S
C1206 H1200 0.930 . S
C1206 C1207 1.355 . S
C1206 C1208 1.415 . S
C1207 C1206 1.355 . S
C1207 C1209 1.419 . S
C1208 C1206 1.415 . S
C1208 C1213 1.425 . S
C1208 C1215 1.409 . S
C1209 H1201 0.930 . S
C1209 C1207 1.419 . S
C1209 C1210 1.362 . S
C1210 H1202 0.930 . S
C1210 C1209 1.362 . S
C1210 C1213 1.409 . S
C1211 H1203 0.930 . S
C1211 C1212 1.355 . S
C1211 C1213 1.415 . S
C1212 C1211 1.355 . S
C1212 C1214 1.419 . S
C1213 C1208 1.425 . S
C1213 C1210 1.409 . S
C1213 C1211 1.415 . S
C1214 H1204 0.930 . S
C1214 C1212 1.419 . S
C1214 C1215 1.362 . S
C1215 H1205 0.930 . S
C1215 C1208 1.409 . S
C1215 C1214 1.362 . S
H1216 C1222 0.930 . S
H1217 C1225 0.930 . S
H1218 C1226 0.930 . S
H1219 C1227 0.930 . S
H1220 C1230 0.930 . S
H1221 C1231 0.930 . S
C1222 H1216 0.930 . S
C1222 C1223 1.355 . S
C1222 C1224 1.415 1_545 S
C1223 C1222 1.355 . S
C1223 C1225 1.419 . S
C1224 C1222 1.415 1_565 S
C1224 C1229 1.425 . S
C1224 C1231 1.409 . S
C1225 H1217 0.930 . S
C1225 C1223 1.419 . S
C1225 C1226 1.362 . S
C1226 H1218 0.930 . S
C1226 C1225 1.362 . S
C1226 C1229 1.409 1_545 S
C1227 H1219 0.930 . S
C1227 C1228 1.355 . S
C1227 C1229 1.415 . S
C1228 C1227 1.355 . S
C1228 C1230 1.419 . S
C1229 C1224 1.425 . S
C1229 C1226 1.409 1_565 S
C1229 C1227 1.415 . S
C1230 H1220 0.930 . S
C1230 C1228 1.419 . S
C1230 C1231 1.362 . S
C1231 H1221 0.930 . S
C1231 C1224 1.409 . S
C1231 C1230 1.362 . S
H1232 C1238 0.930 . S
H1233 C1241 0.930 . S
H1234 C1242 0.930 . S
H1235 C1243 0.930 . S
H1236 C1246 0.930 . S
H1237 C1247 0.930 . S
C1238 H1232 0.930 . S
C1238 C1239 1.355 . S
C1238 C1240 1.415 . S
C1239 C1238 1.355 . S
C1239 C1241 1.419 . S
C1240 C1238 1.415 . S
C1240 C1245 1.425 . S
C1240 C1247 1.409 . S
C1241 H1233 0.930 . S
C1241 C1239 1.419 . S
C1241 C1242 1.362 . S
C1242 H1234 0.930 . S
C1242 C1241 1.362 . S
C1242 C1245 1.409 . S
C1243 H1235 0.930 . S
C1243 C1244 1.355 . S
C1243 C1245 1.415 . S
C1244 C1243 1.355 . S
C1244 C1246 1.419 . S
C1245 C1240 1.425 . S
C1245 C1242 1.409 . S
C1245 C1243 1.415 . S
C1246 H1236 0.930 . S
C1246 C1244 1.419 . S
C1246 C1247 1.362 . S
C1247 H1237 0.930 . S
C1247 C1240 1.409 . S
C1247 C1246 1.362 . S
H1248 C1254 0.930 . S
H1249 C1257 0.930 . S
H1250 C1258 0.930 . S
H1251 C1259 0.930 . S
H1252 C1262 0.930 . S
H1253 C1263 0.928 1_554 S
C1254 H1248 0.930 . S
C1254 C1255 1.355 . S
C1254 C1256 1.415 . S
C1255 C1254 1.355 . S
C1255 C1257 1.419 . S
C1256 C1254 1.415 . S
C1256 C1261 1.425 . S
C1256 C1263 1.378 1_554 S
C1257 H1249 0.930 . S
C1257 C1255 1.419 . S
C1257 C1258 1.362 . S
C1258 H1250 0.930 . S
C1258 C1257 1.362 . S
C1258 C1261 1.409 . S
C1259 H1251 0.930 . S
C1259 C1260 1.355 . S
C1259 C1261 1.415 1_556 S
C1260 C1259 1.355 . S
C1260 C1262 1.419 . S
C1261 C1256 1.425 . S
C1261 C1258 1.409 . S
C1261 C1259 1.415 1_554 S
C1262 H1252 0.930 . S
C1262 C1260 1.419 . S
C1262 C1263 1.396 . S
C1263 H1253 0.928 1_556 S
C1263 C1256 1.378 1_556 S
C1263 C1262 1.396 . S
H1264 C1270 0.930 . S
H1265 C1273 0.930 . S
H1266 C1274 0.930 . S
H1267 C1275 0.930 . S
H1268 C1278 0.930 . S
H1269 C1279 0.930 . S
C1270 H1264 0.930 . S
C1270 C1271 1.355 . S
C1270 C1272 1.415 1_556 S
C1271 C1270 1.355 . S
C1271 C1273 1.419 . S
C1272 C1270 1.415 1_554 S
C1272 C1277 1.425 . S
C1272 C1279 1.409 . S
C1273 H1265 0.930 . S
C1273 C1271 1.419 . S
C1273 C1274 1.362 1_556 S
C1274 H1266 0.930 . S
C1274 C1273 1.362 1_554 S
C1274 C1277 1.409 . S
C1275 H1267 0.930 . S
C1275 C1276 1.355 . S
C1275 C1277 1.415 . S
C1276 C1275 1.355 . S
C1276 C1278 1.419 . S
C1277 C1272 1.425 . S
C1277 C1274 1.409 . S
C1277 C1275 1.415 . S
C1278 H1268 0.930 . S
C1278 C1276 1.419 . S
C1278 C1279 1.362 . S
C1279 H1269 0.930 . S
C1279 C1272 1.409 . S
C1279 C1278 1.362 . S
H1280 C1286 0.930 . S
H1281 C1289 0.930 . S
H1282 C1290 0.930 . S
H1283 C1291 0.930 . S
H1284 C1294 0.930 . S
H1285 C1295 0.930 . S
C1286 H1280 0.930 . S
C1286 C1287 1.355 . S
C1286 C1288 1.415 . S
C1287 C1286 1.355 . S
C1287 C1289 1.419 . S
C1288 C1286 1.415 . S
C1288 C1293 1.425 . S
C1288 C1295 1.409 . S
C1289 H1281 0.930 . S
C1289 C1287 1.419 . S
C1289 C1290 1.362 . S
C1290 H1282 0.930 . S
C1290 C1289 1.362 . S
C1290 C1293 1.409 . S
C1291 H1283 0.930 . S
C1291 C1292 1.355 . S
C1291 C1293 1.415 . S
C1292 C1291 1.355 . S
C1292 C1294 1.419 . S
C1293 C1288 1.425 . S
C1293 C1290 1.409 . S
C1293 C1291 1.415 . S
C1294 H1284 0.930 . S
C1294 C1292 1.419 . S
C1294 C1295 1.362 . S
C1295 H1285 0.930 . S
C1295 C1288 1.409 . S
C1295 C1294 1.362 . S
H1296 C1302 0.930 . S
H1297 C1305 0.930 . S
H1298 C1306 0.930 . S
H1299 C1307 0.930 . S
H1300 C1310 0.930 . S
H1301 C1311 0.930 . S
C1302 H1296 0.930 . S
C1302 C1303 1.355 . S
C1302 C1304 1.415 . S
C1303 C1302 1.355 . S
C1303 C1305 1.419 . S
C1304 C1302 1.415 . S
C1304 C1309 1.425 . S
C1304 C1311 1.409 . S
C1305 H1297 0.930 . S
C1305 C1303 1.419 . S
C1305 C1306 1.362 . S
C1306 H1298 0.930 . S
C1306 C1305 1.362 . S
C1306 C1309 1.409 . S
C1307 H1299 0.930 . S
C1307 C1308 1.355 . S
C1307 C1309 1.415 . S
C1308 C1307 1.355 . S
C1308 C1310 1.419 . S
C1309 C1304 1.425 . S
C1309 C1306 1.409 . S
C1309 C1307 1.415 . S
C1310 H1300 0.930 . S
C1310 C1308 1.419 . S
C1310 C1311 1.362 . S
C1311 H1301 0.930 . S
C1311 C1304 1.409 . S
C1311 C1310 1.362 . S
H1312 C1318 0.932 . S
H1313 C1321 0.930 . S
H1314 C1322 0.930 . S
H1315 C1323 0.932 . S
H1316 C1326 0.930 . S
H1317 C1327 0.930 . S
C1318 H1312 0.932 . S
C1318 C1319 1.355 . S
C1318 C1320 1.415 1_455 S
C1319 C1318 1.355 . S
C1319 C1321 1.419 . S
C1320 C1318 1.415 1_655 S
C1320 C1325 1.425 1_655 S
C1320 C1327 1.409 . S
C1321 H1313 0.930 . S
C1321 C1319 1.419 . S
C1321 C1322 1.362 . S
C1322 H1314 0.930 . S
C1322 C1321 1.362 . S
C1322 C1325 1.409 . S
C1323 H1315 0.932 . S
C1323 C1324 1.355 . S
C1323 C1325 1.415 1_655 S
C1324 C1323 1.355 . S
C1324 C1326 1.419 . S
C1325 C1320 1.425 1_455 S
C1325 C1322 1.409 . S
C1325 C1323 1.415 1_455 S
C1326 H1316 0.930 . S
C1326 C1324 1.419 . S
C1326 C1327 1.362 . S
C1327 H1317 0.930 . S
C1327 C1320 1.409 . S
C1327 C1326 1.362 . S
H1328 C1334 0.930 . S
H1329 C1337 0.930 . S
H1330 C1338 0.930 . S
H1331 C1339 0.930 . S
H1332 C1342 0.930 . S
H1333 C1343 0.930 . S
C1334 H1328 0.930 . S
C1334 C1335 1.355 . S
C1334 C1336 1.415 1_455 S
C1335 C1334 1.355 . S
C1335 C1337 1.419 . S
C1336 C1334 1.415 1_655 S
C1336 C1341 1.425 1_655 S
C1336 C1343 1.409 . S
C1337 H1329 0.930 . S
C1337 C1335 1.419 . S
C1337 C1338 1.362 . S
C1338 H1330 0.930 . S
C1338 C1337 1.362 . S
C1338 C1341 1.409 . S
C1339 H1331 0.930 . S
C1339 C1340 1.355 . S
C1339 C1341 1.415 1_655 S
C1340 C1339 1.355 . S
C1340 C1342 1.419 . S
C1341 C1336 1.425 1_455 S
C1341 C1338 1.409 . S
C1341 C1339 1.415 1_455 S
C1342 H1332 0.930 . S
C1342 C1340 1.419 . S
C1342 C1343 1.362 . S
C1343 H1333 0.930 . S
C1343 C1336 1.409 . S
C1343 C1342 1.362 . S
H1344 C1350 0.930 . S
H1345 C1353 0.930 . S
H1346 C1354 0.930 . S
H1347 C1355 0.930 . S
H1348 C1358 0.930 . S
H1349 C1359 0.930 . S
C1350 H1344 0.930 . S
C1350 C1351 1.355 . S
C1350 C1352 1.415 . S
C1351 C1350 1.355 . S
C1351 C1353 1.419 . S
C1352 C1350 1.415 . S
C1352 C1357 1.425 . S
C1352 C1359 1.409 . S
C1353 H1345 0.930 . S
C1353 C1351 1.419 . S
C1353 C1354 1.362 . S
C1354 H1346 0.930 . S
C1354 C1353 1.362 . S
C1354 C1357 1.409 . S
C1355 H1347 0.930 . S
C1355 C1356 1.355 . S
C1355 C1357 1.415 . S
C1356 C1355 1.355 . S
C1356 C1358 1.419 . S
C1357 C1352 1.425 . S
C1357 C1354 1.409 . S
C1357 C1355 1.415 . S
C1358 H1348 0.930 . S
C1358 C1356 1.419 . S
C1358 C1359 1.362 . S
C1359 H1349 0.930 . S
C1359 C1352 1.409 . S
C1359 C1358 1.362 . S
H1360 C1366 0.930 . S
H1361 C1369 0.930 . S
H1362 C1370 0.930 . S
H1363 C1371 0.930 . S
H1364 C1374 0.930 . S
H1365 C1375 0.930 . S
C1366 H1360 0.930 . S
C1366 C1367 1.355 . S
C1366 C1368 1.415 . S
C1367 C1366 1.355 . S
C1367 C1369 1.419 . S
C1368 C1366 1.415 . S
C1368 C1373 1.425 . S
C1368 C1375 1.409 . S
C1369 H1361 0.930 . S
C1369 C1367 1.419 . S
C1369 C1370 1.362 . S
C1370 H1362 0.930 . S
C1370 C1369 1.362 . S
C1370 C1373 1.409 . S
C1371 H1363 0.930 . S
C1371 C1372 1.355 . S
C1371 C1373 1.415 . S
C1372 C1371 1.355 . S
C1372 C1374 1.419 . S
C1373 C1368 1.425 . S
C1373 C1370 1.409 . S
C1373 C1371 1.415 . S
C1374 H1364 0.930 . S
C1374 C1372 1.419 . S
C1374 C1375 1.362 . S
C1375 H1365 0.930 . S
C1375 C1368 1.409 . S
C1375 C1374 1.362 . S
H1376 C1382 0.930 . S
H1377 C1385 0.930 . S
H1378 C1386 0.930 . S
H1379 C1387 0.930 . S
H1380 C1390 0.930 . S
H1381 C1391 0.930 . S
C1382 H1376 0.930 . S
C1382 C1383 1.355 . S
C1382 C1384 1.415 1_545 S
C1383 C1382 1.355 . S
C1383 C1385 1.419 . S
C1384 C1382 1.415 1_565 S
C1384 C1389 1.425 . S
C1384 C1391 1.409 . S
C1385 H1377 0.930 . S
C1385 C1383 1.419 . S
C1385 C1386 1.362 1_545 S
C1386 H1378 0.930 . S
C1386 C1385 1.362 1_565 S
C1386 C1389 1.409 . S
C1387 H1379 0.930 . S
C1387 C1388 1.355 . S
C1387 C1389 1.415 . S
C1388 C1387 1.355 . S
C1388 C1390 1.419 . S
C1389 C1384 1.425 . S
C1389 C1386 1.409 . S
C1389 C1387 1.415 . S
C1390 H1380 0.930 . S
C1390 C1388 1.419 . S
C1390 C1391 1.362 . S
C1391 H1381 0.930 . S
C1391 C1384 1.409 . S
C1391 C1390 1.362 . S
H1392 C1398 0.930 . S
H1393 C1401 0.930 . S
H1394 C1402 0.930 . S
H1395 C1403 0.930 . S
H1396 C1406 0.930 . S
H1397 C1407 0.930 . S
C1398 H1392 0.930 . S
C1398 C1399 1.355 . S
C1398 C1400 1.415 . S
C1399 C1398 1.355 . S
C1399 C1401 1.419 . S
C1400 C1398 1.415 . S
C1400 C1405 1.425 . S
C1400 C1407 1.409 . S
C1401 H1393 0.930 . S
C1401 C1399 1.419 . S
C1401 C1402 1.362 . S
C1402 H1394 0.930 . S
C1402 C1401 1.362 . S
C1402 C1405 1.409 . S
C1403 H1395 0.930 . S
C1403 C1404 1.355 . S
C1403 C1405 1.415 . S
C1404 C1403 1.355 . S
C1404 C1406 1.419 . S
C1405 C1400 1.425 . S
C1405 C1402 1.409 . S
C1405 C1403 1.415 . S
C1406 H1396 0.930 . S
C1406 C1404 1.419 . S
C1406 C1407 1.362 . S
C1407 H1397 0.930 . S
C1407 C1400 1.409 . S
C1407 C1406 1.362 . S
H1408 C1414 0.930 . S
H1409 C1417 0.930 . S
H1410 C1418 0.930 . S
H1411 C1419 0.930 . S
H1412 C1422 0.930 . S
H1413 C1423 0.930 . S
C1414 H1408 0.930 . S
C1414 C1415 1.355 . S
C1414 C1416 1.415 . S
C1415 C1414 1.355 . S
C1415 C1417 1.419 . S
C1416 C1414 1.415 . S
C1416 C1421 1.425 . S
C1416 C1423 1.409 . S
C1417 H1409 0.930 . S
C1417 C1415 1.419 . S
C1417 C1418 1.362 . S
C1418 H1410 0.930 . S
C1418 C1417 1.362 . S
C1418 C1421 1.409 . S
C1419 H1411 0.930 . S
C1419 C1420 1.355 . S
C1419 C1421 1.415 . S
C1420 C1419 1.355 . S
C1420 C1422 1.419 . S
C1421 C1416 1.425 . S
C1421 C1418 1.409 . S
C1421 C1419 1.415 . S
C1422 H1412 0.930 . S
C1422 C1420 1.419 . S
C1422 C1423 1.362 . S
C1423 H1413 0.930 . S
C1423 C1416 1.409 . S
C1423 C1422 1.362 . S
H1424 C1430 0.930 . S
H1425 C1433 0.930 . S
H1426 C1434 0.930 . S
H1427 C1435 0.930 . S
H1428 C1438 0.930 . S
H1429 C1439 0.930 . S
C1430 H1424 0.930 . S
C1430 C1431 1.355 . S
C1430 C1432 1.415 . S
C1431 C1430 1.355 . S
C1431 C1433 1.419 . S
C1432 C1430 1.415 . S
C1432 C1437 1.425 1_545 S
C1432 C1439 1.409 . S
C1433 H1425 0.930 . S
C1433 C1431 1.419 . S
C1433 C1434 1.362 1_545 S
C1434 H1426 0.930 . S
C1434 C1433 1.362 1_565 S
C1434 C1437 1.409 . S
C1435 H1427 0.930 . S
C1435 C1436 1.355 . S
C1435 C1437 1.415 . S
C1436 C1435 1.355 . S
C1436 C1438 1.419 . S
C1437 C1432 1.425 1_565 S
C1437 C1434 1.409 . S
C1437 C1435 1.415 . S
C1438 H1428 0.930 . S
C1438 C1436 1.419 . S
C1438 C1439 1.362 1_565 S
C1439 H1429 0.930 . S
C1439 C1432 1.409 . S
C1439 C1438 1.362 1_545 S
H1440 C1446 0.930 . S
H1441 C1449 0.930 . S
H1442 C1450 0.930 . S
H1443 C1451 0.930 . S
H1444 C1454 0.930 . S
H1445 C1455 0.930 . S
C1446 H1440 0.930 . S
C1446 C1447 1.355 . S
C1446 C1448 1.415 . S
C1447 C1446 1.355 . S
C1447 C1449 1.419 . S
C1448 C1446 1.415 . S
C1448 C1453 1.425 . S
C1448 C1455 1.409 . S
C1449 H1441 0.930 . S
C1449 C1447 1.419 . S
C1449 C1450 1.362 . S
C1450 H1442 0.930 . S
C1450 C1449 1.362 . S
C1450 C1453 1.409 . S
C1451 H1443 0.930 . S
C1451 C1452 1.355 . S
C1451 C1453 1.415 . S
C1452 C1451 1.355 . S
C1452 C1454 1.419 . S
C1453 C1448 1.425 . S
C1453 C1450 1.409 . S
C1453 C1451 1.415 . S
C1454 H1444 0.930 . S
C1454 C1452 1.419 . S
C1454 C1455 1.362 . S
C1455 H1445 0.930 . S
C1455 C1448 1.409 . S
C1455 C1454 1.362 . S
C951 C52 1.546 . S
C956 C819 1.538 . S
C967 C111 1.542 . S
C972 C583 1.528 . S
C983 C878 1.108 . S
C988 C170 1.070 . S
C999 C229 1.121 . S
C1004 C937 1.098 . S
C1015 C288 1.539 . S
C1020 C406 1.513 . S
C1031 C642 1.540 . S
C1036 C347 1.521 . S
C1047 C701 1.119 . S
C1052 C465 1.099 . S
C1063 C524 1.105 . S
C1068 C760 1.085 . S
C1079 C121 1.520 . S
C1084 C3 1.524 . S
C1095 C62 1.503 . S
C1100 C180 1.477 . S
C1111 C713 1.553 . S
C1116 C5 1.590 . S
C1127 C64 1.620 . S
C1132 C654 1.557 . S
C1143 C241 1.596 . S
C1148 C123 1.530 . S
C1159 C595 1.609 . S
C1164 C182 1.594 . S
C1175 C92 2.109 . S
C1180 C33 2.121 . S
C1191 C210 1.572 . S
C1196 C151 1.579 . S
C1207 C623 2.122 . S
C1212 C269 2.113 . S
C1223 C418 1.787 . S
C1228 C328 1.809 . S
C1239 C387 1.812 . S
C1244 C477 1.791 . S
C1255 C888 1.655 . S
C1260 C300 1.661 . S
C1271 C359 1.676 . S
C1276 C829 1.620 . S
C1287 C536 1.675 . S
C1292 C416 1.623 . S
C1303 C475 1.626 . S
C1308 C772 1.668 . S
C1319 C357 1.176 . S
C1324 C298 1.141 . S
C1335 C505 1.840 . S
C1340 C446 1.823 . S
C1351 C534 1.144 . S
C1356 C770 1.162 . S
C1367 C593 1.478 . S
C1372 C652 1.477 . S
C1383 C711 1.489 . S
C1388 C239 1.486 . S
C1399 C741 1.583 . S
C1404 C682 1.585 . S
C1415 C831 1.824 . S
C1420 C800 1.836 . S
C1431 C564 1.836 . S
C1436 C890 1.824 . S
C1447 C918 1.840 . S
C1452 C859 1.850 . S
