# Generated by pormake.
# Topology wjh, (4)-cn, num edge types: 1
# Building blocks:
#     Node 0, Type 0, BuildingBlock: NAHDIM_clean_sbu_0, # of connection points: 4
#     Node 1, Type 0, BuildingBlock: NAHDIM_clean_sbu_0, # of connection points: 4
#     Node 2, Type 0, BuildingBlock: NAHDIM_clean_sbu_0, # of connection points: 4
#     Node 3, Type 0, BuildingBlock: NAHDIM_clean_sbu_0, # of connection points: 4
#     Node 4, Type 0, BuildingBlock: NAHDIM_clean_sbu_0, # of connection points: 4
#     Node 5, Type 0, BuildingBlock: NAHDIM_clean_sbu_0, # of connection points: 4
#     Node 6, Type 0, BuildingBlock: NAHDIM_clean_sbu_0, # of connection points: 4
#     Node 7, Type 0, BuildingBlock: NAHDIM_clean_sbu_0, # of connection points: 4
#     Node 8, Type 0, BuildingBlock: NAHDIM_clean_sbu_0, # of connection points: 4
#     Node 9, Type 0, BuildingBlock: NAHDIM_clean_sbu_0, # of connection points: 4
#     Node 10, Type 0, BuildingBlock: NAHDIM_clean_sbu_0, # of connection points: 4
#     Node 11, Type 0, BuildingBlock: NAHDIM_clean_sbu_0, # of connection points: 4
#     Edge 12, Type (0, 0), BuildingBlock: UVAHIK_clean_linker_0, # of connection points: 2
#     Edge 13, Type (0, 0), BuildingBlock: UVAHIK_clean_linker_0, # of connection points: 2
#     Edge 14, Type (0, 0), BuildingBlock: UVAHIK_clean_linker_0, # of connection points: 2
#     Edge 15, Type (0, 0), BuildingBlock: UVAHIK_clean_linker_0, # of connection points: 2
#     Edge 16, Type (0, 0), BuildingBlock: UVAHIK_clean_linker_0, # of connection points: 2
#     Edge 17, Type (0, 0), BuildingBlock: UVAHIK_clean_linker_0, # of connection points: 2
#     Edge 18, Type (0, 0), BuildingBlock: UVAHIK_clean_linker_0, # of connection points: 2
#     Edge 19, Type (0, 0), BuildingBlock: UVAHIK_clean_linker_0, # of connection points: 2
#     Edge 20, Type (0, 0), BuildingBlock: UVAHIK_clean_linker_0, # of connection points: 2
#     Edge 21, Type (0, 0), BuildingBlock: UVAHIK_clean_linker_0, # of connection points: 2
#     Edge 22, Type (0, 0), BuildingBlock: UVAHIK_clean_linker_0, # of connection points: 2
#     Edge 23, Type (0, 0), BuildingBlock: UVAHIK_clean_linker_0, # of connection points: 2
#     Edge 24, Type (0, 0), BuildingBlock: UVAHIK_clean_linker_0, # of connection points: 2
#     Edge 25, Type (0, 0), BuildingBlock: UVAHIK_clean_linker_0, # of connection points: 2
#     Edge 26, Type (0, 0), BuildingBlock: UVAHIK_clean_linker_0, # of connection points: 2
#     Edge 27, Type (0, 0), BuildingBlock: UVAHIK_clean_linker_0, # of connection points: 2
#     Edge 28, Type (0, 0), BuildingBlock: UVAHIK_clean_linker_0, # of connection points: 2
#     Edge 29, Type (0, 0), BuildingBlock: UVAHIK_clean_linker_0, # of connection points: 2
#     Edge 30, Type (0, 0), BuildingBlock: UVAHIK_clean_linker_0, # of connection points: 2
#     Edge 31, Type (0, 0), BuildingBlock: UVAHIK_clean_linker_0, # of connection points: 2
#     Edge 32, Type (0, 0), BuildingBlock: UVAHIK_clean_linker_0, # of connection points: 2
#     Edge 33, Type (0, 0), BuildingBlock: UVAHIK_clean_linker_0, # of connection points: 2
#     Edge 34, Type (0, 0), BuildingBlock: UVAHIK_clean_linker_0, # of connection points: 2
#     Edge 35, Type (0, 0), BuildingBlock: UVAHIK_clean_linker_0, # of connection points: 2
# Relax obj value: 0.145
# Max RMSD: 0.134
# Mean RMSD: 0.134
data_MOF--net-wjh--node1-NAHDIM_clean_sbu_0--edge1-UVAHIK_clean_linker_0
_symmetry_space_group_name_H-M    P1
_symmetry_Int_Tables_number       1
_symmetry_cell_setting            triclinic
loop_
_symmetry_equiv_pos_as_xyz
'x, y, z'
_cell_length_a     81.416173
_cell_length_b     81.300477
_cell_length_c     31.026048
_cell_angle_alpha  90.007082
_cell_angle_beta   89.935723
_cell_angle_gamma 120.01304
loop_
_atom_site_label
_atom_site_type_symbol
_atom_site_fract_x
_atom_site_fract_y
_atom_site_fract_z
_atom_type_partial_charge
C0 C 0.47281 0.1512 0.08808 0.0
O1 O 0.47546 0.14857 0.04745 0.0
O2 O 0.49211 0.12255 0.04904 0.0
Zn3 Zn 0.47813 0.11887 0.10504 0.0
O4 O 0.49418 0.11833 0.1538 0.0
C5 C 0.44242 0.08756 0.07269 0.0
O6 O 0.44688 0.09713 0.03633 0.0
O7 O 0.47326 0.14026 0.11667 0.0
C8 C 0.4905 0.10304 0.17296 0.0
O9 O 0.47598 0.08689 0.16021 0.0
C10 C 0.49911 0.11196 0.04119 0.0
O11 O 0.49663 0.09884 0.06934 0.0
O12 O 0.45345 0.09433 0.10482 0.0
C13 C 0.32068 0.49037 0.23636 0.0
O14 O 0.33369 0.5046 0.21376 0.0
O15 O 0.36418 0.4944 0.19417 0.0
Zn16 Zn 0.35066 0.48168 0.24952 0.0
O17 O 0.3658 0.49765 0.29965 0.0
C18 C 0.34902 0.44638 0.22474 0.0
O19 O 0.34936 0.45233 0.1852 0.0
O20 O 0.32461 0.47852 0.25316 0.0
C21 C 0.38135 0.49847 0.30927 0.0
O22 O 0.38726 0.48899 0.28578 0.0
C23 C 0.37449 0.51238 0.19239 0.0
O24 O 0.37582 0.52253 0.22655 0.0
O25 O 0.34902 0.45637 0.25621 0.0
C26 C 0.83561 0.32172 0.41977 0.0
O27 O 0.84134 0.32269 0.37976 0.0
O28 O 0.86853 0.3701 0.37557 0.0
Zn29 Zn 0.86971 0.35905 0.4327 0.0
O30 O 0.87292 0.37718 0.48007 0.0
C31 C 0.90086 0.35428 0.40229 0.0
O32 O 0.8952 0.35613 0.36388 0.0
O33 O 0.84551 0.33515 0.4457 0.0
C34 C 0.88139 0.39516 0.47662 0.0
O35 O 0.88899 0.40315 0.43953 0.0
C36 C 0.85609 0.37487 0.36883 0.0
O37 O 0.84366 0.37194 0.39921 0.0
O38 O 0.89182 0.35462 0.43535 0.0
C39 C 0.51254 0.83726 0.56761 0.0
O40 O 0.51082 0.84023 0.52667 0.0
O41 O 0.49717 0.86973 0.52794 0.0
Zn42 Zn 0.50942 0.87113 0.58513 0.0
O43 O 0.49279 0.87128 0.63259 0.0
C44 C 0.54589 0.90284 0.55874 0.0
O45 O 0.54183 0.89436 0.52103 0.0
O46 O 0.51264 0.84864 0.59577 0.0
C47 C 0.48358 0.88007 0.63039 0.0
O48 O 0.48464 0.88955 0.59521 0.0
C49 C 0.48003 0.85707 0.52115 0.0
O50 O 0.47069 0.84444 0.55131 0.0
O51 O 0.53434 0.89526 0.58983 0.0
C52 C 0.663 0.49622 0.7287 0.0
O53 O 0.64888 0.48072 0.71214 0.0
O54 O 0.62059 0.49079 0.68289 0.0
Zn55 Zn 0.63402 0.50601 0.7361 0.0
O56 O 0.62017 0.49291 0.79036 0.0
C57 C 0.63706 0.54124 0.703 0.0
O58 O 0.6393 0.53557 0.66491 0.0
O59 O 0.6602 0.50961 0.74021 0.0
C60 C 0.60301 0.4884 0.79679 0.0
O61 O 0.59368 0.49155 0.76642 0.0
C62 C 0.60831 0.47319 0.68458 0.0
O63 O 0.60406 0.46443 0.72196 0.0
O64 O 0.63508 0.53114 0.73593 0.0
C65 C 0.15322 0.66617 0.91871 0.0
O66 O 0.15601 0.65402 0.89651 0.0
O67 O 0.11859 0.62214 0.87371 0.0
Zn68 Zn 0.116 0.63384 0.9286 0.0
O69 O 0.11729 0.61921 0.97941 0.0
C70 C 0.08447 0.63936 0.90313 0.0
O71 O 0.09444 0.64749 0.86829 0.0
O72 O 0.13692 0.66079 0.93457 0.0
C73 C 0.1112 0.6213 0.01557 0.0
O74 O 0.10458 0.63305 0.01844 0.0
C75 C 0.10957 0.60418 0.86963 0.0
O76 O 0.09836 0.59371 0.90102 0.0
O77 O 0.09096 0.63275 0.9312 0.0
C78 C 0.82402 0.4895 0.89381 0.0
O79 O 0.82583 0.47454 0.88686 0.0
O80 O 0.85798 0.48872 0.98194 0.0
Zn81 Zn 0.86098 0.50321 0.92712 0.0
O82 O 0.86612 0.49021 0.87821 0.0
C83 C 0.89219 0.53795 0.96413 0.0
O84 O 0.88693 0.52896 0.00118 0.0
O85 O 0.83732 0.50382 0.91277 0.0
C86 C 0.87225 0.49886 0.84256 0.0
O87 O 0.87543 0.5163 0.83872 0.0
C88 C 0.86962 0.48292 0.98903 0.0
O89 O 0.88319 0.48691 0.96089 0.0
O90 O 0.88298 0.52981 0.93023 0.0
C91 C 0.31494 0.83543 0.07753 0.0
O92 O 0.31346 0.84844 0.09953 0.0
O93 O 0.36699 0.85896 0.13705 0.0
Zn94 Zn 0.35573 0.86159 0.0816 0.0
O95 O 0.37345 0.86521 0.03289 0.0
C96 C 0.35186 0.89302 0.11613 0.0
O97 O 0.35341 0.88684 0.15417 0.0
O98 O 0.33127 0.83805 0.06816 0.0
C99 C 0.37112 0.87134 0.99707 0.0
O100 O 0.35741 0.87533 0.99337 0.0
C101 C 0.38417 0.87116 0.14507 0.0
O102 O 0.39358 0.88505 0.11749 0.0
O103 O 0.35215 0.88428 0.08249 0.0
C104 C 0.47697 0.31958 0.24233 0.0
O105 O 0.47367 0.32124 0.28311 0.0
O106 O 0.4995 0.36758 0.29138 0.0
Zn107 Zn 0.48564 0.35883 0.2348 0.0
O108 O 0.49989 0.37721 0.18695 0.0
C109 C 0.45052 0.3535 0.27304 0.0
O110 O 0.45698 0.35042 0.30912 0.0
O111 O 0.48221 0.33366 0.21721 0.0
C112 C 0.51172 0.39482 0.19105 0.0
O113 O 0.51576 0.40255 0.22957 0.0
C114 C 0.51725 0.37402 0.29444 0.0
O115 O 0.52692 0.37462 0.25997 0.0
O116 O 0.46025 0.35701 0.23875 0.0
C117 C 0.15983 0.50003 0.3936 0.0
O118 O 0.15844 0.51502 0.384 0.0
O119 O 0.12357 0.49949 0.4825 0.0
Zn120 Zn 0.12262 0.48768 0.42477 0.0
O121 O 0.1202 0.50324 0.37756 0.0
C122 C 0.09348 0.45012 0.45288 0.0
O123 O 0.10272 0.45489 0.48964 0.0
O124 O 0.14618 0.48621 0.41321 0.0
C125 C 0.11018 0.51117 0.37985 0.0
O126 O 0.1004 0.50927 0.41505 0.0
C127 C 0.13359 0.51732 0.48826 0.0
O128 O 0.14403 0.52811 0.45634 0.0
O129 O 0.09966 0.46172 0.42153 0.0
C130 C 0.65889 0.16758 0.5753 0.0
O131 O 0.64298 0.16744 0.5673 0.0
O132 O 0.62092 0.12964 0.65734 0.0
Zn133 Zn 0.63291 0.12941 0.60063 0.0
O134 O 0.61572 0.12764 0.55238 0.0
C135 C 0.63501 0.09624 0.62816 0.0
O136 O 0.63242 0.10099 0.66699 0.0
O137 O 0.65819 0.1529 0.59159 0.0
C138 C 0.60082 0.11207 0.54362 0.0
O139 O 0.59645 0.09699 0.56718 0.0
C140 C 0.61144 0.13812 0.66099 0.0
O141 O 0.61017 0.14742 0.62774 0.0
O142 O 0.63604 0.10649 0.59623 0.0
C143 C 0.49073 0.66109 0.72401 0.0
O144 O 0.47385 0.64588 0.72089 0.0
O145 O 0.48786 0.62226 0.80272 0.0
Zn146 Zn 0.50099 0.63334 0.74617 0.0
O147 O 0.48491 0.61652 0.69755 0.0
C148 C 0.5356 0.63383 0.77492 0.0
O149 O 0.52865 0.63183 0.81404 0.0
O150 O 0.50463 0.65929 0.73621 0.0
C151 C 0.48917 0.60548 0.67772 0.0
O152 O 0.5042 0.60464 0.68971 0.0
C153 C 0.48123 0.6046 0.80916 0.0
O154 O 0.48354 0.59447 0.77932 0.0
O155 O 0.52644 0.63507 0.74322 0.0
C156 C 0.49751 0.08677 0.23271 0.0
C157 C 0.50213 0.10349 0.20999 0.0
C158 C 0.50818 0.08729 0.26845 0.0
C159 C 0.55476 0.11628 0.32028 0.0
H160 H 0.52868 0.08816 0.4231 0.0
C161 C 0.59353 0.12711 0.4818 0.0
C162 C 0.58899 0.11084 0.5063 0.0
C163 C 0.58276 0.12591 0.44571 0.0
C164 C 0.53618 0.09591 0.39447 0.0
H165 H 0.52169 0.13387 0.20675 0.0
H166 H 0.54023 0.13478 0.26922 0.0
H167 H 0.51037 0.08648 0.35937 0.0
H168 H 0.56948 0.08055 0.51231 0.0
H169 H 0.55079 0.07843 0.44898 0.0
H170 H 0.58056 0.12572 0.35529 0.0
C171 C 0.52846 0.12123 0.25916 0.0
C172 C 0.5257 0.09495 0.35798 0.0
C173 C 0.51777 0.12072 0.2235 0.0
C174 C 0.57332 0.09337 0.49419 0.0
C175 C 0.56256 0.09216 0.45801 0.0
C176 C 0.56524 0.11722 0.35672 0.0
C177 C 0.52373 0.10454 0.28214 0.0
C178 C 0.53488 0.10519 0.32056 0.0
C179 C 0.56723 0.1084 0.43322 0.0
C180 C 0.55607 0.10712 0.39431 0.0
H181 H 0.48557 0.07325 0.22308 0.0
H182 H 0.50434 0.07416 0.2852 0.0
H183 H 0.56225 0.1241 0.2917 0.0
H184 H 0.60545 0.14082 0.49039 0.0
H185 H 0.58655 0.13874 0.42773 0.0
C186 C 0.38653 0.52041 0.37098 0.0
C187 C 0.39249 0.50971 0.3468 0.0
C188 C 0.39691 0.5308 0.4068 0.0
C189 C 0.44434 0.5517 0.45673 0.0
H190 H 0.41769 0.55197 0.56021 0.0
C191 C 0.48297 0.58266 0.61744 0.0
C192 C 0.47762 0.59404 0.64083 0.0
C193 C 0.47241 0.57226 0.58182 0.0
C194 C 0.42532 0.55218 0.5314 0.0
H195 H 0.41402 0.50154 0.34124 0.0
H196 H 0.43199 0.51949 0.40403 0.0
H197 H 0.39967 0.53413 0.49723 0.0
H198 H 0.45687 0.60329 0.64545 0.0
H199 H 0.43847 0.58516 0.58314 0.0
H200 H 0.46999 0.56968 0.491 0.0
C201 C 0.41944 0.52006 0.39496 0.0
C202 C 0.41501 0.54199 0.49531 0.0
C203 C 0.40908 0.50969 0.35909 0.0
C204 C 0.46136 0.59464 0.62813 0.0
C205 C 0.45076 0.58418 0.59258 0.0
C206 C 0.45464 0.56186 0.49284 0.0
C207 C 0.41345 0.53071 0.41927 0.0
C208 C 0.4244 0.54162 0.45757 0.0
C209 C 0.45624 0.57297 0.5689 0.0
C210 C 0.44525 0.56219 0.53057 0.0
H211 H 0.37384 0.52078 0.36226 0.0
H212 H 0.39206 0.53907 0.42448 0.0
H213 H 0.452 0.55197 0.42794 0.0
H214 H 0.49539 0.58184 0.62643 0.0
H215 H 0.47684 0.56355 0.56457 0.0
C216 C 0.86988 0.46988 0.80835 0.0
C217 C 0.87493 0.48909 0.80533 0.0
C218 C 0.87157 0.46039 0.77264 0.0
C219 C 0.89521 0.46764 0.66737 0.0
H220 H 0.85301 0.41735 0.6432 0.0
C221 C 0.88924 0.42639 0.50998 0.0
C222 C 0.88211 0.40675 0.51406 0.0
C223 C 0.88913 0.43705 0.54528 0.0
C224 C 0.86502 0.43128 0.64976 0.0
H225 H 0.88612 0.51352 0.76272 0.0
H226 H 0.88903 0.49687 0.70029 0.0
H227 H 0.85164 0.43477 0.70555 0.0
H228 H 0.86977 0.383 0.5587 0.0
H229 H 0.86985 0.40156 0.6201 0.0
H230 H 0.90862 0.46405 0.61156 0.0
C231 C 0.88385 0.48921 0.73038 0.0
C232 C 0.86422 0.44126 0.68549 0.0
C233 C 0.88209 0.49871 0.76608 0.0
C234 C 0.87522 0.39807 0.55431 0.0
C235 C 0.87516 0.4087 0.58951 0.0
C236 C 0.89604 0.4576 0.63162 0.0
C237 C 0.87841 0.46989 0.73317 0.0
C238 C 0.87934 0.4595 0.69484 0.0
C239 C 0.8819 0.42826 0.58533 0.0
C240 C 0.88099 0.43925 0.62259 0.0
H241 H 0.8644 0.46208 0.83816 0.0
H242 H 0.86752 0.44557 0.77593 0.0
H243 H 0.90713 0.48162 0.67399 0.0
H244 H 0.89464 0.43349 0.47937 0.0
H245 H 0.89429 0.45207 0.54094 0.0
C246 C 0.47247 0.87111 0.70637 0.0
C247 C 0.47192 0.87964 0.66742 0.0
C248 C 0.46154 0.87062 0.74151 0.0
C249 C 0.43579 0.89341 0.78649 0.0
H250 H 0.41167 0.84796 0.85714 0.0
C251 C 0.38127 0.88102 0.92066 0.0
C252 C 0.38319 0.8733 0.95959 0.0
C253 C 0.39225 0.88231 0.8848 0.0
C254 C 0.41847 0.86082 0.83795 0.0
H255 H 0.45943 0.89432 0.63476 0.0
H256 H 0.44003 0.89317 0.69604 0.0
H257 H 0.43012 0.84899 0.79433 0.0
H258 H 0.39833 0.86113 0.99162 0.0
H259 H 0.41747 0.86337 0.92898 0.0
H260 H 0.42391 0.90511 0.83012 0.0
C261 C 0.44917 0.88712 0.69957 0.0
C262 C 0.42906 0.86143 0.80198 0.0
C263 C 0.4602 0.88769 0.66439 0.0
C264 C 0.39647 0.86709 0.96207 0.0
C265 C 0.40736 0.86828 0.92614 0.0
C266 C 0.4251 0.89275 0.8224 0.0
C267 C 0.4497 0.87854 0.73851 0.0
C268 C 0.43796 0.87777 0.77599 0.0
C269 C 0.40528 0.87579 0.88708 0.0
C270 C 0.41644 0.87649 0.84865 0.0
H271 H 0.48145 0.86488 0.70991 0.0
H272 H 0.46256 0.86421 0.77125 0.0
H273 H 0.44267 0.9063 0.76748 0.0
H274 H 0.37118 0.88594 0.91772 0.0
H275 H 0.39024 0.88802 0.85501 0.0
C276 C 0.51231 0.40046 0.11191 0.0
C277 C 0.52103 0.40632 0.15242 0.0
C278 C 0.52127 0.41091 0.07496 0.0
C279 C 0.56715 0.44027 0.02814 0.0
H280 H 0.54198 0.45756 0.9494 0.0
C281 C 0.60477 0.48281 0.87532 0.0
C282 C 0.59378 0.4799 0.83825 0.0
C283 C 0.59611 0.47502 0.91479 0.0
C284 C 0.54913 0.45258 0.97061 0.0
H285 H 0.54592 0.42767 0.18616 0.0
H286 H 0.56192 0.44567 0.12093 0.0
H287 H 0.52631 0.44175 0.01637 0.0
H288 H 0.56516 0.46638 0.81309 0.0
H289 H 0.55001 0.45195 0.88135 0.0
H290 H 0.58952 0.45006 0.98191 0.0
C291 C 0.54802 0.43312 0.11816 0.0
C292 C 0.54019 0.4437 0.00912 0.0
C293 C 0.53886 0.42289 0.15534 0.0
C294 C 0.57396 0.46895 0.84127 0.0
C295 C 0.56529 0.46081 0.88057 0.0
C296 C 0.57594 0.4488 0.98925 0.0
C297 C 0.53928 0.42717 0.07772 0.0
C298 C 0.54912 0.43745 0.0381 0.0
C299 C 0.57625 0.46379 0.91795 0.0
C300 C 0.56703 0.45504 0.95985 0.0
H301 H 0.49853 0.38778 0.10876 0.0
H302 H 0.51433 0.40601 0.04403 0.0
H303 H 0.57418 0.43533 0.04985 0.0
H304 H 0.6201 0.49139 0.87401 0.0
H305 H 0.60504 0.47802 0.94287 0.0
C306 C 0.11948 0.52354 0.30478 0.0
C307 C 0.10992 0.52268 0.34322 0.0
C308 C 0.11956 0.53455 0.27022 0.0
C309 C 0.09416 0.55761 0.22503 0.0
H310 H 0.14035 0.5859 0.1583 0.0
C311 C 0.10284 0.6114 0.09255 0.0
C312 C 0.11128 0.61047 0.05377 0.0
C313 C 0.10269 0.601 0.12854 0.0
C314 C 0.1273 0.57795 0.17641 0.0
H315 H 0.09295 0.53271 0.37551 0.0
H316 H 0.09332 0.5522 0.31524 0.0
H317 H 0.14004 0.56735 0.2203 0.0
H318 H 0.12626 0.59795 0.0224 0.0
H319 H 0.12601 0.57983 0.08531 0.0
H320 H 0.08149 0.56835 0.18111 0.0
C321 C 0.10052 0.54412 0.31167 0.0
C322 C 0.1271 0.5673 0.2119 0.0
C323 C 0.10038 0.53303 0.34628 0.0
C324 C 0.11966 0.599 0.05181 0.0
C325 C 0.11961 0.5887 0.0879 0.0
C326 C 0.09439 0.56834 0.18961 0.0
C327 C 0.11017 0.54505 0.27329 0.0
C328 C 0.11049 0.55688 0.23644 0.0
C329 C 0.11109 0.58956 0.1266 0.0
C330 C 0.11093 0.57851 0.16477 0.0
H331 H 0.1269 0.51567 0.30124 0.0
H332 H 0.12683 0.53466 0.24088 0.0
H333 H 0.08106 0.54955 0.24287 0.0
H334 H 0.09626 0.6201 0.09513 0.0
H335 H 0.09618 0.60209 0.15807 0.0
C336 C 0.47702 0.29968 0.18103 0.0
C337 C 0.47465 0.30155 0.22531 0.0
C338 C 0.47516 0.28286 0.16465 0.0
C339 C 0.45561 0.23196 0.18934 0.0
H340 H 0.49249 0.23586 0.10466 0.0
C341 C 0.46672 0.16942 0.14455 0.0
C342 C 0.47034 0.16731 0.10118 0.0
C343 C 0.4655 0.18518 0.15777 0.0
C344 C 0.48191 0.23452 0.12777 0.0
H345 H 0.46829 0.28715 0.28708 0.0
H346 H 0.46532 0.2578 0.25849 0.0
H347 H 0.49397 0.26461 0.13216 0.0
H348 H 0.47498 0.17982 0.03742 0.0
H349 H 0.47281 0.2074 0.06059 0.0
H350 H 0.44377 0.20182 0.18538 0.0
C351 C 0.46837 0.26929 0.23639 0.0
C352 C 0.48276 0.25099 0.14359 0.0
C353 C 0.47018 0.28614 0.25281 0.0
C354 C 0.47225 0.18107 0.07109 0.0
C355 C 0.4711 0.1969 0.08438 0.0
C356 C 0.45479 0.21547 0.17356 0.0
C357 C 0.47095 0.26752 0.19214 0.0
C358 C 0.46969 0.24992 0.17473 0.0
C359 C 0.46792 0.19921 0.12795 0.0
C360 C 0.46801 0.21659 0.14282 0.0
H361 H 0.48034 0.31122 0.15886 0.0
H362 H 0.47694 0.28184 0.13032 0.0
H363 H 0.44516 0.23065 0.21279 0.0
H364 H 0.46513 0.15906 0.16857 0.0
H365 H 0.46325 0.18665 0.19163 0.0
C366 C 0.28895 0.4748 0.27274 0.0
C367 C 0.30249 0.48945 0.24656 0.0
C368 C 0.27273 0.47507 0.28632 0.0
C369 C 0.2564 0.50881 0.30747 0.0
H370 H 0.2064 0.464 0.31326 0.0
C371 C 0.19018 0.51316 0.35247 0.0
C372 C 0.17639 0.49875 0.37861 0.0
C373 C 0.20533 0.51163 0.33616 0.0
C374 C 0.22033 0.47659 0.31236 0.0
H375 H 0.30917 0.51535 0.21239 0.0
H376 H 0.2808 0.51575 0.23598 0.0
H377 H 0.23281 0.46162 0.2827 0.0
H378 H 0.16783 0.47156 0.40877 0.0
H379 H 0.19457 0.46907 0.38094 0.0
H380 H 0.24411 0.52376 0.33757 0.0
C381 C 0.2829 0.50423 0.24649 0.0
C382 C 0.23541 0.47523 0.29471 0.0
C383 C 0.29908 0.50392 0.23278 0.0
C384 C 0.17821 0.48288 0.38863 0.0
C385 C 0.19345 0.48139 0.37242 0.0
C386 C 0.24137 0.51015 0.32527 0.0
C387 C 0.26976 0.49002 0.2741 0.0
C388 C 0.25358 0.49136 0.29195 0.0
C389 C 0.20712 0.49571 0.3458 0.0
C390 C 0.22315 0.49408 0.32779 0.0
H391 H 0.29113 0.46341 0.28383 0.0
H392 H 0.2629 0.46399 0.30777 0.0
H393 H 0.27033 0.5214 0.30659 0.0
H394 H 0.18914 0.52552 0.34389 0.0
H395 H 0.21544 0.52278 0.31524 0.0
C396 C 0.67796 0.20007 0.54348 0.0
C397 C 0.67723 0.1839 0.56176 0.0
C398 C 0.69507 0.21498 0.52802 0.0
C399 C 0.74196 0.22564 0.48832 0.0
H400 H 0.75573 0.2779 0.51089 0.0
C401 C 0.80625 0.29012 0.40753 0.0
C402 C 0.81752 0.30546 0.43488 0.0
C403 C 0.78899 0.27504 0.42221 0.0
C404 C 0.75211 0.26338 0.50445 0.0
H405 H 0.69397 0.17086 0.57886 0.0
H406 H 0.72387 0.19698 0.5521 0.0
H407 H 0.72609 0.25217 0.53966 0.0
H408 H 0.81961 0.3169 0.49922 0.0
H409 H 0.78972 0.29068 0.52461 0.0
H410 H 0.76816 0.2369 0.45361 0.0
C411 C 0.71114 0.19799 0.54929 0.0
C412 C 0.73506 0.24865 0.5206 0.0
C413 C 0.69405 0.18311 0.56492 0.0
C414 C 0.81126 0.30535 0.4772 0.0
C415 C 0.79405 0.29037 0.49174 0.0
C416 C 0.75899 0.24039 0.47197 0.0
C417 C 0.7118 0.21401 0.53038 0.0
C418 C 0.72985 0.22963 0.51291 0.0
C419 C 0.78268 0.27511 0.4644 0.0
C420 C 0.7643 0.2594 0.48015 0.0
H421 H 0.66526 0.20111 0.54049 0.0
H422 H 0.69511 0.22708 0.51331 0.0
H423 H 0.7382 0.21111 0.48145 0.0
H424 H 0.81068 0.28979 0.37477 0.0
H425 H 0.78045 0.26349 0.40035 0.0
C426 C 0.51169 0.80655 0.55174 0.0
C427 C 0.51296 0.82009 0.5817 0.0
C428 C 0.51086 0.78979 0.56581 0.0
C429 C 0.51981 0.76775 0.66105 0.0
H430 H 0.48303 0.7205 0.60707 0.0
C431 C 0.51232 0.69554 0.70764 0.0
C432 C 0.49386 0.67979 0.70968 0.0
C433 C 0.51544 0.71288 0.69135 0.0
C434 C 0.49327 0.73356 0.62269 0.0
H435 H 0.51475 0.82685 0.64988 0.0
H436 H 0.51302 0.79768 0.67422 0.0
H437 H 0.48757 0.75051 0.5792 0.0
H438 H 0.46417 0.67002 0.69719 0.0
H439 H 0.46959 0.7004 0.66962 0.0
H440 H 0.52502 0.75078 0.7055 0.0
C441 C 0.51294 0.80004 0.63988 0.0
C442 C 0.49608 0.75079 0.6063 0.0
C443 C 0.51381 0.81674 0.62587 0.0
C444 C 0.47857 0.68186 0.6959 0.0
C445 C 0.48169 0.69923 0.67974 0.0
C446 C 0.51696 0.75053 0.67751 0.0
C447 C 0.51128 0.78628 0.61009 0.0
C448 C 0.50925 0.76807 0.62555 0.0
C449 C 0.50018 0.71489 0.6769 0.0
C450 C 0.50354 0.73323 0.65876 0.0
H451 H 0.51108 0.80874 0.51749 0.0
H452 H 0.50982 0.77956 0.54202 0.0
H453 H 0.53023 0.78082 0.67632 0.0
H454 H 0.52443 0.6944 0.71783 0.0
H455 H 0.52988 0.7246 0.6892 0.0
C456 C 0.68391 0.48187 0.72746 0.0
C457 C 0.68118 0.4971 0.73848 0.0
C458 C 0.70016 0.48167 0.74087 0.0
C459 C 0.74859 0.51158 0.78398 0.0
H460 H 0.73981 0.46417 0.8343 0.0
C461 C 0.80548 0.50622 0.88383 0.0
C462 C 0.80746 0.49021 0.87676 0.0
C463 C 0.79032 0.50725 0.86576 0.0
C464 C 0.74256 0.47745 0.81989 0.0
H465 H 0.69376 0.52448 0.77049 0.0
H466 H 0.72207 0.52403 0.79418 0.0
H467 H 0.71347 0.46598 0.80242 0.0
H468 H 0.79502 0.46271 0.84537 0.0
H469 H 0.7687 0.4646 0.81358 0.0
H470 H 0.7777 0.52305 0.80172 0.0
C471 C 0.71169 0.51231 0.77496 0.0
C472 C 0.72746 0.47848 0.80155 0.0
C473 C 0.69543 0.51252 0.76153 0.0
C474 C 0.79385 0.47519 0.85166 0.0
C475 C 0.77873 0.47624 0.83353 0.0
C476 C 0.76372 0.51054 0.80229 0.0
C477 C 0.71402 0.49669 0.76556 0.0
C478 C 0.7303 0.49556 0.78348 0.0
C479 C 0.77683 0.49232 0.84021 0.0
C480 C 0.76084 0.49347 0.82055 0.0
H481 H 0.67328 0.46985 0.7094 0.0
H482 H 0.70175 0.46961 0.73245 0.0
H483 H 0.75124 0.52488 0.76992 0.0
H484 H 0.81571 0.51802 0.9031 0.0
H485 H 0.78909 0.5197 0.87203 0.0
C486 C 0.18758 0.69081 0.91391 0.0
C487 C 0.16926 0.68519 0.92912 0.0
C488 C 0.20307 0.70793 0.92742 0.0
C489 C 0.21702 0.75406 0.97896 0.0
H490 H 0.26081 0.7508 0.01574 0.0
C491 C 0.2796 0.81441 0.07296 0.0
C492 C 0.2979 0.81836 0.06122 0.0
C493 C 0.2636 0.79846 0.05631 0.0
C494 C 0.24881 0.75204 0.00515 0.0
H495 H 0.15269 0.69356 0.96884 0.0
H496 H 0.17977 0.72337 0.99262 0.0
H497 H 0.23363 0.72303 0.98503 0.0
H498 H 0.31374 0.80878 0.02248 0.0
H499 H 0.28597 0.7813 0.9931 0.0
H500 H 0.23229 0.78314 0.99912 0.0
C501 C 0.18214 0.71458 0.9701 0.0
C502 C 0.23323 0.73612 0.98748 0.0
C503 C 0.16664 0.69745 0.95661 0.0
C504 C 0.29986 0.80607 0.03254 0.0
C505 C 0.28392 0.79024 0.01579 0.0
C506 C 0.23267 0.77005 0.99653 0.0
C507 C 0.20056 0.71979 0.95638 0.0
C508 C 0.2172 0.73696 0.9741 0.0
C509 C 0.26561 0.78621 0.02752 0.0
C510 C 0.24876 0.76921 0.00971 0.0
H511 H 0.19006 0.68177 0.89241 0.0
H512 H 0.21708 0.71175 0.91571 0.0
H513 H 0.20489 0.75514 0.96866 0.0
H514 H 0.27764 0.82361 0.09503 0.0
H515 H 0.24967 0.79561 0.06636 0.0
C516 C 0.59104 0.14646 0.70586 0.0
C517 C 0.60098 0.13655 0.70126 0.0
C518 C 0.58039 0.14426 0.74298 0.0
C519 C 0.55579 0.11075 0.83145 0.0
H520 H 0.55678 0.15398 0.88692 0.0
C521 C 0.51967 0.10423 0.99542 0.0
C522 C 0.51039 0.11469 0.00166 0.0
C523 C 0.5307 0.10704 0.95867 0.0
C524 C 0.55614 0.14172 0.8715 0.0
H525 H 0.60778 0.1168 0.73239 0.0
H526 H 0.58922 0.11301 0.79719 0.0
H527 H 0.57643 0.15889 0.82342 0.0
H528 H 0.50523 0.13618 0.97389 0.0
H529 H 0.52421 0.14085 0.90932 0.0
H530 H 0.5354 0.09353 0.8791 0.0
C531 C 0.58953 0.12235 0.77188 0.0
C532 C 0.56744 0.14455 0.83518 0.0
C533 C 0.60027 0.12462 0.73487 0.0
C534 C 0.51226 0.12794 0.97014 0.0
C535 C 0.52324 0.1307 0.93325 0.0
C536 C 0.54443 0.1079 0.86761 0.0
C537 C 0.57937 0.13204 0.77621 0.0
C538 C 0.56743 0.1291 0.81486 0.0
C539 C 0.53264 0.12032 0.92713 0.0
C540 C 0.54451 0.12335 0.88818 0.0
H541 H 0.59129 0.15576 0.68056 0.0
H542 H 0.57258 0.1518 0.74521 0.0
H543 H 0.55523 0.09852 0.81606 0.0
H544 H 0.51861 0.09398 0.01917 0.0
H545 H 0.53796 0.09901 0.95536 0.0
C546 C 0.46187 0.5756 0.85404 0.0
C547 C 0.47062 0.5954 0.84908 0.0
C548 C 0.45146 0.56675 0.89115 0.0
C549 C 0.44521 0.57563 0.00455 0.0
H550 H 0.39654 0.52946 0.99313 0.0
C551 C 0.39485 0.54174 0.1494 0.0
C552 C 0.38504 0.52183 0.1526 0.0
C553 C 0.4051 0.55076 0.11222 0.0
C554 C 0.4102 0.54221 0.99696 0.0
H555 H 0.47542 0.62148 0.87945 0.0
H556 H 0.45722 0.60599 0.94438 0.0
H557 H 0.41499 0.54516 0.92882 0.0
H558 H 0.3783 0.49576 0.11924 0.0
H559 H 0.39648 0.5115 0.05465 0.0
H560 H 0.44057 0.5726 0.07266 0.0
C561 C 0.45852 0.59734 0.91956 0.0
C562 C 0.42076 0.55122 0.96008 0.0
C563 C 0.46887 0.60619 0.88228 0.0
C564 C 0.38564 0.51112 0.11771 0.0
C565 C 0.39599 0.52016 0.08058 0.0
C566 C 0.4347 0.56657 0.04146 0.0
C567 C 0.44962 0.57751 0.92427 0.0
C568 C 0.43838 0.56803 0.96348 0.0
C569 C 0.40588 0.5401 0.07742 0.0
C570 C 0.41706 0.54974 0.03812 0.0
H571 H 0.46296 0.56686 0.82912 0.0
H572 H 0.44497 0.55148 0.89409 0.0
H573 H 0.45886 0.58843 0.00823 0.0
H574 H 0.39459 0.55042 0.1756 0.0
H575 H 0.41228 0.56612 0.11063 0.0
C576 C 0.88049 0.46489 0.03491 0.0
C577 C 0.86787 0.47168 0.02804 0.0
C578 C 0.87882 0.45413 0.07147 0.0
C579 C 0.84495 0.42448 0.15607 0.0
H580 H 0.89048 0.4336 0.21619 0.0
C581 C 0.84337 0.39101 0.32183 0.0
C582 C 0.8564 0.3847 0.32843 0.0
C583 C 0.84429 0.40114 0.28462 0.0
C584 C 0.87764 0.43072 0.19948 0.0
H585 H 0.8436 0.47254 0.0543 0.0
H586 H 0.84082 0.45392 0.11841 0.0
H587 H 0.8931 0.45246 0.15286 0.0
H588 H 0.88036 0.3837 0.30061 0.0
H589 H 0.88183 0.40119 0.23559 0.0
H590 H 0.82949 0.40274 0.20289 0.0
C591 C 0.85186 0.45672 0.0952 0.0
C592 C 0.87914 0.44154 0.16318 0.0
C593 C 0.85353 0.46749 0.05859 0.0
C594 C 0.87015 0.38843 0.29664 0.0
C595 C 0.87108 0.39856 0.25948 0.0
C596 C 0.84344 0.41365 0.19244 0.0
C597 C 0.8645 0.44993 0.10206 0.0
C598 C 0.86282 0.43852 0.14097 0.0
C599 C 0.85828 0.40519 0.25322 0.0
C600 C 0.85978 0.41662 0.21449 0.0
H601 H 0.89165 0.46779 0.01194 0.0
H602 H 0.88862 0.4489 0.07545 0.0
H603 H 0.83211 0.42162 0.13935 0.0
H604 H 0.83261 0.3884 0.34571 0.0
H605 H 0.83433 0.40619 0.28096 0.0
C606 C 0.45117 0.84395 0.47415 0.0
C607 C 0.47036 0.85743 0.48109 0.0
C608 C 0.44176 0.84496 0.43747 0.0
C609 C 0.4442 0.87897 0.3557 0.0
H610 H 0.4092 0.83377 0.29225 0.0
C611 C 0.41281 0.88278 0.19212 0.0
C612 C 0.39363 0.86955 0.18424 0.0
C613 C 0.42193 0.88111 0.22855 0.0
C614 C 0.41876 0.8465 0.30993 0.0
H615 H 0.49483 0.8823 0.45439 0.0
H616 H 0.47845 0.88395 0.39031 0.0
H617 H 0.42576 0.83096 0.35487 0.0
H618 H 0.36894 0.84426 0.20869 0.0
H619 H 0.38483 0.84146 0.27259 0.0
H620 H 0.4372 0.89452 0.31096 0.0
C621 C 0.47061 0.87276 0.41353 0.0
C622 C 0.42826 0.84489 0.34576 0.0
C623 C 0.48003 0.87172 0.45013 0.0
C624 C 0.38374 0.85466 0.21376 0.0
C625 C 0.39288 0.85299 0.25025 0.0
C626 C 0.43469 0.88058 0.31995 0.0
C627 C 0.45132 0.85951 0.40699 0.0
C628 C 0.44115 0.86112 0.36895 0.0
C629 C 0.41209 0.86618 0.25801 0.0
C630 C 0.42191 0.86437 0.29654 0.0
H631 H 0.4433 0.83277 0.49739 0.0
H632 H 0.42686 0.83463 0.43354 0.0
H633 H 0.45377 0.89171 0.37335 0.0
H634 H 0.42087 0.89439 0.16997 0.0
H635 H 0.4368 0.89137 0.23325 0.0
C636 C 0.60727 0.46969 0.60426 0.0
C637 C 0.59913 0.46255 0.64484 0.0
C638 C 0.59871 0.45939 0.56681 0.0
C639 C 0.55316 0.42486 0.52203 0.0
H640 H 0.58215 0.41392 0.43932 0.0
C641 C 0.51696 0.37762 0.37442 0.0
C642 C 0.52709 0.38242 0.33544 0.0
C643 C 0.526 0.38644 0.41286 0.0
C644 C 0.57388 0.41707 0.46168 0.0
H645 H 0.57556 0.43916 0.67803 0.0
H646 H 0.56036 0.42141 0.6124 0.0
H647 H 0.59753 0.43185 0.50445 0.0
H648 H 0.55463 0.40011 0.30607 0.0
H649 H 0.57024 0.41608 0.37262 0.0
H650 H 0.52972 0.41086 0.47899 0.0
C651 C 0.57345 0.43488 0.60973 0.0
C652 C 0.5827 0.42727 0.49907 0.0
C653 C 0.58218 0.445 0.64722 0.0
C654 C 0.54649 0.39601 0.33571 0.0
C655 C 0.55547 0.4051 0.37402 0.0
C656 C 0.54441 0.41497 0.48433 0.0
C657 C 0.58168 0.44195 0.56923 0.0
C658 C 0.5724 0.4312 0.52959 0.0
C659 C 0.54531 0.40056 0.41311 0.0
C660 C 0.55463 0.41088 0.45363 0.0
H661 H 0.62037 0.48314 0.60145 0.0
H662 H 0.60525 0.46517 0.53588 0.0
H663 H 0.54497 0.42791 0.54491 0.0
H664 H 0.50201 0.36706 0.37521 0.0
H665 H 0.51778 0.38219 0.44235 0.0
C666 C 0.12061 0.51453 0.56289 0.0
C667 C 0.13244 0.52595 0.52935 0.0
C668 C 0.11869 0.52278 0.60069 0.0
C669 C 0.14132 0.56712 0.6647 0.0
H670 H 0.09074 0.5474 0.71174 0.0
C671 C 0.12448 0.60627 0.79757 0.0
C672 C 0.11212 0.59515 0.83072 0.0
C673 C 0.12717 0.5977 0.76129 0.0
C674 C 0.10499 0.55294 0.69933 0.0
H675 H 0.15182 0.55498 0.50957 0.0
H676 H 0.14834 0.56934 0.57533 0.0
H677 H 0.09539 0.53257 0.64821 0.0
H678 H 0.09287 0.56627 0.8517 0.0
H679 H 0.09768 0.55133 0.78858 0.0
H680 H 0.15089 0.58756 0.71575 0.0
C681 C 0.14069 0.55401 0.57261 0.0
C682 C 0.10766 0.54442 0.66293 0.0
C683 C 0.14261 0.54576 0.5348 0.0
C684 C 0.10245 0.57526 0.82669 0.0
C685 C 0.10513 0.56669 0.7904 0.0
C686 C 0.13865 0.57564 0.70112 0.0
C687 C 0.12856 0.54262 0.60581 0.0
C688 C 0.12585 0.55144 0.64513 0.0
C689 C 0.11756 0.57781 0.75732 0.0
C690 C 0.12044 0.56867 0.71879 0.0
H691 H 0.11264 0.49921 0.55981 0.0
H692 H 0.10946 0.51359 0.62592 0.0
H693 H 0.15555 0.5727 0.65214 0.0
H694 H 0.13213 0.62163 0.79964 0.0
H695 H 0.13665 0.60667 0.73612 0.0
C696 C 0.41526 0.05886 0.03858 0.0
C697 C 0.42574 0.06824 0.07552 0.0
C698 C 0.40104 0.03976 0.04074 0.0
C699 C 0.37244 -4e-05 0.1168 0.0
H700 H 0.37936 0.96958 0.03022 0.0
C701 C 0.35751 0.92396 0.14651 0.0
C702 C 0.35228 0.91132 0.11163 0.0
C703 C 0.36084 0.94241 0.14034 0.0
C704 C 0.37682 0.97776 0.05416 0.0
H705 H 0.42868 0.06534 0.14422 0.0
H706 H 0.4042 0.03215 0.1478 0.0
H707 H 0.39529 0.00379 0.02188 0.0
H708 H 0.34479 0.90751 0.04379 0.0
H709 H 0.3503 0.93956 0.03326 0.0
H710 H 0.3546 0.97384 0.15001 0.0
C711 C 0.40677 0.03948 0.11723 0.0
C712 C 0.38599 -0.00257 0.04933 0.0
C713 C 0.42097 0.0585 0.11507 0.0
C714 C 0.3491 0.91703 0.0712 0.0
C715 C 0.35231 0.93541 0.06511 0.0
C716 C 0.36324 0.98023 0.12163 0.0
C717 C 0.39701 0.02974 0.0799 0.0
C718 C 0.3844 0.00881 0.08126 0.0
C719 C 0.35888 0.94853 0.09923 0.0
C720 C 0.36581 0.96897 0.091 0.0
H721 H 0.4185 0.06602 0.0077 0.0
H722 H 0.39359 0.03267 0.01152 0.0
H723 H 0.37072 0.00834 0.14162 0.0
H724 H 0.36002 0.91997 0.17808 0.0
H725 H 0.36604 0.95219 0.16727 0.0
C726 C 0.42591 0.35724 0.23344 0.0
C727 C 0.4331 0.3549 0.27269 0.0
C728 C 0.411 0.36104 0.23294 0.0
C729 C 0.39204 0.38438 0.2997 0.0
H730 H 0.3553 0.36957 0.20722 0.0
C731 C 0.35048 0.42322 0.27543 0.0
C732 C 0.35113 0.42962 0.23302 0.0
C733 C 0.35514 0.4092 0.28411 0.0
C734 C 0.36544 0.3738 0.23331 0.0
H735 H 0.42944 0.35344 0.34211 0.0
H736 H 0.40331 0.3601 0.3412 0.0
H737 H 0.3732 0.35304 0.21637 0.0
H738 H 0.35595 0.42544 0.16617 0.0
H739 H 0.36444 0.40126 0.18137 0.0
H740 H 0.38504 0.40569 0.3155 0.0
C741 C 0.4094 0.3592 0.31086 0.0
C742 C 0.37567 0.36433 0.23858 0.0
C743 C 0.42431 0.35532 0.31136 0.0
C744 C 0.35538 0.42087 0.19921 0.0
C745 C 0.36013 0.4069 0.20792 0.0
C746 C 0.38185 0.39384 0.29443 0.0
C747 C 0.40293 0.3626 0.27167 0.0
C748 C 0.38951 0.36994 0.27099 0.0
C749 C 0.36062 0.40133 0.25061 0.0
C750 C 0.36887 0.38907 0.26035 0.0
H751 H 0.43226 0.35686 0.20303 0.0
H752 H 0.40653 0.36379 0.20222 0.0
H753 H 0.40277 0.38924 0.32462 0.0
H754 H 0.34702 0.42951 0.30219 0.0
H755 H 0.35505 0.40497 0.31726 0.0
C756 C 0.06544 0.4274 0.40931 0.0
C757 C 0.0749 0.4325 0.44915 0.0
C758 C 0.04682 0.41238 0.40657 0.0
C759 C 0.00461 0.38972 0.47351 0.0
H760 H 0.98248 0.35833 0.37224 0.0
C761 C 0.9245 0.35152 0.44857 0.0
C762 C 0.91908 0.35466 0.40777 0.0
C763 C 0.94287 0.3549 0.45552 0.0
C764 C 0.98845 0.36696 0.40079 0.0
H765 H 0.07271 0.42495 0.51681 0.0
H766 H 0.04009 0.39864 0.51198 0.0
H767 H 0.01691 0.37554 0.38153 0.0
H768 H 0.92823 0.36244 0.34154 0.0
H769 H 0.96038 0.36879 0.35384 0.0
H770 H 0.97642 0.38209 0.4918 0.0
C771 C 0.04706 0.40645 0.48298 0.0
C772 C 0.00814 0.37678 0.40614 0.0
C773 C 0.06576 0.42148 0.48571 0.0
C774 C 0.93198 0.35996 0.37339 0.0
C775 C 0.95042 0.36348 0.38042 0.0
C776 C 0.98497 0.37997 0.46813 0.0
C777 C 0.03721 0.40212 0.44362 0.0
C778 C 0.01645 0.38876 0.44186 0.0
C779 C 0.95627 0.36163 0.42191 0.0
C780 C 0.97669 0.36897 0.43102 0.0
H781 H 0.07213 0.4355 0.38044 0.0
H782 H 0.03961 0.40956 0.37584 0.0
H783 H 0.01053 0.39902 0.5011 0.0
H784 H 0.91478 0.34716 0.4756 0.0
H785 H 0.94681 0.35294 0.48765 0.0
C786 C 0.56683 0.93073 0.60493 0.0
C787 C 0.56253 0.92205 0.56414 0.0
C788 C 0.58084 0.94973 0.60948 0.0
C789 C 0.60164 0.99343 0.54713 0.0
H790 H 0.63204 0.01483 0.64997 0.0
C791 C 0.63775 0.07326 0.57925 0.0
C792 C 0.63433 0.07795 0.62063 0.0
C793 C 0.63456 0.05505 0.57052 0.0
C794 C 0.62366 0.00906 0.62102 0.0
H795 H 0.57048 0.92614 0.49657 0.0
H796 H 0.59504 0.95942 0.5046 0.0
H797 H 0.61644 0.98061 0.63727 0.0
H798 H 0.62606 0.06758 0.68597 0.0
H799 H 0.6201 0.0357 0.67058 0.0
H800 H 0.60802 0.0216 0.53174 0.0
C801 C 0.58737 0.95153 0.53294 0.0
C802 C 0.61476 0.98949 0.61372 0.0
C803 C 0.57335 0.93246 0.52838 0.0
C804 C 0.62877 0.0644 0.65372 0.0
C805 C 0.62548 0.04614 0.64493 0.0
C806 C 0.6105 0.01295 0.55443 0.0
C807 C 0.59088 0.96051 0.57336 0.0
C808 C 0.60317 0.98141 0.57735 0.0
C809 C 0.62779 0.0411 0.60292 0.0
C810 C 0.62115 0.02093 0.59209 0.0
H811 H 0.55886 0.92307 0.63321 0.0
H812 H 0.58303 0.95623 0.641 0.0
H813 H 0.59261 0.98766 0.5191 0.0
H814 H 0.64229 0.08347 0.55315 0.0
H815 H 0.63682 0.05172 0.53803 0.0
C816 C 0.63157 0.56339 0.74848 0.0
C817 C 0.63452 0.55795 0.70748 0.0
C818 C 0.62654 0.57737 0.75279 0.0
C819 C 0.60154 0.5965 0.69201 0.0
H820 H 0.61317 0.62907 0.79209 0.0
C821 C 0.56021 0.63498 0.72482 0.0
C822 C 0.5527 0.63234 0.76672 0.0
C823 C 0.57468 0.63108 0.71548 0.0
C824 C 0.60983 0.62008 0.76393 0.0
H825 H 0.63585 0.56391 0.63904 0.0
H826 H 0.6272 0.58853 0.64662 0.0
H827 H 0.63137 0.61313 0.77834 0.0
H828 H 0.55532 0.62468 0.83227 0.0
H829 H 0.58039 0.61755 0.81582 0.0
H830 H 0.57959 0.60281 0.67837 0.0
C831 C 0.62847 0.58169 0.67538 0.0
C832 C 0.62024 0.61097 0.75603 0.0
C833 C 0.6335 0.56765 0.67104 0.0
C834 C 0.56076 0.6268 0.79964 0.0
C835 C 0.57522 0.62283 0.79025 0.0
C836 C 0.5912 0.60564 0.69982 0.0
C837 C 0.62438 0.5863 0.71622 0.0
C838 C 0.61583 0.59863 0.72065 0.0
C839 C 0.58193 0.62438 0.74779 0.0
C840 C 0.59487 0.61711 0.7365 0.0
H841 H 0.63237 0.55629 0.77729 0.0
H842 H 0.62331 0.58038 0.7847 0.0
H843 H 0.59754 0.58689 0.66485 0.0
H844 H 0.55449 0.63947 0.69879 0.0
H845 H 0.57979 0.63273 0.68262 0.0
C846 C 0.05592 0.64013 0.87532 0.0
C847 C 0.06538 0.63692 0.90927 0.0
C848 C 0.03712 0.63589 0.88043 0.0
C849 C -0.00095 0.62345 0.96195 0.0
H850 H 0.96617 0.58967 0.87281 0.0
C851 C 0.92359 0.56249 0.99371 0.0
C852 C 0.9102 0.55614 0.96026 0.0
C853 C 0.94186 0.5778 0.98709 0.0
C854 C 0.97505 0.59945 0.89761 0.0
H855 H 0.063 0.62791 0.97597 0.0
H856 H 0.03036 0.6204 0.98464 0.0
H857 H 0.00018 0.60731 0.86111 0.0
H858 H 0.90484 0.56194 0.89508 0.0
H859 H 0.9366 0.58886 0.88387 0.0
H860 H 0.97387 0.61485 0.99922 0.0
C861 C 0.03738 0.62628 0.95419 0.0
C862 C -0.00539 0.60959 0.89085 0.0
C863 C 0.05606 0.63039 0.94903 0.0
C864 C 0.91496 0.56632 0.92128 0.0
C865 C 0.93317 0.58171 0.91479 0.0
C866 C 0.97945 0.61333 0.9687 0.0
C867 C 0.02754 0.62855 0.91967 0.0
C868 C 0.00686 0.62114 0.92354 0.0
C869 C 0.94705 0.58715 0.947 0.0
C870 C 0.96729 0.60069 0.93718 0.0
H871 H 0.06277 0.64526 0.84438 0.0
H872 H 0.02991 0.63791 0.85336 0.0
H873 H 0.00815 0.6325 0.98747 0.0
H874 H 0.92034 0.55497 0.02415 0.0
H875 H 0.95223 0.5815 0.01252 0.0
loop_
_geom_bond_atom_site_label_1
_geom_bond_atom_site_label_2
_geom_bond_distance
_geom_bond_site_symmetry_2
_ccdc_geom_bond_type
C0 O1 1.160 . S
C0 O7 1.185 . S
O1 C0 1.160 . S
O2 Zn3 1.899 . S
O2 C10 1.284 . S
Zn3 O2 1.899 . S
Zn3 O4 2.032 . S
Zn3 O7 2.086 . S
Zn3 O12 1.977 . S
O4 Zn3 2.032 . S
O4 C8 1.278 . S
C5 O6 1.203 . S
C5 O12 1.267 . S
O6 C5 1.203 . S
O7 C0 1.185 . S
O7 Zn3 2.086 . S
C8 O4 1.278 . S
C8 O9 1.211 . S
O9 C8 1.211 . S
C10 O2 1.284 . S
C10 O11 1.273 . S
O11 C10 1.273 . S
O12 Zn3 1.977 . S
O12 C5 1.267 . S
C13 O14 1.160 . S
C13 O20 1.185 . S
O14 C13 1.160 . S
O15 Zn16 1.899 . S
O15 C23 1.284 . S
Zn16 O15 1.899 . S
Zn16 O17 2.032 . S
Zn16 O20 2.086 . S
Zn16 O25 1.977 . S
O17 Zn16 2.032 . S
O17 C21 1.278 . S
C18 O19 1.203 . S
C18 O25 1.267 . S
O19 C18 1.203 . S
O20 C13 1.185 . S
O20 Zn16 2.086 . S
C21 O17 1.278 . S
C21 O22 1.211 . S
O22 C21 1.211 . S
C23 O15 1.284 . S
C23 O24 1.273 . S
O24 C23 1.273 . S
O25 Zn16 1.977 . S
O25 C18 1.267 . S
C26 O27 1.160 . S
C26 O33 1.185 . S
O27 C26 1.160 . S
O28 Zn29 1.899 . S
O28 C36 1.284 . S
Zn29 O28 1.899 . S
Zn29 O30 2.032 . S
Zn29 O33 2.086 . S
Zn29 O38 1.977 . S
O30 Zn29 2.032 . S
O30 C34 1.278 . S
C31 O32 1.203 . S
C31 O38 1.267 . S
O32 C31 1.203 . S
O33 C26 1.185 . S
O33 Zn29 2.086 . S
C34 O30 1.278 . S
C34 O35 1.211 . S
O35 C34 1.211 . S
C36 O28 1.284 . S
C36 O37 1.273 . S
O37 C36 1.273 . S
O38 Zn29 1.977 . S
O38 C31 1.267 . S
C39 O40 1.160 . S
C39 O46 1.185 . S
O40 C39 1.160 . S
O41 Zn42 1.899 . S
O41 C49 1.284 . S
Zn42 O41 1.899 . S
Zn42 O43 2.032 . S
Zn42 O46 2.086 . S
Zn42 O51 1.977 . S
O43 Zn42 2.032 . S
O43 C47 1.278 . S
C44 O45 1.203 . S
C44 O51 1.267 . S
O45 C44 1.203 . S
O46 C39 1.185 . S
O46 Zn42 2.086 . S
C47 O43 1.278 . S
C47 O48 1.211 . S
O48 C47 1.211 . S
C49 O41 1.284 . S
C49 O50 1.273 . S
O50 C49 1.273 . S
O51 Zn42 1.977 . S
O51 C44 1.267 . S
C52 O53 1.160 . S
C52 O59 1.185 . S
O53 C52 1.160 . S
O54 Zn55 1.899 . S
O54 C62 1.284 . S
Zn55 O54 1.899 . S
Zn55 O56 2.032 . S
Zn55 O59 2.086 . S
Zn55 O64 1.977 . S
O56 Zn55 2.032 . S
O56 C60 1.278 . S
C57 O58 1.203 . S
C57 O64 1.267 . S
O58 C57 1.203 . S
O59 C52 1.185 . S
O59 Zn55 2.086 . S
C60 O56 1.278 . S
C60 O61 1.211 . S
O61 C60 1.211 . S
C62 O54 1.284 . S
C62 O63 1.273 . S
O63 C62 1.273 . S
O64 Zn55 1.977 . S
O64 C57 1.267 . S
C65 O66 1.160 . S
C65 O72 1.185 . S
O66 C65 1.160 . S
O67 Zn68 1.899 . S
O67 C75 1.284 . S
Zn68 O67 1.899 . S
Zn68 O69 2.032 . S
Zn68 O72 2.086 . S
Zn68 O77 1.977 . S
O69 Zn68 2.032 . S
O69 C73 1.278 . S
C70 O71 1.203 . S
C70 O77 1.267 . S
O71 C70 1.203 . S
O72 C65 1.185 . S
O72 Zn68 2.086 . S
C73 O69 1.278 . S
C73 O74 1.211 . S
O74 C73 1.211 . S
C75 O67 1.284 . S
C75 O76 1.273 . S
O76 C75 1.273 . S
O77 Zn68 1.977 . S
O77 C70 1.267 . S
C78 O79 1.160 . S
C78 O85 1.185 . S
O79 C78 1.160 . S
O80 Zn81 1.899 . S
O80 C88 1.284 . S
Zn81 O80 1.899 . S
Zn81 O82 2.032 . S
Zn81 O85 2.086 . S
Zn81 O90 1.977 . S
O82 Zn81 2.032 . S
O82 C86 1.278 . S
C83 O84 1.203 . S
C83 O90 1.267 . S
O84 C83 1.203 . S
O85 C78 1.185 . S
O85 Zn81 2.086 . S
C86 O82 1.278 . S
C86 O87 1.211 . S
O87 C86 1.211 . S
C88 O80 1.284 . S
C88 O89 1.273 . S
O89 C88 1.273 . S
O90 Zn81 1.977 . S
O90 C83 1.267 . S
C91 O92 1.160 . S
C91 O98 1.185 . S
O92 C91 1.160 . S
O93 Zn94 1.899 . S
O93 C101 1.284 . S
Zn94 O93 1.899 . S
Zn94 O95 2.032 . S
Zn94 O98 2.086 . S
Zn94 O103 1.977 . S
O95 Zn94 2.032 . S
O95 C99 1.278 . S
C96 O97 1.203 . S
C96 O103 1.267 . S
O97 C96 1.203 . S
O98 C91 1.185 . S
O98 Zn94 2.086 . S
C99 O95 1.278 . S
C99 O100 1.211 . S
O100 C99 1.211 . S
C101 O93 1.284 . S
C101 O102 1.273 . S
O102 C101 1.273 . S
O103 Zn94 1.977 . S
O103 C96 1.267 . S
C104 O105 1.160 . S
C104 O111 1.185 . S
O105 C104 1.160 . S
O106 Zn107 1.899 . S
O106 C114 1.284 . S
Zn107 O106 1.899 . S
Zn107 O108 2.032 . S
Zn107 O111 2.086 . S
Zn107 O116 1.977 . S
O108 Zn107 2.032 . S
O108 C112 1.278 . S
C109 O110 1.203 . S
C109 O116 1.267 . S
O110 C109 1.203 . S
O111 C104 1.185 . S
O111 Zn107 2.086 . S
C112 O108 1.278 . S
C112 O113 1.211 . S
O113 C112 1.211 . S
C114 O106 1.284 . S
C114 O115 1.273 . S
O115 C114 1.273 . S
O116 Zn107 1.977 . S
O116 C109 1.267 . S
C117 O118 1.160 . S
C117 O124 1.185 . S
O118 C117 1.160 . S
O119 Zn120 1.899 . S
O119 C127 1.284 . S
Zn120 O119 1.899 . S
Zn120 O121 2.032 . S
Zn120 O124 2.086 . S
Zn120 O129 1.977 . S
O121 Zn120 2.032 . S
O121 C125 1.278 . S
C122 O123 1.203 . S
C122 O129 1.267 . S
O123 C122 1.203 . S
O124 C117 1.185 . S
O124 Zn120 2.086 . S
C125 O121 1.278 . S
C125 O126 1.211 . S
O126 C125 1.211 . S
C127 O119 1.284 . S
C127 O128 1.273 . S
O128 C127 1.273 . S
O129 Zn120 1.977 . S
O129 C122 1.267 . S
C130 O131 1.160 . S
C130 O137 1.185 . S
O131 C130 1.160 . S
O132 Zn133 1.899 . S
O132 C140 1.284 . S
Zn133 O132 1.899 . S
Zn133 O134 2.032 . S
Zn133 O137 2.086 . S
Zn133 O142 1.977 . S
O134 Zn133 2.032 . S
O134 C138 1.278 . S
C135 O136 1.203 . S
C135 O142 1.267 . S
O136 C135 1.203 . S
O137 C130 1.185 . S
O137 Zn133 2.086 . S
C138 O134 1.278 . S
C138 O139 1.211 . S
O139 C138 1.211 . S
C140 O132 1.284 . S
C140 O141 1.273 . S
O141 C140 1.273 . S
O142 Zn133 1.977 . S
O142 C135 1.267 . S
C143 O144 1.160 . S
C143 O150 1.185 . S
O144 C143 1.160 . S
O145 Zn146 1.899 . S
O145 C153 1.284 . S
Zn146 O145 1.899 . S
Zn146 O147 2.032 . S
Zn146 O150 2.086 . S
Zn146 O155 1.977 . S
O147 Zn146 2.032 . S
O147 C151 1.278 . S
C148 O149 1.203 . S
C148 O155 1.267 . S
O149 C148 1.203 . S
O150 C143 1.185 . S
O150 Zn146 2.086 . S
C151 O147 1.278 . S
C151 O152 1.211 . S
O152 C151 1.211 . S
C153 O145 1.284 . S
C153 O154 1.273 . S
O154 C153 1.273 . S
O155 Zn146 1.977 . S
O155 C148 1.267 . S
C156 C157 1.349 . S
C156 C158 1.327 . S
C156 H181 0.950 . S
C157 C156 1.349 . S
C157 C173 1.349 . S
C158 C156 1.327 . S
C158 C177 1.429 . S
C158 H182 0.950 . S
C159 C176 1.574 . S
C159 C178 1.368 . S
C159 H183 0.949 . S
H160 C164 0.949 . S
C161 C162 1.349 . S
C161 C163 1.327 . S
C161 H184 0.950 . S
C162 C161 1.349 . S
C162 C174 1.349 . S
C163 C161 1.327 . S
C163 C179 1.429 . S
C163 H185 0.950 . S
C164 H160 0.949 . S
C164 C172 1.574 . S
C164 C180 1.368 . S
H165 C173 0.950 . S
H166 C171 0.950 . S
H167 C172 0.949 . S
H168 C174 0.950 . S
H169 C175 0.950 . S
H170 C176 0.949 . S
C171 H166 0.950 . S
C171 C173 1.327 . S
C171 C177 1.429 . S
C172 C164 1.574 . S
C172 H167 0.949 . S
C172 C178 1.368 . S
C173 C157 1.349 . S
C173 H165 0.950 . S
C173 C171 1.327 . S
C174 C162 1.349 . S
C174 H168 0.950 . S
C174 C175 1.327 . S
C175 H169 0.950 . S
C175 C174 1.327 . S
C175 C179 1.429 . S
C176 C159 1.574 . S
C176 H170 0.949 . S
C176 C180 1.368 . S
C177 C158 1.429 . S
C177 C171 1.429 . S
C177 C178 1.523 . S
C178 C159 1.368 . S
C178 C172 1.368 . S
C178 C177 1.523 . S
C179 C163 1.429 . S
C179 C175 1.429 . S
C179 C180 1.523 . S
C180 C164 1.368 . S
C180 C176 1.368 . S
C180 C179 1.523 . S
H181 C156 0.950 . S
H182 C158 0.950 . S
H183 C159 0.949 . S
H184 C161 0.950 . S
H185 C163 0.950 . S
C186 C187 1.349 . S
C186 C188 1.327 . S
C186 H211 0.950 . S
C187 C186 1.349 . S
C187 C203 1.349 . S
C188 C186 1.327 . S
C188 C207 1.429 . S
C188 H212 0.950 . S
C189 C206 1.574 . S
C189 C208 1.368 . S
C189 H213 0.949 . S
H190 C194 0.949 . S
C191 C192 1.349 . S
C191 C193 1.327 . S
C191 H214 0.950 . S
C192 C191 1.349 . S
C192 C204 1.349 . S
C193 C191 1.327 . S
C193 C209 1.429 . S
C193 H215 0.950 . S
C194 H190 0.949 . S
C194 C202 1.574 . S
C194 C210 1.368 . S
H195 C203 0.950 . S
H196 C201 0.950 . S
H197 C202 0.949 . S
H198 C204 0.950 . S
H199 C205 0.950 . S
H200 C206 0.949 . S
C201 H196 0.950 . S
C201 C203 1.327 . S
C201 C207 1.429 . S
C202 C194 1.574 . S
C202 H197 0.949 . S
C202 C208 1.368 . S
C203 C187 1.349 . S
C203 H195 0.950 . S
C203 C201 1.327 . S
C204 C192 1.349 . S
C204 H198 0.950 . S
C204 C205 1.327 . S
C205 H199 0.950 . S
C205 C204 1.327 . S
C205 C209 1.429 . S
C206 C189 1.574 . S
C206 H200 0.949 . S
C206 C210 1.368 . S
C207 C188 1.429 . S
C207 C201 1.429 . S
C207 C208 1.523 . S
C208 C189 1.368 . S
C208 C202 1.368 . S
C208 C207 1.523 . S
C209 C193 1.429 . S
C209 C205 1.429 . S
C209 C210 1.523 . S
C210 C194 1.368 . S
C210 C206 1.368 . S
C210 C209 1.523 . S
H211 C186 0.950 . S
H212 C188 0.950 . S
H213 C189 0.949 . S
H214 C191 0.950 . S
H215 C193 0.950 . S
C216 C217 1.349 . S
C216 C218 1.327 . S
C216 H241 0.950 . S
C217 C216 1.349 . S
C217 C233 1.349 . S
C218 C216 1.327 . S
C218 C237 1.429 . S
C218 H242 0.950 . S
C219 C236 1.574 . S
C219 C238 1.368 . S
C219 H243 0.949 . S
H220 C224 0.949 . S
C221 C222 1.349 . S
C221 C223 1.327 . S
C221 H244 0.950 . S
C222 C221 1.349 . S
C222 C234 1.349 . S
C223 C221 1.327 . S
C223 C239 1.429 . S
C223 H245 0.950 . S
C224 H220 0.949 . S
C224 C232 1.574 . S
C224 C240 1.368 . S
H225 C233 0.950 . S
H226 C231 0.950 . S
H227 C232 0.949 . S
H228 C234 0.950 . S
H229 C235 0.950 . S
H230 C236 0.949 . S
C231 H226 0.950 . S
C231 C233 1.327 . S
C231 C237 1.429 . S
C232 C224 1.574 . S
C232 H227 0.949 . S
C232 C238 1.368 . S
C233 C217 1.349 . S
C233 H225 0.950 . S
C233 C231 1.327 . S
C234 C222 1.349 . S
C234 H228 0.950 . S
C234 C235 1.327 . S
C235 H229 0.950 . S
C235 C234 1.327 . S
C235 C239 1.429 . S
C236 C219 1.574 . S
C236 H230 0.949 . S
C236 C240 1.368 . S
C237 C218 1.429 . S
C237 C231 1.429 . S
C237 C238 1.523 . S
C238 C219 1.368 . S
C238 C232 1.368 . S
C238 C237 1.523 . S
C239 C223 1.429 . S
C239 C235 1.429 . S
C239 C240 1.523 . S
C240 C224 1.368 . S
C240 C236 1.368 . S
C240 C239 1.523 . S
H241 C216 0.950 . S
H242 C218 0.950 . S
H243 C219 0.949 . S
H244 C221 0.950 . S
H245 C223 0.950 . S
C246 C247 1.349 . S
C246 C248 1.327 . S
C246 H271 0.950 . S
C247 C246 1.349 . S
C247 C263 1.349 . S
C248 C246 1.327 . S
C248 C267 1.429 . S
C248 H272 0.950 . S
C249 C266 1.574 . S
C249 C268 1.368 . S
C249 H273 0.949 . S
H250 C254 0.949 . S
C251 C252 1.349 . S
C251 C253 1.327 . S
C251 H274 0.950 . S
C252 C251 1.349 . S
C252 C264 1.349 . S
C253 C251 1.327 . S
C253 C269 1.429 . S
C253 H275 0.950 . S
C254 H250 0.949 . S
C254 C262 1.574 . S
C254 C270 1.368 . S
H255 C263 0.950 . S
H256 C261 0.950 . S
H257 C262 0.949 . S
H258 C264 0.950 . S
H259 C265 0.950 . S
H260 C266 0.949 . S
C261 H256 0.950 . S
C261 C263 1.327 . S
C261 C267 1.429 . S
C262 C254 1.574 . S
C262 H257 0.949 . S
C262 C268 1.368 . S
C263 C247 1.349 . S
C263 H255 0.950 . S
C263 C261 1.327 . S
C264 C252 1.349 . S
C264 H258 0.950 . S
C264 C265 1.327 . S
C265 H259 0.950 . S
C265 C264 1.327 . S
C265 C269 1.429 . S
C266 C249 1.574 . S
C266 H260 0.949 . S
C266 C270 1.368 . S
C267 C248 1.429 . S
C267 C261 1.429 . S
C267 C268 1.523 . S
C268 C249 1.368 . S
C268 C262 1.368 . S
C268 C267 1.523 . S
C269 C253 1.429 . S
C269 C265 1.429 . S
C269 C270 1.523 . S
C270 C254 1.368 . S
C270 C266 1.368 . S
C270 C269 1.523 . S
H271 C246 0.950 . S
H272 C248 0.950 . S
H273 C249 0.949 . S
H274 C251 0.950 . S
H275 C253 0.950 . S
C276 C277 1.349 . S
C276 C278 1.327 . S
C276 H301 0.950 . S
C277 C276 1.349 . S
C277 C293 1.349 . S
C278 C276 1.327 . S
C278 C297 1.429 . S
C278 H302 0.950 . S
C279 C296 1.574 . S
C279 C298 1.368 . S
C279 H303 0.949 . S
H280 C284 0.949 . S
C281 C282 1.349 . S
C281 C283 1.327 . S
C281 H304 0.950 . S
C282 C281 1.349 . S
C282 C294 1.349 . S
C283 C281 1.327 . S
C283 C299 1.429 . S
C283 H305 0.950 . S
C284 H280 0.949 . S
C284 C292 1.574 . S
C284 C300 1.368 . S
H285 C293 0.950 . S
H286 C291 0.950 . S
H287 C292 0.949 . S
H288 C294 0.950 . S
H289 C295 0.950 . S
H290 C296 0.949 . S
C291 H286 0.950 . S
C291 C293 1.327 . S
C291 C297 1.429 . S
C292 C284 1.574 . S
C292 H287 0.949 . S
C292 C298 1.368 1_556 S
C293 C277 1.349 . S
C293 H285 0.950 . S
C293 C291 1.327 . S
C294 C282 1.349 . S
C294 H288 0.950 . S
C294 C295 1.327 . S
C295 H289 0.950 . S
C295 C294 1.327 . S
C295 C299 1.429 . S
C296 C279 1.574 . S
C296 H290 0.949 . S
C296 C300 1.368 1_554 S
C297 C278 1.429 . S
C297 C291 1.429 . S
C297 C298 1.523 . S
C298 C279 1.368 . S
C298 C292 1.368 1_554 S
C298 C297 1.523 . S
C299 C283 1.429 . S
C299 C295 1.429 . S
C299 C300 1.523 . S
C300 C284 1.368 . S
C300 C296 1.368 1_556 S
C300 C299 1.523 . S
H301 C276 0.950 . S
H302 C278 0.950 . S
H303 C279 0.949 . S
H304 C281 0.950 . S
H305 C283 0.950 . S
C306 C307 1.349 . S
C306 C308 1.327 . S
C306 H331 0.950 . S
C307 C306 1.349 . S
C307 C323 1.349 . S
C308 C306 1.327 . S
C308 C327 1.429 . S
C308 H332 0.950 . S
C309 C326 1.574 . S
C309 C328 1.368 . S
C309 H333 0.949 . S
H310 C314 0.949 . S
C311 C312 1.349 . S
C311 C313 1.327 . S
C311 H334 0.950 . S
C312 C311 1.349 . S
C312 C324 1.349 . S
C313 C311 1.327 . S
C313 C329 1.429 . S
C313 H335 0.950 . S
C314 H310 0.949 . S
C314 C322 1.574 . S
C314 C330 1.368 . S
H315 C323 0.950 . S
H316 C321 0.950 . S
H317 C322 0.949 . S
H318 C324 0.950 . S
H319 C325 0.950 . S
H320 C326 0.949 . S
C321 H316 0.950 . S
C321 C323 1.327 . S
C321 C327 1.429 . S
C322 C314 1.574 . S
C322 H317 0.949 . S
C322 C328 1.368 . S
C323 C307 1.349 . S
C323 H315 0.950 . S
C323 C321 1.327 . S
C324 C312 1.349 . S
C324 H318 0.950 . S
C324 C325 1.327 . S
C325 H319 0.950 . S
C325 C324 1.327 . S
C325 C329 1.429 . S
C326 C309 1.574 . S
C326 H320 0.949 . S
C326 C330 1.368 . S
C327 C308 1.429 . S
C327 C321 1.429 . S
C327 C328 1.523 . S
C328 C309 1.368 . S
C328 C322 1.368 . S
C328 C327 1.523 . S
C329 C313 1.429 . S
C329 C325 1.429 . S
C329 C330 1.523 . S
C330 C314 1.368 . S
C330 C326 1.368 . S
C330 C329 1.523 . S
H331 C306 0.950 . S
H332 C308 0.950 . S
H333 C309 0.949 . S
H334 C311 0.950 . S
H335 C313 0.950 . S
C336 C337 1.349 . S
C336 C338 1.327 . S
C336 H361 0.950 . S
C337 C336 1.349 . S
C337 C353 1.349 . S
C338 C336 1.327 . S
C338 C357 1.429 . S
C338 H362 0.950 . S
C339 C356 1.574 . S
C339 C358 1.368 . S
C339 H363 0.949 . S
H340 C344 0.949 . S
C341 C342 1.349 . S
C341 C343 1.327 . S
C341 H364 0.950 . S
C342 C341 1.349 . S
C342 C354 1.349 . S
C343 C341 1.327 . S
C343 C359 1.429 . S
C343 H365 0.950 . S
C344 H340 0.949 . S
C344 C352 1.574 . S
C344 C360 1.368 . S
H345 C353 0.950 . S
H346 C351 0.950 . S
H347 C352 0.949 . S
H348 C354 0.950 . S
H349 C355 0.950 . S
H350 C356 0.949 . S
C351 H346 0.950 . S
C351 C353 1.327 . S
C351 C357 1.429 . S
C352 C344 1.574 . S
C352 H347 0.949 . S
C352 C358 1.368 . S
C353 C337 1.349 . S
C353 H345 0.950 . S
C353 C351 1.327 . S
C354 C342 1.349 . S
C354 H348 0.950 . S
C354 C355 1.327 . S
C355 H349 0.950 . S
C355 C354 1.327 . S
C355 C359 1.429 . S
C356 C339 1.574 . S
C356 H350 0.949 . S
C356 C360 1.368 . S
C357 C338 1.429 . S
C357 C351 1.429 . S
C357 C358 1.523 . S
C358 C339 1.368 . S
C358 C352 1.368 . S
C358 C357 1.523 . S
C359 C343 1.429 . S
C359 C355 1.429 . S
C359 C360 1.523 . S
C360 C344 1.368 . S
C360 C356 1.368 . S
C360 C359 1.523 . S
H361 C336 0.950 . S
H362 C338 0.950 . S
H363 C339 0.949 . S
H364 C341 0.950 . S
H365 C343 0.950 . S
C366 C367 1.349 . S
C366 C368 1.327 . S
C366 H391 0.950 . S
C367 C366 1.349 . S
C367 C383 1.349 . S
C368 C366 1.327 . S
C368 C387 1.429 . S
C368 H392 0.950 . S
C369 C386 1.574 . S
C369 C388 1.368 . S
C369 H393 0.949 . S
H370 C374 0.949 . S
C371 C372 1.349 . S
C371 C373 1.327 . S
C371 H394 0.950 . S
C372 C371 1.349 . S
C372 C384 1.349 . S
C373 C371 1.327 . S
C373 C389 1.429 . S
C373 H395 0.950 . S
C374 H370 0.949 . S
C374 C382 1.574 . S
C374 C390 1.368 . S
H375 C383 0.950 . S
H376 C381 0.950 . S
H377 C382 0.949 . S
H378 C384 0.950 . S
H379 C385 0.950 . S
H380 C386 0.949 . S
C381 H376 0.950 . S
C381 C383 1.327 . S
C381 C387 1.429 . S
C382 C374 1.574 . S
C382 H377 0.949 . S
C382 C388 1.368 . S
C383 C367 1.349 . S
C383 H375 0.950 . S
C383 C381 1.327 . S
C384 C372 1.349 . S
C384 H378 0.950 . S
C384 C385 1.327 . S
C385 H379 0.950 . S
C385 C384 1.327 . S
C385 C389 1.429 . S
C386 C369 1.574 . S
C386 H380 0.949 . S
C386 C390 1.368 . S
C387 C368 1.429 . S
C387 C381 1.429 . S
C387 C388 1.523 . S
C388 C369 1.368 . S
C388 C382 1.368 . S
C388 C387 1.523 . S
C389 C373 1.429 . S
C389 C385 1.429 . S
C389 C390 1.523 . S
C390 C374 1.368 . S
C390 C386 1.368 . S
C390 C389 1.523 . S
H391 C366 0.950 . S
H392 C368 0.950 . S
H393 C369 0.949 . S
H394 C371 0.950 . S
H395 C373 0.950 . S
C396 C397 1.349 . S
C396 C398 1.327 . S
C396 H421 0.950 . S
C397 C396 1.349 . S
C397 C413 1.349 . S
C398 C396 1.327 . S
C398 C417 1.429 . S
C398 H422 0.950 . S
C399 C416 1.574 . S
C399 C418 1.368 . S
C399 H423 0.949 . S
H400 C404 0.949 . S
C401 C402 1.349 . S
C401 C403 1.327 . S
C401 H424 0.950 . S
C402 C401 1.349 . S
C402 C414 1.349 . S
C403 C401 1.327 . S
C403 C419 1.429 . S
C403 H425 0.950 . S
C404 H400 0.949 . S
C404 C412 1.574 . S
C404 C420 1.368 . S
H405 C413 0.950 . S
H406 C411 0.950 . S
H407 C412 0.949 . S
H408 C414 0.950 . S
H409 C415 0.950 . S
H410 C416 0.949 . S
C411 H406 0.950 . S
C411 C413 1.327 . S
C411 C417 1.429 . S
C412 C404 1.574 . S
C412 H407 0.949 . S
C412 C418 1.368 . S
C413 C397 1.349 . S
C413 H405 0.950 . S
C413 C411 1.327 . S
C414 C402 1.349 . S
C414 H408 0.950 . S
C414 C415 1.327 . S
C415 H409 0.950 . S
C415 C414 1.327 . S
C415 C419 1.429 . S
C416 C399 1.574 . S
C416 H410 0.949 . S
C416 C420 1.368 . S
C417 C398 1.429 . S
C417 C411 1.429 . S
C417 C418 1.523 . S
C418 C399 1.368 . S
C418 C412 1.368 . S
C418 C417 1.523 . S
C419 C403 1.429 . S
C419 C415 1.429 . S
C419 C420 1.523 . S
C420 C404 1.368 . S
C420 C416 1.368 . S
C420 C419 1.523 . S
H421 C396 0.950 . S
H422 C398 0.950 . S
H423 C399 0.949 . S
H424 C401 0.950 . S
H425 C403 0.950 . S
C426 C427 1.349 . S
C426 C428 1.327 . S
C426 H451 0.950 . S
C427 C426 1.349 . S
C427 C443 1.349 . S
C428 C426 1.327 . S
C428 C447 1.429 . S
C428 H452 0.950 . S
C429 C446 1.574 . S
C429 C448 1.368 . S
C429 H453 0.949 . S
H430 C434 0.949 . S
C431 C432 1.349 . S
C431 C433 1.327 . S
C431 H454 0.950 . S
C432 C431 1.349 . S
C432 C444 1.349 . S
C433 C431 1.327 . S
C433 C449 1.429 . S
C433 H455 0.950 . S
C434 H430 0.949 . S
C434 C442 1.574 . S
C434 C450 1.368 . S
H435 C443 0.950 . S
H436 C441 0.950 . S
H437 C442 0.949 . S
H438 C444 0.950 . S
H439 C445 0.950 . S
H440 C446 0.949 . S
C441 H436 0.950 . S
C441 C443 1.327 . S
C441 C447 1.429 . S
C442 C434 1.574 . S
C442 H437 0.949 . S
C442 C448 1.368 . S
C443 C427 1.349 . S
C443 H435 0.950 . S
C443 C441 1.327 . S
C444 C432 1.349 . S
C444 H438 0.950 . S
C444 C445 1.327 . S
C445 H439 0.950 . S
C445 C444 1.327 . S
C445 C449 1.429 . S
C446 C429 1.574 . S
C446 H440 0.949 . S
C446 C450 1.368 . S
C447 C428 1.429 . S
C447 C441 1.429 . S
C447 C448 1.523 . S
C448 C429 1.368 . S
C448 C442 1.368 . S
C448 C447 1.523 . S
C449 C433 1.429 . S
C449 C445 1.429 . S
C449 C450 1.523 . S
C450 C434 1.368 . S
C450 C446 1.368 . S
C450 C449 1.523 . S
H451 C426 0.950 . S
H452 C428 0.950 . S
H453 C429 0.949 . S
H454 C431 0.950 . S
H455 C433 0.950 . S
C456 C457 1.349 . S
C456 C458 1.327 . S
C456 H481 0.950 . S
C457 C456 1.349 . S
C457 C473 1.349 . S
C458 C456 1.327 . S
C458 C477 1.429 . S
C458 H482 0.950 . S
C459 C476 1.574 . S
C459 C478 1.368 . S
C459 H483 0.949 . S
H460 C464 0.949 . S
C461 C462 1.349 . S
C461 C463 1.327 . S
C461 H484 0.950 . S
C462 C461 1.349 . S
C462 C474 1.349 . S
C463 C461 1.327 . S
C463 C479 1.429 . S
C463 H485 0.950 . S
C464 H460 0.949 . S
C464 C472 1.574 . S
C464 C480 1.368 . S
H465 C473 0.950 . S
H466 C471 0.950 . S
H467 C472 0.949 . S
H468 C474 0.950 . S
H469 C475 0.950 . S
H470 C476 0.949 . S
C471 H466 0.950 . S
C471 C473 1.327 . S
C471 C477 1.429 . S
C472 C464 1.574 . S
C472 H467 0.949 . S
C472 C478 1.368 . S
C473 C457 1.349 . S
C473 H465 0.950 . S
C473 C471 1.327 . S
C474 C462 1.349 . S
C474 H468 0.950 . S
C474 C475 1.327 . S
C475 H469 0.950 . S
C475 C474 1.327 . S
C475 C479 1.429 . S
C476 C459 1.574 . S
C476 H470 0.949 . S
C476 C480 1.368 . S
C477 C458 1.429 . S
C477 C471 1.429 . S
C477 C478 1.523 . S
C478 C459 1.368 . S
C478 C472 1.368 . S
C478 C477 1.523 . S
C479 C463 1.429 . S
C479 C475 1.429 . S
C479 C480 1.523 . S
C480 C464 1.368 . S
C480 C476 1.368 . S
C480 C479 1.523 . S
H481 C456 0.950 . S
H482 C458 0.950 . S
H483 C459 0.949 . S
H484 C461 0.950 . S
H485 C463 0.950 . S
C486 C487 1.349 . S
C486 C488 1.327 . S
C486 H511 0.950 . S
C487 C486 1.349 . S
C487 C503 1.349 . S
C488 C486 1.327 . S
C488 C507 1.429 . S
C488 H512 0.950 . S
C489 C506 1.574 . S
C489 C508 1.368 1_554 S
C489 H513 0.949 . S
H490 C494 0.949 . S
C491 C492 1.349 . S
C491 C493 1.327 . S
C491 H514 0.950 . S
C492 C491 1.349 . S
C492 C504 1.349 . S
C493 C491 1.327 . S
C493 C509 1.429 . S
C493 H515 0.950 . S
C494 H490 0.949 . S
C494 C502 1.574 . S
C494 C510 1.368 1_556 S
H495 C503 0.950 . S
H496 C501 0.950 1_554 S
H497 C502 0.949 . S
H498 C504 0.950 . S
H499 C505 0.950 1_556 S
H500 C506 0.949 . S
C501 H496 0.950 1_556 S
C501 C503 1.327 . S
C501 C507 1.429 . S
C502 C494 1.574 . S
C502 H497 0.949 . S
C502 C508 1.368 . S
C503 C487 1.349 . S
C503 H495 0.950 . S
C503 C501 1.327 . S
C504 C492 1.349 . S
C504 H498 0.950 . S
C504 C505 1.327 . S
C505 H499 0.950 1_554 S
C505 C504 1.327 . S
C505 C509 1.429 . S
C506 C489 1.574 . S
C506 H500 0.949 . S
C506 C510 1.368 . S
C507 C488 1.429 . S
C507 C501 1.429 . S
C507 C508 1.523 . S
C508 C489 1.368 1_556 S
C508 C502 1.368 . S
C508 C507 1.523 . S
C509 C493 1.429 . S
C509 C505 1.429 . S
C509 C510 1.523 . S
C510 C494 1.368 1_554 S
C510 C506 1.368 . S
C510 C509 1.523 . S
H511 C486 0.950 . S
H512 C488 0.950 . S
H513 C489 0.949 . S
H514 C491 0.950 . S
H515 C493 0.950 . S
C516 C517 1.349 . S
C516 C518 1.327 . S
C516 H541 0.950 . S
C517 C516 1.349 . S
C517 C533 1.349 . S
C518 C516 1.327 . S
C518 C537 1.429 . S
C518 H542 0.950 . S
C519 C536 1.574 . S
C519 C538 1.368 . S
C519 H543 0.949 . S
H520 C524 0.949 . S
C521 C522 1.349 . S
C521 C523 1.327 . S
C521 H544 0.950 . S
C522 C521 1.349 . S
C522 C534 1.349 . S
C523 C521 1.327 . S
C523 C539 1.429 . S
C523 H545 0.950 . S
C524 H520 0.949 . S
C524 C532 1.574 . S
C524 C540 1.368 . S
H525 C533 0.950 . S
H526 C531 0.950 . S
H527 C532 0.949 . S
H528 C534 0.950 . S
H529 C535 0.950 . S
H530 C536 0.949 . S
C531 H526 0.950 . S
C531 C533 1.327 . S
C531 C537 1.429 . S
C532 C524 1.574 . S
C532 H527 0.949 . S
C532 C538 1.368 . S
C533 C517 1.349 . S
C533 H525 0.950 . S
C533 C531 1.327 . S
C534 C522 1.349 . S
C534 H528 0.950 . S
C534 C535 1.327 . S
C535 H529 0.950 . S
C535 C534 1.327 . S
C535 C539 1.429 . S
C536 C519 1.574 . S
C536 H530 0.949 . S
C536 C540 1.368 . S
C537 C518 1.429 . S
C537 C531 1.429 . S
C537 C538 1.523 . S
C538 C519 1.368 . S
C538 C532 1.368 . S
C538 C537 1.523 . S
C539 C523 1.429 . S
C539 C535 1.429 . S
C539 C540 1.523 . S
C540 C524 1.368 . S
C540 C536 1.368 . S
C540 C539 1.523 . S
H541 C516 0.950 . S
H542 C518 0.950 . S
H543 C519 0.949 . S
H544 C521 0.950 . S
H545 C523 0.950 . S
C546 C547 1.349 . S
C546 C548 1.327 . S
C546 H571 0.950 . S
C547 C546 1.349 . S
C547 C563 1.349 . S
C548 C546 1.327 . S
C548 C567 1.429 . S
C548 H572 0.950 . S
C549 C566 1.574 . S
C549 C568 1.368 1_554 S
C549 H573 0.949 . S
H550 C554 0.949 . S
C551 C552 1.349 . S
C551 C553 1.327 . S
C551 H574 0.950 . S
C552 C551 1.349 . S
C552 C564 1.349 . S
C553 C551 1.327 . S
C553 C569 1.429 . S
C553 H575 0.950 . S
C554 H550 0.949 . S
C554 C562 1.574 . S
C554 C570 1.368 1_556 S
H555 C563 0.950 . S
H556 C561 0.950 . S
H557 C562 0.949 . S
H558 C564 0.950 . S
H559 C565 0.950 . S
H560 C566 0.949 . S
C561 H556 0.950 . S
C561 C563 1.327 . S
C561 C567 1.429 . S
C562 C554 1.574 . S
C562 H557 0.949 . S
C562 C568 1.368 . S
C563 C547 1.349 . S
C563 H555 0.950 . S
C563 C561 1.327 . S
C564 C552 1.349 . S
C564 H558 0.950 . S
C564 C565 1.327 . S
C565 H559 0.950 . S
C565 C564 1.327 . S
C565 C569 1.429 . S
C566 C549 1.574 . S
C566 H560 0.949 . S
C566 C570 1.368 . S
C567 C548 1.429 . S
C567 C561 1.429 . S
C567 C568 1.523 . S
C568 C549 1.368 1_556 S
C568 C562 1.368 . S
C568 C567 1.523 . S
C569 C553 1.429 . S
C569 C565 1.429 . S
C569 C570 1.523 . S
C570 C554 1.368 1_554 S
C570 C566 1.368 . S
C570 C569 1.523 . S
H571 C546 0.950 . S
H572 C548 0.950 . S
H573 C549 0.949 . S
H574 C551 0.950 . S
H575 C553 0.950 . S
C576 C577 1.349 . S
C576 C578 1.327 . S
C576 H601 0.950 1_554 S
C577 C576 1.349 . S
C577 C593 1.349 . S
C578 C576 1.327 . S
C578 C597 1.429 . S
C578 H602 0.950 . S
C579 C596 1.574 . S
C579 C598 1.368 . S
C579 H603 0.949 . S
H580 C584 0.949 . S
C581 C582 1.349 . S
C581 C583 1.327 . S
C581 H604 0.950 . S
C582 C581 1.349 . S
C582 C594 1.349 . S
C583 C581 1.327 . S
C583 C599 1.429 . S
C583 H605 0.950 . S
C584 H580 0.949 . S
C584 C592 1.574 . S
C584 C600 1.368 . S
H585 C593 0.950 . S
H586 C591 0.950 . S
H587 C592 0.949 . S
H588 C594 0.950 . S
H589 C595 0.950 . S
H590 C596 0.949 . S
C591 H586 0.950 . S
C591 C593 1.327 . S
C591 C597 1.429 . S
C592 C584 1.574 . S
C592 H587 0.949 . S
C592 C598 1.368 . S
C593 C577 1.349 . S
C593 H585 0.950 . S
C593 C591 1.327 . S
C594 C582 1.349 . S
C594 H588 0.950 . S
C594 C595 1.327 . S
C595 H589 0.950 . S
C595 C594 1.327 . S
C595 C599 1.429 . S
C596 C579 1.574 . S
C596 H590 0.949 . S
C596 C600 1.368 . S
C597 C578 1.429 . S
C597 C591 1.429 . S
C597 C598 1.523 . S
C598 C579 1.368 . S
C598 C592 1.368 . S
C598 C597 1.523 . S
C599 C583 1.429 . S
C599 C595 1.429 . S
C599 C600 1.523 . S
C600 C584 1.368 . S
C600 C596 1.368 . S
C600 C599 1.523 . S
H601 C576 0.950 1_556 S
H602 C578 0.950 . S
H603 C579 0.949 . S
H604 C581 0.950 . S
H605 C583 0.950 . S
C606 C607 1.349 . S
C606 C608 1.327 . S
C606 H631 0.950 . S
C607 C606 1.349 . S
C607 C623 1.349 . S
C608 C606 1.327 . S
C608 C627 1.429 . S
C608 H632 0.950 . S
C609 C626 1.574 . S
C609 C628 1.368 . S
C609 H633 0.949 . S
H610 C614 0.949 . S
C611 C612 1.349 . S
C611 C613 1.327 . S
C611 H634 0.950 . S
C612 C611 1.349 . S
C612 C624 1.349 . S
C613 C611 1.327 . S
C613 C629 1.429 . S
C613 H635 0.950 . S
C614 H610 0.949 . S
C614 C622 1.574 . S
C614 C630 1.368 . S
H615 C623 0.950 . S
H616 C621 0.950 . S
H617 C622 0.949 . S
H618 C624 0.950 . S
H619 C625 0.950 . S
H620 C626 0.949 . S
C621 H616 0.950 . S
C621 C623 1.327 . S
C621 C627 1.429 . S
C622 C614 1.574 . S
C622 H617 0.949 . S
C622 C628 1.368 . S
C623 C607 1.349 . S
C623 H615 0.950 . S
C623 C621 1.327 . S
C624 C612 1.349 . S
C624 H618 0.950 . S
C624 C625 1.327 . S
C625 H619 0.950 . S
C625 C624 1.327 . S
C625 C629 1.429 . S
C626 C609 1.574 . S
C626 H620 0.949 . S
C626 C630 1.368 . S
C627 C608 1.429 . S
C627 C621 1.429 . S
C627 C628 1.523 . S
C628 C609 1.368 . S
C628 C622 1.368 . S
C628 C627 1.523 . S
C629 C613 1.429 . S
C629 C625 1.429 . S
C629 C630 1.523 . S
C630 C614 1.368 . S
C630 C626 1.368 . S
C630 C629 1.523 . S
H631 C606 0.950 . S
H632 C608 0.950 . S
H633 C609 0.949 . S
H634 C611 0.950 . S
H635 C613 0.950 . S
C636 C637 1.349 . S
C636 C638 1.327 . S
C636 H661 0.950 . S
C637 C636 1.349 . S
C637 C653 1.349 . S
C638 C636 1.327 . S
C638 C657 1.429 . S
C638 H662 0.950 . S
C639 C656 1.574 . S
C639 C658 1.368 . S
C639 H663 0.949 . S
H640 C644 0.949 . S
C641 C642 1.349 . S
C641 C643 1.327 . S
C641 H664 0.950 . S
C642 C641 1.349 . S
C642 C654 1.349 . S
C643 C641 1.327 . S
C643 C659 1.429 . S
C643 H665 0.950 . S
C644 H640 0.949 . S
C644 C652 1.574 . S
C644 C660 1.368 . S
H645 C653 0.950 . S
H646 C651 0.950 . S
H647 C652 0.949 . S
H648 C654 0.950 . S
H649 C655 0.950 . S
H650 C656 0.949 . S
C651 H646 0.950 . S
C651 C653 1.327 . S
C651 C657 1.429 . S
C652 C644 1.574 . S
C652 H647 0.949 . S
C652 C658 1.368 . S
C653 C637 1.349 . S
C653 H645 0.950 . S
C653 C651 1.327 . S
C654 C642 1.349 . S
C654 H648 0.950 . S
C654 C655 1.327 . S
C655 H649 0.950 . S
C655 C654 1.327 . S
C655 C659 1.429 . S
C656 C639 1.574 . S
C656 H650 0.949 . S
C656 C660 1.368 . S
C657 C638 1.429 . S
C657 C651 1.429 . S
C657 C658 1.523 . S
C658 C639 1.368 . S
C658 C652 1.368 . S
C658 C657 1.523 . S
C659 C643 1.429 . S
C659 C655 1.429 . S
C659 C660 1.523 . S
C660 C644 1.368 . S
C660 C656 1.368 . S
C660 C659 1.523 . S
H661 C636 0.950 . S
H662 C638 0.950 . S
H663 C639 0.949 . S
H664 C641 0.950 . S
H665 C643 0.950 . S
C666 C667 1.349 . S
C666 C668 1.327 . S
C666 H691 0.950 . S
C667 C666 1.349 . S
C667 C683 1.349 . S
C668 C666 1.327 . S
C668 C687 1.429 . S
C668 H692 0.950 . S
C669 C686 1.574 . S
C669 C688 1.368 . S
C669 H693 0.949 . S
H670 C674 0.949 . S
C671 C672 1.349 . S
C671 C673 1.327 . S
C671 H694 0.950 . S
C672 C671 1.349 . S
C672 C684 1.349 . S
C673 C671 1.327 . S
C673 C689 1.429 . S
C673 H695 0.950 . S
C674 H670 0.949 . S
C674 C682 1.574 . S
C674 C690 1.368 . S
H675 C683 0.950 . S
H676 C681 0.950 . S
H677 C682 0.949 . S
H678 C684 0.950 . S
H679 C685 0.950 . S
H680 C686 0.949 . S
C681 H676 0.950 . S
C681 C683 1.327 . S
C681 C687 1.429 . S
C682 C674 1.574 . S
C682 H677 0.949 . S
C682 C688 1.368 . S
C683 C667 1.349 . S
C683 H675 0.950 . S
C683 C681 1.327 . S
C684 C672 1.349 . S
C684 H678 0.950 . S
C684 C685 1.327 . S
C685 H679 0.950 . S
C685 C684 1.327 . S
C685 C689 1.429 . S
C686 C669 1.574 . S
C686 H680 0.949 . S
C686 C690 1.368 . S
C687 C668 1.429 . S
C687 C681 1.429 . S
C687 C688 1.523 . S
C688 C669 1.368 . S
C688 C682 1.368 . S
C688 C687 1.523 . S
C689 C673 1.429 . S
C689 C685 1.429 . S
C689 C690 1.523 . S
C690 C674 1.368 . S
C690 C686 1.368 . S
C690 C689 1.523 . S
H691 C666 0.950 . S
H692 C668 0.950 . S
H693 C669 0.949 . S
H694 C671 0.950 . S
H695 C673 0.950 . S
C696 C697 1.349 . S
C696 C698 1.327 . S
C696 H721 0.950 . S
C697 C696 1.349 . S
C697 C713 1.349 . S
C698 C696 1.327 . S
C698 C717 1.429 . S
C698 H722 0.950 . S
C699 C716 1.574 1_545 S
C699 C718 1.368 . S
C699 H723 0.949 . S
H700 C704 0.949 . S
C701 C702 1.349 . S
C701 C703 1.327 . S
C701 H724 0.950 . S
C702 C701 1.349 . S
C702 C714 1.349 . S
C703 C701 1.327 . S
C703 C719 1.429 . S
C703 H725 0.950 . S
C704 H700 0.949 . S
C704 C712 1.574 1_565 S
C704 C720 1.368 . S
H705 C713 0.950 . S
H706 C711 0.950 . S
H707 C712 0.949 . S
H708 C714 0.950 . S
H709 C715 0.950 . S
H710 C716 0.949 . S
C711 H706 0.950 . S
C711 C713 1.327 . S
C711 C717 1.429 . S
C712 C704 1.574 1_545 S
C712 H707 0.949 . S
C712 C718 1.368 . S
C713 C697 1.349 . S
C713 H705 0.950 . S
C713 C711 1.327 . S
C714 C702 1.349 . S
C714 H708 0.950 . S
C714 C715 1.327 . S
C715 H709 0.950 . S
C715 C714 1.327 . S
C715 C719 1.429 . S
C716 C699 1.574 1_565 S
C716 H710 0.949 . S
C716 C720 1.368 . S
C717 C698 1.429 . S
C717 C711 1.429 . S
C717 C718 1.523 . S
C718 C699 1.368 . S
C718 C712 1.368 . S
C718 C717 1.523 . S
C719 C703 1.429 . S
C719 C715 1.429 . S
C719 C720 1.523 . S
C720 C704 1.368 . S
C720 C716 1.368 . S
C720 C719 1.523 . S
H721 C696 0.950 . S
H722 C698 0.950 . S
H723 C699 0.949 . S
H724 C701 0.950 . S
H725 C703 0.950 . S
C726 C727 1.349 . S
C726 C728 1.327 . S
C726 H751 0.950 . S
C727 C726 1.349 . S
C727 C743 1.349 . S
C728 C726 1.327 . S
C728 C747 1.429 . S
C728 H752 0.950 . S
C729 C746 1.574 . S
C729 C748 1.368 . S
C729 H753 0.949 . S
H730 C734 0.949 . S
C731 C732 1.349 . S
C731 C733 1.327 . S
C731 H754 0.950 . S
C732 C731 1.349 . S
C732 C744 1.349 . S
C733 C731 1.327 . S
C733 C749 1.429 . S
C733 H755 0.950 . S
C734 H730 0.949 . S
C734 C742 1.574 . S
C734 C750 1.368 . S
H735 C743 0.950 . S
H736 C741 0.950 . S
H737 C742 0.949 . S
H738 C744 0.950 . S
H739 C745 0.950 . S
H740 C746 0.949 . S
C741 H736 0.950 . S
C741 C743 1.327 . S
C741 C747 1.429 . S
C742 C734 1.574 . S
C742 H737 0.949 . S
C742 C748 1.368 . S
C743 C727 1.349 . S
C743 H735 0.950 . S
C743 C741 1.327 . S
C744 C732 1.349 . S
C744 H738 0.950 . S
C744 C745 1.327 . S
C745 H739 0.950 . S
C745 C744 1.327 . S
C745 C749 1.429 . S
C746 C729 1.574 . S
C746 H740 0.949 . S
C746 C750 1.368 . S
C747 C728 1.429 . S
C747 C741 1.429 . S
C747 C748 1.523 . S
C748 C729 1.368 . S
C748 C742 1.368 . S
C748 C747 1.523 . S
C749 C733 1.429 . S
C749 C745 1.429 . S
C749 C750 1.523 . S
C750 C734 1.368 . S
C750 C746 1.368 . S
C750 C749 1.523 . S
H751 C726 0.950 . S
H752 C728 0.950 . S
H753 C729 0.949 . S
H754 C731 0.950 . S
H755 C733 0.950 . S
C756 C757 1.349 . S
C756 C758 1.327 . S
C756 H781 0.950 . S
C757 C756 1.349 . S
C757 C773 1.349 . S
C758 C756 1.327 . S
C758 C777 1.429 . S
C758 H782 0.950 . S
C759 C776 1.574 1_455 S
C759 C778 1.368 . S
C759 H783 0.949 . S
H760 C764 0.949 . S
C761 C762 1.349 . S
C761 C763 1.327 . S
C761 H784 0.950 . S
C762 C761 1.349 . S
C762 C774 1.349 . S
C763 C761 1.327 . S
C763 C779 1.429 . S
C763 H785 0.950 . S
C764 H760 0.949 . S
C764 C772 1.574 1_655 S
C764 C780 1.368 . S
H765 C773 0.950 . S
H766 C771 0.950 . S
H767 C772 0.949 . S
H768 C774 0.950 . S
H769 C775 0.950 . S
H770 C776 0.949 . S
C771 H766 0.950 . S
C771 C773 1.327 . S
C771 C777 1.429 . S
C772 C764 1.574 1_455 S
C772 H767 0.949 . S
C772 C778 1.368 . S
C773 C757 1.349 . S
C773 H765 0.950 . S
C773 C771 1.327 . S
C774 C762 1.349 . S
C774 H768 0.950 . S
C774 C775 1.327 . S
C775 H769 0.950 . S
C775 C774 1.327 . S
C775 C779 1.429 . S
C776 C759 1.574 1_655 S
C776 H770 0.949 . S
C776 C780 1.368 . S
C777 C758 1.429 . S
C777 C771 1.429 . S
C777 C778 1.523 . S
C778 C759 1.368 . S
C778 C772 1.368 . S
C778 C777 1.523 . S
C779 C763 1.429 . S
C779 C775 1.429 . S
C779 C780 1.523 . S
C780 C764 1.368 . S
C780 C776 1.368 . S
C780 C779 1.523 . S
H781 C756 0.950 . S
H782 C758 0.950 . S
H783 C759 0.949 . S
H784 C761 0.950 . S
H785 C763 0.950 . S
C786 C787 1.349 . S
C786 C788 1.327 . S
C786 H811 0.950 . S
C787 C786 1.349 . S
C787 C803 1.349 . S
C788 C786 1.327 . S
C788 C807 1.429 . S
C788 H812 0.950 . S
C789 C806 1.574 1_565 S
C789 C808 1.368 . S
C789 H813 0.949 . S
H790 C794 0.949 . S
C791 C792 1.349 . S
C791 C793 1.327 . S
C791 H814 0.950 . S
C792 C791 1.349 . S
C792 C804 1.349 . S
C793 C791 1.327 . S
C793 C809 1.429 . S
C793 H815 0.950 . S
C794 H790 0.949 . S
C794 C802 1.574 1_545 S
C794 C810 1.368 . S
H795 C803 0.950 . S
H796 C801 0.950 . S
H797 C802 0.949 . S
H798 C804 0.950 . S
H799 C805 0.950 . S
H800 C806 0.949 . S
C801 H796 0.950 . S
C801 C803 1.327 . S
C801 C807 1.429 . S
C802 C794 1.574 1_565 S
C802 H797 0.949 . S
C802 C808 1.368 . S
C803 C787 1.349 . S
C803 H795 0.950 . S
C803 C801 1.327 . S
C804 C792 1.349 . S
C804 H798 0.950 . S
C804 C805 1.327 . S
C805 H799 0.950 . S
C805 C804 1.327 . S
C805 C809 1.429 . S
C806 C789 1.574 1_545 S
C806 H800 0.949 . S
C806 C810 1.368 . S
C807 C788 1.429 . S
C807 C801 1.429 . S
C807 C808 1.523 . S
C808 C789 1.368 . S
C808 C802 1.368 . S
C808 C807 1.523 . S
C809 C793 1.429 . S
C809 C805 1.429 . S
C809 C810 1.523 . S
C810 C794 1.368 . S
C810 C806 1.368 . S
C810 C809 1.523 . S
H811 C786 0.950 . S
H812 C788 0.950 . S
H813 C789 0.949 . S
H814 C791 0.950 . S
H815 C793 0.950 . S
C816 C817 1.349 . S
C816 C818 1.327 . S
C816 H841 0.950 . S
C817 C816 1.349 . S
C817 C833 1.349 . S
C818 C816 1.327 . S
C818 C837 1.429 . S
C818 H842 0.950 . S
C819 C836 1.574 . S
C819 C838 1.368 . S
C819 H843 0.949 . S
H820 C824 0.949 . S
C821 C822 1.349 . S
C821 C823 1.327 . S
C821 H844 0.950 . S
C822 C821 1.349 . S
C822 C834 1.349 . S
C823 C821 1.327 . S
C823 C839 1.429 . S
C823 H845 0.950 . S
C824 H820 0.949 . S
C824 C832 1.574 . S
C824 C840 1.368 . S
H825 C833 0.950 . S
H826 C831 0.950 . S
H827 C832 0.949 . S
H828 C834 0.950 . S
H829 C835 0.950 . S
H830 C836 0.949 . S
C831 H826 0.950 . S
C831 C833 1.327 . S
C831 C837 1.429 . S
C832 C824 1.574 . S
C832 H827 0.949 . S
C832 C838 1.368 . S
C833 C817 1.349 . S
C833 H825 0.950 . S
C833 C831 1.327 . S
C834 C822 1.349 . S
C834 H828 0.950 . S
C834 C835 1.327 . S
C835 H829 0.950 . S
C835 C834 1.327 . S
C835 C839 1.429 . S
C836 C819 1.574 . S
C836 H830 0.949 . S
C836 C840 1.368 . S
C837 C818 1.429 . S
C837 C831 1.429 . S
C837 C838 1.523 . S
C838 C819 1.368 . S
C838 C832 1.368 . S
C838 C837 1.523 . S
C839 C823 1.429 . S
C839 C835 1.429 . S
C839 C840 1.523 . S
C840 C824 1.368 . S
C840 C836 1.368 . S
C840 C839 1.523 . S
H841 C816 0.950 . S
H842 C818 0.950 . S
H843 C819 0.949 . S
H844 C821 0.950 . S
H845 C823 0.950 . S
C846 C847 1.349 . S
C846 C848 1.327 . S
C846 H871 0.950 . S
C847 C846 1.349 . S
C847 C863 1.349 . S
C848 C846 1.327 . S
C848 C867 1.429 . S
C848 H872 0.950 . S
C849 C866 1.574 1_455 S
C849 C868 1.368 . S
C849 H873 0.949 . S
H850 C854 0.949 . S
C851 C852 1.349 . S
C851 C853 1.327 . S
C851 H874 0.950 . S
C852 C851 1.349 . S
C852 C864 1.349 . S
C853 C851 1.327 . S
C853 C869 1.429 . S
C853 H875 0.950 . S
C854 H850 0.949 . S
C854 C862 1.574 1_655 S
C854 C870 1.368 . S
H855 C863 0.950 . S
H856 C861 0.950 . S
H857 C862 0.949 . S
H858 C864 0.950 . S
H859 C865 0.950 . S
H860 C866 0.949 . S
C861 H856 0.950 . S
C861 C863 1.327 . S
C861 C867 1.429 . S
C862 C854 1.574 1_455 S
C862 H857 0.949 . S
C862 C868 1.368 . S
C863 C847 1.349 . S
C863 H855 0.950 . S
C863 C861 1.327 . S
C864 C852 1.349 . S
C864 H858 0.950 . S
C864 C865 1.327 . S
C865 H859 0.950 . S
C865 C864 1.327 . S
C865 C869 1.429 . S
C866 C849 1.574 1_655 S
C866 H860 0.949 . S
C866 C870 1.368 . S
C867 C848 1.429 . S
C867 C861 1.429 . S
C867 C868 1.523 . S
C868 C849 1.368 . S
C868 C862 1.368 . S
C868 C867 1.523 . S
C869 C853 1.429 . S
C869 C865 1.429 . S
C869 C870 1.523 . S
C870 C854 1.368 . S
C870 C866 1.368 . S
C870 C869 1.523 . S
H871 C846 0.950 . S
H872 C848 0.950 . S
H873 C849 0.949 . S
H874 C851 0.950 . S
H875 C853 0.950 . S
C157 C8 1.226 . S
C162 C138 1.226 . S
C187 C21 1.226 . S
C192 C151 1.226 . S
C217 C86 1.225 . S
C222 C34 1.225 . S
C247 C47 1.226 . S
C252 C99 1.226 1_556 S
C277 C112 1.226 . S
C282 C60 1.226 . S
C307 C125 1.226 . S
C312 C73 1.226 1_554 S
C337 C104 1.071 . S
C342 C0 1.071 . S
C367 C13 1.070 . S
C372 C117 1.070 . S
C397 C130 1.070 . S
C402 C26 1.070 . S
C427 C39 1.071 . S
C432 C143 1.071 . S
C457 C52 1.070 . S
C462 C78 1.070 . S
C487 C65 1.070 . S
C492 C91 1.070 . S
C517 C140 1.633 . S
C522 C10 1.633 1_556 S
C547 C153 1.633 . S
C552 C23 1.633 . S
C577 C88 1.633 1_554 S
C582 C36 1.633 . S
C607 C49 1.633 . S
C612 C101 1.633 . S
C637 C62 1.633 . S
C642 C114 1.633 . S
C667 C127 1.633 . S
C672 C75 1.633 . S
C697 C5 1.031 . S
C702 C96 1.031 . S
C727 C109 1.031 . S
C732 C18 1.031 . S
C757 C122 1.031 . S
C762 C31 1.031 . S
C787 C44 1.031 . S
C792 C135 1.031 . S
C817 C57 1.031 . S
C822 C148 1.031 . S
C847 C70 1.031 . S
C852 C83 1.031 . S
