# Generated by pormake.
# Topology bcg, (8)-cn, num edge types: 1
# Building blocks:
#     Node 0, Type 0, BuildingBlock: NUHRAL_clean_sbu_3, # of connection points: 8
#     Node 1, Type 0, BuildingBlock: NUHRAL_clean_sbu_3, # of connection points: 8
#     Node 2, Type 0, BuildingBlock: NUHRAL_clean_sbu_3, # of connection points: 8
#     Node 3, Type 0, BuildingBlock: NUHRAL_clean_sbu_3, # of connection points: 8
#     Edge 4, Type (0, 0), BuildingBlock: XUDNAN_clean_linker_2, # of connection points: 2
#     Edge 5, Type (0, 0), BuildingBlock: XUDNAN_clean_linker_2, # of connection points: 2
#     Edge 6, Type (0, 0), BuildingBlock: XUDNAN_clean_linker_2, # of connection points: 2
#     Edge 7, Type (0, 0), BuildingBlock: XUDNAN_clean_linker_2, # of connection points: 2
#     Edge 8, Type (0, 0), BuildingBlock: XUDNAN_clean_linker_2, # of connection points: 2
#     Edge 9, Type (0, 0), BuildingBlock: XUDNAN_clean_linker_2, # of connection points: 2
#     Edge 10, Type (0, 0), BuildingBlock: XUDNAN_clean_linker_2, # of connection points: 2
#     Edge 11, Type (0, 0), BuildingBlock: XUDNAN_clean_linker_2, # of connection points: 2
#     Edge 12, Type (0, 0), BuildingBlock: XUDNAN_clean_linker_2, # of connection points: 2
#     Edge 13, Type (0, 0), BuildingBlock: XUDNAN_clean_linker_2, # of connection points: 2
#     Edge 14, Type (0, 0), BuildingBlock: XUDNAN_clean_linker_2, # of connection points: 2
#     Edge 15, Type (0, 0), BuildingBlock: XUDNAN_clean_linker_2, # of connection points: 2
#     Edge 16, Type (0, 0), BuildingBlock: XUDNAN_clean_linker_2, # of connection points: 2
#     Edge 17, Type (0, 0), BuildingBlock: XUDNAN_clean_linker_2, # of connection points: 2
#     Edge 18, Type (0, 0), BuildingBlock: XUDNAN_clean_linker_2, # of connection points: 2
#     Edge 19, Type (0, 0), BuildingBlock: XUDNAN_clean_linker_2, # of connection points: 2
# Relax obj value: 0.166
# Max RMSD: 0.235
# Mean RMSD: 0.235
data_MOF--net-bcg--node1-NUHRAL_clean_sbu_3--edge1-XUDNAN_clean_linker_2
_symmetry_space_group_name_H-M    P1
_symmetry_Int_Tables_number       1
_symmetry_cell_setting            triclinic
loop_
_symmetry_equiv_pos_as_xyz
'x, y, z'
_cell_length_a     21.934005
_cell_length_b     17.864621
_cell_length_c     33.204281
_cell_angle_alpha  80.230701
_cell_angle_beta   90.021431
_cell_angle_gamma 90.05629
loop_
_atom_site_label
_atom_site_type_symbol
_atom_site_fract_x
_atom_site_fract_y
_atom_site_fract_z
_atom_type_partial_charge
C0 C 0.07585 0.34951 0.04614 0.0
C1 C 0.02855 0.31829 0.02576 0.0
C2 C 0.97401 0.29664 0.0465 0.0
C3 C 0.96644 0.30809 0.08684 0.0
C4 C 1.0132 0.3398 0.10722 0.0
C5 C 0.0679 0.36055 0.08657 0.0
O6 O 0.23209 0.20645 0.98818 0.0
Tb7 Tb 0.20237 0.32467 0.97393 0.0
O8 O 0.15829 0.32566 0.91545 0.0
O9 O 0.24811 0.10457 0.03542 0.0
Eu10 Eu 0.3414 0.16045 0.03193 0.0
O11 O 0.13977 0.40259 0.99068 0.0
C12 C 0.40843 0.13923 0.97043 0.0
O13 O 0.17333 0.30543 0.03452 0.0
O14 O 0.30899 0.28123 0.022 0.0
O15 O 0.29131 0.37844 0.97194 0.0
C16 C 0.13633 0.36383 0.02804 0.0
C17 C 0.43654 0.15266 0.10731 0.0
O18 O 0.46693 0.1018 0.09117 0.0
C19 C 0.20821 0.14856 0.01307 0.0
C20 C 0.3312 0.33803 0.99593 0.0
O21 O 0.38562 0.18159 0.09041 0.0
C22 C 0.46304 0.17067 0.94749 0.0
C23 C 0.50932 0.2266 0.88234 0.0
C24 C 0.45865 0.195 0.90493 0.0
C25 C 0.51923 0.17618 0.96706 0.0
C26 C 0.57047 0.20625 0.94451 0.0
C27 C 0.56468 0.23272 0.90241 0.0
C28 C 0.17511 0.27545 0.89306 0.0
O29 O 0.22071 0.22961 0.90527 0.0
O30 O 0.41543 0.09969 0.00756 0.0
O31 O 0.36103 0.18462 0.96703 0.0
H32 H 0.03467 0.3091 0.9946 0.0
H33 H 0.92345 0.29275 0.1022 0.0
H34 H 0.10527 0.38283 0.10241 0.0
H35 H 0.41606 0.18847 0.88928 0.0
H36 H 0.52329 0.15682 0.9997 0.0
H37 H 0.6045 0.25332 0.88451 0.0
C38 C 0.57203 0.84807 0.05121 0.0
C39 C 0.52166 0.83565 0.02673 0.0
C40 C 0.46176 0.83216 0.0426 0.0
C41 C 0.45361 0.84142 0.08348 0.0
C42 C 0.50265 0.85659 0.10796 0.0
C43 C 0.5621 0.85849 0.0919 0.0
O44 O 0.69832 0.68446 0.98859 0.0
Tb45 Tb 0.70368 0.8074 0.98393 0.0
O46 O 0.65787 0.80886 0.92512 0.0
O47 O 0.74232 0.62958 0.0491 0.0
Eu48 Eu 0.82831 0.69787 0.03679 0.0
O49 O 0.63934 0.88747 0.99508 0.0
C50 C 0.89231 0.66793 0.97556 0.0
O51 O 0.67317 0.80002 0.04465 0.0
O52 O 0.82407 0.82201 0.04 0.0
O53 O 0.79024 0.8693 0.97586 0.0
C54 C 0.63465 0.85658 0.03393 0.0
C55 C 0.86553 0.71159 0.12518 0.0
O56 O 0.81526 0.75211 0.12128 0.0
C57 C 0.69859 0.63289 0.02188 0.0
C58 C 0.82617 0.87409 0.00717 0.0
O59 O 0.88279 0.67778 0.09491 0.0
C60 C 0.94725 0.68925 0.95006 0.0
C61 C 0.99291 0.70924 0.88195 0.0
C62 C 0.94173 0.69406 0.90737 0.0
C63 C 1.00546 0.69804 0.9673 0.0
C64 C 0.05727 0.71094 0.94187 0.0
C65 C 0.04975 0.71838 0.89954 0.0
C66 C 0.67533 0.76105 0.90109 0.0
O67 O 0.72498 0.72068 0.91024 0.0
O68 O 0.90042 0.63362 0.01348 0.0
O69 O 0.8458 0.71521 0.97106 0.0
H70 H 0.52942 0.8301 0.99518 0.0
H71 H 0.40867 0.83566 0.09713 0.0
H72 H 0.60029 0.87056 0.11052 0.0
H73 H 0.89779 0.68498 0.894 0.0
H74 H 1.01079 0.69197 1.00014 0.0
H75 H 0.08955 0.7285 0.87997 0.0
C76 C 0.10203 0.71841 0.45512 0.0
C77 C 0.05076 0.72775 0.47934 0.0
C78 C 0.99292 0.74234 0.46114 0.0
C79 C 0.98718 0.74756 0.41867 0.0
C80 C 0.03772 0.73708 0.39425 0.0
C81 C 0.09523 0.7241 0.41275 0.0
O82 O 0.23138 0.81622 0.54935 0.0
Tb83 Tb 0.22466 0.70231 0.53528 0.0
O84 O 0.16861 0.66917 0.58943 0.0
O85 O 0.25231 0.88815 0.48777 0.0
Eu86 Eu 0.34091 0.82385 0.48356 0.0
O87 O 0.16074 0.64248 0.50667 0.0
C88 C 0.41967 0.84517 0.53952 0.0
O89 O 0.20323 0.74697 0.47419 0.0
O90 O 0.34239 0.70119 0.47581 0.0
O91 O 0.30923 0.63864 0.53806 0.0
C92 C 0.16174 0.69404 0.47328 0.0
C93 C 0.412 0.83817 0.40002 0.0
O94 O 0.44359 0.78306 0.42152 0.0
C95 C 0.22019 0.8762 0.52176 0.0
C96 C 0.34616 0.64421 0.50647 0.0
O97 O 0.36811 0.8704 0.4182 0.0
C98 C 0.47218 0.81084 0.56471 0.0
C99 C 0.51375 0.76373 0.63274 0.0
C100 C 0.4652 0.7942 0.60768 0.0
C101 C 0.5294 0.79744 0.54731 0.0
C102 C 0.57838 0.76696 0.57258 0.0
C103 C 0.56966 0.75157 0.615 0.0
C104 C 0.18156 0.69513 0.62318 0.0
O105 O 0.23204 0.734 0.62506 0.0
O106 O 0.42785 0.87048 0.50029 0.0
O107 O 0.366 0.81333 0.54775 0.0
H108 H 0.05545 0.72117 0.51225 0.0
H109 H 0.94211 0.75376 0.40512 0.0
H110 H 0.13462 0.71552 0.39435 0.0
H111 H 0.42211 0.80496 0.62162 0.0
H112 H 0.53563 0.80973 0.51449 0.0
H113 H 0.60736 0.73063 0.63493 0.0
C114 C 0.58254 0.15208 0.45301 0.0
C115 C 0.52759 0.1502 0.47497 0.0
C116 C 0.47205 0.16622 0.45421 0.0
C117 C 0.47191 0.18465 0.41146 0.0
C118 C 0.52621 0.18622 0.38907 0.0
C119 C 0.58136 0.16895 0.41 0.0
O120 O 0.74446 0.2975 0.50236 0.0
Tb121 Tb 0.70241 0.19174 0.52692 0.0
O122 O 0.65194 0.22963 0.57645 0.0
O123 O 0.77002 0.41132 0.47397 0.0
Eu124 Eu 0.8554 0.33908 0.47963 0.0
O125 O 0.6426 0.10798 0.51291 0.0
C126 C 0.93054 0.36063 0.53663 0.0
O127 O 0.68087 0.19589 0.4653 0.0
O128 O 0.83149 0.21325 0.48568 0.0
O129 O 0.79063 0.1375 0.5414 0.0
C130 C 0.64201 0.13947 0.47393 0.0
C131 C 0.88801 0.31912 0.39142 0.0
O132 O 0.85534 0.25748 0.4027 0.0
C133 C 0.72538 0.36603 0.48804 0.0
C134 C 0.83915 0.16376 0.51962 0.0
O135 O 0.89612 0.36628 0.41717 0.0
C136 C 0.97638 0.31493 0.56244 0.0
C137 C 1.01112 0.25918 0.63033 0.0
C138 C 0.96919 0.30345 0.60505 0.0
C139 C 0.02706 0.28297 0.54539 0.0
C140 C 0.07023 0.24004 0.57083 0.0
C141 C 0.06127 0.22805 0.61318 0.0
C142 C 0.62868 0.18104 0.60664 0.0
O143 O 0.6344 0.10799 0.60614 0.0
O144 O 0.94302 0.37966 0.49752 0.0
O145 O 0.87336 0.34075 0.5439 0.0
H146 H 0.52796 0.13765 0.50807 0.0
H147 H 0.42896 0.196 0.39538 0.0
H148 H 0.62357 0.17054 0.39287 0.0
H149 H 0.93096 0.32867 0.61855 0.0
H150 H 0.03308 0.29143 0.51254 0.0
H151 H 0.09509 0.19728 0.63333 0.0
H152 H 0.657 0.31831 0.93382 0.0
H153 H 0.62194 0.08954 0.99768 0.0
H154 H 0.72706 0.08255 0.02484 0.0
H155 H 0.81285 0.28586 0.90507 0.0
H156 H 0.83877 0.37827 0.91262 0.0
H157 H 0.76096 0.36525 0.89773 0.0
H158 H 0.72137 0.41883 0.96113 0.0
H159 H 0.79916 0.43422 0.97492 0.0
H160 H 0.74927 0.37777 0.0111 0.0
H161 H 0.83338 0.10319 0.04772 0.0
H162 H 0.93187 0.15336 0.06785 0.0
H163 H 0.90003 0.36478 0.98564 0.0
C164 C 0.67157 0.26662 0.95338 0.0
C165 C 0.63145 0.20449 0.9637 0.0
C166 C 0.65174 0.13822 0.98988 0.0
C167 C 0.71152 0.13336 0.00499 0.0
C168 C 0.75029 0.19509 0.99344 0.0
C169 C 0.73105 0.26062 0.96846 0.0
C170 C 0.78094 0.31996 0.96187 0.0
C171 C 0.79946 0.33839 0.91662 0.0
C172 C 0.76151 0.39197 0.97821 0.0
C173 C 0.8311 0.27803 0.9876 0.0
C174 C 0.81255 0.20588 0.00539 0.0
C175 C 0.84882 0.15895 0.03341 0.0
C176 C 0.9047 0.18744 0.04444 0.0
C177 C 0.92368 0.26161 0.02725 0.0
C178 C 0.88724 0.30676 0.99781 0.0
H179 H 0.10409 0.79611 0.99712 0.0
H180 H 0.15442 0.63128 0.92114 0.0
H181 H 0.2631 0.65322 0.93377 0.0
H182 H 0.22742 0.92768 0.96923 0.0
H183 H 0.23809 0.94756 0.02018 0.0
H184 H 0.16438 0.91964 0.0042 0.0
H185 H 0.16366 0.80241 0.06653 0.0
H186 H 0.23526 0.83939 0.08135 0.0
H187 H 0.22967 0.74232 0.07332 0.0
H188 H 0.36612 0.70385 0.94785 0.0
H189 H 0.4573 0.75159 0.97828 0.0
H190 H 0.34146 0.87906 0.04848 0.0
C191 C 0.13805 0.76378 0.98393 0.0
C192 C 0.12078 0.71312 0.95758 0.0
C193 C 0.16663 0.6714 0.94088 0.0
C194 C 0.22852 0.68377 0.94763 0.0
C195 C 0.24418 0.73714 0.97182 0.0
C196 C 0.20049 0.77482 0.9908 0.0
C197 C 0.23037 0.82645 0.01694 0.0
C198 C 0.21404 0.91022 1.00177 0.0
C199 C 0.21376 0.8013 0.06221 0.0
C200 C 0.29718 0.81195 0.00942 0.0
C201 C 0.30407 0.76155 0.98264 0.0
C202 C 0.36137 0.74161 0.9699 0.0
C203 C 0.41313 0.76958 0.98732 0.0
C204 C 0.40747 0.81567 0.01793 0.0
C205 C 0.34827 0.84026 0.02717 0.0
H206 H 0.64957 0.85332 0.51217 0.0
H207 H 0.64578 0.63971 0.59709 0.0
H208 H 0.75224 0.61587 0.58065 0.0
H209 H 0.74538 0.78139 0.43579 0.0
H210 H 0.78643 0.8695 0.4221 0.0
H211 H 0.70887 0.87015 0.4399 0.0
H212 H 0.74336 0.94463 0.49642 0.0
H213 H 0.82123 0.94301 0.47933 0.0
H214 H 0.8023 0.90579 0.53171 0.0
H215 H 0.86039 0.61774 0.55975 0.0
H216 H 0.9607 0.63492 0.52583 0.0
H217 H 0.89655 0.84313 0.45122 0.0
C218 C 0.67089 0.80101 0.5267 0.0
C219 C 0.63937 0.74916 0.55658 0.0
C220 C 0.66923 0.68139 0.57495 0.0
C221 C 0.72979 0.66708 0.56577 0.0
C222 C 0.76035 0.72056 0.53771 0.0
C223 C 0.73186 0.78535 0.51764 0.0
C224 C 0.77575 0.83221 0.48804 0.0
C225 C 0.75274 0.83867 0.44383 0.0
C226 C 0.78625 0.91107 0.49958 0.0
C227 C 0.83297 0.78365 0.49504 0.0
C228 C 0.82303 0.7201 0.52427 0.0
C229 C 0.8688 0.66705 0.5366 0.0
C230 C 0.92587 0.67771 0.51753 0.0
C231 C 0.93654 0.74044 0.48612 0.0
C232 C 0.88963 0.79472 0.47525 0.0
H233 H 0.14451 0.31312 0.50981 0.0
H234 H 0.12549 0.10299 0.5961 0.0
H235 H 0.22516 0.05994 0.57466 0.0
H236 H 0.22229 0.2297 0.4296 0.0
H237 H 0.2712 0.31116 0.41572 0.0
H238 H 0.19601 0.32272 0.43563 0.0
H239 H 0.24292 0.38828 0.49238 0.0
H240 H 0.31823 0.3762 0.473 0.0
H241 H 0.30048 0.33933 0.52562 0.0
H242 H 0.32998 0.04338 0.54759 0.0
H243 H 0.43073 0.05218 0.51345 0.0
H244 H 0.38144 0.27266 0.44496 0.0
C245 C 0.16056 0.25725 0.52343 0.0
C246 C 0.12675 0.21099 0.55431 0.0
C247 C 0.15038 0.13918 0.57221 0.0
C248 C 0.20694 0.11417 0.56024 0.0
C249 C 0.23956 0.16168 0.53032 0.0
C250 C 0.21711 0.23143 0.51189 0.0
C251 C 0.26249 0.27284 0.4817 0.0
C252 C 0.23645 0.28479 0.43807 0.0
C253 C 0.28217 0.34862 0.49393 0.0
C254 C 0.3143 0.21608 0.48666 0.0
C255 C 0.30014 0.15224 0.5148 0.0
C256 C 0.34152 0.0929 0.52531 0.0
C257 C 0.39869 0.09861 0.50609 0.0
C258 C 0.41358 0.16298 0.47665 0.0
C259 C 0.37088 0.22249 0.4671 0.0
H260 H 0.58194 0.65236 0.99925 0.0
H261 H 0.71102 0.47862 0.05031 0.0
H262 H 0.63264 0.37914 0.04582 0.0
H263 H 0.44852 0.55129 0.05482 0.0
H264 H 0.40126 0.59686 0.01361 0.0
H265 H 0.47039 0.64209 0.02728 0.0
H266 H 0.49978 0.65017 0.94755 0.0
H267 H 0.43359 0.59531 0.93889 0.0
H268 H 0.50859 0.56227 0.92856 0.0
H269 H 0.53571 0.29997 0.03505 0.0
H270 H 0.43242 0.25217 0.02282 0.0
H271 H 0.3726 0.48179 0.97737 0.0
C272 C 0.59377 0.5933 0.00957 0.0
C273 C 0.65234 0.57261 0.02459 0.0
C274 C 0.66601 0.49518 0.03869 0.0
C275 C 0.62198 0.43858 0.03603 0.0
C276 C 0.56468 0.46117 0.01991 0.0
C277 C 0.5506 0.53699 0.00774 0.0
C278 C 0.48557 0.54818 0.99369 0.0
C279 C 0.44918 0.58712 0.02395 0.0
C280 C 0.48164 0.59161 0.94959 0.0
C281 C 0.46581 0.46689 0.99662 0.0
C282 C 0.51111 0.41694 0.01296 0.0
C283 C 0.50038 0.33892 0.02197 0.0
C284 C 0.44159 0.31218 0.01494 0.0
C285 C 0.39491 0.36315 0.99851 0.0
C286 C 0.40784 0.44113 0.98867 0.0
H287 H 0.6818 0.51043 0.46709 0.0
H288 H 0.62217 0.27847 0.50648 0.0
H289 H 0.51752 0.32239 0.51454 0.0
H290 H 0.59116 0.59909 0.53053 0.0
H291 H 0.57398 0.68102 0.4925 0.0
H292 H 0.64357 0.62941 0.48903 0.0
H293 H 0.6129 0.61116 0.41561 0.0
H294 H 0.54303 0.66227 0.41975 0.0
H295 H 0.54065 0.56775 0.4076 0.0
H296 H 0.42128 0.39531 0.52653 0.0
H297 H 0.33939 0.48943 0.53168 0.0
H298 H 0.46094 0.67087 0.47882 0.0
C299 C 0.64665 0.4687 0.47701 0.0
C300 C 0.66096 0.39095 0.488 0.0
C301 C 0.61332 0.33833 0.49996 0.0
C302 C 0.55328 0.36287 0.50406 0.0
C303 C 0.5412 0.44028 0.49463 0.0
C304 C 0.58627 0.49217 0.48017 0.0
C305 C 0.56146 0.57216 0.47181 0.0
C306 C 0.59459 0.62343 0.49751 0.0
C307 C 0.56469 0.60525 0.42597 0.0
C308 C 0.4963 0.55759 0.48575 0.0
C309 C 0.48515 0.48122 0.49873 0.0
C310 C 0.42911 0.45515 0.51565 0.0
C311 C 0.38316 0.50876 0.51879 0.0
C312 C 0.39376 0.58691 0.50473 0.0
C313 C 0.45105 0.6112 0.48831 0.0
H314 H 0.14581 0.03541 0.06394 0.0
H315 H 0.11987 0.22091 0.96366 0.0
H316 H 1.01537 0.17838 0.95379 0.0
H317 H 0.06468 0.89539 0.02696 0.0
H318 H 0.03102 0.85546 0.0752 0.0
H319 H 0.10186 0.90645 0.07425 0.0
H320 H 0.05112 0.99254 0.12031 0.0
H321 H 0.97965 0.94321 0.11861 0.0
H322 H 0.98324 0.0446 0.1028 0.0
H323 H 0.92073 0.10139 0.94711 0.0
H324 H 0.83796 0.00588 0.95066 0.0
H325 H 0.9202 0.87898 0.0603 0.0
C326 C 0.11758 0.0682 0.04061 0.0
C327 C 0.14189 0.13079 0.01353 0.0
C328 C 0.10324 0.17194 0.98366 0.0
C329 C 0.04337 0.14835 0.97815 0.0
C330 C 1.02159 0.08467 0.00405 0.0
C331 C 0.0567 0.04664 0.03569 0.0
C332 C 1.02229 0.9791 0.0588 0.0
C333 C 0.05716 0.90465 0.05878 0.0
C334 C 1.00821 0.99061 0.1027 0.0
C335 C 0.96477 0.98207 0.03328 0.0
C336 C 0.96491 0.04362 1.00195 0.0
C337 C 0.91946 0.05368 0.97201 0.0
C338 C 0.87281 0.99903 0.97407 0.0
C339 C 0.87229 0.93519 0.00579 0.0
C340 C 0.91849 0.92778 0.03598 0.0
H341 H 0.93059 0.14666 0.46543 0.0
H342 H 0.88234 0.0962 0.5939 0.0
H343 H 0.97896 0.02562 0.60856 0.0
H344 H 0.99213 0.96368 0.46169 0.0
H345 H 0.05159 0.99757 0.42573 0.0
H346 H 0.98167 0.05032 0.42568 0.0
H347 H 0.04283 0.17021 0.43458 0.0
H348 H 0.11329 0.11814 0.43504 0.0
H349 H 0.09473 0.16623 0.47685 0.0
H350 H 0.07489 0.9519 0.60856 0.0
H351 H 0.16736 0.88303 0.59494 0.0
H352 H 0.15486 0.97873 0.46593 0.0
C353 C 0.94095 0.12192 0.49675 0.0
C354 C 0.89915 0.12701 0.52867 0.0
C355 C 0.91368 0.09269 0.56908 0.0
C356 C 0.96843 0.05267 0.57766 0.0
C357 C 1.00784 0.04687 0.54539 0.0
C358 C 0.99502 0.08064 0.50575 0.0
C359 C 0.04334 0.06126 0.47637 0.0
C360 C 1.01551 0.0155 0.44556 0.0
C361 C 0.07546 0.13324 0.45442 0.0
C362 C 0.08591 0.01237 0.50585 0.0
C363 C 0.06391 0.00423 0.5454 0.0
C364 C 0.09281 0.95829 0.57779 0.0
C365 C 0.1455 0.91942 0.56968 0.0
C366 C 0.16891 0.92601 0.5294 0.0
C367 C 0.13896 0.97393 0.49714 0.0
H368 H 0.57338 0.10635 0.33238 0.0
H369 H 0.47105 0.30888 0.34426 0.0
H370 H 0.45105 0.33196 0.27013 0.0
H371 H 0.6352 0.18119 0.22472 0.0
H372 H 0.62773 0.08879 0.21029 0.0
H373 H 0.64557 0.09682 0.26242 0.0
H374 H 0.55192 0.01291 0.28757 0.0
H375 H 0.53507 0.00513 0.23548 0.0
H376 H 0.47797 0.04087 0.26654 0.0
H377 H 0.42772 0.32232 0.19891 0.0
H378 H 0.40245 0.28176 0.13389 0.0
H379 H 0.51821 0.08349 0.16594 0.0
C380 C 0.54887 0.15708 0.31893 0.0
C381 C 0.52393 0.20612 0.34386 0.0
C382 C 0.49048 0.27074 0.3256 0.0
C383 C 0.47926 0.28454 0.28351 0.0
C384 C 0.50234 0.23362 0.25991 0.0
C385 C 0.53719 0.1717 0.27672 0.0
C386 C 0.55044 0.1214 0.24517 0.0
C387 C 0.61881 0.12213 0.23505 0.0
C388 C 0.52744 0.04016 0.25961 0.0
C389 C 0.51369 0.16153 0.20909 0.0
C390 C 0.48794 0.22738 0.21808 0.0
C391 C 0.44842 0.27163 0.19121 0.0
C392 C 0.43392 0.2476 0.15443 0.0
C393 C 0.4582 0.1793 0.14478 0.0
C394 C 0.49965 0.13649 0.17219 0.0
H395 H 0.5522 0.79011 0.18231 0.0
H396 H 0.42096 0.9586 0.12758 0.0
H397 H 0.38623 0.97544 0.19608 0.0
H398 H 0.4571 0.70227 0.26335 0.0
H399 H 0.51674 0.68601 0.30119 0.0
H400 H 0.53484 0.69058 0.24793 0.0
H401 H 0.61336 0.79713 0.25219 0.0
H402 H 0.5957 0.79276 0.30554 0.0
H403 H 0.58972 0.88158 0.2708 0.0
H404 H 0.36005 0.96761 0.27002 0.0
H405 H 0.34876 0.94155 0.34508 0.0
H406 H 0.49673 0.77833 0.35305 0.0
C407 C 0.51708 0.83156 0.1849 0.0
C408 C 0.48925 0.87307 0.14959 0.0
C409 C 0.44276 0.92608 0.1542 0.0
C410 C 0.4225 0.93578 0.19298 0.0
C411 C 0.44902 0.89197 0.22714 0.0
C412 C 0.49595 0.84176 0.22365 0.0
C413 C 0.51574 0.80104 0.26554 0.0
C414 C 0.50547 0.71487 0.26973 0.0
C415 C 0.58258 0.81926 0.27401 0.0
C416 C 0.47251 0.83611 0.29289 0.0
C417 C 0.43431 0.88818 0.27005 0.0
C418 C 0.38972 0.92695 0.28828 0.0
C419 C 0.38384 0.91196 0.331 0.0
C420 C 0.4219 0.85811 0.35515 0.0
C421 C 0.46711 0.8202 0.33562 0.0
H422 H 0.51084 0.86309 0.68645 0.0
H423 H 0.51656 0.62368 0.67956 0.0
H424 H 0.54492 0.59428 0.75262 0.0
H425 H 0.63739 0.86087 0.73727 0.0
H426 H 0.62245 0.92499 0.77206 0.0
H427 H 0.58188 0.93522 0.72393 0.0
H428 H 0.47311 0.91702 0.75607 0.0
H429 H 0.51096 0.92424 0.80368 0.0
H430 H 0.46198 0.84469 0.80005 0.0
H431 H 0.59478 0.59452 0.82086 0.0
H432 H 0.65267 0.62311 0.88032 0.0
H433 H 0.61269 0.86252 0.84433 0.0
C434 C 0.51413 0.80427 0.70113 0.0
C435 C 0.50955 0.74541 0.67789 0.0
C436 C 0.51807 0.66923 0.69732 0.0
C437 C 0.53453 0.65214 0.73874 0.0
C438 C 0.54191 0.71189 0.76044 0.0
C439 C 0.53063 0.78629 0.74253 0.0
C440 C 0.55074 0.84069 0.77029 0.0
C441 C 0.60093 0.89384 0.7496 0.0
C442 C 0.49603 0.88445 0.7833 0.0
C443 C 0.57618 0.78626 0.80618 0.0
C444 C 0.57072 0.71197 0.79995 0.0
C445 C 0.59764 0.65234 0.8265 0.0
C446 C 0.63085 0.66921 0.86002 0.0
C447 C 0.63656 0.74498 0.86704 0.0
C448 C 0.60779 0.80397 0.84018 0.0
H449 H 0.50248 0.12238 0.83294 0.0
H450 H 0.52292 0.36361 0.83118 0.0
H451 H 0.54405 0.38275 0.75656 0.0
H452 H 0.62687 0.11824 0.77809 0.0
H453 H 0.60951 0.04976 0.74649 0.0
H454 H 0.57461 0.04219 0.79637 0.0
H455 H 0.46362 0.05197 0.77294 0.0
H456 H 0.49075 0.04286 0.72258 0.0
H457 H 0.44211 0.12093 0.72924 0.0
H458 H 0.57477 0.3705 0.68247 0.0
H459 H 0.61474 0.32856 0.62006 0.0
H460 H 0.57995 0.09419 0.67443 0.0
C461 C 0.5081 0.17967 0.81635 0.0
C462 C 0.50865 0.24189 0.83716 0.0
C463 C 0.5205 0.31561 0.81522 0.0
C464 C 0.53265 0.32683 0.77293 0.0
C465 C 0.53359 0.26349 0.75336 0.0
C466 C 0.52153 0.19146 0.77464 0.0
C467 C 0.53637 0.13133 0.74942 0.0
C468 C 0.58974 0.08219 0.76886 0.0
C469 C 0.47985 0.08383 0.74323 0.0
C470 C 0.55598 0.17975 0.70994 0.0
C471 C 0.55457 0.25608 0.71249 0.0
C472 C 0.57517 0.31077 0.68022 0.0
C473 C 0.59791 0.28638 0.64487 0.0
C474 C 0.60033 0.20793 0.64223 0.0
C475 C 0.57825 0.15457 0.67515 0.0
H476 H 0.96082 0.82123 0.33875 0.0
H477 H 0.09147 0.63619 0.35131 0.0
H478 H 0.06717 0.61576 0.28154 0.0
H479 H 0.84905 0.72892 0.29075 0.0
H480 H 0.82255 0.81279 0.25736 0.0
H481 H 0.85662 0.82088 0.30573 0.0
H482 H 0.93611 0.91653 0.26908 0.0
H483 H 0.90185 0.90923 0.22056 0.0
H484 H 0.98202 0.89043 0.22862 0.0
H485 H 0.02385 0.61025 0.21193 0.0
H486 H 0.96159 0.61604 0.14928 0.0
H487 H 0.85505 0.79907 0.18469 0.0
C488 C 0.98498 0.77703 0.3267 0.0
C489 C 0.0286 0.73097 0.35051 0.0
C490 C 0.05904 0.67366 0.33344 0.0
C491 C 0.04524 0.6612 0.29387 0.0
C492 C 1.00089 0.70641 0.27173 0.0
C493 C 0.97127 0.76325 0.28752 0.0
C494 C 0.92194 0.79976 0.25891 0.0
C495 C 0.85883 0.78996 0.27942 0.0
C496 C 0.93637 0.88397 0.24338 0.0
C497 C 0.92744 0.7533 0.22503 0.0
C498 C 0.97387 0.70062 0.23261 0.0
C499 C 0.98714 0.6509 0.2057 0.0
C500 C 0.95165 0.65472 0.17023 0.0
C501 C 0.90324 0.70758 0.16231 0.0
C502 C 0.89143 0.75757 0.19006 0.0
H503 H 0.88427 0.22919 0.33278 0.0
H504 H 0.95273 0.44528 0.35722 0.0
H505 H 0.99656 0.4723 0.28773 0.0
H506 H 1.01256 0.18485 0.27256 0.0
H507 H 0.96543 0.1429 0.23784 0.0
H508 H 0.9415 0.13985 0.28998 0.0
H509 H 0.83948 0.2046 0.26469 0.0
H510 H 0.86311 0.20795 0.21252 0.0
H511 H 0.84084 0.29402 0.23008 0.0
H512 H 0.03028 0.47652 0.21495 0.0
H513 H 0.04797 0.46046 0.14337 0.0
H514 H 0.95982 0.23968 0.16842 0.0
C515 C 0.90873 0.28205 0.32367 0.0
C516 C 0.91516 0.33512 0.35033 0.0
C517 C 0.9474 0.40372 0.33723 0.0
C518 C 0.97254 0.41951 0.2979 0.0
C519 C 0.96523 0.36586 0.27235 0.0
C520 C 0.93416 0.29853 0.28473 0.0
C521 C 0.93116 0.25123 0.25115 0.0
C522 C 0.96468 0.17522 0.26364 0.0
C523 C 0.8647 0.23877 0.23889 0.0
C524 C 0.96481 0.3029 0.21774 0.0
C525 C 0.98437 0.36854 0.23053 0.0
C526 C 1.0152 0.42549 0.20451 0.0
C527 C 0.02545 0.41555 0.16409 0.0
C528 C 1.00505 0.34898 0.15033 0.0
C529 C 0.97516 0.29172 0.17783 0.0
H530 H 0.1216 0.37872 0.83347 0.0
H531 H 0.14147 0.13747 0.87792 0.0
H532 H 0.07793 0.10918 0.82107 0.0
H533 H 0.96382 0.3719 0.78852 0.0
H534 H 0.983 0.44235 0.7448 0.0
H535 H 1.01855 0.44512 0.79352 0.0
H536 H 0.12512 0.44236 0.76056 0.0
H537 H 0.09029 0.44029 0.71185 0.0
H538 H 0.14357 0.36708 0.73268 0.0
H539 H 0.02677 0.10543 0.75618 0.0
H540 H 1.00224 0.12597 0.68263 0.0
H541 H 1.01699 0.36914 0.67747 0.0
C542 C 0.11111 0.32018 0.83152 0.0
C543 C 0.13584 0.2601 0.85977 0.0
C544 C 0.12293 0.18402 0.85619 0.0
C545 C 0.08624 0.16752 0.82443 0.0
C546 C 0.06317 0.22782 0.79647 0.0
C547 C 0.07553 0.30272 0.79937 0.0
C548 C 0.0534 0.35612 0.76183 0.0
C549 C 1.00159 0.40686 0.77284 0.0
C550 C 0.10625 0.4042 0.74048 0.0
C551 C 0.02999 0.29915 0.73647 0.0
C552 C 0.0341 0.22566 0.75774 0.0
C553 C 1.02184 0.16261 0.73946 0.0
C554 C 1.00786 0.17466 0.69782 0.0
C555 C 1.00683 0.24902 0.67507 0.0
C556 C 1.01552 0.31207 0.69484 0.0
H557 H 0.1654 0.79546 0.67492 0.0
H558 H 0.09647 0.5829 0.64665 0.0
H559 H 0.02438 0.57371 0.70493 0.0
H560 H 0.16517 0.7466 0.77982 0.0
H561 H 0.14192 0.83877 0.78931 0.0
H562 H 0.18216 0.83063 0.74318 0.0
H563 H 0.09409 0.9016 0.70047 0.0
H564 H 0.05321 0.90898 0.74673 0.0
H565 H 1.01736 0.86563 0.70756 0.0
H566 H 0.9706 0.58051 0.77235 0.0
H567 H 0.94437 0.59996 0.8424 0.0
H568 H 0.04209 0.81379 0.82189 0.0
C569 C 0.13475 0.74725 0.68077 0.0
C570 C 0.13673 0.68947 0.6567 0.0
C571 C 0.09554 0.62771 0.66489 0.0
C572 C 0.05432 0.62232 0.69775 0.0
C573 C 0.05384 0.6803 0.72118 0.0
C574 C 0.09271 0.74198 0.71266 0.0
C575 C 0.08636 0.79459 0.74354 0.0
C576 C 0.1475 0.80305 0.76524 0.0
C577 C 0.06125 0.87229 0.72337 0.0
C578 C 0.04011 0.75109 0.77216 0.0
C579 C 1.02109 0.68576 0.75864 0.0
C580 C 0.98408 0.63229 0.78276 0.0
C581 C 0.96883 0.64409 0.82237 0.0
C582 C 0.99081 0.70869 0.83732 0.0
C583 C 0.02399 0.76447 0.81095 0.0
loop_
_geom_bond_atom_site_label_1
_geom_bond_atom_site_label_2
_geom_bond_distance
_geom_bond_site_symmetry_2
_ccdc_geom_bond_type
C0 C1 1.387 . S
C0 C5 1.380 . S
C0 C16 1.494 . S
C1 C0 1.387 . S
C1 C2 1.386 1_455 S
C1 H32 0.930 1_455 S
C2 C1 1.386 1_655 S
C2 C3 1.397 . S
C3 C2 1.397 . S
C3 C4 1.393 1_655 S
C3 H33 0.930 . S
C4 C3 1.393 1_455 S
C4 C5 1.395 . S
C5 C0 1.380 . S
C5 C4 1.395 . S
C5 H34 0.930 . S
O6 Tb7 2.295 . S
O6 C19 1.239 1_556 S
Tb7 O6 2.295 . S
Tb7 O8 2.312 . S
Tb7 O11 2.438 . S
Tb7 O13 2.472 1_556 S
Tb7 O15 2.308 . S
Tb7 C16 2.821 1_556 S
O8 Tb7 2.312 . S
O8 C28 1.264 . S
O9 Eu10 2.308 . S
O9 C19 1.247 . S
Eu10 O9 2.308 . S
Eu10 C12 2.821 1_554 S
Eu10 O14 2.295 . S
Eu10 O21 2.312 . S
Eu10 O30 2.438 . S
Eu10 O31 2.472 1_554 S
O11 Tb7 2.438 . S
O11 C16 1.263 1_556 S
C12 Eu10 2.821 1_556 S
C12 C22 1.494 . S
C12 O30 1.263 1_556 S
C12 O31 1.264 . S
O13 Tb7 2.472 1_554 S
O13 C16 1.264 . S
O14 Eu10 2.295 . S
O14 C20 1.242 . S
O15 Tb7 2.308 . S
O15 C20 1.243 1_556 S
C16 C0 1.494 . S
C16 Tb7 2.821 1_554 S
C16 O11 1.263 1_554 S
C16 O13 1.264 . S
C17 O18 1.260 . S
C17 O21 1.264 . S
O18 C17 1.260 . S
C19 O6 1.239 1_554 S
C19 O9 1.247 . S
C20 O14 1.242 . S
C20 O15 1.243 1_554 S
O21 Eu10 2.312 . S
O21 C17 1.264 . S
C22 C12 1.494 . S
C22 C24 1.380 . S
C22 C25 1.387 . S
C23 C24 1.395 . S
C23 C27 1.393 . S
C24 C22 1.380 . S
C24 C23 1.395 . S
C24 H35 0.930 . S
C25 C22 1.387 . S
C25 C26 1.386 . S
C25 H36 0.930 . S
C26 C25 1.386 . S
C26 C27 1.397 . S
C27 C23 1.393 . S
C27 C26 1.397 . S
C27 H37 0.930 . S
C28 O8 1.264 . S
C28 O29 1.260 . S
O29 C28 1.260 . S
O30 Eu10 2.438 . S
O30 C12 1.263 1_554 S
O31 Eu10 2.472 1_556 S
O31 C12 1.264 . S
H32 C1 0.930 1_655 S
H33 C3 0.930 . S
H34 C5 0.930 . S
H35 C24 0.930 . S
H36 C25 0.930 . S
H37 C27 0.930 . S
C38 C39 1.387 . S
C38 C43 1.380 . S
C38 C54 1.494 . S
C39 C38 1.387 . S
C39 C40 1.386 . S
C39 H70 0.930 . S
C40 C39 1.386 . S
C40 C41 1.397 . S
C41 C40 1.397 . S
C41 C42 1.393 . S
C41 H71 0.930 . S
C42 C41 1.393 . S
C42 C43 1.395 . S
C43 C38 1.380 . S
C43 C42 1.395 . S
C43 H72 0.930 . S
O44 Tb45 2.295 . S
O44 C57 1.239 1_556 S
Tb45 O44 2.295 . S
Tb45 O46 2.312 . S
Tb45 O49 2.438 . S
Tb45 O51 2.472 1_556 S
Tb45 O53 2.308 . S
Tb45 C54 2.821 1_556 S
O46 Tb45 2.312 . S
O46 C66 1.264 . S
O47 Eu48 2.308 . S
O47 C57 1.247 . S
Eu48 O47 2.308 . S
Eu48 C50 2.821 1_554 S
Eu48 O52 2.295 . S
Eu48 O59 2.312 . S
Eu48 O68 2.438 . S
Eu48 O69 2.472 1_554 S
O49 Tb45 2.438 . S
O49 C54 1.263 1_556 S
C50 Eu48 2.821 1_556 S
C50 C60 1.494 . S
C50 O68 1.263 1_556 S
C50 O69 1.264 . S
O51 Tb45 2.472 1_554 S
O51 C54 1.264 . S
O52 Eu48 2.295 . S
O52 C58 1.242 . S
O53 Tb45 2.308 . S
O53 C58 1.243 1_556 S
C54 C38 1.494 . S
C54 Tb45 2.821 1_554 S
C54 O49 1.263 1_554 S
C54 O51 1.264 . S
C55 O56 1.260 . S
C55 O59 1.264 . S
O56 C55 1.260 . S
C57 O44 1.239 1_554 S
C57 O47 1.247 . S
C58 O52 1.242 . S
C58 O53 1.243 1_554 S
O59 Eu48 2.312 . S
O59 C55 1.264 . S
C60 C50 1.494 . S
C60 C62 1.380 . S
C60 C63 1.387 . S
C61 C62 1.395 . S
C61 C65 1.393 1_655 S
C62 C60 1.380 . S
C62 C61 1.395 . S
C62 H73 0.930 . S
C63 C60 1.387 . S
C63 C64 1.386 1_655 S
C63 H74 0.930 1_655 S
C64 C63 1.386 1_455 S
C64 C65 1.397 . S
C65 C61 1.393 1_455 S
C65 C64 1.397 . S
C65 H75 0.930 . S
C66 O46 1.264 . S
C66 O67 1.260 . S
O67 C66 1.260 . S
O68 Eu48 2.438 . S
O68 C50 1.263 1_554 S
O69 Eu48 2.472 1_556 S
O69 C50 1.264 . S
H70 C39 0.930 . S
H71 C41 0.930 . S
H72 C43 0.930 . S
H73 C62 0.930 . S
H74 C63 0.930 1_455 S
H75 C65 0.930 . S
C76 C77 1.387 . S
C76 C81 1.380 . S
C76 C92 1.494 . S
C77 C76 1.387 . S
C77 C78 1.386 1_455 S
C77 H108 0.930 1_455 S
C78 C77 1.386 1_655 S
C78 C79 1.397 . S
C79 C78 1.397 . S
C79 C80 1.393 1_655 S
C79 H109 0.930 . S
C80 C79 1.393 1_455 S
C80 C81 1.395 . S
C81 C76 1.380 . S
C81 C80 1.395 . S
C81 H110 0.930 . S
O82 Tb83 2.295 . S
O82 C95 1.242 . S
Tb83 O82 2.295 . S
Tb83 O84 2.312 . S
Tb83 O87 2.438 . S
Tb83 O89 2.472 . S
Tb83 O91 2.308 . S
Tb83 C92 2.821 . S
O84 Tb83 2.312 . S
O84 C104 1.264 . S
O85 Eu86 2.308 . S
O85 C95 1.243 . S
Eu86 O85 2.308 . S
Eu86 C88 2.821 . S
Eu86 O90 2.295 . S
Eu86 O97 2.312 . S
Eu86 O106 2.438 . S
Eu86 O107 2.472 . S
O87 Tb83 2.438 . S
O87 C92 1.263 . S
C88 Eu86 2.821 . S
C88 C98 1.494 . S
C88 O106 1.263 . S
C88 O107 1.264 . S
O89 Tb83 2.472 . S
O89 C92 1.264 . S
O90 Eu86 2.295 . S
O90 C96 1.242 . S
O91 Tb83 2.308 . S
O91 C96 1.243 . S
C92 C76 1.494 . S
C92 Tb83 2.821 . S
C92 O87 1.263 . S
C92 O89 1.264 . S
C93 O94 1.260 . S
C93 O97 1.264 . S
O94 C93 1.260 . S
C95 O82 1.242 . S
C95 O85 1.243 . S
C96 O90 1.242 . S
C96 O91 1.243 . S
O97 Eu86 2.312 . S
O97 C93 1.264 . S
C98 C88 1.494 . S
C98 C100 1.380 . S
C98 C101 1.387 . S
C99 C100 1.395 . S
C99 C103 1.393 . S
C100 C98 1.380 . S
C100 C99 1.395 . S
C100 H111 0.930 . S
C101 C98 1.387 . S
C101 C102 1.386 . S
C101 H112 0.930 . S
C102 C101 1.386 . S
C102 C103 1.397 . S
C103 C99 1.393 . S
C103 C102 1.397 . S
C103 H113 0.930 . S
C104 O84 1.264 . S
C104 O105 1.260 . S
O105 C104 1.260 . S
O106 Eu86 2.438 . S
O106 C88 1.263 . S
O107 Eu86 2.472 . S
O107 C88 1.264 . S
H108 C77 0.930 1_655 S
H109 C79 0.930 . S
H110 C81 0.930 . S
H111 C100 0.930 . S
H112 C101 0.930 . S
H113 C103 0.930 . S
C114 C115 1.387 . S
C114 C119 1.380 . S
C114 C130 1.494 . S
C115 C114 1.387 . S
C115 C116 1.386 . S
C115 H146 0.930 . S
C116 C115 1.386 . S
C116 C117 1.397 . S
C117 C116 1.397 . S
C117 C118 1.393 . S
C117 H147 0.930 . S
C118 C117 1.393 . S
C118 C119 1.395 . S
C119 C114 1.380 . S
C119 C118 1.395 . S
C119 H148 0.930 . S
O120 Tb121 2.295 . S
O120 C133 1.242 . S
Tb121 O120 2.295 . S
Tb121 O122 2.312 . S
Tb121 O125 2.438 . S
Tb121 O127 2.472 . S
Tb121 O129 2.308 . S
Tb121 C130 2.821 . S
O122 Tb121 2.312 . S
O122 C142 1.264 . S
O123 Eu124 2.308 . S
O123 C133 1.243 . S
Eu124 O123 2.308 . S
Eu124 C126 2.821 . S
Eu124 O128 2.295 . S
Eu124 O135 2.312 . S
Eu124 O144 2.438 . S
Eu124 O145 2.472 . S
O125 Tb121 2.438 . S
O125 C130 1.263 . S
C126 Eu124 2.821 . S
C126 C136 1.494 . S
C126 O144 1.263 . S
C126 O145 1.264 . S
O127 Tb121 2.472 . S
O127 C130 1.264 . S
O128 Eu124 2.295 . S
O128 C134 1.242 . S
O129 Tb121 2.308 . S
O129 C134 1.243 . S
C130 C114 1.494 . S
C130 Tb121 2.821 . S
C130 O125 1.263 . S
C130 O127 1.264 . S
C131 O132 1.260 . S
C131 O135 1.264 . S
O132 C131 1.260 . S
C133 O120 1.242 . S
C133 O123 1.243 . S
C134 O128 1.242 . S
C134 O129 1.243 . S
O135 Eu124 2.312 . S
O135 C131 1.264 . S
C136 C126 1.494 . S
C136 C138 1.380 . S
C136 C139 1.387 . S
C137 C138 1.395 . S
C137 C141 1.393 1_655 S
C138 C136 1.380 . S
C138 C137 1.395 . S
C138 H149 0.930 . S
C139 C136 1.387 . S
C139 C140 1.386 1_655 S
C139 H150 0.930 1_655 S
C140 C139 1.386 1_455 S
C140 C141 1.397 . S
C141 C137 1.393 1_455 S
C141 C140 1.397 . S
C141 H151 0.930 . S
C142 O122 1.264 . S
C142 O143 1.260 . S
O143 C142 1.260 . S
O144 Eu124 2.438 . S
O144 C126 1.263 . S
O145 Eu124 2.472 . S
O145 C126 1.264 . S
H146 C115 0.930 . S
H147 C117 0.930 . S
H148 C119 0.930 . S
H149 C138 0.930 . S
H150 C139 0.930 1_455 S
H151 C141 0.930 . S
H152 C164 0.930 . S
H153 C166 0.930 . S
H154 C167 0.930 . S
H155 C171 0.959 . S
H156 C171 0.959 . S
H157 C171 0.961 . S
H158 C172 0.960 . S
H159 C172 0.961 . S
H160 C172 0.959 1_554 S
H161 C175 0.929 . S
H162 C176 0.931 . S
H163 C178 0.930 . S
C164 H152 0.930 . S
C164 C165 1.399 . S
C164 C169 1.399 . S
C165 C164 1.399 . S
C165 C166 1.376 . S
C166 H153 0.930 . S
C166 C165 1.376 . S
C166 C167 1.388 1_556 S
C167 H154 0.930 . S
C167 C166 1.388 1_554 S
C167 C168 1.390 . S
C168 C167 1.390 . S
C168 C169 1.394 1_554 S
C168 C174 1.465 . S
C169 C164 1.399 . S
C169 C168 1.394 1_556 S
C169 C170 1.516 . S
C170 C169 1.516 . S
C170 C171 1.502 . S
C170 C172 1.561 . S
C170 C173 1.526 1_556 S
C171 H155 0.959 . S
C171 H156 0.959 . S
C171 H157 0.961 . S
C171 C170 1.502 . S
C172 H158 0.960 . S
C172 H159 0.961 . S
C172 H160 0.959 1_556 S
C172 C170 1.561 . S
C173 C170 1.526 1_554 S
C173 C174 1.396 . S
C173 C178 1.390 . S
C174 C168 1.465 . S
C174 C173 1.396 . S
C174 C175 1.399 . S
C175 H161 0.929 . S
C175 C174 1.399 . S
C175 C176 1.385 . S
C176 H162 0.931 . S
C176 C175 1.385 . S
C176 C177 1.389 . S
C177 C176 1.389 . S
C177 C178 1.387 . S
C178 H163 0.930 . S
C178 C173 1.390 . S
C178 C177 1.387 . S
H179 C191 0.930 1_554 S
H180 C193 0.930 . S
H181 C194 0.930 . S
H182 C198 0.959 . S
H183 C198 0.959 . S
H184 C198 0.961 . S
H185 C199 0.960 . S
H186 C199 0.961 . S
H187 C199 0.959 . S
H188 C202 0.929 . S
H189 C203 0.931 . S
H190 C205 0.930 . S
C191 H179 0.930 1_556 S
C191 C192 1.399 . S
C191 C196 1.399 1_556 S
C192 C191 1.399 . S
C192 C193 1.376 . S
C193 H180 0.930 . S
C193 C192 1.376 . S
C193 C194 1.388 . S
C194 H181 0.930 . S
C194 C193 1.388 . S
C194 C195 1.390 . S
C195 C194 1.390 . S
C195 C196 1.394 1_556 S
C195 C201 1.477 . S
C196 C191 1.399 1_554 S
C196 C195 1.394 1_554 S
C196 C197 1.516 . S
C197 C196 1.516 . S
C197 C198 1.502 . S
C197 C199 1.561 . S
C197 C200 1.526 . S
C198 H182 0.959 . S
C198 H183 0.959 . S
C198 H184 0.961 . S
C198 C197 1.502 . S
C199 H185 0.960 . S
C199 H186 0.961 . S
C199 H187 0.959 . S
C199 C197 1.561 . S
C200 C197 1.526 . S
C200 C201 1.373 1_554 S
C200 C205 1.390 . S
C201 C195 1.477 . S
C201 C200 1.373 1_556 S
C201 C202 1.406 . S
C202 H188 0.929 . S
C202 C201 1.406 . S
C202 C203 1.385 1_556 S
C203 H189 0.931 . S
C203 C202 1.385 1_554 S
C203 C204 1.389 . S
C204 C203 1.389 . S
C204 C205 1.387 . S
C205 H190 0.930 . S
C205 C200 1.390 . S
C205 C204 1.387 . S
H206 C218 0.930 . S
H207 C220 0.930 . S
H208 C221 0.930 . S
H209 C225 0.959 . S
H210 C225 0.959 . S
H211 C225 0.961 . S
H212 C226 0.960 . S
H213 C226 0.961 . S
H214 C226 0.959 . S
H215 C229 0.929 . S
H216 C230 0.931 . S
H217 C232 0.930 . S
C218 H206 0.930 . S
C218 C219 1.399 . S
C218 C223 1.399 . S
C219 C218 1.399 . S
C219 C220 1.376 . S
C220 H207 0.930 . S
C220 C219 1.376 . S
C220 C221 1.388 . S
C221 H208 0.930 . S
C221 C220 1.388 . S
C221 C222 1.390 . S
C222 C221 1.390 . S
C222 C223 1.394 . S
C222 C228 1.465 . S
C223 C218 1.399 . S
C223 C222 1.394 . S
C223 C224 1.516 . S
C224 C223 1.516 . S
C224 C225 1.502 . S
C224 C226 1.561 . S
C224 C227 1.526 . S
C225 H209 0.959 . S
C225 H210 0.959 . S
C225 H211 0.961 . S
C225 C224 1.502 . S
C226 H212 0.960 . S
C226 H213 0.961 . S
C226 H214 0.959 . S
C226 C224 1.561 . S
C227 C224 1.526 . S
C227 C228 1.396 . S
C227 C232 1.390 . S
C228 C222 1.465 . S
C228 C227 1.396 . S
C228 C229 1.399 . S
C229 H215 0.929 . S
C229 C228 1.399 . S
C229 C230 1.385 . S
C230 H216 0.931 . S
C230 C229 1.385 . S
C230 C231 1.389 . S
C231 C230 1.389 . S
C231 C232 1.387 . S
C232 H217 0.930 . S
C232 C227 1.390 . S
C232 C231 1.387 . S
H233 C245 0.930 . S
H234 C247 0.930 . S
H235 C248 0.930 . S
H236 C252 0.959 . S
H237 C252 0.959 . S
H238 C252 0.961 . S
H239 C253 0.960 . S
H240 C253 0.961 . S
H241 C253 0.959 . S
H242 C256 0.929 . S
H243 C257 0.931 . S
H244 C259 0.930 . S
C245 H233 0.930 . S
C245 C246 1.399 . S
C245 C250 1.399 . S
C246 C245 1.399 . S
C246 C247 1.376 . S
C247 H234 0.930 . S
C247 C246 1.376 . S
C247 C248 1.388 . S
C248 H235 0.930 . S
C248 C247 1.388 . S
C248 C249 1.390 . S
C249 C248 1.390 . S
C249 C250 1.394 . S
C249 C255 1.465 . S
C250 C245 1.399 . S
C250 C249 1.394 . S
C250 C251 1.516 . S
C251 C250 1.516 . S
C251 C252 1.502 . S
C251 C253 1.561 . S
C251 C254 1.526 . S
C252 H236 0.959 . S
C252 H237 0.959 . S
C252 H238 0.961 . S
C252 C251 1.502 . S
C253 H239 0.960 . S
C253 H240 0.961 . S
C253 H241 0.959 . S
C253 C251 1.561 . S
C254 C251 1.526 . S
C254 C255 1.396 . S
C254 C259 1.390 . S
C255 C249 1.465 . S
C255 C254 1.396 . S
C255 C256 1.399 . S
C256 H242 0.929 . S
C256 C255 1.399 . S
C256 C257 1.385 . S
C257 H243 0.931 . S
C257 C256 1.385 . S
C257 C258 1.389 . S
C258 C257 1.389 . S
C258 C259 1.387 . S
C259 H244 0.930 . S
C259 C254 1.390 . S
C259 C258 1.387 . S
H260 C272 0.939 . S
H261 C274 0.930 . S
H262 C275 0.930 . S
H263 C279 0.959 . S
H264 C279 0.959 . S
H265 C279 0.961 . S
H266 C280 0.960 . S
H267 C280 0.961 . S
H268 C280 0.959 . S
H269 C283 0.929 . S
H270 C284 0.931 . S
H271 C286 0.930 . S
C272 H260 0.939 . S
C272 C273 1.395 1_554 S
C272 C277 1.392 1_554 S
C273 C272 1.395 1_556 S
C273 C274 1.376 . S
C274 H261 0.930 . S
C274 C273 1.376 . S
C274 C275 1.388 . S
C275 H262 0.930 . S
C275 C274 1.388 . S
C275 C276 1.390 . S
C276 C275 1.390 . S
C276 C277 1.400 . S
C276 C282 1.465 . S
C277 C272 1.392 1_556 S
C277 C276 1.400 . S
C277 C278 1.515 1_556 S
C278 C277 1.515 1_554 S
C278 C279 1.510 . S
C278 C280 1.554 1_554 S
C278 C281 1.529 . S
C279 H263 0.959 . S
C279 H264 0.959 . S
C279 H265 0.961 . S
C279 C278 1.510 . S
C280 H266 0.960 . S
C280 H267 0.961 . S
C280 H268 0.959 . S
C280 C278 1.554 1_556 S
C281 C278 1.529 . S
C281 C282 1.391 1_554 S
C281 C286 1.390 . S
C282 C276 1.465 . S
C282 C281 1.391 1_556 S
C282 C283 1.399 . S
C283 H269 0.929 . S
C283 C282 1.399 . S
C283 C284 1.385 . S
C284 H270 0.931 . S
C284 C283 1.385 . S
C284 C285 1.389 1_556 S
C285 C284 1.389 1_554 S
C285 C286 1.387 . S
C286 H271 0.930 . S
C286 C281 1.390 . S
C286 C285 1.387 . S
H287 C299 0.930 . S
H288 C301 0.930 . S
H289 C302 0.930 . S
H290 C306 0.959 . S
H291 C306 0.959 . S
H292 C306 0.961 . S
H293 C307 0.960 . S
H294 C307 0.961 . S
H295 C307 0.959 . S
H296 C310 0.929 . S
H297 C311 0.931 . S
H298 C313 0.930 . S
C299 H287 0.930 . S
C299 C300 1.399 . S
C299 C304 1.399 . S
C300 C299 1.399 . S
C300 C301 1.376 . S
C301 H288 0.930 . S
C301 C300 1.376 . S
C301 C302 1.388 . S
C302 H289 0.930 . S
C302 C301 1.388 . S
C302 C303 1.390 . S
C303 C302 1.390 . S
C303 C304 1.394 . S
C303 C309 1.465 . S
C304 C299 1.399 . S
C304 C303 1.394 . S
C304 C305 1.516 . S
C305 C304 1.516 . S
C305 C306 1.502 . S
C305 C307 1.561 . S
C305 C308 1.526 . S
C306 H290 0.959 . S
C306 H291 0.959 . S
C306 H292 0.961 . S
C306 C305 1.502 . S
C307 H293 0.960 . S
C307 H294 0.961 . S
C307 H295 0.959 . S
C307 C305 1.561 . S
C308 C305 1.526 . S
C308 C309 1.396 . S
C308 C313 1.390 . S
C309 C303 1.465 . S
C309 C308 1.396 . S
C309 C310 1.399 . S
C310 H296 0.929 . S
C310 C309 1.399 . S
C310 C311 1.385 . S
C311 H297 0.931 . S
C311 C310 1.385 . S
C311 C312 1.389 . S
C312 C311 1.389 . S
C312 C313 1.387 . S
C313 H298 0.930 . S
C313 C308 1.390 . S
C313 C312 1.387 . S
H314 C326 0.930 . S
H315 C328 0.930 . S
H316 C329 0.930 . S
H317 C333 0.959 . S
H318 C333 0.959 1_655 S
H319 C333 0.961 . S
H320 C334 0.960 . S
H321 C334 0.961 . S
H322 C334 0.959 . S
H323 C337 0.929 . S
H324 C338 0.931 . S
H325 C340 0.930 . S
C326 H314 0.930 . S
C326 C327 1.399 1_554 S
C326 C331 1.399 . S
C327 C326 1.399 1_556 S
C327 C328 1.376 . S
C328 H315 0.930 . S
C328 C327 1.376 . S
C328 C329 1.388 . S
C329 H316 0.930 . S
C329 C328 1.388 . S
C329 C330 1.390 . S
C330 C329 1.390 . S
C330 C331 1.394 1_556 S
C330 C336 1.465 1_445 S
C331 C326 1.399 . S
C331 C330 1.394 1_554 S
C331 C332 1.516 1_445 S
C332 C331 1.516 1_665 S
C332 C333 1.502 1_655 S
C332 C334 1.561 1_565 S
C332 C335 1.526 . S
C333 H317 0.959 . S
C333 H318 0.959 1_455 S
C333 H319 0.961 . S
C333 C332 1.502 1_455 S
C334 H320 0.960 . S
C334 H321 0.961 . S
C334 H322 0.959 . S
C334 C332 1.561 1_545 S
C335 C332 1.526 . S
C335 C336 1.396 1_554 S
C335 C340 1.390 . S
C336 C330 1.465 1_665 S
C336 C335 1.396 1_556 S
C336 C337 1.399 . S
C337 H323 0.929 . S
C337 C336 1.399 . S
C337 C338 1.385 . S
C338 H324 0.931 . S
C338 C337 1.385 . S
C338 C339 1.390 . S
C339 C338 1.390 . S
C339 C340 1.386 1_556 S
C340 H325 0.930 . S
C340 C335 1.390 . S
C340 C339 1.386 1_554 S
H341 C353 0.930 . S
H342 C355 0.930 . S
H343 C356 0.930 . S
H344 C360 0.959 . S
H345 C360 0.959 . S
H346 C360 0.961 . S
H347 C361 0.960 1_655 S
H348 C361 0.961 . S
H349 C361 0.959 . S
H350 C364 0.929 . S
H351 C365 0.931 . S
H352 C367 0.930 . S
C353 H341 0.930 . S
C353 C354 1.399 . S
C353 C358 1.399 . S
C354 C353 1.399 . S
C354 C355 1.376 . S
C355 H342 0.930 . S
C355 C354 1.376 . S
C355 C356 1.388 . S
C356 H343 0.930 . S
C356 C355 1.388 . S
C356 C357 1.390 . S
C357 C356 1.390 . S
C357 C358 1.394 . S
C357 C363 1.465 1_645 S
C358 C353 1.399 . S
C358 C357 1.394 . S
C358 C359 1.513 1_545 S
C359 C358 1.513 1_565 S
C359 C360 1.506 . S
C359 C361 1.558 1_665 S
C359 C362 1.527 1_655 S
C360 H344 0.959 . S
C360 H345 0.959 . S
C360 H346 0.961 . S
C360 C359 1.506 . S
C361 H347 0.960 1_455 S
C361 H348 0.961 . S
C361 H349 0.959 . S
C361 C359 1.558 1_445 S
C362 C359 1.527 1_455 S
C362 C363 1.396 . S
C362 C367 1.390 . S
C363 C357 1.465 1_465 S
C363 C362 1.396 . S
C363 C364 1.399 . S
C364 H350 0.929 . S
C364 C363 1.399 . S
C364 C365 1.385 . S
C365 H351 0.931 . S
C365 C364 1.385 . S
C365 C366 1.389 . S
C366 C365 1.389 . S
C366 C367 1.387 . S
C367 H352 0.930 . S
C367 C362 1.390 . S
C367 C366 1.387 . S
H368 C380 0.930 . S
H369 C382 0.930 . S
H370 C383 0.930 . S
H371 C387 0.959 . S
H372 C387 0.959 . S
H373 C387 0.961 . S
H374 C388 0.960 . S
H375 C388 0.961 . S
H376 C388 0.959 . S
H377 C391 0.929 . S
H378 C392 0.931 . S
H379 C394 0.930 . S
C380 H368 0.930 . S
C380 C381 1.399 . S
C380 C385 1.399 . S
C381 C380 1.399 . S
C381 C382 1.376 . S
C382 H369 0.930 . S
C382 C381 1.376 . S
C382 C383 1.388 . S
C383 H370 0.930 . S
C383 C382 1.388 . S
C383 C384 1.390 . S
C384 C383 1.390 . S
C384 C385 1.394 . S
C384 C390 1.465 . S
C385 C380 1.399 . S
C385 C384 1.394 . S
C385 C386 1.516 . S
C386 C385 1.516 . S
C386 C387 1.502 . S
C386 C388 1.561 . S
C386 C389 1.526 . S
C387 H371 0.959 . S
C387 H372 0.959 . S
C387 H373 0.961 . S
C387 C386 1.502 . S
C388 H374 0.960 . S
C388 H375 0.961 . S
C388 H376 0.959 . S
C388 C386 1.561 . S
C389 C386 1.526 . S
C389 C390 1.396 . S
C389 C394 1.390 . S
C390 C384 1.465 . S
C390 C389 1.396 . S
C390 C391 1.399 . S
C391 H377 0.929 . S
C391 C390 1.399 . S
C391 C392 1.385 . S
C392 H378 0.931 . S
C392 C391 1.385 . S
C392 C393 1.389 . S
C393 C392 1.389 . S
C393 C394 1.387 . S
C394 H379 0.930 . S
C394 C389 1.390 . S
C394 C393 1.387 . S
H395 C407 0.930 . S
H396 C409 0.930 . S
H397 C410 0.930 . S
H398 C414 0.959 . S
H399 C414 0.959 . S
H400 C414 0.961 . S
H401 C415 0.960 . S
H402 C415 0.961 . S
H403 C415 0.959 . S
H404 C418 0.929 . S
H405 C419 0.931 . S
H406 C421 0.930 . S
C407 H395 0.930 . S
C407 C408 1.399 . S
C407 C412 1.399 . S
C408 C407 1.399 . S
C408 C409 1.376 . S
C409 H396 0.930 . S
C409 C408 1.376 . S
C409 C410 1.388 . S
C410 H397 0.930 . S
C410 C409 1.388 . S
C410 C411 1.390 . S
C411 C410 1.390 . S
C411 C412 1.394 . S
C411 C417 1.465 . S
C412 C407 1.399 . S
C412 C411 1.394 . S
C412 C413 1.516 . S
C413 C412 1.516 . S
C413 C414 1.502 . S
C413 C415 1.561 . S
C413 C416 1.526 . S
C414 H398 0.959 . S
C414 H399 0.959 . S
C414 H400 0.961 . S
C414 C413 1.502 . S
C415 H401 0.960 . S
C415 H402 0.961 . S
C415 H403 0.959 . S
C415 C413 1.561 . S
C416 C413 1.526 . S
C416 C417 1.396 . S
C416 C421 1.390 . S
C417 C411 1.465 . S
C417 C416 1.396 . S
C417 C418 1.399 . S
C418 H404 0.929 . S
C418 C417 1.399 . S
C418 C419 1.385 . S
C419 H405 0.931 . S
C419 C418 1.385 . S
C419 C420 1.389 . S
C420 C419 1.389 . S
C420 C421 1.387 . S
C421 H406 0.930 . S
C421 C416 1.390 . S
C421 C420 1.387 . S
H422 C434 0.930 . S
H423 C436 0.930 . S
H424 C437 0.930 . S
H425 C441 0.959 . S
H426 C441 0.959 . S
H427 C441 0.961 . S
H428 C442 0.960 . S
H429 C442 0.961 . S
H430 C442 0.959 . S
H431 C445 0.929 . S
H432 C446 0.931 . S
H433 C448 0.930 . S
C434 H422 0.930 . S
C434 C435 1.399 . S
C434 C439 1.399 . S
C435 C434 1.399 . S
C435 C436 1.376 . S
C436 H423 0.930 . S
C436 C435 1.376 . S
C436 C437 1.388 . S
C437 H424 0.930 . S
C437 C436 1.388 . S
C437 C438 1.390 . S
C438 C437 1.390 . S
C438 C439 1.394 . S
C438 C444 1.465 . S
C439 C434 1.399 . S
C439 C438 1.394 . S
C439 C440 1.516 . S
C440 C439 1.516 . S
C440 C441 1.502 . S
C440 C442 1.561 . S
C440 C443 1.526 . S
C441 H425 0.959 . S
C441 H426 0.959 . S
C441 H427 0.961 . S
C441 C440 1.502 . S
C442 H428 0.960 . S
C442 H429 0.961 . S
C442 H430 0.959 . S
C442 C440 1.561 . S
C443 C440 1.526 . S
C443 C444 1.396 . S
C443 C448 1.390 . S
C444 C438 1.465 . S
C444 C443 1.396 . S
C444 C445 1.399 . S
C445 H431 0.929 . S
C445 C444 1.399 . S
C445 C446 1.385 . S
C446 H432 0.931 . S
C446 C445 1.385 . S
C446 C447 1.389 . S
C447 C446 1.389 . S
C447 C448 1.387 . S
C448 H433 0.930 . S
C448 C443 1.390 . S
C448 C447 1.387 . S
H449 C461 0.930 . S
H450 C463 0.930 . S
H451 C464 0.930 . S
H452 C468 0.959 . S
H453 C468 0.959 . S
H454 C468 0.961 . S
H455 C469 0.960 . S
H456 C469 0.961 . S
H457 C469 0.959 . S
H458 C472 0.929 . S
H459 C473 0.931 . S
H460 C475 0.930 . S
C461 H449 0.930 . S
C461 C462 1.399 . S
C461 C466 1.399 . S
C462 C461 1.399 . S
C462 C463 1.376 . S
C463 H450 0.930 . S
C463 C462 1.376 . S
C463 C464 1.388 . S
C464 H451 0.930 . S
C464 C463 1.388 . S
C464 C465 1.390 . S
C465 C464 1.390 . S
C465 C466 1.394 . S
C465 C471 1.465 . S
C466 C461 1.399 . S
C466 C465 1.394 . S
C466 C467 1.516 . S
C467 C466 1.516 . S
C467 C468 1.502 . S
C467 C469 1.561 . S
C467 C470 1.526 . S
C468 H452 0.959 . S
C468 H453 0.959 . S
C468 H454 0.961 . S
C468 C467 1.502 . S
C469 H455 0.960 . S
C469 H456 0.961 . S
C469 H457 0.959 . S
C469 C467 1.561 . S
C470 C467 1.526 . S
C470 C471 1.396 . S
C470 C475 1.390 . S
C471 C465 1.465 . S
C471 C470 1.396 . S
C471 C472 1.399 . S
C472 H458 0.929 . S
C472 C471 1.399 . S
C472 C473 1.385 . S
C473 H459 0.931 . S
C473 C472 1.385 . S
C473 C474 1.389 . S
C474 C473 1.389 . S
C474 C475 1.387 . S
C475 H460 0.930 . S
C475 C470 1.390 . S
C475 C474 1.387 . S
H476 C488 0.930 . S
H477 C490 0.930 . S
H478 C491 0.930 . S
H479 C495 0.959 . S
H480 C495 0.959 . S
H481 C495 0.961 . S
H482 C496 0.960 . S
H483 C496 0.961 . S
H484 C496 0.959 1_455 S
H485 C499 0.929 . S
H486 C500 0.931 . S
H487 C502 0.930 . S
C488 H476 0.930 . S
C488 C489 1.399 1_655 S
C488 C493 1.399 . S
C489 C488 1.399 1_455 S
C489 C490 1.376 . S
C490 H477 0.930 . S
C490 C489 1.376 . S
C490 C491 1.388 . S
C491 H478 0.930 . S
C491 C490 1.388 . S
C491 C492 1.390 1_455 S
C492 C491 1.390 1_655 S
C492 C493 1.394 . S
C492 C498 1.465 . S
C493 C488 1.399 . S
C493 C492 1.394 . S
C493 C494 1.516 . S
C494 C493 1.516 . S
C494 C495 1.502 . S
C494 C496 1.561 . S
C494 C497 1.526 . S
C495 H479 0.959 . S
C495 H480 0.959 . S
C495 H481 0.961 . S
C495 C494 1.502 . S
C496 H482 0.960 . S
C496 H483 0.961 . S
C496 H484 0.959 1_655 S
C496 C494 1.561 . S
C497 C494 1.526 . S
C497 C498 1.396 . S
C497 C502 1.390 . S
C498 C492 1.465 . S
C498 C497 1.396 . S
C498 C499 1.399 . S
C499 H485 0.929 . S
C499 C498 1.399 . S
C499 C500 1.385 . S
C500 H486 0.931 . S
C500 C499 1.385 . S
C500 C501 1.389 . S
C501 C500 1.389 . S
C501 C502 1.387 . S
C502 H487 0.930 . S
C502 C497 1.390 . S
C502 C501 1.387 . S
H503 C515 0.930 . S
H504 C517 0.930 . S
H505 C518 0.930 1_455 S
H506 C522 0.959 . S
H507 C522 0.959 . S
H508 C522 0.961 . S
H509 C523 0.960 . S
H510 C523 0.961 . S
H511 C523 0.959 . S
H512 C526 0.929 . S
H513 C527 0.931 . S
H514 C529 0.930 . S
C515 H503 0.930 . S
C515 C516 1.399 . S
C515 C520 1.399 . S
C516 C515 1.399 . S
C516 C517 1.376 . S
C517 H504 0.930 . S
C517 C516 1.376 . S
C517 C518 1.388 . S
C518 H505 0.930 1_655 S
C518 C517 1.388 . S
C518 C519 1.390 . S
C519 C518 1.390 . S
C519 C520 1.394 . S
C519 C525 1.471 . S
C520 C515 1.399 . S
C520 C519 1.394 . S
C520 C521 1.516 . S
C521 C520 1.516 . S
C521 C522 1.502 . S
C521 C523 1.561 . S
C521 C524 1.526 . S
C522 H506 0.959 . S
C522 H507 0.959 . S
C522 H508 0.961 . S
C522 C521 1.502 . S
C523 H509 0.960 . S
C523 H510 0.961 . S
C523 H511 0.959 . S
C523 C521 1.561 . S
C524 C521 1.526 . S
C524 C525 1.404 . S
C524 C529 1.390 . S
C525 C519 1.471 . S
C525 C524 1.404 . S
C525 C526 1.387 1_655 S
C526 H512 0.929 . S
C526 C525 1.387 1_455 S
C526 C527 1.385 . S
C527 H513 0.931 . S
C527 C526 1.385 . S
C527 C528 1.389 . S
C528 C527 1.389 . S
C528 C529 1.387 1_455 S
C529 H514 0.930 . S
C529 C524 1.390 . S
C529 C528 1.387 1_655 S
H530 C542 0.930 . S
H531 C544 0.930 . S
H532 C545 0.930 . S
H533 C549 0.959 . S
H534 C549 0.959 . S
H535 C549 0.961 . S
H536 C550 0.960 . S
H537 C550 0.961 . S
H538 C550 0.959 . S
H539 C553 0.929 . S
H540 C554 0.931 . S
H541 C556 0.930 . S
C542 H530 0.930 . S
C542 C543 1.399 . S
C542 C547 1.399 . S
C543 C542 1.399 . S
C543 C544 1.376 . S
C544 H531 0.930 . S
C544 C543 1.376 . S
C544 C545 1.388 . S
C545 H532 0.930 . S
C545 C544 1.388 . S
C545 C546 1.390 . S
C546 C545 1.390 . S
C546 C547 1.394 . S
C546 C552 1.465 . S
C547 C542 1.399 . S
C547 C546 1.394 . S
C547 C548 1.516 . S
C548 C547 1.516 . S
C548 C549 1.502 1_455 S
C548 C550 1.561 . S
C548 C551 1.526 . S
C549 H533 0.959 . S
C549 H534 0.959 . S
C549 H535 0.961 . S
C549 C548 1.502 1_655 S
C550 H536 0.960 . S
C550 H537 0.961 . S
C550 H538 0.959 . S
C550 C548 1.561 . S
C551 C548 1.526 . S
C551 C552 1.396 . S
C551 C556 1.390 1_455 S
C552 C546 1.465 . S
C552 C551 1.396 . S
C552 C553 1.399 . S
C553 H539 0.929 . S
C553 C552 1.399 . S
C553 C554 1.385 . S
C554 H540 0.931 . S
C554 C553 1.385 . S
C554 C555 1.389 1_455 S
C555 C554 1.389 1_655 S
C555 C556 1.387 . S
C556 H541 0.930 . S
C556 C551 1.390 1_655 S
C556 C555 1.387 . S
H557 C569 0.930 . S
H558 C571 0.930 . S
H559 C572 0.930 . S
H560 C576 0.959 . S
H561 C576 0.959 . S
H562 C576 0.961 . S
H563 C577 0.960 . S
H564 C577 0.961 . S
H565 C577 0.959 . S
H566 C580 0.929 . S
H567 C581 0.931 . S
H568 C583 0.930 . S
C569 H557 0.930 . S
C569 C570 1.399 . S
C569 C574 1.399 . S
C570 C569 1.399 . S
C570 C571 1.376 . S
C571 H558 0.930 . S
C571 C570 1.376 . S
C571 C572 1.388 . S
C572 H559 0.930 . S
C572 C571 1.388 . S
C572 C573 1.390 . S
C573 C572 1.390 . S
C573 C574 1.394 . S
C573 C579 1.465 . S
C574 C569 1.399 . S
C574 C573 1.394 . S
C574 C575 1.516 . S
C575 C574 1.516 . S
C575 C576 1.502 . S
C575 C577 1.561 1_455 S
C575 C578 1.526 . S
C576 H560 0.959 . S
C576 H561 0.959 . S
C576 H562 0.961 . S
C576 C575 1.502 . S
C577 H563 0.960 . S
C577 H564 0.961 . S
C577 H565 0.959 . S
C577 C575 1.561 1_655 S
C578 C575 1.526 . S
C578 C579 1.396 . S
C578 C583 1.390 1_455 S
C579 C573 1.465 . S
C579 C578 1.396 . S
C579 C580 1.399 . S
C580 H566 0.929 . S
C580 C579 1.399 . S
C580 C581 1.385 1_455 S
C581 H567 0.931 . S
C581 C580 1.385 1_655 S
C581 C582 1.389 . S
C582 C581 1.389 . S
C582 C583 1.387 . S
C583 H568 0.930 . S
C583 C578 1.390 1_655 S
C583 C582 1.387 . S
C165 C26 2.031 . S
C177 C2 2.044 . S
C192 C64 2.050 . S
C204 C40 2.027 . S
C219 C102 2.049 . S
C231 C78 2.033 . S
C246 C140 2.052 . S
C258 C116 2.028 . S
C273 C57 1.657 1_556 S
C285 C20 1.631 . S
C300 C133 1.633 . S
C312 C96 1.653 . S
C327 C19 1.642 1_556 S
C339 C58 1.640 1_556 S
C354 C134 1.631 . S
C366 C95 1.654 . S
C381 C118 1.142 . S
C393 C17 1.240 . S
C408 C42 1.139 . S
C420 C93 1.168 . S
C435 C99 1.138 . S
C447 C66 1.207 . S
C462 C23 1.221 . S
C474 C142 1.263 . S
C489 C80 1.233 . S
C501 C55 1.205 . S
C516 C131 1.214 . S
C528 C4 1.238 . S
C543 C28 1.214 . S
C555 C137 1.147 . S
C570 C104 1.193 . S
C582 C61 1.186 . S
