# Generated by pormake.
# Topology umz, (4)-cn, num edge types: 1
# Building blocks:
#     Node 0, Type 0, BuildingBlock: UXUYUI_clean_sbu_0, # of connection points: 4
#     Node 1, Type 0, BuildingBlock: UXUYUI_clean_sbu_0, # of connection points: 4
#     Node 2, Type 0, BuildingBlock: UXUYUI_clean_sbu_0, # of connection points: 4
#     Node 3, Type 0, BuildingBlock: UXUYUI_clean_sbu_0, # of connection points: 4
#     Node 4, Type 0, BuildingBlock: UXUYUI_clean_sbu_0, # of connection points: 4
#     Node 5, Type 0, BuildingBlock: UXUYUI_clean_sbu_0, # of connection points: 4
#     Node 6, Type 0, BuildingBlock: UXUYUI_clean_sbu_0, # of connection points: 4
#     Node 7, Type 0, BuildingBlock: UXUYUI_clean_sbu_0, # of connection points: 4
#     Node 8, Type 0, BuildingBlock: UXUYUI_clean_sbu_0, # of connection points: 4
#     Node 9, Type 0, BuildingBlock: UXUYUI_clean_sbu_0, # of connection points: 4
#     Node 10, Type 0, BuildingBlock: UXUYUI_clean_sbu_0, # of connection points: 4
#     Node 11, Type 0, BuildingBlock: UXUYUI_clean_sbu_0, # of connection points: 4
#     Node 12, Type 0, BuildingBlock: UXUYUI_clean_sbu_0, # of connection points: 4
#     Node 13, Type 0, BuildingBlock: UXUYUI_clean_sbu_0, # of connection points: 4
#     Node 14, Type 0, BuildingBlock: UXUYUI_clean_sbu_0, # of connection points: 4
#     Node 15, Type 0, BuildingBlock: UXUYUI_clean_sbu_0, # of connection points: 4
#     Edge 16, Type (0, 0), BuildingBlock: KIFKEQ_clean_linker_1, # of connection points: 2
#     Edge 17, Type (0, 0), BuildingBlock: KIFKEQ_clean_linker_1, # of connection points: 2
#     Edge 18, Type (0, 0), BuildingBlock: KIFKEQ_clean_linker_1, # of connection points: 2
#     Edge 19, Type (0, 0), BuildingBlock: KIFKEQ_clean_linker_1, # of connection points: 2
#     Edge 20, Type (0, 0), BuildingBlock: KIFKEQ_clean_linker_1, # of connection points: 2
#     Edge 21, Type (0, 0), BuildingBlock: KIFKEQ_clean_linker_1, # of connection points: 2
#     Edge 22, Type (0, 0), BuildingBlock: KIFKEQ_clean_linker_1, # of connection points: 2
#     Edge 23, Type (0, 0), BuildingBlock: KIFKEQ_clean_linker_1, # of connection points: 2
#     Edge 24, Type (0, 0), BuildingBlock: KIFKEQ_clean_linker_1, # of connection points: 2
#     Edge 25, Type (0, 0), BuildingBlock: KIFKEQ_clean_linker_1, # of connection points: 2
#     Edge 26, Type (0, 0), BuildingBlock: KIFKEQ_clean_linker_1, # of connection points: 2
#     Edge 27, Type (0, 0), BuildingBlock: KIFKEQ_clean_linker_1, # of connection points: 2
#     Edge 28, Type (0, 0), BuildingBlock: KIFKEQ_clean_linker_1, # of connection points: 2
#     Edge 29, Type (0, 0), BuildingBlock: KIFKEQ_clean_linker_1, # of connection points: 2
#     Edge 30, Type (0, 0), BuildingBlock: KIFKEQ_clean_linker_1, # of connection points: 2
#     Edge 31, Type (0, 0), BuildingBlock: KIFKEQ_clean_linker_1, # of connection points: 2
#     Edge 32, Type (0, 0), BuildingBlock: KIFKEQ_clean_linker_1, # of connection points: 2
#     Edge 33, Type (0, 0), BuildingBlock: KIFKEQ_clean_linker_1, # of connection points: 2
#     Edge 34, Type (0, 0), BuildingBlock: KIFKEQ_clean_linker_1, # of connection points: 2
#     Edge 35, Type (0, 0), BuildingBlock: KIFKEQ_clean_linker_1, # of connection points: 2
#     Edge 36, Type (0, 0), BuildingBlock: KIFKEQ_clean_linker_1, # of connection points: 2
#     Edge 37, Type (0, 0), BuildingBlock: KIFKEQ_clean_linker_1, # of connection points: 2
#     Edge 38, Type (0, 0), BuildingBlock: KIFKEQ_clean_linker_1, # of connection points: 2
#     Edge 39, Type (0, 0), BuildingBlock: KIFKEQ_clean_linker_1, # of connection points: 2
#     Edge 40, Type (0, 0), BuildingBlock: KIFKEQ_clean_linker_1, # of connection points: 2
#     Edge 41, Type (0, 0), BuildingBlock: KIFKEQ_clean_linker_1, # of connection points: 2
#     Edge 42, Type (0, 0), BuildingBlock: KIFKEQ_clean_linker_1, # of connection points: 2
#     Edge 43, Type (0, 0), BuildingBlock: KIFKEQ_clean_linker_1, # of connection points: 2
#     Edge 44, Type (0, 0), BuildingBlock: KIFKEQ_clean_linker_1, # of connection points: 2
#     Edge 45, Type (0, 0), BuildingBlock: KIFKEQ_clean_linker_1, # of connection points: 2
#     Edge 46, Type (0, 0), BuildingBlock: KIFKEQ_clean_linker_1, # of connection points: 2
#     Edge 47, Type (0, 0), BuildingBlock: KIFKEQ_clean_linker_1, # of connection points: 2
# Relax obj value: 0.340
# Max RMSD: 0.205
# Mean RMSD: 0.205
data_MOF--net-umz--node1-UXUYUI_clean_sbu_0--edge1-KIFKEQ_clean_linker_1
_symmetry_space_group_name_H-M    P1
_symmetry_Int_Tables_number       1
_symmetry_cell_setting            triclinic
loop_
_symmetry_equiv_pos_as_xyz
'x, y, z'
_cell_length_a     88.303051
_cell_length_b     88.321136
_cell_length_c     32.119355
_cell_angle_alpha  89.99811
_cell_angle_beta   90.006836
_cell_angle_gamma 89.997692
loop_
_atom_site_label
_atom_site_type_symbol
_atom_site_fract_x
_atom_site_fract_y
_atom_site_fract_z
_atom_type_partial_charge
Li0 Li 0.01125 0.63347 0.1807 0.0
Li1 Li 0.03615 0.64167 0.205 0.0
Li2 Li 0.02198 0.65608 0.15372 0.0
Li3 Li 0.03339 0.63197 0.13504 0.0
C4 C 0.01235 0.66609 0.224 0.0
N5 N 0.00492 0.6956 0.24362 0.0
C6 C 0.02291 0.6754 0.24386 0.0
C7 C 0.998 0.67173 0.21428 0.0
C8 C 0.01893 0.6903 0.25351 0.0
C9 C 0.99447 0.6867 0.2244 0.0
C10 C 0.03537 0.61194 0.21757 0.0
C11 C 0.05637 0.59916 0.25042 0.0
N12 N 0.04706 0.59466 0.28179 0.0
C13 C 0.026 0.60714 0.25009 0.0
C14 C 0.05067 0.60784 0.21761 0.0
C15 C 0.03212 0.59841 0.28224 0.0
C16 C 0.99206 0.60856 0.18132 0.0
N17 N 0.99375 0.6227 0.19723 0.0
C18 C 0.97231 0.61929 0.24156 0.0
C19 C 0.98414 0.62827 0.22649 0.0
C20 C 0.97048 0.60447 0.22632 0.0
C21 C 0.98035 0.59929 0.1951 0.0
H22 H 8e-05 0.60436 0.15867 0.0
H23 H 0.98597 0.63947 0.23913 0.0
C24 C 0.06415 0.64288 0.24825 0.0
N25 N 0.04889 0.6417 0.25249 0.0
C26 C 0.07365 0.63871 0.28101 0.0
C27 C 0.05149 0.63376 0.32311 0.0
C28 C 0.04243 0.63799 0.28949 0.0
C29 C 0.06729 0.63343 0.31837 0.0
H30 H 0.06898 0.64617 0.21877 0.0
H31 H 0.03024 0.63716 0.29182 0.0
C32 C 0.00041 0.63293 0.10455 0.0
N33 N 0.9749 0.6189 0.07304 0.0
C34 C 0.00183 0.62013 0.07927 0.0
C35 C 0.98602 0.63866 0.11358 0.0
C36 C 0.9888 0.61319 0.06367 0.0
C37 C 0.97326 0.63138 0.09744 0.0
C38 C 0.05589 0.65145 0.12696 0.0
C39 C 0.05596 0.66179 0.09397 0.0
C40 C 0.06796 0.64132 0.1314 0.0
C41 C 0.06812 0.66185 0.06613 0.0
C42 C 0.07988 0.64171 0.10285 0.0
N43 N 0.07972 0.65189 0.07109 0.0
C44 C 0.0286 0.68672 0.13949 0.0
C45 C 0.00672 0.67762 0.10466 0.0
C46 C 0.02813 0.70015 0.11667 0.0
N47 N 0.01828 0.67564 0.13203 0.0
C48 C 0.00566 0.69097 0.08169 0.0
C49 C 0.01679 0.70216 0.08655 0.0
H50 H 0.03777 0.68471 0.1611 0.0
H51 H -0.00117 0.66853 0.09894 0.0
C52 C 0.04889 0.60713 0.09881 0.0
N53 N 0.04302 0.6211 0.09165 0.0
C54 C 0.05757 0.59998 0.06829 0.0
C55 C 0.05352 0.62153 0.02324 0.0
C56 C 0.04469 0.62811 0.05431 0.0
C57 C 0.06033 0.60736 0.03022 0.0
H58 H 0.04707 0.60166 0.12847 0.0
H59 H 0.03966 0.63912 0.04933 0.0
O60 O 0.01616 0.6516 0.21341 0.0
O61 O 0.02968 0.62083 0.18633 0.0
O62 O 0.01303 0.63979 0.12051 0.0
O63 O 0.04396 0.65106 0.15426 0.0
H64 H 0.0341 0.6712 0.25138 0.0
H65 H 0.98974 0.66467 0.19868 0.0
H66 H 0.027 0.69767 0.26872 0.0
H67 H 0.98343 0.69126 0.21686 0.0
H68 H 0.06822 0.59605 0.25104 0.0
H69 H 0.01417 0.61029 0.25091 0.0
H70 H 0.05813 0.61152 0.19294 0.0
H71 H 0.02501 0.59471 0.30771 0.0
H72 H 0.96509 0.62368 0.26598 0.0
H73 H 0.97922 0.58806 0.18191 0.0
H74 H 0.0858 0.63888 0.27646 0.0
H75 H 0.04613 0.62967 0.35127 0.0
H76 H 0.01287 0.61553 0.07199 0.0
H77 H 0.9847 0.64847 0.13342 0.0
H78 H 0.98972 0.60324 0.0442 0.0
H79 H 0.96205 0.63561 0.10444 0.0
H80 H 0.04664 0.66952 0.08933 0.0
H81 H 0.06798 0.633 0.15604 0.0
H82 H 0.06828 0.66976 0.04041 0.0
H83 H 0.08922 0.63385 0.10577 0.0
H84 H 0.03686 0.7086 0.12124 0.0
H85 H 0.99683 0.69212 0.05846 0.0
H86 H 0.06217 0.58886 0.07471 0.0
H87 H 0.05538 0.62778 0.99471 0.0
Li88 Li 0.86303 0.00919 0.68097 0.0
Li89 Li 0.85585 0.03418 0.70754 0.0
Li90 Li 0.84026 0.02075 0.65746 0.0
Li91 Li 0.86441 0.03166 0.63647 0.0
C92 C 0.83129 0.01067 0.72848 0.0
N93 N 0.80205 0.00343 0.75151 0.0
C94 C 0.8223 0.02134 0.74897 0.0
C95 C 0.82547 0.99629 0.71987 0.0
C96 C 0.80753 0.01746 0.76034 0.0
C97 C 0.81064 0.99286 0.73171 0.0
C98 C 0.88567 0.03245 0.71687 0.0
C99 C 0.89916 0.05291 0.75015 0.0
N100 N 0.90419 0.04313 0.77977 0.0
C101 C 0.89102 0.0226 0.7476 0.0
C102 C 0.88983 0.04773 0.71803 0.0
C103 C 0.90038 0.02822 0.77911 0.0
C104 C 0.88696 0.98883 0.67533 0.0
N105 N 0.87365 0.99135 0.69531 0.0
C106 C 0.87824 0.97064 0.74139 0.0
C107 C 0.86903 0.98247 0.72742 0.0
C108 C 0.89227 0.96797 0.72194 0.0
C109 C 0.89635 0.977 0.68768 0.0
H110 H 0.8905 0.99633 0.6506 0.0
H111 H 0.85854 0.98499 0.74333 0.0
C112 C 0.85569 0.06192 0.75193 0.0
N113 N 0.85681 0.04664 0.7555 0.0
C114 C 0.86033 0.07123 0.78461 0.0
C115 C 0.86572 0.04883 0.82536 0.0
C116 C 0.86103 0.03997 0.79182 0.0
C117 C 0.866 0.06466 0.82125 0.0
H118 H 0.85201 0.06691 0.72299 0.0
H119 H 0.86181 0.02777 0.79362 0.0
C120 C 0.86173 -0.00102 0.60351 0.0
N121 N 0.87388 0.97338 0.56703 0.0
C122 C 0.87359 0.00028 0.57492 0.0
C123 C 0.85598 0.98467 0.61334 0.0
C124 C 0.87959 0.9872 0.55685 0.0
C125 C 0.8623 0.97187 0.59465 0.0
C126 C 0.84538 0.05452 0.63098 0.0
C127 C 0.83475 0.05469 0.5987 0.0
C128 C 0.85568 0.06648 0.63468 0.0
C129 C 0.83456 0.06684 0.57083 0.0
C130 C 0.85517 0.07839 0.6061 0.0
N131 N 0.8447 0.07833 0.57505 0.0
C132 C 0.80957 0.02824 0.64715 0.0
C133 C 0.81719 0.00559 0.61345 0.0
C134 C 0.79552 0.02771 0.62734 0.0
N135 N 0.82019 0.01753 0.6388 0.0
C136 C 0.8032 0.00446 0.59358 0.0
C137 C 0.7924 0.01591 0.5994 0.0
H138 H 0.81235 0.03766 0.66726 0.0
H139 H 0.8259 0.99734 0.60706 0.0
C140 C 0.88942 0.04663 0.60083 0.0
N141 N 0.87524 0.04138 0.59309 0.0
C142 C 0.89686 0.05554 0.57138 0.0
C143 C 0.87519 0.05287 0.52585 0.0
C144 C 0.86828 0.04384 0.55596 0.0
C145 C 0.88955 0.05905 0.53382 0.0
H146 H 0.89482 0.04424 0.63026 0.0
H147 H 0.85712 0.03923 0.55038 0.0
O148 O 0.84562 0.01438 0.71616 0.0
O149 O 0.87618 0.02725 0.6863 0.0
O150 O 0.85576 0.01165 0.62169 0.0
O151 O 0.84589 0.0426 0.65829 0.0
H152 H 0.82664 0.03254 0.75564 0.0
H153 H 0.83229 0.98794 0.70384 0.0
H154 H 0.80041 0.02562 0.77606 0.0
H155 H 0.80594 0.98181 0.72506 0.0
H156 H 0.90232 0.06473 0.75164 0.0
H157 H 0.88787 0.01078 0.74751 0.0
H158 H 0.8857 0.05556 0.6948 0.0
H159 H 0.90453 0.02073 0.80318 0.0
H160 H 0.87471 0.96413 0.76826 0.0
H161 H 0.90689 0.97523 0.67117 0.0
H162 H 0.86012 0.0834 0.78059 0.0
H163 H 0.8701 0.04333 0.85297 0.0
H164 H 0.87818 0.01125 0.56692 0.0
H165 H 0.84691 0.98344 0.63573 0.0
H166 H 0.8888 0.98803 0.53478 0.0
H167 H 0.85804 0.96072 0.60222 0.0
H168 H 0.82688 0.04545 0.59464 0.0
H169 H 0.86423 0.06641 0.65874 0.0
H170 H 0.82643 0.06707 0.54565 0.0
H171 H 0.86316 0.08763 0.60844 0.0
H172 H 0.78739 0.0367 0.63259 0.0
H173 H 0.80121 0.99527 0.57194 0.0
H174 H 0.90795 0.06008 0.57855 0.0
H175 H 0.86933 0.05515 0.4969 0.0
Li176 Li 0.48265 0.86232 0.17561 0.0
Li177 Li 0.45757 0.85438 0.19994 0.0
Li178 Li 0.47203 0.83919 0.15122 0.0
Li179 Li 0.46067 0.86301 0.12915 0.0
C180 C 0.48162 0.83053 0.22298 0.0
N181 N 0.48957 0.80153 0.24646 0.0
C182 C 0.47107 0.82122 0.24287 0.0
C183 C 0.49623 0.82515 0.21522 0.0
C184 C 0.47531 0.80658 0.25447 0.0
C185 C 0.50002 0.81043 0.22727 0.0
C186 C 0.45833 0.88427 0.20929 0.0
C187 C 0.43712 0.89716 0.24079 0.0
N188 N 0.44645 0.90257 0.27102 0.0
C189 C 0.46771 0.89001 0.24061 0.0
C190 C 0.44292 0.88794 0.20924 0.0
C191 C 0.46149 0.89925 0.27152 0.0
C192 C 0.50256 0.8866 0.16988 0.0
N193 N 0.50011 0.87347 0.19074 0.0
C194 C 0.52074 0.87864 0.23668 0.0
C195 C 0.50895 0.86924 0.22334 0.0
C196 C 0.52346 0.89242 0.21597 0.0
C197 C 0.51439 0.89613 0.18145 0.0
H198 H 0.4951 0.88984 0.14474 0.0
H199 H 0.5065 0.85886 0.2399 0.0
C200 C 0.42919 0.85295 0.24032 0.0
N201 N 0.44429 0.85492 0.24629 0.0
C202 C 0.41895 0.85733 0.27107 0.0
C203 C 0.44009 0.86412 0.31516 0.0
C204 C 0.44992 0.85969 0.28341 0.0
C205 C 0.42439 0.86359 0.30834 0.0
H206 H 0.42505 0.8488 0.21087 0.0
H207 H 0.46201 0.86113 0.28718 0.0
C208 C 0.49382 0.86097 0.09877 0.0
N209 N 0.5196 0.87326 0.06368 0.0
C210 C 0.49264 0.87268 0.06969 0.0
C211 C 0.5081 0.85543 0.10979 0.0
C212 C 0.50582 0.87876 0.05234 0.0
C213 C 0.521 0.86183 0.09178 0.0
C214 C 0.43857 0.84332 0.1213 0.0
C215 C 0.43923 0.83271 0.08903 0.0
C216 C 0.42624 0.85323 0.12362 0.0
C217 C 0.42751 0.83213 0.05983 0.0
C218 C 0.41477 0.85232 0.09375 0.0
N219 N 0.41563 0.84187 0.06276 0.0
C220 C 0.46548 0.80833 0.14059 0.0
C221 C 0.48764 0.81682 0.10597 0.0
C222 C 0.46607 0.79455 0.11941 0.0
N223 N 0.47588 0.81927 0.13238 0.0
C224 C 0.48881 0.80312 0.08464 0.0
C225 C 0.4776 0.79206 0.09013 0.0
H226 H 0.45615 0.81071 0.16138 0.0
H227 H 0.4956 0.82579 0.09958 0.0
C228 C 0.44524 0.88739 0.0916 0.0
N229 N 0.45125 0.87347 0.08468 0.0
C230 C 0.43684 0.89457 0.06062 0.0
C231 C 0.44145 0.87315 0.01545 0.0
C232 C 0.44991 0.86648 0.04718 0.0
C233 C 0.43458 0.8873 0.02218 0.0
H234 H 0.4468 0.89284 0.12137 0.0
H235 H 0.45502 0.85549 0.04243 0.0
O236 O 0.47757 0.84475 0.21051 0.0
O237 O 0.46414 0.87492 0.17925 0.0
O238 O 0.48105 0.85493 0.11628 0.0
O239 O 0.45004 0.8442 0.14996 0.0
H240 H 0.45969 0.82522 0.24891 0.0
H241 H 0.5045 0.83223 0.19975 0.0
H242 H 0.46725 0.79921 0.26972 0.0
H243 H 0.51126 0.80608 0.22129 0.0
H244 H 0.42519 0.89994 0.24137 0.0
H245 H 0.47963 0.88726 0.24139 0.0
H246 H 0.43545 0.8835 0.18554 0.0
H247 H 0.4686 0.9037 0.29604 0.0
H248 H 0.52723 0.87538 0.26383 0.0
H249 H 0.51618 0.90643 0.16387 0.0
H250 H 0.40691 0.85652 0.26502 0.0
H251 H 0.44472 0.86897 0.3434 0.0
H252 H 0.48169 0.87712 0.0608 0.0
H253 H 0.50923 0.84646 0.1325 0.0
H254 H 0.50508 0.88787 0.02991 0.0
H255 H 0.53213 0.85773 0.10026 0.0
H256 H 0.44878 0.82516 0.08599 0.0
H257 H 0.42567 0.86177 0.14765 0.0
H258 H 0.42792 0.824 0.03467 0.0
H259 H 0.40524 0.86 0.09505 0.0
H260 H 0.45727 0.78622 0.12447 0.0
H261 H 0.49778 0.80163 0.062 0.0
H262 H 0.43212 0.90566 0.0668 0.0
H263 H 0.43997 0.86707 0.98647 0.0
Li264 Li 0.63733 0.49214 0.68469 0.0
Li265 Li 0.64428 0.46656 0.70653 0.0
Li266 Li 0.65923 0.48046 0.6559 0.0
Li267 Li 0.63435 0.47054 0.63746 0.0
C268 C 0.6699 0.48896 0.72725 0.0
N269 N 0.69961 0.49507 0.74815 0.0
C270 C 0.67868 0.47794 0.74702 0.0
C271 C 0.67618 0.50312 0.71831 0.0
C272 C 0.69369 0.48124 0.75731 0.0
C273 C 0.69124 0.50597 0.72905 0.0
C274 C 0.61475 0.46887 0.72075 0.0
C275 C 0.60136 0.44815 0.75307 0.0
N276 N 0.59724 0.45746 0.78484 0.0
C277 C 0.61034 0.47824 0.75366 0.0
C278 C 0.61015 0.45371 0.72032 0.0
C279 C 0.60149 0.47226 0.78576 0.0
C280 C 0.61442 0.51388 0.68524 0.0
N281 N 0.62793 0.51021 0.70275 0.0
C282 C 0.6263 0.53121 0.74938 0.0
C283 C 0.63401 0.51856 0.73415 0.0
C284 C 0.61238 0.5353 0.73153 0.0
C285 C 0.60652 0.5266 0.69878 0.0
H286 H 0.60964 0.50673 0.66129 0.0
H287 H 0.64464 0.51516 0.74802 0.0
C288 C 0.64436 0.43796 0.746 0.0
N289 N 0.64391 0.45314 0.75254 0.0
C290 C 0.63985 0.42804 0.77741 0.0
C291 C 0.63606 0.44954 0.8229 0.0
C292 C 0.6406 0.45904 0.79053 0.0
C293 C 0.63498 0.43388 0.8158 0.0
H294 H 0.64728 0.43359 0.71569 0.0
H295 H 0.64031 0.47119 0.79466 0.0
C296 C 0.63734 0.50371 0.60855 0.0
N297 N 0.62527 0.53029 0.57758 0.0
C298 C 0.62462 0.50331 0.58264 0.0
C299 C 0.64398 0.51762 0.61846 0.0
C300 C 0.61868 0.51688 0.56734 0.0
C301 C 0.63769 0.53093 0.6026 0.0
C302 C 0.65295 0.44758 0.62532 0.0
C303 C 0.66327 0.44797 0.59232 0.0
C304 C 0.64244 0.43577 0.62771 0.0
C305 C 0.66291 0.43652 0.56232 0.0
C306 C 0.64242 0.42456 0.59703 0.0
N307 N 0.65257 0.42516 0.56525 0.0
C308 C 0.69006 0.47355 0.64305 0.0
C309 C 0.68096 0.495 0.60633 0.0
C310 C 0.70385 0.4743 0.62194 0.0
N311 N 0.67888 0.48362 0.63419 0.0
C312 C 0.69458 0.49625 0.58477 0.0
C313 C 0.70607 0.48556 0.59165 0.0
H314 H 0.68798 0.46449 0.66497 0.0
H315 H 0.67179 0.50267 0.59938 0.0
C316 C 0.60825 0.457 0.60275 0.0
N317 N 0.62245 0.46202 0.59424 0.0
C318 C 0.59992 0.44941 0.57233 0.0
C319 C 0.6208 0.4528 0.52455 0.0
C320 C 0.62865 0.46047 0.55577 0.0
C321 C 0.6063 0.44695 0.53281 0.0
H322 H 0.60345 0.45872 0.63331 0.0
H323 H 0.63989 0.4648 0.54977 0.0
O324 O 0.65529 0.48584 0.71618 0.0
O325 O 0.62372 0.47442 0.68951 0.0
O326 O 0.64324 0.49055 0.62412 0.0
O327 O 0.65301 0.45879 0.65479 0.0
H328 H 0.67398 0.46691 0.75401 0.0
H329 H 0.66952 0.51175 0.70289 0.0
H330 H 0.70065 0.4728 0.77247 0.0
H331 H 0.69628 0.51685 0.72212 0.0
H332 H 0.59787 0.43641 0.75335 0.0
H333 H 0.61383 0.48996 0.75471 0.0
H334 H 0.61358 0.44624 0.69536 0.0
H335 H 0.59806 0.47937 0.81151 0.0
H336 H 0.63103 0.53764 0.77498 0.0
H337 H 0.59565 0.52927 0.68494 0.0
H338 H 0.63941 0.41601 0.77103 0.0
H339 H 0.63231 0.4545 0.85195 0.0
H340 H 0.61932 0.49266 0.57465 0.0
H341 H 0.65376 0.51814 0.63873 0.0
H342 H 0.60881 0.51674 0.54739 0.0
H343 H 0.64264 0.54178 0.61028 0.0
H344 H 0.67136 0.45709 0.5895 0.0
H345 H 0.63415 0.43542 0.65245 0.0
H346 H 0.67081 0.43671 0.53657 0.0
H347 H 0.63426 0.41543 0.59834 0.0
H348 H 0.71249 0.46591 0.62825 0.0
H349 H 0.69578 0.50497 0.56128 0.0
H350 H 0.58863 0.44546 0.57979 0.0
H351 H 0.62625 0.4511 0.49473 0.0
Li352 Li 0.02648 0.84072 0.84934 0.0
Li353 Li 0.03905 0.86302 0.87702 0.0
Li354 Li 0.01465 0.86475 0.84042 0.0
Li355 Li 0.03814 0.8591 0.80286 0.0
C356 C 0.00818 0.85939 0.91971 0.0
N357 N 0.98552 0.87024 0.97108 0.0
C358 C 0.01168 0.86931 0.95226 0.0
C359 C 0.99314 0.85497 0.91339 0.0
C360 C 7e-05 0.87466 0.97788 0.0
C361 C 0.98185 0.8606 0.93965 0.0
C362 C 0.06151 0.84398 0.86509 0.0
C363 C 0.08676 0.85213 0.88321 0.0
N364 N 0.08797 0.84029 0.91005 0.0
C365 C 0.063 0.83192 0.89298 0.0
C366 C 0.07349 0.85418 0.86018 0.0
C367 C 0.07647 0.83022 0.91533 0.0
C368 C 0.03332 0.80937 0.84821 0.0
N369 N 0.02297 0.81991 0.86006 0.0
C370 C 0.00919 0.80151 0.899 0.0
C371 C 0.01084 0.81619 0.88392 0.0
C372 C 0.02032 0.79067 0.88999 0.0
C373 C 0.0323 0.79458 0.86331 0.0
H374 H 0.04286 0.81269 0.82914 0.0
H375 H 0.00283 0.82479 0.89297 0.0
C376 C 0.05702 0.88477 0.91845 0.0
N377 N 0.05113 0.87061 0.92124 0.0
C378 C 0.06703 0.89002 0.94876 0.0
C379 C 0.06438 0.86614 0.98487 0.0
C380 C 0.0543 0.86142 0.95404 0.0
C381 C 0.07102 0.88058 0.98225 0.0
H382 H 0.05405 0.89196 0.89253 0.0
H383 H 0.04926 0.85028 0.9557 0.0
C384 C 0.01359 0.83621 0.7789 0.0
N385 N 0.00527 0.80869 0.7452 0.0
C386 C 0.02352 0.82847 0.75259 0.0
C387 C -0.00058 0.83001 0.78803 0.0
C388 C 0.0191 0.81455 0.73585 0.0
C389 C 0.99543 0.81606 0.7707 0.0
C390 C 0.03681 0.88928 0.8088 0.0
C391 C 0.02573 0.89707 0.78625 0.0
C392 C 0.05206 0.89307 0.80345 0.0
C393 C 0.03011 0.90843 0.75846 0.0
C394 C 0.05599 0.90445 0.77525 0.0
N395 N 0.04502 0.91183 0.75352 0.0
C396 C 0.99343 0.88735 0.86241 0.0
C397 C 0.98679 0.87244 0.80385 0.0
C398 C 0.98055 0.89628 0.8572 0.0
N399 N 0.99626 0.87569 0.83593 0.0
C400 C 0.97393 0.88127 0.79693 0.0
C401 C 0.97074 0.89352 0.82351 0.0
H402 H 0.00135 0.8899 0.88709 0.0
H403 H 0.98953 0.86333 0.78266 0.0
C404 C 0.06337 0.86041 0.74777 0.0
N405 N 0.04827 0.86296 0.75191 0.0
C406 C 0.07125 0.8666 0.7142 0.0
C407 C 0.04767 0.87682 0.68819 0.0
C408 C 0.04025 0.87034 0.72208 0.0
C409 C 0.06348 0.87547 0.68477 0.0
H410 H 0.0694 0.85418 0.77144 0.0
H411 H 0.02822 0.8721 0.7262 0.0
O412 O 0.01941 0.854 0.89434 0.0
O413 O 0.0483 0.84598 0.84334 0.0
O414 O 0.0179 0.84962 0.79652 0.0
O415 O 0.03276 0.87789 0.83554 0.0
H416 H 0.02321 0.87289 0.95766 0.0
H417 H 0.99014 0.84758 0.88785 0.0
H418 H 0.00262 0.88236 0.00312 0.0
H419 H 0.97016 0.85737 0.93488 0.0
H420 H 0.09606 0.86001 0.87989 0.0
H421 H 0.05379 0.82409 0.89801 0.0
H422 H 0.07248 0.86375 0.83944 0.0
H423 H 0.07774 0.82097 0.93713 0.0
H424 H -0.00011 0.79894 0.91982 0.0
H425 H 0.04107 0.78646 0.85568 0.0
H426 H 0.07153 0.90138 0.94605 0.0
H427 H 0.06715 0.85844 0.00996 0.0
H428 H 0.03458 0.83308 0.7455 0.0
H429 H 0.99167 0.83582 0.8087 0.0
H430 H 0.02669 0.80839 0.71555 0.0
H431 H 0.98453 0.81108 0.77765 0.0
H432 H 0.01388 0.89431 0.78976 0.0
H433 H 0.06081 0.88711 0.82035 0.0
H434 H 0.02166 0.91449 0.74067 0.0
H435 H 0.06776 0.90737 0.7705 0.0
H436 H 0.97849 0.90542 0.87891 0.0
H437 H 0.96697 0.87887 0.76999 0.0
H438 H 0.08338 0.86493 0.71215 0.0
H439 H 0.0412 0.88362 0.66651 0.0
Li440 Li 0.6539 0.02391 0.35191 0.0
Li441 Li 0.63095 0.03771 0.36952 0.0
Li442 Li 0.62998 0.01289 0.33511 0.0
Li443 Li 0.63857 0.03548 0.2978 0.0
C444 C 0.63182 0.00699 0.416 0.0
N445 N 0.6188 0.98463 0.46445 0.0
C446 C 0.62067 0.01069 0.44518 0.0
C447 C 0.63635 0.9919 0.41154 0.0
C448 C 0.61423 -0.00077 0.46938 0.0
C449 C 0.62962 0.98077 0.43627 0.0
C450 C 0.65142 0.05888 0.36458 0.0
C451 C 0.6439 0.08459 0.37955 0.0
N452 N 0.654 0.08501 0.4115 0.0
C453 C 0.66168 0.05956 0.3977 0.0
C454 C 0.64244 0.0715 0.35547 0.0
C455 C 0.66285 0.07288 0.42095 0.0
C456 C 0.68518 0.02975 0.35944 0.0
N457 N 0.67393 0.02003 0.37039 0.0
C458 C 0.69041 0.00692 0.41692 0.0
C459 C 0.67635 0.00856 0.39777 0.0
C460 C 0.70193 0.01738 0.40829 0.0
C461 C 0.69935 0.02871 0.37848 0.0
H462 H 0.68288 0.03879 0.33763 0.0
H463 H 0.6672 0.0011 0.40616 0.0
C464 C 0.6087 0.05792 0.40073 0.0
N465 N 0.62177 0.0505 0.40979 0.0
C466 C 0.60248 0.06806 0.42931 0.0
C467 C 0.62308 0.06241 0.4764 0.0
C468 C 0.6289 0.05239 0.44691 0.0
C469 C 0.60973 0.07046 0.46766 0.0
H470 H 0.60313 0.05602 0.3713 0.0
H471 H 0.63923 0.04624 0.45333 0.0
C472 C 0.66119 0.0095 0.28545 0.0
N473 N 0.68964 -0.00082 0.2638 0.0
C474 C 0.67076 0.01854 0.26131 0.0
C475 C 0.66604 0.9952 0.29846 0.0
C476 C 0.68511 0.01312 0.2507 0.0
C477 C 0.68048 0.9902 0.28724 0.0
C478 C 0.60844 0.03559 0.29191 0.0
C479 C 0.60129 0.02456 0.26766 0.0
C480 C 0.60588 0.05092 0.28339 0.0
C481 C 0.5918 0.02904 0.2351 0.0
C482 C 0.59635 0.05493 0.25047 0.0
N483 N 0.58957 0.044 0.2272 0.0
C484 C 0.60563 0.99325 0.35208 0.0
C485 C 0.62216 0.9849 0.29867 0.0
C486 C 0.5962 0.98081 0.34577 0.0
N487 N 0.61834 0.995 0.32877 0.0
C488 C 0.61283 0.97249 0.29054 0.0
C489 C 0.59951 0.97038 0.31395 0.0
H490 H 0.60267 0.00168 0.37506 0.0
H491 H 0.63215 0.9868 0.27993 0.0
C492 C 0.64044 0.05995 0.24061 0.0
N493 N 0.63778 0.04488 0.24482 0.0
C494 C 0.63571 0.06751 0.20476 0.0
C495 C 0.62703 0.04361 0.17679 0.0
C496 C 0.63197 0.03652 0.21312 0.0
C497 C 0.62822 0.05942 0.17317 0.0
H498 H 0.64536 0.06625 0.26601 0.0
H499 H 0.63 0.02454 0.2175 0.0
O500 O 0.63824 0.01806 0.39198 0.0
O501 O 0.6499 0.04583 0.34189 0.0
O502 O 0.6473 0.01479 0.29718 0.0
O503 O 0.61804 0.03143 0.32339 0.0
H504 H 0.61694 0.02226 0.44897 0.0
H505 H 0.64473 0.98876 0.38855 0.0
H506 H 0.60557 0.00194 0.49201 0.0
H507 H 0.63295 0.96904 0.43291 0.0
H508 H 0.63694 0.09438 0.37299 0.0
H509 H 0.66848 0.04985 0.40596 0.0
H510 H 0.63418 0.07111 0.33067 0.0
H511 H 0.6707 0.07353 0.44674 0.0
H512 H 0.69197 0.99813 0.44006 0.0
H513 H 0.70804 0.03694 0.37105 0.0
H514 H 0.592 0.07381 0.42168 0.0
H515 H 0.62909 0.06398 0.50548 0.0
H516 H 0.66719 0.02968 0.25125 0.0
H517 H 0.65878 0.98812 0.31741 0.0
H518 H 0.69267 0.02001 0.23218 0.0
H519 H 0.68443 0.97919 0.29726 0.0
H520 H 0.60314 0.01266 0.27358 0.0
H521 H 0.61145 0.05963 0.30139 0.0
H522 H 0.58626 0.02061 0.21598 0.0
H523 H 0.59443 0.06674 0.24324 0.0
H524 H 0.58627 0.9796 0.36522 0.0
H525 H 0.61575 0.96501 0.2651 0.0
H526 H 0.63715 0.07967 0.20275 0.0
H527 H 0.62125 0.03694 0.15339 0.0
Li528 Li 0.47124 0.6549 0.84191 0.0
Li529 Li 0.45909 0.63176 0.86531 0.0
Li530 Li 0.48387 0.63138 0.8304 0.0
Li531 Li 0.46059 0.63712 0.79193 0.0
C532 C 0.48948 0.63554 0.91084 0.0
N533 N 0.51205 0.62463 0.96243 0.0
C534 C 0.48606 0.62496 0.94182 0.0
C535 C 0.50441 0.64057 0.90617 0.0
C536 C 0.49762 0.61959 0.96759 0.0
C537 C 0.51565 0.63491 0.93252 0.0
C538 C 0.43627 0.65023 0.85494 0.0
C539 C 0.41111 0.64103 0.86999 0.0
N540 N 0.40949 0.65201 0.89935 0.0
C541 C 0.43435 0.66139 0.88538 0.0
C542 C 0.42454 0.63996 0.84721 0.0
C543 C 0.42073 0.66212 0.90741 0.0
C544 C 0.46332 0.686 0.84603 0.0
N545 N 0.47403 0.67557 0.85609 0.0
C546 C 0.48725 0.69356 0.89789 0.0
C547 C 0.48606 0.67917 0.8805 0.0
C548 C 0.47578 0.70421 0.89061 0.0
C549 C 0.46389 0.70048 0.86347 0.0
H550 H 0.45388 0.68279 0.82646 0.0
H551 H 0.49436 0.67068 0.88808 0.0
C552 C 0.4412 0.60889 0.90257 0.0
N553 N 0.44698 0.62302 0.90778 0.0
C554 C 0.43168 0.60267 0.93269 0.0
C555 C 0.43447 0.62555 0.9733 0.0
C556 C 0.44399 0.6313 0.94248 0.0
C557 C 0.42814 0.61106 0.96856 0.0
H558 H 0.444 0.60244 0.87511 0.0
H559 H 0.44892 0.64243 0.94598 0.0
C560 C 0.48464 0.66115 0.77332 0.0
N561 N 0.49237 0.68959 0.74465 0.0
C562 C 0.47466 0.66918 0.74777 0.0
C563 C 0.49856 0.66755 0.78425 0.0
C564 C 0.47878 0.68355 0.73359 0.0
C565 C 0.50226 0.68195 0.76945 0.0
C566 C 0.46273 0.60678 0.79409 0.0
C567 C 0.47426 0.59947 0.77204 0.0
C568 C 0.44763 0.60281 0.78676 0.0
C569 C 0.47047 0.5884 0.74276 0.0
C570 C 0.44431 0.59172 0.75713 0.0
N571 N 0.4557 0.5848 0.73592 0.0
C572 C 0.50559 0.60922 0.85183 0.0
C573 C 0.51261 0.62545 0.79635 0.0
C574 C 0.51919 0.6013 0.84833 0.0
N575 N 0.50267 0.62113 0.82632 0.0
C576 C 0.52621 0.61764 0.79111 0.0
C577 C 0.52967 0.60533 0.81725 0.0
H578 H 0.49731 0.60582 0.87479 0.0
H579 H 0.50981 0.63474 0.77584 0.0
C580 C 0.43596 0.63647 0.73486 0.0
N581 N 0.45101 0.63391 0.73981 0.0
C582 C 0.42834 0.63041 0.70062 0.0
C583 C 0.45215 0.62039 0.67561 0.0
C584 C 0.4593 0.6268 0.71005 0.0
C585 C 0.43634 0.62161 0.67147 0.0
H586 H 0.42971 0.64251 0.75851 0.0
H587 H 0.4713 0.62505 0.71479 0.0
O588 O 0.47829 0.64096 0.88534 0.0
O589 O 0.44963 0.64915 0.83349 0.0
O590 O 0.48061 0.64728 0.78851 0.0
O591 O 0.4662 0.61787 0.82234 0.0
H592 H 0.47463 0.62085 0.94588 0.0
H593 H 0.50739 0.64844 0.88173 0.0
H594 H 0.49512 0.61138 0.99163 0.0
H595 H 0.52726 0.63861 0.92898 0.0
H596 H 0.402 0.6331 0.86447 0.0
H597 H 0.44337 0.66923 0.89259 0.0
H598 H 0.42588 0.63107 0.82439 0.0
H599 H 0.41914 0.67066 0.93115 0.0
H600 H 0.49651 0.69598 0.91897 0.0
H601 H 0.45488 0.70847 0.8571 0.0
H602 H 0.42734 0.59132 0.92821 0.0
H603 H 0.432 0.63245 0.00033 0.0
H604 H 0.4638 0.66441 0.73932 0.0
H605 H 0.50633 0.66153 0.80439 0.0
H606 H 0.47116 0.68993 0.7139 0.0
H607 H 0.51295 0.68709 0.77782 0.0
H608 H 0.486 0.60239 0.7771 0.0
H609 H 0.43854 0.60841 0.80322 0.0
H610 H 0.47927 0.58271 0.72534 0.0
H611 H 0.43266 0.58866 0.75084 0.0
H612 H 0.52137 0.59206 0.86964 0.0
H613 H 0.53367 0.62097 0.766 0.0
H614 H 0.41623 0.63204 0.69802 0.0
H615 H 0.45882 0.61367 0.65421 0.0
Li616 Li 0.84213 0.46993 0.34082 0.0
Li617 Li 0.86419 0.45615 0.35833 0.0
Li618 Li 0.86577 0.48278 0.32833 0.0
Li619 Li 0.85789 0.46002 0.28634 0.0
C620 C 0.84952 0.48211 0.41449 0.0
N621 N 0.83245 0.49494 0.47747 0.0
C622 C 0.83992 0.47311 0.43868 0.0
C623 C 0.8505 0.49764 0.42255 0.0
C624 C 0.83135 0.4798 0.47026 0.0
C625 C 0.84178 0.50391 0.45451 0.0
C626 C 0.84591 0.43407 0.34424 0.0
C627 C 0.85556 0.40849 0.34628 0.0
N628 N 0.84633 0.4054 0.37907 0.0
C629 C 0.83654 0.43061 0.37808 0.0
C630 C 0.85549 0.42288 0.32825 0.0
C631 C 0.8369 0.41607 0.39516 0.0
C632 C 0.81135 0.46338 0.35828 0.0
N633 N 0.82177 0.47465 0.3559 0.0
C634 C 0.80452 0.49221 0.38657 0.0
C635 C 0.81833 0.48905 0.36745 0.0
C636 C 0.79413 0.48043 0.39342 0.0
C637 C 0.79742 0.46599 0.37742 0.0
H638 H 0.81409 0.45221 0.34691 0.0
H639 H 0.82664 0.49793 0.36388 0.0
C640 C 0.88789 0.43694 0.38496 0.0
N641 N 0.87406 0.44245 0.39577 0.0
C642 C 0.89494 0.42594 0.40939 0.0
C643 C 0.8736 0.42676 0.45638 0.0
C644 C 0.86704 0.43785 0.43125 0.0
C645 C 0.88767 0.42056 0.44528 0.0
H646 H 0.89341 0.44094 0.35713 0.0
H647 H 0.85618 0.44249 0.43965 0.0
C648 C 0.83574 0.48537 0.27171 0.0
N649 N 0.80862 0.49509 0.23828 0.0
C650 C 0.82599 0.47502 0.25264 0.0
C651 C 0.83176 0.50067 0.27364 0.0
C652 C 0.81231 0.48016 0.23596 0.0
C653 C 0.81798 0.50536 0.25658 0.0
C654 C 0.88861 0.46128 0.28481 0.0
C655 C 0.89681 0.47317 0.26701 0.0
C656 C 0.89148 0.44641 0.272 0.0
C657 C 0.90754 0.47003 0.23624 0.0
C658 C 0.90228 0.44373 0.24109 0.0
N659 N 0.91001 0.4555 0.22396 0.0
C660 C 0.88539 0.50557 0.35836 0.0
C661 C 0.87529 0.50959 0.29086 0.0
C662 C 0.8941 0.51871 0.3552 0.0
N663 N 0.87635 0.50127 0.32628 0.0
C664 C 0.88395 0.52267 0.28611 0.0
C665 C 0.89369 0.52731 0.31833 0.0
H666 H 0.88602 0.49864 0.38609 0.0
H667 H 0.86814 0.50572 0.26566 0.0
C668 C 0.85394 0.43795 0.22291 0.0
N669 N 0.85928 0.45201 0.23166 0.0
C670 C 0.85802 0.43081 0.18583 0.0
C671 C 0.87177 0.45334 0.16592 0.0
C672 C 0.86728 0.46009 0.20317 0.0
C673 C 0.86766 0.43826 0.15766 0.0
H674 H 0.84709 0.43201 0.24548 0.0
H675 H 0.8711 0.47139 0.2107 0.0
O676 O 0.85789 0.47582 0.38301 0.0
O677 O 0.84593 0.44834 0.3274 0.0
O678 O 0.84902 0.4805 0.28892 0.0
O679 O 0.87786 0.46419 0.31458 0.0
H680 H 0.83873 0.46117 0.43234 0.0
H681 H 0.85776 0.50483 0.40402 0.0
H682 H 0.82374 0.47299 0.48883 0.0
H683 H 0.84237 0.51591 0.46092 0.0
H684 H 0.86299 0.39979 0.33428 0.0
H685 H 0.82934 0.43912 0.39184 0.0
H686 H 0.86295 0.4253 0.3025 0.0
H687 H 0.82977 0.41331 0.42148 0.0
H688 H 0.80226 0.50361 0.3973 0.0
H689 H 0.78972 0.45658 0.38168 0.0
H690 H 0.90583 0.42147 0.39984 0.0
H691 H 0.86776 0.42312 0.48429 0.0
H692 H 0.82889 0.46312 0.25114 0.0
H693 H 0.83918 0.50879 0.2885 0.0
H694 H 0.80461 0.47227 0.22127 0.0
H695 H 0.81471 0.51715 0.25799 0.0
H696 H 0.89492 0.48472 0.2767 0.0
H697 H 0.88533 0.43704 0.28538 0.0
H698 H 0.9139 0.47915 0.22209 0.0
H699 H 0.90448 0.4323 0.23063 0.0
H700 H 0.90125 0.52194 0.3811 0.0
H701 H 0.88345 0.52869 0.25678 0.0
H702 H 0.85418 0.41935 0.18011 0.0
H703 H 0.87922 0.45956 0.14531 0.0
Li704 Li 0.96447 0.35973 0.85379 0.0
Li705 Li 0.97631 0.33557 0.837 0.0
Li706 Li 0.98778 0.35897 0.81472 0.0
Li707 Li 0.96441 0.34972 0.7831 0.0
C708 C 0.98418 0.35576 0.9133 0.0
N709 N 0.98225 0.36338 0.9966 0.0
C710 C 0.98072 0.3447 0.94297 0.0
C711 C 0.98667 0.37069 0.92605 0.0
C712 C 0.97981 0.34878 0.98493 0.0
C713 C 0.98562 0.37431 0.96828 0.0
C714 C 0.94086 0.33713 0.81868 0.0
C715 C 0.92494 0.32136 0.77577 0.0
N716 N 0.91281 0.33012 0.78583 0.0
C717 C 0.92823 0.34594 0.82874 0.0
C718 C 0.93921 0.3247 0.79215 0.0
C719 C 0.91415 0.34222 0.81177 0.0
C720 C 0.94875 0.38508 0.88519 0.0
N721 N 0.95235 0.37037 0.89262 0.0
C722 C 0.93672 0.37 0.95322 0.0
C723 C 0.94652 0.36274 0.92564 0.0
C724 C 0.93268 0.38518 0.94628 0.0
C725 C 0.9389 0.39275 0.9118 0.0
H726 H 0.9532 0.39074 0.85803 0.0
H727 H 0.94928 0.35093 0.93012 0.0
C728 C 0.99467 0.31453 0.87744 0.0
N729 N 0.98077 0.31645 0.86011 0.0
C730 C 0.99761 0.30194 0.90237 0.0
C731 C 0.9721 0.29318 0.88912 0.0
C732 C 0.96964 0.30597 0.86463 0.0
C733 C 0.98607 0.29132 0.90954 0.0
H734 H 0.00317 0.32326 0.87401 0.0
H735 H 0.95863 0.30793 0.85101 0.0
C736 C 0.97454 0.38338 0.7846 0.0
N737 N 0.98695 0.40893 0.74851 0.0
C738 C 0.97454 0.38503 0.74131 0.0
C739 C 0.98076 0.39476 0.80953 0.0
C740 C 0.98087 0.39803 0.72367 0.0
C741 C 0.98703 0.40757 0.79069 0.0
C742 C 0.99296 0.32775 0.77416 0.0
C743 C 0.00842 0.32767 0.78338 0.0
C744 C 0.98601 0.31458 0.75949 0.0
C745 C 0.01668 0.31431 0.7781 0.0
C746 C 0.99465 0.30144 0.75468 0.0
N747 N 0.00967 0.30158 0.76403 0.0
C748 C 0.01504 0.37405 0.83538 0.0
C749 C 0.00974 0.37201 0.76325 0.0
C750 C 0.02772 0.38298 0.82716 0.0
N751 N 0.00617 0.36914 0.8036 0.0
C752 C 0.02221 0.38102 0.75359 0.0
C753 C 0.03122 0.38691 0.78584 0.0
H754 H 0.0121 0.3713 0.86713 0.0
H755 H 0.00254 0.36776 0.73864 0.0
C756 C 0.941 0.36053 0.73622 0.0
N757 N 0.95256 0.35043 0.73423 0.0
C758 C 0.9324 0.36371 0.70107 0.0
C759 C 0.94762 0.34585 0.66221 0.0
C760 C 0.95593 0.34293 0.69846 0.0
C761 C 0.93582 0.35655 0.6632 0.0
H762 H 0.93889 0.3666 0.76487 0.0
H763 H 0.96537 0.33513 0.69773 0.0
O764 O 0.98493 0.35205 0.87197 0.0
O765 O 0.9548 0.34074 0.83441 0.0
O766 O 0.96872 0.37057 0.80247 0.0
O767 O 0.98463 0.34062 0.77991 0.0
H768 H 0.97853 0.33314 0.93378 0.0
H769 H 0.98922 0.37942 0.90353 0.0
H770 H 0.97708 0.34035 0.00818 0.0
H771 H 0.98746 0.38584 0.97852 0.0
H772 H 0.92351 0.31183 0.75498 0.0
H773 H 0.92929 0.35564 0.84907 0.0
H774 H 0.94888 0.31781 0.78386 0.0
H775 H 0.90429 0.34898 0.81912 0.0
H776 H 0.93233 0.36375 0.97961 0.0
H777 H 0.93589 0.40436 0.90477 0.0
H778 H 0.00846 0.30107 0.91788 0.0
H779 H 0.96298 0.28513 0.89332 0.0
H780 H 0.96991 0.3763 0.72146 0.0
H781 H 0.98093 0.39364 0.84305 0.0
H782 H 0.98103 0.39943 0.69021 0.0
H783 H 0.99199 0.41641 0.8096 0.0
H784 H 0.01396 0.33777 0.79488 0.0
H785 H 0.97405 0.31448 0.75219 0.0
H786 H 0.02864 0.31405 0.78531 0.0
H787 H 0.98941 0.29114 0.74356 0.0
H788 H 0.03454 0.38697 0.85293 0.0
H789 H 0.02435 0.38385 0.72133 0.0
H790 H 0.92368 0.3723 0.70312 0.0
H791 H 0.95062 0.3401 0.6336 0.0
Li792 Li 0.13892 0.97037 0.37054 0.0
Li793 Li 0.16256 0.98109 0.34441 0.0
Li794 Li 0.13873 0.98974 0.31652 0.0
Li795 Li 0.14853 0.9643 0.30109 0.0
C796 C 0.14237 0.99549 0.41388 0.0
N797 N 0.13496 0.0024 0.49526 0.0
C798 C 0.15314 0.99385 0.44548 0.0
C799 C 0.12786 0.00071 0.42365 0.0
C800 C 0.14916 0.99739 0.48643 0.0
C801 C 0.12432 0.00412 0.46499 0.0
C802 C 0.16269 0.94517 0.35117 0.0
C803 C 0.17892 0.92677 0.31817 0.0
N804 N 0.17176 0.91553 0.3394 0.0
C805 C 0.15554 0.93345 0.37282 0.0
C806 C 0.17453 0.94183 0.32378 0.0
C807 C 0.16027 0.91854 0.36638 0.0
C808 C 0.11441 0.95619 0.41 0.0
N809 N 0.12865 0.96152 0.41634 0.0
C810 C 0.12924 0.95069 0.48447 0.0
C811 C 0.13613 0.95898 0.45266 0.0
C812 C 0.11463 0.94475 0.47847 0.0
C813 C 0.10714 0.94778 0.44078 0.0
H814 H 0.10892 0.95789 0.38035 0.0
H815 H 0.14765 0.96287 0.45632 0.0
C816 C 0.18218 0.00303 0.37461 0.0
N817 N 0.18157 0.98829 0.3626 0.0
C818 C 0.1947 0.00843 0.39645 0.0
C819 C 0.20618 0.98366 0.39026 0.0
C820 C 0.19334 0.97868 0.36898 0.0
C821 C 0.20668 -0.00144 0.40552 0.0
H822 H 0.17254 0.01034 0.3694 0.0
H823 H 0.19242 0.96696 0.35965 0.0
C824 C 0.11399 0.9729 0.30079 0.0
N825 N 0.08624 0.97924 0.26505 0.0
C826 C 0.11059 0.96755 0.2609 0.0
C827 C 0.10324 0.98139 0.32259 0.0
C828 C 0.0965 0.97089 0.24337 0.0
C829 C 0.08929 0.98451 0.30394 0.0
C830 C 0.16969 0.99153 0.27197 0.0
C831 C 0.17011 0.00733 0.27396 0.0
C832 C 0.18244 0.98355 0.25845 0.0
C833 C 0.18338 0.01491 0.26275 0.0
C834 C 0.1955 0.99154 0.24752 0.0
N835 N 0.1957 0.00692 0.24991 0.0
C836 C 0.12737 0.01955 0.3169 0.0
C837 C 0.12227 0.00558 0.25551 0.0
C838 C 0.11955 0.03203 0.30119 0.0
N839 N 0.12834 0.0066 0.29425 0.0
C840 C 0.11405 0.01763 0.23897 0.0
C841 C 0.11249 0.0311 0.26197 0.0
H842 H 0.13271 0.02018 0.34714 0.0
H843 H 0.12364 0.9953 0.23767 0.0
C844 C 0.1387 0.93664 0.27372 0.0
N845 N 0.14717 0.94865 0.26133 0.0
C846 C 0.13339 0.92626 0.24465 0.0
C847 C 0.14614 0.94045 0.19057 0.0
C848 C 0.15134 0.95055 0.22094 0.0
C849 C 0.13651 0.9285 0.20226 0.0
H850 H 0.13507 0.93578 0.30576 0.0
H851 H 0.1577 0.96049 0.21191 0.0
O852 O 0.14599 0.99197 0.37362 0.0
O853 O 0.15814 0.95983 0.35678 0.0
O854 O 0.12778 0.96989 0.31838 0.0
O855 O 0.15694 0.98391 0.28379 0.0
H856 H 0.16437 0.98965 0.43863 0.0
H857 H 0.11941 0.0021 0.39958 0.0
H858 H 0.15736 0.9961 0.51122 0.0
H859 H 0.11312 0.00813 0.47301 0.0
H860 H 0.188 0.92402 0.29689 0.0
H861 H 0.14635 0.93581 0.39408 0.0
H862 H 0.18015 0.95075 0.3067 0.0
H863 H 0.15479 0.90935 0.38278 0.0
H864 H 0.13541 0.94871 0.51308 0.0
H865 H 0.09603 0.94316 0.43432 0.0
H866 H 0.19474 0.02 0.40767 0.0
H867 H 0.21515 0.97567 0.39713 0.0
H868 H 0.11877 0.96102 0.24345 0.0
H869 H 0.10567 0.98558 0.35351 0.0
H870 H 0.09374 0.96687 0.21246 0.0
H871 H 0.0809 0.99113 0.32039 0.0
H872 H 0.16034 0.01366 0.28449 0.0
H873 H 0.18226 0.97133 0.25657 0.0
H874 H 0.18391 0.02713 0.26437 0.0
H875 H 0.20548 0.98552 0.23717 0.0
H876 H 0.11906 0.04227 0.31966 0.0
H877 H 0.10873 0.01621 0.20888 0.0
H878 H 0.1261 0.91714 0.25493 0.0
H879 H 0.14864 0.94264 0.15812 0.0
Li880 Li 0.5151 0.15719 0.8536 0.0
Li881 Li 0.52499 0.13056 0.87257 0.0
Li882 Li 0.52465 0.14022 0.80052 0.0
Li883 Li 0.50185 0.1343 0.83328 0.0
C884 C 0.54936 0.15219 0.83196 0.0
N885 N 0.57653 0.15898 0.79374 0.0
C886 C 0.56141 0.14195 0.83384 0.0
C887 C 0.55116 0.16594 0.81105 0.0
C888 C 0.57505 0.14558 0.8142 0.0
C889 C 0.56498 0.16915 0.79183 0.0
C890 C 0.49323 0.13823 0.91152 0.0
C891 C 0.47858 0.12303 0.95906 0.0
N892 N 0.46627 0.13188 0.95137 0.0
C893 C 0.4805 0.14723 0.90427 0.0
C894 C 0.49233 0.12608 0.93926 0.0
C895 C 0.46695 0.14381 0.92464 0.0
C896 C 0.50165 0.18548 0.87626 0.0
N897 N 0.51425 0.17666 0.87724 0.0
C898 C 0.52664 0.19382 0.92323 0.0
C899 C 0.52665 0.18061 0.8997 0.0
C900 C 0.51369 0.20306 0.92385 0.0
C901 C 0.50113 0.19887 0.8995 0.0
H902 H 0.49189 0.18192 0.8584 0.0
H903 H 0.53637 0.17317 0.90056 0.0
C904 C 0.54455 0.10747 0.89866 0.0
N905 N 0.53652 0.11972 0.91154 0.0
C906 C 0.55478 0.10048 0.92562 0.0
C907 C 0.54798 0.1187 0.9787 0.0
C908 C 0.53788 0.12533 0.95071 0.0
C909 C 0.55678 0.10626 0.96601 0.0
H910 H 0.54341 0.10351 0.86694 0.0
H911 H 0.53143 0.13521 0.95974 0.0
C912 C 0.50598 0.16096 0.7636 0.0
N913 N 0.50619 0.17804 0.69149 0.0
C914 C 0.50064 0.15479 0.72629 0.0
C915 C 0.51131 0.17586 0.76428 0.0
C916 C 0.50087 0.16359 0.69016 0.0
C917 C 0.51136 0.1843 0.72748 0.0
C918 C 0.51261 0.10807 0.80243 0.0
C919 C 0.50734 0.10936 0.76157 0.0
C920 C 0.51126 0.09428 0.82343 0.0
C921 C 0.5005 0.09687 0.74261 0.0
C922 C 0.50438 0.08204 0.80336 0.0
N923 N 0.49916 0.0836 0.76374 0.0
C924 C 0.54494 0.12453 0.7539 0.0
C925 C 0.53884 0.14751 0.71968 0.0
C926 C 0.55473 0.12047 0.72199 0.0
N927 N 0.53707 0.13774 0.75212 0.0
C928 C 0.5484 0.14374 0.68646 0.0
C929 C 0.55646 0.13005 0.68758 0.0
H930 H 0.54369 0.11713 0.78046 0.0
H931 H 0.53301 0.15822 0.71948 0.0
C932 C 0.47358 0.1308 0.7933 0.0
N933 N 0.48258 0.12523 0.82403 0.0
C934 C 0.46124 0.12239 0.77903 0.0
C935 C 0.46702 0.10329 0.8306 0.0
C936 C 0.4792 0.11207 0.84386 0.0
C937 C 0.45824 0.10815 0.79667 0.0
H938 H 0.47649 0.14134 0.77825 0.0
H939 H 0.48658 0.10787 0.8681 0.0
O940 O 0.53576 0.14862 0.84975 0.0
O941 O 0.50654 0.14128 0.89155 0.0
O942 O 0.50552 0.15263 0.79948 0.0
O943 O 0.51891 0.1203 0.82197 0.0
H944 H 0.56017 0.13124 0.84982 0.0
H945 H 0.54195 0.17398 0.8094 0.0
H946 H 0.58444 0.13772 0.8151 0.0
H947 H 0.56651 0.17971 0.7753 0.0
H948 H 0.47767 0.11362 0.98047 0.0
H949 H 0.48103 0.15665 0.88276 0.0
H950 H 0.50212 0.11901 0.94515 0.0
H951 H 0.45696 0.15061 0.91915 0.0
H952 H 0.53646 0.19642 0.94214 0.0
H953 H 0.49097 0.20573 0.8989 0.0
H954 H 0.56146 0.09104 0.91444 0.0
H955 H 0.54903 0.12338 0.00973 0.0
H956 H 0.49637 0.14332 0.72516 0.0
H957 H 0.51538 0.18088 0.79284 0.0
H958 H 0.49683 0.15894 0.66105 0.0
H959 H 0.5155 0.19582 0.72754 0.0
H960 H 0.50841 0.11993 0.74485 0.0
H961 H 0.51528 0.09312 0.85512 0.0
H962 H 0.49625 0.09775 0.71112 0.0
H963 H 0.50312 0.07134 0.81935 0.0
H964 H 0.56068 0.10976 0.72386 0.0
H965 H 0.54959 0.15147 0.66048 0.0
H966 H 0.45477 0.12651 0.75273 0.0
H967 H 0.46493 0.09247 0.84541 0.0
Li968 Li 0.33856 0.51108 0.34387 0.0
Li969 Li 0.36288 0.51988 0.37032 0.0
Li970 Li 0.3552 0.52448 0.29861 0.0
Li971 Li 0.36166 0.49899 0.32206 0.0
C972 C 0.34287 0.54681 0.34067 0.0
N973 N 0.33826 0.57669 0.31854 0.0
C974 C 0.35176 0.55823 0.35828 0.0
C975 C 0.33156 0.55059 0.31206 0.0
C976 C 0.34927 0.57327 0.34663 0.0
C977 C 0.32943 0.56576 0.30119 0.0
C978 C 0.35576 0.49759 0.42007 0.0
C979 C 0.37256 0.49184 0.47712 0.0
N980 N 0.36102 0.49424 0.50438 0.0
C981 C 0.34406 0.5 0.44864 0.0
C982 C 0.37012 0.49345 0.43438 0.0
C983 C 0.34695 0.49824 0.49113 0.0
C984 C 0.31522 0.49242 0.37091 0.0
N985 N 0.31849 0.50694 0.36015 0.0
C986 C 0.29453 0.51544 0.38501 0.0
C987 C 0.30843 0.51835 0.36601 0.0
C988 C 0.29115 0.50068 0.39845 0.0
C989 C 0.30151 0.48901 0.39021 0.0
H990 H 0.32361 0.48365 0.36647 0.0
H991 H 0.31148 0.52982 0.3579 0.0
C992 C 0.38772 0.53384 0.40882 0.0
N993 N 0.37315 0.52946 0.41489 0.0
C994 C 0.3949 0.54319 0.43773 0.0
C995 C 0.37207 0.54293 0.47926 0.0
C996 C 0.36528 0.53373 0.44929 0.0
C997 C 0.38698 0.54809 0.47323 0.0
H998 H 0.39354 0.5307 0.38052 0.0
H999 H 0.35353 0.53052 0.45259 0.0
C1000 C 0.33161 0.49885 0.27269 0.0
N1001 N 0.30477 0.48538 0.24865 0.0
C1002 C 0.32985 0.48317 0.27593 0.0
C1003 C 0.31979 0.50767 0.25692 0.0
C1004 C 0.31617 0.47658 0.26367 0.0
C1005 C 0.30629 0.50065 0.24504 0.0
C1006 C 0.38772 0.51136 0.30265 0.0
C1007 C 0.39033 0.51287 0.25993 0.0
C1008 C 0.3981 0.50346 0.32728 0.0
C1009 C 0.40327 0.50633 0.24249 0.0
C1010 C 0.41088 0.49706 0.30866 0.0
N1011 N 0.41317 0.49861 0.267 0.0
C1012 C 0.36913 0.54919 0.26529 0.0
C1013 C 0.35284 0.53731 0.21647 0.0
C1014 C 0.37474 0.55882 0.23479 0.0
N1015 N 0.35858 0.53859 0.25557 0.0
C1016 C 0.35823 0.54672 0.18468 0.0
C1017 C 0.36966 0.55733 0.19359 0.0
H1018 H 0.37373 0.54965 0.29648 0.0
H1019 H 0.34468 0.52853 0.20955 0.0
C1020 C 0.37393 0.46946 0.33236 0.0
N1021 N 0.37035 0.48051 0.30464 0.0
C1022 C 0.38065 0.45605 0.31863 0.0
C1023 C 0.37954 0.4656 0.24811 0.0
C1024 C 0.37275 0.47874 0.26317 0.0
C1025 C 0.3837 0.45407 0.27599 0.0
H1026 H 0.3716 0.47107 0.36508 0.0
H1027 H 0.36958 0.48768 0.24187 0.0
O1028 O 0.34528 0.53199 0.35119 0.0
O1029 O 0.35321 0.49938 0.37833 0.0
O1030 O 0.34478 0.50556 0.28528 0.0
O1031 O 0.37495 0.51737 0.32019 0.0
H1032 H 0.36059 0.55553 0.38039 0.0
H1033 H 0.32461 0.54189 0.29804 0.0
H1034 H 0.35611 0.58222 0.35986 0.0
H1035 H 0.32078 0.56884 0.27889 0.0
H1036 H 0.38364 0.4887 0.48863 0.0
H1037 H 0.33291 0.50337 0.43826 0.0
H1038 H 0.37932 0.49163 0.41275 0.0
H1039 H 0.33802 0.50012 0.51359 0.0
H1040 H 0.28693 0.52478 0.39136 0.0
H1041 H 0.29926 0.47748 0.39993 0.0
H1042 H 0.40628 0.54709 0.43124 0.0
H1043 H 0.36556 0.54626 0.50632 0.0
H1044 H 0.33887 0.47619 0.28821 0.0
H1045 H 0.321 0.51981 0.25409 0.0
H1046 H 0.31461 0.46446 0.26622 0.0
H1047 H 0.29701 0.50734 0.23297 0.0
H1048 H 0.38238 0.51885 0.2403 0.0
H1049 H 0.39624 0.50218 0.36038 0.0
H1050 H 0.40539 0.50734 0.20944 0.0
H1051 H 0.41896 0.49083 0.32731 0.0
H1052 H 0.38339 0.56697 0.24306 0.0
H1053 H 0.35414 0.54514 0.1532 0.0
H1054 H 0.38345 0.44737 0.34114 0.0
H1055 H 0.38186 0.46469 0.2151 0.0
Li1056 Li 0.9669 0.14154 0.20397 0.0
Li1057 Li 0.9901 0.13462 0.16448 0.0
Li1058 Li 0.97912 0.15908 0.16214 0.0
Li1059 Li 0.96492 0.13864 0.1291 0.0
C1060 C 0.99667 0.16001 0.22841 0.0
N1061 N 0.01456 0.1828 0.26107 0.0
C1062 C 0.01232 0.15994 0.22183 0.0
C1063 C 0.99018 0.17152 0.25233 0.0
C1064 C 0.02115 0.1716 0.2384 0.0
C1065 C -0.00061 0.18299 0.26836 0.0
C1066 C 0.97107 0.10913 0.15233 0.0
C1067 C 0.97891 0.09267 0.09645 0.0
N1068 N 0.97166 0.08092 0.11522 0.0
C1069 C 0.96368 0.09691 0.17105 0.0
C1070 C 0.97874 0.10702 0.11469 0.0
C1071 C 0.96411 0.08274 0.15181 0.0
C1072 C 0.94403 0.12675 0.24466 0.0
N1073 N 0.95565 0.13646 0.25184 0.0
C1074 C 0.95111 0.13561 0.32506 0.0
C1075 C 0.95926 0.1411 0.29092 0.0
C1076 C 0.93928 0.12519 0.31864 0.0
C1077 C 0.93567 0.12095 0.27768 0.0
H1078 H 0.94155 0.12319 0.21318 0.0
H1079 H 0.96866 0.14875 0.29566 0.0
C1080 C 0.02093 0.12745 0.14816 0.0
N1081 N 0.00782 0.12252 0.16572 0.0
C1082 C 0.03412 0.11879 0.15149 0.0
C1083 C 0.01986 0.09993 0.18952 0.0
C1084 C 0.00709 0.10911 0.18642 0.0
C1085 C 0.03357 0.10485 0.17225 0.0
H1086 H 0.02126 0.13831 0.13273 0.0
H1087 H 0.99665 0.10565 0.20113 0.0
C1088 C 0.94409 0.15896 0.18461 0.0
N1089 N 0.91805 0.16533 0.22912 0.0
C1090 C 0.93022 0.15275 0.17242 0.0
C1091 C 0.94462 0.16869 0.21888 0.0
C1092 C 0.91721 0.15603 0.19545 0.0
C1093 C 0.93137 0.17169 0.24115 0.0
C1094 C 0.98795 0.15626 0.08204 0.0
C1095 C 0.97624 0.16579 0.0689 0.0
C1096 C 0.00228 0.15759 0.0639 0.0
C1097 C 0.97911 0.17663 0.03825 0.0
C1098 C 0.00469 0.16856 0.03327 0.0
N1099 N 0.99317 0.17779 0.02124 0.0
C1100 C -0.00085 0.18296 0.14299 0.0
C1101 C 0.97347 0.1902 0.1517 0.0
C1102 C 0.00264 0.19703 0.12579 0.0
N1103 N 0.98465 0.17967 0.15403 0.0
C1104 C 0.97648 0.20444 0.13496 0.0
C1105 C 0.99108 0.20773 0.12014 0.0
H1106 H 0.00773 0.17425 0.14426 0.0
H1107 H 0.96199 0.18716 0.15974 0.0
C1108 C 0.94061 0.12171 0.10112 0.0
N1109 N 0.95188 0.13086 0.08715 0.0
C1110 C 0.93051 0.11509 0.07325 0.0
C1111 C 0.94388 0.12728 0.01677 0.0
C1112 C 0.95381 0.13361 0.04583 0.0
C1113 C 0.93206 0.11787 0.03046 0.0
H1114 H 0.93947 0.11955 0.13411 0.0
H1115 H 0.96312 0.14054 0.03529 0.0
O1116 O 0.98783 0.14872 0.21217 0.0
O1117 O 0.97055 0.12313 0.17053 0.0
O1118 O 0.95704 0.15562 0.16298 0.0
O1119 O 0.98547 0.14595 0.11315 0.0
H1120 H 0.01759 0.15105 0.20393 0.0
H1121 H 0.97818 0.17162 0.25857 0.0
H1122 H 0.03326 0.17173 0.23323 0.0
H1123 H 0.99448 0.19202 0.28669 0.0
H1124 H 0.9848 0.09086 0.06734 0.0
H1125 H 0.95766 0.09838 0.20012 0.0
H1126 H 0.98447 0.11635 0.09963 0.0
H1127 H 0.95844 0.07317 0.16594 0.0
H1128 H 0.9542 0.13928 0.35608 0.0
H1129 H 0.92688 0.11273 0.27117 0.0
H1130 H 0.04461 0.12292 0.13822 0.0
H1131 H 0.01916 0.08933 0.20637 0.0
H1132 H 0.92947 0.14552 0.14543 0.0
H1133 H 0.95516 0.17385 0.22825 0.0
H1134 H 0.90643 0.15121 0.18649 0.0
H1135 H 0.93168 0.1791 0.26795 0.0
H1136 H 0.96509 0.16496 0.0827 0.0
H1137 H 0.01146 0.15028 0.07344 0.0
H1138 H 0.97019 0.18418 0.02812 0.0
H1139 H 0.01575 0.16977 0.01913 0.0
H1140 H 0.01403 0.19917 0.11481 0.0
H1141 H 0.9672 0.2123 0.13058 0.0
H1142 H 0.9215 0.10798 0.08512 0.0
H1143 H 0.94562 0.12947 0.98394 0.0
Li1144 Li 0.36066 0.98725 0.64986 0.0
Li1145 Li 0.35326 0.96536 0.68777 0.0
Li1146 Li 0.35336 0.96328 0.61388 0.0
Li1147 Li 0.33485 0.97903 0.65105 0.0
C1148 C 0.38389 0.96705 0.62778 0.0
N1149 N 0.41017 0.96664 0.58107 0.0
C1150 C 0.39663 0.95925 0.64214 0.0
C1151 C 0.38452 0.97464 0.58958 0.0
C1152 C 0.40981 0.95918 0.6181 0.0
C1153 C 0.39791 0.97429 0.56646 0.0
C1154 C 0.3541 0.99226 0.73245 0.0
C1155 C 0.3544 0.00836 0.7931 0.0
N1156 N 0.36901 0.0043 0.8005 0.0
C1157 C 0.36913 0.98825 0.74066 0.0
C1158 C 0.34667 0.00241 0.75885 0.0
C1159 C 0.37646 0.99446 0.77521 0.0
C1160 C 0.36633 0.0185 0.64898 0.0
N1161 N 0.37321 0.00475 0.65122 0.0
C1162 C 0.39689 0.01635 0.66746 0.0
C1163 C 0.3882 0.00348 0.66014 0.0
C1164 C 0.39005 0.03069 0.66631 0.0
C1165 C 0.37459 0.03172 0.65643 0.0
H1166 H 0.35428 0.01913 0.64319 0.0
H1167 H 0.39332 0.99248 0.66385 0.0
C1168 C 0.36861 0.94226 0.72518 0.0
N1169 N 0.35854 0.95336 0.73448 0.0
C1170 C 0.37541 0.93395 0.75679 0.0
C1171 C 0.36058 0.94796 0.8071 0.0
C1172 C 0.35408 0.95611 0.77431 0.0
C1173 C 0.37175 0.93708 0.79837 0.0
H1174 H 0.37175 0.94025 0.69314 0.0
H1175 H 0.34599 0.965 0.78072 0.0
C1176 C 0.33722 0.98942 0.57221 0.0
N1177 N 0.31573 -0.00056 0.51611 0.0
C1178 C 0.32659 0.97932 0.55581 0.0
C1179 C 0.33697 0.00459 0.55993 0.0
C1180 C 0.31579 0.98461 0.52756 0.0
C1181 C 0.326 0.00944 0.53155 0.0
C1182 C 0.33164 0.94625 0.67878 0.0
C1183 C 0.33557 0.93102 0.67406 0.0
C1184 C 0.32262 0.9507 0.71237 0.0
C1185 C 0.33048 0.92048 0.70332 0.0
C1186 C 0.31775 0.93982 0.74093 0.0
N1187 N 0.32176 0.92506 0.73588 0.0
C1188 C 0.36497 0.93682 0.58232 0.0
C1189 C 0.35599 0.9531 0.52912 0.0
C1190 C 0.37006 0.92641 0.55293 0.0
N1191 N 0.35813 0.94984 0.57003 0.0
C1192 C 0.36078 0.94291 0.49855 0.0
C1193 C 0.36805 0.9294 0.51032 0.0
H1194 H 0.36685 0.93474 0.6151 0.0
H1195 H 0.35086 0.96371 0.52011 0.0
C1196 C 0.31316 0.0018 0.64282 0.0
N1197 N 0.31495 0.98658 0.64665 0.0
C1198 C 0.29967 0.00766 0.62692 0.0
C1199 C 0.28971 0.98216 0.62348 0.0
C1200 C 0.30345 0.97678 0.63881 0.0
C1201 C 0.28799 0.99771 0.61559 0.0
H1202 H 0.32265 0.00925 0.64866 0.0
H1203 H 0.30537 0.96472 0.64113 0.0
O1204 O 0.37086 0.96697 0.65087 0.0
O1205 O 0.34662 0.98652 0.69859 0.0
O1206 O 0.34762 0.98453 0.60079 0.0
O1207 O 0.33682 0.95682 0.65113 0.0
H1208 H 0.39634 0.95331 0.67162 0.0
H1209 H 0.37483 0.98074 0.57779 0.0
H1210 H 0.41975 0.95319 0.62888 0.0
H1211 H 0.39856 0.98011 0.53686 0.0
H1212 H 0.34878 0.01623 0.81378 0.0
H1213 H 0.37511 0.98044 0.72072 0.0
H1214 H 0.33505 0.00566 0.75286 0.0
H1215 H 0.38808 0.99144 0.7819 0.0
H1216 H 0.40867 0.01501 0.67612 0.0
H1217 H 0.3689 0.04257 0.65542 0.0
H1218 H 0.38379 0.92546 0.74887 0.0
H1219 H 0.35751 0.95066 0.83889 0.0
H1220 H 0.32655 0.96756 0.56532 0.0
H1221 H 0.34513 0.01255 0.5723 0.0
H1222 H 0.30741 0.97695 0.51489 0.0
H1223 H 0.32563 0.02117 0.52188 0.0
H1224 H 0.34252 0.92739 0.6482 0.0
H1225 H 0.31958 0.96248 0.71659 0.0
H1226 H 0.33348 0.90866 0.70017 0.0
H1227 H 0.31084 0.94311 0.76722 0.0
H1228 H 0.37593 0.91636 0.56355 0.0
H1229 H 0.35891 0.94567 0.46611 0.0
H1230 H 0.29873 0.01971 0.62117 0.0
H1231 H 0.28105 0.97412 0.61448 0.0
Li1232 Li 0.5082 0.36325 0.15178 0.0
Li1233 Li 0.53115 0.36263 0.19595 0.0
Li1234 Li 0.53408 0.36259 0.12184 0.0
Li1235 Li 0.52397 0.34139 0.15555 0.0
C1236 C 0.52692 0.39124 0.133 0.0
N1237 N 0.5324 0.41605 0.08273 0.0
C1238 C 0.53545 0.40341 0.14795 0.0
C1239 C 0.521 0.3918 0.09262 0.0
C1240 C 0.53813 0.41583 0.12202 0.0
C1241 C 0.52395 0.40441 0.06765 0.0
C1242 C 0.50373 0.35545 0.23433 0.0
C1243 C 0.48741 0.35071 0.29312 0.0
N1244 N 0.48616 0.36589 0.29949 0.0
C1245 C 0.50228 0.37101 0.24148 0.0
C1246 C 0.49623 0.34522 0.26033 0.0
C1247 C 0.49334 0.37605 0.27457 0.0
C1248 C 0.47671 0.36109 0.1618 0.0
N1249 N 0.48802 0.37061 0.14989 0.0
C1250 C 0.47097 0.39155 0.1488 0.0
C1251 C 0.48538 0.38554 0.14284 0.0
C1252 C 0.45923 0.38215 0.16296 0.0
C1253 C 0.46213 0.36667 0.16873 0.0
H1254 H 0.47922 0.34932 0.16809 0.0
H1255 H 0.49459 0.393 0.13487 0.0
C1256 C 0.5516 0.38063 0.23608 0.0
N1257 N 0.54059 0.37034 0.24438 0.0
C1258 C 0.55866 0.3884 0.26837 0.0
C1259 C 0.54375 0.37399 0.31757 0.0
C1260 C 0.53682 0.36658 0.28413 0.0
C1261 C 0.55454 0.38531 0.30966 0.0
H1262 H 0.5547 0.38295 0.20417 0.0
H1263 H 0.5283 0.35806 0.28992 0.0
C1264 C 0.51193 0.33961 0.07974 0.0
N1265 N 0.50418 0.31477 0.03199 0.0
C1266 C 0.52289 0.33231 0.0556 0.0
C1267 C 0.49699 0.33441 0.07917 0.0
C1268 C 0.51876 0.31974 0.03177 0.0
C1269 C 0.4933 0.3218 0.05493 0.0
C1270 C 0.55311 0.34104 0.1886 0.0
C1271 C 0.56868 0.33961 0.18197 0.0
C1272 C 0.54638 0.33369 0.22245 0.0
C1273 C 0.57729 0.33081 0.20928 0.0
C1274 C 0.55538 0.325 0.24907 0.0
N1275 N 0.57052 0.32375 0.24199 0.0
C1276 C 0.56022 0.3764 0.09315 0.0
C1277 C 0.54389 0.36848 0.03873 0.0
C1278 C 0.57049 0.38229 0.06449 0.0
N1279 N 0.54724 0.36973 0.07985 0.0
C1280 C 0.55391 0.37412 0.0089 0.0
C1281 C 0.56741 0.38119 0.02167 0.0
H1282 H 0.56248 0.37728 0.12617 0.0
H1283 H 0.53339 0.36323 0.02913 0.0
C1284 C 0.50959 0.31294 0.15708 0.0
N1285 N 0.52305 0.32006 0.15097 0.0
C1286 C 0.50751 0.29817 0.14264 0.0
C1287 C 0.53355 0.29806 0.1192 0.0
C1288 C 0.5351 0.31281 0.13384 0.0
C1289 C 0.51944 0.29079 0.12197 0.0
H1290 H 0.50016 0.31913 0.1702 0.0
H1291 H 0.54551 0.31891 0.12827 0.0
O1292 O 0.52447 0.37878 0.15749 0.0
O1293 O 0.51215 0.35011 0.20168 0.0
O1294 O 0.51582 0.35176 0.10393 0.0
O1295 O 0.54465 0.34975 0.1621 0.0
H1296 H 0.53989 0.40335 0.17931 0.0
H1297 H 0.51433 0.3825 0.08056 0.0
H1298 H 0.54475 0.4253 0.13317 0.0
H1299 H 0.51954 0.40491 0.03625 0.0
H1300 H 0.48154 0.34292 0.31347 0.0
H1301 H 0.50795 0.37914 0.2218 0.0
H1302 H 0.49719 0.33315 0.2551 0.0
H1303 H 0.49211 0.38805 0.28041 0.0
H1304 H 0.46927 0.40361 0.14492 0.0
H1305 H 0.45337 0.35909 0.17981 0.0
H1306 H 0.5672 0.39681 0.26113 0.0
H1307 H 0.54038 0.37125 0.34911 0.0
H1308 H 0.53454 0.33613 0.0559 0.0
H1309 H 0.48836 0.33996 0.09753 0.0
H1310 H 0.52716 0.31387 0.01332 0.0
H1311 H 0.48181 0.31756 0.05447 0.0
H1312 H 0.57405 0.34527 0.15596 0.0
H1313 H 0.53438 0.33464 0.22825 0.0
H1314 H 0.58935 0.3296 0.2045 0.0
H1315 H 0.55033 0.31926 0.27537 0.0
H1316 H 0.58059 0.38788 0.07583 0.0
H1317 H 0.55113 0.37288 0.97624 0.0
H1318 H 0.49649 0.29291 0.14565 0.0
H1319 H 0.54296 0.29292 0.10287 0.0
Li1320 Li 0.1446 0.53357 0.70283 0.0
Li1321 Li 0.134 0.51142 0.67187 0.0
Li1322 Li 0.15891 0.51945 0.6536 0.0
Li1323 Li 0.13762 0.53389 0.63025 0.0
C1324 C 0.16408 0.51212 0.73564 0.0
N1325 N 0.18857 0.51141 0.78919 0.0
C1326 C 0.16653 0.49952 0.76109 0.0
C1327 C 0.17408 0.52437 0.7375 0.0
C1328 C 0.17898 0.49937 0.78795 0.0
C1329 C 0.1864 0.52379 0.76474 0.0
C1330 C 0.11351 0.5314 0.70934 0.0
C1331 C 0.09056 0.54149 0.73911 0.0
N1332 N 0.09255 0.53255 0.77315 0.0
C1333 C 0.11532 0.5223 0.74462 0.0
C1334 C 0.10103 0.54108 0.70653 0.0
C1335 C 0.1046 0.52304 0.77652 0.0
C1336 C 0.13701 0.55978 0.74197 0.0
N1337 N 0.14307 0.54599 0.75044 0.0
C1338 C 0.13779 0.54886 0.82288 0.0
C1339 C 0.14399 0.54057 0.79001 0.0
C1340 C 0.13036 0.56254 0.81435 0.0
C1341 C 0.13046 0.56829 0.77369 0.0
H1342 H 0.13605 0.56351 0.71 0.0
H1343 H 0.14828 0.5293 0.79566 0.0
C1344 C 0.12808 0.48172 0.69733 0.0
N1345 N 0.1215 0.49439 0.68161 0.0
C1346 C 0.11922 0.46923 0.70801 0.0
C1347 C 0.09706 0.48297 0.68491 0.0
C1348 C 0.10633 0.4952 0.67496 0.0
C1349 C 0.10345 0.46983 0.70227 0.0
H1350 H 0.14019 0.48146 0.70239 0.0
H1351 H 0.10137 0.50546 0.66273 0.0
C1352 C 0.16491 0.54886 0.62576 0.0
N1353 N 0.18198 0.56306 0.56514 0.0
C1354 C 0.16721 0.54188 0.5872 0.0
C1355 C 0.17128 0.56307 0.63345 0.0
C1356 C 0.17588 0.54924 0.55698 0.0
C1357 C 0.17987 0.57007 0.60241 0.0
C1358 C 0.13249 0.50716 0.58671 0.0
C1359 C 0.13704 0.49634 0.55752 0.0
C1360 C 0.11752 0.51232 0.58658 0.0
C1361 C 0.12652 0.49081 0.52882 0.0
C1362 C 0.10734 0.50651 0.55738 0.0
N1363 N 0.11201 0.49596 0.52935 0.0
C1364 C 0.1778 0.49862 0.61645 0.0
C1365 C 0.19083 0.52052 0.63979 0.0
C1366 C 0.19064 0.49358 0.59543 0.0
N1367 N 0.178 0.5121 0.63676 0.0
C1368 C 0.20396 0.5159 0.61924 0.0
C1369 C 0.20376 0.50253 0.5955 0.0
H1370 H 0.16742 0.49215 0.61493 0.0
H1371 H 0.19063 0.53124 0.65602 0.0
C1372 C 0.12164 0.5589 0.60142 0.0
N1373 N 0.12972 0.54673 0.5883 0.0
C1374 C 0.1157 0.56912 0.57262 0.0
C1375 C 0.12674 0.55416 0.51732 0.0
C1376 C 0.13238 0.54418 0.54721 0.0
C1377 C 0.11824 0.56683 0.52989 0.0
H1378 H 0.11984 0.56067 0.63437 0.0
H1379 H 0.13897 0.53447 0.53764 0.0
O1380 O 0.15193 0.5123 0.70918 0.0
O1381 O 0.12414 0.53132 0.67831 0.0
O1382 O 0.15647 0.54195 0.65604 0.0
O1383 O 0.14275 0.51266 0.61488 0.0
H1384 H 0.15888 0.48995 0.76011 0.0
H1385 H 0.17237 0.53428 0.71837 0.0
H1386 H 0.18101 0.48969 0.80781 0.0
H1387 H 0.19422 0.5332 0.76648 0.0
H1388 H 0.08087 0.54897 0.73741 0.0
H1389 H 0.12499 0.51487 0.74762 0.0
H1390 H 0.0995 0.54826 0.67955 0.0
H1391 H 0.10591 0.51611 0.80405 0.0
H1392 H 0.13765 0.54404 0.85388 0.0
H1393 H 0.12471 0.57877 0.76617 0.0
H1394 H 0.1246 0.45941 0.72174 0.0
H1395 H 0.085 0.48384 0.67933 0.0
H1396 H 0.16243 0.53088 0.58064 0.0
H1397 H 0.16959 0.56862 0.66314 0.0
H1398 H 0.17777 0.54395 0.52705 0.0
H1399 H 0.18487 0.58107 0.60795 0.0
H1400 H 0.1486 0.49228 0.55698 0.0
H1401 H 0.11376 0.52076 0.60862 0.0
H1402 H 0.1299 0.48242 0.50609 0.0
H1403 H 0.09572 0.5104 0.55698 0.0
H1404 H 0.19012 0.4831 0.57797 0.0
H1405 H 0.21382 0.52319 0.61977 0.0
H1406 H 0.10906 0.5786 0.58372 0.0
H1407 H 0.12917 0.55206 0.48479 0.0
H1408 H 0.04082 0.71084 0.03994 0.0
H1409 H 0.99422 0.72195 0.06629 0.0
H1410 H 0.04183 0.73088 0.98798 0.0
H1411 H 0.99533 0.74258 0.01577 0.0
H1412 H 0.99709 0.77051 0.89884 0.0
H1413 H 0.99637 0.74837 0.94439 0.0
H1414 H 0.04272 0.7571 0.98106 0.0
H1415 H 0.04353 0.77867 0.93414 0.0
C1416 C 0.03088 0.71781 0.03505 0.0
C1417 C 0.01749 0.71501 0.05726 0.0
C1418 C 0.03143 0.7293 0.00531 0.0
C1419 C 0.01867 0.73841 0.99758 0.0
C1420 C 0.00529 0.73563 0.02021 0.0
C1421 C 0.00467 0.72394 0.04948 0.0
C1422 C 0.00717 0.76745 0.91617 0.0
C1423 C 0.02039 0.77617 0.91287 0.0
C1424 C 0.00673 0.75489 0.9426 0.0
C1425 C 0.01944 0.75099 0.96684 0.0
C1426 C 0.03279 0.75955 0.96248 0.0
C1427 C 0.03328 0.77193 0.93557 0.0
H1428 H 0.72099 0.99369 0.4235 0.0
H1429 H 0.71387 0.04096 0.45106 0.0
H1430 H 0.743 0.99341 0.46955 0.0
H1431 H 0.73529 0.04063 0.49866 0.0
H1432 H 0.78272 0.03924 0.55166 0.0
H1433 H 0.76152 0.03957 0.50334 0.0
H1434 H 0.74987 0.99388 0.54006 0.0
H1435 H 0.77168 0.99342 0.58686 0.0
C1436 C 0.72419 0.00401 0.43948 0.0
C1437 C 0.71589 0.01737 0.43355 0.0
C1438 C 0.73668 0.00384 0.46619 0.0
C1439 C 0.74093 0.01698 0.48812 0.0
C1440 C 0.73259 0.03037 0.48179 0.0
C1441 C 0.72029 0.03058 0.45455 0.0
C1442 C 0.7755 0.02935 0.54961 0.0
C1443 C 0.77871 0.01634 0.57307 0.0
C1444 C 0.76332 0.02952 0.52198 0.0
C1445 C 0.75391 0.01675 0.51767 0.0
C1446 C 0.75703 0.00382 0.54186 0.0
C1447 C 0.7694 0.00357 0.56899 0.0
H1448 H 0.50036 0.77226 0.07134 0.0
H1449 H 0.45361 0.78258 0.04443 0.0
H1450 H 0.49961 0.75149 0.02121 0.0
H1451 H 0.45294 0.76236 0.99302 0.0
H1452 H 0.45236 0.71501 0.93634 0.0
H1453 H 0.45268 0.73606 0.98516 0.0
H1454 H 0.49879 0.74628 0.94931 0.0
H1455 H 0.49857 0.7247 0.90177 0.0
C1456 C 0.48994 0.77005 0.0546 0.0
C1457 C 0.477 0.77886 0.06196 0.0
C1458 C 0.48952 0.75827 0.02557 0.0
C1459 C 0.47623 0.75526 0.00279 0.0
C1460 C 0.46329 0.76413 0.01042 0.0
C1461 C 0.46365 0.77572 0.03989 0.0
C1462 C 0.46245 0.72195 0.93843 0.0
C1463 C 0.47542 0.71831 0.91528 0.0
C1464 C 0.46267 0.73402 0.96644 0.0
C1465 C 0.4758 0.74286 0.97149 0.0
C1466 C 0.4886 0.73952 0.947 0.0
C1467 C 0.48844 0.72729 0.91944 0.0
H1468 H 0.71868 0.46115 0.55342 0.0
H1469 H 0.72369 0.50952 0.56776 0.0
H1470 H 0.73973 0.46087 0.50431 0.0
H1471 H 0.74466 0.50927 0.51795 0.0
H1472 H 0.79243 0.49706 0.46492 0.0
H1473 H 0.77118 0.49899 0.51293 0.0
H1474 H 0.74436 0.47061 0.43201 0.0
H1475 H 0.76553 0.46889 0.38337 0.0
C1476 C 0.72441 0.47169 0.54645 0.0
C1477 C 0.71961 0.48535 0.56453 0.0
C1478 C 0.73631 0.47156 0.51791 0.0
C1479 C 0.74371 0.48507 0.50706 0.0
C1480 C 0.73916 0.49869 0.52584 0.0
C1481 C 0.72715 0.49885 0.55417 0.0
C1482 C 0.78189 0.49152 0.45679 0.0
C1483 C 0.78068 0.48281 0.42026 0.0
C1484 C 0.76975 0.49258 0.48444 0.0
C1485 C 0.75619 0.48485 0.47634 0.0
C1486 C 0.7548 0.47648 0.43933 0.0
C1487 C 0.7669 0.47551 0.4115 0.0
H1488 H 0.96557 0.28178 0.96725 0.0
H1489 H 0.01123 0.27381 0.92404 0.0
H1490 H 0.96879 0.2625 0.02032 0.0
H1491 H 0.01472 0.25491 0.97876 0.0
H1492 H 0.00563 0.20888 0.0456 0.0
H1493 H 0.00584 0.22972 0.99607 0.0
H1494 H 0.98201 0.25779 0.08471 0.0
H1495 H 0.98159 0.23677 0.1341 0.0
C1496 C 0.97628 0.27585 0.96892 0.0
C1497 C 0.98809 0.27922 0.94109 0.0
C1498 C 0.97823 0.26498 -9e-05 0.0
C1499 C 0.99206 0.25727 0.00406 0.0
C1500 C 0.0039 0.26062 0.97626 0.0
C1501 C 0.00194 0.2715 0.9451 0.0
C1502 C 0.00079 0.21963 0.05493 0.0
C1503 C 0.99353 0.22121 0.09364 0.0
C1504 C 0.00089 0.23157 0.02649 0.0
C1505 C 0.99377 0.24535 0.03624 0.0
C1506 C 0.9873 0.2472 0.07594 0.0
C1507 C 0.98713 0.23522 0.1043 0.0
H1508 H 0.25794 0.99121 0.62493 0.0
H1509 H 0.28943 0.01549 0.54668 0.0
H1510 H 0.23791 0.99538 0.57359 0.0
H1511 H 0.26944 0.01956 0.49529 0.0
H1512 H 0.23722 0.99495 0.39685 0.0
H1513 H 0.25658 -0.00107 0.45025 0.0
H1514 H 0.22243 0.01579 0.53455 0.0
H1515 H 0.20309 0.01186 0.48113 0.0
C1516 C 0.26045 0.99775 0.59724 0.0
C1517 C 0.27521 0.00296 0.58964 0.0
C1518 C 0.24901 0.00019 0.56799 0.0
C1519 C 0.25222 0.00769 0.53043 0.0
C1520 C 0.26674 0.01368 0.52394 0.0
C1521 C 0.27812 0.01144 0.55347 0.0
C1522 C 0.23395 -0.00022 0.42651 0.0
C1523 C 0.21871 0.00309 0.43496 0.0
C1524 C 0.24499 0.00215 0.45691 0.0
C1525 C 0.24094 0.00765 0.49645 0.0
C1526 C 0.2258 0.01153 0.50431 0.0
C1527 C 0.21479 0.00937 0.4737 0.0
H1528 H 0.53621 0.22357 0.93841 0.0
H1529 H 0.49013 0.21272 0.97268 0.0
H1530 H 0.5365 0.24382 0.98982 0.0
H1531 H 0.49038 0.23326 0.02373 0.0
H1532 H 0.49495 0.28335 0.07417 0.0
H1533 H 0.49252 0.2619 0.0268 0.0
H1534 H 0.53585 0.24494 0.06808 0.0
H1535 H 0.53822 0.26626 0.11595 0.0
C1536 C 0.52613 0.22552 0.95689 0.0
C1537 C 0.5132 0.21644 0.95171 0.0
C1538 C 0.52632 0.23709 0.98639 0.0
C1539 C 0.51354 0.23993 0.01119 0.0
C1540 C 0.50038 0.23129 0.00498 0.0
C1541 C 0.50022 0.21961 0.97559 0.0
C1542 C 0.50376 0.27482 0.07405 0.0
C1543 C 0.51682 0.27653 0.09868 0.0
C1544 C 0.50239 0.26259 0.04673 0.0
C1545 C 0.5141 0.25191 0.04335 0.0
C1546 C 0.5268 0.2532 0.06949 0.0
C1547 C 0.52813 0.26536 0.09694 0.0
H1548 H 0.26228 0.51085 0.38614 0.0
H1549 H 0.2898 0.48447 0.47046 0.0
H1550 H 0.24091 0.50877 0.43409 0.0
H1551 H 0.26836 0.48215 0.51799 0.0
H1552 H 0.23411 0.50385 0.61249 0.0
H1553 H 0.25496 0.50097 0.56311 0.0
H1554 H 0.223 0.49019 0.4657 0.0
H1555 H 0.20217 0.49339 0.5147 0.0
C1556 C 0.26367 0.50443 0.41464 0.0
C1557 C 0.27767 0.49785 0.42463 0.0
C1558 C 0.25144 0.50314 0.4419 0.0
C1559 C 0.25302 0.49533 0.47979 0.0
C1560 C 0.26688 0.48832 0.48913 0.0
C1561 C 0.27908 0.48952 0.46173 0.0
C1562 C 0.23158 0.50072 0.58063 0.0
C1563 C 0.21654 0.49887 0.56743 0.0
C1564 C 0.2435 0.49895 0.55247 0.0
C1565 C 0.24056 0.49542 0.51056 0.0
C1566 C 0.22556 0.49304 0.49775 0.0
C1567 C 0.21366 0.49471 0.52592 0.0
H1568 H 0.05817 0.60907 0.94504 0.0
H1569 H 0.08594 0.59038 0.04334 0.0
H1570 H 0.07568 0.59931 0.89365 0.0
H1571 H 0.10268 0.57936 0.9917 0.0
H1572 H 0.13835 0.57344 0.8909 0.0
H1573 H 0.12159 0.58472 0.94307 0.0
H1574 H 0.0833 0.57719 0.86143 0.0
H1575 H 0.10023 0.56686 0.80897 0.0
C1576 C 0.06796 0.60283 0.9558 0.0
C1577 C 0.07059 0.60058 -0.00147 0.0
C1578 C 0.07792 0.59699 0.92616 0.0
C1579 C 0.09063 0.58845 0.93834 0.0
C1580 C 0.09317 0.58605 0.98105 0.0
C1581 C 0.08336 0.59214 0.01075 0.0
C1582 C 0.12635 0.57439 0.88431 0.0
C1583 C 0.12054 0.56955 0.84599 0.0
C1584 C 0.11671 0.5807 0.9142 0.0
C1585 C 0.10103 0.58194 0.90655 0.0
C1586 C 0.09531 0.57682 0.86817 0.0
C1587 C 0.10497 0.57083 0.83812 0.0
H1588 H 0.95157 0.11564 0.39239 0.0
H1589 H 0.90923 0.11788 0.3251 0.0
H1590 H 0.9393 0.10105 0.44703 0.0
H1591 H 0.89722 0.10245 0.37828 0.0
H1592 H 0.87658 0.08339 0.49605 0.0
H1593 H 0.88837 0.10115 0.44774 0.0
H1594 H 0.93024 0.07589 0.45531 0.0
H1595 H 0.91852 0.05848 0.50462 0.0
C1596 C 0.9396 0.11319 0.38946 0.0
C1597 C 0.93142 0.11784 0.35416 0.0
C1598 C 0.93262 0.1046 0.42049 0.0
C1599 C 0.91732 0.10035 0.41679 0.0
C1600 C 0.90899 0.10556 0.38235 0.0
C1601 C 0.91594 0.11426 0.35154 0.0
C1602 C 0.88829 0.08165 0.48715 0.0
C1603 C 0.89665 0.06956 0.50381 0.0
C1604 C 0.89505 0.0918 0.45951 0.0
C1605 C 0.91027 0.08998 0.44763 0.0
C1606 C 0.9186 0.07784 0.4644 0.0
C1607 C 0.91188 0.06779 0.4924 0.0
H1608 H 0.40829 0.90333 0.03265 0.0
H1609 H 0.43903 0.88715 0.9378 0.0
H1610 H 0.39294 0.9155 0.97937 0.0
H1611 H 0.42315 0.89843 0.88442 0.0
H1612 H 0.40224 0.93481 0.80409 0.0
H1613 H 0.41706 0.92278 0.85855 0.0
H1614 H 0.37582 0.91068 0.92309 0.0
H1615 H 0.36098 0.92324 0.86872 0.0
C1616 C 0.41179 0.90236 0.00045 0.0
C1617 C 0.42498 0.89436 0.98957 0.0
C1618 C 0.40284 0.90915 0.96983 0.0
C1619 C 0.40682 0.90799 0.9276 0.0
C1620 C 0.41987 0.89977 0.91671 0.0
C1621 C 0.42889 0.89311 0.94731 0.0
C1622 C 0.39635 0.9295 0.82984 0.0
C1623 C 0.38048 0.9298 0.83211 0.0
C1624 C 0.40483 0.92255 0.86098 0.0
C1625 C 0.39764 0.9156 0.895 0.0
C1626 C 0.38172 0.91605 0.89751 0.0
C1627 C 0.37322 0.92317 0.86641 0.0
H1628 H 0.56713 0.3749 0.38196 0.0
H1629 H 0.55693 0.41589 0.31441 0.0
H1630 H 0.57936 0.38983 0.4365 0.0
H1631 H 0.56862 0.43088 0.36927 0.0
H1632 H 0.60543 0.45183 0.44858 0.0
H1633 H 0.59287 0.43663 0.39588 0.0
H1634 H 0.57509 0.40725 0.49177 0.0
H1635 H 0.58853 0.42185 0.54429 0.0
C1636 C 0.56735 0.38712 0.37914 0.0
C1637 C 0.56124 0.39426 0.34392 0.0
C1638 C 0.5743 0.39569 0.41038 0.0
C1639 C 0.57508 0.41157 0.40718 0.0
C1640 C 0.56856 0.41867 0.37233 0.0
C1641 C 0.5618 0.4101 0.34097 0.0
C1642 C 0.59899 0.44203 0.45844 0.0
C1643 C 0.59803 0.43807 0.50073 0.0
C1644 C 0.59159 0.43342 0.42822 0.0
C1645 C 0.5829 0.42073 0.43953 0.0
C1646 C 0.58182 0.41684 0.48186 0.0
C1647 C 0.58935 0.42537 0.51208 0.0
H1648 H 0.10651 0.92206 0.20261 0.0
H1649 H 0.14714 0.91578 0.12977 0.0
H1650 H 0.09182 0.90912 0.14982 0.0
H1651 H 0.13235 0.90246 0.07657 0.0
H1652 H 0.09669 0.89758 0.97115 0.0
H1653 H 0.11334 0.90788 0.02452 0.0
H1654 H 0.08721 0.885 0.11932 0.0
H1655 H 0.07003 0.8755 0.06633 0.0
C1656 C 0.11237 0.91758 0.17565 0.0
C1657 C 0.12802 0.91976 0.17056 0.0
C1658 C 0.10393 0.91014 0.14533 0.0
C1659 C 0.11091 0.90462 0.10909 0.0
C1660 C 0.12661 0.90669 0.10401 0.0
C1661 C 0.13509 0.91426 0.13443 0.0
C1662 C 0.09442 0.89484 0.00342 0.0
C1663 C 0.08188 0.88587 0.01446 0.0
C1664 C 0.10412 0.90055 0.03398 0.0
C1665 C 0.10156 0.89735 0.07624 0.0
C1666 C 0.08937 0.8879 0.0871 0.0
C1667 C 0.07961 0.88229 0.05662 0.0
H1668 H 0.54936 0.12914 0.60498 0.0
H1669 H 0.58538 0.11966 0.69198 0.0
H1670 H 0.56359 0.11638 0.54991 0.0
H1671 H 0.59977 0.10719 0.63698 0.0
H1672 H 0.60729 0.06625 0.55146 0.0
H1673 H 0.59602 0.08313 0.6025 0.0
H1674 H 0.58608 0.11552 0.50541 0.0
H1675 H 0.5974 0.0985 0.45405 0.0
C1676 C 0.56052 0.12471 0.61193 0.0
C1677 C 0.56623 0.12519 0.6527 0.0
C1678 C 0.56867 0.1174 0.58047 0.0
C1679 C 0.58269 0.11054 0.58931 0.0
C1680 C 0.58884 0.11203 0.62946 0.0
C1681 C 0.58066 0.11924 0.66086 0.0
C1682 C 0.60291 0.07706 0.54105 0.0
C1683 C 0.60324 0.08104 0.49874 0.0
C1684 C 0.59648 0.08677 0.57033 0.0
C1685 C 0.59024 0.10073 0.55805 0.0
C1686 C 0.59068 0.10479 0.51577 0.0
C1687 C 0.59712 0.09504 0.4864 0.0
H1688 H 0.3999 0.56157 0.18416 0.0
H1689 H 0.35691 0.57193 0.12661 0.0
H1690 H 0.41299 0.57549 0.12994 0.0
H1691 H 0.37013 0.58606 0.07185 0.0
H1692 H 0.40237 0.59413 0.95865 0.0
H1693 H 0.38745 0.58173 0.01281 0.0
H1694 H 0.41644 0.60135 0.10681 0.0
H1695 H 0.43172 0.61313 0.05283 0.0
C1696 C 0.39322 0.56703 0.16018 0.0
C1697 C 0.37735 0.56585 0.15996 0.0
C1698 C 0.40073 0.57503 0.12909 0.0
C1699 C 0.39259 0.58205 0.0969 0.0
C1700 C 0.37671 0.58071 0.09621 0.0
C1701 C 0.36915 0.57265 0.12748 0.0
C1702 C 0.40558 0.59573 0.99089 0.0
C1703 C 0.41832 0.6045 0.00141 0.0
C1704 C 0.39692 0.58879 0.02191 0.0
C1705 C 0.40084 0.59047 0.06404 0.0
C1706 C 0.41327 0.59965 0.07457 0.0
C1707 C 0.42193 0.60655 0.04363 0.0
H1708 H 0.94838 0.36214 0.5869 0.0
H1709 H 0.90572 0.36264 0.65269 0.0
H1710 H 0.93652 0.37494 0.52809 0.0
H1711 H 0.89407 0.37611 0.59504 0.0
H1712 H 0.87429 0.39542 0.47829 0.0
H1713 H 0.88565 0.37665 0.52456 0.0
H1714 H 0.92834 0.40051 0.51794 0.0
H1715 H 0.91704 0.41899 0.47109 0.0
C1716 C 0.9364 0.36468 0.58846 0.0
C1717 C 0.92803 0.36155 0.62466 0.0
C1718 C 0.92965 0.37222 0.55499 0.0
C1719 C 0.91441 0.37682 0.55712 0.0
C1720 C 0.9058 0.37271 0.59216 0.0
C1721 C 0.91252 0.36511 0.62546 0.0
C1722 C 0.88612 0.39657 0.48667 0.0
C1723 C 0.89477 0.40871 0.4714 0.0
C1724 C 0.89263 0.38583 0.51311 0.0
C1725 C 0.9079 0.38708 0.5251 0.0
C1726 C 0.91663 0.39902 0.5088 0.0
C1727 C 0.91014 0.40968 0.48212 0.0
H1728 H 0.93363 0.41455 0.97362 0.0
H1729 H 0.90712 0.37352 0.98243 0.0
H1730 H 0.91606 0.42719 0.02072 0.0
H1731 H 0.88977 0.38613 0.03024 0.0
H1732 H 0.87763 0.409 0.15714 0.0
H1733 H 0.8919 0.39613 0.10301 0.0
H1734 H 0.88887 0.43585 0.02511 0.0
H1735 H 0.87418 0.44872 0.079 0.0
C1736 C 0.92398 0.40827 0.9852 0.0
C1737 C 0.92185 0.39299 0.9744 0.0
C1738 C 0.91392 0.41553 0.01215 0.0
C1739 C 0.90156 0.40763 0.02909 0.0
C1740 C 0.8993 0.39243 0.01795 0.0
C1741 C 0.90929 0.3852 0.99077 0.0
C1742 C 0.87959 0.41489 0.12807 0.0
C1743 C 0.87473 0.42992 0.12248 0.0
C1744 C 0.88785 0.40751 0.09711 0.0
C1745 C 0.89155 0.41503 0.05999 0.0
C1746 C 0.88632 0.42988 0.05371 0.0
C1747 C 0.87793 0.43723 0.08457 0.0
H1748 H 0.09039 0.89037 0.69441 0.0
H1749 H 0.05543 0.88109 0.60367 0.0
H1750 H 0.10312 0.90681 0.64463 0.0
H1751 H 0.06805 0.89788 0.55425 0.0
H1752 H 0.08481 0.9436 0.5019 0.0
H1753 H 0.07294 0.92599 0.55042 0.0
H1754 H 0.11647 0.90568 0.57547 0.0
H1755 H 0.12835 0.92301 0.52624 0.0
C1756 C 0.08555 0.89159 0.66361 0.0
C1757 C 0.07188 0.88437 0.65303 0.0
C1758 C 0.09282 0.9011 0.6352 0.0
C1759 C 0.08651 0.90369 0.59573 0.0
C1760 C 0.07303 0.89625 0.58475 0.0
C1761 C 0.06582 0.88664 0.61303 0.0
C1762 C 0.09185 0.93531 0.5175 0.0
C1763 C 0.10753 0.93472 0.51008 0.0
C1764 C 0.08504 0.92523 0.54525 0.0
C1765 C 0.09378 0.91442 0.56647 0.0
C1766 C 0.10949 0.91398 0.55975 0.0
C1767 C 0.11629 0.92398 0.53173 0.0
H1768 H 0.62592 0.05174 0.09054 0.0
H1769 H 0.61136 0.08508 0.1805 0.0
H1770 H 0.60967 0.06348 0.03804 0.0
H1771 H 0.59526 0.09676 0.12831 0.0
H1772 H 0.57655 0.12148 0.01618 0.0
H1773 H 0.59542 0.11088 0.06325 0.0
H1774 H 0.58224 0.06573 0.02631 0.0
H1775 H 0.56336 0.07634 0.97912 0.0
C1776 C 0.61937 0.06164 0.09898 0.0
C1777 C 0.61999 0.06751 0.13962 0.0
C1778 C 0.61004 0.06833 0.069 0.0
C1779 C 0.60114 0.08101 0.07908 0.0
C1780 C 0.60214 0.08714 0.11934 0.0
C1781 C 0.61143 0.08047 0.14925 0.0
C1782 C 0.57761 0.10929 0.01833 0.0
C1783 C 0.56837 0.09974 0.99422 0.0
C1784 C 0.58845 0.10322 0.04517 0.0
C1785 C 0.59031 0.08747 0.04855 0.0
C1786 C 0.58125 0.07792 0.02395 0.0
C1787 C 0.57039 0.08399 0.99704 0.0
H1788 H 0.37311 0.57177 0.51314 0.0
H1789 H 0.4166 0.54983 0.49882 0.0
H1790 H 0.38456 0.59037 0.5595 0.0
H1791 H 0.42806 0.56881 0.54411 0.0
H1792 H 0.44509 0.61505 0.59126 0.0
H1793 H 0.433 0.59749 0.54283 0.0
H1794 H 0.39699 0.58992 0.63124 0.0
H1795 H 0.40923 0.60697 0.68026 0.0
C1796 C 0.38507 0.57079 0.52014 0.0
C1797 C 0.39391 0.55921 0.50233 0.0
C1798 C 0.39162 0.58153 0.54645 0.0
C1799 C 0.40719 0.58106 0.55513 0.0
C1800 C 0.41607 0.56956 0.53737 0.0
C1801 C 0.40948 0.5587 0.51144 0.0
C1802 C 0.43461 0.60965 0.60043 0.0
C1803 C 0.42817 0.61246 0.63975 0.0
C1804 C 0.4277 0.59961 0.57268 0.0
C1805 C 0.41411 0.59233 0.58344 0.0
C1806 C 0.40739 0.59551 0.62202 0.0
C1807 C 0.41437 0.60538 0.64997 0.0
H1808 H 0.88627 0.08731 0.8076 0.0
H1809 H 0.86366 0.06291 0.90614 0.0
H1810 H 0.90132 0.10089 0.85885 0.0
H1811 H 0.87861 0.07668 0.95774 0.0
H1812 H 0.92194 0.0887 0.02974 0.0
H1813 H 0.90467 0.07693 0.98032 0.0
H1814 H 0.90084 0.11936 0.91405 0.0
H1815 H 0.91832 0.13107 0.96336 0.0
C1816 C 0.88425 0.08513 0.84032 0.0
C1817 C 0.87376 0.07408 0.85291 0.0
C1818 C 0.8929 0.0929 0.86973 0.0
C1819 C 0.89122 0.08983 0.9124 0.0
C1820 C 0.88036 0.07912 0.92505 0.0
C1821 C 0.87175 0.07129 0.89559 0.0
C1822 C 0.91729 0.09554 0.00483 0.0
C1823 C 0.92148 0.1108 0.00038 0.0
C1824 C 0.90735 0.08882 0.97659 0.0
C1825 C 0.90131 0.09722 0.94333 0.0
C1826 C 0.90543 0.11252 0.93904 0.0
C1827 C 0.91544 0.11923 0.96722 0.0
H1828 H 0.36866 0.89833 0.51271 0.0
H1829 H 0.38168 0.93648 0.43625 0.0
H1830 H 0.38086 0.88117 0.46344 0.0
H1831 H 0.3934 0.91927 0.38663 0.0
H1832 H 0.40185 0.88328 0.28892 0.0
H1833 H 0.38643 0.89825 0.33663 0.0
H1834 H 0.40832 0.87672 0.44128 0.0
H1835 H 0.4237 0.86159 0.3934 0.0
C1836 C 0.37407 0.90307 0.48541 0.0
C1837 C 0.37424 0.91881 0.4786 0.0
C1838 C 0.381 0.89323 0.45719 0.0
C1839 C 0.38806 0.89891 0.42132 0.0
C1840 C 0.38785 0.91457 0.4138 0.0
C1841 C 0.38108 0.92442 0.4422 0.0
C1842 C 0.40312 0.88149 0.32211 0.0
C1843 C 0.41392 0.87123 0.33753 0.0
C1844 C 0.39441 0.89017 0.34936 0.0
C1845 C 0.39624 0.88868 0.39257 0.0
C1846 C 0.40662 0.87801 0.40806 0.0
C1847 C 0.41546 0.86942 0.38076 0.0
H1848 H 0.59848 0.38091 0.02362 0.0
H1849 H 0.56054 0.39625 0.94966 0.0
H1850 H 0.61591 0.39245 0.97388 0.0
H1851 H 0.57799 0.4074 0.89965 0.0
H1852 H 0.61322 0.41304 0.79888 0.0
H1853 H 0.59769 0.39901 0.8483 0.0
H1854 H 0.62239 0.41912 0.95033 0.0
H1855 H 0.63816 0.43304 0.90068 0.0
C1856 C 0.59384 0.38676 0.99686 0.0
C1857 C 0.57809 0.38766 0.99067 0.0
C1858 C 0.60384 0.39331 0.96837 0.0
C1859 C 0.5983 0.40076 0.93291 0.0
C1860 C 0.58258 0.40151 0.92641 0.0
C1861 C 0.57259 0.39508 0.95503 0.0
C1862 C 0.61559 0.4142 0.83182 0.0
C1863 C 0.62695 0.42408 0.84597 0.0
C1864 C 0.60657 0.4063 0.86008 0.0
C1865 C 0.60877 0.40807 0.90309 0.0
C1866 C 0.62051 0.41749 0.91731 0.0
C1867 C 0.62947 0.42551 0.88897 0.0
H1868 H 0.10577 0.56001 0.45426 0.0
H1869 H 0.11632 0.59778 0.5348 0.0
H1870 H 0.09505 0.57737 0.40335 0.0
H1871 H 0.10528 0.61514 0.48396 0.0
H1872 H 0.06599 0.63608 0.40336 0.0
H1873 H 0.07943 0.62064 0.45472 0.0
H1874 H 0.10338 0.5979 0.35555 0.0
H1875 H 0.08976 0.61302 0.30437 0.0
C1876 C 0.10597 0.57202 0.46093 0.0
C1877 C 0.11193 0.57749 0.49862 0.0
C1878 C 0.09981 0.58197 0.43176 0.0
C1879 C 0.09939 0.59761 0.43967 0.0
C1880 C 0.10535 0.60312 0.47725 0.0
C1881 C 0.11161 0.59317 0.50637 0.0
C1882 C 0.07425 0.62789 0.39266 0.0
C1883 C 0.07684 0.62577 0.3499 0.0
C1884 C 0.082 0.61913 0.42201 0.0
C1885 C 0.09236 0.608 0.40905 0.0
C1886 C 0.09533 0.60628 0.36638 0.0
C1887 C 0.08768 0.61508 0.33712 0.0
H1888 H 0.92293 0.53018 0.34573 0.0
H1889 H 0.88831 0.55391 0.27633 0.0
H1890 H 0.94087 0.55011 0.32964 0.0
H1891 H 0.90665 0.57332 0.25762 0.0
H1892 H 0.94134 0.61119 0.2503 0.0
H1893 H 0.92246 0.59391 0.27914 0.0
H1894 H 0.95448 0.55704 0.26939 0.0
H1895 H 0.97347 0.57437 0.24325 0.0
C1896 C 0.91905 0.53973 0.32748 0.0
C1897 C 0.90416 0.54032 0.31204 0.0
C1898 C 0.92944 0.55107 0.31766 0.0
C1899 C 0.92531 0.56319 0.29165 0.0
C1900 C 0.91024 0.56418 0.27781 0.0
C1901 C 0.89976 0.55291 0.28807 0.0
C1902 C 0.94438 0.59944 0.25493 0.0
C1903 C 0.95888 0.59415 0.24411 0.0
C1904 C 0.93352 0.5895 0.27107 0.0
C1905 C 0.93693 0.57407 0.27665 0.0
C1906 C 0.95149 0.56888 0.2662 0.0
C1907 C 0.96233 0.57879 0.25043 0.0
H1908 H 0.88608 0.94002 0.75609 0.0
H1909 H 0.92305 0.97031 0.72681 0.0
H1910 H 0.90407 0.92201 0.78568 0.0
H1911 H 0.94094 0.95198 0.75319 0.0
H1912 H 0.96977 0.92424 0.83515 0.0
H1913 H 0.94991 0.94168 0.81546 0.0
H1914 H 0.92341 0.90447 0.76715 0.0
H1915 H 0.94279 0.88677 0.79022 0.0
C1916 C 0.89801 0.94283 0.7558 0.0
C1917 C 0.90308 0.95661 0.73882 0.0
C1918 C 0.90835 0.93242 0.77234 0.0
C1919 C 0.92398 0.93554 0.77204 0.0
C1920 C 0.92899 0.94928 0.75477 0.0
C1921 C 0.9187 0.95971 0.73878 0.0
C1922 C 0.95956 0.91964 0.82146 0.0
C1923 C 0.95799 0.90402 0.81417 0.0
C1924 C 0.94824 0.92973 0.80939 0.0
C1925 C 0.93516 0.92455 0.78892 0.0
C1926 C 0.9333 0.90889 0.78292 0.0
C1927 C 0.94454 0.89874 0.79563 0.0
H1928 H 0.55117 0.88632 0.25189 0.0
H1929 H 0.52193 0.92336 0.21587 0.0
H1930 H 0.56945 0.9044 0.27938 0.0
H1931 H 0.54065 0.94127 0.2396 0.0
H1932 H 0.56852 0.97101 0.31911 0.0
H1933 H 0.55072 0.95152 0.2997 0.0
H1934 H 0.5877 0.92269 0.26097 0.0
H1935 H 0.6057 0.94171 0.28437 0.0
C1936 C 0.54864 0.89828 0.24962 0.0
C1937 C 0.53503 0.90331 0.23147 0.0
C1938 C 0.55924 0.90868 0.26489 0.0
C1939 C 0.55655 0.92435 0.26196 0.0
C1940 C 0.54304 0.92932 0.24331 0.0
C1941 C 0.53238 0.91898 0.22877 0.0
C1942 C 0.57298 0.96039 0.3076 0.0
C1943 C 0.58866 0.95803 0.30342 0.0
C1944 C 0.56268 0.94926 0.29558 0.0
C1945 C 0.5677 0.93558 0.27799 0.0
C1946 C 0.58338 0.93304 0.27457 0.0
C1947 C 0.59373 0.94409 0.28741 0.0
H1948 H 0.6032 0.53902 0.81155 0.0
H1949 H 0.60079 0.55942 0.68962 0.0
H1950 H 0.58473 0.55746 0.83761 0.0
H1951 H 0.58255 0.57803 0.71583 0.0
H1952 H 0.55769 0.61526 0.79111 0.0
H1953 H 0.57979 0.59985 0.77387 0.0
H1954 H 0.55591 0.55969 0.81286 0.0
H1955 H 0.53354 0.57474 0.82778 0.0
C1956 C 0.59901 0.54772 0.79072 0.0
C1957 C 0.60332 0.54786 0.74866 0.0
C1958 C 0.58844 0.55817 0.80551 0.0
C1959 C 0.58227 0.56909 0.77863 0.0
C1960 C 0.58726 0.56978 0.73718 0.0
C1961 C 0.59761 0.55914 0.72219 0.0
C1962 C 0.55707 0.60314 0.7958 0.0
C1963 C 0.54371 0.59629 0.81064 0.0
C1964 C 0.56978 0.59438 0.78627 0.0
C1965 C 0.56951 0.57866 0.79231 0.0
C1966 C 0.55645 0.57185 0.80858 0.0
C1967 C 0.54364 0.58053 0.8173 0.0
H1968 H 0.10886 0.43934 0.695 0.0
H1969 H 0.07587 0.47151 0.74036 0.0
H1970 H 0.09277 0.41855 0.71839 0.0
H1971 H 0.05949 0.45084 0.76145 0.0
H1972 H 0.03893 0.41217 0.83012 0.0
H1973 H 0.05758 0.4313 0.81233 0.0
H1974 H 0.06918 0.40637 0.70103 0.0
H1975 H 0.05115 0.38669 0.72022 0.0
C1976 C 0.09819 0.44198 0.70995 0.0
C1977 C 0.09364 0.45709 0.71569 0.0
C1978 C 0.0889 0.43006 0.72294 0.0
C1979 C 0.07486 0.43302 0.74188 0.0
C1980 C 0.07034 0.44814 0.74758 0.0
C1981 C 0.07963 0.46001 0.73483 0.0
C1982 C 0.04571 0.41054 0.80239 0.0
C1983 C 0.04349 0.3979 0.77653 0.0
C1984 C 0.05625 0.42165 0.79184 0.0
C1985 C 0.06473 0.42048 0.75495 0.0
C1986 C 0.0629 0.40759 0.72978 0.0
C1987 C 0.05242 0.3964 0.74051 0.0
H1988 H 0.03861 0.07618 0.1453 0.0
H1989 H 0.05904 0.11286 0.21397 0.0
H1990 H 0.06003 0.05976 0.16332 0.0
H1991 H 0.0803 0.0963 0.23302 0.0
H1992 H 0.09483 0.05087 0.3066 0.0
H1993 H 0.0781 0.07048 0.27998 0.0
H1994 H 0.09101 0.05927 0.15426 0.0
H1995 H 0.1086 0.04021 0.18059 0.0
C1996 C 0.04785 0.08075 0.16363 0.0
C1997 C 0.04732 0.0957 0.17824 0.0
C1998 C 0.06006 0.07142 0.1738 0.0
C1999 C 0.07172 0.07684 0.19949 0.0
C2000 C 0.07141 0.09194 0.21311 0.0
C2001 C 0.05935 0.10138 0.20214 0.0
C2002 C 0.09454 0.05282 0.27334 0.0
C2003 C 0.10309 0.04381 0.24583 0.0
C2004 C 0.08488 0.06403 0.25816 0.0
C2005 C 0.08333 0.0663 0.21519 0.0
C2006 C 0.09202 0.05762 0.18757 0.0
C2007 C 0.10196 0.04662 0.20275 0.0
H2008 H 0.41891 0.03809 0.64377 0.0
H2009 H 0.3812 0.05367 0.71798 0.0
H2010 H 0.43478 0.058 0.67313 0.0
H2011 H 0.3971 0.07366 0.74727 0.0
H2012 H 0.42959 0.11445 0.76812 0.0
H2013 H 0.41233 0.09716 0.73177 0.0
H2014 H 0.44514 0.06116 0.74419 0.0
H2015 H 0.46238 0.07837 0.77942 0.0
C2016 C 0.41398 0.04588 0.66603 0.0
C2017 C 0.39887 0.04422 0.67891 0.0
C2018 C 0.42306 0.05725 0.68288 0.0
C2019 C 0.41722 0.06722 0.71296 0.0
C2020 C 0.40187 0.06617 0.72401 0.0
C2021 C 0.39277 0.05475 0.70716 0.0
C2022 C 0.43306 0.10283 0.76301 0.0
C2023 C 0.44726 0.09772 0.77688 0.0
C2024 C 0.42318 0.09295 0.74239 0.0
C2025 C 0.42746 0.07786 0.73485 0.0
C2026 C 0.44163 0.07278 0.74899 0.0
C2027 C 0.45141 0.08258 0.76974 0.0
H2028 H 0.44209 0.40291 0.12116 0.0
H2029 H 0.44394 0.37712 0.2353 0.0
H2030 H 0.42112 0.41777 0.1491 0.0
H2031 H 0.42279 0.39182 0.26301 0.0
H2032 H 0.40729 0.43934 0.31336 0.0
H2033 H 0.42257 0.41891 0.28504 0.0
H2034 H 0.3944 0.4178 0.17516 0.0
H2035 H 0.37881 0.43811 0.2039 0.0
C2036 C 0.43776 0.4002 0.15183 0.0
C2037 C 0.4447 0.38896 0.17619 0.0
C2038 C 0.42569 0.40862 0.16772 0.0
C2039 C 0.42042 0.40602 0.20838 0.0
C2040 C 0.42674 0.39414 0.23172 0.0
C2041 C 0.43874 0.38565 0.21571 0.0
C2042 C 0.40406 0.43449 0.2837 0.0
C2043 C 0.39189 0.44046 0.26077 0.0
C2044 C 0.41284 0.42276 0.26745 0.0
C2045 C 0.4097 0.4168 0.22783 0.0
C2046 C 0.39716 0.42231 0.2056 0.0
C2047 C 0.3883 0.43398 0.22199 0.0
loop_
_geom_bond_atom_site_label_1
_geom_bond_atom_site_label_2
_geom_bond_distance
_geom_bond_site_symmetry_2
_ccdc_geom_bond_type
Li0 N17 1.990 1_455 S
Li0 O60 1.956 . S
Li0 O61 1.970 . S
Li0 O62 1.961 . S
Li1 N25 1.990 . S
Li1 O60 1.970 . S
Li1 O61 1.956 . S
Li1 O63 1.961 . S
Li2 N47 1.990 . S
Li2 O60 1.961 . S
Li2 O62 1.956 . S
Li2 O63 1.970 . S
Li3 N53 1.990 . S
Li3 O61 1.961 . S
Li3 O62 1.970 . S
Li3 O63 1.956 . S
C4 C6 1.348 . S
C4 C7 1.356 1_455 S
C4 O60 1.325 . S
N5 C8 1.314 1_655 S
N5 C9 1.279 . S
C6 C4 1.348 . S
C6 C8 1.353 . S
C6 H64 0.929 . S
C7 C4 1.356 1_655 S
C7 C9 1.358 . S
C7 H65 0.930 . S
C8 N5 1.314 1_455 S
C8 C6 1.353 . S
C8 H66 0.930 . S
C9 N5 1.279 . S
C9 C7 1.358 . S
C9 H67 0.930 . S
C10 C13 1.348 . S
C10 C14 1.356 . S
C10 O61 1.325 . S
C11 N12 1.279 . S
C11 C14 1.358 . S
C11 H68 0.930 . S
N12 C11 1.279 . S
N12 C15 1.314 . S
C13 C10 1.348 . S
C13 C15 1.353 . S
C13 H69 0.929 . S
C14 C10 1.356 . S
C14 C11 1.358 . S
C14 H70 0.930 . S
C15 N12 1.314 . S
C15 C13 1.353 . S
C15 H71 0.930 . S
C16 N17 1.314 . S
C16 C21 1.353 . S
C16 H22 0.930 . S
N17 Li0 1.990 1_655 S
N17 C16 1.314 . S
N17 C19 1.279 . S
C18 C19 1.358 . S
C18 C20 1.356 . S
C18 H72 0.930 . S
C19 N17 1.279 . S
C19 C18 1.358 . S
C19 H23 0.930 . S
C20 C18 1.356 . S
C20 C21 1.348 . S
C21 C16 1.353 . S
C21 C20 1.348 . S
C21 H73 0.929 . S
H22 C16 0.930 . S
H23 C19 0.930 . S
C24 N25 1.314 . S
C24 C26 1.353 . S
C24 H30 0.930 . S
N25 Li1 1.990 . S
N25 C24 1.314 . S
N25 C28 1.279 . S
C26 C24 1.353 . S
C26 C29 1.348 . S
C26 H74 0.929 . S
C27 C28 1.358 . S
C27 C29 1.356 . S
C27 H75 0.930 . S
C28 N25 1.279 . S
C28 C27 1.358 . S
C28 H31 0.930 . S
C29 C26 1.348 . S
C29 C27 1.356 . S
H30 C24 0.930 . S
H31 C28 0.930 . S
C32 C34 1.348 . S
C32 C35 1.356 1_455 S
C32 O62 1.325 . S
N33 C36 1.314 . S
N33 C37 1.279 1_556 S
C34 C32 1.348 . S
C34 C36 1.353 1_454 S
C34 H76 0.929 . S
C35 C32 1.356 1_655 S
C35 C37 1.358 . S
C35 H77 0.930 . S
C36 N33 1.314 . S
C36 C34 1.353 1_656 S
C36 H78 0.930 1_655 S
C37 N33 1.279 1_554 S
C37 C35 1.358 . S
C37 H79 0.930 . S
C38 C39 1.348 . S
C38 C40 1.356 . S
C38 O63 1.325 . S
C39 C38 1.348 . S
C39 C41 1.353 . S
C39 H80 0.929 . S
C40 C38 1.356 . S
C40 C42 1.358 . S
C40 H81 0.930 . S
C41 C39 1.353 . S
C41 N43 1.314 . S
C41 H82 0.930 . S
C42 C40 1.358 . S
C42 N43 1.279 . S
C42 H83 0.930 . S
N43 C41 1.314 . S
N43 C42 1.279 . S
C44 C46 1.353 . S
C44 N47 1.314 . S
C44 H50 0.930 . S
C45 N47 1.279 . S
C45 C48 1.358 . S
C45 H51 0.930 . S
C46 C44 1.353 . S
C46 C49 1.348 . S
C46 H84 0.929 . S
N47 Li2 1.990 . S
N47 C44 1.314 . S
N47 C45 1.279 . S
C48 C45 1.358 . S
C48 C49 1.356 . S
C48 H85 0.930 . S
C49 C46 1.348 . S
C49 C48 1.356 . S
H50 C44 0.930 . S
H51 C45 0.930 . S
C52 N53 1.314 . S
C52 C54 1.353 1_554 S
C52 H58 0.930 . S
N53 Li3 1.990 . S
N53 C52 1.314 . S
N53 C56 1.279 . S
C54 C52 1.353 1_556 S
C54 C57 1.348 . S
C54 H86 0.929 . S
C55 C56 1.358 1_556 S
C55 C57 1.356 . S
C55 H87 0.930 . S
C56 N53 1.279 . S
C56 C55 1.358 1_554 S
C56 H59 0.930 . S
C57 C54 1.348 . S
C57 C55 1.356 . S
H58 C52 0.930 . S
H59 C56 0.930 . S
O60 Li0 1.956 . S
O60 Li1 1.970 . S
O60 Li2 1.961 . S
O60 C4 1.325 . S
O61 Li0 1.970 . S
O61 Li1 1.956 . S
O61 Li3 1.961 . S
O61 C10 1.325 . S
O62 Li0 1.961 . S
O62 Li2 1.956 . S
O62 Li3 1.970 . S
O62 C32 1.325 . S
O63 Li1 1.961 . S
O63 Li2 1.970 . S
O63 Li3 1.956 . S
O63 C38 1.325 . S
H64 C6 0.929 . S
H65 C7 0.930 . S
H66 C8 0.930 . S
H67 C9 0.930 . S
H68 C11 0.930 . S
H69 C13 0.929 . S
H70 C14 0.930 . S
H71 C15 0.930 . S
H72 C18 0.930 . S
H73 C21 0.929 . S
H74 C26 0.929 . S
H75 C27 0.930 . S
H76 C34 0.929 . S
H77 C35 0.930 . S
H78 C36 0.930 1_455 S
H79 C37 0.930 . S
H80 C39 0.929 . S
H81 C40 0.930 . S
H82 C41 0.930 . S
H83 C42 0.930 . S
H84 C46 0.929 . S
H85 C48 0.930 . S
H86 C54 0.929 . S
H87 C55 0.930 . S
Li88 N105 1.990 1_545 S
Li88 O148 1.956 . S
Li88 O149 1.970 . S
Li88 O150 1.961 . S
Li89 N113 1.990 . S
Li89 O148 1.970 . S
Li89 O149 1.956 . S
Li89 O151 1.961 . S
Li90 N135 1.990 . S
Li90 O148 1.961 . S
Li90 O150 1.956 . S
Li90 O151 1.970 . S
Li91 N141 1.990 . S
Li91 O149 1.961 . S
Li91 O150 1.970 . S
Li91 O151 1.956 . S
C92 C94 1.348 . S
C92 C95 1.356 1_545 S
C92 O148 1.325 . S
N93 C96 1.314 1_565 S
N93 C97 1.279 . S
C94 C92 1.348 . S
C94 C96 1.353 . S
C94 H152 0.929 . S
C95 C92 1.356 1_565 S
C95 C97 1.358 . S
C95 H153 0.930 . S
C96 N93 1.314 1_545 S
C96 C94 1.353 . S
C96 H154 0.930 . S
C97 N93 1.279 . S
C97 C95 1.358 . S
C97 H155 0.930 . S
C98 C101 1.348 . S
C98 C102 1.356 . S
C98 O149 1.325 . S
C99 N100 1.279 . S
C99 C102 1.358 . S
C99 H156 0.930 . S
N100 C99 1.279 . S
N100 C103 1.314 . S
C101 C98 1.348 . S
C101 C103 1.353 . S
C101 H157 0.929 . S
C102 C98 1.356 . S
C102 C99 1.358 . S
C102 H158 0.930 . S
C103 N100 1.314 . S
C103 C101 1.353 . S
C103 H159 0.930 . S
C104 N105 1.314 . S
C104 C109 1.353 . S
C104 H110 0.930 . S
N105 Li88 1.990 1_565 S
N105 C104 1.314 . S
N105 C107 1.279 . S
C106 C107 1.358 . S
C106 C108 1.356 . S
C106 H160 0.930 . S
C107 N105 1.279 . S
C107 C106 1.358 . S
C107 H111 0.930 . S
C108 C106 1.356 . S
C108 C109 1.348 . S
C109 C104 1.353 . S
C109 C108 1.348 . S
C109 H161 0.929 . S
H110 C104 0.930 . S
H111 C107 0.930 . S
C112 N113 1.314 . S
C112 C114 1.353 . S
C112 H118 0.930 . S
N113 Li89 1.990 . S
N113 C112 1.314 . S
N113 C116 1.279 . S
C114 C112 1.353 . S
C114 C117 1.348 . S
C114 H162 0.929 . S
C115 C116 1.358 . S
C115 C117 1.356 . S
C115 H163 0.930 . S
C116 N113 1.279 . S
C116 C115 1.358 . S
C116 H119 0.930 . S
C117 C114 1.348 . S
C117 C115 1.356 . S
H118 C112 0.930 . S
H119 C116 0.930 . S
C120 C122 1.348 . S
C120 C123 1.356 1_545 S
C120 O150 1.325 . S
N121 C124 1.314 . S
N121 C125 1.279 . S
C122 C120 1.348 . S
C122 C124 1.353 1_545 S
C122 H164 0.929 . S
C123 C120 1.356 1_565 S
C123 C125 1.358 . S
C123 H165 0.930 . S
C124 N121 1.314 . S
C124 C122 1.353 1_565 S
C124 H166 0.930 1_565 S
C125 N121 1.279 . S
C125 C123 1.358 . S
C125 H167 0.930 . S
C126 C127 1.348 . S
C126 C128 1.356 . S
C126 O151 1.325 . S
C127 C126 1.348 . S
C127 C129 1.353 . S
C127 H168 0.929 . S
C128 C126 1.356 . S
C128 C130 1.358 . S
C128 H169 0.930 . S
C129 C127 1.353 . S
C129 N131 1.314 . S
C129 H170 0.930 . S
C130 C128 1.358 . S
C130 N131 1.279 . S
C130 H171 0.930 . S
N131 C129 1.314 . S
N131 C130 1.279 . S
C132 C134 1.353 . S
C132 N135 1.314 . S
C132 H138 0.930 . S
C133 N135 1.279 . S
C133 C136 1.358 . S
C133 H139 0.930 . S
C134 C132 1.353 . S
C134 C137 1.348 . S
C134 H172 0.929 . S
N135 Li90 1.990 . S
N135 C132 1.314 . S
N135 C133 1.279 . S
C136 C133 1.358 . S
C136 C137 1.356 . S
C136 H173 0.930 . S
C137 C134 1.348 . S
C137 C136 1.356 . S
H138 C132 0.930 . S
H139 C133 0.930 . S
C140 N141 1.314 . S
C140 C142 1.353 . S
C140 H146 0.930 . S
N141 Li91 1.990 . S
N141 C140 1.314 . S
N141 C144 1.279 . S
C142 C140 1.353 . S
C142 C145 1.348 . S
C142 H174 0.929 . S
C143 C144 1.358 . S
C143 C145 1.356 . S
C143 H175 0.930 . S
C144 N141 1.279 . S
C144 C143 1.358 . S
C144 H147 0.930 . S
C145 C142 1.348 . S
C145 C143 1.356 . S
H146 C140 0.930 . S
H147 C144 0.930 . S
O148 Li88 1.956 . S
O148 Li89 1.970 . S
O148 Li90 1.961 . S
O148 C92 1.325 . S
O149 Li88 1.970 . S
O149 Li89 1.956 . S
O149 Li91 1.961 . S
O149 C98 1.325 . S
O150 Li88 1.961 . S
O150 Li90 1.956 . S
O150 Li91 1.970 . S
O150 C120 1.325 . S
O151 Li89 1.961 . S
O151 Li90 1.970 . S
O151 Li91 1.956 . S
O151 C126 1.325 . S
H152 C94 0.929 . S
H153 C95 0.930 . S
H154 C96 0.930 . S
H155 C97 0.930 . S
H156 C99 0.930 . S
H157 C101 0.929 . S
H158 C102 0.930 . S
H159 C103 0.930 . S
H160 C106 0.930 . S
H161 C109 0.929 . S
H162 C114 0.929 . S
H163 C115 0.930 . S
H164 C122 0.929 . S
H165 C123 0.930 . S
H166 C124 0.930 1_545 S
H167 C125 0.930 . S
H168 C127 0.929 . S
H169 C128 0.930 . S
H170 C129 0.930 . S
H171 C130 0.930 . S
H172 C134 0.929 . S
H173 C136 0.930 . S
H174 C142 0.929 . S
H175 C143 0.930 . S
Li176 N193 1.990 . S
Li176 O236 1.956 . S
Li176 O237 1.970 . S
Li176 O238 1.961 . S
Li177 N201 1.990 . S
Li177 O236 1.970 . S
Li177 O237 1.956 . S
Li177 O239 1.961 . S
Li178 N223 1.990 . S
Li178 O236 1.961 . S
Li178 O238 1.956 . S
Li178 O239 1.970 . S
Li179 N229 1.990 . S
Li179 O237 1.961 . S
Li179 O238 1.970 . S
Li179 O239 1.956 . S
C180 C182 1.348 . S
C180 C183 1.356 . S
C180 O236 1.325 . S
N181 C184 1.314 . S
N181 C185 1.279 . S
C182 C180 1.348 . S
C182 C184 1.353 . S
C182 H240 0.929 . S
C183 C180 1.356 . S
C183 C185 1.358 . S
C183 H241 0.930 . S
C184 N181 1.314 . S
C184 C182 1.353 . S
C184 H242 0.930 . S
C185 N181 1.279 . S
C185 C183 1.358 . S
C185 H243 0.930 . S
C186 C189 1.348 . S
C186 C190 1.356 . S
C186 O237 1.325 . S
C187 N188 1.279 . S
C187 C190 1.358 . S
C187 H244 0.930 . S
N188 C187 1.279 . S
N188 C191 1.314 . S
C189 C186 1.348 . S
C189 C191 1.353 . S
C189 H245 0.929 . S
C190 C186 1.356 . S
C190 C187 1.358 . S
C190 H246 0.930 . S
C191 N188 1.314 . S
C191 C189 1.353 . S
C191 H247 0.930 . S
C192 N193 1.314 . S
C192 C197 1.353 . S
C192 H198 0.930 . S
N193 Li176 1.990 . S
N193 C192 1.314 . S
N193 C195 1.279 . S
C194 C195 1.358 . S
C194 C196 1.356 . S
C194 H248 0.930 . S
C195 N193 1.279 . S
C195 C194 1.358 . S
C195 H199 0.930 . S
C196 C194 1.356 . S
C196 C197 1.348 . S
C197 C192 1.353 . S
C197 C196 1.348 . S
C197 H249 0.929 . S
H198 C192 0.930 . S
H199 C195 0.930 . S
C200 N201 1.314 . S
C200 C202 1.353 . S
C200 H206 0.930 . S
N201 Li177 1.990 . S
N201 C200 1.314 . S
N201 C204 1.279 . S
C202 C200 1.353 . S
C202 C205 1.348 . S
C202 H250 0.929 . S
C203 C204 1.358 . S
C203 C205 1.356 . S
C203 H251 0.930 . S
C204 N201 1.279 . S
C204 C203 1.358 . S
C204 H207 0.930 . S
C205 C202 1.348 . S
C205 C203 1.356 . S
H206 C200 0.930 . S
H207 C204 0.930 . S
C208 C210 1.348 . S
C208 C211 1.356 . S
C208 O238 1.325 . S
N209 C212 1.314 . S
N209 C213 1.279 1_556 S
C210 C208 1.348 . S
C210 C212 1.353 1_554 S
C210 H252 0.929 . S
C211 C208 1.356 . S
C211 C213 1.358 . S
C211 H253 0.930 . S
C212 N209 1.314 . S
C212 C210 1.353 1_556 S
C212 H254 0.930 . S
C213 N209 1.279 1_554 S
C213 C211 1.358 . S
C213 H255 0.930 . S
C214 C215 1.348 . S
C214 C216 1.356 . S
C214 O239 1.325 . S
C215 C214 1.348 . S
C215 C217 1.353 . S
C215 H256 0.929 . S
C216 C214 1.356 . S
C216 C218 1.358 . S
C216 H257 0.930 . S
C217 C215 1.353 . S
C217 N219 1.314 . S
C217 H258 0.930 . S
C218 C216 1.358 . S
C218 N219 1.279 . S
C218 H259 0.930 . S
N219 C217 1.314 . S
N219 C218 1.279 . S
C220 C222 1.353 . S
C220 N223 1.314 . S
C220 H226 0.930 . S
C221 N223 1.279 . S
C221 C224 1.358 . S
C221 H227 0.930 . S
C222 C220 1.353 . S
C222 C225 1.348 . S
C222 H260 0.929 . S
N223 Li178 1.990 . S
N223 C220 1.314 . S
N223 C221 1.279 . S
C224 C221 1.358 . S
C224 C225 1.356 . S
C224 H261 0.930 . S
C225 C222 1.348 . S
C225 C224 1.356 . S
H226 C220 0.930 . S
H227 C221 0.930 . S
C228 N229 1.314 . S
C228 C230 1.353 1_554 S
C228 H234 0.930 . S
N229 Li179 1.990 . S
N229 C228 1.314 . S
N229 C232 1.279 . S
C230 C228 1.353 1_556 S
C230 C233 1.348 . S
C230 H262 0.929 . S
C231 C232 1.358 1_556 S
C231 C233 1.356 . S
C231 H263 0.930 . S
C232 N229 1.279 . S
C232 C231 1.358 1_554 S
C232 H235 0.930 . S
C233 C230 1.348 . S
C233 C231 1.356 . S
H234 C228 0.930 . S
H235 C232 0.930 . S
O236 Li176 1.956 . S
O236 Li177 1.970 . S
O236 Li178 1.961 . S
O236 C180 1.325 . S
O237 Li176 1.970 . S
O237 Li177 1.956 . S
O237 Li179 1.961 . S
O237 C186 1.325 . S
O238 Li176 1.961 . S
O238 Li178 1.956 . S
O238 Li179 1.970 . S
O238 C208 1.325 . S
O239 Li177 1.961 . S
O239 Li178 1.970 . S
O239 Li179 1.956 . S
O239 C214 1.325 . S
H240 C182 0.929 . S
H241 C183 0.930 . S
H242 C184 0.930 . S
H243 C185 0.930 . S
H244 C187 0.930 . S
H245 C189 0.929 . S
H246 C190 0.930 . S
H247 C191 0.930 . S
H248 C194 0.930 . S
H249 C197 0.929 . S
H250 C202 0.929 . S
H251 C203 0.930 . S
H252 C210 0.929 . S
H253 C211 0.930 . S
H254 C212 0.930 . S
H255 C213 0.930 . S
H256 C215 0.929 . S
H257 C216 0.930 . S
H258 C217 0.930 . S
H259 C218 0.930 . S
H260 C222 0.929 . S
H261 C224 0.930 . S
H262 C230 0.929 . S
H263 C231 0.930 . S
Li264 N281 1.990 . S
Li264 O324 1.956 . S
Li264 O325 1.970 . S
Li264 O326 1.961 . S
Li265 N289 1.990 . S
Li265 O324 1.970 . S
Li265 O325 1.956 . S
Li265 O327 1.961 . S
Li266 N311 1.990 . S
Li266 O324 1.961 . S
Li266 O326 1.956 . S
Li266 O327 1.970 . S
Li267 N317 1.990 . S
Li267 O325 1.961 . S
Li267 O326 1.970 . S
Li267 O327 1.956 . S
C268 C270 1.348 . S
C268 C271 1.356 . S
C268 O324 1.325 . S
N269 C272 1.314 . S
N269 C273 1.279 . S
C270 C268 1.348 . S
C270 C272 1.353 . S
C270 H328 0.929 . S
C271 C268 1.356 . S
C271 C273 1.358 . S
C271 H329 0.930 . S
C272 N269 1.314 . S
C272 C270 1.353 . S
C272 H330 0.930 . S
C273 N269 1.279 . S
C273 C271 1.358 . S
C273 H331 0.930 . S
C274 C277 1.348 . S
C274 C278 1.356 . S
C274 O325 1.325 . S
C275 N276 1.279 . S
C275 C278 1.358 . S
C275 H332 0.930 . S
N276 C275 1.279 . S
N276 C279 1.314 . S
C277 C274 1.348 . S
C277 C279 1.353 . S
C277 H333 0.929 . S
C278 C274 1.356 . S
C278 C275 1.358 . S
C278 H334 0.930 . S
C279 N276 1.314 . S
C279 C277 1.353 . S
C279 H335 0.930 . S
C280 N281 1.314 . S
C280 C285 1.353 . S
C280 H286 0.930 . S
N281 Li264 1.990 . S
N281 C280 1.314 . S
N281 C283 1.279 . S
C282 C283 1.358 . S
C282 C284 1.356 . S
C282 H336 0.930 . S
C283 N281 1.279 . S
C283 C282 1.358 . S
C283 H287 0.930 . S
C284 C282 1.356 . S
C284 C285 1.348 . S
C285 C280 1.353 . S
C285 C284 1.348 . S
C285 H337 0.929 . S
H286 C280 0.930 . S
H287 C283 0.930 . S
C288 N289 1.314 . S
C288 C290 1.353 . S
C288 H294 0.930 . S
N289 Li265 1.990 . S
N289 C288 1.314 . S
N289 C292 1.279 . S
C290 C288 1.353 . S
C290 C293 1.348 . S
C290 H338 0.929 . S
C291 C292 1.358 . S
C291 C293 1.356 . S
C291 H339 0.930 . S
C292 N289 1.279 . S
C292 C291 1.358 . S
C292 H295 0.930 . S
C293 C290 1.348 . S
C293 C291 1.356 . S
H294 C288 0.930 . S
H295 C292 0.930 . S
C296 C298 1.348 . S
C296 C299 1.356 . S
C296 O326 1.325 . S
N297 C300 1.314 . S
N297 C301 1.279 . S
C298 C296 1.348 . S
C298 C300 1.353 . S
C298 H340 0.929 . S
C299 C296 1.356 . S
C299 C301 1.358 . S
C299 H341 0.930 . S
C300 N297 1.314 . S
C300 C298 1.353 . S
C300 H342 0.930 . S
C301 N297 1.279 . S
C301 C299 1.358 . S
C301 H343 0.930 . S
C302 C303 1.348 . S
C302 C304 1.356 . S
C302 O327 1.325 . S
C303 C302 1.348 . S
C303 C305 1.353 . S
C303 H344 0.929 . S
C304 C302 1.356 . S
C304 C306 1.358 . S
C304 H345 0.930 . S
C305 C303 1.353 . S
C305 N307 1.314 . S
C305 H346 0.930 . S
C306 C304 1.358 . S
C306 N307 1.279 . S
C306 H347 0.930 . S
N307 C305 1.314 . S
N307 C306 1.279 . S
C308 C310 1.353 . S
C308 N311 1.314 . S
C308 H314 0.930 . S
C309 N311 1.279 . S
C309 C312 1.358 . S
C309 H315 0.930 . S
C310 C308 1.353 . S
C310 C313 1.348 . S
C310 H348 0.929 . S
N311 Li266 1.990 . S
N311 C308 1.314 . S
N311 C309 1.279 . S
C312 C309 1.358 . S
C312 C313 1.356 . S
C312 H349 0.930 . S
C313 C310 1.348 . S
C313 C312 1.356 . S
H314 C308 0.930 . S
H315 C309 0.930 . S
C316 N317 1.314 . S
C316 C318 1.353 . S
C316 H322 0.930 . S
N317 Li267 1.990 . S
N317 C316 1.314 . S
N317 C320 1.279 . S
C318 C316 1.353 . S
C318 C321 1.348 . S
C318 H350 0.929 . S
C319 C320 1.358 . S
C319 C321 1.356 . S
C319 H351 0.930 . S
C320 N317 1.279 . S
C320 C319 1.358 . S
C320 H323 0.930 . S
C321 C318 1.348 . S
C321 C319 1.356 . S
H322 C316 0.930 . S
H323 C320 0.930 . S
O324 Li264 1.956 . S
O324 Li265 1.970 . S
O324 Li266 1.961 . S
O324 C268 1.325 . S
O325 Li264 1.970 . S
O325 Li265 1.956 . S
O325 Li267 1.961 . S
O325 C274 1.325 . S
O326 Li264 1.961 . S
O326 Li266 1.956 . S
O326 Li267 1.970 . S
O326 C296 1.325 . S
O327 Li265 1.961 . S
O327 Li266 1.970 . S
O327 Li267 1.956 . S
O327 C302 1.325 . S
H328 C270 0.929 . S
H329 C271 0.930 . S
H330 C272 0.930 . S
H331 C273 0.930 . S
H332 C275 0.930 . S
H333 C277 0.929 . S
H334 C278 0.930 . S
H335 C279 0.930 . S
H336 C282 0.930 . S
H337 C285 0.929 . S
H338 C290 0.929 . S
H339 C291 0.930 . S
H340 C298 0.929 . S
H341 C299 0.930 . S
H342 C300 0.930 . S
H343 C301 0.930 . S
H344 C303 0.929 . S
H345 C304 0.930 . S
H346 C305 0.930 . S
H347 C306 0.930 . S
H348 C310 0.929 . S
H349 C312 0.930 . S
H350 C318 0.929 . S
H351 C319 0.930 . S
Li352 N369 1.990 . S
Li352 O412 1.956 . S
Li352 O413 1.970 . S
Li352 O414 1.961 . S
Li353 N377 1.990 . S
Li353 O412 1.970 . S
Li353 O413 1.956 . S
Li353 O415 1.961 . S
Li354 N399 1.990 1_455 S
Li354 O412 1.961 . S
Li354 O414 1.956 . S
Li354 O415 1.970 . S
Li355 N405 1.990 . S
Li355 O413 1.961 . S
Li355 O414 1.970 . S
Li355 O415 1.956 . S
C356 C358 1.348 . S
C356 C359 1.356 1_455 S
C356 O412 1.325 . S
N357 C360 1.314 . S
N357 C361 1.279 1_554 S
C358 C356 1.348 . S
C358 C360 1.353 1_456 S
C358 H416 0.929 . S
C359 C356 1.356 1_655 S
C359 C361 1.358 . S
C359 H417 0.930 . S
C360 N357 1.314 . S
C360 C358 1.353 1_654 S
C360 H418 0.930 1_655 S
C361 N357 1.279 1_556 S
C361 C359 1.358 . S
C361 H419 0.930 . S
C362 C365 1.348 . S
C362 C366 1.356 . S
C362 O413 1.325 . S
C363 N364 1.279 . S
C363 C366 1.358 . S
C363 H420 0.930 . S
N364 C363 1.279 . S
N364 C367 1.314 . S
C365 C362 1.348 . S
C365 C367 1.353 . S
C365 H421 0.929 . S
C366 C362 1.356 . S
C366 C363 1.358 . S
C366 H422 0.930 . S
C367 N364 1.314 . S
C367 C365 1.353 . S
C367 H423 0.930 . S
C368 N369 1.314 . S
C368 C373 1.353 . S
C368 H374 0.930 . S
N369 Li352 1.990 . S
N369 C368 1.314 . S
N369 C371 1.279 . S
C370 C371 1.358 . S
C370 C372 1.356 . S
C370 H424 0.930 . S
C371 N369 1.279 . S
C371 C370 1.358 . S
C371 H375 0.930 . S
C372 C370 1.356 . S
C372 C373 1.348 . S
C373 C368 1.353 . S
C373 C372 1.348 . S
C373 H425 0.929 . S
H374 C368 0.930 . S
H375 C371 0.930 . S
C376 N377 1.314 . S
C376 C378 1.353 1_556 S
C376 H382 0.930 . S
N377 Li353 1.990 . S
N377 C376 1.314 . S
N377 C380 1.279 . S
C378 C376 1.353 1_554 S
C378 C381 1.348 . S
C378 H426 0.929 . S
C379 C380 1.358 1_554 S
C379 C381 1.356 . S
C379 H427 0.930 . S
C380 N377 1.279 . S
C380 C379 1.358 1_556 S
C380 H383 0.930 . S
C381 C378 1.348 . S
C381 C379 1.356 . S
H382 C376 0.930 . S
H383 C380 0.930 . S
C384 C386 1.348 . S
C384 C387 1.356 1_455 S
C384 O414 1.325 . S
N385 C388 1.314 1_655 S
N385 C389 1.279 . S
C386 C384 1.348 . S
C386 C388 1.353 . S
C386 H428 0.929 . S
C387 C384 1.356 1_655 S
C387 C389 1.358 . S
C387 H429 0.930 . S
C388 N385 1.314 1_455 S
C388 C386 1.353 . S
C388 H430 0.930 . S
C389 N385 1.279 . S
C389 C387 1.358 . S
C389 H431 0.930 . S
C390 C391 1.348 . S
C390 C392 1.356 . S
C390 O415 1.325 . S
C391 C390 1.348 . S
C391 C393 1.353 . S
C391 H432 0.929 . S
C392 C390 1.356 . S
C392 C394 1.358 . S
C392 H433 0.930 . S
C393 C391 1.353 . S
C393 N395 1.314 . S
C393 H434 0.930 . S
C394 C392 1.358 . S
C394 N395 1.279 . S
C394 H435 0.930 . S
N395 C393 1.314 . S
N395 C394 1.279 . S
C396 C398 1.353 . S
C396 N399 1.314 . S
C396 H402 0.930 . S
C397 N399 1.279 . S
C397 C400 1.358 . S
C397 H403 0.930 . S
C398 C396 1.353 . S
C398 C401 1.348 . S
C398 H436 0.929 . S
N399 Li354 1.990 1_655 S
N399 C396 1.314 . S
N399 C397 1.279 . S
C400 C397 1.358 . S
C400 C401 1.356 . S
C400 H437 0.930 . S
C401 C398 1.348 . S
C401 C400 1.356 . S
H402 C396 0.930 . S
H403 C397 0.930 . S
C404 N405 1.314 . S
C404 C406 1.353 . S
C404 H410 0.930 . S
N405 Li355 1.990 . S
N405 C404 1.314 . S
N405 C408 1.279 . S
C406 C404 1.353 . S
C406 C409 1.348 . S
C406 H438 0.929 . S
C407 C408 1.358 . S
C407 C409 1.356 . S
C407 H439 0.930 . S
C408 N405 1.279 . S
C408 C407 1.358 . S
C408 H411 0.930 . S
C409 C406 1.348 . S
C409 C407 1.356 . S
H410 C404 0.930 . S
H411 C408 0.930 . S
O412 Li352 1.956 . S
O412 Li353 1.970 . S
O412 Li354 1.961 . S
O412 C356 1.325 . S
O413 Li352 1.970 . S
O413 Li353 1.956 . S
O413 Li355 1.961 . S
O413 C362 1.325 . S
O414 Li352 1.961 . S
O414 Li354 1.956 . S
O414 Li355 1.970 . S
O414 C384 1.325 . S
O415 Li353 1.961 . S
O415 Li354 1.970 . S
O415 Li355 1.956 . S
O415 C390 1.325 . S
H416 C358 0.929 . S
H417 C359 0.930 . S
H418 C360 0.930 1_455 S
H419 C361 0.930 . S
H420 C363 0.930 . S
H421 C365 0.929 . S
H422 C366 0.930 . S
H423 C367 0.930 . S
H424 C370 0.930 . S
H425 C373 0.929 . S
H426 C378 0.929 . S
H427 C379 0.930 . S
H428 C386 0.929 . S
H429 C387 0.930 . S
H430 C388 0.930 . S
H431 C389 0.930 . S
H432 C391 0.929 . S
H433 C392 0.930 . S
H434 C393 0.930 . S
H435 C394 0.930 . S
H436 C398 0.929 . S
H437 C400 0.930 . S
H438 C406 0.929 . S
H439 C407 0.930 . S
Li440 N457 1.990 . S
Li440 O500 1.956 . S
Li440 O501 1.970 . S
Li440 O502 1.961 . S
Li441 N465 1.990 . S
Li441 O500 1.970 . S
Li441 O501 1.956 . S
Li441 O503 1.961 . S
Li442 N487 1.990 1_545 S
Li442 O500 1.961 . S
Li442 O502 1.956 . S
Li442 O503 1.970 . S
Li443 N493 1.990 . S
Li443 O501 1.961 . S
Li443 O502 1.970 . S
Li443 O503 1.956 . S
C444 C446 1.348 . S
C444 C447 1.356 1_545 S
C444 O500 1.325 . S
N445 C448 1.314 . S
N445 C449 1.279 . S
C446 C444 1.348 . S
C446 C448 1.353 1_545 S
C446 H504 0.929 . S
C447 C444 1.356 1_565 S
C447 C449 1.358 . S
C447 H505 0.930 . S
C448 N445 1.314 . S
C448 C446 1.353 1_565 S
C448 H506 0.930 1_565 S
C449 N445 1.279 . S
C449 C447 1.358 . S
C449 H507 0.930 . S
C450 C453 1.348 . S
C450 C454 1.356 . S
C450 O501 1.325 . S
C451 N452 1.279 . S
C451 C454 1.358 . S
C451 H508 0.930 . S
N452 C451 1.279 . S
N452 C455 1.314 . S
C453 C450 1.348 . S
C453 C455 1.353 . S
C453 H509 0.929 . S
C454 C450 1.356 . S
C454 C451 1.358 . S
C454 H510 0.930 . S
C455 N452 1.314 . S
C455 C453 1.353 . S
C455 H511 0.930 . S
C456 N457 1.314 . S
C456 C461 1.353 . S
C456 H462 0.930 . S
N457 Li440 1.990 . S
N457 C456 1.314 . S
N457 C459 1.279 . S
C458 C459 1.358 . S
C458 C460 1.356 . S
C458 H512 0.930 . S
C459 N457 1.279 . S
C459 C458 1.358 . S
C459 H463 0.930 . S
C460 C458 1.356 . S
C460 C461 1.348 . S
C461 C456 1.353 . S
C461 C460 1.348 . S
C461 H513 0.929 . S
H462 C456 0.930 . S
H463 C459 0.930 . S
C464 N465 1.314 . S
C464 C466 1.353 . S
C464 H470 0.930 . S
N465 Li441 1.990 . S
N465 C464 1.314 . S
N465 C468 1.279 . S
C466 C464 1.353 . S
C466 C469 1.348 . S
C466 H514 0.929 . S
C467 C468 1.358 . S
C467 C469 1.356 . S
C467 H515 0.930 . S
C468 N465 1.279 . S
C468 C467 1.358 . S
C468 H471 0.930 . S
C469 C466 1.348 . S
C469 C467 1.356 . S
H470 C464 0.930 . S
H471 C468 0.930 . S
C472 C474 1.348 . S
C472 C475 1.356 1_545 S
C472 O502 1.325 . S
N473 C476 1.314 1_565 S
N473 C477 1.279 . S
C474 C472 1.348 . S
C474 C476 1.353 . S
C474 H516 0.929 . S
C475 C472 1.356 1_565 S
C475 C477 1.358 . S
C475 H517 0.930 . S
C476 N473 1.314 1_545 S
C476 C474 1.353 . S
C476 H518 0.930 . S
C477 N473 1.279 . S
C477 C475 1.358 . S
C477 H519 0.930 . S
C478 C479 1.348 . S
C478 C480 1.356 . S
C478 O503 1.325 . S
C479 C478 1.348 . S
C479 C481 1.353 . S
C479 H520 0.929 . S
C480 C478 1.356 . S
C480 C482 1.358 . S
C480 H521 0.930 . S
C481 C479 1.353 . S
C481 N483 1.314 . S
C481 H522 0.930 . S
C482 C480 1.358 . S
C482 N483 1.279 . S
C482 H523 0.930 . S
N483 C481 1.314 . S
N483 C482 1.279 . S
C484 C486 1.353 . S
C484 N487 1.314 . S
C484 H490 0.930 . S
C485 N487 1.279 . S
C485 C488 1.358 . S
C485 H491 0.930 . S
C486 C484 1.353 . S
C486 C489 1.348 . S
C486 H524 0.929 . S
N487 Li442 1.990 1_565 S
N487 C484 1.314 . S
N487 C485 1.279 . S
C488 C485 1.358 . S
C488 C489 1.356 . S
C488 H525 0.930 . S
C489 C486 1.348 . S
C489 C488 1.356 . S
H490 C484 0.930 . S
H491 C485 0.930 . S
C492 N493 1.314 . S
C492 C494 1.353 . S
C492 H498 0.930 . S
N493 Li443 1.990 . S
N493 C492 1.314 . S
N493 C496 1.279 . S
C494 C492 1.353 . S
C494 C497 1.348 . S
C494 H526 0.929 . S
C495 C496 1.358 . S
C495 C497 1.356 . S
C495 H527 0.930 . S
C496 N493 1.279 . S
C496 C495 1.358 . S
C496 H499 0.930 . S
C497 C494 1.348 . S
C497 C495 1.356 . S
H498 C492 0.930 . S
H499 C496 0.930 . S
O500 Li440 1.956 . S
O500 Li441 1.970 . S
O500 Li442 1.961 . S
O500 C444 1.325 . S
O501 Li440 1.970 . S
O501 Li441 1.956 . S
O501 Li443 1.961 . S
O501 C450 1.325 . S
O502 Li440 1.961 . S
O502 Li442 1.956 . S
O502 Li443 1.970 . S
O502 C472 1.325 . S
O503 Li441 1.961 . S
O503 Li442 1.970 . S
O503 Li443 1.956 . S
O503 C478 1.325 . S
H504 C446 0.929 . S
H505 C447 0.930 . S
H506 C448 0.930 1_545 S
H507 C449 0.930 . S
H508 C451 0.930 . S
H509 C453 0.929 . S
H510 C454 0.930 . S
H511 C455 0.930 . S
H512 C458 0.930 . S
H513 C461 0.929 . S
H514 C466 0.929 . S
H515 C467 0.930 . S
H516 C474 0.929 . S
H517 C475 0.930 . S
H518 C476 0.930 . S
H519 C477 0.930 . S
H520 C479 0.929 . S
H521 C480 0.930 . S
H522 C481 0.930 . S
H523 C482 0.930 . S
H524 C486 0.929 . S
H525 C488 0.930 . S
H526 C494 0.929 . S
H527 C495 0.930 . S
Li528 N545 1.990 . S
Li528 O588 1.956 . S
Li528 O589 1.970 . S
Li528 O590 1.961 . S
Li529 N553 1.990 . S
Li529 O588 1.970 . S
Li529 O589 1.956 . S
Li529 O591 1.961 . S
Li530 N575 1.990 . S
Li530 O588 1.961 . S
Li530 O590 1.956 . S
Li530 O591 1.970 . S
Li531 N581 1.990 . S
Li531 O589 1.961 . S
Li531 O590 1.970 . S
Li531 O591 1.956 . S
C532 C534 1.348 . S
C532 C535 1.356 . S
C532 O588 1.325 . S
N533 C536 1.314 . S
N533 C537 1.279 1_554 S
C534 C532 1.348 . S
C534 C536 1.353 1_556 S
C534 H592 0.929 . S
C535 C532 1.356 . S
C535 C537 1.358 . S
C535 H593 0.930 . S
C536 N533 1.314 . S
C536 C534 1.353 1_554 S
C536 H594 0.930 . S
C537 N533 1.279 1_556 S
C537 C535 1.358 . S
C537 H595 0.930 . S
C538 C541 1.348 . S
C538 C542 1.356 . S
C538 O589 1.325 . S
C539 N540 1.279 . S
C539 C542 1.358 . S
C539 H596 0.930 . S
N540 C539 1.279 . S
N540 C543 1.314 . S
C541 C538 1.348 . S
C541 C543 1.353 . S
C541 H597 0.929 . S
C542 C538 1.356 . S
C542 C539 1.358 . S
C542 H598 0.930 . S
C543 N540 1.314 . S
C543 C541 1.353 . S
C543 H599 0.930 . S
C544 N545 1.314 . S
C544 C549 1.353 . S
C544 H550 0.930 . S
N545 Li528 1.990 . S
N545 C544 1.314 . S
N545 C547 1.279 . S
C546 C547 1.358 . S
C546 C548 1.356 . S
C546 H600 0.930 . S
C547 N545 1.279 . S
C547 C546 1.358 . S
C547 H551 0.930 . S
C548 C546 1.356 . S
C548 C549 1.348 . S
C549 C544 1.353 . S
C549 C548 1.348 . S
C549 H601 0.929 . S
H550 C544 0.930 . S
H551 C547 0.930 . S
C552 N553 1.314 . S
C552 C554 1.353 1_556 S
C552 H558 0.930 . S
N553 Li529 1.990 . S
N553 C552 1.314 . S
N553 C556 1.279 . S
C554 C552 1.353 1_554 S
C554 C557 1.348 . S
C554 H602 0.929 . S
C555 C556 1.358 1_554 S
C555 C557 1.356 . S
C555 H603 0.930 . S
C556 N553 1.279 . S
C556 C555 1.358 1_556 S
C556 H559 0.930 . S
C557 C554 1.348 . S
C557 C555 1.356 . S
H558 C552 0.930 . S
H559 C556 0.930 . S
C560 C562 1.348 . S
C560 C563 1.356 . S
C560 O590 1.325 . S
N561 C564 1.314 . S
N561 C565 1.279 . S
C562 C560 1.348 . S
C562 C564 1.353 . S
C562 H604 0.929 . S
C563 C560 1.356 . S
C563 C565 1.358 . S
C563 H605 0.930 . S
C564 N561 1.314 . S
C564 C562 1.353 . S
C564 H606 0.930 . S
C565 N561 1.279 . S
C565 C563 1.358 . S
C565 H607 0.930 . S
C566 C567 1.348 . S
C566 C568 1.356 . S
C566 O591 1.325 . S
C567 C566 1.348 . S
C567 C569 1.353 . S
C567 H608 0.929 . S
C568 C566 1.356 . S
C568 C570 1.358 . S
C568 H609 0.930 . S
C569 C567 1.353 . S
C569 N571 1.314 . S
C569 H610 0.930 . S
C570 C568 1.358 . S
C570 N571 1.279 . S
C570 H611 0.930 . S
N571 C569 1.314 . S
N571 C570 1.279 . S
C572 C574 1.353 . S
C572 N575 1.314 . S
C572 H578 0.930 . S
C573 N575 1.279 . S
C573 C576 1.358 . S
C573 H579 0.930 . S
C574 C572 1.353 . S
C574 C577 1.348 . S
C574 H612 0.929 . S
N575 Li530 1.990 . S
N575 C572 1.314 . S
N575 C573 1.279 . S
C576 C573 1.358 . S
C576 C577 1.356 . S
C576 H613 0.930 . S
C577 C574 1.348 . S
C577 C576 1.356 . S
H578 C572 0.930 . S
H579 C573 0.930 . S
C580 N581 1.314 . S
C580 C582 1.353 . S
C580 H586 0.930 . S
N581 Li531 1.990 . S
N581 C580 1.314 . S
N581 C584 1.279 . S
C582 C580 1.353 . S
C582 C585 1.348 . S
C582 H614 0.929 . S
C583 C584 1.358 . S
C583 C585 1.356 . S
C583 H615 0.930 . S
C584 N581 1.279 . S
C584 C583 1.358 . S
C584 H587 0.930 . S
C585 C582 1.348 . S
C585 C583 1.356 . S
H586 C580 0.930 . S
H587 C584 0.930 . S
O588 Li528 1.956 . S
O588 Li529 1.970 . S
O588 Li530 1.961 . S
O588 C532 1.325 . S
O589 Li528 1.970 . S
O589 Li529 1.956 . S
O589 Li531 1.961 . S
O589 C538 1.325 . S
O590 Li528 1.961 . S
O590 Li530 1.956 . S
O590 Li531 1.970 . S
O590 C560 1.325 . S
O591 Li529 1.961 . S
O591 Li530 1.970 . S
O591 Li531 1.956 . S
O591 C566 1.325 . S
H592 C534 0.929 . S
H593 C535 0.930 . S
H594 C536 0.930 . S
H595 C537 0.930 . S
H596 C539 0.930 . S
H597 C541 0.929 . S
H598 C542 0.930 . S
H599 C543 0.930 . S
H600 C546 0.930 . S
H601 C549 0.929 . S
H602 C554 0.929 . S
H603 C555 0.930 . S
H604 C562 0.929 . S
H605 C563 0.930 . S
H606 C564 0.930 . S
H607 C565 0.930 . S
H608 C567 0.929 . S
H609 C568 0.930 . S
H610 C569 0.930 . S
H611 C570 0.930 . S
H612 C574 0.929 . S
H613 C576 0.930 . S
H614 C582 0.929 . S
H615 C583 0.930 . S
Li616 N633 1.990 . S
Li616 O676 1.956 . S
Li616 O677 1.970 . S
Li616 O678 1.961 . S
Li617 N641 1.990 . S
Li617 O676 1.970 . S
Li617 O677 1.956 . S
Li617 O679 1.961 . S
Li618 N663 1.990 . S
Li618 O676 1.961 . S
Li618 O678 1.956 . S
Li618 O679 1.970 . S
Li619 N669 1.990 . S
Li619 O677 1.961 . S
Li619 O678 1.970 . S
Li619 O679 1.956 . S
C620 C622 1.348 . S
C620 C623 1.356 . S
C620 O676 1.325 . S
N621 C624 1.314 . S
N621 C625 1.279 . S
C622 C620 1.348 . S
C622 C624 1.353 . S
C622 H680 0.929 . S
C623 C620 1.356 . S
C623 C625 1.358 . S
C623 H681 0.930 . S
C624 N621 1.314 . S
C624 C622 1.353 . S
C624 H682 0.930 . S
C625 N621 1.279 . S
C625 C623 1.358 . S
C625 H683 0.930 . S
C626 C629 1.348 . S
C626 C630 1.356 . S
C626 O677 1.325 . S
C627 N628 1.279 . S
C627 C630 1.358 . S
C627 H684 0.930 . S
N628 C627 1.279 . S
N628 C631 1.314 . S
C629 C626 1.348 . S
C629 C631 1.353 . S
C629 H685 0.929 . S
C630 C626 1.356 . S
C630 C627 1.358 . S
C630 H686 0.930 . S
C631 N628 1.314 . S
C631 C629 1.353 . S
C631 H687 0.930 . S
C632 N633 1.314 . S
C632 C637 1.353 . S
C632 H638 0.930 . S
N633 Li616 1.990 . S
N633 C632 1.314 . S
N633 C635 1.279 . S
C634 C635 1.358 . S
C634 C636 1.356 . S
C634 H688 0.930 . S
C635 N633 1.279 . S
C635 C634 1.358 . S
C635 H639 0.930 . S
C636 C634 1.356 . S
C636 C637 1.348 . S
C637 C632 1.353 . S
C637 C636 1.348 . S
C637 H689 0.929 . S
H638 C632 0.930 . S
H639 C635 0.930 . S
C640 N641 1.314 . S
C640 C642 1.353 . S
C640 H646 0.930 . S
N641 Li617 1.990 . S
N641 C640 1.314 . S
N641 C644 1.279 . S
C642 C640 1.353 . S
C642 C645 1.348 . S
C642 H690 0.929 . S
C643 C644 1.358 . S
C643 C645 1.356 . S
C643 H691 0.930 . S
C644 N641 1.279 . S
C644 C643 1.358 . S
C644 H647 0.930 . S
C645 C642 1.348 . S
C645 C643 1.356 . S
H646 C640 0.930 . S
H647 C644 0.930 . S
C648 C650 1.348 . S
C648 C651 1.356 . S
C648 O678 1.325 . S
N649 C652 1.314 . S
N649 C653 1.279 . S
C650 C648 1.348 . S
C650 C652 1.353 . S
C650 H692 0.929 . S
C651 C648 1.356 . S
C651 C653 1.358 . S
C651 H693 0.930 . S
C652 N649 1.314 . S
C652 C650 1.353 . S
C652 H694 0.930 . S
C653 N649 1.279 . S
C653 C651 1.358 . S
C653 H695 0.930 . S
C654 C655 1.348 . S
C654 C656 1.356 . S
C654 O679 1.325 . S
C655 C654 1.348 . S
C655 C657 1.353 . S
C655 H696 0.929 . S
C656 C654 1.356 . S
C656 C658 1.358 . S
C656 H697 0.930 . S
C657 C655 1.353 . S
C657 N659 1.314 . S
C657 H698 0.930 . S
C658 C656 1.358 . S
C658 N659 1.279 . S
C658 H699 0.930 . S
N659 C657 1.314 . S
N659 C658 1.279 . S
C660 C662 1.353 . S
C660 N663 1.314 . S
C660 H666 0.930 . S
C661 N663 1.279 . S
C661 C664 1.358 . S
C661 H667 0.930 . S
C662 C660 1.353 . S
C662 C665 1.348 . S
C662 H700 0.929 . S
N663 Li618 1.990 . S
N663 C660 1.314 . S
N663 C661 1.279 . S
C664 C661 1.358 . S
C664 C665 1.356 . S
C664 H701 0.930 . S
C665 C662 1.348 . S
C665 C664 1.356 . S
H666 C660 0.930 . S
H667 C661 0.930 . S
C668 N669 1.314 . S
C668 C670 1.353 . S
C668 H674 0.930 . S
N669 Li619 1.990 . S
N669 C668 1.314 . S
N669 C672 1.279 . S
C670 C668 1.353 . S
C670 C673 1.348 . S
C670 H702 0.929 . S
C671 C672 1.358 . S
C671 C673 1.356 . S
C671 H703 0.930 . S
C672 N669 1.279 . S
C672 C671 1.358 . S
C672 H675 0.930 . S
C673 C670 1.348 . S
C673 C671 1.356 . S
H674 C668 0.930 . S
H675 C672 0.930 . S
O676 Li616 1.956 . S
O676 Li617 1.970 . S
O676 Li618 1.961 . S
O676 C620 1.325 . S
O677 Li616 1.970 . S
O677 Li617 1.956 . S
O677 Li619 1.961 . S
O677 C626 1.325 . S
O678 Li616 1.961 . S
O678 Li618 1.956 . S
O678 Li619 1.970 . S
O678 C648 1.325 . S
O679 Li617 1.961 . S
O679 Li618 1.970 . S
O679 Li619 1.956 . S
O679 C654 1.325 . S
H680 C622 0.929 . S
H681 C623 0.930 . S
H682 C624 0.930 . S
H683 C625 0.930 . S
H684 C627 0.930 . S
H685 C629 0.929 . S
H686 C630 0.930 . S
H687 C631 0.930 . S
H688 C634 0.930 . S
H689 C637 0.929 . S
H690 C642 0.929 . S
H691 C643 0.930 . S
H692 C650 0.929 . S
H693 C651 0.930 . S
H694 C652 0.930 . S
H695 C653 0.930 . S
H696 C655 0.929 . S
H697 C656 0.930 . S
H698 C657 0.930 . S
H699 C658 0.930 . S
H700 C662 0.929 . S
H701 C664 0.930 . S
H702 C670 0.929 . S
H703 C671 0.930 . S
Li704 N721 1.990 . S
Li704 O764 1.956 . S
Li704 O765 1.970 . S
Li704 O766 1.961 . S
Li705 N729 1.990 . S
Li705 O764 1.970 . S
Li705 O765 1.956 . S
Li705 O767 1.961 . S
Li706 N751 1.990 1_655 S
Li706 O764 1.961 . S
Li706 O766 1.956 . S
Li706 O767 1.970 . S
Li707 N757 1.990 . S
Li707 O765 1.961 . S
Li707 O766 1.970 . S
Li707 O767 1.956 . S
C708 C710 1.348 . S
C708 C711 1.356 1_655 S
C708 O764 1.325 . S
N709 C712 1.314 1_554 S
N709 C713 1.279 1_554 S
C710 C708 1.348 . S
C710 C712 1.353 1_655 S
C710 H768 0.929 . S
C711 C708 1.356 1_455 S
C711 C713 1.358 . S
C711 H769 0.930 . S
C712 N709 1.314 1_556 S
C712 C710 1.353 1_455 S
C712 H770 0.930 1_556 S
C713 N709 1.279 1_556 S
C713 C711 1.358 . S
C713 H771 0.930 1_556 S
C714 C717 1.348 . S
C714 C718 1.356 . S
C714 O765 1.325 . S
C715 N716 1.279 . S
C715 C718 1.358 . S
C715 H772 0.930 . S
N716 C715 1.279 . S
N716 C719 1.314 . S
C717 C714 1.348 . S
C717 C719 1.353 . S
C717 H773 0.929 . S
C718 C714 1.356 . S
C718 C715 1.358 . S
C718 H774 0.930 . S
C719 N716 1.314 . S
C719 C717 1.353 . S
C719 H775 0.930 . S
C720 N721 1.314 . S
C720 C725 1.353 . S
C720 H726 0.930 . S
N721 Li704 1.990 . S
N721 C720 1.314 . S
N721 C723 1.279 . S
C722 C723 1.358 1_554 S
C722 C724 1.356 . S
C722 H776 0.930 . S
C723 N721 1.279 . S
C723 C722 1.358 1_556 S
C723 H727 0.927 1_556 S
C724 C722 1.356 . S
C724 C725 1.348 1_554 S
C725 C720 1.353 . S
C725 C724 1.348 1_556 S
C725 H777 0.929 . S
H726 C720 0.930 . S
H727 C723 0.927 1_554 S
C728 N729 1.314 . S
C728 C730 1.353 . S
C728 H734 0.930 . S
N729 Li705 1.990 . S
N729 C728 1.314 . S
N729 C732 1.279 . S
C730 C728 1.353 . S
C730 C733 1.348 . S
C730 H778 0.929 1_655 S
C731 C732 1.358 . S
C731 C733 1.356 . S
C731 H779 0.930 . S
C732 N729 1.279 . S
C732 C731 1.358 . S
C732 H735 0.930 . S
C733 C730 1.348 . S
C733 C731 1.356 . S
H734 C728 0.930 . S
H735 C732 0.930 . S
C736 C738 1.348 . S
C736 C739 1.356 . S
C736 O766 1.325 . S
N737 C740 1.314 . S
N737 C741 1.279 . S
C738 C736 1.348 . S
C738 C740 1.353 . S
C738 H780 0.929 . S
C739 C736 1.356 . S
C739 C741 1.358 . S
C739 H781 0.930 . S
C740 N737 1.314 . S
C740 C738 1.353 . S
C740 H782 0.930 . S
C741 N737 1.279 . S
C741 C739 1.358 . S
C741 H783 0.930 . S
C742 C743 1.318 1_655 S
C742 C744 1.356 . S
C742 O767 1.325 . S
C743 C742 1.318 1_455 S
C743 C745 1.368 . S
C743 H784 0.945 . S
C744 C742 1.356 . S
C744 C746 1.358 . S
C744 H785 0.930 . S
C745 C743 1.368 . S
C745 N747 1.314 . S
C745 H786 0.930 . S
C746 C744 1.358 . S
C746 N747 1.279 1_655 S
C746 H787 0.930 . S
N747 C745 1.314 . S
N747 C746 1.279 1_455 S
C748 C750 1.353 . S
C748 N751 1.314 . S
C748 H754 0.930 . S
C749 N751 1.279 . S
C749 C752 1.358 . S
C749 H755 0.930 . S
C750 C748 1.353 . S
C750 C753 1.348 . S
C750 H788 0.929 . S
N751 Li706 1.990 1_455 S
N751 C748 1.314 . S
N751 C749 1.279 . S
C752 C749 1.358 . S
C752 C753 1.356 . S
C752 H789 0.930 . S
C753 C750 1.348 . S
C753 C752 1.356 . S
H754 C748 0.930 . S
H755 C749 0.930 . S
C756 N757 1.314 . S
C756 C758 1.353 . S
C756 H762 0.930 . S
N757 Li707 1.990 . S
N757 C756 1.314 . S
N757 C760 1.279 . S
C758 C756 1.353 . S
C758 C761 1.348 . S
C758 H790 0.929 . S
C759 C760 1.358 . S
C759 C761 1.356 . S
C759 H791 0.930 . S
C760 N757 1.279 . S
C760 C759 1.358 . S
C760 H763 0.930 . S
C761 C758 1.348 . S
C761 C759 1.356 . S
H762 C756 0.930 . S
H763 C760 0.930 . S
O764 Li704 1.956 . S
O764 Li705 1.970 . S
O764 Li706 1.961 . S
O764 C708 1.325 . S
O765 Li704 1.970 . S
O765 Li705 1.956 . S
O765 Li707 1.961 . S
O765 C714 1.325 . S
O766 Li704 1.961 . S
O766 Li706 1.956 . S
O766 Li707 1.970 . S
O766 C736 1.325 . S
O767 Li705 1.961 . S
O767 Li706 1.970 . S
O767 Li707 1.956 . S
O767 C742 1.325 . S
H768 C710 0.929 . S
H769 C711 0.930 . S
H770 C712 0.930 1_554 S
H771 C713 0.930 1_554 S
H772 C715 0.930 . S
H773 C717 0.929 . S
H774 C718 0.930 . S
H775 C719 0.930 . S
H776 C722 0.930 . S
H777 C725 0.929 . S
H778 C730 0.929 1_455 S
H779 C731 0.930 . S
H780 C738 0.929 . S
H781 C739 0.930 . S
H782 C740 0.930 . S
H783 C741 0.930 . S
H784 C743 0.945 . S
H785 C744 0.930 . S
H786 C745 0.930 . S
H787 C746 0.930 . S
H788 C750 0.929 . S
H789 C752 0.930 . S
H790 C758 0.929 . S
H791 C759 0.930 . S
Li792 N809 1.990 . S
Li792 O852 1.956 . S
Li792 O853 1.970 . S
Li792 O854 1.961 . S
Li793 N817 1.990 . S
Li793 O852 1.970 . S
Li793 O853 1.956 . S
Li793 O855 1.961 . S
Li794 N839 1.990 1_565 S
Li794 O852 1.961 . S
Li794 O854 1.956 . S
Li794 O855 1.970 . S
Li795 N845 1.990 . S
Li795 O853 1.961 . S
Li795 O854 1.970 . S
Li795 O855 1.956 . S
C796 C798 1.348 . S
C796 C799 1.356 1_565 S
C796 O852 1.325 . S
N797 C800 1.314 . S
N797 C801 1.279 . S
C798 C796 1.348 . S
C798 C800 1.353 1_565 S
C798 H856 0.929 . S
C799 C796 1.356 1_545 S
C799 C801 1.358 . S
C799 H857 0.930 . S
C800 N797 1.314 . S
C800 C798 1.353 1_545 S
C800 H858 0.930 . S
C801 N797 1.279 . S
C801 C799 1.358 . S
C801 H859 0.930 . S
C802 C805 1.348 . S
C802 C806 1.356 . S
C802 O853 1.325 . S
C803 N804 1.279 . S
C803 C806 1.358 . S
C803 H860 0.930 . S
N804 C803 1.279 . S
N804 C807 1.314 . S
C805 C802 1.348 . S
C805 C807 1.353 . S
C805 H861 0.929 . S
C806 C802 1.356 . S
C806 C803 1.358 . S
C806 H862 0.930 . S
C807 N804 1.314 . S
C807 C805 1.353 . S
C807 H863 0.930 . S
C808 N809 1.314 . S
C808 C813 1.353 . S
C808 H814 0.930 . S
N809 Li792 1.990 . S
N809 C808 1.314 . S
N809 C811 1.279 . S
C810 C811 1.358 . S
C810 C812 1.356 . S
C810 H864 0.930 . S
C811 N809 1.279 . S
C811 C810 1.358 . S
C811 H815 0.930 . S
C812 C810 1.356 . S
C812 C813 1.348 . S
C813 C808 1.353 . S
C813 C812 1.348 . S
C813 H865 0.929 . S
H814 C808 0.930 . S
H815 C811 0.930 . S
C816 N817 1.314 . S
C816 C818 1.353 . S
C816 H822 0.930 . S
N817 Li793 1.990 . S
N817 C816 1.314 . S
N817 C820 1.279 . S
C818 C816 1.353 . S
C818 C821 1.348 . S
C818 H866 0.929 1_565 S
C819 C820 1.358 . S
C819 C821 1.356 . S
C819 H867 0.930 . S
C820 N817 1.279 . S
C820 C819 1.358 . S
C820 H823 0.930 . S
C821 C818 1.348 . S
C821 C819 1.356 . S
H822 C816 0.930 . S
H823 C820 0.930 . S
C824 C826 1.348 . S
C824 C827 1.356 . S
C824 O854 1.325 . S
N825 C828 1.314 . S
N825 C829 1.279 . S
C826 C824 1.348 . S
C826 C828 1.353 . S
C826 H868 0.929 . S
C827 C824 1.356 . S
C827 C829 1.358 . S
C827 H869 0.930 . S
C828 N825 1.314 . S
C828 C826 1.353 . S
C828 H870 0.930 . S
C829 N825 1.279 . S
C829 C827 1.358 . S
C829 H871 0.930 . S
C830 C831 1.318 1_565 S
C830 C832 1.356 . S
C830 O855 1.325 . S
C831 C830 1.318 1_545 S
C831 C833 1.368 . S
C831 H872 0.946 . S
C832 C830 1.356 . S
C832 C834 1.358 . S
C832 H873 0.930 . S
C833 C831 1.368 . S
C833 N835 1.314 . S
C833 H874 0.930 . S
C834 C832 1.358 . S
C834 N835 1.279 1_565 S
C834 H875 0.930 . S
N835 C833 1.314 . S
N835 C834 1.279 1_545 S
C836 C838 1.353 . S
C836 N839 1.314 . S
C836 H842 0.930 . S
C837 N839 1.279 . S
C837 C840 1.358 . S
C837 H843 0.930 . S
C838 C836 1.353 . S
C838 C841 1.348 . S
C838 H876 0.929 . S
N839 Li794 1.990 1_545 S
N839 C836 1.314 . S
N839 C837 1.279 . S
C840 C837 1.358 . S
C840 C841 1.356 . S
C840 H877 0.930 . S
C841 C838 1.348 . S
C841 C840 1.356 . S
H842 C836 0.930 . S
H843 C837 0.930 . S
C844 N845 1.314 . S
C844 C846 1.353 . S
C844 H850 0.930 . S
N845 Li795 1.990 . S
N845 C844 1.314 . S
N845 C848 1.279 . S
C846 C844 1.353 . S
C846 C849 1.348 . S
C846 H878 0.929 . S
C847 C848 1.358 . S
C847 C849 1.356 . S
C847 H879 0.930 . S
C848 N845 1.279 . S
C848 C847 1.358 . S
C848 H851 0.930 . S
C849 C846 1.348 . S
C849 C847 1.356 . S
H850 C844 0.930 . S
H851 C848 0.930 . S
O852 Li792 1.956 . S
O852 Li793 1.970 . S
O852 Li794 1.961 . S
O852 C796 1.325 . S
O853 Li792 1.970 . S
O853 Li793 1.956 . S
O853 Li795 1.961 . S
O853 C802 1.325 . S
O854 Li792 1.961 . S
O854 Li794 1.956 . S
O854 Li795 1.970 . S
O854 C824 1.325 . S
O855 Li793 1.961 . S
O855 Li794 1.970 . S
O855 Li795 1.956 . S
O855 C830 1.325 . S
H856 C798 0.929 . S
H857 C799 0.930 . S
H858 C800 0.930 . S
H859 C801 0.930 . S
H860 C803 0.930 . S
H861 C805 0.929 . S
H862 C806 0.930 . S
H863 C807 0.930 . S
H864 C810 0.930 . S
H865 C813 0.929 . S
H866 C818 0.929 1_545 S
H867 C819 0.930 . S
H868 C826 0.929 . S
H869 C827 0.930 . S
H870 C828 0.930 . S
H871 C829 0.930 . S
H872 C831 0.946 . S
H873 C832 0.930 . S
H874 C833 0.930 . S
H875 C834 0.930 . S
H876 C838 0.929 . S
H877 C840 0.930 . S
H878 C846 0.929 . S
H879 C847 0.930 . S
Li880 N897 1.990 . S
Li880 O940 1.956 . S
Li880 O941 1.970 . S
Li880 O942 1.961 . S
Li881 N905 1.990 . S
Li881 O940 1.970 . S
Li881 O941 1.956 . S
Li881 O943 1.961 . S
Li882 N927 1.990 . S
Li882 O940 1.961 . S
Li882 O942 1.956 . S
Li882 O943 1.970 . S
Li883 N933 1.990 . S
Li883 O941 1.961 . S
Li883 O942 1.970 . S
Li883 O943 1.956 . S
C884 C886 1.348 . S
C884 C887 1.356 . S
C884 O940 1.325 . S
N885 C888 1.314 . S
N885 C889 1.279 . S
C886 C884 1.348 . S
C886 C888 1.353 . S
C886 H944 0.929 . S
C887 C884 1.356 . S
C887 C889 1.358 . S
C887 H945 0.930 . S
C888 N885 1.314 . S
C888 C886 1.353 . S
C888 H946 0.930 . S
C889 N885 1.279 . S
C889 C887 1.358 . S
C889 H947 0.930 . S
C890 C893 1.348 . S
C890 C894 1.356 . S
C890 O941 1.325 . S
C891 N892 1.279 1_556 S
C891 C894 1.358 . S
C891 H948 0.930 1_556 S
N892 C891 1.279 1_554 S
N892 C895 1.314 1_554 S
C893 C890 1.348 . S
C893 C895 1.353 . S
C893 H949 0.929 . S
C894 C890 1.356 . S
C894 C891 1.358 . S
C894 H950 0.930 . S
C895 N892 1.314 1_556 S
C895 C893 1.353 . S
C895 H951 0.930 1_556 S
C896 N897 1.314 . S
C896 C901 1.353 . S
C896 H902 0.930 . S
N897 Li880 1.990 . S
N897 C896 1.314 . S
N897 C899 1.279 . S
C898 C899 1.358 . S
C898 C900 1.356 . S
C898 H952 0.930 . S
C899 N897 1.279 . S
C899 C898 1.358 . S
C899 H903 0.930 . S
C900 C898 1.356 . S
C900 C901 1.348 . S
C901 C896 1.353 . S
C901 C900 1.348 . S
C901 H953 0.929 . S
H902 C896 0.930 . S
H903 C899 0.930 . S
C904 N905 1.314 . S
C904 C906 1.353 . S
C904 H910 0.930 . S
N905 Li881 1.990 . S
N905 C904 1.314 . S
N905 C908 1.279 . S
C906 C904 1.353 . S
C906 C909 1.348 1_556 S
C906 H954 0.929 . S
C907 C908 1.358 1_554 S
C907 C909 1.356 . S
C907 H955 0.930 . S
C908 N905 1.279 . S
C908 C907 1.358 1_556 S
C908 H911 0.927 1_556 S
C909 C906 1.348 1_554 S
C909 C907 1.356 . S
H910 C904 0.930 . S
H911 C908 0.927 1_554 S
C912 C914 1.348 . S
C912 C915 1.356 . S
C912 O942 1.325 . S
N913 C916 1.314 . S
N913 C917 1.279 . S
C914 C912 1.348 . S
C914 C916 1.353 . S
C914 H956 0.929 . S
C915 C912 1.356 . S
C915 C917 1.358 . S
C915 H957 0.930 . S
C916 N913 1.314 . S
C916 C914 1.353 . S
C916 H958 0.930 . S
C917 N913 1.279 . S
C917 C915 1.358 . S
C917 H959 0.930 . S
C918 C919 1.348 . S
C918 C920 1.356 . S
C918 O943 1.325 . S
C919 C918 1.348 . S
C919 C921 1.353 . S
C919 H960 0.929 . S
C920 C918 1.356 . S
C920 C922 1.358 . S
C920 H961 0.930 . S
C921 C919 1.353 . S
C921 N923 1.314 . S
C921 H962 0.930 . S
C922 C920 1.358 . S
C922 N923 1.279 . S
C922 H963 0.930 . S
N923 C921 1.314 . S
N923 C922 1.279 . S
C924 C926 1.353 . S
C924 N927 1.314 . S
C924 H930 0.930 . S
C925 N927 1.279 . S
C925 C928 1.358 . S
C925 H931 0.930 . S
C926 C924 1.353 . S
C926 C929 1.348 . S
C926 H964 0.929 . S
N927 Li882 1.990 . S
N927 C924 1.314 . S
N927 C925 1.279 . S
C928 C925 1.358 . S
C928 C929 1.356 . S
C928 H965 0.930 . S
C929 C926 1.348 . S
C929 C928 1.356 . S
H930 C924 0.930 . S
H931 C925 0.930 . S
C932 N933 1.314 . S
C932 C934 1.353 . S
C932 H938 0.930 . S
N933 Li883 1.990 . S
N933 C932 1.314 . S
N933 C936 1.279 . S
C934 C932 1.353 . S
C934 C937 1.348 . S
C934 H966 0.929 . S
C935 C936 1.358 . S
C935 C937 1.356 . S
C935 H967 0.930 . S
C936 N933 1.279 . S
C936 C935 1.358 . S
C936 H939 0.930 . S
C937 C934 1.348 . S
C937 C935 1.356 . S
H938 C932 0.930 . S
H939 C936 0.930 . S
O940 Li880 1.956 . S
O940 Li881 1.970 . S
O940 Li882 1.961 . S
O940 C884 1.325 . S
O941 Li880 1.970 . S
O941 Li881 1.956 . S
O941 Li883 1.961 . S
O941 C890 1.325 . S
O942 Li880 1.961 . S
O942 Li882 1.956 . S
O942 Li883 1.970 . S
O942 C912 1.325 . S
O943 Li881 1.961 . S
O943 Li882 1.970 . S
O943 Li883 1.956 . S
O943 C918 1.325 . S
H944 C886 0.929 . S
H945 C887 0.930 . S
H946 C888 0.930 . S
H947 C889 0.930 . S
H948 C891 0.930 1_554 S
H949 C893 0.929 . S
H950 C894 0.930 . S
H951 C895 0.930 1_554 S
H952 C898 0.930 . S
H953 C901 0.929 . S
H954 C906 0.929 . S
H955 C907 0.930 . S
H956 C914 0.929 . S
H957 C915 0.930 . S
H958 C916 0.930 . S
H959 C917 0.930 . S
H960 C919 0.929 . S
H961 C920 0.930 . S
H962 C921 0.930 . S
H963 C922 0.930 . S
H964 C926 0.929 . S
H965 C928 0.930 . S
H966 C934 0.929 . S
H967 C935 0.930 . S
Li968 N985 1.990 . S
Li968 O1028 1.956 . S
Li968 O1029 1.970 . S
Li968 O1030 1.961 . S
Li969 N993 1.990 . S
Li969 O1028 1.970 . S
Li969 O1029 1.956 . S
Li969 O1031 1.961 . S
Li970 N1015 1.990 . S
Li970 O1028 1.961 . S
Li970 O1030 1.956 . S
Li970 O1031 1.970 . S
Li971 N1021 1.990 . S
Li971 O1029 1.961 . S
Li971 O1030 1.970 . S
Li971 O1031 1.956 . S
C972 C974 1.348 . S
C972 C975 1.356 . S
C972 O1028 1.325 . S
N973 C976 1.314 . S
N973 C977 1.279 . S
C974 C972 1.348 . S
C974 C976 1.353 . S
C974 H1032 0.929 . S
C975 C972 1.356 . S
C975 C977 1.358 . S
C975 H1033 0.930 . S
C976 N973 1.314 . S
C976 C974 1.353 . S
C976 H1034 0.930 . S
C977 N973 1.279 . S
C977 C975 1.358 . S
C977 H1035 0.930 . S
C978 C981 1.348 . S
C978 C982 1.356 . S
C978 O1029 1.325 . S
C979 N980 1.279 . S
C979 C982 1.358 . S
C979 H1036 0.930 . S
N980 C979 1.279 . S
N980 C983 1.314 . S
C981 C978 1.348 . S
C981 C983 1.353 . S
C981 H1037 0.929 . S
C982 C978 1.356 . S
C982 C979 1.358 . S
C982 H1038 0.930 . S
C983 N980 1.314 . S
C983 C981 1.353 . S
C983 H1039 0.930 . S
C984 N985 1.314 . S
C984 C989 1.353 . S
C984 H990 0.930 . S
N985 Li968 1.990 . S
N985 C984 1.314 . S
N985 C987 1.279 . S
C986 C987 1.358 . S
C986 C988 1.356 . S
C986 H1040 0.930 . S
C987 N985 1.279 . S
C987 C986 1.358 . S
C987 H991 0.930 . S
C988 C986 1.356 . S
C988 C989 1.348 . S
C989 C984 1.353 . S
C989 C988 1.348 . S
C989 H1041 0.929 . S
H990 C984 0.930 . S
H991 C987 0.930 . S
C992 N993 1.314 . S
C992 C994 1.353 . S
C992 H998 0.930 . S
N993 Li969 1.990 . S
N993 C992 1.314 . S
N993 C996 1.279 . S
C994 C992 1.353 . S
C994 C997 1.348 . S
C994 H1042 0.929 . S
C995 C996 1.358 . S
C995 C997 1.356 . S
C995 H1043 0.930 . S
C996 N993 1.279 . S
C996 C995 1.358 . S
C996 H999 0.930 . S
C997 C994 1.348 . S
C997 C995 1.356 . S
H998 C992 0.930 . S
H999 C996 0.930 . S
C1000 C1002 1.348 . S
C1000 C1003 1.356 . S
C1000 O1030 1.325 . S
N1001 C1004 1.314 . S
N1001 C1005 1.279 . S
C1002 C1000 1.348 . S
C1002 C1004 1.353 . S
C1002 H1044 0.929 . S
C1003 C1000 1.356 . S
C1003 C1005 1.358 . S
C1003 H1045 0.930 . S
C1004 N1001 1.314 . S
C1004 C1002 1.353 . S
C1004 H1046 0.930 . S
C1005 N1001 1.279 . S
C1005 C1003 1.358 . S
C1005 H1047 0.930 . S
C1006 C1007 1.348 . S
C1006 C1008 1.356 . S
C1006 O1031 1.325 . S
C1007 C1006 1.348 . S
C1007 C1009 1.353 . S
C1007 H1048 0.929 . S
C1008 C1006 1.356 . S
C1008 C1010 1.358 . S
C1008 H1049 0.930 . S
C1009 C1007 1.353 . S
C1009 N1011 1.314 . S
C1009 H1050 0.930 . S
C1010 C1008 1.358 . S
C1010 N1011 1.279 . S
C1010 H1051 0.930 . S
N1011 C1009 1.314 . S
N1011 C1010 1.279 . S
C1012 C1014 1.353 . S
C1012 N1015 1.314 . S
C1012 H1018 0.930 . S
C1013 N1015 1.279 . S
C1013 C1016 1.358 . S
C1013 H1019 0.930 . S
C1014 C1012 1.353 . S
C1014 C1017 1.348 . S
C1014 H1052 0.929 . S
N1015 Li970 1.990 . S
N1015 C1012 1.314 . S
N1015 C1013 1.279 . S
C1016 C1013 1.358 . S
C1016 C1017 1.356 . S
C1016 H1053 0.930 . S
C1017 C1014 1.348 . S
C1017 C1016 1.356 . S
H1018 C1012 0.930 . S
H1019 C1013 0.930 . S
C1020 N1021 1.314 . S
C1020 C1022 1.353 . S
C1020 H1026 0.930 . S
N1021 Li971 1.990 . S
N1021 C1020 1.314 . S
N1021 C1024 1.279 . S
C1022 C1020 1.353 . S
C1022 C1025 1.348 . S
C1022 H1054 0.929 . S
C1023 C1024 1.358 . S
C1023 C1025 1.356 . S
C1023 H1055 0.930 . S
C1024 N1021 1.279 . S
C1024 C1023 1.358 . S
C1024 H1027 0.930 . S
C1025 C1022 1.348 . S
C1025 C1023 1.356 . S
H1026 C1020 0.930 . S
H1027 C1024 0.930 . S
O1028 Li968 1.956 . S
O1028 Li969 1.970 . S
O1028 Li970 1.961 . S
O1028 C972 1.325 . S
O1029 Li968 1.970 . S
O1029 Li969 1.956 . S
O1029 Li971 1.961 . S
O1029 C978 1.325 . S
O1030 Li968 1.961 . S
O1030 Li970 1.956 . S
O1030 Li971 1.970 . S
O1030 C1000 1.325 . S
O1031 Li969 1.961 . S
O1031 Li970 1.970 . S
O1031 Li971 1.956 . S
O1031 C1006 1.325 . S
H1032 C974 0.929 . S
H1033 C975 0.930 . S
H1034 C976 0.930 . S
H1035 C977 0.930 . S
H1036 C979 0.930 . S
H1037 C981 0.929 . S
H1038 C982 0.930 . S
H1039 C983 0.930 . S
H1040 C986 0.930 . S
H1041 C989 0.929 . S
H1042 C994 0.929 . S
H1043 C995 0.930 . S
H1044 C1002 0.929 . S
H1045 C1003 0.930 . S
H1046 C1004 0.930 . S
H1047 C1005 0.930 . S
H1048 C1007 0.929 . S
H1049 C1008 0.930 . S
H1050 C1009 0.930 . S
H1051 C1010 0.930 . S
H1052 C1014 0.929 . S
H1053 C1016 0.930 . S
H1054 C1022 0.929 . S
H1055 C1023 0.930 . S
Li1056 N1073 1.990 . S
Li1056 O1116 1.956 . S
Li1056 O1117 1.970 . S
Li1056 O1118 1.961 . S
Li1057 N1081 1.990 1_655 S
Li1057 O1116 1.970 . S
Li1057 O1117 1.956 . S
Li1057 O1119 1.961 . S
Li1058 N1103 1.990 . S
Li1058 O1116 1.961 . S
Li1058 O1118 1.956 . S
Li1058 O1119 1.970 . S
Li1059 N1109 1.990 . S
Li1059 O1117 1.961 . S
Li1059 O1118 1.970 . S
Li1059 O1119 1.956 . S
C1060 C1062 1.318 1_655 S
C1060 C1063 1.356 . S
C1060 O1116 1.325 . S
N1061 C1064 1.314 . S
N1061 C1065 1.279 1_455 S
C1062 C1060 1.318 1_455 S
C1062 C1064 1.368 . S
C1062 H1120 0.946 . S
C1063 C1060 1.356 . S
C1063 C1065 1.358 . S
C1063 H1121 0.930 . S
C1064 N1061 1.314 . S
C1064 C1062 1.368 . S
C1064 H1122 0.930 . S
C1065 N1061 1.279 1_655 S
C1065 C1063 1.358 . S
C1065 H1123 0.930 . S
C1066 C1069 1.348 . S
C1066 C1070 1.356 . S
C1066 O1117 1.325 . S
C1067 N1068 1.279 . S
C1067 C1070 1.358 . S
C1067 H1124 0.930 . S
N1068 C1067 1.279 . S
N1068 C1071 1.314 . S
C1069 C1066 1.348 . S
C1069 C1071 1.353 . S
C1069 H1125 0.929 . S
C1070 C1066 1.356 . S
C1070 C1067 1.358 . S
C1070 H1126 0.930 . S
C1071 N1068 1.314 . S
C1071 C1069 1.353 . S
C1071 H1127 0.930 . S
C1072 N1073 1.314 . S
C1072 C1077 1.353 . S
C1072 H1078 0.930 . S
N1073 Li1056 1.990 . S
N1073 C1072 1.314 . S
N1073 C1075 1.279 . S
C1074 C1075 1.358 . S
C1074 C1076 1.356 . S
C1074 H1128 0.930 . S
C1075 N1073 1.279 . S
C1075 C1074 1.358 . S
C1075 H1079 0.930 . S
C1076 C1074 1.356 . S
C1076 C1077 1.348 . S
C1077 C1072 1.353 . S
C1077 C1076 1.348 . S
C1077 H1129 0.929 . S
H1078 C1072 0.930 . S
H1079 C1075 0.930 . S
C1080 N1081 1.314 . S
C1080 C1082 1.353 . S
C1080 H1086 0.930 . S
N1081 Li1057 1.990 1_455 S
N1081 C1080 1.314 . S
N1081 C1084 1.279 . S
C1082 C1080 1.353 . S
C1082 C1085 1.348 . S
C1082 H1130 0.929 . S
C1083 C1084 1.358 . S
C1083 C1085 1.356 . S
C1083 H1131 0.930 . S
C1084 N1081 1.279 . S
C1084 C1083 1.358 . S
C1084 H1087 0.930 . S
C1085 C1082 1.348 . S
C1085 C1083 1.356 . S
H1086 C1080 0.930 . S
H1087 C1084 0.930 . S
C1088 C1090 1.348 . S
C1088 C1091 1.356 . S
C1088 O1118 1.325 . S
N1089 C1092 1.314 . S
N1089 C1093 1.279 . S
C1090 C1088 1.348 . S
C1090 C1092 1.353 . S
C1090 H1132 0.929 . S
C1091 C1088 1.356 . S
C1091 C1093 1.358 . S
C1091 H1133 0.930 . S
C1092 N1089 1.314 . S
C1092 C1090 1.353 . S
C1092 H1134 0.930 . S
C1093 N1089 1.279 . S
C1093 C1091 1.358 . S
C1093 H1135 0.930 . S
C1094 C1095 1.348 . S
C1094 C1096 1.356 1_655 S
C1094 O1119 1.325 . S
C1095 C1094 1.348 . S
C1095 C1097 1.353 1_655 S
C1095 H1136 0.929 . S
C1096 C1094 1.356 1_455 S
C1096 C1098 1.358 . S
C1096 H1137 0.930 . S
C1097 C1095 1.353 1_455 S
C1097 N1099 1.314 1_554 S
C1097 H1138 0.930 1_554 S
C1098 C1096 1.358 . S
C1098 N1099 1.279 1_554 S
C1098 H1139 0.930 1_554 S
N1099 C1097 1.314 1_556 S
N1099 C1098 1.279 1_556 S
C1100 C1102 1.353 . S
C1100 N1103 1.314 . S
C1100 H1106 0.930 . S
C1101 N1103 1.279 . S
C1101 C1104 1.358 . S
C1101 H1107 0.930 . S
C1102 C1100 1.353 . S
C1102 C1105 1.348 . S
C1102 H1140 0.929 1_655 S
N1103 Li1058 1.990 . S
N1103 C1100 1.314 . S
N1103 C1101 1.279 . S
C1104 C1101 1.358 . S
C1104 C1105 1.356 . S
C1104 H1141 0.930 . S
C1105 C1102 1.348 . S
C1105 C1104 1.356 . S
H1106 C1100 0.930 . S
H1107 C1101 0.930 . S
C1108 N1109 1.314 . S
C1108 C1110 1.353 . S
C1108 H1114 0.930 . S
N1109 Li1059 1.990 . S
N1109 C1108 1.314 . S
N1109 C1112 1.279 . S
C1110 C1108 1.353 . S
C1110 C1113 1.348 1_554 S
C1110 H1142 0.929 . S
C1111 C1112 1.358 1_556 S
C1111 C1113 1.356 . S
C1111 H1143 0.930 . S
C1112 N1109 1.279 . S
C1112 C1111 1.358 1_554 S
C1112 H1115 0.927 1_554 S
C1113 C1110 1.348 1_556 S
C1113 C1111 1.356 . S
H1114 C1108 0.930 . S
H1115 C1112 0.927 1_556 S
O1116 Li1056 1.956 . S
O1116 Li1057 1.970 . S
O1116 Li1058 1.961 . S
O1116 C1060 1.325 . S
O1117 Li1056 1.970 . S
O1117 Li1057 1.956 . S
O1117 Li1059 1.961 . S
O1117 C1066 1.325 . S
O1118 Li1056 1.961 . S
O1118 Li1058 1.956 . S
O1118 Li1059 1.970 . S
O1118 C1088 1.325 . S
O1119 Li1057 1.961 . S
O1119 Li1058 1.970 . S
O1119 Li1059 1.956 . S
O1119 C1094 1.325 . S
H1120 C1062 0.946 . S
H1121 C1063 0.930 . S
H1122 C1064 0.930 . S
H1123 C1065 0.930 . S
H1124 C1067 0.930 . S
H1125 C1069 0.929 . S
H1126 C1070 0.930 . S
H1127 C1071 0.930 . S
H1128 C1074 0.930 . S
H1129 C1077 0.929 . S
H1130 C1082 0.929 . S
H1131 C1083 0.930 . S
H1132 C1090 0.929 . S
H1133 C1091 0.930 . S
H1134 C1092 0.930 . S
H1135 C1093 0.930 . S
H1136 C1095 0.929 . S
H1137 C1096 0.930 . S
H1138 C1097 0.930 1_556 S
H1139 C1098 0.930 1_556 S
H1140 C1102 0.929 1_455 S
H1141 C1104 0.930 . S
H1142 C1110 0.929 . S
H1143 C1111 0.930 . S
Li1144 N1161 1.990 1_565 S
Li1144 O1204 1.956 . S
Li1144 O1205 1.970 . S
Li1144 O1206 1.961 . S
Li1145 N1169 1.990 . S
Li1145 O1204 1.970 . S
Li1145 O1205 1.956 . S
Li1145 O1207 1.961 . S
Li1146 N1191 1.990 . S
Li1146 O1204 1.961 . S
Li1146 O1206 1.956 . S
Li1146 O1207 1.970 . S
Li1147 N1197 1.990 . S
Li1147 O1205 1.961 . S
Li1147 O1206 1.970 . S
Li1147 O1207 1.956 . S
C1148 C1150 1.348 . S
C1148 C1151 1.356 . S
C1148 O1204 1.325 . S
N1149 C1152 1.314 . S
N1149 C1153 1.279 . S
C1150 C1148 1.348 . S
C1150 C1152 1.353 . S
C1150 H1208 0.929 . S
C1151 C1148 1.356 . S
C1151 C1153 1.358 . S
C1151 H1209 0.930 . S
C1152 N1149 1.314 . S
C1152 C1150 1.353 . S
C1152 H1210 0.930 . S
C1153 N1149 1.279 . S
C1153 C1151 1.358 . S
C1153 H1211 0.930 . S
C1154 C1157 1.318 1_565 S
C1154 C1158 1.356 . S
C1154 O1205 1.325 . S
C1155 N1156 1.279 1_565 S
C1155 C1158 1.358 . S
C1155 H1212 0.930 . S
N1156 C1155 1.279 1_545 S
N1156 C1159 1.314 . S
C1157 C1154 1.318 1_545 S
C1157 C1159 1.368 . S
C1157 H1213 0.945 . S
C1158 C1154 1.356 . S
C1158 C1155 1.358 . S
C1158 H1214 0.930 . S
C1159 N1156 1.314 . S
C1159 C1157 1.368 . S
C1159 H1215 0.930 . S
C1160 N1161 1.314 . S
C1160 C1165 1.353 . S
C1160 H1166 0.930 . S
N1161 Li1144 1.990 1_545 S
N1161 C1160 1.314 . S
N1161 C1163 1.279 . S
C1162 C1163 1.358 . S
C1162 C1164 1.356 . S
C1162 H1216 0.930 . S
C1163 N1161 1.279 . S
C1163 C1162 1.358 . S
C1163 H1167 0.930 . S
C1164 C1162 1.356 . S
C1164 C1165 1.348 . S
C1165 C1160 1.353 . S
C1165 C1164 1.348 . S
C1165 H1217 0.929 . S
H1166 C1160 0.930 . S
H1167 C1163 0.930 . S
C1168 N1169 1.314 . S
C1168 C1170 1.353 . S
C1168 H1174 0.930 . S
N1169 Li1145 1.990 . S
N1169 C1168 1.314 . S
N1169 C1172 1.279 . S
C1170 C1168 1.353 . S
C1170 C1173 1.348 . S
C1170 H1218 0.929 . S
C1171 C1172 1.358 . S
C1171 C1173 1.356 . S
C1171 H1219 0.930 . S
C1172 N1169 1.279 . S
C1172 C1171 1.358 . S
C1172 H1175 0.930 . S
C1173 C1170 1.348 . S
C1173 C1171 1.356 . S
H1174 C1168 0.930 . S
H1175 C1172 0.930 . S
C1176 C1178 1.348 . S
C1176 C1179 1.356 1_565 S
C1176 O1206 1.325 . S
N1177 C1180 1.314 . S
N1177 C1181 1.279 . S
C1178 C1176 1.348 . S
C1178 C1180 1.353 1_565 S
C1178 H1220 0.929 . S
C1179 C1176 1.356 1_545 S
C1179 C1181 1.358 . S
C1179 H1221 0.930 . S
C1180 N1177 1.314 . S
C1180 C1178 1.353 1_545 S
C1180 H1222 0.930 . S
C1181 N1177 1.279 . S
C1181 C1179 1.358 . S
C1181 H1223 0.930 . S
C1182 C1183 1.348 . S
C1182 C1184 1.356 . S
C1182 O1207 1.325 . S
C1183 C1182 1.348 . S
C1183 C1185 1.353 . S
C1183 H1224 0.929 . S
C1184 C1182 1.356 . S
C1184 C1186 1.358 . S
C1184 H1225 0.930 . S
C1185 C1183 1.353 . S
C1185 N1187 1.314 . S
C1185 H1226 0.930 . S
C1186 C1184 1.358 . S
C1186 N1187 1.279 . S
C1186 H1227 0.930 . S
N1187 C1185 1.314 . S
N1187 C1186 1.279 . S
C1188 C1190 1.353 . S
C1188 N1191 1.314 . S
C1188 H1194 0.930 . S
C1189 N1191 1.279 . S
C1189 C1192 1.358 . S
C1189 H1195 0.930 . S
C1190 C1188 1.353 . S
C1190 C1193 1.348 . S
C1190 H1228 0.929 . S
N1191 Li1146 1.990 . S
N1191 C1188 1.314 . S
N1191 C1189 1.279 . S
C1192 C1189 1.358 . S
C1192 C1193 1.356 . S
C1192 H1229 0.930 . S
C1193 C1190 1.348 . S
C1193 C1192 1.356 . S
H1194 C1188 0.930 . S
H1195 C1189 0.930 . S
C1196 N1197 1.314 . S
C1196 C1198 1.353 . S
C1196 H1202 0.930 . S
N1197 Li1147 1.990 . S
N1197 C1196 1.314 . S
N1197 C1200 1.279 . S
C1198 C1196 1.353 . S
C1198 C1201 1.348 . S
C1198 H1230 0.929 1_565 S
C1199 C1200 1.358 . S
C1199 C1201 1.356 . S
C1199 H1231 0.930 . S
C1200 N1197 1.279 . S
C1200 C1199 1.358 . S
C1200 H1203 0.930 . S
C1201 C1198 1.348 . S
C1201 C1199 1.356 . S
H1202 C1196 0.930 . S
H1203 C1200 0.930 . S
O1204 Li1144 1.956 . S
O1204 Li1145 1.970 . S
O1204 Li1146 1.961 . S
O1204 C1148 1.325 . S
O1205 Li1144 1.970 . S
O1205 Li1145 1.956 . S
O1205 Li1147 1.961 . S
O1205 C1154 1.325 . S
O1206 Li1144 1.961 . S
O1206 Li1146 1.956 . S
O1206 Li1147 1.970 . S
O1206 C1176 1.325 . S
O1207 Li1145 1.961 . S
O1207 Li1146 1.970 . S
O1207 Li1147 1.956 . S
O1207 C1182 1.325 . S
H1208 C1150 0.929 . S
H1209 C1151 0.930 . S
H1210 C1152 0.930 . S
H1211 C1153 0.930 . S
H1212 C1155 0.930 . S
H1213 C1157 0.945 . S
H1214 C1158 0.930 . S
H1215 C1159 0.930 . S
H1216 C1162 0.930 . S
H1217 C1165 0.929 . S
H1218 C1170 0.929 . S
H1219 C1171 0.930 . S
H1220 C1178 0.929 . S
H1221 C1179 0.930 . S
H1222 C1180 0.930 . S
H1223 C1181 0.930 . S
H1224 C1183 0.929 . S
H1225 C1184 0.930 . S
H1226 C1185 0.930 . S
H1227 C1186 0.930 . S
H1228 C1190 0.929 . S
H1229 C1192 0.930 . S
H1230 C1198 0.929 1_545 S
H1231 C1199 0.930 . S
Li1232 N1249 1.990 . S
Li1232 O1292 1.956 . S
Li1232 O1293 1.970 . S
Li1232 O1294 1.961 . S
Li1233 N1257 1.990 . S
Li1233 O1292 1.970 . S
Li1233 O1293 1.956 . S
Li1233 O1295 1.961 . S
Li1234 N1279 1.990 . S
Li1234 O1292 1.961 . S
Li1234 O1294 1.956 . S
Li1234 O1295 1.970 . S
Li1235 N1285 1.990 . S
Li1235 O1293 1.961 . S
Li1235 O1294 1.970 . S
Li1235 O1295 1.956 . S
C1236 C1238 1.348 . S
C1236 C1239 1.356 . S
C1236 O1292 1.325 . S
N1237 C1240 1.314 . S
N1237 C1241 1.279 . S
C1238 C1236 1.348 . S
C1238 C1240 1.353 . S
C1238 H1296 0.929 . S
C1239 C1236 1.356 . S
C1239 C1241 1.358 . S
C1239 H1297 0.930 . S
C1240 N1237 1.314 . S
C1240 C1238 1.353 . S
C1240 H1298 0.930 . S
C1241 N1237 1.279 . S
C1241 C1239 1.358 . S
C1241 H1299 0.930 . S
C1242 C1245 1.348 . S
C1242 C1246 1.356 . S
C1242 O1293 1.325 . S
C1243 N1244 1.279 . S
C1243 C1246 1.358 . S
C1243 H1300 0.930 . S
N1244 C1243 1.279 . S
N1244 C1247 1.314 . S
C1245 C1242 1.348 . S
C1245 C1247 1.353 . S
C1245 H1301 0.929 . S
C1246 C1242 1.356 . S
C1246 C1243 1.358 . S
C1246 H1302 0.930 . S
C1247 N1244 1.314 . S
C1247 C1245 1.353 . S
C1247 H1303 0.930 . S
C1248 N1249 1.314 . S
C1248 C1253 1.353 . S
C1248 H1254 0.930 . S
N1249 Li1232 1.990 . S
N1249 C1248 1.314 . S
N1249 C1251 1.279 . S
C1250 C1251 1.358 . S
C1250 C1252 1.356 . S
C1250 H1304 0.930 . S
C1251 N1249 1.279 . S
C1251 C1250 1.358 . S
C1251 H1255 0.930 . S
C1252 C1250 1.356 . S
C1252 C1253 1.348 . S
C1253 C1248 1.353 . S
C1253 C1252 1.348 . S
C1253 H1305 0.929 . S
H1254 C1248 0.930 . S
H1255 C1251 0.930 . S
C1256 N1257 1.314 . S
C1256 C1258 1.353 . S
C1256 H1262 0.930 . S
N1257 Li1233 1.990 . S
N1257 C1256 1.314 . S
N1257 C1260 1.279 . S
C1258 C1256 1.353 . S
C1258 C1261 1.348 . S
C1258 H1306 0.929 . S
C1259 C1260 1.358 . S
C1259 C1261 1.356 . S
C1259 H1307 0.930 . S
C1260 N1257 1.279 . S
C1260 C1259 1.358 . S
C1260 H1263 0.930 . S
C1261 C1258 1.348 . S
C1261 C1259 1.356 . S
H1262 C1256 0.930 . S
H1263 C1260 0.930 . S
C1264 C1266 1.348 . S
C1264 C1267 1.356 . S
C1264 O1294 1.325 . S
N1265 C1268 1.314 1_556 S
N1265 C1269 1.279 1_556 S
C1266 C1264 1.348 . S
C1266 C1268 1.353 . S
C1266 H1308 0.929 . S
C1267 C1264 1.356 . S
C1267 C1269 1.358 . S
C1267 H1309 0.930 . S
C1268 N1265 1.314 1_554 S
C1268 C1266 1.353 . S
C1268 H1310 0.930 1_554 S
C1269 N1265 1.279 1_554 S
C1269 C1267 1.358 . S
C1269 H1311 0.930 1_554 S
C1270 C1271 1.348 . S
C1270 C1272 1.356 . S
C1270 O1295 1.325 . S
C1271 C1270 1.348 . S
C1271 C1273 1.353 . S
C1271 H1312 0.929 . S
C1272 C1270 1.356 . S
C1272 C1274 1.358 . S
C1272 H1313 0.930 . S
C1273 C1271 1.353 . S
C1273 N1275 1.314 . S
C1273 H1314 0.930 . S
C1274 C1272 1.358 . S
C1274 N1275 1.279 . S
C1274 H1315 0.930 . S
N1275 C1273 1.314 . S
N1275 C1274 1.279 . S
C1276 C1278 1.353 . S
C1276 N1279 1.314 . S
C1276 H1282 0.930 . S
C1277 N1279 1.279 . S
C1277 C1280 1.358 1_554 S
C1277 H1283 0.927 1_554 S
C1278 C1276 1.353 . S
C1278 C1281 1.348 1_554 S
C1278 H1316 0.929 . S
N1279 Li1234 1.990 . S
N1279 C1276 1.314 . S
N1279 C1277 1.279 . S
C1280 C1277 1.358 1_556 S
C1280 C1281 1.356 . S
C1280 H1317 0.930 . S
C1281 C1278 1.348 1_556 S
C1281 C1280 1.356 . S
H1282 C1276 0.930 . S
H1283 C1277 0.927 1_556 S
C1284 N1285 1.314 . S
C1284 C1286 1.353 . S
C1284 H1290 0.930 . S
N1285 Li1235 1.990 . S
N1285 C1284 1.314 . S
N1285 C1288 1.279 . S
C1286 C1284 1.353 . S
C1286 C1289 1.348 . S
C1286 H1318 0.929 . S
C1287 C1288 1.358 . S
C1287 C1289 1.356 . S
C1287 H1319 0.930 . S
C1288 N1285 1.279 . S
C1288 C1287 1.358 . S
C1288 H1291 0.930 . S
C1289 C1286 1.348 . S
C1289 C1287 1.356 . S
H1290 C1284 0.930 . S
H1291 C1288 0.930 . S
O1292 Li1232 1.956 . S
O1292 Li1233 1.970 . S
O1292 Li1234 1.961 . S
O1292 C1236 1.325 . S
O1293 Li1232 1.970 . S
O1293 Li1233 1.956 . S
O1293 Li1235 1.961 . S
O1293 C1242 1.325 . S
O1294 Li1232 1.961 . S
O1294 Li1234 1.956 . S
O1294 Li1235 1.970 . S
O1294 C1264 1.325 . S
O1295 Li1233 1.961 . S
O1295 Li1234 1.970 . S
O1295 Li1235 1.956 . S
O1295 C1270 1.325 . S
H1296 C1238 0.929 . S
H1297 C1239 0.930 . S
H1298 C1240 0.930 . S
H1299 C1241 0.930 . S
H1300 C1243 0.930 . S
H1301 C1245 0.929 . S
H1302 C1246 0.930 . S
H1303 C1247 0.930 . S
H1304 C1250 0.930 . S
H1305 C1253 0.929 . S
H1306 C1258 0.929 . S
H1307 C1259 0.930 . S
H1308 C1266 0.929 . S
H1309 C1267 0.930 . S
H1310 C1268 0.930 1_556 S
H1311 C1269 0.930 1_556 S
H1312 C1271 0.929 . S
H1313 C1272 0.930 . S
H1314 C1273 0.930 . S
H1315 C1274 0.930 . S
H1316 C1278 0.929 . S
H1317 C1280 0.930 . S
H1318 C1286 0.929 . S
H1319 C1287 0.930 . S
Li1320 N1337 1.990 . S
Li1320 O1380 1.956 . S
Li1320 O1381 1.970 . S
Li1320 O1382 1.961 . S
Li1321 N1345 1.990 . S
Li1321 O1380 1.970 . S
Li1321 O1381 1.956 . S
Li1321 O1383 1.961 . S
Li1322 N1367 1.990 . S
Li1322 O1380 1.961 . S
Li1322 O1382 1.956 . S
Li1322 O1383 1.970 . S
Li1323 N1373 1.990 . S
Li1323 O1381 1.961 . S
Li1323 O1382 1.970 . S
Li1323 O1383 1.956 . S
C1324 C1326 1.348 . S
C1324 C1327 1.356 . S
C1324 O1380 1.325 . S
N1325 C1328 1.314 . S
N1325 C1329 1.279 . S
C1326 C1324 1.348 . S
C1326 C1328 1.353 . S
C1326 H1384 0.929 . S
C1327 C1324 1.356 . S
C1327 C1329 1.358 . S
C1327 H1385 0.930 . S
C1328 N1325 1.314 . S
C1328 C1326 1.353 . S
C1328 H1386 0.930 . S
C1329 N1325 1.279 . S
C1329 C1327 1.358 . S
C1329 H1387 0.930 . S
C1330 C1333 1.348 . S
C1330 C1334 1.356 . S
C1330 O1381 1.325 . S
C1331 N1332 1.279 . S
C1331 C1334 1.358 . S
C1331 H1388 0.930 . S
N1332 C1331 1.279 . S
N1332 C1335 1.314 . S
C1333 C1330 1.348 . S
C1333 C1335 1.353 . S
C1333 H1389 0.929 . S
C1334 C1330 1.356 . S
C1334 C1331 1.358 . S
C1334 H1390 0.930 . S
C1335 N1332 1.314 . S
C1335 C1333 1.353 . S
C1335 H1391 0.930 . S
C1336 N1337 1.314 . S
C1336 C1341 1.353 . S
C1336 H1342 0.930 . S
N1337 Li1320 1.990 . S
N1337 C1336 1.314 . S
N1337 C1339 1.279 . S
C1338 C1339 1.358 . S
C1338 C1340 1.356 . S
C1338 H1392 0.930 . S
C1339 N1337 1.279 . S
C1339 C1338 1.358 . S
C1339 H1343 0.930 . S
C1340 C1338 1.356 . S
C1340 C1341 1.348 . S
C1341 C1336 1.353 . S
C1341 C1340 1.348 . S
C1341 H1393 0.929 . S
H1342 C1336 0.930 . S
H1343 C1339 0.930 . S
C1344 N1345 1.314 . S
C1344 C1346 1.353 . S
C1344 H1350 0.930 . S
N1345 Li1321 1.990 . S
N1345 C1344 1.314 . S
N1345 C1348 1.279 . S
C1346 C1344 1.353 . S
C1346 C1349 1.348 . S
C1346 H1394 0.929 . S
C1347 C1348 1.358 . S
C1347 C1349 1.356 . S
C1347 H1395 0.930 . S
C1348 N1345 1.279 . S
C1348 C1347 1.358 . S
C1348 H1351 0.930 . S
C1349 C1346 1.348 . S
C1349 C1347 1.356 . S
H1350 C1344 0.930 . S
H1351 C1348 0.930 . S
C1352 C1354 1.348 . S
C1352 C1355 1.356 . S
C1352 O1382 1.325 . S
N1353 C1356 1.314 . S
N1353 C1357 1.279 . S
C1354 C1352 1.348 . S
C1354 C1356 1.353 . S
C1354 H1396 0.929 . S
C1355 C1352 1.356 . S
C1355 C1357 1.358 . S
C1355 H1397 0.930 . S
C1356 N1353 1.314 . S
C1356 C1354 1.353 . S
C1356 H1398 0.930 . S
C1357 N1353 1.279 . S
C1357 C1355 1.358 . S
C1357 H1399 0.930 . S
C1358 C1359 1.348 . S
C1358 C1360 1.356 . S
C1358 O1383 1.325 . S
C1359 C1358 1.348 . S
C1359 C1361 1.353 . S
C1359 H1400 0.929 . S
C1360 C1358 1.356 . S
C1360 C1362 1.358 . S
C1360 H1401 0.930 . S
C1361 C1359 1.353 . S
C1361 N1363 1.314 . S
C1361 H1402 0.930 . S
C1362 C1360 1.358 . S
C1362 N1363 1.279 . S
C1362 H1403 0.930 . S
N1363 C1361 1.314 . S
N1363 C1362 1.279 . S
C1364 C1366 1.353 . S
C1364 N1367 1.314 . S
C1364 H1370 0.930 . S
C1365 N1367 1.279 . S
C1365 C1368 1.358 . S
C1365 H1371 0.930 . S
C1366 C1364 1.353 . S
C1366 C1369 1.348 . S
C1366 H1404 0.929 . S
N1367 Li1322 1.990 . S
N1367 C1364 1.314 . S
N1367 C1365 1.279 . S
C1368 C1365 1.358 . S
C1368 C1369 1.356 . S
C1368 H1405 0.930 . S
C1369 C1366 1.348 . S
C1369 C1368 1.356 . S
H1370 C1364 0.930 . S
H1371 C1365 0.930 . S
C1372 N1373 1.314 . S
C1372 C1374 1.353 . S
C1372 H1378 0.930 . S
N1373 Li1323 1.990 . S
N1373 C1372 1.314 . S
N1373 C1376 1.279 . S
C1374 C1372 1.353 . S
C1374 C1377 1.348 . S
C1374 H1406 0.929 . S
C1375 C1376 1.358 . S
C1375 C1377 1.356 . S
C1375 H1407 0.930 . S
C1376 N1373 1.279 . S
C1376 C1375 1.358 . S
C1376 H1379 0.930 . S
C1377 C1374 1.348 . S
C1377 C1375 1.356 . S
H1378 C1372 0.930 . S
H1379 C1376 0.930 . S
O1380 Li1320 1.956 . S
O1380 Li1321 1.970 . S
O1380 Li1322 1.961 . S
O1380 C1324 1.325 . S
O1381 Li1320 1.970 . S
O1381 Li1321 1.956 . S
O1381 Li1323 1.961 . S
O1381 C1330 1.325 . S
O1382 Li1320 1.961 . S
O1382 Li1322 1.956 . S
O1382 Li1323 1.970 . S
O1382 C1352 1.325 . S
O1383 Li1321 1.961 . S
O1383 Li1322 1.970 . S
O1383 Li1323 1.956 . S
O1383 C1358 1.325 . S
H1384 C1326 0.929 . S
H1385 C1327 0.930 . S
H1386 C1328 0.930 . S
H1387 C1329 0.930 . S
H1388 C1331 0.930 . S
H1389 C1333 0.929 . S
H1390 C1334 0.930 . S
H1391 C1335 0.930 . S
H1392 C1338 0.930 . S
H1393 C1341 0.929 . S
H1394 C1346 0.929 . S
H1395 C1347 0.930 . S
H1396 C1354 0.929 . S
H1397 C1355 0.930 . S
H1398 C1356 0.930 . S
H1399 C1357 0.930 . S
H1400 C1359 0.929 . S
H1401 C1360 0.930 . S
H1402 C1361 0.930 . S
H1403 C1362 0.930 . S
H1404 C1366 0.929 . S
H1405 C1368 0.930 . S
H1406 C1374 0.929 . S
H1407 C1375 0.930 . S
H1408 C1416 0.950 . S
H1409 C1421 0.950 1_655 S
H1410 C1418 0.950 . S
H1411 C1420 0.950 1_656 S
H1412 C1422 0.950 1_655 S
H1413 C1424 0.950 1_655 S
H1414 C1426 0.950 1_554 S
H1415 C1427 0.950 . S
C1416 H1408 0.950 . S
C1416 C1417 1.386 . S
C1416 C1418 1.391 . S
C1417 C1416 1.386 . S
C1417 C1421 1.393 . S
C1418 H1410 0.950 . S
C1418 C1416 1.391 . S
C1418 C1419 1.400 . S
C1419 C1418 1.400 . S
C1419 C1420 1.398 . S
C1419 C1425 1.491 1_554 S
C1420 H1411 0.950 1_454 S
C1420 C1419 1.398 . S
C1420 C1421 1.391 . S
C1421 H1409 0.950 1_455 S
C1421 C1417 1.393 . S
C1421 C1420 1.391 . S
C1422 H1412 0.950 1_455 S
C1422 C1423 1.386 . S
C1422 C1424 1.391 . S
C1423 C1422 1.386 . S
C1423 C1427 1.393 . S
C1424 H1413 0.950 1_455 S
C1424 C1422 1.391 . S
C1424 C1425 1.400 . S
C1425 C1419 1.491 1_556 S
C1425 C1424 1.400 . S
C1425 C1426 1.398 . S
C1426 H1414 0.950 1_556 S
C1426 C1425 1.398 . S
C1426 C1427 1.391 . S
C1427 H1415 0.950 . S
C1427 C1423 1.393 . S
C1427 C1426 1.391 . S
H1428 C1436 0.950 . S
H1429 C1441 0.950 . S
H1430 C1438 0.950 . S
H1431 C1440 0.950 . S
H1432 C1442 0.950 . S
H1433 C1444 0.950 . S
H1434 C1446 0.950 . S
H1435 C1447 0.950 . S
C1436 H1428 0.950 . S
C1436 C1437 1.386 . S
C1436 C1438 1.391 . S
C1437 C1436 1.386 . S
C1437 C1441 1.393 . S
C1438 H1430 0.950 . S
C1438 C1436 1.391 . S
C1438 C1439 1.400 . S
C1439 C1438 1.400 . S
C1439 C1440 1.398 . S
C1439 C1445 1.491 . S
C1440 H1431 0.950 . S
C1440 C1439 1.398 . S
C1440 C1441 1.391 . S
C1441 H1429 0.950 . S
C1441 C1437 1.393 . S
C1441 C1440 1.391 . S
C1442 H1432 0.950 . S
C1442 C1443 1.386 . S
C1442 C1444 1.391 . S
C1443 C1442 1.386 . S
C1443 C1447 1.393 . S
C1444 H1433 0.950 . S
C1444 C1442 1.391 . S
C1444 C1445 1.400 . S
C1445 C1439 1.491 . S
C1445 C1444 1.400 . S
C1445 C1446 1.398 . S
C1446 H1434 0.950 . S
C1446 C1445 1.398 . S
C1446 C1447 1.391 . S
C1447 H1435 0.950 . S
C1447 C1443 1.393 . S
C1447 C1446 1.391 . S
H1448 C1456 0.950 . S
H1449 C1461 0.950 . S
H1450 C1458 0.950 . S
H1451 C1460 0.950 1_556 S
H1452 C1462 0.950 . S
H1453 C1464 0.950 . S
H1454 C1466 0.950 1_554 S
H1455 C1467 0.950 . S
C1456 H1448 0.950 . S
C1456 C1457 1.386 . S
C1456 C1458 1.391 . S
C1457 C1456 1.386 . S
C1457 C1461 1.393 . S
C1458 H1450 0.950 . S
C1458 C1456 1.391 . S
C1458 C1459 1.400 . S
C1459 C1458 1.400 . S
C1459 C1460 1.398 . S
C1459 C1465 1.491 1_554 S
C1460 H1451 0.950 1_554 S
C1460 C1459 1.398 . S
C1460 C1461 1.391 . S
C1461 H1449 0.950 . S
C1461 C1457 1.393 . S
C1461 C1460 1.391 . S
C1462 H1452 0.950 . S
C1462 C1463 1.386 . S
C1462 C1464 1.391 . S
C1463 C1462 1.386 . S
C1463 C1467 1.393 . S
C1464 H1453 0.950 . S
C1464 C1462 1.391 . S
C1464 C1465 1.400 . S
C1465 C1459 1.491 1_556 S
C1465 C1464 1.400 . S
C1465 C1466 1.398 . S
C1466 H1454 0.950 1_556 S
C1466 C1465 1.398 . S
C1466 C1467 1.391 . S
C1467 H1455 0.950 . S
C1467 C1463 1.393 . S
C1467 C1466 1.391 . S
H1468 C1476 0.950 . S
H1469 C1481 0.950 . S
H1470 C1478 0.950 . S
H1471 C1480 0.950 . S
H1472 C1482 0.950 . S
H1473 C1484 0.950 . S
H1474 C1486 0.950 . S
H1475 C1487 0.950 . S
C1476 H1468 0.950 . S
C1476 C1477 1.386 . S
C1476 C1478 1.391 . S
C1477 C1476 1.386 . S
C1477 C1481 1.393 . S
C1478 H1470 0.950 . S
C1478 C1476 1.391 . S
C1478 C1479 1.400 . S
C1479 C1478 1.400 . S
C1479 C1480 1.398 . S
C1479 C1485 1.491 . S
C1480 H1471 0.950 . S
C1480 C1479 1.398 . S
C1480 C1481 1.391 . S
C1481 H1469 0.950 . S
C1481 C1477 1.393 . S
C1481 C1480 1.391 . S
C1482 H1472 0.950 . S
C1482 C1483 1.386 . S
C1482 C1484 1.391 . S
C1483 C1482 1.386 . S
C1483 C1487 1.393 . S
C1484 H1473 0.950 . S
C1484 C1482 1.391 . S
C1484 C1485 1.400 . S
C1485 C1479 1.491 . S
C1485 C1484 1.400 . S
C1485 C1486 1.398 . S
C1486 H1474 0.950 . S
C1486 C1485 1.398 . S
C1486 C1487 1.391 . S
C1487 H1475 0.950 . S
C1487 C1483 1.393 . S
C1487 C1486 1.391 . S
H1488 C1496 0.950 . S
H1489 C1501 0.950 1_455 S
H1490 C1498 0.950 . S
H1491 C1500 0.950 1_455 S
H1492 C1502 0.950 1_455 S
H1493 C1504 0.950 1_455 S
H1494 C1506 0.950 . S
H1495 C1507 0.950 . S
C1496 H1488 0.950 . S
C1496 C1497 1.386 . S
C1496 C1498 1.391 . S
C1497 C1496 1.386 . S
C1497 C1501 1.393 . S
C1498 H1490 0.950 . S
C1498 C1496 1.391 . S
C1498 C1499 1.400 . S
C1499 C1498 1.400 . S
C1499 C1500 1.398 . S
C1499 C1505 1.491 1_556 S
C1500 H1491 0.950 1_655 S
C1500 C1499 1.398 . S
C1500 C1501 1.391 . S
C1501 H1489 0.950 1_655 S
C1501 C1497 1.393 . S
C1501 C1500 1.391 . S
C1502 H1492 0.950 1_655 S
C1502 C1503 1.386 . S
C1502 C1504 1.391 . S
C1503 C1502 1.386 . S
C1503 C1507 1.393 . S
C1504 H1493 0.950 1_655 S
C1504 C1502 1.391 . S
C1504 C1505 1.400 . S
C1505 C1499 1.491 1_554 S
C1505 C1504 1.400 . S
C1505 C1506 1.398 . S
C1506 H1494 0.950 . S
C1506 C1505 1.398 . S
C1506 C1507 1.391 . S
C1507 H1495 0.950 . S
C1507 C1503 1.393 . S
C1507 C1506 1.391 . S
H1508 C1516 0.950 . S
H1509 C1521 0.950 . S
H1510 C1518 0.950 . S
H1511 C1520 0.950 . S
H1512 C1522 0.950 . S
H1513 C1524 0.950 . S
H1514 C1526 0.950 . S
H1515 C1527 0.950 . S
C1516 H1508 0.950 . S
C1516 C1517 1.386 . S
C1516 C1518 1.391 . S
C1517 C1516 1.386 . S
C1517 C1521 1.393 . S
C1518 H1510 0.950 . S
C1518 C1516 1.391 . S
C1518 C1519 1.400 . S
C1519 C1518 1.400 . S
C1519 C1520 1.398 . S
C1519 C1525 1.491 . S
C1520 H1511 0.950 . S
C1520 C1519 1.398 . S
C1520 C1521 1.391 . S
C1521 H1509 0.950 . S
C1521 C1517 1.393 . S
C1521 C1520 1.391 . S
C1522 H1512 0.950 . S
C1522 C1523 1.386 . S
C1522 C1524 1.391 . S
C1523 C1522 1.386 . S
C1523 C1527 1.393 . S
C1524 H1513 0.950 . S
C1524 C1522 1.391 . S
C1524 C1525 1.400 . S
C1525 C1519 1.491 . S
C1525 C1524 1.400 . S
C1525 C1526 1.398 . S
C1526 H1514 0.950 . S
C1526 C1525 1.398 . S
C1526 C1527 1.391 . S
C1527 H1515 0.950 . S
C1527 C1523 1.393 . S
C1527 C1526 1.391 . S
H1528 C1536 0.950 . S
H1529 C1541 0.950 . S
H1530 C1538 0.950 . S
H1531 C1540 0.950 . S
H1532 C1542 0.950 . S
H1533 C1544 0.950 . S
H1534 C1546 0.950 . S
H1535 C1547 0.950 . S
C1536 H1528 0.950 . S
C1536 C1537 1.386 . S
C1536 C1538 1.391 . S
C1537 C1536 1.386 . S
C1537 C1541 1.393 . S
C1538 H1530 0.950 . S
C1538 C1536 1.391 . S
C1538 C1539 1.400 . S
C1539 C1538 1.400 . S
C1539 C1540 1.398 . S
C1539 C1545 1.491 1_556 S
C1540 H1531 0.950 . S
C1540 C1539 1.398 . S
C1540 C1541 1.391 . S
C1541 H1529 0.950 . S
C1541 C1537 1.393 . S
C1541 C1540 1.391 . S
C1542 H1532 0.950 . S
C1542 C1543 1.386 . S
C1542 C1544 1.391 . S
C1543 C1542 1.386 . S
C1543 C1547 1.393 . S
C1544 H1533 0.950 . S
C1544 C1542 1.391 . S
C1544 C1545 1.400 . S
C1545 C1539 1.491 1_554 S
C1545 C1544 1.400 . S
C1545 C1546 1.398 . S
C1546 H1534 0.950 . S
C1546 C1545 1.398 . S
C1546 C1547 1.391 . S
C1547 H1535 0.950 . S
C1547 C1543 1.393 . S
C1547 C1546 1.391 . S
H1548 C1556 0.950 . S
H1549 C1561 0.950 . S
H1550 C1558 0.950 . S
H1551 C1560 0.950 . S
H1552 C1562 0.950 . S
H1553 C1564 0.950 . S
H1554 C1566 0.950 . S
H1555 C1567 0.950 . S
C1556 H1548 0.950 . S
C1556 C1557 1.386 . S
C1556 C1558 1.391 . S
C1557 C1556 1.386 . S
C1557 C1561 1.393 . S
C1558 H1550 0.950 . S
C1558 C1556 1.391 . S
C1558 C1559 1.400 . S
C1559 C1558 1.400 . S
C1559 C1560 1.398 . S
C1559 C1565 1.491 . S
C1560 H1551 0.950 . S
C1560 C1559 1.398 . S
C1560 C1561 1.391 . S
C1561 H1549 0.950 . S
C1561 C1557 1.393 . S
C1561 C1560 1.391 . S
C1562 H1552 0.950 . S
C1562 C1563 1.386 . S
C1562 C1564 1.391 . S
C1563 C1562 1.386 . S
C1563 C1567 1.393 . S
C1564 H1553 0.950 . S
C1564 C1562 1.391 . S
C1564 C1565 1.400 . S
C1565 C1559 1.491 . S
C1565 C1564 1.400 . S
C1565 C1566 1.398 . S
C1566 H1554 0.950 . S
C1566 C1565 1.398 . S
C1566 C1567 1.391 . S
C1567 H1555 0.950 . S
C1567 C1563 1.393 . S
C1567 C1566 1.391 . S
H1568 C1576 0.950 . S
H1569 C1581 0.950 . S
H1570 C1578 0.950 . S
H1571 C1580 0.950 . S
H1572 C1582 0.950 . S
H1573 C1584 0.950 . S
H1574 C1586 0.950 . S
H1575 C1587 0.950 . S
C1576 H1568 0.950 . S
C1576 C1577 1.386 . S
C1576 C1578 1.391 . S
C1577 C1576 1.386 . S
C1577 C1581 1.393 . S
C1578 H1570 0.950 . S
C1578 C1576 1.391 . S
C1578 C1579 1.400 . S
C1579 C1578 1.400 . S
C1579 C1580 1.398 . S
C1579 C1585 1.491 . S
C1580 H1571 0.950 . S
C1580 C1579 1.398 . S
C1580 C1581 1.391 . S
C1581 H1569 0.950 . S
C1581 C1577 1.393 . S
C1581 C1580 1.391 . S
C1582 H1572 0.950 . S
C1582 C1583 1.386 . S
C1582 C1584 1.391 . S
C1583 C1582 1.386 . S
C1583 C1587 1.393 . S
C1584 H1573 0.950 . S
C1584 C1582 1.391 . S
C1584 C1585 1.400 . S
C1585 C1579 1.491 . S
C1585 C1584 1.400 . S
C1585 C1586 1.398 . S
C1586 H1574 0.950 . S
C1586 C1585 1.398 . S
C1586 C1587 1.391 . S
C1587 H1575 0.950 . S
C1587 C1583 1.393 . S
C1587 C1586 1.391 . S
H1588 C1596 0.950 . S
H1589 C1601 0.950 . S
H1590 C1598 0.950 . S
H1591 C1600 0.950 . S
H1592 C1602 0.950 . S
H1593 C1604 0.950 . S
H1594 C1606 0.950 . S
H1595 C1607 0.950 . S
C1596 H1588 0.950 . S
C1596 C1597 1.386 . S
C1596 C1598 1.391 . S
C1597 C1596 1.386 . S
C1597 C1601 1.393 . S
C1598 H1590 0.950 . S
C1598 C1596 1.391 . S
C1598 C1599 1.400 . S
C1599 C1598 1.400 . S
C1599 C1600 1.398 . S
C1599 C1605 1.491 . S
C1600 H1591 0.950 . S
C1600 C1599 1.398 . S
C1600 C1601 1.391 . S
C1601 H1589 0.950 . S
C1601 C1597 1.393 . S
C1601 C1600 1.391 . S
C1602 H1592 0.950 . S
C1602 C1603 1.386 . S
C1602 C1604 1.391 . S
C1603 C1602 1.386 . S
C1603 C1607 1.393 . S
C1604 H1593 0.950 . S
C1604 C1602 1.391 . S
C1604 C1605 1.400 . S
C1605 C1599 1.491 . S
C1605 C1604 1.400 . S
C1605 C1606 1.398 . S
C1606 H1594 0.950 . S
C1606 C1605 1.398 . S
C1606 C1607 1.391 . S
C1607 H1595 0.950 . S
C1607 C1603 1.393 . S
C1607 C1606 1.391 . S
H1608 C1616 0.950 . S
H1609 C1621 0.950 . S
H1610 C1618 0.950 . S
H1611 C1620 0.950 . S
H1612 C1622 0.950 . S
H1613 C1624 0.950 . S
H1614 C1626 0.950 . S
H1615 C1627 0.950 . S
C1616 H1608 0.950 . S
C1616 C1617 1.386 . S
C1616 C1618 1.391 . S
C1617 C1616 1.386 . S
C1617 C1621 1.393 . S
C1618 H1610 0.950 . S
C1618 C1616 1.391 . S
C1618 C1619 1.400 . S
C1619 C1618 1.400 . S
C1619 C1620 1.398 . S
C1619 C1625 1.491 . S
C1620 H1611 0.950 . S
C1620 C1619 1.398 . S
C1620 C1621 1.391 . S
C1621 H1609 0.950 . S
C1621 C1617 1.393 . S
C1621 C1620 1.391 . S
C1622 H1612 0.950 . S
C1622 C1623 1.386 . S
C1622 C1624 1.391 . S
C1623 C1622 1.386 . S
C1623 C1627 1.393 . S
C1624 H1613 0.950 . S
C1624 C1622 1.391 . S
C1624 C1625 1.400 . S
C1625 C1619 1.491 . S
C1625 C1624 1.400 . S
C1625 C1626 1.398 . S
C1626 H1614 0.950 . S
C1626 C1625 1.398 . S
C1626 C1627 1.391 . S
C1627 H1615 0.950 . S
C1627 C1623 1.393 . S
C1627 C1626 1.391 . S
H1628 C1636 0.950 . S
H1629 C1641 0.950 . S
H1630 C1638 0.950 . S
H1631 C1640 0.950 . S
H1632 C1642 0.950 . S
H1633 C1644 0.950 . S
H1634 C1646 0.950 . S
H1635 C1647 0.950 . S
C1636 H1628 0.950 . S
C1636 C1637 1.386 . S
C1636 C1638 1.391 . S
C1637 C1636 1.386 . S
C1637 C1641 1.393 . S
C1638 H1630 0.950 . S
C1638 C1636 1.391 . S
C1638 C1639 1.400 . S
C1639 C1638 1.400 . S
C1639 C1640 1.398 . S
C1639 C1645 1.491 . S
C1640 H1631 0.950 . S
C1640 C1639 1.398 . S
C1640 C1641 1.391 . S
C1641 H1629 0.950 . S
C1641 C1637 1.393 . S
C1641 C1640 1.391 . S
C1642 H1632 0.950 . S
C1642 C1643 1.386 . S
C1642 C1644 1.391 . S
C1643 C1642 1.386 . S
C1643 C1647 1.393 . S
C1644 H1633 0.950 . S
C1644 C1642 1.391 . S
C1644 C1645 1.400 . S
C1645 C1639 1.491 . S
C1645 C1644 1.400 . S
C1645 C1646 1.398 . S
C1646 H1634 0.950 . S
C1646 C1645 1.398 . S
C1646 C1647 1.391 . S
C1647 H1635 0.950 . S
C1647 C1643 1.393 . S
C1647 C1646 1.391 . S
H1648 C1656 0.950 . S
H1649 C1661 0.950 . S
H1650 C1658 0.950 . S
H1651 C1660 0.950 . S
H1652 C1662 0.950 . S
H1653 C1664 0.950 . S
H1654 C1666 0.950 . S
H1655 C1667 0.950 . S
C1656 H1648 0.950 . S
C1656 C1657 1.386 . S
C1656 C1658 1.391 . S
C1657 C1656 1.386 . S
C1657 C1661 1.393 . S
C1658 H1650 0.950 . S
C1658 C1656 1.391 . S
C1658 C1659 1.400 . S
C1659 C1658 1.400 . S
C1659 C1660 1.398 . S
C1659 C1665 1.491 . S
C1660 H1651 0.950 . S
C1660 C1659 1.398 . S
C1660 C1661 1.391 . S
C1661 H1649 0.950 . S
C1661 C1657 1.393 . S
C1661 C1660 1.391 . S
C1662 H1652 0.950 . S
C1662 C1663 1.386 . S
C1662 C1664 1.391 . S
C1663 C1662 1.386 . S
C1663 C1667 1.393 . S
C1664 H1653 0.950 . S
C1664 C1662 1.391 . S
C1664 C1665 1.400 . S
C1665 C1659 1.491 . S
C1665 C1664 1.400 . S
C1665 C1666 1.398 . S
C1666 H1654 0.950 . S
C1666 C1665 1.398 . S
C1666 C1667 1.391 . S
C1667 H1655 0.950 . S
C1667 C1663 1.393 . S
C1667 C1666 1.391 . S
H1668 C1676 0.950 . S
H1669 C1681 0.950 . S
H1670 C1678 0.950 . S
H1671 C1680 0.950 . S
H1672 C1682 0.950 . S
H1673 C1684 0.950 . S
H1674 C1686 0.950 . S
H1675 C1687 0.950 . S
C1676 H1668 0.950 . S
C1676 C1677 1.386 . S
C1676 C1678 1.391 . S
C1677 C1676 1.386 . S
C1677 C1681 1.393 . S
C1678 H1670 0.950 . S
C1678 C1676 1.391 . S
C1678 C1679 1.400 . S
C1679 C1678 1.400 . S
C1679 C1680 1.398 . S
C1679 C1685 1.491 . S
C1680 H1671 0.950 . S
C1680 C1679 1.398 . S
C1680 C1681 1.391 . S
C1681 H1669 0.950 . S
C1681 C1677 1.393 . S
C1681 C1680 1.391 . S
C1682 H1672 0.950 . S
C1682 C1683 1.386 . S
C1682 C1684 1.391 . S
C1683 C1682 1.386 . S
C1683 C1687 1.393 . S
C1684 H1673 0.950 . S
C1684 C1682 1.391 . S
C1684 C1685 1.400 . S
C1685 C1679 1.491 . S
C1685 C1684 1.400 . S
C1685 C1686 1.398 . S
C1686 H1674 0.950 . S
C1686 C1685 1.398 . S
C1686 C1687 1.391 . S
C1687 H1675 0.950 . S
C1687 C1683 1.393 . S
C1687 C1686 1.391 . S
H1688 C1696 0.950 . S
H1689 C1701 0.950 . S
H1690 C1698 0.950 . S
H1691 C1700 0.950 . S
H1692 C1702 0.950 . S
H1693 C1704 0.950 . S
H1694 C1706 0.950 . S
H1695 C1707 0.950 . S
C1696 H1688 0.950 . S
C1696 C1697 1.386 . S
C1696 C1698 1.391 . S
C1697 C1696 1.386 . S
C1697 C1701 1.393 . S
C1698 H1690 0.950 . S
C1698 C1696 1.391 . S
C1698 C1699 1.400 . S
C1699 C1698 1.400 . S
C1699 C1700 1.398 . S
C1699 C1705 1.491 . S
C1700 H1691 0.950 . S
C1700 C1699 1.398 . S
C1700 C1701 1.391 . S
C1701 H1689 0.950 . S
C1701 C1697 1.393 . S
C1701 C1700 1.391 . S
C1702 H1692 0.950 . S
C1702 C1703 1.386 . S
C1702 C1704 1.391 . S
C1703 C1702 1.386 . S
C1703 C1707 1.393 . S
C1704 H1693 0.950 . S
C1704 C1702 1.391 . S
C1704 C1705 1.400 . S
C1705 C1699 1.491 . S
C1705 C1704 1.400 . S
C1705 C1706 1.398 . S
C1706 H1694 0.950 . S
C1706 C1705 1.398 . S
C1706 C1707 1.391 . S
C1707 H1695 0.950 . S
C1707 C1703 1.393 . S
C1707 C1706 1.391 . S
H1708 C1716 0.950 . S
H1709 C1721 0.950 . S
H1710 C1718 0.950 . S
H1711 C1720 0.950 . S
H1712 C1722 0.950 . S
H1713 C1724 0.950 . S
H1714 C1726 0.950 . S
H1715 C1727 0.950 . S
C1716 H1708 0.950 . S
C1716 C1717 1.386 . S
C1716 C1718 1.391 . S
C1717 C1716 1.386 . S
C1717 C1721 1.393 . S
C1718 H1710 0.950 . S
C1718 C1716 1.391 . S
C1718 C1719 1.400 . S
C1719 C1718 1.400 . S
C1719 C1720 1.398 . S
C1719 C1725 1.491 . S
C1720 H1711 0.950 . S
C1720 C1719 1.398 . S
C1720 C1721 1.391 . S
C1721 H1709 0.950 . S
C1721 C1717 1.393 . S
C1721 C1720 1.391 . S
C1722 H1712 0.950 . S
C1722 C1723 1.386 . S
C1722 C1724 1.391 . S
C1723 C1722 1.386 . S
C1723 C1727 1.393 . S
C1724 H1713 0.950 . S
C1724 C1722 1.391 . S
C1724 C1725 1.400 . S
C1725 C1719 1.491 . S
C1725 C1724 1.400 . S
C1725 C1726 1.398 . S
C1726 H1714 0.950 . S
C1726 C1725 1.398 . S
C1726 C1727 1.391 . S
C1727 H1715 0.950 . S
C1727 C1723 1.393 . S
C1727 C1726 1.391 . S
H1728 C1736 0.950 . S
H1729 C1741 0.950 . S
H1730 C1738 0.950 . S
H1731 C1740 0.950 . S
H1732 C1742 0.950 . S
H1733 C1744 0.950 . S
H1734 C1746 0.950 . S
H1735 C1747 0.950 . S
C1736 H1728 0.950 . S
C1736 C1737 1.386 . S
C1736 C1738 1.391 . S
C1737 C1736 1.386 . S
C1737 C1741 1.393 . S
C1738 H1730 0.950 . S
C1738 C1736 1.391 . S
C1738 C1739 1.400 . S
C1739 C1738 1.400 . S
C1739 C1740 1.398 . S
C1739 C1745 1.491 . S
C1740 H1731 0.950 . S
C1740 C1739 1.398 . S
C1740 C1741 1.391 . S
C1741 H1729 0.950 . S
C1741 C1737 1.393 . S
C1741 C1740 1.391 . S
C1742 H1732 0.950 . S
C1742 C1743 1.386 . S
C1742 C1744 1.391 . S
C1743 C1742 1.386 . S
C1743 C1747 1.393 . S
C1744 H1733 0.950 . S
C1744 C1742 1.391 . S
C1744 C1745 1.400 . S
C1745 C1739 1.491 . S
C1745 C1744 1.400 . S
C1745 C1746 1.398 . S
C1746 H1734 0.950 . S
C1746 C1745 1.398 . S
C1746 C1747 1.391 . S
C1747 H1735 0.950 . S
C1747 C1743 1.393 . S
C1747 C1746 1.391 . S
H1748 C1756 0.950 . S
H1749 C1761 0.950 . S
H1750 C1758 0.950 . S
H1751 C1760 0.950 . S
H1752 C1762 0.950 . S
H1753 C1764 0.950 . S
H1754 C1766 0.950 . S
H1755 C1767 0.950 . S
C1756 H1748 0.950 . S
C1756 C1757 1.386 . S
C1756 C1758 1.391 . S
C1757 C1756 1.386 . S
C1757 C1761 1.393 . S
C1758 H1750 0.950 . S
C1758 C1756 1.391 . S
C1758 C1759 1.400 . S
C1759 C1758 1.400 . S
C1759 C1760 1.398 . S
C1759 C1765 1.491 . S
C1760 H1751 0.950 . S
C1760 C1759 1.398 . S
C1760 C1761 1.391 . S
C1761 H1749 0.950 . S
C1761 C1757 1.393 . S
C1761 C1760 1.391 . S
C1762 H1752 0.950 . S
C1762 C1763 1.386 . S
C1762 C1764 1.391 . S
C1763 C1762 1.386 . S
C1763 C1767 1.393 . S
C1764 H1753 0.950 . S
C1764 C1762 1.391 . S
C1764 C1765 1.400 . S
C1765 C1759 1.491 . S
C1765 C1764 1.400 . S
C1765 C1766 1.398 . S
C1766 H1754 0.950 . S
C1766 C1765 1.398 . S
C1766 C1767 1.391 . S
C1767 H1755 0.950 . S
C1767 C1763 1.393 . S
C1767 C1766 1.391 . S
H1768 C1776 0.950 . S
H1769 C1781 0.950 . S
H1770 C1778 0.950 . S
H1771 C1780 0.950 . S
H1772 C1782 0.950 . S
H1773 C1784 0.950 . S
H1774 C1786 0.950 . S
H1775 C1787 0.950 . S
C1776 H1768 0.950 . S
C1776 C1777 1.386 . S
C1776 C1778 1.391 . S
C1777 C1776 1.386 . S
C1777 C1781 1.393 . S
C1778 H1770 0.950 . S
C1778 C1776 1.391 . S
C1778 C1779 1.400 . S
C1779 C1778 1.400 . S
C1779 C1780 1.398 . S
C1779 C1785 1.491 . S
C1780 H1771 0.950 . S
C1780 C1779 1.398 . S
C1780 C1781 1.391 . S
C1781 H1769 0.950 . S
C1781 C1777 1.393 . S
C1781 C1780 1.391 . S
C1782 H1772 0.950 . S
C1782 C1783 1.386 . S
C1782 C1784 1.391 . S
C1783 C1782 1.386 . S
C1783 C1787 1.393 . S
C1784 H1773 0.950 . S
C1784 C1782 1.391 . S
C1784 C1785 1.400 . S
C1785 C1779 1.491 . S
C1785 C1784 1.400 . S
C1785 C1786 1.398 . S
C1786 H1774 0.950 . S
C1786 C1785 1.398 . S
C1786 C1787 1.391 . S
C1787 H1775 0.950 . S
C1787 C1783 1.393 . S
C1787 C1786 1.391 . S
H1788 C1796 0.950 . S
H1789 C1801 0.950 . S
H1790 C1798 0.950 . S
H1791 C1800 0.950 . S
H1792 C1802 0.950 . S
H1793 C1804 0.950 . S
H1794 C1806 0.950 . S
H1795 C1807 0.950 . S
C1796 H1788 0.950 . S
C1796 C1797 1.386 . S
C1796 C1798 1.391 . S
C1797 C1796 1.386 . S
C1797 C1801 1.393 . S
C1798 H1790 0.950 . S
C1798 C1796 1.391 . S
C1798 C1799 1.400 . S
C1799 C1798 1.400 . S
C1799 C1800 1.398 . S
C1799 C1805 1.491 . S
C1800 H1791 0.950 . S
C1800 C1799 1.398 . S
C1800 C1801 1.391 . S
C1801 H1789 0.950 . S
C1801 C1797 1.393 . S
C1801 C1800 1.391 . S
C1802 H1792 0.950 . S
C1802 C1803 1.386 . S
C1802 C1804 1.391 . S
C1803 C1802 1.386 . S
C1803 C1807 1.393 . S
C1804 H1793 0.950 . S
C1804 C1802 1.391 . S
C1804 C1805 1.400 . S
C1805 C1799 1.491 . S
C1805 C1804 1.400 . S
C1805 C1806 1.398 . S
C1806 H1794 0.950 . S
C1806 C1805 1.398 . S
C1806 C1807 1.391 . S
C1807 H1795 0.950 . S
C1807 C1803 1.393 . S
C1807 C1806 1.391 . S
H1808 C1816 0.950 . S
H1809 C1821 0.950 . S
H1810 C1818 0.950 . S
H1811 C1820 0.950 . S
H1812 C1822 0.950 . S
H1813 C1824 0.950 . S
H1814 C1826 0.950 . S
H1815 C1827 0.950 . S
C1816 H1808 0.950 . S
C1816 C1817 1.386 . S
C1816 C1818 1.391 . S
C1817 C1816 1.386 . S
C1817 C1821 1.393 . S
C1818 H1810 0.950 . S
C1818 C1816 1.391 . S
C1818 C1819 1.400 . S
C1819 C1818 1.400 . S
C1819 C1820 1.398 . S
C1819 C1825 1.491 . S
C1820 H1811 0.950 . S
C1820 C1819 1.398 . S
C1820 C1821 1.391 . S
C1821 H1809 0.950 . S
C1821 C1817 1.393 . S
C1821 C1820 1.391 . S
C1822 H1812 0.950 . S
C1822 C1823 1.386 . S
C1822 C1824 1.391 . S
C1823 C1822 1.386 . S
C1823 C1827 1.393 . S
C1824 H1813 0.950 . S
C1824 C1822 1.391 . S
C1824 C1825 1.400 . S
C1825 C1819 1.491 . S
C1825 C1824 1.400 . S
C1825 C1826 1.398 . S
C1826 H1814 0.950 . S
C1826 C1825 1.398 . S
C1826 C1827 1.391 . S
C1827 H1815 0.950 . S
C1827 C1823 1.393 . S
C1827 C1826 1.391 . S
H1828 C1836 0.950 . S
H1829 C1841 0.950 . S
H1830 C1838 0.950 . S
H1831 C1840 0.950 . S
H1832 C1842 0.950 . S
H1833 C1844 0.950 . S
H1834 C1846 0.950 . S
H1835 C1847 0.950 . S
C1836 H1828 0.950 . S
C1836 C1837 1.386 . S
C1836 C1838 1.391 . S
C1837 C1836 1.386 . S
C1837 C1841 1.393 . S
C1838 H1830 0.950 . S
C1838 C1836 1.391 . S
C1838 C1839 1.400 . S
C1839 C1838 1.400 . S
C1839 C1840 1.398 . S
C1839 C1845 1.491 . S
C1840 H1831 0.950 . S
C1840 C1839 1.398 . S
C1840 C1841 1.391 . S
C1841 H1829 0.950 . S
C1841 C1837 1.393 . S
C1841 C1840 1.391 . S
C1842 H1832 0.950 . S
C1842 C1843 1.386 . S
C1842 C1844 1.391 . S
C1843 C1842 1.386 . S
C1843 C1847 1.393 . S
C1844 H1833 0.950 . S
C1844 C1842 1.391 . S
C1844 C1845 1.400 . S
C1845 C1839 1.491 . S
C1845 C1844 1.400 . S
C1845 C1846 1.398 . S
C1846 H1834 0.950 . S
C1846 C1845 1.398 . S
C1846 C1847 1.391 . S
C1847 H1835 0.950 . S
C1847 C1843 1.393 . S
C1847 C1846 1.391 . S
H1848 C1856 0.950 . S
H1849 C1861 0.950 . S
H1850 C1858 0.950 . S
H1851 C1860 0.950 . S
H1852 C1862 0.950 . S
H1853 C1864 0.950 . S
H1854 C1866 0.950 . S
H1855 C1867 0.950 . S
C1856 H1848 0.950 . S
C1856 C1857 1.386 . S
C1856 C1858 1.391 . S
C1857 C1856 1.386 . S
C1857 C1861 1.393 . S
C1858 H1850 0.950 . S
C1858 C1856 1.391 . S
C1858 C1859 1.400 . S
C1859 C1858 1.400 . S
C1859 C1860 1.398 . S
C1859 C1865 1.491 . S
C1860 H1851 0.950 . S
C1860 C1859 1.398 . S
C1860 C1861 1.391 . S
C1861 H1849 0.950 . S
C1861 C1857 1.393 . S
C1861 C1860 1.391 . S
C1862 H1852 0.950 . S
C1862 C1863 1.386 . S
C1862 C1864 1.391 . S
C1863 C1862 1.386 . S
C1863 C1867 1.393 . S
C1864 H1853 0.950 . S
C1864 C1862 1.391 . S
C1864 C1865 1.400 . S
C1865 C1859 1.491 . S
C1865 C1864 1.400 . S
C1865 C1866 1.398 . S
C1866 H1854 0.950 . S
C1866 C1865 1.398 . S
C1866 C1867 1.391 . S
C1867 H1855 0.950 . S
C1867 C1863 1.393 . S
C1867 C1866 1.391 . S
H1868 C1876 0.950 . S
H1869 C1881 0.950 . S
H1870 C1878 0.950 . S
H1871 C1880 0.950 . S
H1872 C1882 0.950 . S
H1873 C1884 0.950 . S
H1874 C1886 0.950 . S
H1875 C1887 0.950 . S
C1876 H1868 0.950 . S
C1876 C1877 1.386 . S
C1876 C1878 1.391 . S
C1877 C1876 1.386 . S
C1877 C1881 1.393 . S
C1878 H1870 0.950 . S
C1878 C1876 1.391 . S
C1878 C1879 1.400 . S
C1879 C1878 1.400 . S
C1879 C1880 1.398 . S
C1879 C1885 1.491 . S
C1880 H1871 0.950 . S
C1880 C1879 1.398 . S
C1880 C1881 1.391 . S
C1881 H1869 0.950 . S
C1881 C1877 1.393 . S
C1881 C1880 1.391 . S
C1882 H1872 0.950 . S
C1882 C1883 1.386 . S
C1882 C1884 1.391 . S
C1883 C1882 1.386 . S
C1883 C1887 1.393 . S
C1884 H1873 0.950 . S
C1884 C1882 1.391 . S
C1884 C1885 1.400 . S
C1885 C1879 1.491 . S
C1885 C1884 1.400 . S
C1885 C1886 1.398 . S
C1886 H1874 0.950 . S
C1886 C1885 1.398 . S
C1886 C1887 1.391 . S
C1887 H1875 0.950 . S
C1887 C1883 1.393 . S
C1887 C1886 1.391 . S
H1888 C1896 0.950 . S
H1889 C1901 0.950 . S
H1890 C1898 0.950 . S
H1891 C1900 0.950 . S
H1892 C1902 0.950 . S
H1893 C1904 0.950 . S
H1894 C1906 0.950 . S
H1895 C1907 0.950 . S
C1896 H1888 0.950 . S
C1896 C1897 1.386 . S
C1896 C1898 1.391 . S
C1897 C1896 1.386 . S
C1897 C1901 1.393 . S
C1898 H1890 0.950 . S
C1898 C1896 1.391 . S
C1898 C1899 1.400 . S
C1899 C1898 1.400 . S
C1899 C1900 1.398 . S
C1899 C1905 1.491 . S
C1900 H1891 0.950 . S
C1900 C1899 1.398 . S
C1900 C1901 1.391 . S
C1901 H1889 0.950 . S
C1901 C1897 1.393 . S
C1901 C1900 1.391 . S
C1902 H1892 0.950 . S
C1902 C1903 1.386 . S
C1902 C1904 1.391 . S
C1903 C1902 1.386 . S
C1903 C1907 1.393 . S
C1904 H1893 0.950 . S
C1904 C1902 1.391 . S
C1904 C1905 1.400 . S
C1905 C1899 1.491 . S
C1905 C1904 1.400 . S
C1905 C1906 1.398 . S
C1906 H1894 0.950 . S
C1906 C1905 1.398 . S
C1906 C1907 1.391 . S
C1907 H1895 0.950 . S
C1907 C1903 1.393 . S
C1907 C1906 1.391 . S
H1908 C1916 0.950 . S
H1909 C1921 0.950 . S
H1910 C1918 0.950 . S
H1911 C1920 0.950 . S
H1912 C1922 0.950 . S
H1913 C1924 0.950 . S
H1914 C1926 0.950 . S
H1915 C1927 0.950 . S
C1916 H1908 0.950 . S
C1916 C1917 1.386 . S
C1916 C1918 1.391 . S
C1917 C1916 1.386 . S
C1917 C1921 1.393 . S
C1918 H1910 0.950 . S
C1918 C1916 1.391 . S
C1918 C1919 1.400 . S
C1919 C1918 1.400 . S
C1919 C1920 1.398 . S
C1919 C1925 1.491 . S
C1920 H1911 0.950 . S
C1920 C1919 1.398 . S
C1920 C1921 1.391 . S
C1921 H1909 0.950 . S
C1921 C1917 1.393 . S
C1921 C1920 1.391 . S
C1922 H1912 0.950 . S
C1922 C1923 1.386 . S
C1922 C1924 1.391 . S
C1923 C1922 1.386 . S
C1923 C1927 1.393 . S
C1924 H1913 0.950 . S
C1924 C1922 1.391 . S
C1924 C1925 1.400 . S
C1925 C1919 1.491 . S
C1925 C1924 1.400 . S
C1925 C1926 1.398 . S
C1926 H1914 0.950 . S
C1926 C1925 1.398 . S
C1926 C1927 1.391 . S
C1927 H1915 0.950 . S
C1927 C1923 1.393 . S
C1927 C1926 1.391 . S
H1928 C1936 0.950 . S
H1929 C1941 0.950 . S
H1930 C1938 0.950 . S
H1931 C1940 0.950 . S
H1932 C1942 0.950 . S
H1933 C1944 0.950 . S
H1934 C1946 0.950 . S
H1935 C1947 0.950 . S
C1936 H1928 0.950 . S
C1936 C1937 1.386 . S
C1936 C1938 1.391 . S
C1937 C1936 1.386 . S
C1937 C1941 1.393 . S
C1938 H1930 0.950 . S
C1938 C1936 1.391 . S
C1938 C1939 1.400 . S
C1939 C1938 1.400 . S
C1939 C1940 1.398 . S
C1939 C1945 1.491 . S
C1940 H1931 0.950 . S
C1940 C1939 1.398 . S
C1940 C1941 1.391 . S
C1941 H1929 0.950 . S
C1941 C1937 1.393 . S
C1941 C1940 1.391 . S
C1942 H1932 0.950 . S
C1942 C1943 1.386 . S
C1942 C1944 1.391 . S
C1943 C1942 1.386 . S
C1943 C1947 1.393 . S
C1944 H1933 0.950 . S
C1944 C1942 1.391 . S
C1944 C1945 1.400 . S
C1945 C1939 1.491 . S
C1945 C1944 1.400 . S
C1945 C1946 1.398 . S
C1946 H1934 0.950 . S
C1946 C1945 1.398 . S
C1946 C1947 1.391 . S
C1947 H1935 0.950 . S
C1947 C1943 1.393 . S
C1947 C1946 1.391 . S
H1948 C1956 0.950 . S
H1949 C1961 0.950 . S
H1950 C1958 0.950 . S
H1951 C1960 0.950 . S
H1952 C1962 0.950 . S
H1953 C1964 0.950 . S
H1954 C1966 0.950 . S
H1955 C1967 0.950 . S
C1956 H1948 0.950 . S
C1956 C1957 1.386 . S
C1956 C1958 1.391 . S
C1957 C1956 1.386 . S
C1957 C1961 1.393 . S
C1958 H1950 0.950 . S
C1958 C1956 1.391 . S
C1958 C1959 1.400 . S
C1959 C1958 1.400 . S
C1959 C1960 1.398 . S
C1959 C1965 1.491 . S
C1960 H1951 0.950 . S
C1960 C1959 1.398 . S
C1960 C1961 1.391 . S
C1961 H1949 0.950 . S
C1961 C1957 1.393 . S
C1961 C1960 1.391 . S
C1962 H1952 0.950 . S
C1962 C1963 1.386 . S
C1962 C1964 1.391 . S
C1963 C1962 1.386 . S
C1963 C1967 1.393 . S
C1964 H1953 0.950 . S
C1964 C1962 1.391 . S
C1964 C1965 1.400 . S
C1965 C1959 1.491 . S
C1965 C1964 1.400 . S
C1965 C1966 1.398 . S
C1966 H1954 0.950 . S
C1966 C1965 1.398 . S
C1966 C1967 1.391 . S
C1967 H1955 0.950 . S
C1967 C1963 1.393 . S
C1967 C1966 1.391 . S
H1968 C1976 0.950 . S
H1969 C1981 0.950 . S
H1970 C1978 0.950 . S
H1971 C1980 0.950 . S
H1972 C1982 0.950 . S
H1973 C1984 0.950 . S
H1974 C1986 0.950 . S
H1975 C1987 0.950 . S
C1976 H1968 0.950 . S
C1976 C1977 1.386 . S
C1976 C1978 1.391 . S
C1977 C1976 1.386 . S
C1977 C1981 1.393 . S
C1978 H1970 0.950 . S
C1978 C1976 1.391 . S
C1978 C1979 1.400 . S
C1979 C1978 1.400 . S
C1979 C1980 1.398 . S
C1979 C1985 1.491 . S
C1980 H1971 0.950 . S
C1980 C1979 1.398 . S
C1980 C1981 1.391 . S
C1981 H1969 0.950 . S
C1981 C1977 1.393 . S
C1981 C1980 1.391 . S
C1982 H1972 0.950 . S
C1982 C1983 1.386 . S
C1982 C1984 1.391 . S
C1983 C1982 1.386 . S
C1983 C1987 1.393 . S
C1984 H1973 0.950 . S
C1984 C1982 1.391 . S
C1984 C1985 1.400 . S
C1985 C1979 1.491 . S
C1985 C1984 1.400 . S
C1985 C1986 1.398 . S
C1986 H1974 0.950 . S
C1986 C1985 1.398 . S
C1986 C1987 1.391 . S
C1987 H1975 0.950 . S
C1987 C1983 1.393 . S
C1987 C1986 1.391 . S
H1988 C1996 0.950 . S
H1989 C2001 0.950 . S
H1990 C1998 0.950 . S
H1991 C2000 0.950 . S
H1992 C2002 0.950 . S
H1993 C2004 0.950 . S
H1994 C2006 0.950 . S
H1995 C2007 0.950 . S
C1996 H1988 0.950 . S
C1996 C1997 1.386 . S
C1996 C1998 1.391 . S
C1997 C1996 1.386 . S
C1997 C2001 1.393 . S
C1998 H1990 0.950 . S
C1998 C1996 1.391 . S
C1998 C1999 1.400 . S
C1999 C1998 1.400 . S
C1999 C2000 1.398 . S
C1999 C2005 1.491 . S
C2000 H1991 0.950 . S
C2000 C1999 1.398 . S
C2000 C2001 1.391 . S
C2001 H1989 0.950 . S
C2001 C1997 1.393 . S
C2001 C2000 1.391 . S
C2002 H1992 0.950 . S
C2002 C2003 1.386 . S
C2002 C2004 1.391 . S
C2003 C2002 1.386 . S
C2003 C2007 1.393 . S
C2004 H1993 0.950 . S
C2004 C2002 1.391 . S
C2004 C2005 1.400 . S
C2005 C1999 1.491 . S
C2005 C2004 1.400 . S
C2005 C2006 1.398 . S
C2006 H1994 0.950 . S
C2006 C2005 1.398 . S
C2006 C2007 1.391 . S
C2007 H1995 0.950 . S
C2007 C2003 1.393 . S
C2007 C2006 1.391 . S
H2008 C2016 0.950 . S
H2009 C2021 0.950 . S
H2010 C2018 0.950 . S
H2011 C2020 0.950 . S
H2012 C2022 0.950 . S
H2013 C2024 0.950 . S
H2014 C2026 0.950 . S
H2015 C2027 0.950 . S
C2016 H2008 0.950 . S
C2016 C2017 1.386 . S
C2016 C2018 1.391 . S
C2017 C2016 1.386 . S
C2017 C2021 1.393 . S
C2018 H2010 0.950 . S
C2018 C2016 1.391 . S
C2018 C2019 1.400 . S
C2019 C2018 1.400 . S
C2019 C2020 1.398 . S
C2019 C2025 1.491 . S
C2020 H2011 0.950 . S
C2020 C2019 1.398 . S
C2020 C2021 1.391 . S
C2021 H2009 0.950 . S
C2021 C2017 1.393 . S
C2021 C2020 1.391 . S
C2022 H2012 0.950 . S
C2022 C2023 1.386 . S
C2022 C2024 1.391 . S
C2023 C2022 1.386 . S
C2023 C2027 1.393 . S
C2024 H2013 0.950 . S
C2024 C2022 1.391 . S
C2024 C2025 1.400 . S
C2025 C2019 1.491 . S
C2025 C2024 1.400 . S
C2025 C2026 1.398 . S
C2026 H2014 0.950 . S
C2026 C2025 1.398 . S
C2026 C2027 1.391 . S
C2027 H2015 0.950 . S
C2027 C2023 1.393 . S
C2027 C2026 1.391 . S
H2028 C2036 0.950 . S
H2029 C2041 0.950 . S
H2030 C2038 0.950 . S
H2031 C2040 0.950 . S
H2032 C2042 0.950 . S
H2033 C2044 0.950 . S
H2034 C2046 0.950 . S
H2035 C2047 0.950 . S
C2036 H2028 0.950 . S
C2036 C2037 1.386 . S
C2036 C2038 1.391 . S
C2037 C2036 1.386 . S
C2037 C2041 1.393 . S
C2038 H2030 0.950 . S
C2038 C2036 1.391 . S
C2038 C2039 1.400 . S
C2039 C2038 1.400 . S
C2039 C2040 1.398 . S
C2039 C2045 1.491 . S
C2040 H2031 0.950 . S
C2040 C2039 1.398 . S
C2040 C2041 1.391 . S
C2041 H2029 0.950 . S
C2041 C2037 1.393 . S
C2041 C2040 1.391 . S
C2042 H2032 0.950 . S
C2042 C2043 1.386 . S
C2042 C2044 1.391 . S
C2043 C2042 1.386 . S
C2043 C2047 1.393 . S
C2044 H2033 0.950 . S
C2044 C2042 1.391 . S
C2044 C2045 1.400 . S
C2045 C2039 1.491 . S
C2045 C2044 1.400 . S
C2045 C2046 1.398 . S
C2046 H2034 0.950 . S
C2046 C2045 1.398 . S
C2046 C2047 1.391 . S
C2047 H2035 0.950 . S
C2047 C2043 1.393 . S
C2047 C2046 1.391 . S
C1417 C49 1.224 . S
C1423 C372 1.227 . S
C1437 C460 1.255 . S
C1443 C137 1.251 . S
C1457 C225 1.245 . S
C1463 C548 1.249 . S
C1477 C313 1.243 . S
C1483 C636 1.238 . S
C1497 C733 1.250 . S
C1503 C1105 1.253 . S
C1517 C1201 1.245 . S
C1523 C821 1.236 . S
C1537 C900 1.253 . S
C1543 C1289 1.250 . S
C1557 C988 1.224 . S
C1563 C1369 1.218 . S
C1577 C57 1.176 . S
C1583 C1340 1.130 . S
C1597 C1076 1.157 . S
C1603 C145 1.196 . S
C1617 C233 1.189 . S
C1623 C1173 1.159 . S
C1637 C1261 1.164 . S
C1643 C321 1.194 . S
C1657 C849 1.143 . S
C1663 C381 1.187 . S
C1677 C929 1.168 . S
C1683 C469 1.201 . S
C1697 C1017 1.136 . S
C1703 C557 1.181 . S
C1717 C761 1.161 . S
C1723 C645 1.198 . S
C1737 C724 1.193 . S
C1743 C673 1.127 . S
C1757 C409 1.164 . S
C1763 C812 1.215 . S
C1777 C497 1.123 . S
C1783 C909 1.192 . S
C1797 C997 1.210 . S
C1803 C585 1.159 . S
C1817 C117 1.163 . S
C1823 C1113 1.213 . S
C1837 C1193 1.208 . S
C1843 C205 1.145 . S
C1857 C1281 1.208 . S
C1863 C293 1.147 . S
C1877 C1377 1.203 . S
C1883 C29 1.147 . S
C1897 C665 1.438 . S
C1903 C20 1.428 . S
C1917 C108 1.444 . S
C1923 C401 1.452 . S
C1937 C196 1.450 . S
C1943 C489 1.450 . S
C1957 C284 1.441 . S
C1963 C577 1.428 . S
C1977 C1349 1.421 . S
C1983 C753 1.417 . S
C1997 C1085 1.439 . S
C2003 C841 1.421 . S
C2017 C1164 1.440 . S
C2023 C937 1.430 . S
C2037 C1252 1.437 . S
C2043 C1025 1.418 . S
