# Generated by pormake.
# Topology afi, (4)-cn, num edge types: 1
# Building blocks:
#     Node 0, Type 0, BuildingBlock: QUQFOY_clean_sbu_3, # of connection points: 4
#     Node 1, Type 0, BuildingBlock: QUQFOY_clean_sbu_3, # of connection points: 4
#     Node 2, Type 0, BuildingBlock: QUQFOY_clean_sbu_3, # of connection points: 4
#     Node 3, Type 0, BuildingBlock: QUQFOY_clean_sbu_3, # of connection points: 4
#     Node 4, Type 0, BuildingBlock: QUQFOY_clean_sbu_3, # of connection points: 4
#     Node 5, Type 0, BuildingBlock: QUQFOY_clean_sbu_3, # of connection points: 4
#     Node 6, Type 0, BuildingBlock: QUQFOY_clean_sbu_3, # of connection points: 4
#     Node 7, Type 0, BuildingBlock: QUQFOY_clean_sbu_3, # of connection points: 4
#     Node 8, Type 0, BuildingBlock: QUQFOY_clean_sbu_3, # of connection points: 4
#     Node 9, Type 0, BuildingBlock: QUQFOY_clean_sbu_3, # of connection points: 4
#     Node 10, Type 0, BuildingBlock: QUQFOY_clean_sbu_3, # of connection points: 4
#     Node 11, Type 0, BuildingBlock: QUQFOY_clean_sbu_3, # of connection points: 4
#     Node 12, Type 0, BuildingBlock: QUQFOY_clean_sbu_3, # of connection points: 4
#     Node 13, Type 0, BuildingBlock: QUQFOY_clean_sbu_3, # of connection points: 4
#     Node 14, Type 0, BuildingBlock: QUQFOY_clean_sbu_3, # of connection points: 4
#     Node 15, Type 0, BuildingBlock: QUQFOY_clean_sbu_3, # of connection points: 4
#     Node 16, Type 0, BuildingBlock: QUQFOY_clean_sbu_3, # of connection points: 4
#     Node 17, Type 0, BuildingBlock: QUQFOY_clean_sbu_3, # of connection points: 4
#     Node 18, Type 0, BuildingBlock: QUQFOY_clean_sbu_3, # of connection points: 4
#     Node 19, Type 0, BuildingBlock: QUQFOY_clean_sbu_3, # of connection points: 4
#     Node 20, Type 0, BuildingBlock: QUQFOY_clean_sbu_3, # of connection points: 4
#     Node 21, Type 0, BuildingBlock: QUQFOY_clean_sbu_3, # of connection points: 4
#     Node 22, Type 0, BuildingBlock: QUQFOY_clean_sbu_3, # of connection points: 4
#     Node 23, Type 0, BuildingBlock: QUQFOY_clean_sbu_3, # of connection points: 4
#     Edge 24, Type (0, 0), None
#     Edge 25, Type (0, 0), None
#     Edge 26, Type (0, 0), None
#     Edge 27, Type (0, 0), None
#     Edge 28, Type (0, 0), None
#     Edge 29, Type (0, 0), None
#     Edge 30, Type (0, 0), None
#     Edge 31, Type (0, 0), None
#     Edge 32, Type (0, 0), None
#     Edge 33, Type (0, 0), None
#     Edge 34, Type (0, 0), None
#     Edge 35, Type (0, 0), None
#     Edge 36, Type (0, 0), None
#     Edge 37, Type (0, 0), None
#     Edge 38, Type (0, 0), None
#     Edge 39, Type (0, 0), None
#     Edge 40, Type (0, 0), None
#     Edge 41, Type (0, 0), None
#     Edge 42, Type (0, 0), None
#     Edge 43, Type (0, 0), None
#     Edge 44, Type (0, 0), None
#     Edge 45, Type (0, 0), None
#     Edge 46, Type (0, 0), None
#     Edge 47, Type (0, 0), None
#     Edge 48, Type (0, 0), None
#     Edge 49, Type (0, 0), None
#     Edge 50, Type (0, 0), None
#     Edge 51, Type (0, 0), None
#     Edge 52, Type (0, 0), None
#     Edge 53, Type (0, 0), None
#     Edge 54, Type (0, 0), None
#     Edge 55, Type (0, 0), None
#     Edge 56, Type (0, 0), None
#     Edge 57, Type (0, 0), None
#     Edge 58, Type (0, 0), None
#     Edge 59, Type (0, 0), None
#     Edge 60, Type (0, 0), None
#     Edge 61, Type (0, 0), None
#     Edge 62, Type (0, 0), None
#     Edge 63, Type (0, 0), None
#     Edge 64, Type (0, 0), None
#     Edge 65, Type (0, 0), None
#     Edge 66, Type (0, 0), None
#     Edge 67, Type (0, 0), None
#     Edge 68, Type (0, 0), None
#     Edge 69, Type (0, 0), None
#     Edge 70, Type (0, 0), None
#     Edge 71, Type (0, 0), None
# Relax obj value: 0.091
# Max RMSD: 0.106
# Mean RMSD: 0.106
data_MOF--net-afi--node1-QUQFOY_clean_sbu_3--edge1-none
_symmetry_space_group_name_H-M    P1
_symmetry_Int_Tables_number       1
_symmetry_cell_setting            triclinic
loop_
_symmetry_equiv_pos_as_xyz
'x, y, z'
_cell_length_a     34.392129
_cell_length_b     34.390269
_cell_length_c     19.547484
_cell_angle_alpha  89.999922
_cell_angle_beta   89.999998
_cell_angle_gamma 119.99651
loop_
_atom_site_label
_atom_site_type_symbol
_atom_site_fract_x
_atom_site_fract_y
_atom_site_fract_z
_atom_type_partial_charge
C0 C 0.49042 0.08261 0.17694 0.0
O1 O 0.4927 0.06805 0.11836 0.0
Cd2 Cd 0.42686 0.03679 0.05033 0.0
O3 O 0.45785 0.08884 0.19249 0.0
Cd4 Cd 0.39244 0.09032 0.13708 0.0
C5 C 0.34736 -0.01706 0.18026 0.0
O6 O 0.4204 0.10043 0.02282 0.0
O7 O 0.34879 0.07271 0.02707 0.0
O8 O 0.4274 0.16802 0.17439 0.0
C9 C 0.38429 0.08911 -0.00874 0.0
O10 O 0.37072 -0.01815 0.13049 0.0
C11 C 0.39098 0.16652 0.19074 0.0
O12 O 0.34836 0.01916 0.19682 0.0
O13 O 0.35487 0.1292 0.18373 0.0
C14 C 0.3717 0.50848 0.17693 0.0
O15 O 0.38853 0.51077 0.11834 0.0
Cd16 Cd 0.35395 0.44493 0.05031 0.0
O17 O 0.33291 0.47592 0.19248 0.0
Cd18 Cd 0.26601 0.41051 0.13708 0.0
C19 C 0.3283 0.36542 0.18025 0.0
O20 O 0.28385 0.43847 0.02282 0.0
O21 O 0.23998 0.36685 0.02707 0.0
O22 O 0.22327 0.44547 0.1744 0.0
C23 C 0.25907 0.40236 -0.00874 0.0
O24 O 0.35275 0.38879 0.13048 0.0
C25 C 0.18835 0.40903 0.19075 0.0
O26 O 0.29309 0.36642 0.19681 0.0
O27 O 0.18956 0.37293 0.18373 0.0
C28 C 0.82713 0.38977 0.17693 0.0
O29 O 0.84168 0.4066 0.11835 0.0
Cd30 Cd 0.87293 0.37201 0.05032 0.0
O31 O 0.8209 0.35097 0.19249 0.0
Cd32 Cd 0.8194 0.28407 0.13708 0.0
C33 C 0.92678 0.34635 0.18025 0.0
O34 O 0.80929 0.30191 0.02282 0.0
O35 O 0.83702 0.25803 0.02707 0.0
O36 O 0.74171 0.24134 0.17439 0.0
C37 C 0.82062 0.27713 -0.00874 0.0
O38 O 0.92787 0.3708 0.13047 0.0
C39 C 0.74321 0.20641 0.19074 0.0
O40 O 0.89056 0.31114 0.19682 0.0
O41 O 0.78052 0.20762 0.18373 0.0
C42 C 0.40125 0.84518 0.17694 0.0
O43 O 0.39897 0.85974 0.11836 0.0
Cd44 Cd 0.46481 0.891 0.05033 0.0
O45 O 0.43382 0.83895 0.19249 0.0
Cd46 Cd 0.49923 0.83746 0.13708 0.0
C47 C 0.54431 0.94484 0.18026 0.0
O48 O 0.47127 0.82735 0.02282 0.0
O49 O 0.54288 0.85508 0.02707 0.0
O50 O 0.46427 0.75977 0.17439 0.0
C51 C 0.50738 0.83868 -0.00874 0.0
O52 O 0.52095 0.94594 0.13049 0.0
C53 C 0.50069 0.76127 0.19074 0.0
O54 O 0.54331 0.90862 0.19682 0.0
O55 O 0.5368 0.79858 0.18373 0.0
C56 C 0.51997 0.4193 0.17693 0.0
O57 O 0.50314 0.41702 0.11834 0.0
Cd58 Cd 0.53772 0.48286 0.05031 0.0
O59 O 0.55876 0.45187 0.19248 0.0
Cd60 Cd 0.62566 0.51728 0.13708 0.0
C61 C 0.56337 0.56236 0.18025 0.0
O62 O 0.60782 0.48932 0.02282 0.0
O63 O 0.65169 0.56093 0.02707 0.0
O64 O 0.6684 0.48232 0.1744 0.0
C65 C 0.6326 0.52543 -0.00874 0.0
O66 O 0.53892 0.539 0.13048 0.0
C67 C 0.70332 0.51875 0.19074 0.0
O68 O 0.59858 0.56136 0.19681 0.0
O69 O 0.70211 0.55486 0.18373 0.0
C70 C 0.06454 0.53802 0.17693 0.0
O71 O 0.04999 0.52119 0.11835 0.0
Cd72 Cd 0.01874 0.55578 0.05032 0.0
O73 O 0.07077 0.57682 0.19249 0.0
Cd74 Cd 0.07227 0.64372 0.13708 0.0
C75 C -0.03511 0.58144 0.18025 0.0
O76 O 0.08238 0.62588 0.02282 0.0
O77 O 0.05465 0.66976 0.02707 0.0
O78 O 0.14996 0.68645 0.17439 0.0
C79 C 0.07106 0.65066 -0.00874 0.0
O80 O -0.0362 0.55699 0.13047 0.0
C81 C 0.14846 0.72137 0.19074 0.0
O82 O 0.00111 0.61665 0.19681 0.0
O83 O 0.11115 0.72017 0.18373 0.0
C84 C 0.82712 0.41932 0.23073 0.0
O85 O 0.84167 0.41704 0.28932 0.0
Cd86 Cd 0.87291 0.48287 0.35736 0.0
O87 O 0.82089 0.45188 0.21516 0.0
Cd88 Cd 0.81938 0.51729 0.27055 0.0
C89 C 0.92677 0.56239 0.22746 0.0
O90 O 0.80926 0.48933 0.38482 0.0
O91 O 0.83698 0.56094 0.38057 0.0
O92 O 0.7417 0.48232 0.23322 0.0
C93 C 0.82058 0.52544 0.41637 0.0
O94 O 0.92786 0.53903 0.27723 0.0
C95 C 0.7432 0.51875 0.21687 0.0
O96 O 0.89055 0.56137 0.21085 0.0
O97 O 0.78051 0.55486 0.22389 0.0
C98 C 0.37169 0.84516 0.23073 0.0
O99 O 0.38852 0.8597 0.28932 0.0
Cd100 Cd 0.35393 0.89094 0.35737 0.0
O101 O 0.3329 0.83894 0.21516 0.0
Cd102 Cd 0.26599 0.83743 0.27056 0.0
C103 C 0.32828 0.94482 0.22746 0.0
O104 O 0.28382 0.8273 0.38482 0.0
O105 O 0.23994 0.85503 0.38057 0.0
O106 O 0.22326 0.75974 0.23322 0.0
C107 C 0.25904 0.83863 0.41637 0.0
O108 O 0.35273 0.9459 0.27724 0.0
C109 C 0.18834 0.76125 0.21687 0.0
O110 O 0.29308 0.90861 0.21086 0.0
O111 O 0.18955 0.79857 0.22388 0.0
C112 C 0.49043 0.38975 0.23073 0.0
O113 O 0.4927 0.40658 0.28931 0.0
Cd114 Cd 0.42688 0.372 0.35736 0.0
O115 O 0.45786 0.35096 0.21516 0.0
Cd116 Cd 0.39245 0.28406 0.27056 0.0
C117 C 0.34736 0.34635 0.22745 0.0
O118 O 0.42041 0.30189 0.38482 0.0
O119 O 0.3488 0.25801 0.38057 0.0
O120 O 0.42741 0.24132 0.23322 0.0
C121 C 0.3843 0.27711 0.41637 0.0
O122 O 0.37072 0.37081 0.27722 0.0
C123 C 0.39098 0.2064 0.21687 0.0
O124 O 0.34837 0.31115 0.21085 0.0
O125 O 0.35488 0.20761 0.22389 0.0
C126 C 0.06455 0.50847 0.23073 0.0
O127 O 0.05 0.51075 0.28932 0.0
Cd128 Cd 0.01876 0.44492 0.35736 0.0
O129 O 0.07078 0.47591 0.21516 0.0
Cd130 Cd 0.07229 0.4105 0.27056 0.0
C131 C -0.0351 0.3654 0.22746 0.0
O132 O 0.08241 0.43846 0.38482 0.0
O133 O 0.05469 0.36685 0.38057 0.0
O134 O 0.14997 0.44546 0.23322 0.0
C135 C 0.07109 0.40235 0.41637 0.0
O136 O -0.03619 0.38876 0.27723 0.0
C137 C 0.14847 0.40903 0.21687 0.0
O138 O 0.00112 0.36642 0.21085 0.0
O139 O 0.11116 0.37293 0.22389 0.0
C140 C 0.51998 0.08263 0.23074 0.0
O141 O 0.50315 0.06808 0.28932 0.0
Cd142 Cd 0.53774 0.03684 0.35737 0.0
O143 O 0.55877 0.08885 0.21516 0.0
Cd144 Cd 0.62568 0.09036 0.27056 0.0
C145 C 0.56339 -0.01703 0.22746 0.0
O146 O 0.60785 0.10049 0.38482 0.0
O147 O 0.65173 0.07275 0.38057 0.0
O148 O 0.66841 0.16805 0.23322 0.0
C149 C 0.63263 0.08916 0.41637 0.0
O150 O 0.53894 -0.01812 0.27724 0.0
C151 C 0.70333 0.16654 0.21687 0.0
O152 O 0.59859 0.01918 0.21086 0.0
O153 O 0.70212 0.12922 0.22388 0.0
C154 C 0.40124 0.53804 0.23073 0.0
O155 O 0.39897 0.52121 0.28931 0.0
Cd156 Cd 0.46479 0.55579 0.35736 0.0
O157 O 0.43381 0.57683 0.21516 0.0
Cd158 Cd 0.49922 0.64373 0.27055 0.0
C159 C 0.54431 0.58143 0.22745 0.0
O160 O 0.47126 0.6259 0.38482 0.0
O161 O 0.54287 0.66978 0.38057 0.0
O162 O 0.46426 0.68647 0.23322 0.0
C163 C 0.50737 0.65068 0.41637 0.0
O164 O 0.52095 0.55698 0.27722 0.0
C165 C 0.50069 0.72139 0.21687 0.0
O166 O 0.5433 0.61664 0.21085 0.0
O167 O 0.53679 0.72018 0.22389 0.0
C168 C 0.40125 0.84517 0.7307 0.0
O169 O 0.39897 0.85973 0.78928 0.0
Cd170 Cd 0.4648 0.891 0.85731 0.0
O171 O 0.43382 0.83895 0.71516 0.0
Cd172 Cd 0.49923 0.83746 0.77056 0.0
C173 C 0.54431 0.94484 0.72738 0.0
O174 O 0.47127 0.82736 0.88482 0.0
O175 O 0.54288 0.85507 0.88057 0.0
O176 O 0.46427 0.75977 0.73325 0.0
C177 C 0.50738 0.8387 0.91638 0.0
O178 O 0.52094 0.94594 0.77714 0.0
C179 C 0.50069 0.76127 0.7169 0.0
O180 O 0.54331 0.90863 0.71083 0.0
O181 O 0.5368 0.79858 0.72391 0.0
C182 C 0.51998 0.4193 0.73071 0.0
O183 O 0.50314 0.41701 0.78929 0.0
Cd184 Cd 0.53771 0.48285 0.85732 0.0
O185 O 0.55877 0.45187 0.71516 0.0
Cd186 Cd 0.62566 0.51728 0.77056 0.0
C187 C 0.56336 0.56236 0.72739 0.0
O188 O 0.60782 0.48932 0.88482 0.0
O189 O 0.6517 0.56094 0.88057 0.0
O190 O 0.6684 0.48232 0.73324 0.0
C191 C 0.63259 0.52544 0.91638 0.0
O192 O 0.5389 0.53899 0.77715 0.0
C193 C 0.70332 0.51875 0.71689 0.0
O194 O 0.59858 0.56137 0.71084 0.0
O195 O 0.70211 0.55486 0.72391 0.0
C196 C 0.06455 0.53802 0.7307 0.0
O197 O 0.04999 0.52119 0.78929 0.0
Cd198 Cd 0.01874 0.55577 0.85732 0.0
O199 O 0.07078 0.57682 0.71516 0.0
Cd200 Cd 0.07227 0.64372 0.77056 0.0
C201 C -0.03511 0.58143 0.72739 0.0
O202 O 0.08237 0.62587 0.88482 0.0
O203 O 0.05466 0.66977 0.88057 0.0
O204 O 0.14996 0.68645 0.73325 0.0
C205 C 0.07104 0.65065 0.91638 0.0
O206 O -0.0362 0.55698 0.77716 0.0
C207 C 0.14846 0.72137 0.7169 0.0
O208 O 0.00111 0.61665 0.71083 0.0
O209 O 0.11115 0.72017 0.72391 0.0
C210 C 0.49042 0.08262 0.7307 0.0
O211 O 0.49271 0.06806 0.78928 0.0
Cd212 Cd 0.42687 0.03679 0.85731 0.0
O213 O 0.45785 0.08884 0.71516 0.0
Cd214 Cd 0.39244 0.09032 0.77056 0.0
C215 C 0.34736 -0.01706 0.72738 0.0
O216 O 0.4204 0.10042 0.88482 0.0
O217 O 0.34879 0.07271 0.88057 0.0
O218 O 0.4274 0.16802 0.73325 0.0
C219 C 0.38429 0.08909 0.91638 0.0
O220 O 0.37073 -0.01815 0.77714 0.0
C221 C 0.39098 0.16652 0.7169 0.0
O222 O 0.34836 0.01916 0.71083 0.0
O223 O 0.35487 0.12921 0.72391 0.0
C224 C 0.37169 0.50849 0.73071 0.0
O225 O 0.38853 0.51078 0.78929 0.0
Cd226 Cd 0.35396 0.44494 0.85732 0.0
O227 O 0.3329 0.47592 0.71516 0.0
Cd228 Cd 0.26601 0.41051 0.77056 0.0
C229 C 0.32831 0.36543 0.72739 0.0
O230 O 0.28386 0.43847 0.88482 0.0
O231 O 0.23997 0.36685 0.88057 0.0
O232 O 0.22327 0.44547 0.73324 0.0
C233 C 0.25908 0.40235 0.91638 0.0
O234 O 0.35277 0.3888 0.77715 0.0
C235 C 0.18835 0.40904 0.71689 0.0
O236 O 0.29309 0.36642 0.71084 0.0
O237 O 0.18956 0.37293 0.72391 0.0
C238 C 0.82712 0.38977 0.7307 0.0
O239 O 0.84168 0.4066 0.78929 0.0
Cd240 Cd 0.87294 0.37202 0.85732 0.0
O241 O 0.82089 0.35097 0.71516 0.0
Cd242 Cd 0.8194 0.28407 0.77056 0.0
C243 C 0.92678 0.34635 0.72739 0.0
O244 O 0.8093 0.30192 0.88482 0.0
O245 O 0.83701 0.25802 0.88057 0.0
O246 O 0.74171 0.24134 0.73325 0.0
C247 C 0.82063 0.27714 0.91638 0.0
O248 O 0.92787 0.37081 0.77716 0.0
C249 C 0.74321 0.20641 0.7169 0.0
O250 O 0.89056 0.31114 0.71083 0.0
O251 O 0.78052 0.20762 0.72391 0.0
C252 C 0.06456 0.50848 0.6769 0.0
O253 O 0.05 0.51076 0.61832 0.0
Cd254 Cd 0.01876 0.44493 0.55027 0.0
O255 O 0.07079 0.47591 0.69247 0.0
Cd256 Cd 0.07229 0.4105 0.63707 0.0
C257 C -0.0351 0.36541 0.68018 0.0
O258 O 0.0824 0.43846 0.52281 0.0
O259 O 0.0547 0.36685 0.52706 0.0
O260 O 0.14997 0.44546 0.67441 0.0
C261 C 0.07107 0.40235 0.49126 0.0
O262 O -0.03619 0.38877 0.63041 0.0
C263 C 0.14847 0.40903 0.69076 0.0
O264 O 0.00111 0.36642 0.69678 0.0
O265 O 0.11116 0.37293 0.68375 0.0
C266 C 0.51999 0.08264 0.6769 0.0
O267 O 0.50315 0.06809 0.61831 0.0
Cd268 Cd 0.53773 0.03684 0.55026 0.0
O269 O 0.55877 0.08886 0.69247 0.0
Cd270 Cd 0.62568 0.09036 0.63707 0.0
C271 C 0.56338 -0.01703 0.68017 0.0
O272 O 0.60784 0.10048 0.52281 0.0
O273 O 0.65174 0.07276 0.52706 0.0
O274 O 0.66841 0.16805 0.67441 0.0
C275 C 0.63262 0.08915 0.49126 0.0
O276 O 0.53893 -0.01811 0.63041 0.0
C277 C 0.70333 0.16654 0.69077 0.0
O278 O 0.59859 0.01918 0.69677 0.0
O279 O 0.70212 0.12922 0.68375 0.0
C280 C 0.40124 0.53804 0.6769 0.0
O281 O 0.39896 0.5212 0.61832 0.0
Cd282 Cd 0.46478 0.55577 0.55028 0.0
O283 O 0.43381 0.57683 0.69247 0.0
Cd284 Cd 0.49922 0.64373 0.63707 0.0
C285 C 0.5443 0.58143 0.68018 0.0
O286 O 0.47126 0.62589 0.52281 0.0
O287 O 0.54287 0.66979 0.52706 0.0
O288 O 0.46426 0.68647 0.67441 0.0
C289 C 0.50737 0.65067 0.49126 0.0
O290 O 0.52093 0.55697 0.63042 0.0
C291 C 0.50069 0.72139 0.69076 0.0
O292 O 0.5433 0.61664 0.69677 0.0
O293 O 0.53679 0.72018 0.68375 0.0
C294 C 0.82711 0.41931 0.6769 0.0
O295 O 0.84167 0.41703 0.61832 0.0
Cd296 Cd 0.87291 0.48286 0.55027 0.0
O297 O 0.82089 0.45188 0.69247 0.0
Cd298 Cd 0.81938 0.51729 0.63707 0.0
C299 C 0.92677 0.56238 0.68018 0.0
O300 O 0.80927 0.48933 0.52281 0.0
O301 O 0.83698 0.56094 0.52706 0.0
O302 O 0.7417 0.48232 0.67441 0.0
C303 C 0.8206 0.52544 0.49126 0.0
O304 O 0.92786 0.53902 0.63041 0.0
C305 C 0.7432 0.51875 0.69076 0.0
O306 O 0.89056 0.56137 0.69678 0.0
O307 O 0.78051 0.55486 0.68375 0.0
C308 C 0.37168 0.84515 0.6769 0.0
O309 O 0.38852 0.8597 0.61831 0.0
Cd310 Cd 0.35394 0.89095 0.55026 0.0
O311 O 0.3329 0.83893 0.69246 0.0
Cd312 Cd 0.26599 0.83743 0.63707 0.0
C313 C 0.32829 0.94482 0.68017 0.0
O314 O 0.28383 0.82731 0.52281 0.0
O315 O 0.23993 0.85503 0.52706 0.0
O316 O 0.22326 0.75974 0.67441 0.0
C317 C 0.25905 0.83864 0.49126 0.0
O318 O 0.35274 0.9459 0.63041 0.0
C319 C 0.18834 0.76125 0.69077 0.0
O320 O 0.29308 0.90861 0.69677 0.0
O321 O 0.18955 0.79857 0.68375 0.0
C322 C 0.49043 0.38974 0.6769 0.0
O323 O 0.49271 0.40658 0.61832 0.0
Cd324 Cd 0.42689 0.37201 0.55028 0.0
O325 O 0.45786 0.35096 0.69247 0.0
Cd326 Cd 0.39245 0.28406 0.63707 0.0
C327 C 0.34737 0.34636 0.68018 0.0
O328 O 0.42041 0.3019 0.52281 0.0
O329 O 0.3488 0.258 0.52706 0.0
O330 O 0.42741 0.24132 0.67441 0.0
C331 C 0.3843 0.27712 0.49126 0.0
O332 O 0.37074 0.37082 0.63042 0.0
C333 C 0.39098 0.2064 0.69077 0.0
O334 O 0.34837 0.31115 0.69677 0.0
O335 O 0.35488 0.20761 0.68375 0.0
loop_
_geom_bond_atom_site_label_1
_geom_bond_atom_site_label_2
_geom_bond_distance
_geom_bond_site_symmetry_2
_ccdc_geom_bond_type
C0 O1 1.306 . S
C0 O3 1.160 . S
O1 C0 1.306 . S
O1 Cd2 2.228 . S
Cd2 O1 2.228 . S
Cd2 O6 2.273 . S
Cd2 O10 2.277 . S
O3 C0 1.160 . S
O3 Cd4 2.203 . S
Cd4 O3 2.203 . S
Cd4 O6 2.411 . S
Cd4 O7 2.333 . S
Cd4 O8 2.352 . S
Cd4 O12 2.277 . S
Cd4 O13 2.356 . S
C5 O10 1.209 . S
C5 O12 1.226 . S
O6 Cd2 2.273 . S
O6 Cd4 2.411 . S
O6 C9 1.320 . S
O7 Cd4 2.333 . S
O7 C9 1.214 . S
O8 Cd4 2.352 . S
O8 C11 1.258 . S
C9 O6 1.320 . S
C9 O7 1.214 . S
O10 Cd2 2.277 . S
O10 C5 1.209 . S
C11 O8 1.258 . S
C11 O13 1.282 . S
O12 Cd4 2.277 . S
O12 C5 1.226 . S
O13 Cd4 2.356 . S
O13 C11 1.282 . S
C14 O15 1.306 . S
C14 O17 1.160 . S
O15 C14 1.306 . S
O15 Cd16 2.228 . S
Cd16 O15 2.228 . S
Cd16 O20 2.273 . S
Cd16 O24 2.277 . S
O17 C14 1.160 . S
O17 Cd18 2.203 . S
Cd18 O17 2.203 . S
Cd18 O20 2.411 . S
Cd18 O21 2.333 . S
Cd18 O22 2.352 . S
Cd18 O26 2.277 . S
Cd18 O27 2.356 . S
C19 O24 1.209 . S
C19 O26 1.226 . S
O20 Cd16 2.273 . S
O20 Cd18 2.411 . S
O20 C23 1.320 . S
O21 Cd18 2.333 . S
O21 C23 1.214 . S
O22 Cd18 2.352 . S
O22 C25 1.258 . S
C23 O20 1.320 . S
C23 O21 1.214 . S
O24 Cd16 2.277 . S
O24 C19 1.209 . S
C25 O22 1.258 . S
C25 O27 1.282 . S
O26 Cd18 2.277 . S
O26 C19 1.226 . S
O27 Cd18 2.356 . S
O27 C25 1.282 . S
C28 O29 1.306 . S
C28 O31 1.160 . S
O29 C28 1.306 . S
O29 Cd30 2.228 . S
Cd30 O29 2.228 . S
Cd30 O34 2.273 . S
Cd30 O38 2.277 . S
O31 C28 1.160 . S
O31 Cd32 2.203 . S
Cd32 O31 2.203 . S
Cd32 O34 2.411 . S
Cd32 O35 2.333 . S
Cd32 O36 2.352 . S
Cd32 O40 2.277 . S
Cd32 O41 2.356 . S
C33 O38 1.209 . S
C33 O40 1.226 . S
O34 Cd30 2.273 . S
O34 Cd32 2.411 . S
O34 C37 1.320 . S
O35 Cd32 2.333 . S
O35 C37 1.214 . S
O36 Cd32 2.352 . S
O36 C39 1.258 . S
C37 O34 1.320 . S
C37 O35 1.214 . S
O38 Cd30 2.277 . S
O38 C33 1.209 . S
C39 O36 1.258 . S
C39 O41 1.282 . S
O40 Cd32 2.277 . S
O40 C33 1.226 . S
O41 Cd32 2.356 . S
O41 C39 1.282 . S
C42 O43 1.306 . S
C42 O45 1.160 . S
O43 C42 1.306 . S
O43 Cd44 2.228 . S
Cd44 O43 2.228 . S
Cd44 O48 2.273 . S
Cd44 O52 2.277 . S
O45 C42 1.160 . S
O45 Cd46 2.203 . S
Cd46 O45 2.203 . S
Cd46 O48 2.411 . S
Cd46 O49 2.333 . S
Cd46 O50 2.352 . S
Cd46 O54 2.277 . S
Cd46 O55 2.356 . S
C47 O52 1.209 . S
C47 O54 1.226 . S
O48 Cd44 2.273 . S
O48 Cd46 2.411 . S
O48 C51 1.320 . S
O49 Cd46 2.333 . S
O49 C51 1.214 . S
O50 Cd46 2.352 . S
O50 C53 1.258 . S
C51 O48 1.320 . S
C51 O49 1.214 . S
O52 Cd44 2.277 . S
O52 C47 1.209 . S
C53 O50 1.258 . S
C53 O55 1.282 . S
O54 Cd46 2.277 . S
O54 C47 1.226 . S
O55 Cd46 2.356 . S
O55 C53 1.282 . S
C56 O57 1.306 . S
C56 O59 1.160 . S
O57 C56 1.306 . S
O57 Cd58 2.228 . S
Cd58 O57 2.228 . S
Cd58 O62 2.273 . S
Cd58 O66 2.277 . S
O59 C56 1.160 . S
O59 Cd60 2.203 . S
Cd60 O59 2.203 . S
Cd60 O62 2.411 . S
Cd60 O63 2.333 . S
Cd60 O64 2.352 . S
Cd60 O68 2.277 . S
Cd60 O69 2.356 . S
C61 O66 1.209 . S
C61 O68 1.226 . S
O62 Cd58 2.273 . S
O62 Cd60 2.411 . S
O62 C65 1.320 . S
O63 Cd60 2.333 . S
O63 C65 1.214 . S
O64 Cd60 2.352 . S
O64 C67 1.258 . S
C65 O62 1.320 . S
C65 O63 1.214 . S
O66 Cd58 2.277 . S
O66 C61 1.209 . S
C67 O64 1.258 . S
C67 O69 1.282 . S
O68 Cd60 2.277 . S
O68 C61 1.226 . S
O69 Cd60 2.356 . S
O69 C67 1.282 . S
C70 O71 1.306 . S
C70 O73 1.160 . S
O71 C70 1.306 . S
O71 Cd72 2.228 . S
Cd72 O71 2.228 . S
Cd72 O76 2.273 . S
Cd72 O80 2.277 . S
O73 C70 1.160 . S
O73 Cd74 2.203 . S
Cd74 O73 2.203 . S
Cd74 O76 2.411 . S
Cd74 O77 2.333 . S
Cd74 O78 2.352 . S
Cd74 O82 2.277 . S
Cd74 O83 2.356 . S
C75 O80 1.209 . S
C75 O82 1.226 . S
O76 Cd72 2.273 . S
O76 Cd74 2.411 . S
O76 C79 1.320 . S
O77 Cd74 2.333 . S
O77 C79 1.214 . S
O78 Cd74 2.352 . S
O78 C81 1.258 . S
C79 O76 1.320 . S
C79 O77 1.214 . S
O80 Cd72 2.277 . S
O80 C75 1.209 . S
C81 O78 1.258 . S
C81 O83 1.282 . S
O82 Cd74 2.277 . S
O82 C75 1.226 . S
O83 Cd74 2.356 . S
O83 C81 1.282 . S
C84 O85 1.306 . S
C84 O87 1.160 . S
O85 C84 1.306 . S
O85 Cd86 2.228 . S
Cd86 O85 2.228 . S
Cd86 O90 2.273 . S
Cd86 O94 2.277 . S
O87 C84 1.160 . S
O87 Cd88 2.203 . S
Cd88 O87 2.203 . S
Cd88 O90 2.411 . S
Cd88 O91 2.333 . S
Cd88 O92 2.352 . S
Cd88 O96 2.277 . S
Cd88 O97 2.356 . S
C89 O94 1.209 . S
C89 O96 1.226 . S
O90 Cd86 2.273 . S
O90 Cd88 2.411 . S
O90 C93 1.320 . S
O91 Cd88 2.333 . S
O91 C93 1.214 . S
O92 Cd88 2.352 . S
O92 C95 1.258 . S
C93 O90 1.320 . S
C93 O91 1.214 . S
O94 Cd86 2.277 . S
O94 C89 1.209 . S
C95 O92 1.258 . S
C95 O97 1.282 . S
O96 Cd88 2.277 . S
O96 C89 1.226 . S
O97 Cd88 2.356 . S
O97 C95 1.282 . S
C98 O99 1.306 . S
C98 O101 1.160 . S
O99 C98 1.306 . S
O99 Cd100 2.228 . S
Cd100 O99 2.228 . S
Cd100 O104 2.273 . S
Cd100 O108 2.277 . S
O101 C98 1.160 . S
O101 Cd102 2.203 . S
Cd102 O101 2.203 . S
Cd102 O104 2.411 . S
Cd102 O105 2.333 . S
Cd102 O106 2.352 . S
Cd102 O110 2.277 . S
Cd102 O111 2.356 . S
C103 O108 1.209 . S
C103 O110 1.226 . S
O104 Cd100 2.273 . S
O104 Cd102 2.411 . S
O104 C107 1.320 . S
O105 Cd102 2.333 . S
O105 C107 1.214 . S
O106 Cd102 2.352 . S
O106 C109 1.258 . S
C107 O104 1.320 . S
C107 O105 1.214 . S
O108 Cd100 2.277 . S
O108 C103 1.209 . S
C109 O106 1.258 . S
C109 O111 1.282 . S
O110 Cd102 2.277 . S
O110 C103 1.226 . S
O111 Cd102 2.356 . S
O111 C109 1.282 . S
C112 O113 1.306 . S
C112 O115 1.160 . S
O113 C112 1.306 . S
O113 Cd114 2.228 . S
Cd114 O113 2.228 . S
Cd114 O118 2.273 . S
Cd114 O122 2.277 . S
O115 C112 1.160 . S
O115 Cd116 2.203 . S
Cd116 O115 2.203 . S
Cd116 O118 2.411 . S
Cd116 O119 2.333 . S
Cd116 O120 2.352 . S
Cd116 O124 2.277 . S
Cd116 O125 2.356 . S
C117 O122 1.209 . S
C117 O124 1.226 . S
O118 Cd114 2.273 . S
O118 Cd116 2.411 . S
O118 C121 1.320 . S
O119 Cd116 2.333 . S
O119 C121 1.214 . S
O120 Cd116 2.352 . S
O120 C123 1.258 . S
C121 O118 1.320 . S
C121 O119 1.214 . S
O122 Cd114 2.277 . S
O122 C117 1.209 . S
C123 O120 1.258 . S
C123 O125 1.282 . S
O124 Cd116 2.277 . S
O124 C117 1.226 . S
O125 Cd116 2.356 . S
O125 C123 1.282 . S
C126 O127 1.306 . S
C126 O129 1.160 . S
O127 C126 1.306 . S
O127 Cd128 2.228 . S
Cd128 O127 2.228 . S
Cd128 O132 2.273 . S
Cd128 O136 2.277 . S
O129 C126 1.160 . S
O129 Cd130 2.203 . S
Cd130 O129 2.203 . S
Cd130 O132 2.411 . S
Cd130 O133 2.333 . S
Cd130 O134 2.352 . S
Cd130 O138 2.277 . S
Cd130 O139 2.356 . S
C131 O136 1.209 . S
C131 O138 1.226 . S
O132 Cd128 2.273 . S
O132 Cd130 2.411 . S
O132 C135 1.320 . S
O133 Cd130 2.333 . S
O133 C135 1.214 . S
O134 Cd130 2.352 . S
O134 C137 1.258 . S
C135 O132 1.320 . S
C135 O133 1.214 . S
O136 Cd128 2.277 . S
O136 C131 1.209 . S
C137 O134 1.258 . S
C137 O139 1.282 . S
O138 Cd130 2.277 . S
O138 C131 1.226 . S
O139 Cd130 2.356 . S
O139 C137 1.282 . S
C140 O141 1.306 . S
C140 O143 1.160 . S
O141 C140 1.306 . S
O141 Cd142 2.228 . S
Cd142 O141 2.228 . S
Cd142 O146 2.273 . S
Cd142 O150 2.277 . S
O143 C140 1.160 . S
O143 Cd144 2.203 . S
Cd144 O143 2.203 . S
Cd144 O146 2.411 . S
Cd144 O147 2.333 . S
Cd144 O148 2.352 . S
Cd144 O152 2.277 . S
Cd144 O153 2.356 . S
C145 O150 1.209 . S
C145 O152 1.226 . S
O146 Cd142 2.273 . S
O146 Cd144 2.411 . S
O146 C149 1.320 . S
O147 Cd144 2.333 . S
O147 C149 1.214 . S
O148 Cd144 2.352 . S
O148 C151 1.258 . S
C149 O146 1.320 . S
C149 O147 1.214 . S
O150 Cd142 2.277 . S
O150 C145 1.209 . S
C151 O148 1.258 . S
C151 O153 1.282 . S
O152 Cd144 2.277 . S
O152 C145 1.226 . S
O153 Cd144 2.356 . S
O153 C151 1.282 . S
C154 O155 1.306 . S
C154 O157 1.160 . S
O155 C154 1.306 . S
O155 Cd156 2.228 . S
Cd156 O155 2.228 . S
Cd156 O160 2.273 . S
Cd156 O164 2.277 . S
O157 C154 1.160 . S
O157 Cd158 2.203 . S
Cd158 O157 2.203 . S
Cd158 O160 2.411 . S
Cd158 O161 2.333 . S
Cd158 O162 2.352 . S
Cd158 O166 2.277 . S
Cd158 O167 2.356 . S
C159 O164 1.209 . S
C159 O166 1.226 . S
O160 Cd156 2.273 . S
O160 Cd158 2.411 . S
O160 C163 1.320 . S
O161 Cd158 2.333 . S
O161 C163 1.214 . S
O162 Cd158 2.352 . S
O162 C165 1.258 . S
C163 O160 1.320 . S
C163 O161 1.214 . S
O164 Cd156 2.277 . S
O164 C159 1.209 . S
C165 O162 1.258 . S
C165 O167 1.282 . S
O166 Cd158 2.277 . S
O166 C159 1.226 . S
O167 Cd158 2.356 . S
O167 C165 1.282 . S
C168 O169 1.306 . S
C168 O171 1.160 . S
O169 C168 1.306 . S
O169 Cd170 2.228 . S
Cd170 O169 2.228 . S
Cd170 O174 2.273 . S
Cd170 O178 2.277 . S
O171 C168 1.160 . S
O171 Cd172 2.203 . S
Cd172 O171 2.203 . S
Cd172 O174 2.411 . S
Cd172 O175 2.333 . S
Cd172 O176 2.352 . S
Cd172 O180 2.277 . S
Cd172 O181 2.356 . S
C173 O178 1.209 . S
C173 O180 1.226 . S
O174 Cd170 2.273 . S
O174 Cd172 2.411 . S
O174 C177 1.320 . S
O175 Cd172 2.333 . S
O175 C177 1.214 . S
O176 Cd172 2.352 . S
O176 C179 1.258 . S
C177 O174 1.320 . S
C177 O175 1.214 . S
O178 Cd170 2.277 . S
O178 C173 1.209 . S
C179 O176 1.258 . S
C179 O181 1.282 . S
O180 Cd172 2.277 . S
O180 C173 1.226 . S
O181 Cd172 2.356 . S
O181 C179 1.282 . S
C182 O183 1.306 . S
C182 O185 1.160 . S
O183 C182 1.306 . S
O183 Cd184 2.228 . S
Cd184 O183 2.228 . S
Cd184 O188 2.273 . S
Cd184 O192 2.277 . S
O185 C182 1.160 . S
O185 Cd186 2.203 . S
Cd186 O185 2.203 . S
Cd186 O188 2.411 . S
Cd186 O189 2.333 . S
Cd186 O190 2.352 . S
Cd186 O194 2.277 . S
Cd186 O195 2.356 . S
C187 O192 1.209 . S
C187 O194 1.226 . S
O188 Cd184 2.273 . S
O188 Cd186 2.411 . S
O188 C191 1.320 . S
O189 Cd186 2.333 . S
O189 C191 1.214 . S
O190 Cd186 2.352 . S
O190 C193 1.258 . S
C191 O188 1.320 . S
C191 O189 1.214 . S
O192 Cd184 2.277 . S
O192 C187 1.209 . S
C193 O190 1.258 . S
C193 O195 1.282 . S
O194 Cd186 2.277 . S
O194 C187 1.226 . S
O195 Cd186 2.356 . S
O195 C193 1.282 . S
C196 O197 1.306 . S
C196 O199 1.160 . S
O197 C196 1.306 . S
O197 Cd198 2.228 . S
Cd198 O197 2.228 . S
Cd198 O202 2.273 . S
Cd198 O206 2.277 . S
O199 C196 1.160 . S
O199 Cd200 2.203 . S
Cd200 O199 2.203 . S
Cd200 O202 2.411 . S
Cd200 O203 2.333 . S
Cd200 O204 2.352 . S
Cd200 O208 2.277 . S
Cd200 O209 2.356 . S
C201 O206 1.209 . S
C201 O208 1.226 . S
O202 Cd198 2.273 . S
O202 Cd200 2.411 . S
O202 C205 1.320 . S
O203 Cd200 2.333 . S
O203 C205 1.214 . S
O204 Cd200 2.352 . S
O204 C207 1.258 . S
C205 O202 1.320 . S
C205 O203 1.214 . S
O206 Cd198 2.277 . S
O206 C201 1.209 . S
C207 O204 1.258 . S
C207 O209 1.282 . S
O208 Cd200 2.277 . S
O208 C201 1.226 . S
O209 Cd200 2.356 . S
O209 C207 1.282 . S
C210 O211 1.306 . S
C210 O213 1.160 . S
O211 C210 1.306 . S
O211 Cd212 2.228 . S
Cd212 O211 2.228 . S
Cd212 O216 2.273 . S
Cd212 O220 2.277 . S
O213 C210 1.160 . S
O213 Cd214 2.203 . S
Cd214 O213 2.203 . S
Cd214 O216 2.411 . S
Cd214 O217 2.333 . S
Cd214 O218 2.352 . S
Cd214 O222 2.277 . S
Cd214 O223 2.356 . S
C215 O220 1.209 . S
C215 O222 1.226 . S
O216 Cd212 2.273 . S
O216 Cd214 2.411 . S
O216 C219 1.320 . S
O217 Cd214 2.333 . S
O217 C219 1.214 . S
O218 Cd214 2.352 . S
O218 C221 1.258 . S
C219 O216 1.320 . S
C219 O217 1.214 . S
O220 Cd212 2.277 . S
O220 C215 1.209 . S
C221 O218 1.258 . S
C221 O223 1.282 . S
O222 Cd214 2.277 . S
O222 C215 1.226 . S
O223 Cd214 2.356 . S
O223 C221 1.282 . S
C224 O225 1.306 . S
C224 O227 1.160 . S
O225 C224 1.306 . S
O225 Cd226 2.228 . S
Cd226 O225 2.228 . S
Cd226 O230 2.273 . S
Cd226 O234 2.277 . S
O227 C224 1.160 . S
O227 Cd228 2.203 . S
Cd228 O227 2.203 . S
Cd228 O230 2.411 . S
Cd228 O231 2.333 . S
Cd228 O232 2.352 . S
Cd228 O236 2.277 . S
Cd228 O237 2.356 . S
C229 O234 1.209 . S
C229 O236 1.226 . S
O230 Cd226 2.273 . S
O230 Cd228 2.411 . S
O230 C233 1.320 . S
O231 Cd228 2.333 . S
O231 C233 1.214 . S
O232 Cd228 2.352 . S
O232 C235 1.258 . S
C233 O230 1.320 . S
C233 O231 1.214 . S
O234 Cd226 2.277 . S
O234 C229 1.209 . S
C235 O232 1.258 . S
C235 O237 1.282 . S
O236 Cd228 2.277 . S
O236 C229 1.226 . S
O237 Cd228 2.356 . S
O237 C235 1.282 . S
C238 O239 1.306 . S
C238 O241 1.160 . S
O239 C238 1.306 . S
O239 Cd240 2.228 . S
Cd240 O239 2.228 . S
Cd240 O244 2.273 . S
Cd240 O248 2.277 . S
O241 C238 1.160 . S
O241 Cd242 2.203 . S
Cd242 O241 2.203 . S
Cd242 O244 2.411 . S
Cd242 O245 2.333 . S
Cd242 O246 2.352 . S
Cd242 O250 2.277 . S
Cd242 O251 2.356 . S
C243 O248 1.209 . S
C243 O250 1.226 . S
O244 Cd240 2.273 . S
O244 Cd242 2.411 . S
O244 C247 1.320 . S
O245 Cd242 2.333 . S
O245 C247 1.214 . S
O246 Cd242 2.352 . S
O246 C249 1.258 . S
C247 O244 1.320 . S
C247 O245 1.214 . S
O248 Cd240 2.277 . S
O248 C243 1.209 . S
C249 O246 1.258 . S
C249 O251 1.282 . S
O250 Cd242 2.277 . S
O250 C243 1.226 . S
O251 Cd242 2.356 . S
O251 C249 1.282 . S
C252 O253 1.306 . S
C252 O255 1.160 . S
O253 C252 1.306 . S
O253 Cd254 2.228 . S
Cd254 O253 2.228 . S
Cd254 O258 2.273 . S
Cd254 O262 2.277 . S
O255 C252 1.160 . S
O255 Cd256 2.203 . S
Cd256 O255 2.203 . S
Cd256 O258 2.411 . S
Cd256 O259 2.333 . S
Cd256 O260 2.352 . S
Cd256 O264 2.277 . S
Cd256 O265 2.356 . S
C257 O262 1.209 . S
C257 O264 1.226 . S
O258 Cd254 2.273 . S
O258 Cd256 2.411 . S
O258 C261 1.320 . S
O259 Cd256 2.333 . S
O259 C261 1.214 . S
O260 Cd256 2.352 . S
O260 C263 1.258 . S
C261 O258 1.320 . S
C261 O259 1.214 . S
O262 Cd254 2.277 . S
O262 C257 1.209 . S
C263 O260 1.258 . S
C263 O265 1.282 . S
O264 Cd256 2.277 . S
O264 C257 1.226 . S
O265 Cd256 2.356 . S
O265 C263 1.282 . S
C266 O267 1.306 . S
C266 O269 1.160 . S
O267 C266 1.306 . S
O267 Cd268 2.228 . S
Cd268 O267 2.228 . S
Cd268 O272 2.273 . S
Cd268 O276 2.277 . S
O269 C266 1.160 . S
O269 Cd270 2.203 . S
Cd270 O269 2.203 . S
Cd270 O272 2.411 . S
Cd270 O273 2.333 . S
Cd270 O274 2.352 . S
Cd270 O278 2.277 . S
Cd270 O279 2.356 . S
C271 O276 1.209 . S
C271 O278 1.226 . S
O272 Cd268 2.273 . S
O272 Cd270 2.411 . S
O272 C275 1.320 . S
O273 Cd270 2.333 . S
O273 C275 1.214 . S
O274 Cd270 2.352 . S
O274 C277 1.258 . S
C275 O272 1.320 . S
C275 O273 1.214 . S
O276 Cd268 2.277 . S
O276 C271 1.209 . S
C277 O274 1.258 . S
C277 O279 1.282 . S
O278 Cd270 2.277 . S
O278 C271 1.226 . S
O279 Cd270 2.356 . S
O279 C277 1.282 . S
C280 O281 1.306 . S
C280 O283 1.160 . S
O281 C280 1.306 . S
O281 Cd282 2.228 . S
Cd282 O281 2.228 . S
Cd282 O286 2.273 . S
Cd282 O290 2.277 . S
O283 C280 1.160 . S
O283 Cd284 2.203 . S
Cd284 O283 2.203 . S
Cd284 O286 2.411 . S
Cd284 O287 2.333 . S
Cd284 O288 2.352 . S
Cd284 O292 2.277 . S
Cd284 O293 2.356 . S
C285 O290 1.209 . S
C285 O292 1.226 . S
O286 Cd282 2.273 . S
O286 Cd284 2.411 . S
O286 C289 1.320 . S
O287 Cd284 2.333 . S
O287 C289 1.214 . S
O288 Cd284 2.352 . S
O288 C291 1.258 . S
C289 O286 1.320 . S
C289 O287 1.214 . S
O290 Cd282 2.277 . S
O290 C285 1.209 . S
C291 O288 1.258 . S
C291 O293 1.282 . S
O292 Cd284 2.277 . S
O292 C285 1.226 . S
O293 Cd284 2.356 . S
O293 C291 1.282 . S
C294 O295 1.306 . S
C294 O297 1.160 . S
O295 C294 1.306 . S
O295 Cd296 2.228 . S
Cd296 O295 2.228 . S
Cd296 O300 2.273 . S
Cd296 O304 2.277 . S
O297 C294 1.160 . S
O297 Cd298 2.203 . S
Cd298 O297 2.203 . S
Cd298 O300 2.411 . S
Cd298 O301 2.333 . S
Cd298 O302 2.352 . S
Cd298 O306 2.277 . S
Cd298 O307 2.356 . S
C299 O304 1.209 . S
C299 O306 1.226 . S
O300 Cd296 2.273 . S
O300 Cd298 2.411 . S
O300 C303 1.320 . S
O301 Cd298 2.333 . S
O301 C303 1.214 . S
O302 Cd298 2.352 . S
O302 C305 1.258 . S
C303 O300 1.320 . S
C303 O301 1.214 . S
O304 Cd296 2.277 . S
O304 C299 1.209 . S
C305 O302 1.258 . S
C305 O307 1.282 . S
O306 Cd298 2.277 . S
O306 C299 1.226 . S
O307 Cd298 2.356 . S
O307 C305 1.282 . S
C308 O309 1.306 . S
C308 O311 1.160 . S
O309 C308 1.306 . S
O309 Cd310 2.228 . S
Cd310 O309 2.228 . S
Cd310 O314 2.273 . S
Cd310 O318 2.277 . S
O311 C308 1.160 . S
O311 Cd312 2.203 . S
Cd312 O311 2.203 . S
Cd312 O314 2.411 . S
Cd312 O315 2.333 . S
Cd312 O316 2.352 . S
Cd312 O320 2.277 . S
Cd312 O321 2.356 . S
C313 O318 1.209 . S
C313 O320 1.226 . S
O314 Cd310 2.273 . S
O314 Cd312 2.411 . S
O314 C317 1.320 . S
O315 Cd312 2.333 . S
O315 C317 1.214 . S
O316 Cd312 2.352 . S
O316 C319 1.258 . S
C317 O314 1.320 . S
C317 O315 1.214 . S
O318 Cd310 2.277 . S
O318 C313 1.209 . S
C319 O316 1.258 . S
C319 O321 1.282 . S
O320 Cd312 2.277 . S
O320 C313 1.226 . S
O321 Cd312 2.356 . S
O321 C319 1.282 . S
C322 O323 1.306 . S
C322 O325 1.160 . S
O323 C322 1.306 . S
O323 Cd324 2.228 . S
Cd324 O323 2.228 . S
Cd324 O328 2.273 . S
Cd324 O332 2.277 . S
O325 C322 1.160 . S
O325 Cd326 2.203 . S
Cd326 O325 2.203 . S
Cd326 O328 2.411 . S
Cd326 O329 2.333 . S
Cd326 O330 2.352 . S
Cd326 O334 2.277 . S
Cd326 O335 2.356 . S
C327 O332 1.209 . S
C327 O334 1.226 . S
O328 Cd324 2.273 . S
O328 Cd326 2.411 . S
O328 C331 1.320 . S
O329 Cd326 2.333 . S
O329 C331 1.214 . S
O330 Cd326 2.352 . S
O330 C333 1.258 . S
C331 O328 1.320 . S
C331 O329 1.214 . S
O332 Cd324 2.277 . S
O332 C327 1.209 . S
C333 O330 1.258 . S
C333 O335 1.282 . S
O334 Cd326 2.277 . S
O334 C327 1.226 . S
O335 Cd326 2.356 . S
O335 C333 1.282 . S
C5 C103 1.654 1_545 S
C117 C19 1.654 . S
C33 C131 1.654 1_655 S
C47 C145 1.654 1_565 S
C159 C61 1.654 . S
C75 C89 1.654 1_455 S
C173 C271 1.654 1_565 S
C187 C285 1.654 . S
C299 C201 1.654 1_655 S
C215 C313 1.654 1_545 S
C229 C327 1.654 . S
C257 C243 1.654 1_455 S
C11 C123 1.404 . S
C137 C25 1.404 . S
C151 C39 1.404 . S
C53 C165 1.404 . S
C67 C95 1.404 . S
C81 C109 1.404 . S
C291 C179 1.404 . S
C193 C305 1.404 . S
C319 C207 1.404 . S
C333 C221 1.404 . S
C263 C235 1.404 . S
C249 C277 1.404 . S
C9 C219 1.652 1_554 S
C233 C23 1.652 1_556 S
C247 C37 1.652 1_556 S
C51 C177 1.652 1_554 S
C65 C191 1.652 1_554 S
C205 C79 1.652 1_556 S
C303 C93 1.652 . S
C317 C107 1.652 . S
C331 C121 1.652 . S
C261 C135 1.652 . S
C149 C275 1.652 . S
C163 C289 1.652 . S
C0 C140 1.486 . S
C154 C14 1.486 . S
C84 C28 1.486 . S
C42 C98 1.486 . S
C56 C112 1.486 . S
C70 C126 1.486 . S
C168 C308 1.486 . S
C182 C322 1.486 . S
C196 C252 1.486 . S
C266 C210 1.486 . S
C224 C280 1.486 . S
C238 C294 1.486 . S
