# Generated by pormake.
# Topology qtz-e, (6)-cn, num edge types: 1
# Building blocks:
#     Node 0, Type 0, BuildingBlock: BETDIP_clean_sbu_0, # of connection points: 6
#     Node 1, Type 0, BuildingBlock: BETDIP_clean_sbu_0, # of connection points: 6
#     Node 2, Type 0, BuildingBlock: BETDIP_clean_sbu_0, # of connection points: 6
#     Node 3, Type 0, BuildingBlock: BETDIP_clean_sbu_0, # of connection points: 6
#     Node 4, Type 0, BuildingBlock: BETDIP_clean_sbu_0, # of connection points: 6
#     Node 5, Type 0, BuildingBlock: BETDIP_clean_sbu_0, # of connection points: 6
#     Edge 6, Type (0, 0), BuildingBlock: XUDNAN_clean_linker_2, # of connection points: 2
#     Edge 7, Type (0, 0), BuildingBlock: XUDNAN_clean_linker_2, # of connection points: 2
#     Edge 8, Type (0, 0), BuildingBlock: XUDNAN_clean_linker_2, # of connection points: 2
#     Edge 9, Type (0, 0), BuildingBlock: XUDNAN_clean_linker_2, # of connection points: 2
#     Edge 10, Type (0, 0), BuildingBlock: XUDNAN_clean_linker_2, # of connection points: 2
#     Edge 11, Type (0, 0), BuildingBlock: XUDNAN_clean_linker_2, # of connection points: 2
#     Edge 12, Type (0, 0), BuildingBlock: XUDNAN_clean_linker_2, # of connection points: 2
#     Edge 13, Type (0, 0), BuildingBlock: XUDNAN_clean_linker_2, # of connection points: 2
#     Edge 14, Type (0, 0), BuildingBlock: XUDNAN_clean_linker_2, # of connection points: 2
#     Edge 15, Type (0, 0), BuildingBlock: XUDNAN_clean_linker_2, # of connection points: 2
#     Edge 16, Type (0, 0), BuildingBlock: XUDNAN_clean_linker_2, # of connection points: 2
#     Edge 17, Type (0, 0), BuildingBlock: XUDNAN_clean_linker_2, # of connection points: 2
#     Edge 18, Type (0, 0), BuildingBlock: XUDNAN_clean_linker_2, # of connection points: 2
#     Edge 19, Type (0, 0), BuildingBlock: XUDNAN_clean_linker_2, # of connection points: 2
#     Edge 20, Type (0, 0), BuildingBlock: XUDNAN_clean_linker_2, # of connection points: 2
#     Edge 21, Type (0, 0), BuildingBlock: XUDNAN_clean_linker_2, # of connection points: 2
#     Edge 22, Type (0, 0), BuildingBlock: XUDNAN_clean_linker_2, # of connection points: 2
#     Edge 23, Type (0, 0), BuildingBlock: XUDNAN_clean_linker_2, # of connection points: 2
# Relax obj value: 0.118
# Max RMSD: 0.193
# Mean RMSD: 0.192
data_MOF--net-qtz-e--node1-BETDIP_clean_sbu_0--edge1-XUDNAN_clean_linker_2
_symmetry_space_group_name_H-M    P1
_symmetry_Int_Tables_number       1
_symmetry_cell_setting            triclinic
loop_
_symmetry_equiv_pos_as_xyz
'x, y, z'
_cell_length_a     25.397952
_cell_length_b     25.423585
_cell_length_c     51.436973
_cell_angle_alpha  90.105652
_cell_angle_beta   90.114022
_cell_angle_gamma 120.26152
loop_
_atom_site_label
_atom_site_type_symbol
_atom_site_fract_x
_atom_site_fract_y
_atom_site_fract_z
_atom_type_partial_charge
Tb0 Tb 0.22732 0.48816 0.08295 0.0
Tb1 Tb 0.18373 0.36447 0.05853 0.0
C2 C 0.2364 0.58006 0.10562 0.0
C3 C 0.216 0.58832 0.13124 0.0
C4 C 0.15987 0.54377 0.14134 0.0
C5 C 0.14418 0.5478 0.16688 0.0
C6 C 0.18465 0.59588 0.18317 0.0
C7 C 0.23962 0.64223 0.17249 0.0
C8 C 0.25518 0.63832 0.14678 0.0
C9 C 0.30339 0.44926 0.08823 0.0
C10 C 0.13787 0.36423 0.1144 0.0
C11 C 0.17538 0.27729 0.03145 0.0
C12 C 0.19804 0.27293 1.0053 0.0
C13 C 0.25765 0.31488 0.99733 0.0
C14 C 0.27673 0.31362 0.97189 0.0
C15 C 0.23696 0.26991 0.95376 0.0
C16 C 0.17807 0.22634 0.96206 0.0
C17 C 0.15875 0.2281 0.9875 0.0
C18 C 0.11485 0.41353 0.05213 0.0
C19 C 0.27846 0.48572 0.02891 0.0
O20 O 0.19391 0.54769 0.08854 0.0
O21 O 0.27869 0.56522 0.10636 0.0
O22 O 0.24599 0.41538 0.08952 0.0
O23 O 0.3186 0.50562 0.08525 0.0
O24 O 0.15964 0.42366 0.11117 0.0
O25 O 0.14781 0.33149 0.09708 0.0
O26 O 0.21595 0.30472 0.04985 0.0
O27 O 0.13409 0.29349 0.03172 0.0
O28 O 0.17146 0.43971 0.05142 0.0
O29 O 0.09273 0.35559 0.05494 0.0
O30 O 0.25867 0.4277 0.03368 0.0
O31 O 0.26279 0.51813 0.04379 0.0
H32 H 0.12856 0.50491 0.12971 0.0
H33 H 0.10131 0.51152 0.17402 0.0
H34 H 0.27121 0.68114 0.18404 0.0
H35 H 0.29866 0.67338 0.13927 0.0
H36 H 0.28934 0.34933 1.01064 0.0
H37 H 0.3227 0.34736 0.96634 0.0
H38 H 0.14615 0.1923 0.94861 0.0
H39 H 0.11255 0.19513 0.99311 0.0
Tb40 Tb 0.65547 0.16082 0.39957 0.0
Tb41 Tb 0.77933 0.18117 0.38648 0.0
C42 C 0.55261 0.11937 0.41955 0.0
C43 C 0.54435 0.12733 0.44727 0.0
C44 C 0.48709 0.09888 0.45933 0.0
C45 C 0.48219 0.11103 0.48564 0.0
C46 C 0.53463 0.15157 0.49998 0.0
C47 C 0.59181 0.17712 0.48795 0.0
C48 C 0.59646 0.1659 0.46191 0.0
C49 C 0.74287 0.27218 0.40763 0.0
C50 C 0.73579 0.13806 0.44235 0.0
C51 C 0.88432 0.22359 0.36756 0.0
C52 C 0.907 0.23017 0.34052 0.0
C53 C 0.95819 0.28479 0.33254 0.0
C54 C -0.02024 0.29162 0.30695 0.0
C55 C 0.95078 0.24372 0.28881 0.0
C56 C 0.89913 0.18926 0.29689 0.0
C57 C 0.87726 0.18273 0.32233 0.0
C58 C 0.68594 0.07185 0.37635 0.0
C59 C 0.70265 0.20844 0.34438 0.0
O60 O 0.57735 0.08593 0.41483 0.0
O61 O 0.57913 0.17025 0.40637 0.0
O62 O 0.74626 0.22512 0.41184 0.0
O63 O 0.68801 0.2573 0.40116 0.0
O64 O 0.68116 0.12436 0.43353 0.0
O65 O 0.78499 0.16966 0.42795 0.0
O66 O 0.86097 0.25743 0.37392 0.0
O67 O 0.85185 0.16798 0.37642 0.0
O68 O 0.68938 0.12181 0.37338 0.0
O69 O 0.738 0.08041 0.38434 0.0
O70 O 0.7565 0.2212 0.35367 0.0
O71 O 0.65204 0.1743 0.3578 0.0
H72 H 0.4464 0.06865 0.44835 0.0
H73 H 0.43749 0.09059 0.49446 0.0
H74 H 0.63324 0.20718 0.49855 0.0
H75 H 0.64111 0.1888 0.45303 0.0
H76 H -0.01837 0.32221 0.34614 0.0
H77 H 0.01984 0.33403 0.30154 0.0
H78 H 0.87472 0.15188 0.28338 0.0
H79 H 0.83694 0.14047 0.32772 0.0
Tb80 Tb 0.48757 0.74415 0.75184 0.0
Tb81 Tb 0.60797 0.82811 0.72462 0.0
C82 C 0.39021 0.65755 0.76847 0.0
C83 C 0.37762 0.62748 0.794 0.0
C84 C 0.41983 0.61372 0.80506 0.0
C85 C 0.41249 0.59219 0.83037 0.0
C86 C 0.36271 0.58372 0.84543 0.0
C87 C 0.31903 0.59522 0.83396 0.0
C88 C 0.32661 0.61716 0.80847 0.0
C89 C 0.55161 0.85331 0.77333 0.0
C90 C 0.61153 0.76727 0.77647 0.0
C91 C 0.69208 0.90988 0.69763 0.0
C92 C 0.69469 0.94334 0.67359 0.0
C93 C 0.65111 0.91547 0.65361 0.0
C94 C 0.65915 0.94423 0.62947 0.0
C95 C 0.71102 0.00148 0.62473 0.0
C96 C 0.75237 0.0307 0.6454 0.0
C97 C 0.7444 0.00187 0.66946 0.0
C98 C 0.55136 0.71134 0.71228 0.0
C99 C 0.4844 0.8155 0.70233 0.0
O100 O 0.42842 0.65032 0.75385 0.0
O101 O 0.40176 0.71408 0.76872 0.0
O102 O 0.5472 0.83996 0.74951 0.0
O103 O 0.51773 0.80331 0.78589 0.0
O104 O 0.55372 0.72606 0.77149 0.0
O105 O 0.64155 0.81705 0.76208 0.0
O106 O 0.67108 0.92159 0.71878 0.0
O107 O 0.67143 0.85166 0.69469 0.0
O108 O 0.52887 0.74394 0.7166 0.0
O109 O 0.60999 0.74391 0.71499 0.0
O110 O 0.54458 0.84295 0.70158 0.0
O111 O 0.4514 0.77278 0.7196 0.0
H112 H 0.45979 0.62123 0.79444 0.0
H113 H 0.44738 0.58442 0.83834 0.0
H114 H 0.27931 0.58793 0.84471 0.0
H115 H 0.29348 0.62745 0.8003 0.0
H116 H 0.61211 0.87031 0.65626 0.0
H117 H 0.62634 0.92015 0.61414 0.0
H118 H 0.79207 0.07541 0.64277 0.0
H119 H 0.77838 0.0245 0.68455 0.0
Tb120 Tb 0.80038 0.49767 0.06797 0.0
Tb121 Tb 0.78345 0.60256 0.05414 0.0
C122 C 0.83441 0.43089 0.08855 0.0
C123 C 0.81844 0.40705 0.11504 0.0
C124 C 0.83962 0.3708 0.12607 0.0
C125 C 0.81998 0.34611 0.15093 0.0
C126 C 0.77892 0.35746 0.16485 0.0
C127 C 0.75971 0.39549 0.15389 0.0
C128 C 0.77893 0.41964 0.12922 0.0
C129 C 0.68793 0.47324 0.07194 0.0
C130 C 0.82168 0.59963 0.11102 0.0
C131 C 0.74152 0.6632 0.03316 0.0
C132 C 0.73593 0.67613 1.00544 0.0
C133 C 0.68224 0.67278 0.99619 0.0
C134 C 0.67644 0.68413 0.96991 0.0
C135 C 0.72443 0.69943 0.95227 0.0
C136 C 0.77791 0.70216 0.96168 0.0
C137 C 0.78339 0.6902 0.9878 0.0
C138 C 0.89455 0.62074 0.04931 0.0
C139 C 0.76766 0.50375 1.01087 0.0
O140 O 0.86895 0.49013 0.08707 0.0
O141 O 0.78783 0.41012 0.07269 0.0
O142 O 0.73434 0.52328 0.07807 0.0
O143 O 0.70385 0.43432 0.06547 0.0
O144 O 0.8332 0.55698 0.10279 0.0
O145 O 0.79319 0.61969 0.09589 0.0
O146 O 0.70729 0.60653 0.04048 0.0
O147 O 0.79693 0.68759 0.0426 0.0
O148 O 0.84564 0.57403 0.044 0.0
O149 O 0.88405 0.66398 0.0555 0.0
O150 O 0.75291 0.54401 1.0192 0.0
O151 O 0.79819 0.48621 1.026 0.0
H152 H 0.87023 0.36079 0.11535 0.0
H153 H 0.83556 0.31693 0.15894 0.0
H154 H 0.72935 0.40634 0.16432 0.0
H155 H 0.76187 0.44738 0.12099 0.0
H156 H 0.64477 0.66153 1.00934 0.0
H157 H 0.63482 0.68221 0.96359 0.0
H158 H 0.81557 0.71276 0.94877 0.0
H159 H 0.82492 0.69192 0.99416 0.0
Tb160 Tb 0.22725 0.72884 0.42089 0.0
Tb161 Tb 0.13905 0.76099 0.39538 0.0
C162 C 0.3141 0.73098 0.4452 0.0
C163 C 0.32989 0.74214 0.47299 0.0
C164 C 0.3904 0.78164 0.48061 0.0
C165 C 0.40445 0.79962 0.50656 0.0
C166 C 0.35825 0.77777 0.52544 0.0
C167 C 0.29806 0.73589 0.51794 0.0
C168 C 0.28386 0.71898 0.49191 0.0
C169 C 0.11337 0.65106 0.42991 0.0
C170 C 0.18722 0.81566 0.45061 0.0
C171 C 0.05039 0.755 0.37016 0.0
C172 C 0.02551 0.74014 0.34328 0.0
C173 C 0.97223 0.74133 0.33742 0.0
C174 C 0.94804 0.729 0.31218 0.0
C175 C -0.02345 0.71525 0.29192 0.0
C176 C 0.02931 0.71247 0.29801 0.0
C177 C 0.05365 0.72498 0.32342 0.0
C178 C 0.25588 0.83451 0.38554 0.0
C179 C 0.17281 0.66965 0.36762 0.0
O180 O 0.31843 0.77751 0.43267 0.0
O181 O 0.26382 0.68056 0.43933 0.0
O182 O 0.13548 0.70795 0.4284 0.0
O183 O 0.15587 0.6375 0.42837 0.0
O184 O 0.22684 0.79635 0.448 0.0
O185 O 0.14272 0.80091 0.43343 0.0
O186 O 0.04711 0.71024 0.38386 0.0
O187 O 0.10278 0.80509 0.37334 0.0
O188 O 0.22867 0.77801 0.38778 0.0
O189 O 0.21626 0.85219 0.38569 0.0
O190 O 0.13176 0.68583 0.37208 0.0
O191 O 0.22293 0.69124 0.38202 0.0
H192 H 0.42675 0.79987 0.4665 0.0
H193 H 0.45152 0.8308 0.51183 0.0
H194 H 0.26146 0.71784 0.532 0.0
H195 H 0.23659 0.68906 0.48653 0.0
H196 H 0.94934 0.75226 0.35242 0.0
H197 H 0.90671 0.73033 0.30855 0.0
H198 H 0.05274 0.70228 0.28301 0.0
H199 H 0.09476 0.72353 0.32746 0.0
Tb200 Tb 0.47353 0.27787 0.73537 0.0
Tb201 Tb 0.3542 0.16792 0.72297 0.0
C202 C 0.55649 0.37742 0.75297 0.0
C203 C 0.58093 0.38978 0.77948 0.0
C204 C 0.5602 0.34114 0.79697 0.0
C205 C 0.58481 0.35048 0.82188 0.0
C206 C 0.63056 0.40872 0.82981 0.0
C207 C 0.64999 0.45792 0.81252 0.0
C208 C 0.62539 0.4484 0.78738 0.0
C209 C 0.46873 0.17539 0.74649 0.0
C210 C 0.36232 0.22855 0.77604 0.0
C211 C 0.27635 0.06622 0.7045 0.0
C212 C 0.26295 0.04375 0.67722 0.0
C213 C 0.25322 -0.01425 0.67082 0.0
C214 C 0.24176 0.96482 0.64497 0.0
C215 C 0.23922 0.00131 0.625 0.0
C216 C 0.24979 0.05967 0.63146 0.0
C217 C 0.2619 0.08078 0.65717 0.0
C218 C 0.36528 0.27362 0.70989 0.0
C219 C 0.46363 0.22268 0.68123 0.0
O220 O 0.49977 0.36417 0.75084 0.0
O221 O 0.56692 0.33945 0.73994 0.0
O222 O 0.42578 0.18589 0.75017 0.0
O223 O 0.5165 0.22388 0.73856 0.0
O224 O 0.41318 0.2743 0.76653 0.0
O225 O 0.3335 0.17522 0.76385 0.0
O226 O 0.32898 0.07737 0.71385 0.0
O227 O 0.26416 0.10887 0.71082 0.0
O228 O 0.40412 0.25778 0.70837 0.0
O229 O 0.31436 0.22745 0.71748 0.0
O230 O 0.41464 0.174 0.69053 0.0
O231 O 0.48847 0.27489 0.69409 0.0
H232 H 0.52549 0.29559 0.79119 0.0
H233 H 0.56813 0.312 0.83494 0.0
H234 H 0.68522 0.50327 0.81821 0.0
H235 H 0.6416 0.48637 0.77406 0.0
H236 H 0.25449 0.95658 0.68583 0.0
H237 H 0.2338 0.91966 0.64069 0.0
H238 H 0.24951 0.0895 0.61651 0.0
H239 H 0.27059 0.12627 0.66133 0.0
H240 H 0.26056 0.67864 0.33365 0.0
H241 H 0.06533 0.58677 0.34633 0.0
H242 H 0.04712 0.55157 0.30091 0.0
H243 H 0.26064 0.73504 0.27413 0.0
H244 H 0.3186 0.72408 0.25924 0.0
H245 H 0.31816 0.73284 0.29393 0.0
H246 H 0.31403 0.62995 0.30097 0.0
H247 H 0.31626 0.62158 0.26625 0.0
H248 H 0.25553 0.56235 0.28502 0.0
H249 H 0.04944 0.54462 0.25303 0.0
H250 H 0.07215 0.55149 0.20639 0.0
H251 H 0.26584 0.64004 0.22437 0.0
C252 C 0.2142 0.64858 0.32715 0.0
C253 C 0.16437 0.63505 0.34346 0.0
C254 C 0.10413 0.59736 0.33411 0.0
C255 C 0.09326 0.57724 0.30832 0.0
C256 C 0.14315 0.59432 0.29222 0.0
C257 C 0.20248 0.62766 0.30134 0.0
C258 C 0.24758 0.64355 0.27932 0.0
C259 C 0.28863 0.71299 0.2765 0.0
C260 C 0.28559 0.61249 0.28312 0.0
C261 C 0.20426 0.61635 0.25644 0.0
C262 C 0.14429 0.58815 0.26435 0.0
C263 C 0.0962 0.56465 0.24661 0.0
C264 C 0.10969 0.56874 0.22006 0.0
C265 C 0.17088 0.59545 0.21138 0.0
C266 C 0.21856 0.61958 0.23004 0.0
H267 H 0.42384 0.12396 0.64808 0.0
H268 H 0.5524 0.3183 0.65434 0.0
H269 H 0.58447 0.31921 0.60925 0.0
H270 H 0.52139 0.08878 0.60661 0.0
H271 H 0.4578 0.03269 0.58776 0.0
H272 H 0.44711 0.04584 0.62126 0.0
H273 H 0.36182 0.0662 0.60726 0.0
H274 H 0.3727 0.05508 0.57353 0.0
H275 H 0.37699 0.1249 0.5839 0.0
H276 H 0.59725 0.30244 0.56335 0.0
H277 H 0.59663 0.26711 0.51888 0.0
H278 H 0.4637 0.08212 0.54134 0.0
C279 C 0.45933 0.1665 0.64006 0.0
C280 C 0.48555 0.22114 0.65478 0.0
C281 C 0.53162 0.27588 0.64353 0.0
C282 C 0.55021 0.27693 0.6179 0.0
C283 C 0.52284 0.22276 0.60381 0.0
C284 C 0.47907 0.16831 0.61445 0.0
C285 C 0.45647 0.1171 0.59455 0.0
C286 C 0.47163 0.06823 0.60306 0.0
C287 C 0.38788 0.0892 0.58949 0.0
C288 C 0.49355 0.15179 0.57102 0.0
C289 C 0.53146 0.21264 0.57697 0.0
C290 C 0.56867 0.25472 0.55851 0.0
C291 C 0.56809 0.23405 0.53331 0.0
C292 C 0.53099 0.17162 0.5267 0.0
C293 C 0.49264 0.13003 0.54581 0.0
H294 H 0.2729 0.5667 0.99535 0.0
H295 H 0.35718 0.4567 1.00708 0.0
H296 H 0.3913 0.47308 0.96153 0.0
H297 H 0.2155 0.51459 0.93464 0.0
H298 H 0.23071 0.58604 0.92087 0.0
H299 H 0.22024 0.5741 0.95538 0.0
H300 H 0.32551 0.66996 0.96413 0.0
H301 H 0.33568 0.68326 0.92961 0.0
H302 H 0.39233 0.6773 0.94847 0.0
H303 H 0.39979 0.48542 0.91379 0.0
H304 H 0.39817 0.50772 0.86749 0.0
H305 H 0.31713 0.61821 0.88668 0.0
C306 C 0.30082 0.54841 0.98858 0.0
C307 C 0.31215 0.51011 1.00454 0.0
C308 C 0.34746 0.48553 0.99494 0.0
C309 C 0.36716 0.4947 0.96915 0.0
C310 C 0.35224 0.52967 0.95339 0.0
C311 C 0.32144 0.55766 0.96281 0.0
C312 C 0.30861 0.59022 0.94124 0.0
C313 C 0.23968 0.56469 0.93785 0.0
C314 C 0.34258 0.6593 0.94615 0.0
C315 C 0.33501 0.57417 0.91821 0.0
C316 C 0.35978 0.53911 0.9257 0.0
C317 C 0.38247 0.51462 0.90774 0.0
C318 C 0.38143 0.52776 0.88141 0.0
C319 C 0.35868 0.56588 0.87323 0.0
C320 C 0.33477 0.58886 0.89205 0.0
H321 H 0.79665 0.25964 0.30989 0.0
H322 H 0.60388 0.19839 0.31766 0.0
H323 H 0.60197 0.22835 0.27199 0.0
H324 H 0.83825 0.38972 0.2707 0.0
H325 H 0.89101 0.37922 0.25107 0.0
H326 H 0.87676 0.35257 0.28411 0.0
H327 H 0.84564 0.24373 0.26849 0.0
H328 H 0.86165 0.27096 0.23554 0.0
H329 H 0.78797 0.20732 0.24381 0.0
H330 H 0.62179 0.26482 0.22554 0.0
H331 H 0.66148 0.3066 0.18207 0.0
H332 H 0.84163 0.34453 0.20554 0.0
C333 C 0.75388 0.25268 0.30217 0.0
C334 C 0.70031 0.22694 0.3174 0.0
C335 C 0.64539 0.21813 0.30634 0.0
C336 C 0.64392 0.23493 0.28046 0.0
C337 C 0.69765 0.26003 0.26602 0.0
C338 C 0.75156 0.26877 0.27649 0.0
C339 C 0.80292 0.29606 0.25691 0.0
C340 C 0.85529 0.35809 0.26626 0.0
C341 C 0.82589 0.25186 0.25079 0.0
C342 C 0.76988 0.30268 0.23386 0.0
C343 C 0.7091 0.28114 0.23941 0.0
C344 C 0.66931 0.28204 0.22104 0.0
C345 C 0.6924 0.30611 0.19646 0.0
C346 C 0.75478 0.32925 0.1905 0.0
C347 C 0.79372 0.32685 0.20944 0.0
H348 H 0.38266 0.73376 0.67597 0.0
H349 H 0.5245 0.92357 0.67802 0.0
H350 H 0.49395 0.93862 0.63446 0.0
H351 H 0.41067 0.70767 0.61607 0.0
H352 H 0.33357 0.65612 0.60559 0.0
H353 H 0.35238 0.6633 0.63956 0.0
H354 H 0.26948 0.69119 0.6497 0.0
H355 H 0.24932 0.6828 0.61568 0.0
H356 H 0.26944 0.75283 0.63243 0.0
H357 H 0.4648 0.92818 0.5881 0.0
H358 H 0.43552 0.89395 0.54279 0.0
H359 H 0.31491 0.70968 0.56975 0.0
C360 C 0.40467 0.77916 0.66781 0.0
C361 C 0.45482 0.82788 0.68049 0.0
C362 C 0.48505 0.88608 0.66877 0.0
C363 C 0.46805 0.895 0.64401 0.0
C364 C 0.42071 0.84519 0.63125 0.0
C365 C 0.38878 0.78848 0.64286 0.0
C366 C 0.34693 0.74046 0.62349 0.0
C367 C 0.36184 0.68892 0.62104 0.0
C368 C 0.2798 0.71535 0.63076 0.0
C369 C 0.36315 0.77821 0.59897 0.0
C370 C 0.40471 0.83876 0.60396 0.0
C371 C 0.43113 0.88119 0.58403 0.0
C372 C 0.41482 0.86114 0.55833 0.0
C373 C 0.37278 0.79914 0.55275 0.0
C374 C 0.34606 0.75757 0.57344 0.0
H375 H 0.73265 0.55224 0.9716 0.0
H376 H 0.77184 0.4081 0.9886 0.0
H377 H 0.74535 0.3711 0.94332 0.0
H378 H 0.6053 0.46876 0.93139 0.0
H379 H 0.62395 0.52942 0.90859 0.0
H380 H 0.64955 0.54714 0.94176 0.0
H381 H 0.76192 0.61225 0.92639 0.0
H382 H 0.73515 0.59625 0.89331 0.0
H383 H 0.79266 0.57964 0.90438 0.0
H384 H 0.71012 0.34699 0.8972 0.0
H385 H 0.6694 0.33768 0.85277 0.0
H386 H 0.65377 0.49801 0.86573 0.0
C387 C 0.73596 0.51303 0.9658 0.0
C388 C 0.75406 0.48276 0.98363 0.0
C389 C 0.75818 0.43195 0.97523 0.0
C390 C 0.74327 0.41067 0.94958 0.0
C391 C 0.72512 0.44124 0.93258 0.0
C392 C 0.72193 0.49166 0.94024 0.0
C393 C 0.70032 0.51574 0.91821 0.0
C394 C 0.64125 0.51516 0.92543 0.0
C395 C 0.75051 0.57976 0.91007 0.0
C396 C 0.68957 0.46949 0.89727 0.0
C397 C 0.7049 0.42742 0.90588 0.0
C398 C 0.6982 0.37977 0.89019 0.0
C399 C 0.67481 0.37473 0.86507 0.0
C400 C 0.65832 0.41702 0.85591 0.0
C401 C 0.66653 0.46539 0.87216 0.0
H402 H 0.4173 0.52615 0.10389 0.0
H403 H 0.29363 0.33597 0.08578 0.0
H404 H 0.38098 0.31797 0.08562 0.0
H405 H 0.52591 0.54944 0.0626 0.0
H406 H 0.59047 0.59988 0.08248 0.0
H407 H 0.51822 0.5948 0.08766 0.0
H408 H 0.51863 0.56632 0.136 0.0
H409 H 0.59204 0.57291 0.13125 0.0
H410 H 0.52964 0.50356 0.14411 0.0
H411 H 0.48265 0.32734 0.07803 0.0
H412 H 0.58941 0.35969 0.0676 0.0
H413 H 0.64532 0.54433 0.09146 0.0
C414 C 0.40815 0.48016 0.1007 0.0
C415 C 0.34933 0.43252 0.09421 0.0
C416 C 0.33877 0.37305 0.09032 0.0
C417 C 0.388 0.36253 0.09041 0.0
C418 C 0.4464 0.41181 0.09519 0.0
C419 C 0.45631 0.46919 0.10091 0.0
C420 C 0.52333 0.51627 0.10227 0.0
C421 C 0.54041 0.56807 0.08258 0.0
C422 C 0.542 0.54121 0.13007 0.0
C423 C 0.54997 0.47734 0.09474 0.0
C424 C 0.50505 0.41703 0.09118 0.0
C425 C 0.51826 0.37392 0.0815 0.0
C426 C 0.57887 0.3929 0.07542 0.0
C427 C 0.62516 0.45445 0.07894 0.0
C428 C 0.61066 0.49693 0.08896 0.0
H429 H 0.07302 0.534 0.44021 0.0
H430 H 0.0111 0.6632 0.42916 0.0
H431 H 0.9041 0.57749 0.42755 0.0
H432 H -0.01787 0.43098 0.39659 0.0
H433 H 0.96755 0.3641 0.41449 0.0
H434 H 0.03664 0.43498 0.4202 0.0
H435 H 0.01154 0.42983 0.46931 0.0
H436 H 0.94266 0.35795 0.46393 0.0
H437 H 0.93906 0.41985 0.47928 0.0
H438 H 0.80855 0.47756 0.41883 0.0
H439 H 0.73044 0.37227 0.4072 0.0
H440 H 0.85739 0.31062 0.4253 0.0
C441 C 0.03692 0.5446 0.43818 0.0
C442 C 0.04973 0.60463 0.43412 0.0
C443 C 0.00169 0.61702 0.43168 0.0
C444 C 0.94107 0.56879 0.43101 0.0
C445 C 0.93025 0.50943 0.43358 0.0
C446 C -0.02304 0.49748 0.4377 0.0
C447 C 0.95502 0.4302 0.43721 0.0
C448 C -0.01277 0.4142 0.41585 0.0
C449 C 0.96249 0.40816 0.46403 0.0
C450 C 0.88895 0.40588 0.43074 0.0
C451 C 0.87518 0.45202 0.42908 0.0
C452 C 0.81835 0.44097 0.42076 0.0
C453 C 0.77459 0.38124 0.41402 0.0
C454 C 0.78835 0.33383 0.41557 0.0
C455 C 0.8458 0.34616 0.42431 0.0
H456 H 0.54226 0.13817 0.72789 0.0
H457 H 0.40686 0.09883 0.78739 0.0
H458 H 0.42896 0.02203 0.8065 0.0
H459 H 0.50685 -0.01383 0.71775 0.0
H460 H 0.58507 0.00794 0.71151 0.0
H461 H 0.55891 0.06021 0.70457 0.0
H462 H 0.64613 0.14045 0.73394 0.0
H463 H 0.67031 0.08674 0.74172 0.0
H464 H 0.65101 0.12234 0.76741 0.0
H465 H 0.46555 0.94857 0.81791 0.0
H466 H 0.49584 0.87053 0.8154 0.0
H467 H 0.60705 0.96061 0.748 0.0
C468 C 0.5172 0.11328 0.74497 0.0
C469 C 0.47318 0.12399 0.75637 0.0
C470 C 0.44053 0.09049 0.77841 0.0
C471 C 0.45351 0.04775 0.78954 0.0
C472 C 0.49902 0.03974 0.77822 0.0
C473 C 0.52935 0.07084 0.75608 0.0
C474 C 0.57236 0.05089 0.74613 0.0
C475 C 0.55468 0.02471 0.71837 0.0
C476 C 0.6389 0.10325 0.74739 0.0
C477 C 0.5606 0.00223 0.76574 0.0
C478 C 0.51937 -0.00261 0.78451 0.0
C479 C 0.49813 0.95227 0.80345 0.0
C480 C 0.51606 0.90845 0.802 0.0
C481 C 0.5536 0.90971 0.78136 0.0
C482 C 0.57902 0.95922 0.76412 0.0
H483 H 0.5891 0.62841 0.70446 0.0
H484 H 0.43011 0.64964 0.70265 0.0
H485 H 0.36334 0.5388 0.69812 0.0
H486 H 0.52103 0.49912 0.65461 0.0
H487 H 0.55828 0.46252 0.66966 0.0
H488 H 0.59419 0.5444 0.67015 0.0
H489 H 0.60111 0.54577 0.72103 0.0
H490 H 0.56989 0.46522 0.71894 0.0
H491 H 0.53341 0.49564 0.7392 0.0
H492 H 0.31375 0.42548 0.70291 0.0
H493 H 0.28605 0.31757 0.70875 0.0
H494 H 0.47656 0.37093 0.70069 0.0
C495 C 0.54037 0.60959 0.70258 0.0
C496 C 0.51439 0.64677 0.70511 0.0
C497 C 0.45065 0.62127 0.70182 0.0
C498 C 0.4123 0.55847 0.69899 0.0
C499 C 0.43881 0.52229 0.69805 0.0
C500 C 0.50147 0.54703 0.69868 0.0
C501 C 0.51805 0.49786 0.69727 0.0
C502 C 0.54975 0.50119 0.67138 0.0
C503 C 0.55781 0.50135 0.72056 0.0
C504 C 0.45508 0.44187 0.69826 0.0
C505 C 0.40983 0.45674 0.69841 0.0
C506 C 0.34852 0.41286 0.70198 0.0
C507 C 0.33318 0.35196 0.70544 0.0
C508 C 0.37907 0.33618 0.70509 0.0
C509 C 0.44037 0.38159 0.7009 0.0
H510 H 0.07987 0.46985 0.08679 0.0
H511 H 0.07935 0.43091 1.00486 0.0
H512 H 0.04215 0.50192 0.99455 0.0
H513 H 0.96033 0.47718 0.09224 0.0
H514 H -0.01882 0.54505 0.11132 0.0
H515 H 0.02293 0.50575 0.11451 0.0
H516 H 0.12382 0.59441 0.103 0.0
H517 H 0.09105 0.64249 0.10155 0.0
H518 H 0.13389 0.63882 0.07436 0.0
H519 H 0.0013 0.57239 0.99359 0.0
H520 H 0.93959 0.62031 1.00243 0.0
H521 H 0.97154 0.61816 0.08496 0.0
C522 C 0.07242 0.47707 0.06672 0.0
C523 C 0.08149 0.44503 0.04657 0.0
C524 C 0.07104 0.45441 1.02049 0.0
C525 C 0.05157 0.49568 1.01448 0.0
C526 C 0.04543 0.52871 0.03475 0.0
C527 C 0.05608 0.52035 0.06036 0.0
C528 C 0.04241 0.55874 0.07862 0.0
C529 C -0.0011 0.51952 0.10041 0.0
C530 C 0.10133 0.61175 0.09002 0.0
C531 C 0.01455 0.58334 0.05962 0.0
C532 C 0.02074 0.56892 0.03426 0.0
C533 C -0.00271 0.5851 1.01326 0.0
C534 C 0.96327 0.61329 1.0184 0.0
C535 C 0.9526 0.62422 0.04427 0.0
C536 C -0.01883 0.61214 0.06502 0.0
H537 H 0.35367 0.87583 0.41699 0.0
H538 H 0.30181 0.87519 0.33698 0.0
H539 H 0.4105 0.9213 0.32388 0.0
H540 H 0.47725 -0.01011 0.42418 0.0
H541 H 0.52809 0.96835 0.43924 0.0
H542 H 0.44723 0.92266 0.44366 0.0
H543 H 0.43295 0.82407 0.42365 0.0
H544 H 0.51497 0.86211 0.42466 0.0
H545 H 0.47416 0.82726 0.39497 0.0
H546 H 0.52498 0.97348 0.32102 0.0
H547 H 0.63548 0.03786 0.32906 0.0
H548 H 0.60907 -0.01359 0.41015 0.0
C549 C 0.36474 0.88176 0.39659 0.0
C550 C 0.31989 0.87045 0.37792 0.0
C551 C 0.33626 0.88432 0.35155 0.0
C552 C 0.39735 0.90897 0.34393 0.0
C553 C 0.44012 0.91591 0.36279 0.0
C554 C 0.42406 0.90113 0.38849 0.0
C555 C 0.47829 0.91329 0.4051 0.0
C556 C 0.48334 0.95101 0.42942 0.0
C557 C 0.47497 0.85319 0.41256 0.0
C558 C 0.52896 0.94671 0.38569 0.0
C559 C 0.50576 0.94433 0.36102 0.0
C560 C 0.5436 0.97411 0.34004 0.0
C561 C 0.60633 0.00976 0.34468 0.0
C562 C 0.63033 0.01515 0.37002 0.0
C563 C 0.5917 0.98085 0.39048 0.0
H564 H 0.29218 0.14913 0.81624 0.0
H565 H 0.38187 0.33816 0.79177 0.0
H566 H 0.35653 0.36701 0.83334 0.0
H567 H 0.16833 0.15243 0.8533 0.0
H568 H 0.16855 0.10422 0.8789 0.0
H569 H 0.18983 0.09626 0.84634 0.0
H570 H 0.29264 0.11228 0.86369 0.0
H571 H 0.27184 0.12062 0.89625 0.0
H572 H 0.34182 0.17976 0.88232 0.0
H573 H 0.32888 0.37866 0.87801 0.0
H574 H 0.29546 0.37102 0.92343 0.0
H575 H 0.22139 0.17539 0.92109 0.0
C576 C 0.30532 0.19627 0.8195 0.0
C577 C 0.33922 0.24128 0.80055 0.0
C578 C 0.35634 0.3027 0.80586 0.0
C579 C 0.34203 0.31975 0.82949 0.0
C580 C 0.31016 0.27502 0.84796 0.0
C581 C 0.29141 0.21444 0.84335 0.0
C582 C 0.25938 0.17649 0.86729 0.0
C583 C 0.19255 0.12956 0.86108 0.0
C584 C 0.29347 0.14546 0.87801 0.0
C585 C 0.26396 0.22542 0.88592 0.0
C586 C 0.2935 0.28185 0.87419 0.0
C587 C 0.30536 0.33466 0.8874 0.0
C588 C 0.28656 0.3299 0.91332 0.0
C589 C 0.25598 0.27274 0.92601 0.0
C590 C 0.24419 0.2197 0.91192 0.0
H591 H -0.00271 0.34429 0.25647 0.0
H592 H 0.95811 0.15729 0.25954 0.0
H593 H -0.00322 0.16651 0.21488 0.0
H594 H 0.95682 0.34189 0.18957 0.0
H595 H 0.0169 0.41746 0.18197 0.0
H596 H -0.01312 0.39972 0.2145 0.0
H597 H 0.09179 0.4352 0.23404 0.0
H598 H 0.12777 0.45494 0.20267 0.0
H599 H 0.13654 0.40261 0.22302 0.0
H600 H 0.04248 0.19661 0.17024 0.0
H601 H 0.09365 0.24579 0.12929 0.0
H602 H 0.10615 0.41439 0.15515 0.0
C603 C -0.00288 0.30533 0.24784 0.0
C604 C 0.9743 0.24991 0.26167 0.0
C605 C 0.97429 0.19992 0.24935 0.0
C606 C -0.00352 0.20478 0.22396 0.0
C607 C 0.01866 0.25995 0.21096 0.0
C608 C 0.01918 0.30935 0.22246 0.0
C609 C 0.04676 0.36386 0.2044 0.0
C610 C -0.00089 0.38187 0.19721 0.0
C611 C 0.10403 0.41732 0.21676 0.0
C612 C 0.06277 0.33775 0.1811 0.0
C613 C 0.04559 0.27753 0.18525 0.0
C614 C 0.05603 0.24373 0.16675 0.0
C615 C 0.08523 0.27221 0.14347 0.0
C616 C 0.10423 0.33422 0.13877 0.0
C617 C 0.09229 0.36705 0.15794 0.0
H618 H 0.6319 0.00159 0.5869 0.0
H619 H 0.82241 0.06026 0.6012 0.0
H620 H 0.84797 0.10192 0.55703 0.0
H621 H 0.62845 0.95484 0.52057 0.0
H622 H 0.57898 0.98149 0.509 0.0
H623 H 0.57454 0.95803 0.54233 0.0
H624 H 0.59307 0.06289 0.55813 0.0
H625 H 0.59634 0.08569 0.52478 0.0
H626 H 0.65872 0.13146 0.54655 0.0
H627 H 0.85416 0.135 0.51134 0.0
H628 H 0.84069 0.15948 0.46647 0.0
H629 H 0.64628 0.07936 0.47993 0.0
C630 C 0.679 0.0233 0.58076 0.0
C631 C 0.72522 0.02821 0.59793 0.0
C632 C 0.78624 0.05709 0.58892 0.0
C633 C 0.80128 0.08056 0.56368 0.0
C634 C 0.75495 0.07499 0.54736 0.0
C635 C 0.69501 0.04731 0.55544 0.0
C636 C 0.65422 0.04697 0.53358 0.0
C637 C 0.60623 0.98143 0.52592 0.0
C638 C 0.62384 0.08399 0.54123 0.0
C639 C 0.70079 0.0783 0.51202 0.0
C640 C 0.75852 0.09403 0.52055 0.0
C641 C 0.80921 0.12305 0.50441 0.0
C642 C 0.80101 0.13671 0.47886 0.0
C643 C 0.7425 0.12143 0.46946 0.0
C644 C 0.69168 0.09165 0.4864 0.0
H645 H 0.55839 0.68557 0.8169 0.0
H646 H 0.73222 0.83391 0.79033 0.0
H647 H 0.78028 0.82899 0.8313 0.0
H648 H 0.57485 0.73322 0.88312 0.0
H649 H 0.53703 0.6567 0.89572 0.0
H650 H 0.51889 0.67129 0.86368 0.0
H651 H 0.54582 0.5909 0.8452 0.0
H652 H 0.5641 0.5789 0.87772 0.0
H653 H 0.61977 0.60074 0.85221 0.0
H654 H 0.80828 0.8132 0.87635 0.0
H655 H 0.8148 0.78677 0.92178 0.0
H656 H 0.62341 0.64679 0.91942 0.0
C657 C 0.6068 0.71623 0.81941 0.0
C658 C 0.6415 0.75991 0.8001 0.0
C659 C 0.70455 0.7999 0.80461 0.0
C660 C 0.73234 0.79744 0.82788 0.0
C661 C 0.69666 0.75469 0.84662 0.0
C662 C 0.63529 0.71452 0.84263 0.0
C663 C 0.60681 0.67481 0.86646 0.0
C664 C 0.55641 0.68455 0.87791 0.0
C665 C 0.58269 0.60735 0.86001 0.0
C666 C 0.66154 0.69962 0.88458 0.0
C667 C 0.71291 0.74544 0.87267 0.0
C668 C 0.7685 0.77681 0.88573 0.0
C669 C 0.77178 0.76111 0.9116 0.0
C670 C 0.71984 0.71426 0.92441 0.0
C671 C 0.66402 0.68308 0.91046 0.0
H672 H 0.96707 0.63189 0.25401 0.0
H673 H 0.93135 0.77975 0.26747 0.0
H674 H 0.88742 0.76511 0.22358 0.0
H675 H 0.00985 0.66696 0.186 0.0
H676 H 0.97407 0.58834 0.17601 0.0
H677 H 0.00281 0.60981 0.20869 0.0
H678 H 0.89649 0.53212 0.22675 0.0
H679 H 0.86734 0.51074 0.19412 0.0
H680 H 0.83074 0.53642 0.21666 0.0
H681 H 0.84574 0.73452 0.17842 0.0
H682 H 0.81204 0.69157 0.13441 0.0
H683 H 0.87553 0.56436 0.14882 0.0
C684 C 0.95041 0.66147 0.24767 0.0
C685 C 0.95219 0.7066 0.26461 0.0
C686 C 0.92949 0.74399 0.25534 0.0
C687 C 0.90468 0.7363 0.23028 0.0
C688 C 0.90279 0.69108 0.21431 0.0
C689 C 0.92522 0.65434 0.22252 0.0
C690 C 0.91751 0.6092 0.20123 0.0
C691 C -0.02023 0.6192 0.19247 0.0
C692 C 0.87552 0.54323 0.21023 0.0
C693 C 0.8874 0.62658 0.1799 0.0
C694 C 0.87924 0.67382 0.18796 0.0
C695 C 0.85203 0.69758 0.17187 0.0
C696 C 0.83288 0.67276 0.14684 0.0
C697 C 0.841 0.62457 0.13792 0.0
C698 C 0.86862 0.60126 0.15488 0.0
H699 H 0.28506 0.94059 0.59674 0.0
H700 H 0.16162 0.0113 0.59104 0.0
H701 H 0.13787 0.975 0.54562 0.0
H702 H 0.34339 0.97972 0.53047 0.0
H703 H 0.34845 0.9121 0.52606 0.0
H704 H 0.3572 0.94468 0.55806 0.0
H705 H 0.27147 0.84199 0.57509 0.0
H706 H 0.26007 0.80834 0.54331 0.0
H707 H 0.19711 0.80665 0.55998 0.0
H708 H 0.12421 0.92731 0.50124 0.0
H709 H 0.12305 0.87356 0.46103 0.0
H710 H 0.2572 0.83556 0.49484 0.0
C711 C 0.25287 0.94825 0.58596 0.0
C712 C 0.22518 0.97887 0.59755 0.0
C713 C 0.18391 -0.01142 0.58258 0.0
C714 C 0.17003 0.968 0.55675 0.0
C715 C 0.19827 0.93829 0.54589 0.0
C716 C 0.23926 0.92893 0.55994 0.0
C717 C 0.26303 0.8955 0.54367 0.0
C718 C 0.33212 0.93539 0.53932 0.0
C719 C 0.24693 0.8345 0.5563 0.0
C720 C 0.22788 0.88617 0.51848 0.0
C721 C 0.191 0.91151 0.52017 0.0
C722 C 0.1532 0.90762 0.49964 0.0
C723 C 0.1528 0.87685 0.47684 0.0
C724 C 0.19005 0.8503 0.47456 0.0
C725 C 0.2284 0.85561 0.49574 0.0
loop_
_geom_bond_atom_site_label_1
_geom_bond_atom_site_label_2
_geom_bond_distance
_geom_bond_site_symmetry_2
_ccdc_geom_bond_type
Tb0 C2 2.809 . S
Tb0 O20 2.484 . S
Tb0 O21 2.440 . S
Tb0 O22 2.658 . S
Tb0 O23 2.409 . S
Tb0 O24 2.378 . S
Tb0 O28 2.325 . S
Tb0 O31 2.341 . S
Tb1 C11 2.809 1_554 S
Tb1 O22 2.325 . S
Tb1 O25 2.341 . S
Tb1 O26 2.484 1_554 S
Tb1 O27 2.440 1_554 S
Tb1 O28 2.658 . S
Tb1 O29 2.409 . S
Tb1 O30 2.378 1_554 S
C2 Tb0 2.809 . S
C2 C3 1.514 . S
C2 O20 1.248 . S
C2 O21 1.266 . S
C3 C2 1.514 . S
C3 C4 1.359 . S
C3 C8 1.348 . S
C4 C3 1.359 . S
C4 C5 1.380 . S
C4 H32 0.929 . S
C5 C4 1.380 . S
C5 C6 1.347 . S
C5 H33 0.931 . S
C6 C5 1.347 . S
C6 C7 1.369 . S
C7 C6 1.369 . S
C7 C8 1.408 . S
C7 H34 0.930 . S
C8 C3 1.348 . S
C8 C7 1.408 . S
C8 H35 0.930 . S
C9 O22 1.281 . S
C9 O23 1.254 . S
C10 O24 1.236 . S
C10 O25 1.266 . S
C11 Tb1 2.809 1_556 S
C11 C12 1.514 . S
C11 O26 1.248 . S
C11 O27 1.266 . S
C12 C11 1.514 . S
C12 C13 1.359 . S
C12 C17 1.348 . S
C13 C12 1.359 . S
C13 C14 1.380 . S
C13 H36 0.929 . S
C14 C13 1.380 . S
C14 C15 1.347 . S
C14 H37 0.931 . S
C15 C14 1.347 . S
C15 C16 1.369 . S
C16 C15 1.369 . S
C16 C17 1.408 . S
C16 H38 0.930 . S
C17 C12 1.348 . S
C17 C16 1.408 . S
C17 H39 0.930 . S
C18 O28 1.281 . S
C18 O29 1.254 . S
C19 O30 1.236 . S
C19 O31 1.266 1_556 S
O20 Tb0 2.484 . S
O20 C2 1.248 . S
O21 Tb0 2.440 . S
O21 C2 1.266 . S
O22 Tb0 2.658 . S
O22 Tb1 2.325 . S
O22 C9 1.281 . S
O23 Tb0 2.409 . S
O23 C9 1.254 . S
O24 Tb0 2.378 . S
O24 C10 1.236 . S
O25 Tb1 2.341 . S
O25 C10 1.266 . S
O26 Tb1 2.484 1_556 S
O26 C11 1.248 . S
O27 Tb1 2.440 1_556 S
O27 C11 1.266 . S
O28 Tb0 2.325 . S
O28 Tb1 2.658 . S
O28 C18 1.281 . S
O29 Tb1 2.409 . S
O29 C18 1.254 . S
O30 Tb1 2.378 1_556 S
O30 C19 1.236 . S
O31 Tb0 2.341 . S
O31 C19 1.266 1_554 S
H32 C4 0.929 . S
H33 C5 0.931 . S
H34 C7 0.930 . S
H35 C8 0.930 . S
H36 C13 0.929 . S
H37 C14 0.931 . S
H38 C16 0.930 . S
H39 C17 0.930 . S
Tb40 C42 2.809 . S
Tb40 O60 2.484 . S
Tb40 O61 2.440 . S
Tb40 O62 2.658 . S
Tb40 O63 2.409 . S
Tb40 O64 2.378 . S
Tb40 O68 2.325 . S
Tb40 O71 2.341 . S
Tb41 C51 2.809 . S
Tb41 O62 2.325 . S
Tb41 O65 2.341 . S
Tb41 O66 2.484 . S
Tb41 O67 2.440 . S
Tb41 O68 2.658 . S
Tb41 O69 2.409 . S
Tb41 O70 2.378 . S
C42 Tb40 2.809 . S
C42 C43 1.514 . S
C42 O60 1.248 . S
C42 O61 1.266 . S
C43 C42 1.514 . S
C43 C44 1.359 . S
C43 C48 1.348 . S
C44 C43 1.359 . S
C44 C45 1.380 . S
C44 H72 0.929 . S
C45 C44 1.380 . S
C45 C46 1.347 . S
C45 H73 0.931 . S
C46 C45 1.347 . S
C46 C47 1.369 . S
C47 C46 1.369 . S
C47 C48 1.408 . S
C47 H74 0.930 . S
C48 C43 1.348 . S
C48 C47 1.408 . S
C48 H75 0.930 . S
C49 O62 1.281 . S
C49 O63 1.254 . S
C50 O64 1.236 . S
C50 O65 1.266 . S
C51 Tb41 2.809 . S
C51 C52 1.514 . S
C51 O66 1.248 . S
C51 O67 1.266 . S
C52 C51 1.514 . S
C52 C53 1.359 . S
C52 C57 1.348 . S
C53 C52 1.359 . S
C53 C54 1.380 . S
C53 H76 0.929 . S
C54 C53 1.380 . S
C54 C55 1.347 . S
C54 H77 0.931 1_655 S
C55 C54 1.347 . S
C55 C56 1.369 . S
C56 C55 1.369 . S
C56 C57 1.408 . S
C56 H78 0.930 . S
C57 C52 1.348 . S
C57 C56 1.408 . S
C57 H79 0.930 . S
C58 O68 1.281 . S
C58 O69 1.254 . S
C59 O70 1.236 . S
C59 O71 1.266 . S
O60 Tb40 2.484 . S
O60 C42 1.248 . S
O61 Tb40 2.440 . S
O61 C42 1.266 . S
O62 Tb40 2.658 . S
O62 Tb41 2.325 . S
O62 C49 1.281 . S
O63 Tb40 2.409 . S
O63 C49 1.254 . S
O64 Tb40 2.378 . S
O64 C50 1.236 . S
O65 Tb41 2.341 . S
O65 C50 1.266 . S
O66 Tb41 2.484 . S
O66 C51 1.248 . S
O67 Tb41 2.440 . S
O67 C51 1.266 . S
O68 Tb40 2.325 . S
O68 Tb41 2.658 . S
O68 C58 1.281 . S
O69 Tb41 2.409 . S
O69 C58 1.254 . S
O70 Tb41 2.378 . S
O70 C59 1.236 . S
O71 Tb40 2.341 . S
O71 C59 1.266 . S
H72 C44 0.929 . S
H73 C45 0.931 . S
H74 C47 0.930 . S
H75 C48 0.930 . S
H76 C53 0.929 . S
H77 C54 0.931 1_455 S
H78 C56 0.930 . S
H79 C57 0.930 . S
Tb80 C82 2.809 . S
Tb80 O100 2.484 . S
Tb80 O101 2.440 . S
Tb80 O102 2.658 . S
Tb80 O103 2.409 . S
Tb80 O104 2.378 . S
Tb80 O108 2.325 . S
Tb80 O111 2.341 . S
Tb81 C91 2.809 . S
Tb81 O102 2.325 . S
Tb81 O105 2.341 . S
Tb81 O106 2.484 . S
Tb81 O107 2.440 . S
Tb81 O108 2.658 . S
Tb81 O109 2.409 . S
Tb81 O110 2.378 . S
C82 Tb80 2.809 . S
C82 C83 1.514 . S
C82 O100 1.248 . S
C82 O101 1.266 . S
C83 C82 1.514 . S
C83 C84 1.359 . S
C83 C88 1.348 . S
C84 C83 1.359 . S
C84 C85 1.380 . S
C84 H112 0.929 . S
C85 C84 1.380 . S
C85 C86 1.347 . S
C85 H113 0.931 . S
C86 C85 1.347 . S
C86 C87 1.369 . S
C87 C86 1.369 . S
C87 C88 1.408 . S
C87 H114 0.930 . S
C88 C83 1.348 . S
C88 C87 1.408 . S
C88 H115 0.930 . S
C89 O102 1.281 . S
C89 O103 1.254 . S
C90 O104 1.236 . S
C90 O105 1.266 . S
C91 Tb81 2.809 . S
C91 C92 1.514 . S
C91 O106 1.248 . S
C91 O107 1.266 . S
C92 C91 1.514 . S
C92 C93 1.359 . S
C92 C97 1.348 . S
C93 C92 1.359 . S
C93 C94 1.380 . S
C93 H116 0.929 . S
C94 C93 1.380 . S
C94 C95 1.347 . S
C94 H117 0.931 1_565 S
C95 C94 1.347 . S
C95 C96 1.369 . S
C96 C95 1.369 . S
C96 C97 1.408 . S
C96 H118 0.930 . S
C97 C92 1.348 . S
C97 C96 1.408 . S
C97 H119 0.930 . S
C98 O108 1.281 . S
C98 O109 1.254 . S
C99 O110 1.236 . S
C99 O111 1.266 . S
O100 Tb80 2.484 . S
O100 C82 1.248 . S
O101 Tb80 2.440 . S
O101 C82 1.266 . S
O102 Tb80 2.658 . S
O102 Tb81 2.325 . S
O102 C89 1.281 . S
O103 Tb80 2.409 . S
O103 C89 1.254 . S
O104 Tb80 2.378 . S
O104 C90 1.236 . S
O105 Tb81 2.341 . S
O105 C90 1.266 . S
O106 Tb81 2.484 . S
O106 C91 1.248 . S
O107 Tb81 2.440 . S
O107 C91 1.266 . S
O108 Tb80 2.325 . S
O108 Tb81 2.658 . S
O108 C98 1.281 . S
O109 Tb81 2.409 . S
O109 C98 1.254 . S
O110 Tb81 2.378 . S
O110 C99 1.236 . S
O111 Tb80 2.341 . S
O111 C99 1.266 . S
H112 C84 0.929 . S
H113 C85 0.931 . S
H114 C87 0.930 . S
H115 C88 0.930 . S
H116 C93 0.929 . S
H117 C94 0.931 1_545 S
H118 C96 0.930 . S
H119 C97 0.930 . S
Tb120 C122 2.809 . S
Tb120 O140 2.484 . S
Tb120 O141 2.440 . S
Tb120 O142 2.658 . S
Tb120 O143 2.409 . S
Tb120 O144 2.378 . S
Tb120 O148 2.325 . S
Tb120 O151 2.341 . S
Tb121 C131 2.809 1_554 S
Tb121 O142 2.325 . S
Tb121 O145 2.341 . S
Tb121 O146 2.484 1_554 S
Tb121 O147 2.440 1_554 S
Tb121 O148 2.658 . S
Tb121 O149 2.409 . S
Tb121 O150 2.378 1_554 S
C122 Tb120 2.809 . S
C122 C123 1.514 . S
C122 O140 1.248 . S
C122 O141 1.266 . S
C123 C122 1.514 . S
C123 C124 1.359 . S
C123 C128 1.348 . S
C124 C123 1.359 . S
C124 C125 1.380 . S
C124 H152 0.929 . S
C125 C124 1.380 . S
C125 C126 1.347 . S
C125 H153 0.931 . S
C126 C125 1.347 . S
C126 C127 1.369 . S
C127 C126 1.369 . S
C127 C128 1.408 . S
C127 H154 0.930 . S
C128 C123 1.348 . S
C128 C127 1.408 . S
C128 H155 0.930 . S
C129 O142 1.281 . S
C129 O143 1.254 . S
C130 O144 1.236 . S
C130 O145 1.266 . S
C131 Tb121 2.809 1_556 S
C131 C132 1.514 . S
C131 O146 1.248 . S
C131 O147 1.266 . S
C132 C131 1.514 . S
C132 C133 1.359 . S
C132 C137 1.348 . S
C133 C132 1.359 . S
C133 C134 1.380 . S
C133 H156 0.929 . S
C134 C133 1.380 . S
C134 C135 1.347 . S
C134 H157 0.931 . S
C135 C134 1.347 . S
C135 C136 1.369 . S
C136 C135 1.369 . S
C136 C137 1.408 . S
C136 H158 0.930 . S
C137 C132 1.348 . S
C137 C136 1.408 . S
C137 H159 0.930 . S
C138 O148 1.281 . S
C138 O149 1.254 . S
C139 O150 1.236 . S
C139 O151 1.266 1_556 S
O140 Tb120 2.484 . S
O140 C122 1.248 . S
O141 Tb120 2.440 . S
O141 C122 1.266 . S
O142 Tb120 2.658 . S
O142 Tb121 2.325 . S
O142 C129 1.281 . S
O143 Tb120 2.409 . S
O143 C129 1.254 . S
O144 Tb120 2.378 . S
O144 C130 1.236 . S
O145 Tb121 2.341 . S
O145 C130 1.266 . S
O146 Tb121 2.484 1_556 S
O146 C131 1.248 . S
O147 Tb121 2.440 1_556 S
O147 C131 1.266 . S
O148 Tb120 2.325 . S
O148 Tb121 2.658 . S
O148 C138 1.281 . S
O149 Tb121 2.409 . S
O149 C138 1.254 . S
O150 Tb121 2.378 1_556 S
O150 C139 1.236 . S
O151 Tb120 2.341 . S
O151 C139 1.266 1_554 S
H152 C124 0.929 . S
H153 C125 0.931 . S
H154 C127 0.930 . S
H155 C128 0.930 . S
H156 C133 0.929 . S
H157 C134 0.931 . S
H158 C136 0.930 . S
H159 C137 0.930 . S
Tb160 C162 2.809 . S
Tb160 O180 2.484 . S
Tb160 O181 2.440 . S
Tb160 O182 2.658 . S
Tb160 O183 2.409 . S
Tb160 O184 2.378 . S
Tb160 O188 2.325 . S
Tb160 O191 2.341 . S
Tb161 C171 2.809 . S
Tb161 O182 2.325 . S
Tb161 O185 2.341 . S
Tb161 O186 2.484 . S
Tb161 O187 2.440 . S
Tb161 O188 2.658 . S
Tb161 O189 2.409 . S
Tb161 O190 2.378 . S
C162 Tb160 2.809 . S
C162 C163 1.514 . S
C162 O180 1.248 . S
C162 O181 1.266 . S
C163 C162 1.514 . S
C163 C164 1.359 . S
C163 C168 1.348 . S
C164 C163 1.359 . S
C164 C165 1.380 . S
C164 H192 0.929 . S
C165 C164 1.380 . S
C165 C166 1.347 . S
C165 H193 0.931 . S
C166 C165 1.347 . S
C166 C167 1.369 . S
C167 C166 1.369 . S
C167 C168 1.408 . S
C167 H194 0.930 . S
C168 C163 1.348 . S
C168 C167 1.408 . S
C168 H195 0.930 . S
C169 O182 1.281 . S
C169 O183 1.254 . S
C170 O184 1.236 . S
C170 O185 1.266 . S
C171 Tb161 2.809 . S
C171 C172 1.514 . S
C171 O186 1.248 . S
C171 O187 1.266 . S
C172 C171 1.514 . S
C172 C173 1.359 . S
C172 C177 1.348 . S
C173 C172 1.359 . S
C173 C174 1.380 . S
C173 H196 0.929 . S
C174 C173 1.380 . S
C174 C175 1.347 . S
C174 H197 0.931 1_455 S
C175 C174 1.347 . S
C175 C176 1.369 . S
C176 C175 1.369 . S
C176 C177 1.408 . S
C176 H198 0.930 . S
C177 C172 1.348 . S
C177 C176 1.408 . S
C177 H199 0.930 . S
C178 O188 1.281 . S
C178 O189 1.254 . S
C179 O190 1.236 . S
C179 O191 1.266 . S
O180 Tb160 2.484 . S
O180 C162 1.248 . S
O181 Tb160 2.440 . S
O181 C162 1.266 . S
O182 Tb160 2.658 . S
O182 Tb161 2.325 . S
O182 C169 1.281 . S
O183 Tb160 2.409 . S
O183 C169 1.254 . S
O184 Tb160 2.378 . S
O184 C170 1.236 . S
O185 Tb161 2.341 . S
O185 C170 1.266 . S
O186 Tb161 2.484 . S
O186 C171 1.248 . S
O187 Tb161 2.440 . S
O187 C171 1.266 . S
O188 Tb160 2.325 . S
O188 Tb161 2.658 . S
O188 C178 1.281 . S
O189 Tb161 2.409 . S
O189 C178 1.254 . S
O190 Tb161 2.378 . S
O190 C179 1.236 . S
O191 Tb160 2.341 . S
O191 C179 1.266 . S
H192 C164 0.929 . S
H193 C165 0.931 . S
H194 C167 0.930 . S
H195 C168 0.930 . S
H196 C173 0.929 . S
H197 C174 0.931 1_655 S
H198 C176 0.930 . S
H199 C177 0.930 . S
Tb200 C202 2.809 . S
Tb200 O220 2.484 . S
Tb200 O221 2.440 . S
Tb200 O222 2.658 . S
Tb200 O223 2.409 . S
Tb200 O224 2.378 . S
Tb200 O228 2.325 . S
Tb200 O231 2.341 . S
Tb201 C211 2.809 . S
Tb201 O222 2.325 . S
Tb201 O225 2.341 . S
Tb201 O226 2.484 . S
Tb201 O227 2.440 . S
Tb201 O228 2.658 . S
Tb201 O229 2.409 . S
Tb201 O230 2.378 . S
C202 Tb200 2.809 . S
C202 C203 1.514 . S
C202 O220 1.248 . S
C202 O221 1.266 . S
C203 C202 1.514 . S
C203 C204 1.359 . S
C203 C208 1.348 . S
C204 C203 1.359 . S
C204 C205 1.380 . S
C204 H232 0.929 . S
C205 C204 1.380 . S
C205 C206 1.347 . S
C205 H233 0.931 . S
C206 C205 1.347 . S
C206 C207 1.369 . S
C207 C206 1.369 . S
C207 C208 1.408 . S
C207 H234 0.930 . S
C208 C203 1.348 . S
C208 C207 1.408 . S
C208 H235 0.930 . S
C209 O222 1.281 . S
C209 O223 1.254 . S
C210 O224 1.236 . S
C210 O225 1.266 . S
C211 Tb201 2.809 . S
C211 C212 1.514 . S
C211 O226 1.248 . S
C211 O227 1.266 . S
C212 C211 1.514 . S
C212 C213 1.359 . S
C212 C217 1.348 . S
C213 C212 1.359 . S
C213 C214 1.380 . S
C213 H236 0.929 . S
C214 C213 1.380 . S
C214 C215 1.347 . S
C214 H237 0.931 1_545 S
C215 C214 1.347 . S
C215 C216 1.369 . S
C216 C215 1.369 . S
C216 C217 1.408 . S
C216 H238 0.930 . S
C217 C212 1.348 . S
C217 C216 1.408 . S
C217 H239 0.930 . S
C218 O228 1.281 . S
C218 O229 1.254 . S
C219 O230 1.236 . S
C219 O231 1.266 . S
O220 Tb200 2.484 . S
O220 C202 1.248 . S
O221 Tb200 2.440 . S
O221 C202 1.266 . S
O222 Tb200 2.658 . S
O222 Tb201 2.325 . S
O222 C209 1.281 . S
O223 Tb200 2.409 . S
O223 C209 1.254 . S
O224 Tb200 2.378 . S
O224 C210 1.236 . S
O225 Tb201 2.341 . S
O225 C210 1.266 . S
O226 Tb201 2.484 . S
O226 C211 1.248 . S
O227 Tb201 2.440 . S
O227 C211 1.266 . S
O228 Tb200 2.325 . S
O228 Tb201 2.658 . S
O228 C218 1.281 . S
O229 Tb201 2.409 . S
O229 C218 1.254 . S
O230 Tb201 2.378 . S
O230 C219 1.236 . S
O231 Tb200 2.341 . S
O231 C219 1.266 . S
H232 C204 0.929 . S
H233 C205 0.931 . S
H234 C207 0.930 . S
H235 C208 0.930 . S
H236 C213 0.929 . S
H237 C214 0.931 1_565 S
H238 C216 0.930 . S
H239 C217 0.930 . S
H240 C252 0.930 . S
H241 C254 0.930 . S
H242 C255 0.930 . S
H243 C259 0.959 . S
H244 C259 0.959 . S
H245 C259 0.961 . S
H246 C260 0.960 . S
H247 C260 0.961 . S
H248 C260 0.959 . S
H249 C263 0.929 . S
H250 C264 0.931 . S
H251 C266 0.930 . S
C252 H240 0.930 . S
C252 C253 1.399 . S
C252 C257 1.399 . S
C253 C252 1.399 . S
C253 C254 1.376 . S
C254 H241 0.930 . S
C254 C253 1.376 . S
C254 C255 1.388 . S
C255 H242 0.930 . S
C255 C254 1.388 . S
C255 C256 1.390 . S
C256 C255 1.390 . S
C256 C257 1.394 . S
C256 C262 1.465 . S
C257 C252 1.399 . S
C257 C256 1.394 . S
C257 C258 1.516 . S
C258 C257 1.516 . S
C258 C259 1.502 . S
C258 C260 1.561 . S
C258 C261 1.526 . S
C259 H243 0.959 . S
C259 H244 0.959 . S
C259 H245 0.961 . S
C259 C258 1.502 . S
C260 H246 0.960 . S
C260 H247 0.961 . S
C260 H248 0.959 . S
C260 C258 1.561 . S
C261 C258 1.526 . S
C261 C262 1.396 . S
C261 C266 1.390 . S
C262 C256 1.465 . S
C262 C261 1.396 . S
C262 C263 1.399 . S
C263 H249 0.929 . S
C263 C262 1.399 . S
C263 C264 1.385 . S
C264 H250 0.931 . S
C264 C263 1.385 . S
C264 C265 1.389 . S
C265 C264 1.389 . S
C265 C266 1.387 . S
C266 H251 0.930 . S
C266 C261 1.390 . S
C266 C265 1.387 . S
H267 C279 0.930 . S
H268 C281 0.930 . S
H269 C282 0.930 . S
H270 C286 0.959 . S
H271 C286 0.959 . S
H272 C286 0.961 . S
H273 C287 0.960 . S
H274 C287 0.961 . S
H275 C287 0.959 . S
H276 C290 0.929 . S
H277 C291 0.931 . S
H278 C293 0.930 . S
C279 H267 0.930 . S
C279 C280 1.399 . S
C279 C284 1.399 . S
C280 C279 1.399 . S
C280 C281 1.376 . S
C281 H268 0.930 . S
C281 C280 1.376 . S
C281 C282 1.388 . S
C282 H269 0.930 . S
C282 C281 1.388 . S
C282 C283 1.390 . S
C283 C282 1.390 . S
C283 C284 1.394 . S
C283 C289 1.465 . S
C284 C279 1.399 . S
C284 C283 1.394 . S
C284 C285 1.516 . S
C285 C284 1.516 . S
C285 C286 1.502 . S
C285 C287 1.561 . S
C285 C288 1.526 . S
C286 H270 0.959 . S
C286 H271 0.959 . S
C286 H272 0.961 . S
C286 C285 1.502 . S
C287 H273 0.960 . S
C287 H274 0.961 . S
C287 H275 0.959 . S
C287 C285 1.561 . S
C288 C285 1.526 . S
C288 C289 1.396 . S
C288 C293 1.390 . S
C289 C283 1.465 . S
C289 C288 1.396 . S
C289 C290 1.399 . S
C290 H276 0.929 . S
C290 C289 1.399 . S
C290 C291 1.385 . S
C291 H277 0.931 . S
C291 C290 1.385 . S
C291 C292 1.389 . S
C292 C291 1.389 . S
C292 C293 1.387 . S
C293 H278 0.930 . S
C293 C288 1.390 . S
C293 C292 1.387 . S
H294 C306 0.930 . S
H295 C308 0.930 . S
H296 C309 0.930 . S
H297 C313 0.959 . S
H298 C313 0.959 . S
H299 C313 0.961 . S
H300 C314 0.960 . S
H301 C314 0.961 . S
H302 C314 0.959 . S
H303 C317 0.929 . S
H304 C318 0.931 . S
H305 C320 0.930 . S
C306 H294 0.930 . S
C306 C307 1.399 . S
C306 C311 1.399 . S
C307 C306 1.399 . S
C307 C308 1.376 . S
C308 H295 0.930 . S
C308 C307 1.376 . S
C308 C309 1.388 . S
C309 H296 0.930 . S
C309 C308 1.388 . S
C309 C310 1.390 . S
C310 C309 1.390 . S
C310 C311 1.394 . S
C310 C316 1.465 . S
C311 C306 1.399 . S
C311 C310 1.394 . S
C311 C312 1.516 . S
C312 C311 1.516 . S
C312 C313 1.502 . S
C312 C314 1.561 . S
C312 C315 1.526 . S
C313 H297 0.959 . S
C313 H298 0.959 . S
C313 H299 0.961 . S
C313 C312 1.502 . S
C314 H300 0.960 . S
C314 H301 0.961 . S
C314 H302 0.959 . S
C314 C312 1.561 . S
C315 C312 1.526 . S
C315 C316 1.396 . S
C315 C320 1.390 . S
C316 C310 1.465 . S
C316 C315 1.396 . S
C316 C317 1.399 . S
C317 H303 0.929 . S
C317 C316 1.399 . S
C317 C318 1.385 . S
C318 H304 0.931 . S
C318 C317 1.385 . S
C318 C319 1.389 . S
C319 C318 1.389 . S
C319 C320 1.387 . S
C320 H305 0.930 . S
C320 C315 1.390 . S
C320 C319 1.387 . S
H321 C333 0.930 . S
H322 C335 0.930 . S
H323 C336 0.930 . S
H324 C340 0.959 . S
H325 C340 0.959 . S
H326 C340 0.961 . S
H327 C341 0.960 . S
H328 C341 0.961 . S
H329 C341 0.959 . S
H330 C344 0.929 . S
H331 C345 0.931 . S
H332 C347 0.930 . S
C333 H321 0.930 . S
C333 C334 1.399 . S
C333 C338 1.399 . S
C334 C333 1.399 . S
C334 C335 1.376 . S
C335 H322 0.930 . S
C335 C334 1.376 . S
C335 C336 1.388 . S
C336 H323 0.930 . S
C336 C335 1.388 . S
C336 C337 1.390 . S
C337 C336 1.390 . S
C337 C338 1.394 . S
C337 C343 1.465 . S
C338 C333 1.399 . S
C338 C337 1.394 . S
C338 C339 1.516 . S
C339 C338 1.516 . S
C339 C340 1.502 . S
C339 C341 1.561 . S
C339 C342 1.526 . S
C340 H324 0.959 . S
C340 H325 0.959 . S
C340 H326 0.961 . S
C340 C339 1.502 . S
C341 H327 0.960 . S
C341 H328 0.961 . S
C341 H329 0.959 . S
C341 C339 1.561 . S
C342 C339 1.526 . S
C342 C343 1.396 . S
C342 C347 1.390 . S
C343 C337 1.465 . S
C343 C342 1.396 . S
C343 C344 1.399 . S
C344 H330 0.929 . S
C344 C343 1.399 . S
C344 C345 1.385 . S
C345 H331 0.931 . S
C345 C344 1.385 . S
C345 C346 1.389 . S
C346 C345 1.389 . S
C346 C347 1.387 . S
C347 H332 0.930 . S
C347 C342 1.390 . S
C347 C346 1.387 . S
H348 C360 0.930 . S
H349 C362 0.930 . S
H350 C363 0.930 . S
H351 C367 0.959 . S
H352 C367 0.959 . S
H353 C367 0.961 . S
H354 C368 0.960 . S
H355 C368 0.961 . S
H356 C368 0.959 . S
H357 C371 0.929 . S
H358 C372 0.931 . S
H359 C374 0.930 . S
C360 H348 0.930 . S
C360 C361 1.399 . S
C360 C365 1.399 . S
C361 C360 1.399 . S
C361 C362 1.376 . S
C362 H349 0.930 . S
C362 C361 1.376 . S
C362 C363 1.388 . S
C363 H350 0.930 . S
C363 C362 1.388 . S
C363 C364 1.390 . S
C364 C363 1.390 . S
C364 C365 1.394 . S
C364 C370 1.465 . S
C365 C360 1.399 . S
C365 C364 1.394 . S
C365 C366 1.516 . S
C366 C365 1.516 . S
C366 C367 1.502 . S
C366 C368 1.561 . S
C366 C369 1.526 . S
C367 H351 0.959 . S
C367 H352 0.959 . S
C367 H353 0.961 . S
C367 C366 1.502 . S
C368 H354 0.960 . S
C368 H355 0.961 . S
C368 H356 0.959 . S
C368 C366 1.561 . S
C369 C366 1.526 . S
C369 C370 1.396 . S
C369 C374 1.390 . S
C370 C364 1.465 . S
C370 C369 1.396 . S
C370 C371 1.399 . S
C371 H357 0.929 . S
C371 C370 1.399 . S
C371 C372 1.385 . S
C372 H358 0.931 . S
C372 C371 1.385 . S
C372 C373 1.389 . S
C373 C372 1.389 . S
C373 C374 1.387 . S
C374 H359 0.930 . S
C374 C369 1.390 . S
C374 C373 1.387 . S
H375 C387 0.930 . S
H376 C389 0.930 . S
H377 C390 0.930 . S
H378 C394 0.959 . S
H379 C394 0.959 . S
H380 C394 0.961 . S
H381 C395 0.960 . S
H382 C395 0.961 . S
H383 C395 0.959 . S
H384 C398 0.929 . S
H385 C399 0.931 . S
H386 C401 0.930 . S
C387 H375 0.930 . S
C387 C388 1.399 . S
C387 C392 1.399 . S
C388 C387 1.399 . S
C388 C389 1.376 . S
C389 H376 0.930 . S
C389 C388 1.376 . S
C389 C390 1.388 . S
C390 H377 0.930 . S
C390 C389 1.388 . S
C390 C391 1.390 . S
C391 C390 1.390 . S
C391 C392 1.394 . S
C391 C397 1.465 . S
C392 C387 1.399 . S
C392 C391 1.394 . S
C392 C393 1.516 . S
C393 C392 1.516 . S
C393 C394 1.502 . S
C393 C395 1.561 . S
C393 C396 1.526 . S
C394 H378 0.959 . S
C394 H379 0.959 . S
C394 H380 0.961 . S
C394 C393 1.502 . S
C395 H381 0.960 . S
C395 H382 0.961 . S
C395 H383 0.959 . S
C395 C393 1.561 . S
C396 C393 1.526 . S
C396 C397 1.396 . S
C396 C401 1.390 . S
C397 C391 1.465 . S
C397 C396 1.396 . S
C397 C398 1.399 . S
C398 H384 0.929 . S
C398 C397 1.399 . S
C398 C399 1.385 . S
C399 H385 0.931 . S
C399 C398 1.385 . S
C399 C400 1.389 . S
C400 C399 1.389 . S
C400 C401 1.387 . S
C401 H386 0.930 . S
C401 C396 1.390 . S
C401 C400 1.387 . S
H402 C414 0.930 . S
H403 C416 0.930 . S
H404 C417 0.930 . S
H405 C421 0.959 . S
H406 C421 0.959 . S
H407 C421 0.961 . S
H408 C422 0.960 . S
H409 C422 0.961 . S
H410 C422 0.959 . S
H411 C425 0.929 . S
H412 C426 0.931 . S
H413 C428 0.930 . S
C414 H402 0.930 . S
C414 C415 1.399 . S
C414 C419 1.399 . S
C415 C414 1.399 . S
C415 C416 1.376 . S
C416 H403 0.930 . S
C416 C415 1.376 . S
C416 C417 1.388 . S
C417 H404 0.930 . S
C417 C416 1.388 . S
C417 C418 1.390 . S
C418 C417 1.390 . S
C418 C419 1.394 . S
C418 C424 1.465 . S
C419 C414 1.399 . S
C419 C418 1.394 . S
C419 C420 1.516 . S
C420 C419 1.516 . S
C420 C421 1.502 . S
C420 C422 1.561 . S
C420 C423 1.526 . S
C421 H405 0.959 . S
C421 H406 0.959 . S
C421 H407 0.961 . S
C421 C420 1.502 . S
C422 H408 0.960 . S
C422 H409 0.961 . S
C422 H410 0.959 . S
C422 C420 1.561 . S
C423 C420 1.526 . S
C423 C424 1.396 . S
C423 C428 1.390 . S
C424 C418 1.465 . S
C424 C423 1.396 . S
C424 C425 1.399 . S
C425 H411 0.929 . S
C425 C424 1.399 . S
C425 C426 1.385 . S
C426 H412 0.931 . S
C426 C425 1.385 . S
C426 C427 1.389 . S
C427 C426 1.389 . S
C427 C428 1.387 . S
C428 H413 0.930 . S
C428 C423 1.390 . S
C428 C427 1.387 . S
H429 C441 0.930 . S
H430 C443 0.930 . S
H431 C444 0.930 . S
H432 C448 0.959 . S
H433 C448 0.959 . S
H434 C448 0.961 . S
H435 C449 0.960 . S
H436 C449 0.961 . S
H437 C449 0.959 . S
H438 C452 0.929 . S
H439 C453 0.931 . S
H440 C455 0.930 . S
C441 H429 0.930 . S
C441 C442 1.399 . S
C441 C446 1.399 . S
C442 C441 1.399 . S
C442 C443 1.376 . S
C443 H430 0.930 . S
C443 C442 1.376 . S
C443 C444 1.388 . S
C444 H431 0.930 . S
C444 C443 1.388 . S
C444 C445 1.390 . S
C445 C444 1.390 . S
C445 C446 1.394 . S
C445 C451 1.465 1_455 S
C446 C441 1.399 . S
C446 C445 1.394 . S
C446 C447 1.516 1_455 S
C447 C446 1.516 1_655 S
C447 C448 1.502 1_655 S
C447 C449 1.561 . S
C447 C450 1.526 . S
C448 H432 0.959 . S
C448 H433 0.959 . S
C448 H434 0.961 . S
C448 C447 1.502 1_455 S
C449 H435 0.960 . S
C449 H436 0.961 . S
C449 H437 0.959 . S
C449 C447 1.561 . S
C450 C447 1.526 . S
C450 C451 1.396 . S
C450 C455 1.390 . S
C451 C445 1.465 1_655 S
C451 C450 1.396 . S
C451 C452 1.399 . S
C452 H438 0.929 . S
C452 C451 1.399 . S
C452 C453 1.385 . S
C453 H439 0.931 . S
C453 C452 1.385 . S
C453 C454 1.389 . S
C454 C453 1.389 . S
C454 C455 1.387 . S
C455 H440 0.930 . S
C455 C450 1.390 . S
C455 C454 1.387 . S
H456 C468 0.930 . S
H457 C470 0.930 . S
H458 C471 0.930 . S
H459 C475 0.959 . S
H460 C475 0.959 . S
H461 C475 0.961 . S
H462 C476 0.960 . S
H463 C476 0.961 1_565 S
H464 C476 0.959 . S
H465 C479 0.929 . S
H466 C480 0.931 . S
H467 C482 0.930 . S
C468 H456 0.930 . S
C468 C469 1.399 . S
C468 C473 1.399 . S
C469 C468 1.399 . S
C469 C470 1.376 . S
C470 H457 0.930 . S
C470 C469 1.376 . S
C470 C471 1.388 . S
C471 H458 0.930 . S
C471 C470 1.388 . S
C471 C472 1.390 . S
C472 C471 1.390 . S
C472 C473 1.394 . S
C472 C478 1.465 . S
C473 C468 1.399 . S
C473 C472 1.394 . S
C473 C474 1.516 1_545 S
C474 C473 1.516 1_565 S
C474 C475 1.502 . S
C474 C476 1.561 1_565 S
C474 C477 1.526 . S
C475 H459 0.959 . S
C475 H460 0.959 . S
C475 H461 0.961 . S
C475 C474 1.502 . S
C476 H462 0.960 . S
C476 H463 0.961 1_545 S
C476 H464 0.959 . S
C476 C474 1.561 1_545 S
C477 C474 1.526 . S
C477 C478 1.396 1_565 S
C477 C482 1.390 . S
C478 C472 1.465 . S
C478 C477 1.396 1_545 S
C478 C479 1.399 . S
C479 H465 0.929 . S
C479 C478 1.399 . S
C479 C480 1.385 1_545 S
C480 H466 0.931 . S
C480 C479 1.385 1_565 S
C480 C481 1.389 . S
C481 C480 1.389 . S
C481 C482 1.387 . S
C482 H467 0.930 . S
C482 C477 1.390 . S
C482 C481 1.387 . S
H483 C495 0.930 . S
H484 C497 0.930 . S
H485 C498 0.930 . S
H486 C502 0.959 . S
H487 C502 0.959 . S
H488 C502 0.961 . S
H489 C503 0.960 . S
H490 C503 0.961 . S
H491 C503 0.959 . S
H492 C506 0.929 . S
H493 C507 0.931 . S
H494 C509 0.930 . S
C495 H483 0.930 . S
C495 C496 1.399 . S
C495 C500 1.399 . S
C496 C495 1.399 . S
C496 C497 1.376 . S
C497 H484 0.930 . S
C497 C496 1.376 . S
C497 C498 1.388 . S
C498 H485 0.930 . S
C498 C497 1.388 . S
C498 C499 1.390 . S
C499 C498 1.390 . S
C499 C500 1.394 . S
C499 C505 1.465 . S
C500 C495 1.399 . S
C500 C499 1.394 . S
C500 C501 1.516 . S
C501 C500 1.516 . S
C501 C502 1.502 . S
C501 C503 1.561 . S
C501 C504 1.526 . S
C502 H486 0.959 . S
C502 H487 0.959 . S
C502 H488 0.961 . S
C502 C501 1.502 . S
C503 H489 0.960 . S
C503 H490 0.961 . S
C503 H491 0.959 . S
C503 C501 1.561 . S
C504 C501 1.526 . S
C504 C505 1.396 . S
C504 C509 1.390 . S
C505 C499 1.465 . S
C505 C504 1.396 . S
C505 C506 1.399 . S
C506 H492 0.929 . S
C506 C505 1.399 . S
C506 C507 1.385 . S
C507 H493 0.931 . S
C507 C506 1.385 . S
C507 C508 1.389 . S
C508 C507 1.389 . S
C508 C509 1.387 . S
C509 H494 0.930 . S
C509 C504 1.390 . S
C509 C508 1.387 . S
H510 C522 0.930 . S
H511 C524 0.930 1_556 S
H512 C525 0.930 . S
H513 C529 0.959 . S
H514 C529 0.959 . S
H515 C529 0.961 . S
H516 C530 0.960 . S
H517 C530 0.961 . S
H518 C530 0.959 . S
H519 C533 0.929 . S
H520 C534 0.931 1_556 S
H521 C536 0.930 . S
C522 H510 0.930 . S
C522 C523 1.399 . S
C522 C527 1.399 . S
C523 C522 1.399 . S
C523 C524 1.376 . S
C524 H511 0.930 1_554 S
C524 C523 1.376 . S
C524 C525 1.388 1_554 S
C525 H512 0.930 . S
C525 C524 1.388 1_556 S
C525 C526 1.390 1_556 S
C526 C525 1.390 1_554 S
C526 C527 1.394 . S
C526 C532 1.465 1_455 S
C527 C522 1.399 . S
C527 C526 1.394 . S
C527 C528 1.516 1_455 S
C528 C527 1.516 1_655 S
C528 C529 1.502 . S
C528 C530 1.561 1_655 S
C528 C531 1.526 . S
C529 H513 0.959 . S
C529 H514 0.959 . S
C529 H515 0.961 . S
C529 C528 1.502 . S
C530 H516 0.960 . S
C530 H517 0.961 . S
C530 H518 0.959 . S
C530 C528 1.561 1_455 S
C531 C528 1.526 . S
C531 C532 1.396 . S
C531 C536 1.390 . S
C532 C526 1.465 1_655 S
C532 C531 1.396 . S
C532 C533 1.399 1_554 S
C533 H519 0.929 . S
C533 C532 1.399 1_556 S
C533 C534 1.385 1_556 S
C534 H520 0.931 1_554 S
C534 C533 1.385 1_554 S
C534 C535 1.389 . S
C535 C534 1.389 . S
C535 C536 1.387 . S
C536 H521 0.930 . S
C536 C531 1.390 . S
C536 C535 1.387 . S
H537 C549 0.930 . S
H538 C551 0.930 . S
H539 C552 0.930 . S
H540 C556 0.959 . S
H541 C556 0.959 . S
H542 C556 0.961 . S
H543 C557 0.960 . S
H544 C557 0.961 1_545 S
H545 C557 0.959 . S
H546 C560 0.929 . S
H547 C561 0.931 . S
H548 C563 0.930 . S
C549 H537 0.930 . S
C549 C550 1.399 . S
C549 C554 1.399 . S
C550 C549 1.399 . S
C550 C551 1.376 . S
C551 H538 0.930 . S
C551 C550 1.376 . S
C551 C552 1.388 . S
C552 H539 0.930 . S
C552 C551 1.388 . S
C552 C553 1.390 . S
C553 C552 1.390 . S
C553 C554 1.394 . S
C553 C559 1.465 . S
C554 C549 1.399 . S
C554 C553 1.394 . S
C554 C555 1.516 1_565 S
C555 C554 1.516 1_545 S
C555 C556 1.502 . S
C555 C557 1.561 1_545 S
C555 C558 1.526 . S
C556 H540 0.959 . S
C556 H541 0.959 . S
C556 H542 0.961 . S
C556 C555 1.502 . S
C557 H543 0.960 . S
C557 H544 0.961 1_565 S
C557 H545 0.959 . S
C557 C555 1.561 1_565 S
C558 C555 1.526 . S
C558 C559 1.396 1_545 S
C558 C563 1.390 . S
C559 C553 1.465 . S
C559 C558 1.396 1_565 S
C559 C560 1.399 . S
C560 H546 0.929 . S
C560 C559 1.399 . S
C560 C561 1.385 1_565 S
C561 H547 0.931 . S
C561 C560 1.385 1_545 S
C561 C562 1.389 . S
C562 C561 1.389 . S
C562 C563 1.387 . S
C563 H548 0.930 . S
C563 C558 1.390 . S
C563 C562 1.387 . S
H564 C576 0.930 . S
H565 C578 0.930 . S
H566 C579 0.930 . S
H567 C583 0.959 . S
H568 C583 0.959 . S
H569 C583 0.961 . S
H570 C584 0.960 . S
H571 C584 0.961 . S
H572 C584 0.959 . S
H573 C587 0.929 . S
H574 C588 0.931 . S
H575 C590 0.930 . S
C576 H564 0.930 . S
C576 C577 1.399 . S
C576 C581 1.399 . S
C577 C576 1.399 . S
C577 C578 1.376 . S
C578 H565 0.930 . S
C578 C577 1.376 . S
C578 C579 1.388 . S
C579 H566 0.930 . S
C579 C578 1.388 . S
C579 C580 1.390 . S
C580 C579 1.390 . S
C580 C581 1.394 . S
C580 C586 1.465 . S
C581 C576 1.399 . S
C581 C580 1.394 . S
C581 C582 1.516 . S
C582 C581 1.516 . S
C582 C583 1.502 . S
C582 C584 1.561 . S
C582 C585 1.526 . S
C583 H567 0.959 . S
C583 H568 0.959 . S
C583 H569 0.961 . S
C583 C582 1.502 . S
C584 H570 0.960 . S
C584 H571 0.961 . S
C584 H572 0.959 . S
C584 C582 1.561 . S
C585 C582 1.526 . S
C585 C586 1.396 . S
C585 C590 1.390 . S
C586 C580 1.465 . S
C586 C585 1.396 . S
C586 C587 1.399 . S
C587 H573 0.929 . S
C587 C586 1.399 . S
C587 C588 1.385 . S
C588 H574 0.931 . S
C588 C587 1.385 . S
C588 C589 1.389 . S
C589 C588 1.389 . S
C589 C590 1.387 . S
C590 H575 0.930 . S
C590 C585 1.390 . S
C590 C589 1.387 . S
H591 C603 0.930 . S
H592 C605 0.930 . S
H593 C606 0.930 . S
H594 C610 0.959 1_655 S
H595 C610 0.959 . S
H596 C610 0.961 . S
H597 C611 0.960 . S
H598 C611 0.961 . S
H599 C611 0.959 . S
H600 C614 0.929 . S
H601 C615 0.931 . S
H602 C617 0.930 . S
C603 H591 0.930 . S
C603 C604 1.399 . S
C603 C608 1.399 . S
C604 C603 1.399 . S
C604 C605 1.376 . S
C605 H592 0.930 . S
C605 C604 1.376 . S
C605 C606 1.388 . S
C606 H593 0.930 . S
C606 C605 1.388 . S
C606 C607 1.390 . S
C607 C606 1.390 . S
C607 C608 1.394 . S
C607 C613 1.465 . S
C608 C603 1.399 . S
C608 C607 1.394 . S
C608 C609 1.516 . S
C609 C608 1.516 . S
C609 C610 1.502 . S
C609 C611 1.561 . S
C609 C612 1.526 . S
C610 H594 0.959 1_455 S
C610 H595 0.959 . S
C610 H596 0.961 . S
C610 C609 1.502 . S
C611 H597 0.960 . S
C611 H598 0.961 . S
C611 H599 0.959 . S
C611 C609 1.561 . S
C612 C609 1.526 . S
C612 C613 1.396 . S
C612 C617 1.390 . S
C613 C607 1.465 . S
C613 C612 1.396 . S
C613 C614 1.399 . S
C614 H600 0.929 . S
C614 C613 1.399 . S
C614 C615 1.385 . S
C615 H601 0.931 . S
C615 C614 1.385 . S
C615 C616 1.389 . S
C616 C615 1.389 . S
C616 C617 1.387 . S
C617 H602 0.930 . S
C617 C612 1.390 . S
C617 C616 1.387 . S
H618 C630 0.930 . S
H619 C632 0.930 . S
H620 C633 0.930 . S
H621 C637 0.959 . S
H622 C637 0.959 . S
H623 C637 0.961 . S
H624 C638 0.960 . S
H625 C638 0.961 . S
H626 C638 0.959 . S
H627 C641 0.929 1_565 S
H628 C642 0.931 . S
H629 C644 0.930 . S
C630 H618 0.930 . S
C630 C631 1.399 1_545 S
C630 C635 1.399 . S
C631 C630 1.399 1_565 S
C631 C632 1.376 . S
C632 H619 0.930 . S
C632 C631 1.376 . S
C632 C633 1.388 . S
C633 H620 0.930 . S
C633 C632 1.388 . S
C633 C634 1.390 1_565 S
C634 C633 1.390 1_545 S
C634 C635 1.394 . S
C634 C640 1.465 . S
C635 C630 1.399 . S
C635 C634 1.394 . S
C635 C636 1.516 . S
C636 C635 1.516 . S
C636 C637 1.502 . S
C636 C638 1.561 . S
C636 C639 1.526 . S
C637 H621 0.959 . S
C637 H622 0.959 . S
C637 H623 0.961 . S
C637 C636 1.502 . S
C638 H624 0.960 . S
C638 H625 0.961 . S
C638 H626 0.959 . S
C638 C636 1.561 . S
C639 C636 1.526 . S
C639 C640 1.396 . S
C639 C644 1.390 . S
C640 C634 1.465 . S
C640 C639 1.396 . S
C640 C641 1.399 . S
C641 H627 0.929 1_545 S
C641 C640 1.399 . S
C641 C642 1.385 . S
C642 H628 0.931 . S
C642 C641 1.385 . S
C642 C643 1.389 . S
C643 C642 1.389 . S
C643 C644 1.387 . S
C644 H629 0.930 . S
C644 C639 1.390 . S
C644 C643 1.387 . S
H645 C657 0.930 . S
H646 C659 0.930 . S
H647 C660 0.930 . S
H648 C664 0.959 . S
H649 C664 0.959 . S
H650 C664 0.961 . S
H651 C665 0.960 . S
H652 C665 0.961 . S
H653 C665 0.959 . S
H654 C668 0.929 . S
H655 C669 0.931 . S
H656 C671 0.930 . S
C657 H645 0.930 . S
C657 C658 1.399 . S
C657 C662 1.399 . S
C658 C657 1.399 . S
C658 C659 1.376 . S
C659 H646 0.930 . S
C659 C658 1.376 . S
C659 C660 1.388 . S
C660 H647 0.930 . S
C660 C659 1.388 . S
C660 C661 1.390 . S
C661 C660 1.390 . S
C661 C662 1.394 . S
C661 C667 1.465 . S
C662 C657 1.399 . S
C662 C661 1.394 . S
C662 C663 1.516 . S
C663 C662 1.516 . S
C663 C664 1.502 . S
C663 C665 1.561 . S
C663 C666 1.526 . S
C664 H648 0.959 . S
C664 H649 0.959 . S
C664 H650 0.961 . S
C664 C663 1.502 . S
C665 H651 0.960 . S
C665 H652 0.961 . S
C665 H653 0.959 . S
C665 C663 1.561 . S
C666 C663 1.526 . S
C666 C667 1.396 . S
C666 C671 1.390 . S
C667 C661 1.465 . S
C667 C666 1.396 . S
C667 C668 1.399 . S
C668 H654 0.929 . S
C668 C667 1.399 . S
C668 C669 1.385 . S
C669 H655 0.931 . S
C669 C668 1.385 . S
C669 C670 1.389 . S
C670 C669 1.389 . S
C670 C671 1.387 . S
C671 H656 0.930 . S
C671 C666 1.390 . S
C671 C670 1.387 . S
H672 C684 0.930 . S
H673 C686 0.930 . S
H674 C687 0.930 . S
H675 C691 0.959 1_655 S
H676 C691 0.959 . S
H677 C691 0.961 . S
H678 C692 0.960 . S
H679 C692 0.961 . S
H680 C692 0.959 . S
H681 C695 0.929 . S
H682 C696 0.931 . S
H683 C698 0.930 . S
C684 H672 0.930 . S
C684 C685 1.399 1_455 S
C684 C689 1.399 1_455 S
C685 C684 1.399 1_655 S
C685 C686 1.376 . S
C686 H673 0.930 . S
C686 C685 1.376 . S
C686 C687 1.388 . S
C687 H674 0.930 . S
C687 C686 1.388 . S
C687 C688 1.390 . S
C688 C687 1.390 . S
C688 C689 1.394 . S
C688 C694 1.465 . S
C689 C684 1.399 1_655 S
C689 C688 1.394 . S
C689 C690 1.516 . S
C690 C689 1.516 . S
C690 C691 1.502 1_655 S
C690 C692 1.561 1_655 S
C690 C693 1.526 . S
C691 H675 0.959 1_455 S
C691 H676 0.959 . S
C691 H677 0.961 . S
C691 C690 1.502 1_455 S
C692 H678 0.960 . S
C692 H679 0.961 . S
C692 H680 0.959 . S
C692 C690 1.561 1_455 S
C693 C690 1.526 . S
C693 C694 1.396 . S
C693 C698 1.390 . S
C694 C688 1.465 . S
C694 C693 1.396 . S
C694 C695 1.399 . S
C695 H681 0.929 . S
C695 C694 1.399 . S
C695 C696 1.385 . S
C696 H682 0.931 . S
C696 C695 1.385 . S
C696 C697 1.389 . S
C697 C696 1.389 . S
C697 C698 1.387 . S
C698 H683 0.930 . S
C698 C693 1.390 . S
C698 C697 1.387 . S
H699 C711 0.930 . S
H700 C713 0.930 . S
H701 C714 0.930 . S
H702 C718 0.959 . S
H703 C718 0.959 . S
H704 C718 0.961 . S
H705 C719 0.960 . S
H706 C719 0.961 . S
H707 C719 0.959 . S
H708 C722 0.929 . S
H709 C723 0.931 . S
H710 C725 0.930 . S
C711 H699 0.930 . S
C711 C712 1.405 . S
C711 C716 1.399 . S
C712 C711 1.405 . S
C712 C713 1.373 1_565 S
C713 H700 0.930 . S
C713 C712 1.373 1_545 S
C713 C714 1.388 1_545 S
C714 H701 0.930 . S
C714 C713 1.388 1_565 S
C714 C715 1.390 . S
C715 C714 1.390 . S
C715 C716 1.394 . S
C715 C721 1.465 . S
C716 C711 1.399 . S
C716 C715 1.394 . S
C716 C717 1.516 . S
C717 C716 1.516 . S
C717 C718 1.502 . S
C717 C719 1.561 . S
C717 C720 1.526 . S
C718 H702 0.959 . S
C718 H703 0.959 . S
C718 H704 0.961 . S
C718 C717 1.502 . S
C719 H705 0.960 . S
C719 H706 0.961 . S
C719 H707 0.959 . S
C719 C717 1.561 . S
C720 C717 1.526 . S
C720 C721 1.396 . S
C720 C725 1.390 . S
C721 C715 1.465 . S
C721 C720 1.396 . S
C721 C722 1.399 . S
C722 H708 0.929 . S
C722 C721 1.399 . S
C722 C723 1.385 . S
C723 H709 0.931 . S
C723 C722 1.385 . S
C723 C724 1.389 . S
C724 C723 1.389 . S
C724 C725 1.387 . S
C725 H710 0.930 . S
C725 C720 1.390 . S
C725 C724 1.387 . S
C253 C179 1.194 . S
C265 C6 1.195 . S
C280 C219 1.170 . S
C292 C46 1.190 . S
C307 C19 1.196 . S
C319 C86 1.195 . S
C334 C59 1.178 . S
C346 C126 1.193 . S
C361 C99 1.201 . S
C373 C166 1.190 . S
C388 C139 1.201 . S
C400 C206 1.193 . S
C415 C9 0.919 . S
C427 C129 0.777 . S
C442 C169 0.889 . S
C454 C49 0.816 . S
C469 C209 0.723 . S
C481 C89 0.900 . S
C496 C98 0.949 . S
C508 C218 0.956 . S
C523 C18 0.943 . S
C535 C138 0.948 . S
C550 C178 0.943 . S
C562 C58 0.952 . S
C577 C210 1.257 . S
C589 C15 1.208 . S
C604 C55 1.268 1_455 S
C616 C10 1.256 . S
C631 C95 1.257 . S
C643 C50 1.267 . S
C658 C90 1.260 . S
C670 C135 1.272 . S
C685 C175 1.218 1_655 S
C697 C130 1.252 . S
C712 C215 1.270 1_565 S
C724 C170 1.261 . S
