# Generated by pormake.
# Topology fny, (5)-cn, num edge types: 1
# Building blocks:
#     Node 0, Type 0, BuildingBlock: BEQFEK_clean_sbu_0, # of connection points: 5
#     Node 1, Type 0, BuildingBlock: BEQFEK_clean_sbu_0, # of connection points: 5
#     Node 2, Type 0, BuildingBlock: BEQFEK_clean_sbu_0, # of connection points: 5
#     Node 3, Type 0, BuildingBlock: BEQFEK_clean_sbu_0, # of connection points: 5
#     Node 4, Type 0, BuildingBlock: BEQFEK_clean_sbu_0, # of connection points: 5
#     Node 5, Type 0, BuildingBlock: BEQFEK_clean_sbu_0, # of connection points: 5
#     Node 6, Type 0, BuildingBlock: BEQFEK_clean_sbu_0, # of connection points: 5
#     Node 7, Type 0, BuildingBlock: BEQFEK_clean_sbu_0, # of connection points: 5
#     Node 8, Type 0, BuildingBlock: BEQFEK_clean_sbu_0, # of connection points: 5
#     Node 9, Type 0, BuildingBlock: BEQFEK_clean_sbu_0, # of connection points: 5
#     Node 10, Type 0, BuildingBlock: BEQFEK_clean_sbu_0, # of connection points: 5
#     Node 11, Type 0, BuildingBlock: BEQFEK_clean_sbu_0, # of connection points: 5
#     Edge 12, Type (0, 0), BuildingBlock: UVAHIK_clean_linker_0, # of connection points: 2
#     Edge 13, Type (0, 0), BuildingBlock: UVAHIK_clean_linker_0, # of connection points: 2
#     Edge 14, Type (0, 0), BuildingBlock: UVAHIK_clean_linker_0, # of connection points: 2
#     Edge 15, Type (0, 0), BuildingBlock: UVAHIK_clean_linker_0, # of connection points: 2
#     Edge 16, Type (0, 0), BuildingBlock: UVAHIK_clean_linker_0, # of connection points: 2
#     Edge 17, Type (0, 0), BuildingBlock: UVAHIK_clean_linker_0, # of connection points: 2
#     Edge 18, Type (0, 0), BuildingBlock: UVAHIK_clean_linker_0, # of connection points: 2
#     Edge 19, Type (0, 0), BuildingBlock: UVAHIK_clean_linker_0, # of connection points: 2
#     Edge 20, Type (0, 0), BuildingBlock: UVAHIK_clean_linker_0, # of connection points: 2
#     Edge 21, Type (0, 0), BuildingBlock: UVAHIK_clean_linker_0, # of connection points: 2
#     Edge 22, Type (0, 0), BuildingBlock: UVAHIK_clean_linker_0, # of connection points: 2
#     Edge 23, Type (0, 0), BuildingBlock: UVAHIK_clean_linker_0, # of connection points: 2
#     Edge 24, Type (0, 0), BuildingBlock: UVAHIK_clean_linker_0, # of connection points: 2
#     Edge 25, Type (0, 0), BuildingBlock: UVAHIK_clean_linker_0, # of connection points: 2
#     Edge 26, Type (0, 0), BuildingBlock: UVAHIK_clean_linker_0, # of connection points: 2
#     Edge 27, Type (0, 0), BuildingBlock: UVAHIK_clean_linker_0, # of connection points: 2
#     Edge 28, Type (0, 0), BuildingBlock: UVAHIK_clean_linker_0, # of connection points: 2
#     Edge 29, Type (0, 0), BuildingBlock: UVAHIK_clean_linker_0, # of connection points: 2
#     Edge 30, Type (0, 0), BuildingBlock: UVAHIK_clean_linker_0, # of connection points: 2
#     Edge 31, Type (0, 0), BuildingBlock: UVAHIK_clean_linker_0, # of connection points: 2
#     Edge 32, Type (0, 0), BuildingBlock: UVAHIK_clean_linker_0, # of connection points: 2
#     Edge 33, Type (0, 0), BuildingBlock: UVAHIK_clean_linker_0, # of connection points: 2
#     Edge 34, Type (0, 0), BuildingBlock: UVAHIK_clean_linker_0, # of connection points: 2
#     Edge 35, Type (0, 0), BuildingBlock: UVAHIK_clean_linker_0, # of connection points: 2
#     Edge 36, Type (0, 0), BuildingBlock: UVAHIK_clean_linker_0, # of connection points: 2
#     Edge 37, Type (0, 0), BuildingBlock: UVAHIK_clean_linker_0, # of connection points: 2
#     Edge 38, Type (0, 0), BuildingBlock: UVAHIK_clean_linker_0, # of connection points: 2
#     Edge 39, Type (0, 0), BuildingBlock: UVAHIK_clean_linker_0, # of connection points: 2
#     Edge 40, Type (0, 0), BuildingBlock: UVAHIK_clean_linker_0, # of connection points: 2
#     Edge 41, Type (0, 0), BuildingBlock: UVAHIK_clean_linker_0, # of connection points: 2
# Relax obj value: 0.214
# Max RMSD: 0.110
# Mean RMSD: 0.110
data_MOF--net-fny--node1-BEQFEK_clean_sbu_0--edge1-UVAHIK_clean_linker_0
_symmetry_space_group_name_H-M    P1
_symmetry_Int_Tables_number       1
_symmetry_cell_setting            triclinic
loop_
_symmetry_equiv_pos_as_xyz
'x, y, z'
_cell_length_a     79.229308
_cell_length_b     79.359521
_cell_length_c     29.750433
_cell_angle_alpha  90.015253
_cell_angle_beta   89.967328
_cell_angle_gamma 119.98481
loop_
_atom_site_label
_atom_site_type_symbol
_atom_site_fract_x
_atom_site_fract_y
_atom_site_fract_z
_atom_type_partial_charge
Co0 Co 0.38142 0.51172 0.29289 0.0
Co1 Co 0.35207 0.4851 0.22242 0.0
C2 C 0.38332 0.52592 0.19846 0.0
O3 O 0.38955 0.52845 0.23871 0.0
O4 O 0.36848 0.50986 0.18664 0.0
C5 C 0.4011 0.54539 0.34743 0.0
O6 O 0.39797 0.55431 0.31402 0.0
C7 C 0.32 0.47069 0.15897 0.0
C8 C 0.30939 0.43907 0.15853 0.0
C9 C 0.30587 0.45315 0.14078 0.0
N10 N 0.33135 0.4671 0.18601 0.0
N11 N 0.32509 0.44822 0.1854 0.0
C12 C 0.32178 0.4903 0.15453 0.0
H13 H 0.33027 0.49752 0.1238 0.0
H14 H 0.32963 0.49955 0.18389 0.0
H15 H 0.30719 0.48895 0.15168 0.0
C16 C 0.345 0.5025 0.34322 0.0
N17 N 0.35439 0.50094 0.30686 0.0
N18 N 0.34152 0.48947 0.2771 0.0
C19 C 0.32341 0.48331 0.29385 0.0
C20 C 0.32497 0.49136 0.33652 0.0
C21 C 0.35508 0.51546 0.38248 0.0
H22 H 0.36558 0.51162 0.39709 0.0
H23 H 0.36316 0.53072 0.37065 0.0
H24 H 0.34481 0.51454 0.40892 0.0
O25 O 0.38908 0.49162 0.28608 0.0
O26 O 0.36822 0.47262 0.23432 0.0
H27 H 0.30632 0.45716 0.25615 0.0
H28 H 0.29232 0.46331 0.29387 0.0
C29 C 0.30493 0.46929 0.27052 0.0
H30 H 0.30219 0.47687 0.24262 0.0
H31 H 0.33125 0.44155 0.20414 0.0
O32 O 0.39614 0.5276 0.34347 0.0
C33 C 0.38255 0.47687 0.26038 0.0
Co34 Co 0.8704 0.37091 0.75664 0.0
Co35 Co 0.87216 0.33907 0.70192 0.0
C36 C 0.86198 0.36585 0.6562 0.0
O37 O 0.86435 0.37384 0.69431 0.0
O38 O 0.86388 0.35089 0.6518 0.0
C39 C 0.84472 0.38322 0.77958 0.0
O40 O 0.83275 0.36738 0.75737 0.0
C41 C 0.86052 0.30367 0.6512 0.0
C42 C 0.88249 0.29571 0.67165 0.0
C43 C 0.86591 0.28965 0.64587 0.0
N44 N 0.87316 0.31727 0.67943 0.0
N45 N 0.88636 0.31256 0.69134 0.0
C46 C 0.84432 0.30492 0.62841 0.0
H47 H 0.83664 0.30921 0.65309 0.0
H48 H 0.83384 0.29114 0.61167 0.0
H49 H 0.8507 0.31653 0.60252 0.0
C50 C 0.84478 0.33749 0.81593 0.0
N51 N 0.85558 0.34504 0.77843 0.0
N52 N 0.85544 0.33104 0.75464 0.0
C53 C 0.84426 0.31393 0.77637 0.0
C54 C 0.83698 0.31741 0.81606 0.0
C55 C 0.84335 0.34948 0.85298 0.0
H56 H 0.85652 0.36414 0.85362 0.0
H57 H 0.8304 0.35108 0.84723 0.0
H58 H 0.84165 0.34233 0.88605 0.0
O59 O 0.89892 0.38107 0.76129 0.0
O60 O 0.89971 0.35854 0.71863 0.0
H61 H 0.8542 0.29426 0.75847 0.0
H62 H 0.8295 0.28241 0.77987 0.0
C63 C 0.84038 0.29461 0.75908 0.0
H64 H 0.83481 0.2926 0.72424 0.0
H65 H 0.89781 0.32069 0.71348 0.0
O66 O 0.86223 0.38739 0.78657 0.0
C67 C 0.90846 0.37414 0.74178 0.0
Co68 Co 0.51074 0.87132 0.29541 0.0
Co69 Co 0.54222 0.87118 0.23475 0.0
C70 C 0.50423 0.8615 0.19509 0.0
O71 O 0.49967 0.8647 0.23387 0.0
O72 O 0.52067 0.86256 0.18863 0.0
C73 C 0.47473 0.84605 0.3297 0.0
O74 O 0.47636 0.83541 0.29801 0.0
C75 C 0.56671 0.8621 0.17658 0.0
C76 C 0.59581 0.88111 0.20626 0.0
C77 C 0.58622 0.86737 0.17306 0.0
N78 N 0.56492 0.87237 0.2102 0.0
N79 N 0.58237 0.88383 0.22751 0.0
C80 C 0.54979 0.84627 0.15174 0.0
H81 H 0.54739 0.85236 0.1204 0.0
H82 H 0.53638 0.84034 0.17248 0.0
H83 H 0.55266 0.83437 0.14262 0.0
C84 C 0.52021 0.84605 0.35238 0.0
N85 N 0.52237 0.85647 0.31473 0.0
N86 N 0.53473 0.85509 0.28771 0.0
C87 C 0.54042 0.84324 0.30696 0.0
C88 C 0.53127 0.83695 0.34869 0.0
C89 C 0.50944 0.84636 0.39346 0.0
H90 H 0.50839 0.85977 0.39451 0.0
H91 H 0.49462 0.83346 0.39324 0.0
H92 H 0.51691 0.8456 0.4243 0.0
O93 O 0.52952 0.89969 0.29751 0.0
O94 O 0.55089 0.89888 0.2507 0.0
H95 H 0.56916 0.85013 0.2881 0.0
H96 H 0.55321 0.82479 0.30164 0.0
C97 C 0.55404 0.83775 0.28536 0.0
H98 H 0.55046 0.83469 0.2492 0.0
H99 H 0.58502 0.89317 0.25464 0.0
O100 O 0.48809 0.86372 0.33393 0.0
C101 C 0.5453 0.90843 0.27498 0.0
Co102 Co 0.65202 0.50855 0.80125 0.0
Co103 Co 0.68188 0.5389 0.73622 0.0
C104 C 0.65173 0.49994 0.70166 0.0
O105 O 0.64495 0.4956 0.74135 0.0
O106 O 0.66678 0.51639 0.69366 0.0
C107 C 0.63823 0.47196 0.83857 0.0
O108 O 0.64612 0.4699 0.80164 0.0
C109 C 0.71331 0.5571 0.67189 0.0
C110 C 0.72457 0.58851 0.68279 0.0
C111 C 0.7273 0.57542 0.65742 0.0
N112 N 0.70264 0.5592 0.70393 0.0
N113 N 0.7093 0.57798 0.71022 0.0
C114 C 0.71112 0.53788 0.65877 0.0
H115 H 0.70448 0.52728 0.68668 0.0
H116 H 0.72543 0.53944 0.64984 0.0
H117 H 0.70136 0.53215 0.62912 0.0
C118 C 0.68852 0.5184 0.85275 0.0
N119 N 0.67916 0.51995 0.81627 0.0
N120 N 0.6921 0.53237 0.78789 0.0
C121 C 0.71017 0.53885 0.80512 0.0
C122 C 0.70855 0.53023 0.84703 0.0
C123 C 0.67845 0.50541 0.89201 0.0
H124 H 0.66514 0.50598 0.90067 0.0
H125 H 0.6743 0.4903 0.88277 0.0
H126 H 0.68792 0.50934 0.92201 0.0
O127 O 0.64336 0.52825 0.8036 0.0
O128 O 0.66467 0.54936 0.75496 0.0
H129 H 0.72746 0.56719 0.77674 0.0
H130 H 0.74148 0.55806 0.80477 0.0
C131 C 0.72856 0.55402 0.78336 0.0
H132 H 0.73045 0.54847 0.75064 0.0
H133 H 0.70364 0.58359 0.73373 0.0
O134 O 0.63771 0.48757 0.84446 0.0
C135 C 0.65017 0.54406 0.7813 0.0
Co136 Co 0.16697 0.64992 0.2787 0.0
Co137 Co 0.16622 0.68172 0.22091 0.0
C138 C 0.17349 0.65234 0.17729 0.0
O139 O 0.17139 0.64479 0.21595 0.0
O140 O 0.17258 0.66782 0.17241 0.0
C141 C 0.19296 0.6389 0.303 0.0
O142 O 0.20307 0.65322 0.27482 0.0
C143 C 0.17804 0.71528 0.16314 0.0
C144 C 0.1599 0.72738 0.18764 0.0
C145 C 0.17451 0.73058 0.15748 0.0
N146 N 0.16634 0.70375 0.19582 0.0
N147 N 0.15538 0.7109 0.21011 0.0
C148 C 0.19169 0.71102 0.13714 0.0
H149 H 0.18305 0.6972 0.11849 0.0
H150 H 0.20135 0.70895 0.16074 0.0
H151 H 0.20054 0.72254 0.11246 0.0
C152 C 0.19421 0.68434 0.33395 0.0
N153 N 0.183 0.6763 0.29718 0.0
N154 N 0.18382 0.69013 0.2715 0.0
C155 C 0.196 0.70756 0.2908 0.0
C156 C 0.2031 0.70452 0.33127 0.0
C157 C 0.1948 0.67284 0.37321 0.0
H158 H 0.18107 0.65866 0.37535 0.0
H159 H 0.20716 0.67013 0.36898 0.0
H160 H 0.19696 0.68094 0.40508 0.0
O161 O 0.1388 0.6413 0.28562 0.0
O162 O 0.13882 0.6639 0.24149 0.0
H163 H 0.18837 0.72906 0.27384 0.0
H164 H 0.21392 0.73893 0.28674 0.0
C165 C 0.20101 0.72673 0.27043 0.0
H166 H 0.20413 0.72666 0.23419 0.0
H167 H 0.1451 0.70475 0.23582 0.0
O168 O 0.17543 0.63419 0.31193 0.0
C169 C 0.12976 0.64885 0.26635 0.0
Co170 Co 0.52941 0.15664 0.78455 0.0
Co171 Co 0.49681 0.15531 0.72598 0.0
C172 C 0.5352 0.16596 0.68493 0.0
O173 O 0.54052 0.1636 0.7235 0.0
O174 O 0.51825 0.16375 0.67937 0.0
C175 C 0.56736 0.16409 0.80744 0.0
O176 O 0.56648 0.15455 0.77063 0.0
C177 C 0.47628 0.16861 0.66934 0.0
C178 C 0.4453 0.14662 0.68005 0.0
C179 C 0.45748 0.16354 0.65673 0.0
N180 N 0.47528 0.15523 0.69824 0.0
N181 N 0.45676 0.14204 0.70452 0.0
C182 C 0.49492 0.18665 0.65743 0.0
H183 H 0.50073 0.18413 0.62575 0.0
H184 H 0.50594 0.19018 0.68423 0.0
H185 H 0.49249 0.19914 0.65254 0.0
C186 C 0.52087 0.18256 0.84072 0.0
N187 N 0.51794 0.17153 0.80379 0.0
N188 N 0.50429 0.17159 0.77886 0.0
C189 C 0.49805 0.18275 0.79943 0.0
C190 C 0.50834 0.19012 0.83956 0.0
C191 C 0.53599 0.18631 0.87553 0.0
H192 H 0.53325 0.17226 0.8899 0.0
H193 H 0.55053 0.19333 0.85931 0.0
H194 H 0.53626 0.19594 0.90281 0.0
O195 O 0.51067 0.12805 0.78682 0.0
O196 O 0.48798 0.12771 0.74244 0.0
H197 H 0.46905 0.17085 0.77386 0.0
H198 H 0.47702 0.19237 0.80796 0.0
C199 C 0.48164 0.18525 0.78258 0.0
H200 H 0.48635 0.19425 0.75166 0.0
H201 H 0.45196 0.13007 0.72579 0.0
O202 O 0.55249 0.16463 0.82131 0.0
C203 C 0.49443 0.11875 0.76613 0.0
Co204 Co 0.51353 0.65545 0.75637 0.0
Co205 Co 0.54557 0.6877 0.81397 0.0
C206 C 0.50822 0.6593 0.85641 0.0
O207 O 0.50341 0.65136 0.81807 0.0
O208 O 0.52458 0.67479 0.86173 0.0
C209 C 0.47576 0.64204 0.73096 0.0
O210 O 0.47885 0.65751 0.7537 0.0
C211 C 0.5702 0.71697 0.88046 0.0
C212 C 0.59511 0.73773 0.83898 0.0
C213 C 0.58728 0.7349 0.88184 0.0
N214 N 0.56769 0.71002 0.83839 0.0
N215 N 0.58291 0.7222 0.81408 0.0
C216 C 0.55736 0.70563 0.91901 0.0
H217 H 0.55296 0.69006 0.91539 0.0
H218 H 0.54402 0.70686 0.91878 0.0
H219 H 0.56498 0.71088 0.95166 0.0
C220 C 0.52055 0.68889 0.69838 0.0
N221 N 0.52392 0.6814 0.73578 0.0
N222 N 0.53666 0.69558 0.76128 0.0
C223 C 0.54127 0.71273 0.74123 0.0
C224 C 0.5313 0.7091 0.70039 0.0
C225 C 0.5084 0.67685 0.65976 0.0
H226 H 0.50798 0.66267 0.65887 0.0
H227 H 0.49333 0.67413 0.66375 0.0
H228 H 0.51427 0.68457 0.62743 0.0
O229 O 0.53274 0.64652 0.75275 0.0
O230 O 0.55499 0.6691 0.79741 0.0
H231 H 0.56912 0.73817 0.74997 0.0
H232 H 0.54903 0.74261 0.75137 0.0
C233 C 0.55392 0.73231 0.76182 0.0
H234 H 0.55356 0.73122 0.799 0.0
H235 H 0.58468 0.72018 0.78014 0.0
O236 O 0.48956 0.63852 0.72444 0.0
C237 C 0.54897 0.65378 0.77347 0.0
Co238 Co 0.8833 0.51316 0.21788 0.0
Co239 Co 0.88046 0.53983 0.28808 0.0
C240 C 0.87153 0.49962 0.31361 0.0
O241 O 0.87527 0.49708 0.27338 0.0
O242 O 0.87242 0.51555 0.32514 0.0
C243 C 0.86598 0.47941 0.16487 0.0
O244 O 0.85287 0.47276 0.19706 0.0
C245 C 0.86591 0.55593 0.35604 0.0
C246 C 0.88467 0.58757 0.34477 0.0
C247 C 0.86951 0.574 0.37097 0.0
N248 N 0.87849 0.55873 0.32284 0.0
N249 N 0.88976 0.57765 0.31642 0.0
C250 C 0.8497 0.5363 0.36976 0.0
H251 H 0.85454 0.53102 0.39883 0.0
H252 H 0.84592 0.52577 0.34178 0.0
H253 H 0.83659 0.53704 0.37976 0.0
C254 C 0.85599 0.52228 0.16759 0.0
N255 N 0.86699 0.52385 0.20382 0.0
N256 N 0.86507 0.53478 0.2342 0.0
C257 C 0.85245 0.54025 0.2184 0.0
C258 C 0.84609 0.53234 0.17555 0.0
C259 C 0.85602 0.51262 0.12443 0.0
H260 H 0.87075 0.51486 0.11774 0.0
H261 H 0.84545 0.49683 0.12695 0.0
H262 H 0.85168 0.51857 0.09574 0.0
O263 O 0.9111 0.53328 0.22272 0.0
O264 O 0.90905 0.55205 0.27482 0.0
H265 H 0.85871 0.56701 0.24951 0.0
H266 H 0.83423 0.55323 0.22724 0.0
C267 C 0.84607 0.55219 0.24455 0.0
H268 H 0.84088 0.54559 0.27815 0.0
H269 H 0.9007 0.58376 0.29212 0.0
O270 O 0.881 0.49609 0.16892 0.0
C271 C 0.91923 0.54802 0.24847 0.0
Co272 Co 0.38725 0.87018 0.73159 0.0
Co273 Co 0.35531 0.87135 0.78838 0.0
C274 C 0.38267 0.8606 0.83113 0.0
O275 O 0.3907 0.86312 0.79292 0.0
O276 O 0.36785 0.86275 0.83605 0.0
C277 C 0.41807 0.86276 0.71022 0.0
O278 O 0.42618 0.87159 0.74806 0.0
C279 C 0.31864 0.85726 0.83615 0.0
C280 C 0.31374 0.88233 0.83239 0.0
C281 C 0.30567 0.86342 0.84784 0.0
N282 N 0.33358 0.87174 0.81401 0.0
N283 N 0.33062 0.88671 0.81184 0.0
C284 C 0.31763 0.83848 0.84845 0.0
H285 H 0.31755 0.83717 0.88561 0.0
H286 H 0.3302 0.83775 0.83426 0.0
H287 H 0.30398 0.82597 0.8357 0.0
C288 C 0.35332 0.844 0.67428 0.0
N289 N 0.36104 0.85517 0.71122 0.0
N290 N 0.34708 0.85527 0.7349 0.0
C291 C 0.32993 0.84424 0.71311 0.0
C292 C 0.33327 0.83661 0.67397 0.0
C293 C 0.36502 0.83994 0.64098 0.0
H294 H 0.37249 0.83321 0.65864 0.0
H295 H 0.35586 0.82993 0.61395 0.0
H296 H 0.37637 0.85384 0.62605 0.0
O297 O 0.39706 0.89876 0.7292 0.0
O298 O 0.37436 0.89893 0.7726 0.0
H299 H 0.31313 0.8564 0.7395 0.0
H300 H 0.30038 0.83727 0.69882 0.0
C301 C 0.31089 0.84226 0.72714 0.0
H302 H 0.30457 0.83144 0.75462 0.0
H303 H 0.34009 0.8999 0.79629 0.0
O304 O 0.40286 0.86248 0.69574 0.0
C305 C 0.38995 0.90798 0.7495 0.0
Co306 Co 0.52939 0.37591 0.23643 0.0
Co307 Co 0.49666 0.34472 0.29501 0.0
C308 C 0.53348 0.37425 0.33809 0.0
O309 O 0.539 0.38144 0.29913 0.0
O310 O 0.51697 0.35891 0.3434 0.0
C311 C 0.56635 0.38646 0.21145 0.0
O312 O 0.5622 0.37223 0.23984 0.0
C313 C 0.47348 0.31374 0.35853 0.0
C314 C 0.44379 0.30089 0.33011 0.0
C315 C 0.45428 0.29949 0.3657 0.0
N316 N 0.47431 0.32338 0.32089 0.0
N317 N 0.45653 0.31571 0.30406 0.0
C318 C 0.49107 0.3171 0.38453 0.0
H319 H 0.50381 0.32228 0.36176 0.0
H320 H 0.48854 0.30359 0.4016 0.0
H321 H 0.49444 0.32845 0.41033 0.0
C322 C 0.52172 0.34098 0.18268 0.0
N323 N 0.51875 0.34934 0.21911 0.0
N324 N 0.50564 0.33575 0.24517 0.0
C325 C 0.50013 0.31816 0.22646 0.0
C326 C 0.51021 0.32082 0.18601 0.0
C327 C 0.53372 0.35215 0.14296 0.0
H328 H 0.53436 0.3664 0.14044 0.0
H329 H 0.54873 0.35469 0.1469 0.0
H330 H 0.52755 0.34389 0.11138 0.0
O331 O 0.51011 0.3848 0.22835 0.0
O332 O 0.48747 0.3626 0.27305 0.0
H333 H 0.47067 0.29637 0.23949 0.0
H334 H 0.48721 0.28703 0.23387 0.0
C335 C 0.48557 0.29921 0.24714 0.0
H336 H 0.48739 0.29995 0.28416 0.0
H337 H 0.45313 0.32051 0.2746 0.0
O338 O 0.55355 0.39122 0.20279 0.0
C339 C 0.49351 0.37745 0.24757 0.0
Co340 Co 0.15697 0.5191 0.71176 0.0
Co341 Co 0.1565 0.48868 0.77653 0.0
C342 C 0.16555 0.52753 0.81154 0.0
O343 O 0.16302 0.5319 0.77194 0.0
O344 O 0.16412 0.51107 0.81941 0.0
C345 C 0.18128 0.55486 0.67405 0.0
O346 O 0.19142 0.55568 0.70974 0.0
C347 C 0.16662 0.46865 0.84382 0.0
C348 C 0.14886 0.43784 0.82323 0.0
C349 C 0.16212 0.44993 0.8551 0.0
N350 N 0.15627 0.46769 0.80735 0.0
N351 N 0.14559 0.44926 0.79526 0.0
C352 C 0.18186 0.48732 0.86444 0.0
H353 H 0.18829 0.49892 0.83854 0.0
H354 H 0.19361 0.48559 0.88011 0.0
H355 H 0.17501 0.49186 0.89074 0.0
C356 C 0.18344 0.50919 0.65997 0.0
N357 N 0.17247 0.50753 0.69639 0.0
N358 N 0.17328 0.49535 0.72498 0.0
C359 C 0.18522 0.48925 0.70806 0.0
C360 C 0.19222 0.49793 0.66614 0.0
C361 C 0.18395 0.51967 0.61771 0.0
H362 H 0.1702 0.51995 0.61355 0.0
H363 H 0.19638 0.53476 0.61929 0.0
H364 H 0.18607 0.5125 0.58791 0.0
O365 O 0.12856 0.49975 0.70931 0.0
O366 O 0.12885 0.47876 0.75804 0.0
H367 H 0.17748 0.46061 0.72942 0.0
H368 H 0.20312 0.47601 0.71734 0.0
C369 C 0.19005 0.47562 0.73197 0.0
H370 H 0.19269 0.47955 0.76805 0.0
H371 H 0.13629 0.44451 0.76754 0.0
O372 O 0.16424 0.54033 0.66912 0.0
C373 C 0.11957 0.48405 0.73199 0.0
Co374 Co 0.65352 0.15566 0.22071 0.0
Co375 Co 0.68488 0.15603 0.28225 0.0
C376 C 0.65617 0.16567 0.32051 0.0
O377 O 0.64854 0.16253 0.2816 0.0
O378 O 0.67146 0.1645 0.32729 0.0
C379 C 0.64173 0.17981 0.18337 0.0
O380 O 0.65281 0.1909 0.21619 0.0
C381 C 0.71726 0.16522 0.34388 0.0
C382 C 0.72816 0.14641 0.31707 0.0
C383 C 0.73127 0.15983 0.35041 0.0
N384 N 0.70627 0.15527 0.30857 0.0
N385 N 0.71279 0.14401 0.29278 0.0
C386 C 0.71526 0.1807 0.36793 0.0
H387 H 0.70905 0.18725 0.34507 0.0
H388 H 0.72957 0.19225 0.38071 0.0
H389 H 0.70518 0.17408 0.39678 0.0
C390 C 0.68858 0.18113 0.1644 0.0
N391 N 0.68012 0.17067 0.20193 0.0
N392 N 0.69374 0.17208 0.22933 0.0
C393 C 0.71139 0.184 0.21056 0.0
C394 C 0.70875 0.1903 0.16863 0.0
C395 C 0.67768 0.18079 0.12299 0.0
H396 H 0.66344 0.16714 0.12119 0.0
H397 H 0.67529 0.1934 0.12355 0.0
H398 H 0.68624 0.18203 0.09237 0.0
O399 O 0.64413 0.12733 0.21944 0.0
O400 O 0.66622 0.12821 0.26649 0.0
H401 H 0.73345 0.17743 0.22945 0.0
H402 H 0.74252 0.20287 0.2176 0.0
C403 C 0.73038 0.18957 0.23289 0.0
H404 H 0.72946 0.19212 0.2692 0.0
H405 H 0.70685 0.13482 0.2651 0.0
O406 O 0.63848 0.16245 0.18037 0.0
C407 C 0.65114 0.11863 0.24209 0.0
C408 C 0.41151 0.55878 0.17816 0.0
C409 C 0.39458 0.54161 0.16483 0.0
C410 C 0.42318 0.57298 0.14668 0.0
C411 C 0.42365 0.59089 0.03111 0.0
H412 H 0.47966 0.61354 0.04134 0.0
C413 C 0.50056 0.65348 0.93984 0.0
C414 C 0.49467 0.6492 0.8947 0.0
C415 C 0.48807 0.64206 0.9748 0.0
C416 C 0.46409 0.60768 0.03831 0.0
H417 H 0.37651 0.52634 0.10747 0.0
H418 H 0.39688 0.5512 0.05242 0.0
H419 H 0.45832 0.59015 0.09734 0.0
H420 H 0.47061 0.62991 0.85139 0.0
H421 H 0.44931 0.6102 0.91139 0.0
H422 H 0.42937 0.60837 0.97211 0.0
C423 C 0.40107 0.55366 0.08749 0.0
C424 C 0.4518 0.59416 0.07045 0.0
C425 C 0.38938 0.53934 0.11907 0.0
C426 C 0.47577 0.63371 0.88565 0.0
C427 C 0.46339 0.6224 0.92032 0.0
C428 C 0.43594 0.60449 0.99911 0.0
C429 C 0.41829 0.57056 0.10081 0.0
C430 C 0.43138 0.58541 0.0671 0.0
C431 C 0.46937 0.62616 0.96545 0.0
C432 C 0.45636 0.61293 1.00185 0.0
H433 H 0.41602 0.56119 0.21305 0.0
H434 H 0.43611 0.58591 0.1584 0.0
H435 H 0.40805 0.58475 0.0278 0.0
H436 H 0.51499 0.66526 0.9481 0.0
H437 H 0.49314 0.6456 0.00915 0.0
C438 C 0.85266 0.38941 0.62579 0.0
C439 C 0.85842 0.37555 0.61728 0.0
C440 C 0.85222 0.40119 0.59149 0.0
C441 C 0.85165 0.40761 0.46847 0.0
H442 H 0.87517 0.46219 0.5001 0.0
C443 C 0.86848 0.46754 0.33518 0.0
C444 C 0.86738 0.48411 0.34753 0.0
C445 C 0.86609 0.45354 0.3671 0.0
C446 C 0.86823 0.44699 0.49069 0.0
H447 H 0.86724 0.36258 0.56491 0.0
H448 H 0.8663 0.38322 0.50431 0.0
H449 H 0.8732 0.43889 0.55584 0.0
H450 H 0.86227 0.49847 0.4035 0.0
H451 H 0.85762 0.47383 0.45904 0.0
H452 H 0.84649 0.41571 0.40336 0.0
C453 C 0.86219 0.38491 0.538 0.0
C454 C 0.86718 0.43358 0.52276 0.0
C455 C 0.86268 0.37304 0.57267 0.0
C456 C 0.86331 0.48599 0.39269 0.0
C457 C 0.8608 0.47188 0.42467 0.0
C458 C 0.85256 0.42105 0.43637 0.0
C459 C 0.85749 0.39954 0.54734 0.0
C460 C 0.85883 0.41369 0.51222 0.0
C461 C 0.86241 0.45553 0.41249 0.0
C462 C 0.86088 0.44098 0.44697 0.0
H463 H 0.849 0.39164 0.65954 0.0
H464 H 0.84805 0.4119 0.59981 0.0
H465 H 0.84496 0.39241 0.45928 0.0
H466 H 0.87165 0.46553 0.30083 0.0
H467 H 0.86774 0.44141 0.35622 0.0
C468 C 0.47267 0.8574 0.16579 0.0
C469 C 0.49038 0.85782 0.15726 0.0
C470 C 0.46013 0.85566 0.13078 0.0
C471 C 0.45942 0.86276 1.00723 0.0
H472 H 0.40346 0.83648 0.02541 0.0
C473 C 0.40701 0.85221 0.86188 0.0
C474 C 0.39206 0.85655 0.87001 0.0
C475 C 0.41787 0.8508 0.89715 0.0
C476 C 0.41906 0.84402 0.01991 0.0
H477 H 0.50833 0.85608 0.10457 0.0
H478 H 0.48617 0.85255 0.04327 0.0
H479 H 0.4245 0.83615 0.08491 0.0
H480 H 0.37633 0.86189 0.92248 0.0
H481 H 0.3953 0.8592 0.98456 0.0
H482 H 0.45392 0.87046 0.94208 0.0
C483 C 0.48221 0.85401 0.07728 0.0
C484 C 0.4312 0.84386 0.05409 0.0
C485 C 0.49488 0.85586 0.1125 0.0
C486 C 0.38769 0.85851 0.9149 0.0
C487 C 0.39859 0.85699 0.95047 0.0
C488 C 0.44728 0.86278 0.97298 0.0
C489 C 0.46472 0.85412 0.08586 0.0
C490 C 0.45161 0.85335 0.04843 0.0
C491 C 0.41414 0.85356 0.94189 0.0
C492 C 0.42693 0.85346 0.97884 0.0
H493 H 0.46861 0.8589 0.1997 0.0
H494 H 0.44707 0.85614 0.13905 0.0
H495 H 0.47501 0.87058 1.00166 0.0
H496 H 0.41069 0.85029 0.82792 0.0
H497 H 0.42939 0.84769 0.88924 0.0
C498 C 0.54012 0.38003 0.42195 0.0
C499 C 0.54633 0.38492 0.37709 0.0
C500 C 0.55196 0.3915 0.45771 0.0
C501 C 0.5927 0.44162 0.48126 0.0
H502 H 0.59781 0.41961 0.59313 0.0
C503 C 0.64718 0.49024 0.61942 0.0
C504 C 0.64109 0.48589 0.66446 0.0
C505 C 0.63624 0.47738 0.58465 0.0
C506 C 0.59642 0.42607 0.56232 0.0
H507 H 0.57036 0.40539 0.33524 0.0
H508 H 0.59073 0.42498 0.39685 0.0
H509 H 0.57719 0.39809 0.53331 0.0
H510 H 0.61873 0.46423 0.70788 0.0
H511 H 0.59972 0.44221 0.64776 0.0
H512 H 0.61166 0.46955 0.51016 0.0
C513 C 0.57661 0.41259 0.40465 0.0
C514 C 0.58455 0.41367 0.52793 0.0
C515 C 0.56489 0.40118 0.36917 0.0
C516 C 0.62399 0.46816 0.67372 0.0
C517 C 0.61307 0.45537 0.63906 0.0
C518 C 0.60449 0.454 0.51562 0.0
C519 C 0.57024 0.40817 0.44944 0.0
C520 C 0.58256 0.42125 0.48679 0.0
C521 C 0.61888 0.45982 0.59388 0.0
C522 C 0.60659 0.44646 0.55674 0.0
H523 H 0.52594 0.36766 0.42942 0.0
H524 H 0.54652 0.38765 0.49174 0.0
H525 H 0.59129 0.44808 0.45045 0.0
H526 H 0.66028 0.50369 0.6109 0.0
H527 H 0.64143 0.48125 0.55045 0.0
C528 C 0.17811 0.62561 0.14557 0.0
C529 C 0.17582 0.64188 0.13804 0.0
C530 C 0.17844 0.61434 0.10982 0.0
C531 C 0.18523 0.61357 0.98644 0.0
H532 H 0.15622 0.55765 1.00346 0.0
C533 C 0.16977 0.55932 0.83986 0.0
C534 C 0.16909 0.54156 0.84885 0.0
C535 C 0.17174 0.57207 0.87469 0.0
C536 C 0.16467 0.57321 0.99821 0.0
H537 H 0.17273 0.65932 0.08616 0.0
H538 H 0.17333 0.63955 0.02337 0.0
H539 H 0.15747 0.57901 0.0636 0.0
H540 H 0.17051 0.52367 0.90208 0.0
H541 H 0.1743 0.54605 0.96281 0.0
H542 H 0.19246 0.60775 0.92099 0.0
C543 C 0.17492 0.63559 0.0573 0.0
C544 C 0.16535 0.58553 0.03282 0.0
C545 C 0.17455 0.64694 0.09331 0.0
C546 C 0.1709 0.53715 0.89377 0.0
C547 C 0.17292 0.54996 0.92871 0.0
C548 C 0.18461 0.60124 0.95179 0.0
C549 C 0.1765 0.6189 0.06517 0.0
C550 C 0.17566 0.6059 0.02755 0.0
C551 C 0.17316 0.56754 0.91976 0.0
C552 C 0.17431 0.58084 0.95712 0.0
H553 H 0.17935 0.62129 0.17939 0.0
H554 H 0.18015 0.60191 0.11731 0.0
H555 H 0.1935 0.62916 0.98127 0.0
H556 H 0.16839 0.56329 0.80579 0.0
H557 H 0.17158 0.58526 0.86623 0.0
C558 C 0.62874 0.16986 0.34983 0.0
C559 C 0.64597 0.16933 0.3583 0.0
C560 C 0.61791 0.17153 0.38495 0.0
C561 C 0.6098 0.16375 0.50825 0.0
H562 H 0.58072 0.19069 0.49166 0.0
C563 C 0.56783 0.17362 0.65464 0.0
C564 C 0.54875 0.16988 0.64633 0.0
C565 C 0.58017 0.17509 0.61938 0.0
C566 C 0.58861 0.18296 0.49672 0.0
H567 H 0.66554 0.17081 0.41097 0.0
H568 H 0.64687 0.17417 0.4724 0.0
H569 H 0.60204 0.19112 0.43183 0.0
H570 H 0.52811 0.16561 0.59362 0.0
H571 H 0.54982 0.16832 0.53167 0.0
H572 H 0.59645 0.15569 0.57322 0.0
C573 C 0.64151 0.17287 0.43838 0.0
C574 C 0.60088 0.18318 0.46234 0.0
C575 C 0.65235 0.17111 0.40308 0.0
C576 C 0.54268 0.1685 0.60136 0.0
C577 C 0.55514 0.17007 0.56584 0.0
C578 C 0.59766 0.16364 0.54267 0.0
C579 C 0.62396 0.17285 0.42988 0.0
C580 C 0.6116 0.17349 0.46745 0.0
C581 C 0.57392 0.17297 0.5745 0.0
C582 C 0.58684 0.1732 0.53741 0.0
H583 H 0.62325 0.1685 0.3159 0.0
H584 H 0.60442 0.17115 0.37678 0.0
H585 H 0.61742 0.15576 0.51335 0.0
H586 H 0.57322 0.17505 0.68867 0.0
H587 H 0.59464 0.17778 0.6274 0.0
C588 C 0.59243 0.41382 0.1685 0.0
C589 C 0.58447 0.39493 0.18552 0.0
C590 C 0.60788 0.42088 0.13831 0.0
C591 C 0.61975 0.40242 0.04483 0.0
H592 H 0.65751 0.45719 0.03074 0.0
C593 C 0.63943 0.444 0.87415 0.0
C594 C 0.63522 0.45923 0.87734 0.0
C595 C 0.64015 0.43438 0.91284 0.0
C596 C 0.6474 0.44173 0.03426 0.0
H597 H 0.587 0.36894 0.18711 0.0
H598 H 0.61361 0.38108 0.13219 0.0
H599 H 0.64834 0.44334 0.10603 0.0
H600 H 0.62745 0.47558 0.92312 0.0
H601 H 0.62861 0.45879 0.99014 0.0
H602 H 0.61725 0.40135 0.9731 0.0
C603 C 0.60818 0.39052 0.14314 0.0
C604 C 0.64225 0.43382 0.07721 0.0
C605 C 0.59297 0.38361 0.17428 0.0
C606 C 0.63084 0.46401 0.91949 0.0
C607 C 0.63181 0.45462 0.95794 0.0
C608 C 0.62491 0.41036 1.00179 0.0
C609 C 0.61534 0.409 0.12395 0.0
C610 C 0.62719 0.41454 0.08271 0.0
C611 C 0.63693 0.44009 0.95507 0.0
C612 C 0.63756 0.43039 0.99662 0.0
H613 H 0.58618 0.42282 0.17707 0.0
H614 H 0.61289 0.43507 0.12344 0.0
H615 H 0.6081 0.38748 0.04824 0.0
H616 H 0.64285 0.43998 0.84205 0.0
H617 H 0.64371 0.4229 0.90996 0.0
C618 C 0.19156 0.61151 0.3461 0.0
C619 C 0.2026 0.63023 0.32824 0.0
C620 C 0.20012 0.6043 0.37534 0.0
C621 C 0.23233 0.6227 0.46577 0.0
H622 H 0.21368 0.56765 0.48081 0.0
C623 C 0.21121 0.58143 0.63727 0.0
C624 C 0.19126 0.56739 0.63514 0.0
C625 C 0.22146 0.59065 0.59815 0.0
C626 C 0.21955 0.58318 0.47696 0.0
H627 H 0.23144 0.65574 0.32421 0.0
H628 H 0.24625 0.64335 0.37738 0.0
H629 H 0.21759 0.58111 0.4053 0.0
H630 H 0.16623 0.55278 0.59087 0.0
H631 H 0.18406 0.56884 0.5231 0.0
H632 H 0.23217 0.62428 0.53761 0.0
C633 C 0.23114 0.63415 0.36785 0.0
C634 C 0.22184 0.59086 0.43387 0.0
C635 C 0.22264 0.64121 0.33771 0.0
C636 C 0.18158 0.56343 0.59369 0.0
C637 C 0.19184 0.57239 0.55479 0.0
C638 C 0.23005 0.61499 0.50894 0.0
C639 C 0.21978 0.61586 0.38786 0.0
C640 C 0.22658 0.61029 0.42823 0.0
C641 C 0.21192 0.58568 0.55656 0.0
C642 C 0.22209 0.59491 0.51455 0.0
H643 H 0.17613 0.60275 0.3389 0.0
H644 H 0.19092 0.59026 0.39089 0.0
H645 H 0.23606 0.63776 0.46225 0.0
H646 H 0.21905 0.58479 0.66883 0.0
H647 H 0.23687 0.60121 0.60015 0.0
C648 C 0.62763 0.17683 0.10747 0.0
C649 C 0.63814 0.1887 0.14383 0.0
C650 C 0.62812 0.18507 0.06601 0.0
C651 C 0.62669 0.21857 1.00245 0.0
H652 H 0.65169 0.203 0.9124 0.0
C653 C 0.59125 0.19665 0.83574 0.0
C654 C 0.58613 0.17723 0.82821 0.0
C655 C 0.60709 0.20852 0.86294 0.0
C656 C 0.64497 0.2079 0.93693 0.0
H657 H 0.65613 0.21859 0.16632 0.0
H658 H 0.65644 0.23302 0.09305 0.0
H659 H 0.66086 0.20476 0.99134 0.0
H660 H 0.59442 0.15538 0.83826 0.0
H661 H 0.62154 0.17564 0.88803 0.0
H662 H 0.60897 0.21929 0.94975 0.0
C663 C 0.64828 0.21736 0.09706 0.0
C664 C 0.65036 0.20909 0.98192 0.0
C665 C 0.64789 0.20908 0.13883 0.0
C666 C 0.5981 0.17031 0.84426 0.0
C667 C 0.61377 0.18206 0.87228 0.0
C668 C 0.62119 0.21727 0.95756 0.0
C669 C 0.63895 0.20528 0.06027 0.0
C670 C 0.64019 0.21302 0.01504 0.0
C671 C 0.61771 0.20093 0.88394 0.0
C672 C 0.62915 0.21031 0.925 0.0
H673 H 0.6199 0.16112 0.11031 0.0
H674 H 0.62051 0.17561 0.03787 0.0
H675 H 0.61864 0.22151 0.02776 0.0
H676 H 0.58241 0.20237 0.82232 0.0
H677 H 0.61004 0.22311 0.87039 0.0
C678 C 0.44771 0.60933 0.71843 0.0
C679 C 0.45684 0.62937 0.71075 0.0
C680 C 0.43255 0.59661 0.69067 0.0
C681 C 0.40581 0.59385 0.58504 0.0
H682 H 0.42897 0.56311 0.54738 0.0
C683 C 0.40739 0.57225 0.40088 0.0
C684 C 0.40532 0.55388 0.39278 0.0
C685 C 0.40869 0.5789 0.4449 0.0
C686 C 0.42191 0.57117 0.55767 0.0
H687 H 0.45622 0.6523 0.67283 0.0
H688 H 0.43067 0.63007 0.62182 0.0
H689 H 0.43623 0.57768 0.62072 0.0
H690 H 0.40319 0.52817 0.42431 0.0
H691 H 0.40493 0.5395 0.50039 0.0
H692 H 0.3922 0.58782 0.52025 0.0
C693 C 0.43458 0.62403 0.6499 0.0
C694 C 0.42597 0.57947 0.60009 0.0
C695 C 0.44935 0.63677 0.67868 0.0
C696 C 0.40492 0.54247 0.4293 0.0
C697 C 0.40588 0.54894 0.47303 0.0
C698 C 0.40163 0.58538 0.54234 0.0
C699 C 0.42711 0.60385 0.65368 0.0
C700 C 0.41849 0.5914 0.61379 0.0
C701 C 0.40779 0.56721 0.48135 0.0
C702 C 0.41013 0.57443 0.52791 0.0
H703 H 0.45318 0.60349 0.74384 0.0
H704 H 0.42662 0.5811 0.69508 0.0
H705 H 0.39982 0.60295 0.59484 0.0
H706 H 0.40765 0.58131 0.37337 0.0
H707 H 0.41057 0.59323 0.45034 0.0
C708 C 0.84409 0.45254 0.11277 0.0
C709 C 0.86127 0.4703 0.12018 0.0
C710 C 0.83869 0.44533 0.06913 0.0
C711 C 0.86039 0.4504 0.95732 0.0
H712 H 0.80664 0.42114 0.91749 0.0
C713 C 0.84842 0.41544 0.79335 0.0
C714 C 0.83773 0.3953 0.79974 0.0
C715 C 0.84566 0.42765 0.82215 0.0
C716 C 0.8217 0.42956 0.92809 0.0
H717 H 0.88624 0.49448 0.08779 0.0
H718 H 0.87653 0.48239 0.01242 0.0
H719 H 0.81415 0.43618 0.99232 0.0
H720 H 0.81411 0.3717 0.83618 0.0
H721 H 0.81018 0.39308 0.88891 0.0
H722 H 0.86811 0.44352 0.89453 0.0
C723 C 0.86743 0.47368 0.04002 0.0
C724 C 0.82599 0.43794 0.97093 0.0
C725 C 0.87301 0.48062 0.0834 0.0
C726 C 0.8226 0.3873 0.8313 0.0
C727 C 0.82022 0.39954 0.86108 0.0
C728 C 0.85617 0.44232 0.91473 0.0
C729 C 0.8503 0.45592 0.03234 0.0
C730 C 0.84539 0.44813 0.98616 0.0
C731 C 0.83285 0.41977 0.85879 0.0
C732 C 0.83679 0.4315 0.89991 0.0
H733 H 0.83472 0.44434 0.14054 0.0
H734 H 0.82558 0.43141 0.06428 0.0
H735 H 0.87544 0.45769 0.96828 0.0
H736 H 0.85993 0.42175 0.76843 0.0
H737 H 0.85523 0.44323 0.81912 0.0
C738 C 0.45826 0.84797 0.39881 0.0
C739 C 0.4611 0.83655 0.36712 0.0
C740 C 0.44947 0.83998 0.43979 0.0
C741 C 0.41941 0.80953 0.51092 0.0
H742 H 0.46158 0.82385 0.596 0.0
C743 C 0.40954 0.83022 0.68245 0.0
C744 C 0.42375 0.84977 0.68893 0.0
C745 C 0.41307 0.81858 0.65343 0.0
C746 C 0.44951 0.81924 0.57285 0.0
H747 H 0.45574 0.80749 0.35187 0.0
H748 H 0.44061 0.79365 0.42467 0.0
H749 H 0.46698 0.82111 0.51602 0.0
H750 H 0.4534 0.87209 0.6751 0.0
H751 H 0.45949 0.85207 0.62256 0.0
H752 H 0.40249 0.80969 0.56621 0.0
C753 C 0.44512 0.80868 0.41722 0.0
C754 C 0.45255 0.81752 0.52729 0.0
C755 C 0.45363 0.8166 0.37569 0.0
C756 C 0.44226 0.85704 0.67008 0.0
C757 C 0.44574 0.84546 0.64042 0.0
C758 C 0.41631 0.81111 0.5564 0.0
C759 C 0.44356 0.82054 0.44974 0.0
C760 C 0.43789 0.81392 0.496 0.0
C761 C 0.43073 0.82651 0.62976 0.0
C762 C 0.43179 0.81741 0.58726 0.0
H763 H 0.46381 0.86334 0.39299 0.0
H764 H 0.44831 0.84928 0.46483 0.0
H765 H 0.40805 0.80695 0.487 0.0
H766 H 0.39527 0.8243 0.69777 0.0
H767 H 0.4014 0.80393 0.64651 0.0
C768 C 0.1786 0.43204 0.88143 0.0
C769 C 0.17094 0.4442 0.891 0.0
C770 C 0.19 0.42939 0.91333 0.0
C771 C 0.22253 0.45705 1.0049 0.0
H772 H 0.2274 0.41119 0.02171 0.0
C773 C 0.27097 0.43305 0.11876 0.0
C774 C 0.28935 0.44955 0.11178 0.0
C775 C 0.25495 0.43026 0.09337 0.0
C776 C 0.22607 0.42404 0.01758 0.0
H777 H 0.16704 0.46126 0.94241 0.0
H778 H 0.18669 0.45644 0.99851 0.0
H779 H 0.20013 0.40884 0.97787 0.0
H780 H 0.30585 0.47509 0.07022 0.0
H781 H 0.27791 0.47038 0.02625 0.0
H782 H 0.24841 0.47229 0.04419 0.0
C783 C 0.18451 0.44948 0.96602 0.0
C784 C 0.21057 0.42273 0.99236 0.0
C785 C 0.17328 0.45224 0.93405 0.0
C786 C 0.29169 0.46268 0.07753 0.0
C787 C 0.27573 0.45992 0.05223 0.0
C788 C 0.23798 0.45836 0.02987 0.0
C789 C 0.19367 0.43873 0.95531 0.0
C790 C 0.20879 0.43929 0.98543 0.0
C791 C 0.25714 0.44391 0.06053 0.0
C792 C 0.24008 0.44197 0.03587 0.0
H793 H 0.17685 0.42563 0.84838 0.0
H794 H 0.19692 0.42108 0.90405 0.0
H795 H 0.22176 0.47015 0.99961 0.0
H796 H 0.26884 0.42264 0.14484 0.0
H797 H 0.24077 0.4178 0.10043 0.0
C798 C 0.83557 0.25864 0.62991 0.0
C799 C 0.85541 0.27118 0.62143 0.0
C800 C 0.82506 0.24188 0.60428 0.0
C801 C 0.82493 0.22479 0.49149 0.0
H802 H 0.77989 0.17804 0.53634 0.0
C803 C 0.76569 0.17096 0.37172 0.0
C804 C 0.74702 0.16723 0.384 0.0
C805 C 0.78102 0.17929 0.40253 0.0
C806 C 0.7925 0.19095 0.52335 0.0
H807 H 0.88038 0.27553 0.58261 0.0
H808 H 0.86189 0.24606 0.53704 0.0
H809 H 0.80412 0.20087 0.58917 0.0
H810 H 0.72921 0.16749 0.43898 0.0
H811 H 0.75598 0.18246 0.49249 0.0
H812 H 0.81284 0.21544 0.42593 0.0
C813 C 0.85442 0.24935 0.56311 0.0
C814 C 0.80635 0.20398 0.55352 0.0
C815 C 0.86497 0.26612 0.58905 0.0
C816 C 0.74362 0.17082 0.42828 0.0
C817 C 0.75888 0.17904 0.45912 0.0
C818 C 0.8111 0.21175 0.46133 0.0
C819 C 0.83425 0.23731 0.56981 0.0
C820 C 0.82225 0.22144 0.538 0.0
C821 C 0.77782 0.18376 0.44629 0.0
C822 C 0.79434 0.19512 0.47714 0.0
H823 H 0.82808 0.26209 0.65563 0.0
H824 H 0.80953 0.23304 0.61003 0.0
H825 H 0.83693 0.23819 0.47851 0.0
H826 H 0.7686 0.16809 0.33783 0.0
H827 H 0.79544 0.18263 0.39188 0.0
C828 C 0.60831 0.85384 0.16197 0.0
C829 C 0.59502 0.85884 0.14394 0.0
C830 C 0.61521 0.84397 0.13573 0.0
C831 C 0.61923 0.82975 0.01981 0.0
H832 H 0.60418 0.77934 0.07181 0.0
C833 C 0.61426 0.76411 0.9201 0.0
C834 C 0.59444 0.74973 0.91792 0.0
C835 C 0.62068 0.77931 0.95126 0.0
C836 C 0.60897 0.79355 0.05732 0.0
H837 H 0.57985 0.85912 0.08368 0.0
H838 H 0.59185 0.84181 0.03771 0.0
H839 H 0.60483 0.80485 0.11897 0.0
H840 H 0.56574 0.74094 0.94521 0.0
H841 H 0.57712 0.76639 1.00112 0.0
H842 H 0.62216 0.81788 0.95745 0.0
C843 C 0.59685 0.84538 0.07213 0.0
C844 C 0.60937 0.80814 0.08419 0.0
C845 C 0.58975 0.85501 0.09853 0.0
C846 C 0.58124 0.75086 0.9476 0.0
C847 C 0.5877 0.76566 0.97932 0.0
C848 C 0.61911 0.81522 0.99306 0.0
C849 C 0.60922 0.83932 0.09084 0.0
C850 C 0.61362 0.82604 0.06517 0.0
C851 C 0.60738 0.7801 0.98109 0.0
C852 C 0.61312 0.79677 0.01127 0.0
H853 H 0.61267 0.85678 0.19691 0.0
H854 H 0.62476 0.83946 0.15084 0.0
H855 H 0.62264 0.84348 1.00452 0.0
H856 H 0.62472 0.76383 0.89709 0.0
H857 H 0.63589 0.79054 0.95175 0.0
C858 C 0.73868 0.5695 0.5844 0.0
C859 C 0.74286 0.58013 0.62448 0.0
C860 C 0.75371 0.5719 0.55612 0.0
C861 C 0.80578 0.60257 0.52907 0.0
H862 H 0.80071 0.55305 0.49501 0.0
C863 C 0.85206 0.5673 0.44431 0.0
C864 C 0.85855 0.57825 0.40465 0.0
C865 C 0.83996 0.56999 0.47385 0.0
C866 C 0.80245 0.567 0.50464 0.0
H867 H 0.76565 0.60271 0.66495 0.0
H868 H 0.79219 0.60684 0.61543 0.0
H869 H 0.77509 0.5536 0.53865 0.0
H870 H 0.85888 0.60159 0.36619 0.0
H871 H 0.83745 0.60617 0.41771 0.0
H872 H 0.83335 0.6159 0.49504 0.0
C873 C 0.77728 0.59665 0.60595 0.0
C874 C 0.78765 0.56732 0.52905 0.0
C875 C 0.76216 0.59428 0.63426 0.0
C876 C 0.85388 0.59286 0.39646 0.0
C877 C 0.84171 0.59553 0.42599 0.0
C878 C 0.82064 0.60226 0.50433 0.0
C879 C 0.7732 0.58498 0.56746 0.0
C880 C 0.78909 0.58507 0.54126 0.0
C881 C 0.83419 0.58371 0.46426 0.0
C882 C 0.81907 0.58443 0.49194 0.0
H883 H 0.72381 0.55895 0.57552 0.0
H884 H 0.75014 0.56308 0.52602 0.0
H885 H 0.80721 0.61645 0.53812 0.0
H886 H 0.85608 0.55645 0.45219 0.0
H887 H 0.83474 0.56101 0.50372 0.0
C888 C 0.1753 0.75354 0.099 0.0
C889 C 0.18522 0.74771 0.12856 0.0
C890 C 0.18575 0.76829 0.06759 0.0
C891 C 0.22873 0.78509 1.00177 0.0
H892 H 0.22902 0.8334 0.97957 0.0
C893 C 0.27354 0.83357 0.8584 0.0
C894 C 0.28728 0.85236 0.87251 0.0
C895 C 0.25751 0.82187 0.88532 0.0
C896 C 0.2289 0.81987 0.98532 0.0
H897 H 0.21356 0.75398 0.15276 0.0
H898 H 0.23178 0.77938 0.09727 0.0
H899 H 0.20809 0.81128 0.03925 0.0
H900 H 0.29429 0.87456 0.92294 0.0
H901 H 0.26622 0.8539 0.97079 0.0
H902 H 0.24962 0.7935 0.94903 0.0
C903 C 0.21602 0.77238 0.09771 0.0
C904 C 0.21696 0.80728 0.01917 0.0
C905 C 0.20564 0.75783 0.1291 0.0
C906 C 0.2839 0.85997 0.91183 0.0
C907 C 0.26783 0.84822 0.93895 0.0
C908 C 0.24037 0.79744 0.9678 0.0
C909 C 0.20614 0.77726 0.06581 0.0
C910 C 0.21717 0.79003 0.02811 0.0
C911 C 0.25496 0.82881 0.92673 0.0
C912 C 0.24081 0.81507 0.95963 0.0
H913 H 0.15952 0.74604 0.09866 0.0
H914 H 0.17791 0.77192 0.04323 0.0
H915 H 0.22897 0.77175 1.00798 0.0
H916 H 0.2755 0.82774 0.82717 0.0
H917 H 0.24755 0.80708 0.87472 0.0
C918 C 0.46232 0.1831 0.5876 0.0
C919 C 0.45146 0.17426 0.62646 0.0
C920 C 0.45826 0.19529 0.56192 0.0
C921 C 0.45728 0.23227 0.54541 0.0
H922 H 0.40821 0.22033 0.49003 0.0
C923 C 0.45291 0.29056 0.44622 0.0
C924 C 0.44674 0.28492 0.40184 0.0
C925 C 0.44877 0.27656 0.47916 0.0
C926 C 0.42193 0.22385 0.50569 0.0
H927 H 0.4267 0.16961 0.66678 0.0
H928 H 0.41942 0.19101 0.62112 0.0
H929 H 0.41027 0.19543 0.53517 0.0
H930 H 0.42979 0.26052 0.35762 0.0
H931 H 0.42282 0.23585 0.41519 0.0
H932 H 0.46923 0.26031 0.51548 0.0
C933 C 0.43124 0.18866 0.61117 0.0
C934 C 0.42307 0.20969 0.53148 0.0
C935 C 0.43542 0.1765 0.63718 0.0
C936 C 0.43481 0.26514 0.39168 0.0
C937 C 0.43075 0.25107 0.42464 0.0
C938 C 0.4561 0.24639 0.52024 0.0
C939 C 0.44309 0.19863 0.57427 0.0
C940 C 0.44091 0.21372 0.55054 0.0
C941 C 0.43847 0.25669 0.46815 0.0
C942 C 0.43853 0.24225 0.49945 0.0
H943 H 0.47422 0.18093 0.57747 0.0
H944 H 0.4673 0.20251 0.53293 0.0
H945 H 0.47114 0.23574 0.56023 0.0
H946 H 0.46167 0.3058 0.45499 0.0
H947 H 0.45453 0.28128 0.51271 0.0
C948 C 0.72439 0.53922 0.92358 0.0
C949 C 0.72435 0.53312 0.87919 0.0
C950 C 0.73815 0.54036 0.95502 0.0
C951 C 0.77285 0.52203 0.97601 0.0
H952 H 0.79112 0.55993 0.07246 0.0
C953 C 0.81642 0.51623 0.12602 0.0
C954 C 0.83159 0.53336 0.14494 0.0
C955 C 0.80366 0.5169 0.09428 0.0
C956 C 0.78636 0.54931 0.04561 0.0
H957 H 0.73936 0.52426 0.83251 0.0
H958 H 0.76373 0.52668 0.88675 0.0
H959 H 0.76956 0.56061 0.015 0.0
H960 H 0.84511 0.56472 0.14539 0.0
H961 H 0.82298 0.56603 0.08975 0.0
H962 H 0.79001 0.51103 1.00585 0.0
C963 C 0.75279 0.53011 0.89791 0.0
C964 C 0.7737 0.54955 0.01274 0.0
C965 C 0.73894 0.52891 0.86652 0.0
C966 C 0.83343 0.55123 0.1319 0.0
C967 C 0.82068 0.55194 0.09988 0.0
C968 C 0.78553 0.52183 0.00877 0.0
C969 C 0.75248 0.53559 0.94297 0.0
C970 C 0.76662 0.53583 0.97743 0.0
C971 C 0.8057 0.53477 0.08005 0.0
C972 C 0.79242 0.53537 0.04442 0.0
H973 H 0.7135 0.54283 0.93426 0.0
H974 H 0.73716 0.54448 0.98918 0.0
H975 H 0.76767 0.51104 0.94996 0.0
H976 H 0.81447 0.5022 0.13562 0.0
H977 H 0.79213 0.50329 0.08097 0.0
C978 C 0.23163 0.71706 0.38456 0.0
C979 C 0.21656 0.71908 0.36509 0.0
C980 C 0.24372 0.72998 0.41792 0.0
C981 C 0.26112 0.77925 0.46631 0.0
H982 H 0.2756 0.75869 0.56816 0.0
C983 C 0.32176 0.8289 0.59355 0.0
C984 C 0.31885 0.82378 0.6393 0.0
C985 C 0.30873 0.8165 0.56071 0.0
C986 C 0.27162 0.76472 0.54016 0.0
H987 H 0.20241 0.73641 0.36595 0.0
H988 H 0.22373 0.75923 0.42345 0.0
H989 H 0.25417 0.73661 0.51015 0.0
H990 H 0.29971 0.80175 0.68649 0.0
H991 H 0.27691 0.78003 0.62932 0.0
H992 H 0.27859 0.80737 0.4964 0.0
C993 C 0.2263 0.74767 0.4127 0.0
C994 C 0.25946 0.75203 0.50651 0.0
C995 C 0.21409 0.7346 0.37954 0.0
C996 C 0.30236 0.80609 0.65151 0.0
C997 C 0.28939 0.79358 0.61864 0.0
C998 C 0.27345 0.79197 0.49977 0.0
C999 C 0.24122 0.74546 0.43271 0.0
C1000 C 0.25403 0.75908 0.46896 0.0
C1001 C 0.29243 0.79853 0.57264 0.0
C1002 C 0.27892 0.78491 0.53724 0.0
H1003 H 0.23416 0.70547 0.37387 0.0
H1004 H 0.2552 0.72794 0.43181 0.0
H1005 H 0.25742 0.78529 0.43788 0.0
H1006 H 0.33424 0.84252 0.58311 0.0
H1007 H 0.3117 0.82082 0.52577 0.0
C1008 C 0.52589 0.3079 0.13286 0.0
C1009 C 0.50888 0.30603 0.15255 0.0
C1010 C 0.52489 0.29503 0.09922 0.0
C1011 C 0.49242 0.2462 0.04868 0.0
H1012 H 0.52831 0.2672 0.94833 0.0
C1013 C 0.50295 0.19688 0.91957 0.0
C1014 C 0.50622 0.20264 0.87421 0.0
C1015 C 0.50216 0.20908 0.95275 0.0
C1016 C 0.51805 0.26104 0.97584 0.0
H1017 H 0.47738 0.28882 0.15221 0.0
H1018 H 0.47558 0.26612 0.09399 0.0
H1019 H 0.52904 0.28891 1.00728 0.0
H1020 H 0.51078 0.22558 0.82805 0.0
H1021 H 0.50932 0.2469 0.88577 0.0
H1022 H 0.48137 0.21833 0.01704 0.0
C1023 C 0.48978 0.27756 0.10475 0.0
C1024 C 0.51862 0.27352 0.0101 0.0
C1025 C 0.4908 0.29056 0.13832 0.0
C1026 C 0.50824 0.22073 0.8627 0.0
C1027 C 0.50758 0.23302 0.89593 0.0
C1028 C 0.49194 0.23369 0.01454 0.0
C1029 C 0.50682 0.27973 0.08425 0.0
C1030 C 0.50588 0.26632 0.04722 0.0
C1031 C 0.50469 0.22746 0.94162 0.0
C1032 C 0.50478 0.24089 0.97758 0.0
H1033 H 0.54008 0.31941 0.14348 0.0
H1034 H 0.53837 0.29701 0.08513 0.0
H1035 H 0.48245 0.24002 0.07671 0.0
H1036 H 0.5012 0.18297 0.92948 0.0
H1037 H 0.50008 0.20427 0.9874 0.0
C1038 C 0.30917 0.48343 0.41312 0.0
C1039 C 0.30918 0.48894 0.3682 0.0
C1040 C 0.29566 0.48303 0.44431 0.0
C1041 C 0.26225 0.50296 0.46338 0.0
H1042 H 0.24348 0.4663 0.56236 0.0
C1043 C 0.22124 0.51254 0.61419 0.0
C1044 C 0.20579 0.49592 0.63421 0.0
C1045 C 0.23331 0.51094 0.58193 0.0
C1046 C 0.24839 0.47658 0.53481 0.0
H1047 H 0.29435 0.49756 0.32042 0.0
H1048 H 0.27041 0.49645 0.37436 0.0
H1049 H 0.26424 0.46404 0.50499 0.0
H1050 H 0.19104 0.46448 0.63588 0.0
H1051 H 0.21201 0.46157 0.57955 0.0
H1052 H 0.24609 0.51525 0.4926 0.0
C1053 C 0.28118 0.49286 0.386 0.0
C1054 C 0.26057 0.47543 0.50197 0.0
C1055 C 0.29477 0.49329 0.3548 0.0
C1056 C 0.20295 0.4776 0.6216 0.0
C1057 C 0.21503 0.47596 0.58916 0.0
C1058 C 0.25006 0.5041 0.49616 0.0
C1059 C 0.28157 0.48801 0.43153 0.0
C1060 C 0.26783 0.48868 0.46577 0.0
C1061 C 0.23032 0.49262 0.5684 0.0
C1062 C 0.24301 0.49102 0.53269 0.0
H1063 H 0.31998 0.47982 0.42444 0.0
H1064 H 0.2967 0.47938 0.47886 0.0
H1065 H 0.2676 0.51361 0.43658 0.0
H1066 H 0.22403 0.52691 0.62352 0.0
H1067 H 0.24511 0.52418 0.56783 0.0
C1068 C 0.72132 0.21871 0.1154 0.0
C1069 C 0.72357 0.2039 0.13545 0.0
C1070 C 0.7343 0.23085 0.08224 0.0
C1071 C 0.77126 0.23423 0.99896 0.0
H1072 H 0.78427 0.28818 0.99254 0.0
C1073 C 0.82804 0.28956 0.87051 0.0
C1074 C 0.82401 0.30337 0.8513 0.0
C1075 C 0.81632 0.27723 0.90533 0.0
C1076 C 0.78065 0.2731 0.99335 0.0
H1077 H 0.7415 0.19042 0.1363 0.0
H1078 H 0.76448 0.21186 0.07899 0.0
H1079 H 0.7636 0.26763 0.05312 0.0
H1080 H 0.80422 0.31471 0.85322 0.0
H1081 H 0.78384 0.29336 0.91343 0.0
H1082 H 0.78839 0.2398 0.93903 0.0
C1083 C 0.75246 0.21395 0.08852 0.0
C1084 C 0.76873 0.26124 0.02832 0.0
C1085 C 0.73942 0.20177 0.12187 0.0
C1086 C 0.80787 0.30439 0.86753 0.0
C1087 C 0.79621 0.29215 0.9023 0.0
C1088 C 0.78324 0.24614 0.96393 0.0
C1089 C 0.75006 0.22866 0.06797 0.0
C1090 C 0.76364 0.24153 0.03156 0.0
C1091 C 0.80029 0.27844 0.92211 0.0
C1092 C 0.78799 0.26574 0.96028 0.0
H1093 H 0.70941 0.22091 0.1253 0.0
H1094 H 0.73167 0.24173 0.06712 0.0
H1095 H 0.76756 0.21913 0.99973 0.0
H1096 H 0.84056 0.28862 0.85941 0.0
H1097 H 0.82014 0.26708 0.91988 0.0
C1098 C 0.51511 0.80817 0.40075 0.0
C1099 C 0.53232 0.82338 0.38212 0.0
C1100 C 0.51574 0.796 0.43407 0.0
C1101 C 0.54799 0.7934 0.52157 0.0
H1102 H 0.50952 0.73846 0.52144 0.0
C1103 C 0.54993 0.73887 0.65112 0.0
C1104 C 0.53207 0.72325 0.66591 0.0
C1105 C 0.55056 0.75132 0.61662 0.0
C1106 C 0.52024 0.75381 0.52258 0.0
H1107 H 0.56379 0.83763 0.38406 0.0
H1108 H 0.565 0.81626 0.44211 0.0
H1109 H 0.50966 0.75921 0.46109 0.0
H1110 H 0.50081 0.70906 0.65713 0.0
H1111 H 0.50178 0.73071 0.59784 0.0
H1112 H 0.55844 0.78802 0.58339 0.0
C1113 C 0.55092 0.81382 0.43108 0.0
C1114 C 0.52035 0.76576 0.48766 0.0
C1115 C 0.55026 0.82596 0.39741 0.0
C1116 C 0.51485 0.72071 0.64605 0.0
C1117 C 0.51544 0.73315 0.61177 0.0
C1118 C 0.54783 0.78143 0.55669 0.0
C1119 C 0.53365 0.79866 0.45007 0.0
C1120 C 0.53413 0.78579 0.48666 0.0
C1121 C 0.53331 0.74856 0.59599 0.0
C1122 C 0.53386 0.76143 0.55801 0.0
H1123 H 0.50104 0.80569 0.38957 0.0
H1124 H 0.50212 0.7847 0.44797 0.0
H1125 H 0.5587 0.80875 0.52244 0.0
H1126 H 0.5635 0.74114 0.66527 0.0
H1127 H 0.56465 0.7628 0.60536 0.0
C1128 C 0.40877 0.47012 0.28662 0.0
C1129 C 0.39262 0.46528 0.25877 0.0
C1130 C 0.41916 0.46019 0.28301 0.0
C1131 C 0.44573 0.44549 0.24975 0.0
H1132 H 0.41907 0.3897 0.23117 0.0
C1133 C 0.4881 0.40441 0.21946 0.0
C1134 C 0.48125 0.38671 0.24259 0.0
C1135 C 0.47696 0.41367 0.21796 0.0
C1136 C 0.42676 0.40528 0.23652 0.0
H1137 H 0.37461 0.44585 0.20571 0.0
H1138 H 0.39281 0.42863 0.19927 0.0
H1139 H 0.40021 0.40622 0.23755 0.0
H1140 H 0.45699 0.36469 0.28131 0.0
H1141 H 0.43783 0.38083 0.27901 0.0
H1142 H 0.47224 0.44448 0.25 0.0
C1143 C 0.39733 0.44002 0.22422 0.0
C1144 C 0.41593 0.4148 0.23972 0.0
C1145 C 0.38692 0.44996 0.22783 0.0
C1146 C 0.46279 0.3783 0.26315 0.0
C1147 C 0.45169 0.38751 0.2616 0.0
C1148 C 0.45655 0.43598 0.24652 0.0
C1149 C 0.41373 0.44515 0.25144 0.0
C1150 C 0.42526 0.43501 0.24679 0.0
C1151 C 0.45869 0.40543 0.23943 0.0
C1152 C 0.44721 0.41571 0.24024 0.0
H1153 H 0.41357 0.48177 0.31097 0.0
H1154 H 0.43146 0.46431 0.30515 0.0
H1155 H 0.45345 0.46111 0.25451 0.0
H1156 H 0.50221 0.41131 0.20317 0.0
H1157 H 0.48271 0.42733 0.20006 0.0
C1158 C 0.08799 0.45534 0.75711 0.0
C1159 C 0.0979 0.47215 0.73037 0.0
C1160 C 0.06763 0.44465 0.75803 0.0
C1161 C 0.0247 0.41866 0.73731 0.0
H1162 H 0.99544 0.44584 0.73543 0.0
C1163 C 0.94078 0.37782 0.71982 0.0
C1164 C 0.93017 0.38482 0.74358 0.0
C1165 C 0.96116 0.38835 0.71888 0.0
C1166 C 1.00337 0.438 0.73644 0.0
H1167 H 0.09393 0.49063 0.68295 0.0
H1168 H 0.05835 0.47176 0.68394 0.0
H1169 H 0.03093 0.46432 0.73181 0.0
H1170 H 0.9329 0.40835 0.78579 0.0
H1171 H 0.96848 0.42654 0.78484 0.0
H1172 H 0.99723 0.39239 0.74311 0.0
C1173 C 0.06639 0.46704 0.70485 0.0
C1174 C 0.02376 0.44861 0.73368 0.0
C1175 C 0.08683 0.47779 0.70398 0.0
C1176 C 0.94055 0.4025 0.76707 0.0
C1177 C 0.96099 0.41303 0.7662 0.0
C1178 C 1.00434 0.40807 0.74015 0.0
C1179 C 0.0565 0.45038 0.73212 0.0
C1180 C 0.03472 0.43909 0.73411 0.0
C1181 C 0.97158 0.40617 0.74181 0.0
C1182 C 0.99336 0.41757 0.7397 0.0
H1183 H 0.09596 0.45054 0.77808 0.0
H1184 H 0.06061 0.43211 0.77996 0.0
H1185 H 0.03257 0.41077 0.73725 0.0
H1186 H 0.93335 0.36432 0.70114 0.0
H1187 H 0.96873 0.38269 0.69922 0.0
C1188 C 0.62372 0.08571 0.21837 0.0
C1189 C 0.64106 0.09698 0.24259 0.0
C1190 C 0.61366 0.06536 0.22152 0.0
C1191 C 0.58923 0.02373 0.25602 0.0
H1192 H 0.61769 0.99585 0.26432 0.0
C1193 C 0.55082 0.94138 0.29848 0.0
C1194 C 0.55694 0.93008 0.27459 0.0
C1195 C 0.56127 0.96175 0.29549 0.0
C1196 C 0.60946 1.00335 0.26174 0.0
H1197 H 0.66151 0.09547 0.28867 0.0
H1198 H 0.64395 0.06022 0.29449 0.0
H1199 H 0.63542 0.03099 0.25438 0.0
H1200 H 0.57911 0.93152 0.22923 0.0
H1201 H 0.59705 0.96676 0.22369 0.0
H1202 H 0.56324 0.996 0.26227 0.0
C1203 C 0.6382 0.06703 0.27256 0.0
C1204 C 0.61968 0.02359 0.25654 0.0
C1205 C 0.64825 0.08733 0.26937 0.0
C1206 C 0.57394 0.93969 0.24827 0.0
C1207 C 0.58434 0.95999 0.24525 0.0
C1208 C 0.57901 1.00347 0.26117 0.0
C1209 C 0.62068 0.05574 0.24897 0.0
C1210 C 0.60972 0.03409 0.25363 0.0
C1211 C 0.5781 0.97132 0.26854 0.0
C1212 C 0.58898 0.99299 0.26407 0.0
H1213 H 0.61775 0.09261 0.19736 0.0
H1214 H 0.60039 0.05715 0.20232 0.0
H1215 H 0.58106 0.03131 0.25447 0.0
H1216 H 0.53782 0.93451 0.31911 0.0
H1217 H 0.55617 0.96999 0.31443 0.0
C1218 C 0.55394 0.62638 0.74707 0.0
C1219 C 0.56047 0.64359 0.77211 0.0
C1220 C 0.56403 0.61607 0.74835 0.0
C1221 C 0.58084 0.59083 0.77885 0.0
H1222 H 0.63729 0.61803 0.78264 0.0
C1223 C 0.62373 0.55028 0.80981 0.0
C1224 C 0.64064 0.55615 0.78391 0.0
C1225 C 0.61425 0.56121 0.80982 0.0
C1226 C 0.62152 0.61016 0.78134 0.0
H1227 H 0.58304 0.66353 0.81763 0.0
H1228 H 0.60047 0.64552 0.82014 0.0
H1229 H 0.6204 0.63653 0.77726 0.0
H1230 H 0.66092 0.57842 0.73819 0.0
H1231 H 0.64437 0.59723 0.73791 0.0
H1232 H 0.58198 0.56445 0.78181 0.0
C1233 C 0.58766 0.64007 0.79906 0.0
C1234 C 0.6118 0.62081 0.77875 0.0
C1235 C 0.57758 0.65039 0.79775 0.0
C1236 C 0.64797 0.57342 0.75868 0.0
C1237 C 0.63852 0.58432 0.7587 0.0
C1238 C 0.59056 0.58018 0.78143 0.0
C1239 C 0.58093 0.62266 0.77472 0.0
C1240 C 0.59132 0.6113 0.77735 0.0
C1241 C 0.62144 0.57832 0.78398 0.0
C1242 C 0.61104 0.58969 0.78258 0.0
H1243 H 0.54087 0.6207 0.72682 0.0
H1244 H 0.55859 0.60292 0.72853 0.0
H1245 H 0.56506 0.58298 0.77846 0.0
H1246 H 0.61766 0.5371 0.8297 0.0
H1247 H 0.6013 0.55627 0.83021 0.0
C1248 C 0.09826 0.64796 0.24938 0.0
C1249 C 0.10819 0.63954 0.27041 0.0
C1250 C 0.0779 0.63864 0.25002 0.0
C1251 C 0.03492 0.62052 0.27328 0.0
H1252 H 1.00617 0.56472 0.25473 0.0
C1253 C 0.95037 0.57521 0.28086 0.0
C1254 C 0.94089 0.55984 0.24997 0.0
C1255 C 0.97073 0.58534 0.28453 0.0
C1256 C 1.01396 0.58033 0.25961 0.0
H1257 H 0.10428 0.61483 0.30973 0.0
H1258 H 0.06873 0.59866 0.31125 0.0
H1259 H 0.04158 0.58156 0.26019 0.0
H1260 H 0.94561 0.54349 0.19787 0.0
H1261 H 0.98099 0.56129 0.20379 0.0
H1262 H 1.00732 0.61935 0.2715 0.0
C1263 C 0.07675 0.61238 0.29367 0.0
C1264 C 0.03429 0.58997 0.26339 0.0
C1265 C 0.09717 0.62174 0.29308 0.0
C1266 C 0.95235 0.55517 0.22217 0.0
C1267 C 0.97268 0.56529 0.22584 0.0
C1268 C 1.01458 0.61088 0.26954 0.0
C1269 C 0.06684 0.62061 0.2717 0.0
C1270 C 0.04508 0.61022 0.26997 0.0
C1271 C 0.98216 0.58037 0.25741 0.0
C1272 C 1.00382 0.59066 0.26231 0.0
H1273 H 0.1062 0.66164 0.23154 0.0
H1274 H 0.07083 0.64533 0.23227 0.0
H1275 H 0.0427 0.63609 0.27882 0.0
H1276 H 0.94205 0.57919 0.30294 0.0
H1277 H 0.97748 0.59675 0.30948 0.0
C1278 C 0.41783 0.94051 0.72459 0.0
C1279 C 0.40033 0.92965 0.74863 0.0
C1280 C 0.42794 0.96092 0.7261 0.0
C1281 C 0.45217 1.0033 0.75636 0.0
H1282 H 0.42323 0.03077 0.76077 0.0
C1283 C 0.48988 0.08635 0.7916 0.0
C1284 C 0.48323 0.09707 0.76712 0.0
C1285 C 0.47976 0.06595 0.79004 0.0
C1286 C 0.4316 0.0234 0.75921 0.0
H1287 H 0.37979 0.93196 0.79295 0.0
H1288 H 0.39743 0.96721 0.79607 0.0
H1289 H 0.40582 0.99556 0.75366 0.0
H1290 H 0.46053 0.09453 0.722 0.0
H1291 H 0.44322 0.05927 0.7188 0.0
H1292 H 0.47801 0.03127 0.76063 0.0
C1293 C 0.40325 0.96008 0.77538 0.0
C1294 C 0.42157 1.0031 0.75568 0.0
C1295 C 0.39314 0.93975 0.77376 0.0
C1296 C 0.46609 0.08684 0.74154 0.0
C1297 C 0.45605 0.06651 0.73986 0.0
C1298 C 0.46224 0.02365 0.75974 0.0
C1299 C 0.42083 0.97099 0.75173 0.0
C1300 C 0.43168 0.99273 0.75433 0.0
C1301 C 0.46276 0.05574 0.7639 0.0
C1302 C 0.45209 0.034 0.7612 0.0
H1303 H 0.42381 0.93325 0.70486 0.0
H1304 H 0.44128 0.9688 0.70693 0.0
H1305 H 0.46048 0.99585 0.75595 0.0
H1306 H 0.503 0.09371 0.81169 0.0
H1307 H 0.48523 0.05817 0.80953 0.0
loop_
_geom_bond_atom_site_label_1
_geom_bond_atom_site_label_2
_geom_bond_distance
_geom_bond_site_symmetry_2
_ccdc_geom_bond_type
Co0 O3 1.970 . S
Co0 N17 1.989 . S
Co0 O25 1.967 . S
Co0 O32 1.920 . S
Co1 O4 1.966 . S
Co1 N10 2.022 . S
Co1 N18 1.993 . S
Co1 O26 1.941 . S
C2 O3 1.258 . S
C2 O4 1.263 . S
O3 Co0 1.970 . S
O3 C2 1.258 . S
O4 Co1 1.966 . S
O4 C2 1.263 . S
C5 O6 1.235 . S
C5 O32 1.289 . S
O6 C5 1.235 . S
C7 C9 1.400 . S
C7 N10 1.351 . S
C7 C12 1.501 . S
C8 C9 1.387 . S
C8 N11 1.341 . S
C9 C7 1.400 . S
C9 C8 1.387 . S
N10 Co1 2.022 . S
N10 C7 1.351 . S
N10 N11 1.365 . S
N11 C8 1.341 . S
N11 N10 1.365 . S
N11 H31 0.862 . S
C12 C7 1.501 . S
C12 H13 0.961 . S
C12 H14 0.961 . S
C12 H15 0.960 . S
H13 C12 0.961 . S
H14 C12 0.961 . S
H15 C12 0.960 . S
C16 N17 1.342 . S
C16 C20 1.401 . S
C16 C21 1.499 . S
N17 Co0 1.989 . S
N17 C16 1.342 . S
N17 N18 1.388 . S
N18 Co1 1.993 . S
N18 N17 1.388 . S
N18 C19 1.346 . S
C19 N18 1.346 . S
C19 C20 1.396 . S
C19 C29 1.510 . S
C20 C16 1.401 . S
C20 C19 1.396 . S
C21 C16 1.499 . S
C21 H22 0.959 . S
C21 H23 0.960 . S
C21 H24 0.961 . S
H22 C21 0.959 . S
H23 C21 0.960 . S
H24 C21 0.961 . S
O25 Co0 1.967 . S
O25 C33 1.258 . S
O26 Co1 1.941 . S
O26 C33 1.266 . S
H27 C29 0.959 . S
H28 C29 0.961 . S
C29 C19 1.510 . S
C29 H27 0.959 . S
C29 H28 0.961 . S
C29 H30 0.960 . S
H30 C29 0.960 . S
H31 N11 0.862 . S
O32 Co0 1.920 . S
O32 C5 1.289 . S
C33 O25 1.258 . S
C33 O26 1.266 . S
Co34 O37 1.970 . S
Co34 N51 1.989 . S
Co34 O59 1.967 . S
Co34 O66 1.920 . S
Co35 O38 1.966 . S
Co35 N44 2.022 . S
Co35 N52 1.993 . S
Co35 O60 1.941 . S
C36 O37 1.258 . S
C36 O38 1.263 . S
O37 Co34 1.970 . S
O37 C36 1.258 . S
O38 Co35 1.966 . S
O38 C36 1.263 . S
C39 O40 1.235 . S
C39 O66 1.289 . S
O40 C39 1.235 . S
C41 C43 1.400 . S
C41 N44 1.351 . S
C41 C46 1.501 . S
C42 C43 1.387 . S
C42 N45 1.341 . S
C43 C41 1.400 . S
C43 C42 1.387 . S
N44 Co35 2.022 . S
N44 C41 1.351 . S
N44 N45 1.365 . S
N45 C42 1.341 . S
N45 N44 1.365 . S
N45 H65 0.862 . S
C46 C41 1.501 . S
C46 H47 0.961 . S
C46 H48 0.961 . S
C46 H49 0.960 . S
H47 C46 0.961 . S
H48 C46 0.961 . S
H49 C46 0.960 . S
C50 N51 1.342 . S
C50 C54 1.401 . S
C50 C55 1.499 . S
N51 Co34 1.989 . S
N51 C50 1.342 . S
N51 N52 1.388 . S
N52 Co35 1.993 . S
N52 N51 1.388 . S
N52 C53 1.346 . S
C53 N52 1.346 . S
C53 C54 1.396 . S
C53 C63 1.510 . S
C54 C50 1.401 . S
C54 C53 1.396 . S
C55 C50 1.499 . S
C55 H56 0.959 . S
C55 H57 0.960 . S
C55 H58 0.961 . S
H56 C55 0.959 . S
H57 C55 0.960 . S
H58 C55 0.961 . S
O59 Co34 1.967 . S
O59 C67 1.258 . S
O60 Co35 1.941 . S
O60 C67 1.266 . S
H61 C63 0.959 . S
H62 C63 0.961 . S
C63 C53 1.510 . S
C63 H61 0.959 . S
C63 H62 0.961 . S
C63 H64 0.960 . S
H64 C63 0.960 . S
H65 N45 0.862 . S
O66 Co34 1.920 . S
O66 C39 1.289 . S
C67 O59 1.258 . S
C67 O60 1.266 . S
Co68 O71 1.970 . S
Co68 N85 1.989 . S
Co68 O93 1.967 . S
Co68 O100 1.920 . S
Co69 O72 1.966 . S
Co69 N78 2.022 . S
Co69 N86 1.993 . S
Co69 O94 1.941 . S
C70 O71 1.258 . S
C70 O72 1.263 . S
O71 Co68 1.970 . S
O71 C70 1.258 . S
O72 Co69 1.966 . S
O72 C70 1.263 . S
C73 O74 1.235 . S
C73 O100 1.289 . S
O74 C73 1.235 . S
C75 C77 1.400 . S
C75 N78 1.351 . S
C75 C80 1.501 . S
C76 C77 1.387 . S
C76 N79 1.341 . S
C77 C75 1.400 . S
C77 C76 1.387 . S
N78 Co69 2.022 . S
N78 C75 1.351 . S
N78 N79 1.365 . S
N79 C76 1.341 . S
N79 N78 1.365 . S
N79 H99 0.862 . S
C80 C75 1.501 . S
C80 H81 0.961 . S
C80 H82 0.961 . S
C80 H83 0.960 . S
H81 C80 0.961 . S
H82 C80 0.961 . S
H83 C80 0.960 . S
C84 N85 1.342 . S
C84 C88 1.401 . S
C84 C89 1.499 . S
N85 Co68 1.989 . S
N85 C84 1.342 . S
N85 N86 1.388 . S
N86 Co69 1.993 . S
N86 N85 1.388 . S
N86 C87 1.346 . S
C87 N86 1.346 . S
C87 C88 1.396 . S
C87 C97 1.510 . S
C88 C84 1.401 . S
C88 C87 1.396 . S
C89 C84 1.499 . S
C89 H90 0.959 . S
C89 H91 0.960 . S
C89 H92 0.961 . S
H90 C89 0.959 . S
H91 C89 0.960 . S
H92 C89 0.961 . S
O93 Co68 1.967 . S
O93 C101 1.258 . S
O94 Co69 1.941 . S
O94 C101 1.266 . S
H95 C97 0.959 . S
H96 C97 0.961 . S
C97 C87 1.510 . S
C97 H95 0.959 . S
C97 H96 0.961 . S
C97 H98 0.960 . S
H98 C97 0.960 . S
H99 N79 0.862 . S
O100 Co68 1.920 . S
O100 C73 1.289 . S
C101 O93 1.258 . S
C101 O94 1.266 . S
Co102 O105 1.970 . S
Co102 N119 1.989 . S
Co102 O127 1.967 . S
Co102 O134 1.920 . S
Co103 O106 1.966 . S
Co103 N112 2.022 . S
Co103 N120 1.993 . S
Co103 O128 1.941 . S
C104 O105 1.258 . S
C104 O106 1.263 . S
O105 Co102 1.970 . S
O105 C104 1.258 . S
O106 Co103 1.966 . S
O106 C104 1.263 . S
C107 O108 1.235 . S
C107 O134 1.289 . S
O108 C107 1.235 . S
C109 C111 1.400 . S
C109 N112 1.351 . S
C109 C114 1.501 . S
C110 C111 1.387 . S
C110 N113 1.341 . S
C111 C109 1.400 . S
C111 C110 1.387 . S
N112 Co103 2.022 . S
N112 C109 1.351 . S
N112 N113 1.365 . S
N113 C110 1.341 . S
N113 N112 1.365 . S
N113 H133 0.862 . S
C114 C109 1.501 . S
C114 H115 0.961 . S
C114 H116 0.961 . S
C114 H117 0.960 . S
H115 C114 0.961 . S
H116 C114 0.961 . S
H117 C114 0.960 . S
C118 N119 1.342 . S
C118 C122 1.401 . S
C118 C123 1.499 . S
N119 Co102 1.989 . S
N119 C118 1.342 . S
N119 N120 1.388 . S
N120 Co103 1.993 . S
N120 N119 1.388 . S
N120 C121 1.346 . S
C121 N120 1.346 . S
C121 C122 1.396 . S
C121 C131 1.510 . S
C122 C118 1.401 . S
C122 C121 1.396 . S
C123 C118 1.499 . S
C123 H124 0.959 . S
C123 H125 0.960 . S
C123 H126 0.961 . S
H124 C123 0.959 . S
H125 C123 0.960 . S
H126 C123 0.961 . S
O127 Co102 1.967 . S
O127 C135 1.258 . S
O128 Co103 1.941 . S
O128 C135 1.266 . S
H129 C131 0.959 . S
H130 C131 0.961 . S
C131 C121 1.510 . S
C131 H129 0.959 . S
C131 H130 0.961 . S
C131 H132 0.960 . S
H132 C131 0.960 . S
H133 N113 0.862 . S
O134 Co102 1.920 . S
O134 C107 1.289 . S
C135 O127 1.258 . S
C135 O128 1.266 . S
Co136 O139 1.970 . S
Co136 N153 1.989 . S
Co136 O161 1.967 . S
Co136 O168 1.920 . S
Co137 O140 1.966 . S
Co137 N146 2.022 . S
Co137 N154 1.993 . S
Co137 O162 1.941 . S
C138 O139 1.258 . S
C138 O140 1.263 . S
O139 Co136 1.970 . S
O139 C138 1.258 . S
O140 Co137 1.966 . S
O140 C138 1.263 . S
C141 O142 1.235 . S
C141 O168 1.289 . S
O142 C141 1.235 . S
C143 C145 1.400 . S
C143 N146 1.351 . S
C143 C148 1.501 . S
C144 C145 1.387 . S
C144 N147 1.341 . S
C145 C143 1.400 . S
C145 C144 1.387 . S
N146 Co137 2.022 . S
N146 C143 1.351 . S
N146 N147 1.365 . S
N147 C144 1.341 . S
N147 N146 1.365 . S
N147 H167 0.862 . S
C148 C143 1.501 . S
C148 H149 0.961 . S
C148 H150 0.961 . S
C148 H151 0.960 . S
H149 C148 0.961 . S
H150 C148 0.961 . S
H151 C148 0.960 . S
C152 N153 1.342 . S
C152 C156 1.401 . S
C152 C157 1.499 . S
N153 Co136 1.989 . S
N153 C152 1.342 . S
N153 N154 1.388 . S
N154 Co137 1.993 . S
N154 N153 1.388 . S
N154 C155 1.346 . S
C155 N154 1.346 . S
C155 C156 1.396 . S
C155 C165 1.510 . S
C156 C152 1.401 . S
C156 C155 1.396 . S
C157 C152 1.499 . S
C157 H158 0.959 . S
C157 H159 0.960 . S
C157 H160 0.961 . S
H158 C157 0.959 . S
H159 C157 0.960 . S
H160 C157 0.961 . S
O161 Co136 1.967 . S
O161 C169 1.258 . S
O162 Co137 1.941 . S
O162 C169 1.266 . S
H163 C165 0.959 . S
H164 C165 0.961 . S
C165 C155 1.510 . S
C165 H163 0.959 . S
C165 H164 0.961 . S
C165 H166 0.960 . S
H166 C165 0.960 . S
H167 N147 0.862 . S
O168 Co136 1.920 . S
O168 C141 1.289 . S
C169 O161 1.258 . S
C169 O162 1.266 . S
Co170 O173 1.970 . S
Co170 N187 1.989 . S
Co170 O195 1.967 . S
Co170 O202 1.920 . S
Co171 O174 1.966 . S
Co171 N180 2.022 . S
Co171 N188 1.993 . S
Co171 O196 1.941 . S
C172 O173 1.258 . S
C172 O174 1.263 . S
O173 Co170 1.970 . S
O173 C172 1.258 . S
O174 Co171 1.966 . S
O174 C172 1.263 . S
C175 O176 1.235 . S
C175 O202 1.289 . S
O176 C175 1.235 . S
C177 C179 1.400 . S
C177 N180 1.351 . S
C177 C182 1.501 . S
C178 C179 1.387 . S
C178 N181 1.341 . S
C179 C177 1.400 . S
C179 C178 1.387 . S
N180 Co171 2.022 . S
N180 C177 1.351 . S
N180 N181 1.365 . S
N181 C178 1.341 . S
N181 N180 1.365 . S
N181 H201 0.862 . S
C182 C177 1.501 . S
C182 H183 0.961 . S
C182 H184 0.961 . S
C182 H185 0.960 . S
H183 C182 0.961 . S
H184 C182 0.961 . S
H185 C182 0.960 . S
C186 N187 1.342 . S
C186 C190 1.401 . S
C186 C191 1.499 . S
N187 Co170 1.989 . S
N187 C186 1.342 . S
N187 N188 1.388 . S
N188 Co171 1.993 . S
N188 N187 1.388 . S
N188 C189 1.346 . S
C189 N188 1.346 . S
C189 C190 1.396 . S
C189 C199 1.510 . S
C190 C186 1.401 . S
C190 C189 1.396 . S
C191 C186 1.499 . S
C191 H192 0.959 . S
C191 H193 0.960 . S
C191 H194 0.961 . S
H192 C191 0.959 . S
H193 C191 0.960 . S
H194 C191 0.961 . S
O195 Co170 1.967 . S
O195 C203 1.258 . S
O196 Co171 1.941 . S
O196 C203 1.266 . S
H197 C199 0.959 . S
H198 C199 0.961 . S
C199 C189 1.510 . S
C199 H197 0.959 . S
C199 H198 0.961 . S
C199 H200 0.960 . S
H200 C199 0.960 . S
H201 N181 0.862 . S
O202 Co170 1.920 . S
O202 C175 1.289 . S
C203 O195 1.258 . S
C203 O196 1.266 . S
Co204 O207 1.970 . S
Co204 N221 1.989 . S
Co204 O229 1.967 . S
Co204 O236 1.920 . S
Co205 O208 1.966 . S
Co205 N214 2.022 . S
Co205 N222 1.993 . S
Co205 O230 1.941 . S
C206 O207 1.258 . S
C206 O208 1.263 . S
O207 Co204 1.970 . S
O207 C206 1.258 . S
O208 Co205 1.966 . S
O208 C206 1.263 . S
C209 O210 1.235 . S
C209 O236 1.289 . S
O210 C209 1.235 . S
C211 C213 1.400 . S
C211 N214 1.351 . S
C211 C216 1.501 . S
C212 C213 1.387 . S
C212 N215 1.341 . S
C213 C211 1.400 . S
C213 C212 1.387 . S
N214 Co205 2.022 . S
N214 C211 1.351 . S
N214 N215 1.365 . S
N215 C212 1.341 . S
N215 N214 1.365 . S
N215 H235 0.862 . S
C216 C211 1.501 . S
C216 H217 0.961 . S
C216 H218 0.961 . S
C216 H219 0.960 . S
H217 C216 0.961 . S
H218 C216 0.961 . S
H219 C216 0.960 . S
C220 N221 1.342 . S
C220 C224 1.401 . S
C220 C225 1.499 . S
N221 Co204 1.989 . S
N221 C220 1.342 . S
N221 N222 1.388 . S
N222 Co205 1.993 . S
N222 N221 1.388 . S
N222 C223 1.346 . S
C223 N222 1.346 . S
C223 C224 1.396 . S
C223 C233 1.510 . S
C224 C220 1.401 . S
C224 C223 1.396 . S
C225 C220 1.499 . S
C225 H226 0.959 . S
C225 H227 0.960 . S
C225 H228 0.961 . S
H226 C225 0.959 . S
H227 C225 0.960 . S
H228 C225 0.961 . S
O229 Co204 1.967 . S
O229 C237 1.258 . S
O230 Co205 1.941 . S
O230 C237 1.266 . S
H231 C233 0.959 . S
H232 C233 0.961 . S
C233 C223 1.510 . S
C233 H231 0.959 . S
C233 H232 0.961 . S
C233 H234 0.960 . S
H234 C233 0.960 . S
H235 N215 0.862 . S
O236 Co204 1.920 . S
O236 C209 1.289 . S
C237 O229 1.258 . S
C237 O230 1.266 . S
Co238 O241 1.970 . S
Co238 N255 1.989 . S
Co238 O263 1.967 . S
Co238 O270 1.920 . S
Co239 O242 1.966 . S
Co239 N248 2.022 . S
Co239 N256 1.993 . S
Co239 O264 1.941 . S
C240 O241 1.258 . S
C240 O242 1.263 . S
O241 Co238 1.970 . S
O241 C240 1.258 . S
O242 Co239 1.966 . S
O242 C240 1.263 . S
C243 O244 1.235 . S
C243 O270 1.289 . S
O244 C243 1.235 . S
C245 C247 1.400 . S
C245 N248 1.351 . S
C245 C250 1.501 . S
C246 C247 1.387 . S
C246 N249 1.341 . S
C247 C245 1.400 . S
C247 C246 1.387 . S
N248 Co239 2.022 . S
N248 C245 1.351 . S
N248 N249 1.365 . S
N249 C246 1.341 . S
N249 N248 1.365 . S
N249 H269 0.862 . S
C250 C245 1.501 . S
C250 H251 0.961 . S
C250 H252 0.961 . S
C250 H253 0.960 . S
H251 C250 0.961 . S
H252 C250 0.961 . S
H253 C250 0.960 . S
C254 N255 1.342 . S
C254 C258 1.401 . S
C254 C259 1.499 . S
N255 Co238 1.989 . S
N255 C254 1.342 . S
N255 N256 1.388 . S
N256 Co239 1.993 . S
N256 N255 1.388 . S
N256 C257 1.346 . S
C257 N256 1.346 . S
C257 C258 1.396 . S
C257 C267 1.510 . S
C258 C254 1.401 . S
C258 C257 1.396 . S
C259 C254 1.499 . S
C259 H260 0.959 . S
C259 H261 0.960 . S
C259 H262 0.961 . S
H260 C259 0.959 . S
H261 C259 0.960 . S
H262 C259 0.961 . S
O263 Co238 1.967 . S
O263 C271 1.258 . S
O264 Co239 1.941 . S
O264 C271 1.266 . S
H265 C267 0.959 . S
H266 C267 0.961 . S
C267 C257 1.510 . S
C267 H265 0.959 . S
C267 H266 0.961 . S
C267 H268 0.960 . S
H268 C267 0.960 . S
H269 N249 0.862 . S
O270 Co238 1.920 . S
O270 C243 1.289 . S
C271 O263 1.258 . S
C271 O264 1.266 . S
Co272 O275 1.970 . S
Co272 N289 1.989 . S
Co272 O297 1.967 . S
Co272 O304 1.920 . S
Co273 O276 1.966 . S
Co273 N282 2.022 . S
Co273 N290 1.993 . S
Co273 O298 1.941 . S
C274 O275 1.258 . S
C274 O276 1.263 . S
O275 Co272 1.970 . S
O275 C274 1.258 . S
O276 Co273 1.966 . S
O276 C274 1.263 . S
C277 O278 1.235 . S
C277 O304 1.289 . S
O278 C277 1.235 . S
C279 C281 1.400 . S
C279 N282 1.351 . S
C279 C284 1.501 . S
C280 C281 1.387 . S
C280 N283 1.341 . S
C281 C279 1.400 . S
C281 C280 1.387 . S
N282 Co273 2.022 . S
N282 C279 1.351 . S
N282 N283 1.365 . S
N283 C280 1.341 . S
N283 N282 1.365 . S
N283 H303 0.862 . S
C284 C279 1.501 . S
C284 H285 0.961 . S
C284 H286 0.961 . S
C284 H287 0.960 . S
H285 C284 0.961 . S
H286 C284 0.961 . S
H287 C284 0.960 . S
C288 N289 1.342 . S
C288 C292 1.401 . S
C288 C293 1.499 . S
N289 Co272 1.989 . S
N289 C288 1.342 . S
N289 N290 1.388 . S
N290 Co273 1.993 . S
N290 N289 1.388 . S
N290 C291 1.346 . S
C291 N290 1.346 . S
C291 C292 1.396 . S
C291 C301 1.510 . S
C292 C288 1.401 . S
C292 C291 1.396 . S
C293 C288 1.499 . S
C293 H294 0.959 . S
C293 H295 0.960 . S
C293 H296 0.961 . S
H294 C293 0.959 . S
H295 C293 0.960 . S
H296 C293 0.961 . S
O297 Co272 1.967 . S
O297 C305 1.258 . S
O298 Co273 1.941 . S
O298 C305 1.266 . S
H299 C301 0.959 . S
H300 C301 0.961 . S
C301 C291 1.510 . S
C301 H299 0.959 . S
C301 H300 0.961 . S
C301 H302 0.960 . S
H302 C301 0.960 . S
H303 N283 0.862 . S
O304 Co272 1.920 . S
O304 C277 1.289 . S
C305 O297 1.258 . S
C305 O298 1.266 . S
Co306 O309 1.970 . S
Co306 N323 1.989 . S
Co306 O331 1.967 . S
Co306 O338 1.920 . S
Co307 O310 1.966 . S
Co307 N316 2.022 . S
Co307 N324 1.993 . S
Co307 O332 1.941 . S
C308 O309 1.258 . S
C308 O310 1.263 . S
O309 Co306 1.970 . S
O309 C308 1.258 . S
O310 Co307 1.966 . S
O310 C308 1.263 . S
C311 O312 1.235 . S
C311 O338 1.289 . S
O312 C311 1.235 . S
C313 C315 1.400 . S
C313 N316 1.351 . S
C313 C318 1.501 . S
C314 C315 1.387 . S
C314 N317 1.341 . S
C315 C313 1.400 . S
C315 C314 1.387 . S
N316 Co307 2.022 . S
N316 C313 1.351 . S
N316 N317 1.365 . S
N317 C314 1.341 . S
N317 N316 1.365 . S
N317 H337 0.862 . S
C318 C313 1.501 . S
C318 H319 0.961 . S
C318 H320 0.961 . S
C318 H321 0.960 . S
H319 C318 0.961 . S
H320 C318 0.961 . S
H321 C318 0.960 . S
C322 N323 1.342 . S
C322 C326 1.401 . S
C322 C327 1.499 . S
N323 Co306 1.989 . S
N323 C322 1.342 . S
N323 N324 1.388 . S
N324 Co307 1.993 . S
N324 N323 1.388 . S
N324 C325 1.346 . S
C325 N324 1.346 . S
C325 C326 1.396 . S
C325 C335 1.510 . S
C326 C322 1.401 . S
C326 C325 1.396 . S
C327 C322 1.499 . S
C327 H328 0.959 . S
C327 H329 0.960 . S
C327 H330 0.961 . S
H328 C327 0.959 . S
H329 C327 0.960 . S
H330 C327 0.961 . S
O331 Co306 1.967 . S
O331 C339 1.258 . S
O332 Co307 1.941 . S
O332 C339 1.266 . S
H333 C335 0.959 . S
H334 C335 0.961 . S
C335 C325 1.510 . S
C335 H333 0.959 . S
C335 H334 0.961 . S
C335 H336 0.960 . S
H336 C335 0.960 . S
H337 N317 0.862 . S
O338 Co306 1.920 . S
O338 C311 1.289 . S
C339 O331 1.258 . S
C339 O332 1.266 . S
Co340 O343 1.970 . S
Co340 N357 1.989 . S
Co340 O365 1.967 . S
Co340 O372 1.920 . S
Co341 O344 1.966 . S
Co341 N350 2.022 . S
Co341 N358 1.993 . S
Co341 O366 1.941 . S
C342 O343 1.258 . S
C342 O344 1.263 . S
O343 Co340 1.970 . S
O343 C342 1.258 . S
O344 Co341 1.966 . S
O344 C342 1.263 . S
C345 O346 1.235 . S
C345 O372 1.289 . S
O346 C345 1.235 . S
C347 C349 1.400 . S
C347 N350 1.351 . S
C347 C352 1.501 . S
C348 C349 1.387 . S
C348 N351 1.341 . S
C349 C347 1.400 . S
C349 C348 1.387 . S
N350 Co341 2.022 . S
N350 C347 1.351 . S
N350 N351 1.365 . S
N351 C348 1.341 . S
N351 N350 1.365 . S
N351 H371 0.862 . S
C352 C347 1.501 . S
C352 H353 0.961 . S
C352 H354 0.961 . S
C352 H355 0.960 . S
H353 C352 0.961 . S
H354 C352 0.961 . S
H355 C352 0.960 . S
C356 N357 1.342 . S
C356 C360 1.401 . S
C356 C361 1.499 . S
N357 Co340 1.989 . S
N357 C356 1.342 . S
N357 N358 1.388 . S
N358 Co341 1.993 . S
N358 N357 1.388 . S
N358 C359 1.346 . S
C359 N358 1.346 . S
C359 C360 1.396 . S
C359 C369 1.510 . S
C360 C356 1.401 . S
C360 C359 1.396 . S
C361 C356 1.499 . S
C361 H362 0.959 . S
C361 H363 0.960 . S
C361 H364 0.961 . S
H362 C361 0.959 . S
H363 C361 0.960 . S
H364 C361 0.961 . S
O365 Co340 1.967 . S
O365 C373 1.258 . S
O366 Co341 1.941 . S
O366 C373 1.266 . S
H367 C369 0.959 . S
H368 C369 0.961 . S
C369 C359 1.510 . S
C369 H367 0.959 . S
C369 H368 0.961 . S
C369 H370 0.960 . S
H370 C369 0.960 . S
H371 N351 0.862 . S
O372 Co340 1.920 . S
O372 C345 1.289 . S
C373 O365 1.258 . S
C373 O366 1.266 . S
Co374 O377 1.970 . S
Co374 N391 1.989 . S
Co374 O399 1.967 . S
Co374 O406 1.920 . S
Co375 O378 1.966 . S
Co375 N384 2.022 . S
Co375 N392 1.993 . S
Co375 O400 1.941 . S
C376 O377 1.258 . S
C376 O378 1.263 . S
O377 Co374 1.970 . S
O377 C376 1.258 . S
O378 Co375 1.966 . S
O378 C376 1.263 . S
C379 O380 1.235 . S
C379 O406 1.289 . S
O380 C379 1.235 . S
C381 C383 1.400 . S
C381 N384 1.351 . S
C381 C386 1.501 . S
C382 C383 1.387 . S
C382 N385 1.341 . S
C383 C381 1.400 . S
C383 C382 1.387 . S
N384 Co375 2.022 . S
N384 C381 1.351 . S
N384 N385 1.365 . S
N385 C382 1.341 . S
N385 N384 1.365 . S
N385 H405 0.862 . S
C386 C381 1.501 . S
C386 H387 0.961 . S
C386 H388 0.961 . S
C386 H389 0.960 . S
H387 C386 0.961 . S
H388 C386 0.961 . S
H389 C386 0.960 . S
C390 N391 1.342 . S
C390 C394 1.401 . S
C390 C395 1.499 . S
N391 Co374 1.989 . S
N391 C390 1.342 . S
N391 N392 1.388 . S
N392 Co375 1.993 . S
N392 N391 1.388 . S
N392 C393 1.346 . S
C393 N392 1.346 . S
C393 C394 1.396 . S
C393 C403 1.510 . S
C394 C390 1.401 . S
C394 C393 1.396 . S
C395 C390 1.499 . S
C395 H396 0.959 . S
C395 H397 0.960 . S
C395 H398 0.961 . S
H396 C395 0.959 . S
H397 C395 0.960 . S
H398 C395 0.961 . S
O399 Co374 1.967 . S
O399 C407 1.258 . S
O400 Co375 1.941 . S
O400 C407 1.266 . S
H401 C403 0.959 . S
H402 C403 0.961 . S
C403 C393 1.510 . S
C403 H401 0.959 . S
C403 H402 0.961 . S
C403 H404 0.960 . S
H404 C403 0.960 . S
H405 N385 0.862 . S
O406 Co374 1.920 . S
O406 C379 1.289 . S
C407 O399 1.258 . S
C407 O400 1.266 . S
C408 C409 1.349 . S
C408 C410 1.327 . S
C408 H433 0.950 . S
C409 C408 1.349 . S
C409 C425 1.349 . S
C410 C408 1.327 . S
C410 C429 1.429 . S
C410 H434 0.950 . S
C411 C428 1.574 1_554 S
C411 C430 1.368 . S
C411 H435 0.949 . S
H412 C416 0.949 . S
C413 C414 1.349 . S
C413 C415 1.327 . S
C413 H436 0.950 . S
C414 C413 1.349 . S
C414 C426 1.349 . S
C415 C413 1.327 . S
C415 C431 1.429 . S
C415 H437 0.950 . S
C416 H412 0.949 . S
C416 C424 1.574 1_556 S
C416 C432 1.368 . S
H417 C425 0.950 . S
H418 C423 0.950 . S
H419 C424 0.949 . S
H420 C426 0.950 . S
H421 C427 0.950 . S
H422 C428 0.949 . S
C423 H418 0.950 . S
C423 C425 1.327 . S
C423 C429 1.429 . S
C424 C416 1.574 1_554 S
C424 H419 0.949 . S
C424 C430 1.368 . S
C425 C409 1.349 . S
C425 H417 0.950 . S
C425 C423 1.327 . S
C426 C414 1.349 . S
C426 H420 0.950 . S
C426 C427 1.327 . S
C427 H421 0.950 . S
C427 C426 1.327 . S
C427 C431 1.429 . S
C428 C411 1.574 1_556 S
C428 H422 0.949 . S
C428 C432 1.368 . S
C429 C410 1.429 . S
C429 C423 1.429 . S
C429 C430 1.523 . S
C430 C411 1.368 . S
C430 C424 1.368 . S
C430 C429 1.523 . S
C431 C415 1.429 . S
C431 C427 1.429 . S
C431 C432 1.523 . S
C432 C416 1.368 . S
C432 C428 1.368 . S
C432 C431 1.523 . S
H433 C408 0.950 . S
H434 C410 0.950 . S
H435 C411 0.949 . S
H436 C413 0.950 . S
H437 C415 0.950 . S
C438 C439 1.349 . S
C438 C440 1.327 . S
C438 H463 0.950 . S
C439 C438 1.349 . S
C439 C455 1.349 . S
C440 C438 1.327 . S
C440 C459 1.429 . S
C440 H464 0.950 . S
C441 C458 1.574 . S
C441 C460 1.368 . S
C441 H465 0.949 . S
H442 C446 0.949 . S
C443 C444 1.349 . S
C443 C445 1.327 . S
C443 H466 0.950 . S
C444 C443 1.349 . S
C444 C456 1.349 . S
C445 C443 1.327 . S
C445 C461 1.429 . S
C445 H467 0.950 . S
C446 H442 0.949 . S
C446 C454 1.574 . S
C446 C462 1.368 . S
H447 C455 0.950 . S
H448 C453 0.950 . S
H449 C454 0.949 . S
H450 C456 0.950 . S
H451 C457 0.950 . S
H452 C458 0.949 . S
C453 H448 0.950 . S
C453 C455 1.327 . S
C453 C459 1.429 . S
C454 C446 1.574 . S
C454 H449 0.949 . S
C454 C460 1.368 . S
C455 C439 1.349 . S
C455 H447 0.950 . S
C455 C453 1.327 . S
C456 C444 1.349 . S
C456 H450 0.950 . S
C456 C457 1.327 . S
C457 H451 0.950 . S
C457 C456 1.327 . S
C457 C461 1.429 . S
C458 C441 1.574 . S
C458 H452 0.949 . S
C458 C462 1.368 . S
C459 C440 1.429 . S
C459 C453 1.429 . S
C459 C460 1.523 . S
C460 C441 1.368 . S
C460 C454 1.368 . S
C460 C459 1.523 . S
C461 C445 1.429 . S
C461 C457 1.429 . S
C461 C462 1.523 . S
C462 C446 1.368 . S
C462 C458 1.368 . S
C462 C461 1.523 . S
H463 C438 0.950 . S
H464 C440 0.950 . S
H465 C441 0.949 . S
H466 C443 0.950 . S
H467 C445 0.950 . S
C468 C469 1.349 . S
C468 C470 1.327 . S
C468 H493 0.950 . S
C469 C468 1.349 . S
C469 C485 1.349 . S
C470 C468 1.327 . S
C470 C489 1.429 . S
C470 H494 0.950 . S
C471 C488 1.571 1_554 S
C471 C490 1.371 . S
C471 H495 0.949 . S
H472 C476 0.949 . S
C473 C474 1.349 . S
C473 C475 1.327 . S
C473 H496 0.950 . S
C474 C473 1.349 . S
C474 C486 1.349 . S
C475 C473 1.327 . S
C475 C491 1.429 . S
C475 H497 0.950 . S
C476 H472 0.949 . S
C476 C484 1.571 1_556 S
C476 C492 1.371 . S
H477 C485 0.950 . S
H478 C483 0.950 . S
H479 C484 0.949 . S
H480 C486 0.950 . S
H481 C487 0.950 . S
H482 C488 0.949 . S
C483 H478 0.950 . S
C483 C485 1.327 . S
C483 C489 1.429 . S
C484 C476 1.571 1_554 S
C484 H479 0.949 . S
C484 C490 1.368 . S
C485 C469 1.349 . S
C485 H477 0.950 . S
C485 C483 1.327 . S
C486 C474 1.349 . S
C486 H480 0.950 . S
C486 C487 1.327 . S
C487 H481 0.950 . S
C487 C486 1.327 . S
C487 C491 1.429 . S
C488 C471 1.571 1_556 S
C488 H482 0.949 . S
C488 C492 1.368 . S
C489 C470 1.429 . S
C489 C483 1.429 . S
C489 C490 1.523 . S
C490 C471 1.371 . S
C490 C484 1.368 . S
C490 C489 1.523 . S
C491 C475 1.429 . S
C491 C487 1.429 . S
C491 C492 1.523 . S
C492 C476 1.371 . S
C492 C488 1.368 . S
C492 C491 1.523 . S
H493 C468 0.950 . S
H494 C470 0.950 . S
H495 C471 0.949 . S
H496 C473 0.950 . S
H497 C475 0.950 . S
C498 C499 1.349 . S
C498 C500 1.327 . S
C498 H523 0.950 . S
C499 C498 1.349 . S
C499 C515 1.349 . S
C500 C498 1.327 . S
C500 C519 1.429 . S
C500 H524 0.950 . S
C501 C518 1.574 . S
C501 C520 1.368 . S
C501 H525 0.949 . S
H502 C506 0.949 . S
C503 C504 1.349 . S
C503 C505 1.327 . S
C503 H526 0.950 . S
C504 C503 1.349 . S
C504 C516 1.349 . S
C505 C503 1.327 . S
C505 C521 1.429 . S
C505 H527 0.950 . S
C506 H502 0.949 . S
C506 C514 1.574 . S
C506 C522 1.368 . S
H507 C515 0.950 . S
H508 C513 0.950 . S
H509 C514 0.949 . S
H510 C516 0.950 . S
H511 C517 0.950 . S
H512 C518 0.949 . S
C513 H508 0.950 . S
C513 C515 1.327 . S
C513 C519 1.429 . S
C514 C506 1.574 . S
C514 H509 0.949 . S
C514 C520 1.368 . S
C515 C499 1.349 . S
C515 H507 0.950 . S
C515 C513 1.327 . S
C516 C504 1.349 . S
C516 H510 0.950 . S
C516 C517 1.327 . S
C517 H511 0.950 . S
C517 C516 1.327 . S
C517 C521 1.429 . S
C518 C501 1.574 . S
C518 H512 0.949 . S
C518 C522 1.368 . S
C519 C500 1.429 . S
C519 C513 1.429 . S
C519 C520 1.523 . S
C520 C501 1.368 . S
C520 C514 1.368 . S
C520 C519 1.523 . S
C521 C505 1.429 . S
C521 C517 1.429 . S
C521 C522 1.523 . S
C522 C506 1.368 . S
C522 C518 1.368 . S
C522 C521 1.523 . S
H523 C498 0.950 . S
H524 C500 0.950 . S
H525 C501 0.949 . S
H526 C503 0.950 . S
H527 C505 0.950 . S
C528 C529 1.349 . S
C528 C530 1.327 . S
C528 H553 0.950 . S
C529 C528 1.349 . S
C529 C545 1.349 . S
C530 C528 1.327 . S
C530 C549 1.429 . S
C530 H554 0.950 . S
C531 C548 1.574 . S
C531 C550 1.368 1_556 S
C531 H555 0.949 . S
H532 C536 0.949 . S
C533 C534 1.349 . S
C533 C535 1.327 . S
C533 H556 0.950 . S
C534 C533 1.349 . S
C534 C546 1.349 . S
C535 C533 1.327 . S
C535 C551 1.429 . S
C535 H557 0.950 . S
C536 H532 0.949 . S
C536 C544 1.574 . S
C536 C552 1.368 1_554 S
H537 C545 0.950 . S
H538 C543 0.950 . S
H539 C544 0.949 . S
H540 C546 0.950 . S
H541 C547 0.950 . S
H542 C548 0.949 . S
C543 H538 0.950 . S
C543 C545 1.327 . S
C543 C549 1.429 . S
C544 C536 1.574 . S
C544 H539 0.949 . S
C544 C550 1.368 . S
C545 C529 1.349 . S
C545 H537 0.950 . S
C545 C543 1.327 . S
C546 C534 1.349 . S
C546 H540 0.950 . S
C546 C547 1.327 . S
C547 H541 0.950 . S
C547 C546 1.327 . S
C547 C551 1.429 . S
C548 C531 1.574 . S
C548 H542 0.949 . S
C548 C552 1.368 . S
C549 C530 1.429 . S
C549 C543 1.429 . S
C549 C550 1.523 . S
C550 C531 1.368 1_554 S
C550 C544 1.368 . S
C550 C549 1.523 . S
C551 C535 1.429 . S
C551 C547 1.429 . S
C551 C552 1.523 . S
C552 C536 1.368 1_556 S
C552 C548 1.368 . S
C552 C551 1.523 . S
H553 C528 0.950 . S
H554 C530 0.950 . S
H555 C531 0.949 . S
H556 C533 0.950 . S
H557 C535 0.950 . S
C558 C559 1.349 . S
C558 C560 1.327 . S
C558 H583 0.950 . S
C559 C558 1.349 . S
C559 C575 1.349 . S
C560 C558 1.327 . S
C560 C579 1.429 . S
C560 H584 0.950 . S
C561 C578 1.574 . S
C561 C580 1.368 . S
C561 H585 0.949 . S
H562 C566 0.949 . S
C563 C564 1.349 . S
C563 C565 1.327 . S
C563 H586 0.950 . S
C564 C563 1.349 . S
C564 C576 1.349 . S
C565 C563 1.327 . S
C565 C581 1.429 . S
C565 H587 0.950 . S
C566 H562 0.949 . S
C566 C574 1.574 . S
C566 C582 1.368 . S
H567 C575 0.950 . S
H568 C573 0.950 . S
H569 C574 0.949 . S
H570 C576 0.950 . S
H571 C577 0.950 . S
H572 C578 0.949 . S
C573 H568 0.950 . S
C573 C575 1.327 . S
C573 C579 1.429 . S
C574 C566 1.574 . S
C574 H569 0.949 . S
C574 C580 1.368 . S
C575 C559 1.349 . S
C575 H567 0.950 . S
C575 C573 1.327 . S
C576 C564 1.349 . S
C576 H570 0.950 . S
C576 C577 1.327 . S
C577 H571 0.950 . S
C577 C576 1.327 . S
C577 C581 1.429 . S
C578 C561 1.574 . S
C578 H572 0.949 . S
C578 C582 1.368 . S
C579 C560 1.429 . S
C579 C573 1.429 . S
C579 C580 1.523 . S
C580 C561 1.368 . S
C580 C574 1.368 . S
C580 C579 1.523 . S
C581 C565 1.429 . S
C581 C577 1.429 . S
C581 C582 1.523 . S
C582 C566 1.368 . S
C582 C578 1.368 . S
C582 C581 1.523 . S
H583 C558 0.950 . S
H584 C560 0.950 . S
H585 C561 0.949 . S
H586 C563 0.950 . S
H587 C565 0.950 . S
C588 C589 1.349 . S
C588 C590 1.327 . S
C588 H613 0.950 . S
C589 C588 1.349 . S
C589 C605 1.349 . S
C590 C588 1.327 . S
C590 C609 1.429 . S
C590 H614 0.950 . S
C591 C608 1.574 . S
C591 C610 1.368 . S
C591 H615 0.949 . S
H592 C596 0.949 . S
C593 C594 1.349 . S
C593 C595 1.327 . S
C593 H616 0.950 . S
C594 C593 1.349 . S
C594 C606 1.349 . S
C595 C593 1.327 . S
C595 C611 1.429 . S
C595 H617 0.950 . S
C596 H592 0.949 . S
C596 C604 1.574 . S
C596 C612 1.368 . S
H597 C605 0.950 . S
H598 C603 0.950 . S
H599 C604 0.949 . S
H600 C606 0.950 . S
H601 C607 0.950 . S
H602 C608 0.949 . S
C603 H598 0.950 . S
C603 C605 1.327 . S
C603 C609 1.429 . S
C604 C596 1.574 . S
C604 H599 0.949 . S
C604 C610 1.368 1_556 S
C605 C589 1.349 . S
C605 H597 0.950 . S
C605 C603 1.327 . S
C606 C594 1.349 . S
C606 H600 0.950 . S
C606 C607 1.327 . S
C607 H601 0.950 . S
C607 C606 1.327 . S
C607 C611 1.429 . S
C608 C591 1.574 . S
C608 H602 0.949 . S
C608 C612 1.368 1_554 S
C609 C590 1.429 . S
C609 C603 1.429 . S
C609 C610 1.523 . S
C610 C591 1.368 . S
C610 C604 1.368 1_554 S
C610 C609 1.523 . S
C611 C595 1.429 . S
C611 C607 1.429 . S
C611 C612 1.523 . S
C612 C596 1.368 . S
C612 C608 1.368 1_556 S
C612 C611 1.523 . S
H613 C588 0.950 . S
H614 C590 0.950 . S
H615 C591 0.949 . S
H616 C593 0.950 . S
H617 C595 0.950 . S
C618 C619 1.349 . S
C618 C620 1.327 . S
C618 H643 0.950 . S
C619 C618 1.349 . S
C619 C635 1.349 . S
C620 C618 1.327 . S
C620 C639 1.429 . S
C620 H644 0.950 . S
C621 C638 1.574 . S
C621 C640 1.368 . S
C621 H645 0.949 . S
H622 C626 0.949 . S
C623 C624 1.349 . S
C623 C625 1.327 . S
C623 H646 0.950 . S
C624 C623 1.349 . S
C624 C636 1.349 . S
C625 C623 1.327 . S
C625 C641 1.429 . S
C625 H647 0.950 . S
C626 H622 0.949 . S
C626 C634 1.574 . S
C626 C642 1.368 . S
H627 C635 0.950 . S
H628 C633 0.950 . S
H629 C634 0.949 . S
H630 C636 0.950 . S
H631 C637 0.950 . S
H632 C638 0.949 . S
C633 H628 0.950 . S
C633 C635 1.327 . S
C633 C639 1.429 . S
C634 C626 1.574 . S
C634 H629 0.949 . S
C634 C640 1.368 . S
C635 C619 1.349 . S
C635 H627 0.950 . S
C635 C633 1.327 . S
C636 C624 1.349 . S
C636 H630 0.950 . S
C636 C637 1.327 . S
C637 H631 0.950 . S
C637 C636 1.327 . S
C637 C641 1.429 . S
C638 C621 1.574 . S
C638 H632 0.949 . S
C638 C642 1.368 . S
C639 C620 1.429 . S
C639 C633 1.429 . S
C639 C640 1.523 . S
C640 C621 1.368 . S
C640 C634 1.368 . S
C640 C639 1.523 . S
C641 C625 1.429 . S
C641 C637 1.429 . S
C641 C642 1.523 . S
C642 C626 1.368 . S
C642 C638 1.368 . S
C642 C641 1.523 . S
H643 C618 0.950 . S
H644 C620 0.950 . S
H645 C621 0.949 . S
H646 C623 0.950 . S
H647 C625 0.950 . S
C648 C649 1.349 . S
C648 C650 1.327 . S
C648 H673 0.950 . S
C649 C648 1.349 . S
C649 C665 1.349 . S
C650 C648 1.327 . S
C650 C669 1.429 . S
C650 H674 0.950 . S
C651 C668 1.574 . S
C651 C670 1.368 1_556 S
C651 H675 0.949 . S
H652 C656 0.949 . S
C653 C654 1.349 . S
C653 C655 1.327 . S
C653 H676 0.950 . S
C654 C653 1.349 . S
C654 C666 1.349 . S
C655 C653 1.327 . S
C655 C671 1.429 . S
C655 H677 0.950 . S
C656 H652 0.949 . S
C656 C664 1.574 . S
C656 C672 1.368 1_554 S
H657 C665 0.950 . S
H658 C663 0.950 . S
H659 C664 0.949 . S
H660 C666 0.950 . S
H661 C667 0.950 . S
H662 C668 0.949 . S
C663 H658 0.950 . S
C663 C665 1.327 . S
C663 C669 1.429 . S
C664 C656 1.574 . S
C664 H659 0.949 . S
C664 C670 1.368 . S
C665 C649 1.349 . S
C665 H657 0.950 . S
C665 C663 1.327 . S
C666 C654 1.349 . S
C666 H660 0.950 . S
C666 C667 1.327 . S
C667 H661 0.950 . S
C667 C666 1.327 . S
C667 C671 1.429 . S
C668 C651 1.574 . S
C668 H662 0.949 . S
C668 C672 1.368 . S
C669 C650 1.429 . S
C669 C663 1.429 . S
C669 C670 1.523 . S
C670 C651 1.368 1_554 S
C670 C664 1.368 . S
C670 C669 1.523 . S
C671 C655 1.429 . S
C671 C667 1.429 . S
C671 C672 1.523 . S
C672 C656 1.368 1_556 S
C672 C668 1.368 . S
C672 C671 1.523 . S
H673 C648 0.950 . S
H674 C650 0.950 . S
H675 C651 0.949 . S
H676 C653 0.950 . S
H677 C655 0.950 . S
C678 C679 1.349 . S
C678 C680 1.327 . S
C678 H703 0.950 . S
C679 C678 1.349 . S
C679 C695 1.349 . S
C680 C678 1.327 . S
C680 C699 1.429 . S
C680 H704 0.950 . S
C681 C698 1.574 . S
C681 C700 1.368 . S
C681 H705 0.949 . S
H682 C686 0.949 . S
C683 C684 1.349 . S
C683 C685 1.327 . S
C683 H706 0.950 . S
C684 C683 1.349 . S
C684 C696 1.349 . S
C685 C683 1.327 . S
C685 C701 1.429 . S
C685 H707 0.950 . S
C686 H682 0.949 . S
C686 C694 1.574 . S
C686 C702 1.368 . S
H687 C695 0.950 . S
H688 C693 0.950 . S
H689 C694 0.949 . S
H690 C696 0.950 . S
H691 C697 0.950 . S
H692 C698 0.949 . S
C693 H688 0.950 . S
C693 C695 1.327 . S
C693 C699 1.429 . S
C694 C686 1.574 . S
C694 H689 0.949 . S
C694 C700 1.368 . S
C695 C679 1.349 . S
C695 H687 0.950 . S
C695 C693 1.327 . S
C696 C684 1.349 . S
C696 H690 0.950 . S
C696 C697 1.327 . S
C697 H691 0.950 . S
C697 C696 1.327 . S
C697 C701 1.429 . S
C698 C681 1.574 . S
C698 H692 0.949 . S
C698 C702 1.368 . S
C699 C680 1.429 . S
C699 C693 1.429 . S
C699 C700 1.523 . S
C700 C681 1.368 . S
C700 C694 1.368 . S
C700 C699 1.523 . S
C701 C685 1.429 . S
C701 C697 1.429 . S
C701 C702 1.523 . S
C702 C686 1.368 . S
C702 C698 1.368 . S
C702 C701 1.523 . S
H703 C678 0.950 . S
H704 C680 0.950 . S
H705 C681 0.949 . S
H706 C683 0.950 . S
H707 C685 0.950 . S
C708 C709 1.349 . S
C708 C710 1.327 . S
C708 H733 0.950 . S
C709 C708 1.349 . S
C709 C725 1.349 . S
C710 C708 1.327 . S
C710 C729 1.429 . S
C710 H734 0.950 . S
C711 C728 1.574 1_554 S
C711 C730 1.368 . S
C711 H735 0.949 . S
H712 C716 0.949 . S
C713 C714 1.349 . S
C713 C715 1.327 . S
C713 H736 0.950 . S
C714 C713 1.349 . S
C714 C726 1.349 . S
C715 C713 1.327 . S
C715 C731 1.429 . S
C715 H737 0.950 . S
C716 H712 0.949 . S
C716 C724 1.574 1_556 S
C716 C732 1.368 . S
H717 C725 0.950 . S
H718 C723 0.950 . S
H719 C724 0.949 . S
H720 C726 0.950 . S
H721 C727 0.950 . S
H722 C728 0.949 . S
C723 H718 0.950 . S
C723 C725 1.327 . S
C723 C729 1.429 . S
C724 C716 1.574 1_554 S
C724 H719 0.949 . S
C724 C730 1.368 . S
C725 C709 1.349 . S
C725 H717 0.950 . S
C725 C723 1.327 . S
C726 C714 1.349 . S
C726 H720 0.950 . S
C726 C727 1.327 . S
C727 H721 0.950 . S
C727 C726 1.327 . S
C727 C731 1.429 . S
C728 C711 1.574 1_556 S
C728 H722 0.949 . S
C728 C732 1.368 . S
C729 C710 1.429 . S
C729 C723 1.429 . S
C729 C730 1.523 . S
C730 C711 1.368 . S
C730 C724 1.368 . S
C730 C729 1.523 . S
C731 C715 1.429 . S
C731 C727 1.429 . S
C731 C732 1.523 . S
C732 C716 1.368 . S
C732 C728 1.368 . S
C732 C731 1.523 . S
H733 C708 0.950 . S
H734 C710 0.950 . S
H735 C711 0.949 . S
H736 C713 0.950 . S
H737 C715 0.950 . S
C738 C739 1.349 . S
C738 C740 1.327 . S
C738 H763 0.950 . S
C739 C738 1.349 . S
C739 C755 1.349 . S
C740 C738 1.327 . S
C740 C759 1.429 . S
C740 H764 0.950 . S
C741 C758 1.574 . S
C741 C760 1.368 . S
C741 H765 0.949 . S
H742 C746 0.949 . S
C743 C744 1.349 . S
C743 C745 1.327 . S
C743 H766 0.950 . S
C744 C743 1.349 . S
C744 C756 1.349 . S
C745 C743 1.327 . S
C745 C761 1.429 . S
C745 H767 0.950 . S
C746 H742 0.949 . S
C746 C754 1.574 . S
C746 C762 1.368 . S
H747 C755 0.950 . S
H748 C753 0.950 . S
H749 C754 0.949 . S
H750 C756 0.950 . S
H751 C757 0.950 . S
H752 C758 0.949 . S
C753 H748 0.950 . S
C753 C755 1.327 . S
C753 C759 1.429 . S
C754 C746 1.574 . S
C754 H749 0.949 . S
C754 C760 1.368 . S
C755 C739 1.349 . S
C755 H747 0.950 . S
C755 C753 1.327 . S
C756 C744 1.349 . S
C756 H750 0.950 . S
C756 C757 1.327 . S
C757 H751 0.950 . S
C757 C756 1.327 . S
C757 C761 1.429 . S
C758 C741 1.574 . S
C758 H752 0.949 . S
C758 C762 1.368 . S
C759 C740 1.429 . S
C759 C753 1.429 . S
C759 C760 1.523 . S
C760 C741 1.368 . S
C760 C754 1.368 . S
C760 C759 1.523 . S
C761 C745 1.429 . S
C761 C757 1.429 . S
C761 C762 1.523 . S
C762 C746 1.368 . S
C762 C758 1.368 . S
C762 C761 1.523 . S
H763 C738 0.950 . S
H764 C740 0.950 . S
H765 C741 0.949 . S
H766 C743 0.950 . S
H767 C745 0.950 . S
C768 C769 1.349 . S
C768 C770 1.327 . S
C768 H793 0.950 . S
C769 C768 1.349 . S
C769 C785 1.349 . S
C770 C768 1.327 . S
C770 C789 1.429 . S
C770 H794 0.950 . S
C771 C788 1.574 . S
C771 C790 1.368 1_554 S
C771 H795 0.949 . S
H772 C776 0.949 . S
C773 C774 1.349 . S
C773 C775 1.327 . S
C773 H796 0.950 . S
C774 C773 1.349 . S
C774 C786 1.349 . S
C775 C773 1.327 . S
C775 C791 1.429 . S
C775 H797 0.950 . S
C776 H772 0.949 . S
C776 C784 1.574 . S
C776 C792 1.368 1_556 S
H777 C785 0.950 . S
H778 C783 0.950 . S
H779 C784 0.949 . S
H780 C786 0.950 . S
H781 C787 0.950 . S
H782 C788 0.949 . S
C783 H778 0.950 . S
C783 C785 1.327 . S
C783 C789 1.429 . S
C784 C776 1.574 . S
C784 H779 0.949 . S
C784 C790 1.368 . S
C785 C769 1.349 . S
C785 H777 0.950 . S
C785 C783 1.327 . S
C786 C774 1.349 . S
C786 H780 0.950 . S
C786 C787 1.327 . S
C787 H781 0.950 . S
C787 C786 1.327 . S
C787 C791 1.429 . S
C788 C771 1.574 . S
C788 H782 0.949 . S
C788 C792 1.368 . S
C789 C770 1.429 . S
C789 C783 1.429 . S
C789 C790 1.523 . S
C790 C771 1.368 1_556 S
C790 C784 1.368 . S
C790 C789 1.523 . S
C791 C775 1.429 . S
C791 C787 1.429 . S
C791 C792 1.523 . S
C792 C776 1.368 1_554 S
C792 C788 1.368 . S
C792 C791 1.523 . S
H793 C768 0.950 . S
H794 C770 0.950 . S
H795 C771 0.949 . S
H796 C773 0.950 . S
H797 C775 0.950 . S
C798 C799 1.349 . S
C798 C800 1.327 . S
C798 H823 0.950 . S
C799 C798 1.349 . S
C799 C815 1.349 . S
C800 C798 1.327 . S
C800 C819 1.429 . S
C800 H824 0.950 . S
C801 C818 1.574 . S
C801 C820 1.368 . S
C801 H825 0.949 . S
H802 C806 0.949 . S
C803 C804 1.349 . S
C803 C805 1.327 . S
C803 H826 0.950 . S
C804 C803 1.349 . S
C804 C816 1.349 . S
C805 C803 1.327 . S
C805 C821 1.429 . S
C805 H827 0.950 . S
C806 H802 0.949 . S
C806 C814 1.574 . S
C806 C822 1.368 . S
H807 C815 0.950 . S
H808 C813 0.950 . S
H809 C814 0.949 . S
H810 C816 0.950 . S
H811 C817 0.950 . S
H812 C818 0.949 . S
C813 H808 0.950 . S
C813 C815 1.327 . S
C813 C819 1.429 . S
C814 C806 1.574 . S
C814 H809 0.949 . S
C814 C820 1.368 . S
C815 C799 1.349 . S
C815 H807 0.950 . S
C815 C813 1.327 . S
C816 C804 1.349 . S
C816 H810 0.950 . S
C816 C817 1.327 . S
C817 H811 0.950 . S
C817 C816 1.327 . S
C817 C821 1.429 . S
C818 C801 1.574 . S
C818 H812 0.949 . S
C818 C822 1.368 . S
C819 C800 1.429 . S
C819 C813 1.429 . S
C819 C820 1.523 . S
C820 C801 1.368 . S
C820 C814 1.368 . S
C820 C819 1.523 . S
C821 C805 1.429 . S
C821 C817 1.429 . S
C821 C822 1.523 . S
C822 C806 1.368 . S
C822 C818 1.368 . S
C822 C821 1.523 . S
H823 C798 0.950 . S
H824 C800 0.950 . S
H825 C801 0.949 . S
H826 C803 0.950 . S
H827 C805 0.950 . S
C828 C829 1.349 . S
C828 C830 1.327 . S
C828 H853 0.950 . S
C829 C828 1.349 . S
C829 C845 1.349 . S
C830 C828 1.327 . S
C830 C849 1.429 . S
C830 H854 0.950 . S
C831 C848 1.574 1_554 S
C831 C850 1.368 . S
C831 H855 0.949 . S
H832 C836 0.949 . S
C833 C834 1.349 . S
C833 C835 1.327 . S
C833 H856 0.950 . S
C834 C833 1.349 . S
C834 C846 1.349 . S
C835 C833 1.327 . S
C835 C851 1.429 . S
C835 H857 0.950 . S
C836 H832 0.949 . S
C836 C844 1.574 1_556 S
C836 C852 1.368 . S
H837 C845 0.950 . S
H838 C843 0.950 . S
H839 C844 0.949 . S
H840 C846 0.950 . S
H841 C847 0.950 . S
H842 C848 0.949 . S
C843 H838 0.950 . S
C843 C845 1.327 . S
C843 C849 1.429 . S
C844 C836 1.574 1_554 S
C844 H839 0.949 . S
C844 C850 1.368 . S
C845 C829 1.349 . S
C845 H837 0.950 . S
C845 C843 1.327 . S
C846 C834 1.349 . S
C846 H840 0.950 . S
C846 C847 1.327 . S
C847 H841 0.950 . S
C847 C846 1.327 . S
C847 C851 1.429 . S
C848 C831 1.574 1_556 S
C848 H842 0.949 . S
C848 C852 1.368 . S
C849 C830 1.429 . S
C849 C843 1.429 . S
C849 C850 1.523 . S
C850 C831 1.368 . S
C850 C844 1.368 . S
C850 C849 1.523 . S
C851 C835 1.429 . S
C851 C847 1.429 . S
C851 C852 1.523 . S
C852 C836 1.368 . S
C852 C848 1.368 . S
C852 C851 1.523 . S
H853 C828 0.950 . S
H854 C830 0.950 . S
H855 C831 0.949 . S
H856 C833 0.950 . S
H857 C835 0.950 . S
C858 C859 1.349 . S
C858 C860 1.327 . S
C858 H883 0.950 . S
C859 C858 1.349 . S
C859 C875 1.349 . S
C860 C858 1.327 . S
C860 C879 1.429 . S
C860 H884 0.950 . S
C861 C878 1.574 . S
C861 C880 1.368 . S
C861 H885 0.949 . S
H862 C866 0.949 . S
C863 C864 1.349 . S
C863 C865 1.327 . S
C863 H886 0.950 . S
C864 C863 1.349 . S
C864 C876 1.349 . S
C865 C863 1.327 . S
C865 C881 1.429 . S
C865 H887 0.950 . S
C866 H862 0.949 . S
C866 C874 1.574 . S
C866 C882 1.368 . S
H867 C875 0.950 . S
H868 C873 0.950 . S
H869 C874 0.949 . S
H870 C876 0.950 . S
H871 C877 0.950 . S
H872 C878 0.949 . S
C873 H868 0.950 . S
C873 C875 1.327 . S
C873 C879 1.429 . S
C874 C866 1.574 . S
C874 H869 0.949 . S
C874 C880 1.368 . S
C875 C859 1.349 . S
C875 H867 0.950 . S
C875 C873 1.327 . S
C876 C864 1.349 . S
C876 H870 0.950 . S
C876 C877 1.327 . S
C877 H871 0.950 . S
C877 C876 1.327 . S
C877 C881 1.429 . S
C878 C861 1.574 . S
C878 H872 0.949 . S
C878 C882 1.368 . S
C879 C860 1.429 . S
C879 C873 1.429 . S
C879 C880 1.523 . S
C880 C861 1.368 . S
C880 C874 1.368 . S
C880 C879 1.523 . S
C881 C865 1.429 . S
C881 C877 1.429 . S
C881 C882 1.523 . S
C882 C866 1.368 . S
C882 C878 1.368 . S
C882 C881 1.523 . S
H883 C858 0.950 . S
H884 C860 0.950 . S
H885 C861 0.949 . S
H886 C863 0.950 . S
H887 C865 0.950 . S
C888 C889 1.349 . S
C888 C890 1.327 . S
C888 H913 0.950 . S
C889 C888 1.349 . S
C889 C905 1.349 . S
C890 C888 1.327 . S
C890 C909 1.429 . S
C890 H914 0.950 . S
C891 C908 1.574 1_554 S
C891 C910 1.368 . S
C891 H915 0.949 . S
H892 C896 0.949 . S
C893 C894 1.349 . S
C893 C895 1.327 . S
C893 H916 0.950 . S
C894 C893 1.349 . S
C894 C906 1.349 . S
C895 C893 1.327 . S
C895 C911 1.429 . S
C895 H917 0.950 . S
C896 H892 0.949 . S
C896 C904 1.574 1_556 S
C896 C912 1.368 . S
H897 C905 0.950 . S
H898 C903 0.950 . S
H899 C904 0.949 . S
H900 C906 0.950 . S
H901 C907 0.950 . S
H902 C908 0.949 . S
C903 H898 0.950 . S
C903 C905 1.327 . S
C903 C909 1.429 . S
C904 C896 1.574 1_554 S
C904 H899 0.949 . S
C904 C910 1.368 . S
C905 C889 1.349 . S
C905 H897 0.950 . S
C905 C903 1.327 . S
C906 C894 1.349 . S
C906 H900 0.950 . S
C906 C907 1.327 . S
C907 H901 0.950 . S
C907 C906 1.327 . S
C907 C911 1.429 . S
C908 C891 1.574 1_556 S
C908 H902 0.949 . S
C908 C912 1.368 . S
C909 C890 1.429 . S
C909 C903 1.429 . S
C909 C910 1.523 . S
C910 C891 1.368 . S
C910 C904 1.368 . S
C910 C909 1.523 . S
C911 C895 1.429 . S
C911 C907 1.429 . S
C911 C912 1.523 . S
C912 C896 1.368 . S
C912 C908 1.368 . S
C912 C911 1.523 . S
H913 C888 0.950 . S
H914 C890 0.950 . S
H915 C891 0.949 . S
H916 C893 0.950 . S
H917 C895 0.950 . S
C918 C919 1.349 . S
C918 C920 1.327 . S
C918 H943 0.950 . S
C919 C918 1.349 . S
C919 C935 1.349 . S
C920 C918 1.327 . S
C920 C939 1.429 . S
C920 H944 0.950 . S
C921 C938 1.574 . S
C921 C940 1.368 . S
C921 H945 0.949 . S
H922 C926 0.949 . S
C923 C924 1.349 . S
C923 C925 1.327 . S
C923 H946 0.950 . S
C924 C923 1.349 . S
C924 C936 1.349 . S
C925 C923 1.327 . S
C925 C941 1.429 . S
C925 H947 0.950 . S
C926 H922 0.949 . S
C926 C934 1.574 . S
C926 C942 1.368 . S
H927 C935 0.950 . S
H928 C933 0.950 . S
H929 C934 0.949 . S
H930 C936 0.950 . S
H931 C937 0.950 . S
H932 C938 0.949 . S
C933 H928 0.950 . S
C933 C935 1.327 . S
C933 C939 1.429 . S
C934 C926 1.574 . S
C934 H929 0.949 . S
C934 C940 1.368 . S
C935 C919 1.349 . S
C935 H927 0.950 . S
C935 C933 1.327 . S
C936 C924 1.349 . S
C936 H930 0.950 . S
C936 C937 1.327 . S
C937 H931 0.950 . S
C937 C936 1.327 . S
C937 C941 1.429 . S
C938 C921 1.574 . S
C938 H932 0.949 . S
C938 C942 1.368 . S
C939 C920 1.429 . S
C939 C933 1.429 . S
C939 C940 1.523 . S
C940 C921 1.368 . S
C940 C934 1.368 . S
C940 C939 1.523 . S
C941 C925 1.429 . S
C941 C937 1.429 . S
C941 C942 1.523 . S
C942 C926 1.368 . S
C942 C938 1.368 . S
C942 C941 1.523 . S
H943 C918 0.950 . S
H944 C920 0.950 . S
H945 C921 0.949 . S
H946 C923 0.950 . S
H947 C925 0.950 . S
C948 C949 1.349 . S
C948 C950 1.327 . S
C948 H973 0.950 . S
C949 C948 1.349 . S
C949 C965 1.349 . S
C950 C948 1.327 . S
C950 C969 1.429 . S
C950 H974 0.950 . S
C951 C968 1.574 . S
C951 C970 1.368 . S
C951 H975 0.949 . S
H952 C956 0.949 . S
C953 C954 1.349 . S
C953 C955 1.327 . S
C953 H976 0.950 . S
C954 C953 1.349 . S
C954 C966 1.349 . S
C955 C953 1.327 . S
C955 C971 1.429 . S
C955 H977 0.950 . S
C956 H952 0.949 . S
C956 C964 1.574 . S
C956 C972 1.368 . S
H957 C965 0.950 . S
H958 C963 0.950 . S
H959 C964 0.949 . S
H960 C966 0.950 . S
H961 C967 0.950 . S
H962 C968 0.949 . S
C963 H958 0.950 . S
C963 C965 1.327 . S
C963 C969 1.429 . S
C964 C956 1.574 . S
C964 H959 0.949 . S
C964 C970 1.368 1_554 S
C965 C949 1.349 . S
C965 H957 0.950 . S
C965 C963 1.327 . S
C966 C954 1.349 . S
C966 H960 0.950 . S
C966 C967 1.327 . S
C967 H961 0.950 . S
C967 C966 1.327 . S
C967 C971 1.429 . S
C968 C951 1.574 . S
C968 H962 0.949 . S
C968 C972 1.368 1_556 S
C969 C950 1.429 . S
C969 C963 1.429 . S
C969 C970 1.523 . S
C970 C951 1.368 . S
C970 C964 1.368 1_556 S
C970 C969 1.523 . S
C971 C955 1.429 . S
C971 C967 1.429 . S
C971 C972 1.523 . S
C972 C956 1.368 . S
C972 C968 1.368 1_554 S
C972 C971 1.523 . S
H973 C948 0.950 . S
H974 C950 0.950 . S
H975 C951 0.949 . S
H976 C953 0.950 . S
H977 C955 0.950 . S
C978 C979 1.349 . S
C978 C980 1.327 . S
C978 H1003 0.950 . S
C979 C978 1.349 . S
C979 C995 1.349 . S
C980 C978 1.327 . S
C980 C999 1.429 . S
C980 H1004 0.950 . S
C981 C998 1.574 . S
C981 C1000 1.368 . S
C981 H1005 0.949 . S
H982 C986 0.949 . S
C983 C984 1.349 . S
C983 C985 1.327 . S
C983 H1006 0.950 . S
C984 C983 1.349 . S
C984 C996 1.349 . S
C985 C983 1.327 . S
C985 C1001 1.429 . S
C985 H1007 0.950 . S
C986 H982 0.949 . S
C986 C994 1.574 . S
C986 C1002 1.368 . S
H987 C995 0.950 . S
H988 C993 0.950 . S
H989 C994 0.949 . S
H990 C996 0.950 . S
H991 C997 0.950 . S
H992 C998 0.949 . S
C993 H988 0.950 . S
C993 C995 1.327 . S
C993 C999 1.429 . S
C994 C986 1.574 . S
C994 H989 0.949 . S
C994 C1000 1.368 . S
C995 C979 1.349 . S
C995 H987 0.950 . S
C995 C993 1.327 . S
C996 C984 1.349 . S
C996 H990 0.950 . S
C996 C997 1.327 . S
C997 H991 0.950 . S
C997 C996 1.327 . S
C997 C1001 1.429 . S
C998 C981 1.574 . S
C998 H992 0.949 . S
C998 C1002 1.368 . S
C999 C980 1.429 . S
C999 C993 1.429 . S
C999 C1000 1.523 . S
C1000 C981 1.368 . S
C1000 C994 1.368 . S
C1000 C999 1.523 . S
C1001 C985 1.429 . S
C1001 C997 1.429 . S
C1001 C1002 1.523 . S
C1002 C986 1.368 . S
C1002 C998 1.368 . S
C1002 C1001 1.523 . S
H1003 C978 0.950 . S
H1004 C980 0.950 . S
H1005 C981 0.949 . S
H1006 C983 0.950 . S
H1007 C985 0.950 . S
C1008 C1009 1.349 . S
C1008 C1010 1.327 . S
C1008 H1033 0.950 . S
C1009 C1008 1.349 . S
C1009 C1025 1.349 . S
C1010 C1008 1.327 . S
C1010 C1029 1.429 . S
C1010 H1034 0.950 . S
C1011 C1028 1.574 . S
C1011 C1030 1.368 . S
C1011 H1035 0.949 . S
H1012 C1016 0.949 . S
C1013 C1014 1.349 . S
C1013 C1015 1.327 . S
C1013 H1036 0.950 . S
C1014 C1013 1.349 . S
C1014 C1026 1.349 . S
C1015 C1013 1.327 . S
C1015 C1031 1.429 . S
C1015 H1037 0.950 . S
C1016 H1012 0.949 . S
C1016 C1024 1.574 . S
C1016 C1032 1.368 . S
H1017 C1025 0.950 . S
H1018 C1023 0.950 . S
H1019 C1024 0.949 . S
H1020 C1026 0.950 . S
H1021 C1027 0.950 . S
H1022 C1028 0.949 . S
C1023 H1018 0.950 . S
C1023 C1025 1.327 . S
C1023 C1029 1.429 . S
C1024 C1016 1.574 . S
C1024 H1019 0.949 . S
C1024 C1030 1.368 1_556 S
C1025 C1009 1.349 . S
C1025 H1017 0.950 . S
C1025 C1023 1.327 . S
C1026 C1014 1.349 . S
C1026 H1020 0.950 . S
C1026 C1027 1.327 . S
C1027 H1021 0.950 . S
C1027 C1026 1.327 . S
C1027 C1031 1.429 . S
C1028 C1011 1.574 . S
C1028 H1022 0.949 . S
C1028 C1032 1.368 1_554 S
C1029 C1010 1.429 . S
C1029 C1023 1.429 . S
C1029 C1030 1.523 . S
C1030 C1011 1.368 . S
C1030 C1024 1.368 1_554 S
C1030 C1029 1.523 . S
C1031 C1015 1.429 . S
C1031 C1027 1.429 . S
C1031 C1032 1.523 . S
C1032 C1016 1.368 . S
C1032 C1028 1.368 1_556 S
C1032 C1031 1.523 . S
H1033 C1008 0.950 . S
H1034 C1010 0.950 . S
H1035 C1011 0.949 . S
H1036 C1013 0.950 . S
H1037 C1015 0.950 . S
C1038 C1039 1.349 . S
C1038 C1040 1.327 . S
C1038 H1063 0.950 . S
C1039 C1038 1.349 . S
C1039 C1055 1.349 . S
C1040 C1038 1.327 . S
C1040 C1059 1.429 . S
C1040 H1064 0.950 . S
C1041 C1058 1.574 . S
C1041 C1060 1.368 . S
C1041 H1065 0.949 . S
H1042 C1046 0.949 . S
C1043 C1044 1.349 . S
C1043 C1045 1.327 . S
C1043 H1066 0.950 . S
C1044 C1043 1.349 . S
C1044 C1056 1.349 . S
C1045 C1043 1.327 . S
C1045 C1061 1.429 . S
C1045 H1067 0.950 . S
C1046 H1042 0.949 . S
C1046 C1054 1.574 . S
C1046 C1062 1.368 . S
H1047 C1055 0.950 . S
H1048 C1053 0.950 . S
H1049 C1054 0.949 . S
H1050 C1056 0.950 . S
H1051 C1057 0.950 . S
H1052 C1058 0.949 . S
C1053 H1048 0.950 . S
C1053 C1055 1.327 . S
C1053 C1059 1.429 . S
C1054 C1046 1.574 . S
C1054 H1049 0.949 . S
C1054 C1060 1.368 . S
C1055 C1039 1.349 . S
C1055 H1047 0.950 . S
C1055 C1053 1.327 . S
C1056 C1044 1.349 . S
C1056 H1050 0.950 . S
C1056 C1057 1.327 . S
C1057 H1051 0.950 . S
C1057 C1056 1.327 . S
C1057 C1061 1.429 . S
C1058 C1041 1.574 . S
C1058 H1052 0.949 . S
C1058 C1062 1.368 . S
C1059 C1040 1.429 . S
C1059 C1053 1.429 . S
C1059 C1060 1.523 . S
C1060 C1041 1.368 . S
C1060 C1054 1.368 . S
C1060 C1059 1.523 . S
C1061 C1045 1.429 . S
C1061 C1057 1.429 . S
C1061 C1062 1.523 . S
C1062 C1046 1.368 . S
C1062 C1058 1.368 . S
C1062 C1061 1.523 . S
H1063 C1038 0.950 . S
H1064 C1040 0.950 . S
H1065 C1041 0.949 . S
H1066 C1043 0.950 . S
H1067 C1045 0.950 . S
C1068 C1069 1.349 . S
C1068 C1070 1.327 . S
C1068 H1093 0.950 . S
C1069 C1068 1.349 . S
C1069 C1085 1.349 . S
C1070 C1068 1.327 . S
C1070 C1089 1.429 . S
C1070 H1094 0.950 . S
C1071 C1088 1.574 . S
C1071 C1090 1.368 1_556 S
C1071 H1095 0.949 . S
H1072 C1076 0.949 . S
C1073 C1074 1.349 . S
C1073 C1075 1.327 . S
C1073 H1096 0.950 . S
C1074 C1073 1.349 . S
C1074 C1086 1.349 . S
C1075 C1073 1.327 . S
C1075 C1091 1.429 . S
C1075 H1097 0.950 . S
C1076 H1072 0.949 . S
C1076 C1084 1.574 . S
C1076 C1092 1.368 1_554 S
H1077 C1085 0.950 . S
H1078 C1083 0.950 . S
H1079 C1084 0.949 . S
H1080 C1086 0.950 . S
H1081 C1087 0.950 . S
H1082 C1088 0.949 . S
C1083 H1078 0.950 . S
C1083 C1085 1.327 . S
C1083 C1089 1.429 . S
C1084 C1076 1.574 . S
C1084 H1079 0.949 . S
C1084 C1090 1.368 . S
C1085 C1069 1.349 . S
C1085 H1077 0.950 . S
C1085 C1083 1.327 . S
C1086 C1074 1.349 . S
C1086 H1080 0.950 . S
C1086 C1087 1.327 . S
C1087 H1081 0.950 . S
C1087 C1086 1.327 . S
C1087 C1091 1.429 . S
C1088 C1071 1.574 . S
C1088 H1082 0.949 . S
C1088 C1092 1.368 . S
C1089 C1070 1.429 . S
C1089 C1083 1.429 . S
C1089 C1090 1.523 . S
C1090 C1071 1.368 1_554 S
C1090 C1084 1.368 . S
C1090 C1089 1.523 . S
C1091 C1075 1.429 . S
C1091 C1087 1.429 . S
C1091 C1092 1.523 . S
C1092 C1076 1.368 1_556 S
C1092 C1088 1.368 . S
C1092 C1091 1.523 . S
H1093 C1068 0.950 . S
H1094 C1070 0.950 . S
H1095 C1071 0.949 . S
H1096 C1073 0.950 . S
H1097 C1075 0.950 . S
C1098 C1099 1.349 . S
C1098 C1100 1.327 . S
C1098 H1123 0.950 . S
C1099 C1098 1.349 . S
C1099 C1115 1.349 . S
C1100 C1098 1.327 . S
C1100 C1119 1.429 . S
C1100 H1124 0.950 . S
C1101 C1118 1.574 . S
C1101 C1120 1.368 . S
C1101 H1125 0.949 . S
H1102 C1106 0.949 . S
C1103 C1104 1.349 . S
C1103 C1105 1.327 . S
C1103 H1126 0.950 . S
C1104 C1103 1.349 . S
C1104 C1116 1.349 . S
C1105 C1103 1.327 . S
C1105 C1121 1.429 . S
C1105 H1127 0.950 . S
C1106 H1102 0.949 . S
C1106 C1114 1.574 . S
C1106 C1122 1.368 . S
H1107 C1115 0.950 . S
H1108 C1113 0.950 . S
H1109 C1114 0.949 . S
H1110 C1116 0.950 . S
H1111 C1117 0.950 . S
H1112 C1118 0.949 . S
C1113 H1108 0.950 . S
C1113 C1115 1.327 . S
C1113 C1119 1.429 . S
C1114 C1106 1.574 . S
C1114 H1109 0.949 . S
C1114 C1120 1.368 . S
C1115 C1099 1.349 . S
C1115 H1107 0.950 . S
C1115 C1113 1.327 . S
C1116 C1104 1.349 . S
C1116 H1110 0.950 . S
C1116 C1117 1.327 . S
C1117 H1111 0.950 . S
C1117 C1116 1.327 . S
C1117 C1121 1.429 . S
C1118 C1101 1.574 . S
C1118 H1112 0.949 . S
C1118 C1122 1.368 . S
C1119 C1100 1.429 . S
C1119 C1113 1.429 . S
C1119 C1120 1.523 . S
C1120 C1101 1.368 . S
C1120 C1114 1.368 . S
C1120 C1119 1.523 . S
C1121 C1105 1.429 . S
C1121 C1117 1.429 . S
C1121 C1122 1.523 . S
C1122 C1106 1.368 . S
C1122 C1118 1.368 . S
C1122 C1121 1.523 . S
H1123 C1098 0.950 . S
H1124 C1100 0.950 . S
H1125 C1101 0.949 . S
H1126 C1103 0.950 . S
H1127 C1105 0.950 . S
C1128 C1129 1.349 . S
C1128 C1130 1.327 . S
C1128 H1153 0.950 . S
C1129 C1128 1.349 . S
C1129 C1145 1.349 . S
C1130 C1128 1.327 . S
C1130 C1149 1.429 . S
C1130 H1154 0.950 . S
C1131 C1148 1.574 . S
C1131 C1150 1.368 . S
C1131 H1155 0.949 . S
H1132 C1136 0.949 . S
C1133 C1134 1.349 . S
C1133 C1135 1.327 . S
C1133 H1156 0.950 . S
C1134 C1133 1.349 . S
C1134 C1146 1.349 . S
C1135 C1133 1.327 . S
C1135 C1151 1.429 . S
C1135 H1157 0.950 . S
C1136 H1132 0.949 . S
C1136 C1144 1.574 . S
C1136 C1152 1.368 . S
H1137 C1145 0.950 . S
H1138 C1143 0.950 . S
H1139 C1144 0.949 . S
H1140 C1146 0.950 . S
H1141 C1147 0.950 . S
H1142 C1148 0.949 . S
C1143 H1138 0.950 . S
C1143 C1145 1.327 . S
C1143 C1149 1.429 . S
C1144 C1136 1.574 . S
C1144 H1139 0.949 . S
C1144 C1150 1.368 . S
C1145 C1129 1.349 . S
C1145 H1137 0.950 . S
C1145 C1143 1.327 . S
C1146 C1134 1.349 . S
C1146 H1140 0.950 . S
C1146 C1147 1.327 . S
C1147 H1141 0.950 . S
C1147 C1146 1.327 . S
C1147 C1151 1.429 . S
C1148 C1131 1.574 . S
C1148 H1142 0.949 . S
C1148 C1152 1.368 . S
C1149 C1130 1.429 . S
C1149 C1143 1.429 . S
C1149 C1150 1.523 . S
C1150 C1131 1.368 . S
C1150 C1144 1.368 . S
C1150 C1149 1.523 . S
C1151 C1135 1.429 . S
C1151 C1147 1.429 . S
C1151 C1152 1.523 . S
C1152 C1136 1.368 . S
C1152 C1148 1.368 . S
C1152 C1151 1.523 . S
H1153 C1128 0.950 . S
H1154 C1130 0.950 . S
H1155 C1131 0.949 . S
H1156 C1133 0.950 . S
H1157 C1135 0.950 . S
C1158 C1159 1.349 . S
C1158 C1160 1.327 . S
C1158 H1183 0.950 . S
C1159 C1158 1.349 . S
C1159 C1175 1.349 . S
C1160 C1158 1.327 . S
C1160 C1179 1.429 . S
C1160 H1184 0.950 . S
C1161 C1178 1.574 1_455 S
C1161 C1180 1.368 . S
C1161 H1185 0.949 . S
H1162 C1166 0.949 . S
C1163 C1164 1.349 . S
C1163 C1165 1.327 . S
C1163 H1186 0.950 . S
C1164 C1163 1.349 . S
C1164 C1176 1.349 . S
C1165 C1163 1.327 . S
C1165 C1181 1.429 . S
C1165 H1187 0.950 . S
C1166 H1162 0.949 . S
C1166 C1174 1.574 1_655 S
C1166 C1182 1.368 . S
H1167 C1175 0.950 . S
H1168 C1173 0.950 . S
H1169 C1174 0.949 . S
H1170 C1176 0.950 . S
H1171 C1177 0.950 . S
H1172 C1178 0.949 . S
C1173 H1168 0.950 . S
C1173 C1175 1.327 . S
C1173 C1179 1.429 . S
C1174 C1166 1.574 1_455 S
C1174 H1169 0.949 . S
C1174 C1180 1.368 . S
C1175 C1159 1.349 . S
C1175 H1167 0.950 . S
C1175 C1173 1.327 . S
C1176 C1164 1.349 . S
C1176 H1170 0.950 . S
C1176 C1177 1.327 . S
C1177 H1171 0.950 . S
C1177 C1176 1.327 . S
C1177 C1181 1.429 . S
C1178 C1161 1.574 1_655 S
C1178 H1172 0.949 . S
C1178 C1182 1.368 . S
C1179 C1160 1.429 . S
C1179 C1173 1.429 . S
C1179 C1180 1.523 . S
C1180 C1161 1.368 . S
C1180 C1174 1.368 . S
C1180 C1179 1.523 . S
C1181 C1165 1.429 . S
C1181 C1177 1.429 . S
C1181 C1182 1.523 . S
C1182 C1166 1.368 . S
C1182 C1178 1.368 . S
C1182 C1181 1.523 . S
H1183 C1158 0.950 . S
H1184 C1160 0.950 . S
H1185 C1161 0.949 . S
H1186 C1163 0.950 . S
H1187 C1165 0.950 . S
C1188 C1189 1.349 . S
C1188 C1190 1.327 . S
C1188 H1213 0.950 . S
C1189 C1188 1.349 . S
C1189 C1205 1.349 . S
C1190 C1188 1.327 . S
C1190 C1209 1.429 . S
C1190 H1214 0.950 . S
C1191 C1208 1.574 1_545 S
C1191 C1210 1.368 . S
C1191 H1215 0.949 . S
H1192 C1196 0.949 . S
C1193 C1194 1.349 . S
C1193 C1195 1.327 . S
C1193 H1216 0.950 . S
C1194 C1193 1.349 . S
C1194 C1206 1.349 . S
C1195 C1193 1.327 . S
C1195 C1211 1.429 . S
C1195 H1217 0.950 . S
C1196 H1192 0.949 . S
C1196 C1204 1.574 1_565 S
C1196 C1212 1.368 . S
H1197 C1205 0.950 . S
H1198 C1203 0.950 . S
H1199 C1204 0.949 . S
H1200 C1206 0.950 . S
H1201 C1207 0.950 . S
H1202 C1208 0.949 . S
C1203 H1198 0.950 . S
C1203 C1205 1.327 . S
C1203 C1209 1.429 . S
C1204 C1196 1.574 1_545 S
C1204 H1199 0.949 . S
C1204 C1210 1.368 . S
C1205 C1189 1.349 . S
C1205 H1197 0.950 . S
C1205 C1203 1.327 . S
C1206 C1194 1.349 . S
C1206 H1200 0.950 . S
C1206 C1207 1.327 . S
C1207 H1201 0.950 . S
C1207 C1206 1.327 . S
C1207 C1211 1.429 . S
C1208 C1191 1.574 1_565 S
C1208 H1202 0.949 . S
C1208 C1212 1.368 . S
C1209 C1190 1.429 . S
C1209 C1203 1.429 . S
C1209 C1210 1.523 . S
C1210 C1191 1.368 . S
C1210 C1204 1.368 . S
C1210 C1209 1.523 . S
C1211 C1195 1.429 . S
C1211 C1207 1.429 . S
C1211 C1212 1.523 . S
C1212 C1196 1.368 . S
C1212 C1208 1.368 . S
C1212 C1211 1.523 . S
H1213 C1188 0.950 . S
H1214 C1190 0.950 . S
H1215 C1191 0.949 . S
H1216 C1193 0.950 . S
H1217 C1195 0.950 . S
C1218 C1219 1.349 . S
C1218 C1220 1.327 . S
C1218 H1243 0.950 . S
C1219 C1218 1.349 . S
C1219 C1235 1.349 . S
C1220 C1218 1.327 . S
C1220 C1239 1.429 . S
C1220 H1244 0.950 . S
C1221 C1238 1.574 . S
C1221 C1240 1.368 . S
C1221 H1245 0.949 . S
H1222 C1226 0.949 . S
C1223 C1224 1.349 . S
C1223 C1225 1.327 . S
C1223 H1246 0.950 . S
C1224 C1223 1.349 . S
C1224 C1236 1.349 . S
C1225 C1223 1.327 . S
C1225 C1241 1.429 . S
C1225 H1247 0.950 . S
C1226 H1222 0.949 . S
C1226 C1234 1.574 . S
C1226 C1242 1.368 . S
H1227 C1235 0.950 . S
H1228 C1233 0.950 . S
H1229 C1234 0.949 . S
H1230 C1236 0.950 . S
H1231 C1237 0.950 . S
H1232 C1238 0.949 . S
C1233 H1228 0.950 . S
C1233 C1235 1.327 . S
C1233 C1239 1.429 . S
C1234 C1226 1.574 . S
C1234 H1229 0.949 . S
C1234 C1240 1.368 . S
C1235 C1219 1.349 . S
C1235 H1227 0.950 . S
C1235 C1233 1.327 . S
C1236 C1224 1.349 . S
C1236 H1230 0.950 . S
C1236 C1237 1.327 . S
C1237 H1231 0.950 . S
C1237 C1236 1.327 . S
C1237 C1241 1.429 . S
C1238 C1221 1.574 . S
C1238 H1232 0.949 . S
C1238 C1242 1.368 . S
C1239 C1220 1.429 . S
C1239 C1233 1.429 . S
C1239 C1240 1.523 . S
C1240 C1221 1.368 . S
C1240 C1234 1.368 . S
C1240 C1239 1.523 . S
C1241 C1225 1.429 . S
C1241 C1237 1.429 . S
C1241 C1242 1.523 . S
C1242 C1226 1.368 . S
C1242 C1238 1.368 . S
C1242 C1241 1.523 . S
H1243 C1218 0.950 . S
H1244 C1220 0.950 . S
H1245 C1221 0.949 . S
H1246 C1223 0.950 . S
H1247 C1225 0.950 . S
C1248 C1249 1.349 . S
C1248 C1250 1.327 . S
C1248 H1273 0.950 . S
C1249 C1248 1.349 . S
C1249 C1265 1.349 . S
C1250 C1248 1.327 . S
C1250 C1269 1.429 . S
C1250 H1274 0.950 . S
C1251 C1268 1.574 1_455 S
C1251 C1270 1.368 . S
C1251 H1275 0.949 . S
H1252 C1256 0.949 . S
C1253 C1254 1.349 . S
C1253 C1255 1.327 . S
C1253 H1276 0.950 . S
C1254 C1253 1.349 . S
C1254 C1266 1.349 . S
C1255 C1253 1.327 . S
C1255 C1271 1.429 . S
C1255 H1277 0.950 . S
C1256 H1252 0.949 . S
C1256 C1264 1.574 1_655 S
C1256 C1272 1.368 . S
H1257 C1265 0.950 . S
H1258 C1263 0.950 . S
H1259 C1264 0.949 . S
H1260 C1266 0.950 . S
H1261 C1267 0.950 . S
H1262 C1268 0.949 . S
C1263 H1258 0.950 . S
C1263 C1265 1.327 . S
C1263 C1269 1.429 . S
C1264 C1256 1.574 1_455 S
C1264 H1259 0.949 . S
C1264 C1270 1.368 . S
C1265 C1249 1.349 . S
C1265 H1257 0.950 . S
C1265 C1263 1.327 . S
C1266 C1254 1.349 . S
C1266 H1260 0.950 . S
C1266 C1267 1.327 . S
C1267 H1261 0.950 . S
C1267 C1266 1.327 . S
C1267 C1271 1.429 . S
C1268 C1251 1.574 1_655 S
C1268 H1262 0.949 . S
C1268 C1272 1.368 . S
C1269 C1250 1.429 . S
C1269 C1263 1.429 . S
C1269 C1270 1.523 . S
C1270 C1251 1.368 . S
C1270 C1264 1.368 . S
C1270 C1269 1.523 . S
C1271 C1255 1.429 . S
C1271 C1267 1.429 . S
C1271 C1272 1.523 . S
C1272 C1256 1.368 . S
C1272 C1268 1.368 . S
C1272 C1271 1.523 . S
H1273 C1248 0.950 . S
H1274 C1250 0.950 . S
H1275 C1251 0.949 . S
H1276 C1253 0.950 . S
H1277 C1255 0.950 . S
C1278 C1279 1.349 . S
C1278 C1280 1.327 . S
C1278 H1303 0.950 . S
C1279 C1278 1.349 . S
C1279 C1295 1.349 . S
C1280 C1278 1.327 . S
C1280 C1299 1.429 . S
C1280 H1304 0.950 . S
C1281 C1298 1.574 1_565 S
C1281 C1300 1.368 . S
C1281 H1305 0.949 . S
H1282 C1286 0.949 . S
C1283 C1284 1.349 . S
C1283 C1285 1.327 . S
C1283 H1306 0.950 . S
C1284 C1283 1.349 . S
C1284 C1296 1.349 . S
C1285 C1283 1.327 . S
C1285 C1301 1.429 . S
C1285 H1307 0.950 . S
C1286 H1282 0.949 . S
C1286 C1294 1.574 1_545 S
C1286 C1302 1.368 . S
H1287 C1295 0.950 . S
H1288 C1293 0.950 . S
H1289 C1294 0.949 . S
H1290 C1296 0.950 . S
H1291 C1297 0.950 . S
H1292 C1298 0.949 . S
C1293 H1288 0.950 . S
C1293 C1295 1.327 . S
C1293 C1299 1.429 . S
C1294 C1286 1.574 1_565 S
C1294 H1289 0.949 . S
C1294 C1300 1.368 . S
C1295 C1279 1.349 . S
C1295 H1287 0.950 . S
C1295 C1293 1.327 . S
C1296 C1284 1.349 . S
C1296 H1290 0.950 . S
C1296 C1297 1.327 . S
C1297 H1291 0.950 . S
C1297 C1296 1.327 . S
C1297 C1301 1.429 . S
C1298 C1281 1.574 1_545 S
C1298 H1292 0.949 . S
C1298 C1302 1.368 . S
C1299 C1280 1.429 . S
C1299 C1293 1.429 . S
C1299 C1300 1.523 . S
C1300 C1281 1.368 . S
C1300 C1294 1.368 . S
C1300 C1299 1.523 . S
C1301 C1285 1.429 . S
C1301 C1297 1.429 . S
C1301 C1302 1.523 . S
C1302 C1286 1.368 . S
C1302 C1298 1.368 . S
C1302 C1301 1.523 . S
H1303 C1278 0.950 . S
H1304 C1280 0.950 . S
H1305 C1281 0.949 . S
H1306 C1283 0.950 . S
H1307 C1285 0.950 . S
C409 C2 3.001 . S
C414 C206 3.001 . S
C439 C36 3.001 . S
C444 C240 3.001 . S
C469 C70 3.001 . S
C474 C274 3.001 . S
C499 C308 3.001 . S
C504 C104 3.001 . S
C529 C138 3.001 . S
C534 C342 3.001 . S
C559 C376 3.001 . S
C564 C172 3.001 . S
C589 C311 1.150 . S
C594 C107 1.150 . S
C619 C141 1.150 . S
C624 C345 1.150 . S
C649 C379 1.150 . S
C654 C175 1.150 . S
C679 C209 1.150 . S
C684 C5 1.150 . S
C709 C243 1.150 . S
C714 C39 1.150 . S
C739 C73 1.150 . S
C744 C277 1.150 . S
C769 C349 0.703 . S
C774 C9 0.703 . S
C799 C43 0.703 . S
C804 C383 0.703 . S
C829 C77 0.705 . S
C834 C213 0.705 . S
C859 C111 0.703 . S
C864 C247 0.703 . S
C889 C145 0.703 . S
C894 C281 0.703 . S
C919 C179 0.705 . S
C924 C315 0.705 . S
C949 C122 2.216 . S
C954 C258 2.216 . S
C979 C156 2.216 . S
C984 C292 2.216 . S
C1009 C326 2.217 . S
C1014 C190 2.217 . S
C1039 C20 2.216 . S
C1044 C360 2.216 . S
C1069 C394 2.216 . S
C1074 C54 2.216 . S
C1099 C88 2.217 . S
C1104 C224 2.217 . S
C1129 C33 0.600 . S
C1134 C339 0.600 . S
C1159 C373 0.599 . S
C1164 C67 0.599 . S
C1189 C407 0.601 . S
C1194 C101 0.601 . S
C1219 C237 0.600 . S
C1224 C135 0.600 . S
C1249 C169 0.599 . S
C1254 C271 0.599 . S
C1279 C305 0.601 . S
C1284 C203 0.601 . S
