# Generated by pormake.
# Topology ull, (4)-cn, num edge types: 1
# Building blocks:
#     Node 0, Type 0, BuildingBlock: CEKHIL_clean_sbu_0, # of connection points: 4
#     Node 1, Type 0, BuildingBlock: CEKHIL_clean_sbu_0, # of connection points: 4
#     Node 2, Type 0, BuildingBlock: CEKHIL_clean_sbu_0, # of connection points: 4
#     Node 3, Type 0, BuildingBlock: CEKHIL_clean_sbu_0, # of connection points: 4
#     Node 4, Type 0, BuildingBlock: CEKHIL_clean_sbu_0, # of connection points: 4
#     Node 5, Type 0, BuildingBlock: CEKHIL_clean_sbu_0, # of connection points: 4
#     Node 6, Type 0, BuildingBlock: CEKHIL_clean_sbu_0, # of connection points: 4
#     Node 7, Type 0, BuildingBlock: CEKHIL_clean_sbu_0, # of connection points: 4
#     Node 8, Type 0, BuildingBlock: CEKHIL_clean_sbu_0, # of connection points: 4
#     Node 9, Type 0, BuildingBlock: CEKHIL_clean_sbu_0, # of connection points: 4
#     Node 10, Type 0, BuildingBlock: CEKHIL_clean_sbu_0, # of connection points: 4
#     Node 11, Type 0, BuildingBlock: CEKHIL_clean_sbu_0, # of connection points: 4
#     Node 12, Type 0, BuildingBlock: CEKHIL_clean_sbu_0, # of connection points: 4
#     Node 13, Type 0, BuildingBlock: CEKHIL_clean_sbu_0, # of connection points: 4
#     Node 14, Type 0, BuildingBlock: CEKHIL_clean_sbu_0, # of connection points: 4
#     Node 15, Type 0, BuildingBlock: CEKHIL_clean_sbu_0, # of connection points: 4
#     Node 16, Type 0, BuildingBlock: CEKHIL_clean_sbu_0, # of connection points: 4
#     Node 17, Type 0, BuildingBlock: CEKHIL_clean_sbu_0, # of connection points: 4
#     Node 18, Type 0, BuildingBlock: CEKHIL_clean_sbu_0, # of connection points: 4
#     Node 19, Type 0, BuildingBlock: CEKHIL_clean_sbu_0, # of connection points: 4
#     Node 20, Type 0, BuildingBlock: CEKHIL_clean_sbu_0, # of connection points: 4
#     Node 21, Type 0, BuildingBlock: CEKHIL_clean_sbu_0, # of connection points: 4
#     Node 22, Type 0, BuildingBlock: CEKHIL_clean_sbu_0, # of connection points: 4
#     Node 23, Type 0, BuildingBlock: CEKHIL_clean_sbu_0, # of connection points: 4
#     Node 24, Type 0, BuildingBlock: CEKHIL_clean_sbu_0, # of connection points: 4
#     Node 25, Type 0, BuildingBlock: CEKHIL_clean_sbu_0, # of connection points: 4
#     Node 26, Type 0, BuildingBlock: CEKHIL_clean_sbu_0, # of connection points: 4
#     Node 27, Type 0, BuildingBlock: CEKHIL_clean_sbu_0, # of connection points: 4
#     Node 28, Type 0, BuildingBlock: CEKHIL_clean_sbu_0, # of connection points: 4
#     Node 29, Type 0, BuildingBlock: CEKHIL_clean_sbu_0, # of connection points: 4
#     Node 30, Type 0, BuildingBlock: CEKHIL_clean_sbu_0, # of connection points: 4
#     Node 31, Type 0, BuildingBlock: CEKHIL_clean_sbu_0, # of connection points: 4
#     Node 32, Type 0, BuildingBlock: CEKHIL_clean_sbu_0, # of connection points: 4
#     Node 33, Type 0, BuildingBlock: CEKHIL_clean_sbu_0, # of connection points: 4
#     Node 34, Type 0, BuildingBlock: CEKHIL_clean_sbu_0, # of connection points: 4
#     Node 35, Type 0, BuildingBlock: CEKHIL_clean_sbu_0, # of connection points: 4
#     Node 36, Type 0, BuildingBlock: CEKHIL_clean_sbu_0, # of connection points: 4
#     Node 37, Type 0, BuildingBlock: CEKHIL_clean_sbu_0, # of connection points: 4
#     Node 38, Type 0, BuildingBlock: CEKHIL_clean_sbu_0, # of connection points: 4
#     Node 39, Type 0, BuildingBlock: CEKHIL_clean_sbu_0, # of connection points: 4
#     Node 40, Type 0, BuildingBlock: CEKHIL_clean_sbu_0, # of connection points: 4
#     Node 41, Type 0, BuildingBlock: CEKHIL_clean_sbu_0, # of connection points: 4
#     Node 42, Type 0, BuildingBlock: CEKHIL_clean_sbu_0, # of connection points: 4
#     Node 43, Type 0, BuildingBlock: CEKHIL_clean_sbu_0, # of connection points: 4
#     Node 44, Type 0, BuildingBlock: CEKHIL_clean_sbu_0, # of connection points: 4
#     Node 45, Type 0, BuildingBlock: CEKHIL_clean_sbu_0, # of connection points: 4
#     Node 46, Type 0, BuildingBlock: CEKHIL_clean_sbu_0, # of connection points: 4
#     Node 47, Type 0, BuildingBlock: CEKHIL_clean_sbu_0, # of connection points: 4
#     Edge 48, Type (0, 0), BuildingBlock: CIFDUS_clean_linker_0, # of connection points: 2
#     Edge 49, Type (0, 0), BuildingBlock: CIFDUS_clean_linker_0, # of connection points: 2
#     Edge 50, Type (0, 0), BuildingBlock: CIFDUS_clean_linker_0, # of connection points: 2
#     Edge 51, Type (0, 0), BuildingBlock: CIFDUS_clean_linker_0, # of connection points: 2
#     Edge 52, Type (0, 0), BuildingBlock: CIFDUS_clean_linker_0, # of connection points: 2
#     Edge 53, Type (0, 0), BuildingBlock: CIFDUS_clean_linker_0, # of connection points: 2
#     Edge 54, Type (0, 0), BuildingBlock: CIFDUS_clean_linker_0, # of connection points: 2
#     Edge 55, Type (0, 0), BuildingBlock: CIFDUS_clean_linker_0, # of connection points: 2
#     Edge 56, Type (0, 0), BuildingBlock: CIFDUS_clean_linker_0, # of connection points: 2
#     Edge 57, Type (0, 0), BuildingBlock: CIFDUS_clean_linker_0, # of connection points: 2
#     Edge 58, Type (0, 0), BuildingBlock: CIFDUS_clean_linker_0, # of connection points: 2
#     Edge 59, Type (0, 0), BuildingBlock: CIFDUS_clean_linker_0, # of connection points: 2
#     Edge 60, Type (0, 0), BuildingBlock: CIFDUS_clean_linker_0, # of connection points: 2
#     Edge 61, Type (0, 0), BuildingBlock: CIFDUS_clean_linker_0, # of connection points: 2
#     Edge 62, Type (0, 0), BuildingBlock: CIFDUS_clean_linker_0, # of connection points: 2
#     Edge 63, Type (0, 0), BuildingBlock: CIFDUS_clean_linker_0, # of connection points: 2
#     Edge 64, Type (0, 0), BuildingBlock: CIFDUS_clean_linker_0, # of connection points: 2
#     Edge 65, Type (0, 0), BuildingBlock: CIFDUS_clean_linker_0, # of connection points: 2
#     Edge 66, Type (0, 0), BuildingBlock: CIFDUS_clean_linker_0, # of connection points: 2
#     Edge 67, Type (0, 0), BuildingBlock: CIFDUS_clean_linker_0, # of connection points: 2
#     Edge 68, Type (0, 0), BuildingBlock: CIFDUS_clean_linker_0, # of connection points: 2
#     Edge 69, Type (0, 0), BuildingBlock: CIFDUS_clean_linker_0, # of connection points: 2
#     Edge 70, Type (0, 0), BuildingBlock: CIFDUS_clean_linker_0, # of connection points: 2
#     Edge 71, Type (0, 0), BuildingBlock: CIFDUS_clean_linker_0, # of connection points: 2
#     Edge 72, Type (0, 0), BuildingBlock: CIFDUS_clean_linker_0, # of connection points: 2
#     Edge 73, Type (0, 0), BuildingBlock: CIFDUS_clean_linker_0, # of connection points: 2
#     Edge 74, Type (0, 0), BuildingBlock: CIFDUS_clean_linker_0, # of connection points: 2
#     Edge 75, Type (0, 0), BuildingBlock: CIFDUS_clean_linker_0, # of connection points: 2
#     Edge 76, Type (0, 0), BuildingBlock: CIFDUS_clean_linker_0, # of connection points: 2
#     Edge 77, Type (0, 0), BuildingBlock: CIFDUS_clean_linker_0, # of connection points: 2
#     Edge 78, Type (0, 0), BuildingBlock: CIFDUS_clean_linker_0, # of connection points: 2
#     Edge 79, Type (0, 0), BuildingBlock: CIFDUS_clean_linker_0, # of connection points: 2
#     Edge 80, Type (0, 0), BuildingBlock: CIFDUS_clean_linker_0, # of connection points: 2
#     Edge 81, Type (0, 0), BuildingBlock: CIFDUS_clean_linker_0, # of connection points: 2
#     Edge 82, Type (0, 0), BuildingBlock: CIFDUS_clean_linker_0, # of connection points: 2
#     Edge 83, Type (0, 0), BuildingBlock: CIFDUS_clean_linker_0, # of connection points: 2
#     Edge 84, Type (0, 0), BuildingBlock: CIFDUS_clean_linker_0, # of connection points: 2
#     Edge 85, Type (0, 0), BuildingBlock: CIFDUS_clean_linker_0, # of connection points: 2
#     Edge 86, Type (0, 0), BuildingBlock: CIFDUS_clean_linker_0, # of connection points: 2
#     Edge 87, Type (0, 0), BuildingBlock: CIFDUS_clean_linker_0, # of connection points: 2
#     Edge 88, Type (0, 0), BuildingBlock: CIFDUS_clean_linker_0, # of connection points: 2
#     Edge 89, Type (0, 0), BuildingBlock: CIFDUS_clean_linker_0, # of connection points: 2
#     Edge 90, Type (0, 0), BuildingBlock: CIFDUS_clean_linker_0, # of connection points: 2
#     Edge 91, Type (0, 0), BuildingBlock: CIFDUS_clean_linker_0, # of connection points: 2
#     Edge 92, Type (0, 0), BuildingBlock: CIFDUS_clean_linker_0, # of connection points: 2
#     Edge 93, Type (0, 0), BuildingBlock: CIFDUS_clean_linker_0, # of connection points: 2
#     Edge 94, Type (0, 0), BuildingBlock: CIFDUS_clean_linker_0, # of connection points: 2
#     Edge 95, Type (0, 0), BuildingBlock: CIFDUS_clean_linker_0, # of connection points: 2
#     Edge 96, Type (0, 0), BuildingBlock: CIFDUS_clean_linker_0, # of connection points: 2
#     Edge 97, Type (0, 0), BuildingBlock: CIFDUS_clean_linker_0, # of connection points: 2
#     Edge 98, Type (0, 0), BuildingBlock: CIFDUS_clean_linker_0, # of connection points: 2
#     Edge 99, Type (0, 0), BuildingBlock: CIFDUS_clean_linker_0, # of connection points: 2
#     Edge 100, Type (0, 0), BuildingBlock: CIFDUS_clean_linker_0, # of connection points: 2
#     Edge 101, Type (0, 0), BuildingBlock: CIFDUS_clean_linker_0, # of connection points: 2
#     Edge 102, Type (0, 0), BuildingBlock: CIFDUS_clean_linker_0, # of connection points: 2
#     Edge 103, Type (0, 0), BuildingBlock: CIFDUS_clean_linker_0, # of connection points: 2
#     Edge 104, Type (0, 0), BuildingBlock: CIFDUS_clean_linker_0, # of connection points: 2
#     Edge 105, Type (0, 0), BuildingBlock: CIFDUS_clean_linker_0, # of connection points: 2
#     Edge 106, Type (0, 0), BuildingBlock: CIFDUS_clean_linker_0, # of connection points: 2
#     Edge 107, Type (0, 0), BuildingBlock: CIFDUS_clean_linker_0, # of connection points: 2
#     Edge 108, Type (0, 0), BuildingBlock: CIFDUS_clean_linker_0, # of connection points: 2
#     Edge 109, Type (0, 0), BuildingBlock: CIFDUS_clean_linker_0, # of connection points: 2
#     Edge 110, Type (0, 0), BuildingBlock: CIFDUS_clean_linker_0, # of connection points: 2
#     Edge 111, Type (0, 0), BuildingBlock: CIFDUS_clean_linker_0, # of connection points: 2
#     Edge 112, Type (0, 0), BuildingBlock: CIFDUS_clean_linker_0, # of connection points: 2
#     Edge 113, Type (0, 0), BuildingBlock: CIFDUS_clean_linker_0, # of connection points: 2
#     Edge 114, Type (0, 0), BuildingBlock: CIFDUS_clean_linker_0, # of connection points: 2
#     Edge 115, Type (0, 0), BuildingBlock: CIFDUS_clean_linker_0, # of connection points: 2
#     Edge 116, Type (0, 0), BuildingBlock: CIFDUS_clean_linker_0, # of connection points: 2
#     Edge 117, Type (0, 0), BuildingBlock: CIFDUS_clean_linker_0, # of connection points: 2
#     Edge 118, Type (0, 0), BuildingBlock: CIFDUS_clean_linker_0, # of connection points: 2
#     Edge 119, Type (0, 0), BuildingBlock: CIFDUS_clean_linker_0, # of connection points: 2
#     Edge 120, Type (0, 0), BuildingBlock: CIFDUS_clean_linker_0, # of connection points: 2
#     Edge 121, Type (0, 0), BuildingBlock: CIFDUS_clean_linker_0, # of connection points: 2
#     Edge 122, Type (0, 0), BuildingBlock: CIFDUS_clean_linker_0, # of connection points: 2
#     Edge 123, Type (0, 0), BuildingBlock: CIFDUS_clean_linker_0, # of connection points: 2
#     Edge 124, Type (0, 0), BuildingBlock: CIFDUS_clean_linker_0, # of connection points: 2
#     Edge 125, Type (0, 0), BuildingBlock: CIFDUS_clean_linker_0, # of connection points: 2
#     Edge 126, Type (0, 0), BuildingBlock: CIFDUS_clean_linker_0, # of connection points: 2
#     Edge 127, Type (0, 0), BuildingBlock: CIFDUS_clean_linker_0, # of connection points: 2
#     Edge 128, Type (0, 0), BuildingBlock: CIFDUS_clean_linker_0, # of connection points: 2
#     Edge 129, Type (0, 0), BuildingBlock: CIFDUS_clean_linker_0, # of connection points: 2
#     Edge 130, Type (0, 0), BuildingBlock: CIFDUS_clean_linker_0, # of connection points: 2
#     Edge 131, Type (0, 0), BuildingBlock: CIFDUS_clean_linker_0, # of connection points: 2
#     Edge 132, Type (0, 0), BuildingBlock: CIFDUS_clean_linker_0, # of connection points: 2
#     Edge 133, Type (0, 0), BuildingBlock: CIFDUS_clean_linker_0, # of connection points: 2
#     Edge 134, Type (0, 0), BuildingBlock: CIFDUS_clean_linker_0, # of connection points: 2
#     Edge 135, Type (0, 0), BuildingBlock: CIFDUS_clean_linker_0, # of connection points: 2
#     Edge 136, Type (0, 0), BuildingBlock: CIFDUS_clean_linker_0, # of connection points: 2
#     Edge 137, Type (0, 0), BuildingBlock: CIFDUS_clean_linker_0, # of connection points: 2
#     Edge 138, Type (0, 0), BuildingBlock: CIFDUS_clean_linker_0, # of connection points: 2
#     Edge 139, Type (0, 0), BuildingBlock: CIFDUS_clean_linker_0, # of connection points: 2
#     Edge 140, Type (0, 0), BuildingBlock: CIFDUS_clean_linker_0, # of connection points: 2
#     Edge 141, Type (0, 0), BuildingBlock: CIFDUS_clean_linker_0, # of connection points: 2
#     Edge 142, Type (0, 0), BuildingBlock: CIFDUS_clean_linker_0, # of connection points: 2
#     Edge 143, Type (0, 0), BuildingBlock: CIFDUS_clean_linker_0, # of connection points: 2
# Relax obj value: 0.022
# Max RMSD: 0.081
# Mean RMSD: 0.081
data_MOF--net-ull--node1-CEKHIL_clean_sbu_0--edge1-CIFDUS_clean_linker_0
_symmetry_space_group_name_H-M    P1
_symmetry_Int_Tables_number       1
_symmetry_cell_setting            triclinic
loop_
_symmetry_equiv_pos_as_xyz
'x, y, z'
_cell_length_a     53.143801
_cell_length_b     53.115543
_cell_length_c     53.104387
_cell_angle_alpha  89.959127
_cell_angle_beta   89.967673
_cell_angle_gamma 90.098861
loop_
_atom_site_label
_atom_site_type_symbol
_atom_site_fract_x
_atom_site_fract_y
_atom_site_fract_z
_atom_type_partial_charge
Co0 Co 0.05354 0.33385 0.17039 0.0
O1 O 0.08205 0.33826 0.19201 0.0
O2 O 0.04563 0.3577 0.19722 0.0
C3 C 0.07551 0.33839 0.1339 0.0
O4 O 0.02026 0.33384 0.15091 0.0
Co5 Co 0.05348 0.28809 0.13363 0.0
O6 O 0.02223 0.30379 0.12097 0.0
C7 C 0.04214 0.28004 0.18769 0.0
C8 C 0.06871 0.35419 0.20469 0.0
C9 C 0.01082 0.32176 0.13203 0.0
O10 O 0.04158 0.30404 0.19158 0.0
O11 O 0.04882 0.27039 0.16662 0.0
O12 O 0.0677 0.35803 0.14611 0.0
O13 O 0.0717 0.31719 0.14514 0.0
Co14 Co 0.67252 0.03835 0.17089 0.0
O15 O 0.66452 0.06616 0.19226 0.0
O16 O 0.6483 0.02816 0.19678 0.0
C17 C 0.66762 0.06068 0.1347 0.0
O18 O 0.67612 0.00544 0.151 0.0
Co19 Co 0.71943 0.04292 0.13593 0.0
O20 O 0.70702 0.0106 0.12225 0.0
C21 C 0.72624 0.03247 0.19033 0.0
C22 C 0.64897 0.05158 0.20406 0.0
C23 C 0.68957 0.99754 0.13234 0.0
O24 O 0.70233 0.02909 0.19323 0.0
O25 O 0.73596 0.04034 0.16968 0.0
O26 O 0.64829 0.05061 0.14575 0.0
O27 O 0.68858 0.05844 0.14668 0.0
Co28 Co 0.95315 0.66874 0.16973 0.0
O29 O 0.92453 0.66573 0.1913 0.0
O30 O 0.95731 0.64015 0.19255 0.0
C31 C 0.93075 0.67407 0.13372 0.0
O32 O 0.98599 0.66674 0.14938 0.0
Co33 Co 0.96033 0.71984 0.14125 0.0
O34 O 0.98751 0.70104 0.12428 0.0
C35 C 0.9756 0.71574 0.19461 0.0
C36 C 0.93539 0.64649 0.20153 0.0
C37 C 0.99655 0.68021 0.13204 0.0
O38 O 0.96987 0.69215 0.195 0.0
O39 O 0.97197 0.73007 0.17558 0.0
O40 O 0.93494 0.65158 0.14234 0.0
O41 O 0.93806 0.69211 0.1482 0.0
Co42 Co 0.32992 0.96034 0.17757 0.0
O43 O 0.33277 0.93154 0.19897 0.0
O44 O 0.35743 0.96511 0.20132 0.0
C45 C 0.32699 0.93835 0.14115 0.0
O46 O 0.3323 0.99332 0.1576 0.0
Co47 Co 0.28028 0.96705 0.14716 0.0
O48 O 0.29979 0.99393 0.13037 0.0
C49 C 0.2816 0.98165 0.20085 0.0
C50 C 0.35154 0.94279 0.20969 0.0
C51 C 0.32 0.00339 0.13922 0.0
O52 O 0.30518 0.97615 0.20206 0.0
O53 O 0.26818 0.97819 0.18113 0.0
O54 O 0.34882 0.94307 0.15103 0.0
O55 O 0.3079 0.94481 0.15473 0.0
Co56 Co 0.04653 0.65673 0.83667 0.0
O57 O 0.07325 0.65353 0.81273 0.0
O58 O 0.03794 0.63134 0.81154 0.0
C59 C 0.07134 0.65579 0.87144 0.0
O60 O 0.01502 0.6555 0.85898 0.0
Co61 Co 0.04647 0.70447 0.87123 0.0
O62 O 0.01896 0.686 0.88825 0.0
C63 C 0.0271 0.70807 0.81909 0.0
C64 C 0.0598 0.63648 0.80166 0.0
C65 C 0.00712 0.66744 0.87865 0.0
O66 O 0.03048 0.68431 0.81545 0.0
O67 O 0.03373 0.71956 0.83921 0.0
O68 O 0.06452 0.63493 0.86069 0.0
O69 O 0.06522 0.67596 0.85945 0.0
Co70 Co 0.34634 0.04267 0.83895 0.0
O71 O 0.35562 0.07175 0.81987 0.0
O72 O 0.37489 0.03508 0.81691 0.0
C73 C 0.34294 0.0628 0.87639 0.0
O74 O 0.3412 0.00895 0.85716 0.0
Co75 Co 0.2926 0.04384 0.86312 0.0
O76 O 0.30396 0.01146 0.87769 0.0
C77 C 0.29796 0.03498 0.80881 0.0
C78 C 0.37326 0.05849 0.80964 0.0
C79 C 0.32409 0.99975 0.87189 0.0
O80 O 0.32188 0.03205 0.81153 0.0
O81 O 0.28358 0.04267 0.82655 0.0
O82 O 0.36488 0.05564 0.86839 0.0
O83 O 0.32487 0.06006 0.86046 0.0
Co84 Co 0.95541 0.33417 0.84008 0.0
O85 O 0.9256 0.33698 0.82035 0.0
O86 O 0.95834 0.36263 0.81709 0.0
C87 C 0.93551 0.32881 0.87731 0.0
O88 O 0.98919 0.33654 0.85858 0.0
Co89 Co 0.96481 0.28306 0.86744 0.0
O90 O 0.99161 0.30272 0.88416 0.0
C91 C 0.97566 0.28736 0.81317 0.0
C92 C 0.93593 0.35619 0.80944 0.0
C93 C 1.00017 0.32365 0.87604 0.0
O94 O 0.97046 0.31101 0.81372 0.0
O95 O 0.97339 0.27274 0.8322 0.0
O96 O 0.93895 0.3513 0.86835 0.0
O97 O 0.94182 0.31067 0.86245 0.0
Co98 Co 0.66358 0.95665 0.83489 0.0
O99 O 0.66217 0.93029 0.81043 0.0
O100 O 0.63656 0.96315 0.81096 0.0
C101 C 0.66665 0.93116 0.86903 0.0
O102 O 0.65978 0.98726 0.85809 0.0
Co103 Co 0.71206 0.96153 0.86786 0.0
O104 O 0.69043 0.98477 0.88724 0.0
C105 C 0.71206 0.98134 0.81578 0.0
C106 C 0.6435 0.94221 0.80029 0.0
C107 C 0.67063 0.99504 0.87841 0.0
O108 O 0.68859 0.97578 0.81301 0.0
O109 O 0.72481 0.97594 0.8355 0.0
O110 O 0.64476 0.93592 0.85928 0.0
O111 O 0.68555 0.93971 0.85643 0.0
Co112 Co 0.16896 0.05678 0.34888 0.0
O113 O 0.19004 0.08537 0.3552 0.0
O114 O 0.19559 0.04802 0.37262 0.0
C115 C 0.13227 0.07806 0.35357 0.0
O116 O 0.14981 0.02329 0.347 0.0
Co117 Co 0.13281 0.05859 0.30255 0.0
O118 O 0.11948 0.02717 0.31755 0.0
C119 C 0.18725 0.04973 0.29489 0.0
C120 C 0.20272 0.07143 0.37062 0.0
C121 C 0.13055 0.01473 0.33486 0.0
O122 O 0.19069 0.04691 0.31881 0.0
O123 O 0.16629 0.05685 0.28539 0.0
O124 O 0.14396 0.06943 0.37322 0.0
O125 O 0.14405 0.07531 0.33257 0.0
Co126 Co 0.95447 0.17457 0.34109 0.0
O127 O 0.92602 0.19612 0.34563 0.0
O128 O 0.96213 0.20048 0.36599 0.0
C129 C 0.93261 0.13785 0.34362 0.0
O130 O 0.98773 0.15508 0.34074 0.0
Co131 Co 0.9551 0.1405 0.29325 0.0
O132 O 0.98546 0.12643 0.3094 0.0
C133 C 0.97086 0.19387 0.28902 0.0
C134 C 0.93929 0.20838 0.36196 0.0
C135 C 0.99688 0.13661 0.32789 0.0
O136 O 0.9674 0.19706 0.31285 0.0
O137 O 0.96578 0.17324 0.27761 0.0
O138 O 0.93978 0.14942 0.3639 0.0
O139 O 0.9366 0.15002 0.32293 0.0
Co140 Co 0.84123 0.95844 0.34301 0.0
O141 O 0.82102 0.93046 0.35342 0.0
O142 O 0.81773 0.96862 0.36951 0.0
C143 C 0.87813 0.93683 0.34429 0.0
O144 O 0.86028 0.99161 0.3368 0.0
Co145 Co 0.8704 0.95373 0.29237 0.0
O146 O 0.88586 0.98572 0.3034 0.0
C147 C 0.81673 0.96864 0.29174 0.0
C148 C 0.81041 0.94518 0.36963 0.0
C149 C 0.87745 0.99928 0.32131 0.0
O150 O 0.81576 0.96774 0.31598 0.0
O151 O 0.83628 0.96264 0.279 0.0
O152 O 0.86882 0.94673 0.36458 0.0
O153 O 0.86393 0.93843 0.32463 0.0
Co154 Co 0.05435 0.83712 0.33261 0.0
O155 O 0.08426 0.81809 0.33896 0.0
O156 O 0.04832 0.81208 0.35906 0.0
C157 C 0.07327 0.87549 0.33247 0.0
O158 O 0.0198 0.85434 0.33039 0.0
Co159 Co 0.05282 0.86732 0.2819 0.0
O160 O 0.02 0.87865 0.29536 0.0
C161 C 0.04714 0.81225 0.28137 0.0
C162 C 0.07174 0.8056 0.35574 0.0
C163 C 0.00931 0.87015 0.31514 0.0
O164 O 0.04409 0.81202 0.30548 0.0
O165 O 0.05383 0.83193 0.26913 0.0
O166 O 0.06698 0.86505 0.35369 0.0
O167 O 0.07036 0.86142 0.31297 0.0
Co168 Co 0.17263 0.95547 0.67181 0.0
O169 O 0.19546 0.92781 0.67061 0.0
O170 O 0.19566 0.95947 0.6435 0.0
C171 C 0.13762 0.93172 0.6772 0.0
O172 O 0.15092 0.98699 0.66761 0.0
Co173 Co 0.14166 0.96333 0.72145 0.0
O174 O 0.12318 0.98725 0.6998 0.0
C175 C 0.1942 0.98189 0.71819 0.0
C176 C 0.20517 0.93805 0.65072 0.0
C177 C 0.13181 0.99634 0.67929 0.0
O178 O 0.19622 0.97467 0.69508 0.0
O179 O 0.17476 0.97787 0.73186 0.0
O180 O 0.1467 0.93527 0.65478 0.0
O181 O 0.15122 0.94038 0.6953 0.0
Co182 Co 0.04775 0.16885 0.66748 0.0
O183 O 0.0763 0.1898 0.66048 0.0
O184 O 0.04017 0.1917 0.63991 0.0
C185 C 0.06997 0.13263 0.66995 0.0
O186 O 0.01461 0.14919 0.66881 0.0
Co187 Co 0.04503 0.13855 0.71785 0.0
O188 O 0.01576 0.12224 0.70157 0.0
C189 C 0.03865 0.19377 0.71779 0.0
C190 C 0.06314 0.19984 0.64256 0.0
C191 C 0.0052 0.13095 0.68185 0.0
O192 O 0.03549 0.19402 0.69367 0.0
O193 O 0.04531 0.17412 0.73005 0.0
O194 O 0.06309 0.14111 0.64804 0.0
O195 O 0.0648 0.14703 0.68869 0.0
Co196 Co 0.83433 0.0428 0.66374 0.0
O197 O 0.81428 0.07194 0.6569 0.0
O198 O 0.81266 0.03675 0.63476 0.0
C199 C 0.87108 0.06388 0.66882 0.0
O200 O 0.85337 0.0093 0.6651 0.0
Co201 Co 0.86033 0.03838 0.71628 0.0
O202 O 0.87702 0.00914 0.70035 0.0
C203 C 0.80561 0.03072 0.71184 0.0
C204 C 0.80469 0.05969 0.63811 0.0
C205 C 0.87005 0.99921 0.67962 0.0
O206 O 0.80744 0.02956 0.68764 0.0
O207 O 0.82403 0.0368 0.72613 0.0
O208 O 0.86323 0.05832 0.64633 0.0
O209 O 0.85552 0.05876 0.68671 0.0
Co210 Co 0.96045 0.82915 0.66744 0.0
O211 O 0.93239 0.80807 0.65934 0.0
O212 O 0.9687 0.80781 0.63889 0.0
C213 C 0.93788 0.86514 0.67139 0.0
O214 O 0.99314 0.84918 0.66991 0.0
Co215 Co 0.96238 0.85621 0.7195 0.0
O216 O 0.99162 0.87377 0.7044 0.0
C217 C 0.97284 0.80169 0.71628 0.0
C218 C 0.94588 0.79913 0.64106 0.0
C219 C 1.00236 0.86647 0.68422 0.0
O220 O 0.97363 0.80288 0.69201 0.0
O221 O 0.96622 0.82028 0.73011 0.0
O222 O 0.94478 0.85741 0.64923 0.0
O223 O 0.94283 0.84993 0.68963 0.0
Co224 Co 0.34064 0.1725 0.04933 0.0
O225 O 0.34229 0.1966 0.07593 0.0
O226 O 0.36961 0.19476 0.04452 0.0
C227 C 0.33393 0.1386 0.07446 0.0
O228 O 0.34406 0.14914 0.01875 0.0
Co229 Co 0.28974 0.14347 0.04254 0.0
O230 O 0.31055 0.12304 0.01945 0.0
C231 C 0.29506 0.19507 0.02229 0.0
C232 C 0.36219 0.2057 0.0652 0.0
C233 C 0.33151 0.13015 0.01011 0.0
O234 O 0.31834 0.19605 0.02904 0.0
O235 O 0.28044 0.17653 0.02718 0.0
O236 O 0.35666 0.14681 0.07078 0.0
O237 O 0.31643 0.15254 0.06516 0.0
Co238 Co 0.35112 0.83383 0.96562 0.0
O239 O 0.35999 0.81354 0.93734 0.0
O240 O 0.37789 0.81027 0.97473 0.0
C241 C 0.35175 0.87064 0.94389 0.0
O242 O 0.34665 0.85316 0.99869 0.0
Co243 Co 0.30034 0.86252 0.96296 0.0
O244 O 0.31298 0.87855 0.99416 0.0
C245 C 0.30019 0.80817 0.97431 0.0
C246 C 0.37688 0.80299 0.95131 0.0
C247 C 0.33175 0.87057 0.0068 0.0
O248 O 0.32437 0.80852 0.97612 0.0
O249 O 0.28738 0.8272 0.96692 0.0
O250 O 0.37237 0.86118 0.95286 0.0
O251 O 0.33207 0.85654 0.94637 0.0
Co252 Co 0.17365 0.34414 0.95772 0.0
O253 O 0.19224 0.35513 0.92892 0.0
O254 O 0.19397 0.37381 0.96601 0.0
C255 C 0.13666 0.33903 0.93706 0.0
O256 O 0.15561 0.33724 0.99128 0.0
Co257 Co 0.15222 0.28923 0.95504 0.0
O258 O 0.13614 0.29958 0.98705 0.0
C259 C 0.20604 0.29718 0.96504 0.0
C260 C 0.20125 0.37318 0.94255 0.0
C261 C 0.14125 0.3194 0.99966 0.0
O262 O 0.20225 0.32097 0.96807 0.0
O263 O 0.18911 0.28205 0.95694 0.0
O264 O 0.14326 0.36122 0.94493 0.0
O265 O 0.15356 0.3219 0.93961 0.0
Co266 Co 0.66276 0.16745 0.96293 0.0
O267 O 0.65196 0.18644 0.93414 0.0
O268 O 0.63662 0.19138 0.97249 0.0
C269 C 0.6618 0.12924 0.94393 0.0
O270 O 0.66911 0.15001 0.9968 0.0
Co271 Co 0.71401 0.13863 0.95885 0.0
O272 O 0.7052 0.12776 0.99344 0.0
C273 C 0.71397 0.19356 0.96507 0.0
C274 C 0.63615 0.1978 0.94881 0.0
C275 C 0.68603 0.1351 0.00585 0.0
O276 O 0.69025 0.19324 0.97039 0.0
O277 O 0.72581 0.17428 0.95685 0.0
O278 O 0.64114 0.13899 0.95257 0.0
O279 O 0.68114 0.14383 0.94466 0.0
Co280 Co 0.82953 0.67091 0.95383 0.0
O281 O 0.81032 0.66651 0.92367 0.0
O282 O 0.8041 0.64473 0.95865 0.0
C283 C 0.86782 0.67085 0.93492 0.0
O284 O 0.84704 0.67069 0.98831 0.0
Co285 Co 0.86125 0.72037 0.95812 0.0
O286 O 0.87436 0.7033 0.9885 0.0
C287 C 0.80618 0.72243 0.96389 0.0
C288 C 0.79777 0.64918 0.93536 0.0
C289 C 0.86476 0.68377 0.99872 0.0
O290 O 0.8051 0.69819 0.96542 0.0
O291 O 0.82637 0.73437 0.9583 0.0
O292 O 0.85674 0.64968 0.94018 0.0
O293 O 0.85435 0.69063 0.9387 0.0
Co294 Co 0.65233 0.82927 0.04733 0.0
O295 O 0.64571 0.8077 0.07543 0.0
O296 O 0.62503 0.80601 0.03938 0.0
C297 C 0.65351 0.8653 0.07031 0.0
O298 O 0.65372 0.84957 0.01451 0.0
Co299 Co 0.70244 0.85984 0.04606 0.0
O300 O 0.68632 0.87663 0.01705 0.0
C301 C 0.70236 0.80634 0.03027 0.0
C302 C 0.62781 0.79766 0.06228 0.0
C303 C 0.66711 0.86785 0.00566 0.0
O304 O 0.67839 0.80472 0.03376 0.0
O305 O 0.71526 0.8261 0.03521 0.0
O306 O 0.63217 0.85597 0.06293 0.0
O307 O 0.67294 0.85158 0.06548 0.0
Co308 Co 0.16827 0.66967 0.04553 0.0
O309 O 0.19067 0.66093 0.07235 0.0
O310 O 0.18892 0.64081 0.03599 0.0
C311 C 0.13361 0.67309 0.07041 0.0
O312 O 0.14632 0.67339 0.01403 0.0
Co313 Co 0.14158 0.72213 0.04765 0.0
O314 O 0.12187 0.7076 0.01959 0.0
C315 C 0.1936 0.7185 0.02781 0.0
C316 C 0.19837 0.64238 0.05857 0.0
C317 C 0.1285 0.68831 0.00694 0.0
O318 O 0.19379 0.69433 0.03062 0.0
O319 O 0.17538 0.73258 0.03484 0.0
O320 O 0.14082 0.65119 0.06241 0.0
O321 O 0.14872 0.69136 0.06518 0.0
Co322 Co 0.83413 0.33133 0.05632 0.0
O323 O 0.81398 0.33534 0.08577 0.0
O324 O 0.81179 0.36026 0.05248 0.0
C325 C 0.87099 0.32604 0.077 0.0
O326 O 0.85337 0.33239 0.02282 0.0
Co327 Co 0.86075 0.27954 0.04893 0.0
O328 O 0.87887 0.29852 0.02253 0.0
C329 C 0.80717 0.28469 0.03531 0.0
C330 C 0.80387 0.35473 0.07506 0.0
C331 C 0.87115 0.3191 0.01291 0.0
O332 O 0.80769 0.30824 0.0411 0.0
O333 O 0.82595 0.26989 0.03808 0.0
O334 O 0.86235 0.34849 0.07281 0.0
O335 O 0.85594 0.30789 0.07103 0.0
Co336 Co 0.54734 0.84353 0.66834 0.0
O337 O 0.57579 0.85452 0.68737 0.0
O338 O 0.5382 0.8722 0.68941 0.0
C339 C 0.56794 0.84003 0.63115 0.0
O340 O 0.51406 0.83686 0.65013 0.0
Co341 Co 0.55023 0.78948 0.64534 0.0
O342 O 0.51823 0.8 0.62938 0.0
C343 C 0.54033 0.79549 0.69946 0.0
C344 C 0.56157 0.87188 0.69683 0.0
C345 C 0.50569 0.81965 0.63512 0.0
O346 O 0.53733 0.81936 0.69631 0.0
O347 O 0.5482 0.78086 0.68202 0.0
O348 O 0.55983 0.86184 0.63858 0.0
O349 O 0.56576 0.82218 0.64747 0.0
Co350 Co 0.16096 0.54661 0.6676 0.0
O351 O 0.1495 0.57356 0.68843 0.0
O352 O 0.13426 0.53489 0.69019 0.0
C353 C 0.15996 0.56926 0.63128 0.0
O354 O 0.16842 0.51451 0.64749 0.0
Co355 Co 0.21241 0.55408 0.64075 0.0
O356 O 0.20266 0.52245 0.6236 0.0
C357 C 0.21167 0.53999 0.69451 0.0
C358 C 0.13347 0.55806 0.69824 0.0
C359 C 0.18464 0.50813 0.63051 0.0
O360 O 0.18759 0.53717 0.69343 0.0
O361 O 0.22463 0.54875 0.67612 0.0
O362 O 0.13972 0.55864 0.63992 0.0
O363 O 0.17927 0.56784 0.64597 0.0
Co364 Co 0.4573 0.16876 0.67508 0.0
O365 O 0.42856 0.16419 0.69627 0.0
O366 O 0.46248 0.14017 0.69771 0.0
C367 C 0.43532 0.17381 0.63875 0.0
O368 O 0.49035 0.16838 0.65503 0.0
Co369 Co 0.4627 0.22054 0.64751 0.0
O370 O 0.49079 0.20306 0.63047 0.0
C371 C 0.47252 0.21708 0.70203 0.0
C372 C 0.44022 0.14544 0.70656 0.0
C373 C 0.50043 0.18231 0.63776 0.0
O374 O 0.47238 0.19281 0.70085 0.0
O375 O 0.46644 0.23115 0.68342 0.0
O376 O 0.44014 0.15129 0.64702 0.0
O377 O 0.4417 0.19173 0.65374 0.0
Co378 Co 0.84633 0.45357 0.67087 0.0
O379 O 0.85242 0.42571 0.69272 0.0
O380 O 0.87305 0.4619 0.69448 0.0
C381 C 0.84577 0.43084 0.63484 0.0
O382 O 0.84528 0.48612 0.65031 0.0
Co383 Co 0.79635 0.4549 0.64053 0.0
O384 O 0.8132 0.48297 0.62279 0.0
C385 C 0.79626 0.47071 0.69383 0.0
C386 C 0.86984 0.43919 0.7032 0.0
C387 C 0.83238 0.49446 0.63151 0.0
O388 O 0.82017 0.46715 0.69513 0.0
O389 O 0.78317 0.46605 0.67414 0.0
O390 O 0.86694 0.43804 0.64467 0.0
O391 O 0.826 0.43538 0.6483 0.0
Co392 Co 0.55488 0.16044 0.33204 0.0
O393 O 0.58362 0.15623 0.31088 0.0
O394 O 0.5501 0.13153 0.30965 0.0
C395 C 0.57672 0.16571 0.36839 0.0
O396 O 0.52201 0.16004 0.35235 0.0
Co397 Co 0.55011 0.21286 0.35843 0.0
O398 O 0.52308 0.19479 0.37674 0.0
C399 C 0.53851 0.20832 0.30448 0.0
C400 C 0.57235 0.1371 0.30089 0.0
C401 C 0.51288 0.17408 0.37002 0.0
O402 O 0.53923 0.18408 0.30616 0.0
O403 O 0.54499 0.22295 0.32251 0.0
O404 O 0.57212 0.14317 0.36009 0.0
O405 O 0.57051 0.18355 0.3532 0.0
Co406 Co 0.83395 0.54729 0.33059 0.0
O407 O 0.84339 0.57534 0.31014 0.0
O408 O 0.86232 0.53836 0.30889 0.0
C409 C 0.83122 0.56948 0.36697 0.0
O410 O 0.82895 0.51449 0.35034 0.0
Co411 Co 0.78099 0.54964 0.35624 0.0
O412 O 0.79299 0.51849 0.37275 0.0
C413 C 0.78481 0.53744 0.30218 0.0
C414 C 0.86109 0.56151 0.30078 0.0
C415 C 0.81265 0.50626 0.36644 0.0
O416 O 0.80896 0.5356 0.30397 0.0
O417 O 0.77091 0.54535 0.32021 0.0
O418 O 0.85293 0.56145 0.35918 0.0
O419 O 0.8129 0.56602 0.35147 0.0
Co420 Co 0.46095 0.84646 0.33394 0.0
O421 O 0.43155 0.85237 0.31404 0.0
O422 O 0.46672 0.87456 0.31116 0.0
C423 C 0.44039 0.84311 0.37115 0.0
O424 O 0.49471 0.84608 0.35244 0.0
Co425 Co 0.46584 0.79544 0.36304 0.0
O426 O 0.4949 0.81264 0.37863 0.0
C427 C 0.47807 0.7976 0.30875 0.0
C428 C 0.44359 0.87103 0.30386 0.0
C429 C 0.50494 0.83264 0.36988 0.0
O430 O 0.47424 0.82157 0.30803 0.0
O431 O 0.4743 0.78399 0.32828 0.0
O432 O 0.44588 0.86516 0.3621 0.0
O433 O 0.44522 0.82442 0.35647 0.0
Co434 Co 0.16025 0.45925 0.33653 0.0
O435 O 0.15366 0.43012 0.31638 0.0
O436 O 0.13727 0.46755 0.30899 0.0
C437 C 0.15362 0.43946 0.37366 0.0
O438 O 0.16237 0.4932 0.35481 0.0
Co439 Co 0.20539 0.45746 0.37375 0.0
O440 O 0.19051 0.48917 0.38634 0.0
C441 C 0.21487 0.4663 0.31948 0.0
C442 C 0.1386 0.44378 0.30301 0.0
C443 C 0.17386 0.50173 0.37449 0.0
O444 O 0.19101 0.46793 0.31517 0.0
O445 O 0.22385 0.46012 0.34099 0.0
O446 O 0.13481 0.44845 0.36103 0.0
O447 O 0.17522 0.44074 0.36268 0.0
Co448 Co 0.67289 0.54418 0.83377 0.0
O449 O 0.69164 0.5738 0.84239 0.0
O450 O 0.69708 0.53669 0.86037 0.0
C451 C 0.63462 0.56293 0.83403 0.0
O452 O 0.6557 0.5098 0.8299 0.0
Co453 Co 0.64308 0.54454 0.78291 0.0
O454 O 0.63092 0.51158 0.79538 0.0
C455 C 0.69816 0.53901 0.78238 0.0
C456 C 0.70315 0.56045 0.85923 0.0
C457 C 0.63946 0.50006 0.81464 0.0
O458 O 0.69842 0.53534 0.80643 0.0
O459 O 0.67848 0.54589 0.77035 0.0
O460 O 0.64469 0.55561 0.85506 0.0
O461 O 0.64892 0.56106 0.81455 0.0
Co462 Co 0.46256 0.67233 0.84068 0.0
O463 O 0.43643 0.69679 0.84389 0.0
O464 O 0.46939 0.69438 0.86926 0.0
C465 C 0.43679 0.63863 0.83565 0.0
O466 O 0.49294 0.64869 0.84262 0.0
Co467 Co 0.46639 0.64265 0.78993 0.0
O468 O 0.48998 0.62191 0.80987 0.0
C469 C 0.48719 0.69421 0.79329 0.0
C470 C 0.44843 0.70554 0.86321 0.0
C471 C 0.50052 0.62925 0.83015 0.0
O472 O 0.48181 0.69556 0.81695 0.0
O473 O 0.48132 0.67551 0.77928 0.0
O474 O 0.44181 0.64691 0.85809 0.0
O475 O 0.4452 0.65242 0.81752 0.0
Co476 Co 0.33449 0.46066 0.83563 0.0
O477 O 0.31088 0.43344 0.838 0.0
O478 O 0.30994 0.46736 0.86214 0.0
C479 C 0.36972 0.43626 0.83433 0.0
O480 O 0.3564 0.49229 0.83841 0.0
Co481 Co 0.36823 0.46422 0.78741 0.0
O482 O 0.38475 0.49139 0.80678 0.0
C483 C 0.31584 0.48315 0.78573 0.0
C484 C 0.3002 0.44565 0.85619 0.0
C485 C 0.37547 0.50153 0.82646 0.0
O486 O 0.31252 0.47818 0.80933 0.0
O487 O 0.33587 0.47742 0.77363 0.0
O488 O 0.35933 0.44165 0.85578 0.0
O489 O 0.35716 0.44345 0.81488 0.0
Co490 Co 0.5482 0.33499 0.8479 0.0
O491 O 0.5751 0.3112 0.85057 0.0
O492 O 0.54024 0.30943 0.87327 0.0
C493 C 0.57354 0.36951 0.84886 0.0
O494 O 0.51649 0.35714 0.84953 0.0
Co495 Co 0.54802 0.37038 0.80065 0.0
O496 O 0.51952 0.38616 0.81859 0.0
C497 C 0.52843 0.31816 0.79657 0.0
C498 C 0.56213 0.29984 0.86777 0.0
C499 C 0.50799 0.37639 0.83729 0.0
O500 O 0.53196 0.31406 0.82025 0.0
O501 O 0.53506 0.33848 0.78537 0.0
O502 O 0.56643 0.35888 0.86971 0.0
O503 O 0.56692 0.35783 0.82869 0.0
Co504 Co 0.66579 0.45627 0.15999 0.0
O505 O 0.68986 0.42988 0.15671 0.0
O506 O 0.69061 0.46492 0.13425 0.0
C507 C 0.63146 0.43087 0.15916 0.0
O508 O 0.64275 0.48712 0.15858 0.0
Co509 Co 0.63167 0.45587 0.208 0.0
O510 O 0.61301 0.48135 0.18834 0.0
C511 C 0.68314 0.47711 0.21094 0.0
C512 C 0.7004 0.44295 0.13903 0.0
C513 C 0.62222 0.49365 0.16985 0.0
O514 O 0.68686 0.47305 0.18728 0.0
O515 O 0.66317 0.47035 0.22265 0.0
O516 O 0.64216 0.43779 0.13832 0.0
O517 O 0.64334 0.43718 0.17937 0.0
Co518 Co 0.53843 0.6664 0.17162 0.0
O519 O 0.56877 0.68429 0.16444 0.0
O520 O 0.53226 0.69213 0.14602 0.0
C521 C 0.55566 0.62757 0.17017 0.0
O522 O 0.50341 0.65034 0.17514 0.0
Co523 Co 0.5382 0.6358 0.2221 0.0
O524 O 0.50434 0.62594 0.2101 0.0
C525 C 0.53518 0.69102 0.22324 0.0
C526 C 0.55604 0.69764 0.14857 0.0
C527 C 0.49307 0.63482 0.19084 0.0
O528 O 0.53053 0.6914 0.19943 0.0
O529 O 0.54168 0.67103 0.23503 0.0
O530 O 0.54894 0.63861 0.14942 0.0
O531 O 0.55423 0.64128 0.19009 0.0
Co532 Co 0.32492 0.54626 0.16453 0.0
O533 O 0.30297 0.57446 0.16053 0.0
O534 O 0.29954 0.53908 0.13883 0.0
C535 C 0.36099 0.56919 0.16324 0.0
O536 O 0.34535 0.51343 0.16403 0.0
Co537 Co 0.35814 0.54479 0.21273 0.0
O538 O 0.37343 0.51543 0.19583 0.0
C539 C 0.30476 0.52929 0.21605 0.0
C540 C 0.29126 0.5617 0.14344 0.0
C541 C 0.36398 0.50434 0.17676 0.0
O542 O 0.30218 0.5323 0.19209 0.0
O543 O 0.32506 0.53468 0.22788 0.0
O544 O 0.35008 0.56206 0.14259 0.0
O545 O 0.34864 0.56428 0.18362 0.0
Co546 Co 0.45651 0.33556 0.16863 0.0
O547 O 0.43019 0.31269 0.15974 0.0
O548 O 0.46658 0.31519 0.13971 0.0
C549 C 0.43114 0.36981 0.1723 0.0
O550 O 0.48759 0.35801 0.17283 0.0
Co551 Co 0.4536 0.36094 0.22169 0.0
O552 O 0.4819 0.38103 0.20805 0.0
C553 C 0.47477 0.30966 0.21689 0.0
C554 C 0.44426 0.30511 0.14136 0.0
C555 C 0.49461 0.37522 0.18852 0.0
O556 O 0.47189 0.31011 0.19278 0.0
O557 O 0.4674 0.3273 0.23154 0.0
O558 O 0.43925 0.3628 0.15035 0.0
O559 O 0.43644 0.35462 0.19049 0.0
Co560 Co 0.84103 0.66772 0.54771 0.0
O561 O 0.84503 0.68747 0.57735 0.0
O562 O 0.86891 0.69135 0.54338 0.0
C563 C 0.83731 0.63036 0.56772 0.0
O564 O 0.84129 0.64917 0.51389 0.0
Co565 Co 0.789 0.64061 0.54257 0.0
O566 O 0.80597 0.62543 0.51305 0.0
C567 C 0.79252 0.69519 0.53436 0.0
C568 C 0.86331 0.69893 0.56605 0.0
C569 C 0.82674 0.63274 0.50337 0.0
O570 O 0.81668 0.6936 0.53393 0.0
O571 O 0.7782 0.6767 0.5403 0.0
O572 O 0.85948 0.63964 0.56318 0.0
O573 O 0.81879 0.64513 0.56261 0.0
Co574 Co 0.83749 0.33893 0.45729 0.0
O575 O 0.84801 0.31914 0.42915 0.0
O576 O 0.86311 0.31467 0.46763 0.0
C577 C 0.84 0.37617 0.43648 0.0
O578 O 0.83114 0.35737 0.49059 0.0
Co579 Co 0.78771 0.36957 0.45211 0.0
O580 O 0.79774 0.38306 0.48536 0.0
C581 C 0.78559 0.3146 0.46028 0.0
C582 C 0.86364 0.30791 0.44404 0.0
C583 C 0.81568 0.37429 0.49867 0.0
O584 O 0.8094 0.31403 0.46499 0.0
O585 O 0.77429 0.33432 0.45226 0.0
O586 O 0.85999 0.36636 0.44651 0.0
O587 O 0.8201 0.36233 0.43765 0.0
Co588 Co 0.67542 0.84068 0.45696 0.0
O589 O 0.70036 0.84296 0.43105 0.0
O590 O 0.69884 0.86816 0.46417 0.0
C591 C 0.6421 0.83737 0.43053 0.0
O592 O 0.6516 0.8434 0.48728 0.0
Co593 Co 0.64252 0.7916 0.45974 0.0
O594 O 0.62371 0.8114 0.48497 0.0
C595 C 0.69397 0.79203 0.48129 0.0
C596 C 0.7099 0.86179 0.44322 0.0
C597 C 0.63209 0.83133 0.49543 0.0
O598 O 0.69702 0.8156 0.47618 0.0
O599 O 0.67457 0.77925 0.47488 0.0
O600 O 0.65117 0.85942 0.43602 0.0
O601 O 0.65476 0.81864 0.43915 0.0
Co602 Co 0.16849 0.67527 0.45889 0.0
O603 O 0.16007 0.69512 0.42996 0.0
O604 O 0.14029 0.69775 0.46639 0.0
C605 C 0.17111 0.63815 0.43783 0.0
O606 O 0.17235 0.65645 0.49254 0.0
Co607 Co 0.22102 0.64868 0.45867 0.0
O608 O 0.20852 0.63415 0.49063 0.0
C609 C 0.21791 0.70318 0.46891 0.0
C610 C 0.14225 0.70526 0.44309 0.0
C611 C 0.1885 0.6409 0.50201 0.0
O612 O 0.19369 0.70184 0.47036 0.0
O613 O 0.23162 0.68469 0.46182 0.0
O614 O 0.14936 0.64659 0.44506 0.0
O615 O 0.18965 0.65339 0.44132 0.0
Co616 Co 0.34019 0.17689 0.4557 0.0
O617 O 0.32056 0.17358 0.42561 0.0
O618 O 0.31363 0.15198 0.46057 0.0
C619 C 0.3783 0.17522 0.43646 0.0
O620 O 0.35761 0.1752 0.49015 0.0
Co621 Co 0.37486 0.22422 0.46098 0.0
O622 O 0.3865 0.20635 0.4915 0.0
C623 C 0.31996 0.22956 0.46649 0.0
C624 C 0.30737 0.15671 0.43733 0.0
C625 C 0.37574 0.18714 0.50114 0.0
O626 O 0.31731 0.20539 0.46763 0.0
O627 O 0.34091 0.24024 0.46118 0.0
O628 O 0.3663 0.15452 0.44156 0.0
O629 O 0.36591 0.19558 0.44076 0.0
Co630 Co 0.16457 0.33442 0.54969 0.0
O631 O 0.16376 0.3145 0.57976 0.0
O632 O 0.14034 0.30718 0.54607 0.0
C633 C 0.16254 0.37194 0.56985 0.0
O634 O 0.16031 0.35159 0.51542 0.0
Co635 Co 0.20847 0.37157 0.53986 0.0
O636 O 0.18481 0.38616 0.51503 0.0
C637 C 0.21532 0.31716 0.52892 0.0
C638 C 0.1466 0.30095 0.56894 0.0
C639 C 0.16748 0.3726 0.50554 0.0
O640 O 0.19246 0.31259 0.53558 0.0
O641 O 0.22535 0.33909 0.53018 0.0
O642 O 0.14222 0.35919 0.56519 0.0
O643 O 0.18337 0.36087 0.56393 0.0
Co644 Co 0.67231 0.16913 0.55051 0.0
O645 O 0.69338 0.16665 0.5796 0.0
O646 O 0.69563 0.14101 0.54688 0.0
C647 C 0.63573 0.17384 0.57207 0.0
O648 O 0.65268 0.1663 0.51733 0.0
Co649 Co 0.6428 0.21925 0.542 0.0
O650 O 0.62589 0.19913 0.5157 0.0
C651 C 0.69657 0.21647 0.52796 0.0
C652 C 0.70401 0.14746 0.56902 0.0
C653 C 0.63459 0.17864 0.50676 0.0
O654 O 0.69745 0.19299 0.53411 0.0
O655 O 0.67707 0.23027 0.5309 0.0
O656 O 0.64491 0.15152 0.56829 0.0
O657 O 0.65001 0.19217 0.56495 0.0
Co658 Co 0.33731 0.84634 0.54756 0.0
O659 O 0.31376 0.8498 0.57448 0.0
O660 O 0.31236 0.87184 0.53917 0.0
C661 C 0.37191 0.84762 0.57253 0.0
O662 O 0.3595 0.84796 0.51614 0.0
Co663 Co 0.37252 0.79927 0.54706 0.0
O664 O 0.38955 0.8183 0.51992 0.0
C665 C 0.3204 0.79516 0.52727 0.0
C666 C 0.30319 0.86753 0.56153 0.0
C667 C 0.37959 0.83681 0.50834 0.0
O668 O 0.31617 0.81871 0.53145 0.0
O669 O 0.34083 0.78403 0.53352 0.0
O670 O 0.36112 0.8683 0.56537 0.0
O671 O 0.36022 0.82723 0.56637 0.0
H672 H 0.1382 0.39473 0.29071 0.0
H673 H 0.10291 0.46527 0.27168 0.0
H674 H 0.07606 0.44348 0.24085 0.0
H675 H 0.06359 0.40387 0.21847 0.0
H676 H 0.10076 0.33446 0.23821 0.0
H677 H 0.1255 0.35624 0.27003 0.0
C678 C 0.1247 0.40551 0.27985 0.0
C679 C 0.12273 0.43167 0.28341 0.0
C680 C 0.1094 0.39291 0.26248 0.0
C681 C 0.10497 0.44515 0.26918 0.0
C682 C 0.08953 0.43265 0.25166 0.0
C683 C 0.07676 0.39356 0.23014 0.0
C684 C 0.08025 0.36755 0.22618 0.0
C685 C 0.09159 0.40645 0.24812 0.0
C686 C 0.09772 0.35444 0.241 0.0
C687 C 0.11198 0.3669 0.2591 0.0
H688 H 0.64318 0.10056 0.21439 0.0
H689 H 0.61576 0.02735 0.23648 0.0
H690 H 0.58761 0.04723 0.26749 0.0
H691 H 0.57203 0.0862 0.28938 0.0
H692 H 0.60118 0.15832 0.26558 0.0
H693 H 0.62705 0.13807 0.2339 0.0
C694 C 0.63115 0.08876 0.22597 0.0
C695 C 0.63183 0.06246 0.2233 0.0
C696 C 0.61509 0.10025 0.24336 0.0
C697 C 0.61577 0.04765 0.2383 0.0
C698 C 0.59962 0.05905 0.25596 0.0
C699 C 0.58376 0.09736 0.27692 0.0
C700 C 0.58474 0.12375 0.27985 0.0
C701 C 0.59919 0.08543 0.25876 0.0
C702 C 0.6002 0.13801 0.26381 0.0
C703 C 0.61509 0.12646 0.24571 0.0
H704 H 0.93862 0.59658 0.21627 0.0
H705 H 0.90374 0.66766 0.23449 0.0
H706 H 0.87873 0.64761 0.26702 0.0
H707 H 0.86486 0.61028 0.28869 0.0
H708 H 0.89759 0.53804 0.27171 0.0
H709 H 0.92536 0.55807 0.24037 0.0
C710 C 0.92577 0.6076 0.22765 0.0
C711 C 0.92293 0.63357 0.22285 0.0
C712 C 0.91089 0.59575 0.24633 0.0
C713 C 0.90611 0.64764 0.2376 0.0
C714 C 0.89176 0.6362 0.25624 0.0
C715 C 0.87803 0.59875 0.27821 0.0
C716 C 0.87893 0.57265 0.28236 0.0
C717 C 0.89365 0.61029 0.26042 0.0
C718 C 0.89642 0.55818 0.26877 0.0
C719 C 0.91228 0.56965 0.25087 0.0
H720 H 0.39468 0.86947 0.29126 0.0
H721 H 0.46312 0.91064 0.27638 0.0
H722 H 0.44035 0.93813 0.24697 0.0
H723 H 0.40072 0.94936 0.22442 0.0
H724 H 0.33328 0.90671 0.24019 0.0
H725 H 0.3559 0.88117 0.27061 0.0
C726 C 0.40475 0.88441 0.2816 0.0
C727 C 0.43061 0.88786 0.28584 0.0
C728 C 0.39162 0.90002 0.26498 0.0
C729 C 0.44321 0.9075 0.27331 0.0
C730 C 0.43018 0.92325 0.25656 0.0
C731 C 0.39101 0.9347 0.23482 0.0
C732 C 0.36539 0.92988 0.23002 0.0
C733 C 0.40433 0.91961 0.25215 0.0
C734 C 0.35303 0.91069 0.24343 0.0
C735 C 0.36594 0.89601 0.2608 0.0
H736 H 0.1217 0.60628 0.70662 0.0
H737 H 0.10392 0.5312 0.73195 0.0
H738 H 0.07658 0.54876 0.765 0.0
H739 H 0.0608 0.58627 0.78892 0.0
H740 H 0.08128 0.66053 0.76305 0.0
H741 H 0.10421 0.64251 0.72774 0.0
C742 C 0.11181 0.59362 0.71928 0.0
C743 C 0.11514 0.56748 0.71708 0.0
C744 C 0.09651 0.60381 0.73811 0.0
C745 C 0.10179 0.55142 0.73336 0.0
C746 C 0.0862 0.56149 0.75226 0.0
C747 C 0.06984 0.59836 0.77515 0.0
C748 C 0.06937 0.62469 0.77845 0.0
C749 C 0.08377 0.58774 0.75512 0.0
C750 C 0.08145 0.64025 0.76083 0.0
C751 C 0.09464 0.62996 0.74071 0.0
H752 H 0.37331 0.10701 0.79582 0.0
H753 H 0.41088 0.03675 0.7806 0.0
H754 H 0.43657 0.05763 0.74807 0.0
H755 H 0.4468 0.0962 0.7226 0.0
H756 H 0.4068 0.16505 0.73879 0.0
H757 H 0.38379 0.14435 0.77236 0.0
C758 C 0.38713 0.09609 0.78551 0.0
C759 C 0.39003 0.07029 0.79058 0.0
C760 C 0.40145 0.10806 0.76692 0.0
C761 C 0.40821 0.05665 0.77704 0.0
C762 C 0.42287 0.0686 0.75843 0.0
C763 C 0.43322 0.10661 0.7337 0.0
C764 C 0.42843 0.13213 0.72807 0.0
C765 C 0.41949 0.09435 0.75301 0.0
C766 C 0.41069 0.14537 0.74251 0.0
C767 C 0.39749 0.13357 0.76177 0.0
H768 H 0.86374 0.39375 0.72422 0.0
H769 H 0.91062 0.46 0.728 0.0
H770 H 0.93616 0.44006 0.76105 0.0
H771 H 0.94484 0.40315 0.78898 0.0
H772 H 0.89635 0.33796 0.78373 0.0
H773 H 0.87196 0.35813 0.75098 0.0
C774 C 0.87953 0.40398 0.7322 0.0
C775 C 0.88527 0.42832 0.72366 0.0
C776 C 0.89394 0.39248 0.75091 0.0
C777 C 0.90577 0.44122 0.73432 0.0
C778 C 0.9204 0.42979 0.75315 0.0
C779 C 0.92901 0.39343 0.78052 0.0
C780 C 0.92241 0.36912 0.78888 0.0
C781 C 0.91467 0.40532 0.76159 0.0
C782 C 0.90178 0.35673 0.77785 0.0
C783 C 0.88776 0.36823 0.75906 0.0
H784 H 0.59382 0.94479 0.78582 0.0
H785 H 0.66645 0.91585 0.76393 0.0
H786 H 0.64747 0.89327 0.72897 0.0
H787 H 0.61049 0.87889 0.70681 0.0
H788 H 0.53684 0.90526 0.72823 0.0
H789 H 0.55589 0.93185 0.76104 0.0
C790 C 0.60541 0.93387 0.77307 0.0
C791 C 0.63148 0.93185 0.77749 0.0
C792 C 0.59419 0.92027 0.75315 0.0
C793 C 0.64634 0.9175 0.76103 0.0
C794 C 0.63551 0.90455 0.74104 0.0
C795 C 0.59848 0.89051 0.71854 0.0
C796 C 0.57226 0.88986 0.71529 0.0
C797 C 0.60946 0.90531 0.73732 0.0
C798 C 0.5571 0.90535 0.73044 0.0
C799 C 0.56799 0.92049 0.74922 0.0
H800 H 0.22231 0.1178 0.36508 0.0
H801 H 0.22929 0.05069 0.41027 0.0
H802 H 0.26156 0.07148 0.43615 0.0
H803 H 0.28788 0.10933 0.44575 0.0
H804 H 0.28031 0.17526 0.39879 0.0
H805 H 0.2479 0.15445 0.37409 0.0
C806 C 0.23086 0.10758 0.38055 0.0
C807 C 0.22337 0.08271 0.38571 0.0
C808 C 0.24917 0.1196 0.39522 0.0
C809 C 0.2348 0.06982 0.4058 0.0
C810 C 0.25315 0.08177 0.42067 0.0
C811 C 0.2789 0.11913 0.43026 0.0
C812 C 0.28644 0.14386 0.42416 0.0
C813 C 0.26043 0.10676 0.41562 0.0
C814 C 0.27491 0.15624 0.40384 0.0
C815 C 0.25639 0.14434 0.38965 0.0
H816 H 0.87219 0.29876 0.39514 0.0
H817 H 0.8956 0.27537 0.46928 0.0
H818 H 0.92373 0.24382 0.45039 0.0
H819 H 0.93946 0.22107 0.41218 0.0
H820 H 0.91362 0.24495 0.33899 0.0
H821 H 0.88897 0.27846 0.35811 0.0
C822 C 0.88342 0.28683 0.40732 0.0
C823 C 0.88154 0.28921 0.43361 0.0
C824 C 0.89928 0.26892 0.39639 0.0
C825 C 0.89656 0.27379 0.44897 0.0
C826 C 0.91265 0.25578 0.43816 0.0
C827 C 0.92883 0.23402 0.40054 0.0
C828 C 0.92837 0.23072 0.37422 0.0
C829 C 0.91396 0.25296 0.41182 0.0
C830 C 0.91422 0.24723 0.35926 0.0
C831 C 0.90004 0.26629 0.37018 0.0
H832 H 0.72123 0.91251 0.44267 0.0
H833 H 0.74857 0.83952 0.41997 0.0
H834 H 0.78272 0.8591 0.39656 0.0
H835 H 0.80271 0.89633 0.37964 0.0
H836 H 0.77623 0.97021 0.40007 0.0
H837 H 0.7439 0.95104 0.42729 0.0
C838 C 0.73502 0.90102 0.433 0.0
C839 C 0.73241 0.87459 0.433 0.0
C840 C 0.75448 0.91254 0.41887 0.0
C841 C 0.75016 0.85986 0.42014 0.0
C842 C 0.76965 0.87104 0.40668 0.0
C843 C 0.78994 0.90838 0.39005 0.0
C844 C 0.79165 0.93467 0.38754 0.0
C845 C 0.77158 0.89729 0.40538 0.0
C846 C 0.7752 0.9499 0.40156 0.0
C847 C 0.75672 0.93892 0.41709 0.0
H848 H 0.06506 0.7887 0.40472 0.0
H849 H 0.10672 0.77512 0.33627 0.0
H850 H 0.13134 0.74281 0.35713 0.0
H851 H 0.14273 0.71986 0.39465 0.0
H852 H 0.10327 0.73264 0.46443 0.0
H853 H 0.07623 0.76379 0.44336 0.0
C854 C 0.07931 0.77838 0.39441 0.0
C855 C 0.08408 0.78436 0.36895 0.0
C856 C 0.094 0.7599 0.40681 0.0
C857 C 0.10278 0.77103 0.35587 0.0
C858 C 0.11692 0.75253 0.36779 0.0
C859 C 0.12823 0.72937 0.40542 0.0
C860 C 0.12519 0.72398 0.43117 0.0
C861 C 0.113 0.74712 0.39328 0.0
C862 C 0.10612 0.73648 0.44461 0.0
C863 C 0.09064 0.75427 0.43252 0.0
H864 H 0.22093 0.94442 0.6016 0.0
H865 H 0.23456 0.90132 0.66925 0.0
H866 H 0.26498 0.87551 0.64719 0.0
H867 H 0.28697 0.86427 0.60919 0.0
H868 H 0.27555 0.90648 0.54075 0.0
H869 H 0.24477 0.93334 0.56251 0.0
C870 C 0.23083 0.92957 0.61148 0.0
C871 C 0.22541 0.92478 0.63703 0.0
C872 C 0.24839 0.91442 0.59852 0.0
C873 C 0.23823 0.90535 0.64958 0.0
C874 C 0.25562 0.89049 0.63698 0.0
C875 C 0.27773 0.87924 0.59883 0.0
C876 C 0.28342 0.88322 0.57332 0.0
C877 C 0.2606 0.89465 0.61147 0.0
C878 C 0.27135 0.9029 0.56039 0.0
C879 C 0.25387 0.91832 0.57287 0.0
H880 H 0.11022 0.2184 0.64531 0.0
H881 H 0.042 0.2238 0.60169 0.0
H882 H 0.06226 0.25454 0.57365 0.0
H883 H 0.09957 0.28063 0.56224 0.0
H884 H 0.16678 0.2749 0.60747 0.0
H885 H 0.1468 0.24325 0.63393 0.0
C886 C 0.09967 0.22626 0.62969 0.0
C887 C 0.0746 0.21888 0.62566 0.0
C888 C 0.11138 0.24376 0.6138 0.0
C889 C 0.06131 0.22926 0.60528 0.0
C890 C 0.07292 0.24677 0.5892 0.0
C891 C 0.10985 0.27217 0.5777 0.0
C892 C 0.13462 0.28006 0.58289 0.0
C893 C 0.098 0.2542 0.59331 0.0
C894 C 0.14768 0.2692 0.60315 0.0
C895 C 0.13626 0.25114 0.61834 0.0
H896 H 0.78815 0.10735 0.6415 0.0
H897 H 0.77909 0.03981 0.59739 0.0
H898 H 0.74782 0.06122 0.57088 0.0
H899 H 0.72212 0.0994 0.56115 0.0
H900 H 0.73215 0.16586 0.60691 0.0
H901 H 0.76408 0.14463 0.63164 0.0
C902 C 0.77941 0.09718 0.6261 0.0
C903 C 0.78589 0.07196 0.62154 0.0
C904 C 0.7616 0.10951 0.61113 0.0
C905 C 0.77438 0.05923 0.60137 0.0
C906 C 0.75653 0.07149 0.5862 0.0
C907 C 0.7315 0.1092 0.57639 0.0
C908 C 0.72464 0.13417 0.58221 0.0
C909 C 0.74987 0.09667 0.59098 0.0
C910 C 0.73687 0.14661 0.60211 0.0
C911 C 0.75518 0.1345 0.61632 0.0
H912 H 0.91246 0.71555 0.56226 0.0
H913 H 0.8414 0.73012 0.59888 0.0
H914 H 0.86066 0.76255 0.62458 0.0
H915 H 0.89748 0.78515 0.63851 0.0
H916 H 0.96954 0.77178 0.60369 0.0
H917 H 0.9502 0.74054 0.57551 0.0
C918 C 0.90127 0.72613 0.57564 0.0
C919 C 0.8756 0.72033 0.57881 0.0
C920 C 0.91265 0.74473 0.59089 0.0
C921 C 0.86125 0.73403 0.59628 0.0
C922 C 0.87222 0.7526 0.61103 0.0
C923 C 0.90908 0.77545 0.62479 0.0
C924 C 0.93494 0.78058 0.62338 0.0
C925 C 0.89792 0.75775 0.60884 0.0
C926 C 0.94956 0.76804 0.60524 0.0
C927 C 0.9385 0.75021 0.58912 0.0
H928 H 0.39563 0.296 0.13271 0.0
H929 H 0.46966 0.27381 0.10823 0.0
H930 H 0.45085 0.24203 0.08013 0.0
H931 H 0.41268 0.21853 0.06504 0.0
H932 H 0.33957 0.24226 0.09132 0.0
H933 H 0.35869 0.27564 0.11593 0.0
C934 C 0.40777 0.28426 0.12124 0.0
C935 C 0.434 0.28694 0.12286 0.0
C936 C 0.3969 0.26631 0.10537 0.0
C937 C 0.44938 0.27196 0.10743 0.0
C938 C 0.43861 0.2538 0.09141 0.0
C939 C 0.40105 0.23134 0.07583 0.0
C940 C 0.37475 0.2278 0.07654 0.0
C941 C 0.41231 0.25051 0.09051 0.0
C942 C 0.35985 0.24441 0.09068 0.0
C943 C 0.37075 0.26352 0.10481 0.0
H944 H 0.38475 0.79623 0.90207 0.0
H945 H 0.4087 0.76877 0.9746 0.0
H946 H 0.43546 0.7372 0.95374 0.0
H947 H 0.44955 0.7156 0.91417 0.0
H948 H 0.42337 0.74405 0.84269 0.0
H949 H 0.40023 0.77727 0.86387 0.0
C950 C 0.3958 0.78339 0.91347 0.0
C951 C 0.39443 0.78459 0.93986 0.0
C952 C 0.41085 0.76551 0.90144 0.0
C953 C 0.4093 0.7681 0.95423 0.0
C954 C 0.42457 0.75007 0.94228 0.0
C955 C 0.43914 0.72941 0.90335 0.0
C956 C 0.43807 0.72737 0.8769 0.0
C957 C 0.42522 0.74835 0.91581 0.0
C958 C 0.42432 0.74516 0.86305 0.0
C959 C 0.41103 0.76414 0.87513 0.0
H960 H 0.28649 0.44911 0.90618 0.0
H961 H 0.2647 0.41675 0.83491 0.0
H962 H 0.23121 0.39312 0.85535 0.0
H963 H 0.21033 0.379 0.89323 0.0
H964 H 0.23176 0.40874 0.96565 0.0
H965 H 0.26304 0.43616 0.94509 0.0
C966 C 0.27407 0.43721 0.89519 0.0
C967 C 0.27809 0.43461 0.86905 0.0
C968 C 0.25503 0.423 0.90728 0.0
C969 C 0.26208 0.41894 0.85503 0.0
C970 C 0.24294 0.40538 0.86671 0.0
C971 C 0.22173 0.39152 0.90467 0.0
C972 C 0.2189 0.39159 0.93099 0.0
C973 C 0.23965 0.4068 0.89282 0.0
C974 C 0.23363 0.40824 0.94535 0.0
C975 C 0.25154 0.42386 0.93358 0.0
H976 H 0.62784 0.20763 0.89979 0.0
H977 H 0.6044 0.23027 0.97413 0.0
H978 H 0.57681 0.26246 0.95565 0.0
H979 H 0.56161 0.28613 0.91783 0.0
H980 H 0.58717 0.26301 0.8443 0.0
H981 H 0.61127 0.22882 0.86294 0.0
C982 C 0.61668 0.21952 0.91206 0.0
C983 C 0.61843 0.21671 0.93833 0.0
C984 C 0.60106 0.23786 0.90135 0.0
C985 C 0.60353 0.23213 0.95384 0.0
C986 C 0.58774 0.25053 0.94325 0.0
C987 C 0.57203 0.2732 0.90598 0.0
C988 C 0.57258 0.27699 0.87971 0.0
C989 C 0.58657 0.2538 0.91698 0.0
C990 C 0.58649 0.26044 0.86455 0.0
C991 C 0.60037 0.24095 0.87518 0.0
H992 H 0.71591 0.60946 0.86028 0.0
H993 H 0.73098 0.53897 0.89761 0.0
H994 H 0.76034 0.5604 0.92626 0.0
H995 H 0.78283 0.59961 0.93971 0.0
H996 H 0.76729 0.669 0.90041 0.0
H997 H 0.73672 0.64765 0.87386 0.0
C998 C 0.72557 0.59865 0.87464 0.0
C999 C 0.72134 0.57259 0.87666 0.0
C1000 C 0.74224 0.61103 0.89089 0.0
C1001 C 0.734 0.55903 0.89554 0.0
C1002 C 0.75072 0.57131 0.91197 0.0
C1003 C 0.77241 0.61 0.92558 0.0
C1004 C 0.77726 0.63587 0.92204 0.0
C1005 C 0.75509 0.59737 0.90978 0.0
C1006 C 0.76393 0.64909 0.90344 0.0
C1007 C 0.74649 0.6369 0.88818 0.0
H1008 H 0.54933 0.71518 0.10002 0.0
H1009 H 0.5916 0.72718 0.16837 0.0
H1010 H 0.61709 0.75902 0.14766 0.0
H1011 H 0.62892 0.78196 0.11028 0.0
H1012 H 0.58852 0.771 0.04074 0.0
H1013 H 0.56092 0.74014 0.06161 0.0
C1014 C 0.56389 0.7251 0.11033 0.0
C1015 C 0.56863 0.71883 0.13567 0.0
C1016 C 0.57904 0.74326 0.09804 0.0
C1017 C 0.58771 0.73157 0.14882 0.0
C1018 C 0.60235 0.74976 0.137 0.0
C1019 C 0.61412 0.77287 0.09953 0.0
C1020 C 0.61094 0.77865 0.07393 0.0
C1021 C 0.59848 0.75542 0.11158 0.0
C1022 C 0.59149 0.76676 0.06046 0.0
C1023 C 0.57567 0.74918 0.07242 0.0
H1024 H 0.20593 0.63383 0.10765 0.0
H1025 H 0.22865 0.60759 0.03431 0.0
H1026 H 0.2579 0.57761 0.05412 0.0
H1027 H 0.27921 0.56122 0.09294 0.0
H1028 H 0.25536 0.58917 0.16537 0.0
H1029 H 0.22399 0.61574 0.1453 0.0
C1030 C 0.21726 0.62158 0.09588 0.0
C1031 C 0.21547 0.62326 0.06954 0.0
C1032 C 0.23369 0.60451 0.10734 0.0
C1033 C 0.22987 0.60682 0.05465 0.0
C1034 C 0.24655 0.58968 0.066 0.0
C1035 C 0.26667 0.57269 0.10422 0.0
C1036 C 0.26952 0.57326 0.13061 0.0
C1037 C 0.24889 0.58858 0.0924 0.0
C1038 C 0.25349 0.58848 0.14506 0.0
C1039 C 0.23565 0.60378 0.1336 0.0
H1040 H 0.72363 0.39943 0.14902 0.0
H1041 H 0.724 0.46097 0.09602 0.0
H1042 H 0.75617 0.43914 0.07082 0.0
H1043 H 0.78344 0.40133 0.0636 0.0
H1044 H 0.78057 0.34055 0.11774 0.0
H1045 H 0.74987 0.36324 0.14244 0.0
C1046 C 0.73072 0.40828 0.13201 0.0
C1047 C 0.72138 0.43179 0.12441 0.0
C1048 C 0.74866 0.39556 0.11763 0.0
C1049 C 0.73096 0.44289 0.10235 0.0
C1050 C 0.74923 0.43033 0.08788 0.0
C1051 C 0.77597 0.39311 0.08074 0.0
C1052 C 0.78439 0.36923 0.08874 0.0
C1053 C 0.75806 0.40644 0.09522 0.0
C1054 C 0.7746 0.35888 0.11108 0.0
C1055 C 0.757 0.37185 0.12533 0.0
H1056 H 0.00319 0.18743 0.2507 0.0
H1057 H 0.96712 0.24551 0.29422 0.0
H1058 H 0.98721 0.27792 0.2678 0.0
H1059 H 0.01364 0.28937 0.23047 0.0
H1060 H 0.05046 0.22972 0.18922 0.0
H1061 H 0.03173 0.19855 0.21676 0.0
C1062 C 0.99961 0.20719 0.2544 0.0
C1063 C 0.98328 0.21403 0.27405 0.0
C1064 C 0.01151 0.22552 0.23954 0.0
C1065 C 0.97944 0.23974 0.27903 0.0
C1066 C 0.99094 0.25825 0.26392 0.0
C1067 C 0.01785 0.2696 0.22777 0.0
C1068 C 0.03325 0.26207 0.20742 0.0
C1069 C 0.00688 0.25136 0.24389 0.0
C1070 C 0.03846 0.23626 0.20436 0.0
C1071 C 0.02772 0.21826 0.22013 0.0
H1072 H 0.82042 0.00327 0.25553 0.0
H1073 H 0.76569 0.9596 0.29648 0.0
H1074 H 0.73186 0.97684 0.26983 0.0
H1075 H 0.71865 1.00247 0.23249 0.0
H1076 H 0.77492 0.04713 0.19405 0.0
H1077 H 0.80709 0.03165 0.22229 0.0
C1078 C 0.80105 0.99755 0.25867 0.0
C1079 C 0.79555 0.97986 0.27752 0.0
C1080 C 0.78193 0.00779 0.24369 0.0
C1081 C 0.77035 0.97308 0.28187 0.0
C1082 C 0.75107 0.98291 0.26662 0.0
C1083 C 0.73786 0.00911 0.23059 0.0
C1084 C 0.74426 0.02566 0.21074 0.0
C1085 C 0.75668 1.00006 0.24714 0.0
C1086 C 0.76933 0.03411 0.20875 0.0
C1087 C 0.78789 0.02525 0.22492 0.0
H1088 H 0.01952 0.74001 0.19291 0.0
H1089 H 0.96114 0.71714 0.24431 0.0
H1090 H 0.98031 0.74283 0.27781 0.0
H1091 H 0.01089 0.77629 0.29029 0.0
H1092 H 0.06877 0.79828 0.23757 0.0
H1093 H 0.053 0.76806 0.20701 0.0
C1094 C 0.01128 0.74033 0.21162 0.0
C1095 C 0.9889 0.72707 0.2162 0.0
C1096 C 0.02232 0.75506 0.2305 0.0
C1097 C 0.97842 0.72729 0.24047 0.0
C1098 C 0.98932 0.74207 0.25952 0.0
C1099 C 0.02042 0.77392 0.27238 0.0
C1100 C 0.04078 0.78979 0.26608 0.0
C1101 C 0.01089 0.75667 0.25451 0.0
C1102 C 0.05288 0.78656 0.24276 0.0
C1103 C 0.04384 0.76933 0.22521 0.0
H1104 H 0.22727 0.01708 0.30096 0.0
H1105 H 0.19221 0.0671 0.24727 0.0
H1106 H 0.2191 0.05112 0.21403 0.0
H1107 H 0.24941 0.02034 0.19896 0.0
H1108 H 0.28641 0.9708 0.25135 0.0
H1109 H 0.26213 0.98918 0.28626 0.0
C1110 C 0.22592 0.02482 0.28211 0.0
C1111 C 0.20737 0.043 0.27663 0.0
C1112 C 0.24152 0.01537 0.26272 0.0
C1113 C 0.20596 0.05283 0.25204 0.0
C1114 C 0.22133 0.04369 0.23291 0.0
C1115 C 0.25226 0.01365 0.21807 0.0
C1116 C 0.26925 0.99397 0.22258 0.0
C1117 C 0.23857 0.02446 0.23785 0.0
C1118 C 0.27326 0.98586 0.24745 0.0
C1119 C 0.25934 0.99634 0.26736 0.0
H1120 H 0.03147 0.71121 0.76726 0.0
H1121 H 0.98881 0.73835 0.83083 0.0
H1122 H 0.96599 0.76729 0.80378 0.0
H1123 H 0.96095 0.7879 0.76355 0.0
H1124 H 0.00441 0.76394 0.69934 0.0
H1125 H 0.02368 0.7305 0.72485 0.0
C1126 C 0.01692 0.72324 0.77496 0.0
C1127 C 0.01201 0.7229 0.80104 0.0
C1128 C 0.0041 0.7405 0.75924 0.0
C1129 C 0.99315 0.73856 0.81088 0.0
C1130 C 0.98004 0.75509 0.79544 0.0
C1131 C 0.97448 0.77526 0.75496 0.0
C1132 C 0.98148 0.77869 0.72966 0.0
C1133 C 0.98584 0.75671 0.7698 0.0
C1134 C 0.99869 0.76177 0.7188 0.0
C1135 C 0.00985 0.74276 0.73345 0.0
H1136 H 0.24485 0.97259 0.72328 0.0
H1137 H 0.18683 0.02698 0.73912 0.0
H1138 H 0.21561 0.05082 0.76567 0.0
H1139 H 0.25473 0.05276 0.78927 0.0
H1140 H 0.31292 0.99794 0.77596 0.0
H1141 H 0.28704 0.97807 0.74326 0.0
C1142 C 0.23887 0.99 0.73208 0.0
C1143 C 0.21377 0.99798 0.72953 0.0
C1144 C 0.25545 0.00337 0.74801 0.0
C1145 C 0.20605 0.02045 0.74108 0.0
C1146 C 0.22245 0.03405 0.75629 0.0
C1147 C 0.26197 0.03674 0.77889 0.0
C1148 C 0.2855 0.02661 0.78529 0.0
C1149 C 0.24682 0.02515 0.76068 0.0
C1150 C 0.29481 0.00609 0.7714 0.0
C1151 C 0.27992 0.99459 0.75286 0.0
H1152 H 1.00013 0.22807 0.71349 0.0
H1153 H 0.06577 0.20943 0.75746 0.0
H1154 H 0.05304 0.23892 0.79004 0.0
H1155 H 0.02039 0.26505 0.80893 0.0
H1156 H 0.95463 0.28492 0.76613 0.0
H1157 H 0.97012 0.26013 0.73018 0.0
C1158 C 0.01196 0.23112 0.72984 0.0
C1159 C 0.03371 0.21639 0.73322 0.0
C1160 C 0.00423 0.24794 0.74893 0.0
C1161 C 0.04882 0.22038 0.75458 0.0
C1162 C 0.04151 0.23714 0.7733 0.0
C1163 C 0.00973 0.26428 0.79151 0.0
C1164 C 0.98638 0.27639 0.79009 0.0
C1165 C 0.01878 0.25018 0.77116 0.0
C1166 C 0.97269 0.27561 0.76751 0.0
C1167 C 0.98152 0.26138 0.74706 0.0
H1168 H 0.7886 0.04771 0.7563 0.0
H1169 H 0.76993 0.99625 0.69643 0.0
H1170 H 0.73621 0.97801 0.7224 0.0
H1171 H 0.71617 0.97302 0.76478 0.0
H1172 H 0.73777 0.02375 0.82438 0.0
H1173 H 0.76598 0.04606 0.79592 0.0
C1174 C 0.77692 0.03273 0.74874 0.0
C1175 C 0.782 0.02308 0.72465 0.0
C1176 C 0.75818 0.02205 0.76392 0.0
C1177 C 0.76641 0.004 0.71496 0.0
C1178 C 0.74728 0.99344 0.7299 0.0
C1179 C 0.72668 0.98931 0.77122 0.0
C1180 C 0.72513 0.99668 0.79664 0.0
C1181 C 0.74356 1.00174 0.75479 0.0
C1182 C 0.73889 0.01768 0.80493 0.0
C1183 C 0.75504 0.03041 0.7887 0.0
H1184 H 0.2279 0.25498 0.94746 0.0
H1185 H 0.23673 0.31286 0.00361 0.0
H1186 H 0.26876 0.2875 0.02505 0.0
H1187 H 0.28891 0.24555 0.03147 0.0
H1188 H 0.27727 0.18759 0.97588 0.0
H1189 H 0.25199 0.21622 0.9505 0.0
C1190 C 0.23723 0.26231 0.96409 0.0
C1191 C 0.2297 0.28557 0.97412 0.0
C1192 C 0.25497 0.24738 0.97662 0.0
C1193 C 0.2422 0.29499 0.99548 0.0
C1194 C 0.26033 0.28036 0.0079 0.0
C1195 C 0.28135 0.23958 0.01347 0.0
C1196 C 0.28473 0.21456 0.0055 0.0
C1197 C 0.26611 0.25604 0.99922 0.0
C1198 C 0.27473 0.20678 0.98232 0.0
C1199 C 0.26023 0.2231 0.96786 0.0
H1200 H 0.24516 0.72115 0.03471 0.0
H1201 H 0.1847 0.7447 0.986 0.0
H1202 H 0.21312 0.77251 0.96315 0.0
H1203 H 0.25348 0.79389 0.96008 0.0
H1204 H 0.31467 0.77212 0.00864 0.0
H1205 H 0.28799 0.73977 0.02811 0.0
C1206 C 0.23851 0.73196 0.01872 0.0
C1207 C 0.21287 0.73104 0.01209 0.0
C1208 C 0.25501 0.74848 0.00581 0.0
C1209 C 0.20435 0.74526 0.99149 0.0
C1210 C 0.22055 0.76123 0.97845 0.0
C1211 C 0.26114 0.78186 0.9747 0.0
C1212 C 0.28592 0.78569 0.98308 0.0
C1213 C 0.24567 0.76361 0.98595 0.0
C1214 C 0.29562 0.76963 1.0018 0.0
C1215 C 0.2803 0.75121 0.01308 0.0
H1216 H 0.80539 0.26284 0.99007 0.0
H1217 H 0.7588 0.28272 0.05329 0.0
H1218 H 0.72349 0.25882 0.0351 0.0
H1219 H 0.70815 0.22758 0.0036 0.0
H1220 H 0.75577 0.2089 0.94047 0.0
H1221 H 0.7881 0.23751 0.9558 0.0
C1222 C 0.78732 0.26226 0.99961 0.0
C1223 C 0.78463 0.27412 0.02303 0.0
C1224 C 0.76732 0.24868 0.98901 0.0
C1225 C 0.76119 0.2736 0.03521 0.0
C1226 C 0.74109 0.25988 0.02484 0.0
C1227 C 0.72527 0.23042 0.99283 0.0
C1228 C 0.72966 0.21586 0.97107 0.0
C1229 C 0.74417 0.24671 1.00205 0.0
C1230 C 0.75203 0.21965 0.9574 0.0
C1231 C 0.77062 0.23591 0.96621 0.0
H1232 H 0.76684 0.71217 0.99646 0.0
H1233 H 0.79568 0.76846 0.94523 0.0
H1234 H 0.76469 0.7985 0.96009 0.0
H1235 H 0.73285 0.8106 0.99064 0.0
H1236 H 0.70243 0.7557 0.042 0.0
H1237 H 0.73032 0.72328 0.02409 0.0
C1238 C 0.76592 0.73082 0.98821 0.0
C1239 C 0.78389 0.73813 0.97001 0.0
C1240 C 0.74801 0.74838 0.99712 0.0
C1241 C 0.78241 0.76241 0.95952 0.0
C1242 C 0.76469 0.77968 0.96802 0.0
C1243 C 0.73213 0.79143 0.99771 0.0
C1244 C 0.71598 0.78554 0.01778 0.0
C1245 C 0.74802 0.77316 0.98734 0.0
C1246 C 0.71483 0.76062 0.02657 0.0
C1247 C 0.73084 0.74217 0.01639 0.0
H1248 H 0.47822 0.74476 0.78695 0.0
H1249 H 0.53209 0.68597 0.77234 0.0
H1250 H 0.55578 0.71383 0.74457 0.0
H1251 H 0.55772 0.75231 0.71976 0.0
H1252 H 0.5035 0.81128 0.73216 0.0
H1253 H 0.48375 0.78636 0.76569 0.0
C1254 C 0.49553 0.73844 0.77819 0.0
C1255 C 0.50345 0.7134 0.78153 0.0
C1256 C 0.5088 0.75448 0.76159 0.0
C1257 C 0.52571 0.70519 0.76992 0.0
C1258 C 0.53919 0.72106 0.75397 0.0
C1259 C 0.54185 0.75994 0.73011 0.0
C1260 C 0.53188 0.78343 0.72322 0.0
C1261 C 0.53038 0.74536 0.74891 0.0
C1262 C 0.51155 0.79321 0.73707 0.0
C1263 C 0.50011 0.77886 0.75612 0.0
H1264 H 0.26387 0.47892 0.783 0.0
H1265 H 0.32709 0.52276 0.75674 0.0
H1266 H 0.29992 0.54611 0.72835 0.0
H1267 H 0.25957 0.55134 0.70773 0.0
H1268 H 0.19563 0.50732 0.73168 0.0
H1269 H 0.22141 0.48722 0.76427 0.0
C1270 C 0.27148 0.49388 0.77135 0.0
C1271 C 0.29753 0.49889 0.77175 0.0
C1272 C 0.25566 0.50711 0.75444 0.0
C1273 C 0.30718 0.5183 0.75651 0.0
C1274 C 0.29166 0.53171 0.74025 0.0
C1275 C 0.25109 0.53755 0.72021 0.0
C1276 C 0.22573 0.5307 0.71696 0.0
C1277 C 0.26607 0.5258 0.73851 0.0
C1278 C 0.21511 0.513 0.73366 0.0
C1279 C 0.22991 0.50136 0.75224 0.0
H1280 H 0.53212 0.26633 0.7929 0.0
H1281 H 0.49027 0.33068 0.76642 0.0
H1282 H 0.46706 0.30424 0.7372 0.0
H1283 H 0.46146 0.26434 0.71618 0.0
H1284 H 0.50393 0.19932 0.73955 0.0
H1285 H 0.52366 0.22423 0.77321 0.0
C1286 C 0.51766 0.27433 0.78094 0.0
C1287 C 0.51312 0.30046 0.78153 0.0
C1288 C 0.5046 0.25897 0.76353 0.0
C1289 C 0.49436 0.31069 0.76599 0.0
C1290 C 0.48103 0.2956 0.7493 0.0
C1291 C 0.47488 0.25545 0.72873 0.0
C1292 C 0.48148 0.23011 0.72508 0.0
C1293 C 0.48648 0.26993 0.74742 0.0
C1294 C 0.49854 0.21884 0.7419 0.0
C1295 C 0.50996 0.23314 0.76103 0.0
H1296 H 0.76925 0.51307 0.69229 0.0
H1297 H 0.7943 0.45515 0.74309 0.0
H1298 H 0.76821 0.47309 0.77692 0.0
H1299 H 0.73457 0.50299 0.79027 0.0
H1300 H 0.71136 0.56129 0.73861 0.0
H1301 H 0.74087 0.54595 0.7072 0.0
C1302 C 0.76917 0.50458 0.71089 0.0
C1303 C 0.78321 0.48269 0.71522 0.0
C1304 C 0.7545 0.51515 0.73011 0.0
C1305 C 0.78343 0.47199 0.7394 0.0
C1306 C 0.7685 0.48223 0.75868 0.0
C1307 C 0.73652 0.51272 0.77242 0.0
C1308 C 0.72049 0.53306 0.7667 0.0
C1309 C 0.75347 0.50354 0.75408 0.0
C1310 C 0.72321 0.54541 0.7434 0.0
C1311 C 0.74001 0.53659 0.72533 0.0
H1312 H 0.55175 0.25323 0.28519 0.0
H1313 H 0.50062 0.19133 0.27346 0.0
H1314 H 0.47723 0.21635 0.24239 0.0
H1315 H 0.46816 0.25839 0.22296 0.0
H1316 H 0.51947 0.31977 0.23691 0.0
H1317 H 0.54599 0.2925 0.26246 0.0
C1318 C 0.53575 0.24502 0.2755 0.0
C1319 C 0.52776 0.2206 0.28182 0.0
C1320 C 0.52223 0.25962 0.25819 0.0
C1321 C 0.50719 0.2101 0.26888 0.0
C1322 C 0.49367 0.22451 0.25129 0.0
C1323 C 0.48544 0.26547 0.23119 0.0
C1324 C 0.49188 0.29103 0.22826 0.0
C1325 C 0.50051 0.24965 0.24642 0.0
C1326 C 0.51418 0.30016 0.23909 0.0
C1327 C 0.52931 0.28462 0.25373 0.0
H1328 H 0.73721 0.5478 0.28807 0.0
H1329 H 0.80235 0.50519 0.26528 0.0
H1330 H 0.77726 0.48407 0.2327 0.0
H1331 H 0.73505 0.47436 0.21397 0.0
H1332 H 0.67049 0.51603 0.24011 0.0
H1333 H 0.69704 0.54076 0.26798 0.0
C1334 C 0.74612 0.53408 0.27585 0.0
C1335 C 0.77158 0.52789 0.27941 0.0
C1336 C 0.73149 0.52157 0.25784 0.0
C1337 C 0.78278 0.51034 0.26303 0.0
C1338 C 0.76836 0.4981 0.24451 0.0
C1339 C 0.72701 0.4891 0.22555 0.0
C1340 C 0.70081 0.49318 0.22525 0.0
C1341 C 0.74245 0.50302 0.24222 0.0
C1342 C 0.69054 0.5123 0.24033 0.0
C1343 C 0.7057 0.52651 0.25623 0.0
H1344 H 0.50327 0.73077 0.2143 0.0
H1345 H 0.5584 0.70268 0.26699 0.0
H1346 H 0.54746 0.73566 0.29671 0.0
H1347 H 0.51872 0.76858 0.31016 0.0
H1348 H 0.46263 0.79713 0.2592 0.0
H1349 H 0.4776 0.76821 0.2262 0.0
C1350 C 0.51323 0.73226 0.23206 0.0
C1351 C 0.53135 0.714 0.23858 0.0
C1352 C 0.50649 0.75117 0.24945 0.0
C1353 C 0.5441 0.71619 0.26166 0.0
C1354 C 0.53787 0.73505 0.27871 0.0
C1355 C 0.51009 0.76876 0.29163 0.0
C1356 C 0.48952 0.78463 0.28706 0.0
C1357 C 0.51853 0.752 0.27318 0.0
C1358 C 0.47856 0.78503 0.26303 0.0
C1359 C 0.48701 0.76838 0.24429 0.0
H1360 H 0.30971 0.49922 0.25646 0.0
H1361 H 0.25341 0.53272 0.20874 0.0
H1362 H 0.22002 0.51486 0.2355 0.0
H1363 H 0.20718 0.49153 0.27437 0.0
H1364 H 0.2651 0.45727 0.32007 0.0
H1365 H 0.29726 0.47341 0.29208 0.0
C1366 C 0.29013 0.50267 0.25186 0.0
C1367 C 0.28407 0.51766 0.23091 0.0
C1368 C 0.27123 0.49212 0.26702 0.0
C1369 C 0.25858 0.52138 0.22488 0.0
C1370 C 0.23951 0.51119 0.24021 0.0
C1371 C 0.22679 0.4873 0.27798 0.0
C1372 C 0.23352 0.47342 0.29967 0.0
C1373 C 0.24561 0.49673 0.26158 0.0
C1374 C 0.25915 0.46812 0.30386 0.0
C1375 C 0.27772 0.47738 0.28783 0.0
H1376 H 0.7474 0.71286 0.5491 0.0
H1377 H 0.81007 0.73018 0.50051 0.0
H1378 H 0.7862 0.76482 0.48152 0.0
H1379 H 0.74501 0.78639 0.47502 0.0
H1380 H 0.6828 0.76727 0.52361 0.0
H1381 H 0.709 0.73752 0.54654 0.0
C1382 C 0.75598 0.72443 0.53458 0.0
C1383 C 0.78025 0.71872 0.52592 0.0
C1384 C 0.74212 0.744 0.52367 0.0
C1385 C 0.79132 0.73416 0.50744 0.0
C1386 C 0.77762 0.75388 0.49648 0.0
C1387 C 0.73754 0.77615 0.49105 0.0
C1388 C 0.71204 0.77877 0.49758 0.0
C1389 C 0.75266 0.75848 0.50389 0.0
C1390 C 0.70238 0.76533 0.51822 0.0
C1391 C 0.71729 0.74827 0.53128 0.0
H1392 H 0.69521 0.24337 0.48552 0.0
H1393 H 0.74634 0.2164 0.54225 0.0
H1394 H 0.78026 0.24247 0.52428 0.0
H1395 H 0.79341 0.27706 0.49524 0.0
H1396 H 0.741 0.30282 0.43872 0.0
H1397 H 0.70976 0.2728 0.45345 0.0
C1398 C 0.71392 0.24294 0.49371 0.0
C1399 C 0.7183 0.22837 0.5153 0.0
C1400 C 0.73306 0.25785 0.48333 0.0
C1401 C 0.74261 0.22757 0.5256 0.0
C1402 C 0.76191 0.24257 0.51539 0.0
C1403 C 0.77539 0.27563 0.48579 0.0
C1404 C 0.76945 0.29251 0.46615 0.0
C1405 C 0.75714 0.25838 0.49464 0.0
C1406 C 0.74597 0.29039 0.45411 0.0
C1407 C 0.72801 0.27324 0.46255 0.0
H1408 H 0.26835 0.79274 0.52969 0.0
H1409 H 0.33301 0.76412 0.48974 0.0
H1410 H 0.30635 0.73575 0.4658 0.0
H1411 H 0.26594 0.71613 0.45887 0.0
H1412 H 0.20055 0.74142 0.49972 0.0
H1413 H 0.22594 0.77427 0.52011 0.0
C1414 C 0.27641 0.78047 0.51552 0.0
C1415 C 0.30267 0.78026 0.51175 0.0
C1416 C 0.26087 0.76354 0.50201 0.0
C1417 C 0.31292 0.76432 0.49331 0.0
C1418 C 0.29769 0.74812 0.47953 0.0
C1419 C 0.25704 0.72893 0.47205 0.0
C1420 C 0.23141 0.72602 0.47795 0.0
C1421 C 0.27181 0.7471 0.48416 0.0
C1422 C 0.22025 0.74316 0.49479 0.0
C1423 C 0.23484 0.76184 0.50662 0.0
H1424 H 0.25073 0.32145 0.49295 0.0
H1425 H 0.21414 0.26653 0.54025 0.0
H1426 H 0.24184 0.23347 0.52357 0.0
H1427 H 0.27886 0.22102 0.49736 0.0
H1428 H 0.31358 0.2771 0.44966 0.0
H1429 H 0.28403 0.30858 0.46436 0.0
C1430 C 0.24878 0.30223 0.49964 0.0
C1431 C 0.23075 0.29654 0.51814 0.0
C1432 C 0.26443 0.28344 0.48978 0.0
C1433 C 0.22803 0.27143 0.52613 0.0
C1434 C 0.24388 0.25254 0.5166 0.0
C1435 C 0.2796 0.23999 0.48987 0.0
C1436 C 0.29872 0.24668 0.47267 0.0
C1437 C 0.26246 0.25838 0.49861 0.0
C1438 C 0.29937 0.27143 0.46317 0.0
C1439 C 0.28248 0.28955 0.47159 0.0
H1440 H 0.09331 0.29976 0.10624 0.0
H1441 H 0.08584 0.38055 0.10563 0.0
H1442 H 0.10679 0.38247 0.06448 0.0
H1443 H 0.12664 0.36061 0.02792 0.0
H1444 H 0.13275 0.27956 0.02984 0.0
H1445 H 0.11325 0.27844 0.07111 0.0
C1446 C 0.09623 0.31783 0.09715 0.0
C1447 C 0.08795 0.33993 0.10895 0.0
C1448 C 0.10819 0.31876 0.07362 0.0
C1449 C 0.09198 0.3632 0.09689 0.0
C1450 C 0.10401 0.36431 0.07338 0.0
C1451 C 0.12387 0.3428 0.03754 0.0
C1452 C 0.13101 0.32022 0.02565 0.0
C1453 C 0.11218 0.34216 0.06146 0.0
C1454 C 0.12718 0.29724 0.03834 0.0
C1455 C 0.11603 0.29652 0.06202 0.0
H1456 H 0.70429 0.0879 0.11239 0.0
H1457 H 0.62686 0.06533 0.10332 0.0
H1458 H 0.62455 0.08869 0.06353 0.0
H1459 H 0.64561 0.114 0.03007 0.0
H1460 H 0.72338 0.13509 0.03982 0.0
H1461 H 0.72436 0.11435 0.08075 0.0
C1462 C 0.68687 0.08807 0.10174 0.0
C1463 C 0.66586 0.07472 0.11067 0.0
C1464 C 0.6857 0.10153 0.07906 0.0
C1465 C 0.64337 0.07535 0.09675 0.0
C1466 C 0.64203 0.08876 0.07403 0.0
C1467 C 0.66252 0.11444 0.04149 0.0
C1468 C 0.68437 0.1261 0.03208 0.0
C1469 C 0.66316 0.10182 0.06487 0.0
C1470 C 0.70635 0.12622 0.04676 0.0
C1471 C 0.70697 0.11427 0.07009 0.0
H1472 H 0.90575 0.64105 0.10272 0.0
H1473 H 0.92987 0.7185 0.10883 0.0
H1474 H 0.91134 0.7279 0.06812 0.0
H1475 H 0.88864 0.71466 0.03098 0.0
H1476 H 0.86269 0.63801 0.02368 0.0
H1477 H 0.88126 0.62783 0.06486 0.0
C1478 C 0.90697 0.65993 0.09504 0.0
C1479 C 0.91935 0.67901 0.10877 0.0
C1480 C 0.89583 0.6654 0.07154 0.0
C1481 C 0.92055 0.70345 0.09872 0.0
C1482 C 0.90992 0.70888 0.07541 0.0
C1483 C 0.88703 0.69562 0.03823 0.0
C1484 C 0.87448 0.67705 0.02408 0.0
C1485 C 0.89757 0.69005 0.0617 0.0
C1486 C 0.87224 0.65267 0.03415 0.0
C1487 C 0.88295 0.64685 0.05764 0.0
H1488 H 0.29719 0.8951 0.03493 0.0
H1489 H 0.37459 0.87063 0.03602 0.0
H1490 H 0.38014 0.88994 0.07761 0.0
H1491 H 0.3628 0.91409 0.11355 0.0
H1492 H 0.28481 0.9366 0.11229 0.0
H1493 H 0.27976 0.91783 0.0707 0.0
C1494 C 0.31537 0.89402 0.04414 0.0
C1495 C 0.33552 0.88158 0.03222 0.0
C1496 C 0.3183 0.90486 0.06801 0.0
C1497 C 0.35877 0.88007 0.04473 0.0
C1498 C 0.36196 0.89117 0.06848 0.0
C1499 C 0.34474 0.91491 0.10411 0.0
C1500 C 0.32422 0.92685 0.11594 0.0
C1501 C 0.34185 0.90368 0.08027 0.0
C1502 C 0.30087 0.92756 0.10362 0.0
C1503 C 0.29797 0.91683 0.07983 0.0
H1504 H 0.07523 0.69634 0.90158 0.0
H1505 H 0.09371 0.61745 0.89809 0.0
H1506 H 0.11345 0.62012 0.93984 0.0
H1507 H 0.12565 0.64554 0.97743 0.0
H1508 H 0.10413 0.72395 0.98003 0.0
H1509 H 0.08525 0.72064 0.93873 0.0
C1510 C 0.08349 0.67965 0.90987 0.0
C1511 C 0.08308 0.65678 0.8967 0.0
C1512 C 0.09424 0.68123 0.93387 0.0
C1513 C 0.0938 0.63533 0.90789 0.0
C1514 C 0.10509 0.63686 0.93174 0.0
C1515 C 0.11677 0.66182 0.96894 0.0
C1516 C 0.11636 0.68492 0.98199 0.0
C1517 C 0.10546 0.65979 0.94495 0.0
C1518 C 0.10462 0.70583 0.97069 0.0
C1519 C 0.09386 0.70406 0.94692 0.0
H1520 H 0.37582 0.08754 0.90748 0.0
H1521 H 0.29973 0.05935 0.90292 0.0
H1522 H 0.29063 0.07593 0.94455 0.0
H1523 H 0.30313 0.09987 0.98098 0.0
H1524 H 0.37769 0.13187 0.98584 0.0
H1525 H 0.38862 0.1123 0.94534 0.0
C1526 C 0.35735 0.08492 0.91578 0.0
C1527 C 0.33845 0.0722 0.90215 0.0
C1528 C 0.35196 0.09524 0.93966 0.0
C1529 C 0.31454 0.06914 0.91292 0.0
C1530 C 0.30931 0.0786 0.93677 0.0
C1531 C 0.32196 0.10246 0.9735 0.0
C1532 C 0.33962 0.11725 0.98663 0.0
C1533 C 0.32775 0.09188 0.95013 0.0
C1534 C 0.36373 0.12055 0.97621 0.0
C1535 C 0.36995 0.10939 0.95304 0.0
H1536 H 0.89879 0.28946 0.98245 0.0
H1537 H 0.86841 0.36461 0.98762 0.0
H1538 H 0.8866 0.37475 0.94627 0.0
H1539 H 0.91056 0.36152 0.90822 0.0
H1540 H 0.93837 0.28532 0.90375 0.0
H1541 H 0.92181 0.27641 0.94551 0.0
C1542 C 0.8962 0.3082 0.97479 0.0
C1543 C 0.88234 0.32631 0.98829 0.0
C1544 C 0.90625 0.31367 0.95108 0.0
C1545 C 0.879 0.35032 0.97768 0.0
C1546 C 0.88941 0.3561 0.95405 0.0
C1547 C 0.91305 0.34304 0.91651 0.0
C1548 C 0.92574 0.32411 0.90293 0.0
C1549 C 0.90299 0.33784 0.94052 0.0
C1550 C 0.92867 0.30019 0.91374 0.0
C1551 C 0.91921 0.29506 0.93765 0.0
H1552 H 0.70042 0.88987 0.97457 0.0
H1553 H 0.62225 0.86844 0.97933 0.0
H1554 H 0.61484 0.8863 0.93724 0.0
H1555 H 0.63103 0.90863 0.89917 0.0
H1556 H 0.71009 0.92732 0.8953 0.0
H1557 H 0.7166 0.90999 0.93703 0.0
C1558 C 0.68164 0.88921 0.96657 0.0
C1559 C 0.66183 0.87816 0.98024 0.0
C1560 C 0.67771 0.89905 0.94247 0.0
C1561 C 0.6378 0.87695 0.96924 0.0
C1562 C 0.63359 0.88718 0.94521 0.0
C1563 C 0.64965 0.90884 0.9075 0.0
C1564 C 0.66999 0.91951 0.89415 0.0
C1565 C 0.65344 0.89836 0.93164 0.0
C1566 C 0.69405 0.91944 0.9051 0.0
C1567 C 0.69784 0.9095 0.92903 0.0
H1568 H 0.10796 0.10015 0.31523 0.0
H1569 H 0.09993 0.08217 0.39399 0.0
H1570 H 0.05752 0.10058 0.39403 0.0
H1571 H 0.02172 0.12023 0.37052 0.0
H1572 H 0.03128 0.1365 0.29148 0.0
H1573 H 0.07415 0.12064 0.29277 0.0
C1574 C 0.09701 0.10025 0.33248 0.0
C1575 C 0.10698 0.08964 0.3545 0.0
C1576 C 0.07287 0.11069 0.33229 0.0
C1577 C 0.09259 0.09015 0.37673 0.0
C1578 C 0.06836 0.10068 0.37675 0.0
C1579 C 0.03343 0.12055 0.3538 0.0
C1580 C 0.02345 0.1294 0.33091 0.0
C1581 C 0.05817 0.11085 0.35453 0.0
C1582 C 0.03861 0.1296 0.30924 0.0
C1583 C 0.06308 0.12051 0.30993 0.0
H1584 H 0.92276 0.10762 0.3038 0.0
H1585 H 0.91707 0.11076 0.38471 0.0
H1586 H 0.8983 0.06859 0.38535 0.0
H1587 H 0.88406 0.03014 0.3626 0.0
H1588 H 0.89196 0.02758 0.28172 0.0
H1589 H 0.90908 0.06998 0.28145 0.0
C1590 C 0.9174 0.09912 0.32159 0.0
C1591 C 0.9213 0.11232 0.34413 0.0
C1592 C 0.90694 0.07483 0.32184 0.0
C1593 C 0.91431 0.10096 0.36704 0.0
C1594 C 0.90354 0.07684 0.36743 0.0
C1595 C 0.88942 0.03899 0.34498 0.0
C1596 C 0.88683 0.02559 0.32226 0.0
C1597 C 0.89979 0.06351 0.34491 0.0
C1598 C 0.894 0.03728 0.29955 0.0
C1599 C 0.90376 0.06161 0.29931 0.0
H1600 H 0.89935 0.91194 0.30523 0.0
H1601 H 0.91249 0.93288 0.38254 0.0
H1602 H 0.95351 0.91194 0.38154 0.0
H1603 H 0.9868 0.88914 0.3577 0.0
H1604 H 0.97304 0.86964 0.28011 0.0
H1605 H 0.93114 0.88804 0.28233 0.0
C1606 C 0.91115 0.91191 0.32189 0.0
C1607 C 0.90293 0.9241 0.34384 0.0
C1608 C 0.93464 0.89986 0.32118 0.0
C1609 C 0.91843 0.92373 0.36531 0.0
C1610 C 0.94188 0.9117 0.36478 0.0
C1611 C 0.97435 0.88854 0.34153 0.0
C1612 C 0.9829 0.878 0.3188 0.0
C1613 C 0.95031 0.8998 0.34274 0.0
C1614 C 0.96681 0.87768 0.2978 0.0
C1615 C 0.9429 0.88829 0.29901 0.0
H1616 H 0.10478 0.98552 0.30249 0.0
H1617 H 0.1359 0.98533 0.37749 0.0
H1618 H 0.1198 0.94241 0.3841 0.0
H1619 H 0.09701 0.90461 0.36791 0.0
H1620 H 0.06886 0.9056 0.29168 0.0
H1621 H 0.08345 0.94861 0.28634 0.0
C1622 C 0.10796 0.97625 0.32042 0.0
C1623 C 0.12133 0.98875 0.33956 0.0
C1624 C 0.09911 0.95166 0.32385 0.0
C1625 C 0.12565 0.97615 0.36245 0.0
C1626 C 0.11639 0.95164 0.36623 0.0
C1627 C 0.09399 0.91438 0.35023 0.0
C1628 C 0.08176 0.90193 0.33024 0.0
C1629 C 0.10308 0.93917 0.34701 0.0
C1630 C 0.07824 0.91465 0.30733 0.0
C1631 C 0.08657 0.9393 0.30424 0.0
H1632 H 0.03315 0.89177 0.71574 0.0
H1633 H 0.02749 0.86605 0.63887 0.0
H1634 H 0.06882 0.88443 0.62958 0.0
H1635 H 0.1068 0.90767 0.6437 0.0
H1636 H 0.11209 0.93105 0.7214 0.0
H1637 H 0.07058 0.9138 0.72985 0.0
C1638 C 0.04079 0.89027 0.69686 0.0
C1639 C 0.02714 0.87769 0.678 0.0
C1640 C 0.06456 0.90046 0.6918 0.0
C1641 C 0.03761 0.87565 0.65376 0.0
C1642 C 0.06122 0.88616 0.64843 0.0
C1643 C 0.0988 0.90898 0.66244 0.0
C1644 C 0.11248 0.92077 0.68184 0.0
C1645 C 0.07491 0.89858 0.66736 0.0
C1646 C 0.10199 0.92217 0.70608 0.0
C1647 C 0.07821 0.9123 0.71098 0.0
H1648 H 0.11737 0.03265 0.71028 0.0
H1649 H 0.12357 0.01539 0.63127 0.0
H1650 H 0.1045 0.05643 0.62078 0.0
H1651 H 0.08522 0.09715 0.635 0.0
H1652 H 0.08167 0.1125 0.71489 0.0
H1653 H 0.10045 0.07218 0.72404 0.0
C1654 C 0.1144 0.0377 0.69069 0.0
C1655 C 0.12137 0.02091 0.67158 0.0
C1656 C 0.10386 0.06102 0.68501 0.0
C1657 C 0.11815 0.02804 0.6463 0.0
C1658 C 0.10722 0.05142 0.64037 0.0
C1659 C 0.08856 0.09155 0.65434 0.0
C1660 C 0.08173 0.10779 0.67421 0.0
C1661 C 0.09983 0.06807 0.65966 0.0
C1662 C 0.08644 0.10042 0.69919 0.0
C1663 C 0.09727 0.07731 0.70453 0.0
H1664 H 0.97418 0.10337 0.71125 0.0
H1665 H 0.9808 0.13363 0.63611 0.0
H1666 H 0.94027 0.11454 0.62482 0.0
H1667 H 0.90253 0.08943 0.63682 0.0
H1668 H 0.89627 0.06176 0.71303 0.0
H1669 H 0.93718 0.07942 0.72324 0.0
C1670 C 0.96691 0.10575 0.69232 0.0
C1671 C 0.98062 0.11982 0.67453 0.0
C1672 C 0.94362 0.09509 0.68613 0.0
C1673 C 0.97063 0.12294 0.65021 0.0
C1674 C 0.94748 0.11196 0.64373 0.0
C1675 C 0.91026 0.08719 0.65558 0.0
C1676 C 0.89639 0.07419 0.6741 0.0
C1677 C 0.93376 0.098 0.66158 0.0
C1678 C 0.90647 0.07166 0.69842 0.0
C1679 C 0.92991 0.08178 0.70431 0.0
H1680 H 0.91579 0.89715 0.63734 0.0
H1681 H 0.93393 0.88901 0.71618 0.0
H1682 H 0.91493 0.92953 0.72519 0.0
H1683 H 0.89296 0.96692 0.71131 0.0
H1684 H 0.87238 0.97579 0.63323 0.0
H1685 H 0.89228 0.93526 0.62334 0.0
C1686 C 0.91563 0.90437 0.65643 0.0
C1687 C 0.92644 0.89009 0.67603 0.0
C1688 C 0.90413 0.92771 0.66167 0.0
C1689 C 0.92585 0.89953 0.70072 0.0
C1690 C 0.91494 0.92275 0.70594 0.0
C1691 C 0.89286 0.96016 0.69203 0.0
C1692 C 0.88135 0.97453 0.67301 0.0
C1693 C 0.90401 0.93693 0.68662 0.0
C1694 C 0.88109 0.96512 0.64826 0.0
C1695 C 0.89254 0.94198 0.6426 0.0
H1696 H 0.29031 0.03665 0.11548 0.0
H1697 H 0.36695 0.02607 0.13997 0.0
H1698 H 0.37843 0.06717 0.12187 0.0
H1699 H 0.36619 0.10611 0.09856 0.0
H1700 H 0.28851 0.11567 0.07661 0.0
H1701 H 0.27804 0.07484 0.09417 0.0
C1702 C 0.30964 0.04312 0.11678 0.0
C1703 C 0.32783 0.02812 0.12878 0.0
C1704 C 0.3159 0.06665 0.10676 0.0
C1705 C 0.35261 0.0372 0.13074 0.0
C1706 C 0.35915 0.06068 0.12037 0.0
C1707 C 0.347 0.09919 0.09768 0.0
C1708 C 0.32821 0.1139 0.08607 0.0
C1709 C 0.3409 0.07558 0.10826 0.0
C1710 C 0.3034 0.10479 0.08525 0.0
C1711 C 0.29733 0.08139 0.09532 0.0
H1712 H 0.36649 0.97605 0.88954 0.0
H1713 H 0.28675 0.96598 0.87804 0.0
H1714 H 0.28821 0.9253 0.89907 0.0
H1715 H 0.3115 0.89322 0.92228 0.0
H1716 H 0.39101 0.90289 0.93525 0.0
H1717 H 0.39027 0.94293 0.91243 0.0
C1718 C 0.34959 0.96472 0.89138 0.0
C1719 C 0.32657 0.97402 0.88227 0.0
C1720 C 0.35042 0.94138 0.90408 0.0
C1721 C 0.3047 0.9593 0.88503 0.0
C1722 C 0.30547 0.93603 0.8971 0.0
C1723 C 0.32867 0.90408 0.92014 0.0
C1724 C 0.35122 0.89513 0.93053 0.0
C1725 C 0.32811 0.92705 0.90703 0.0
C1726 C 0.37334 0.90942 0.92751 0.0
C1727 C 0.37296 0.9323 0.91438 0.0
H1728 H 0.0349 0.29402 0.8976 0.0
H1729 H 0.02106 0.37142 0.8773 0.0
H1730 H 0.06196 0.3835 0.89537 0.0
H1731 H 0.10189 0.37147 0.91699 0.0
H1732 H 0.11483 0.29314 0.93445 0.0
H1733 H 0.07384 0.2821 0.91766 0.0
C1734 C 0.04062 0.31364 0.89722 0.0
C1735 C 0.02479 0.33184 0.88636 0.0
C1736 C 0.06402 0.32025 0.90721 0.0
C1737 C 0.03287 0.35704 0.8856 0.0
C1738 C 0.05621 0.36393 0.89597 0.0
C1739 C 0.0956 0.35205 0.91718 0.0
C1740 C 0.11137 0.33317 0.92709 0.0
C1741 C 0.07197 0.34564 0.90687 0.0
C1742 C 0.10315 0.30804 0.92697 0.0
C1743 C 0.07967 0.30167 0.91735 0.0
H1744 H 0.63009 0.10164 0.91407 0.0
H1745 H 0.69908 0.09745 0.95657 0.0
H1746 H 0.70571 0.05452 0.94258 0.0
H1747 H 0.69423 0.01971 0.916 0.0
H1748 H 0.62821 0.0238 0.86883 0.0
H1749 H 0.61794 0.06507 0.88698 0.0
C1750 C 0.64635 0.09109 0.92041 0.0
C1751 C 0.66404 0.10262 0.93645 0.0
C1752 C 0.65066 0.0665 0.9113 0.0
C1753 C 0.68523 0.08903 0.94429 0.0
C1754 C 0.68905 0.06444 0.93626 0.0
C1755 C 0.67736 0.02933 0.90971 0.0
C1756 C 0.66206 0.01856 0.89095 0.0
C1757 C 0.6722 0.05322 0.91941 0.0
C1758 C 0.64037 0.0316 0.88321 0.0
C1759 C 0.63456 0.05524 0.89353 0.0
H1760 H 0.97901 0.69875 0.9067 0.0
H1761 H 0.97774 0.62457 0.87364 0.0
H1762 H 0.93466 0.61827 0.88944 0.0
H1763 H 0.89667 0.63504 0.91148 0.0
H1764 H 0.89877 0.71086 0.94066 0.0
H1765 H 0.94231 0.71523 0.92763 0.0
C1766 C 0.96958 0.68097 0.90312 0.0
C1767 C 0.98178 0.66204 0.8892 0.0
C1768 C 0.94483 0.67788 0.91151 0.0
C1769 C 0.96886 0.63942 0.8844 0.0
C1770 C 0.94423 0.63586 0.89339 0.0
C1771 C 0.9068 0.65241 0.91506 0.0
C1772 C 0.89448 0.67258 0.92713 0.0
C1773 C 0.9319 0.65511 0.90679 0.0
C1774 C 0.90768 0.69508 0.93141 0.0
C1775 C 0.93265 0.69761 0.92398 0.0
H1776 H 0.64564 0.97125 0.12489 0.0
H1777 H 0.7263 0.96604 0.11742 0.0
H1778 H 0.72231 0.92463 0.09821 0.0
H1779 H 0.69618 0.89047 0.08214 0.0
H1780 H 0.61538 0.89557 0.0872 0.0
H1781 H 0.61908 0.9363 0.10853 0.0
C1782 C 0.66226 0.96085 0.11927 0.0
C1783 C 0.68622 0.97167 0.12257 0.0
C1784 C 0.65982 0.93712 0.10757 0.0
C1785 C 0.70764 0.95817 0.11494 0.0
C1786 C 0.7054 0.93448 0.10394 0.0
C1787 C 0.67936 0.90045 0.08792 0.0
C1788 C 0.65557 0.89001 0.08306 0.0
C1789 C 0.68162 0.9239 0.09988 0.0
C1790 C 0.63395 0.90325 0.09064 0.0
C1791 C 0.63605 0.92652 0.1029 0.0
H1792 H 0.03217 0.71231 0.11651 0.0
H1793 H 0.01763 0.63293 0.12554 0.0
H1794 H 0.05908 0.62337 0.10709 0.0
H1795 H 0.09918 0.6382 0.08735 0.0
H1796 H 0.11256 0.71821 0.0809 0.0
H1797 H 0.07169 0.72685 0.09927 0.0
C1798 C 0.0379 0.69283 0.11435 0.0
C1799 C 0.02166 0.67333 0.12198 0.0
C1800 C 0.06157 0.68764 0.10412 0.0
C1801 C 0.02975 0.64827 0.11967 0.0
C1802 C 0.05339 0.64285 0.10908 0.0
C1803 C 0.09309 0.65749 0.09002 0.0
C1804 C 0.10887 0.67753 0.08248 0.0
C1805 C 0.06943 0.66244 0.10106 0.0
C1806 C 0.10084 0.70241 0.08631 0.0
C1807 C 0.07742 0.70742 0.09686 0.0
H1808 H 0.97891 0.28967 0.10913 0.0
H1809 H 0.98424 0.36608 0.13611 0.0
H1810 H 0.94135 0.37438 0.12105 0.0
H1811 H 0.90244 0.35964 0.09983 0.0
H1812 H 0.89736 0.28231 0.07537 0.0
H1813 H 0.94019 0.27467 0.08979 0.0
C1814 C 0.97081 0.30824 0.11162 0.0
C1815 C 0.98488 0.32734 0.12345 0.0
C1816 C 0.94619 0.31266 0.10337 0.0
C1817 C 0.97384 0.35109 0.127 0.0
C1818 C 0.94935 0.35582 0.11836 0.0
C1819 C 0.91077 0.34114 0.09767 0.0
C1820 C 0.89679 0.32159 0.08638 0.0
C1821 C 0.93537 0.33673 0.10645 0.0
C1822 C 0.90768 0.29766 0.08394 0.0
C1823 C 0.9322 0.29328 0.09216 0.0
H1824 H 0.60638 0.80079 0.52658 0.0
H1825 H 0.63168 0.87767 0.51924 0.0
H1826 H 0.6128 0.8877 0.56033 0.0
H1827 H 0.58987 0.87383 0.59894 0.0
H1828 H 0.56826 0.79577 0.60603 0.0
H1829 H 0.58481 0.78703 0.56427 0.0
C1830 C 0.60759 0.81989 0.5337 0.0
C1831 C 0.62016 0.83855 0.51965 0.0
C1832 C 0.59739 0.82524 0.55738 0.0
C1833 C 0.62201 0.86299 0.52961 0.0
C1834 C 0.61122 0.8687 0.55309 0.0
C1835 C 0.58872 0.85498 0.59119 0.0
C1836 C 0.57776 0.83547 0.60553 0.0
C1837 C 0.59897 0.84988 0.56723 0.0
C1838 C 0.57662 0.81108 0.59547 0.0
C1839 C 0.58607 0.80606 0.57154 0.0
H1840 H 0.19963 0.59336 0.60994 0.0
H1841 H 0.12139 0.57558 0.59776 0.0
H1842 H 0.1223 0.59803 0.55749 0.0
H1843 H 0.14606 0.62167 0.52469 0.0
H1844 H 0.22463 0.63775 0.5372 0.0
H1845 H 0.22275 0.6175 0.57831 0.0
C1846 C 0.18276 0.5944 0.5985 0.0
C1847 C 0.16054 0.58272 0.60681 0.0
C1848 C 0.18343 0.60726 0.57537 0.0
C1849 C 0.13882 0.58433 0.59175 0.0
C1850 C 0.13929 0.59723 0.56873 0.0
C1851 C 0.16257 0.62103 0.53666 0.0
C1852 C 0.18543 0.6312 0.52796 0.0
C1853 C 0.16155 0.60871 0.56023 0.0
C1854 C 0.20683 0.62996 0.54347 0.0
C1855 C 0.20582 0.61833 0.56697 0.0
H1856 H 0.39771 0.21705 0.53538 0.0
H1857 H 0.37283 0.14053 0.5244 0.0
H1858 H 0.38954 0.12909 0.56608 0.0
H1859 H 0.4122 0.14127 0.60555 0.0
H1860 H 0.43472 0.21887 0.61519 0.0
H1861 H 0.41823 0.22929 0.57401 0.0
C1862 C 0.39596 0.19777 0.54195 0.0
C1863 C 0.38429 0.1796 0.52665 0.0
C1864 C 0.40536 0.19151 0.56572 0.0
C1865 C 0.38176 0.15488 0.5358 0.0
C1866 C 0.3914 0.14835 0.55958 0.0
C1867 C 0.41351 0.1604 0.59853 0.0
C1868 C 0.42493 0.17919 0.61344 0.0
C1869 C 0.40343 0.16653 0.57468 0.0
C1870 C 0.42621 0.20397 0.60421 0.0
C1871 C 0.41672 0.21002 0.5806 0.0
H1872 H 0.85798 0.37981 0.52774 0.0
H1873 H 0.77744 0.39012 0.5283 0.0
H1874 H 0.7795 0.40773 0.57054 0.0
H1875 H 0.80404 0.42143 0.60698 0.0
H1876 H 0.88476 0.41336 0.60633 0.0
H1877 H 0.88279 0.39378 0.56469 0.0
C1878 C 0.84092 0.38574 0.53724 0.0
C1879 C 0.81763 0.38369 0.52485 0.0
C1880 C 0.84225 0.39642 0.56151 0.0
C1881 C 0.79567 0.39168 0.53731 0.0
C1882 C 0.79678 0.40174 0.56151 0.0
C1883 C 0.8212 0.41533 0.59777 0.0
C1884 C 0.84448 0.41884 0.60973 0.0
C1885 C 0.81996 0.40443 0.57371 0.0
C1886 C 0.86656 0.41093 0.59747 0.0
C1887 C 0.86546 0.39969 0.57367 0.0
H1888 H 0.59874 0.13305 0.40199 0.0
H1889 H 0.5762 0.21056 0.3924 0.0
H1890 H 0.59104 0.22054 0.43436 0.0
H1891 H 0.61083 0.20807 0.47322 0.0
H1892 H 0.63649 0.13178 0.48385 0.0
H1893 H 0.62015 0.12052 0.44198 0.0
C1894 C 0.59707 0.15207 0.40919 0.0
C1895 C 0.58619 0.17099 0.39406 0.0
C1896 C 0.60623 0.15792 0.43345 0.0
C1897 C 0.58437 0.1956 0.40353 0.0
C1898 C 0.59288 0.20137 0.4276 0.0
C1899 C 0.61273 0.18883 0.46664 0.0
C1900 C 0.62462 0.17072 0.48186 0.0
C1901 C 0.60384 0.18275 0.44264 0.0
C1902 C 0.62732 0.14608 0.47259 0.0
C1903 C 0.61798 0.13967 0.44866 0.0
H1904 H 0.86652 0.58812 0.39979 0.0
H1905 H 0.78663 0.57633 0.39049 0.0
H1906 H 0.77873 0.59473 0.43155 0.0
H1907 H 0.79392 0.61412 0.46977 0.0
H1908 H 0.87318 0.62829 0.48014 0.0
H1909 H 0.88193 0.60931 0.4388 0.0
C1910 C 0.84743 0.58956 0.40686 0.0
C1911 C 0.82719 0.58069 0.39213 0.0
C1912 C 0.8429 0.60068 0.43055 0.0
C1913 C 0.80254 0.58291 0.40137 0.0
C1914 C 0.79798 0.59347 0.42489 0.0
C1915 C 0.81321 0.613 0.46317 0.0
C1916 C 0.83291 0.62235 0.47819 0.0
C1917 C 0.81795 0.60238 0.43957 0.0
C1918 C 0.85768 0.6212 0.46897 0.0
C1919 C 0.86266 0.61028 0.44539 0.0
H1920 H 0.40725 0.80678 0.47858 0.0
H1921 H 0.37577 0.88151 0.48202 0.0
H1922 H 0.39296 0.89075 0.44002 0.0
H1923 H 0.41619 0.8767 0.40177 0.0
H1924 H 0.44406 0.80045 0.39877 0.0
H1925 H 0.42915 0.79279 0.44127 0.0
C1926 C 0.40432 0.82526 0.47037 0.0
C1927 C 0.39048 0.84354 0.48355 0.0
C1928 C 0.41358 0.8301 0.44622 0.0
C1929 C 0.38644 0.86714 0.47228 0.0
C1930 C 0.39625 0.8724 0.4483 0.0
C1931 C 0.41906 0.85849 0.41056 0.0
C1932 C 0.43135 0.83922 0.39715 0.0
C1933 C 0.40974 0.85392 0.43499 0.0
C1934 C 0.4347 0.81562 0.40858 0.0
C1935 C 0.42618 0.81119 0.43295 0.0
H1936 H 0.16318 0.3923 0.38956 0.0
H1937 H 0.13781 0.46494 0.41488 0.0
H1938 H 0.1373 0.44991 0.45861 0.0
H1939 H 0.1482 0.41705 0.48979 0.0
H1940 H 0.17035 0.34346 0.46402 0.0
H1941 H 0.1676 0.35758 0.4202 0.0
C1942 C 0.15728 0.40464 0.40472 0.0
C1943 C 0.15087 0.42968 0.39937 0.0
C1944 C 0.15639 0.39564 0.42959 0.0
C1945 C 0.14289 0.44559 0.41884 0.0
C1946 C 0.14263 0.43701 0.44374 0.0
C1947 C 0.15166 0.40399 0.47448 0.0
C1948 C 0.15933 0.37928 0.47993 0.0
C1949 C 0.14983 0.41221 0.44939 0.0
C1950 C 0.16401 0.36245 0.46013 0.0
C1951 C 0.16275 0.37061 0.43513 0.0
H1952 H 0.60652 0.58944 0.86814 0.0
H1953 H 0.60363 0.55498 0.79463 0.0
H1954 H 0.56105 0.57019 0.78859 0.0
H1955 H 0.52604 0.59533 0.80241 0.0
H1956 H 0.52863 0.63403 0.87383 0.0
H1957 H 0.56981 0.61497 0.8826 0.0
C1958 C 0.59635 0.58511 0.85098 0.0
C1959 C 0.60819 0.57108 0.83184 0.0
C1960 C 0.57192 0.59476 0.8472 0.0
C1961 C 0.59504 0.56581 0.80956 0.0
C1962 C 0.57063 0.57449 0.80609 0.0
C1963 C 0.5353 0.59952 0.82011 0.0
C1964 C 0.52412 0.61615 0.83743 0.0
C1965 C 0.5591 0.5893 0.82456 0.0
C1966 C 0.53675 0.62131 0.86013 0.0
C1967 C 0.56034 0.61047 0.8651 0.0
H1968 H 0.41529 0.60578 0.86951 0.0
H1969 H 0.4324 0.61545 0.79054 0.0
H1970 H 0.41582 0.57392 0.78146 0.0
H1971 H 0.39676 0.53501 0.79532 0.0
H1972 H 0.37647 0.52446 0.87324 0.0
H1973 H 0.39383 0.56624 0.88337 0.0
C1974 C 0.4153 0.59875 0.85035 0.0
C1975 C 0.42536 0.61367 0.83079 0.0
C1976 C 0.40522 0.57473 0.84506 0.0
C1977 C 0.42502 0.60441 0.80601 0.0
C1978 C 0.41551 0.5806 0.80075 0.0
C1979 C 0.39629 0.54165 0.81463 0.0
C1980 C 0.38574 0.52647 0.83359 0.0
C1981 C 0.40572 0.56561 0.82008 0.0
C1982 C 0.38466 0.53574 0.85834 0.0
C1983 C 0.39459 0.5596 0.8641 0.0
H1984 H 0.39971 0.41507 0.87115 0.0
H1985 H 0.39735 0.43265 0.79173 0.0
H1986 H 0.4396 0.41648 0.78642 0.0
H1987 H 0.47709 0.39755 0.80357 0.0
H1988 H 0.48071 0.37671 0.88196 0.0
H1989 H 0.43807 0.39374 0.88841 0.0
C1990 C 0.40851 0.41532 0.85273 0.0
C1991 C 0.39534 0.42537 0.83192 0.0
C1992 C 0.43301 0.40542 0.8496 0.0
C1993 C 0.40692 0.42528 0.80813 0.0
C1994 C 0.43118 0.41599 0.80502 0.0
C1995 C 0.46877 0.39687 0.82222 0.0
C1996 C 0.48231 0.38627 0.84237 0.0
C1997 C 0.44438 0.40614 0.82557 0.0
C1998 C 0.47079 0.38494 0.86617 0.0
C1999 C 0.44643 0.39469 0.86982 0.0
H2000 H 0.59127 0.39248 0.80731 0.0
H2001 H 0.58715 0.4007 0.88796 0.0
H2002 H 0.60923 0.44125 0.88507 0.0
H2003 H 0.62803 0.4755 0.85887 0.0
H2004 H 0.63032 0.46624 0.77816 0.0
H2005 H 0.61096 0.42492 0.78187 0.0
C2006 C 0.59521 0.40307 0.82432 0.0
C2007 C 0.58742 0.39368 0.84778 0.0
C2008 C 0.60771 0.42622 0.82248 0.0
C2009 C 0.59286 0.40759 0.86963 0.0
C2010 C 0.60551 0.43076 0.86798 0.0
C2011 C 0.62459 0.46419 0.84223 0.0
C2012 C 0.6305 0.47394 0.81828 0.0
C2013 C 0.61286 0.44041 0.84443 0.0
C2014 C 0.62575 0.45924 0.79679 0.0
C2015 C 0.61465 0.4356 0.79886 0.0
H2016 H 0.52522 0.37781 0.14657 0.0
H2017 H 0.5206 0.39997 0.22476 0.0
H2018 H 0.56229 0.4182 0.22255 0.0
H2019 H 0.60043 0.42742 0.19923 0.0
H2020 H 0.60566 0.40832 0.12054 0.0
H2021 H 0.56361 0.38922 0.12221 0.0
C2022 C 0.53332 0.38673 0.16304 0.0
C2023 C 0.51961 0.38745 0.18575 0.0
C2024 C 0.55753 0.39762 0.16167 0.0
C2025 C 0.53045 0.39922 0.20691 0.0
C2026 C 0.55445 0.4096 0.20578 0.0
C2027 C 0.59244 0.41912 0.1824 0.0
C2028 C 0.60619 0.41918 0.15986 0.0
C2029 C 0.56819 0.40881 0.18336 0.0
C2030 C 0.59542 0.40847 0.13818 0.0
C2031 C 0.57138 0.39757 0.13912 0.0
H2032 H 0.58708 0.51756 0.19745 0.0
H2033 H 0.62953 0.52452 0.12844 0.0
H2034 H 0.61068 0.56608 0.12105 0.0
H2035 H 0.584 0.60163 0.13608 0.0
H2036 H 0.54559 0.59451 0.20732 0.0
H2037 H 0.56088 0.55161 0.21187 0.0
C2038 C 0.59213 0.52788 0.18055 0.0
C2039 C 0.60971 0.51781 0.16348 0.0
C2040 C 0.58195 0.55183 0.17692 0.0
C2041 C 0.61606 0.53179 0.1419 0.0
C2042 C 0.60532 0.55556 0.13771 0.0
C2043 C 0.57882 0.59046 0.15238 0.0
C2044 C 0.56366 0.60109 0.17135 0.0
C2045 C 0.58851 0.56595 0.15534 0.0
C2046 C 0.55729 0.58674 0.19258 0.0
C2047 C 0.56602 0.56221 0.19518 0.0
H2048 H 0.46831 0.61953 0.14805 0.0
H2049 H 0.45861 0.63208 0.2277 0.0
H2050 H 0.41679 0.61338 0.22615 0.0
H2051 H 0.38406 0.59095 0.20308 0.0
H2052 H 0.39295 0.57727 0.12356 0.0
H2053 H 0.43383 0.59865 0.12412 0.0
C2054 C 0.45676 0.61857 0.16487 0.0
C2055 C 0.46649 0.62714 0.18795 0.0
C2056 C 0.43273 0.60719 0.16399 0.0
C2057 C 0.45152 0.62551 0.20973 0.0
C2058 C 0.42764 0.61473 0.20891 0.0
C2059 C 0.39491 0.59266 0.18585 0.0
C2060 C 0.38558 0.58236 0.16339 0.0
C2061 C 0.41828 0.60501 0.1863 0.0
C2062 C 0.39978 0.58495 0.14117 0.0
C2063 C 0.42315 0.59723 0.14146 0.0
H2064 H 0.40977 0.40127 0.13738 0.0
H2065 H 0.42373 0.39313 0.21707 0.0
H2066 H 0.40409 0.43366 0.22501 0.0
H2067 H 0.38366 0.47153 0.20973 0.0
H2068 H 0.36716 0.48025 0.13072 0.0
H2069 H 0.38678 0.4392 0.12209 0.0
C2070 C 0.40848 0.40842 0.15645 0.0
C2071 C 0.41844 0.39425 0.17659 0.0
C2072 C 0.39666 0.43176 0.16101 0.0
C2073 C 0.41635 0.4036 0.20123 0.0
C2074 C 0.4051 0.42682 0.20581 0.0
C2075 C 0.38438 0.46455 0.19054 0.0
C2076 C 0.37428 0.47908 0.17082 0.0
C2077 C 0.39533 0.44106 0.18588 0.0
C2078 C 0.37486 0.46945 0.1462 0.0
C2079 C 0.38615 0.44604 0.1413 0.0
H2080 H 0.80129 0.52389 0.60437 0.0
H2081 H 0.87686 0.52114 0.63396 0.0
H2082 H 0.88557 0.56276 0.61578 0.0
H2083 H 0.87107 0.60032 0.59205 0.0
H2084 H 0.79446 0.60282 0.5652 0.0
H2085 H 0.78687 0.56071 0.58164 0.0
C2086 C 0.8198 0.5322 0.60673 0.0
C2087 C 0.83847 0.5193 0.62035 0.0
C2088 C 0.82444 0.55612 0.59673 0.0
C2089 C 0.86216 0.53066 0.62354 0.0
C2090 C 0.86714 0.55442 0.61313 0.0
C2091 C 0.85279 0.59152 0.58973 0.0
C2092 C 0.83336 0.60461 0.57737 0.0
C2093 C 0.84835 0.56739 0.59977 0.0
C2094 C 0.80969 0.59318 0.57467 0.0
C2095 C 0.80532 0.56908 0.58405 0.0
H2096 H 0.85525 0.48224 0.3834 0.0
H2097 H 0.77507 0.47328 0.37399 0.0
H2098 H 0.77658 0.43245 0.39465 0.0
H2099 H 0.79998 0.39987 0.41643 0.0
H2100 H 0.87989 0.40802 0.42782 0.0
H2101 H 0.8792 0.44855 0.40563 0.0
C2102 C 0.83825 0.47114 0.38569 0.0
C2103 C 0.81509 0.48074 0.37723 0.0
C2104 C 0.83912 0.44768 0.39819 0.0
C2105 C 0.7931 0.46635 0.38051 0.0
C2106 C 0.79391 0.443 0.39233 0.0
C2107 C 0.81728 0.41048 0.41412 0.0
C2108 C 0.83992 0.40099 0.4238 0.0
C2109 C 0.81671 0.43363 0.4015 0.0
C2110 C 0.86217 0.415 0.42061 0.0
C2111 C 0.86179 0.43813 0.40785 0.0
H2112 H 0.53936 0.79984 0.38623 0.0
H2113 H 0.52789 0.87921 0.37384 0.0
H2114 H 0.56988 0.88812 0.39128 0.0
H2115 H 0.60944 0.87279 0.41147 0.0
H2116 H 0.61962 0.79269 0.42146 0.0
H2117 H 0.57848 0.7847 0.4036 0.0
C2118 C 0.54593 0.81916 0.38741 0.0
C2119 C 0.53042 0.83888 0.37916 0.0
C2120 C 0.56988 0.82398 0.39708 0.0
C2121 C 0.53949 0.86372 0.38021 0.0
C2122 C 0.56344 0.86878 0.39022 0.0
C2123 C 0.60262 0.85364 0.40961 0.0
C2124 C 0.61752 0.83341 0.41812 0.0
C2125 C 0.57875 0.84901 0.39893 0.0
C2126 C 0.60854 0.80866 0.41537 0.0
C2127 C 0.58497 0.804 0.4051 0.0
H2128 H 0.13694 0.60859 0.41301 0.0
H2129 H 0.2139 0.61064 0.43884 0.0
H2130 H 0.2212 0.56891 0.42151 0.0
H2131 H 0.20614 0.53197 0.39913 0.0
H2132 H 0.13023 0.52952 0.37059 0.0
H2133 H 0.12214 0.5714 0.38852 0.0
C2134 C 0.15523 0.59978 0.41488 0.0
C2135 C 0.17481 0.61263 0.42736 0.0
C2136 C 0.15953 0.57584 0.40424 0.0
C2137 C 0.19853 0.60121 0.42935 0.0
C2138 C 0.20274 0.57731 0.41944 0.0
C2139 C 0.18775 0.54052 0.39683 0.0
C2140 C 0.16873 0.52755 0.38375 0.0
C2141 C 0.18343 0.56451 0.40685 0.0
C2142 C 0.1452 0.53914 0.38055 0.0
C2143 C 0.14056 0.56301 0.39091 0.0
H2144 H 0.48908 0.20099 0.40586 0.0
H2145 H 0.48146 0.13299 0.362 0.0
H2146 H 0.43956 0.12595 0.3804 0.0
H2147 H 0.40381 0.14117 0.40707 0.0
H2148 H 0.41234 0.21136 0.4471 0.0
H2149 H 0.45519 0.21538 0.43206 0.0
C2150 C 0.47852 0.18445 0.40025 0.0
C2151 C 0.48852 0.16764 0.38237 0.0
C2152 C 0.45441 0.18098 0.41021 0.0
C2153 C 0.47429 0.14632 0.37567 0.0
C2154 C 0.45028 0.14232 0.38613 0.0
C2155 C 0.41523 0.15715 0.41262 0.0
C2156 C 0.40486 0.17597 0.4282 0.0
C2157 C 0.43995 0.15983 0.40314 0.0
C2158 C 0.41971 0.1967 0.43508 0.0
C2159 C 0.44431 0.19904 0.42649 0.0
H2160 H 0.14395 0.4765 0.62437 0.0
H2161 H 0.22387 0.48246 0.61074 0.0
H2162 H 0.22399 0.44133 0.59086 0.0
H2163 H 0.20184 0.40359 0.57704 0.0
H2164 H 0.12184 0.39705 0.589 0.0
H2165 H 0.12132 0.4383 0.60958 0.0
C2166 C 0.16135 0.46871 0.61712 0.0
C2167 C 0.18382 0.48267 0.61903 0.0
C2168 C 0.16132 0.44493 0.60526 0.0
C2169 C 0.20621 0.47232 0.60937 0.0
C2170 C 0.20638 0.44872 0.598 0.0
C2171 C 0.18426 0.41118 0.58411 0.0
C2172 C 0.16196 0.39725 0.58154 0.0
C2173 C 0.18408 0.43489 0.59575 0.0
C2174 C 0.13932 0.40743 0.59071 0.0
C2175 C 0.13901 0.431 0.60255 0.0
H2176 H 0.60477 0.14048 0.59672 0.0
H2177 H 0.6096 0.2175 0.57103 0.0
H2178 H 0.5682 0.22617 0.58827 0.0
H2179 H 0.53125 0.2127 0.61111 0.0
H2180 H 0.52553 0.13666 0.63929 0.0
H2181 H 0.56671 0.12683 0.62069 0.0
C2182 C 0.59665 0.1591 0.59485 0.0
C2183 C 0.61028 0.17829 0.58249 0.0
C2184 C 0.57276 0.16418 0.60531 0.0
C2185 C 0.59962 0.20238 0.5804 0.0
C2186 C 0.57589 0.20739 0.59027 0.0
C2187 C 0.53877 0.19384 0.61315 0.0
C2188 C 0.52511 0.1754 0.62649 0.0
C2189 C 0.56239 0.18851 0.60281 0.0
C2190 C 0.53556 0.15123 0.62911 0.0
C2191 C 0.55911 0.14561 0.61846 0.0
H2192 H 0.47748 0.86213 0.62619 0.0
H2193 H 0.47609 0.78106 0.62004 0.0
H2194 H 0.43472 0.78267 0.60083 0.0
H2195 H 0.39926 0.80666 0.58481 0.0
H2196 H 0.39994 0.88772 0.58909 0.0
H2197 H 0.44107 0.88655 0.60994 0.0
C2198 C 0.46801 0.84487 0.62077 0.0
C2199 C 0.48 0.82155 0.62446 0.0
C2200 C 0.4441 0.84588 0.60928 0.0
C2201 C 0.4675 0.79932 0.6172 0.0
C2202 C 0.44375 0.80016 0.60623 0.0
C2203 C 0.40835 0.82411 0.59031 0.0
C2204 C 0.39659 0.84721 0.58538 0.0
C2205 C 0.43197 0.8233 0.60199 0.0
C2206 C 0.40866 0.86964 0.59264 0.0
C2207 C 0.43217 0.86899 0.60458 0.0
loop_
_geom_bond_atom_site_label_1
_geom_bond_atom_site_label_2
_geom_bond_distance
_geom_bond_site_symmetry_2
_ccdc_geom_bond_type
Co0 O1 2.216 . S
Co0 O2 2.091 . S
Co0 O4 2.029 . S
Co0 O10 2.021 . S
Co0 O12 2.137 . S
Co0 O13 2.244 . S
O1 Co0 2.216 . S
O1 C8 1.247 . S
O2 Co0 2.091 . S
O2 C8 1.261 . S
C3 O12 1.247 . S
C3 O13 1.272 . S
O4 Co0 2.029 . S
O4 C9 1.244 1_455 S
Co5 O6 2.061 1_455 S
Co5 O11 2.052 . S
Co5 O13 2.135 . S
O6 Co5 2.061 1_655 S
O6 C9 1.235 . S
C7 O10 1.238 . S
C7 O11 1.241 . S
C8 O1 1.247 . S
C8 O2 1.261 . S
C9 O4 1.244 1_655 S
C9 O6 1.235 . S
O10 Co0 2.021 . S
O10 C7 1.238 . S
O11 Co5 2.052 . S
O11 C7 1.241 . S
O12 Co0 2.137 . S
O12 C3 1.247 . S
O13 Co0 2.244 . S
O13 C3 1.272 . S
O13 Co5 2.135 . S
Co14 O15 2.216 . S
Co14 O16 2.091 . S
Co14 O18 2.029 . S
Co14 O24 2.021 . S
Co14 O26 2.137 . S
Co14 O27 2.244 . S
O15 Co14 2.216 . S
O15 C22 1.247 . S
O16 Co14 2.091 . S
O16 C22 1.261 . S
C17 O26 1.247 . S
C17 O27 1.272 . S
O18 Co14 2.029 . S
O18 C23 1.244 1_545 S
Co19 O20 2.061 1_545 S
Co19 O25 2.052 . S
Co19 O27 2.135 . S
O20 Co19 2.061 1_565 S
O20 C23 1.235 . S
C21 O24 1.238 . S
C21 O25 1.241 . S
C22 O15 1.247 . S
C22 O16 1.261 . S
C23 O18 1.244 1_565 S
C23 O20 1.235 . S
O24 Co14 2.021 . S
O24 C21 1.238 . S
O25 Co19 2.052 . S
O25 C21 1.241 . S
O26 Co14 2.137 . S
O26 C17 1.247 . S
O27 Co14 2.244 . S
O27 C17 1.272 . S
O27 Co19 2.135 . S
Co28 O29 2.216 . S
Co28 O30 2.091 . S
Co28 O32 2.029 . S
Co28 O38 2.021 . S
Co28 O40 2.137 . S
Co28 O41 2.244 . S
O29 Co28 2.216 . S
O29 C36 1.247 . S
O30 Co28 2.091 . S
O30 C36 1.261 . S
C31 O40 1.247 . S
C31 O41 1.272 . S
O32 Co28 2.029 . S
O32 C37 1.244 1_655 S
Co33 O34 2.061 1_655 S
Co33 O39 2.052 . S
Co33 O41 2.135 . S
O34 Co33 2.061 1_455 S
O34 C37 1.235 . S
C35 O38 1.238 . S
C35 O39 1.241 . S
C36 O29 1.247 . S
C36 O30 1.261 . S
C37 O32 1.244 1_455 S
C37 O34 1.235 . S
O38 Co28 2.021 . S
O38 C35 1.238 . S
O39 Co33 2.052 . S
O39 C35 1.241 . S
O40 Co28 2.137 . S
O40 C31 1.247 . S
O41 Co28 2.244 . S
O41 C31 1.272 . S
O41 Co33 2.135 . S
Co42 O43 2.216 . S
Co42 O44 2.091 . S
Co42 O46 2.029 . S
Co42 O52 2.021 . S
Co42 O54 2.137 . S
Co42 O55 2.244 . S
O43 Co42 2.216 . S
O43 C50 1.247 . S
O44 Co42 2.091 . S
O44 C50 1.261 . S
C45 O54 1.247 . S
C45 O55 1.272 . S
O46 Co42 2.029 . S
O46 C51 1.244 1_565 S
Co47 O48 2.061 1_565 S
Co47 O53 2.052 . S
Co47 O55 2.135 . S
O48 Co47 2.061 1_545 S
O48 C51 1.235 . S
C49 O52 1.238 . S
C49 O53 1.241 . S
C50 O43 1.247 . S
C50 O44 1.261 . S
C51 O46 1.244 1_545 S
C51 O48 1.235 . S
O52 Co42 2.021 . S
O52 C49 1.238 . S
O53 Co47 2.052 . S
O53 C49 1.241 . S
O54 Co42 2.137 . S
O54 C45 1.247 . S
O55 Co42 2.244 . S
O55 C45 1.272 . S
O55 Co47 2.135 . S
Co56 O57 2.216 . S
Co56 O58 2.091 . S
Co56 O60 2.029 . S
Co56 O66 2.021 . S
Co56 O68 2.137 . S
Co56 O69 2.244 . S
O57 Co56 2.216 . S
O57 C64 1.247 . S
O58 Co56 2.091 . S
O58 C64 1.261 . S
C59 O68 1.247 . S
C59 O69 1.272 . S
O60 Co56 2.029 . S
O60 C65 1.244 1_455 S
Co61 O62 2.061 1_455 S
Co61 O67 2.052 . S
Co61 O69 2.135 . S
O62 Co61 2.061 1_655 S
O62 C65 1.235 . S
C63 O66 1.238 . S
C63 O67 1.241 . S
C64 O57 1.247 . S
C64 O58 1.261 . S
C65 O60 1.244 1_655 S
C65 O62 1.235 . S
O66 Co56 2.021 . S
O66 C63 1.238 . S
O67 Co61 2.052 . S
O67 C63 1.241 . S
O68 Co56 2.137 . S
O68 C59 1.247 . S
O69 Co56 2.244 . S
O69 C59 1.272 . S
O69 Co61 2.135 . S
Co70 O71 2.216 . S
Co70 O72 2.091 . S
Co70 O74 2.029 . S
Co70 O80 2.021 . S
Co70 O82 2.137 . S
Co70 O83 2.244 . S
O71 Co70 2.216 . S
O71 C78 1.247 . S
O72 Co70 2.091 . S
O72 C78 1.261 . S
C73 O82 1.247 . S
C73 O83 1.272 . S
O74 Co70 2.029 . S
O74 C79 1.244 1_545 S
Co75 O76 2.061 1_545 S
Co75 O81 2.052 . S
Co75 O83 2.135 . S
O76 Co75 2.061 1_565 S
O76 C79 1.235 . S
C77 O80 1.238 . S
C77 O81 1.241 . S
C78 O71 1.247 . S
C78 O72 1.261 . S
C79 O74 1.244 1_565 S
C79 O76 1.235 . S
O80 Co70 2.021 . S
O80 C77 1.238 . S
O81 Co75 2.052 . S
O81 C77 1.241 . S
O82 Co70 2.137 . S
O82 C73 1.247 . S
O83 Co70 2.244 . S
O83 C73 1.272 . S
O83 Co75 2.135 . S
Co84 O85 2.216 . S
Co84 O86 2.091 . S
Co84 O88 2.029 . S
Co84 O94 2.021 . S
Co84 O96 2.137 . S
Co84 O97 2.244 . S
O85 Co84 2.216 . S
O85 C92 1.247 . S
O86 Co84 2.091 . S
O86 C92 1.261 . S
C87 O96 1.247 . S
C87 O97 1.272 . S
O88 Co84 2.029 . S
O88 C93 1.244 1_655 S
Co89 O90 2.061 1_655 S
Co89 O95 2.052 . S
Co89 O97 2.135 . S
O90 Co89 2.061 1_455 S
O90 C93 1.235 . S
C91 O94 1.238 . S
C91 O95 1.241 . S
C92 O85 1.247 . S
C92 O86 1.261 . S
C93 O88 1.244 1_455 S
C93 O90 1.235 . S
O94 Co84 2.021 . S
O94 C91 1.238 . S
O95 Co89 2.052 . S
O95 C91 1.241 . S
O96 Co84 2.137 . S
O96 C87 1.247 . S
O97 Co84 2.244 . S
O97 C87 1.272 . S
O97 Co89 2.135 . S
Co98 O99 2.216 . S
Co98 O100 2.091 . S
Co98 O102 2.029 . S
Co98 O108 2.021 . S
Co98 O110 2.137 . S
Co98 O111 2.244 . S
O99 Co98 2.216 . S
O99 C106 1.247 . S
O100 Co98 2.091 . S
O100 C106 1.261 . S
C101 O110 1.247 . S
C101 O111 1.272 . S
O102 Co98 2.029 . S
O102 C107 1.244 1_565 S
Co103 O104 2.061 1_565 S
Co103 O109 2.052 . S
Co103 O111 2.135 . S
O104 Co103 2.061 1_545 S
O104 C107 1.235 . S
C105 O108 1.238 . S
C105 O109 1.241 . S
C106 O99 1.247 . S
C106 O100 1.261 . S
C107 O102 1.244 1_545 S
C107 O104 1.235 . S
O108 Co98 2.021 . S
O108 C105 1.238 . S
O109 Co103 2.052 . S
O109 C105 1.241 . S
O110 Co98 2.137 . S
O110 C101 1.247 . S
O111 Co98 2.244 . S
O111 C101 1.272 . S
O111 Co103 2.135 . S
Co112 O113 2.216 . S
Co112 O114 2.091 . S
Co112 O116 2.029 . S
Co112 O122 2.021 . S
Co112 O124 2.137 . S
Co112 O125 2.244 . S
O113 Co112 2.216 . S
O113 C120 1.247 . S
O114 Co112 2.091 . S
O114 C120 1.261 . S
C115 O124 1.247 . S
C115 O125 1.272 . S
O116 Co112 2.029 . S
O116 C121 1.244 1_545 S
Co117 O118 2.061 1_545 S
Co117 O123 2.052 . S
Co117 O125 2.135 . S
O118 Co117 2.061 1_565 S
O118 C121 1.235 . S
C119 O122 1.238 . S
C119 O123 1.241 . S
C120 O113 1.247 . S
C120 O114 1.261 . S
C121 O116 1.244 1_565 S
C121 O118 1.235 . S
O122 Co112 2.021 . S
O122 C119 1.238 . S
O123 Co117 2.052 . S
O123 C119 1.241 . S
O124 Co112 2.137 . S
O124 C115 1.247 . S
O125 Co112 2.244 . S
O125 C115 1.272 . S
O125 Co117 2.135 . S
Co126 O127 2.216 . S
Co126 O128 2.091 . S
Co126 O130 2.029 . S
Co126 O136 2.021 . S
Co126 O138 2.137 . S
Co126 O139 2.244 . S
O127 Co126 2.216 . S
O127 C134 1.247 . S
O128 Co126 2.091 . S
O128 C134 1.261 . S
C129 O138 1.247 . S
C129 O139 1.272 . S
O130 Co126 2.029 . S
O130 C135 1.244 1_655 S
Co131 O132 2.061 1_655 S
Co131 O137 2.052 . S
Co131 O139 2.135 . S
O132 Co131 2.061 1_455 S
O132 C135 1.235 . S
C133 O136 1.238 . S
C133 O137 1.241 . S
C134 O127 1.247 . S
C134 O128 1.261 . S
C135 O130 1.244 1_455 S
C135 O132 1.235 . S
O136 Co126 2.021 . S
O136 C133 1.238 . S
O137 Co131 2.052 . S
O137 C133 1.241 . S
O138 Co126 2.137 . S
O138 C129 1.247 . S
O139 Co126 2.244 . S
O139 C129 1.272 . S
O139 Co131 2.135 . S
Co140 O141 2.216 . S
Co140 O142 2.091 . S
Co140 O144 2.029 . S
Co140 O150 2.021 . S
Co140 O152 2.137 . S
Co140 O153 2.244 . S
O141 Co140 2.216 . S
O141 C148 1.247 . S
O142 Co140 2.091 . S
O142 C148 1.261 . S
C143 O152 1.247 . S
C143 O153 1.272 . S
O144 Co140 2.029 . S
O144 C149 1.244 1_565 S
Co145 O146 2.061 1_565 S
Co145 O151 2.052 . S
Co145 O153 2.135 . S
O146 Co145 2.061 1_545 S
O146 C149 1.235 . S
C147 O150 1.238 . S
C147 O151 1.241 . S
C148 O141 1.247 . S
C148 O142 1.261 . S
C149 O144 1.244 1_545 S
C149 O146 1.235 . S
O150 Co140 2.021 . S
O150 C147 1.238 . S
O151 Co145 2.052 . S
O151 C147 1.241 . S
O152 Co140 2.137 . S
O152 C143 1.247 . S
O153 Co140 2.244 . S
O153 C143 1.272 . S
O153 Co145 2.135 . S
Co154 O155 2.216 . S
Co154 O156 2.091 . S
Co154 O158 2.029 . S
Co154 O164 2.021 . S
Co154 O166 2.137 . S
Co154 O167 2.244 . S
O155 Co154 2.216 . S
O155 C162 1.247 . S
O156 Co154 2.091 . S
O156 C162 1.261 . S
C157 O166 1.247 . S
C157 O167 1.272 . S
O158 Co154 2.029 . S
O158 C163 1.244 1_455 S
Co159 O160 2.061 1_455 S
Co159 O165 2.052 . S
Co159 O167 2.135 . S
O160 Co159 2.061 1_655 S
O160 C163 1.235 . S
C161 O164 1.238 . S
C161 O165 1.241 . S
C162 O155 1.247 . S
C162 O156 1.261 . S
C163 O158 1.244 1_655 S
C163 O160 1.235 . S
O164 Co154 2.021 . S
O164 C161 1.238 . S
O165 Co159 2.052 . S
O165 C161 1.241 . S
O166 Co154 2.137 . S
O166 C157 1.247 . S
O167 Co154 2.244 . S
O167 C157 1.272 . S
O167 Co159 2.135 . S
Co168 O169 2.216 . S
Co168 O170 2.091 . S
Co168 O172 2.029 . S
Co168 O178 2.021 . S
Co168 O180 2.137 . S
Co168 O181 2.244 . S
O169 Co168 2.216 . S
O169 C176 1.247 . S
O170 Co168 2.091 . S
O170 C176 1.261 . S
C171 O180 1.247 . S
C171 O181 1.272 . S
O172 Co168 2.029 . S
O172 C177 1.244 1_565 S
Co173 O174 2.061 1_565 S
Co173 O179 2.052 . S
Co173 O181 2.135 . S
O174 Co173 2.061 1_545 S
O174 C177 1.235 . S
C175 O178 1.238 . S
C175 O179 1.241 . S
C176 O169 1.247 . S
C176 O170 1.261 . S
C177 O172 1.244 1_545 S
C177 O174 1.235 . S
O178 Co168 2.021 . S
O178 C175 1.238 . S
O179 Co173 2.052 . S
O179 C175 1.241 . S
O180 Co168 2.137 . S
O180 C171 1.247 . S
O181 Co168 2.244 . S
O181 C171 1.272 . S
O181 Co173 2.135 . S
Co182 O183 2.216 . S
Co182 O184 2.091 . S
Co182 O186 2.029 . S
Co182 O192 2.021 . S
Co182 O194 2.137 . S
Co182 O195 2.244 . S
O183 Co182 2.216 . S
O183 C190 1.247 . S
O184 Co182 2.091 . S
O184 C190 1.261 . S
C185 O194 1.247 . S
C185 O195 1.272 . S
O186 Co182 2.029 . S
O186 C191 1.244 1_455 S
Co187 O188 2.061 1_455 S
Co187 O193 2.052 . S
Co187 O195 2.135 . S
O188 Co187 2.061 1_655 S
O188 C191 1.235 . S
C189 O192 1.238 . S
C189 O193 1.241 . S
C190 O183 1.247 . S
C190 O184 1.261 . S
C191 O186 1.244 1_655 S
C191 O188 1.235 . S
O192 Co182 2.021 . S
O192 C189 1.238 . S
O193 Co187 2.052 . S
O193 C189 1.241 . S
O194 Co182 2.137 . S
O194 C185 1.247 . S
O195 Co182 2.244 . S
O195 C185 1.272 . S
O195 Co187 2.135 . S
Co196 O197 2.216 . S
Co196 O198 2.091 . S
Co196 O200 2.029 . S
Co196 O206 2.021 . S
Co196 O208 2.137 . S
Co196 O209 2.244 . S
O197 Co196 2.216 . S
O197 C204 1.247 . S
O198 Co196 2.091 . S
O198 C204 1.261 . S
C199 O208 1.247 . S
C199 O209 1.272 . S
O200 Co196 2.029 . S
O200 C205 1.244 1_545 S
Co201 O202 2.061 1_545 S
Co201 O207 2.052 . S
Co201 O209 2.135 . S
O202 Co201 2.061 1_565 S
O202 C205 1.235 . S
C203 O206 1.238 . S
C203 O207 1.241 . S
C204 O197 1.247 . S
C204 O198 1.261 . S
C205 O200 1.244 1_565 S
C205 O202 1.235 . S
O206 Co196 2.021 . S
O206 C203 1.238 . S
O207 Co201 2.052 . S
O207 C203 1.241 . S
O208 Co196 2.137 . S
O208 C199 1.247 . S
O209 Co196 2.244 . S
O209 C199 1.272 . S
O209 Co201 2.135 . S
Co210 O211 2.216 . S
Co210 O212 2.091 . S
Co210 O214 2.029 . S
Co210 O220 2.021 . S
Co210 O222 2.137 . S
Co210 O223 2.244 . S
O211 Co210 2.216 . S
O211 C218 1.247 . S
O212 Co210 2.091 . S
O212 C218 1.261 . S
C213 O222 1.247 . S
C213 O223 1.272 . S
O214 Co210 2.029 . S
O214 C219 1.244 1_655 S
Co215 O216 2.061 1_655 S
Co215 O221 2.052 . S
Co215 O223 2.135 . S
O216 Co215 2.061 1_455 S
O216 C219 1.235 . S
C217 O220 1.238 . S
C217 O221 1.241 . S
C218 O211 1.247 . S
C218 O212 1.261 . S
C219 O214 1.244 1_455 S
C219 O216 1.235 . S
O220 Co210 2.021 . S
O220 C217 1.238 . S
O221 Co215 2.052 . S
O221 C217 1.241 . S
O222 Co210 2.137 . S
O222 C213 1.247 . S
O223 Co210 2.244 . S
O223 C213 1.272 . S
O223 Co215 2.135 . S
Co224 O225 2.216 . S
Co224 O226 2.091 . S
Co224 O228 2.029 . S
Co224 O234 2.021 . S
Co224 O236 2.137 . S
Co224 O237 2.244 . S
O225 Co224 2.216 . S
O225 C232 1.247 . S
O226 Co224 2.091 . S
O226 C232 1.261 . S
C227 O236 1.247 . S
C227 O237 1.272 . S
O228 Co224 2.029 . S
O228 C233 1.244 1_554 S
Co229 O230 2.061 1_554 S
Co229 O235 2.052 . S
Co229 O237 2.135 . S
O230 Co229 2.061 1_556 S
O230 C233 1.235 . S
C231 O234 1.238 . S
C231 O235 1.241 . S
C232 O225 1.247 . S
C232 O226 1.261 . S
C233 O228 1.244 1_556 S
C233 O230 1.235 . S
O234 Co224 2.021 . S
O234 C231 1.238 . S
O235 Co229 2.052 . S
O235 C231 1.241 . S
O236 Co224 2.137 . S
O236 C227 1.247 . S
O237 Co224 2.244 . S
O237 C227 1.272 . S
O237 Co229 2.135 . S
Co238 O239 2.216 . S
Co238 O240 2.091 . S
Co238 O242 2.029 . S
Co238 O248 2.021 . S
Co238 O250 2.137 . S
Co238 O251 2.244 . S
O239 Co238 2.216 . S
O239 C246 1.247 . S
O240 Co238 2.091 . S
O240 C246 1.261 . S
C241 O250 1.247 . S
C241 O251 1.272 . S
O242 Co238 2.029 . S
O242 C247 1.244 1_556 S
Co243 O244 2.061 1_556 S
Co243 O249 2.052 . S
Co243 O251 2.135 . S
O244 Co243 2.061 1_554 S
O244 C247 1.235 . S
C245 O248 1.238 . S
C245 O249 1.241 . S
C246 O239 1.247 . S
C246 O240 1.261 . S
C247 O242 1.244 1_554 S
C247 O244 1.235 . S
O248 Co238 2.021 . S
O248 C245 1.238 . S
O249 Co243 2.052 . S
O249 C245 1.241 . S
O250 Co238 2.137 . S
O250 C241 1.247 . S
O251 Co238 2.244 . S
O251 C241 1.272 . S
O251 Co243 2.135 . S
Co252 O253 2.216 . S
Co252 O254 2.091 . S
Co252 O256 2.029 . S
Co252 O262 2.021 . S
Co252 O264 2.137 . S
Co252 O265 2.244 . S
O253 Co252 2.216 . S
O253 C260 1.247 . S
O254 Co252 2.091 . S
O254 C260 1.261 . S
C255 O264 1.247 . S
C255 O265 1.272 . S
O256 Co252 2.029 . S
O256 C261 1.244 1_556 S
Co257 O258 2.061 1_556 S
Co257 O263 2.052 . S
Co257 O265 2.135 . S
O258 Co257 2.061 1_554 S
O258 C261 1.235 . S
C259 O262 1.238 . S
C259 O263 1.241 . S
C260 O253 1.247 . S
C260 O254 1.261 . S
C261 O256 1.244 1_554 S
C261 O258 1.235 . S
O262 Co252 2.021 . S
O262 C259 1.238 . S
O263 Co257 2.052 . S
O263 C259 1.241 . S
O264 Co252 2.137 . S
O264 C255 1.247 . S
O265 Co252 2.244 . S
O265 C255 1.272 . S
O265 Co257 2.135 . S
Co266 O267 2.216 . S
Co266 O268 2.091 . S
Co266 O270 2.029 . S
Co266 O276 2.021 . S
Co266 O278 2.137 . S
Co266 O279 2.244 . S
O267 Co266 2.216 . S
O267 C274 1.247 . S
O268 Co266 2.091 . S
O268 C274 1.261 . S
C269 O278 1.247 . S
C269 O279 1.272 . S
O270 Co266 2.029 . S
O270 C275 1.244 1_556 S
Co271 O272 2.061 1_556 S
Co271 O277 2.052 . S
Co271 O279 2.135 . S
O272 Co271 2.061 1_554 S
O272 C275 1.235 . S
C273 O276 1.238 . S
C273 O277 1.241 . S
C274 O267 1.247 . S
C274 O268 1.261 . S
C275 O270 1.244 1_554 S
C275 O272 1.235 . S
O276 Co266 2.021 . S
O276 C273 1.238 . S
O277 Co271 2.052 . S
O277 C273 1.241 . S
O278 Co266 2.137 . S
O278 C269 1.247 . S
O279 Co266 2.244 . S
O279 C269 1.272 . S
O279 Co271 2.135 . S
Co280 O281 2.216 . S
Co280 O282 2.091 . S
Co280 O284 2.029 . S
Co280 O290 2.021 . S
Co280 O292 2.137 . S
Co280 O293 2.244 . S
O281 Co280 2.216 . S
O281 C288 1.247 . S
O282 Co280 2.091 . S
O282 C288 1.261 . S
C283 O292 1.247 . S
C283 O293 1.272 . S
O284 Co280 2.029 . S
O284 C289 1.244 1_556 S
Co285 O286 2.061 1_556 S
Co285 O291 2.052 . S
Co285 O293 2.135 . S
O286 Co285 2.061 1_554 S
O286 C289 1.235 . S
C287 O290 1.238 . S
C287 O291 1.241 . S
C288 O281 1.247 . S
C288 O282 1.261 . S
C289 O284 1.244 1_554 S
C289 O286 1.235 . S
O290 Co280 2.021 . S
O290 C287 1.238 . S
O291 Co285 2.052 . S
O291 C287 1.241 . S
O292 Co280 2.137 . S
O292 C283 1.247 . S
O293 Co280 2.244 . S
O293 C283 1.272 . S
O293 Co285 2.135 . S
Co294 O295 2.216 . S
Co294 O296 2.091 . S
Co294 O298 2.029 . S
Co294 O304 2.021 . S
Co294 O306 2.137 . S
Co294 O307 2.244 . S
O295 Co294 2.216 . S
O295 C302 1.247 . S
O296 Co294 2.091 . S
O296 C302 1.261 . S
C297 O306 1.247 . S
C297 O307 1.272 . S
O298 Co294 2.029 . S
O298 C303 1.244 1_554 S
Co299 O300 2.061 1_554 S
Co299 O305 2.052 . S
Co299 O307 2.135 . S
O300 Co299 2.061 1_556 S
O300 C303 1.235 . S
C301 O304 1.238 . S
C301 O305 1.241 . S
C302 O295 1.247 . S
C302 O296 1.261 . S
C303 O298 1.244 1_556 S
C303 O300 1.235 . S
O304 Co294 2.021 . S
O304 C301 1.238 . S
O305 Co299 2.052 . S
O305 C301 1.241 . S
O306 Co294 2.137 . S
O306 C297 1.247 . S
O307 Co294 2.244 . S
O307 C297 1.272 . S
O307 Co299 2.135 . S
Co308 O309 2.216 . S
Co308 O310 2.091 . S
Co308 O312 2.029 . S
Co308 O318 2.021 . S
Co308 O320 2.137 . S
Co308 O321 2.244 . S
O309 Co308 2.216 . S
O309 C316 1.247 . S
O310 Co308 2.091 . S
O310 C316 1.261 . S
C311 O320 1.247 . S
C311 O321 1.272 . S
O312 Co308 2.029 . S
O312 C317 1.244 1_554 S
Co313 O314 2.061 1_554 S
Co313 O319 2.052 . S
Co313 O321 2.135 . S
O314 Co313 2.061 1_556 S
O314 C317 1.235 . S
C315 O318 1.238 . S
C315 O319 1.241 . S
C316 O309 1.247 . S
C316 O310 1.261 . S
C317 O312 1.244 1_556 S
C317 O314 1.235 . S
O318 Co308 2.021 . S
O318 C315 1.238 . S
O319 Co313 2.052 . S
O319 C315 1.241 . S
O320 Co308 2.137 . S
O320 C311 1.247 . S
O321 Co308 2.244 . S
O321 C311 1.272 . S
O321 Co313 2.135 . S
Co322 O323 2.216 . S
Co322 O324 2.091 . S
Co322 O326 2.029 . S
Co322 O332 2.021 . S
Co322 O334 2.137 . S
Co322 O335 2.244 . S
O323 Co322 2.216 . S
O323 C330 1.247 . S
O324 Co322 2.091 . S
O324 C330 1.261 . S
C325 O334 1.247 . S
C325 O335 1.272 . S
O326 Co322 2.029 . S
O326 C331 1.244 1_554 S
Co327 O328 2.061 1_554 S
Co327 O333 2.052 . S
Co327 O335 2.135 . S
O328 Co327 2.061 1_556 S
O328 C331 1.235 . S
C329 O332 1.238 . S
C329 O333 1.241 . S
C330 O323 1.247 . S
C330 O324 1.261 . S
C331 O326 1.244 1_556 S
C331 O328 1.235 . S
O332 Co322 2.021 . S
O332 C329 1.238 . S
O333 Co327 2.052 . S
O333 C329 1.241 . S
O334 Co322 2.137 . S
O334 C325 1.247 . S
O335 Co322 2.244 . S
O335 C325 1.272 . S
O335 Co327 2.135 . S
Co336 O337 2.216 . S
Co336 O338 2.091 . S
Co336 O340 2.004 . S
Co336 O346 2.021 . S
Co336 O348 2.137 . S
Co336 O349 2.244 . S
O337 Co336 2.216 . S
O337 C344 1.247 . S
O338 Co336 2.091 . S
O338 C344 1.261 . S
C339 O348 1.247 . S
C339 O349 1.272 . S
O340 Co336 2.004 . S
O340 C345 1.259 . S
Co341 O342 2.061 . S
Co341 O347 2.052 . S
Co341 O349 2.135 . S
O342 Co341 2.061 . S
O342 C345 1.235 . S
C343 O346 1.238 . S
C343 O347 1.241 . S
C344 O337 1.247 . S
C344 O338 1.261 . S
C345 O340 1.259 . S
C345 O342 1.235 . S
O346 Co336 2.021 . S
O346 C343 1.238 . S
O347 Co341 2.052 . S
O347 C343 1.241 . S
O348 Co336 2.137 . S
O348 C339 1.247 . S
O349 Co336 2.244 . S
O349 C339 1.272 . S
O349 Co341 2.135 . S
Co350 O351 2.216 . S
Co350 O352 2.091 . S
Co350 O354 2.004 . S
Co350 O360 2.021 . S
Co350 O362 2.137 . S
Co350 O363 2.244 . S
O351 Co350 2.216 . S
O351 C358 1.247 . S
O352 Co350 2.091 . S
O352 C358 1.261 . S
C353 O362 1.247 . S
C353 O363 1.272 . S
O354 Co350 2.004 . S
O354 C359 1.259 . S
Co355 O356 2.061 . S
Co355 O361 2.052 . S
Co355 O363 2.135 . S
O356 Co355 2.061 . S
O356 C359 1.235 . S
C357 O360 1.238 . S
C357 O361 1.241 . S
C358 O351 1.247 . S
C358 O352 1.261 . S
C359 O354 1.259 . S
C359 O356 1.235 . S
O360 Co350 2.021 . S
O360 C357 1.238 . S
O361 Co355 2.052 . S
O361 C357 1.241 . S
O362 Co350 2.137 . S
O362 C353 1.247 . S
O363 Co350 2.244 . S
O363 C353 1.272 . S
O363 Co355 2.135 . S
Co364 O365 2.216 . S
Co364 O366 2.091 . S
Co364 O368 2.004 . S
Co364 O374 2.021 . S
Co364 O376 2.137 . S
Co364 O377 2.244 . S
O365 Co364 2.216 . S
O365 C372 1.247 . S
O366 Co364 2.091 . S
O366 C372 1.261 . S
C367 O376 1.247 . S
C367 O377 1.272 . S
O368 Co364 2.004 . S
O368 C373 1.259 . S
Co369 O370 2.061 . S
Co369 O375 2.052 . S
Co369 O377 2.135 . S
O370 Co369 2.061 . S
O370 C373 1.235 . S
C371 O374 1.238 . S
C371 O375 1.241 . S
C372 O365 1.247 . S
C372 O366 1.261 . S
C373 O368 1.259 . S
C373 O370 1.235 . S
O374 Co364 2.021 . S
O374 C371 1.238 . S
O375 Co369 2.052 . S
O375 C371 1.241 . S
O376 Co364 2.137 . S
O376 C367 1.247 . S
O377 Co364 2.244 . S
O377 C367 1.272 . S
O377 Co369 2.135 . S
Co378 O379 2.216 . S
Co378 O380 2.091 . S
Co378 O382 2.004 . S
Co378 O388 2.021 . S
Co378 O390 2.137 . S
Co378 O391 2.244 . S
O379 Co378 2.216 . S
O379 C386 1.247 . S
O380 Co378 2.091 . S
O380 C386 1.261 . S
C381 O390 1.247 . S
C381 O391 1.272 . S
O382 Co378 2.004 . S
O382 C387 1.259 . S
Co383 O384 2.061 . S
Co383 O389 2.052 . S
Co383 O391 2.135 . S
O384 Co383 2.061 . S
O384 C387 1.235 . S
C385 O388 1.238 . S
C385 O389 1.241 . S
C386 O379 1.247 . S
C386 O380 1.261 . S
C387 O382 1.259 . S
C387 O384 1.235 . S
O388 Co378 2.021 . S
O388 C385 1.238 . S
O389 Co383 2.052 . S
O389 C385 1.241 . S
O390 Co378 2.137 . S
O390 C381 1.247 . S
O391 Co378 2.244 . S
O391 C381 1.272 . S
O391 Co383 2.135 . S
Co392 O393 2.216 . S
Co392 O394 2.091 . S
Co392 O396 2.004 . S
Co392 O402 2.021 . S
Co392 O404 2.137 . S
Co392 O405 2.244 . S
O393 Co392 2.216 . S
O393 C400 1.247 . S
O394 Co392 2.091 . S
O394 C400 1.261 . S
C395 O404 1.247 . S
C395 O405 1.272 . S
O396 Co392 2.004 . S
O396 C401 1.259 . S
Co397 O398 2.061 . S
Co397 O403 2.052 . S
Co397 O405 2.135 . S
O398 Co397 2.061 . S
O398 C401 1.235 . S
C399 O402 1.238 . S
C399 O403 1.241 . S
C400 O393 1.247 . S
C400 O394 1.261 . S
C401 O396 1.259 . S
C401 O398 1.235 . S
O402 Co392 2.021 . S
O402 C399 1.238 . S
O403 Co397 2.052 . S
O403 C399 1.241 . S
O404 Co392 2.137 . S
O404 C395 1.247 . S
O405 Co392 2.244 . S
O405 C395 1.272 . S
O405 Co397 2.135 . S
Co406 O407 2.216 . S
Co406 O408 2.091 . S
Co406 O410 2.004 . S
Co406 O416 2.021 . S
Co406 O418 2.137 . S
Co406 O419 2.244 . S
O407 Co406 2.216 . S
O407 C414 1.247 . S
O408 Co406 2.091 . S
O408 C414 1.261 . S
C409 O418 1.247 . S
C409 O419 1.272 . S
O410 Co406 2.004 . S
O410 C415 1.259 . S
Co411 O412 2.061 . S
Co411 O417 2.052 . S
Co411 O419 2.135 . S
O412 Co411 2.061 . S
O412 C415 1.235 . S
C413 O416 1.238 . S
C413 O417 1.241 . S
C414 O407 1.247 . S
C414 O408 1.261 . S
C415 O410 1.259 . S
C415 O412 1.235 . S
O416 Co406 2.021 . S
O416 C413 1.238 . S
O417 Co411 2.052 . S
O417 C413 1.241 . S
O418 Co406 2.137 . S
O418 C409 1.247 . S
O419 Co406 2.244 . S
O419 C409 1.272 . S
O419 Co411 2.135 . S
Co420 O421 2.216 . S
Co420 O422 2.091 . S
Co420 O424 2.004 . S
Co420 O430 2.021 . S
Co420 O432 2.137 . S
Co420 O433 2.244 . S
O421 Co420 2.216 . S
O421 C428 1.247 . S
O422 Co420 2.091 . S
O422 C428 1.261 . S
C423 O432 1.247 . S
C423 O433 1.272 . S
O424 Co420 2.004 . S
O424 C429 1.259 . S
Co425 O426 2.061 . S
Co425 O431 2.052 . S
Co425 O433 2.135 . S
O426 Co425 2.061 . S
O426 C429 1.235 . S
C427 O430 1.238 . S
C427 O431 1.241 . S
C428 O421 1.247 . S
C428 O422 1.261 . S
C429 O424 1.259 . S
C429 O426 1.235 . S
O430 Co420 2.021 . S
O430 C427 1.238 . S
O431 Co425 2.052 . S
O431 C427 1.241 . S
O432 Co420 2.137 . S
O432 C423 1.247 . S
O433 Co420 2.244 . S
O433 C423 1.272 . S
O433 Co425 2.135 . S
Co434 O435 2.216 . S
Co434 O436 2.091 . S
Co434 O438 2.004 . S
Co434 O444 2.021 . S
Co434 O446 2.137 . S
Co434 O447 2.244 . S
O435 Co434 2.216 . S
O435 C442 1.247 . S
O436 Co434 2.091 . S
O436 C442 1.261 . S
C437 O446 1.247 . S
C437 O447 1.272 . S
O438 Co434 2.004 . S
O438 C443 1.259 . S
Co439 O440 2.061 . S
Co439 O445 2.052 . S
Co439 O447 2.135 . S
O440 Co439 2.061 . S
O440 C443 1.235 . S
C441 O444 1.238 . S
C441 O445 1.241 . S
C442 O435 1.247 . S
C442 O436 1.261 . S
C443 O438 1.259 . S
C443 O440 1.235 . S
O444 Co434 2.021 . S
O444 C441 1.238 . S
O445 Co439 2.052 . S
O445 C441 1.241 . S
O446 Co434 2.137 . S
O446 C437 1.247 . S
O447 Co434 2.244 . S
O447 C437 1.272 . S
O447 Co439 2.135 . S
Co448 O449 2.216 . S
Co448 O450 2.091 . S
Co448 O452 2.004 . S
Co448 O458 2.021 . S
Co448 O460 2.137 . S
Co448 O461 2.244 . S
O449 Co448 2.216 . S
O449 C456 1.247 . S
O450 Co448 2.091 . S
O450 C456 1.261 . S
C451 O460 1.247 . S
C451 O461 1.272 . S
O452 Co448 2.004 . S
O452 C457 1.259 . S
Co453 O454 2.061 . S
Co453 O459 2.052 . S
Co453 O461 2.135 . S
O454 Co453 2.061 . S
O454 C457 1.235 . S
C455 O458 1.238 . S
C455 O459 1.241 . S
C456 O449 1.247 . S
C456 O450 1.261 . S
C457 O452 1.259 . S
C457 O454 1.235 . S
O458 Co448 2.021 . S
O458 C455 1.238 . S
O459 Co453 2.052 . S
O459 C455 1.241 . S
O460 Co448 2.137 . S
O460 C451 1.247 . S
O461 Co448 2.244 . S
O461 C451 1.272 . S
O461 Co453 2.135 . S
Co462 O463 2.216 . S
Co462 O464 2.091 . S
Co462 O466 2.004 . S
Co462 O472 2.021 . S
Co462 O474 2.137 . S
Co462 O475 2.244 . S
O463 Co462 2.216 . S
O463 C470 1.247 . S
O464 Co462 2.091 . S
O464 C470 1.261 . S
C465 O474 1.247 . S
C465 O475 1.272 . S
O466 Co462 2.004 . S
O466 C471 1.259 . S
Co467 O468 2.061 . S
Co467 O473 2.052 . S
Co467 O475 2.135 . S
O468 Co467 2.061 . S
O468 C471 1.235 . S
C469 O472 1.238 . S
C469 O473 1.241 . S
C470 O463 1.247 . S
C470 O464 1.261 . S
C471 O466 1.259 . S
C471 O468 1.235 . S
O472 Co462 2.021 . S
O472 C469 1.238 . S
O473 Co467 2.052 . S
O473 C469 1.241 . S
O474 Co462 2.137 . S
O474 C465 1.247 . S
O475 Co462 2.244 . S
O475 C465 1.272 . S
O475 Co467 2.135 . S
Co476 O477 2.216 . S
Co476 O478 2.091 . S
Co476 O480 2.004 . S
Co476 O486 2.021 . S
Co476 O488 2.137 . S
Co476 O489 2.244 . S
O477 Co476 2.216 . S
O477 C484 1.247 . S
O478 Co476 2.091 . S
O478 C484 1.261 . S
C479 O488 1.247 . S
C479 O489 1.272 . S
O480 Co476 2.004 . S
O480 C485 1.259 . S
Co481 O482 2.061 . S
Co481 O487 2.052 . S
Co481 O489 2.135 . S
O482 Co481 2.061 . S
O482 C485 1.235 . S
C483 O486 1.238 . S
C483 O487 1.241 . S
C484 O477 1.247 . S
C484 O478 1.261 . S
C485 O480 1.259 . S
C485 O482 1.235 . S
O486 Co476 2.021 . S
O486 C483 1.238 . S
O487 Co481 2.052 . S
O487 C483 1.241 . S
O488 Co476 2.137 . S
O488 C479 1.247 . S
O489 Co476 2.244 . S
O489 C479 1.272 . S
O489 Co481 2.135 . S
Co490 O491 2.216 . S
Co490 O492 2.091 . S
Co490 O494 2.004 . S
Co490 O500 2.021 . S
Co490 O502 2.137 . S
Co490 O503 2.244 . S
O491 Co490 2.216 . S
O491 C498 1.247 . S
O492 Co490 2.091 . S
O492 C498 1.261 . S
C493 O502 1.247 . S
C493 O503 1.272 . S
O494 Co490 2.004 . S
O494 C499 1.259 . S
Co495 O496 2.061 . S
Co495 O501 2.052 . S
Co495 O503 2.135 . S
O496 Co495 2.061 . S
O496 C499 1.235 . S
C497 O500 1.238 . S
C497 O501 1.241 . S
C498 O491 1.247 . S
C498 O492 1.261 . S
C499 O494 1.259 . S
C499 O496 1.235 . S
O500 Co490 2.021 . S
O500 C497 1.238 . S
O501 Co495 2.052 . S
O501 C497 1.241 . S
O502 Co490 2.137 . S
O502 C493 1.247 . S
O503 Co490 2.244 . S
O503 C493 1.272 . S
O503 Co495 2.135 . S
Co504 O505 2.216 . S
Co504 O506 2.091 . S
Co504 O508 2.004 . S
Co504 O514 2.021 . S
Co504 O516 2.137 . S
Co504 O517 2.244 . S
O505 Co504 2.216 . S
O505 C512 1.247 . S
O506 Co504 2.091 . S
O506 C512 1.261 . S
C507 O516 1.247 . S
C507 O517 1.272 . S
O508 Co504 2.004 . S
O508 C513 1.259 . S
Co509 O510 2.061 . S
Co509 O515 2.052 . S
Co509 O517 2.135 . S
O510 Co509 2.061 . S
O510 C513 1.235 . S
C511 O514 1.238 . S
C511 O515 1.241 . S
C512 O505 1.247 . S
C512 O506 1.261 . S
C513 O508 1.259 . S
C513 O510 1.235 . S
O514 Co504 2.021 . S
O514 C511 1.238 . S
O515 Co509 2.052 . S
O515 C511 1.241 . S
O516 Co504 2.137 . S
O516 C507 1.247 . S
O517 Co504 2.244 . S
O517 C507 1.272 . S
O517 Co509 2.135 . S
Co518 O519 2.216 . S
Co518 O520 2.091 . S
Co518 O522 2.004 . S
Co518 O528 2.021 . S
Co518 O530 2.137 . S
Co518 O531 2.244 . S
O519 Co518 2.216 . S
O519 C526 1.247 . S
O520 Co518 2.091 . S
O520 C526 1.261 . S
C521 O530 1.247 . S
C521 O531 1.272 . S
O522 Co518 2.004 . S
O522 C527 1.259 . S
Co523 O524 2.061 . S
Co523 O529 2.052 . S
Co523 O531 2.135 . S
O524 Co523 2.061 . S
O524 C527 1.235 . S
C525 O528 1.238 . S
C525 O529 1.241 . S
C526 O519 1.247 . S
C526 O520 1.261 . S
C527 O522 1.259 . S
C527 O524 1.235 . S
O528 Co518 2.021 . S
O528 C525 1.238 . S
O529 Co523 2.052 . S
O529 C525 1.241 . S
O530 Co518 2.137 . S
O530 C521 1.247 . S
O531 Co518 2.244 . S
O531 C521 1.272 . S
O531 Co523 2.135 . S
Co532 O533 2.216 . S
Co532 O534 2.091 . S
Co532 O536 2.004 . S
Co532 O542 2.021 . S
Co532 O544 2.137 . S
Co532 O545 2.244 . S
O533 Co532 2.216 . S
O533 C540 1.247 . S
O534 Co532 2.091 . S
O534 C540 1.261 . S
C535 O544 1.247 . S
C535 O545 1.272 . S
O536 Co532 2.004 . S
O536 C541 1.259 . S
Co537 O538 2.061 . S
Co537 O543 2.052 . S
Co537 O545 2.135 . S
O538 Co537 2.061 . S
O538 C541 1.235 . S
C539 O542 1.238 . S
C539 O543 1.241 . S
C540 O533 1.247 . S
C540 O534 1.261 . S
C541 O536 1.259 . S
C541 O538 1.235 . S
O542 Co532 2.021 . S
O542 C539 1.238 . S
O543 Co537 2.052 . S
O543 C539 1.241 . S
O544 Co532 2.137 . S
O544 C535 1.247 . S
O545 Co532 2.244 . S
O545 C535 1.272 . S
O545 Co537 2.135 . S
Co546 O547 2.216 . S
Co546 O548 2.091 . S
Co546 O550 2.004 . S
Co546 O556 2.021 . S
Co546 O558 2.137 . S
Co546 O559 2.244 . S
O547 Co546 2.216 . S
O547 C554 1.247 . S
O548 Co546 2.091 . S
O548 C554 1.261 . S
C549 O558 1.247 . S
C549 O559 1.272 . S
O550 Co546 2.004 . S
O550 C555 1.259 . S
Co551 O552 2.061 . S
Co551 O557 2.052 . S
Co551 O559 2.135 . S
O552 Co551 2.061 . S
O552 C555 1.235 . S
C553 O556 1.238 . S
C553 O557 1.241 . S
C554 O547 1.247 . S
C554 O548 1.261 . S
C555 O550 1.259 . S
C555 O552 1.235 . S
O556 Co546 2.021 . S
O556 C553 1.238 . S
O557 Co551 2.052 . S
O557 C553 1.241 . S
O558 Co546 2.137 . S
O558 C549 1.247 . S
O559 Co546 2.244 . S
O559 C549 1.272 . S
O559 Co551 2.135 . S
Co560 O561 2.216 . S
Co560 O562 2.091 . S
Co560 O564 2.004 . S
Co560 O570 2.021 . S
Co560 O572 2.137 . S
Co560 O573 2.244 . S
O561 Co560 2.216 . S
O561 C568 1.247 . S
O562 Co560 2.091 . S
O562 C568 1.261 . S
C563 O572 1.247 . S
C563 O573 1.272 . S
O564 Co560 2.004 . S
O564 C569 1.259 . S
Co565 O566 2.061 . S
Co565 O571 2.052 . S
Co565 O573 2.135 . S
O566 Co565 2.061 . S
O566 C569 1.235 . S
C567 O570 1.238 . S
C567 O571 1.241 . S
C568 O561 1.247 . S
C568 O562 1.261 . S
C569 O564 1.259 . S
C569 O566 1.235 . S
O570 Co560 2.021 . S
O570 C567 1.238 . S
O571 Co565 2.052 . S
O571 C567 1.241 . S
O572 Co560 2.137 . S
O572 C563 1.247 . S
O573 Co560 2.244 . S
O573 C563 1.272 . S
O573 Co565 2.135 . S
Co574 O575 2.216 . S
Co574 O576 2.091 . S
Co574 O578 2.004 . S
Co574 O584 2.021 . S
Co574 O586 2.137 . S
Co574 O587 2.244 . S
O575 Co574 2.216 . S
O575 C582 1.247 . S
O576 Co574 2.091 . S
O576 C582 1.261 . S
C577 O586 1.247 . S
C577 O587 1.272 . S
O578 Co574 2.004 . S
O578 C583 1.259 . S
Co579 O580 2.061 . S
Co579 O585 2.052 . S
Co579 O587 2.135 . S
O580 Co579 2.061 . S
O580 C583 1.235 . S
C581 O584 1.238 . S
C581 O585 1.241 . S
C582 O575 1.247 . S
C582 O576 1.261 . S
C583 O578 1.259 . S
C583 O580 1.235 . S
O584 Co574 2.021 . S
O584 C581 1.238 . S
O585 Co579 2.052 . S
O585 C581 1.241 . S
O586 Co574 2.137 . S
O586 C577 1.247 . S
O587 Co574 2.244 . S
O587 C577 1.272 . S
O587 Co579 2.135 . S
Co588 O589 2.216 . S
Co588 O590 2.091 . S
Co588 O592 2.004 . S
Co588 O598 2.021 . S
Co588 O600 2.137 . S
Co588 O601 2.244 . S
O589 Co588 2.216 . S
O589 C596 1.247 . S
O590 Co588 2.091 . S
O590 C596 1.261 . S
C591 O600 1.247 . S
C591 O601 1.272 . S
O592 Co588 2.004 . S
O592 C597 1.259 . S
Co593 O594 2.061 . S
Co593 O599 2.052 . S
Co593 O601 2.135 . S
O594 Co593 2.061 . S
O594 C597 1.235 . S
C595 O598 1.238 . S
C595 O599 1.241 . S
C596 O589 1.247 . S
C596 O590 1.261 . S
C597 O592 1.259 . S
C597 O594 1.235 . S
O598 Co588 2.021 . S
O598 C595 1.238 . S
O599 Co593 2.052 . S
O599 C595 1.241 . S
O600 Co588 2.137 . S
O600 C591 1.247 . S
O601 Co588 2.244 . S
O601 C591 1.272 . S
O601 Co593 2.135 . S
Co602 O603 2.216 . S
Co602 O604 2.091 . S
Co602 O606 2.004 . S
Co602 O612 2.021 . S
Co602 O614 2.137 . S
Co602 O615 2.244 . S
O603 Co602 2.216 . S
O603 C610 1.247 . S
O604 Co602 2.091 . S
O604 C610 1.261 . S
C605 O614 1.247 . S
C605 O615 1.272 . S
O606 Co602 2.004 . S
O606 C611 1.259 . S
Co607 O608 2.061 . S
Co607 O613 2.052 . S
Co607 O615 2.135 . S
O608 Co607 2.061 . S
O608 C611 1.235 . S
C609 O612 1.238 . S
C609 O613 1.241 . S
C610 O603 1.247 . S
C610 O604 1.261 . S
C611 O606 1.259 . S
C611 O608 1.235 . S
O612 Co602 2.021 . S
O612 C609 1.238 . S
O613 Co607 2.052 . S
O613 C609 1.241 . S
O614 Co602 2.137 . S
O614 C605 1.247 . S
O615 Co602 2.244 . S
O615 C605 1.272 . S
O615 Co607 2.135 . S
Co616 O617 2.216 . S
Co616 O618 2.091 . S
Co616 O620 2.004 . S
Co616 O626 2.021 . S
Co616 O628 2.137 . S
Co616 O629 2.244 . S
O617 Co616 2.216 . S
O617 C624 1.247 . S
O618 Co616 2.091 . S
O618 C624 1.261 . S
C619 O628 1.247 . S
C619 O629 1.272 . S
O620 Co616 2.004 . S
O620 C625 1.259 . S
Co621 O622 2.061 . S
Co621 O627 2.052 . S
Co621 O629 2.135 . S
O622 Co621 2.061 . S
O622 C625 1.235 . S
C623 O626 1.238 . S
C623 O627 1.241 . S
C624 O617 1.247 . S
C624 O618 1.261 . S
C625 O620 1.259 . S
C625 O622 1.235 . S
O626 Co616 2.021 . S
O626 C623 1.238 . S
O627 Co621 2.052 . S
O627 C623 1.241 . S
O628 Co616 2.137 . S
O628 C619 1.247 . S
O629 Co616 2.244 . S
O629 C619 1.272 . S
O629 Co621 2.135 . S
Co630 O631 2.216 . S
Co630 O632 2.091 . S
Co630 O634 2.004 . S
Co630 O640 2.021 . S
Co630 O642 2.137 . S
Co630 O643 2.244 . S
O631 Co630 2.216 . S
O631 C638 1.247 . S
O632 Co630 2.091 . S
O632 C638 1.261 . S
C633 O642 1.247 . S
C633 O643 1.272 . S
O634 Co630 2.004 . S
O634 C639 1.259 . S
Co635 O636 2.061 . S
Co635 O641 2.052 . S
Co635 O643 2.135 . S
O636 Co635 2.061 . S
O636 C639 1.235 . S
C637 O640 1.238 . S
C637 O641 1.241 . S
C638 O631 1.247 . S
C638 O632 1.261 . S
C639 O634 1.259 . S
C639 O636 1.235 . S
O640 Co630 2.021 . S
O640 C637 1.238 . S
O641 Co635 2.052 . S
O641 C637 1.241 . S
O642 Co630 2.137 . S
O642 C633 1.247 . S
O643 Co630 2.244 . S
O643 C633 1.272 . S
O643 Co635 2.135 . S
Co644 O645 2.216 . S
Co644 O646 2.091 . S
Co644 O648 2.004 . S
Co644 O654 2.021 . S
Co644 O656 2.137 . S
Co644 O657 2.244 . S
O645 Co644 2.216 . S
O645 C652 1.247 . S
O646 Co644 2.091 . S
O646 C652 1.261 . S
C647 O656 1.247 . S
C647 O657 1.272 . S
O648 Co644 2.004 . S
O648 C653 1.259 . S
Co649 O650 2.061 . S
Co649 O655 2.052 . S
Co649 O657 2.135 . S
O650 Co649 2.061 . S
O650 C653 1.235 . S
C651 O654 1.238 . S
C651 O655 1.241 . S
C652 O645 1.247 . S
C652 O646 1.261 . S
C653 O648 1.259 . S
C653 O650 1.235 . S
O654 Co644 2.021 . S
O654 C651 1.238 . S
O655 Co649 2.052 . S
O655 C651 1.241 . S
O656 Co644 2.137 . S
O656 C647 1.247 . S
O657 Co644 2.244 . S
O657 C647 1.272 . S
O657 Co649 2.135 . S
Co658 O659 2.216 . S
Co658 O660 2.091 . S
Co658 O662 2.004 . S
Co658 O668 2.021 . S
Co658 O670 2.137 . S
Co658 O671 2.244 . S
O659 Co658 2.216 . S
O659 C666 1.247 . S
O660 Co658 2.091 . S
O660 C666 1.261 . S
C661 O670 1.247 . S
C661 O671 1.272 . S
O662 Co658 2.004 . S
O662 C667 1.259 . S
Co663 O664 2.061 . S
Co663 O669 2.052 . S
Co663 O671 2.135 . S
O664 Co663 2.061 . S
O664 C667 1.235 . S
C665 O668 1.238 . S
C665 O669 1.241 . S
C666 O659 1.247 . S
C666 O660 1.261 . S
C667 O662 1.259 . S
C667 O664 1.235 . S
O668 Co658 2.021 . S
O668 C665 1.238 . S
O669 Co663 2.052 . S
O669 C665 1.241 . S
O670 Co658 2.137 . S
O670 C661 1.247 . S
O671 Co658 2.244 . S
O671 C661 1.272 . S
O671 Co663 2.135 . S
H672 C678 0.930 . S
H673 C681 0.930 . S
H674 C682 0.930 . S
H675 C683 0.930 . S
H676 C686 0.930 . S
H677 C687 0.930 . S
C678 H672 0.930 . S
C678 C679 1.355 . S
C678 C680 1.415 . S
C679 C678 1.355 . S
C679 C681 1.419 . S
C680 C678 1.415 . S
C680 C685 1.425 . S
C680 C687 1.409 . S
C681 H673 0.930 . S
C681 C679 1.419 . S
C681 C682 1.362 . S
C682 H674 0.930 . S
C682 C681 1.362 . S
C682 C685 1.409 . S
C683 H675 0.930 . S
C683 C684 1.355 . S
C683 C685 1.415 . S
C684 C683 1.355 . S
C684 C686 1.419 . S
C685 C680 1.425 . S
C685 C682 1.409 . S
C685 C683 1.415 . S
C686 H676 0.930 . S
C686 C684 1.419 . S
C686 C687 1.362 . S
C687 H677 0.930 . S
C687 C680 1.409 . S
C687 C686 1.362 . S
H688 C694 0.930 . S
H689 C697 0.930 . S
H690 C698 0.930 . S
H691 C699 0.930 . S
H692 C702 0.930 . S
H693 C703 0.930 . S
C694 H688 0.930 . S
C694 C695 1.355 . S
C694 C696 1.415 . S
C695 C694 1.355 . S
C695 C697 1.419 . S
C696 C694 1.415 . S
C696 C701 1.425 . S
C696 C703 1.409 . S
C697 H689 0.930 . S
C697 C695 1.419 . S
C697 C698 1.362 . S
C698 H690 0.930 . S
C698 C697 1.362 . S
C698 C701 1.409 . S
C699 H691 0.930 . S
C699 C700 1.355 . S
C699 C701 1.415 . S
C700 C699 1.355 . S
C700 C702 1.419 . S
C701 C696 1.425 . S
C701 C698 1.409 . S
C701 C699 1.415 . S
C702 H692 0.930 . S
C702 C700 1.419 . S
C702 C703 1.362 . S
C703 H693 0.930 . S
C703 C696 1.409 . S
C703 C702 1.362 . S
H704 C710 0.930 . S
H705 C713 0.930 . S
H706 C714 0.930 . S
H707 C715 0.930 . S
H708 C718 0.930 . S
H709 C719 0.930 . S
C710 H704 0.930 . S
C710 C711 1.355 . S
C710 C712 1.415 . S
C711 C710 1.355 . S
C711 C713 1.419 . S
C712 C710 1.415 . S
C712 C717 1.425 . S
C712 C719 1.409 . S
C713 H705 0.930 . S
C713 C711 1.419 . S
C713 C714 1.362 . S
C714 H706 0.930 . S
C714 C713 1.362 . S
C714 C717 1.409 . S
C715 H707 0.930 . S
C715 C716 1.355 . S
C715 C717 1.415 . S
C716 C715 1.355 . S
C716 C718 1.419 . S
C717 C712 1.425 . S
C717 C714 1.409 . S
C717 C715 1.415 . S
C718 H708 0.930 . S
C718 C716 1.419 . S
C718 C719 1.362 . S
C719 H709 0.930 . S
C719 C712 1.409 . S
C719 C718 1.362 . S
H720 C726 0.930 . S
H721 C729 0.930 . S
H722 C730 0.930 . S
H723 C731 0.930 . S
H724 C734 0.930 . S
H725 C735 0.930 . S
C726 H720 0.930 . S
C726 C727 1.355 . S
C726 C728 1.415 . S
C727 C726 1.355 . S
C727 C729 1.419 . S
C728 C726 1.415 . S
C728 C733 1.425 . S
C728 C735 1.409 . S
C729 H721 0.930 . S
C729 C727 1.419 . S
C729 C730 1.362 . S
C730 H722 0.930 . S
C730 C729 1.362 . S
C730 C733 1.409 . S
C731 H723 0.930 . S
C731 C732 1.355 . S
C731 C733 1.415 . S
C732 C731 1.355 . S
C732 C734 1.419 . S
C733 C728 1.425 . S
C733 C730 1.409 . S
C733 C731 1.415 . S
C734 H724 0.930 . S
C734 C732 1.419 . S
C734 C735 1.362 . S
C735 H725 0.930 . S
C735 C728 1.409 . S
C735 C734 1.362 . S
H736 C742 0.930 . S
H737 C745 0.930 . S
H738 C746 0.930 . S
H739 C747 0.930 . S
H740 C750 0.930 . S
H741 C751 0.930 . S
C742 H736 0.930 . S
C742 C743 1.355 . S
C742 C744 1.415 . S
C743 C742 1.355 . S
C743 C745 1.419 . S
C744 C742 1.415 . S
C744 C749 1.425 . S
C744 C751 1.409 . S
C745 H737 0.930 . S
C745 C743 1.419 . S
C745 C746 1.362 . S
C746 H738 0.930 . S
C746 C745 1.362 . S
C746 C749 1.409 . S
C747 H739 0.930 . S
C747 C748 1.355 . S
C747 C749 1.415 . S
C748 C747 1.355 . S
C748 C750 1.419 . S
C749 C744 1.425 . S
C749 C746 1.409 . S
C749 C747 1.415 . S
C750 H740 0.930 . S
C750 C748 1.419 . S
C750 C751 1.362 . S
C751 H741 0.930 . S
C751 C744 1.409 . S
C751 C750 1.362 . S
H752 C758 0.930 . S
H753 C761 0.930 . S
H754 C762 0.930 . S
H755 C763 0.930 . S
H756 C766 0.930 . S
H757 C767 0.930 . S
C758 H752 0.930 . S
C758 C759 1.355 . S
C758 C760 1.415 . S
C759 C758 1.355 . S
C759 C761 1.419 . S
C760 C758 1.415 . S
C760 C765 1.425 . S
C760 C767 1.409 . S
C761 H753 0.930 . S
C761 C759 1.419 . S
C761 C762 1.362 . S
C762 H754 0.930 . S
C762 C761 1.362 . S
C762 C765 1.409 . S
C763 H755 0.930 . S
C763 C764 1.355 . S
C763 C765 1.415 . S
C764 C763 1.355 . S
C764 C766 1.419 . S
C765 C760 1.425 . S
C765 C762 1.409 . S
C765 C763 1.415 . S
C766 H756 0.930 . S
C766 C764 1.419 . S
C766 C767 1.362 . S
C767 H757 0.930 . S
C767 C760 1.409 . S
C767 C766 1.362 . S
H768 C774 0.930 . S
H769 C777 0.930 . S
H770 C778 0.930 . S
H771 C779 0.930 . S
H772 C782 0.930 . S
H773 C783 0.930 . S
C774 H768 0.930 . S
C774 C775 1.355 . S
C774 C776 1.415 . S
C775 C774 1.355 . S
C775 C777 1.419 . S
C776 C774 1.415 . S
C776 C781 1.425 . S
C776 C783 1.409 . S
C777 H769 0.930 . S
C777 C775 1.419 . S
C777 C778 1.362 . S
C778 H770 0.930 . S
C778 C777 1.362 . S
C778 C781 1.409 . S
C779 H771 0.930 . S
C779 C780 1.355 . S
C779 C781 1.415 . S
C780 C779 1.355 . S
C780 C782 1.419 . S
C781 C776 1.425 . S
C781 C778 1.409 . S
C781 C779 1.415 . S
C782 H772 0.930 . S
C782 C780 1.419 . S
C782 C783 1.362 . S
C783 H773 0.930 . S
C783 C776 1.409 . S
C783 C782 1.362 . S
H784 C790 0.930 . S
H785 C793 0.930 . S
H786 C794 0.930 . S
H787 C795 0.930 . S
H788 C798 0.930 . S
H789 C799 0.930 . S
C790 H784 0.930 . S
C790 C791 1.355 . S
C790 C792 1.415 . S
C791 C790 1.355 . S
C791 C793 1.419 . S
C792 C790 1.415 . S
C792 C797 1.425 . S
C792 C799 1.409 . S
C793 H785 0.930 . S
C793 C791 1.419 . S
C793 C794 1.362 . S
C794 H786 0.930 . S
C794 C793 1.362 . S
C794 C797 1.409 . S
C795 H787 0.930 . S
C795 C796 1.355 . S
C795 C797 1.415 . S
C796 C795 1.355 . S
C796 C798 1.419 . S
C797 C792 1.425 . S
C797 C794 1.409 . S
C797 C795 1.415 . S
C798 H788 0.930 . S
C798 C796 1.419 . S
C798 C799 1.362 . S
C799 H789 0.930 . S
C799 C792 1.409 . S
C799 C798 1.362 . S
H800 C806 0.930 . S
H801 C809 0.930 . S
H802 C810 0.930 . S
H803 C811 0.930 . S
H804 C814 0.930 . S
H805 C815 0.930 . S
C806 H800 0.930 . S
C806 C807 1.355 . S
C806 C808 1.415 . S
C807 C806 1.355 . S
C807 C809 1.419 . S
C808 C806 1.415 . S
C808 C813 1.425 . S
C808 C815 1.409 . S
C809 H801 0.930 . S
C809 C807 1.419 . S
C809 C810 1.362 . S
C810 H802 0.930 . S
C810 C809 1.362 . S
C810 C813 1.409 . S
C811 H803 0.930 . S
C811 C812 1.355 . S
C811 C813 1.415 . S
C812 C811 1.355 . S
C812 C814 1.419 . S
C813 C808 1.425 . S
C813 C810 1.409 . S
C813 C811 1.415 . S
C814 H804 0.930 . S
C814 C812 1.419 . S
C814 C815 1.362 . S
C815 H805 0.930 . S
C815 C808 1.409 . S
C815 C814 1.362 . S
H816 C822 0.930 . S
H817 C825 0.930 . S
H818 C826 0.930 . S
H819 C827 0.930 . S
H820 C830 0.930 . S
H821 C831 0.930 . S
C822 H816 0.930 . S
C822 C823 1.355 . S
C822 C824 1.415 . S
C823 C822 1.355 . S
C823 C825 1.419 . S
C824 C822 1.415 . S
C824 C829 1.425 . S
C824 C831 1.409 . S
C825 H817 0.930 . S
C825 C823 1.419 . S
C825 C826 1.362 . S
C826 H818 0.930 . S
C826 C825 1.362 . S
C826 C829 1.409 . S
C827 H819 0.930 . S
C827 C828 1.355 . S
C827 C829 1.415 . S
C828 C827 1.355 . S
C828 C830 1.419 . S
C829 C824 1.425 . S
C829 C826 1.409 . S
C829 C827 1.415 . S
C830 H820 0.930 . S
C830 C828 1.419 . S
C830 C831 1.362 . S
C831 H821 0.930 . S
C831 C824 1.409 . S
C831 C830 1.362 . S
H832 C838 0.930 . S
H833 C841 0.930 . S
H834 C842 0.930 . S
H835 C843 0.930 . S
H836 C846 0.930 . S
H837 C847 0.930 . S
C838 H832 0.930 . S
C838 C839 1.355 . S
C838 C840 1.415 . S
C839 C838 1.355 . S
C839 C841 1.419 . S
C840 C838 1.415 . S
C840 C845 1.425 . S
C840 C847 1.409 . S
C841 H833 0.930 . S
C841 C839 1.419 . S
C841 C842 1.362 . S
C842 H834 0.930 . S
C842 C841 1.362 . S
C842 C845 1.409 . S
C843 H835 0.930 . S
C843 C844 1.355 . S
C843 C845 1.415 . S
C844 C843 1.355 . S
C844 C846 1.419 . S
C845 C840 1.425 . S
C845 C842 1.409 . S
C845 C843 1.415 . S
C846 H836 0.930 . S
C846 C844 1.419 . S
C846 C847 1.362 . S
C847 H837 0.930 . S
C847 C840 1.409 . S
C847 C846 1.362 . S
H848 C854 0.930 . S
H849 C857 0.930 . S
H850 C858 0.930 . S
H851 C859 0.930 . S
H852 C862 0.930 . S
H853 C863 0.930 . S
C854 H848 0.930 . S
C854 C855 1.355 . S
C854 C856 1.415 . S
C855 C854 1.355 . S
C855 C857 1.419 . S
C856 C854 1.415 . S
C856 C861 1.425 . S
C856 C863 1.409 . S
C857 H849 0.930 . S
C857 C855 1.419 . S
C857 C858 1.362 . S
C858 H850 0.930 . S
C858 C857 1.362 . S
C858 C861 1.409 . S
C859 H851 0.930 . S
C859 C860 1.355 . S
C859 C861 1.415 . S
C860 C859 1.355 . S
C860 C862 1.419 . S
C861 C856 1.425 . S
C861 C858 1.409 . S
C861 C859 1.415 . S
C862 H852 0.930 . S
C862 C860 1.419 . S
C862 C863 1.362 . S
C863 H853 0.930 . S
C863 C856 1.409 . S
C863 C862 1.362 . S
H864 C870 0.930 . S
H865 C873 0.930 . S
H866 C874 0.930 . S
H867 C875 0.930 . S
H868 C878 0.930 . S
H869 C879 0.930 . S
C870 H864 0.930 . S
C870 C871 1.355 . S
C870 C872 1.415 . S
C871 C870 1.355 . S
C871 C873 1.419 . S
C872 C870 1.415 . S
C872 C877 1.425 . S
C872 C879 1.409 . S
C873 H865 0.930 . S
C873 C871 1.419 . S
C873 C874 1.362 . S
C874 H866 0.930 . S
C874 C873 1.362 . S
C874 C877 1.409 . S
C875 H867 0.930 . S
C875 C876 1.355 . S
C875 C877 1.415 . S
C876 C875 1.355 . S
C876 C878 1.419 . S
C877 C872 1.425 . S
C877 C874 1.409 . S
C877 C875 1.415 . S
C878 H868 0.930 . S
C878 C876 1.419 . S
C878 C879 1.362 . S
C879 H869 0.930 . S
C879 C872 1.409 . S
C879 C878 1.362 . S
H880 C886 0.930 . S
H881 C889 0.930 . S
H882 C890 0.930 . S
H883 C891 0.930 . S
H884 C894 0.930 . S
H885 C895 0.930 . S
C886 H880 0.930 . S
C886 C887 1.355 . S
C886 C888 1.415 . S
C887 C886 1.355 . S
C887 C889 1.419 . S
C888 C886 1.415 . S
C888 C893 1.425 . S
C888 C895 1.409 . S
C889 H881 0.930 . S
C889 C887 1.419 . S
C889 C890 1.362 . S
C890 H882 0.930 . S
C890 C889 1.362 . S
C890 C893 1.409 . S
C891 H883 0.930 . S
C891 C892 1.355 . S
C891 C893 1.415 . S
C892 C891 1.355 . S
C892 C894 1.419 . S
C893 C888 1.425 . S
C893 C890 1.409 . S
C893 C891 1.415 . S
C894 H884 0.930 . S
C894 C892 1.419 . S
C894 C895 1.362 . S
C895 H885 0.930 . S
C895 C888 1.409 . S
C895 C894 1.362 . S
H896 C902 0.930 . S
H897 C905 0.930 . S
H898 C906 0.930 . S
H899 C907 0.930 . S
H900 C910 0.930 . S
H901 C911 0.930 . S
C902 H896 0.930 . S
C902 C903 1.355 . S
C902 C904 1.415 . S
C903 C902 1.355 . S
C903 C905 1.419 . S
C904 C902 1.415 . S
C904 C909 1.425 . S
C904 C911 1.409 . S
C905 H897 0.930 . S
C905 C903 1.419 . S
C905 C906 1.362 . S
C906 H898 0.930 . S
C906 C905 1.362 . S
C906 C909 1.409 . S
C907 H899 0.930 . S
C907 C908 1.355 . S
C907 C909 1.415 . S
C908 C907 1.355 . S
C908 C910 1.419 . S
C909 C904 1.425 . S
C909 C906 1.409 . S
C909 C907 1.415 . S
C910 H900 0.930 . S
C910 C908 1.419 . S
C910 C911 1.362 . S
C911 H901 0.930 . S
C911 C904 1.409 . S
C911 C910 1.362 . S
H912 C918 0.930 . S
H913 C921 0.930 . S
H914 C922 0.930 . S
H915 C923 0.930 . S
H916 C926 0.930 . S
H917 C927 0.930 . S
C918 H912 0.930 . S
C918 C919 1.355 . S
C918 C920 1.415 . S
C919 C918 1.355 . S
C919 C921 1.419 . S
C920 C918 1.415 . S
C920 C925 1.425 . S
C920 C927 1.409 . S
C921 H913 0.930 . S
C921 C919 1.419 . S
C921 C922 1.362 . S
C922 H914 0.930 . S
C922 C921 1.362 . S
C922 C925 1.409 . S
C923 H915 0.930 . S
C923 C924 1.355 . S
C923 C925 1.415 . S
C924 C923 1.355 . S
C924 C926 1.419 . S
C925 C920 1.425 . S
C925 C922 1.409 . S
C925 C923 1.415 . S
C926 H916 0.930 . S
C926 C924 1.419 . S
C926 C927 1.362 . S
C927 H917 0.930 . S
C927 C920 1.409 . S
C927 C926 1.362 . S
H928 C934 0.930 . S
H929 C937 0.930 . S
H930 C938 0.930 . S
H931 C939 0.930 . S
H932 C942 0.930 . S
H933 C943 0.930 . S
C934 H928 0.930 . S
C934 C935 1.355 . S
C934 C936 1.415 . S
C935 C934 1.355 . S
C935 C937 1.419 . S
C936 C934 1.415 . S
C936 C941 1.425 . S
C936 C943 1.409 . S
C937 H929 0.930 . S
C937 C935 1.419 . S
C937 C938 1.362 . S
C938 H930 0.930 . S
C938 C937 1.362 . S
C938 C941 1.409 . S
C939 H931 0.930 . S
C939 C940 1.355 . S
C939 C941 1.415 . S
C940 C939 1.355 . S
C940 C942 1.419 . S
C941 C936 1.425 . S
C941 C938 1.409 . S
C941 C939 1.415 . S
C942 H932 0.930 . S
C942 C940 1.419 . S
C942 C943 1.362 . S
C943 H933 0.930 . S
C943 C936 1.409 . S
C943 C942 1.362 . S
H944 C950 0.930 . S
H945 C953 0.930 . S
H946 C954 0.930 . S
H947 C955 0.930 . S
H948 C958 0.930 . S
H949 C959 0.930 . S
C950 H944 0.930 . S
C950 C951 1.355 . S
C950 C952 1.415 . S
C951 C950 1.355 . S
C951 C953 1.419 . S
C952 C950 1.415 . S
C952 C957 1.425 . S
C952 C959 1.409 . S
C953 H945 0.930 . S
C953 C951 1.419 . S
C953 C954 1.362 . S
C954 H946 0.930 . S
C954 C953 1.362 . S
C954 C957 1.409 . S
C955 H947 0.930 . S
C955 C956 1.355 . S
C955 C957 1.415 . S
C956 C955 1.355 . S
C956 C958 1.419 . S
C957 C952 1.425 . S
C957 C954 1.409 . S
C957 C955 1.415 . S
C958 H948 0.930 . S
C958 C956 1.419 . S
C958 C959 1.362 . S
C959 H949 0.930 . S
C959 C952 1.409 . S
C959 C958 1.362 . S
H960 C966 0.930 . S
H961 C969 0.930 . S
H962 C970 0.930 . S
H963 C971 0.930 . S
H964 C974 0.930 . S
H965 C975 0.930 . S
C966 H960 0.930 . S
C966 C967 1.355 . S
C966 C968 1.415 . S
C967 C966 1.355 . S
C967 C969 1.419 . S
C968 C966 1.415 . S
C968 C973 1.425 . S
C968 C975 1.409 . S
C969 H961 0.930 . S
C969 C967 1.419 . S
C969 C970 1.362 . S
C970 H962 0.930 . S
C970 C969 1.362 . S
C970 C973 1.409 . S
C971 H963 0.930 . S
C971 C972 1.355 . S
C971 C973 1.415 . S
C972 C971 1.355 . S
C972 C974 1.419 . S
C973 C968 1.425 . S
C973 C970 1.409 . S
C973 C971 1.415 . S
C974 H964 0.930 . S
C974 C972 1.419 . S
C974 C975 1.362 . S
C975 H965 0.930 . S
C975 C968 1.409 . S
C975 C974 1.362 . S
H976 C982 0.930 . S
H977 C985 0.930 . S
H978 C986 0.930 . S
H979 C987 0.930 . S
H980 C990 0.930 . S
H981 C991 0.930 . S
C982 H976 0.930 . S
C982 C983 1.355 . S
C982 C984 1.415 . S
C983 C982 1.355 . S
C983 C985 1.419 . S
C984 C982 1.415 . S
C984 C989 1.425 . S
C984 C991 1.409 . S
C985 H977 0.930 . S
C985 C983 1.419 . S
C985 C986 1.362 . S
C986 H978 0.930 . S
C986 C985 1.362 . S
C986 C989 1.409 . S
C987 H979 0.930 . S
C987 C988 1.355 . S
C987 C989 1.415 . S
C988 C987 1.355 . S
C988 C990 1.419 . S
C989 C984 1.425 . S
C989 C986 1.409 . S
C989 C987 1.415 . S
C990 H980 0.930 . S
C990 C988 1.419 . S
C990 C991 1.362 . S
C991 H981 0.930 . S
C991 C984 1.409 . S
C991 C990 1.362 . S
H992 C998 0.930 . S
H993 C1001 0.930 . S
H994 C1002 0.930 . S
H995 C1003 0.930 . S
H996 C1006 0.930 . S
H997 C1007 0.930 . S
C998 H992 0.930 . S
C998 C999 1.355 . S
C998 C1000 1.415 . S
C999 C998 1.355 . S
C999 C1001 1.419 . S
C1000 C998 1.415 . S
C1000 C1005 1.425 . S
C1000 C1007 1.409 . S
C1001 H993 0.930 . S
C1001 C999 1.419 . S
C1001 C1002 1.362 . S
C1002 H994 0.930 . S
C1002 C1001 1.362 . S
C1002 C1005 1.409 . S
C1003 H995 0.930 . S
C1003 C1004 1.355 . S
C1003 C1005 1.415 . S
C1004 C1003 1.355 . S
C1004 C1006 1.419 . S
C1005 C1000 1.425 . S
C1005 C1002 1.409 . S
C1005 C1003 1.415 . S
C1006 H996 0.930 . S
C1006 C1004 1.419 . S
C1006 C1007 1.362 . S
C1007 H997 0.930 . S
C1007 C1000 1.409 . S
C1007 C1006 1.362 . S
H1008 C1014 0.930 . S
H1009 C1017 0.930 . S
H1010 C1018 0.930 . S
H1011 C1019 0.930 . S
H1012 C1022 0.930 . S
H1013 C1023 0.930 . S
C1014 H1008 0.930 . S
C1014 C1015 1.355 . S
C1014 C1016 1.415 . S
C1015 C1014 1.355 . S
C1015 C1017 1.419 . S
C1016 C1014 1.415 . S
C1016 C1021 1.425 . S
C1016 C1023 1.409 . S
C1017 H1009 0.930 . S
C1017 C1015 1.419 . S
C1017 C1018 1.362 . S
C1018 H1010 0.930 . S
C1018 C1017 1.362 . S
C1018 C1021 1.409 . S
C1019 H1011 0.930 . S
C1019 C1020 1.355 . S
C1019 C1021 1.415 . S
C1020 C1019 1.355 . S
C1020 C1022 1.419 . S
C1021 C1016 1.425 . S
C1021 C1018 1.409 . S
C1021 C1019 1.415 . S
C1022 H1012 0.930 . S
C1022 C1020 1.419 . S
C1022 C1023 1.362 . S
C1023 H1013 0.930 . S
C1023 C1016 1.409 . S
C1023 C1022 1.362 . S
H1024 C1030 0.930 . S
H1025 C1033 0.930 . S
H1026 C1034 0.930 . S
H1027 C1035 0.930 . S
H1028 C1038 0.930 . S
H1029 C1039 0.930 . S
C1030 H1024 0.930 . S
C1030 C1031 1.355 . S
C1030 C1032 1.415 . S
C1031 C1030 1.355 . S
C1031 C1033 1.419 . S
C1032 C1030 1.415 . S
C1032 C1037 1.425 . S
C1032 C1039 1.409 . S
C1033 H1025 0.930 . S
C1033 C1031 1.419 . S
C1033 C1034 1.362 . S
C1034 H1026 0.930 . S
C1034 C1033 1.362 . S
C1034 C1037 1.409 . S
C1035 H1027 0.930 . S
C1035 C1036 1.355 . S
C1035 C1037 1.415 . S
C1036 C1035 1.355 . S
C1036 C1038 1.419 . S
C1037 C1032 1.425 . S
C1037 C1034 1.409 . S
C1037 C1035 1.415 . S
C1038 H1028 0.930 . S
C1038 C1036 1.419 . S
C1038 C1039 1.362 . S
C1039 H1029 0.930 . S
C1039 C1032 1.409 . S
C1039 C1038 1.362 . S
H1040 C1046 0.930 . S
H1041 C1049 0.930 . S
H1042 C1050 0.930 . S
H1043 C1051 0.930 . S
H1044 C1054 0.930 . S
H1045 C1055 0.930 . S
C1046 H1040 0.930 . S
C1046 C1047 1.355 . S
C1046 C1048 1.415 . S
C1047 C1046 1.355 . S
C1047 C1049 1.419 . S
C1048 C1046 1.415 . S
C1048 C1053 1.425 . S
C1048 C1055 1.409 . S
C1049 H1041 0.930 . S
C1049 C1047 1.419 . S
C1049 C1050 1.362 . S
C1050 H1042 0.930 . S
C1050 C1049 1.362 . S
C1050 C1053 1.409 . S
C1051 H1043 0.930 . S
C1051 C1052 1.355 . S
C1051 C1053 1.415 . S
C1052 C1051 1.355 . S
C1052 C1054 1.419 . S
C1053 C1048 1.425 . S
C1053 C1050 1.409 . S
C1053 C1051 1.415 . S
C1054 H1044 0.930 . S
C1054 C1052 1.419 . S
C1054 C1055 1.362 . S
C1055 H1045 0.930 . S
C1055 C1048 1.409 . S
C1055 C1054 1.362 . S
H1056 C1062 0.930 . S
H1057 C1065 0.930 . S
H1058 C1066 0.930 . S
H1059 C1067 0.930 . S
H1060 C1070 0.930 . S
H1061 C1071 0.930 . S
C1062 H1056 0.930 . S
C1062 C1063 1.355 1_455 S
C1062 C1064 1.415 . S
C1063 C1062 1.355 1_655 S
C1063 C1065 1.419 . S
C1064 C1062 1.415 . S
C1064 C1069 1.425 1_455 S
C1064 C1071 1.409 . S
C1065 H1057 0.930 . S
C1065 C1063 1.419 . S
C1065 C1066 1.362 . S
C1066 H1058 0.930 . S
C1066 C1065 1.362 . S
C1066 C1069 1.409 . S
C1067 H1059 0.930 . S
C1067 C1068 1.355 1_655 S
C1067 C1069 1.415 . S
C1068 C1067 1.355 1_455 S
C1068 C1070 1.419 . S
C1069 C1064 1.425 1_655 S
C1069 C1066 1.409 . S
C1069 C1067 1.415 . S
C1070 H1060 0.930 . S
C1070 C1068 1.419 . S
C1070 C1071 1.362 . S
C1071 H1061 0.930 . S
C1071 C1064 1.409 . S
C1071 C1070 1.362 . S
H1072 C1078 0.930 . S
H1073 C1081 0.930 . S
H1074 C1082 0.930 . S
H1075 C1083 0.930 . S
H1076 C1086 0.930 . S
H1077 C1087 0.930 . S
C1078 H1072 0.930 . S
C1078 C1079 1.355 1_545 S
C1078 C1080 1.415 . S
C1079 C1078 1.355 1_565 S
C1079 C1081 1.419 . S
C1080 C1078 1.415 . S
C1080 C1085 1.425 1_545 S
C1080 C1087 1.409 . S
C1081 H1073 0.930 . S
C1081 C1079 1.419 . S
C1081 C1082 1.362 . S
C1082 H1074 0.930 . S
C1082 C1081 1.362 . S
C1082 C1085 1.409 . S
C1083 H1075 0.930 . S
C1083 C1084 1.355 1_565 S
C1083 C1085 1.415 . S
C1084 C1083 1.355 1_545 S
C1084 C1086 1.419 . S
C1085 C1080 1.425 1_565 S
C1085 C1082 1.409 . S
C1085 C1083 1.415 . S
C1086 H1076 0.930 . S
C1086 C1084 1.419 . S
C1086 C1087 1.362 . S
C1087 H1077 0.930 . S
C1087 C1080 1.409 . S
C1087 C1086 1.362 . S
H1088 C1094 0.930 . S
H1089 C1097 0.930 . S
H1090 C1098 0.930 . S
H1091 C1099 0.930 . S
H1092 C1102 0.930 . S
H1093 C1103 0.930 . S
C1094 H1088 0.930 . S
C1094 C1095 1.355 1_455 S
C1094 C1096 1.415 . S
C1095 C1094 1.355 1_655 S
C1095 C1097 1.419 . S
C1096 C1094 1.415 . S
C1096 C1101 1.425 1_455 S
C1096 C1103 1.409 . S
C1097 H1089 0.930 . S
C1097 C1095 1.419 . S
C1097 C1098 1.362 . S
C1098 H1090 0.930 . S
C1098 C1097 1.362 . S
C1098 C1101 1.409 . S
C1099 H1091 0.930 . S
C1099 C1100 1.355 1_655 S
C1099 C1101 1.415 . S
C1100 C1099 1.355 1_455 S
C1100 C1102 1.419 . S
C1101 C1096 1.425 1_655 S
C1101 C1098 1.409 . S
C1101 C1099 1.415 . S
C1102 H1092 0.930 . S
C1102 C1100 1.419 . S
C1102 C1103 1.362 . S
C1103 H1093 0.930 . S
C1103 C1096 1.409 . S
C1103 C1102 1.362 . S
H1104 C1110 0.930 . S
H1105 C1113 0.930 . S
H1106 C1114 0.930 . S
H1107 C1115 0.930 . S
H1108 C1118 0.930 . S
H1109 C1119 0.930 . S
C1110 H1104 0.930 . S
C1110 C1111 1.355 . S
C1110 C1112 1.415 1_545 S
C1111 C1110 1.355 . S
C1111 C1113 1.419 . S
C1112 C1110 1.415 1_565 S
C1112 C1117 1.425 1_565 S
C1112 C1119 1.409 . S
C1113 H1105 0.930 . S
C1113 C1111 1.419 . S
C1113 C1114 1.362 . S
C1114 H1106 0.930 . S
C1114 C1113 1.362 . S
C1114 C1117 1.409 . S
C1115 H1107 0.930 . S
C1115 C1116 1.355 . S
C1115 C1117 1.415 1_565 S
C1116 C1115 1.355 . S
C1116 C1118 1.419 . S
C1117 C1112 1.425 1_545 S
C1117 C1114 1.409 . S
C1117 C1115 1.415 1_545 S
C1118 H1108 0.930 . S
C1118 C1116 1.419 . S
C1118 C1119 1.362 . S
C1119 H1109 0.930 . S
C1119 C1112 1.409 . S
C1119 C1118 1.362 . S
H1120 C1126 0.930 . S
H1121 C1129 0.930 . S
H1122 C1130 0.930 . S
H1123 C1131 0.930 . S
H1124 C1134 0.930 . S
H1125 C1135 0.930 . S
C1126 H1120 0.930 . S
C1126 C1127 1.355 . S
C1126 C1128 1.415 . S
C1127 C1126 1.355 . S
C1127 C1129 1.419 1_455 S
C1128 C1126 1.415 . S
C1128 C1133 1.425 1_455 S
C1128 C1135 1.409 . S
C1129 H1121 0.930 . S
C1129 C1127 1.419 1_655 S
C1129 C1130 1.362 . S
C1130 H1122 0.930 . S
C1130 C1129 1.362 . S
C1130 C1133 1.409 . S
C1131 H1123 0.930 . S
C1131 C1132 1.355 . S
C1131 C1133 1.415 . S
C1132 C1131 1.355 . S
C1132 C1134 1.419 1_655 S
C1133 C1128 1.425 1_655 S
C1133 C1130 1.409 . S
C1133 C1131 1.415 . S
C1134 H1124 0.930 . S
C1134 C1132 1.419 1_455 S
C1134 C1135 1.362 . S
C1135 H1125 0.930 . S
C1135 C1128 1.409 . S
C1135 C1134 1.362 . S
H1136 C1142 0.930 . S
H1137 C1145 0.930 . S
H1138 C1146 0.934 . S
H1139 C1147 0.930 . S
H1140 C1150 0.930 . S
H1141 C1151 0.934 . S
C1142 H1136 0.930 . S
C1142 C1143 1.355 . S
C1142 C1144 1.415 . S
C1143 C1142 1.355 . S
C1143 C1145 1.419 . S
C1144 C1142 1.415 . S
C1144 C1149 1.425 1_565 S
C1144 C1151 1.411 . S
C1145 H1137 0.930 . S
C1145 C1143 1.419 . S
C1145 C1146 1.357 1_565 S
C1146 H1138 0.934 . S
C1146 C1145 1.357 1_545 S
C1146 C1149 1.411 . S
C1147 H1139 0.930 . S
C1147 C1148 1.355 . S
C1147 C1149 1.415 . S
C1148 C1147 1.355 . S
C1148 C1150 1.419 . S
C1149 C1144 1.425 1_545 S
C1149 C1146 1.411 . S
C1149 C1147 1.415 . S
C1150 H1140 0.930 . S
C1150 C1148 1.419 . S
C1150 C1151 1.357 1_545 S
C1151 H1141 0.934 . S
C1151 C1144 1.411 . S
C1151 C1150 1.357 1_565 S
H1152 C1158 0.936 . S
H1153 C1161 0.930 . S
H1154 C1162 0.930 . S
H1155 C1163 0.936 . S
H1156 C1166 0.930 . S
H1157 C1167 0.930 . S
C1158 H1152 0.936 . S
C1158 C1159 1.355 . S
C1158 C1160 1.415 1_455 S
C1159 C1158 1.355 . S
C1159 C1161 1.419 . S
C1160 C1158 1.415 1_655 S
C1160 C1165 1.425 1_655 S
C1160 C1167 1.409 . S
C1161 H1153 0.930 . S
C1161 C1159 1.419 . S
C1161 C1162 1.362 . S
C1162 H1154 0.930 . S
C1162 C1161 1.362 . S
C1162 C1165 1.409 . S
C1163 H1155 0.936 . S
C1163 C1164 1.355 . S
C1163 C1165 1.415 1_655 S
C1164 C1163 1.355 . S
C1164 C1166 1.419 . S
C1165 C1160 1.425 1_455 S
C1165 C1162 1.409 . S
C1165 C1163 1.415 1_455 S
C1166 H1156 0.930 . S
C1166 C1164 1.419 . S
C1166 C1167 1.362 . S
C1167 H1157 0.930 . S
C1167 C1160 1.409 . S
C1167 C1166 1.362 . S
H1168 C1174 0.930 . S
H1169 C1177 0.930 . S
H1170 C1178 0.930 . S
H1171 C1179 0.930 . S
H1172 C1182 0.930 . S
H1173 C1183 0.930 . S
C1174 H1168 0.930 . S
C1174 C1175 1.355 . S
C1174 C1176 1.415 . S
C1175 C1174 1.355 . S
C1175 C1177 1.419 . S
C1176 C1174 1.415 . S
C1176 C1181 1.425 1_545 S
C1176 C1183 1.409 1_545 S
C1177 H1169 0.930 . S
C1177 C1175 1.419 . S
C1177 C1178 1.362 . S
C1178 H1170 0.930 . S
C1178 C1177 1.362 . S
C1178 C1181 1.409 1_545 S
C1179 H1171 0.930 . S
C1179 C1180 1.355 . S
C1179 C1181 1.415 . S
C1180 C1179 1.355 . S
C1180 C1182 1.419 . S
C1181 C1176 1.425 1_565 S
C1181 C1178 1.409 1_565 S
C1181 C1179 1.415 . S
C1182 H1172 0.930 . S
C1182 C1180 1.419 . S
C1182 C1183 1.362 . S
C1183 H1173 0.930 . S
C1183 C1176 1.409 1_565 S
C1183 C1182 1.362 . S
H1184 C1190 0.930 . S
H1185 C1193 0.930 . S
H1186 C1194 0.930 . S
H1187 C1195 0.930 . S
H1188 C1198 0.930 . S
H1189 C1199 0.930 . S
C1190 H1184 0.930 . S
C1190 C1191 1.355 . S
C1190 C1192 1.415 . S
C1191 C1190 1.355 . S
C1191 C1193 1.419 1_556 S
C1192 C1190 1.415 . S
C1192 C1197 1.425 1_556 S
C1192 C1199 1.409 . S
C1193 H1185 0.930 . S
C1193 C1191 1.419 1_554 S
C1193 C1194 1.362 . S
C1194 H1186 0.930 . S
C1194 C1193 1.362 . S
C1194 C1197 1.409 . S
C1195 H1187 0.930 . S
C1195 C1196 1.355 . S
C1195 C1197 1.415 . S
C1196 C1195 1.355 . S
C1196 C1198 1.419 1_554 S
C1197 C1192 1.425 1_554 S
C1197 C1194 1.409 . S
C1197 C1195 1.415 . S
C1198 H1188 0.930 . S
C1198 C1196 1.419 1_556 S
C1198 C1199 1.362 . S
C1199 H1189 0.930 . S
C1199 C1192 1.409 . S
C1199 C1198 1.362 . S
H1200 C1206 0.930 . S
H1201 C1209 0.930 . S
H1202 C1210 0.930 . S
H1203 C1211 0.930 . S
H1204 C1214 0.930 . S
H1205 C1215 0.930 . S
C1206 H1200 0.930 . S
C1206 C1207 1.355 . S
C1206 C1208 1.415 . S
C1207 C1206 1.355 . S
C1207 C1209 1.419 1_554 S
C1208 C1206 1.415 . S
C1208 C1213 1.425 1_554 S
C1208 C1215 1.409 . S
C1209 H1201 0.930 . S
C1209 C1207 1.419 1_556 S
C1209 C1210 1.362 . S
C1210 H1202 0.930 . S
C1210 C1209 1.362 . S
C1210 C1213 1.409 . S
C1211 H1203 0.930 . S
C1211 C1212 1.355 . S
C1211 C1213 1.415 . S
C1212 C1211 1.355 . S
C1212 C1214 1.419 1_556 S
C1213 C1208 1.425 1_556 S
C1213 C1210 1.409 . S
C1213 C1211 1.415 . S
C1214 H1204 0.930 . S
C1214 C1212 1.419 1_554 S
C1214 C1215 1.362 . S
C1215 H1205 0.930 . S
C1215 C1208 1.409 . S
C1215 C1214 1.362 . S
H1216 C1222 0.930 1_556 S
H1217 C1225 0.930 . S
H1218 C1226 0.930 . S
H1219 C1227 0.930 1_554 S
H1220 C1230 0.930 . S
H1221 C1231 0.930 . S
C1222 H1216 0.930 1_554 S
C1222 C1223 1.355 . S
C1222 C1224 1.415 1_554 S
C1223 C1222 1.355 . S
C1223 C1225 1.419 . S
C1224 C1222 1.415 1_556 S
C1224 C1229 1.425 1_556 S
C1224 C1231 1.409 . S
C1225 H1217 0.930 . S
C1225 C1223 1.419 . S
C1225 C1226 1.362 . S
C1226 H1218 0.930 . S
C1226 C1225 1.362 . S
C1226 C1229 1.409 . S
C1227 H1219 0.930 1_556 S
C1227 C1228 1.355 . S
C1227 C1229 1.415 1_556 S
C1228 C1227 1.355 . S
C1228 C1230 1.419 . S
C1229 C1224 1.425 1_554 S
C1229 C1226 1.409 . S
C1229 C1227 1.415 1_554 S
C1230 H1220 0.930 . S
C1230 C1228 1.419 . S
C1230 C1231 1.362 . S
C1231 H1221 0.930 . S
C1231 C1224 1.409 . S
C1231 C1230 1.362 . S
H1232 C1238 0.918 1_554 S
H1233 C1241 0.930 . S
H1234 C1242 0.930 . S
H1235 C1243 0.918 1_556 S
H1236 C1246 0.930 . S
H1237 C1247 0.930 . S
C1238 H1232 0.918 1_556 S
C1238 C1239 1.375 . S
C1238 C1240 1.407 1_556 S
C1239 C1238 1.375 . S
C1239 C1241 1.419 . S
C1240 C1238 1.407 1_554 S
C1240 C1245 1.425 1_554 S
C1240 C1247 1.409 . S
C1241 H1233 0.930 . S
C1241 C1239 1.419 . S
C1241 C1242 1.362 . S
C1242 H1234 0.930 . S
C1242 C1241 1.362 . S
C1242 C1245 1.409 . S
C1243 H1235 0.918 1_554 S
C1243 C1244 1.375 . S
C1243 C1245 1.407 1_554 S
C1244 C1243 1.375 . S
C1244 C1246 1.419 . S
C1245 C1240 1.425 1_556 S
C1245 C1242 1.409 . S
C1245 C1243 1.407 1_556 S
C1246 H1236 0.930 . S
C1246 C1244 1.419 . S
C1246 C1247 1.362 . S
C1247 H1237 0.930 . S
C1247 C1240 1.409 . S
C1247 C1246 1.362 . S
H1248 C1254 0.930 . S
H1249 C1257 0.930 . S
H1250 C1258 0.930 . S
H1251 C1259 0.930 . S
H1252 C1262 0.930 . S
H1253 C1263 0.930 . S
C1254 H1248 0.930 . S
C1254 C1255 1.355 . S
C1254 C1256 1.415 . S
C1255 C1254 1.355 . S
C1255 C1257 1.419 . S
C1256 C1254 1.415 . S
C1256 C1261 1.425 . S
C1256 C1263 1.409 . S
C1257 H1249 0.930 . S
C1257 C1255 1.419 . S
C1257 C1258 1.362 . S
C1258 H1250 0.930 . S
C1258 C1257 1.362 . S
C1258 C1261 1.409 . S
C1259 H1251 0.930 . S
C1259 C1260 1.355 . S
C1259 C1261 1.415 . S
C1260 C1259 1.355 . S
C1260 C1262 1.419 . S
C1261 C1256 1.425 . S
C1261 C1258 1.409 . S
C1261 C1259 1.415 . S
C1262 H1252 0.930 . S
C1262 C1260 1.419 . S
C1262 C1263 1.362 . S
C1263 H1253 0.930 . S
C1263 C1256 1.409 . S
C1263 C1262 1.362 . S
H1264 C1270 0.930 . S
H1265 C1273 0.930 . S
H1266 C1274 0.930 . S
H1267 C1275 0.930 . S
H1268 C1278 0.930 . S
H1269 C1279 0.930 . S
C1270 H1264 0.930 . S
C1270 C1271 1.355 . S
C1270 C1272 1.415 . S
C1271 C1270 1.355 . S
C1271 C1273 1.419 . S
C1272 C1270 1.415 . S
C1272 C1277 1.425 . S
C1272 C1279 1.409 . S
C1273 H1265 0.930 . S
C1273 C1271 1.419 . S
C1273 C1274 1.362 . S
C1274 H1266 0.930 . S
C1274 C1273 1.362 . S
C1274 C1277 1.409 . S
C1275 H1267 0.930 . S
C1275 C1276 1.355 . S
C1275 C1277 1.415 . S
C1276 C1275 1.355 . S
C1276 C1278 1.419 . S
C1277 C1272 1.425 . S
C1277 C1274 1.409 . S
C1277 C1275 1.415 . S
C1278 H1268 0.930 . S
C1278 C1276 1.419 . S
C1278 C1279 1.362 . S
C1279 H1269 0.930 . S
C1279 C1272 1.409 . S
C1279 C1278 1.362 . S
H1280 C1286 0.930 . S
H1281 C1289 0.930 . S
H1282 C1290 0.930 . S
H1283 C1291 0.930 . S
H1284 C1294 0.930 . S
H1285 C1295 0.930 . S
C1286 H1280 0.930 . S
C1286 C1287 1.355 . S
C1286 C1288 1.415 . S
C1287 C1286 1.355 . S
C1287 C1289 1.419 . S
C1288 C1286 1.415 . S
C1288 C1293 1.425 . S
C1288 C1295 1.409 . S
C1289 H1281 0.930 . S
C1289 C1287 1.419 . S
C1289 C1290 1.362 . S
C1290 H1282 0.930 . S
C1290 C1289 1.362 . S
C1290 C1293 1.409 . S
C1291 H1283 0.930 . S
C1291 C1292 1.355 . S
C1291 C1293 1.415 . S
C1292 C1291 1.355 . S
C1292 C1294 1.419 . S
C1293 C1288 1.425 . S
C1293 C1290 1.409 . S
C1293 C1291 1.415 . S
C1294 H1284 0.930 . S
C1294 C1292 1.419 . S
C1294 C1295 1.362 . S
C1295 H1285 0.930 . S
C1295 C1288 1.409 . S
C1295 C1294 1.362 . S
H1296 C1302 0.930 . S
H1297 C1305 0.930 . S
H1298 C1306 0.930 . S
H1299 C1307 0.930 . S
H1300 C1310 0.930 . S
H1301 C1311 0.930 . S
C1302 H1296 0.930 . S
C1302 C1303 1.355 . S
C1302 C1304 1.415 . S
C1303 C1302 1.355 . S
C1303 C1305 1.419 . S
C1304 C1302 1.415 . S
C1304 C1309 1.425 . S
C1304 C1311 1.409 . S
C1305 H1297 0.930 . S
C1305 C1303 1.419 . S
C1305 C1306 1.362 . S
C1306 H1298 0.930 . S
C1306 C1305 1.362 . S
C1306 C1309 1.409 . S
C1307 H1299 0.930 . S
C1307 C1308 1.355 . S
C1307 C1309 1.415 . S
C1308 C1307 1.355 . S
C1308 C1310 1.419 . S
C1309 C1304 1.425 . S
C1309 C1306 1.409 . S
C1309 C1307 1.415 . S
C1310 H1300 0.930 . S
C1310 C1308 1.419 . S
C1310 C1311 1.362 . S
C1311 H1301 0.930 . S
C1311 C1304 1.409 . S
C1311 C1310 1.362 . S
H1312 C1318 0.930 . S
H1313 C1321 0.930 . S
H1314 C1322 0.930 . S
H1315 C1323 0.930 . S
H1316 C1326 0.930 . S
H1317 C1327 0.930 . S
C1318 H1312 0.930 . S
C1318 C1319 1.355 . S
C1318 C1320 1.415 . S
C1319 C1318 1.355 . S
C1319 C1321 1.419 . S
C1320 C1318 1.415 . S
C1320 C1325 1.425 . S
C1320 C1327 1.409 . S
C1321 H1313 0.930 . S
C1321 C1319 1.419 . S
C1321 C1322 1.362 . S
C1322 H1314 0.930 . S
C1322 C1321 1.362 . S
C1322 C1325 1.409 . S
C1323 H1315 0.930 . S
C1323 C1324 1.355 . S
C1323 C1325 1.415 . S
C1324 C1323 1.355 . S
C1324 C1326 1.419 . S
C1325 C1320 1.425 . S
C1325 C1322 1.409 . S
C1325 C1323 1.415 . S
C1326 H1316 0.930 . S
C1326 C1324 1.419 . S
C1326 C1327 1.362 . S
C1327 H1317 0.930 . S
C1327 C1320 1.409 . S
C1327 C1326 1.362 . S
H1328 C1334 0.930 . S
H1329 C1337 0.930 . S
H1330 C1338 0.930 . S
H1331 C1339 0.930 . S
H1332 C1342 0.930 . S
H1333 C1343 0.930 . S
C1334 H1328 0.930 . S
C1334 C1335 1.355 . S
C1334 C1336 1.415 . S
C1335 C1334 1.355 . S
C1335 C1337 1.419 . S
C1336 C1334 1.415 . S
C1336 C1341 1.425 . S
C1336 C1343 1.409 . S
C1337 H1329 0.930 . S
C1337 C1335 1.419 . S
C1337 C1338 1.362 . S
C1338 H1330 0.930 . S
C1338 C1337 1.362 . S
C1338 C1341 1.409 . S
C1339 H1331 0.930 . S
C1339 C1340 1.355 . S
C1339 C1341 1.415 . S
C1340 C1339 1.355 . S
C1340 C1342 1.419 . S
C1341 C1336 1.425 . S
C1341 C1338 1.409 . S
C1341 C1339 1.415 . S
C1342 H1332 0.930 . S
C1342 C1340 1.419 . S
C1342 C1343 1.362 . S
C1343 H1333 0.930 . S
C1343 C1336 1.409 . S
C1343 C1342 1.362 . S
H1344 C1350 0.930 . S
H1345 C1353 0.930 . S
H1346 C1354 0.930 . S
H1347 C1355 0.930 . S
H1348 C1358 0.930 . S
H1349 C1359 0.930 . S
C1350 H1344 0.930 . S
C1350 C1351 1.355 . S
C1350 C1352 1.415 . S
C1351 C1350 1.355 . S
C1351 C1353 1.419 . S
C1352 C1350 1.415 . S
C1352 C1357 1.425 . S
C1352 C1359 1.409 . S
C1353 H1345 0.930 . S
C1353 C1351 1.419 . S
C1353 C1354 1.362 . S
C1354 H1346 0.930 . S
C1354 C1353 1.362 . S
C1354 C1357 1.409 . S
C1355 H1347 0.930 . S
C1355 C1356 1.355 . S
C1355 C1357 1.415 . S
C1356 C1355 1.355 . S
C1356 C1358 1.419 . S
C1357 C1352 1.425 . S
C1357 C1354 1.409 . S
C1357 C1355 1.415 . S
C1358 H1348 0.930 . S
C1358 C1356 1.419 . S
C1358 C1359 1.362 . S
C1359 H1349 0.930 . S
C1359 C1352 1.409 . S
C1359 C1358 1.362 . S
H1360 C1366 0.930 . S
H1361 C1369 0.930 . S
H1362 C1370 0.930 . S
H1363 C1371 0.930 . S
H1364 C1374 0.930 . S
H1365 C1375 0.930 . S
C1366 H1360 0.930 . S
C1366 C1367 1.355 . S
C1366 C1368 1.415 . S
C1367 C1366 1.355 . S
C1367 C1369 1.419 . S
C1368 C1366 1.415 . S
C1368 C1373 1.425 . S
C1368 C1375 1.409 . S
C1369 H1361 0.930 . S
C1369 C1367 1.419 . S
C1369 C1370 1.362 . S
C1370 H1362 0.930 . S
C1370 C1369 1.362 . S
C1370 C1373 1.409 . S
C1371 H1363 0.930 . S
C1371 C1372 1.355 . S
C1371 C1373 1.415 . S
C1372 C1371 1.355 . S
C1372 C1374 1.419 . S
C1373 C1368 1.425 . S
C1373 C1370 1.409 . S
C1373 C1371 1.415 . S
C1374 H1364 0.930 . S
C1374 C1372 1.419 . S
C1374 C1375 1.362 . S
C1375 H1365 0.930 . S
C1375 C1368 1.409 . S
C1375 C1374 1.362 . S
H1376 C1382 0.930 . S
H1377 C1385 0.930 . S
H1378 C1386 0.930 . S
H1379 C1387 0.930 . S
H1380 C1390 0.930 . S
H1381 C1391 0.930 . S
C1382 H1376 0.930 . S
C1382 C1383 1.355 . S
C1382 C1384 1.415 . S
C1383 C1382 1.355 . S
C1383 C1385 1.419 . S
C1384 C1382 1.415 . S
C1384 C1389 1.425 . S
C1384 C1391 1.409 . S
C1385 H1377 0.930 . S
C1385 C1383 1.419 . S
C1385 C1386 1.362 . S
C1386 H1378 0.930 . S
C1386 C1385 1.362 . S
C1386 C1389 1.409 . S
C1387 H1379 0.930 . S
C1387 C1388 1.355 . S
C1387 C1389 1.415 . S
C1388 C1387 1.355 . S
C1388 C1390 1.419 . S
C1389 C1384 1.425 . S
C1389 C1386 1.409 . S
C1389 C1387 1.415 . S
C1390 H1380 0.930 . S
C1390 C1388 1.419 . S
C1390 C1391 1.362 . S
C1391 H1381 0.930 . S
C1391 C1384 1.409 . S
C1391 C1390 1.362 . S
H1392 C1398 0.930 . S
H1393 C1401 0.930 . S
H1394 C1402 0.930 . S
H1395 C1403 0.930 . S
H1396 C1406 0.930 . S
H1397 C1407 0.930 . S
C1398 H1392 0.930 . S
C1398 C1399 1.355 . S
C1398 C1400 1.415 . S
C1399 C1398 1.355 . S
C1399 C1401 1.419 . S
C1400 C1398 1.415 . S
C1400 C1405 1.425 . S
C1400 C1407 1.409 . S
C1401 H1393 0.930 . S
C1401 C1399 1.419 . S
C1401 C1402 1.362 . S
C1402 H1394 0.930 . S
C1402 C1401 1.362 . S
C1402 C1405 1.409 . S
C1403 H1395 0.930 . S
C1403 C1404 1.355 . S
C1403 C1405 1.415 . S
C1404 C1403 1.355 . S
C1404 C1406 1.419 . S
C1405 C1400 1.425 . S
C1405 C1402 1.409 . S
C1405 C1403 1.415 . S
C1406 H1396 0.930 . S
C1406 C1404 1.419 . S
C1406 C1407 1.362 . S
C1407 H1397 0.930 . S
C1407 C1400 1.409 . S
C1407 C1406 1.362 . S
H1408 C1414 0.930 . S
H1409 C1417 0.930 . S
H1410 C1418 0.930 . S
H1411 C1419 0.930 . S
H1412 C1422 0.930 . S
H1413 C1423 0.930 . S
C1414 H1408 0.930 . S
C1414 C1415 1.355 . S
C1414 C1416 1.415 . S
C1415 C1414 1.355 . S
C1415 C1417 1.419 . S
C1416 C1414 1.415 . S
C1416 C1421 1.425 . S
C1416 C1423 1.409 . S
C1417 H1409 0.930 . S
C1417 C1415 1.419 . S
C1417 C1418 1.362 . S
C1418 H1410 0.930 . S
C1418 C1417 1.362 . S
C1418 C1421 1.409 . S
C1419 H1411 0.930 . S
C1419 C1420 1.355 . S
C1419 C1421 1.415 . S
C1420 C1419 1.355 . S
C1420 C1422 1.419 . S
C1421 C1416 1.425 . S
C1421 C1418 1.409 . S
C1421 C1419 1.415 . S
C1422 H1412 0.930 . S
C1422 C1420 1.419 . S
C1422 C1423 1.362 . S
C1423 H1413 0.930 . S
C1423 C1416 1.409 . S
C1423 C1422 1.362 . S
H1424 C1430 0.930 . S
H1425 C1433 0.930 . S
H1426 C1434 0.930 . S
H1427 C1435 0.930 . S
H1428 C1438 0.930 . S
H1429 C1439 0.930 . S
C1430 H1424 0.930 . S
C1430 C1431 1.355 . S
C1430 C1432 1.415 . S
C1431 C1430 1.355 . S
C1431 C1433 1.419 . S
C1432 C1430 1.415 . S
C1432 C1437 1.425 . S
C1432 C1439 1.409 . S
C1433 H1425 0.930 . S
C1433 C1431 1.419 . S
C1433 C1434 1.362 . S
C1434 H1426 0.930 . S
C1434 C1433 1.362 . S
C1434 C1437 1.409 . S
C1435 H1427 0.930 . S
C1435 C1436 1.355 . S
C1435 C1437 1.415 . S
C1436 C1435 1.355 . S
C1436 C1438 1.419 . S
C1437 C1432 1.425 . S
C1437 C1434 1.409 . S
C1437 C1435 1.415 . S
C1438 H1428 0.930 . S
C1438 C1436 1.419 . S
C1438 C1439 1.362 . S
C1439 H1429 0.930 . S
C1439 C1432 1.409 . S
C1439 C1438 1.362 . S
H1440 C1446 0.930 . S
H1441 C1449 0.930 . S
H1442 C1450 0.930 . S
H1443 C1451 0.930 . S
H1444 C1454 0.930 . S
H1445 C1455 0.930 . S
C1446 H1440 0.930 . S
C1446 C1447 1.355 . S
C1446 C1448 1.415 . S
C1447 C1446 1.355 . S
C1447 C1449 1.419 . S
C1448 C1446 1.415 . S
C1448 C1453 1.425 . S
C1448 C1455 1.409 . S
C1449 H1441 0.930 . S
C1449 C1447 1.419 . S
C1449 C1450 1.362 . S
C1450 H1442 0.930 . S
C1450 C1449 1.362 . S
C1450 C1453 1.409 . S
C1451 H1443 0.930 . S
C1451 C1452 1.355 . S
C1451 C1453 1.415 . S
C1452 C1451 1.355 . S
C1452 C1454 1.419 . S
C1453 C1448 1.425 . S
C1453 C1450 1.409 . S
C1453 C1451 1.415 . S
C1454 H1444 0.930 . S
C1454 C1452 1.419 . S
C1454 C1455 1.362 . S
C1455 H1445 0.930 . S
C1455 C1448 1.409 . S
C1455 C1454 1.362 . S
H1456 C1462 0.930 . S
H1457 C1465 0.930 . S
H1458 C1466 0.930 . S
H1459 C1467 0.930 . S
H1460 C1470 0.930 . S
H1461 C1471 0.930 . S
C1462 H1456 0.930 . S
C1462 C1463 1.355 . S
C1462 C1464 1.415 . S
C1463 C1462 1.355 . S
C1463 C1465 1.419 . S
C1464 C1462 1.415 . S
C1464 C1469 1.425 . S
C1464 C1471 1.409 . S
C1465 H1457 0.930 . S
C1465 C1463 1.419 . S
C1465 C1466 1.362 . S
C1466 H1458 0.930 . S
C1466 C1465 1.362 . S
C1466 C1469 1.409 . S
C1467 H1459 0.930 . S
C1467 C1468 1.355 . S
C1467 C1469 1.415 . S
C1468 C1467 1.355 . S
C1468 C1470 1.419 . S
C1469 C1464 1.425 . S
C1469 C1466 1.409 . S
C1469 C1467 1.415 . S
C1470 H1460 0.930 . S
C1470 C1468 1.419 . S
C1470 C1471 1.362 . S
C1471 H1461 0.930 . S
C1471 C1464 1.409 . S
C1471 C1470 1.362 . S
H1472 C1478 0.930 . S
H1473 C1481 0.930 . S
H1474 C1482 0.930 . S
H1475 C1483 0.930 . S
H1476 C1486 0.930 . S
H1477 C1487 0.930 . S
C1478 H1472 0.930 . S
C1478 C1479 1.355 . S
C1478 C1480 1.415 . S
C1479 C1478 1.355 . S
C1479 C1481 1.419 . S
C1480 C1478 1.415 . S
C1480 C1485 1.425 . S
C1480 C1487 1.409 . S
C1481 H1473 0.930 . S
C1481 C1479 1.419 . S
C1481 C1482 1.362 . S
C1482 H1474 0.930 . S
C1482 C1481 1.362 . S
C1482 C1485 1.409 . S
C1483 H1475 0.930 . S
C1483 C1484 1.355 . S
C1483 C1485 1.415 . S
C1484 C1483 1.355 . S
C1484 C1486 1.419 . S
C1485 C1480 1.425 . S
C1485 C1482 1.409 . S
C1485 C1483 1.415 . S
C1486 H1476 0.930 . S
C1486 C1484 1.419 . S
C1486 C1487 1.362 . S
C1487 H1477 0.930 . S
C1487 C1480 1.409 . S
C1487 C1486 1.362 . S
H1488 C1494 0.930 . S
H1489 C1497 0.930 . S
H1490 C1498 0.930 . S
H1491 C1499 0.930 . S
H1492 C1502 0.930 . S
H1493 C1503 0.930 . S
C1494 H1488 0.930 . S
C1494 C1495 1.355 . S
C1494 C1496 1.415 . S
C1495 C1494 1.355 . S
C1495 C1497 1.419 . S
C1496 C1494 1.415 . S
C1496 C1501 1.425 . S
C1496 C1503 1.409 . S
C1497 H1489 0.930 . S
C1497 C1495 1.419 . S
C1497 C1498 1.362 . S
C1498 H1490 0.930 . S
C1498 C1497 1.362 . S
C1498 C1501 1.409 . S
C1499 H1491 0.930 . S
C1499 C1500 1.355 . S
C1499 C1501 1.415 . S
C1500 C1499 1.355 . S
C1500 C1502 1.419 . S
C1501 C1496 1.425 . S
C1501 C1498 1.409 . S
C1501 C1499 1.415 . S
C1502 H1492 0.930 . S
C1502 C1500 1.419 . S
C1502 C1503 1.362 . S
C1503 H1493 0.930 . S
C1503 C1496 1.409 . S
C1503 C1502 1.362 . S
H1504 C1510 0.930 . S
H1505 C1513 0.930 . S
H1506 C1514 0.930 . S
H1507 C1515 0.930 . S
H1508 C1518 0.930 . S
H1509 C1519 0.930 . S
C1510 H1504 0.930 . S
C1510 C1511 1.355 . S
C1510 C1512 1.415 . S
C1511 C1510 1.355 . S
C1511 C1513 1.419 . S
C1512 C1510 1.415 . S
C1512 C1517 1.425 . S
C1512 C1519 1.409 . S
C1513 H1505 0.930 . S
C1513 C1511 1.419 . S
C1513 C1514 1.362 . S
C1514 H1506 0.930 . S
C1514 C1513 1.362 . S
C1514 C1517 1.409 . S
C1515 H1507 0.930 . S
C1515 C1516 1.355 . S
C1515 C1517 1.415 . S
C1516 C1515 1.355 . S
C1516 C1518 1.419 . S
C1517 C1512 1.425 . S
C1517 C1514 1.409 . S
C1517 C1515 1.415 . S
C1518 H1508 0.930 . S
C1518 C1516 1.419 . S
C1518 C1519 1.362 . S
C1519 H1509 0.930 . S
C1519 C1512 1.409 . S
C1519 C1518 1.362 . S
H1520 C1526 0.930 . S
H1521 C1529 0.930 . S
H1522 C1530 0.930 . S
H1523 C1531 0.930 . S
H1524 C1534 0.930 . S
H1525 C1535 0.930 . S
C1526 H1520 0.930 . S
C1526 C1527 1.355 . S
C1526 C1528 1.415 . S
C1527 C1526 1.355 . S
C1527 C1529 1.419 . S
C1528 C1526 1.415 . S
C1528 C1533 1.425 . S
C1528 C1535 1.409 . S
C1529 H1521 0.930 . S
C1529 C1527 1.419 . S
C1529 C1530 1.362 . S
C1530 H1522 0.930 . S
C1530 C1529 1.362 . S
C1530 C1533 1.409 . S
C1531 H1523 0.930 . S
C1531 C1532 1.355 . S
C1531 C1533 1.415 . S
C1532 C1531 1.355 . S
C1532 C1534 1.419 . S
C1533 C1528 1.425 . S
C1533 C1530 1.409 . S
C1533 C1531 1.415 . S
C1534 H1524 0.930 . S
C1534 C1532 1.419 . S
C1534 C1535 1.362 . S
C1535 H1525 0.930 . S
C1535 C1528 1.409 . S
C1535 C1534 1.362 . S
H1536 C1542 0.930 . S
H1537 C1545 0.930 . S
H1538 C1546 0.930 . S
H1539 C1547 0.930 . S
H1540 C1550 0.930 . S
H1541 C1551 0.930 . S
C1542 H1536 0.930 . S
C1542 C1543 1.355 . S
C1542 C1544 1.415 . S
C1543 C1542 1.355 . S
C1543 C1545 1.419 . S
C1544 C1542 1.415 . S
C1544 C1549 1.425 . S
C1544 C1551 1.409 . S
C1545 H1537 0.930 . S
C1545 C1543 1.419 . S
C1545 C1546 1.362 . S
C1546 H1538 0.930 . S
C1546 C1545 1.362 . S
C1546 C1549 1.409 . S
C1547 H1539 0.930 . S
C1547 C1548 1.355 . S
C1547 C1549 1.415 . S
C1548 C1547 1.355 . S
C1548 C1550 1.419 . S
C1549 C1544 1.425 . S
C1549 C1546 1.409 . S
C1549 C1547 1.415 . S
C1550 H1540 0.930 . S
C1550 C1548 1.419 . S
C1550 C1551 1.362 . S
C1551 H1541 0.930 . S
C1551 C1544 1.409 . S
C1551 C1550 1.362 . S
H1552 C1558 0.930 . S
H1553 C1561 0.930 . S
H1554 C1562 0.930 . S
H1555 C1563 0.930 . S
H1556 C1566 0.930 . S
H1557 C1567 0.930 . S
C1558 H1552 0.930 . S
C1558 C1559 1.355 . S
C1558 C1560 1.415 . S
C1559 C1558 1.355 . S
C1559 C1561 1.419 . S
C1560 C1558 1.415 . S
C1560 C1565 1.425 . S
C1560 C1567 1.409 . S
C1561 H1553 0.930 . S
C1561 C1559 1.419 . S
C1561 C1562 1.362 . S
C1562 H1554 0.930 . S
C1562 C1561 1.362 . S
C1562 C1565 1.409 . S
C1563 H1555 0.930 . S
C1563 C1564 1.355 . S
C1563 C1565 1.415 . S
C1564 C1563 1.355 . S
C1564 C1566 1.419 . S
C1565 C1560 1.425 . S
C1565 C1562 1.409 . S
C1565 C1563 1.415 . S
C1566 H1556 0.930 . S
C1566 C1564 1.419 . S
C1566 C1567 1.362 . S
C1567 H1557 0.930 . S
C1567 C1560 1.409 . S
C1567 C1566 1.362 . S
H1568 C1574 0.930 . S
H1569 C1577 0.930 . S
H1570 C1578 0.930 . S
H1571 C1579 0.930 . S
H1572 C1582 0.930 . S
H1573 C1583 0.930 . S
C1574 H1568 0.930 . S
C1574 C1575 1.355 . S
C1574 C1576 1.415 . S
C1575 C1574 1.355 . S
C1575 C1577 1.419 . S
C1576 C1574 1.415 . S
C1576 C1581 1.425 . S
C1576 C1583 1.409 . S
C1577 H1569 0.930 . S
C1577 C1575 1.419 . S
C1577 C1578 1.362 . S
C1578 H1570 0.930 . S
C1578 C1577 1.362 . S
C1578 C1581 1.409 . S
C1579 H1571 0.930 . S
C1579 C1580 1.355 . S
C1579 C1581 1.415 . S
C1580 C1579 1.355 . S
C1580 C1582 1.419 . S
C1581 C1576 1.425 . S
C1581 C1578 1.409 . S
C1581 C1579 1.415 . S
C1582 H1572 0.930 . S
C1582 C1580 1.419 . S
C1582 C1583 1.362 . S
C1583 H1573 0.930 . S
C1583 C1576 1.409 . S
C1583 C1582 1.362 . S
H1584 C1590 0.930 . S
H1585 C1593 0.930 . S
H1586 C1594 0.930 . S
H1587 C1595 0.930 . S
H1588 C1598 0.930 . S
H1589 C1599 0.930 . S
C1590 H1584 0.930 . S
C1590 C1591 1.355 . S
C1590 C1592 1.415 . S
C1591 C1590 1.355 . S
C1591 C1593 1.419 . S
C1592 C1590 1.415 . S
C1592 C1597 1.425 . S
C1592 C1599 1.409 . S
C1593 H1585 0.930 . S
C1593 C1591 1.419 . S
C1593 C1594 1.362 . S
C1594 H1586 0.930 . S
C1594 C1593 1.362 . S
C1594 C1597 1.409 . S
C1595 H1587 0.930 . S
C1595 C1596 1.355 . S
C1595 C1597 1.415 . S
C1596 C1595 1.355 . S
C1596 C1598 1.419 . S
C1597 C1592 1.425 . S
C1597 C1594 1.409 . S
C1597 C1595 1.415 . S
C1598 H1588 0.930 . S
C1598 C1596 1.419 . S
C1598 C1599 1.362 . S
C1599 H1589 0.930 . S
C1599 C1592 1.409 . S
C1599 C1598 1.362 . S
H1600 C1606 0.930 . S
H1601 C1609 0.930 . S
H1602 C1610 0.930 . S
H1603 C1611 0.930 . S
H1604 C1614 0.930 . S
H1605 C1615 0.930 . S
C1606 H1600 0.930 . S
C1606 C1607 1.355 . S
C1606 C1608 1.415 . S
C1607 C1606 1.355 . S
C1607 C1609 1.419 . S
C1608 C1606 1.415 . S
C1608 C1613 1.425 . S
C1608 C1615 1.409 . S
C1609 H1601 0.930 . S
C1609 C1607 1.419 . S
C1609 C1610 1.362 . S
C1610 H1602 0.930 . S
C1610 C1609 1.362 . S
C1610 C1613 1.409 . S
C1611 H1603 0.930 . S
C1611 C1612 1.355 . S
C1611 C1613 1.415 . S
C1612 C1611 1.355 . S
C1612 C1614 1.419 . S
C1613 C1608 1.425 . S
C1613 C1610 1.409 . S
C1613 C1611 1.415 . S
C1614 H1604 0.930 . S
C1614 C1612 1.419 . S
C1614 C1615 1.362 . S
C1615 H1605 0.930 . S
C1615 C1608 1.409 . S
C1615 C1614 1.362 . S
H1616 C1622 0.930 . S
H1617 C1625 0.930 . S
H1618 C1626 0.930 . S
H1619 C1627 0.930 . S
H1620 C1630 0.930 . S
H1621 C1631 0.930 . S
C1622 H1616 0.930 . S
C1622 C1623 1.355 . S
C1622 C1624 1.415 . S
C1623 C1622 1.355 . S
C1623 C1625 1.419 . S
C1624 C1622 1.415 . S
C1624 C1629 1.425 . S
C1624 C1631 1.409 . S
C1625 H1617 0.930 . S
C1625 C1623 1.419 . S
C1625 C1626 1.362 . S
C1626 H1618 0.930 . S
C1626 C1625 1.362 . S
C1626 C1629 1.409 . S
C1627 H1619 0.930 . S
C1627 C1628 1.355 . S
C1627 C1629 1.415 . S
C1628 C1627 1.355 . S
C1628 C1630 1.419 . S
C1629 C1624 1.425 . S
C1629 C1626 1.409 . S
C1629 C1627 1.415 . S
C1630 H1620 0.930 . S
C1630 C1628 1.419 . S
C1630 C1631 1.362 . S
C1631 H1621 0.930 . S
C1631 C1624 1.409 . S
C1631 C1630 1.362 . S
H1632 C1638 0.930 . S
H1633 C1641 0.930 . S
H1634 C1642 0.930 . S
H1635 C1643 0.930 . S
H1636 C1646 0.930 . S
H1637 C1647 0.930 . S
C1638 H1632 0.930 . S
C1638 C1639 1.355 . S
C1638 C1640 1.415 . S
C1639 C1638 1.355 . S
C1639 C1641 1.419 . S
C1640 C1638 1.415 . S
C1640 C1645 1.425 . S
C1640 C1647 1.409 . S
C1641 H1633 0.930 . S
C1641 C1639 1.419 . S
C1641 C1642 1.362 . S
C1642 H1634 0.930 . S
C1642 C1641 1.362 . S
C1642 C1645 1.409 . S
C1643 H1635 0.930 . S
C1643 C1644 1.355 . S
C1643 C1645 1.415 . S
C1644 C1643 1.355 . S
C1644 C1646 1.419 . S
C1645 C1640 1.425 . S
C1645 C1642 1.409 . S
C1645 C1643 1.415 . S
C1646 H1636 0.930 . S
C1646 C1644 1.419 . S
C1646 C1647 1.362 . S
C1647 H1637 0.930 . S
C1647 C1640 1.409 . S
C1647 C1646 1.362 . S
H1648 C1654 0.930 . S
H1649 C1657 0.930 . S
H1650 C1658 0.930 . S
H1651 C1659 0.930 . S
H1652 C1662 0.930 . S
H1653 C1663 0.930 . S
C1654 H1648 0.930 . S
C1654 C1655 1.355 . S
C1654 C1656 1.415 . S
C1655 C1654 1.355 . S
C1655 C1657 1.419 . S
C1656 C1654 1.415 . S
C1656 C1661 1.425 . S
C1656 C1663 1.409 . S
C1657 H1649 0.930 . S
C1657 C1655 1.419 . S
C1657 C1658 1.362 . S
C1658 H1650 0.930 . S
C1658 C1657 1.362 . S
C1658 C1661 1.409 . S
C1659 H1651 0.930 . S
C1659 C1660 1.355 . S
C1659 C1661 1.415 . S
C1660 C1659 1.355 . S
C1660 C1662 1.419 . S
C1661 C1656 1.425 . S
C1661 C1658 1.409 . S
C1661 C1659 1.415 . S
C1662 H1652 0.930 . S
C1662 C1660 1.419 . S
C1662 C1663 1.362 . S
C1663 H1653 0.930 . S
C1663 C1656 1.409 . S
C1663 C1662 1.362 . S
H1664 C1670 0.930 . S
H1665 C1673 0.930 . S
H1666 C1674 0.930 . S
H1667 C1675 0.930 . S
H1668 C1678 0.930 . S
H1669 C1679 0.930 . S
C1670 H1664 0.930 . S
C1670 C1671 1.355 . S
C1670 C1672 1.415 . S
C1671 C1670 1.355 . S
C1671 C1673 1.419 . S
C1672 C1670 1.415 . S
C1672 C1677 1.425 . S
C1672 C1679 1.409 . S
C1673 H1665 0.930 . S
C1673 C1671 1.419 . S
C1673 C1674 1.362 . S
C1674 H1666 0.930 . S
C1674 C1673 1.362 . S
C1674 C1677 1.409 . S
C1675 H1667 0.930 . S
C1675 C1676 1.355 . S
C1675 C1677 1.415 . S
C1676 C1675 1.355 . S
C1676 C1678 1.419 . S
C1677 C1672 1.425 . S
C1677 C1674 1.409 . S
C1677 C1675 1.415 . S
C1678 H1668 0.930 . S
C1678 C1676 1.419 . S
C1678 C1679 1.362 . S
C1679 H1669 0.930 . S
C1679 C1672 1.409 . S
C1679 C1678 1.362 . S
H1680 C1686 0.930 . S
H1681 C1689 0.930 . S
H1682 C1690 0.930 . S
H1683 C1691 0.930 . S
H1684 C1694 0.930 . S
H1685 C1695 0.930 . S
C1686 H1680 0.930 . S
C1686 C1687 1.355 . S
C1686 C1688 1.415 . S
C1687 C1686 1.355 . S
C1687 C1689 1.419 . S
C1688 C1686 1.415 . S
C1688 C1693 1.425 . S
C1688 C1695 1.409 . S
C1689 H1681 0.930 . S
C1689 C1687 1.419 . S
C1689 C1690 1.362 . S
C1690 H1682 0.930 . S
C1690 C1689 1.362 . S
C1690 C1693 1.409 . S
C1691 H1683 0.930 . S
C1691 C1692 1.355 . S
C1691 C1693 1.415 . S
C1692 C1691 1.355 . S
C1692 C1694 1.419 . S
C1693 C1688 1.425 . S
C1693 C1690 1.409 . S
C1693 C1691 1.415 . S
C1694 H1684 0.930 . S
C1694 C1692 1.419 . S
C1694 C1695 1.362 . S
C1695 H1685 0.930 . S
C1695 C1688 1.409 . S
C1695 C1694 1.362 . S
H1696 C1702 0.930 . S
H1697 C1705 0.930 . S
H1698 C1706 0.930 . S
H1699 C1707 0.930 . S
H1700 C1710 0.930 . S
H1701 C1711 0.930 . S
C1702 H1696 0.930 . S
C1702 C1703 1.355 . S
C1702 C1704 1.415 . S
C1703 C1702 1.355 . S
C1703 C1705 1.419 . S
C1704 C1702 1.415 . S
C1704 C1709 1.425 . S
C1704 C1711 1.409 . S
C1705 H1697 0.930 . S
C1705 C1703 1.419 . S
C1705 C1706 1.362 . S
C1706 H1698 0.930 . S
C1706 C1705 1.362 . S
C1706 C1709 1.409 . S
C1707 H1699 0.930 . S
C1707 C1708 1.355 . S
C1707 C1709 1.415 . S
C1708 C1707 1.355 . S
C1708 C1710 1.419 . S
C1709 C1704 1.425 . S
C1709 C1706 1.409 . S
C1709 C1707 1.415 . S
C1710 H1700 0.930 . S
C1710 C1708 1.419 . S
C1710 C1711 1.362 . S
C1711 H1701 0.930 . S
C1711 C1704 1.409 . S
C1711 C1710 1.362 . S
H1712 C1718 0.930 . S
H1713 C1721 0.930 . S
H1714 C1722 0.930 . S
H1715 C1723 0.930 . S
H1716 C1726 0.930 . S
H1717 C1727 0.930 . S
C1718 H1712 0.930 . S
C1718 C1719 1.355 . S
C1718 C1720 1.415 . S
C1719 C1718 1.355 . S
C1719 C1721 1.419 . S
C1720 C1718 1.415 . S
C1720 C1725 1.425 . S
C1720 C1727 1.409 . S
C1721 H1713 0.930 . S
C1721 C1719 1.419 . S
C1721 C1722 1.362 . S
C1722 H1714 0.930 . S
C1722 C1721 1.362 . S
C1722 C1725 1.409 . S
C1723 H1715 0.930 . S
C1723 C1724 1.355 . S
C1723 C1725 1.415 . S
C1724 C1723 1.355 . S
C1724 C1726 1.419 . S
C1725 C1720 1.425 . S
C1725 C1722 1.409 . S
C1725 C1723 1.415 . S
C1726 H1716 0.930 . S
C1726 C1724 1.419 . S
C1726 C1727 1.362 . S
C1727 H1717 0.930 . S
C1727 C1720 1.409 . S
C1727 C1726 1.362 . S
H1728 C1734 0.930 . S
H1729 C1737 0.930 . S
H1730 C1738 0.930 . S
H1731 C1739 0.930 . S
H1732 C1742 0.930 . S
H1733 C1743 0.930 . S
C1734 H1728 0.930 . S
C1734 C1735 1.355 . S
C1734 C1736 1.415 . S
C1735 C1734 1.355 . S
C1735 C1737 1.419 . S
C1736 C1734 1.415 . S
C1736 C1741 1.425 . S
C1736 C1743 1.409 . S
C1737 H1729 0.930 . S
C1737 C1735 1.419 . S
C1737 C1738 1.362 . S
C1738 H1730 0.930 . S
C1738 C1737 1.362 . S
C1738 C1741 1.409 . S
C1739 H1731 0.930 . S
C1739 C1740 1.355 . S
C1739 C1741 1.415 . S
C1740 C1739 1.355 . S
C1740 C1742 1.419 . S
C1741 C1736 1.425 . S
C1741 C1738 1.409 . S
C1741 C1739 1.415 . S
C1742 H1732 0.930 . S
C1742 C1740 1.419 . S
C1742 C1743 1.362 . S
C1743 H1733 0.930 . S
C1743 C1736 1.409 . S
C1743 C1742 1.362 . S
H1744 C1750 0.930 . S
H1745 C1753 0.930 . S
H1746 C1754 0.930 . S
H1747 C1755 0.930 . S
H1748 C1758 0.930 . S
H1749 C1759 0.930 . S
C1750 H1744 0.930 . S
C1750 C1751 1.355 . S
C1750 C1752 1.415 . S
C1751 C1750 1.355 . S
C1751 C1753 1.419 . S
C1752 C1750 1.415 . S
C1752 C1757 1.425 . S
C1752 C1759 1.409 . S
C1753 H1745 0.930 . S
C1753 C1751 1.419 . S
C1753 C1754 1.362 . S
C1754 H1746 0.930 . S
C1754 C1753 1.362 . S
C1754 C1757 1.409 . S
C1755 H1747 0.930 . S
C1755 C1756 1.355 . S
C1755 C1757 1.415 . S
C1756 C1755 1.355 . S
C1756 C1758 1.419 . S
C1757 C1752 1.425 . S
C1757 C1754 1.409 . S
C1757 C1755 1.415 . S
C1758 H1748 0.930 . S
C1758 C1756 1.419 . S
C1758 C1759 1.362 . S
C1759 H1749 0.930 . S
C1759 C1752 1.409 . S
C1759 C1758 1.362 . S
H1760 C1766 0.930 . S
H1761 C1769 0.930 . S
H1762 C1770 0.930 . S
H1763 C1771 0.930 . S
H1764 C1774 0.930 . S
H1765 C1775 0.930 . S
C1766 H1760 0.930 . S
C1766 C1767 1.355 . S
C1766 C1768 1.415 . S
C1767 C1766 1.355 . S
C1767 C1769 1.419 . S
C1768 C1766 1.415 . S
C1768 C1773 1.425 . S
C1768 C1775 1.409 . S
C1769 H1761 0.930 . S
C1769 C1767 1.419 . S
C1769 C1770 1.362 . S
C1770 H1762 0.930 . S
C1770 C1769 1.362 . S
C1770 C1773 1.409 . S
C1771 H1763 0.930 . S
C1771 C1772 1.355 . S
C1771 C1773 1.415 . S
C1772 C1771 1.355 . S
C1772 C1774 1.419 . S
C1773 C1768 1.425 . S
C1773 C1770 1.409 . S
C1773 C1771 1.415 . S
C1774 H1764 0.930 . S
C1774 C1772 1.419 . S
C1774 C1775 1.362 . S
C1775 H1765 0.930 . S
C1775 C1768 1.409 . S
C1775 C1774 1.362 . S
H1776 C1782 0.930 . S
H1777 C1785 0.930 . S
H1778 C1786 0.930 . S
H1779 C1787 0.930 . S
H1780 C1790 0.930 . S
H1781 C1791 0.930 . S
C1782 H1776 0.930 . S
C1782 C1783 1.355 . S
C1782 C1784 1.415 . S
C1783 C1782 1.355 . S
C1783 C1785 1.419 . S
C1784 C1782 1.415 . S
C1784 C1789 1.425 . S
C1784 C1791 1.409 . S
C1785 H1777 0.930 . S
C1785 C1783 1.419 . S
C1785 C1786 1.362 . S
C1786 H1778 0.930 . S
C1786 C1785 1.362 . S
C1786 C1789 1.409 . S
C1787 H1779 0.930 . S
C1787 C1788 1.355 . S
C1787 C1789 1.415 . S
C1788 C1787 1.355 . S
C1788 C1790 1.419 . S
C1789 C1784 1.425 . S
C1789 C1786 1.409 . S
C1789 C1787 1.415 . S
C1790 H1780 0.930 . S
C1790 C1788 1.419 . S
C1790 C1791 1.362 . S
C1791 H1781 0.930 . S
C1791 C1784 1.409 . S
C1791 C1790 1.362 . S
H1792 C1798 0.930 . S
H1793 C1801 0.930 . S
H1794 C1802 0.930 . S
H1795 C1803 0.930 . S
H1796 C1806 0.930 . S
H1797 C1807 0.930 . S
C1798 H1792 0.930 . S
C1798 C1799 1.355 . S
C1798 C1800 1.415 . S
C1799 C1798 1.355 . S
C1799 C1801 1.419 . S
C1800 C1798 1.415 . S
C1800 C1805 1.425 . S
C1800 C1807 1.409 . S
C1801 H1793 0.930 . S
C1801 C1799 1.419 . S
C1801 C1802 1.362 . S
C1802 H1794 0.930 . S
C1802 C1801 1.362 . S
C1802 C1805 1.409 . S
C1803 H1795 0.930 . S
C1803 C1804 1.355 . S
C1803 C1805 1.415 . S
C1804 C1803 1.355 . S
C1804 C1806 1.419 . S
C1805 C1800 1.425 . S
C1805 C1802 1.409 . S
C1805 C1803 1.415 . S
C1806 H1796 0.930 . S
C1806 C1804 1.419 . S
C1806 C1807 1.362 . S
C1807 H1797 0.930 . S
C1807 C1800 1.409 . S
C1807 C1806 1.362 . S
H1808 C1814 0.930 . S
H1809 C1817 0.930 . S
H1810 C1818 0.930 . S
H1811 C1819 0.930 . S
H1812 C1822 0.930 . S
H1813 C1823 0.930 . S
C1814 H1808 0.930 . S
C1814 C1815 1.355 . S
C1814 C1816 1.415 . S
C1815 C1814 1.355 . S
C1815 C1817 1.419 . S
C1816 C1814 1.415 . S
C1816 C1821 1.425 . S
C1816 C1823 1.409 . S
C1817 H1809 0.930 . S
C1817 C1815 1.419 . S
C1817 C1818 1.362 . S
C1818 H1810 0.930 . S
C1818 C1817 1.362 . S
C1818 C1821 1.409 . S
C1819 H1811 0.930 . S
C1819 C1820 1.355 . S
C1819 C1821 1.415 . S
C1820 C1819 1.355 . S
C1820 C1822 1.419 . S
C1821 C1816 1.425 . S
C1821 C1818 1.409 . S
C1821 C1819 1.415 . S
C1822 H1812 0.930 . S
C1822 C1820 1.419 . S
C1822 C1823 1.362 . S
C1823 H1813 0.930 . S
C1823 C1816 1.409 . S
C1823 C1822 1.362 . S
H1824 C1830 0.930 . S
H1825 C1833 0.930 . S
H1826 C1834 0.930 . S
H1827 C1835 0.930 . S
H1828 C1838 0.930 . S
H1829 C1839 0.930 . S
C1830 H1824 0.930 . S
C1830 C1831 1.355 . S
C1830 C1832 1.415 . S
C1831 C1830 1.355 . S
C1831 C1833 1.419 . S
C1832 C1830 1.415 . S
C1832 C1837 1.425 . S
C1832 C1839 1.409 . S
C1833 H1825 0.930 . S
C1833 C1831 1.419 . S
C1833 C1834 1.362 . S
C1834 H1826 0.930 . S
C1834 C1833 1.362 . S
C1834 C1837 1.409 . S
C1835 H1827 0.930 . S
C1835 C1836 1.355 . S
C1835 C1837 1.415 . S
C1836 C1835 1.355 . S
C1836 C1838 1.419 . S
C1837 C1832 1.425 . S
C1837 C1834 1.409 . S
C1837 C1835 1.415 . S
C1838 H1828 0.930 . S
C1838 C1836 1.419 . S
C1838 C1839 1.362 . S
C1839 H1829 0.930 . S
C1839 C1832 1.409 . S
C1839 C1838 1.362 . S
H1840 C1846 0.930 . S
H1841 C1849 0.930 . S
H1842 C1850 0.930 . S
H1843 C1851 0.930 . S
H1844 C1854 0.930 . S
H1845 C1855 0.930 . S
C1846 H1840 0.930 . S
C1846 C1847 1.355 . S
C1846 C1848 1.415 . S
C1847 C1846 1.355 . S
C1847 C1849 1.419 . S
C1848 C1846 1.415 . S
C1848 C1853 1.425 . S
C1848 C1855 1.409 . S
C1849 H1841 0.930 . S
C1849 C1847 1.419 . S
C1849 C1850 1.362 . S
C1850 H1842 0.930 . S
C1850 C1849 1.362 . S
C1850 C1853 1.409 . S
C1851 H1843 0.930 . S
C1851 C1852 1.355 . S
C1851 C1853 1.415 . S
C1852 C1851 1.355 . S
C1852 C1854 1.419 . S
C1853 C1848 1.425 . S
C1853 C1850 1.409 . S
C1853 C1851 1.415 . S
C1854 H1844 0.930 . S
C1854 C1852 1.419 . S
C1854 C1855 1.362 . S
C1855 H1845 0.930 . S
C1855 C1848 1.409 . S
C1855 C1854 1.362 . S
H1856 C1862 0.930 . S
H1857 C1865 0.930 . S
H1858 C1866 0.930 . S
H1859 C1867 0.930 . S
H1860 C1870 0.930 . S
H1861 C1871 0.930 . S
C1862 H1856 0.930 . S
C1862 C1863 1.355 . S
C1862 C1864 1.415 . S
C1863 C1862 1.355 . S
C1863 C1865 1.419 . S
C1864 C1862 1.415 . S
C1864 C1869 1.425 . S
C1864 C1871 1.409 . S
C1865 H1857 0.930 . S
C1865 C1863 1.419 . S
C1865 C1866 1.362 . S
C1866 H1858 0.930 . S
C1866 C1865 1.362 . S
C1866 C1869 1.409 . S
C1867 H1859 0.930 . S
C1867 C1868 1.355 . S
C1867 C1869 1.415 . S
C1868 C1867 1.355 . S
C1868 C1870 1.419 . S
C1869 C1864 1.425 . S
C1869 C1866 1.409 . S
C1869 C1867 1.415 . S
C1870 H1860 0.930 . S
C1870 C1868 1.419 . S
C1870 C1871 1.362 . S
C1871 H1861 0.930 . S
C1871 C1864 1.409 . S
C1871 C1870 1.362 . S
H1872 C1878 0.930 . S
H1873 C1881 0.930 . S
H1874 C1882 0.930 . S
H1875 C1883 0.930 . S
H1876 C1886 0.930 . S
H1877 C1887 0.930 . S
C1878 H1872 0.930 . S
C1878 C1879 1.355 . S
C1878 C1880 1.415 . S
C1879 C1878 1.355 . S
C1879 C1881 1.419 . S
C1880 C1878 1.415 . S
C1880 C1885 1.425 . S
C1880 C1887 1.409 . S
C1881 H1873 0.930 . S
C1881 C1879 1.419 . S
C1881 C1882 1.362 . S
C1882 H1874 0.930 . S
C1882 C1881 1.362 . S
C1882 C1885 1.409 . S
C1883 H1875 0.930 . S
C1883 C1884 1.355 . S
C1883 C1885 1.415 . S
C1884 C1883 1.355 . S
C1884 C1886 1.419 . S
C1885 C1880 1.425 . S
C1885 C1882 1.409 . S
C1885 C1883 1.415 . S
C1886 H1876 0.930 . S
C1886 C1884 1.419 . S
C1886 C1887 1.362 . S
C1887 H1877 0.930 . S
C1887 C1880 1.409 . S
C1887 C1886 1.362 . S
H1888 C1894 0.930 . S
H1889 C1897 0.930 . S
H1890 C1898 0.930 . S
H1891 C1899 0.930 . S
H1892 C1902 0.930 . S
H1893 C1903 0.930 . S
C1894 H1888 0.930 . S
C1894 C1895 1.355 . S
C1894 C1896 1.415 . S
C1895 C1894 1.355 . S
C1895 C1897 1.419 . S
C1896 C1894 1.415 . S
C1896 C1901 1.425 . S
C1896 C1903 1.409 . S
C1897 H1889 0.930 . S
C1897 C1895 1.419 . S
C1897 C1898 1.362 . S
C1898 H1890 0.930 . S
C1898 C1897 1.362 . S
C1898 C1901 1.409 . S
C1899 H1891 0.930 . S
C1899 C1900 1.355 . S
C1899 C1901 1.415 . S
C1900 C1899 1.355 . S
C1900 C1902 1.419 . S
C1901 C1896 1.425 . S
C1901 C1898 1.409 . S
C1901 C1899 1.415 . S
C1902 H1892 0.930 . S
C1902 C1900 1.419 . S
C1902 C1903 1.362 . S
C1903 H1893 0.930 . S
C1903 C1896 1.409 . S
C1903 C1902 1.362 . S
H1904 C1910 0.930 . S
H1905 C1913 0.930 . S
H1906 C1914 0.930 . S
H1907 C1915 0.930 . S
H1908 C1918 0.930 . S
H1909 C1919 0.930 . S
C1910 H1904 0.930 . S
C1910 C1911 1.355 . S
C1910 C1912 1.415 . S
C1911 C1910 1.355 . S
C1911 C1913 1.419 . S
C1912 C1910 1.415 . S
C1912 C1917 1.425 . S
C1912 C1919 1.409 . S
C1913 H1905 0.930 . S
C1913 C1911 1.419 . S
C1913 C1914 1.362 . S
C1914 H1906 0.930 . S
C1914 C1913 1.362 . S
C1914 C1917 1.409 . S
C1915 H1907 0.930 . S
C1915 C1916 1.355 . S
C1915 C1917 1.415 . S
C1916 C1915 1.355 . S
C1916 C1918 1.419 . S
C1917 C1912 1.425 . S
C1917 C1914 1.409 . S
C1917 C1915 1.415 . S
C1918 H1908 0.930 . S
C1918 C1916 1.419 . S
C1918 C1919 1.362 . S
C1919 H1909 0.930 . S
C1919 C1912 1.409 . S
C1919 C1918 1.362 . S
H1920 C1926 0.930 . S
H1921 C1929 0.930 . S
H1922 C1930 0.930 . S
H1923 C1931 0.930 . S
H1924 C1934 0.930 . S
H1925 C1935 0.930 . S
C1926 H1920 0.930 . S
C1926 C1927 1.355 . S
C1926 C1928 1.415 . S
C1927 C1926 1.355 . S
C1927 C1929 1.419 . S
C1928 C1926 1.415 . S
C1928 C1933 1.425 . S
C1928 C1935 1.409 . S
C1929 H1921 0.930 . S
C1929 C1927 1.419 . S
C1929 C1930 1.362 . S
C1930 H1922 0.930 . S
C1930 C1929 1.362 . S
C1930 C1933 1.409 . S
C1931 H1923 0.930 . S
C1931 C1932 1.355 . S
C1931 C1933 1.415 . S
C1932 C1931 1.355 . S
C1932 C1934 1.419 . S
C1933 C1928 1.425 . S
C1933 C1930 1.409 . S
C1933 C1931 1.415 . S
C1934 H1924 0.930 . S
C1934 C1932 1.419 . S
C1934 C1935 1.362 . S
C1935 H1925 0.930 . S
C1935 C1928 1.409 . S
C1935 C1934 1.362 . S
H1936 C1942 0.930 . S
H1937 C1945 0.930 . S
H1938 C1946 0.930 . S
H1939 C1947 0.930 . S
H1940 C1950 0.930 . S
H1941 C1951 0.930 . S
C1942 H1936 0.930 . S
C1942 C1943 1.355 . S
C1942 C1944 1.415 . S
C1943 C1942 1.355 . S
C1943 C1945 1.419 . S
C1944 C1942 1.415 . S
C1944 C1949 1.425 . S
C1944 C1951 1.409 . S
C1945 H1937 0.930 . S
C1945 C1943 1.419 . S
C1945 C1946 1.362 . S
C1946 H1938 0.930 . S
C1946 C1945 1.362 . S
C1946 C1949 1.409 . S
C1947 H1939 0.930 . S
C1947 C1948 1.355 . S
C1947 C1949 1.415 . S
C1948 C1947 1.355 . S
C1948 C1950 1.419 . S
C1949 C1944 1.425 . S
C1949 C1946 1.409 . S
C1949 C1947 1.415 . S
C1950 H1940 0.930 . S
C1950 C1948 1.419 . S
C1950 C1951 1.362 . S
C1951 H1941 0.930 . S
C1951 C1944 1.409 . S
C1951 C1950 1.362 . S
H1952 C1958 0.930 . S
H1953 C1961 0.930 . S
H1954 C1962 0.930 . S
H1955 C1963 0.930 . S
H1956 C1966 0.930 . S
H1957 C1967 0.930 . S
C1958 H1952 0.930 . S
C1958 C1959 1.355 . S
C1958 C1960 1.415 . S
C1959 C1958 1.355 . S
C1959 C1961 1.419 . S
C1960 C1958 1.415 . S
C1960 C1965 1.425 . S
C1960 C1967 1.409 . S
C1961 H1953 0.930 . S
C1961 C1959 1.419 . S
C1961 C1962 1.362 . S
C1962 H1954 0.930 . S
C1962 C1961 1.362 . S
C1962 C1965 1.409 . S
C1963 H1955 0.930 . S
C1963 C1964 1.355 . S
C1963 C1965 1.415 . S
C1964 C1963 1.355 . S
C1964 C1966 1.419 . S
C1965 C1960 1.425 . S
C1965 C1962 1.409 . S
C1965 C1963 1.415 . S
C1966 H1956 0.930 . S
C1966 C1964 1.419 . S
C1966 C1967 1.362 . S
C1967 H1957 0.930 . S
C1967 C1960 1.409 . S
C1967 C1966 1.362 . S
H1968 C1974 0.930 . S
H1969 C1977 0.930 . S
H1970 C1978 0.930 . S
H1971 C1979 0.930 . S
H1972 C1982 0.930 . S
H1973 C1983 0.930 . S
C1974 H1968 0.930 . S
C1974 C1975 1.355 . S
C1974 C1976 1.415 . S
C1975 C1974 1.355 . S
C1975 C1977 1.419 . S
C1976 C1974 1.415 . S
C1976 C1981 1.425 . S
C1976 C1983 1.409 . S
C1977 H1969 0.930 . S
C1977 C1975 1.419 . S
C1977 C1978 1.362 . S
C1978 H1970 0.930 . S
C1978 C1977 1.362 . S
C1978 C1981 1.409 . S
C1979 H1971 0.930 . S
C1979 C1980 1.355 . S
C1979 C1981 1.415 . S
C1980 C1979 1.355 . S
C1980 C1982 1.419 . S
C1981 C1976 1.425 . S
C1981 C1978 1.409 . S
C1981 C1979 1.415 . S
C1982 H1972 0.930 . S
C1982 C1980 1.419 . S
C1982 C1983 1.362 . S
C1983 H1973 0.930 . S
C1983 C1976 1.409 . S
C1983 C1982 1.362 . S
H1984 C1990 0.930 . S
H1985 C1993 0.930 . S
H1986 C1994 0.930 . S
H1987 C1995 0.930 . S
H1988 C1998 0.930 . S
H1989 C1999 0.930 . S
C1990 H1984 0.930 . S
C1990 C1991 1.355 . S
C1990 C1992 1.415 . S
C1991 C1990 1.355 . S
C1991 C1993 1.419 . S
C1992 C1990 1.415 . S
C1992 C1997 1.425 . S
C1992 C1999 1.409 . S
C1993 H1985 0.930 . S
C1993 C1991 1.419 . S
C1993 C1994 1.362 . S
C1994 H1986 0.930 . S
C1994 C1993 1.362 . S
C1994 C1997 1.409 . S
C1995 H1987 0.930 . S
C1995 C1996 1.355 . S
C1995 C1997 1.415 . S
C1996 C1995 1.355 . S
C1996 C1998 1.419 . S
C1997 C1992 1.425 . S
C1997 C1994 1.409 . S
C1997 C1995 1.415 . S
C1998 H1988 0.930 . S
C1998 C1996 1.419 . S
C1998 C1999 1.362 . S
C1999 H1989 0.930 . S
C1999 C1992 1.409 . S
C1999 C1998 1.362 . S
H2000 C2006 0.930 . S
H2001 C2009 0.930 . S
H2002 C2010 0.930 . S
H2003 C2011 0.930 . S
H2004 C2014 0.930 . S
H2005 C2015 0.930 . S
C2006 H2000 0.930 . S
C2006 C2007 1.355 . S
C2006 C2008 1.415 . S
C2007 C2006 1.355 . S
C2007 C2009 1.419 . S
C2008 C2006 1.415 . S
C2008 C2013 1.425 . S
C2008 C2015 1.409 . S
C2009 H2001 0.930 . S
C2009 C2007 1.419 . S
C2009 C2010 1.362 . S
C2010 H2002 0.930 . S
C2010 C2009 1.362 . S
C2010 C2013 1.409 . S
C2011 H2003 0.930 . S
C2011 C2012 1.355 . S
C2011 C2013 1.415 . S
C2012 C2011 1.355 . S
C2012 C2014 1.419 . S
C2013 C2008 1.425 . S
C2013 C2010 1.409 . S
C2013 C2011 1.415 . S
C2014 H2004 0.930 . S
C2014 C2012 1.419 . S
C2014 C2015 1.362 . S
C2015 H2005 0.930 . S
C2015 C2008 1.409 . S
C2015 C2014 1.362 . S
H2016 C2022 0.930 . S
H2017 C2025 0.930 . S
H2018 C2026 0.930 . S
H2019 C2027 0.930 . S
H2020 C2030 0.930 . S
H2021 C2031 0.930 . S
C2022 H2016 0.930 . S
C2022 C2023 1.355 . S
C2022 C2024 1.415 . S
C2023 C2022 1.355 . S
C2023 C2025 1.419 . S
C2024 C2022 1.415 . S
C2024 C2029 1.425 . S
C2024 C2031 1.409 . S
C2025 H2017 0.930 . S
C2025 C2023 1.419 . S
C2025 C2026 1.362 . S
C2026 H2018 0.930 . S
C2026 C2025 1.362 . S
C2026 C2029 1.409 . S
C2027 H2019 0.930 . S
C2027 C2028 1.355 . S
C2027 C2029 1.415 . S
C2028 C2027 1.355 . S
C2028 C2030 1.419 . S
C2029 C2024 1.425 . S
C2029 C2026 1.409 . S
C2029 C2027 1.415 . S
C2030 H2020 0.930 . S
C2030 C2028 1.419 . S
C2030 C2031 1.362 . S
C2031 H2021 0.930 . S
C2031 C2024 1.409 . S
C2031 C2030 1.362 . S
H2032 C2038 0.930 . S
H2033 C2041 0.930 . S
H2034 C2042 0.930 . S
H2035 C2043 0.930 . S
H2036 C2046 0.930 . S
H2037 C2047 0.930 . S
C2038 H2032 0.930 . S
C2038 C2039 1.355 . S
C2038 C2040 1.415 . S
C2039 C2038 1.355 . S
C2039 C2041 1.419 . S
C2040 C2038 1.415 . S
C2040 C2045 1.425 . S
C2040 C2047 1.409 . S
C2041 H2033 0.930 . S
C2041 C2039 1.419 . S
C2041 C2042 1.362 . S
C2042 H2034 0.930 . S
C2042 C2041 1.362 . S
C2042 C2045 1.409 . S
C2043 H2035 0.930 . S
C2043 C2044 1.355 . S
C2043 C2045 1.415 . S
C2044 C2043 1.355 . S
C2044 C2046 1.419 . S
C2045 C2040 1.425 . S
C2045 C2042 1.409 . S
C2045 C2043 1.415 . S
C2046 H2036 0.930 . S
C2046 C2044 1.419 . S
C2046 C2047 1.362 . S
C2047 H2037 0.930 . S
C2047 C2040 1.409 . S
C2047 C2046 1.362 . S
H2048 C2054 0.930 . S
H2049 C2057 0.930 . S
H2050 C2058 0.930 . S
H2051 C2059 0.930 . S
H2052 C2062 0.930 . S
H2053 C2063 0.930 . S
C2054 H2048 0.930 . S
C2054 C2055 1.355 . S
C2054 C2056 1.415 . S
C2055 C2054 1.355 . S
C2055 C2057 1.419 . S
C2056 C2054 1.415 . S
C2056 C2061 1.425 . S
C2056 C2063 1.409 . S
C2057 H2049 0.930 . S
C2057 C2055 1.419 . S
C2057 C2058 1.362 . S
C2058 H2050 0.930 . S
C2058 C2057 1.362 . S
C2058 C2061 1.409 . S
C2059 H2051 0.930 . S
C2059 C2060 1.355 . S
C2059 C2061 1.415 . S
C2060 C2059 1.355 . S
C2060 C2062 1.419 . S
C2061 C2056 1.425 . S
C2061 C2058 1.409 . S
C2061 C2059 1.415 . S
C2062 H2052 0.930 . S
C2062 C2060 1.419 . S
C2062 C2063 1.362 . S
C2063 H2053 0.930 . S
C2063 C2056 1.409 . S
C2063 C2062 1.362 . S
H2064 C2070 0.930 . S
H2065 C2073 0.930 . S
H2066 C2074 0.930 . S
H2067 C2075 0.930 . S
H2068 C2078 0.930 . S
H2069 C2079 0.930 . S
C2070 H2064 0.930 . S
C2070 C2071 1.355 . S
C2070 C2072 1.415 . S
C2071 C2070 1.355 . S
C2071 C2073 1.419 . S
C2072 C2070 1.415 . S
C2072 C2077 1.425 . S
C2072 C2079 1.409 . S
C2073 H2065 0.930 . S
C2073 C2071 1.419 . S
C2073 C2074 1.362 . S
C2074 H2066 0.930 . S
C2074 C2073 1.362 . S
C2074 C2077 1.409 . S
C2075 H2067 0.930 . S
C2075 C2076 1.355 . S
C2075 C2077 1.415 . S
C2076 C2075 1.355 . S
C2076 C2078 1.419 . S
C2077 C2072 1.425 . S
C2077 C2074 1.409 . S
C2077 C2075 1.415 . S
C2078 H2068 0.930 . S
C2078 C2076 1.419 . S
C2078 C2079 1.362 . S
C2079 H2069 0.930 . S
C2079 C2072 1.409 . S
C2079 C2078 1.362 . S
H2080 C2086 0.930 . S
H2081 C2089 0.930 . S
H2082 C2090 0.930 . S
H2083 C2091 0.930 . S
H2084 C2094 0.930 . S
H2085 C2095 0.930 . S
C2086 H2080 0.930 . S
C2086 C2087 1.355 . S
C2086 C2088 1.415 . S
C2087 C2086 1.355 . S
C2087 C2089 1.419 . S
C2088 C2086 1.415 . S
C2088 C2093 1.425 . S
C2088 C2095 1.409 . S
C2089 H2081 0.930 . S
C2089 C2087 1.419 . S
C2089 C2090 1.362 . S
C2090 H2082 0.930 . S
C2090 C2089 1.362 . S
C2090 C2093 1.409 . S
C2091 H2083 0.930 . S
C2091 C2092 1.355 . S
C2091 C2093 1.415 . S
C2092 C2091 1.355 . S
C2092 C2094 1.419 . S
C2093 C2088 1.425 . S
C2093 C2090 1.409 . S
C2093 C2091 1.415 . S
C2094 H2084 0.930 . S
C2094 C2092 1.419 . S
C2094 C2095 1.362 . S
C2095 H2085 0.930 . S
C2095 C2088 1.409 . S
C2095 C2094 1.362 . S
H2096 C2102 0.930 . S
H2097 C2105 0.930 . S
H2098 C2106 0.930 . S
H2099 C2107 0.930 . S
H2100 C2110 0.930 . S
H2101 C2111 0.930 . S
C2102 H2096 0.930 . S
C2102 C2103 1.355 . S
C2102 C2104 1.415 . S
C2103 C2102 1.355 . S
C2103 C2105 1.419 . S
C2104 C2102 1.415 . S
C2104 C2109 1.425 . S
C2104 C2111 1.409 . S
C2105 H2097 0.930 . S
C2105 C2103 1.419 . S
C2105 C2106 1.362 . S
C2106 H2098 0.930 . S
C2106 C2105 1.362 . S
C2106 C2109 1.409 . S
C2107 H2099 0.930 . S
C2107 C2108 1.355 . S
C2107 C2109 1.415 . S
C2108 C2107 1.355 . S
C2108 C2110 1.419 . S
C2109 C2104 1.425 . S
C2109 C2106 1.409 . S
C2109 C2107 1.415 . S
C2110 H2100 0.930 . S
C2110 C2108 1.419 . S
C2110 C2111 1.362 . S
C2111 H2101 0.930 . S
C2111 C2104 1.409 . S
C2111 C2110 1.362 . S
H2112 C2118 0.930 . S
H2113 C2121 0.930 . S
H2114 C2122 0.930 . S
H2115 C2123 0.930 . S
H2116 C2126 0.930 . S
H2117 C2127 0.930 . S
C2118 H2112 0.930 . S
C2118 C2119 1.355 . S
C2118 C2120 1.415 . S
C2119 C2118 1.355 . S
C2119 C2121 1.419 . S
C2120 C2118 1.415 . S
C2120 C2125 1.425 . S
C2120 C2127 1.409 . S
C2121 H2113 0.930 . S
C2121 C2119 1.419 . S
C2121 C2122 1.362 . S
C2122 H2114 0.930 . S
C2122 C2121 1.362 . S
C2122 C2125 1.409 . S
C2123 H2115 0.930 . S
C2123 C2124 1.355 . S
C2123 C2125 1.415 . S
C2124 C2123 1.355 . S
C2124 C2126 1.419 . S
C2125 C2120 1.425 . S
C2125 C2122 1.409 . S
C2125 C2123 1.415 . S
C2126 H2116 0.930 . S
C2126 C2124 1.419 . S
C2126 C2127 1.362 . S
C2127 H2117 0.930 . S
C2127 C2120 1.409 . S
C2127 C2126 1.362 . S
H2128 C2134 0.930 . S
H2129 C2137 0.930 . S
H2130 C2138 0.930 . S
H2131 C2139 0.930 . S
H2132 C2142 0.930 . S
H2133 C2143 0.930 . S
C2134 H2128 0.930 . S
C2134 C2135 1.355 . S
C2134 C2136 1.415 . S
C2135 C2134 1.355 . S
C2135 C2137 1.419 . S
C2136 C2134 1.415 . S
C2136 C2141 1.425 . S
C2136 C2143 1.409 . S
C2137 H2129 0.930 . S
C2137 C2135 1.419 . S
C2137 C2138 1.362 . S
C2138 H2130 0.930 . S
C2138 C2137 1.362 . S
C2138 C2141 1.409 . S
C2139 H2131 0.930 . S
C2139 C2140 1.355 . S
C2139 C2141 1.415 . S
C2140 C2139 1.355 . S
C2140 C2142 1.419 . S
C2141 C2136 1.425 . S
C2141 C2138 1.409 . S
C2141 C2139 1.415 . S
C2142 H2132 0.930 . S
C2142 C2140 1.419 . S
C2142 C2143 1.362 . S
C2143 H2133 0.930 . S
C2143 C2136 1.409 . S
C2143 C2142 1.362 . S
H2144 C2150 0.930 . S
H2145 C2153 0.930 . S
H2146 C2154 0.930 . S
H2147 C2155 0.930 . S
H2148 C2158 0.930 . S
H2149 C2159 0.930 . S
C2150 H2144 0.930 . S
C2150 C2151 1.355 . S
C2150 C2152 1.415 . S
C2151 C2150 1.355 . S
C2151 C2153 1.419 . S
C2152 C2150 1.415 . S
C2152 C2157 1.425 . S
C2152 C2159 1.409 . S
C2153 H2145 0.930 . S
C2153 C2151 1.419 . S
C2153 C2154 1.362 . S
C2154 H2146 0.930 . S
C2154 C2153 1.362 . S
C2154 C2157 1.409 . S
C2155 H2147 0.930 . S
C2155 C2156 1.355 . S
C2155 C2157 1.415 . S
C2156 C2155 1.355 . S
C2156 C2158 1.419 . S
C2157 C2152 1.425 . S
C2157 C2154 1.409 . S
C2157 C2155 1.415 . S
C2158 H2148 0.930 . S
C2158 C2156 1.419 . S
C2158 C2159 1.362 . S
C2159 H2149 0.930 . S
C2159 C2152 1.409 . S
C2159 C2158 1.362 . S
H2160 C2166 0.930 . S
H2161 C2169 0.930 . S
H2162 C2170 0.930 . S
H2163 C2171 0.930 . S
H2164 C2174 0.930 . S
H2165 C2175 0.930 . S
C2166 H2160 0.930 . S
C2166 C2167 1.355 . S
C2166 C2168 1.415 . S
C2167 C2166 1.355 . S
C2167 C2169 1.419 . S
C2168 C2166 1.415 . S
C2168 C2173 1.425 . S
C2168 C2175 1.409 . S
C2169 H2161 0.930 . S
C2169 C2167 1.419 . S
C2169 C2170 1.362 . S
C2170 H2162 0.930 . S
C2170 C2169 1.362 . S
C2170 C2173 1.409 . S
C2171 H2163 0.930 . S
C2171 C2172 1.355 . S
C2171 C2173 1.415 . S
C2172 C2171 1.355 . S
C2172 C2174 1.419 . S
C2173 C2168 1.425 . S
C2173 C2170 1.409 . S
C2173 C2171 1.415 . S
C2174 H2164 0.930 . S
C2174 C2172 1.419 . S
C2174 C2175 1.362 . S
C2175 H2165 0.930 . S
C2175 C2168 1.409 . S
C2175 C2174 1.362 . S
H2176 C2182 0.930 . S
H2177 C2185 0.930 . S
H2178 C2186 0.930 . S
H2179 C2187 0.930 . S
H2180 C2190 0.930 . S
H2181 C2191 0.930 . S
C2182 H2176 0.930 . S
C2182 C2183 1.355 . S
C2182 C2184 1.415 . S
C2183 C2182 1.355 . S
C2183 C2185 1.419 . S
C2184 C2182 1.415 . S
C2184 C2189 1.425 . S
C2184 C2191 1.409 . S
C2185 H2177 0.930 . S
C2185 C2183 1.419 . S
C2185 C2186 1.362 . S
C2186 H2178 0.930 . S
C2186 C2185 1.362 . S
C2186 C2189 1.409 . S
C2187 H2179 0.930 . S
C2187 C2188 1.355 . S
C2187 C2189 1.415 . S
C2188 C2187 1.355 . S
C2188 C2190 1.419 . S
C2189 C2184 1.425 . S
C2189 C2186 1.409 . S
C2189 C2187 1.415 . S
C2190 H2180 0.930 . S
C2190 C2188 1.419 . S
C2190 C2191 1.362 . S
C2191 H2181 0.930 . S
C2191 C2184 1.409 . S
C2191 C2190 1.362 . S
H2192 C2198 0.930 . S
H2193 C2201 0.930 . S
H2194 C2202 0.930 . S
H2195 C2203 0.930 . S
H2196 C2206 0.930 . S
H2197 C2207 0.930 . S
C2198 H2192 0.930 . S
C2198 C2199 1.355 . S
C2198 C2200 1.415 . S
C2199 C2198 1.355 . S
C2199 C2201 1.419 . S
C2200 C2198 1.415 . S
C2200 C2205 1.425 . S
C2200 C2207 1.409 . S
C2201 H2193 0.930 . S
C2201 C2199 1.419 . S
C2201 C2202 1.362 . S
C2202 H2194 0.930 . S
C2202 C2201 1.362 . S
C2202 C2205 1.409 . S
C2203 H2195 0.930 . S
C2203 C2204 1.355 . S
C2203 C2205 1.415 . S
C2204 C2203 1.355 . S
C2204 C2206 1.419 . S
C2205 C2200 1.425 . S
C2205 C2202 1.409 . S
C2205 C2203 1.415 . S
C2206 H2196 0.930 . S
C2206 C2204 1.419 . S
C2206 C2207 1.362 . S
C2207 H2197 0.930 . S
C2207 C2200 1.409 . S
C2207 C2206 1.362 . S
C679 C442 1.397 . S
C684 C8 1.391 . S
C695 C22 1.394 . S
C700 C400 1.392 . S
C711 C36 1.394 . S
C716 C414 1.392 . S
C727 C428 1.395 . S
C732 C50 1.397 . S
C743 C358 1.396 . S
C748 C64 1.391 . S
C759 C78 1.395 . S
C764 C372 1.391 . S
C775 C386 1.397 . S
C780 C92 1.394 . S
C791 C106 1.393 . S
C796 C344 1.397 . S
C807 C120 1.397 . S
C812 C624 1.395 . S
C823 C582 1.396 . S
C828 C134 1.391 . S
C839 C596 1.392 . S
C844 C148 1.397 . S
C855 C162 1.391 . S
C860 C610 1.397 . S
C871 C176 1.393 . S
C876 C666 1.393 . S
C887 C190 1.397 . S
C892 C638 1.392 . S
C903 C204 1.397 . S
C908 C652 1.392 . S
C919 C568 1.393 . S
C924 C218 1.393 . S
C935 C554 1.397 . S
C940 C232 1.391 . S
C951 C246 1.396 . S
C956 C470 1.395 . S
C967 C484 1.392 . S
C972 C260 1.394 . S
C983 C274 1.397 . S
C988 C498 1.394 . S
C999 C456 1.394 . S
C1004 C288 1.392 . S
C1015 C526 1.393 . S
C1020 C302 1.397 . S
C1031 C316 1.395 . S
C1036 C540 1.392 . S
C1047 C512 1.396 . S
C1052 C330 1.395 . S
C1063 C133 1.358 . S
C1068 C7 1.313 . S
C1079 C147 1.351 . S
C1084 C21 1.332 . S
C1095 C35 1.355 . S
C1100 C161 1.325 . S
C1111 C119 1.319 . S
C1116 C49 1.357 . S
C1127 C63 1.306 . S
C1132 C217 1.352 . S
C1143 C175 1.310 . S
C1148 C77 1.358 . S
C1159 C189 1.320 . S
C1164 C91 1.357 . S
C1175 C203 1.353 . S
C1180 C105 1.306 . S
C1191 C259 1.312 . S
C1196 C231 1.336 . S
C1207 C315 1.306 . S
C1212 C245 1.353 . S
C1223 C329 1.357 . S
C1228 C273 1.309 . S
C1239 C287 1.325 . S
C1244 C301 1.355 . S
C1255 C469 1.311 . S
C1260 C343 1.337 . S
C1271 C483 1.308 . S
C1276 C357 1.343 . S
C1287 C497 1.306 . S
C1292 C371 1.353 . S
C1303 C385 1.357 . S
C1308 C455 1.309 . S
C1319 C399 1.347 . S
C1324 C553 1.307 . S
C1335 C413 1.334 . S
C1340 C511 1.313 . S
C1351 C525 1.327 . S
C1356 C427 1.353 . S
C1367 C539 1.326 . S
C1372 C441 1.320 . S
C1383 C567 1.331 . S
C1388 C595 1.316 . S
C1399 C651 1.348 . S
C1404 C581 1.335 . S
C1415 C665 1.306 . S
C1420 C609 1.351 . S
C1431 C637 1.357 . S
C1436 C623 1.309 . S
C1447 C3 1.423 . S
C1452 C261 1.381 . S
C1463 C17 1.422 . S
C1468 C275 1.387 . S
C1479 C31 1.449 . S
C1484 C289 1.409 . S
C1495 C247 1.396 . S
C1500 C45 1.443 . S
C1511 C59 1.444 . S
C1516 C317 1.399 . S
C1527 C73 1.428 . S
C1532 C233 1.414 . S
C1543 C331 1.441 . S
C1548 C87 1.447 . S
C1559 C303 1.390 . S
C1564 C101 1.438 . S
C1575 C115 1.435 . S
C1580 C135 1.385 . S
C1591 C129 1.439 . S
C1596 C149 1.391 . S
C1607 C143 1.433 . S
C1612 C163 1.383 . S
C1623 C121 1.381 . S
C1628 C157 1.431 . S
C1639 C219 1.393 . S
C1644 C171 1.441 . S
C1655 C177 1.389 . S
C1660 C185 1.438 . S
C1671 C191 1.420 . S
C1676 C199 1.431 . S
C1687 C213 1.450 . S
C1692 C205 1.413 . S
C1703 C51 1.408 . S
C1708 C227 1.448 . S
C1719 C79 1.379 . S
C1724 C241 1.425 . S
C1735 C93 1.391 . S
C1740 C255 1.440 . S
C1751 C269 1.426 . S
C1756 C107 1.409 . S
C1767 C65 1.382 . S
C1772 C283 1.432 . S
C1783 C23 1.419 . S
C1788 C297 1.430 . S
C1799 C37 1.393 . S
C1804 C311 1.441 . S
C1815 C9 1.436 . S
C1820 C325 1.441 . S
C1831 C597 1.387 . S
C1836 C339 1.437 . S
C1847 C353 1.438 . S
C1852 C611 1.389 . S
C1863 C625 1.431 . S
C1868 C367 1.454 . S
C1879 C583 1.396 . S
C1884 C381 1.423 . S
C1895 C395 1.454 . S
C1900 C653 1.437 . S
C1911 C409 1.453 . S
C1916 C569 1.423 . S
C1927 C667 1.420 . S
C1932 C423 1.431 . S
C1943 C437 1.425 . S
C1948 C639 1.379 . S
C1959 C451 1.448 . S
C1964 C471 1.408 . S
C1975 C465 1.425 . S
C1980 C485 1.405 . S
C1991 C479 1.435 . S
C1996 C499 1.428 . S
C2007 C493 1.429 . S
C2012 C457 1.380 . S
C2023 C555 1.420 . S
C2028 C507 1.431 . S
C2039 C513 1.436 . S
C2044 C521 1.441 . S
C2055 C527 1.379 . S
C2060 C535 1.425 . S
C2071 C549 1.442 . S
C2076 C541 1.437 . S
C2087 C387 1.426 . S
C2092 C563 1.453 . S
C2103 C415 1.379 . S
C2108 C577 1.426 . S
C2119 C429 1.439 . S
C2124 C591 1.454 . S
C2135 C605 1.428 . S
C2140 C443 1.414 . S
C2151 C401 1.440 . S
C2156 C619 1.453 . S
C2167 C359 1.380 . S
C2172 C633 1.424 . S
C2183 C647 1.442 . S
C2188 C373 1.437 . S
C2199 C345 1.397 . S
C2204 C661 1.423 . S
