# Generated by pormake.
# Topology vbe, (5)-cn, num edge types: 1
# Building blocks:
#     Node 0, Type 0, BuildingBlock: BEQFEK_clean_sbu_0, # of connection points: 5
#     Node 1, Type 0, BuildingBlock: BEQFEK_clean_sbu_0, # of connection points: 5
#     Node 2, Type 0, BuildingBlock: BEQFEK_clean_sbu_0, # of connection points: 5
#     Node 3, Type 0, BuildingBlock: BEQFEK_clean_sbu_0, # of connection points: 5
#     Node 4, Type 0, BuildingBlock: BEQFEK_clean_sbu_0, # of connection points: 5
#     Node 5, Type 0, BuildingBlock: BEQFEK_clean_sbu_0, # of connection points: 5
#     Node 6, Type 0, BuildingBlock: BEQFEK_clean_sbu_0, # of connection points: 5
#     Node 7, Type 0, BuildingBlock: BEQFEK_clean_sbu_0, # of connection points: 5
#     Node 8, Type 0, BuildingBlock: BEQFEK_clean_sbu_0, # of connection points: 5
#     Node 9, Type 0, BuildingBlock: BEQFEK_clean_sbu_0, # of connection points: 5
#     Node 10, Type 0, BuildingBlock: BEQFEK_clean_sbu_0, # of connection points: 5
#     Node 11, Type 0, BuildingBlock: BEQFEK_clean_sbu_0, # of connection points: 5
#     Node 12, Type 0, BuildingBlock: BEQFEK_clean_sbu_0, # of connection points: 5
#     Node 13, Type 0, BuildingBlock: BEQFEK_clean_sbu_0, # of connection points: 5
#     Node 14, Type 0, BuildingBlock: BEQFEK_clean_sbu_0, # of connection points: 5
#     Node 15, Type 0, BuildingBlock: BEQFEK_clean_sbu_0, # of connection points: 5
#     Edge 16, Type (0, 0), BuildingBlock: XUDNAN_clean_linker_2, # of connection points: 2
#     Edge 17, Type (0, 0), BuildingBlock: XUDNAN_clean_linker_2, # of connection points: 2
#     Edge 18, Type (0, 0), BuildingBlock: XUDNAN_clean_linker_2, # of connection points: 2
#     Edge 19, Type (0, 0), BuildingBlock: XUDNAN_clean_linker_2, # of connection points: 2
#     Edge 20, Type (0, 0), BuildingBlock: XUDNAN_clean_linker_2, # of connection points: 2
#     Edge 21, Type (0, 0), BuildingBlock: XUDNAN_clean_linker_2, # of connection points: 2
#     Edge 22, Type (0, 0), BuildingBlock: XUDNAN_clean_linker_2, # of connection points: 2
#     Edge 23, Type (0, 0), BuildingBlock: XUDNAN_clean_linker_2, # of connection points: 2
#     Edge 24, Type (0, 0), BuildingBlock: XUDNAN_clean_linker_2, # of connection points: 2
#     Edge 25, Type (0, 0), BuildingBlock: XUDNAN_clean_linker_2, # of connection points: 2
#     Edge 26, Type (0, 0), BuildingBlock: XUDNAN_clean_linker_2, # of connection points: 2
#     Edge 27, Type (0, 0), BuildingBlock: XUDNAN_clean_linker_2, # of connection points: 2
#     Edge 28, Type (0, 0), BuildingBlock: XUDNAN_clean_linker_2, # of connection points: 2
#     Edge 29, Type (0, 0), BuildingBlock: XUDNAN_clean_linker_2, # of connection points: 2
#     Edge 30, Type (0, 0), BuildingBlock: XUDNAN_clean_linker_2, # of connection points: 2
#     Edge 31, Type (0, 0), BuildingBlock: XUDNAN_clean_linker_2, # of connection points: 2
#     Edge 32, Type (0, 0), BuildingBlock: XUDNAN_clean_linker_2, # of connection points: 2
#     Edge 33, Type (0, 0), BuildingBlock: XUDNAN_clean_linker_2, # of connection points: 2
#     Edge 34, Type (0, 0), BuildingBlock: XUDNAN_clean_linker_2, # of connection points: 2
#     Edge 35, Type (0, 0), BuildingBlock: XUDNAN_clean_linker_2, # of connection points: 2
#     Edge 36, Type (0, 0), BuildingBlock: XUDNAN_clean_linker_2, # of connection points: 2
#     Edge 37, Type (0, 0), BuildingBlock: XUDNAN_clean_linker_2, # of connection points: 2
#     Edge 38, Type (0, 0), BuildingBlock: XUDNAN_clean_linker_2, # of connection points: 2
#     Edge 39, Type (0, 0), BuildingBlock: XUDNAN_clean_linker_2, # of connection points: 2
#     Edge 40, Type (0, 0), BuildingBlock: XUDNAN_clean_linker_2, # of connection points: 2
#     Edge 41, Type (0, 0), BuildingBlock: XUDNAN_clean_linker_2, # of connection points: 2
#     Edge 42, Type (0, 0), BuildingBlock: XUDNAN_clean_linker_2, # of connection points: 2
#     Edge 43, Type (0, 0), BuildingBlock: XUDNAN_clean_linker_2, # of connection points: 2
#     Edge 44, Type (0, 0), BuildingBlock: XUDNAN_clean_linker_2, # of connection points: 2
#     Edge 45, Type (0, 0), BuildingBlock: XUDNAN_clean_linker_2, # of connection points: 2
#     Edge 46, Type (0, 0), BuildingBlock: XUDNAN_clean_linker_2, # of connection points: 2
#     Edge 47, Type (0, 0), BuildingBlock: XUDNAN_clean_linker_2, # of connection points: 2
#     Edge 48, Type (0, 0), BuildingBlock: XUDNAN_clean_linker_2, # of connection points: 2
#     Edge 49, Type (0, 0), BuildingBlock: XUDNAN_clean_linker_2, # of connection points: 2
#     Edge 50, Type (0, 0), BuildingBlock: XUDNAN_clean_linker_2, # of connection points: 2
#     Edge 51, Type (0, 0), BuildingBlock: XUDNAN_clean_linker_2, # of connection points: 2
#     Edge 52, Type (0, 0), BuildingBlock: XUDNAN_clean_linker_2, # of connection points: 2
#     Edge 53, Type (0, 0), BuildingBlock: XUDNAN_clean_linker_2, # of connection points: 2
#     Edge 54, Type (0, 0), BuildingBlock: XUDNAN_clean_linker_2, # of connection points: 2
#     Edge 55, Type (0, 0), BuildingBlock: XUDNAN_clean_linker_2, # of connection points: 2
# Relax obj value: 0.316
# Max RMSD: 0.194
# Mean RMSD: 0.194
data_MOF--net-vbe--node1-BEQFEK_clean_sbu_0--edge1-XUDNAN_clean_linker_2
_symmetry_space_group_name_H-M    P1
_symmetry_Int_Tables_number       1
_symmetry_cell_setting            triclinic
loop_
_symmetry_equiv_pos_as_xyz
'x, y, z'
_cell_length_a     44.865367
_cell_length_b     40.508456
_cell_length_c     57.438044
_cell_angle_alpha  90.00646
_cell_angle_beta   90.005692
_cell_angle_gamma 89.709553
loop_
_atom_site_label
_atom_site_type_symbol
_atom_site_fract_x
_atom_site_fract_y
_atom_site_fract_z
_atom_type_partial_charge
Co0 Co 0.10429 0.11478 0.32448 0.0
Co1 Co 0.07419 0.06803 0.36058 0.0
C2 C 0.05561 0.13723 0.35782 0.0
O3 O 0.07299 0.14107 0.34051 0.0
O4 O 0.05442 0.11011 0.36895 0.0
C5 C 0.1368 0.17299 0.31302 0.0
O6 O 0.13381 0.17944 0.33532 0.0
C7 C 0.04928 0.0356 0.40189 0.0
C8 C 0.04966 0.98336 0.39059 0.0
C9 C 0.04113 0.00402 0.4086 0.0
N10 N 0.06212 0.03361 0.38082 0.0
N11 N 0.06255 0.00233 0.37427 0.0
C12 C 0.0423 0.06752 0.41388 0.0
H13 H 0.02382 0.08005 0.40449 0.0
H14 H 0.06203 0.0839 0.41315 0.0
H15 H 0.03545 0.06382 0.43222 0.0
C16 C 0.1586 0.09055 0.34806 0.0
N17 N 0.12882 0.09215 0.34574 0.0
N18 N 0.11632 0.07262 0.36116 0.0
C19 C 0.13783 0.05842 0.37419 0.0
C20 C 0.16535 0.06938 0.36633 0.0
C21 C 0.18006 0.10617 0.33146 0.0
H22 H 0.17042 0.10685 0.3137 0.0
H23 H 0.18447 0.13187 0.33715 0.0
H24 H 0.20152 0.09246 0.3309 0.0
O25 O 0.08494 0.08353 0.30354 0.0
O26 O 0.0592 0.05448 0.32935 0.0
H27 H 0.12503 0.01098 0.3868 0.0
H28 H 0.1522 0.03163 0.40484 0.0
C29 C 0.13205 0.0352 0.39391 0.0
H30 H 0.11369 0.04498 0.40488 0.0
H31 H 0.07083 0.99408 0.3583 0.0
O32 O 0.12683 0.14598 0.30502 0.0
C33 C 0.06608 0.06135 0.30844 0.0
Co34 Co 0.40283 0.88561 0.33178 0.0
Co35 Co 0.44272 0.9243 0.36714 0.0
C36 C 0.4386 0.851 0.36864 0.0
O37 O 0.41966 0.8505 0.3521 0.0
O38 O 0.44977 0.87782 0.3761 0.0
C39 C 0.36023 0.83995 0.31068 0.0
O40 O 0.35657 0.8269 0.33142 0.0
C41 C 0.47148 0.94869 0.40987 0.0
C42 C 0.4841 -0.00092 0.39887 0.0
C43 C 0.48554 0.97723 0.41735 0.0
N44 N 0.46195 0.95368 0.38797 0.0
N45 N 0.46955 0.9838 0.38153 0.0
C46 C 0.46915 0.9163 0.42227 0.0
H47 H 0.48102 0.8971 0.41203 0.0
H48 H 0.44538 0.909 0.42334 0.0
H49 H 0.47902 0.91706 0.43994 0.0
C50 C 0.35701 0.93171 0.35006 0.0
N51 N 0.3848 0.91913 0.34965 0.0
N52 N 0.40122 0.93431 0.36528 0.0
C53 C 0.38411 0.95642 0.37669 0.0
C54 C 0.35555 0.95578 0.36731 0.0
C55 C 0.33325 0.9225 0.33298 0.0
H56 H 0.34338 0.91616 0.31595 0.0
H57 H 0.32125 0.90049 0.33954 0.0
H58 H 0.31701 0.94293 0.33046 0.0
O59 O 0.43484 0.9038 0.31249 0.0
O60 O 0.4632 0.93135 0.33719 0.0
H61 H 0.40821 0.99737 0.3905 0.0
H62 H 0.37563 0.98636 0.40725 0.0
C63 C 0.3946 0.97649 0.39695 0.0
H64 H 0.4087 0.96102 0.40849 0.0
H65 H 0.46503 0.99379 0.36515 0.0
O66 O 0.37649 0.86529 0.3084 0.0
C67 C 0.45751 0.92139 0.31672 0.0
Co68 Co 0.61992 0.85409 0.15051 0.0
Co69 Co 0.57705 0.90374 0.12506 0.0
C70 C 0.57365 0.83088 0.11692 0.0
O71 O 0.59523 0.82492 0.13074 0.0
O72 O 0.56411 0.86013 0.11336 0.0
C73 C 0.65448 0.79736 0.16609 0.0
O74 O 0.64514 0.78249 0.14715 0.0
C75 C 0.55021 0.9401 0.08602 0.0
C76 C 0.53322 0.98471 0.10393 0.0
C77 C 0.53558 0.96993 0.08226 0.0
N78 N 0.55622 0.93755 0.10886 0.0
N79 N 0.54575 0.96411 0.11949 0.0
C80 C 0.56055 0.91561 0.06825 0.0
H81 H 0.57962 0.90098 0.0751 0.0
H82 H 0.56712 0.92827 0.05191 0.0
H83 H 0.54207 0.89841 0.06427 0.0
C84 C 0.66542 0.89667 0.12914 0.0
N85 N 0.63696 0.88764 0.13239 0.0
N86 N 0.61916 0.90901 0.12201 0.0
C87 C 0.63587 0.9326 0.11195 0.0
C88 C 0.66573 0.92547 0.11608 0.0
C89 C 0.69158 0.87842 0.13903 0.0
H90 H 0.68808 0.85144 0.13728 0.0
H91 H 0.71258 0.88542 0.13014 0.0
H92 H 0.69348 0.88421 0.15785 0.0
O93 O 0.59603 0.87447 0.17548 0.0
O94 O 0.56466 0.90854 0.15774 0.0
H95 H 0.64073 0.98225 0.09823 0.0
H96 H 0.61319 0.95693 0.08406 0.0
C97 C 0.62339 0.96327 0.10105 0.0
H98 H 0.60583 0.97383 0.11243 0.0
H99 H 0.5477 0.96848 0.13733 0.0
O100 O 0.64897 0.8279 0.16886 0.0
C101 C 0.57493 0.89541 0.17613 0.0
Co102 Co 0.89793 0.12116 0.15868 0.0
Co103 Co 0.93257 0.07647 0.12324 0.0
C104 C 0.94309 0.14898 0.12554 0.0
O105 O 0.92383 0.15253 0.14165 0.0
O106 O 0.94876 0.12078 0.11681 0.0
C107 C 0.86126 0.17536 0.17401 0.0
O108 O 0.86502 0.18619 0.15265 0.0
C109 C 0.95716 0.05196 0.07939 0.0
C110 C 0.97371 0.00261 0.08985 0.0
C111 C 0.97296 0.02471 0.07148 0.0
N112 N 0.949 0.04622 0.1015 0.0
N113 N 0.95857 0.01652 0.10755 0.0
C114 C 0.95309 0.08445 0.0674 0.0
H115 H 0.97312 0.09982 0.07046 0.0
H116 H 0.93335 0.09759 0.07456 0.0
H117 H 0.95042 0.08121 0.04836 0.0
C118 C 0.8465 0.08898 0.13568 0.0
N119 N 0.87585 0.09498 0.13762 0.0
N120 N 0.89042 0.07652 0.12253 0.0
C121 C 0.87081 0.05826 0.11041 0.0
C122 C 0.84231 0.06558 0.11833 0.0
C123 C 0.8232 0.10466 0.15076 0.0
H124 H 0.82823 0.09936 0.16931 0.0
H125 H 0.82385 0.13179 0.14836 0.0
H126 H 0.80049 0.09586 0.14645 0.0
O127 O 0.92281 0.09283 0.17918 0.0
O128 O 0.94723 0.06172 0.15375 0.0
H129 H 0.8951 0.01418 0.10238 0.0
H130 H 0.86019 0.0178 0.08701 0.0
C131 C 0.87966 0.03167 0.09364 0.0
H132 H 0.89168 0.04289 0.07876 0.0
H133 H 0.95591 0.00636 0.12411 0.0
O134 O 0.87212 0.14747 0.17971 0.0
C135 C 0.94163 0.07011 0.17461 0.0
Co136 Co 0.88758 0.85934 0.65227 0.0
Co137 Co 0.9258 0.90098 0.61787 0.0
C138 C 0.9242 0.82627 0.61662 0.0
O139 O 0.90365 0.82432 0.63184 0.0
O140 O 0.93528 0.85392 0.61071 0.0
C141 C 0.84416 0.8156 0.67526 0.0
O142 O 0.83883 0.80158 0.65507 0.0
C143 C 0.94797 0.92181 0.57225 0.0
C144 C 0.96163 0.97326 0.5792 0.0
C145 C 0.95926 0.94992 0.56169 0.0
N146 N 0.94323 0.92857 0.59484 0.0
N147 N 0.95171 0.95922 0.59895 0.0
C148 C 0.94321 0.88843 0.56169 0.0
H149 H 0.95616 0.86984 0.57164 0.0
H150 H 0.91929 0.88183 0.56301 0.0
H151 H 0.95062 0.88713 0.54332 0.0
C152 C 0.84076 0.90599 0.63647 0.0
N153 N 0.86828 0.89277 0.63509 0.0
N154 N 0.88387 0.90887 0.61941 0.0
C155 C 0.86635 0.93217 0.60965 0.0
C156 C 0.83852 0.93148 0.62031 0.0
C157 C 0.81876 0.8971 0.65504 0.0
H158 H 0.83061 0.89147 0.67151 0.0
H159 H 0.80644 0.87472 0.64958 0.0
H160 H 0.80262 0.91737 0.65836 0.0
O161 O 0.92022 0.87817 0.67069 0.0
O162 O 0.9447 0.9129 0.6479 0.0
H163 H 0.89096 0.97384 0.59757 0.0
H164 H 0.85674 0.96662 0.58178 0.0
C165 C 0.87607 0.95458 0.59041 0.0
H166 H 0.88854 0.94023 0.57717 0.0
H167 H 0.95026 0.97072 0.61517 0.0
O168 O 0.86206 0.83969 0.67638 0.0
C169 C 0.9404 0.8996 0.66765 0.0
Co170 Co 0.59734 0.11687 0.67395 0.0
Co171 Co 0.56454 0.07351 0.63693 0.0
C172 C 0.55768 0.14694 0.63786 0.0
O173 O 0.57584 0.14989 0.65473 0.0
O174 O 0.55079 0.11892 0.62952 0.0
C175 C 0.63699 0.16658 0.69155 0.0
O176 O 0.63855 0.17612 0.66972 0.0
C177 C 0.5489 0.05146 0.59034 0.0
C178 C 0.5366 -0.00072 0.596 0.0
C179 C 0.54027 0.02297 0.57888 0.0
N180 N 0.5509 0.04472 0.61316 0.0
N181 N 0.54321 0.01362 0.61651 0.0
C182 C 0.55403 0.08506 0.58025 0.0
H183 H 0.53668 0.10218 0.58697 0.0
H184 H 0.57596 0.09453 0.58609 0.0
H185 H 0.55277 0.08525 0.561 0.0
C186 C 0.64996 0.08251 0.65451 0.0
N187 N 0.62049 0.08866 0.65515 0.0
N188 N 0.60705 0.07094 0.6391 0.0
C189 C 0.62781 0.05326 0.62741 0.0
C190 C 0.65566 0.06014 0.63676 0.0
C191 C 0.67188 0.09596 0.67167 0.0
H192 H 0.66158 0.09744 0.68918 0.0
H193 H 0.67847 0.12116 0.66622 0.0
H194 H 0.69217 0.08025 0.67271 0.0
O195 O 0.5686 0.0911 0.69228 0.0
O196 O 0.54519 0.05988 0.66639 0.0
H197 H 0.60625 0.01125 0.61254 0.0
H198 H 0.64169 0.02085 0.5992 0.0
C199 C 0.6212 0.03149 0.607 0.0
H200 H 0.60966 0.04612 0.59343 0.0
H201 H 0.54307 0.00202 0.63273 0.0
O202 O 0.6216 0.1414 0.69672 0.0
C203 C 0.54922 0.06941 0.68726 0.0
Co204 Co 0.38803 0.13657 0.8437 0.0
Co205 Co 0.42103 0.08474 0.87533 0.0
C206 C 0.43397 0.15727 0.87784 0.0
O207 O 0.41474 0.16461 0.86239 0.0
O208 O 0.43852 0.12754 0.88396 0.0
C209 C 0.36464 0.19584 0.82235 0.0
O210 O 0.38174 0.21109 0.83743 0.0
C211 C 0.44025 0.05993 0.91993 0.0
C212 C 0.459 0.01079 0.9117 0.0
C213 C 0.45534 0.03333 0.92967 0.0
N214 N 0.43578 0.05369 0.89728 0.0
N215 N 0.44677 0.02417 0.89243 0.0
C216 C 0.42913 0.09052 0.93178 0.0
H217 H 0.4089 0.09998 0.9228 0.0
H218 H 0.42395 0.08556 0.95034 0.0
H219 H 0.44648 0.10989 0.93081 0.0
C220 C 0.33609 0.10195 0.86162 0.0
N221 N 0.36518 0.10914 0.86296 0.0
N222 N 0.3788 0.08659 0.87563 0.0
C223 C 0.35871 0.06411 0.8826 0.0
C224 C 0.331 0.07287 0.8737 0.0
C225 C 0.3149 0.1189 0.84536 0.0
H226 H 0.31631 0.146 0.84786 0.0
H227 H 0.29162 0.11077 0.84835 0.0
H228 H 0.32134 0.11326 0.82713 0.0
O229 O 0.41121 0.1083 0.82213 0.0
O230 O 0.43561 0.07196 0.84417 0.0
H231 H 0.34724 0.0159 0.89628 0.0
H232 H 0.37858 0.03589 0.90998 0.0
C233 C 0.36705 0.03159 0.89318 0.0
H234 H 0.3828 0.01844 0.88146 0.0
H235 H 0.44673 0.01359 0.87585 0.0
O236 O 0.36293 0.16454 0.82301 0.0
C237 C 0.42893 0.08388 0.82436 0.0
Co238 Co 0.09774 0.86304 0.83542 0.0
Co239 Co 0.06692 0.92109 0.86203 0.0
C240 C 0.05725 0.84826 0.87362 0.0
O241 O 0.07638 0.83781 0.859 0.0
O242 O 0.05127 0.87896 0.87556 0.0
C243 C 0.11771 0.80385 0.81247 0.0
O244 O 0.09763 0.78917 0.82544 0.0
C245 C 0.05953 0.95756 0.90502 0.0
C246 C 0.0306 -0.00063 0.89471 0.0
C247 C 0.04484 0.98515 0.91368 0.0
N248 N 0.05442 0.95574 0.88205 0.0
N249 N 0.03732 0.98093 0.8759 0.0
C250 C 0.07613 0.93166 0.91846 0.0
H251 H 0.06383 0.92529 0.9346 0.0
H252 H 0.07968 0.90922 0.90777 0.0
H253 H 0.09832 0.94126 0.92348 0.0
C254 C 0.1512 0.89966 0.84846 0.0
N255 N 0.12164 0.89508 0.84943 0.0
N256 N 0.10899 0.92048 0.85977 0.0
C257 C 0.13016 0.94271 0.8651 0.0
C258 C 0.15762 0.93011 0.85817 0.0
C259 C 0.1726 0.87563 0.83772 0.0
H260 H 0.17126 0.87762 0.81847 0.0
H261 H 0.16641 0.8501 0.84269 0.0
H262 H 0.19583 0.8805 0.84336 0.0
O263 O 0.06862 0.88363 0.81394 0.0
O264 O 0.04941 0.92819 0.83091 0.0
H265 H 0.10214 0.98589 0.86634 0.0
H266 H 0.14151 0.99442 0.86809 0.0
C267 C 0.12373 0.97706 0.87343 0.0
H268 H 0.1224 0.97705 0.89271 0.0
H269 H 0.02962 0.98503 0.85899 0.0
O270 O 0.12212 0.83454 0.81504 0.0
C271 C 0.05187 0.90906 0.81346 0.0
Co272 Co 0.59918 0.62641 0.33384 0.0
Co273 Co 0.56064 0.57536 0.36157 0.0
C274 C 0.55296 0.65015 0.36564 0.0
O275 O 0.57533 0.65732 0.35298 0.0
O276 O 0.54544 0.62028 0.36914 0.0
C277 C 0.62748 0.68069 0.30972 0.0
O278 O 0.60911 0.69932 0.32183 0.0
C279 C 0.53631 0.55321 0.40526 0.0
C280 C 0.51853 0.50369 0.3974 0.0
C281 C 0.52103 0.52699 0.41496 0.0
N282 N 0.54225 0.54607 0.38296 0.0
N283 N 0.53166 0.51639 0.37829 0.0
C284 C 0.54649 0.58405 0.41714 0.0
H285 H 0.56736 0.59307 0.409 0.0
H286 H 0.55023 0.57964 0.43599 0.0
H287 H 0.52914 0.60346 0.41514 0.0
C288 C 0.64776 0.58815 0.35622 0.0
N289 N 0.6187 0.59479 0.35269 0.0
N290 N 0.60258 0.57317 0.36415 0.0
C291 C 0.62083 0.55185 0.37519 0.0
C292 C 0.65012 0.56071 0.37062 0.0
C293 C 0.67261 0.60766 0.34576 0.0
H294 H 0.66717 0.63438 0.34658 0.0
H295 H 0.694 0.60292 0.35491 0.0
H296 H 0.67506 0.60075 0.32716 0.0
O297 O 0.57141 0.60492 0.31173 0.0
O298 O 0.54755 0.56445 0.32982 0.0
H299 H 0.62861 0.50388 0.39103 0.0
H300 H 0.60022 0.52917 0.40461 0.0
C301 C 0.61026 0.5217 0.38774 0.0
H302 H 0.59284 0.50932 0.37727 0.0
H303 H 0.53311 0.50498 0.36203 0.0
O304 O 0.62788 0.64973 0.3133 0.0
C305 C 0.55317 0.58095 0.31153 0.0
Co306 Co 0.87996 0.36523 0.33183 0.0
Co307 Co 0.91744 0.40389 0.36889 0.0
C308 C 0.92643 0.33192 0.36149 0.0
O309 O 0.90756 0.33171 0.34497 0.0
O310 O 0.93195 0.35804 0.37293 0.0
C311 C 0.84884 0.31162 0.31059 0.0
O312 O 0.85941 0.29501 0.32844 0.0
C313 C 0.94128 0.41972 0.41454 0.0
C314 C 0.95758 0.47069 0.40996 0.0
C315 C 0.95592 0.44511 0.42593 0.0
N316 N 0.93496 0.42968 0.39281 0.0
N317 N 0.94469 0.46018 0.39014 0.0
C318 C 0.93187 0.38714 0.42428 0.0
H319 H 0.91147 0.3784 0.4153 0.0
H320 H 0.92762 0.38902 0.44327 0.0
H321 H 0.94986 0.36874 0.4213 0.0
C322 C 0.83053 0.39649 0.35751 0.0
N323 N 0.85954 0.38878 0.35525 0.0
N324 N 0.87512 0.4059 0.37042 0.0
C325 C 0.85642 0.42516 0.38285 0.0
C326 C 0.82751 0.41991 0.37503 0.0
C327 C 0.80662 0.38355 0.34186 0.0
H328 H 0.80912 0.39473 0.32433 0.0
H329 H 0.80916 0.35643 0.34 0.0
H330 H 0.78407 0.3893 0.34875 0.0
O331 O 0.90282 0.3966 0.31298 0.0
O332 O 0.93218 0.42146 0.33871 0.0
H333 H 0.88288 0.46757 0.3904 0.0
H334 H 0.84791 0.46679 0.40585 0.0
C335 C 0.86663 0.4514 0.39934 0.0
H336 H 0.87808 0.43966 0.41434 0.0
H337 H 0.9428 0.47367 0.37473 0.0
O338 O 0.85305 0.3426 0.3096 0.0
C339 C 0.92333 0.41697 0.3179 0.0
Co340 Co 0.09415 0.37982 0.16748 0.0
Co341 Co 0.0599 0.42496 0.13213 0.0
C342 C 0.05519 0.35092 0.13122 0.0
O343 O 0.07373 0.34735 0.14775 0.0
O344 O 0.04728 0.37928 0.12388 0.0
C345 C 0.12887 0.32676 0.18692 0.0
O346 O 0.12263 0.31167 0.16728 0.0
C347 C 0.04863 0.45128 0.0857 0.0
C348 C 0.01979 0.4944 0.09315 0.0
C349 C 0.03289 0.47679 0.07512 0.0
N350 N 0.04513 0.45393 0.10883 0.0
N351 N 0.02799 0.47982 0.11321 0.0
C352 C 0.06527 0.42361 0.0742 0.0
H353 H 0.06892 0.4029 0.08647 0.0
H354 H 0.08744 0.43252 0.06853 0.0
H355 H 0.05299 0.41481 0.05863 0.0
C356 C 0.14468 0.41869 0.15107 0.0
N357 N 0.11616 0.40926 0.14922 0.0
N358 N 0.10199 0.4292 0.13488 0.0
C359 C 0.1211 0.45258 0.1275 0.0
C360 C 0.14878 0.44663 0.13756 0.0
C361 C 0.16675 0.40304 0.16726 0.0
H362 H 0.16013 0.40826 0.18552 0.0
H363 H 0.16663 0.3759 0.16474 0.0
H364 H 0.18963 0.41237 0.1642 0.0
O365 O 0.06473 0.40463 0.18651 0.0
O366 O 0.04066 0.43722 0.1617 0.0
H367 H 0.09088 0.49299 0.12196 0.0
H368 H 0.12922 0.50228 0.11497 0.0
C369 C 0.11182 0.48294 0.11445 0.0
H370 H 0.10755 0.47636 0.09603 0.0
H371 H 0.02151 0.48721 0.12987 0.0
O372 O 0.1198 0.35618 0.19004 0.0
C373 C 0.0451 0.42664 0.18226 0.0
Co374 Co 0.39145 0.64619 0.14841 0.0
Co375 Co 0.41711 0.5851 0.12144 0.0
C376 C 0.43565 0.65579 0.11142 0.0
O377 O 0.41694 0.66822 0.12562 0.0
O378 O 0.4382 0.62464 0.10887 0.0
C379 C 0.37917 0.70748 0.17182 0.0
O380 O 0.40383 0.71723 0.16165 0.0
C381 C 0.43659 0.54757 0.08079 0.0
C382 C 0.44728 0.49907 0.09642 0.0
C383 C 0.44905 0.51694 0.07592 0.0
N384 N 0.42798 0.54779 0.10318 0.0
N385 N 0.43389 0.51853 0.11231 0.0
C386 C 0.43695 0.5777 0.06572 0.0
H387 H 0.41896 0.59501 0.07107 0.0
H388 H 0.43408 0.57127 0.04712 0.0
H389 H 0.45874 0.59024 0.06773 0.0
C390 C 0.33517 0.61459 0.1357 0.0
N391 N 0.36486 0.61717 0.13358 0.0
N392 N 0.37529 0.59104 0.12266 0.0
C393 C 0.35257 0.57047 0.11796 0.0
C394 C 0.32631 0.58465 0.12627 0.0
C395 C 0.31614 0.639 0.14853 0.0
H396 H 0.32051 0.63682 0.16748 0.0
H397 H 0.32205 0.66441 0.14305 0.0
H398 H 0.2921 0.6348 0.14515 0.0
O399 O 0.41732 0.62216 0.17086 0.0
O400 O 0.43229 0.57644 0.15293 0.0
H401 H 0.37167 0.52242 0.12209 0.0
H402 H 0.3357 0.52221 0.10805 0.0
C403 C 0.35699 0.53575 0.10967 0.0
H404 H 0.36836 0.53608 0.09253 0.0
H405 H 0.43044 0.51252 0.12977 0.0
O406 O 0.36939 0.67872 0.16765 0.0
C407 C 0.43136 0.59477 0.17085 0.0
Co408 Co 0.39976 0.37758 0.66464 0.0
Co409 Co 0.43424 0.42047 0.62833 0.0
C410 C 0.44129 0.34776 0.62857 0.0
O411 O 0.42298 0.34526 0.64548 0.0
O412 O 0.4476 0.3757 0.61975 0.0
C413 C 0.35946 0.32734 0.68282 0.0
O414 O 0.35685 0.31674 0.6613 0.0
C415 C 0.45449 0.45008 0.58413 0.0
C416 C 0.46341 0.50119 0.59563 0.0
C417 C 0.46315 0.48099 0.57617 0.0
N418 N 0.44957 0.45222 0.60718 0.0
N419 N 0.45538 0.48267 0.61397 0.0
C420 C 0.44794 0.41997 0.56996 0.0
H421 H 0.43231 0.40356 0.57937 0.0
H422 H 0.43826 0.42692 0.55285 0.0
H423 H 0.469 0.40618 0.56687 0.0
C424 C 0.34908 0.41803 0.64712 0.0
N425 N 0.37759 0.40749 0.64622 0.0
N426 N 0.39181 0.42381 0.62988 0.0
C427 C 0.37241 0.44413 0.61906 0.0
C428 C 0.34474 0.44175 0.62987 0.0
C429 C 0.32779 0.40849 0.66601 0.0
H430 H 0.34012 0.40241 0.68218 0.0
H431 H 0.31526 0.3863 0.66043 0.0
H432 H 0.3117 0.42868 0.66975 0.0
O433 O 0.4276 0.40204 0.68431 0.0
O434 O 0.45299 0.43157 0.65871 0.0
H435 H 0.39325 0.4863 0.60374 0.0
H436 H 0.35982 0.47308 0.58884 0.0
C437 C 0.38007 0.46458 0.5982 0.0
H438 H 0.39361 0.4497 0.58598 0.0
H439 H 0.45295 0.49107 0.63104 0.0
O440 O 0.37507 0.35272 0.68697 0.0
C441 C 0.44799 0.42259 0.67956 0.0
Co442 Co 0.09078 0.62087 0.65454 0.0
Co443 Co 0.06074 0.5624 0.62845 0.0
C444 C 0.04772 0.63442 0.61714 0.0
O445 O 0.06768 0.64506 0.63097 0.0
O446 O 0.04253 0.6036 0.61512 0.0
C447 C 0.12665 0.67802 0.67052 0.0
O448 O 0.12922 0.68869 0.64902 0.0
C449 C 0.04194 0.52475 0.58774 0.0
C450 C 0.03428 0.4752 0.60264 0.0
C451 C 0.03292 0.493 0.58205 0.0
N452 N 0.04807 0.52561 0.6106 0.0
N453 N 0.04342 0.49598 0.61944 0.0
C454 C 0.04712 0.55325 0.57168 0.0
H455 H 0.06474 0.56953 0.5788 0.0
H456 H 0.05377 0.54452 0.55411 0.0
H457 H 0.02627 0.56794 0.57016 0.0
C458 C 0.14526 0.58468 0.6411 0.0
N459 N 0.1155 0.58844 0.64116 0.0
N460 N 0.10324 0.56431 0.62928 0.0
C461 C 0.12506 0.54464 0.62078 0.0
C462 C 0.15247 0.55699 0.62796 0.0
C463 C 0.16602 0.6058 0.655 0.0
H464 H 0.15616 0.61098 0.67232 0.0
H465 H 0.16924 0.62963 0.64585 0.0
H466 H 0.18798 0.59368 0.65762 0.0
O467 O 0.06245 0.60135 0.67629 0.0
O468 O 0.04393 0.55623 0.66018 0.0
H469 H 0.10863 0.49579 0.61551 0.0
H470 H 0.14062 0.5058 0.59769 0.0
C471 C 0.11966 0.51553 0.60533 0.0
H472 H 0.10454 0.52282 0.59097 0.0
H473 H 0.04657 0.48993 0.63693 0.0
O474 O 0.11279 0.65144 0.67463 0.0
C475 C 0.04593 0.57608 0.67725 0.0
Co476 Co 0.88962 0.64704 0.84416 0.0
Co477 Co 0.92324 0.59248 0.87258 0.0
C478 C 0.93191 0.66538 0.88117 0.0
O479 O 0.91215 0.67374 0.86639 0.0
O480 O 0.93925 0.6353 0.88449 0.0
C481 C 0.8671 0.70531 0.82114 0.0
O482 O 0.88886 0.72047 0.83201 0.0
C483 C 0.94702 0.55778 0.91321 0.0
C484 C 0.9604 0.50987 0.89782 0.0
C485 C 0.96093 0.52796 0.91825 0.0
N486 N 0.93866 0.55724 0.89078 0.0
N487 N 0.9464 0.52844 0.88174 0.0
C488 C 0.94503 0.58794 0.92821 0.0
H489 H 0.96427 0.60413 0.9243 0.0
H490 H 0.92429 0.60184 0.92414 0.0
H491 H 0.94561 0.58183 0.94698 0.0
C492 C 0.83812 0.60869 0.85936 0.0
N493 N 0.86732 0.61545 0.86036 0.0
N494 N 0.88108 0.5922 0.87227 0.0
C495 C 0.86099 0.56944 0.87888 0.0
C496 C 0.83311 0.57907 0.87072 0.0
C497 C 0.81598 0.6286 0.84573 0.0
H498 H 0.82053 0.62559 0.82686 0.0
H499 H 0.81842 0.65512 0.85014 0.0
H500 H 0.79279 0.62082 0.84948 0.0
O501 O 0.91692 0.62554 0.82143 0.0
O502 O 0.93794 0.58431 0.84094 0.0
H503 H 0.88368 0.52305 0.8768 0.0
H504 H 0.84936 0.5216 0.89319 0.0
C505 C 0.86924 0.53673 0.88921 0.0
H506 H 0.88215 0.5407 0.90543 0.0
H507 H 0.9431 0.52195 0.86435 0.0
O508 O 0.86303 0.67477 0.8248 0.0
C509 C 0.93395 0.60034 0.82222 0.0
Co510 Co 0.60788 0.36441 0.84188 0.0
Co511 Co 0.57113 0.41628 0.8707 0.0
C512 C 0.56219 0.34316 0.87566 0.0
O513 O 0.58279 0.33614 0.86131 0.0
O514 O 0.55485 0.37281 0.88022 0.0
C515 C 0.63792 0.30572 0.82545 0.0
O516 O 0.6243 0.29109 0.84283 0.0
C517 C 0.55675 0.44686 0.91493 0.0
C518 C 0.52805 0.48894 0.90477 0.0
C519 C 0.53985 0.47265 0.92395 0.0
N520 N 0.55511 0.44802 0.89161 0.0
N521 N 0.53814 0.47336 0.88559 0.0
C522 C 0.57244 0.41993 0.92801 0.0
H523 H 0.55854 0.41135 0.94279 0.0
H524 H 0.57787 0.39892 0.9164 0.0
H525 H 0.5937 0.42954 0.93507 0.0
C526 C 0.65763 0.40171 0.86043 0.0
N527 N 0.6286 0.39411 0.86057 0.0
N528 N 0.61357 0.41722 0.87165 0.0
C529 C 0.63271 0.44093 0.8784 0.0
C530 C 0.66126 0.43188 0.87139 0.0
C531 C 0.6807 0.38276 0.84706 0.0
H532 H 0.6785 0.35604 0.85086 0.0
H533 H 0.70355 0.39092 0.85161 0.0
H534 H 0.67697 0.38644 0.82813 0.0
O535 O 0.58382 0.38971 0.81896 0.0
O536 O 0.557 0.42634 0.83898 0.0
H537 H 0.64122 0.49255 0.88598 0.0
H538 H 0.61625 0.47189 0.90564 0.0
C539 C 0.62307 0.47413 0.88716 0.0
H540 H 0.60354 0.483 0.87705 0.0
H541 H 0.53276 0.47944 0.86843 0.0
O542 O 0.63498 0.3367 0.82283 0.0
C543 C 0.56491 0.41321 0.81983 0.0
H544 H 0.93379 0.07779 0.22168 0.0
H545 H 0.99035 0.02972 0.17041 0.0
H546 H 0.02488 0.01267 0.20146 0.0
H547 H 0.98829 0.11217 0.2534 0.0
H548 H 0.9718 0.1063 0.28171 0.0
H549 H 0.94841 0.1088 0.25642 0.0
H550 H 0.92537 0.05202 0.26647 0.0
H551 H 0.94872 0.04938 0.29196 0.0
H552 H 0.94938 0.0167 0.27066 0.0
H553 H 0.05851 0.01266 0.23563 0.0
H554 H 0.08662 0.02582 0.27154 0.0
H555 H 0.00719 0.06923 0.30166 0.0
C556 C 0.95293 0.06277 0.21708 0.0
C557 C 0.95938 0.05521 0.19361 0.0
C558 C 0.98484 0.03579 0.18827 0.0
C559 C 0.00459 0.02585 0.20581 0.0
C560 C -0.00177 0.03484 0.22868 0.0
C561 C 0.97269 0.05229 0.23444 0.0
C562 C 0.97257 0.06175 0.25994 0.0
C563 C 0.97015 0.09947 0.26303 0.0
C564 C 0.94752 0.04388 0.27303 0.0
C565 C 0.0029 0.04883 0.2672 0.0
C566 C 0.01723 0.03304 0.24897 0.0
C567 C 0.04717 0.0237 0.25035 0.0
C568 C 0.06298 0.03126 0.2707 0.0
C569 C 0.0486 0.04741 0.28938 0.0
C570 C 0.0181 0.05547 0.28787 0.0
H571 H 0.51639 0.90398 0.18721 0.0
H572 H 0.60567 0.90708 0.21597 0.0
H573 H 0.58493 0.92193 0.25451 0.0
H574 H 0.48247 0.96963 0.22289 0.0
H575 H 0.44803 0.94748 0.22649 0.0
H576 H 0.46993 0.94181 0.20047 0.0
H577 H 0.47163 0.87862 0.20783 0.0
H578 H 0.44952 0.8842 0.23365 0.0
H579 H 0.48504 0.86337 0.23541 0.0
H580 H 0.55461 0.93408 0.28996 0.0
H581 H 0.51685 0.93469 0.32121 0.0
H582 H 0.44727 0.91927 0.26988 0.0
C583 C 0.53149 0.90846 0.20158 0.0
C584 C 0.56254 0.90499 0.19876 0.0
C585 C 0.58177 0.9099 0.21794 0.0
C586 C 0.57023 0.91855 0.23977 0.0
C587 C 0.53943 0.92165 0.24208 0.0
C588 C 0.52028 0.91622 0.22361 0.0
C589 C 0.48806 0.91716 0.23135 0.0
C590 C 0.47113 0.94573 0.2196 0.0
C591 C 0.47268 0.88386 0.2268 0.0
C592 C 0.49213 0.92343 0.25711 0.0
C593 C 0.52188 0.92678 0.26284 0.0
C594 C 0.53122 0.93168 0.28571 0.0
C595 C 0.50962 0.93214 0.30331 0.0
C596 C 0.4792 0.92701 0.29792 0.0
C597 C 0.47038 0.92336 0.27447 0.0
H598 H 0.95973 0.85849 0.70152 0.0
H599 H 0.96286 0.9605 0.6789 0.0
H600 H 0.99073 0.97514 0.7148 0.0
H601 H 0.95016 0.87252 0.76187 0.0
H602 H 0.97412 0.83894 0.77072 0.0
H603 H 0.95451 0.8368 0.74343 0.0
H604 H 0.00424 0.82747 0.72144 0.0
H605 H 0.02408 0.82903 0.74866 0.0
H606 H 0.03427 0.85638 0.72525 0.0
H607 H 0.01537 0.97844 0.75494 0.0
H608 H 0.04097 0.96887 0.79272 0.0
H609 H 0.02449 0.86393 0.78633 0.0
C610 C 0.96637 0.88391 0.70411 0.0
C611 C 0.95907 0.90849 0.6877 0.0
C612 C 0.96842 0.94138 0.69137 0.0
C613 C 0.98402 0.94989 0.71172 0.0
C614 C 0.99046 0.92502 0.72781 0.0
C615 C 0.98242 0.89259 0.72391 0.0
C616 C 0.99287 0.87012 0.74326 0.0
C617 C 0.96633 0.85365 0.75554 0.0
C618 C 0.0152 0.84424 0.7341 0.0
C619 C 0.00788 0.89497 0.75886 0.0
C620 C 0.00592 0.92661 0.74993 0.0
C621 C 0.01734 0.95372 0.76193 0.0
C622 C 0.03164 0.94814 0.78336 0.0
C623 C 0.03481 0.91569 0.79213 0.0
C624 C 0.02262 0.88894 0.77978 0.0
H625 H 0.55934 0.07017 0.73408 0.0
H626 H 0.49297 0.04471 0.68225 0.0
H627 H 0.45575 0.03701 0.71339 0.0
H628 H 0.53021 0.01308 0.78139 0.0
H629 H 0.53916 0.04284 0.80362 0.0
H630 H 0.56183 0.03987 0.77777 0.0
H631 H 0.55334 0.10222 0.77001 0.0
H632 H 0.53042 0.10534 0.79554 0.0
H633 H 0.51578 0.11793 0.76768 0.0
H634 H 0.42378 0.04509 0.74839 0.0
H635 H 0.40058 0.06182 0.78571 0.0
H636 H 0.48801 0.07758 0.81548 0.0
C637 C 0.53723 0.06187 0.72937 0.0
C638 C 0.52898 0.05805 0.70581 0.0
C639 C 0.49982 0.04748 0.70023 0.0
C640 C 0.47853 0.04308 0.7178 0.0
C641 C 0.48702 0.04853 0.74082 0.0
C642 C 0.5159 0.05688 0.74671 0.0
C643 C 0.5187 0.06422 0.77246 0.0
C644 C 0.53866 0.03846 0.78452 0.0
C645 C 0.53022 0.09952 0.77664 0.0
C646 C 0.48654 0.0607 0.77989 0.0
C647 C 0.46863 0.05141 0.76141 0.0
C648 C 0.43763 0.05113 0.7632 0.0
C649 C 0.42465 0.0608 0.78433 0.0
C650 C 0.4427 0.07007 0.80337 0.0
C651 C 0.47395 0.06937 0.8013 0.0
H652 H 0.53517 0.6266 0.28013 0.0
H653 H 0.53132 0.52191 0.2955 0.0
H654 H 0.50029 0.51326 0.26024 0.0
H655 H 0.45966 0.63393 0.26264 0.0
H656 H 0.46702 0.66431 0.24048 0.0
H657 H 0.49085 0.66149 0.26562 0.0
H658 H 0.53694 0.65388 0.23888 0.0
H659 H 0.51328 0.65691 0.21363 0.0
H660 H 0.53711 0.62136 0.21745 0.0
H661 H 0.47048 0.51669 0.2225 0.0
H662 H 0.4409 0.53238 0.18768 0.0
H663 H 0.46091 0.63545 0.20029 0.0
C664 C 0.52821 0.60175 0.27587 0.0
C665 C 0.53597 0.57478 0.29018 0.0
C666 C 0.52573 0.54279 0.28453 0.0
C667 C 0.50819 0.53769 0.26459 0.0
C668 C 0.50073 0.56499 0.25091 0.0
C669 C 0.51018 0.59642 0.25651 0.0
C670 C 0.49764 0.622 0.24002 0.0
C671 C 0.4776 0.64689 0.25297 0.0
C672 C 0.52274 0.63956 0.2267 0.0
C673 C 0.47967 0.6001 0.22413 0.0
C674 C 0.48204 0.56723 0.2304 0.0
C675 C 0.46823 0.54238 0.21759 0.0
C676 C 0.45154 0.55146 0.1979 0.0
C677 C 0.44837 0.5851 0.19165 0.0
C678 C 0.46254 0.6096 0.205 0.0
H679 H 0.98278 0.41741 0.31017 0.0
H680 H 0.89828 0.44934 0.28137 0.0
H681 H 0.92357 0.46616 0.24504 0.0
H682 H 0.03301 0.47805 0.278 0.0
H683 H 0.06084 0.4464 0.27363 0.0
H684 H 0.038 0.44602 0.29946 0.0
H685 H 0.02179 0.3862 0.28995 0.0
H686 H 0.04421 0.38649 0.26408 0.0
H687 H 0.00498 0.3775 0.26211 0.0
H688 H 0.95588 0.47065 0.21016 0.0
H689 H 0.99156 0.45889 0.17855 0.0
H690 H 0.05445 0.41978 0.22907 0.0
C691 C 0.97 0.42948 0.29659 0.0
C692 C 0.93887 0.43304 0.29857 0.0
C693 C 0.92231 0.44716 0.28015 0.0
C694 C 0.9365 0.45685 0.25955 0.0
C695 C 0.96717 0.45181 0.25765 0.0
C696 C 0.98376 0.4384 0.27569 0.0
C697 C 0.01508 0.42987 0.26784 0.0
C698 C 0.03809 0.45138 0.28048 0.0
C699 C 0.02188 0.39283 0.27118 0.0
C700 C 0.01301 0.43891 0.24234 0.0
C701 C 0.98556 0.45256 0.23698 0.0
C702 C 0.97765 0.46055 0.2142 0.0
C703 C -0.00195 0.4537 0.19635 0.0
C704 C 0.02573 0.43833 0.20137 0.0
C705 C 0.03349 0.43166 0.22473 0.0
H706 H 0.50602 0.41672 0.80929 0.0
H707 H 0.59418 0.43352 0.78115 0.0
H708 H 0.57206 0.44774 0.74292 0.0
H709 H 0.48087 0.37377 0.76156 0.0
H710 H 0.44295 0.38859 0.76273 0.0
H711 H 0.46493 0.38697 0.78885 0.0
H712 H 0.45502 0.44931 0.79584 0.0
H713 H 0.43299 0.4511 0.76962 0.0
H714 H 0.46403 0.47867 0.77336 0.0
H715 H 0.54107 0.45448 0.70714 0.0
H716 H 0.5046 0.44672 0.67543 0.0
H717 H 0.43701 0.42123 0.72631 0.0
C718 C 0.52044 0.4245 0.79521 0.0
C719 C 0.55161 0.42486 0.79802 0.0
C720 C 0.57016 0.43366 0.77917 0.0
C721 C 0.55779 0.44193 0.75753 0.0
C722 C 0.5269 0.44077 0.75506 0.0
C723 C 0.50847 0.43193 0.77334 0.0
C724 C 0.47663 0.42755 0.76527 0.0
C725 C 0.46573 0.39213 0.76987 0.0
C726 C 0.45595 0.4532 0.7767 0.0
C727 C 0.48022 0.43421 0.7395 0.0
C728 C 0.50918 0.44275 0.73407 0.0
C729 C 0.51823 0.4482 0.71119 0.0
C730 C 0.49736 0.4438 0.6933 0.0
C731 C 0.46803 0.43333 0.69844 0.0
C732 C 0.45925 0.42938 0.72188 0.0
H733 H 0.95639 0.63912 0.78782 0.0
H734 H 0.94673 0.53706 0.80913 0.0
H735 H 0.97257 0.5188 0.7732 0.0
H736 H 0.94736 0.62774 0.72614 0.0
H737 H 0.97564 0.65734 0.71864 0.0
H738 H 0.95488 0.66197 0.74529 0.0
H739 H 0.00426 0.66286 0.76883 0.0
H740 H 0.02506 0.65844 0.74222 0.0
H741 H 0.03052 0.62935 0.76559 0.0
H742 H -0.00141 0.51209 0.73404 0.0
H743 H 0.02741 0.51793 0.69732 0.0
H744 H 0.02294 0.62446 0.70428 0.0
C745 C 0.95951 0.61294 0.78478 0.0
C746 C 0.94937 0.58942 0.80096 0.0
C747 C 0.95436 0.55539 0.79678 0.0
C748 C 0.96887 0.54482 0.77644 0.0
C749 C 0.97866 0.56868 0.76077 0.0
C750 C 0.97457 0.60205 0.76493 0.0
C751 C 0.98878 0.62284 0.7462 0.0
C752 C 0.96525 0.64369 0.7333 0.0
C753 C 0.01363 0.64464 0.75632 0.0
C754 C 0.00135 0.59599 0.73077 0.0
C755 C 0.99499 0.56488 0.73918 0.0
C756 C 0.00391 0.53634 0.72737 0.0
C757 C 0.02012 0.53982 0.70657 0.0
C758 C 0.0276 0.57157 0.69824 0.0
C759 C 0.01788 0.59984 0.71047 0.0
H760 H 0.1396 0.16926 0.26562 0.0
H761 H 0.15679 0.23509 0.32364 0.0
H762 H 0.16608 0.28061 0.29605 0.0
H763 H 0.19303 0.20861 0.22287 0.0
H764 H 0.16735 0.20207 0.1992 0.0
H765 H 0.16886 0.1732 0.22307 0.0
H766 H 0.11217 0.18127 0.22983 0.0
H767 H 0.1105 0.21019 0.2062 0.0
H768 H 0.09765 0.22229 0.2347 0.0
H769 H 0.16393 0.3207 0.26313 0.0
H770 H 0.15072 0.35191 0.22768 0.0
H771 H 0.13509 0.25993 0.19107 0.0
C772 C 0.14633 0.19294 0.27253 0.0
C773 C 0.14754 0.19861 0.29678 0.0
C774 C 0.15587 0.23013 0.30512 0.0
C775 C 0.1613 0.25611 0.28957 0.0
C776 C 0.15866 0.25003 0.26576 0.0
C777 C 0.15169 0.21908 0.25727 0.0
C778 C 0.14637 0.21985 0.23126 0.0
C779 C 0.17034 0.19974 0.21834 0.0
C780 C 0.11481 0.20771 0.22517 0.0
C781 C 0.14973 0.25639 0.22662 0.0
C782 C 0.15745 0.2733 0.24664 0.0
C783 C 0.1586 0.30766 0.24723 0.0
C784 C 0.15093 0.32519 0.22703 0.0
C785 C 0.14203 0.30831 0.2066 0.0
C786 C 0.14239 0.27348 0.20627 0.0
H787 H 0.39507 0.76953 0.18591 0.0
H788 H 0.33317 0.69025 0.20073 0.0
H789 H 0.31596 0.71995 0.23577 0.0
H790 H 0.41822 0.78192 0.24171 0.0
H791 H 0.42122 0.8262 0.24004 0.0
H792 H 0.42507 0.80174 0.21413 0.0
H793 H 0.38259 0.83495 0.19435 0.0
H794 H 0.37879 0.85987 0.2202 0.0
H795 H 0.34689 0.83856 0.20857 0.0
H796 H 0.312 0.75333 0.27261 0.0
H797 H 0.31998 0.78922 0.30693 0.0
H798 H 0.3824 0.84782 0.26692 0.0
C799 C 0.37729 0.75884 0.19614 0.0
C800 C 0.3655 0.72757 0.19056 0.0
C801 C 0.3425 0.71425 0.20458 0.0
C802 C 0.33252 0.73096 0.22453 0.0
C803 C 0.34536 0.76123 0.22999 0.0
C804 C 0.36693 0.7753 0.21598 0.0
C805 C 0.37901 0.80663 0.22668 0.0
C806 C 0.41286 0.80393 0.23089 0.0
C807 C 0.37134 0.83679 0.21155 0.0
C808 C 0.36183 0.80721 0.24934 0.0
C809 C 0.34234 0.78101 0.25092 0.0
C810 C 0.32658 0.77445 0.27135 0.0
C811 C 0.33128 0.79489 0.29077 0.0
C812 C 0.35146 0.82157 0.28953 0.0
C813 C 0.36623 0.82815 0.2683 0.0
H814 H 0.63032 0.74546 0.29613 0.0
H815 H 0.65949 0.64696 0.27664 0.0
H816 H 0.67783 0.66852 0.23918 0.0
H817 H 0.60152 0.76724 0.24389 0.0
H818 H 0.61298 0.80982 0.24438 0.0
H819 H 0.60748 0.78805 0.27124 0.0
H820 H 0.66137 0.80206 0.284 0.0
H821 H 0.66701 0.82405 0.25708 0.0
H822 H 0.6922 0.79127 0.26531 0.0
H823 H 0.68336 0.69831 0.20112 0.0
H824 H 0.67817 0.73475 0.16675 0.0
H825 H 0.64842 0.81435 0.21172 0.0
C826 C 0.64144 0.7286 0.28432 0.0
C827 C 0.64342 0.69453 0.28936 0.0
C828 C 0.65779 0.67321 0.27326 0.0
C829 C 0.66835 0.68524 0.25191 0.0
C830 C 0.66496 0.71876 0.24707 0.0
C831 C 0.65233 0.74026 0.26303 0.0
C832 C 0.64865 0.77448 0.2528 0.0
C833 C 0.61571 0.78551 0.25309 0.0
C834 C 0.6685 0.79944 0.26556 0.0
C835 C 0.65964 0.76844 0.22823 0.0
C836 C 0.66927 0.73625 0.22529 0.0
C837 C 0.67677 0.72385 0.20336 0.0
C838 C 0.67372 0.74467 0.18392 0.0
C839 C 0.66344 0.77753 0.18659 0.0
C840 C 0.65726 0.78969 0.20916 0.0
H841 H 0.85314 0.24554 0.30169 0.0
H842 H 0.82236 0.33792 0.27173 0.0
H843 H 0.81431 0.30994 0.23408 0.0
H844 H 0.89571 0.22236 0.25609 0.0
H845 H 0.8884 0.1787 0.25771 0.0
H846 H 0.88533 0.20373 0.2834 0.0
H847 H 0.83093 0.18425 0.28942 0.0
H848 H 0.83392 0.1588 0.26376 0.0
H849 H 0.80429 0.18883 0.26613 0.0
H850 H 0.81835 0.27475 0.19837 0.0
H851 H 0.83319 0.23502 0.16782 0.0
H852 H 0.86135 0.16564 0.22113 0.0
C853 C 0.84359 0.25963 0.28749 0.0
C854 C 0.83819 0.29387 0.2897 0.0
C855 C 0.82649 0.31162 0.27048 0.0
C856 C 0.82178 0.2959 0.24903 0.0
C857 C 0.82865 0.2624 0.24714 0.0
C858 C 0.83899 0.24438 0.26596 0.0
C859 C 0.84825 0.20986 0.25876 0.0
C860 C 0.88137 0.20332 0.26431 0.0
C861 C 0.82814 0.1839 0.2702 0.0
C862 C 0.84282 0.21177 0.23279 0.0
C863 C 0.83104 0.24206 0.22645 0.0
C864 C 0.82691 0.25067 0.20316 0.0
C865 C 0.8355 0.22798 0.18592 0.0
C866 C 0.84824 0.19713 0.19207 0.0
C867 C 0.85118 0.18876 0.21584 0.0
H868 H 0.87474 0.7683 0.8051 0.0
H869 H 0.82424 0.67889 0.7928 0.0
H870 H 0.80498 0.70242 0.75617 0.0
H871 H 0.81946 0.82726 0.77662 0.0
H872 H 0.84942 0.85173 0.76499 0.0
H873 H 0.85392 0.83092 0.79253 0.0
H874 H 0.90165 0.80214 0.77695 0.0
H875 H 0.89716 0.82259 0.74946 0.0
H876 H 0.89963 0.77819 0.75053 0.0
H877 H 0.79976 0.73046 0.7175 0.0
H878 H 0.80778 0.76163 0.68103 0.0
H879 H 0.85993 0.83351 0.71925 0.0
C880 C 0.85879 0.75413 0.79514 0.0
C881 C 0.85105 0.72177 0.80182 0.0
C882 C 0.83048 0.7038 0.78809 0.0
C883 C 0.81931 0.717 0.76726 0.0
C884 C 0.82848 0.74842 0.7606 0.0
C885 C 0.84738 0.767 0.77436 0.0
C886 C 0.8566 0.79841 0.76215 0.0
C887 C 0.84409 0.82888 0.77483 0.0
C888 C 0.89076 0.8004 0.75962 0.0
C889 C 0.8415 0.79358 0.73886 0.0
C890 C 0.82492 0.76494 0.73838 0.0
C891 C 0.81197 0.75342 0.71783 0.0
C892 C 0.8167 0.77123 0.69718 0.0
C893 C 0.83435 0.80009 0.69727 0.0
C894 C 0.84593 0.81184 0.71859 0.0
H895 H 0.63192 0.23956 0.81786 0.0
H896 H 0.67255 0.32777 0.7895 0.0
H897 H 0.6855 0.29725 0.75371 0.0
H898 H 0.68319 0.17712 0.78801 0.0
H899 H 0.65237 0.1495 0.7834 0.0
H900 H 0.65316 0.17557 0.80884 0.0
H901 H 0.60126 0.19914 0.79778 0.0
H902 H 0.60042 0.17352 0.77231 0.0
H903 H 0.59599 0.21759 0.76949 0.0
H904 H 0.68465 0.26128 0.71851 0.0
H905 H 0.67074 0.22256 0.68718 0.0
H906 H 0.63064 0.15776 0.73841 0.0
C907 C 0.64466 0.25207 0.80455 0.0
C908 C 0.65135 0.28596 0.8065 0.0
C909 C 0.66731 0.30174 0.7884 0.0
C910 C 0.67487 0.28456 0.76804 0.0
C911 C 0.66657 0.25156 0.76614 0.0
C912 C 0.65215 0.23533 0.78406 0.0
C913 C 0.64192 0.20141 0.77652 0.0
C914 C 0.65867 0.1743 0.78999 0.0
C915 C 0.6079 0.19774 0.77917 0.0
C916 C 0.65118 0.20193 0.7512 0.0
C917 C 0.66598 0.23071 0.74565 0.0
C918 C 0.67377 0.23828 0.72276 0.0
C919 C 0.66566 0.2162 0.70505 0.0
C920 C 0.64969 0.1871 0.71035 0.0
C921 C 0.64323 0.17955 0.73381 0.0
H922 H 0.36997 0.33773 0.72904 0.0
H923 H 0.32581 0.27081 0.68132 0.0
H924 H 0.3148 0.2333 0.71414 0.0
H925 H 0.40713 0.27875 0.75942 0.0
H926 H 0.40449 0.2984 0.78751 0.0
H927 H 0.40332 0.32298 0.76152 0.0
H928 H 0.35275 0.34824 0.77429 0.0
H929 H 0.3538 0.3238 0.80051 0.0
H930 H 0.3221 0.32141 0.78131 0.0
H931 H 0.31547 0.19948 0.75081 0.0
H932 H 0.32878 0.17174 0.78766 0.0
H933 H 0.37324 0.26069 0.81104 0.0
C934 C 0.35714 0.31571 0.72553 0.0
C935 C 0.34859 0.3073 0.7026 0.0
C936 C 0.33242 0.27787 0.69875 0.0
C937 C 0.32598 0.25648 0.71731 0.0
C938 C 0.3357 0.26499 0.73959 0.0
C939 C 0.35079 0.29406 0.74376 0.0
C940 C 0.36207 0.29576 0.76857 0.0
C941 C 0.39626 0.29915 0.76927 0.0
C942 C 0.34675 0.32398 0.78196 0.0
C943 C 0.35214 0.26245 0.77747 0.0
C944 C 0.33643 0.24532 0.76067 0.0
C945 C 0.32725 0.21289 0.76423 0.0
C946 C 0.33497 0.19731 0.78522 0.0
C947 C 0.35199 0.21407 0.80228 0.0
C948 C 0.35984 0.24736 0.79853 0.0
H949 H 0.11581 0.66609 0.71632 0.0
H950 H 0.15814 0.73631 0.66997 0.0
H951 H 0.16824 0.77277 0.70364 0.0
H952 H 0.07698 0.72269 0.74768 0.0
H953 H 0.07995 0.70176 0.77529 0.0
H954 H 0.0818 0.6785 0.74873 0.0
H955 H 0.13285 0.65404 0.76111 0.0
H956 H 0.13118 0.67723 0.78787 0.0
H957 H 0.16287 0.68135 0.76883 0.0
H958 H 0.1677 0.80437 0.74136 0.0
H959 H 0.15392 0.82995 0.77882 0.0
H960 H 0.11009 0.73937 0.79971 0.0
C961 C 0.12799 0.68868 0.71323 0.0
C962 C 0.13639 0.69828 0.69051 0.0
C963 C 0.15169 0.72838 0.68724 0.0
C964 C 0.15763 0.74914 0.70628 0.0
C965 C 0.1482 0.73929 0.72837 0.0
C966 C 0.13373 0.70969 0.73188 0.0
C967 C 0.12239 0.70649 0.75657 0.0
C968 C 0.08827 0.70214 0.75708 0.0
C969 C 0.13828 0.67809 0.76935 0.0
C970 C 0.13155 0.7396 0.76624 0.0
C971 C 0.14708 0.75784 0.74993 0.0
C972 C 0.15596 0.79012 0.75437 0.0
C973 C 0.14798 0.80444 0.77571 0.0
C974 C 0.13085 0.78665 0.79219 0.0
C975 C 0.1234 0.7535 0.78759 0.0
H976 H 0.05438 0.01574 0.45425 0.0
H977 H 0.99008 0.96863 0.40896 0.0
H978 H 0.96107 0.95081 0.44335 0.0
H979 H 0.05392 0.95351 0.49827 0.0
H980 H 0.05772 0.9821 0.52212 0.0
H981 H 0.07263 0.99232 0.49395 0.0
H982 H 0.04175 0.04658 0.49365 0.0
H983 H 0.02677 0.03655 0.52187 0.0
H984 H 0.00197 0.04487 0.49786 0.0
H985 H 0.93879 0.93924 0.4824 0.0
H986 H 0.92635 0.93112 0.52388 0.0
H987 H 0.00658 0.9833 0.54383 0.0
C988 C 0.03394 0.00209 0.45168 0.0
C989 C 0.02397 0.99397 0.42914 0.0
C990 C -0.00224 0.9752 0.42622 0.0
C991 C 0.98117 0.96512 0.44558 0.0
C992 C 0.99141 0.97373 0.46764 0.0
C993 C 0.01729 0.99157 0.47082 0.0
C994 C 0.024 0.99644 0.4964 0.0
C995 C 0.05383 0.98011 0.50307 0.0
C996 C 0.02358 0.0333 0.50282 0.0
C997 C -0.0021 0.97845 0.5071 0.0
C998 C 0.97926 0.96578 0.4902 0.0
C999 C 0.95346 0.94856 0.49581 0.0
C1000 C 0.94677 0.94373 0.51937 0.0
C1001 C 0.96615 0.95547 0.53693 0.0
C1002 C 0.99168 0.9736 0.53069 0.0
H1003 H 0.46295 0.96596 0.46085 0.0
H1004 H 0.53935 0.00571 0.42436 0.0
H1005 H 0.56272 0.01999 0.46203 0.0
H1006 H 0.46003 0.02674 0.50494 0.0
H1007 H 0.4493 -0.00126 0.52781 0.0
H1008 H 0.43939 0.98992 0.49809 0.0
H1009 H 0.46559 0.93289 0.50097 0.0
H1010 H 0.47545 0.94146 0.53077 0.0
H1011 H 0.50403 0.93069 0.51001 0.0
H1012 H 0.57717 0.03074 0.5033 0.0
H1013 H 0.58121 0.03899 0.54583 0.0
H1014 H 0.49511 0.99285 0.55548 0.0
C1015 C 0.48492 0.97689 0.46088 0.0
C1016 C 0.49981 0.98405 0.43988 0.0
C1017 C 0.52789 -0.00026 0.4404 0.0
C1018 C 0.5413 0.00783 0.46165 0.0
C1019 C 0.52615 0.00025 0.48211 0.0
C1020 C 0.49857 0.98519 0.48193 0.0
C1021 C 0.48646 0.98106 0.50635 0.0
C1022 C 0.45706 0.00027 0.50947 0.0
C1023 C 0.48267 0.94434 0.51238 0.0
C1024 C 0.51144 0.99643 0.52026 0.0
C1025 C 0.53417 0.00718 0.50594 0.0
C1026 C 0.55946 0.0226 0.5147 0.0
C1027 C 0.56143 0.02746 0.53878 0.0
C1028 C 0.53809 0.01731 0.55366 0.0
C1029 C 0.51308 0.00106 0.54434 0.0
H1030 H 0.46158 0.97721 0.95571 0.0
H1031 H 0.48041 0.0822 0.9562 0.0
H1032 H 0.50217 0.07711 0.99528 0.0
H1033 H 0.44317 0.96919 0.01655 0.0
H1034 H 0.46128 0.92963 0.01977 0.0
H1035 H 0.44608 0.94165 0.99199 0.0
H1036 H 0.49761 0.93176 0.97275 0.0
H1037 H 0.51301 0.9199 0.00051 0.0
H1038 H 0.52987 0.95275 0.98404 0.0
H1039 H 0.52148 0.06113 0.03425 0.0
H1040 H 0.53877 0.0346 0.07054 0.0
H1041 H 0.5094 0.93956 0.04457 0.0
C1042 C 0.47014 -0.00088 0.96414 0.0
C1043 C 0.46821 0.03033 0.95327 0.0
C1044 C 0.48019 0.05834 0.9646 0.0
C1045 C 0.49304 0.05562 0.98671 0.0
C1046 C 0.49418 0.02463 0.9971 0.0
C1047 C 0.48324 0.99681 0.9862 0.0
C1048 C 0.48783 0.96634 0.00111 0.0
C1049 C 0.4578 0.9508 0.00775 0.0
C1050 C 0.5083 0.94121 0.98887 0.0
C1051 C 0.50301 0.98149 0.02207 0.0
C1052 C 0.50636 0.01516 0.01938 0.0
C1053 C 0.51916 0.03475 0.03654 0.0
C1054 C 0.52883 0.0195 0.05707 0.0
C1055 C 0.52589 0.98501 0.06014 0.0
C1056 C 0.51272 0.96581 0.04242 0.0
H1057 H 0.95156 0.02978 0.02711 0.0
H1058 H 0.0317 0.01031 0.06703 0.0
H1059 H 0.06021 0.00282 0.0305 0.0
H1060 H 0.96485 0.96943 0.98421 0.0
H1061 H 0.94976 0.99333 0.96047 0.0
H1062 H 0.93643 0.0001 0.98963 0.0
H1063 H 0.94971 0.06214 0.98635 0.0
H1064 H 0.96314 0.05553 0.95713 0.0
H1065 H 0.98715 0.07386 0.97866 0.0
H1066 H 0.07941 0.99581 0.98994 0.0
H1067 H 0.08736 0.98558 0.94805 0.0
H1068 H 0.99422 0.00763 0.9346 0.0
C1069 C 0.97526 0.02472 0.02804 0.0
C1070 C 0.98975 0.02125 0.04967 0.0
C1071 C 0.02045 0.01329 0.05047 0.0
C1072 C 0.03677 0.0092 0.02988 0.0
C1073 C 0.02191 0.01292 0.00875 0.0
C1074 C 0.99181 0.02029 0.00766 0.0
C1075 C 0.98074 0.02053 0.98277 0.0
C1076 C 0.95652 0.99428 0.97906 0.0
C1077 C 0.96953 0.05508 0.97582 0.0
C1078 C 0.00922 0.01163 0.97008 0.0
C1079 C 0.03277 0.00776 0.98536 0.0
C1080 C 0.06112 -0.00139 0.9778 0.0
C1081 C 0.06534 0.99248 0.95403 0.0
C1082 C 0.04123 0.99503 0.93824 0.0
C1083 C 0.01305 0.00556 0.94632 0.0
H1084 H 0.52288 0.47457 0.44495 0.0
H1085 H 0.48947 0.57469 0.43761 0.0
H1086 H 0.46976 0.57281 0.47765 0.0
H1087 H 0.46105 0.44369 0.48023 0.0
H1088 H 0.48473 0.41819 0.49819 0.0
H1089 H 0.49508 0.42667 0.46847 0.0
H1090 H 0.54587 0.4495 0.48247 0.0
H1091 H 0.5357 0.44109 0.5122 0.0
H1092 H 0.54656 0.48217 0.50378 0.0
H1093 H 0.45587 0.56138 0.51862 0.0
H1094 H 0.44753 0.54057 0.5584 0.0
H1095 H 0.49018 0.44784 0.53974 0.0
C1096 C 0.51115 0.4959 0.45179 0.0
C1097 C 0.50809 0.52498 0.43847 0.0
C1098 C 0.49269 0.55251 0.44783 0.0
C1099 C 0.4812 0.55156 0.47044 0.0
C1100 C 0.48515 0.52282 0.48337 0.0
C1101 C 0.49964 0.49542 0.47444 0.0
C1102 C 0.5017 0.4681 0.4924 0.0
C1103 C 0.48462 0.43734 0.48434 0.0
C1104 C 0.5344 0.45974 0.49805 0.0
C1105 C 0.48634 0.4846 0.51284 0.0
C1106 C 0.47688 0.5161 0.50716 0.0
C1107 C 0.46293 0.53665 0.52325 0.0
C1108 C 0.45844 0.52468 0.54581 0.0
C1109 C 0.46777 0.49242 0.55204 0.0
C1110 C 0.48199 0.47221 0.53532 0.0
H1111 H 0.00117 0.52455 0.54753 0.0
H1112 H 0.04257 0.43091 0.56549 0.0
H1113 H 0.02678 0.40793 0.5276 0.0
H1114 H 0.93834 0.49185 0.51761 0.0
H1115 H 0.93787 0.52352 0.49557 0.0
H1116 H 0.95226 0.53249 0.52414 0.0
H1117 H 0.00222 0.55149 0.506 0.0
H1118 H 0.98792 0.54278 0.47736 0.0
H1119 H 0.0223 0.52395 0.4869 0.0
H1120 H 0.00725 0.39562 0.4876 0.0
H1121 H 0.98517 0.39465 0.44828 0.0
H1122 H 0.95701 0.49661 0.45642 0.0
C1123 C 0.00757 0.49948 0.54333 0.0
C1124 C 0.02374 0.47973 0.55921 0.0
C1125 C 0.03036 0.44651 0.55346 0.0
C1126 C 0.02155 0.43328 0.532 0.0
C1127 C 0.006 0.45359 0.5166 0.0
C1128 C -0.00093 0.48597 0.52199 0.0
C1129 C 0.9821 0.50256 0.50241 0.0
C1130 C 0.95079 0.51322 0.51042 0.0
C1131 C -0.00031 0.53193 0.49259 0.0
C1132 C 0.98064 0.47445 0.48513 0.0
C1133 C 0.99446 0.44639 0.49368 0.0
C1134 C 0.99609 0.41731 0.4808 0.0
C1135 C 0.98318 0.41689 0.45859 0.0
C1136 C 0.96872 0.4453 0.44959 0.0
C1137 C 0.96772 0.47447 0.46299 0.0
H1138 H 0.98232 0.49945 0.05434 0.0
H1139 H 0.07346 0.46999 0.03943 0.0
H1140 H 0.06448 0.4787 -0.00247 0.0
H1141 H 0.9485 0.46267 0.00439 0.0
H1142 H 0.92231 0.49596 -7e-05 0.0
H1143 H 0.93586 0.48703 0.02877 0.0
H1144 H 0.95381 0.54747 0.03301 0.0
H1145 H 0.94029 0.5566 0.00418 0.0
H1146 H 0.97868 0.56443 0.0115 0.0
H1147 H 0.04521 0.48962 0.9572 0.0
H1148 H 0.01766 0.50494 0.92141 0.0
H1149 H 0.93962 0.52839 0.96283 0.0
C1150 C 0.00042 0.49491 0.04226 0.0
C1151 C 0.02833 0.48312 0.05006 0.0
C1152 C 0.05154 0.47772 0.03378 0.0
C1153 C 0.04675 0.48297 0.00996 0.0
C1154 C 0.01875 0.49396 0.0028 0.0
C1155 C 0.99604 0.50011 0.01848 0.0
C1156 C 0.9681 0.51211 0.00632 0.0
C1157 C 0.94217 0.488 0.01008 0.0
C1158 C 0.95974 0.54724 0.01422 0.0
C1159 C 0.97865 0.51174 0.98133 0.0
C1160 C 0.0079 0.50109 0.97966 0.0
C1161 C 0.02238 0.49822 0.9583 0.0
C1162 C 0.00659 0.50683 0.93813 0.0
C1163 C 0.97687 0.51845 0.93959 0.0
C1164 C 0.96265 0.5205 0.9614 0.0
H1165 H 0.48651 0.49378 0.94124 0.0
H1166 H 0.57664 0.46813 0.96215 0.0
H1167 H 0.5626 0.47516 0.00334 0.0
H1168 H 0.47544 0.55731 0.98511 0.0
H1169 H 0.43671 0.5474 0.98938 0.0
H1170 H 0.45396 0.5403 0.9615 0.0
H1171 H 0.43787 0.47897 0.96311 0.0
H1172 H 0.42075 0.48581 0.99107 0.0
H1173 H 0.44864 0.45397 0.98771 0.0
H1174 H 0.53827 0.48278 0.04223 0.0
H1175 H 0.50627 0.49527 0.07623 0.0
H1176 H 0.4325 0.5177 0.03002 0.0
C1177 C 0.50335 0.48989 0.95449 0.0
C1178 C 0.53243 0.47942 0.94855 0.0
C1179 C 0.55391 0.47481 0.96633 0.0
C1180 C 0.54623 0.47909 0.98978 0.0
C1181 C 0.5171 0.48843 0.99508 0.0
C1182 C 0.49609 0.49421 0.97795 0.0
C1183 C 0.4664 0.50433 0.98833 0.0
C1184 C 0.45762 0.53942 0.98062 0.0
C1185 C 0.44198 0.47927 0.98219 0.0
C1186 C 0.47398 0.50322 0.01398 0.0
C1187 C 0.50331 0.49382 0.01749 0.0
C1188 C 0.51535 0.49041 0.03971 0.0
C1189 C 0.49703 0.49734 0.05886 0.0
C1190 C 0.46721 0.50784 0.05557 0.0
C1191 C 0.45546 0.5104 0.03289 0.0
H1192 H 0.18489 0.0059 0.37095 0.0
H1193 H 0.21327 0.10768 0.37641 0.0
H1194 H 0.26537 0.08905 0.38194 0.0
H1195 H 0.24045 0.97109 0.41384 0.0
H1196 H 0.24516 0.93407 0.39679 0.0
H1197 H 0.20976 0.95534 0.39697 0.0
H1198 H 0.21146 0.959 0.35195 0.0
H1199 H 0.24698 0.93827 0.35161 0.0
H1200 H 0.24298 0.97816 0.33804 0.0
H1201 H 0.31436 0.06009 0.38017 0.0
H1202 H 0.35699 0.0225 0.37372 0.0
H1203 H 0.29688 0.93903 0.37226 0.0
C1204 C 0.20195 0.02413 0.37423 0.0
C1205 C 0.19529 0.05815 0.37345 0.0
C1206 C 0.21816 0.08148 0.37701 0.0
C1207 C 0.2477 0.07113 0.38024 0.0
C1208 C 0.25377 0.03737 0.38018 0.0
C1209 C 0.2315 0.01416 0.37763 0.0
C1210 C 0.24426 0.97956 0.37624 0.0
C1211 C 0.23432 0.95879 0.39721 0.0
C1212 C 0.23592 0.96279 0.35309 0.0
C1213 C 0.27722 0.98706 0.37737 0.0
C1214 C 0.28222 0.02052 0.37983 0.0
C1215 C 0.3108 0.03374 0.37896 0.0
C1216 C 0.33487 0.0122 0.37537 0.0
C1217 C 0.33021 0.97786 0.37285 0.0
C1218 C 0.30106 0.96518 0.37425 0.0
H1219 H 0.80838 0.03108 0.14872 0.0
H1220 H 0.81534 0.05859 0.07606 0.0
H1221 H 0.77042 0.02535 0.06711 0.0
H1222 H 0.78588 0.94814 0.13952 0.0
H1223 H 0.76056 0.94736 0.16388 0.0
H1224 H 0.79252 0.97406 0.16449 0.0
H1225 H 0.75819 0.02469 0.17187 0.0
H1226 H 0.72614 -0.00191 0.17153 0.0
H1227 H 0.7278 0.03304 0.15216 0.0
H1228 H 0.72514 0.98827 0.06642 0.0
H1229 H 0.68269 0.95074 0.0741 0.0
H1230 H 0.70606 0.9484 0.14728 0.0
C1231 C 0.80012 0.0304 0.131 0.0
C1232 C 0.81484 0.04742 0.11304 0.0
C1233 C 0.80401 0.04566 0.08997 0.0
C1234 C 0.77865 0.02691 0.08478 0.0
C1235 C 0.76464 0.01018 0.10293 0.0
C1236 C 0.77497 0.01186 0.12558 0.0
C1237 C 0.75628 0.99131 0.14189 0.0
C1238 C 0.77493 0.96357 0.1531 0.0
C1239 C 0.7412 0.01308 0.16045 0.0
C1240 C 0.73382 0.97765 0.12489 0.0
C1241 C 0.73893 0.98879 0.1025 0.0
C1242 C 0.72092 0.97941 0.08388 0.0
C1243 C 0.69697 0.9582 0.08835 0.0
C1244 C 0.69148 0.94673 0.11119 0.0
C1245 C 0.71015 0.95654 0.12961 0.0
H1246 H 0.67137 0.99533 0.63083 0.0
H1247 H 0.70601 0.09494 0.62782 0.0
H1248 H 0.75645 0.07276 0.61996 0.0
H1249 H 0.73124 0.959 0.65937 0.0
H1250 H 0.73081 0.92071 0.6434 0.0
H1251 H 0.69699 0.94431 0.64672 0.0
H1252 H 0.69027 0.94606 0.60191 0.0
H1253 H 0.72399 0.92216 0.59844 0.0
H1254 H 0.72007 0.96139 0.58392 0.0
H1255 H 0.80339 0.03993 0.61763 0.0
H1256 H 0.84378 -0.00148 0.61846 0.0
H1257 H 0.77842 0.91999 0.61875 0.0
C1258 C 0.68947 0.01241 0.62784 0.0
C1259 C 0.68499 0.04678 0.62981 0.0
C1260 C 0.7092 0.06849 0.62646 0.0
C1261 C 0.7378 0.05614 0.62187 0.0
C1262 C 0.74161 0.02207 0.62035 0.0
C1263 C 0.71807 0.00048 0.6229 0.0
C1264 C 0.72848 0.96492 0.62145 0.0
C1265 C 0.72146 0.94615 0.64408 0.0
C1266 C 0.7149 0.94762 0.60016 0.0
C1267 C 0.76167 0.96991 0.61847 0.0
C1268 C 0.76874 0.00307 0.61784 0.0
C1269 C 0.79813 0.01389 0.61739 0.0
C1270 C 0.82092 0.99017 0.6177 0.0
C1271 C 0.81419 0.95607 0.61814 0.0
C1272 C 0.78416 0.94591 0.61818 0.0
H1273 H 0.28742 0.04865 0.90222 0.0
H1274 H 0.32242 0.04436 0.83194 0.0
H1275 H 0.28285 0.00525 0.82083 0.0
H1276 H 0.26567 0.96201 0.90579 0.0
H1277 H 0.23216 0.97057 0.92206 0.0
H1278 H 0.26394 0.99732 0.92486 0.0
H1279 H 0.2311 0.04761 0.91343 0.0
H1280 H 0.19925 0.02103 0.91058 0.0
H1281 H 0.21045 0.04666 0.88651 0.0
H1282 H 0.23902 0.96937 0.81677 0.0
H1283 H 0.1924 0.93773 0.81992 0.0
H1284 H 0.18572 0.9637 0.89301 0.0
C1285 C 0.28662 0.03923 0.88458 0.0
C1286 C 0.30747 0.04937 0.86779 0.0
C1287 C 0.30621 0.03682 0.84485 0.0
C1288 C 0.284 0.0146 0.83845 0.0
C1289 C 0.26347 0.00519 0.85529 0.0
C1290 C 0.2645 0.01696 0.87788 0.0
C1291 C 0.23911 0.00339 0.89229 0.0
C1292 C 0.25094 0.98205 0.91244 0.0
C1293 C 0.21878 0.03134 0.90122 0.0
C1294 C 0.22353 0.98258 0.87415 0.0
C1295 C 0.23811 0.9839 0.85298 0.0
C1296 C 0.22756 0.9677 0.83331 0.0
C1297 C 0.20124 0.94967 0.83529 0.0
C1298 C 0.18599 0.94796 0.85679 0.0
C1299 C 0.19726 0.96454 0.87645 0.0
H1300 H 0.79579 0.45555 0.34356 0.0
H1301 H 0.8006 0.4314 0.41694 0.0
H1302 H 0.75666 0.46737 0.4245 0.0
H1303 H 0.7737 0.54065 0.35032 0.0
H1304 H 0.74907 0.54013 0.32553 0.0
H1305 H 0.7812 0.5133 0.32623 0.0
H1306 H 0.74734 0.46244 0.31964 0.0
H1307 H 0.71516 0.48913 0.31869 0.0
H1308 H 0.71647 0.45531 0.33906 0.0
H1309 H 0.71132 0.50495 0.42344 0.0
H1310 H 0.66765 0.54018 0.4138 0.0
H1311 H 0.693 0.53853 0.34102 0.0
C1312 C 0.78742 0.45771 0.36119 0.0
C1313 C 0.80118 0.44073 0.37971 0.0
C1314 C 0.7901 0.44437 0.40261 0.0
C1315 C 0.7653 0.4647 0.40701 0.0
C1316 C 0.75212 0.48115 0.38828 0.0
C1317 C 0.76281 0.47781 0.36583 0.0
C1318 C 0.74442 0.49749 0.34865 0.0
C1319 C 0.76323 0.52449 0.337 0.0
C1320 C 0.72999 0.47473 0.33044 0.0
C1321 C 0.72144 0.5122 0.36487 0.0
C1322 C 0.7263 0.50269 0.38769 0.0
C1323 C 0.7074 0.51265 0.40566 0.0
C1324 C 0.68273 0.53255 0.40006 0.0
C1325 C 0.67729 0.54205 0.37675 0.0
C1326 C 0.69704 0.532 0.35904 0.0
H1327 H 0.28852 0.55305 0.09608 0.0
H1328 H 0.30221 0.57618 0.16902 0.0
H1329 H 0.25638 0.54627 0.17922 0.0
H1330 H 0.20705 0.55747 0.09633 0.0
H1331 H 0.20275 0.52266 0.07709 0.0
H1332 H 0.23543 0.54819 0.07506 0.0
H1333 H 0.26913 0.49664 0.0807 0.0
H1334 H 0.23658 0.47097 0.08272 0.0
H1335 H 0.26376 0.4707 0.10583 0.0
H1336 H 0.21098 0.51272 0.18196 0.0
H1337 H 0.16835 0.47504 0.17724 0.0
H1338 H 0.18421 0.47105 0.10283 0.0
C1339 C 0.28157 0.55195 0.11412 0.0
C1340 C 0.29839 0.56733 0.13176 0.0
C1341 C 0.2891 0.5652 0.15524 0.0
C1342 C 0.26323 0.54816 0.16121 0.0
C1343 C 0.2471 0.5332 0.14348 0.0
C1344 C 0.25585 0.53471 0.12043 0.0
C1345 C 0.23518 0.5148 0.10505 0.0
C1346 C 0.21915 0.53712 0.08733 0.0
C1347 C 0.25218 0.48661 0.09286 0.0
C1348 C 0.21371 0.50169 0.12314 0.0
C1349 C 0.22098 0.51288 0.14515 0.0
C1350 C 0.20499 0.50376 0.16485 0.0
C1351 C 0.181 0.48231 0.16203 0.0
C1352 C 0.17348 0.47012 0.13975 0.0
C1353 C 0.18973 0.48018 0.12001 0.0
H1354 H 0.28525 0.42498 0.63104 0.0
H1355 H 0.34468 0.50825 0.62215 0.0
H1356 H 0.30161 0.54482 0.61568 0.0
H1357 H 0.22587 0.45067 0.59159 0.0
H1358 H 0.19643 0.43794 0.61091 0.0
H1359 H 0.23188 0.41682 0.61146 0.0
H1360 H 0.23685 0.42861 0.65564 0.0
H1361 H 0.2013 0.4494 0.65526 0.0
H1362 H 0.2338 0.47051 0.66599 0.0
H1363 H 0.25265 0.57264 0.61066 0.0
H1364 H 0.20054 0.59199 0.6136 0.0
H1365 H 0.17257 0.49298 0.63187 0.0
C1366 C 0.28918 0.45087 0.62765 0.0
C1367 C 0.31844 0.46349 0.62627 0.0
C1368 C 0.3226 0.49765 0.62217 0.0
C1369 C 0.29824 0.51872 0.61865 0.0
C1370 C 0.26975 0.50548 0.61993 0.0
C1371 C 0.26502 0.47254 0.62485 0.0
C1372 C 0.23209 0.46555 0.62797 0.0
C1373 C 0.22092 0.44131 0.60937 0.0
C1374 C 0.22564 0.45278 0.65269 0.0
C1375 C 0.21919 0.4998 0.62423 0.0
C1376 C 0.24132 0.52223 0.61904 0.0
C1377 C 0.23512 0.5554 0.61487 0.0
C1378 C 0.20554 0.56617 0.61667 0.0
C1379 C 0.18271 0.54404 0.62317 0.0
C1380 C 0.18958 0.51032 0.62662 0.0
H1381 H 0.69586 0.46309 0.90386 0.0
H1382 H 0.68185 0.45169 0.8296 0.0
H1383 H 0.72438 0.4883 0.82167 0.0
H1384 H 0.7166 0.5497 0.90164 0.0
H1385 H 0.74444 0.54603 0.92413 0.0
H1386 H 0.71266 0.51902 0.92415 0.0
H1387 H 0.74795 0.46816 0.92447 0.0
H1388 H 0.77984 0.49501 0.92436 0.0
H1389 H 0.77589 0.46399 0.90208 0.0
H1390 H 0.76836 0.52397 0.8215 0.0
H1391 H 0.81172 0.55953 0.8291 0.0
H1392 H 0.79745 0.54986 0.90346 0.0
C1393 C 0.7019 0.4685 0.88601 0.0
C1394 C 0.68619 0.45442 0.86728 0.0
C1395 C 0.69419 0.46195 0.84408 0.0
C1396 C 0.71813 0.48275 0.83943 0.0
C1397 C 0.73356 0.49593 0.85821 0.0
C1398 C 0.72581 0.48936 0.88104 0.0
C1399 C 0.74636 0.5069 0.89787 0.0
C1400 C 0.72897 0.5319 0.91283 0.0
C1401 C 0.76353 0.48202 0.91309 0.0
C1402 C 0.76689 0.5241 0.88087 0.0
C1403 C 0.75898 0.51733 0.85811 0.0
C1404 C 0.77468 0.52977 0.83921 0.0
C1405 C 0.79912 0.54994 0.84367 0.0
C1406 C 0.8074 0.55753 0.8668 0.0
C1407 C 0.79126 0.54438 0.88565 0.0
H1408 H 0.02529 0.17637 0.32781 0.0
H1409 H 0.03963 0.15857 0.40138 0.0
H1410 H 0.00665 0.20615 0.41089 0.0
H1411 H 0.02343 0.26334 0.32905 0.0
H1412 H 0.99396 0.26721 0.30788 0.0
H1413 H 0.01841 0.23187 0.30723 0.0
H1414 H 0.97282 0.19294 0.30988 0.0
H1415 H 0.94819 0.2282 0.31051 0.0
H1416 H 0.94664 0.19789 0.33345 0.0
H1417 H 0.97585 0.25919 0.41165 0.0
H1418 H 0.94517 0.30913 0.40393 0.0
H1419 H 0.9473 0.28756 0.33003 0.0
C1420 C 0.02143 0.18252 0.34593 0.0
C1421 C 0.03518 0.16435 0.36392 0.0
C1422 C 0.02928 0.17249 0.38742 0.0
C1423 C 0.01068 0.1994 0.39293 0.0
C1424 C -0.00236 0.2171 0.37469 0.0
C1425 C 0.00233 0.20853 0.35168 0.0
C1426 C 0.98526 0.23084 0.33528 0.0
C1427 C 0.00654 0.24941 0.31891 0.0
C1428 C 0.96184 0.2113 0.32147 0.0
C1429 C 0.97074 0.25393 0.35259 0.0
C1430 C 0.97833 0.24589 0.37524 0.0
C1431 C 0.9693 0.26532 0.39404 0.0
C1432 C 0.95203 0.29362 0.38951 0.0
C1433 C 0.9436 0.3017 0.36646 0.0
C1434 C 0.95289 0.28142 0.34787 0.0
H1435 H 0.49692 0.83521 0.37235 0.0
H1436 H 0.40819 0.79552 0.38102 0.0
H1437 H 0.42981 0.74016 0.38858 0.0
H1438 H 0.52154 0.77197 0.33848 0.0
H1439 H 0.55943 0.77128 0.34891 0.0
H1440 H 0.53803 0.80882 0.35035 0.0
H1441 H 0.54762 0.81257 0.39477 0.0
H1442 H 0.56931 0.77502 0.39345 0.0
H1443 H 0.53822 0.77816 0.41322 0.0
H1444 H 0.46037 0.68868 0.39049 0.0
H1445 H 0.49618 0.64399 0.38216 0.0
H1446 H 0.56478 0.71656 0.36814 0.0
C1447 C 0.48222 0.81506 0.37685 0.0
C1448 C 0.45103 0.8195 0.37684 0.0
C1449 C 0.43218 0.79248 0.38149 0.0
C1450 C 0.44429 0.76109 0.38587 0.0
C1451 C 0.47521 0.75722 0.3851 0.0
C1452 C 0.49392 0.78345 0.3805 0.0
C1453 C 0.52569 0.77189 0.37657 0.0
C1454 C 0.5368 0.78155 0.35213 0.0
C1455 C 0.54643 0.7852 0.39564 0.0
C1456 C 0.52175 0.73495 0.37878 0.0
C1457 C 0.49268 0.72711 0.38448 0.0
C1458 C 0.48325 0.69453 0.38627 0.0
C1459 C 0.50381 0.6693 0.38149 0.0
C1460 C 0.53329 0.67679 0.37441 0.0
C1461 C 0.54246 0.71007 0.3736 0.0
H1462 H 0.5142 0.82665 0.10916 0.0
H1463 H 0.59687 0.77166 0.10287 0.0
H1464 H 0.56869 0.72219 0.09089 0.0
H1465 H 0.47798 0.76719 0.13789 0.0
H1466 H 0.44162 0.77442 0.12548 0.0
H1467 H 0.4681 0.80738 0.12671 0.0
H1468 H 0.46336 0.81566 0.08208 0.0
H1469 H 0.43674 0.7825 0.08073 0.0
H1470 H 0.46969 0.78122 0.06279 0.0
H1471 H 0.53186 0.67706 0.08612 0.0
H1472 H 0.49037 0.63897 0.09388 0.0
H1473 H 0.43155 0.72255 0.10599 0.0
C1474 C 0.52637 0.80455 0.10427 0.0
C1475 C 0.55763 0.80296 0.10645 0.0
C1476 C 0.57288 0.77333 0.101 0.0
C1477 C 0.55707 0.74524 0.09401 0.0
C1478 C 0.52606 0.74722 0.09277 0.0
C1479 C 0.51085 0.77614 0.09789 0.0
C1480 C 0.47764 0.77036 0.0997 0.0
C1481 C 0.46567 0.7804 0.12387 0.0
C1482 C 0.46087 0.78851 0.08016 0.0
C1483 C 0.47669 0.73338 0.09617 0.0
C1484 C 0.50465 0.72066 0.09128 0.0
C1485 C 0.50976 0.68677 0.08951 0.0
C1486 C 0.48602 0.6653 0.09392 0.0
C1487 C 0.45778 0.67786 0.10061 0.0
C1488 C 0.45286 0.7123 0.10073 0.0
H1489 H 0.93163 0.21435 0.13418 0.0
H1490 H 0.99537 0.1485 0.10099 0.0
H1491 H 0.02875 0.19558 0.09382 0.0
H1492 H 0.94652 0.2875 0.09567 0.0
H1493 H 0.94187 0.31583 0.11961 0.0
H1494 H 0.92109 0.27786 0.11897 0.0
H1495 H 0.9419 0.26248 0.15964 0.0
H1496 H 0.9628 0.30018 0.16038 0.0
H1497 H 0.98168 0.26114 0.16407 0.0
H1498 H 0.05892 0.24701 0.09716 0.0
H1499 H 0.0817 0.30059 0.10772 0.0
H1500 H -0.00271 0.33409 0.13581 0.0
C1501 C 0.95227 0.20996 0.12488 0.0
C1502 C 0.96092 0.17775 0.1182 0.0
C1503 C 0.98819 0.17298 0.10618 0.0
C1504 C 0.00731 0.19959 0.102 0.0
C1505 C -0.00146 0.23087 0.10949 0.0
C1506 C 0.9714 0.2363 0.12027 0.0
C1507 C 0.96818 0.27182 0.1281 0.0
C1508 C 0.94291 0.28928 0.11478 0.0
C1509 C 0.96338 0.274 0.15461 0.0
C1510 C -0.00167 0.28512 0.12108 0.0
C1511 C 0.01548 0.26115 0.11025 0.0
C1512 C 0.04542 0.26634 0.10487 0.0
C1513 C 0.05819 0.29668 0.11093 0.0
C1514 C 0.04086 0.3214 0.12185 0.0
C1515 C 0.01052 0.31582 0.12661 0.0
H1516 H 0.98302 0.8142 0.6099 0.0
H1517 H 0.89605 0.76878 0.60527 0.0
H1518 H 0.9199 0.71514 0.59595 0.0
H1519 H 0.02372 0.76045 0.56627 0.0
H1520 H 0.0565 0.75916 0.5844 0.0
H1521 H 0.03281 0.79525 0.58445 0.0
H1522 H 0.02705 0.79055 0.62924 0.0
H1523 H 0.05063 0.75463 0.62931 0.0
H1524 H 0.01376 0.75248 0.64165 0.0
H1525 H 0.95298 0.66551 0.59257 0.0
H1526 H 0.99142 0.62332 0.60065 0.0
H1527 H 0.05681 0.70054 0.61077 0.0
C1528 C 0.96904 0.79321 0.60594 0.0
C1529 C 0.93776 0.79559 0.6077 0.0
C1530 C 0.92008 0.76739 0.6036 0.0
C1531 C 0.93344 0.73695 0.59817 0.0
C1532 C 0.96449 0.73511 0.59722 0.0
C1533 C 0.98208 0.76251 0.60119 0.0
C1534 C 0.01465 0.75303 0.60342 0.0
C1535 C 0.033 0.76785 0.58344 0.0
C1536 C 0.02723 0.76326 0.62732 0.0
C1537 C 0.01252 0.71589 0.60115 0.0
C1538 C 0.98358 0.70612 0.59673 0.0
C1539 C 0.97579 0.67288 0.59569 0.0
C1540 C -0.00217 0.64905 0.60024 0.0
C1541 C 0.02712 0.65865 0.60638 0.0
C1542 C 0.03468 0.69245 0.60595 0.0
H1543 H 0.43134 0.28298 0.6402 0.0
H1544 H 0.49119 0.34614 0.60116 0.0
H1545 H 0.52537 0.29909 0.5953 0.0
H1546 H 0.48409 0.24075 0.67064 0.0
H1547 H 0.46644 0.2009 0.66972 0.0
H1548 H 0.44419 0.23779 0.66762 0.0
H1549 H 0.42186 0.21754 0.62858 0.0
H1550 H 0.44382 0.18025 0.63067 0.0
H1551 H 0.44641 0.20587 0.6051 0.0
H1552 H 0.55728 0.24867 0.60025 0.0
H1553 H 0.58184 0.19624 0.61201 0.0
H1554 H 0.50031 0.16471 0.64538 0.0
C1555 C 0.45118 0.2867 0.62981 0.0
C1556 C 0.45856 0.3183 0.62119 0.0
C1557 C 0.48491 0.32217 0.60786 0.0
C1558 C 0.50454 0.29557 0.60444 0.0
C1559 C 0.49721 0.26508 0.61402 0.0
C1560 C 0.47083 0.2603 0.62597 0.0
C1561 C 0.46916 0.22569 0.63585 0.0
C1562 C 0.46579 0.22635 0.66253 0.0
C1563 C 0.44381 0.20619 0.62436 0.0
C1564 C 0.49934 0.21235 0.62862 0.0
C1565 C 0.51516 0.23539 0.61592 0.0
C1566 C 0.54481 0.23004 0.60953 0.0
C1567 C 0.55861 0.20039 0.61631 0.0
C1568 C 0.54259 0.17655 0.62905 0.0
C1569 C 0.51258 0.18237 0.63502 0.0
H1570 H 0.42647 0.22411 0.87391 0.0
H1571 H 0.48556 0.14928 0.90258 0.0
H1572 H 0.52221 0.1922 0.91214 0.0
H1573 H 0.47787 0.26756 0.84554 0.0
H1574 H 0.46306 0.30822 0.85122 0.0
H1575 H 0.43869 0.27324 0.85143 0.0
H1576 H 0.42167 0.28774 0.89332 0.0
H1577 H 0.44592 0.32312 0.8932 0.0
H1578 H 0.4491 0.2927 0.91598 0.0
H1579 H 0.55656 0.23943 0.90937 0.0
H1580 H 0.58441 0.28943 0.89797 0.0
H1581 H 0.50246 0.33514 0.87423 0.0
C1582 C 0.4467 0.21691 0.88288 0.0
C1583 C 0.45325 0.18339 0.88736 0.0
C1584 C 0.48003 0.17484 0.899 0.0
C1585 C 0.50097 0.19907 0.90459 0.0
C1586 C 0.49444 0.23175 0.89896 0.0
C1587 C 0.46766 0.24085 0.88885 0.0
C1588 C 0.46741 0.27704 0.88231 0.0
C1589 C 0.46143 0.28175 0.85608 0.0
C1590 C 0.44467 0.29628 0.89709 0.0
C1591 C 0.49899 0.28624 0.88872 0.0
C1592 C 0.51411 0.25986 0.8986 0.0
C1593 C 0.54476 0.2607 0.90257 0.0
C1594 C 0.5604 0.28901 0.89597 0.0
C1595 C 0.54524 0.31607 0.88588 0.0
C1596 C 0.51414 0.31507 0.8828 0.0
H1597 H 0.99176 0.67145 0.88278 0.0
H1598 H 0.9094 0.7197 0.9027 0.0
H1599 H 0.93723 0.77003 0.91313 0.0
H1600 H 0.04483 0.71899 0.92388 0.0
H1601 H 0.07248 0.72094 0.90116 0.0
H1602 H 0.04837 0.68558 0.90332 0.0
H1603 H 0.03203 0.69433 0.86048 0.0
H1604 H 0.05571 0.72967 0.85826 0.0
H1605 H 0.01651 0.73364 0.85188 0.0
H1606 H 0.97098 0.81773 0.91276 0.0
H1607 H 0.00646 0.85959 0.89897 0.0
H1608 H 0.0668 0.78175 0.87663 0.0
C1609 C 0.98 0.69207 0.8906 0.0
C1610 C 0.94874 0.69173 0.8926 0.0
C1611 C 0.93351 0.71954 0.90158 0.0
C1612 C 0.94917 0.7481 0.90762 0.0
C1613 C 0.97996 0.74847 0.9043 0.0
C1614 C 0.99528 0.72109 0.89602 0.0
C1615 C 0.02686 0.72984 0.88918 0.0
C1616 C 0.04947 0.71283 0.90536 0.0
C1617 C 0.0331 0.72139 0.86344 0.0
C1618 C 0.02619 0.76674 0.89326 0.0
C1619 C -0.0006 0.7768 0.90287 0.0
C1620 C 0.99231 0.81011 0.90575 0.0
C1621 C 0.0126 0.83375 0.89778 0.0
C1622 C 0.03933 0.82391 0.88661 0.0
C1623 C 0.04664 0.79001 0.88524 0.0
loop_
_geom_bond_atom_site_label_1
_geom_bond_atom_site_label_2
_geom_bond_distance
_geom_bond_site_symmetry_2
_ccdc_geom_bond_type
Co0 O3 1.970 . S
Co0 N17 1.989 . S
Co0 O25 1.967 . S
Co0 O32 1.920 . S
Co1 O4 1.966 . S
Co1 N10 2.022 . S
Co1 N18 1.993 . S
Co1 O26 1.941 . S
C2 O3 1.258 . S
C2 O4 1.263 . S
O3 Co0 1.970 . S
O3 C2 1.258 . S
O4 Co1 1.966 . S
O4 C2 1.263 . S
C5 O6 1.235 . S
C5 O32 1.289 . S
O6 C5 1.235 . S
C7 C9 1.400 . S
C7 N10 1.351 . S
C7 C12 1.501 . S
C8 C9 1.387 . S
C8 N11 1.341 . S
C9 C7 1.400 . S
C9 C8 1.387 . S
N10 Co1 2.022 . S
N10 C7 1.351 . S
N10 N11 1.365 . S
N11 C8 1.341 . S
N11 N10 1.365 . S
N11 H31 0.862 . S
C12 C7 1.501 . S
C12 H13 0.961 . S
C12 H14 0.961 . S
C12 H15 0.960 . S
H13 C12 0.961 . S
H14 C12 0.961 . S
H15 C12 0.960 . S
C16 N17 1.342 . S
C16 C20 1.401 . S
C16 C21 1.499 . S
N17 Co0 1.989 . S
N17 C16 1.342 . S
N17 N18 1.388 . S
N18 Co1 1.993 . S
N18 N17 1.388 . S
N18 C19 1.346 . S
C19 N18 1.346 . S
C19 C20 1.396 . S
C19 C29 1.510 . S
C20 C16 1.401 . S
C20 C19 1.396 . S
C21 C16 1.499 . S
C21 H22 0.959 . S
C21 H23 0.960 . S
C21 H24 0.961 . S
H22 C21 0.959 . S
H23 C21 0.960 . S
H24 C21 0.961 . S
O25 Co0 1.967 . S
O25 C33 1.258 . S
O26 Co1 1.941 . S
O26 C33 1.266 . S
H27 C29 0.959 . S
H28 C29 0.961 . S
C29 C19 1.510 . S
C29 H27 0.959 . S
C29 H28 0.961 . S
C29 H30 0.960 . S
H30 C29 0.960 . S
H31 N11 0.862 . S
O32 Co0 1.920 . S
O32 C5 1.289 . S
C33 O25 1.258 . S
C33 O26 1.266 . S
Co34 O37 1.970 . S
Co34 N51 1.989 . S
Co34 O59 1.967 . S
Co34 O66 1.920 . S
Co35 O38 1.966 . S
Co35 N44 2.022 . S
Co35 N52 1.993 . S
Co35 O60 1.941 . S
C36 O37 1.258 . S
C36 O38 1.263 . S
O37 Co34 1.970 . S
O37 C36 1.258 . S
O38 Co35 1.966 . S
O38 C36 1.263 . S
C39 O40 1.235 . S
C39 O66 1.289 . S
O40 C39 1.235 . S
C41 C43 1.400 . S
C41 N44 1.351 . S
C41 C46 1.501 . S
C42 C43 1.387 . S
C42 N45 1.341 . S
C43 C41 1.400 . S
C43 C42 1.387 . S
N44 Co35 2.022 . S
N44 C41 1.351 . S
N44 N45 1.365 . S
N45 C42 1.341 . S
N45 N44 1.365 . S
N45 H65 0.862 . S
C46 C41 1.501 . S
C46 H47 0.961 . S
C46 H48 0.961 . S
C46 H49 0.960 . S
H47 C46 0.961 . S
H48 C46 0.961 . S
H49 C46 0.960 . S
C50 N51 1.342 . S
C50 C54 1.401 . S
C50 C55 1.499 . S
N51 Co34 1.989 . S
N51 C50 1.342 . S
N51 N52 1.388 . S
N52 Co35 1.993 . S
N52 N51 1.388 . S
N52 C53 1.346 . S
C53 N52 1.346 . S
C53 C54 1.396 . S
C53 C63 1.510 . S
C54 C50 1.401 . S
C54 C53 1.396 . S
C55 C50 1.499 . S
C55 H56 0.959 . S
C55 H57 0.960 . S
C55 H58 0.961 . S
H56 C55 0.959 . S
H57 C55 0.960 . S
H58 C55 0.961 . S
O59 Co34 1.967 . S
O59 C67 1.258 . S
O60 Co35 1.941 . S
O60 C67 1.266 . S
H61 C63 0.959 . S
H62 C63 0.961 . S
C63 C53 1.510 . S
C63 H61 0.959 . S
C63 H62 0.961 . S
C63 H64 0.960 . S
H64 C63 0.960 . S
H65 N45 0.862 . S
O66 Co34 1.920 . S
O66 C39 1.289 . S
C67 O59 1.258 . S
C67 O60 1.266 . S
Co68 O71 1.970 . S
Co68 N85 1.989 . S
Co68 O93 1.967 . S
Co68 O100 1.920 . S
Co69 O72 1.966 . S
Co69 N78 2.022 . S
Co69 N86 1.993 . S
Co69 O94 1.941 . S
C70 O71 1.258 . S
C70 O72 1.263 . S
O71 Co68 1.970 . S
O71 C70 1.258 . S
O72 Co69 1.966 . S
O72 C70 1.263 . S
C73 O74 1.235 . S
C73 O100 1.289 . S
O74 C73 1.235 . S
C75 C77 1.400 . S
C75 N78 1.351 . S
C75 C80 1.501 . S
C76 C77 1.387 . S
C76 N79 1.341 . S
C77 C75 1.400 . S
C77 C76 1.387 . S
N78 Co69 2.022 . S
N78 C75 1.351 . S
N78 N79 1.365 . S
N79 C76 1.341 . S
N79 N78 1.365 . S
N79 H99 0.862 . S
C80 C75 1.501 . S
C80 H81 0.961 . S
C80 H82 0.961 . S
C80 H83 0.960 . S
H81 C80 0.961 . S
H82 C80 0.961 . S
H83 C80 0.960 . S
C84 N85 1.342 . S
C84 C88 1.401 . S
C84 C89 1.499 . S
N85 Co68 1.989 . S
N85 C84 1.342 . S
N85 N86 1.388 . S
N86 Co69 1.993 . S
N86 N85 1.388 . S
N86 C87 1.346 . S
C87 N86 1.346 . S
C87 C88 1.396 . S
C87 C97 1.510 . S
C88 C84 1.401 . S
C88 C87 1.396 . S
C89 C84 1.499 . S
C89 H90 0.959 . S
C89 H91 0.960 . S
C89 H92 0.961 . S
H90 C89 0.959 . S
H91 C89 0.960 . S
H92 C89 0.961 . S
O93 Co68 1.967 . S
O93 C101 1.258 . S
O94 Co69 1.941 . S
O94 C101 1.266 . S
H95 C97 0.959 . S
H96 C97 0.961 . S
C97 C87 1.510 . S
C97 H95 0.959 . S
C97 H96 0.961 . S
C97 H98 0.960 . S
H98 C97 0.960 . S
H99 N79 0.862 . S
O100 Co68 1.920 . S
O100 C73 1.289 . S
C101 O93 1.258 . S
C101 O94 1.266 . S
Co102 O105 1.970 . S
Co102 N119 1.989 . S
Co102 O127 1.967 . S
Co102 O134 1.920 . S
Co103 O106 1.966 . S
Co103 N112 2.022 . S
Co103 N120 1.993 . S
Co103 O128 1.941 . S
C104 O105 1.258 . S
C104 O106 1.263 . S
O105 Co102 1.970 . S
O105 C104 1.258 . S
O106 Co103 1.966 . S
O106 C104 1.263 . S
C107 O108 1.235 . S
C107 O134 1.289 . S
O108 C107 1.235 . S
C109 C111 1.400 . S
C109 N112 1.351 . S
C109 C114 1.501 . S
C110 C111 1.387 . S
C110 N113 1.341 . S
C111 C109 1.400 . S
C111 C110 1.387 . S
N112 Co103 2.022 . S
N112 C109 1.351 . S
N112 N113 1.365 . S
N113 C110 1.341 . S
N113 N112 1.365 . S
N113 H133 0.862 . S
C114 C109 1.501 . S
C114 H115 0.961 . S
C114 H116 0.961 . S
C114 H117 0.960 . S
H115 C114 0.961 . S
H116 C114 0.961 . S
H117 C114 0.960 . S
C118 N119 1.342 . S
C118 C122 1.401 . S
C118 C123 1.499 . S
N119 Co102 1.989 . S
N119 C118 1.342 . S
N119 N120 1.388 . S
N120 Co103 1.993 . S
N120 N119 1.388 . S
N120 C121 1.346 . S
C121 N120 1.346 . S
C121 C122 1.396 . S
C121 C131 1.510 . S
C122 C118 1.401 . S
C122 C121 1.396 . S
C123 C118 1.499 . S
C123 H124 0.959 . S
C123 H125 0.960 . S
C123 H126 0.961 . S
H124 C123 0.959 . S
H125 C123 0.960 . S
H126 C123 0.961 . S
O127 Co102 1.967 . S
O127 C135 1.258 . S
O128 Co103 1.941 . S
O128 C135 1.266 . S
H129 C131 0.959 . S
H130 C131 0.961 . S
C131 C121 1.510 . S
C131 H129 0.959 . S
C131 H130 0.961 . S
C131 H132 0.960 . S
H132 C131 0.960 . S
H133 N113 0.862 . S
O134 Co102 1.920 . S
O134 C107 1.289 . S
C135 O127 1.258 . S
C135 O128 1.266 . S
Co136 O139 1.970 . S
Co136 N153 1.989 . S
Co136 O161 1.967 . S
Co136 O168 1.920 . S
Co137 O140 1.966 . S
Co137 N146 2.022 . S
Co137 N154 1.993 . S
Co137 O162 1.941 . S
C138 O139 1.258 . S
C138 O140 1.263 . S
O139 Co136 1.970 . S
O139 C138 1.258 . S
O140 Co137 1.966 . S
O140 C138 1.263 . S
C141 O142 1.235 . S
C141 O168 1.289 . S
O142 C141 1.235 . S
C143 C145 1.400 . S
C143 N146 1.351 . S
C143 C148 1.501 . S
C144 C145 1.387 . S
C144 N147 1.341 . S
C145 C143 1.400 . S
C145 C144 1.387 . S
N146 Co137 2.022 . S
N146 C143 1.351 . S
N146 N147 1.365 . S
N147 C144 1.341 . S
N147 N146 1.365 . S
N147 H167 0.862 . S
C148 C143 1.501 . S
C148 H149 0.961 . S
C148 H150 0.961 . S
C148 H151 0.960 . S
H149 C148 0.961 . S
H150 C148 0.961 . S
H151 C148 0.960 . S
C152 N153 1.342 . S
C152 C156 1.401 . S
C152 C157 1.499 . S
N153 Co136 1.989 . S
N153 C152 1.342 . S
N153 N154 1.388 . S
N154 Co137 1.993 . S
N154 N153 1.388 . S
N154 C155 1.346 . S
C155 N154 1.346 . S
C155 C156 1.396 . S
C155 C165 1.510 . S
C156 C152 1.401 . S
C156 C155 1.396 . S
C157 C152 1.499 . S
C157 H158 0.959 . S
C157 H159 0.960 . S
C157 H160 0.961 . S
H158 C157 0.959 . S
H159 C157 0.960 . S
H160 C157 0.961 . S
O161 Co136 1.967 . S
O161 C169 1.258 . S
O162 Co137 1.941 . S
O162 C169 1.266 . S
H163 C165 0.959 . S
H164 C165 0.961 . S
C165 C155 1.510 . S
C165 H163 0.959 . S
C165 H164 0.961 . S
C165 H166 0.960 . S
H166 C165 0.960 . S
H167 N147 0.862 . S
O168 Co136 1.920 . S
O168 C141 1.289 . S
C169 O161 1.258 . S
C169 O162 1.266 . S
Co170 O173 1.970 . S
Co170 N187 1.989 . S
Co170 O195 1.967 . S
Co170 O202 1.920 . S
Co171 O174 1.966 . S
Co171 N180 2.022 . S
Co171 N188 1.993 . S
Co171 O196 1.941 . S
C172 O173 1.258 . S
C172 O174 1.263 . S
O173 Co170 1.970 . S
O173 C172 1.258 . S
O174 Co171 1.966 . S
O174 C172 1.263 . S
C175 O176 1.235 . S
C175 O202 1.289 . S
O176 C175 1.235 . S
C177 C179 1.400 . S
C177 N180 1.351 . S
C177 C182 1.501 . S
C178 C179 1.387 . S
C178 N181 1.341 . S
C179 C177 1.400 . S
C179 C178 1.387 . S
N180 Co171 2.022 . S
N180 C177 1.351 . S
N180 N181 1.365 . S
N181 C178 1.341 . S
N181 N180 1.365 . S
N181 H201 0.862 . S
C182 C177 1.501 . S
C182 H183 0.961 . S
C182 H184 0.961 . S
C182 H185 0.960 . S
H183 C182 0.961 . S
H184 C182 0.961 . S
H185 C182 0.960 . S
C186 N187 1.342 . S
C186 C190 1.401 . S
C186 C191 1.499 . S
N187 Co170 1.989 . S
N187 C186 1.342 . S
N187 N188 1.388 . S
N188 Co171 1.993 . S
N188 N187 1.388 . S
N188 C189 1.346 . S
C189 N188 1.346 . S
C189 C190 1.396 . S
C189 C199 1.510 . S
C190 C186 1.401 . S
C190 C189 1.396 . S
C191 C186 1.499 . S
C191 H192 0.959 . S
C191 H193 0.960 . S
C191 H194 0.961 . S
H192 C191 0.959 . S
H193 C191 0.960 . S
H194 C191 0.961 . S
O195 Co170 1.967 . S
O195 C203 1.258 . S
O196 Co171 1.941 . S
O196 C203 1.266 . S
H197 C199 0.959 . S
H198 C199 0.961 . S
C199 C189 1.510 . S
C199 H197 0.959 . S
C199 H198 0.961 . S
C199 H200 0.960 . S
H200 C199 0.960 . S
H201 N181 0.862 . S
O202 Co170 1.920 . S
O202 C175 1.289 . S
C203 O195 1.258 . S
C203 O196 1.266 . S
Co204 O207 1.970 . S
Co204 N221 1.989 . S
Co204 O229 1.967 . S
Co204 O236 1.920 . S
Co205 O208 1.966 . S
Co205 N214 2.022 . S
Co205 N222 1.993 . S
Co205 O230 1.941 . S
C206 O207 1.258 . S
C206 O208 1.263 . S
O207 Co204 1.970 . S
O207 C206 1.258 . S
O208 Co205 1.966 . S
O208 C206 1.263 . S
C209 O210 1.235 . S
C209 O236 1.289 . S
O210 C209 1.235 . S
C211 C213 1.400 . S
C211 N214 1.351 . S
C211 C216 1.501 . S
C212 C213 1.387 . S
C212 N215 1.341 . S
C213 C211 1.400 . S
C213 C212 1.387 . S
N214 Co205 2.022 . S
N214 C211 1.351 . S
N214 N215 1.365 . S
N215 C212 1.341 . S
N215 N214 1.365 . S
N215 H235 0.862 . S
C216 C211 1.501 . S
C216 H217 0.961 . S
C216 H218 0.961 . S
C216 H219 0.960 . S
H217 C216 0.961 . S
H218 C216 0.961 . S
H219 C216 0.960 . S
C220 N221 1.342 . S
C220 C224 1.401 . S
C220 C225 1.499 . S
N221 Co204 1.989 . S
N221 C220 1.342 . S
N221 N222 1.388 . S
N222 Co205 1.993 . S
N222 N221 1.388 . S
N222 C223 1.346 . S
C223 N222 1.346 . S
C223 C224 1.396 . S
C223 C233 1.510 . S
C224 C220 1.401 . S
C224 C223 1.396 . S
C225 C220 1.499 . S
C225 H226 0.959 . S
C225 H227 0.960 . S
C225 H228 0.961 . S
H226 C225 0.959 . S
H227 C225 0.960 . S
H228 C225 0.961 . S
O229 Co204 1.967 . S
O229 C237 1.258 . S
O230 Co205 1.941 . S
O230 C237 1.266 . S
H231 C233 0.959 . S
H232 C233 0.961 . S
C233 C223 1.510 . S
C233 H231 0.959 . S
C233 H232 0.961 . S
C233 H234 0.960 . S
H234 C233 0.960 . S
H235 N215 0.862 . S
O236 Co204 1.920 . S
O236 C209 1.289 . S
C237 O229 1.258 . S
C237 O230 1.266 . S
Co238 O241 1.970 . S
Co238 N255 1.989 . S
Co238 O263 1.967 . S
Co238 O270 1.920 . S
Co239 O242 1.966 . S
Co239 N248 2.022 . S
Co239 N256 1.993 . S
Co239 O264 1.941 . S
C240 O241 1.258 . S
C240 O242 1.263 . S
O241 Co238 1.970 . S
O241 C240 1.258 . S
O242 Co239 1.966 . S
O242 C240 1.263 . S
C243 O244 1.235 . S
C243 O270 1.289 . S
O244 C243 1.235 . S
C245 C247 1.400 . S
C245 N248 1.351 . S
C245 C250 1.501 . S
C246 C247 1.387 . S
C246 N249 1.341 . S
C247 C245 1.400 . S
C247 C246 1.387 . S
N248 Co239 2.022 . S
N248 C245 1.351 . S
N248 N249 1.365 . S
N249 C246 1.341 . S
N249 N248 1.365 . S
N249 H269 0.862 . S
C250 C245 1.501 . S
C250 H251 0.961 . S
C250 H252 0.961 . S
C250 H253 0.960 . S
H251 C250 0.961 . S
H252 C250 0.961 . S
H253 C250 0.960 . S
C254 N255 1.342 . S
C254 C258 1.401 . S
C254 C259 1.499 . S
N255 Co238 1.989 . S
N255 C254 1.342 . S
N255 N256 1.388 . S
N256 Co239 1.993 . S
N256 N255 1.388 . S
N256 C257 1.346 . S
C257 N256 1.346 . S
C257 C258 1.396 . S
C257 C267 1.510 . S
C258 C254 1.401 . S
C258 C257 1.396 . S
C259 C254 1.499 . S
C259 H260 0.959 . S
C259 H261 0.960 . S
C259 H262 0.961 . S
H260 C259 0.959 . S
H261 C259 0.960 . S
H262 C259 0.961 . S
O263 Co238 1.967 . S
O263 C271 1.258 . S
O264 Co239 1.941 . S
O264 C271 1.266 . S
H265 C267 0.959 . S
H266 C267 0.961 . S
C267 C257 1.510 . S
C267 H265 0.959 . S
C267 H266 0.961 . S
C267 H268 0.960 . S
H268 C267 0.960 . S
H269 N249 0.862 . S
O270 Co238 1.920 . S
O270 C243 1.289 . S
C271 O263 1.258 . S
C271 O264 1.266 . S
Co272 O275 1.970 . S
Co272 N289 1.989 . S
Co272 O297 1.967 . S
Co272 O304 1.920 . S
Co273 O276 1.966 . S
Co273 N282 2.022 . S
Co273 N290 1.993 . S
Co273 O298 1.941 . S
C274 O275 1.258 . S
C274 O276 1.263 . S
O275 Co272 1.970 . S
O275 C274 1.258 . S
O276 Co273 1.966 . S
O276 C274 1.263 . S
C277 O278 1.235 . S
C277 O304 1.289 . S
O278 C277 1.235 . S
C279 C281 1.400 . S
C279 N282 1.351 . S
C279 C284 1.501 . S
C280 C281 1.387 . S
C280 N283 1.341 . S
C281 C279 1.400 . S
C281 C280 1.387 . S
N282 Co273 2.022 . S
N282 C279 1.351 . S
N282 N283 1.365 . S
N283 C280 1.341 . S
N283 N282 1.365 . S
N283 H303 0.862 . S
C284 C279 1.501 . S
C284 H285 0.961 . S
C284 H286 0.961 . S
C284 H287 0.960 . S
H285 C284 0.961 . S
H286 C284 0.961 . S
H287 C284 0.960 . S
C288 N289 1.342 . S
C288 C292 1.401 . S
C288 C293 1.499 . S
N289 Co272 1.989 . S
N289 C288 1.342 . S
N289 N290 1.388 . S
N290 Co273 1.993 . S
N290 N289 1.388 . S
N290 C291 1.346 . S
C291 N290 1.346 . S
C291 C292 1.396 . S
C291 C301 1.510 . S
C292 C288 1.401 . S
C292 C291 1.396 . S
C293 C288 1.499 . S
C293 H294 0.959 . S
C293 H295 0.960 . S
C293 H296 0.961 . S
H294 C293 0.959 . S
H295 C293 0.960 . S
H296 C293 0.961 . S
O297 Co272 1.967 . S
O297 C305 1.258 . S
O298 Co273 1.941 . S
O298 C305 1.266 . S
H299 C301 0.959 . S
H300 C301 0.961 . S
C301 C291 1.510 . S
C301 H299 0.959 . S
C301 H300 0.961 . S
C301 H302 0.960 . S
H302 C301 0.960 . S
H303 N283 0.862 . S
O304 Co272 1.920 . S
O304 C277 1.289 . S
C305 O297 1.258 . S
C305 O298 1.266 . S
Co306 O309 1.970 . S
Co306 N323 1.989 . S
Co306 O331 1.967 . S
Co306 O338 1.920 . S
Co307 O310 1.966 . S
Co307 N316 2.022 . S
Co307 N324 1.993 . S
Co307 O332 1.941 . S
C308 O309 1.258 . S
C308 O310 1.263 . S
O309 Co306 1.970 . S
O309 C308 1.258 . S
O310 Co307 1.966 . S
O310 C308 1.263 . S
C311 O312 1.235 . S
C311 O338 1.289 . S
O312 C311 1.235 . S
C313 C315 1.400 . S
C313 N316 1.351 . S
C313 C318 1.501 . S
C314 C315 1.387 . S
C314 N317 1.341 . S
C315 C313 1.400 . S
C315 C314 1.387 . S
N316 Co307 2.022 . S
N316 C313 1.351 . S
N316 N317 1.365 . S
N317 C314 1.341 . S
N317 N316 1.365 . S
N317 H337 0.862 . S
C318 C313 1.501 . S
C318 H319 0.961 . S
C318 H320 0.961 . S
C318 H321 0.960 . S
H319 C318 0.961 . S
H320 C318 0.961 . S
H321 C318 0.960 . S
C322 N323 1.342 . S
C322 C326 1.401 . S
C322 C327 1.499 . S
N323 Co306 1.989 . S
N323 C322 1.342 . S
N323 N324 1.388 . S
N324 Co307 1.993 . S
N324 N323 1.388 . S
N324 C325 1.346 . S
C325 N324 1.346 . S
C325 C326 1.396 . S
C325 C335 1.510 . S
C326 C322 1.401 . S
C326 C325 1.396 . S
C327 C322 1.499 . S
C327 H328 0.959 . S
C327 H329 0.960 . S
C327 H330 0.961 . S
H328 C327 0.959 . S
H329 C327 0.960 . S
H330 C327 0.961 . S
O331 Co306 1.967 . S
O331 C339 1.258 . S
O332 Co307 1.941 . S
O332 C339 1.266 . S
H333 C335 0.959 . S
H334 C335 0.961 . S
C335 C325 1.510 . S
C335 H333 0.959 . S
C335 H334 0.961 . S
C335 H336 0.960 . S
H336 C335 0.960 . S
H337 N317 0.862 . S
O338 Co306 1.920 . S
O338 C311 1.289 . S
C339 O331 1.258 . S
C339 O332 1.266 . S
Co340 O343 1.970 . S
Co340 N357 1.989 . S
Co340 O365 1.967 . S
Co340 O372 1.920 . S
Co341 O344 1.966 . S
Co341 N350 2.022 . S
Co341 N358 1.993 . S
Co341 O366 1.941 . S
C342 O343 1.258 . S
C342 O344 1.263 . S
O343 Co340 1.970 . S
O343 C342 1.258 . S
O344 Co341 1.966 . S
O344 C342 1.263 . S
C345 O346 1.235 . S
C345 O372 1.289 . S
O346 C345 1.235 . S
C347 C349 1.400 . S
C347 N350 1.351 . S
C347 C352 1.501 . S
C348 C349 1.387 . S
C348 N351 1.341 . S
C349 C347 1.400 . S
C349 C348 1.387 . S
N350 Co341 2.022 . S
N350 C347 1.351 . S
N350 N351 1.365 . S
N351 C348 1.341 . S
N351 N350 1.365 . S
N351 H371 0.862 . S
C352 C347 1.501 . S
C352 H353 0.961 . S
C352 H354 0.961 . S
C352 H355 0.960 . S
H353 C352 0.961 . S
H354 C352 0.961 . S
H355 C352 0.960 . S
C356 N357 1.342 . S
C356 C360 1.401 . S
C356 C361 1.499 . S
N357 Co340 1.989 . S
N357 C356 1.342 . S
N357 N358 1.388 . S
N358 Co341 1.993 . S
N358 N357 1.388 . S
N358 C359 1.346 . S
C359 N358 1.346 . S
C359 C360 1.396 . S
C359 C369 1.510 . S
C360 C356 1.401 . S
C360 C359 1.396 . S
C361 C356 1.499 . S
C361 H362 0.959 . S
C361 H363 0.960 . S
C361 H364 0.961 . S
H362 C361 0.959 . S
H363 C361 0.960 . S
H364 C361 0.961 . S
O365 Co340 1.967 . S
O365 C373 1.258 . S
O366 Co341 1.941 . S
O366 C373 1.266 . S
H367 C369 0.959 . S
H368 C369 0.961 . S
C369 C359 1.510 . S
C369 H367 0.959 . S
C369 H368 0.961 . S
C369 H370 0.960 . S
H370 C369 0.960 . S
H371 N351 0.862 . S
O372 Co340 1.920 . S
O372 C345 1.289 . S
C373 O365 1.258 . S
C373 O366 1.266 . S
Co374 O377 1.970 . S
Co374 N391 1.989 . S
Co374 O399 1.967 . S
Co374 O406 1.920 . S
Co375 O378 1.966 . S
Co375 N384 2.022 . S
Co375 N392 1.993 . S
Co375 O400 1.941 . S
C376 O377 1.258 . S
C376 O378 1.263 . S
O377 Co374 1.970 . S
O377 C376 1.258 . S
O378 Co375 1.966 . S
O378 C376 1.263 . S
C379 O380 1.235 . S
C379 O406 1.289 . S
O380 C379 1.235 . S
C381 C383 1.400 . S
C381 N384 1.351 . S
C381 C386 1.501 . S
C382 C383 1.387 . S
C382 N385 1.341 . S
C383 C381 1.400 . S
C383 C382 1.387 . S
N384 Co375 2.022 . S
N384 C381 1.351 . S
N384 N385 1.365 . S
N385 C382 1.341 . S
N385 N384 1.365 . S
N385 H405 0.862 . S
C386 C381 1.501 . S
C386 H387 0.961 . S
C386 H388 0.961 . S
C386 H389 0.960 . S
H387 C386 0.961 . S
H388 C386 0.961 . S
H389 C386 0.960 . S
C390 N391 1.342 . S
C390 C394 1.401 . S
C390 C395 1.499 . S
N391 Co374 1.989 . S
N391 C390 1.342 . S
N391 N392 1.388 . S
N392 Co375 1.993 . S
N392 N391 1.388 . S
N392 C393 1.346 . S
C393 N392 1.346 . S
C393 C394 1.396 . S
C393 C403 1.510 . S
C394 C390 1.401 . S
C394 C393 1.396 . S
C395 C390 1.499 . S
C395 H396 0.959 . S
C395 H397 0.960 . S
C395 H398 0.961 . S
H396 C395 0.959 . S
H397 C395 0.960 . S
H398 C395 0.961 . S
O399 Co374 1.967 . S
O399 C407 1.258 . S
O400 Co375 1.941 . S
O400 C407 1.266 . S
H401 C403 0.959 . S
H402 C403 0.961 . S
C403 C393 1.510 . S
C403 H401 0.959 . S
C403 H402 0.961 . S
C403 H404 0.960 . S
H404 C403 0.960 . S
H405 N385 0.862 . S
O406 Co374 1.920 . S
O406 C379 1.289 . S
C407 O399 1.258 . S
C407 O400 1.266 . S
Co408 O411 1.970 . S
Co408 N425 1.989 . S
Co408 O433 1.967 . S
Co408 O440 1.920 . S
Co409 O412 1.966 . S
Co409 N418 2.022 . S
Co409 N426 1.993 . S
Co409 O434 1.941 . S
C410 O411 1.258 . S
C410 O412 1.263 . S
O411 Co408 1.970 . S
O411 C410 1.258 . S
O412 Co409 1.966 . S
O412 C410 1.263 . S
C413 O414 1.235 . S
C413 O440 1.289 . S
O414 C413 1.235 . S
C415 C417 1.400 . S
C415 N418 1.351 . S
C415 C420 1.501 . S
C416 C417 1.387 . S
C416 N419 1.341 . S
C417 C415 1.400 . S
C417 C416 1.387 . S
N418 Co409 2.022 . S
N418 C415 1.351 . S
N418 N419 1.365 . S
N419 C416 1.341 . S
N419 N418 1.365 . S
N419 H439 0.862 . S
C420 C415 1.501 . S
C420 H421 0.961 . S
C420 H422 0.961 . S
C420 H423 0.960 . S
H421 C420 0.961 . S
H422 C420 0.961 . S
H423 C420 0.960 . S
C424 N425 1.342 . S
C424 C428 1.401 . S
C424 C429 1.499 . S
N425 Co408 1.989 . S
N425 C424 1.342 . S
N425 N426 1.388 . S
N426 Co409 1.993 . S
N426 N425 1.388 . S
N426 C427 1.346 . S
C427 N426 1.346 . S
C427 C428 1.396 . S
C427 C437 1.510 . S
C428 C424 1.401 . S
C428 C427 1.396 . S
C429 C424 1.499 . S
C429 H430 0.959 . S
C429 H431 0.960 . S
C429 H432 0.961 . S
H430 C429 0.959 . S
H431 C429 0.960 . S
H432 C429 0.961 . S
O433 Co408 1.967 . S
O433 C441 1.258 . S
O434 Co409 1.941 . S
O434 C441 1.266 . S
H435 C437 0.959 . S
H436 C437 0.961 . S
C437 C427 1.510 . S
C437 H435 0.959 . S
C437 H436 0.961 . S
C437 H438 0.960 . S
H438 C437 0.960 . S
H439 N419 0.862 . S
O440 Co408 1.920 . S
O440 C413 1.289 . S
C441 O433 1.258 . S
C441 O434 1.266 . S
Co442 O445 1.970 . S
Co442 N459 1.989 . S
Co442 O467 1.967 . S
Co442 O474 1.920 . S
Co443 O446 1.966 . S
Co443 N452 2.022 . S
Co443 N460 1.993 . S
Co443 O468 1.941 . S
C444 O445 1.258 . S
C444 O446 1.263 . S
O445 Co442 1.970 . S
O445 C444 1.258 . S
O446 Co443 1.966 . S
O446 C444 1.263 . S
C447 O448 1.235 . S
C447 O474 1.289 . S
O448 C447 1.235 . S
C449 C451 1.400 . S
C449 N452 1.351 . S
C449 C454 1.501 . S
C450 C451 1.387 . S
C450 N453 1.341 . S
C451 C449 1.400 . S
C451 C450 1.387 . S
N452 Co443 2.022 . S
N452 C449 1.351 . S
N452 N453 1.365 . S
N453 C450 1.341 . S
N453 N452 1.365 . S
N453 H473 0.862 . S
C454 C449 1.501 . S
C454 H455 0.961 . S
C454 H456 0.961 . S
C454 H457 0.960 . S
H455 C454 0.961 . S
H456 C454 0.961 . S
H457 C454 0.960 . S
C458 N459 1.342 . S
C458 C462 1.401 . S
C458 C463 1.499 . S
N459 Co442 1.989 . S
N459 C458 1.342 . S
N459 N460 1.388 . S
N460 Co443 1.993 . S
N460 N459 1.388 . S
N460 C461 1.346 . S
C461 N460 1.346 . S
C461 C462 1.396 . S
C461 C471 1.510 . S
C462 C458 1.401 . S
C462 C461 1.396 . S
C463 C458 1.499 . S
C463 H464 0.959 . S
C463 H465 0.960 . S
C463 H466 0.961 . S
H464 C463 0.959 . S
H465 C463 0.960 . S
H466 C463 0.961 . S
O467 Co442 1.967 . S
O467 C475 1.258 . S
O468 Co443 1.941 . S
O468 C475 1.266 . S
H469 C471 0.959 . S
H470 C471 0.961 . S
C471 C461 1.510 . S
C471 H469 0.959 . S
C471 H470 0.961 . S
C471 H472 0.960 . S
H472 C471 0.960 . S
H473 N453 0.862 . S
O474 Co442 1.920 . S
O474 C447 1.289 . S
C475 O467 1.258 . S
C475 O468 1.266 . S
Co476 O479 1.970 . S
Co476 N493 1.989 . S
Co476 O501 1.967 . S
Co476 O508 1.920 . S
Co477 O480 1.966 . S
Co477 N486 2.022 . S
Co477 N494 1.993 . S
Co477 O502 1.941 . S
C478 O479 1.258 . S
C478 O480 1.263 . S
O479 Co476 1.970 . S
O479 C478 1.258 . S
O480 Co477 1.966 . S
O480 C478 1.263 . S
C481 O482 1.235 . S
C481 O508 1.289 . S
O482 C481 1.235 . S
C483 C485 1.400 . S
C483 N486 1.351 . S
C483 C488 1.501 . S
C484 C485 1.387 . S
C484 N487 1.341 . S
C485 C483 1.400 . S
C485 C484 1.387 . S
N486 Co477 2.022 . S
N486 C483 1.351 . S
N486 N487 1.365 . S
N487 C484 1.341 . S
N487 N486 1.365 . S
N487 H507 0.862 . S
C488 C483 1.501 . S
C488 H489 0.961 . S
C488 H490 0.961 . S
C488 H491 0.960 . S
H489 C488 0.961 . S
H490 C488 0.961 . S
H491 C488 0.960 . S
C492 N493 1.342 . S
C492 C496 1.401 . S
C492 C497 1.499 . S
N493 Co476 1.989 . S
N493 C492 1.342 . S
N493 N494 1.388 . S
N494 Co477 1.993 . S
N494 N493 1.388 . S
N494 C495 1.346 . S
C495 N494 1.346 . S
C495 C496 1.396 . S
C495 C505 1.510 . S
C496 C492 1.401 . S
C496 C495 1.396 . S
C497 C492 1.499 . S
C497 H498 0.959 . S
C497 H499 0.960 . S
C497 H500 0.961 . S
H498 C497 0.959 . S
H499 C497 0.960 . S
H500 C497 0.961 . S
O501 Co476 1.967 . S
O501 C509 1.258 . S
O502 Co477 1.941 . S
O502 C509 1.266 . S
H503 C505 0.959 . S
H504 C505 0.961 . S
C505 C495 1.510 . S
C505 H503 0.959 . S
C505 H504 0.961 . S
C505 H506 0.960 . S
H506 C505 0.960 . S
H507 N487 0.862 . S
O508 Co476 1.920 . S
O508 C481 1.289 . S
C509 O501 1.258 . S
C509 O502 1.266 . S
Co510 O513 1.970 . S
Co510 N527 1.989 . S
Co510 O535 1.967 . S
Co510 O542 1.920 . S
Co511 O514 1.966 . S
Co511 N520 2.022 . S
Co511 N528 1.993 . S
Co511 O536 1.941 . S
C512 O513 1.258 . S
C512 O514 1.263 . S
O513 Co510 1.970 . S
O513 C512 1.258 . S
O514 Co511 1.966 . S
O514 C512 1.263 . S
C515 O516 1.235 . S
C515 O542 1.289 . S
O516 C515 1.235 . S
C517 C519 1.400 . S
C517 N520 1.351 . S
C517 C522 1.501 . S
C518 C519 1.387 . S
C518 N521 1.341 . S
C519 C517 1.400 . S
C519 C518 1.387 . S
N520 Co511 2.022 . S
N520 C517 1.351 . S
N520 N521 1.365 . S
N521 C518 1.341 . S
N521 N520 1.365 . S
N521 H541 0.862 . S
C522 C517 1.501 . S
C522 H523 0.961 . S
C522 H524 0.961 . S
C522 H525 0.960 . S
H523 C522 0.961 . S
H524 C522 0.961 . S
H525 C522 0.960 . S
C526 N527 1.342 . S
C526 C530 1.401 . S
C526 C531 1.499 . S
N527 Co510 1.989 . S
N527 C526 1.342 . S
N527 N528 1.388 . S
N528 Co511 1.993 . S
N528 N527 1.388 . S
N528 C529 1.346 . S
C529 N528 1.346 . S
C529 C530 1.396 . S
C529 C539 1.510 . S
C530 C526 1.401 . S
C530 C529 1.396 . S
C531 C526 1.499 . S
C531 H532 0.959 . S
C531 H533 0.960 . S
C531 H534 0.961 . S
H532 C531 0.959 . S
H533 C531 0.960 . S
H534 C531 0.961 . S
O535 Co510 1.967 . S
O535 C543 1.258 . S
O536 Co511 1.941 . S
O536 C543 1.266 . S
H537 C539 0.959 . S
H538 C539 0.961 . S
C539 C529 1.510 . S
C539 H537 0.959 . S
C539 H538 0.961 . S
C539 H540 0.960 . S
H540 C539 0.960 . S
H541 N521 0.862 . S
O542 Co510 1.920 . S
O542 C515 1.289 . S
C543 O535 1.258 . S
C543 O536 1.266 . S
H544 C556 0.930 . S
H545 C558 0.930 . S
H546 C559 0.930 . S
H547 C563 0.959 . S
H548 C563 0.959 . S
H549 C563 0.961 . S
H550 C564 0.960 1_655 S
H551 C564 0.961 . S
H552 C564 0.959 . S
H553 C567 0.929 . S
H554 C568 0.931 . S
H555 C570 0.930 . S
C556 H544 0.930 . S
C556 C557 1.399 . S
C556 C561 1.399 . S
C557 C556 1.399 . S
C557 C558 1.376 . S
C558 H545 0.930 . S
C558 C557 1.376 . S
C558 C559 1.388 1_655 S
C559 H546 0.930 . S
C559 C558 1.388 1_455 S
C559 C560 1.390 . S
C560 C559 1.390 . S
C560 C561 1.394 1_455 S
C560 C566 1.465 . S
C561 C556 1.399 . S
C561 C560 1.394 1_655 S
C561 C562 1.516 . S
C562 C561 1.516 . S
C562 C563 1.502 . S
C562 C564 1.561 1_655 S
C562 C565 1.526 1_655 S
C563 H547 0.959 . S
C563 H548 0.959 . S
C563 H549 0.961 . S
C563 C562 1.502 . S
C564 H550 0.960 1_455 S
C564 H551 0.961 . S
C564 H552 0.959 . S
C564 C562 1.561 1_455 S
C565 C562 1.526 1_455 S
C565 C566 1.396 . S
C565 C570 1.390 . S
C566 C560 1.465 . S
C566 C565 1.396 . S
C566 C567 1.399 . S
C567 H553 0.929 . S
C567 C566 1.399 . S
C567 C568 1.385 . S
C568 H554 0.931 . S
C568 C567 1.385 . S
C568 C569 1.389 . S
C569 C568 1.389 . S
C569 C570 1.387 . S
C570 H555 0.930 . S
C570 C565 1.390 . S
C570 C569 1.387 . S
H571 C583 0.930 . S
H572 C585 0.930 . S
H573 C586 0.930 . S
H574 C590 0.959 . S
H575 C590 0.959 . S
H576 C590 0.961 . S
H577 C591 0.960 . S
H578 C591 0.961 . S
H579 C591 0.959 . S
H580 C594 0.929 . S
H581 C595 0.931 . S
H582 C597 0.930 . S
C583 H571 0.930 . S
C583 C584 1.399 . S
C583 C588 1.399 . S
C584 C583 1.399 . S
C584 C585 1.376 . S
C585 H572 0.930 . S
C585 C584 1.376 . S
C585 C586 1.388 . S
C586 H573 0.930 . S
C586 C585 1.388 . S
C586 C587 1.390 . S
C587 C586 1.390 . S
C587 C588 1.394 . S
C587 C593 1.465 . S
C588 C583 1.399 . S
C588 C587 1.394 . S
C588 C589 1.516 . S
C589 C588 1.516 . S
C589 C590 1.502 . S
C589 C591 1.561 . S
C589 C592 1.526 . S
C590 H574 0.959 . S
C590 H575 0.959 . S
C590 H576 0.961 . S
C590 C589 1.502 . S
C591 H577 0.960 . S
C591 H578 0.961 . S
C591 H579 0.959 . S
C591 C589 1.561 . S
C592 C589 1.526 . S
C592 C593 1.396 . S
C592 C597 1.390 . S
C593 C587 1.465 . S
C593 C592 1.396 . S
C593 C594 1.399 . S
C594 H580 0.929 . S
C594 C593 1.399 . S
C594 C595 1.385 . S
C595 H581 0.931 . S
C595 C594 1.385 . S
C595 C596 1.389 . S
C596 C595 1.389 . S
C596 C597 1.387 . S
C597 H582 0.930 . S
C597 C592 1.390 . S
C597 C596 1.387 . S
H598 C610 0.930 . S
H599 C612 0.930 . S
H600 C613 0.930 . S
H601 C617 0.959 . S
H602 C617 0.959 . S
H603 C617 0.961 . S
H604 C618 0.960 . S
H605 C618 0.961 . S
H606 C618 0.959 . S
H607 C621 0.929 . S
H608 C622 0.931 . S
H609 C624 0.930 . S
C610 H598 0.930 . S
C610 C611 1.399 . S
C610 C615 1.399 . S
C611 C610 1.399 . S
C611 C612 1.376 . S
C612 H599 0.930 . S
C612 C611 1.376 . S
C612 C613 1.388 . S
C613 H600 0.930 . S
C613 C612 1.388 . S
C613 C614 1.390 . S
C614 C613 1.390 . S
C614 C615 1.394 . S
C614 C620 1.465 1_655 S
C615 C610 1.399 . S
C615 C614 1.394 . S
C615 C616 1.516 1_655 S
C616 C615 1.516 1_455 S
C616 C617 1.502 1_455 S
C616 C618 1.561 . S
C616 C619 1.526 . S
C617 H601 0.959 . S
C617 H602 0.959 . S
C617 H603 0.961 . S
C617 C616 1.502 1_655 S
C618 H604 0.960 . S
C618 H605 0.961 . S
C618 H606 0.959 . S
C618 C616 1.561 . S
C619 C616 1.526 . S
C619 C620 1.396 . S
C619 C624 1.390 . S
C620 C614 1.465 1_455 S
C620 C619 1.396 . S
C620 C621 1.399 . S
C621 H607 0.929 . S
C621 C620 1.399 . S
C621 C622 1.385 . S
C622 H608 0.931 . S
C622 C621 1.385 . S
C622 C623 1.389 . S
C623 C622 1.389 . S
C623 C624 1.387 . S
C624 H609 0.930 . S
C624 C619 1.390 . S
C624 C623 1.387 . S
H625 C637 0.930 . S
H626 C639 0.930 . S
H627 C640 0.930 . S
H628 C644 0.959 . S
H629 C644 0.959 . S
H630 C644 0.961 . S
H631 C645 0.960 . S
H632 C645 0.961 . S
H633 C645 0.959 . S
H634 C648 0.929 . S
H635 C649 0.931 . S
H636 C651 0.930 . S
C637 H625 0.930 . S
C637 C638 1.399 . S
C637 C642 1.399 . S
C638 C637 1.399 . S
C638 C639 1.376 . S
C639 H626 0.930 . S
C639 C638 1.376 . S
C639 C640 1.388 . S
C640 H627 0.930 . S
C640 C639 1.388 . S
C640 C641 1.390 . S
C641 C640 1.390 . S
C641 C642 1.394 . S
C641 C647 1.465 . S
C642 C637 1.399 . S
C642 C641 1.394 . S
C642 C643 1.516 . S
C643 C642 1.516 . S
C643 C644 1.502 . S
C643 C645 1.561 . S
C643 C646 1.526 . S
C644 H628 0.959 . S
C644 H629 0.959 . S
C644 H630 0.961 . S
C644 C643 1.502 . S
C645 H631 0.960 . S
C645 H632 0.961 . S
C645 H633 0.959 . S
C645 C643 1.561 . S
C646 C643 1.526 . S
C646 C647 1.396 . S
C646 C651 1.390 . S
C647 C641 1.465 . S
C647 C646 1.396 . S
C647 C648 1.399 . S
C648 H634 0.929 . S
C648 C647 1.399 . S
C648 C649 1.385 . S
C649 H635 0.931 . S
C649 C648 1.385 . S
C649 C650 1.389 . S
C650 C649 1.389 . S
C650 C651 1.387 . S
C651 H636 0.930 . S
C651 C646 1.390 . S
C651 C650 1.387 . S
H652 C664 0.930 . S
H653 C666 0.930 . S
H654 C667 0.930 . S
H655 C671 0.959 . S
H656 C671 0.959 . S
H657 C671 0.961 . S
H658 C672 0.960 . S
H659 C672 0.961 . S
H660 C672 0.959 . S
H661 C675 0.929 . S
H662 C676 0.931 . S
H663 C678 0.930 . S
C664 H652 0.930 . S
C664 C665 1.399 . S
C664 C669 1.399 . S
C665 C664 1.399 . S
C665 C666 1.376 . S
C666 H653 0.930 . S
C666 C665 1.376 . S
C666 C667 1.388 . S
C667 H654 0.930 . S
C667 C666 1.388 . S
C667 C668 1.390 . S
C668 C667 1.390 . S
C668 C669 1.394 . S
C668 C674 1.465 . S
C669 C664 1.399 . S
C669 C668 1.394 . S
C669 C670 1.516 . S
C670 C669 1.516 . S
C670 C671 1.502 . S
C670 C672 1.561 . S
C670 C673 1.526 . S
C671 H655 0.959 . S
C671 H656 0.959 . S
C671 H657 0.961 . S
C671 C670 1.502 . S
C672 H658 0.960 . S
C672 H659 0.961 . S
C672 H660 0.959 . S
C672 C670 1.561 . S
C673 C670 1.526 . S
C673 C674 1.396 . S
C673 C678 1.390 . S
C674 C668 1.465 . S
C674 C673 1.396 . S
C674 C675 1.399 . S
C675 H661 0.929 . S
C675 C674 1.399 . S
C675 C676 1.385 . S
C676 H662 0.931 . S
C676 C675 1.385 . S
C676 C677 1.389 . S
C677 C676 1.389 . S
C677 C678 1.387 . S
C678 H663 0.930 . S
C678 C673 1.390 . S
C678 C677 1.387 . S
H679 C691 0.930 . S
H680 C693 0.930 . S
H681 C694 0.930 . S
H682 C698 0.959 . S
H683 C698 0.959 . S
H684 C698 0.961 . S
H685 C699 0.960 . S
H686 C699 0.961 . S
H687 C699 0.959 . S
H688 C702 0.929 . S
H689 C703 0.931 . S
H690 C705 0.930 . S
C691 H679 0.930 . S
C691 C692 1.399 . S
C691 C696 1.399 . S
C692 C691 1.399 . S
C692 C693 1.376 . S
C693 H680 0.930 . S
C693 C692 1.376 . S
C693 C694 1.388 . S
C694 H681 0.930 . S
C694 C693 1.388 . S
C694 C695 1.390 . S
C695 C694 1.390 . S
C695 C696 1.394 . S
C695 C701 1.475 . S
C696 C691 1.399 . S
C696 C695 1.394 . S
C696 C697 1.516 1_655 S
C697 C696 1.516 1_455 S
C697 C698 1.502 . S
C697 C699 1.561 . S
C697 C700 1.526 . S
C698 H682 0.959 . S
C698 H683 0.959 . S
C698 H684 0.961 . S
C698 C697 1.502 . S
C699 H685 0.960 . S
C699 H686 0.961 . S
C699 H687 0.959 . S
C699 C697 1.561 . S
C700 C697 1.526 . S
C700 C701 1.380 1_455 S
C700 C705 1.390 . S
C701 C695 1.475 . S
C701 C700 1.380 1_655 S
C701 C702 1.403 . S
C702 H688 0.929 . S
C702 C701 1.403 . S
C702 C703 1.385 1_655 S
C703 H689 0.931 . S
C703 C702 1.385 1_455 S
C703 C704 1.389 . S
C704 C703 1.389 . S
C704 C705 1.387 . S
C705 H690 0.930 . S
C705 C700 1.390 . S
C705 C704 1.387 . S
H706 C718 0.930 . S
H707 C720 0.930 . S
H708 C721 0.930 . S
H709 C725 0.959 . S
H710 C725 0.959 . S
H711 C725 0.961 . S
H712 C726 0.960 . S
H713 C726 0.961 . S
H714 C726 0.959 . S
H715 C729 0.929 . S
H716 C730 0.931 . S
H717 C732 0.930 . S
C718 H706 0.930 . S
C718 C719 1.399 . S
C718 C723 1.399 . S
C719 C718 1.399 . S
C719 C720 1.376 . S
C720 H707 0.930 . S
C720 C719 1.376 . S
C720 C721 1.388 . S
C721 H708 0.930 . S
C721 C720 1.388 . S
C721 C722 1.390 . S
C722 C721 1.390 . S
C722 C723 1.394 . S
C722 C728 1.465 . S
C723 C718 1.399 . S
C723 C722 1.394 . S
C723 C724 1.516 . S
C724 C723 1.516 . S
C724 C725 1.502 . S
C724 C726 1.561 . S
C724 C727 1.526 . S
C725 H709 0.959 . S
C725 H710 0.959 . S
C725 H711 0.961 . S
C725 C724 1.502 . S
C726 H712 0.960 . S
C726 H713 0.961 . S
C726 H714 0.959 . S
C726 C724 1.561 . S
C727 C724 1.526 . S
C727 C728 1.396 . S
C727 C732 1.390 . S
C728 C722 1.465 . S
C728 C727 1.396 . S
C728 C729 1.399 . S
C729 H715 0.929 . S
C729 C728 1.399 . S
C729 C730 1.385 . S
C730 H716 0.931 . S
C730 C729 1.385 . S
C730 C731 1.389 . S
C731 C730 1.389 . S
C731 C732 1.387 . S
C732 H717 0.930 . S
C732 C727 1.390 . S
C732 C731 1.387 . S
H733 C745 0.930 . S
H734 C747 0.930 . S
H735 C748 0.930 1_455 S
H736 C752 0.959 . S
H737 C752 0.959 . S
H738 C752 0.961 . S
H739 C753 0.960 1_655 S
H740 C753 0.961 . S
H741 C753 0.959 . S
H742 C756 0.929 . S
H743 C757 0.931 . S
H744 C759 0.930 . S
C745 H733 0.930 . S
C745 C746 1.399 . S
C745 C750 1.399 . S
C746 C745 1.399 . S
C746 C747 1.376 . S
C747 H734 0.930 . S
C747 C746 1.376 . S
C747 C748 1.388 . S
C748 H735 0.930 1_655 S
C748 C747 1.388 . S
C748 C749 1.390 . S
C749 C748 1.390 . S
C749 C750 1.396 . S
C749 C755 1.463 1_655 S
C750 C745 1.399 . S
C750 C749 1.396 . S
C750 C751 1.516 . S
C751 C750 1.516 . S
C751 C752 1.502 . S
C751 C753 1.561 1_655 S
C751 C754 1.526 1_655 S
C752 H736 0.959 . S
C752 H737 0.959 . S
C752 H738 0.961 . S
C752 C751 1.502 . S
C753 H739 0.960 1_455 S
C753 H740 0.961 . S
C753 H741 0.959 . S
C753 C751 1.561 1_455 S
C754 C751 1.526 1_455 S
C754 C755 1.396 . S
C754 C759 1.390 . S
C755 C749 1.463 1_455 S
C755 C754 1.396 . S
C755 C756 1.399 . S
C756 H742 0.929 . S
C756 C755 1.399 . S
C756 C757 1.385 . S
C757 H743 0.931 . S
C757 C756 1.385 . S
C757 C758 1.389 . S
C758 C757 1.389 . S
C758 C759 1.387 . S
C759 H744 0.930 . S
C759 C754 1.390 . S
C759 C758 1.387 . S
H760 C772 0.930 . S
H761 C774 0.930 . S
H762 C775 0.930 . S
H763 C779 0.959 . S
H764 C779 0.959 . S
H765 C779 0.961 . S
H766 C780 0.960 . S
H767 C780 0.961 . S
H768 C780 0.959 . S
H769 C783 0.929 . S
H770 C784 0.931 . S
H771 C786 0.930 . S
C772 H760 0.930 . S
C772 C773 1.399 . S
C772 C777 1.399 . S
C773 C772 1.399 . S
C773 C774 1.376 . S
C774 H761 0.930 . S
C774 C773 1.376 . S
C774 C775 1.388 . S
C775 H762 0.930 . S
C775 C774 1.388 . S
C775 C776 1.390 . S
C776 C775 1.390 . S
C776 C777 1.394 . S
C776 C782 1.465 . S
C777 C772 1.399 . S
C777 C776 1.394 . S
C777 C778 1.516 . S
C778 C777 1.516 . S
C778 C779 1.502 . S
C778 C780 1.561 . S
C778 C781 1.526 . S
C779 H763 0.959 . S
C779 H764 0.959 . S
C779 H765 0.961 . S
C779 C778 1.502 . S
C780 H766 0.960 . S
C780 H767 0.961 . S
C780 H768 0.959 . S
C780 C778 1.561 . S
C781 C778 1.526 . S
C781 C782 1.396 . S
C781 C786 1.390 . S
C782 C776 1.465 . S
C782 C781 1.396 . S
C782 C783 1.399 . S
C783 H769 0.929 . S
C783 C782 1.399 . S
C783 C784 1.385 . S
C784 H770 0.931 . S
C784 C783 1.385 . S
C784 C785 1.389 . S
C785 C784 1.389 . S
C785 C786 1.387 . S
C786 H771 0.930 . S
C786 C781 1.390 . S
C786 C785 1.387 . S
H787 C799 0.930 . S
H788 C801 0.930 . S
H789 C802 0.930 . S
H790 C806 0.959 . S
H791 C806 0.959 . S
H792 C806 0.961 . S
H793 C807 0.960 . S
H794 C807 0.961 . S
H795 C807 0.959 . S
H796 C810 0.929 . S
H797 C811 0.931 . S
H798 C813 0.930 . S
C799 H787 0.930 . S
C799 C800 1.399 . S
C799 C804 1.399 . S
C800 C799 1.399 . S
C800 C801 1.376 . S
C801 H788 0.930 . S
C801 C800 1.376 . S
C801 C802 1.388 . S
C802 H789 0.930 . S
C802 C801 1.388 . S
C802 C803 1.390 . S
C803 C802 1.390 . S
C803 C804 1.394 . S
C803 C809 1.465 . S
C804 C799 1.399 . S
C804 C803 1.394 . S
C804 C805 1.516 . S
C805 C804 1.516 . S
C805 C806 1.502 . S
C805 C807 1.561 . S
C805 C808 1.526 . S
C806 H790 0.959 . S
C806 H791 0.959 . S
C806 H792 0.961 . S
C806 C805 1.502 . S
C807 H793 0.960 . S
C807 H794 0.961 . S
C807 H795 0.959 . S
C807 C805 1.561 . S
C808 C805 1.526 . S
C808 C809 1.396 . S
C808 C813 1.390 . S
C809 C803 1.465 . S
C809 C808 1.396 . S
C809 C810 1.399 . S
C810 H796 0.929 . S
C810 C809 1.399 . S
C810 C811 1.385 . S
C811 H797 0.931 . S
C811 C810 1.385 . S
C811 C812 1.389 . S
C812 C811 1.389 . S
C812 C813 1.387 . S
C813 H798 0.930 . S
C813 C808 1.390 . S
C813 C812 1.387 . S
H814 C826 0.930 . S
H815 C828 0.930 . S
H816 C829 0.930 . S
H817 C833 0.959 . S
H818 C833 0.959 . S
H819 C833 0.961 . S
H820 C834 0.960 . S
H821 C834 0.961 . S
H822 C834 0.959 . S
H823 C837 0.929 . S
H824 C838 0.931 . S
H825 C840 0.930 . S
C826 H814 0.930 . S
C826 C827 1.399 . S
C826 C831 1.399 . S
C827 C826 1.399 . S
C827 C828 1.376 . S
C828 H815 0.930 . S
C828 C827 1.376 . S
C828 C829 1.388 . S
C829 H816 0.930 . S
C829 C828 1.388 . S
C829 C830 1.390 . S
C830 C829 1.390 . S
C830 C831 1.394 . S
C830 C836 1.465 . S
C831 C826 1.399 . S
C831 C830 1.394 . S
C831 C832 1.516 . S
C832 C831 1.516 . S
C832 C833 1.502 . S
C832 C834 1.561 . S
C832 C835 1.526 . S
C833 H817 0.959 . S
C833 H818 0.959 . S
C833 H819 0.961 . S
C833 C832 1.502 . S
C834 H820 0.960 . S
C834 H821 0.961 . S
C834 H822 0.959 . S
C834 C832 1.561 . S
C835 C832 1.526 . S
C835 C836 1.396 . S
C835 C840 1.390 . S
C836 C830 1.465 . S
C836 C835 1.396 . S
C836 C837 1.399 . S
C837 H823 0.929 . S
C837 C836 1.399 . S
C837 C838 1.385 . S
C838 H824 0.931 . S
C838 C837 1.385 . S
C838 C839 1.389 . S
C839 C838 1.389 . S
C839 C840 1.387 . S
C840 H825 0.930 . S
C840 C835 1.390 . S
C840 C839 1.387 . S
H841 C853 0.930 . S
H842 C855 0.930 . S
H843 C856 0.930 . S
H844 C860 0.959 . S
H845 C860 0.959 . S
H846 C860 0.961 . S
H847 C861 0.960 . S
H848 C861 0.961 . S
H849 C861 0.959 . S
H850 C864 0.929 . S
H851 C865 0.931 . S
H852 C867 0.930 . S
C853 H841 0.930 . S
C853 C854 1.399 . S
C853 C858 1.399 . S
C854 C853 1.399 . S
C854 C855 1.376 . S
C855 H842 0.930 . S
C855 C854 1.376 . S
C855 C856 1.388 . S
C856 H843 0.930 . S
C856 C855 1.388 . S
C856 C857 1.390 . S
C857 C856 1.390 . S
C857 C858 1.394 . S
C857 C863 1.465 . S
C858 C853 1.399 . S
C858 C857 1.394 . S
C858 C859 1.516 . S
C859 C858 1.516 . S
C859 C860 1.502 . S
C859 C861 1.561 . S
C859 C862 1.526 . S
C860 H844 0.959 . S
C860 H845 0.959 . S
C860 H846 0.961 . S
C860 C859 1.502 . S
C861 H847 0.960 . S
C861 H848 0.961 . S
C861 H849 0.959 . S
C861 C859 1.561 . S
C862 C859 1.526 . S
C862 C863 1.396 . S
C862 C867 1.390 . S
C863 C857 1.465 . S
C863 C862 1.396 . S
C863 C864 1.399 . S
C864 H850 0.929 . S
C864 C863 1.399 . S
C864 C865 1.385 . S
C865 H851 0.931 . S
C865 C864 1.385 . S
C865 C866 1.389 . S
C866 C865 1.389 . S
C866 C867 1.387 . S
C867 H852 0.930 . S
C867 C862 1.390 . S
C867 C866 1.387 . S
H868 C880 0.930 . S
H869 C882 0.930 . S
H870 C883 0.930 . S
H871 C887 0.959 . S
H872 C887 0.959 . S
H873 C887 0.961 . S
H874 C888 0.960 . S
H875 C888 0.961 . S
H876 C888 0.959 . S
H877 C891 0.929 . S
H878 C892 0.931 . S
H879 C894 0.930 . S
C880 H868 0.930 . S
C880 C881 1.399 . S
C880 C885 1.399 . S
C881 C880 1.399 . S
C881 C882 1.376 . S
C882 H869 0.930 . S
C882 C881 1.376 . S
C882 C883 1.388 . S
C883 H870 0.930 . S
C883 C882 1.388 . S
C883 C884 1.390 . S
C884 C883 1.390 . S
C884 C885 1.394 . S
C884 C890 1.465 . S
C885 C880 1.399 . S
C885 C884 1.394 . S
C885 C886 1.516 . S
C886 C885 1.516 . S
C886 C887 1.502 . S
C886 C888 1.561 . S
C886 C889 1.526 . S
C887 H871 0.959 . S
C887 H872 0.959 . S
C887 H873 0.961 . S
C887 C886 1.502 . S
C888 H874 0.960 . S
C888 H875 0.961 . S
C888 H876 0.959 . S
C888 C886 1.561 . S
C889 C886 1.526 . S
C889 C890 1.396 . S
C889 C894 1.390 . S
C890 C884 1.465 . S
C890 C889 1.396 . S
C890 C891 1.399 . S
C891 H877 0.929 . S
C891 C890 1.399 . S
C891 C892 1.385 . S
C892 H878 0.931 . S
C892 C891 1.385 . S
C892 C893 1.389 . S
C893 C892 1.389 . S
C893 C894 1.387 . S
C894 H879 0.930 . S
C894 C889 1.390 . S
C894 C893 1.387 . S
H895 C907 0.930 . S
H896 C909 0.930 . S
H897 C910 0.930 . S
H898 C914 0.959 . S
H899 C914 0.959 . S
H900 C914 0.961 . S
H901 C915 0.960 . S
H902 C915 0.961 . S
H903 C915 0.959 . S
H904 C918 0.929 . S
H905 C919 0.931 . S
H906 C921 0.930 . S
C907 H895 0.930 . S
C907 C908 1.399 . S
C907 C912 1.399 . S
C908 C907 1.399 . S
C908 C909 1.376 . S
C909 H896 0.930 . S
C909 C908 1.376 . S
C909 C910 1.388 . S
C910 H897 0.930 . S
C910 C909 1.388 . S
C910 C911 1.390 . S
C911 C910 1.390 . S
C911 C912 1.394 . S
C911 C917 1.465 . S
C912 C907 1.399 . S
C912 C911 1.394 . S
C912 C913 1.516 . S
C913 C912 1.516 . S
C913 C914 1.502 . S
C913 C915 1.561 . S
C913 C916 1.526 . S
C914 H898 0.959 . S
C914 H899 0.959 . S
C914 H900 0.961 . S
C914 C913 1.502 . S
C915 H901 0.960 . S
C915 H902 0.961 . S
C915 H903 0.959 . S
C915 C913 1.561 . S
C916 C913 1.526 . S
C916 C917 1.396 . S
C916 C921 1.390 . S
C917 C911 1.465 . S
C917 C916 1.396 . S
C917 C918 1.399 . S
C918 H904 0.929 . S
C918 C917 1.399 . S
C918 C919 1.385 . S
C919 H905 0.931 . S
C919 C918 1.385 . S
C919 C920 1.389 . S
C920 C919 1.389 . S
C920 C921 1.387 . S
C921 H906 0.930 . S
C921 C916 1.390 . S
C921 C920 1.387 . S
H922 C934 0.930 . S
H923 C936 0.930 . S
H924 C937 0.930 . S
H925 C941 0.959 . S
H926 C941 0.959 . S
H927 C941 0.961 . S
H928 C942 0.960 . S
H929 C942 0.961 . S
H930 C942 0.959 . S
H931 C945 0.929 . S
H932 C946 0.931 . S
H933 C948 0.930 . S
C934 H922 0.930 . S
C934 C935 1.399 . S
C934 C939 1.399 . S
C935 C934 1.399 . S
C935 C936 1.376 . S
C936 H923 0.930 . S
C936 C935 1.376 . S
C936 C937 1.388 . S
C937 H924 0.930 . S
C937 C936 1.388 . S
C937 C938 1.390 . S
C938 C937 1.390 . S
C938 C939 1.394 . S
C938 C944 1.465 . S
C939 C934 1.399 . S
C939 C938 1.394 . S
C939 C940 1.516 . S
C940 C939 1.516 . S
C940 C941 1.502 . S
C940 C942 1.561 . S
C940 C943 1.526 . S
C941 H925 0.959 . S
C941 H926 0.959 . S
C941 H927 0.961 . S
C941 C940 1.502 . S
C942 H928 0.960 . S
C942 H929 0.961 . S
C942 H930 0.959 . S
C942 C940 1.561 . S
C943 C940 1.526 . S
C943 C944 1.396 . S
C943 C948 1.390 . S
C944 C938 1.465 . S
C944 C943 1.396 . S
C944 C945 1.399 . S
C945 H931 0.929 . S
C945 C944 1.399 . S
C945 C946 1.385 . S
C946 H932 0.931 . S
C946 C945 1.385 . S
C946 C947 1.389 . S
C947 C946 1.389 . S
C947 C948 1.387 . S
C948 H933 0.930 . S
C948 C943 1.390 . S
C948 C947 1.387 . S
H949 C961 0.930 . S
H950 C963 0.930 . S
H951 C964 0.930 . S
H952 C968 0.959 . S
H953 C968 0.959 . S
H954 C968 0.961 . S
H955 C969 0.960 . S
H956 C969 0.961 . S
H957 C969 0.959 . S
H958 C972 0.929 . S
H959 C973 0.931 . S
H960 C975 0.930 . S
C961 H949 0.930 . S
C961 C962 1.399 . S
C961 C966 1.399 . S
C962 C961 1.399 . S
C962 C963 1.376 . S
C963 H950 0.930 . S
C963 C962 1.376 . S
C963 C964 1.388 . S
C964 H951 0.930 . S
C964 C963 1.388 . S
C964 C965 1.390 . S
C965 C964 1.390 . S
C965 C966 1.394 . S
C965 C971 1.465 . S
C966 C961 1.399 . S
C966 C965 1.394 . S
C966 C967 1.516 . S
C967 C966 1.516 . S
C967 C968 1.502 . S
C967 C969 1.561 . S
C967 C970 1.526 . S
C968 H952 0.959 . S
C968 H953 0.959 . S
C968 H954 0.961 . S
C968 C967 1.502 . S
C969 H955 0.960 . S
C969 H956 0.961 . S
C969 H957 0.959 . S
C969 C967 1.561 . S
C970 C967 1.526 . S
C970 C971 1.396 . S
C970 C975 1.390 . S
C971 C965 1.465 . S
C971 C970 1.396 . S
C971 C972 1.399 . S
C972 H958 0.929 . S
C972 C971 1.399 . S
C972 C973 1.385 . S
C973 H959 0.931 . S
C973 C972 1.385 . S
C973 C974 1.389 . S
C974 C973 1.389 . S
C974 C975 1.387 . S
C975 H960 0.930 . S
C975 C970 1.390 . S
C975 C974 1.387 . S
H976 C988 0.930 . S
H977 C990 0.930 . S
H978 C991 0.930 . S
H979 C995 0.959 . S
H980 C995 0.959 . S
H981 C995 0.961 . S
H982 C996 0.960 . S
H983 C996 0.961 . S
H984 C996 0.959 . S
H985 C999 0.929 . S
H986 C1000 0.931 . S
H987 C1002 0.930 1_545 S
C988 H976 0.930 . S
C988 C989 1.399 . S
C988 C993 1.399 . S
C989 C988 1.399 . S
C989 C990 1.376 1_545 S
C990 H977 0.930 . S
C990 C989 1.376 1_565 S
C990 C991 1.388 . S
C991 H978 0.930 . S
C991 C990 1.388 . S
C991 C992 1.390 . S
C992 C991 1.390 . S
C992 C993 1.394 1_565 S
C992 C998 1.465 1_455 S
C993 C988 1.399 . S
C993 C992 1.394 1_545 S
C993 C994 1.516 1_455 S
C994 C993 1.516 1_655 S
C994 C995 1.502 1_655 S
C994 C996 1.561 . S
C994 C997 1.526 . S
C995 H979 0.959 . S
C995 H980 0.959 . S
C995 H981 0.961 . S
C995 C994 1.502 1_455 S
C996 H982 0.960 . S
C996 H983 0.961 . S
C996 H984 0.959 . S
C996 C994 1.561 . S
C997 C994 1.526 . S
C997 C998 1.396 1_545 S
C997 C1002 1.390 1_545 S
C998 C992 1.465 1_655 S
C998 C997 1.396 1_565 S
C998 C999 1.399 . S
C999 H985 0.929 . S
C999 C998 1.399 . S
C999 C1000 1.385 . S
C1000 H986 0.931 . S
C1000 C999 1.385 . S
C1000 C1001 1.389 . S
C1001 C1000 1.389 . S
C1001 C1002 1.387 . S
C1002 H987 0.930 1_565 S
C1002 C997 1.390 1_565 S
C1002 C1001 1.387 . S
H1003 C1015 0.930 . S
H1004 C1017 0.930 1_545 S
H1005 C1018 0.930 . S
H1006 C1022 0.959 . S
H1007 C1022 0.959 . S
H1008 C1022 0.961 . S
H1009 C1023 0.960 . S
H1010 C1023 0.961 . S
H1011 C1023 0.959 . S
H1012 C1026 0.929 . S
H1013 C1027 0.931 . S
H1014 C1029 0.930 1_565 S
C1015 H1003 0.930 . S
C1015 C1016 1.399 . S
C1015 C1020 1.399 . S
C1016 C1015 1.399 . S
C1016 C1017 1.376 . S
C1017 H1004 0.930 1_565 S
C1017 C1016 1.376 . S
C1017 C1018 1.388 1_565 S
C1018 H1005 0.930 . S
C1018 C1017 1.388 1_545 S
C1018 C1019 1.390 . S
C1019 C1018 1.390 . S
C1019 C1020 1.394 1_545 S
C1019 C1025 1.465 . S
C1020 C1015 1.399 . S
C1020 C1019 1.394 1_565 S
C1020 C1021 1.516 . S
C1021 C1020 1.516 . S
C1021 C1022 1.502 . S
C1021 C1023 1.561 . S
C1021 C1024 1.526 . S
C1022 H1006 0.959 . S
C1022 H1007 0.959 . S
C1022 H1008 0.961 . S
C1022 C1021 1.502 . S
C1023 H1009 0.960 . S
C1023 H1010 0.961 . S
C1023 H1011 0.959 . S
C1023 C1021 1.561 . S
C1024 C1021 1.526 . S
C1024 C1025 1.396 1_565 S
C1024 C1029 1.390 1_565 S
C1025 C1019 1.465 . S
C1025 C1024 1.396 1_545 S
C1025 C1026 1.399 . S
C1026 H1012 0.929 . S
C1026 C1025 1.399 . S
C1026 C1027 1.385 . S
C1027 H1013 0.931 . S
C1027 C1026 1.385 . S
C1027 C1028 1.389 . S
C1028 C1027 1.389 . S
C1028 C1029 1.387 . S
C1029 H1014 0.930 1_545 S
C1029 C1024 1.390 1_545 S
C1029 C1028 1.387 . S
H1030 C1042 0.904 1_565 S
H1031 C1044 0.930 . S
H1032 C1045 0.930 . S
H1033 C1049 0.959 . S
H1034 C1049 0.959 . S
H1035 C1049 0.961 1_556 S
H1036 C1050 0.960 . S
H1037 C1050 0.961 . S
H1038 C1050 0.959 . S
H1039 C1053 0.929 . S
H1040 C1054 0.931 . S
H1041 C1056 0.930 . S
C1042 H1030 0.904 1_545 S
C1042 C1043 1.431 . S
C1042 C1047 1.394 1_545 S
C1043 C1042 1.431 . S
C1043 C1044 1.376 . S
C1044 H1031 0.930 . S
C1044 C1043 1.376 . S
C1044 C1045 1.388 . S
C1045 H1032 0.930 . S
C1045 C1044 1.388 . S
C1045 C1046 1.390 . S
C1046 C1045 1.390 . S
C1046 C1047 1.394 1_545 S
C1046 C1052 1.465 1_556 S
C1047 C1042 1.394 1_565 S
C1047 C1046 1.394 1_565 S
C1047 C1048 1.516 . S
C1048 C1047 1.516 . S
C1048 C1049 1.502 1_556 S
C1048 C1050 1.561 . S
C1048 C1051 1.526 1_556 S
C1049 H1033 0.959 . S
C1049 H1034 0.959 . S
C1049 H1035 0.961 1_554 S
C1049 C1048 1.502 1_554 S
C1050 H1036 0.960 . S
C1050 H1037 0.961 . S
C1050 H1038 0.959 . S
C1050 C1048 1.561 . S
C1051 C1048 1.526 1_554 S
C1051 C1052 1.396 1_565 S
C1051 C1056 1.390 . S
C1052 C1046 1.465 1_554 S
C1052 C1051 1.396 1_545 S
C1052 C1053 1.399 . S
C1053 H1039 0.929 . S
C1053 C1052 1.399 . S
C1053 C1054 1.385 . S
C1054 H1040 0.931 . S
C1054 C1053 1.385 . S
C1054 C1055 1.389 1_545 S
C1055 C1054 1.389 1_565 S
C1055 C1056 1.387 . S
C1056 H1041 0.930 . S
C1056 C1051 1.390 . S
C1056 C1055 1.387 . S
H1057 C1069 0.930 . S
H1058 C1071 0.930 . S
H1059 C1072 0.930 . S
H1060 C1076 0.959 . S
H1061 C1076 0.959 . S
H1062 C1076 0.961 . S
H1063 C1077 0.960 1_554 S
H1064 C1077 0.961 . S
H1065 C1077 0.959 1_554 S
H1066 C1080 0.929 1_554 S
H1067 C1081 0.931 . S
H1068 C1083 0.930 1_545 S
C1069 H1057 0.930 . S
C1069 C1070 1.399 . S
C1069 C1074 1.399 . S
C1070 C1069 1.399 . S
C1070 C1071 1.376 1_545 S
C1071 H1058 0.930 . S
C1071 C1070 1.376 1_565 S
C1071 C1072 1.388 . S
C1072 H1059 0.930 . S
C1072 C1071 1.388 . S
C1072 C1073 1.390 . S
C1073 C1072 1.390 . S
C1073 C1074 1.394 1_565 S
C1073 C1079 1.465 1_654 S
C1074 C1069 1.399 . S
C1074 C1073 1.394 1_545 S
C1074 C1075 1.516 1_654 S
C1075 C1074 1.516 1_456 S
C1075 C1076 1.502 1_455 S
C1075 C1077 1.561 . S
C1075 C1078 1.526 . S
C1076 H1060 0.959 . S
C1076 H1061 0.959 . S
C1076 H1062 0.961 . S
C1076 C1075 1.502 1_655 S
C1077 H1063 0.960 1_556 S
C1077 H1064 0.961 . S
C1077 H1065 0.959 1_556 S
C1077 C1075 1.561 . S
C1078 C1075 1.526 . S
C1078 C1079 1.396 1_545 S
C1078 C1083 1.390 1_545 S
C1079 C1073 1.465 1_456 S
C1079 C1078 1.396 1_565 S
C1079 C1080 1.399 . S
C1080 H1066 0.929 1_556 S
C1080 C1079 1.399 . S
C1080 C1081 1.385 . S
C1081 H1067 0.931 . S
C1081 C1080 1.385 . S
C1081 C1082 1.389 . S
C1082 C1081 1.389 . S
C1082 C1083 1.387 . S
C1083 H1068 0.930 1_565 S
C1083 C1078 1.390 1_565 S
C1083 C1082 1.387 . S
H1084 C1096 0.930 . S
H1085 C1098 0.930 . S
H1086 C1099 0.930 . S
H1087 C1103 0.959 . S
H1088 C1103 0.959 . S
H1089 C1103 0.961 . S
H1090 C1104 0.960 . S
H1091 C1104 0.961 . S
H1092 C1104 0.959 . S
H1093 C1107 0.929 . S
H1094 C1108 0.931 . S
H1095 C1110 0.930 . S
C1096 H1084 0.930 . S
C1096 C1097 1.399 . S
C1096 C1101 1.399 . S
C1097 C1096 1.399 . S
C1097 C1098 1.376 . S
C1098 H1085 0.930 . S
C1098 C1097 1.376 . S
C1098 C1099 1.388 . S
C1099 H1086 0.930 . S
C1099 C1098 1.388 . S
C1099 C1100 1.390 . S
C1100 C1099 1.390 . S
C1100 C1101 1.394 . S
C1100 C1106 1.465 . S
C1101 C1096 1.399 . S
C1101 C1100 1.394 . S
C1101 C1102 1.516 . S
C1102 C1101 1.516 . S
C1102 C1103 1.502 . S
C1102 C1104 1.561 . S
C1102 C1105 1.526 . S
C1103 H1087 0.959 . S
C1103 H1088 0.959 . S
C1103 H1089 0.961 . S
C1103 C1102 1.502 . S
C1104 H1090 0.960 . S
C1104 H1091 0.961 . S
C1104 H1092 0.959 . S
C1104 C1102 1.561 . S
C1105 C1102 1.526 . S
C1105 C1106 1.396 . S
C1105 C1110 1.390 . S
C1106 C1100 1.465 . S
C1106 C1105 1.396 . S
C1106 C1107 1.399 . S
C1107 H1093 0.929 . S
C1107 C1106 1.399 . S
C1107 C1108 1.385 . S
C1108 H1094 0.931 . S
C1108 C1107 1.385 . S
C1108 C1109 1.389 . S
C1109 C1108 1.389 . S
C1109 C1110 1.387 . S
C1110 H1095 0.930 . S
C1110 C1105 1.390 . S
C1110 C1109 1.387 . S
H1111 C1123 0.930 . S
H1112 C1125 0.930 . S
H1113 C1126 0.930 . S
H1114 C1130 0.959 . S
H1115 C1130 0.959 . S
H1116 C1130 0.961 . S
H1117 C1131 0.960 1_455 S
H1118 C1131 0.961 . S
H1119 C1131 0.959 1_455 S
H1120 C1134 0.929 . S
H1121 C1135 0.931 . S
H1122 C1137 0.930 . S
C1123 H1111 0.930 . S
C1123 C1124 1.399 . S
C1123 C1128 1.399 . S
C1124 C1123 1.399 . S
C1124 C1125 1.376 . S
C1125 H1112 0.930 . S
C1125 C1124 1.376 . S
C1125 C1126 1.388 . S
C1126 H1113 0.930 . S
C1126 C1125 1.388 . S
C1126 C1127 1.390 . S
C1127 C1126 1.390 . S
C1127 C1128 1.394 . S
C1127 C1133 1.482 . S
C1128 C1123 1.399 . S
C1128 C1127 1.394 . S
C1128 C1129 1.516 1_455 S
C1129 C1128 1.516 1_655 S
C1129 C1130 1.502 . S
C1129 C1131 1.561 . S
C1129 C1132 1.526 . S
C1130 H1114 0.959 . S
C1130 H1115 0.959 . S
C1130 H1116 0.961 . S
C1130 C1129 1.502 . S
C1131 H1117 0.960 1_655 S
C1131 H1118 0.961 . S
C1131 H1119 0.959 1_655 S
C1131 C1129 1.561 . S
C1132 C1129 1.526 . S
C1132 C1133 1.377 1_655 S
C1132 C1137 1.390 . S
C1133 C1127 1.482 . S
C1133 C1132 1.377 1_455 S
C1133 C1134 1.400 . S
C1134 H1120 0.929 . S
C1134 C1133 1.400 . S
C1134 C1135 1.385 1_455 S
C1135 H1121 0.931 . S
C1135 C1134 1.385 1_655 S
C1135 C1136 1.389 . S
C1136 C1135 1.389 . S
C1136 C1137 1.387 . S
C1137 H1122 0.930 . S
C1137 C1132 1.390 . S
C1137 C1136 1.387 . S
H1138 C1150 0.930 . S
H1139 C1152 0.930 . S
H1140 C1153 0.930 1_556 S
H1141 C1157 0.959 . S
H1142 C1157 0.959 . S
H1143 C1157 0.961 . S
H1144 C1158 0.960 . S
H1145 C1158 0.961 . S
H1146 C1158 0.959 1_455 S
H1147 C1161 0.929 . S
H1148 C1162 0.931 . S
H1149 C1164 0.930 . S
C1150 H1138 0.930 . S
C1150 C1151 1.399 . S
C1150 C1155 1.399 . S
C1151 C1150 1.399 . S
C1151 C1152 1.376 . S
C1152 H1139 0.930 . S
C1152 C1151 1.376 . S
C1152 C1153 1.388 . S
C1153 H1140 0.930 1_554 S
C1153 C1152 1.388 . S
C1153 C1154 1.390 . S
C1154 C1153 1.390 . S
C1154 C1155 1.394 . S
C1154 C1160 1.465 1_554 S
C1155 C1150 1.399 . S
C1155 C1154 1.394 . S
C1155 C1156 1.516 1_455 S
C1156 C1155 1.516 1_655 S
C1156 C1157 1.502 . S
C1156 C1158 1.561 . S
C1156 C1159 1.526 1_554 S
C1157 H1141 0.959 . S
C1157 H1142 0.959 . S
C1157 H1143 0.961 . S
C1157 C1156 1.502 . S
C1158 H1144 0.960 . S
C1158 H1145 0.961 . S
C1158 H1146 0.959 1_655 S
C1158 C1156 1.561 . S
C1159 C1156 1.526 1_556 S
C1159 C1160 1.396 1_655 S
C1159 C1164 1.390 . S
C1160 C1154 1.465 1_556 S
C1160 C1159 1.396 1_455 S
C1160 C1161 1.399 . S
C1161 H1147 0.929 . S
C1161 C1160 1.399 . S
C1161 C1162 1.385 1_455 S
C1162 H1148 0.931 . S
C1162 C1161 1.385 1_655 S
C1162 C1163 1.389 . S
C1163 C1162 1.389 . S
C1163 C1164 1.387 . S
C1164 H1149 0.930 . S
C1164 C1159 1.390 . S
C1164 C1163 1.387 . S
H1165 C1177 0.930 . S
H1166 C1179 0.930 . S
H1167 C1180 0.930 1_554 S
H1168 C1184 0.959 . S
H1169 C1184 0.959 . S
H1170 C1184 0.961 . S
H1171 C1185 0.960 . S
H1172 C1185 0.961 . S
H1173 C1185 0.959 . S
H1174 C1188 0.929 . S
H1175 C1189 0.931 . S
H1176 C1191 0.930 . S
C1177 H1165 0.930 . S
C1177 C1178 1.399 . S
C1177 C1182 1.399 . S
C1178 C1177 1.399 . S
C1178 C1179 1.376 . S
C1179 H1166 0.930 . S
C1179 C1178 1.376 . S
C1179 C1180 1.388 . S
C1180 H1167 0.930 1_556 S
C1180 C1179 1.388 . S
C1180 C1181 1.390 . S
C1181 C1180 1.390 . S
C1181 C1182 1.394 . S
C1181 C1187 1.465 1_556 S
C1182 C1177 1.399 . S
C1182 C1181 1.394 . S
C1182 C1183 1.516 . S
C1183 C1182 1.516 . S
C1183 C1184 1.502 . S
C1183 C1185 1.561 . S
C1183 C1186 1.526 1_556 S
C1184 H1168 0.959 . S
C1184 H1169 0.959 . S
C1184 H1170 0.961 . S
C1184 C1183 1.502 . S
C1185 H1171 0.960 . S
C1185 H1172 0.961 . S
C1185 H1173 0.959 . S
C1185 C1183 1.561 . S
C1186 C1183 1.526 1_554 S
C1186 C1187 1.396 . S
C1186 C1191 1.390 . S
C1187 C1181 1.465 1_554 S
C1187 C1186 1.396 . S
C1187 C1188 1.399 . S
C1188 H1174 0.929 . S
C1188 C1187 1.399 . S
C1188 C1189 1.385 . S
C1189 H1175 0.931 . S
C1189 C1188 1.385 . S
C1189 C1190 1.389 . S
C1190 C1189 1.389 . S
C1190 C1191 1.387 . S
C1191 H1176 0.930 . S
C1191 C1186 1.390 . S
C1191 C1190 1.387 . S
H1192 C1204 0.930 . S
H1193 C1206 0.930 . S
H1194 C1207 0.930 . S
H1195 C1211 0.959 . S
H1196 C1211 0.959 . S
H1197 C1211 0.961 . S
H1198 C1212 0.960 . S
H1199 C1212 0.961 . S
H1200 C1212 0.959 . S
H1201 C1215 0.929 . S
H1202 C1216 0.931 . S
H1203 C1218 0.930 . S
C1204 H1192 0.930 . S
C1204 C1205 1.399 . S
C1204 C1209 1.399 . S
C1205 C1204 1.399 . S
C1205 C1206 1.376 . S
C1206 H1193 0.930 . S
C1206 C1205 1.376 . S
C1206 C1207 1.388 . S
C1207 H1194 0.930 . S
C1207 C1206 1.388 . S
C1207 C1208 1.390 . S
C1208 C1207 1.390 . S
C1208 C1209 1.394 . S
C1208 C1214 1.478 . S
C1209 C1204 1.399 . S
C1209 C1208 1.394 . S
C1209 C1210 1.516 1_545 S
C1210 C1209 1.516 1_565 S
C1210 C1211 1.502 . S
C1210 C1212 1.561 . S
C1210 C1213 1.526 . S
C1211 H1195 0.959 . S
C1211 H1196 0.959 . S
C1211 H1197 0.961 . S
C1211 C1210 1.502 . S
C1212 H1198 0.960 . S
C1212 H1199 0.961 . S
C1212 H1200 0.959 . S
C1212 C1210 1.561 . S
C1213 C1210 1.526 . S
C1213 C1214 1.378 1_565 S
C1213 C1218 1.390 . S
C1214 C1208 1.478 . S
C1214 C1213 1.378 1_545 S
C1214 C1215 1.402 . S
C1215 H1201 0.929 . S
C1215 C1214 1.402 . S
C1215 C1216 1.385 1_545 S
C1216 H1202 0.931 . S
C1216 C1215 1.385 1_565 S
C1216 C1217 1.389 . S
C1217 C1216 1.389 . S
C1217 C1218 1.387 . S
C1218 H1203 0.930 . S
C1218 C1213 1.390 . S
C1218 C1217 1.387 . S
H1219 C1231 0.930 . S
H1220 C1233 0.930 . S
H1221 C1234 0.930 . S
H1222 C1238 0.959 . S
H1223 C1238 0.959 . S
H1224 C1238 0.961 . S
H1225 C1239 0.960 . S
H1226 C1239 0.961 1_565 S
H1227 C1239 0.959 . S
H1228 C1242 0.929 1_545 S
H1229 C1243 0.931 . S
H1230 C1245 0.930 . S
C1231 H1219 0.930 . S
C1231 C1232 1.399 . S
C1231 C1236 1.399 . S
C1232 C1231 1.399 . S
C1232 C1233 1.376 . S
C1233 H1220 0.930 . S
C1233 C1232 1.376 . S
C1233 C1234 1.388 . S
C1234 H1221 0.930 . S
C1234 C1233 1.388 . S
C1234 C1235 1.390 . S
C1235 C1234 1.390 . S
C1235 C1236 1.394 . S
C1235 C1241 1.465 1_545 S
C1236 C1231 1.399 . S
C1236 C1235 1.394 . S
C1236 C1237 1.516 1_545 S
C1237 C1236 1.516 1_565 S
C1237 C1238 1.502 . S
C1237 C1239 1.561 1_565 S
C1237 C1240 1.526 . S
C1238 H1222 0.959 . S
C1238 H1223 0.959 . S
C1238 H1224 0.961 . S
C1238 C1237 1.502 . S
C1239 H1225 0.960 . S
C1239 H1226 0.961 1_545 S
C1239 H1227 0.959 . S
C1239 C1237 1.561 1_545 S
C1240 C1237 1.526 . S
C1240 C1241 1.396 . S
C1240 C1245 1.390 . S
C1241 C1235 1.465 1_565 S
C1241 C1240 1.396 . S
C1241 C1242 1.399 . S
C1242 H1228 0.929 1_565 S
C1242 C1241 1.399 . S
C1242 C1243 1.385 . S
C1243 H1229 0.931 . S
C1243 C1242 1.385 . S
C1243 C1244 1.389 . S
C1244 C1243 1.389 . S
C1244 C1245 1.387 . S
C1245 H1230 0.930 . S
C1245 C1240 1.390 . S
C1245 C1244 1.387 . S
H1246 C1258 0.930 . S
H1247 C1260 0.930 . S
H1248 C1261 0.930 . S
H1249 C1265 0.959 . S
H1250 C1265 0.959 . S
H1251 C1265 0.961 . S
H1252 C1266 0.960 . S
H1253 C1266 0.961 . S
H1254 C1266 0.959 1_545 S
H1255 C1269 0.929 . S
H1256 C1270 0.931 . S
H1257 C1272 0.930 . S
C1258 H1246 0.930 . S
C1258 C1259 1.399 . S
C1258 C1263 1.399 . S
C1259 C1258 1.399 . S
C1259 C1260 1.376 . S
C1260 H1247 0.930 . S
C1260 C1259 1.376 . S
C1260 C1261 1.388 . S
C1261 H1248 0.930 . S
C1261 C1260 1.388 . S
C1261 C1262 1.390 . S
C1262 C1261 1.390 . S
C1262 C1263 1.394 . S
C1262 C1268 1.467 . S
C1263 C1258 1.399 . S
C1263 C1262 1.394 . S
C1263 C1264 1.516 1_545 S
C1264 C1263 1.516 1_565 S
C1264 C1265 1.502 . S
C1264 C1266 1.561 . S
C1264 C1267 1.526 . S
C1265 H1249 0.959 . S
C1265 H1250 0.959 . S
C1265 H1251 0.961 . S
C1265 C1264 1.502 . S
C1266 H1252 0.960 . S
C1266 H1253 0.961 . S
C1266 H1254 0.959 1_565 S
C1266 C1264 1.561 . S
C1267 C1264 1.526 . S
C1267 C1268 1.394 1_565 S
C1267 C1272 1.390 . S
C1268 C1262 1.467 . S
C1268 C1267 1.394 1_545 S
C1268 C1269 1.399 . S
C1269 H1255 0.929 . S
C1269 C1268 1.399 . S
C1269 C1270 1.385 1_545 S
C1270 H1256 0.931 . S
C1270 C1269 1.385 1_565 S
C1270 C1271 1.389 . S
C1271 C1270 1.389 . S
C1271 C1272 1.387 . S
C1272 H1257 0.930 . S
C1272 C1267 1.390 . S
C1272 C1271 1.387 . S
H1273 C1285 0.930 . S
H1274 C1287 0.930 . S
H1275 C1288 0.930 . S
H1276 C1292 0.959 . S
H1277 C1292 0.959 . S
H1278 C1292 0.961 . S
H1279 C1293 0.960 . S
H1280 C1293 0.961 . S
H1281 C1293 0.959 . S
H1282 C1296 0.929 . S
H1283 C1297 0.931 . S
H1284 C1299 0.930 . S
C1285 H1273 0.930 . S
C1285 C1286 1.399 . S
C1285 C1290 1.399 . S
C1286 C1285 1.399 . S
C1286 C1287 1.376 . S
C1287 H1274 0.930 . S
C1287 C1286 1.376 . S
C1287 C1288 1.388 . S
C1288 H1275 0.930 . S
C1288 C1287 1.388 . S
C1288 C1289 1.390 . S
C1289 C1288 1.390 . S
C1289 C1290 1.394 . S
C1289 C1295 1.465 1_545 S
C1290 C1285 1.399 . S
C1290 C1289 1.394 . S
C1290 C1291 1.516 1_545 S
C1291 C1290 1.516 1_565 S
C1291 C1292 1.502 . S
C1291 C1293 1.561 1_565 S
C1291 C1294 1.526 . S
C1292 H1276 0.959 . S
C1292 H1277 0.959 . S
C1292 H1278 0.961 . S
C1292 C1291 1.502 . S
C1293 H1279 0.960 . S
C1293 H1280 0.961 . S
C1293 H1281 0.959 . S
C1293 C1291 1.561 1_545 S
C1294 C1291 1.526 . S
C1294 C1295 1.396 . S
C1294 C1299 1.390 . S
C1295 C1289 1.465 1_565 S
C1295 C1294 1.396 . S
C1295 C1296 1.399 . S
C1296 H1282 0.929 . S
C1296 C1295 1.399 . S
C1296 C1297 1.385 . S
C1297 H1283 0.931 . S
C1297 C1296 1.385 . S
C1297 C1298 1.389 . S
C1298 C1297 1.389 . S
C1298 C1299 1.387 . S
C1299 H1284 0.930 . S
C1299 C1294 1.390 . S
C1299 C1298 1.387 . S
H1300 C1312 0.930 . S
H1301 C1314 0.930 . S
H1302 C1315 0.930 . S
H1303 C1319 0.959 . S
H1304 C1319 0.959 . S
H1305 C1319 0.961 . S
H1306 C1320 0.960 . S
H1307 C1320 0.961 . S
H1308 C1320 0.959 . S
H1309 C1323 0.929 . S
H1310 C1324 0.931 . S
H1311 C1326 0.930 . S
C1312 H1300 0.930 . S
C1312 C1313 1.399 . S
C1312 C1317 1.399 . S
C1313 C1312 1.399 . S
C1313 C1314 1.376 . S
C1314 H1301 0.930 . S
C1314 C1313 1.376 . S
C1314 C1315 1.388 . S
C1315 H1302 0.930 . S
C1315 C1314 1.388 . S
C1315 C1316 1.390 . S
C1316 C1315 1.390 . S
C1316 C1317 1.394 . S
C1316 C1322 1.465 . S
C1317 C1312 1.399 . S
C1317 C1316 1.394 . S
C1317 C1318 1.516 . S
C1318 C1317 1.516 . S
C1318 C1319 1.502 . S
C1318 C1320 1.561 . S
C1318 C1321 1.526 . S
C1319 H1303 0.959 . S
C1319 H1304 0.959 . S
C1319 H1305 0.961 . S
C1319 C1318 1.502 . S
C1320 H1306 0.960 . S
C1320 H1307 0.961 . S
C1320 H1308 0.959 . S
C1320 C1318 1.561 . S
C1321 C1318 1.526 . S
C1321 C1322 1.396 . S
C1321 C1326 1.390 . S
C1322 C1316 1.465 . S
C1322 C1321 1.396 . S
C1322 C1323 1.399 . S
C1323 H1309 0.929 . S
C1323 C1322 1.399 . S
C1323 C1324 1.385 . S
C1324 H1310 0.931 . S
C1324 C1323 1.385 . S
C1324 C1325 1.389 . S
C1325 C1324 1.389 . S
C1325 C1326 1.387 . S
C1326 H1311 0.930 . S
C1326 C1321 1.390 . S
C1326 C1325 1.387 . S
H1327 C1339 0.930 . S
H1328 C1341 0.930 . S
H1329 C1342 0.930 . S
H1330 C1346 0.959 . S
H1331 C1346 0.959 . S
H1332 C1346 0.961 . S
H1333 C1347 0.960 . S
H1334 C1347 0.961 . S
H1335 C1347 0.959 . S
H1336 C1350 0.929 . S
H1337 C1351 0.931 . S
H1338 C1353 0.930 . S
C1339 H1327 0.930 . S
C1339 C1340 1.399 . S
C1339 C1344 1.399 . S
C1340 C1339 1.399 . S
C1340 C1341 1.376 . S
C1341 H1328 0.930 . S
C1341 C1340 1.376 . S
C1341 C1342 1.388 . S
C1342 H1329 0.930 . S
C1342 C1341 1.388 . S
C1342 C1343 1.390 . S
C1343 C1342 1.390 . S
C1343 C1344 1.394 . S
C1343 C1349 1.465 . S
C1344 C1339 1.399 . S
C1344 C1343 1.394 . S
C1344 C1345 1.516 . S
C1345 C1344 1.516 . S
C1345 C1346 1.502 . S
C1345 C1347 1.561 . S
C1345 C1348 1.526 . S
C1346 H1330 0.959 . S
C1346 H1331 0.959 . S
C1346 H1332 0.961 . S
C1346 C1345 1.502 . S
C1347 H1333 0.960 . S
C1347 H1334 0.961 . S
C1347 H1335 0.959 . S
C1347 C1345 1.561 . S
C1348 C1345 1.526 . S
C1348 C1349 1.396 . S
C1348 C1353 1.390 . S
C1349 C1343 1.465 . S
C1349 C1348 1.396 . S
C1349 C1350 1.399 . S
C1350 H1336 0.929 . S
C1350 C1349 1.399 . S
C1350 C1351 1.385 . S
C1351 H1337 0.931 . S
C1351 C1350 1.385 . S
C1351 C1352 1.389 . S
C1352 C1351 1.389 . S
C1352 C1353 1.387 . S
C1353 H1338 0.930 . S
C1353 C1348 1.390 . S
C1353 C1352 1.387 . S
H1354 C1366 0.930 . S
H1355 C1368 0.930 . S
H1356 C1369 0.930 . S
H1357 C1373 0.959 . S
H1358 C1373 0.959 . S
H1359 C1373 0.961 . S
H1360 C1374 0.960 . S
H1361 C1374 0.961 . S
H1362 C1374 0.959 . S
H1363 C1377 0.929 . S
H1364 C1378 0.931 . S
H1365 C1380 0.930 . S
C1366 H1354 0.930 . S
C1366 C1367 1.399 . S
C1366 C1371 1.399 . S
C1367 C1366 1.399 . S
C1367 C1368 1.376 . S
C1368 H1355 0.930 . S
C1368 C1367 1.376 . S
C1368 C1369 1.388 . S
C1369 H1356 0.930 . S
C1369 C1368 1.388 . S
C1369 C1370 1.390 . S
C1370 C1369 1.390 . S
C1370 C1371 1.394 . S
C1370 C1376 1.465 . S
C1371 C1366 1.399 . S
C1371 C1370 1.394 . S
C1371 C1372 1.516 . S
C1372 C1371 1.516 . S
C1372 C1373 1.502 . S
C1372 C1374 1.561 . S
C1372 C1375 1.526 . S
C1373 H1357 0.959 . S
C1373 H1358 0.959 . S
C1373 H1359 0.961 . S
C1373 C1372 1.502 . S
C1374 H1360 0.960 . S
C1374 H1361 0.961 . S
C1374 H1362 0.959 . S
C1374 C1372 1.561 . S
C1375 C1372 1.526 . S
C1375 C1376 1.396 . S
C1375 C1380 1.390 . S
C1376 C1370 1.465 . S
C1376 C1375 1.396 . S
C1376 C1377 1.399 . S
C1377 H1363 0.929 . S
C1377 C1376 1.399 . S
C1377 C1378 1.385 . S
C1378 H1364 0.931 . S
C1378 C1377 1.385 . S
C1378 C1379 1.389 . S
C1379 C1378 1.389 . S
C1379 C1380 1.387 . S
C1380 H1365 0.930 . S
C1380 C1375 1.390 . S
C1380 C1379 1.387 . S
H1381 C1393 0.930 . S
H1382 C1395 0.930 . S
H1383 C1396 0.930 . S
H1384 C1400 0.959 . S
H1385 C1400 0.959 . S
H1386 C1400 0.961 . S
H1387 C1401 0.960 . S
H1388 C1401 0.961 . S
H1389 C1401 0.959 . S
H1390 C1404 0.929 . S
H1391 C1405 0.931 . S
H1392 C1407 0.930 . S
C1393 H1381 0.930 . S
C1393 C1394 1.399 . S
C1393 C1398 1.399 . S
C1394 C1393 1.399 . S
C1394 C1395 1.376 . S
C1395 H1382 0.930 . S
C1395 C1394 1.376 . S
C1395 C1396 1.388 . S
C1396 H1383 0.930 . S
C1396 C1395 1.388 . S
C1396 C1397 1.390 . S
C1397 C1396 1.390 . S
C1397 C1398 1.394 . S
C1397 C1403 1.465 . S
C1398 C1393 1.399 . S
C1398 C1397 1.394 . S
C1398 C1399 1.516 . S
C1399 C1398 1.516 . S
C1399 C1400 1.502 . S
C1399 C1401 1.561 . S
C1399 C1402 1.526 . S
C1400 H1384 0.959 . S
C1400 H1385 0.959 . S
C1400 H1386 0.961 . S
C1400 C1399 1.502 . S
C1401 H1387 0.960 . S
C1401 H1388 0.961 . S
C1401 H1389 0.959 . S
C1401 C1399 1.561 . S
C1402 C1399 1.526 . S
C1402 C1403 1.396 . S
C1402 C1407 1.390 . S
C1403 C1397 1.465 . S
C1403 C1402 1.396 . S
C1403 C1404 1.399 . S
C1404 H1390 0.929 . S
C1404 C1403 1.399 . S
C1404 C1405 1.385 . S
C1405 H1391 0.931 . S
C1405 C1404 1.385 . S
C1405 C1406 1.389 . S
C1406 C1405 1.389 . S
C1406 C1407 1.387 . S
C1407 H1392 0.930 . S
C1407 C1402 1.390 . S
C1407 C1406 1.387 . S
H1408 C1420 0.930 . S
H1409 C1422 0.930 . S
H1410 C1423 0.930 . S
H1411 C1427 0.959 . S
H1412 C1427 0.959 . S
H1413 C1427 0.961 . S
H1414 C1428 0.960 . S
H1415 C1428 0.961 . S
H1416 C1428 0.959 . S
H1417 C1431 0.929 . S
H1418 C1432 0.931 . S
H1419 C1434 0.930 . S
C1420 H1408 0.930 . S
C1420 C1421 1.399 . S
C1420 C1425 1.399 . S
C1421 C1420 1.399 . S
C1421 C1422 1.376 . S
C1422 H1409 0.930 . S
C1422 C1421 1.376 . S
C1422 C1423 1.388 . S
C1423 H1410 0.930 . S
C1423 C1422 1.388 . S
C1423 C1424 1.390 . S
C1424 C1423 1.390 . S
C1424 C1425 1.394 . S
C1424 C1430 1.465 1_455 S
C1425 C1420 1.399 . S
C1425 C1424 1.394 . S
C1425 C1426 1.516 . S
C1426 C1425 1.516 . S
C1426 C1427 1.502 . S
C1426 C1428 1.561 1_455 S
C1426 C1429 1.526 1_455 S
C1427 H1411 0.959 . S
C1427 H1412 0.959 . S
C1427 H1413 0.961 . S
C1427 C1426 1.502 . S
C1428 H1414 0.960 . S
C1428 H1415 0.961 . S
C1428 H1416 0.959 . S
C1428 C1426 1.561 1_655 S
C1429 C1426 1.526 1_655 S
C1429 C1430 1.396 . S
C1429 C1434 1.390 . S
C1430 C1424 1.465 1_655 S
C1430 C1429 1.396 . S
C1430 C1431 1.399 . S
C1431 H1417 0.929 . S
C1431 C1430 1.399 . S
C1431 C1432 1.385 . S
C1432 H1418 0.931 . S
C1432 C1431 1.385 . S
C1432 C1433 1.389 . S
C1433 C1432 1.389 . S
C1433 C1434 1.387 . S
C1434 H1419 0.930 . S
C1434 C1429 1.390 . S
C1434 C1433 1.387 . S
H1435 C1447 0.930 . S
H1436 C1449 0.930 . S
H1437 C1450 0.930 . S
H1438 C1454 0.959 . S
H1439 C1454 0.959 . S
H1440 C1454 0.961 . S
H1441 C1455 0.960 . S
H1442 C1455 0.961 . S
H1443 C1455 0.959 . S
H1444 C1458 0.929 . S
H1445 C1459 0.931 . S
H1446 C1461 0.930 . S
C1447 H1435 0.930 . S
C1447 C1448 1.399 . S
C1447 C1452 1.399 . S
C1448 C1447 1.399 . S
C1448 C1449 1.376 . S
C1449 H1436 0.930 . S
C1449 C1448 1.376 . S
C1449 C1450 1.388 . S
C1450 H1437 0.930 . S
C1450 C1449 1.388 . S
C1450 C1451 1.390 . S
C1451 C1450 1.390 . S
C1451 C1452 1.394 . S
C1451 C1457 1.465 . S
C1452 C1447 1.399 . S
C1452 C1451 1.394 . S
C1452 C1453 1.516 . S
C1453 C1452 1.516 . S
C1453 C1454 1.502 . S
C1453 C1455 1.561 . S
C1453 C1456 1.526 . S
C1454 H1438 0.959 . S
C1454 H1439 0.959 . S
C1454 H1440 0.961 . S
C1454 C1453 1.502 . S
C1455 H1441 0.960 . S
C1455 H1442 0.961 . S
C1455 H1443 0.959 . S
C1455 C1453 1.561 . S
C1456 C1453 1.526 . S
C1456 C1457 1.396 . S
C1456 C1461 1.390 . S
C1457 C1451 1.465 . S
C1457 C1456 1.396 . S
C1457 C1458 1.399 . S
C1458 H1444 0.929 . S
C1458 C1457 1.399 . S
C1458 C1459 1.385 . S
C1459 H1445 0.931 . S
C1459 C1458 1.385 . S
C1459 C1460 1.389 . S
C1460 C1459 1.389 . S
C1460 C1461 1.387 . S
C1461 H1446 0.930 . S
C1461 C1456 1.390 . S
C1461 C1460 1.387 . S
H1462 C1474 0.930 . S
H1463 C1476 0.930 . S
H1464 C1477 0.930 . S
H1465 C1481 0.959 . S
H1466 C1481 0.959 . S
H1467 C1481 0.961 . S
H1468 C1482 0.960 . S
H1469 C1482 0.961 . S
H1470 C1482 0.959 . S
H1471 C1485 0.929 . S
H1472 C1486 0.931 . S
H1473 C1488 0.930 . S
C1474 H1462 0.930 . S
C1474 C1475 1.399 . S
C1474 C1479 1.399 . S
C1475 C1474 1.399 . S
C1475 C1476 1.376 . S
C1476 H1463 0.930 . S
C1476 C1475 1.376 . S
C1476 C1477 1.388 . S
C1477 H1464 0.930 . S
C1477 C1476 1.388 . S
C1477 C1478 1.390 . S
C1478 C1477 1.390 . S
C1478 C1479 1.394 . S
C1478 C1484 1.465 . S
C1479 C1474 1.399 . S
C1479 C1478 1.394 . S
C1479 C1480 1.516 . S
C1480 C1479 1.516 . S
C1480 C1481 1.502 . S
C1480 C1482 1.561 . S
C1480 C1483 1.526 . S
C1481 H1465 0.959 . S
C1481 H1466 0.959 . S
C1481 H1467 0.961 . S
C1481 C1480 1.502 . S
C1482 H1468 0.960 . S
C1482 H1469 0.961 . S
C1482 H1470 0.959 . S
C1482 C1480 1.561 . S
C1483 C1480 1.526 . S
C1483 C1484 1.396 . S
C1483 C1488 1.390 . S
C1484 C1478 1.465 . S
C1484 C1483 1.396 . S
C1484 C1485 1.399 . S
C1485 H1471 0.929 . S
C1485 C1484 1.399 . S
C1485 C1486 1.385 . S
C1486 H1472 0.931 . S
C1486 C1485 1.385 . S
C1486 C1487 1.389 . S
C1487 C1486 1.389 . S
C1487 C1488 1.387 . S
C1488 H1473 0.930 . S
C1488 C1483 1.390 . S
C1488 C1487 1.387 . S
H1489 C1501 0.930 . S
H1490 C1503 0.930 . S
H1491 C1504 0.930 1_455 S
H1492 C1508 0.959 . S
H1493 C1508 0.959 . S
H1494 C1508 0.961 . S
H1495 C1509 0.960 . S
H1496 C1509 0.961 . S
H1497 C1509 0.959 1_455 S
H1498 C1512 0.929 . S
H1499 C1513 0.931 . S
H1500 C1515 0.930 . S
C1501 H1489 0.930 . S
C1501 C1502 1.399 . S
C1501 C1506 1.399 . S
C1502 C1501 1.399 . S
C1502 C1503 1.376 . S
C1503 H1490 0.930 . S
C1503 C1502 1.376 . S
C1503 C1504 1.388 . S
C1504 H1491 0.930 1_655 S
C1504 C1503 1.388 . S
C1504 C1505 1.390 . S
C1505 C1504 1.390 . S
C1505 C1506 1.394 . S
C1505 C1511 1.465 1_655 S
C1506 C1501 1.399 . S
C1506 C1505 1.394 . S
C1506 C1507 1.516 . S
C1507 C1506 1.516 . S
C1507 C1508 1.502 . S
C1507 C1509 1.561 . S
C1507 C1510 1.526 1_655 S
C1508 H1492 0.959 . S
C1508 H1493 0.959 . S
C1508 H1494 0.961 . S
C1508 C1507 1.502 . S
C1509 H1495 0.960 . S
C1509 H1496 0.961 . S
C1509 H1497 0.959 1_655 S
C1509 C1507 1.561 . S
C1510 C1507 1.526 1_455 S
C1510 C1511 1.396 . S
C1510 C1515 1.390 . S
C1511 C1505 1.465 1_455 S
C1511 C1510 1.396 . S
C1511 C1512 1.399 . S
C1512 H1498 0.929 . S
C1512 C1511 1.399 . S
C1512 C1513 1.385 . S
C1513 H1499 0.931 . S
C1513 C1512 1.385 . S
C1513 C1514 1.389 . S
C1514 C1513 1.389 . S
C1514 C1515 1.387 . S
C1515 H1500 0.930 . S
C1515 C1510 1.390 . S
C1515 C1514 1.387 . S
H1516 C1528 0.930 . S
H1517 C1530 0.930 . S
H1518 C1531 0.930 . S
H1519 C1535 0.959 . S
H1520 C1535 0.959 . S
H1521 C1535 0.961 . S
H1522 C1536 0.960 . S
H1523 C1536 0.961 1_455 S
H1524 C1536 0.959 . S
H1525 C1539 0.929 1_655 S
H1526 C1540 0.931 . S
H1527 C1542 0.930 . S
C1528 H1516 0.930 . S
C1528 C1529 1.399 . S
C1528 C1533 1.399 . S
C1529 C1528 1.399 . S
C1529 C1530 1.376 . S
C1530 H1517 0.930 . S
C1530 C1529 1.376 . S
C1530 C1531 1.388 . S
C1531 H1518 0.930 . S
C1531 C1530 1.388 . S
C1531 C1532 1.390 . S
C1532 C1531 1.390 . S
C1532 C1533 1.394 . S
C1532 C1538 1.465 1_655 S
C1533 C1528 1.399 . S
C1533 C1532 1.394 . S
C1533 C1534 1.516 1_655 S
C1534 C1533 1.516 1_455 S
C1534 C1535 1.502 . S
C1534 C1536 1.561 1_455 S
C1534 C1537 1.526 . S
C1535 H1519 0.959 . S
C1535 H1520 0.959 . S
C1535 H1521 0.961 . S
C1535 C1534 1.502 . S
C1536 H1522 0.960 . S
C1536 H1523 0.961 1_655 S
C1536 H1524 0.959 . S
C1536 C1534 1.561 1_655 S
C1537 C1534 1.526 . S
C1537 C1538 1.396 . S
C1537 C1542 1.390 . S
C1538 C1532 1.465 1_455 S
C1538 C1537 1.396 . S
C1538 C1539 1.399 . S
C1539 H1525 0.929 1_455 S
C1539 C1538 1.399 . S
C1539 C1540 1.385 . S
C1540 H1526 0.931 . S
C1540 C1539 1.385 . S
C1540 C1541 1.389 . S
C1541 C1540 1.389 . S
C1541 C1542 1.387 . S
C1542 H1527 0.930 . S
C1542 C1537 1.390 . S
C1542 C1541 1.387 . S
H1543 C1555 0.930 . S
H1544 C1557 0.930 . S
H1545 C1558 0.930 . S
H1546 C1562 0.959 . S
H1547 C1562 0.959 . S
H1548 C1562 0.961 . S
H1549 C1563 0.960 . S
H1550 C1563 0.961 . S
H1551 C1563 0.959 . S
H1552 C1566 0.929 . S
H1553 C1567 0.931 . S
H1554 C1569 0.930 . S
C1555 H1543 0.930 . S
C1555 C1556 1.399 . S
C1555 C1560 1.399 . S
C1556 C1555 1.399 . S
C1556 C1557 1.376 . S
C1557 H1544 0.930 . S
C1557 C1556 1.376 . S
C1557 C1558 1.388 . S
C1558 H1545 0.930 . S
C1558 C1557 1.388 . S
C1558 C1559 1.390 . S
C1559 C1558 1.390 . S
C1559 C1560 1.394 . S
C1559 C1565 1.465 . S
C1560 C1555 1.399 . S
C1560 C1559 1.394 . S
C1560 C1561 1.516 . S
C1561 C1560 1.516 . S
C1561 C1562 1.502 . S
C1561 C1563 1.561 . S
C1561 C1564 1.526 . S
C1562 H1546 0.959 . S
C1562 H1547 0.959 . S
C1562 H1548 0.961 . S
C1562 C1561 1.502 . S
C1563 H1549 0.960 . S
C1563 H1550 0.961 . S
C1563 H1551 0.959 . S
C1563 C1561 1.561 . S
C1564 C1561 1.526 . S
C1564 C1565 1.396 . S
C1564 C1569 1.390 . S
C1565 C1559 1.465 . S
C1565 C1564 1.396 . S
C1565 C1566 1.399 . S
C1566 H1552 0.929 . S
C1566 C1565 1.399 . S
C1566 C1567 1.385 . S
C1567 H1553 0.931 . S
C1567 C1566 1.385 . S
C1567 C1568 1.389 . S
C1568 C1567 1.389 . S
C1568 C1569 1.387 . S
C1569 H1554 0.930 . S
C1569 C1564 1.390 . S
C1569 C1568 1.387 . S
H1570 C1582 0.930 . S
H1571 C1584 0.930 . S
H1572 C1585 0.930 . S
H1573 C1589 0.959 . S
H1574 C1589 0.959 . S
H1575 C1589 0.961 . S
H1576 C1590 0.960 . S
H1577 C1590 0.961 . S
H1578 C1590 0.959 . S
H1579 C1593 0.929 . S
H1580 C1594 0.931 . S
H1581 C1596 0.930 . S
C1582 H1570 0.930 . S
C1582 C1583 1.399 . S
C1582 C1587 1.399 . S
C1583 C1582 1.399 . S
C1583 C1584 1.376 . S
C1584 H1571 0.930 . S
C1584 C1583 1.376 . S
C1584 C1585 1.388 . S
C1585 H1572 0.930 . S
C1585 C1584 1.388 . S
C1585 C1586 1.390 . S
C1586 C1585 1.390 . S
C1586 C1587 1.394 . S
C1586 C1592 1.465 . S
C1587 C1582 1.399 . S
C1587 C1586 1.394 . S
C1587 C1588 1.516 . S
C1588 C1587 1.516 . S
C1588 C1589 1.502 . S
C1588 C1590 1.561 . S
C1588 C1591 1.526 . S
C1589 H1573 0.959 . S
C1589 H1574 0.959 . S
C1589 H1575 0.961 . S
C1589 C1588 1.502 . S
C1590 H1576 0.960 . S
C1590 H1577 0.961 . S
C1590 H1578 0.959 . S
C1590 C1588 1.561 . S
C1591 C1588 1.526 . S
C1591 C1592 1.396 . S
C1591 C1596 1.390 . S
C1592 C1586 1.465 . S
C1592 C1591 1.396 . S
C1592 C1593 1.399 . S
C1593 H1579 0.929 . S
C1593 C1592 1.399 . S
C1593 C1594 1.385 . S
C1594 H1580 0.931 . S
C1594 C1593 1.385 . S
C1594 C1595 1.389 . S
C1595 C1594 1.389 . S
C1595 C1596 1.387 . S
C1596 H1581 0.930 . S
C1596 C1591 1.390 . S
C1596 C1595 1.387 . S
H1597 C1609 0.930 . S
H1598 C1611 0.930 . S
H1599 C1612 0.930 . S
H1600 C1616 0.959 . S
H1601 C1616 0.959 . S
H1602 C1616 0.961 . S
H1603 C1617 0.960 . S
H1604 C1617 0.961 . S
H1605 C1617 0.959 . S
H1606 C1620 0.929 . S
H1607 C1621 0.931 . S
H1608 C1623 0.930 . S
C1609 H1597 0.930 . S
C1609 C1610 1.399 . S
C1609 C1614 1.399 . S
C1610 C1609 1.399 . S
C1610 C1611 1.376 . S
C1611 H1598 0.930 . S
C1611 C1610 1.376 . S
C1611 C1612 1.388 . S
C1612 H1599 0.930 . S
C1612 C1611 1.388 . S
C1612 C1613 1.390 . S
C1613 C1612 1.390 . S
C1613 C1614 1.394 . S
C1613 C1619 1.465 1_655 S
C1614 C1609 1.399 . S
C1614 C1613 1.394 . S
C1614 C1615 1.516 1_655 S
C1615 C1614 1.516 1_455 S
C1615 C1616 1.502 . S
C1615 C1617 1.561 1_455 S
C1615 C1618 1.526 . S
C1616 H1600 0.959 . S
C1616 H1601 0.959 . S
C1616 H1602 0.961 . S
C1616 C1615 1.502 . S
C1617 H1603 0.960 . S
C1617 H1604 0.961 . S
C1617 H1605 0.959 . S
C1617 C1615 1.561 1_655 S
C1618 C1615 1.526 . S
C1618 C1619 1.396 . S
C1618 C1623 1.390 . S
C1619 C1613 1.465 1_455 S
C1619 C1618 1.396 . S
C1619 C1620 1.399 . S
C1620 H1606 0.929 . S
C1620 C1619 1.399 . S
C1620 C1621 1.385 . S
C1621 H1607 0.931 . S
C1621 C1620 1.385 . S
C1621 C1622 1.389 . S
C1622 C1621 1.389 . S
C1622 C1623 1.387 . S
C1623 H1608 0.930 . S
C1623 C1618 1.390 . S
C1623 C1622 1.387 . S
C557 C135 1.158 . S
C569 C33 1.137 . S
C584 C101 1.143 . S
C596 C67 1.137 . S
C611 C169 1.193 . S
C623 C271 1.189 . S
C638 C203 1.137 . S
C650 C237 1.144 . S
C665 C305 1.182 . S
C677 C407 1.193 . S
C692 C339 1.135 . S
C704 C373 1.152 . S
C719 C543 1.138 . S
C731 C441 1.146 . S
C746 C509 1.190 . S
C758 C475 1.182 . S
C773 C5 0.736 . S
C785 C345 0.764 . S
C800 C379 0.837 . S
C812 C39 0.795 . S
C827 C277 0.837 . S
C839 C73 0.826 . S
C854 C311 0.838 . S
C866 C107 0.799 . S
C881 C481 0.826 . S
C893 C141 0.805 . S
C908 C515 0.766 . S
C920 C175 0.747 . S
C935 C413 0.812 . S
C947 C209 0.830 . S
C962 C447 0.753 . S
C974 C243 0.776 . S
C989 C9 1.620 . S
C1001 C145 1.683 . S
C1016 C43 1.617 . S
C1028 C179 1.691 . S
C1043 C213 1.649 . S
C1055 C77 1.649 . S
C1070 C111 1.620 . S
C1082 C247 1.683 . S
C1097 C281 1.689 . S
C1109 C417 1.627 . S
C1124 C451 1.668 . S
C1136 C315 1.654 . S
C1151 C349 1.689 . S
C1163 C485 1.618 . S
C1178 C519 1.681 . S
C1190 C383 1.622 . S
C1205 C20 1.373 . S
C1217 C54 1.363 . S
C1232 C122 1.383 . S
C1244 C88 1.375 . S
C1259 C190 1.377 . S
C1271 C156 1.363 . S
C1286 C224 1.371 . S
C1298 C258 1.363 . S
C1313 C326 1.383 . S
C1325 C292 1.376 . S
C1340 C394 1.363 . S
C1352 C360 1.366 . S
C1367 C428 1.362 . S
C1379 C462 1.377 . S
C1394 C530 1.372 . S
C1406 C496 1.363 . S
C1421 C2 1.074 . S
C1433 C308 1.084 . S
C1448 C36 1.022 . S
C1460 C274 1.009 . S
C1475 C70 1.020 . S
C1487 C376 1.008 . S
C1502 C104 1.056 . S
C1514 C342 1.076 . S
C1529 C138 1.076 . S
C1541 C444 1.075 . S
C1556 C410 1.008 . S
C1568 C172 1.009 . S
C1583 C206 1.045 . S
C1595 C512 1.045 . S
C1610 C478 1.079 . S
C1622 C240 1.079 . S
