# Generated by pormake.
# Topology smd, (6)-cn, num edge types: 1
# Building blocks:
#     Node 0, Type 0, BuildingBlock: MIFKUJ_clean_sbu_0, # of connection points: 6
#     Node 1, Type 0, BuildingBlock: MIFKUJ_clean_sbu_0, # of connection points: 6
#     Node 2, Type 0, BuildingBlock: MIFKUJ_clean_sbu_0, # of connection points: 6
#     Node 3, Type 0, BuildingBlock: MIFKUJ_clean_sbu_0, # of connection points: 6
#     Node 4, Type 0, BuildingBlock: MIFKUJ_clean_sbu_0, # of connection points: 6
#     Node 5, Type 0, BuildingBlock: MIFKUJ_clean_sbu_0, # of connection points: 6
#     Node 6, Type 0, BuildingBlock: MIFKUJ_clean_sbu_0, # of connection points: 6
#     Node 7, Type 0, BuildingBlock: MIFKUJ_clean_sbu_0, # of connection points: 6
#     Node 8, Type 0, BuildingBlock: MIFKUJ_clean_sbu_0, # of connection points: 6
#     Node 9, Type 0, BuildingBlock: MIFKUJ_clean_sbu_0, # of connection points: 6
#     Node 10, Type 0, BuildingBlock: MIFKUJ_clean_sbu_0, # of connection points: 6
#     Node 11, Type 0, BuildingBlock: MIFKUJ_clean_sbu_0, # of connection points: 6
#     Node 12, Type 0, BuildingBlock: MIFKUJ_clean_sbu_0, # of connection points: 6
#     Node 13, Type 0, BuildingBlock: MIFKUJ_clean_sbu_0, # of connection points: 6
#     Node 14, Type 0, BuildingBlock: MIFKUJ_clean_sbu_0, # of connection points: 6
#     Node 15, Type 0, BuildingBlock: MIFKUJ_clean_sbu_0, # of connection points: 6
#     Node 16, Type 0, BuildingBlock: MIFKUJ_clean_sbu_0, # of connection points: 6
#     Node 17, Type 0, BuildingBlock: MIFKUJ_clean_sbu_0, # of connection points: 6
#     Edge 18, Type (0, 0), BuildingBlock: OJICUG_clean_linker_0, # of connection points: 2
#     Edge 19, Type (0, 0), BuildingBlock: OJICUG_clean_linker_0, # of connection points: 2
#     Edge 20, Type (0, 0), BuildingBlock: OJICUG_clean_linker_0, # of connection points: 2
#     Edge 21, Type (0, 0), BuildingBlock: OJICUG_clean_linker_0, # of connection points: 2
#     Edge 22, Type (0, 0), BuildingBlock: OJICUG_clean_linker_0, # of connection points: 2
#     Edge 23, Type (0, 0), BuildingBlock: OJICUG_clean_linker_0, # of connection points: 2
#     Edge 24, Type (0, 0), BuildingBlock: OJICUG_clean_linker_0, # of connection points: 2
#     Edge 25, Type (0, 0), BuildingBlock: OJICUG_clean_linker_0, # of connection points: 2
#     Edge 26, Type (0, 0), BuildingBlock: OJICUG_clean_linker_0, # of connection points: 2
#     Edge 27, Type (0, 0), BuildingBlock: OJICUG_clean_linker_0, # of connection points: 2
#     Edge 28, Type (0, 0), BuildingBlock: OJICUG_clean_linker_0, # of connection points: 2
#     Edge 29, Type (0, 0), BuildingBlock: OJICUG_clean_linker_0, # of connection points: 2
#     Edge 30, Type (0, 0), BuildingBlock: OJICUG_clean_linker_0, # of connection points: 2
#     Edge 31, Type (0, 0), BuildingBlock: OJICUG_clean_linker_0, # of connection points: 2
#     Edge 32, Type (0, 0), BuildingBlock: OJICUG_clean_linker_0, # of connection points: 2
#     Edge 33, Type (0, 0), BuildingBlock: OJICUG_clean_linker_0, # of connection points: 2
#     Edge 34, Type (0, 0), BuildingBlock: OJICUG_clean_linker_0, # of connection points: 2
#     Edge 35, Type (0, 0), BuildingBlock: OJICUG_clean_linker_0, # of connection points: 2
#     Edge 36, Type (0, 0), BuildingBlock: OJICUG_clean_linker_0, # of connection points: 2
#     Edge 37, Type (0, 0), BuildingBlock: OJICUG_clean_linker_0, # of connection points: 2
#     Edge 38, Type (0, 0), BuildingBlock: OJICUG_clean_linker_0, # of connection points: 2
#     Edge 39, Type (0, 0), BuildingBlock: OJICUG_clean_linker_0, # of connection points: 2
#     Edge 40, Type (0, 0), BuildingBlock: OJICUG_clean_linker_0, # of connection points: 2
#     Edge 41, Type (0, 0), BuildingBlock: OJICUG_clean_linker_0, # of connection points: 2
#     Edge 42, Type (0, 0), BuildingBlock: OJICUG_clean_linker_0, # of connection points: 2
#     Edge 43, Type (0, 0), BuildingBlock: OJICUG_clean_linker_0, # of connection points: 2
#     Edge 44, Type (0, 0), BuildingBlock: OJICUG_clean_linker_0, # of connection points: 2
#     Edge 45, Type (0, 0), BuildingBlock: OJICUG_clean_linker_0, # of connection points: 2
#     Edge 46, Type (0, 0), BuildingBlock: OJICUG_clean_linker_0, # of connection points: 2
#     Edge 47, Type (0, 0), BuildingBlock: OJICUG_clean_linker_0, # of connection points: 2
#     Edge 48, Type (0, 0), BuildingBlock: OJICUG_clean_linker_0, # of connection points: 2
#     Edge 49, Type (0, 0), BuildingBlock: OJICUG_clean_linker_0, # of connection points: 2
#     Edge 50, Type (0, 0), BuildingBlock: OJICUG_clean_linker_0, # of connection points: 2
#     Edge 51, Type (0, 0), BuildingBlock: OJICUG_clean_linker_0, # of connection points: 2
#     Edge 52, Type (0, 0), BuildingBlock: OJICUG_clean_linker_0, # of connection points: 2
#     Edge 53, Type (0, 0), BuildingBlock: OJICUG_clean_linker_0, # of connection points: 2
#     Edge 54, Type (0, 0), BuildingBlock: OJICUG_clean_linker_0, # of connection points: 2
#     Edge 55, Type (0, 0), BuildingBlock: OJICUG_clean_linker_0, # of connection points: 2
#     Edge 56, Type (0, 0), BuildingBlock: OJICUG_clean_linker_0, # of connection points: 2
#     Edge 57, Type (0, 0), BuildingBlock: OJICUG_clean_linker_0, # of connection points: 2
#     Edge 58, Type (0, 0), BuildingBlock: OJICUG_clean_linker_0, # of connection points: 2
#     Edge 59, Type (0, 0), BuildingBlock: OJICUG_clean_linker_0, # of connection points: 2
#     Edge 60, Type (0, 0), BuildingBlock: OJICUG_clean_linker_0, # of connection points: 2
#     Edge 61, Type (0, 0), BuildingBlock: OJICUG_clean_linker_0, # of connection points: 2
#     Edge 62, Type (0, 0), BuildingBlock: OJICUG_clean_linker_0, # of connection points: 2
#     Edge 63, Type (0, 0), BuildingBlock: OJICUG_clean_linker_0, # of connection points: 2
#     Edge 64, Type (0, 0), BuildingBlock: OJICUG_clean_linker_0, # of connection points: 2
#     Edge 65, Type (0, 0), BuildingBlock: OJICUG_clean_linker_0, # of connection points: 2
#     Edge 66, Type (0, 0), BuildingBlock: OJICUG_clean_linker_0, # of connection points: 2
#     Edge 67, Type (0, 0), BuildingBlock: OJICUG_clean_linker_0, # of connection points: 2
#     Edge 68, Type (0, 0), BuildingBlock: OJICUG_clean_linker_0, # of connection points: 2
#     Edge 69, Type (0, 0), BuildingBlock: OJICUG_clean_linker_0, # of connection points: 2
#     Edge 70, Type (0, 0), BuildingBlock: OJICUG_clean_linker_0, # of connection points: 2
#     Edge 71, Type (0, 0), BuildingBlock: OJICUG_clean_linker_0, # of connection points: 2
# Relax obj value: 0.196
# Max RMSD: 0.249
# Mean RMSD: 0.249
data_MOF--net-smd--node1-MIFKUJ_clean_sbu_0--edge1-OJICUG_clean_linker_0
_symmetry_space_group_name_H-M    P1
_symmetry_Int_Tables_number       1
_symmetry_cell_setting            triclinic
loop_
_symmetry_equiv_pos_as_xyz
'x, y, z'
_cell_length_a     52.517636
_cell_length_b     52.604512
_cell_length_c     14.340464
_cell_angle_alpha  90.043799
_cell_angle_beta   90.04251
_cell_angle_gamma 119.97223
loop_
_atom_site_label
_atom_site_type_symbol
_atom_site_fract_x
_atom_site_fract_y
_atom_site_fract_z
_atom_type_partial_charge
Zn0 Zn 0.00869 0.23591 0.58152 0.0
Zn1 Zn 0.02233 0.21167 0.3458 0.0
C2 C 0.96946 0.25204 0.66889 0.0
O3 O 0.96341 0.22897 0.71993 0.0
C4 C 0.06927 0.19821 0.35829 0.0
O5 O 0.05544 0.18166 0.28602 0.0
O6 O 0.0246 0.23355 0.70766 0.0
O7 O 0.97814 0.19494 0.53972 0.0
O8 O 0.98511 0.17951 0.40289 0.0
C9 C 0.0123 0.21073 0.75854 0.0
O10 O 0.98936 0.18695 0.72611 0.0
O11 O 0.98788 0.25908 0.6027 0.0
C12 C 0.03812 0.22188 0.15242 0.0
O13 O 0.05976 0.24639 0.18646 0.0
O14 O 0.01955 0.20291 0.20818 0.0
O15 O 0.02685 0.25188 0.3521 0.0
O16 O 0.04288 0.26029 0.49653 0.0
O17 O 0.05873 0.21259 0.39796 0.0
C18 C 0.97012 0.17532 0.47676 0.0
C19 C 0.03847 0.2695 0.41983 0.0
Zn20 Zn 0.79266 0.79111 0.61359 0.0
Zn21 Zn 0.81599 0.81963 0.37879 0.0
C22 C 0.78129 0.73782 0.70617 0.0
O23 O 0.80318 0.75619 0.75943 0.0
C24 C 0.82706 0.87877 0.39407 0.0
O25 O 0.84165 0.88144 0.31694 0.0
O26 O 0.79191 0.80827 0.73956 0.0
O27 O 0.83453 0.80312 0.57727 0.0
O28 O 0.84975 0.81649 0.43201 0.0
C29 C 0.81496 0.82339 0.78806 0.0
O30 O 0.84072 0.83129 0.75117 0.0
O31 O 0.77331 0.74779 0.63829 0.0
C32 C 0.80272 0.82517 0.18774 0.0
O33 O 0.7778 0.81997 0.2256 0.0
O34 O 0.82296 0.82651 0.23998 0.0
O35 O 0.7764 0.78312 0.3884 0.0
O36 O 0.76502 0.79486 0.52336 0.0
O37 O 0.8145 0.85419 0.43601 0.0
C38 C 0.85427 0.81106 0.51479 0.0
C39 C 0.75726 0.77998 0.44829 0.0
Zn40 Zn 0.24096 0.01752 0.5842 0.0
Zn41 Zn 0.21824 0.01593 0.35659 0.0
C42 C 0.29593 0.03083 0.66549 0.0
O43 O 0.27936 0.00429 0.6991 0.0
C44 C 0.15956 0.96518 0.36235 0.0
O45 O 0.15801 0.97488 0.27944 0.0
O46 O 0.22285 1.00033 0.7086 0.0
O47 O 0.22855 0.04751 0.55231 0.0
O48 O 0.2197 0.05223 0.40467 0.0
C49 C 0.22584 0.01945 0.76855 0.0
O50 O 0.23834 0.04708 0.74302 0.0
O51 O 0.28446 0.04149 0.61142 0.0
C52 C 0.21389 0.99783 0.16375 0.0
O53 O 0.21595 0.97592 0.19938 0.0
O54 O 0.21379 0.01691 0.21791 0.0
O55 O 0.25532 0.01403 0.37352 0.0
O56 O 0.23702 0.98545 0.49558 0.0
O57 O 0.18293 0.97942 0.41031 0.0
C58 C 0.2222 0.06035 0.48901 0.0
C59 C 0.25387 0.99376 0.42497 0.0
Zn60 Zn 0.01738 0.81737 0.6275 0.0
Zn61 Zn 0.0182 0.79197 0.39729 0.0
C62 C 0.96676 0.82464 0.6214 0.0
O63 O 0.97836 0.83809 0.70043 0.0
C64 C 0.05949 0.77937 0.30409 0.0
O65 O 0.06336 0.80119 0.25013 0.0
O66 O 0.01774 0.82326 0.76786 0.0
O67 O 0.01738 0.7794 0.61329 0.0
O68 O 0.98773 0.76455 0.49203 0.0
C69 C 0.99989 0.80201 0.8191 0.0
O70 O 0.98158 0.77681 0.77966 0.0
O71 O 0.97988 0.81415 0.57411 0.0
C72 C 0.00807 0.8132 0.22107 0.0
O73 O 0.02495 0.83902 0.25895 0.0
O74 O 1.00009 0.79029 0.27017 0.0
O75 O 0.04871 0.83429 0.4291 0.0
O76 O 0.05283 0.85177 0.57228 0.0
O77 O 0.04189 0.77219 0.37268 0.0
C78 C 0.99748 0.75872 0.56542 0.0
C79 C 0.06143 0.85504 0.48812 0.0
Zn80 Zn 0.22677 0.22234 0.59658 0.0
Zn81 Zn 0.24263 0.23491 0.37786 0.0
C82 C 0.21215 0.16115 0.59676 0.0
O83 O 0.19976 0.16095 0.67649 0.0
C84 C 0.28094 0.29575 0.34636 0.0
O85 O 0.29976 0.28622 0.34311 0.0
O86 O 0.22102 0.21948 0.73582 0.0
O87 O 0.26723 0.25587 0.57835 0.0
O88 O 0.27458 0.23426 0.45872 0.0
C89 C 0.23967 0.21835 0.78978 0.0
O90 O 0.26258 0.21823 0.75354 0.0
O91 O 0.22431 0.18462 0.54874 0.0
C92 C 0.22927 0.22608 0.1886 0.0
O93 O 0.21082 0.2341 0.21992 0.0
O94 O 0.24645 0.22377 0.24618 0.0
O95 O 0.19846 0.21094 0.40522 0.0
O96 O 0.19502 0.22799 0.54208 0.0
O97 O 0.25405 0.27767 0.36368 0.0
C98 C 0.2845 0.25105 0.52965 0.0
C99 C 0.18382 0.21665 0.46391 0.0
Zn100 Zn 0.81561 0.01896 0.65201 0.0
Zn101 Zn 0.78933 0.01535 0.42083 0.0
C102 C 0.86532 0.06242 0.53667 0.0
O103 O 0.85755 0.04107 0.47606 0.0
C104 C 0.73395 1.00013 0.33616 0.0
O105 O 0.7501 0.02616 0.29858 0.0
O106 O 0.81932 0.01612 0.78982 0.0
O107 O 0.77787 0.01973 0.6357 0.0
O108 O 0.79388 0.04726 0.51036 0.0
C109 C 0.82365 0.03696 0.84433 0.0
O110 O 0.82672 0.06139 0.80912 0.0
O111 O 0.85068 0.05762 0.61164 0.0
C112 C 0.80491 0.0133 0.2377 0.0
O113 O 0.79141 0.98561 0.26305 0.0
O114 O 0.80802 0.03259 0.29718 0.0
O115 O 0.80248 0.98633 0.45418 0.0
O116 O 0.81622 0.98412 0.59817 0.0
O117 O 0.7458 0.99077 0.39374 0.0
C118 C 0.77767 0.03886 0.58237 0.0
C119 C 0.81125 0.97485 0.51483 0.0
Zn120 Zn 0.6888 0.57128 0.94241 0.0
Zn121 Zn 0.68647 0.55687 0.7218 0.0
C122 C 0.66707 0.61026 0.97975 0.0
O123 O 0.69542 0.62908 0.97991 0.0
C124 C 0.73339 0.54255 0.72107 0.0
O125 O 0.72192 0.53108 0.63967 0.0
O126 O 0.70425 0.5742 0.07267 0.0
O127 O 0.6674 0.52731 0.91182 0.0
O128 O 0.6485 0.52587 0.77349 0.0
C129 C 0.68491 0.55714 0.13055 0.0
O130 O 0.65825 0.53897 0.10001 0.0
O131 O 0.65808 0.58341 0.96158 0.0
C132 C 0.70353 0.56959 0.5286 0.0
O133 O 0.72658 0.59261 0.56429 0.0
O134 O 0.6838 0.55119 0.58286 0.0
O135 O 0.6938 0.59728 0.74126 0.0
O136 O 0.72162 0.60331 0.86314 0.0
O137 O 0.72134 0.55374 0.77051 0.0
C138 C 0.64736 0.51388 0.85108 0.0
C139 C 0.71542 0.61392 0.79263 0.0
Zn140 Zn 0.45566 0.1051 0.96051 0.0
Zn141 Zn 0.47824 0.15116 0.71893 0.0
C142 C 0.4167 0.0503 0.03785 0.0
O143 O 0.40005 0.06232 0.03112 0.0
C144 C 0.4931 0.21204 0.71398 0.0
O145 O 0.50486 0.21159 0.63365 0.0
O146 O 0.45566 0.12808 0.0734 0.0
O147 O 0.49689 0.12204 0.91182 0.0
O148 O 0.51071 0.14608 0.77689 0.0
C149 C 0.47455 0.13057 0.13378 0.0
O150 O 0.49225 0.12048 0.11308 0.0
O151 O 0.44345 0.06497 0.01262 0.0
C152 C 0.46698 0.15416 0.52237 0.0
O153 O 0.44389 0.15479 0.55462 0.0
O154 O 0.48513 0.15346 0.57972 0.0
O155 O 0.43598 0.11928 0.73139 0.0
O156 O 0.42361 0.09614 0.86744 0.0
O157 O 0.48129 0.18904 0.76407 0.0
C158 C 0.51616 0.13571 0.84947 0.0
C159 C 0.4169 0.10052 0.7863 0.0
Zn160 Zn 0.91084 0.35269 0.92549 0.0
Zn161 Zn 0.88949 0.35299 0.69572 0.0
C162 C 0.96625 0.36981 0.01864 0.0
O163 O 0.94933 0.34816 0.07469 0.0
C164 C 0.82827 0.30734 0.69468 0.0
O165 O 0.82784 0.321 0.6186 0.0
O166 O 0.89238 0.33643 0.05001 0.0
O167 O 0.89913 0.38302 0.89396 0.0
O168 O 0.89278 0.39001 0.74603 0.0
C169 C 0.89544 0.35587 0.10877 0.0
O170 O 0.9086 0.38345 0.08242 0.0
O171 O 0.95491 0.37548 0.9489 0.0
C172 C 0.88328 0.33486 0.50382 0.0
O173 O 0.88147 0.31103 0.53967 0.0
O174 O 0.88648 0.35544 0.55766 0.0
O175 O 0.92383 0.34644 0.71458 0.0
O176 O 0.90379 0.31932 0.83875 0.0
O177 O 0.85198 0.31747 0.7415 0.0
C178 C 0.89407 0.39695 0.83122 0.0
C179 C 0.91944 0.32495 0.76581 0.0
Zn180 Zn 0.68513 0.15345 0.92463 0.0
Zn181 Zn 0.68783 0.13283 0.69728 0.0
C182 C 0.63462 0.16104 0.92564 0.0
O183 O 0.64799 0.17639 0.00038 0.0
C184 C 0.70316 0.0875 0.66744 0.0
O185 O 0.67472 0.06984 0.67619 0.0
O186 O 0.6871 0.15847 0.06313 0.0
O187 O 0.68553 0.11601 0.90478 0.0
O188 O 0.65553 0.10486 0.78594 0.0
C189 C 0.66769 0.13953 0.11687 0.0
O190 O 0.64506 0.11621 0.08074 0.0
O191 O 0.64682 0.14971 0.87786 0.0
C192 C 0.68992 0.14816 0.5119 0.0
O193 O 0.71742 0.16415 0.53873 0.0
O194 O 0.67076 0.13182 0.5713 0.0
O195 O 0.71632 0.17593 0.72722 0.0
O196 O 0.71976 0.18912 0.87512 0.0
O197 O 0.71372 0.11507 0.67463 0.0
C198 C 0.66424 0.09693 0.85703 0.0
C199 C 0.72813 0.19511 0.79123 0.0
Zn200 Zn 0.88583 0.55122 0.96238 0.0
Zn201 Zn 0.90842 0.57855 0.73205 0.0
C202 C 0.87743 0.49305 0.94851 0.0
O203 O 0.86133 0.48965 0.02255 0.0
C204 C 0.95242 0.63948 0.69344 0.0
O205 O 0.97097 0.63082 0.71804 0.0
O206 O 0.87975 0.5456 0.10103 0.0
O207 O 0.92311 0.58988 0.94973 0.0
O208 O 0.93804 0.57742 0.82335 0.0
C209 C 0.89867 0.54505 0.1551 0.0
O210 O 0.92257 0.54691 0.11934 0.0
O211 O 0.89012 0.51783 0.90771 0.0
C212 C 0.89082 0.5606 0.54957 0.0
O213 O 0.87476 0.57224 0.57397 0.0
O214 O 0.90799 0.55936 0.6097 0.0
O215 O 0.8657 0.56436 0.76741 0.0
O216 O 0.85027 0.55072 0.91193 0.0
O217 O 0.92496 0.62129 0.69595 0.0
C218 C 0.9437 0.59075 0.90129 0.0
C219 C 0.84554 0.55539 0.82876 0.0
Zn220 Zn 0.48626 0.35662 0.95245 0.0
Zn221 Zn 0.46126 0.35355 0.71848 0.0
C222 C 0.54666 0.40124 0.94178 0.0
O223 O 0.54834 0.38524 0.00915 0.0
C224 C 0.40811 0.31065 0.62716 0.0
O225 O 0.427 0.30757 0.57527 0.0
O226 O 0.4918 0.35603 0.09142 0.0
O227 O 0.4498 0.35946 0.93641 0.0
O228 O 0.46554 0.38553 0.80783 0.0
C229 C 0.49066 0.37514 0.1429 0.0
O230 O 0.48566 0.39488 0.10431 0.0
O231 O 0.52191 0.39299 0.90314 0.0
C232 C 0.49271 0.36397 0.5427 0.0
O233 O 0.50186 0.34713 0.57957 0.0
O234 O 0.47723 0.37129 0.59174 0.0
O235 O 0.47453 0.32436 0.75135 0.0
O236 O 0.48454 0.32074 0.89934 0.0
O237 O 0.4176 0.32873 0.6949 0.0
C238 C 0.45041 0.37882 0.88229 0.0
C239 C 0.48154 0.31219 0.81521 0.0
Zn240 Zn 0.33861 0.8942 0.31109 0.0
Zn241 Zn 0.34524 0.87239 0.08229 0.0
C242 C 0.32479 0.94089 0.339 0.0
O243 O 0.3532 0.95793 0.32693 0.0
C244 C 0.39564 0.86468 0.08128 0.0
O245 O 0.38183 0.849 0.00754 0.0
O246 O 0.35541 0.8941 0.43651 0.0
O247 O 0.30955 0.85146 0.27762 0.0
O248 O 0.31046 0.83711 0.13319 0.0
C249 C 0.33666 0.87732 0.49615 0.0
O250 O 0.30907 0.86115 0.47053 0.0
O251 O 0.31365 0.91318 0.33458 0.0
C252 C 0.36169 0.88555 0.88931 0.0
O253 O 0.3842 0.90921 0.92437 0.0
O254 O 0.34276 0.86653 0.94403 0.0
O255 O 0.34453 0.90985 0.09826 0.0
O256 O 0.37183 0.92169 0.22422 0.0
O257 O 0.3838 0.87643 0.12892 0.0
C258 C 0.29947 0.83187 0.21429 0.0
C259 C 0.36439 0.92921 0.14953 0.0
Zn260 Zn 0.12357 0.45063 0.27106 0.0
Zn261 Zn 0.14873 0.48276 0.03765 0.0
C262 C 0.08809 0.39426 0.36435 0.0
O263 O 0.08432 0.41017 0.42745 0.0
C264 C 0.16146 0.54279 0.04852 0.0
O265 O 0.17897 0.54579 0.97885 0.0
O266 O 0.12552 0.46953 0.39503 0.0
O267 O 0.16554 0.4638 0.23469 0.0
O268 O 0.18256 0.48028 0.09317 0.0
C269 C 0.14317 0.46862 0.45388 0.0
O270 O 0.15866 0.45638 0.4293 0.0
O271 O 0.10367 0.40669 0.29268 0.0
C272 C 0.13852 0.4899 0.8454 0.0
O273 O 0.11561 0.49032 0.88029 0.0
O274 O 0.15644 0.4879 0.90029 0.0
O275 O 0.10885 0.44653 0.04582 0.0
O276 O 0.09687 0.45637 0.18307 0.0
O277 O 0.14678 0.51783 0.08741 0.0
C278 C 0.18613 0.47343 0.17499 0.0
C279 C 0.08948 0.44279 0.10566 0.0
Zn280 Zn 0.57848 0.67578 0.26784 0.0
Zn281 Zn 0.54969 0.6708 0.03705 0.0
C282 C 0.63404 0.70066 0.3727 0.0
O283 O 0.61793 0.68131 0.43617 0.0
C284 C 0.49135 0.62112 0.04733 0.0
O285 O 0.48905 0.63276 0.96906 0.0
O286 O 0.55887 0.65731 0.39052 0.0
O287 O 0.5642 0.70413 0.23146 0.0
O288 O 0.5498 0.706 0.08788 0.0
C289 C 0.55795 0.67499 0.44923 0.0
O290 O 0.56822 0.70243 0.42452 0.0
O291 O 0.62218 0.70192 0.29657 0.0
C292 C 0.5445 0.65246 0.84416 0.0
O293 O 0.54732 0.63101 0.88005 0.0
O294 O 0.54423 0.6715 0.89821 0.0
O295 O 0.58821 0.67172 0.04976 0.0
O296 O 0.57667 0.64483 0.17705 0.0
O297 O 0.51558 0.63365 0.09181 0.0
C298 C 0.55493 0.71534 0.17112 0.0
C299 C 0.59041 0.6531 0.10004 0.0
Zn300 Zn 0.3456 0.47557 0.30786 0.0
Zn301 Zn 0.34604 0.4503 0.07688 0.0
C302 C 0.29719 0.48622 0.29408 0.0
O303 O 0.3093 0.5007 0.37131 0.0
C304 C 0.38779 0.43942 0.9831 0.0
O305 O 0.39105 0.46182 0.93336 0.0
O306 O 0.34534 0.48175 0.44796 0.0
O307 O 0.34411 0.43686 0.29457 0.0
O308 O 0.31524 0.42317 0.17127 0.0
C309 C 0.32692 0.46088 0.49925 0.0
O310 O 0.30819 0.43579 0.46005 0.0
O311 O 0.30917 0.47371 0.25125 0.0
C312 C 0.33609 0.47218 0.90118 0.0
O313 O 0.3534 0.49791 0.93899 0.0
O314 O 0.32792 0.44918 0.95005 0.0
O315 O 0.37719 0.49227 0.10968 0.0
O316 O 0.38199 0.50923 0.25393 0.0
O317 O 0.36976 0.43052 0.05082 0.0
C318 C 0.32437 0.4167 0.24475 0.0
C319 C 0.39045 0.51264 0.16958 0.0
Zn320 Zn 0.55296 0.87366 0.28076 0.0
Zn321 Zn 0.57435 0.92037 0.04013 0.0
C322 C 0.54099 0.81334 0.2839 0.0
O323 O 0.52985 0.81315 0.36601 0.0
C324 C 0.6126 0.97531 0.96264 0.0
O325 O 0.62939 0.96342 0.96785 0.0
O326 O 0.54586 0.87082 0.42019 0.0
O327 O 0.5949 0.90667 0.26942 0.0
O328 O 0.60646 0.93006 0.13376 0.0
C329 C 0.56454 0.87128 0.47786 0.0
O330 O 0.58834 0.87201 0.44593 0.0
O331 O 0.55124 0.83636 0.23396 0.0
C332 C 0.55586 0.89462 0.8663 0.0
O333 O 0.53749 0.90391 0.8868 0.0
O334 O 0.57493 0.8977 0.92691 0.0
O335 O 0.53313 0.90288 0.08935 0.0
O336 O 0.51993 0.87823 0.22342 0.0
O337 O 0.58592 0.96042 0.98853 0.0
C338 C 0.61355 0.92594 0.21467 0.0
C339 C 0.51408 0.88875 0.15188 0.0
Zn340 Zn 0.13471 0.67493 0.27951 0.0
Zn341 Zn 0.12411 0.6797 0.05955 0.0
C342 C 0.19643 0.72 0.29555 0.0
O343 O 0.19458 0.70659 0.37458 0.0
C344 C 0.06383 0.66071 0.0262 0.0
O345 O 0.07499 0.68929 0.02391 0.0
O346 O 0.1348 0.67048 0.41846 0.0
O347 O 0.10292 0.68423 0.25524 0.0
O348 O 0.12771 0.71346 0.13967 0.0
C349 C 0.13693 0.69069 0.4722 0.0
O350 O 0.1393 0.71469 0.43572 0.0
O351 O 0.17415 0.70982 0.24182 0.0
C352 C 0.13107 0.67389 0.87102 0.0
O353 O 0.12145 0.64724 0.90312 0.0
O354 O 0.13543 0.69418 0.92818 0.0
O355 O 0.14644 0.65788 0.08655 0.0
O356 O 0.12905 0.63772 0.22352 0.0
O357 O 0.08057 0.65032 0.04471 0.0
C358 C 0.11042 0.70739 0.20874 0.0
C359 C 0.14064 0.63776 0.14598 0.0
C360 C 0.07041 0.34365 0.30182 0.0
C361 C 0.0749 0.36227 0.37795 0.0
H362 H 0.0549 0.29961 0.25515 0.0
C363 C 0.06685 0.35007 0.46766 0.0
H364 H 0.07625 0.35242 0.23185 0.0
C365 C 0.0551 0.31993 0.48124 0.0
C366 C 0.05058 0.30131 0.40514 0.0
H367 H 0.07009 0.36388 0.5277 0.0
H368 H 0.04936 0.31117 0.55126 0.0
C369 C 0.05807 0.31342 0.31515 0.0
C370 C 0.70559 0.74728 0.50193 0.0
C371 C 0.72572 0.75997 0.42843 0.0
H372 H 0.66092 0.71823 0.54172 0.0
C373 C 0.71547 0.7531 0.33605 0.0
H374 H 0.71289 0.75201 0.57377 0.0
C375 C 0.68559 0.73418 0.31763 0.0
C376 C 0.66555 0.72119 0.39124 0.0
H377 H 0.73048 0.76257 0.27796 0.0
H378 H 0.67826 0.72936 0.24584 0.0
C379 C 0.67588 0.72783 0.48353 0.0
C380 C 0.29747 0.99519 0.349 0.0
C381 C 0.27172 0.97994 0.40235 0.0
H382 H 0.33459 0.99489 0.28823 0.0
C383 C 0.26328 0.95149 0.43361 0.0
H384 H 0.30457 0.01718 0.32411 0.0
C385 C 0.28016 0.93848 0.41131 0.0
C386 C 0.30618 0.95398 0.35938 0.0
H387 H 0.24349 0.93917 0.47453 0.0
H388 H 0.27316 0.91653 0.43625 0.0
C389 C 0.3147 0.98248 0.32869 0.0
C390 C 0.33763 0.03932 0.76977 0.0
C391 C 0.32707 0.04848 0.69443 0.0
H392 H 0.37409 0.04853 0.8579 0.0
C393 C 0.34637 0.07483 0.64873 0.0
H394 H 0.32334 0.01916 0.80662 0.0
C395 C 0.37562 0.09165 0.67794 0.0
C396 C 0.38605 0.08268 0.75425 0.0
H397 H 0.33889 0.08244 0.59031 0.0
H398 H 0.38995 0.11188 0.64149 0.0
C399 C 0.36672 0.05629 0.79964 0.0
C400 C 0.9499 0.31247 0.66046 0.0
C401 C 0.93186 0.30606 0.73953 0.0
H402 H 0.97595 0.3005 0.57602 0.0
C403 C 0.92587 0.28144 0.79372 0.0
H404 H 0.95493 0.33124 0.61704 0.0
C405 C 0.93777 0.26375 0.7699 0.0
C406 C 0.95606 0.2703 0.69151 0.0
H407 H 0.91204 0.27581 0.85496 0.0
H408 H 0.93282 0.24507 0.81369 0.0
C409 C 0.96193 0.29482 0.63684 0.0
C410 C 0.77249 0.69494 0.80576 0.0
C411 C 0.76523 0.70603 0.72714 0.0
H412 H 0.76246 0.65714 0.88846 0.0
C413 C 0.74193 0.68651 0.66968 0.0
H414 H 0.79032 0.70942 0.85151 0.0
C415 C 0.72605 0.65665 0.69077 0.0
C416 C 0.73302 0.64555 0.76995 0.0
H417 H 0.73576 0.69429 0.60855 0.0
H418 H 0.70813 0.64231 0.64505 0.0
C419 C 0.75653 0.66499 0.82699 0.0
C420 C 1.00255 0.72097 0.65633 0.0
C421 C 0.9857 0.72804 0.59683 0.0
H422 H 0.00535 0.68747 0.73254 0.0
C423 C 0.95761 0.70572 0.56962 0.0
H424 H 0.02432 0.73766 0.6784 0.0
C425 C 0.94649 0.67699 0.60231 0.0
C426 C 0.96354 0.66994 0.66105 0.0
H427 H 0.94408 0.71054 0.52419 0.0
H428 H 0.92474 0.66021 0.5805 0.0
C429 C 0.99173 0.69221 0.68725 0.0
C430 C 0.32633 0.28339 0.63524 0.0
C431 C 0.31604 0.26542 0.55546 0.0
H432 H 0.36325 0.31158 0.72053 0.0
C433 C 0.3362 0.2618 0.50083 0.0
H434 H 0.31142 0.28661 0.67924 0.0
C435 C 0.36604 0.27615 0.52483 0.0
C436 C 0.37635 0.29443 0.60392 0.0
H437 H 0.32901 0.24812 0.43902 0.0
H438 H 0.38107 0.27315 0.48071 0.0
C439 C 0.3561 0.29772 0.65912 0.0
C440 C 0.71492 0.04706 0.67755 0.0
C441 C 0.72255 0.07536 0.64719 0.0
H442 H 0.72672 0.01353 0.68217 0.0
C443 C 0.74853 0.09169 0.59582 0.0
H444 H 0.69505 0.03406 0.71759 0.0
C445 C 0.76629 0.0797 0.57372 0.0
C446 C 0.7588 0.05148 0.60477 0.0
H447 H 0.75482 0.11351 0.57117 0.0
H448 H 0.78606 0.09264 0.53325 0.0
C449 C 0.73307 0.03537 0.65757 0.0
C450 C 0.66292 0.9713 0.20038 0.0
C451 C 0.64426 0.9449 0.2469 0.0
H452 H 0.70557 0.00948 0.19259 0.0
C453 C 0.6552 0.93706 0.32464 0.0
H454 H 0.65515 0.97823 0.14101 0.0
C455 C 0.68428 0.95502 0.35415 0.0
C456 C 0.70291 0.98136 0.30723 0.0
H457 H 0.64142 0.91689 0.36208 0.0
H458 H 0.69216 0.94826 0.41368 0.0
C459 C 0.69182 0.98937 0.23042 0.0
C460 C 0.06869 0.73797 0.33771 0.0
C461 C 0.07383 0.76199 0.2818 0.0
H462 H 0.0762 0.70205 0.35863 0.0
C463 C 0.09187 0.76849 0.20272 0.0
H464 H 0.05495 0.73236 0.39919 0.0
C465 C 0.1041 0.75102 0.17927 0.0
C466 C 0.09848 0.72668 0.23437 0.0
H467 H 0.09626 0.78685 0.15814 0.0
H468 H 0.11762 0.75637 0.11736 0.0
C469 C 0.08085 0.72053 0.31426 0.0
C470 C 0.28371 0.36413 0.24964 0.0
C471 C 0.31261 0.38574 0.27222 0.0
H472 H 0.25061 0.31857 0.25818 0.0
C473 C 0.33045 0.37764 0.32234 0.0
H474 H 0.26946 0.36984 0.21156 0.0
C475 C 0.31992 0.3484 0.3472 0.0
C476 C 0.29106 0.32679 0.32486 0.0
H477 H 0.35282 0.39382 0.3406 0.0
H478 H 0.33438 0.34269 0.38405 0.0
C479 C 0.27287 0.33492 0.27695 0.0
C480 C 0.01829 0.40347 0.96891 0.0
C481 C 0.99787 0.38826 0.03991 0.0
H482 H 0.06355 0.43227 0.93395 0.0
C483 C 0.00783 0.39098 0.13235 0.0
H484 H 0.01119 0.40167 0.89706 0.0
C485 C 0.03759 0.40896 0.15369 0.0
C486 C 0.05805 0.42398 0.08271 0.0
H487 H 0.99255 0.37959 0.18854 0.0
H488 H 0.04464 0.41083 0.22565 0.0
C489 C 0.0482 0.42086 0.98998 0.0
C490 C 0.62111 0.60224 0.05919 0.0
C491 C 0.64637 0.62027 0.00647 0.0
H492 H 0.58389 0.59884 0.13273 0.0
C493 C 0.65283 0.64886 0.98429 0.0
H494 H 0.61584 0.5802 0.07798 0.0
C495 C 0.63435 0.65924 0.01378 0.0
C496 C 0.60949 0.64157 0.06849 0.0
H497 H 0.6722 0.6632 0.94389 0.0
H498 H 0.63988 0.68139 0.99535 0.0
C499 C 0.60304 0.61297 0.09116 0.0
C500 C 0.42062 0.00945 0.11383 0.0
C501 C 0.40365 0.01953 0.06826 0.0
H502 H 0.42114 0.97279 0.17779 0.0
C503 C 0.37376 0.99985 0.0511 0.0
H504 H 0.44369 0.02427 0.12817 0.0
C505 C 0.36116 0.97047 0.07718 0.0
C506 C 0.37798 0.96038 0.12329 0.0
H507 H 0.36021 0.00703 0.01577 0.0
H508 H 0.33813 0.95569 0.06212 0.0
C509 C 0.40774 0.98014 0.14249 0.0
C510 C 0.62077 0.04606 0.86559 0.0
C511 C 0.65076 0.06564 0.88188 0.0
H512 H 0.58485 1.00195 0.88055 0.0
C513 C 0.66799 0.05522 0.92341 0.0
H514 H 0.60705 0.05364 0.8338 0.0
C515 C 0.65554 0.02573 0.94791 0.0
C516 C 0.62544 0.00622 0.93363 0.0
H517 H 0.69121 0.06983 0.9361 0.0
H518 H 0.66942 0.01834 0.97977 0.0
C519 C 0.60809 0.01661 0.89259 0.0
C520 C 0.01188 0.64971 0.02163 0.0
C521 C 0.03277 0.64141 -0.00016 0.0
H522 H 0.96723 0.63984 0.00882 0.0
C523 C 0.02411 0.61593 0.9466 0.0
H524 H 0.01804 0.66932 0.06229 0.0
C525 C 0.99519 0.59952 0.91346 0.0
C526 C 0.97431 0.60787 0.93542 0.0
H527 H 0.03993 0.60929 0.92794 0.0
H528 H 0.98912 0.58024 0.87118 0.0
C529 C 0.98285 0.63287 0.99098 0.0
C530 C 0.42164 0.43215 0.87762 0.0
C531 C 0.4042 0.42424 0.95843 0.0
H532 H 0.44976 0.424 0.78989 0.0
C533 C 0.40225 0.4014 0.01436 0.0
H534 H 0.42358 0.44961 0.83285 0.0
C535 C 0.41735 0.38677 0.98985 0.0
C536 C 0.43463 0.39454 0.9086 0.0
H537 H 0.38902 0.39478 0.07712 0.0
H538 H 0.41534 0.36926 0.03451 0.0
C539 C 0.43663 0.41743 0.85285 0.0
C540 C 0.11206 0.19035 0.33334 0.0
C541 C 0.0978 0.20157 0.38858 0.0
H542 H 0.1503 0.18637 0.31336 0.0
C543 C 0.1116 0.21685 0.47076 0.0
H544 H 0.1021 0.17851 0.26948 0.0
C545 C 0.13922 0.22117 0.49637 0.0
C546 C 0.15379 0.21055 0.43988 0.0
H547 H 0.10119 0.22572 0.51496 0.0
H548 H 0.14939 0.23335 0.55955 0.0
C549 C 0.13977 0.19491 0.35842 0.0
C550 C 0.82367 0.94885 0.39353 0.0
C551 C 0.81604 0.95054 0.48621 0.0
H552 H 0.83355 0.92515 0.29252 0.0
C553 C 0.81264 0.92871 0.54969 0.0
H554 H 0.82673 0.9655 0.34326 0.0
C555 C 0.8161 0.9052 0.52013 0.0
C556 C 0.82373 0.90358 0.42723 0.0
H557 H 0.8067 0.92948 0.62154 0.0
H558 H 0.81294 0.88839 0.56994 0.0
C559 C 0.82776 0.92581 0.36462 0.0
C560 C 0.10583 0.90442 0.52231 0.0
C561 C 0.08686 0.88332 0.45737 0.0
H562 H 0.14414 0.94678 0.54328 0.0
C563 C 0.09245 0.88941 0.36176 0.0
H564 H 0.10229 0.90035 0.59649 0.0
C565 C 0.11587 0.91609 0.33164 0.0
C566 C 0.13483 0.93712 0.39623 0.0
H567 H 0.07865 0.87365 0.30967 0.0
H568 H 0.11936 0.92007 0.25737 0.0
C569 C 0.12982 0.93094 0.49196 0.0
C570 C 0.20878 0.11305 0.63244 0.0
C571 C 0.21365 0.13492 0.56712 0.0
H572 H 0.20786 0.07259 0.65915 0.0
C573 C 0.22063 0.13174 0.47478 0.0
H574 H 0.20345 0.11485 0.70421 0.0
C575 C 0.22278 0.10719 0.44858 0.0
C576 C 0.21858 0.08568 0.51466 0.0
H577 H 0.22444 0.1482 0.42282 0.0
H578 H 0.22835 0.10538 0.3771 0.0
C579 C 0.21147 0.08887 0.60674 0.0
C580 C 0.90042 0.11423 0.58586 0.0
C581 C 0.89156 0.09158 0.51976 0.0
H582 H 0.93194 0.15826 0.62429 0.0
C583 C 0.90839 0.09692 0.43839 0.0
H584 H 0.88795 0.11091 0.64928 0.0
C585 C 0.93371 0.12413 0.42402 0.0
C586 C 0.94281 0.14668 0.4907 0.0
H587 H 0.90218 0.08 0.38594 0.0
H588 H 0.94626 0.12737 0.36085 0.0
C589 C 0.92572 0.14142 0.57153 0.0
C590 C 0.91826 0.81947 0.66006 0.0
C591 C 0.93794 0.82049 0.59204 0.0
H592 H 0.87641 0.81488 0.68929 0.0
C593 C 0.92982 0.81783 0.49759 0.0
H594 H 0.92377 0.82115 0.73348 0.0
C595 C 0.90272 0.81498 0.47181 0.0
C596 C 0.88301 0.81397 0.54026 0.0
H597 H 0.94462 0.81854 0.44377 0.0
H598 H 0.89713 0.81336 0.3985 0.0
C599 C 0.89103 0.81586 0.63461 0.0
C600 C 0.80668 0.54511 0.70972 0.0
C601 C 0.81632 0.55109 0.80269 0.0
H602 H 0.77282 0.53723 0.61164 0.0
C603 C 0.79801 0.55336 0.86975 0.0
H604 H 0.82012 0.54293 0.65663 0.0
C605 C 0.77095 0.55047 0.84372 0.0
C606 C 0.76141 0.54461 0.75051 0.0
H607 H 0.80488 0.55801 0.94197 0.0
H608 H 0.75752 0.55284 0.89648 0.0
C609 C 0.77944 0.54164 0.6841 0.0
C610 C 0.48395 0.2672 0.85936 0.0
C611 C 0.48544 0.28698 0.79069 0.0
H612 H 0.48485 0.22767 0.88883 0.0
C613 C 0.49023 0.28221 0.69753 0.0
H614 H 0.48017 0.2702 0.93175 0.0
C615 C 0.49349 0.2583 0.6734 0.0
C616 C 0.49137 0.2382 0.74155 0.0
H617 H 0.49145 0.29691 0.64287 0.0
H618 H 0.49696 0.2552 0.6008 0.0
C619 C 0.48657 0.24284 0.83484 0.0
C620 C 0.75661 0.23536 0.67664 0.0
C621 C 0.75309 0.22444 0.76789 0.0
H622 H 0.78285 0.27035 0.58257 0.0
C623 C 0.7741 0.24142 0.8359 0.0
H624 H 0.74073 0.22285 0.62284 0.0
C625 C 0.79854 0.26844 0.81245 0.0
C626 C 0.80207 0.27929 0.72108 0.0
H627 H 0.77204 0.23351 0.90677 0.0
H628 H 0.81466 0.28082 0.8658 0.0
C629 C 0.78067 0.26264 0.65373 0.0
C630 C 0.89152 0.46797 0.82598 0.0
C631 C 0.88162 0.46859 0.91661 0.0
H632 H 0.90278 0.44449 0.727 0.0
C633 C 0.87574 0.44548 0.97792 0.0
H634 H 0.89616 0.48545 0.77713 0.0
C635 C 0.87995 0.42243 0.9499 0.0
C636 C 0.88969 0.42162 0.85931 0.0
H637 H 0.86818 0.44532 0.04829 0.0
H638 H 0.87523 0.40502 -0.00086 0.0
C639 C 0.89521 0.4445 0.79722 0.0
C640 C 0.59807 0.44163 0.97276 0.0
C641 C 0.57289 0.42936 0.91575 0.0
H642 H 0.64122 0.47794 0.99755 0.0
C643 C 0.57279 0.44465 0.83565 0.0
H644 H 0.59883 0.43044 0.03518 0.0
C645 C 0.59724 0.47179 0.81358 0.0
C646 C 0.62219 0.48437 0.87175 0.0
H647 H 0.55376 0.43575 0.79021 0.0
H648 H 0.59633 0.48314 0.7518 0.0
C649 C 0.62237 0.46891 0.95133 0.0
C650 C 0.58626 0.154 0.97647 0.0
C651 C 0.6045 0.15468 0.90388 0.0
H652 H 0.54401 0.14697 0.01595 0.0
C653 C 0.59347 0.14885 0.81223 0.0
H654 H 0.59408 0.15821 0.04786 0.0
C655 C 0.56478 0.14294 0.79361 0.0
C656 C 0.54646 0.14184 0.86681 0.0
H657 H 0.60713 0.14926 0.75504 0.0
H658 H 0.55679 0.13884 0.72242 0.0
C659 C 0.55748 0.1473 0.95831 0.0
C660 C 0.47233 0.87743 0.04521 0.0
C661 C 0.48368 0.88264 0.13629 0.0
H662 H 0.43556 0.86716 0.95724 0.0
C663 C 0.46575 0.88175 0.21044 0.0
H664 H 0.48552 0.87768 0.98682 0.0
C665 C 0.43713 0.87634 0.19313 0.0
C666 C 0.42577 0.87076 0.10186 0.0
H667 H 0.47401 0.88573 0.2813 0.0
H668 H 0.42377 0.87608 0.25103 0.0
C669 C 0.44363 0.8712 0.02837 0.0
C670 C 0.16334 0.61575 0.0437 0.0
C671 C 0.1471 0.61401 0.1237 0.0
H672 H 0.18086 0.59487 0.95796 0.0
C673 C 0.13645 0.58899 0.18073 0.0
H674 H 0.17193 0.6347 0.99829 0.0
C675 C 0.14138 0.56598 0.15713 0.0
C676 C 0.15735 0.56763 0.07653 0.0
H677 H 0.12382 0.58691 0.24284 0.0
H678 H 0.13251 0.54683 0.20172 0.0
C679 C 0.16854 0.59291 0.02069 0.0
C680 C 0.44581 0.57368 0.01529 0.0
C681 C 0.46615 0.59328 0.08028 0.0
H682 H 0.40667 0.5328 0.99212 0.0
C683 C 0.46174 0.58614 0.17553 0.0
H684 H 0.44877 0.57847 0.94132 0.0
C685 C 0.43697 0.56012 0.20516 0.0
C686 C 0.41661 0.54046 0.13979 0.0
H687 H 0.4771 0.60092 0.22711 0.0
H688 H 0.43391 0.55528 0.27905 0.0
C689 C 0.4216 0.54746 0.04453 0.0
C690 C 0.55317 0.76101 0.13287 0.0
C691 C 0.55051 0.73999 0.19858 0.0
H692 H 0.5526 0.80096 0.10839 0.0
C693 C 0.54374 0.74281 0.29135 0.0
H694 H 0.55835 0.75938 0.06078 0.0
C695 C 0.54005 0.76629 0.31829 0.0
C696 C 0.54343 0.78774 0.25329 0.0
H697 H 0.54101 0.72671 0.34317 0.0
H698 H 0.53503 0.76786 0.39059 0.0
C699 C 0.54995 0.78483 0.16016 0.0
C700 C 0.25465 0.7856 0.16223 0.0
C701 C 0.27367 0.80275 0.23444 0.0
H702 H 0.21503 0.74614 0.12502 0.0
C703 C 0.26748 0.79205 0.32617 0.0
H704 H 0.25879 0.79333 0.09083 0.0
C705 C 0.24278 0.76482 0.34537 0.0
C706 C 0.22338 0.74799 0.27355 0.0
H707 H 0.2818 0.80466 0.38315 0.0
H708 H 0.23853 0.75727 0.41694 0.0
C709 C 0.22956 0.75865 0.18175 0.0
C710 C 0.25972 0.47596 0.16841 0.0
C711 C 0.26911 0.48329 0.2614 0.0
H712 H 0.22616 0.46764 0.06729 0.0
C713 C 0.25123 0.48771 0.3245 0.0
H714 H 0.27312 0.47254 0.11819 0.0
C715 C 0.22435 0.48441 0.29595 0.0
C716 C 0.21489 0.47714 0.2032 0.0
H717 H 0.2578 0.49332 0.39665 0.0
H718 H 0.21112 0.48795 0.34645 0.0
C719 C 0.23297 0.47328 0.13924 0.0
C720 C 0.05131 0.24064 0.98891 0.0
C721 C 0.03366 0.21772 0.05038 0.0
H722 H 0.05853 0.25638 0.8484 0.0
C723 C 0.01055 0.19152 0.01373 0.0
H724 H 0.06937 0.26108 0.01479 0.0
C725 C 0.0044 0.18879 0.91821 0.0
C726 C 0.02116 0.21224 0.85735 0.0
H727 H 0.99665 0.17337 0.05911 0.0
H728 H 0.98587 0.16863 0.8927 0.0
C729 C 0.04509 0.23795 0.89344 0.0
C730 C 0.83405 0.83664 0.0448 0.0
C731 C 0.80646 0.8276 0.08517 0.0
H732 H 0.85849 0.84297 0.91929 0.0
C733 C 0.78216 0.81966 0.02644 0.0
H734 H 0.85325 0.84312 0.08809 0.0
C735 C 0.78512 0.81942 0.92956 0.0
C736 C 0.8125 0.82741 0.88929 0.0
H737 H 0.7606 0.81266 0.0553 0.0
H738 H 0.76577 0.81221 0.8864 0.0
C739 C 0.83707 0.83669 0.94792 0.0
C740 C 0.2134 0.98056 0.00017 0.0
C741 C 0.21365 1.00152 0.06166 0.0
H742 H 0.21666 0.96958 0.8583 0.0
C743 C 0.2152 0.027 0.02481 0.0
H744 H 0.21204 0.96062 0.02643 0.0
C745 C 0.21795 0.03213 0.92904 0.0
C746 C 0.21895 0.01181 0.86783 0.0
H747 H 0.21525 0.04351 0.0701 0.0
H748 H 0.22003 0.05244 0.90319 0.0
C749 C 0.2159 0.98561 0.90392 0.0
C750 C 0.01685 0.83287 0.96423 0.0
C751 C 1.00011 0.80525 0.92194 0.0
H752 H 0.03199 0.85713 0.09158 0.0
C753 C 0.98408 0.78053 0.97908 0.0
H754 H 0.02926 0.85239 0.92229 0.0
C755 C 0.9857 0.78321 0.07634 0.0
C756 C 1.00317 0.81071 0.1187 0.0
H757 H 0.97087 0.75892 0.9488 0.0
H758 H 0.97382 0.7636 0.11826 0.0
C759 C 0.01825 0.83559 0.06144 0.0
C760 C 0.25402 0.21882 0.04943 0.0
C761 C 0.23103 0.2219 0.08726 0.0
H762 H 0.27485 0.21533 0.92551 0.0
C763 C 0.21022 0.22239 0.02671 0.0
H764 H 0.2704 0.21838 0.09428 0.0
C765 C 0.21271 0.22059 0.93038 0.0
C766 C 0.23615 0.21838 0.89218 0.0
H767 H 0.19214 0.22459 0.05354 0.0
H768 H 0.19651 0.22148 0.88585 0.0
C769 C 0.25659 0.21714 0.95274 0.0
C770 C 0.81236 0.99973 0.07785 0.0
C771 C 0.8133 0.02101 0.13917 0.0
H772 H 0.81518 0.98818 0.93711 0.0
C773 C 0.82017 0.04862 0.10386 0.0
H774 H 0.8074 0.97832 0.10303 0.0
C775 C 0.82455 0.05427 0.00813 0.0
C776 C 0.82227 0.03245 0.94634 0.0
H777 H 0.82108 0.06546 0.14955 0.0
H778 H 0.82885 0.0754 0.98236 0.0
C779 C 0.81685 0.0054 0.98259 0.0
C780 C 0.67 0.5387 0.29286 0.0
C781 C 0.69113 0.55923 0.23166 0.0
H782 H 0.65739 0.52577 0.43415 0.0
C783 C 0.7172 0.58245 0.26866 0.0
H784 H 0.64974 0.52046 0.26662 0.0
C785 C 0.72155 0.58559 0.36524 0.0
C786 C 0.69998 0.56549 0.42643 0.0
H787 H 0.73389 0.59863 0.22324 0.0
H788 H 0.74158 0.60404 0.39186 0.0
C789 C 0.67439 0.54176 0.38907 0.0
C790 C 0.49474 0.15005 0.38703 0.0
C791 C 0.47057 0.15181 0.42083 0.0
H792 H 0.51508 0.1424 0.26982 0.0
C793 C 0.44907 0.14948 0.35724 0.0
H794 H 0.51183 0.15201 0.43382 0.0
C795 C 0.45098 0.14401 0.26261 0.0
C796 C 0.47438 0.14071 0.22997 0.0
H797 H 0.43025 0.1509 0.38095 0.0
H798 H 0.43353 0.1412 0.21593 0.0
C799 C 0.4966 0.14455 0.29279 0.0
C800 C 0.88932 0.36986 0.26929 0.0
C801 C 0.88849 0.34862 0.20812 0.0
H802 H 0.88812 0.38208 0.41035 0.0
C803 C 0.88357 0.32171 0.24424 0.0
H804 H 0.89285 0.39072 0.24344 0.0
C805 C 0.88101 0.31678 0.34048 0.0
C806 C 0.88319 0.33862 0.40187 0.0
H807 H 0.88285 0.30494 0.19863 0.0
H808 H 0.87816 0.29622 0.36678 0.0
C809 C 0.88664 0.3649 0.36507 0.0
C810 C 0.65064 0.12239 0.28013 0.0
C811 C 0.67173 0.14301 0.21891 0.0
H812 H 0.63969 0.10798 0.42174 0.0
C813 C 0.6976 0.16649 0.25586 0.0
H814 H 0.63041 0.10415 0.25374 0.0
C815 C 0.70291 0.16859 0.3515 0.0
C816 C 0.68241 0.1474 0.41247 0.0
H817 H 0.71421 0.18288 0.21075 0.0
H818 H 0.72344 0.18654 0.37739 0.0
C819 C 0.6559 0.12463 0.37628 0.0
C820 C 0.87094 0.54654 0.29455 0.0
C821 C 0.89502 0.54525 0.25742 0.0
H822 H 0.85069 0.55212 0.41593 0.0
C823 C 0.91635 0.54608 0.31875 0.0
H824 H 0.85398 0.54573 0.24951 0.0
C825 C 0.91434 0.54958 0.41482 0.0
C826 C 0.89107 0.55251 0.45098 0.0
H827 H 0.93509 0.54496 0.29237 0.0
H828 H 0.93163 0.55125 0.46008 0.0
C829 C 0.86906 0.55023 0.39011 0.0
C830 C 0.4857 0.39066 0.30394 0.0
C831 C 0.49373 0.37441 0.24528 0.0
H832 H 0.4792 0.40025 0.44418 0.0
C833 C 0.50382 0.35671 0.28552 0.0
H834 H 0.47793 0.40458 0.27506 0.0
C835 C 0.50491 0.35453 0.38239 0.0
C836 C 0.49561 0.36973 0.44112 0.0
H837 H 0.51042 0.34413 0.2422 0.0
H838 H 0.51202 0.34005 0.41102 0.0
C839 C 0.48648 0.38822 0.40088 0.0
C840 C 0.37159 0.90063 0.62978 0.0
C841 C 0.34484 0.87788 0.59486 0.0
H842 H 0.39795 0.921 0.75085 0.0
C843 C 0.32483 0.85655 0.65654 0.0
H844 H 0.38744 0.91738 0.58378 0.0
C845 C 0.33087 0.85852 0.75174 0.0
C846 C 0.35697 0.88201 0.7875 0.0
H847 H 0.30413 0.83862 0.63161 0.0
H848 H 0.31462 0.84206 0.79755 0.0
C849 C 0.37756 0.90275 0.72543 0.0
C850 C 0.16443 0.48446 0.7075 0.0
C851 C 0.14167 0.48824 0.74351 0.0
H852 H 0.18279 0.47547 0.58767 0.0
C853 C 0.12086 0.48826 0.68178 0.0
H854 H 0.18094 0.48452 0.75299 0.0
C855 C 0.12201 0.48317 0.58653 0.0
C856 C 0.14389 0.47782 0.55158 0.0
H857 H 0.10314 0.49126 0.70733 0.0
H858 H 0.10511 0.48229 0.54105 0.0
C859 C 0.16547 0.47922 0.61265 0.0
C860 C 0.5461 0.63604 0.68079 0.0
C861 C 0.54418 0.65596 0.74183 0.0
H862 H 0.55162 0.62618 0.53962 0.0
C863 C 0.54373 0.6804 0.7043 0.0
H864 H 0.54632 0.61689 0.70747 0.0
C865 C 0.54679 0.6857 0.60854 0.0
C866 C 0.55022 0.66662 0.54793 0.0
H867 H 0.54202 0.69605 0.74915 0.0
H868 H 0.54737 0.7053 0.58236 0.0
C869 C 0.54901 0.64128 0.5846 0.0
C870 C 0.34638 0.49455 0.74145 0.0
C871 C 0.33091 0.46978 0.79891 0.0
H872 H 0.35747 0.51119 0.60212 0.0
C873 C 0.31273 0.4424 0.75676 0.0
H874 H 0.36066 0.51599 0.77142 0.0
C875 C 0.31082 0.43969 0.6595 0.0
C876 C 0.32728 0.46425 0.60212 0.0
H877 H 0.30052 0.42288 0.79883 0.0
H878 H 0.29708 0.41815 0.62941 0.0
C879 C 0.3447 0.49179 0.64423 0.0
C880 C 0.58036 0.88216 0.73776 0.0
C881 C 0.55644 0.88464 0.7701 0.0
H882 H 0.6017 0.87594 0.6198 0.0
C883 C 0.53403 0.88007 0.70701 0.0
H884 H 0.59798 0.88556 0.78459 0.0
C885 C 0.53613 0.8746 0.61286 0.0
C886 C 0.56075 0.87361 0.57937 0.0
H887 H 0.51517 0.88161 0.72971 0.0
H888 H 0.51885 0.87206 0.56588 0.0
C889 C 0.58251 0.87673 0.64323 0.0
C890 C 0.14029 0.70977 0.63481 0.0
C891 C 0.1368 0.68716 0.57445 0.0
H892 H 0.14147 0.72346 0.77636 0.0
C893 C 0.1328 0.66084 0.6127 0.0
H894 H 0.14354 0.73036 0.60745 0.0
C895 C 0.13161 0.65692 0.70905 0.0
C896 C 0.1345 0.67925 0.76949 0.0
H897 H 0.13018 0.64303 0.56822 0.0
H898 H 0.12806 0.63617 0.73605 0.0
C899 C 0.13921 0.70587 0.73153 0.0
loop_
_geom_bond_atom_site_label_1
_geom_bond_atom_site_label_2
_geom_bond_distance
_geom_bond_site_symmetry_2
_ccdc_geom_bond_type
Zn0 O6 1.968 . S
Zn0 O7 1.946 . S
Zn0 O11 2.026 1_455 S
Zn0 O16 1.968 . S
Zn1 O8 1.969 1_455 S
Zn1 O14 1.969 . S
Zn1 O15 1.965 . S
Zn1 O17 2.024 . S
C2 O3 1.229 . S
C2 O11 1.058 . S
O3 C2 1.229 . S
C4 O5 1.229 . S
C4 O17 1.058 . S
O5 C4 1.229 . S
O6 Zn0 1.968 . S
O6 C9 1.267 . S
O7 Zn0 1.946 . S
O7 C18 1.257 1_455 S
O8 Zn1 1.969 1_655 S
O8 C18 1.258 . S
C9 O6 1.267 . S
C9 O10 1.228 1_455 S
O10 C9 1.228 1_655 S
O11 Zn0 2.026 1_655 S
O11 C2 1.058 . S
C12 O13 1.228 . S
C12 O14 1.267 . S
O13 C12 1.228 . S
O14 Zn1 1.969 . S
O14 C12 1.267 . S
O15 Zn1 1.965 . S
O15 C19 1.260 . S
O16 Zn0 1.968 . S
O16 C19 1.258 . S
O17 Zn1 2.024 . S
O17 C4 1.058 . S
C18 O7 1.257 1_655 S
C18 O8 1.258 . S
C19 O15 1.260 . S
C19 O16 1.258 . S
Zn20 O26 1.969 . S
Zn20 O27 1.965 . S
Zn20 O31 2.024 . S
Zn20 O36 1.969 . S
Zn21 O28 1.969 . S
Zn21 O34 1.969 . S
Zn21 O35 1.965 . S
Zn21 O37 2.024 . S
C22 O23 1.229 . S
C22 O31 1.058 . S
O23 C22 1.229 . S
C24 O25 1.229 . S
C24 O37 1.058 . S
O25 C24 1.229 . S
O26 Zn20 1.969 . S
O26 C29 1.267 . S
O27 Zn20 1.965 . S
O27 C38 1.260 . S
O28 Zn21 1.969 . S
O28 C38 1.258 . S
C29 O26 1.267 . S
C29 O30 1.228 . S
O30 C29 1.228 . S
O31 Zn20 2.024 . S
O31 C22 1.058 . S
C32 O33 1.228 . S
C32 O34 1.267 . S
O33 C32 1.228 . S
O34 Zn21 1.969 . S
O34 C32 1.267 . S
O35 Zn21 1.965 . S
O35 C39 1.260 . S
O36 Zn20 1.969 . S
O36 C39 1.258 . S
O37 Zn21 2.024 . S
O37 C24 1.058 . S
C38 O27 1.260 . S
C38 O28 1.258 . S
C39 O35 1.260 . S
C39 O36 1.258 . S
Zn40 O46 1.969 . S
Zn40 O47 1.965 . S
Zn40 O51 2.024 . S
Zn40 O56 1.969 1_545 S
Zn41 O48 1.969 1_565 S
Zn41 O54 1.969 1_565 S
Zn41 O55 1.965 . S
Zn41 O57 2.024 . S
C42 O43 1.229 . S
C42 O51 1.058 . S
O43 C42 1.229 . S
C44 O45 1.229 . S
C44 O57 1.058 . S
O45 C44 1.229 . S
O46 Zn40 1.969 . S
O46 C49 1.267 . S
O47 Zn40 1.965 . S
O47 C58 1.260 . S
O48 Zn41 1.969 1_545 S
O48 C58 1.258 . S
C49 O46 1.267 . S
C49 O50 1.228 . S
O50 C49 1.228 . S
O51 Zn40 2.024 . S
O51 C42 1.058 . S
C52 O53 1.228 . S
C52 O54 1.267 1_565 S
O53 C52 1.228 . S
O54 Zn41 1.969 1_545 S
O54 C52 1.267 1_545 S
O55 Zn41 1.965 . S
O55 C59 1.260 . S
O56 Zn40 1.969 1_565 S
O56 C59 1.258 . S
O57 Zn41 2.024 . S
O57 C44 1.058 . S
C58 O47 1.260 . S
C58 O48 1.258 . S
C59 O55 1.260 . S
C59 O56 1.258 . S
Zn60 O66 1.969 1_655 S
Zn60 O67 1.965 . S
Zn60 O71 2.024 . S
Zn60 O76 1.969 1_655 S
Zn61 O68 1.969 1_455 S
Zn61 O74 1.969 . S
Zn61 O75 1.965 . S
Zn61 O77 2.024 . S
C62 O63 1.229 . S
C62 O71 1.058 . S
O63 C62 1.229 . S
C64 O65 1.229 . S
C64 O77 1.058 . S
O65 C64 1.229 . S
O66 Zn60 1.969 1_455 S
O66 C69 1.267 1_455 S
O67 Zn60 1.965 . S
O67 C78 1.260 . S
O68 Zn61 1.969 1_655 S
O68 C78 1.258 . S
C69 O66 1.267 1_655 S
C69 O70 1.228 . S
O70 C69 1.228 . S
O71 Zn60 2.024 . S
O71 C62 1.058 . S
C72 O73 1.228 . S
C72 O74 1.267 . S
O73 C72 1.228 . S
O74 Zn61 1.969 . S
O74 C72 1.267 . S
O75 Zn61 1.965 . S
O75 C79 1.260 . S
O76 Zn60 1.969 1_455 S
O76 C79 1.258 . S
O77 Zn61 2.024 . S
O77 C64 1.058 . S
C78 O67 1.260 . S
C78 O68 1.258 . S
C79 O75 1.260 . S
C79 O76 1.258 . S
Zn80 O86 1.969 . S
Zn80 O87 1.965 . S
Zn80 O91 2.024 . S
Zn80 O96 1.969 . S
Zn81 O88 1.969 . S
Zn81 O94 1.969 . S
Zn81 O95 1.965 . S
Zn81 O97 2.024 . S
C82 O83 1.229 . S
C82 O91 1.058 . S
O83 C82 1.229 . S
C84 O85 1.229 . S
C84 O97 1.058 . S
O85 C84 1.229 . S
O86 Zn80 1.969 . S
O86 C89 1.267 . S
O87 Zn80 1.965 . S
O87 C98 1.260 . S
O88 Zn81 1.969 . S
O88 C98 1.258 . S
C89 O86 1.267 . S
C89 O90 1.228 . S
O90 C89 1.228 . S
O91 Zn80 2.024 . S
O91 C82 1.058 . S
C92 O93 1.228 . S
C92 O94 1.267 . S
O93 C92 1.228 . S
O94 Zn81 1.969 . S
O94 C92 1.267 . S
O95 Zn81 1.965 . S
O95 C99 1.260 . S
O96 Zn80 1.969 . S
O96 C99 1.258 . S
O97 Zn81 2.024 . S
O97 C84 1.058 . S
C98 O87 1.260 . S
C98 O88 1.258 . S
C99 O95 1.260 . S
C99 O96 1.258 . S
Zn100 O106 1.969 . S
Zn100 O107 1.965 . S
Zn100 O111 2.024 . S
Zn100 O116 1.969 1_545 S
Zn101 O108 1.973 1_565 S
Zn101 O114 1.971 1_565 S
Zn101 O115 1.977 1_565 S
Zn101 O117 2.021 . S
C102 O103 1.229 . S
C102 O111 1.058 . S
O103 C102 1.229 . S
C104 O105 1.229 . S
C104 O117 1.058 . S
O105 C104 1.229 . S
O106 Zn100 1.969 . S
O106 C109 1.267 . S
O107 Zn100 1.965 . S
O107 C118 1.260 . S
O108 Zn101 1.973 1_545 S
O108 C118 1.258 . S
C109 O106 1.267 . S
C109 O110 1.228 . S
O110 C109 1.228 . S
O111 Zn100 2.024 . S
O111 C102 1.058 . S
C112 O113 1.228 1_545 S
C112 O114 1.267 . S
O113 C112 1.228 1_565 S
O114 Zn101 1.971 1_545 S
O114 C112 1.267 . S
O115 Zn101 1.977 1_545 S
O115 C119 1.237 1_545 S
O116 Zn100 1.969 1_565 S
O116 C119 1.258 . S
O117 Zn101 2.021 . S
O117 C104 1.058 . S
C118 O107 1.260 . S
C118 O108 1.258 . S
C119 O115 1.237 1_565 S
C119 O116 1.258 . S
Zn120 O126 1.969 . S
Zn120 O127 1.965 1_554 S
Zn120 O131 2.024 1_554 S
Zn120 O136 1.969 1_554 S
Zn121 O128 1.969 . S
Zn121 O134 1.969 . S
Zn121 O135 1.965 . S
Zn121 O137 2.024 . S
C122 O123 1.229 . S
C122 O131 1.058 1_554 S
O123 C122 1.229 . S
C124 O125 1.229 . S
C124 O137 1.058 . S
O125 C124 1.229 . S
O126 Zn120 1.969 . S
O126 C129 1.267 . S
O127 Zn120 1.965 1_556 S
O127 C138 1.260 . S
O128 Zn121 1.969 . S
O128 C138 1.258 . S
C129 O126 1.267 . S
C129 O130 1.228 . S
O130 C129 1.228 . S
O131 Zn120 2.024 1_556 S
O131 C122 1.058 1_556 S
C132 O133 1.228 . S
C132 O134 1.267 . S
O133 C132 1.228 . S
O134 Zn121 1.969 . S
O134 C132 1.267 . S
O135 Zn121 1.965 . S
O135 C139 1.260 . S
O136 Zn120 1.969 1_556 S
O136 C139 1.258 . S
O137 Zn121 2.024 . S
O137 C124 1.058 . S
C138 O127 1.260 . S
C138 O128 1.258 . S
C139 O135 1.260 . S
C139 O136 1.258 . S
Zn140 O146 1.969 . S
Zn140 O147 1.965 1_554 S
Zn140 O151 2.024 1_554 S
Zn140 O156 1.969 1_554 S
Zn141 O148 1.969 . S
Zn141 O154 1.969 . S
Zn141 O155 1.965 . S
Zn141 O157 2.024 . S
C142 O143 1.229 . S
C142 O151 1.058 1_554 S
O143 C142 1.229 . S
C144 O145 1.229 . S
C144 O157 1.058 . S
O145 C144 1.229 . S
O146 Zn140 1.969 . S
O146 C149 1.267 . S
O147 Zn140 1.965 1_556 S
O147 C158 1.260 . S
O148 Zn141 1.969 . S
O148 C158 1.258 . S
C149 O146 1.267 . S
C149 O150 1.228 . S
O150 C149 1.228 . S
O151 Zn140 2.024 1_556 S
O151 C142 1.058 1_556 S
C152 O153 1.228 . S
C152 O154 1.267 . S
O153 C152 1.228 . S
O154 Zn141 1.969 . S
O154 C152 1.267 . S
O155 Zn141 1.965 . S
O155 C159 1.260 . S
O156 Zn140 1.969 1_556 S
O156 C159 1.258 . S
O157 Zn141 2.024 . S
O157 C144 1.058 . S
C158 O147 1.260 . S
C158 O148 1.258 . S
C159 O155 1.260 . S
C159 O156 1.258 . S
Zn160 O166 1.969 . S
Zn160 O167 1.965 1_554 S
Zn160 O171 2.024 1_554 S
Zn160 O176 1.969 1_554 S
Zn161 O168 1.969 . S
Zn161 O174 1.969 . S
Zn161 O175 1.965 . S
Zn161 O177 2.024 . S
C162 O163 1.229 . S
C162 O171 1.058 1_554 S
O163 C162 1.229 . S
C164 O165 1.229 . S
C164 O177 1.058 . S
O165 C164 1.229 . S
O166 Zn160 1.969 . S
O166 C169 1.267 . S
O167 Zn160 1.965 1_556 S
O167 C178 1.260 . S
O168 Zn161 1.969 . S
O168 C178 1.258 . S
C169 O166 1.267 . S
C169 O170 1.228 . S
O170 C169 1.228 . S
O171 Zn160 2.024 1_556 S
O171 C162 1.058 1_556 S
C172 O173 1.228 . S
C172 O174 1.267 . S
O173 C172 1.228 . S
O174 Zn161 1.969 . S
O174 C172 1.267 . S
O175 Zn161 1.965 . S
O175 C179 1.260 . S
O176 Zn160 1.969 1_556 S
O176 C179 1.258 . S
O177 Zn161 2.024 . S
O177 C164 1.058 . S
C178 O167 1.260 . S
C178 O168 1.258 . S
C179 O175 1.260 . S
C179 O176 1.258 . S
Zn180 O186 1.969 1_556 S
Zn180 O187 1.965 . S
Zn180 O191 2.024 . S
Zn180 O196 1.969 . S
Zn181 O188 1.969 . S
Zn181 O194 1.969 . S
Zn181 O195 1.965 . S
Zn181 O197 2.024 . S
C182 O183 1.229 . S
C182 O191 1.058 . S
O183 C182 1.229 . S
C184 O185 1.229 . S
C184 O197 1.058 . S
O185 C184 1.229 . S
O186 Zn180 1.969 1_554 S
O186 C189 1.267 . S
O187 Zn180 1.965 . S
O187 C198 1.260 . S
O188 Zn181 1.969 . S
O188 C198 1.258 . S
C189 O186 1.267 . S
C189 O190 1.228 . S
O190 C189 1.228 . S
O191 Zn180 2.024 . S
O191 C182 1.058 . S
C192 O193 1.228 . S
C192 O194 1.267 . S
O193 C192 1.228 . S
O194 Zn181 1.969 . S
O194 C192 1.267 . S
O195 Zn181 1.965 . S
O195 C199 1.260 . S
O196 Zn180 1.969 . S
O196 C199 1.258 . S
O197 Zn181 2.024 . S
O197 C184 1.058 . S
C198 O187 1.260 . S
C198 O188 1.258 . S
C199 O195 1.260 . S
C199 O196 1.258 . S
Zn200 O206 1.969 1_556 S
Zn200 O207 1.965 . S
Zn200 O211 2.024 . S
Zn200 O216 1.969 . S
Zn201 O208 1.969 . S
Zn201 O214 1.969 . S
Zn201 O215 1.965 . S
Zn201 O217 2.024 . S
C202 O203 1.229 . S
C202 O211 1.058 . S
O203 C202 1.229 . S
C204 O205 1.229 . S
C204 O217 1.058 . S
O205 C204 1.229 . S
O206 Zn200 1.969 1_554 S
O206 C209 1.267 . S
O207 Zn200 1.965 . S
O207 C218 1.260 . S
O208 Zn201 1.969 . S
O208 C218 1.258 . S
C209 O206 1.267 . S
C209 O210 1.228 . S
O210 C209 1.228 . S
O211 Zn200 2.024 . S
O211 C202 1.058 . S
C212 O213 1.228 . S
C212 O214 1.267 . S
O213 C212 1.228 . S
O214 Zn201 1.969 . S
O214 C212 1.267 . S
O215 Zn201 1.965 . S
O215 C219 1.260 . S
O216 Zn200 1.969 . S
O216 C219 1.258 . S
O217 Zn201 2.024 . S
O217 C204 1.058 . S
C218 O207 1.260 . S
C218 O208 1.258 . S
C219 O215 1.260 . S
C219 O216 1.258 . S
Zn220 O226 1.969 1_556 S
Zn220 O227 1.965 . S
Zn220 O231 2.024 . S
Zn220 O236 1.969 . S
Zn221 O228 1.969 . S
Zn221 O234 1.969 . S
Zn221 O235 1.965 . S
Zn221 O237 2.024 . S
C222 O223 1.229 . S
C222 O231 1.058 . S
O223 C222 1.229 . S
C224 O225 1.229 . S
C224 O237 1.058 . S
O225 C224 1.229 . S
O226 Zn220 1.969 1_554 S
O226 C229 1.267 . S
O227 Zn220 1.965 . S
O227 C238 1.260 . S
O228 Zn221 1.969 . S
O228 C238 1.258 . S
C229 O226 1.267 . S
C229 O230 1.228 . S
O230 C229 1.228 . S
O231 Zn220 2.024 . S
O231 C222 1.058 . S
C232 O233 1.228 . S
C232 O234 1.267 . S
O233 C232 1.228 . S
O234 Zn221 1.969 . S
O234 C232 1.267 . S
O235 Zn221 1.965 . S
O235 C239 1.260 . S
O236 Zn220 1.969 . S
O236 C239 1.258 . S
O237 Zn221 2.024 . S
O237 C224 1.058 . S
C238 O227 1.260 . S
C238 O228 1.258 . S
C239 O235 1.260 . S
C239 O236 1.258 . S
Zn240 O246 1.969 . S
Zn240 O247 1.965 . S
Zn240 O251 2.024 . S
Zn240 O256 1.969 . S
Zn241 O248 1.969 . S
Zn241 O254 1.969 1_554 S
Zn241 O255 1.965 . S
Zn241 O257 2.024 . S
C242 O243 1.229 . S
C242 O251 1.058 . S
O243 C242 1.229 . S
C244 O245 1.229 . S
C244 O257 1.058 . S
O245 C244 1.229 . S
O246 Zn240 1.969 . S
O246 C249 1.267 . S
O247 Zn240 1.965 . S
O247 C258 1.260 . S
O248 Zn241 1.969 . S
O248 C258 1.258 . S
C249 O246 1.267 . S
C249 O250 1.228 . S
O250 C249 1.228 . S
O251 Zn240 2.024 . S
O251 C242 1.058 . S
C252 O253 1.228 . S
C252 O254 1.267 . S
O253 C252 1.228 . S
O254 Zn241 1.969 1_556 S
O254 C252 1.267 . S
O255 Zn241 1.965 . S
O255 C259 1.260 . S
O256 Zn240 1.969 . S
O256 C259 1.258 . S
O257 Zn241 2.024 . S
O257 C244 1.058 . S
C258 O247 1.260 . S
C258 O248 1.258 . S
C259 O255 1.260 . S
C259 O256 1.258 . S
Zn260 O266 1.969 . S
Zn260 O267 1.965 . S
Zn260 O271 2.024 . S
Zn260 O276 1.969 . S
Zn261 O268 1.969 . S
Zn261 O274 1.969 1_554 S
Zn261 O275 1.965 . S
Zn261 O277 2.024 . S
C262 O263 1.229 . S
C262 O271 1.058 . S
O263 C262 1.229 . S
C264 O265 1.229 . S
C264 O277 1.058 . S
O265 C264 1.229 . S
O266 Zn260 1.969 . S
O266 C269 1.267 . S
O267 Zn260 1.965 . S
O267 C278 1.260 . S
O268 Zn261 1.969 . S
O268 C278 1.258 . S
C269 O266 1.267 . S
C269 O270 1.228 . S
O270 C269 1.228 . S
O271 Zn260 2.024 . S
O271 C262 1.058 . S
C272 O273 1.228 . S
C272 O274 1.267 . S
O273 C272 1.228 . S
O274 Zn261 1.969 1_556 S
O274 C272 1.267 . S
O275 Zn261 1.965 . S
O275 C279 1.260 . S
O276 Zn260 1.969 . S
O276 C279 1.258 . S
O277 Zn261 2.024 . S
O277 C264 1.058 . S
C278 O267 1.260 . S
C278 O268 1.258 . S
C279 O275 1.260 . S
C279 O276 1.258 . S
Zn280 O286 1.969 . S
Zn280 O287 1.965 . S
Zn280 O291 2.024 . S
Zn280 O296 1.969 . S
Zn281 O288 1.969 . S
Zn281 O294 1.969 1_554 S
Zn281 O295 1.965 . S
Zn281 O297 2.024 . S
C282 O283 1.229 . S
C282 O291 1.058 . S
O283 C282 1.229 . S
C284 O285 1.229 . S
C284 O297 1.058 . S
O285 C284 1.229 . S
O286 Zn280 1.969 . S
O286 C289 1.267 . S
O287 Zn280 1.965 . S
O287 C298 1.260 . S
O288 Zn281 1.969 . S
O288 C298 1.258 . S
C289 O286 1.267 . S
C289 O290 1.228 . S
O290 C289 1.228 . S
O291 Zn280 2.024 . S
O291 C282 1.058 . S
C292 O293 1.228 . S
C292 O294 1.267 . S
O293 C292 1.228 . S
O294 Zn281 1.969 1_556 S
O294 C292 1.267 . S
O295 Zn281 1.965 . S
O295 C299 1.260 . S
O296 Zn280 1.969 . S
O296 C299 1.258 . S
O297 Zn281 2.024 . S
O297 C284 1.058 . S
C298 O287 1.260 . S
C298 O288 1.258 . S
C299 O295 1.260 . S
C299 O296 1.258 . S
Zn300 O306 1.969 . S
Zn300 O307 1.965 . S
Zn300 O311 2.024 . S
Zn300 O316 1.969 . S
Zn301 O308 1.969 1_556 S
Zn301 O314 1.969 . S
Zn301 O315 1.965 1_556 S
Zn301 O317 2.024 1_556 S
C302 O303 1.229 . S
C302 O311 1.058 . S
O303 C302 1.229 . S
C304 O305 1.229 . S
C304 O317 1.058 1_556 S
O305 C304 1.229 . S
O306 Zn300 1.969 . S
O306 C309 1.267 . S
O307 Zn300 1.965 . S
O307 C318 1.260 . S
O308 Zn301 1.969 1_554 S
O308 C318 1.258 . S
C309 O306 1.267 . S
C309 O310 1.228 . S
O310 C309 1.228 . S
O311 Zn300 2.024 . S
O311 C302 1.058 . S
C312 O313 1.228 . S
C312 O314 1.267 . S
O313 C312 1.228 . S
O314 Zn301 1.969 . S
O314 C312 1.267 . S
O315 Zn301 1.965 1_554 S
O315 C319 1.260 . S
O316 Zn300 1.969 . S
O316 C319 1.258 . S
O317 Zn301 2.024 1_554 S
O317 C304 1.058 1_554 S
C318 O307 1.260 . S
C318 O308 1.258 . S
C319 O315 1.260 . S
C319 O316 1.258 . S
Zn320 O326 1.969 . S
Zn320 O327 1.965 . S
Zn320 O331 2.024 . S
Zn320 O336 1.969 . S
Zn321 O328 1.969 1_556 S
Zn321 O334 1.969 . S
Zn321 O335 1.965 1_556 S
Zn321 O337 2.024 1_556 S
C322 O323 1.229 . S
C322 O331 1.058 . S
O323 C322 1.229 . S
C324 O325 1.229 . S
C324 O337 1.058 1_556 S
O325 C324 1.229 . S
O326 Zn320 1.969 . S
O326 C329 1.267 . S
O327 Zn320 1.965 . S
O327 C338 1.260 . S
O328 Zn321 1.969 1_554 S
O328 C338 1.258 . S
C329 O326 1.267 . S
C329 O330 1.228 . S
O330 C329 1.228 . S
O331 Zn320 2.024 . S
O331 C322 1.058 . S
C332 O333 1.228 . S
C332 O334 1.267 . S
O333 C332 1.228 . S
O334 Zn321 1.969 . S
O334 C332 1.267 . S
O335 Zn321 1.965 1_554 S
O335 C339 1.260 . S
O336 Zn320 1.969 . S
O336 C339 1.258 . S
O337 Zn321 2.024 1_554 S
O337 C324 1.058 1_554 S
C338 O327 1.260 . S
C338 O328 1.258 . S
C339 O335 1.260 . S
C339 O336 1.258 . S
Zn340 O346 1.969 . S
Zn340 O347 1.965 . S
Zn340 O351 2.024 . S
Zn340 O356 1.969 . S
Zn341 O348 1.969 1_556 S
Zn341 O354 1.969 . S
Zn341 O355 1.965 1_556 S
Zn341 O357 2.024 1_556 S
C342 O343 1.229 . S
C342 O351 1.058 . S
O343 C342 1.229 . S
C344 O345 1.229 . S
C344 O357 1.058 1_556 S
O345 C344 1.229 . S
O346 Zn340 1.969 . S
O346 C349 1.267 . S
O347 Zn340 1.965 . S
O347 C358 1.260 . S
O348 Zn341 1.969 1_554 S
O348 C358 1.258 . S
C349 O346 1.267 . S
C349 O350 1.228 . S
O350 C349 1.228 . S
O351 Zn340 2.024 . S
O351 C342 1.058 . S
C352 O353 1.228 . S
C352 O354 1.267 . S
O353 C352 1.228 . S
O354 Zn341 1.969 . S
O354 C352 1.267 . S
O355 Zn341 1.965 1_554 S
O355 C359 1.260 . S
O356 Zn340 1.969 . S
O356 C359 1.258 . S
O357 Zn341 2.024 1_554 S
O357 C344 1.058 1_554 S
C358 O347 1.260 . S
C358 O348 1.258 . S
C359 O355 1.260 . S
C359 O356 1.258 . S
C360 C361 1.387 . S
C360 H364 0.950 . S
C360 C369 1.390 . S
C361 C360 1.387 . S
C361 C363 1.387 . S
H362 C369 0.950 . S
C363 C361 1.387 . S
C363 C365 1.390 . S
C363 H367 0.950 . S
H364 C360 0.950 . S
C365 C363 1.390 . S
C365 C366 1.387 . S
C365 H368 0.950 . S
C366 C365 1.387 . S
C366 C369 1.387 . S
H367 C363 0.950 . S
H368 C365 0.950 . S
C369 C360 1.390 . S
C369 H362 0.950 . S
C369 C366 1.387 . S
C370 C371 1.387 . S
C370 H374 0.950 . S
C370 C379 1.390 . S
C371 C370 1.387 . S
C371 C373 1.387 . S
H372 C379 0.950 . S
C373 C371 1.387 . S
C373 C375 1.390 . S
C373 H377 0.950 . S
H374 C370 0.950 . S
C375 C373 1.390 . S
C375 C376 1.387 . S
C375 H378 0.950 . S
C376 C375 1.387 . S
C376 C379 1.387 . S
H377 C373 0.950 . S
H378 C375 0.950 . S
C379 C370 1.390 . S
C379 H372 0.950 . S
C379 C376 1.387 . S
C380 C381 1.387 . S
C380 H384 0.950 . S
C380 C389 1.390 . S
C381 C380 1.387 . S
C381 C383 1.387 . S
H382 C389 0.950 . S
C383 C381 1.387 . S
C383 C385 1.390 . S
C383 H387 0.950 . S
H384 C380 0.950 . S
C385 C383 1.390 . S
C385 C386 1.387 . S
C385 H388 0.950 . S
C386 C385 1.387 . S
C386 C389 1.387 . S
H387 C383 0.950 . S
H388 C385 0.950 . S
C389 C380 1.390 . S
C389 H382 0.950 . S
C389 C386 1.387 . S
C390 C391 1.387 . S
C390 H394 0.950 . S
C390 C399 1.390 . S
C391 C390 1.387 . S
C391 C393 1.387 . S
H392 C399 0.950 . S
C393 C391 1.387 . S
C393 C395 1.390 . S
C393 H397 0.950 . S
H394 C390 0.950 . S
C395 C393 1.390 . S
C395 C396 1.387 . S
C395 H398 0.950 . S
C396 C395 1.387 . S
C396 C399 1.387 . S
H397 C393 0.950 . S
H398 C395 0.950 . S
C399 C390 1.390 . S
C399 H392 0.950 . S
C399 C396 1.387 . S
C400 C401 1.387 . S
C400 H404 0.950 . S
C400 C409 1.390 . S
C401 C400 1.387 . S
C401 C403 1.387 . S
H402 C409 0.950 . S
C403 C401 1.387 . S
C403 C405 1.390 . S
C403 H407 0.950 . S
H404 C400 0.950 . S
C405 C403 1.390 . S
C405 C406 1.387 . S
C405 H408 0.950 . S
C406 C405 1.387 . S
C406 C409 1.387 . S
H407 C403 0.950 . S
H408 C405 0.950 . S
C409 C400 1.390 . S
C409 H402 0.950 . S
C409 C406 1.387 . S
C410 C411 1.387 . S
C410 H414 0.950 . S
C410 C419 1.390 . S
C411 C410 1.387 . S
C411 C413 1.387 . S
H412 C419 0.950 . S
C413 C411 1.387 . S
C413 C415 1.390 . S
C413 H417 0.950 . S
H414 C410 0.950 . S
C415 C413 1.390 . S
C415 C416 1.387 . S
C415 H418 0.950 . S
C416 C415 1.387 . S
C416 C419 1.387 . S
H417 C413 0.950 . S
H418 C415 0.950 . S
C419 C410 1.390 . S
C419 H412 0.950 . S
C419 C416 1.387 . S
C420 C421 1.387 . S
C420 H424 0.950 . S
C420 C429 1.390 . S
C421 C420 1.387 . S
C421 C423 1.387 . S
H422 C429 0.950 . S
C423 C421 1.387 . S
C423 C425 1.390 . S
C423 H427 0.950 . S
H424 C420 0.950 . S
C425 C423 1.390 . S
C425 C426 1.387 . S
C425 H428 0.950 . S
C426 C425 1.387 . S
C426 C429 1.387 . S
H427 C423 0.950 . S
H428 C425 0.950 . S
C429 C420 1.390 . S
C429 H422 0.950 . S
C429 C426 1.387 . S
C430 C431 1.387 . S
C430 H434 0.950 . S
C430 C439 1.390 . S
C431 C430 1.387 . S
C431 C433 1.387 . S
H432 C439 0.950 . S
C433 C431 1.387 . S
C433 C435 1.390 . S
C433 H437 0.950 . S
H434 C430 0.950 . S
C435 C433 1.390 . S
C435 C436 1.387 . S
C435 H438 0.950 . S
C436 C435 1.387 . S
C436 C439 1.387 . S
H437 C433 0.950 . S
H438 C435 0.950 . S
C439 C430 1.390 . S
C439 H432 0.950 . S
C439 C436 1.387 . S
C440 C441 1.387 . S
C440 H444 0.950 . S
C440 C449 1.390 . S
C441 C440 1.387 . S
C441 C443 1.387 . S
H442 C449 0.950 . S
C443 C441 1.387 . S
C443 C445 1.390 . S
C443 H447 0.950 . S
H444 C440 0.950 . S
C445 C443 1.390 . S
C445 C446 1.387 . S
C445 H448 0.950 . S
C446 C445 1.387 . S
C446 C449 1.387 . S
H447 C443 0.950 . S
H448 C445 0.950 . S
C449 C440 1.390 . S
C449 H442 0.950 . S
C449 C446 1.387 . S
C450 C451 1.387 . S
C450 H454 0.950 . S
C450 C459 1.390 . S
C451 C450 1.387 . S
C451 C453 1.387 . S
H452 C459 0.950 . S
C453 C451 1.387 . S
C453 C455 1.390 . S
C453 H457 0.950 . S
H454 C450 0.950 . S
C455 C453 1.390 . S
C455 C456 1.387 . S
C455 H458 0.950 . S
C456 C455 1.387 . S
C456 C459 1.387 . S
H457 C453 0.950 . S
H458 C455 0.950 . S
C459 C450 1.390 . S
C459 H452 0.950 . S
C459 C456 1.387 . S
C460 C461 1.387 . S
C460 H464 0.950 . S
C460 C469 1.390 . S
C461 C460 1.387 . S
C461 C463 1.387 . S
H462 C469 0.950 . S
C463 C461 1.387 . S
C463 C465 1.390 . S
C463 H467 0.950 . S
H464 C460 0.950 . S
C465 C463 1.390 . S
C465 C466 1.387 . S
C465 H468 0.950 . S
C466 C465 1.387 . S
C466 C469 1.387 . S
H467 C463 0.950 . S
H468 C465 0.950 . S
C469 C460 1.390 . S
C469 H462 0.950 . S
C469 C466 1.387 . S
C470 C471 1.387 . S
C470 H474 0.950 . S
C470 C479 1.390 . S
C471 C470 1.387 . S
C471 C473 1.387 . S
H472 C479 0.950 . S
C473 C471 1.387 . S
C473 C475 1.390 . S
C473 H477 0.950 . S
H474 C470 0.950 . S
C475 C473 1.390 . S
C475 C476 1.387 . S
C475 H478 0.950 . S
C476 C475 1.387 . S
C476 C479 1.387 . S
H477 C473 0.950 . S
H478 C475 0.950 . S
C479 C470 1.390 . S
C479 H472 0.950 . S
C479 C476 1.387 . S
C480 C481 1.387 . S
C480 H484 0.950 1_554 S
C480 C489 1.390 . S
C481 C480 1.387 . S
C481 C483 1.387 . S
H482 C489 0.950 . S
C483 C481 1.387 . S
C483 C485 1.390 . S
C483 H487 0.950 1_455 S
H484 C480 0.950 1_556 S
C485 C483 1.390 . S
C485 C486 1.387 . S
C485 H488 0.950 . S
C486 C485 1.387 . S
C486 C489 1.387 . S
H487 C483 0.950 1_655 S
H488 C485 0.950 . S
C489 C480 1.390 . S
C489 H482 0.950 . S
C489 C486 1.387 . S
C490 C491 1.387 . S
C490 H494 0.950 . S
C490 C499 1.390 . S
C491 C490 1.387 . S
C491 C493 1.387 . S
H492 C499 0.950 . S
C493 C491 1.387 . S
C493 C495 1.390 . S
C493 H497 0.950 1_554 S
H494 C490 0.950 . S
C495 C493 1.390 . S
C495 C496 1.387 . S
C495 H498 0.950 . S
C496 C495 1.387 . S
C496 C499 1.387 . S
H497 C493 0.950 1_556 S
H498 C495 0.950 . S
C499 C490 1.390 . S
C499 H492 0.950 . S
C499 C496 1.387 . S
C500 C501 1.387 . S
C500 H504 0.950 . S
C500 C509 1.390 1_545 S
C501 C500 1.387 . S
C501 C503 1.387 . S
H502 C509 0.950 . S
C503 C501 1.387 . S
C503 C505 1.390 1_545 S
C503 H507 0.950 . S
H504 C500 0.950 . S
C505 C503 1.390 1_565 S
C505 C506 1.387 . S
C505 H508 0.950 . S
C506 C505 1.387 . S
C506 C509 1.387 . S
H507 C503 0.950 . S
H508 C505 0.950 . S
C509 C500 1.390 1_565 S
C509 H502 0.950 . S
C509 C506 1.387 . S
C510 C511 1.387 . S
C510 H514 0.950 . S
C510 C519 1.390 . S
C511 C510 1.387 . S
C511 C513 1.387 . S
H512 C519 0.950 . S
C513 C511 1.387 . S
C513 C515 1.390 . S
C513 H517 0.950 . S
H514 C510 0.950 . S
C515 C513 1.390 . S
C515 C516 1.387 . S
C515 H518 0.950 . S
C516 C515 1.387 . S
C516 C519 1.387 . S
H517 C513 0.950 . S
H518 C515 0.950 . S
C519 C510 1.390 . S
C519 H512 0.950 . S
C519 C516 1.387 . S
C520 C521 1.387 . S
C520 H524 0.950 . S
C520 C529 1.390 1_455 S
C521 C520 1.387 . S
C521 C523 1.387 . S
H522 C529 0.950 . S
C523 C521 1.387 . S
C523 C525 1.390 1_455 S
C523 H527 0.950 . S
H524 C520 0.950 . S
C525 C523 1.390 1_655 S
C525 C526 1.387 . S
C525 H528 0.950 . S
C526 C525 1.387 . S
C526 C529 1.387 . S
H527 C523 0.950 . S
H528 C525 0.950 . S
C529 C520 1.390 1_655 S
C529 H522 0.950 . S
C529 C526 1.387 . S
C530 C531 1.387 . S
C530 H534 0.950 . S
C530 C539 1.390 . S
C531 C530 1.387 . S
C531 C533 1.388 1_556 S
H532 C539 0.950 . S
C533 C531 1.388 1_554 S
C533 C535 1.391 1_554 S
C533 H537 0.949 . S
H534 C530 0.950 . S
C535 C533 1.391 1_556 S
C535 C536 1.387 . S
C535 H538 0.950 . S
C536 C535 1.387 . S
C536 C539 1.387 . S
H537 C533 0.949 . S
H538 C535 0.950 . S
C539 C530 1.390 . S
C539 H532 0.950 . S
C539 C536 1.387 . S
C540 C541 1.387 . S
C540 H544 0.950 . S
C540 C549 1.390 . S
C541 C540 1.387 . S
C541 C543 1.387 . S
H542 C549 0.950 . S
C543 C541 1.387 . S
C543 C545 1.390 . S
C543 H547 0.950 . S
H544 C540 0.950 . S
C545 C543 1.390 . S
C545 C546 1.387 . S
C545 H548 0.950 . S
C546 C545 1.387 . S
C546 C549 1.387 . S
H547 C543 0.950 . S
H548 C545 0.950 . S
C549 C540 1.390 . S
C549 H542 0.950 . S
C549 C546 1.387 . S
C550 C551 1.387 . S
C550 H554 0.950 . S
C550 C559 1.390 . S
C551 C550 1.387 . S
C551 C553 1.387 . S
H552 C559 0.950 . S
C553 C551 1.387 . S
C553 C555 1.390 . S
C553 H557 0.950 . S
H554 C550 0.950 . S
C555 C553 1.390 . S
C555 C556 1.387 . S
C555 H558 0.950 . S
C556 C555 1.387 . S
C556 C559 1.387 . S
H557 C553 0.950 . S
H558 C555 0.950 . S
C559 C550 1.390 . S
C559 H552 0.950 . S
C559 C556 1.387 . S
C560 C561 1.387 . S
C560 H564 0.950 . S
C560 C569 1.390 . S
C561 C560 1.387 . S
C561 C563 1.387 . S
H562 C569 0.950 . S
C563 C561 1.387 . S
C563 C565 1.390 . S
C563 H567 0.950 . S
H564 C560 0.950 . S
C565 C563 1.390 . S
C565 C566 1.387 . S
C565 H568 0.950 . S
C566 C565 1.387 . S
C566 C569 1.387 . S
H567 C563 0.950 . S
H568 C565 0.950 . S
C569 C560 1.390 . S
C569 H562 0.950 . S
C569 C566 1.387 . S
C570 C571 1.387 . S
C570 H574 0.950 . S
C570 C579 1.390 . S
C571 C570 1.387 . S
C571 C573 1.387 . S
H572 C579 0.950 . S
C573 C571 1.387 . S
C573 C575 1.390 . S
C573 H577 0.950 . S
H574 C570 0.950 . S
C575 C573 1.390 . S
C575 C576 1.387 . S
C575 H578 0.950 . S
C576 C575 1.387 . S
C576 C579 1.387 . S
H577 C573 0.950 . S
H578 C575 0.950 . S
C579 C570 1.390 . S
C579 H572 0.950 . S
C579 C576 1.387 . S
C580 C581 1.387 . S
C580 H584 0.950 . S
C580 C589 1.390 . S
C581 C580 1.387 . S
C581 C583 1.387 . S
H582 C589 0.950 . S
C583 C581 1.387 . S
C583 C585 1.390 . S
C583 H587 0.950 . S
H584 C580 0.950 . S
C585 C583 1.390 . S
C585 C586 1.387 . S
C585 H588 0.950 . S
C586 C585 1.387 . S
C586 C589 1.387 . S
H587 C583 0.950 . S
H588 C585 0.950 . S
C589 C580 1.390 . S
C589 H582 0.950 . S
C589 C586 1.387 . S
C590 C591 1.387 . S
C590 H594 0.950 . S
C590 C599 1.390 . S
C591 C590 1.387 . S
C591 C593 1.387 . S
H592 C599 0.950 . S
C593 C591 1.387 . S
C593 C595 1.390 . S
C593 H597 0.950 . S
H594 C590 0.950 . S
C595 C593 1.390 . S
C595 C596 1.387 . S
C595 H598 0.950 . S
C596 C595 1.387 . S
C596 C599 1.387 . S
H597 C593 0.950 . S
H598 C595 0.950 . S
C599 C590 1.390 . S
C599 H592 0.950 . S
C599 C596 1.387 . S
C600 C601 1.387 . S
C600 H604 0.950 . S
C600 C609 1.390 . S
C601 C600 1.387 . S
C601 C603 1.387 . S
H602 C609 0.950 . S
C603 C601 1.387 . S
C603 C605 1.390 . S
C603 H607 0.950 . S
H604 C600 0.950 . S
C605 C603 1.390 . S
C605 C606 1.387 . S
C605 H608 0.950 . S
C606 C605 1.387 . S
C606 C609 1.387 . S
H607 C603 0.950 . S
H608 C605 0.950 . S
C609 C600 1.390 . S
C609 H602 0.950 . S
C609 C606 1.387 . S
C610 C611 1.387 . S
C610 H614 0.950 . S
C610 C619 1.390 . S
C611 C610 1.387 . S
C611 C613 1.387 . S
H612 C619 0.950 . S
C613 C611 1.387 . S
C613 C615 1.390 . S
C613 H617 0.950 . S
H614 C610 0.950 . S
C615 C613 1.390 . S
C615 C616 1.387 . S
C615 H618 0.950 . S
C616 C615 1.387 . S
C616 C619 1.387 . S
H617 C613 0.950 . S
H618 C615 0.950 . S
C619 C610 1.390 . S
C619 H612 0.950 . S
C619 C616 1.387 . S
C620 C621 1.387 . S
C620 H624 0.950 . S
C620 C629 1.390 . S
C621 C620 1.387 . S
C621 C623 1.387 . S
H622 C629 0.950 . S
C623 C621 1.387 . S
C623 C625 1.390 . S
C623 H627 0.950 . S
H624 C620 0.950 . S
C625 C623 1.390 . S
C625 C626 1.387 . S
C625 H628 0.950 . S
C626 C625 1.387 . S
C626 C629 1.387 . S
H627 C623 0.950 . S
H628 C625 0.950 . S
C629 C620 1.390 . S
C629 H622 0.950 . S
C629 C626 1.387 . S
C630 C631 1.387 . S
C630 H634 0.950 . S
C630 C639 1.390 . S
C631 C630 1.387 . S
C631 C633 1.387 . S
H632 C639 0.950 . S
C633 C631 1.387 . S
C633 C635 1.390 . S
C633 H637 0.950 1_556 S
H634 C630 0.950 . S
C635 C633 1.390 . S
C635 C636 1.387 . S
C635 H638 0.950 1_556 S
C636 C635 1.387 . S
C636 C639 1.387 . S
H637 C633 0.950 1_554 S
H638 C635 0.950 1_554 S
C639 C630 1.390 . S
C639 H632 0.950 . S
C639 C636 1.387 . S
C640 C641 1.387 . S
C640 H644 0.950 1_556 S
C640 C649 1.390 . S
C641 C640 1.387 . S
C641 C643 1.387 . S
H642 C649 0.950 1_554 S
C643 C641 1.387 . S
C643 C645 1.390 . S
C643 H647 0.950 . S
H644 C640 0.950 1_554 S
C645 C643 1.390 . S
C645 C646 1.387 . S
C645 H648 0.950 . S
C646 C645 1.387 . S
C646 C649 1.387 . S
H647 C643 0.950 . S
H648 C645 0.950 . S
C649 C640 1.390 . S
C649 H642 0.950 1_556 S
C649 C646 1.387 . S
C650 C651 1.387 . S
C650 H654 0.950 1_556 S
C650 C659 1.390 . S
C651 C650 1.387 . S
C651 C653 1.387 . S
H652 C659 0.950 1_554 S
C653 C651 1.387 . S
C653 C655 1.390 . S
C653 H657 0.950 . S
H654 C650 0.950 1_554 S
C655 C653 1.390 . S
C655 C656 1.387 . S
C655 H658 0.950 . S
C656 C655 1.387 . S
C656 C659 1.387 . S
H657 C653 0.950 . S
H658 C655 0.950 . S
C659 C650 1.390 . S
C659 H652 0.950 1_556 S
C659 C656 1.387 . S
C660 C661 1.387 . S
C660 H664 0.950 1_554 S
C660 C669 1.390 . S
C661 C660 1.387 . S
C661 C663 1.387 . S
H662 C669 0.950 1_556 S
C663 C661 1.387 . S
C663 C665 1.390 . S
C663 H667 0.950 . S
H664 C660 0.950 1_556 S
C665 C663 1.390 . S
C665 C666 1.387 . S
C665 H668 0.950 . S
C666 C665 1.387 . S
C666 C669 1.387 . S
H667 C663 0.950 . S
H668 C665 0.950 . S
C669 C660 1.390 . S
C669 H662 0.950 1_554 S
C669 C666 1.387 . S
C670 C671 1.387 . S
C670 H674 0.950 1_554 S
C670 C679 1.390 . S
C671 C670 1.387 . S
C671 C673 1.387 . S
H672 C679 0.950 1_556 S
C673 C671 1.387 . S
C673 C675 1.390 . S
C673 H677 0.950 . S
H674 C670 0.950 1_556 S
C675 C673 1.390 . S
C675 C676 1.387 . S
C675 H678 0.950 . S
C676 C675 1.387 . S
C676 C679 1.387 . S
H677 C673 0.950 . S
H678 C675 0.950 . S
C679 C670 1.390 . S
C679 H672 0.950 1_554 S
C679 C676 1.387 . S
C680 C681 1.387 . S
C680 H684 0.950 1_554 S
C680 C689 1.390 . S
C681 C680 1.387 . S
C681 C683 1.387 . S
H682 C689 0.950 1_556 S
C683 C681 1.387 . S
C683 C685 1.390 . S
C683 H687 0.950 . S
H684 C680 0.950 1_556 S
C685 C683 1.390 . S
C685 C686 1.387 . S
C685 H688 0.950 . S
C686 C685 1.387 . S
C686 C689 1.387 . S
H687 C683 0.950 . S
H688 C685 0.950 . S
C689 C680 1.390 . S
C689 H682 0.950 1_554 S
C689 C686 1.387 . S
C690 C691 1.387 . S
C690 H694 0.950 . S
C690 C699 1.390 . S
C691 C690 1.387 . S
C691 C693 1.387 . S
H692 C699 0.950 . S
C693 C691 1.387 . S
C693 C695 1.390 . S
C693 H697 0.950 . S
H694 C690 0.950 . S
C695 C693 1.390 . S
C695 C696 1.387 . S
C695 H698 0.950 . S
C696 C695 1.387 . S
C696 C699 1.387 . S
H697 C693 0.950 . S
H698 C695 0.950 . S
C699 C690 1.390 . S
C699 H692 0.950 . S
C699 C696 1.387 . S
C700 C701 1.387 . S
C700 H704 0.950 . S
C700 C709 1.390 . S
C701 C700 1.387 . S
C701 C703 1.387 . S
H702 C709 0.950 . S
C703 C701 1.387 . S
C703 C705 1.390 . S
C703 H707 0.950 . S
H704 C700 0.950 . S
C705 C703 1.390 . S
C705 C706 1.387 . S
C705 H708 0.950 . S
C706 C705 1.387 . S
C706 C709 1.387 . S
H707 C703 0.950 . S
H708 C705 0.950 . S
C709 C700 1.390 . S
C709 H702 0.950 . S
C709 C706 1.387 . S
C710 C711 1.387 . S
C710 H714 0.950 . S
C710 C719 1.390 . S
C711 C710 1.387 . S
C711 C713 1.387 . S
H712 C719 0.950 . S
C713 C711 1.387 . S
C713 C715 1.390 . S
C713 H717 0.950 . S
H714 C710 0.950 . S
C715 C713 1.390 . S
C715 C716 1.387 . S
C715 H718 0.950 . S
C716 C715 1.387 . S
C716 C719 1.387 . S
H717 C713 0.950 . S
H718 C715 0.950 . S
C719 C710 1.390 . S
C719 H712 0.950 . S
C719 C716 1.387 . S
C720 C721 1.387 . S
C720 H724 0.950 . S
C720 C729 1.390 . S
C721 C720 1.387 . S
C721 C723 1.387 . S
H722 C729 0.950 1_556 S
C723 C721 1.387 . S
C723 C725 1.390 1_455 S
C723 H727 0.950 1_455 S
H724 C720 0.950 . S
C725 C723 1.390 1_655 S
C725 C726 1.387 1_654 S
C725 H728 0.950 1_554 S
C726 C725 1.387 1_456 S
C726 C729 1.387 1_556 S
H727 C723 0.950 1_655 S
H728 C725 0.950 1_556 S
C729 C720 1.390 . S
C729 H722 0.950 1_554 S
C729 C726 1.387 1_554 S
C730 C731 1.387 . S
C730 H734 0.950 . S
C730 C739 1.390 . S
C731 C730 1.387 . S
C731 C733 1.387 . S
H732 C739 0.950 1_556 S
C733 C731 1.387 . S
C733 C735 1.390 1_554 S
C733 H737 0.950 . S
H734 C730 0.950 . S
C735 C733 1.390 1_556 S
C735 C736 1.387 . S
C735 H738 0.950 . S
C736 C735 1.387 . S
C736 C739 1.387 1_556 S
H737 C733 0.950 . S
H738 C735 0.950 . S
C739 C730 1.390 . S
C739 H732 0.950 1_554 S
C739 C736 1.387 1_554 S
C740 C741 1.387 1_565 S
C740 H744 0.950 . S
C740 C749 1.390 1_554 S
C741 C740 1.387 1_545 S
C741 C743 1.387 . S
H742 C749 0.950 . S
C743 C741 1.387 . S
C743 C745 1.390 . S
C743 H747 0.950 . S
H744 C740 0.950 . S
C745 C743 1.390 . S
C745 C746 1.387 1_554 S
C745 H748 0.950 1_554 S
C746 C745 1.387 1_556 S
C746 C749 1.387 1_545 S
H747 C743 0.950 . S
H748 C745 0.950 1_556 S
C749 C740 1.390 1_556 S
C749 H742 0.950 . S
C749 C746 1.387 1_565 S
C750 C751 1.387 . S
C750 H754 0.950 . S
C750 C759 1.390 . S
C751 C750 1.387 . S
C751 C753 1.387 1_455 S
H752 C759 0.950 1_554 S
C753 C751 1.387 1_655 S
C753 C755 1.390 1_655 S
C753 H757 0.950 . S
H754 C750 0.950 . S
C755 C753 1.390 1_455 S
C755 C756 1.387 1_556 S
C755 H758 0.950 1_456 S
C756 C755 1.387 1_554 S
C756 C759 1.387 1_554 S
H757 C753 0.950 . S
H758 C755 0.950 1_654 S
C759 C750 1.390 . S
C759 H752 0.950 1_556 S
C759 C756 1.387 1_556 S
C760 C761 1.387 . S
C760 H764 0.950 . S
C760 C769 1.390 1_554 S
C761 C760 1.387 . S
C761 C763 1.387 1_554 S
H762 C769 0.950 . S
C763 C761 1.387 1_556 S
C763 C765 1.390 . S
C763 H767 0.948 1_556 S
H764 C760 0.950 . S
C765 C763 1.390 . S
C765 C766 1.387 . S
C765 H768 0.950 . S
C766 C765 1.387 . S
C766 C769 1.387 . S
H767 C763 0.948 1_554 S
H768 C765 0.950 . S
C769 C760 1.390 1_556 S
C769 H762 0.950 . S
C769 C766 1.387 . S
C770 C771 1.387 1_566 S
C770 H774 0.950 . S
C770 C779 1.390 . S
C771 C770 1.387 1_544 S
C771 C773 1.387 . S
H772 C779 0.950 . S
C773 C771 1.387 . S
C773 C775 1.390 1_554 S
C773 H777 0.950 . S
H774 C770 0.950 . S
C775 C773 1.390 1_556 S
C775 C776 1.387 . S
C775 H778 0.950 . S
C776 C775 1.387 . S
C776 C779 1.387 1_545 S
H777 C773 0.950 . S
H778 C775 0.950 . S
C779 C770 1.390 . S
C779 H772 0.950 . S
C779 C776 1.387 1_565 S
C780 C781 1.387 . S
C780 H784 0.950 . S
C780 C789 1.390 . S
C781 C780 1.387 . S
C781 C783 1.387 . S
H782 C789 0.950 . S
C783 C781 1.387 . S
C783 C785 1.390 . S
C783 H787 0.950 . S
H784 C780 0.950 . S
C785 C783 1.390 . S
C785 C786 1.387 . S
C785 H788 0.950 . S
C786 C785 1.387 . S
C786 C789 1.387 . S
H787 C783 0.950 . S
H788 C785 0.950 . S
C789 C780 1.390 . S
C789 H782 0.950 . S
C789 C786 1.387 . S
C790 C791 1.387 . S
C790 H794 0.950 . S
C790 C799 1.390 . S
C791 C790 1.387 . S
C791 C793 1.387 . S
H792 C799 0.950 . S
C793 C791 1.387 . S
C793 C795 1.390 . S
C793 H797 0.950 . S
H794 C790 0.950 . S
C795 C793 1.390 . S
C795 C796 1.387 . S
C795 H798 0.950 . S
C796 C795 1.387 . S
C796 C799 1.387 . S
H797 C793 0.950 . S
H798 C795 0.950 . S
C799 C790 1.390 . S
C799 H792 0.950 . S
C799 C796 1.387 . S
C800 C801 1.387 . S
C800 H804 0.950 . S
C800 C809 1.390 . S
C801 C800 1.387 . S
C801 C803 1.387 . S
H802 C809 0.950 . S
C803 C801 1.387 . S
C803 C805 1.390 . S
C803 H807 0.950 . S
H804 C800 0.950 . S
C805 C803 1.390 . S
C805 C806 1.387 . S
C805 H808 0.950 . S
C806 C805 1.387 . S
C806 C809 1.387 . S
H807 C803 0.950 . S
H808 C805 0.950 . S
C809 C800 1.390 . S
C809 H802 0.950 . S
C809 C806 1.387 . S
C810 C811 1.387 . S
C810 H814 0.950 . S
C810 C819 1.390 . S
C811 C810 1.387 . S
C811 C813 1.387 . S
H812 C819 0.950 . S
C813 C811 1.387 . S
C813 C815 1.390 . S
C813 H817 0.950 . S
H814 C810 0.950 . S
C815 C813 1.390 . S
C815 C816 1.387 . S
C815 H818 0.950 . S
C816 C815 1.387 . S
C816 C819 1.387 . S
H817 C813 0.950 . S
H818 C815 0.950 . S
C819 C810 1.390 . S
C819 H812 0.950 . S
C819 C816 1.387 . S
C820 C821 1.387 . S
C820 H824 0.950 . S
C820 C829 1.390 . S
C821 C820 1.387 . S
C821 C823 1.387 . S
H822 C829 0.950 . S
C823 C821 1.387 . S
C823 C825 1.390 . S
C823 H827 0.950 . S
H824 C820 0.950 . S
C825 C823 1.390 . S
C825 C826 1.387 . S
C825 H828 0.950 . S
C826 C825 1.387 . S
C826 C829 1.387 . S
H827 C823 0.950 . S
H828 C825 0.950 . S
C829 C820 1.390 . S
C829 H822 0.950 . S
C829 C826 1.387 . S
C830 C831 1.387 . S
C830 H834 0.950 . S
C830 C839 1.390 . S
C831 C830 1.387 . S
C831 C833 1.387 . S
H832 C839 0.950 . S
C833 C831 1.387 . S
C833 C835 1.390 . S
C833 H837 0.950 . S
H834 C830 0.950 . S
C835 C833 1.390 . S
C835 C836 1.387 . S
C835 H838 0.950 . S
C836 C835 1.387 . S
C836 C839 1.387 . S
H837 C833 0.950 . S
H838 C835 0.950 . S
C839 C830 1.390 . S
C839 H832 0.950 . S
C839 C836 1.387 . S
C840 C841 1.387 . S
C840 H844 0.950 . S
C840 C849 1.390 . S
C841 C840 1.387 . S
C841 C843 1.387 . S
H842 C849 0.950 . S
C843 C841 1.387 . S
C843 C845 1.390 . S
C843 H847 0.950 . S
H844 C840 0.950 . S
C845 C843 1.390 . S
C845 C846 1.387 . S
C845 H848 0.950 . S
C846 C845 1.387 . S
C846 C849 1.387 . S
H847 C843 0.950 . S
H848 C845 0.950 . S
C849 C840 1.390 . S
C849 H842 0.950 . S
C849 C846 1.387 . S
C850 C851 1.387 . S
C850 H854 0.950 . S
C850 C859 1.390 . S
C851 C850 1.387 . S
C851 C853 1.387 . S
H852 C859 0.950 . S
C853 C851 1.387 . S
C853 C855 1.390 . S
C853 H857 0.950 . S
H854 C850 0.950 . S
C855 C853 1.390 . S
C855 C856 1.387 . S
C855 H858 0.950 . S
C856 C855 1.387 . S
C856 C859 1.387 . S
H857 C853 0.950 . S
H858 C855 0.950 . S
C859 C850 1.390 . S
C859 H852 0.950 . S
C859 C856 1.387 . S
C860 C861 1.387 . S
C860 H864 0.950 . S
C860 C869 1.390 . S
C861 C860 1.387 . S
C861 C863 1.387 . S
H862 C869 0.950 . S
C863 C861 1.387 . S
C863 C865 1.390 . S
C863 H867 0.950 . S
H864 C860 0.950 . S
C865 C863 1.390 . S
C865 C866 1.387 . S
C865 H868 0.950 . S
C866 C865 1.387 . S
C866 C869 1.387 . S
H867 C863 0.950 . S
H868 C865 0.950 . S
C869 C860 1.390 . S
C869 H862 0.950 . S
C869 C866 1.387 . S
C870 C871 1.387 . S
C870 H874 0.950 . S
C870 C879 1.390 . S
C871 C870 1.387 . S
C871 C873 1.387 . S
H872 C879 0.950 . S
C873 C871 1.387 . S
C873 C875 1.390 . S
C873 H877 0.950 . S
H874 C870 0.950 . S
C875 C873 1.390 . S
C875 C876 1.387 . S
C875 H878 0.950 . S
C876 C875 1.387 . S
C876 C879 1.387 . S
H877 C873 0.950 . S
H878 C875 0.950 . S
C879 C870 1.390 . S
C879 H872 0.950 . S
C879 C876 1.387 . S
C880 C881 1.387 . S
C880 H884 0.950 . S
C880 C889 1.390 . S
C881 C880 1.387 . S
C881 C883 1.387 . S
H882 C889 0.950 . S
C883 C881 1.387 . S
C883 C885 1.390 . S
C883 H887 0.950 . S
H884 C880 0.950 . S
C885 C883 1.390 . S
C885 C886 1.387 . S
C885 H888 0.950 . S
C886 C885 1.387 . S
C886 C889 1.387 . S
H887 C883 0.950 . S
H888 C885 0.950 . S
C889 C880 1.390 . S
C889 H882 0.950 . S
C889 C886 1.387 . S
C890 C891 1.387 . S
C890 H894 0.950 . S
C890 C899 1.390 . S
C891 C890 1.387 . S
C891 C893 1.387 . S
H892 C899 0.950 . S
C893 C891 1.387 . S
C893 C895 1.390 . S
C893 H897 0.950 . S
H894 C890 0.950 . S
C895 C893 1.390 . S
C895 C896 1.387 . S
C895 H898 0.950 . S
C896 C895 1.387 . S
C896 C899 1.387 . S
H897 C893 0.950 . S
H898 C895 0.950 . S
C899 C890 1.390 . S
C899 H892 0.950 . S
C899 C896 1.387 . S
C361 C262 1.554 . S
C366 C19 1.695 . S
C371 C39 1.693 . S
C376 C282 1.555 . S
C381 C59 1.694 . S
C386 C242 1.551 . S
C391 C42 1.554 . S
C396 C159 1.693 . S
C401 C179 1.695 . S
C406 C2 1.551 . S
C411 C22 1.555 . S
C416 C139 1.693 . S
C421 C78 1.695 . S
C426 C204 1.555 . S
C431 C98 1.693 . S
C436 C224 1.552 . S
C441 C184 1.555 . S
C446 C118 1.694 . S
C451 C338 1.695 . S
C456 C104 1.552 . S
C461 C64 1.555 . S
C466 C358 1.693 . S
C471 C318 1.694 . S
C476 C84 1.550 . S
C481 C162 1.554 1_455 S
C486 C279 1.695 . S
C491 C122 1.555 . S
C496 C299 1.694 . S
C501 C142 1.555 . S
C506 C259 1.695 . S
C511 C198 1.693 . S
C516 C324 1.551 1_545 S
C521 C344 1.554 . S
C526 C218 1.695 . S
C531 C304 1.551 . S
C536 C238 1.695 . S
C541 C4 1.667 . S
C546 C99 1.676 . S
C551 C119 1.675 . S
C556 C24 1.667 . S
C561 C79 1.675 . S
C566 C44 1.666 . S
C571 C82 1.666 . S
C576 C58 1.675 . S
C581 C102 1.666 . S
C586 C18 1.676 . S
C591 C62 1.665 . S
C596 C38 1.674 . S
C601 C219 1.676 . S
C606 C124 1.667 . S
C611 C239 1.675 . S
C616 C144 1.666 . S
C621 C199 1.676 . S
C626 C164 1.667 . S
C631 C202 1.666 . S
C636 C178 1.675 . S
C641 C222 1.666 . S
C646 C138 1.675 . S
C651 C182 1.665 . S
C656 C158 1.675 . S
C661 C339 1.676 . S
C666 C244 1.667 . S
C671 C359 1.676 . S
C676 C264 1.667 . S
C681 C284 1.667 . S
C686 C319 1.676 . S
C691 C298 1.675 . S
C696 C322 1.667 . S
C701 C258 1.676 . S
C706 C342 1.667 . S
C711 C302 1.667 . S
C716 C278 1.676 . S
C721 C12 1.418 . S
C726 C9 1.418 . S
C731 C32 1.417 . S
C736 C29 1.417 . S
C741 C52 1.417 1_545 S
C746 C49 1.417 . S
C751 C69 1.418 1_455 S
C756 C72 1.418 . S
C761 C92 1.417 . S
C766 C89 1.417 . S
C771 C112 1.417 . S
C776 C109 1.417 . S
C781 C129 1.416 . S
C786 C132 1.416 . S
C791 C152 1.416 . S
C796 C149 1.416 . S
C801 C169 1.416 . S
C806 C172 1.416 . S
C811 C189 1.416 . S
C816 C192 1.416 . S
C821 C209 1.417 . S
C826 C212 1.417 . S
C831 C229 1.416 . S
C836 C232 1.416 . S
C841 C249 1.418 . S
C846 C252 1.418 . S
C851 C272 1.416 . S
C856 C269 1.416 . S
C861 C292 1.417 . S
C866 C289 1.417 . S
C871 C312 1.418 . S
C876 C309 1.418 . S
C881 C332 1.417 . S
C886 C329 1.417 . S
C891 C349 1.417 . S
C896 C352 1.417 . S
