# Generated by pormake.
# Topology uki, (4)-cn, num edge types: 1
# Building blocks:
#     Node 0, Type 0, BuildingBlock: QUQFOY_clean_sbu_1, # of connection points: 4
#     Node 1, Type 0, BuildingBlock: QUQFOY_clean_sbu_1, # of connection points: 4
#     Node 2, Type 0, BuildingBlock: QUQFOY_clean_sbu_1, # of connection points: 4
#     Node 3, Type 0, BuildingBlock: QUQFOY_clean_sbu_1, # of connection points: 4
#     Node 4, Type 0, BuildingBlock: QUQFOY_clean_sbu_1, # of connection points: 4
#     Node 5, Type 0, BuildingBlock: QUQFOY_clean_sbu_1, # of connection points: 4
#     Node 6, Type 0, BuildingBlock: QUQFOY_clean_sbu_1, # of connection points: 4
#     Node 7, Type 0, BuildingBlock: QUQFOY_clean_sbu_1, # of connection points: 4
#     Node 8, Type 0, BuildingBlock: QUQFOY_clean_sbu_1, # of connection points: 4
#     Node 9, Type 0, BuildingBlock: QUQFOY_clean_sbu_1, # of connection points: 4
#     Node 10, Type 0, BuildingBlock: QUQFOY_clean_sbu_1, # of connection points: 4
#     Node 11, Type 0, BuildingBlock: QUQFOY_clean_sbu_1, # of connection points: 4
#     Node 12, Type 0, BuildingBlock: QUQFOY_clean_sbu_1, # of connection points: 4
#     Node 13, Type 0, BuildingBlock: QUQFOY_clean_sbu_1, # of connection points: 4
#     Node 14, Type 0, BuildingBlock: QUQFOY_clean_sbu_1, # of connection points: 4
#     Node 15, Type 0, BuildingBlock: QUQFOY_clean_sbu_1, # of connection points: 4
#     Edge 16, Type (0, 0), BuildingBlock: UVAHIK_clean_linker_0, # of connection points: 2
#     Edge 17, Type (0, 0), BuildingBlock: UVAHIK_clean_linker_0, # of connection points: 2
#     Edge 18, Type (0, 0), BuildingBlock: UVAHIK_clean_linker_0, # of connection points: 2
#     Edge 19, Type (0, 0), BuildingBlock: UVAHIK_clean_linker_0, # of connection points: 2
#     Edge 20, Type (0, 0), BuildingBlock: UVAHIK_clean_linker_0, # of connection points: 2
#     Edge 21, Type (0, 0), BuildingBlock: UVAHIK_clean_linker_0, # of connection points: 2
#     Edge 22, Type (0, 0), BuildingBlock: UVAHIK_clean_linker_0, # of connection points: 2
#     Edge 23, Type (0, 0), BuildingBlock: UVAHIK_clean_linker_0, # of connection points: 2
#     Edge 24, Type (0, 0), BuildingBlock: UVAHIK_clean_linker_0, # of connection points: 2
#     Edge 25, Type (0, 0), BuildingBlock: UVAHIK_clean_linker_0, # of connection points: 2
#     Edge 26, Type (0, 0), BuildingBlock: UVAHIK_clean_linker_0, # of connection points: 2
#     Edge 27, Type (0, 0), BuildingBlock: UVAHIK_clean_linker_0, # of connection points: 2
#     Edge 28, Type (0, 0), BuildingBlock: UVAHIK_clean_linker_0, # of connection points: 2
#     Edge 29, Type (0, 0), BuildingBlock: UVAHIK_clean_linker_0, # of connection points: 2
#     Edge 30, Type (0, 0), BuildingBlock: UVAHIK_clean_linker_0, # of connection points: 2
#     Edge 31, Type (0, 0), BuildingBlock: UVAHIK_clean_linker_0, # of connection points: 2
#     Edge 32, Type (0, 0), BuildingBlock: UVAHIK_clean_linker_0, # of connection points: 2
#     Edge 33, Type (0, 0), BuildingBlock: UVAHIK_clean_linker_0, # of connection points: 2
#     Edge 34, Type (0, 0), BuildingBlock: UVAHIK_clean_linker_0, # of connection points: 2
#     Edge 35, Type (0, 0), BuildingBlock: UVAHIK_clean_linker_0, # of connection points: 2
#     Edge 36, Type (0, 0), BuildingBlock: UVAHIK_clean_linker_0, # of connection points: 2
#     Edge 37, Type (0, 0), BuildingBlock: UVAHIK_clean_linker_0, # of connection points: 2
#     Edge 38, Type (0, 0), BuildingBlock: UVAHIK_clean_linker_0, # of connection points: 2
#     Edge 39, Type (0, 0), BuildingBlock: UVAHIK_clean_linker_0, # of connection points: 2
#     Edge 40, Type (0, 0), BuildingBlock: UVAHIK_clean_linker_0, # of connection points: 2
#     Edge 41, Type (0, 0), BuildingBlock: UVAHIK_clean_linker_0, # of connection points: 2
#     Edge 42, Type (0, 0), BuildingBlock: UVAHIK_clean_linker_0, # of connection points: 2
#     Edge 43, Type (0, 0), BuildingBlock: UVAHIK_clean_linker_0, # of connection points: 2
#     Edge 44, Type (0, 0), BuildingBlock: UVAHIK_clean_linker_0, # of connection points: 2
#     Edge 45, Type (0, 0), BuildingBlock: UVAHIK_clean_linker_0, # of connection points: 2
#     Edge 46, Type (0, 0), BuildingBlock: UVAHIK_clean_linker_0, # of connection points: 2
#     Edge 47, Type (0, 0), BuildingBlock: UVAHIK_clean_linker_0, # of connection points: 2
# Relax obj value: 0.031
# Max RMSD: 0.132
# Mean RMSD: 0.132
data_MOF--net-uki--node1-QUQFOY_clean_sbu_1--edge1-UVAHIK_clean_linker_0
_symmetry_space_group_name_H-M    P1
_symmetry_Int_Tables_number       1
_symmetry_cell_setting            triclinic
loop_
_symmetry_equiv_pos_as_xyz
'x, y, z'
_cell_length_a     41.852426
_cell_length_b     41.887776
_cell_length_c     93.901624
_cell_angle_alpha  90.003374
_cell_angle_beta   89.971929
_cell_angle_gamma 90.023388
loop_
_atom_site_label
_atom_site_type_symbol
_atom_site_fract_x
_atom_site_fract_y
_atom_site_fract_z
_atom_type_partial_charge
O0 O 0.12473 0.26436 0.28927 0.0
Cd1 Cd 0.09739 0.24402 0.30513 0.0
Cd2 Cd 0.0825 0.20529 0.28309 0.0
O3 O 0.11727 0.22971 0.27188 0.0
O4 O 0.11654 0.26223 0.32278 0.0
O5 O 0.11865 0.21084 0.31755 0.0
C6 C 0.12695 0.23408 0.32582 0.0
C7 C 0.07693 0.15014 0.28341 0.0
C8 C 0.13055 0.25476 0.2767 0.0
C9 C 0.02971 0.2458 0.29536 0.0
O10 O 0.03935 0.22766 0.28542 0.0
O11 O 0.04875 0.25459 0.30518 0.0
O12 O 0.07161 0.16645 0.27201 0.0
O13 O 0.08809 0.16499 0.2944 0.0
O14 O 0.26475 0.87921 0.71714 0.0
Cd15 Cd 0.24331 0.90509 0.7011 0.0
Cd16 Cd 0.20489 0.92034 0.72326 0.0
O17 O 0.23062 0.88698 0.73472 0.0
O18 O 0.26136 0.88532 0.68354 0.0
O19 O 0.21011 0.88264 0.6891 0.0
C20 C 0.23325 0.87435 0.68076 0.0
C21 C 0.14956 0.92462 0.7233 0.0
C22 C 0.25582 0.87401 0.72986 0.0
C23 C 0.24392 0.97325 0.7101 0.0
O24 O 0.22619 0.9638 0.72023 0.0
O25 O 0.25292 0.95385 0.70046 0.0
O26 O 0.16618 0.93107 0.7345 0.0
O27 O 0.16427 0.91307 0.71234 0.0
O28 O 0.88403 0.72771 0.29065 0.0
Cd29 Cd 0.90886 0.7509 0.30648 0.0
Cd30 Cd 0.91601 0.79383 0.28576 0.0
O31 O 0.88221 0.76691 0.27502 0.0
O32 O 0.89081 0.73403 0.32463 0.0
O33 O 0.88512 0.78424 0.31772 0.0
C34 C 0.87836 0.76184 0.32671 0.0
C35 C 0.91674 0.84935 0.28608 0.0
C36 C 0.87432 0.73886 0.27884 0.0
C37 C 0.97474 0.75833 0.29598 0.0
O38 O 0.96167 0.77607 0.28669 0.0
O39 O 0.95823 0.74622 0.30599 0.0
O40 O 0.92192 0.83358 0.27452 0.0
O41 O 0.90837 0.83355 0.2973 0.0
O42 O 0.72947 0.11908 0.71549 0.0
Cd43 Cd 0.75493 0.09491 0.70007 0.0
Cd44 Cd 0.79626 0.09313 0.72085 0.0
O45 O 0.76934 0.12886 0.73015 0.0
O46 O 0.73804 0.11039 0.68147 0.0
O47 O 0.78745 0.1197 0.68881 0.0
C48 C 0.76526 0.1242 0.67945 0.0
C49 C 0.85175 0.09082 0.72028 0.0
C50 C 0.74024 0.1326 0.72663 0.0
C51 C 0.76269 0.03191 0.71281 0.0
O52 O 0.77756 0.04793 0.72218 0.0
O53 O 0.75328 0.04546 0.70143 0.0
O54 O 0.83624 0.089 0.73211 0.0
O55 O 0.83582 0.09712 0.70884 0.0
O56 O 0.12621 0.23515 0.96622 0.0
Cd57 Cd 0.09793 0.2585 0.95152 0.0
Cd58 Cd 0.09378 0.2987 0.97314 0.0
O59 O 0.13015 0.27299 0.98247 0.0
O60 O 0.11179 0.24063 0.93283 0.0
O61 O 0.11967 0.29099 0.93899 0.0
C62 C 0.12416 0.26812 0.92997 0.0
C63 C 0.09065 0.35395 0.97188 0.0
C64 C 0.13782 0.24553 0.97785 0.0
C65 C 0.03438 0.26245 0.96506 0.0
O66 O 0.04935 0.27859 0.97435 0.0
O67 O 0.04861 0.2534 0.95378 0.0
O68 O 0.08866 0.33917 0.9839 0.0
O69 O 0.09736 0.33742 0.96065 0.0
O70 O 0.23018 0.8843 0.04185 0.0
Cd71 Cd 0.25754 0.90746 0.05693 0.0
Cd72 Cd 0.29738 0.90865 0.03562 0.0
O73 O 0.26908 0.87335 0.0268 0.0
O74 O 0.24345 0.89212 0.07606 0.0
O75 O 0.2908 0.88094 0.06677 0.0
C76 C 0.27034 0.8771 0.07694 0.0
C77 C 0.35289 0.91084 0.0358 0.0
C78 C 0.24003 0.87046 0.03061 0.0
C79 C 0.26581 0.97033 0.04411 0.0
O80 O 0.27924 0.95397 0.03443 0.0
O81 O 0.25739 0.957 0.0557 0.0
O82 O 0.33703 0.91242 0.02405 0.0
O83 O 0.3373 0.90451 0.04734 0.0
O84 O 0.87624 0.76435 0.96736 0.0
Cd85 Cd 0.90354 0.74254 0.95189 0.0
Cd86 Cd 0.91511 0.70355 0.97404 0.0
O87 O 0.88043 0.72913 0.98474 0.0
O88 O 0.88635 0.76075 0.93384 0.0
O89 O 0.88181 0.7097 0.93946 0.0
C90 C 0.87513 0.73286 0.93086 0.0
C91 C 0.91952 0.64833 0.97368 0.0
C92 C 0.86892 0.75493 0.97981 0.0
C93 C 0.97037 0.74188 0.96262 0.0
O94 O 0.95913 0.7245 0.97249 0.0
O95 O 0.95257 0.75103 0.95242 0.0
O96 O 0.92407 0.66441 0.98522 0.0
O97 O 0.90947 0.6635 0.96256 0.0
O98 O 0.76296 0.12453 0.04005 0.0
Cd99 Cd 0.73929 0.09702 0.05494 0.0
Cd100 Cd 0.70002 0.09109 0.03284 0.0
O101 O 0.72632 0.12673 0.0232 0.0
O102 O 0.75738 0.11168 0.07345 0.0
O103 O 0.70693 0.11936 0.06737 0.0
C104 C 0.72993 0.12418 0.07629 0.0
C105 C 0.6447 0.0874 0.03372 0.0
C106 C 0.75337 0.13506 0.0281 0.0
C107 C 0.73611 0.03256 0.04224 0.0
O108 O 0.72023 0.0467 0.03261 0.0
O109 O 0.74486 0.0477 0.05333 0.0
O110 O 0.66001 0.08472 0.02185 0.0
O111 O 0.66071 0.09535 0.04495 0.0
O112 O 0.62503 0.76465 0.78982 0.0
Cd113 Cd 0.59737 0.74207 0.80499 0.0
Cd114 Cd 0.58982 0.70219 0.78314 0.0
O115 O 0.6257 0.72753 0.77315 0.0
O116 O 0.61356 0.75983 0.8233 0.0
O117 O 0.61937 0.70915 0.8172 0.0
C118 C 0.6255 0.73208 0.82601 0.0
C119 C 0.58519 0.64694 0.78382 0.0
C120 C 0.63493 0.75443 0.77786 0.0
C121 C 0.53234 0.7399 0.79282 0.0
O122 O 0.54576 0.72325 0.78324 0.0
O123 O 0.54811 0.74886 0.8037 0.0
O124 O 0.5823 0.66253 0.77205 0.0
O125 O 0.59373 0.66257 0.79507 0.0
O126 O 0.7751 0.38849 0.21508 0.0
Cd127 Cd 0.75032 0.40992 0.19876 0.0
Cd128 Cd 0.70869 0.41931 0.21987 0.0
O129 O 0.73667 0.38708 0.23111 0.0
O130 O 0.76685 0.38969 0.18102 0.0
O131 O 0.71689 0.38425 0.18841 0.0
C132 C 0.73906 0.37679 0.17941 0.0
C133 C 0.65312 0.42141 0.22074 0.0
C134 C 0.76495 0.38001 0.22727 0.0
C135 C 0.74344 0.47668 0.20755 0.0
O136 O 0.72663 0.46467 0.21746 0.0
O137 O 0.75467 0.45911 0.19771 0.0
O138 O 0.67029 0.42747 0.2318 0.0
O139 O 0.66746 0.41105 0.20946 0.0
O140 O 0.38576 0.22837 0.78961 0.0
Cd141 Cd 0.40735 0.25341 0.80586 0.0
Cd142 Cd 0.41638 0.29419 0.78473 0.0
O143 O 0.38338 0.26688 0.77369 0.0
O144 O 0.38784 0.23618 0.82364 0.0
O145 O 0.38136 0.28612 0.81652 0.0
C146 C 0.3745 0.26366 0.82546 0.0
C147 C 0.41816 0.34969 0.78466 0.0
C148 C 0.37667 0.23854 0.77753 0.0
C149 C 0.47399 0.25961 0.79652 0.0
O150 O 0.46164 0.27563 0.78644 0.0
O151 O 0.45668 0.24965 0.80674 0.0
O152 O 0.42382 0.33339 0.77329 0.0
O153 O 0.40858 0.33447 0.79585 0.0
O154 O 0.23309 0.61845 0.21459 0.0
Cd155 Cd 0.2587 0.59288 0.19969 0.0
Cd156 Cd 0.29903 0.58944 0.22113 0.0
O157 O 0.27192 0.62544 0.23014 0.0
O158 O 0.24401 0.60786 0.1806 0.0
O159 O 0.29241 0.61746 0.1891 0.0
C160 C 0.27138 0.62176 0.1792 0.0
C161 C 0.35452 0.58692 0.2205 0.0
C162 C 0.24353 0.63107 0.226 0.0
C163 C 0.26492 0.52919 0.21246 0.0
O164 O 0.27991 0.54448 0.22203 0.0
O165 O 0.25594 0.54341 0.20117 0.0
O166 O 0.33908 0.58485 0.23236 0.0
O167 O 0.33852 0.59355 0.20912 0.0
O168 O 0.62833 0.73722 0.46648 0.0
Cd169 Cd 0.59984 0.76046 0.45182 0.0
Cd170 Cd 0.59524 0.79983 0.47366 0.0
O171 O 0.63239 0.77493 0.48277 0.0
O172 O 0.61379 0.74238 0.43319 0.0
O173 O 0.62157 0.79284 0.43921 0.0
C174 C 0.6262 0.76982 0.43028 0.0
C175 C 0.59016 0.85491 0.47248 0.0
C176 C 0.64016 0.74758 0.47806 0.0
C177 C 0.53648 0.76275 0.46555 0.0
O178 O 0.55147 0.77842 0.475 0.0
O179 O 0.55055 0.75483 0.45405 0.0
O180 O 0.58904 0.84002 0.48449 0.0
O181 O 0.59729 0.8387 0.4612 0.0
O182 O 0.73281 0.38284 0.54011 0.0
Cd183 Cd 0.75918 0.40648 0.55538 0.0
Cd184 Cd 0.79922 0.40777 0.53416 0.0
O185 O 0.77183 0.37198 0.52515 0.0
O186 O 0.74213 0.39104 0.57397 0.0
O187 O 0.79128 0.38087 0.5665 0.0
C188 C 0.76902 0.37652 0.57585 0.0
C189 C 0.85465 0.41084 0.53471 0.0
C190 C 0.74281 0.3689 0.52893 0.0
C191 C 0.76664 0.46919 0.54248 0.0
O192 O 0.78036 0.45283 0.53288 0.0
O193 O 0.75827 0.45597 0.5541 0.0
O194 O 0.83914 0.41219 0.52286 0.0
O195 O 0.8388 0.40424 0.54615 0.0
O196 O 0.3776 0.26489 0.46679 0.0
Cd197 Cd 0.40471 0.24188 0.4516 0.0
Cd198 Cd 0.4152 0.20363 0.47397 0.0
O199 O 0.38082 0.23017 0.4844 0.0
O200 O 0.38822 0.25952 0.4333 0.0
O201 O 0.3825 0.20889 0.43942 0.0
C202 C 0.37649 0.23172 0.43056 0.0
C203 C 0.41767 0.14833 0.4734 0.0
C204 C 0.36988 0.25602 0.47928 0.0
C205 C 0.47143 0.24025 0.46252 0.0
O206 O 0.45976 0.22349 0.47251 0.0
O207 O 0.4539 0.24933 0.45221 0.0
O208 O 0.42266 0.16398 0.48502 0.0
O209 O 0.40842 0.16408 0.4623 0.0
O210 O 0.26374 0.62508 0.54001 0.0
Cd211 Cd 0.23915 0.59781 0.55468 0.0
Cd212 Cd 0.20057 0.59298 0.53248 0.0
O213 O 0.22722 0.62883 0.52317 0.0
O214 O 0.2564 0.61216 0.57341 0.0
O215 O 0.20638 0.62038 0.56679 0.0
C216 C 0.22893 0.6249 0.57598 0.0
C217 C 0.14525 0.58943 0.53338 0.0
C218 C 0.25447 0.63631 0.52813 0.0
C219 C 0.23595 0.53387 0.54161 0.0
O220 O 0.22068 0.54854 0.53194 0.0
O221 O 0.24416 0.54847 0.55293 0.0
O222 O 0.16047 0.58716 0.52147 0.0
O223 O 0.16134 0.59693 0.54465 0.0
C224 C 0.14393 0.27885 0.25299 0.0
C225 C 0.151 0.27473 0.2675 0.0
C226 C 0.15941 0.30267 0.24508 0.0
C227 C 0.20039 0.37938 0.25176 0.0
H228 H 0.22052 0.37726 0.21144 0.0
C229 C 0.2715 0.47944 0.22662 0.0
C230 C 0.25663 0.49538 0.21524 0.0
C231 C 0.26082 0.44956 0.23102 0.0
C232 C 0.21482 0.37808 0.22269 0.0
H233 H 0.18167 0.28996 0.28478 0.0
H234 H 0.20973 0.33015 0.2709 0.0
H235 H 0.19901 0.32931 0.22312 0.0
H236 H 0.22039 0.49129 0.19884 0.0
H237 H 0.20157 0.43846 0.20664 0.0
H238 H 0.21648 0.42774 0.25145 0.0
C239 C 0.1913 0.31621 0.26572 0.0
C240 C 0.2025 0.35074 0.22938 0.0
C241 C 0.17546 0.29297 0.27366 0.0
C242 C 0.23223 0.47965 0.20768 0.0
C243 C 0.22151 0.44946 0.2121 0.0
C244 C 0.21293 0.40634 0.24516 0.0
C245 C 0.18249 0.3224 0.25152 0.0
C246 C 0.19549 0.351 0.24406 0.0
C247 C 0.23504 0.43476 0.22414 0.0
C248 C 0.22058 0.40593 0.23062 0.0
H249 H 0.12504 0.26513 0.24802 0.0
H250 H 0.15199 0.30674 0.23418 0.0
H251 H 0.19424 0.38098 0.26294 0.0
H252 H 0.29072 0.49057 0.23254 0.0
H253 H 0.27199 0.43849 0.24018 0.0
C254 C 0.48497 0.77552 0.79797 0.0
C255 C 0.49878 0.74987 0.7905 0.0
C256 C 0.45495 0.78747 0.79391 0.0
C257 C 0.41047 0.79754 0.76162 0.0
H258 H 0.33296 0.80938 0.78363 0.0
C259 C 0.29591 0.8309 0.73312 0.0
C260 C 0.27672 0.85476 0.73916 0.0
C261 C 0.31985 0.81629 0.7411 0.0
C262 C 0.35455 0.80654 0.7774 0.0
H263 H 0.49069 0.71498 0.77375 0.0
H264 H 0.43905 0.73595 0.7667 0.0
H265 H 0.38123 0.7882 0.79523 0.0
H266 H 0.26626 0.88091 0.75851 0.0
H267 H 0.30902 0.85601 0.77244 0.0
H268 H 0.38487 0.81625 0.74392 0.0
C269 C 0.45145 0.74704 0.77554 0.0
C270 C 0.38206 0.79444 0.78404 0.0
C271 C 0.4811 0.73512 0.77959 0.0
C272 C 0.2807 0.86246 0.75362 0.0
C273 C 0.30518 0.84818 0.76159 0.0
C274 C 0.38335 0.80986 0.75507 0.0
C275 C 0.43857 0.77391 0.78233 0.0
C276 C 0.41001 0.78928 0.77609 0.0
C277 C 0.32576 0.82573 0.75524 0.0
C278 C 0.35477 0.81385 0.76275 0.0
H279 H 0.49797 0.78731 0.80644 0.0
H280 H 0.4454 0.80827 0.79928 0.0
H281 H 0.43194 0.79429 0.75533 0.0
H282 H 0.29306 0.8242 0.72204 0.0
H283 H 0.33449 0.7983 0.736 0.0
C284 C 0.72895 0.53224 0.21404 0.0
C285 C 0.75157 0.51084 0.20852 0.0
C286 C 0.73805 0.56287 0.21821 0.0
C287 C 0.80632 0.62067 0.21962 0.0
H288 H 0.77008 0.63926 0.25672 0.0
C289 C 0.84941 0.72649 0.25504 0.0
C290 C 0.8551 0.71816 0.26933 0.0
C291 C 0.83335 0.70538 0.24593 0.0
C292 C 0.78042 0.6345 0.24636 0.0
H293 H 0.8009 0.50517 0.2021 0.0
H294 H 0.81729 0.55839 0.20991 0.0
H295 H 0.74894 0.59536 0.24286 0.0
H296 H 0.84767 0.68144 0.28531 0.0
H297 H 0.81999 0.64494 0.26954 0.0
H298 H 0.83914 0.65896 0.22369 0.0
C299 C 0.79231 0.5519 0.21072 0.0
C300 C 0.76798 0.60952 0.23827 0.0
C301 C 0.78299 0.52136 0.20625 0.0
C302 C 0.84372 0.68869 0.27438 0.0
C303 C 0.82761 0.66779 0.26534 0.0
C304 C 0.81889 0.64571 0.22778 0.0
C305 C 0.77019 0.57251 0.21733 0.0
C306 C 0.78113 0.6018 0.22491 0.0
C307 C 0.82243 0.67571 0.25098 0.0
C308 C 0.80657 0.65232 0.24141 0.0
H309 H 0.70446 0.52474 0.21575 0.0
H310 H 0.72015 0.57841 0.22283 0.0
H311 H 0.81681 0.61563 0.20932 0.0
H312 H 0.85795 0.74899 0.25081 0.0
H313 H 0.82953 0.71222 0.23494 0.0
C314 C 0.52842 0.26852 0.78653 0.0
C315 C 0.50807 0.25067 0.7954 0.0
C316 C 0.55886 0.25732 0.78313 0.0
C317 C 0.62626 0.23142 0.77954 0.0
H318 H 0.62049 0.14482 0.76519 0.0
C319 C 0.72826 0.16444 0.74879 0.0
C320 C 0.71778 0.14979 0.73614 0.0
C321 C 0.70615 0.17757 0.75837 0.0
C322 C 0.62256 0.16894 0.76924 0.0
H323 H 0.50449 0.20821 0.80848 0.0
H324 H 0.55786 0.18836 0.80241 0.0
H325 H 0.5767 0.16671 0.7792 0.0
H326 H 0.67589 0.13849 0.72344 0.0
H327 H 0.63772 0.16108 0.74009 0.0
H328 H 0.67172 0.23385 0.76898 0.0
C329 C 0.55008 0.21102 0.79807 0.0
C330 C 0.59765 0.18137 0.77742 0.0
C331 C 0.51964 0.22245 0.80161 0.0
C332 C 0.68489 0.14943 0.73309 0.0
C333 C 0.66293 0.16215 0.74269 0.0
C334 C 0.65139 0.21882 0.77145 0.0
C335 C 0.56957 0.22786 0.78842 0.0
C336 C 0.59874 0.21307 0.78228 0.0
C337 C 0.67323 0.17585 0.75553 0.0
C338 C 0.64923 0.18783 0.76583 0.0
H339 H 0.52025 0.29051 0.78167 0.0
H340 H 0.57311 0.27075 0.77559 0.0
H341 H 0.62784 0.25587 0.78323 0.0
H342 H 0.75343 0.16513 0.75146 0.0
H343 H 0.71468 0.18815 0.76819 0.0
C344 C 0.27132 0.01851 0.02881 0.0
C345 C 0.25829 0.0042 0.04106 0.0
C346 C 0.2608 0.04831 0.02427 0.0
C347 C 0.22475 0.12347 0.03163 0.0
H348 H 0.18359 0.11278 0.99493 0.0
C349 C 0.15707 0.22507 1.00143 0.0
C350 C 0.15791 0.22397 0.98648 0.0
C351 C 0.17144 0.20083 0.00949 0.0
C352 C 0.19542 0.11642 0.00505 0.0
H353 H 0.22574 0.01121 0.05877 0.0
H354 H 0.20738 0.06408 0.05073 0.0
H355 H 0.20496 0.06652 0.00724 0.0
H356 H 0.17664 0.19842 0.96824 0.0
H357 H 0.20287 0.15719 0.98218 0.0
H358 H 0.21609 0.1737 0.02919 0.0
C359 C 0.2257 0.05174 0.04472 0.0
C360 C 0.20731 0.08981 0.01216 0.0
C361 C 0.23614 0.02156 0.04927 0.0
C362 C 0.17524 0.19961 0.97975 0.0
C363 C 0.19001 0.17581 0.98776 0.0
C364 C 0.21311 0.15038 0.02439 0.0
C365 C 0.23726 0.06473 0.03192 0.0
C366 C 0.22242 0.09312 0.02539 0.0
C367 C 0.18719 0.17534 1.0027 0.0
C368 C 0.19879 0.14717 0.01088 0.0
H369 H 0.28875 0.00609 0.02232 0.0
H370 H 0.27015 0.05803 0.01441 0.0
H371 H 0.23644 0.12645 0.04183 0.0
H372 H 0.14372 0.24355 0.00688 0.0
H373 H 0.16877 0.20124 0.02095 0.0
C374 C 0.18401 0.85442 0.02488 0.0
C375 C 0.21666 0.85387 0.02133 0.0
C376 C 0.16121 0.8422 0.01553 0.0
C377 C 0.14789 0.78676 0.98625 0.0
H378 H 0.0714 0.83761 0.98076 0.0
C379 C 0.01401 0.78186 0.95807 0.0
C380 C 0.00395 0.75254 0.96378 0.0
C381 C 0.04418 0.79417 0.96152 0.0
C382 C 0.09282 0.82334 0.98192 0.0
H383 H 0.25097 0.83884 0.00535 0.0
H384 H 0.21082 0.81684 0.98906 0.0
H385 H 0.11596 0.85941 0.99433 0.0
H386 H 0.01844 0.71192 0.97657 0.0
H387 H 0.07077 0.73317 0.98248 0.0
H388 H 0.12419 0.75023 0.97423 0.0
C389 C 0.20309 0.82708 0.99907 0.0
C390 C 0.11818 0.83568 0.98985 0.0
C391 C 0.22603 0.83964 0.00841 0.0
C392 C 0.02542 0.73473 0.9721 0.0
C393 C 0.05557 0.7468 0.97539 0.0
C394 C 0.12236 0.77428 0.97839 0.0
C395 C 0.17041 0.8289 1.00244 0.0
C396 C 0.14558 0.81718 0.99245 0.0
C397 C 0.0649 0.77712 0.97056 0.0
C398 C 0.0942 0.79214 0.97647 0.0
H399 H 0.17586 0.86504 0.03475 0.0
H400 H 0.13624 0.8433 0.01855 0.0
H401 H 0.16874 0.77201 0.98807 0.0
H402 H 0.99794 0.79608 0.95163 0.0
H403 H 0.05086 0.81751 0.95755 0.0
C404 C 0.82675 0.79628 0.98235 0.0
C405 C 0.84909 0.77597 0.9888 0.0
C406 C 0.81195 0.82032 0.9902 0.0
C407 C 0.79873 0.85358 0.02656 0.0
H408 H 0.79219 0.93237 0.00505 0.0
C409 C 0.76995 0.98407 0.04762 0.0
C410 C 0.74548 0.99891 0.03975 0.0
C411 C 0.78143 0.9539 0.04354 0.0
C412 C 0.79386 0.91051 0.01118 0.0
H413 H 0.87224 0.76363 0.00868 0.0
H414 H 0.84704 0.80654 0.02239 0.0
H415 H 0.81385 0.88508 0.9937 0.0
H416 H 0.71217 0.99256 0.02223 0.0
H417 H 0.7324 0.94068 0.01516 0.0
H418 H 0.77913 0.88007 0.04418 0.0
C419 C 0.84053 0.80351 0.01132 0.0
C420 C 0.80598 0.88328 0.00466 0.0
C421 C 0.85497 0.77894 0.00348 0.0
C422 C 0.7314 0.98215 0.02839 0.0
C423 C 0.74289 0.95237 0.02433 0.0
C424 C 0.78684 0.88119 0.03318 0.0
C425 C 0.8197 0.82519 0.00462 0.0
C426 C 0.80791 0.85423 0.01211 0.0
C427 C 0.76862 0.93841 0.03155 0.0
C428 C 0.78375 0.90966 0.02541 0.0
H429 H 0.82147 0.79422 0.97109 0.0
H430 H 0.79518 0.83584 0.9848 0.0
H431 H 0.79996 0.83163 0.03262 0.0
H432 H 0.7812 0.99633 0.05645 0.0
H433 H 0.80136 0.9435 0.04925 0.0
C434 C 0.79872 0.1732 0.02638 0.0
C435 C 0.77552 0.15462 0.01951 0.0
C436 C 0.82342 0.18725 0.01865 0.0
C437 C 0.85389 0.20597 0.98231 0.0
H438 H 0.93523 0.20058 1.00194 0.0
C439 C 0.98423 0.23089 0.9597 0.0
C440 C 1.00088 0.25314 0.96814 0.0
C441 C 0.95403 0.21976 0.96396 0.0
C442 C 0.91267 0.20217 0.99633 0.0
H443 H 0.75889 0.1375 0.99904 0.0
H444 H 0.8028 0.16137 0.98546 0.0
H445 H 0.88739 0.18013 0.01338 0.0
H446 H 0.99779 0.28267 0.98715 0.0
H447 H 0.94592 0.26292 0.99453 0.0
H448 H 0.88011 0.22772 0.9651 0.0
C449 C 0.8016 0.16552 0.99683 0.0
C450 C 0.88515 0.19078 1.00292 0.0
C451 C 0.77644 0.15186 0.00459 0.0
C452 C 0.98599 0.26522 0.98045 0.0
C453 C 0.9562 0.25399 0.98471 0.0
C454 C 0.88173 0.21713 0.9756 0.0
C455 C 0.826 0.18245 0.00386 0.0
C456 C 0.85524 0.19323 0.99619 0.0
C457 C 0.94032 0.23062 0.97674 0.0
C458 C 0.91118 0.21588 0.98273 0.0
H459 H 0.79835 0.17607 0.03785 0.0
H460 H 0.84114 0.20106 0.02436 0.0
H461 H 0.83126 0.20817 0.97681 0.0
H462 H 0.995 0.22122 0.95014 0.0
H463 H 0.94211 0.20164 0.95767 0.0
C464 C 0.65135 0.77692 0.75422 0.0
C465 C 0.65505 0.77565 0.76908 0.0
C466 C 0.66584 0.80139 0.74633 0.0
C467 C 0.6962 0.88327 0.75234 0.0
H468 H 0.72784 0.87743 0.71359 0.0
C469 C 0.76834 0.98365 0.72807 0.0
C470 C 0.75485 0.99813 0.71597 0.0
C471 C 0.75797 0.95379 0.73262 0.0
C472 C 0.71883 0.87927 0.72437 0.0
H473 H 0.67894 0.79694 0.78719 0.0
H474 H 0.70546 0.8384 0.77347 0.0
H475 H 0.70776 0.82929 0.72563 0.0
H476 H 0.72148 0.99141 0.69855 0.0
H477 H 0.70336 0.93849 0.7066 0.0
H478 H 0.70793 0.93285 0.75126 0.0
C479 C 0.69027 0.82161 0.76789 0.0
C480 C 0.70733 0.85183 0.73127 0.0
C481 C 0.67534 0.79766 0.77576 0.0
C482 C 0.73223 0.98095 0.70794 0.0
C483 C 0.72192 0.95071 0.7125 0.0
C484 C 0.70797 0.91036 0.74556 0.0
C485 C 0.68461 0.82469 0.75318 0.0
C486 C 0.69632 0.85346 0.74544 0.0
C487 C 0.73402 0.93747 0.72515 0.0
C488 C 0.71975 0.90859 0.7316 0.0
H489 H 0.63566 0.76028 0.74882 0.0
H490 H 0.66093 0.80301 0.73504 0.0
H491 H 0.68689 0.88581 0.76304 0.0
H492 H 0.78616 0.9959 0.7344 0.0
H493 H 0.7679 0.94386 0.74231 0.0
C494 C 0.97355 0.24075 0.28691 0.0
C495 C 0.99656 0.25792 0.29467 0.0
C496 C 0.94376 0.2541 0.28397 0.0
C497 C 0.87826 0.28498 0.2816 0.0
H498 H 0.88854 0.36818 0.26411 0.0
C499 C 0.7775 0.35357 0.25078 0.0
C500 C 0.78742 0.36433 0.23728 0.0
C501 C 0.7998 0.34116 0.26047 0.0
C502 C 0.88521 0.34507 0.26908 0.0
H503 H 0.00569 0.30174 0.30622 0.0
H504 H 0.95345 0.32545 0.3009 0.0
H505 H 0.93255 0.3451 0.2776 0.0
H506 H 0.82851 0.36979 0.22333 0.0
H507 H 0.86696 0.34856 0.24016 0.0
H508 H 0.83125 0.28456 0.27245 0.0
C509 C 0.95862 0.30158 0.29711 0.0
C510 C 0.91029 0.33199 0.27694 0.0
C511 C 0.98841 0.28798 0.30022 0.0
C512 C 0.81992 0.36184 0.23362 0.0
C513 C 0.84208 0.34991 0.24331 0.0
C514 C 0.85298 0.29825 0.27383 0.0
C515 C 0.93635 0.28511 0.28859 0.0
C516 C 0.90751 0.30134 0.28288 0.0
C517 C 0.83239 0.33983 0.25689 0.0
C518 C 0.85669 0.32793 0.26708 0.0
H519 H 0.97905 0.21741 0.28258 0.0
H520 H 0.92734 0.24088 0.27728 0.0
H521 H 0.87536 0.2614 0.28615 0.0
H522 H 0.75265 0.35514 0.25393 0.0
H523 H 0.79172 0.33339 0.27087 0.0
C524 C 0.28542 0.01491 0.70475 0.0
C525 C 0.2555 0.00659 0.71042 0.0
C526 C 0.29875 0.04491 0.70767 0.0
C527 C 0.329 0.09355 0.72768 0.0
H528 H 0.28096 0.17208 0.73242 0.0
C529 C 0.35865 0.18356 0.77115 0.0
C530 C 0.36083 0.21608 0.76756 0.0
C531 C 0.34673 0.16143 0.76144 0.0
C532 C 0.29483 0.15049 0.73097 0.0
H533 H 0.21484 0.02399 0.72246 0.0
H534 H 0.23785 0.07604 0.72745 0.0
H535 H 0.25804 0.12797 0.71864 0.0
H536 H 0.35105 0.25094 0.75104 0.0
H537 H 0.32934 0.21194 0.73407 0.0
H538 H 0.36514 0.11544 0.74051 0.0
C539 C 0.25119 0.05962 0.72081 0.0
C540 C 0.28169 0.12522 0.72315 0.0
C541 C 0.2381 0.02964 0.71805 0.0
C542 C 0.34972 0.22607 0.75413 0.0
C543 C 0.33734 0.20381 0.74442 0.0
C544 C 0.34195 0.11863 0.73558 0.0
C545 C 0.28214 0.06718 0.71613 0.0
C546 C 0.29827 0.09613 0.72179 0.0
C547 C 0.33636 0.17119 0.74792 0.0
C548 C 0.32459 0.14694 0.73768 0.0
H549 H 0.29936 0.99761 0.69884 0.0
H550 H 0.32257 0.05021 0.70382 0.0
H551 H 0.34228 0.07141 0.72697 0.0
H552 H 0.36688 0.17493 0.78139 0.0
H553 H 0.34565 0.13652 0.76452 0.0
C554 C 0.0205 0.71976 0.29686 0.0
C555 C 0.00891 0.75063 0.2942 0.0
C556 C 0.05101 0.7109 0.29211 0.0
C557 C 0.10677 0.73405 0.26356 0.0
H558 H 0.16059 0.66818 0.2798 0.0
C559 C 0.22921 0.65874 0.24895 0.0
C560 C 0.22156 0.65056 0.23482 0.0
C561 C 0.20686 0.67451 0.25756 0.0
C562 C 0.14607 0.68695 0.27522 0.0
H563 H 0.02102 0.79732 0.28587 0.0
H564 H 0.07449 0.78241 0.27819 0.0
H565 H 0.116 0.68959 0.29369 0.0
H566 H 0.1848 0.6534 0.21857 0.0
H567 H 0.14616 0.68066 0.23349 0.0
H568 H 0.13653 0.73141 0.24511 0.0
C569 C 0.05979 0.76457 0.28337 0.0
C570 C 0.12032 0.69896 0.28312 0.0
C571 C 0.02925 0.77321 0.28787 0.0
C572 C 0.19154 0.65932 0.22939 0.0
C573 C 0.16939 0.67515 0.23794 0.0
C574 C 0.13243 0.72214 0.25572 0.0
C575 C 0.07051 0.73292 0.2848 0.0
C576 C 0.1 0.72229 0.27727 0.0
C577 C 0.1766 0.68266 0.25217 0.0
C578 C 0.15194 0.69793 0.2613 0.0
H579 H 0.0052 0.70188 0.30166 0.0
H580 H 0.05838 0.68629 0.29336 0.0
H581 H 0.09147 0.75163 0.25857 0.0
H582 H 0.2521 0.65225 0.25346 0.0
H583 H 0.21319 0.6802 0.26845 0.0
C584 C 0.73753 0.52071 0.54777 0.0
C585 C 0.75899 0.50301 0.53935 0.0
C586 C 0.72729 0.55103 0.54331 0.0
C587 C 0.70952 0.59047 0.51065 0.0
H588 H 0.71724 0.67297 0.52906 0.0
C589 C 0.67849 0.70241 0.47964 0.0
C590 C 0.6605 0.72601 0.48655 0.0
C591 C 0.69324 0.67825 0.48743 0.0
C592 C 0.71458 0.65005 0.52387 0.0
H593 H 0.78837 0.50436 0.52026 0.0
H594 H 0.77015 0.55652 0.51252 0.0
H595 H 0.73696 0.62479 0.54118 0.0
H596 H 0.64518 0.74397 0.50708 0.0
H597 H 0.67018 0.70098 0.52077 0.0
H598 H 0.6867 0.61475 0.49354 0.0
C599 C 0.76113 0.54696 0.52246 0.0
C600 C 0.72585 0.62259 0.53081 0.0
C601 C 0.77145 0.51703 0.52692 0.0
C602 C 0.65906 0.72608 0.5015 0.0
C603 C 0.67339 0.70146 0.50933 0.0
C604 C 0.698 0.6176 0.50383 0.0
C605 C 0.73831 0.56381 0.53037 0.0
C606 C 0.72391 0.59273 0.52408 0.0
C607 C 0.68971 0.67663 0.50232 0.0
C608 C 0.70101 0.64789 0.51017 0.0
H609 H 0.72759 0.5106 0.55742 0.0
H610 H 0.70958 0.5637 0.54954 0.0
H611 H 0.70739 0.56757 0.50536 0.0
H612 H 0.68033 0.70204 0.46813 0.0
H613 H 0.70656 0.66019 0.4817 0.0
C614 C 0.68692 0.35226 0.52338 0.0
C615 C 0.71952 0.35194 0.51974 0.0
C616 C 0.66409 0.33971 0.51415 0.0
C617 C 0.65001 0.28345 0.48544 0.0
H618 H 0.57429 0.33518 0.47942 0.0
C619 C 0.5159 0.279 0.45748 0.0
C620 C 0.5052 0.25038 0.46365 0.0
C621 C 0.54632 0.29093 0.46075 0.0
C622 C 0.59549 0.32064 0.48073 0.0
H623 H 0.75374 0.33686 0.50373 0.0
H624 H 0.71348 0.31415 0.48764 0.0
H625 H 0.61934 0.35711 0.49262 0.0
H626 H 0.51879 0.21053 0.47709 0.0
H627 H 0.57158 0.23113 0.48268 0.0
H628 H 0.62551 0.24649 0.474 0.0
C629 C 0.70585 0.32456 0.49763 0.0
C630 C 0.62114 0.33308 0.48843 0.0
C631 C 0.72883 0.33751 0.50685 0.0
C632 C 0.52626 0.23281 0.47227 0.0
C633 C 0.55667 0.24449 0.47538 0.0
C634 C 0.62415 0.27085 0.47782 0.0
C635 C 0.6732 0.32623 0.50108 0.0
C636 C 0.64825 0.31432 0.49122 0.0
C637 C 0.56666 0.27418 0.47006 0.0
C638 C 0.59628 0.28905 0.47572 0.0
H639 H 0.67879 0.36299 0.53323 0.0
H640 H 0.63915 0.34071 0.51722 0.0
H641 H 0.67065 0.26851 0.48743 0.0
H642 H 0.50017 0.29303 0.45079 0.0
H643 H 0.5535 0.31379 0.45641 0.0
C644 C 0.26872 0.48473 0.54717 0.0
C645 C 0.24538 0.50031 0.53892 0.0
C646 C 0.28036 0.45467 0.54303 0.0
C647 C 0.29613 0.41268 0.51057 0.0
H648 H 0.29802 0.33263 0.53129 0.0
C649 C 0.32908 0.29889 0.48136 0.0
C650 C 0.35015 0.27763 0.48805 0.0
C651 C 0.31428 0.32309 0.48912 0.0
C652 C 0.29799 0.35491 0.52544 0.0
H653 H 0.21423 0.49537 0.52053 0.0
H654 H 0.23477 0.44369 0.51335 0.0
H655 H 0.27681 0.38091 0.54285 0.0
H656 H 0.371 0.26385 0.50825 0.0
H657 H 0.34578 0.30697 0.52183 0.0
H658 H 0.31763 0.38768 0.49331 0.0
C659 C 0.24425 0.45472 0.52289 0.0
C660 C 0.28587 0.38242 0.53206 0.0
C661 C 0.23257 0.48439 0.52703 0.0
C662 C 0.35475 0.27991 0.50285 0.0
C663 C 0.34029 0.30459 0.51061 0.0
C664 C 0.30846 0.38552 0.50406 0.0
C665 C 0.26886 0.44003 0.53058 0.0
C666 C 0.28428 0.41133 0.52453 0.0
C667 C 0.32074 0.32712 0.50371 0.0
C668 C 0.30888 0.35607 0.51124 0.0
H669 H 0.27896 0.49632 0.55641 0.0
H670 H 0.29941 0.44369 0.5491 0.0
H671 H 0.29562 0.43487 0.50464 0.0
H672 H 0.32473 0.2974 0.47001 0.0
H673 H 0.2985 0.33931 0.48354 0.0
C674 C 0.48606 0.73211 0.45961 0.0
C675 C 0.50319 0.75277 0.46865 0.0
C676 C 0.45587 0.72057 0.46369 0.0
C677 C 0.41522 0.69737 0.49536 0.0
H678 H 0.33272 0.71268 0.47786 0.0
C679 C 0.3022 0.67154 0.52657 0.0
C680 C 0.27722 0.65548 0.51965 0.0
C681 C 0.32719 0.68488 0.51878 0.0
C682 C 0.35563 0.70785 0.48275 0.0
H683 H 0.50107 0.77886 0.48866 0.0
H684 H 0.44929 0.75834 0.49572 0.0
H685 H 0.38169 0.73198 0.46614 0.0
H686 H 0.25783 0.64237 0.49906 0.0
H687 H 0.30212 0.66526 0.48536 0.0
H688 H 0.38999 0.67327 0.51189 0.0
C689 C 0.45914 0.75106 0.48554 0.0
C690 C 0.38354 0.71883 0.47604 0.0
C691 C 0.48888 0.76272 0.48147 0.0
C692 C 0.27676 0.65472 0.50467 0.0
C693 C 0.30213 0.6678 0.49683 0.0
C694 C 0.38761 0.68622 0.50196 0.0
C695 C 0.4427 0.72939 0.47688 0.0
C696 C 0.41342 0.71427 0.48251 0.0
C697 C 0.32818 0.68203 0.50386 0.0
C698 C 0.35737 0.69208 0.49598 0.0
H699 H 0.49635 0.7241 0.44965 0.0
H700 H 0.4435 0.70376 0.45687 0.0
H701 H 0.43809 0.69332 0.50046 0.0
H702 H 0.30298 0.67289 0.53809 0.0
H703 H 0.34632 0.69662 0.52452 0.0
C704 C 0.34058 0.1974 0.41538 0.0
C705 C 0.35458 0.22722 0.4183 0.0
C706 C 0.31737 0.19435 0.40469 0.0
C707 C 0.28215 0.2378 0.37358 0.0
H708 H 0.20791 0.18486 0.38098 0.0
C709 C 0.16374 0.25638 0.34425 0.0
C710 C 0.15029 0.22954 0.33754 0.0
C711 C 0.18879 0.25296 0.35394 0.0
C712 C 0.22865 0.19949 0.37873 0.0
H713 H 0.3555 0.27708 0.41206 0.0
H714 H 0.31494 0.27202 0.39383 0.0
H715 H 0.25277 0.18445 0.3977 0.0
H716 H 0.15171 0.17786 0.33629 0.0
H717 H 0.19522 0.17188 0.35364 0.0
H718 H 0.25739 0.25382 0.35495 0.0
C719 C 0.32218 0.2507 0.39949 0.0
C720 C 0.25447 0.19917 0.38826 0.0
C721 C 0.34544 0.25368 0.41005 0.0
C722 C 0.16154 0.19901 0.34128 0.0
C723 C 0.18641 0.19556 0.35119 0.0
C724 C 0.25624 0.23844 0.36422 0.0
C725 C 0.30754 0.22109 0.39671 0.0
C726 C 0.28135 0.2188 0.38594 0.0
C727 C 0.20078 0.2226 0.35733 0.0
C728 C 0.22901 0.21973 0.36681 0.0
H729 H 0.34709 0.17653 0.42154 0.0
H730 H 0.30701 0.17107 0.40274 0.0
H731 H 0.3027 0.25257 0.37118 0.0
H732 H 0.15572 0.28026 0.34165 0.0
H733 H 0.19914 0.27418 0.35866 0.0
C734 C 0.25109 0.65483 0.59678 0.0
C735 C 0.22462 0.64646 0.58838 0.0
C736 C 0.2484 0.678 0.60741 0.0
C737 C 0.1979 0.74664 0.61852 0.0
H738 H 0.25208 0.74291 0.65196 0.0
C739 C 0.19808 0.8395 0.66545 0.0
C740 C 0.22868 0.85059 0.66921 0.0
C741 C 0.19453 0.81453 0.65561 0.0
C742 C 0.23683 0.74428 0.64265 0.0
H743 H 0.17415 0.65512 0.58493 0.0
H744 H 0.16914 0.69494 0.60384 0.0
H745 H 0.2504 0.69769 0.6357 0.0
H746 H 0.27945 0.84462 0.66528 0.0
H747 H 0.27319 0.80099 0.64838 0.0
H748 H 0.18411 0.79331 0.62579 0.0
C749 C 0.19225 0.68411 0.60197 0.0
C750 C 0.23595 0.71842 0.63327 0.0
C751 C 0.19503 0.66104 0.59121 0.0
C752 C 0.25552 0.83675 0.66264 0.0
C753 C 0.25199 0.81158 0.65303 0.0
C754 C 0.19843 0.77239 0.62806 0.0
C755 C 0.21905 0.69328 0.61008 0.0
C756 C 0.2171 0.71949 0.62087 0.0
C757 C 0.22154 0.79987 0.64956 0.0
C758 C 0.21848 0.77172 0.64004 0.0
H759 H 0.27432 0.64431 0.59484 0.0
H760 H 0.26977 0.68469 0.61318 0.0
H761 H 0.18332 0.74859 0.60904 0.0
H762 H 0.17694 0.84963 0.67034 0.0
H763 H 0.17078 0.80593 0.6531 0.0
C764 C 0.66201 0.80309 0.4146 0.0
C765 C 0.64777 0.77355 0.41783 0.0
C766 C 0.68535 0.80536 0.40392 0.0
C767 C 0.72158 0.75953 0.37362 0.0
H768 H 0.7952 0.81354 0.38067 0.0
C769 C 0.84151 0.74022 0.34532 0.0
C770 C 0.85452 0.76675 0.33821 0.0
C771 C 0.81607 0.74392 0.35481 0.0
C772 C 0.77465 0.79858 0.37853 0.0
H773 H 0.64644 0.72339 0.41212 0.0
H774 H 0.68729 0.72708 0.39394 0.0
H775 H 0.74982 0.81493 0.39709 0.0
H776 H 0.85191 0.81823 0.33602 0.0
H777 H 0.80782 0.82474 0.35303 0.0
H778 H 0.74715 0.74219 0.35543 0.0
C779 C 0.68014 0.74878 0.39932 0.0
C780 C 0.74851 0.79946 0.38787 0.0
C781 C 0.65669 0.7466 0.40986 0.0
C782 C 0.84242 0.79731 0.34133 0.0
C783 C 0.81722 0.80107 0.35105 0.0
C784 C 0.74786 0.75829 0.36446 0.0
C785 C 0.69515 0.77809 0.39629 0.0
C786 C 0.72178 0.77954 0.38567 0.0
C787 C 0.80333 0.77428 0.35761 0.0
C788 C 0.77483 0.77744 0.36692 0.0
H789 H 0.65567 0.82433 0.42054 0.0
H790 H 0.69591 0.82845 0.40175 0.0
H791 H 0.70121 0.74448 0.3713 0.0
H792 H 0.85016 0.71633 0.34317 0.0
H793 H 0.80605 0.72291 0.35985 0.0
C794 C 0.74322 0.15663 0.65938 0.0
C795 C 0.76973 0.14672 0.66741 0.0
C796 C 0.74632 0.18038 0.64903 0.0
C797 C 0.79968 0.24713 0.63789 0.0
H798 H 0.74316 0.24776 0.60519 0.0
C799 C 0.80266 0.33921 0.5906 0.0
C800 C 0.77279 0.35304 0.58756 0.0
C801 C 0.80513 0.31427 0.60052 0.0
C802 C 0.75906 0.24789 0.61429 0.0
H803 H 0.82063 0.15327 0.67049 0.0
H804 H 0.82638 0.19394 0.65201 0.0
H805 H 0.74318 0.20197 0.62114 0.0
H806 H 0.72231 0.35208 0.59284 0.0
H807 H 0.72663 0.30831 0.60983 0.0
H808 H 0.81595 0.29304 0.63063 0.0
C809 C 0.80292 0.18399 0.65399 0.0
C810 C 0.75899 0.22173 0.62351 0.0
C811 C 0.79971 0.16042 0.66451 0.0
C812 C 0.74569 0.34206 0.59493 0.0
C813 C 0.74808 0.31685 0.60461 0.0
C814 C 0.80014 0.27312 0.62848 0.0
C815 C 0.77614 0.19465 0.64624 0.0
C816 C 0.77873 0.22123 0.63565 0.0
C817 C 0.77769 0.30237 0.60733 0.0
C818 C 0.77932 0.27401 0.61677 0.0
H819 H 0.7197 0.14684 0.66142 0.0
H820 H 0.72495 0.18824 0.64357 0.0
H821 H 0.815 0.24793 0.64717 0.0
H822 H 0.82397 0.34712 0.58509 0.0
H823 H 0.82824 0.30347 0.60245 0.0
C824 C 0.15432 0.24534 0.90935 0.0
C825 C 0.1454 0.27213 0.91743 0.0
C826 C 0.17736 0.24786 0.89865 0.0
C827 C 0.24473 0.29937 0.88679 0.0
H828 H 0.24269 0.24251 0.85421 0.0
C829 C 0.33764 0.29859 0.83988 0.0
C830 C 0.35003 0.26818 0.83671 0.0
C831 C 0.31238 0.30202 0.8496 0.0
C832 C 0.24358 0.25852 0.86327 0.0
H833 H 0.15289 0.32296 0.92019 0.0
H834 H 0.19241 0.32767 0.90112 0.0
H835 H 0.19734 0.24413 0.87044 0.0
H836 H 0.34597 0.21764 0.84149 0.0
H837 H 0.30174 0.22365 0.85816 0.0
H838 H 0.29101 0.31399 0.87928 0.0
C839 C 0.18216 0.30445 0.90332 0.0
C840 C 0.21765 0.25936 0.87264 0.0
C841 C 0.15925 0.30183 0.91417 0.0
C842 C 0.33709 0.24143 0.84369 0.0
C843 C 0.3116 0.2448 0.85317 0.0
C844 C 0.27051 0.29887 0.87724 0.0
C845 C 0.19195 0.27736 0.89556 0.0
C846 C 0.21813 0.27921 0.88474 0.0
C847 C 0.2987 0.27503 0.85609 0.0
C848 C 0.27045 0.27789 0.86558 0.0
H849 H 0.14438 0.22201 0.91163 0.0
H850 H 0.18454 0.22629 0.89317 0.0
H851 H 0.24626 0.31472 0.89603 0.0
H852 H 0.34707 0.31966 0.83468 0.0
H853 H 0.30285 0.3256 0.85168 0.0
C854 C 0.2554 0.64626 0.15595 0.0
C855 C 0.27706 0.64445 0.16734 0.0
C856 C 0.25791 0.67058 0.14581 0.0
C857 C 0.31107 0.73547 0.13218 0.0
H858 H 0.23036 0.77199 0.12021 0.0
C859 C 0.30073 0.8312 0.08754 0.0
C860 C 0.27611 0.85391 0.0886 0.0
C861 C 0.30329 0.80648 0.09753 0.0
C862 C 0.25318 0.76243 0.12355 0.0
H863 H 0.31918 0.66607 0.17669 0.0
H864 H 0.32322 0.70892 0.15919 0.0
H865 H 0.23059 0.72673 0.13628 0.0
H866 H 0.23605 0.86956 0.10146 0.0
H867 H 0.24108 0.82726 0.11909 0.0
H868 H 0.3336 0.77204 0.11975 0.0
C869 C 0.30452 0.69127 0.15793 0.0
C870 C 0.25331 0.73597 0.13261 0.0
C871 C 0.30218 0.6667 0.16801 0.0
C872 C 0.25512 0.8523 0.10026 0.0
C873 C 0.25785 0.82781 0.11031 0.0
C874 C 0.31095 0.76214 0.12315 0.0
C875 C 0.28193 0.694 0.14689 0.0
C876 C 0.28222 0.72199 0.13702 0.0
C877 C 0.28141 0.80403 0.10888 0.0
C878 C 0.28197 0.77601 0.11873 0.0
H879 H 0.23592 0.62934 0.15505 0.0
H880 H 0.24058 0.67133 0.13726 0.0
H881 H 0.3338 0.72526 0.13526 0.0
H882 H 0.31722 0.83167 0.07865 0.0
H883 H 0.32159 0.78855 0.09599 0.0
C884 C 0.84263 0.75532 0.91092 0.0
C885 C 0.85303 0.72855 0.91865 0.0
C886 C 0.81921 0.75235 0.90043 0.0
C887 C 0.75351 0.69893 0.88847 0.0
H888 H 0.75338 0.75666 0.85619 0.0
C889 C 0.66125 0.69777 0.84125 0.0
C890 C 0.64838 0.72791 0.83794 0.0
C891 C 0.68598 0.69491 0.85126 0.0
C892 C 0.75307 0.74043 0.86517 0.0
H893 H 0.84761 0.67737 0.92106 0.0
H894 H 0.80731 0.67195 0.90235 0.0
H895 H 0.79887 0.75615 0.87232 0.0
H896 H 0.65068 0.77846 0.84293 0.0
H897 H 0.6939 0.77343 0.86013 0.0
H898 H 0.70767 0.68296 0.88097 0.0
C899 C 0.81677 0.69544 0.90466 0.0
C900 C 0.77909 0.74021 0.87448 0.0
C901 C 0.84012 0.69848 0.9153 0.0
C902 C 0.65998 0.75488 0.84521 0.0
C903 C 0.68491 0.75207 0.855 0.0
C904 C 0.72762 0.69884 0.87898 0.0
C905 C 0.80569 0.72245 0.8972 0.0
C906 C 0.77939 0.72003 0.88647 0.0
C907 C 0.69859 0.72219 0.85793 0.0
C908 C 0.72687 0.72012 0.86743 0.0
H909 H 0.85182 0.77891 0.91329 0.0
H910 H 0.81099 0.77385 0.89519 0.0
H911 H 0.75264 0.68326 0.89763 0.0
H912 H 0.65287 0.67654 0.83583 0.0
H913 H 0.69612 0.67159 0.85335 0.0
C914 C 0.75305 0.15461 0.09674 0.0
C915 C 0.72614 0.14583 0.08869 0.0
C916 C 0.75079 0.17791 0.10732 0.0
C917 C 0.70025 0.24616 0.11887 0.0
H918 H 0.75709 0.24393 0.15145 0.0
C919 C 0.70316 0.34017 0.16533 0.0
C920 C 0.73388 0.35212 0.1683 0.0
C921 C 0.6991 0.31474 0.15577 0.0
C922 C 0.74108 0.24486 0.1424 0.0
H923 H 0.67539 0.15389 0.08587 0.0
H924 H 0.67115 0.19391 0.10474 0.0
H925 H 0.75464 0.19825 0.13546 0.0
H926 H 0.78428 0.34709 0.16333 0.0
H927 H 0.77716 0.30257 0.14695 0.0
H928 H 0.68648 0.29284 0.12614 0.0
C929 C 0.69425 0.18332 0.1026 0.0
C930 C 0.73976 0.21875 0.13316 0.0
C931 C 0.69659 0.16013 0.09187 0.0
C932 C 0.76028 0.33857 0.16129 0.0
C933 C 0.75627 0.3129 0.15197 0.0
C934 C 0.70121 0.27214 0.12829 0.0
C935 C 0.72146 0.19291 0.11033 0.0
C936 C 0.71996 0.2193 0.12104 0.0
C937 C 0.72573 0.30045 0.14924 0.0
C938 C 0.72222 0.27201 0.13994 0.0
H939 H 0.77627 0.14433 0.09452 0.0
H940 H 0.77246 0.18492 0.11278 0.0
H941 H 0.68493 0.24772 0.10961 0.0
H942 H 0.68235 0.35009 0.17057 0.0
H943 H 0.67529 0.30556 0.15384 0.0
C944 C 0.9314 0.90054 0.27418 0.0
C945 C 0.92483 0.88367 0.28678 0.0
C946 C 0.94548 0.93073 0.2747 0.0
C947 C 0.99882 0.97768 0.29736 0.0
H948 H 0.97877 0.04566 0.27084 0.0
C949 C 0.06127 0.10187 0.29756 0.0
C950 C 0.06615 0.11657 0.28428 0.0
C951 C 0.04473 0.07287 0.29847 0.0
C952 C 0.98495 0.02674 0.2782 0.0
H953 H 0.92613 0.88603 0.30984 0.0
H954 H 0.95062 0.93902 0.31075 0.0
H955 H 0.94502 0.99833 0.27171 0.0
H956 H 0.05981 0.1112 0.26148 0.0
H957 H 0.03183 0.06039 0.26304 0.0
H958 H 0.03905 0.00596 0.30371 0.0
C959 C 0.94518 0.92864 0.30047 0.0
C960 C 0.96546 0.99971 0.27875 0.0
C961 C 0.93083 0.89847 0.29995 0.0
C962 C 0.05617 0.10064 0.27189 0.0
C963 C 0.03983 0.07167 0.27279 0.0
C964 C 0.01839 0.00474 0.29679 0.0
C965 C 0.95346 0.94469 0.28784 0.0
C966 C 0.97237 0.9747 0.28821 0.0
C967 C 0.03289 0.05801 0.28612 0.0
C968 C 0.01192 0.0294 0.28706 0.0
H969 H 0.92707 0.88979 0.26387 0.0
H970 H 0.95169 0.94235 0.26478 0.0
H971 H 0.00504 0.9586 0.30463 0.0
H972 H 0.06854 0.11362 0.30731 0.0
H973 H 0.03979 0.063 0.3089 0.0
C974 C 0.90236 0.07489 0.73238 0.0
C975 C 0.8856 0.08073 0.71969 0.0
C976 C 0.93136 0.05844 0.73216 0.0
C977 C 0.99668 0.02883 0.70895 0.0
H978 H 0.0032 0.9633 0.738 0.0
C979 C 0.10023 0.9377 0.70934 0.0
C980 C 0.11565 0.93443 0.72256 0.0
C981 C 0.07062 0.95312 0.70843 0.0
C982 C 0.00183 0.98157 0.72986 0.0
H983 H 0.88723 0.07586 0.6967 0.0
H984 H 0.9379 0.04703 0.69632 0.0
H985 H 0.95673 0.99821 0.73752 0.0
H986 H 0.11121 0.94289 0.74526 0.0
H987 H 0.0597 0.96945 0.74369 0.0
H988 H 0.04196 0.01214 0.70135 0.0
C989 C 0.92865 0.05523 0.70645 0.0
C990 C 0.97528 0.00172 0.72963 0.0
C991 C 0.89962 0.07183 0.70667 0.0
C992 C 0.09997 0.94503 0.73492 0.0
C993 C 0.07036 0.96022 0.73402 0.0
C994 C 0.02329 0.00861 0.70918 0.0
C995 C 0.94423 0.04733 0.71924 0.0
C996 C 0.97254 0.02586 0.71928 0.0
C997 C 0.05578 0.96529 0.72073 0.0
C998 C 0.0263 0.98496 0.71974 0.0
H999 H 0.89234 0.08165 0.74258 0.0
H1000 H 0.94321 0.05352 0.74217 0.0
H1001 H 0.99538 0.04726 0.70088 0.0
H1002 H 0.11174 0.92986 0.69962 0.0
H1003 H 0.05973 0.95624 0.69806 0.0
C1004 C 0.07448 0.4052 0.98334 0.0
C1005 C 0.08081 0.38779 0.97087 0.0
C1006 C 0.0589 0.43461 0.98267 0.0
C1007 C 0.0021 0.47795 0.96007 0.0
H1008 H 0.02 0.54762 0.98603 0.0
C1009 C 0.93583 0.60028 0.95953 0.0
C1010 C 0.93042 0.6148 0.97282 0.0
C1011 C 0.95303 0.57167 0.95864 0.0
C1012 C 0.01446 0.52821 0.97882 0.0
H1013 H 0.0775 0.38849 0.94782 0.0
H1014 H 0.05055 0.44019 0.94664 0.0
H1015 H 0.05584 0.5019 0.98519 0.0
H1016 H 0.93639 0.60937 0.99563 0.0
H1017 H 0.96569 0.55933 0.99409 0.0
H1018 H 0.96054 0.50434 0.95377 0.0
C1019 C 0.05723 0.43078 0.95695 0.0
C1020 C 0.0351 0.50208 0.9783 0.0
C1021 C 0.073 0.40135 0.95763 0.0
C1022 C 0.94041 0.59896 0.98523 0.0
C1023 C 0.95749 0.57043 0.98434 0.0
C1024 C 0.98143 0.50419 0.96058 0.0
C1025 C 0.04921 0.44729 0.9695 0.0
C1026 C 0.02896 0.47643 0.96905 0.0
C1027 C 0.96506 0.5571 0.97102 0.0
C1028 C 0.98714 0.52939 0.97012 0.0
H1029 H 0.08017 0.39542 0.99372 0.0
H1030 H 0.05293 0.44656 0.99255 0.0
H1031 H 0.99643 0.45838 0.95296 0.0
H1032 H 0.92854 0.61196 0.94977 0.0
H1033 H 0.95843 0.56198 0.94823 0.0
C1034 C 0.40108 0.92939 0.04931 0.0
C1035 C 0.38657 0.92161 0.03626 0.0
C1036 C 0.42962 0.94683 0.04961 0.0
C1037 C 0.47277 0.00497 0.02742 0.0
H1038 H 0.54185 0.99302 0.05436 0.0
C1039 C 0.59443 0.06823 0.02224 0.0
C1040 C 0.61104 0.07676 0.03468 0.0
C1041 C 0.56546 0.05178 0.02307 0.0
C1042 C 0.52249 0.997 0.04692 0.0
H1043 H 0.39208 0.9236 0.0133 0.0
H1044 H 0.44206 0.95334 0.01383 0.0
H1045 H 0.49668 0.95607 0.05441 0.0
H1046 H 0.60922 0.07649 0.05776 0.0
H1047 H 0.55828 0.04814 0.0592 0.0
H1048 H 0.49848 0.04578 0.0199 0.0
C1049 C 0.43096 0.94678 0.02384 0.0
C1050 C 0.49671 0.97571 0.04691 0.0
C1051 C 0.40248 0.92942 0.02354 0.0
C1052 C 0.59701 0.07029 0.04798 0.0
C1053 C 0.56802 0.0537 0.04881 0.0
C1054 C 0.49847 0.02624 0.02745 0.0
C1055 C 0.4442 0.95676 0.03685 0.0
C1056 C 0.47172 0.97924 0.03704 0.0
C1057 C 0.55239 0.04344 0.03636 0.0
C1058 C 0.52381 0.02236 0.0371 0.0
H1059 H 0.38939 0.92383 0.0593 0.0
H1060 H 0.43921 0.95411 0.05981 0.0
H1061 H 0.45353 0.00887 0.01991 0.0
H1062 H 0.60457 0.07282 0.01183 0.0
H1063 H 0.55421 0.04412 0.01326 0.0
C1064 C 0.432 0.39902 0.79844 0.0
C1065 C 0.42712 0.38382 0.78528 0.0
C1066 C 0.44715 0.4288 0.79906 0.0
C1067 C 0.47228 0.49823 0.7772 0.0
H1068 H 0.54213 0.50411 0.80423 0.0
C1069 C 0.56606 0.59693 0.77216 0.0
C1070 C 0.57416 0.61343 0.78468 0.0
C1071 C 0.54915 0.56824 0.77282 0.0
C1072 C 0.52253 0.50299 0.79672 0.0
H1073 H 0.43226 0.38889 0.7624 0.0
H1074 H 0.45831 0.44072 0.76347 0.0
H1075 H 0.5069 0.45761 0.80461 0.0
H1076 H 0.57269 0.61168 0.80775 0.0
H1077 H 0.54304 0.56153 0.80891 0.0
H1078 H 0.48791 0.54341 0.76924 0.0
C1079 C 0.45058 0.42974 0.77333 0.0
C1080 C 0.50224 0.47642 0.79697 0.0
C1081 C 0.43567 0.39995 0.77272 0.0
C1082 C 0.56691 0.59948 0.79791 0.0
C1083 C 0.54984 0.57076 0.79857 0.0
C1084 C 0.4925 0.52475 0.77695 0.0
C1085 C 0.45741 0.44406 0.78652 0.0
C1086 C 0.4771 0.47358 0.78711 0.0
C1087 C 0.53981 0.55541 0.78602 0.0
C1088 C 0.51813 0.52727 0.78658 0.0
H1089 H 0.42577 0.38717 0.80831 0.0
H1090 H 0.45163 0.43948 0.80938 0.0
H1091 H 0.45287 0.49699 0.7696 0.0
H1092 H 0.57151 0.60689 0.76179 0.0
H1093 H 0.54256 0.55657 0.76296 0.0
C1094 C 0.6033 0.43594 0.20744 0.0
C1095 C 0.61914 0.43113 0.22046 0.0
C1096 C 0.5741 0.45223 0.20702 0.0
C1097 C 0.52968 0.51193 0.22808 0.0
H1098 H 0.46014 0.49329 0.20213 0.0
C1099 C 0.40529 0.57037 0.23239 0.0
C1100 C 0.38846 0.5771 0.21979 0.0
C1101 C 0.43482 0.55487 0.23188 0.0
C1102 C 0.47959 0.49909 0.20929 0.0
H1103 H 0.61548 0.43718 0.24334 0.0
H1104 H 0.56429 0.4647 0.24265 0.0
H1105 H 0.50686 0.4584 0.20268 0.0
H1106 H 0.39034 0.57451 0.19674 0.0
H1107 H 0.44215 0.5477 0.19586 0.0
H1108 H 0.50237 0.55243 0.23477 0.0
C1109 C 0.57484 0.45685 0.23271 0.0
C1110 C 0.5063 0.47901 0.20964 0.0
C1111 C 0.60403 0.44075 0.23312 0.0
C1112 C 0.40271 0.56971 0.20664 0.0
C1113 C 0.43222 0.55402 0.20614 0.0
C1114 C 0.503 0.53194 0.22774 0.0
C1115 C 0.56012 0.46389 0.21962 0.0
C1116 C 0.53155 0.48502 0.21914 0.0
C1117 C 0.44817 0.54564 0.21877 0.0
C1118 C 0.47753 0.52566 0.21842 0.0
H1119 H 0.61439 0.42897 0.19749 0.0
H1120 H 0.56343 0.45724 0.19676 0.0
H1121 H 0.54903 0.51777 0.23527 0.0
H1122 H 0.39498 0.5757 0.2427 0.0
H1123 H 0.44637 0.54866 0.24182 0.0
C1124 C 0.43188 0.09981 0.45913 0.0
C1125 C 0.42699 0.11434 0.47244 0.0
C1126 C 0.44733 0.07024 0.4582 0.0
C1127 C 0.47406 1.00046 0.4795 0.0
H1128 H 0.54325 0.99662 0.45204 0.0
C1129 C 0.57096 0.90501 0.48402 0.0
C1130 C 0.57854 0.8882 0.47152 0.0
C1131 C 0.55332 0.93323 0.48338 0.0
C1132 C 0.52385 0.9972 0.45967 0.0
H1133 H 0.4324 0.10827 0.49525 0.0
H1134 H 0.45909 0.05692 0.49365 0.0
H1135 H 0.50702 0.04234 0.45204 0.0
H1136 H 0.5755 0.88905 0.44846 0.0
H1137 H 0.54469 0.93851 0.44736 0.0
H1138 H 0.49105 0.95561 0.48727 0.0
C1139 C 0.45109 0.0682 0.4839 0.0
C1140 C 0.50297 0.0233 0.45963 0.0
C1141 C 0.43583 0.09774 0.48483 0.0
C1142 C 0.57012 0.90148 0.45829 0.0
C1143 C 0.55239 0.92979 0.45766 0.0
C1144 C 0.49491 0.97447 0.47957 0.0
C1145 C 0.45794 0.05457 0.47057 0.0
C1146 C 0.47808 0.02541 0.46967 0.0
C1147 C 0.54281 0.9453 0.47023 0.0
C1148 C 0.52034 0.97275 0.4698 0.0
H1149 H 0.42539 0.11202 0.44938 0.0
H1150 H 0.4518 0.06009 0.44778 0.0
H1151 H 0.45484 1.00109 0.48723 0.0
H1152 H 0.57731 0.89557 0.49438 0.0
H1153 H 0.54704 0.94509 0.49325 0.0
C1154 C 0.90222 0.43011 0.54847 0.0
C1155 C 0.88817 0.42209 0.53534 0.0
C1156 C 0.93056 0.44788 0.54889 0.0
C1157 C 0.97363 0.50644 0.5269 0.0
H1158 H 0.04254 0.49482 0.55396 0.0
C1159 C 0.09497 0.57031 0.52188 0.0
C1160 C 0.11159 0.57875 0.53433 0.0
C1161 C 0.06604 0.55379 0.52269 0.0
C1162 C 0.02322 0.49872 0.54649 0.0
H1163 H 0.89427 0.42405 0.51242 0.0
H1164 H 0.94385 0.45441 0.51318 0.0
H1165 H 0.99757 0.45763 0.55392 0.0
H1166 H 0.10979 0.57828 0.55741 0.0
H1167 H 0.0589 0.54983 0.55881 0.0
H1168 H 0.99915 0.54742 0.51944 0.0
C1169 C 0.93257 0.44776 0.52314 0.0
C1170 C 0.99755 0.47729 0.54643 0.0
C1171 C 0.90431 0.43005 0.52271 0.0
C1172 C 0.09758 0.57214 0.54762 0.0
C1173 C 0.06862 0.55549 0.54843 0.0
C1174 C 0.9992 0.52787 0.52699 0.0
C1175 C 0.94535 0.45794 0.53621 0.0
C1176 C 0.97265 0.48068 0.53651 0.0
C1177 C 0.053 0.5453 0.53596 0.0
C1178 C 0.02449 0.52411 0.53668 0.0
H1179 H 0.89033 0.42444 0.5584 0.0
H1180 H 0.93981 0.45531 0.55914 0.0
H1181 H 0.95444 0.51022 0.51935 0.0
H1182 H 0.10508 0.57501 0.51147 0.0
H1183 H 0.05481 0.54619 0.51287 0.0
loop_
_geom_bond_atom_site_label_1
_geom_bond_atom_site_label_2
_geom_bond_distance
_geom_bond_site_symmetry_2
_ccdc_geom_bond_type
O0 Cd1 2.223 . S
O0 C8 1.315 . S
Cd1 O0 2.223 . S
Cd1 O4 2.297 . S
Cd1 O5 2.439 . S
Cd1 O11 2.240 . S
Cd2 O3 2.240 . S
Cd2 O10 2.223 . S
Cd2 O12 2.297 . S
Cd2 O13 2.439 . S
O3 Cd2 2.240 . S
O3 C8 1.279 . S
O4 Cd1 2.297 . S
O4 C6 1.247 . S
O5 Cd1 2.439 . S
O5 C6 1.208 . S
C6 O4 1.247 . S
C6 O5 1.208 . S
C7 O12 1.247 . S
C7 O13 1.208 . S
C8 O0 1.315 . S
C8 O3 1.279 . S
C9 O10 1.315 . S
C9 O11 1.279 . S
O10 Cd2 2.223 . S
O10 C9 1.315 . S
O11 Cd1 2.240 . S
O11 C9 1.279 . S
O12 Cd2 2.297 . S
O12 C7 1.247 . S
O13 Cd2 2.439 . S
O13 C7 1.208 . S
O14 Cd15 2.223 . S
O14 C22 1.315 . S
Cd15 O14 2.223 . S
Cd15 O18 2.297 . S
Cd15 O19 2.439 . S
Cd15 O25 2.240 . S
Cd16 O17 2.240 . S
Cd16 O24 2.223 . S
Cd16 O26 2.297 . S
Cd16 O27 2.439 . S
O17 Cd16 2.240 . S
O17 C22 1.279 . S
O18 Cd15 2.297 . S
O18 C20 1.247 . S
O19 Cd15 2.439 . S
O19 C20 1.208 . S
C20 O18 1.247 . S
C20 O19 1.208 . S
C21 O26 1.247 . S
C21 O27 1.208 . S
C22 O14 1.315 . S
C22 O17 1.279 . S
C23 O24 1.315 . S
C23 O25 1.279 . S
O24 Cd16 2.223 . S
O24 C23 1.315 . S
O25 Cd15 2.240 . S
O25 C23 1.279 . S
O26 Cd16 2.297 . S
O26 C21 1.247 . S
O27 Cd16 2.439 . S
O27 C21 1.208 . S
O28 Cd29 2.223 . S
O28 C36 1.315 . S
Cd29 O28 2.223 . S
Cd29 O32 2.297 . S
Cd29 O33 2.439 . S
Cd29 O39 2.240 . S
Cd30 O31 2.240 . S
Cd30 O38 2.223 . S
Cd30 O40 2.297 . S
Cd30 O41 2.439 . S
O31 Cd30 2.240 . S
O31 C36 1.279 . S
O32 Cd29 2.297 . S
O32 C34 1.247 . S
O33 Cd29 2.439 . S
O33 C34 1.208 . S
C34 O32 1.247 . S
C34 O33 1.208 . S
C35 O40 1.247 . S
C35 O41 1.208 . S
C36 O28 1.315 . S
C36 O31 1.279 . S
C37 O38 1.315 . S
C37 O39 1.279 . S
O38 Cd30 2.223 . S
O38 C37 1.315 . S
O39 Cd29 2.240 . S
O39 C37 1.279 . S
O40 Cd30 2.297 . S
O40 C35 1.247 . S
O41 Cd30 2.439 . S
O41 C35 1.208 . S
O42 Cd43 2.223 . S
O42 C50 1.315 . S
Cd43 O42 2.223 . S
Cd43 O46 2.297 . S
Cd43 O47 2.439 . S
Cd43 O53 2.240 . S
Cd44 O45 2.240 . S
Cd44 O52 2.223 . S
Cd44 O54 2.297 . S
Cd44 O55 2.439 . S
O45 Cd44 2.240 . S
O45 C50 1.279 . S
O46 Cd43 2.297 . S
O46 C48 1.247 . S
O47 Cd43 2.439 . S
O47 C48 1.208 . S
C48 O46 1.247 . S
C48 O47 1.208 . S
C49 O54 1.247 . S
C49 O55 1.208 . S
C50 O42 1.315 . S
C50 O45 1.279 . S
C51 O52 1.315 . S
C51 O53 1.279 . S
O52 Cd44 2.223 . S
O52 C51 1.315 . S
O53 Cd43 2.240 . S
O53 C51 1.279 . S
O54 Cd44 2.297 . S
O54 C49 1.247 . S
O55 Cd44 2.439 . S
O55 C49 1.208 . S
O56 Cd57 2.223 . S
O56 C64 1.315 . S
Cd57 O56 2.223 . S
Cd57 O60 2.297 . S
Cd57 O61 2.439 . S
Cd57 O67 2.240 . S
Cd58 O59 2.240 . S
Cd58 O66 2.223 . S
Cd58 O68 2.297 . S
Cd58 O69 2.439 . S
O59 Cd58 2.240 . S
O59 C64 1.279 . S
O60 Cd57 2.297 . S
O60 C62 1.247 . S
O61 Cd57 2.439 . S
O61 C62 1.208 . S
C62 O60 1.247 . S
C62 O61 1.208 . S
C63 O68 1.247 . S
C63 O69 1.208 . S
C64 O56 1.315 . S
C64 O59 1.279 . S
C65 O66 1.315 . S
C65 O67 1.279 . S
O66 Cd58 2.223 . S
O66 C65 1.315 . S
O67 Cd57 2.240 . S
O67 C65 1.279 . S
O68 Cd58 2.297 . S
O68 C63 1.247 . S
O69 Cd58 2.439 . S
O69 C63 1.208 . S
O70 Cd71 2.223 . S
O70 C78 1.315 . S
Cd71 O70 2.223 . S
Cd71 O74 2.297 . S
Cd71 O75 2.439 . S
Cd71 O81 2.240 . S
Cd72 O73 2.240 . S
Cd72 O80 2.223 . S
Cd72 O82 2.297 . S
Cd72 O83 2.439 . S
O73 Cd72 2.240 . S
O73 C78 1.279 . S
O74 Cd71 2.297 . S
O74 C76 1.247 . S
O75 Cd71 2.439 . S
O75 C76 1.208 . S
C76 O74 1.247 . S
C76 O75 1.208 . S
C77 O82 1.247 . S
C77 O83 1.208 . S
C78 O70 1.315 . S
C78 O73 1.279 . S
C79 O80 1.315 . S
C79 O81 1.279 . S
O80 Cd72 2.223 . S
O80 C79 1.315 . S
O81 Cd71 2.240 . S
O81 C79 1.279 . S
O82 Cd72 2.297 . S
O82 C77 1.247 . S
O83 Cd72 2.439 . S
O83 C77 1.208 . S
O84 Cd85 2.223 . S
O84 C92 1.315 . S
Cd85 O84 2.223 . S
Cd85 O88 2.297 . S
Cd85 O89 2.439 . S
Cd85 O95 2.240 . S
Cd86 O87 2.240 . S
Cd86 O94 2.223 . S
Cd86 O96 2.297 . S
Cd86 O97 2.439 . S
O87 Cd86 2.240 . S
O87 C92 1.279 . S
O88 Cd85 2.297 . S
O88 C90 1.247 . S
O89 Cd85 2.439 . S
O89 C90 1.208 . S
C90 O88 1.247 . S
C90 O89 1.208 . S
C91 O96 1.247 . S
C91 O97 1.208 . S
C92 O84 1.315 . S
C92 O87 1.279 . S
C93 O94 1.315 . S
C93 O95 1.279 . S
O94 Cd86 2.223 . S
O94 C93 1.315 . S
O95 Cd85 2.240 . S
O95 C93 1.279 . S
O96 Cd86 2.297 . S
O96 C91 1.247 . S
O97 Cd86 2.439 . S
O97 C91 1.208 . S
O98 Cd99 2.223 . S
O98 C106 1.315 . S
Cd99 O98 2.223 . S
Cd99 O102 2.297 . S
Cd99 O103 2.439 . S
Cd99 O109 2.240 . S
Cd100 O101 2.240 . S
Cd100 O108 2.223 . S
Cd100 O110 2.297 . S
Cd100 O111 2.439 . S
O101 Cd100 2.240 . S
O101 C106 1.279 . S
O102 Cd99 2.297 . S
O102 C104 1.247 . S
O103 Cd99 2.439 . S
O103 C104 1.208 . S
C104 O102 1.247 . S
C104 O103 1.208 . S
C105 O110 1.247 . S
C105 O111 1.208 . S
C106 O98 1.315 . S
C106 O101 1.279 . S
C107 O108 1.315 . S
C107 O109 1.279 . S
O108 Cd100 2.223 . S
O108 C107 1.315 . S
O109 Cd99 2.240 . S
O109 C107 1.279 . S
O110 Cd100 2.297 . S
O110 C105 1.247 . S
O111 Cd100 2.439 . S
O111 C105 1.208 . S
O112 Cd113 2.223 . S
O112 C120 1.315 . S
Cd113 O112 2.223 . S
Cd113 O116 2.297 . S
Cd113 O117 2.439 . S
Cd113 O123 2.240 . S
Cd114 O115 2.240 . S
Cd114 O122 2.223 . S
Cd114 O124 2.297 . S
Cd114 O125 2.439 . S
O115 Cd114 2.240 . S
O115 C120 1.279 . S
O116 Cd113 2.297 . S
O116 C118 1.247 . S
O117 Cd113 2.439 . S
O117 C118 1.208 . S
C118 O116 1.247 . S
C118 O117 1.208 . S
C119 O124 1.247 . S
C119 O125 1.208 . S
C120 O112 1.315 . S
C120 O115 1.279 . S
C121 O122 1.315 . S
C121 O123 1.279 . S
O122 Cd114 2.223 . S
O122 C121 1.315 . S
O123 Cd113 2.240 . S
O123 C121 1.279 . S
O124 Cd114 2.297 . S
O124 C119 1.247 . S
O125 Cd114 2.439 . S
O125 C119 1.208 . S
O126 Cd127 2.223 . S
O126 C134 1.315 . S
Cd127 O126 2.223 . S
Cd127 O130 2.297 . S
Cd127 O131 2.439 . S
Cd127 O137 2.240 . S
Cd128 O129 2.240 . S
Cd128 O136 2.223 . S
Cd128 O138 2.297 . S
Cd128 O139 2.439 . S
O129 Cd128 2.240 . S
O129 C134 1.279 . S
O130 Cd127 2.297 . S
O130 C132 1.247 . S
O131 Cd127 2.439 . S
O131 C132 1.208 . S
C132 O130 1.247 . S
C132 O131 1.208 . S
C133 O138 1.247 . S
C133 O139 1.208 . S
C134 O126 1.315 . S
C134 O129 1.279 . S
C135 O136 1.315 . S
C135 O137 1.279 . S
O136 Cd128 2.223 . S
O136 C135 1.315 . S
O137 Cd127 2.240 . S
O137 C135 1.279 . S
O138 Cd128 2.297 . S
O138 C133 1.247 . S
O139 Cd128 2.439 . S
O139 C133 1.208 . S
O140 Cd141 2.223 . S
O140 C148 1.315 . S
Cd141 O140 2.223 . S
Cd141 O144 2.297 . S
Cd141 O145 2.439 . S
Cd141 O151 2.240 . S
Cd142 O143 2.240 . S
Cd142 O150 2.223 . S
Cd142 O152 2.297 . S
Cd142 O153 2.439 . S
O143 Cd142 2.240 . S
O143 C148 1.279 . S
O144 Cd141 2.297 . S
O144 C146 1.247 . S
O145 Cd141 2.439 . S
O145 C146 1.208 . S
C146 O144 1.247 . S
C146 O145 1.208 . S
C147 O152 1.247 . S
C147 O153 1.208 . S
C148 O140 1.315 . S
C148 O143 1.279 . S
C149 O150 1.315 . S
C149 O151 1.279 . S
O150 Cd142 2.223 . S
O150 C149 1.315 . S
O151 Cd141 2.240 . S
O151 C149 1.279 . S
O152 Cd142 2.297 . S
O152 C147 1.247 . S
O153 Cd142 2.439 . S
O153 C147 1.208 . S
O154 Cd155 2.223 . S
O154 C162 1.315 . S
Cd155 O154 2.223 . S
Cd155 O158 2.297 . S
Cd155 O159 2.439 . S
Cd155 O165 2.240 . S
Cd156 O157 2.240 . S
Cd156 O164 2.223 . S
Cd156 O166 2.297 . S
Cd156 O167 2.439 . S
O157 Cd156 2.240 . S
O157 C162 1.279 . S
O158 Cd155 2.297 . S
O158 C160 1.247 . S
O159 Cd155 2.439 . S
O159 C160 1.208 . S
C160 O158 1.247 . S
C160 O159 1.208 . S
C161 O166 1.247 . S
C161 O167 1.208 . S
C162 O154 1.315 . S
C162 O157 1.279 . S
C163 O164 1.315 . S
C163 O165 1.279 . S
O164 Cd156 2.223 . S
O164 C163 1.315 . S
O165 Cd155 2.240 . S
O165 C163 1.279 . S
O166 Cd156 2.297 . S
O166 C161 1.247 . S
O167 Cd156 2.439 . S
O167 C161 1.208 . S
O168 Cd169 2.223 . S
O168 C176 1.315 . S
Cd169 O168 2.223 . S
Cd169 O172 2.297 . S
Cd169 O173 2.439 . S
Cd169 O179 2.240 . S
Cd170 O171 2.240 . S
Cd170 O178 2.223 . S
Cd170 O180 2.297 . S
Cd170 O181 2.439 . S
O171 Cd170 2.240 . S
O171 C176 1.279 . S
O172 Cd169 2.297 . S
O172 C174 1.247 . S
O173 Cd169 2.439 . S
O173 C174 1.208 . S
C174 O172 1.247 . S
C174 O173 1.208 . S
C175 O180 1.247 . S
C175 O181 1.208 . S
C176 O168 1.315 . S
C176 O171 1.279 . S
C177 O178 1.315 . S
C177 O179 1.279 . S
O178 Cd170 2.223 . S
O178 C177 1.315 . S
O179 Cd169 2.240 . S
O179 C177 1.279 . S
O180 Cd170 2.297 . S
O180 C175 1.247 . S
O181 Cd170 2.439 . S
O181 C175 1.208 . S
O182 Cd183 2.223 . S
O182 C190 1.315 . S
Cd183 O182 2.223 . S
Cd183 O186 2.297 . S
Cd183 O187 2.439 . S
Cd183 O193 2.240 . S
Cd184 O185 2.240 . S
Cd184 O192 2.223 . S
Cd184 O194 2.297 . S
Cd184 O195 2.439 . S
O185 Cd184 2.240 . S
O185 C190 1.279 . S
O186 Cd183 2.297 . S
O186 C188 1.247 . S
O187 Cd183 2.439 . S
O187 C188 1.208 . S
C188 O186 1.247 . S
C188 O187 1.208 . S
C189 O194 1.247 . S
C189 O195 1.208 . S
C190 O182 1.315 . S
C190 O185 1.279 . S
C191 O192 1.315 . S
C191 O193 1.279 . S
O192 Cd184 2.223 . S
O192 C191 1.315 . S
O193 Cd183 2.240 . S
O193 C191 1.279 . S
O194 Cd184 2.297 . S
O194 C189 1.247 . S
O195 Cd184 2.439 . S
O195 C189 1.208 . S
O196 Cd197 2.223 . S
O196 C204 1.315 . S
Cd197 O196 2.223 . S
Cd197 O200 2.297 . S
Cd197 O201 2.439 . S
Cd197 O207 2.240 . S
Cd198 O199 2.240 . S
Cd198 O206 2.223 . S
Cd198 O208 2.297 . S
Cd198 O209 2.439 . S
O199 Cd198 2.240 . S
O199 C204 1.279 . S
O200 Cd197 2.297 . S
O200 C202 1.247 . S
O201 Cd197 2.439 . S
O201 C202 1.208 . S
C202 O200 1.247 . S
C202 O201 1.208 . S
C203 O208 1.247 . S
C203 O209 1.208 . S
C204 O196 1.315 . S
C204 O199 1.279 . S
C205 O206 1.315 . S
C205 O207 1.279 . S
O206 Cd198 2.223 . S
O206 C205 1.315 . S
O207 Cd197 2.240 . S
O207 C205 1.279 . S
O208 Cd198 2.297 . S
O208 C203 1.247 . S
O209 Cd198 2.439 . S
O209 C203 1.208 . S
O210 Cd211 2.223 . S
O210 C218 1.315 . S
Cd211 O210 2.223 . S
Cd211 O214 2.297 . S
Cd211 O215 2.439 . S
Cd211 O221 2.240 . S
Cd212 O213 2.240 . S
Cd212 O220 2.223 . S
Cd212 O222 2.297 . S
Cd212 O223 2.439 . S
O213 Cd212 2.240 . S
O213 C218 1.279 . S
O214 Cd211 2.297 . S
O214 C216 1.247 . S
O215 Cd211 2.439 . S
O215 C216 1.208 . S
C216 O214 1.247 . S
C216 O215 1.208 . S
C217 O222 1.247 . S
C217 O223 1.208 . S
C218 O210 1.315 . S
C218 O213 1.279 . S
C219 O220 1.315 . S
C219 O221 1.279 . S
O220 Cd212 2.223 . S
O220 C219 1.315 . S
O221 Cd211 2.240 . S
O221 C219 1.279 . S
O222 Cd212 2.297 . S
O222 C217 1.247 . S
O223 Cd212 2.439 . S
O223 C217 1.208 . S
C224 C225 1.349 . S
C224 C226 1.327 . S
C224 H249 0.950 . S
C225 C224 1.349 . S
C225 C241 1.349 . S
C226 C224 1.327 . S
C226 C245 1.429 . S
C226 H250 0.950 . S
C227 C244 1.574 . S
C227 C246 1.368 . S
C227 H251 0.949 . S
H228 C232 0.949 . S
C229 C230 1.349 . S
C229 C231 1.327 . S
C229 H252 0.950 . S
C230 C229 1.349 . S
C230 C242 1.349 . S
C231 C229 1.327 . S
C231 C247 1.429 . S
C231 H253 0.950 . S
C232 H228 0.949 . S
C232 C240 1.574 . S
C232 C248 1.368 . S
H233 C241 0.950 . S
H234 C239 0.950 . S
H235 C240 0.949 . S
H236 C242 0.950 . S
H237 C243 0.950 . S
H238 C244 0.949 . S
C239 H234 0.950 . S
C239 C241 1.327 . S
C239 C245 1.429 . S
C240 C232 1.574 . S
C240 H235 0.949 . S
C240 C246 1.368 . S
C241 C225 1.349 . S
C241 H233 0.950 . S
C241 C239 1.327 . S
C242 C230 1.349 . S
C242 H236 0.950 . S
C242 C243 1.327 . S
C243 H237 0.950 . S
C243 C242 1.327 . S
C243 C247 1.429 . S
C244 C227 1.574 . S
C244 H238 0.949 . S
C244 C248 1.368 . S
C245 C226 1.429 . S
C245 C239 1.429 . S
C245 C246 1.523 . S
C246 C227 1.368 . S
C246 C240 1.368 . S
C246 C245 1.523 . S
C247 C231 1.429 . S
C247 C243 1.429 . S
C247 C248 1.523 . S
C248 C232 1.368 . S
C248 C244 1.368 . S
C248 C247 1.523 . S
H249 C224 0.950 . S
H250 C226 0.950 . S
H251 C227 0.949 . S
H252 C229 0.950 . S
H253 C231 0.950 . S
C254 C255 1.349 . S
C254 C256 1.327 . S
C254 H279 0.950 . S
C255 C254 1.349 . S
C255 C271 1.349 . S
C256 C254 1.327 . S
C256 C275 1.429 . S
C256 H280 0.950 . S
C257 C274 1.574 . S
C257 C276 1.368 . S
C257 H281 0.949 . S
H258 C262 0.949 . S
C259 C260 1.349 . S
C259 C261 1.327 . S
C259 H282 0.950 . S
C260 C259 1.349 . S
C260 C272 1.349 . S
C261 C259 1.327 . S
C261 C277 1.429 . S
C261 H283 0.950 . S
C262 H258 0.949 . S
C262 C270 1.574 . S
C262 C278 1.368 . S
H263 C271 0.950 . S
H264 C269 0.950 . S
H265 C270 0.949 . S
H266 C272 0.950 . S
H267 C273 0.950 . S
H268 C274 0.949 . S
C269 H264 0.950 . S
C269 C271 1.327 . S
C269 C275 1.429 . S
C270 C262 1.574 . S
C270 H265 0.949 . S
C270 C276 1.368 . S
C271 C255 1.349 . S
C271 H263 0.950 . S
C271 C269 1.327 . S
C272 C260 1.349 . S
C272 H266 0.950 . S
C272 C273 1.327 . S
C273 H267 0.950 . S
C273 C272 1.327 . S
C273 C277 1.429 . S
C274 C257 1.574 . S
C274 H268 0.949 . S
C274 C278 1.368 . S
C275 C256 1.429 . S
C275 C269 1.429 . S
C275 C276 1.523 . S
C276 C257 1.368 . S
C276 C270 1.368 . S
C276 C275 1.523 . S
C277 C261 1.429 . S
C277 C273 1.429 . S
C277 C278 1.523 . S
C278 C262 1.368 . S
C278 C274 1.368 . S
C278 C277 1.523 . S
H279 C254 0.950 . S
H280 C256 0.950 . S
H281 C257 0.949 . S
H282 C259 0.950 . S
H283 C261 0.950 . S
C284 C285 1.349 . S
C284 C286 1.327 . S
C284 H309 0.950 . S
C285 C284 1.349 . S
C285 C301 1.349 . S
C286 C284 1.327 . S
C286 C305 1.429 . S
C286 H310 0.950 . S
C287 C304 1.574 . S
C287 C306 1.368 . S
C287 H311 0.949 . S
H288 C292 0.949 . S
C289 C290 1.349 . S
C289 C291 1.327 . S
C289 H312 0.950 . S
C290 C289 1.349 . S
C290 C302 1.349 . S
C291 C289 1.327 . S
C291 C307 1.429 . S
C291 H313 0.950 . S
C292 H288 0.949 . S
C292 C300 1.574 . S
C292 C308 1.368 . S
H293 C301 0.950 . S
H294 C299 0.950 . S
H295 C300 0.949 . S
H296 C302 0.950 . S
H297 C303 0.950 . S
H298 C304 0.949 . S
C299 H294 0.950 . S
C299 C301 1.327 . S
C299 C305 1.429 . S
C300 C292 1.574 . S
C300 H295 0.949 . S
C300 C306 1.368 . S
C301 C285 1.349 . S
C301 H293 0.950 . S
C301 C299 1.327 . S
C302 C290 1.349 . S
C302 H296 0.950 . S
C302 C303 1.327 . S
C303 H297 0.950 . S
C303 C302 1.327 . S
C303 C307 1.429 . S
C304 C287 1.574 . S
C304 H298 0.949 . S
C304 C308 1.368 . S
C305 C286 1.429 . S
C305 C299 1.429 . S
C305 C306 1.523 . S
C306 C287 1.368 . S
C306 C300 1.368 . S
C306 C305 1.523 . S
C307 C291 1.429 . S
C307 C303 1.429 . S
C307 C308 1.523 . S
C308 C292 1.368 . S
C308 C304 1.368 . S
C308 C307 1.523 . S
H309 C284 0.950 . S
H310 C286 0.950 . S
H311 C287 0.949 . S
H312 C289 0.950 . S
H313 C291 0.950 . S
C314 C315 1.349 . S
C314 C316 1.327 . S
C314 H339 0.950 . S
C315 C314 1.349 . S
C315 C331 1.349 . S
C316 C314 1.327 . S
C316 C335 1.429 . S
C316 H340 0.950 . S
C317 C334 1.574 . S
C317 C336 1.368 . S
C317 H341 0.949 . S
H318 C322 0.949 . S
C319 C320 1.349 . S
C319 C321 1.327 . S
C319 H342 0.950 . S
C320 C319 1.349 . S
C320 C332 1.349 . S
C321 C319 1.327 . S
C321 C337 1.429 . S
C321 H343 0.950 . S
C322 H318 0.949 . S
C322 C330 1.574 . S
C322 C338 1.368 . S
H323 C331 0.950 . S
H324 C329 0.950 . S
H325 C330 0.949 . S
H326 C332 0.950 . S
H327 C333 0.950 . S
H328 C334 0.949 . S
C329 H324 0.950 . S
C329 C331 1.327 . S
C329 C335 1.429 . S
C330 C322 1.574 . S
C330 H325 0.949 . S
C330 C336 1.368 . S
C331 C315 1.349 . S
C331 H323 0.950 . S
C331 C329 1.327 . S
C332 C320 1.349 . S
C332 H326 0.950 . S
C332 C333 1.327 . S
C333 H327 0.950 . S
C333 C332 1.327 . S
C333 C337 1.429 . S
C334 C317 1.574 . S
C334 H328 0.949 . S
C334 C338 1.368 . S
C335 C316 1.429 . S
C335 C329 1.429 . S
C335 C336 1.523 . S
C336 C317 1.368 . S
C336 C330 1.368 . S
C336 C335 1.523 . S
C337 C321 1.429 . S
C337 C333 1.429 . S
C337 C338 1.523 . S
C338 C322 1.368 . S
C338 C334 1.368 . S
C338 C337 1.523 . S
H339 C314 0.950 . S
H340 C316 0.950 . S
H341 C317 0.949 . S
H342 C319 0.950 . S
H343 C321 0.950 . S
C344 C345 1.349 . S
C344 C346 1.327 1_565 S
C344 H369 0.950 . S
C345 C344 1.349 . S
C345 C361 1.349 1_565 S
C346 C344 1.327 1_545 S
C346 C365 1.429 . S
C346 H370 0.950 1_554 S
C347 C364 1.574 . S
C347 C366 1.368 . S
C347 H371 0.949 . S
H348 C352 0.949 . S
C349 C350 1.349 . S
C349 C351 1.327 1_556 S
C349 H372 0.950 1_556 S
C350 C349 1.349 . S
C350 C362 1.349 . S
C351 C349 1.327 1_554 S
C351 C367 1.429 1_554 S
C351 H373 0.950 . S
C352 H348 0.949 . S
C352 C360 1.574 . S
C352 C368 1.368 . S
H353 C361 0.950 . S
H354 C359 0.950 . S
H355 C360 0.949 . S
H356 C362 0.950 . S
H357 C363 0.950 . S
H358 C364 0.949 . S
C359 H354 0.950 . S
C359 C361 1.327 . S
C359 C365 1.429 . S
C360 C352 1.574 . S
C360 H355 0.949 . S
C360 C366 1.368 1_556 S
C361 C345 1.349 1_545 S
C361 H353 0.950 . S
C361 C359 1.327 . S
C362 C350 1.349 . S
C362 H356 0.950 . S
C362 C363 1.327 . S
C363 H357 0.950 . S
C363 C362 1.327 . S
C363 C367 1.429 . S
C364 C347 1.574 . S
C364 H358 0.949 . S
C364 C368 1.368 1_554 S
C365 C346 1.429 . S
C365 C359 1.429 . S
C365 C366 1.523 . S
C366 C347 1.368 . S
C366 C360 1.368 1_554 S
C366 C365 1.523 . S
C367 C351 1.429 1_556 S
C367 C363 1.429 . S
C367 C368 1.523 . S
C368 C352 1.368 . S
C368 C364 1.368 1_556 S
C368 C367 1.523 . S
H369 C344 0.950 . S
H370 C346 0.950 1_556 S
H371 C347 0.949 . S
H372 C349 0.950 1_554 S
H373 C351 0.950 . S
C374 C375 1.349 . S
C374 C376 1.327 . S
C374 H399 0.950 . S
C375 C374 1.349 . S
C375 C391 1.349 . S
C376 C374 1.327 . S
C376 C395 1.429 . S
C376 H400 0.950 . S
C377 C394 1.574 . S
C377 C396 1.368 1_556 S
C377 H401 0.949 . S
H378 C382 0.949 . S
C379 C380 1.349 1_455 S
C379 C381 1.327 . S
C379 H402 0.954 . S
C380 C379 1.349 1_655 S
C380 C392 1.349 . S
C381 C379 1.327 . S
C381 C397 1.429 . S
C381 H403 0.950 . S
C382 H378 0.949 . S
C382 C390 1.574 . S
C382 C398 1.368 1_554 S
H383 C391 0.950 1_556 S
H384 C389 0.950 . S
H385 C390 0.949 . S
H386 C392 0.950 . S
H387 C393 0.950 1_554 S
H388 C394 0.949 . S
C389 H384 0.950 . S
C389 C391 1.327 1_556 S
C389 C395 1.429 1_556 S
C390 C382 1.574 . S
C390 H385 0.949 . S
C390 C396 1.368 . S
C391 C375 1.349 . S
C391 H383 0.950 1_554 S
C391 C389 1.327 1_554 S
C392 C380 1.349 . S
C392 H386 0.950 . S
C392 C393 1.327 1_655 S
C393 H387 0.950 1_556 S
C393 C392 1.327 1_455 S
C393 C397 1.429 . S
C394 C377 1.574 . S
C394 H388 0.949 . S
C394 C398 1.368 . S
C395 C376 1.429 . S
C395 C389 1.429 1_554 S
C395 C396 1.523 . S
C396 C377 1.368 1_554 S
C396 C390 1.368 . S
C396 C395 1.523 . S
C397 C381 1.429 . S
C397 C393 1.429 . S
C397 C398 1.523 . S
C398 C382 1.368 1_556 S
C398 C394 1.368 . S
C398 C397 1.523 . S
H399 C374 0.950 . S
H400 C376 0.950 . S
H401 C377 0.949 . S
H402 C379 0.954 . S
H403 C381 0.950 . S
C404 C405 1.349 . S
C404 C406 1.327 . S
C404 H429 0.950 . S
C405 C404 1.349 . S
C405 C421 1.349 . S
C406 C404 1.327 . S
C406 C425 1.429 . S
C406 H430 0.950 . S
C407 C424 1.574 . S
C407 C426 1.368 1_554 S
C407 H431 0.949 . S
H408 C412 0.949 . S
C409 C410 1.349 . S
C409 C411 1.327 1_545 S
C409 H432 0.950 . S
C410 C409 1.349 . S
C410 C422 1.349 . S
C411 C409 1.327 1_565 S
C411 C427 1.429 . S
C411 H433 0.950 . S
C412 H408 0.949 . S
C412 C420 1.574 . S
C412 C428 1.368 1_556 S
H413 C421 0.947 1_554 S
H414 C419 0.948 . S
H415 C420 0.949 . S
H416 C422 0.950 . S
H417 C423 0.950 1_556 S
H418 C424 0.949 . S
C419 H414 0.948 . S
C419 C421 1.328 1_554 S
C419 C425 1.429 1_554 S
C420 C412 1.574 . S
C420 H415 0.949 . S
C420 C426 1.368 . S
C421 C405 1.349 . S
C421 H413 0.947 1_556 S
C421 C419 1.328 1_556 S
C422 C410 1.349 . S
C422 H416 0.950 . S
C422 C423 1.327 1_545 S
C423 H417 0.950 1_554 S
C423 C422 1.327 1_565 S
C423 C427 1.429 . S
C424 C407 1.574 . S
C424 H418 0.949 . S
C424 C428 1.368 . S
C425 C406 1.429 . S
C425 C419 1.429 1_556 S
C425 C426 1.523 . S
C426 C407 1.368 1_556 S
C426 C420 1.368 . S
C426 C425 1.523 . S
C427 C411 1.429 . S
C427 C423 1.429 . S
C427 C428 1.523 . S
C428 C412 1.368 1_554 S
C428 C424 1.368 . S
C428 C427 1.523 . S
H429 C404 0.950 . S
H430 C406 0.950 . S
H431 C407 0.949 . S
H432 C409 0.950 . S
H433 C411 0.950 . S
C434 C435 1.349 . S
C434 C436 1.327 . S
C434 H459 0.950 . S
C435 C434 1.349 . S
C435 C451 1.349 . S
C436 C434 1.327 . S
C436 C455 1.429 . S
C436 H460 0.950 . S
C437 C454 1.574 . S
C437 C456 1.368 1_556 S
C437 H461 0.949 . S
H438 C442 0.949 . S
C439 C440 1.349 . S
C439 C441 1.327 1_455 S
C439 H462 0.950 . S
C440 C439 1.349 . S
C440 C452 1.349 . S
C441 C439 1.327 1_655 S
C441 C457 1.429 . S
C441 H463 0.950 . S
C442 H438 0.949 . S
C442 C450 1.574 . S
C442 C458 1.368 1_554 S
H443 C451 0.950 1_556 S
H444 C449 0.950 . S
H445 C450 0.949 . S
H446 C452 0.950 . S
H447 C453 0.950 1_554 S
H448 C454 0.949 . S
C449 H444 0.950 . S
C449 C451 1.327 1_556 S
C449 C455 1.429 1_556 S
C450 C442 1.574 . S
C450 H445 0.949 . S
C450 C456 1.368 . S
C451 C435 1.349 . S
C451 H443 0.950 1_554 S
C451 C449 1.327 1_554 S
C452 C440 1.349 . S
C452 H446 0.950 . S
C452 C453 1.327 1_455 S
C453 H447 0.950 1_556 S
C453 C452 1.327 1_655 S
C453 C457 1.429 . S
C454 C437 1.574 . S
C454 H448 0.949 . S
C454 C458 1.368 . S
C455 C436 1.429 . S
C455 C449 1.429 1_554 S
C455 C456 1.523 . S
C456 C437 1.368 1_554 S
C456 C450 1.368 . S
C456 C455 1.523 . S
C457 C441 1.429 . S
C457 C453 1.429 . S
C457 C458 1.523 . S
C458 C442 1.368 1_556 S
C458 C454 1.368 . S
C458 C457 1.523 . S
H459 C434 0.950 . S
H460 C436 0.950 . S
H461 C437 0.949 . S
H462 C439 0.950 . S
H463 C441 0.950 . S
C464 C465 1.349 . S
C464 C466 1.327 . S
C464 H489 0.950 . S
C465 C464 1.349 . S
C465 C481 1.349 . S
C466 C464 1.327 . S
C466 C485 1.429 . S
C466 H490 0.950 . S
C467 C484 1.574 . S
C467 C486 1.368 . S
C467 H491 0.949 . S
H468 C472 0.949 . S
C469 C470 1.349 . S
C469 C471 1.327 1_545 S
C469 H492 0.950 . S
C470 C469 1.349 . S
C470 C482 1.349 . S
C471 C469 1.327 1_565 S
C471 C487 1.429 . S
C471 H493 0.950 . S
C472 H468 0.949 . S
C472 C480 1.574 . S
C472 C488 1.368 . S
H473 C481 0.950 . S
H474 C479 0.950 . S
H475 C480 0.949 . S
H476 C482 0.950 . S
H477 C483 0.950 . S
H478 C484 0.949 . S
C479 H474 0.950 . S
C479 C481 1.327 . S
C479 C485 1.429 . S
C480 C472 1.574 . S
C480 H475 0.949 . S
C480 C486 1.368 . S
C481 C465 1.349 . S
C481 H473 0.950 . S
C481 C479 1.327 . S
C482 C470 1.349 . S
C482 H476 0.950 . S
C482 C483 1.327 1_545 S
C483 H477 0.950 . S
C483 C482 1.327 1_565 S
C483 C487 1.429 . S
C484 C467 1.574 . S
C484 H478 0.949 . S
C484 C488 1.368 . S
C485 C466 1.429 . S
C485 C479 1.429 . S
C485 C486 1.523 . S
C486 C467 1.368 . S
C486 C480 1.368 . S
C486 C485 1.523 . S
C487 C471 1.429 . S
C487 C483 1.429 . S
C487 C488 1.523 . S
C488 C472 1.368 . S
C488 C484 1.368 . S
C488 C487 1.523 . S
H489 C464 0.950 . S
H490 C466 0.950 . S
H491 C467 0.949 . S
H492 C469 0.950 . S
H493 C471 0.950 . S
C494 C495 1.349 . S
C494 C496 1.327 1_455 S
C494 H519 0.950 . S
C495 C494 1.349 . S
C495 C511 1.349 1_455 S
C496 C494 1.327 1_655 S
C496 C515 1.429 . S
C496 H520 0.950 . S
C497 C514 1.574 . S
C497 C516 1.368 . S
C497 H521 0.949 . S
H498 C502 0.949 . S
C499 C500 1.349 . S
C499 C501 1.327 . S
C499 H522 0.950 . S
C500 C499 1.349 . S
C500 C512 1.349 . S
C501 C499 1.327 . S
C501 C517 1.429 . S
C501 H523 0.950 . S
C502 H498 0.949 . S
C502 C510 1.574 . S
C502 C518 1.368 . S
H503 C511 0.950 . S
H504 C509 0.950 . S
H505 C510 0.949 . S
H506 C512 0.950 . S
H507 C513 0.950 . S
H508 C514 0.949 . S
C509 H504 0.950 . S
C509 C511 1.327 . S
C509 C515 1.429 . S
C510 C502 1.574 . S
C510 H505 0.949 . S
C510 C516 1.368 . S
C511 C495 1.349 1_655 S
C511 H503 0.950 . S
C511 C509 1.327 . S
C512 C500 1.349 . S
C512 H506 0.950 . S
C512 C513 1.327 . S
C513 H507 0.950 . S
C513 C512 1.327 . S
C513 C517 1.429 . S
C514 C497 1.574 . S
C514 H508 0.949 . S
C514 C518 1.368 . S
C515 C496 1.429 . S
C515 C509 1.429 . S
C515 C516 1.523 . S
C516 C497 1.368 . S
C516 C510 1.368 . S
C516 C515 1.523 . S
C517 C501 1.429 . S
C517 C513 1.429 . S
C517 C518 1.523 . S
C518 C502 1.368 . S
C518 C514 1.368 . S
C518 C517 1.523 . S
H519 C494 0.950 . S
H520 C496 0.950 . S
H521 C497 0.949 . S
H522 C499 0.950 . S
H523 C501 0.950 . S
C524 C525 1.349 1_545 S
C524 C526 1.327 . S
C524 H549 0.950 . S
C525 C524 1.349 1_565 S
C525 C541 1.349 . S
C526 C524 1.327 . S
C526 C545 1.429 . S
C526 H550 0.950 . S
C527 C544 1.574 . S
C527 C546 1.368 . S
C527 H551 0.949 . S
H528 C532 0.949 . S
C529 C530 1.349 . S
C529 C531 1.327 . S
C529 H552 0.950 . S
C530 C529 1.349 . S
C530 C542 1.349 . S
C531 C529 1.327 . S
C531 C547 1.429 . S
C531 H553 0.950 . S
C532 H528 0.949 . S
C532 C540 1.574 . S
C532 C548 1.368 . S
H533 C541 0.950 . S
H534 C539 0.950 . S
H535 C540 0.949 . S
H536 C542 0.950 . S
H537 C543 0.950 . S
H538 C544 0.949 . S
C539 H534 0.950 . S
C539 C541 1.327 1_545 S
C539 C545 1.429 . S
C540 C532 1.574 . S
C540 H535 0.949 . S
C540 C546 1.368 . S
C541 C525 1.349 . S
C541 H533 0.950 . S
C541 C539 1.327 1_565 S
C542 C530 1.349 . S
C542 H536 0.950 . S
C542 C543 1.327 . S
C543 H537 0.950 . S
C543 C542 1.327 . S
C543 C547 1.429 . S
C544 C527 1.574 . S
C544 H538 0.949 . S
C544 C548 1.368 . S
C545 C526 1.429 . S
C545 C539 1.429 . S
C545 C546 1.523 . S
C546 C527 1.368 . S
C546 C540 1.368 . S
C546 C545 1.523 . S
C547 C531 1.429 . S
C547 C543 1.429 . S
C547 C548 1.523 . S
C548 C532 1.368 . S
C548 C544 1.368 . S
C548 C547 1.523 . S
H549 C524 0.950 . S
H550 C526 0.950 . S
H551 C527 0.949 . S
H552 C529 0.950 . S
H553 C531 0.950 . S
C554 C555 1.349 . S
C554 C556 1.327 1_655 S
C554 H579 0.950 . S
C555 C554 1.349 . S
C555 C571 1.349 1_655 S
C556 C554 1.327 1_455 S
C556 C575 1.429 . S
C556 H580 0.950 . S
C557 C574 1.574 . S
C557 C576 1.368 . S
C557 H581 0.949 . S
H558 C562 0.949 . S
C559 C560 1.349 . S
C559 C561 1.327 . S
C559 H582 0.950 . S
C560 C559 1.349 . S
C560 C572 1.349 . S
C561 C559 1.327 . S
C561 C577 1.429 . S
C561 H583 0.950 . S
C562 H558 0.949 . S
C562 C570 1.574 . S
C562 C578 1.368 . S
H563 C571 0.946 1_655 S
H564 C569 0.950 . S
H565 C570 0.949 . S
H566 C572 0.950 . S
H567 C573 0.950 . S
H568 C574 0.949 . S
C569 H564 0.950 . S
C569 C571 1.327 . S
C569 C575 1.429 . S
C570 C562 1.574 . S
C570 H565 0.949 . S
C570 C576 1.368 . S
C571 C555 1.349 1_455 S
C571 H563 0.946 1_455 S
C571 C569 1.327 . S
C572 C560 1.349 . S
C572 H566 0.950 . S
C572 C573 1.327 . S
C573 H567 0.950 . S
C573 C572 1.327 . S
C573 C577 1.429 . S
C574 C557 1.574 . S
C574 H568 0.949 . S
C574 C578 1.368 . S
C575 C556 1.429 . S
C575 C569 1.429 . S
C575 C576 1.523 . S
C576 C557 1.368 . S
C576 C570 1.368 . S
C576 C575 1.523 . S
C577 C561 1.429 . S
C577 C573 1.429 . S
C577 C578 1.523 . S
C578 C562 1.368 . S
C578 C574 1.368 . S
C578 C577 1.523 . S
H579 C554 0.950 . S
H580 C556 0.950 . S
H581 C557 0.949 . S
H582 C559 0.950 . S
H583 C561 0.950 . S
C584 C585 1.349 . S
C584 C586 1.327 . S
C584 H609 0.950 . S
C585 C584 1.349 . S
C585 C601 1.349 . S
C586 C584 1.327 . S
C586 C605 1.429 . S
C586 H610 0.950 . S
C587 C604 1.574 . S
C587 C606 1.368 . S
C587 H611 0.949 . S
H588 C592 0.949 . S
C589 C590 1.349 . S
C589 C591 1.327 . S
C589 H612 0.950 . S
C590 C589 1.349 . S
C590 C602 1.349 . S
C591 C589 1.327 . S
C591 C607 1.429 . S
C591 H613 0.950 . S
C592 H588 0.949 . S
C592 C600 1.574 . S
C592 C608 1.368 . S
H593 C601 0.950 . S
H594 C599 0.950 . S
H595 C600 0.949 . S
H596 C602 0.950 . S
H597 C603 0.950 . S
H598 C604 0.949 . S
C599 H594 0.950 . S
C599 C601 1.327 . S
C599 C605 1.429 . S
C600 C592 1.574 . S
C600 H595 0.949 . S
C600 C606 1.368 . S
C601 C585 1.349 . S
C601 H593 0.950 . S
C601 C599 1.327 . S
C602 C590 1.349 . S
C602 H596 0.950 . S
C602 C603 1.327 . S
C603 H597 0.950 . S
C603 C602 1.327 . S
C603 C607 1.429 . S
C604 C587 1.574 . S
C604 H598 0.949 . S
C604 C608 1.368 . S
C605 C586 1.429 . S
C605 C599 1.429 . S
C605 C606 1.523 . S
C606 C587 1.368 . S
C606 C600 1.368 . S
C606 C605 1.523 . S
C607 C591 1.429 . S
C607 C603 1.429 . S
C607 C608 1.523 . S
C608 C592 1.368 . S
C608 C604 1.368 . S
C608 C607 1.523 . S
H609 C584 0.950 . S
H610 C586 0.950 . S
H611 C587 0.949 . S
H612 C589 0.950 . S
H613 C591 0.950 . S
C614 C615 1.349 . S
C614 C616 1.327 . S
C614 H639 0.950 . S
C615 C614 1.349 . S
C615 C631 1.349 . S
C616 C614 1.327 . S
C616 C635 1.429 . S
C616 H640 0.950 . S
C617 C634 1.574 . S
C617 C636 1.368 . S
C617 H641 0.949 . S
H618 C622 0.949 . S
C619 C620 1.349 . S
C619 C621 1.327 . S
C619 H642 0.950 . S
C620 C619 1.349 . S
C620 C632 1.349 . S
C621 C619 1.327 . S
C621 C637 1.429 . S
C621 H643 0.950 . S
C622 H618 0.949 . S
C622 C630 1.574 . S
C622 C638 1.368 . S
H623 C631 0.950 . S
H624 C629 0.950 . S
H625 C630 0.949 . S
H626 C632 0.950 . S
H627 C633 0.950 . S
H628 C634 0.949 . S
C629 H624 0.950 . S
C629 C631 1.327 . S
C629 C635 1.429 . S
C630 C622 1.574 . S
C630 H625 0.949 . S
C630 C636 1.368 . S
C631 C615 1.349 . S
C631 H623 0.950 . S
C631 C629 1.327 . S
C632 C620 1.349 . S
C632 H626 0.950 . S
C632 C633 1.327 . S
C633 H627 0.950 . S
C633 C632 1.327 . S
C633 C637 1.429 . S
C634 C617 1.574 . S
C634 H628 0.949 . S
C634 C638 1.368 . S
C635 C616 1.429 . S
C635 C629 1.429 . S
C635 C636 1.523 . S
C636 C617 1.368 . S
C636 C630 1.368 . S
C636 C635 1.523 . S
C637 C621 1.429 . S
C637 C633 1.429 . S
C637 C638 1.523 . S
C638 C622 1.368 . S
C638 C634 1.368 . S
C638 C637 1.523 . S
H639 C614 0.950 . S
H640 C616 0.950 . S
H641 C617 0.949 . S
H642 C619 0.950 . S
H643 C621 0.950 . S
C644 C645 1.349 . S
C644 C646 1.327 . S
C644 H669 0.950 . S
C645 C644 1.349 . S
C645 C661 1.349 . S
C646 C644 1.327 . S
C646 C665 1.429 . S
C646 H670 0.950 . S
C647 C664 1.574 . S
C647 C666 1.368 . S
C647 H671 0.949 . S
H648 C652 0.949 . S
C649 C650 1.349 . S
C649 C651 1.327 . S
C649 H672 0.950 . S
C650 C649 1.349 . S
C650 C662 1.349 . S
C651 C649 1.327 . S
C651 C667 1.429 . S
C651 H673 0.950 . S
C652 H648 0.949 . S
C652 C660 1.574 . S
C652 C668 1.368 . S
H653 C661 0.950 . S
H654 C659 0.950 . S
H655 C660 0.949 . S
H656 C662 0.950 . S
H657 C663 0.950 . S
H658 C664 0.949 . S
C659 H654 0.950 . S
C659 C661 1.327 . S
C659 C665 1.429 . S
C660 C652 1.574 . S
C660 H655 0.949 . S
C660 C666 1.368 . S
C661 C645 1.349 . S
C661 H653 0.950 . S
C661 C659 1.327 . S
C662 C650 1.349 . S
C662 H656 0.950 . S
C662 C663 1.327 . S
C663 H657 0.950 . S
C663 C662 1.327 . S
C663 C667 1.429 . S
C664 C647 1.574 . S
C664 H658 0.949 . S
C664 C668 1.368 . S
C665 C646 1.429 . S
C665 C659 1.429 . S
C665 C666 1.523 . S
C666 C647 1.368 . S
C666 C660 1.368 . S
C666 C665 1.523 . S
C667 C651 1.429 . S
C667 C663 1.429 . S
C667 C668 1.523 . S
C668 C652 1.368 . S
C668 C664 1.368 . S
C668 C667 1.523 . S
H669 C644 0.950 . S
H670 C646 0.950 . S
H671 C647 0.949 . S
H672 C649 0.950 . S
H673 C651 0.950 . S
C674 C675 1.349 . S
C674 C676 1.327 . S
C674 H699 0.950 . S
C675 C674 1.349 . S
C675 C691 1.349 . S
C676 C674 1.327 . S
C676 C695 1.429 . S
C676 H700 0.950 . S
C677 C694 1.574 . S
C677 C696 1.368 . S
C677 H701 0.949 . S
H678 C682 0.949 . S
C679 C680 1.349 . S
C679 C681 1.327 . S
C679 H702 0.950 . S
C680 C679 1.349 . S
C680 C692 1.349 . S
C681 C679 1.327 . S
C681 C697 1.429 . S
C681 H703 0.950 . S
C682 H678 0.949 . S
C682 C690 1.574 . S
C682 C698 1.368 . S
H683 C691 0.950 . S
H684 C689 0.950 . S
H685 C690 0.949 . S
H686 C692 0.950 . S
H687 C693 0.950 . S
H688 C694 0.949 . S
C689 H684 0.950 . S
C689 C691 1.327 . S
C689 C695 1.429 . S
C690 C682 1.574 . S
C690 H685 0.949 . S
C690 C696 1.368 . S
C691 C675 1.349 . S
C691 H683 0.950 . S
C691 C689 1.327 . S
C692 C680 1.349 . S
C692 H686 0.950 . S
C692 C693 1.327 . S
C693 H687 0.950 . S
C693 C692 1.327 . S
C693 C697 1.429 . S
C694 C677 1.574 . S
C694 H688 0.949 . S
C694 C698 1.368 . S
C695 C676 1.429 . S
C695 C689 1.429 . S
C695 C696 1.523 . S
C696 C677 1.368 . S
C696 C690 1.368 . S
C696 C695 1.523 . S
C697 C681 1.429 . S
C697 C693 1.429 . S
C697 C698 1.523 . S
C698 C682 1.368 . S
C698 C694 1.368 . S
C698 C697 1.523 . S
H699 C674 0.950 . S
H700 C676 0.950 . S
H701 C677 0.949 . S
H702 C679 0.950 . S
H703 C681 0.950 . S
C704 C705 1.349 . S
C704 C706 1.327 . S
C704 H729 0.950 . S
C705 C704 1.349 . S
C705 C721 1.349 . S
C706 C704 1.327 . S
C706 C725 1.429 . S
C706 H730 0.950 . S
C707 C724 1.574 . S
C707 C726 1.368 . S
C707 H731 0.949 . S
H708 C712 0.949 . S
C709 C710 1.349 . S
C709 C711 1.327 . S
C709 H732 0.950 . S
C710 C709 1.349 . S
C710 C722 1.349 . S
C711 C709 1.327 . S
C711 C727 1.429 . S
C711 H733 0.950 . S
C712 H708 0.949 . S
C712 C720 1.574 . S
C712 C728 1.368 . S
H713 C721 0.950 . S
H714 C719 0.950 . S
H715 C720 0.949 . S
H716 C722 0.950 . S
H717 C723 0.950 . S
H718 C724 0.949 . S
C719 H714 0.950 . S
C719 C721 1.327 . S
C719 C725 1.429 . S
C720 C712 1.574 . S
C720 H715 0.949 . S
C720 C726 1.368 . S
C721 C705 1.349 . S
C721 H713 0.950 . S
C721 C719 1.327 . S
C722 C710 1.349 . S
C722 H716 0.950 . S
C722 C723 1.327 . S
C723 H717 0.950 . S
C723 C722 1.327 . S
C723 C727 1.429 . S
C724 C707 1.574 . S
C724 H718 0.949 . S
C724 C728 1.368 . S
C725 C706 1.429 . S
C725 C719 1.429 . S
C725 C726 1.523 . S
C726 C707 1.368 . S
C726 C720 1.368 . S
C726 C725 1.523 . S
C727 C711 1.429 . S
C727 C723 1.429 . S
C727 C728 1.523 . S
C728 C712 1.368 . S
C728 C724 1.368 . S
C728 C727 1.523 . S
H729 C704 0.950 . S
H730 C706 0.950 . S
H731 C707 0.949 . S
H732 C709 0.950 . S
H733 C711 0.950 . S
C734 C735 1.349 . S
C734 C736 1.327 . S
C734 H759 0.950 . S
C735 C734 1.349 . S
C735 C751 1.349 . S
C736 C734 1.327 . S
C736 C755 1.429 . S
C736 H760 0.950 . S
C737 C754 1.574 . S
C737 C756 1.368 . S
C737 H761 0.949 . S
H738 C742 0.949 . S
C739 C740 1.349 . S
C739 C741 1.327 . S
C739 H762 0.950 . S
C740 C739 1.349 . S
C740 C752 1.349 . S
C741 C739 1.327 . S
C741 C757 1.429 . S
C741 H763 0.950 . S
C742 H738 0.949 . S
C742 C750 1.574 . S
C742 C758 1.368 . S
H743 C751 0.950 . S
H744 C749 0.950 . S
H745 C750 0.949 . S
H746 C752 0.950 . S
H747 C753 0.950 . S
H748 C754 0.949 . S
C749 H744 0.950 . S
C749 C751 1.327 . S
C749 C755 1.429 . S
C750 C742 1.574 . S
C750 H745 0.949 . S
C750 C756 1.368 . S
C751 C735 1.349 . S
C751 H743 0.950 . S
C751 C749 1.327 . S
C752 C740 1.349 . S
C752 H746 0.950 . S
C752 C753 1.327 . S
C753 H747 0.950 . S
C753 C752 1.327 . S
C753 C757 1.429 . S
C754 C737 1.574 . S
C754 H748 0.949 . S
C754 C758 1.368 . S
C755 C736 1.429 . S
C755 C749 1.429 . S
C755 C756 1.523 . S
C756 C737 1.368 . S
C756 C750 1.368 . S
C756 C755 1.523 . S
C757 C741 1.429 . S
C757 C753 1.429 . S
C757 C758 1.523 . S
C758 C742 1.368 . S
C758 C754 1.368 . S
C758 C757 1.523 . S
H759 C734 0.950 . S
H760 C736 0.950 . S
H761 C737 0.949 . S
H762 C739 0.950 . S
H763 C741 0.950 . S
C764 C765 1.349 . S
C764 C766 1.327 . S
C764 H789 0.950 . S
C765 C764 1.349 . S
C765 C781 1.349 . S
C766 C764 1.327 . S
C766 C785 1.429 . S
C766 H790 0.950 . S
C767 C784 1.574 . S
C767 C786 1.368 . S
C767 H791 0.949 . S
H768 C772 0.949 . S
C769 C770 1.349 . S
C769 C771 1.327 . S
C769 H792 0.950 . S
C770 C769 1.349 . S
C770 C782 1.349 . S
C771 C769 1.327 . S
C771 C787 1.429 . S
C771 H793 0.950 . S
C772 H768 0.949 . S
C772 C780 1.574 . S
C772 C788 1.368 . S
H773 C781 0.950 . S
H774 C779 0.950 . S
H775 C780 0.949 . S
H776 C782 0.950 . S
H777 C783 0.950 . S
H778 C784 0.949 . S
C779 H774 0.950 . S
C779 C781 1.327 . S
C779 C785 1.429 . S
C780 C772 1.574 . S
C780 H775 0.949 . S
C780 C786 1.368 . S
C781 C765 1.349 . S
C781 H773 0.950 . S
C781 C779 1.327 . S
C782 C770 1.349 . S
C782 H776 0.950 . S
C782 C783 1.327 . S
C783 H777 0.950 . S
C783 C782 1.327 . S
C783 C787 1.429 . S
C784 C767 1.574 . S
C784 H778 0.949 . S
C784 C788 1.368 . S
C785 C766 1.429 . S
C785 C779 1.429 . S
C785 C786 1.523 . S
C786 C767 1.368 . S
C786 C780 1.368 . S
C786 C785 1.523 . S
C787 C771 1.429 . S
C787 C783 1.429 . S
C787 C788 1.523 . S
C788 C772 1.368 . S
C788 C784 1.368 . S
C788 C787 1.523 . S
H789 C764 0.950 . S
H790 C766 0.950 . S
H791 C767 0.949 . S
H792 C769 0.950 . S
H793 C771 0.950 . S
C794 C795 1.349 . S
C794 C796 1.327 . S
C794 H819 0.950 . S
C795 C794 1.349 . S
C795 C811 1.349 . S
C796 C794 1.327 . S
C796 C815 1.429 . S
C796 H820 0.950 . S
C797 C814 1.574 . S
C797 C816 1.368 . S
C797 H821 0.949 . S
H798 C802 0.949 . S
C799 C800 1.349 . S
C799 C801 1.327 . S
C799 H822 0.950 . S
C800 C799 1.349 . S
C800 C812 1.349 . S
C801 C799 1.327 . S
C801 C817 1.429 . S
C801 H823 0.950 . S
C802 H798 0.949 . S
C802 C810 1.574 . S
C802 C818 1.368 . S
H803 C811 0.950 . S
H804 C809 0.950 . S
H805 C810 0.949 . S
H806 C812 0.950 . S
H807 C813 0.950 . S
H808 C814 0.949 . S
C809 H804 0.950 . S
C809 C811 1.327 . S
C809 C815 1.429 . S
C810 C802 1.574 . S
C810 H805 0.949 . S
C810 C816 1.368 . S
C811 C795 1.349 . S
C811 H803 0.950 . S
C811 C809 1.327 . S
C812 C800 1.349 . S
C812 H806 0.950 . S
C812 C813 1.327 . S
C813 H807 0.950 . S
C813 C812 1.327 . S
C813 C817 1.429 . S
C814 C797 1.574 . S
C814 H808 0.949 . S
C814 C818 1.368 . S
C815 C796 1.429 . S
C815 C809 1.429 . S
C815 C816 1.523 . S
C816 C797 1.368 . S
C816 C810 1.368 . S
C816 C815 1.523 . S
C817 C801 1.429 . S
C817 C813 1.429 . S
C817 C818 1.523 . S
C818 C802 1.368 . S
C818 C814 1.368 . S
C818 C817 1.523 . S
H819 C794 0.950 . S
H820 C796 0.950 . S
H821 C797 0.949 . S
H822 C799 0.950 . S
H823 C801 0.950 . S
C824 C825 1.349 . S
C824 C826 1.327 . S
C824 H849 0.950 . S
C825 C824 1.349 . S
C825 C841 1.349 . S
C826 C824 1.327 . S
C826 C845 1.429 . S
C826 H850 0.950 . S
C827 C844 1.574 . S
C827 C846 1.368 . S
C827 H851 0.949 . S
H828 C832 0.949 . S
C829 C830 1.349 . S
C829 C831 1.327 . S
C829 H852 0.950 . S
C830 C829 1.349 . S
C830 C842 1.349 . S
C831 C829 1.327 . S
C831 C847 1.429 . S
C831 H853 0.950 . S
C832 H828 0.949 . S
C832 C840 1.574 . S
C832 C848 1.368 . S
H833 C841 0.950 . S
H834 C839 0.950 . S
H835 C840 0.949 . S
H836 C842 0.950 . S
H837 C843 0.950 . S
H838 C844 0.949 . S
C839 H834 0.950 . S
C839 C841 1.327 . S
C839 C845 1.429 . S
C840 C832 1.574 . S
C840 H835 0.949 . S
C840 C846 1.368 . S
C841 C825 1.349 . S
C841 H833 0.950 . S
C841 C839 1.327 . S
C842 C830 1.349 . S
C842 H836 0.950 . S
C842 C843 1.327 . S
C843 H837 0.950 . S
C843 C842 1.327 . S
C843 C847 1.429 . S
C844 C827 1.574 . S
C844 H838 0.949 . S
C844 C848 1.368 . S
C845 C826 1.429 . S
C845 C839 1.429 . S
C845 C846 1.523 . S
C846 C827 1.368 . S
C846 C840 1.368 . S
C846 C845 1.523 . S
C847 C831 1.429 . S
C847 C843 1.429 . S
C847 C848 1.523 . S
C848 C832 1.368 . S
C848 C844 1.368 . S
C848 C847 1.523 . S
H849 C824 0.950 . S
H850 C826 0.950 . S
H851 C827 0.949 . S
H852 C829 0.950 . S
H853 C831 0.950 . S
C854 C855 1.349 . S
C854 C856 1.327 . S
C854 H879 0.950 . S
C855 C854 1.349 . S
C855 C871 1.349 . S
C856 C854 1.327 . S
C856 C875 1.429 . S
C856 H880 0.950 . S
C857 C874 1.574 . S
C857 C876 1.368 . S
C857 H881 0.949 . S
H858 C862 0.949 . S
C859 C860 1.349 . S
C859 C861 1.327 . S
C859 H882 0.950 . S
C860 C859 1.349 . S
C860 C872 1.349 . S
C861 C859 1.327 . S
C861 C877 1.429 . S
C861 H883 0.950 . S
C862 H858 0.949 . S
C862 C870 1.574 . S
C862 C878 1.368 . S
H863 C871 0.950 . S
H864 C869 0.950 . S
H865 C870 0.949 . S
H866 C872 0.950 . S
H867 C873 0.950 . S
H868 C874 0.949 . S
C869 H864 0.950 . S
C869 C871 1.327 . S
C869 C875 1.429 . S
C870 C862 1.574 . S
C870 H865 0.949 . S
C870 C876 1.368 . S
C871 C855 1.349 . S
C871 H863 0.950 . S
C871 C869 1.327 . S
C872 C860 1.349 . S
C872 H866 0.950 . S
C872 C873 1.327 . S
C873 H867 0.950 . S
C873 C872 1.327 . S
C873 C877 1.429 . S
C874 C857 1.574 . S
C874 H868 0.949 . S
C874 C878 1.368 . S
C875 C856 1.429 . S
C875 C869 1.429 . S
C875 C876 1.523 . S
C876 C857 1.368 . S
C876 C870 1.368 . S
C876 C875 1.523 . S
C877 C861 1.429 . S
C877 C873 1.429 . S
C877 C878 1.523 . S
C878 C862 1.368 . S
C878 C874 1.368 . S
C878 C877 1.523 . S
H879 C854 0.950 . S
H880 C856 0.950 . S
H881 C857 0.949 . S
H882 C859 0.950 . S
H883 C861 0.950 . S
C884 C885 1.349 . S
C884 C886 1.327 . S
C884 H909 0.950 . S
C885 C884 1.349 . S
C885 C901 1.349 . S
C886 C884 1.327 . S
C886 C905 1.429 . S
C886 H910 0.950 . S
C887 C904 1.574 . S
C887 C906 1.368 . S
C887 H911 0.949 . S
H888 C892 0.949 . S
C889 C890 1.349 . S
C889 C891 1.327 . S
C889 H912 0.950 . S
C890 C889 1.349 . S
C890 C902 1.349 . S
C891 C889 1.327 . S
C891 C907 1.429 . S
C891 H913 0.950 . S
C892 H888 0.949 . S
C892 C900 1.574 . S
C892 C908 1.368 . S
H893 C901 0.950 . S
H894 C899 0.950 . S
H895 C900 0.949 . S
H896 C902 0.950 . S
H897 C903 0.950 . S
H898 C904 0.949 . S
C899 H894 0.950 . S
C899 C901 1.327 . S
C899 C905 1.429 . S
C900 C892 1.574 . S
C900 H895 0.949 . S
C900 C906 1.368 . S
C901 C885 1.349 . S
C901 H893 0.950 . S
C901 C899 1.327 . S
C902 C890 1.349 . S
C902 H896 0.950 . S
C902 C903 1.327 . S
C903 H897 0.950 . S
C903 C902 1.327 . S
C903 C907 1.429 . S
C904 C887 1.574 . S
C904 H898 0.949 . S
C904 C908 1.368 . S
C905 C886 1.429 . S
C905 C899 1.429 . S
C905 C906 1.523 . S
C906 C887 1.368 . S
C906 C900 1.368 . S
C906 C905 1.523 . S
C907 C891 1.429 . S
C907 C903 1.429 . S
C907 C908 1.523 . S
C908 C892 1.368 . S
C908 C904 1.368 . S
C908 C907 1.523 . S
H909 C884 0.950 . S
H910 C886 0.950 . S
H911 C887 0.949 . S
H912 C889 0.950 . S
H913 C891 0.950 . S
C914 C915 1.349 . S
C914 C916 1.327 . S
C914 H939 0.950 . S
C915 C914 1.349 . S
C915 C931 1.349 . S
C916 C914 1.327 . S
C916 C935 1.429 . S
C916 H940 0.950 . S
C917 C934 1.574 . S
C917 C936 1.368 . S
C917 H941 0.949 . S
H918 C922 0.949 . S
C919 C920 1.349 . S
C919 C921 1.327 . S
C919 H942 0.950 . S
C920 C919 1.349 . S
C920 C932 1.349 . S
C921 C919 1.327 . S
C921 C937 1.429 . S
C921 H943 0.950 . S
C922 H918 0.949 . S
C922 C930 1.574 . S
C922 C938 1.368 . S
H923 C931 0.950 . S
H924 C929 0.950 . S
H925 C930 0.949 . S
H926 C932 0.950 . S
H927 C933 0.950 . S
H928 C934 0.949 . S
C929 H924 0.950 . S
C929 C931 1.327 . S
C929 C935 1.429 . S
C930 C922 1.574 . S
C930 H925 0.949 . S
C930 C936 1.368 . S
C931 C915 1.349 . S
C931 H923 0.950 . S
C931 C929 1.327 . S
C932 C920 1.349 . S
C932 H926 0.950 . S
C932 C933 1.327 . S
C933 H927 0.950 . S
C933 C932 1.327 . S
C933 C937 1.429 . S
C934 C917 1.574 . S
C934 H928 0.949 . S
C934 C938 1.368 . S
C935 C916 1.429 . S
C935 C929 1.429 . S
C935 C936 1.523 . S
C936 C917 1.368 . S
C936 C930 1.368 . S
C936 C935 1.523 . S
C937 C921 1.429 . S
C937 C933 1.429 . S
C937 C938 1.523 . S
C938 C922 1.368 . S
C938 C934 1.368 . S
C938 C937 1.523 . S
H939 C914 0.950 . S
H940 C916 0.950 . S
H941 C917 0.949 . S
H942 C919 0.950 . S
H943 C921 0.950 . S
C944 C945 1.349 . S
C944 C946 1.327 . S
C944 H969 0.950 . S
C945 C944 1.349 . S
C945 C961 1.349 . S
C946 C944 1.327 . S
C946 C965 1.429 . S
C946 H970 0.950 . S
C947 C964 1.574 1_565 S
C947 C966 1.368 1_455 S
C947 H971 0.949 . S
H948 C952 0.949 . S
C949 C950 1.349 . S
C949 C951 1.327 . S
C949 H972 0.950 . S
C950 C949 1.349 . S
C950 C962 1.349 . S
C951 C949 1.327 . S
C951 C967 1.429 . S
C951 H973 0.950 . S
C952 H948 0.949 . S
C952 C960 1.574 1_545 S
C952 C968 1.368 1_655 S
H953 C961 0.950 . S
H954 C959 0.950 . S
H955 C960 0.949 . S
H956 C962 0.950 . S
H957 C963 0.950 . S
H958 C964 0.949 . S
C959 H954 0.950 . S
C959 C961 1.327 . S
C959 C965 1.429 . S
C960 C952 1.574 1_565 S
C960 H955 0.949 . S
C960 C966 1.368 . S
C961 C945 1.349 . S
C961 H953 0.950 . S
C961 C959 1.327 . S
C962 C950 1.349 . S
C962 H956 0.950 . S
C962 C963 1.327 . S
C963 H957 0.950 . S
C963 C962 1.327 . S
C963 C967 1.429 . S
C964 C947 1.574 1_545 S
C964 H958 0.949 . S
C964 C968 1.368 . S
C965 C946 1.429 . S
C965 C959 1.429 . S
C965 C966 1.523 . S
C966 C947 1.368 1_655 S
C966 C960 1.368 . S
C966 C965 1.523 . S
C967 C951 1.429 . S
C967 C963 1.429 . S
C967 C968 1.523 . S
C968 C952 1.368 1_455 S
C968 C964 1.368 . S
C968 C967 1.523 . S
H969 C944 0.950 . S
H970 C946 0.950 . S
H971 C947 0.949 . S
H972 C949 0.950 . S
H973 C951 0.950 . S
C974 C975 1.349 . S
C974 C976 1.327 . S
C974 H999 0.950 . S
C975 C974 1.349 . S
C975 C991 1.349 . S
C976 C974 1.327 . S
C976 C995 1.429 . S
C976 H1000 0.950 . S
C977 C994 1.574 1_655 S
C977 C996 1.368 . S
C977 H1001 0.949 . S
H978 C982 0.949 . S
C979 C980 1.349 . S
C979 C981 1.327 . S
C979 H1002 0.950 . S
C980 C979 1.349 . S
C980 C992 1.349 . S
C981 C979 1.327 . S
C981 C997 1.429 . S
C981 H1003 0.950 . S
C982 H978 0.949 . S
C982 C990 1.574 1_455 S
C982 C998 1.368 . S
H983 C991 0.950 . S
H984 C989 0.950 . S
H985 C990 0.949 . S
H986 C992 0.950 . S
H987 C993 0.950 . S
H988 C994 0.949 . S
C989 H984 0.950 . S
C989 C991 1.327 . S
C989 C995 1.429 . S
C990 C982 1.574 1_655 S
C990 H985 0.949 . S
C990 C996 1.368 1_565 S
C991 C975 1.349 . S
C991 H983 0.950 . S
C991 C989 1.327 . S
C992 C980 1.349 . S
C992 H986 0.950 . S
C992 C993 1.327 . S
C993 H987 0.950 . S
C993 C992 1.327 . S
C993 C997 1.429 . S
C994 C977 1.574 1_455 S
C994 H988 0.949 . S
C994 C998 1.368 1_545 S
C995 C976 1.429 . S
C995 C989 1.429 . S
C995 C996 1.523 . S
C996 C977 1.368 . S
C996 C990 1.368 1_545 S
C996 C995 1.523 . S
C997 C981 1.429 . S
C997 C993 1.429 . S
C997 C998 1.523 . S
C998 C982 1.368 . S
C998 C994 1.368 1_565 S
C998 C997 1.523 . S
H999 C974 0.950 . S
H1000 C976 0.950 . S
H1001 C977 0.949 . S
H1002 C979 0.950 . S
H1003 C981 0.950 . S
C1004 C1005 1.349 . S
C1004 C1006 1.327 . S
C1004 H1029 0.950 . S
C1005 C1004 1.349 . S
C1005 C1021 1.349 . S
C1006 C1004 1.327 . S
C1006 C1025 1.429 . S
C1006 H1030 0.950 . S
C1007 C1024 1.574 . S
C1007 C1026 1.368 1_655 S
C1007 H1031 0.949 . S
H1008 C1012 0.949 . S
C1009 C1010 1.349 . S
C1009 C1011 1.327 . S
C1009 H1032 0.950 . S
C1010 C1009 1.349 . S
C1010 C1022 1.349 . S
C1011 C1009 1.327 . S
C1011 C1027 1.429 . S
C1011 H1033 0.950 . S
C1012 H1008 0.949 . S
C1012 C1020 1.574 . S
C1012 C1028 1.368 1_455 S
H1013 C1021 0.950 . S
H1014 C1019 0.950 . S
H1015 C1020 0.949 . S
H1016 C1022 0.950 . S
H1017 C1023 0.950 . S
H1018 C1024 0.949 . S
C1019 H1014 0.950 . S
C1019 C1021 1.327 . S
C1019 C1025 1.429 . S
C1020 C1012 1.574 . S
C1020 H1015 0.949 . S
C1020 C1026 1.368 . S
C1021 C1005 1.349 . S
C1021 H1013 0.950 . S
C1021 C1019 1.327 . S
C1022 C1010 1.349 . S
C1022 H1016 0.950 . S
C1022 C1023 1.327 . S
C1023 H1017 0.950 . S
C1023 C1022 1.327 . S
C1023 C1027 1.429 . S
C1024 C1007 1.574 . S
C1024 H1018 0.949 . S
C1024 C1028 1.368 . S
C1025 C1006 1.429 . S
C1025 C1019 1.429 . S
C1025 C1026 1.523 . S
C1026 C1007 1.368 1_455 S
C1026 C1020 1.368 . S
C1026 C1025 1.523 . S
C1027 C1011 1.429 . S
C1027 C1023 1.429 . S
C1027 C1028 1.523 . S
C1028 C1012 1.368 1_655 S
C1028 C1024 1.368 . S
C1028 C1027 1.523 . S
H1029 C1004 0.950 . S
H1030 C1006 0.950 . S
H1031 C1007 0.949 . S
H1032 C1009 0.950 . S
H1033 C1011 0.950 . S
C1034 C1035 1.349 . S
C1034 C1036 1.327 . S
C1034 H1059 0.950 . S
C1035 C1034 1.349 . S
C1035 C1051 1.349 . S
C1036 C1034 1.327 . S
C1036 C1055 1.429 . S
C1036 H1060 0.950 . S
C1037 C1054 1.574 . S
C1037 C1056 1.368 1_545 S
C1037 H1061 0.949 . S
H1038 C1042 0.949 . S
C1039 C1040 1.349 . S
C1039 C1041 1.327 . S
C1039 H1062 0.950 . S
C1040 C1039 1.349 . S
C1040 C1052 1.349 . S
C1041 C1039 1.327 . S
C1041 C1057 1.429 . S
C1041 H1063 0.950 . S
C1042 H1038 0.949 . S
C1042 C1050 1.574 . S
C1042 C1058 1.368 1_565 S
H1043 C1051 0.950 . S
H1044 C1049 0.950 . S
H1045 C1050 0.949 . S
H1046 C1052 0.950 . S
H1047 C1053 0.950 . S
H1048 C1054 0.949 . S
C1049 H1044 0.950 . S
C1049 C1051 1.327 . S
C1049 C1055 1.429 . S
C1050 C1042 1.574 . S
C1050 H1045 0.949 . S
C1050 C1056 1.368 . S
C1051 C1035 1.349 . S
C1051 H1043 0.950 . S
C1051 C1049 1.327 . S
C1052 C1040 1.349 . S
C1052 H1046 0.950 . S
C1052 C1053 1.327 . S
C1053 H1047 0.950 . S
C1053 C1052 1.327 . S
C1053 C1057 1.429 . S
C1054 C1037 1.574 . S
C1054 H1048 0.949 . S
C1054 C1058 1.368 . S
C1055 C1036 1.429 . S
C1055 C1049 1.429 . S
C1055 C1056 1.523 . S
C1056 C1037 1.368 1_565 S
C1056 C1050 1.368 . S
C1056 C1055 1.523 . S
C1057 C1041 1.429 . S
C1057 C1053 1.429 . S
C1057 C1058 1.523 . S
C1058 C1042 1.368 1_545 S
C1058 C1054 1.368 . S
C1058 C1057 1.523 . S
H1059 C1034 0.950 . S
H1060 C1036 0.950 . S
H1061 C1037 0.949 . S
H1062 C1039 0.950 . S
H1063 C1041 0.950 . S
C1064 C1065 1.349 . S
C1064 C1066 1.327 . S
C1064 H1089 0.950 . S
C1065 C1064 1.349 . S
C1065 C1081 1.349 . S
C1066 C1064 1.327 . S
C1066 C1085 1.429 . S
C1066 H1090 0.950 . S
C1067 C1084 1.574 . S
C1067 C1086 1.368 . S
C1067 H1091 0.949 . S
H1068 C1072 0.949 . S
C1069 C1070 1.349 . S
C1069 C1071 1.327 . S
C1069 H1092 0.950 . S
C1070 C1069 1.349 . S
C1070 C1082 1.349 . S
C1071 C1069 1.327 . S
C1071 C1087 1.429 . S
C1071 H1093 0.950 . S
C1072 H1068 0.949 . S
C1072 C1080 1.574 . S
C1072 C1088 1.368 . S
H1073 C1081 0.950 . S
H1074 C1079 0.950 . S
H1075 C1080 0.949 . S
H1076 C1082 0.950 . S
H1077 C1083 0.950 . S
H1078 C1084 0.949 . S
C1079 H1074 0.950 . S
C1079 C1081 1.327 . S
C1079 C1085 1.429 . S
C1080 C1072 1.574 . S
C1080 H1075 0.949 . S
C1080 C1086 1.368 . S
C1081 C1065 1.349 . S
C1081 H1073 0.950 . S
C1081 C1079 1.327 . S
C1082 C1070 1.349 . S
C1082 H1076 0.950 . S
C1082 C1083 1.327 . S
C1083 H1077 0.950 . S
C1083 C1082 1.327 . S
C1083 C1087 1.429 . S
C1084 C1067 1.574 . S
C1084 H1078 0.949 . S
C1084 C1088 1.368 . S
C1085 C1066 1.429 . S
C1085 C1079 1.429 . S
C1085 C1086 1.523 . S
C1086 C1067 1.368 . S
C1086 C1080 1.368 . S
C1086 C1085 1.523 . S
C1087 C1071 1.429 . S
C1087 C1083 1.429 . S
C1087 C1088 1.523 . S
C1088 C1072 1.368 . S
C1088 C1084 1.368 . S
C1088 C1087 1.523 . S
H1089 C1064 0.950 . S
H1090 C1066 0.950 . S
H1091 C1067 0.949 . S
H1092 C1069 0.950 . S
H1093 C1071 0.950 . S
C1094 C1095 1.349 . S
C1094 C1096 1.327 . S
C1094 H1119 0.950 . S
C1095 C1094 1.349 . S
C1095 C1111 1.349 . S
C1096 C1094 1.327 . S
C1096 C1115 1.429 . S
C1096 H1120 0.950 . S
C1097 C1114 1.574 . S
C1097 C1116 1.368 . S
C1097 H1121 0.949 . S
H1098 C1102 0.949 . S
C1099 C1100 1.349 . S
C1099 C1101 1.327 . S
C1099 H1122 0.950 . S
C1100 C1099 1.349 . S
C1100 C1112 1.349 . S
C1101 C1099 1.327 . S
C1101 C1117 1.429 . S
C1101 H1123 0.950 . S
C1102 H1098 0.949 . S
C1102 C1110 1.574 . S
C1102 C1118 1.368 . S
H1103 C1111 0.950 . S
H1104 C1109 0.950 . S
H1105 C1110 0.949 . S
H1106 C1112 0.950 . S
H1107 C1113 0.950 . S
H1108 C1114 0.949 . S
C1109 H1104 0.950 . S
C1109 C1111 1.327 . S
C1109 C1115 1.429 . S
C1110 C1102 1.574 . S
C1110 H1105 0.949 . S
C1110 C1116 1.368 . S
C1111 C1095 1.349 . S
C1111 H1103 0.950 . S
C1111 C1109 1.327 . S
C1112 C1100 1.349 . S
C1112 H1106 0.950 . S
C1112 C1113 1.327 . S
C1113 H1107 0.950 . S
C1113 C1112 1.327 . S
C1113 C1117 1.429 . S
C1114 C1097 1.574 . S
C1114 H1108 0.949 . S
C1114 C1118 1.368 . S
C1115 C1096 1.429 . S
C1115 C1109 1.429 . S
C1115 C1116 1.523 . S
C1116 C1097 1.368 . S
C1116 C1110 1.368 . S
C1116 C1115 1.523 . S
C1117 C1101 1.429 . S
C1117 C1113 1.429 . S
C1117 C1118 1.523 . S
C1118 C1102 1.368 . S
C1118 C1114 1.368 . S
C1118 C1117 1.523 . S
H1119 C1094 0.950 . S
H1120 C1096 0.950 . S
H1121 C1097 0.949 . S
H1122 C1099 0.950 . S
H1123 C1101 0.950 . S
C1124 C1125 1.349 . S
C1124 C1126 1.327 . S
C1124 H1149 0.950 . S
C1125 C1124 1.349 . S
C1125 C1141 1.349 . S
C1126 C1124 1.327 . S
C1126 C1145 1.429 . S
C1126 H1150 0.950 . S
C1127 C1144 1.574 1_545 S
C1127 C1146 1.368 . S
C1127 H1151 0.949 . S
H1128 C1132 0.949 . S
C1129 C1130 1.349 . S
C1129 C1131 1.327 . S
C1129 H1152 0.950 . S
C1130 C1129 1.349 . S
C1130 C1142 1.349 . S
C1131 C1129 1.327 . S
C1131 C1147 1.429 . S
C1131 H1153 0.950 . S
C1132 H1128 0.949 . S
C1132 C1140 1.574 1_565 S
C1132 C1148 1.368 . S
H1133 C1141 0.950 . S
H1134 C1139 0.950 . S
H1135 C1140 0.949 . S
H1136 C1142 0.950 . S
H1137 C1143 0.950 . S
H1138 C1144 0.949 . S
C1139 H1134 0.950 . S
C1139 C1141 1.327 . S
C1139 C1145 1.429 . S
C1140 C1132 1.574 1_545 S
C1140 H1135 0.949 . S
C1140 C1146 1.368 . S
C1141 C1125 1.349 . S
C1141 H1133 0.950 . S
C1141 C1139 1.327 . S
C1142 C1130 1.349 . S
C1142 H1136 0.950 . S
C1142 C1143 1.327 . S
C1143 H1137 0.950 . S
C1143 C1142 1.327 . S
C1143 C1147 1.429 . S
C1144 C1127 1.574 1_565 S
C1144 H1138 0.949 . S
C1144 C1148 1.368 . S
C1145 C1126 1.429 . S
C1145 C1139 1.429 . S
C1145 C1146 1.523 . S
C1146 C1127 1.368 . S
C1146 C1140 1.368 . S
C1146 C1145 1.523 . S
C1147 C1131 1.429 . S
C1147 C1143 1.429 . S
C1147 C1148 1.523 . S
C1148 C1132 1.368 . S
C1148 C1144 1.368 . S
C1148 C1147 1.523 . S
H1149 C1124 0.950 . S
H1150 C1126 0.950 . S
H1151 C1127 0.949 . S
H1152 C1129 0.950 . S
H1153 C1131 0.950 . S
C1154 C1155 1.349 . S
C1154 C1156 1.327 . S
C1154 H1179 0.950 . S
C1155 C1154 1.349 . S
C1155 C1171 1.349 . S
C1156 C1154 1.327 . S
C1156 C1175 1.429 . S
C1156 H1180 0.950 . S
C1157 C1174 1.574 1_655 S
C1157 C1176 1.368 . S
C1157 H1181 0.949 . S
H1158 C1162 0.949 . S
C1159 C1160 1.349 . S
C1159 C1161 1.327 . S
C1159 H1182 0.950 . S
C1160 C1159 1.349 . S
C1160 C1172 1.349 . S
C1161 C1159 1.327 . S
C1161 C1177 1.429 . S
C1161 H1183 0.950 . S
C1162 H1158 0.949 . S
C1162 C1170 1.574 1_455 S
C1162 C1178 1.368 . S
H1163 C1171 0.950 . S
H1164 C1169 0.950 . S
H1165 C1170 0.949 . S
H1166 C1172 0.950 . S
H1167 C1173 0.950 . S
H1168 C1174 0.949 . S
C1169 H1164 0.950 . S
C1169 C1171 1.327 . S
C1169 C1175 1.429 . S
C1170 C1162 1.574 1_655 S
C1170 H1165 0.949 . S
C1170 C1176 1.368 . S
C1171 C1155 1.349 . S
C1171 H1163 0.950 . S
C1171 C1169 1.327 . S
C1172 C1160 1.349 . S
C1172 H1166 0.950 . S
C1172 C1173 1.327 . S
C1173 H1167 0.950 . S
C1173 C1172 1.327 . S
C1173 C1177 1.429 . S
C1174 C1157 1.574 1_455 S
C1174 H1168 0.949 . S
C1174 C1178 1.368 . S
C1175 C1156 1.429 . S
C1175 C1169 1.429 . S
C1175 C1176 1.523 . S
C1176 C1157 1.368 . S
C1176 C1170 1.368 . S
C1176 C1175 1.523 . S
C1177 C1161 1.429 . S
C1177 C1173 1.429 . S
C1177 C1178 1.523 . S
C1178 C1162 1.368 . S
C1178 C1174 1.368 . S
C1178 C1177 1.523 . S
H1179 C1154 0.950 . S
H1180 C1156 0.950 . S
H1181 C1157 0.949 . S
H1182 C1159 0.950 . S
H1183 C1161 0.950 . S
C225 C8 1.233 . S
C230 C163 1.260 . S
C255 C121 1.260 . S
C260 C22 1.233 . S
C285 C135 1.260 . S
C290 C36 1.233 . S
C315 C149 1.260 . S
C320 C50 1.233 . S
C345 C79 1.260 . S
C350 C64 1.233 . S
C375 C78 1.233 . S
C380 C93 1.260 . S
C405 C92 1.233 . S
C410 C107 1.260 . S
C435 C106 1.233 . S
C440 C65 1.260 . S
C465 C120 1.233 . S
C470 C51 1.260 . S
C495 C9 1.260 . S
C500 C134 1.233 . S
C525 C23 1.260 . S
C530 C148 1.233 . S
C555 C37 1.260 . S
C560 C162 1.233 . S
C585 C191 1.260 . S
C590 C176 1.233 . S
C615 C190 1.233 . S
C620 C205 1.260 . S
C645 C219 1.260 . S
C650 C204 1.233 . S
C675 C177 1.260 . S
C680 C218 1.233 . S
C705 C202 1.471 . S
C710 C6 1.471 . S
C735 C216 1.471 . S
C740 C20 1.471 . S
C765 C174 1.471 . S
C770 C34 1.471 . S
C795 C48 1.471 . S
C800 C188 1.471 . S
C825 C62 1.471 . S
C830 C146 1.471 . S
C855 C160 1.471 . S
C860 C76 1.471 . S
C885 C90 1.471 . S
C890 C118 1.471 . S
C915 C104 1.471 . S
C920 C132 1.471 . S
C945 C35 1.338 . S
C950 C7 1.338 . S
C975 C49 1.338 . S
C980 C21 1.338 . S
C1005 C63 1.338 . S
C1010 C91 1.338 . S
C1035 C77 1.338 . S
C1040 C105 1.338 . S
C1065 C147 1.338 . S
C1070 C119 1.338 . S
C1095 C133 1.338 . S
C1100 C161 1.338 . S
C1125 C203 1.338 . S
C1130 C175 1.338 . S
C1155 C189 1.338 . S
C1160 C217 1.338 . S
