# Generated by pormake.
# Topology whh, (6)-cn, num edge types: 1
# Building blocks:
#     Node 0, Type 0, BuildingBlock: MIFKUJ_clean_sbu_0, # of connection points: 6
#     Node 1, Type 0, BuildingBlock: MIFKUJ_clean_sbu_0, # of connection points: 6
#     Node 2, Type 0, BuildingBlock: MIFKUJ_clean_sbu_0, # of connection points: 6
#     Node 3, Type 0, BuildingBlock: MIFKUJ_clean_sbu_0, # of connection points: 6
#     Node 4, Type 0, BuildingBlock: MIFKUJ_clean_sbu_0, # of connection points: 6
#     Node 5, Type 0, BuildingBlock: MIFKUJ_clean_sbu_0, # of connection points: 6
#     Node 6, Type 0, BuildingBlock: MIFKUJ_clean_sbu_0, # of connection points: 6
#     Node 7, Type 0, BuildingBlock: MIFKUJ_clean_sbu_0, # of connection points: 6
#     Node 8, Type 0, BuildingBlock: MIFKUJ_clean_sbu_0, # of connection points: 6
#     Node 9, Type 0, BuildingBlock: MIFKUJ_clean_sbu_0, # of connection points: 6
#     Node 10, Type 0, BuildingBlock: MIFKUJ_clean_sbu_0, # of connection points: 6
#     Node 11, Type 0, BuildingBlock: MIFKUJ_clean_sbu_0, # of connection points: 6
#     Node 12, Type 0, BuildingBlock: MIFKUJ_clean_sbu_0, # of connection points: 6
#     Node 13, Type 0, BuildingBlock: MIFKUJ_clean_sbu_0, # of connection points: 6
#     Node 14, Type 0, BuildingBlock: MIFKUJ_clean_sbu_0, # of connection points: 6
#     Node 15, Type 0, BuildingBlock: MIFKUJ_clean_sbu_0, # of connection points: 6
#     Edge 16, Type (0, 0), BuildingBlock: KIFKEQ_clean_linker_1, # of connection points: 2
#     Edge 17, Type (0, 0), BuildingBlock: KIFKEQ_clean_linker_1, # of connection points: 2
#     Edge 18, Type (0, 0), BuildingBlock: KIFKEQ_clean_linker_1, # of connection points: 2
#     Edge 19, Type (0, 0), BuildingBlock: KIFKEQ_clean_linker_1, # of connection points: 2
#     Edge 20, Type (0, 0), BuildingBlock: KIFKEQ_clean_linker_1, # of connection points: 2
#     Edge 21, Type (0, 0), BuildingBlock: KIFKEQ_clean_linker_1, # of connection points: 2
#     Edge 22, Type (0, 0), BuildingBlock: KIFKEQ_clean_linker_1, # of connection points: 2
#     Edge 23, Type (0, 0), BuildingBlock: KIFKEQ_clean_linker_1, # of connection points: 2
#     Edge 24, Type (0, 0), BuildingBlock: KIFKEQ_clean_linker_1, # of connection points: 2
#     Edge 25, Type (0, 0), BuildingBlock: KIFKEQ_clean_linker_1, # of connection points: 2
#     Edge 26, Type (0, 0), BuildingBlock: KIFKEQ_clean_linker_1, # of connection points: 2
#     Edge 27, Type (0, 0), BuildingBlock: KIFKEQ_clean_linker_1, # of connection points: 2
#     Edge 28, Type (0, 0), BuildingBlock: KIFKEQ_clean_linker_1, # of connection points: 2
#     Edge 29, Type (0, 0), BuildingBlock: KIFKEQ_clean_linker_1, # of connection points: 2
#     Edge 30, Type (0, 0), BuildingBlock: KIFKEQ_clean_linker_1, # of connection points: 2
#     Edge 31, Type (0, 0), BuildingBlock: KIFKEQ_clean_linker_1, # of connection points: 2
#     Edge 32, Type (0, 0), BuildingBlock: KIFKEQ_clean_linker_1, # of connection points: 2
#     Edge 33, Type (0, 0), BuildingBlock: KIFKEQ_clean_linker_1, # of connection points: 2
#     Edge 34, Type (0, 0), BuildingBlock: KIFKEQ_clean_linker_1, # of connection points: 2
#     Edge 35, Type (0, 0), BuildingBlock: KIFKEQ_clean_linker_1, # of connection points: 2
#     Edge 36, Type (0, 0), BuildingBlock: KIFKEQ_clean_linker_1, # of connection points: 2
#     Edge 37, Type (0, 0), BuildingBlock: KIFKEQ_clean_linker_1, # of connection points: 2
#     Edge 38, Type (0, 0), BuildingBlock: KIFKEQ_clean_linker_1, # of connection points: 2
#     Edge 39, Type (0, 0), BuildingBlock: KIFKEQ_clean_linker_1, # of connection points: 2
#     Edge 40, Type (0, 0), BuildingBlock: KIFKEQ_clean_linker_1, # of connection points: 2
#     Edge 41, Type (0, 0), BuildingBlock: KIFKEQ_clean_linker_1, # of connection points: 2
#     Edge 42, Type (0, 0), BuildingBlock: KIFKEQ_clean_linker_1, # of connection points: 2
#     Edge 43, Type (0, 0), BuildingBlock: KIFKEQ_clean_linker_1, # of connection points: 2
#     Edge 44, Type (0, 0), BuildingBlock: KIFKEQ_clean_linker_1, # of connection points: 2
#     Edge 45, Type (0, 0), BuildingBlock: KIFKEQ_clean_linker_1, # of connection points: 2
#     Edge 46, Type (0, 0), BuildingBlock: KIFKEQ_clean_linker_1, # of connection points: 2
#     Edge 47, Type (0, 0), BuildingBlock: KIFKEQ_clean_linker_1, # of connection points: 2
#     Edge 48, Type (0, 0), BuildingBlock: KIFKEQ_clean_linker_1, # of connection points: 2
#     Edge 49, Type (0, 0), BuildingBlock: KIFKEQ_clean_linker_1, # of connection points: 2
#     Edge 50, Type (0, 0), BuildingBlock: KIFKEQ_clean_linker_1, # of connection points: 2
#     Edge 51, Type (0, 0), BuildingBlock: KIFKEQ_clean_linker_1, # of connection points: 2
#     Edge 52, Type (0, 0), BuildingBlock: KIFKEQ_clean_linker_1, # of connection points: 2
#     Edge 53, Type (0, 0), BuildingBlock: KIFKEQ_clean_linker_1, # of connection points: 2
#     Edge 54, Type (0, 0), BuildingBlock: KIFKEQ_clean_linker_1, # of connection points: 2
#     Edge 55, Type (0, 0), BuildingBlock: KIFKEQ_clean_linker_1, # of connection points: 2
#     Edge 56, Type (0, 0), BuildingBlock: KIFKEQ_clean_linker_1, # of connection points: 2
#     Edge 57, Type (0, 0), BuildingBlock: KIFKEQ_clean_linker_1, # of connection points: 2
#     Edge 58, Type (0, 0), BuildingBlock: KIFKEQ_clean_linker_1, # of connection points: 2
#     Edge 59, Type (0, 0), BuildingBlock: KIFKEQ_clean_linker_1, # of connection points: 2
#     Edge 60, Type (0, 0), BuildingBlock: KIFKEQ_clean_linker_1, # of connection points: 2
#     Edge 61, Type (0, 0), BuildingBlock: KIFKEQ_clean_linker_1, # of connection points: 2
#     Edge 62, Type (0, 0), BuildingBlock: KIFKEQ_clean_linker_1, # of connection points: 2
#     Edge 63, Type (0, 0), BuildingBlock: KIFKEQ_clean_linker_1, # of connection points: 2
# Relax obj value: 0.479
# Max RMSD: 0.311
# Mean RMSD: 0.291
data_MOF--net-whh--node1-MIFKUJ_clean_sbu_0--edge1-KIFKEQ_clean_linker_1
_symmetry_space_group_name_H-M    P1
_symmetry_Int_Tables_number       1
_symmetry_cell_setting            triclinic
loop_
_symmetry_equiv_pos_as_xyz
'x, y, z'
_cell_length_a     37.729985
_cell_length_b     37.608077
_cell_length_c     43.376343
_cell_angle_alpha  92.618273
_cell_angle_beta   86.068126
_cell_angle_gamma 89.83686
loop_
_atom_site_label
_atom_site_type_symbol
_atom_site_fract_x
_atom_site_fract_y
_atom_site_fract_z
_atom_type_partial_charge
Zn0 Zn 0.08817 0.62654 0.11355 0.0
Zn1 Zn 0.01665 0.59159 0.12522 0.0
C2 C 0.04909 0.68044 0.07953 0.0
O3 O 0.06672 0.66983 0.05356 0.0
C4 C 0.04842 0.52017 0.13283 0.0
O5 O 0.03003 0.50831 0.10993 0.0
O6 O 0.13765 0.6468 0.10775 0.0
O7 O 0.07728 0.62131 0.15949 0.0
O8 O 0.02036 0.63244 0.15559 0.0
C9 C 0.14224 0.67842 0.11843 0.0
O10 O 0.11513 0.6957 0.13275 0.0
O11 O 0.05474 0.66567 0.10445 0.0
C12 C 0.95603 0.55316 0.1059 0.0
O13 O 0.97802 0.54639 0.08156 0.0
O14 O 0.96629 0.57291 0.12814 0.0
O15 O 0.0282 0.60253 0.08109 0.0
O16 O 0.08271 0.58394 0.0834 0.0
O17 O 0.04765 0.5532 0.14051 0.0
C18 C 0.04788 0.63465 0.17094 0.0
C19 C 0.05493 0.58582 0.06856 0.0
Zn20 Zn 0.86768 0.04794 0.14414 0.0
Zn21 Zn 0.88961 0.97077 0.14114 0.0
C22 C 0.81353 0.02457 0.09969 0.0
O23 O 0.8254 0.04875 0.0807 0.0
C24 C 0.96092 0.97279 0.16516 0.0
O25 O 0.96993 0.9498 0.14226 0.0
O26 O 0.85304 0.09989 0.14555 0.0
O27 O 0.86556 0.03036 0.18756 0.0
O28 O 0.84643 0.97813 0.17047 0.0
C29 C 0.82022 0.10814 0.14911 0.0
O30 O 0.79672 0.08292 0.15381 0.0
O31 O 0.82798 0.02097 0.12493 0.0
C32 C 0.91566 0.90974 0.10541 0.0
O33 O 0.92776 0.93512 0.08788 0.0
O34 O 0.89737 0.9181 0.13049 0.0
O35 O 0.88948 0.99339 0.10005 0.0
O36 O 0.91385 0.04216 0.11723 0.0
O37 O 0.93013 0.9869 0.16676 0.0
C38 C 0.84666 0.00269 0.1917 0.0
C39 C 0.91116 0.01851 0.09574 0.0
Zn40 Zn 0.439 0.84426 0.0971 0.0
Zn41 Zn 0.51298 0.87261 0.10422 0.0
C42 C 0.46236 0.78035 0.05874 0.0
O43 O 0.43075 0.7804 0.04779 0.0
C44 C 0.47947 0.94328 0.12816 0.0
O45 O 0.48376 0.95642 0.10065 0.0
O46 O 0.38872 0.82575 0.09624 0.0
O47 O 0.45104 0.84403 0.14212 0.0
O48 O 0.50613 0.82804 0.12793 0.0
C49 C 0.38275 0.79618 0.10874 0.0
O50 O 0.40888 0.78031 0.12133 0.0
O51 O 0.47105 0.80586 0.07682 0.0
C52 C 0.57388 0.91255 0.08738 0.0
O53 O 0.54899 0.9311 0.07568 0.0
O54 O 0.56517 0.88469 0.10157 0.0
O55 O 0.49885 0.87318 0.06033 0.0
O56 O 0.44432 0.89003 0.07357 0.0
O57 O 0.48886 0.91137 0.13209 0.0
C58 C 0.47918 0.82698 0.14721 0.0
C59 C 0.47217 0.89216 0.0555 0.0
Zn60 Zn 0.63459 0.49443 0.088 0.0
Zn61 Zn 0.69599 0.42337 0.13348 0.0
C62 C 0.60894 0.492 0.03024 0.0
O63 O 0.63242 0.5177 0.02838 0.0
C64 C 0.72612 0.47127 0.17877 0.0
O65 O 0.69322 0.48269 0.18385 0.0
O66 O 0.6136 0.54366 0.09303 0.0
O67 O 0.62583 0.46855 0.12865 0.0
O68 O 0.64907 0.42928 0.15838 0.0
C69 C 0.58015 0.54709 0.0922 0.0
O70 O 0.56027 0.51846 0.09232 0.0
O71 O 0.60854 0.47242 0.0534 0.0
C72 C 0.74103 0.36158 0.1241 0.0
O73 O 0.76575 0.38609 0.12343 0.0
O74 O 0.70853 0.37109 0.12685 0.0
O75 O 0.68833 0.44883 0.09579 0.0
O76 O 0.68655 0.50041 0.07614 0.0
O77 O 0.73345 0.44715 0.15782 0.0
C78 C 0.62393 0.45047 0.15296 0.0
C79 C 0.70484 0.47597 0.08639 0.0
Zn80 Zn 0.07033 0.82004 0.41447 0.0
Zn81 Zn 0.99099 0.84282 0.40347 0.0
C82 C 0.05778 0.75986 0.45416 0.0
O83 O 0.08817 0.76899 0.46524 0.0
C84 C 0.03339 0.89729 0.36348 0.0
O85 O 0.06479 0.88853 0.37215 0.0
O86 O 0.12267 0.80838 0.4141 0.0
O87 O 0.05865 0.81441 0.36991 0.0
O88 O 0.00421 0.79603 0.38152 0.0
C89 C 0.13215 0.77848 0.40114 0.0
O90 O 0.10791 0.75804 0.38922 0.0
O91 O 0.04414 0.7798 0.43519 0.0
C92 C 0.92956 0.88102 0.41658 0.0
O93 O 0.95521 0.90269 0.42392 0.0
O94 O 0.9377 0.8495 0.40659 0.0
O95 O 0.00509 0.85142 0.44705 0.0
O96 O 0.06 0.86789 0.43668 0.0
O97 O 0.00568 0.88183 0.37443 0.0
C98 C 0.03258 0.79452 0.36389 0.0
C99 C 0.03049 0.87229 0.4523 0.0
Zn100 Zn 0.65497 0.07142 0.39847 0.0
Zn101 Zn 0.56798 0.01743 0.36916 0.0
C102 C 0.69548 0.00588 0.40333 0.0
O103 O 0.66426 0.99045 0.40542 0.0
C104 C 0.53527 0.05195 0.32061 0.0
O105 O 0.56542 0.06939 0.31916 0.0
O106 O 0.67318 0.12168 0.39975 0.0
O107 O 0.63188 0.05845 0.35893 0.0
O108 O 0.61316 0.00676 0.34196 0.0
C109 C 0.67063 0.14268 0.37786 0.0
O110 O 0.65241 0.13278 0.35422 0.0
O111 O 0.69723 0.03935 0.40063 0.0
C112 C 0.52372 0.9617 0.39503 0.0
O113 O 0.498 0.98047 0.38467 0.0
O114 O 0.55548 0.97276 0.39154 0.0
O115 O 0.58114 0.05761 0.39834 0.0
O116 O 0.61872 0.06152 0.43424 0.0
O117 O 0.52953 0.02997 0.34174 0.0
C118 C 0.63821 0.02921 0.34377 0.0
C119 C 0.58796 0.05307 0.42608 0.0
Zn120 Zn 0.44834 0.65083 0.38664 0.0
Zn121 Zn 0.5286 0.62994 0.37152 0.0
C122 C 0.4613 0.71086 0.42945 0.0
O123 O 0.43098 0.70165 0.44351 0.0
C124 C 0.49609 0.56974 0.33187 0.0
O125 O 0.46338 0.58166 0.33688 0.0
O126 O 0.39624 0.66365 0.39249 0.0
O127 O 0.46099 0.6545 0.34088 0.0
O128 O 0.51535 0.67293 0.34791 0.0
C129 C 0.38715 0.69364 0.38298 0.0
O130 O 0.41167 0.71388 0.36993 0.0
O131 O 0.47452 0.69145 0.40676 0.0
C132 C 0.5903 0.59902 0.38636 0.0
O133 O 0.56532 0.57571 0.39273 0.0
O134 O 0.58176 0.62821 0.37499 0.0
O135 O 0.50986 0.62374 0.41582 0.0
O136 O 0.4567 0.60429 0.40726 0.0
O137 O 0.5215 0.58588 0.34418 0.0
C138 C 0.48787 0.67292 0.3324 0.0
C139 C 0.48435 0.60287 0.42229 0.0
Zn140 Zn 0.86682 0.4196 0.38528 0.0
Zn141 Zn 0.96892 0.45348 0.36512 0.0
C142 C 0.82149 0.47961 0.40825 0.0
O143 O 0.83413 0.4739 0.43507 0.0
C144 C 0.0068 0.41012 0.31928 0.0
O145 O 0.97588 0.39404 0.3202 0.0
O146 O 0.83913 0.37397 0.38656 0.0
O147 O 0.90111 0.42231 0.34758 0.0
O148 O 0.93415 0.46762 0.33424 0.0
C149 C 0.83654 0.35213 0.36362 0.0
O150 O 0.85428 0.35801 0.33723 0.0
O151 O 0.83191 0.46008 0.3847 0.0
C152 C 0.01027 0.50858 0.39636 0.0
O153 O 0.038 0.48945 0.3857 0.0
O154 O 0.97935 0.49811 0.39051 0.0
O155 O 0.94224 0.41797 0.391 0.0
O156 O 0.89556 0.42569 0.42305 0.0
O157 O 0.01196 0.43439 0.3398 0.0
C158 C 0.90533 0.45038 0.33248 0.0
C159 C 0.92915 0.42647 0.41805 0.0
Zn160 Zn 0.98074 0.4121 0.86521 0.0
Zn161 Zn 0.90947 0.37021 0.88349 0.0
C162 C 0.92028 0.46361 0.85163 0.0
O163 O 0.89495 0.44168 0.86046 0.0
C164 C 0.94634 0.31351 0.91515 0.0
O165 O 0.92792 0.32381 0.94082 0.0
O166 O 0.03014 0.43002 0.86914 0.0
O167 O 0.97082 0.39078 0.90558 0.0
O168 O 0.91797 0.41208 0.91447 0.0
C169 C 0.0318 0.4589 0.88551 0.0
O170 O 0.00225 0.47594 0.8947 0.0
O171 O 0.95262 0.45519 0.85405 0.0
C172 C 0.85322 0.32103 0.88079 0.0
O173 O 0.87882 0.30279 0.86517 0.0
O174 O 0.8597 0.35221 0.89148 0.0
O175 O 0.91772 0.3749 0.83679 0.0
O176 O 0.97667 0.37601 0.83112 0.0
O177 O 0.94205 0.32929 0.89043 0.0
C178 C 0.94928 0.40927 0.92293 0.0
C179 C 0.94684 0.36788 0.8208 0.0
Zn180 Zn 0.10508 0.02013 0.85856 0.0
Zn181 Zn 0.13136 0.94216 0.86646 0.0
C182 C 0.04878 0.98136 0.82195 0.0
O183 O 0.06234 0.94991 0.82612 0.0
C184 C 0.18963 0.96591 0.90388 0.0
O185 O 0.18769 0.93421 0.91538 0.0
O186 O 0.09974 0.07302 0.867 0.0
O187 O 0.10302 0.00291 0.90156 0.0
O188 O 0.08444 0.94879 0.89236 0.0
C189 C 0.07079 0.0796 0.88312 0.0
O190 O 0.05004 0.05289 0.89058 0.0
O191 O 0.0621 0.00913 0.83424 0.0
C192 C 0.17819 0.88173 0.85603 0.0
O193 O 0.19642 0.90452 0.83928 0.0
O194 O 0.1487 0.89161 0.86981 0.0
O195 O 0.13449 0.95256 0.82104 0.0
O196 O 0.14853 0.00877 0.83055 0.0
O197 O 0.16809 0.97438 0.88419 0.0
C198 C 0.0835 0.97717 0.90943 0.0
C199 C 0.15096 0.98058 0.81312 0.0
Zn200 Zn 0.48007 0.1297 0.88313 0.0
Zn201 Zn 0.55501 0.16185 0.89537 0.0
C202 C 0.52627 0.07334 0.84775 0.0
O203 O 0.55454 0.09302 0.85104 0.0
C204 C 0.52178 0.21927 0.93662 0.0
O205 O 0.55147 0.22019 0.95079 0.0
O206 O 0.42693 0.12312 0.88844 0.0
O207 O 0.49605 0.1293 0.92687 0.0
O208 O 0.55047 0.11295 0.91313 0.0
C209 C 0.41773 0.09842 0.90639 0.0
O210 O 0.44243 0.08084 0.91931 0.0
O211 O 0.49608 0.08433 0.85926 0.0
C212 C 0.60897 0.21351 0.89374 0.0
O213 O 0.58326 0.23081 0.88183 0.0
O214 O 0.60322 0.18209 0.90248 0.0
O215 O 0.5495 0.16618 0.84991 0.0
O216 O 0.49108 0.17176 0.8557 0.0
O217 O 0.51803 0.19598 0.915 0.0
C218 C 0.52214 0.10884 0.93003 0.0
C219 C 0.52062 0.17851 0.84108 0.0
Zn220 Zn 0.30873 0.56771 0.87298 0.0
Zn221 Zn 0.33766 0.49244 0.89102 0.0
C222 C 0.28164 0.55887 0.81473 0.0
O223 O 0.30718 0.58194 0.80941 0.0
C224 C 0.37186 0.51698 0.94254 0.0
O225 O 0.3475 0.49643 0.95543 0.0
O226 O 0.30008 0.62112 0.87194 0.0
O227 O 0.28692 0.55379 0.91517 0.0
O228 O 0.28824 0.49557 0.90738 0.0
C229 C 0.26739 0.62986 0.87248 0.0
O230 O 0.24344 0.60461 0.87393 0.0
O231 O 0.27703 0.54675 0.84155 0.0
C232 C 0.38919 0.43938 0.89643 0.0
O233 O 0.40917 0.46549 0.88623 0.0
O234 O 0.35566 0.44359 0.899 0.0
O235 O 0.34449 0.49919 0.84609 0.0
O236 O 0.35927 0.55509 0.85476 0.0
O237 O 0.36957 0.52446 0.9145 0.0
C238 C 0.27356 0.52334 0.92002 0.0
C239 C 0.3618 0.52639 0.8379 0.0
Zn240 Zn 0.0051 0.13945 0.59875 0.0
Zn241 Zn 0.92349 0.16666 0.5855 0.0
C242 C 0.96667 0.08653 0.63899 0.0
O243 O 0.9372 0.10465 0.63704 0.0
C244 C 0.94213 0.22264 0.54302 0.0
O245 O 0.91156 0.21473 0.53172 0.0
O246 O 0.05812 0.13723 0.59082 0.0
O247 O 0.98604 0.13386 0.55682 0.0
O248 O 0.93266 0.11584 0.57003 0.0
C249 C 0.07703 0.13036 0.61297 0.0
O250 O 0.06187 0.13022 0.64116 0.0
O251 O 0.99502 0.09609 0.62413 0.0
C252 C 0.86374 0.21166 0.59167 0.0
O253 O 0.88847 0.23234 0.6025 0.0
O254 O 0.8721 0.18011 0.58195 0.0
O255 O 0.93194 0.17686 0.63002 0.0
O256 O 0.99048 0.18338 0.62549 0.0
O257 O 0.95396 0.20303 0.56316 0.0
C258 C 0.96238 0.11024 0.55516 0.0
C259 C 0.96025 0.19071 0.63931 0.0
Zn260 Zn 0.42012 0.99006 0.62717 0.0
Zn261 Zn 0.34276 0.9248 0.59872 0.0
C262 C 0.46276 0.94997 0.6669 0.0
O263 O 0.43545 0.92838 0.66827 0.0
C264 C 0.28447 0.96542 0.57672 0.0
O265 O 0.27914 0.93651 0.55953 0.0
O266 O 0.42841 0.03831 0.61002 0.0
O267 O 0.40478 0.95637 0.59477 0.0
O268 O 0.3811 0.92098 0.56188 0.0
C269 C 0.42832 0.06511 0.62894 0.0
O270 O 0.42217 0.06023 0.65863 0.0
O271 O 0.46273 0.97567 0.64888 0.0
C272 C 0.32098 0.85504 0.61853 0.0
O273 O 0.35125 0.85564 0.63181 0.0
O274 O 0.31273 0.88102 0.60268 0.0
O275 O 0.36581 0.93705 0.63905 0.0
O276 O 0.37704 0.99111 0.65719 0.0
O277 O 0.31036 0.96631 0.59392 0.0
C278 C 0.40719 0.94049 0.56855 0.0
C279 C 0.35621 0.96452 0.65586 0.0
Zn280 Zn 0.49549 0.40713 0.63364 0.0
Zn281 Zn 0.55918 0.36217 0.60941 0.0
C282 C 0.54054 0.46636 0.66105 0.0
O283 O 0.57027 0.48448 0.65932 0.0
C284 C 0.52806 0.30161 0.5762 0.0
O285 O 0.55667 0.30298 0.55725 0.0
O286 O 0.4491 0.43322 0.64155 0.0
O287 O 0.49637 0.39695 0.58755 0.0
O288 O 0.55334 0.40689 0.58524 0.0
C289 C 0.44661 0.46383 0.63058 0.0
O290 O 0.4752 0.4787 0.61798 0.0
O291 O 0.53716 0.43995 0.64206 0.0
C292 C 0.61474 0.31073 0.60703 0.0
O293 O 0.58999 0.29389 0.62331 0.0
O294 O 0.60773 0.34133 0.59758 0.0
O295 O 0.55514 0.36388 0.65642 0.0
O296 O 0.49669 0.3645 0.66025 0.0
O297 O 0.52315 0.32527 0.59795 0.0
C298 C 0.52332 0.41124 0.5743 0.0
C299 C 0.52593 0.35491 0.67036 0.0
Zn300 Zn 0.03573 0.53361 0.6255 0.0
Zn301 Zn 0.13619 0.57922 0.59719 0.0
C302 C 0.96334 0.53792 0.65286 0.0
O303 O 0.96014 0.50774 0.63693 0.0
C304 C 0.2117 0.56778 0.58093 0.0
O305 O 0.211 0.60017 0.57085 0.0
O306 O 0.02715 0.48436 0.60618 0.0
O307 O 0.06402 0.5652 0.59567 0.0
O308 O 0.10611 0.57396 0.56002 0.0
C309 C 0.0064 0.47707 0.58489 0.0
O310 O 0.98826 0.50286 0.5738 0.0
O311 O 0.99169 0.55578 0.64844 0.0
C312 C 0.16559 0.63852 0.63005 0.0
O313 O 0.17412 0.61338 0.6483 0.0
O314 O 0.14681 0.63058 0.60753 0.0
O315 O 0.10909 0.55414 0.63152 0.0
O316 O 0.06928 0.52687 0.66034 0.0
O317 O 0.18284 0.55332 0.59041 0.0
C318 C 0.07426 0.56474 0.56713 0.0
C319 C 0.10066 0.53901 0.65643 0.0
H320 H 0.7296 0.53795 0.11066 0.0
H321 H 0.76213 0.43168 0.07914 0.0
H322 H 0.79099 0.55298 0.1196 0.0
H323 H 0.82393 0.44637 0.08861 0.0
H324 H 0.92806 0.50856 0.06278 0.0
H325 H 0.86769 0.48618 0.06252 0.0
H326 H 0.84158 0.54039 0.15115 0.0
H327 H 0.90217 0.56336 0.1513 0.0
C328 C 0.74998 0.51768 0.10605 0.0
C329 C 0.74139 0.48363 0.0943 0.0
C330 C 0.78504 0.52615 0.11145 0.0
C331 C 0.81229 0.50087 0.10478 0.0
C332 C 0.80348 0.46645 0.09379 0.0
C333 C 0.76823 0.45789 0.08865 0.0
C334 C 0.90959 0.51557 0.08236 0.0
C335 C 0.91982 0.53808 0.10692 0.0
C336 C 0.87505 0.50243 0.08232 0.0
C337 C 0.8499 0.51156 0.10679 0.0
C338 C 0.86035 0.53322 0.13182 0.0
C339 C 0.89502 0.54632 0.13192 0.0
H340 H 0.01574 0.71272 0.13089 0.0
H341 H 0.02424 0.71547 0.03112 0.0
H342 H 0.97741 0.76454 0.1341 0.0
H343 H 0.98432 0.76699 0.03428 0.0
H344 H 0.96221 0.88658 0.05814 0.0
H345 H 0.98866 0.828 0.04946 0.0
H346 H 0.92166 0.78981 0.12572 0.0
H347 H 0.89615 0.84936 0.13533 0.0
C348 C 0.00893 0.72407 0.10953 0.0
C349 C 0.02342 0.71025 0.08071 0.0
C350 C 0.98653 0.75366 0.11139 0.0
C351 C 0.9777 0.77005 0.08447 0.0
C352 C 0.99102 0.75533 0.05551 0.0
C353 C 0.01381 0.72578 0.05366 0.0
C354 C 0.95275 0.86565 0.0729 0.0
C355 C 0.9275 0.87275 0.0978 0.0
C356 C 0.96774 0.83184 0.06769 0.0
C357 C 0.95758 0.80418 0.08705 0.0
C358 C 0.93064 0.81074 0.11077 0.0
C359 C 0.91587 0.84477 0.11621 0.0
H360 H 0.63333 0.87901 0.105 0.0
H361 H 0.59829 0.97467 0.06432 0.0
H362 H 0.6939 0.90184 0.10335 0.0
H363 H 0.65824 0.99795 0.0637 0.0
H364 H 0.77382 0.02462 0.04892 0.0
H365 H 0.7181 0.99326 0.04186 0.0
H366 H 0.72466 0.94699 0.13074 0.0
H367 H 0.78043 0.97707 0.13725 0.0
C368 C 0.63856 0.90485 0.09568 0.0
C369 C 0.61098 0.92514 0.08506 0.0
C370 C 0.67322 0.91801 0.09483 0.0
C371 C 0.68095 0.95185 0.08354 0.0
C372 C 0.65345 0.97161 0.07211 0.0
C373 C 0.61893 0.95836 0.07276 0.0
C374 C 0.76354 0.00736 0.06671 0.0
C375 C 0.78145 0.00356 0.0937 0.0
C376 C 0.73153 0.98954 0.06277 0.0
C377 C 0.71677 0.96772 0.08581 0.0
C378 C 0.73541 0.96309 0.11229 0.0
C379 C 0.76737 0.98066 0.11613 0.0
H380 H 0.52582 0.77004 0.08364 0.0
H381 H 0.44787 0.71594 0.03025 0.0
H382 H 0.55535 0.7138 0.08996 0.0
H383 H 0.4784 0.6595 0.03564 0.0
H384 H 0.61503 0.60906 0.08014 0.0
H385 H 0.58946 0.66527 0.06653 0.0
H386 H 0.48429 0.62024 0.07723 0.0
H387 H 0.50996 0.56371 0.08985 0.0
C388 C 0.51544 0.74624 0.07259 0.0
C389 C 0.48417 0.74746 0.05675 0.0
C390 C 0.53253 0.71391 0.07613 0.0
C391 C 0.51898 0.682 0.06369 0.0
C392 C 0.48904 0.6835 0.04612 0.0
C393 C 0.47177 0.71591 0.04273 0.0
C394 C 0.58643 0.61122 0.07976 0.0
C395 C 0.5645 0.58199 0.08631 0.0
C396 C 0.57177 0.64345 0.07192 0.0
C397 C 0.53482 0.64728 0.07064 0.0
C398 C 0.5129 0.61806 0.07739 0.0
C399 C 0.52758 0.58576 0.08504 0.0
H400 H 0.87177 0.85163 0.38964 0.0
H401 H 0.9044 0.94211 0.44564 0.0
H402 H 0.81346 0.87975 0.38627 0.0
H403 H 0.8466 0.96966 0.4426 0.0
H404 H 0.76344 0.02966 0.39592 0.0
H405 H 0.81805 0.99645 0.39995 0.0
H406 H 0.75762 0.90119 0.41724 0.0
H407 H 0.70244 0.93453 0.41282 0.0
C408 C 0.86631 0.87717 0.4016 0.0
C409 C 0.8928 0.89489 0.41753 0.0
C410 C 0.83298 0.89323 0.3997 0.0
C411 C 0.82574 0.9272 0.41369 0.0
C412 C 0.85168 0.94389 0.43092 0.0
C413 C 0.88478 0.92798 0.43278 0.0
C414 C 0.76164 0.00164 0.40058 0.0
C415 C 0.72853 0.98486 0.40446 0.0
C416 C 0.79299 0.98263 0.40301 0.0
C417 C 0.7921 0.94633 0.40941 0.0
C418 C 0.7591 0.92914 0.4123 0.0
C419 C 0.72755 0.94827 0.4099 0.0
H420 H 0.45914 0.93019 0.40505 0.0
H421 H 0.57098 0.91478 0.41631 0.0
H422 H 0.44719 0.87029 0.42182 0.0
H423 H 0.5589 0.85468 0.43324 0.0
H424 H 0.52368 0.7379 0.40516 0.0
H425 H 0.54061 0.80024 0.40447 0.0
H426 H 0.44775 0.82875 0.46438 0.0
H427 H 0.4305 0.76625 0.46486 0.0
C428 C 0.48113 0.91421 0.41151 0.0
C429 C 0.51607 0.92705 0.40884 0.0
C430 C 0.47423 0.87994 0.42141 0.0
C431 C 0.50215 0.85764 0.42867 0.0
C432 C 0.5369 0.87111 0.42746 0.0
C433 C 0.54378 0.90553 0.41778 0.0
C434 C 0.50728 0.75732 0.4188 0.0
C435 C 0.47548 0.74714 0.43472 0.0
C436 C 0.5171 0.79309 0.41852 0.0
C437 C 0.49527 0.81948 0.43407 0.0
C438 C 0.46481 0.80904 0.45181 0.0
C439 C 0.45508 0.77319 0.45224 0.0
H440 H 0.6116 0.5553 0.42916 0.0
H441 H 0.65208 0.62225 0.35664 0.0
H442 H 0.67136 0.53406 0.43569 0.0
H443 H 0.71257 0.60055 0.36309 0.0
H444 H 0.7938 0.50189 0.35574 0.0
H445 H 0.74107 0.53879 0.35226 0.0
H446 H 0.73125 0.55373 0.45177 0.0
H447 H 0.78391 0.51672 0.45539 0.0
C448 C 0.63344 0.56583 0.41487 0.0
C449 C 0.62725 0.59023 0.39225 0.0
C450 C 0.66772 0.55387 0.41879 0.0
C451 C 0.69662 0.56568 0.39992 0.0
C452 C 0.69069 0.59099 0.37788 0.0
C453 C 0.65622 0.6035 0.3743 0.0
C454 C 0.78074 0.51349 0.37687 0.0
C455 C 0.79269 0.50592 0.40589 0.0
C456 C 0.75072 0.53489 0.37482 0.0
C457 C 0.73196 0.54891 0.40176 0.0
C458 C 0.74507 0.54298 0.43066 0.0
C459 C 0.77523 0.52182 0.4327 0.0
H460 H 0.08739 0.70509 0.4834 0.0
H461 H -0.00129 0.73082 0.43028 0.0
H462 H 0.07286 0.64201 0.47785 0.0
H463 H 0.98477 0.66803 0.42423 0.0
H464 H 0.95839 0.55326 0.42301 0.0
H465 H 0.96582 0.61269 0.44649 0.0
H466 H 0.07981 0.60052 0.43308 0.0
H467 H 0.07241 0.54096 0.41013 0.0
C468 C 0.06434 0.69743 0.47114 0.0
C469 C 0.0445 0.72301 0.45694 0.0
C470 C 0.05619 0.66123 0.46777 0.0
C471 C 0.028 0.6499 0.4502 0.0
C472 C 0.00652 0.67575 0.43809 0.0
C473 C 0.01465 0.71186 0.44145 0.0
C474 C 0.98505 0.56313 0.42537 0.0
C475 C 0.01482 0.54273 0.414 0.0
C476 C 0.98929 0.5972 0.43884 0.0
C477 C 0.02338 0.61159 0.4413 0.0
C478 C 0.05315 0.59022 0.43177 0.0
C479 C 0.04892 0.55615 0.4183 0.0
H480 H 0.04314 0.51726 0.92347 0.0
H481 H 0.09671 0.427 0.87533 0.0
H482 H 0.09887 0.53548 0.94495 0.0
H483 H 0.15209 0.44539 0.89644 0.0
H484 H 0.2433 0.46554 0.94595 0.0
H485 H 0.18038 0.45138 0.94654 0.0
H486 H 0.1573 0.5588 0.92257 0.0
H487 H 0.22022 0.57334 0.92315 0.0
C488 C 0.0668 0.5014 0.91736 0.0
C489 C 0.06565 0.47083 0.89745 0.0
C490 C 0.09858 0.51178 0.92981 0.0
C491 C 0.12965 0.49161 0.92273 0.0
C492 C 0.12836 0.46101 0.90294 0.0
C493 C 0.09674 0.45073 0.89046 0.0
C494 C 0.22462 0.48656 0.94211 0.0
C495 C 0.2367 0.5201 0.93315 0.0
C496 C 0.18866 0.47837 0.94223 0.0
C497 C 0.16431 0.50356 0.93328 0.0
C498 C 0.17562 0.53869 0.9291 0.0
C499 C 0.21171 0.54701 0.92932 0.0
H500 H 0.96072 0.27055 0.96225 0.0
H501 H 0.98787 0.28706 0.86551 0.0
H502 H 0.99763 0.21682 0.95858 0.0
H503 H 0.02375 0.23326 0.86172 0.0
H504 H 0.10015 0.1426 0.86458 0.0
H505 H 0.07616 0.20258 0.87653 0.0
H506 H 0.99057 0.15861 0.93401 0.0
H507 H 0.01482 0.09936 0.92281 0.0
C508 C 0.97474 0.2629 0.94031 0.0
C509 C 0.97098 0.28279 0.91411 0.0
C510 C 0.99581 0.23211 0.93818 0.0
C511 C 0.01346 0.22064 0.9098 0.0
C512 C 0.01093 0.24151 0.88401 0.0
C513 C 0.98998 0.27223 0.88615 0.0
C514 C 0.07655 0.14593 0.88013 0.0
C515 C 0.05909 0.11626 0.89238 0.0
C516 C 0.06273 0.1802 0.88689 0.0
C517 C 0.03132 0.18534 0.90608 0.0
C518 C 0.01499 0.15573 0.91946 0.0
C519 C 0.02872 0.12164 0.91271 0.0
H520 H 0.25035 0.95006 0.93121 0.0
H521 H 0.1963 0.03593 0.89059 0.0
H522 H 0.30264 0.98704 0.93521 0.0
H523 H 0.2482 0.07362 0.89573 0.0
H524 H 0.36419 0.10651 0.86776 0.0
H525 H 0.30607 0.07813 0.87133 0.0
H526 H 0.32917 0.03654 0.95915 0.0
H527 H 0.38772 0.06349 0.95472 0.0
C528 C 0.24935 0.97715 0.9238 0.0
C529 C 0.21934 0.98996 0.91036 0.0
C530 C 0.27932 0.99851 0.92624 0.0
C531 C 0.27979 0.03337 0.91564 0.0
C532 C 0.24905 0.04672 0.90357 0.0
C533 C 0.21921 0.0252 0.90082 0.0
C534 C 0.35651 0.09178 0.88802 0.0
C535 C 0.38053 0.08678 0.91075 0.0
C536 C 0.32314 0.07559 0.89019 0.0
C537 C 0.31305 0.05455 0.91536 0.0
C538 C 0.33637 0.0517 0.93905 0.0
C539 C 0.36983 0.06736 0.93663 0.0
H540 H 0.45698 0.22369 0.91288 0.0
H541 H 0.52989 0.28361 0.96744 0.0
H542 H 0.42202 0.27729 0.90812 0.0
H543 H 0.49435 0.33728 0.96312 0.0
H544 H 0.45964 0.42686 0.90132 0.0
H545 H 0.48753 0.3734 0.91809 0.0
H546 H 0.3844 0.32509 0.93313 0.0
H547 H 0.35633 0.37865 0.91583 0.0
C548 C 0.46505 0.24813 0.92455 0.0
C549 C 0.49654 0.24953 0.94013 0.0
C550 C 0.44487 0.27885 0.92193 0.0
C551 C 0.45575 0.31162 0.93483 0.0
C552 C 0.48571 0.31248 0.95245 0.0
C553 C 0.50588 0.28168 0.95515 0.0
C554 C 0.44284 0.40487 0.90818 0.0
C555 C 0.40579 0.40682 0.90688 0.0
C556 C 0.45883 0.37438 0.9182 0.0
C557 C 0.43815 0.34508 0.92711 0.0
C558 C 0.40102 0.34719 0.92625 0.0
C559 C 0.38498 0.37782 0.91633 0.0
H560 H 0.1231 0.10877 0.65439 0.0
H561 H 0.11232 0.1167 0.55636 0.0
H562 H 0.17707 0.07357 0.64325 0.0
H563 H 0.16668 0.08185 0.54527 0.0
H564 H 0.2259 0.97258 0.54366 0.0
H565 H 0.18012 0.0186 0.55085 0.0
H566 H 0.23873 0.07188 0.6214 0.0
H567 H 0.28436 0.02566 0.6145 0.0
C568 C 0.13266 0.10371 0.63047 0.0
C569 C 0.11315 0.11521 0.60628 0.0
C570 C 0.16372 0.08362 0.62408 0.0
C571 C 0.17593 0.07457 0.59336 0.0
C572 C 0.15761 0.08791 0.56918 0.0
C573 C 0.1266 0.1081 0.57556 0.0
C574 C 0.22926 0.99433 0.56043 0.0
C575 C 0.25864 0.99527 0.57865 0.0
C576 C 0.20313 0.02086 0.56441 0.0
C577 C 0.20575 0.04886 0.58676 0.0
C578 C 0.23576 0.05046 0.60423 0.0
C579 C 0.26197 0.02402 0.60016 0.0
H580 H 0.54174 0.23759 0.5451 0.0
H581 H 0.46527 0.29173 0.60977 0.0
H582 H 0.51256 0.18118 0.55494 0.0
H583 H 0.43546 0.23546 0.61894 0.0
H584 H 0.43301 0.12682 0.66385 0.0
H585 H 0.45158 0.18486 0.64673 0.0
H586 H 0.46129 0.14315 0.552 0.0
H587 H 0.4435 0.08453 0.56931 0.0
C588 C 0.51811 0.23762 0.56075 0.0
C589 C 0.50614 0.26906 0.57698 0.0
C590 C 0.50129 0.20524 0.56636 0.0
C591 C 0.47201 0.20368 0.58815 0.0
C592 C 0.45847 0.23559 0.60258 0.0
C593 C 0.4754 0.2679 0.59714 0.0
C594 C 0.43881 0.13002 0.63933 0.0
C595 C 0.43699 0.10097 0.61799 0.0
C596 C 0.44918 0.16346 0.62945 0.0
C597 C 0.45787 0.16876 0.59794 0.0
C598 C 0.45514 0.1399 0.57646 0.0
C599 C 0.4448 0.10635 0.58638 0.0
H600 H 0.2223 0.5108 0.61596 0.0
H601 H 0.27853 0.58652 0.55906 0.0
H602 H 0.27809 0.48758 0.63088 0.0
H603 H 0.33489 0.56133 0.57206 0.0
H604 H 0.43074 0.53348 0.62291 0.0
H605 H 0.3737 0.55837 0.61126 0.0
H606 H 0.32713 0.4535 0.61536 0.0
H607 H 0.38342 0.42944 0.62891 0.0
C608 C 0.24664 0.52213 0.60617 0.0
C609 C 0.24592 0.55074 0.58649 0.0
C610 C 0.27883 0.50855 0.61457 0.0
C611 C 0.31129 0.52253 0.60283 0.0
C612 C 0.31053 0.55039 0.58223 0.0
C613 C 0.2782 0.56457 0.5744 0.0
C614 C 0.40805 0.51599 0.62179 0.0
C615 C 0.41142 0.47961 0.62694 0.0
C616 C 0.37543 0.53011 0.61472 0.0
C617 C 0.34565 0.50798 0.61197 0.0
C618 C 0.3491 0.47163 0.61775 0.0
C619 C 0.38148 0.45771 0.62548 0.0
H620 H 0.97081 0.45267 0.53548 0.0
H621 H 0.0303 0.41672 0.60972 0.0
H622 H 0.96157 0.39132 0.51786 0.0
H623 H 0.01869 0.35537 0.59395 0.0
H624 H 0.0087 0.24556 0.55519 0.0
H625 H 0.02881 0.30699 0.55969 0.0
H626 H 0.92761 0.34287 0.53102 0.0
H627 H 0.90867 0.28164 0.52479 0.0
C628 C 0.98204 0.43164 0.54796 0.0
C629 C 0.00148 0.43966 0.57383 0.0
C630 C 0.97639 0.3963 0.53811 0.0
C631 C 0.98916 0.36797 0.55448 0.0
C632 C 0.00901 0.37617 0.58021 0.0
C633 C 0.01537 0.41151 0.58955 0.0
C634 C 0.99121 0.26662 0.54905 0.0
C635 C 0.95706 0.25873 0.53975 0.0
C636 C 0.00252 0.30194 0.55202 0.0
C637 C 0.97966 0.33027 0.54639 0.0
C638 C 0.94628 0.32206 0.5353 0.0
C639 C 0.93527 0.28674 0.53177 0.0
H640 H 0.10144 0.64745 0.20959 0.0
H641 H 0.99011 0.6685 0.19989 0.0
H642 H 0.09835 0.68398 0.25776 0.0
H643 H 0.98733 0.70546 0.24732 0.0
H644 H 0.98492 0.74378 0.34747 0.0
H645 H 0.98961 0.7023 0.30261 0.0
H646 H 0.09147 0.74673 0.27395 0.0
H647 H 0.08723 0.78766 0.31925 0.0
C648 C 0.07632 0.65971 0.21778 0.0
C649 C 0.04603 0.65504 0.20093 0.0
C650 C 0.07461 0.68081 0.24523 0.0
C651 C 0.0426 0.69761 0.25633 0.0
C652 C 0.01226 0.69246 0.23968 0.0
C653 C 0.01393 0.67139 0.21235 0.0
C654 C 0.00834 0.74469 0.33163 0.0
C655 C 0.03556 0.76921 0.33678 0.0
C656 C 0.01099 0.72097 0.30588 0.0
C657 C 0.04084 0.72134 0.28466 0.0
C658 C 0.06832 0.74549 0.29006 0.0
C659 C 0.06574 0.76915 0.31589 0.0
H660 H 0.69109 0.07649 0.33122 0.0
H661 H 0.6657 0.96484 0.32185 0.0
H662 H 0.74558 0.06623 0.29916 0.0
H663 H 0.72148 0.95393 0.29101 0.0
H664 H 0.78785 0.96138 0.19846 0.0
H665 H 0.74187 0.96445 0.2403 0.0
H666 H 0.80279 0.04291 0.28972 0.0
H667 H 0.8481 0.04109 0.24673 0.0
C668 C 0.69759 0.04956 0.32287 0.0
C669 C 0.67375 0.02163 0.32845 0.0
C670 C 0.72913 0.04354 0.30465 0.0
C671 C 0.73787 0.00927 0.29198 0.0
C672 C 0.71518 0.98084 0.29959 0.0
C673 C 0.68328 0.98702 0.31739 0.0
C674 C 0.79169 0.97895 0.21844 0.0
C675 C 0.82138 0.00132 0.21915 0.0
C676 C 0.76537 0.98053 0.24266 0.0
C677 C 0.76835 0.00411 0.26848 0.0
C678 C 0.79916 0.02501 0.26994 0.0
C679 C 0.82524 0.02386 0.2454 0.0
H680 H 0.53438 0.78632 0.16371 0.0
H681 H 0.42647 0.81735 0.19288 0.0
H682 H 0.53618 0.74912 0.20804 0.0
H683 H 0.42854 0.78054 0.23768 0.0
H684 H 0.43265 0.68127 0.2954 0.0
H685 H 0.43046 0.7185 0.25098 0.0
H686 H 0.53764 0.75345 0.26374 0.0
H687 H 0.54012 0.71573 0.30776 0.0
C688 C 0.51108 0.78543 0.17969 0.0
C689 C 0.4803 0.80497 0.17473 0.0
C690 C 0.5122 0.76418 0.20525 0.0
C691 C 0.48255 0.76184 0.22655 0.0
C692 C 0.45173 0.78138 0.22158 0.0
C693 C 0.45063 0.80269 0.19599 0.0
C694 C 0.45582 0.6968 0.28869 0.0
C695 C 0.48663 0.69534 0.30514 0.0
C696 C 0.45445 0.71838 0.26333 0.0
C697 C 0.48386 0.73904 0.25373 0.0
C698 C 0.51465 0.73756 0.27019 0.0
C699 C 0.51602 0.71602 0.29557 0.0
H700 H 0.79816 0.46794 0.16871 0.0
H701 H 0.71434 0.49522 0.2388 0.0
H702 H 0.84168 0.47187 0.20797 0.0
H703 H 0.75785 0.49838 0.27808 0.0
H704 H 0.8373 0.42625 0.33012 0.0
H705 H 0.79382 0.44191 0.29403 0.0
H706 H 0.8683 0.51485 0.25151 0.0
H707 H 0.91177 0.50009 0.28842 0.0
C708 C 0.7892 0.47557 0.19236 0.0
C709 C 0.7529 0.48088 0.20082 0.0
C710 C 0.81407 0.47796 0.21475 0.0
C711 C 0.8029 0.48507 0.24597 0.0
C712 C 0.76695 0.49268 0.25412 0.0
C713 C 0.74216 0.491 0.23164 0.0
C714 C 0.84426 0.44615 0.31357 0.0
C715 C 0.87796 0.46197 0.31224 0.0
C716 C 0.81928 0.45523 0.29299 0.0
C717 C 0.82778 0.47968 0.27018 0.0
C718 C 0.86119 0.49602 0.26904 0.0
C719 C 0.88595 0.48754 0.29014 0.0
H720 H 0.01347 0.2158 0.67396 0.0
H721 H 0.90082 0.22596 0.66375 0.0
H722 H 0.00887 0.26054 0.71643 0.0
H723 H 0.89651 0.27207 0.70484 0.0
H724 H 0.89431 0.32384 0.80232 0.0
H725 H 0.89729 0.28142 0.75825 0.0
H726 H 0.00084 0.32153 0.72856 0.0
H727 H -0.00148 0.36261 0.7737 0.0
C728 C 0.98779 0.22782 0.68062 0.0
C729 C 0.95754 0.21731 0.66551 0.0
C730 C 0.98517 0.25376 0.70478 0.0
C731 C 0.95233 0.27022 0.71403 0.0
C732 C 0.92213 0.25968 0.69876 0.0
C733 C 0.92464 0.23332 0.67501 0.0
C734 C 0.9175 0.3239 0.78614 0.0
C735 C 0.94628 0.34637 0.79154 0.0
C736 C 0.91921 0.2996 0.76077 0.0
C737 C 0.9495 0.29768 0.7399 0.0
C738 C 0.97751 0.32153 0.74455 0.0
C739 C 0.97604 0.34537 0.77023 0.0
H740 H 0.31631 0.02396 0.67057 0.0
H741 H 0.3161 0.90986 0.67763 0.0
H742 H 0.26101 0.02847 0.70288 0.0
H743 H 0.26199 0.91431 0.71164 0.0
H744 H 0.1567 0.92975 0.76559 0.0
H745 H 0.20102 0.92654 0.72176 0.0
H746 H 0.24705 0.02478 0.75565 0.0
H747 H 0.20209 0.02874 0.79813 0.0
C748 C 0.30431 -0.00017 0.67906 0.0
C749 C 0.32067 0.96664 0.67211 0.0
C750 C 0.27274 0.00238 0.69774 0.0
C751 C 0.25739 0.97187 0.7106 0.0
C752 C 0.2728 0.9384 0.70209 0.0
C753 C 0.30398 0.9358 0.68275 0.0
C754 C 0.17606 0.95085 0.76332 0.0
C755 C 0.17595 0.97945 0.78534 0.0
C756 C 0.20158 0.94893 0.73831 0.0
C757 C 0.22775 0.97537 0.73505 0.0
C758 C 0.22696 0.00431 0.75683 0.0
C759 C 0.20126 0.00645 0.78147 0.0
H760 H 0.46601 0.19866 0.807 0.0
H761 H 0.57781 0.21526 0.81729 0.0
H762 H 0.46768 0.24104 0.76611 0.0
H763 H 0.57921 0.25918 0.77793 0.0
H764 H 0.58019 0.31259 0.68629 0.0
H765 H 0.57874 0.26918 0.72612 0.0
H766 H 0.47065 0.30052 0.75485 0.0
H767 H 0.47161 0.34236 0.71357 0.0
C768 C 0.49093 0.21153 0.80064 0.0
C769 C 0.52178 0.20341 0.81537 0.0
C770 C 0.49187 0.23621 0.77733 0.0
C771 C 0.52356 0.25401 0.76852 0.0
C772 C 0.5544 0.24574 0.78341 0.0
C773 C 0.55359 0.22058 0.80624 0.0
C774 C 0.55614 0.31027 0.70117 0.0
C775 C 0.52596 0.33086 0.69661 0.0
C776 C 0.55532 0.28542 0.72427 0.0
C777 C 0.52452 0.28093 0.74397 0.0
C778 C 0.49463 0.30235 0.73984 0.0
C779 C 0.49525 0.32672 0.71631 0.0
H780 H 0.17188 0.535 0.64587 0.0
H781 H 0.08878 0.53354 0.71905 0.0
H782 H 0.21663 0.53374 0.68344 0.0
H783 H 0.13359 0.53373 0.75731 0.0
H784 H 0.22494 0.51335 0.81798 0.0
H785 H 0.18146 0.50284 0.77933 0.0
H786 H 0.2377 0.57603 0.71972 0.0
H787 H 0.28143 0.58548 0.75756 0.0
C788 C 0.16328 0.53445 0.67007 0.0
C789 C 0.12704 0.53496 0.67956 0.0
C790 C 0.18887 0.53386 0.69168 0.0
C791 C 0.17875 0.53431 0.72347 0.0
C792 C 0.14233 0.53317 0.73299 0.0
C793 C 0.11665 0.53325 0.71115 0.0
C794 C 0.22817 0.5268 0.79642 0.0
C795 C 0.25661 0.55024 0.79081 0.0
C796 C 0.20314 0.52098 0.7744 0.0
C797 C 0.20608 0.53855 0.74641 0.0
C798 C 0.23492 0.56149 0.74073 0.0
C799 C 0.25994 0.56712 0.76257 0.0
H800 H 0.20575 0.64872 0.09568 0.0
H801 H 0.15838 0.74743 0.13357 0.0
H802 H 0.26382 0.67742 0.09145 0.0
H803 H 0.21633 0.77589 0.12953 0.0
H804 H 0.32075 0.82371 0.08995 0.0
H805 H 0.26258 0.79511 0.09032 0.0
H806 H 0.30689 0.70152 0.12757 0.0
H807 H 0.36486 0.72983 0.12703 0.0
C808 C 0.20769 0.67652 0.10304 0.0
C809 C 0.17745 0.69573 0.11507 0.0
C810 C 0.24096 0.69291 0.10073 0.0
C811 C 0.24466 0.72892 0.11019 0.0
C812 C 0.21431 0.74823 0.12174 0.0
C813 C 0.18113 0.73181 0.12425 0.0
C814 C 0.31807 0.79701 0.09814 0.0
C815 C 0.34742 0.77911 0.10854 0.0
C816 C 0.28474 0.78069 0.09846 0.0
C817 C 0.28016 0.74603 0.10894 0.0
C818 C 0.30963 0.72805 0.11901 0.0
C819 C 0.34281 0.74443 0.1189 0.0
H820 H 0.85931 0.16919 0.15284 0.0
H821 H 0.75409 0.13062 0.13715 0.0
H822 H 0.83945 0.22991 0.14622 0.0
H823 H 0.73459 0.19086 0.12886 0.0
H824 H 0.70074 0.30682 0.14618 0.0
H825 H 0.71977 0.24591 0.15282 0.0
H826 H 0.82335 0.2696 0.10982 0.0
H827 H 0.80471 0.33094 0.10481 0.0
C828 C 0.83198 0.1737 0.14777 0.0
C829 C 0.80825 0.14516 0.14566 0.0
C830 C 0.8206 0.20851 0.14368 0.0
C831 C 0.78535 0.21553 0.13682 0.0
C832 C 0.76172 0.18678 0.13465 0.0
C833 C 0.77295 0.15211 0.13927 0.0
C834 C 0.72747 0.29887 0.13793 0.0
C835 C 0.75126 0.32367 0.12505 0.0
C836 C 0.73843 0.26385 0.14164 0.0
C837 C 0.77328 0.25262 0.13206 0.0
C838 C 0.79663 0.27732 0.11822 0.0
C839 C 0.78584 0.31247 0.11502 0.0
H840 H 0.36106 0.75862 0.37004 0.0
H841 H 0.32875 0.65703 0.40498 0.0
H842 H 0.29958 0.77922 0.37573 0.0
H843 H 0.26718 0.67788 0.41093 0.0
H844 H 0.15866 0.71373 0.37998 0.0
H845 H 0.22017 0.69343 0.37685 0.0
H846 H 0.25203 0.7949 0.41635 0.0
H847 H 0.19032 0.81548 0.41926 0.0
C848 C 0.34086 0.7407 0.37903 0.0
C849 C 0.34979 0.70611 0.38695 0.0
C850 C 0.30565 0.75263 0.38249 0.0
C851 C 0.27853 0.7302 0.39378 0.0
C852 C 0.28746 0.69567 0.40187 0.0
C853 C 0.32274 0.68378 0.39858 0.0
C854 C 0.17873 0.73176 0.38805 0.0
C855 C 0.16959 0.76629 0.3998 0.0
C856 C 0.21397 0.72 0.38644 0.0
C857 C 0.24096 0.74253 0.39639 0.0
C858 C 0.23185 0.77704 0.40824 0.0
C859 C 0.1965 0.78877 0.41003 0.0
H860 H 0.79513 0.33358 0.41448 0.0
H861 H 0.82208 0.30178 0.31869 0.0
H862 H 0.75297 0.28485 0.41841 0.0
H863 H 0.78032 0.25255 0.32285 0.0
H864 H 0.67708 0.19031 0.33197 0.0
H865 H 0.71638 0.24161 0.32895 0.0
H866 H 0.75246 0.2203 0.41872 0.0
H867 H 0.71278 0.1695 0.42205 0.0
C868 C 0.79224 0.31606 0.39429 0.0
C869 C 0.81202 0.32158 0.36626 0.0
C870 C 0.76813 0.28804 0.3966 0.0
C871 C 0.76319 0.26487 0.37093 0.0
C872 C 0.7831 0.27026 0.34293 0.0
C873 C 0.80726 0.2983 0.34062 0.0
C874 C 0.6931 0.1968 0.35122 0.0
C875 C 0.69183 0.17575 0.37722 0.0
C876 C 0.71585 0.22602 0.34935 0.0
C877 C 0.73776 0.23487 0.37347 0.0
C878 C 0.73572 0.2144 0.39985 0.0
C879 C 0.71303 0.18519 0.4017 0.0
H880 H 0.62798 0.28123 0.88021 0.0
H881 H 0.67001 0.18298 0.91118 0.0
H882 H 0.68699 0.30734 0.87971 0.0
H883 H 0.72909 0.20937 0.91098 0.0
H884 H 0.83282 0.25369 0.86446 0.0
H885 H 0.77368 0.22816 0.87059 0.0
H886 H 0.73347 0.32713 0.91414 0.0
H887 H 0.79273 0.35295 0.90774 0.0
C888 C 0.64975 0.26529 0.88718 0.0
C889 C 0.64435 0.22994 0.89556 0.0
C890 C 0.68353 0.28036 0.88708 0.0
C891 C 0.71269 0.26037 0.89521 0.0
C892 C 0.70717 0.22528 0.90425 0.0
C893 C 0.67332 0.21024 0.90451 0.0
C894 C 0.81143 0.27002 0.87545 0.0
C895 C 0.81744 0.30541 0.88549 0.0
C896 C 0.77759 0.25527 0.87916 0.0
C897 C 0.74894 0.27562 0.89288 0.0
C898 C 0.75499 0.31091 0.90324 0.0
C899 C 0.78893 0.32563 0.89967 0.0
H900 H 0.19969 0.65437 0.87118 0.0
H901 H 0.30846 0.69027 0.86996 0.0
H902 H 0.17944 0.71518 0.86774 0.0
H903 H 0.28791 0.75181 0.86722 0.0
H904 H 0.23845 0.85133 0.82734 0.0
H905 H 0.26115 0.79118 0.83216 0.0
H906 H 0.17324 0.77015 0.89784 0.0
H907 H 0.15011 0.82989 0.89245 0.0
C908 C 0.21935 0.6753 0.8704 0.0
C909 C 0.25576 0.66739 0.87088 0.0
C910 C 0.20765 0.71031 0.86863 0.0
C911 C 0.23197 0.73851 0.8674 0.0
C912 C 0.26846 0.73069 0.86786 0.0
C913 C 0.28025 0.69547 0.8696 0.0
C914 C 0.22396 0.83386 0.84282 0.0
C915 C 0.19229 0.84536 0.85934 0.0
C916 C 0.23715 0.79945 0.84575 0.0
C917 C 0.219 0.77573 0.86531 0.0
C918 C 0.18761 0.78748 0.88217 0.0
C919 C 0.17439 0.82182 0.87917 0.0
H920 H 0.80423 0.17508 0.57607 0.0
H921 H 0.84035 0.27945 0.60527 0.0
H922 H 0.74351 0.19818 0.57635 0.0
H923 H 0.77995 0.30224 0.60587 0.0
H924 H 0.67348 0.34026 0.57799 0.0
H925 H 0.73339 0.31524 0.57096 0.0
H926 H 0.69706 0.22043 0.61572 0.0
H927 H 0.63711 0.24516 0.62242 0.0
C928 C 0.79925 0.20292 0.58244 0.0
C929 C 0.82707 0.22539 0.59076 0.0
C930 C 0.76449 0.2161 0.58272 0.0
C931 C 0.75697 0.25204 0.59109 0.0
C932 C 0.78493 0.27455 0.5989 0.0
C933 C 0.81954 0.26138 0.59879 0.0
C934 C 0.67821 0.31396 0.58611 0.0
C935 C 0.65059 0.29482 0.60096 0.0
C936 C 0.71255 0.29971 0.58219 0.0
C937 C 0.71998 0.26595 0.59294 0.0
C938 C 0.69212 0.24636 0.60693 0.0
C939 C 0.65781 0.26066 0.61095 0.0
H940 H 0.33387 0.79066 0.64255 0.0
H941 H 0.25179 0.8516 0.60396 0.0
H942 H 0.29332 0.74068 0.64792 0.0
H943 H 0.21083 0.8022 0.61037 0.0
H944 H 0.1652 0.69126 0.58881 0.0
H945 H 0.20113 0.74472 0.58804 0.0
H946 H 0.24139 0.71922 0.67537 0.0
H947 H 0.20628 0.66489 0.67555 0.0
C948 C 0.30706 0.7935 0.63548 0.0
C949 C 0.29617 0.82495 0.62256 0.0
C950 C 0.28367 0.76494 0.6388 0.0
C951 C 0.24872 0.76733 0.62957 0.0
C952 C 0.23769 0.79915 0.61724 0.0
C953 C 0.26117 0.82754 0.61365 0.0
C954 C 0.18131 0.69728 0.60809 0.0
C955 C 0.18306 0.67366 0.63213 0.0
C956 C 0.20188 0.72808 0.60771 0.0
C957 C 0.22448 0.73621 0.63151 0.0
C958 C 0.22489 0.71342 0.65633 0.0
C959 C 0.20449 0.68243 0.65658 0.0
H960 H 0.91861 0.46842 0.95419 0.0
H961 H 0.01431 0.4043 0.94479 0.0
H962 H 0.94823 0.51134 0.98771 0.0
H963 H 0.04443 0.44786 0.97584 0.0
H964 H 0.07751 0.51717 0.05833 0.0
H965 H 0.05089 0.47286 0.02453 0.0
H966 H 0.9916 0.55596 0.98476 0.0
H967 H 0.01656 0.59968 0.02019 0.0
C968 C 0.94578 0.4634 0.95943 0.0
C969 C 0.96415 0.43319 0.94665 0.0
C970 C 0.96304 0.48824 0.97815 0.0
C971 C -0.00094 0.48346 0.98407 0.0
C972 C 0.01672 0.45242 0.97221 0.0
C973 C -0.00063 0.42745 0.95413 0.0
C974 C 0.05953 0.52594 0.04175 0.0
C975 C 0.04875 0.56162 0.04198 0.0
C976 C 0.04405 0.50057 0.02242 0.0
C977 C 0.01823 0.51066 0.00242 0.0
C978 C 0.01025 0.547 0.00067 0.0
C979 C 0.02511 0.57216 0.02047 0.0
H980 H 0.07768 0.03569 0.94851 0.0
H981 H 0.03459 0.93024 0.9344 0.0
H982 H 0.03591 0.04702 0.99259 0.0
H983 H 0.99331 0.94117 0.97994 0.0
H984 H 0.89903 0.98674 0.0402 0.0
H985 H 0.94131 0.97587 0.99582 0.0
H986 H 0.02176 0.03243 0.04449 0.0
H987 H 0.97886 0.0442 0.08859 0.0
C988 C 0.0595 0.01464 0.95502 0.0
C989 C 0.05935 0.98203 0.93771 0.0
C990 C 0.03565 0.02114 0.98058 0.0
C991 C 0.01118 0.99509 0.9899 0.0
C992 C 0.01147 0.96208 0.97308 0.0
C993 C 0.03528 0.95564 0.94715 0.0
C994 C 0.92567 0.99723 0.04121 0.0
C995 C 0.93571 0.0164 0.06777 0.0
C996 C 0.95002 0.9906 0.01593 0.0
C997 C 0.9851 0.00282 0.01667 0.0
C998 C 0.99486 0.02287 0.04299 0.0
C999 C 0.97032 0.02977 0.06824 0.0
H1000 H 0.55032 0.04239 0.9177 0.0
H1001 H 0.47983 0.10295 0.98286 0.0
H1002 H 0.53541 0.98832 0.94447 0.0
H1003 H 0.46638 0.0495 0.01099 0.0
H1004 H 0.42479 0.9448 0.04338 0.0
H1005 H 0.43628 0.99593 0.01154 0.0
H1006 H 0.54297 0.95678 0.98741 0.0
H1007 H 0.53053 0.90492 0.01708 0.0
C1008 C 0.53229 0.04422 0.93827 0.0
C1009 C 0.51648 0.07688 0.94838 0.0
C1010 C 0.52365 0.01318 0.95371 0.0
C1011 C 0.49952 0.01416 0.98008 0.0
C1012 C 0.48438 0.04723 0.99046 0.0
C1013 C 0.49249 0.07808 0.97463 0.0
C1014 C 0.4504 0.94683 0.03071 0.0
C1015 C 0.47679 0.92087 0.0331 0.0
C1016 C 0.45727 0.97647 0.01276 0.0
C1017 C 0.49086 0.98113 0.9971 0.0
C1018 C 0.51665 0.9543 -0.00136 0.0
C1019 C 0.50955 0.92446 0.01601 0.0
H1020 H 0.59191 0.54325 0.99117 0.0
H1021 H 0.55331 0.44553 0.02978 0.0
H1022 H 0.53451 0.55312 0.97067 0.0
H1023 H 0.49614 0.45489 0.00836 0.0
H1024 H 0.38749 0.50148 0.0009 0.0
H1025 H 0.44635 0.4953 0.01988 0.0
H1026 H 0.49361 0.53235 0.93369 0.0
H1027 H 0.43476 0.53953 0.91505 0.0
C1028 C 0.57148 0.52336 0.99462 0.0
C1029 C 0.57712 0.49368 0.0123 0.0
C1030 C 0.53851 0.52911 0.9829 0.0
C1031 C 0.51054 0.50516 0.98839 0.0
C1032 C 0.51686 0.47436 0.00447 0.0
C1033 C 0.54977 0.46873 0.01637 0.0
C1034 C 0.41039 0.50903 0.98626 0.0
C1035 C 0.40643 0.52075 0.9564 0.0
C1036 C 0.44415 0.50501 0.99696 0.0
C1037 C 0.47469 0.5125 0.97799 0.0
C1038 C 0.47064 0.52632 0.94887 0.0
C1039 C 0.43684 0.53054 0.93823 0.0
H1040 H 0.01207 0.0941 0.50842 0.0
H1041 H 0.93607 0.04602 0.57253 0.0
H1042 H 0.03025 0.03549 0.48694 0.0
H1043 H 0.95564 0.98709 0.55253 0.0
H1044 H 0.9684 0.89069 0.48503 0.0
H1045 H 0.95267 0.94736 0.51086 0.0
H1046 H 0.06084 0.9832 0.49397 0.0
H1047 H 0.07588 0.92695 0.46585 0.0
C1048 C -0.00057 0.07084 0.51802 0.0
C1049 C 0.97236 0.07455 0.5418 0.0
C1050 C 0.01016 0.03715 0.506 0.0
C1051 C 0.99462 0.00624 0.51798 0.0
C1052 C 0.9678 0.01012 0.5422 0.0
C1053 C 0.95653 0.04391 0.55374 0.0
C1054 C 0.98897 0.91055 0.48689 0.0
C1055 C 0.02326 0.9045 0.47277 0.0
C1056 C 0.97997 0.94314 0.50207 0.0
C1057 C 0.00529 0.97033 0.50431 0.0
C1058 C 0.0403 0.96336 0.49197 0.0
C1059 C 0.04911 0.93091 0.47616 0.0
H1060 H 0.41145 0.93006 0.50533 0.0
H1061 H 0.47046 0.96886 0.58176 0.0
H1062 H 0.45791 0.95235 0.46902 0.0
H1063 H 0.51636 0.99109 0.54581 0.0
H1064 H 0.6044 0.01082 0.47291 0.0
H1065 H 0.56323 0.97588 0.50527 0.0
H1066 H 0.47553 0.01374 0.45645 0.0
H1067 H 0.51667 0.04804 0.4239 0.0
C1068 C 0.43464 0.94264 0.51432 0.0
C1069 C 0.4372 0.9481 0.54631 0.0
C1070 C 0.46111 0.95553 0.49359 0.0
C1071 C 0.49068 0.97362 0.50459 0.0
C1072 C 0.49412 0.97702 0.53658 0.0
C1073 C 0.46765 0.96449 0.55719 0.0
C1074 C 0.57632 0.0116 0.46917 0.0
C1075 C 0.56363 0.03211 0.446 0.0
C1076 C 0.5528 0.99153 0.48756 0.0
C1077 C 0.51619 0.9919 0.48324 0.0
C1078 C 0.50364 0.01238 0.45997 0.0
C1079 C 0.52713 0.03229 0.44155 0.0
H1080 H 0.47468 0.41141 0.53056 0.0
H1081 H 0.55926 0.47331 0.56753 0.0
H1082 H 0.46469 0.45738 0.49421 0.0
H1083 H 0.54769 0.52067 0.53338 0.0
H1084 H 0.54419 0.5875 0.45104 0.0
H1085 H 0.55379 0.54054 0.48547 0.0
H1086 H 0.44275 0.51201 0.48478 0.0
H1087 H 0.43422 0.55723 0.44735 0.0
C1088 C 0.49105 0.43503 0.53091 0.0
C1089 C 0.51816 0.43852 0.55144 0.0
C1090 C 0.48505 0.46175 0.51034 0.0
C1091 C 0.50534 0.49321 0.51041 0.0
C1092 C 0.53208 0.49668 0.53157 0.0
C1093 C 0.53874 0.4695 0.55142 0.0
C1094 C 0.5218 0.571 0.45786 0.0
C1095 C 0.48853 0.57589 0.44587 0.0
C1096 C 0.5272 0.54414 0.47825 0.0
C1097 C 0.49913 0.522 0.48842 0.0
C1098 C 0.46541 0.52769 0.47714 0.0
C1099 C 0.4603 0.554 0.45588 0.0
H1100 H 0.08776 0.49826 0.543 0.0
H1101 H 0.01751 0.58825 0.53906 0.0
H1102 H 0.05343 0.4645 0.50611 0.0
H1103 H 0.98412 0.55563 0.50065 0.0
H1104 H 0.90677 0.47465 0.46436 0.0
H1105 H 0.94332 0.50881 0.49885 0.0
H1106 H 0.03748 0.4569 0.45522 0.0
H1107 H 0.00058 0.42191 0.42142 0.0
C1108 C 0.06514 0.51082 0.53376 0.0
C1109 C 0.05455 0.54529 0.54404 0.0
C1110 C 0.04569 0.49176 0.51239 0.0
C1111 C 0.01574 0.5072 0.50053 0.0
C1112 C 0.00638 0.54253 0.50992 0.0
C1113 C 0.02547 0.5613 0.53175 0.0
C1114 C 0.93525 0.47036 0.46235 0.0
C1115 C 0.95092 0.44581 0.44013 0.0
C1116 C 0.95631 0.49035 0.48178 0.0
C1117 C 0.99348 0.48605 0.47957 0.0
C1118 C 0.00897 0.46071 0.45783 0.0
C1119 C 0.98788 0.44076 0.43835 0.0
H1120 H 0.99041 0.38228 0.26296 0.0
H1121 H 0.0739 0.43683 0.30901 0.0
H1122 H 0.01617 0.39978 0.21358 0.0
H1123 H 0.10134 0.45268 0.25904 0.0
H1124 H 0.07881 0.53637 0.1869 0.0
H1125 H 0.08328 0.4978 0.22929 0.0
H1126 H 0.0549 0.40755 0.17072 0.0
H1127 H 0.04847 0.44708 0.12841 0.0
C1128 C 0.01523 0.3967 0.26246 0.0
C1129 C 0.02938 0.4093 0.28998 0.0
C1130 C 0.03032 0.40665 0.23388 0.0
C1131 C 0.06029 0.4289 0.23218 0.0
C1132 C 0.07745 0.43679 0.2595 0.0
C1133 C 0.06191 0.42744 0.28818 0.0
C1134 C 0.07434 0.50816 0.18273 0.0
C1135 C 0.06196 0.49504 0.15461 0.0
C1136 C 0.07728 0.48573 0.20714 0.0
C1137 C 0.06841 0.44946 0.20393 0.0
C1138 C 0.06072 0.43553 0.17443 0.0
C1139 C 0.05727 0.45816 0.15006 0.0
H1140 H 0.08449 0.91585 0.31891 0.0
H1141 H 0.97372 0.93128 0.34875 0.0
H1142 H 0.07471 0.94522 0.27093 0.0
H1143 H 0.96384 0.95977 0.30107 0.0
H1144 H 0.94893 0.01568 0.21762 0.0
H1145 H 0.97372 0.0082 0.26736 0.0
H1146 H 0.044 0.92592 0.22564 0.0
H1147 H 0.01999 0.93406 0.17584 0.0
C1148 C 0.05829 0.92623 0.31557 0.0
C1149 C 0.02978 0.92085 0.33742 0.0
C1150 C 0.05263 0.94283 0.288 0.0
C1151 C 0.01843 0.95463 0.28196 0.0
C1152 C 0.99062 0.95145 0.30494 0.0
C1153 C 0.99621 0.93476 0.33226 0.0
C1154 C 0.9704 0.99671 0.21885 0.0
C1155 C 0.98193 0.97491 0.19287 0.0
C1156 C 0.98448 0.99229 0.24743 0.0
C1157 C 0.01027 0.96588 0.2507 0.0
C1158 C 0.02423 0.94657 0.22405 0.0
C1159 C 0.01028 0.95112 0.19542 0.0
H1160 H 0.46922 0.02287 0.31734 0.0
H1161 H 0.55097 0.07718 0.26329 0.0
H1162 H 0.44074 0.00563 0.27021 0.0
H1163 H 0.52347 0.05887 0.21627 0.0
H1164 H 0.47856 0.01633 0.13256 0.0
H1165 H 0.47826 0.05364 0.1802 0.0
H1166 H 0.46157 0.96013 0.23366 0.0
H1167 H 0.46087 0.92343 0.18648 0.0
C1168 C 0.48063 0.03187 0.29547 0.0
C1169 C 0.51288 0.05052 0.29392 0.0
C1170 C 0.46438 0.02187 0.26844 0.0
C1171 C 0.48035 0.02992 0.23934 0.0
C1172 C 0.51032 0.05213 0.23819 0.0
C1173 C 0.52632 0.06249 0.26525 0.0
C1174 C 0.47369 0.00399 0.15452 0.0
C1175 C 0.4706 0.96685 0.15582 0.0
C1176 C 0.47371 0.02535 0.18182 0.0
C1177 C 0.47055 0.00989 0.21082 0.0
C1178 C 0.46387 0.97316 0.21188 0.0
C1179 C 0.46385 0.95193 0.18471 0.0
H1180 H 0.55378 0.52639 0.32834 0.0
H1181 H 0.45965 0.54949 0.28141 0.0
H1182 H 0.57622 0.48882 0.28432 0.0
H1183 H 0.48215 0.51133 0.23697 0.0
H1184 H 0.57162 0.50125 0.15415 0.0
H1185 H 0.53217 0.521 0.19836 0.0
H1186 H 0.57041 0.43566 0.25084 0.0
H1187 H 0.61041 0.4162 0.20679 0.0
C1188 C 0.53745 0.52265 0.30886 0.0
C1189 C 0.50517 0.54116 0.30815 0.0
C1190 C 0.55019 0.50087 0.28366 0.0
C1191 C 0.53108 0.49725 0.257 0.0
C1192 C 0.4976 0.51387 0.25709 0.0
C1193 C 0.48461 0.53548 0.28259 0.0
C1194 C 0.57102 0.48611 0.17482 0.0
C1195 C 0.59473 0.45757 0.1771 0.0
C1196 C 0.54818 0.49733 0.20016 0.0
C1197 C 0.54853 0.4802 0.22828 0.0
C1198 C 0.57 0.44978 0.22965 0.0
C1199 C 0.59288 0.4386 0.20436 0.0
H1200 H 0.96871 0.59102 0.69805 0.0
H1201 H 0.90635 0.49913 0.67359 0.0
H1202 H 0.94463 0.58889 0.75152 0.0
H1203 H 0.88384 0.49582 0.7268 0.0
H1204 H 0.85968 0.47575 0.82181 0.0
H1205 H 0.85628 0.51007 0.77571 0.0
H1206 H 0.96246 0.54922 0.78727 0.0
H1207 H 0.965 0.51652 0.83365 0.0
C1208 C 0.94913 0.57097 0.70385 0.0
C1209 C 0.94047 0.54444 0.68178 0.0
C1210 C 0.93549 0.56956 0.73462 0.0
C1211 C 0.91333 0.54134 0.74392 0.0
C1212 C 0.90096 0.51788 0.72087 0.0
C1213 C 0.91421 0.51957 0.69013 0.0
C1214 C 0.88166 0.49287 0.81516 0.0
C1215 C 0.91308 0.49251 0.83078 0.0
C1216 C 0.87987 0.51233 0.78852 0.0
C1217 C 0.90955 0.53152 0.77696 0.0
C1218 C 0.939 0.5348 0.7951 0.0
C1219 C 0.94066 0.51565 0.82175 0.0
H1220 H 0.919 0.07447 0.68785 0.0
H1221 H 0.02013 0.03868 0.64444 0.0
H1222 H 0.92921 0.03972 0.7327 0.0
H1223 H 0.03025 0.00412 0.68915 0.0
H1224 H 0.04056 0.9385 0.77024 0.0
H1225 H 0.01174 0.95499 0.72402 0.0
H1226 H 0.97378 0.05247 0.77179 0.0
H1227 H 0.00253 0.03611 0.81769 0.0
C1228 C 0.94295 0.05846 0.68748 0.0
C1229 C 0.96902 0.05977 0.66279 0.0
C1230 C 0.94882 0.03867 0.71323 0.0
C1231 C 0.98066 0.01945 0.71459 0.0
C1232 C 0.00533 0.01841 0.68876 0.0
C1233 C -0.00037 0.03845 0.66319 0.0
C1234 C 0.02502 0.96284 0.77117 0.0
C1235 C 0.02406 0.98622 0.79744 0.0
C1236 C 0.00875 0.97239 0.74465 0.0
C1237 C 0.99081 0.00518 0.74416 0.0
C1238 C 0.98717 0.02692 0.77143 0.0
C1239 C 0.00379 0.01763 0.79772 0.0
H1240 H 0.46066 0.91104 0.71892 0.0
H1241 H 0.52047 0.99282 0.67202 0.0
H1242 H 0.48801 0.92791 0.76672 0.0
H1243 H 0.54675 0.01035 0.71969 0.0
H1244 H 0.58174 0.05023 0.80752 0.0
H1245 H 0.57899 0.00561 0.76504 0.0
H1246 H 0.47144 0.98057 0.79748 0.0
H1247 H 0.47457 0.0241 0.83999 0.0
C1248 C 0.48046 0.93184 0.71851 0.0
C1249 C 0.48746 0.95145 0.69199 0.0
C1250 C 0.496 0.94164 0.74598 0.0
C1251 C 0.51865 0.97125 0.74734 0.0
C1252 C 0.52932 0.98752 0.71968 0.0
C1253 C 0.51395 0.97763 0.69225 0.0
C1254 C 0.55793 0.0344 0.80604 0.0
C1255 C 0.52801 0.04135 0.82658 0.0
C1256 C 0.55633 0.0089 0.78166 0.0
C1257 C 0.5248 0.98992 0.77745 0.0
C1258 C 0.49627 0.99443 0.79995 0.0
C1259 C 0.49788 0.01982 0.82422 0.0
H1260 H 0.35224 0.48357 0.78751 0.0
H1261 H 0.42382 0.56196 0.82359 0.0
H1262 H 0.39321 0.47199 0.74247 0.0
H1263 H 0.46584 0.54945 0.77876 0.0
H1264 H 0.52408 0.53362 0.68312 0.0
H1265 H 0.47863 0.55206 0.72362 0.0
H1266 H 0.4488 0.442 0.73328 0.0
H1267 H 0.49367 0.42405 0.69259 0.0
C1268 C 0.37682 0.49841 0.78571 0.0
C1269 C 0.38512 0.52335 0.80919 0.0
C1270 C 0.4004 0.49161 0.75998 0.0
C1271 C 0.43316 0.50922 0.75725 0.0
C1272 C 0.44076 0.5355 0.78005 0.0
C1273 C 0.41679 0.54266 0.80575 0.0
C1274 C 0.50752 0.51349 0.69382 0.0
C1275 C 0.51193 0.47741 0.68442 0.0
C1276 C 0.48164 0.52402 0.71709 0.0
C1277 C 0.45988 0.49859 0.73164 0.0
C1278 C 0.46445 0.46246 0.72212 0.0
C1279 C 0.49017 0.45204 0.69877 0.0
loop_
_geom_bond_atom_site_label_1
_geom_bond_atom_site_label_2
_geom_bond_distance
_geom_bond_site_symmetry_2
_ccdc_geom_bond_type
Zn0 O6 1.969 . S
Zn0 O7 1.965 . S
Zn0 O11 2.024 . S
Zn0 O16 1.969 . S
Zn1 O8 1.969 . S
Zn1 O14 1.969 1_455 S
Zn1 O15 1.965 . S
Zn1 O17 2.024 . S
C2 O3 1.229 . S
C2 O11 1.058 . S
O3 C2 1.229 . S
C4 O5 1.229 . S
C4 O17 1.058 . S
O5 C4 1.229 . S
O6 Zn0 1.969 . S
O6 C9 1.267 . S
O7 Zn0 1.965 . S
O7 C18 1.260 . S
O8 Zn1 1.969 . S
O8 C18 1.258 . S
C9 O6 1.267 . S
C9 O10 1.228 . S
O10 C9 1.228 . S
O11 Zn0 2.024 . S
O11 C2 1.058 . S
C12 O13 1.228 . S
C12 O14 1.267 . S
O13 C12 1.228 . S
O14 Zn1 1.969 1_655 S
O14 C12 1.267 . S
O15 Zn1 1.965 . S
O15 C19 1.260 . S
O16 Zn0 1.969 . S
O16 C19 1.258 . S
O17 Zn1 2.024 . S
O17 C4 1.058 . S
C18 O7 1.260 . S
C18 O8 1.258 . S
C19 O15 1.260 . S
C19 O16 1.258 . S
Zn20 O26 1.969 . S
Zn20 O27 1.965 . S
Zn20 O31 2.024 . S
Zn20 O36 1.969 . S
Zn21 O28 1.969 . S
Zn21 O34 1.969 1_545 S
Zn21 O35 1.965 . S
Zn21 O37 2.024 . S
C22 O23 1.229 . S
C22 O31 1.058 . S
O23 C22 1.229 . S
C24 O25 1.229 . S
C24 O37 1.058 . S
O25 C24 1.229 . S
O26 Zn20 1.969 . S
O26 C29 1.267 . S
O27 Zn20 1.965 . S
O27 C38 1.260 . S
O28 Zn21 1.969 . S
O28 C38 1.258 . S
C29 O26 1.267 . S
C29 O30 1.228 . S
O30 C29 1.228 . S
O31 Zn20 2.024 . S
O31 C22 1.058 . S
C32 O33 1.228 . S
C32 O34 1.267 . S
O33 C32 1.228 . S
O34 Zn21 1.969 1_565 S
O34 C32 1.267 . S
O35 Zn21 1.965 . S
O35 C39 1.260 . S
O36 Zn20 1.969 . S
O36 C39 1.258 . S
O37 Zn21 2.024 . S
O37 C24 1.058 . S
C38 O27 1.260 . S
C38 O28 1.258 . S
C39 O35 1.260 . S
C39 O36 1.258 . S
Zn40 O46 1.969 . S
Zn40 O47 1.965 . S
Zn40 O51 2.024 . S
Zn40 O56 1.969 . S
Zn41 O48 1.969 . S
Zn41 O54 1.969 . S
Zn41 O55 1.965 . S
Zn41 O57 2.024 . S
C42 O43 1.229 . S
C42 O51 1.058 . S
O43 C42 1.229 . S
C44 O45 1.229 . S
C44 O57 1.058 . S
O45 C44 1.229 . S
O46 Zn40 1.969 . S
O46 C49 1.267 . S
O47 Zn40 1.965 . S
O47 C58 1.260 . S
O48 Zn41 1.969 . S
O48 C58 1.258 . S
C49 O46 1.267 . S
C49 O50 1.228 . S
O50 C49 1.228 . S
O51 Zn40 2.024 . S
O51 C42 1.058 . S
C52 O53 1.228 . S
C52 O54 1.267 . S
O53 C52 1.228 . S
O54 Zn41 1.969 . S
O54 C52 1.267 . S
O55 Zn41 1.965 . S
O55 C59 1.260 . S
O56 Zn40 1.969 . S
O56 C59 1.258 . S
O57 Zn41 2.024 . S
O57 C44 1.058 . S
C58 O47 1.260 . S
C58 O48 1.258 . S
C59 O55 1.260 . S
C59 O56 1.258 . S
Zn60 O66 1.969 . S
Zn60 O67 1.965 . S
Zn60 O71 2.024 . S
Zn60 O76 1.969 . S
Zn61 O68 1.969 . S
Zn61 O74 1.969 . S
Zn61 O75 1.965 . S
Zn61 O77 2.024 . S
C62 O63 1.229 . S
C62 O71 1.058 . S
O63 C62 1.229 . S
C64 O65 1.229 . S
C64 O77 1.058 . S
O65 C64 1.229 . S
O66 Zn60 1.969 . S
O66 C69 1.267 . S
O67 Zn60 1.965 . S
O67 C78 1.260 . S
O68 Zn61 1.969 . S
O68 C78 1.258 . S
C69 O66 1.267 . S
C69 O70 1.228 . S
O70 C69 1.228 . S
O71 Zn60 2.024 . S
O71 C62 1.058 . S
C72 O73 1.228 . S
C72 O74 1.267 . S
O73 C72 1.228 . S
O74 Zn61 1.969 . S
O74 C72 1.267 . S
O75 Zn61 1.965 . S
O75 C79 1.260 . S
O76 Zn60 1.969 . S
O76 C79 1.258 . S
O77 Zn61 2.024 . S
O77 C64 1.058 . S
C78 O67 1.260 . S
C78 O68 1.258 . S
C79 O75 1.260 . S
C79 O76 1.258 . S
Zn80 O86 1.969 . S
Zn80 O87 1.965 . S
Zn80 O91 2.024 . S
Zn80 O96 1.969 . S
Zn81 O88 1.969 . S
Zn81 O94 1.969 1_455 S
Zn81 O95 1.965 . S
Zn81 O97 2.024 . S
C82 O83 1.229 . S
C82 O91 1.058 . S
O83 C82 1.229 . S
C84 O85 1.229 . S
C84 O97 1.058 . S
O85 C84 1.229 . S
O86 Zn80 1.969 . S
O86 C89 1.267 . S
O87 Zn80 1.965 . S
O87 C98 1.260 . S
O88 Zn81 1.969 . S
O88 C98 1.258 . S
C89 O86 1.267 . S
C89 O90 1.228 . S
O90 C89 1.228 . S
O91 Zn80 2.024 . S
O91 C82 1.058 . S
C92 O93 1.228 . S
C92 O94 1.267 . S
O93 C92 1.228 . S
O94 Zn81 1.969 1_655 S
O94 C92 1.267 . S
O95 Zn81 1.965 . S
O95 C99 1.260 . S
O96 Zn80 1.969 . S
O96 C99 1.258 . S
O97 Zn81 2.024 . S
O97 C84 1.058 . S
C98 O87 1.260 . S
C98 O88 1.258 . S
C99 O95 1.260 . S
C99 O96 1.258 . S
Zn100 O106 1.969 . S
Zn100 O107 1.965 . S
Zn100 O111 2.024 . S
Zn100 O116 1.969 . S
Zn101 O108 1.969 . S
Zn101 O114 1.969 1_545 S
Zn101 O115 1.965 . S
Zn101 O117 2.024 . S
C102 O103 1.229 . S
C102 O111 1.058 . S
O103 C102 1.229 . S
C104 O105 1.229 . S
C104 O117 1.058 . S
O105 C104 1.229 . S
O106 Zn100 1.969 . S
O106 C109 1.267 . S
O107 Zn100 1.965 . S
O107 C118 1.260 . S
O108 Zn101 1.969 . S
O108 C118 1.258 . S
C109 O106 1.267 . S
C109 O110 1.228 . S
O110 C109 1.228 . S
O111 Zn100 2.024 . S
O111 C102 1.058 . S
C112 O113 1.228 . S
C112 O114 1.267 . S
O113 C112 1.228 . S
O114 Zn101 1.969 1_565 S
O114 C112 1.267 . S
O115 Zn101 1.965 . S
O115 C119 1.260 . S
O116 Zn100 1.969 . S
O116 C119 1.258 . S
O117 Zn101 2.024 . S
O117 C104 1.058 . S
C118 O107 1.260 . S
C118 O108 1.258 . S
C119 O115 1.260 . S
C119 O116 1.258 . S
Zn120 O126 1.969 . S
Zn120 O127 1.965 . S
Zn120 O131 2.024 . S
Zn120 O136 1.969 . S
Zn121 O128 1.969 . S
Zn121 O134 1.969 . S
Zn121 O135 1.965 . S
Zn121 O137 2.024 . S
C122 O123 1.229 . S
C122 O131 1.058 . S
O123 C122 1.229 . S
C124 O125 1.229 . S
C124 O137 1.058 . S
O125 C124 1.229 . S
O126 Zn120 1.969 . S
O126 C129 1.267 . S
O127 Zn120 1.965 . S
O127 C138 1.260 . S
O128 Zn121 1.969 . S
O128 C138 1.258 . S
C129 O126 1.267 . S
C129 O130 1.228 . S
O130 C129 1.228 . S
O131 Zn120 2.024 . S
O131 C122 1.058 . S
C132 O133 1.228 . S
C132 O134 1.267 . S
O133 C132 1.228 . S
O134 Zn121 1.969 . S
O134 C132 1.267 . S
O135 Zn121 1.965 . S
O135 C139 1.260 . S
O136 Zn120 1.969 . S
O136 C139 1.258 . S
O137 Zn121 2.024 . S
O137 C124 1.058 . S
C138 O127 1.260 . S
C138 O128 1.258 . S
C139 O135 1.260 . S
C139 O136 1.258 . S
Zn140 O146 1.969 . S
Zn140 O147 1.965 . S
Zn140 O151 2.024 . S
Zn140 O156 1.969 . S
Zn141 O148 1.969 . S
Zn141 O154 1.969 . S
Zn141 O155 1.965 . S
Zn141 O157 2.024 . S
C142 O143 1.229 . S
C142 O151 1.058 . S
O143 C142 1.229 . S
C144 O145 1.229 . S
C144 O157 1.058 . S
O145 C144 1.229 . S
O146 Zn140 1.969 . S
O146 C149 1.267 . S
O147 Zn140 1.965 . S
O147 C158 1.260 . S
O148 Zn141 1.969 . S
O148 C158 1.258 . S
C149 O146 1.267 . S
C149 O150 1.228 . S
O150 C149 1.228 . S
O151 Zn140 2.024 . S
O151 C142 1.058 . S
C152 O153 1.228 . S
C152 O154 1.267 . S
O153 C152 1.228 . S
O154 Zn141 1.969 . S
O154 C152 1.267 . S
O155 Zn141 1.965 . S
O155 C159 1.260 . S
O156 Zn140 1.969 . S
O156 C159 1.258 . S
O157 Zn141 2.024 . S
O157 C144 1.058 . S
C158 O147 1.260 . S
C158 O148 1.258 . S
C159 O155 1.260 . S
C159 O156 1.258 . S
Zn160 O166 1.969 1_655 S
Zn160 O167 1.965 . S
Zn160 O171 2.024 . S
Zn160 O176 1.969 . S
Zn161 O168 1.969 . S
Zn161 O174 1.969 . S
Zn161 O175 1.965 . S
Zn161 O177 2.024 . S
C162 O163 1.229 . S
C162 O171 1.058 . S
O163 C162 1.229 . S
C164 O165 1.229 . S
C164 O177 1.058 . S
O165 C164 1.229 . S
O166 Zn160 1.969 1_455 S
O166 C169 1.267 . S
O167 Zn160 1.965 . S
O167 C178 1.260 . S
O168 Zn161 1.969 . S
O168 C178 1.258 . S
C169 O166 1.267 . S
C169 O170 1.228 . S
O170 C169 1.228 . S
O171 Zn160 2.024 . S
O171 C162 1.058 . S
C172 O173 1.228 . S
C172 O174 1.267 . S
O173 C172 1.228 . S
O174 Zn161 1.969 . S
O174 C172 1.267 . S
O175 Zn161 1.965 . S
O175 C179 1.260 . S
O176 Zn160 1.969 . S
O176 C179 1.258 . S
O177 Zn161 2.024 . S
O177 C164 1.058 . S
C178 O167 1.260 . S
C178 O168 1.258 . S
C179 O175 1.260 . S
C179 O176 1.258 . S
Zn180 O186 1.969 1_565 S
Zn180 O187 1.965 . S
Zn180 O191 2.024 . S
Zn180 O196 1.969 . S
Zn181 O188 1.969 . S
Zn181 O194 1.969 . S
Zn181 O195 1.965 . S
Zn181 O197 2.024 . S
C182 O183 1.229 . S
C182 O191 1.058 . S
O183 C182 1.229 . S
C184 O185 1.229 . S
C184 O197 1.058 . S
O185 C184 1.229 . S
O186 Zn180 1.969 1_545 S
O186 C189 1.267 . S
O187 Zn180 1.965 . S
O187 C198 1.260 . S
O188 Zn181 1.969 . S
O188 C198 1.258 . S
C189 O186 1.267 . S
C189 O190 1.228 . S
O190 C189 1.228 . S
O191 Zn180 2.024 . S
O191 C182 1.058 . S
C192 O193 1.228 . S
C192 O194 1.267 . S
O193 C192 1.228 . S
O194 Zn181 1.969 . S
O194 C192 1.267 . S
O195 Zn181 1.965 . S
O195 C199 1.260 . S
O196 Zn180 1.969 . S
O196 C199 1.258 . S
O197 Zn181 2.024 . S
O197 C184 1.058 . S
C198 O187 1.260 . S
C198 O188 1.258 . S
C199 O195 1.260 . S
C199 O196 1.258 . S
Zn200 O206 1.969 . S
Zn200 O207 1.965 . S
Zn200 O211 2.024 . S
Zn200 O216 1.969 . S
Zn201 O208 1.969 . S
Zn201 O214 1.969 . S
Zn201 O215 1.965 . S
Zn201 O217 2.024 . S
C202 O203 1.229 . S
C202 O211 1.058 . S
O203 C202 1.229 . S
C204 O205 1.229 . S
C204 O217 1.058 . S
O205 C204 1.229 . S
O206 Zn200 1.969 . S
O206 C209 1.267 . S
O207 Zn200 1.965 . S
O207 C218 1.260 . S
O208 Zn201 1.969 . S
O208 C218 1.258 . S
C209 O206 1.267 . S
C209 O210 1.228 . S
O210 C209 1.228 . S
O211 Zn200 2.024 . S
O211 C202 1.058 . S
C212 O213 1.228 . S
C212 O214 1.267 . S
O213 C212 1.228 . S
O214 Zn201 1.969 . S
O214 C212 1.267 . S
O215 Zn201 1.965 . S
O215 C219 1.260 . S
O216 Zn200 1.969 . S
O216 C219 1.258 . S
O217 Zn201 2.024 . S
O217 C204 1.058 . S
C218 O207 1.260 . S
C218 O208 1.258 . S
C219 O215 1.260 . S
C219 O216 1.258 . S
Zn220 O226 1.969 . S
Zn220 O227 1.965 . S
Zn220 O231 2.024 . S
Zn220 O236 1.969 . S
Zn221 O228 1.969 . S
Zn221 O234 1.969 . S
Zn221 O235 1.965 . S
Zn221 O237 2.024 . S
C222 O223 1.229 . S
C222 O231 1.058 . S
O223 C222 1.229 . S
C224 O225 1.229 . S
C224 O237 1.058 . S
O225 C224 1.229 . S
O226 Zn220 1.969 . S
O226 C229 1.267 . S
O227 Zn220 1.965 . S
O227 C238 1.260 . S
O228 Zn221 1.969 . S
O228 C238 1.258 . S
C229 O226 1.267 . S
C229 O230 1.228 . S
O230 C229 1.228 . S
O231 Zn220 2.024 . S
O231 C222 1.058 . S
C232 O233 1.228 . S
C232 O234 1.267 . S
O233 C232 1.228 . S
O234 Zn221 1.969 . S
O234 C232 1.267 . S
O235 Zn221 1.965 . S
O235 C239 1.260 . S
O236 Zn220 1.969 . S
O236 C239 1.258 . S
O237 Zn221 2.024 . S
O237 C224 1.058 . S
C238 O227 1.260 . S
C238 O228 1.258 . S
C239 O235 1.260 . S
C239 O236 1.258 . S
Zn240 O246 1.969 1_655 S
Zn240 O247 1.965 . S
Zn240 O251 2.024 . S
Zn240 O256 1.969 . S
Zn241 O248 1.969 . S
Zn241 O254 1.969 . S
Zn241 O255 1.965 . S
Zn241 O257 2.024 . S
C242 O243 1.229 . S
C242 O251 1.058 . S
O243 C242 1.229 . S
C244 O245 1.229 . S
C244 O257 1.058 . S
O245 C244 1.229 . S
O246 Zn240 1.969 1_455 S
O246 C249 1.267 . S
O247 Zn240 1.965 . S
O247 C258 1.260 . S
O248 Zn241 1.969 . S
O248 C258 1.258 . S
C249 O246 1.267 . S
C249 O250 1.228 . S
O250 C249 1.228 . S
O251 Zn240 2.024 . S
O251 C242 1.058 . S
C252 O253 1.228 . S
C252 O254 1.267 . S
O253 C252 1.228 . S
O254 Zn241 1.969 . S
O254 C252 1.267 . S
O255 Zn241 1.965 . S
O255 C259 1.260 . S
O256 Zn240 1.969 . S
O256 C259 1.258 . S
O257 Zn241 2.024 . S
O257 C244 1.058 . S
C258 O247 1.260 . S
C258 O248 1.258 . S
C259 O255 1.260 . S
C259 O256 1.258 . S
Zn260 O266 1.969 1_565 S
Zn260 O267 1.965 . S
Zn260 O271 2.024 . S
Zn260 O276 1.969 . S
Zn261 O268 1.969 . S
Zn261 O274 1.969 . S
Zn261 O275 1.965 . S
Zn261 O277 2.024 . S
C262 O263 1.229 . S
C262 O271 1.058 . S
O263 C262 1.229 . S
C264 O265 1.229 . S
C264 O277 1.058 . S
O265 C264 1.229 . S
O266 Zn260 1.969 1_545 S
O266 C269 1.267 . S
O267 Zn260 1.965 . S
O267 C278 1.260 . S
O268 Zn261 1.969 . S
O268 C278 1.258 . S
C269 O266 1.267 . S
C269 O270 1.228 . S
O270 C269 1.228 . S
O271 Zn260 2.024 . S
O271 C262 1.058 . S
C272 O273 1.228 . S
C272 O274 1.267 . S
O273 C272 1.228 . S
O274 Zn261 1.969 . S
O274 C272 1.267 . S
O275 Zn261 1.965 . S
O275 C279 1.260 . S
O276 Zn260 1.969 . S
O276 C279 1.258 . S
O277 Zn261 2.024 . S
O277 C264 1.058 . S
C278 O267 1.260 . S
C278 O268 1.258 . S
C279 O275 1.260 . S
C279 O276 1.258 . S
Zn280 O286 1.969 . S
Zn280 O287 1.965 . S
Zn280 O291 2.024 . S
Zn280 O296 1.969 . S
Zn281 O288 1.969 . S
Zn281 O294 1.969 . S
Zn281 O295 1.965 . S
Zn281 O297 2.024 . S
C282 O283 1.229 . S
C282 O291 1.058 . S
O283 C282 1.229 . S
C284 O285 1.229 . S
C284 O297 1.058 . S
O285 C284 1.229 . S
O286 Zn280 1.969 . S
O286 C289 1.267 . S
O287 Zn280 1.965 . S
O287 C298 1.260 . S
O288 Zn281 1.969 . S
O288 C298 1.258 . S
C289 O286 1.267 . S
C289 O290 1.228 . S
O290 C289 1.228 . S
O291 Zn280 2.024 . S
O291 C282 1.058 . S
C292 O293 1.228 . S
C292 O294 1.267 . S
O293 C292 1.228 . S
O294 Zn281 1.969 . S
O294 C292 1.267 . S
O295 Zn281 1.965 . S
O295 C299 1.260 . S
O296 Zn280 1.969 . S
O296 C299 1.258 . S
O297 Zn281 2.024 . S
O297 C284 1.058 . S
C298 O287 1.260 . S
C298 O288 1.258 . S
C299 O295 1.260 . S
C299 O296 1.258 . S
Zn300 O306 1.969 . S
Zn300 O307 1.965 . S
Zn300 O311 2.024 . S
Zn300 O316 1.969 . S
Zn301 O308 1.969 . S
Zn301 O314 1.969 . S
Zn301 O315 1.965 . S
Zn301 O317 2.024 . S
C302 O303 1.229 . S
C302 O311 1.058 . S
O303 C302 1.229 . S
C304 O305 1.229 . S
C304 O317 1.058 . S
O305 C304 1.229 . S
O306 Zn300 1.969 . S
O306 C309 1.267 . S
O307 Zn300 1.965 . S
O307 C318 1.260 . S
O308 Zn301 1.969 . S
O308 C318 1.258 . S
C309 O306 1.267 . S
C309 O310 1.228 . S
O310 C309 1.228 . S
O311 Zn300 2.024 . S
O311 C302 1.058 . S
C312 O313 1.228 . S
C312 O314 1.267 . S
O313 C312 1.228 . S
O314 Zn301 1.969 . S
O314 C312 1.267 . S
O315 Zn301 1.965 . S
O315 C319 1.260 . S
O316 Zn300 1.969 . S
O316 C319 1.258 . S
O317 Zn301 2.024 . S
O317 C304 1.058 . S
C318 O307 1.260 . S
C318 O308 1.258 . S
C319 O315 1.260 . S
C319 O316 1.258 . S
H320 C328 0.950 . S
H321 C333 0.950 . S
H322 C330 0.950 . S
H323 C332 0.950 . S
H324 C334 0.950 . S
H325 C336 0.950 . S
H326 C338 0.950 . S
H327 C339 0.950 . S
C328 H320 0.950 . S
C328 C329 1.386 . S
C328 C330 1.391 . S
C329 C328 1.386 . S
C329 C333 1.393 . S
C330 H322 0.950 . S
C330 C328 1.391 . S
C330 C331 1.400 . S
C331 C330 1.400 . S
C331 C332 1.398 . S
C331 C337 1.491 . S
C332 H323 0.950 . S
C332 C331 1.398 . S
C332 C333 1.391 . S
C333 H321 0.950 . S
C333 C329 1.393 . S
C333 C332 1.391 . S
C334 H324 0.950 . S
C334 C335 1.386 . S
C334 C336 1.391 . S
C335 C334 1.386 . S
C335 C339 1.393 . S
C336 H325 0.950 . S
C336 C334 1.391 . S
C336 C337 1.400 . S
C337 C331 1.491 . S
C337 C336 1.400 . S
C337 C338 1.398 . S
C338 H326 0.950 . S
C338 C337 1.398 . S
C338 C339 1.391 . S
C339 H327 0.950 . S
C339 C335 1.393 . S
C339 C338 1.391 . S
H340 C348 0.950 1_655 S
H341 C353 0.950 . S
H342 C350 0.950 . S
H343 C352 0.950 . S
H344 C354 0.947 1_455 S
H345 C356 0.950 . S
H346 C358 0.950 . S
H347 C359 0.950 . S
C348 H340 0.950 1_455 S
C348 C349 1.386 . S
C348 C350 1.391 1_455 S
C349 C348 1.386 . S
C349 C353 1.393 . S
C350 H342 0.950 . S
C350 C348 1.391 1_655 S
C350 C351 1.400 1_655 S
C351 C350 1.400 1_455 S
C351 C352 1.398 . S
C351 C357 1.491 1_455 S
C352 H343 0.950 . S
C352 C351 1.398 . S
C352 C353 1.391 . S
C353 H341 0.950 . S
C353 C349 1.393 . S
C353 C352 1.391 . S
C354 H344 0.947 1_655 S
C354 C355 1.386 . S
C354 C356 1.391 1_655 S
C355 C354 1.386 . S
C355 C359 1.393 . S
C356 H345 0.950 . S
C356 C354 1.391 1_455 S
C356 C357 1.400 1_455 S
C357 C351 1.491 1_655 S
C357 C356 1.400 1_655 S
C357 C358 1.398 . S
C358 H346 0.950 . S
C358 C357 1.398 . S
C358 C359 1.391 . S
C359 H347 0.950 . S
C359 C355 1.393 . S
C359 C358 1.391 . S
H360 C368 0.950 . S
H361 C373 0.950 . S
H362 C370 0.950 . S
H363 C372 0.950 1_545 S
H364 C374 0.950 . S
H365 C376 0.950 . S
H366 C378 0.950 . S
H367 C379 0.950 . S
C368 H360 0.950 . S
C368 C369 1.386 . S
C368 C370 1.391 . S
C369 C368 1.386 . S
C369 C373 1.393 . S
C370 H362 0.950 . S
C370 C368 1.391 . S
C370 C371 1.400 . S
C371 C370 1.400 . S
C371 C372 1.398 . S
C371 C377 1.491 . S
C372 H363 0.950 1_565 S
C372 C371 1.398 . S
C372 C373 1.391 . S
C373 H361 0.950 . S
C373 C369 1.393 . S
C373 C372 1.391 . S
C374 H364 0.950 . S
C374 C375 1.386 . S
C374 C376 1.391 . S
C375 C374 1.386 . S
C375 C379 1.393 1_545 S
C376 H365 0.950 . S
C376 C374 1.391 . S
C376 C377 1.400 1_545 S
C377 C371 1.491 . S
C377 C376 1.400 1_565 S
C377 C378 1.398 . S
C378 H366 0.950 . S
C378 C377 1.398 . S
C378 C379 1.391 . S
C379 H367 0.950 . S
C379 C375 1.393 1_565 S
C379 C378 1.391 . S
H380 C388 0.950 . S
H381 C393 0.950 . S
H382 C390 0.950 . S
H383 C392 0.950 . S
H384 C394 0.950 . S
H385 C396 0.950 . S
H386 C398 0.950 . S
H387 C399 0.950 . S
C388 H380 0.950 . S
C388 C389 1.386 . S
C388 C390 1.391 . S
C389 C388 1.386 . S
C389 C393 1.393 . S
C390 H382 0.950 . S
C390 C388 1.391 . S
C390 C391 1.400 . S
C391 C390 1.400 . S
C391 C392 1.398 . S
C391 C397 1.491 . S
C392 H383 0.950 . S
C392 C391 1.398 . S
C392 C393 1.391 . S
C393 H381 0.950 . S
C393 C389 1.393 . S
C393 C392 1.391 . S
C394 H384 0.950 . S
C394 C395 1.386 . S
C394 C396 1.391 . S
C395 C394 1.386 . S
C395 C399 1.393 . S
C396 H385 0.950 . S
C396 C394 1.391 . S
C396 C397 1.400 . S
C397 C391 1.491 . S
C397 C396 1.400 . S
C397 C398 1.398 . S
C398 H386 0.950 . S
C398 C397 1.398 . S
C398 C399 1.391 . S
C399 H387 0.950 . S
C399 C395 1.393 . S
C399 C398 1.391 . S
H400 C408 0.950 . S
H401 C413 0.950 . S
H402 C410 0.950 . S
H403 C412 0.950 1_545 S
H404 C414 0.950 . S
H405 C416 0.950 . S
H406 C418 0.950 . S
H407 C419 0.950 1_565 S
C408 H400 0.950 . S
C408 C409 1.386 . S
C408 C410 1.391 . S
C409 C408 1.386 . S
C409 C413 1.393 . S
C410 H402 0.950 . S
C410 C408 1.391 . S
C410 C411 1.400 . S
C411 C410 1.400 . S
C411 C412 1.398 . S
C411 C417 1.491 1_565 S
C412 H403 0.950 1_565 S
C412 C411 1.398 . S
C412 C413 1.391 . S
C413 H401 0.950 . S
C413 C409 1.393 . S
C413 C412 1.391 . S
C414 H404 0.950 . S
C414 C415 1.386 . S
C414 C416 1.391 . S
C415 C414 1.386 . S
C415 C419 1.393 . S
C416 H405 0.950 . S
C416 C414 1.391 . S
C416 C417 1.400 . S
C417 C411 1.491 1_545 S
C417 C416 1.400 . S
C417 C418 1.398 1_545 S
C418 H406 0.950 . S
C418 C417 1.398 1_565 S
C418 C419 1.391 1_565 S
C419 H407 0.950 1_545 S
C419 C415 1.393 . S
C419 C418 1.391 1_545 S
H420 C428 0.950 . S
H421 C433 0.950 . S
H422 C430 0.950 . S
H423 C432 0.950 . S
H424 C434 0.950 . S
H425 C436 0.950 . S
H426 C438 0.950 . S
H427 C439 0.950 . S
C428 H420 0.950 . S
C428 C429 1.386 . S
C428 C430 1.391 . S
C429 C428 1.386 . S
C429 C433 1.393 . S
C430 H422 0.950 . S
C430 C428 1.391 . S
C430 C431 1.400 . S
C431 C430 1.400 . S
C431 C432 1.398 . S
C431 C437 1.491 . S
C432 H423 0.950 . S
C432 C431 1.398 . S
C432 C433 1.391 . S
C433 H421 0.950 . S
C433 C429 1.393 . S
C433 C432 1.391 . S
C434 H424 0.950 . S
C434 C435 1.386 . S
C434 C436 1.391 . S
C435 C434 1.386 . S
C435 C439 1.393 . S
C436 H425 0.950 . S
C436 C434 1.391 . S
C436 C437 1.400 . S
C437 C431 1.491 . S
C437 C436 1.400 . S
C437 C438 1.398 . S
C438 H426 0.950 . S
C438 C437 1.398 . S
C438 C439 1.391 . S
C439 H427 0.950 . S
C439 C435 1.393 . S
C439 C438 1.391 . S
H440 C448 0.950 . S
H441 C453 0.950 . S
H442 C450 0.950 . S
H443 C452 0.950 . S
H444 C454 0.950 . S
H445 C456 0.950 . S
H446 C458 0.950 . S
H447 C459 0.950 . S
C448 H440 0.950 . S
C448 C449 1.386 . S
C448 C450 1.391 . S
C449 C448 1.386 . S
C449 C453 1.393 . S
C450 H442 0.950 . S
C450 C448 1.391 . S
C450 C451 1.400 . S
C451 C450 1.400 . S
C451 C452 1.398 . S
C451 C457 1.491 . S
C452 H443 0.950 . S
C452 C451 1.398 . S
C452 C453 1.391 . S
C453 H441 0.950 . S
C453 C449 1.393 . S
C453 C452 1.391 . S
C454 H444 0.950 . S
C454 C455 1.386 . S
C454 C456 1.391 . S
C455 C454 1.386 . S
C455 C459 1.393 . S
C456 H445 0.950 . S
C456 C454 1.391 . S
C456 C457 1.400 . S
C457 C451 1.491 . S
C457 C456 1.400 . S
C457 C458 1.398 . S
C458 H446 0.950 . S
C458 C457 1.398 . S
C458 C459 1.391 . S
C459 H447 0.950 . S
C459 C455 1.393 . S
C459 C458 1.391 . S
H460 C468 0.950 . S
H461 C473 0.950 . S
H462 C470 0.950 . S
H463 C472 0.957 . S
H464 C474 0.950 . S
H465 C476 0.950 . S
H466 C478 0.950 . S
H467 C479 0.950 1_455 S
C468 H460 0.950 . S
C468 C469 1.386 . S
C468 C470 1.391 . S
C469 C468 1.386 . S
C469 C473 1.393 . S
C470 H462 0.950 . S
C470 C468 1.391 . S
C470 C471 1.400 . S
C471 C470 1.400 . S
C471 C472 1.395 1_455 S
C471 C477 1.491 1_455 S
C472 H463 0.957 . S
C472 C471 1.395 1_655 S
C472 C473 1.387 1_655 S
C473 H461 0.950 . S
C473 C469 1.393 . S
C473 C472 1.387 1_455 S
C474 H464 0.950 . S
C474 C475 1.386 . S
C474 C476 1.391 . S
C475 C474 1.386 . S
C475 C479 1.393 . S
C476 H465 0.950 . S
C476 C474 1.391 . S
C476 C477 1.400 . S
C477 C471 1.491 1_655 S
C477 C476 1.400 . S
C477 C478 1.398 1_655 S
C478 H466 0.950 . S
C478 C477 1.398 1_455 S
C478 C479 1.391 1_455 S
C479 H467 0.950 1_655 S
C479 C475 1.393 . S
C479 C478 1.391 1_655 S
H480 C488 0.950 . S
H481 C493 0.950 . S
H482 C490 0.950 . S
H483 C492 0.950 . S
H484 C494 0.950 . S
H485 C496 0.950 . S
H486 C498 0.950 . S
H487 C499 0.950 . S
C488 H480 0.950 . S
C488 C489 1.386 . S
C488 C490 1.391 . S
C489 C488 1.386 . S
C489 C493 1.393 . S
C490 H482 0.950 . S
C490 C488 1.391 . S
C490 C491 1.400 . S
C491 C490 1.400 . S
C491 C492 1.398 . S
C491 C497 1.491 . S
C492 H483 0.950 . S
C492 C491 1.398 . S
C492 C493 1.391 . S
C493 H481 0.950 . S
C493 C489 1.393 . S
C493 C492 1.391 . S
C494 H484 0.950 . S
C494 C495 1.386 . S
C494 C496 1.391 . S
C495 C494 1.386 . S
C495 C499 1.393 . S
C496 H485 0.950 . S
C496 C494 1.391 . S
C496 C497 1.400 . S
C497 C491 1.491 . S
C497 C496 1.400 . S
C497 C498 1.398 . S
C498 H486 0.950 . S
C498 C497 1.398 . S
C498 C499 1.391 . S
C499 H487 0.950 . S
C499 C495 1.393 . S
C499 C498 1.391 . S
H500 C508 0.950 . S
H501 C513 0.950 1_455 S
H502 C510 0.950 . S
H503 C512 0.950 . S
H504 C514 0.950 . S
H505 C516 0.950 . S
H506 C518 0.950 . S
H507 C519 0.950 1_655 S
C508 H500 0.950 . S
C508 C509 1.386 . S
C508 C510 1.391 . S
C509 C508 1.386 . S
C509 C513 1.393 . S
C510 H502 0.950 . S
C510 C508 1.391 . S
C510 C511 1.400 . S
C511 C510 1.400 . S
C511 C512 1.398 1_655 S
C511 C517 1.491 1_655 S
C512 H503 0.950 . S
C512 C511 1.398 1_455 S
C512 C513 1.391 1_455 S
C513 H501 0.950 1_655 S
C513 C509 1.393 . S
C513 C512 1.391 1_655 S
C514 H504 0.950 . S
C514 C515 1.386 . S
C514 C516 1.391 . S
C515 C514 1.386 . S
C515 C519 1.393 . S
C516 H505 0.950 . S
C516 C514 1.391 . S
C516 C517 1.400 . S
C517 C511 1.491 1_455 S
C517 C516 1.400 . S
C517 C518 1.398 1_455 S
C518 H506 0.950 . S
C518 C517 1.398 1_655 S
C518 C519 1.391 1_655 S
C519 H507 0.950 1_455 S
C519 C515 1.393 . S
C519 C518 1.391 1_455 S
H520 C528 0.950 . S
H521 C533 0.950 . S
H522 C530 0.950 . S
H523 C532 0.950 . S
H524 C534 0.950 . S
H525 C536 0.950 . S
H526 C538 0.950 . S
H527 C539 0.950 . S
C528 H520 0.950 . S
C528 C529 1.386 . S
C528 C530 1.391 . S
C529 C528 1.386 . S
C529 C533 1.393 . S
C530 H522 0.950 . S
C530 C528 1.391 . S
C530 C531 1.400 1_565 S
C531 C530 1.400 1_545 S
C531 C532 1.398 . S
C531 C537 1.491 . S
C532 H523 0.950 . S
C532 C531 1.398 . S
C532 C533 1.391 1_545 S
C533 H521 0.950 . S
C533 C529 1.393 . S
C533 C532 1.391 1_565 S
C534 H524 0.950 . S
C534 C535 1.386 . S
C534 C536 1.391 . S
C535 C534 1.386 . S
C535 C539 1.393 . S
C536 H525 0.950 . S
C536 C534 1.391 . S
C536 C537 1.400 . S
C537 C531 1.491 . S
C537 C536 1.400 . S
C537 C538 1.398 . S
C538 H526 0.950 . S
C538 C537 1.398 . S
C538 C539 1.391 . S
C539 H527 0.950 . S
C539 C535 1.393 . S
C539 C538 1.391 . S
H540 C548 0.950 . S
H541 C553 0.950 . S
H542 C550 0.950 . S
H543 C552 0.950 . S
H544 C554 0.950 . S
H545 C556 0.950 . S
H546 C558 0.950 . S
H547 C559 0.950 . S
C548 H540 0.950 . S
C548 C549 1.386 . S
C548 C550 1.391 . S
C549 C548 1.386 . S
C549 C553 1.393 . S
C550 H542 0.950 . S
C550 C548 1.391 . S
C550 C551 1.400 . S
C551 C550 1.400 . S
C551 C552 1.398 . S
C551 C557 1.491 . S
C552 H543 0.950 . S
C552 C551 1.398 . S
C552 C553 1.391 . S
C553 H541 0.950 . S
C553 C549 1.393 . S
C553 C552 1.391 . S
C554 H544 0.950 . S
C554 C555 1.386 . S
C554 C556 1.391 . S
C555 C554 1.386 . S
C555 C559 1.393 . S
C556 H545 0.950 . S
C556 C554 1.391 . S
C556 C557 1.400 . S
C557 C551 1.491 . S
C557 C556 1.400 . S
C557 C558 1.398 . S
C558 H546 0.950 . S
C558 C557 1.398 . S
C558 C559 1.391 . S
C559 H547 0.950 . S
C559 C555 1.393 . S
C559 C558 1.391 . S
H560 C568 0.950 . S
H561 C573 0.950 . S
H562 C570 0.950 . S
H563 C572 0.950 . S
H564 C574 0.950 . S
H565 C576 0.950 . S
H566 C578 0.950 . S
H567 C579 0.950 . S
C568 H560 0.950 . S
C568 C569 1.386 . S
C568 C570 1.391 . S
C569 C568 1.386 . S
C569 C573 1.393 . S
C570 H562 0.950 . S
C570 C568 1.391 . S
C570 C571 1.400 . S
C571 C570 1.400 . S
C571 C572 1.398 . S
C571 C577 1.491 1_545 S
C572 H563 0.950 . S
C572 C571 1.398 . S
C572 C573 1.391 . S
C573 H561 0.950 . S
C573 C569 1.393 . S
C573 C572 1.391 . S
C574 H564 0.950 . S
C574 C575 1.386 . S
C574 C576 1.391 . S
C575 C574 1.386 . S
C575 C579 1.393 . S
C576 H565 0.950 . S
C576 C574 1.391 . S
C576 C577 1.400 . S
C577 C571 1.491 1_565 S
C577 C576 1.400 . S
C577 C578 1.398 . S
C578 H566 0.950 . S
C578 C577 1.398 . S
C578 C579 1.391 . S
C579 H567 0.950 . S
C579 C575 1.393 . S
C579 C578 1.391 . S
H580 C588 0.950 . S
H581 C593 0.950 . S
H582 C590 0.950 . S
H583 C592 0.950 . S
H584 C594 0.950 . S
H585 C596 0.950 . S
H586 C598 0.950 . S
H587 C599 0.950 . S
C588 H580 0.950 . S
C588 C589 1.386 . S
C588 C590 1.391 . S
C589 C588 1.386 . S
C589 C593 1.393 . S
C590 H582 0.950 . S
C590 C588 1.391 . S
C590 C591 1.400 . S
C591 C590 1.400 . S
C591 C592 1.398 . S
C591 C597 1.491 . S
C592 H583 0.950 . S
C592 C591 1.398 . S
C592 C593 1.391 . S
C593 H581 0.950 . S
C593 C589 1.393 . S
C593 C592 1.391 . S
C594 H584 0.950 . S
C594 C595 1.386 . S
C594 C596 1.391 . S
C595 C594 1.386 . S
C595 C599 1.393 . S
C596 H585 0.950 . S
C596 C594 1.391 . S
C596 C597 1.400 . S
C597 C591 1.491 . S
C597 C596 1.400 . S
C597 C598 1.398 . S
C598 H586 0.950 . S
C598 C597 1.398 . S
C598 C599 1.391 . S
C599 H587 0.950 . S
C599 C595 1.393 . S
C599 C598 1.391 . S
H600 C608 0.950 . S
H601 C613 0.950 . S
H602 C610 0.950 . S
H603 C612 0.950 . S
H604 C614 0.950 . S
H605 C616 0.950 . S
H606 C618 0.950 . S
H607 C619 0.950 . S
C608 H600 0.950 . S
C608 C609 1.386 . S
C608 C610 1.391 . S
C609 C608 1.386 . S
C609 C613 1.393 . S
C610 H602 0.950 . S
C610 C608 1.391 . S
C610 C611 1.400 . S
C611 C610 1.400 . S
C611 C612 1.398 . S
C611 C617 1.491 . S
C612 H603 0.950 . S
C612 C611 1.398 . S
C612 C613 1.391 . S
C613 H601 0.950 . S
C613 C609 1.393 . S
C613 C612 1.391 . S
C614 H604 0.950 . S
C614 C615 1.386 . S
C614 C616 1.391 . S
C615 C614 1.386 . S
C615 C619 1.393 . S
C616 H605 0.950 . S
C616 C614 1.391 . S
C616 C617 1.400 . S
C617 C611 1.491 . S
C617 C616 1.400 . S
C617 C618 1.398 . S
C618 H606 0.950 . S
C618 C617 1.398 . S
C618 C619 1.391 . S
C619 H607 0.950 . S
C619 C615 1.393 . S
C619 C618 1.391 . S
H620 C628 0.955 . S
H621 C633 0.950 . S
H622 C630 0.950 . S
H623 C632 0.950 . S
H624 C634 0.950 . S
H625 C636 0.950 1_455 S
H626 C638 0.950 . S
H627 C639 0.950 . S
C628 H620 0.955 . S
C628 C629 1.386 . S
C628 C630 1.391 1_455 S
C629 C628 1.386 . S
C629 C633 1.393 . S
C630 H622 0.950 . S
C630 C628 1.391 1_655 S
C630 C631 1.400 1_655 S
C631 C630 1.400 1_455 S
C631 C632 1.398 . S
C631 C637 1.491 1_455 S
C632 H623 0.950 . S
C632 C631 1.398 . S
C632 C633 1.391 . S
C633 H621 0.950 . S
C633 C629 1.393 . S
C633 C632 1.391 . S
C634 H624 0.950 . S
C634 C635 1.386 . S
C634 C636 1.391 . S
C635 C634 1.386 . S
C635 C639 1.393 . S
C636 H625 0.950 1_655 S
C636 C634 1.391 . S
C636 C637 1.400 . S
C637 C631 1.491 1_655 S
C637 C636 1.400 . S
C637 C638 1.398 . S
C638 H626 0.950 . S
C638 C637 1.398 . S
C638 C639 1.391 . S
C639 H627 0.950 . S
C639 C635 1.393 . S
C639 C638 1.391 . S
H640 C648 0.950 . S
H641 C653 0.950 . S
H642 C650 0.950 . S
H643 C652 0.950 . S
H644 C654 0.950 . S
H645 C656 0.950 . S
H646 C658 0.950 . S
H647 C659 0.950 . S
C648 H640 0.950 . S
C648 C649 1.386 . S
C648 C650 1.391 . S
C649 C648 1.386 . S
C649 C653 1.393 . S
C650 H642 0.950 . S
C650 C648 1.391 . S
C650 C651 1.400 . S
C651 C650 1.400 . S
C651 C652 1.398 . S
C651 C657 1.491 . S
C652 H643 0.950 . S
C652 C651 1.398 . S
C652 C653 1.391 . S
C653 H641 0.950 . S
C653 C649 1.393 . S
C653 C652 1.391 . S
C654 H644 0.950 . S
C654 C655 1.386 . S
C654 C656 1.391 . S
C655 C654 1.386 . S
C655 C659 1.393 . S
C656 H645 0.950 . S
C656 C654 1.391 . S
C656 C657 1.400 . S
C657 C651 1.491 . S
C657 C656 1.400 . S
C657 C658 1.398 . S
C658 H646 0.950 . S
C658 C657 1.398 . S
C658 C659 1.391 . S
C659 H647 0.950 . S
C659 C655 1.393 . S
C659 C658 1.391 . S
H660 C668 0.950 . S
H661 C673 0.950 . S
H662 C670 0.950 . S
H663 C672 0.950 . S
H664 C674 0.950 . S
H665 C676 0.950 . S
H666 C678 0.950 . S
H667 C679 0.950 . S
C668 H660 0.950 . S
C668 C669 1.386 . S
C668 C670 1.391 . S
C669 C668 1.386 . S
C669 C673 1.393 . S
C670 H662 0.950 . S
C670 C668 1.391 . S
C670 C671 1.400 . S
C671 C670 1.400 . S
C671 C672 1.398 . S
C671 C677 1.491 . S
C672 H663 0.950 . S
C672 C671 1.398 . S
C672 C673 1.391 . S
C673 H661 0.950 . S
C673 C669 1.393 . S
C673 C672 1.391 . S
C674 H664 0.950 . S
C674 C675 1.386 . S
C674 C676 1.391 . S
C675 C674 1.386 . S
C675 C679 1.393 . S
C676 H665 0.950 . S
C676 C674 1.391 . S
C676 C677 1.400 . S
C677 C671 1.491 . S
C677 C676 1.400 . S
C677 C678 1.398 . S
C678 H666 0.950 . S
C678 C677 1.398 . S
C678 C679 1.391 . S
C679 H667 0.950 . S
C679 C675 1.393 . S
C679 C678 1.391 . S
H680 C688 0.950 . S
H681 C693 0.950 . S
H682 C690 0.950 . S
H683 C692 0.950 . S
H684 C694 0.950 . S
H685 C696 0.950 . S
H686 C698 0.950 . S
H687 C699 0.950 . S
C688 H680 0.950 . S
C688 C689 1.386 . S
C688 C690 1.391 . S
C689 C688 1.386 . S
C689 C693 1.393 . S
C690 H682 0.950 . S
C690 C688 1.391 . S
C690 C691 1.400 . S
C691 C690 1.400 . S
C691 C692 1.398 . S
C691 C697 1.491 . S
C692 H683 0.950 . S
C692 C691 1.398 . S
C692 C693 1.391 . S
C693 H681 0.950 . S
C693 C689 1.393 . S
C693 C692 1.391 . S
C694 H684 0.950 . S
C694 C695 1.386 . S
C694 C696 1.391 . S
C695 C694 1.386 . S
C695 C699 1.393 . S
C696 H685 0.950 . S
C696 C694 1.391 . S
C696 C697 1.400 . S
C697 C691 1.491 . S
C697 C696 1.400 . S
C697 C698 1.398 . S
C698 H686 0.950 . S
C698 C697 1.398 . S
C698 C699 1.391 . S
C699 H687 0.950 . S
C699 C695 1.393 . S
C699 C698 1.391 . S
H700 C708 0.950 . S
H701 C713 0.950 . S
H702 C710 0.950 . S
H703 C712 0.950 . S
H704 C714 0.950 . S
H705 C716 0.950 . S
H706 C718 0.950 . S
H707 C719 0.950 . S
C708 H700 0.950 . S
C708 C709 1.386 . S
C708 C710 1.391 . S
C709 C708 1.386 . S
C709 C713 1.393 . S
C710 H702 0.950 . S
C710 C708 1.391 . S
C710 C711 1.400 . S
C711 C710 1.400 . S
C711 C712 1.398 . S
C711 C717 1.491 . S
C712 H703 0.950 . S
C712 C711 1.398 . S
C712 C713 1.391 . S
C713 H701 0.950 . S
C713 C709 1.393 . S
C713 C712 1.391 . S
C714 H704 0.950 . S
C714 C715 1.386 . S
C714 C716 1.391 . S
C715 C714 1.386 . S
C715 C719 1.393 . S
C716 H705 0.950 . S
C716 C714 1.391 . S
C716 C717 1.400 . S
C717 C711 1.491 . S
C717 C716 1.400 . S
C717 C718 1.398 . S
C718 H706 0.950 . S
C718 C717 1.398 . S
C718 C719 1.391 . S
C719 H707 0.950 . S
C719 C715 1.393 . S
C719 C718 1.391 . S
H720 C728 0.950 . S
H721 C733 0.950 . S
H722 C730 0.950 . S
H723 C732 0.950 . S
H724 C734 0.950 . S
H725 C736 0.950 . S
H726 C738 0.950 . S
H727 C739 0.950 . S
C728 H720 0.950 . S
C728 C729 1.386 . S
C728 C730 1.391 . S
C729 C728 1.386 . S
C729 C733 1.393 . S
C730 H722 0.950 . S
C730 C728 1.391 . S
C730 C731 1.400 . S
C731 C730 1.400 . S
C731 C732 1.398 . S
C731 C737 1.491 . S
C732 H723 0.950 . S
C732 C731 1.398 . S
C732 C733 1.391 . S
C733 H721 0.950 . S
C733 C729 1.393 . S
C733 C732 1.391 . S
C734 H724 0.950 . S
C734 C735 1.386 . S
C734 C736 1.391 . S
C735 C734 1.386 . S
C735 C739 1.393 . S
C736 H725 0.950 . S
C736 C734 1.391 . S
C736 C737 1.400 . S
C737 C731 1.491 . S
C737 C736 1.400 . S
C737 C738 1.398 . S
C738 H726 0.950 . S
C738 C737 1.398 . S
C738 C739 1.391 . S
C739 H727 0.950 . S
C739 C735 1.393 . S
C739 C738 1.391 . S
H740 C748 0.950 . S
H741 C753 0.950 . S
H742 C750 0.950 . S
H743 C752 0.950 . S
H744 C754 0.950 . S
H745 C756 0.950 . S
H746 C758 0.950 . S
H747 C759 0.950 . S
C748 H740 0.950 . S
C748 C749 1.386 . S
C748 C750 1.391 . S
C749 C748 1.386 . S
C749 C753 1.393 . S
C750 H742 0.950 . S
C750 C748 1.391 . S
C750 C751 1.400 . S
C751 C750 1.400 . S
C751 C752 1.398 . S
C751 C757 1.491 . S
C752 H743 0.950 . S
C752 C751 1.398 . S
C752 C753 1.391 . S
C753 H741 0.950 . S
C753 C749 1.393 . S
C753 C752 1.391 . S
C754 H744 0.950 . S
C754 C755 1.386 . S
C754 C756 1.391 . S
C755 C754 1.386 . S
C755 C759 1.393 . S
C756 H745 0.950 . S
C756 C754 1.391 . S
C756 C757 1.400 . S
C757 C751 1.491 . S
C757 C756 1.400 . S
C757 C758 1.398 . S
C758 H746 0.950 . S
C758 C757 1.398 . S
C758 C759 1.391 . S
C759 H747 0.950 . S
C759 C755 1.393 . S
C759 C758 1.391 . S
H760 C768 0.950 . S
H761 C773 0.950 . S
H762 C770 0.950 . S
H763 C772 0.950 . S
H764 C774 0.950 . S
H765 C776 0.950 . S
H766 C778 0.950 . S
H767 C779 0.950 . S
C768 H760 0.950 . S
C768 C769 1.386 . S
C768 C770 1.391 . S
C769 C768 1.386 . S
C769 C773 1.393 . S
C770 H762 0.950 . S
C770 C768 1.391 . S
C770 C771 1.400 . S
C771 C770 1.400 . S
C771 C772 1.398 . S
C771 C777 1.491 . S
C772 H763 0.950 . S
C772 C771 1.398 . S
C772 C773 1.391 . S
C773 H761 0.950 . S
C773 C769 1.393 . S
C773 C772 1.391 . S
C774 H764 0.950 . S
C774 C775 1.386 . S
C774 C776 1.391 . S
C775 C774 1.386 . S
C775 C779 1.393 . S
C776 H765 0.950 . S
C776 C774 1.391 . S
C776 C777 1.400 . S
C777 C771 1.491 . S
C777 C776 1.400 . S
C777 C778 1.398 . S
C778 H766 0.950 . S
C778 C777 1.398 . S
C778 C779 1.391 . S
C779 H767 0.950 . S
C779 C775 1.393 . S
C779 C778 1.391 . S
H780 C788 0.950 . S
H781 C793 0.950 . S
H782 C790 0.950 . S
H783 C792 0.950 . S
H784 C794 0.950 . S
H785 C796 0.950 . S
H786 C798 0.950 . S
H787 C799 0.950 . S
C788 H780 0.950 . S
C788 C789 1.386 . S
C788 C790 1.391 . S
C789 C788 1.386 . S
C789 C793 1.393 . S
C790 H782 0.950 . S
C790 C788 1.391 . S
C790 C791 1.400 . S
C791 C790 1.400 . S
C791 C792 1.398 . S
C791 C797 1.491 . S
C792 H783 0.950 . S
C792 C791 1.398 . S
C792 C793 1.391 . S
C793 H781 0.950 . S
C793 C789 1.393 . S
C793 C792 1.391 . S
C794 H784 0.950 . S
C794 C795 1.386 . S
C794 C796 1.391 . S
C795 C794 1.386 . S
C795 C799 1.393 . S
C796 H785 0.950 . S
C796 C794 1.391 . S
C796 C797 1.400 . S
C797 C791 1.491 . S
C797 C796 1.400 . S
C797 C798 1.398 . S
C798 H786 0.950 . S
C798 C797 1.398 . S
C798 C799 1.391 . S
C799 H787 0.950 . S
C799 C795 1.393 . S
C799 C798 1.391 . S
H800 C808 0.950 . S
H801 C813 0.950 . S
H802 C810 0.950 . S
H803 C812 0.950 . S
H804 C814 0.950 . S
H805 C816 0.950 . S
H806 C818 0.950 . S
H807 C819 0.950 . S
C808 H800 0.950 . S
C808 C809 1.386 . S
C808 C810 1.391 . S
C809 C808 1.386 . S
C809 C813 1.393 . S
C810 H802 0.950 . S
C810 C808 1.391 . S
C810 C811 1.400 . S
C811 C810 1.400 . S
C811 C812 1.398 . S
C811 C817 1.491 . S
C812 H803 0.950 . S
C812 C811 1.398 . S
C812 C813 1.391 . S
C813 H801 0.950 . S
C813 C809 1.393 . S
C813 C812 1.391 . S
C814 H804 0.950 . S
C814 C815 1.386 . S
C814 C816 1.391 . S
C815 C814 1.386 . S
C815 C819 1.393 . S
C816 H805 0.950 . S
C816 C814 1.391 . S
C816 C817 1.400 . S
C817 C811 1.491 . S
C817 C816 1.400 . S
C817 C818 1.398 . S
C818 H806 0.950 . S
C818 C817 1.398 . S
C818 C819 1.391 . S
C819 H807 0.950 . S
C819 C815 1.393 . S
C819 C818 1.391 . S
H820 C828 0.950 . S
H821 C833 0.950 . S
H822 C830 0.950 . S
H823 C832 0.950 . S
H824 C834 0.950 . S
H825 C836 0.950 . S
H826 C838 0.950 . S
H827 C839 0.950 . S
C828 H820 0.950 . S
C828 C829 1.386 . S
C828 C830 1.391 . S
C829 C828 1.386 . S
C829 C833 1.393 . S
C830 H822 0.950 . S
C830 C828 1.391 . S
C830 C831 1.400 . S
C831 C830 1.400 . S
C831 C832 1.398 . S
C831 C837 1.491 . S
C832 H823 0.950 . S
C832 C831 1.398 . S
C832 C833 1.391 . S
C833 H821 0.950 . S
C833 C829 1.393 . S
C833 C832 1.391 . S
C834 H824 0.950 . S
C834 C835 1.386 . S
C834 C836 1.391 . S
C835 C834 1.386 . S
C835 C839 1.393 . S
C836 H825 0.950 . S
C836 C834 1.391 . S
C836 C837 1.400 . S
C837 C831 1.491 . S
C837 C836 1.400 . S
C837 C838 1.398 . S
C838 H826 0.950 . S
C838 C837 1.398 . S
C838 C839 1.391 . S
C839 H827 0.950 . S
C839 C835 1.393 . S
C839 C838 1.391 . S
H840 C848 0.950 . S
H841 C853 0.950 . S
H842 C850 0.950 . S
H843 C852 0.950 . S
H844 C854 0.950 . S
H845 C856 0.950 . S
H846 C858 0.950 . S
H847 C859 0.950 . S
C848 H840 0.950 . S
C848 C849 1.386 . S
C848 C850 1.391 . S
C849 C848 1.386 . S
C849 C853 1.393 . S
C850 H842 0.950 . S
C850 C848 1.391 . S
C850 C851 1.400 . S
C851 C850 1.400 . S
C851 C852 1.398 . S
C851 C857 1.491 . S
C852 H843 0.950 . S
C852 C851 1.398 . S
C852 C853 1.391 . S
C853 H841 0.950 . S
C853 C849 1.393 . S
C853 C852 1.391 . S
C854 H844 0.950 . S
C854 C855 1.386 . S
C854 C856 1.391 . S
C855 C854 1.386 . S
C855 C859 1.393 . S
C856 H845 0.950 . S
C856 C854 1.391 . S
C856 C857 1.400 . S
C857 C851 1.491 . S
C857 C856 1.400 . S
C857 C858 1.398 . S
C858 H846 0.950 . S
C858 C857 1.398 . S
C858 C859 1.391 . S
C859 H847 0.950 . S
C859 C855 1.393 . S
C859 C858 1.391 . S
H860 C868 0.950 . S
H861 C873 0.950 . S
H862 C870 0.950 . S
H863 C872 0.950 . S
H864 C874 0.950 . S
H865 C876 0.950 . S
H866 C878 0.950 . S
H867 C879 0.950 . S
C868 H860 0.950 . S
C868 C869 1.386 . S
C868 C870 1.391 . S
C869 C868 1.386 . S
C869 C873 1.393 . S
C870 H862 0.950 . S
C870 C868 1.391 . S
C870 C871 1.400 . S
C871 C870 1.400 . S
C871 C872 1.398 . S
C871 C877 1.491 . S
C872 H863 0.950 . S
C872 C871 1.398 . S
C872 C873 1.391 . S
C873 H861 0.950 . S
C873 C869 1.393 . S
C873 C872 1.391 . S
C874 H864 0.950 . S
C874 C875 1.386 . S
C874 C876 1.391 . S
C875 C874 1.386 . S
C875 C879 1.393 . S
C876 H865 0.950 . S
C876 C874 1.391 . S
C876 C877 1.400 . S
C877 C871 1.491 . S
C877 C876 1.400 . S
C877 C878 1.398 . S
C878 H866 0.950 . S
C878 C877 1.398 . S
C878 C879 1.391 . S
C879 H867 0.950 . S
C879 C875 1.393 . S
C879 C878 1.391 . S
H880 C888 0.950 . S
H881 C893 0.950 . S
H882 C890 0.950 . S
H883 C892 0.950 . S
H884 C894 0.950 . S
H885 C896 0.950 . S
H886 C898 0.950 . S
H887 C899 0.950 . S
C888 H880 0.950 . S
C888 C889 1.386 . S
C888 C890 1.391 . S
C889 C888 1.386 . S
C889 C893 1.393 . S
C890 H882 0.950 . S
C890 C888 1.391 . S
C890 C891 1.400 . S
C891 C890 1.400 . S
C891 C892 1.398 . S
C891 C897 1.491 . S
C892 H883 0.950 . S
C892 C891 1.398 . S
C892 C893 1.391 . S
C893 H881 0.950 . S
C893 C889 1.393 . S
C893 C892 1.391 . S
C894 H884 0.950 . S
C894 C895 1.386 . S
C894 C896 1.391 . S
C895 C894 1.386 . S
C895 C899 1.393 . S
C896 H885 0.950 . S
C896 C894 1.391 . S
C896 C897 1.400 . S
C897 C891 1.491 . S
C897 C896 1.400 . S
C897 C898 1.398 . S
C898 H886 0.950 . S
C898 C897 1.398 . S
C898 C899 1.391 . S
C899 H887 0.950 . S
C899 C895 1.393 . S
C899 C898 1.391 . S
H900 C908 0.950 . S
H901 C913 0.950 . S
H902 C910 0.950 . S
H903 C912 0.950 . S
H904 C914 0.950 . S
H905 C916 0.950 . S
H906 C918 0.950 . S
H907 C919 0.950 . S
C908 H900 0.950 . S
C908 C909 1.386 . S
C908 C910 1.391 . S
C909 C908 1.386 . S
C909 C913 1.393 . S
C910 H902 0.950 . S
C910 C908 1.391 . S
C910 C911 1.400 . S
C911 C910 1.400 . S
C911 C912 1.398 . S
C911 C917 1.491 . S
C912 H903 0.950 . S
C912 C911 1.398 . S
C912 C913 1.391 . S
C913 H901 0.950 . S
C913 C909 1.393 . S
C913 C912 1.391 . S
C914 H904 0.950 . S
C914 C915 1.386 . S
C914 C916 1.391 . S
C915 C914 1.386 . S
C915 C919 1.393 . S
C916 H905 0.950 . S
C916 C914 1.391 . S
C916 C917 1.400 . S
C917 C911 1.491 . S
C917 C916 1.400 . S
C917 C918 1.398 . S
C918 H906 0.950 . S
C918 C917 1.398 . S
C918 C919 1.391 . S
C919 H907 0.950 . S
C919 C915 1.393 . S
C919 C918 1.391 . S
H920 C928 0.950 . S
H921 C933 0.950 . S
H922 C930 0.950 . S
H923 C932 0.950 . S
H924 C934 0.950 . S
H925 C936 0.950 . S
H926 C938 0.950 . S
H927 C939 0.950 . S
C928 H920 0.950 . S
C928 C929 1.386 . S
C928 C930 1.391 . S
C929 C928 1.386 . S
C929 C933 1.393 . S
C930 H922 0.950 . S
C930 C928 1.391 . S
C930 C931 1.400 . S
C931 C930 1.400 . S
C931 C932 1.398 . S
C931 C937 1.491 . S
C932 H923 0.950 . S
C932 C931 1.398 . S
C932 C933 1.391 . S
C933 H921 0.950 . S
C933 C929 1.393 . S
C933 C932 1.391 . S
C934 H924 0.950 . S
C934 C935 1.386 . S
C934 C936 1.391 . S
C935 C934 1.386 . S
C935 C939 1.393 . S
C936 H925 0.950 . S
C936 C934 1.391 . S
C936 C937 1.400 . S
C937 C931 1.491 . S
C937 C936 1.400 . S
C937 C938 1.398 . S
C938 H926 0.950 . S
C938 C937 1.398 . S
C938 C939 1.391 . S
C939 H927 0.950 . S
C939 C935 1.393 . S
C939 C938 1.391 . S
H940 C948 0.950 . S
H941 C953 0.950 . S
H942 C950 0.950 . S
H943 C952 0.950 . S
H944 C954 0.950 . S
H945 C956 0.950 . S
H946 C958 0.950 . S
H947 C959 0.950 . S
C948 H940 0.950 . S
C948 C949 1.386 . S
C948 C950 1.391 . S
C949 C948 1.386 . S
C949 C953 1.393 . S
C950 H942 0.950 . S
C950 C948 1.391 . S
C950 C951 1.400 . S
C951 C950 1.400 . S
C951 C952 1.398 . S
C951 C957 1.491 . S
C952 H943 0.950 . S
C952 C951 1.398 . S
C952 C953 1.391 . S
C953 H941 0.950 . S
C953 C949 1.393 . S
C953 C952 1.391 . S
C954 H944 0.950 . S
C954 C955 1.386 . S
C954 C956 1.391 . S
C955 C954 1.386 . S
C955 C959 1.393 . S
C956 H945 0.950 . S
C956 C954 1.391 . S
C956 C957 1.400 . S
C957 C951 1.491 . S
C957 C956 1.400 . S
C957 C958 1.398 . S
C958 H946 0.950 . S
C958 C957 1.398 . S
C958 C959 1.391 . S
C959 H947 0.950 . S
C959 C955 1.393 . S
C959 C958 1.391 . S
H960 C968 0.950 . S
H961 C973 0.950 . S
H962 C970 0.950 . S
H963 C972 0.950 1_454 S
H964 C974 0.950 . S
H965 C976 0.950 . S
H966 C978 0.950 1_656 S
H967 C979 0.950 . S
C968 H960 0.950 . S
C968 C969 1.386 . S
C968 C970 1.391 . S
C969 C968 1.386 . S
C969 C973 1.393 . S
C970 H962 0.950 . S
C970 C968 1.391 . S
C970 C971 1.400 . S
C971 C970 1.400 . S
C971 C972 1.398 . S
C971 C977 1.491 1_656 S
C972 H963 0.950 1_656 S
C972 C971 1.398 . S
C972 C973 1.391 . S
C973 H961 0.950 . S
C973 C969 1.393 . S
C973 C972 1.391 . S
C974 H964 0.950 . S
C974 C975 1.386 . S
C974 C976 1.391 . S
C975 C974 1.386 . S
C975 C979 1.393 . S
C976 H965 0.950 . S
C976 C974 1.391 . S
C976 C977 1.400 . S
C977 C971 1.491 1_454 S
C977 C976 1.400 . S
C977 C978 1.398 . S
C978 H966 0.950 1_454 S
C978 C977 1.398 . S
C978 C979 1.391 . S
C979 H967 0.950 . S
C979 C975 1.393 . S
C979 C978 1.391 . S
H980 C988 0.948 . S
H981 C993 0.950 . S
H982 C990 0.950 . S
H983 C992 0.950 . S
H984 C994 0.948 . S
H985 C996 0.950 . S
H986 C998 0.950 . S
H987 C999 0.950 . S
C988 H980 0.948 . S
C988 C989 1.387 1_545 S
C988 C990 1.391 . S
C989 C988 1.387 1_565 S
C989 C993 1.393 . S
C990 H982 0.950 . S
C990 C988 1.391 . S
C990 C991 1.400 1_545 S
C991 C990 1.400 1_565 S
C991 C992 1.398 . S
C991 C997 1.491 1_466 S
C992 H983 0.950 . S
C992 C991 1.398 . S
C992 C993 1.391 . S
C993 H981 0.950 . S
C993 C989 1.393 . S
C993 C992 1.391 . S
C994 H984 0.948 . S
C994 C995 1.387 1_565 S
C994 C996 1.391 . S
C995 C994 1.387 1_545 S
C995 C999 1.393 . S
C996 H985 0.950 . S
C996 C994 1.391 . S
C996 C997 1.400 1_565 S
C997 C991 1.491 1_644 S
C997 C996 1.400 1_545 S
C997 C998 1.398 . S
C998 H986 0.950 . S
C998 C997 1.398 . S
C998 C999 1.391 . S
C999 H987 0.950 . S
C999 C995 1.393 . S
C999 C998 1.391 . S
H1000 C1008 0.950 . S
H1001 C1013 0.950 . S
H1002 C1010 0.950 1_565 S
H1003 C1012 0.950 . S
H1004 C1014 0.950 . S
H1005 C1016 0.950 1_545 S
H1006 C1018 0.950 . S
H1007 C1019 0.950 . S
C1008 H1000 0.950 . S
C1008 C1009 1.386 . S
C1008 C1010 1.391 . S
C1009 C1008 1.386 . S
C1009 C1013 1.393 . S
C1010 H1002 0.950 1_545 S
C1010 C1008 1.391 . S
C1010 C1011 1.400 . S
C1011 C1010 1.400 . S
C1011 C1012 1.398 1_556 S
C1011 C1017 1.491 1_546 S
C1012 H1003 0.950 . S
C1012 C1011 1.398 1_554 S
C1012 C1013 1.391 1_554 S
C1013 H1001 0.950 . S
C1013 C1009 1.393 . S
C1013 C1012 1.391 1_556 S
C1014 H1004 0.950 . S
C1014 C1015 1.386 . S
C1014 C1016 1.391 . S
C1015 C1014 1.386 . S
C1015 C1019 1.393 . S
C1016 H1005 0.950 1_565 S
C1016 C1014 1.391 . S
C1016 C1017 1.400 . S
C1017 C1011 1.491 1_564 S
C1017 C1016 1.400 . S
C1017 C1018 1.398 1_554 S
C1018 H1006 0.950 . S
C1018 C1017 1.398 1_556 S
C1018 C1019 1.391 1_556 S
C1019 H1007 0.950 . S
C1019 C1015 1.393 . S
C1019 C1018 1.391 1_554 S
H1020 C1028 0.950 . S
H1021 C1033 0.950 . S
H1022 C1030 0.950 1_556 S
H1023 C1032 0.950 . S
H1024 C1034 0.950 . S
H1025 C1036 0.950 1_554 S
H1026 C1038 0.950 . S
H1027 C1039 0.950 . S
C1028 H1020 0.950 . S
C1028 C1029 1.386 . S
C1028 C1030 1.391 . S
C1029 C1028 1.386 . S
C1029 C1033 1.393 . S
C1030 H1022 0.950 1_554 S
C1030 C1028 1.391 . S
C1030 C1031 1.400 . S
C1031 C1030 1.400 . S
C1031 C1032 1.398 . S
C1031 C1037 1.491 1_554 S
C1032 H1023 0.950 . S
C1032 C1031 1.398 . S
C1032 C1033 1.391 . S
C1033 H1021 0.950 . S
C1033 C1029 1.393 . S
C1033 C1032 1.391 . S
C1034 H1024 0.950 . S
C1034 C1035 1.386 . S
C1034 C1036 1.391 . S
C1035 C1034 1.386 . S
C1035 C1039 1.393 . S
C1036 H1025 0.950 1_556 S
C1036 C1034 1.391 . S
C1036 C1037 1.400 . S
C1037 C1031 1.491 1_556 S
C1037 C1036 1.400 . S
C1037 C1038 1.398 . S
C1038 H1026 0.950 . S
C1038 C1037 1.398 . S
C1038 C1039 1.391 . S
C1039 H1027 0.950 . S
C1039 C1035 1.393 . S
C1039 C1038 1.391 . S
H1040 C1048 0.950 . S
H1041 C1053 0.950 . S
H1042 C1050 0.950 . S
H1043 C1052 0.950 1_465 S
H1044 C1054 0.950 . S
H1045 C1056 0.950 . S
H1046 C1058 0.950 1_645 S
H1047 C1059 0.950 . S
C1048 H1040 0.950 . S
C1048 C1049 1.386 . S
C1048 C1050 1.391 . S
C1049 C1048 1.386 . S
C1049 C1053 1.393 . S
C1050 H1042 0.950 . S
C1050 C1048 1.391 . S
C1050 C1051 1.400 . S
C1051 C1050 1.400 . S
C1051 C1052 1.398 . S
C1051 C1057 1.491 1_645 S
C1052 H1043 0.950 1_645 S
C1052 C1051 1.398 . S
C1052 C1053 1.391 . S
C1053 H1041 0.950 . S
C1053 C1049 1.393 . S
C1053 C1052 1.391 . S
C1054 H1044 0.950 . S
C1054 C1055 1.386 . S
C1054 C1056 1.391 . S
C1055 C1054 1.386 . S
C1055 C1059 1.393 . S
C1056 H1045 0.950 . S
C1056 C1054 1.391 . S
C1056 C1057 1.400 . S
C1057 C1051 1.491 1_465 S
C1057 C1056 1.400 . S
C1057 C1058 1.398 . S
C1058 H1046 0.950 1_465 S
C1058 C1057 1.398 . S
C1058 C1059 1.391 . S
C1059 H1047 0.950 . S
C1059 C1055 1.393 . S
C1059 C1058 1.391 . S
H1060 C1068 0.950 . S
H1061 C1073 0.950 . S
H1062 C1070 0.950 . S
H1063 C1072 0.950 1_545 S
H1064 C1074 0.950 . S
H1065 C1076 0.950 . S
H1066 C1078 0.950 1_565 S
H1067 C1079 0.950 . S
C1068 H1060 0.950 . S
C1068 C1069 1.386 . S
C1068 C1070 1.391 . S
C1069 C1068 1.386 . S
C1069 C1073 1.393 . S
C1070 H1062 0.950 . S
C1070 C1068 1.391 . S
C1070 C1071 1.400 . S
C1071 C1070 1.400 . S
C1071 C1072 1.398 . S
C1071 C1077 1.491 1_565 S
C1072 H1063 0.950 1_565 S
C1072 C1071 1.398 . S
C1072 C1073 1.391 . S
C1073 H1061 0.950 . S
C1073 C1069 1.393 . S
C1073 C1072 1.391 . S
C1074 H1064 0.950 . S
C1074 C1075 1.386 . S
C1074 C1076 1.391 . S
C1075 C1074 1.386 . S
C1075 C1079 1.393 . S
C1076 H1065 0.950 . S
C1076 C1074 1.391 . S
C1076 C1077 1.400 . S
C1077 C1071 1.491 1_545 S
C1077 C1076 1.400 . S
C1077 C1078 1.398 . S
C1078 H1066 0.950 1_545 S
C1078 C1077 1.398 . S
C1078 C1079 1.391 . S
C1079 H1067 0.950 . S
C1079 C1075 1.393 . S
C1079 C1078 1.391 . S
H1080 C1088 0.950 . S
H1081 C1093 0.950 . S
H1082 C1090 0.950 . S
H1083 C1092 0.950 . S
H1084 C1094 0.950 . S
H1085 C1096 0.950 . S
H1086 C1098 0.950 . S
H1087 C1099 0.950 . S
C1088 H1080 0.950 . S
C1088 C1089 1.386 . S
C1088 C1090 1.391 . S
C1089 C1088 1.386 . S
C1089 C1093 1.393 . S
C1090 H1082 0.950 . S
C1090 C1088 1.391 . S
C1090 C1091 1.400 . S
C1091 C1090 1.400 . S
C1091 C1092 1.398 . S
C1091 C1097 1.491 . S
C1092 H1083 0.950 . S
C1092 C1091 1.398 . S
C1092 C1093 1.391 . S
C1093 H1081 0.950 . S
C1093 C1089 1.393 . S
C1093 C1092 1.391 . S
C1094 H1084 0.950 . S
C1094 C1095 1.386 . S
C1094 C1096 1.391 . S
C1095 C1094 1.386 . S
C1095 C1099 1.393 . S
C1096 H1085 0.950 . S
C1096 C1094 1.391 . S
C1096 C1097 1.400 . S
C1097 C1091 1.491 . S
C1097 C1096 1.400 . S
C1097 C1098 1.398 . S
C1098 H1086 0.950 . S
C1098 C1097 1.398 . S
C1098 C1099 1.391 . S
C1099 H1087 0.950 . S
C1099 C1095 1.393 . S
C1099 C1098 1.391 . S
H1100 C1108 0.950 . S
H1101 C1113 0.950 . S
H1102 C1110 0.950 . S
H1103 C1112 0.950 . S
H1104 C1114 0.950 . S
H1105 C1116 0.950 . S
H1106 C1118 0.950 . S
H1107 C1119 0.950 . S
C1108 H1100 0.950 . S
C1108 C1109 1.386 . S
C1108 C1110 1.391 . S
C1109 C1108 1.386 . S
C1109 C1113 1.393 . S
C1110 H1102 0.950 . S
C1110 C1108 1.391 . S
C1110 C1111 1.400 . S
C1111 C1110 1.400 . S
C1111 C1112 1.398 1_455 S
C1111 C1117 1.491 1_455 S
C1112 H1103 0.950 . S
C1112 C1111 1.398 1_655 S
C1112 C1113 1.391 1_655 S
C1113 H1101 0.950 . S
C1113 C1109 1.393 . S
C1113 C1112 1.391 1_455 S
C1114 H1104 0.950 . S
C1114 C1115 1.386 . S
C1114 C1116 1.391 . S
C1115 C1114 1.386 . S
C1115 C1119 1.393 . S
C1116 H1105 0.950 . S
C1116 C1114 1.391 . S
C1116 C1117 1.400 . S
C1117 C1111 1.491 1_655 S
C1117 C1116 1.400 . S
C1117 C1118 1.398 1_655 S
C1118 H1106 0.950 . S
C1118 C1117 1.398 1_455 S
C1118 C1119 1.391 1_455 S
C1119 H1107 0.950 . S
C1119 C1115 1.393 . S
C1119 C1118 1.391 1_655 S
H1120 C1128 0.950 . S
H1121 C1133 0.950 1_655 S
H1122 C1130 0.950 . S
H1123 C1132 0.950 . S
H1124 C1134 0.950 . S
H1125 C1136 0.950 . S
H1126 C1138 0.950 . S
H1127 C1139 0.950 . S
C1128 H1120 0.950 . S
C1128 C1129 1.386 . S
C1128 C1130 1.391 . S
C1129 C1128 1.386 . S
C1129 C1133 1.393 . S
C1130 H1122 0.950 . S
C1130 C1128 1.391 . S
C1130 C1131 1.400 . S
C1131 C1130 1.400 . S
C1131 C1132 1.398 . S
C1131 C1137 1.491 . S
C1132 H1123 0.950 . S
C1132 C1131 1.398 . S
C1132 C1133 1.391 . S
C1133 H1121 0.950 1_455 S
C1133 C1129 1.393 . S
C1133 C1132 1.391 . S
C1134 H1124 0.950 . S
C1134 C1135 1.386 . S
C1134 C1136 1.391 . S
C1135 C1134 1.386 . S
C1135 C1139 1.393 . S
C1136 H1125 0.950 . S
C1136 C1134 1.391 . S
C1136 C1137 1.400 . S
C1137 C1131 1.491 . S
C1137 C1136 1.400 . S
C1137 C1138 1.398 . S
C1138 H1126 0.950 . S
C1138 C1137 1.398 . S
C1138 C1139 1.391 . S
C1139 H1127 0.950 . S
C1139 C1135 1.393 . S
C1139 C1138 1.391 . S
H1140 C1148 0.950 . S
H1141 C1153 0.950 . S
H1142 C1150 0.950 . S
H1143 C1152 0.950 1_655 S
H1144 C1154 0.950 . S
H1145 C1156 0.950 . S
H1146 C1158 0.950 . S
H1147 C1159 0.950 . S
C1148 H1140 0.950 . S
C1148 C1149 1.386 . S
C1148 C1150 1.391 . S
C1149 C1148 1.386 . S
C1149 C1153 1.393 . S
C1150 H1142 0.950 . S
C1150 C1148 1.391 . S
C1150 C1151 1.400 1_565 S
C1151 C1150 1.400 1_545 S
C1151 C1152 1.398 . S
C1151 C1157 1.491 . S
C1152 H1143 0.950 1_455 S
C1152 C1151 1.398 . S
C1152 C1153 1.391 1_545 S
C1153 H1141 0.950 . S
C1153 C1149 1.393 . S
C1153 C1152 1.391 1_565 S
C1154 H1144 0.950 . S
C1154 C1155 1.386 . S
C1154 C1156 1.391 . S
C1155 C1154 1.386 . S
C1155 C1159 1.393 1_655 S
C1156 H1145 0.950 . S
C1156 C1154 1.391 . S
C1156 C1157 1.400 1_655 S
C1157 C1151 1.491 . S
C1157 C1156 1.400 1_455 S
C1157 C1158 1.398 . S
C1158 H1146 0.950 . S
C1158 C1157 1.398 . S
C1158 C1159 1.391 . S
C1159 H1147 0.950 . S
C1159 C1155 1.393 1_455 S
C1159 C1158 1.391 . S
H1160 C1168 0.950 1_565 S
H1161 C1173 0.950 . S
H1162 C1170 0.950 . S
H1163 C1172 0.950 . S
H1164 C1174 0.950 . S
H1165 C1176 0.950 . S
H1166 C1178 0.950 . S
H1167 C1179 0.950 . S
C1168 H1160 0.950 1_545 S
C1168 C1169 1.386 . S
C1168 C1170 1.391 1_545 S
C1169 C1168 1.386 . S
C1169 C1173 1.393 . S
C1170 H1162 0.950 . S
C1170 C1168 1.391 1_565 S
C1170 C1171 1.400 1_565 S
C1171 C1170 1.400 1_545 S
C1171 C1172 1.398 . S
C1171 C1177 1.500 . S
C1172 H1163 0.950 . S
C1172 C1171 1.398 . S
C1172 C1173 1.391 . S
C1173 H1161 0.950 . S
C1173 C1169 1.393 . S
C1173 C1172 1.391 . S
C1174 H1164 0.950 . S
C1174 C1175 1.386 1_545 S
C1174 C1176 1.391 . S
C1175 C1174 1.386 1_565 S
C1175 C1179 1.393 . S
C1176 H1165 0.950 . S
C1176 C1174 1.391 . S
C1176 C1177 1.417 . S
C1177 C1171 1.500 . S
C1177 C1176 1.417 . S
C1177 C1178 1.372 1_545 S
C1178 H1166 0.950 . S
C1178 C1177 1.372 1_565 S
C1178 C1179 1.391 . S
C1179 H1167 0.950 . S
C1179 C1175 1.393 . S
C1179 C1178 1.391 . S
H1180 C1188 0.950 . S
H1181 C1193 0.950 . S
H1182 C1190 0.950 . S
H1183 C1192 0.950 . S
H1184 C1194 0.950 . S
H1185 C1196 0.950 . S
H1186 C1198 0.950 . S
H1187 C1199 0.950 . S
C1188 H1180 0.950 . S
C1188 C1189 1.386 . S
C1188 C1190 1.391 . S
C1189 C1188 1.386 . S
C1189 C1193 1.393 . S
C1190 H1182 0.950 . S
C1190 C1188 1.391 . S
C1190 C1191 1.400 . S
C1191 C1190 1.400 . S
C1191 C1192 1.398 . S
C1191 C1197 1.491 . S
C1192 H1183 0.950 . S
C1192 C1191 1.398 . S
C1192 C1193 1.391 . S
C1193 H1181 0.950 . S
C1193 C1189 1.393 . S
C1193 C1192 1.391 . S
C1194 H1184 0.950 . S
C1194 C1195 1.386 . S
C1194 C1196 1.391 . S
C1195 C1194 1.386 . S
C1195 C1199 1.393 . S
C1196 H1185 0.950 . S
C1196 C1194 1.391 . S
C1196 C1197 1.400 . S
C1197 C1191 1.491 . S
C1197 C1196 1.400 . S
C1197 C1198 1.398 . S
C1198 H1186 0.950 . S
C1198 C1197 1.398 . S
C1198 C1199 1.391 . S
C1199 H1187 0.950 . S
C1199 C1195 1.393 . S
C1199 C1198 1.391 . S
H1200 C1208 0.950 . S
H1201 C1213 0.950 . S
H1202 C1210 0.950 . S
H1203 C1212 0.950 . S
H1204 C1214 0.950 . S
H1205 C1216 0.950 . S
H1206 C1218 0.950 1_455 S
H1207 C1219 0.950 1_455 S
C1208 H1200 0.950 . S
C1208 C1209 1.386 1_455 S
C1208 C1210 1.391 . S
C1209 C1208 1.386 1_655 S
C1209 C1213 1.393 . S
C1210 H1202 0.950 . S
C1210 C1208 1.391 . S
C1210 C1211 1.400 1_455 S
C1211 C1210 1.400 1_655 S
C1211 C1212 1.398 . S
C1211 C1217 1.491 . S
C1212 H1203 0.950 . S
C1212 C1211 1.398 . S
C1212 C1213 1.391 . S
C1213 H1201 0.950 . S
C1213 C1209 1.393 . S
C1213 C1212 1.391 . S
C1214 H1204 0.950 . S
C1214 C1215 1.386 . S
C1214 C1216 1.391 . S
C1215 C1214 1.386 . S
C1215 C1219 1.393 . S
C1216 H1205 0.950 . S
C1216 C1214 1.391 . S
C1216 C1217 1.400 . S
C1217 C1211 1.491 . S
C1217 C1216 1.400 . S
C1217 C1218 1.398 . S
C1218 H1206 0.950 1_655 S
C1218 C1217 1.398 . S
C1218 C1219 1.391 . S
C1219 H1207 0.950 1_655 S
C1219 C1215 1.393 . S
C1219 C1218 1.391 . S
H1220 C1228 0.950 . S
H1221 C1233 0.950 . S
H1222 C1230 0.950 . S
H1223 C1232 0.950 . S
H1224 C1234 0.950 . S
H1225 C1236 0.950 . S
H1226 C1238 0.950 . S
H1227 C1239 0.950 1_545 S
C1228 H1220 0.950 . S
C1228 C1229 1.386 . S
C1228 C1230 1.391 . S
C1229 C1228 1.386 . S
C1229 C1233 1.393 1_545 S
C1230 H1222 0.950 . S
C1230 C1228 1.391 . S
C1230 C1231 1.400 1_545 S
C1231 C1230 1.400 1_565 S
C1231 C1232 1.398 . S
C1231 C1237 1.491 . S
C1232 H1223 0.950 . S
C1232 C1231 1.398 . S
C1232 C1233 1.391 . S
C1233 H1221 0.950 . S
C1233 C1229 1.393 1_565 S
C1233 C1232 1.391 . S
C1234 H1224 0.950 . S
C1234 C1235 1.386 . S
C1234 C1236 1.391 . S
C1235 C1234 1.386 . S
C1235 C1239 1.393 1_455 S
C1236 H1225 0.950 . S
C1236 C1234 1.391 . S
C1236 C1237 1.400 1_455 S
C1237 C1231 1.491 . S
C1237 C1236 1.400 1_655 S
C1237 C1238 1.398 1_565 S
C1238 H1226 0.950 . S
C1238 C1237 1.398 1_545 S
C1238 C1239 1.391 1_545 S
C1239 H1227 0.950 1_565 S
C1239 C1235 1.393 1_655 S
C1239 C1238 1.391 1_565 S
H1240 C1248 0.950 . S
H1241 C1253 0.950 . S
H1242 C1250 0.950 . S
H1243 C1252 0.950 . S
H1244 C1254 0.950 . S
H1245 C1256 0.950 . S
H1246 C1258 0.950 1_565 S
H1247 C1259 0.950 . S
C1248 H1240 0.950 . S
C1248 C1249 1.386 . S
C1248 C1250 1.391 . S
C1249 C1248 1.386 . S
C1249 C1253 1.393 . S
C1250 H1242 0.950 . S
C1250 C1248 1.391 . S
C1250 C1251 1.400 . S
C1251 C1250 1.400 . S
C1251 C1252 1.398 . S
C1251 C1257 1.490 . S
C1252 H1243 0.950 . S
C1252 C1251 1.398 . S
C1252 C1253 1.391 . S
C1253 H1241 0.950 . S
C1253 C1249 1.393 . S
C1253 C1252 1.391 . S
C1254 H1244 0.950 . S
C1254 C1255 1.386 . S
C1254 C1256 1.391 . S
C1255 C1254 1.386 . S
C1255 C1259 1.393 . S
C1256 H1245 0.950 . S
C1256 C1254 1.391 . S
C1256 C1257 1.401 1_545 S
C1257 C1251 1.490 . S
C1257 C1256 1.401 1_565 S
C1257 C1258 1.398 1_565 S
C1258 H1246 0.950 1_545 S
C1258 C1257 1.398 1_545 S
C1258 C1259 1.391 . S
C1259 H1247 0.950 . S
C1259 C1255 1.393 . S
C1259 C1258 1.391 . S
H1260 C1268 0.950 . S
H1261 C1273 0.950 . S
H1262 C1270 0.950 . S
H1263 C1272 0.950 . S
H1264 C1274 0.950 . S
H1265 C1276 0.950 . S
H1266 C1278 0.950 . S
H1267 C1279 0.950 . S
C1268 H1260 0.950 . S
C1268 C1269 1.386 . S
C1268 C1270 1.391 . S
C1269 C1268 1.386 . S
C1269 C1273 1.393 . S
C1270 H1262 0.950 . S
C1270 C1268 1.391 . S
C1270 C1271 1.400 . S
C1271 C1270 1.400 . S
C1271 C1272 1.398 . S
C1271 C1277 1.491 . S
C1272 H1263 0.950 . S
C1272 C1271 1.398 . S
C1272 C1273 1.391 . S
C1273 H1261 0.950 . S
C1273 C1269 1.393 . S
C1273 C1272 1.391 . S
C1274 H1264 0.950 . S
C1274 C1275 1.386 . S
C1274 C1276 1.391 . S
C1275 C1274 1.386 . S
C1275 C1279 1.393 . S
C1276 H1265 0.950 . S
C1276 C1274 1.391 . S
C1276 C1277 1.400 . S
C1277 C1271 1.491 . S
C1277 C1276 1.400 . S
C1277 C1278 1.398 . S
C1278 H1266 0.950 . S
C1278 C1277 1.398 . S
C1278 C1279 1.391 . S
C1279 H1267 0.950 . S
C1279 C1275 1.393 . S
C1279 C1278 1.391 . S
C329 C79 1.969 . S
C335 C12 1.995 . S
C349 C2 1.609 . S
C355 C32 1.632 . S
C369 C52 1.647 . S
C375 C22 1.645 . S
C389 C42 1.883 . S
C395 C69 1.890 . S
C409 C92 1.801 . S
C415 C102 1.791 . S
C429 C112 1.876 . S
C435 C122 1.851 . S
C449 C132 2.020 . S
C455 C142 1.986 . S
C469 C82 1.805 . S
C475 C152 1.830 . S
C489 C169 2.009 . S
C495 C238 1.984 . S
C509 C164 1.612 . S
C515 C189 1.631 . S
C529 C184 1.642 . S
C535 C209 1.661 . S
C549 C204 1.883 . S
C555 C232 1.890 . S
C569 C249 1.802 . S
C575 C264 1.799 . S
C589 C284 1.831 . S
C595 C269 1.877 . S
C609 C304 1.986 . S
C615 C289 2.022 . S
C629 C309 1.836 . S
C635 C244 1.780 . S
C649 C18 1.847 . S
C655 C98 1.844 . S
C669 C118 1.719 . S
C675 C38 1.721 . S
C689 C58 2.222 . S
C695 C138 2.226 . S
C709 C64 1.242 . S
C715 C158 1.284 . S
C729 C259 1.844 . S
C735 C179 1.846 . S
C749 C279 1.720 . S
C755 C199 1.721 . S
C769 C219 2.225 . S
C775 C299 2.227 . S
C789 C319 1.285 . S
C795 C222 1.255 . S
C809 C9 1.134 . S
C815 C49 1.135 . S
C829 C29 0.819 . S
C835 C72 0.813 . S
C849 C129 1.259 . S
C855 C89 1.260 . S
C869 C149 1.097 . S
C875 C109 1.099 . S
C889 C212 1.136 . S
C895 C172 1.134 . S
C909 C229 0.862 . S
C915 C192 0.856 . S
C929 C252 1.224 . S
C935 C292 1.223 . S
C949 C272 1.105 . S
C955 C312 1.102 . S
C969 C178 1.486 . S
C975 C19 1.486 . S
C989 C198 1.430 . S
C995 C39 1.430 . S
C1009 C218 1.797 . S
C1015 C59 1.797 . S
C1029 C62 0.989 . S
C1035 C224 0.989 . S
C1049 C258 1.398 . S
C1055 C99 1.398 . S
C1069 C278 1.296 . S
C1075 C119 1.296 . S
C1089 C298 1.584 . S
C1095 C139 1.584 . S
C1109 C318 1.364 . S
C1115 C159 1.364 . S
C1129 C144 0.809 1_455 S
C1135 C4 0.927 . S
C1149 C84 0.830 . S
C1155 C24 0.899 . S
C1169 C104 0.895 . S
C1175 C44 0.878 . S
C1189 C124 0.952 . S
C1195 C78 1.043 . S
C1209 C302 0.878 1_655 S
C1215 C162 0.867 . S
C1229 C242 0.904 . S
C1235 C182 0.823 . S
C1249 C262 0.923 . S
C1255 C202 0.863 . S
C1269 C239 1.058 . S
C1275 C282 0.920 . S
