# Generated by pormake.
# Topology wiv, (6)-cn, num edge types: 1
# Building blocks:
#     Node 0, Type 0, BuildingBlock: CUKXOW_clean_sbu_0, # of connection points: 6
#     Node 1, Type 0, BuildingBlock: CUKXOW_clean_sbu_0, # of connection points: 6
#     Node 2, Type 0, BuildingBlock: CUKXOW_clean_sbu_0, # of connection points: 6
#     Node 3, Type 0, BuildingBlock: CUKXOW_clean_sbu_0, # of connection points: 6
#     Node 4, Type 0, BuildingBlock: CUKXOW_clean_sbu_0, # of connection points: 6
#     Node 5, Type 0, BuildingBlock: CUKXOW_clean_sbu_0, # of connection points: 6
#     Node 6, Type 0, BuildingBlock: CUKXOW_clean_sbu_0, # of connection points: 6
#     Node 7, Type 0, BuildingBlock: CUKXOW_clean_sbu_0, # of connection points: 6
#     Node 8, Type 0, BuildingBlock: CUKXOW_clean_sbu_0, # of connection points: 6
#     Node 9, Type 0, BuildingBlock: CUKXOW_clean_sbu_0, # of connection points: 6
#     Node 10, Type 0, BuildingBlock: CUKXOW_clean_sbu_0, # of connection points: 6
#     Node 11, Type 0, BuildingBlock: CUKXOW_clean_sbu_0, # of connection points: 6
#     Node 12, Type 0, BuildingBlock: CUKXOW_clean_sbu_0, # of connection points: 6
#     Node 13, Type 0, BuildingBlock: CUKXOW_clean_sbu_0, # of connection points: 6
#     Node 14, Type 0, BuildingBlock: CUKXOW_clean_sbu_0, # of connection points: 6
#     Node 15, Type 0, BuildingBlock: CUKXOW_clean_sbu_0, # of connection points: 6
#     Edge 16, Type (0, 0), BuildingBlock: ZUJKAS_clean_linker_0, # of connection points: 2
#     Edge 17, Type (0, 0), BuildingBlock: ZUJKAS_clean_linker_0, # of connection points: 2
#     Edge 18, Type (0, 0), BuildingBlock: ZUJKAS_clean_linker_0, # of connection points: 2
#     Edge 19, Type (0, 0), BuildingBlock: ZUJKAS_clean_linker_0, # of connection points: 2
#     Edge 20, Type (0, 0), BuildingBlock: ZUJKAS_clean_linker_0, # of connection points: 2
#     Edge 21, Type (0, 0), BuildingBlock: ZUJKAS_clean_linker_0, # of connection points: 2
#     Edge 22, Type (0, 0), BuildingBlock: ZUJKAS_clean_linker_0, # of connection points: 2
#     Edge 23, Type (0, 0), BuildingBlock: ZUJKAS_clean_linker_0, # of connection points: 2
#     Edge 24, Type (0, 0), BuildingBlock: ZUJKAS_clean_linker_0, # of connection points: 2
#     Edge 25, Type (0, 0), BuildingBlock: ZUJKAS_clean_linker_0, # of connection points: 2
#     Edge 26, Type (0, 0), BuildingBlock: ZUJKAS_clean_linker_0, # of connection points: 2
#     Edge 27, Type (0, 0), BuildingBlock: ZUJKAS_clean_linker_0, # of connection points: 2
#     Edge 28, Type (0, 0), BuildingBlock: ZUJKAS_clean_linker_0, # of connection points: 2
#     Edge 29, Type (0, 0), BuildingBlock: ZUJKAS_clean_linker_0, # of connection points: 2
#     Edge 30, Type (0, 0), BuildingBlock: ZUJKAS_clean_linker_0, # of connection points: 2
#     Edge 31, Type (0, 0), BuildingBlock: ZUJKAS_clean_linker_0, # of connection points: 2
#     Edge 32, Type (0, 0), BuildingBlock: ZUJKAS_clean_linker_0, # of connection points: 2
#     Edge 33, Type (0, 0), BuildingBlock: ZUJKAS_clean_linker_0, # of connection points: 2
#     Edge 34, Type (0, 0), BuildingBlock: ZUJKAS_clean_linker_0, # of connection points: 2
#     Edge 35, Type (0, 0), BuildingBlock: ZUJKAS_clean_linker_0, # of connection points: 2
#     Edge 36, Type (0, 0), BuildingBlock: ZUJKAS_clean_linker_0, # of connection points: 2
#     Edge 37, Type (0, 0), BuildingBlock: ZUJKAS_clean_linker_0, # of connection points: 2
#     Edge 38, Type (0, 0), BuildingBlock: ZUJKAS_clean_linker_0, # of connection points: 2
#     Edge 39, Type (0, 0), BuildingBlock: ZUJKAS_clean_linker_0, # of connection points: 2
#     Edge 40, Type (0, 0), BuildingBlock: ZUJKAS_clean_linker_0, # of connection points: 2
#     Edge 41, Type (0, 0), BuildingBlock: ZUJKAS_clean_linker_0, # of connection points: 2
#     Edge 42, Type (0, 0), BuildingBlock: ZUJKAS_clean_linker_0, # of connection points: 2
#     Edge 43, Type (0, 0), BuildingBlock: ZUJKAS_clean_linker_0, # of connection points: 2
#     Edge 44, Type (0, 0), BuildingBlock: ZUJKAS_clean_linker_0, # of connection points: 2
#     Edge 45, Type (0, 0), BuildingBlock: ZUJKAS_clean_linker_0, # of connection points: 2
#     Edge 46, Type (0, 0), BuildingBlock: ZUJKAS_clean_linker_0, # of connection points: 2
#     Edge 47, Type (0, 0), BuildingBlock: ZUJKAS_clean_linker_0, # of connection points: 2
#     Edge 48, Type (0, 0), BuildingBlock: ZUJKAS_clean_linker_0, # of connection points: 2
#     Edge 49, Type (0, 0), BuildingBlock: ZUJKAS_clean_linker_0, # of connection points: 2
#     Edge 50, Type (0, 0), BuildingBlock: ZUJKAS_clean_linker_0, # of connection points: 2
#     Edge 51, Type (0, 0), BuildingBlock: ZUJKAS_clean_linker_0, # of connection points: 2
#     Edge 52, Type (0, 0), BuildingBlock: ZUJKAS_clean_linker_0, # of connection points: 2
#     Edge 53, Type (0, 0), BuildingBlock: ZUJKAS_clean_linker_0, # of connection points: 2
#     Edge 54, Type (0, 0), BuildingBlock: ZUJKAS_clean_linker_0, # of connection points: 2
#     Edge 55, Type (0, 0), BuildingBlock: ZUJKAS_clean_linker_0, # of connection points: 2
#     Edge 56, Type (0, 0), BuildingBlock: ZUJKAS_clean_linker_0, # of connection points: 2
#     Edge 57, Type (0, 0), BuildingBlock: ZUJKAS_clean_linker_0, # of connection points: 2
#     Edge 58, Type (0, 0), BuildingBlock: ZUJKAS_clean_linker_0, # of connection points: 2
#     Edge 59, Type (0, 0), BuildingBlock: ZUJKAS_clean_linker_0, # of connection points: 2
#     Edge 60, Type (0, 0), BuildingBlock: ZUJKAS_clean_linker_0, # of connection points: 2
#     Edge 61, Type (0, 0), BuildingBlock: ZUJKAS_clean_linker_0, # of connection points: 2
#     Edge 62, Type (0, 0), BuildingBlock: ZUJKAS_clean_linker_0, # of connection points: 2
#     Edge 63, Type (0, 0), BuildingBlock: ZUJKAS_clean_linker_0, # of connection points: 2
# Relax obj value: 0.073
# Max RMSD: 0.156
# Mean RMSD: 0.156
data_MOF--net-wiv--node1-CUKXOW_clean_sbu_0--edge1-ZUJKAS_clean_linker_0
_symmetry_space_group_name_H-M    P1
_symmetry_Int_Tables_number       1
_symmetry_cell_setting            triclinic
loop_
_symmetry_equiv_pos_as_xyz
'x, y, z'
_cell_length_a     81.969741
_cell_length_b     81.929906
_cell_length_c     19.087298
_cell_angle_alpha  90.087392
_cell_angle_beta   90.051383
_cell_angle_gamma 90.005394
loop_
_atom_site_label
_atom_site_type_symbol
_atom_site_fract_x
_atom_site_fract_y
_atom_site_fract_z
_atom_type_partial_charge
Tb0 Tb 0.39349 0.12578 0.16633 0.0
C1 C 0.3753 0.1593 0.14385 0.0
Tb2 Tb 0.35512 0.12626 0.13372 0.0
O3 O 0.40166 0.12604 0.05538 0.0
O4 O 0.37753 0.12615 0.07967 0.0
O5 O 0.3879 0.15168 0.17324 0.0
C6 C 0.32662 0.12637 0.06651 0.0
O7 O 0.36256 0.15152 0.11614 0.0
C8 C 0.36136 0.12598 0.27164 0.0
C9 C 0.37279 0.09288 0.16548 0.0
O10 O 0.3312 0.13701 0.11303 0.0
O11 O 0.33812 0.11564 0.05771 0.0
O12 O 0.34681 0.12603 0.24433 0.0
O13 O 0.37106 0.12598 0.22038 0.0
O14 O 0.36027 0.10019 0.13419 0.0
O15 O 0.38575 0.10088 0.18994 0.0
C16 C 0.42273 0.12505 0.22744 0.0
O17 O 0.4168 0.11381 0.18674 0.0
O18 O 0.41209 0.13673 0.23436 0.0
C19 C 0.38713 0.12618 1.02817 0.0
Tb20 Tb 0.12553 0.6404 0.92313 0.0
C21 C 0.09207 0.62157 0.89758 0.0
Tb22 Tb 0.12563 0.60194 0.89044 0.0
O23 O 0.12515 0.64859 0.8123 0.0
O24 O 0.12626 0.62441 0.83679 0.0
O25 O 0.09948 0.63493 0.92177 0.0
C26 C 0.12659 0.57267 0.82895 0.0
O27 O 0.0999 0.60804 0.87823 0.0
C28 C 0.12461 0.60839 1.02845 0.0
C29 C 0.15854 0.6212 0.90778 0.0
O30 O 0.11514 0.58346 0.82036 0.0
O31 O 0.13753 0.57846 0.87151 0.0
O32 O 0.12417 0.59384 1.00134 0.0
O33 O 0.12533 0.61794 0.97692 0.0
O34 O 0.15083 0.60939 0.87319 0.0
O35 O 0.15072 0.633 0.94187 0.0
C36 C 0.12565 0.66901 0.98996 0.0
O37 O 0.13635 0.66433 0.94399 0.0
O38 O 0.11486 0.65755 0.99846 0.0
C39 C 0.12579 0.63401 0.78528 0.0
Tb40 Tb 0.60099 0.86895 0.1665 0.0
C41 C 0.61998 0.83524 0.15075 0.0
Tb42 Tb 0.63941 0.86871 0.13439 0.0
O43 O 0.59293 0.86849 0.05536 0.0
O44 O 0.61699 0.86981 0.0803 0.0
O45 O 0.60659 0.84297 0.17234 0.0
C46 C 0.66801 0.8691 0.06782 0.0
O47 O 0.63348 0.84278 0.12921 0.0
C48 C 0.6331 0.86768 0.27213 0.0
C49 C 0.62093 0.90175 0.15914 0.0
O50 O 0.65643 0.85854 0.05733 0.0
O51 O 0.66345 0.87943 0.11561 0.0
O52 O 0.64766 0.8673 0.24495 0.0
O53 O 0.62342 0.86835 0.22083 0.0
O54 O 0.6326 0.8943 0.12285 0.0
O55 O 0.60892 0.8937 0.1906 0.0
C56 C 0.5717 0.87044 0.22706 0.0
O57 O 0.5782 0.88176 0.18867 0.0
O58 O 0.58178 0.85824 0.23201 0.0
C59 C 0.60747 0.86921 1.02849 0.0
Tb60 Tb 0.86788 0.35418 0.92379 0.0
C61 C 0.90118 0.37202 0.89175 0.0
Tb62 Tb 0.86818 0.39269 0.89221 0.0
O63 O 0.86813 0.34608 0.81283 0.0
O64 O 0.86814 0.37029 0.83793 0.0
O65 O 0.89395 0.35931 0.92199 0.0
C66 C 0.86879 0.42195 0.83144 0.0
O67 O 0.89312 0.38507 0.86857 0.0
C68 C 0.86789 0.38616 0.02998 0.0
C69 C 0.8347 0.37428 0.91489 0.0
O70 O 0.87988 0.4162 0.87328 0.0
O71 O 0.85733 0.41113 0.8232 0.0
O72 O 0.86811 0.40074 1.00333 0.0
O73 O 0.86779 0.37661 0.97818 0.0
O74 O 0.84225 0.38713 0.88718 0.0
O75 O 0.84248 0.36128 0.94031 0.0
C76 C 0.86802 0.32556 0.98986 0.0
O77 O 0.85853 0.32943 0.93795 0.0
O78 O 0.87745 0.33784 1.00478 0.0
C79 C 0.86814 0.3607 0.78623 0.0
Tb80 Tb 0.39249 0.36858 0.13575 0.0
C81 C 0.3742 0.33501 0.15605 0.0
Tb82 Tb 0.35403 0.36802 0.16755 0.0
O83 O 0.40058 0.36814 0.24677 0.0
O84 O 0.37645 0.36798 0.22198 0.0
O85 O 0.3868 0.34272 0.12722 0.0
C86 C 0.32529 0.36801 0.23273 0.0
O87 O 0.3614 0.34267 0.18384 0.0
C88 C 0.36053 0.36852 0.02991 0.0
C89 C 0.37165 0.40147 0.13676 0.0
O90 O 0.32937 0.35839 0.18154 0.0
O91 O 0.33743 0.37763 0.24753 0.0
O92 O 0.34592 0.36841 0.05657 0.0
O93 O 0.37011 0.3685 0.08158 0.0
O94 O 0.35902 0.3941 0.16695 0.0
O95 O 0.38471 0.39353 0.113 0.0
C96 C 0.42182 0.36965 0.07562 0.0
O97 O 0.41566 0.38085 0.11587 0.0
O98 O 0.41137 0.35781 0.06858 0.0
C99 C 0.38603 0.36791 0.27364 0.0
Tb100 Tb 0.36796 0.64035 0.88662 0.0
C101 C 0.4008 0.62151 0.91082 0.0
Tb102 Tb 0.3678 0.60193 0.91839 0.0
O103 O 0.36667 0.64861 0.99724 0.0
O104 O 0.36751 0.62435 0.97287 0.0
O105 O 0.39345 0.63326 0.87465 0.0
C106 C 0.36901 0.57256 0.97817 0.0
O107 O 0.39264 0.60958 0.94235 0.0
C108 C 0.36808 0.60847 0.78048 0.0
C109 C 0.33431 0.6213 0.90365 0.0
O110 O 0.38039 0.579 0.93988 0.0
O111 O 0.35691 0.58276 0.9835 0.0
O112 O 0.36722 0.59391 0.8071 0.0
O113 O 0.3687 0.61794 0.83242 0.0
O114 O 0.34192 0.60785 0.9254 0.0
O115 O 0.34198 0.63468 0.88157 0.0
C116 C 0.36862 0.66885 0.81956 0.0
O117 O 0.35789 0.6574 0.80961 0.0
O118 O 0.37895 0.66424 0.86717 0.0
C119 C 0.36693 0.63403 1.02424 0.0
Tb120 Tb 0.60075 0.62585 0.13732 0.0
C121 C 0.61991 0.65944 0.15389 0.0
Tb122 Tb 0.63916 0.62583 0.1697 0.0
O123 O 0.5927 0.6265 0.2484 0.0
O124 O 0.61674 0.6249 0.22358 0.0
O125 O 0.60643 0.65183 0.13243 0.0
C126 C 0.66774 0.62527 0.23655 0.0
O127 O 0.6334 0.65179 0.17498 0.0
C128 C 0.63287 0.62684 0.03191 0.0
C129 C 0.62042 0.5929 0.14552 0.0
O130 O 0.65626 0.63596 0.24664 0.0
O131 O 0.66309 0.61491 0.189 0.0
O132 O 0.64742 0.62714 0.05921 0.0
O133 O 0.62318 0.62625 0.08314 0.0
O134 O 0.63216 0.60031 0.18165 0.0
O135 O 0.60846 0.601 0.11386 0.0
C136 C 0.57146 0.62456 0.07654 0.0
O137 O 0.57763 0.61347 0.11719 0.0
O138 O 0.58188 0.63641 0.06946 0.0
C139 C 0.60724 0.62564 0.27535 0.0
Tb140 Tb 0.62563 0.35413 0.89142 0.0
C141 C 0.59259 0.3727 0.91467 0.0
Tb142 Tb 0.62539 0.39259 0.92352 0.0
O143 O 0.62695 0.34595 1.00204 0.0
O144 O 0.62574 0.37017 0.97769 0.0
O145 O 0.60009 0.36099 0.87872 0.0
C146 C 0.62397 0.42191 0.98416 0.0
O147 O 0.6006 0.38471 0.94656 0.0
C148 C 0.62522 0.38606 0.78556 0.0
C149 C 0.65908 0.37353 0.90948 0.0
O150 O 0.61281 0.41558 0.94421 0.0
O151 O 0.63597 0.41164 0.99063 0.0
O152 O 0.62578 0.40063 0.81246 0.0
O153 O 0.62486 0.37653 0.83726 0.0
O154 O 0.65135 0.38701 0.93017 0.0
O155 O 0.65157 0.36 0.88789 0.0
C156 C 0.62536 0.32554 0.82444 0.0
O157 O 0.63599 0.33709 0.81485 0.0
O158 O 0.61491 0.33011 0.87163 0.0
C159 C 0.62646 0.36055 0.02906 0.0
Tb160 Tb 0.89208 0.62513 0.66856 0.0
C161 C 0.87422 0.6587 0.64498 0.0
Tb162 Tb 0.85368 0.626 0.63555 0.0
O163 O 0.90026 0.62518 0.5575 0.0
O164 O 0.87615 0.62558 0.5819 0.0
O165 O 0.88646 0.65103 0.67677 0.0
C166 C 0.82511 0.62632 0.56884 0.0
O167 O 0.86164 0.651 0.6156 0.0
C168 C 0.85999 0.62591 0.77355 0.0
C169 C 0.87102 0.59245 0.66729 0.0
O170 O 0.82984 0.63696 0.61511 0.0
O171 O 0.83651 0.61549 0.55997 0.0
O172 O 0.84542 0.62617 0.74638 0.0
O173 O 0.86963 0.62565 0.72219 0.0
O174 O 0.85856 0.59989 0.63608 0.0
O175 O 0.88403 0.60031 0.69205 0.0
C176 C 0.92134 0.62398 0.72973 0.0
O177 O 0.91484 0.61242 0.69245 0.0
O178 O 0.91128 0.63622 0.7332 0.0
C179 C 0.88572 0.62545 0.53036 0.0
Tb180 Tb 0.62699 0.14015 0.41951 0.0
C181 C 0.59337 0.12281 0.38848 0.0
Tb182 Tb 0.62601 0.10172 0.38685 0.0
O183 O 0.62694 0.1484 0.30877 0.0
O184 O 0.62639 0.12417 0.33302 0.0
O185 O 0.60087 0.13531 0.41919 0.0
C186 C 0.62472 0.07243 0.32596 0.0
O187 O 0.60116 0.10974 0.36392 0.0
C188 C 0.62657 0.10816 0.52492 0.0
C189 C 0.65973 0.11953 0.40951 0.0
O190 O 0.61363 0.07859 0.36663 0.0
O191 O 0.63658 0.08285 0.31893 0.0
O192 O 0.6262 0.0936 0.4979 0.0
O193 O 0.62669 0.11771 0.47333 0.0
O194 O 0.65195 0.10705 0.37977 0.0
O195 O 0.65213 0.13235 0.43744 0.0
C196 C 0.62726 0.16868 0.48683 0.0
O197 O 0.63779 0.1641 0.43992 0.0
O198 O 0.61657 0.15716 0.49596 0.0
C199 C 0.62661 0.13381 0.28165 0.0
Tb200 Tb 0.10114 0.36819 0.66651 0.0
C201 C 0.12117 0.33569 0.6515 0.0
Tb202 Tb 0.13955 0.36904 0.63369 0.0
O203 O 0.09297 0.36944 0.55556 0.0
O204 O 0.11706 0.36837 0.57997 0.0
O205 O 0.10929 0.34327 0.68603 0.0
C206 C 0.16816 0.36925 0.56753 0.0
O207 O 0.13271 0.34362 0.61642 0.0
C208 C 0.13322 0.36894 0.77167 0.0
C209 C 0.12016 0.40215 0.65913 0.0
O210 O 0.16425 0.35964 0.61886 0.0
O211 O 0.15593 0.37878 0.55322 0.0
O212 O 0.14777 0.36974 0.74458 0.0
O213 O 0.1236 0.36836 0.72016 0.0
O214 O 0.13362 0.39499 0.63476 0.0
O215 O 0.10683 0.39405 0.67885 0.0
C216 C 0.07192 0.3665 0.72747 0.0
O217 O 0.08215 0.37853 0.73413 0.0
O218 O 0.07824 0.35541 0.68714 0.0
C219 C 0.10749 0.36908 0.52837 0.0
Tb220 Tb 0.36766 0.85449 0.42059 0.0
C221 C 0.40098 0.87341 0.3946 0.0
Tb222 Tb 0.36733 0.89291 0.38859 0.0
O223 O 0.36809 0.8463 0.30967 0.0
O224 O 0.36683 0.87048 0.33448 0.0
O225 O 0.39367 0.86009 0.41937 0.0
C226 C 0.3659 0.92214 0.32752 0.0
O227 O 0.39304 0.88685 0.37499 0.0
C228 C 0.36841 0.8865 0.5265 0.0
C229 C 0.33451 0.87347 0.40554 0.0
O230 O 0.37787 0.91184 0.32128 0.0
O231 O 0.35474 0.9159 0.36751 0.0
O232 O 0.36877 0.90105 0.49955 0.0
O233 O 0.36772 0.87693 0.47489 0.0
O234 O 0.34215 0.88535 0.37132 0.0
O235 O 0.34242 0.86168 0.43922 0.0
C236 C 0.36755 0.82593 0.48712 0.0
O237 O 0.35689 0.83056 0.44089 0.0
O238 O 0.37831 0.83741 0.49599 0.0
C239 C 0.36736 0.86088 0.28286 0.0
Tb240 Tb 0.8922 0.86744 0.63542 0.0
C241 C 0.87292 0.83451 0.64954 0.0
Tb242 Tb 0.85378 0.86738 0.66818 0.0
O243 O 0.90031 0.86876 0.74656 0.0
O244 O 0.87626 0.86725 0.72183 0.0
O245 O 0.88458 0.8424 0.61503 0.0
C246 C 0.82527 0.8672 0.73535 0.0
O247 O 0.86129 0.84216 0.68533 0.0
C248 C 0.86007 0.86738 0.53026 0.0
C249 C 0.8725 0.90091 0.64355 0.0
O250 O 0.82982 0.85665 0.68841 0.0
O251 O 0.83681 0.87786 0.74464 0.0
O252 O 0.8455 0.86773 0.55736 0.0
O253 O 0.86972 0.86713 0.58169 0.0
O254 O 0.85923 0.89345 0.66802 0.0
O255 O 0.88597 0.89313 0.62331 0.0
C256 C 0.92145 0.8664 0.57427 0.0
O257 O 0.91105 0.87831 0.56871 0.0
O258 O 0.91529 0.85507 0.61367 0.0
C259 C 0.88577 0.86812 0.77353 0.0
Tb260 Tb 0.86833 0.13954 0.38867 0.0
C261 C 0.90181 0.12208 0.42032 0.0
Tb262 Tb 0.86901 0.1011 0.42044 0.0
O263 O 0.86869 0.1477 0.49954 0.0
O264 O 0.86879 0.12348 0.47482 0.0
O265 O 0.89443 0.1347 0.39005 0.0
C266 C 0.87017 0.0718 0.48086 0.0
O267 O 0.8939 0.10898 0.44375 0.0
C268 C 0.86843 0.10749 0.28247 0.0
C269 C 0.83539 0.1193 0.39995 0.0
O270 O 0.88157 0.07818 0.44249 0.0
O271 O 0.85808 0.08201 0.48584 0.0
O272 O 0.86873 0.09295 0.30949 0.0
O273 O 0.86842 0.1171 0.33405 0.0
O274 O 0.84314 0.10671 0.42879 0.0
O275 O 0.84302 0.13212 0.37228 0.0
C276 C 0.86811 0.16827 0.3234 0.0
O277 O 0.85859 0.16415 0.37474 0.0
O278 O 0.87776 0.15616 0.30849 0.0
C279 C 0.8688 0.13312 0.52639 0.0
Tb280 Tb 0.10244 0.12623 0.63432 0.0
C281 C 0.12157 0.15973 0.65116 0.0
Tb282 Tb 0.14079 0.12628 0.66771 0.0
O283 O 0.0943 0.12705 0.74546 0.0
O284 O 0.11831 0.1253 0.72097 0.0
O285 O 0.10848 0.15209 0.62583 0.0
C286 C 0.16931 0.1256 0.73491 0.0
O287 O 0.13469 0.15211 0.67615 0.0
C288 C 0.13464 0.12746 0.52963 0.0
C289 C 0.1221 0.09331 0.6437 0.0
O290 O 0.15804 0.13657 0.74356 0.0
O291 O 0.1645 0.11504 0.68851 0.0
O292 O 0.14916 0.12787 0.55727 0.0
O293 O 0.12494 0.12668 0.5807 0.0
O294 O 0.13373 0.1008 0.68015 0.0
O295 O 0.1102 0.10136 0.61127 0.0
C296 C 0.07318 0.12497 0.57338 0.0
O297 O 0.07971 0.11345 0.61062 0.0
O298 O 0.08322 0.13722 0.56974 0.0
C299 C 0.10882 0.12615 0.77266 0.0
Tb300 Tb 0.125 0.85492 0.39108 0.0
C301 C 0.09226 0.87396 0.41484 0.0
Tb302 Tb 0.12537 0.89333 0.42404 0.0
O303 O 0.12637 0.8466 0.50157 0.0
O304 O 0.12545 0.87084 0.47783 0.0
O305 O 0.09957 0.8622 0.37852 0.0
C306 C 0.12435 0.92254 0.4858 0.0
O307 O 0.10046 0.8858 0.44701 0.0
C308 C 0.12508 0.88693 0.28583 0.0
C309 C 0.15874 0.87385 0.40803 0.0
O310 O 0.11315 0.9165 0.44524 0.0
O311 O 0.13616 0.91205 0.49215 0.0
O312 O 0.12596 0.90146 0.31303 0.0
O313 O 0.12449 0.87738 0.33743 0.0
O314 O 0.15124 0.8873 0.43054 0.0
O315 O 0.15097 0.86056 0.38545 0.0
C316 C 0.12429 0.82634 0.32395 0.0
O317 O 0.13515 0.83769 0.31478 0.0
O318 O 0.11383 0.83111 0.37075 0.0
C319 C 0.1261 0.86116 0.52902 0.0
H320 H 0.342 0.94478 0.34382 0.0
H321 H 0.34252 0.9734 0.30728 0.0
H322 H 0.38994 0.96616 0.21457 0.0
H323 H 0.38942 0.93742 0.25052 0.0
H324 H 0.36581 0.99614 0.35035 0.0
H325 H 0.36445 0.99039 0.06044 0.0
H326 H 0.35877 0.97387 0.11806 0.0
H327 H 0.37992 0.97844 0.10306 0.0
C328 C 0.35243 0.94924 0.31475 0.0
C329 C 0.36567 0.93893 0.29989 0.0
C330 C 0.35272 0.96557 0.29403 0.0
C331 C 0.3662 0.97186 0.25771 0.0
C332 C 0.3793 0.96148 0.24147 0.0
H333 H 0.39506 0.07342 0.23232 0.0
H334 H 0.3934 0.04406 0.25289 0.0
C335 C 0.37902 0.94511 0.26227 0.0
C336 C 0.36697 0.98951 0.24126 0.0
H337 H 0.36985 0.01682 0.1068 0.0
C338 C 0.36664 0.00067 0.29709 0.0
C339 C 0.36792 0.99536 0.17172 0.0
C340 C 0.36765 0.98393 0.10971 0.0
C341 C 0.36746 0.01754 0.28536 0.0
C342 C 0.36886 0.02339 0.21596 0.0
C343 C 0.36892 0.01226 0.15997 0.0
C344 C 0.37016 0.04106 0.20072 0.0
C345 C 0.36661 0.02899 0.34728 0.0
C346 C 0.35782 0.04902 0.16297 0.0
C347 C 0.35872 0.06583 0.15091 0.0
C348 C 0.37205 0.07497 0.17607 0.0
C349 C 0.38457 0.06683 0.2125 0.0
C350 C 0.38363 0.05004 0.22459 0.0
H351 H 0.36166 0.02285 0.39459 0.0
H352 H 0.37906 0.03343 0.35983 0.0
H353 H 0.35887 0.03976 0.33518 0.0
H354 H 0.34735 0.04226 0.14389 0.0
H355 H 0.34889 0.07165 0.12239 0.0
H356 H 0.93781 0.64862 0.79572 0.0
H357 H 0.96663 0.64873 0.83126 0.0
H358 H 0.97141 0.59884 0.76187 0.0
H359 H 0.94279 0.59875 0.72544 0.0
H360 H 0.98457 0.6286 0.92439 0.0
H361 H 0.00687 0.62284 0.65111 0.0
H362 H 0.98606 0.62816 0.67176 0.0
H363 H 0.99263 0.60724 0.67587 0.0
C364 C 0.94501 0.63767 0.78858 0.0
C365 C 0.93815 0.62372 0.75733 0.0
C366 C 0.96144 0.63774 0.80886 0.0
C367 C 0.97122 0.6239 0.79791 0.0
C368 C 0.96417 0.60976 0.76936 0.0
H369 H 0.07212 0.59705 0.85058 0.0
H370 H 0.04271 0.59808 0.83136 0.0
C371 C 0.9478 0.6097 0.74895 0.0
C372 C 0.98888 0.62427 0.8147 0.0
H373 H 0.02656 0.61957 0.74131 0.0
C374 C 0.99378 0.62674 0.88441 0.0
C375 C 0.00086 0.62191 0.76229 0.0
C376 C 0.99639 0.62004 0.68595 0.0
C377 C 0.01036 0.62638 0.90345 0.0
C378 C 0.02229 0.62371 0.85116 0.0
C379 C 0.01738 0.6215 0.78136 0.0
C380 C 0.03998 0.62297 0.86738 0.0
C381 C 0.01493 0.6284 0.97954 0.0
C382 C 0.04822 0.63665 0.8941 0.0
C383 C 0.06509 0.63612 0.90528 0.0
C384 C 0.07405 0.62192 0.88949 0.0
C385 C 0.06567 0.6082 0.86341 0.0
C386 C 0.04883 0.60875 0.85231 0.0
H387 H 0.00432 0.62645 1.01473 0.0
H388 H 0.02477 0.61974 0.99438 0.0
H389 H 0.01952 0.64098 0.98823 0.0
H390 H 0.04167 0.64786 0.90481 0.0
H391 H 0.07111 0.64695 0.92511 0.0
H392 H 0.59865 0.92153 0.2237 0.0
H393 H 0.60028 0.95094 0.2422 0.0
H394 H 0.64634 0.95228 0.13342 0.0
H395 H 0.64476 0.9228 0.11371 0.0
H396 H 0.62471 0.96722 0.31537 0.0
H397 H 0.62075 0.9895 0.04089 0.0
H398 H 0.61518 0.96896 0.06544 0.0
H399 H 0.63629 0.9745 0.05709 0.0
C400 C 0.60908 0.92804 0.20305 0.0
C401 C 0.62158 0.91975 0.16715 0.0
C402 C 0.60998 0.94488 0.21373 0.0
C403 C 0.62333 0.95383 0.18855 0.0
C404 C 0.63577 0.94567 0.1521 0.0
H405 H 0.6482 0.05698 0.24862 0.0
H406 H 0.64852 0.02817 0.2124 0.0
C407 C 0.63487 0.92879 0.14123 0.0
C408 C 0.62455 0.97152 0.20412 0.0
H409 H 0.6256 0.00934 0.12886 0.0
C410 C 0.6249 0.97643 0.27457 0.0
C411 C 0.62493 0.98349 0.15077 0.0
C412 C 0.62414 0.97892 0.07425 0.0
C413 C 0.62552 0.99297 0.29323 0.0
C414 C 0.62553 0.00496 0.23999 0.0
C415 C 0.62555 9e-05 0.16947 0.0
C416 C 0.62493 0.02259 0.2571 0.0
C417 C 0.62626 -0.00251 0.36987 0.0
C418 C 0.61137 0.02904 0.29238 0.0
C419 C 0.61116 0.04539 0.31298 0.0
C420 C 0.62448 0.05561 0.29833 0.0
C421 C 0.6378 0.04933 0.26066 0.0
C422 C 0.638 0.03292 0.23998 0.0
H423 H 0.63046 0.9871 0.40262 0.0
H424 H 0.63457 0.00801 0.37859 0.0
H425 H 0.61389 0.00104 0.38792 0.0
H426 H 0.60104 0.02134 0.30497 0.0
H427 H 0.6007 0.04995 0.34161 0.0
H428 H 0.92256 0.34788 0.9308 0.0
H429 H 0.95198 0.34686 0.91015 0.0
H430 H 0.94987 0.39377 0.80852 0.0
H431 H 0.92048 0.39489 0.82815 0.0
H432 H 0.96687 0.37011 0.73237 0.0
H433 H 0.98836 0.37306 1.00819 0.0
H434 H 0.97353 0.35741 0.99063 0.0
H435 H 0.96784 0.3785 0.98271 0.0
C436 C 0.92834 0.35804 0.90439 0.0
C437 C 0.9191 0.37148 0.88121 0.0
C438 C 0.94519 0.35747 0.89305 0.0
C439 C 0.95313 0.37034 0.85864 0.0
C440 C 0.94398 0.38375 0.83551 0.0
H441 H 0.05664 0.38976 0.80616 0.0
H442 H 0.02781 0.39035 0.84087 0.0
C443 C 0.92716 0.38436 0.84685 0.0
C444 C 0.97086 0.36954 0.84383 0.0
H445 H 0.0084 0.36759 0.9214 0.0
C446 C 0.97596 0.36958 0.77368 0.0
C447 C 0.98267 0.36902 0.89789 0.0
C448 C 0.9779 0.36963 0.97415 0.0
C449 C 0.99255 0.36891 0.75602 0.0
C450 C 0.00435 0.36796 0.80999 0.0
C451 C -0.00071 0.36815 0.88021 0.0
C452 C 0.022 0.36698 0.7941 0.0
C453 C -0.00265 0.36947 0.67973 0.0
C454 C 0.02833 0.35345 0.75807 0.0
C455 C 0.04473 0.35309 0.73834 0.0
C456 C 0.05508 0.36623 0.75452 0.0
C457 C 0.0489 0.37949 0.79295 0.0
C458 C 0.03247 0.37983 0.81279 0.0
H459 H 0.98723 0.37396 0.64612 0.0
H460 H 0.00813 0.37747 0.67195 0.0
H461 H 0.00062 0.357 0.66193 0.0
H462 H 0.02049 0.34331 0.74414 0.0
H463 H 0.04921 0.34269 0.709 0.0
H464 H 0.3949 0.42121 0.07847 0.0
H465 H 0.39357 0.45062 0.05971 0.0
H466 H 0.34561 0.45189 0.1521 0.0
H467 H 0.34684 0.42244 0.17202 0.0
H468 H 0.3705 0.46734 0.97952 0.0
H469 H 0.36977 0.48852 0.25631 0.0
H470 H 0.37571 0.46808 0.2318 0.0
H471 H 0.35452 0.47362 0.23416 0.0
C472 C 0.38408 0.4277 0.09532 0.0
C473 C 0.37098 0.41941 0.1269 0.0
C474 C 0.38336 0.44454 0.08451 0.0
C475 C 0.36959 0.45347 0.10532 0.0
C476 C 0.35649 0.44528 0.13692 0.0
H477 H 0.34484 0.55645 0.04843 0.0
H478 H 0.34449 0.52748 0.0817 0.0
C479 C 0.35719 0.42842 0.14785 0.0
C480 C 0.36872 0.47121 0.09083 0.0
H481 H 0.36619 0.50869 0.16882 0.0
C482 C 0.36958 0.47638 1.0209 0.0
C483 C 0.36741 0.48296 0.14495 0.0
C484 C 0.36693 0.47809 0.22111 0.0
C485 C 0.36917 0.493 1.00352 0.0
C486 C 0.36816 0.50476 0.05764 0.0
C487 C 0.36701 0.49962 0.12755 0.0
C488 C 0.36873 0.52247 0.04235 0.0
C489 C 0.36965 0.49781 0.92725 0.0
C490 C 0.38264 0.52928 1.01117 0.0
C491 C 0.38286 0.54573 0.99223 0.0
C492 C 0.3692 0.55567 1.00453 0.0
C493 C 0.35551 0.54902 0.03828 0.0
C494 C 0.3553 0.53252 0.05724 0.0
H495 H 0.3661 0.48753 0.89243 0.0
H496 H 0.36142 0.5083 0.91688 0.0
H497 H 0.38226 0.50152 0.91331 0.0
H498 H 0.39324 0.52179 1.00047 0.0
H499 H 0.39361 0.55057 0.96664 0.0
H500 H 0.556 0.64806 0.99943 0.0
H501 H 0.52719 0.64838 0.9634 0.0
H502 H 0.52039 0.60086 0.05575 0.0
H503 H 0.549 0.60052 0.09219 0.0
H504 H 0.50836 0.62547 0.87985 0.0
H505 H 0.48619 0.63026 0.15382 0.0
H506 H 0.50708 0.63438 0.12968 0.0
H507 H 0.50011 0.61369 0.13882 0.0
C508 C 0.54836 0.63765 1.01145 0.0
C509 C 0.55465 0.62432 0.04902 0.0
C510 C 0.53195 0.63785 0.99089 0.0
C511 C 0.52163 0.62477 1.008 0.0
C512 C 0.52809 0.6112 0.04316 0.0
H513 H 0.42037 0.59903 0.97519 0.0
H514 H 0.44979 0.6004 0.9935 0.0
C515 C 0.54444 0.61099 0.06365 0.0
C516 C 0.504 0.62537 0.99101 0.0
H517 H 0.4663 0.62465 0.06661 0.0
C518 C 0.49913 0.62543 0.92052 0.0
C519 C 0.49203 0.62537 0.04432 0.0
C520 C 0.49657 0.62607 0.12094 0.0
C521 C 0.48253 0.62487 0.90191 0.0
C522 C 0.47057 0.62452 0.95533 0.0
C523 C 0.47549 0.62481 1.02576 0.0
C524 C 0.45287 0.62344 0.93985 0.0
C525 C 0.47795 0.62412 0.82541 0.0
C526 C 0.44481 0.63595 0.90347 0.0
C527 C 0.42793 0.6352 0.89271 0.0
C528 C 0.41879 0.62198 0.91867 0.0
C529 C 0.42698 0.60941 0.9545 0.0
C530 C 0.44382 0.61016 0.96507 0.0
H531 H 0.48849 0.62063 0.79201 0.0
H532 H 0.46791 0.61524 0.81659 0.0
H533 H 0.47364 0.63632 0.80829 0.0
H534 H 0.45151 0.64646 0.88477 0.0
H535 H 0.42204 0.64514 0.86524 0.0
H536 H 0.59791 0.57317 0.08192 0.0
H537 H 0.59931 0.5437 0.06438 0.0
H538 H 0.64551 0.54225 0.17234 0.0
H539 H 0.64416 0.57177 0.19113 0.0
H540 H 0.62337 0.5271 0.99134 0.0
H541 H 0.61999 0.50538 0.26667 0.0
H542 H 0.61455 0.52592 0.24166 0.0
H543 H 0.63563 0.52021 0.24962 0.0
C544 C 0.60833 0.56661 0.1026 0.0
C545 C 0.62092 0.57488 0.13802 0.0
C546 C 0.60909 0.54975 0.09248 0.0
C547 C 0.62241 0.54076 0.11772 0.0
C548 C 0.63496 0.5489 0.15365 0.0
H549 H 0.64753 0.43769 0.05994 0.0
H550 H 0.64771 0.46656 0.09528 0.0
C551 C 0.63419 0.5658 0.16398 0.0
C552 C 0.6235 0.52302 0.10275 0.0
H553 H 0.62481 0.48536 0.17934 0.0
C554 C 0.62366 0.51798 0.03246 0.0
C555 C 0.62402 0.51116 0.15652 0.0
C556 C 0.62341 0.51587 0.2329 0.0
C557 C 0.62426 0.50139 1.01439 0.0
C558 C 0.62445 0.48952 0.06806 0.0
C559 C 0.62462 0.49452 0.1384 0.0
C560 C 0.62393 0.47185 0.05163 0.0
C561 C 0.62481 0.49672 0.9379 0.0
C562 C 0.61032 0.46522 1.01724 0.0
C563 C 0.61019 0.44883 0.99716 0.0
C564 C 0.62365 0.43876 1.01141 0.0
C565 C 0.63702 0.44522 0.04823 0.0
C566 C 0.63714 0.46167 0.06839 0.0
H567 H 0.62881 0.50707 0.90452 0.0
H568 H 0.63318 0.48626 0.9292 0.0
H569 H 0.61241 0.49302 0.9206 0.0
H570 H 0.59989 0.47282 1.00491 0.0
H571 H 0.59968 0.44413 0.96918 0.0
H572 H 0.43722 0.34598 0.99907 0.0
H573 H 0.46606 0.34548 0.96368 0.0
H574 H 0.47302 0.39307 0.0558 0.0
H575 H 0.44438 0.3936 0.09158 0.0
H576 H 0.48508 0.36832 0.88038 0.0
H577 H 0.50695 0.36349 0.15487 0.0
H578 H 0.48608 0.35942 0.13011 0.0
H579 H 0.49309 0.38009 0.13971 0.0
C580 C 0.44491 0.35637 1.01117 0.0
C581 C 0.43865 0.36978 0.04847 0.0
C582 C 0.46133 0.35607 0.99097 0.0
C583 C 0.47169 0.36912 1.0082 0.0
C584 C 0.46528 0.38276 0.04311 0.0
H585 H 0.57277 0.39508 0.97831 0.0
H586 H 0.54334 0.39352 0.99565 0.0
C587 C 0.44891 0.38307 0.06322 0.0
C588 C 0.48933 0.36842 0.99166 0.0
H589 H 0.52695 0.36911 0.06828 0.0
C590 C 0.49428 0.36835 0.92129 0.0
C591 C 0.50124 0.36839 0.04529 0.0
C592 C 0.49663 0.3677 0.12177 0.0
C593 C 0.51089 0.3689 0.90314 0.0
C594 C 0.52279 0.36925 0.95689 0.0
C595 C 0.5178 0.36894 1.02718 0.0
C596 C 0.5405 0.37043 0.94192 0.0
C597 C 0.51556 0.36965 0.82678 0.0
C598 C 0.54868 0.35795 0.90579 0.0
C599 C 0.56558 0.35881 0.89558 0.0
C600 C 0.57459 0.3721 0.92187 0.0
C601 C 0.56627 0.38464 0.95741 0.0
C602 C 0.54942 0.38379 0.96742 0.0
H603 H 0.50504 0.37303 0.79306 0.0
H604 H 0.52553 0.3786 0.81834 0.0
H605 H 0.52 0.35748 0.80975 0.0
H606 H 0.54208 0.34738 0.88685 0.0
H607 H 0.57158 0.34889 0.86831 0.0
H608 H 0.8921 0.44516 0.84806 0.0
H609 H 0.89124 0.47355 0.8088 0.0
H610 H 0.84452 0.46491 0.71138 0.0
H611 H 0.84525 0.43643 0.75129 0.0
H612 H 0.88829 0.48675 0.67238 0.0
H613 H 0.83605 0.50395 0.84321 0.0
H614 H 0.84743 0.48531 0.85536 0.0
H615 H 0.83271 0.48684 0.78593 0.0
C616 C 0.88168 0.44929 0.81795 0.0
C617 C 0.86869 0.43866 0.80301 0.0
C618 C 0.88121 0.46549 0.79553 0.0
C619 C 0.86772 0.47138 0.7581 0.0
C620 C 0.85492 0.46067 0.74127 0.0
H621 H 0.84638 0.57159 0.62863 0.0
H622 H 0.84528 0.54198 0.64455 0.0
C623 C 0.85539 0.44441 0.76369 0.0
C624 C 0.86705 0.48884 0.73804 0.0
H625 H 0.84683 0.5245 0.77052 0.0
C626 C 0.87918 0.495 0.69351 0.0
C627 C 0.85513 0.49955 0.76568 0.0
C628 C 0.84214 0.49367 0.81564 0.0
C629 C 0.87979 0.51163 0.67621 0.0
C630 C 0.86813 0.52241 0.70525 0.0
C631 C 0.85576 0.51619 0.74839 0.0
C632 C 0.86897 0.54029 0.69401 0.0
C633 C 0.89289 0.51752 0.62683 0.0
C634 C 0.88257 0.54917 0.71736 0.0
C635 C 0.88325 0.56607 0.70845 0.0
C636 C 0.87028 0.57448 0.67634 0.0
C637 C 0.85661 0.56554 0.65339 0.0
C638 C 0.85594 0.54861 0.66243 0.0
H639 H 0.89775 0.5074 0.5941 0.0
H640 H 0.8882 0.52726 0.59179 0.0
H641 H 0.90317 0.52262 0.65777 0.0
H642 H 0.8926 0.54303 0.74327 0.0
H643 H 0.89394 0.57252 0.72711 0.0
H644 H 0.57263 0.14761 0.4263 0.0
H645 H 0.54301 0.14871 0.4109 0.0
H646 H 0.54381 0.10107 0.31473 0.0
H647 H 0.57331 0.09973 0.33034 0.0
H648 H 0.52537 0.14675 0.28499 0.0
H649 H 0.50841 0.09651 0.46506 0.0
H650 H 0.52827 0.10605 0.46653 0.0
H651 H 0.52354 0.09085 0.40156 0.0
C652 C 0.56652 0.13731 0.40221 0.0
C653 C 0.5754 0.12355 0.3798 0.0
C654 C 0.54959 0.13798 0.39348 0.0
C655 C 0.5412 0.12487 0.36276 0.0
C656 C 0.55 0.11118 0.33997 0.0
H657 H 0.4457 0.10145 0.21256 0.0
H658 H 0.47416 0.1023 0.25123 0.0
C659 C 0.56691 0.11049 0.34856 0.0
C660 C 0.52332 0.12571 0.35178 0.0
H661 H 0.48767 0.10576 0.38668 0.0
C662 C 0.51707 0.13793 0.30787 0.0
C663 C 0.51256 0.11418 0.38179 0.0
C664 C 0.51849 0.10124 0.43191 0.0
C665 C 0.50042 0.13853 0.29082 0.0
C666 C 0.48972 0.12675 0.3195 0.0
C667 C 0.49591 0.11477 0.36475 0.0
C668 C 0.47224 0.12608 0.29995 0.0
C669 C 0.49452 0.15133 0.24001 0.0
C670 C 0.46164 0.13903 0.31594 0.0
C671 C 0.44536 0.13857 0.29384 0.0
C672 C 0.43946 0.12513 0.25573 0.0
C673 C 0.44995 0.11198 0.24174 0.0
C674 C 0.46619 0.11244 0.26381 0.0
H675 H 0.50477 0.15724 0.21163 0.0
H676 H 0.48602 0.14593 0.20099 0.0
H677 H 0.48783 0.16095 0.26919 0.0
H678 H 0.466 0.14954 0.34487 0.0
H679 H 0.43748 0.14883 0.3055 0.0
H680 H 0.10383 0.55866 0.74329 0.0
H681 H 0.10244 0.52996 0.70637 0.0
H682 H 0.14746 0.52017 0.81552 0.0
H683 H 0.14889 0.54876 0.85267 0.0
H684 H 0.12596 0.5097 0.63091 0.0
H685 H 0.11348 0.48805 0.90136 0.0
H686 H 0.11121 0.50915 0.87582 0.0
H687 H 0.13113 0.50089 0.89255 0.0
C688 C 0.11349 0.5504 0.7588 0.0
C689 C 0.12641 0.55586 0.80117 0.0
C690 C 0.11269 0.53404 0.73769 0.0
C691 C 0.12473 0.52293 0.75909 0.0
C692 C 0.13793 0.52852 0.79933 0.0
H693 H 0.14464 0.42368 0.62597 0.0
H694 H 0.14513 0.45314 0.64588 0.0
C695 C 0.13877 0.54485 0.82024 0.0
C696 C 0.12325 0.50538 0.74148 0.0
H697 H 0.11845 0.46778 0.81544 0.0
C698 C 0.12427 0.50051 0.67109 0.0
C699 C 0.12083 0.49347 0.79404 0.0
C700 C 0.11895 0.4981 0.87018 0.0
C701 C 0.12328 0.48396 0.65202 0.0
C702 C 0.12137 0.47202 0.70487 0.0
C703 C 0.12002 0.47694 0.77507 0.0
C704 C 0.12074 0.45431 0.68885 0.0
C705 C 0.1241 0.4794 0.57552 0.0
C706 C 0.10694 0.44514 0.70713 0.0
C707 C 0.10663 0.42827 0.69617 0.0
C708 C 0.12019 0.42018 0.66714 0.0
C709 C 0.13395 0.42946 0.64821 0.0
C710 C 0.13423 0.44635 0.65914 0.0
H711 H 0.12141 0.48999 0.54112 0.0
H712 H 0.13658 0.47501 0.56309 0.0
H713 H 0.11537 0.46943 0.56316 0.0
H714 H 0.09643 0.45104 0.73046 0.0
H715 H 0.09582 0.42158 0.71153 0.0
H716 H 0.55528 0.84626 0.29602 0.0
H717 H 0.52646 0.84635 0.33134 0.0
H718 H 0.52154 0.89566 0.2553 0.0
H719 H 0.55016 0.89554 0.21915 0.0
H720 H 0.5085 0.86725 0.42173 0.0
H721 H 0.48609 0.87065 0.14775 0.0
H722 H 0.50692 0.86552 0.16919 0.0
H723 H 0.50033 0.88646 0.17036 0.0
C724 C 0.54805 0.85713 0.28737 0.0
C725 C 0.55487 0.87084 0.25437 0.0
C726 C 0.53162 0.85718 0.30751 0.0
C727 C 0.5218 0.8709 0.29468 0.0
C728 C 0.52881 0.88482 0.2643 0.0
H729 H 0.42071 0.89768 0.34402 0.0
H730 H 0.45012 0.89669 0.32463 0.0
C731 C 0.54518 0.88477 0.24404 0.0
C732 C 0.50414 0.87063 0.31148 0.0
H733 H 0.46642 0.87457 0.23741 0.0
C734 C 0.49927 0.86874 0.38149 0.0
C735 C 0.49214 0.87251 0.25875 0.0
C736 C 0.49659 0.87375 0.18221 0.0
C737 C 0.4827 0.8692 0.40045 0.0
C738 C 0.47074 0.87137 0.34779 0.0
C739 C 0.47562 0.87302 0.27773 0.0
C740 C 0.45305 0.87211 0.36387 0.0
C741 C 0.47816 0.86781 0.47677 0.0
C742 C 0.44492 0.8586 0.39239 0.0
C743 C 0.42806 0.8591 0.40364 0.0
C744 C 0.41899 0.87311 0.38616 0.0
C745 C 0.42725 0.88668 0.35822 0.0
C746 C 0.44409 0.88615 0.34701 0.0
H747 H 0.48877 0.87011 0.51167 0.0
H748 H 0.46828 0.87653 0.49033 0.0
H749 H 0.47363 0.85528 0.48727 0.0
H750 H 0.45156 0.84753 0.40452 0.0
H751 H 0.42213 0.84839 0.42496 0.0
H752 H 0.89674 0.92089 0.59476 0.0
H753 H 0.89564 0.95033 0.57663 0.0
H754 H 0.84636 0.95137 0.65526 0.0
H755 H 0.84733 0.92188 0.6744 0.0
H756 H 0.87339 0.96655 0.48917 0.0
H757 H 0.86879 0.98858 0.76407 0.0
H758 H 0.87541 0.96817 0.74223 0.0
H759 H 0.85413 0.97334 0.73896 0.0
C760 C 0.88569 0.92734 0.60894 0.0
C761 C 0.87211 0.91894 0.6361 0.0
C762 C 0.8851 0.94419 0.59847 0.0
C763 C 0.87099 0.95305 0.61529 0.0
C764 C 0.85748 0.9448 0.64314 0.0
H765 H 0.84578 0.05559 0.54927 0.0
H766 H 0.84557 0.02673 0.5842 0.0
C767 C 0.85804 0.92791 0.65365 0.0
C768 C 0.87019 0.97075 0.59966 0.0
H769 H 0.86625 0.00845 0.67463 0.0
C770 C 0.87186 0.97572 0.52973 0.0
C771 C 0.86805 0.98265 0.65264 0.0
C772 C 0.86662 0.978 0.72882 0.0
C773 C 0.87145 0.99227 0.51121 0.0
C774 C 0.86964 0.0042 0.56428 0.0
C775 C 0.86769 -0.00074 0.63415 0.0
C776 C 0.8701 0.02188 0.54797 0.0
C777 C 0.87273 0.99681 0.43479 0.0
C778 C 0.88412 0.02878 0.518 0.0
C779 C 0.88424 0.04516 0.49795 0.0
C780 C 0.8704 0.05497 0.5081 0.0
C781 C 0.8566 0.04826 0.54076 0.0
C782 C 0.85646 0.03181 0.56069 0.0
H783 H 0.86956 0.98638 0.40004 0.0
H784 H 0.86461 0.00723 0.42205 0.0
H785 H 0.88548 0.00046 0.42305 0.0
H786 H 0.89489 0.02141 0.50909 0.0
H787 H 0.89509 0.05006 0.47332 0.0
H788 H 0.05139 0.10012 0.58193 0.0
H789 H 0.02264 0.10043 0.5475 0.0
H790 H 0.02797 0.14974 0.47212 0.0
H791 H 0.05688 0.14943 0.50587 0.0
H792 H -0.00052 0.12243 0.6009 0.0
H793 H 0.00377 0.12662 0.31077 0.0
H794 H 0.02074 0.12035 0.36479 0.0
H795 H 0.01533 0.14154 0.3589 0.0
C796 C 0.04649 0.11094 0.55707 0.0
C797 C 0.05632 0.12475 0.54646 0.0
C798 C 0.03007 0.11111 0.53755 0.0
C799 C 0.02321 0.12505 0.50676 0.0
C800 C 0.0331 0.13876 0.49468 0.0
H801 H 0.92263 0.14735 0.38967 0.0
H802 H 0.95206 0.14862 0.41063 0.0
C803 C 0.04957 0.13859 0.51421 0.0
C804 C 0.00547 0.12552 0.49192 0.0
H805 H 0.97737 0.1286 0.36036 0.0
C806 C 0.99464 0.12375 0.54829 0.0
C807 C -0.00078 0.1274 0.42333 0.0
C808 C 0.01033 0.12896 0.36075 0.0
C809 C 0.9777 0.12379 0.53802 0.0
C810 C 0.97143 0.12531 0.46928 0.0
C811 C 0.98224 0.12738 0.41295 0.0
C812 C 0.95368 0.12439 0.45488 0.0
C813 C 0.96667 0.1224 0.60103 0.0
C814 C 0.94491 0.11022 0.47164 0.0
C815 C 0.9281 0.10946 0.46001 0.0
C816 C 0.91973 0.12281 0.43078 0.0
C817 C 0.92864 0.13686 0.41249 0.0
C818 C 0.94548 0.13761 0.42433 0.0
H819 H 0.97307 0.12594 0.6501 0.0
H820 H 0.95567 0.13019 0.59502 0.0
H821 H 0.96262 0.10954 0.60663 0.0
H822 H 0.95107 0.09974 0.49386 0.0
H823 H 0.9217 0.09838 0.47416 0.0
H824 H 0.14786 0.9375 0.5647 0.0
H825 H 0.148 0.9659 0.60618 0.0
H826 H 0.10077 0.97354 0.51191 0.0
H827 H 0.10048 0.94524 0.47136 0.0
H828 H 0.14657 0.99359 0.52352 0.0
H829 H 0.09431 0.99243 0.7071 0.0
H830 H 0.104 0.97405 0.67545 0.0
H831 H 0.08925 0.98454 0.62207 0.0
C832 C 0.13743 0.94521 0.55378 0.0
C833 C 0.12413 0.9392 0.51509 0.0
C834 C 0.13753 0.96141 0.57735 0.0
C835 C 0.12429 0.97176 0.56305 0.0
C836 C 0.11094 0.96568 0.52499 0.0
H837 H 0.09994 0.07334 0.57885 0.0
H838 H 0.10133 0.04375 0.56448 0.0
C839 C 0.11084 0.94953 0.50148 0.0
C840 C 0.12479 0.98923 0.58361 0.0
H841 H 0.10332 0.01883 0.66956 0.0
C842 C 0.13726 -0.00091 0.5563 0.0
C843 C 0.1126 0.99636 0.62628 0.0
C844 C 0.09937 0.98627 0.66001 0.0
C845 C 0.13749 0.01601 0.56811 0.0
C846 C 0.12504 0.02319 0.60915 0.0
C847 C 0.1128 0.01328 0.6379 0.0
C848 C 0.12414 0.04107 0.62033 0.0
C849 C 0.15067 0.02616 0.53433 0.0
C850 C 0.13639 0.04934 0.65749 0.0
C851 C 0.13565 0.06629 0.66588 0.0
C852 C 0.12261 0.07528 0.63733 0.0
C853 C 0.1102 0.06686 0.6013 0.0
C854 C 0.11094 0.04993 0.59311 0.0
H855 H 0.15732 0.01928 0.49308 0.0
H856 H 0.14543 0.03737 0.51066 0.0
H857 H 0.15962 0.02996 0.57484 0.0
H858 H 0.14655 0.04268 0.67984 0.0
H859 H 0.14539 0.07234 0.69418 0.0
H860 H 0.07087 0.85088 0.36519 0.0
H861 H 0.04136 0.84968 0.38352 0.0
H862 H 0.04332 0.8949 0.4991 0.0
H863 H 0.07278 0.89614 0.48191 0.0
H864 H 0.02645 0.87054 0.56806 0.0
H865 H 0.00474 0.87662 0.2937 0.0
H866 H 0.01949 0.86071 0.30711 0.0
H867 H 0.02531 0.88165 0.31991 0.0
C868 C 0.06502 0.86066 0.39393 0.0
C869 C 0.07424 0.8736 0.4221 0.0
C870 C 0.04812 0.86 0.404 0.0
C871 C 0.04012 0.8723 0.44194 0.0
C872 C 0.04925 0.88531 0.46941 0.0
H873 H 0.93646 0.89031 0.4986 0.0
H874 H 0.96524 0.89137 0.46337 0.0
C875 C 0.06612 0.88598 0.45948 0.0
C876 C 0.02239 0.87121 0.45664 0.0
H877 H 0.9848 0.86982 0.37928 0.0
C878 C 0.01734 0.87041 0.52679 0.0
C879 C 0.01053 0.8712 0.40271 0.0
C880 C 0.01523 0.87274 0.32661 0.0
C881 C 0.00077 0.86943 0.54453 0.0
C882 C 0.98893 0.86898 0.49059 0.0
C883 C 0.99393 0.87 0.42043 0.0
C884 C 0.97129 0.86773 0.50655 0.0
C885 C 0.99606 0.86916 0.62095 0.0
C886 C 0.9651 0.8539 0.54069 0.0
C887 C 0.94872 0.85328 0.56082 0.0
C888 C 0.93826 0.86645 0.54683 0.0
C889 C 0.9443 0.88001 0.51014 0.0
C890 C 0.9607 0.88063 0.48998 0.0
H891 H 0.00614 0.87347 0.6552 0.0
H892 H 0.98516 0.87689 0.63055 0.0
H893 H 0.99302 0.85646 0.63635 0.0
H894 H 0.97301 0.8437 0.55291 0.0
H895 H 0.94435 0.84264 0.58873 0.0
H896 H 0.39922 0.17998 0.19103 0.0
H897 H 0.39875 0.20978 0.1932 0.0
H898 H 0.35103 0.20954 0.09805 0.0
H899 H 0.35142 0.17973 0.09468 0.0
H900 H 0.37226 0.23198 0.0377 0.0
H901 H 0.37175 0.23793 0.32741 0.0
H902 H 0.38822 0.22576 0.29396 0.0
H903 H 0.36754 0.21889 0.28321 0.0
C904 C 0.38861 0.18622 0.17046 0.0
C905 C 0.37532 0.1774 0.14298 0.0
C906 C 0.38833 0.20327 0.17217 0.0
C907 C 0.37473 0.21185 0.14695 0.0
C908 C 0.3616 0.20314 0.11818 0.0
H909 H 0.35184 0.3143 0.21538 0.0
H910 H 0.35176 0.28446 0.21231 0.0
C911 C 0.36186 0.18608 0.11633 0.0
C912 C 0.37427 0.22993 0.14982 0.0
H913 H 0.37564 0.26235 0.26239 0.0
C914 C 0.37296 0.23863 0.0868 0.0
C915 C 0.37495 0.23855 0.21406 0.0
C916 C 0.37554 0.22983 0.2836 0.0
C917 C 0.37263 0.25576 0.08619 0.0
C918 C 0.37387 0.26438 0.15023 0.0
C919 C 0.37486 0.25569 0.21335 0.0
C920 C 0.37411 0.28245 0.15276 0.0
C921 C 0.37073 0.26449 1.01711 0.0
C922 C 0.38685 0.29119 0.1213 0.0
C923 C 0.38697 0.30824 0.123 0.0
C924 C 0.37434 0.3169 0.15642 0.0
C925 C 0.36172 0.30807 0.18893 0.0
C926 C 0.36165 0.291 0.18733 0.0
H927 H 0.36592 0.25627 0.97562 0.0
H928 H 0.36241 0.27512 1.02234 0.0
H929 H 0.38281 0.26907 0.99985 0.0
H930 H 0.39674 0.2848 0.09545 0.0
H931 H 0.39692 0.3146 0.09761 0.0
H932 H 0.31368 0.59614 0.93725 0.0
H933 H 0.28388 0.59628 0.93688 0.0
H934 H 0.28399 0.6467 0.87249 0.0
H935 H 0.31378 0.64667 0.87162 0.0
H936 H 0.26248 0.61553 1.01349 0.0
H937 H 0.25405 0.62524 0.72795 0.0
H938 H 0.27338 0.61933 0.76555 0.0
H939 H 0.26674 0.64022 0.7699 0.0
C940 C 0.30742 0.60728 0.92277 0.0
C941 C 0.3162 0.62138 0.90407 0.0
C942 C 0.29036 0.60732 0.92267 0.0
C943 C 0.28172 0.62142 0.90366 0.0
C944 C 0.29041 0.63558 0.88589 0.0
H945 H 0.17905 0.64169 0.97982 0.0
H946 H 0.20888 0.64167 0.97967 0.0
C947 C 0.30747 0.63555 0.88579 0.0
C948 C 0.26362 0.62136 0.90365 0.0
H949 H 0.23029 0.62677 0.79869 0.0
C950 C 0.25543 0.61796 0.96653 0.0
C951 C 0.25446 0.62436 0.84211 0.0
C952 C 0.26257 0.62735 0.77236 0.0
C953 C 0.23832 0.61769 0.96975 0.0
C954 C 0.22918 0.62111 0.90865 0.0
C955 C 0.23735 0.6243 0.84557 0.0
C956 C 0.2111 0.62115 0.90882 0.0
C957 C 0.23015 0.61348 0.03819 0.0
C958 C 0.20246 0.60982 0.86801 0.0
C959 C 0.18541 0.60979 0.86784 0.0
C960 C 0.17664 0.62122 0.90808 0.0
C961 C 0.18537 0.63268 0.94838 0.0
C962 C 0.20243 0.63265 0.94867 0.0
H963 H 0.23873 0.60755 0.07537 0.0
H964 H 0.22553 0.62482 0.06301 0.0
H965 H 0.21961 0.60521 0.02941 0.0
H966 H 0.20894 0.6009 0.83664 0.0
H967 H 0.17912 0.60083 0.83596 0.0
H968 H 0.64599 0.81455 0.13447 0.0
H969 H 0.64574 0.78468 0.13512 0.0
H970 H 0.59374 0.78497 0.16786 0.0
H971 H 0.59378 0.81484 0.16775 0.0
H972 H 0.63129 0.76357 0.25241 0.0
H973 H 0.60362 0.75506 0.98831 0.0
H974 H 0.61441 0.77346 1.01265 0.0
H975 H 0.5943 0.76977 0.04598 0.0
C976 C 0.63447 0.8083 0.14164 0.0
C977 C 0.61989 0.81713 0.15094 0.0
C978 C 0.63438 0.79123 0.14213 0.0
C979 C 0.61971 0.78269 0.15103 0.0
C980 C 0.60515 0.7914 0.16038 0.0
H981 H 0.59376 0.68002 0.13969 0.0
H982 H 0.59384 0.70984 0.14153 0.0
C983 C 0.60523 0.80846 0.16052 0.0
C984 C 0.61967 0.76463 0.15147 0.0
H985 H 0.60828 0.73138 0.05536 0.0
C986 C 0.62631 0.75648 0.20938 0.0
C987 C 0.61304 0.75552 0.0954 0.0
C988 C 0.606 0.76381 0.03168 0.0
C989 C 0.6263 0.73936 0.2132 0.0
C990 C 0.61988 0.73018 0.15656 0.0
C991 C 0.61321 0.7384 0.09867 0.0
C992 C 0.61994 0.71205 0.15623 0.0
C993 C 0.63276 0.73133 0.27868 0.0
C994 C 0.6346 0.70334 0.163 0.0
C995 C 0.63459 0.68627 0.16264 0.0
C996 C 0.61992 0.67755 0.15429 0.0
C997 C 0.60529 0.68632 0.14621 0.0
C998 C 0.6053 0.70338 0.14725 0.0
H999 H 0.63255 0.73982 0.32413 0.0
H1000 H 0.62557 0.72029 0.2922 0.0
H1001 H 0.64561 0.7276 0.26995 0.0
H1002 H 0.6461 0.70973 0.16799 0.0
H1003 H 0.64611 0.67994 0.16816 0.0
H1004 H 0.81422 0.34863 0.94186 0.0
H1005 H 0.78441 0.34861 0.94032 0.0
H1006 H 0.78439 0.40008 0.89323 0.0
H1007 H 0.81418 0.40015 0.89274 0.0
H1008 H 0.76239 0.3648 1.01879 0.0
H1009 H 0.75519 0.38277 0.74056 0.0
H1010 H 0.77456 0.37662 0.77688 0.0
H1011 H 0.76711 0.39706 0.79016 0.0
C1012 C 0.80789 0.35996 0.93111 0.0
C1013 C 0.81662 0.37437 0.91684 0.0
C1014 C 0.79083 0.35992 0.93022 0.0
C1015 C 0.78215 0.37426 0.91523 0.0
C1016 C 0.79082 0.38876 0.90293 0.0
H1017 H 0.6795 0.39974 0.92643 0.0
H1018 H 0.70936 0.39969 0.92876 0.0
C1019 C 0.80787 0.38879 0.90313 0.0
C1020 C 0.76404 0.37408 0.91347 0.0
H1021 H 0.7311 0.38295 0.81031 0.0
C1022 C 0.75556 0.36868 0.97305 0.0
C1023 C 0.75512 0.37907 0.85358 0.0
C1024 C 0.76345 0.38405 0.78643 0.0
C1025 C 0.73844 0.36841 0.97473 0.0
C1026 C 0.7296 0.37368 0.91544 0.0
C1027 C 0.73799 0.37902 0.85581 0.0
C1028 C 0.71158 0.37362 0.91429 0.0
C1029 C 0.72982 0.36267 0.03997 0.0
C1030 C 0.70303 0.35896 0.90487 0.0
C1031 C 0.68598 0.35893 0.903 0.0
C1032 C 0.67718 0.37357 0.91095 0.0
C1033 C 0.68585 0.38824 0.92045 0.0
C1034 C 0.70291 0.38826 0.92168 0.0
H1035 H 0.7384 0.36061 0.08417 0.0
H1036 H 0.72052 0.37176 0.05628 0.0
H1037 H 0.72336 0.35105 1.02865 0.0
H1038 H 0.70957 0.34756 0.89874 0.0
H1039 H 0.67972 0.3474 0.89578 0.0
H1040 H 0.85781 0.67871 0.55465 0.0
H1041 H 0.85812 0.70854 0.55149 0.0
H1042 H 0.89084 0.70932 0.72866 0.0
H1043 H 0.89111 0.67951 0.73027 0.0
H1044 H 0.84826 0.7302 0.64279 0.0
H1045 H 0.91435 0.73956 0.60054 0.0
H1046 H 0.90492 0.71975 0.59317 0.0
H1047 H 0.91047 0.72779 0.67783 0.0
C1048 C 0.86518 0.68524 0.59259 0.0
C1049 C 0.87454 0.67675 0.64236 0.0
C1050 C 0.86534 0.70229 0.59075 0.0
C1051 C 0.87475 0.71122 0.63899 0.0
C1052 C 0.8839 0.70275 0.68947 0.0
H1053 H 0.85805 0.81353 0.74067 0.0
H1054 H 0.85836 0.7837 0.73769 0.0
C1055 C 0.88396 0.68569 0.6906 0.0
C1056 C 0.87451 0.72936 0.63795 0.0
H1057 H 0.89905 0.76302 0.63514 0.0
C1058 C 0.85937 0.73737 0.64058 0.0
C1059 C 0.88898 0.73876 0.63392 0.0
C1060 C 0.90557 0.73102 0.62543 0.0
C1061 C 0.8583 0.75448 0.64038 0.0
C1062 C 0.87281 0.76387 0.64007 0.0
C1063 C 0.88793 0.75585 0.63632 0.0
C1064 C 0.87263 0.78201 0.64247 0.0
C1065 C 0.84161 0.76225 0.63881 0.0
C1066 C 0.88105 0.79104 0.59155 0.0
C1067 C 0.88122 0.80808 0.59412 0.0
C1068 C 0.87284 0.81646 0.64736 0.0
C1069 C 0.86445 0.80743 0.69847 0.0
C1070 C 0.86452 0.79036 0.69653 0.0
H1071 H 0.83232 0.7538 0.61669 0.0
H1072 H 0.83784 0.76529 0.69309 0.0
H1073 H 0.84161 0.77363 0.60731 0.0
H1074 H 0.88746 0.78489 0.54947 0.0
H1075 H 0.88777 0.81469 0.55385 0.0
H1076 H 0.81468 0.14293 0.35059 0.0
H1077 H 0.78487 0.14299 0.35382 0.0
H1078 H 0.78521 0.09543 0.45017 0.0
H1079 H 0.81499 0.09529 0.44811 0.0
H1080 H 0.76273 0.12127 0.29362 0.0
H1081 H 0.75669 0.12241 0.58322 0.0
H1082 H 0.77567 0.12679 0.53917 0.0
H1083 H 0.76909 0.10603 0.55043 0.0
C1084 C 0.80845 0.13246 0.37253 0.0
C1085 C 0.81729 0.11914 0.39948 0.0
C1086 C 0.7914 0.13253 0.37428 0.0
C1087 C 0.78285 0.11934 0.40327 0.0
C1088 C 0.79158 0.10589 0.42893 0.0
H1089 H 0.6801 0.09656 0.35242 0.0
H1090 H 0.7099 0.09664 0.35109 0.0
C1091 C 0.80863 0.1058 0.4273 0.0
C1092 C 0.76478 0.11957 0.40583 0.0
H1093 H 0.73235 0.11816 0.51795 0.0
C1094 C 0.75608 0.12062 0.34263 0.0
C1095 C 0.75614 0.11895 0.46995 0.0
C1096 C 0.76484 0.11864 0.53964 0.0
C1097 C 0.73895 0.12078 0.34173 0.0
C1098 C 0.73033 0.11963 0.40569 0.0
C1099 C 0.73902 0.11887 0.46897 0.0
C1100 C 0.71226 0.11937 0.40801 0.0
C1101 C 0.73023 0.12243 0.27244 0.0
C1102 C 0.70372 0.1319 0.44216 0.0
C1103 C 0.68667 0.13188 0.44332 0.0
C1104 C 0.67783 0.11924 0.41073 0.0
C1105 C 0.68647 0.10652 0.37783 0.0
C1106 C 0.70352 0.10659 0.37661 0.0
H1107 H 0.73843 0.12716 0.23086 0.0
H1108 H 0.72573 0.11026 0.25564 0.0
H1109 H 0.71956 0.1307 0.27716 0.0
H1110 H 0.71027 0.14183 0.46707 0.0
H1111 H 0.68045 0.14184 0.46937 0.0
H1112 H 0.10733 0.3153 0.74759 0.0
H1113 H 0.10813 0.28549 0.74955 0.0
H1114 H 0.13583 0.28545 0.55739 0.0
H1115 H 0.13571 0.31528 0.55697 0.0
H1116 H 0.09627 0.26374 0.66499 0.0
H1117 H 0.16322 0.25543 0.6706 0.0
H1118 H 0.15379 0.2751 0.68282 0.0
H1119 H 0.15685 0.26703 0.59593 0.0
C1120 C 0.11369 0.30894 0.70599 0.0
C1121 C 0.12157 0.31764 0.65241 0.0
C1122 C 0.11414 0.29188 0.70715 0.0
C1123 C 0.12232 0.28316 0.65437 0.0
C1124 C 0.1299 0.29185 0.59997 0.0
H1125 H 0.10383 0.18025 0.56789 0.0
H1126 H 0.10404 0.21008 0.56818 0.0
C1127 C 0.12973 0.30893 0.59951 0.0
C1128 C 0.12242 0.265 0.65525 0.0
H1129 H 0.14738 0.2317 0.64537 0.0
C1130 C 0.10747 0.25674 0.66119 0.0
C1131 C 0.13704 0.25582 0.65145 0.0
C1132 C 0.15363 0.26381 0.65062 0.0
C1133 C 0.10669 0.23962 0.66266 0.0
C1134 C 0.12122 0.23044 0.65522 0.0
C1135 C 0.1362 0.2387 0.65014 0.0
C1136 C 0.12125 0.21228 0.65388 0.0
C1137 C 0.09031 0.23163 0.67407 0.0
C1138 C 0.13136 0.20351 0.69986 0.0
C1139 C 0.13157 0.18645 0.69855 0.0
C1140 C 0.12154 0.17779 0.65169 0.0
C1141 C 0.11151 0.18657 0.60533 0.0
C1142 C 0.11154 0.20364 0.60579 0.0
H1143 H 0.08168 0.24001 0.701 0.0
H1144 H 0.0849 0.22841 0.62256 0.0
H1145 H 0.09146 0.22034 0.70572 0.0
H1146 H 0.13902 0.20988 0.73725 0.0
H1147 H 0.13941 0.18005 0.73503 0.0
H1148 H 0.3142 0.85094 0.46593 0.0
H1149 H 0.28438 0.85066 0.4653 0.0
H1150 H 0.28393 0.89541 0.34674 0.0
H1151 H 0.31373 0.89573 0.34621 0.0
H1152 H 0.26268 0.87383 0.51768 0.0
H1153 H 0.25438 0.86531 0.23132 0.0
H1154 H 0.2737 0.86205 0.27455 0.0
H1155 H 0.26701 0.88241 0.25445 0.0
C1156 C 0.3078 0.86071 0.43947 0.0
C1157 C 0.31641 0.87331 0.40577 0.0
C1158 C 0.29074 0.86053 0.43926 0.0
C1159 C 0.28195 0.87287 0.4051 0.0
C1160 C 0.29048 0.88557 0.37217 0.0
H1161 H 0.1796 0.89753 0.45648 0.0
H1162 H 0.20941 0.89705 0.45671 0.0
C1163 C 0.30753 0.88577 0.37227 0.0
C1164 C 0.26385 0.87262 0.40511 0.0
H1165 H 0.23057 0.87136 0.29743 0.0
C1166 C 0.25565 0.87324 0.46957 0.0
C1167 C 0.25472 0.87166 0.34229 0.0
C1168 C 0.26287 0.87016 0.27171 0.0
C1169 C 0.23853 0.87321 0.47286 0.0
C1170 C 0.22941 0.87277 0.40994 0.0
C1171 C 0.23761 0.87186 0.34555 0.0
C1172 C 0.21132 0.87307 0.40983 0.0
C1173 C 0.23035 0.8734 0.54365 0.0
C1174 C 0.20251 0.85989 0.382 0.0
C1175 C 0.18545 0.86012 0.3815 0.0
C1176 C 0.17686 0.87362 0.40839 0.0
C1177 C 0.18577 0.88689 0.43557 0.0
C1178 C 0.20283 0.88662 0.43615 0.0
H1179 H 0.23885 0.86967 0.58607 0.0
H1180 H 0.22607 0.88596 0.55528 0.0
H1181 H 0.2196 0.86516 0.54427 0.0
H1182 H 0.20884 0.84935 0.36109 0.0
H1183 H 0.17904 0.84971 0.35989 0.0
H1184 H 0.19381 0.10357 0.71773 0.0
H1185 H 0.2205 0.1034 0.77562 0.0
H1186 H 0.2075 0.14702 0.88945 0.0
H1187 H 0.18071 0.14714 0.83226 0.0
H1188 H 0.24446 0.12786 0.77196 0.0
H1189 H 0.22355 0.11612 0.0439 0.0
H1190 H 0.21063 0.11287 0.96849 0.0
H1191 H 0.21379 0.13314 1.00197 0.0
C1192 C 0.19662 0.11306 0.75545 0.0
C1193 C 0.18522 0.12534 0.7708 0.0
C1194 C 0.21186 0.11296 0.78835 0.0
C1195 C 0.21589 0.12507 0.83742 0.0
C1196 C 0.20451 0.13738 0.85271 0.0
H1197 H 0.30176 0.14799 0.08331 0.0
H1198 H 0.27508 0.14768 1.02535 0.0
C1199 C 0.18927 0.13749 0.81979 0.0
C1200 C 0.2322 0.1251 0.87093 0.0
H1201 H 0.25147 0.12296 0.02926 0.0
C1202 C 0.24603 0.12671 0.82817 0.0
C1203 C 0.23416 0.12362 0.94426 0.0
C1204 C 0.21977 0.12119 0.99242 0.0
C1205 C 0.26179 0.12719 0.85695 0.0
C1206 C 0.26374 0.12575 0.9303 0.0
C1207 C 0.24992 0.1241 0.97304 0.0
C1208 C 0.28004 0.12602 0.96394 0.0
C1209 C 0.27617 0.12963 0.80878 0.0
C1210 C 0.29161 0.11388 0.9489 0.0
C1211 C 0.30686 0.11405 0.98184 0.0
C1212 C 0.3107 0.12631 0.03062 0.0
C1213 C 0.2991 0.13842 0.04576 0.0
C1214 C 0.28387 0.13824 1.01283 0.0
H1215 H 0.27238 0.13459 0.75713 0.0
H1216 H 0.28525 0.13805 0.83251 0.0
H1217 H 0.28222 0.1177 0.79962 0.0
H1218 H 0.28878 0.10416 0.91232 0.0
H1219 H 0.31557 0.10453 0.96954 0.0
H1220 H 0.1039 0.68015 0.08692 0.0
H1221 H 0.10341 0.70711 0.14304 0.0
H1222 H 0.14677 0.72075 0.02943 0.0
H1223 H 0.14721 0.69392 0.97273 0.0
H1224 H 0.12756 0.72223 0.22625 0.0
H1225 H 0.11484 0.75799 0.98543 0.0
H1226 H 0.11213 0.73614 0.98966 0.0
H1227 H 0.13218 0.74467 0.97909 0.0
C1228 C 0.11329 0.68893 0.07391 0.0
C1229 C 0.12553 0.68503 1.02525 0.0
C1230 C 0.11301 0.70429 0.10597 0.0
C1231 C 0.1249 0.71601 0.08949 0.0
C1232 C 0.13729 0.71201 0.04177 0.0
H1233 H 0.14568 0.81498 0.22607 0.0
H1234 H 0.14577 0.788 0.17006 0.0
C1235 C 0.13759 0.69666 1.00977 0.0
C1236 C 0.1245 0.73234 0.12305 0.0
H1237 H 0.12145 0.77308 0.08781 0.0
C1238 C 0.12614 0.73336 0.19611 0.0
C1239 C 0.12268 0.74681 0.08347 0.0
C1240 C 0.12021 0.74641 1.00513 0.0
C1241 C 0.12631 0.7485 0.23061 0.0
C1242 C 0.12452 0.76298 0.19102 0.0
C1243 C 0.12285 0.76196 0.11797 0.0
C1244 C 0.12431 0.77933 0.22446 0.0
C1245 C 0.1288 0.7489 0.30894 0.0
C1246 C 0.11206 0.78346 0.27264 0.0
C1247 C 0.11199 0.79882 0.30461 0.0
C1248 C 0.12413 0.81033 0.28862 0.0
C1249 C 0.13622 0.8063 0.23946 0.0
C1250 C 0.13628 0.79092 0.20747 0.0
H1251 H 0.1341 0.7373 0.32868 0.0
H1252 H 0.13695 0.75912 0.32434 0.0
H1253 H 0.11685 0.75074 0.33503 0.0
H1254 H 0.10252 0.77482 0.28538 0.0
H1255 H 0.10248 0.80167 0.34205 0.0
H1256 H 0.67906 0.84791 0.96826 0.0
H1257 H 0.70604 0.84763 0.91262 0.0
H1258 H 0.71985 0.89021 0.03188 0.0
H1259 H 0.69301 0.89043 0.08818 0.0
H1260 H 0.72132 0.87202 0.83267 0.0
H1261 H 0.75691 0.85801 0.07285 0.0
H1262 H 0.73505 0.8555 0.06815 0.0
H1263 H 0.74374 0.87545 0.0805 0.0
C1264 C 0.68788 0.85718 0.98261 0.0
C1265 C 0.68403 0.86913 0.03276 0.0
C1266 C 0.70326 0.85702 0.95083 0.0
C1267 C 0.71503 0.86874 0.96902 0.0
C1268 C 0.71107 0.88085 1.01821 0.0
H1269 H 0.81438 0.88865 0.83422 0.0
H1270 H 0.78744 0.88916 0.89021 0.0
C1271 C 0.69572 0.88102 0.04997 0.0
C1272 C 0.73137 0.86844 0.93574 0.0
H1273 H 0.77206 0.86485 0.97121 0.0
C1274 C 0.73242 0.87037 0.86285 0.0
C1275 C 0.74582 0.86634 0.97536 0.0
C1276 C 0.74539 0.86356 0.05347 0.0
C1277 C 0.74757 0.87053 0.82856 0.0
C1278 C 0.76201 0.8684 0.86815 0.0
C1279 C 0.76096 0.8665 0.94106 0.0
C1280 C 0.77833 0.86798 0.83476 0.0
C1281 C 0.748 0.8733 0.75044 0.0
C1282 C 0.7822 0.85573 0.78604 0.0
C1283 C 0.79754 0.85542 0.75412 0.0
C1284 C 0.80928 0.8673 0.77068 0.0
C1285 C 0.80551 0.87938 0.82037 0.0
C1286 C 0.79016 0.87968 0.85235 0.0
H1287 H 0.73649 0.87887 0.73105 0.0
H1288 H 0.75835 0.88133 0.73575 0.0
H1289 H 0.74962 0.86141 0.72343 0.0
H1290 H 0.77337 0.84639 0.77283 0.0
H1291 H 0.80017 0.84592 0.71626 0.0
H1292 H 0.85301 0.29768 0.94761 0.0
H1293 H 0.85336 0.27107 1.00547 0.0
H1294 H 0.88324 0.29099 0.17111 0.0
H1295 H 0.88342 0.31752 0.11172 0.0
H1296 H 0.89424 0.2619 0.13182 0.0
H1297 H 0.82759 0.25751 0.17343 0.0
H1298 H 0.8326 0.26021 0.08279 0.0
H1299 H 0.8373 0.2761 0.14494 0.0
C1300 C 0.8596 0.29637 0.99649 0.0
C1301 C 0.86812 0.30962 1.0255 0.0
C1302 C 0.8597 0.2812 0.02977 0.0
C1303 C 0.86802 0.2791 0.09349 0.0
C1304 C 0.87666 0.29234 0.12221 0.0
H1305 H 0.85276 0.19583 0.36701 0.0
H1306 H 0.85349 0.22283 0.31263 0.0
C1307 C 0.87674 0.30747 0.08838 0.0
C1308 C 0.86799 0.26301 0.12927 0.0
H1309 H 0.84287 0.23307 0.19092 0.0
C1310 C 0.88301 0.25564 0.14519 0.0
C1311 C 0.85334 0.25495 0.14775 0.0
C1312 C 0.83681 0.26268 0.13703 0.0
C1313 C 0.88378 0.24032 0.17797 0.0
C1314 C 0.86912 0.2319 0.19329 0.0
C1315 C 0.85411 0.23941 0.17836 0.0
C1316 C 0.86899 0.21549 0.22633 0.0
C1317 C 0.9003 0.23352 0.19722 0.0
C1318 C 0.87731 0.2023 0.1956 0.0
C1319 C 0.8771 0.1869 0.22726 0.0
C1320 C 0.86827 0.18439 0.2893 0.0
C1321 C 0.85966 0.19746 0.31915 0.0
C1322 C 0.86007 0.21289 0.2881 0.0
H1323 H 0.90959 0.24334 0.2019 0.0
H1324 H 0.89982 0.22674 0.2475 0.0
H1325 H 0.90439 0.22502 0.15551 0.0
H1326 H 0.88387 0.20386 0.14687 0.0
H1327 H 0.8837 0.17695 0.20288 0.0
H1328 H 0.2976 0.35291 0.18887 0.0
H1329 H 0.27059 0.35393 0.2431 0.0
H1330 H 0.28981 0.38415 0.40919 0.0
H1331 H 0.31672 0.3837 0.3533 0.0
H1332 H 0.26016 0.34342 0.36434 0.0
H1333 H 0.25064 0.41028 0.35472 0.0
H1334 H 0.26716 0.40036 0.30906 0.0
H1335 H 0.26889 0.4049 0.40114 0.0
C1336 C 0.29602 0.35984 0.23677 0.0
C1337 C 0.30916 0.36832 0.26674 0.0
C1338 C 0.28059 0.36041 0.26773 0.0
C1339 C 0.27805 0.36938 0.32955 0.0
C1340 C 0.29132 0.37757 0.36041 0.0
H1341 H 0.19594 0.35397 0.6088 0.0
H1342 H 0.22248 0.35416 0.55048 0.0
C1343 C 0.30671 0.37719 0.32883 0.0
C1344 C 0.26164 0.36968 0.36258 0.0
H1345 H 0.23198 0.3951 0.42501 0.0
C1346 C 0.25397 0.35474 0.37721 0.0
C1347 C 0.2534 0.38443 0.3783 0.0
C1348 C 0.26037 0.40089 0.35932 0.0
C1349 C 0.23844 0.35412 0.40799 0.0
C1350 C 0.23057 0.36886 0.42698 0.0
C1351 C 0.2381 0.3838 0.41128 0.0
C1352 C 0.21453 0.36903 0.46315 0.0
C1353 C 0.23053 0.33766 0.41833 0.0
C1354 C 0.20137 0.37786 0.43505 0.0
C1355 C 0.18626 0.37804 0.46917 0.0
C1356 C 0.18408 0.36932 0.53172 0.0
C1357 C 0.19727 0.36064 0.56018 0.0
C1358 C 0.21241 0.36065 0.52662 0.0
H1359 H 0.23554 0.32842 0.3815 0.0
H1360 H 0.23301 0.33335 0.47237 0.0
H1361 H 0.21711 0.33832 0.41077 0.0
H1362 H 0.20274 0.3845 0.38637 0.0
H1363 H 0.17627 0.38485 0.44628 0.0
H1364 H 0.34752 0.67992 0.71992 0.0
H1365 H 0.34772 0.70667 0.66228 0.0
H1366 H 0.39024 0.7204 0.78193 0.0
H1367 H 0.39019 0.69366 0.83909 0.0
H1368 H 0.34545 0.73759 0.72706 0.0
H1369 H 0.40344 0.73096 0.57947 0.0
H1370 H 0.39282 0.71376 0.617 0.0
H1371 H 0.40505 0.72682 0.6716 0.0
C1372 C 0.35695 0.68863 0.73352 0.0
C1373 C 0.36887 0.68476 0.7837 0.0
C1374 C 0.35705 0.70388 0.70069 0.0
C1375 C 0.36912 0.71542 0.71721 0.0
C1376 C 0.38101 0.71155 0.76745 0.0
H1377 H 0.38911 0.81493 0.58514 0.0
H1378 H 0.38917 0.78822 0.64315 0.0
C1379 C 0.38092 0.69633 0.80029 0.0
C1380 C 0.36896 0.7317 0.68365 0.0
H1381 H 0.39135 0.75727 0.58044 0.0
C1382 C 0.35544 0.74188 0.6947 0.0
C1383 C 0.38205 0.73726 0.64179 0.0
C1384 C 0.39661 0.7266 0.62611 0.0
C1385 C 0.35476 0.75761 0.66582 0.0
C1386 C 0.36783 0.76316 0.62379 0.0
C1387 C 0.38137 0.75299 0.61284 0.0
C1388 C 0.36759 0.77939 0.58975 0.0
C1389 C 0.34021 0.76828 0.68175 0.0
C1390 C 0.35553 0.78319 0.54016 0.0
C1391 C 0.35547 0.7984 0.50718 0.0
C1392 C 0.36754 0.81001 0.52289 0.0
C1393 C 0.37966 0.80619 0.57225 0.0
C1394 C 0.37971 0.79096 0.60528 0.0
H1395 H 0.33354 0.76402 0.72895 0.0
H1396 H 0.34398 0.78116 0.69006 0.0
H1397 H 0.33164 0.76791 0.63674 0.0
H1398 H 0.34627 0.77432 0.52638 0.0
H1399 H 0.34604 0.80102 0.46901 0.0
H1400 H 0.67899 0.64655 0.33538 0.0
H1401 H 0.70598 0.64669 0.39117 0.0
H1402 H 0.71935 0.60371 0.27372 0.0
H1403 H 0.69251 0.60364 0.21726 0.0
H1404 H 0.72105 0.62234 0.47215 0.0
H1405 H 0.75667 0.6355 0.23145 0.0
H1406 H 0.73484 0.63821 0.23603 0.0
H1407 H 0.74335 0.61817 0.22446 0.0
C1408 C 0.68772 0.63716 0.32147 0.0
C1409 C 0.68375 0.62515 0.27176 0.0
C1410 C 0.70309 0.63725 0.35334 0.0
C1411 C 0.71475 0.62538 0.33567 0.0
C1412 C 0.71067 0.61319 0.28697 0.0
H1413 H 0.81389 0.60472 0.47121 0.0
H1414 H 0.7869 0.60437 0.41543 0.0
C1415 C 0.69531 0.6131 0.2551 0.0
C1416 C 0.73109 0.62559 0.36895 0.0
H1417 H 0.7718 0.62872 0.33335 0.0
C1418 C 0.73215 0.62381 0.44192 0.0
C1419 C 0.74554 0.62747 0.32926 0.0
C1420 C 0.74511 0.6301 0.25104 0.0
C1421 C 0.74731 0.62359 0.47622 0.0
C1422 C 0.76175 0.62549 0.43653 0.0
C1423 C 0.7607 0.62725 0.36356 0.0
C1424 C 0.77808 0.62581 0.46988 0.0
C1425 C 0.74775 0.621 0.55446 0.0
C1426 C 0.78213 0.63814 0.51798 0.0
C1427 C 0.7975 0.63836 0.54978 0.0
C1428 C 0.80908 0.6263 0.53371 0.0
C1429 C 0.80514 0.61413 0.48466 0.0
C1430 C 0.78976 0.61392 0.4528 0.0
H1431 H 0.73618 0.61562 0.57412 0.0
H1432 H 0.75801 0.61287 0.56944 0.0
H1433 H 0.74954 0.63293 0.58095 0.0
H1434 H 0.77342 0.64762 0.53078 0.0
H1435 H 0.80027 0.64793 0.58713 0.0
H1436 H 0.60586 0.17955 0.58569 0.0
H1437 H 0.60541 0.20644 0.64237 0.0
H1438 H 0.64818 0.22054 0.52563 0.0
H1439 H 0.64857 0.19377 0.46835 0.0
H1440 H 0.62977 0.22162 0.72396 0.0
H1441 H 0.61579 0.25758 0.48495 0.0
H1442 H 0.61327 0.2357 0.48886 0.0
H1443 H 0.63321 0.24441 0.47707 0.0
C1444 C 0.61513 0.18841 0.57212 0.0
C1445 C 0.62719 0.18466 0.52242 0.0
C1446 C 0.61487 0.20374 0.60449 0.0
C1447 C 0.6266 0.21556 0.58731 0.0
C1448 C 0.63882 0.21171 0.53854 0.0
H1449 H 0.64667 0.31462 0.72531 0.0
H1450 H 0.647 0.28772 0.66859 0.0
C1451 C 0.63909 0.19639 0.50621 0.0
C1452 C 0.62622 0.23184 0.62125 0.0
H1453 H 0.62259 0.2726 0.58728 0.0
C1454 C 0.62812 0.23277 0.69421 0.0
C1455 C 0.62409 0.24635 0.58216 0.0
C1456 C 0.62133 0.24603 0.504 0.0
C1457 C 0.62826 0.24787 0.72908 0.0
C1458 C 0.62615 0.26238 0.68999 0.0
C1459 C 0.62423 0.26145 0.61704 0.0
C1460 C 0.62583 0.27866 0.72391 0.0
C1461 C 0.63102 0.24819 0.80725 0.0
C1462 C 0.61366 0.28255 0.77285 0.0
C1463 C 0.61346 0.29786 0.80522 0.0
C1464 C 0.62538 0.30956 0.78888 0.0
C1465 C 0.63738 0.30578 0.739 0.0
C1466 C 0.63757 0.29045 0.7066 0.0
H1467 H 0.63654 0.23663 0.82631 0.0
H1468 H 0.63909 0.2585 0.8224 0.0
H1469 H 0.61914 0.24982 0.83417 0.0
H1470 H 0.60428 0.27375 0.78585 0.0
H1471 H 0.60401 0.30051 0.8432 0.0
H1472 H 0.39119 0.12524 0.3419 0.0
H1473 H 0.39564 0.12497 0.46993 0.0
H1474 H 0.34365 0.12645 0.5029 0.0
H1475 H 0.33922 0.12653 0.37663 0.0
H1476 H 0.38684 0.14714 0.5742 0.0
H1477 H 0.35593 0.08835 0.6259 0.0
H1478 H 0.36149 0.09474 0.53871 0.0
H1479 H 0.34323 0.10247 0.57924 0.0
C1480 C 0.38075 0.12544 0.37659 0.0
C1481 C 0.36485 0.12582 0.34872 0.0
C1482 C 0.38328 0.12529 0.44991 0.0
C1483 C 0.36997 0.12535 0.49691 0.0
C1484 C 0.35416 0.12595 0.46862 0.0
H1485 H 0.35731 0.12765 0.95778 0.0
H1486 H 0.35284 0.12779 0.82983 0.0
C1487 C 0.35165 0.12611 0.39593 0.0
C1488 C 0.3724 0.12522 0.57527 0.0
H1489 H 0.36163 0.10495 0.72565 0.0
C1490 C 0.38143 0.13781 0.60709 0.0
C1491 C 0.36526 0.11318 0.61915 0.0
C1492 C 0.35607 0.09883 0.58905 0.0
C1493 C 0.38322 0.13888 0.68067 0.0
C1494 C 0.37606 0.12686 0.72452 0.0
C1495 C 0.36704 0.11426 0.69274 0.0
C1496 C 0.37849 0.12674 0.80286 0.0
C1497 C 0.39248 0.15317 0.71086 0.0
C1498 C 0.39429 0.12581 0.83111 0.0
C1499 C 0.3968 0.12565 0.90381 0.0
C1500 C 0.38362 0.12631 0.95106 0.0
C1501 C 0.36773 0.12707 0.92316 0.0
C1502 C 0.3652 0.12718 0.84986 0.0
H1503 H 0.39284 0.16361 0.6738 0.0
H1504 H 0.38696 0.15737 0.76084 0.0
H1505 H 0.40525 0.14941 0.72148 0.0
H1506 H 0.40477 0.12505 0.79679 0.0
H1507 H 0.40922 0.12496 0.92309 0.0
H1508 H 0.12471 0.65598 0.67967 0.0
H1509 H 0.12438 0.65129 0.5534 0.0
H1510 H 0.12614 0.59936 0.58821 0.0
H1511 H 0.12642 0.60406 0.71594 0.0
H1512 H 0.1469 0.63643 0.46765 0.0
H1513 H 0.08784 0.60353 0.45171 0.0
H1514 H 0.09406 0.61468 0.5289 0.0
H1515 H 0.10243 0.59483 0.51119 0.0
C1516 C 0.12496 0.64351 0.66073 0.0
C1517 C 0.12548 0.63039 0.70833 0.0
C1518 C 0.12481 0.64085 0.58812 0.0
C1519 C 0.12503 0.62497 0.56036 0.0
C1520 C 0.12564 0.61176 0.60776 0.0
H1521 H 0.12252 0.58644 0.13385 0.0
H1522 H 0.12288 0.591 0.26008 0.0
C1523 C 0.12586 0.61443 0.68096 0.0
C1524 C 0.12489 0.62253 0.48203 0.0
H1525 H 0.10294 0.60583 0.34685 0.0
C1526 C 0.13727 0.62974 0.44131 0.0
C1527 C 0.11234 0.61387 0.44692 0.0
C1528 C 0.09831 0.60638 0.48663 0.0
C1529 C 0.13763 0.62826 0.36748 0.0
C1530 C 0.12501 0.61966 0.3322 0.0
C1531 C 0.11263 0.61248 0.37305 0.0
C1532 C 0.12477 0.61729 0.25367 0.0
C1533 C 0.15186 0.63552 0.32835 0.0
C1534 C 0.12554 0.63051 0.20629 0.0
C1535 C 0.12547 0.62788 0.13307 0.0
C1536 C 0.12438 0.61198 0.10547 0.0
C1537 C 0.12335 0.59887 0.15293 0.0
C1538 C 0.12353 0.60147 0.2256 0.0
H1539 H 0.16254 0.63749 0.36327 0.0
H1540 H 0.15568 0.62754 0.28423 0.0
H1541 H 0.14824 0.64755 0.30673 0.0
H1542 H 0.12611 0.64291 0.22579 0.0
H1543 H 0.12633 0.63825 0.09828 0.0
H1544 H 0.60328 0.86829 0.34222 0.0
H1545 H 0.59885 0.86865 0.47028 0.0
H1546 H 0.65083 0.8673 0.50356 0.0
H1547 H 0.65525 0.86697 0.37724 0.0
H1548 H 0.60902 0.84589 0.57589 0.0
H1549 H 0.63724 0.90633 0.62387 0.0
H1550 H 0.63124 0.89959 0.53751 0.0
H1551 H 0.65001 0.89251 0.57568 0.0
C1552 C 0.61372 0.86808 0.37697 0.0
C1553 C 0.62962 0.86765 0.34919 0.0
C1554 C 0.6112 0.86829 0.45027 0.0
C1555 C 0.62452 0.8683 0.49728 0.0
C1556 C 0.64033 0.86767 0.46914 0.0
H1557 H 0.63728 0.87104 0.95818 0.0
H1558 H 0.64178 0.87017 0.83036 0.0
C1559 C 0.64283 0.86738 0.39647 0.0
C1560 C 0.62212 0.86862 0.57556 0.0
H1561 H 0.63177 0.89015 0.72437 0.0
C1562 C 0.61389 0.85565 0.60818 0.0
C1563 C 0.62863 0.8812 0.61854 0.0
C1564 C 0.63716 0.89578 0.58723 0.0
C1565 C 0.61225 0.85475 0.68184 0.0
C1566 C 0.61864 0.86741 0.72492 0.0
C1567 C 0.6269 0.88037 0.69218 0.0
C1568 C 0.6162 0.86777 0.80331 0.0
C1569 C 0.60405 0.83993 0.71277 0.0
C1570 C 0.60041 0.86701 0.83161 0.0
C1571 C 0.59789 0.86736 0.90425 0.0
C1572 C 0.61104 0.86867 0.95149 0.0
C1573 C 0.6269 0.86976 0.92361 0.0
C1574 C 0.62944 0.86935 0.85032 0.0
H1575 H 0.60486 0.82926 0.67696 0.0
H1576 H 0.60956 0.83655 0.76388 0.0
H1577 H 0.59093 0.84262 0.72112 0.0
H1578 H 0.58989 0.86633 0.79736 0.0
H1579 H 0.58548 0.8667 0.92347 0.0
H1580 H 0.87139 0.40798 0.13541 0.0
H1581 H 0.87147 0.40341 0.26165 0.0
H1582 H 0.86429 0.35189 0.22727 0.0
H1583 H 0.86422 0.3565 0.09969 0.0
H1584 H 0.84806 0.39149 0.34831 0.0
H1585 H 0.90266 0.35164 0.36267 0.0
H1586 H 0.89757 0.36316 0.28515 0.0
H1587 H 0.887 0.34447 0.3044 0.0
C1588 C 0.8699 0.39561 0.15443 0.0
C1589 C 0.86802 0.38257 0.10693 0.0
C1590 C 0.86993 0.39303 0.22705 0.0
C1591 C 0.86813 0.37728 0.25494 0.0
C1592 C 0.86609 0.36415 0.20765 0.0
H1593 H 0.86598 0.33881 0.68045 0.0
H1594 H 0.86578 0.34348 0.55436 0.0
C1595 C 0.86604 0.36677 0.13446 0.0
C1596 C 0.86812 0.37491 0.33328 0.0
H1597 H 0.88795 0.3556 0.46785 0.0
C1598 C 0.85682 0.38365 0.37435 0.0
C1599 C 0.87954 0.36475 0.36804 0.0
C1600 C 0.89249 0.35557 0.32806 0.0
C1601 C 0.85639 0.38227 0.44819 0.0
C1602 C 0.86785 0.37214 0.48303 0.0
C1603 C 0.87916 0.36343 0.44188 0.0
C1604 C 0.86786 0.36974 0.56143 0.0
C1605 C 0.84331 0.39134 0.48789 0.0
C1606 C 0.86921 0.38291 0.60904 0.0
C1607 C 0.86923 0.38024 0.68221 0.0
C1608 C 0.86805 0.36433 0.70937 0.0
C1609 C 0.86688 0.35125 0.66165 0.0
C1610 C 0.8668 0.3539 0.5891 0.0
H1611 H 0.833 0.39487 0.45326 0.0
H1612 H 0.83846 0.38385 0.53159 0.0
H1613 H 0.84858 0.40268 0.51027 0.0
H1614 H 0.87045 0.39526 0.58972 0.0
H1615 H 0.87032 0.39057 0.71733 0.0
H1616 H 0.40806 0.36958 0.379 0.0
H1617 H 0.40358 0.3694 0.50524 0.0
H1618 H 0.35167 0.36624 0.47108 0.0
H1619 H 0.35624 0.36587 0.34359 0.0
H1620 H 0.38843 0.39002 0.59037 0.0
H1621 H 0.35756 0.33004 0.61049 0.0
H1622 H 0.36756 0.33666 0.53132 0.0
H1623 H 0.34748 0.34401 0.55256 0.0
C1624 C 0.39564 0.36877 0.39809 0.0
C1625 C 0.3825 0.3678 0.35066 0.0
C1626 C 0.39309 0.36871 0.47074 0.0
C1627 C 0.37729 0.36761 0.4988 0.0
C1628 C 0.36405 0.36676 0.45151 0.0
H1629 H 0.33861 0.36791 0.92394 0.0
H1630 H 0.34333 0.36786 0.79782 0.0
C1631 C 0.36663 0.36674 0.3783 0.0
C1632 C 0.37496 0.36766 0.57724 0.0
H1633 H 0.35861 0.34604 0.71394 0.0
C1634 C 0.38194 0.38034 0.61723 0.0
C1635 C 0.36658 0.35505 0.61325 0.0
C1636 C 0.35949 0.34058 0.5749 0.0
C1637 C 0.38053 0.38095 0.69102 0.0
C1638 C 0.3721 0.36838 0.72695 0.0
C1639 C 0.36512 0.35569 0.68702 0.0
C1640 C 0.36964 0.36852 0.80524 0.0
C1641 C 0.3877 0.39534 0.72964 0.0
C1642 C 0.38284 0.36882 0.85292 0.0
C1643 C 0.38014 0.36888 0.92606 0.0
C1644 C 0.36417 0.36857 0.95307 0.0
C1645 C 0.35108 0.36818 0.90525 0.0
C1646 C 0.35376 0.36811 0.83271 0.0
H1647 H 0.39009 0.40578 0.69402 0.0
H1648 H 0.37945 0.39949 0.77219 0.0
H1649 H 0.39948 0.39167 0.7536 0.0
H1650 H 0.39526 0.36882 0.83367 0.0
H1651 H 0.39049 0.36912 0.96128 0.0
H1652 H 0.36702 0.6561 0.12982 0.0
H1653 H 0.36739 0.65153 0.25598 0.0
H1654 H 0.36649 0.59953 0.22114 0.0
H1655 H 0.36661 0.60414 0.09353 0.0
H1656 H 0.34644 0.63828 0.343 0.0
H1657 H 0.40351 0.60222 0.35764 0.0
H1658 H 0.39732 0.61269 0.27893 0.0
H1659 H 0.38842 0.5933 0.30126 0.0
C1660 C 0.36697 0.64364 0.14876 0.0
C1661 C 0.36684 0.63048 0.10119 0.0
C1662 C 0.36714 0.64104 0.22137 0.0
C1663 C 0.36721 0.62518 0.24924 0.0
C1664 C 0.36685 0.61192 0.20174 0.0
H1665 H 0.36485 0.5867 0.67473 0.0
H1666 H 0.36459 0.59139 0.54855 0.0
C1667 C 0.36677 0.61454 0.12854 0.0
C1668 C 0.36739 0.62281 0.32771 0.0
H1669 H 0.38815 0.60449 0.46246 0.0
C1670 C 0.35564 0.63093 0.36891 0.0
C1671 C 0.37938 0.61332 0.36259 0.0
C1672 C 0.39297 0.60501 0.32301 0.0
C1673 C 0.35535 0.62959 0.44276 0.0
C1674 C 0.36726 0.62001 0.47747 0.0
C1675 C 0.37901 0.61188 0.43641 0.0
C1676 C 0.36732 0.61758 0.55575 0.0
C1677 C 0.342 0.63813 0.48291 0.0
C1678 C 0.36905 0.63071 0.60323 0.0
C1679 C 0.36923 0.62802 0.67638 0.0
C1680 C 0.36766 0.61215 0.70363 0.0
C1681 C 0.36601 0.59911 0.65592 0.0
C1682 C 0.3659 0.60177 0.58335 0.0
H1683 H 0.33174 0.6418 0.44828 0.0
H1684 H 0.33716 0.63018 0.52513 0.0
H1685 H 0.34703 0.64932 0.5076 0.0
H1686 H 0.3705 0.64303 0.58377 0.0
H1687 H 0.37079 0.6383 0.71135 0.0
H1688 H 0.60305 0.62641 0.96154 0.0
H1689 H 0.59862 0.62613 0.83345 0.0
H1690 H 0.65061 0.62713 0.80063 0.0
H1691 H 0.65503 0.62741 0.92699 0.0
H1692 H 0.60902 0.64889 0.72806 0.0
H1693 H 0.63669 0.58821 0.67999 0.0
H1694 H 0.6307 0.59496 0.76631 0.0
H1695 H 0.64955 0.6019 0.72851 0.0
C1696 C 0.61349 0.62658 0.92689 0.0
C1697 C 0.62939 0.6269 0.95482 0.0
C1698 C 0.61098 0.6264 0.85357 0.0
C1699 C 0.62429 0.62631 0.80668 0.0
C1700 C 0.64011 0.62682 0.83496 0.0
H1701 H 0.63703 0.62352 0.34585 0.0
H1702 H 0.64155 0.62434 0.47372 0.0
C1703 C 0.6426 0.62709 0.90766 0.0
C1704 C 0.6219 0.62604 0.72838 0.0
H1705 H 0.63135 0.60446 0.57955 0.0
C1706 C 0.61379 0.6391 0.69575 0.0
C1707 C 0.62829 0.61341 0.6854 0.0
C1708 C 0.63668 0.59874 0.71672 0.0
C1709 C 0.61217 0.64003 0.62208 0.0
C1710 C 0.61844 0.62732 0.579 0.0
C1711 C 0.62657 0.61427 0.61174 0.0
C1712 C 0.616 0.62701 0.50058 0.0
C1713 C 0.60412 0.65494 0.59117 0.0
C1714 C 0.60021 0.62794 0.47217 0.0
C1715 C 0.59769 0.62763 0.39951 0.0
C1716 C 0.61083 0.62618 0.35236 0.0
C1717 C 0.62667 0.62491 0.38036 0.0
C1718 C 0.62922 0.62529 0.45366 0.0
H1719 H 0.60505 0.66559 0.62702 0.0
H1720 H 0.60966 0.65828 0.5401 0.0
H1721 H 0.59097 0.65239 0.58275 0.0
H1722 H 0.5897 0.62873 0.50634 0.0
H1723 H 0.58528 0.62841 0.38021 0.0
H1724 H 0.62659 0.40804 0.68019 0.0
H1725 H 0.6266 0.40347 0.55402 0.0
H1726 H 0.62493 0.35148 0.58831 0.0
H1727 H 0.62432 0.35615 0.7158 0.0
H1728 H 0.64734 0.38927 0.4688 0.0
H1729 H 0.58881 0.35576 0.44851 0.0
H1730 H 0.59508 0.36593 0.52796 0.0
H1731 H 0.60322 0.34617 0.50597 0.0
C1732 C 0.62616 0.39559 0.66114 0.0
C1733 C 0.62547 0.38246 0.70859 0.0
C1734 C 0.6262 0.39298 0.58851 0.0
C1735 C 0.62555 0.37713 0.56045 0.0
C1736 C 0.62506 0.36389 0.60781 0.0
H1737 H 0.62803 0.33858 0.13455 0.0
H1738 H 0.62792 0.34323 0.26082 0.0
C1739 C 0.62491 0.36653 0.68102 0.0
C1740 C 0.62565 0.37476 0.48196 0.0
H1741 H 0.60475 0.35737 0.34511 0.0
C1742 C 0.63795 0.38233 0.44196 0.0
C1743 C 0.61342 0.36579 0.44588 0.0
C1744 C 0.59929 0.35808 0.4841 0.0
C1745 C 0.63854 0.38097 0.36814 0.0
C1746 C 0.62637 0.37194 0.33222 0.0
C1747 C 0.61408 0.36435 0.37209 0.0
C1748 C 0.62657 0.36953 0.25391 0.0
C1749 C 0.65247 0.38889 0.32937 0.0
C1750 C 0.62576 0.38274 0.20655 0.0
C1751 C 0.62581 0.38008 0.13336 0.0
C1752 C 0.62667 0.36415 0.10598 0.0
C1753 C 0.62742 0.35103 0.15352 0.0
C1754 C 0.62731 0.35367 0.22613 0.0
H1755 H 0.66274 0.39201 0.36495 0.0
H1756 H 0.6571 0.38077 0.28723 0.0
H1757 H 0.6481 0.40035 0.30476 0.0
H1758 H 0.62487 0.39512 0.22613 0.0
H1759 H 0.62507 0.39044 0.09837 0.0
H1760 H 0.83805 0.62766 0.8792 0.0
H1761 H 0.84271 0.62776 1.00542 0.0
H1762 H 0.89452 0.62382 0.97051 0.0
H1763 H 0.88983 0.62401 0.84285 0.0
H1764 H 0.85532 0.60553 0.09174 0.0
H1765 H 0.89345 0.66129 0.10763 0.0
H1766 H 0.88244 0.65572 0.02927 0.0
H1767 H 0.90148 0.64593 0.05006 0.0
C1768 C 0.85048 0.62689 0.89814 0.0
C1769 C 0.86357 0.62593 0.85053 0.0
C1770 C 0.85313 0.62692 0.97076 0.0
C1771 C 0.86898 0.62603 0.99859 0.0
C1772 C 0.88216 0.6249 0.95108 0.0
H1773 H 0.90762 0.62323 0.42472 0.0
H1774 H 0.90297 0.62326 0.29845 0.0
C1775 C 0.87949 0.62491 0.87788 0.0
C1776 C 0.87141 0.62601 0.07704 0.0
H1777 H 0.89041 0.64607 0.21223 0.0
C1778 C 0.86298 0.61445 0.11792 0.0
C1779 C 0.88131 0.63764 0.11217 0.0
C1780 C 0.89008 0.65095 0.07275 0.0
C1781 C 0.86439 0.61399 0.19176 0.0
C1782 C 0.87432 0.6256 0.22686 0.0
C1783 C 0.88275 0.63716 0.18601 0.0
C1784 C 0.87675 0.62555 0.30527 0.0
C1785 C 0.85557 0.60074 0.23131 0.0
C1786 C 0.86359 0.62697 0.35272 0.0
C1787 C 0.86626 0.62693 0.42591 0.0
C1788 C 0.88213 0.62552 0.45335 0.0
C1789 C 0.89521 0.62428 0.40576 0.0
C1790 C 0.89257 0.62433 0.33311 0.0
H1791 H 0.852 0.59047 0.19643 0.0
H1792 H 0.86325 0.59586 0.27441 0.0
H1793 H 0.84428 0.60587 0.25461 0.0
H1794 H 0.85126 0.62832 0.33323 0.0
H1795 H 0.85594 0.62814 0.46083 0.0
H1796 H 0.62411 0.08627 0.6304 0.0
H1797 H 0.62405 0.09092 0.75666 0.0
H1798 H 0.62949 0.14262 0.72221 0.0
H1799 H 0.62941 0.13795 0.59459 0.0
H1800 H 0.64688 0.10336 0.84342 0.0
H1801 H 0.59149 0.14207 0.85799 0.0
H1802 H 0.59688 0.13078 0.78013 0.0
H1803 H 0.60698 0.1497 0.8002 0.0
C1804 C 0.62522 0.09869 0.64942 0.0
C1805 C 0.6266 0.11176 0.60192 0.0
C1806 C 0.62522 0.10132 0.72206 0.0
C1807 C 0.62652 0.11714 0.74998 0.0
C1808 C 0.62807 0.1303 0.70263 0.0
H1809 H 0.62852 0.15576 0.17618 0.0
H1810 H 0.62867 0.15111 0.04995 0.0
C1811 C 0.62808 0.12764 0.62943 0.0
C1812 C 0.62651 0.11956 0.82838 0.0
H1813 H 0.60642 0.13862 0.96308 0.0
C1814 C 0.63799 0.11106 0.86946 0.0
C1815 C 0.61493 0.12953 0.86322 0.0
C1816 C 0.60176 0.13844 0.82336 0.0
C1817 C 0.63841 0.11247 0.94331 0.0
C1818 C 0.6268 0.12242 0.97819 0.0
C1819 C 0.61532 0.13093 0.93708 0.0
C1820 C 0.62677 0.12484 0.05663 0.0
C1821 C 0.65163 0.10363 0.98304 0.0
C1822 C 0.62553 0.11165 0.10403 0.0
C1823 C 0.62551 0.11431 0.17724 0.0
C1824 C 0.62662 0.13023 0.20468 0.0
C1825 C 0.62768 0.14333 0.15717 0.0
C1826 C 0.62773 0.14068 0.08454 0.0
H1827 H 0.66197 0.1002 0.94841 0.0
H1828 H 0.65641 0.11124 1.02666 0.0
H1829 H 0.64653 0.09224 1.00556 0.0
H1830 H 0.62438 0.0993 0.08451 0.0
H1831 H 0.62452 0.10397 0.21219 0.0
H1832 H 0.1371 0.36612 0.45737 0.0
H1833 H 0.14153 0.3668 0.32961 0.0
H1834 H 0.08981 0.37271 0.29748 0.0
H1835 H 0.08551 0.37264 0.42372 0.0
H1836 H 0.13102 0.34725 0.22467 0.0
H1837 H 0.10578 0.40869 0.175 0.0
H1838 H 0.11016 0.40149 0.26225 0.0
H1839 H 0.09141 0.39586 0.21922 0.0
C1840 C 0.12676 0.36791 0.42306 0.0
C1841 C 0.111 0.36966 0.45128 0.0
C1842 C 0.12925 0.36817 0.34974 0.0
C1843 C 0.11605 0.37023 0.30291 0.0
C1844 C 0.10033 0.37167 0.33153 0.0
H1845 H 0.10334 0.36868 0.84139 0.0
H1846 H 0.0988 0.36865 0.96939 0.0
C1847 C 0.09786 0.37149 0.40426 0.0
C1848 C 0.11845 0.3703 0.22442 0.0
H1849 H 0.10945 0.39167 0.07452 0.0
C1850 C 0.1264 0.35706 0.19214 0.0
C1851 C 0.1124 0.38301 0.18083 0.0
C1852 C 0.10461 0.39813 0.21113 0.0
C1853 C 0.12816 0.35601 0.11853 0.0
C1854 C 0.12198 0.36863 0.07506 0.0
C1855 C 0.11405 0.38188 0.10719 0.0
C1856 C 0.12445 0.36869 0.99679 0.0
C1857 C 0.13637 0.34117 0.08777 0.0
C1858 C 0.14029 0.36902 0.96886 0.0
C1859 C 0.14285 0.36914 0.89621 0.0
C1860 C 0.12968 0.36897 0.84871 0.0
C1861 C 0.11376 0.3688 0.87628 0.0
C1862 C 0.11117 0.36878 0.94956 0.0
H1863 H 0.13627 0.33073 0.12484 0.0
H1864 H 0.13036 0.33734 0.03826 0.0
H1865 H 0.14929 0.34415 0.07595 0.0
H1866 H 0.15077 0.36931 1.00345 0.0
H1867 H 0.1553 0.36935 0.87716 0.0
H1868 H 0.36842 0.83893 0.17691 0.0
H1869 H 0.36875 0.84364 0.05074 0.0
H1870 H 0.36702 0.89557 0.0864 0.0
H1871 H 0.36676 0.89084 0.21407 0.0
H1872 H 0.34624 0.85848 0.96516 0.0
H1873 H 0.40527 0.89144 0.95002 0.0
H1874 H 0.39906 0.88031 1.02706 0.0
H1875 H 0.39067 0.90015 1.00948 0.0
C1876 C 0.36817 0.8514 0.15819 0.0
C1877 C 0.36766 0.86451 0.20599 0.0
C1878 C 0.36833 0.85407 0.08563 0.0
C1879 C 0.3681 0.86996 0.05814 0.0
C1880 C 0.36751 0.88317 0.10575 0.0
H1881 H 0.37048 0.90848 0.63213 0.0
H1882 H 0.37015 0.90393 0.75831 0.0
C1883 C 0.36729 0.88048 0.1789 0.0
C1884 C 0.36824 0.87241 0.97985 0.0
H1885 H 0.39015 0.88914 0.84503 0.0
C1886 C 0.35587 0.86519 0.93897 0.0
C1887 C 0.38078 0.88109 0.94494 0.0
C1888 C 0.3948 0.88859 0.98484 0.0
C1889 C 0.3555 0.86666 0.86516 0.0
C1890 C 0.3681 0.87527 0.83008 0.0
C1891 C 0.38048 0.88248 0.8711 0.0
C1892 C 0.36834 0.87764 0.7516 0.0
C1893 C 0.34127 0.85938 0.82584 0.0
C1894 C 0.3676 0.8644 0.70408 0.0
C1895 C 0.36765 0.86703 0.63089 0.0
C1896 C 0.36868 0.88292 0.60347 0.0
C1897 C 0.36968 0.89605 0.65107 0.0
C1898 C 0.36953 0.89346 0.72371 0.0
H1899 H 0.3306 0.85738 0.86066 0.0
H1900 H 0.33745 0.86735 0.7818 0.0
H1901 H 0.34492 0.84735 0.80409 0.0
H1902 H 0.36706 0.85201 0.72345 0.0
H1903 H 0.36681 0.85665 0.59599 0.0
H1904 H 0.83806 0.86663 0.42446 0.0
H1905 H 0.84268 0.86661 0.29829 0.0
H1906 H 0.8946 0.86892 0.3335 0.0
H1907 H 0.88994 0.86844 0.46104 0.0
H1908 H 0.85534 0.88816 0.21236 0.0
H1909 H 0.89313 0.83226 0.19484 0.0
H1910 H 0.88246 0.83791 0.27384 0.0
H1911 H 0.90157 0.84746 0.25208 0.0
C1912 C 0.85051 0.86704 0.40559 0.0
C1913 C 0.86363 0.86747 0.45327 0.0
C1914 C 0.85314 0.86708 0.33296 0.0
C1915 C 0.86901 0.86753 0.30515 0.0
C1916 C 0.88222 0.86815 0.35279 0.0
H1917 H 0.90751 0.87179 0.87922 0.0
H1918 H 0.90286 0.87177 1.00551 0.0
C1919 C 0.87956 0.86802 0.42598 0.0
C1920 C 0.87142 0.86764 0.22665 0.0
H1921 H 0.89046 0.84786 0.09088 0.0
C1922 C 0.86298 0.87927 0.18601 0.0
C1923 C 0.88131 0.85606 0.19116 0.0
C1924 C 0.89001 0.84261 0.23003 0.0
C1925 C 0.86437 0.87983 0.11218 0.0
C1926 C 0.87433 0.86832 0.07685 0.0
C1927 C 0.88278 0.85671 0.11736 0.0
C1928 C 0.87674 0.86851 0.9985 0.0
C1929 C 0.85546 0.89306 0.07276 0.0
C1930 C 0.86364 0.8666 0.95103 0.0
C1931 C 0.86631 0.86659 0.87785 0.0
C1932 C 0.88213 0.86851 0.85047 0.0
C1933 C 0.89514 0.87037 0.89813 0.0
C1934 C 0.89251 0.87032 0.97076 0.0
H1935 H 0.85158 0.90315 0.10792 0.0
H1936 H 0.86323 0.89819 0.03056 0.0
H1937 H 0.84437 0.8878 0.04816 0.0
H1938 H 0.85137 0.86484 0.97052 0.0
H1939 H 0.85605 0.86485 0.84292 0.0
H1940 H 0.86593 0.13719 0.21179 0.0
H1941 H 0.86587 0.14155 0.08388 0.0
H1942 H 0.87049 0.0897 0.05124 0.0
H1943 H 0.8706 0.08537 0.17757 0.0
H1944 H 0.8894 0.13318 0.98062 0.0
H1945 H 0.83157 0.1005 0.92707 0.0
H1946 H 0.83749 0.10676 1.01417 0.0
H1947 H 0.84603 0.0886 0.97581 0.0
C1948 C 0.86701 0.12677 0.17732 0.0
C1949 C 0.86832 0.11095 0.20535 0.0
C1950 C 0.86691 0.12924 0.10401 0.0
C1951 C 0.8679 0.11593 0.05714 0.0
C1952 C 0.86934 0.10019 0.08549 0.0
H1953 H 0.86982 0.10322 0.59593 0.0
H1954 H 0.87008 0.0987 0.72391 0.0
C1955 C 0.8695 0.09774 0.1582 0.0
C1956 C 0.8678 0.11829 0.97884 0.0
H1957 H 0.8479 0.10701 0.828 0.0
C1958 C 0.88024 0.12755 0.94743 0.0
C1959 C 0.85599 0.11083 0.93469 0.0
C1960 C 0.84192 0.10124 0.96455 0.0
C1961 C 0.88136 0.1293 0.87389 0.0
C1962 C 0.8695 0.12191 0.82969 0.0
C1963 C 0.85708 0.11262 0.86114 0.0
C1964 C 0.86936 0.12436 0.75139 0.0
C1965 C 0.89556 0.13875 0.84422 0.0
C1966 C 0.86856 0.14019 0.72341 0.0
C1967 C 0.86843 0.14274 0.6508 0.0
C1968 C 0.86893 0.12956 0.60334 0.0
C1969 C 0.86947 0.11364 0.63086 0.0
C1970 C 0.86961 0.11107 0.70413 0.0
H1971 H 0.90602 0.13902 0.88123 0.0
H1972 H 0.89974 0.13344 0.7938 0.0
H1973 H 0.89173 0.15155 0.83476 0.0
H1974 H 0.86788 0.15067 0.75789 0.0
H1975 H 0.86786 0.15517 0.63177 0.0
H1976 H 0.13864 0.12428 0.84289 0.0
H1977 H 0.14319 0.12455 0.97084 0.0
H1978 H 0.0914 0.12902 1.00422 0.0
H1979 H 0.08688 0.12886 0.87789 0.0
H1980 H 0.13421 0.14857 0.0749 0.0
H1981 H 0.10316 0.08979 0.12753 0.0
H1982 H 0.10955 0.09576 0.04076 0.0
H1983 H 0.09112 0.10396 0.07782 0.0
C1984 C 0.12827 0.12541 0.87756 0.0
C1985 C 0.1124 0.12658 0.84974 0.0
C1986 C 0.13085 0.12551 0.95087 0.0
C1987 C 0.11761 0.12653 0.99795 0.0
C1988 C 0.10183 0.12788 0.96979 0.0
H1989 H 0.10486 0.12681 0.45896 0.0
H1990 H 0.10046 0.12714 0.33092 0.0
C1991 C 0.09928 0.12788 0.89709 0.0
C1992 C 0.12006 0.12649 0.07627 0.0
H1993 H 0.10954 0.10614 0.22673 0.0
C1994 C 0.12892 0.13921 0.10793 0.0
C1995 C 0.11301 0.11443 0.12022 0.0
C1996 C 0.10379 0.10012 0.09 0.0
C1997 C 0.13066 0.14037 0.18154 0.0
C1998 C 0.12372 0.12824 0.2256 0.0
C1999 C 0.11484 0.11552 0.19381 0.0
C2000 C 0.12613 0.12817 0.3041 0.0
C2001 C 0.13955 0.15494 0.21135 0.0
C2002 C 0.14194 0.12835 0.33264 0.0
C2003 C 0.14441 0.12826 0.40538 0.0
C2004 C 0.1312 0.12778 0.45247 0.0
C2005 C 0.11532 0.12732 0.42439 0.0
C2006 C 0.11282 0.12746 0.35103 0.0
H2007 H 0.13925 0.16545 0.17467 0.0
H2008 H 0.13421 0.15884 0.26211 0.0
H2009 H 0.15253 0.15167 0.22008 0.0
H2010 H 0.15248 0.12838 0.29853 0.0
H2011 H 0.15683 0.12843 0.42482 0.0
H2012 H 0.12539 0.89097 0.59961 0.0
H2013 H 0.12576 0.8954 0.72763 0.0
H2014 H 0.12716 0.84337 0.76008 0.0
H2015 H 0.12719 0.83899 0.63383 0.0
H2016 H 0.10476 0.8862 0.83162 0.0
H2017 H 0.16422 0.85682 0.88411 0.0
H2018 H 0.15759 0.86184 0.79664 0.0
H2019 H 0.15052 0.84347 0.83849 0.0
C2020 C 0.12596 0.88053 0.63418 0.0
C2021 C 0.12646 0.86463 0.60614 0.0
C2022 C 0.12612 0.88304 0.70753 0.0
C2023 C 0.12687 0.86974 0.75446 0.0
C2024 C 0.12709 0.85391 0.72596 0.0
H2025 H 0.1233 0.8571 0.21539 0.0
H2026 H 0.12348 0.8526 0.08742 0.0
C2027 C 0.12698 0.85142 0.65323 0.0
C2028 C 0.12694 0.87216 0.83293 0.0
H2029 H 0.14733 0.86176 0.98374 0.0
C2030 C 0.11417 0.88095 0.86461 0.0
C2031 C 0.13911 0.86528 0.87705 0.0
C2032 C 0.15371 0.85647 0.84733 0.0
C2033 C 0.11307 0.88276 0.93819 0.0
C2034 C 0.12516 0.87577 0.98221 0.0
C2035 C 0.13793 0.867 0.95064 0.0
C2036 C 0.1252 0.87821 0.06052 0.0
C2037 C 0.0987 0.89188 0.96831 0.0
C2038 C 0.12641 0.894 0.08878 0.0
C2039 C 0.12645 0.89653 0.16149 0.0
C2040 C 0.12533 0.88338 0.20873 0.0
C2041 C 0.12427 0.8675 0.18081 0.0
C2042 C 0.12433 0.86494 0.10749 0.0
H2043 H 0.08836 0.89242 0.93071 0.0
H2044 H 0.0944 0.8861 1.01753 0.0
H2045 H 0.10245 0.90459 0.98047 0.0
H2046 H 0.12744 0.90446 0.05442 0.0
H2047 H 0.12734 0.90894 0.18077 0.0
loop_
_geom_bond_atom_site_label_1
_geom_bond_atom_site_label_2
_geom_bond_distance
_geom_bond_site_symmetry_2
_ccdc_geom_bond_type
Tb0 O3 2.453 1_554 S
Tb0 O4 2.596 . S
Tb0 O5 2.374 . S
Tb0 O13 2.343 . S
Tb0 O15 2.353 . S
Tb0 O17 2.427 . S
Tb0 O18 2.513 . S
C1 O5 1.251 . S
C1 O7 1.263 . S
Tb2 O4 2.343 . S
Tb2 O7 2.353 . S
Tb2 O10 2.427 . S
Tb2 O11 2.513 . S
Tb2 O12 2.453 . S
Tb2 O13 2.596 . S
Tb2 O14 2.374 . S
O3 Tb0 2.453 1_556 S
O3 C19 1.245 1_556 S
O4 Tb0 2.596 . S
O4 Tb2 2.343 . S
O4 C19 1.259 . S
O5 Tb0 2.374 . S
O5 C1 1.251 . S
C6 O10 1.275 . S
C6 O11 1.246 . S
O7 C1 1.263 . S
O7 Tb2 2.353 . S
C8 O12 1.245 . S
C8 O13 1.259 . S
C9 O14 1.250 . S
C9 O15 1.263 . S
O10 Tb2 2.427 . S
O10 C6 1.275 . S
O11 Tb2 2.513 . S
O11 C6 1.246 . S
O12 Tb2 2.453 . S
O12 C8 1.245 . S
O13 Tb0 2.343 . S
O13 Tb2 2.596 . S
O13 C8 1.259 . S
O14 Tb2 2.374 . S
O14 C9 1.250 . S
O15 Tb0 2.353 . S
O15 C9 1.263 . S
C16 O17 1.275 . S
C16 O18 1.246 . S
O17 Tb0 2.427 . S
O17 C16 1.275 . S
O18 Tb0 2.513 . S
O18 C16 1.246 . S
C19 O3 1.245 1_554 S
C19 O4 1.259 . S
Tb20 O23 2.453 . S
Tb20 O24 2.596 . S
Tb20 O25 2.374 . S
Tb20 O33 2.343 . S
Tb20 O35 2.353 . S
Tb20 O37 2.427 . S
Tb20 O38 2.513 . S
C21 O25 1.251 . S
C21 O27 1.263 . S
Tb22 O24 2.343 . S
Tb22 O27 2.353 . S
Tb22 O30 2.427 . S
Tb22 O31 2.513 . S
Tb22 O32 2.453 1_556 S
Tb22 O33 2.596 . S
Tb22 O34 2.374 . S
O23 Tb20 2.453 . S
O23 C39 1.245 . S
O24 Tb20 2.596 . S
O24 Tb22 2.343 . S
O24 C39 1.259 . S
O25 Tb20 2.374 . S
O25 C21 1.251 . S
C26 O30 1.275 . S
C26 O31 1.246 . S
O27 C21 1.263 . S
O27 Tb22 2.353 . S
C28 O32 1.245 1_556 S
C28 O33 1.259 . S
C29 O34 1.250 . S
C29 O35 1.263 . S
O30 Tb22 2.427 . S
O30 C26 1.275 . S
O31 Tb22 2.513 . S
O31 C26 1.246 . S
O32 Tb22 2.453 1_554 S
O32 C28 1.245 1_554 S
O33 Tb20 2.343 . S
O33 Tb22 2.596 . S
O33 C28 1.259 . S
O34 Tb22 2.374 . S
O34 C29 1.250 . S
O35 Tb20 2.353 . S
O35 C29 1.263 . S
C36 O37 1.275 . S
C36 O38 1.246 . S
O37 Tb20 2.427 . S
O37 C36 1.275 . S
O38 Tb20 2.513 . S
O38 C36 1.246 . S
C39 O23 1.245 . S
C39 O24 1.259 . S
Tb40 O43 2.453 1_554 S
Tb40 O44 2.596 . S
Tb40 O45 2.374 . S
Tb40 O53 2.343 . S
Tb40 O55 2.353 . S
Tb40 O57 2.427 . S
Tb40 O58 2.513 . S
C41 O45 1.251 . S
C41 O47 1.263 . S
Tb42 O44 2.343 . S
Tb42 O47 2.353 . S
Tb42 O50 2.427 . S
Tb42 O51 2.513 . S
Tb42 O52 2.453 . S
Tb42 O53 2.596 . S
Tb42 O54 2.374 . S
O43 Tb40 2.453 1_556 S
O43 C59 1.245 1_556 S
O44 Tb40 2.596 . S
O44 Tb42 2.343 . S
O44 C59 1.259 . S
O45 Tb40 2.374 . S
O45 C41 1.251 . S
C46 O50 1.275 . S
C46 O51 1.246 . S
O47 C41 1.263 . S
O47 Tb42 2.353 . S
C48 O52 1.245 . S
C48 O53 1.259 . S
C49 O54 1.250 . S
C49 O55 1.263 . S
O50 Tb42 2.427 . S
O50 C46 1.275 . S
O51 Tb42 2.513 . S
O51 C46 1.246 . S
O52 Tb42 2.453 . S
O52 C48 1.245 . S
O53 Tb40 2.343 . S
O53 Tb42 2.596 . S
O53 C48 1.259 . S
O54 Tb42 2.374 . S
O54 C49 1.250 . S
O55 Tb40 2.353 . S
O55 C49 1.263 . S
C56 O57 1.275 . S
C56 O58 1.246 . S
O57 Tb40 2.427 . S
O57 C56 1.275 . S
O58 Tb40 2.513 . S
O58 C56 1.246 . S
C59 O43 1.245 1_554 S
C59 O44 1.259 . S
Tb60 O63 2.453 . S
Tb60 O64 2.596 . S
Tb60 O65 2.374 . S
Tb60 O73 2.343 . S
Tb60 O75 2.353 . S
Tb60 O77 2.427 . S
Tb60 O78 2.513 . S
C61 O65 1.251 . S
C61 O67 1.263 . S
Tb62 O64 2.343 . S
Tb62 O67 2.353 . S
Tb62 O70 2.427 . S
Tb62 O71 2.513 . S
Tb62 O72 2.453 1_556 S
Tb62 O73 2.596 . S
Tb62 O74 2.374 . S
O63 Tb60 2.453 . S
O63 C79 1.245 . S
O64 Tb60 2.596 . S
O64 Tb62 2.343 . S
O64 C79 1.259 . S
O65 Tb60 2.374 . S
O65 C61 1.251 . S
C66 O70 1.275 . S
C66 O71 1.246 . S
O67 C61 1.263 . S
O67 Tb62 2.353 . S
C68 O72 1.245 1_556 S
C68 O73 1.259 . S
C69 O74 1.250 . S
C69 O75 1.263 . S
O70 Tb62 2.427 . S
O70 C66 1.275 . S
O71 Tb62 2.513 . S
O71 C66 1.246 . S
O72 Tb62 2.453 1_554 S
O72 C68 1.245 1_554 S
O73 Tb60 2.343 . S
O73 Tb62 2.596 . S
O73 C68 1.259 . S
O74 Tb62 2.374 . S
O74 C69 1.250 . S
O75 Tb60 2.353 . S
O75 C69 1.263 . S
C76 O77 1.275 . S
C76 O78 1.246 . S
O77 Tb60 2.427 . S
O77 C76 1.275 . S
O78 Tb60 2.513 . S
O78 C76 1.246 . S
C79 O63 1.245 . S
C79 O64 1.259 . S
Tb80 O83 2.453 . S
Tb80 O84 2.596 . S
Tb80 O85 2.374 . S
Tb80 O93 2.343 . S
Tb80 O95 2.353 . S
Tb80 O97 2.427 . S
Tb80 O98 2.513 . S
C81 O85 1.251 . S
C81 O87 1.263 . S
Tb82 O84 2.343 . S
Tb82 O87 2.353 . S
Tb82 O90 2.427 . S
Tb82 O91 2.513 . S
Tb82 O92 2.453 1_554 S
Tb82 O93 2.596 . S
Tb82 O94 2.374 . S
O83 Tb80 2.453 . S
O83 C99 1.245 . S
O84 Tb80 2.596 . S
O84 Tb82 2.343 . S
O84 C99 1.259 . S
O85 Tb80 2.374 . S
O85 C81 1.251 . S
C86 O90 1.275 . S
C86 O91 1.246 . S
O87 C81 1.263 . S
O87 Tb82 2.353 . S
C88 O92 1.245 . S
C88 O93 1.259 1_556 S
C89 O94 1.250 . S
C89 O95 1.263 . S
O90 Tb82 2.427 . S
O90 C86 1.275 . S
O91 Tb82 2.513 . S
O91 C86 1.246 . S
O92 Tb82 2.453 1_556 S
O92 C88 1.245 . S
O93 Tb80 2.343 . S
O93 Tb82 2.596 . S
O93 C88 1.259 1_554 S
O94 Tb82 2.374 . S
O94 C89 1.250 . S
O95 Tb80 2.353 . S
O95 C89 1.263 . S
C96 O97 1.275 . S
C96 O98 1.246 . S
O97 Tb80 2.427 . S
O97 C96 1.275 . S
O98 Tb80 2.513 . S
O98 C96 1.246 . S
C99 O83 1.245 . S
C99 O84 1.259 . S
Tb100 O103 2.453 1_556 S
Tb100 O104 2.596 . S
Tb100 O105 2.374 . S
Tb100 O113 2.343 . S
Tb100 O115 2.353 . S
Tb100 O117 2.427 . S
Tb100 O118 2.513 . S
C101 O105 1.251 . S
C101 O107 1.263 . S
Tb102 O104 2.343 . S
Tb102 O107 2.353 . S
Tb102 O110 2.427 . S
Tb102 O111 2.513 . S
Tb102 O112 2.453 . S
Tb102 O113 2.596 . S
Tb102 O114 2.374 . S
O103 Tb100 2.453 1_554 S
O103 C119 1.245 . S
O104 Tb100 2.596 . S
O104 Tb102 2.343 . S
O104 C119 1.259 1_556 S
O105 Tb100 2.374 . S
O105 C101 1.251 . S
C106 O110 1.275 . S
C106 O111 1.246 . S
O107 C101 1.263 . S
O107 Tb102 2.353 . S
C108 O112 1.245 . S
C108 O113 1.259 . S
C109 O114 1.250 . S
C109 O115 1.263 . S
O110 Tb102 2.427 . S
O110 C106 1.275 . S
O111 Tb102 2.513 . S
O111 C106 1.246 . S
O112 Tb102 2.453 . S
O112 C108 1.245 . S
O113 Tb100 2.343 . S
O113 Tb102 2.596 . S
O113 C108 1.259 . S
O114 Tb102 2.374 . S
O114 C109 1.250 . S
O115 Tb100 2.353 . S
O115 C109 1.263 . S
C116 O117 1.275 . S
C116 O118 1.246 . S
O117 Tb100 2.427 . S
O117 C116 1.275 . S
O118 Tb100 2.513 . S
O118 C116 1.246 . S
C119 O103 1.245 . S
C119 O104 1.259 1_554 S
Tb120 O123 2.453 . S
Tb120 O124 2.596 . S
Tb120 O125 2.374 . S
Tb120 O133 2.343 . S
Tb120 O135 2.353 . S
Tb120 O137 2.427 . S
Tb120 O138 2.513 . S
C121 O125 1.251 . S
C121 O127 1.263 . S
Tb122 O124 2.343 . S
Tb122 O127 2.353 . S
Tb122 O130 2.427 . S
Tb122 O131 2.513 . S
Tb122 O132 2.453 1_554 S
Tb122 O133 2.596 . S
Tb122 O134 2.374 . S
O123 Tb120 2.453 . S
O123 C139 1.245 . S
O124 Tb120 2.596 . S
O124 Tb122 2.343 . S
O124 C139 1.259 . S
O125 Tb120 2.374 . S
O125 C121 1.251 . S
C126 O130 1.275 . S
C126 O131 1.246 . S
O127 C121 1.263 . S
O127 Tb122 2.353 . S
C128 O132 1.245 . S
C128 O133 1.259 1_556 S
C129 O134 1.250 . S
C129 O135 1.263 . S
O130 Tb122 2.427 . S
O130 C126 1.275 . S
O131 Tb122 2.513 . S
O131 C126 1.246 . S
O132 Tb122 2.453 1_556 S
O132 C128 1.245 . S
O133 Tb120 2.343 . S
O133 Tb122 2.596 . S
O133 C128 1.259 1_554 S
O134 Tb122 2.374 . S
O134 C129 1.250 . S
O135 Tb120 2.353 . S
O135 C129 1.263 . S
C136 O137 1.275 . S
C136 O138 1.246 . S
O137 Tb120 2.427 . S
O137 C136 1.275 . S
O138 Tb120 2.513 . S
O138 C136 1.246 . S
C139 O123 1.245 . S
C139 O124 1.259 . S
Tb140 O143 2.453 1_556 S
Tb140 O144 2.596 . S
Tb140 O145 2.374 . S
Tb140 O153 2.343 . S
Tb140 O155 2.353 . S
Tb140 O157 2.427 . S
Tb140 O158 2.513 . S
C141 O145 1.251 . S
C141 O147 1.263 . S
Tb142 O144 2.343 . S
Tb142 O147 2.353 . S
Tb142 O150 2.427 . S
Tb142 O151 2.513 . S
Tb142 O152 2.453 . S
Tb142 O153 2.596 . S
Tb142 O154 2.374 . S
O143 Tb140 2.453 1_554 S
O143 C159 1.245 . S
O144 Tb140 2.596 . S
O144 Tb142 2.343 . S
O144 C159 1.259 1_556 S
O145 Tb140 2.374 . S
O145 C141 1.251 . S
C146 O150 1.275 . S
C146 O151 1.246 . S
O147 C141 1.263 . S
O147 Tb142 2.353 . S
C148 O152 1.245 . S
C148 O153 1.259 . S
C149 O154 1.250 . S
C149 O155 1.263 . S
O150 Tb142 2.427 . S
O150 C146 1.275 . S
O151 Tb142 2.513 . S
O151 C146 1.246 . S
O152 Tb142 2.453 . S
O152 C148 1.245 . S
O153 Tb140 2.343 . S
O153 Tb142 2.596 . S
O153 C148 1.259 . S
O154 Tb142 2.374 . S
O154 C149 1.250 . S
O155 Tb140 2.353 . S
O155 C149 1.263 . S
C156 O157 1.275 . S
C156 O158 1.246 . S
O157 Tb140 2.427 . S
O157 C156 1.275 . S
O158 Tb140 2.513 . S
O158 C156 1.246 . S
C159 O143 1.245 . S
C159 O144 1.259 1_554 S
Tb160 O163 2.453 . S
Tb160 O164 2.596 . S
Tb160 O165 2.374 . S
Tb160 O173 2.343 . S
Tb160 O175 2.353 . S
Tb160 O177 2.427 . S
Tb160 O178 2.513 . S
C161 O165 1.251 . S
C161 O167 1.263 . S
Tb162 O164 2.343 . S
Tb162 O167 2.353 . S
Tb162 O170 2.427 . S
Tb162 O171 2.513 . S
Tb162 O172 2.453 . S
Tb162 O173 2.596 . S
Tb162 O174 2.374 . S
O163 Tb160 2.453 . S
O163 C179 1.245 . S
O164 Tb160 2.596 . S
O164 Tb162 2.343 . S
O164 C179 1.259 . S
O165 Tb160 2.374 . S
O165 C161 1.251 . S
C166 O170 1.275 . S
C166 O171 1.246 . S
O167 C161 1.263 . S
O167 Tb162 2.353 . S
C168 O172 1.245 . S
C168 O173 1.259 . S
C169 O174 1.250 . S
C169 O175 1.263 . S
O170 Tb162 2.427 . S
O170 C166 1.275 . S
O171 Tb162 2.513 . S
O171 C166 1.246 . S
O172 Tb162 2.453 . S
O172 C168 1.245 . S
O173 Tb160 2.343 . S
O173 Tb162 2.596 . S
O173 C168 1.259 . S
O174 Tb162 2.374 . S
O174 C169 1.250 . S
O175 Tb160 2.353 . S
O175 C169 1.263 . S
C176 O177 1.275 . S
C176 O178 1.246 . S
O177 Tb160 2.427 . S
O177 C176 1.275 . S
O178 Tb160 2.513 . S
O178 C176 1.246 . S
C179 O163 1.245 . S
C179 O164 1.259 . S
Tb180 O183 2.453 . S
Tb180 O184 2.596 . S
Tb180 O185 2.374 . S
Tb180 O193 2.343 . S
Tb180 O195 2.353 . S
Tb180 O197 2.427 . S
Tb180 O198 2.513 . S
C181 O185 1.251 . S
C181 O187 1.263 . S
Tb182 O184 2.343 . S
Tb182 O187 2.353 . S
Tb182 O190 2.427 . S
Tb182 O191 2.513 . S
Tb182 O192 2.453 . S
Tb182 O193 2.596 . S
Tb182 O194 2.374 . S
O183 Tb180 2.453 . S
O183 C199 1.245 . S
O184 Tb180 2.596 . S
O184 Tb182 2.343 . S
O184 C199 1.259 . S
O185 Tb180 2.374 . S
O185 C181 1.251 . S
C186 O190 1.275 . S
C186 O191 1.246 . S
O187 C181 1.263 . S
O187 Tb182 2.353 . S
C188 O192 1.245 . S
C188 O193 1.259 . S
C189 O194 1.250 . S
C189 O195 1.263 . S
O190 Tb182 2.427 . S
O190 C186 1.275 . S
O191 Tb182 2.513 . S
O191 C186 1.246 . S
O192 Tb182 2.453 . S
O192 C188 1.245 . S
O193 Tb180 2.343 . S
O193 Tb182 2.596 . S
O193 C188 1.259 . S
O194 Tb182 2.374 . S
O194 C189 1.250 . S
O195 Tb180 2.353 . S
O195 C189 1.263 . S
C196 O197 1.275 . S
C196 O198 1.246 . S
O197 Tb180 2.427 . S
O197 C196 1.275 . S
O198 Tb180 2.513 . S
O198 C196 1.246 . S
C199 O183 1.245 . S
C199 O184 1.259 . S
Tb200 O203 2.453 . S
Tb200 O204 2.596 . S
Tb200 O205 2.374 . S
Tb200 O213 2.343 . S
Tb200 O215 2.353 . S
Tb200 O217 2.427 . S
Tb200 O218 2.513 . S
C201 O205 1.251 . S
C201 O207 1.263 . S
Tb202 O204 2.343 . S
Tb202 O207 2.353 . S
Tb202 O210 2.427 . S
Tb202 O211 2.513 . S
Tb202 O212 2.453 . S
Tb202 O213 2.596 . S
Tb202 O214 2.374 . S
O203 Tb200 2.453 . S
O203 C219 1.245 . S
O204 Tb200 2.596 . S
O204 Tb202 2.343 . S
O204 C219 1.259 . S
O205 Tb200 2.374 . S
O205 C201 1.251 . S
C206 O210 1.275 . S
C206 O211 1.246 . S
O207 C201 1.263 . S
O207 Tb202 2.353 . S
C208 O212 1.245 . S
C208 O213 1.259 . S
C209 O214 1.250 . S
C209 O215 1.263 . S
O210 Tb202 2.427 . S
O210 C206 1.275 . S
O211 Tb202 2.513 . S
O211 C206 1.246 . S
O212 Tb202 2.453 . S
O212 C208 1.245 . S
O213 Tb200 2.343 . S
O213 Tb202 2.596 . S
O213 C208 1.259 . S
O214 Tb202 2.374 . S
O214 C209 1.250 . S
O215 Tb200 2.353 . S
O215 C209 1.263 . S
C216 O217 1.275 . S
C216 O218 1.246 . S
O217 Tb200 2.427 . S
O217 C216 1.275 . S
O218 Tb200 2.513 . S
O218 C216 1.246 . S
C219 O203 1.245 . S
C219 O204 1.259 . S
Tb220 O223 2.453 . S
Tb220 O224 2.596 . S
Tb220 O225 2.374 . S
Tb220 O233 2.343 . S
Tb220 O235 2.353 . S
Tb220 O237 2.427 . S
Tb220 O238 2.513 . S
C221 O225 1.251 . S
C221 O227 1.263 . S
Tb222 O224 2.343 . S
Tb222 O227 2.353 . S
Tb222 O230 2.427 . S
Tb222 O231 2.513 . S
Tb222 O232 2.453 . S
Tb222 O233 2.596 . S
Tb222 O234 2.374 . S
O223 Tb220 2.453 . S
O223 C239 1.245 . S
O224 Tb220 2.596 . S
O224 Tb222 2.343 . S
O224 C239 1.259 . S
O225 Tb220 2.374 . S
O225 C221 1.251 . S
C226 O230 1.275 . S
C226 O231 1.246 . S
O227 C221 1.263 . S
O227 Tb222 2.353 . S
C228 O232 1.245 . S
C228 O233 1.259 . S
C229 O234 1.250 . S
C229 O235 1.263 . S
O230 Tb222 2.427 . S
O230 C226 1.275 . S
O231 Tb222 2.513 . S
O231 C226 1.246 . S
O232 Tb222 2.453 . S
O232 C228 1.245 . S
O233 Tb220 2.343 . S
O233 Tb222 2.596 . S
O233 C228 1.259 . S
O234 Tb222 2.374 . S
O234 C229 1.250 . S
O235 Tb220 2.353 . S
O235 C229 1.263 . S
C236 O237 1.275 . S
C236 O238 1.246 . S
O237 Tb220 2.427 . S
O237 C236 1.275 . S
O238 Tb220 2.513 . S
O238 C236 1.246 . S
C239 O223 1.245 . S
C239 O224 1.259 . S
Tb240 O243 2.453 . S
Tb240 O244 2.596 . S
Tb240 O245 2.374 . S
Tb240 O253 2.343 . S
Tb240 O255 2.353 . S
Tb240 O257 2.427 . S
Tb240 O258 2.513 . S
C241 O245 1.251 . S
C241 O247 1.263 . S
Tb242 O244 2.343 . S
Tb242 O247 2.353 . S
Tb242 O250 2.427 . S
Tb242 O251 2.513 . S
Tb242 O252 2.453 . S
Tb242 O253 2.596 . S
Tb242 O254 2.374 . S
O243 Tb240 2.453 . S
O243 C259 1.245 . S
O244 Tb240 2.596 . S
O244 Tb242 2.343 . S
O244 C259 1.259 . S
O245 Tb240 2.374 . S
O245 C241 1.251 . S
C246 O250 1.275 . S
C246 O251 1.246 . S
O247 C241 1.263 . S
O247 Tb242 2.353 . S
C248 O252 1.245 . S
C248 O253 1.259 . S
C249 O254 1.250 . S
C249 O255 1.263 . S
O250 Tb242 2.427 . S
O250 C246 1.275 . S
O251 Tb242 2.513 . S
O251 C246 1.246 . S
O252 Tb242 2.453 . S
O252 C248 1.245 . S
O253 Tb240 2.343 . S
O253 Tb242 2.596 . S
O253 C248 1.259 . S
O254 Tb242 2.374 . S
O254 C249 1.250 . S
O255 Tb240 2.353 . S
O255 C249 1.263 . S
C256 O257 1.275 . S
C256 O258 1.246 . S
O257 Tb240 2.427 . S
O257 C256 1.275 . S
O258 Tb240 2.513 . S
O258 C256 1.246 . S
C259 O243 1.245 . S
C259 O244 1.259 . S
Tb260 O263 2.453 . S
Tb260 O264 2.596 . S
Tb260 O265 2.374 . S
Tb260 O273 2.343 . S
Tb260 O275 2.353 . S
Tb260 O277 2.427 . S
Tb260 O278 2.513 . S
C261 O265 1.251 . S
C261 O267 1.263 . S
Tb262 O264 2.343 . S
Tb262 O267 2.353 . S
Tb262 O270 2.427 . S
Tb262 O271 2.513 . S
Tb262 O272 2.453 . S
Tb262 O273 2.596 . S
Tb262 O274 2.374 . S
O263 Tb260 2.453 . S
O263 C279 1.245 . S
O264 Tb260 2.596 . S
O264 Tb262 2.343 . S
O264 C279 1.259 . S
O265 Tb260 2.374 . S
O265 C261 1.251 . S
C266 O270 1.275 . S
C266 O271 1.246 . S
O267 C261 1.263 . S
O267 Tb262 2.353 . S
C268 O272 1.245 . S
C268 O273 1.259 . S
C269 O274 1.250 . S
C269 O275 1.263 . S
O270 Tb262 2.427 . S
O270 C266 1.275 . S
O271 Tb262 2.513 . S
O271 C266 1.246 . S
O272 Tb262 2.453 . S
O272 C268 1.245 . S
O273 Tb260 2.343 . S
O273 Tb262 2.596 . S
O273 C268 1.259 . S
O274 Tb262 2.374 . S
O274 C269 1.250 . S
O275 Tb260 2.353 . S
O275 C269 1.263 . S
C276 O277 1.275 . S
C276 O278 1.246 . S
O277 Tb260 2.427 . S
O277 C276 1.275 . S
O278 Tb260 2.513 . S
O278 C276 1.246 . S
C279 O263 1.245 . S
C279 O264 1.259 . S
Tb280 O283 2.453 . S
Tb280 O284 2.596 . S
Tb280 O285 2.374 . S
Tb280 O293 2.343 . S
Tb280 O295 2.353 . S
Tb280 O297 2.427 . S
Tb280 O298 2.513 . S
C281 O285 1.251 . S
C281 O287 1.263 . S
Tb282 O284 2.343 . S
Tb282 O287 2.353 . S
Tb282 O290 2.427 . S
Tb282 O291 2.513 . S
Tb282 O292 2.453 . S
Tb282 O293 2.596 . S
Tb282 O294 2.374 . S
O283 Tb280 2.453 . S
O283 C299 1.245 . S
O284 Tb280 2.596 . S
O284 Tb282 2.343 . S
O284 C299 1.259 . S
O285 Tb280 2.374 . S
O285 C281 1.251 . S
C286 O290 1.275 . S
C286 O291 1.246 . S
O287 C281 1.263 . S
O287 Tb282 2.353 . S
C288 O292 1.245 . S
C288 O293 1.259 . S
C289 O294 1.250 . S
C289 O295 1.263 . S
O290 Tb282 2.427 . S
O290 C286 1.275 . S
O291 Tb282 2.513 . S
O291 C286 1.246 . S
O292 Tb282 2.453 . S
O292 C288 1.245 . S
O293 Tb280 2.343 . S
O293 Tb282 2.596 . S
O293 C288 1.259 . S
O294 Tb282 2.374 . S
O294 C289 1.250 . S
O295 Tb280 2.353 . S
O295 C289 1.263 . S
C296 O297 1.275 . S
C296 O298 1.246 . S
O297 Tb280 2.427 . S
O297 C296 1.275 . S
O298 Tb280 2.513 . S
O298 C296 1.246 . S
C299 O283 1.245 . S
C299 O284 1.259 . S
Tb300 O303 2.453 . S
Tb300 O304 2.596 . S
Tb300 O305 2.374 . S
Tb300 O313 2.343 . S
Tb300 O315 2.353 . S
Tb300 O317 2.427 . S
Tb300 O318 2.513 . S
C301 O305 1.251 . S
C301 O307 1.263 . S
Tb302 O304 2.343 . S
Tb302 O307 2.353 . S
Tb302 O310 2.427 . S
Tb302 O311 2.513 . S
Tb302 O312 2.453 . S
Tb302 O313 2.596 . S
Tb302 O314 2.374 . S
O303 Tb300 2.453 . S
O303 C319 1.245 . S
O304 Tb300 2.596 . S
O304 Tb302 2.343 . S
O304 C319 1.259 . S
O305 Tb300 2.374 . S
O305 C301 1.251 . S
C306 O310 1.275 . S
C306 O311 1.246 . S
O307 C301 1.263 . S
O307 Tb302 2.353 . S
C308 O312 1.245 . S
C308 O313 1.259 . S
C309 O314 1.250 . S
C309 O315 1.263 . S
O310 Tb302 2.427 . S
O310 C306 1.275 . S
O311 Tb302 2.513 . S
O311 C306 1.246 . S
O312 Tb302 2.453 . S
O312 C308 1.245 . S
O313 Tb300 2.343 . S
O313 Tb302 2.596 . S
O313 C308 1.259 . S
O314 Tb302 2.374 . S
O314 C309 1.250 . S
O315 Tb300 2.353 . S
O315 C309 1.263 . S
C316 O317 1.275 . S
C316 O318 1.246 . S
O317 Tb300 2.427 . S
O317 C316 1.275 . S
O318 Tb300 2.513 . S
O318 C316 1.246 . S
C319 O303 1.245 . S
C319 O304 1.259 . S
H320 C328 0.929 . S
H321 C330 0.930 . S
H322 C332 0.930 . S
H323 C335 0.929 . S
H324 C338 0.930 1_565 S
H325 C340 0.960 . S
H326 C340 0.960 . S
H327 C340 0.960 . S
C328 H320 0.929 . S
C328 C329 1.377 . S
C328 C330 1.384 . S
C329 C328 1.377 . S
C329 C335 1.390 . S
C330 H321 0.930 . S
C330 C328 1.384 . S
C330 C331 1.372 . S
C331 C330 1.372 . S
C331 C332 1.400 . S
C331 C336 1.490 . S
C332 H322 0.930 . S
C332 C331 1.400 . S
C332 C335 1.386 . S
H333 C349 0.930 . S
H334 C350 0.931 . S
C335 H323 0.929 . S
C335 C329 1.390 . S
C335 C332 1.386 . S
C336 C331 1.490 . S
C336 C338 1.395 1_565 S
C336 C339 1.403 . S
H337 C343 0.930 . S
C338 H324 0.930 1_545 S
C338 C336 1.395 1_545 S
C338 C341 1.403 . S
C339 C336 1.403 . S
C339 C340 1.524 . S
C339 C343 1.400 1_565 S
C340 H325 0.960 . S
C340 H326 0.960 . S
C340 H327 0.960 . S
C340 C339 1.524 . S
C341 C338 1.403 . S
C341 C342 1.392 . S
C341 C345 1.495 . S
C342 C341 1.392 . S
C342 C343 1.385 . S
C342 C344 1.478 . S
C343 H337 0.930 . S
C343 C339 1.400 1_545 S
C343 C342 1.385 . S
C344 C342 1.478 . S
C344 C346 1.381 . S
C344 C350 1.383 . S
C345 C341 1.495 . S
C345 H351 0.959 . S
C345 H352 0.961 . S
C345 H353 0.960 . S
C346 C344 1.381 . S
C346 C347 1.394 . S
C346 H354 0.930 . S
C347 C346 1.394 . S
C347 C348 1.383 . S
C347 H355 0.929 . S
C348 C347 1.383 . S
C348 C349 1.377 . S
C349 H333 0.930 . S
C349 C348 1.377 . S
C349 C350 1.379 . S
C350 H334 0.931 . S
C350 C344 1.383 . S
C350 C349 1.379 . S
H351 C345 0.959 . S
H352 C345 0.961 . S
H353 C345 0.960 . S
H354 C346 0.930 . S
H355 C347 0.929 . S
H356 C364 0.929 . S
H357 C366 0.930 . S
H358 C368 0.930 . S
H359 C371 0.929 . S
H360 C374 0.930 . S
H361 C376 0.960 1_455 S
H362 C376 0.960 . S
H363 C376 0.960 . S
C364 H356 0.929 . S
C364 C365 1.377 . S
C364 C366 1.384 . S
C365 C364 1.377 . S
C365 C371 1.390 . S
C366 H357 0.930 . S
C366 C364 1.384 . S
C366 C367 1.372 . S
C367 C366 1.372 . S
C367 C368 1.400 . S
C367 C372 1.490 . S
C368 H358 0.930 . S
C368 C367 1.400 . S
C368 C371 1.386 . S
H369 C385 0.930 . S
H370 C386 0.931 . S
C371 H359 0.929 . S
C371 C365 1.390 . S
C371 C368 1.386 . S
C372 C367 1.490 . S
C372 C374 1.395 . S
C372 C375 1.403 1_655 S
H373 C379 0.930 . S
C374 H360 0.930 . S
C374 C372 1.395 . S
C374 C377 1.403 1_655 S
C375 C372 1.403 1_455 S
C375 C376 1.524 1_455 S
C375 C379 1.400 . S
C376 H361 0.960 1_655 S
C376 H362 0.960 . S
C376 H363 0.960 . S
C376 C375 1.524 1_655 S
C377 C374 1.403 1_455 S
C377 C378 1.392 . S
C377 C381 1.495 . S
C378 C377 1.392 . S
C378 C379 1.385 . S
C378 C380 1.478 . S
C379 H373 0.930 . S
C379 C375 1.400 . S
C379 C378 1.385 . S
C380 C378 1.478 . S
C380 C382 1.381 . S
C380 C386 1.383 . S
C381 C377 1.495 . S
C381 H387 0.959 . S
C381 H388 0.961 . S
C381 H389 0.960 . S
C382 C380 1.381 . S
C382 C383 1.394 . S
C382 H390 0.930 . S
C383 C382 1.394 . S
C383 C384 1.383 . S
C383 H391 0.929 . S
C384 C383 1.383 . S
C384 C385 1.377 . S
C385 H369 0.930 . S
C385 C384 1.377 . S
C385 C386 1.379 . S
C386 H370 0.931 . S
C386 C380 1.383 . S
C386 C385 1.379 . S
H387 C381 0.959 . S
H388 C381 0.961 . S
H389 C381 0.960 . S
H390 C382 0.930 . S
H391 C383 0.929 . S
H392 C400 0.929 . S
H393 C402 0.930 . S
H394 C404 0.930 . S
H395 C407 0.929 . S
H396 C410 0.930 . S
H397 C412 0.960 . S
H398 C412 0.960 . S
H399 C412 0.960 . S
C400 H392 0.929 . S
C400 C401 1.377 . S
C400 C402 1.384 . S
C401 C400 1.377 . S
C401 C407 1.390 . S
C402 H393 0.930 . S
C402 C400 1.384 . S
C402 C403 1.372 . S
C403 C402 1.372 . S
C403 C404 1.400 . S
C403 C408 1.490 . S
C404 H394 0.930 . S
C404 C403 1.400 . S
C404 C407 1.386 . S
H405 C421 0.930 . S
H406 C422 0.931 . S
C407 H395 0.929 . S
C407 C401 1.390 . S
C407 C404 1.386 . S
C408 C403 1.490 . S
C408 C410 1.395 . S
C408 C411 1.403 . S
H409 C415 0.930 . S
C410 H396 0.930 . S
C410 C408 1.395 . S
C410 C413 1.403 . S
C411 C408 1.403 . S
C411 C412 1.524 . S
C411 C415 1.400 1_565 S
C412 H397 0.960 . S
C412 H398 0.960 . S
C412 H399 0.960 . S
C412 C411 1.524 . S
C413 C410 1.403 . S
C413 C414 1.392 1_565 S
C413 C417 1.495 1_565 S
C414 C413 1.392 1_545 S
C414 C415 1.385 . S
C414 C416 1.478 . S
C415 H409 0.930 . S
C415 C411 1.400 1_545 S
C415 C414 1.385 . S
C416 C414 1.478 . S
C416 C418 1.381 . S
C416 C422 1.383 . S
C417 C413 1.495 1_545 S
C417 H423 0.959 1_545 S
C417 H424 0.961 . S
C417 H425 0.960 . S
C418 C416 1.381 . S
C418 C419 1.394 . S
C418 H426 0.930 . S
C419 C418 1.394 . S
C419 C420 1.383 . S
C419 H427 0.929 . S
C420 C419 1.383 . S
C420 C421 1.377 . S
C421 H405 0.930 . S
C421 C420 1.377 . S
C421 C422 1.379 . S
C422 H406 0.931 . S
C422 C416 1.383 . S
C422 C421 1.379 . S
H423 C417 0.959 1_565 S
H424 C417 0.961 . S
H425 C417 0.960 . S
H426 C418 0.930 . S
H427 C419 0.929 . S
H428 C436 0.929 . S
H429 C438 0.930 . S
H430 C440 0.930 . S
H431 C443 0.929 . S
H432 C446 0.930 . S
H433 C448 0.960 . S
H434 C448 0.960 . S
H435 C448 0.960 . S
C436 H428 0.929 . S
C436 C437 1.377 . S
C436 C438 1.384 . S
C437 C436 1.377 . S
C437 C443 1.390 . S
C438 H429 0.930 . S
C438 C436 1.384 . S
C438 C439 1.372 . S
C439 C438 1.372 . S
C439 C440 1.400 . S
C439 C444 1.490 . S
C440 H430 0.930 . S
C440 C439 1.400 . S
C440 C443 1.386 . S
H441 C457 0.930 . S
H442 C458 0.931 . S
C443 H431 0.929 . S
C443 C437 1.390 . S
C443 C440 1.386 . S
C444 C439 1.490 . S
C444 C446 1.395 . S
C444 C447 1.403 . S
H445 C451 0.930 . S
C446 H432 0.930 . S
C446 C444 1.395 . S
C446 C449 1.403 . S
C447 C444 1.403 . S
C447 C448 1.524 . S
C447 C451 1.400 1_655 S
C448 H433 0.960 . S
C448 H434 0.960 . S
C448 H435 0.960 . S
C448 C447 1.524 . S
C449 C446 1.403 . S
C449 C450 1.392 1_655 S
C449 C453 1.495 1_655 S
C450 C449 1.392 1_455 S
C450 C451 1.385 . S
C450 C452 1.478 . S
C451 H445 0.930 . S
C451 C447 1.400 1_455 S
C451 C450 1.385 . S
C452 C450 1.478 . S
C452 C454 1.381 . S
C452 C458 1.383 . S
C453 C449 1.495 1_455 S
C453 H459 0.959 1_455 S
C453 H460 0.961 . S
C453 H461 0.960 . S
C454 C452 1.381 . S
C454 C455 1.394 . S
C454 H462 0.930 . S
C455 C454 1.394 . S
C455 C456 1.383 . S
C455 H463 0.929 . S
C456 C455 1.383 . S
C456 C457 1.377 . S
C457 H441 0.930 . S
C457 C456 1.377 . S
C457 C458 1.379 . S
C458 H442 0.931 . S
C458 C452 1.383 . S
C458 C457 1.379 . S
H459 C453 0.959 1_655 S
H460 C453 0.961 . S
H461 C453 0.960 . S
H462 C454 0.930 . S
H463 C455 0.929 . S
H464 C472 0.929 . S
H465 C474 0.930 . S
H466 C476 0.930 . S
H467 C479 0.929 . S
H468 C482 0.930 . S
H469 C484 0.960 . S
H470 C484 0.960 . S
H471 C484 0.960 . S
C472 H464 0.929 . S
C472 C473 1.377 . S
C472 C474 1.384 . S
C473 C472 1.377 . S
C473 C479 1.390 . S
C474 H465 0.930 . S
C474 C472 1.384 . S
C474 C475 1.372 . S
C475 C474 1.372 . S
C475 C476 1.400 . S
C475 C480 1.490 . S
C476 H466 0.930 . S
C476 C475 1.400 . S
C476 C479 1.386 . S
H477 C493 0.930 . S
H478 C494 0.931 . S
C479 H467 0.929 . S
C479 C473 1.390 . S
C479 C476 1.386 . S
C480 C475 1.490 . S
C480 C482 1.395 1_554 S
C480 C483 1.403 . S
H481 C487 0.930 . S
C482 H468 0.930 . S
C482 C480 1.395 1_556 S
C482 C485 1.403 . S
C483 C480 1.403 . S
C483 C484 1.524 . S
C483 C487 1.400 . S
C484 H469 0.960 . S
C484 H470 0.960 . S
C484 H471 0.960 . S
C484 C483 1.524 . S
C485 C482 1.403 . S
C485 C486 1.392 1_556 S
C485 C489 1.495 . S
C486 C485 1.392 1_554 S
C486 C487 1.385 . S
C486 C488 1.478 . S
C487 H481 0.930 . S
C487 C483 1.400 . S
C487 C486 1.385 . S
C488 C486 1.478 . S
C488 C490 1.381 1_554 S
C488 C494 1.383 . S
C489 C485 1.495 . S
C489 H495 0.959 . S
C489 H496 0.961 . S
C489 H497 0.960 . S
C490 C488 1.381 1_556 S
C490 C491 1.394 . S
C490 H498 0.930 . S
C491 C490 1.394 . S
C491 C492 1.383 . S
C491 H499 0.929 . S
C492 C491 1.383 . S
C492 C493 1.377 1_556 S
C493 H477 0.930 . S
C493 C492 1.377 1_554 S
C493 C494 1.379 . S
C494 H478 0.931 . S
C494 C488 1.383 . S
C494 C493 1.379 . S
H495 C489 0.959 . S
H496 C489 0.961 . S
H497 C489 0.960 . S
H498 C490 0.930 . S
H499 C491 0.929 . S
H500 C508 0.929 . S
H501 C510 0.930 . S
H502 C512 0.930 . S
H503 C515 0.929 . S
H504 C518 0.930 . S
H505 C520 0.960 . S
H506 C520 0.960 . S
H507 C520 0.960 . S
C508 H500 0.929 . S
C508 C509 1.377 1_556 S
C508 C510 1.384 . S
C509 C508 1.377 1_554 S
C509 C515 1.390 . S
C510 H501 0.930 . S
C510 C508 1.384 . S
C510 C511 1.372 . S
C511 C510 1.372 . S
C511 C512 1.400 1_556 S
C511 C516 1.490 . S
C512 H502 0.930 . S
C512 C511 1.400 1_554 S
C512 C515 1.386 . S
H513 C529 0.930 . S
H514 C530 0.939 . S
C515 H503 0.929 . S
C515 C509 1.390 . S
C515 C512 1.386 . S
C516 C511 1.490 . S
C516 C518 1.395 . S
C516 C519 1.403 1_556 S
H517 C523 0.930 1_554 S
C518 H504 0.930 . S
C518 C516 1.395 . S
C518 C521 1.403 . S
C519 C516 1.403 1_554 S
C519 C520 1.524 . S
C519 C523 1.400 1_554 S
C520 H505 0.960 . S
C520 H506 0.960 . S
C520 H507 0.960 . S
C520 C519 1.524 . S
C521 C518 1.403 . S
C521 C522 1.392 . S
C521 C525 1.495 . S
C522 C521 1.392 . S
C522 C523 1.385 . S
C522 C524 1.478 . S
C523 H517 0.930 1_556 S
C523 C519 1.400 1_556 S
C523 C522 1.385 . S
C524 C522 1.478 . S
C524 C526 1.381 . S
C524 C530 1.383 . S
C525 C521 1.495 . S
C525 H531 0.959 . S
C525 H532 0.961 . S
C525 H533 0.960 . S
C526 C524 1.381 . S
C526 C527 1.394 . S
C526 H534 0.930 . S
C527 C526 1.394 . S
C527 C528 1.383 . S
C527 H535 0.929 . S
C528 C527 1.383 . S
C528 C529 1.377 . S
C529 H513 0.930 . S
C529 C528 1.377 . S
C529 C530 1.379 . S
C530 H514 0.939 . S
C530 C524 1.383 . S
C530 C529 1.379 . S
H531 C525 0.959 . S
H532 C525 0.961 . S
H533 C525 0.960 . S
H534 C526 0.930 . S
H535 C527 0.929 . S
H536 C544 0.929 . S
H537 C546 0.930 . S
H538 C548 0.930 . S
H539 C551 0.929 . S
H540 C554 0.930 . S
H541 C556 0.960 . S
H542 C556 0.960 . S
H543 C556 0.960 . S
C544 H536 0.929 . S
C544 C545 1.377 . S
C544 C546 1.384 . S
C545 C544 1.377 . S
C545 C551 1.390 . S
C546 H537 0.930 . S
C546 C544 1.384 . S
C546 C547 1.372 . S
C547 C546 1.372 . S
C547 C548 1.400 . S
C547 C552 1.490 . S
C548 H538 0.930 . S
C548 C547 1.400 . S
C548 C551 1.386 . S
H549 C565 0.930 . S
H550 C566 0.931 . S
C551 H539 0.929 . S
C551 C545 1.390 . S
C551 C548 1.386 . S
C552 C547 1.490 . S
C552 C554 1.395 1_554 S
C552 C555 1.403 . S
H553 C559 0.930 . S
C554 H540 0.930 . S
C554 C552 1.395 1_556 S
C554 C557 1.403 . S
C555 C552 1.403 . S
C555 C556 1.524 . S
C555 C559 1.400 . S
C556 H541 0.960 . S
C556 H542 0.960 . S
C556 H543 0.960 . S
C556 C555 1.524 . S
C557 C554 1.403 . S
C557 C558 1.392 1_556 S
C557 C561 1.495 . S
C558 C557 1.392 1_554 S
C558 C559 1.385 . S
C558 C560 1.478 . S
C559 H553 0.930 . S
C559 C555 1.400 . S
C559 C558 1.385 . S
C560 C558 1.478 . S
C560 C562 1.381 1_554 S
C560 C566 1.383 . S
C561 C557 1.495 . S
C561 H567 0.959 . S
C561 H568 0.961 . S
C561 H569 0.960 . S
C562 C560 1.381 1_556 S
C562 C563 1.394 . S
C562 H570 0.930 . S
C563 C562 1.394 . S
C563 C564 1.383 . S
C563 H571 0.929 . S
C564 C563 1.383 . S
C564 C565 1.377 1_556 S
C565 H549 0.930 . S
C565 C564 1.377 1_554 S
C565 C566 1.379 . S
C566 H550 0.931 . S
C566 C560 1.383 . S
C566 C565 1.379 . S
H567 C561 0.959 . S
H568 C561 0.961 . S
H569 C561 0.960 . S
H570 C562 0.930 . S
H571 C563 0.929 . S
H572 C580 0.929 . S
H573 C582 0.930 . S
H574 C584 0.930 . S
H575 C587 0.929 . S
H576 C590 0.930 . S
H577 C592 0.960 . S
H578 C592 0.960 . S
H579 C592 0.960 . S
C580 H572 0.929 . S
C580 C581 1.377 1_556 S
C580 C582 1.384 . S
C581 C580 1.377 1_554 S
C581 C587 1.390 . S
C582 H573 0.930 . S
C582 C580 1.384 . S
C582 C583 1.372 . S
C583 C582 1.372 . S
C583 C584 1.400 1_556 S
C583 C588 1.490 . S
C584 H574 0.930 . S
C584 C583 1.400 1_554 S
C584 C587 1.386 . S
H585 C601 0.930 . S
H586 C602 0.931 . S
C587 H575 0.929 . S
C587 C581 1.390 . S
C587 C584 1.386 . S
C588 C583 1.490 . S
C588 C590 1.395 . S
C588 C591 1.403 1_556 S
H589 C595 0.930 . S
C590 H576 0.930 . S
C590 C588 1.395 . S
C590 C593 1.403 . S
C591 C588 1.403 1_554 S
C591 C592 1.524 . S
C591 C595 1.400 . S
C592 H577 0.960 . S
C592 H578 0.960 . S
C592 H579 0.960 . S
C592 C591 1.524 . S
C593 C590 1.403 . S
C593 C594 1.392 . S
C593 C597 1.495 . S
C594 C593 1.392 . S
C594 C595 1.385 1_556 S
C594 C596 1.478 . S
C595 H589 0.930 . S
C595 C591 1.400 . S
C595 C594 1.385 1_554 S
C596 C594 1.478 . S
C596 C598 1.381 . S
C596 C602 1.383 . S
C597 C593 1.495 . S
C597 H603 0.959 . S
C597 H604 0.961 . S
C597 H605 0.960 . S
C598 C596 1.381 . S
C598 C599 1.394 . S
C598 H606 0.930 . S
C599 C598 1.394 . S
C599 C600 1.383 . S
C599 H607 0.929 . S
C600 C599 1.383 . S
C600 C601 1.377 . S
C601 H585 0.930 . S
C601 C600 1.377 . S
C601 C602 1.379 . S
C602 H586 0.931 . S
C602 C596 1.383 . S
C602 C601 1.379 . S
H603 C597 0.959 . S
H604 C597 0.961 . S
H605 C597 0.960 . S
H606 C598 0.930 . S
H607 C599 0.929 . S
H608 C616 0.929 . S
H609 C618 0.930 . S
H610 C620 0.930 . S
H611 C623 0.929 . S
H612 C626 0.930 . S
H613 C628 0.960 . S
H614 C628 0.960 . S
H615 C628 0.960 . S
C616 H608 0.929 . S
C616 C617 1.377 . S
C616 C618 1.384 . S
C617 C616 1.377 . S
C617 C623 1.390 . S
C618 H609 0.930 . S
C618 C616 1.384 . S
C618 C619 1.372 . S
C619 C618 1.372 . S
C619 C620 1.400 . S
C619 C624 1.490 . S
C620 H610 0.930 . S
C620 C619 1.400 . S
C620 C623 1.386 . S
H621 C637 0.930 . S
H622 C638 0.931 . S
C623 H611 0.929 . S
C623 C617 1.390 . S
C623 C620 1.386 . S
C624 C619 1.490 . S
C624 C626 1.395 . S
C624 C627 1.403 . S
H625 C631 0.930 . S
C626 H612 0.930 . S
C626 C624 1.395 . S
C626 C629 1.403 . S
C627 C624 1.403 . S
C627 C628 1.524 . S
C627 C631 1.400 . S
C628 H613 0.960 . S
C628 H614 0.960 . S
C628 H615 0.960 . S
C628 C627 1.524 . S
C629 C626 1.403 . S
C629 C630 1.392 . S
C629 C633 1.495 . S
C630 C629 1.392 . S
C630 C631 1.385 . S
C630 C632 1.478 . S
C631 H625 0.930 . S
C631 C627 1.400 . S
C631 C630 1.385 . S
C632 C630 1.478 . S
C632 C634 1.381 . S
C632 C638 1.383 . S
C633 C629 1.495 . S
C633 H639 0.959 . S
C633 H640 0.961 . S
C633 H641 0.960 . S
C634 C632 1.381 . S
C634 C635 1.394 . S
C634 H642 0.930 . S
C635 C634 1.394 . S
C635 C636 1.383 . S
C635 H643 0.929 . S
C636 C635 1.383 . S
C636 C637 1.377 . S
C637 H621 0.930 . S
C637 C636 1.377 . S
C637 C638 1.379 . S
C638 H622 0.931 . S
C638 C632 1.383 . S
C638 C637 1.379 . S
H639 C633 0.959 . S
H640 C633 0.961 . S
H641 C633 0.960 . S
H642 C634 0.930 . S
H643 C635 0.929 . S
H644 C652 0.929 . S
H645 C654 0.930 . S
H646 C656 0.930 . S
H647 C659 0.929 . S
H648 C662 0.930 . S
H649 C664 0.960 . S
H650 C664 0.960 . S
H651 C664 0.960 . S
C652 H644 0.929 . S
C652 C653 1.377 . S
C652 C654 1.384 . S
C653 C652 1.377 . S
C653 C659 1.390 . S
C654 H645 0.930 . S
C654 C652 1.384 . S
C654 C655 1.372 . S
C655 C654 1.372 . S
C655 C656 1.400 . S
C655 C660 1.490 . S
C656 H646 0.930 . S
C656 C655 1.400 . S
C656 C659 1.386 . S
H657 C673 0.930 . S
H658 C674 0.931 . S
C659 H647 0.929 . S
C659 C653 1.390 . S
C659 C656 1.386 . S
C660 C655 1.490 . S
C660 C662 1.395 . S
C660 C663 1.403 . S
H661 C667 0.930 . S
C662 H648 0.930 . S
C662 C660 1.395 . S
C662 C665 1.403 . S
C663 C660 1.403 . S
C663 C664 1.524 . S
C663 C667 1.400 . S
C664 H649 0.960 . S
C664 H650 0.960 . S
C664 H651 0.960 . S
C664 C663 1.524 . S
C665 C662 1.403 . S
C665 C666 1.392 . S
C665 C669 1.495 . S
C666 C665 1.392 . S
C666 C667 1.385 . S
C666 C668 1.478 . S
C667 H661 0.930 . S
C667 C663 1.400 . S
C667 C666 1.385 . S
C668 C666 1.478 . S
C668 C670 1.381 . S
C668 C674 1.383 . S
C669 C665 1.495 . S
C669 H675 0.959 . S
C669 H676 0.961 . S
C669 H677 0.960 . S
C670 C668 1.381 . S
C670 C671 1.394 . S
C670 H678 0.930 . S
C671 C670 1.394 . S
C671 C672 1.383 . S
C671 H679 0.929 . S
C672 C671 1.383 . S
C672 C673 1.377 . S
C673 H657 0.930 . S
C673 C672 1.377 . S
C673 C674 1.379 . S
C674 H658 0.931 . S
C674 C668 1.383 . S
C674 C673 1.379 . S
H675 C669 0.959 . S
H676 C669 0.961 . S
H677 C669 0.960 . S
H678 C670 0.930 . S
H679 C671 0.929 . S
H680 C688 0.929 . S
H681 C690 0.930 . S
H682 C692 0.930 . S
H683 C695 0.929 . S
H684 C698 0.930 . S
H685 C700 0.960 . S
H686 C700 0.960 . S
H687 C700 0.960 . S
C688 H680 0.929 . S
C688 C689 1.377 . S
C688 C690 1.384 . S
C689 C688 1.377 . S
C689 C695 1.390 . S
C690 H681 0.930 . S
C690 C688 1.384 . S
C690 C691 1.372 . S
C691 C690 1.372 . S
C691 C692 1.400 . S
C691 C696 1.490 . S
C692 H682 0.930 . S
C692 C691 1.400 . S
C692 C695 1.386 . S
H693 C709 0.930 . S
H694 C710 0.931 . S
C695 H683 0.929 . S
C695 C689 1.390 . S
C695 C692 1.386 . S
C696 C691 1.490 . S
C696 C698 1.395 . S
C696 C699 1.403 . S
H697 C703 0.930 . S
C698 H684 0.930 . S
C698 C696 1.395 . S
C698 C701 1.403 . S
C699 C696 1.403 . S
C699 C700 1.524 . S
C699 C703 1.400 . S
C700 H685 0.960 . S
C700 H686 0.960 . S
C700 H687 0.960 . S
C700 C699 1.524 . S
C701 C698 1.403 . S
C701 C702 1.392 . S
C701 C705 1.495 . S
C702 C701 1.392 . S
C702 C703 1.385 . S
C702 C704 1.478 . S
C703 H697 0.930 . S
C703 C699 1.400 . S
C703 C702 1.385 . S
C704 C702 1.478 . S
C704 C706 1.381 . S
C704 C710 1.383 . S
C705 C701 1.495 . S
C705 H711 0.959 . S
C705 H712 0.961 . S
C705 H713 0.960 . S
C706 C704 1.381 . S
C706 C707 1.394 . S
C706 H714 0.930 . S
C707 C706 1.394 . S
C707 C708 1.383 . S
C707 H715 0.929 . S
C708 C707 1.383 . S
C708 C709 1.377 . S
C709 H693 0.930 . S
C709 C708 1.377 . S
C709 C710 1.379 . S
C710 H694 0.931 . S
C710 C704 1.383 . S
C710 C709 1.379 . S
H711 C705 0.959 . S
H712 C705 0.961 . S
H713 C705 0.960 . S
H714 C706 0.930 . S
H715 C707 0.929 . S
H716 C724 0.929 . S
H717 C726 0.930 . S
H718 C728 0.930 . S
H719 C731 0.929 . S
H720 C734 0.930 . S
H721 C736 0.960 . S
H722 C736 0.960 . S
H723 C736 0.960 . S
C724 H716 0.929 . S
C724 C725 1.377 . S
C724 C726 1.384 . S
C725 C724 1.377 . S
C725 C731 1.390 . S
C726 H717 0.930 . S
C726 C724 1.384 . S
C726 C727 1.372 . S
C727 C726 1.372 . S
C727 C728 1.400 . S
C727 C732 1.490 . S
C728 H718 0.930 . S
C728 C727 1.400 . S
C728 C731 1.386 . S
H729 C745 0.930 . S
H730 C746 0.931 . S
C731 H719 0.929 . S
C731 C725 1.390 . S
C731 C728 1.386 . S
C732 C727 1.490 . S
C732 C734 1.395 . S
C732 C735 1.403 . S
H733 C739 0.930 . S
C734 H720 0.930 . S
C734 C732 1.395 . S
C734 C737 1.403 . S
C735 C732 1.403 . S
C735 C736 1.524 . S
C735 C739 1.400 . S
C736 H721 0.960 . S
C736 H722 0.960 . S
C736 H723 0.960 . S
C736 C735 1.524 . S
C737 C734 1.403 . S
C737 C738 1.392 . S
C737 C741 1.495 . S
C738 C737 1.392 . S
C738 C739 1.385 . S
C738 C740 1.478 . S
C739 H733 0.930 . S
C739 C735 1.400 . S
C739 C738 1.385 . S
C740 C738 1.478 . S
C740 C742 1.381 . S
C740 C746 1.383 . S
C741 C737 1.495 . S
C741 H747 0.959 . S
C741 H748 0.961 . S
C741 H749 0.960 . S
C742 C740 1.381 . S
C742 C743 1.394 . S
C742 H750 0.930 . S
C743 C742 1.394 . S
C743 C744 1.383 . S
C743 H751 0.929 . S
C744 C743 1.383 . S
C744 C745 1.377 . S
C745 H729 0.930 . S
C745 C744 1.377 . S
C745 C746 1.379 . S
C746 H730 0.931 . S
C746 C740 1.383 . S
C746 C745 1.379 . S
H747 C741 0.959 . S
H748 C741 0.961 . S
H749 C741 0.960 . S
H750 C742 0.930 . S
H751 C743 0.929 . S
H752 C760 0.929 . S
H753 C762 0.930 . S
H754 C764 0.930 . S
H755 C767 0.929 . S
H756 C770 0.930 . S
H757 C772 0.960 . S
H758 C772 0.960 . S
H759 C772 0.960 . S
C760 H752 0.929 . S
C760 C761 1.377 . S
C760 C762 1.384 . S
C761 C760 1.377 . S
C761 C767 1.390 . S
C762 H753 0.930 . S
C762 C760 1.384 . S
C762 C763 1.372 . S
C763 C762 1.372 . S
C763 C764 1.400 . S
C763 C768 1.490 . S
C764 H754 0.930 . S
C764 C763 1.400 . S
C764 C767 1.386 . S
H765 C781 0.930 . S
H766 C782 0.931 . S
C767 H755 0.929 . S
C767 C761 1.390 . S
C767 C764 1.386 . S
C768 C763 1.490 . S
C768 C770 1.395 . S
C768 C771 1.403 . S
H769 C775 0.930 . S
C770 H756 0.930 . S
C770 C768 1.395 . S
C770 C773 1.406 1_565 S
C771 C768 1.403 . S
C771 C772 1.524 . S
C771 C775 1.400 1_565 S
C772 H757 0.960 . S
C772 H758 0.960 . S
C772 H759 0.960 . S
C772 C771 1.524 . S
C773 C770 1.406 1_545 S
C773 C774 1.391 . S
C773 C777 1.494 . S
C774 C773 1.391 . S
C774 C775 1.385 . S
C774 C776 1.478 . S
C775 H769 0.930 . S
C775 C771 1.400 1_545 S
C775 C774 1.385 . S
C776 C774 1.478 . S
C776 C778 1.381 . S
C776 C782 1.383 . S
C777 C773 1.494 . S
C777 H783 0.914 1_545 S
C777 H784 0.961 . S
C777 H785 0.960 . S
C778 C776 1.381 . S
C778 C779 1.394 . S
C778 H786 0.930 . S
C779 C778 1.394 . S
C779 C780 1.383 . S
C779 H787 0.929 . S
C780 C779 1.383 . S
C780 C781 1.377 . S
C781 H765 0.930 . S
C781 C780 1.377 . S
C781 C782 1.379 . S
C782 H766 0.931 . S
C782 C776 1.383 . S
C782 C781 1.379 . S
H783 C777 0.914 1_565 S
H784 C777 0.961 . S
H785 C777 0.960 . S
H786 C778 0.930 . S
H787 C779 0.929 . S
H788 C796 0.929 . S
H789 C798 0.930 . S
H790 C800 0.930 . S
H791 C803 0.929 . S
H792 C806 0.930 1_455 S
H793 C808 0.960 . S
H794 C808 0.960 . S
H795 C808 0.960 . S
C796 H788 0.929 . S
C796 C797 1.377 . S
C796 C798 1.384 . S
C797 C796 1.377 . S
C797 C803 1.390 . S
C798 H789 0.930 . S
C798 C796 1.384 . S
C798 C799 1.372 . S
C799 C798 1.372 . S
C799 C800 1.400 . S
C799 C804 1.490 . S
C800 H790 0.930 . S
C800 C799 1.400 . S
C800 C803 1.386 . S
H801 C817 0.930 . S
H802 C818 0.931 . S
C803 H791 0.929 . S
C803 C797 1.390 . S
C803 C800 1.386 . S
C804 C799 1.490 . S
C804 C806 1.395 1_455 S
C804 C807 1.434 . S
H805 C811 0.930 . S
C806 H792 0.930 1_655 S
C806 C804 1.395 1_655 S
C806 C809 1.403 . S
C807 C804 1.434 . S
C807 C808 1.556 . S
C807 C811 1.335 1_455 S
C808 H793 0.960 . S
C808 H794 0.960 . S
C808 H795 0.960 . S
C808 C807 1.556 . S
C809 C806 1.403 . S
C809 C810 1.392 . S
C809 C813 1.495 . S
C810 C809 1.392 . S
C810 C811 1.385 . S
C810 C812 1.478 . S
C811 H805 0.930 . S
C811 C807 1.335 1_655 S
C811 C810 1.385 . S
C812 C810 1.478 . S
C812 C814 1.381 . S
C812 C818 1.383 . S
C813 C809 1.495 . S
C813 H819 0.959 . S
C813 H820 0.961 . S
C813 H821 0.960 . S
C814 C812 1.381 . S
C814 C815 1.394 . S
C814 H822 0.930 . S
C815 C814 1.394 . S
C815 C816 1.383 . S
C815 H823 0.929 . S
C816 C815 1.383 . S
C816 C817 1.377 . S
C817 H801 0.930 . S
C817 C816 1.377 . S
C817 C818 1.379 . S
C818 H802 0.931 . S
C818 C812 1.383 . S
C818 C817 1.379 . S
H819 C813 0.959 . S
H820 C813 0.961 . S
H821 C813 0.960 . S
H822 C814 0.930 . S
H823 C815 0.929 . S
H824 C832 0.929 . S
H825 C834 0.930 . S
H826 C836 0.930 . S
H827 C839 0.929 . S
H828 C842 0.921 1_565 S
H829 C844 0.960 . S
H830 C844 0.960 . S
H831 C844 0.960 . S
C832 H824 0.929 . S
C832 C833 1.377 . S
C832 C834 1.384 . S
C833 C832 1.377 . S
C833 C839 1.390 . S
C834 H825 0.930 . S
C834 C832 1.384 . S
C834 C835 1.372 . S
C835 C834 1.372 . S
C835 C836 1.400 . S
C835 C840 1.490 . S
C836 H826 0.930 . S
C836 C835 1.400 . S
C836 C839 1.386 . S
H837 C853 0.930 . S
H838 C854 0.931 . S
C839 H827 0.929 . S
C839 C833 1.390 . S
C839 C836 1.386 . S
C840 C835 1.490 . S
C840 C842 1.384 1_565 S
C840 C843 1.403 . S
H841 C847 0.930 . S
C842 H828 0.921 1_545 S
C842 C840 1.384 1_545 S
C842 C845 1.423 . S
C843 C840 1.403 . S
C843 C844 1.524 . S
C843 C847 1.400 1_565 S
C844 H829 0.960 . S
C844 H830 0.960 . S
C844 H831 0.960 . S
C844 C843 1.524 . S
C845 C842 1.423 . S
C845 C846 1.392 . S
C845 C849 1.495 . S
C846 C845 1.392 . S
C846 C847 1.385 . S
C846 C848 1.478 . S
C847 H841 0.930 . S
C847 C843 1.400 1_545 S
C847 C846 1.385 . S
C848 C846 1.478 . S
C848 C850 1.381 . S
C848 C854 1.383 . S
C849 C845 1.495 . S
C849 H855 0.959 . S
C849 H856 0.961 . S
C849 H857 0.960 . S
C850 C848 1.381 . S
C850 C851 1.394 . S
C850 H858 0.930 . S
C851 C850 1.394 . S
C851 C852 1.383 . S
C851 H859 0.929 . S
C852 C851 1.383 . S
C852 C853 1.377 . S
C853 H837 0.930 . S
C853 C852 1.377 . S
C853 C854 1.379 . S
C854 H838 0.931 . S
C854 C848 1.383 . S
C854 C853 1.379 . S
H855 C849 0.959 . S
H856 C849 0.961 . S
H857 C849 0.960 . S
H858 C850 0.930 . S
H859 C851 0.929 . S
H860 C868 0.929 . S
H861 C870 0.930 . S
H862 C872 0.930 . S
H863 C875 0.929 . S
H864 C878 0.930 . S
H865 C880 0.960 . S
H866 C880 0.960 . S
H867 C880 0.960 . S
C868 H860 0.929 . S
C868 C869 1.377 . S
C868 C870 1.384 . S
C869 C868 1.377 . S
C869 C875 1.390 . S
C870 H861 0.930 . S
C870 C868 1.384 . S
C870 C871 1.372 . S
C871 C870 1.372 . S
C871 C872 1.400 . S
C871 C876 1.490 . S
C872 H862 0.930 . S
C872 C871 1.400 . S
C872 C875 1.386 . S
H873 C889 0.930 . S
H874 C890 0.931 . S
C875 H863 0.929 . S
C875 C869 1.390 . S
C875 C872 1.386 . S
C876 C871 1.490 . S
C876 C878 1.395 . S
C876 C879 1.403 . S
H877 C883 0.930 . S
C878 H864 0.930 . S
C878 C876 1.395 . S
C878 C881 1.403 . S
C879 C876 1.403 . S
C879 C880 1.524 . S
C879 C883 1.400 1_455 S
C880 H865 0.960 . S
C880 H866 0.960 . S
C880 H867 0.960 . S
C880 C879 1.524 . S
C881 C878 1.403 . S
C881 C882 1.392 1_455 S
C881 C885 1.495 1_455 S
C882 C881 1.392 1_655 S
C882 C883 1.385 . S
C882 C884 1.478 . S
C883 H877 0.930 . S
C883 C879 1.400 1_655 S
C883 C882 1.385 . S
C884 C882 1.478 . S
C884 C886 1.381 . S
C884 C890 1.383 . S
C885 C881 1.495 1_655 S
C885 H891 0.959 1_655 S
C885 H892 0.961 . S
C885 H893 0.960 . S
C886 C884 1.381 . S
C886 C887 1.394 . S
C886 H894 0.930 . S
C887 C886 1.394 . S
C887 C888 1.383 . S
C887 H895 0.929 . S
C888 C887 1.383 . S
C888 C889 1.377 . S
C889 H873 0.930 . S
C889 C888 1.377 . S
C889 C890 1.379 . S
C890 H874 0.931 . S
C890 C884 1.383 . S
C890 C889 1.379 . S
H891 C885 0.959 1_455 S
H892 C885 0.961 . S
H893 C885 0.960 . S
H894 C886 0.930 . S
H895 C887 0.929 . S
H896 C904 0.929 . S
H897 C906 0.930 . S
H898 C908 0.930 . S
H899 C911 0.929 . S
H900 C914 0.930 . S
H901 C916 0.960 . S
H902 C916 0.960 . S
H903 C916 0.960 . S
C904 H896 0.929 . S
C904 C905 1.377 . S
C904 C906 1.384 . S
C905 C904 1.377 . S
C905 C911 1.390 . S
C906 H897 0.930 . S
C906 C904 1.384 . S
C906 C907 1.372 . S
C907 C906 1.372 . S
C907 C908 1.400 . S
C907 C912 1.490 . S
C908 H898 0.930 . S
C908 C907 1.400 . S
C908 C911 1.386 . S
H909 C925 0.930 . S
H910 C926 0.931 . S
C911 H899 0.929 . S
C911 C905 1.390 . S
C911 C908 1.386 . S
C912 C907 1.490 . S
C912 C914 1.395 . S
C912 C915 1.403 . S
H913 C919 0.930 . S
C914 H900 0.930 . S
C914 C912 1.395 . S
C914 C917 1.403 . S
C915 C912 1.403 . S
C915 C916 1.524 . S
C915 C919 1.400 . S
C916 H901 0.960 . S
C916 H902 0.960 . S
C916 H903 0.960 . S
C916 C915 1.524 . S
C917 C914 1.403 . S
C917 C918 1.392 . S
C917 C921 1.495 . S
C918 C917 1.392 . S
C918 C919 1.385 . S
C918 C920 1.478 . S
C919 H913 0.930 . S
C919 C915 1.400 . S
C919 C918 1.385 . S
C920 C918 1.478 . S
C920 C922 1.381 . S
C920 C926 1.383 . S
C921 C917 1.495 . S
C921 H927 0.959 1_554 S
C921 H928 0.961 . S
C921 H929 0.960 1_554 S
C922 C920 1.381 . S
C922 C923 1.394 . S
C922 H930 0.930 . S
C923 C922 1.394 . S
C923 C924 1.383 . S
C923 H931 0.929 . S
C924 C923 1.383 . S
C924 C925 1.377 . S
C925 H909 0.930 . S
C925 C924 1.377 . S
C925 C926 1.379 . S
C926 H910 0.931 . S
C926 C920 1.383 . S
C926 C925 1.379 . S
H927 C921 0.959 1_556 S
H928 C921 0.961 . S
H929 C921 0.960 1_556 S
H930 C922 0.930 . S
H931 C923 0.929 . S
H932 C940 0.929 . S
H933 C942 0.930 . S
H934 C944 0.930 . S
H935 C947 0.929 . S
H936 C950 0.930 . S
H937 C952 0.960 . S
H938 C952 0.960 . S
H939 C952 0.960 . S
C940 H932 0.929 . S
C940 C941 1.377 . S
C940 C942 1.384 . S
C941 C940 1.377 . S
C941 C947 1.390 . S
C942 H933 0.930 . S
C942 C940 1.384 . S
C942 C943 1.372 . S
C943 C942 1.372 . S
C943 C944 1.400 . S
C943 C948 1.490 . S
C944 H934 0.930 . S
C944 C943 1.400 . S
C944 C947 1.386 . S
H945 C961 0.930 . S
H946 C962 0.931 . S
C947 H935 0.929 . S
C947 C941 1.390 . S
C947 C944 1.386 . S
C948 C943 1.490 . S
C948 C950 1.395 . S
C948 C951 1.403 . S
H949 C955 0.930 . S
C950 H936 0.930 . S
C950 C948 1.395 . S
C950 C953 1.403 . S
C951 C948 1.403 . S
C951 C952 1.524 . S
C951 C955 1.400 . S
C952 H937 0.960 . S
C952 H938 0.960 . S
C952 H939 0.960 . S
C952 C951 1.524 . S
C953 C950 1.403 . S
C953 C954 1.392 . S
C953 C957 1.495 . S
C954 C953 1.392 . S
C954 C955 1.385 . S
C954 C956 1.478 . S
C955 H949 0.930 . S
C955 C951 1.400 . S
C955 C954 1.385 . S
C956 C954 1.478 . S
C956 C958 1.381 . S
C956 C962 1.383 . S
C957 C953 1.495 . S
C957 H963 0.959 1_556 S
C957 H964 0.961 1_556 S
C957 H965 0.960 . S
C958 C956 1.381 . S
C958 C959 1.394 . S
C958 H966 0.930 . S
C959 C958 1.394 . S
C959 C960 1.383 . S
C959 H967 0.929 . S
C960 C959 1.383 . S
C960 C961 1.377 . S
C961 H945 0.930 . S
C961 C960 1.377 . S
C961 C962 1.379 . S
C962 H946 0.931 . S
C962 C956 1.383 . S
C962 C961 1.379 . S
H963 C957 0.959 1_554 S
H964 C957 0.961 1_554 S
H965 C957 0.960 . S
H966 C958 0.930 . S
H967 C959 0.929 . S
H968 C976 0.929 . S
H969 C978 0.930 . S
H970 C980 0.930 . S
H971 C983 0.929 . S
H972 C986 0.930 . S
H973 C988 0.960 1_556 S
H974 C988 0.960 1_556 S
H975 C988 0.960 . S
C976 H968 0.929 . S
C976 C977 1.377 . S
C976 C978 1.384 . S
C977 C976 1.377 . S
C977 C983 1.390 . S
C978 H969 0.930 . S
C978 C976 1.384 . S
C978 C979 1.372 . S
C979 C978 1.372 . S
C979 C980 1.400 . S
C979 C984 1.490 . S
C980 H970 0.930 . S
C980 C979 1.400 . S
C980 C983 1.386 . S
H981 C997 0.930 . S
H982 C998 0.931 . S
C983 H971 0.929 . S
C983 C977 1.390 . S
C983 C980 1.386 . S
C984 C979 1.490 . S
C984 C986 1.395 . S
C984 C987 1.403 . S
H985 C991 0.930 . S
C986 H972 0.930 . S
C986 C984 1.395 . S
C986 C989 1.403 . S
C987 C984 1.403 . S
C987 C988 1.524 . S
C987 C991 1.400 . S
C988 H973 0.960 1_554 S
C988 H974 0.960 1_554 S
C988 H975 0.960 . S
C988 C987 1.524 . S
C989 C986 1.403 . S
C989 C990 1.392 . S
C989 C993 1.495 . S
C990 C989 1.392 . S
C990 C991 1.385 . S
C990 C992 1.478 . S
C991 H985 0.930 . S
C991 C987 1.400 . S
C991 C990 1.385 . S
C992 C990 1.478 . S
C992 C994 1.381 . S
C992 C998 1.383 . S
C993 C989 1.495 . S
C993 H999 0.959 . S
C993 H1000 0.961 . S
C993 H1001 0.960 . S
C994 C992 1.381 . S
C994 C995 1.394 . S
C994 H1002 0.930 . S
C995 C994 1.394 . S
C995 C996 1.383 . S
C995 H1003 0.929 . S
C996 C995 1.383 . S
C996 C997 1.377 . S
C997 H981 0.930 . S
C997 C996 1.377 . S
C997 C998 1.379 . S
C998 H982 0.931 . S
C998 C992 1.383 . S
C998 C997 1.379 . S
H999 C993 0.959 . S
H1000 C993 0.961 . S
H1001 C993 0.960 . S
H1002 C994 0.930 . S
H1003 C995 0.929 . S
H1004 C1012 0.929 . S
H1005 C1014 0.930 . S
H1006 C1016 0.930 . S
H1007 C1019 0.929 . S
H1008 C1022 0.930 . S
H1009 C1024 0.960 . S
H1010 C1024 0.960 . S
H1011 C1024 0.960 . S
C1012 H1004 0.929 . S
C1012 C1013 1.377 . S
C1012 C1014 1.384 . S
C1013 C1012 1.377 . S
C1013 C1019 1.390 . S
C1014 H1005 0.930 . S
C1014 C1012 1.384 . S
C1014 C1015 1.372 . S
C1015 C1014 1.372 . S
C1015 C1016 1.400 . S
C1015 C1020 1.490 . S
C1016 H1006 0.930 . S
C1016 C1015 1.400 . S
C1016 C1019 1.386 . S
H1017 C1033 0.930 . S
H1018 C1034 0.931 . S
C1019 H1007 0.929 . S
C1019 C1013 1.390 . S
C1019 C1016 1.386 . S
C1020 C1015 1.490 . S
C1020 C1022 1.395 . S
C1020 C1023 1.403 . S
H1021 C1027 0.930 . S
C1022 H1008 0.930 . S
C1022 C1020 1.395 . S
C1022 C1025 1.403 . S
C1023 C1020 1.403 . S
C1023 C1024 1.524 . S
C1023 C1027 1.400 . S
C1024 H1009 0.960 . S
C1024 H1010 0.960 . S
C1024 H1011 0.960 . S
C1024 C1023 1.524 . S
C1025 C1022 1.403 . S
C1025 C1026 1.392 . S
C1025 C1029 1.495 1_556 S
C1026 C1025 1.392 . S
C1026 C1027 1.385 . S
C1026 C1028 1.478 . S
C1027 H1021 0.930 . S
C1027 C1023 1.400 . S
C1027 C1026 1.385 . S
C1028 C1026 1.478 . S
C1028 C1030 1.381 . S
C1028 C1034 1.383 . S
C1029 C1025 1.495 1_554 S
C1029 H1035 0.959 . S
C1029 H1036 0.961 . S
C1029 H1037 0.961 . S
C1030 C1028 1.381 . S
C1030 C1031 1.394 . S
C1030 H1038 0.930 . S
C1031 C1030 1.394 . S
C1031 C1032 1.383 . S
C1031 H1039 0.929 . S
C1032 C1031 1.383 . S
C1032 C1033 1.377 . S
C1033 H1017 0.930 . S
C1033 C1032 1.377 . S
C1033 C1034 1.379 . S
C1034 H1018 0.931 . S
C1034 C1028 1.383 . S
C1034 C1033 1.379 . S
H1035 C1029 0.959 . S
H1036 C1029 0.961 . S
H1037 C1029 0.961 . S
H1038 C1030 0.930 . S
H1039 C1031 0.929 . S
H1040 C1048 0.929 . S
H1041 C1050 0.930 . S
H1042 C1052 0.930 . S
H1043 C1055 0.929 . S
H1044 C1058 0.930 . S
H1045 C1060 0.960 . S
H1046 C1060 0.960 . S
H1047 C1060 0.960 . S
C1048 H1040 0.929 . S
C1048 C1049 1.377 . S
C1048 C1050 1.384 . S
C1049 C1048 1.377 . S
C1049 C1055 1.390 . S
C1050 H1041 0.930 . S
C1050 C1048 1.384 . S
C1050 C1051 1.372 . S
C1051 C1050 1.372 . S
C1051 C1052 1.400 . S
C1051 C1056 1.490 . S
C1052 H1042 0.930 . S
C1052 C1051 1.400 . S
C1052 C1055 1.386 . S
H1053 C1069 0.930 . S
H1054 C1070 0.931 . S
C1055 H1043 0.929 . S
C1055 C1049 1.390 . S
C1055 C1052 1.386 . S
C1056 C1051 1.490 . S
C1056 C1058 1.395 . S
C1056 C1059 1.403 . S
H1057 C1063 0.930 . S
C1058 H1044 0.930 . S
C1058 C1056 1.395 . S
C1058 C1061 1.403 . S
C1059 C1056 1.403 . S
C1059 C1060 1.524 . S
C1059 C1063 1.400 . S
C1060 H1045 0.960 . S
C1060 H1046 0.960 . S
C1060 H1047 0.960 . S
C1060 C1059 1.524 . S
C1061 C1058 1.403 . S
C1061 C1062 1.392 . S
C1061 C1065 1.495 . S
C1062 C1061 1.392 . S
C1062 C1063 1.385 . S
C1062 C1064 1.478 . S
C1063 H1057 0.930 . S
C1063 C1059 1.400 . S
C1063 C1062 1.385 . S
C1064 C1062 1.478 . S
C1064 C1066 1.381 . S
C1064 C1070 1.383 . S
C1065 C1061 1.495 . S
C1065 H1071 0.959 . S
C1065 H1072 0.961 . S
C1065 H1073 0.960 . S
C1066 C1064 1.381 . S
C1066 C1067 1.394 . S
C1066 H1074 0.930 . S
C1067 C1066 1.394 . S
C1067 C1068 1.383 . S
C1067 H1075 0.929 . S
C1068 C1067 1.383 . S
C1068 C1069 1.377 . S
C1069 H1053 0.930 . S
C1069 C1068 1.377 . S
C1069 C1070 1.379 . S
C1070 H1054 0.931 . S
C1070 C1064 1.383 . S
C1070 C1069 1.379 . S
H1071 C1065 0.959 . S
H1072 C1065 0.961 . S
H1073 C1065 0.960 . S
H1074 C1066 0.930 . S
H1075 C1067 0.929 . S
H1076 C1084 0.929 . S
H1077 C1086 0.930 . S
H1078 C1088 0.930 . S
H1079 C1091 0.929 . S
H1080 C1094 0.930 . S
H1081 C1096 0.960 . S
H1082 C1096 0.960 . S
H1083 C1096 0.960 . S
C1084 H1076 0.929 . S
C1084 C1085 1.377 . S
C1084 C1086 1.384 . S
C1085 C1084 1.377 . S
C1085 C1091 1.390 . S
C1086 H1077 0.930 . S
C1086 C1084 1.384 . S
C1086 C1087 1.372 . S
C1087 C1086 1.372 . S
C1087 C1088 1.400 . S
C1087 C1092 1.490 . S
C1088 H1078 0.930 . S
C1088 C1087 1.400 . S
C1088 C1091 1.386 . S
H1089 C1105 0.930 . S
H1090 C1106 0.931 . S
C1091 H1079 0.929 . S
C1091 C1085 1.390 . S
C1091 C1088 1.386 . S
C1092 C1087 1.490 . S
C1092 C1094 1.395 . S
C1092 C1095 1.403 . S
H1093 C1099 0.930 . S
C1094 H1080 0.930 . S
C1094 C1092 1.395 . S
C1094 C1097 1.403 . S
C1095 C1092 1.403 . S
C1095 C1096 1.524 . S
C1095 C1099 1.400 . S
C1096 H1081 0.960 . S
C1096 H1082 0.960 . S
C1096 H1083 0.960 . S
C1096 C1095 1.524 . S
C1097 C1094 1.403 . S
C1097 C1098 1.392 . S
C1097 C1101 1.495 . S
C1098 C1097 1.392 . S
C1098 C1099 1.385 . S
C1098 C1100 1.478 . S
C1099 H1093 0.930 . S
C1099 C1095 1.400 . S
C1099 C1098 1.385 . S
C1100 C1098 1.478 . S
C1100 C1102 1.381 . S
C1100 C1106 1.383 . S
C1101 C1097 1.495 . S
C1101 H1107 0.959 . S
C1101 H1108 0.961 . S
C1101 H1109 0.960 . S
C1102 C1100 1.381 . S
C1102 C1103 1.394 . S
C1102 H1110 0.930 . S
C1103 C1102 1.394 . S
C1103 C1104 1.383 . S
C1103 H1111 0.929 . S
C1104 C1103 1.383 . S
C1104 C1105 1.377 . S
C1105 H1089 0.930 . S
C1105 C1104 1.377 . S
C1105 C1106 1.379 . S
C1106 H1090 0.931 . S
C1106 C1100 1.383 . S
C1106 C1105 1.379 . S
H1107 C1101 0.959 . S
H1108 C1101 0.961 . S
H1109 C1101 0.960 . S
H1110 C1102 0.930 . S
H1111 C1103 0.929 . S
H1112 C1120 0.929 . S
H1113 C1122 0.930 . S
H1114 C1124 0.930 . S
H1115 C1127 0.929 . S
H1116 C1130 0.930 . S
H1117 C1132 0.960 . S
H1118 C1132 0.960 . S
H1119 C1132 0.960 . S
C1120 H1112 0.929 . S
C1120 C1121 1.377 . S
C1120 C1122 1.384 . S
C1121 C1120 1.377 . S
C1121 C1127 1.390 . S
C1122 H1113 0.930 . S
C1122 C1120 1.384 . S
C1122 C1123 1.372 . S
C1123 C1122 1.372 . S
C1123 C1124 1.400 . S
C1123 C1128 1.490 . S
C1124 H1114 0.930 . S
C1124 C1123 1.400 . S
C1124 C1127 1.386 . S
H1125 C1141 0.930 . S
H1126 C1142 0.931 . S
C1127 H1115 0.929 . S
C1127 C1121 1.390 . S
C1127 C1124 1.386 . S
C1128 C1123 1.490 . S
C1128 C1130 1.395 . S
C1128 C1131 1.403 . S
H1129 C1135 0.930 . S
C1130 H1116 0.930 . S
C1130 C1128 1.395 . S
C1130 C1133 1.403 . S
C1131 C1128 1.403 . S
C1131 C1132 1.524 . S
C1131 C1135 1.400 . S
C1132 H1117 0.960 . S
C1132 H1118 0.960 . S
C1132 H1119 0.960 . S
C1132 C1131 1.524 . S
C1133 C1130 1.403 . S
C1133 C1134 1.392 . S
C1133 C1137 1.495 . S
C1134 C1133 1.392 . S
C1134 C1135 1.385 . S
C1134 C1136 1.478 . S
C1135 H1129 0.930 . S
C1135 C1131 1.400 . S
C1135 C1134 1.385 . S
C1136 C1134 1.478 . S
C1136 C1138 1.381 . S
C1136 C1142 1.383 . S
C1137 C1133 1.495 . S
C1137 H1143 0.959 . S
C1137 H1144 0.961 . S
C1137 H1145 0.960 . S
C1138 C1136 1.381 . S
C1138 C1139 1.394 . S
C1138 H1146 0.930 . S
C1139 C1138 1.394 . S
C1139 C1140 1.383 . S
C1139 H1147 0.929 . S
C1140 C1139 1.383 . S
C1140 C1141 1.377 . S
C1141 H1125 0.930 . S
C1141 C1140 1.377 . S
C1141 C1142 1.379 . S
C1142 H1126 0.931 . S
C1142 C1136 1.383 . S
C1142 C1141 1.379 . S
H1143 C1137 0.959 . S
H1144 C1137 0.961 . S
H1145 C1137 0.960 . S
H1146 C1138 0.930 . S
H1147 C1139 0.929 . S
H1148 C1156 0.929 . S
H1149 C1158 0.930 . S
H1150 C1160 0.930 . S
H1151 C1163 0.929 . S
H1152 C1166 0.930 . S
H1153 C1168 0.960 . S
H1154 C1168 0.960 . S
H1155 C1168 0.960 . S
C1156 H1148 0.929 . S
C1156 C1157 1.377 . S
C1156 C1158 1.384 . S
C1157 C1156 1.377 . S
C1157 C1163 1.390 . S
C1158 H1149 0.930 . S
C1158 C1156 1.384 . S
C1158 C1159 1.372 . S
C1159 C1158 1.372 . S
C1159 C1160 1.400 . S
C1159 C1164 1.490 . S
C1160 H1150 0.930 . S
C1160 C1159 1.400 . S
C1160 C1163 1.386 . S
H1161 C1177 0.930 . S
H1162 C1178 0.931 . S
C1163 H1151 0.929 . S
C1163 C1157 1.390 . S
C1163 C1160 1.386 . S
C1164 C1159 1.490 . S
C1164 C1166 1.395 . S
C1164 C1167 1.403 . S
H1165 C1171 0.930 . S
C1166 H1152 0.930 . S
C1166 C1164 1.395 . S
C1166 C1169 1.403 . S
C1167 C1164 1.403 . S
C1167 C1168 1.524 . S
C1167 C1171 1.400 . S
C1168 H1153 0.960 . S
C1168 H1154 0.960 . S
C1168 H1155 0.960 . S
C1168 C1167 1.524 . S
C1169 C1166 1.403 . S
C1169 C1170 1.392 . S
C1169 C1173 1.495 . S
C1170 C1169 1.392 . S
C1170 C1171 1.385 . S
C1170 C1172 1.478 . S
C1171 H1165 0.930 . S
C1171 C1167 1.400 . S
C1171 C1170 1.385 . S
C1172 C1170 1.478 . S
C1172 C1174 1.381 . S
C1172 C1178 1.383 . S
C1173 C1169 1.495 . S
C1173 H1179 0.959 . S
C1173 H1180 0.961 . S
C1173 H1181 0.960 . S
C1174 C1172 1.381 . S
C1174 C1175 1.394 . S
C1174 H1182 0.930 . S
C1175 C1174 1.394 . S
C1175 C1176 1.383 . S
C1175 H1183 0.929 . S
C1176 C1175 1.383 . S
C1176 C1177 1.377 . S
C1177 H1161 0.930 . S
C1177 C1176 1.377 . S
C1177 C1178 1.379 . S
C1178 H1162 0.931 . S
C1178 C1172 1.383 . S
C1178 C1177 1.379 . S
H1179 C1173 0.959 . S
H1180 C1173 0.961 . S
H1181 C1173 0.960 . S
H1182 C1174 0.930 . S
H1183 C1175 0.929 . S
H1184 C1192 0.929 . S
H1185 C1194 0.930 . S
H1186 C1196 0.930 . S
H1187 C1199 0.929 . S
H1188 C1202 0.930 . S
H1189 C1204 0.960 1_554 S
H1190 C1204 0.960 . S
H1191 C1204 0.960 . S
C1192 H1184 0.929 . S
C1192 C1193 1.377 . S
C1192 C1194 1.384 . S
C1193 C1192 1.377 . S
C1193 C1199 1.390 . S
C1194 H1185 0.930 . S
C1194 C1192 1.384 . S
C1194 C1195 1.372 . S
C1195 C1194 1.372 . S
C1195 C1196 1.400 . S
C1195 C1200 1.490 . S
C1196 H1186 0.930 . S
C1196 C1195 1.400 . S
C1196 C1199 1.386 . S
H1197 C1213 0.930 1_554 S
H1198 C1214 0.931 . S
C1199 H1187 0.929 . S
C1199 C1193 1.390 . S
C1199 C1196 1.386 . S
C1200 C1195 1.490 . S
C1200 C1202 1.395 . S
C1200 C1203 1.403 . S
H1201 C1207 0.930 . S
C1202 H1188 0.930 . S
C1202 C1200 1.395 . S
C1202 C1205 1.403 . S
C1203 C1200 1.403 . S
C1203 C1204 1.524 . S
C1203 C1207 1.400 . S
C1204 H1189 0.960 1_556 S
C1204 H1190 0.960 . S
C1204 H1191 0.960 . S
C1204 C1203 1.524 . S
C1205 C1202 1.403 . S
C1205 C1206 1.392 . S
C1205 C1209 1.495 . S
C1206 C1205 1.392 . S
C1206 C1207 1.385 . S
C1206 C1208 1.478 . S
C1207 H1201 0.930 . S
C1207 C1203 1.400 . S
C1207 C1206 1.385 . S
C1208 C1206 1.478 . S
C1208 C1210 1.381 . S
C1208 C1214 1.383 . S
C1209 C1205 1.495 . S
C1209 H1215 0.959 . S
C1209 H1216 0.961 . S
C1209 H1217 0.960 . S
C1210 C1208 1.381 . S
C1210 C1211 1.394 . S
C1210 H1218 0.930 . S
C1211 C1210 1.394 . S
C1211 C1212 1.383 . S
C1211 H1219 0.929 . S
C1212 C1211 1.383 . S
C1212 C1213 1.377 . S
C1213 H1197 0.930 1_556 S
C1213 C1212 1.377 . S
C1213 C1214 1.379 . S
C1214 H1198 0.931 . S
C1214 C1208 1.383 . S
C1214 C1213 1.379 . S
H1215 C1209 0.959 . S
H1216 C1209 0.961 . S
H1217 C1209 0.960 . S
H1218 C1210 0.930 . S
H1219 C1211 0.929 . S
H1220 C1228 0.929 . S
H1221 C1230 0.930 . S
H1222 C1232 0.930 1_556 S
H1223 C1235 0.929 . S
H1224 C1238 0.930 . S
H1225 C1240 0.960 . S
H1226 C1240 0.960 . S
H1227 C1240 0.960 . S
C1228 H1220 0.929 . S
C1228 C1229 1.377 . S
C1228 C1230 1.384 . S
C1229 C1228 1.377 . S
C1229 C1235 1.390 1_554 S
C1230 H1221 0.930 . S
C1230 C1228 1.384 . S
C1230 C1231 1.372 . S
C1231 C1230 1.372 . S
C1231 C1232 1.400 . S
C1231 C1236 1.490 . S
C1232 H1222 0.930 1_554 S
C1232 C1231 1.400 . S
C1232 C1235 1.386 1_554 S
H1233 C1249 0.930 . S
H1234 C1250 0.931 . S
C1235 H1223 0.929 . S
C1235 C1229 1.390 1_556 S
C1235 C1232 1.386 1_556 S
C1236 C1231 1.490 . S
C1236 C1238 1.395 . S
C1236 C1239 1.403 . S
H1237 C1243 0.930 . S
C1238 H1224 0.930 . S
C1238 C1236 1.395 . S
C1238 C1241 1.403 . S
C1239 C1236 1.403 . S
C1239 C1240 1.524 1_554 S
C1239 C1243 1.400 . S
C1240 H1225 0.960 . S
C1240 H1226 0.960 . S
C1240 H1227 0.960 . S
C1240 C1239 1.524 1_556 S
C1241 C1238 1.403 . S
C1241 C1242 1.392 . S
C1241 C1245 1.495 . S
C1242 C1241 1.392 . S
C1242 C1243 1.385 . S
C1242 C1244 1.478 . S
C1243 H1237 0.930 . S
C1243 C1239 1.400 . S
C1243 C1242 1.385 . S
C1244 C1242 1.478 . S
C1244 C1246 1.381 . S
C1244 C1250 1.383 . S
C1245 C1241 1.495 . S
C1245 H1251 0.959 . S
C1245 H1252 0.961 . S
C1245 H1253 0.960 . S
C1246 C1244 1.381 . S
C1246 C1247 1.394 . S
C1246 H1254 0.930 . S
C1247 C1246 1.394 . S
C1247 C1248 1.383 . S
C1247 H1255 0.929 . S
C1248 C1247 1.383 . S
C1248 C1249 1.377 . S
C1249 H1233 0.930 . S
C1249 C1248 1.377 . S
C1249 C1250 1.379 . S
C1250 H1234 0.931 . S
C1250 C1244 1.383 . S
C1250 C1249 1.379 . S
H1251 C1245 0.959 . S
H1252 C1245 0.961 . S
H1253 C1245 0.960 . S
H1254 C1246 0.930 . S
H1255 C1247 0.929 . S
H1256 C1264 0.929 . S
H1257 C1266 0.930 . S
H1258 C1268 0.930 1_554 S
H1259 C1271 0.929 . S
H1260 C1274 0.930 . S
H1261 C1276 0.960 . S
H1262 C1276 0.960 . S
H1263 C1276 0.960 . S
C1264 H1256 0.929 . S
C1264 C1265 1.377 . S
C1264 C1266 1.384 . S
C1265 C1264 1.377 . S
C1265 C1271 1.390 1_556 S
C1266 H1257 0.930 . S
C1266 C1264 1.384 . S
C1266 C1267 1.372 . S
C1267 C1266 1.372 . S
C1267 C1268 1.400 . S
C1267 C1272 1.490 . S
C1268 H1258 0.930 1_556 S
C1268 C1267 1.400 . S
C1268 C1271 1.386 1_556 S
H1269 C1285 0.930 . S
H1270 C1286 0.931 . S
C1271 H1259 0.929 . S
C1271 C1265 1.390 1_554 S
C1271 C1268 1.386 1_554 S
C1272 C1267 1.490 . S
C1272 C1274 1.395 . S
C1272 C1275 1.403 . S
H1273 C1279 0.930 . S
C1274 H1260 0.930 . S
C1274 C1272 1.395 . S
C1274 C1277 1.403 . S
C1275 C1272 1.403 . S
C1275 C1276 1.524 1_556 S
C1275 C1279 1.400 . S
C1276 H1261 0.960 . S
C1276 H1262 0.960 . S
C1276 H1263 0.960 . S
C1276 C1275 1.524 1_554 S
C1277 C1274 1.403 . S
C1277 C1278 1.392 . S
C1277 C1281 1.495 . S
C1278 C1277 1.392 . S
C1278 C1279 1.385 . S
C1278 C1280 1.478 . S
C1279 H1273 0.930 . S
C1279 C1275 1.400 . S
C1279 C1278 1.385 . S
C1280 C1278 1.478 . S
C1280 C1282 1.381 . S
C1280 C1286 1.383 . S
C1281 C1277 1.495 . S
C1281 H1287 0.959 . S
C1281 H1288 0.961 . S
C1281 H1289 0.960 . S
C1282 C1280 1.381 . S
C1282 C1283 1.394 . S
C1282 H1290 0.930 . S
C1283 C1282 1.394 . S
C1283 C1284 1.383 . S
C1283 H1291 0.929 . S
C1284 C1283 1.383 . S
C1284 C1285 1.377 . S
C1285 H1269 0.930 . S
C1285 C1284 1.377 . S
C1285 C1286 1.379 . S
C1286 H1270 0.931 . S
C1286 C1280 1.383 . S
C1286 C1285 1.379 . S
H1287 C1281 0.959 . S
H1288 C1281 0.961 . S
H1289 C1281 0.960 . S
H1290 C1282 0.930 . S
H1291 C1283 0.929 . S
H1292 C1300 0.929 . S
H1293 C1302 0.930 . S
H1294 C1304 0.930 . S
H1295 C1307 0.929 . S
H1296 C1310 0.930 . S
H1297 C1312 0.960 . S
H1298 C1312 0.960 . S
H1299 C1312 0.960 . S
C1300 H1292 0.929 . S
C1300 C1301 1.373 1_556 S
C1300 C1302 1.384 . S
C1301 C1300 1.373 1_554 S
C1301 C1307 1.399 . S
C1302 H1293 0.930 . S
C1302 C1300 1.384 . S
C1302 C1303 1.372 1_556 S
C1303 C1302 1.372 1_554 S
C1303 C1304 1.400 . S
C1303 C1308 1.490 . S
C1304 H1294 0.930 . S
C1304 C1303 1.400 . S
C1304 C1307 1.386 . S
H1305 C1321 0.930 . S
H1306 C1322 0.931 . S
C1307 H1295 0.929 . S
C1307 C1301 1.399 . S
C1307 C1304 1.386 . S
C1308 C1303 1.490 . S
C1308 C1310 1.395 . S
C1308 C1311 1.403 . S
H1309 C1315 0.930 . S
C1310 H1296 0.930 . S
C1310 C1308 1.395 . S
C1310 C1313 1.403 . S
C1311 C1308 1.403 . S
C1311 C1312 1.524 . S
C1311 C1315 1.400 . S
C1312 H1297 0.960 . S
C1312 H1298 0.960 . S
C1312 H1299 0.960 . S
C1312 C1311 1.524 . S
C1313 C1310 1.403 . S
C1313 C1314 1.392 . S
C1313 C1317 1.495 . S
C1314 C1313 1.392 . S
C1314 C1315 1.385 . S
C1314 C1316 1.478 . S
C1315 H1309 0.930 . S
C1315 C1311 1.400 . S
C1315 C1314 1.385 . S
C1316 C1314 1.478 . S
C1316 C1318 1.381 . S
C1316 C1322 1.383 . S
C1317 C1313 1.495 . S
C1317 H1323 0.959 . S
C1317 H1324 0.961 . S
C1317 H1325 0.960 . S
C1318 C1316 1.381 . S
C1318 C1319 1.394 . S
C1318 H1326 0.930 . S
C1319 C1318 1.394 . S
C1319 C1320 1.383 . S
C1319 H1327 0.929 . S
C1320 C1319 1.383 . S
C1320 C1321 1.377 . S
C1321 H1305 0.930 . S
C1321 C1320 1.377 . S
C1321 C1322 1.379 . S
C1322 H1306 0.931 . S
C1322 C1316 1.383 . S
C1322 C1321 1.379 . S
H1323 C1317 0.959 . S
H1324 C1317 0.961 . S
H1325 C1317 0.960 . S
H1326 C1318 0.930 . S
H1327 C1319 0.929 . S
H1328 C1336 0.929 . S
H1329 C1338 0.930 . S
H1330 C1340 0.930 . S
H1331 C1343 0.929 . S
H1332 C1346 0.930 . S
H1333 C1348 0.960 . S
H1334 C1348 0.960 . S
H1335 C1348 0.960 . S
C1336 H1328 0.929 . S
C1336 C1337 1.377 . S
C1336 C1338 1.384 . S
C1337 C1336 1.377 . S
C1337 C1343 1.390 . S
C1338 H1329 0.930 . S
C1338 C1336 1.384 . S
C1338 C1339 1.372 . S
C1339 C1338 1.372 . S
C1339 C1340 1.400 . S
C1339 C1344 1.490 . S
C1340 H1330 0.930 . S
C1340 C1339 1.400 . S
C1340 C1343 1.386 . S
H1341 C1357 0.930 . S
H1342 C1358 0.931 . S
C1343 H1331 0.929 . S
C1343 C1337 1.390 . S
C1343 C1340 1.386 . S
C1344 C1339 1.490 . S
C1344 C1346 1.395 . S
C1344 C1347 1.403 . S
H1345 C1351 0.930 . S
C1346 H1332 0.930 . S
C1346 C1344 1.395 . S
C1346 C1349 1.403 . S
C1347 C1344 1.403 . S
C1347 C1348 1.524 . S
C1347 C1351 1.400 . S
C1348 H1333 0.960 . S
C1348 H1334 0.960 . S
C1348 H1335 0.960 . S
C1348 C1347 1.524 . S
C1349 C1346 1.403 . S
C1349 C1350 1.392 . S
C1349 C1353 1.495 . S
C1350 C1349 1.392 . S
C1350 C1351 1.385 . S
C1350 C1352 1.478 . S
C1351 H1345 0.930 . S
C1351 C1347 1.400 . S
C1351 C1350 1.385 . S
C1352 C1350 1.478 . S
C1352 C1354 1.381 . S
C1352 C1358 1.383 . S
C1353 C1349 1.495 . S
C1353 H1359 0.959 . S
C1353 H1360 0.961 . S
C1353 H1361 0.960 . S
C1354 C1352 1.381 . S
C1354 C1355 1.394 . S
C1354 H1362 0.930 . S
C1355 C1354 1.394 . S
C1355 C1356 1.383 . S
C1355 H1363 0.929 . S
C1356 C1355 1.383 . S
C1356 C1357 1.377 . S
C1357 H1341 0.930 . S
C1357 C1356 1.377 . S
C1357 C1358 1.379 . S
C1358 H1342 0.931 . S
C1358 C1352 1.383 . S
C1358 C1357 1.379 . S
H1359 C1353 0.959 . S
H1360 C1353 0.961 . S
H1361 C1353 0.960 . S
H1362 C1354 0.930 . S
H1363 C1355 0.929 . S
H1364 C1372 0.929 . S
H1365 C1374 0.930 . S
H1366 C1376 0.930 . S
H1367 C1379 0.929 . S
H1368 C1382 0.930 . S
H1369 C1384 0.960 . S
H1370 C1384 0.960 . S
H1371 C1384 0.960 . S
C1372 H1364 0.929 . S
C1372 C1373 1.377 . S
C1372 C1374 1.384 . S
C1373 C1372 1.377 . S
C1373 C1379 1.390 . S
C1374 H1365 0.930 . S
C1374 C1372 1.384 . S
C1374 C1375 1.372 . S
C1375 C1374 1.372 . S
C1375 C1376 1.400 . S
C1375 C1380 1.490 . S
C1376 H1366 0.930 . S
C1376 C1375 1.400 . S
C1376 C1379 1.386 . S
H1377 C1393 0.930 . S
H1378 C1394 0.931 . S
C1379 H1367 0.929 . S
C1379 C1373 1.390 . S
C1379 C1376 1.386 . S
C1380 C1375 1.490 . S
C1380 C1382 1.395 . S
C1380 C1383 1.403 . S
H1381 C1387 0.930 . S
C1382 H1368 0.930 . S
C1382 C1380 1.395 . S
C1382 C1385 1.403 . S
C1383 C1380 1.403 . S
C1383 C1384 1.524 . S
C1383 C1387 1.400 . S
C1384 H1369 0.960 . S
C1384 H1370 0.960 . S
C1384 H1371 0.960 . S
C1384 C1383 1.524 . S
C1385 C1382 1.403 . S
C1385 C1386 1.392 . S
C1385 C1389 1.495 . S
C1386 C1385 1.392 . S
C1386 C1387 1.385 . S
C1386 C1388 1.478 . S
C1387 H1381 0.930 . S
C1387 C1383 1.400 . S
C1387 C1386 1.385 . S
C1388 C1386 1.478 . S
C1388 C1390 1.381 . S
C1388 C1394 1.383 . S
C1389 C1385 1.495 . S
C1389 H1395 0.959 . S
C1389 H1396 0.961 . S
C1389 H1397 0.960 . S
C1390 C1388 1.381 . S
C1390 C1391 1.394 . S
C1390 H1398 0.930 . S
C1391 C1390 1.394 . S
C1391 C1392 1.383 . S
C1391 H1399 0.929 . S
C1392 C1391 1.383 . S
C1392 C1393 1.377 . S
C1393 H1377 0.930 . S
C1393 C1392 1.377 . S
C1393 C1394 1.379 . S
C1394 H1378 0.931 . S
C1394 C1388 1.383 . S
C1394 C1393 1.379 . S
H1395 C1389 0.959 . S
H1396 C1389 0.961 . S
H1397 C1389 0.960 . S
H1398 C1390 0.930 . S
H1399 C1391 0.929 . S
H1400 C1408 0.929 . S
H1401 C1410 0.930 . S
H1402 C1412 0.930 . S
H1403 C1415 0.929 . S
H1404 C1418 0.930 . S
H1405 C1420 0.960 . S
H1406 C1420 0.960 . S
H1407 C1420 0.960 . S
C1408 H1400 0.929 . S
C1408 C1409 1.377 . S
C1408 C1410 1.384 . S
C1409 C1408 1.377 . S
C1409 C1415 1.390 . S
C1410 H1401 0.930 . S
C1410 C1408 1.384 . S
C1410 C1411 1.372 . S
C1411 C1410 1.372 . S
C1411 C1412 1.400 . S
C1411 C1416 1.490 . S
C1412 H1402 0.930 . S
C1412 C1411 1.400 . S
C1412 C1415 1.386 . S
H1413 C1429 0.930 . S
H1414 C1430 0.931 . S
C1415 H1403 0.929 . S
C1415 C1409 1.390 . S
C1415 C1412 1.386 . S
C1416 C1411 1.490 . S
C1416 C1418 1.395 . S
C1416 C1419 1.403 . S
H1417 C1423 0.930 . S
C1418 H1404 0.930 . S
C1418 C1416 1.395 . S
C1418 C1421 1.403 . S
C1419 C1416 1.403 . S
C1419 C1420 1.524 . S
C1419 C1423 1.400 . S
C1420 H1405 0.960 . S
C1420 H1406 0.960 . S
C1420 H1407 0.960 . S
C1420 C1419 1.524 . S
C1421 C1418 1.403 . S
C1421 C1422 1.392 . S
C1421 C1425 1.495 . S
C1422 C1421 1.392 . S
C1422 C1423 1.385 . S
C1422 C1424 1.478 . S
C1423 H1417 0.930 . S
C1423 C1419 1.400 . S
C1423 C1422 1.385 . S
C1424 C1422 1.478 . S
C1424 C1426 1.381 . S
C1424 C1430 1.383 . S
C1425 C1421 1.495 . S
C1425 H1431 0.959 . S
C1425 H1432 0.961 . S
C1425 H1433 0.960 . S
C1426 C1424 1.381 . S
C1426 C1427 1.394 . S
C1426 H1434 0.930 . S
C1427 C1426 1.394 . S
C1427 C1428 1.383 . S
C1427 H1435 0.929 . S
C1428 C1427 1.383 . S
C1428 C1429 1.377 . S
C1429 H1413 0.930 . S
C1429 C1428 1.377 . S
C1429 C1430 1.379 . S
C1430 H1414 0.931 . S
C1430 C1424 1.383 . S
C1430 C1429 1.379 . S
H1431 C1425 0.959 . S
H1432 C1425 0.961 . S
H1433 C1425 0.960 . S
H1434 C1426 0.930 . S
H1435 C1427 0.929 . S
H1436 C1444 0.929 . S
H1437 C1446 0.930 . S
H1438 C1448 0.930 . S
H1439 C1451 0.929 . S
H1440 C1454 0.930 . S
H1441 C1456 0.960 . S
H1442 C1456 0.960 . S
H1443 C1456 0.960 . S
C1444 H1436 0.929 . S
C1444 C1445 1.377 . S
C1444 C1446 1.384 . S
C1445 C1444 1.377 . S
C1445 C1451 1.390 . S
C1446 H1437 0.930 . S
C1446 C1444 1.384 . S
C1446 C1447 1.372 . S
C1447 C1446 1.372 . S
C1447 C1448 1.400 . S
C1447 C1452 1.490 . S
C1448 H1438 0.930 . S
C1448 C1447 1.400 . S
C1448 C1451 1.386 . S
H1449 C1465 0.930 . S
H1450 C1466 0.931 . S
C1451 H1439 0.929 . S
C1451 C1445 1.390 . S
C1451 C1448 1.386 . S
C1452 C1447 1.490 . S
C1452 C1454 1.395 . S
C1452 C1455 1.403 . S
H1453 C1459 0.930 . S
C1454 H1440 0.930 . S
C1454 C1452 1.395 . S
C1454 C1457 1.403 . S
C1455 C1452 1.403 . S
C1455 C1456 1.524 . S
C1455 C1459 1.400 . S
C1456 H1441 0.960 . S
C1456 H1442 0.960 . S
C1456 H1443 0.960 . S
C1456 C1455 1.524 . S
C1457 C1454 1.403 . S
C1457 C1458 1.392 . S
C1457 C1461 1.495 . S
C1458 C1457 1.392 . S
C1458 C1459 1.385 . S
C1458 C1460 1.478 . S
C1459 H1453 0.930 . S
C1459 C1455 1.400 . S
C1459 C1458 1.385 . S
C1460 C1458 1.478 . S
C1460 C1462 1.381 . S
C1460 C1466 1.383 . S
C1461 C1457 1.495 . S
C1461 H1467 0.959 . S
C1461 H1468 0.961 . S
C1461 H1469 0.960 . S
C1462 C1460 1.381 . S
C1462 C1463 1.394 . S
C1462 H1470 0.930 . S
C1463 C1462 1.394 . S
C1463 C1464 1.383 . S
C1463 H1471 0.929 . S
C1464 C1463 1.383 . S
C1464 C1465 1.377 . S
C1465 H1449 0.930 . S
C1465 C1464 1.377 . S
C1465 C1466 1.379 . S
C1466 H1450 0.931 . S
C1466 C1460 1.383 . S
C1466 C1465 1.379 . S
H1467 C1461 0.959 . S
H1468 C1461 0.961 . S
H1469 C1461 0.960 . S
H1470 C1462 0.930 . S
H1471 C1463 0.929 . S
H1472 C1480 0.929 . S
H1473 C1482 0.930 . S
H1474 C1484 0.930 . S
H1475 C1487 0.929 . S
H1476 C1490 0.930 . S
H1477 C1492 0.960 . S
H1478 C1492 0.960 . S
H1479 C1492 0.960 . S
C1480 H1472 0.929 . S
C1480 C1481 1.377 . S
C1480 C1482 1.384 . S
C1481 C1480 1.377 . S
C1481 C1487 1.390 . S
C1482 H1473 0.930 . S
C1482 C1480 1.384 . S
C1482 C1483 1.372 . S
C1483 C1482 1.372 . S
C1483 C1484 1.400 . S
C1483 C1488 1.490 . S
C1484 H1474 0.930 . S
C1484 C1483 1.400 . S
C1484 C1487 1.386 . S
H1485 C1501 0.930 . S
H1486 C1502 0.931 . S
C1487 H1475 0.929 . S
C1487 C1481 1.390 . S
C1487 C1484 1.386 . S
C1488 C1483 1.490 . S
C1488 C1490 1.395 . S
C1488 C1491 1.403 . S
H1489 C1495 0.930 . S
C1490 H1476 0.930 . S
C1490 C1488 1.395 . S
C1490 C1493 1.403 . S
C1491 C1488 1.403 . S
C1491 C1492 1.524 . S
C1491 C1495 1.400 . S
C1492 H1477 0.960 . S
C1492 H1478 0.960 . S
C1492 H1479 0.960 . S
C1492 C1491 1.524 . S
C1493 C1490 1.403 . S
C1493 C1494 1.392 . S
C1493 C1497 1.495 . S
C1494 C1493 1.392 . S
C1494 C1495 1.385 . S
C1494 C1496 1.478 . S
C1495 H1489 0.930 . S
C1495 C1491 1.400 . S
C1495 C1494 1.385 . S
C1496 C1494 1.478 . S
C1496 C1498 1.381 . S
C1496 C1502 1.383 . S
C1497 C1493 1.495 . S
C1497 H1503 0.959 . S
C1497 H1504 0.961 . S
C1497 H1505 0.960 . S
C1498 C1496 1.381 . S
C1498 C1499 1.394 . S
C1498 H1506 0.930 . S
C1499 C1498 1.394 . S
C1499 C1500 1.383 . S
C1499 H1507 0.929 . S
C1500 C1499 1.383 . S
C1500 C1501 1.377 . S
C1501 H1485 0.930 . S
C1501 C1500 1.377 . S
C1501 C1502 1.379 . S
C1502 H1486 0.931 . S
C1502 C1496 1.383 . S
C1502 C1501 1.379 . S
H1503 C1497 0.959 . S
H1504 C1497 0.961 . S
H1505 C1497 0.960 . S
H1506 C1498 0.930 . S
H1507 C1499 0.929 . S
H1508 C1516 0.929 . S
H1509 C1518 0.930 . S
H1510 C1520 0.930 . S
H1511 C1523 0.929 . S
H1512 C1526 0.930 . S
H1513 C1528 0.960 . S
H1514 C1528 0.960 . S
H1515 C1528 0.960 . S
C1516 H1508 0.929 . S
C1516 C1517 1.377 . S
C1516 C1518 1.384 . S
C1517 C1516 1.377 . S
C1517 C1523 1.390 . S
C1518 H1509 0.930 . S
C1518 C1516 1.384 . S
C1518 C1519 1.372 . S
C1519 C1518 1.372 . S
C1519 C1520 1.400 . S
C1519 C1524 1.490 . S
C1520 H1510 0.930 . S
C1520 C1519 1.400 . S
C1520 C1523 1.386 . S
H1521 C1537 0.930 . S
H1522 C1538 0.931 . S
C1523 H1511 0.929 . S
C1523 C1517 1.390 . S
C1523 C1520 1.386 . S
C1524 C1519 1.490 . S
C1524 C1526 1.395 . S
C1524 C1527 1.403 . S
H1525 C1531 0.930 . S
C1526 H1512 0.930 . S
C1526 C1524 1.395 . S
C1526 C1529 1.403 . S
C1527 C1524 1.403 . S
C1527 C1528 1.524 . S
C1527 C1531 1.400 . S
C1528 H1513 0.960 . S
C1528 H1514 0.960 . S
C1528 H1515 0.960 . S
C1528 C1527 1.524 . S
C1529 C1526 1.403 . S
C1529 C1530 1.392 . S
C1529 C1533 1.495 . S
C1530 C1529 1.392 . S
C1530 C1531 1.385 . S
C1530 C1532 1.478 . S
C1531 H1525 0.930 . S
C1531 C1527 1.400 . S
C1531 C1530 1.385 . S
C1532 C1530 1.478 . S
C1532 C1534 1.381 . S
C1532 C1538 1.383 . S
C1533 C1529 1.495 . S
C1533 H1539 0.959 . S
C1533 H1540 0.961 . S
C1533 H1541 0.960 . S
C1534 C1532 1.381 . S
C1534 C1535 1.394 . S
C1534 H1542 0.930 . S
C1535 C1534 1.394 . S
C1535 C1536 1.383 . S
C1535 H1543 0.929 . S
C1536 C1535 1.383 . S
C1536 C1537 1.377 . S
C1537 H1521 0.930 . S
C1537 C1536 1.377 . S
C1537 C1538 1.379 . S
C1538 H1522 0.931 . S
C1538 C1532 1.383 . S
C1538 C1537 1.379 . S
H1539 C1533 0.959 . S
H1540 C1533 0.961 . S
H1541 C1533 0.960 . S
H1542 C1534 0.930 . S
H1543 C1535 0.929 . S
H1544 C1552 0.929 . S
H1545 C1554 0.930 . S
H1546 C1556 0.930 . S
H1547 C1559 0.929 . S
H1548 C1562 0.930 . S
H1549 C1564 0.960 . S
H1550 C1564 0.960 . S
H1551 C1564 0.960 . S
C1552 H1544 0.929 . S
C1552 C1553 1.377 . S
C1552 C1554 1.384 . S
C1553 C1552 1.377 . S
C1553 C1559 1.390 . S
C1554 H1545 0.930 . S
C1554 C1552 1.384 . S
C1554 C1555 1.372 . S
C1555 C1554 1.372 . S
C1555 C1556 1.400 . S
C1555 C1560 1.490 . S
C1556 H1546 0.930 . S
C1556 C1555 1.400 . S
C1556 C1559 1.386 . S
H1557 C1573 0.930 . S
H1558 C1574 0.931 . S
C1559 H1547 0.929 . S
C1559 C1553 1.390 . S
C1559 C1556 1.386 . S
C1560 C1555 1.490 . S
C1560 C1562 1.395 . S
C1560 C1563 1.403 . S
H1561 C1567 0.930 . S
C1562 H1548 0.930 . S
C1562 C1560 1.395 . S
C1562 C1565 1.403 . S
C1563 C1560 1.403 . S
C1563 C1564 1.524 . S
C1563 C1567 1.400 . S
C1564 H1549 0.960 . S
C1564 H1550 0.960 . S
C1564 H1551 0.960 . S
C1564 C1563 1.524 . S
C1565 C1562 1.403 . S
C1565 C1566 1.392 . S
C1565 C1569 1.495 . S
C1566 C1565 1.392 . S
C1566 C1567 1.385 . S
C1566 C1568 1.478 . S
C1567 H1561 0.930 . S
C1567 C1563 1.400 . S
C1567 C1566 1.385 . S
C1568 C1566 1.478 . S
C1568 C1570 1.381 . S
C1568 C1574 1.383 . S
C1569 C1565 1.495 . S
C1569 H1575 0.959 . S
C1569 H1576 0.961 . S
C1569 H1577 0.960 . S
C1570 C1568 1.381 . S
C1570 C1571 1.394 . S
C1570 H1578 0.930 . S
C1571 C1570 1.394 . S
C1571 C1572 1.383 . S
C1571 H1579 0.929 . S
C1572 C1571 1.383 . S
C1572 C1573 1.377 . S
C1573 H1557 0.930 . S
C1573 C1572 1.377 . S
C1573 C1574 1.379 . S
C1574 H1558 0.931 . S
C1574 C1568 1.383 . S
C1574 C1573 1.379 . S
H1575 C1569 0.959 . S
H1576 C1569 0.961 . S
H1577 C1569 0.960 . S
H1578 C1570 0.930 . S
H1579 C1571 0.929 . S
H1580 C1588 0.929 . S
H1581 C1590 0.930 . S
H1582 C1592 0.930 . S
H1583 C1595 0.929 . S
H1584 C1598 0.930 . S
H1585 C1600 0.960 . S
H1586 C1600 0.960 . S
H1587 C1600 0.960 . S
C1588 H1580 0.929 . S
C1588 C1589 1.377 . S
C1588 C1590 1.384 . S
C1589 C1588 1.377 . S
C1589 C1595 1.390 . S
C1590 H1581 0.930 . S
C1590 C1588 1.384 . S
C1590 C1591 1.372 . S
C1591 C1590 1.372 . S
C1591 C1592 1.400 . S
C1591 C1596 1.490 . S
C1592 H1582 0.930 . S
C1592 C1591 1.400 . S
C1592 C1595 1.386 . S
H1593 C1609 0.930 . S
H1594 C1610 0.931 . S
C1595 H1583 0.929 . S
C1595 C1589 1.390 . S
C1595 C1592 1.386 . S
C1596 C1591 1.490 . S
C1596 C1598 1.395 . S
C1596 C1599 1.403 . S
H1597 C1603 0.930 . S
C1598 H1584 0.930 . S
C1598 C1596 1.395 . S
C1598 C1601 1.403 . S
C1599 C1596 1.403 . S
C1599 C1600 1.524 . S
C1599 C1603 1.400 . S
C1600 H1585 0.960 . S
C1600 H1586 0.960 . S
C1600 H1587 0.960 . S
C1600 C1599 1.524 . S
C1601 C1598 1.403 . S
C1601 C1602 1.392 . S
C1601 C1605 1.495 . S
C1602 C1601 1.392 . S
C1602 C1603 1.385 . S
C1602 C1604 1.478 . S
C1603 H1597 0.930 . S
C1603 C1599 1.400 . S
C1603 C1602 1.385 . S
C1604 C1602 1.478 . S
C1604 C1606 1.381 . S
C1604 C1610 1.383 . S
C1605 C1601 1.495 . S
C1605 H1611 0.959 . S
C1605 H1612 0.961 . S
C1605 H1613 0.960 . S
C1606 C1604 1.381 . S
C1606 C1607 1.394 . S
C1606 H1614 0.930 . S
C1607 C1606 1.394 . S
C1607 C1608 1.383 . S
C1607 H1615 0.929 . S
C1608 C1607 1.383 . S
C1608 C1609 1.377 . S
C1609 H1593 0.930 . S
C1609 C1608 1.377 . S
C1609 C1610 1.379 . S
C1610 H1594 0.931 . S
C1610 C1604 1.383 . S
C1610 C1609 1.379 . S
H1611 C1605 0.959 . S
H1612 C1605 0.961 . S
H1613 C1605 0.960 . S
H1614 C1606 0.930 . S
H1615 C1607 0.929 . S
H1616 C1624 0.929 . S
H1617 C1626 0.930 . S
H1618 C1628 0.930 . S
H1619 C1631 0.929 . S
H1620 C1634 0.930 . S
H1621 C1636 0.960 . S
H1622 C1636 0.960 . S
H1623 C1636 0.960 . S
C1624 H1616 0.929 . S
C1624 C1625 1.377 . S
C1624 C1626 1.384 . S
C1625 C1624 1.377 . S
C1625 C1631 1.390 . S
C1626 H1617 0.930 . S
C1626 C1624 1.384 . S
C1626 C1627 1.372 . S
C1627 C1626 1.372 . S
C1627 C1628 1.400 . S
C1627 C1632 1.490 . S
C1628 H1618 0.930 . S
C1628 C1627 1.400 . S
C1628 C1631 1.386 . S
H1629 C1645 0.930 . S
H1630 C1646 0.931 . S
C1631 H1619 0.929 . S
C1631 C1625 1.390 . S
C1631 C1628 1.386 . S
C1632 C1627 1.490 . S
C1632 C1634 1.395 . S
C1632 C1635 1.403 . S
H1633 C1639 0.930 . S
C1634 H1620 0.930 . S
C1634 C1632 1.395 . S
C1634 C1637 1.403 . S
C1635 C1632 1.403 . S
C1635 C1636 1.524 . S
C1635 C1639 1.400 . S
C1636 H1621 0.960 . S
C1636 H1622 0.960 . S
C1636 H1623 0.960 . S
C1636 C1635 1.524 . S
C1637 C1634 1.403 . S
C1637 C1638 1.392 . S
C1637 C1641 1.495 . S
C1638 C1637 1.392 . S
C1638 C1639 1.385 . S
C1638 C1640 1.478 . S
C1639 H1633 0.930 . S
C1639 C1635 1.400 . S
C1639 C1638 1.385 . S
C1640 C1638 1.478 . S
C1640 C1642 1.381 . S
C1640 C1646 1.383 . S
C1641 C1637 1.495 . S
C1641 H1647 0.959 . S
C1641 H1648 0.961 . S
C1641 H1649 0.960 . S
C1642 C1640 1.381 . S
C1642 C1643 1.394 . S
C1642 H1650 0.930 . S
C1643 C1642 1.394 . S
C1643 C1644 1.383 . S
C1643 H1651 0.929 . S
C1644 C1643 1.383 . S
C1644 C1645 1.377 . S
C1645 H1629 0.930 . S
C1645 C1644 1.377 . S
C1645 C1646 1.379 . S
C1646 H1630 0.931 . S
C1646 C1640 1.383 . S
C1646 C1645 1.379 . S
H1647 C1641 0.959 . S
H1648 C1641 0.961 . S
H1649 C1641 0.960 . S
H1650 C1642 0.930 . S
H1651 C1643 0.929 . S
H1652 C1660 0.929 . S
H1653 C1662 0.930 . S
H1654 C1664 0.930 . S
H1655 C1667 0.929 . S
H1656 C1670 0.930 . S
H1657 C1672 0.960 . S
H1658 C1672 0.960 . S
H1659 C1672 0.960 . S
C1660 H1652 0.929 . S
C1660 C1661 1.377 . S
C1660 C1662 1.384 . S
C1661 C1660 1.377 . S
C1661 C1667 1.390 . S
C1662 H1653 0.930 . S
C1662 C1660 1.384 . S
C1662 C1663 1.372 . S
C1663 C1662 1.372 . S
C1663 C1664 1.400 . S
C1663 C1668 1.490 . S
C1664 H1654 0.930 . S
C1664 C1663 1.400 . S
C1664 C1667 1.386 . S
H1665 C1681 0.930 . S
H1666 C1682 0.931 . S
C1667 H1655 0.929 . S
C1667 C1661 1.390 . S
C1667 C1664 1.386 . S
C1668 C1663 1.490 . S
C1668 C1670 1.395 . S
C1668 C1671 1.403 . S
H1669 C1675 0.930 . S
C1670 H1656 0.930 . S
C1670 C1668 1.395 . S
C1670 C1673 1.403 . S
C1671 C1668 1.403 . S
C1671 C1672 1.524 . S
C1671 C1675 1.400 . S
C1672 H1657 0.960 . S
C1672 H1658 0.960 . S
C1672 H1659 0.960 . S
C1672 C1671 1.524 . S
C1673 C1670 1.403 . S
C1673 C1674 1.392 . S
C1673 C1677 1.495 . S
C1674 C1673 1.392 . S
C1674 C1675 1.385 . S
C1674 C1676 1.478 . S
C1675 H1669 0.930 . S
C1675 C1671 1.400 . S
C1675 C1674 1.385 . S
C1676 C1674 1.478 . S
C1676 C1678 1.381 . S
C1676 C1682 1.383 . S
C1677 C1673 1.495 . S
C1677 H1683 0.959 . S
C1677 H1684 0.961 . S
C1677 H1685 0.960 . S
C1678 C1676 1.381 . S
C1678 C1679 1.394 . S
C1678 H1686 0.930 . S
C1679 C1678 1.394 . S
C1679 C1680 1.383 . S
C1679 H1687 0.929 . S
C1680 C1679 1.383 . S
C1680 C1681 1.377 . S
C1681 H1665 0.930 . S
C1681 C1680 1.377 . S
C1681 C1682 1.379 . S
C1682 H1666 0.931 . S
C1682 C1676 1.383 . S
C1682 C1681 1.379 . S
H1683 C1677 0.959 . S
H1684 C1677 0.961 . S
H1685 C1677 0.960 . S
H1686 C1678 0.930 . S
H1687 C1679 0.929 . S
H1688 C1696 0.929 . S
H1689 C1698 0.930 . S
H1690 C1700 0.930 . S
H1691 C1703 0.929 . S
H1692 C1706 0.930 . S
H1693 C1708 0.960 . S
H1694 C1708 0.960 . S
H1695 C1708 0.960 . S
C1696 H1688 0.929 . S
C1696 C1697 1.377 . S
C1696 C1698 1.384 . S
C1697 C1696 1.377 . S
C1697 C1703 1.390 . S
C1698 H1689 0.930 . S
C1698 C1696 1.384 . S
C1698 C1699 1.372 . S
C1699 C1698 1.372 . S
C1699 C1700 1.400 . S
C1699 C1704 1.490 . S
C1700 H1690 0.930 . S
C1700 C1699 1.400 . S
C1700 C1703 1.386 . S
H1701 C1717 0.930 . S
H1702 C1718 0.931 . S
C1703 H1691 0.929 . S
C1703 C1697 1.390 . S
C1703 C1700 1.386 . S
C1704 C1699 1.490 . S
C1704 C1706 1.395 . S
C1704 C1707 1.403 . S
H1705 C1711 0.930 . S
C1706 H1692 0.930 . S
C1706 C1704 1.395 . S
C1706 C1709 1.403 . S
C1707 C1704 1.403 . S
C1707 C1708 1.524 . S
C1707 C1711 1.400 . S
C1708 H1693 0.960 . S
C1708 H1694 0.960 . S
C1708 H1695 0.960 . S
C1708 C1707 1.524 . S
C1709 C1706 1.403 . S
C1709 C1710 1.392 . S
C1709 C1713 1.495 . S
C1710 C1709 1.392 . S
C1710 C1711 1.385 . S
C1710 C1712 1.478 . S
C1711 H1705 0.930 . S
C1711 C1707 1.400 . S
C1711 C1710 1.385 . S
C1712 C1710 1.478 . S
C1712 C1714 1.381 . S
C1712 C1718 1.383 . S
C1713 C1709 1.495 . S
C1713 H1719 0.959 . S
C1713 H1720 0.961 . S
C1713 H1721 0.960 . S
C1714 C1712 1.381 . S
C1714 C1715 1.394 . S
C1714 H1722 0.930 . S
C1715 C1714 1.394 . S
C1715 C1716 1.383 . S
C1715 H1723 0.929 . S
C1716 C1715 1.383 . S
C1716 C1717 1.377 . S
C1717 H1701 0.930 . S
C1717 C1716 1.377 . S
C1717 C1718 1.379 . S
C1718 H1702 0.931 . S
C1718 C1712 1.383 . S
C1718 C1717 1.379 . S
H1719 C1713 0.959 . S
H1720 C1713 0.961 . S
H1721 C1713 0.960 . S
H1722 C1714 0.930 . S
H1723 C1715 0.929 . S
H1724 C1732 0.929 . S
H1725 C1734 0.930 . S
H1726 C1736 0.930 . S
H1727 C1739 0.929 . S
H1728 C1742 0.930 . S
H1729 C1744 0.960 . S
H1730 C1744 0.960 . S
H1731 C1744 0.960 . S
C1732 H1724 0.929 . S
C1732 C1733 1.377 . S
C1732 C1734 1.384 . S
C1733 C1732 1.377 . S
C1733 C1739 1.390 . S
C1734 H1725 0.930 . S
C1734 C1732 1.384 . S
C1734 C1735 1.372 . S
C1735 C1734 1.372 . S
C1735 C1736 1.400 . S
C1735 C1740 1.490 . S
C1736 H1726 0.930 . S
C1736 C1735 1.400 . S
C1736 C1739 1.386 . S
H1737 C1753 0.930 . S
H1738 C1754 0.931 . S
C1739 H1727 0.929 . S
C1739 C1733 1.390 . S
C1739 C1736 1.386 . S
C1740 C1735 1.490 . S
C1740 C1742 1.395 . S
C1740 C1743 1.403 . S
H1741 C1747 0.930 . S
C1742 H1728 0.930 . S
C1742 C1740 1.395 . S
C1742 C1745 1.403 . S
C1743 C1740 1.403 . S
C1743 C1744 1.524 . S
C1743 C1747 1.400 . S
C1744 H1729 0.960 . S
C1744 H1730 0.960 . S
C1744 H1731 0.960 . S
C1744 C1743 1.524 . S
C1745 C1742 1.403 . S
C1745 C1746 1.392 . S
C1745 C1749 1.495 . S
C1746 C1745 1.392 . S
C1746 C1747 1.385 . S
C1746 C1748 1.478 . S
C1747 H1741 0.930 . S
C1747 C1743 1.400 . S
C1747 C1746 1.385 . S
C1748 C1746 1.478 . S
C1748 C1750 1.381 . S
C1748 C1754 1.383 . S
C1749 C1745 1.495 . S
C1749 H1755 0.959 . S
C1749 H1756 0.961 . S
C1749 H1757 0.960 . S
C1750 C1748 1.381 . S
C1750 C1751 1.394 . S
C1750 H1758 0.930 . S
C1751 C1750 1.394 . S
C1751 C1752 1.383 . S
C1751 H1759 0.929 . S
C1752 C1751 1.383 . S
C1752 C1753 1.377 . S
C1753 H1737 0.930 . S
C1753 C1752 1.377 . S
C1753 C1754 1.379 . S
C1754 H1738 0.931 . S
C1754 C1748 1.383 . S
C1754 C1753 1.379 . S
H1755 C1749 0.959 . S
H1756 C1749 0.961 . S
H1757 C1749 0.960 . S
H1758 C1750 0.930 . S
H1759 C1751 0.929 . S
H1760 C1768 0.929 . S
H1761 C1770 0.930 . S
H1762 C1772 0.930 . S
H1763 C1775 0.929 . S
H1764 C1778 0.930 . S
H1765 C1780 0.960 . S
H1766 C1780 0.960 . S
H1767 C1780 0.960 . S
C1768 H1760 0.929 . S
C1768 C1769 1.377 . S
C1768 C1770 1.384 . S
C1769 C1768 1.377 . S
C1769 C1775 1.390 . S
C1770 H1761 0.930 . S
C1770 C1768 1.384 . S
C1770 C1771 1.372 . S
C1771 C1770 1.372 . S
C1771 C1772 1.400 . S
C1771 C1776 1.490 1_556 S
C1772 H1762 0.930 . S
C1772 C1771 1.400 . S
C1772 C1775 1.386 . S
H1773 C1789 0.930 . S
H1774 C1790 0.931 . S
C1775 H1763 0.929 . S
C1775 C1769 1.390 . S
C1775 C1772 1.386 . S
C1776 C1771 1.490 1_554 S
C1776 C1778 1.395 . S
C1776 C1779 1.403 . S
H1777 C1783 0.930 . S
C1778 H1764 0.930 . S
C1778 C1776 1.395 . S
C1778 C1781 1.403 . S
C1779 C1776 1.403 . S
C1779 C1780 1.524 . S
C1779 C1783 1.400 . S
C1780 H1765 0.960 . S
C1780 H1766 0.960 . S
C1780 H1767 0.960 . S
C1780 C1779 1.524 . S
C1781 C1778 1.403 . S
C1781 C1782 1.392 . S
C1781 C1785 1.495 . S
C1782 C1781 1.392 . S
C1782 C1783 1.385 . S
C1782 C1784 1.478 . S
C1783 H1777 0.930 . S
C1783 C1779 1.400 . S
C1783 C1782 1.385 . S
C1784 C1782 1.478 . S
C1784 C1786 1.381 . S
C1784 C1790 1.383 . S
C1785 C1781 1.495 . S
C1785 H1791 0.959 . S
C1785 H1792 0.961 . S
C1785 H1793 0.960 . S
C1786 C1784 1.381 . S
C1786 C1787 1.394 . S
C1786 H1794 0.930 . S
C1787 C1786 1.394 . S
C1787 C1788 1.383 . S
C1787 H1795 0.929 . S
C1788 C1787 1.383 . S
C1788 C1789 1.377 . S
C1789 H1773 0.930 . S
C1789 C1788 1.377 . S
C1789 C1790 1.379 . S
C1790 H1774 0.931 . S
C1790 C1784 1.383 . S
C1790 C1789 1.379 . S
H1791 C1785 0.959 . S
H1792 C1785 0.961 . S
H1793 C1785 0.960 . S
H1794 C1786 0.930 . S
H1795 C1787 0.929 . S
H1796 C1804 0.929 . S
H1797 C1806 0.930 . S
H1798 C1808 0.930 . S
H1799 C1811 0.929 . S
H1800 C1814 0.930 . S
H1801 C1816 0.960 . S
H1802 C1816 0.960 . S
H1803 C1816 0.960 . S
C1804 H1796 0.929 . S
C1804 C1805 1.377 . S
C1804 C1806 1.384 . S
C1805 C1804 1.377 . S
C1805 C1811 1.390 . S
C1806 H1797 0.930 . S
C1806 C1804 1.384 . S
C1806 C1807 1.372 . S
C1807 C1806 1.372 . S
C1807 C1808 1.400 . S
C1807 C1812 1.490 . S
C1808 H1798 0.930 . S
C1808 C1807 1.400 . S
C1808 C1811 1.386 . S
H1809 C1825 0.930 . S
H1810 C1826 0.931 . S
C1811 H1799 0.929 . S
C1811 C1805 1.390 . S
C1811 C1808 1.386 . S
C1812 C1807 1.490 . S
C1812 C1814 1.395 . S
C1812 C1815 1.403 . S
H1813 C1819 0.930 . S
C1814 H1800 0.930 . S
C1814 C1812 1.395 . S
C1814 C1817 1.403 . S
C1815 C1812 1.403 . S
C1815 C1816 1.524 . S
C1815 C1819 1.400 . S
C1816 H1801 0.960 . S
C1816 H1802 0.960 . S
C1816 H1803 0.960 . S
C1816 C1815 1.524 . S
C1817 C1814 1.403 . S
C1817 C1818 1.392 . S
C1817 C1821 1.495 . S
C1818 C1817 1.392 . S
C1818 C1819 1.385 . S
C1818 C1820 1.478 1_556 S
C1819 H1813 0.930 . S
C1819 C1815 1.400 . S
C1819 C1818 1.385 . S
C1820 C1818 1.478 1_554 S
C1820 C1822 1.381 . S
C1820 C1826 1.383 . S
C1821 C1817 1.495 . S
C1821 H1827 0.959 . S
C1821 H1828 0.961 . S
C1821 H1829 0.960 . S
C1822 C1820 1.381 . S
C1822 C1823 1.394 . S
C1822 H1830 0.930 . S
C1823 C1822 1.394 . S
C1823 C1824 1.383 . S
C1823 H1831 0.929 . S
C1824 C1823 1.383 . S
C1824 C1825 1.377 . S
C1825 H1809 0.930 . S
C1825 C1824 1.377 . S
C1825 C1826 1.379 . S
C1826 H1810 0.931 . S
C1826 C1820 1.383 . S
C1826 C1825 1.379 . S
H1827 C1821 0.959 . S
H1828 C1821 0.961 . S
H1829 C1821 0.960 . S
H1830 C1822 0.930 . S
H1831 C1823 0.929 . S
H1832 C1840 0.929 . S
H1833 C1842 0.930 . S
H1834 C1844 0.930 . S
H1835 C1847 0.929 . S
H1836 C1850 0.930 . S
H1837 C1852 0.960 . S
H1838 C1852 0.960 . S
H1839 C1852 0.960 . S
C1840 H1832 0.929 . S
C1840 C1841 1.377 . S
C1840 C1842 1.384 . S
C1841 C1840 1.377 . S
C1841 C1847 1.390 . S
C1842 H1833 0.930 . S
C1842 C1840 1.384 . S
C1842 C1843 1.372 . S
C1843 C1842 1.372 . S
C1843 C1844 1.400 . S
C1843 C1848 1.490 . S
C1844 H1834 0.930 . S
C1844 C1843 1.400 . S
C1844 C1847 1.386 . S
H1845 C1861 0.930 . S
H1846 C1862 0.931 . S
C1847 H1835 0.929 . S
C1847 C1841 1.390 . S
C1847 C1844 1.386 . S
C1848 C1843 1.490 . S
C1848 C1850 1.395 . S
C1848 C1851 1.403 . S
H1849 C1855 0.930 . S
C1850 H1836 0.930 . S
C1850 C1848 1.395 . S
C1850 C1853 1.403 . S
C1851 C1848 1.403 . S
C1851 C1852 1.524 . S
C1851 C1855 1.400 . S
C1852 H1837 0.960 . S
C1852 H1838 0.960 . S
C1852 H1839 0.960 . S
C1852 C1851 1.524 . S
C1853 C1850 1.403 . S
C1853 C1854 1.392 . S
C1853 C1857 1.495 . S
C1854 C1853 1.392 . S
C1854 C1855 1.385 . S
C1854 C1856 1.478 1_554 S
C1855 H1849 0.930 . S
C1855 C1851 1.400 . S
C1855 C1854 1.385 . S
C1856 C1854 1.478 1_556 S
C1856 C1858 1.381 . S
C1856 C1862 1.383 . S
C1857 C1853 1.495 . S
C1857 H1863 0.959 . S
C1857 H1864 0.961 . S
C1857 H1865 0.960 . S
C1858 C1856 1.381 . S
C1858 C1859 1.394 . S
C1858 H1866 0.930 . S
C1859 C1858 1.394 . S
C1859 C1860 1.383 . S
C1859 H1867 0.929 . S
C1860 C1859 1.383 . S
C1860 C1861 1.377 . S
C1861 H1845 0.930 . S
C1861 C1860 1.377 . S
C1861 C1862 1.379 . S
C1862 H1846 0.931 . S
C1862 C1856 1.383 . S
C1862 C1861 1.379 . S
H1863 C1857 0.959 . S
H1864 C1857 0.961 . S
H1865 C1857 0.960 . S
H1866 C1858 0.930 . S
H1867 C1859 0.929 . S
H1868 C1876 0.929 . S
H1869 C1878 0.930 . S
H1870 C1880 0.930 . S
H1871 C1883 0.929 . S
H1872 C1886 0.930 . S
H1873 C1888 0.960 . S
H1874 C1888 0.960 . S
H1875 C1888 0.960 . S
C1876 H1868 0.929 . S
C1876 C1877 1.377 . S
C1876 C1878 1.384 . S
C1877 C1876 1.377 . S
C1877 C1883 1.390 . S
C1878 H1869 0.930 . S
C1878 C1876 1.384 . S
C1878 C1879 1.372 . S
C1879 C1878 1.372 . S
C1879 C1880 1.400 . S
C1879 C1884 1.490 1_554 S
C1880 H1870 0.930 . S
C1880 C1879 1.400 . S
C1880 C1883 1.386 . S
H1881 C1897 0.930 . S
H1882 C1898 0.931 . S
C1883 H1871 0.929 . S
C1883 C1877 1.390 . S
C1883 C1880 1.386 . S
C1884 C1879 1.490 1_556 S
C1884 C1886 1.395 . S
C1884 C1887 1.403 . S
H1885 C1891 0.930 . S
C1886 H1872 0.930 . S
C1886 C1884 1.395 . S
C1886 C1889 1.403 . S
C1887 C1884 1.403 . S
C1887 C1888 1.524 . S
C1887 C1891 1.400 . S
C1888 H1873 0.960 . S
C1888 H1874 0.960 . S
C1888 H1875 0.960 . S
C1888 C1887 1.524 . S
C1889 C1886 1.403 . S
C1889 C1890 1.392 . S
C1889 C1893 1.495 . S
C1890 C1889 1.392 . S
C1890 C1891 1.385 . S
C1890 C1892 1.478 . S
C1891 H1885 0.930 . S
C1891 C1887 1.400 . S
C1891 C1890 1.385 . S
C1892 C1890 1.478 . S
C1892 C1894 1.381 . S
C1892 C1898 1.383 . S
C1893 C1889 1.495 . S
C1893 H1899 0.959 . S
C1893 H1900 0.961 . S
C1893 H1901 0.960 . S
C1894 C1892 1.381 . S
C1894 C1895 1.394 . S
C1894 H1902 0.930 . S
C1895 C1894 1.394 . S
C1895 C1896 1.383 . S
C1895 H1903 0.929 . S
C1896 C1895 1.383 . S
C1896 C1897 1.377 . S
C1897 H1881 0.930 . S
C1897 C1896 1.377 . S
C1897 C1898 1.379 . S
C1898 H1882 0.931 . S
C1898 C1892 1.383 . S
C1898 C1897 1.379 . S
H1899 C1893 0.959 . S
H1900 C1893 0.961 . S
H1901 C1893 0.960 . S
H1902 C1894 0.930 . S
H1903 C1895 0.929 . S
H1904 C1912 0.929 . S
H1905 C1914 0.930 . S
H1906 C1916 0.930 . S
H1907 C1919 0.929 . S
H1908 C1922 0.930 . S
H1909 C1924 0.960 . S
H1910 C1924 0.960 . S
H1911 C1924 0.960 . S
C1912 H1904 0.929 . S
C1912 C1913 1.377 . S
C1912 C1914 1.384 . S
C1913 C1912 1.377 . S
C1913 C1919 1.390 . S
C1914 H1905 0.930 . S
C1914 C1912 1.384 . S
C1914 C1915 1.372 . S
C1915 C1914 1.372 . S
C1915 C1916 1.400 . S
C1915 C1920 1.490 . S
C1916 H1906 0.930 . S
C1916 C1915 1.400 . S
C1916 C1919 1.386 . S
H1917 C1933 0.930 . S
H1918 C1934 0.931 . S
C1919 H1907 0.929 . S
C1919 C1913 1.390 . S
C1919 C1916 1.386 . S
C1920 C1915 1.490 . S
C1920 C1922 1.395 . S
C1920 C1923 1.403 . S
H1921 C1927 0.930 . S
C1922 H1908 0.930 . S
C1922 C1920 1.395 . S
C1922 C1925 1.403 . S
C1923 C1920 1.403 . S
C1923 C1924 1.524 . S
C1923 C1927 1.400 . S
C1924 H1909 0.960 . S
C1924 H1910 0.960 . S
C1924 H1911 0.960 . S
C1924 C1923 1.524 . S
C1925 C1922 1.403 . S
C1925 C1926 1.392 . S
C1925 C1929 1.495 . S
C1926 C1925 1.392 . S
C1926 C1927 1.385 . S
C1926 C1928 1.478 1_554 S
C1927 H1921 0.930 . S
C1927 C1923 1.400 . S
C1927 C1926 1.385 . S
C1928 C1926 1.478 1_556 S
C1928 C1930 1.381 . S
C1928 C1934 1.383 . S
C1929 C1925 1.495 . S
C1929 H1935 0.959 . S
C1929 H1936 0.961 . S
C1929 H1937 0.960 . S
C1930 C1928 1.381 . S
C1930 C1931 1.394 . S
C1930 H1938 0.930 . S
C1931 C1930 1.394 . S
C1931 C1932 1.383 . S
C1931 H1939 0.929 . S
C1932 C1931 1.383 . S
C1932 C1933 1.377 . S
C1933 H1917 0.930 . S
C1933 C1932 1.377 . S
C1933 C1934 1.379 . S
C1934 H1918 0.931 . S
C1934 C1928 1.383 . S
C1934 C1933 1.379 . S
H1935 C1929 0.959 . S
H1936 C1929 0.961 . S
H1937 C1929 0.960 . S
H1938 C1930 0.930 . S
H1939 C1931 0.929 . S
H1940 C1948 0.929 . S
H1941 C1950 0.930 . S
H1942 C1952 0.930 . S
H1943 C1955 0.929 . S
H1944 C1958 0.930 . S
H1945 C1960 0.960 . S
H1946 C1960 0.960 . S
H1947 C1960 0.960 . S
C1948 H1940 0.929 . S
C1948 C1949 1.377 . S
C1948 C1950 1.384 . S
C1949 C1948 1.377 . S
C1949 C1955 1.390 . S
C1950 H1941 0.930 . S
C1950 C1948 1.384 . S
C1950 C1951 1.372 . S
C1951 C1950 1.372 . S
C1951 C1952 1.400 . S
C1951 C1956 1.490 1_554 S
C1952 H1942 0.930 . S
C1952 C1951 1.400 . S
C1952 C1955 1.386 . S
H1953 C1969 0.930 . S
H1954 C1970 0.931 . S
C1955 H1943 0.929 . S
C1955 C1949 1.390 . S
C1955 C1952 1.386 . S
C1956 C1951 1.490 1_556 S
C1956 C1958 1.395 . S
C1956 C1959 1.403 . S
H1957 C1963 0.930 . S
C1958 H1944 0.930 . S
C1958 C1956 1.395 . S
C1958 C1961 1.403 . S
C1959 C1956 1.403 . S
C1959 C1960 1.524 . S
C1959 C1963 1.400 . S
C1960 H1945 0.960 . S
C1960 H1946 0.960 . S
C1960 H1947 0.960 . S
C1960 C1959 1.524 . S
C1961 C1958 1.403 . S
C1961 C1962 1.392 . S
C1961 C1965 1.495 . S
C1962 C1961 1.392 . S
C1962 C1963 1.385 . S
C1962 C1964 1.478 . S
C1963 H1957 0.930 . S
C1963 C1959 1.400 . S
C1963 C1962 1.385 . S
C1964 C1962 1.478 . S
C1964 C1966 1.381 . S
C1964 C1970 1.383 . S
C1965 C1961 1.495 . S
C1965 H1971 0.959 . S
C1965 H1972 0.961 . S
C1965 H1973 0.960 . S
C1966 C1964 1.381 . S
C1966 C1967 1.394 . S
C1966 H1974 0.930 . S
C1967 C1966 1.394 . S
C1967 C1968 1.383 . S
C1967 H1975 0.929 . S
C1968 C1967 1.383 . S
C1968 C1969 1.377 . S
C1969 H1953 0.930 . S
C1969 C1968 1.377 . S
C1969 C1970 1.379 . S
C1970 H1954 0.931 . S
C1970 C1964 1.383 . S
C1970 C1969 1.379 . S
H1971 C1965 0.959 . S
H1972 C1965 0.961 . S
H1973 C1965 0.960 . S
H1974 C1966 0.930 . S
H1975 C1967 0.929 . S
H1976 C1984 0.929 . S
H1977 C1986 0.930 . S
H1978 C1988 0.930 . S
H1979 C1991 0.929 . S
H1980 C1994 0.930 . S
H1981 C1996 0.960 . S
H1982 C1996 0.960 . S
H1983 C1996 0.960 . S
C1984 H1976 0.929 . S
C1984 C1985 1.377 . S
C1984 C1986 1.384 . S
C1985 C1984 1.377 . S
C1985 C1991 1.390 . S
C1986 H1977 0.930 . S
C1986 C1984 1.384 . S
C1986 C1987 1.372 . S
C1987 C1986 1.372 . S
C1987 C1988 1.400 . S
C1987 C1992 1.490 1_556 S
C1988 H1978 0.930 . S
C1988 C1987 1.400 . S
C1988 C1991 1.386 . S
H1989 C2005 0.930 . S
H1990 C2006 0.931 . S
C1991 H1979 0.929 . S
C1991 C1985 1.390 . S
C1991 C1988 1.386 . S
C1992 C1987 1.490 1_554 S
C1992 C1994 1.395 . S
C1992 C1995 1.403 . S
H1993 C1999 0.930 . S
C1994 H1980 0.930 . S
C1994 C1992 1.395 . S
C1994 C1997 1.403 . S
C1995 C1992 1.403 . S
C1995 C1996 1.524 . S
C1995 C1999 1.400 . S
C1996 H1981 0.960 . S
C1996 H1982 0.960 . S
C1996 H1983 0.960 . S
C1996 C1995 1.524 . S
C1997 C1994 1.403 . S
C1997 C1998 1.392 . S
C1997 C2001 1.495 . S
C1998 C1997 1.392 . S
C1998 C1999 1.385 . S
C1998 C2000 1.478 . S
C1999 H1993 0.930 . S
C1999 C1995 1.400 . S
C1999 C1998 1.385 . S
C2000 C1998 1.478 . S
C2000 C2002 1.381 . S
C2000 C2006 1.383 . S
C2001 C1997 1.495 . S
C2001 H2007 0.959 . S
C2001 H2008 0.961 . S
C2001 H2009 0.960 . S
C2002 C2000 1.381 . S
C2002 C2003 1.394 . S
C2002 H2010 0.930 . S
C2003 C2002 1.394 . S
C2003 C2004 1.383 . S
C2003 H2011 0.929 . S
C2004 C2003 1.383 . S
C2004 C2005 1.377 . S
C2005 H1989 0.930 . S
C2005 C2004 1.377 . S
C2005 C2006 1.379 . S
C2006 H1990 0.931 . S
C2006 C2000 1.383 . S
C2006 C2005 1.379 . S
H2007 C2001 0.959 . S
H2008 C2001 0.961 . S
H2009 C2001 0.960 . S
H2010 C2002 0.930 . S
H2011 C2003 0.929 . S
H2012 C2020 0.929 . S
H2013 C2022 0.930 . S
H2014 C2024 0.930 . S
H2015 C2027 0.929 . S
H2016 C2030 0.930 . S
H2017 C2032 0.960 . S
H2018 C2032 0.960 . S
H2019 C2032 0.960 . S
C2020 H2012 0.929 . S
C2020 C2021 1.377 . S
C2020 C2022 1.384 . S
C2021 C2020 1.377 . S
C2021 C2027 1.390 . S
C2022 H2013 0.930 . S
C2022 C2020 1.384 . S
C2022 C2023 1.372 . S
C2023 C2022 1.372 . S
C2023 C2024 1.400 . S
C2023 C2028 1.490 . S
C2024 H2014 0.930 . S
C2024 C2023 1.400 . S
C2024 C2027 1.386 . S
H2025 C2041 0.930 . S
H2026 C2042 0.931 . S
C2027 H2015 0.929 . S
C2027 C2021 1.390 . S
C2027 C2024 1.386 . S
C2028 C2023 1.490 . S
C2028 C2030 1.395 . S
C2028 C2031 1.403 . S
H2029 C2035 0.930 . S
C2030 H2016 0.930 . S
C2030 C2028 1.395 . S
C2030 C2033 1.403 . S
C2031 C2028 1.403 . S
C2031 C2032 1.524 . S
C2031 C2035 1.400 . S
C2032 H2017 0.960 . S
C2032 H2018 0.960 . S
C2032 H2019 0.960 . S
C2032 C2031 1.524 . S
C2033 C2030 1.403 . S
C2033 C2034 1.392 . S
C2033 C2037 1.495 . S
C2034 C2033 1.392 . S
C2034 C2035 1.385 . S
C2034 C2036 1.478 1_556 S
C2035 H2029 0.930 . S
C2035 C2031 1.400 . S
C2035 C2034 1.385 . S
C2036 C2034 1.478 1_554 S
C2036 C2038 1.381 . S
C2036 C2042 1.383 . S
C2037 C2033 1.495 . S
C2037 H2043 0.959 . S
C2037 H2044 0.961 . S
C2037 H2045 0.960 . S
C2038 C2036 1.381 . S
C2038 C2039 1.394 . S
C2038 H2046 0.930 . S
C2039 C2038 1.394 . S
C2039 C2040 1.383 . S
C2039 H2047 0.929 . S
C2040 C2039 1.383 . S
C2040 C2041 1.377 . S
C2041 H2025 0.930 . S
C2041 C2040 1.377 . S
C2041 C2042 1.379 . S
C2042 H2026 0.931 . S
C2042 C2036 1.383 . S
C2042 C2041 1.379 . S
H2043 C2037 0.959 . S
H2044 C2037 0.961 . S
H2045 C2037 0.960 . S
H2046 C2038 0.930 . S
H2047 C2039 0.929 . S
C329 C226 1.552 . S
C348 C9 1.637 . S
C365 C176 1.545 . S
C384 C21 1.611 . S
C401 C49 1.624 . S
C420 C186 1.525 . S
C437 C61 1.625 . S
C456 C216 1.521 . S
C473 C89 1.626 . S
C492 C106 1.517 . S
C509 C136 1.551 . S
C528 C101 1.613 . S
C545 C129 1.626 . S
C564 C146 1.517 . S
C581 C96 1.549 . S
C600 C141 1.610 . S
C617 C66 1.548 . S
C636 C169 1.610 . S
C653 C181 1.623 . S
C672 C16 1.519 . S
C689 C26 1.553 . S
C708 C209 1.609 . S
C725 C56 1.548 . S
C744 C221 1.609 . S
C761 C249 1.623 . S
C780 C266 1.541 . S
C797 C296 1.557 . S
C816 C261 1.636 . S
C833 C306 1.558 . S
C852 C289 1.628 . S
C869 C301 1.625 . S
C888 C256 1.519 . S
C905 C1 1.514 . S
C924 C81 1.494 . S
C941 C109 1.517 . S
C960 C29 1.529 . S
C977 C41 1.517 . S
C996 C121 1.535 . S
C1013 C69 1.511 . S
C1032 C149 1.485 . S
C1049 C161 1.514 . S
C1068 C241 1.496 . S
C1085 C269 1.508 . S
C1104 C189 1.499 . S
C1121 C201 1.510 . S
C1140 C281 1.518 . S
C1157 C229 1.512 . S
C1176 C309 1.484 . S
C1193 C286 1.587 . S
C1212 C6 1.600 1_556 S
C1229 C36 1.586 1_554 S
C1248 C316 1.568 . S
C1265 C46 1.586 1_556 S
C1284 C246 1.566 . S
C1301 C76 1.578 1_554 S
C1320 C276 1.584 . S
C1337 C86 1.583 . S
C1356 C206 1.583 . S
C1373 C116 1.590 . S
C1392 C236 1.590 . S
C1409 C126 1.585 . S
C1428 C166 1.565 . S
C1445 C196 1.585 . S
C1464 C156 1.566 . S
C1481 C8 1.906 . S
C1500 C19 1.925 1_556 S
C1517 C39 1.896 . S
C1536 C28 1.890 1_554 S
C1553 C48 1.907 . S
C1572 C59 1.902 1_556 S
C1589 C68 1.897 1_554 S
C1608 C79 1.874 . S
C1625 C99 1.897 . S
C1644 C88 1.902 . S
C1661 C119 1.906 . S
C1680 C108 1.924 . S
C1697 C128 1.907 . S
C1716 C139 1.922 . S
C1733 C148 1.898 . S
C1752 C159 1.907 . S
C1769 C168 1.897 . S
C1788 C179 1.874 . S
C1805 C188 1.902 . S
C1824 C199 1.923 . S
C1841 C219 1.896 . S
C1860 C208 1.881 . S
C1877 C239 1.898 . S
C1896 C228 1.906 . S
C1913 C248 1.897 . S
C1932 C259 1.875 . S
C1949 C268 1.903 . S
C1968 C279 1.875 . S
C1985 C299 1.906 . S
C2004 C288 1.887 . S
C2021 C319 1.908 . S
C2040 C308 1.910 . S
