# Generated by pormake.
# Topology qtz-e, (6)-cn, num edge types: 1
# Building blocks:
#     Node 0, Type 0, BuildingBlock: PAMTUU_clean_sbu_0, # of connection points: 6
#     Node 1, Type 0, BuildingBlock: PAMTUU_clean_sbu_0, # of connection points: 6
#     Node 2, Type 0, BuildingBlock: PAMTUU_clean_sbu_0, # of connection points: 6
#     Node 3, Type 0, BuildingBlock: PAMTUU_clean_sbu_0, # of connection points: 6
#     Node 4, Type 0, BuildingBlock: PAMTUU_clean_sbu_0, # of connection points: 6
#     Node 5, Type 0, BuildingBlock: PAMTUU_clean_sbu_0, # of connection points: 6
#     Edge 6, Type (0, 0), BuildingBlock: OJICUG_clean_linker_0, # of connection points: 2
#     Edge 7, Type (0, 0), BuildingBlock: OJICUG_clean_linker_0, # of connection points: 2
#     Edge 8, Type (0, 0), BuildingBlock: OJICUG_clean_linker_0, # of connection points: 2
#     Edge 9, Type (0, 0), BuildingBlock: OJICUG_clean_linker_0, # of connection points: 2
#     Edge 10, Type (0, 0), BuildingBlock: OJICUG_clean_linker_0, # of connection points: 2
#     Edge 11, Type (0, 0), BuildingBlock: OJICUG_clean_linker_0, # of connection points: 2
#     Edge 12, Type (0, 0), BuildingBlock: OJICUG_clean_linker_0, # of connection points: 2
#     Edge 13, Type (0, 0), BuildingBlock: OJICUG_clean_linker_0, # of connection points: 2
#     Edge 14, Type (0, 0), BuildingBlock: OJICUG_clean_linker_0, # of connection points: 2
#     Edge 15, Type (0, 0), BuildingBlock: OJICUG_clean_linker_0, # of connection points: 2
#     Edge 16, Type (0, 0), BuildingBlock: OJICUG_clean_linker_0, # of connection points: 2
#     Edge 17, Type (0, 0), BuildingBlock: OJICUG_clean_linker_0, # of connection points: 2
#     Edge 18, Type (0, 0), BuildingBlock: OJICUG_clean_linker_0, # of connection points: 2
#     Edge 19, Type (0, 0), BuildingBlock: OJICUG_clean_linker_0, # of connection points: 2
#     Edge 20, Type (0, 0), BuildingBlock: OJICUG_clean_linker_0, # of connection points: 2
#     Edge 21, Type (0, 0), BuildingBlock: OJICUG_clean_linker_0, # of connection points: 2
#     Edge 22, Type (0, 0), BuildingBlock: OJICUG_clean_linker_0, # of connection points: 2
#     Edge 23, Type (0, 0), BuildingBlock: OJICUG_clean_linker_0, # of connection points: 2
# Relax obj value: 0.253
# Max RMSD: 0.232
# Mean RMSD: 0.232
data_MOF--net-qtz-e--node1-PAMTUU_clean_sbu_0--edge1-OJICUG_clean_linker_0
_symmetry_space_group_name_H-M    P1
_symmetry_Int_Tables_number       1
_symmetry_cell_setting            triclinic
loop_
_symmetry_equiv_pos_as_xyz
'x, y, z'
_cell_length_a     19.937514
_cell_length_b     19.924558
_cell_length_c     40.556514
_cell_angle_alpha  89.938465
_cell_angle_beta   90.048282
_cell_angle_gamma 120.10332
loop_
_atom_site_label
_atom_site_type_symbol
_atom_site_fract_x
_atom_site_fract_y
_atom_site_fract_z
_atom_type_partial_charge
Tb0 Tb 0.26117 0.32553 0.13976 0.0
Tb1 Tb 0.32651 0.50053 0.1043 0.0
C2 C 0.4398 0.44848 0.13694 0.0
C3 C 0.15019 0.17563 0.20258 0.0
C4 C 0.07219 0.13625 0.26473 0.0
C5 C 0.11816 0.10436 0.2547 0.0
C6 C 0.15646 0.12374 0.22408 0.0
C7 C 0.10463 0.20778 0.21243 0.0
C8 C 0.06595 0.18814 0.24292 0.0
C9 C 0.19349 0.19803 0.17073 0.0
O10 O 0.30406 0.40805 0.17998 0.0
O11 O 0.31626 0.51934 0.15627 0.0
O12 O 0.20213 0.43426 0.10015 0.0
O13 O 0.18095 0.36791 0.1477 0.0
O14 O 0.41456 0.59886 0.081 0.0
O15 O 0.30566 0.59154 0.09329 0.0
O16 O 0.32095 0.42828 0.06323 0.0
O17 O 0.26705 0.30514 0.08641 0.0
O18 O 0.38654 0.37423 0.13853 0.0
O19 O 0.4253 0.50299 0.12747 0.0
C20 C 0.31603 0.47909 0.18202 0.0
O21 O 0.16212 0.21549 0.14631 0.0
O22 O 0.26772 0.24697 0.1727 0.0
C23 C 0.16148 0.40542 0.12692 0.0
C24 C 0.36826 0.65649 0.04476 0.0
C25 C 0.38876 0.71032 0.97974 0.0
C26 C 0.40745 0.76223 1.00624 0.0
C27 C 0.3976 0.7354 0.03861 0.0
C28 C 0.34383 0.60367 1.01853 0.0
C29 C 0.35418 0.63043 0.98617 0.0
C30 C 0.37167 0.63086 0.07802 0.0
C31 C 0.2942 0.35325 0.06089 0.0
H32 H 0.12594 0.06537 0.27075 0.0
H33 H 0.19178 0.09868 0.21732 0.0
H34 H 0.09897 0.24841 0.19657 0.0
H35 H 0.03051 0.21331 0.24919 0.0
H36 H 0.4329 0.82393 1.00192 0.0
H37 H 0.41624 0.77661 0.05876 0.0
H38 H 0.32088 0.54237 1.02305 0.0
H39 H 0.33979 0.5891 0.96631 0.0
Tb40 Tb 0.72872 0.06786 0.51659 0.0
Tb41 Tb 0.66468 0.18003 0.54793 0.0
C42 C 0.55091 0.01719 0.51486 0.0
C43 C 0.83656 0.02153 0.45568 0.0
C44 C 0.91432 0.05826 0.39342 0.0
C45 C 0.85233 0.983 0.40026 0.0
C46 C 0.81422 0.96498 0.43091 0.0
C47 C 0.89849 0.09667 0.44903 0.0
C48 C 0.93692 0.11461 0.41849 0.0
C49 C 0.79287 1.00262 0.48751 0.0
O50 O 0.69276 0.11091 0.47484 0.0
O51 O 0.68406 0.21357 0.49658 0.0
O52 O 0.78893 0.23432 0.55342 0.0
O53 O 0.81312 0.18873 0.50707 0.0
O54 O 0.57694 0.2041 0.56038 0.0
O55 O 0.69684 0.28759 0.56969 0.0
O56 O 0.64383 0.09596 0.58626 0.0
O57 O 0.72606 0.05129 0.57104 0.0
O58 O 0.60227 0.99381 0.51698 0.0
O59 O 0.56724 0.08808 0.52203 0.0
C60 C 0.68448 0.17212 0.4715 0.0
O61 O 0.82491 0.05181 0.51176 0.0
O62 O 0.71897 0.97872 0.48534 0.0
C63 C 0.83146 0.24635 0.52725 0.0
C64 C 0.60734 0.27451 0.60959 0.0
C65 C 0.57602 0.28642 0.67577 0.0
C66 C 0.61392 0.35337 0.65621 0.0
C67 C 0.62927 0.34734 0.62312 0.0
C68 C 0.57174 0.20798 0.62953 0.0
C69 C 0.55566 0.21387 0.66235 0.0
C70 C 0.62524 0.26834 0.57525 0.0
C71 C 0.68071 0.0584 0.59304 0.0
H72 H 0.83191 0.93804 0.38167 0.0
H73 H 0.76633 0.90681 0.43511 0.0
H74 H 0.91721 0.14208 0.46736 0.0
H75 H 0.98492 0.17285 0.41472 0.0
H76 H 0.62955 0.40971 0.66628 0.0
H77 H 0.65788 0.39923 0.60808 0.0
H78 H 0.55585 0.15138 0.6197 0.0
H79 H 0.52679 0.16173 0.67725 0.0
Tb80 Tb 0.65157 0.91436 0.80315 0.0
Tb81 Tb 0.4751 0.8023 0.77174 0.0
C82 C 0.52454 0.96503 0.80483 0.0
C83 C 0.80568 0.96038 0.86404 0.0
C84 C 0.84654 0.92347 0.92628 0.0
C85 C 0.86861 1.00067 0.91792 0.0
C86 C 0.84853 0.01876 0.88726 0.0
C87 C 0.78357 0.88332 0.87222 0.0
C88 C 0.80397 0.86523 0.90275 0.0
C89 C 0.7812 0.97968 0.83226 0.0
O90 O 0.57256 0.87116 0.84489 0.0
O91 O 0.46085 0.76867 0.82307 0.0
O92 O 0.54474 0.74783 0.76624 0.0
O93 O 0.61475 0.79341 0.81261 0.0
O94 O 0.36348 0.7787 0.75902 0.0
O95 O 0.39906 0.69456 0.75019 0.0
O96 O 0.5386 0.88629 0.7334 0.0
O97 O 0.66559 0.93095 0.74872 0.0
O98 O 0.59934 0.98843 0.80269 0.0
O99 O 0.46982 0.89409 0.79772 0.0
C100 C 0.5029 0.80998 0.84818 0.0
O101 O 0.76387 0.9305 0.80802 0.0
O102 O 0.73113 1.00338 0.83449 0.0
C103 C 0.5753 0.7358 0.79241 0.0
C104 C 0.32351 0.70797 0.7099 0.0
C105 C 0.28118 0.69608 0.64359 0.0
C106 C 0.2511 0.6292 0.66324 0.0
C107 C 0.27204 0.63522 0.69641 0.0
C108 C 0.35549 0.77438 0.68988 0.0
C109 C 0.33398 0.76851 0.65698 0.0
C110 C 0.34712 0.7142 0.74433 0.0
C111 C 0.61315 0.92383 0.72667 0.0
H112 H 0.90019 0.04729 0.93532 0.0
H113 H 0.86569 0.07852 0.88184 0.0
H114 H 0.75001 0.83663 0.85508 0.0
H115 H 0.78669 0.8053 0.9077 0.0
H116 H 0.20989 0.57296 0.65318 0.0
H117 H 0.24796 0.58341 0.71153 0.0
H118 H 0.39664 0.8309 0.69969 0.0
H119 H 0.35803 0.82058 0.64201 0.0
Tb120 Tb 0.9263 0.65473 0.17958 0.0
Tb121 Tb 0.81631 0.47974 0.21504 0.0
C122 C 0.98179 0.53187 0.18247 0.0
C123 C 0.96543 0.80518 0.11688 0.0
C124 C 0.92673 0.84515 0.05485 0.0
C125 C 1.0043 0.86884 0.06309 0.0
C126 C 0.02327 0.84922 0.09365 0.0
C127 C 0.88795 0.78128 0.10883 0.0
C128 C 0.86895 0.80124 0.07839 0.0
C129 C 0.98622 0.78227 0.14868 0.0
O130 O 0.88653 0.5722 0.13937 0.0
O131 O 0.78731 0.46079 0.16304 0.0
O132 O 0.75843 0.54608 0.21908 0.0
O133 O 0.80361 0.6123 0.1715 0.0
O134 O 0.80581 0.38144 0.2384 0.0
O135 O 0.70425 0.38881 0.22608 0.0
O136 O 0.88316 0.55205 0.25611 0.0
O137 O 0.95256 0.67516 0.23292 0.0
O138 O 1.00292 0.60611 0.18085 0.0
O139 O 0.9127 0.47735 0.19197 0.0
C140 C 0.82745 0.50107 0.13732 0.0
O141 O 0.93773 0.76489 0.17321 0.0
O142 O 0.01139 0.73333 0.1466 0.0
C143 C 0.7466 0.57482 0.19227 0.0
C144 C 0.70199 0.32416 0.27471 0.0
C145 C 0.66908 0.27086 0.33982 0.0
C146 C 0.63545 0.21874 0.3134 0.0
C147 C 0.65223 0.24531 0.28098 0.0
C148 C 0.73077 0.37719 0.30086 0.0
C149 C 0.71457 0.35069 0.33327 0.0
C150 C 0.73088 0.34954 0.24141 0.0
C151 C 0.93151 0.62709 0.25845 0.0
H152 H 0.05061 0.90144 0.04568 0.0
H153 H 0.08336 0.86785 0.09899 0.0
H154 H 0.84172 0.74683 0.12603 0.0
H155 H 0.80873 0.78263 0.07351 0.0
H156 H 0.59904 0.15708 0.3178 0.0
H157 H 0.62937 0.20394 0.2609 0.0
H158 H 0.76926 0.43844 0.29625 0.0
H159 H 0.74182 0.39217 0.35306 0.0
Tb160 Tb 0.06626 0.73117 0.46896 0.0
Tb161 Tb 0.17665 0.66389 0.43526 0.0
C162 C 0.01348 0.55233 0.47007 0.0
C163 C 0.02474 0.83964 0.53162 0.0
C164 C 0.06184 0.91444 0.59458 0.0
C165 C 0.98451 0.86065 0.58578 0.0
C166 C 0.96635 0.82403 0.55479 0.0
C167 C 0.10201 0.89298 0.54025 0.0
C168 C 0.12021 0.93005 0.57113 0.0
C169 C 1.00483 0.79742 0.49943 0.0
O170 O 0.11198 0.69804 0.51004 0.0
O171 O 0.20684 0.6775 0.48719 0.0
O172 O 0.23711 0.78843 0.43049 0.0
O173 O 0.189 0.81434 0.47617 0.0
O174 O 0.1853 0.57457 0.41244 0.0
O175 O 0.28802 0.68307 0.42455 0.0
O176 O 0.10944 0.66779 0.39387 0.0
O177 O 0.04054 0.72323 0.41561 0.0
O178 O 0.99169 0.60499 0.47047 0.0
O179 O 0.08229 0.56686 0.46035 0.0
C180 C 0.1704 0.68549 0.51253 0.0
O181 O 0.05419 0.82955 0.47523 0.0
O182 O 0.97917 0.72307 0.50101 0.0
C183 C 0.24729 0.83123 0.45643 0.0
C184 C 0.28985 0.61901 0.37642 0.0
C185 C 0.32749 0.59878 0.31207 0.0
C186 C 0.3621 0.58406 0.33926 0.0
C187 C 0.34301 0.59378 0.37128 0.0
C188 C 0.25962 0.63933 0.34947 0.0
C189 C 0.27815 0.6291 0.31746 0.0
C190 C 0.26039 0.61666 0.40953 0.0
C191 C 0.06157 0.69476 0.3907 0.0
H192 H 0.9377 0.84542 0.60307 0.0
H193 H 0.90642 0.78256 0.54907 0.0
H194 H 0.14871 0.90596 0.52317 0.0
H195 H 0.18029 0.9716 0.57639 0.0
H196 H 0.40135 0.56193 0.33578 0.0
H197 H 0.36713 0.57845 0.39196 0.0
H198 H 0.2186 0.65921 0.35317 0.0
H199 H 0.25001 0.6403 0.29707 0.0
Tb200 Tb 0.32564 0.2505 0.85031 0.0
Tb201 Tb 0.50352 0.31828 0.88404 0.0
C202 C 0.45157 0.42957 0.84931 0.0
C203 C 0.17552 0.14156 0.78763 0.0
C204 C 0.13797 0.06688 0.72466 0.0
C205 C 0.11256 0.11891 0.73375 0.0
C206 C 0.13094 0.15547 0.76475 0.0
C207 C 0.20133 0.09001 0.77871 0.0
C208 C 0.18255 0.05299 0.74782 0.0
C209 C 0.19771 0.18372 0.81983 0.0
O210 O 0.40442 0.28414 0.80922 0.0
O211 O 0.52004 0.305 0.83207 0.0
O212 O 0.43957 0.19375 0.88882 0.0
O213 O 0.36554 0.16775 0.84307 0.0
O214 O 0.60144 0.40747 0.90711 0.0
O215 O 0.59612 0.29958 0.89446 0.0
O216 O 0.43234 0.31374 0.92548 0.0
O217 O 0.30787 0.25839 0.90367 0.0
O218 O 0.37708 0.37664 0.84878 0.0
O219 O 0.506 0.41533 0.8591 0.0
C220 C 0.47551 0.29698 0.80672 0.0
O221 O 0.21519 0.15177 0.84402 0.0
O222 O 0.24629 0.25814 0.81828 0.0
C223 C 0.40698 0.15096 0.86285 0.0
C224 C 0.66179 0.36263 0.94282 0.0
C225 C 0.71961 0.38159 1.00717 0.0
C226 C 0.76898 0.3967 0.97998 0.0
C227 C 0.7402 0.38763 0.94796 0.0
C228 C 0.61114 0.34178 0.96974 0.0
C229 C 0.6399 0.3514 1.00175 0.0
C230 C 0.63472 0.36566 0.90976 0.0
C231 C 0.35742 0.28672 0.92862 0.0
H232 H 0.07953 0.13281 0.71669 0.0
H233 H 0.11102 0.19558 0.77071 0.0
H234 H 0.23646 0.0784 0.79556 0.0
H235 H 0.20258 0.01282 0.74233 0.0
H236 H 0.83041 0.41873 0.98347 0.0
H237 H 0.7797 0.40331 0.92729 0.0
H238 H 0.5502 0.32201 0.96604 0.0
H239 H 0.6005 0.33988 1.02214 0.0
C240 C 0.33942 0.61732 0.25074 0.0
C241 C 0.33451 0.57335 0.27868 0.0
H242 H 0.33755 0.62212 0.1981 0.0
C243 C 0.32843 0.50055 0.27448 0.0
H244 H 0.34477 0.67391 0.25329 0.0
C245 C 0.32458 0.47104 0.24304 0.0
C246 C 0.32638 0.51354 0.21507 0.0
H247 H 0.32311 0.46461 0.29549 0.0
H248 H 0.31793 0.41384 0.2408 0.0
C249 C 0.33539 0.58766 0.21918 0.0
C250 C 0.44906 0.24932 0.7494 0.0
C251 C 0.5031 0.29571 0.77348 0.0
H252 H 0.43077 0.21006 0.6995 0.0
C253 C 0.58204 0.33947 0.76539 0.0
H254 H 0.3879 0.2143 0.75516 0.0
C255 C 0.60635 0.33767 0.73327 0.0
C256 C 0.55202 0.29069 0.70942 0.0
H257 H 0.62448 0.37561 0.78368 0.0
H258 H 0.66734 0.37191 0.72715 0.0
C259 C 0.47343 0.24644 0.71769 0.0
C260 C 0.36763 0.70085 0.91861 0.0
C261 C 0.41416 0.73981 0.94597 0.0
H262 H 0.35922 0.69233 0.86608 0.0
C263 C 0.48878 0.80345 0.94086 0.0
H264 H 0.3097 0.65187 0.92188 0.0
C265 C 0.51705 0.82671 0.90908 0.0
C266 C 0.47143 0.78661 0.88169 0.0
H267 H 0.52666 0.83365 0.96144 0.0
H268 H 0.57539 0.8752 0.90609 0.0
C269 C 0.39605 0.72402 0.88671 0.0
C270 C 0.6637 0.25799 0.43288 0.0
C271 C 0.67616 0.19529 0.43797 0.0
H272 H 0.64952 0.32999 0.39765 0.0
C273 C 0.68109 0.15485 0.41062 0.0
H274 H 0.65902 0.28994 0.45349 0.0
C275 C 0.67584 0.17788 0.37881 0.0
C276 C 0.66521 0.24163 0.37363 0.0
H277 H 0.69065 0.10626 0.41365 0.0
H278 H 0.68309 0.14741 0.35826 0.0
C279 C 0.65821 0.28092 0.40096 0.0
C280 C 0.25992 0.64448 0.58615 0.0
C281 C 0.2532 0.69197 0.60988 0.0
H282 H 0.23963 0.60612 0.5358 0.0
C283 C 0.21969 0.7368 0.60144 0.0
H284 H 0.28603 0.60978 0.5924 0.0
C285 C 0.19254 0.73395 0.5697 0.0
C286 C 0.19945 0.68698 0.54576 0.0
H287 H 0.21392 0.77358 0.61955 0.0
H288 H 0.16697 0.76937 0.56381 0.0
C289 C 0.23392 0.64271 0.55399 0.0
C290 C 0.84454 0.50903 0.07635 0.0
C291 C 0.80354 0.46654 0.10426 0.0
H292 H 0.84984 0.51555 0.02391 0.0
C293 C 0.73833 0.39237 0.10009 0.0
H294 H 0.89522 0.56623 0.07863 0.0
C295 C 0.71285 0.36273 0.0685 0.0
C296 C 0.75213 0.40676 0.0406 0.0
H297 H 0.70583 0.35791 0.12113 0.0
H298 H 0.66148 0.30614 0.06589 0.0
C299 C 0.81903 0.47954 0.04488 0.0
C300 C 0.58105 0.54425 0.13701 0.0
C301 C 0.51862 0.47594 0.14988 0.0
H302 H 0.70117 0.62963 0.14066 0.0
C303 C 0.53067 0.44201 0.17795 0.0
H304 H 0.57322 0.57228 0.11563 0.0
C305 C 0.6039 0.4763 0.19296 0.0
C306 C 0.66659 0.54435 0.17981 0.0
H307 H 0.48305 0.3905 0.18888 0.0
H308 H 0.61154 0.44873 0.2145 0.0
C309 C 0.65416 0.5777 0.15163 0.0
C310 C 0.91453 0.46205 0.51108 0.0
C311 C 0.96255 0.47381 0.48379 0.0
H312 H 0.83813 0.38182 0.54736 0.0
C313 C 0.96975 0.41126 0.47215 0.0
H314 H 0.90928 0.50962 0.52106 0.0
C315 C 0.92942 0.33846 0.48714 0.0
C316 C 0.88154 0.32633 0.51452 0.0
H317 H 1.00695 0.41864 0.45136 0.0
H318 H 0.93537 0.29138 0.47705 0.0
C319 C 0.87492 0.38914 0.52649 0.0
C320 C 0.50653 0.10841 0.86038 0.0
C321 C 0.43506 0.09964 0.85002 0.0
H322 H 0.59265 0.07485 0.85336 0.0
C323 C 0.39556 0.04858 0.82392 0.0
H324 H 0.53899 0.14787 0.88017 0.0
C325 C 0.4263 0.00709 0.80868 0.0
C326 C 0.49809 0.01655 0.81868 0.0
H327 H 0.34091 0.041 0.81505 0.0
H328 H 0.39366 0.96735 0.78895 0.0
C329 C 0.5381 0.06778 0.84465 0.0
C330 C 0.58124 0.64367 0.83247 0.0
C331 C 0.54543 0.65579 0.80509 0.0
H332 H 0.57872 0.56346 0.86818 0.0
C333 C 0.47597 0.59287 0.79304 0.0
H334 H 0.63428 0.69081 0.84262 0.0
C335 C 0.44272 0.51988 0.80837 0.0
C336 C 0.47907 0.50813 0.83566 0.0
H337 H 0.44644 0.60018 0.77217 0.0
H338 H 0.38989 0.47224 0.79833 0.0
C339 C 0.54883 0.5708 0.84738 0.0
C340 C 0.06622 0.40243 0.16756 0.0
C341 C 0.11209 0.43591 0.13941 0.0
H342 H 0.99089 0.40778 0.2036 0.0
C343 C 0.11775 0.50413 0.12636 0.0
H344 H 0.06103 0.35036 0.17844 0.0
C345 C 0.07904 0.53844 0.14144 0.0
C346 C 0.03299 0.50439 0.16947 0.0
H347 H 0.15304 0.5318 0.10485 0.0
H348 H 0.08316 0.59008 0.13057 0.0
C349 C 0.02682 0.43593 0.18224 0.0
C350 C 0.33828 0.93367 0.49542 0.0
C351 C 0.32676 0.88265 0.46933 0.0
H352 H 0.4176 0.01483 0.5305 0.0
C353 C 0.38951 0.87395 0.45908 0.0
H354 H 0.29116 0.94118 0.5042 0.0
C355 C 0.46171 0.91457 0.47493 0.0
C356 C 0.47289 0.96573 0.50089 0.0
H357 H 0.38253 0.83453 0.43931 0.0
H358 H 0.50923 0.90754 0.4663 0.0
C359 C 0.41052 0.97515 0.51077 0.0
C360 C 0.28562 0.32829 0.96733 0.0
C361 C 0.32959 0.29182 0.96233 0.0
H362 H 0.2412 0.3774 1.00238 0.0
C363 C 0.35529 0.26905 0.99035 0.0
H364 H 0.26609 0.34777 0.9464 0.0
C365 C 0.33869 0.28356 1.02247 0.0
C366 C 0.29837 0.32379 0.02744 0.0
H367 H 0.39006 0.24162 0.98738 0.0
H368 H 0.36144 0.26743 0.04338 0.0
C369 C 0.2715 0.34535 0.99944 0.0
C370 C 0.98384 0.1524 0.34635 0.0
C371 C 0.95471 0.0781 0.36039 0.0
H372 H 0.04419 0.22939 0.30631 0.0
C373 C 0.96466 0.02311 0.34245 0.0
H374 H 0.97673 0.19639 0.35887 0.0
C375 C 1.00218 0.04168 0.31167 0.0
C376 C 0.03158 0.11609 0.29771 0.0
H377 H 0.94423 0.96555 0.35231 0.0
H378 H 1.0073 0.99703 0.29868 0.0
C379 C 0.02176 0.17111 0.31569 0.0
C380 C 0.58325 0.97588 0.67581 0.0
C381 C 0.6355 0.96015 0.69281 0.0
H382 H 0.55601 0.01736 0.63226 0.0
C383 C 0.70432 0.9761 0.67624 0.0
H384 H 0.52971 0.96498 0.68735 0.0
C385 C 0.71935 1.00602 0.64353 0.0
C386 C 0.66658 0.02205 0.6269 0.0
H387 H 0.74583 0.96434 0.68829 0.0
H388 H 0.77264 0.01772 0.63153 0.0
C389 C 0.59857 1.00639 0.64384 0.0
C390 C 0.81675 0.83303 0.97527 0.0
C391 C 0.86712 0.90365 0.95931 0.0
H392 H 0.79591 0.75864 1.01681 0.0
C393 C 0.93732 0.95493 0.9753 0.0
H394 H 0.76163 0.79213 0.96429 0.0
C395 C 0.95637 0.9363 1.00606 0.0
C396 C 0.90615 0.86549 1.02193 0.0
H397 H 0.9784 0.00947 0.96392 0.0
H398 H 0.01044 0.97814 1.01752 0.0
C399 C 0.83601 0.8142 1.00591 0.0
C400 C 0.94782 0.65173 0.352 0.0
C401 C 0.02842 0.68938 0.35701 0.0
H402 H 0.85417 0.60142 0.31694 0.0
C403 C 0.07693 0.71296 0.32902 0.0
H404 H 0.90882 0.6316 0.37293 0.0
C405 C 0.04572 0.69809 0.29689 0.0
C406 C 0.96507 0.65669 0.29191 0.0
H407 H 0.13926 0.74128 0.33201 0.0
H408 H 0.08466 0.7149 0.27599 0.0
C409 C 0.91657 0.63433 0.3199 0.0
C410 C 0.17012 0.01006 0.67493 0.0
C411 C 0.11848 0.02777 0.69129 0.0
H412 H 0.19292 0.95989 0.63279 0.0
C413 C 0.04797 0.00767 0.67533 0.0
H414 H 0.22552 0.02523 0.68584 0.0
C415 C 0.02997 0.97163 0.64423 0.0
C416 C 0.08143 0.9536 0.62793 0.0
H417 H 1.00578 0.01895 0.68696 0.0
H418 H 0.97566 0.95871 0.63285 0.0
C419 C 0.15182 0.97341 0.64396 0.0
loop_
_geom_bond_atom_site_label_1
_geom_bond_atom_site_label_2
_geom_bond_distance
_geom_bond_site_symmetry_2
_ccdc_geom_bond_type
Tb0 C9 2.764 . S
Tb0 O10 2.325 . S
Tb0 O13 2.303 . S
Tb0 O17 2.322 . S
Tb0 O18 2.349 . S
Tb0 O21 2.415 . S
Tb0 O22 2.399 . S
Tb1 O11 2.322 . S
Tb1 O12 2.349 . S
Tb1 O14 2.415 . S
Tb1 O15 2.399 . S
Tb1 O16 2.325 . S
Tb1 O19 2.303 . S
Tb1 C30 2.764 . S
C2 O18 1.261 . S
C2 O19 1.257 . S
C3 C6 1.358 . S
C3 C7 1.332 . S
C3 C9 1.504 . S
C4 C5 1.373 . S
C4 C8 1.308 . S
C5 C4 1.373 . S
C5 C6 1.429 . S
C5 H32 0.932 . S
C6 C3 1.358 . S
C6 C5 1.429 . S
C6 H33 0.930 . S
C7 C3 1.332 . S
C7 C8 1.394 . S
C7 H34 0.932 . S
C8 C4 1.308 . S
C8 C7 1.394 . S
C8 H35 0.930 . S
C9 Tb0 2.764 . S
C9 C3 1.504 . S
C9 O21 1.239 . S
C9 O22 1.263 . S
O10 Tb0 2.325 . S
O10 C20 1.236 . S
O11 Tb1 2.322 . S
O11 C20 1.257 . S
O12 Tb1 2.349 . S
O12 C23 1.261 . S
O13 Tb0 2.303 . S
O13 C23 1.257 . S
O14 Tb1 2.415 . S
O14 C30 1.239 . S
O15 Tb1 2.399 . S
O15 C30 1.263 . S
O16 Tb1 2.325 . S
O16 C31 1.236 . S
O17 Tb0 2.322 . S
O17 C31 1.257 . S
O18 Tb0 2.349 . S
O18 C2 1.261 . S
O19 Tb1 2.303 . S
O19 C2 1.257 . S
C20 O10 1.236 . S
C20 O11 1.257 . S
O21 Tb0 2.415 . S
O21 C9 1.239 . S
O22 Tb0 2.399 . S
O22 C9 1.263 . S
C23 O12 1.261 . S
C23 O13 1.257 . S
C24 C27 1.358 . S
C24 C28 1.332 . S
C24 C30 1.504 1_556 S
C25 C26 1.373 . S
C25 C29 1.308 . S
C26 C25 1.373 . S
C26 C27 1.429 . S
C26 H36 0.932 . S
C27 C24 1.358 . S
C27 C26 1.429 . S
C27 H37 0.930 . S
C28 C24 1.332 . S
C28 C29 1.394 . S
C28 H38 0.932 . S
C29 C25 1.308 . S
C29 C28 1.394 . S
C29 H39 0.929 . S
C30 Tb1 2.764 . S
C30 O14 1.239 . S
C30 O15 1.263 . S
C30 C24 1.504 1_554 S
C31 O16 1.236 . S
C31 O17 1.257 . S
H32 C5 0.932 . S
H33 C6 0.930 . S
H34 C7 0.932 . S
H35 C8 0.930 . S
H36 C26 0.932 . S
H37 C27 0.930 . S
H38 C28 0.932 . S
H39 C29 0.929 . S
Tb40 C49 2.764 . S
Tb40 O50 2.325 . S
Tb40 O53 2.303 . S
Tb40 O57 2.322 1_545 S
Tb40 O58 2.349 1_545 S
Tb40 O61 2.415 . S
Tb40 O62 2.399 1_545 S
Tb41 O51 2.322 . S
Tb41 O52 2.349 . S
Tb41 O54 2.415 . S
Tb41 O55 2.399 . S
Tb41 O56 2.325 . S
Tb41 O59 2.303 . S
Tb41 C70 2.764 . S
C42 O58 1.261 . S
C42 O59 1.257 1_565 S
C43 C46 1.358 1_545 S
C43 C47 1.332 . S
C43 C49 1.504 . S
C44 C45 1.373 1_545 S
C44 C48 1.308 . S
C45 C44 1.373 1_565 S
C45 C46 1.429 . S
C45 H72 0.932 . S
C46 C43 1.358 1_565 S
C46 C45 1.429 . S
C46 H73 0.930 . S
C47 C43 1.332 . S
C47 C48 1.394 . S
C47 H74 0.932 . S
C48 C44 1.308 . S
C48 C47 1.394 . S
C48 H75 0.929 . S
C49 Tb40 2.764 . S
C49 C43 1.504 . S
C49 O61 1.239 . S
C49 O62 1.263 1_545 S
O50 Tb40 2.325 . S
O50 C60 1.236 . S
O51 Tb41 2.322 . S
O51 C60 1.257 . S
O52 Tb41 2.349 . S
O52 C63 1.261 . S
O53 Tb40 2.303 . S
O53 C63 1.257 . S
O54 Tb41 2.415 . S
O54 C70 1.239 . S
O55 Tb41 2.399 . S
O55 C70 1.263 . S
O56 Tb41 2.325 . S
O56 C71 1.236 . S
O57 Tb40 2.322 1_565 S
O57 C71 1.257 1_565 S
O58 Tb40 2.349 1_565 S
O58 C42 1.261 . S
O59 Tb41 2.303 . S
O59 C42 1.257 1_545 S
C60 O50 1.236 . S
C60 O51 1.257 . S
O61 Tb40 2.415 . S
O61 C49 1.239 . S
O62 Tb40 2.399 1_565 S
O62 C49 1.263 1_565 S
C63 O52 1.261 . S
C63 O53 1.257 . S
C64 C67 1.358 . S
C64 C68 1.332 . S
C64 C70 1.504 . S
C65 C66 1.373 . S
C65 C69 1.308 . S
C66 C65 1.373 . S
C66 C67 1.429 . S
C66 H76 0.932 . S
C67 C64 1.358 . S
C67 C66 1.429 . S
C67 H77 0.930 . S
C68 C64 1.332 . S
C68 C69 1.394 . S
C68 H78 0.932 . S
C69 C65 1.308 . S
C69 C68 1.394 . S
C69 H79 0.929 . S
C70 Tb41 2.764 . S
C70 O54 1.239 . S
C70 O55 1.263 . S
C70 C64 1.504 . S
C71 O56 1.236 . S
C71 O57 1.257 1_545 S
H72 C45 0.932 . S
H73 C46 0.930 . S
H74 C47 0.932 . S
H75 C48 0.929 . S
H76 C66 0.932 . S
H77 C67 0.930 . S
H78 C68 0.932 . S
H79 C69 0.929 . S
Tb80 C89 2.764 . S
Tb80 O90 2.325 . S
Tb80 O93 2.303 . S
Tb80 O97 2.322 . S
Tb80 O98 2.349 1_565 S
Tb80 O101 2.415 . S
Tb80 O102 2.399 . S
Tb81 O91 2.322 . S
Tb81 O92 2.349 . S
Tb81 O94 2.415 . S
Tb81 O95 2.399 . S
Tb81 O96 2.325 . S
Tb81 O99 2.303 . S
Tb81 C110 2.764 . S
C82 O98 1.261 . S
C82 O99 1.257 1_545 S
C83 C86 1.358 1_565 S
C83 C87 1.332 . S
C83 C89 1.504 . S
C84 C85 1.373 1_565 S
C84 C88 1.308 . S
C85 C84 1.373 1_545 S
C85 C86 1.429 . S
C85 H112 0.932 . S
C86 C83 1.358 1_545 S
C86 C85 1.429 . S
C86 H113 0.930 . S
C87 C83 1.332 . S
C87 C88 1.394 . S
C87 H114 0.932 . S
C88 C84 1.308 . S
C88 C87 1.394 . S
C88 H115 0.929 . S
C89 Tb80 2.764 . S
C89 C83 1.504 . S
C89 O101 1.239 . S
C89 O102 1.262 . S
O90 Tb80 2.325 . S
O90 C100 1.236 . S
O91 Tb81 2.322 . S
O91 C100 1.257 . S
O92 Tb81 2.349 . S
O92 C103 1.261 . S
O93 Tb80 2.303 . S
O93 C103 1.257 . S
O94 Tb81 2.415 . S
O94 C110 1.239 . S
O95 Tb81 2.399 . S
O95 C110 1.263 . S
O96 Tb81 2.325 . S
O96 C111 1.236 . S
O97 Tb80 2.322 . S
O97 C111 1.257 . S
O98 Tb80 2.349 1_545 S
O98 C82 1.261 . S
O99 Tb81 2.303 . S
O99 C82 1.257 1_565 S
C100 O90 1.236 . S
C100 O91 1.257 . S
O101 Tb80 2.415 . S
O101 C89 1.239 . S
O102 Tb80 2.399 . S
O102 C89 1.262 . S
C103 O92 1.261 . S
C103 O93 1.257 . S
C104 C107 1.358 . S
C104 C108 1.332 . S
C104 C110 1.504 . S
C105 C106 1.373 . S
C105 C109 1.308 . S
C106 C105 1.373 . S
C106 C107 1.429 . S
C106 H116 0.932 . S
C107 C104 1.358 . S
C107 C106 1.429 . S
C107 H117 0.930 . S
C108 C104 1.332 . S
C108 C109 1.394 . S
C108 H118 0.932 . S
C109 C105 1.308 . S
C109 C108 1.394 . S
C109 H119 0.929 . S
C110 Tb81 2.764 . S
C110 O94 1.239 . S
C110 O95 1.263 . S
C110 C104 1.504 . S
C111 O96 1.236 . S
C111 O97 1.257 . S
H112 C85 0.932 . S
H113 C86 0.930 . S
H114 C87 0.932 . S
H115 C88 0.929 . S
H116 C106 0.932 . S
H117 C107 0.930 . S
H118 C108 0.932 . S
H119 C109 0.929 . S
Tb120 C129 2.764 . S
Tb120 O130 2.325 . S
Tb120 O133 2.303 . S
Tb120 O137 2.322 . S
Tb120 O138 2.349 1_655 S
Tb120 O141 2.415 . S
Tb120 O142 2.399 . S
Tb121 O131 2.322 . S
Tb121 O132 2.349 . S
Tb121 O134 2.415 . S
Tb121 O135 2.399 . S
Tb121 O136 2.325 . S
Tb121 O139 2.303 . S
Tb121 C150 2.764 . S
C122 O138 1.261 . S
C122 O139 1.257 1_455 S
C123 C126 1.358 1_655 S
C123 C127 1.332 . S
C123 C129 1.504 . S
C124 C125 1.373 1_655 S
C124 C128 1.308 . S
C125 C124 1.373 1_455 S
C125 C126 1.429 . S
C125 H152 0.932 . S
C126 C123 1.358 1_455 S
C126 C125 1.429 . S
C126 H153 0.930 . S
C127 C123 1.332 . S
C127 C128 1.394 . S
C127 H154 0.932 . S
C128 C124 1.308 . S
C128 C127 1.394 . S
C128 H155 0.929 . S
C129 Tb120 2.764 . S
C129 C123 1.504 . S
C129 O141 1.239 . S
C129 O142 1.261 . S
O130 Tb120 2.325 . S
O130 C140 1.236 . S
O131 Tb121 2.322 . S
O131 C140 1.257 . S
O132 Tb121 2.349 . S
O132 C143 1.261 . S
O133 Tb120 2.303 . S
O133 C143 1.257 . S
O134 Tb121 2.415 . S
O134 C150 1.239 . S
O135 Tb121 2.399 . S
O135 C150 1.263 . S
O136 Tb121 2.325 . S
O136 C151 1.236 . S
O137 Tb120 2.322 . S
O137 C151 1.257 . S
O138 Tb120 2.349 1_455 S
O138 C122 1.261 . S
O139 Tb121 2.303 . S
O139 C122 1.257 1_655 S
C140 O130 1.236 . S
C140 O131 1.257 . S
O141 Tb120 2.415 . S
O141 C129 1.239 . S
O142 Tb120 2.399 . S
O142 C129 1.261 . S
C143 O132 1.261 . S
C143 O133 1.257 . S
C144 C147 1.358 . S
C144 C148 1.332 . S
C144 C150 1.504 . S
C145 C146 1.373 . S
C145 C149 1.308 . S
C146 C145 1.373 . S
C146 C147 1.429 . S
C146 H156 0.932 . S
C147 C144 1.358 . S
C147 C146 1.429 . S
C147 H157 0.930 . S
C148 C144 1.332 . S
C148 C149 1.394 . S
C148 H158 0.932 . S
C149 C145 1.308 . S
C149 C148 1.394 . S
C149 H159 0.929 . S
C150 Tb121 2.764 . S
C150 O134 1.239 . S
C150 O135 1.263 . S
C150 C144 1.504 . S
C151 O136 1.236 . S
C151 O137 1.257 . S
H152 C125 0.932 . S
H153 C126 0.930 . S
H154 C127 0.932 . S
H155 C128 0.929 . S
H156 C146 0.932 . S
H157 C147 0.930 . S
H158 C148 0.932 . S
H159 C149 0.929 . S
Tb160 C169 2.764 . S
Tb160 O170 2.325 . S
Tb160 O173 2.303 . S
Tb160 O177 2.322 1_455 S
Tb160 O178 2.349 1_455 S
Tb160 O181 2.415 . S
Tb160 O182 2.399 1_455 S
Tb161 O171 2.322 . S
Tb161 O172 2.349 . S
Tb161 O174 2.415 . S
Tb161 O175 2.399 . S
Tb161 O176 2.325 . S
Tb161 O179 2.303 . S
Tb161 C190 2.764 . S
C162 O178 1.261 . S
C162 O179 1.257 1_655 S
C163 C166 1.358 1_455 S
C163 C167 1.332 . S
C163 C169 1.504 . S
C164 C165 1.373 1_455 S
C164 C168 1.308 . S
C165 C164 1.373 1_655 S
C165 C166 1.429 . S
C165 H192 0.932 . S
C166 C163 1.358 1_655 S
C166 C165 1.429 . S
C166 H193 0.930 . S
C167 C163 1.332 . S
C167 C168 1.394 . S
C167 H194 0.932 . S
C168 C164 1.308 . S
C168 C167 1.394 . S
C168 H195 0.929 . S
C169 Tb160 2.764 . S
C169 C163 1.504 . S
C169 O181 1.239 . S
C169 O182 1.263 1_455 S
O170 Tb160 2.325 . S
O170 C180 1.236 . S
O171 Tb161 2.322 . S
O171 C180 1.257 . S
O172 Tb161 2.349 . S
O172 C183 1.261 . S
O173 Tb160 2.303 . S
O173 C183 1.257 . S
O174 Tb161 2.415 . S
O174 C190 1.239 . S
O175 Tb161 2.399 . S
O175 C190 1.263 . S
O176 Tb161 2.325 . S
O176 C191 1.236 . S
O177 Tb160 2.322 1_655 S
O177 C191 1.257 1_655 S
O178 Tb160 2.349 1_655 S
O178 C162 1.261 . S
O179 Tb161 2.303 . S
O179 C162 1.257 1_455 S
C180 O170 1.236 . S
C180 O171 1.257 . S
O181 Tb160 2.415 . S
O181 C169 1.239 . S
O182 Tb160 2.399 1_655 S
O182 C169 1.263 1_655 S
C183 O172 1.261 . S
C183 O173 1.257 . S
C184 C187 1.358 . S
C184 C188 1.332 . S
C184 C190 1.504 . S
C185 C186 1.373 . S
C185 C189 1.308 . S
C186 C185 1.373 . S
C186 C187 1.429 . S
C186 H196 0.932 . S
C187 C184 1.358 . S
C187 C186 1.429 . S
C187 H197 0.930 . S
C188 C184 1.332 . S
C188 C189 1.394 . S
C188 H198 0.932 . S
C189 C185 1.308 . S
C189 C188 1.394 . S
C189 H199 0.929 . S
C190 Tb161 2.764 . S
C190 O174 1.239 . S
C190 O175 1.263 . S
C190 C184 1.504 . S
C191 O176 1.236 . S
C191 O177 1.257 1_455 S
H192 C165 0.932 . S
H193 C166 0.930 . S
H194 C167 0.932 . S
H195 C168 0.929 . S
H196 C186 0.932 . S
H197 C187 0.930 . S
H198 C188 0.932 . S
H199 C189 0.929 . S
Tb200 C209 2.764 . S
Tb200 O210 2.325 . S
Tb200 O213 2.303 . S
Tb200 O217 2.322 . S
Tb200 O218 2.349 . S
Tb200 O221 2.415 . S
Tb200 O222 2.399 . S
Tb201 O211 2.322 . S
Tb201 O212 2.349 . S
Tb201 O214 2.415 . S
Tb201 O215 2.399 . S
Tb201 O216 2.325 . S
Tb201 O219 2.303 . S
Tb201 C230 2.764 . S
C202 O218 1.261 . S
C202 O219 1.257 . S
C203 C206 1.358 . S
C203 C207 1.332 . S
C203 C209 1.504 . S
C204 C205 1.373 . S
C204 C208 1.308 . S
C205 C204 1.373 . S
C205 C206 1.429 . S
C205 H232 0.932 . S
C206 C203 1.358 . S
C206 C205 1.429 . S
C206 H233 0.930 . S
C207 C203 1.332 . S
C207 C208 1.394 . S
C207 H234 0.932 . S
C208 C204 1.308 . S
C208 C207 1.394 . S
C208 H235 0.932 . S
C209 Tb200 2.764 . S
C209 C203 1.504 . S
C209 O221 1.239 . S
C209 O222 1.263 . S
O210 Tb200 2.325 . S
O210 C220 1.236 . S
O211 Tb201 2.322 . S
O211 C220 1.257 . S
O212 Tb201 2.349 . S
O212 C223 1.261 . S
O213 Tb200 2.303 . S
O213 C223 1.257 . S
O214 Tb201 2.415 . S
O214 C230 1.239 . S
O215 Tb201 2.399 . S
O215 C230 1.263 . S
O216 Tb201 2.325 . S
O216 C231 1.236 . S
O217 Tb200 2.322 . S
O217 C231 1.257 . S
O218 Tb200 2.349 . S
O218 C202 1.261 . S
O219 Tb201 2.303 . S
O219 C202 1.257 . S
C220 O210 1.236 . S
C220 O211 1.257 . S
O221 Tb200 2.415 . S
O221 C209 1.239 . S
O222 Tb200 2.399 . S
O222 C209 1.263 . S
C223 O212 1.261 . S
C223 O213 1.257 . S
C224 C227 1.358 . S
C224 C228 1.332 . S
C224 C230 1.504 . S
C225 C226 1.373 1_554 S
C225 C229 1.308 1_554 S
C226 C225 1.373 1_556 S
C226 C227 1.429 . S
C226 H236 0.932 1_556 S
C227 C224 1.358 . S
C227 C226 1.429 . S
C227 H237 0.930 . S
C228 C224 1.332 . S
C228 C229 1.394 . S
C228 H238 0.932 . S
C229 C225 1.308 1_556 S
C229 C228 1.394 . S
C229 H239 0.929 . S
C230 Tb201 2.764 . S
C230 O214 1.239 . S
C230 O215 1.263 . S
C230 C224 1.504 . S
C231 O216 1.236 . S
C231 O217 1.257 . S
H232 C205 0.932 . S
H233 C206 0.930 . S
H234 C207 0.932 . S
H235 C208 0.932 . S
H236 C226 0.932 1_554 S
H237 C227 0.930 . S
H238 C228 0.932 . S
H239 C229 0.929 . S
C240 C241 1.387 . S
C240 H244 0.950 . S
C240 C249 1.390 . S
C241 C240 1.387 . S
C241 C243 1.387 . S
H242 C249 0.950 . S
C243 C241 1.387 . S
C243 C245 1.390 . S
C243 H247 0.950 . S
H244 C240 0.950 . S
C245 C243 1.390 . S
C245 C246 1.387 . S
C245 H248 0.950 . S
C246 C245 1.387 . S
C246 C249 1.387 . S
H247 C243 0.950 . S
H248 C245 0.950 . S
C249 C240 1.390 . S
C249 H242 0.950 . S
C249 C246 1.387 . S
C250 C251 1.387 . S
C250 H254 0.950 . S
C250 C259 1.390 . S
C251 C250 1.387 . S
C251 C253 1.387 . S
H252 C259 0.950 . S
C253 C251 1.387 . S
C253 C255 1.390 . S
C253 H257 0.950 . S
H254 C250 0.950 . S
C255 C253 1.390 . S
C255 C256 1.387 . S
C255 H258 0.950 . S
C256 C255 1.387 . S
C256 C259 1.387 . S
H257 C253 0.950 . S
H258 C255 0.950 . S
C259 C250 1.390 . S
C259 H252 0.950 . S
C259 C256 1.387 . S
C260 C261 1.387 . S
C260 H264 0.950 . S
C260 C269 1.390 . S
C261 C260 1.387 . S
C261 C263 1.387 . S
H262 C269 0.950 . S
C263 C261 1.387 . S
C263 C265 1.390 . S
C263 H267 0.950 . S
H264 C260 0.950 . S
C265 C263 1.390 . S
C265 C266 1.387 . S
C265 H268 0.950 . S
C266 C265 1.387 . S
C266 C269 1.387 . S
H267 C263 0.950 . S
H268 C265 0.950 . S
C269 C260 1.390 . S
C269 H262 0.950 . S
C269 C266 1.387 . S
C270 C271 1.387 . S
C270 H274 0.950 . S
C270 C279 1.390 . S
C271 C270 1.387 . S
C271 C273 1.387 . S
H272 C279 0.950 . S
C273 C271 1.387 . S
C273 C275 1.390 . S
C273 H277 0.950 . S
H274 C270 0.950 . S
C275 C273 1.390 . S
C275 C276 1.387 . S
C275 H278 0.950 . S
C276 C275 1.387 . S
C276 C279 1.387 . S
H277 C273 0.950 . S
H278 C275 0.950 . S
C279 C270 1.390 . S
C279 H272 0.950 . S
C279 C276 1.387 . S
C280 C281 1.387 . S
C280 H284 0.950 . S
C280 C289 1.390 . S
C281 C280 1.387 . S
C281 C283 1.387 . S
H282 C289 0.950 . S
C283 C281 1.387 . S
C283 C285 1.390 . S
C283 H287 0.950 . S
H284 C280 0.950 . S
C285 C283 1.390 . S
C285 C286 1.387 . S
C285 H288 0.950 . S
C286 C285 1.387 . S
C286 C289 1.387 . S
H287 C283 0.950 . S
H288 C285 0.950 . S
C289 C280 1.390 . S
C289 H282 0.950 . S
C289 C286 1.387 . S
C290 C291 1.387 . S
C290 H294 0.950 . S
C290 C299 1.390 . S
C291 C290 1.387 . S
C291 C293 1.387 . S
H292 C299 0.950 . S
C293 C291 1.387 . S
C293 C295 1.390 . S
C293 H297 0.950 . S
H294 C290 0.950 . S
C295 C293 1.390 . S
C295 C296 1.387 . S
C295 H298 0.950 . S
C296 C295 1.387 . S
C296 C299 1.387 . S
H297 C293 0.950 . S
H298 C295 0.950 . S
C299 C290 1.390 . S
C299 H292 0.950 . S
C299 C296 1.387 . S
C300 C301 1.387 . S
C300 H304 0.950 . S
C300 C309 1.390 . S
C301 C300 1.387 . S
C301 C303 1.387 . S
H302 C309 0.950 . S
C303 C301 1.387 . S
C303 C305 1.390 . S
C303 H307 0.950 . S
H304 C300 0.950 . S
C305 C303 1.390 . S
C305 C306 1.387 . S
C305 H308 0.950 . S
C306 C305 1.387 . S
C306 C309 1.387 . S
H307 C303 0.950 . S
H308 C305 0.950 . S
C309 C300 1.390 . S
C309 H302 0.950 . S
C309 C306 1.387 . S
C310 C311 1.387 . S
C310 H314 0.950 . S
C310 C319 1.390 . S
C311 C310 1.387 . S
C311 C313 1.387 . S
H312 C319 0.950 . S
C313 C311 1.387 . S
C313 C315 1.390 . S
C313 H317 0.950 . S
H314 C310 0.950 . S
C315 C313 1.390 . S
C315 C316 1.387 . S
C315 H318 0.950 . S
C316 C315 1.387 . S
C316 C319 1.387 . S
H317 C313 0.950 . S
H318 C315 0.950 . S
C319 C310 1.390 . S
C319 H312 0.950 . S
C319 C316 1.387 . S
C320 C321 1.387 . S
C320 H324 0.950 . S
C320 C329 1.390 . S
C321 C320 1.387 . S
C321 C323 1.387 . S
H322 C329 0.950 . S
C323 C321 1.387 . S
C323 C325 1.390 . S
C323 H327 0.950 . S
H324 C320 0.950 . S
C325 C323 1.390 . S
C325 C326 1.387 . S
C325 H328 0.950 1_545 S
C326 C325 1.387 . S
C326 C329 1.387 . S
H327 C323 0.950 . S
H328 C325 0.950 1_565 S
C329 C320 1.390 . S
C329 H322 0.950 . S
C329 C326 1.387 . S
C330 C331 1.387 . S
C330 H334 0.950 . S
C330 C339 1.390 . S
C331 C330 1.387 . S
C331 C333 1.387 . S
H332 C339 0.950 . S
C333 C331 1.387 . S
C333 C335 1.390 . S
C333 H337 0.950 . S
H334 C330 0.950 . S
C335 C333 1.390 . S
C335 C336 1.387 . S
C335 H338 0.950 . S
C336 C335 1.387 . S
C336 C339 1.387 . S
H337 C333 0.950 . S
H338 C335 0.950 . S
C339 C330 1.390 . S
C339 H332 0.950 . S
C339 C336 1.387 . S
C340 C341 1.387 . S
C340 H344 0.950 . S
C340 C349 1.390 . S
C341 C340 1.387 . S
C341 C343 1.387 . S
H342 C349 0.950 . S
C343 C341 1.387 . S
C343 C345 1.390 . S
C343 H347 0.950 . S
H344 C340 0.950 . S
C345 C343 1.390 . S
C345 C346 1.387 . S
C345 H348 0.950 . S
C346 C345 1.387 . S
C346 C349 1.387 . S
H347 C343 0.950 . S
H348 C345 0.950 . S
C349 C340 1.390 . S
C349 H342 0.950 . S
C349 C346 1.387 . S
C350 C351 1.387 . S
C350 H354 0.950 . S
C350 C359 1.390 . S
C351 C350 1.387 . S
C351 C353 1.387 . S
H352 C359 0.950 . S
C353 C351 1.387 . S
C353 C355 1.390 . S
C353 H357 0.950 . S
H354 C350 0.950 . S
C355 C353 1.390 . S
C355 C356 1.387 . S
C355 H358 0.950 . S
C356 C355 1.387 . S
C356 C359 1.387 . S
H357 C353 0.950 . S
H358 C355 0.950 . S
C359 C350 1.390 . S
C359 H352 0.950 . S
C359 C356 1.387 . S
C360 C361 1.387 . S
C360 H364 0.950 . S
C360 C369 1.390 . S
C361 C360 1.387 . S
C361 C363 1.387 . S
H362 C369 0.950 . S
C363 C361 1.387 . S
C363 C365 1.390 . S
C363 H367 0.950 . S
H364 C360 0.950 . S
C365 C363 1.390 . S
C365 C366 1.387 1_556 S
C365 H368 0.957 . S
C366 C365 1.387 1_554 S
C366 C369 1.387 1_554 S
H367 C363 0.950 . S
H368 C365 0.957 . S
C369 C360 1.390 . S
C369 H362 0.950 . S
C369 C366 1.387 1_556 S
C370 C371 1.387 . S
C370 H374 0.950 . S
C370 C379 1.390 1_655 S
C371 C370 1.387 . S
C371 C373 1.387 1_545 S
H372 C379 0.950 . S
C373 C371 1.387 1_565 S
C373 C375 1.390 1_565 S
C373 H377 0.950 . S
H374 C370 0.950 . S
C375 C373 1.390 1_545 S
C375 C376 1.387 1_655 S
C375 H378 0.950 1_645 S
C376 C375 1.387 1_455 S
C376 C379 1.387 . S
H377 C373 0.950 . S
H378 C375 0.950 1_465 S
C379 C370 1.390 1_455 S
C379 H372 0.950 . S
C379 C376 1.387 . S
C380 C381 1.387 . S
C380 H384 0.950 . S
C380 C389 1.390 . S
C381 C380 1.387 . S
C381 C383 1.387 . S
H382 C389 0.950 . S
C383 C381 1.387 . S
C383 C385 1.390 . S
C383 H387 0.950 . S
H384 C380 0.950 . S
C385 C383 1.390 . S
C385 C386 1.387 . S
C385 H388 0.950 . S
C386 C385 1.387 . S
C386 C389 1.387 . S
H387 C383 0.950 . S
H388 C385 0.950 . S
C389 C380 1.390 . S
C389 H382 0.950 . S
C389 C386 1.387 . S
C390 C391 1.387 . S
C390 H394 0.950 . S
C390 C399 1.390 . S
C391 C390 1.387 . S
C391 C393 1.387 . S
H392 C399 0.950 . S
C393 C391 1.387 . S
C393 C395 1.390 . S
C393 H397 0.950 1_665 S
H394 C390 0.950 . S
C395 C393 1.390 . S
C395 C396 1.387 . S
C395 H398 0.950 1_655 S
C396 C395 1.387 . S
C396 C399 1.387 . S
H397 C393 0.950 1_445 S
H398 C395 0.950 1_455 S
C399 C390 1.390 . S
C399 H392 0.950 . S
C399 C396 1.387 . S
C400 C401 1.387 . S
C400 H404 0.950 . S
C400 C409 1.390 . S
C401 C400 1.387 . S
C401 C403 1.387 1_655 S
H402 C409 0.950 . S
C403 C401 1.387 1_455 S
C403 C405 1.390 . S
C403 H407 0.950 . S
H404 C400 0.950 . S
C405 C403 1.390 . S
C405 C406 1.387 1_455 S
C405 H408 0.950 . S
C406 C405 1.387 1_655 S
C406 C409 1.387 . S
H407 C403 0.950 . S
H408 C405 0.950 . S
C409 C400 1.390 . S
C409 H402 0.950 . S
C409 C406 1.387 . S
C410 C411 1.387 . S
C410 H414 0.950 . S
C410 C419 1.390 1_545 S
C411 C410 1.387 . S
C411 C413 1.387 . S
H412 C419 0.950 . S
C413 C411 1.387 . S
C413 C415 1.390 1_445 S
C413 H417 0.950 1_455 S
H414 C410 0.950 . S
C415 C413 1.390 1_665 S
C415 C416 1.387 1_655 S
C415 H418 0.950 . S
C416 C415 1.387 1_455 S
C416 C419 1.387 . S
H417 C413 0.950 1_655 S
H418 C415 0.950 . S
C419 C410 1.390 1_565 S
C419 H412 0.950 . S
C419 C416 1.387 . S
C241 C185 1.701 . S
C246 C20 1.710 . S
C251 C220 1.709 . S
C256 C65 1.699 . S
C261 C25 1.702 . S
C266 C100 1.711 . S
C271 C60 1.711 . S
C276 C145 1.702 . S
C281 C105 1.700 . S
C286 C180 1.709 . S
C291 C140 1.709 . S
C296 C225 1.700 . S
C301 C2 2.163 . S
C306 C143 2.062 . S
C311 C162 2.160 . S
C316 C63 2.059 . S
C321 C223 2.060 . S
C326 C82 2.160 . S
C331 C103 2.061 . S
C336 C202 2.163 . S
C341 C23 2.061 . S
C346 C122 2.163 . S
C351 C183 2.061 . S
C356 C42 2.162 . S
C361 C231 1.723 . S
C366 C31 1.724 . S
C371 C44 0.922 . S
C376 C4 0.922 . S
C381 C111 1.723 . S
C386 C71 1.723 1_565 S
C391 C84 0.923 . S
C396 C124 0.922 1_556 S
C401 C191 1.723 1_655 S
C406 C151 1.723 . S
C411 C204 0.922 . S
C416 C164 0.922 . S
