# Generated by pormake.
# Topology afi, (4)-cn, num edge types: 1
# Building blocks:
#     Node 0, Type 0, BuildingBlock: GALJAG_clean_sbu_0, # of connection points: 4
#     Node 1, Type 0, BuildingBlock: GALJAG_clean_sbu_0, # of connection points: 4
#     Node 2, Type 0, BuildingBlock: GALJAG_clean_sbu_0, # of connection points: 4
#     Node 3, Type 0, BuildingBlock: GALJAG_clean_sbu_0, # of connection points: 4
#     Node 4, Type 0, BuildingBlock: GALJAG_clean_sbu_0, # of connection points: 4
#     Node 5, Type 0, BuildingBlock: GALJAG_clean_sbu_0, # of connection points: 4
#     Node 6, Type 0, BuildingBlock: GALJAG_clean_sbu_0, # of connection points: 4
#     Node 7, Type 0, BuildingBlock: GALJAG_clean_sbu_0, # of connection points: 4
#     Node 8, Type 0, BuildingBlock: GALJAG_clean_sbu_0, # of connection points: 4
#     Node 9, Type 0, BuildingBlock: GALJAG_clean_sbu_0, # of connection points: 4
#     Node 10, Type 0, BuildingBlock: GALJAG_clean_sbu_0, # of connection points: 4
#     Node 11, Type 0, BuildingBlock: GALJAG_clean_sbu_0, # of connection points: 4
#     Node 12, Type 0, BuildingBlock: GALJAG_clean_sbu_0, # of connection points: 4
#     Node 13, Type 0, BuildingBlock: GALJAG_clean_sbu_0, # of connection points: 4
#     Node 14, Type 0, BuildingBlock: GALJAG_clean_sbu_0, # of connection points: 4
#     Node 15, Type 0, BuildingBlock: GALJAG_clean_sbu_0, # of connection points: 4
#     Node 16, Type 0, BuildingBlock: GALJAG_clean_sbu_0, # of connection points: 4
#     Node 17, Type 0, BuildingBlock: GALJAG_clean_sbu_0, # of connection points: 4
#     Node 18, Type 0, BuildingBlock: GALJAG_clean_sbu_0, # of connection points: 4
#     Node 19, Type 0, BuildingBlock: GALJAG_clean_sbu_0, # of connection points: 4
#     Node 20, Type 0, BuildingBlock: GALJAG_clean_sbu_0, # of connection points: 4
#     Node 21, Type 0, BuildingBlock: GALJAG_clean_sbu_0, # of connection points: 4
#     Node 22, Type 0, BuildingBlock: GALJAG_clean_sbu_0, # of connection points: 4
#     Node 23, Type 0, BuildingBlock: GALJAG_clean_sbu_0, # of connection points: 4
#     Edge 24, Type (0, 0), BuildingBlock: AJUNOK_clean_linker_0, # of connection points: 2
#     Edge 25, Type (0, 0), BuildingBlock: AJUNOK_clean_linker_0, # of connection points: 2
#     Edge 26, Type (0, 0), BuildingBlock: AJUNOK_clean_linker_0, # of connection points: 2
#     Edge 27, Type (0, 0), BuildingBlock: AJUNOK_clean_linker_0, # of connection points: 2
#     Edge 28, Type (0, 0), BuildingBlock: AJUNOK_clean_linker_0, # of connection points: 2
#     Edge 29, Type (0, 0), BuildingBlock: AJUNOK_clean_linker_0, # of connection points: 2
#     Edge 30, Type (0, 0), BuildingBlock: AJUNOK_clean_linker_0, # of connection points: 2
#     Edge 31, Type (0, 0), BuildingBlock: AJUNOK_clean_linker_0, # of connection points: 2
#     Edge 32, Type (0, 0), BuildingBlock: AJUNOK_clean_linker_0, # of connection points: 2
#     Edge 33, Type (0, 0), BuildingBlock: AJUNOK_clean_linker_0, # of connection points: 2
#     Edge 34, Type (0, 0), BuildingBlock: AJUNOK_clean_linker_0, # of connection points: 2
#     Edge 35, Type (0, 0), BuildingBlock: AJUNOK_clean_linker_0, # of connection points: 2
#     Edge 36, Type (0, 0), BuildingBlock: AJUNOK_clean_linker_0, # of connection points: 2
#     Edge 37, Type (0, 0), BuildingBlock: AJUNOK_clean_linker_0, # of connection points: 2
#     Edge 38, Type (0, 0), BuildingBlock: AJUNOK_clean_linker_0, # of connection points: 2
#     Edge 39, Type (0, 0), BuildingBlock: AJUNOK_clean_linker_0, # of connection points: 2
#     Edge 40, Type (0, 0), BuildingBlock: AJUNOK_clean_linker_0, # of connection points: 2
#     Edge 41, Type (0, 0), BuildingBlock: AJUNOK_clean_linker_0, # of connection points: 2
#     Edge 42, Type (0, 0), BuildingBlock: AJUNOK_clean_linker_0, # of connection points: 2
#     Edge 43, Type (0, 0), BuildingBlock: AJUNOK_clean_linker_0, # of connection points: 2
#     Edge 44, Type (0, 0), BuildingBlock: AJUNOK_clean_linker_0, # of connection points: 2
#     Edge 45, Type (0, 0), BuildingBlock: AJUNOK_clean_linker_0, # of connection points: 2
#     Edge 46, Type (0, 0), BuildingBlock: AJUNOK_clean_linker_0, # of connection points: 2
#     Edge 47, Type (0, 0), BuildingBlock: AJUNOK_clean_linker_0, # of connection points: 2
#     Edge 48, Type (0, 0), BuildingBlock: AJUNOK_clean_linker_0, # of connection points: 2
#     Edge 49, Type (0, 0), BuildingBlock: AJUNOK_clean_linker_0, # of connection points: 2
#     Edge 50, Type (0, 0), BuildingBlock: AJUNOK_clean_linker_0, # of connection points: 2
#     Edge 51, Type (0, 0), BuildingBlock: AJUNOK_clean_linker_0, # of connection points: 2
#     Edge 52, Type (0, 0), BuildingBlock: AJUNOK_clean_linker_0, # of connection points: 2
#     Edge 53, Type (0, 0), BuildingBlock: AJUNOK_clean_linker_0, # of connection points: 2
#     Edge 54, Type (0, 0), BuildingBlock: AJUNOK_clean_linker_0, # of connection points: 2
#     Edge 55, Type (0, 0), BuildingBlock: AJUNOK_clean_linker_0, # of connection points: 2
#     Edge 56, Type (0, 0), BuildingBlock: AJUNOK_clean_linker_0, # of connection points: 2
#     Edge 57, Type (0, 0), BuildingBlock: AJUNOK_clean_linker_0, # of connection points: 2
#     Edge 58, Type (0, 0), BuildingBlock: AJUNOK_clean_linker_0, # of connection points: 2
#     Edge 59, Type (0, 0), BuildingBlock: AJUNOK_clean_linker_0, # of connection points: 2
#     Edge 60, Type (0, 0), BuildingBlock: AJUNOK_clean_linker_0, # of connection points: 2
#     Edge 61, Type (0, 0), BuildingBlock: AJUNOK_clean_linker_0, # of connection points: 2
#     Edge 62, Type (0, 0), BuildingBlock: AJUNOK_clean_linker_0, # of connection points: 2
#     Edge 63, Type (0, 0), BuildingBlock: AJUNOK_clean_linker_0, # of connection points: 2
#     Edge 64, Type (0, 0), BuildingBlock: AJUNOK_clean_linker_0, # of connection points: 2
#     Edge 65, Type (0, 0), BuildingBlock: AJUNOK_clean_linker_0, # of connection points: 2
#     Edge 66, Type (0, 0), BuildingBlock: AJUNOK_clean_linker_0, # of connection points: 2
#     Edge 67, Type (0, 0), BuildingBlock: AJUNOK_clean_linker_0, # of connection points: 2
#     Edge 68, Type (0, 0), BuildingBlock: AJUNOK_clean_linker_0, # of connection points: 2
#     Edge 69, Type (0, 0), BuildingBlock: AJUNOK_clean_linker_0, # of connection points: 2
#     Edge 70, Type (0, 0), BuildingBlock: AJUNOK_clean_linker_0, # of connection points: 2
#     Edge 71, Type (0, 0), BuildingBlock: AJUNOK_clean_linker_0, # of connection points: 2
# Relax obj value: 0.135
# Max RMSD: 0.138
# Mean RMSD: 0.138
data_MOF--net-afi--node1-GALJAG_clean_sbu_0--edge1-AJUNOK_clean_linker_0
_symmetry_space_group_name_H-M    P1
_symmetry_Int_Tables_number       1
_symmetry_cell_setting            triclinic
loop_
_symmetry_equiv_pos_as_xyz
'x, y, z'
_cell_length_a     50.061361
_cell_length_b     49.945675
_cell_length_c     29.583195
_cell_angle_alpha  90.030783
_cell_angle_beta   90.016536
_cell_angle_gamma 119.96165
loop_
_atom_site_label
_atom_site_type_symbol
_atom_site_fract_x
_atom_site_fract_y
_atom_site_fract_z
_atom_type_partial_charge
In0 In 0.46321 0.12534 0.18671 0.0
O1 O 0.48833 0.143 0.11965 0.0
O2 O 0.43956 0.12084 0.11849 0.0
C3 C 0.51875 0.13104 0.20555 0.0
C4 C 0.45603 0.17113 0.2237 0.0
C5 C 0.42209 0.069 0.22127 0.0
O6 O 0.51298 0.15267 0.21093 0.0
O7 O 0.4966 0.10648 0.18971 0.0
O8 O 0.43529 0.09309 0.24512 0.0
O9 O 0.42887 0.07355 0.17995 0.0
C10 C 0.46433 0.1339 0.09615 0.0
O11 O 0.44038 0.15566 0.19009 0.0
O12 O 0.47395 0.16255 0.2392 0.0
In13 In 0.34269 0.46206 0.19259 0.0
O14 O 0.31497 0.46794 0.24866 0.0
O15 O 0.28988 0.4409 0.19241 0.0
C16 C 0.3584 0.42033 0.22338 0.0
C17 C 0.33556 0.46427 0.1023 0.0
C18 C 0.39136 0.51831 0.21277 0.0
O19 O 0.34753 0.43284 0.24867 0.0
O20 O 0.36051 0.4282 0.18257 0.0
O21 O 0.39447 0.49711 0.19475 0.0
O22 O 0.3638 0.51127 0.21988 0.0
C23 C 0.2891 0.45272 0.22975 0.0
O24 O 0.34977 0.48811 0.12653 0.0
O25 O 0.32424 0.43913 0.12386 0.0
In26 In 0.88893 0.33939 0.18927 0.0
O27 O 0.87886 0.35112 0.11953 0.0
O28 O 0.89237 0.31713 0.1233 0.0
C29 C 0.88604 0.38831 0.2229 0.0
C30 C 0.83928 0.28616 0.21851 0.0
C31 C 0.94799 0.35754 0.21243 0.0
O32 O 0.87998 0.37974 0.18226 0.0
O33 O 0.89318 0.37192 0.24684 0.0
O34 O 0.9254 0.3407 0.23762 0.0
O35 O 0.94066 0.36469 0.17547 0.0
C36 C 0.88449 0.33256 0.09844 0.0
O37 O 0.86493 0.28819 0.21033 0.0
O38 O 0.83893 0.31092 0.21249 0.0
In39 In 0.55156 0.88167 0.18826 0.0
O40 O 0.53 0.8581 0.12119 0.0
O41 O 0.57397 0.8986 0.11906 0.0
C42 C 0.49752 0.87495 0.21728 0.0
C43 C 0.55922 0.83541 0.22277 0.0
C44 C 0.58931 0.94044 0.21659 0.0
O45 O 0.50286 0.87288 0.17604 0.0
O46 O 0.51916 0.87944 0.24385 0.0
O47 O 0.59715 0.92009 0.21965 0.0
O48 O 0.56342 0.9313 0.19865 0.0
C49 C 0.55201 0.87734 0.09709 0.0
O50 O 0.5776 0.85464 0.19449 0.0
O51 O 0.53762 0.83999 0.23418 0.0
In52 In 0.67462 0.54852 0.18864 0.0
O53 O 0.72729 0.57114 0.19168 0.0
O54 O 0.70116 0.54229 0.24611 0.0
C55 C 0.65482 0.58776 0.21508 0.0
C56 C 0.68607 0.54833 0.09944 0.0
C57 C 0.62556 0.4926 0.20983 0.0
O58 O 0.67411 0.58435 0.23817 0.0
O59 O 0.64719 0.57279 0.17872 0.0
O60 O 0.65268 0.50079 0.22217 0.0
O61 O 0.62336 0.51228 0.18597 0.0
C62 C 0.72744 0.55857 0.22864 0.0
O63 O 0.67397 0.52408 0.12312 0.0
O64 O 0.69314 0.57275 0.12113 0.0
In65 In 0.12857 0.67354 0.19506 0.0
O66 O 0.13695 0.6609 0.12492 0.0
O67 O 0.12669 0.69718 0.12948 0.0
C68 C 0.13026 0.62371 0.22704 0.0
C69 C 0.17908 0.72462 0.22797 0.0
C70 C 0.06997 0.65669 0.21888 0.0
O71 O 0.13898 0.63422 0.18772 0.0
O72 O 0.12093 0.63856 0.25045 0.0
O73 O 0.09298 0.67436 0.24286 0.0
O74 O 0.07667 0.64824 0.18251 0.0
C75 C 0.1328 0.68055 0.10422 0.0
O76 O 0.15496 0.72488 0.21649 0.0
O77 O 0.17752 0.6989 0.22271 0.0
In78 In 0.88664 0.55109 0.3123 0.0
O79 O 0.86408 0.57619 0.27744 0.0
O80 O 0.8351 0.53363 0.30999 0.0
C81 C 0.94297 0.59331 0.28054 0.0
C82 C 0.88282 0.55174 0.40317 0.0
C83 C 0.88543 0.49863 0.28549 0.0
O84 O 0.92141 0.57464 0.25516 0.0
O85 O 0.93573 0.59137 0.32171 0.0
O86 O 0.90007 0.51396 0.31974 0.0
O87 O 0.87136 0.50984 0.26435 0.0
C88 C 0.83696 0.55612 0.2882 0.0
O89 O 0.87464 0.52749 0.38047 0.0
O90 O 0.89319 0.57613 0.37988 0.0
In91 In 0.34321 0.88513 0.31756 0.0
O92 O 0.35558 0.87368 0.38566 0.0
O93 O 0.32217 0.88802 0.38512 0.0
C94 C 0.39138 0.88147 0.28317 0.0
C95 C 0.28994 0.83422 0.29227 0.0
C96 C 0.35951 0.94335 0.29044 0.0
O97 O 0.39046 0.88913 0.3235 0.0
O98 O 0.36811 0.87604 0.25986 0.0
O99 O 0.34623 0.92021 0.26468 0.0
O100 O 0.36374 0.93696 0.33001 0.0
C101 C 0.33775 0.87945 0.40839 0.0
O102 O 0.29261 0.86073 0.29337 0.0
O103 O 0.31384 0.83373 0.30411 0.0
In104 In 0.46167 0.33738 0.30894 0.0
O105 O 0.47862 0.35674 0.37911 0.0
O106 O 0.43762 0.31307 0.37483 0.0
C107 C 0.515 0.38334 0.27364 0.0
C108 C 0.45779 0.28329 0.28312 0.0
C109 C 0.42041 0.35494 0.28493 0.0
O110 O 0.5137 0.37078 0.3111 0.0
O111 O 0.48943 0.37264 0.25372 0.0
O112 O 0.42837 0.3403 0.25847 0.0
O113 O 0.43272 0.36 0.32349 0.0
C114 C 0.45722 0.33422 0.40001 0.0
O115 O 0.43544 0.28806 0.27872 0.0
O116 O 0.48163 0.30571 0.29962 0.0
In117 In 0.12998 0.46057 0.31285 0.0
O118 O 0.1522 0.43443 0.28001 0.0
O119 O 0.18153 0.47831 0.30895 0.0
C120 C 0.0744 0.41963 0.27735 0.0
C121 C 0.13358 0.45999 0.40388 0.0
C122 C 0.13089 0.51301 0.2871 0.0
O123 O 0.09715 0.43786 0.25348 0.0
O124 O 0.08006 0.42117 0.31914 0.0
O125 O 0.11569 0.49701 0.32048 0.0
O126 O 0.14573 0.50251 0.26631 0.0
C127 C 0.17946 0.45512 0.28892 0.0
O128 O 0.14343 0.48434 0.3809 0.0
O129 O 0.12165 0.43537 0.38082 0.0
In130 In 0.67458 0.126 0.30644 0.0
O131 O 0.7245 0.14835 0.28028 0.0
O132 O 0.70411 0.17647 0.28641 0.0
C133 C 0.65358 0.06615 0.2847 0.0
C134 C 0.67876 0.1275 0.3979 0.0
C135 C 0.63041 0.13399 0.26688 0.0
O136 O 0.67784 0.08779 0.26732 0.0
O137 O 0.64081 0.07477 0.31334 0.0
O138 O 0.64235 0.14577 0.30453 0.0
O139 O 0.64136 0.11877 0.24833 0.0
C140 C 0.72768 0.17493 0.27597 0.0
O141 O 0.65699 0.12748 0.37663 0.0
O142 O 0.69882 0.12675 0.37301 0.0
In143 In 0.5536 0.67046 0.31358 0.0
O144 O 0.53526 0.6483 0.38202 0.0
O145 O 0.57883 0.68914 0.38133 0.0
C146 C 0.49945 0.63035 0.27424 0.0
C147 C 0.55974 0.72519 0.28609 0.0
C148 C 0.58982 0.64778 0.28572 0.0
O149 O 0.50134 0.63918 0.31472 0.0
O150 O 0.52471 0.64283 0.25305 0.0
O151 O 0.60111 0.67613 0.29487 0.0
O152 O 0.56125 0.63155 0.29206 0.0
C153 C 0.55788 0.66792 0.40469 0.0
O154 O 0.5757 0.71443 0.26973 0.0
O155 O 0.54108 0.7085 0.3162 0.0
In156 In 0.55504 0.88523 0.80966 0.0
O157 O 0.52936 0.86485 0.87599 0.0
O158 O 0.57786 0.8945 0.87889 0.0
C159 C 0.50071 0.88174 0.78847 0.0
C160 C 0.56513 0.84031 0.77641 0.0
C161 C 0.59738 0.94113 0.77594 0.0
O162 O 0.52327 0.90577 0.80463 0.0
O163 O 0.50529 0.85924 0.7841 0.0
O164 O 0.58366 0.91731 0.75157 0.0
O165 O 0.59049 0.93641 0.81719 0.0
C166 C 0.55319 0.87812 0.9004 0.0
O167 O 0.5486 0.84917 0.75671 0.0
O168 O 0.57747 0.85481 0.81236 0.0
In169 In 0.6746 0.54678 0.81378 0.0
O170 O 0.72532 0.57559 0.79224 0.0
O171 O 0.70269 0.52707 0.78288 0.0
C172 C 0.65413 0.58601 0.79145 0.0
C173 C 0.68609 0.54802 0.90325 0.0
C174 C 0.62376 0.49484 0.78564 0.0
O175 O 0.67384 0.58366 0.76776 0.0
O176 O 0.646 0.5696 0.82657 0.0
O177 O 0.62984 0.50199 0.82672 0.0
O178 O 0.64372 0.51374 0.75845 0.0
C179 C 0.72731 0.5526 0.77913 0.0
O180 O 0.67472 0.52367 0.8799 0.0
O181 O 0.69238 0.57209 0.88117 0.0
In182 In 0.12868 0.67453 0.81687 0.0
O183 O 0.15289 0.7235 0.78638 0.0
O184 O 0.18054 0.70526 0.80965 0.0
C185 C 0.07241 0.66082 0.78534 0.0
C186 C 0.13279 0.68092 0.90759 0.0
C187 C 0.12825 0.62268 0.78875 0.0
O188 O 0.07865 0.66236 0.82684 0.0
O189 O 0.09493 0.66735 0.75962 0.0
O190 O 0.1162 0.62423 0.82533 0.0
O191 O 0.14073 0.64744 0.76623 0.0
C192 C 0.17974 0.72782 0.79215 0.0
O193 O 0.13951 0.66318 0.8863 0.0
O194 O 0.12413 0.69581 0.88293 0.0
In195 In 0.46328 0.13057 0.80837 0.0
O196 O 0.4354 0.15168 0.77859 0.0
O197 O 0.48189 0.18195 0.79687 0.0
C198 C 0.42154 0.07395 0.77626 0.0
C199 C 0.46431 0.13635 0.89941 0.0
C200 C 0.51499 0.13178 0.77849 0.0
O201 O 0.43799 0.09657 0.75089 0.0
O202 O 0.42537 0.08021 0.81787 0.0
O203 O 0.49991 0.11612 0.81226 0.0
O204 O 0.50395 0.14683 0.75983 0.0
C205 C 0.45738 0.17919 0.78061 0.0
O206 O 0.48814 0.14428 0.87601 0.0
O207 O 0.43969 0.12568 0.87677 0.0
In208 In 0.3418 0.46756 0.81465 0.0
O209 O 0.29342 0.43961 0.78313 0.0
O210 O 0.30842 0.48541 0.80431 0.0
C211 C 0.35833 0.42711 0.78175 0.0
C212 C 0.33601 0.46683 0.90562 0.0
C213 C 0.39143 0.52136 0.78896 0.0
O214 O 0.35335 0.42886 0.8231 0.0
O215 O 0.35439 0.44534 0.75688 0.0
O216 O 0.39133 0.50652 0.82351 0.0
O217 O 0.36656 0.50875 0.76677 0.0
C218 C 0.28725 0.46111 0.78667 0.0
O219 O 0.35205 0.49113 0.88318 0.0
O220 O 0.32253 0.44252 0.88207 0.0
In221 In 0.88541 0.33772 0.81121 0.0
O222 O 0.85966 0.28699 0.78768 0.0
O223 O 0.83419 0.3101 0.79509 0.0
C224 C 0.9421 0.35279 0.78008 0.0
C225 C 0.88164 0.33077 0.90182 0.0
C226 C 0.88597 0.38908 0.78076 0.0
O227 O 0.91828 0.34001 0.75572 0.0
O228 O 0.93713 0.3568 0.82058 0.0
O229 O 0.89042 0.38538 0.82167 0.0
O230 O 0.88089 0.36672 0.7554 0.0
C231 C 0.83381 0.28549 0.78454 0.0
O232 O 0.87337 0.34742 0.88086 0.0
O233 O 0.89152 0.31705 0.87684 0.0
In234 In 0.12621 0.46083 0.69129 0.0
O235 O 0.15205 0.43455 0.70697 0.0
O236 O 0.17398 0.4821 0.72298 0.0
C237 C 0.06793 0.4184 0.71485 0.0
C238 C 0.13273 0.46051 0.60063 0.0
C239 C 0.12608 0.5115 0.72358 0.0
O240 O 0.09093 0.42439 0.73929 0.0
O241 O 0.07445 0.43343 0.67841 0.0
O242 O 0.13139 0.50868 0.68269 0.0
O243 O 0.12089 0.48877 0.74817 0.0
C244 C 0.17558 0.45776 0.72286 0.0
O245 O 0.14332 0.48493 0.62373 0.0
O246 O 0.11902 0.43592 0.62344 0.0
In247 In 0.67293 0.12515 0.68571 0.0
O248 O 0.65384 0.12224 0.61526 0.0
O249 O 0.69987 0.13119 0.62004 0.0
C250 C 0.62402 0.12927 0.7157 0.0
C251 C 0.72391 0.17545 0.71897 0.0
C252 C 0.65871 0.06727 0.71048 0.0
O253 O 0.63863 0.14241 0.68021 0.0
O254 O 0.63421 0.11412 0.73638 0.0
O255 O 0.6715 0.09008 0.73701 0.0
O256 O 0.65379 0.07388 0.67142 0.0
C257 C 0.67789 0.12717 0.59462 0.0
O258 O 0.7235 0.15056 0.70997 0.0
O259 O 0.69886 0.17472 0.71116 0.0
In260 In 0.55618 0.67264 0.6923 0.0
O261 O 0.53795 0.64848 0.62498 0.0
O262 O 0.58035 0.69072 0.62391 0.0
C263 C 0.50037 0.63253 0.72662 0.0
C264 C 0.56387 0.72849 0.71719 0.0
C265 C 0.59127 0.64971 0.72585 0.0
O266 O 0.50517 0.6368 0.6846 0.0
O267 O 0.5233 0.64979 0.7511 0.0
O268 O 0.60283 0.67355 0.70127 0.0
O269 O 0.56287 0.63801 0.73243 0.0
C270 C 0.55972 0.66851 0.60145 0.0
O271 O 0.57963 0.71761 0.73385 0.0
O272 O 0.54461 0.71138 0.68794 0.0
In273 In 0.88955 0.55288 0.69025 0.0
O274 O 0.86496 0.5796 0.71052 0.0
O275 O 0.83929 0.53072 0.71147 0.0
C276 C 0.94668 0.5954 0.719 0.0
C277 C 0.88267 0.55281 0.59979 0.0
C278 C 0.8897 0.50152 0.71887 0.0
O279 O 0.92309 0.58563 0.74367 0.0
O280 O 0.94126 0.58423 0.67965 0.0
O281 O 0.89495 0.51083 0.67856 0.0
O282 O 0.88476 0.51843 0.74529 0.0
C283 C 0.83934 0.55566 0.71785 0.0
O284 O 0.87215 0.52857 0.62318 0.0
O285 O 0.89633 0.57761 0.62228 0.0
In286 In 0.34212 0.88709 0.69625 0.0
O287 O 0.35738 0.87802 0.6283 0.0
O288 O 0.31972 0.88615 0.62801 0.0
C289 C 0.391 0.88331 0.727 0.0
C290 C 0.29035 0.83957 0.73345 0.0
C291 C 0.35815 0.94615 0.7168 0.0
O292 O 0.37271 0.86525 0.69736 0.0
O293 O 0.38463 0.90334 0.7411 0.0
O294 O 0.34213 0.92383 0.74305 0.0
O295 O 0.36537 0.93844 0.68024 0.0
C296 C 0.33756 0.88044 0.60516 0.0
O297 O 0.28947 0.85944 0.70822 0.0
O298 O 0.3171 0.84428 0.74054 0.0
In299 In 0.45761 0.34129 0.68782 0.0
O300 O 0.47951 0.31354 0.71294 0.0
O301 O 0.431 0.28942 0.7056 0.0
C302 C 0.41802 0.36062 0.71448 0.0
C303 C 0.45539 0.33536 0.59679 0.0
C304 C 0.5104 0.38857 0.72124 0.0
O305 O 0.42245 0.34182 0.73716 0.0
O306 O 0.43276 0.36879 0.67784 0.0
O307 O 0.50642 0.38184 0.67975 0.0
O308 O 0.48771 0.37129 0.746 0.0
C309 C 0.45472 0.28822 0.71659 0.0
O310 O 0.47901 0.35475 0.61808 0.0
O311 O 0.43252 0.31847 0.62154 0.0
C312 C 0.38836 0.01192 0.211 0.0
C313 C 0.40279 0.03751 0.24029 0.0
C314 C 0.37316 0.98158 0.22767 0.0
C315 C 0.37196 0.97557 0.2743 0.0
H316 H 0.38956 0.01526 0.17472 0.0
H317 H 0.3633 0.9627 0.20361 0.0
S318 S 0.40362 0.03442 0.36564 0.0
N319 N 0.41295 0.05481 0.31851 0.0
N320 N 0.3846 0.99784 0.3498 0.0
C321 C 0.38507 1.00095 0.30412 0.0
C322 C 0.4004 0.03189 0.28714 0.0
C323 C 0.39599 0.37046 0.22425 0.0
C324 C 0.4009 0.36805 0.27052 0.0
C325 C 0.38119 0.38643 0.20944 0.0
C326 C 0.37044 0.40038 0.24031 0.0
H327 H 0.40474 0.36102 0.1991 0.0
H328 H 0.37895 0.38858 0.17339 0.0
S329 S 0.37465 0.3979 0.36541 0.0
N330 N 0.39176 0.37895 0.34733 0.0
N331 N 0.3637 0.40867 0.31955 0.0
C332 C 0.37375 0.39674 0.28678 0.0
C333 C 0.38906 0.38068 0.30185 0.0
C334 C 0.98742 0.36781 0.27218 0.0
C335 C 0.98052 0.37021 0.22676 0.0
C336 C 0.01797 0.38277 0.28783 0.0
C337 C 0.04283 0.4006 0.25864 0.0
H338 H 0.96905 0.35523 0.29629 0.0
H339 H 0.02199 0.38115 0.32344 0.0
S340 S 0.03735 0.41139 0.13546 0.0
N341 N 1.00123 0.38976 0.15197 0.0
N342 N 0.05855 0.41771 0.18124 0.0
C343 C 0.03634 0.40184 0.21263 0.0
C344 C 1.00522 0.38672 0.19674 0.0
C345 C 0.59104 0.98518 0.2554 0.0
C346 C 0.60717 0.97187 0.23564 0.0
C347 C 0.60654 0.01532 0.27239 0.0
C348 C 0.63878 0.03369 0.26921 0.0
H349 H 0.56611 0.97216 0.25782 0.0
H350 H 0.59298 0.02457 0.28696 0.0
S351 S 0.69181 0.00954 0.2208 0.0
N352 N 0.65719 0.97882 0.21487 0.0
N353 N 0.68648 0.03627 0.2453 0.0
C354 C 0.65531 0.02066 0.24971 0.0
C355 C 0.63947 0.9895 0.23339 0.0
C356 C 0.63774 0.64355 0.27985 0.0
C357 C 0.6075 0.63431 0.26581 0.0
C358 C 0.65329 0.62861 0.26322 0.0
C359 C 0.63935 0.60467 0.2311 0.0
H360 H 0.649 0.66168 0.30485 0.0
H361 H 0.67625 0.63574 0.27562 0.0
S362 S 0.561 0.57329 0.18197 0.0
N363 N 0.5646 0.60049 0.21724 0.0
N364 N 0.59382 0.57312 0.1852 0.0
C365 C 0.60947 0.59603 0.2159 0.0
C366 C 0.59354 0.61068 0.23346 0.0
C367 C 0.01331 0.62464 0.20482 0.0
C368 C 0.03759 0.6443 0.23375 0.0
C369 C 0.98262 0.60945 0.21961 0.0
C370 C 0.97496 0.61317 0.26403 0.0
H371 H 0.01806 0.62014 0.1708 0.0
H372 H 0.96492 0.59375 0.19648 0.0
S373 S 0.0296 0.66444 0.35188 0.0
N374 N 0.05164 0.66851 0.30793 0.0
N375 N 0.99398 0.63985 0.33581 0.0
C376 C 0.99884 0.63393 0.29267 0.0
C377 C 0.03013 0.64953 0.27751 0.0
C378 C 0.63159 0.9979 0.78756 0.0
C379 C 0.617 0.9727 0.75761 0.0
C380 C 0.64647 0.02843 0.77178 0.0
C381 C 0.64718 0.03499 0.72544 0.0
H382 H 0.63059 0.9941 0.82372 0.0
H383 H 0.6563 0.04699 0.79635 0.0
S384 S 0.61549 0.97736 0.6325 0.0
N385 N 0.60656 0.95637 0.679 0.0
N386 N 0.63436 0.01374 0.64935 0.0
C387 C 0.63419 0.01003 0.69488 0.0
C388 C 0.61916 0.9789 0.71096 0.0
C389 C 0.65191 0.62576 0.74186 0.0
C390 C 0.63954 0.60426 0.77749 0.0
C391 C 0.63688 0.64143 0.72619 0.0
C392 C 0.60874 0.63569 0.74514 0.0
H393 H 0.6731 0.63021 0.72555 0.0
H394 H 0.64685 0.65734 0.69815 0.0
S395 S 0.56727 0.58253 0.84037 0.0
N396 N 0.59801 0.57905 0.83232 0.0
N397 N 0.5698 0.60801 0.80268 0.0
C398 C 0.59657 0.61481 0.78147 0.0
C399 C 0.61195 0.59922 0.7977 0.0
C400 C 1.00363 0.6245 0.70642 0.0
C401 C 0.97849 0.61595 0.7357 0.0
C402 C 0.03405 0.64051 0.72235 0.0
C403 C 0.04055 0.64851 0.76825 0.0
H404 H 0.99983 0.61786 0.67111 0.0
H405 H 0.05252 0.64548 0.69878 0.0
S406 S 0.98319 0.63471 0.85791 0.0
N407 N 0.96227 0.61912 0.81208 0.0
N408 N 0.01943 0.64911 0.84207 0.0
C409 C 0.01573 0.64163 0.79743 0.0
C410 C 0.98471 0.62538 0.78115 0.0
C411 C 0.38498 0.01767 0.78962 0.0
C412 C 0.40189 0.04199 0.75909 0.0
C413 C 0.36953 0.98675 0.77526 0.0
C414 C 0.37056 0.97894 0.72985 0.0
H415 H 0.3845 0.02241 0.82526 0.0
H416 H 0.35781 0.96881 0.80034 0.0
S417 S 0.40881 0.03406 0.63546 0.0
N418 N 0.41653 0.05621 0.68056 0.0
N419 N 0.38771 0.99821 0.65368 0.0
C420 C 0.38604 1.0031 0.69854 0.0
C421 C 0.40163 0.03459 0.71312 0.0
C422 C 0.3816 0.41143 0.71968 0.0
C423 C 0.37029 0.40726 0.76417 0.0
C424 C 0.39599 0.3954 0.70348 0.0
C425 C 0.39949 0.37437 0.73099 0.0
H426 H 0.38026 0.42798 0.69751 0.0
H427 H 0.40514 0.40018 0.66942 0.0
S428 S 0.3713 0.35292 0.84882 0.0
N429 N 0.36173 0.37899 0.8346 0.0
N430 N 0.38859 0.34871 0.80408 0.0
C431 C 0.38705 0.36892 0.77491 0.0
C432 C 0.37253 0.3854 0.79152 0.0
C433 C 0.02925 0.39115 0.77594 0.0
C434 C 0.03576 0.39788 0.72974 0.0
C435 C 0.99878 0.37539 0.79175 0.0
C436 C 0.97369 0.36535 0.76188 0.0
H437 H 0.04781 0.39931 0.80038 0.0
H438 H 0.99492 0.37183 0.82782 0.0
S439 S 0.97836 0.37445 0.6371 0.0
N440 N 0.01464 0.3914 0.6539 0.0
N441 N 0.9574 0.36136 0.68346 0.0
C442 C 0.97987 0.37041 0.71531 0.0
C443 C 0.0109 0.38682 0.69928 0.0
C444 C 0.43284 0.20565 0.22683 0.0
C445 C 0.45547 0.19868 0.24139 0.0
C446 C 0.43325 0.23271 0.2412 0.0
C447 C 0.45657 0.254 0.27007 0.0
H448 H 0.41484 0.19025 0.20384 0.0
H449 H 0.41556 0.23729 0.22879 0.0
S450 S 0.52068 0.24617 0.31899 0.0
N451 N 0.50134 0.21499 0.28751 0.0
N452 N 0.50231 0.26573 0.31383 0.0
C453 C 0.47904 0.24704 0.28537 0.0
C454 C 0.47843 0.21942 0.27123 0.0
C455 C 0.20555 0.43333 0.24122 0.0
C456 C 0.20698 0.45292 0.27647 0.0
C457 C 0.23205 0.43277 0.22694 0.0
C458 C 0.26082 0.45142 0.24789 0.0
H459 H 0.18402 0.419 0.22363 0.0
H460 H 0.23006 0.418 0.1988 0.0
S461 S 0.27616 0.50484 0.34441 0.0
N462 N 0.23909 0.49015 0.33363 0.0
N463 N 0.28861 0.48879 0.30748 0.0
C464 C 0.26221 0.4702 0.28437 0.0
C465 C 0.23538 0.47105 0.29846 0.0
C466 C 0.75728 0.23084 0.25579 0.0
C467 C 0.7566 0.20249 0.26081 0.0
C468 C 0.78412 0.2576 0.24228 0.0
C469 C 0.81152 0.25724 0.23324 0.0
H470 H 0.73687 0.2325 0.26238 0.0
H471 H 0.78329 0.27877 0.23892 0.0
S472 S 0.82215 0.18896 0.2413 0.0
N473 N 0.78579 0.17564 0.25566 0.0
N474 N 0.83637 0.22604 0.23024 0.0
C475 C 0.81127 0.22907 0.23809 0.0
C476 C 0.7838 0.20169 0.25184 0.0
C477 C 0.541 0.78965 0.27351 0.0
C478 C 0.56153 0.80868 0.23981 0.0
C479 C 0.54109 0.76313 0.28864 0.0
C480 C 0.56161 0.75436 0.2706 0.0
H481 H 0.52439 0.79503 0.28809 0.0
H482 H 0.52453 0.74913 0.31428 0.0
S483 S 0.62079 0.79677 0.18262 0.0
N484 N 0.60361 0.81738 0.18962 0.0
N485 N 0.60367 0.76738 0.21796 0.0
C486 C 0.58269 0.77345 0.23744 0.0
C487 C 0.58269 0.80064 0.22211 0.0
C488 C 0.78451 0.57895 0.22697 0.0
C489 C 0.75564 0.56002 0.2474 0.0
C490 C 0.81094 0.57825 0.24115 0.0
C491 C 0.80939 0.55828 0.27587 0.0
H492 H 0.78664 0.59399 0.19917 0.0
H493 H 0.83253 0.59279 0.22388 0.0
S494 S 0.73988 0.50561 0.34257 0.0
N495 N 0.72759 0.52203 0.30605 0.0
N496 N 0.77701 0.52046 0.33217 0.0
C497 C 0.78089 0.53994 0.29749 0.0
C498 C 0.7541 0.54089 0.28343 0.0
C499 C 0.20897 0.78122 0.24687 0.0
C500 C 0.20712 0.75215 0.24562 0.0
C501 C 0.23568 0.80763 0.26238 0.0
C502 C 0.26151 0.80595 0.27732 0.0
H503 H 0.18977 0.78368 0.23537 0.0
H504 H 0.23614 0.82955 0.26231 0.0
S505 S 0.26802 0.73508 0.2824 0.0
N506 N 0.23325 0.72319 0.26178 0.0
N507 N 0.28317 0.77255 0.29086 0.0
C508 C 0.25976 0.77692 0.27681 0.0
C509 C 0.23266 0.75012 0.26099 0.0
C510 C 0.55022 0.76992 0.70794 0.0
C511 C 0.56668 0.75828 0.73148 0.0
C512 C 0.55072 0.79696 0.72196 0.0
C513 C 0.56758 0.81347 0.76027 0.0
H514 H 0.53642 0.75782 0.67868 0.0
H515 H 0.53717 0.80456 0.70308 0.0
S516 S 0.61565 0.79351 0.83284 0.0
N517 N 0.60124 0.76597 0.79419 0.0
N518 N 0.60205 0.81674 0.82074 0.0
C519 C 0.58479 0.80255 0.78355 0.0
C520 C 0.58437 0.775 0.76911 0.0
C521 C 0.75626 0.52751 0.7503 0.0
C522 C 0.7562 0.55474 0.76225 0.0
C523 C 0.78322 0.52823 0.73587 0.0
C524 C 0.81131 0.55622 0.7326 0.0
H525 H 0.73533 0.50527 0.75245 0.0
H526 H 0.78194 0.50652 0.72734 0.0
S527 S 0.82364 0.63424 0.75919 0.0
N528 N 0.78666 0.61069 0.76939 0.0
N529 N 0.83743 0.61204 0.74201 0.0
C530 C 0.81162 0.58375 0.74393 0.0
C531 C 0.78406 0.58301 0.75881 0.0
C532 C 0.2328 0.80652 0.73963 0.0
C533 C 0.26241 0.81193 0.75101 0.0
C534 C 0.20614 0.77949 0.75357 0.0
C535 C 0.20809 0.75678 0.7792 0.0
H536 H 0.23016 0.82306 0.71924 0.0
H537 H 0.18387 0.77617 0.74353 0.0
S538 S 0.28007 0.76052 0.81994 0.0
N539 N 0.29197 0.79277 0.7911 0.0
N540 N 0.24209 0.74216 0.81696 0.0
C541 C 0.23754 0.76222 0.79158 0.0
C542 C 0.26462 0.78973 0.77759 0.0
C543 C 0.4808 0.26214 0.75235 0.0
C544 C 0.45406 0.25982 0.73299 0.0
C545 C 0.4814 0.23598 0.76792 0.0
C546 C 0.45532 0.20628 0.7646 0.0
H547 H 0.50158 0.28443 0.75568 0.0
H548 H 0.50264 0.23916 0.78249 0.0
S549 S 0.37951 0.18742 0.71599 0.0
N550 N 0.40074 0.22535 0.71111 0.0
N551 N 0.4019 0.17603 0.74014 0.0
C552 C 0.42833 0.20353 0.74533 0.0
C553 C 0.42769 0.23031 0.72962 0.0
C554 C 0.22698 0.48362 0.76051 0.0
C555 C 0.20316 0.45711 0.73964 0.0
C556 C 0.25379 0.48441 0.77587 0.0
C557 C 0.25803 0.45876 0.77092 0.0
H558 H 0.22503 0.50411 0.76498 0.0
H559 H 0.27144 0.50549 0.79151 0.0
S560 S 0.20256 0.38352 0.7188 0.0
N561 N 0.18539 0.40436 0.71507 0.0
N562 N 0.23597 0.40588 0.74388 0.0
C563 C 0.23433 0.43195 0.75039 0.0
C564 C 0.20686 0.43112 0.73479 0.0
C565 C 0.80618 0.23048 0.75747 0.0
C566 C 0.80542 0.25746 0.76892 0.0
C567 C 0.7797 0.20396 0.7417 0.0
C568 C 0.75148 0.20343 0.73668 0.0
H569 H 0.82742 0.22984 0.76046 0.0
H570 H 0.78147 0.18382 0.73307 0.0
S571 S 0.73703 0.26787 0.76287 0.0
N572 N 0.77383 0.28177 0.77476 0.0
N573 N 0.72432 0.23218 0.74519 0.0
C574 C 0.75037 0.23019 0.74839 0.0
C575 C 0.77725 0.25711 0.76448 0.0
C576 C 0.43735 0.12464 0.02159 0.0
C577 C 0.46507 0.13679 0.0462 0.0
C578 C 0.43734 0.12525 0.97417 0.0
C579 C 0.46504 0.13796 0.9495 0.0
H580 H 0.4154 0.11406 0.03901 0.0
H581 H 0.41538 0.11509 0.95675 0.0
S582 S 0.54403 0.17439 0.99781 0.0
N583 N 0.52108 0.16315 0.04227 0.0
N584 N 0.52106 0.16423 0.95338 0.0
C585 C 0.49297 0.15093 0.97372 0.0
C586 C 0.49298 0.15036 0.02197 0.0
C587 C 0.31944 0.4387 0.9795 0.0
C588 C 0.33433 0.46681 0.95567 0.0
C589 C 0.3193 0.43811 0.02692 0.0
C590 C 0.33396 0.4656 0.05235 0.0
H591 H 0.30833 0.41692 0.96144 0.0
H592 H 0.30808 0.41587 0.04372 0.0
S593 S 0.37462 0.5454 0.00625 0.0
N594 N 0.36296 0.52294 0.96117 0.0
N595 N 0.36262 0.52181 0.05005 0.0
C596 C 0.34816 0.4939 0.02894 0.0
C597 C 0.34837 0.4945 0.98069 0.0
C598 C 0.87189 0.34707 0.97674 0.0
C599 C 0.88114 0.32907 0.95186 0.0
C600 C 0.8727 0.3476 0.02399 0.0
C601 C 0.8827 0.33009 0.04849 0.0
H602 H 0.86436 0.36132 0.95962 0.0
H603 H 0.86569 0.36219 0.0414 0.0
S604 S 0.9082 0.27806 0.99968 0.0
N605 N 0.8998 0.29252 0.95529 0.0
N606 N 0.90122 0.29344 0.04436 0.0
C607 C 0.89142 0.31144 0.02418 0.0
C608 C 0.89066 0.31095 0.97583 0.0
C609 C 0.57873 0.89565 0.0228 0.0
C610 C 0.55184 0.87581 0.04706 0.0
C611 C 0.57904 0.89568 0.97545 0.0
C612 C 0.5524 0.87608 0.95041 0.0
H613 H 0.59973 0.91149 0.04048 0.0
H614 H 0.60026 0.91166 0.9584 0.0
S615 S 0.47615 0.81911 0.99765 0.0
N616 N 0.49798 0.83544 0.04247 0.0
N617 N 0.49851 0.83572 0.95344 0.0
C618 C 0.52543 0.85579 0.97419 0.0
C619 C 0.52517 0.85559 0.0225 0.0
C620 C 0.69959 0.57556 0.02498 0.0
C621 C 0.68926 0.54804 0.04967 0.0
C622 C 0.69957 0.57551 0.97761 0.0
C623 C 0.68926 0.54794 0.95305 0.0
H624 H 0.70689 0.59725 0.04229 0.0
H625 H 0.70686 0.59714 0.96018 0.0
S626 S 0.66246 0.47002 1.00157 0.0
N627 N 0.67037 0.49278 0.046 0.0
N628 N 0.67038 0.49265 0.95704 0.0
C629 C 0.68016 0.52046 0.97731 0.0
C630 C 0.68015 0.52052 0.02558 0.0
C631 C 0.14244 0.66414 0.98215 0.0
C632 C 0.13397 0.68286 0.9576 0.0
C633 C 0.14243 0.66406 0.02942 0.0
C634 C 0.13402 0.68274 0.05424 0.0
H635 H 0.14878 0.64902 0.96479 0.0
H636 H 0.14879 0.64889 0.04658 0.0
S637 S 0.11096 0.73688 0.0063 0.0
N638 N 0.11769 0.72128 0.96165 0.0
N639 N 0.11775 0.72116 0.05075 0.0
C640 C 0.12608 0.70209 0.03024 0.0
C641 C 0.12602 0.70212 0.98188 0.0
C642 C 0.89359 0.5797 0.52488 0.0
C643 C 0.88072 0.55202 0.54978 0.0
C644 C 0.89371 0.57944 0.47744 0.0
C645 C 0.88108 0.5515 0.45317 0.0
H646 H 0.90407 0.60179 0.54211 0.0
H647 H 0.90425 0.60134 0.45973 0.0
S648 S 0.84337 0.47254 0.50231 0.0
N649 N 0.85405 0.49582 0.54647 0.0
N650 N 0.85438 0.49535 0.45765 0.0
C651 C 0.86757 0.52364 0.47767 0.0
C652 C 0.86735 0.52389 0.52587 0.0
C653 C 0.31829 0.88723 0.53023 0.0
C654 C 0.33634 0.87809 0.55517 0.0
C655 C 0.31837 0.88705 0.48276 0.0
C656 C 0.33643 0.87761 0.45847 0.0
H657 H 0.30447 0.89523 0.54745 0.0
H658 H 0.30459 0.89488 0.46505 0.0
S659 S 0.38599 0.84925 0.50785 0.0
N660 N 0.3715 0.85778 0.552 0.0
N661 N 0.37159 0.85731 0.46312 0.0
C662 C 0.35386 0.86753 0.48306 0.0
C663 C 0.35384 0.86781 0.5313 0.0
C664 C 0.48038 0.35605 0.52227 0.0
C665 C 0.45488 0.33367 0.54673 0.0
C666 C 0.48076 0.35588 0.47501 0.0
C667 C 0.45575 0.3332 0.45007 0.0
H668 H 0.50027 0.37413 0.53971 0.0
H669 H 0.50097 0.37375 0.45794 0.0
S670 S 0.38345 0.26903 0.4977 0.0
N671 N 0.40392 0.28796 0.54246 0.0
N672 N 0.40474 0.28749 0.45335 0.0
C673 C 0.43013 0.31045 0.47397 0.0
C674 C 0.42967 0.31073 0.52234 0.0
C675 C 0.12008 0.43289 0.52612 0.0
C676 C 0.13488 0.46078 0.55062 0.0
C677 C 0.12023 0.43274 0.47867 0.0
C678 C 0.13514 0.46047 0.45395 0.0
H679 H 0.10781 0.41098 0.54367 0.0
H680 H 0.1081 0.41074 0.46128 0.0
S681 S 0.1789 0.53969 0.50197 0.0
N682 N 0.16603 0.51682 0.54649 0.0
N683 N 0.1663 0.51656 0.45764 0.0
C684 C 0.15068 0.48848 0.47807 0.0
C685 C 0.15055 0.48863 0.5263 0.0
C686 C 0.65499 0.12614 0.47239 0.0
C687 C 0.67992 0.12791 0.44796 0.0
C688 C 0.65477 0.12604 0.51964 0.0
C689 C 0.67953 0.12785 0.5446 0.0
H690 H 0.63525 0.12462 0.45493 0.0
H691 H 0.6349 0.12451 0.53668 0.0
S692 S 0.75068 0.13329 0.49704 0.0
N693 N 0.73025 0.13175 0.45226 0.0
N694 N 0.72991 0.13172 0.54139 0.0
C695 C 0.7048 0.12988 0.52073 0.0
C696 C 0.70496 0.12984 0.47237 0.0
C697 C 0.58319 0.69093 0.47892 0.0
C698 C 0.55899 0.66668 0.4547 0.0
C699 C 0.58366 0.69104 0.52638 0.0
C700 C 0.55998 0.66687 0.55139 0.0
H701 H 0.60164 0.71029 0.46117 0.0
H702 H 0.60245 0.7105 0.54354 0.0
S703 S 0.49227 0.59701 0.5041 0.0
N704 N 0.51141 0.61718 0.45937 0.0
N705 N 0.51231 0.61735 0.54821 0.0
C706 C 0.53609 0.64207 0.52753 0.0
C707 C 0.53559 0.64199 0.4793 0.0
C708 C 0.55615 0.11158 0.20389 0.0
C709 C 0.5486 0.13379 0.21861 0.0
C710 C 0.58339 0.11262 0.2181 0.0
C711 C 0.60382 0.13558 0.24818 0.0
H712 H 0.54071 0.09301 0.18165 0.0
H713 H 0.5879 0.09464 0.20669 0.0
S714 S 0.59556 0.20001 0.29495 0.0
N715 N 0.56458 0.18031 0.26328 0.0
N716 N 0.61539 0.18184 0.2906 0.0
C717 C 0.59694 0.15835 0.26228 0.0
C718 C 0.56945 0.15757 0.24732 0.0
C719 C 0.47315 0.58576 0.22117 0.0
C720 C 0.47099 0.60416 0.25541 0.0
C721 C 0.44716 0.55828 0.20703 0.0
C722 C 0.41795 0.5485 0.22597 0.0
H723 H 0.49531 0.59191 0.20648 0.0
H724 H 0.45009 0.54439 0.18152 0.0
S725 S 0.3996 0.58965 0.31432 0.0
N726 N 0.43713 0.61146 0.30645 0.0
N727 N 0.38812 0.56025 0.27912 0.0
C728 C 0.41524 0.56739 0.25884 0.0
C729 C 0.44181 0.5951 0.27378 0.0
C730 C 0.87289 0.45686 0.22861 0.0
C731 C 0.88516 0.47006 0.271 0.0
C732 C 0.87313 0.43035 0.21355 0.0
C733 C 0.88536 0.41579 0.24044 0.0
H734 H 0.86335 0.46729 0.20656 0.0
H735 H 0.86368 0.42126 0.18045 0.0
S736 S 0.91959 0.44065 0.35475 0.0
N737 N 0.90948 0.46624 0.34007 0.0
N738 N 0.90967 0.41633 0.31189 0.0
C739 C 0.89731 0.42848 0.28319 0.0
C740 C 0.89729 0.45562 0.29841 0.0
C741 C 0.46677 0.88081 0.2789 0.0
C742 C 0.46931 0.87466 0.23318 0.0
C743 C 0.44147 0.88286 0.29461 0.0
C744 C 0.41757 0.87873 0.26528 0.0
H745 H 0.48473 0.88458 0.3028 0.0
H746 H 0.44077 0.88788 0.33008 0.0
S747 S 0.41256 0.86116 0.14259 0.0
N748 N 0.44534 0.86377 0.1588 0.0
N749 N 0.39767 0.86747 0.18839 0.0
C750 C 0.4195 0.87204 0.21958 0.0
C751 C 0.44537 0.87003 0.20352 0.0
C752 C 0.56895 0.45503 0.20667 0.0
C753 C 0.59822 0.46325 0.22418 0.0
C754 C 0.5423 0.42865 0.22193 0.0
C755 C 0.54381 0.40963 0.25569 0.0
H756 H 0.56648 0.46935 0.18142 0.0
H757 H 0.52025 0.42363 0.208 0.0
S758 S 0.61494 0.41978 0.31068 0.0
N759 N 0.62725 0.44928 0.27554 0.0
N760 N 0.57711 0.39993 0.3046 0.0
C761 C 0.57297 0.4171 0.27271 0.0
C762 C 0.60018 0.44383 0.25683 0.0
C763 C 0.14413 0.58239 0.21734 0.0
C764 C 0.13068 0.59596 0.24382 0.0
C765 C 0.14438 0.55579 0.23182 0.0
C766 C 0.13098 0.54156 0.27318 0.0
H767 H 0.15454 0.59233 0.18505 0.0
H768 H 0.15489 0.54614 0.21013 0.0
S769 S 0.09317 0.56817 0.35554 0.0
N770 N 0.10399 0.59338 0.3138 0.0
N771 N 0.10428 0.54333 0.34088 0.0
C772 C 0.11761 0.55499 0.30016 0.0
C773 C 0.11752 0.58219 0.28553 0.0
C774 C 0.46673 0.90512 0.78544 0.0
C775 C 0.47181 0.88067 0.77411 0.0
C776 C 0.44032 0.90551 0.77062 0.0
C777 C 0.41809 0.88161 0.74347 0.0
H778 H 0.48337 0.92429 0.80575 0.0
H779 H 0.43759 0.92498 0.78 0.0
S780 S 0.42015 0.8119 0.70496 0.0
N781 N 0.45206 0.83156 0.73479 0.0
N782 N 0.40261 0.83244 0.70657 0.0
C783 C 0.4227 0.85683 0.73225 0.0
C784 C 0.44949 0.8563 0.74769 0.0
C785 C 0.59013 0.45982 0.72418 0.0
C786 C 0.59509 0.46704 0.77048 0.0
C787 C 0.56281 0.43425 0.70873 0.0
C788 C 0.53931 0.41493 0.73894 0.0
H789 H 0.60739 0.47411 0.69953 0.0
H790 H 0.56005 0.4298 0.6727 0.0
S791 S 0.54102 0.42346 0.86374 0.0
N792 N 0.57431 0.45249 0.84659 0.0
N793 N 0.52298 0.40455 0.8175 0.0
C794 C 0.54405 0.42171 0.78539 0.0
C795 C 0.57192 0.44771 0.80117 0.0
C796 C 0.13844 0.59289 0.72986 0.0
C797 C 0.12754 0.59408 0.77322 0.0
C798 C 0.13772 0.56605 0.71407 0.0
C799 C 0.1263 0.53941 0.74115 0.0
H800 H 0.14751 0.6128 0.70773 0.0
H801 H 0.14637 0.5663 0.68042 0.0
S802 S 0.09481 0.53036 0.85726 0.0
N803 N 0.10474 0.56608 0.84296 0.0
N804 N 0.10361 0.51581 0.81341 0.0
C805 C 0.11536 0.54027 0.78462 0.0
C806 C 0.11591 0.56754 0.8006 0.0
C807 C 0.57995 0.11359 0.76915 0.0
C808 C 0.59678 0.13097 0.73144 0.0
C809 C 0.55367 0.11414 0.78417 0.0
C810 C 0.54316 0.13213 0.76213 0.0
H811 H 0.58695 0.0992 0.78711 0.0
H812 H 0.54142 0.10019 0.8132 0.0
S813 S 0.57949 0.18259 0.66244 0.0
N814 N 0.60138 0.16722 0.67284 0.0
N815 N 0.55206 0.16828 0.70108 0.0
C816 C 0.55995 0.14989 0.72463 0.0
C817 C 0.58672 0.14931 0.70929 0.0
C818 C 0.41938 0.56354 0.73234 0.0
C819 C 0.41863 0.55097 0.7752 0.0
C820 C 0.44553 0.5906 0.71748 0.0
C821 C 0.47174 0.60636 0.74515 0.0
H822 H 0.39993 0.55199 0.70956 0.0
H823 H 0.4454 0.5989 0.68369 0.0
S824 S 0.48095 0.58392 0.86128 0.0
N825 N 0.44602 0.557 0.84582 0.0
N826 N 0.49494 0.60796 0.81813 0.0
C827 C 0.4709 0.59463 0.7887 0.0
C828 C 0.44442 0.5669 0.80364 0.0
C829 C 0.88746 0.43919 0.79494 0.0
C830 C 0.88684 0.41746 0.76402 0.0
C831 C 0.8883 0.46626 0.78006 0.0
C832 C 0.88891 0.4728 0.73372 0.0
H833 H 0.88711 0.43522 0.83098 0.0
H834 H 0.88864 0.48224 0.80514 0.0
S835 S 0.88784 0.42351 0.63889 0.0
N836 N 0.88693 0.40433 0.68484 0.0
N837 N 0.88879 0.45525 0.6569 0.0
C838 C 0.88844 0.45133 0.70242 0.0
C839 C 0.88732 0.42364 0.71756 0.0
loop_
_geom_bond_atom_site_label_1
_geom_bond_atom_site_label_2
_geom_bond_distance
_geom_bond_site_symmetry_2
_ccdc_geom_bond_type
In0 O1 2.294 . S
In0 O2 2.326 . S
In0 O6 2.266 . S
In0 O7 2.326 . S
In0 O8 2.266 . S
In0 O9 2.326 . S
In0 O11 2.294 . S
In0 O12 2.326 . S
O1 In0 2.294 . S
O1 C10 1.240 . S
O2 In0 2.326 . S
O2 C10 1.252 . S
C3 O6 1.252 . S
C3 O7 1.260 . S
C4 O11 1.240 . S
C4 O12 1.252 . S
C5 O8 1.252 . S
C5 O9 1.260 . S
O6 In0 2.266 . S
O6 C3 1.252 . S
O7 In0 2.326 . S
O7 C3 1.260 . S
O8 In0 2.266 . S
O8 C5 1.252 . S
O9 In0 2.326 . S
O9 C5 1.260 . S
C10 O1 1.240 . S
C10 O2 1.252 . S
O11 In0 2.294 . S
O11 C4 1.240 . S
O12 In0 2.326 . S
O12 C4 1.252 . S
In13 O14 2.294 . S
In13 O15 2.326 . S
In13 O19 2.266 . S
In13 O20 2.326 . S
In13 O21 2.266 . S
In13 O22 2.326 . S
In13 O24 2.294 . S
In13 O25 2.326 . S
O14 In13 2.294 . S
O14 C23 1.240 . S
O15 In13 2.326 . S
O15 C23 1.252 . S
C16 O19 1.252 . S
C16 O20 1.260 . S
C17 O24 1.240 . S
C17 O25 1.252 . S
C18 O21 1.252 . S
C18 O22 1.260 . S
O19 In13 2.266 . S
O19 C16 1.252 . S
O20 In13 2.326 . S
O20 C16 1.260 . S
O21 In13 2.266 . S
O21 C18 1.252 . S
O22 In13 2.326 . S
O22 C18 1.260 . S
C23 O14 1.240 . S
C23 O15 1.252 . S
O24 In13 2.294 . S
O24 C17 1.240 . S
O25 In13 2.326 . S
O25 C17 1.252 . S
In26 O27 2.294 . S
In26 O28 2.326 . S
In26 O32 2.266 . S
In26 O33 2.326 . S
In26 O34 2.266 . S
In26 O35 2.326 . S
In26 O37 2.294 . S
In26 O38 2.326 . S
O27 In26 2.294 . S
O27 C36 1.240 . S
O28 In26 2.326 . S
O28 C36 1.252 . S
C29 O32 1.252 . S
C29 O33 1.260 . S
C30 O37 1.240 . S
C30 O38 1.252 . S
C31 O34 1.252 . S
C31 O35 1.260 . S
O32 In26 2.266 . S
O32 C29 1.252 . S
O33 In26 2.326 . S
O33 C29 1.260 . S
O34 In26 2.266 . S
O34 C31 1.252 . S
O35 In26 2.326 . S
O35 C31 1.260 . S
C36 O27 1.240 . S
C36 O28 1.252 . S
O37 In26 2.294 . S
O37 C30 1.240 . S
O38 In26 2.326 . S
O38 C30 1.252 . S
In39 O40 2.294 . S
In39 O41 2.326 . S
In39 O45 2.266 . S
In39 O46 2.326 . S
In39 O47 2.266 . S
In39 O48 2.326 . S
In39 O50 2.294 . S
In39 O51 2.326 . S
O40 In39 2.294 . S
O40 C49 1.240 . S
O41 In39 2.326 . S
O41 C49 1.252 . S
C42 O45 1.252 . S
C42 O46 1.260 . S
C43 O50 1.240 . S
C43 O51 1.252 . S
C44 O47 1.252 . S
C44 O48 1.260 . S
O45 In39 2.266 . S
O45 C42 1.252 . S
O46 In39 2.326 . S
O46 C42 1.260 . S
O47 In39 2.266 . S
O47 C44 1.252 . S
O48 In39 2.326 . S
O48 C44 1.260 . S
C49 O40 1.240 . S
C49 O41 1.252 . S
O50 In39 2.294 . S
O50 C43 1.240 . S
O51 In39 2.326 . S
O51 C43 1.252 . S
In52 O53 2.294 . S
In52 O54 2.326 . S
In52 O58 2.266 . S
In52 O59 2.326 . S
In52 O60 2.266 . S
In52 O61 2.326 . S
In52 O63 2.294 . S
In52 O64 2.326 . S
O53 In52 2.294 . S
O53 C62 1.240 . S
O54 In52 2.326 . S
O54 C62 1.252 . S
C55 O58 1.252 . S
C55 O59 1.260 . S
C56 O63 1.240 . S
C56 O64 1.252 . S
C57 O60 1.252 . S
C57 O61 1.260 . S
O58 In52 2.266 . S
O58 C55 1.252 . S
O59 In52 2.326 . S
O59 C55 1.260 . S
O60 In52 2.266 . S
O60 C57 1.252 . S
O61 In52 2.326 . S
O61 C57 1.260 . S
C62 O53 1.240 . S
C62 O54 1.252 . S
O63 In52 2.294 . S
O63 C56 1.240 . S
O64 In52 2.326 . S
O64 C56 1.252 . S
In65 O66 2.294 . S
In65 O67 2.326 . S
In65 O71 2.266 . S
In65 O72 2.326 . S
In65 O73 2.266 . S
In65 O74 2.326 . S
In65 O76 2.294 . S
In65 O77 2.326 . S
O66 In65 2.294 . S
O66 C75 1.240 . S
O67 In65 2.326 . S
O67 C75 1.252 . S
C68 O71 1.252 . S
C68 O72 1.260 . S
C69 O76 1.240 . S
C69 O77 1.252 . S
C70 O73 1.252 . S
C70 O74 1.260 . S
O71 In65 2.266 . S
O71 C68 1.252 . S
O72 In65 2.326 . S
O72 C68 1.260 . S
O73 In65 2.266 . S
O73 C70 1.252 . S
O74 In65 2.326 . S
O74 C70 1.260 . S
C75 O66 1.240 . S
C75 O67 1.252 . S
O76 In65 2.294 . S
O76 C69 1.240 . S
O77 In65 2.326 . S
O77 C69 1.252 . S
In78 O79 2.294 . S
In78 O80 2.326 . S
In78 O84 2.266 . S
In78 O85 2.326 . S
In78 O86 2.266 . S
In78 O87 2.326 . S
In78 O89 2.294 . S
In78 O90 2.326 . S
O79 In78 2.294 . S
O79 C88 1.240 . S
O80 In78 2.326 . S
O80 C88 1.252 . S
C81 O84 1.252 . S
C81 O85 1.260 . S
C82 O89 1.240 . S
C82 O90 1.252 . S
C83 O86 1.252 . S
C83 O87 1.260 . S
O84 In78 2.266 . S
O84 C81 1.252 . S
O85 In78 2.326 . S
O85 C81 1.260 . S
O86 In78 2.266 . S
O86 C83 1.252 . S
O87 In78 2.326 . S
O87 C83 1.260 . S
C88 O79 1.240 . S
C88 O80 1.252 . S
O89 In78 2.294 . S
O89 C82 1.240 . S
O90 In78 2.326 . S
O90 C82 1.252 . S
In91 O92 2.294 . S
In91 O93 2.326 . S
In91 O97 2.266 . S
In91 O98 2.326 . S
In91 O99 2.266 . S
In91 O100 2.326 . S
In91 O102 2.294 . S
In91 O103 2.326 . S
O92 In91 2.294 . S
O92 C101 1.240 . S
O93 In91 2.326 . S
O93 C101 1.252 . S
C94 O97 1.252 . S
C94 O98 1.260 . S
C95 O102 1.240 . S
C95 O103 1.252 . S
C96 O99 1.252 . S
C96 O100 1.260 . S
O97 In91 2.266 . S
O97 C94 1.252 . S
O98 In91 2.326 . S
O98 C94 1.260 . S
O99 In91 2.266 . S
O99 C96 1.252 . S
O100 In91 2.326 . S
O100 C96 1.260 . S
C101 O92 1.240 . S
C101 O93 1.252 . S
O102 In91 2.294 . S
O102 C95 1.240 . S
O103 In91 2.326 . S
O103 C95 1.252 . S
In104 O105 2.294 . S
In104 O106 2.326 . S
In104 O110 2.266 . S
In104 O111 2.326 . S
In104 O112 2.266 . S
In104 O113 2.326 . S
In104 O115 2.294 . S
In104 O116 2.326 . S
O105 In104 2.294 . S
O105 C114 1.240 . S
O106 In104 2.326 . S
O106 C114 1.252 . S
C107 O110 1.252 . S
C107 O111 1.260 . S
C108 O115 1.240 . S
C108 O116 1.252 . S
C109 O112 1.252 . S
C109 O113 1.260 . S
O110 In104 2.266 . S
O110 C107 1.252 . S
O111 In104 2.326 . S
O111 C107 1.260 . S
O112 In104 2.266 . S
O112 C109 1.252 . S
O113 In104 2.326 . S
O113 C109 1.260 . S
C114 O105 1.240 . S
C114 O106 1.252 . S
O115 In104 2.294 . S
O115 C108 1.240 . S
O116 In104 2.326 . S
O116 C108 1.252 . S
In117 O118 2.294 . S
In117 O119 2.326 . S
In117 O123 2.266 . S
In117 O124 2.326 . S
In117 O125 2.266 . S
In117 O126 2.326 . S
In117 O128 2.294 . S
In117 O129 2.326 . S
O118 In117 2.294 . S
O118 C127 1.240 . S
O119 In117 2.326 . S
O119 C127 1.252 . S
C120 O123 1.252 . S
C120 O124 1.260 . S
C121 O128 1.240 . S
C121 O129 1.252 . S
C122 O125 1.252 . S
C122 O126 1.260 . S
O123 In117 2.266 . S
O123 C120 1.252 . S
O124 In117 2.326 . S
O124 C120 1.260 . S
O125 In117 2.266 . S
O125 C122 1.252 . S
O126 In117 2.326 . S
O126 C122 1.260 . S
C127 O118 1.240 . S
C127 O119 1.252 . S
O128 In117 2.294 . S
O128 C121 1.240 . S
O129 In117 2.326 . S
O129 C121 1.252 . S
In130 O131 2.294 . S
In130 O132 2.326 . S
In130 O136 2.266 . S
In130 O137 2.326 . S
In130 O138 2.266 . S
In130 O139 2.326 . S
In130 O141 2.294 . S
In130 O142 2.326 . S
O131 In130 2.294 . S
O131 C140 1.240 . S
O132 In130 2.326 . S
O132 C140 1.252 . S
C133 O136 1.252 . S
C133 O137 1.260 . S
C134 O141 1.240 . S
C134 O142 1.252 . S
C135 O138 1.252 . S
C135 O139 1.260 . S
O136 In130 2.266 . S
O136 C133 1.252 . S
O137 In130 2.326 . S
O137 C133 1.260 . S
O138 In130 2.266 . S
O138 C135 1.252 . S
O139 In130 2.326 . S
O139 C135 1.260 . S
C140 O131 1.240 . S
C140 O132 1.252 . S
O141 In130 2.294 . S
O141 C134 1.240 . S
O142 In130 2.326 . S
O142 C134 1.252 . S
In143 O144 2.294 . S
In143 O145 2.326 . S
In143 O149 2.266 . S
In143 O150 2.326 . S
In143 O151 2.266 . S
In143 O152 2.326 . S
In143 O154 2.294 . S
In143 O155 2.326 . S
O144 In143 2.294 . S
O144 C153 1.240 . S
O145 In143 2.326 . S
O145 C153 1.252 . S
C146 O149 1.252 . S
C146 O150 1.260 . S
C147 O154 1.240 . S
C147 O155 1.252 . S
C148 O151 1.252 . S
C148 O152 1.260 . S
O149 In143 2.266 . S
O149 C146 1.252 . S
O150 In143 2.326 . S
O150 C146 1.260 . S
O151 In143 2.266 . S
O151 C148 1.252 . S
O152 In143 2.326 . S
O152 C148 1.260 . S
C153 O144 1.240 . S
C153 O145 1.252 . S
O154 In143 2.294 . S
O154 C147 1.240 . S
O155 In143 2.326 . S
O155 C147 1.252 . S
In156 O157 2.294 . S
In156 O158 2.326 . S
In156 O162 2.266 . S
In156 O163 2.326 . S
In156 O164 2.266 . S
In156 O165 2.326 . S
In156 O167 2.294 . S
In156 O168 2.326 . S
O157 In156 2.294 . S
O157 C166 1.240 . S
O158 In156 2.326 . S
O158 C166 1.252 . S
C159 O162 1.252 . S
C159 O163 1.260 . S
C160 O167 1.240 . S
C160 O168 1.252 . S
C161 O164 1.252 . S
C161 O165 1.260 . S
O162 In156 2.266 . S
O162 C159 1.252 . S
O163 In156 2.326 . S
O163 C159 1.260 . S
O164 In156 2.266 . S
O164 C161 1.252 . S
O165 In156 2.326 . S
O165 C161 1.260 . S
C166 O157 1.240 . S
C166 O158 1.252 . S
O167 In156 2.294 . S
O167 C160 1.240 . S
O168 In156 2.326 . S
O168 C160 1.252 . S
In169 O170 2.294 . S
In169 O171 2.326 . S
In169 O175 2.266 . S
In169 O176 2.326 . S
In169 O177 2.266 . S
In169 O178 2.326 . S
In169 O180 2.294 . S
In169 O181 2.326 . S
O170 In169 2.294 . S
O170 C179 1.240 . S
O171 In169 2.326 . S
O171 C179 1.252 . S
C172 O175 1.252 . S
C172 O176 1.260 . S
C173 O180 1.240 . S
C173 O181 1.252 . S
C174 O177 1.252 . S
C174 O178 1.260 . S
O175 In169 2.266 . S
O175 C172 1.252 . S
O176 In169 2.326 . S
O176 C172 1.260 . S
O177 In169 2.266 . S
O177 C174 1.252 . S
O178 In169 2.326 . S
O178 C174 1.260 . S
C179 O170 1.240 . S
C179 O171 1.252 . S
O180 In169 2.294 . S
O180 C173 1.240 . S
O181 In169 2.326 . S
O181 C173 1.252 . S
In182 O183 2.294 . S
In182 O184 2.326 . S
In182 O188 2.266 . S
In182 O189 2.326 . S
In182 O190 2.266 . S
In182 O191 2.326 . S
In182 O193 2.294 . S
In182 O194 2.326 . S
O183 In182 2.294 . S
O183 C192 1.240 . S
O184 In182 2.326 . S
O184 C192 1.252 . S
C185 O188 1.252 . S
C185 O189 1.260 . S
C186 O193 1.240 . S
C186 O194 1.252 . S
C187 O190 1.252 . S
C187 O191 1.260 . S
O188 In182 2.266 . S
O188 C185 1.252 . S
O189 In182 2.326 . S
O189 C185 1.260 . S
O190 In182 2.266 . S
O190 C187 1.252 . S
O191 In182 2.326 . S
O191 C187 1.260 . S
C192 O183 1.240 . S
C192 O184 1.252 . S
O193 In182 2.294 . S
O193 C186 1.240 . S
O194 In182 2.326 . S
O194 C186 1.252 . S
In195 O196 2.294 . S
In195 O197 2.326 . S
In195 O201 2.266 . S
In195 O202 2.326 . S
In195 O203 2.266 . S
In195 O204 2.326 . S
In195 O206 2.294 . S
In195 O207 2.326 . S
O196 In195 2.294 . S
O196 C205 1.240 . S
O197 In195 2.326 . S
O197 C205 1.252 . S
C198 O201 1.252 . S
C198 O202 1.260 . S
C199 O206 1.240 . S
C199 O207 1.252 . S
C200 O203 1.252 . S
C200 O204 1.260 . S
O201 In195 2.266 . S
O201 C198 1.252 . S
O202 In195 2.326 . S
O202 C198 1.260 . S
O203 In195 2.266 . S
O203 C200 1.252 . S
O204 In195 2.326 . S
O204 C200 1.260 . S
C205 O196 1.240 . S
C205 O197 1.252 . S
O206 In195 2.294 . S
O206 C199 1.240 . S
O207 In195 2.326 . S
O207 C199 1.252 . S
In208 O209 2.294 . S
In208 O210 2.326 . S
In208 O214 2.266 . S
In208 O215 2.326 . S
In208 O216 2.266 . S
In208 O217 2.326 . S
In208 O219 2.294 . S
In208 O220 2.326 . S
O209 In208 2.294 . S
O209 C218 1.240 . S
O210 In208 2.326 . S
O210 C218 1.252 . S
C211 O214 1.252 . S
C211 O215 1.260 . S
C212 O219 1.240 . S
C212 O220 1.252 . S
C213 O216 1.252 . S
C213 O217 1.260 . S
O214 In208 2.266 . S
O214 C211 1.252 . S
O215 In208 2.326 . S
O215 C211 1.260 . S
O216 In208 2.266 . S
O216 C213 1.252 . S
O217 In208 2.326 . S
O217 C213 1.260 . S
C218 O209 1.240 . S
C218 O210 1.252 . S
O219 In208 2.294 . S
O219 C212 1.240 . S
O220 In208 2.326 . S
O220 C212 1.252 . S
In221 O222 2.294 . S
In221 O223 2.326 . S
In221 O227 2.266 . S
In221 O228 2.326 . S
In221 O229 2.266 . S
In221 O230 2.326 . S
In221 O232 2.294 . S
In221 O233 2.326 . S
O222 In221 2.294 . S
O222 C231 1.240 . S
O223 In221 2.326 . S
O223 C231 1.252 . S
C224 O227 1.252 . S
C224 O228 1.260 . S
C225 O232 1.240 . S
C225 O233 1.252 . S
C226 O229 1.252 . S
C226 O230 1.260 . S
O227 In221 2.266 . S
O227 C224 1.252 . S
O228 In221 2.326 . S
O228 C224 1.260 . S
O229 In221 2.266 . S
O229 C226 1.252 . S
O230 In221 2.326 . S
O230 C226 1.260 . S
C231 O222 1.240 . S
C231 O223 1.252 . S
O232 In221 2.294 . S
O232 C225 1.240 . S
O233 In221 2.326 . S
O233 C225 1.252 . S
In234 O235 2.294 . S
In234 O236 2.326 . S
In234 O240 2.266 . S
In234 O241 2.326 . S
In234 O242 2.266 . S
In234 O243 2.326 . S
In234 O245 2.294 . S
In234 O246 2.326 . S
O235 In234 2.294 . S
O235 C244 1.240 . S
O236 In234 2.326 . S
O236 C244 1.252 . S
C237 O240 1.252 . S
C237 O241 1.260 . S
C238 O245 1.240 . S
C238 O246 1.252 . S
C239 O242 1.252 . S
C239 O243 1.260 . S
O240 In234 2.266 . S
O240 C237 1.252 . S
O241 In234 2.326 . S
O241 C237 1.260 . S
O242 In234 2.266 . S
O242 C239 1.252 . S
O243 In234 2.326 . S
O243 C239 1.260 . S
C244 O235 1.240 . S
C244 O236 1.252 . S
O245 In234 2.294 . S
O245 C238 1.240 . S
O246 In234 2.326 . S
O246 C238 1.252 . S
In247 O248 2.294 . S
In247 O249 2.326 . S
In247 O253 2.266 . S
In247 O254 2.326 . S
In247 O255 2.266 . S
In247 O256 2.326 . S
In247 O258 2.294 . S
In247 O259 2.326 . S
O248 In247 2.294 . S
O248 C257 1.240 . S
O249 In247 2.326 . S
O249 C257 1.252 . S
C250 O253 1.252 . S
C250 O254 1.260 . S
C251 O258 1.240 . S
C251 O259 1.252 . S
C252 O255 1.252 . S
C252 O256 1.260 . S
O253 In247 2.266 . S
O253 C250 1.252 . S
O254 In247 2.326 . S
O254 C250 1.260 . S
O255 In247 2.266 . S
O255 C252 1.252 . S
O256 In247 2.326 . S
O256 C252 1.260 . S
C257 O248 1.240 . S
C257 O249 1.252 . S
O258 In247 2.294 . S
O258 C251 1.240 . S
O259 In247 2.326 . S
O259 C251 1.252 . S
In260 O261 2.294 . S
In260 O262 2.326 . S
In260 O266 2.266 . S
In260 O267 2.326 . S
In260 O268 2.266 . S
In260 O269 2.326 . S
In260 O271 2.294 . S
In260 O272 2.326 . S
O261 In260 2.294 . S
O261 C270 1.240 . S
O262 In260 2.326 . S
O262 C270 1.252 . S
C263 O266 1.252 . S
C263 O267 1.260 . S
C264 O271 1.240 . S
C264 O272 1.252 . S
C265 O268 1.252 . S
C265 O269 1.260 . S
O266 In260 2.266 . S
O266 C263 1.252 . S
O267 In260 2.326 . S
O267 C263 1.260 . S
O268 In260 2.266 . S
O268 C265 1.252 . S
O269 In260 2.326 . S
O269 C265 1.260 . S
C270 O261 1.240 . S
C270 O262 1.252 . S
O271 In260 2.294 . S
O271 C264 1.240 . S
O272 In260 2.326 . S
O272 C264 1.252 . S
In273 O274 2.294 . S
In273 O275 2.326 . S
In273 O279 2.266 . S
In273 O280 2.326 . S
In273 O281 2.266 . S
In273 O282 2.326 . S
In273 O284 2.294 . S
In273 O285 2.326 . S
O274 In273 2.294 . S
O274 C283 1.240 . S
O275 In273 2.326 . S
O275 C283 1.252 . S
C276 O279 1.252 . S
C276 O280 1.260 . S
C277 O284 1.240 . S
C277 O285 1.252 . S
C278 O281 1.252 . S
C278 O282 1.260 . S
O279 In273 2.266 . S
O279 C276 1.252 . S
O280 In273 2.326 . S
O280 C276 1.260 . S
O281 In273 2.266 . S
O281 C278 1.252 . S
O282 In273 2.326 . S
O282 C278 1.260 . S
C283 O274 1.240 . S
C283 O275 1.252 . S
O284 In273 2.294 . S
O284 C277 1.240 . S
O285 In273 2.326 . S
O285 C277 1.252 . S
In286 O287 2.294 . S
In286 O288 2.326 . S
In286 O292 2.266 . S
In286 O293 2.326 . S
In286 O294 2.266 . S
In286 O295 2.326 . S
In286 O297 2.294 . S
In286 O298 2.326 . S
O287 In286 2.294 . S
O287 C296 1.240 . S
O288 In286 2.326 . S
O288 C296 1.252 . S
C289 O292 1.252 . S
C289 O293 1.260 . S
C290 O297 1.240 . S
C290 O298 1.252 . S
C291 O294 1.252 . S
C291 O295 1.260 . S
O292 In286 2.266 . S
O292 C289 1.252 . S
O293 In286 2.326 . S
O293 C289 1.260 . S
O294 In286 2.266 . S
O294 C291 1.252 . S
O295 In286 2.326 . S
O295 C291 1.260 . S
C296 O287 1.240 . S
C296 O288 1.252 . S
O297 In286 2.294 . S
O297 C290 1.240 . S
O298 In286 2.326 . S
O298 C290 1.252 . S
In299 O300 2.294 . S
In299 O301 2.326 . S
In299 O305 2.266 . S
In299 O306 2.326 . S
In299 O307 2.266 . S
In299 O308 2.326 . S
In299 O310 2.294 . S
In299 O311 2.326 . S
O300 In299 2.294 . S
O300 C309 1.240 . S
O301 In299 2.326 . S
O301 C309 1.252 . S
C302 O305 1.252 . S
C302 O306 1.260 . S
C303 O310 1.240 . S
C303 O311 1.252 . S
C304 O307 1.252 . S
C304 O308 1.260 . S
O305 In299 2.266 . S
O305 C302 1.252 . S
O306 In299 2.326 . S
O306 C302 1.260 . S
O307 In299 2.266 . S
O307 C304 1.252 . S
O308 In299 2.326 . S
O308 C304 1.260 . S
C309 O300 1.240 . S
C309 O301 1.252 . S
O310 In299 2.294 . S
O310 C303 1.240 . S
O311 In299 2.326 . S
O311 C303 1.252 . S
C312 C313 1.369 . S
C312 C314 1.419 1_545 S
C312 H316 0.930 . S
C313 C312 1.369 . S
C313 C322 1.429 . S
C314 C312 1.419 1_565 S
C314 C315 1.363 . S
C314 H317 0.929 . S
C315 C314 1.363 . S
C315 C321 1.428 . S
H316 C312 0.930 . S
H317 C314 0.929 . S
S318 N319 1.613 . S
S318 N320 1.610 1_545 S
N319 S318 1.613 . S
N319 C322 1.350 . S
N320 S318 1.610 1_565 S
N320 C321 1.351 . S
C321 C315 1.428 . S
C321 N320 1.351 . S
C321 C322 1.434 1_565 S
C322 C313 1.429 . S
C322 N319 1.350 . S
C322 C321 1.434 1_545 S
C323 C324 1.369 . S
C323 C325 1.419 . S
C323 H327 0.930 . S
C324 C323 1.369 . S
C324 C333 1.429 . S
C325 C323 1.419 . S
C325 C326 1.363 . S
C325 H328 0.929 . S
C326 C325 1.363 . S
C326 C332 1.428 . S
H327 C323 0.930 . S
H328 C325 0.929 . S
S329 N330 1.613 . S
S329 N331 1.610 . S
N330 S329 1.613 . S
N330 C333 1.350 . S
N331 S329 1.610 . S
N331 C332 1.351 . S
C332 C326 1.428 . S
C332 N331 1.351 . S
C332 C333 1.434 . S
C333 C324 1.429 . S
C333 N330 1.350 . S
C333 C332 1.434 . S
C334 C335 1.369 . S
C334 C336 1.419 1_655 S
C334 H338 0.930 . S
C335 C334 1.369 . S
C335 C344 1.429 . S
C336 C334 1.419 1_455 S
C336 C337 1.363 . S
C336 H339 0.929 . S
C337 C336 1.363 . S
C337 C343 1.428 . S
H338 C334 0.930 . S
H339 C336 0.929 . S
S340 N341 1.613 1_455 S
S340 N342 1.610 . S
N341 S340 1.613 1_655 S
N341 C344 1.350 . S
N342 S340 1.610 . S
N342 C343 1.351 . S
C343 C337 1.428 . S
C343 N342 1.351 . S
C343 C344 1.434 1_455 S
C344 C335 1.429 . S
C344 N341 1.350 . S
C344 C343 1.434 1_655 S
C345 C346 1.369 . S
C345 C347 1.419 1_565 S
C345 H349 0.930 . S
C346 C345 1.369 . S
C346 C355 1.429 . S
C347 C345 1.419 1_545 S
C347 C348 1.363 . S
C347 H350 0.929 . S
C348 C347 1.363 . S
C348 C354 1.428 . S
H349 C345 0.930 . S
H350 C347 0.929 . S
S351 N352 1.613 1_545 S
S351 N353 1.610 . S
N352 S351 1.613 1_565 S
N352 C355 1.350 . S
N353 S351 1.610 . S
N353 C354 1.351 . S
C354 C348 1.428 . S
C354 N353 1.351 . S
C354 C355 1.434 1_545 S
C355 C346 1.429 . S
C355 N352 1.350 . S
C355 C354 1.434 1_565 S
C356 C357 1.369 . S
C356 C358 1.419 . S
C356 H360 0.930 . S
C357 C356 1.369 . S
C357 C366 1.429 . S
C358 C356 1.419 . S
C358 C359 1.363 . S
C358 H361 0.929 . S
C359 C358 1.363 . S
C359 C365 1.428 . S
H360 C356 0.930 . S
H361 C358 0.929 . S
S362 N363 1.613 . S
S362 N364 1.610 . S
N363 S362 1.613 . S
N363 C366 1.350 . S
N364 S362 1.610 . S
N364 C365 1.351 . S
C365 C359 1.428 . S
C365 N364 1.351 . S
C365 C366 1.434 . S
C366 C357 1.429 . S
C366 N363 1.350 . S
C366 C365 1.434 . S
C367 C368 1.369 . S
C367 C369 1.419 1_455 S
C367 H371 0.930 . S
C368 C367 1.369 . S
C368 C377 1.429 . S
C369 C367 1.419 1_655 S
C369 C370 1.363 . S
C369 H372 0.929 . S
C370 C369 1.363 . S
C370 C376 1.428 . S
H371 C367 0.930 . S
H372 C369 0.929 . S
S373 N374 1.613 . S
S373 N375 1.610 1_455 S
N374 S373 1.613 . S
N374 C377 1.350 . S
N375 S373 1.610 1_655 S
N375 C376 1.351 . S
C376 C370 1.428 . S
C376 N375 1.351 . S
C376 C377 1.434 1_655 S
C377 C368 1.429 . S
C377 N374 1.350 . S
C377 C376 1.434 1_455 S
C378 C379 1.369 . S
C378 C380 1.419 1_565 S
C378 H382 0.930 . S
C379 C378 1.369 . S
C379 C388 1.429 . S
C380 C378 1.419 1_545 S
C380 C381 1.363 . S
C380 H383 0.929 . S
C381 C380 1.363 . S
C381 C387 1.428 . S
H382 C378 0.930 . S
H383 C380 0.929 . S
S384 N385 1.613 . S
S384 N386 1.610 1_565 S
N385 S384 1.613 . S
N385 C388 1.350 . S
N386 S384 1.610 1_545 S
N386 C387 1.351 . S
C387 C381 1.428 . S
C387 N386 1.351 . S
C387 C388 1.434 1_545 S
C388 C379 1.429 . S
C388 N385 1.350 . S
C388 C387 1.434 1_565 S
C389 C390 1.369 . S
C389 C391 1.419 . S
C389 H393 0.930 . S
C390 C389 1.369 . S
C390 C399 1.429 . S
C391 C389 1.419 . S
C391 C392 1.363 . S
C391 H394 0.929 . S
C392 C391 1.363 . S
C392 C398 1.428 . S
H393 C389 0.930 . S
H394 C391 0.929 . S
S395 N396 1.613 . S
S395 N397 1.610 . S
N396 S395 1.613 . S
N396 C399 1.350 . S
N397 S395 1.610 . S
N397 C398 1.351 . S
C398 C392 1.428 . S
C398 N397 1.351 . S
C398 C399 1.434 . S
C399 C390 1.429 . S
C399 N396 1.350 . S
C399 C398 1.434 . S
C400 C401 1.369 . S
C400 C402 1.419 1_655 S
C400 H404 0.930 . S
C401 C400 1.369 . S
C401 C410 1.429 . S
C402 C400 1.419 1_455 S
C402 C403 1.363 . S
C402 H405 0.929 . S
C403 C402 1.363 . S
C403 C409 1.428 . S
H404 C400 0.930 . S
H405 C402 0.929 . S
S406 N407 1.613 . S
S406 N408 1.610 1_655 S
N407 S406 1.613 . S
N407 C410 1.350 . S
N408 S406 1.610 1_455 S
N408 C409 1.351 . S
C409 C403 1.428 . S
C409 N408 1.351 . S
C409 C410 1.434 1_455 S
C410 C401 1.429 . S
C410 N407 1.350 . S
C410 C409 1.434 1_655 S
C411 C412 1.369 . S
C411 C413 1.419 1_545 S
C411 H415 0.930 . S
C412 C411 1.369 . S
C412 C421 1.429 . S
C413 C411 1.419 1_565 S
C413 C414 1.363 . S
C413 H416 0.929 . S
C414 C413 1.363 . S
C414 C420 1.428 . S
H415 C411 0.930 . S
H416 C413 0.929 . S
S417 N418 1.613 . S
S417 N419 1.610 1_545 S
N418 S417 1.613 . S
N418 C421 1.350 . S
N419 S417 1.610 1_565 S
N419 C420 1.351 . S
C420 C414 1.428 . S
C420 N419 1.351 . S
C420 C421 1.434 1_565 S
C421 C412 1.429 . S
C421 N418 1.350 . S
C421 C420 1.434 1_545 S
C422 C423 1.369 . S
C422 C424 1.419 . S
C422 H426 0.930 . S
C423 C422 1.369 . S
C423 C432 1.429 . S
C424 C422 1.419 . S
C424 C425 1.363 . S
C424 H427 0.929 . S
C425 C424 1.363 . S
C425 C431 1.428 . S
H426 C422 0.930 . S
H427 C424 0.929 . S
S428 N429 1.613 . S
S428 N430 1.610 . S
N429 S428 1.613 . S
N429 C432 1.350 . S
N430 S428 1.610 . S
N430 C431 1.351 . S
C431 C425 1.428 . S
C431 N430 1.351 . S
C431 C432 1.434 . S
C432 C423 1.429 . S
C432 N429 1.350 . S
C432 C431 1.434 . S
C433 C434 1.369 . S
C433 C435 1.419 1_455 S
C433 H437 0.930 . S
C434 C433 1.369 . S
C434 C443 1.429 . S
C435 C433 1.419 1_655 S
C435 C436 1.363 . S
C435 H438 0.929 . S
C436 C435 1.363 . S
C436 C442 1.428 . S
H437 C433 0.930 . S
H438 C435 0.929 . S
S439 N440 1.613 1_655 S
S439 N441 1.610 . S
N440 S439 1.613 1_455 S
N440 C443 1.350 . S
N441 S439 1.610 . S
N441 C442 1.351 . S
C442 C436 1.428 . S
C442 N441 1.351 . S
C442 C443 1.434 1_655 S
C443 C434 1.429 . S
C443 N440 1.350 . S
C443 C442 1.434 1_455 S
C444 C445 1.369 . S
C444 C446 1.419 . S
C444 H448 0.930 . S
C445 C444 1.369 . S
C445 C454 1.429 . S
C446 C444 1.419 . S
C446 C447 1.363 . S
C446 H449 0.929 . S
C447 C446 1.363 . S
C447 C453 1.428 . S
H448 C444 0.930 . S
H449 C446 0.929 . S
S450 N451 1.613 . S
S450 N452 1.610 . S
N451 S450 1.613 . S
N451 C454 1.350 . S
N452 S450 1.610 . S
N452 C453 1.351 . S
C453 C447 1.428 . S
C453 N452 1.351 . S
C453 C454 1.434 . S
C454 C445 1.429 . S
C454 N451 1.350 . S
C454 C453 1.434 . S
C455 C456 1.369 . S
C455 C457 1.419 . S
C455 H459 0.930 . S
C456 C455 1.369 . S
C456 C465 1.429 . S
C457 C455 1.419 . S
C457 C458 1.363 . S
C457 H460 0.929 . S
C458 C457 1.363 . S
C458 C464 1.428 . S
H459 C455 0.930 . S
H460 C457 0.929 . S
S461 N462 1.613 . S
S461 N463 1.610 . S
N462 S461 1.613 . S
N462 C465 1.350 . S
N463 S461 1.610 . S
N463 C464 1.351 . S
C464 C458 1.428 . S
C464 N463 1.351 . S
C464 C465 1.434 . S
C465 C456 1.429 . S
C465 N462 1.350 . S
C465 C464 1.434 . S
C466 C467 1.369 . S
C466 C468 1.419 . S
C466 H470 0.930 . S
C467 C466 1.369 . S
C467 C476 1.429 . S
C468 C466 1.419 . S
C468 C469 1.363 . S
C468 H471 0.929 . S
C469 C468 1.363 . S
C469 C475 1.428 . S
H470 C466 0.930 . S
H471 C468 0.929 . S
S472 N473 1.613 . S
S472 N474 1.610 . S
N473 S472 1.613 . S
N473 C476 1.350 . S
N474 S472 1.610 . S
N474 C475 1.351 . S
C475 C469 1.428 . S
C475 N474 1.351 . S
C475 C476 1.434 . S
C476 C467 1.429 . S
C476 N473 1.350 . S
C476 C475 1.434 . S
C477 C478 1.369 . S
C477 C479 1.419 . S
C477 H481 0.930 . S
C478 C477 1.369 . S
C478 C487 1.429 . S
C479 C477 1.419 . S
C479 C480 1.363 . S
C479 H482 0.929 . S
C480 C479 1.363 . S
C480 C486 1.428 . S
H481 C477 0.930 . S
H482 C479 0.929 . S
S483 N484 1.613 . S
S483 N485 1.610 . S
N484 S483 1.613 . S
N484 C487 1.350 . S
N485 S483 1.610 . S
N485 C486 1.351 . S
C486 C480 1.428 . S
C486 N485 1.351 . S
C486 C487 1.434 . S
C487 C478 1.429 . S
C487 N484 1.350 . S
C487 C486 1.434 . S
C488 C489 1.369 . S
C488 C490 1.419 . S
C488 H492 0.930 . S
C489 C488 1.369 . S
C489 C498 1.429 . S
C490 C488 1.419 . S
C490 C491 1.363 . S
C490 H493 0.929 . S
C491 C490 1.363 . S
C491 C497 1.428 . S
H492 C488 0.930 . S
H493 C490 0.929 . S
S494 N495 1.613 . S
S494 N496 1.610 . S
N495 S494 1.613 . S
N495 C498 1.350 . S
N496 S494 1.610 . S
N496 C497 1.351 . S
C497 C491 1.428 . S
C497 N496 1.351 . S
C497 C498 1.434 . S
C498 C489 1.429 . S
C498 N495 1.350 . S
C498 C497 1.434 . S
C499 C500 1.369 . S
C499 C501 1.419 . S
C499 H503 0.930 . S
C500 C499 1.369 . S
C500 C509 1.429 . S
C501 C499 1.419 . S
C501 C502 1.363 . S
C501 H504 0.929 . S
C502 C501 1.363 . S
C502 C508 1.428 . S
H503 C499 0.930 . S
H504 C501 0.929 . S
S505 N506 1.613 . S
S505 N507 1.610 . S
N506 S505 1.613 . S
N506 C509 1.350 . S
N507 S505 1.610 . S
N507 C508 1.351 . S
C508 C502 1.428 . S
C508 N507 1.351 . S
C508 C509 1.434 . S
C509 C500 1.429 . S
C509 N506 1.350 . S
C509 C508 1.434 . S
C510 C511 1.369 . S
C510 C512 1.419 . S
C510 H514 0.930 . S
C511 C510 1.369 . S
C511 C520 1.429 . S
C512 C510 1.419 . S
C512 C513 1.363 . S
C512 H515 0.929 . S
C513 C512 1.363 . S
C513 C519 1.428 . S
H514 C510 0.930 . S
H515 C512 0.929 . S
S516 N517 1.613 . S
S516 N518 1.610 . S
N517 S516 1.613 . S
N517 C520 1.350 . S
N518 S516 1.610 . S
N518 C519 1.351 . S
C519 C513 1.428 . S
C519 N518 1.351 . S
C519 C520 1.434 . S
C520 C511 1.429 . S
C520 N517 1.350 . S
C520 C519 1.434 . S
C521 C522 1.369 . S
C521 C523 1.419 . S
C521 H525 0.930 . S
C522 C521 1.369 . S
C522 C531 1.429 . S
C523 C521 1.419 . S
C523 C524 1.363 . S
C523 H526 0.929 . S
C524 C523 1.363 . S
C524 C530 1.428 . S
H525 C521 0.930 . S
H526 C523 0.929 . S
S527 N528 1.613 . S
S527 N529 1.610 . S
N528 S527 1.613 . S
N528 C531 1.350 . S
N529 S527 1.610 . S
N529 C530 1.351 . S
C530 C524 1.428 . S
C530 N529 1.351 . S
C530 C531 1.434 . S
C531 C522 1.429 . S
C531 N528 1.350 . S
C531 C530 1.434 . S
C532 C533 1.369 . S
C532 C534 1.419 . S
C532 H536 0.930 . S
C533 C532 1.369 . S
C533 C542 1.429 . S
C534 C532 1.419 . S
C534 C535 1.363 . S
C534 H537 0.929 . S
C535 C534 1.363 . S
C535 C541 1.428 . S
H536 C532 0.930 . S
H537 C534 0.929 . S
S538 N539 1.613 . S
S538 N540 1.610 . S
N539 S538 1.613 . S
N539 C542 1.350 . S
N540 S538 1.610 . S
N540 C541 1.351 . S
C541 C535 1.428 . S
C541 N540 1.351 . S
C541 C542 1.434 . S
C542 C533 1.429 . S
C542 N539 1.350 . S
C542 C541 1.434 . S
C543 C544 1.369 . S
C543 C545 1.419 . S
C543 H547 0.930 . S
C544 C543 1.369 . S
C544 C553 1.429 . S
C545 C543 1.419 . S
C545 C546 1.363 . S
C545 H548 0.929 . S
C546 C545 1.363 . S
C546 C552 1.428 . S
H547 C543 0.930 . S
H548 C545 0.929 . S
S549 N550 1.613 . S
S549 N551 1.610 . S
N550 S549 1.613 . S
N550 C553 1.350 . S
N551 S549 1.610 . S
N551 C552 1.351 . S
C552 C546 1.428 . S
C552 N551 1.351 . S
C552 C553 1.434 . S
C553 C544 1.429 . S
C553 N550 1.350 . S
C553 C552 1.434 . S
C554 C555 1.369 . S
C554 C556 1.419 . S
C554 H558 0.930 . S
C555 C554 1.369 . S
C555 C564 1.429 . S
C556 C554 1.419 . S
C556 C557 1.363 . S
C556 H559 0.929 . S
C557 C556 1.363 . S
C557 C563 1.428 . S
H558 C554 0.930 . S
H559 C556 0.929 . S
S560 N561 1.613 . S
S560 N562 1.610 . S
N561 S560 1.613 . S
N561 C564 1.350 . S
N562 S560 1.610 . S
N562 C563 1.351 . S
C563 C557 1.428 . S
C563 N562 1.351 . S
C563 C564 1.434 . S
C564 C555 1.429 . S
C564 N561 1.350 . S
C564 C563 1.434 . S
C565 C566 1.369 . S
C565 C567 1.419 . S
C565 H569 0.930 . S
C566 C565 1.369 . S
C566 C575 1.429 . S
C567 C565 1.419 . S
C567 C568 1.363 . S
C567 H570 0.929 . S
C568 C567 1.363 . S
C568 C574 1.428 . S
H569 C565 0.930 . S
H570 C567 0.929 . S
S571 N572 1.613 . S
S571 N573 1.610 . S
N572 S571 1.613 . S
N572 C575 1.350 . S
N573 S571 1.610 . S
N573 C574 1.351 . S
C574 C568 1.428 . S
C574 N573 1.351 . S
C574 C575 1.434 . S
C575 C566 1.429 . S
C575 N572 1.350 . S
C575 C574 1.434 . S
C576 C577 1.369 . S
C576 C578 1.419 1_554 S
C576 H580 0.930 . S
C577 C576 1.369 . S
C577 C586 1.429 . S
C578 C576 1.419 1_556 S
C578 C579 1.363 . S
C578 H581 0.929 . S
C579 C578 1.363 . S
C579 C585 1.428 . S
H580 C576 0.930 . S
H581 C578 0.929 . S
S582 N583 1.615 1_556 S
S582 N584 1.609 . S
N583 S582 1.615 1_554 S
N583 C586 1.350 . S
N584 S582 1.609 . S
N584 C585 1.351 . S
C585 C579 1.428 . S
C585 N584 1.351 . S
C585 C586 1.434 1_556 S
C586 C577 1.429 . S
C586 N583 1.350 . S
C586 C585 1.434 1_554 S
C587 C588 1.369 . S
C587 C589 1.419 1_556 S
C587 H591 0.930 . S
C588 C587 1.369 . S
C588 C597 1.429 . S
C589 C587 1.419 1_554 S
C589 C590 1.363 . S
C589 H592 0.929 . S
C590 C589 1.363 . S
C590 C596 1.428 . S
H591 C587 0.930 . S
H592 C589 0.929 . S
S593 N594 1.615 1_554 S
S593 N595 1.609 . S
N594 S593 1.615 1_556 S
N594 C597 1.350 . S
N595 S593 1.609 . S
N595 C596 1.351 . S
C596 C590 1.428 . S
C596 N595 1.351 . S
C596 C597 1.434 1_554 S
C597 C588 1.429 . S
C597 N594 1.350 . S
C597 C596 1.434 1_556 S
C598 C599 1.369 . S
C598 C600 1.419 1_556 S
C598 H602 0.930 . S
C599 C598 1.369 . S
C599 C608 1.429 . S
C600 C598 1.419 1_554 S
C600 C601 1.363 . S
C600 H603 0.929 . S
C601 C600 1.363 . S
C601 C607 1.428 . S
H602 C598 0.930 . S
H603 C600 0.929 . S
S604 N605 1.615 1_554 S
S604 N606 1.609 . S
N605 S604 1.615 1_556 S
N605 C608 1.350 . S
N606 S604 1.609 . S
N606 C607 1.351 . S
C607 C601 1.428 . S
C607 N606 1.351 . S
C607 C608 1.434 1_554 S
C608 C599 1.429 . S
C608 N605 1.350 . S
C608 C607 1.434 1_556 S
C609 C610 1.369 . S
C609 C611 1.419 1_554 S
C609 H613 0.930 . S
C610 C609 1.369 . S
C610 C619 1.429 . S
C611 C609 1.419 1_556 S
C611 C612 1.363 . S
C611 H614 0.929 . S
C612 C611 1.363 . S
C612 C618 1.428 . S
H613 C609 0.930 . S
H614 C611 0.929 . S
S615 N616 1.615 1_556 S
S615 N617 1.609 . S
N616 S615 1.615 1_554 S
N616 C619 1.350 . S
N617 S615 1.609 . S
N617 C618 1.351 . S
C618 C612 1.428 . S
C618 N617 1.351 . S
C618 C619 1.434 1_556 S
C619 C610 1.429 . S
C619 N616 1.350 . S
C619 C618 1.434 1_554 S
C620 C621 1.369 . S
C620 C622 1.419 1_554 S
C620 H624 0.930 . S
C621 C620 1.369 . S
C621 C630 1.429 . S
C622 C620 1.419 1_556 S
C622 C623 1.363 . S
C622 H625 0.929 . S
C623 C622 1.363 . S
C623 C629 1.428 . S
H624 C620 0.930 . S
H625 C622 0.929 . S
S626 N627 1.615 1_556 S
S626 N628 1.609 . S
N627 S626 1.615 1_554 S
N627 C630 1.350 . S
N628 S626 1.609 . S
N628 C629 1.351 . S
C629 C623 1.428 . S
C629 N628 1.351 . S
C629 C630 1.434 1_556 S
C630 C621 1.429 . S
C630 N627 1.350 . S
C630 C629 1.434 1_554 S
C631 C632 1.369 . S
C631 C633 1.419 1_556 S
C631 H635 0.930 . S
C632 C631 1.369 . S
C632 C641 1.429 . S
C633 C631 1.419 1_554 S
C633 C634 1.363 . S
C633 H636 0.929 . S
C634 C633 1.363 . S
C634 C640 1.428 . S
H635 C631 0.930 . S
H636 C633 0.929 . S
S637 N638 1.615 1_554 S
S637 N639 1.609 . S
N638 S637 1.615 1_556 S
N638 C641 1.350 . S
N639 S637 1.609 . S
N639 C640 1.351 . S
C640 C634 1.428 . S
C640 N639 1.351 . S
C640 C641 1.434 1_554 S
C641 C632 1.429 . S
C641 N638 1.350 . S
C641 C640 1.434 1_556 S
C642 C643 1.369 . S
C642 C644 1.419 . S
C642 H646 0.930 . S
C643 C642 1.369 . S
C643 C652 1.429 . S
C644 C642 1.419 . S
C644 C645 1.363 . S
C644 H647 0.929 . S
C645 C644 1.363 . S
C645 C651 1.428 . S
H646 C642 0.930 . S
H647 C644 0.929 . S
S648 N649 1.613 . S
S648 N650 1.610 . S
N649 S648 1.613 . S
N649 C652 1.350 . S
N650 S648 1.610 . S
N650 C651 1.351 . S
C651 C645 1.428 . S
C651 N650 1.351 . S
C651 C652 1.434 . S
C652 C643 1.429 . S
C652 N649 1.350 . S
C652 C651 1.434 . S
C653 C654 1.369 . S
C653 C655 1.419 . S
C653 H657 0.930 . S
C654 C653 1.369 . S
C654 C663 1.429 . S
C655 C653 1.419 . S
C655 C656 1.363 . S
C655 H658 0.929 . S
C656 C655 1.363 . S
C656 C662 1.428 . S
H657 C653 0.930 . S
H658 C655 0.929 . S
S659 N660 1.613 . S
S659 N661 1.610 . S
N660 S659 1.613 . S
N660 C663 1.350 . S
N661 S659 1.610 . S
N661 C662 1.351 . S
C662 C656 1.428 . S
C662 N661 1.351 . S
C662 C663 1.434 . S
C663 C654 1.429 . S
C663 N660 1.350 . S
C663 C662 1.434 . S
C664 C665 1.369 . S
C664 C666 1.419 . S
C664 H668 0.930 . S
C665 C664 1.369 . S
C665 C674 1.429 . S
C666 C664 1.419 . S
C666 C667 1.363 . S
C666 H669 0.929 . S
C667 C666 1.363 . S
C667 C673 1.428 . S
H668 C664 0.930 . S
H669 C666 0.929 . S
S670 N671 1.613 . S
S670 N672 1.610 . S
N671 S670 1.613 . S
N671 C674 1.350 . S
N672 S670 1.610 . S
N672 C673 1.351 . S
C673 C667 1.428 . S
C673 N672 1.351 . S
C673 C674 1.434 . S
C674 C665 1.429 . S
C674 N671 1.350 . S
C674 C673 1.434 . S
C675 C676 1.369 . S
C675 C677 1.419 . S
C675 H679 0.930 . S
C676 C675 1.369 . S
C676 C685 1.429 . S
C677 C675 1.419 . S
C677 C678 1.363 . S
C677 H680 0.929 . S
C678 C677 1.363 . S
C678 C684 1.428 . S
H679 C675 0.930 . S
H680 C677 0.929 . S
S681 N682 1.613 . S
S681 N683 1.610 . S
N682 S681 1.613 . S
N682 C685 1.350 . S
N683 S681 1.610 . S
N683 C684 1.351 . S
C684 C678 1.428 . S
C684 N683 1.351 . S
C684 C685 1.434 . S
C685 C676 1.429 . S
C685 N682 1.350 . S
C685 C684 1.434 . S
C686 C687 1.369 . S
C686 C688 1.419 . S
C686 H690 0.930 . S
C687 C686 1.369 . S
C687 C696 1.429 . S
C688 C686 1.419 . S
C688 C689 1.363 . S
C688 H691 0.929 . S
C689 C688 1.363 . S
C689 C695 1.428 . S
H690 C686 0.930 . S
H691 C688 0.929 . S
S692 N693 1.613 . S
S692 N694 1.610 . S
N693 S692 1.613 . S
N693 C696 1.350 . S
N694 S692 1.610 . S
N694 C695 1.351 . S
C695 C689 1.428 . S
C695 N694 1.351 . S
C695 C696 1.434 . S
C696 C687 1.429 . S
C696 N693 1.350 . S
C696 C695 1.434 . S
C697 C698 1.369 . S
C697 C699 1.419 . S
C697 H701 0.930 . S
C698 C697 1.369 . S
C698 C707 1.429 . S
C699 C697 1.419 . S
C699 C700 1.363 . S
C699 H702 0.929 . S
C700 C699 1.363 . S
C700 C706 1.428 . S
H701 C697 0.930 . S
H702 C699 0.929 . S
S703 N704 1.613 . S
S703 N705 1.610 . S
N704 S703 1.613 . S
N704 C707 1.350 . S
N705 S703 1.610 . S
N705 C706 1.351 . S
C706 C700 1.428 . S
C706 N705 1.351 . S
C706 C707 1.434 . S
C707 C698 1.429 . S
C707 N704 1.350 . S
C707 C706 1.434 . S
C708 C709 1.369 . S
C708 C710 1.419 . S
C708 H712 0.930 . S
C709 C708 1.369 . S
C709 C718 1.429 . S
C710 C708 1.419 . S
C710 C711 1.363 . S
C710 H713 0.929 . S
C711 C710 1.363 . S
C711 C717 1.428 . S
H712 C708 0.930 . S
H713 C710 0.929 . S
S714 N715 1.613 . S
S714 N716 1.610 . S
N715 S714 1.613 . S
N715 C718 1.350 . S
N716 S714 1.610 . S
N716 C717 1.351 . S
C717 C711 1.428 . S
C717 N716 1.351 . S
C717 C718 1.434 . S
C718 C709 1.429 . S
C718 N715 1.350 . S
C718 C717 1.434 . S
C719 C720 1.369 . S
C719 C721 1.419 . S
C719 H723 0.930 . S
C720 C719 1.369 . S
C720 C729 1.429 . S
C721 C719 1.419 . S
C721 C722 1.363 . S
C721 H724 0.929 . S
C722 C721 1.363 . S
C722 C728 1.428 . S
H723 C719 0.930 . S
H724 C721 0.929 . S
S725 N726 1.613 . S
S725 N727 1.610 . S
N726 S725 1.613 . S
N726 C729 1.350 . S
N727 S725 1.610 . S
N727 C728 1.351 . S
C728 C722 1.428 . S
C728 N727 1.351 . S
C728 C729 1.434 . S
C729 C720 1.429 . S
C729 N726 1.350 . S
C729 C728 1.434 . S
C730 C731 1.369 . S
C730 C732 1.419 . S
C730 H734 0.930 . S
C731 C730 1.369 . S
C731 C740 1.429 . S
C732 C730 1.419 . S
C732 C733 1.363 . S
C732 H735 0.929 . S
C733 C732 1.363 . S
C733 C739 1.428 . S
H734 C730 0.930 . S
H735 C732 0.929 . S
S736 N737 1.613 . S
S736 N738 1.610 . S
N737 S736 1.613 . S
N737 C740 1.350 . S
N738 S736 1.610 . S
N738 C739 1.351 . S
C739 C733 1.428 . S
C739 N738 1.351 . S
C739 C740 1.434 . S
C740 C731 1.429 . S
C740 N737 1.350 . S
C740 C739 1.434 . S
C741 C742 1.369 . S
C741 C743 1.419 . S
C741 H745 0.930 . S
C742 C741 1.369 . S
C742 C751 1.429 . S
C743 C741 1.419 . S
C743 C744 1.363 . S
C743 H746 0.929 . S
C744 C743 1.363 . S
C744 C750 1.428 . S
H745 C741 0.930 . S
H746 C743 0.929 . S
S747 N748 1.613 . S
S747 N749 1.610 . S
N748 S747 1.613 . S
N748 C751 1.350 . S
N749 S747 1.610 . S
N749 C750 1.351 . S
C750 C744 1.428 . S
C750 N749 1.351 . S
C750 C751 1.434 . S
C751 C742 1.429 . S
C751 N748 1.350 . S
C751 C750 1.434 . S
C752 C753 1.369 . S
C752 C754 1.419 . S
C752 H756 0.930 . S
C753 C752 1.369 . S
C753 C762 1.429 . S
C754 C752 1.419 . S
C754 C755 1.363 . S
C754 H757 0.929 . S
C755 C754 1.363 . S
C755 C761 1.428 . S
H756 C752 0.930 . S
H757 C754 0.929 . S
S758 N759 1.613 . S
S758 N760 1.610 . S
N759 S758 1.613 . S
N759 C762 1.350 . S
N760 S758 1.610 . S
N760 C761 1.351 . S
C761 C755 1.428 . S
C761 N760 1.351 . S
C761 C762 1.434 . S
C762 C753 1.429 . S
C762 N759 1.350 . S
C762 C761 1.434 . S
C763 C764 1.369 . S
C763 C765 1.419 . S
C763 H767 0.930 . S
C764 C763 1.369 . S
C764 C773 1.429 . S
C765 C763 1.419 . S
C765 C766 1.363 . S
C765 H768 0.929 . S
C766 C765 1.363 . S
C766 C772 1.428 . S
H767 C763 0.930 . S
H768 C765 0.929 . S
S769 N770 1.613 . S
S769 N771 1.610 . S
N770 S769 1.613 . S
N770 C773 1.350 . S
N771 S769 1.610 . S
N771 C772 1.351 . S
C772 C766 1.428 . S
C772 N771 1.351 . S
C772 C773 1.434 . S
C773 C764 1.429 . S
C773 N770 1.350 . S
C773 C772 1.434 . S
C774 C775 1.369 . S
C774 C776 1.419 . S
C774 H778 0.930 . S
C775 C774 1.369 . S
C775 C784 1.429 . S
C776 C774 1.419 . S
C776 C777 1.363 . S
C776 H779 0.929 . S
C777 C776 1.363 . S
C777 C783 1.428 . S
H778 C774 0.930 . S
H779 C776 0.929 . S
S780 N781 1.613 . S
S780 N782 1.610 . S
N781 S780 1.613 . S
N781 C784 1.350 . S
N782 S780 1.610 . S
N782 C783 1.351 . S
C783 C777 1.428 . S
C783 N782 1.351 . S
C783 C784 1.434 . S
C784 C775 1.429 . S
C784 N781 1.350 . S
C784 C783 1.434 . S
C785 C786 1.369 . S
C785 C787 1.419 . S
C785 H789 0.930 . S
C786 C785 1.369 . S
C786 C795 1.429 . S
C787 C785 1.419 . S
C787 C788 1.363 . S
C787 H790 0.929 . S
C788 C787 1.363 . S
C788 C794 1.428 . S
H789 C785 0.930 . S
H790 C787 0.929 . S
S791 N792 1.613 . S
S791 N793 1.610 . S
N792 S791 1.613 . S
N792 C795 1.350 . S
N793 S791 1.610 . S
N793 C794 1.351 . S
C794 C788 1.428 . S
C794 N793 1.351 . S
C794 C795 1.434 . S
C795 C786 1.429 . S
C795 N792 1.350 . S
C795 C794 1.434 . S
C796 C797 1.369 . S
C796 C798 1.419 . S
C796 H800 0.930 . S
C797 C796 1.369 . S
C797 C806 1.429 . S
C798 C796 1.419 . S
C798 C799 1.363 . S
C798 H801 0.929 . S
C799 C798 1.363 . S
C799 C805 1.428 . S
H800 C796 0.930 . S
H801 C798 0.929 . S
S802 N803 1.613 . S
S802 N804 1.610 . S
N803 S802 1.613 . S
N803 C806 1.350 . S
N804 S802 1.610 . S
N804 C805 1.351 . S
C805 C799 1.428 . S
C805 N804 1.351 . S
C805 C806 1.434 . S
C806 C797 1.429 . S
C806 N803 1.350 . S
C806 C805 1.434 . S
C807 C808 1.369 . S
C807 C809 1.419 . S
C807 H811 0.930 . S
C808 C807 1.369 . S
C808 C817 1.429 . S
C809 C807 1.419 . S
C809 C810 1.363 . S
C809 H812 0.929 . S
C810 C809 1.363 . S
C810 C816 1.428 . S
H811 C807 0.930 . S
H812 C809 0.929 . S
S813 N814 1.613 . S
S813 N815 1.610 . S
N814 S813 1.613 . S
N814 C817 1.350 . S
N815 S813 1.610 . S
N815 C816 1.351 . S
C816 C810 1.428 . S
C816 N815 1.351 . S
C816 C817 1.434 . S
C817 C808 1.429 . S
C817 N814 1.350 . S
C817 C816 1.434 . S
C818 C819 1.369 . S
C818 C820 1.419 . S
C818 H822 0.930 . S
C819 C818 1.369 . S
C819 C828 1.429 . S
C820 C818 1.419 . S
C820 C821 1.363 . S
C820 H823 0.929 . S
C821 C820 1.363 . S
C821 C827 1.428 . S
H822 C818 0.930 . S
H823 C820 0.929 . S
S824 N825 1.613 . S
S824 N826 1.610 . S
N825 S824 1.613 . S
N825 C828 1.350 . S
N826 S824 1.610 . S
N826 C827 1.351 . S
C827 C821 1.428 . S
C827 N826 1.351 . S
C827 C828 1.434 . S
C828 C819 1.429 . S
C828 N825 1.350 . S
C828 C827 1.434 . S
C829 C830 1.369 . S
C829 C831 1.419 . S
C829 H833 0.930 . S
C830 C829 1.369 . S
C830 C839 1.429 . S
C831 C829 1.419 . S
C831 C832 1.363 . S
C831 H834 0.929 . S
C832 C831 1.363 . S
C832 C838 1.428 . S
H833 C829 0.930 . S
H834 C831 0.929 . S
S835 N836 1.613 . S
S835 N837 1.610 . S
N836 S835 1.613 . S
N836 C839 1.350 . S
N837 S835 1.610 . S
N837 C838 1.351 . S
C838 C832 1.428 . S
C838 N837 1.351 . S
C838 C839 1.434 . S
C839 C830 1.429 . S
C839 N836 1.350 . S
C839 C838 1.434 . S
C313 C5 1.551 . S
C315 C96 1.552 . S
C324 C109 1.552 . S
C326 C16 1.551 . S
C335 C31 1.553 . S
C337 C120 1.551 . S
C346 C44 1.552 . S
C348 C133 1.552 . S
C357 C148 1.551 . S
C359 C55 1.551 . S
C368 C70 1.550 . S
C370 C81 1.552 . S
C379 C161 1.551 . S
C381 C252 1.552 . S
C390 C172 1.551 . S
C392 C265 1.551 . S
C401 C276 1.552 . S
C403 C185 1.552 . S
C412 C198 1.551 . S
C414 C291 1.552 . S
C423 C211 1.553 . S
C425 C302 1.551 . S
C434 C237 1.551 . S
C436 C224 1.551 . S
C445 C4 1.579 . S
C447 C108 1.581 . S
C456 C127 1.582 . S
C458 C23 1.579 . S
C467 C140 1.581 . S
C469 C30 1.580 . S
C478 C43 1.583 . S
C480 C147 1.579 . S
C489 C62 1.578 . S
C491 C88 1.582 . S
C500 C69 1.578 . S
C502 C95 1.582 . S
C511 C264 1.578 . S
C513 C160 1.582 . S
C522 C179 1.582 . S
C524 C283 1.579 . S
C533 C290 1.580 . S
C535 C192 1.581 . S
C544 C309 1.582 . S
C546 C205 1.579 . S
C555 C244 1.582 . S
C557 C218 1.579 . S
C566 C231 1.579 . S
C568 C251 1.581 . S
C577 C10 1.662 . S
C579 C199 1.662 . S
C588 C212 1.661 . S
C590 C17 1.661 . S
C599 C225 1.664 . S
C601 C36 1.664 . S
C610 C49 1.663 . S
C612 C166 1.663 . S
C621 C56 1.660 . S
C623 C173 1.661 . S
C632 C186 1.664 . S
C634 C75 1.664 . S
C643 C277 1.661 . S
C645 C82 1.661 . S
C654 C296 1.661 . S
C656 C101 1.661 . S
C665 C303 1.664 . S
C667 C114 1.664 . S
C676 C238 1.661 . S
C678 C121 1.662 . S
C687 C134 1.664 . S
C689 C257 1.664 . S
C698 C153 1.660 . S
C700 C270 1.661 . S
C709 C3 1.593 . S
C711 C135 1.596 . S
C720 C146 1.592 . S
C722 C18 1.597 . S
C731 C83 1.594 . S
C733 C29 1.594 . S
C742 C42 1.591 . S
C744 C94 1.596 . S
C753 C57 1.593 . S
C755 C107 1.596 . S
C764 C68 1.598 . S
C766 C122 1.592 . S
C775 C159 1.597 . S
C777 C289 1.593 . S
C786 C174 1.592 . S
C788 C304 1.595 . S
C797 C187 1.592 . S
C799 C239 1.595 . S
C808 C250 1.595 . S
C810 C200 1.595 . S
C819 C213 1.591 . S
C821 C263 1.597 . S
C830 C226 1.597 . S
C832 C278 1.592 . S
