# Generated by pormake.
# Topology mer, (4)-cn, num edge types: 1
# Building blocks:
#     Node 0, Type 0, BuildingBlock: GALJAG_clean_sbu_0, # of connection points: 4
#     Node 1, Type 0, BuildingBlock: GALJAG_clean_sbu_0, # of connection points: 4
#     Node 2, Type 0, BuildingBlock: GALJAG_clean_sbu_0, # of connection points: 4
#     Node 3, Type 0, BuildingBlock: GALJAG_clean_sbu_0, # of connection points: 4
#     Node 4, Type 0, BuildingBlock: GALJAG_clean_sbu_0, # of connection points: 4
#     Node 5, Type 0, BuildingBlock: GALJAG_clean_sbu_0, # of connection points: 4
#     Node 6, Type 0, BuildingBlock: GALJAG_clean_sbu_0, # of connection points: 4
#     Node 7, Type 0, BuildingBlock: GALJAG_clean_sbu_0, # of connection points: 4
#     Node 8, Type 0, BuildingBlock: GALJAG_clean_sbu_0, # of connection points: 4
#     Node 9, Type 0, BuildingBlock: GALJAG_clean_sbu_0, # of connection points: 4
#     Node 10, Type 0, BuildingBlock: GALJAG_clean_sbu_0, # of connection points: 4
#     Node 11, Type 0, BuildingBlock: GALJAG_clean_sbu_0, # of connection points: 4
#     Node 12, Type 0, BuildingBlock: GALJAG_clean_sbu_0, # of connection points: 4
#     Node 13, Type 0, BuildingBlock: GALJAG_clean_sbu_0, # of connection points: 4
#     Node 14, Type 0, BuildingBlock: GALJAG_clean_sbu_0, # of connection points: 4
#     Node 15, Type 0, BuildingBlock: GALJAG_clean_sbu_0, # of connection points: 4
#     Node 16, Type 0, BuildingBlock: GALJAG_clean_sbu_0, # of connection points: 4
#     Node 17, Type 0, BuildingBlock: GALJAG_clean_sbu_0, # of connection points: 4
#     Node 18, Type 0, BuildingBlock: GALJAG_clean_sbu_0, # of connection points: 4
#     Node 19, Type 0, BuildingBlock: GALJAG_clean_sbu_0, # of connection points: 4
#     Node 20, Type 0, BuildingBlock: GALJAG_clean_sbu_0, # of connection points: 4
#     Node 21, Type 0, BuildingBlock: GALJAG_clean_sbu_0, # of connection points: 4
#     Node 22, Type 0, BuildingBlock: GALJAG_clean_sbu_0, # of connection points: 4
#     Node 23, Type 0, BuildingBlock: GALJAG_clean_sbu_0, # of connection points: 4
#     Node 24, Type 0, BuildingBlock: GALJAG_clean_sbu_0, # of connection points: 4
#     Node 25, Type 0, BuildingBlock: GALJAG_clean_sbu_0, # of connection points: 4
#     Node 26, Type 0, BuildingBlock: GALJAG_clean_sbu_0, # of connection points: 4
#     Node 27, Type 0, BuildingBlock: GALJAG_clean_sbu_0, # of connection points: 4
#     Node 28, Type 0, BuildingBlock: GALJAG_clean_sbu_0, # of connection points: 4
#     Node 29, Type 0, BuildingBlock: GALJAG_clean_sbu_0, # of connection points: 4
#     Node 30, Type 0, BuildingBlock: GALJAG_clean_sbu_0, # of connection points: 4
#     Node 31, Type 0, BuildingBlock: GALJAG_clean_sbu_0, # of connection points: 4
#     Edge 32, Type (0, 0), BuildingBlock: AJUNOK_clean_linker_0, # of connection points: 2
#     Edge 33, Type (0, 0), BuildingBlock: AJUNOK_clean_linker_0, # of connection points: 2
#     Edge 34, Type (0, 0), BuildingBlock: AJUNOK_clean_linker_0, # of connection points: 2
#     Edge 35, Type (0, 0), BuildingBlock: AJUNOK_clean_linker_0, # of connection points: 2
#     Edge 36, Type (0, 0), BuildingBlock: AJUNOK_clean_linker_0, # of connection points: 2
#     Edge 37, Type (0, 0), BuildingBlock: AJUNOK_clean_linker_0, # of connection points: 2
#     Edge 38, Type (0, 0), BuildingBlock: AJUNOK_clean_linker_0, # of connection points: 2
#     Edge 39, Type (0, 0), BuildingBlock: AJUNOK_clean_linker_0, # of connection points: 2
#     Edge 40, Type (0, 0), BuildingBlock: AJUNOK_clean_linker_0, # of connection points: 2
#     Edge 41, Type (0, 0), BuildingBlock: AJUNOK_clean_linker_0, # of connection points: 2
#     Edge 42, Type (0, 0), BuildingBlock: AJUNOK_clean_linker_0, # of connection points: 2
#     Edge 43, Type (0, 0), BuildingBlock: AJUNOK_clean_linker_0, # of connection points: 2
#     Edge 44, Type (0, 0), BuildingBlock: AJUNOK_clean_linker_0, # of connection points: 2
#     Edge 45, Type (0, 0), BuildingBlock: AJUNOK_clean_linker_0, # of connection points: 2
#     Edge 46, Type (0, 0), BuildingBlock: AJUNOK_clean_linker_0, # of connection points: 2
#     Edge 47, Type (0, 0), BuildingBlock: AJUNOK_clean_linker_0, # of connection points: 2
#     Edge 48, Type (0, 0), BuildingBlock: AJUNOK_clean_linker_0, # of connection points: 2
#     Edge 49, Type (0, 0), BuildingBlock: AJUNOK_clean_linker_0, # of connection points: 2
#     Edge 50, Type (0, 0), BuildingBlock: AJUNOK_clean_linker_0, # of connection points: 2
#     Edge 51, Type (0, 0), BuildingBlock: AJUNOK_clean_linker_0, # of connection points: 2
#     Edge 52, Type (0, 0), BuildingBlock: AJUNOK_clean_linker_0, # of connection points: 2
#     Edge 53, Type (0, 0), BuildingBlock: AJUNOK_clean_linker_0, # of connection points: 2
#     Edge 54, Type (0, 0), BuildingBlock: AJUNOK_clean_linker_0, # of connection points: 2
#     Edge 55, Type (0, 0), BuildingBlock: AJUNOK_clean_linker_0, # of connection points: 2
#     Edge 56, Type (0, 0), BuildingBlock: AJUNOK_clean_linker_0, # of connection points: 2
#     Edge 57, Type (0, 0), BuildingBlock: AJUNOK_clean_linker_0, # of connection points: 2
#     Edge 58, Type (0, 0), BuildingBlock: AJUNOK_clean_linker_0, # of connection points: 2
#     Edge 59, Type (0, 0), BuildingBlock: AJUNOK_clean_linker_0, # of connection points: 2
#     Edge 60, Type (0, 0), BuildingBlock: AJUNOK_clean_linker_0, # of connection points: 2
#     Edge 61, Type (0, 0), BuildingBlock: AJUNOK_clean_linker_0, # of connection points: 2
#     Edge 62, Type (0, 0), BuildingBlock: AJUNOK_clean_linker_0, # of connection points: 2
#     Edge 63, Type (0, 0), BuildingBlock: AJUNOK_clean_linker_0, # of connection points: 2
#     Edge 64, Type (0, 0), BuildingBlock: AJUNOK_clean_linker_0, # of connection points: 2
#     Edge 65, Type (0, 0), BuildingBlock: AJUNOK_clean_linker_0, # of connection points: 2
#     Edge 66, Type (0, 0), BuildingBlock: AJUNOK_clean_linker_0, # of connection points: 2
#     Edge 67, Type (0, 0), BuildingBlock: AJUNOK_clean_linker_0, # of connection points: 2
#     Edge 68, Type (0, 0), BuildingBlock: AJUNOK_clean_linker_0, # of connection points: 2
#     Edge 69, Type (0, 0), BuildingBlock: AJUNOK_clean_linker_0, # of connection points: 2
#     Edge 70, Type (0, 0), BuildingBlock: AJUNOK_clean_linker_0, # of connection points: 2
#     Edge 71, Type (0, 0), BuildingBlock: AJUNOK_clean_linker_0, # of connection points: 2
#     Edge 72, Type (0, 0), BuildingBlock: AJUNOK_clean_linker_0, # of connection points: 2
#     Edge 73, Type (0, 0), BuildingBlock: AJUNOK_clean_linker_0, # of connection points: 2
#     Edge 74, Type (0, 0), BuildingBlock: AJUNOK_clean_linker_0, # of connection points: 2
#     Edge 75, Type (0, 0), BuildingBlock: AJUNOK_clean_linker_0, # of connection points: 2
#     Edge 76, Type (0, 0), BuildingBlock: AJUNOK_clean_linker_0, # of connection points: 2
#     Edge 77, Type (0, 0), BuildingBlock: AJUNOK_clean_linker_0, # of connection points: 2
#     Edge 78, Type (0, 0), BuildingBlock: AJUNOK_clean_linker_0, # of connection points: 2
#     Edge 79, Type (0, 0), BuildingBlock: AJUNOK_clean_linker_0, # of connection points: 2
#     Edge 80, Type (0, 0), BuildingBlock: AJUNOK_clean_linker_0, # of connection points: 2
#     Edge 81, Type (0, 0), BuildingBlock: AJUNOK_clean_linker_0, # of connection points: 2
#     Edge 82, Type (0, 0), BuildingBlock: AJUNOK_clean_linker_0, # of connection points: 2
#     Edge 83, Type (0, 0), BuildingBlock: AJUNOK_clean_linker_0, # of connection points: 2
#     Edge 84, Type (0, 0), BuildingBlock: AJUNOK_clean_linker_0, # of connection points: 2
#     Edge 85, Type (0, 0), BuildingBlock: AJUNOK_clean_linker_0, # of connection points: 2
#     Edge 86, Type (0, 0), BuildingBlock: AJUNOK_clean_linker_0, # of connection points: 2
#     Edge 87, Type (0, 0), BuildingBlock: AJUNOK_clean_linker_0, # of connection points: 2
#     Edge 88, Type (0, 0), BuildingBlock: AJUNOK_clean_linker_0, # of connection points: 2
#     Edge 89, Type (0, 0), BuildingBlock: AJUNOK_clean_linker_0, # of connection points: 2
#     Edge 90, Type (0, 0), BuildingBlock: AJUNOK_clean_linker_0, # of connection points: 2
#     Edge 91, Type (0, 0), BuildingBlock: AJUNOK_clean_linker_0, # of connection points: 2
#     Edge 92, Type (0, 0), BuildingBlock: AJUNOK_clean_linker_0, # of connection points: 2
#     Edge 93, Type (0, 0), BuildingBlock: AJUNOK_clean_linker_0, # of connection points: 2
#     Edge 94, Type (0, 0), BuildingBlock: AJUNOK_clean_linker_0, # of connection points: 2
#     Edge 95, Type (0, 0), BuildingBlock: AJUNOK_clean_linker_0, # of connection points: 2
# Relax obj value: 0.054
# Max RMSD: 0.080
# Mean RMSD: 0.080
data_MOF--net-mer--node1-GALJAG_clean_sbu_0--edge1-AJUNOK_clean_linker_0
_symmetry_space_group_name_H-M    P1
_symmetry_Int_Tables_number       1
_symmetry_cell_setting            triclinic
loop_
_symmetry_equiv_pos_as_xyz
'x, y, z'
_cell_length_a     47.254849
_cell_length_b     47.228407
_cell_length_c     40.187646
_cell_angle_alpha  89.997104
_cell_angle_beta   90.020412
_cell_angle_gamma 90.022495
loop_
_atom_site_label
_atom_site_type_symbol
_atom_site_fract_x
_atom_site_fract_y
_atom_site_fract_z
_atom_type_partial_charge
In0 In 0.11523 0.27996 0.35962 0.0
O1 O 0.13607 0.31997 0.33866 0.0
O2 O 0.11767 0.29051 0.30489 0.0
C3 C 0.11603 0.28304 0.42675 0.0
C4 C 0.15389 0.23883 0.35159 0.0
C5 C 0.05896 0.27985 0.35118 0.0
O6 O 0.12349 0.30391 0.40897 0.0
O7 O 0.10853 0.26152 0.41047 0.0
O8 O 0.07404 0.25833 0.34528 0.0
O9 O 0.07245 0.30141 0.36097 0.0
C10 C 0.131 0.31342 0.30867 0.0
O11 O 0.12782 0.23463 0.34652 0.0
O12 O 0.16018 0.26372 0.36032 0.0
In13 In 0.71186 0.1161 0.36201 0.0
O14 O 0.75767 0.12771 0.35006 0.0
O15 O 0.72852 0.16088 0.36072 0.0
C16 C 0.7111 0.05942 0.35779 0.0
C17 C 0.67977 0.13026 0.30929 0.0
C18 C 0.70712 0.12131 0.42849 0.0
O19 O 0.73291 0.07376 0.35076 0.0
O20 O 0.68993 0.07384 0.36671 0.0
O21 O 0.68609 0.12552 0.40956 0.0
O22 O 0.72955 0.11422 0.41374 0.0
C23 C 0.75362 0.15402 0.35364 0.0
O24 O 0.67301 0.13716 0.33869 0.0
O25 O 0.70231 0.11614 0.30694 0.0
In26 In 0.87867 0.71204 0.36394 0.0
O27 O 0.85666 0.67282 0.34275 0.0
O28 O 0.87731 0.70092 0.30923 0.0
C29 C 0.87351 0.70887 0.4307 0.0
C30 C 0.84137 0.75402 0.35355 0.0
C31 C 0.93528 0.71068 0.35842 0.0
O32 O 0.86944 0.6874 0.41245 0.0
O33 O 0.88046 0.73099 0.41519 0.0
O34 O 0.92104 0.73257 0.3515 0.0
O35 O 0.92082 0.68973 0.36796 0.0
C36 C 0.86276 0.67875 0.31288 0.0
O37 O 0.86775 0.75778 0.35048 0.0
O38 O 0.83418 0.72915 0.36137 0.0
In39 In 0.28203 0.87895 0.36385 0.0
O40 O 0.32076 0.85837 0.33977 0.0
O41 O 0.29025 0.8783 0.30853 0.0
C42 C 0.28757 0.87638 0.4305 0.0
C43 C 0.24155 0.83953 0.35645 0.0
C44 C 0.2834 0.93548 0.35847 0.0
O45 O 0.30778 0.86953 0.41139 0.0
O46 O 0.26532 0.88413 0.41575 0.0
O47 O 0.26104 0.92143 0.35307 0.0
O48 O 0.30478 0.92082 0.36609 0.0
C49 C 0.3131 0.8646 0.31045 0.0
O50 O 0.23645 0.86561 0.35225 0.0
O51 O 0.26678 0.83386 0.36426 0.0
In52 In 0.11465 0.71499 0.64115 0.0
O53 O 0.12626 0.76081 0.6538 0.0
O54 O 0.15907 0.73226 0.64007 0.0
C55 C 0.05828 0.71334 0.64834 0.0
C56 C 0.13207 0.68282 0.69234 0.0
C57 C 0.11664 0.70909 0.57449 0.0
O58 O 0.07238 0.73574 0.6532 0.0
O59 O 0.07281 0.69197 0.64034 0.0
O60 O 0.12337 0.68899 0.59376 0.0
O61 O 0.10915 0.73151 0.58904 0.0
C62 C 0.1524 0.75704 0.64871 0.0
O63 O 0.1379 0.67678 0.66244 0.0
O64 O 0.11681 0.7045 0.69609 0.0
In65 In 0.28468 0.11754 0.64012 0.0
O66 O 0.32382 0.1386 0.66288 0.0
O67 O 0.29559 0.11634 0.69481 0.0
C68 C 0.28913 0.12362 0.57357 0.0
C69 C 0.24413 0.15623 0.65102 0.0
C70 C 0.28245 0.06092 0.64482 0.0
O71 O 0.31071 0.12511 0.59219 0.0
O72 O 0.26627 0.11874 0.58861 0.0
O73 O 0.2616 0.07653 0.65191 0.0
O74 O 0.30433 0.07401 0.63538 0.0
C75 C 0.31773 0.13106 0.69227 0.0
O76 O 0.23913 0.12994 0.65222 0.0
O77 O 0.26947 0.16265 0.64463 0.0
In78 In 0.87971 0.28112 0.63927 0.0
O79 O 0.864 0.23632 0.65086 0.0
O80 O 0.8343 0.26705 0.63426 0.0
C81 C 0.93581 0.27898 0.64826 0.0
C82 C 0.86543 0.31341 0.69181 0.0
C83 C 0.88158 0.28791 0.57273 0.0
O84 O 0.92024 0.25737 0.65174 0.0
O85 O 0.92283 0.30151 0.6409 0.0
O86 O 0.87128 0.30689 0.59142 0.0
O87 O 0.89009 0.26606 0.5877 0.0
C88 C 0.83857 0.24191 0.64357 0.0
O89 O 0.86187 0.32176 0.66214 0.0
O90 O 0.87639 0.28917 0.69453 0.0
In91 In 0.71231 0.88074 0.63908 0.0
O92 O 0.67305 0.85937 0.66085 0.0
O93 O 0.70256 0.87832 0.69412 0.0
C94 C 0.7075 0.87739 0.57227 0.0
C95 C 0.75423 0.84306 0.6479 0.0
C96 C 0.71037 0.93727 0.6456 0.0
O97 O 0.6873 0.87041 0.59127 0.0
O98 O 0.72941 0.88585 0.58715 0.0
O99 O 0.73277 0.92332 0.65085 0.0
O100 O 0.68919 0.92256 0.63736 0.0
C101 C 0.67987 0.86454 0.69071 0.0
O102 O 0.75804 0.86934 0.65207 0.0
O103 O 0.72943 0.83619 0.63952 0.0
In104 In 0.87888 0.71449 0.64193 0.0
O105 O 0.86728 0.76033 0.65387 0.0
O106 O 0.83413 0.73096 0.64387 0.0
C107 C 0.93544 0.71337 0.64709 0.0
C108 C 0.86471 0.6826 0.69482 0.0
C109 C 0.87368 0.71001 0.57532 0.0
O110 O 0.92124 0.7355 0.65298 0.0
O111 O 0.92097 0.6921 0.63854 0.0
O112 O 0.86917 0.68897 0.59416 0.0
O113 O 0.8811 0.73228 0.5902 0.0
C114 C 0.84096 0.75612 0.65079 0.0
O115 O 0.85804 0.67553 0.66543 0.0
O116 O 0.87854 0.70535 0.69705 0.0
In117 In 0.28155 0.88141 0.64208 0.0
O118 O 0.2357 0.86978 0.65389 0.0
O119 O 0.26464 0.83672 0.6423 0.0
C120 C 0.28119 0.938 0.64733 0.0
C121 C 0.31343 0.86671 0.69487 0.0
C122 C 0.28746 0.87796 0.57544 0.0
O123 O 0.25962 0.92307 0.65354 0.0
O124 O 0.30295 0.9242 0.63894 0.0
O125 O 0.30768 0.87179 0.59482 0.0
O126 O 0.26506 0.88559 0.58989 0.0
C127 C 0.23963 0.84354 0.64983 0.0
O128 O 0.32029 0.86008 0.66542 0.0
O129 O 0.29102 0.88102 0.69723 0.0
In130 In 0.11486 0.27969 0.63921 0.0
O131 O 0.12937 0.23492 0.65237 0.0
O132 O 0.16054 0.26602 0.64091 0.0
C133 C 0.05857 0.27812 0.64665 0.0
C134 C 0.12812 0.31323 0.69095 0.0
C135 C 0.11625 0.28279 0.57212 0.0
O136 O 0.074 0.25676 0.65225 0.0
O137 O 0.07172 0.3001 0.63755 0.0
O138 O 0.12242 0.30404 0.58999 0.0
O139 O 0.10991 0.26085 0.5883 0.0
C140 C 0.15536 0.24078 0.6492 0.0
O141 O 0.13456 0.31985 0.66132 0.0
O142 O 0.11479 0.29023 0.6939 0.0
In143 In 0.70955 0.11682 0.63956 0.0
O144 O 0.66978 0.13661 0.66201 0.0
O145 O 0.70086 0.11953 0.69475 0.0
C146 C 0.70567 0.1207 0.57294 0.0
C147 C 0.74974 0.15662 0.64605 0.0
C148 C 0.70906 0.06026 0.64565 0.0
O149 O 0.68447 0.12563 0.59135 0.0
O150 O 0.72774 0.11326 0.58824 0.0
O151 O 0.73102 0.07478 0.65151 0.0
O152 O 0.68767 0.07443 0.63693 0.0
C153 C 0.67744 0.1321 0.69175 0.0
O154 O 0.75481 0.13073 0.65169 0.0
O155 O 0.72449 0.16201 0.63806 0.0
In156 In 0.88015 0.28164 0.36152 0.0
O157 O 0.86735 0.23607 0.34977 0.0
O158 O 0.83532 0.26495 0.3648 0.0
C159 C 0.93622 0.28082 0.35153 0.0
C160 C 0.86413 0.31437 0.31002 0.0
C161 C 0.88174 0.28808 0.42821 0.0
O162 O 0.92089 0.25916 0.3474 0.0
O163 O 0.92304 0.30291 0.36018 0.0
O164 O 0.87105 0.30691 0.40961 0.0
O165 O 0.89076 0.26654 0.41308 0.0
C166 C 0.84144 0.24008 0.35588 0.0
O167 O 0.85995 0.32171 0.33992 0.0
O168 O 0.87665 0.29099 0.30655 0.0
In169 In 0.71382 0.87981 0.36064 0.0
O170 O 0.67501 0.859 0.33692 0.0
O171 O 0.70474 0.87975 0.30543 0.0
C172 C 0.70844 0.87619 0.4273 0.0
C173 C 0.75541 0.84172 0.35231 0.0
C174 C 0.71204 0.9364 0.35625 0.0
O175 O 0.68831 0.86939 0.40804 0.0
O176 O 0.73059 0.88438 0.41271 0.0
O177 O 0.73429 0.92253 0.34982 0.0
O178 O 0.69094 0.92154 0.36438 0.0
C179 C 0.68207 0.86577 0.30756 0.0
O180 O 0.75965 0.86799 0.34873 0.0
O181 O 0.73032 0.83505 0.35973 0.0
In182 In 0.11466 0.71257 0.36297 0.0
O183 O 0.12832 0.75803 0.35096 0.0
O184 O 0.15971 0.72771 0.36422 0.0
C185 C 0.05822 0.71094 0.35651 0.0
C186 C 0.1305 0.68048 0.31104 0.0
C187 C 0.11667 0.70776 0.42966 0.0
O188 O 0.07228 0.73323 0.35075 0.0
O189 O 0.07284 0.68974 0.36491 0.0
O190 O 0.12379 0.68743 0.41087 0.0
O191 O 0.1088 0.72982 0.41459 0.0
C192 C 0.15428 0.75287 0.35588 0.0
O193 O 0.13532 0.67317 0.34083 0.0
O194 O 0.11715 0.70346 0.30784 0.0
In195 In 0.28331 0.11528 0.36291 0.0
O196 O 0.32158 0.13706 0.3392 0.0
O197 O 0.29305 0.11454 0.30787 0.0
C198 C 0.28842 0.12214 0.42924 0.0
C199 C 0.24147 0.15274 0.3527 0.0
C200 C 0.28397 0.05853 0.35939 0.0
O201 O 0.3096 0.12464 0.41016 0.0
O202 O 0.26562 0.11582 0.41478 0.0
O203 O 0.26197 0.07279 0.35307 0.0
O204 O 0.30534 0.07302 0.36746 0.0
C205 C 0.31506 0.12953 0.30993 0.0
O206 O 0.23744 0.12632 0.35043 0.0
O207 O 0.26654 0.15988 0.35964 0.0
In208 In 0.61493 0.78054 0.86012 0.0
O209 O 0.63509 0.8199 0.83658 0.0
O210 O 0.61728 0.78854 0.8048 0.0
C211 C 0.61523 0.78793 0.92673 0.0
C212 C 0.65364 0.739 0.85509 0.0
C213 C 0.55871 0.7799 0.85141 0.0
O214 O 0.62415 0.80702 0.90723 0.0
O215 O 0.60651 0.76584 0.91243 0.0
O216 O 0.57376 0.75798 0.84778 0.0
O217 O 0.57221 0.80204 0.85915 0.0
C218 C 0.62991 0.81197 0.80708 0.0
O219 O 0.62768 0.73478 0.84936 0.0
O220 O 0.65981 0.7641 0.86306 0.0
In221 In 0.21229 0.61583 0.86375 0.0
O222 O 0.17373 0.63568 0.83824 0.0
O223 O 0.20838 0.62205 0.80842 0.0
C224 C 0.20248 0.61419 0.92972 0.0
C225 C 0.2549 0.65353 0.86301 0.0
C226 C 0.21065 0.55999 0.85224 0.0
O227 O 0.18562 0.62671 0.91011 0.0
O228 O 0.22354 0.60289 0.91582 0.0
O229 O 0.23355 0.57387 0.85171 0.0
O230 O 0.18879 0.57446 0.85835 0.0
C231 C 0.18415 0.63317 0.80933 0.0
O232 O 0.2586 0.62776 0.85569 0.0
O233 O 0.22982 0.65997 0.87066 0.0
In234 In 0.37979 0.21663 0.86185 0.0
O235 O 0.36153 0.17617 0.83906 0.0
O236 O 0.37656 0.20838 0.80654 0.0
C237 C 0.37926 0.20887 0.92834 0.0
C238 C 0.34058 0.25772 0.85675 0.0
C239 C 0.4361 0.21831 0.85381 0.0
O240 O 0.36972 0.19022 0.90868 0.0
O241 O 0.38867 0.23078 0.91427 0.0
O242 O 0.42073 0.23998 0.8501 0.0
O243 O 0.42287 0.19591 0.8611 0.0
C244 C 0.36537 0.18425 0.80937 0.0
O245 O 0.36642 0.26208 0.85051 0.0
O246 O 0.33474 0.23268 0.86527 0.0
In247 In 0.78572 0.37859 0.86288 0.0
O248 O 0.82472 0.35818 0.8391 0.0
O249 O 0.79481 0.37887 0.80777 0.0
C250 C 0.7895 0.3731 0.92941 0.0
C251 C 0.74532 0.33939 0.85386 0.0
C252 C 0.78632 0.43525 0.8588 0.0
O253 O 0.81097 0.36951 0.91099 0.0
O254 O 0.76717 0.37982 0.91419 0.0
O255 O 0.76448 0.42089 0.8519 0.0
O256 O 0.80755 0.42086 0.86762 0.0
C257 C 0.81753 0.36499 0.80979 0.0
O258 O 0.74026 0.36558 0.85069 0.0
O259 O 0.77064 0.33343 0.86101 0.0
In260 In 0.61351 0.21332 0.14048 0.0
O261 O 0.63296 0.17327 0.16273 0.0
O262 O 0.6167 0.20468 0.19561 0.0
C263 C 0.61497 0.20794 0.07367 0.0
C264 C 0.65362 0.25316 0.14769 0.0
C265 C 0.55727 0.21304 0.14917 0.0
O266 O 0.62224 0.18779 0.09263 0.0
O267 O 0.6071 0.23005 0.08861 0.0
O268 O 0.57182 0.23535 0.15265 0.0
O269 O 0.57124 0.19126 0.14135 0.0
C270 C 0.62886 0.18105 0.19251 0.0
O271 O 0.62769 0.25858 0.15236 0.0
O272 O 0.65884 0.22794 0.13941 0.0
In273 In 0.78023 0.61499 0.14212 0.0
O274 O 0.73483 0.62951 0.15244 0.0
O275 O 0.76591 0.66035 0.13982 0.0
C276 C 0.78076 0.55853 0.1485 0.0
C277 C 0.81097 0.62885 0.19599 0.0
C278 C 0.78694 0.61673 0.07562 0.0
O279 O 0.75836 0.57283 0.15261 0.0
O280 O 0.8025 0.5729 0.14155 0.0
O281 O 0.80647 0.62471 0.09511 0.0
O282 O 0.76479 0.60814 0.08993 0.0
C283 C 0.74046 0.65535 0.14722 0.0
O284 O 0.81965 0.63375 0.16671 0.0
O285 O 0.78712 0.6169 0.19766 0.0
In286 In 0.37995 0.7832 0.14001 0.0
O287 O 0.36006 0.82271 0.16317 0.0
O288 O 0.37388 0.78963 0.1953 0.0
C289 C 0.38352 0.792 0.07395 0.0
C290 C 0.34055 0.74206 0.14017 0.0
C291 C 0.43583 0.78388 0.15129 0.0
O292 O 0.37091 0.80944 0.09276 0.0
O293 O 0.39363 0.77066 0.08857 0.0
O294 O 0.42153 0.76122 0.15266 0.0
O295 O 0.42168 0.80589 0.14482 0.0
C296 C 0.36256 0.81371 0.19271 0.0
O297 O 0.36561 0.73757 0.14995 0.0
O298 O 0.33577 0.76708 0.13082 0.0
In299 In 0.2112 0.38076 0.13815 0.0
O300 O 0.17198 0.36133 0.16266 0.0
O301 O 0.20503 0.37704 0.19367 0.0
C302 C 0.20313 0.38159 0.07169 0.0
C303 C 0.25144 0.34063 0.14123 0.0
C304 C 0.21139 0.43681 0.14826 0.0
O305 O 0.18449 0.37174 0.09119 0.0
O306 O 0.22505 0.39081 0.08595 0.0
O307 O 0.23381 0.42221 0.14978 0.0
O308 O 0.1892 0.42298 0.14168 0.0
C309 C 0.18108 0.36532 0.19196 0.0
O310 O 0.25668 0.36627 0.14799 0.0
O311 O 0.22613 0.33567 0.13316 0.0
In312 In 0.37855 0.21327 0.13962 0.0
O313 O 0.35993 0.17309 0.16261 0.0
O314 O 0.37379 0.20609 0.19488 0.0
C315 C 0.37931 0.20668 0.07306 0.0
C316 C 0.33835 0.2534 0.14279 0.0
C317 C 0.43461 0.21296 0.14947 0.0
O318 O 0.36921 0.18773 0.09196 0.0
O319 O 0.38884 0.22817 0.08796 0.0
O320 O 0.4201 0.23537 0.15227 0.0
O321 O 0.42065 0.19107 0.14196 0.0
C322 C 0.36289 0.1818 0.19222 0.0
O323 O 0.36389 0.25862 0.15009 0.0
O324 O 0.33351 0.22814 0.1344 0.0
In325 In 0.78141 0.379 0.14021 0.0
O326 O 0.82063 0.35916 0.16403 0.0
O327 O 0.78997 0.37851 0.19551 0.0
C328 C 0.78711 0.37361 0.07378 0.0
C329 C 0.74126 0.33942 0.14875 0.0
C330 C 0.78119 0.43561 0.14567 0.0
O331 O 0.80802 0.37026 0.09309 0.0
O332 O 0.76429 0.38013 0.08808 0.0
O333 O 0.75915 0.42098 0.15059 0.0
O334 O 0.80289 0.42156 0.13782 0.0
C335 C 0.8131 0.36531 0.19341 0.0
O336 O 0.73588 0.36558 0.15153 0.0
O337 O 0.76671 0.3337 0.14209 0.0
In338 In 0.61454 0.78357 0.13847 0.0
O339 O 0.63447 0.82346 0.16076 0.0
O340 O 0.61878 0.79175 0.19362 0.0
C341 C 0.61456 0.78964 0.07167 0.0
C342 C 0.65416 0.74303 0.14419 0.0
C343 C 0.55848 0.78405 0.1487 0.0
O344 O 0.6236 0.80907 0.09063 0.0
O345 O 0.60569 0.7679 0.08661 0.0
O346 O 0.57298 0.76164 0.15138 0.0
O347 O 0.5724 0.80589 0.14092 0.0
C348 C 0.63088 0.81542 0.19053 0.0
O349 O 0.6283 0.7381 0.14993 0.0
O350 O 0.65957 0.76813 0.13559 0.0
In351 In 0.21226 0.61557 0.14003 0.0
O352 O 0.17316 0.63499 0.16468 0.0
O353 O 0.20664 0.62007 0.19556 0.0
C354 C 0.20252 0.6139 0.07406 0.0
C355 C 0.25335 0.65503 0.14053 0.0
C356 C 0.21196 0.55951 0.15008 0.0
O357 O 0.18518 0.6256 0.09377 0.0
O358 O 0.22403 0.60332 0.08786 0.0
O359 O 0.23459 0.57386 0.15113 0.0
O360 O 0.18982 0.57364 0.14426 0.0
C361 C 0.18251 0.63138 0.19391 0.0
O362 O 0.25803 0.62973 0.14928 0.0
O363 O 0.22814 0.66006 0.13217 0.0
In364 In 0.38025 0.78272 0.86365 0.0
O365 O 0.36745 0.73682 0.85402 0.0
O366 O 0.33593 0.76546 0.87096 0.0
C367 C 0.43605 0.78131 0.85194 0.0
C368 C 0.36322 0.81426 0.81148 0.0
C369 C 0.38353 0.79169 0.92981 0.0
O370 O 0.42061 0.75954 0.84963 0.0
O371 O 0.42309 0.8038 0.85952 0.0
O372 O 0.37074 0.8089 0.91091 0.0
O373 O 0.39392 0.77049 0.91527 0.0
C374 C 0.34194 0.74051 0.86227 0.0
O375 O 0.3607 0.82278 0.84118 0.0
O376 O 0.37437 0.79016 0.80846 0.0
In377 In 0.20988 0.38122 0.86018 0.0
O378 O 0.17029 0.36114 0.83733 0.0
O379 O 0.20241 0.37645 0.80488 0.0
C380 C 0.20253 0.38161 0.92683 0.0
C381 C 0.25224 0.34333 0.85598 0.0
C382 C 0.20923 0.43734 0.85022 0.0
O383 O 0.18414 0.37099 0.90759 0.0
O384 O 0.22389 0.39169 0.91227 0.0
O385 O 0.23167 0.42289 0.84793 0.0
O386 O 0.18728 0.42332 0.85727 0.0
C387 C 0.17863 0.36456 0.80766 0.0
O388 O 0.25574 0.36922 0.84917 0.0
O389 O 0.22742 0.33679 0.86464 0.0
In390 In 0.61517 0.21566 0.86203 0.0
O391 O 0.63386 0.17571 0.83842 0.0
O392 O 0.61579 0.20708 0.80681 0.0
C393 C 0.61648 0.2093 0.92871 0.0
C394 C 0.6563 0.25451 0.85497 0.0
C395 C 0.55887 0.21806 0.85478 0.0
O396 O 0.62277 0.18907 0.90938 0.0
O397 O 0.60985 0.23201 0.91419 0.0
O398 O 0.57448 0.23951 0.85044 0.0
O399 O 0.57185 0.19562 0.86252 0.0
C400 C 0.62814 0.18349 0.809 0.0
O401 O 0.6305 0.26058 0.85056 0.0
O402 O 0.66095 0.22908 0.86284 0.0
In403 In 0.78318 0.61479 0.86402 0.0
O404 O 0.82239 0.63581 0.84165 0.0
O405 O 0.79211 0.61749 0.80885 0.0
C406 C 0.78832 0.61691 0.93074 0.0
C407 C 0.74111 0.65258 0.85704 0.0
C408 C 0.78535 0.55829 0.85786 0.0
O409 O 0.8081 0.62522 0.91184 0.0
O410 O 0.76665 0.60792 0.91578 0.0
O411 O 0.76296 0.57214 0.85212 0.0
O412 O 0.80645 0.57313 0.86607 0.0
C413 C 0.81507 0.63088 0.81189 0.0
O414 O 0.73747 0.62649 0.85139 0.0
O415 O 0.76585 0.65926 0.86588 0.0
C416 C 0.2253 0.20283 0.35346 0.0
C417 C 0.21864 0.17399 0.34955 0.0
C418 C 0.20422 0.22355 0.35326 0.0
C419 C 0.17557 0.21635 0.34908 0.0
H420 H 0.24697 0.20953 0.35736 0.0
H421 H 0.21049 0.24539 0.35697 0.0
S422 S 0.14695 0.14399 0.33607 0.0
N423 N 0.18142 0.13932 0.34003 0.0
N424 N 0.14165 0.17842 0.33957 0.0
C425 C 0.1686 0.18769 0.34413 0.0
C426 C 0.19017 0.16647 0.34439 0.0
C427 C 0.77 0.20398 0.35769 0.0
C428 C 0.77652 0.17535 0.35185 0.0
C429 C 0.79114 0.22465 0.35849 0.0
C430 C 0.81972 0.21762 0.35339 0.0
H431 H 0.74837 0.21053 0.36223 0.0
H432 H 0.78497 0.24633 0.36348 0.0
S433 S 0.84802 0.14585 0.33586 0.0
N434 N 0.81358 0.14106 0.33995 0.0
N435 N 0.85345 0.18008 0.34133 0.0
C436 C 0.82657 0.18917 0.34679 0.0
C437 C 0.80494 0.16801 0.34605 0.0
C438 C 0.79135 0.77025 0.35324 0.0
C439 C 0.82022 0.77693 0.35022 0.0
C440 C 0.77067 0.79136 0.35298 0.0
C441 C 0.77794 0.82009 0.3497 0.0
H442 H 0.78456 0.74851 0.35647 0.0
H443 H 0.74878 0.78503 0.35601 0.0
S444 S 0.85049 0.84884 0.33912 0.0
N445 N 0.85507 0.81429 0.34239 0.0
N446 N 0.81602 0.85414 0.34189 0.0
C447 C 0.80667 0.82712 0.34559 0.0
C448 C 0.82785 0.8055 0.34585 0.0
C449 C 0.16977 0.80349 0.35068 0.0
C450 C 0.17675 0.77462 0.35349 0.0
C451 C 0.19087 0.82443 0.35085 0.0
C452 C 0.21966 0.81722 0.35382 0.0
H453 H 0.14784 0.81002 0.34911 0.0
H454 H 0.18452 0.84643 0.34939 0.0
S455 S 0.2492 0.74446 0.35884 0.0
N456 N 0.21463 0.73984 0.35714 0.0
N457 N 0.2541 0.77902 0.35745 0.0
C458 C 0.22693 0.78836 0.35548 0.0
C459 C 0.20552 0.76712 0.35531 0.0
C460 C 0.20257 0.77269 0.64714 0.0
C461 C 0.17388 0.77969 0.65143 0.0
C462 C 0.22357 0.79348 0.64747 0.0
C463 C 0.21681 0.8222 0.65207 0.0
H464 H 0.20895 0.75094 0.64301 0.0
H465 H 0.24528 0.78693 0.64354 0.0
S466 S 0.14497 0.85168 0.66588 0.0
N467 N 0.13978 0.81729 0.66159 0.0
N468 N 0.17943 0.85657 0.66218 0.0
C469 C 0.18828 0.82953 0.65724 0.0
C470 C 0.16678 0.80823 0.65693 0.0
C471 C 0.19306 0.17001 0.65341 0.0
C472 C 0.22176 0.17793 0.65426 0.0
C473 C 0.17156 0.19047 0.6529 0.0
C474 C 0.17805 0.21954 0.65316 0.0
H475 H 0.18713 0.14788 0.65205 0.0
H476 H 0.14978 0.18345 0.6512 0.0
S477 S 0.24974 0.25127 0.65954 0.0
N478 N 0.2554 0.2168 0.6584 0.0
N479 N 0.21508 0.25517 0.65736 0.0
C480 C 0.2066 0.22769 0.6556 0.0
C481 C 0.22844 0.20691 0.65618 0.0
C482 C 0.79985 0.17209 0.65563 0.0
C483 C 0.77183 0.17887 0.64686 0.0
C484 C 0.8213 0.19264 0.65487 0.0
C485 C 0.81552 0.2207 0.64523 0.0
H486 H 0.80535 0.15068 0.66282 0.0
H487 H 0.84261 0.18639 0.66157 0.0
S488 S 0.74547 0.2495 0.62043 0.0
N489 N 0.7394 0.21584 0.62871 0.0
N490 N 0.77956 0.25427 0.62722 0.0
C491 C 0.78751 0.22782 0.63679 0.0
C492 C 0.76571 0.20697 0.63762 0.0
C493 C 0.79082 0.77192 0.6488 0.0
C494 C 0.81954 0.77888 0.65296 0.0
C495 C 0.76997 0.79285 0.64796 0.0
C496 C 0.7769 0.82167 0.6513 0.0
H497 H 0.78431 0.7501 0.64551 0.0
H498 H 0.74823 0.78631 0.64414 0.0
S499 S 0.84884 0.85114 0.66452 0.0
N500 N 0.85382 0.8166 0.66179 0.0
N501 N 0.81444 0.85611 0.66028 0.0
C502 C 0.80543 0.82898 0.65647 0.0
C503 C 0.82679 0.80755 0.65729 0.0
C504 C 0.70358 0.72322 0.86123 0.0
C505 C 0.67532 0.71643 0.85375 0.0
C506 C 0.72461 0.70243 0.86169 0.0
C507 C 0.7183 0.67395 0.85468 0.0
H508 H 0.70959 0.74477 0.86719 0.0
H509 H 0.74597 0.70882 0.86798 0.0
S510 S 0.64772 0.64511 0.83238 0.0
N511 N 0.64215 0.67927 0.83824 0.0
N512 N 0.68182 0.64006 0.83911 0.0
C513 C 0.69021 0.66685 0.84654 0.0
C514 C 0.6687 0.68812 0.84608 0.0
C515 C 0.27157 0.70303 0.87128 0.0
C516 C 0.27782 0.67488 0.86259 0.0
C517 C 0.29249 0.72397 0.87104 0.0
C518 C 0.32054 0.71765 0.86208 0.0
H519 H 0.2503 0.70908 0.87835 0.0
H520 H 0.28651 0.74531 0.87795 0.0
S521 S 0.34809 0.64711 0.83742 0.0
N522 N 0.31417 0.64166 0.84489 0.0
N523 N 0.35359 0.68112 0.84442 0.0
C524 C 0.32718 0.68956 0.85337 0.0
C525 C 0.3058 0.66816 0.85364 0.0
C526 C 0.29047 0.27317 0.86284 0.0
C527 C 0.31867 0.28006 0.85512 0.0
C528 C 0.26923 0.29376 0.86267 0.0
C529 C 0.27527 0.32213 0.85476 0.0
H530 H 0.28468 0.25168 0.86937 0.0
H531 H 0.24791 0.28733 0.86906 0.0
S532 S 0.34563 0.35122 0.83196 0.0
N533 N 0.3515 0.31725 0.83876 0.0
N534 N 0.31147 0.35605 0.83842 0.0
C535 C 0.30331 0.32934 0.84657 0.0
C536 C 0.32503 0.30829 0.84676 0.0
C537 C 0.67303 0.30452 0.84813 0.0
C538 C 0.67935 0.27563 0.85238 0.0
C539 C 0.69454 0.32502 0.84775 0.0
C540 C 0.72313 0.31734 0.85156 0.0
H541 H 0.65128 0.31146 0.84576 0.0
H542 H 0.68863 0.34706 0.84516 0.0
S543 S 0.75104 0.24425 0.86105 0.0
N544 N 0.71642 0.24026 0.85873 0.0
N545 N 0.7567 0.27862 0.85796 0.0
C546 C 0.72977 0.28842 0.85478 0.0
C547 C 0.70792 0.26761 0.85522 0.0
C548 C 0.66935 0.30362 0.15336 0.0
C549 C 0.67622 0.27474 0.15043 0.0
C550 C 0.69054 0.32446 0.15367 0.0
C551 C 0.71932 0.31713 0.15114 0.0
H552 H 0.64744 0.31026 0.15465 0.0
H553 H 0.68425 0.34647 0.15517 0.0
S554 S 0.74856 0.24426 0.14588 0.0
N555 N 0.71395 0.2398 0.14703 0.0
N556 N 0.75362 0.27879 0.14768 0.0
C557 C 0.72648 0.28825 0.14937 0.0
C558 C 0.70497 0.2671 0.14899 0.0
C559 C 0.69011 0.6714 0.15271 0.0
C560 C 0.71889 0.67806 0.14829 0.0
C561 C 0.66926 0.69257 0.1519 0.0
C562 C 0.67647 0.72113 0.14659 0.0
H563 H 0.68354 0.64964 0.15629 0.0
H564 H 0.64733 0.68641 0.15491 0.0
S565 S 0.74904 0.74994 0.13572 0.0
N566 N 0.7536 0.71551 0.13994 0.0
N567 N 0.71459 0.75509 0.13837 0.0
C568 C 0.70525 0.72813 0.14293 0.0
C569 C 0.72641 0.70665 0.1438 0.0
C570 C 0.30236 0.6721 0.15375 0.0
C571 C 0.27551 0.6772 0.13981 0.0
C572 C 0.3234 0.69311 0.15366 0.0
C573 C 0.31834 0.71993 0.13959 0.0
H574 H 0.3071 0.65184 0.16507 0.0
H575 H 0.34368 0.68834 0.16491 0.0
S576 S 0.25205 0.74341 0.09823 0.0
N577 N 0.24541 0.71074 0.11045 0.0
N578 N 0.28477 0.75002 0.11025 0.0
C579 C 0.29171 0.72511 0.12514 0.0
C580 C 0.27035 0.7038 0.12526 0.0
C581 C 0.30122 0.32442 0.15134 0.0
C582 C 0.27318 0.31807 0.1422 0.0
C583 C 0.32217 0.30337 0.1518 0.0
C584 C 0.31584 0.2752 0.14313 0.0
H585 H 0.30711 0.34585 0.15803 0.0
H586 H 0.34351 0.30928 0.15879 0.0
S587 S 0.2455 0.24743 0.11768 0.0
N588 N 0.24015 0.28144 0.12456 0.0
N589 N 0.27935 0.24204 0.12543 0.0
C590 C 0.28781 0.26854 0.13419 0.0
C591 C 0.26653 0.28992 0.13372 0.0
C592 C 0.98301 0.30481 0.35586 0.0
C593 C 0.96739 0.28024 0.34855 0.0
C594 C 0.01259 0.30456 0.35585 0.0
C595 C 0.02776 0.27973 0.34848 0.0
H596 H 0.97235 0.32435 0.36234 0.0
H597 H 0.0236 0.32392 0.36228 0.0
S598 S 0.99694 0.21007 0.32568 0.0
N599 N 0.96927 0.23064 0.33225 0.0
N600 N 0.02499 0.23018 0.33219 0.0
C601 C 0.01246 0.25518 0.34012 0.0
C602 C 0.98225 0.25543 0.34016 0.0
C603 C 0.73498 0.01303 0.3473 0.0
C604 C 0.71052 0.02813 0.35639 0.0
C605 C 0.73519 0.98336 0.34687 0.0
C606 C 0.71095 0.9677 0.35548 0.0
H607 H 0.75423 0.02417 0.34077 0.0
H608 H 0.75461 0.97265 0.34005 0.0
S609 S 0.6412 0.99713 0.38032 0.0
N610 N 0.66121 0.02518 0.37358 0.0
N611 N 0.6616 0.96954 0.37275 0.0
C612 C 0.68622 0.98255 0.36416 0.0
C613 C 0.686 0.01273 0.36462 0.0
C614 C 0.01143 0.73457 0.34776 0.0
C615 C 0.02694 0.70995 0.35519 0.0
C616 C 0.98177 0.73452 0.34832 0.0
C617 C 0.96653 0.70986 0.35638 0.0
H618 H 0.02225 0.75418 0.34194 0.0
H619 H 0.97076 0.75409 0.34287 0.0
S620 S 0.99708 0.63942 0.37628 0.0
N621 N 0.02478 0.65994 0.36971 0.0
N622 N 0.96917 0.65987 0.37081 0.0
C623 C 0.98177 0.68493 0.36317 0.0
C624 C 0.01194 0.68497 0.36255 0.0
C625 C 0.25948 0.98231 0.35109 0.0
C626 C 0.28433 0.96678 0.35727 0.0
C627 C 0.25961 0.01199 0.35143 0.0
C628 C 0.28458 0.02723 0.358 0.0
H629 H 0.23966 0.97149 0.34636 0.0
H630 H 0.23988 0.02302 0.3469 0.0
S631 S 0.35563 0.99662 0.37431 0.0
N632 N 0.33483 0.96891 0.36909 0.0
N633 N 0.33504 0.02456 0.36977 0.0
C634 C 0.30969 0.01196 0.36363 0.0
C635 C 0.30957 0.98178 0.36325 0.0
C636 C 0.01165 0.73768 0.65481 0.0
C637 C 0.02704 0.7125 0.65014 0.0
C638 C 0.982 0.7377 0.65438 0.0
C639 C 0.96666 0.71256 0.6492 0.0
H640 H 0.02256 0.75765 0.65822 0.0
H641 H 0.97108 0.75768 0.65752 0.0
S642 S 0.99688 0.6406 0.63805 0.0
N643 N 0.02469 0.66149 0.64188 0.0
N644 N 0.96905 0.66155 0.64103 0.0
C645 C 0.98178 0.6871 0.6454 0.0
C646 C 0.01194 0.68707 0.64589 0.0
C647 C 0.30549 0.98432 0.63945 0.0
C648 C 0.28096 0.96928 0.64842 0.0
C649 C 0.30575 0.01391 0.63869 0.0
C650 C 0.2815 0.02968 0.6469 0.0
H651 H 0.32465 0.97318 0.63257 0.0
H652 H 0.32512 0.02446 0.63132 0.0
S653 S 0.21202 0.00054 0.67311 0.0
N654 N 0.23189 0.97237 0.66645 0.0
N655 N 0.2324 0.0281 0.66506 0.0
C656 C 0.25691 0.01497 0.65643 0.0
C657 C 0.25663 0.98475 0.65718 0.0
C658 C 0.01212 0.3028 0.64453 0.0
C659 C 0.02739 0.27761 0.64947 0.0
C660 C 0.98256 0.30303 0.64509 0.0
C661 C 0.96702 0.27806 0.65054 0.0
H662 H 0.02303 0.32256 0.63972 0.0
H663 H 0.97185 0.32295 0.6406 0.0
S664 S 0.99685 0.20661 0.66627 0.0
N665 N 0.02483 0.22711 0.66117 0.0
N666 N 0.96908 0.22753 0.66213 0.0
C667 C 0.98197 0.25278 0.65635 0.0
C668 C 0.0122 0.25256 0.65583 0.0
C669 C 0.73388 0.01387 0.65277 0.0
C670 C 0.70861 0.02898 0.6476 0.0
C671 C 0.73419 0.98419 0.65276 0.0
C672 C 0.70923 0.96853 0.6476 0.0
H673 H 0.7537 0.02502 0.65624 0.0
H674 H 0.75424 0.97348 0.65623 0.0
S675 S 0.63713 -0.00202 0.63524 0.0
N676 N 0.65771 0.02603 0.63887 0.0
N677 N 0.65829 0.97037 0.63886 0.0
C678 C 0.68369 0.98339 0.64332 0.0
C679 C 0.68337 0.01357 0.64332 0.0
C680 C 0.51246 0.80506 0.8531 0.0
C681 C 0.52753 0.7797 0.8485 0.0
C682 C 0.48289 0.80542 0.8531 0.0
C683 C 0.46718 0.78044 0.84852 0.0
H684 H 0.52354 0.8248 0.85742 0.0
H685 H 0.4723 0.82542 0.85748 0.0
S686 S 0.49646 0.70867 0.83329 0.0
N687 N 0.52458 0.7291 0.83758 0.0
N688 N 0.46886 0.72977 0.83761 0.0
C689 C 0.48193 0.75503 0.84276 0.0
C690 C 0.51214 0.75467 0.84275 0.0
C691 C 0.23467 0.4836 0.84696 0.0
C692 C 0.209 0.46852 0.84722 0.0
C693 C 0.23501 0.51325 0.84749 0.0
C694 C 0.2097 0.52889 0.84825 0.0
H695 H 0.2547 0.47245 0.8474 0.0
H696 H 0.2553 0.52393 0.84829 0.0
S697 S 0.13684 0.49952 0.84534 0.0
N698 N 0.15761 0.47144 0.84552 0.0
N699 N 0.15824 0.52713 0.84645 0.0
C700 C 0.18388 0.51409 0.84696 0.0
C701 C 0.18353 0.48391 0.84646 0.0
C702 C 0.48263 0.19381 0.85631 0.0
C703 C 0.46731 0.21899 0.85157 0.0
C704 C 0.51219 0.19377 0.85663 0.0
C705 C 0.52768 0.21891 0.85221 0.0
H706 H 0.47175 0.17391 0.86035 0.0
H707 H 0.52294 0.17383 0.86086 0.0
S708 S 0.49774 0.29046 0.83739 0.0
N709 N 0.4698 0.26971 0.84121 0.0
N710 N 0.52555 0.26962 0.84179 0.0
C711 C 0.5127 0.2442 0.8466 0.0
C712 C 0.48247 0.24425 0.84629 0.0
C713 C 0.76231 0.48168 0.84889 0.0
C714 C 0.78692 0.46655 0.85734 0.0
C715 C 0.7621 0.51136 0.84854 0.0
C716 C 0.78651 0.527 0.8566 0.0
H717 H 0.74292 0.47056 0.84286 0.0
H718 H 0.74255 0.52209 0.84231 0.0
S719 S 0.85674 0.49747 0.87937 0.0
N720 N 0.83658 0.46945 0.87314 0.0
N721 N 0.8362 0.52509 0.87245 0.0
C722 C 0.81141 0.51211 0.86452 0.0
C723 C 0.81161 0.48193 0.86491 0.0
C724 C 0.4811 0.23805 0.15355 0.0
C725 C 0.46576 0.21253 0.15266 0.0
C726 C 0.51078 0.23807 0.15342 0.0
C727 C 0.52612 0.21257 0.15236 0.0
H728 H 0.47015 0.2582 0.15338 0.0
H729 H 0.52172 0.25823 0.15318 0.0
S730 S 0.49598 0.13996 0.15356 0.0
N731 N 0.46815 0.16105 0.15343 0.0
N732 N 0.52379 0.1611 0.15315 0.0
C733 C 0.51103 0.1869 0.15291 0.0
C734 C 0.48088 0.18688 0.15307 0.0
C735 C 0.75603 0.51174 0.15206 0.0
C736 C 0.7814 0.52725 0.15004 0.0
C737 C 0.75613 0.48205 0.15123 0.0
C738 C 0.7816 0.46684 0.14829 0.0
H739 H 0.73589 0.52259 0.15363 0.0
H740 H 0.73606 0.471 0.15225 0.0
S741 S 0.85397 0.49738 0.14492 0.0
N742 N 0.83281 0.52509 0.14697 0.0
N743 N 0.83298 0.46946 0.14535 0.0
C744 C 0.80716 0.48208 0.14723 0.0
C745 C 0.80707 0.51224 0.14813 0.0
C746 C 0.48241 0.75894 0.1548 0.0
C747 C 0.46701 0.78442 0.15427 0.0
C748 C 0.51207 0.75898 0.15404 0.0
C749 C 0.52738 0.78451 0.15266 0.0
H750 H 0.4715 0.73876 0.15479 0.0
H751 H 0.52302 0.73884 0.15353 0.0
S752 S 0.49716 0.85705 0.15443 0.0
N753 N 0.46936 0.83591 0.15496 0.0
N754 N 0.52499 0.83597 0.15346 0.0
C755 C 0.51226 0.81015 0.15358 0.0
C756 C 0.48211 0.81011 0.15441 0.0
C757 C 0.23678 0.48319 0.15154 0.0
C758 C 0.21121 0.46794 0.15205 0.0
C759 C 0.23693 0.51287 0.15205 0.0
C760 C 0.2115 0.52832 0.15311 0.0
H761 H 0.25683 0.47217 0.14973 0.0
H762 H 0.25708 0.52374 0.15059 0.0
S763 S 0.139 0.49836 0.15872 0.0
N764 N 0.15991 0.47046 0.15648 0.0
N765 N 0.16018 0.52613 0.15747 0.0
C766 C 0.18585 0.51329 0.15516 0.0
C767 C 0.18571 0.48313 0.15462 0.0
C768 C 0.12507 0.30696 0.48194 0.0
C769 C 0.11589 0.28315 0.46376 0.0
C770 C 0.12511 0.30691 0.51701 0.0
C771 C 0.11603 0.28303 0.53511 0.0
H772 H 0.13234 0.32573 0.46903 0.0
H773 H 0.13242 0.32563 0.52998 0.0
S774 S 0.08936 0.21548 0.49934 0.0
N775 N 0.09706 0.23521 0.46675 0.0
N776 N 0.09717 0.23511 0.53199 0.0
C777 C 0.10666 0.2592 0.51713 0.0
C778 C 0.10659 0.25926 0.48167 0.0
C779 C 0.68019 0.12145 0.51787 0.0
C780 C 0.70548 0.12349 0.53625 0.0
C781 C 0.68054 0.12166 0.48282 0.0
C782 C 0.70619 0.12395 0.46519 0.0
H783 H 0.66016 0.11877 0.53058 0.0
H784 H 0.66077 0.1191 0.46951 0.0
S785 S 0.77762 0.13421 0.50184 0.0
N786 N 0.7564 0.13091 0.53418 0.0
N787 N 0.75705 0.13134 0.46884 0.0
C788 C 0.73136 0.12747 0.48341 0.0
C789 C 0.73101 0.12723 0.51881 0.0
C790 C 0.87254 0.68334 0.48577 0.0
C791 C 0.87088 0.70872 0.46746 0.0
C792 C 0.87256 0.68361 0.52083 0.0
C793 C 0.87093 0.70925 0.53859 0.0
H794 H 0.87473 0.66327 0.47299 0.0
H795 H 0.87477 0.66374 0.53404 0.0
S796 S 0.86207 0.78102 0.50227 0.0
N797 N 0.86464 0.75981 0.46982 0.0
N798 N 0.86468 0.7603 0.53517 0.0
C799 C 0.86785 0.73455 0.52047 0.0
C800 C 0.86782 0.73428 0.48504 0.0
C801 C 0.26503 0.88486 0.52017 0.0
C802 C 0.28902 0.8768 0.53859 0.0
C803 C 0.26505 0.88445 0.48547 0.0
C804 C 0.28905 0.87595 0.46737 0.0
H805 H 0.24587 0.89168 0.5326 0.0
H806 H 0.2459 0.89098 0.47278 0.0
S807 S 0.35743 0.85248 0.50345 0.0
N808 N 0.33757 0.8598 0.53617 0.0
N809 N 0.3376 0.85903 0.47046 0.0
C810 C 0.31328 0.86769 0.48531 0.0
C811 C 0.31327 0.86812 0.52099 0.0
C812 C 0.10875 0.73075 0.48443 0.0
C813 C 0.11719 0.70661 0.46651 0.0
C814 C 0.10875 0.73108 0.51914 0.0
C815 C 0.11716 0.70727 0.53768 0.0
H816 H 0.10203 0.74977 0.47159 0.0
H817 H 0.10201 0.75032 0.53149 0.0
S818 S 0.14122 0.63855 0.50299 0.0
N819 N 0.13425 0.6581 0.46989 0.0
N820 N 0.13422 0.65871 0.53557 0.0
C821 C 0.12568 0.68287 0.52024 0.0
C822 C 0.12569 0.68254 0.48458 0.0
C823 C 0.31477 0.12119 0.48372 0.0
C824 C 0.28958 0.12578 0.4658 0.0
C825 C 0.31494 0.12154 0.51877 0.0
C826 C 0.28992 0.12653 0.53688 0.0
H827 H 0.33419 0.11623 0.47065 0.0
H828 H 0.33449 0.11684 0.53172 0.0
S829 S 0.21952 0.14426 0.50147 0.0
N830 N 0.23981 0.13862 0.46875 0.0
N831 N 0.24011 0.13935 0.53412 0.0
C832 C 0.26505 0.13276 0.5191 0.0
C833 C 0.26488 0.13236 0.48368 0.0
C834 C 0.86537 0.30828 0.48295 0.0
C835 C 0.88355 0.29032 0.46493 0.0
C836 C 0.86534 0.30826 0.518 0.0
C837 C 0.8835 0.29028 0.53604 0.0
H838 H 0.85044 0.32171 0.46994 0.0
H839 H 0.85039 0.32166 0.531 0.0
S840 S 0.93811 0.24253 0.50054 0.0
N841 N 0.92223 0.25643 0.46783 0.0
N842 N 0.92218 0.2564 0.53321 0.0
C843 C 0.90274 0.27339 0.51821 0.0
C844 C 0.90277 0.27341 0.48279 0.0
C845 C 0.73059 0.88397 0.51728 0.0
C846 C 0.70637 0.87611 0.5354 0.0
C847 C 0.73083 0.88362 0.48255 0.0
C848 C 0.70686 0.8754 0.46417 0.0
H849 H 0.7497 0.89062 0.52997 0.0
H850 H 0.75011 0.89003 0.47008 0.0
S851 S 0.63801 0.85241 0.49941 0.0
N852 N 0.65771 0.85949 0.53236 0.0
N853 N 0.65816 0.85885 0.46668 0.0
C854 C 0.68245 0.86725 0.48181 0.0
C855 C 0.68221 0.8676 0.51749 0.0
C856 C 0.60192 0.76895 0.01681 0.0
C857 C 0.61444 0.79121 0.03479 0.0
C858 C 0.60212 0.76852 0.98208 0.0
C859 C 0.61484 0.79035 0.96355 0.0
H860 H 0.59196 0.75139 0.02962 0.0
H861 H 0.59229 0.75066 0.96971 0.0
S862 S 0.6501 0.85401 0.99838 0.0
N863 N 0.63956 0.8361 0.03145 0.0
N864 N 0.63992 0.8353 0.96576 0.0
C865 C 0.6271 0.81308 0.98105 0.0
C866 C 0.62691 0.81352 0.01673 0.0
C867 C 0.21657 0.59456 0.9845 0.0
C868 C 0.19912 0.61308 0.96635 0.0
C869 C 0.21658 0.59448 0.0192 0.0
C870 C 0.19913 0.61289 0.03745 0.0
H871 H 0.23091 0.58028 0.97182 0.0
H872 H 0.23093 0.58016 0.03182 0.0
S873 S 0.14812 0.66445 0.00207 0.0
N874 N 0.16278 0.64947 0.96916 0.0
N875 N 0.16279 0.64929 0.03487 0.0
C876 C 0.18063 0.63077 0.01978 0.0
C877 C 0.18063 0.63087 0.98412 0.0
C878 C 0.39429 0.2261 0.01844 0.0
C879 C 0.3798 0.20495 0.03624 0.0
C880 C 0.39421 0.22667 0.98373 0.0
C881 C 0.37965 0.20611 0.96508 0.0
H882 H 0.40566 0.24269 0.03139 0.0
H883 H 0.40555 0.24366 0.97147 0.0
S884 S 0.33894 0.1456 0.99941 0.0
N885 N 0.35093 0.1624 0.03261 0.0
N886 N 0.35082 0.16346 0.96693 0.0
C887 C 0.36551 0.18439 0.98238 0.0
C888 C 0.36558 0.18382 0.01804 0.0
C889 C 0.81412 0.37422 0.01973 0.0
C890 C 0.78854 0.37046 0.03715 0.0
C891 C 0.81472 0.37405 0.98467 0.0
C892 C 0.78976 0.3701 0.96609 0.0
H893 H 0.83356 0.37832 0.03318 0.0
H894 H 0.83459 0.37805 0.9721 0.0
S895 S 0.7183 0.35476 1.00003 0.0
N896 N 0.73836 0.35947 0.03318 0.0
N897 N 0.73948 0.35912 0.96782 0.0
C898 C 0.76444 0.36474 0.98336 0.0
C899 C 0.76383 0.36493 0.01877 0.0
C900 C 0.608 0.23101 0.01873 0.0
C901 C 0.61567 0.20669 0.03679 0.0
C902 C 0.60842 0.23135 0.98401 0.0
C903 C 0.61649 0.20737 0.96556 0.0
H904 H 0.60162 0.25019 0.03147 0.0
H905 H 0.60231 0.25077 0.97159 0.0
S906 S 0.63836 0.13805 0.00062 0.0
N907 N 0.63153 0.15776 0.03362 0.0
N908 N 0.63226 0.15839 0.96794 0.0
C909 C 0.62417 0.18276 0.98314 0.0
C910 C 0.62377 0.18242 0.01881 0.0
C911 C 0.76618 0.60628 0.02023 0.0
C912 C 0.78897 0.61711 0.0388 0.0
C913 C 0.76649 0.60636 0.98553 0.0
C914 C 0.78961 0.61727 0.96761 0.0
H915 H 0.74771 0.59761 0.03254 0.0
H916 H 0.74825 0.59774 0.97269 0.0
S917 S 0.85484 0.6481 0.00415 0.0
N918 N 0.83553 0.63903 0.03672 0.0
N919 N 0.83612 0.63917 0.97103 0.0
C920 C 0.81272 0.6281 0.98571 0.0
C921 C 0.8124 0.62801 0.02138 0.0
C922 C 0.3657 0.81095 0.9843 0.0
C923 C 0.3857 0.79499 0.96636 0.0
C924 C 0.36571 0.81104 0.01935 0.0
C925 C 0.38572 0.79516 0.0374 0.0
H926 H 0.34926 0.82245 0.97126 0.0
H927 H 0.34927 0.82259 0.0323 0.0
S928 S 0.44535 0.75381 0.00205 0.0
N929 N 0.428 0.76576 0.9693 0.0
N930 N 0.428 0.76592 0.0347 0.0
C931 C 0.40682 0.78062 0.01965 0.0
C932 C 0.40681 0.78053 0.98423 0.0
C933 C 0.22097 0.39702 0.98181 0.0
C934 C 0.2003 0.38215 0.96367 0.0
C935 C 0.2211 0.39704 0.01654 0.0
C936 C 0.20055 0.38221 0.0349 0.0
H937 H 0.23756 0.4086 0.96912 0.0
H938 H 0.23778 0.40863 0.02906 0.0
S939 S 0.14105 0.34062 0.9996 0.0
N940 N 0.1581 0.35274 0.96665 0.0
N941 N 0.15834 0.3528 0.03236 0.0
C942 C 0.17925 0.36775 0.01724 0.0
C943 C 0.17913 0.36772 0.98155 0.0
C944 C 0.14473 0.33464 0.21913 0.0
C945 C 0.16612 0.35515 0.22204 0.0
C946 C 0.13278 0.32207 0.24742 0.0
C947 C 0.14154 0.32972 0.27971 0.0
H948 H 0.13793 0.32739 0.19484 0.0
H949 H 0.11705 0.30566 0.24385 0.0
S950 S 0.19467 0.3847 0.30086 0.0
N951 N 0.19404 0.38423 0.25979 0.0
N952 N 0.17138 0.36074 0.31291 0.0
C953 C 0.16183 0.3513 0.283 0.0
C954 C 0.17418 0.36396 0.25417 0.0
C955 C 0.63263 0.17488 0.25403 0.0
C956 C 0.63928 0.16516 0.22183 0.0
C957 C 0.64476 0.16254 0.28235 0.0
C958 C 0.66417 0.14015 0.27954 0.0
H959 H 0.61855 0.19274 0.25745 0.0
H960 H 0.63974 0.17142 0.30649 0.0
S961 S 0.68639 0.10484 0.20122 0.0
N962 N 0.66474 0.13022 0.189 0.0
N963 N 0.68768 0.10711 0.24218 0.0
C964 C 0.66993 0.12928 0.24762 0.0
C965 C 0.65744 0.14175 0.21877 0.0
C966 C 0.84838 0.65814 0.2233 0.0
C967 C 0.82628 0.63838 0.22614 0.0
C968 C 0.86081 0.67019 0.25162 0.0
C969 C 0.85178 0.66279 0.28387 0.0
H970 H 0.85542 0.66523 0.19904 0.0
H971 H 0.87708 0.68608 0.2481 0.0
S972 S 0.79679 0.60963 0.30487 0.0
N973 N 0.79742 0.61016 0.2638 0.0
N974 N 0.82091 0.63273 0.31698 0.0
C975 C 0.83077 0.6419 0.2871 0.0
C976 C 0.81797 0.62974 0.25824 0.0
C977 C 0.35888 0.81934 0.25433 0.0
C978 C 0.352 0.8292 0.22225 0.0
C979 C 0.34725 0.8318 0.28286 0.0
C980 C 0.32806 0.85441 0.28039 0.0
H981 H 0.37291 0.80141 0.25749 0.0
H982 H 0.35253 0.8229 0.30692 0.0
S983 S 0.3049 0.88973 0.20243 0.0
N984 N 0.32624 0.86422 0.18985 0.0
N985 N 0.30416 0.8875 0.24342 0.0
C986 C 0.32186 0.86524 0.24856 0.0
C987 C 0.3339 0.85269 0.2195 0.0
C988 C 0.14478 0.65935 0.78128 0.0
C989 C 0.16984 0.64347 0.77885 0.0
C990 C 0.13219 0.67124 0.75295 0.0
C991 C 0.14401 0.66743 0.72112 0.0
H992 H 0.13518 0.66328 0.80531 0.0
H993 H 0.1133 0.68395 0.75612 0.0
S994 S 0.20882 0.62661 0.70101 0.0
N995 N 0.20555 0.62376 0.74176 0.0
N996 N 0.1817 0.64595 0.68866 0.0
C997 C 0.16851 0.65081 0.71817 0.0
C998 C 0.18149 0.63889 0.74701 0.0
C999 C 0.35081 0.16524 0.71934 0.0
C1000 C 0.33309 0.14146 0.72195 0.0
C1001 C 0.36197 0.17828 0.74778 0.0
C1002 C 0.356 0.16792 0.77989 0.0
H1003 H 0.35509 0.17467 0.69528 0.0
H1004 H 0.37468 0.19717 0.74453 0.0
S1005 S 0.3136 0.10402 0.7999 0.0
N1006 N 0.31214 0.10647 0.75896 0.0
N1007 N 0.33327 0.1309 0.81238 0.0
C1008 C 0.33968 0.14316 0.78272 0.0
C1009 C 0.32817 0.12996 0.75376 0.0
C1010 C 0.8628 0.3195 0.75344 0.0
C1011 C 0.8559 0.32948 0.72141 0.0
C1012 C 0.8515 0.33209 0.78206 0.0
C1013 C 0.83266 0.35499 0.77975 0.0
H1014 H 0.87643 0.30124 0.75648 0.0
H1015 H 0.85662 0.32298 0.80606 0.0
S1016 S 0.81012 0.39111 0.70204 0.0
N1017 N 0.83087 0.36519 0.68926 0.0
N1018 N 0.80944 0.38876 0.74302 0.0
C1019 C 0.82669 0.36612 0.74799 0.0
C1020 C 0.83837 0.35341 0.71883 0.0
C1021 C 0.67271 0.86116 0.75216 0.0
C1022 C 0.66415 0.85345 0.71982 0.0
C1023 C 0.66063 0.84857 0.78037 0.0
C1024 C 0.63969 0.82761 0.7773 0.0
H1025 H 0.68947 0.8765 0.7558 0.0
H1026 H 0.66856 0.85454 0.80467 0.0
S1027 S 0.60775 0.80188 0.69842 0.0
N1028 N 0.63182 0.82511 0.68651 0.0
N1029 N 0.60922 0.8013 0.73945 0.0
C1030 C 0.62998 0.82064 0.74518 0.0
C1031 C 0.64216 0.83361 0.71646 0.0
C1032 C 0.83323 0.6469 0.72195 0.0
C1033 C 0.85503 0.66699 0.72468 0.0
C1034 C 0.8212 0.63456 0.75033 0.0
C1035 C 0.83063 0.64168 0.78252 0.0
H1036 H 0.8246 0.64145 0.69781 0.0
H1037 H 0.80379 0.61991 0.74696 0.0
S1038 S 0.88942 0.69078 0.80298 0.0
N1039 N 0.88722 0.69175 0.762 0.0
N1040 N 0.86467 0.66844 0.81527 0.0
C1041 C 0.85345 0.6606 0.78552 0.0
C1042 C 0.86562 0.6733 0.75662 0.0
C1043 C 0.35903 0.82036 0.74996 0.0
C1044 C 0.35274 0.83021 0.78221 0.0
C1045 C 0.34732 0.83319 0.7217 0.0
C1046 C 0.32865 0.85619 0.7246 0.0
H1047 H 0.37261 0.80213 0.74647 0.0
H1048 H 0.35209 0.82426 0.69751 0.0
S1049 S 0.30732 0.89174 0.80312 0.0
N1050 N 0.32823 0.86569 0.81522 0.0
N1051 N 0.30601 0.88968 0.76213 0.0
C1052 C 0.32312 0.86705 0.75659 0.0
C1053 C 0.33524 0.8541 0.78539 0.0
C1054 C 0.16108 0.34777 0.71768 0.0
C1055 C 0.13791 0.32927 0.72041 0.0
C1056 C 0.17345 0.35983 0.74604 0.0
C1057 C 0.16299 0.35404 0.77817 0.0
H1058 H 0.17054 0.352 0.69364 0.0
H1059 H 0.1919 0.37316 0.74274 0.0
S1060 S 0.10048 0.30971 0.79832 0.0
N1061 N 0.10337 0.30767 0.75746 0.0
N1062 N 0.12652 0.33051 0.81069 0.0
C1063 C 0.13883 0.33687 0.78106 0.0
C1064 C 0.12633 0.32443 0.75219 0.0
C1065 C 0.67096 0.13511 0.75331 0.0
C1066 C 0.66174 0.14262 0.72115 0.0
C1067 C 0.65896 0.14735 0.78176 0.0
C1068 C 0.63746 0.16775 0.77912 0.0
H1069 H 0.68821 0.12026 0.75659 0.0
H1070 H 0.66747 0.14165 0.80589 0.0
S1071 S 0.60363 0.19255 0.70095 0.0
N1072 N 0.62813 0.17 0.68853 0.0
N1073 N 0.6057 0.19317 0.74195 0.0
C1074 C 0.62704 0.1744 0.74722 0.0
C1075 C 0.63913 0.16178 0.71825 0.0
C1076 C 0.84898 0.33404 0.22037 0.0
C1077 C 0.82856 0.3555 0.2233 0.0
C1078 C 0.86114 0.32166 0.24864 0.0
C1079 C 0.85353 0.33042 0.28092 0.0
H1080 H 0.85482 0.32589 0.19613 0.0
H1081 H 0.87605 0.30451 0.24509 0.0
S1082 S 0.80339 0.38811 0.302 0.0
N1083 N 0.80293 0.38666 0.26096 0.0
N1084 N 0.82595 0.36347 0.31407 0.0
C1085 C 0.8343 0.35294 0.28417 0.0
C1086 C 0.82176 0.36544 0.25536 0.0
C1087 C 0.63462 0.82163 0.25205 0.0
C1088 C 0.64159 0.83113 0.21985 0.0
C1089 C 0.64679 0.83386 0.28041 0.0
C1090 C 0.66661 0.85592 0.27767 0.0
H1091 H 0.62017 0.80406 0.25544 0.0
H1092 H 0.64144 0.82518 0.30455 0.0
S1093 S 0.69005 0.89043 0.19931 0.0
N1094 N 0.66797 0.86541 0.18705 0.0
N1095 N 0.69103 0.88832 0.2403 0.0
C1096 C 0.6728 0.86653 0.24572 0.0
C1097 C 0.66024 0.85418 0.21682 0.0
C1098 C 0.13313 0.67313 0.2496 0.0
C1099 C 0.14161 0.66498 0.28182 0.0
C1100 C 0.14564 0.66129 0.22122 0.0
C1101 C 0.16731 0.64109 0.22399 0.0
H1102 H 0.11718 0.68934 0.24621 0.0
H1103 H 0.13898 0.66883 0.19699 0.0
S1104 S 0.19545 0.61059 0.30249 0.0
N1105 N 0.1716 0.63389 0.31474 0.0
N1106 N 0.1953 0.61182 0.26144 0.0
C1107 C 0.17517 0.63185 0.25601 0.0
C1108 C 0.16224 0.64372 0.28491 0.0
C1109 C 0.34806 0.16349 0.28238 0.0
C1110 C 0.33002 0.13994 0.27998 0.0
C1111 C 0.35929 0.17627 0.25383 0.0
C1112 C 0.3531 0.16585 0.2218 0.0
H1113 H 0.35266 0.17289 0.30637 0.0
H1114 H 0.37235 0.19494 0.25694 0.0
S1115 S 0.30947 0.10268 0.20225 0.0
N1116 N 0.30825 0.10525 0.2432 0.0
N1117 N 0.32955 0.12919 0.18957 0.0
C1118 C 0.33631 0.14139 0.21915 0.0
C1119 C 0.32471 0.12847 0.24823 0.0
loop_
_geom_bond_atom_site_label_1
_geom_bond_atom_site_label_2
_geom_bond_distance
_geom_bond_site_symmetry_2
_ccdc_geom_bond_type
In0 O1 2.294 . S
In0 O2 2.326 . S
In0 O6 2.266 . S
In0 O7 2.326 . S
In0 O8 2.266 . S
In0 O9 2.326 . S
In0 O11 2.294 . S
In0 O12 2.326 . S
O1 In0 2.294 . S
O1 C10 1.240 . S
O2 In0 2.326 . S
O2 C10 1.252 . S
C3 O6 1.252 . S
C3 O7 1.260 . S
C4 O11 1.240 . S
C4 O12 1.252 . S
C5 O8 1.252 . S
C5 O9 1.260 . S
O6 In0 2.266 . S
O6 C3 1.252 . S
O7 In0 2.326 . S
O7 C3 1.260 . S
O8 In0 2.266 . S
O8 C5 1.252 . S
O9 In0 2.326 . S
O9 C5 1.260 . S
C10 O1 1.240 . S
C10 O2 1.252 . S
O11 In0 2.294 . S
O11 C4 1.240 . S
O12 In0 2.326 . S
O12 C4 1.252 . S
In13 O14 2.294 . S
In13 O15 2.326 . S
In13 O19 2.266 . S
In13 O20 2.326 . S
In13 O21 2.266 . S
In13 O22 2.326 . S
In13 O24 2.294 . S
In13 O25 2.326 . S
O14 In13 2.294 . S
O14 C23 1.240 . S
O15 In13 2.326 . S
O15 C23 1.252 . S
C16 O19 1.252 . S
C16 O20 1.260 . S
C17 O24 1.240 . S
C17 O25 1.252 . S
C18 O21 1.252 . S
C18 O22 1.260 . S
O19 In13 2.266 . S
O19 C16 1.252 . S
O20 In13 2.326 . S
O20 C16 1.260 . S
O21 In13 2.266 . S
O21 C18 1.252 . S
O22 In13 2.326 . S
O22 C18 1.260 . S
C23 O14 1.240 . S
C23 O15 1.252 . S
O24 In13 2.294 . S
O24 C17 1.240 . S
O25 In13 2.326 . S
O25 C17 1.252 . S
In26 O27 2.294 . S
In26 O28 2.326 . S
In26 O32 2.266 . S
In26 O33 2.326 . S
In26 O34 2.266 . S
In26 O35 2.326 . S
In26 O37 2.294 . S
In26 O38 2.326 . S
O27 In26 2.294 . S
O27 C36 1.240 . S
O28 In26 2.326 . S
O28 C36 1.252 . S
C29 O32 1.252 . S
C29 O33 1.260 . S
C30 O37 1.240 . S
C30 O38 1.252 . S
C31 O34 1.252 . S
C31 O35 1.260 . S
O32 In26 2.266 . S
O32 C29 1.252 . S
O33 In26 2.326 . S
O33 C29 1.260 . S
O34 In26 2.266 . S
O34 C31 1.252 . S
O35 In26 2.326 . S
O35 C31 1.260 . S
C36 O27 1.240 . S
C36 O28 1.252 . S
O37 In26 2.294 . S
O37 C30 1.240 . S
O38 In26 2.326 . S
O38 C30 1.252 . S
In39 O40 2.294 . S
In39 O41 2.326 . S
In39 O45 2.266 . S
In39 O46 2.326 . S
In39 O47 2.266 . S
In39 O48 2.326 . S
In39 O50 2.294 . S
In39 O51 2.326 . S
O40 In39 2.294 . S
O40 C49 1.240 . S
O41 In39 2.326 . S
O41 C49 1.252 . S
C42 O45 1.252 . S
C42 O46 1.260 . S
C43 O50 1.240 . S
C43 O51 1.252 . S
C44 O47 1.252 . S
C44 O48 1.260 . S
O45 In39 2.266 . S
O45 C42 1.252 . S
O46 In39 2.326 . S
O46 C42 1.260 . S
O47 In39 2.266 . S
O47 C44 1.252 . S
O48 In39 2.326 . S
O48 C44 1.260 . S
C49 O40 1.240 . S
C49 O41 1.252 . S
O50 In39 2.294 . S
O50 C43 1.240 . S
O51 In39 2.326 . S
O51 C43 1.252 . S
In52 O53 2.294 . S
In52 O54 2.326 . S
In52 O58 2.266 . S
In52 O59 2.326 . S
In52 O60 2.266 . S
In52 O61 2.326 . S
In52 O63 2.294 . S
In52 O64 2.326 . S
O53 In52 2.294 . S
O53 C62 1.240 . S
O54 In52 2.326 . S
O54 C62 1.252 . S
C55 O58 1.252 . S
C55 O59 1.260 . S
C56 O63 1.240 . S
C56 O64 1.252 . S
C57 O60 1.252 . S
C57 O61 1.260 . S
O58 In52 2.266 . S
O58 C55 1.252 . S
O59 In52 2.326 . S
O59 C55 1.260 . S
O60 In52 2.266 . S
O60 C57 1.252 . S
O61 In52 2.326 . S
O61 C57 1.260 . S
C62 O53 1.240 . S
C62 O54 1.252 . S
O63 In52 2.294 . S
O63 C56 1.240 . S
O64 In52 2.326 . S
O64 C56 1.252 . S
In65 O66 2.294 . S
In65 O67 2.326 . S
In65 O71 2.266 . S
In65 O72 2.326 . S
In65 O73 2.266 . S
In65 O74 2.326 . S
In65 O76 2.294 . S
In65 O77 2.326 . S
O66 In65 2.294 . S
O66 C75 1.240 . S
O67 In65 2.326 . S
O67 C75 1.252 . S
C68 O71 1.252 . S
C68 O72 1.260 . S
C69 O76 1.240 . S
C69 O77 1.252 . S
C70 O73 1.252 . S
C70 O74 1.260 . S
O71 In65 2.266 . S
O71 C68 1.252 . S
O72 In65 2.326 . S
O72 C68 1.260 . S
O73 In65 2.266 . S
O73 C70 1.252 . S
O74 In65 2.326 . S
O74 C70 1.260 . S
C75 O66 1.240 . S
C75 O67 1.252 . S
O76 In65 2.294 . S
O76 C69 1.240 . S
O77 In65 2.326 . S
O77 C69 1.252 . S
In78 O79 2.294 . S
In78 O80 2.326 . S
In78 O84 2.266 . S
In78 O85 2.326 . S
In78 O86 2.266 . S
In78 O87 2.326 . S
In78 O89 2.294 . S
In78 O90 2.326 . S
O79 In78 2.294 . S
O79 C88 1.240 . S
O80 In78 2.326 . S
O80 C88 1.252 . S
C81 O84 1.252 . S
C81 O85 1.260 . S
C82 O89 1.240 . S
C82 O90 1.252 . S
C83 O86 1.252 . S
C83 O87 1.260 . S
O84 In78 2.266 . S
O84 C81 1.252 . S
O85 In78 2.326 . S
O85 C81 1.260 . S
O86 In78 2.266 . S
O86 C83 1.252 . S
O87 In78 2.326 . S
O87 C83 1.260 . S
C88 O79 1.240 . S
C88 O80 1.252 . S
O89 In78 2.294 . S
O89 C82 1.240 . S
O90 In78 2.326 . S
O90 C82 1.252 . S
In91 O92 2.294 . S
In91 O93 2.326 . S
In91 O97 2.266 . S
In91 O98 2.326 . S
In91 O99 2.266 . S
In91 O100 2.326 . S
In91 O102 2.294 . S
In91 O103 2.326 . S
O92 In91 2.294 . S
O92 C101 1.240 . S
O93 In91 2.326 . S
O93 C101 1.252 . S
C94 O97 1.252 . S
C94 O98 1.260 . S
C95 O102 1.240 . S
C95 O103 1.252 . S
C96 O99 1.252 . S
C96 O100 1.260 . S
O97 In91 2.266 . S
O97 C94 1.252 . S
O98 In91 2.326 . S
O98 C94 1.260 . S
O99 In91 2.266 . S
O99 C96 1.252 . S
O100 In91 2.326 . S
O100 C96 1.260 . S
C101 O92 1.240 . S
C101 O93 1.252 . S
O102 In91 2.294 . S
O102 C95 1.240 . S
O103 In91 2.326 . S
O103 C95 1.252 . S
In104 O105 2.294 . S
In104 O106 2.326 . S
In104 O110 2.266 . S
In104 O111 2.326 . S
In104 O112 2.266 . S
In104 O113 2.326 . S
In104 O115 2.294 . S
In104 O116 2.326 . S
O105 In104 2.294 . S
O105 C114 1.240 . S
O106 In104 2.326 . S
O106 C114 1.252 . S
C107 O110 1.252 . S
C107 O111 1.260 . S
C108 O115 1.240 . S
C108 O116 1.252 . S
C109 O112 1.252 . S
C109 O113 1.260 . S
O110 In104 2.266 . S
O110 C107 1.252 . S
O111 In104 2.326 . S
O111 C107 1.260 . S
O112 In104 2.266 . S
O112 C109 1.252 . S
O113 In104 2.326 . S
O113 C109 1.260 . S
C114 O105 1.240 . S
C114 O106 1.252 . S
O115 In104 2.294 . S
O115 C108 1.240 . S
O116 In104 2.326 . S
O116 C108 1.252 . S
In117 O118 2.294 . S
In117 O119 2.326 . S
In117 O123 2.266 . S
In117 O124 2.326 . S
In117 O125 2.266 . S
In117 O126 2.326 . S
In117 O128 2.294 . S
In117 O129 2.326 . S
O118 In117 2.294 . S
O118 C127 1.240 . S
O119 In117 2.326 . S
O119 C127 1.252 . S
C120 O123 1.252 . S
C120 O124 1.260 . S
C121 O128 1.240 . S
C121 O129 1.252 . S
C122 O125 1.252 . S
C122 O126 1.260 . S
O123 In117 2.266 . S
O123 C120 1.252 . S
O124 In117 2.326 . S
O124 C120 1.260 . S
O125 In117 2.266 . S
O125 C122 1.252 . S
O126 In117 2.326 . S
O126 C122 1.260 . S
C127 O118 1.240 . S
C127 O119 1.252 . S
O128 In117 2.294 . S
O128 C121 1.240 . S
O129 In117 2.326 . S
O129 C121 1.252 . S
In130 O131 2.294 . S
In130 O132 2.326 . S
In130 O136 2.266 . S
In130 O137 2.326 . S
In130 O138 2.266 . S
In130 O139 2.326 . S
In130 O141 2.294 . S
In130 O142 2.326 . S
O131 In130 2.294 . S
O131 C140 1.240 . S
O132 In130 2.326 . S
O132 C140 1.252 . S
C133 O136 1.252 . S
C133 O137 1.260 . S
C134 O141 1.240 . S
C134 O142 1.252 . S
C135 O138 1.252 . S
C135 O139 1.260 . S
O136 In130 2.266 . S
O136 C133 1.252 . S
O137 In130 2.326 . S
O137 C133 1.260 . S
O138 In130 2.266 . S
O138 C135 1.252 . S
O139 In130 2.326 . S
O139 C135 1.260 . S
C140 O131 1.240 . S
C140 O132 1.252 . S
O141 In130 2.294 . S
O141 C134 1.240 . S
O142 In130 2.326 . S
O142 C134 1.252 . S
In143 O144 2.294 . S
In143 O145 2.326 . S
In143 O149 2.266 . S
In143 O150 2.326 . S
In143 O151 2.266 . S
In143 O152 2.326 . S
In143 O154 2.294 . S
In143 O155 2.326 . S
O144 In143 2.294 . S
O144 C153 1.240 . S
O145 In143 2.326 . S
O145 C153 1.252 . S
C146 O149 1.252 . S
C146 O150 1.260 . S
C147 O154 1.240 . S
C147 O155 1.252 . S
C148 O151 1.252 . S
C148 O152 1.260 . S
O149 In143 2.266 . S
O149 C146 1.252 . S
O150 In143 2.326 . S
O150 C146 1.260 . S
O151 In143 2.266 . S
O151 C148 1.252 . S
O152 In143 2.326 . S
O152 C148 1.260 . S
C153 O144 1.240 . S
C153 O145 1.252 . S
O154 In143 2.294 . S
O154 C147 1.240 . S
O155 In143 2.326 . S
O155 C147 1.252 . S
In156 O157 2.294 . S
In156 O158 2.326 . S
In156 O162 2.266 . S
In156 O163 2.326 . S
In156 O164 2.266 . S
In156 O165 2.326 . S
In156 O167 2.294 . S
In156 O168 2.326 . S
O157 In156 2.294 . S
O157 C166 1.240 . S
O158 In156 2.326 . S
O158 C166 1.252 . S
C159 O162 1.252 . S
C159 O163 1.260 . S
C160 O167 1.240 . S
C160 O168 1.252 . S
C161 O164 1.252 . S
C161 O165 1.260 . S
O162 In156 2.266 . S
O162 C159 1.252 . S
O163 In156 2.326 . S
O163 C159 1.260 . S
O164 In156 2.266 . S
O164 C161 1.252 . S
O165 In156 2.326 . S
O165 C161 1.260 . S
C166 O157 1.240 . S
C166 O158 1.252 . S
O167 In156 2.294 . S
O167 C160 1.240 . S
O168 In156 2.326 . S
O168 C160 1.252 . S
In169 O170 2.294 . S
In169 O171 2.326 . S
In169 O175 2.266 . S
In169 O176 2.326 . S
In169 O177 2.266 . S
In169 O178 2.326 . S
In169 O180 2.294 . S
In169 O181 2.326 . S
O170 In169 2.294 . S
O170 C179 1.240 . S
O171 In169 2.326 . S
O171 C179 1.252 . S
C172 O175 1.252 . S
C172 O176 1.260 . S
C173 O180 1.240 . S
C173 O181 1.252 . S
C174 O177 1.252 . S
C174 O178 1.260 . S
O175 In169 2.266 . S
O175 C172 1.252 . S
O176 In169 2.326 . S
O176 C172 1.260 . S
O177 In169 2.266 . S
O177 C174 1.252 . S
O178 In169 2.326 . S
O178 C174 1.260 . S
C179 O170 1.240 . S
C179 O171 1.252 . S
O180 In169 2.294 . S
O180 C173 1.240 . S
O181 In169 2.326 . S
O181 C173 1.252 . S
In182 O183 2.294 . S
In182 O184 2.326 . S
In182 O188 2.266 . S
In182 O189 2.326 . S
In182 O190 2.266 . S
In182 O191 2.326 . S
In182 O193 2.294 . S
In182 O194 2.326 . S
O183 In182 2.294 . S
O183 C192 1.240 . S
O184 In182 2.326 . S
O184 C192 1.252 . S
C185 O188 1.252 . S
C185 O189 1.260 . S
C186 O193 1.240 . S
C186 O194 1.252 . S
C187 O190 1.252 . S
C187 O191 1.260 . S
O188 In182 2.266 . S
O188 C185 1.252 . S
O189 In182 2.326 . S
O189 C185 1.260 . S
O190 In182 2.266 . S
O190 C187 1.252 . S
O191 In182 2.326 . S
O191 C187 1.260 . S
C192 O183 1.240 . S
C192 O184 1.252 . S
O193 In182 2.294 . S
O193 C186 1.240 . S
O194 In182 2.326 . S
O194 C186 1.252 . S
In195 O196 2.294 . S
In195 O197 2.326 . S
In195 O201 2.266 . S
In195 O202 2.326 . S
In195 O203 2.266 . S
In195 O204 2.326 . S
In195 O206 2.294 . S
In195 O207 2.326 . S
O196 In195 2.294 . S
O196 C205 1.240 . S
O197 In195 2.326 . S
O197 C205 1.252 . S
C198 O201 1.252 . S
C198 O202 1.260 . S
C199 O206 1.240 . S
C199 O207 1.252 . S
C200 O203 1.252 . S
C200 O204 1.260 . S
O201 In195 2.266 . S
O201 C198 1.252 . S
O202 In195 2.326 . S
O202 C198 1.260 . S
O203 In195 2.266 . S
O203 C200 1.252 . S
O204 In195 2.326 . S
O204 C200 1.260 . S
C205 O196 1.240 . S
C205 O197 1.252 . S
O206 In195 2.294 . S
O206 C199 1.240 . S
O207 In195 2.326 . S
O207 C199 1.252 . S
In208 O209 2.294 . S
In208 O210 2.326 . S
In208 O214 2.266 . S
In208 O215 2.326 . S
In208 O216 2.266 . S
In208 O217 2.326 . S
In208 O219 2.294 . S
In208 O220 2.326 . S
O209 In208 2.294 . S
O209 C218 1.240 . S
O210 In208 2.326 . S
O210 C218 1.252 . S
C211 O214 1.252 . S
C211 O215 1.260 . S
C212 O219 1.240 . S
C212 O220 1.252 . S
C213 O216 1.252 . S
C213 O217 1.260 . S
O214 In208 2.266 . S
O214 C211 1.252 . S
O215 In208 2.326 . S
O215 C211 1.260 . S
O216 In208 2.266 . S
O216 C213 1.252 . S
O217 In208 2.326 . S
O217 C213 1.260 . S
C218 O209 1.240 . S
C218 O210 1.252 . S
O219 In208 2.294 . S
O219 C212 1.240 . S
O220 In208 2.326 . S
O220 C212 1.252 . S
In221 O222 2.294 . S
In221 O223 2.326 . S
In221 O227 2.266 . S
In221 O228 2.326 . S
In221 O229 2.266 . S
In221 O230 2.326 . S
In221 O232 2.294 . S
In221 O233 2.326 . S
O222 In221 2.294 . S
O222 C231 1.240 . S
O223 In221 2.326 . S
O223 C231 1.252 . S
C224 O227 1.252 . S
C224 O228 1.260 . S
C225 O232 1.240 . S
C225 O233 1.252 . S
C226 O229 1.252 . S
C226 O230 1.260 . S
O227 In221 2.266 . S
O227 C224 1.252 . S
O228 In221 2.326 . S
O228 C224 1.260 . S
O229 In221 2.266 . S
O229 C226 1.252 . S
O230 In221 2.326 . S
O230 C226 1.260 . S
C231 O222 1.240 . S
C231 O223 1.252 . S
O232 In221 2.294 . S
O232 C225 1.240 . S
O233 In221 2.326 . S
O233 C225 1.252 . S
In234 O235 2.294 . S
In234 O236 2.326 . S
In234 O240 2.266 . S
In234 O241 2.326 . S
In234 O242 2.266 . S
In234 O243 2.326 . S
In234 O245 2.294 . S
In234 O246 2.326 . S
O235 In234 2.294 . S
O235 C244 1.240 . S
O236 In234 2.326 . S
O236 C244 1.252 . S
C237 O240 1.252 . S
C237 O241 1.260 . S
C238 O245 1.240 . S
C238 O246 1.252 . S
C239 O242 1.252 . S
C239 O243 1.260 . S
O240 In234 2.266 . S
O240 C237 1.252 . S
O241 In234 2.326 . S
O241 C237 1.260 . S
O242 In234 2.266 . S
O242 C239 1.252 . S
O243 In234 2.326 . S
O243 C239 1.260 . S
C244 O235 1.240 . S
C244 O236 1.252 . S
O245 In234 2.294 . S
O245 C238 1.240 . S
O246 In234 2.326 . S
O246 C238 1.252 . S
In247 O248 2.294 . S
In247 O249 2.326 . S
In247 O253 2.266 . S
In247 O254 2.326 . S
In247 O255 2.266 . S
In247 O256 2.326 . S
In247 O258 2.294 . S
In247 O259 2.326 . S
O248 In247 2.294 . S
O248 C257 1.240 . S
O249 In247 2.326 . S
O249 C257 1.252 . S
C250 O253 1.252 . S
C250 O254 1.260 . S
C251 O258 1.240 . S
C251 O259 1.252 . S
C252 O255 1.252 . S
C252 O256 1.260 . S
O253 In247 2.266 . S
O253 C250 1.252 . S
O254 In247 2.326 . S
O254 C250 1.260 . S
O255 In247 2.266 . S
O255 C252 1.252 . S
O256 In247 2.326 . S
O256 C252 1.260 . S
C257 O248 1.240 . S
C257 O249 1.252 . S
O258 In247 2.294 . S
O258 C251 1.240 . S
O259 In247 2.326 . S
O259 C251 1.252 . S
In260 O261 2.294 . S
In260 O262 2.326 . S
In260 O266 2.266 . S
In260 O267 2.326 . S
In260 O268 2.266 . S
In260 O269 2.326 . S
In260 O271 2.294 . S
In260 O272 2.326 . S
O261 In260 2.294 . S
O261 C270 1.240 . S
O262 In260 2.326 . S
O262 C270 1.252 . S
C263 O266 1.252 . S
C263 O267 1.260 . S
C264 O271 1.240 . S
C264 O272 1.252 . S
C265 O268 1.252 . S
C265 O269 1.260 . S
O266 In260 2.266 . S
O266 C263 1.252 . S
O267 In260 2.326 . S
O267 C263 1.260 . S
O268 In260 2.266 . S
O268 C265 1.252 . S
O269 In260 2.326 . S
O269 C265 1.260 . S
C270 O261 1.240 . S
C270 O262 1.252 . S
O271 In260 2.294 . S
O271 C264 1.240 . S
O272 In260 2.326 . S
O272 C264 1.252 . S
In273 O274 2.294 . S
In273 O275 2.326 . S
In273 O279 2.266 . S
In273 O280 2.326 . S
In273 O281 2.266 . S
In273 O282 2.326 . S
In273 O284 2.294 . S
In273 O285 2.326 . S
O274 In273 2.294 . S
O274 C283 1.240 . S
O275 In273 2.326 . S
O275 C283 1.252 . S
C276 O279 1.252 . S
C276 O280 1.260 . S
C277 O284 1.240 . S
C277 O285 1.252 . S
C278 O281 1.252 . S
C278 O282 1.260 . S
O279 In273 2.266 . S
O279 C276 1.252 . S
O280 In273 2.326 . S
O280 C276 1.260 . S
O281 In273 2.266 . S
O281 C278 1.252 . S
O282 In273 2.326 . S
O282 C278 1.260 . S
C283 O274 1.240 . S
C283 O275 1.252 . S
O284 In273 2.294 . S
O284 C277 1.240 . S
O285 In273 2.326 . S
O285 C277 1.252 . S
In286 O287 2.294 . S
In286 O288 2.326 . S
In286 O292 2.266 . S
In286 O293 2.326 . S
In286 O294 2.266 . S
In286 O295 2.326 . S
In286 O297 2.294 . S
In286 O298 2.326 . S
O287 In286 2.294 . S
O287 C296 1.240 . S
O288 In286 2.326 . S
O288 C296 1.252 . S
C289 O292 1.252 . S
C289 O293 1.260 . S
C290 O297 1.240 . S
C290 O298 1.252 . S
C291 O294 1.252 . S
C291 O295 1.260 . S
O292 In286 2.266 . S
O292 C289 1.252 . S
O293 In286 2.326 . S
O293 C289 1.260 . S
O294 In286 2.266 . S
O294 C291 1.252 . S
O295 In286 2.326 . S
O295 C291 1.260 . S
C296 O287 1.240 . S
C296 O288 1.252 . S
O297 In286 2.294 . S
O297 C290 1.240 . S
O298 In286 2.326 . S
O298 C290 1.252 . S
In299 O300 2.294 . S
In299 O301 2.326 . S
In299 O305 2.266 . S
In299 O306 2.326 . S
In299 O307 2.266 . S
In299 O308 2.326 . S
In299 O310 2.294 . S
In299 O311 2.326 . S
O300 In299 2.294 . S
O300 C309 1.240 . S
O301 In299 2.326 . S
O301 C309 1.252 . S
C302 O305 1.252 . S
C302 O306 1.260 . S
C303 O310 1.240 . S
C303 O311 1.252 . S
C304 O307 1.252 . S
C304 O308 1.260 . S
O305 In299 2.266 . S
O305 C302 1.252 . S
O306 In299 2.326 . S
O306 C302 1.260 . S
O307 In299 2.266 . S
O307 C304 1.252 . S
O308 In299 2.326 . S
O308 C304 1.260 . S
C309 O300 1.240 . S
C309 O301 1.252 . S
O310 In299 2.294 . S
O310 C303 1.240 . S
O311 In299 2.326 . S
O311 C303 1.252 . S
In312 O313 2.294 . S
In312 O314 2.326 . S
In312 O318 2.266 . S
In312 O319 2.326 . S
In312 O320 2.266 . S
In312 O321 2.326 . S
In312 O323 2.294 . S
In312 O324 2.326 . S
O313 In312 2.294 . S
O313 C322 1.240 . S
O314 In312 2.326 . S
O314 C322 1.252 . S
C315 O318 1.252 . S
C315 O319 1.260 . S
C316 O323 1.240 . S
C316 O324 1.252 . S
C317 O320 1.252 . S
C317 O321 1.260 . S
O318 In312 2.266 . S
O318 C315 1.252 . S
O319 In312 2.326 . S
O319 C315 1.260 . S
O320 In312 2.266 . S
O320 C317 1.252 . S
O321 In312 2.326 . S
O321 C317 1.260 . S
C322 O313 1.240 . S
C322 O314 1.252 . S
O323 In312 2.294 . S
O323 C316 1.240 . S
O324 In312 2.326 . S
O324 C316 1.252 . S
In325 O326 2.294 . S
In325 O327 2.326 . S
In325 O331 2.266 . S
In325 O332 2.326 . S
In325 O333 2.266 . S
In325 O334 2.326 . S
In325 O336 2.294 . S
In325 O337 2.326 . S
O326 In325 2.294 . S
O326 C335 1.240 . S
O327 In325 2.326 . S
O327 C335 1.252 . S
C328 O331 1.252 . S
C328 O332 1.260 . S
C329 O336 1.240 . S
C329 O337 1.252 . S
C330 O333 1.252 . S
C330 O334 1.260 . S
O331 In325 2.266 . S
O331 C328 1.252 . S
O332 In325 2.326 . S
O332 C328 1.260 . S
O333 In325 2.266 . S
O333 C330 1.252 . S
O334 In325 2.326 . S
O334 C330 1.260 . S
C335 O326 1.240 . S
C335 O327 1.252 . S
O336 In325 2.294 . S
O336 C329 1.240 . S
O337 In325 2.326 . S
O337 C329 1.252 . S
In338 O339 2.294 . S
In338 O340 2.326 . S
In338 O344 2.266 . S
In338 O345 2.326 . S
In338 O346 2.266 . S
In338 O347 2.326 . S
In338 O349 2.294 . S
In338 O350 2.326 . S
O339 In338 2.294 . S
O339 C348 1.240 . S
O340 In338 2.326 . S
O340 C348 1.252 . S
C341 O344 1.252 . S
C341 O345 1.260 . S
C342 O349 1.240 . S
C342 O350 1.252 . S
C343 O346 1.252 . S
C343 O347 1.260 . S
O344 In338 2.266 . S
O344 C341 1.252 . S
O345 In338 2.326 . S
O345 C341 1.260 . S
O346 In338 2.266 . S
O346 C343 1.252 . S
O347 In338 2.326 . S
O347 C343 1.260 . S
C348 O339 1.240 . S
C348 O340 1.252 . S
O349 In338 2.294 . S
O349 C342 1.240 . S
O350 In338 2.326 . S
O350 C342 1.252 . S
In351 O352 2.294 . S
In351 O353 2.326 . S
In351 O357 2.266 . S
In351 O358 2.326 . S
In351 O359 2.266 . S
In351 O360 2.326 . S
In351 O362 2.294 . S
In351 O363 2.326 . S
O352 In351 2.294 . S
O352 C361 1.240 . S
O353 In351 2.326 . S
O353 C361 1.252 . S
C354 O357 1.252 . S
C354 O358 1.260 . S
C355 O362 1.240 . S
C355 O363 1.252 . S
C356 O359 1.252 . S
C356 O360 1.260 . S
O357 In351 2.266 . S
O357 C354 1.252 . S
O358 In351 2.326 . S
O358 C354 1.260 . S
O359 In351 2.266 . S
O359 C356 1.252 . S
O360 In351 2.326 . S
O360 C356 1.260 . S
C361 O352 1.240 . S
C361 O353 1.252 . S
O362 In351 2.294 . S
O362 C355 1.240 . S
O363 In351 2.326 . S
O363 C355 1.252 . S
In364 O365 2.294 . S
In364 O366 2.326 . S
In364 O370 2.266 . S
In364 O371 2.326 . S
In364 O372 2.266 . S
In364 O373 2.326 . S
In364 O375 2.294 . S
In364 O376 2.326 . S
O365 In364 2.294 . S
O365 C374 1.240 . S
O366 In364 2.326 . S
O366 C374 1.252 . S
C367 O370 1.252 . S
C367 O371 1.260 . S
C368 O375 1.240 . S
C368 O376 1.252 . S
C369 O372 1.252 . S
C369 O373 1.260 . S
O370 In364 2.266 . S
O370 C367 1.252 . S
O371 In364 2.326 . S
O371 C367 1.260 . S
O372 In364 2.266 . S
O372 C369 1.252 . S
O373 In364 2.326 . S
O373 C369 1.260 . S
C374 O365 1.240 . S
C374 O366 1.252 . S
O375 In364 2.294 . S
O375 C368 1.240 . S
O376 In364 2.326 . S
O376 C368 1.252 . S
In377 O378 2.294 . S
In377 O379 2.326 . S
In377 O383 2.266 . S
In377 O384 2.326 . S
In377 O385 2.266 . S
In377 O386 2.326 . S
In377 O388 2.294 . S
In377 O389 2.326 . S
O378 In377 2.294 . S
O378 C387 1.240 . S
O379 In377 2.326 . S
O379 C387 1.252 . S
C380 O383 1.252 . S
C380 O384 1.260 . S
C381 O388 1.240 . S
C381 O389 1.252 . S
C382 O385 1.252 . S
C382 O386 1.260 . S
O383 In377 2.266 . S
O383 C380 1.252 . S
O384 In377 2.326 . S
O384 C380 1.260 . S
O385 In377 2.266 . S
O385 C382 1.252 . S
O386 In377 2.326 . S
O386 C382 1.260 . S
C387 O378 1.240 . S
C387 O379 1.252 . S
O388 In377 2.294 . S
O388 C381 1.240 . S
O389 In377 2.326 . S
O389 C381 1.252 . S
In390 O391 2.294 . S
In390 O392 2.326 . S
In390 O396 2.266 . S
In390 O397 2.326 . S
In390 O398 2.266 . S
In390 O399 2.326 . S
In390 O401 2.294 . S
In390 O402 2.326 . S
O391 In390 2.294 . S
O391 C400 1.240 . S
O392 In390 2.326 . S
O392 C400 1.252 . S
C393 O396 1.252 . S
C393 O397 1.260 . S
C394 O401 1.240 . S
C394 O402 1.252 . S
C395 O398 1.252 . S
C395 O399 1.260 . S
O396 In390 2.266 . S
O396 C393 1.252 . S
O397 In390 2.326 . S
O397 C393 1.260 . S
O398 In390 2.266 . S
O398 C395 1.252 . S
O399 In390 2.326 . S
O399 C395 1.260 . S
C400 O391 1.240 . S
C400 O392 1.252 . S
O401 In390 2.294 . S
O401 C394 1.240 . S
O402 In390 2.326 . S
O402 C394 1.252 . S
In403 O404 2.294 . S
In403 O405 2.326 . S
In403 O409 2.266 . S
In403 O410 2.326 . S
In403 O411 2.266 . S
In403 O412 2.326 . S
In403 O414 2.294 . S
In403 O415 2.326 . S
O404 In403 2.294 . S
O404 C413 1.240 . S
O405 In403 2.326 . S
O405 C413 1.252 . S
C406 O409 1.252 . S
C406 O410 1.260 . S
C407 O414 1.240 . S
C407 O415 1.252 . S
C408 O411 1.252 . S
C408 O412 1.260 . S
O409 In403 2.266 . S
O409 C406 1.252 . S
O410 In403 2.326 . S
O410 C406 1.260 . S
O411 In403 2.266 . S
O411 C408 1.252 . S
O412 In403 2.326 . S
O412 C408 1.260 . S
C413 O404 1.240 . S
C413 O405 1.252 . S
O414 In403 2.294 . S
O414 C407 1.240 . S
O415 In403 2.326 . S
O415 C407 1.252 . S
C416 C417 1.369 . S
C416 C418 1.419 . S
C416 H420 0.930 . S
C417 C416 1.369 . S
C417 C426 1.429 . S
C418 C416 1.419 . S
C418 C419 1.363 . S
C418 H421 0.929 . S
C419 C418 1.363 . S
C419 C425 1.428 . S
H420 C416 0.930 . S
H421 C418 0.929 . S
S422 N423 1.613 . S
S422 N424 1.610 . S
N423 S422 1.613 . S
N423 C426 1.350 . S
N424 S422 1.610 . S
N424 C425 1.351 . S
C425 C419 1.428 . S
C425 N424 1.351 . S
C425 C426 1.434 . S
C426 C417 1.429 . S
C426 N423 1.350 . S
C426 C425 1.434 . S
C427 C428 1.369 . S
C427 C429 1.419 . S
C427 H431 0.930 . S
C428 C427 1.369 . S
C428 C437 1.429 . S
C429 C427 1.419 . S
C429 C430 1.363 . S
C429 H432 0.929 . S
C430 C429 1.363 . S
C430 C436 1.428 . S
H431 C427 0.930 . S
H432 C429 0.929 . S
S433 N434 1.613 . S
S433 N435 1.610 . S
N434 S433 1.613 . S
N434 C437 1.350 . S
N435 S433 1.610 . S
N435 C436 1.351 . S
C436 C430 1.428 . S
C436 N435 1.351 . S
C436 C437 1.434 . S
C437 C428 1.429 . S
C437 N434 1.350 . S
C437 C436 1.434 . S
C438 C439 1.369 . S
C438 C440 1.419 . S
C438 H442 0.930 . S
C439 C438 1.369 . S
C439 C448 1.429 . S
C440 C438 1.419 . S
C440 C441 1.363 . S
C440 H443 0.929 . S
C441 C440 1.363 . S
C441 C447 1.428 . S
H442 C438 0.930 . S
H443 C440 0.929 . S
S444 N445 1.613 . S
S444 N446 1.610 . S
N445 S444 1.613 . S
N445 C448 1.350 . S
N446 S444 1.610 . S
N446 C447 1.351 . S
C447 C441 1.428 . S
C447 N446 1.351 . S
C447 C448 1.434 . S
C448 C439 1.429 . S
C448 N445 1.350 . S
C448 C447 1.434 . S
C449 C450 1.369 . S
C449 C451 1.419 . S
C449 H453 0.930 . S
C450 C449 1.369 . S
C450 C459 1.429 . S
C451 C449 1.419 . S
C451 C452 1.363 . S
C451 H454 0.929 . S
C452 C451 1.363 . S
C452 C458 1.428 . S
H453 C449 0.930 . S
H454 C451 0.929 . S
S455 N456 1.613 . S
S455 N457 1.610 . S
N456 S455 1.613 . S
N456 C459 1.350 . S
N457 S455 1.610 . S
N457 C458 1.351 . S
C458 C452 1.428 . S
C458 N457 1.351 . S
C458 C459 1.434 . S
C459 C450 1.429 . S
C459 N456 1.350 . S
C459 C458 1.434 . S
C460 C461 1.369 . S
C460 C462 1.419 . S
C460 H464 0.930 . S
C461 C460 1.369 . S
C461 C470 1.429 . S
C462 C460 1.419 . S
C462 C463 1.363 . S
C462 H465 0.929 . S
C463 C462 1.363 . S
C463 C469 1.428 . S
H464 C460 0.930 . S
H465 C462 0.929 . S
S466 N467 1.613 . S
S466 N468 1.610 . S
N467 S466 1.613 . S
N467 C470 1.350 . S
N468 S466 1.610 . S
N468 C469 1.351 . S
C469 C463 1.428 . S
C469 N468 1.351 . S
C469 C470 1.434 . S
C470 C461 1.429 . S
C470 N467 1.350 . S
C470 C469 1.434 . S
C471 C472 1.369 . S
C471 C473 1.419 . S
C471 H475 0.930 . S
C472 C471 1.369 . S
C472 C481 1.429 . S
C473 C471 1.419 . S
C473 C474 1.363 . S
C473 H476 0.929 . S
C474 C473 1.363 . S
C474 C480 1.428 . S
H475 C471 0.930 . S
H476 C473 0.929 . S
S477 N478 1.613 . S
S477 N479 1.610 . S
N478 S477 1.613 . S
N478 C481 1.350 . S
N479 S477 1.610 . S
N479 C480 1.351 . S
C480 C474 1.428 . S
C480 N479 1.351 . S
C480 C481 1.434 . S
C481 C472 1.429 . S
C481 N478 1.350 . S
C481 C480 1.434 . S
C482 C483 1.369 . S
C482 C484 1.419 . S
C482 H486 0.930 . S
C483 C482 1.369 . S
C483 C492 1.429 . S
C484 C482 1.419 . S
C484 C485 1.363 . S
C484 H487 0.929 . S
C485 C484 1.363 . S
C485 C491 1.428 . S
H486 C482 0.930 . S
H487 C484 0.929 . S
S488 N489 1.613 . S
S488 N490 1.610 . S
N489 S488 1.613 . S
N489 C492 1.350 . S
N490 S488 1.610 . S
N490 C491 1.351 . S
C491 C485 1.428 . S
C491 N490 1.351 . S
C491 C492 1.434 . S
C492 C483 1.429 . S
C492 N489 1.350 . S
C492 C491 1.434 . S
C493 C494 1.369 . S
C493 C495 1.419 . S
C493 H497 0.930 . S
C494 C493 1.369 . S
C494 C503 1.429 . S
C495 C493 1.419 . S
C495 C496 1.363 . S
C495 H498 0.929 . S
C496 C495 1.363 . S
C496 C502 1.428 . S
H497 C493 0.930 . S
H498 C495 0.929 . S
S499 N500 1.613 . S
S499 N501 1.610 . S
N500 S499 1.613 . S
N500 C503 1.350 . S
N501 S499 1.610 . S
N501 C502 1.351 . S
C502 C496 1.428 . S
C502 N501 1.351 . S
C502 C503 1.434 . S
C503 C494 1.429 . S
C503 N500 1.350 . S
C503 C502 1.434 . S
C504 C505 1.369 . S
C504 C506 1.419 . S
C504 H508 0.930 . S
C505 C504 1.369 . S
C505 C514 1.429 . S
C506 C504 1.419 . S
C506 C507 1.363 . S
C506 H509 0.929 . S
C507 C506 1.363 . S
C507 C513 1.428 . S
H508 C504 0.930 . S
H509 C506 0.929 . S
S510 N511 1.613 . S
S510 N512 1.610 . S
N511 S510 1.613 . S
N511 C514 1.350 . S
N512 S510 1.610 . S
N512 C513 1.351 . S
C513 C507 1.428 . S
C513 N512 1.351 . S
C513 C514 1.434 . S
C514 C505 1.429 . S
C514 N511 1.350 . S
C514 C513 1.434 . S
C515 C516 1.369 . S
C515 C517 1.419 . S
C515 H519 0.930 . S
C516 C515 1.369 . S
C516 C525 1.429 . S
C517 C515 1.419 . S
C517 C518 1.363 . S
C517 H520 0.929 . S
C518 C517 1.363 . S
C518 C524 1.428 . S
H519 C515 0.930 . S
H520 C517 0.929 . S
S521 N522 1.613 . S
S521 N523 1.610 . S
N522 S521 1.613 . S
N522 C525 1.350 . S
N523 S521 1.610 . S
N523 C524 1.351 . S
C524 C518 1.428 . S
C524 N523 1.351 . S
C524 C525 1.434 . S
C525 C516 1.429 . S
C525 N522 1.350 . S
C525 C524 1.434 . S
C526 C527 1.369 . S
C526 C528 1.419 . S
C526 H530 0.930 . S
C527 C526 1.369 . S
C527 C536 1.429 . S
C528 C526 1.419 . S
C528 C529 1.363 . S
C528 H531 0.929 . S
C529 C528 1.363 . S
C529 C535 1.428 . S
H530 C526 0.930 . S
H531 C528 0.929 . S
S532 N533 1.613 . S
S532 N534 1.610 . S
N533 S532 1.613 . S
N533 C536 1.350 . S
N534 S532 1.610 . S
N534 C535 1.351 . S
C535 C529 1.428 . S
C535 N534 1.351 . S
C535 C536 1.434 . S
C536 C527 1.429 . S
C536 N533 1.350 . S
C536 C535 1.434 . S
C537 C538 1.369 . S
C537 C539 1.419 . S
C537 H541 0.930 . S
C538 C537 1.369 . S
C538 C547 1.429 . S
C539 C537 1.419 . S
C539 C540 1.363 . S
C539 H542 0.929 . S
C540 C539 1.363 . S
C540 C546 1.428 . S
H541 C537 0.930 . S
H542 C539 0.929 . S
S543 N544 1.613 . S
S543 N545 1.610 . S
N544 S543 1.613 . S
N544 C547 1.350 . S
N545 S543 1.610 . S
N545 C546 1.351 . S
C546 C540 1.428 . S
C546 N545 1.351 . S
C546 C547 1.434 . S
C547 C538 1.429 . S
C547 N544 1.350 . S
C547 C546 1.434 . S
C548 C549 1.369 . S
C548 C550 1.419 . S
C548 H552 0.930 . S
C549 C548 1.369 . S
C549 C558 1.429 . S
C550 C548 1.419 . S
C550 C551 1.363 . S
C550 H553 0.929 . S
C551 C550 1.363 . S
C551 C557 1.428 . S
H552 C548 0.930 . S
H553 C550 0.929 . S
S554 N555 1.613 . S
S554 N556 1.610 . S
N555 S554 1.613 . S
N555 C558 1.350 . S
N556 S554 1.610 . S
N556 C557 1.351 . S
C557 C551 1.428 . S
C557 N556 1.351 . S
C557 C558 1.434 . S
C558 C549 1.429 . S
C558 N555 1.350 . S
C558 C557 1.434 . S
C559 C560 1.369 . S
C559 C561 1.419 . S
C559 H563 0.930 . S
C560 C559 1.369 . S
C560 C569 1.429 . S
C561 C559 1.419 . S
C561 C562 1.363 . S
C561 H564 0.929 . S
C562 C561 1.363 . S
C562 C568 1.428 . S
H563 C559 0.930 . S
H564 C561 0.929 . S
S565 N566 1.613 . S
S565 N567 1.610 . S
N566 S565 1.613 . S
N566 C569 1.350 . S
N567 S565 1.610 . S
N567 C568 1.351 . S
C568 C562 1.428 . S
C568 N567 1.351 . S
C568 C569 1.434 . S
C569 C560 1.429 . S
C569 N566 1.350 . S
C569 C568 1.434 . S
C570 C571 1.369 . S
C570 C572 1.419 . S
C570 H574 0.930 . S
C571 C570 1.369 . S
C571 C580 1.429 . S
C572 C570 1.419 . S
C572 C573 1.363 . S
C572 H575 0.929 . S
C573 C572 1.363 . S
C573 C579 1.428 . S
H574 C570 0.930 . S
H575 C572 0.929 . S
S576 N577 1.613 . S
S576 N578 1.610 . S
N577 S576 1.613 . S
N577 C580 1.350 . S
N578 S576 1.610 . S
N578 C579 1.351 . S
C579 C573 1.428 . S
C579 N578 1.351 . S
C579 C580 1.434 . S
C580 C571 1.429 . S
C580 N577 1.350 . S
C580 C579 1.434 . S
C581 C582 1.369 . S
C581 C583 1.419 . S
C581 H585 0.930 . S
C582 C581 1.369 . S
C582 C591 1.429 . S
C583 C581 1.419 . S
C583 C584 1.363 . S
C583 H586 0.929 . S
C584 C583 1.363 . S
C584 C590 1.428 . S
H585 C581 0.930 . S
H586 C583 0.929 . S
S587 N588 1.613 . S
S587 N589 1.610 . S
N588 S587 1.613 . S
N588 C591 1.350 . S
N589 S587 1.610 . S
N589 C590 1.351 . S
C590 C584 1.428 . S
C590 N589 1.351 . S
C590 C591 1.434 . S
C591 C582 1.429 . S
C591 N588 1.350 . S
C591 C590 1.434 . S
C592 C593 1.369 . S
C592 C594 1.419 1_655 S
C592 H596 0.930 . S
C593 C592 1.369 . S
C593 C602 1.429 . S
C594 C592 1.419 1_455 S
C594 C595 1.363 . S
C594 H597 0.929 . S
C595 C594 1.363 . S
C595 C601 1.428 . S
H596 C592 0.930 . S
H597 C594 0.929 . S
S598 N599 1.616 1_455 S
S598 N600 1.607 . S
N599 S598 1.616 1_655 S
N599 C602 1.350 . S
N600 S598 1.607 . S
N600 C601 1.351 . S
C601 C595 1.428 . S
C601 N600 1.351 . S
C601 C602 1.434 1_455 S
C602 C593 1.429 . S
C602 N599 1.350 . S
C602 C601 1.434 1_655 S
C603 C604 1.369 . S
C603 C605 1.419 1_545 S
C603 H607 0.930 . S
C604 C603 1.369 . S
C604 C613 1.429 . S
C605 C603 1.419 1_565 S
C605 C606 1.363 . S
C605 H608 0.929 . S
C606 C605 1.363 . S
C606 C612 1.428 . S
H607 C603 0.930 . S
H608 C605 0.929 . S
S609 N610 1.616 1_565 S
S609 N611 1.607 . S
N610 S609 1.616 1_545 S
N610 C613 1.350 . S
N611 S609 1.607 . S
N611 C612 1.351 . S
C612 C606 1.428 . S
C612 N611 1.351 . S
C612 C613 1.434 1_565 S
C613 C604 1.429 . S
C613 N610 1.350 . S
C613 C612 1.434 1_545 S
C614 C615 1.369 . S
C614 C616 1.419 1_455 S
C614 H618 0.930 . S
C615 C614 1.369 . S
C615 C624 1.429 . S
C616 C614 1.419 1_655 S
C616 C617 1.363 . S
C616 H619 0.929 . S
C617 C616 1.363 . S
C617 C623 1.428 . S
H618 C614 0.930 . S
H619 C616 0.929 . S
S620 N621 1.616 1_655 S
S620 N622 1.607 . S
N621 S620 1.616 1_455 S
N621 C624 1.350 . S
N622 S620 1.607 . S
N622 C623 1.351 . S
C623 C617 1.428 . S
C623 N622 1.351 . S
C623 C624 1.434 1_655 S
C624 C615 1.429 . S
C624 N621 1.350 . S
C624 C623 1.434 1_455 S
C625 C626 1.369 . S
C625 C627 1.419 1_565 S
C625 H629 0.930 . S
C626 C625 1.369 . S
C626 C635 1.429 . S
C627 C625 1.419 1_545 S
C627 C628 1.363 . S
C627 H630 0.929 . S
C628 C627 1.363 . S
C628 C634 1.428 . S
H629 C625 0.930 . S
H630 C627 0.929 . S
S631 N632 1.616 1_545 S
S631 N633 1.607 . S
N632 S631 1.616 1_565 S
N632 C635 1.350 . S
N633 S631 1.607 . S
N633 C634 1.351 . S
C634 C628 1.428 . S
C634 N633 1.351 . S
C634 C635 1.434 1_545 S
C635 C626 1.429 . S
C635 N632 1.350 . S
C635 C634 1.434 1_565 S
C636 C637 1.369 . S
C636 C638 1.419 1_455 S
C636 H640 0.930 . S
C637 C636 1.369 . S
C637 C646 1.429 . S
C638 C636 1.419 1_655 S
C638 C639 1.363 . S
C638 H641 0.929 . S
C639 C638 1.363 . S
C639 C645 1.428 . S
H640 C636 0.930 . S
H641 C638 0.929 . S
S642 N643 1.616 1_655 S
S642 N644 1.607 . S
N643 S642 1.616 1_455 S
N643 C646 1.350 . S
N644 S642 1.607 . S
N644 C645 1.351 . S
C645 C639 1.428 . S
C645 N644 1.351 . S
C645 C646 1.434 1_655 S
C646 C637 1.429 . S
C646 N643 1.350 . S
C646 C645 1.434 1_455 S
C647 C648 1.369 . S
C647 C649 1.419 1_565 S
C647 H651 0.930 . S
C648 C647 1.369 . S
C648 C657 1.429 . S
C649 C647 1.419 1_545 S
C649 C650 1.363 . S
C649 H652 0.929 . S
C650 C649 1.363 . S
C650 C656 1.428 . S
H651 C647 0.930 . S
H652 C649 0.929 . S
S653 N654 1.616 1_545 S
S653 N655 1.607 . S
N654 S653 1.616 1_565 S
N654 C657 1.350 . S
N655 S653 1.607 . S
N655 C656 1.351 . S
C656 C650 1.428 . S
C656 N655 1.351 . S
C656 C657 1.434 1_545 S
C657 C648 1.429 . S
C657 N654 1.350 . S
C657 C656 1.434 1_565 S
C658 C659 1.369 . S
C658 C660 1.419 1_455 S
C658 H662 0.930 . S
C659 C658 1.369 . S
C659 C668 1.429 . S
C660 C658 1.419 1_655 S
C660 C661 1.363 . S
C660 H663 0.929 . S
C661 C660 1.363 . S
C661 C667 1.428 . S
H662 C658 0.930 . S
H663 C660 0.929 . S
S664 N665 1.616 1_655 S
S664 N666 1.607 . S
N665 S664 1.616 1_455 S
N665 C668 1.350 . S
N666 S664 1.607 . S
N666 C667 1.351 . S
C667 C661 1.428 . S
C667 N666 1.351 . S
C667 C668 1.434 1_655 S
C668 C659 1.429 . S
C668 N665 1.350 . S
C668 C667 1.434 1_455 S
C669 C670 1.369 . S
C669 C671 1.419 1_545 S
C669 H673 0.930 . S
C670 C669 1.369 . S
C670 C679 1.429 . S
C671 C669 1.419 1_565 S
C671 C672 1.363 . S
C671 H674 0.929 . S
C672 C671 1.363 . S
C672 C678 1.428 . S
H673 C669 0.930 . S
H674 C671 0.929 . S
S675 N676 1.616 1_565 S
S675 N677 1.607 . S
N676 S675 1.616 1_545 S
N676 C679 1.350 . S
N677 S675 1.607 . S
N677 C678 1.351 . S
C678 C672 1.428 . S
C678 N677 1.351 . S
C678 C679 1.434 1_565 S
C679 C670 1.429 . S
C679 N676 1.350 . S
C679 C678 1.434 1_545 S
C680 C681 1.369 . S
C680 C682 1.419 . S
C680 H684 0.930 . S
C681 C680 1.369 . S
C681 C690 1.429 . S
C682 C680 1.419 . S
C682 C683 1.363 . S
C682 H685 0.929 . S
C683 C682 1.363 . S
C683 C689 1.428 . S
H684 C680 0.930 . S
H685 C682 0.929 . S
S686 N687 1.613 . S
S686 N688 1.610 . S
N687 S686 1.613 . S
N687 C690 1.350 . S
N688 S686 1.610 . S
N688 C689 1.351 . S
C689 C683 1.428 . S
C689 N688 1.351 . S
C689 C690 1.434 . S
C690 C681 1.429 . S
C690 N687 1.350 . S
C690 C689 1.434 . S
C691 C692 1.369 . S
C691 C693 1.419 . S
C691 H695 0.930 . S
C692 C691 1.369 . S
C692 C701 1.429 . S
C693 C691 1.419 . S
C693 C694 1.363 . S
C693 H696 0.929 . S
C694 C693 1.363 . S
C694 C700 1.428 . S
H695 C691 0.930 . S
H696 C693 0.929 . S
S697 N698 1.613 . S
S697 N699 1.610 . S
N698 S697 1.613 . S
N698 C701 1.350 . S
N699 S697 1.610 . S
N699 C700 1.351 . S
C700 C694 1.428 . S
C700 N699 1.351 . S
C700 C701 1.434 . S
C701 C692 1.429 . S
C701 N698 1.350 . S
C701 C700 1.434 . S
C702 C703 1.369 . S
C702 C704 1.419 . S
C702 H706 0.930 . S
C703 C702 1.369 . S
C703 C712 1.429 . S
C704 C702 1.419 . S
C704 C705 1.363 . S
C704 H707 0.929 . S
C705 C704 1.363 . S
C705 C711 1.428 . S
H706 C702 0.930 . S
H707 C704 0.929 . S
S708 N709 1.613 . S
S708 N710 1.610 . S
N709 S708 1.613 . S
N709 C712 1.350 . S
N710 S708 1.610 . S
N710 C711 1.351 . S
C711 C705 1.428 . S
C711 N710 1.351 . S
C711 C712 1.434 . S
C712 C703 1.429 . S
C712 N709 1.350 . S
C712 C711 1.434 . S
C713 C714 1.369 . S
C713 C715 1.419 . S
C713 H717 0.930 . S
C714 C713 1.369 . S
C714 C723 1.429 . S
C715 C713 1.419 . S
C715 C716 1.363 . S
C715 H718 0.929 . S
C716 C715 1.363 . S
C716 C722 1.428 . S
H717 C713 0.930 . S
H718 C715 0.929 . S
S719 N720 1.613 . S
S719 N721 1.610 . S
N720 S719 1.613 . S
N720 C723 1.350 . S
N721 S719 1.610 . S
N721 C722 1.351 . S
C722 C716 1.428 . S
C722 N721 1.351 . S
C722 C723 1.434 . S
C723 C714 1.429 . S
C723 N720 1.350 . S
C723 C722 1.434 . S
C724 C725 1.369 . S
C724 C726 1.419 . S
C724 H728 0.930 . S
C725 C724 1.369 . S
C725 C734 1.429 . S
C726 C724 1.419 . S
C726 C727 1.363 . S
C726 H729 0.929 . S
C727 C726 1.363 . S
C727 C733 1.428 . S
H728 C724 0.930 . S
H729 C726 0.929 . S
S730 N731 1.613 . S
S730 N732 1.610 . S
N731 S730 1.613 . S
N731 C734 1.350 . S
N732 S730 1.610 . S
N732 C733 1.351 . S
C733 C727 1.428 . S
C733 N732 1.351 . S
C733 C734 1.434 . S
C734 C725 1.429 . S
C734 N731 1.350 . S
C734 C733 1.434 . S
C735 C736 1.369 . S
C735 C737 1.419 . S
C735 H739 0.930 . S
C736 C735 1.369 . S
C736 C745 1.429 . S
C737 C735 1.419 . S
C737 C738 1.363 . S
C737 H740 0.929 . S
C738 C737 1.363 . S
C738 C744 1.428 . S
H739 C735 0.930 . S
H740 C737 0.929 . S
S741 N742 1.613 . S
S741 N743 1.610 . S
N742 S741 1.613 . S
N742 C745 1.350 . S
N743 S741 1.610 . S
N743 C744 1.351 . S
C744 C738 1.428 . S
C744 N743 1.351 . S
C744 C745 1.434 . S
C745 C736 1.429 . S
C745 N742 1.350 . S
C745 C744 1.434 . S
C746 C747 1.369 . S
C746 C748 1.419 . S
C746 H750 0.930 . S
C747 C746 1.369 . S
C747 C756 1.429 . S
C748 C746 1.419 . S
C748 C749 1.363 . S
C748 H751 0.929 . S
C749 C748 1.363 . S
C749 C755 1.428 . S
H750 C746 0.930 . S
H751 C748 0.929 . S
S752 N753 1.613 . S
S752 N754 1.610 . S
N753 S752 1.613 . S
N753 C756 1.350 . S
N754 S752 1.610 . S
N754 C755 1.351 . S
C755 C749 1.428 . S
C755 N754 1.351 . S
C755 C756 1.434 . S
C756 C747 1.429 . S
C756 N753 1.350 . S
C756 C755 1.434 . S
C757 C758 1.369 . S
C757 C759 1.419 . S
C757 H761 0.930 . S
C758 C757 1.369 . S
C758 C767 1.429 . S
C759 C757 1.419 . S
C759 C760 1.363 . S
C759 H762 0.929 . S
C760 C759 1.363 . S
C760 C766 1.428 . S
H761 C757 0.930 . S
H762 C759 0.929 . S
S763 N764 1.613 . S
S763 N765 1.610 . S
N764 S763 1.613 . S
N764 C767 1.350 . S
N765 S763 1.610 . S
N765 C766 1.351 . S
C766 C760 1.428 . S
C766 N765 1.351 . S
C766 C767 1.434 . S
C767 C758 1.429 . S
C767 N764 1.350 . S
C767 C766 1.434 . S
C768 C769 1.369 . S
C768 C770 1.419 . S
C768 H772 0.930 . S
C769 C768 1.369 . S
C769 C778 1.429 . S
C770 C768 1.419 . S
C770 C771 1.363 . S
C770 H773 0.929 . S
C771 C770 1.363 . S
C771 C777 1.428 . S
H772 C768 0.930 . S
H773 C770 0.929 . S
S774 N775 1.613 . S
S774 N776 1.610 . S
N775 S774 1.613 . S
N775 C778 1.350 . S
N776 S774 1.610 . S
N776 C777 1.351 . S
C777 C771 1.428 . S
C777 N776 1.351 . S
C777 C778 1.434 . S
C778 C769 1.429 . S
C778 N775 1.350 . S
C778 C777 1.434 . S
C779 C780 1.369 . S
C779 C781 1.419 . S
C779 H783 0.930 . S
C780 C779 1.369 . S
C780 C789 1.429 . S
C781 C779 1.419 . S
C781 C782 1.363 . S
C781 H784 0.929 . S
C782 C781 1.363 . S
C782 C788 1.428 . S
H783 C779 0.930 . S
H784 C781 0.929 . S
S785 N786 1.613 . S
S785 N787 1.610 . S
N786 S785 1.613 . S
N786 C789 1.350 . S
N787 S785 1.610 . S
N787 C788 1.351 . S
C788 C782 1.428 . S
C788 N787 1.351 . S
C788 C789 1.434 . S
C789 C780 1.429 . S
C789 N786 1.350 . S
C789 C788 1.434 . S
C790 C791 1.369 . S
C790 C792 1.419 . S
C790 H794 0.930 . S
C791 C790 1.369 . S
C791 C800 1.429 . S
C792 C790 1.419 . S
C792 C793 1.363 . S
C792 H795 0.929 . S
C793 C792 1.363 . S
C793 C799 1.428 . S
H794 C790 0.930 . S
H795 C792 0.929 . S
S796 N797 1.613 . S
S796 N798 1.610 . S
N797 S796 1.613 . S
N797 C800 1.350 . S
N798 S796 1.610 . S
N798 C799 1.351 . S
C799 C793 1.428 . S
C799 N798 1.351 . S
C799 C800 1.434 . S
C800 C791 1.429 . S
C800 N797 1.350 . S
C800 C799 1.434 . S
C801 C802 1.369 . S
C801 C803 1.419 . S
C801 H805 0.930 . S
C802 C801 1.369 . S
C802 C811 1.429 . S
C803 C801 1.419 . S
C803 C804 1.363 . S
C803 H806 0.929 . S
C804 C803 1.363 . S
C804 C810 1.428 . S
H805 C801 0.930 . S
H806 C803 0.929 . S
S807 N808 1.613 . S
S807 N809 1.610 . S
N808 S807 1.613 . S
N808 C811 1.350 . S
N809 S807 1.610 . S
N809 C810 1.351 . S
C810 C804 1.428 . S
C810 N809 1.351 . S
C810 C811 1.434 . S
C811 C802 1.429 . S
C811 N808 1.350 . S
C811 C810 1.434 . S
C812 C813 1.369 . S
C812 C814 1.419 . S
C812 H816 0.930 . S
C813 C812 1.369 . S
C813 C822 1.429 . S
C814 C812 1.419 . S
C814 C815 1.363 . S
C814 H817 0.929 . S
C815 C814 1.363 . S
C815 C821 1.428 . S
H816 C812 0.930 . S
H817 C814 0.929 . S
S818 N819 1.613 . S
S818 N820 1.610 . S
N819 S818 1.613 . S
N819 C822 1.350 . S
N820 S818 1.610 . S
N820 C821 1.351 . S
C821 C815 1.428 . S
C821 N820 1.351 . S
C821 C822 1.434 . S
C822 C813 1.429 . S
C822 N819 1.350 . S
C822 C821 1.434 . S
C823 C824 1.369 . S
C823 C825 1.419 . S
C823 H827 0.930 . S
C824 C823 1.369 . S
C824 C833 1.429 . S
C825 C823 1.419 . S
C825 C826 1.363 . S
C825 H828 0.929 . S
C826 C825 1.363 . S
C826 C832 1.428 . S
H827 C823 0.930 . S
H828 C825 0.929 . S
S829 N830 1.613 . S
S829 N831 1.610 . S
N830 S829 1.613 . S
N830 C833 1.350 . S
N831 S829 1.610 . S
N831 C832 1.351 . S
C832 C826 1.428 . S
C832 N831 1.351 . S
C832 C833 1.434 . S
C833 C824 1.429 . S
C833 N830 1.350 . S
C833 C832 1.434 . S
C834 C835 1.369 . S
C834 C836 1.419 . S
C834 H838 0.930 . S
C835 C834 1.369 . S
C835 C844 1.429 . S
C836 C834 1.419 . S
C836 C837 1.363 . S
C836 H839 0.929 . S
C837 C836 1.363 . S
C837 C843 1.428 . S
H838 C834 0.930 . S
H839 C836 0.929 . S
S840 N841 1.613 . S
S840 N842 1.610 . S
N841 S840 1.613 . S
N841 C844 1.350 . S
N842 S840 1.610 . S
N842 C843 1.351 . S
C843 C837 1.428 . S
C843 N842 1.351 . S
C843 C844 1.434 . S
C844 C835 1.429 . S
C844 N841 1.350 . S
C844 C843 1.434 . S
C845 C846 1.369 . S
C845 C847 1.419 . S
C845 H849 0.930 . S
C846 C845 1.369 . S
C846 C855 1.429 . S
C847 C845 1.419 . S
C847 C848 1.363 . S
C847 H850 0.929 . S
C848 C847 1.363 . S
C848 C854 1.428 . S
H849 C845 0.930 . S
H850 C847 0.929 . S
S851 N852 1.613 . S
S851 N853 1.610 . S
N852 S851 1.613 . S
N852 C855 1.350 . S
N853 S851 1.610 . S
N853 C854 1.351 . S
C854 C848 1.428 . S
C854 N853 1.351 . S
C854 C855 1.434 . S
C855 C846 1.429 . S
C855 N852 1.350 . S
C855 C854 1.434 . S
C856 C857 1.369 . S
C856 C858 1.419 1_554 S
C856 H860 0.930 . S
C857 C856 1.369 . S
C857 C866 1.429 . S
C858 C856 1.419 1_556 S
C858 C859 1.363 . S
C858 H861 0.929 . S
C859 C858 1.363 . S
C859 C865 1.428 . S
H860 C856 0.930 . S
H861 C858 0.929 . S
S862 N863 1.616 1_556 S
S862 N864 1.608 . S
N863 S862 1.616 1_554 S
N863 C866 1.350 . S
N864 S862 1.608 . S
N864 C865 1.351 . S
C865 C859 1.428 . S
C865 N864 1.351 . S
C865 C866 1.434 1_556 S
C866 C857 1.429 . S
C866 N863 1.350 . S
C866 C865 1.434 1_554 S
C867 C868 1.369 . S
C867 C869 1.419 1_556 S
C867 H871 0.930 . S
C868 C867 1.369 . S
C868 C877 1.429 . S
C869 C867 1.419 1_554 S
C869 C870 1.363 . S
C869 H872 0.929 . S
C870 C869 1.363 . S
C870 C876 1.428 . S
H871 C867 0.930 . S
H872 C869 0.929 . S
S873 N874 1.616 1_554 S
S873 N875 1.608 . S
N874 S873 1.616 1_556 S
N874 C877 1.350 . S
N875 S873 1.608 . S
N875 C876 1.351 . S
C876 C870 1.428 . S
C876 N875 1.351 . S
C876 C877 1.434 1_554 S
C877 C868 1.429 . S
C877 N874 1.350 . S
C877 C876 1.434 1_556 S
C878 C879 1.369 . S
C878 C880 1.419 1_554 S
C878 H882 0.930 . S
C879 C878 1.369 . S
C879 C888 1.429 . S
C880 C878 1.419 1_556 S
C880 C881 1.363 . S
C880 H883 0.929 . S
C881 C880 1.363 . S
C881 C887 1.428 . S
H882 C878 0.930 . S
H883 C880 0.929 . S
S884 N885 1.616 1_556 S
S884 N886 1.608 . S
N885 S884 1.616 1_554 S
N885 C888 1.350 . S
N886 S884 1.608 . S
N886 C887 1.351 . S
C887 C881 1.428 . S
C887 N886 1.351 . S
C887 C888 1.434 1_556 S
C888 C879 1.429 . S
C888 N885 1.350 . S
C888 C887 1.434 1_554 S
C889 C890 1.369 . S
C889 C891 1.419 1_554 S
C889 H893 0.930 . S
C890 C889 1.369 . S
C890 C899 1.429 . S
C891 C889 1.419 1_556 S
C891 C892 1.363 . S
C891 H894 0.929 . S
C892 C891 1.363 . S
C892 C898 1.428 . S
H893 C889 0.930 . S
H894 C891 0.929 . S
S895 N896 1.616 1_556 S
S895 N897 1.608 . S
N896 S895 1.616 1_554 S
N896 C899 1.350 . S
N897 S895 1.608 . S
N897 C898 1.351 . S
C898 C892 1.428 . S
C898 N897 1.351 . S
C898 C899 1.434 1_556 S
C899 C890 1.429 . S
C899 N896 1.350 . S
C899 C898 1.434 1_554 S
C900 C901 1.369 . S
C900 C902 1.419 1_554 S
C900 H904 0.930 . S
C901 C900 1.369 . S
C901 C910 1.429 . S
C902 C900 1.419 1_556 S
C902 C903 1.363 . S
C902 H905 0.929 . S
C903 C902 1.363 . S
C903 C909 1.428 . S
H904 C900 0.930 . S
H905 C902 0.929 . S
S906 N907 1.616 1_556 S
S906 N908 1.608 . S
N907 S906 1.616 1_554 S
N907 C910 1.350 . S
N908 S906 1.608 . S
N908 C909 1.351 . S
C909 C903 1.428 . S
C909 N908 1.351 . S
C909 C910 1.434 1_556 S
C910 C901 1.429 . S
C910 N907 1.350 . S
C910 C909 1.434 1_554 S
C911 C912 1.369 . S
C911 C913 1.419 1_554 S
C911 H915 0.930 . S
C912 C911 1.369 . S
C912 C921 1.429 . S
C913 C911 1.419 1_556 S
C913 C914 1.363 . S
C913 H916 0.929 . S
C914 C913 1.363 . S
C914 C920 1.428 . S
H915 C911 0.930 . S
H916 C913 0.929 . S
S917 N918 1.616 1_556 S
S917 N919 1.608 . S
N918 S917 1.616 1_554 S
N918 C921 1.350 . S
N919 S917 1.608 . S
N919 C920 1.351 . S
C920 C914 1.428 . S
C920 N919 1.351 . S
C920 C921 1.434 1_556 S
C921 C912 1.429 . S
C921 N918 1.350 . S
C921 C920 1.434 1_554 S
C922 C923 1.369 . S
C922 C924 1.419 1_556 S
C922 H926 0.930 . S
C923 C922 1.369 . S
C923 C932 1.429 . S
C924 C922 1.419 1_554 S
C924 C925 1.363 . S
C924 H927 0.929 . S
C925 C924 1.363 . S
C925 C931 1.428 . S
H926 C922 0.930 . S
H927 C924 0.929 . S
S928 N929 1.616 1_554 S
S928 N930 1.608 . S
N929 S928 1.616 1_556 S
N929 C932 1.350 . S
N930 S928 1.608 . S
N930 C931 1.351 . S
C931 C925 1.428 . S
C931 N930 1.351 . S
C931 C932 1.434 1_554 S
C932 C923 1.429 . S
C932 N929 1.350 . S
C932 C931 1.434 1_556 S
C933 C934 1.369 . S
C933 C935 1.419 1_556 S
C933 H937 0.930 . S
C934 C933 1.369 . S
C934 C943 1.429 . S
C935 C933 1.419 1_554 S
C935 C936 1.363 . S
C935 H938 0.929 . S
C936 C935 1.363 . S
C936 C942 1.428 . S
H937 C933 0.930 . S
H938 C935 0.929 . S
S939 N940 1.616 1_554 S
S939 N941 1.608 . S
N940 S939 1.616 1_556 S
N940 C943 1.350 . S
N941 S939 1.608 . S
N941 C942 1.351 . S
C942 C936 1.428 . S
C942 N941 1.351 . S
C942 C943 1.434 1_554 S
C943 C934 1.429 . S
C943 N940 1.350 . S
C943 C942 1.434 1_556 S
C944 C945 1.369 . S
C944 C946 1.419 . S
C944 H948 0.930 . S
C945 C944 1.369 . S
C945 C954 1.429 . S
C946 C944 1.419 . S
C946 C947 1.363 . S
C946 H949 0.929 . S
C947 C946 1.363 . S
C947 C953 1.428 . S
H948 C944 0.930 . S
H949 C946 0.929 . S
S950 N951 1.613 . S
S950 N952 1.610 . S
N951 S950 1.613 . S
N951 C954 1.350 . S
N952 S950 1.610 . S
N952 C953 1.351 . S
C953 C947 1.428 . S
C953 N952 1.351 . S
C953 C954 1.434 . S
C954 C945 1.429 . S
C954 N951 1.350 . S
C954 C953 1.434 . S
C955 C956 1.369 . S
C955 C957 1.419 . S
C955 H959 0.930 . S
C956 C955 1.369 . S
C956 C965 1.429 . S
C957 C955 1.419 . S
C957 C958 1.363 . S
C957 H960 0.929 . S
C958 C957 1.363 . S
C958 C964 1.428 . S
H959 C955 0.930 . S
H960 C957 0.929 . S
S961 N962 1.613 . S
S961 N963 1.610 . S
N962 S961 1.613 . S
N962 C965 1.350 . S
N963 S961 1.610 . S
N963 C964 1.351 . S
C964 C958 1.428 . S
C964 N963 1.351 . S
C964 C965 1.434 . S
C965 C956 1.429 . S
C965 N962 1.350 . S
C965 C964 1.434 . S
C966 C967 1.369 . S
C966 C968 1.419 . S
C966 H970 0.930 . S
C967 C966 1.369 . S
C967 C976 1.429 . S
C968 C966 1.419 . S
C968 C969 1.363 . S
C968 H971 0.929 . S
C969 C968 1.363 . S
C969 C975 1.428 . S
H970 C966 0.930 . S
H971 C968 0.929 . S
S972 N973 1.613 . S
S972 N974 1.610 . S
N973 S972 1.613 . S
N973 C976 1.350 . S
N974 S972 1.610 . S
N974 C975 1.351 . S
C975 C969 1.428 . S
C975 N974 1.351 . S
C975 C976 1.434 . S
C976 C967 1.429 . S
C976 N973 1.350 . S
C976 C975 1.434 . S
C977 C978 1.369 . S
C977 C979 1.419 . S
C977 H981 0.930 . S
C978 C977 1.369 . S
C978 C987 1.429 . S
C979 C977 1.419 . S
C979 C980 1.363 . S
C979 H982 0.929 . S
C980 C979 1.363 . S
C980 C986 1.428 . S
H981 C977 0.930 . S
H982 C979 0.929 . S
S983 N984 1.613 . S
S983 N985 1.610 . S
N984 S983 1.613 . S
N984 C987 1.350 . S
N985 S983 1.610 . S
N985 C986 1.351 . S
C986 C980 1.428 . S
C986 N985 1.351 . S
C986 C987 1.434 . S
C987 C978 1.429 . S
C987 N984 1.350 . S
C987 C986 1.434 . S
C988 C989 1.369 . S
C988 C990 1.419 . S
C988 H992 0.930 . S
C989 C988 1.369 . S
C989 C998 1.429 . S
C990 C988 1.419 . S
C990 C991 1.363 . S
C990 H993 0.929 . S
C991 C990 1.363 . S
C991 C997 1.428 . S
H992 C988 0.930 . S
H993 C990 0.929 . S
S994 N995 1.613 . S
S994 N996 1.610 . S
N995 S994 1.613 . S
N995 C998 1.350 . S
N996 S994 1.610 . S
N996 C997 1.351 . S
C997 C991 1.428 . S
C997 N996 1.351 . S
C997 C998 1.434 . S
C998 C989 1.429 . S
C998 N995 1.350 . S
C998 C997 1.434 . S
C999 C1000 1.369 . S
C999 C1001 1.419 . S
C999 H1003 0.930 . S
C1000 C999 1.369 . S
C1000 C1009 1.429 . S
C1001 C999 1.419 . S
C1001 C1002 1.363 . S
C1001 H1004 0.929 . S
C1002 C1001 1.363 . S
C1002 C1008 1.428 . S
H1003 C999 0.930 . S
H1004 C1001 0.929 . S
S1005 N1006 1.613 . S
S1005 N1007 1.610 . S
N1006 S1005 1.613 . S
N1006 C1009 1.350 . S
N1007 S1005 1.610 . S
N1007 C1008 1.351 . S
C1008 C1002 1.428 . S
C1008 N1007 1.351 . S
C1008 C1009 1.434 . S
C1009 C1000 1.429 . S
C1009 N1006 1.350 . S
C1009 C1008 1.434 . S
C1010 C1011 1.369 . S
C1010 C1012 1.419 . S
C1010 H1014 0.930 . S
C1011 C1010 1.369 . S
C1011 C1020 1.429 . S
C1012 C1010 1.419 . S
C1012 C1013 1.363 . S
C1012 H1015 0.929 . S
C1013 C1012 1.363 . S
C1013 C1019 1.428 . S
H1014 C1010 0.930 . S
H1015 C1012 0.929 . S
S1016 N1017 1.613 . S
S1016 N1018 1.610 . S
N1017 S1016 1.613 . S
N1017 C1020 1.350 . S
N1018 S1016 1.610 . S
N1018 C1019 1.351 . S
C1019 C1013 1.428 . S
C1019 N1018 1.351 . S
C1019 C1020 1.434 . S
C1020 C1011 1.429 . S
C1020 N1017 1.350 . S
C1020 C1019 1.434 . S
C1021 C1022 1.369 . S
C1021 C1023 1.419 . S
C1021 H1025 0.930 . S
C1022 C1021 1.369 . S
C1022 C1031 1.429 . S
C1023 C1021 1.419 . S
C1023 C1024 1.363 . S
C1023 H1026 0.929 . S
C1024 C1023 1.363 . S
C1024 C1030 1.428 . S
H1025 C1021 0.930 . S
H1026 C1023 0.929 . S
S1027 N1028 1.613 . S
S1027 N1029 1.610 . S
N1028 S1027 1.613 . S
N1028 C1031 1.350 . S
N1029 S1027 1.610 . S
N1029 C1030 1.351 . S
C1030 C1024 1.428 . S
C1030 N1029 1.351 . S
C1030 C1031 1.434 . S
C1031 C1022 1.429 . S
C1031 N1028 1.350 . S
C1031 C1030 1.434 . S
C1032 C1033 1.369 . S
C1032 C1034 1.419 . S
C1032 H1036 0.930 . S
C1033 C1032 1.369 . S
C1033 C1042 1.429 . S
C1034 C1032 1.419 . S
C1034 C1035 1.363 . S
C1034 H1037 0.929 . S
C1035 C1034 1.363 . S
C1035 C1041 1.428 . S
H1036 C1032 0.930 . S
H1037 C1034 0.929 . S
S1038 N1039 1.613 . S
S1038 N1040 1.610 . S
N1039 S1038 1.613 . S
N1039 C1042 1.350 . S
N1040 S1038 1.610 . S
N1040 C1041 1.351 . S
C1041 C1035 1.428 . S
C1041 N1040 1.351 . S
C1041 C1042 1.434 . S
C1042 C1033 1.429 . S
C1042 N1039 1.350 . S
C1042 C1041 1.434 . S
C1043 C1044 1.369 . S
C1043 C1045 1.419 . S
C1043 H1047 0.930 . S
C1044 C1043 1.369 . S
C1044 C1053 1.429 . S
C1045 C1043 1.419 . S
C1045 C1046 1.363 . S
C1045 H1048 0.929 . S
C1046 C1045 1.363 . S
C1046 C1052 1.428 . S
H1047 C1043 0.930 . S
H1048 C1045 0.929 . S
S1049 N1050 1.613 . S
S1049 N1051 1.610 . S
N1050 S1049 1.613 . S
N1050 C1053 1.350 . S
N1051 S1049 1.610 . S
N1051 C1052 1.351 . S
C1052 C1046 1.428 . S
C1052 N1051 1.351 . S
C1052 C1053 1.434 . S
C1053 C1044 1.429 . S
C1053 N1050 1.350 . S
C1053 C1052 1.434 . S
C1054 C1055 1.369 . S
C1054 C1056 1.419 . S
C1054 H1058 0.930 . S
C1055 C1054 1.369 . S
C1055 C1064 1.429 . S
C1056 C1054 1.419 . S
C1056 C1057 1.363 . S
C1056 H1059 0.929 . S
C1057 C1056 1.363 . S
C1057 C1063 1.428 . S
H1058 C1054 0.930 . S
H1059 C1056 0.929 . S
S1060 N1061 1.613 . S
S1060 N1062 1.610 . S
N1061 S1060 1.613 . S
N1061 C1064 1.350 . S
N1062 S1060 1.610 . S
N1062 C1063 1.351 . S
C1063 C1057 1.428 . S
C1063 N1062 1.351 . S
C1063 C1064 1.434 . S
C1064 C1055 1.429 . S
C1064 N1061 1.350 . S
C1064 C1063 1.434 . S
C1065 C1066 1.369 . S
C1065 C1067 1.419 . S
C1065 H1069 0.930 . S
C1066 C1065 1.369 . S
C1066 C1075 1.429 . S
C1067 C1065 1.419 . S
C1067 C1068 1.363 . S
C1067 H1070 0.929 . S
C1068 C1067 1.363 . S
C1068 C1074 1.428 . S
H1069 C1065 0.930 . S
H1070 C1067 0.929 . S
S1071 N1072 1.613 . S
S1071 N1073 1.610 . S
N1072 S1071 1.613 . S
N1072 C1075 1.350 . S
N1073 S1071 1.610 . S
N1073 C1074 1.351 . S
C1074 C1068 1.428 . S
C1074 N1073 1.351 . S
C1074 C1075 1.434 . S
C1075 C1066 1.429 . S
C1075 N1072 1.350 . S
C1075 C1074 1.434 . S
C1076 C1077 1.369 . S
C1076 C1078 1.419 . S
C1076 H1080 0.930 . S
C1077 C1076 1.369 . S
C1077 C1086 1.429 . S
C1078 C1076 1.419 . S
C1078 C1079 1.363 . S
C1078 H1081 0.929 . S
C1079 C1078 1.363 . S
C1079 C1085 1.428 . S
H1080 C1076 0.930 . S
H1081 C1078 0.929 . S
S1082 N1083 1.613 . S
S1082 N1084 1.610 . S
N1083 S1082 1.613 . S
N1083 C1086 1.350 . S
N1084 S1082 1.610 . S
N1084 C1085 1.351 . S
C1085 C1079 1.428 . S
C1085 N1084 1.351 . S
C1085 C1086 1.434 . S
C1086 C1077 1.429 . S
C1086 N1083 1.350 . S
C1086 C1085 1.434 . S
C1087 C1088 1.369 . S
C1087 C1089 1.419 . S
C1087 H1091 0.930 . S
C1088 C1087 1.369 . S
C1088 C1097 1.429 . S
C1089 C1087 1.419 . S
C1089 C1090 1.363 . S
C1089 H1092 0.929 . S
C1090 C1089 1.363 . S
C1090 C1096 1.428 . S
H1091 C1087 0.930 . S
H1092 C1089 0.929 . S
S1093 N1094 1.613 . S
S1093 N1095 1.610 . S
N1094 S1093 1.613 . S
N1094 C1097 1.350 . S
N1095 S1093 1.610 . S
N1095 C1096 1.351 . S
C1096 C1090 1.428 . S
C1096 N1095 1.351 . S
C1096 C1097 1.434 . S
C1097 C1088 1.429 . S
C1097 N1094 1.350 . S
C1097 C1096 1.434 . S
C1098 C1099 1.369 . S
C1098 C1100 1.419 . S
C1098 H1102 0.930 . S
C1099 C1098 1.369 . S
C1099 C1108 1.429 . S
C1100 C1098 1.419 . S
C1100 C1101 1.363 . S
C1100 H1103 0.929 . S
C1101 C1100 1.363 . S
C1101 C1107 1.428 . S
H1102 C1098 0.930 . S
H1103 C1100 0.929 . S
S1104 N1105 1.613 . S
S1104 N1106 1.610 . S
N1105 S1104 1.613 . S
N1105 C1108 1.350 . S
N1106 S1104 1.610 . S
N1106 C1107 1.351 . S
C1107 C1101 1.428 . S
C1107 N1106 1.351 . S
C1107 C1108 1.434 . S
C1108 C1099 1.429 . S
C1108 N1105 1.350 . S
C1108 C1107 1.434 . S
C1109 C1110 1.369 . S
C1109 C1111 1.419 . S
C1109 H1113 0.930 . S
C1110 C1109 1.369 . S
C1110 C1119 1.429 . S
C1111 C1109 1.419 . S
C1111 C1112 1.363 . S
C1111 H1114 0.929 . S
C1112 C1111 1.363 . S
C1112 C1118 1.428 . S
H1113 C1109 0.930 . S
H1114 C1111 0.929 . S
S1115 N1116 1.613 . S
S1115 N1117 1.610 . S
N1116 S1115 1.613 . S
N1116 C1119 1.350 . S
N1117 S1115 1.610 . S
N1117 C1118 1.351 . S
C1118 C1112 1.428 . S
C1118 N1117 1.351 . S
C1118 C1119 1.434 . S
C1119 C1110 1.429 . S
C1119 N1116 1.350 . S
C1119 C1118 1.434 . S
C417 C199 1.547 . S
C419 C4 1.547 . S
C428 C23 1.546 . S
C430 C166 1.546 . S
C439 C30 1.546 . S
C441 C173 1.546 . S
C450 C192 1.545 . S
C452 C43 1.545 . S
C461 C62 1.545 . S
C463 C127 1.546 . S
C472 C69 1.547 . S
C474 C140 1.547 . S
C483 C147 1.545 . S
C485 C88 1.545 . S
C494 C114 1.547 . S
C496 C95 1.546 . S
C505 C212 1.547 . S
C507 C407 1.547 . S
C516 C225 1.545 . S
C518 C374 1.546 . S
C527 C238 1.546 . S
C529 C381 1.546 . S
C538 C394 1.545 . S
C540 C251 1.545 . S
C549 C264 1.546 . S
C551 C329 1.546 . S
C560 C283 1.546 . S
C562 C342 1.546 . S
C571 C355 1.546 . S
C573 C290 1.546 . S
C582 C303 1.546 . S
C584 C316 1.546 . S
C593 C159 1.480 . S
C595 C5 1.481 . S
C604 C16 1.480 . S
C606 C174 1.480 . S
C615 C185 1.480 . S
C617 C31 1.480 . S
C626 C44 1.480 . S
C628 C200 1.480 . S
C637 C55 1.481 . S
C639 C107 1.481 . S
C648 C120 1.480 . S
C650 C70 1.480 . S
C659 C133 1.480 . S
C661 C81 1.480 . S
C670 C148 1.481 . S
C672 C96 1.481 . S
C681 C213 1.480 . S
C683 C367 1.480 . S
C692 C382 1.481 . S
C694 C226 1.480 . S
C703 C239 1.480 . S
C705 C395 1.480 . S
C714 C252 1.480 . S
C716 C408 1.480 . S
C725 C317 1.481 . S
C727 C265 1.481 . S
C736 C276 1.481 . S
C738 C330 1.481 . S
C747 C291 1.480 . S
C749 C343 1.480 . S
C758 C304 1.481 . S
C760 C356 1.481 . S
C769 C3 1.468 . S
C771 C135 1.469 . S
C780 C146 1.468 . S
C782 C18 1.468 . S
C791 C29 1.468 . S
C793 C109 1.468 . S
C802 C122 1.471 . S
C804 C42 1.471 . S
C813 C187 1.472 . S
C815 C57 1.471 . S
C824 C198 1.469 . S
C826 C68 1.469 . S
C835 C161 1.469 . S
C837 C83 1.469 . S
C846 C94 1.470 . S
C848 C172 1.470 . S
C857 C341 1.470 . S
C859 C211 1.470 . S
C868 C224 1.468 . S
C870 C354 1.469 . S
C879 C315 1.470 . S
C881 C237 1.470 . S
C890 C328 1.469 . S
C892 C250 1.469 . S
C901 C263 1.472 . S
C903 C393 1.471 . S
C912 C278 1.470 . S
C914 C406 1.470 . S
C923 C369 1.468 . S
C925 C289 1.468 . S
C934 C380 1.471 . S
C936 C302 1.470 . S
C945 C309 1.387 . S
C947 C10 1.389 . S
C956 C270 1.389 . S
C958 C17 1.387 . S
C967 C277 1.386 . S
C969 C36 1.386 . S
C978 C296 1.389 . S
C980 C49 1.386 . S
C989 C231 1.386 . S
C991 C56 1.386 . S
C1000 C75 1.387 . S
C1002 C244 1.389 . S
C1011 C82 1.389 . S
C1013 C257 1.387 . S
C1022 C101 1.388 . S
C1024 C218 1.386 . S
C1033 C108 1.386 . S
C1035 C413 1.388 . S
C1044 C368 1.388 . S
C1046 C121 1.386 . S
C1055 C134 1.389 . S
C1057 C387 1.388 . S
C1066 C153 1.387 . S
C1068 C400 1.386 . S
C1077 C335 1.386 . S
C1079 C160 1.388 . S
C1088 C348 1.387 . S
C1090 C179 1.386 . S
C1099 C186 1.389 . S
C1101 C361 1.387 . S
C1110 C205 1.386 . S
C1112 C322 1.388 . S
