# Generated by pormake.
# Topology rob, (6)-cn, num edge types: 1
# Building blocks:
#     Node 0, Type 0, BuildingBlock: GEDQOX_clean_sbu_0, # of connection points: 6
#     Node 1, Type 0, BuildingBlock: GEDQOX_clean_sbu_0, # of connection points: 6
#     Node 2, Type 0, BuildingBlock: GEDQOX_clean_sbu_0, # of connection points: 6
#     Node 3, Type 0, BuildingBlock: GEDQOX_clean_sbu_0, # of connection points: 6
#     Edge 4, Type (0, 0), BuildingBlock: UVAHIK_clean_linker_0, # of connection points: 2
#     Edge 5, Type (0, 0), BuildingBlock: UVAHIK_clean_linker_0, # of connection points: 2
#     Edge 6, Type (0, 0), BuildingBlock: UVAHIK_clean_linker_0, # of connection points: 2
#     Edge 7, Type (0, 0), BuildingBlock: UVAHIK_clean_linker_0, # of connection points: 2
#     Edge 8, Type (0, 0), BuildingBlock: UVAHIK_clean_linker_0, # of connection points: 2
#     Edge 9, Type (0, 0), BuildingBlock: UVAHIK_clean_linker_0, # of connection points: 2
#     Edge 10, Type (0, 0), BuildingBlock: UVAHIK_clean_linker_0, # of connection points: 2
#     Edge 11, Type (0, 0), BuildingBlock: UVAHIK_clean_linker_0, # of connection points: 2
#     Edge 12, Type (0, 0), BuildingBlock: UVAHIK_clean_linker_0, # of connection points: 2
#     Edge 13, Type (0, 0), BuildingBlock: UVAHIK_clean_linker_0, # of connection points: 2
#     Edge 14, Type (0, 0), BuildingBlock: UVAHIK_clean_linker_0, # of connection points: 2
#     Edge 15, Type (0, 0), BuildingBlock: UVAHIK_clean_linker_0, # of connection points: 2
# Relax obj value: 0.059
# Max RMSD: 0.206
# Mean RMSD: 0.144
data_MOF--net-rob--node1-GEDQOX_clean_sbu_0--edge1-UVAHIK_clean_linker_0
_symmetry_space_group_name_H-M    P1
_symmetry_Int_Tables_number       1
_symmetry_cell_setting            triclinic
loop_
_symmetry_equiv_pos_as_xyz
'x, y, z'
_cell_length_a     23.530567
_cell_length_b     43.831732
_cell_length_c     37.412671
_cell_angle_alpha  110.8844
_cell_angle_beta   108.97335
_cell_angle_gamma 59.721535
loop_
_atom_site_label
_atom_site_type_symbol
_atom_site_fract_x
_atom_site_fract_y
_atom_site_fract_z
_atom_type_partial_charge
Nd0 Nd 0.21559 0.32301 0.0239 0.0
Nd1 Nd 0.22636 0.24611 0.99434 0.0
C2 C 0.20726 0.38858 0.03653 0.0
C3 C 0.23204 0.40686 0.02318 0.0
C4 C 0.28635 0.38655 0.00348 0.0
C5 C 0.3163 0.40379 0.99607 0.0
C6 C 0.29254 0.44181 0.00833 0.0
C7 C 0.23622 0.4622 0.02664 0.0
C8 C 0.2064 0.44484 0.03407 0.0
C9 C 0.29638 0.27847 0.07378 0.0
C10 C 0.30946 0.26523 0.95745 0.0
C11 C 0.25144 0.17711 0.97858 0.0
C12 C 0.21525 0.15867 0.98094 0.0
C13 C 0.16738 0.17654 0.00514 0.0
C14 C 0.13278 0.15924 0.00736 0.0
C15 C 0.14491 0.12367 0.98517 0.0
C16 C 0.1928 0.10593 0.96076 0.0
C17 C 0.22759 0.1233 0.95869 0.0
C18 C 0.11175 0.29748 0.96131 0.0
C19 C 0.13077 0.30393 0.05782 0.0
O20 O 0.16178 0.37851 0.0124 0.0
O21 O 0.25322 0.36421 0.05577 0.0
O22 O 0.25499 0.31222 0.08457 0.0
O23 O 0.29546 0.26898 0.0376 0.0
O24 O 0.28812 0.29781 0.98128 0.0
O25 O 0.29319 0.24022 0.95679 0.0
O26 O 0.27521 0.19398 0.01186 0.0
O27 O 0.2234 0.19599 0.95205 0.0
O28 O 0.11342 0.27139 0.971 0.0
O29 O 0.16966 0.29522 0.96833 0.0
O30 O 0.17282 0.26962 0.04603 0.0
O31 O 0.1289 0.33036 0.04737 0.0
H32 H 0.30706 0.35726 0.99512 0.0
H33 H 0.35888 0.38727 0.98138 0.0
H34 H 0.21693 0.49146 0.03679 0.0
H35 H 0.16491 0.461 0.04967 0.0
H36 H 0.15692 0.20391 0.02244 0.0
H37 H 0.09711 0.17362 0.02689 0.0
H38 H 0.20281 0.07879 0.94282 0.0
H39 H 0.26396 0.10914 0.9396 0.0
Nd40 Nd 0.7115 0.822 0.00583 0.0
Nd41 Nd 0.7234 0.74506 0.97531 0.0
C42 C 0.68474 0.89131 0.02209 0.0
C43 C 0.72004 0.91023 0.01973 0.0
C44 C 0.76783 0.89271 0.99553 0.0
C45 C 0.80174 0.91042 0.99337 0.0
C46 C 0.789 0.94603 0.01562 0.0
C47 C 0.7411 0.96344 0.03998 0.0
C48 C 0.70699 0.94567 0.04199 0.0
C49 C 0.82766 0.7708 0.03797 0.0
C50 C 0.80667 0.76522 0.94181 0.0
C51 C 0.73125 0.67936 0.96112 0.0
C52 C 0.70476 0.66113 0.97328 0.0
C53 C 0.64565 0.68124 0.98869 0.0
C54 C 0.61564 0.66364 0.99534 0.0
C55 C 0.64368 0.62541 0.98623 0.0
C56 C 0.70427 0.60536 0.97196 0.0
C57 C 0.73446 0.62309 0.96557 0.0
C58 C 0.6403 0.79073 0.92673 0.0
C59 C 0.63218 0.80105 0.04338 0.0
O60 O 0.66102 0.87444 0.98878 0.0
O61 O 0.71365 0.87217 0.04841 0.0
O62 O 0.82451 0.79742 0.02851 0.0
O63 O 0.77032 0.77228 0.03101 0.0
O64 O 0.76421 0.79936 0.95388 0.0
O65 O 0.80949 0.73844 0.95207 0.0
O66 O 0.77619 0.68932 0.98621 0.0
O67 O 0.68664 0.70379 0.94163 0.0
O68 O 0.68238 0.75731 0.91522 0.0
O69 O 0.64201 0.79928 0.9629 0.0
O70 O 0.65327 0.76883 0.01893 0.0
O71 O 0.64707 0.82661 0.0441 0.0
H72 H 0.77881 0.8653 0.97821 0.0
H73 H 0.83741 0.89629 0.97386 0.0
H74 H 0.73061 0.99062 0.05795 0.0
H75 H 0.67064 0.95957 0.06107 0.0
H76 H 0.62139 0.71056 0.9942 0.0
H77 H 0.56973 0.68005 0.00697 0.0
H78 H 0.72704 0.57594 0.96419 0.0
H79 H 0.77969 0.60704 0.95322 0.0
Nd80 Nd 0.26634 0.79388 0.48344 0.0
Nd81 Nd 0.16971 0.77431 0.50804 0.0
C82 C 0.31284 0.82195 0.45414 0.0
C83 C 0.33374 0.81916 0.41945 0.0
C84 C 0.31112 0.85103 0.40765 0.0
C85 C 0.33236 0.85 0.37626 0.0
C86 C 0.37702 0.817 0.3559 0.0
C87 C 0.39879 0.78489 0.36737 0.0
C88 C 0.37739 0.78595 0.39887 0.0
C89 C 0.32146 0.72599 0.49736 0.0
C90 C 0.1683 0.75922 0.41538 0.0
C91 C 0.1343 0.73814 0.53302 0.0
C92 C 0.11161 0.73979 0.5664 0.0
C93 C 0.1398 0.70824 0.57997 0.0
C94 C 0.11939 0.70855 0.6113 0.0
C95 C 0.06996 0.74047 0.62979 0.0
C96 C 0.04202 0.7722 0.61624 0.0
C97 C 0.06273 0.77189 0.58489 0.0
C98 C 0.11162 0.84752 0.50882 0.0
C99 C 0.25887 0.81431 0.57442 0.0
O100 O 0.24895 0.83303 0.45195 0.0
O101 O 0.35148 0.79691 0.47401 0.0
O102 O 0.35582 0.74403 0.50474 0.0
O103 O 0.26231 0.74296 0.48101 0.0
O104 O 0.2131 0.77187 0.42426 0.0
O105 O 0.14493 0.75682 0.44159 0.0
O106 O 0.1963 0.733 0.53906 0.0
O107 O 0.09238 0.76086 0.51072 0.0
O108 O 0.08179 0.83312 0.5168 0.0
O109 O 0.16762 0.82285 0.50116 0.0
O110 O 0.23262 0.79139 0.56577 0.0
O111 O 0.26792 0.82372 0.54754 0.0
H112 H 0.27732 0.87694 0.42306 0.0
H113 H 0.31357 0.87514 0.36788 0.0
H114 H 0.43359 0.75904 0.35257 0.0
H115 H 0.3956 0.76095 0.40738 0.0
H116 H 0.17788 0.68323 0.56627 0.0
H117 H 0.14298 0.68379 0.6213 0.0
H118 H 0.00341 0.79719 0.62947 0.0
H119 H 0.04036 0.79665 0.57506 0.0
Nd120 Nd 0.76684 0.29681 0.49283 0.0
Nd121 Nd 0.66848 0.27928 0.51851 0.0
C122 C 0.8054 0.33104 0.46699 0.0
C123 C 0.82947 0.32793 0.43343 0.0
C124 C 0.80963 0.31029 0.3956 0.0
C125 C 0.82922 0.31007 0.36387 0.0
C126 C 0.86904 0.32748 0.36936 0.0
C127 C 0.88987 0.3444 0.40749 0.0
C128 C 0.87021 0.34463 0.43913 0.0
C129 C 0.82324 0.22398 0.49339 0.0
C130 C 0.67657 0.25716 0.42741 0.0
C131 C 0.6189 0.25328 0.54845 0.0
C132 C 0.59509 0.25758 0.58274 0.0
C133 C 0.62874 0.26567 0.62087 0.0
C134 C 0.60886 0.26578 0.65246 0.0
C135 C 0.55506 0.25774 0.64651 0.0
C136 C 0.52041 0.25079 0.60832 0.0
C137 C 0.54031 0.25066 0.57686 0.0
C138 C 0.61537 0.34657 0.50331 0.0
C139 C 0.76779 0.31344 0.58575 0.0
O140 O 0.74299 0.33679 0.46098 0.0
O141 O 0.84638 0.30865 0.48973 0.0
O142 O 0.8537 0.23768 0.48485 0.0
O143 O 0.76737 0.24905 0.50079 0.0
O144 O 0.70319 0.2798 0.43548 0.0
O145 O 0.66741 0.24833 0.45474 0.0
O146 O 0.68308 0.24236 0.55177 0.0
O147 O 0.58132 0.27719 0.52714 0.0
O148 O 0.58022 0.32908 0.49644 0.0
O149 O 0.67418 0.32942 0.51989 0.0
O150 O 0.72236 0.30131 0.57734 0.0
O151 O 0.79153 0.3151 0.5592 0.0
H152 H 0.77803 0.29726 0.39051 0.0
H153 H 0.81175 0.29705 0.33495 0.0
H154 H 0.9215 0.35749 0.41295 0.0
H155 H 0.88611 0.35835 0.46809 0.0
H156 H 0.6713 0.27106 0.62618 0.0
H157 H 0.63697 0.27104 0.68138 0.0
H158 H 0.478 0.2452 0.60265 0.0
H159 H 0.51365 0.24434 0.54771 0.0
C160 C 0.53788 0.62093 0.97949 0.0
C161 C 0.60805 0.60664 0.98962 0.0
C162 C 0.50425 0.60297 0.98143 0.0
C163 C 0.52428 0.53321 0.02492 0.0
H164 H 0.37174 0.53115 0.9446 0.0
C165 C 0.39895 0.44415 0.01183 0.0
C166 C 0.32858 0.45987 0.00403 0.0
C167 C 0.43311 0.46168 0.00954 0.0
C168 C 0.41381 0.53177 0.96747 0.0
H169 H 0.69756 0.56221 0.01028 0.0
H170 H 0.63909 0.53044 0.01277 0.0
H171 H 0.43141 0.56218 0.94197 0.0
H172 H 0.23912 0.50618 0.98699 0.0
H173 H 0.29874 0.53692 0.98325 0.0
H174 H 0.50681 0.50256 0.05025 0.0
C175 C 0.60992 0.55587 0.00377 0.0
C176 C 0.44807 0.54963 0.96602 0.0
C177 C 0.6436 0.5739 0.00192 0.0
C178 C 0.29329 0.49342 0.99344 0.0
C179 C 0.32751 0.51088 0.99096 0.0
C180 C 0.49016 0.51523 0.02629 0.0
C181 C 0.53976 0.57008 0.99339 0.0
C182 C 0.50369 0.55069 0.99478 0.0
C183 C 0.39787 0.49535 -0.00074 0.0
C184 C 0.43441 0.51433 0.99762 0.0
H185 H 0.50872 0.64576 0.96932 0.0
H186 H 0.4502 0.61505 0.9737 0.0
H187 H 0.56614 0.53391 0.04793 0.0
H188 H 0.42781 0.41858 0.02054 0.0
H189 H 0.48729 0.44873 0.01571 0.0
C190 C 0.31185 0.6686 0.48602 0.0
C191 C 0.35098 0.68772 0.50009 0.0
C192 C 0.34042 0.6319 0.48663 0.0
C193 C 0.48954 0.55982 0.53169 0.0
H194 H 0.43402 0.4946 0.44331 0.0
C195 C 0.62628 0.40353 0.51427 0.0
C196 C 0.58662 0.38471 0.50038 0.0
C197 C 0.59821 0.44019 0.51359 0.0
C198 C 0.44968 0.51243 0.46845 0.0
H199 H 0.45071 0.68338 0.52621 0.0
H200 H 0.50085 0.61932 0.52696 0.0
H201 H 0.38351 0.55893 0.44436 0.0
H202 H 0.48657 0.38952 0.47444 0.0
H203 H 0.43738 0.45344 0.47351 0.0
H204 H 0.5557 0.5133 0.55578 0.0
C205 C 0.44781 0.63271 0.51587 0.0
C206 C 0.42057 0.54946 0.46908 0.0
C207 C 0.41916 0.66944 0.51528 0.0
C208 C 0.51851 0.40322 0.48523 0.0
C209 C 0.49039 0.43988 0.48455 0.0
C210 C 0.51866 0.52278 0.53106 0.0
C211 C 0.40899 0.61329 0.50126 0.0
C212 C 0.43998 0.57374 0.50073 0.0
C213 C 0.52969 0.45902 0.49901 0.0
C214 C 0.49915 0.49851 0.49944 0.0
H215 H 0.25915 0.68188 0.47408 0.0
H216 H 0.30859 0.61814 0.47571 0.0
H217 H 0.50516 0.57766 0.55684 0.0
H218 H 0.67895 0.39004 0.52615 0.0
H219 H 0.63037 0.45375 0.52442 0.0
C220 C 0.0398 0.12489 0.9909 0.0
C221 C 0.10785 0.10526 0.98764 0.0
C222 C 0.0053 0.10785 0.99391 0.0
C223 C 0.03247 1.02666 0.01987 0.0
H224 H 0.84909 0.0511 0.9663 0.0
C225 C 0.89371 0.94541 0.01023 0.0
C226 C 0.82561 0.96478 0.01336 0.0
C227 C 0.92786 0.96272 0.00742 0.0
C228 C 0.9 0.04425 0.98186 0.0
H229 H 0.19273 0.05205 0.98512 0.0
H230 H 0.13226 1.0222 0.98946 0.0
H231 H 0.90888 0.08056 0.96031 0.0
H232 H 0.74026 1.01782 0.01588 0.0
H233 H 0.80016 0.04816 0.01189 0.0
H234 H 0.02362 0.99035 0.04142 0.0
C235 C 0.10573 0.05096 0.9902 0.0
C236 C 0.93437 0.06116 0.9784 0.0
C237 C 0.14026 0.06801 0.9872 0.0
C238 C 0.79278 1.00206 0.01389 0.0
C239 C 0.82698 1.01939 0.0111 0.0
C240 C -0.00189 1.00975 0.02334 0.0
C241 C 0.03781 0.07066 0.99371 0.0
C242 C 0.00113 0.05258 0.99733 0.0
C243 C 0.89498 0.99994 0.00773 0.0
C244 C 0.9314 1.01827 0.00435 0.0
H245 H 0.01284 0.15349 0.99087 0.0
H246 H 0.95326 0.12402 0.99695 0.0
H247 H 0.0834 1.01979 0.03542 0.0
H248 H 0.92099 0.9168 0.01021 0.0
H249 H -0.02004 0.94674 0.00446 0.0
C250 C 0.91864 0.1619 0.49164 0.0
C251 C 0.85155 0.18559 0.49522 0.0
C252 C 0.94633 0.12563 0.49348 0.0
C253 C 0.90081 0.05267 0.48284 0.0
H254 H 0.08235 1.00783 0.53773 0.0
C255 C 0.01535 0.90944 0.51108 0.0
C256 C 0.08268 0.88617 0.50777 0.0
C257 C -0.01283 0.94592 0.50982 0.0
C258 C 0.03189 1.01971 0.52185 0.0
H259 H 0.76039 0.18958 0.50258 0.0
H260 H 0.80873 0.12636 0.50641 0.0
H261 H 0.03292 0.0712 0.53512 0.0
H262 H 0.17379 0.88321 0.50175 0.0
H263 H 0.12462 0.94662 0.49865 0.0
H264 H 0.89983 1.00116 0.46946 0.0
C265 C 0.84008 0.13574 0.50203 0.0
C266 C 0.00342 0.05618 0.52038 0.0
C267 C 0.81244 0.17211 0.50026 0.0
C268 C 0.12153 0.90029 0.50368 0.0
C269 C 0.0934 0.93682 0.50241 0.0
C270 C 0.9293 1.01619 0.48428 0.0
C271 C 0.90756 0.11199 0.49881 0.0
C272 C 0.9375 0.07319 0.5008 0.0
C273 C 0.02568 0.96017 0.50533 0.0
C274 C -0.0047 0.99914 0.50378 0.0
H275 H 0.94997 0.17142 0.48747 0.0
H276 H -0.00196 0.10812 0.49021 0.0
H277 H 0.85034 0.06459 0.46698 0.0
H278 H -0.01579 0.89942 0.51455 0.0
H279 H 0.93529 0.96309 0.51286 0.0
C280 C 0.65467 0.25449 0.35659 0.0
C281 C 0.65539 0.24157 0.38617 0.0
C282 C 0.63015 0.24178 0.31789 0.0
C283 C 0.51057 0.20442 0.26146 0.0
H284 H 0.56356 0.20848 0.176 0.0
C285 C 0.32465 0.26623 0.13834 0.0
C286 C 0.3409 0.25564 0.10156 0.0
C287 C 0.37012 0.24876 0.1675 0.0
C288 C 0.54888 0.20617 0.19916 0.0
H289 H 0.63488 0.20339 0.39803 0.0
H290 H 0.59276 0.18088 0.33032 0.0
H291 H 0.63806 0.20605 0.23885 0.0
H292 H 0.41499 0.21691 0.06515 0.0
H293 H 0.49603 0.1863 0.11683 0.0
H294 H 0.42063 0.20556 0.22205 0.0
C295 C 0.60992 0.20141 0.33717 0.0
C296 C 0.59118 0.20535 0.23541 0.0
C297 C 0.63405 0.21434 0.37599 0.0
C298 C 0.4017 0.22561 0.09348 0.0
C299 C 0.44792 0.20824 0.123 0.0
C300 C 0.46862 0.20489 0.22516 0.0
C301 C 0.60625 0.21559 0.30775 0.0
C302 C 0.57071 0.20663 0.26751 0.0
C303 C 0.43323 0.2204 0.16065 0.0
C304 C 0.48553 0.20802 0.19431 0.0
H305 H 0.67091 0.27538 0.36335 0.0
H306 H 0.62704 0.25386 0.29621 0.0
H307 H 0.49309 0.20529 0.2854 0.0
H308 H 0.27766 0.28909 0.14512 0.0
H309 H 0.35732 0.25924 0.19619 0.0
C310 C 0.57375 0.78162 0.07004 0.0
C311 C 0.59532 0.80716 0.07283 0.0
C312 C 0.54658 0.78446 0.09983 0.0
C313 C 0.47164 0.84698 0.18691 0.0
H314 H 0.53375 0.75719 0.21612 0.0
C315 C 0.41687 0.84418 0.32572 0.0
C316 C 0.40121 0.81636 0.32325 0.0
C317 C 0.43901 0.84389 0.29506 0.0
C318 C 0.51514 0.78247 0.20807 0.0
H319 H 0.60236 0.85681 0.10882 0.0
H320 H 0.55475 0.86182 0.161 0.0
H321 H 0.57295 0.75613 0.16278 0.0
H322 H 0.3961 0.76656 0.28617 0.0
H323 H 0.43472 0.76602 0.23272 0.0
H324 H 0.41383 0.8733 0.23234 0.0
C325 C 0.55885 0.83953 0.13553 0.0
C326 C 0.53767 0.78187 0.17743 0.0
C327 C 0.5862 0.83665 0.10559 0.0
C328 C 0.40857 0.78815 0.28933 0.0
C329 C 0.43072 0.78786 0.25865 0.0
C330 C 0.44898 0.84758 0.21759 0.0
C331 C 0.54008 0.81299 0.13336 0.0
C332 C 0.51604 0.81407 0.16631 0.0
C333 C 0.44622 0.81574 0.26109 0.0
C334 C 0.47031 0.81529 0.2285 0.0
H335 H 0.57892 0.75888 0.04512 0.0
H336 H 0.53121 0.76401 0.09671 0.0
H337 H 0.45345 0.87222 0.17889 0.0
H338 H 0.41297 0.86601 0.35165 0.0
H339 H 0.45156 0.86546 0.2983 0.0
C340 C 0.53321 0.84335 0.9082 0.0
C341 C 0.59459 0.81416 0.89967 0.0
C342 C 0.48604 0.86114 0.87919 0.0
C343 C 0.46309 0.86746 0.77793 0.0
H344 H 0.29675 0.86256 0.76297 0.0
C345 C 0.29888 0.85774 0.62671 0.0
C346 C 0.27958 0.82963 0.61584 0.0
C347 C 0.32233 0.87058 0.66571 0.0
C348 C 0.34274 0.86431 0.76678 0.0
H349 H 0.65775 0.78273 0.85596 0.0
H350 H 0.57649 0.81334 0.80576 0.0
H351 H 0.37128 0.86 0.8258 0.0
H352 H 0.26709 0.79403 0.63762 0.0
H353 H 0.30985 0.81538 0.70507 0.0
H354 H 0.43792 0.86822 0.718 0.0
C355 C 0.56394 0.82283 0.83441 0.0
C356 C 0.38502 0.86342 0.80302 0.0
C357 C 0.61036 0.80493 0.86306 0.0
C358 C 0.28171 0.81564 0.64492 0.0
C359 C 0.30557 0.82825 0.6838 0.0
C360 C 0.42118 0.868 0.74162 0.0
C361 C 0.50035 0.85028 0.84163 0.0
C362 C 0.4474 0.86288 0.80827 0.0
C363 C 0.32738 0.8554 0.69464 0.0
C364 C 0.36228 0.86441 0.73506 0.0
H365 H 0.52028 0.85099 0.93642 0.0
H366 H 0.43757 0.88235 0.88563 0.0
H367 H 0.51027 0.86784 0.78137 0.0
H368 H 0.29689 0.86951 0.60506 0.0
H369 H 0.33786 0.89184 0.67309 0.0
C370 C 0.53626 0.2806 0.7159 0.0
C371 C 0.53601 0.25563 0.67966 0.0
C372 C 0.51756 0.27867 0.74669 0.0
C373 C 0.42175 0.2426 0.76709 0.0
H374 H 0.51561 0.26084 0.8729 0.0
C375 C 0.35274 0.23001 0.89454 0.0
C376 C 0.34831 0.258 0.92853 0.0
C377 C 0.3818 0.22639 0.86504 0.0
C378 C 0.48849 0.25593 0.84357 0.0
H379 H 0.51785 0.20825 0.64804 0.0
H380 H 0.48508 0.20503 0.70149 0.0
H381 H 0.55295 0.26185 0.81983 0.0
H382 H 0.37508 0.30255 0.95904 0.0
H383 H 0.42421 0.2968 0.90769 0.0
H384 H 0.35669 0.23721 0.79078 0.0
C385 C 0.49855 0.22654 0.70594 0.0
C386 C 0.50989 0.25656 0.81311 0.0
C387 C 0.51729 0.22845 0.67522 0.0
C388 C 0.37649 0.28111 0.93304 0.0
C389 C 0.40548 0.27752 0.90365 0.0
C390 C 0.40028 0.24203 0.79754 0.0
C391 C 0.49813 0.25171 0.74205 0.0
C392 C 0.47654 0.25014 0.77448 0.0
C393 C 0.40738 0.25057 0.86888 0.0
C394 C 0.43302 0.24895 0.83625 0.0
H395 H 0.54965 0.30214 0.72028 0.0
H396 H 0.51698 0.29881 0.77391 0.0
H397 H 0.39423 0.23803 0.73781 0.0
H398 H 0.33168 0.21165 0.89006 0.0
H399 H 0.38341 0.2049 0.83897 0.0
C400 C 0.93157 0.76475 0.08685 0.0
C401 C 0.88241 0.75243 0.06716 0.0
C402 C -0.02436 0.75273 0.11966 0.0
C403 C -0.01667 0.71537 0.19646 0.0
H404 H 0.14776 0.72606 0.23594 0.0
C405 C 0.18967 0.72748 0.34784 0.0
C406 C 0.14493 0.74623 0.37399 0.0
C407 C 0.16698 0.71704 0.30813 0.0
C408 C 0.10287 0.72202 0.22545 0.0
H409 H 0.84458 0.71535 0.06376 0.0
H410 H 0.92402 0.69271 0.11995 0.0
H411 H 0.09769 0.72378 0.16819 0.0
H412 H 0.04204 0.76828 0.3798 0.0
H413 H 0.00106 0.75261 0.31042 0.0
H414 H -0.00991 0.71198 0.25331 0.0
C415 C 0.9268 0.7129 0.11123 0.0
C416 C 0.07327 0.72142 0.18644 0.0
C417 C 0.88168 0.72555 0.07879 0.0
C418 C 0.07745 0.75367 0.36007 0.0
C419 C 0.05425 0.74428 0.32021 0.0
C420 C 0.01396 0.71492 0.23523 0.0
C421 C -0.02743 0.72747 0.13309 0.0
C422 C 0.01141 0.7199 0.17185 0.0
C423 C 0.09854 0.72625 0.29353 0.0
C424 C 0.07252 0.71995 0.25078 0.0
H425 H 0.93332 0.78548 0.07849 0.0
H426 H 0.00916 0.76514 0.13573 0.0
H427 H 0.93571 0.71418 0.18661 0.0
H428 H 0.2423 0.72094 0.35813 0.0
H429 H 0.20315 0.70227 0.28891 0.0
C430 C 0.8889 0.36005 0.33446 0.0
C431 C 0.8881 0.32849 0.33556 0.0
C432 C 0.90731 0.36099 0.30299 0.0
C433 C 0.92682 0.31404 0.20011 0.0
H434 H 0.04369 0.35882 0.22002 0.0
C435 C 0.07901 0.28422 0.08855 0.0
C436 C 0.08888 0.31217 0.08539 0.0
C437 C 0.04603 0.29005 0.11703 0.0
C438 C 0.0101 0.34677 0.21385 0.0
H439 H 0.90662 0.27306 0.30419 0.0
H440 H 0.93872 0.27467 0.24939 0.0
H441 H 0.00402 0.36098 0.27397 0.0
H442 H 0.06999 0.36864 0.10918 0.0
H443 H 0.01203 0.37895 0.15934 0.0
H444 H 0.93397 0.29921 0.14011 0.0
C445 C 0.92411 0.29894 0.27265 0.0
C446 C -0.01259 0.34793 0.24482 0.0
C447 C 0.90573 0.29799 0.30414 0.0
C448 C 0.06299 0.34659 0.11076 0.0
C449 C 0.03032 0.35237 0.13967 0.0
C450 C 0.94953 0.31285 0.16919 0.0
C451 C 0.9253 0.33043 0.27168 0.0
C452 C 0.94628 0.33109 0.23844 0.0
C453 C 0.0222 0.32398 0.14342 0.0
C454 C -0.00766 0.32868 0.17572 0.0
H455 H 0.87445 0.3843 0.35776 0.0
H456 H 0.90665 0.38588 0.30299 0.0
H457 H 0.89408 0.30146 0.19396 0.0
H458 H 0.09799 0.25741 0.06943 0.0
H459 H 0.04145 0.26743 0.11924 0.0
C460 C 0.74735 0.34574 0.65338 0.0
C461 C 0.79175 0.3265 0.627 0.0
C462 C 0.77067 0.35604 0.69302 0.0
C463 C 0.83532 0.35042 0.77546 0.0
H464 H 0.0049 0.3556 0.81354 0.0
C465 C 0.00712 0.30497 0.91269 0.0
C466 C 0.05751 0.31635 0.9323 0.0
C467 C 0.96305 0.31764 0.8802 0.0
C468 C 0.95664 0.35516 0.80392 0.0
H469 H 0.89468 0.30345 0.62071 0.0
H470 H 0.93668 0.31886 0.68995 0.0
H471 H 0.94965 0.35885 0.74716 0.0
H472 H 0.09781 0.35239 0.93586 0.0
H473 H 0.01842 0.37619 0.88028 0.0
H474 H 0.8408 0.34839 0.83266 0.0
C475 C 0.88332 0.3277 0.6804 0.0
C476 C 0.92547 0.35621 0.76532 0.0
C477 C 0.85953 0.31846 0.64061 0.0
C478 C 0.05969 0.34292 0.92089 0.0
C479 C 0.01459 0.35623 0.8888 0.0
C480 C 0.86548 0.35044 0.81432 0.0
C481 C 0.83938 0.34616 0.70732 0.0
C482 C 0.86599 0.35209 0.75001 0.0
C483 C 0.96739 0.34264 0.86704 0.0
C484 C 0.92822 0.35095 0.8286 0.0
H485 H 0.69453 0.35272 0.64333 0.0
H486 H 0.73477 0.37117 0.71242 0.0
H487 H 0.78971 0.34709 0.76516 0.0
H488 H 0.00427 0.2845 0.92089 0.0
H489 H 0.92841 0.30594 0.86417 0.0
C490 C 0.03372 0.77046 0.69514 0.0
C491 C 0.04786 0.74047 0.66297 0.0
C492 C 0.01379 0.77018 0.72639 0.0
C493 C 0.94256 0.72427 0.75333 0.0
H494 H 0.00274 0.76939 0.85841 0.0
C495 C 0.87242 0.72331 0.88797 0.0
C496 C 0.8476 0.75744 0.91395 0.0
C497 C 0.90394 0.71793 0.85873 0.0
C498 C -0.01463 0.75675 0.82922 0.0
H499 H 0.0509 0.68682 0.63845 0.0
H500 H 0.01803 0.68595 0.69327 0.0
H501 H 0.04245 0.76691 0.80435 0.0
H502 H 0.83922 0.8121 0.93071 0.0
H503 H 0.89428 0.80268 0.88033 0.0
H504 H 0.88524 0.71431 0.77837 0.0
C505 C 0.02161 0.70992 0.6942 0.0
C506 C 0.00787 0.75548 0.79816 0.0
C507 C 0.04132 0.71024 0.6629 0.0
C508 C 0.85745 0.78551 0.9111 0.0
C509 C 0.88947 0.78005 0.8823 0.0
C510 C 0.92034 0.72538 0.78445 0.0
C511 C 0.0076 0.73986 0.72641 0.0
C512 C -0.01394 0.73968 0.75971 0.0
C513 C 0.91207 0.74642 0.8553 0.0
C514 C 0.94073 0.74209 0.82271 0.0
H515 H 0.03883 0.79406 0.69646 0.0
H516 H 0.00253 0.79397 0.75039 0.0
H517 H 0.92397 0.71229 0.72414 0.0
H518 H 0.86534 0.70119 0.88931 0.0
H519 H 0.92132 0.6916 0.83854 0.0
loop_
_geom_bond_atom_site_label_1
_geom_bond_atom_site_label_2
_geom_bond_distance
_geom_bond_site_symmetry_2
_ccdc_geom_bond_type
Nd0 C2 2.836 . S
Nd0 O20 2.500 1_554 S
Nd0 O21 2.492 . S
Nd0 O22 2.487 . S
Nd0 O23 2.682 . S
Nd0 O24 2.410 1_554 S
Nd0 O29 2.414 1_554 S
Nd0 O31 2.424 . S
Nd1 C11 2.836 . S
Nd1 O23 2.414 1_556 S
Nd1 O25 2.424 . S
Nd1 O26 2.500 1_556 S
Nd1 O27 2.492 . S
Nd1 O28 2.487 . S
Nd1 O29 2.682 . S
Nd1 O30 2.410 1_556 S
C2 Nd0 2.836 . S
C2 C3 1.498 1_554 S
C2 O20 1.258 1_554 S
C2 O21 1.239 . S
C3 C2 1.498 1_556 S
C3 C4 1.366 . S
C3 C8 1.407 1_556 S
C4 C3 1.366 . S
C4 C5 1.392 . S
C4 H32 0.930 . S
C5 C4 1.392 . S
C5 C6 1.398 . S
C5 H33 0.929 . S
C6 C5 1.398 . S
C6 C7 1.352 1_556 S
C7 C6 1.352 1_554 S
C7 C8 1.384 . S
C7 H34 0.930 . S
C8 C3 1.407 1_554 S
C8 C7 1.384 . S
C8 H35 0.929 . S
C9 O22 1.241 . S
C9 O23 1.273 . S
C10 O24 1.251 . S
C10 O25 1.268 . S
C11 Nd1 2.836 . S
C11 C12 1.498 1_556 S
C11 O26 1.258 1_556 S
C11 O27 1.239 . S
C12 C11 1.498 1_554 S
C12 C13 1.366 . S
C12 C17 1.407 1_554 S
C13 C12 1.366 . S
C13 C14 1.392 . S
C13 H36 0.930 . S
C14 C13 1.392 . S
C14 C15 1.398 . S
C14 H37 0.929 . S
C15 C14 1.398 . S
C15 C16 1.352 1_554 S
C16 C15 1.352 1_556 S
C16 C17 1.384 . S
C16 H38 0.930 . S
C17 C12 1.407 1_556 S
C17 C16 1.384 . S
C17 H39 0.929 . S
C18 O28 1.241 . S
C18 O29 1.273 . S
C19 O30 1.251 . S
C19 O31 1.268 . S
O20 Nd0 2.500 1_556 S
O20 C2 1.258 1_556 S
O21 Nd0 2.492 . S
O21 C2 1.239 . S
O22 Nd0 2.487 . S
O22 C9 1.241 . S
O23 Nd0 2.682 . S
O23 Nd1 2.414 1_554 S
O23 C9 1.273 . S
O24 Nd0 2.410 1_556 S
O24 C10 1.251 . S
O25 Nd1 2.424 . S
O25 C10 1.268 . S
O26 Nd1 2.500 1_554 S
O26 C11 1.258 1_554 S
O27 Nd1 2.492 . S
O27 C11 1.239 . S
O28 Nd1 2.487 . S
O28 C18 1.241 . S
O29 Nd0 2.414 1_556 S
O29 Nd1 2.682 . S
O29 C18 1.273 . S
O30 Nd1 2.410 1_554 S
O30 C19 1.251 . S
O31 Nd0 2.424 . S
O31 C19 1.268 . S
H32 C4 0.930 . S
H33 C5 0.929 . S
H34 C7 0.930 . S
H35 C8 0.929 . S
H36 C13 0.930 . S
H37 C14 0.929 . S
H38 C16 0.930 . S
H39 C17 0.929 . S
Nd40 C42 2.836 . S
Nd40 O60 2.500 1_554 S
Nd40 O61 2.492 . S
Nd40 O62 2.487 . S
Nd40 O63 2.682 . S
Nd40 O64 2.410 1_554 S
Nd40 O69 2.414 1_554 S
Nd40 O71 2.424 . S
Nd41 C51 2.836 . S
Nd41 O63 2.414 1_556 S
Nd41 O65 2.424 . S
Nd41 O66 2.500 1_556 S
Nd41 O67 2.492 . S
Nd41 O68 2.487 . S
Nd41 O69 2.682 . S
Nd41 O70 2.410 1_556 S
C42 Nd40 2.836 . S
C42 C43 1.498 1_554 S
C42 O60 1.258 1_554 S
C42 O61 1.239 . S
C43 C42 1.498 1_556 S
C43 C44 1.366 . S
C43 C48 1.407 1_556 S
C44 C43 1.366 . S
C44 C45 1.392 . S
C44 H72 0.930 . S
C45 C44 1.392 . S
C45 C46 1.398 . S
C45 H73 0.929 . S
C46 C45 1.398 . S
C46 C47 1.352 1_556 S
C47 C46 1.352 1_554 S
C47 C48 1.384 . S
C47 H74 0.930 . S
C48 C43 1.407 1_554 S
C48 C47 1.384 . S
C48 H75 0.929 . S
C49 O62 1.241 . S
C49 O63 1.273 . S
C50 O64 1.251 . S
C50 O65 1.268 . S
C51 Nd41 2.836 . S
C51 C52 1.498 1_556 S
C51 O66 1.258 1_556 S
C51 O67 1.239 . S
C52 C51 1.498 1_554 S
C52 C53 1.366 . S
C52 C57 1.407 1_554 S
C53 C52 1.366 . S
C53 C54 1.392 . S
C53 H76 0.930 . S
C54 C53 1.392 . S
C54 C55 1.398 . S
C54 H77 0.929 . S
C55 C54 1.398 . S
C55 C56 1.352 1_554 S
C56 C55 1.352 1_556 S
C56 C57 1.384 . S
C56 H78 0.930 . S
C57 C52 1.407 1_556 S
C57 C56 1.384 . S
C57 H79 0.929 . S
C58 O68 1.241 . S
C58 O69 1.273 . S
C59 O70 1.251 . S
C59 O71 1.268 . S
O60 Nd40 2.500 1_556 S
O60 C42 1.258 1_556 S
O61 Nd40 2.492 . S
O61 C42 1.239 . S
O62 Nd40 2.487 . S
O62 C49 1.241 . S
O63 Nd40 2.682 . S
O63 Nd41 2.414 1_554 S
O63 C49 1.273 . S
O64 Nd40 2.410 1_556 S
O64 C50 1.251 . S
O65 Nd41 2.424 . S
O65 C50 1.268 . S
O66 Nd41 2.500 1_554 S
O66 C51 1.258 1_554 S
O67 Nd41 2.492 . S
O67 C51 1.239 . S
O68 Nd41 2.487 . S
O68 C58 1.241 . S
O69 Nd40 2.414 1_556 S
O69 Nd41 2.682 . S
O69 C58 1.273 . S
O70 Nd41 2.410 1_554 S
O70 C59 1.251 . S
O71 Nd40 2.424 . S
O71 C59 1.268 . S
H72 C44 0.930 . S
H73 C45 0.929 . S
H74 C47 0.930 . S
H75 C48 0.929 . S
H76 C53 0.930 . S
H77 C54 0.929 . S
H78 C56 0.930 . S
H79 C57 0.929 . S
Nd80 C82 2.836 . S
Nd80 O100 2.500 . S
Nd80 O101 2.492 . S
Nd80 O102 2.487 . S
Nd80 O103 2.682 . S
Nd80 O104 2.410 . S
Nd80 O109 2.414 . S
Nd80 O111 2.424 . S
Nd81 C91 2.836 . S
Nd81 O103 2.414 . S
Nd81 O105 2.424 . S
Nd81 O106 2.500 . S
Nd81 O107 2.492 . S
Nd81 O108 2.487 . S
Nd81 O109 2.682 . S
Nd81 O110 2.410 . S
C82 Nd80 2.836 . S
C82 C83 1.498 . S
C82 O100 1.258 . S
C82 O101 1.239 . S
C83 C82 1.498 . S
C83 C84 1.366 . S
C83 C88 1.407 . S
C84 C83 1.366 . S
C84 C85 1.392 . S
C84 H112 0.930 . S
C85 C84 1.392 . S
C85 C86 1.398 . S
C85 H113 0.929 . S
C86 C85 1.398 . S
C86 C87 1.352 . S
C87 C86 1.352 . S
C87 C88 1.384 . S
C87 H114 0.930 . S
C88 C83 1.407 . S
C88 C87 1.384 . S
C88 H115 0.929 . S
C89 O102 1.241 . S
C89 O103 1.273 . S
C90 O104 1.251 . S
C90 O105 1.268 . S
C91 Nd81 2.836 . S
C91 C92 1.498 . S
C91 O106 1.258 . S
C91 O107 1.239 . S
C92 C91 1.498 . S
C92 C93 1.366 . S
C92 C97 1.407 . S
C93 C92 1.366 . S
C93 C94 1.392 . S
C93 H116 0.930 . S
C94 C93 1.392 . S
C94 C95 1.398 . S
C94 H117 0.929 . S
C95 C94 1.398 . S
C95 C96 1.352 . S
C96 C95 1.352 . S
C96 C97 1.384 . S
C96 H118 0.930 . S
C97 C92 1.407 . S
C97 C96 1.384 . S
C97 H119 0.929 . S
C98 O108 1.241 . S
C98 O109 1.273 . S
C99 O110 1.251 . S
C99 O111 1.268 . S
O100 Nd80 2.500 . S
O100 C82 1.258 . S
O101 Nd80 2.492 . S
O101 C82 1.239 . S
O102 Nd80 2.487 . S
O102 C89 1.241 . S
O103 Nd80 2.682 . S
O103 Nd81 2.414 . S
O103 C89 1.273 . S
O104 Nd80 2.410 . S
O104 C90 1.251 . S
O105 Nd81 2.424 . S
O105 C90 1.268 . S
O106 Nd81 2.500 . S
O106 C91 1.258 . S
O107 Nd81 2.492 . S
O107 C91 1.239 . S
O108 Nd81 2.487 . S
O108 C98 1.241 . S
O109 Nd80 2.414 . S
O109 Nd81 2.682 . S
O109 C98 1.273 . S
O110 Nd81 2.410 . S
O110 C99 1.251 . S
O111 Nd80 2.424 . S
O111 C99 1.268 . S
H112 C84 0.930 . S
H113 C85 0.929 . S
H114 C87 0.930 . S
H115 C88 0.929 . S
H116 C93 0.930 . S
H117 C94 0.929 . S
H118 C96 0.930 . S
H119 C97 0.929 . S
Nd120 C122 2.836 . S
Nd120 O140 2.500 . S
Nd120 O141 2.492 . S
Nd120 O142 2.487 . S
Nd120 O143 2.682 . S
Nd120 O144 2.410 . S
Nd120 O149 2.414 . S
Nd120 O151 2.424 . S
Nd121 C131 2.836 . S
Nd121 O143 2.414 . S
Nd121 O145 2.424 . S
Nd121 O146 2.500 . S
Nd121 O147 2.492 . S
Nd121 O148 2.487 . S
Nd121 O149 2.682 . S
Nd121 O150 2.410 . S
C122 Nd120 2.836 . S
C122 C123 1.498 . S
C122 O140 1.258 . S
C122 O141 1.239 . S
C123 C122 1.498 . S
C123 C124 1.366 . S
C123 C128 1.407 . S
C124 C123 1.366 . S
C124 C125 1.392 . S
C124 H152 0.930 . S
C125 C124 1.392 . S
C125 C126 1.398 . S
C125 H153 0.929 . S
C126 C125 1.398 . S
C126 C127 1.352 . S
C127 C126 1.352 . S
C127 C128 1.384 . S
C127 H154 0.930 . S
C128 C123 1.407 . S
C128 C127 1.384 . S
C128 H155 0.929 . S
C129 O142 1.241 . S
C129 O143 1.273 . S
C130 O144 1.251 . S
C130 O145 1.268 . S
C131 Nd121 2.836 . S
C131 C132 1.498 . S
C131 O146 1.258 . S
C131 O147 1.239 . S
C132 C131 1.498 . S
C132 C133 1.366 . S
C132 C137 1.407 . S
C133 C132 1.366 . S
C133 C134 1.392 . S
C133 H156 0.930 . S
C134 C133 1.392 . S
C134 C135 1.398 . S
C134 H157 0.929 . S
C135 C134 1.398 . S
C135 C136 1.352 . S
C136 C135 1.352 . S
C136 C137 1.384 . S
C136 H158 0.930 . S
C137 C132 1.407 . S
C137 C136 1.384 . S
C137 H159 0.929 . S
C138 O148 1.241 . S
C138 O149 1.273 . S
C139 O150 1.251 . S
C139 O151 1.268 . S
O140 Nd120 2.500 . S
O140 C122 1.258 . S
O141 Nd120 2.492 . S
O141 C122 1.239 . S
O142 Nd120 2.487 . S
O142 C129 1.241 . S
O143 Nd120 2.682 . S
O143 Nd121 2.414 . S
O143 C129 1.273 . S
O144 Nd120 2.410 . S
O144 C130 1.251 . S
O145 Nd121 2.424 . S
O145 C130 1.268 . S
O146 Nd121 2.500 . S
O146 C131 1.258 . S
O147 Nd121 2.492 . S
O147 C131 1.239 . S
O148 Nd121 2.487 . S
O148 C138 1.241 . S
O149 Nd120 2.414 . S
O149 Nd121 2.682 . S
O149 C138 1.273 . S
O150 Nd121 2.410 . S
O150 C139 1.251 . S
O151 Nd120 2.424 . S
O151 C139 1.268 . S
H152 C124 0.930 . S
H153 C125 0.929 . S
H154 C127 0.930 . S
H155 C128 0.929 . S
H156 C133 0.930 . S
H157 C134 0.929 . S
H158 C136 0.930 . S
H159 C137 0.929 . S
C160 C161 1.349 . S
C160 C162 1.327 . S
C160 H185 0.950 . S
C161 C160 1.349 . S
C161 C177 1.349 . S
C162 C160 1.327 . S
C162 C181 1.429 . S
C162 H186 0.950 . S
C163 C180 1.574 . S
C163 C182 1.368 1_556 S
C163 H187 0.949 . S
H164 C168 0.949 . S
C165 C166 1.349 . S
C165 C167 1.327 . S
C165 H188 0.950 . S
C166 C165 1.349 . S
C166 C178 1.349 . S
C167 C165 1.327 . S
C167 C183 1.429 . S
C167 H189 0.950 . S
C168 H164 0.949 . S
C168 C176 1.574 . S
C168 C184 1.368 1_554 S
H169 C177 0.950 1_556 S
H170 C175 0.950 1_556 S
H171 C176 0.949 . S
H172 C178 0.950 1_554 S
H173 C179 0.950 . S
H174 C180 0.949 . S
C175 H170 0.950 1_554 S
C175 C177 1.327 . S
C175 C181 1.429 . S
C176 C168 1.574 . S
C176 H171 0.949 . S
C176 C182 1.368 . S
C177 C161 1.349 . S
C177 H169 0.950 1_554 S
C177 C175 1.327 . S
C178 C166 1.349 . S
C178 H172 0.950 1_556 S
C178 C179 1.327 1_556 S
C179 H173 0.950 . S
C179 C178 1.327 1_554 S
C179 C183 1.429 1_554 S
C180 C163 1.574 . S
C180 H174 0.949 . S
C180 C184 1.368 . S
C181 C162 1.429 . S
C181 C175 1.429 . S
C181 C182 1.523 . S
C182 C163 1.368 1_554 S
C182 C176 1.368 . S
C182 C181 1.523 . S
C183 C167 1.429 . S
C183 C179 1.429 1_556 S
C183 C184 1.523 . S
C184 C168 1.368 1_556 S
C184 C180 1.368 . S
C184 C183 1.523 . S
H185 C160 0.950 . S
H186 C162 0.950 . S
H187 C163 0.949 . S
H188 C165 0.950 . S
H189 C167 0.950 . S
C190 C191 1.349 . S
C190 C192 1.327 . S
C190 H215 0.950 . S
C191 C190 1.349 . S
C191 C207 1.349 . S
C192 C190 1.327 . S
C192 C211 1.429 . S
C192 H216 0.950 . S
C193 C210 1.574 . S
C193 C212 1.368 . S
C193 H217 0.949 . S
H194 C198 0.949 . S
C195 C196 1.349 . S
C195 C197 1.327 . S
C195 H218 0.950 . S
C196 C195 1.349 . S
C196 C208 1.349 . S
C197 C195 1.327 . S
C197 C213 1.429 . S
C197 H219 0.950 . S
C198 H194 0.949 . S
C198 C206 1.574 . S
C198 C214 1.368 . S
H199 C207 0.950 . S
H200 C205 0.950 . S
H201 C206 0.949 . S
H202 C208 0.950 . S
H203 C209 0.950 . S
H204 C210 0.949 . S
C205 H200 0.950 . S
C205 C207 1.327 . S
C205 C211 1.429 . S
C206 C198 1.574 . S
C206 H201 0.949 . S
C206 C212 1.368 . S
C207 C191 1.349 . S
C207 H199 0.950 . S
C207 C205 1.327 . S
C208 C196 1.349 . S
C208 H202 0.950 . S
C208 C209 1.327 . S
C209 H203 0.950 . S
C209 C208 1.327 . S
C209 C213 1.429 . S
C210 C193 1.574 . S
C210 H204 0.949 . S
C210 C214 1.368 . S
C211 C192 1.429 . S
C211 C205 1.429 . S
C211 C212 1.523 . S
C212 C193 1.368 . S
C212 C206 1.368 . S
C212 C211 1.523 . S
C213 C197 1.429 . S
C213 C209 1.429 . S
C213 C214 1.523 . S
C214 C198 1.368 . S
C214 C210 1.368 . S
C214 C213 1.523 . S
H215 C190 0.950 . S
H216 C192 0.950 . S
H217 C193 0.949 . S
H218 C195 0.950 . S
H219 C197 0.950 . S
C220 C221 1.349 . S
C220 C222 1.327 . S
C220 H245 0.950 . S
C221 C220 1.349 . S
C221 C237 1.349 1_554 S
C222 C220 1.327 . S
C222 C241 1.429 . S
C222 H246 0.950 . S
C223 C240 1.574 . S
C223 C242 1.368 1_566 S
C223 H247 0.949 . S
H224 C228 0.949 . S
C225 C226 1.349 . S
C225 C227 1.327 . S
C225 H248 0.950 . S
C226 C225 1.349 . S
C226 C238 1.349 1_556 S
C227 C225 1.327 . S
C227 C243 1.429 . S
C227 H249 0.950 . S
C228 H224 0.949 . S
C228 C236 1.574 . S
C228 C244 1.368 1_544 S
H229 C237 0.950 . S
H230 C235 0.950 . S
H231 C236 0.949 . S
H232 C238 0.950 . S
H233 C239 0.950 . S
H234 C240 0.949 . S
C235 H230 0.950 . S
C235 C237 1.327 . S
C235 C241 1.429 1_556 S
C236 C228 1.574 . S
C236 H231 0.949 . S
C236 C242 1.368 1_655 S
C237 C221 1.349 1_556 S
C237 H229 0.950 . S
C237 C235 1.327 . S
C238 C226 1.349 1_554 S
C238 H232 0.950 . S
C238 C239 1.327 . S
C239 H233 0.950 . S
C239 C238 1.327 . S
C239 C243 1.429 1_554 S
C240 C223 1.574 . S
C240 H234 0.949 . S
C240 C244 1.368 1_455 S
C241 C222 1.429 . S
C241 C235 1.429 1_554 S
C241 C242 1.523 . S
C242 C223 1.368 1_544 S
C242 C236 1.368 1_455 S
C242 C241 1.523 . S
C243 C227 1.429 . S
C243 C239 1.429 1_556 S
C243 C244 1.523 . S
C244 C228 1.368 1_566 S
C244 C240 1.368 1_655 S
C244 C243 1.523 . S
H245 C220 0.950 . S
H246 C222 0.950 . S
H247 C223 0.949 . S
H248 C225 0.950 . S
H249 C227 0.950 . S
C250 C251 1.349 . S
C250 C252 1.327 . S
C250 H275 0.950 . S
C251 C250 1.349 . S
C251 C267 1.349 . S
C252 C250 1.327 . S
C252 C271 1.429 . S
C252 H276 0.950 . S
C253 C270 1.574 1_545 S
C253 C272 1.368 . S
C253 H277 0.949 . S
H254 C258 0.949 . S
C255 C256 1.349 . S
C255 C257 1.327 . S
C255 H278 0.950 . S
C256 C255 1.349 . S
C256 C268 1.349 . S
C257 C255 1.327 . S
C257 C273 1.429 . S
C257 H279 0.950 . S
C258 H254 0.949 . S
C258 C266 1.574 1_565 S
C258 C274 1.368 . S
H259 C267 0.950 . S
H260 C265 0.950 . S
H261 C266 0.949 . S
H262 C268 0.950 . S
H263 C269 0.950 . S
H264 C270 0.949 . S
C265 H260 0.950 . S
C265 C267 1.327 . S
C265 C271 1.429 . S
C266 C258 1.574 1_545 S
C266 H261 0.949 . S
C266 C272 1.368 1_455 S
C267 C251 1.349 . S
C267 H259 0.950 . S
C267 C265 1.327 . S
C268 C256 1.349 . S
C268 H262 0.950 . S
C268 C269 1.327 . S
C269 H263 0.950 . S
C269 C268 1.327 . S
C269 C273 1.429 . S
C270 C253 1.574 1_565 S
C270 H264 0.949 . S
C270 C274 1.368 1_655 S
C271 C252 1.429 . S
C271 C265 1.429 . S
C271 C272 1.523 . S
C272 C253 1.368 . S
C272 C266 1.368 1_655 S
C272 C271 1.523 . S
C273 C257 1.429 . S
C273 C269 1.429 . S
C273 C274 1.523 . S
C274 C258 1.368 . S
C274 C270 1.368 1_455 S
C274 C273 1.523 . S
H275 C250 0.950 . S
H276 C252 0.950 . S
H277 C253 0.949 . S
H278 C255 0.950 . S
H279 C257 0.950 . S
C280 C281 1.349 . S
C280 C282 1.327 . S
C280 H305 0.950 . S
C281 C280 1.349 . S
C281 C297 1.349 . S
C282 C280 1.327 . S
C282 C301 1.429 . S
C282 H306 0.950 . S
C283 C300 1.574 . S
C283 C302 1.368 . S
C283 H307 0.949 . S
H284 C288 0.949 . S
C285 C286 1.349 . S
C285 C287 1.327 . S
C285 H308 0.950 . S
C286 C285 1.349 . S
C286 C298 1.349 . S
C287 C285 1.327 . S
C287 C303 1.429 . S
C287 H309 0.950 . S
C288 H284 0.949 . S
C288 C296 1.574 . S
C288 C304 1.368 . S
H289 C297 0.950 . S
H290 C295 0.950 . S
H291 C296 0.949 . S
H292 C298 0.950 . S
H293 C299 0.950 . S
H294 C300 0.949 . S
C295 H290 0.950 . S
C295 C297 1.327 . S
C295 C301 1.429 . S
C296 C288 1.574 . S
C296 H291 0.949 . S
C296 C302 1.368 . S
C297 C281 1.349 . S
C297 H289 0.950 . S
C297 C295 1.327 . S
C298 C286 1.349 . S
C298 H292 0.950 . S
C298 C299 1.327 . S
C299 H293 0.950 . S
C299 C298 1.327 . S
C299 C303 1.429 . S
C300 C283 1.574 . S
C300 H294 0.949 . S
C300 C304 1.368 . S
C301 C282 1.429 . S
C301 C295 1.429 . S
C301 C302 1.523 . S
C302 C283 1.368 . S
C302 C296 1.368 . S
C302 C301 1.523 . S
C303 C287 1.429 . S
C303 C299 1.429 . S
C303 C304 1.523 . S
C304 C288 1.368 . S
C304 C300 1.368 . S
C304 C303 1.523 . S
H305 C280 0.950 . S
H306 C282 0.950 . S
H307 C283 0.949 . S
H308 C285 0.950 . S
H309 C287 0.950 . S
C310 C311 1.349 . S
C310 C312 1.327 . S
C310 H335 0.950 . S
C311 C310 1.349 . S
C311 C327 1.349 . S
C312 C310 1.327 . S
C312 C331 1.429 . S
C312 H336 0.950 . S
C313 C330 1.574 . S
C313 C332 1.368 . S
C313 H337 0.949 . S
H314 C318 0.949 . S
C315 C316 1.349 . S
C315 C317 1.327 . S
C315 H338 0.950 . S
C316 C315 1.349 . S
C316 C328 1.349 . S
C317 C315 1.327 . S
C317 C333 1.429 . S
C317 H339 0.950 . S
C318 H314 0.949 . S
C318 C326 1.574 . S
C318 C334 1.368 . S
H319 C327 0.950 . S
H320 C325 0.950 . S
H321 C326 0.949 . S
H322 C328 0.950 . S
H323 C329 0.950 . S
H324 C330 0.949 . S
C325 H320 0.950 . S
C325 C327 1.327 . S
C325 C331 1.429 . S
C326 C318 1.574 . S
C326 H321 0.949 . S
C326 C332 1.368 . S
C327 C311 1.349 . S
C327 H319 0.950 . S
C327 C325 1.327 . S
C328 C316 1.349 . S
C328 H322 0.950 . S
C328 C329 1.327 . S
C329 H323 0.950 . S
C329 C328 1.327 . S
C329 C333 1.429 . S
C330 C313 1.574 . S
C330 H324 0.949 . S
C330 C334 1.368 . S
C331 C312 1.429 . S
C331 C325 1.429 . S
C331 C332 1.523 . S
C332 C313 1.368 . S
C332 C326 1.368 . S
C332 C331 1.523 . S
C333 C317 1.429 . S
C333 C329 1.429 . S
C333 C334 1.523 . S
C334 C318 1.368 . S
C334 C330 1.368 . S
C334 C333 1.523 . S
H335 C310 0.950 . S
H336 C312 0.950 . S
H337 C313 0.949 . S
H338 C315 0.950 . S
H339 C317 0.950 . S
C340 C341 1.349 . S
C340 C342 1.327 . S
C340 H365 0.950 . S
C341 C340 1.349 . S
C341 C357 1.349 . S
C342 C340 1.327 . S
C342 C361 1.429 . S
C342 H366 0.950 . S
C343 C360 1.574 . S
C343 C362 1.368 . S
C343 H367 0.949 . S
H344 C348 0.949 . S
C345 C346 1.349 . S
C345 C347 1.327 . S
C345 H368 0.950 . S
C346 C345 1.349 . S
C346 C358 1.349 . S
C347 C345 1.327 . S
C347 C363 1.429 . S
C347 H369 0.950 . S
C348 H344 0.949 . S
C348 C356 1.574 . S
C348 C364 1.368 . S
H349 C357 0.950 . S
H350 C355 0.950 . S
H351 C356 0.949 . S
H352 C358 0.950 . S
H353 C359 0.950 . S
H354 C360 0.949 . S
C355 H350 0.950 . S
C355 C357 1.327 . S
C355 C361 1.429 . S
C356 C348 1.574 . S
C356 H351 0.949 . S
C356 C362 1.368 . S
C357 C341 1.349 . S
C357 H349 0.950 . S
C357 C355 1.327 . S
C358 C346 1.349 . S
C358 H352 0.950 . S
C358 C359 1.327 . S
C359 H353 0.950 . S
C359 C358 1.327 . S
C359 C363 1.429 . S
C360 C343 1.574 . S
C360 H354 0.949 . S
C360 C364 1.368 . S
C361 C342 1.429 . S
C361 C355 1.429 . S
C361 C362 1.523 . S
C362 C343 1.368 . S
C362 C356 1.368 . S
C362 C361 1.523 . S
C363 C347 1.429 . S
C363 C359 1.429 . S
C363 C364 1.523 . S
C364 C348 1.368 . S
C364 C360 1.368 . S
C364 C363 1.523 . S
H365 C340 0.950 . S
H366 C342 0.950 . S
H367 C343 0.949 . S
H368 C345 0.950 . S
H369 C347 0.950 . S
C370 C371 1.349 . S
C370 C372 1.327 . S
C370 H395 0.950 . S
C371 C370 1.349 . S
C371 C387 1.349 . S
C372 C370 1.327 . S
C372 C391 1.429 . S
C372 H396 0.950 . S
C373 C390 1.574 . S
C373 C392 1.368 . S
C373 H397 0.949 . S
H374 C378 0.949 . S
C375 C376 1.349 . S
C375 C377 1.327 . S
C375 H398 0.950 . S
C376 C375 1.349 . S
C376 C388 1.349 . S
C377 C375 1.327 . S
C377 C393 1.429 . S
C377 H399 0.950 . S
C378 H374 0.949 . S
C378 C386 1.574 . S
C378 C394 1.368 . S
H379 C387 0.950 . S
H380 C385 0.950 . S
H381 C386 0.949 . S
H382 C388 0.950 . S
H383 C389 0.950 . S
H384 C390 0.949 . S
C385 H380 0.950 . S
C385 C387 1.327 . S
C385 C391 1.429 . S
C386 C378 1.574 . S
C386 H381 0.949 . S
C386 C392 1.368 . S
C387 C371 1.349 . S
C387 H379 0.950 . S
C387 C385 1.327 . S
C388 C376 1.349 . S
C388 H382 0.950 . S
C388 C389 1.327 . S
C389 H383 0.950 . S
C389 C388 1.327 . S
C389 C393 1.429 . S
C390 C373 1.574 . S
C390 H384 0.949 . S
C390 C394 1.368 . S
C391 C372 1.429 . S
C391 C385 1.429 . S
C391 C392 1.523 . S
C392 C373 1.368 . S
C392 C386 1.368 . S
C392 C391 1.523 . S
C393 C377 1.429 . S
C393 C389 1.429 . S
C393 C394 1.523 . S
C394 C378 1.368 . S
C394 C390 1.368 . S
C394 C393 1.523 . S
H395 C370 0.950 . S
H396 C372 0.950 . S
H397 C373 0.949 . S
H398 C375 0.950 . S
H399 C377 0.950 . S
C400 C401 1.349 . S
C400 C402 1.327 . S
C400 H425 0.950 . S
C401 C400 1.349 . S
C401 C417 1.349 . S
C402 C400 1.327 . S
C402 C421 1.429 . S
C402 H426 0.950 . S
C403 C420 1.574 . S
C403 C422 1.368 1_455 S
C403 H427 0.949 . S
H404 C408 0.949 . S
C405 C406 1.349 . S
C405 C407 1.327 . S
C405 H428 0.950 . S
C406 C405 1.349 . S
C406 C418 1.349 . S
C407 C405 1.327 . S
C407 C423 1.429 . S
C407 H429 0.950 . S
C408 H404 0.949 . S
C408 C416 1.574 . S
C408 C424 1.368 1_655 S
H409 C417 0.950 . S
H410 C415 0.950 . S
H411 C416 0.949 . S
H412 C418 0.950 . S
H413 C419 0.950 . S
H414 C420 0.949 . S
C415 H410 0.950 . S
C415 C417 1.327 . S
C415 C421 1.429 . S
C416 C408 1.574 . S
C416 H411 0.949 . S
C416 C422 1.368 . S
C417 C401 1.349 . S
C417 H409 0.950 . S
C417 C415 1.327 . S
C418 C406 1.349 . S
C418 H412 0.950 . S
C418 C419 1.327 . S
C419 H413 0.950 . S
C419 C418 1.327 . S
C419 C423 1.429 . S
C420 C403 1.574 . S
C420 H414 0.949 . S
C420 C424 1.368 . S
C421 C402 1.429 . S
C421 C415 1.429 . S
C421 C422 1.523 . S
C422 C403 1.368 1_655 S
C422 C416 1.368 . S
C422 C421 1.523 . S
C423 C407 1.429 . S
C423 C419 1.429 . S
C423 C424 1.523 . S
C424 C408 1.368 1_455 S
C424 C420 1.368 . S
C424 C423 1.523 . S
H425 C400 0.950 . S
H426 C402 0.950 . S
H427 C403 0.949 . S
H428 C405 0.950 . S
H429 C407 0.950 . S
C430 C431 1.349 . S
C430 C432 1.327 1_655 S
C430 H455 0.950 1_655 S
C431 C430 1.349 . S
C431 C447 1.349 . S
C432 C430 1.327 1_455 S
C432 C451 1.429 1_455 S
C432 H456 0.950 . S
C433 C450 1.574 . S
C433 C452 1.366 1_655 S
C433 H457 0.949 . S
H434 C438 0.949 . S
C435 C436 1.349 . S
C435 C437 1.327 . S
C435 H458 0.950 . S
C436 C435 1.349 . S
C436 C448 1.349 . S
C437 C435 1.327 . S
C437 C453 1.429 . S
C437 H459 0.950 1_455 S
C438 H434 0.949 . S
C438 C446 1.574 . S
C438 C454 1.368 . S
H439 C447 0.950 . S
H440 C445 0.950 . S
H441 C446 0.949 . S
H442 C448 0.950 . S
H443 C449 0.950 . S
H444 C450 0.949 . S
C445 H440 0.950 . S
C445 C447 1.327 . S
C445 C451 1.429 . S
C446 C438 1.574 . S
C446 H441 0.949 . S
C446 C452 1.374 . S
C447 C431 1.349 . S
C447 H439 0.950 . S
C447 C445 1.327 . S
C448 C436 1.349 . S
C448 H442 0.950 . S
C448 C449 1.327 . S
C449 H443 0.950 . S
C449 C448 1.327 . S
C449 C453 1.429 . S
C450 C433 1.574 . S
C450 H444 0.949 . S
C450 C454 1.368 1_655 S
C451 C432 1.429 1_655 S
C451 C445 1.429 . S
C451 C452 1.518 1_655 S
C452 C433 1.366 1_455 S
C452 C446 1.374 . S
C452 C451 1.518 1_455 S
C453 C437 1.429 . S
C453 C449 1.429 . S
C453 C454 1.523 . S
C454 C438 1.368 . S
C454 C450 1.368 1_455 S
C454 C453 1.523 . S
H455 C430 0.950 1_455 S
H456 C432 0.950 . S
H457 C433 0.949 . S
H458 C435 0.950 . S
H459 C437 0.950 1_655 S
C460 C461 1.349 . S
C460 C462 1.327 . S
C460 H485 0.950 . S
C461 C460 1.349 . S
C461 C477 1.349 . S
C462 C460 1.327 . S
C462 C481 1.429 . S
C462 H486 0.950 . S
C463 C480 1.574 . S
C463 C482 1.368 1_455 S
C463 H487 0.949 . S
H464 C468 0.949 . S
C465 C466 1.349 . S
C465 C467 1.327 . S
C465 H488 0.950 . S
C466 C465 1.349 . S
C466 C478 1.349 . S
C467 C465 1.327 . S
C467 C483 1.429 . S
C467 H489 0.950 . S
C468 H464 0.949 . S
C468 C476 1.574 . S
C468 C484 1.368 1_655 S
H469 C477 0.950 . S
H470 C475 0.950 . S
H471 C476 0.949 . S
H472 C478 0.950 . S
H473 C479 0.950 . S
H474 C480 0.949 . S
C475 H470 0.950 . S
C475 C477 1.327 . S
C475 C481 1.429 . S
C476 C468 1.574 . S
C476 H471 0.949 . S
C476 C482 1.368 . S
C477 C461 1.349 . S
C477 H469 0.950 . S
C477 C475 1.327 . S
C478 C466 1.349 . S
C478 H472 0.950 . S
C478 C479 1.327 . S
C479 H473 0.950 . S
C479 C478 1.327 . S
C479 C483 1.429 . S
C480 C463 1.574 . S
C480 H474 0.949 . S
C480 C484 1.368 . S
C481 C462 1.429 . S
C481 C475 1.429 . S
C481 C482 1.523 . S
C482 C463 1.368 1_655 S
C482 C476 1.368 . S
C482 C481 1.523 . S
C483 C467 1.429 . S
C483 C479 1.429 . S
C483 C484 1.523 . S
C484 C468 1.368 1_455 S
C484 C480 1.368 . S
C484 C483 1.523 . S
H485 C460 0.950 . S
H486 C462 0.950 . S
H487 C463 0.949 . S
H488 C465 0.950 . S
H489 C467 0.950 . S
C490 C491 1.349 . S
C490 C492 1.327 1_455 S
C490 H515 0.950 . S
C491 C490 1.349 . S
C491 C507 1.349 . S
C492 C490 1.327 1_655 S
C492 C511 1.429 1_655 S
C492 H516 0.950 . S
C493 C510 1.574 . S
C493 C512 1.368 1_455 S
C493 H517 0.949 . S
H494 C498 0.949 . S
C495 C496 1.349 . S
C495 C497 1.327 . S
C495 H518 0.950 . S
C496 C495 1.349 . S
C496 C508 1.349 . S
C497 C495 1.327 . S
C497 C513 1.429 . S
C497 H519 0.950 . S
C498 H494 0.949 . S
C498 C506 1.574 . S
C498 C514 1.368 . S
H499 C507 0.950 . S
H500 C505 0.950 . S
H501 C506 0.949 . S
H502 C508 0.950 . S
H503 C509 0.950 . S
H504 C510 0.949 . S
C505 H500 0.950 . S
C505 C507 1.327 . S
C505 C511 1.429 . S
C506 C498 1.574 . S
C506 H501 0.949 . S
C506 C512 1.372 . S
C507 C491 1.349 . S
C507 H499 0.950 . S
C507 C505 1.327 . S
C508 C496 1.349 . S
C508 H502 0.950 . S
C508 C509 1.327 . S
C509 H503 0.950 . S
C509 C508 1.327 . S
C509 C513 1.429 . S
C510 C493 1.574 . S
C510 H504 0.949 . S
C510 C514 1.368 1_455 S
C511 C492 1.429 1_455 S
C511 C505 1.429 . S
C511 C512 1.518 1_455 S
C512 C493 1.368 1_655 S
C512 C506 1.372 . S
C512 C511 1.518 1_655 S
C513 C497 1.429 . S
C513 C509 1.429 . S
C513 C514 1.523 . S
C514 C498 1.368 . S
C514 C510 1.368 1_655 S
C514 C513 1.523 . S
H515 C490 0.950 . S
H516 C492 0.950 . S
H517 C493 0.949 . S
H518 C495 0.950 . S
H519 C497 0.950 . S
C161 C55 1.503 . S
C166 C6 1.503 . S
C191 C89 1.953 . S
C196 C138 1.953 . S
C221 C15 1.503 . S
C226 C46 1.503 . S
C251 C129 1.952 . S
C256 C98 1.952 . S
C281 C130 0.939 . S
C286 C9 0.910 . S
C311 C59 1.556 . S
C316 C86 1.550 . S
C341 C58 0.910 . S
C346 C99 0.939 . S
C371 C135 1.550 . S
C376 C10 1.555 . S
C401 C49 0.910 . S
C406 C90 0.939 . S
C431 C126 1.550 . S
C436 C19 1.556 . S
C461 C139 0.939 . S
C466 C18 0.910 . S
C491 C95 1.550 . S
C496 C50 1.556 . S
