# Generated by pormake.
# Topology unp, (4)-cn, num edge types: 1
# Building blocks:
#     Node 0, Type 0, BuildingBlock: TATPOV_clean_sbu_0, # of connection points: 4
#     Node 1, Type 0, BuildingBlock: TATPOV_clean_sbu_0, # of connection points: 4
#     Node 2, Type 0, BuildingBlock: TATPOV_clean_sbu_0, # of connection points: 4
#     Node 3, Type 0, BuildingBlock: TATPOV_clean_sbu_0, # of connection points: 4
#     Node 4, Type 0, BuildingBlock: TATPOV_clean_sbu_0, # of connection points: 4
#     Node 5, Type 0, BuildingBlock: TATPOV_clean_sbu_0, # of connection points: 4
#     Node 6, Type 0, BuildingBlock: TATPOV_clean_sbu_0, # of connection points: 4
#     Node 7, Type 0, BuildingBlock: TATPOV_clean_sbu_0, # of connection points: 4
#     Node 8, Type 0, BuildingBlock: TATPOV_clean_sbu_0, # of connection points: 4
#     Node 9, Type 0, BuildingBlock: TATPOV_clean_sbu_0, # of connection points: 4
#     Node 10, Type 0, BuildingBlock: TATPOV_clean_sbu_0, # of connection points: 4
#     Node 11, Type 0, BuildingBlock: TATPOV_clean_sbu_0, # of connection points: 4
#     Node 12, Type 0, BuildingBlock: TATPOV_clean_sbu_0, # of connection points: 4
#     Node 13, Type 0, BuildingBlock: TATPOV_clean_sbu_0, # of connection points: 4
#     Node 14, Type 0, BuildingBlock: TATPOV_clean_sbu_0, # of connection points: 4
#     Node 15, Type 0, BuildingBlock: TATPOV_clean_sbu_0, # of connection points: 4
#     Node 16, Type 0, BuildingBlock: TATPOV_clean_sbu_0, # of connection points: 4
#     Node 17, Type 0, BuildingBlock: TATPOV_clean_sbu_0, # of connection points: 4
#     Edge 18, Type (0, 0), BuildingBlock: OJICUG_clean_linker_0, # of connection points: 2
#     Edge 19, Type (0, 0), BuildingBlock: OJICUG_clean_linker_0, # of connection points: 2
#     Edge 20, Type (0, 0), BuildingBlock: OJICUG_clean_linker_0, # of connection points: 2
#     Edge 21, Type (0, 0), BuildingBlock: OJICUG_clean_linker_0, # of connection points: 2
#     Edge 22, Type (0, 0), BuildingBlock: OJICUG_clean_linker_0, # of connection points: 2
#     Edge 23, Type (0, 0), BuildingBlock: OJICUG_clean_linker_0, # of connection points: 2
#     Edge 24, Type (0, 0), BuildingBlock: OJICUG_clean_linker_0, # of connection points: 2
#     Edge 25, Type (0, 0), BuildingBlock: OJICUG_clean_linker_0, # of connection points: 2
#     Edge 26, Type (0, 0), BuildingBlock: OJICUG_clean_linker_0, # of connection points: 2
#     Edge 27, Type (0, 0), BuildingBlock: OJICUG_clean_linker_0, # of connection points: 2
#     Edge 28, Type (0, 0), BuildingBlock: OJICUG_clean_linker_0, # of connection points: 2
#     Edge 29, Type (0, 0), BuildingBlock: OJICUG_clean_linker_0, # of connection points: 2
#     Edge 30, Type (0, 0), BuildingBlock: OJICUG_clean_linker_0, # of connection points: 2
#     Edge 31, Type (0, 0), BuildingBlock: OJICUG_clean_linker_0, # of connection points: 2
#     Edge 32, Type (0, 0), BuildingBlock: OJICUG_clean_linker_0, # of connection points: 2
#     Edge 33, Type (0, 0), BuildingBlock: OJICUG_clean_linker_0, # of connection points: 2
#     Edge 34, Type (0, 0), BuildingBlock: OJICUG_clean_linker_0, # of connection points: 2
#     Edge 35, Type (0, 0), BuildingBlock: OJICUG_clean_linker_0, # of connection points: 2
#     Edge 36, Type (0, 0), BuildingBlock: OJICUG_clean_linker_0, # of connection points: 2
#     Edge 37, Type (0, 0), BuildingBlock: OJICUG_clean_linker_0, # of connection points: 2
#     Edge 38, Type (0, 0), BuildingBlock: OJICUG_clean_linker_0, # of connection points: 2
#     Edge 39, Type (0, 0), BuildingBlock: OJICUG_clean_linker_0, # of connection points: 2
#     Edge 40, Type (0, 0), BuildingBlock: OJICUG_clean_linker_0, # of connection points: 2
#     Edge 41, Type (0, 0), BuildingBlock: OJICUG_clean_linker_0, # of connection points: 2
#     Edge 42, Type (0, 0), BuildingBlock: OJICUG_clean_linker_0, # of connection points: 2
#     Edge 43, Type (0, 0), BuildingBlock: OJICUG_clean_linker_0, # of connection points: 2
#     Edge 44, Type (0, 0), BuildingBlock: OJICUG_clean_linker_0, # of connection points: 2
#     Edge 45, Type (0, 0), BuildingBlock: OJICUG_clean_linker_0, # of connection points: 2
#     Edge 46, Type (0, 0), BuildingBlock: OJICUG_clean_linker_0, # of connection points: 2
#     Edge 47, Type (0, 0), BuildingBlock: OJICUG_clean_linker_0, # of connection points: 2
#     Edge 48, Type (0, 0), BuildingBlock: OJICUG_clean_linker_0, # of connection points: 2
#     Edge 49, Type (0, 0), BuildingBlock: OJICUG_clean_linker_0, # of connection points: 2
#     Edge 50, Type (0, 0), BuildingBlock: OJICUG_clean_linker_0, # of connection points: 2
#     Edge 51, Type (0, 0), BuildingBlock: OJICUG_clean_linker_0, # of connection points: 2
#     Edge 52, Type (0, 0), BuildingBlock: OJICUG_clean_linker_0, # of connection points: 2
#     Edge 53, Type (0, 0), BuildingBlock: OJICUG_clean_linker_0, # of connection points: 2
# Relax obj value: 0.357
# Max RMSD: 0.181
# Mean RMSD: 0.181
data_MOF--net-unp--node1-TATPOV_clean_sbu_0--edge1-OJICUG_clean_linker_0
_symmetry_space_group_name_H-M    P1
_symmetry_Int_Tables_number       1
_symmetry_cell_setting            triclinic
loop_
_symmetry_equiv_pos_as_xyz
'x, y, z'
_cell_length_a     33.344279
_cell_length_b     33.202524
_cell_length_c     48.978419
_cell_angle_alpha  89.615241
_cell_angle_beta   89.97293
_cell_angle_gamma 119.83001
loop_
_atom_site_label
_atom_site_type_symbol
_atom_site_fract_x
_atom_site_fract_y
_atom_site_fract_z
_atom_type_partial_charge
Zn0 Zn 0.1552 0.03209 0.0459 0.0
Zn1 Zn 0.18027 0.107 0.06592 0.0
O2 O 0.18911 0.06252 0.0931 0.0
O3 O 0.18379 0.00419 0.06993 0.0
O4 O 0.22405 0.17032 0.08034 0.0
O5 O 0.17435 0.04803 0.00732 0.0
O6 O 0.19018 0.11572 0.02338 0.0
C7 C 0.19047 0.02475 0.09244 0.0
C8 C 0.08186 0.05203 0.06599 0.0
O9 O 0.11469 0.09215 0.07218 0.0
O10 O 0.09086 0.02231 0.05572 0.0
C11 C 0.22617 0.1798 0.10556 0.0
O12 O 0.19587 0.14851 0.12244 0.0
C13 C 0.18612 0.09004 0.00308 0.0
Zn14 Zn 0.78831 0.92403 0.07563 0.0
Zn15 Zn 0.80985 0.98978 0.10811 0.0
O16 O 0.8774 0.01779 0.09961 0.0
O17 O 0.85953 0.96001 0.07119 0.0
O18 O 0.79874 0.02839 0.13536 0.0
O19 O 0.74978 0.93574 0.04841 0.0
O20 O 0.78163 0.99898 0.07276 0.0
C21 C 0.8898 0.9969 0.0828 0.0
C22 C 0.77883 0.88573 0.12464 0.0
O23 O 0.79531 0.92915 0.12839 0.0
O24 O 0.76351 0.8692 0.10129 0.0
C25 C 0.75729 0.02041 0.13489 0.0
O26 O 0.72767 0.98817 0.1185 0.0
C27 C 0.75899 0.97721 0.05175 0.0
Zn28 Zn 0.00769 0.90285 0.14883 0.0
Zn29 Zn 0.98481 0.82055 0.14447 0.0
O30 O 0.92528 0.82441 0.1544 0.0
O31 O 0.94812 0.89832 0.15898 0.0
O32 O 0.96606 0.75444 0.15432 0.0
O33 O 0.02629 0.90209 0.10835 0.0
O34 O 0.99209 0.82615 0.10362 0.0
C35 C 0.91601 0.85657 0.15951 0.0
C36 C 0.07812 0.90298 0.16797 0.0
O37 O 0.05421 0.86416 0.15589 0.0
O38 O 0.05705 0.9228 0.17717 0.0
C39 C 0.96697 0.74262 0.17894 0.0
O40 O 0.98479 0.77503 0.19763 0.0
C41 C 0.01551 0.8668 0.09352 0.0
Zn42 Zn 0.10548 0.10195 0.83991 0.0
Zn43 Zn 0.17081 0.18107 0.84292 0.0
O44 O 0.11031 0.18473 0.83634 0.0
O45 O 0.05397 0.11336 0.83106 0.0
O46 O 0.22171 0.24323 0.8296 0.0
O47 O 0.1268 0.10213 0.88001 0.0
O48 O 0.17684 0.17692 0.88364 0.0
C49 C 0.06773 0.15626 0.83171 0.0
C50 C 0.16894 0.09155 0.81885 0.0
O51 O 0.18798 0.13106 0.83052 0.0
O52 O 0.12751 0.07465 0.81127 0.0
C53 C 0.21497 0.25809 0.80705 0.0
O54 O 0.17704 0.23154 0.79335 0.0
C55 C 0.15572 0.13639 0.89418 0.0
Zn56 Zn 0.89689 0.1155 0.92861 0.0
Zn57 Zn 0.83933 0.05139 0.89776 0.0
O58 O 0.8725 0.01517 0.90462 0.0
O59 O 0.92321 0.07091 0.93089 0.0
O60 O 0.78399 0.01422 0.87401 0.0
O61 O 0.85371 0.1133 0.95814 0.0
O62 O 0.80807 0.05265 0.93381 0.0
C63 C 0.90861 0.03182 0.91939 0.0
C64 C 0.91745 0.14931 0.87701 0.0
O65 O 0.88511 0.10738 0.87423 0.0
O66 O 0.92656 0.16673 0.90065 0.0
C67 C 0.75052 0.9781 0.88466 0.0
O68 O 0.75608 0.96417 0.90882 0.0
C69 C 0.81514 0.07672 0.95523 0.0
Zn70 Zn 0.11964 0.96147 0.94166 0.0
Zn71 Zn 0.06299 0.88998 0.92185 0.0
O72 O 0.11517 0.93249 0.89393 0.0
O73 O 0.17354 0.98745 0.91581 0.0
O74 O 0.04521 0.82634 0.90827 0.0
O75 O 0.12526 0.94441 0.97972 0.0
O76 O 0.06486 0.88217 0.9642 0.0
C77 C 0.1559 0.96767 0.89354 0.0
C78 C 0.02643 0.94996 0.92502 0.0
O79 O 0.01456 0.90907 0.917 0.0
O80 O 0.06663 0.97555 0.93482 0.0
C81 C 0.0384 0.81604 0.88316 0.0
O82 O 0.03377 0.84435 0.86626 0.0
C83 C 0.09021 0.90513 0.98421 0.0
Zn84 Zn 0.73822 0.40468 0.47663 0.0
Zn85 Zn 0.82309 0.46092 0.47267 0.0
O86 O 0.8165 0.39725 0.48505 0.0
O87 O 0.7419 0.34805 0.48478 0.0
O88 O 0.89073 0.50494 0.47793 0.0
O89 O 0.73952 0.42882 0.43731 0.0
O90 O 0.81494 0.46217 0.43198 0.0
C91 C 0.78271 0.35609 0.48839 0.0
C92 C 0.7478 0.4779 0.50045 0.0
O93 O 0.78555 0.49173 0.48724 0.0
O94 O 0.72577 0.43583 0.5078 0.0
C95 C 0.91072 0.54468 0.48896 0.0
O96 O 0.88588 0.56193 0.4989 0.0
C97 C 0.77534 0.45074 0.42237 0.0
Zn98 Zn 0.62456 0.4384 0.38461 0.0
Zn99 Zn 0.54796 0.38907 0.4039 0.0
O100 O 0.5919 0.44084 0.43133 0.0
O101 O 0.64914 0.49515 0.408 0.0
O102 O 0.48475 0.37175 0.41809 0.0
O103 O 0.61053 0.44195 0.3459 0.0
O104 O 0.54114 0.39358 0.36145 0.0
C105 C 0.62883 0.48037 0.43062 0.0
C106 C 0.60188 0.34356 0.40497 0.0
O107 O 0.56129 0.33649 0.40969 0.0
O108 O 0.63281 0.38286 0.39583 0.0
C109 C 0.47525 0.36684 0.44344 0.0
O110 O 0.50582 0.36768 0.46069 0.0
C111 C 0.5682 0.41472 0.34139 0.0
Zn112 Zn 0.72252 0.1691 0.40889 0.0
Zn113 Zn 0.65294 0.12035 0.43745 0.0
O114 O 0.62635 0.16242 0.43058 0.0
O115 O 0.68957 0.20803 0.407 0.0
O116 O 0.61162 0.0665 0.46206 0.0
O117 O 0.71404 0.12576 0.37831 0.0
O118 O 0.64843 0.08842 0.40048 0.0
C119 C 0.65099 0.19981 0.4171 0.0
C120 C 0.75488 0.1887 0.45846 0.0
O121 O 0.71104 0.16309 0.46025 0.0
O122 O 0.77431 0.19107 0.43585 0.0
C123 C 0.60608 0.06858 0.48758 0.0
O124 O 0.62615 0.1092 0.49959 0.0
C125 C 0.67297 0.09238 0.37958 0.0
Zn126 Zn 0.69339 0.48951 0.27475 0.0
Zn127 Zn 0.76379 0.50497 0.25316 0.0
O128 O 0.72073 0.51738 0.22713 0.0
O129 O 0.66599 0.5186 0.25094 0.0
O130 O 0.82771 0.54969 0.23899 0.0
O131 O 0.71044 0.50936 0.31298 0.0
O132 O 0.77092 0.50905 0.29585 0.0
C133 C 0.68538 0.52274 0.22814 0.0
C134 C 0.70448 0.40862 0.25521 0.0
O135 O 0.7446 0.43807 0.24641 0.0
O136 O 0.67933 0.42265 0.26656 0.0
C137 C 0.83582 0.55743 0.21356 0.0
O138 O 0.80357 0.53094 0.19616 0.0
C139 C 0.74847 0.51047 0.31659 0.0
Zn140 Zn 0.55743 0.3419 0.1745 0.0
Zn141 Zn 0.47721 0.32479 0.17993 0.0
O142 O 0.47599 0.26293 0.16966 0.0
O143 O 0.54796 0.28017 0.16402 0.0
O144 O 0.41298 0.31021 0.17037 0.0
O145 O 0.55846 0.36013 0.21523 0.0
O146 O 0.4834 0.33114 0.2207 0.0
C147 C 0.50548 0.25032 0.16405 0.0
C148 C 0.56176 0.41529 0.15486 0.0
O149 O 0.52315 0.39326 0.16752 0.0
O150 O 0.57983 0.39225 0.14614 0.0
C151 C 0.4039 0.31332 0.14553 0.0
O152 O 0.43809 0.33153 0.12778 0.0
C153 C 0.52406 0.35146 0.23048 0.0
Zn154 Zn 0.54677 0.11322 0.25551 0.0
Zn155 Zn 0.61291 0.12378 0.22477 0.0
O156 O 0.64707 0.19209 0.23362 0.0
O157 O 0.58897 0.18412 0.25907 0.0
O158 O 0.65041 0.11046 0.19818 0.0
O159 O 0.55037 0.07025 0.28322 0.0
O160 O 0.6121 0.08689 0.25911 0.0
C161 C 0.62851 0.20993 0.2483 0.0
C162 C 0.51474 0.1042 0.20454 0.0
O163 O 0.55712 0.11535 0.20206 0.0
O164 O 0.4959 0.09254 0.22785 0.0
C165 C 0.68864 0.11289 0.20415 0.0
O166 O 0.70696 0.12826 0.22825 0.0
C167 C 0.58677 0.06787 0.28004 0.0
Zn168 Zn 0.43442 0.79066 0.76532 0.0
Zn169 Zn 0.5069 0.85446 0.79068 0.0
O170 O 0.4986 0.79188 0.80521 0.0
O171 O 0.43178 0.73945 0.78864 0.0
O172 O 0.5641 0.89929 0.81102 0.0
O173 O 0.47004 0.80971 0.72985 0.0
O174 O 0.53021 0.86592 0.75076 0.0
C175 C 0.46641 0.74982 0.80361 0.0
C176 C 0.41399 0.85407 0.79135 0.0
O177 O 0.45556 0.87193 0.79993 0.0
O178 O 0.39734 0.81939 0.77576 0.0
C179 C 0.56918 0.88999 0.83556 0.0
O180 O 0.53445 0.85478 0.84807 0.0
C181 C 0.51077 0.84395 0.72907 0.0
Zn182 Zn 0.20043 0.76285 0.74189 0.0
Zn183 Zn 0.16129 0.71744 0.78057 0.0
O184 O 0.21892 0.78202 0.78959 0.0
O185 O 0.23772 0.82894 0.7545 0.0
O186 O 0.11253 0.7092 0.8077 0.0
O187 O 0.15281 0.74221 0.71217 0.0
O188 O 0.12458 0.69017 0.7448 0.0
C189 C 0.2449 0.82203 0.77899 0.0
C190 C 0.22217 0.68935 0.76707 0.0
O191 O 0.18991 0.67737 0.78469 0.0
O192 O 0.23038 0.72136 0.74965 0.0
C193 C 0.12039 0.72017 0.83268 0.0
O194 O 0.16066 0.73022 0.84299 0.0
C195 C 0.12296 0.70202 0.72023 0.0
Zn196 Zn 0.42293 0.61255 0.73024 0.0
Zn197 Zn 0.36036 0.53404 0.74371 0.0
O198 O 0.31968 0.56316 0.74874 0.0
O199 O 0.37952 0.63387 0.74572 0.0
O200 O 0.32187 0.46695 0.75548 0.0
O201 O 0.42201 0.60374 0.69053 0.0
O202 O 0.37195 0.53165 0.70173 0.0
C203 C 0.3368 0.60695 0.75061 0.0
C204 C 0.45244 0.59653 0.7753 0.0
O205 O 0.40968 0.56615 0.77396 0.0
O206 O 0.47362 0.61398 0.75316 0.0
C207 C 0.337 0.44716 0.77142 0.0
O208 O 0.37943 0.47084 0.7807 0.0
C209 C 0.39517 0.56233 0.68352 0.0
Zn210 Zn 0.51566 0.74492 0.59178 0.0
Zn211 Zn 0.50896 0.80627 0.56447 0.0
O212 O 0.4402 0.7704 0.57099 0.0
O213 O 0.44509 0.71724 0.5957 0.0
O214 O 0.52338 0.86331 0.54198 0.0
O215 O 0.55582 0.78353 0.62237 0.0
O216 O 0.53806 0.83184 0.60248 0.0
C217 C 0.4209 0.73321 0.58521 0.0
C218 C 0.53183 0.73241 0.53932 0.0
O219 O 0.52147 0.76461 0.53817 0.0
O220 O 0.53834 0.71943 0.56241 0.0
C221 C 0.52696 0.89996 0.55242 0.0
O222 O 0.51938 0.90061 0.5787 0.0
C223 C 0.55486 0.82109 0.62282 0.0
Zn224 Zn 0.13784 0.5354 0.61618 0.0
Zn225 Zn 0.12685 0.58385 0.57767 0.0
O226 O 0.11612 0.5221 0.5614 0.0
O227 O 0.117 0.47703 0.59397 0.0
O228 O 0.09705 0.60679 0.55097 0.0
O229 O 0.09855 0.54397 0.64469 0.0
O230 O 0.09922 0.59138 0.61321 0.0
C231 C 0.11352 0.484 0.56885 0.0
C232 C 0.22243 0.62112 0.59482 0.0
O233 O 0.19579 0.62707 0.57871 0.0
O234 O 0.20587 0.58692 0.61143 0.0
C235 C 0.09133 0.59594 0.52592 0.0
O236 O 0.1127 0.57536 0.51547 0.0
C237 C 0.08936 0.57512 0.63738 0.0
Zn238 Zn 0.32453 0.55013 0.51523 0.0
Zn239 Zn 0.33484 0.48238 0.51742 0.0
O240 O 0.39254 0.54254 0.50143 0.0
O241 O 0.37103 0.59157 0.48775 0.0
O242 O 0.34862 0.4322 0.50669 0.0
O243 O 0.34444 0.55584 0.55594 0.0
O244 O 0.34471 0.48966 0.5578 0.0
C245 C 0.40254 0.58127 0.49014 0.0
C246 C 0.23872 0.47589 0.50824 0.0
O247 O 0.26336 0.45687 0.51259 0.0
O248 O 0.25827 0.51948 0.50583 0.0
C249 C 0.34749 0.42185 0.48168 0.0
O250 O 0.33199 0.44041 0.46376 0.0
C251 C 0.34961 0.52587 0.56947 0.0
C252 C 0.31954 0.25937 0.15419 0.0
C253 C 0.35553 0.28717 0.13591 0.0
H254 H 0.24996 0.20372 0.15891 0.0
C255 C 0.34586 0.28462 0.10786 0.0
H256 H 0.32569 0.26081 0.17597 0.0
C257 C 0.30241 0.25189 0.09809 0.0
C258 C 0.26778 0.22103 0.11618 0.0
H259 H 0.37262 0.30594 0.09326 0.0
H260 H 0.29695 0.249 0.07623 0.0
C261 C 0.27606 0.22658 0.1444 0.0
C262 C 0.76801 0.07288 0.17436 0.0
C263 C 0.74201 0.04687 0.15191 0.0
H264 H 0.77146 0.11428 0.20868 0.0
C265 C 0.70011 0.04534 0.14591 0.0
H266 H 0.80052 0.07476 0.1794 0.0
C267 C 0.68384 0.06828 0.16233 0.0
C268 C 0.70881 0.09291 0.18538 0.0
H269 H 0.6795 0.02603 0.12857 0.0
H270 H 0.65097 0.06559 0.15729 0.0
C271 C 0.75138 0.09549 0.19108 0.0
C272 C 0.88198 0.61363 0.17626 0.0
C273 C 0.87613 0.6016 0.20413 0.0
H274 H 0.91574 0.66753 0.14634 0.0
C275 C 0.90554 0.63471 0.22315 0.0
H276 H 0.86021 0.58888 0.16104 0.0
C277 C 0.93732 0.67993 0.21472 0.0
C278 C 0.94049 0.69297 0.1871 0.0
H279 H 0.90228 0.62655 0.24477 0.0
H280 H 0.95766 0.70523 0.23008 0.0
C281 C 0.91387 0.65881 0.16783 0.0
C282 C 0.26416 0.37069 0.76691 0.0
C283 C 0.30672 0.39823 0.77991 0.0
H284 H 0.20219 0.30482 0.76506 0.0
C285 C 0.31967 0.37878 0.80138 0.0
H286 H 0.25325 0.38454 0.75022 0.0
C287 C 0.29019 0.33306 0.81004 0.0
C288 C 0.2474 0.30572 0.79722 0.0
H289 H 0.35226 0.3991 0.81182 0.0
H290 H 0.30081 0.31926 0.8269 0.0
C291 C 0.23495 0.32489 0.77537 0.0
C292 C 0.66626 0.91941 0.8855 0.0
C293 C 0.70444 0.95525 0.8717 0.0
H294 H 0.59364 0.87135 0.88517 0.0
C295 C 0.69755 0.9705 0.8462 0.0
H296 H 0.67026 0.90707 0.90528 0.0
C297 C 0.65343 0.95007 0.83469 0.0
C298 C 0.61529 0.9141 0.84848 0.0
H299 H 0.72621 0.99825 0.83513 0.0
H300 H 0.64932 0.96223 0.81488 0.0
C301 C 0.62219 0.89915 0.87406 0.0
C302 C 0.05933 0.74307 0.83272 0.0
C303 C 0.09013 0.73371 0.8474 0.0
H304 H 0.01861 0.77665 0.83262 0.0
C305 C 0.09667 0.74424 0.87531 0.0
H306 H 0.05326 0.7352 0.81118 0.0
C307 C 0.07603 0.76726 0.8877 0.0
C308 C 0.0492 0.78101 0.87226 0.0
H309 H 0.11985 0.7371 0.88721 0.0
H310 H 0.08412 0.77741 0.90885 0.0
C311 C 0.03944 0.76691 0.84497 0.0
C312 C 0.98777 0.55195 0.48015 0.0
C313 C 0.96092 0.56717 0.4941 0.0
H314 H 0.05098 0.55029 0.4788 0.0
C315 C 0.98129 0.59961 0.51513 0.0
H316 H 0.97326 0.52758 0.4635 0.0
C317 C 0.02595 0.6126 0.52397 0.0
C318 C 0.05101 0.59357 0.5118 0.0
H319 H 0.96164 0.61234 0.52607 0.0
H320 H 0.03952 0.63502 0.54154 0.0
C321 C 0.03249 0.56522 0.48881 0.0
C322 C 0.39763 0.38681 0.49099 0.0
C323 C 0.37234 0.3978 0.47236 0.0
H324 H 0.44979 0.36784 0.49646 0.0
C325 C 0.37587 0.39105 0.44437 0.0
H326 H 0.39541 0.39119 0.51273 0.0
C327 C 0.40699 0.37752 0.43504 0.0
C328 C 0.43534 0.3706 0.45352 0.0
H329 H 0.3565 0.39868 0.42949 0.0
H330 H 0.41069 0.37516 0.41323 0.0
C331 C 0.42887 0.3734 0.48165 0.0
C332 C 0.56691 0.98187 0.49149 0.0
C333 C 0.58164 0.02509 0.50389 0.0
H334 H 0.53817 0.90863 0.49702 0.0
C335 C 0.57535 0.02636 0.53218 0.0
H336 H 0.5711 0.97954 0.46973 0.0
C337 C 0.55616 0.9855 0.54784 0.0
C338 C 0.54319 0.94256 0.53557 0.0
H339 H 0.58616 0.05902 0.54236 0.0
H340 H 0.55276 0.98781 0.56969 0.0
C341 C 0.54808 0.94114 0.50715 0.0
C342 C 0.02094 0.06808 0.08475 0.0
C343 C 0.03308 0.03946 0.07004 0.0
H344 H 0.96584 0.07713 0.10045 0.0
C345 C 0.9979 0.99793 0.05899 0.0
H346 H 0.04734 0.10033 0.09348 0.0
C347 C 0.95168 0.98502 0.06269 0.0
C348 C 0.93926 0.01304 0.07776 0.0
H349 H 0.00596 0.97511 0.04744 0.0
H350 H 0.92564 0.95248 0.05404 0.0
C351 C 0.97434 0.05485 0.0887 0.0
C352 C 0.82159 0.88474 0.16599 0.0
C353 C 0.7952 0.86113 0.14303 0.0
H354 H 0.88206 0.90173 0.18942 0.0
C355 C 0.7993 0.82374 0.1328 0.0
H356 H 0.81857 0.91289 0.17492 0.0
C357 C 0.83563 0.817 0.14143 0.0
C358 C 0.8679 0.84745 0.16037 0.0
H359 H 0.77893 0.80408 0.11549 0.0
H360 H 0.84197 0.79237 0.13057 0.0
C361 C 0.8582 0.87846 0.17431 0.0
C362 C 0.17191 0.95073 0.1165 0.0
C363 C 0.18386 0.99774 0.11808 0.0
H364 H 0.12946 0.8823 0.13262 0.0
C365 C 0.17565 0.01374 0.14281 0.0
H366 H 0.17893 0.93729 0.09812 0.0
C367 C 0.14747 0.98197 0.1629 0.0
C368 C 0.12646 0.93383 0.15822 0.0
H369 H 0.18559 0.04995 0.14517 0.0
H370 H 0.1366 0.99496 0.17994 0.0
C371 C 0.1435 0.91897 0.13651 0.0
C372 C 0.14916 0.97803 0.84345 0.0
C373 C 0.17548 0.99322 0.86747 0.0
H374 H 0.1285 0.99853 0.80707 0.0
C375 C 0.21308 0.03888 0.86809 0.0
H376 H 0.12089 0.94267 0.8418 0.0
C377 C 0.21756 0.07107 0.84801 0.0
C378 C 0.18404 0.05801 0.82737 0.0
H379 H 0.23514 0.05148 0.88586 0.0
H380 H 0.24265 0.1073 0.85125 0.0
C381 C 0.15373 0.01024 0.82334 0.0
C382 C 0.03801 0.20516 0.8518 0.0
C383 C 0.03257 0.17091 0.83312 0.0
H384 H 0.00388 0.22677 0.88019 0.0
C385 C 0.98871 0.1423 0.82184 0.0
H386 H 0.07157 0.22827 0.86051 0.0
C387 C 0.94983 0.14186 0.83283 0.0
C388 C 0.95434 0.16899 0.85581 0.0
H389 H 0.98373 0.11637 0.80685 0.0
H390 H 0.91604 0.11528 0.82603 0.0
C391 C 0.99898 0.20432 0.86307 0.0
C392 C 0.00644 0.01036 0.93749 0.0
C393 C 0.99427 0.96861 0.924 0.0
H394 H 0.98899 0.0622 0.94698 0.0
C395 C 0.95208 0.94612 0.90987 0.0
H396 H 0.03845 0.02858 0.94879 0.0
C397 C 0.92333 0.96584 0.90872 0.0
C398 C 0.9362 0.00811 0.9219 0.0
H399 H 0.94171 0.91384 0.89934 0.0
H400 H 0.8915 0.94839 0.89722 0.0
C401 C 0.97782 0.02968 0.93655 0.0
C402 C 0.67173 0.47518 0.49964 0.0
C403 C 0.71949 0.49999 0.49376 0.0
H404 H 0.60375 0.4494 0.48348 0.0
C405 C 0.73479 0.53372 0.47283 0.0
H406 H 0.65859 0.4503 0.51635 0.0
C407 C 0.70311 0.53346 0.45399 0.0
C408 C 0.65596 0.49963 0.45604 0.0
H409 H 0.77132 0.55495 0.46826 0.0
H410 H 0.71654 0.55481 0.43578 0.0
C411 C 0.64004 0.47454 0.48066 0.0
C412 C 0.58119 0.26221 0.41926 0.0
C413 C 0.61353 0.30627 0.40888 0.0
H414 H 0.56747 0.19363 0.43009 0.0
C415 C 0.6577 0.31456 0.4014 0.0
H416 H 0.54686 0.25474 0.42522 0.0
C417 C 0.6692 0.27976 0.4039 0.0
C418 C 0.63704 0.23562 0.41415 0.0
H419 H 0.68361 0.34802 0.39337 0.0
H420 H 0.70369 0.28779 0.39792 0.0
C421 C 0.59293 0.22721 0.422 0.0
C422 C 0.75607 0.27578 0.50484 0.0
C423 C 0.79008 0.31601 0.49162 0.0
H424 H 0.72023 0.20175 0.50616 0.0
C425 C 0.82338 0.31312 0.47551 0.0
H426 H 0.73059 0.27727 0.5179 0.0
C427 C 0.81717 0.26954 0.46847 0.0
C428 C 0.77738 0.22872 0.47734 0.0
H429 H 0.85039 0.34375 0.46537 0.0
H430 H 0.83958 0.26812 0.45295 0.0
C431 C 0.75033 0.2324 0.49817 0.0
C432 C 0.6266 0.27956 0.26516 0.0
C433 C 0.65037 0.26094 0.25117 0.0
H434 H 0.62459 0.34006 0.27704 0.0
C435 C 0.69302 0.29149 0.23867 0.0
H436 H 0.59362 0.25724 0.27497 0.0
C437 C 0.71111 0.33969 0.23992 0.0
C438 C 0.68666 0.35802 0.25352 0.0
H439 H 0.71209 0.27821 0.22763 0.0
H440 H 0.74388 0.36248 0.23003 0.0
C441 C 0.64436 0.32731 0.26623 0.0
C442 C 0.67409 0.50967 0.17784 0.0
C443 C 0.65919 0.51863 0.20277 0.0
H444 H 0.65336 0.47081 0.1409 0.0
C445 C 0.61334 0.50966 0.20471 0.0
H446 H 0.70955 0.51762 0.17518 0.0
C447 C 0.58094 0.48269 0.18493 0.0
C448 C 0.59406 0.46395 0.16327 0.0
H449 H 0.60093 0.51757 0.22323 0.0
H450 H 0.54477 0.47052 0.18912 0.0
C451 C 0.64167 0.48286 0.15801 0.0
C452 C 0.52233 0.18758 0.15198 0.0
C453 C 0.49222 0.2007 0.16383 0.0
H454 H 0.55097 0.14279 0.15461 0.0
C455 C 0.45749 0.16945 0.18168 0.0
H456 H 0.5487 0.21048 0.13761 0.0
C457 C 0.45903 0.13064 0.19172 0.0
C458 C 0.49548 0.12309 0.18404 0.0
H459 H 0.43324 0.17823 0.1908 0.0
H460 H 0.43595 0.11095 0.20833 0.0
C461 C 0.52345 0.14852 0.16172 0.0
C462 C 0.3035 0.83669 0.815 0.0
C463 C 0.29134 0.8519 0.79111 0.0
H464 H 0.35589 0.82777 0.83471 0.0
C465 C 0.32715 0.88536 0.77459 0.0
H466 H 0.27699 0.81176 0.8286 0.0
C467 C 0.37267 0.89494 0.77842 0.0
C468 C 0.38279 0.87155 0.79887 0.0
H469 H 0.31933 0.89872 0.75634 0.0
H470 H 0.39811 0.91456 0.76276 0.0
C471 C 0.34904 0.84631 0.81876 0.0
C472 C 0.32553 0.67545 0.75383 0.0
C473 C 0.30746 0.62744 0.7573 0.0
H474 H 0.31262 0.73223 0.75444 0.0
C475 C 0.26147 0.60001 0.76641 0.0
H476 H 0.3608 0.69775 0.74698 0.0
C477 C 0.2338 0.62021 0.77111 0.0
C478 C 0.25162 0.66787 0.76629 0.0
H479 H 0.24671 0.56296 0.76947 0.0
H480 H 0.1981 0.59838 0.77733 0.0
C481 C 0.2979 0.69529 0.75809 0.0
C482 C 0.51342 0.71124 0.80446 0.0
C483 C 0.47351 0.71169 0.81313 0.0
H484 H 0.53908 0.66994 0.78652 0.0
C485 C 0.43499 0.66984 0.82154 0.0
H486 H 0.54403 0.74322 0.7984 0.0
C487 C 0.43277 0.6277 0.81558 0.0
C488 C 0.46766 0.62765 0.79935 0.0
H489 H 0.40417 0.66941 0.829 0.0
H490 H 0.39995 0.59617 0.81864 0.0
C491 C 0.51063 0.66899 0.79778 0.0
C492 C 0.51746 0.65691 0.52011 0.0
C493 C 0.51937 0.69986 0.51603 0.0
H494 H 0.47826 0.58366 0.51382 0.0
C495 C 0.49461 0.70407 0.49399 0.0
H496 H 0.53727 0.65263 0.53626 0.0
C497 C 0.46056 0.66426 0.48104 0.0
C498 C 0.45114 0.62001 0.48997 0.0
H499 H 0.49635 0.73691 0.48953 0.0
H500 H 0.4373 0.66786 0.46709 0.0
C501 C 0.48346 0.61709 0.50711 0.0
C502 C 0.2931 0.68996 0.57506 0.0
C503 C 0.2731 0.65237 0.59354 0.0
H504 H 0.35571 0.74533 0.55798 0.0
C505 C 0.30218 0.64345 0.61019 0.0
H506 H 0.27166 0.69781 0.56198 0.0
C507 C 0.35006 0.6705 0.60787 0.0
C508 C 0.37015 0.70721 0.58888 0.0
H509 H 0.28804 0.61492 0.62474 0.0
H510 H 0.37133 0.66223 0.62082 0.0
C511 C 0.34123 0.71722 0.5728 0.0
C512 C 0.17508 0.42693 0.54 0.0
C513 C 0.18895 0.45169 0.51518 0.0
H514 H 0.13774 0.41684 0.57728 0.0
C515 C 0.16171 0.46929 0.50428 0.0
H516 H 0.19491 0.41231 0.54877 0.0
C517 C 0.12864 0.47179 0.52063 0.0
C518 C 0.12309 0.45729 0.54811 0.0
H519 H 0.17098 0.48773 0.4849 0.0
H520 H 0.11302 0.49151 0.51307 0.0
C521 C 0.14229 0.42985 0.55651 0.0
C522 C 0.17263 0.07342 0.95342 0.0
C523 C 0.18599 0.10578 0.97464 0.0
H524 H 0.15151 0.05742 0.91192 0.0
C525 C 0.19236 0.1502 0.96875 0.0
H526 H 0.16769 0.03912 0.95713 0.0
C527 C 0.18372 0.16108 0.9424 0.0
C528 C 0.16754 0.12735 0.92181 0.0
H529 H 0.20247 0.17592 0.98465 0.0
H530 H 0.18802 0.19514 0.93842 0.0
C531 C 0.16296 0.0838 0.92752 0.0
C532 C 0.79608 0.07828 0.00443 0.0
C533 C 0.78463 0.0552 0.97928 0.0
H534 H 0.79505 0.0712 0.04781 0.0
C535 C 0.75176 0.00749 0.97898 0.0
H536 H 0.8204 0.11519 0.00539 0.0
C537 C 0.73775 0.98199 0.00336 0.0
C538 C 0.75584 0.00403 0.02836 0.0
H539 H 0.74109 0.98873 0.95994 0.0
H540 H 0.71695 0.94452 0.00232 0.0
C541 C 0.78148 0.05288 0.02883 0.0
C542 C 0.03282 0.84933 0.01867 0.0
C543 C 0.07396 0.89094 0.01269 0.0
H544 H 0.98183 0.80868 0.04918 0.0
C545 C 0.09625 0.92264 0.03382 0.0
H546 H 0.01466 0.82421 0.00281 0.0
C547 C 0.07675 0.91457 0.05982 0.0
C548 C 0.03501 0.87392 0.06566 0.0
H549 H 0.12797 0.95478 0.02995 0.0
H550 H 0.09435 0.94038 0.07542 0.0
C551 C 0.01379 0.84062 0.04509 0.0
C552 C 0.79815 0.49505 0.349 0.0
C553 C 0.76067 0.50261 0.34447 0.0
H554 H 0.83239 0.47246 0.37736 0.0
C555 C 0.7301 0.49509 0.36616 0.0
H556 H 0.82227 0.50031 0.33269 0.0
C557 C 0.735 0.4777 0.39112 0.0
C558 C 0.77116 0.46842 0.39539 0.0
H559 H 0.70112 0.50084 0.36354 0.0
H560 H 0.71039 0.47142 0.40725 0.0
C561 C 0.80365 0.47857 0.37441 0.0
C562 C 0.57482 0.40839 0.26493 0.0
C563 C 0.53251 0.36895 0.25874 0.0
H564 H 0.61803 0.455 0.29556 0.0
C565 C 0.49922 0.34761 0.27951 0.0
H566 H 0.60062 0.42627 0.24918 0.0
C567 C 0.50946 0.36389 0.30642 0.0
C568 C 0.55284 0.40222 0.31276 0.0
H569 H 0.46605 0.31743 0.27516 0.0
H570 H 0.48421 0.34542 0.32235 0.0
C571 C 0.58464 0.42507 0.2915 0.0
C572 C 0.67553 0.07699 0.32991 0.0
C573 C 0.64998 0.06723 0.3543 0.0
H574 H 0.67484 0.08333 0.2865 0.0
C575 C 0.60141 0.04344 0.35283 0.0
H576 H 0.71294 0.09434 0.3303 0.0
C577 C 0.5795 0.03754 0.32767 0.0
C578 C 0.60584 0.05484 0.30364 0.0
H579 H 0.58051 0.03439 0.37121 0.0
H580 H 0.5425 0.02412 0.32746 0.0
C581 C 0.65356 0.07063 0.30472 0.0
C582 C 0.53329 0.86592 0.65429 0.0
C583 C 0.5592 0.84369 0.64949 0.0
H584 H 0.49693 0.88295 0.68402 0.0
C585 C 0.57836 0.83263 0.67193 0.0
H586 H 0.51789 0.87483 0.63753 0.0
C587 C 0.56699 0.83829 0.6986 0.0
C588 C 0.53611 0.8547 0.7031 0.0
H589 H 0.59848 0.81554 0.66891 0.0
H590 H 0.57848 0.8254 0.71551 0.0
C591 C 0.52113 0.87057 0.68092 0.0
C592 C 0.07325 0.58691 0.68573 0.0
C593 C 0.07929 0.60108 0.65824 0.0
H594 H 0.08074 0.60799 0.72738 0.0
C595 C 0.08654 0.64565 0.65183 0.0
H596 H 0.06684 0.55259 0.69136 0.0
C597 C 0.09535 0.67781 0.6725 0.0
C598 C 0.09615 0.6656 0.6999 0.0
H599 H 0.09053 0.65753 0.63083 0.0
H600 H 0.1059 0.71332 0.66684 0.0
C601 C 0.0812 0.61884 0.70642 0.0
C602 C 0.35061 0.49723 0.61691 0.0
C603 C 0.36288 0.53424 0.59846 0.0
H604 H 0.35083 0.47691 0.65864 0.0
C605 C 0.38814 0.57993 0.60789 0.0
H606 H 0.33118 0.46162 0.61007 0.0
C607 C 0.40031 0.58863 0.63529 0.0
C608 C 0.38664 0.55181 0.65409 0.0
H609 H 0.39858 0.60911 0.59405 0.0
H610 H 0.41922 0.62444 0.64183 0.0
C611 C 0.36191 0.50594 0.64462 0.0
loop_
_geom_bond_atom_site_label_1
_geom_bond_atom_site_label_2
_geom_bond_distance
_geom_bond_site_symmetry_2
_ccdc_geom_bond_type
Zn0 O3 2.031 . S
Zn0 O5 2.049 . S
Zn0 O10 2.067 . S
Zn1 O2 1.962 . S
Zn1 O4 1.986 . S
Zn1 O6 1.996 . S
Zn1 O9 1.943 . S
O2 Zn1 1.962 . S
O2 C7 1.254 . S
O3 Zn0 2.031 . S
O3 C7 1.269 . S
O4 Zn1 1.986 . S
O4 C11 1.262 . S
O5 Zn0 2.049 . S
O5 C13 1.260 . S
O6 Zn1 1.996 . S
O6 C13 1.257 . S
C7 O2 1.254 . S
C7 O3 1.269 . S
C8 O9 1.249 . S
C8 O10 1.270 . S
O9 Zn1 1.943 . S
O9 C8 1.249 . S
O10 Zn0 2.067 . S
O10 C8 1.270 . S
C11 O4 1.262 . S
C11 O12 1.232 . S
O12 C11 1.232 . S
C13 O5 1.260 . S
C13 O6 1.257 . S
Zn14 O17 2.031 1_565 S
Zn14 O19 2.049 . S
Zn14 O24 2.067 . S
Zn15 O16 1.962 . S
Zn15 O18 1.986 . S
Zn15 O20 1.996 . S
Zn15 O23 1.943 1_545 S
O16 Zn15 1.962 . S
O16 C21 1.254 . S
O17 Zn14 2.031 1_545 S
O17 C21 1.269 . S
O18 Zn15 1.986 . S
O18 C25 1.262 . S
O19 Zn14 2.049 . S
O19 C27 1.260 . S
O20 Zn15 1.996 . S
O20 C27 1.257 1_545 S
C21 O16 1.254 . S
C21 O17 1.269 . S
C22 O23 1.249 . S
C22 O24 1.270 . S
O23 Zn15 1.943 1_565 S
O23 C22 1.249 . S
O24 Zn14 2.067 . S
O24 C22 1.270 . S
C25 O18 1.262 . S
C25 O26 1.232 . S
O26 C25 1.232 . S
C27 O19 1.260 . S
C27 O20 1.257 1_565 S
Zn28 O31 2.031 1_455 S
Zn28 O33 2.049 . S
Zn28 O38 2.067 . S
Zn29 O30 1.962 . S
Zn29 O32 1.986 . S
Zn29 O34 1.996 . S
Zn29 O37 1.943 1_655 S
O30 Zn29 1.962 . S
O30 C35 1.254 . S
O31 Zn28 2.031 1_655 S
O31 C35 1.269 . S
O32 Zn29 1.986 . S
O32 C39 1.262 . S
O33 Zn28 2.049 . S
O33 C41 1.260 . S
O34 Zn29 1.996 . S
O34 C41 1.257 1_655 S
C35 O30 1.254 . S
C35 O31 1.269 . S
C36 O37 1.249 . S
C36 O38 1.270 . S
O37 Zn29 1.943 1_455 S
O37 C36 1.249 . S
O38 Zn28 2.067 . S
O38 C36 1.270 . S
C39 O32 1.262 . S
C39 O40 1.232 . S
O40 C39 1.232 . S
C41 O33 1.260 . S
C41 O34 1.257 1_455 S
Zn42 O45 2.031 . S
Zn42 O47 2.049 . S
Zn42 O52 2.067 . S
Zn43 O44 1.962 . S
Zn43 O46 1.986 . S
Zn43 O48 1.996 . S
Zn43 O51 1.943 . S
O44 Zn43 1.962 . S
O44 C49 1.254 . S
O45 Zn42 2.031 . S
O45 C49 1.269 . S
O46 Zn43 1.986 . S
O46 C53 1.262 . S
O47 Zn42 2.049 . S
O47 C55 1.260 . S
O48 Zn43 1.996 . S
O48 C55 1.257 . S
C49 O44 1.254 . S
C49 O45 1.269 . S
C50 O51 1.249 . S
C50 O52 1.270 . S
O51 Zn43 1.943 . S
O51 C50 1.249 . S
O52 Zn42 2.067 . S
O52 C50 1.270 . S
C53 O46 1.262 . S
C53 O54 1.232 . S
O54 C53 1.232 . S
C55 O47 1.260 . S
C55 O48 1.257 . S
Zn56 O59 2.031 1_545 S
Zn56 O61 2.049 . S
Zn56 O66 2.067 . S
Zn57 O58 1.962 . S
Zn57 O60 1.986 . S
Zn57 O62 1.996 . S
Zn57 O65 1.943 1_565 S
O58 Zn57 1.962 . S
O58 C63 1.254 . S
O59 Zn56 2.031 1_565 S
O59 C63 1.269 . S
O60 Zn57 1.986 . S
O60 C67 1.262 . S
O61 Zn56 2.049 . S
O61 C69 1.260 . S
O62 Zn57 1.996 . S
O62 C69 1.257 1_565 S
C63 O58 1.254 . S
C63 O59 1.269 . S
C64 O65 1.249 . S
C64 O66 1.270 . S
O65 Zn57 1.943 1_545 S
O65 C64 1.249 . S
O66 Zn56 2.067 . S
O66 C64 1.270 . S
C67 O60 1.262 . S
C67 O68 1.232 . S
O68 C67 1.232 . S
C69 O61 1.260 . S
C69 O62 1.257 1_545 S
Zn70 O73 2.031 1_655 S
Zn70 O75 2.049 . S
Zn70 O80 2.067 . S
Zn71 O72 1.962 . S
Zn71 O74 1.986 . S
Zn71 O76 1.996 . S
Zn71 O79 1.943 1_455 S
O72 Zn71 1.962 . S
O72 C77 1.254 . S
O73 Zn70 2.031 1_455 S
O73 C77 1.269 . S
O74 Zn71 1.986 . S
O74 C81 1.262 . S
O75 Zn70 2.049 . S
O75 C83 1.260 . S
O76 Zn71 1.996 . S
O76 C83 1.257 1_455 S
C77 O72 1.254 . S
C77 O73 1.269 . S
C78 O79 1.249 . S
C78 O80 1.270 . S
O79 Zn71 1.943 1_655 S
O79 C78 1.249 . S
O80 Zn70 2.067 . S
O80 C78 1.270 . S
C81 O74 1.262 . S
C81 O82 1.232 . S
O82 C81 1.232 . S
C83 O75 1.260 . S
C83 O76 1.257 1_655 S
Zn84 O87 2.031 . S
Zn84 O89 2.049 . S
Zn84 O94 2.067 . S
Zn85 O86 1.962 . S
Zn85 O88 1.986 . S
Zn85 O90 1.996 . S
Zn85 O93 1.943 . S
O86 Zn85 1.962 . S
O86 C91 1.254 . S
O87 Zn84 2.031 . S
O87 C91 1.269 . S
O88 Zn85 1.986 . S
O88 C95 1.262 . S
O89 Zn84 2.049 . S
O89 C97 1.260 . S
O90 Zn85 1.996 . S
O90 C97 1.257 . S
C91 O86 1.254 . S
C91 O87 1.269 . S
C92 O93 1.249 . S
C92 O94 1.270 . S
O93 Zn85 1.943 . S
O93 C92 1.249 . S
O94 Zn84 2.067 . S
O94 C92 1.270 . S
C95 O88 1.262 . S
C95 O96 1.232 . S
O96 C95 1.232 . S
C97 O89 1.260 . S
C97 O90 1.257 . S
Zn98 O101 2.031 . S
Zn98 O103 2.049 . S
Zn98 O108 2.067 . S
Zn99 O100 1.962 . S
Zn99 O102 1.986 . S
Zn99 O104 1.996 . S
Zn99 O107 1.943 . S
O100 Zn99 1.962 . S
O100 C105 1.254 . S
O101 Zn98 2.031 . S
O101 C105 1.269 . S
O102 Zn99 1.986 . S
O102 C109 1.262 . S
O103 Zn98 2.049 . S
O103 C111 1.260 . S
O104 Zn99 1.996 . S
O104 C111 1.257 . S
C105 O100 1.254 . S
C105 O101 1.269 . S
C106 O107 1.249 . S
C106 O108 1.270 . S
O107 Zn99 1.943 . S
O107 C106 1.249 . S
O108 Zn98 2.067 . S
O108 C106 1.270 . S
C109 O102 1.262 . S
C109 O110 1.232 . S
O110 C109 1.232 . S
C111 O103 1.260 . S
C111 O104 1.257 . S
Zn112 O115 2.031 . S
Zn112 O117 2.049 . S
Zn112 O122 2.067 . S
Zn113 O114 1.962 . S
Zn113 O116 1.986 . S
Zn113 O118 1.996 . S
Zn113 O121 1.943 . S
O114 Zn113 1.962 . S
O114 C119 1.254 . S
O115 Zn112 2.031 . S
O115 C119 1.269 . S
O116 Zn113 1.986 . S
O116 C123 1.262 . S
O117 Zn112 2.049 . S
O117 C125 1.260 . S
O118 Zn113 1.996 . S
O118 C125 1.257 . S
C119 O114 1.254 . S
C119 O115 1.269 . S
C120 O121 1.249 . S
C120 O122 1.270 . S
O121 Zn113 1.943 . S
O121 C120 1.249 . S
O122 Zn112 2.067 . S
O122 C120 1.270 . S
C123 O116 1.262 . S
C123 O124 1.232 . S
O124 C123 1.232 . S
C125 O117 1.260 . S
C125 O118 1.257 . S
Zn126 O129 2.031 . S
Zn126 O131 2.049 . S
Zn126 O136 2.067 . S
Zn127 O128 1.962 . S
Zn127 O130 1.986 . S
Zn127 O132 1.996 . S
Zn127 O135 1.943 . S
O128 Zn127 1.962 . S
O128 C133 1.254 . S
O129 Zn126 2.031 . S
O129 C133 1.269 . S
O130 Zn127 1.986 . S
O130 C137 1.262 . S
O131 Zn126 2.049 . S
O131 C139 1.260 . S
O132 Zn127 1.996 . S
O132 C139 1.257 . S
C133 O128 1.254 . S
C133 O129 1.269 . S
C134 O135 1.249 . S
C134 O136 1.270 . S
O135 Zn127 1.943 . S
O135 C134 1.249 . S
O136 Zn126 2.067 . S
O136 C134 1.270 . S
C137 O130 1.262 . S
C137 O138 1.232 . S
O138 C137 1.232 . S
C139 O131 1.260 . S
C139 O132 1.257 . S
Zn140 O143 2.031 . S
Zn140 O145 2.049 . S
Zn140 O150 2.067 . S
Zn141 O142 1.962 . S
Zn141 O144 1.986 . S
Zn141 O146 1.996 . S
Zn141 O149 1.943 . S
O142 Zn141 1.962 . S
O142 C147 1.254 . S
O143 Zn140 2.031 . S
O143 C147 1.269 . S
O144 Zn141 1.986 . S
O144 C151 1.262 . S
O145 Zn140 2.049 . S
O145 C153 1.260 . S
O146 Zn141 1.996 . S
O146 C153 1.257 . S
C147 O142 1.254 . S
C147 O143 1.269 . S
C148 O149 1.249 . S
C148 O150 1.270 . S
O149 Zn141 1.943 . S
O149 C148 1.249 . S
O150 Zn140 2.067 . S
O150 C148 1.270 . S
C151 O144 1.262 . S
C151 O152 1.232 . S
O152 C151 1.232 . S
C153 O145 1.260 . S
C153 O146 1.257 . S
Zn154 O157 2.031 . S
Zn154 O159 2.049 . S
Zn154 O164 2.067 . S
Zn155 O156 1.962 . S
Zn155 O158 1.986 . S
Zn155 O160 1.996 . S
Zn155 O163 1.943 . S
O156 Zn155 1.962 . S
O156 C161 1.254 . S
O157 Zn154 2.031 . S
O157 C161 1.269 . S
O158 Zn155 1.986 . S
O158 C165 1.262 . S
O159 Zn154 2.049 . S
O159 C167 1.260 . S
O160 Zn155 1.996 . S
O160 C167 1.257 . S
C161 O156 1.254 . S
C161 O157 1.269 . S
C162 O163 1.249 . S
C162 O164 1.270 . S
O163 Zn155 1.943 . S
O163 C162 1.249 . S
O164 Zn154 2.067 . S
O164 C162 1.270 . S
C165 O158 1.262 . S
C165 O166 1.232 . S
O166 C165 1.232 . S
C167 O159 1.260 . S
C167 O160 1.257 . S
Zn168 O171 2.031 . S
Zn168 O173 2.049 . S
Zn168 O178 2.067 . S
Zn169 O170 1.962 . S
Zn169 O172 1.986 . S
Zn169 O174 1.996 . S
Zn169 O177 1.943 . S
O170 Zn169 1.962 . S
O170 C175 1.254 . S
O171 Zn168 2.031 . S
O171 C175 1.269 . S
O172 Zn169 1.986 . S
O172 C179 1.262 . S
O173 Zn168 2.049 . S
O173 C181 1.260 . S
O174 Zn169 1.996 . S
O174 C181 1.257 . S
C175 O170 1.254 . S
C175 O171 1.269 . S
C176 O177 1.249 . S
C176 O178 1.270 . S
O177 Zn169 1.943 . S
O177 C176 1.249 . S
O178 Zn168 2.067 . S
O178 C176 1.270 . S
C179 O172 1.262 . S
C179 O180 1.232 . S
O180 C179 1.232 . S
C181 O173 1.260 . S
C181 O174 1.257 . S
Zn182 O185 2.031 . S
Zn182 O187 2.049 . S
Zn182 O192 2.067 . S
Zn183 O184 1.962 . S
Zn183 O186 1.986 . S
Zn183 O188 1.996 . S
Zn183 O191 1.943 . S
O184 Zn183 1.962 . S
O184 C189 1.254 . S
O185 Zn182 2.031 . S
O185 C189 1.269 . S
O186 Zn183 1.986 . S
O186 C193 1.262 . S
O187 Zn182 2.049 . S
O187 C195 1.260 . S
O188 Zn183 1.996 . S
O188 C195 1.257 . S
C189 O184 1.254 . S
C189 O185 1.269 . S
C190 O191 1.249 . S
C190 O192 1.270 . S
O191 Zn183 1.943 . S
O191 C190 1.249 . S
O192 Zn182 2.067 . S
O192 C190 1.270 . S
C193 O186 1.262 . S
C193 O194 1.232 . S
O194 C193 1.232 . S
C195 O187 1.260 . S
C195 O188 1.257 . S
Zn196 O199 2.031 . S
Zn196 O201 2.049 . S
Zn196 O206 2.067 . S
Zn197 O198 1.962 . S
Zn197 O200 1.986 . S
Zn197 O202 1.996 . S
Zn197 O205 1.943 . S
O198 Zn197 1.962 . S
O198 C203 1.254 . S
O199 Zn196 2.031 . S
O199 C203 1.269 . S
O200 Zn197 1.986 . S
O200 C207 1.262 . S
O201 Zn196 2.049 . S
O201 C209 1.260 . S
O202 Zn197 1.996 . S
O202 C209 1.257 . S
C203 O198 1.254 . S
C203 O199 1.269 . S
C204 O205 1.249 . S
C204 O206 1.270 . S
O205 Zn197 1.943 . S
O205 C204 1.249 . S
O206 Zn196 2.067 . S
O206 C204 1.270 . S
C207 O200 1.262 . S
C207 O208 1.232 . S
O208 C207 1.232 . S
C209 O201 1.260 . S
C209 O202 1.257 . S
Zn210 O213 2.031 . S
Zn210 O215 2.049 . S
Zn210 O220 2.067 . S
Zn211 O212 1.962 . S
Zn211 O214 1.986 . S
Zn211 O216 1.996 . S
Zn211 O219 1.943 . S
O212 Zn211 1.962 . S
O212 C217 1.254 . S
O213 Zn210 2.031 . S
O213 C217 1.269 . S
O214 Zn211 1.986 . S
O214 C221 1.262 . S
O215 Zn210 2.049 . S
O215 C223 1.260 . S
O216 Zn211 1.996 . S
O216 C223 1.257 . S
C217 O212 1.254 . S
C217 O213 1.269 . S
C218 O219 1.249 . S
C218 O220 1.270 . S
O219 Zn211 1.943 . S
O219 C218 1.249 . S
O220 Zn210 2.067 . S
O220 C218 1.270 . S
C221 O214 1.262 . S
C221 O222 1.232 . S
O222 C221 1.232 . S
C223 O215 1.260 . S
C223 O216 1.257 . S
Zn224 O227 2.031 . S
Zn224 O229 2.049 . S
Zn224 O234 2.067 . S
Zn225 O226 1.962 . S
Zn225 O228 1.986 . S
Zn225 O230 1.996 . S
Zn225 O233 1.943 . S
O226 Zn225 1.962 . S
O226 C231 1.254 . S
O227 Zn224 2.031 . S
O227 C231 1.269 . S
O228 Zn225 1.986 . S
O228 C235 1.262 . S
O229 Zn224 2.049 . S
O229 C237 1.260 . S
O230 Zn225 1.996 . S
O230 C237 1.257 . S
C231 O226 1.254 . S
C231 O227 1.269 . S
C232 O233 1.249 . S
C232 O234 1.270 . S
O233 Zn225 1.943 . S
O233 C232 1.249 . S
O234 Zn224 2.067 . S
O234 C232 1.270 . S
C235 O228 1.262 . S
C235 O236 1.232 . S
O236 C235 1.232 . S
C237 O229 1.260 . S
C237 O230 1.257 . S
Zn238 O241 2.031 . S
Zn238 O243 2.049 . S
Zn238 O248 2.067 . S
Zn239 O240 1.962 . S
Zn239 O242 1.986 . S
Zn239 O244 1.996 . S
Zn239 O247 1.943 . S
O240 Zn239 1.962 . S
O240 C245 1.254 . S
O241 Zn238 2.031 . S
O241 C245 1.269 . S
O242 Zn239 1.986 . S
O242 C249 1.262 . S
O243 Zn238 2.049 . S
O243 C251 1.260 . S
O244 Zn239 1.996 . S
O244 C251 1.257 . S
C245 O240 1.254 . S
C245 O241 1.269 . S
C246 O247 1.249 . S
C246 O248 1.270 . S
O247 Zn239 1.943 . S
O247 C246 1.249 . S
O248 Zn238 2.067 . S
O248 C246 1.270 . S
C249 O242 1.262 . S
C249 O250 1.232 . S
O250 C249 1.232 . S
C251 O243 1.260 . S
C251 O244 1.257 . S
C252 C253 1.387 . S
C252 H256 0.950 . S
C252 C261 1.390 . S
C253 C252 1.387 . S
C253 C255 1.387 . S
H254 C261 0.950 . S
C255 C253 1.387 . S
C255 C257 1.390 . S
C255 H259 0.950 . S
H256 C252 0.950 . S
C257 C255 1.390 . S
C257 C258 1.387 . S
C257 H260 0.950 . S
C258 C257 1.387 . S
C258 C261 1.387 . S
H259 C255 0.950 . S
H260 C257 0.950 . S
C261 C252 1.390 . S
C261 H254 0.950 . S
C261 C258 1.387 . S
C262 C263 1.387 . S
C262 H266 0.950 . S
C262 C271 1.390 . S
C263 C262 1.387 . S
C263 C265 1.387 . S
H264 C271 0.950 . S
C265 C263 1.387 . S
C265 C267 1.390 . S
C265 H269 0.950 . S
H266 C262 0.950 . S
C267 C265 1.390 . S
C267 C268 1.387 . S
C267 H270 0.950 . S
C268 C267 1.387 . S
C268 C271 1.387 . S
H269 C265 0.950 . S
H270 C267 0.950 . S
C271 C262 1.390 . S
C271 H264 0.950 . S
C271 C268 1.387 . S
C272 C273 1.387 . S
C272 H276 0.950 . S
C272 C281 1.390 . S
C273 C272 1.387 . S
C273 C275 1.387 . S
H274 C281 0.950 . S
C275 C273 1.387 . S
C275 C277 1.390 . S
C275 H279 0.950 . S
H276 C272 0.950 . S
C277 C275 1.390 . S
C277 C278 1.387 . S
C277 H280 0.950 1_655 S
C278 C277 1.387 . S
C278 C281 1.387 . S
H279 C275 0.950 . S
H280 C277 0.950 1_455 S
C281 C272 1.390 . S
C281 H274 0.950 . S
C281 C278 1.387 . S
C282 C283 1.387 . S
C282 H286 0.950 . S
C282 C291 1.390 . S
C283 C282 1.387 . S
C283 C285 1.387 . S
H284 C291 0.950 . S
C285 C283 1.387 . S
C285 C287 1.390 . S
C285 H289 0.950 . S
H286 C282 0.950 . S
C287 C285 1.390 . S
C287 C288 1.387 . S
C287 H290 0.950 . S
C288 C287 1.387 . S
C288 C291 1.387 . S
H289 C285 0.950 . S
H290 C287 0.950 . S
C291 C282 1.390 . S
C291 H284 0.950 . S
C291 C288 1.387 . S
C292 C293 1.387 . S
C292 H296 0.950 . S
C292 C301 1.390 . S
C293 C292 1.387 . S
C293 C295 1.387 . S
H294 C301 0.950 . S
C295 C293 1.387 . S
C295 C297 1.390 . S
C295 H299 0.950 1_565 S
H296 C292 0.950 . S
C297 C295 1.390 . S
C297 C298 1.387 . S
C297 H300 0.950 . S
C298 C297 1.387 . S
C298 C301 1.387 . S
H299 C295 0.950 1_545 S
H300 C297 0.950 . S
C301 C292 1.390 . S
C301 H294 0.950 . S
C301 C298 1.387 . S
C302 C303 1.387 . S
C302 H306 0.950 . S
C302 C311 1.390 . S
C303 C302 1.387 . S
C303 C305 1.387 . S
H304 C311 0.950 . S
C305 C303 1.387 . S
C305 C307 1.390 . S
C305 H309 0.950 . S
H306 C302 0.950 . S
C307 C305 1.390 . S
C307 C308 1.387 . S
C307 H310 0.950 . S
C308 C307 1.387 . S
C308 C311 1.387 . S
H309 C305 0.950 . S
H310 C307 0.950 . S
C311 C302 1.390 . S
C311 H304 0.950 . S
C311 C308 1.387 . S
C312 C313 1.387 . S
C312 H316 0.950 . S
C312 C321 1.390 1_655 S
C313 C312 1.387 . S
C313 C315 1.387 . S
H314 C321 0.950 . S
C315 C313 1.387 . S
C315 C317 1.390 1_655 S
C315 H319 0.950 . S
H316 C312 0.950 . S
C317 C315 1.390 1_455 S
C317 C318 1.387 . S
C317 H320 0.950 . S
C318 C317 1.387 . S
C318 C321 1.387 . S
H319 C315 0.950 . S
H320 C317 0.950 . S
C321 C312 1.390 1_455 S
C321 H314 0.950 . S
C321 C318 1.387 . S
C322 C323 1.387 . S
C322 H326 0.950 . S
C322 C331 1.390 . S
C323 C322 1.387 . S
C323 C325 1.387 . S
H324 C331 0.950 . S
C325 C323 1.387 . S
C325 C327 1.390 . S
C325 H329 0.950 . S
H326 C322 0.950 . S
C327 C325 1.390 . S
C327 C328 1.387 . S
C327 H330 0.950 . S
C328 C327 1.387 . S
C328 C331 1.387 . S
H329 C325 0.950 . S
H330 C327 0.950 . S
C331 C322 1.390 . S
C331 H324 0.950 . S
C331 C328 1.387 . S
C332 C333 1.387 . S
C332 H336 0.950 . S
C332 C341 1.390 1_545 S
C333 C332 1.387 . S
C333 C335 1.387 . S
H334 C341 0.950 . S
C335 C333 1.387 . S
C335 C337 1.390 1_545 S
C335 H339 0.950 . S
H336 C332 0.950 . S
C337 C335 1.390 1_565 S
C337 C338 1.387 . S
C337 H340 0.950 . S
C338 C337 1.387 . S
C338 C341 1.387 . S
H339 C335 0.950 . S
H340 C337 0.950 . S
C341 C332 1.390 1_565 S
C341 H334 0.950 . S
C341 C338 1.387 . S
C342 C343 1.387 . S
C342 H346 0.950 . S
C342 C351 1.390 1_455 S
C343 C342 1.387 . S
C343 C345 1.387 . S
H344 C351 0.950 . S
C345 C343 1.387 . S
C345 C347 1.390 1_455 S
C345 H349 0.950 . S
H346 C342 0.950 . S
C347 C345 1.390 1_655 S
C347 C348 1.387 . S
C347 H350 0.950 . S
C348 C347 1.387 . S
C348 C351 1.387 . S
H349 C345 0.950 . S
H350 C347 0.950 . S
C351 C342 1.390 1_655 S
C351 H344 0.950 . S
C351 C348 1.387 . S
C352 C353 1.387 . S
C352 H356 0.950 . S
C352 C361 1.390 . S
C353 C352 1.387 . S
C353 C355 1.387 . S
H354 C361 0.950 . S
C355 C353 1.387 . S
C355 C357 1.390 . S
C355 H359 0.950 . S
H356 C352 0.950 . S
C357 C355 1.390 . S
C357 C358 1.387 . S
C357 H360 0.950 . S
C358 C357 1.387 . S
C358 C361 1.387 . S
H359 C355 0.950 . S
H360 C357 0.950 . S
C361 C352 1.390 . S
C361 H354 0.950 . S
C361 C358 1.387 . S
C362 C363 1.387 . S
C362 H366 0.950 . S
C362 C371 1.390 1_545 S
C363 C362 1.387 . S
C363 C365 1.387 . S
H364 C371 0.950 . S
C365 C363 1.387 . S
C365 C367 1.390 1_545 S
C365 H369 0.950 . S
H366 C362 0.950 . S
C367 C365 1.390 1_565 S
C367 C368 1.387 . S
C367 H370 0.950 . S
C368 C367 1.387 . S
C368 C371 1.387 . S
H369 C365 0.950 . S
H370 C367 0.950 . S
C371 C362 1.390 1_565 S
C371 H364 0.950 . S
C371 C368 1.387 . S
C372 C373 1.387 . S
C372 H376 0.950 . S
C372 C381 1.390 1_565 S
C373 C372 1.387 . S
C373 C375 1.387 . S
H374 C381 0.950 . S
C375 C373 1.387 . S
C375 C377 1.390 1_565 S
C375 H379 0.950 . S
H376 C372 0.950 . S
C377 C375 1.390 1_545 S
C377 C378 1.387 . S
C377 H380 0.950 . S
C378 C377 1.387 . S
C378 C381 1.387 . S
H379 C375 0.950 . S
H380 C377 0.950 . S
C381 C372 1.390 1_545 S
C381 H374 0.950 . S
C381 C378 1.387 . S
C382 C383 1.387 . S
C382 H386 0.950 . S
C382 C391 1.390 1_455 S
C383 C382 1.387 . S
C383 C385 1.387 . S
H384 C391 0.950 . S
C385 C383 1.387 . S
C385 C387 1.390 1_455 S
C385 H389 0.950 . S
H386 C382 0.950 . S
C387 C385 1.390 1_655 S
C387 C388 1.387 . S
C387 H390 0.950 . S
C388 C387 1.387 . S
C388 C391 1.387 . S
H389 C385 0.950 . S
H390 C387 0.950 . S
C391 C382 1.390 1_655 S
C391 H384 0.950 . S
C391 C388 1.387 . S
C392 C393 1.387 . S
C392 H396 0.950 . S
C392 C401 1.390 . S
C393 C392 1.387 . S
C393 C395 1.387 . S
H394 C401 0.950 . S
C395 C393 1.387 . S
C395 C397 1.390 . S
C395 H399 0.950 . S
H396 C392 0.950 . S
C397 C395 1.390 . S
C397 C398 1.387 . S
C397 H400 0.950 . S
C398 C397 1.387 . S
C398 C401 1.387 . S
H399 C395 0.950 . S
H400 C397 0.950 . S
C401 C392 1.390 . S
C401 H394 0.950 . S
C401 C398 1.387 . S
C402 C403 1.387 . S
C402 H406 0.950 . S
C402 C411 1.390 . S
C403 C402 1.387 . S
C403 C405 1.387 . S
H404 C411 0.950 . S
C405 C403 1.387 . S
C405 C407 1.390 . S
C405 H409 0.950 . S
H406 C402 0.950 . S
C407 C405 1.390 . S
C407 C408 1.387 . S
C407 H410 0.950 . S
C408 C407 1.387 . S
C408 C411 1.387 . S
H409 C405 0.950 . S
H410 C407 0.950 . S
C411 C402 1.390 . S
C411 H404 0.950 . S
C411 C408 1.387 . S
C412 C413 1.387 . S
C412 H416 0.950 . S
C412 C421 1.390 . S
C413 C412 1.387 . S
C413 C415 1.387 . S
H414 C421 0.950 . S
C415 C413 1.387 . S
C415 C417 1.390 . S
C415 H419 0.950 . S
H416 C412 0.950 . S
C417 C415 1.390 . S
C417 C418 1.387 . S
C417 H420 0.950 . S
C418 C417 1.387 . S
C418 C421 1.387 . S
H419 C415 0.950 . S
H420 C417 0.950 . S
C421 C412 1.390 . S
C421 H414 0.950 . S
C421 C418 1.387 . S
C422 C423 1.387 . S
C422 H426 0.950 . S
C422 C431 1.390 . S
C423 C422 1.387 . S
C423 C425 1.387 . S
H424 C431 0.950 . S
C425 C423 1.387 . S
C425 C427 1.390 . S
C425 H429 0.950 . S
H426 C422 0.950 . S
C427 C425 1.390 . S
C427 C428 1.387 . S
C427 H430 0.950 . S
C428 C427 1.387 . S
C428 C431 1.387 . S
H429 C425 0.950 . S
H430 C427 0.950 . S
C431 C422 1.390 . S
C431 H424 0.950 . S
C431 C428 1.387 . S
C432 C433 1.387 . S
C432 H436 0.950 . S
C432 C441 1.390 . S
C433 C432 1.387 . S
C433 C435 1.387 . S
H434 C441 0.950 . S
C435 C433 1.387 . S
C435 C437 1.390 . S
C435 H439 0.950 . S
H436 C432 0.950 . S
C437 C435 1.390 . S
C437 C438 1.387 . S
C437 H440 0.950 . S
C438 C437 1.387 . S
C438 C441 1.387 . S
H439 C435 0.950 . S
H440 C437 0.950 . S
C441 C432 1.390 . S
C441 H434 0.950 . S
C441 C438 1.387 . S
C442 C443 1.387 . S
C442 H446 0.950 . S
C442 C451 1.390 . S
C443 C442 1.387 . S
C443 C445 1.387 . S
H444 C451 0.950 . S
C445 C443 1.387 . S
C445 C447 1.390 . S
C445 H449 0.950 . S
H446 C442 0.950 . S
C447 C445 1.390 . S
C447 C448 1.387 . S
C447 H450 0.950 . S
C448 C447 1.387 . S
C448 C451 1.387 . S
H449 C445 0.950 . S
H450 C447 0.950 . S
C451 C442 1.390 . S
C451 H444 0.950 . S
C451 C448 1.387 . S
C452 C453 1.387 . S
C452 H456 0.950 . S
C452 C461 1.390 . S
C453 C452 1.387 . S
C453 C455 1.387 . S
H454 C461 0.950 . S
C455 C453 1.387 . S
C455 C457 1.390 . S
C455 H459 0.950 . S
H456 C452 0.950 . S
C457 C455 1.390 . S
C457 C458 1.387 . S
C457 H460 0.950 . S
C458 C457 1.387 . S
C458 C461 1.387 . S
H459 C455 0.950 . S
H460 C457 0.950 . S
C461 C452 1.390 . S
C461 H454 0.950 . S
C461 C458 1.387 . S
C462 C463 1.387 . S
C462 H466 0.950 . S
C462 C471 1.390 . S
C463 C462 1.387 . S
C463 C465 1.387 . S
H464 C471 0.950 . S
C465 C463 1.387 . S
C465 C467 1.390 . S
C465 H469 0.950 . S
H466 C462 0.950 . S
C467 C465 1.390 . S
C467 C468 1.387 . S
C467 H470 0.950 . S
C468 C467 1.387 . S
C468 C471 1.387 . S
H469 C465 0.950 . S
H470 C467 0.950 . S
C471 C462 1.390 . S
C471 H464 0.950 . S
C471 C468 1.387 . S
C472 C473 1.387 . S
C472 H476 0.950 . S
C472 C481 1.390 . S
C473 C472 1.387 . S
C473 C475 1.387 . S
H474 C481 0.950 . S
C475 C473 1.387 . S
C475 C477 1.390 . S
C475 H479 0.950 . S
H476 C472 0.950 . S
C477 C475 1.390 . S
C477 C478 1.387 . S
C477 H480 0.950 . S
C478 C477 1.387 . S
C478 C481 1.387 . S
H479 C475 0.950 . S
H480 C477 0.950 . S
C481 C472 1.390 . S
C481 H474 0.950 . S
C481 C478 1.387 . S
C482 C483 1.387 . S
C482 H486 0.950 . S
C482 C491 1.390 . S
C483 C482 1.387 . S
C483 C485 1.387 . S
H484 C491 0.950 . S
C485 C483 1.387 . S
C485 C487 1.390 . S
C485 H489 0.950 . S
H486 C482 0.950 . S
C487 C485 1.390 . S
C487 C488 1.387 . S
C487 H490 0.950 . S
C488 C487 1.387 . S
C488 C491 1.387 . S
H489 C485 0.950 . S
H490 C487 0.950 . S
C491 C482 1.390 . S
C491 H484 0.950 . S
C491 C488 1.387 . S
C492 C493 1.387 . S
C492 H496 0.950 . S
C492 C501 1.390 . S
C493 C492 1.387 . S
C493 C495 1.387 . S
H494 C501 0.950 . S
C495 C493 1.387 . S
C495 C497 1.390 . S
C495 H499 0.950 . S
H496 C492 0.950 . S
C497 C495 1.390 . S
C497 C498 1.387 . S
C497 H500 0.950 . S
C498 C497 1.387 . S
C498 C501 1.387 . S
H499 C495 0.950 . S
H500 C497 0.950 . S
C501 C492 1.390 . S
C501 H494 0.950 . S
C501 C498 1.387 . S
C502 C503 1.387 . S
C502 H506 0.950 . S
C502 C511 1.390 . S
C503 C502 1.387 . S
C503 C505 1.387 . S
H504 C511 0.950 . S
C505 C503 1.387 . S
C505 C507 1.390 . S
C505 H509 0.950 . S
H506 C502 0.950 . S
C507 C505 1.390 . S
C507 C508 1.387 . S
C507 H510 0.950 . S
C508 C507 1.387 . S
C508 C511 1.387 . S
H509 C505 0.950 . S
H510 C507 0.950 . S
C511 C502 1.390 . S
C511 H504 0.950 . S
C511 C508 1.387 . S
C512 C513 1.387 . S
C512 H516 0.950 . S
C512 C521 1.390 . S
C513 C512 1.387 . S
C513 C515 1.387 . S
H514 C521 0.950 . S
C515 C513 1.387 . S
C515 C517 1.390 . S
C515 H519 0.950 . S
H516 C512 0.950 . S
C517 C515 1.390 . S
C517 C518 1.387 . S
C517 H520 0.950 . S
C518 C517 1.387 . S
C518 C521 1.387 . S
H519 C515 0.950 . S
H520 C517 0.950 . S
C521 C512 1.390 . S
C521 H514 0.950 . S
C521 C518 1.387 . S
C522 C523 1.387 . S
C522 H526 0.950 . S
C522 C531 1.390 1_554 S
C523 C522 1.387 . S
C523 C525 1.387 . S
H524 C531 0.950 . S
C525 C523 1.387 . S
C525 C527 1.390 1_554 S
C525 H529 0.950 . S
H526 C522 0.950 . S
C527 C525 1.390 1_556 S
C527 C528 1.387 . S
C527 H530 0.950 . S
C528 C527 1.387 . S
C528 C531 1.387 . S
H529 C525 0.950 . S
H530 C527 0.950 . S
C531 C522 1.390 1_556 S
C531 H524 0.950 . S
C531 C528 1.387 . S
C532 C533 1.378 1_565 S
C532 H536 0.957 1_565 S
C532 C541 1.392 1_556 S
C533 C532 1.378 1_545 S
C533 C535 1.387 . S
H534 C541 0.950 . S
C535 C533 1.387 . S
C535 C537 1.390 1_546 S
C535 H539 0.950 . S
H536 C532 0.957 1_545 S
C537 C535 1.390 1_564 S
C537 C538 1.387 . S
C537 H540 0.950 . S
C538 C537 1.387 . S
C538 C541 1.387 . S
H539 C535 0.950 . S
H540 C537 0.950 . S
C541 C532 1.392 1_554 S
C541 H534 0.950 . S
C541 C538 1.387 . S
C542 C543 1.394 . S
C542 H546 0.939 1_655 S
C542 C551 1.389 1_656 S
C543 C542 1.394 . S
C543 C545 1.387 . S
H544 C551 0.950 . S
C545 C543 1.387 . S
C545 C547 1.390 1_556 S
C545 H549 0.950 . S
H546 C542 0.939 1_455 S
C547 C545 1.390 1_554 S
C547 C548 1.387 1_655 S
C547 H550 0.950 . S
C548 C547 1.387 1_455 S
C548 C551 1.387 . S
H549 C545 0.950 . S
H550 C547 0.950 . S
C551 C542 1.389 1_454 S
C551 H544 0.950 . S
C551 C548 1.387 . S
C552 C553 1.387 . S
C552 H556 0.950 . S
C552 C561 1.390 . S
C553 C552 1.387 . S
C553 C555 1.387 . S
H554 C561 0.950 . S
C555 C553 1.387 . S
C555 C557 1.390 . S
C555 H559 0.950 . S
H556 C552 0.950 . S
C557 C555 1.390 . S
C557 C558 1.387 . S
C557 H560 0.950 . S
C558 C557 1.387 . S
C558 C561 1.387 . S
H559 C555 0.950 . S
H560 C557 0.950 . S
C561 C552 1.390 . S
C561 H554 0.950 . S
C561 C558 1.387 . S
C562 C563 1.387 . S
C562 H566 0.950 . S
C562 C571 1.390 . S
C563 C562 1.387 . S
C563 C565 1.387 . S
H564 C571 0.950 . S
C565 C563 1.387 . S
C565 C567 1.390 . S
C565 H569 0.950 . S
H566 C562 0.950 . S
C567 C565 1.390 . S
C567 C568 1.387 . S
C567 H570 0.950 . S
C568 C567 1.387 . S
C568 C571 1.387 . S
H569 C565 0.950 . S
H570 C567 0.950 . S
C571 C562 1.390 . S
C571 H564 0.950 . S
C571 C568 1.387 . S
C572 C573 1.387 . S
C572 H576 0.950 . S
C572 C581 1.390 . S
C573 C572 1.387 . S
C573 C575 1.387 . S
H574 C581 0.950 . S
C575 C573 1.387 . S
C575 C577 1.390 . S
C575 H579 0.950 . S
H576 C572 0.950 . S
C577 C575 1.390 . S
C577 C578 1.387 . S
C577 H580 0.950 . S
C578 C577 1.387 . S
C578 C581 1.387 . S
H579 C575 0.950 . S
H580 C577 0.950 . S
C581 C572 1.390 . S
C581 H574 0.950 . S
C581 C578 1.387 . S
C582 C583 1.387 . S
C582 H586 0.950 . S
C582 C591 1.390 . S
C583 C582 1.387 . S
C583 C585 1.387 . S
H584 C591 0.950 . S
C585 C583 1.387 . S
C585 C587 1.390 . S
C585 H589 0.950 . S
H586 C582 0.950 . S
C587 C585 1.390 . S
C587 C588 1.387 . S
C587 H590 0.950 . S
C588 C587 1.387 . S
C588 C591 1.387 . S
H589 C585 0.950 . S
H590 C587 0.950 . S
C591 C582 1.390 . S
C591 H584 0.950 . S
C591 C588 1.387 . S
C592 C593 1.387 . S
C592 H596 0.950 . S
C592 C601 1.390 . S
C593 C592 1.387 . S
C593 C595 1.387 . S
H594 C601 0.950 . S
C595 C593 1.387 . S
C595 C597 1.390 . S
C595 H599 0.950 . S
H596 C592 0.950 . S
C597 C595 1.390 . S
C597 C598 1.387 . S
C597 H600 0.950 . S
C598 C597 1.387 . S
C598 C601 1.387 . S
H599 C595 0.950 . S
H600 C597 0.950 . S
C601 C592 1.390 . S
C601 H594 0.950 . S
C601 C598 1.387 . S
C602 C603 1.387 . S
C602 H606 0.950 . S
C602 C611 1.390 . S
C603 C602 1.387 . S
C603 C605 1.387 . S
H604 C611 0.950 . S
C605 C603 1.387 . S
C605 C607 1.390 . S
C605 H609 0.950 . S
H606 C602 0.950 . S
C607 C605 1.390 . S
C607 C608 1.387 . S
C607 H610 0.950 . S
C608 C607 1.387 . S
C608 C611 1.387 . S
H609 C605 0.950 . S
H610 C607 0.950 . S
C611 C602 1.390 . S
C611 H604 0.950 . S
C611 C608 1.387 . S
C253 C151 1.227 . S
C258 C11 1.230 . S
C263 C25 1.227 . S
C268 C165 1.230 . S
C273 C137 1.229 . S
C278 C39 1.229 . S
C283 C207 1.228 . S
C288 C53 1.228 . S
C293 C67 1.229 . S
C298 C179 1.229 . S
C303 C193 1.228 . S
C308 C81 1.230 . S
C313 C95 1.226 . S
C318 C235 1.229 . S
C323 C249 1.227 . S
C328 C109 1.229 . S
C333 C123 1.227 . S
C338 C221 1.227 . S
C343 C8 1.090 . S
C348 C21 1.211 . S
C353 C22 1.086 . S
C358 C35 1.212 . S
C363 C7 1.211 . S
C368 C36 1.091 . S
C373 C77 1.212 . S
C378 C50 1.086 . S
C383 C49 1.211 . S
C388 C64 1.089 . S
C393 C78 1.084 . S
C398 C63 1.212 . S
C403 C92 1.086 . S
C408 C105 1.212 . S
C413 C106 1.087 . S
C418 C119 1.211 . S
C423 C91 1.212 . S
C428 C120 1.086 . S
C433 C161 1.211 . S
C438 C134 1.091 . S
C443 C133 1.212 . S
C448 C148 1.086 . S
C453 C147 1.212 . S
C458 C162 1.085 . S
C463 C189 1.212 . S
C468 C176 1.086 . S
C473 C203 1.212 . S
C478 C190 1.086 . S
C483 C175 1.211 . S
C488 C204 1.090 . S
C493 C218 1.091 . S
C498 C245 1.211 . S
C503 C232 1.085 . S
C508 C217 1.212 . S
C513 C246 1.090 . S
C518 C231 1.211 . S
C523 C13 1.383 . S
C528 C55 1.381 . S
C533 C69 1.382 . S
C538 C27 1.382 . S
C543 C83 1.383 . S
C548 C41 1.382 . S
C553 C139 1.380 . S
C558 C97 1.384 . S
C563 C153 1.380 . S
C568 C111 1.383 . S
C573 C125 1.381 . S
C578 C167 1.383 . S
C583 C223 1.385 . S
C588 C181 1.380 . S
C593 C237 1.383 . S
C598 C195 1.382 . S
C603 C251 1.382 . S
C608 C209 1.383 . S
