# Generated by pormake.
# Topology umo, (4)-cn, num edge types: 1
# Building blocks:
#     Node 0, Type 0, BuildingBlock: ESEHIV_clean_sbu_0, # of connection points: 4
#     Node 1, Type 0, BuildingBlock: ESEHIV_clean_sbu_0, # of connection points: 4
#     Node 2, Type 0, BuildingBlock: ESEHIV_clean_sbu_0, # of connection points: 4
#     Node 3, Type 0, BuildingBlock: ESEHIV_clean_sbu_0, # of connection points: 4
#     Node 4, Type 0, BuildingBlock: ESEHIV_clean_sbu_0, # of connection points: 4
#     Node 5, Type 0, BuildingBlock: ESEHIV_clean_sbu_0, # of connection points: 4
#     Node 6, Type 0, BuildingBlock: ESEHIV_clean_sbu_0, # of connection points: 4
#     Node 7, Type 0, BuildingBlock: ESEHIV_clean_sbu_0, # of connection points: 4
#     Node 8, Type 0, BuildingBlock: ESEHIV_clean_sbu_0, # of connection points: 4
#     Node 9, Type 0, BuildingBlock: ESEHIV_clean_sbu_0, # of connection points: 4
#     Node 10, Type 0, BuildingBlock: ESEHIV_clean_sbu_0, # of connection points: 4
#     Node 11, Type 0, BuildingBlock: ESEHIV_clean_sbu_0, # of connection points: 4
#     Edge 12, Type (0, 0), BuildingBlock: KIFKEQ_clean_linker_1, # of connection points: 2
#     Edge 13, Type (0, 0), BuildingBlock: KIFKEQ_clean_linker_1, # of connection points: 2
#     Edge 14, Type (0, 0), BuildingBlock: KIFKEQ_clean_linker_1, # of connection points: 2
#     Edge 15, Type (0, 0), BuildingBlock: KIFKEQ_clean_linker_1, # of connection points: 2
#     Edge 16, Type (0, 0), BuildingBlock: KIFKEQ_clean_linker_1, # of connection points: 2
#     Edge 17, Type (0, 0), BuildingBlock: KIFKEQ_clean_linker_1, # of connection points: 2
#     Edge 18, Type (0, 0), BuildingBlock: KIFKEQ_clean_linker_1, # of connection points: 2
#     Edge 19, Type (0, 0), BuildingBlock: KIFKEQ_clean_linker_1, # of connection points: 2
#     Edge 20, Type (0, 0), BuildingBlock: KIFKEQ_clean_linker_1, # of connection points: 2
#     Edge 21, Type (0, 0), BuildingBlock: KIFKEQ_clean_linker_1, # of connection points: 2
#     Edge 22, Type (0, 0), BuildingBlock: KIFKEQ_clean_linker_1, # of connection points: 2
#     Edge 23, Type (0, 0), BuildingBlock: KIFKEQ_clean_linker_1, # of connection points: 2
#     Edge 24, Type (0, 0), BuildingBlock: KIFKEQ_clean_linker_1, # of connection points: 2
#     Edge 25, Type (0, 0), BuildingBlock: KIFKEQ_clean_linker_1, # of connection points: 2
#     Edge 26, Type (0, 0), BuildingBlock: KIFKEQ_clean_linker_1, # of connection points: 2
#     Edge 27, Type (0, 0), BuildingBlock: KIFKEQ_clean_linker_1, # of connection points: 2
#     Edge 28, Type (0, 0), BuildingBlock: KIFKEQ_clean_linker_1, # of connection points: 2
#     Edge 29, Type (0, 0), BuildingBlock: KIFKEQ_clean_linker_1, # of connection points: 2
#     Edge 30, Type (0, 0), BuildingBlock: KIFKEQ_clean_linker_1, # of connection points: 2
#     Edge 31, Type (0, 0), BuildingBlock: KIFKEQ_clean_linker_1, # of connection points: 2
#     Edge 32, Type (0, 0), BuildingBlock: KIFKEQ_clean_linker_1, # of connection points: 2
#     Edge 33, Type (0, 0), BuildingBlock: KIFKEQ_clean_linker_1, # of connection points: 2
#     Edge 34, Type (0, 0), BuildingBlock: KIFKEQ_clean_linker_1, # of connection points: 2
#     Edge 35, Type (0, 0), BuildingBlock: KIFKEQ_clean_linker_1, # of connection points: 2
# Relax obj value: 0.179
# Max RMSD: 0.176
# Mean RMSD: 0.176
data_MOF--net-umo--node1-ESEHIV_clean_sbu_0--edge1-KIFKEQ_clean_linker_1
_symmetry_space_group_name_H-M    P1
_symmetry_Int_Tables_number       1
_symmetry_cell_setting            triclinic
loop_
_symmetry_equiv_pos_as_xyz
'x, y, z'
_cell_length_a     58.002281
_cell_length_b     58.000892
_cell_length_c     34.797867
_cell_angle_alpha  90.004087
_cell_angle_beta   90.080976
_cell_angle_gamma 120.15347
loop_
_atom_site_label
_atom_site_type_symbol
_atom_site_fract_x
_atom_site_fract_y
_atom_site_fract_z
_atom_type_partial_charge
Cu0 Cu 0.21006 0.55936 0.42335 0.0
N1 N 0.23171 0.59644 0.42326 0.0
N2 N 0.2677 0.63717 0.42364 0.0
C3 C 0.258 0.61114 0.41551 0.0
C4 C 0.24669 0.63892 0.43654 0.0
C5 C 0.22454 0.61379 0.43618 0.0
O6 O 0.22864 0.54476 0.39414 0.0
C7 C 0.21823 0.56136 0.5041 0.0
O8 O 0.24246 0.57991 0.49458 0.0
H9 H 0.27008 0.60279 0.40628 0.0
H10 H 0.20478 0.6083 0.44614 0.0
N11 N 0.17879 0.5511 0.39639 0.0
N12 N 0.13744 0.53048 0.37181 0.0
C13 C 0.15414 0.52931 0.39803 0.0
C14 C 0.1775 0.56647 0.36853 0.0
C15 C 0.15216 0.5539 0.35339 0.0
C16 C 0.25002 0.54538 0.4045 0.0
O17 O 0.25934 0.55356 0.4393 0.0
H18 H 0.14881 0.51268 0.41719 0.0
H19 H 0.19404 0.58543 0.35948 0.0
O20 O 0.20157 0.54828 0.4774 0.0
H21 H 0.24747 0.65698 0.44648 0.0
H22 H 0.14512 0.56148 0.33055 0.0
Cu23 Cu 0.66503 0.20498 0.58107 0.0
N24 N 0.64692 0.22408 0.58034 0.0
N25 N 0.63921 0.25815 0.58033 0.0
C26 C 0.6564 0.24984 0.57074 0.0
C27 C 0.61795 0.23671 0.59587 0.0
C28 C 0.62271 0.21572 0.59565 0.0
O29 O 0.69958 0.22668 0.55581 0.0
C30 C 0.66938 0.21162 0.66195 0.0
O31 O 0.67329 0.23534 0.65318 0.0
H32 H 0.67612 0.26275 0.55932 0.0
H33 H 0.61011 0.19615 0.60783 0.0
N34 N 0.64496 0.17392 0.55182 0.0
N35 N 0.62384 0.13195 0.52932 0.0
C36 C 0.63834 0.14834 0.55858 0.0
C37 C 0.63414 0.17358 0.5175 0.0
C38 C 0.62118 0.14791 0.5036 0.0
C39 C 0.71713 0.25018 0.56612 0.0
O40 O 0.71373 0.26 0.59821 0.0
H41 H 0.64442 0.14199 0.584 0.0
H42 H 0.63565 0.19095 0.50354 0.0
O43 O 0.66692 0.19572 0.6348 0.0
H44 H 0.60067 0.23655 0.60794 0.0
H45 H 0.61039 0.14148 0.4767 0.0
Cu46 Cu 0.45092 0.63821 0.73414 0.0
N47 N 0.41466 0.62393 0.7237 0.0
N48 N 0.37593 0.62262 0.71334 0.0
C49 C 0.40135 0.63734 0.72585 0.0
C50 C 0.37317 0.59887 0.70318 0.0
C51 C 0.3971 0.59977 0.70953 0.0
O52 O 0.46763 0.67455 0.71409 0.0
C53 C 0.442 0.61154 0.8039 0.0
O54 O 0.42716 0.59143 0.781 0.0
H55 H 0.41028 0.65758 0.73626 0.0
H56 H 0.40155 0.58414 0.70341 0.0
N57 N 0.46361 0.61942 0.70571 0.0
N58 N 0.48509 0.59829 0.6867 0.0
C59 C 0.48094 0.61132 0.71581 0.0
C60 C 0.45685 0.61149 0.66909 0.0
C61 C 0.46992 0.59845 0.65735 0.0
C62 C 0.46755 0.69422 0.73028 0.0
O63 O 0.45938 0.69191 0.766 0.0
H64 H 0.49009 0.61471 0.74392 0.0
H65 H 0.4434 0.61513 0.65201 0.0
O66 O 0.45522 0.63484 0.78935 0.0
H67 H 0.35542 0.58223 0.69105 0.0
H68 H 0.46875 0.5902 0.62903 0.0
Cu69 Cu 0.82719 0.46708 0.91226 0.0
N70 N 0.80884 0.43051 0.9024 0.0
N71 N 0.7738 0.3897 0.89276 0.0
C72 C 0.78252 0.41422 0.9077 0.0
C73 C 0.79575 0.39061 0.87786 0.0
C74 C 0.8173 0.41585 0.8837 0.0
O75 O 0.80369 0.47925 0.8922 0.0
C76 C 0.84952 0.46387 0.98119 0.0
O77 O 0.85785 0.45171 0.95797 0.0
H78 H 0.76995 0.42053 0.9215 0.0
H79 H 0.83746 0.42333 0.87359 0.0
N80 N 0.85819 0.48361 0.88214 0.0
N81 N 0.90007 0.50772 0.86063 0.0
C82 C 0.88434 0.49684 0.89181 0.0
C83 C 0.8576 0.48616 0.84379 0.0
C84 C 0.88329 0.50105 0.83049 0.0
C85 C 0.78223 0.47597 0.90723 0.0
O86 O 0.77632 0.46734 0.94276 0.0
H87 H 0.89167 0.49936 0.92102 0.0
H88 H 0.83956 0.4782 0.82681 0.0
O89 O 0.83534 0.47298 0.96723 0.0
H90 H 0.79611 0.37464 0.86231 0.0
H91 H 0.88923 0.50678 0.80094 0.0
Cu92 Cu 0.37707 0.83016 0.0909 0.0
N93 N 0.40574 0.82445 0.08679 0.0
N94 N 0.42853 0.803 0.09198 0.0
C95 C 0.40423 0.80075 0.09171 0.0
C96 C 0.44606 0.82921 0.08701 0.0
C97 C 0.43189 0.84243 0.08376 0.0
O98 O 0.34583 0.79761 0.07201 0.0
C99 C 0.36867 0.82223 0.17191 0.0
O100 O 0.35769 0.79676 0.16356 0.0
H101 H 0.3857 0.78244 0.09709 0.0
H102 H 0.44008 0.8637 0.08085 0.0
N103 N 0.38265 0.85868 0.05942 0.0
N104 N 0.39745 0.89955 0.03545 0.0
C105 C 0.40011 0.88501 0.0637 0.0
C106 C 0.36878 0.85658 0.02732 0.0
C107 C 0.37776 0.88167 1.01258 0.0
C108 C 0.3223 0.79389 0.06949 0.0
O109 O 0.31732 0.81192 0.08374 0.0
H110 H 0.41408 0.89333 0.08735 0.0
H111 H 0.35311 0.83804 1.01549 0.0
O112 O 0.37613 0.83915 0.14468 0.0
H113 H 0.46754 0.83825 0.08652 0.0
H114 H 0.37053 0.88637 0.98675 0.0
Cu115 Cu 0.57181 0.36958 0.25137 0.0
N116 N 0.60891 0.38668 0.2525 0.0
N117 N 0.65012 0.39285 0.25132 0.0
C118 C 0.62417 0.37609 0.24311 0.0
C119 C 0.6512 0.41489 0.26616 0.0
C120 C 0.62574 0.41103 0.26678 0.0
O121 O 0.55945 0.33564 0.22474 0.0
C122 C 0.57013 0.36318 0.33283 0.0
O123 O 0.58858 0.3568 0.3268 0.0
H124 H 0.61628 0.35604 0.23222 0.0
H125 H 0.61974 0.42461 0.27801 0.0
N126 N 0.56151 0.38985 0.22168 0.0
N127 N 0.54425 0.41496 0.20267 0.0
C128 C 0.54988 0.40389 0.23292 0.0
C129 C 0.56343 0.39224 0.18322 0.0
C130 C 0.55282 0.40764 0.17142 0.0
C131 C 0.56068 0.31567 0.23743 0.0
O132 O 0.56765 0.31557 0.27329 0.0
H133 H 0.54511 0.40542 0.26253 0.0
H134 H 0.57178 0.38316 0.16502 0.0
O135 O 0.55933 0.36781 0.30416 0.0
H136 H 0.66905 0.43236 0.27644 0.0
H137 H 0.5517 0.41318 0.14207 0.0
Cu138 Cu 0.48137 0.85819 0.48338 0.0
N139 N 0.48182 0.8317 0.45383 0.0
N140 N 0.45496 0.79111 0.42918 0.0
C141 C 0.46307 0.80632 0.46112 0.0
C142 C 0.46999 0.80741 0.40058 0.0
C143 C 0.48651 0.83251 0.41584 0.0
O144 O 0.47294 0.84263 0.53498 0.0
C145 C 0.45735 0.87606 0.42934 0.0
O146 O 0.48201 0.89473 0.42237 0.0
H147 H 0.45195 0.80044 0.48776 0.0
H148 H 0.49753 0.85071 0.39947 0.0
N149 N 0.51379 0.89077 0.4823 0.0
N150 N 0.54412 0.93424 0.48849 0.0
C151 C 0.51859 0.91483 0.49492 0.0
C152 C 0.53705 0.89502 0.46771 0.0
C153 C 0.55573 0.9217 0.47146 0.0
C154 C 0.49145 0.84386 0.55631 0.0
O155 O 0.51638 0.85957 0.54612 0.0
H156 H 0.50341 0.9181 0.50751 0.0
H157 H 0.54014 0.87977 0.45503 0.0
O158 O 0.45257 0.86067 0.45812 0.0
H159 H 0.46637 0.80272 0.37027 0.0
H160 H 0.57632 0.93105 0.46239 0.0
Cu161 Cu 0.62943 0.46927 0.64648 0.0
N162 N 0.6571 0.47132 0.61701 0.0
N163 N 0.67066 0.44455 0.5919 0.0
C164 C 0.6642 0.45294 0.62411 0.0
C165 C 0.66877 0.45923 0.56334 0.0
C166 C 0.66027 0.47566 0.57887 0.0
O167 O 0.63702 0.46183 0.69844 0.0
C168 C 0.5877 0.44339 0.59245 0.0
O169 O 0.5919 0.46751 0.58611 0.0
H170 H 0.65953 0.4421 0.65099 0.0
H171 H 0.65243 0.48614 0.5627 0.0
N172 N 0.62685 0.50024 0.64514 0.0
N173 N 0.61033 0.52755 0.65285 0.0
C174 C 0.60646 0.50278 0.65864 0.0
C175 C 0.64433 0.52419 0.63042 0.0
C176 C 0.63424 0.54108 0.63516 0.0
C177 C 0.6509 0.48073 0.72192 0.0
O178 O 0.65639 0.50503 0.71342 0.0
H179 H 0.58911 0.48667 0.67238 0.0
H180 H 0.66298 0.52895 0.61687 0.0
O181 O 0.59896 0.43941 0.62119 0.0
H182 H 0.66921 0.4553 0.53301 0.0
H183 H 0.64352 0.56153 0.62539 0.0
Cu184 Cu 0.17423 0.6335 0.80725 0.0
N185 N 0.19703 0.6574 0.77067 0.0
N186 N 0.23294 0.66872 0.73439 0.0
C187 C 0.22272 0.66369 0.77018 0.0
C188 C 0.21303 0.66614 0.71139 0.0
C189 C 0.19089 0.65916 0.73385 0.0
O190 O 0.19221 0.64658 0.85699 0.0
C191 C 0.15689 0.5904 0.75765 0.0
O192 O 0.13924 0.59749 0.74926 0.0
H193 H 0.23214 0.65997 0.79441 0.0
H194 H 0.17087 0.65192 0.72327 0.0
N195 N 0.14094 0.63173 0.8073 0.0
N196 N 0.0973 0.61692 0.81376 0.0
C197 C 0.11756 0.61253 0.82207 0.0
C198 C 0.13524 0.64893 0.78969 0.0
C199 C 0.1084 0.63981 0.79344 0.0
C200 C 0.19609 0.66946 0.86697 0.0
O201 O 0.18672 0.68112 0.8446 0.0
H202 H 0.11526 0.59517 0.83716 0.0
H203 H 0.14957 0.66666 0.77453 0.0
O204 O 0.17163 0.60072 0.78724 0.0
H205 H 0.21349 0.6662 0.68029 0.0
H206 H 0.09778 0.64917 0.78185 0.0
Cu207 Cu 0.56228 0.16995 0.9687 0.0
N208 N 0.56319 0.19525 0.93505 0.0
N209 N 0.58873 0.23372 0.9044 0.0
C210 C 0.5824 0.22095 0.93845 0.0
C211 C 0.57244 0.21544 0.87849 0.0
C212 C 0.55669 0.19169 0.8975 0.0
O213 O 0.57005 0.18712 1.01929 0.0
C214 C 0.58449 0.14999 0.91696 0.0
O215 O 0.55923 0.13363 0.90907 0.0
H216 H 0.59445 0.22884 0.96413 0.0
H217 H 0.54425 0.17249 0.88409 0.0
N218 N 0.52918 0.13826 0.96775 0.0
N219 N 0.49759 0.09546 0.97479 0.0
C220 C 0.52314 0.11428 0.98226 0.0
C221 C 0.50668 0.13454 0.95091 0.0
C222 C 0.48721 0.1082 0.9551 0.0
C223 C 0.55195 0.18127 0.04446 0.0
O224 O 0.52814 0.16054 0.0388 0.0
H225 H 0.53741 0.11059 0.99703 0.0
H226 H 0.50466 0.14989 0.93631 0.0
O227 O 0.59035 0.16486 0.94662 0.0
H228 H 0.57377 0.21826 0.84764 0.0
H229 H 0.46693 0.09915 0.94459 0.0
Cu230 Cu 0.42504 0.57132 0.16542 0.0
N231 N 0.44416 0.60818 0.17179 0.0
N232 N 0.45409 0.65055 0.16644 0.0
C233 C 0.43523 0.62471 0.16184 0.0
C234 C 0.47578 0.65023 0.17985 0.0
C235 C 0.46957 0.62401 0.18318 0.0
O236 O 0.39053 0.55955 0.19036 0.0
C237 C 0.44362 0.5778 0.09004 0.0
O238 O 0.46652 0.59035 0.10836 0.0
H239 H 0.41557 0.61784 0.14995 0.0
H240 H 0.48285 0.61702 0.19219 0.0
N241 N 0.44353 0.55662 0.1901 0.0
N242 N 0.46257 0.53251 0.2057 0.0
C243 C 0.45025 0.53868 0.17776 0.0
C244 C 0.45209 0.56207 0.22669 0.0
C245 C 0.46374 0.54728 0.2364 0.0
C246 C 0.37996 0.54095 0.21526 0.0
O247 O 0.39087 0.52626 0.22208 0.0
H248 H 0.44571 0.52994 0.14931 0.0
H249 H 0.4497 0.57571 0.24518 0.0
O250 O 0.42223 0.56577 0.10974 0.0
H251 H 0.49481 0.66766 0.18645 0.0
H252 H 0.4726 0.54755 0.26392 0.0
Cu253 Cu 0.86929 0.39524 0.29986 0.0
N254 N 0.84239 0.36953 0.26918 0.0
N255 N 0.8021 0.35728 0.24473 0.0
C256 C 0.8172 0.3634 0.27669 0.0
C257 C 0.81828 0.35887 0.2158 0.0
C258 C 0.84318 0.36651 0.23093 0.0
O259 O 0.85476 0.38619 0.35197 0.0
C260 C 0.89066 0.44033 0.25126 0.0
O261 O 0.91092 0.43627 0.24876 0.0
H262 H 0.81155 0.36835 0.30377 0.0
H263 H 0.86136 0.37371 0.21456 0.0
N264 N 0.90147 0.39486 0.29761 0.0
N265 N 0.94452 0.40744 0.30648 0.0
C266 C 0.92444 0.41191 0.31568 0.0
C267 C 0.90705 0.3788 0.27665 0.0
C268 C 0.93354 0.38651 0.28199 0.0
C269 C 0.85162 0.36405 0.36425 0.0
O270 O 0.86052 0.35147 0.34297 0.0
H271 H 0.92658 0.428 0.33391 0.0
H272 H 0.89294 0.36287 0.25831 0.0
O273 O 0.87286 0.42769 0.27671 0.0
H274 H 0.81372 0.35865 0.18557 0.0
H275 H 0.94391 0.37747 0.26861 0.0
H276 H 0.30556 0.64521 0.3712 0.0
H277 H 0.29205 0.67624 0.47601 0.0
H278 H 0.35177 0.68231 0.36972 0.0
H279 H 0.33802 0.71236 0.47581 0.0
H280 H 0.40946 0.78957 0.44742 0.0
H281 H 0.36451 0.75192 0.44302 0.0
H282 H 0.39546 0.70323 0.39834 0.0
H283 H 0.44087 0.74221 0.40075 0.0
C284 C 0.31261 0.65986 0.39406 0.0
C285 C 0.29516 0.6582 0.42333 0.0
C286 C 0.33907 0.68103 0.39337 0.0
C287 C 0.34863 0.70071 0.42228 0.0
C288 C 0.33126 0.69822 0.45229 0.0
C289 C 0.30486 0.67744 0.45257 0.0
C290 C 0.40659 0.77088 0.43628 0.0
C291 C 0.42852 0.76864 0.42465 0.0
C292 C 0.38083 0.74914 0.43415 0.0
C293 C 0.37623 0.72421 0.4212 0.0
C294 C 0.3982 0.7221 0.40843 0.0
C295 C 0.42416 0.74426 0.40992 0.0
H296 H 0.62638 0.2819 0.63593 0.0
H297 H 0.66466 0.29571 0.52551 0.0
H298 H 0.63564 0.32757 0.63748 0.0
H299 H 0.67294 0.34155 0.52574 0.0
H300 H 0.70344 0.43038 0.55674 0.0
H301 H 0.697 0.38514 0.55264 0.0
H302 H 0.62114 0.35427 0.61042 0.0
H303 H 0.62863 0.39907 0.61646 0.0
C304 C 0.63636 0.29468 0.61159 0.0
C305 C 0.64444 0.28518 0.58036 0.0
C306 C 0.64165 0.32093 0.61232 0.0
C307 C 0.65464 0.33834 0.58138 0.0
C308 C 0.66306 0.32888 0.55021 0.0
C309 C 0.65819 0.30261 0.54989 0.0
C310 C 0.68556 0.41375 0.56859 0.0
C311 C 0.66677 0.41816 0.58747 0.0
C312 C 0.6817 0.38784 0.56608 0.0
C313 C 0.65872 0.36592 0.58185 0.0
C314 C 0.63952 0.37055 0.59916 0.0
C315 C 0.64366 0.39626 0.60235 0.0
H316 H 0.23567 0.63841 0.6774 0.0
H317 H 0.28113 0.69331 0.7681 0.0
H318 H 0.2717 0.62875 0.66709 0.0
H319 H 0.31717 0.68366 0.75804 0.0
H320 H 0.38473 0.6734 0.7117 0.0
H321 H 0.35143 0.68714 0.71113 0.0
H322 H 0.28884 0.60468 0.70746 0.0
H323 H 0.32203 0.59074 0.7089 0.0
C324 C 0.25373 0.64901 0.69431 0.0
C325 C 0.25582 0.66683 0.72334 0.0
C326 C 0.27417 0.64321 0.68878 0.0
C327 C 0.29718 0.65532 0.7119 0.0
C328 C 0.2998 0.67418 0.73955 0.0
C329 C 0.27924 0.67972 0.74536 0.0
C330 C 0.36392 0.65809 0.71108 0.0
C331 C 0.3562 0.63085 0.71085 0.0
C332 C 0.34483 0.66605 0.71051 0.0
C333 C 0.31754 0.64702 0.70929 0.0
C334 C 0.30975 0.61984 0.70789 0.0
C335 C 0.32884 0.61185 0.70878 0.0
H336 H 0.75662 0.33704 0.88179 0.0
H337 H 0.72853 0.39266 0.89886 0.0
H338 H 0.71059 0.30038 0.87989 0.0
H339 H 0.68276 0.35599 0.89776 0.0
H340 H 0.60973 0.27861 0.94651 0.0
H341 H 0.65448 0.31746 0.94053 0.0
H342 H 0.66856 0.28212 0.84056 0.0
H343 H 0.6238 0.24325 0.84682 0.0
C344 C 0.74075 0.34156 0.88484 0.0
C345 C 0.74652 0.36793 0.89088 0.0
C346 C 0.71433 0.32052 0.88368 0.0
C347 C 0.69305 0.3253 0.88878 0.0
C348 C 0.69874 0.35163 0.89426 0.0
C349 C 0.7251 0.37267 0.89512 0.0
C350 C 0.62227 0.27949 0.92286 0.0
C351 C 0.61325 0.25812 0.89697 0.0
C352 C 0.64783 0.30168 0.91937 0.0
C353 C 0.66509 0.3028 0.89015 0.0
C354 C 0.65578 0.28174 0.86352 0.0
C355 C 0.63005 0.25967 0.86677 0.0
H356 H 0.47188 0.80721 0.12847 0.0
H357 H 0.39789 0.751 0.0735 0.0
H358 H 0.4792 0.77071 0.14676 0.0
H359 H 0.40526 0.71461 0.0912 0.0
H360 H 0.40929 0.65386 0.16826 0.0
H361 H 0.40444 0.6915 0.14896 0.0
H362 H 0.48856 0.73686 0.12281 0.0
H363 H 0.4934 0.69909 0.1426 0.0
C364 C 0.45741 0.78712 0.11976 0.0
C365 C 0.43418 0.78194 0.09986 0.0
C366 C 0.46158 0.76619 0.13025 0.0
C367 C 0.44265 0.73968 0.12089 0.0
C368 C 0.41992 0.7347 0.09974 0.0
C369 C 0.41571 0.75555 0.08947 0.0
C370 C 0.42673 0.67181 0.15823 0.0
C371 C 0.45169 0.67341 0.15673 0.0
C372 C 0.42395 0.69339 0.14706 0.0
C373 C 0.44605 0.71713 0.13389 0.0
C374 C 0.47117 0.71896 0.13309 0.0
C375 C 0.47396 0.69733 0.14446 0.0
H376 H 0.75174 0.32255 0.22123 0.0
H377 H 0.80332 0.40292 0.26047 0.0
H378 H 0.71379 0.33042 0.22123 0.0
H379 H 0.76649 0.41158 0.25853 0.0
H380 H 0.69247 0.41026 0.29879 0.0
H381 H 0.72857 0.40064 0.29494 0.0
H382 H 0.69305 0.35329 0.19287 0.0
H383 H 0.65626 0.3624 0.19773 0.0
C384 C 0.75492 0.34199 0.22916 0.0
C385 C 0.78022 0.36211 0.24104 0.0
C386 C 0.73335 0.34661 0.22906 0.0
C387 C 0.73692 0.37156 0.24048 0.0
C388 C 0.76268 0.39191 0.25064 0.0
C389 C 0.78392 0.38713 0.2513 0.0
C390 C 0.69248 0.39801 0.27534 0.0
C391 C 0.67167 0.38732 0.24837 0.0
C392 C 0.71325 0.39249 0.27301 0.0
C393 C 0.71403 0.37644 0.24324 0.0
C394 C 0.69304 0.36553 0.21636 0.0
C395 C 0.67201 0.37082 0.21902 0.0
H396 H 0.12688 0.56256 0.69615 0.0
H397 H 0.20388 0.58991 0.74838 0.0
H398 H 0.14177 0.55103 0.63807 0.0
H399 H 0.21864 0.57719 0.69055 0.0
H400 H 0.24706 0.5927 0.56446 0.0
H401 H 0.23175 0.59402 0.62866 0.0
H402 H 0.15479 0.52584 0.60191 0.0
H403 H 0.1699 0.52542 0.53654 0.0
C404 C 0.1468 0.56534 0.69569 0.0
C405 C 0.16418 0.57731 0.72699 0.0
C406 C 0.15537 0.55855 0.66222 0.0
C407 C 0.18161 0.56337 0.65899 0.0
C408 C 0.19845 0.57362 0.69144 0.0
C409 C 0.18987 0.58057 0.72498 0.0
C410 C 0.22694 0.57771 0.57227 0.0
C411 C 0.20964 0.5591 0.54498 0.0
C412 C 0.21817 0.57834 0.60951 0.0
C413 C 0.19188 0.56017 0.62091 0.0
C414 C 0.175 0.54057 0.59418 0.0
C415 C 0.18371 0.54016 0.55666 0.0
H416 H 0.65721 0.1628 0.69195 0.0
H417 H 0.66929 0.23999 0.72438 0.0
H418 H 0.64322 0.14692 0.75757 0.0
H419 H 0.65443 0.22401 0.78901 0.0
H420 H 0.63376 0.19497 0.90813 0.0
H421 H 0.66035 0.20941 0.84945 0.0
H422 H 0.60504 0.13457 0.79522 0.0
H423 H 0.57928 0.11991 0.85404 0.0
C424 C 0.65717 0.17647 0.71312 0.0
C425 C 0.66417 0.2026 0.70268 0.0
C426 C 0.64896 0.16733 0.75075 0.0
C427 C 0.6474 0.18404 0.77881 0.0
C428 C 0.65567 0.21056 0.76865 0.0
C429 C 0.66401 0.21971 0.73123 0.0
C430 C 0.62783 0.18125 0.88412 0.0
C431 C 0.60426 0.15633 0.88576 0.0
C432 C 0.64288 0.18968 0.85019 0.0
C433 C 0.63469 0.1734 0.81709 0.0
C434 C 0.61224 0.14768 0.81993 0.0
C435 C 0.59729 0.13927 0.85378 0.0
H436 H 0.48599 0.60562 0.0421 0.0
H437 H 0.40004 0.5575 0.04172 0.0
H438 H 0.48554 0.61384 0.97361 0.0
H439 H 0.39963 0.56594 0.97289 0.0
H440 H 0.4123 0.56474 0.84243 0.0
H441 H 0.41247 0.55596 0.91075 0.0
H442 H 0.47249 0.63831 0.92943 0.0
H443 H 0.47252 0.64712 0.8606 0.0
C444 C 0.46694 0.59664 0.02741 0.0
C445 C 0.44302 0.58083 0.04759 0.0
C446 C 0.46671 0.6016 0.98808 0.0
C447 C 0.44256 0.59077 0.96766 0.0
C448 C 0.41863 0.57448 0.98762 0.0
C449 C 0.41884 0.56963 0.02712 0.0
C450 C 0.42559 0.58105 0.86099 0.0
C451 C 0.44246 0.60668 0.84586 0.0
C452 C 0.42553 0.57601 0.90033 0.0
C453 C 0.44244 0.59638 0.92573 0.0
C454 C 0.45939 0.62205 0.91065 0.0
C455 C 0.45933 0.62716 0.87121 0.0
H456 H 0.9265 0.47598 0.20058 0.0
H457 H 0.84224 0.43173 0.22501 0.0
H458 H 0.91713 0.48696 0.13703 0.0
H459 H 0.83274 0.44233 0.16099 0.0
H460 H 0.82653 0.47534 0.04236 0.0
H461 H 0.83685 0.47568 0.11102 0.0
H462 H 0.8982 0.45731 0.08181 0.0
H463 H 0.88808 0.45706 1.01416 0.0
C464 C 0.90597 0.46914 0.19277 0.0
C465 C 0.88511 0.45278 0.21784 0.0
C466 C 0.90058 0.47526 0.15617 0.0
C467 C 0.87415 0.46504 0.14351 0.0
C468 C 0.85333 0.45058 0.16977 0.0
C469 C 0.85877 0.44455 0.20659 0.0
C470 C 0.84241 0.4717 0.05073 0.0
C471 C 0.85643 0.46612 1.02273 0.0
C472 C 0.84823 0.47176 0.09003 0.0
C473 C 0.8685 0.46671 0.102 0.0
C474 C 0.88281 0.46176 0.07377 0.0
C475 C 0.87682 0.46139 0.03483 0.0
H476 H 0.40785 0.87102 0.19677 0.0
H477 H 0.34743 0.79401 0.2383 0.0
H478 H 0.42503 0.88407 0.26146 0.0
H479 H 0.36338 0.80756 0.30387 0.0
H480 H 0.42168 0.8261 0.40462 0.0
H481 H 0.39686 0.8137 0.3447 0.0
H482 H 0.42339 0.8968 0.32272 0.0
H483 H 0.44968 0.90898 0.3817 0.0
C484 C 0.39773 0.8571 0.21997 0.0
C485 C 0.37634 0.8314 0.21226 0.0
C486 C 0.40751 0.86465 0.25743 0.0
C487 C 0.39584 0.84694 0.28856 0.0
C488 C 0.37348 0.82166 0.2809 0.0
C489 C 0.36408 0.8139 0.24323 0.0
C490 C 0.42155 0.84159 0.38749 0.0
C491 C 0.43746 0.86847 0.39802 0.0
C492 C 0.40728 0.83453 0.35283 0.0
C493 C 0.40815 0.85418 0.328 0.0
C494 C 0.4227 0.88102 0.34013 0.0
C495 C 0.43751 0.88807 0.37434 0.0
H496 H 0.5748 0.34103 0.39941 0.0
H497 H 0.55514 0.39872 0.35616 0.0
H498 H 0.57248 0.35429 0.46502 0.0
H499 H 0.55467 0.41351 0.42133 0.0
H500 H 0.54803 0.43428 0.54176 0.0
H501 H 0.53758 0.40954 0.48147 0.0
H502 H 0.59678 0.3873 0.50794 0.0
H503 H 0.60553 0.41044 0.56888 0.0
C504 C 0.56985 0.3565 0.40402 0.0
C505 C 0.56519 0.36884 0.37262 0.0
C506 C 0.5688 0.36439 0.44173 0.0
C507 C 0.56381 0.38541 0.44909 0.0
C508 C 0.55816 0.39701 0.41744 0.0
C509 C 0.55855 0.38862 0.37978 0.0
C510 C 0.5581 0.42331 0.53506 0.0
C511 C 0.57736 0.42401 0.56028 0.0
C512 C 0.55246 0.40943 0.50013 0.0
C513 C 0.56656 0.39657 0.48894 0.0
C514 C 0.585 0.39637 0.51526 0.0
C515 C 0.5901 0.40968 0.55055 0.0
H516 H 0.9877 0.41374 0.26713 0.0
H517 H 0.96457 0.43679 0.3717 0.0
H518 H 0.03443 0.4414 0.28475 0.0
H519 H 1.01156 0.46509 0.38894 0.0
H520 H 0.09991 0.49596 0.42182 0.0
H521 H 0.05285 0.46423 0.40766 0.0
H522 H 0.06586 0.48935 0.28901 0.0
H523 H 0.11255 0.52042 0.30298 0.0
C524 C 0.99251 0.42449 0.29407 0.0
C525 C 0.97224 0.42303 0.31788 0.0
C526 C 1.01939 0.4406 0.30402 0.0
C527 C 0.02681 0.45563 0.33817 0.0
C528 C 1.00657 0.45366 0.36255 0.0
C529 C 0.97962 0.43765 0.35245 0.0
C530 C 0.0927 0.49444 0.3927 0.0
C531 C 0.10998 0.51083 0.3636 0.0
C532 C 0.06572 0.47646 0.38463 0.0
C533 C 0.05554 0.47422 0.34717 0.0
C534 C 0.07301 0.49031 0.31807 0.0
C535 C 0.09978 0.50837 0.32618 0.0
H536 H 0.52941 0.95848 0.54246 0.0
H537 H 0.58662 0.97472 0.45222 0.0
H538 H 0.54944 1.0064 0.55405 0.0
H539 H 0.60698 0.02222 0.46454 0.0
H540 H 0.61501 0.10445 0.46288 0.0
H541 H 0.59576 0.05668 0.45484 0.0
H542 H 0.59034 0.04655 0.57805 0.0
H543 H 0.60917 0.09477 0.5861 0.0
C544 C 0.54623 0.97218 0.52512 0.0
C545 C 0.55627 0.96256 0.49629 0.0
C546 C 0.55792 0.99968 0.53207 0.0
C547 C 0.57981 0.01827 0.51017 0.0
C548 C 0.58997 1.00858 0.4817 0.0
C549 C 0.57841 0.9812 0.47488 0.0
C550 C 0.6096 0.09213 0.48835 0.0
C551 C 0.61354 0.10357 0.52517 0.0
C552 C 0.59879 0.06465 0.48373 0.0
C553 C 0.59151 0.04765 0.51577 0.0
C554 C 0.59552 0.05902 0.55271 0.0
C555 C 0.60657 0.08668 0.55736 0.0
H556 H 0.5307 0.61429 0.72763 0.0
H557 H 0.47871 0.55648 0.64397 0.0
H558 H 0.56096 0.59646 0.72315 0.0
H559 H 0.50907 0.53923 0.63868 0.0
H560 H 0.55648 0.49821 0.66075 0.0
H561 H 0.52589 0.51454 0.67335 0.0
H562 H 0.59219 0.59531 0.67666 0.0
H563 H 0.62292 0.57887 0.6653 0.0
C564 C 0.52561 0.59767 0.70853 0.0
C565 C 0.50233 0.58695 0.68599 0.0
C566 C 0.54308 0.58761 0.70566 0.0
C567 C 0.53753 0.56642 0.68045 0.0
C568 C 0.51392 0.55536 0.65866 0.0
C569 C 0.49661 0.56548 0.66137 0.0
C570 C 0.56464 0.51941 0.66472 0.0
C571 C 0.59226 0.53718 0.66181 0.0
C572 C 0.54703 0.52883 0.67157 0.0
C573 C 0.55651 0.55629 0.67581 0.0
C574 C 0.58417 0.57403 0.67384 0.0
C575 C 0.60179 0.5646 0.66685 0.0
H576 H 0.07494 0.58962 0.87952 0.0
H577 H 0.05632 0.60602 0.76652 0.0
H578 H 0.02723 0.56373 0.89459 0.0
H579 H 1.00902 0.57931 0.78023 0.0
H580 H 0.92742 0.5537 0.82197 0.0
H581 H 0.97542 0.58029 0.8135 0.0
H582 H 0.98558 0.525 0.88501 0.0
H583 H 0.93717 0.49931 0.89508 0.0
C584 C 0.06057 0.58735 0.85778 0.0
C585 C 0.06929 0.6001 0.82205 0.0
C586 C 0.03321 0.57246 0.86628 0.0
C587 C 1.01396 0.56965 0.83894 0.0
C588 C 0.02298 0.58167 0.80268 0.0
C589 C 0.05018 0.59688 0.79457 0.0
C590 C 0.94002 0.54744 0.83612 0.0
C591 C 0.92866 0.52442 0.85893 0.0
C592 C 0.96759 0.5625 0.83099 0.0
C593 C 0.98467 0.5546 0.84773 0.0
C594 C 0.97327 0.53191 0.87173 0.0
C595 C 0.94554 0.51711 0.87751 0.0
H596 H 0.45878 0.05474 0.93413 0.0
H597 H 0.50625 0.07259 0.03712 0.0
H598 H 0.43533 1.00768 0.9505 0.0
H599 H 0.48224 0.02529 0.05436 0.0
H600 H 0.44941 0.93393 0.0528 0.0
H601 H 0.47471 0.98179 0.03897 0.0
H602 H 0.40324 0.97753 0.99361 0.0
H603 H 0.37852 0.92993 1.00639 0.0
C604 C 0.46399 0.04861 0.96056 0.0
C605 C 0.48423 0.06747 0.98446 0.0
C606 C 0.45047 0.02156 0.9701 0.0
C607 C 0.45655 1.01253 1.0041 0.0
C608 C 0.47712 0.03138 0.02779 0.0
C609 C 0.49087 0.05852 1.01798 0.0
C610 C 0.43918 0.94338 0.04016 0.0
C611 C 0.41206 0.92811 0.03024 0.0
C612 C 0.45363 0.97082 0.03226 0.0
C613 C 0.44118 0.98362 1.01459 0.0
C614 C 0.41378 0.96837 1.00612 0.0
C615 C 0.39951 0.94102 1.01361 0.0
H616 H 0.46476 0.50298 0.26421 0.0
H617 H 0.48271 0.52006 0.14379 0.0
H618 H 0.48357 0.47381 0.26324 0.0
H619 H 0.50222 0.49122 0.14277 0.0
H620 H 0.51421 0.41913 0.14623 0.0
H621 H 0.49334 0.44654 0.14628 0.0
H622 H 0.5249 0.47509 0.25997 0.0
H623 H 0.54532 0.4472 0.26004 0.0
C624 C 0.47294 0.50064 0.23752 0.0
C625 C 0.47242 0.51404 0.20413 0.0
C626 C 0.48385 0.48395 0.23698 0.0
C627 C 0.49478 0.48026 0.20305 0.0
C628 C 0.49377 0.49327 0.16938 0.0
C629 C 0.48261 0.50986 0.16989 0.0
C630 C 0.51682 0.43135 0.17117 0.0
C631 C 0.53152 0.43095 0.20313 0.0
C632 C 0.50487 0.44717 0.17117 0.0
C633 C 0.50738 0.46318 0.20308 0.0
C634 C 0.52207 0.46272 0.23509 0.0
C635 C 0.53386 0.44674 0.23518 0.0
H636 H 0.24314 0.5399 0.32628 0.0
H637 H 0.29402 0.54062 0.41759 0.0
H638 H 0.27229 0.5364 0.27888 0.0
H639 H 0.3231 0.53714 0.37021 0.0
H640 H 0.35777 0.50822 0.27741 0.0
H641 H 0.32446 0.50653 0.32178 0.0
H642 H 0.31845 0.56568 0.25416 0.0
H643 H 0.35182 0.5674 0.20957 0.0
C644 C 0.26034 0.53899 0.33633 0.0
C645 C 0.26619 0.54054 0.37586 0.0
C646 C 0.27717 0.53719 0.30908 0.0
C647 C 0.3001 0.53657 0.32066 0.0
C648 C 0.30549 0.53732 0.36024 0.0
C649 C 0.28884 0.53941 0.38745 0.0
C650 C 0.34918 0.52069 0.27166 0.0
C651 C 0.35763 0.53803 0.23987 0.0
C652 C 0.33018 0.51982 0.29732 0.0
C653 C 0.31889 0.53609 0.29175 0.0
C654 C 0.32659 0.55273 0.2592 0.0
C655 C 0.3458 0.55378 0.23367 0.0
H656 H 0.82023 0.37734 0.40806 0.0
H657 H 0.84557 0.31913 0.3981 0.0
H658 H 0.78916 0.35058 0.45923 0.0
H659 H 0.8149 0.29276 0.44881 0.0
H660 H 0.73219 0.23607 0.49963 0.0
H661 H 0.7662 0.26524 0.45386 0.0
H662 H 0.78587 0.33318 0.52618 0.0
H663 H 0.75171 0.30401 0.57203 0.0
C664 C 0.81952 0.35914 0.41716 0.0
C665 C 0.83528 0.35033 0.39871 0.0
C666 C 0.80173 0.34379 0.44647 0.0
C667 C 0.79926 0.3193 0.45775 0.0
C668 C 0.81585 0.31119 0.44033 0.0
C669 C 0.8336 0.32648 0.41133 0.0
C670 C 0.7439 0.25718 0.50601 0.0
C671 C 0.73924 0.26761 0.53966 0.0
C672 C 0.76348 0.27393 0.47979 0.0
C673 C 0.77881 0.3016 0.48633 0.0
C674 C 0.77428 0.31203 0.52009 0.0
C675 C 0.75484 0.29522 0.54653 0.0
H676 H 0.46529 0.69729 0.65216 0.0
H677 H 0.47951 0.74395 0.75538 0.0
H678 H 0.46902 0.73423 0.61374 0.0
H679 H 0.48386 0.78127 0.71652 0.0
H680 H 0.52277 0.84797 0.61757 0.0
H681 H 0.51663 0.8126 0.66204 0.0
H682 H 0.4414 0.75883 0.60803 0.0
H683 H 0.44718 0.79432 0.56408 0.0
C684 C 0.46956 0.71555 0.66666 0.0
C685 C 0.47225 0.71768 0.7069 0.0
C686 C 0.47141 0.73661 0.64463 0.0
C687 C 0.47651 0.76056 0.66214 0.0
C688 C 0.47989 0.76303 0.70226 0.0
C689 C 0.47745 0.74169 0.72446 0.0
C690 C 0.50463 0.82877 0.61575 0.0
C691 C 0.48544 0.824 0.58731 0.0
C692 C 0.50114 0.80854 0.64122 0.0
C693 C 0.47867 0.78289 0.63826 0.0
C694 C 0.45902 0.77836 0.61076 0.0
C695 C 0.46223 0.79876 0.58583 0.0
H696 H 0.7385 0.47941 0.92921 0.0
H697 H 0.77999 0.47515 0.82888 0.0
H698 H 0.70389 0.47865 0.88754 0.0
H699 H 0.74529 0.47381 0.78773 0.0
H700 H 0.66374 0.44154 0.73022 0.0
H701 H 0.69439 0.44004 0.77723 0.0
H702 H 0.70199 0.50986 0.83335 0.0
H703 H 0.67175 0.51174 0.78593 0.0
C704 C 0.74032 0.47844 0.89836 0.0
C705 C 0.76213 0.47751 0.88243 0.0
C706 C 0.7205 0.47796 0.87456 0.0
C707 C 0.72175 0.47587 0.83443 0.0
C708 C 0.7436 0.47507 0.81857 0.0
C709 C 0.76363 0.47612 0.8422 0.0
C710 C 0.67148 0.45624 0.75304 0.0
C711 C 0.66532 0.47679 0.75428 0.0
C712 C 0.68921 0.45551 0.77976 0.0
C713 C 0.70075 0.47497 0.80876 0.0
C714 C 0.69337 0.49457 0.81139 0.0
C715 C 0.67606 0.49563 0.78421 0.0
H716 H 0.26964 0.77873 0.06034 0.0
H717 H 0.3284 0.75824 1.02475 0.0
H718 H 0.23739 0.74549 1.01632 0.0
H719 H 0.29635 0.72548 0.97979 0.0
H720 H 0.22654 0.65698 0.91478 0.0
H721 H 0.25522 0.68378 0.9682 0.0
H722 H 0.23127 0.74235 0.94877 0.0
H723 H 0.20256 0.71563 0.89676 0.0
C724 C 0.27566 0.76702 0.04333 0.0
C725 C 0.30176 0.77142 0.04595 0.0
C726 C 0.25717 0.74801 1.0178 0.0
C727 C 0.26427 0.73296 0.99387 0.0
C728 C 0.29001 0.73649 0.99781 0.0
C729 C 0.30849 0.75544 1.02355 0.0
C730 C 0.22719 0.67541 0.92235 0.0
C731 C 0.2122 0.68408 0.90136 0.0
C732 C 0.24378 0.6909 0.9528 0.0
C733 C 0.24561 0.71531 0.96308 0.0
C734 C 0.23014 0.72353 0.94242 0.0
C735 C 0.21374 0.7082 0.91217 0.0
H736 H 0.55511 0.26702 0.25482 0.0
H737 H 0.56158 0.31714 0.15881 0.0
H738 H 0.55474 0.23415 0.21029 0.0
H739 H 0.56144 0.28443 0.11453 0.0
H740 H 0.58994 0.23417 0.05061 0.0
H741 H 0.5921 0.26614 0.09843 0.0
H742 H 0.52474 0.2028 0.15775 0.0
H743 H 0.5224 0.17087 0.10987 0.0
C744 C 0.55628 0.27096 0.22425 0.0
C745 C 0.55826 0.29469 0.21043 0.0
C746 C 0.55607 0.25213 0.19876 0.0
C747 C 0.55831 0.2568 0.15891 0.0
C748 C 0.56006 0.28041 0.1451 0.0
C749 C 0.55985 0.29903 0.17049 0.0
C750 C 0.57589 0.22697 0.07422 0.0
C751 C 0.55598 0.19995 0.07639 0.0
C752 C 0.57696 0.24534 0.10139 0.0
C753 C 0.55843 0.23703 0.13167 0.0
C754 C 0.53934 0.20981 0.13485 0.0
C755 C 0.538 0.19153 0.10737 0.0
loop_
_geom_bond_atom_site_label_1
_geom_bond_atom_site_label_2
_geom_bond_distance
_geom_bond_site_symmetry_2
_ccdc_geom_bond_type
Cu0 N1 1.999 . S
Cu0 O6 1.974 . S
Cu0 N11 1.985 . S
Cu0 O20 1.959 . S
N1 Cu0 1.999 . S
N1 C3 1.263 . S
N1 C5 1.389 . S
N2 C3 1.358 . S
N2 C4 1.400 . S
C3 N1 1.263 . S
C3 N2 1.358 . S
C3 H9 0.930 . S
C4 N2 1.400 . S
C4 C5 1.351 . S
C4 H21 0.930 . S
C5 N1 1.389 . S
C5 C4 1.351 . S
C5 H10 0.930 . S
O6 Cu0 1.974 . S
O6 C16 1.282 . S
C7 O8 1.261 . S
C7 O20 1.251 . S
O8 C7 1.261 . S
H9 C3 0.930 . S
H10 C5 0.930 . S
N11 Cu0 1.985 . S
N11 C13 1.335 . S
N11 C14 1.390 . S
N12 C13 1.345 . S
N12 C15 1.336 . S
C13 N11 1.335 . S
C13 N12 1.345 . S
C13 H18 0.930 . S
C14 N11 1.390 . S
C14 C15 1.346 . S
C14 H19 0.930 . S
C15 N12 1.336 . S
C15 C14 1.346 . S
C15 H22 0.929 . S
C16 O6 1.282 . S
C16 O17 1.216 . S
O17 C16 1.216 . S
H18 C13 0.930 . S
H19 C14 0.930 . S
O20 Cu0 1.959 . S
O20 C7 1.251 . S
H21 C4 0.930 . S
H22 C15 0.929 . S
Cu23 N24 1.999 . S
Cu23 O29 1.974 . S
Cu23 N34 1.985 . S
Cu23 O43 1.959 . S
N24 Cu23 1.999 . S
N24 C26 1.263 . S
N24 C28 1.389 . S
N25 C26 1.358 . S
N25 C27 1.400 . S
C26 N24 1.263 . S
C26 N25 1.358 . S
C26 H32 0.930 . S
C27 N25 1.400 . S
C27 C28 1.351 . S
C27 H44 0.930 . S
C28 N24 1.389 . S
C28 C27 1.351 . S
C28 H33 0.930 . S
O29 Cu23 1.974 . S
O29 C39 1.282 . S
C30 O31 1.261 . S
C30 O43 1.251 . S
O31 C30 1.261 . S
H32 C26 0.930 . S
H33 C28 0.930 . S
N34 Cu23 1.985 . S
N34 C36 1.335 . S
N34 C37 1.390 . S
N35 C36 1.345 . S
N35 C38 1.336 . S
C36 N34 1.335 . S
C36 N35 1.345 . S
C36 H41 0.930 . S
C37 N34 1.390 . S
C37 C38 1.346 . S
C37 H42 0.930 . S
C38 N35 1.336 . S
C38 C37 1.346 . S
C38 H45 0.929 . S
C39 O29 1.282 . S
C39 O40 1.216 . S
O40 C39 1.216 . S
H41 C36 0.930 . S
H42 C37 0.930 . S
O43 Cu23 1.959 . S
O43 C30 1.251 . S
H44 C27 0.930 . S
H45 C38 0.929 . S
Cu46 N47 1.999 . S
Cu46 O52 1.974 . S
Cu46 N57 1.985 . S
Cu46 O66 1.959 . S
N47 Cu46 1.999 . S
N47 C49 1.263 . S
N47 C51 1.389 . S
N48 C49 1.358 . S
N48 C50 1.400 . S
C49 N47 1.263 . S
C49 N48 1.358 . S
C49 H55 0.930 . S
C50 N48 1.400 . S
C50 C51 1.351 . S
C50 H67 0.930 . S
C51 N47 1.389 . S
C51 C50 1.351 . S
C51 H56 0.930 . S
O52 Cu46 1.974 . S
O52 C62 1.282 . S
C53 O54 1.261 . S
C53 O66 1.251 . S
O54 C53 1.261 . S
H55 C49 0.930 . S
H56 C51 0.930 . S
N57 Cu46 1.985 . S
N57 C59 1.335 . S
N57 C60 1.390 . S
N58 C59 1.345 . S
N58 C61 1.336 . S
C59 N57 1.335 . S
C59 N58 1.345 . S
C59 H64 0.930 . S
C60 N57 1.390 . S
C60 C61 1.346 . S
C60 H65 0.930 . S
C61 N58 1.336 . S
C61 C60 1.346 . S
C61 H68 0.929 . S
C62 O52 1.282 . S
C62 O63 1.216 . S
O63 C62 1.216 . S
H64 C59 0.930 . S
H65 C60 0.930 . S
O66 Cu46 1.959 . S
O66 C53 1.251 . S
H67 C50 0.930 . S
H68 C61 0.929 . S
Cu69 N70 1.999 . S
Cu69 O75 1.974 . S
Cu69 N80 1.985 . S
Cu69 O89 1.959 . S
N70 Cu69 1.999 . S
N70 C72 1.263 . S
N70 C74 1.389 . S
N71 C72 1.358 . S
N71 C73 1.400 . S
C72 N70 1.263 . S
C72 N71 1.358 . S
C72 H78 0.930 . S
C73 N71 1.400 . S
C73 C74 1.351 . S
C73 H90 0.930 . S
C74 N70 1.389 . S
C74 C73 1.351 . S
C74 H79 0.930 . S
O75 Cu69 1.974 . S
O75 C85 1.282 . S
C76 O77 1.261 . S
C76 O89 1.251 . S
O77 C76 1.261 . S
H78 C72 0.930 . S
H79 C74 0.930 . S
N80 Cu69 1.985 . S
N80 C82 1.335 . S
N80 C83 1.390 . S
N81 C82 1.345 . S
N81 C84 1.336 . S
C82 N80 1.335 . S
C82 N81 1.345 . S
C82 H87 0.930 . S
C83 N80 1.390 . S
C83 C84 1.346 . S
C83 H88 0.930 . S
C84 N81 1.336 . S
C84 C83 1.346 . S
C84 H91 0.929 . S
C85 O75 1.282 . S
C85 O86 1.216 . S
O86 C85 1.216 . S
H87 C82 0.930 . S
H88 C83 0.930 . S
O89 Cu69 1.959 . S
O89 C76 1.251 . S
H90 C73 0.930 . S
H91 C84 0.929 . S
Cu92 N93 1.999 . S
Cu92 O98 1.974 . S
Cu92 N103 1.985 . S
Cu92 O112 1.959 . S
N93 Cu92 1.999 . S
N93 C95 1.263 . S
N93 C97 1.389 . S
N94 C95 1.358 . S
N94 C96 1.400 . S
C95 N93 1.263 . S
C95 N94 1.358 . S
C95 H101 0.930 . S
C96 N94 1.400 . S
C96 C97 1.351 . S
C96 H113 0.930 . S
C97 N93 1.389 . S
C97 C96 1.351 . S
C97 H102 0.930 . S
O98 Cu92 1.974 . S
O98 C108 1.282 . S
C99 O100 1.261 . S
C99 O112 1.251 . S
O100 C99 1.261 . S
H101 C95 0.930 . S
H102 C97 0.930 . S
N103 Cu92 1.985 . S
N103 C105 1.335 . S
N103 C106 1.390 . S
N104 C105 1.345 . S
N104 C107 1.336 . S
C105 N103 1.335 . S
C105 N104 1.345 . S
C105 H110 0.930 . S
C106 N103 1.390 . S
C106 C107 1.346 . S
C106 H111 0.930 . S
C107 N104 1.336 . S
C107 C106 1.346 . S
C107 H114 0.929 . S
C108 O98 1.282 . S
C108 O109 1.216 . S
O109 C108 1.216 . S
H110 C105 0.930 . S
H111 C106 0.930 . S
O112 Cu92 1.959 . S
O112 C99 1.251 . S
H113 C96 0.930 . S
H114 C107 0.929 . S
Cu115 N116 1.999 . S
Cu115 O121 1.974 . S
Cu115 N126 1.985 . S
Cu115 O135 1.959 . S
N116 Cu115 1.999 . S
N116 C118 1.263 . S
N116 C120 1.389 . S
N117 C118 1.358 . S
N117 C119 1.400 . S
C118 N116 1.263 . S
C118 N117 1.358 . S
C118 H124 0.930 . S
C119 N117 1.400 . S
C119 C120 1.351 . S
C119 H136 0.930 . S
C120 N116 1.389 . S
C120 C119 1.351 . S
C120 H125 0.930 . S
O121 Cu115 1.974 . S
O121 C131 1.282 . S
C122 O123 1.261 . S
C122 O135 1.251 . S
O123 C122 1.261 . S
H124 C118 0.930 . S
H125 C120 0.930 . S
N126 Cu115 1.985 . S
N126 C128 1.335 . S
N126 C129 1.390 . S
N127 C128 1.345 . S
N127 C130 1.336 . S
C128 N126 1.335 . S
C128 N127 1.345 . S
C128 H133 0.930 . S
C129 N126 1.390 . S
C129 C130 1.346 . S
C129 H134 0.930 . S
C130 N127 1.336 . S
C130 C129 1.346 . S
C130 H137 0.929 . S
C131 O121 1.282 . S
C131 O132 1.216 . S
O132 C131 1.216 . S
H133 C128 0.930 . S
H134 C129 0.930 . S
O135 Cu115 1.959 . S
O135 C122 1.251 . S
H136 C119 0.930 . S
H137 C130 0.929 . S
Cu138 N139 1.999 . S
Cu138 O144 1.974 . S
Cu138 N149 1.985 . S
Cu138 O158 1.959 . S
N139 Cu138 1.999 . S
N139 C141 1.263 . S
N139 C143 1.389 . S
N140 C141 1.358 . S
N140 C142 1.400 . S
C141 N139 1.263 . S
C141 N140 1.358 . S
C141 H147 0.930 . S
C142 N140 1.400 . S
C142 C143 1.351 . S
C142 H159 0.930 . S
C143 N139 1.389 . S
C143 C142 1.351 . S
C143 H148 0.930 . S
O144 Cu138 1.974 . S
O144 C154 1.282 . S
C145 O146 1.261 . S
C145 O158 1.251 . S
O146 C145 1.261 . S
H147 C141 0.930 . S
H148 C143 0.930 . S
N149 Cu138 1.985 . S
N149 C151 1.335 . S
N149 C152 1.390 . S
N150 C151 1.345 . S
N150 C153 1.336 . S
C151 N149 1.335 . S
C151 N150 1.345 . S
C151 H156 0.930 . S
C152 N149 1.390 . S
C152 C153 1.346 . S
C152 H157 0.930 . S
C153 N150 1.336 . S
C153 C152 1.346 . S
C153 H160 0.929 . S
C154 O144 1.282 . S
C154 O155 1.216 . S
O155 C154 1.216 . S
H156 C151 0.930 . S
H157 C152 0.930 . S
O158 Cu138 1.959 . S
O158 C145 1.251 . S
H159 C142 0.930 . S
H160 C153 0.929 . S
Cu161 N162 1.999 . S
Cu161 O167 1.974 . S
Cu161 N172 1.985 . S
Cu161 O181 1.959 . S
N162 Cu161 1.999 . S
N162 C164 1.263 . S
N162 C166 1.389 . S
N163 C164 1.358 . S
N163 C165 1.400 . S
C164 N162 1.263 . S
C164 N163 1.358 . S
C164 H170 0.930 . S
C165 N163 1.400 . S
C165 C166 1.351 . S
C165 H182 0.930 . S
C166 N162 1.389 . S
C166 C165 1.351 . S
C166 H171 0.930 . S
O167 Cu161 1.974 . S
O167 C177 1.282 . S
C168 O169 1.261 . S
C168 O181 1.251 . S
O169 C168 1.261 . S
H170 C164 0.930 . S
H171 C166 0.930 . S
N172 Cu161 1.985 . S
N172 C174 1.335 . S
N172 C175 1.390 . S
N173 C174 1.345 . S
N173 C176 1.336 . S
C174 N172 1.335 . S
C174 N173 1.345 . S
C174 H179 0.930 . S
C175 N172 1.390 . S
C175 C176 1.346 . S
C175 H180 0.930 . S
C176 N173 1.336 . S
C176 C175 1.346 . S
C176 H183 0.929 . S
C177 O167 1.282 . S
C177 O178 1.216 . S
O178 C177 1.216 . S
H179 C174 0.930 . S
H180 C175 0.930 . S
O181 Cu161 1.959 . S
O181 C168 1.251 . S
H182 C165 0.930 . S
H183 C176 0.929 . S
Cu184 N185 1.999 . S
Cu184 O190 1.974 . S
Cu184 N195 1.985 . S
Cu184 O204 1.959 . S
N185 Cu184 1.999 . S
N185 C187 1.263 . S
N185 C189 1.389 . S
N186 C187 1.358 . S
N186 C188 1.400 . S
C187 N185 1.263 . S
C187 N186 1.358 . S
C187 H193 0.930 . S
C188 N186 1.400 . S
C188 C189 1.351 . S
C188 H205 0.930 . S
C189 N185 1.389 . S
C189 C188 1.351 . S
C189 H194 0.930 . S
O190 Cu184 1.974 . S
O190 C200 1.282 . S
C191 O192 1.261 . S
C191 O204 1.251 . S
O192 C191 1.261 . S
H193 C187 0.930 . S
H194 C189 0.930 . S
N195 Cu184 1.985 . S
N195 C197 1.335 . S
N195 C198 1.390 . S
N196 C197 1.345 . S
N196 C199 1.336 . S
C197 N195 1.335 . S
C197 N196 1.345 . S
C197 H202 0.930 . S
C198 N195 1.390 . S
C198 C199 1.346 . S
C198 H203 0.930 . S
C199 N196 1.336 . S
C199 C198 1.346 . S
C199 H206 0.929 . S
C200 O190 1.282 . S
C200 O201 1.216 . S
O201 C200 1.216 . S
H202 C197 0.930 . S
H203 C198 0.930 . S
O204 Cu184 1.959 . S
O204 C191 1.251 . S
H205 C188 0.930 . S
H206 C199 0.929 . S
Cu207 N208 1.999 . S
Cu207 O213 1.974 . S
Cu207 N218 1.985 . S
Cu207 O227 1.959 . S
N208 Cu207 1.999 . S
N208 C210 1.263 . S
N208 C212 1.389 . S
N209 C210 1.358 . S
N209 C211 1.400 . S
C210 N208 1.263 . S
C210 N209 1.358 . S
C210 H216 0.930 . S
C211 N209 1.400 . S
C211 C212 1.351 . S
C211 H228 0.930 . S
C212 N208 1.389 . S
C212 C211 1.351 . S
C212 H217 0.930 . S
O213 Cu207 1.974 . S
O213 C223 1.282 . S
C214 O215 1.261 . S
C214 O227 1.251 . S
O215 C214 1.261 . S
H216 C210 0.930 . S
H217 C212 0.930 . S
N218 Cu207 1.985 . S
N218 C220 1.335 . S
N218 C221 1.390 . S
N219 C220 1.345 . S
N219 C222 1.336 . S
C220 N218 1.335 . S
C220 N219 1.345 . S
C220 H225 0.930 . S
C221 N218 1.390 . S
C221 C222 1.346 . S
C221 H226 0.930 . S
C222 N219 1.336 . S
C222 C221 1.346 . S
C222 H229 0.929 . S
C223 O213 1.282 . S
C223 O224 1.216 . S
O224 C223 1.216 . S
H225 C220 0.930 . S
H226 C221 0.930 . S
O227 Cu207 1.959 . S
O227 C214 1.251 . S
H228 C211 0.930 . S
H229 C222 0.929 . S
Cu230 N231 1.999 . S
Cu230 O236 1.974 . S
Cu230 N241 1.985 . S
Cu230 O250 1.959 . S
N231 Cu230 1.999 . S
N231 C233 1.263 . S
N231 C235 1.389 . S
N232 C233 1.358 . S
N232 C234 1.400 . S
C233 N231 1.263 . S
C233 N232 1.358 . S
C233 H239 0.930 . S
C234 N232 1.400 . S
C234 C235 1.351 . S
C234 H251 0.930 . S
C235 N231 1.389 . S
C235 C234 1.351 . S
C235 H240 0.930 . S
O236 Cu230 1.974 . S
O236 C246 1.282 . S
C237 O238 1.261 . S
C237 O250 1.251 . S
O238 C237 1.261 . S
H239 C233 0.930 . S
H240 C235 0.930 . S
N241 Cu230 1.985 . S
N241 C243 1.335 . S
N241 C244 1.390 . S
N242 C243 1.345 . S
N242 C245 1.336 . S
C243 N241 1.335 . S
C243 N242 1.345 . S
C243 H248 0.930 . S
C244 N241 1.390 . S
C244 C245 1.346 . S
C244 H249 0.930 . S
C245 N242 1.336 . S
C245 C244 1.346 . S
C245 H252 0.929 . S
C246 O236 1.282 . S
C246 O247 1.216 . S
O247 C246 1.216 . S
H248 C243 0.930 . S
H249 C244 0.930 . S
O250 Cu230 1.959 . S
O250 C237 1.251 . S
H251 C234 0.930 . S
H252 C245 0.929 . S
Cu253 N254 1.999 . S
Cu253 O259 1.974 . S
Cu253 N264 1.985 . S
Cu253 O273 1.959 . S
N254 Cu253 1.999 . S
N254 C256 1.263 . S
N254 C258 1.389 . S
N255 C256 1.358 . S
N255 C257 1.400 . S
C256 N254 1.263 . S
C256 N255 1.358 . S
C256 H262 0.930 . S
C257 N255 1.400 . S
C257 C258 1.351 . S
C257 H274 0.930 . S
C258 N254 1.389 . S
C258 C257 1.351 . S
C258 H263 0.930 . S
O259 Cu253 1.974 . S
O259 C269 1.282 . S
C260 O261 1.261 . S
C260 O273 1.251 . S
O261 C260 1.261 . S
H262 C256 0.930 . S
H263 C258 0.930 . S
N264 Cu253 1.985 . S
N264 C266 1.335 . S
N264 C267 1.390 . S
N265 C266 1.345 . S
N265 C268 1.336 . S
C266 N264 1.335 . S
C266 N265 1.345 . S
C266 H271 0.930 . S
C267 N264 1.390 . S
C267 C268 1.346 . S
C267 H272 0.930 . S
C268 N265 1.336 . S
C268 C267 1.346 . S
C268 H275 0.929 . S
C269 O259 1.282 . S
C269 O270 1.216 . S
O270 C269 1.216 . S
H271 C266 0.930 . S
H272 C267 0.930 . S
O273 Cu253 1.959 . S
O273 C260 1.251 . S
H274 C257 0.930 . S
H275 C268 0.929 . S
H276 C284 0.950 . S
H277 C289 0.950 . S
H278 C286 0.950 . S
H279 C288 0.950 . S
H280 C290 0.950 . S
H281 C292 0.950 . S
H282 C294 0.950 . S
H283 C295 0.950 . S
C284 H276 0.950 . S
C284 C285 1.386 . S
C284 C286 1.391 . S
C285 C284 1.386 . S
C285 C289 1.393 . S
C286 H278 0.950 . S
C286 C284 1.391 . S
C286 C287 1.400 . S
C287 C286 1.400 . S
C287 C288 1.398 . S
C287 C293 1.491 . S
C288 H279 0.950 . S
C288 C287 1.398 . S
C288 C289 1.391 . S
C289 H277 0.950 . S
C289 C285 1.393 . S
C289 C288 1.391 . S
C290 H280 0.950 . S
C290 C291 1.386 . S
C290 C292 1.391 . S
C291 C290 1.386 . S
C291 C295 1.393 . S
C292 H281 0.950 . S
C292 C290 1.391 . S
C292 C293 1.400 . S
C293 C287 1.491 . S
C293 C292 1.400 . S
C293 C294 1.398 . S
C294 H282 0.950 . S
C294 C293 1.398 . S
C294 C295 1.391 . S
C295 H283 0.950 . S
C295 C291 1.393 . S
C295 C294 1.391 . S
H296 C304 0.950 . S
H297 C309 0.950 . S
H298 C306 0.950 . S
H299 C308 0.950 . S
H300 C310 0.950 . S
H301 C312 0.950 . S
H302 C314 0.950 . S
H303 C315 0.950 . S
C304 H296 0.950 . S
C304 C305 1.386 . S
C304 C306 1.391 . S
C305 C304 1.386 . S
C305 C309 1.393 . S
C306 H298 0.950 . S
C306 C304 1.391 . S
C306 C307 1.400 . S
C307 C306 1.400 . S
C307 C308 1.398 . S
C307 C313 1.491 . S
C308 H299 0.950 . S
C308 C307 1.398 . S
C308 C309 1.391 . S
C309 H297 0.950 . S
C309 C305 1.393 . S
C309 C308 1.391 . S
C310 H300 0.950 . S
C310 C311 1.386 . S
C310 C312 1.391 . S
C311 C310 1.386 . S
C311 C315 1.393 . S
C312 H301 0.950 . S
C312 C310 1.391 . S
C312 C313 1.400 . S
C313 C307 1.491 . S
C313 C312 1.400 . S
C313 C314 1.398 . S
C314 H302 0.950 . S
C314 C313 1.398 . S
C314 C315 1.391 . S
C315 H303 0.950 . S
C315 C311 1.393 . S
C315 C314 1.391 . S
H316 C324 0.950 . S
H317 C329 0.950 . S
H318 C326 0.950 . S
H319 C328 0.950 . S
H320 C330 0.950 . S
H321 C332 0.950 . S
H322 C334 0.950 . S
H323 C335 0.950 . S
C324 H316 0.950 . S
C324 C325 1.386 . S
C324 C326 1.391 . S
C325 C324 1.386 . S
C325 C329 1.393 . S
C326 H318 0.950 . S
C326 C324 1.391 . S
C326 C327 1.400 . S
C327 C326 1.400 . S
C327 C328 1.398 . S
C327 C333 1.491 . S
C328 H319 0.950 . S
C328 C327 1.398 . S
C328 C329 1.391 . S
C329 H317 0.950 . S
C329 C325 1.393 . S
C329 C328 1.391 . S
C330 H320 0.950 . S
C330 C331 1.386 . S
C330 C332 1.391 . S
C331 C330 1.386 . S
C331 C335 1.393 . S
C332 H321 0.950 . S
C332 C330 1.391 . S
C332 C333 1.400 . S
C333 C327 1.491 . S
C333 C332 1.400 . S
C333 C334 1.398 . S
C334 H322 0.950 . S
C334 C333 1.398 . S
C334 C335 1.391 . S
C335 H323 0.950 . S
C335 C331 1.393 . S
C335 C334 1.391 . S
H336 C344 0.950 . S
H337 C349 0.950 . S
H338 C346 0.950 . S
H339 C348 0.950 . S
H340 C350 0.950 . S
H341 C352 0.950 . S
H342 C354 0.950 . S
H343 C355 0.950 . S
C344 H336 0.950 . S
C344 C345 1.386 . S
C344 C346 1.391 . S
C345 C344 1.386 . S
C345 C349 1.393 . S
C346 H338 0.950 . S
C346 C344 1.391 . S
C346 C347 1.400 . S
C347 C346 1.400 . S
C347 C348 1.398 . S
C347 C353 1.491 . S
C348 H339 0.950 . S
C348 C347 1.398 . S
C348 C349 1.391 . S
C349 H337 0.950 . S
C349 C345 1.393 . S
C349 C348 1.391 . S
C350 H340 0.950 . S
C350 C351 1.386 . S
C350 C352 1.391 . S
C351 C350 1.386 . S
C351 C355 1.393 . S
C352 H341 0.950 . S
C352 C350 1.391 . S
C352 C353 1.400 . S
C353 C347 1.491 . S
C353 C352 1.400 . S
C353 C354 1.398 . S
C354 H342 0.950 . S
C354 C353 1.398 . S
C354 C355 1.391 . S
C355 H343 0.950 . S
C355 C351 1.393 . S
C355 C354 1.391 . S
H356 C364 0.950 . S
H357 C369 0.950 . S
H358 C366 0.950 . S
H359 C368 0.950 . S
H360 C370 0.950 . S
H361 C372 0.950 . S
H362 C374 0.950 . S
H363 C375 0.950 . S
C364 H356 0.950 . S
C364 C365 1.386 . S
C364 C366 1.391 . S
C365 C364 1.386 . S
C365 C369 1.393 . S
C366 H358 0.950 . S
C366 C364 1.391 . S
C366 C367 1.400 . S
C367 C366 1.400 . S
C367 C368 1.398 . S
C367 C373 1.491 . S
C368 H359 0.950 . S
C368 C367 1.398 . S
C368 C369 1.391 . S
C369 H357 0.950 . S
C369 C365 1.393 . S
C369 C368 1.391 . S
C370 H360 0.950 . S
C370 C371 1.386 . S
C370 C372 1.391 . S
C371 C370 1.386 . S
C371 C375 1.393 . S
C372 H361 0.950 . S
C372 C370 1.391 . S
C372 C373 1.400 . S
C373 C367 1.491 . S
C373 C372 1.400 . S
C373 C374 1.398 . S
C374 H362 0.950 . S
C374 C373 1.398 . S
C374 C375 1.391 . S
C375 H363 0.950 . S
C375 C371 1.393 . S
C375 C374 1.391 . S
H376 C384 0.950 . S
H377 C389 0.950 . S
H378 C386 0.950 . S
H379 C388 0.950 . S
H380 C390 0.950 . S
H381 C392 0.950 . S
H382 C394 0.950 . S
H383 C395 0.950 . S
C384 H376 0.950 . S
C384 C385 1.386 . S
C384 C386 1.391 . S
C385 C384 1.386 . S
C385 C389 1.393 . S
C386 H378 0.950 . S
C386 C384 1.391 . S
C386 C387 1.400 . S
C387 C386 1.400 . S
C387 C388 1.398 . S
C387 C393 1.491 . S
C388 H379 0.950 . S
C388 C387 1.398 . S
C388 C389 1.391 . S
C389 H377 0.950 . S
C389 C385 1.393 . S
C389 C388 1.391 . S
C390 H380 0.950 . S
C390 C391 1.386 . S
C390 C392 1.391 . S
C391 C390 1.386 . S
C391 C395 1.393 . S
C392 H381 0.950 . S
C392 C390 1.391 . S
C392 C393 1.400 . S
C393 C387 1.491 . S
C393 C392 1.400 . S
C393 C394 1.398 . S
C394 H382 0.950 . S
C394 C393 1.398 . S
C394 C395 1.391 . S
C395 H383 0.950 . S
C395 C391 1.393 . S
C395 C394 1.391 . S
H396 C404 0.950 . S
H397 C409 0.950 . S
H398 C406 0.950 . S
H399 C408 0.950 . S
H400 C410 0.950 . S
H401 C412 0.950 . S
H402 C414 0.950 . S
H403 C415 0.950 . S
C404 H396 0.950 . S
C404 C405 1.386 . S
C404 C406 1.391 . S
C405 C404 1.386 . S
C405 C409 1.393 . S
C406 H398 0.950 . S
C406 C404 1.391 . S
C406 C407 1.400 . S
C407 C406 1.400 . S
C407 C408 1.398 . S
C407 C413 1.491 . S
C408 H399 0.950 . S
C408 C407 1.398 . S
C408 C409 1.391 . S
C409 H397 0.950 . S
C409 C405 1.393 . S
C409 C408 1.391 . S
C410 H400 0.950 . S
C410 C411 1.386 . S
C410 C412 1.391 . S
C411 C410 1.386 . S
C411 C415 1.393 . S
C412 H401 0.950 . S
C412 C410 1.391 . S
C412 C413 1.400 . S
C413 C407 1.491 . S
C413 C412 1.400 . S
C413 C414 1.398 . S
C414 H402 0.950 . S
C414 C413 1.398 . S
C414 C415 1.391 . S
C415 H403 0.950 . S
C415 C411 1.393 . S
C415 C414 1.391 . S
H416 C424 0.950 . S
H417 C429 0.950 . S
H418 C426 0.950 . S
H419 C428 0.950 . S
H420 C430 0.950 . S
H421 C432 0.950 . S
H422 C434 0.950 . S
H423 C435 0.950 . S
C424 H416 0.950 . S
C424 C425 1.386 . S
C424 C426 1.391 . S
C425 C424 1.386 . S
C425 C429 1.393 . S
C426 H418 0.950 . S
C426 C424 1.391 . S
C426 C427 1.400 . S
C427 C426 1.400 . S
C427 C428 1.398 . S
C427 C433 1.491 . S
C428 H419 0.950 . S
C428 C427 1.398 . S
C428 C429 1.391 . S
C429 H417 0.950 . S
C429 C425 1.393 . S
C429 C428 1.391 . S
C430 H420 0.950 . S
C430 C431 1.386 . S
C430 C432 1.391 . S
C431 C430 1.386 . S
C431 C435 1.393 . S
C432 H421 0.950 . S
C432 C430 1.391 . S
C432 C433 1.400 . S
C433 C427 1.491 . S
C433 C432 1.400 . S
C433 C434 1.398 . S
C434 H422 0.950 . S
C434 C433 1.398 . S
C434 C435 1.391 . S
C435 H423 0.950 . S
C435 C431 1.393 . S
C435 C434 1.391 . S
H436 C444 0.950 . S
H437 C449 0.950 1_554 S
H438 C446 0.950 . S
H439 C448 0.950 . S
H440 C450 0.950 . S
H441 C452 0.950 . S
H442 C454 0.950 . S
H443 C455 0.950 . S
C444 H436 0.950 . S
C444 C445 1.386 . S
C444 C446 1.391 . S
C445 C444 1.386 . S
C445 C449 1.393 . S
C446 H438 0.950 . S
C446 C444 1.391 . S
C446 C447 1.400 . S
C447 C446 1.400 . S
C447 C448 1.398 . S
C447 C453 1.491 . S
C448 H439 0.950 . S
C448 C447 1.398 . S
C448 C449 1.391 . S
C449 H437 0.950 1_556 S
C449 C445 1.393 . S
C449 C448 1.391 . S
C450 H440 0.950 . S
C450 C451 1.386 . S
C450 C452 1.391 . S
C451 C450 1.386 . S
C451 C455 1.393 . S
C452 H441 0.950 . S
C452 C450 1.391 . S
C452 C453 1.400 . S
C453 C447 1.491 . S
C453 C452 1.400 . S
C453 C454 1.398 . S
C454 H442 0.950 . S
C454 C453 1.398 . S
C454 C455 1.391 . S
C455 H443 0.950 . S
C455 C451 1.393 . S
C455 C454 1.391 . S
H456 C464 0.950 . S
H457 C469 0.950 . S
H458 C466 0.950 . S
H459 C468 0.950 . S
H460 C470 0.950 1_556 S
H461 C472 0.950 . S
H462 C474 0.950 . S
H463 C475 0.950 . S
C464 H456 0.950 . S
C464 C465 1.386 . S
C464 C466 1.391 . S
C465 C464 1.386 . S
C465 C469 1.393 . S
C466 H458 0.950 . S
C466 C464 1.391 . S
C466 C467 1.400 . S
C467 C466 1.400 . S
C467 C468 1.398 . S
C467 C473 1.491 . S
C468 H459 0.950 . S
C468 C467 1.398 . S
C468 C469 1.391 . S
C469 H457 0.950 . S
C469 C465 1.393 . S
C469 C468 1.391 . S
C470 H460 0.950 1_554 S
C470 C471 1.386 . S
C470 C472 1.391 . S
C471 C470 1.386 . S
C471 C475 1.393 . S
C472 H461 0.950 . S
C472 C470 1.391 . S
C472 C473 1.400 . S
C473 C467 1.491 . S
C473 C472 1.400 . S
C473 C474 1.398 . S
C474 H462 0.950 . S
C474 C473 1.398 . S
C474 C475 1.391 . S
C475 H463 0.950 . S
C475 C471 1.393 . S
C475 C474 1.391 . S
H476 C484 0.950 . S
H477 C489 0.950 . S
H478 C486 0.950 . S
H479 C488 0.950 . S
H480 C490 0.950 . S
H481 C492 0.950 . S
H482 C494 0.950 . S
H483 C495 0.950 . S
C484 H476 0.950 . S
C484 C485 1.386 . S
C484 C486 1.391 . S
C485 C484 1.386 . S
C485 C489 1.393 . S
C486 H478 0.950 . S
C486 C484 1.391 . S
C486 C487 1.400 . S
C487 C486 1.400 . S
C487 C488 1.398 . S
C487 C493 1.491 . S
C488 H479 0.950 . S
C488 C487 1.398 . S
C488 C489 1.391 . S
C489 H477 0.950 . S
C489 C485 1.393 . S
C489 C488 1.391 . S
C490 H480 0.950 . S
C490 C491 1.386 . S
C490 C492 1.391 . S
C491 C490 1.386 . S
C491 C495 1.393 . S
C492 H481 0.950 . S
C492 C490 1.391 . S
C492 C493 1.400 . S
C493 C487 1.491 . S
C493 C492 1.400 . S
C493 C494 1.398 . S
C494 H482 0.950 . S
C494 C493 1.398 . S
C494 C495 1.391 . S
C495 H483 0.950 . S
C495 C491 1.393 . S
C495 C494 1.391 . S
H496 C504 0.950 . S
H497 C509 0.950 . S
H498 C506 0.950 . S
H499 C508 0.950 . S
H500 C510 0.950 . S
H501 C512 0.950 . S
H502 C514 0.950 . S
H503 C515 0.950 . S
C504 H496 0.950 . S
C504 C505 1.386 . S
C504 C506 1.391 . S
C505 C504 1.386 . S
C505 C509 1.393 . S
C506 H498 0.950 . S
C506 C504 1.391 . S
C506 C507 1.400 . S
C507 C506 1.400 . S
C507 C508 1.398 . S
C507 C513 1.491 . S
C508 H499 0.950 . S
C508 C507 1.398 . S
C508 C509 1.391 . S
C509 H497 0.950 . S
C509 C505 1.393 . S
C509 C508 1.391 . S
C510 H500 0.950 . S
C510 C511 1.386 . S
C510 C512 1.391 . S
C511 C510 1.386 . S
C511 C515 1.393 . S
C512 H501 0.950 . S
C512 C510 1.391 . S
C512 C513 1.400 . S
C513 C507 1.491 . S
C513 C512 1.400 . S
C513 C514 1.398 . S
C514 H502 0.950 . S
C514 C513 1.398 . S
C514 C515 1.391 . S
C515 H503 0.950 . S
C515 C511 1.393 . S
C515 C514 1.391 . S
H516 C524 0.950 . S
H517 C529 0.950 . S
H518 C526 0.917 1_455 S
H519 C528 0.950 . S
H520 C530 0.950 . S
H521 C532 0.917 1_655 S
H522 C534 0.950 . S
H523 C535 0.950 . S
C524 H516 0.950 . S
C524 C525 1.386 . S
C524 C526 1.391 . S
C525 C524 1.386 . S
C525 C529 1.393 . S
C526 H518 0.917 1_655 S
C526 C524 1.391 . S
C526 C527 1.400 . S
C527 C526 1.400 . S
C527 C528 1.398 . S
C527 C533 1.491 1_655 S
C528 H519 0.950 . S
C528 C527 1.398 . S
C528 C529 1.391 . S
C529 H517 0.950 . S
C529 C525 1.393 . S
C529 C528 1.391 . S
C530 H520 0.950 . S
C530 C531 1.386 . S
C530 C532 1.391 . S
C531 C530 1.386 . S
C531 C535 1.393 . S
C532 H521 0.917 1_455 S
C532 C530 1.391 . S
C532 C533 1.400 . S
C533 C527 1.491 1_455 S
C533 C532 1.400 . S
C533 C534 1.398 . S
C534 H522 0.950 . S
C534 C533 1.398 . S
C534 C535 1.391 . S
C535 H523 0.950 . S
C535 C531 1.393 . S
C535 C534 1.391 . S
H536 C544 0.950 . S
H537 C549 0.950 . S
H538 C546 0.950 . S
H539 C548 0.950 1_545 S
H540 C550 0.950 . S
H541 C552 0.950 . S
H542 C554 0.950 1_565 S
H543 C555 0.950 . S
C544 H536 0.950 . S
C544 C545 1.386 . S
C544 C546 1.391 . S
C545 C544 1.386 . S
C545 C549 1.393 . S
C546 H538 0.950 . S
C546 C544 1.391 . S
C546 C547 1.400 . S
C547 C546 1.400 . S
C547 C548 1.398 . S
C547 C553 1.491 1_565 S
C548 H539 0.950 1_565 S
C548 C547 1.398 . S
C548 C549 1.391 . S
C549 H537 0.950 . S
C549 C545 1.393 . S
C549 C548 1.391 . S
C550 H540 0.950 . S
C550 C551 1.386 . S
C550 C552 1.391 . S
C551 C550 1.386 . S
C551 C555 1.393 . S
C552 H541 0.950 . S
C552 C550 1.391 . S
C552 C553 1.400 . S
C553 C547 1.491 1_545 S
C553 C552 1.400 . S
C553 C554 1.398 . S
C554 H542 0.950 1_545 S
C554 C553 1.398 . S
C554 C555 1.391 . S
C555 H543 0.950 . S
C555 C551 1.393 . S
C555 C554 1.391 . S
H556 C564 0.950 . S
H557 C569 0.950 . S
H558 C566 0.950 . S
H559 C568 0.950 . S
H560 C570 0.950 . S
H561 C572 0.950 . S
H562 C574 0.950 . S
H563 C575 0.950 . S
C564 H556 0.950 . S
C564 C565 1.386 . S
C564 C566 1.391 . S
C565 C564 1.386 . S
C565 C569 1.393 . S
C566 H558 0.950 . S
C566 C564 1.391 . S
C566 C567 1.400 . S
C567 C566 1.400 . S
C567 C568 1.398 . S
C567 C573 1.491 . S
C568 H559 0.950 . S
C568 C567 1.398 . S
C568 C569 1.391 . S
C569 H557 0.950 . S
C569 C565 1.393 . S
C569 C568 1.391 . S
C570 H560 0.950 . S
C570 C571 1.386 . S
C570 C572 1.391 . S
C571 C570 1.386 . S
C571 C575 1.393 . S
C572 H561 0.950 . S
C572 C570 1.391 . S
C572 C573 1.400 . S
C573 C567 1.491 . S
C573 C572 1.400 . S
C573 C574 1.398 . S
C574 H562 0.950 . S
C574 C573 1.398 . S
C574 C575 1.391 . S
C575 H563 0.950 . S
C575 C571 1.393 . S
C575 C574 1.391 . S
H576 C584 0.950 . S
H577 C589 0.950 . S
H578 C586 0.950 . S
H579 C588 0.950 . S
H580 C590 0.950 . S
H581 C592 0.950 . S
H582 C594 0.950 . S
H583 C595 0.950 . S
C584 H576 0.950 . S
C584 C585 1.386 . S
C584 C586 1.391 . S
C585 C584 1.386 . S
C585 C589 1.393 . S
C586 H578 0.950 . S
C586 C584 1.391 . S
C586 C587 1.400 . S
C587 C586 1.400 . S
C587 C588 1.398 . S
C587 C593 1.491 1_455 S
C588 H579 0.950 . S
C588 C587 1.398 . S
C588 C589 1.391 . S
C589 H577 0.950 . S
C589 C585 1.393 . S
C589 C588 1.391 . S
C590 H580 0.950 . S
C590 C591 1.386 . S
C590 C592 1.391 . S
C591 C590 1.386 . S
C591 C595 1.393 . S
C592 H581 0.950 . S
C592 C590 1.391 . S
C592 C593 1.400 . S
C593 C587 1.491 1_655 S
C593 C592 1.400 . S
C593 C594 1.398 . S
C594 H582 0.950 . S
C594 C593 1.398 . S
C594 C595 1.391 . S
C595 H583 0.950 . S
C595 C591 1.393 . S
C595 C594 1.391 . S
H596 C604 0.950 . S
H597 C609 0.950 . S
H598 C606 0.950 . S
H599 C608 0.950 1_554 S
H600 C610 0.950 . S
H601 C612 0.950 . S
H602 C614 0.950 1_556 S
H603 C615 0.950 . S
C604 H596 0.950 . S
C604 C605 1.386 . S
C604 C606 1.391 . S
C605 C604 1.386 . S
C605 C609 1.393 . S
C606 H598 0.950 . S
C606 C604 1.391 . S
C606 C607 1.400 . S
C607 C606 1.400 . S
C607 C608 1.398 . S
C607 C613 1.491 1_546 S
C608 H599 0.950 1_556 S
C608 C607 1.398 . S
C608 C609 1.391 . S
C609 H597 0.950 . S
C609 C605 1.393 . S
C609 C608 1.391 . S
C610 H600 0.950 . S
C610 C611 1.386 . S
C610 C612 1.391 . S
C611 C610 1.386 . S
C611 C615 1.393 . S
C612 H601 0.950 . S
C612 C610 1.391 . S
C612 C613 1.400 . S
C613 C607 1.491 1_564 S
C613 C612 1.400 . S
C613 C614 1.398 . S
C614 H602 0.950 1_554 S
C614 C613 1.398 . S
C614 C615 1.391 . S
C615 H603 0.950 . S
C615 C611 1.393 . S
C615 C614 1.391 . S
H616 C624 0.950 . S
H617 C629 0.950 . S
H618 C626 0.950 . S
H619 C628 0.950 . S
H620 C630 0.950 . S
H621 C632 0.950 . S
H622 C634 0.950 . S
H623 C635 0.950 . S
C624 H616 0.950 . S
C624 C625 1.386 . S
C624 C626 1.391 . S
C625 C624 1.386 . S
C625 C629 1.393 . S
C626 H618 0.950 . S
C626 C624 1.391 . S
C626 C627 1.400 . S
C627 C626 1.400 . S
C627 C628 1.398 . S
C627 C633 1.491 . S
C628 H619 0.950 . S
C628 C627 1.398 . S
C628 C629 1.391 . S
C629 H617 0.950 . S
C629 C625 1.393 . S
C629 C628 1.391 . S
C630 H620 0.950 . S
C630 C631 1.386 . S
C630 C632 1.391 . S
C631 C630 1.386 . S
C631 C635 1.393 . S
C632 H621 0.950 . S
C632 C630 1.391 . S
C632 C633 1.400 . S
C633 C627 1.491 . S
C633 C632 1.400 . S
C633 C634 1.398 . S
C634 H622 0.950 . S
C634 C633 1.398 . S
C634 C635 1.391 . S
C635 H623 0.950 . S
C635 C631 1.393 . S
C635 C634 1.391 . S
H636 C644 0.950 . S
H637 C649 0.950 . S
H638 C646 0.950 . S
H639 C648 0.950 . S
H640 C650 0.950 . S
H641 C652 0.950 . S
H642 C654 0.950 . S
H643 C655 0.950 . S
C644 H636 0.950 . S
C644 C645 1.386 . S
C644 C646 1.391 . S
C645 C644 1.386 . S
C645 C649 1.393 . S
C646 H638 0.950 . S
C646 C644 1.391 . S
C646 C647 1.400 . S
C647 C646 1.400 . S
C647 C648 1.398 . S
C647 C653 1.491 . S
C648 H639 0.950 . S
C648 C647 1.398 . S
C648 C649 1.391 . S
C649 H637 0.950 . S
C649 C645 1.393 . S
C649 C648 1.391 . S
C650 H640 0.950 . S
C650 C651 1.386 . S
C650 C652 1.391 . S
C651 C650 1.386 . S
C651 C655 1.393 . S
C652 H641 0.950 . S
C652 C650 1.391 . S
C652 C653 1.400 . S
C653 C647 1.491 . S
C653 C652 1.400 . S
C653 C654 1.398 . S
C654 H642 0.950 . S
C654 C653 1.398 . S
C654 C655 1.391 . S
C655 H643 0.950 . S
C655 C651 1.393 . S
C655 C654 1.391 . S
H656 C664 0.950 . S
H657 C669 0.950 . S
H658 C666 0.950 . S
H659 C668 0.950 . S
H660 C670 0.950 . S
H661 C672 0.950 . S
H662 C674 0.950 . S
H663 C675 0.950 . S
C664 H656 0.950 . S
C664 C665 1.386 . S
C664 C666 1.391 . S
C665 C664 1.386 . S
C665 C669 1.393 . S
C666 H658 0.950 . S
C666 C664 1.391 . S
C666 C667 1.400 . S
C667 C666 1.400 . S
C667 C668 1.398 . S
C667 C673 1.491 . S
C668 H659 0.950 . S
C668 C667 1.398 . S
C668 C669 1.391 . S
C669 H657 0.950 . S
C669 C665 1.393 . S
C669 C668 1.391 . S
C670 H660 0.950 . S
C670 C671 1.386 . S
C670 C672 1.391 . S
C671 C670 1.386 . S
C671 C675 1.393 . S
C672 H661 0.950 . S
C672 C670 1.391 . S
C672 C673 1.400 . S
C673 C667 1.491 . S
C673 C672 1.400 . S
C673 C674 1.398 . S
C674 H662 0.950 . S
C674 C673 1.398 . S
C674 C675 1.391 . S
C675 H663 0.950 . S
C675 C671 1.393 . S
C675 C674 1.391 . S
H676 C684 0.950 . S
H677 C689 0.950 . S
H678 C686 0.950 . S
H679 C688 0.950 . S
H680 C690 0.950 . S
H681 C692 0.950 . S
H682 C694 0.950 . S
H683 C695 0.950 . S
C684 H676 0.950 . S
C684 C685 1.386 . S
C684 C686 1.391 . S
C685 C684 1.386 . S
C685 C689 1.393 . S
C686 H678 0.950 . S
C686 C684 1.391 . S
C686 C687 1.400 . S
C687 C686 1.400 . S
C687 C688 1.398 . S
C687 C693 1.491 . S
C688 H679 0.950 . S
C688 C687 1.398 . S
C688 C689 1.391 . S
C689 H677 0.950 . S
C689 C685 1.393 . S
C689 C688 1.391 . S
C690 H680 0.950 . S
C690 C691 1.386 . S
C690 C692 1.391 . S
C691 C690 1.386 . S
C691 C695 1.393 . S
C692 H681 0.950 . S
C692 C690 1.391 . S
C692 C693 1.400 . S
C693 C687 1.491 . S
C693 C692 1.400 . S
C693 C694 1.398 . S
C694 H682 0.950 . S
C694 C693 1.398 . S
C694 C695 1.391 . S
C695 H683 0.950 . S
C695 C691 1.393 . S
C695 C694 1.391 . S
H696 C704 0.950 . S
H697 C709 0.950 . S
H698 C706 0.950 . S
H699 C708 0.950 . S
H700 C710 0.950 . S
H701 C712 0.950 . S
H702 C714 0.950 . S
H703 C715 0.950 . S
C704 H696 0.950 . S
C704 C705 1.386 . S
C704 C706 1.391 . S
C705 C704 1.386 . S
C705 C709 1.393 . S
C706 H698 0.950 . S
C706 C704 1.391 . S
C706 C707 1.400 . S
C707 C706 1.400 . S
C707 C708 1.398 . S
C707 C713 1.491 . S
C708 H699 0.950 . S
C708 C707 1.398 . S
C708 C709 1.391 . S
C709 H697 0.950 . S
C709 C705 1.393 . S
C709 C708 1.391 . S
C710 H700 0.950 . S
C710 C711 1.386 . S
C710 C712 1.391 . S
C711 C710 1.386 . S
C711 C715 1.393 . S
C712 H701 0.950 . S
C712 C710 1.391 . S
C712 C713 1.400 . S
C713 C707 1.491 . S
C713 C712 1.400 . S
C713 C714 1.398 . S
C714 H702 0.950 . S
C714 C713 1.398 . S
C714 C715 1.391 . S
C715 H703 0.950 . S
C715 C711 1.393 . S
C715 C714 1.391 . S
H716 C724 0.950 . S
H717 C729 0.950 . S
H718 C726 0.950 . S
H719 C728 0.950 . S
H720 C730 0.950 . S
H721 C732 0.950 . S
H722 C734 0.950 . S
H723 C735 0.950 . S
C724 H716 0.950 . S
C724 C725 1.386 . S
C724 C726 1.391 . S
C725 C724 1.386 . S
C725 C729 1.393 . S
C726 H718 0.950 . S
C726 C724 1.391 . S
C726 C727 1.400 . S
C727 C726 1.400 . S
C727 C728 1.398 . S
C727 C733 1.491 . S
C728 H719 0.950 . S
C728 C727 1.398 . S
C728 C729 1.391 . S
C729 H717 0.950 . S
C729 C725 1.393 . S
C729 C728 1.391 . S
C730 H720 0.950 . S
C730 C731 1.386 . S
C730 C732 1.391 . S
C731 C730 1.386 . S
C731 C735 1.393 . S
C732 H721 0.950 . S
C732 C730 1.391 . S
C732 C733 1.400 . S
C733 C727 1.491 . S
C733 C732 1.400 . S
C733 C734 1.398 . S
C734 H722 0.950 . S
C734 C733 1.398 . S
C734 C735 1.391 . S
C735 H723 0.950 . S
C735 C731 1.393 . S
C735 C734 1.391 . S
H736 C744 0.950 . S
H737 C749 0.950 . S
H738 C746 0.950 . S
H739 C748 0.950 . S
H740 C750 0.950 . S
H741 C752 0.950 . S
H742 C754 0.950 . S
H743 C755 0.950 . S
C744 H736 0.950 . S
C744 C745 1.386 . S
C744 C746 1.391 . S
C745 C744 1.386 . S
C745 C749 1.393 . S
C746 H738 0.950 . S
C746 C744 1.391 . S
C746 C747 1.400 . S
C747 C746 1.400 . S
C747 C748 1.398 . S
C747 C753 1.491 . S
C748 H739 0.950 . S
C748 C747 1.398 . S
C748 C749 1.391 . S
C749 H737 0.950 . S
C749 C745 1.393 . S
C749 C748 1.391 . S
C750 H740 0.950 . S
C750 C751 1.386 . S
C750 C752 1.391 . S
C751 C750 1.386 . S
C751 C755 1.393 . S
C752 H741 0.950 . S
C752 C750 1.391 . S
C752 C753 1.400 . S
C753 C747 1.491 . S
C753 C752 1.400 . S
C753 C754 1.398 . S
C754 H742 0.950 . S
C754 C753 1.398 . S
C754 C755 1.391 . S
C755 H743 0.950 . S
C755 C751 1.393 . S
C755 C754 1.391 . S
C285 N2 1.304 . S
C291 N140 1.334 . S
C305 N25 1.335 . S
C311 N163 1.300 . S
C325 N186 1.304 . S
C331 N48 1.329 . S
C345 N71 1.327 . S
C351 N209 1.306 . S
C365 N94 1.331 . S
C371 N232 1.302 . S
C385 N255 1.329 . S
C391 N117 1.311 . S
C405 C191 1.415 . S
C411 C7 1.438 . S
C425 C30 1.438 . S
C431 C214 1.414 . S
C445 C237 1.415 1_556 S
C451 C53 1.438 . S
C465 C260 1.437 . S
C471 C76 1.418 1_554 S
C485 C99 1.431 . S
C491 C145 1.427 . S
C505 C122 1.417 . S
C511 C168 1.426 . S
C525 N265 1.821 . S
C531 N12 1.818 . S
C545 N150 1.821 . S
C551 N35 1.824 . S
C565 N58 1.832 . S
C571 N173 1.829 . S
C585 N196 1.809 . S
C591 N81 1.809 . S
C605 N219 1.834 . S
C611 N104 1.833 . S
C625 N242 1.809 . S
C631 N127 1.809 . S
C645 C16 1.712 . S
C651 C246 1.711 . S
C665 C269 1.721 . S
C671 C39 1.718 . S
C685 C62 1.712 . S
C691 C154 1.711 . S
C705 C85 1.723 . S
C711 C177 1.723 . S
C725 C108 1.723 1_556 S
C731 C200 1.721 . S
C745 C131 1.722 . S
C751 C223 1.723 1_554 S
