# Generated by pormake.
# Topology fna, (5)-cn, num edge types: 1
# Building blocks:
#     Node 0, Type 0, BuildingBlock: XOMCOT_clean_sbu_1, # of connection points: 5
#     Node 1, Type 0, BuildingBlock: XOMCOT_clean_sbu_1, # of connection points: 5
#     Node 2, Type 0, BuildingBlock: XOMCOT_clean_sbu_1, # of connection points: 5
#     Node 3, Type 0, BuildingBlock: XOMCOT_clean_sbu_1, # of connection points: 5
#     Node 4, Type 0, BuildingBlock: XOMCOT_clean_sbu_1, # of connection points: 5
#     Node 5, Type 0, BuildingBlock: XOMCOT_clean_sbu_1, # of connection points: 5
#     Node 6, Type 0, BuildingBlock: XOMCOT_clean_sbu_1, # of connection points: 5
#     Node 7, Type 0, BuildingBlock: XOMCOT_clean_sbu_1, # of connection points: 5
#     Node 8, Type 0, BuildingBlock: XOMCOT_clean_sbu_1, # of connection points: 5
#     Node 9, Type 0, BuildingBlock: XOMCOT_clean_sbu_1, # of connection points: 5
#     Node 10, Type 0, BuildingBlock: XOMCOT_clean_sbu_1, # of connection points: 5
#     Node 11, Type 0, BuildingBlock: XOMCOT_clean_sbu_1, # of connection points: 5
#     Edge 12, Type (0, 0), BuildingBlock: UVAHIK_clean_linker_0, # of connection points: 2
#     Edge 13, Type (0, 0), BuildingBlock: UVAHIK_clean_linker_0, # of connection points: 2
#     Edge 14, Type (0, 0), BuildingBlock: UVAHIK_clean_linker_0, # of connection points: 2
#     Edge 15, Type (0, 0), BuildingBlock: UVAHIK_clean_linker_0, # of connection points: 2
#     Edge 16, Type (0, 0), BuildingBlock: UVAHIK_clean_linker_0, # of connection points: 2
#     Edge 17, Type (0, 0), BuildingBlock: UVAHIK_clean_linker_0, # of connection points: 2
#     Edge 18, Type (0, 0), BuildingBlock: UVAHIK_clean_linker_0, # of connection points: 2
#     Edge 19, Type (0, 0), BuildingBlock: UVAHIK_clean_linker_0, # of connection points: 2
#     Edge 20, Type (0, 0), BuildingBlock: UVAHIK_clean_linker_0, # of connection points: 2
#     Edge 21, Type (0, 0), BuildingBlock: UVAHIK_clean_linker_0, # of connection points: 2
#     Edge 22, Type (0, 0), BuildingBlock: UVAHIK_clean_linker_0, # of connection points: 2
#     Edge 23, Type (0, 0), BuildingBlock: UVAHIK_clean_linker_0, # of connection points: 2
#     Edge 24, Type (0, 0), BuildingBlock: UVAHIK_clean_linker_0, # of connection points: 2
#     Edge 25, Type (0, 0), BuildingBlock: UVAHIK_clean_linker_0, # of connection points: 2
#     Edge 26, Type (0, 0), BuildingBlock: UVAHIK_clean_linker_0, # of connection points: 2
#     Edge 27, Type (0, 0), BuildingBlock: UVAHIK_clean_linker_0, # of connection points: 2
#     Edge 28, Type (0, 0), BuildingBlock: UVAHIK_clean_linker_0, # of connection points: 2
#     Edge 29, Type (0, 0), BuildingBlock: UVAHIK_clean_linker_0, # of connection points: 2
#     Edge 30, Type (0, 0), BuildingBlock: UVAHIK_clean_linker_0, # of connection points: 2
#     Edge 31, Type (0, 0), BuildingBlock: UVAHIK_clean_linker_0, # of connection points: 2
#     Edge 32, Type (0, 0), BuildingBlock: UVAHIK_clean_linker_0, # of connection points: 2
#     Edge 33, Type (0, 0), BuildingBlock: UVAHIK_clean_linker_0, # of connection points: 2
#     Edge 34, Type (0, 0), BuildingBlock: UVAHIK_clean_linker_0, # of connection points: 2
#     Edge 35, Type (0, 0), BuildingBlock: UVAHIK_clean_linker_0, # of connection points: 2
#     Edge 36, Type (0, 0), BuildingBlock: UVAHIK_clean_linker_0, # of connection points: 2
#     Edge 37, Type (0, 0), BuildingBlock: UVAHIK_clean_linker_0, # of connection points: 2
#     Edge 38, Type (0, 0), BuildingBlock: UVAHIK_clean_linker_0, # of connection points: 2
#     Edge 39, Type (0, 0), BuildingBlock: UVAHIK_clean_linker_0, # of connection points: 2
#     Edge 40, Type (0, 0), BuildingBlock: UVAHIK_clean_linker_0, # of connection points: 2
#     Edge 41, Type (0, 0), BuildingBlock: UVAHIK_clean_linker_0, # of connection points: 2
# Relax obj value: 0.383
# Max RMSD: 0.207
# Mean RMSD: 0.207
data_MOF--net-fna--node1-XOMCOT_clean_sbu_1--edge1-UVAHIK_clean_linker_0
_symmetry_space_group_name_H-M    P1
_symmetry_Int_Tables_number       1
_symmetry_cell_setting            triclinic
loop_
_symmetry_equiv_pos_as_xyz
'x, y, z'
_cell_length_a     58.899137
_cell_length_b     58.913993
_cell_length_c     52.101543
_cell_angle_alpha  89.992221
_cell_angle_beta   90.004484
_cell_angle_gamma 119.98824
loop_
_atom_site_label
_atom_site_type_symbol
_atom_site_fract_x
_atom_site_fract_y
_atom_site_fract_z
_atom_type_partial_charge
C0 C 0.37327 0.32586 0.49613 0.0
C1 C 0.3767 0.33415 0.52119 0.0
N2 N 0.35307 0.32261 0.53279 0.0
N3 N 0.34758 0.30937 0.49182 0.0
C4 C 0.33574 0.30762 0.51451 0.0
H5 H 0.38859 0.33098 0.48207 0.0
Co6 Co 0.3338 0.29119 0.46138 0.0
C7 C 0.28571 0.29601 0.45481 0.0
O8 O 0.29213 0.30475 0.43127 0.0
N9 N 0.32053 0.27208 0.43026 0.0
C10 C 0.31029 0.26028 0.3893 0.0
C11 C 0.31748 0.28014 0.40684 0.0
C12 C 0.3154 0.24725 0.42608 0.0
N13 N 0.3091 0.23955 0.40143 0.0
O14 O 0.32036 0.25926 0.4803 0.0
H15 H 0.32162 0.29969 0.40212 0.0
H16 H 0.31773 0.23539 0.44045 0.0
O17 O 0.30075 0.29064 0.46795 0.0
C18 C 0.33774 0.2538 0.48749 0.0
O19 O 0.36193 0.26866 0.4794 0.0
N20 N 0.349 0.32345 0.44396 0.0
C21 C 0.38498 0.3746 0.42927 0.0
C22 C 0.36337 0.36942 0.44463 0.0
C23 C 0.34565 0.3437 0.4519 0.0
C24 C 0.36929 0.32804 0.42812 0.0
C25 C 0.38728 0.35345 0.42016 0.0
H26 H 0.33082 0.34048 0.46591 0.0
H27 H 0.37264 0.31212 0.42313 0.0
H28 H 0.31491 0.2952 0.51763 0.0
H29 H 0.39531 0.34687 0.53037 0.0
H30 H 0.30702 0.26142 0.36903 0.0
H31 H 0.36111 0.38528 0.45226 0.0
H32 H 0.40401 0.35669 0.40874 0.0
C33 C 0.04864 0.37309 0.66143 0.0
C34 C 0.0451 0.37692 0.68677 0.0
N35 N 0.0344 0.3536 0.69893 0.0
N36 N 0.03989 0.34744 0.65746 0.0
C37 C 0.03141 0.33603 0.68064 0.0
H38 H 0.0575 0.38813 0.64688 0.0
Co39 Co 0.04325 0.33323 0.62688 0.0
C40 C 0.99078 0.28478 0.62135 0.0
O41 O 0.98855 0.29053 0.59752 0.0
N42 N 0.04812 0.31944 0.59545 0.0
C43 C 0.0493 0.30962 0.55422 0.0
C44 C 0.03727 0.31733 0.57202 0.0
C45 C 0.06688 0.31298 0.59099 0.0
N46 N 0.06809 0.30702 0.5662 0.0
O47 O 0.06232 0.32018 0.64523 0.0
H48 H 0.02231 0.32221 0.56756 0.0
H49 H 0.08065 0.31409 0.60525 0.0
O50 O 0.01103 0.30029 0.63443 0.0
C51 C 0.08613 0.33697 0.64988 0.0
O52 O 0.09609 0.36049 0.63979 0.0
N53 N 0.02552 0.34808 0.61006 0.0
C54 C 0.0091 0.38324 0.59585 0.0
C55 C 0.99325 0.36159 0.6114 0.0
C56 C 0.00188 0.34429 0.61844 0.0
C57 C 0.04072 0.36849 0.59412 0.0
C58 C 0.03265 0.38607 0.5864 0.0
H59 H 0.99068 0.32943 0.63256 0.0
H60 H 0.06003 0.37219 0.58881 0.0
H61 H 0.02429 0.31547 0.68419 0.0
H62 H 0.05023 0.39552 0.69554 0.0
H63 H 0.045 0.30696 0.53389 0.0
H64 H 0.97508 0.35895 0.61932 0.0
H65 H 0.04572 0.40286 0.57483 0.0
C66 C 0.6784 0.0505 0.82771 0.0
C67 C 0.67003 0.04644 0.85277 0.0
N68 N 0.68013 0.03316 0.86474 0.0
N69 N 0.69348 0.0396 0.82377 0.0
C70 C 0.69433 0.02932 0.84666 0.0
H71 H 0.67435 0.0613 0.8134 0.0
Co72 Co 0.71162 0.0425 0.79371 0.0
C73 C 0.70296 0.98788 0.78909 0.0
O74 O 0.69234 0.98444 0.76627 0.0
N75 N 0.73094 0.04679 0.76294 0.0
C76 C 0.74318 0.04652 0.72242 0.0
C77 C 0.72316 0.03454 0.73996 0.0
C78 C 0.75581 0.06628 0.7585 0.0
N79 N 0.76375 0.0666 0.73414 0.0
O80 O 0.74334 0.06011 0.81296 0.0
H81 H 0.70363 0.01903 0.7354 0.0
H82 H 0.76756 0.08115 0.77233 0.0
O83 O 0.71044 0.00935 0.80115 0.0
C84 C 0.75068 0.084 0.81765 0.0
O85 O 0.73775 0.09441 0.80706 0.0
N86 N 0.67959 0.02657 0.77585 0.0
C87 C 0.62971 0.01474 0.75933 0.0
C88 C 0.63288 0.99797 0.77625 0.0
C89 C 0.65799 0.00431 0.78439 0.0
C90 C 0.67696 0.04244 0.75853 0.0
C91 C 0.65231 0.03658 0.74958 0.0
H92 H 0.65981 0.99267 0.79942 0.0
H93 H 0.69396 0.06071 0.75289 0.0
H94 H 0.7056 0.01969 0.85007 0.0
H95 H 0.65829 0.05368 0.8617 0.0
H96 H 0.74224 0.04135 0.70236 0.0
H97 H 0.6161 0.98124 0.78478 0.0
H98 H 0.65095 0.04994 0.73623 0.0
C99 C 0.63011 0.67811 0.99556 0.0
C100 C 0.62677 0.66994 0.02067 0.0
N101 N 0.65056 0.68054 0.03184 0.0
N102 N 0.65589 0.69355 0.99081 0.0
C103 C 0.66788 0.69486 0.01329 0.0
H104 H 0.61471 0.67352 0.98172 0.0
Co105 Co 0.66975 0.71083 0.96007 0.0
C106 C 0.71745 0.70572 0.95339 0.0
O107 O 0.71092 0.69745 0.92972 0.0
N108 N 0.6833 0.72923 0.92841 0.0
C109 C 0.69244 0.73988 0.88701 0.0
C110 C 0.68434 0.72011 0.90483 0.0
C111 C 0.69092 0.75476 0.92405 0.0
N112 N 0.69645 0.76171 0.89916 0.0
O113 O 0.68344 0.74304 0.97829 0.0
H114 H 0.67861 0.70005 0.90032 0.0
H115 H 0.69111 0.76793 0.93849 0.0
O116 O 0.70256 0.711 0.96688 0.0
C117 C 0.66682 0.75045 0.98219 0.0
O118 O 0.64353 0.73716 0.97155 0.0
N119 N 0.65406 0.67815 0.94347 0.0
C120 C 0.61777 0.62677 0.9297 0.0
C121 C 0.63959 0.63216 0.94484 0.0
C122 C 0.65746 0.658 0.95166 0.0
C123 C 0.63339 0.6733 0.92805 0.0
C124 C 0.61527 0.64778 0.92053 0.0
H125 H 0.67253 0.66143 0.96544 0.0
H126 H 0.62999 0.68916 0.92297 0.0
H127 H 0.68887 0.70634 0.01604 0.0
H128 H 0.60817 0.65782 0.03015 0.0
H129 H 0.69447 0.73805 0.8666 0.0
H130 H 0.64197 0.61641 0.95258 0.0
H131 H 0.59836 0.64438 0.90932 0.0
C132 C 0.94968 0.62804 0.16098 0.0
C133 C 0.9539 0.62428 0.18617 0.0
N134 N 0.96752 0.64792 0.19755 0.0
N135 N 0.9608 0.65393 0.15641 0.0
C136 C 0.97137 0.66558 0.17905 0.0
H137 H 0.93881 0.61289 0.14695 0.0
Co138 Co 0.95849 0.66847 0.12566 0.0
C139 C 0.01268 0.71502 0.12131 0.0
O140 O 0.01615 0.70833 0.09826 0.0
N141 N 0.95477 0.68272 0.09409 0.0
C142 C 0.95519 0.69372 0.05297 0.0
C143 C 0.96674 0.68577 0.07113 0.0
C144 C 0.93592 0.68889 0.08904 0.0
N145 N 0.9357 0.69562 0.06433 0.0
O146 O 0.94023 0.68266 0.14358 0.0
H147 H 0.98194 0.68111 0.06715 0.0
H148 H 0.92141 0.68704 0.10275 0.0
O149 O 0.99125 0.70072 0.13331 0.0
C150 C 0.91624 0.66641 0.14816 0.0
O151 O 0.9057 0.64283 0.1381 0.0
N152 N 0.97539 0.65247 0.1093 0.0
C153 C 0.99034 0.61618 0.09511 0.0
C154 C 0.00596 0.63684 0.11176 0.0
C155 C 0.99807 0.65471 0.11876 0.0
C156 C 0.96036 0.63293 0.09245 0.0
C157 C 0.96775 0.61482 0.08471 0.0
H158 H 0.00901 0.66884 0.13355 0.0
H159 H 0.94168 0.63035 0.08628 0.0
H160 H 0.98145 0.68657 0.18192 0.0
H161 H 0.94676 0.60552 0.19553 0.0
H162 H 0.96026 0.69701 0.03282 0.0
H163 H 0.02337 0.63832 0.12042 0.0
H164 H 0.95486 0.59879 0.07225 0.0
C165 C 0.33248 0.9585 0.32854 0.0
C166 C 0.34165 0.96436 0.35328 0.0
N167 N 0.3293 0.97544 0.36524 0.0
N168 N 0.3146 0.96606 0.32478 0.0
C169 C 0.31299 0.97622 0.34746 0.0
H170 H 0.33783 0.94853 0.31443 0.0
Co171 Co 0.29423 0.95932 0.29549 0.0
C172 C 0.29598 0.01083 0.28776 0.0
O173 O 0.30236 0.01225 0.26348 0.0
N174 N 0.27297 0.9512 0.26563 0.0
C175 C 0.25802 0.94739 0.22554 0.0
C176 C 0.27906 0.96127 0.2416 0.0
C177 C 0.24822 0.93075 0.26326 0.0
N178 N 0.23869 0.92808 0.23922 0.0
O179 O 0.26369 0.94109 0.31644 0.0
H180 H 0.29805 0.97682 0.23551 0.0
H181 H 0.23741 0.91739 0.27863 0.0
O182 O 0.29286 0.99143 0.30135 0.0
C183 C 0.25949 0.91907 0.32496 0.0
O184 O 0.27474 0.91007 0.31721 0.0
N185 N 0.32509 0.97618 0.27598 0.0
C186 C 0.37542 0.99195 0.25778 0.0
C187 C 0.37041 0.00923 0.27198 0.0
C188 C 0.34517 1.00084 0.28124 0.0
C189 C 0.32929 0.95961 0.26111 0.0
C190 C 0.35423 0.96715 0.25163 0.0
H191 H 0.34243 0.01336 0.29449 0.0
H192 H 0.31359 0.93968 0.25824 0.0
H193 H 0.29957 0.98337 0.35099 0.0
H194 H 0.35547 0.95968 0.36206 0.0
H195 H 0.25754 0.95031 0.20507 0.0
H196 H 0.38613 0.02854 0.2772 0.0
H197 H 0.35715 0.95288 0.24129 0.0
C198 C 0.68087 0.62825 0.33588 0.0
C199 C 0.67299 0.62449 0.31067 0.0
N200 N 0.68312 0.64813 0.29926 0.0
N201 N 0.69568 0.65414 0.34045 0.0
C202 C 0.69689 0.66579 0.31777 0.0
H203 H 0.67655 0.61309 0.34992 0.0
Co204 Co 0.7125 0.66853 0.37127 0.0
C205 C 0.70442 0.71472 0.37618 0.0
O206 O 0.69394 0.70749 0.39905 0.0
N207 N 0.73045 0.68265 0.40289 0.0
C208 C 0.74097 0.69354 0.44403 0.0
C209 C 0.72146 0.68551 0.42589 0.0
C210 C 0.75553 0.68901 0.40791 0.0
N211 N 0.76244 0.69567 0.43264 0.0
O212 O 0.74496 0.68297 0.35333 0.0
H213 H 0.70156 0.68066 0.42992 0.0
H214 H 0.76827 0.68736 0.39415 0.0
O215 O 0.71183 0.70078 0.36393 0.0
C216 C 0.75282 0.66681 0.3488 0.0
O217 O 0.73989 0.64324 0.3589 0.0
N218 N 0.6796 0.65225 0.38764 0.0
C219 C 0.62848 0.6156 0.40187 0.0
C220 C 0.63333 0.63626 0.38528 0.0
C221 C 0.65902 0.6543 0.37826 0.0
C222 C 0.67528 0.63269 0.40439 0.0
C223 C 0.64986 0.61441 0.41216 0.0
H224 H 0.66209 0.66845 0.36352 0.0
H225 H 0.69149 0.63025 0.41048 0.0
H226 H 0.70793 0.68678 0.31488 0.0
H227 H 0.66145 0.60574 0.30129 0.0
H228 H 0.73914 0.69672 0.4642 0.0
H229 H 0.61729 0.63761 0.3767 0.0
H230 H 0.64687 0.59839 0.42456 0.0
C231 C 0.04757 0.67457 0.50187 0.0
C232 C 0.04263 0.66634 0.4768 0.0
N233 N 0.03041 0.67783 0.46535 0.0
N234 N 0.03829 0.69096 0.50634 0.0
C235 C 0.02809 0.69274 0.48373 0.0
H236 H 0.05781 0.66942 0.51585 0.0
Co237 Co 0.04252 0.70876 0.53695 0.0
C238 C 0.99018 0.70479 0.54372 0.0
O239 O 0.98813 0.69619 0.56729 0.0
N240 N 0.0482 0.72759 0.56839 0.0
C241 C 0.04992 0.739 0.60956 0.0
C242 C 0.03761 0.71912 0.59196 0.0
C243 C 0.06712 0.7528 0.57255 0.0
N244 N 0.06862 0.76023 0.5973 0.0
O245 O 0.06163 0.74086 0.51851 0.0
H246 H 0.0226 0.69937 0.59665 0.0
H247 H 0.08069 0.7653 0.55808 0.0
O248 O 0.01031 0.70983 0.53028 0.0
C249 C 0.08497 0.74669 0.51299 0.0
O250 O 0.09376 0.73156 0.52168 0.0
N251 N 0.02495 0.67627 0.55392 0.0
C252 C 0.00867 0.6249 0.56874 0.0
C253 C 0.99274 0.63046 0.55305 0.0
C254 C 1.00127 0.65631 0.54576 0.0
C255 C 0.04035 0.67124 0.56976 0.0
C256 C 0.03233 0.64573 0.57785 0.0
H257 H 0.98993 0.65986 0.5317 0.0
H258 H 0.05972 0.68689 0.57482 0.0
H259 H 0.01953 0.70505 0.48075 0.0
H260 H 0.04851 0.65366 0.46751 0.0
H261 H 0.04581 0.73764 0.62991 0.0
H262 H 0.97453 0.61481 0.54534 0.0
H263 H 0.04546 0.64214 0.58948 0.0
C264 C 0.3736 0.04646 0.67214 0.0
C265 C 0.37792 0.04184 0.64727 0.0
N266 N 0.35466 0.02943 0.63499 0.0
N267 N 0.34771 0.03681 0.67564 0.0
C268 C 0.33667 0.02664 0.6527 0.0
H269 H 0.38842 0.05693 0.68657 0.0
Co270 Co 0.33257 0.04122 0.70508 0.0
C271 C 0.28568 0.98706 0.7102 0.0
O272 O 0.29236 0.98365 0.73327 0.0
N273 N 0.31776 0.04706 0.73507 0.0
C274 C 0.30401 0.04807 0.7748 0.0
C275 C 0.31163 0.03493 0.75818 0.0
C276 C 0.31412 0.06781 0.73853 0.0
N277 N 0.30578 0.06888 0.76236 0.0
O278 O 0.31936 0.05907 0.6847 0.0
H279 H 0.3143 0.01874 0.76355 0.0
H280 H 0.3182 0.08251 0.72414 0.0
O281 O 0.30015 0.00834 0.69803 0.0
C282 C 0.33677 0.08217 0.67825 0.0
O283 O 0.36065 0.09159 0.68729 0.0
N284 N 0.34768 0.02505 0.72421 0.0
C285 C 0.38554 0.01328 0.74141 0.0
C286 C 0.36537 0.9961 0.72491 0.0
C287 C 0.34668 0.00241 0.71642 0.0
C288 C 0.3661 0.04108 0.74151 0.0
C289 C 0.38486 0.03529 0.75075 0.0
H290 H 0.33322 0.99054 0.7015 0.0
H291 H 0.36758 0.05956 0.74664 0.0
H292 H 0.31591 0.01801 0.64897 0.0
H293 H 0.39689 0.04824 0.63867 0.0
H294 H 0.29913 0.04358 0.79488 0.0
H295 H 0.36534 0.97919 0.71675 0.0
H296 H 0.39979 0.04896 0.76375 0.0
C297 C 0.32269 0.37344 0.83689 0.0
C298 C 0.3308 0.377 0.81175 0.0
N299 N 0.32065 0.35327 0.80052 0.0
N300 N 0.30772 0.34759 0.84158 0.0
C301 C 0.30664 0.33577 0.81906 0.0
H302 H 0.327 0.3887 0.8508 0.0
Co303 Co 0.29065 0.33337 0.87231 0.0
C304 C 0.29745 0.28634 0.87733 0.0
O305 O 0.30766 0.29321 0.90033 0.0
N306 N 0.27247 0.31944 0.90387 0.0
C307 C 0.26173 0.30858 0.94498 0.0
C308 C 0.28126 0.3164 0.92691 0.0
C309 C 0.24748 0.31343 0.90881 0.0
N310 N 0.24043 0.3068 0.93353 0.0
O311 O 0.2583 0.31946 0.85422 0.0
H312 H 0.30107 0.32093 0.93099 0.0
H313 H 0.23491 0.31529 0.89499 0.0
O314 O 0.29069 0.30079 0.86503 0.0
C315 C 0.25082 0.33593 0.84967 0.0
O316 O 0.264 0.35943 0.85987 0.0
N317 N 0.32343 0.34915 0.88883 0.0
C318 C 0.37467 0.38536 0.90314 0.0
C319 C 0.3696 0.36451 0.88673 0.0
C320 C 0.34384 0.34666 0.87968 0.0
C321 C 0.32797 0.36888 0.90543 0.0
C322 C 0.35344 0.38694 0.91323 0.0
H323 H 0.34061 0.33234 0.86508 0.0
H324 H 0.31191 0.37165 0.91133 0.0
H325 H 0.29558 0.31477 0.8163 0.0
H326 H 0.34256 0.39568 0.8023 0.0
H327 H 0.26344 0.30527 0.96514 0.0
H328 H 0.38553 0.36286 0.8783 0.0
H329 H 0.3566 0.40312 0.92548 0.0
C330 C 0.95453 0.32593 0.00357 0.0
C331 C 0.95848 0.33353 0.97831 0.0
N332 N 0.9695 0.32112 0.96632 0.0
N333 N 0.96333 0.30908 0.00769 0.0
C334 C 0.97227 0.30643 0.98465 0.0
H335 H 0.94531 0.33188 0.01795 0.0
Co336 Co 0.95945 0.29125 0.03821 0.0
C337 C 0.01134 0.29465 0.04521 0.0
O338 O 0.01229 0.30123 0.06939 0.0
N339 N 0.95407 0.27229 0.06962 0.0
C340 C 0.95052 0.26109 0.11103 0.0
C341 C 0.96292 0.28115 0.09361 0.0
C342 C 0.93646 0.24656 0.07331 0.0
N343 N 0.93358 0.23928 0.09823 0.0
O344 O 0.94079 0.25937 0.01954 0.0
H345 H 0.97682 0.3012 0.09863 0.0
H346 H 0.92526 0.23328 0.05811 0.0
O347 O 0.99183 0.29076 0.03134 0.0
C348 C 0.91679 0.25195 0.01544 0.0
O349 O 0.90666 0.26514 0.02602 0.0
N350 N 0.97671 0.32367 0.05528 0.0
C351 C 0.99251 0.37512 0.0694 0.0
C352 C 0.00905 0.36943 0.05482 0.0
C353 C 1.00074 0.34356 0.04781 0.0
C354 C 0.96077 0.32879 0.0702 0.0
C355 C 0.9685 0.35434 0.07791 0.0
H356 H 0.01256 0.34 0.03438 0.0
H357 H 0.9412 0.31317 0.07469 0.0
H358 H 0.97954 0.29309 0.98121 0.0
H359 H 0.95339 0.34701 0.96947 0.0
H360 H 0.95284 0.26294 0.13165 0.0
H361 H 0.02757 0.38503 0.04759 0.0
H362 H 0.95491 0.35798 0.08867 0.0
C363 C 0.62889 0.9571 0.1702 0.0
C364 C 0.6256 0.9627 0.14534 0.0
N365 N 0.64913 0.97412 0.13357 0.0
N366 N 0.65442 0.96523 0.17423 0.0
C367 C 0.66625 0.97534 0.15155 0.0
H368 H 0.61351 0.94704 0.18422 0.0
Co369 Co 0.66827 0.9595 0.20393 0.0
C370 C 0.71846 0.01043 0.21164 0.0
O371 O 0.71485 0.01059 0.23644 0.0
N372 N 0.6816 0.95226 0.23437 0.0
C373 C 0.69075 0.94799 0.27515 0.0
C374 C 0.68335 0.96135 0.25861 0.0
C375 C 0.68776 0.93309 0.23705 0.0
N376 N 0.69326 0.93004 0.26149 0.0
O377 O 0.68094 0.94131 0.18363 0.0
H378 H 0.67848 0.97603 0.26438 0.0
H379 H 0.68748 0.92076 0.22164 0.0
O380 O 0.70137 0.99188 0.19776 0.0
C381 C 0.66369 0.91787 0.17814 0.0
O382 O 0.64022 0.90804 0.18834 0.0
N383 N 0.65372 0.97621 0.2227 0.0
C384 C 0.61704 0.99033 0.23705 0.0
C385 C 0.64018 0.00842 0.22464 0.0
C386 C 0.65834 1.00089 0.2174 0.0
C387 C 0.6321 0.95906 0.2363 0.0
C388 C 0.61349 0.96578 0.24375 0.0
H389 H 0.67443 0.01386 0.20516 0.0
H390 H 0.62806 0.9392 0.23922 0.0
H391 H 0.68691 0.98285 0.14818 0.0
H392 H 0.6071 0.95772 0.13639 0.0
H393 H 0.69256 0.95021 0.29579 0.0
H394 H 0.64303 0.02726 0.21855 0.0
H395 H 0.59549 0.95119 0.2528 0.0
C396 C 0.35048 0.12399 0.65509 0.0
C397 C 0.33077 0.09833 0.6609 0.0
C398 C 0.3457 0.13932 0.63804 0.0
C399 C 0.30398 0.1353 0.58399 0.0
H400 H 0.33856 0.21035 0.59539 0.0
C401 C 0.30589 0.2145 0.51324 0.0
C402 C 0.33184 0.23327 0.50684 0.0
C403 C 0.30087 0.19624 0.53281 0.0
C404 C 0.32858 0.18939 0.59209 0.0
H405 H 0.2904 0.06865 0.65353 0.0
H406 H 0.28193 0.09573 0.62363 0.0
H407 H 0.33783 0.18176 0.62957 0.0
H408 H 0.37279 0.24745 0.51574 0.0
H409 H 0.36396 0.2161 0.55002 0.0
H410 H 0.29518 0.14337 0.54617 0.0
C411 C 0.30116 0.10383 0.63226 0.0
C412 C 0.32828 0.17303 0.61155 0.0
C413 C 0.30597 0.08839 0.64945 0.0
C414 C 0.35258 0.23323 0.52011 0.0
C415 C 0.34757 0.2154 0.53985 0.0
C416 C 0.30403 0.15175 0.56454 0.0
C417 C 0.32104 0.12948 0.62637 0.0
C418 C 0.31692 0.14592 0.60739 0.0
C419 C 0.32173 0.19694 0.54653 0.0
C420 C 0.31717 0.17899 0.56819 0.0
H421 H 0.36985 0.13225 0.66345 0.0
H422 H 0.36166 0.15874 0.63354 0.0
H423 H 0.29514 0.11452 0.58015 0.0
H424 H 0.28954 0.21408 0.50328 0.0
H425 H 0.28079 0.18207 0.53768 0.0
C426 C 0.08991 0.31049 0.68555 0.0
C427 C 0.10194 0.33111 0.66776 0.0
C428 C 0.1048 0.30741 0.70473 0.0
C429 C 0.16622 0.34751 0.74 0.0
H430 H 0.1545 0.28119 0.7671 0.0
C431 C 0.21705 0.3452 0.83207 0.0
C432 C 0.22905 0.32978 0.83185 0.0
C433 C 0.19904 0.34211 0.8131 0.0
C434 C 0.15805 0.29984 0.75964 0.0
H435 H 0.13909 0.36343 0.65488 0.0
H436 H 0.16508 0.35768 0.68779 0.0
H437 H 0.12915 0.28165 0.73 0.0
H438 H 0.23077 0.29815 0.8124 0.0
H439 H 0.19959 0.2931 0.77875 0.0
H440 H 0.1954 0.36584 0.76897 0.0
C441 C 0.1441 0.34437 0.6875 0.0
C442 C 0.14341 0.3001 0.73855 0.0
C443 C 0.12923 0.34759 0.66855 0.0
C444 C 0.22171 0.31025 0.81305 0.0
C445 C 0.20382 0.30733 0.79382 0.0
C446 C 0.18078 0.34726 0.76093 0.0
C447 C 0.13197 0.3248 0.70631 0.0
C448 C 0.14744 0.32398 0.72845 0.0
C449 C 0.19289 0.32378 0.79325 0.0
C450 C 0.17684 0.32347 0.77111 0.0
H451 H 0.06886 0.29753 0.68541 0.0
H452 H 0.09486 0.29221 0.71899 0.0
H453 H 0.16953 0.36625 0.73304 0.0
H454 H 0.22208 0.36017 0.84655 0.0
H455 H 0.19044 0.35463 0.8136 0.0
C456 C 0.78397 0.12701 0.83561 0.0
C457 C 0.77224 0.09961 0.83568 0.0
C458 C 0.80188 0.14195 0.85463 0.0
C459 C 0.84365 0.14127 0.90742 0.0
H460 H 0.83129 0.1954 0.9347 0.0
C461 C 0.91267 0.22159 0.97976 0.0
C462 C 0.90081 0.22999 0.99792 0.0
C463 C 0.89747 0.20319 0.96102 0.0
C464 C 0.83485 0.18019 0.92756 0.0
H465 H 0.7709 0.06634 0.85493 0.0
H466 H 0.802 0.09254 0.88865 0.0
H467 H 0.80499 0.16866 0.89919 0.0
H468 H 0.86371 0.22442 0.01196 0.0
H469 H 0.83722 0.19197 0.9798 0.0
H470 H 0.87332 0.15273 0.93639 0.0
C471 C 0.79756 0.10247 0.87367 0.0
C472 C 0.82003 0.16511 0.90688 0.0
C473 C 0.77974 0.08748 0.85441 0.0
C474 C 0.87343 0.2186 0.99796 0.0
C475 C 0.85827 0.20009 0.97946 0.0
C476 C 0.85857 0.15646 0.92825 0.0
C477 C 0.80823 0.12981 0.87436 0.0
C478 C 0.82432 0.14559 0.89644 0.0
C479 C 0.87016 0.19279 0.96027 0.0
C480 C 0.85426 0.17606 0.93855 0.0
H481 H 0.77884 0.13693 0.8212 0.0
H482 H 0.81026 0.16303 0.85424 0.0
H483 H 0.84745 0.12642 0.89974 0.0
H484 H 0.93377 0.23011 0.97926 0.0
H485 H 0.90724 0.19807 0.94643 0.0
C486 C 0.69171 0.78016 0.01875 0.0
C487 C 0.67266 0.77257 -0.00061 0.0
C488 C 0.69436 0.79855 0.03728 0.0
C489 C 0.65419 0.82304 0.06714 0.0
H490 H 0.7192 0.8742 0.09941 0.0
C491 C 0.69021 0.91405 0.1425 0.0
C492 C 0.66924 0.9021 0.15991 0.0
C493 C 0.69337 0.89916 0.12337 0.0
C494 C 0.70092 0.8601 0.09046 0.0
H495 H 0.64294 0.77962 0.98296 0.0
H496 H 0.64807 0.81214 0.01467 0.0
H497 H 0.7203 0.84823 0.0632 0.0
H498 H 0.63621 0.86509 0.17209 0.0
H499 H 0.64204 0.83913 0.13928 0.0
H500 H 0.63476 0.83503 0.09378 0.0
C501 C 0.66036 0.80335 0.01616 0.0
C502 C 0.70153 0.8451 0.06988 0.0
C503 C 0.65751 0.78482 0.99791 0.0
C504 C 0.65233 0.8749 0.1587 0.0
C505 C 0.65561 0.86005 0.13981 0.0
C506 C 0.65359 0.83797 0.08755 0.0
C507 C 0.67816 0.80977 0.03658 0.0
C508 C 0.67813 0.8264 0.058 0.0
C509 C 0.67568 0.87208 0.12146 0.0
C510 C 0.67688 0.85655 0.0996 0.0
H511 H 0.70359 0.77092 0.02036 0.0
H512 H 0.70817 0.80297 0.05281 0.0
H513 H 0.63575 0.80852 0.05878 0.0
H514 H 0.7035 0.93503 0.14298 0.0
H515 H 0.70895 0.90903 0.10945 0.0
C516 C 0.91329 0.6931 0.18409 0.0
C517 C 0.90085 0.67285 0.16599 0.0
C518 C 0.89866 0.69642 0.20339 0.0
C519 C 0.8372 0.65673 0.23839 0.0
H520 H 0.84974 0.72287 0.26677 0.0
C521 C 0.78692 0.6581 0.33107 0.0
C522 C 0.77475 0.67336 0.33106 0.0
C523 C 0.80502 0.66151 0.31208 0.0
C524 C 0.84599 0.70427 0.25896 0.0
H525 H 0.8633 0.64158 0.15259 0.0
H526 H 0.8378 0.64774 0.18574 0.0
H527 H 0.87491 0.72268 0.22935 0.0
H528 H 0.7729 0.70512 0.31203 0.0
H529 H 0.80428 0.71077 0.27836 0.0
H530 H 0.80807 0.63819 0.26737 0.0
C531 C 0.85887 0.66056 0.18558 0.0
C532 C 0.8605 0.70417 0.23768 0.0
C533 C 0.87346 0.65711 0.16652 0.0
C534 C 0.78207 0.69313 0.3125 0.0
C535 C 0.80007 0.6964 0.29327 0.0
C536 C 0.82281 0.65683 0.25953 0.0
C537 C 0.87137 0.67963 0.20476 0.0
C538 C 0.85612 0.68034 0.22712 0.0
C539 C 0.8111 0.68004 0.29244 0.0
C540 C 0.82705 0.68055 0.27015 0.0
H541 H 0.93442 0.70548 0.18415 0.0
H542 H 0.90886 0.71122 0.21794 0.0
H543 H 0.83363 0.63803 0.23104 0.0
H544 H 0.78192 0.64296 0.34536 0.0
H545 H 0.81369 0.64906 0.31235 0.0
C546 C 0.21974 0.91084 0.35032 0.0
C547 C 0.2396 0.90489 0.34497 0.0
C548 C 0.20165 0.89769 0.37004 0.0
C549 C 0.19507 0.86388 0.43044 0.0
H550 H 0.12048 0.8225 0.41686 0.0
C551 C 0.12786 0.77568 0.49185 0.0
C552 C 0.10195 0.76951 0.49669 0.0
C553 C 0.1438 0.79618 0.47544 0.0
C554 C 0.14117 0.83442 0.42117 0.0
H555 H 0.25613 0.88064 0.35605 0.0
H556 H 0.22501 0.85823 0.39054 0.0
H557 H 0.15004 0.8516 0.38352 0.0
H558 H 0.07253 0.78037 0.48844 0.0
H559 H 0.10067 0.81659 0.45968 0.0
H560 H 0.18658 0.84661 0.46778 0.0
C561 C 0.22333 0.87291 0.37949 0.0
C562 C 0.15804 0.85099 0.40206 0.0
C563 C 0.24102 0.88562 0.35961 0.0
C564 C 0.09245 0.78468 0.48507 0.0
C565 C 0.10849 0.80531 0.46853 0.0
C566 C 0.17827 0.8476 0.44956 0.0
C567 C 0.20359 0.87888 0.38498 0.0
C568 C 0.18521 0.86511 0.40629 0.0
C569 C 0.13433 0.81119 0.46346 0.0
C570 C 0.15125 0.83189 0.44482 0.0
H571 H 0.2182 0.9256 0.3393 0.0
H572 H 0.18651 0.90254 0.37394 0.0
H573 H 0.21594 0.8749 0.43424 0.0
H574 H 0.1358 0.76437 0.50041 0.0
H575 H 0.1634 0.79977 0.47159 0.0
C576 C 0.29703 0.19286 0.40517 0.0
C577 C 0.30505 0.21542 0.39006 0.0
C578 C 0.2946 0.16997 0.39444 0.0
C579 C 0.31785 0.1476 0.33928 0.0
H580 H 0.26163 0.07853 0.35832 0.0
C581 C 0.30009 0.05515 0.28515 0.0
C582 C 0.29483 0.03303 0.29983 0.0
C583 C 0.30027 0.07669 0.29653 0.0
C584 C 0.27758 0.09768 0.35301 0.0
H585 H 0.31632 0.23117 0.35154 0.0
H586 H 0.31141 0.19124 0.3328 0.0
H587 H 0.26358 0.1174 0.37732 0.0
H588 H 0.28501 0.01601 0.33797 0.0
H589 H 0.28546 0.05378 0.35788 0.0
H590 H 0.33184 0.12799 0.31495 0.0
C591 C 0.30745 0.19138 0.35309 0.0
C592 C 0.27872 0.11996 0.36389 0.0
C593 C 0.30994 0.21424 0.3638 0.0
C594 C 0.2892 0.03275 0.32611 0.0
C595 C 0.28932 0.05434 0.3375 0.0
C596 C 0.31668 0.12539 0.32838 0.0
C597 C 0.30009 0.16905 0.36832 0.0
C598 C 0.2988 0.14521 0.35704 0.0
C599 C 0.29515 0.07668 0.32288 0.0
C600 C 0.29646 0.10017 0.33499 0.0
H601 H 0.29272 0.19286 0.42535 0.0
H602 H 0.28902 0.15319 0.40677 0.0
H603 H 0.33394 0.16669 0.33399 0.0
H604 H 0.30435 0.05602 0.26484 0.0
H605 H 0.30439 0.0934 0.28463 0.0
C606 C 0.24621 0.3013 0.45212 0.0
C607 C 0.26211 0.29455 0.46661 0.0
C608 C 0.22455 0.3011 0.46322 0.0
C609 C 0.17821 0.27508 0.51755 0.0
H610 H 0.16725 0.33316 0.50137 0.0
C611 C 0.10127 0.29296 0.56947 0.0
C612 C 0.08777 0.30243 0.55466 0.0
C613 C 0.12176 0.29052 0.55884 0.0
C614 C 0.16978 0.3166 0.50583 0.0
H615 H 0.2673 0.28177 0.50411 0.0
H616 H 0.22941 0.28158 0.52357 0.0
H617 H 0.20454 0.33182 0.48305 0.0
H618 H 0.08501 0.31609 0.51673 0.0
H619 H 0.12016 0.31121 0.49811 0.0
H620 H 0.14334 0.25988 0.54037 0.0
C621 C 0.23371 0.28687 0.50353 0.0
C622 C 0.19121 0.31586 0.49535 0.0
C623 C 0.2555 0.28711 0.4924 0.0
C624 C 0.09477 0.30859 0.52873 0.0
C625 C 0.11521 0.30612 0.51811 0.0
C626 C 0.15668 0.2758 0.52803 0.0
C627 C 0.21816 0.29415 0.4891 0.0
C628 C 0.19562 0.29503 0.50093 0.0
C629 C 0.12925 0.29745 0.53313 0.0
C630 C 0.15212 0.29651 0.52217 0.0
H631 H 0.25057 0.30697 0.43216 0.0
H632 H 0.21272 0.30635 0.45143 0.0
H633 H 0.18092 0.25864 0.52204 0.0
H634 H 0.09618 0.28763 0.58938 0.0
H635 H 0.1322 0.28388 0.571 0.0
C636 C 0.81037 0.10131 0.73771 0.0
C637 C 0.78788 0.08648 0.7226 0.0
C638 C 0.83313 0.12191 0.72697 0.0
C639 C 0.85477 0.16768 0.67212 0.0
H640 H 0.92436 0.18205 0.69129 0.0
C641 C 0.9466 0.24446 0.61875 0.0
C642 C 0.96874 0.26131 0.63343 0.0
C643 C 0.92527 0.22282 0.63001 0.0
C644 C 0.90506 0.17845 0.68596 0.0
H645 H 0.77212 0.08147 0.68406 0.0
H646 H 0.81189 0.11689 0.66526 0.0
H647 H 0.88587 0.14435 0.70986 0.0
H648 H 0.98593 0.26832 0.67147 0.0
H649 H 0.94845 0.23046 0.69122 0.0
H650 H 0.87384 0.20169 0.64827 0.0
C651 C 0.81177 0.11287 0.68555 0.0
C652 C 0.883 0.15683 0.69657 0.0
C653 C 0.78903 0.09229 0.69629 0.0
C654 C 0.96919 0.25573 0.65961 0.0
C655 C 0.94777 0.23398 0.6709 0.0
C656 C 0.87677 0.18921 0.66152 0.0
C657 C 0.83398 0.12819 0.70083 0.0
C658 C 0.85758 0.15111 0.68966 0.0
C659 C 0.92545 0.21741 0.65625 0.0
C660 C 0.90218 0.19479 0.66817 0.0
H661 H 0.81035 0.09716 0.75795 0.0
H662 H 0.84981 0.13336 0.73934 0.0
H663 H 0.83552 0.16423 0.6668 0.0
H664 H 0.94562 0.24803 0.5985 0.0
H665 H 0.90861 0.21021 0.61806 0.0
C666 C 0.69753 0.94299 0.78741 0.0
C667 C 0.7054 0.96635 0.80103 0.0
C668 C 0.69957 0.92249 0.79844 0.0
C669 C 0.70369 0.89533 0.86082 0.0
H670 H 0.72492 0.85472 0.81891 0.0
C671 C 0.71308 0.80944 0.90257 0.0
C672 C 0.70196 0.78634 0.88782 0.0
C673 C 0.7164 0.83282 0.89224 0.0
C674 C 0.7188 0.86576 0.83083 0.0
H675 H 0.72174 0.9865 0.83701 0.0
H676 H 0.72539 0.95063 0.85628 0.0
H677 H 0.72529 0.89303 0.80068 0.0
H678 H 0.68608 0.77006 0.85036 0.0
H679 H 0.69198 0.81075 0.83237 0.0
H680 H 0.69687 0.86784 0.89087 0.0
C681 C 0.71743 0.94815 0.83709 0.0
C682 C 0.719 0.88771 0.82039 0.0
C683 C 0.71544 0.96875 0.826 0.0
C684 C 0.69501 0.78745 0.86221 0.0
C685 C 0.69838 0.81084 0.85188 0.0
C686 C 0.70351 0.87336 0.87128 0.0
C687 C 0.70953 0.92477 0.82341 0.0
C688 C 0.71109 0.90255 0.83513 0.0
C689 C 0.70879 0.83373 0.86687 0.0
C690 C 0.71073 0.85811 0.8563 0.0
H691 H 0.68966 0.94041 0.76816 0.0
H692 H 0.6929 0.90462 0.78751 0.0
H693 H 0.69719 0.90613 0.87263 0.0
H694 H 0.71913 0.80946 0.92218 0.0
H695 H 0.72489 0.85021 0.90417 0.0
C696 C 0.7481 0.71447 0.99054 0.0
C697 C 0.74114 0.70703 0.9648 0.0
C698 C 0.77012 0.71486 0.00124 0.0
C699 C 0.81327 0.68669 0.992 0.0
H700 H 0.86081 0.74273 0.03713 0.0
C701 C 0.90987 0.69442 0.02627 0.0
C702 C 0.91634 0.70036 0.05232 0.0
C703 C 0.88954 0.6969 0.01527 0.0
C704 C 0.8476 0.72681 0.02474 0.0
H705 H 0.75221 0.69464 0.93005 0.0
H706 H 0.79049 0.69551 0.94859 0.0
H707 H 0.82295 0.74355 0.01904 0.0
H708 H 0.90725 0.71482 0.08686 0.0
H709 H 0.87152 0.71861 0.06785 0.0
H710 H 0.83765 0.66981 0.99778 0.0
C711 C 0.77877 0.70067 0.96065 0.0
C712 C 0.82589 0.72728 0.0144 0.0
C713 C 0.75686 0.70032 0.94997 0.0
C714 C 0.90254 0.70967 0.06685 0.0
C715 C 0.88222 0.71214 0.05586 0.0
C716 C 0.83491 0.68621 0.00234 0.0
C717 C 0.78558 0.70774 0.98645 0.0
C718 C 0.80851 0.70725 0.99783 0.0
C719 C 0.87519 0.70539 0.03004 0.0
C720 C 0.8524 0.70629 0.01879 0.0
H721 H 0.73644 0.71977 0.0025 0.0
H722 H 0.77471 0.7202 0.02124 0.0
H723 H 0.80002 0.67069 0.97969 0.0
H724 H 0.91991 0.68707 0.01451 0.0
H725 H 0.88493 0.69193 0.99521 0.0
C726 C 0.20357 0.88165 0.23946 0.0
C727 C 0.21423 0.90715 0.22952 0.0
C728 C 0.18063 0.86102 0.22909 0.0
C729 C 0.12148 0.845 0.19223 0.0
H730 H 0.12351 0.78259 0.17226 0.0
C731 C 0.03073 0.74805 0.15707 0.0
C732 C 0.03471 0.73768 0.1343 0.0
C733 C 0.05186 0.76911 0.16947 0.0
C734 C 0.12267 0.79989 0.17777 0.0
H735 H 0.20883 0.93118 0.20151 0.0
H736 H 0.16839 0.89509 0.18353 0.0
H737 H 0.16166 0.8188 0.19299 0.0
H738 H 0.06399 0.74128 0.10676 0.0
H739 H 0.10076 0.77761 0.12865 0.0
H740 H 0.08237 0.82592 0.177 0.0
C741 C 0.17792 0.89112 0.19927 0.0
C742 C 0.1444 0.82051 0.18977 0.0
C743 C 0.20111 0.9117 0.2094 0.0
C744 C 0.06021 0.74882 0.12421 0.0
C745 C 0.08131 0.76953 0.13681 0.0
C746 C 0.09953 0.82414 0.18059 0.0
C747 C 0.16766 0.86552 0.2088 0.0
C748 C 0.14412 0.84336 0.19693 0.0
C749 C 0.07738 0.77985 0.15957 0.0
C750 C 0.10005 0.80152 0.17301 0.0
H751 H 0.21338 0.87748 0.25476 0.0
H752 H 0.17307 0.8415 0.23686 0.0
H753 H 0.12072 0.86235 0.19768 0.0
H754 H 0.01132 0.7399 0.1653 0.0
H755 H 0.04835 0.77666 0.18707 0.0
C756 C 0.94581 0.70043 0.54722 0.0
C757 C 0.96808 0.70662 0.53233 0.0
C758 C 0.92441 0.70107 0.53654 0.0
C759 C 0.90402 0.72743 0.48249 0.0
H760 H 0.83471 0.67033 0.49951 0.0
C761 C 0.80969 0.7098 0.43008 0.0
C762 C 0.7866 0.70054 0.44464 0.0
C763 C 0.83251 0.71234 0.44108 0.0
C764 C 0.85388 0.68664 0.49484 0.0
H765 H 0.98545 0.71886 0.49454 0.0
H766 H 0.94786 0.71981 0.47579 0.0
H767 H 0.87316 0.67116 0.51766 0.0
H768 H 0.76984 0.6875 0.48255 0.0
H769 H 0.80972 0.69254 0.50185 0.0
H770 H 0.88462 0.74286 0.45958 0.0
C771 C 0.94712 0.71463 0.49583 0.0
C772 C 0.87596 0.68709 0.50522 0.0
C773 C 0.9686 0.71395 0.50655 0.0
C774 C 0.78721 0.69479 0.47074 0.0
C775 C 0.81004 0.69737 0.48175 0.0
C776 C 0.88188 0.72701 0.47212 0.0
C777 C 0.92466 0.70792 0.51067 0.0
C778 C 0.9013 0.70751 0.49925 0.0
C779 C 0.83284 0.70575 0.46696 0.0
C780 C 0.85652 0.70663 0.47822 0.0
H781 H 0.94476 0.69487 0.56719 0.0
H782 H 0.90763 0.69624 0.54863 0.0
H783 H 0.92325 0.74359 0.47773 0.0
H784 H 0.81009 0.71482 0.41005 0.0
H785 H 0.84965 0.71873 0.42907 0.0
C786 C 0.25513 0.96769 0.67254 0.0
C787 C 0.26196 0.96553 0.69793 0.0
C788 C 0.23296 0.94695 0.66103 0.0
C789 C 0.17054 0.8865 0.67655 0.0
H790 H 0.17547 0.86605 0.60697 0.0
C791 C 0.09543 0.78603 0.63439 0.0
C792 C 0.08813 0.78475 0.6085 0.0
C793 C 0.11537 0.80939 0.64484 0.0
C794 C 0.17362 0.87173 0.62628 0.0
H795 H 0.25066 0.93989 0.73114 0.0
H796 H 0.21234 0.90388 0.71107 0.0
H797 H 0.21268 0.90459 0.62587 0.0
H798 H 0.09558 0.8075 0.5736 0.0
H799 H 0.13042 0.84822 0.59182 0.0
H800 H 0.13164 0.85346 0.67712 0.0
C801 C 0.22387 0.92166 0.70012 0.0
C802 C 0.19496 0.89383 0.63712 0.0
C803 C 0.246 0.94229 0.71157 0.0
C804 C 0.10097 0.80761 0.59347 0.0
C805 C 0.12096 0.83098 0.60392 0.0
C806 C 0.14923 0.86442 0.66574 0.0
C807 C 0.21708 0.92368 0.6747 0.0
C808 C 0.1938 0.90128 0.66251 0.0
C809 C 0.12855 0.8321 0.62968 0.0
C810 C 0.15061 0.85656 0.64059 0.0
H811 H 0.26696 0.98533 0.6615 0.0
H812 H 0.22815 0.94923 0.64149 0.0
H813 H 0.1688 0.89197 0.69599 0.0
H814 H 0.08631 0.76881 0.64648 0.0
H815 H 0.12098 0.80944 0.66464 0.0
C816 C 0.30641 0.24906 0.87721 0.0
C817 C 0.29554 0.26274 0.86507 0.0
C818 C 0.30522 0.22711 0.86565 0.0
C819 C 0.29573 0.19433 0.80269 0.0
H820 H 0.28791 0.13676 0.8451 0.0
C821 C 0.3174 0.1154 0.76409 0.0
C822 C 0.30223 0.08951 0.77297 0.0
C823 C 0.31451 0.13556 0.77475 0.0
C824 C 0.28976 0.15246 0.83287 0.0
H825 H 0.27459 0.26384 0.83129 0.0
H826 H 0.27201 0.22514 0.81131 0.0
H827 H 0.28567 0.17302 0.86471 0.0
H828 H 0.27177 0.06442 0.79964 0.0
H829 H 0.26627 0.09953 0.81801 0.0
H830 H 0.29919 0.17344 0.77075 0.0
C831 C 0.2819 0.23169 0.82961 0.0
C832 C 0.28886 0.1735 0.8442 0.0
C833 C 0.28324 0.25381 0.84113 0.0
C834 C 0.28391 0.08422 0.79261 0.0
C835 C 0.28084 0.10437 0.80315 0.0
C836 C 0.29645 0.17319 0.79132 0.0
C837 C 0.29294 0.21809 0.84171 0.0
C838 C 0.29221 0.19491 0.82933 0.0
C839 C 0.29622 0.13036 0.79446 0.0
C840 C 0.29383 0.15212 0.80631 0.0
H841 H 0.31619 0.25547 0.89558 0.0
H842 H 0.31441 0.21752 0.87534 0.0
H843 H 0.2986 0.21052 0.79062 0.0
H844 H 0.33205 0.12025 0.74933 0.0
H845 H 0.32711 0.15536 0.76791 0.0
C846 C 0.03398 0.2877 0.0076 0.0
C847 C 0.03389 0.29371 0.03371 0.0
C848 C 0.05571 0.28757 0.99682 0.0
C849 C 0.12661 0.31442 0.00703 0.0
H850 H 0.11832 0.26013 0.95954 0.0
C851 C 0.21555 0.3074 0.97168 0.0
C852 C 0.2163 0.3021 0.94547 0.0
C853 C 0.19273 0.30479 0.98271 0.0
C854 C 0.12098 0.27558 0.97258 0.0
H855 H 0.05645 0.30392 0.06902 0.0
H856 H 0.09409 0.30357 0.05029 0.0
H857 H 0.07956 0.25896 0.97783 0.0
H858 H 0.19302 0.28867 0.91067 0.0
H859 H 0.15351 0.28477 0.92973 0.0
H860 H 0.16792 0.33126 0.00166 0.0
C861 C 0.07755 0.29926 0.03805 0.0
C862 C 0.09875 0.2749 0.98305 0.0
C863 C 0.05586 0.29932 0.04882 0.0
C864 C 0.19335 0.29335 0.93079 0.0
C865 C 0.17054 0.2908 0.94182 0.0
C866 C 0.14879 0.31515 0.99653 0.0
C867 C 0.07782 0.29356 0.0119 0.0
C868 C 0.10132 0.29428 0.00046 0.0
C869 C 0.17004 0.29685 0.96784 0.0
C870 C 0.14629 0.29572 0.97922 0.0
H871 H 0.01739 0.28332 0.9954 0.0
H872 H 0.05539 0.28331 0.97656 0.0
H873 H 0.12928 0.32991 0.02003 0.0
H874 H 0.23281 0.31431 0.98359 0.0
H875 H 0.19293 0.3092 0.00292 0.0
C876 C 0.76313 0.05004 0.215 0.0
C877 C 0.74188 0.03259 0.19969 0.0
C878 C 0.78508 0.07133 0.20398 0.0
C879 C 0.81871 0.09773 0.14141 0.0
H880 H 0.85207 0.16361 0.17852 0.0
C881 C 0.89158 0.19714 0.09494 0.0
C882 C 0.91405 0.21449 0.10909 0.0
C883 C 0.87194 0.17397 0.10594 0.0
C884 C 0.84317 0.14526 0.16807 0.0
H885 H 0.72703 0.02384 0.16073 0.0
H886 H 0.76495 0.06134 0.14156 0.0
H887 H 0.81488 0.12537 0.1976 0.0
H888 H 0.93352 0.22018 0.14587 0.0
H889 H 0.89891 0.18 0.16516 0.0
H890 H 0.84666 0.11806 0.11154 0.0
C891 C 0.765 0.05828 0.16204 0.0
C892 C 0.82185 0.12328 0.17901 0.0
C893 C 0.74314 0.03681 0.17305 0.0
C894 C 0.91642 0.20766 0.13445 0.0
C895 C 0.8966 0.18458 0.14553 0.0
C896 C 0.83988 0.11981 0.13037 0.0
C897 C 0.78624 0.0759 0.17738 0.0
C898 C 0.80927 0.0992 0.16582 0.0
C899 C 0.87405 0.1676 0.13145 0.0
C900 C 0.85229 0.14383 0.14356 0.0
H901 H 0.7629 0.04722 0.23556 0.0
H902 H 0.80123 0.08411 0.21637 0.0
H903 H 0.80986 0.07945 0.13086 0.0
H904 H 0.88858 0.20167 0.07557 0.0
H905 H 0.85464 0.16145 0.09471 0.0
C906 C 0.68353 0.88415 0.26037 0.0
C907 C 0.69697 0.90929 0.27137 0.0
C908 C 0.68585 0.86356 0.27077 0.0
C909 C 0.72738 0.84733 0.30968 0.0
H910 H 0.66255 0.78349 0.32561 0.0
C911 C 0.72051 0.7491 0.34163 0.0
C912 C 0.70532 0.73776 0.36376 0.0
C913 C 0.72084 0.77065 0.32987 0.0
C914 C 0.6808 0.80119 0.32123 0.0
H915 H 0.72392 0.93274 0.3014 0.0
H916 H 0.72837 0.89665 0.31945 0.0
H917 H 0.66101 0.82023 0.30562 0.0
H918 H 0.67854 0.7401 0.39082 0.0
H919 H 0.67875 0.77724 0.36999 0.0
H920 H 0.74712 0.82806 0.3252 0.0
C921 C 0.71594 0.89298 0.30283 0.0
C922 C 0.67992 0.82212 0.30968 0.0
C923 C 0.71328 0.91354 0.29265 0.0
C924 C 0.69051 0.74839 0.37385 0.0
C925 C 0.6905 0.76958 0.36187 0.0
C926 C 0.72826 0.82616 0.32085 0.0
C927 C 0.70195 0.86773 0.29218 0.0
C928 C 0.70318 0.84546 0.30395 0.0
C929 C 0.70561 0.78089 0.33977 0.0
C930 C 0.70495 0.803 0.32694 0.0
H931 H 0.67057 0.88019 0.24417 0.0
H932 H 0.67494 0.84431 0.26214 0.0
H933 H 0.74558 0.86508 0.30532 0.0
H934 H 0.73215 0.74135 0.33342 0.0
H935 H 0.73255 0.77897 0.31276 0.0
C936 C 0.41737 0.41823 0.4474 0.0
C937 C 0.40689 0.40181 0.42589 0.0
C938 C 0.43986 0.44281 0.44512 0.0
C939 C 0.48043 0.49539 0.40046 0.0
H940 H 0.53756 0.50897 0.44657 0.0
C941 C 0.58519 0.58162 0.3844 0.0
C942 C 0.60141 0.59361 0.40573 0.0
C943 C 0.56046 0.55948 0.38745 0.0
C944 C 0.52171 0.50586 0.43386 0.0
H945 H 0.41123 0.39853 0.385 0.0
H946 H 0.45044 0.44199 0.38087 0.0
H947 H 0.49585 0.46838 0.45055 0.0
H948 H 0.60426 0.59236 0.44705 0.0
H949 H 0.56056 0.55428 0.45267 0.0
H950 H 0.50591 0.533 0.38406 0.0
C951 C 0.44121 0.43566 0.3995 0.0
C952 C 0.49785 0.48247 0.43607 0.0
C953 C 0.4189 0.41083 0.40186 0.0
C954 C 0.59216 0.5834 0.43029 0.0
C955 C 0.56719 0.56146 0.43342 0.0
C956 C 0.50417 0.51901 0.3985 0.0
C957 C 0.45216 0.45165 0.42122 0.0
C958 C 0.47707 0.47691 0.41926 0.0
C959 C 0.55114 0.54895 0.41199 0.0
C960 C 0.52527 0.52447 0.415 0.0
H961 H 0.40876 0.41164 0.46624 0.0
H962 H 0.44785 0.45481 0.46212 0.0
H963 H 0.4646 0.49165 0.38743 0.0
H964 H 0.59204 0.58879 0.36517 0.0
H965 H 0.54905 0.55019 0.37042 0.0
C966 C 0.00533 0.41641 0.56851 0.0
C967 C 0.00307 0.40469 0.59258 0.0
C968 C 0.00209 0.43831 0.56621 0.0
C969 C 0.01157 0.4948 0.60257 0.0
H970 H 0.96706 0.5014 0.55186 0.0
C971 C 0.00418 0.58853 0.59725 0.0
C972 C 0.00256 0.59752 0.57276 0.0
C973 C 1.00098 0.56351 0.60043 0.0
C974 C 0.97987 0.50008 0.56593 0.0
H975 H 0.99563 0.40663 0.63305 0.0
H976 H 0.99034 0.44503 0.62905 0.0
H977 H 0.96802 0.46053 0.55507 0.0
H978 H 0.99636 0.58752 0.53239 0.0
H979 H 0.99172 0.5444 0.53765 0.0
H980 H 0.0245 0.53449 0.61279 0.0
C981 C 0.99431 0.43711 0.61197 0.0
C982 C 0.98027 0.47658 0.5678 0.0
C983 C 0.99711 0.41502 0.6142 0.0
C984 C 0.99724 0.58088 0.55156 0.0
C985 C 0.99451 0.55608 0.55464 0.0
C986 C 0.01154 0.51842 0.60042 0.0
C987 C 0.99707 0.44914 0.58802 0.0
C988 C 0.99613 0.47375 0.58615 0.0
C989 C 0.99666 0.54713 0.57908 0.0
C990 C 0.99572 0.52146 0.58205 0.0
H991 H 0.00997 0.40885 0.55157 0.0
H992 H 0.00446 0.44734 0.54755 0.0
H993 H 0.02423 0.49322 0.61667 0.0
H994 H 0.00817 0.60098 0.61391 0.0
H995 H 0.00217 0.55717 0.61963 0.0
C996 C 0.6002 0.03361 0.75319 0.0
C997 C 0.60326 0.01143 0.75446 0.0
C998 C 0.57545 0.03093 0.7503 0.0
C999 C 0.50586 0.98646 0.76247 0.0
H1000 H 0.49734 0.03332 0.71633 0.0
C1001 C 0.40709 0.98577 0.74777 0.0
C1002 C 0.4091 0.01053 0.74555 0.0
C1003 C 0.42967 0.9835 0.74861 0.0
C1004 C 0.49942 0.02024 0.72948 0.0
H1005 H 0.58235 0.9689 0.75346 0.0
H1006 H 0.53884 0.96429 0.74881 0.0
H1007 H 0.53864 0.03333 0.71702 0.0
H1008 H 0.43669 0.05232 0.7428 0.0
H1009 H 0.4756 0.0484 0.7452 0.0
H1010 H 0.4667 0.97383 0.77534 0.0
C1011 C 0.55584 0.98374 0.75005 0.0
C1012 C 0.52306 0.02018 0.72979 0.0
C1013 C 0.58075 0.98642 0.75272 0.0
C1014 C 0.43421 0.03293 0.74497 0.0
C1015 C 0.45664 0.03067 0.74586 0.0
C1016 C 0.48212 0.98659 0.76224 0.0
C1017 C 0.55298 0.00602 0.74883 0.0
C1018 C 0.52677 0.00371 0.74664 0.0
C1019 C 0.4547 0.00594 0.74712 0.0
C1020 C 0.47888 0.00393 0.74614 0.0
H1021 H 0.61684 0.05318 0.75527 0.0
H1022 H 0.57385 0.04847 0.74994 0.0
H1023 H 0.50822 0.97366 0.77577 0.0
H1024 H 0.38807 0.96812 0.74843 0.0
H1025 H 0.42751 0.96416 0.74959 0.0
C1026 C 0.5839 0.59029 0.90252 0.0
C1027 C 0.59593 0.59949 0.92651 0.0
C1028 C 0.56168 0.56538 0.90028 0.0
C1029 C 0.50521 0.51856 0.93699 0.0
H1030 H 0.49744 0.46784 0.88533 0.0
C1031 C 0.41106 0.41753 0.93151 0.0
C1032 C 0.40183 0.40718 0.90698 0.0
C1033 C 0.43603 0.43946 0.9346 0.0
C1034 C 0.49909 0.48187 0.89967 0.0
H1035 H 0.59424 0.58991 0.9669 0.0
H1036 H 0.55527 0.54658 0.96301 0.0
H1037 H 0.53863 0.50932 0.88857 0.0
H1038 H 0.4113 0.4117 0.86645 0.0
H1039 H 0.45431 0.45031 0.87161 0.0
H1040 H 0.46552 0.49198 0.94749 0.0
C1041 C 0.56318 0.55851 0.94594 0.0
C1042 C 0.52277 0.50558 0.90156 0.0
C1043 C 0.58559 0.58318 0.94811 0.0
C1044 C 0.41812 0.41899 0.88565 0.0
C1045 C 0.44287 0.44113 0.88866 0.0
C1046 C 0.48141 0.49509 0.93484 0.0
C1047 C 0.55085 0.54949 0.92208 0.0
C1048 C 0.52603 0.52412 0.92024 0.0
C1049 C 0.45213 0.45185 0.91316 0.0
C1050 C 0.47795 0.4764 0.91611 0.0
H1051 H 0.59146 0.60251 0.8856 0.0
H1052 H 0.55242 0.55891 0.88168 0.0
H1053 H 0.50712 0.5327 0.95136 0.0
H1054 H 0.3989 0.40871 0.94827 0.0
H1055 H 0.44262 0.44676 0.95383 0.0
C1056 C 0.00508 0.41902 0.05104 0.0
C1057 C 0.99836 0.40253 0.07258 0.0
C1058 C 0.00748 0.44376 0.05306 0.0
C1059 C 0.01891 0.49646 0.0973 0.0
H1060 H 0.97607 0.51012 0.05029 0.0
C1061 C 0.99973 0.58231 0.11273 0.0
C1062 C 0.99565 0.59432 0.09133 0.0
C1063 C 0.00254 0.5603 0.10975 0.0
C1064 C 0.98862 0.507 0.06325 0.0
H1065 H 0.98977 0.39928 0.11327 0.0
H1066 H 0.99462 0.44302 0.11695 0.0
H1067 H 0.97731 0.46957 0.0466 0.0
H1068 H 0.99202 0.59325 0.04997 0.0
H1069 H 0.99806 0.5554 0.04448 0.0
H1070 H 0.03074 0.53401 0.11368 0.0
C1071 C 0.99786 0.43663 0.09851 0.0
C1072 C 0.98917 0.48363 0.06119 0.0
C1073 C 0.99501 0.41165 0.0964 0.0
C1074 C 0.99505 0.58426 0.06678 0.0
C1075 C 0.99832 0.56246 0.06372 0.0
C1076 C 0.01874 0.52007 0.09909 0.0
C1077 C 0.00359 0.45268 0.07673 0.0
C1078 C 0.0041 0.47803 0.07835 0.0
C1079 C 0.00172 0.54991 0.08522 0.0
C1080 C 0.00332 0.52554 0.08229 0.0
H1081 H 0.0074 0.41235 0.03236 0.0
H1082 H 0.01203 0.45581 0.03602 0.0
H1083 H 0.03077 0.49268 0.1106 0.0
H1084 H 0.99977 0.58937 0.13195 0.0
H1085 H 0.00452 0.55097 0.12684 0.0
C1086 C 0.4088 0.98929 0.22968 0.0
C1087 C 0.40278 0.9982 0.2523 0.0
C1088 C 0.43348 0.99172 0.22637 0.0
C1089 C 0.50182 0.025 0.25017 0.0
H1090 H 0.49948 0.96073 0.22921 0.0
C1091 C 0.59162 0.0093 0.25754 0.0
C1092 C 0.59447 0.99462 0.23795 0.0
C1093 C 0.56919 0.01183 0.25847 0.0
C1094 C 0.50063 0.97901 0.23469 0.0
H1095 H 0.41854 0.01757 0.28879 0.0
H1096 H 0.46163 0.02222 0.28272 0.0
H1097 H 0.45917 0.96248 0.23099 0.0
H1098 H 0.57712 0.9718 0.20364 0.0
H1099 H 0.53839 0.97666 0.20474 0.0
H1100 H 0.54339 0.04153 0.25383 0.0
C1101 C 0.44726 0.01344 0.26752 0.0
C1102 C 0.47746 0.97998 0.2357 0.0
C1103 C 0.42253 0.01085 0.27092 0.0
C1104 C 0.57509 0.98306 0.21901 0.0
C1105 C 0.55288 0.98571 0.2198 0.0
C1106 C 0.52512 0.02409 0.24896 0.0
C1107 C 0.45277 0.00327 0.24552 0.0
C1108 C 0.47776 0.00296 0.24346 0.0
C1109 C 0.54939 0.99977 0.23974 0.0
C1110 C 0.52479 0.00106 0.24118 0.0
H1111 H 0.39423 0.97984 0.21476 0.0
H1112 H 0.43732 0.98408 0.20901 0.0
H1113 H 0.50265 0.04301 0.25612 0.0
H1114 H 0.60644 0.01832 0.27231 0.0
H1115 H 0.56705 0.02262 0.27421 0.0
C1116 C 0.34533 0.36607 0.75974 0.0
C1117 C 0.32344 0.34804 0.77401 0.0
C1118 C 0.34777 0.36158 0.73386 0.0
C1119 C 0.3091 0.32474 0.67741 0.0
H1120 H 0.3775 0.34382 0.64979 0.0
C1121 C 0.32614 0.30431 0.57203 0.0
C1122 C 0.34801 0.32469 0.55952 0.0
C1123 C 0.32217 0.30591 0.5983 0.0
C1124 C 0.3583 0.33859 0.65718 0.0
H1125 H 0.28691 0.31099 0.77213 0.0
H1126 H 0.29145 0.30286 0.72702 0.0
H1127 H 0.37262 0.34823 0.69563 0.0
H1128 H 0.38218 0.36319 0.56469 0.0
H1129 H 0.37536 0.36588 0.61036 0.0
H1130 H 0.29486 0.31512 0.63879 0.0
C1131 C 0.3066 0.32066 0.73586 0.0
C1132 C 0.35549 0.34112 0.68345 0.0
C1133 C 0.30415 0.32518 0.7618 0.0
C1134 C 0.36546 0.3469 0.57378 0.0
C1135 C 0.36155 0.34845 0.59998 0.0
C1136 C 0.3119 0.32211 0.65108 0.0
C1137 C 0.32841 0.33887 0.72157 0.0
C1138 C 0.33094 0.33457 0.69385 0.0
C1139 C 0.34004 0.32787 0.6126 0.0
C1140 C 0.33661 0.32935 0.64066 0.0
H1141 H 0.36069 0.38371 0.76857 0.0
H1142 H 0.36466 0.37618 0.72338 0.0
H1143 H 0.28996 0.31978 0.68475 0.0
H1144 H 0.31246 0.28679 0.56174 0.0
H1145 H 0.3055 0.28965 0.60755 0.0
C1146 C 0.00984 0.32395 0.73501 0.0
C1147 C 0.02866 0.34888 0.72597 0.0
C1148 C 0.00386 0.31975 0.7612 0.0
C1149 C 0.00596 0.35541 0.81978 0.0
H1150 H 0.99663 0.29358 0.85557 0.0
C1151 C 0.96278 0.32986 0.92136 0.0
C1152 C 0.97562 0.32237 0.93935 0.0
C1153 C 0.96914 0.33191 0.89536 0.0
C1154 C 0.99932 0.311 0.84583 0.0
H1155 H 0.05672 0.38859 0.73771 0.0
H1156 H 0.04608 0.38132 0.78308 0.0
H1157 H 0.00851 0.2995 0.81001 0.0
H1158 H 0.00501 0.31074 0.94384 0.0
H1159 H 0.016 0.31416 0.89823 0.0
H1160 H 0.99698 0.36707 0.85546 0.0
C1161 C 0.03564 0.36514 0.76988 0.0
C1162 C 0.00587 0.31426 0.81973 0.0
C1163 C 0.04168 0.36932 0.74381 0.0
C1164 C 0.99459 0.31637 0.93053 0.0
C1165 C 1.00089 0.31832 0.90441 0.0
C1166 C 0.99927 0.35207 0.84574 0.0
C1167 C 0.0165 0.34041 0.77886 0.0
C1168 C 0.00933 0.33656 0.80647 0.0
C1169 C 0.98842 0.32642 0.88661 0.0
C1170 C 0.99584 0.32984 0.85906 0.0
H1171 H 0.99928 0.30783 0.72183 0.0
H1172 H 0.98885 0.30051 0.76754 0.0
H1173 H 0.00823 0.37267 0.81004 0.0
H1174 H 0.94762 0.334 0.92727 0.0
H1175 H 0.95882 0.33769 0.88205 0.0
C1176 C 0.65619 0.02367 0.90589 0.0
C1177 C 0.67763 0.02631 0.89159 0.0
C1178 C 0.65434 0.0184 0.93216 0.0
C1179 C 0.6773 0.99188 0.98343 0.0
H1180 H 0.65695 0.03148 0.02789 0.0
C1181 C 0.67582 0.98266 0.09416 0.0
C1182 C 0.65432 0.98172 0.10693 0.0
C1183 C 0.68011 0.98904 0.06807 0.0
C1184 C 0.6624 0.02005 0.01574 0.0
H1185 H 0.71383 0.02513 0.89389 0.0
H1186 H 0.71037 0.0156 0.93975 0.0
H1187 H 0.66119 0.03998 0.9819 0.0
H1188 H 0.62091 0.98743 0.10232 0.0
H1189 H 0.62797 0.99785 0.05689 0.0
H1190 H 0.67811 0.97164 0.01725 0.0
C1191 C 0.69495 0.01752 0.93048 0.0
C1192 C 0.66484 0.02495 0.98938 0.0
C1193 C 0.69689 0.02293 0.90417 0.0
C1194 C 0.63746 0.98764 0.09307 0.0
C1195 C 0.64172 0.99396 0.06704 0.0
C1196 C 0.67473 0.98687 0.00983 0.0
C1197 C 0.67381 0.01551 0.9448 0.0
C1198 C 0.6721 0.01077 0.9729 0.0
C1199 C 0.66302 0.99463 0.05417 0.0
C1200 C 0.66702 1.00075 0.02627 0.0
H1201 H 0.64074 0.02561 0.89678 0.0
H1202 H 0.63754 0.01645 0.94258 0.0
H1203 H 0.68271 0.98049 0.97118 0.0
H1204 H 0.68906 0.97796 0.10412 0.0
H1205 H 0.69687 0.98964 0.05882 0.0
C1206 C 0.67841 0.6976 0.07066 0.0
C1207 C 0.65596 0.67784 0.05832 0.0
C1208 C 0.68302 0.69522 0.09661 0.0
C1209 C 0.66437 0.64615 0.14855 0.0
H1210 H 0.68752 0.70595 0.19385 0.0
C1211 C 0.65911 0.63481 0.25813 0.0
C1212 C 0.68074 0.65308 0.27255 0.0
C1213 C 0.65728 0.63876 0.23198 0.0
C1214 C 0.68135 0.68916 0.18138 0.0
H1215 H 0.62113 0.63984 0.06347 0.0
H1216 H 0.62887 0.63591 0.10865 0.0
H1217 H 0.68263 0.71095 0.14796 0.0
H1218 H 0.71731 0.69007 0.27071 0.0
H1219 H 0.71401 0.69707 0.22499 0.0
H1220 H 0.66279 0.62427 0.18192 0.0
C1221 C 0.64305 0.65316 0.09829 0.0
C1222 C 0.67858 0.69202 0.1551 0.0
C1223 C 0.63844 0.65555 0.07243 0.0
C1224 C 0.70025 0.67575 0.26027 0.0
C1225 C 0.69839 0.67974 0.23405 0.0
C1226 C 0.66708 0.64328 0.17477 0.0
C1227 C 0.66534 0.67299 0.11073 0.0
C1228 C 0.66977 0.67046 0.13842 0.0
C1229 C 0.67702 0.66112 0.21957 0.0
C1230 C 0.6753 0.66466 0.19154 0.0
H1231 H 0.69217 0.71514 0.06045 0.0
H1232 H 0.70049 0.71075 0.10558 0.0
H1233 H 0.65806 0.62927 0.13617 0.0
H1234 H 0.64347 0.61742 0.26706 0.0
H1235 H 0.64029 0.62432 0.22149 0.0
C1236 C 0.9789 0.67579 0.2364 0.0
C1237 C 0.97531 0.65296 0.22412 0.0
C1238 C 0.98569 0.68015 0.2624 0.0
C1239 C 0.01384 0.65937 0.31477 0.0
H1240 H 0.97921 0.68532 0.3595 0.0
C1241 C 0.01824 0.65349 0.42439 0.0
C1242 C 0.02304 0.67569 0.43868 0.0
C1243 C 0.01264 0.65192 0.39822 0.0
C1244 C 0.98925 0.67834 0.34719 0.0
H1245 H 0.97666 0.61715 0.22948 0.0
H1246 H 0.9879 0.62442 0.27475 0.0
H1247 H 0.96972 0.68081 0.31352 0.0
H1248 H 0.02525 0.71353 0.43657 0.0
H1249 H 0.0152 0.71065 0.3908 0.0
H1250 H 0.03309 0.65655 0.34841 0.0
C1251 C 0.98573 0.63912 0.26429 0.0
C1252 C 0.98386 0.67579 0.32086 0.0
C1253 C 0.97895 0.63477 0.23837 0.0
C1254 C 0.0214 0.69603 0.42624 0.0
C1255 C 0.0157 0.69442 0.4 0.0
C1256 C 0.01914 0.66182 0.34105 0.0
C1257 C 0.98912 0.66181 0.27665 0.0
C1258 C 0.99588 0.66599 0.30439 0.0
C1259 C 0.01162 0.67248 0.38566 0.0
C1260 C 0.00669 0.67104 0.3576 0.0
H1261 H 0.976 0.69008 0.22609 0.0
H1262 H 0.98838 0.69794 0.27129 0.0
H1263 H 0.02385 0.65228 0.30257 0.0
H1264 H 0.01877 0.63722 0.43342 0.0
H1265 H 0.00902 0.63451 0.38781 0.0
C1266 C 0.32829 0.02023 0.59523 0.0
C1267 C 0.35049 0.02279 0.60808 0.0
C1268 C 0.32512 0.01522 0.56885 0.0
C1269 C 0.3632 0.02313 0.51046 0.0
H1270 H 0.29682 0.9709 0.48132 0.0
C1271 C 0.35434 0.98855 0.40584 0.0
C1272 C 0.33161 0.98275 0.39195 0.0
C1273 C 0.35618 0.99432 0.43199 0.0
C1274 C 0.31539 0.98585 0.48909 0.0
H1275 H 0.38613 0.02095 0.60324 0.0
H1276 H 0.38073 0.0126 0.55729 0.0
H1277 H 0.3005 0.97866 0.52756 0.0
H1278 H 0.29302 0.97878 0.39486 0.0
H1279 H 0.29656 0.98963 0.44032 0.0
H1280 H 0.37813 0.03055 0.47214 0.0
C1281 C 0.366 0.01485 0.5676 0.0
C1282 C 0.31749 0.99022 0.51558 0.0
C1283 C 0.3691 0.01967 0.59396 0.0
C1284 C 0.31093 0.98338 0.40482 0.0
C1285 C 0.31281 0.98926 0.43101 0.0
C1286 C 0.36107 0.01891 0.48399 0.0
C1287 C 0.34413 0.01283 0.55472 0.0
C1288 C 0.3415 0.0087 0.52656 0.0
C1289 C 0.3354 0.99462 0.44495 0.0
C1290 C 0.33722 1.00002 0.47299 0.0
H1291 H 0.3137 0.0228 0.60534 0.0
H1292 H 0.30814 0.01394 0.55938 0.0
H1293 H 0.38184 0.03784 0.51834 0.0
H1294 H 0.37078 0.98858 0.39654 0.0
H1295 H 0.37375 0.99803 0.44215 0.0
loop_
_geom_bond_atom_site_label_1
_geom_bond_atom_site_label_2
_geom_bond_distance
_geom_bond_site_symmetry_2
_ccdc_geom_bond_type
C0 C1 1.351 . S
C0 N3 1.368 . S
C0 H5 0.931 . S
C1 C0 1.351 . S
C1 N2 1.373 . S
C1 H29 0.930 . S
N2 C1 1.373 . S
N2 C4 1.340 . S
N3 C0 1.368 . S
N3 C4 1.321 . S
N3 Co6 2.135 . S
C4 N2 1.340 . S
C4 N3 1.321 . S
C4 H28 0.930 . S
H5 C0 0.931 . S
Co6 N3 2.135 . S
Co6 N9 2.121 . S
Co6 O14 2.055 . S
Co6 O17 2.039 . S
Co6 N20 2.140 . S
C7 O8 1.227 . S
C7 O17 1.265 . S
O8 C7 1.227 . S
N9 Co6 2.121 . S
N9 C11 1.375 . S
N9 C12 1.313 . S
C10 C11 1.338 . S
C10 N13 1.377 . S
C10 H30 0.930 . S
C11 N9 1.375 . S
C11 C10 1.338 . S
C11 H15 0.931 . S
C12 N9 1.313 . S
C12 N13 1.344 . S
C12 H16 0.930 . S
N13 C10 1.377 . S
N13 C12 1.344 . S
O14 Co6 2.055 . S
O14 C18 1.253 . S
H15 C11 0.931 . S
H16 C12 0.930 . S
O17 Co6 2.039 . S
O17 C7 1.265 . S
C18 O14 1.253 . S
C18 O19 1.227 . S
O19 C18 1.227 . S
N20 Co6 2.140 . S
N20 C23 1.346 . S
N20 C24 1.345 . S
C21 C22 1.387 . S
C21 C25 1.391 . S
C22 C21 1.387 . S
C22 C23 1.369 . S
C22 H31 0.929 . S
C23 N20 1.346 . S
C23 C22 1.369 . S
C23 H26 0.928 . S
C24 N20 1.345 . S
C24 C25 1.371 . S
C24 H27 0.931 . S
C25 C21 1.391 . S
C25 C24 1.371 . S
C25 H32 0.930 . S
H26 C23 0.928 . S
H27 C24 0.931 . S
H28 C4 0.930 . S
H29 C1 0.930 . S
H30 C10 0.930 . S
H31 C22 0.929 . S
H32 C25 0.930 . S
C33 C34 1.351 . S
C33 N36 1.368 . S
C33 H38 0.931 . S
C34 C33 1.351 . S
C34 N35 1.373 . S
C34 H62 0.930 . S
N35 C34 1.373 . S
N35 C37 1.340 . S
N36 C33 1.368 . S
N36 C37 1.321 . S
N36 Co39 2.135 . S
C37 N35 1.340 . S
C37 N36 1.321 . S
C37 H61 0.930 . S
H38 C33 0.931 . S
Co39 N36 2.135 . S
Co39 N42 2.121 . S
Co39 O47 2.055 . S
Co39 O50 2.039 . S
Co39 N53 2.140 . S
C40 O41 1.227 . S
C40 O50 1.265 1_655 S
O41 C40 1.227 . S
N42 Co39 2.121 . S
N42 C44 1.375 . S
N42 C45 1.313 . S
C43 C44 1.338 . S
C43 N46 1.377 . S
C43 H63 0.930 . S
C44 N42 1.375 . S
C44 C43 1.338 . S
C44 H48 0.931 . S
C45 N42 1.313 . S
C45 N46 1.344 . S
C45 H49 0.930 . S
N46 C43 1.377 . S
N46 C45 1.344 . S
O47 Co39 2.055 . S
O47 C51 1.253 . S
H48 C44 0.931 . S
H49 C45 0.930 . S
O50 Co39 2.039 . S
O50 C40 1.265 1_455 S
C51 O47 1.253 . S
C51 O52 1.227 . S
O52 C51 1.227 . S
N53 Co39 2.140 . S
N53 C56 1.346 . S
N53 C57 1.345 . S
C54 C55 1.387 . S
C54 C58 1.391 . S
C55 C54 1.387 . S
C55 C56 1.369 . S
C55 H64 0.929 . S
C56 N53 1.346 . S
C56 C55 1.369 . S
C56 H59 0.928 . S
C57 N53 1.345 . S
C57 C58 1.371 . S
C57 H60 0.931 . S
C58 C54 1.391 . S
C58 C57 1.371 . S
C58 H65 0.930 . S
H59 C56 0.928 . S
H60 C57 0.931 . S
H61 C37 0.930 . S
H62 C34 0.930 . S
H63 C43 0.930 . S
H64 C55 0.929 . S
H65 C58 0.930 . S
C66 C67 1.351 . S
C66 N69 1.368 . S
C66 H71 0.931 . S
C67 C66 1.351 . S
C67 N68 1.373 . S
C67 H95 0.930 . S
N68 C67 1.373 . S
N68 C70 1.340 . S
N69 C66 1.368 . S
N69 C70 1.321 . S
N69 Co72 2.135 . S
C70 N68 1.340 . S
C70 N69 1.321 . S
C70 H94 0.930 . S
H71 C66 0.931 . S
Co72 N69 2.135 . S
Co72 N75 2.121 . S
Co72 O80 2.055 . S
Co72 O83 2.039 . S
Co72 N86 2.140 . S
C73 O74 1.227 . S
C73 O83 1.265 1_565 S
O74 C73 1.227 . S
N75 Co72 2.121 . S
N75 C77 1.375 . S
N75 C78 1.313 . S
C76 C77 1.338 . S
C76 N79 1.377 . S
C76 H96 0.930 . S
C77 N75 1.375 . S
C77 C76 1.338 . S
C77 H81 0.931 . S
C78 N75 1.313 . S
C78 N79 1.344 . S
C78 H82 0.930 . S
N79 C76 1.377 . S
N79 C78 1.344 . S
O80 Co72 2.055 . S
O80 C84 1.253 . S
H81 C77 0.931 . S
H82 C78 0.930 . S
O83 Co72 2.039 . S
O83 C73 1.265 1_545 S
C84 O80 1.253 . S
C84 O85 1.227 . S
O85 C84 1.227 . S
N86 Co72 2.140 . S
N86 C89 1.346 . S
N86 C90 1.345 . S
C87 C88 1.387 . S
C87 C91 1.391 . S
C88 C87 1.387 . S
C88 C89 1.369 . S
C88 H97 0.929 . S
C89 N86 1.346 . S
C89 C88 1.369 . S
C89 H92 0.928 . S
C90 N86 1.345 . S
C90 C91 1.371 . S
C90 H93 0.931 . S
C91 C87 1.391 . S
C91 C90 1.371 . S
C91 H98 0.930 . S
H92 C89 0.928 . S
H93 C90 0.931 . S
H94 C70 0.930 . S
H95 C67 0.930 . S
H96 C76 0.930 . S
H97 C88 0.929 . S
H98 C91 0.930 . S
C99 C100 1.351 . S
C99 N102 1.368 . S
C99 H104 0.931 . S
C100 C99 1.351 . S
C100 N101 1.373 . S
C100 H128 0.930 . S
N101 C100 1.373 . S
N101 C103 1.340 . S
N102 C99 1.368 . S
N102 C103 1.321 . S
N102 Co105 2.135 1_554 S
C103 N101 1.340 . S
C103 N102 1.321 . S
C103 H127 0.930 . S
H104 C99 0.931 . S
Co105 N102 2.135 1_556 S
Co105 N108 2.121 . S
Co105 O113 2.055 1_556 S
Co105 O116 2.039 . S
Co105 N119 2.140 . S
C106 O107 1.227 . S
C106 O116 1.265 . S
O107 C106 1.227 . S
N108 Co105 2.121 . S
N108 C110 1.375 . S
N108 C111 1.313 . S
C109 C110 1.338 . S
C109 N112 1.377 . S
C109 H129 0.930 . S
C110 N108 1.375 . S
C110 C109 1.338 . S
C110 H114 0.931 . S
C111 N108 1.313 . S
C111 N112 1.344 . S
C111 H115 0.930 . S
N112 C109 1.377 . S
N112 C111 1.344 . S
O113 Co105 2.055 1_554 S
O113 C117 1.253 . S
H114 C110 0.931 . S
H115 C111 0.930 . S
O116 Co105 2.039 . S
O116 C106 1.265 . S
C117 O113 1.253 . S
C117 O118 1.227 1_554 S
O118 C117 1.227 1_556 S
N119 Co105 2.140 . S
N119 C122 1.346 . S
N119 C123 1.345 . S
C120 C121 1.387 . S
C120 C124 1.391 . S
C121 C120 1.387 . S
C121 C122 1.369 . S
C121 H130 0.929 . S
C122 N119 1.346 . S
C122 C121 1.369 . S
C122 H125 0.928 . S
C123 N119 1.345 . S
C123 C124 1.371 . S
C123 H126 0.931 . S
C124 C120 1.391 . S
C124 C123 1.371 . S
C124 H131 0.930 . S
H125 C122 0.928 . S
H126 C123 0.931 . S
H127 C103 0.930 . S
H128 C100 0.930 . S
H129 C109 0.930 . S
H130 C121 0.929 . S
H131 C124 0.930 . S
C132 C133 1.351 . S
C132 N135 1.368 . S
C132 H137 0.931 . S
C133 C132 1.351 . S
C133 N134 1.373 . S
C133 H161 0.930 . S
N134 C133 1.373 . S
N134 C136 1.340 . S
N135 C132 1.368 . S
N135 C136 1.321 . S
N135 Co138 2.135 . S
C136 N134 1.340 . S
C136 N135 1.321 . S
C136 H160 0.930 . S
H137 C132 0.931 . S
Co138 N135 2.135 . S
Co138 N141 2.121 . S
Co138 O146 2.055 . S
Co138 O149 2.039 . S
Co138 N152 2.140 . S
C139 O140 1.227 . S
C139 O149 1.265 1_455 S
O140 C139 1.227 . S
N141 Co138 2.121 . S
N141 C143 1.375 . S
N141 C144 1.313 . S
C142 C143 1.338 . S
C142 N145 1.377 . S
C142 H162 0.930 . S
C143 N141 1.375 . S
C143 C142 1.338 . S
C143 H147 0.931 . S
C144 N141 1.313 . S
C144 N145 1.344 . S
C144 H148 0.930 . S
N145 C142 1.377 . S
N145 C144 1.344 . S
O146 Co138 2.055 . S
O146 C150 1.253 . S
H147 C143 0.931 . S
H148 C144 0.930 . S
O149 Co138 2.039 . S
O149 C139 1.265 1_655 S
C150 O146 1.253 . S
C150 O151 1.227 . S
O151 C150 1.227 . S
N152 Co138 2.140 . S
N152 C155 1.346 . S
N152 C156 1.345 . S
C153 C154 1.387 . S
C153 C157 1.391 . S
C154 C153 1.387 . S
C154 C155 1.369 . S
C154 H163 0.929 . S
C155 N152 1.346 . S
C155 C154 1.369 . S
C155 H158 0.928 . S
C156 N152 1.345 . S
C156 C157 1.371 . S
C156 H159 0.931 . S
C157 C153 1.391 . S
C157 C156 1.371 . S
C157 H164 0.930 . S
H158 C155 0.928 . S
H159 C156 0.931 . S
H160 C136 0.930 . S
H161 C133 0.930 . S
H162 C142 0.930 . S
H163 C154 0.929 . S
H164 C157 0.930 . S
C165 C166 1.351 . S
C165 N168 1.368 . S
C165 H170 0.931 . S
C166 C165 1.351 . S
C166 N167 1.373 . S
C166 H194 0.930 . S
N167 C166 1.373 . S
N167 C169 1.340 . S
N168 C165 1.368 . S
N168 C169 1.321 . S
N168 Co171 2.135 . S
C169 N167 1.340 . S
C169 N168 1.321 . S
C169 H193 0.930 . S
H170 C165 0.931 . S
Co171 N168 2.135 . S
Co171 N174 2.121 . S
Co171 O179 2.055 . S
Co171 O182 2.039 . S
Co171 N185 2.140 . S
C172 O173 1.227 . S
C172 O182 1.265 1_545 S
O173 C172 1.227 . S
N174 Co171 2.121 . S
N174 C176 1.375 . S
N174 C177 1.313 . S
C175 C176 1.338 . S
C175 N178 1.377 . S
C175 H195 0.930 . S
C176 N174 1.375 . S
C176 C175 1.338 . S
C176 H180 0.931 . S
C177 N174 1.313 . S
C177 N178 1.344 . S
C177 H181 0.930 . S
N178 C175 1.377 . S
N178 C177 1.344 . S
O179 Co171 2.055 . S
O179 C183 1.253 . S
H180 C176 0.931 . S
H181 C177 0.930 . S
O182 Co171 2.039 . S
O182 C172 1.265 1_565 S
C183 O179 1.253 . S
C183 O184 1.227 . S
O184 C183 1.227 . S
N185 Co171 2.140 . S
N185 C188 1.346 . S
N185 C189 1.345 . S
C186 C187 1.387 . S
C186 C190 1.391 . S
C187 C186 1.387 . S
C187 C188 1.369 . S
C187 H196 0.929 . S
C188 N185 1.346 . S
C188 C187 1.369 . S
C188 H191 0.928 . S
C189 N185 1.345 . S
C189 C190 1.371 . S
C189 H192 0.931 . S
C190 C186 1.391 . S
C190 C189 1.371 . S
C190 H197 0.930 . S
H191 C188 0.928 . S
H192 C189 0.931 . S
H193 C169 0.930 . S
H194 C166 0.930 . S
H195 C175 0.930 . S
H196 C187 0.929 . S
H197 C190 0.930 . S
C198 C199 1.351 . S
C198 N201 1.368 . S
C198 H203 0.931 . S
C199 C198 1.351 . S
C199 N200 1.373 . S
C199 H227 0.930 . S
N200 C199 1.373 . S
N200 C202 1.340 . S
N201 C198 1.368 . S
N201 C202 1.321 . S
N201 Co204 2.135 . S
C202 N200 1.340 . S
C202 N201 1.321 . S
C202 H226 0.930 . S
H203 C198 0.931 . S
Co204 N201 2.135 . S
Co204 N207 2.121 . S
Co204 O212 2.055 . S
Co204 O215 2.039 . S
Co204 N218 2.140 . S
C205 O206 1.227 . S
C205 O215 1.265 . S
O206 C205 1.227 . S
N207 Co204 2.121 . S
N207 C209 1.375 . S
N207 C210 1.313 . S
C208 C209 1.338 . S
C208 N211 1.377 . S
C208 H228 0.930 . S
C209 N207 1.375 . S
C209 C208 1.338 . S
C209 H213 0.931 . S
C210 N207 1.313 . S
C210 N211 1.344 . S
C210 H214 0.930 . S
N211 C208 1.377 . S
N211 C210 1.344 . S
O212 Co204 2.055 . S
O212 C216 1.253 . S
H213 C209 0.931 . S
H214 C210 0.930 . S
O215 Co204 2.039 . S
O215 C205 1.265 . S
C216 O212 1.253 . S
C216 O217 1.227 . S
O217 C216 1.227 . S
N218 Co204 2.140 . S
N218 C221 1.346 . S
N218 C222 1.345 . S
C219 C220 1.387 . S
C219 C223 1.391 . S
C220 C219 1.387 . S
C220 C221 1.369 . S
C220 H229 0.929 . S
C221 N218 1.346 . S
C221 C220 1.369 . S
C221 H224 0.928 . S
C222 N218 1.345 . S
C222 C223 1.371 . S
C222 H225 0.931 . S
C223 C219 1.391 . S
C223 C222 1.371 . S
C223 H230 0.930 . S
H224 C221 0.928 . S
H225 C222 0.931 . S
H226 C202 0.930 . S
H227 C199 0.930 . S
H228 C208 0.930 . S
H229 C220 0.929 . S
H230 C223 0.930 . S
C231 C232 1.351 . S
C231 N234 1.368 . S
C231 H236 0.931 . S
C232 C231 1.351 . S
C232 N233 1.373 . S
C232 H260 0.930 . S
N233 C232 1.373 . S
N233 C235 1.340 . S
N234 C231 1.368 . S
N234 C235 1.321 . S
N234 Co237 2.135 . S
C235 N233 1.340 . S
C235 N234 1.321 . S
C235 H259 0.930 . S
H236 C231 0.931 . S
Co237 N234 2.135 . S
Co237 N240 2.121 . S
Co237 O245 2.055 . S
Co237 O248 2.039 . S
Co237 N251 2.140 . S
C238 O239 1.227 . S
C238 O248 1.265 1_655 S
O239 C238 1.227 . S
N240 Co237 2.121 . S
N240 C242 1.375 . S
N240 C243 1.313 . S
C241 C242 1.338 . S
C241 N244 1.377 . S
C241 H261 0.930 . S
C242 N240 1.375 . S
C242 C241 1.338 . S
C242 H246 0.931 . S
C243 N240 1.313 . S
C243 N244 1.344 . S
C243 H247 0.930 . S
N244 C241 1.377 . S
N244 C243 1.344 . S
O245 Co237 2.055 . S
O245 C249 1.253 . S
H246 C242 0.931 . S
H247 C243 0.930 . S
O248 Co237 2.039 . S
O248 C238 1.265 1_455 S
C249 O245 1.253 . S
C249 O250 1.227 . S
O250 C249 1.227 . S
N251 Co237 2.140 . S
N251 C254 1.346 . S
N251 C255 1.345 . S
C252 C253 1.387 . S
C252 C256 1.391 . S
C253 C252 1.387 . S
C253 C254 1.369 . S
C253 H262 0.929 . S
C254 N251 1.346 . S
C254 C253 1.369 . S
C254 H257 0.928 . S
C255 N251 1.345 . S
C255 C256 1.371 . S
C255 H258 0.931 . S
C256 C252 1.391 . S
C256 C255 1.371 . S
C256 H263 0.930 . S
H257 C254 0.928 . S
H258 C255 0.931 . S
H259 C235 0.930 . S
H260 C232 0.930 . S
H261 C241 0.930 . S
H262 C253 0.929 . S
H263 C256 0.930 . S
C264 C265 1.351 . S
C264 N267 1.368 . S
C264 H269 0.931 . S
C265 C264 1.351 . S
C265 N266 1.373 . S
C265 H293 0.930 . S
N266 C265 1.373 . S
N266 C268 1.340 . S
N267 C264 1.368 . S
N267 C268 1.321 . S
N267 Co270 2.135 . S
C268 N266 1.340 . S
C268 N267 1.321 . S
C268 H292 0.930 . S
H269 C264 0.931 . S
Co270 N267 2.135 . S
Co270 N273 2.121 . S
Co270 O278 2.055 . S
Co270 O281 2.039 . S
Co270 N284 2.140 . S
C271 O272 1.227 . S
C271 O281 1.265 1_565 S
O272 C271 1.227 . S
N273 Co270 2.121 . S
N273 C275 1.375 . S
N273 C276 1.313 . S
C274 C275 1.338 . S
C274 N277 1.377 . S
C274 H294 0.930 . S
C275 N273 1.375 . S
C275 C274 1.338 . S
C275 H279 0.931 . S
C276 N273 1.313 . S
C276 N277 1.344 . S
C276 H280 0.930 . S
N277 C274 1.377 . S
N277 C276 1.344 . S
O278 Co270 2.055 . S
O278 C282 1.253 . S
H279 C275 0.931 . S
H280 C276 0.930 . S
O281 Co270 2.039 . S
O281 C271 1.265 1_545 S
C282 O278 1.253 . S
C282 O283 1.227 . S
O283 C282 1.227 . S
N284 Co270 2.140 . S
N284 C287 1.346 . S
N284 C288 1.345 . S
C285 C286 1.387 . S
C285 C289 1.391 . S
C286 C285 1.387 . S
C286 C287 1.369 . S
C286 H295 0.929 . S
C287 N284 1.346 . S
C287 C286 1.369 . S
C287 H290 0.928 . S
C288 N284 1.345 . S
C288 C289 1.371 . S
C288 H291 0.931 . S
C289 C285 1.391 . S
C289 C288 1.371 . S
C289 H296 0.930 . S
H290 C287 0.928 . S
H291 C288 0.931 . S
H292 C268 0.930 . S
H293 C265 0.930 . S
H294 C274 0.930 . S
H295 C286 0.929 . S
H296 C289 0.930 . S
C297 C298 1.351 . S
C297 N300 1.368 . S
C297 H302 0.931 . S
C298 C297 1.351 . S
C298 N299 1.373 . S
C298 H326 0.930 . S
N299 C298 1.373 . S
N299 C301 1.340 . S
N300 C297 1.368 . S
N300 C301 1.321 . S
N300 Co303 2.135 . S
C301 N299 1.340 . S
C301 N300 1.321 . S
C301 H325 0.930 . S
H302 C297 0.931 . S
Co303 N300 2.135 . S
Co303 N306 2.121 . S
Co303 O311 2.055 . S
Co303 O314 2.039 . S
Co303 N317 2.140 . S
C304 O305 1.227 . S
C304 O314 1.265 . S
O305 C304 1.227 . S
N306 Co303 2.121 . S
N306 C308 1.375 . S
N306 C309 1.313 . S
C307 C308 1.338 . S
C307 N310 1.377 . S
C307 H327 0.930 . S
C308 N306 1.375 . S
C308 C307 1.338 . S
C308 H312 0.931 . S
C309 N306 1.313 . S
C309 N310 1.344 . S
C309 H313 0.930 . S
N310 C307 1.377 . S
N310 C309 1.344 . S
O311 Co303 2.055 . S
O311 C315 1.253 . S
H312 C308 0.931 . S
H313 C309 0.930 . S
O314 Co303 2.039 . S
O314 C304 1.265 . S
C315 O311 1.253 . S
C315 O316 1.227 . S
O316 C315 1.227 . S
N317 Co303 2.140 . S
N317 C320 1.346 . S
N317 C321 1.345 . S
C318 C319 1.387 . S
C318 C322 1.391 . S
C319 C318 1.387 . S
C319 C320 1.369 . S
C319 H328 0.929 . S
C320 N317 1.346 . S
C320 C319 1.369 . S
C320 H323 0.928 . S
C321 N317 1.345 . S
C321 C322 1.371 . S
C321 H324 0.931 . S
C322 C318 1.391 . S
C322 C321 1.371 . S
C322 H329 0.930 . S
H323 C320 0.928 . S
H324 C321 0.931 . S
H325 C301 0.930 . S
H326 C298 0.930 . S
H327 C307 0.930 . S
H328 C319 0.929 . S
H329 C322 0.930 . S
C330 C331 1.351 . S
C330 N333 1.368 . S
C330 H335 0.931 . S
C331 C330 1.351 . S
C331 N332 1.373 . S
C331 H359 0.930 . S
N332 C331 1.373 . S
N332 C334 1.340 . S
N333 C330 1.368 . S
N333 C334 1.321 . S
N333 Co336 2.135 1_556 S
C334 N332 1.340 . S
C334 N333 1.321 . S
C334 H358 0.930 . S
H335 C330 0.931 . S
Co336 N333 2.135 1_554 S
Co336 N339 2.121 . S
Co336 O344 2.055 1_554 S
Co336 O347 2.039 . S
Co336 N350 2.140 . S
C337 O338 1.227 . S
C337 O347 1.265 1_455 S
O338 C337 1.227 . S
N339 Co336 2.121 . S
N339 C341 1.375 . S
N339 C342 1.313 . S
C340 C341 1.338 . S
C340 N343 1.377 . S
C340 H360 0.930 . S
C341 N339 1.375 . S
C341 C340 1.338 . S
C341 H345 0.931 . S
C342 N339 1.313 . S
C342 N343 1.344 . S
C342 H346 0.930 . S
N343 C340 1.377 . S
N343 C342 1.344 . S
O344 Co336 2.055 1_556 S
O344 C348 1.253 . S
H345 C341 0.931 . S
H346 C342 0.930 . S
O347 Co336 2.039 . S
O347 C337 1.265 1_655 S
C348 O344 1.253 . S
C348 O349 1.227 1_556 S
O349 C348 1.227 1_554 S
N350 Co336 2.140 . S
N350 C353 1.346 . S
N350 C354 1.345 . S
C351 C352 1.387 . S
C351 C355 1.391 . S
C352 C351 1.387 . S
C352 C353 1.369 . S
C352 H361 0.929 . S
C353 N350 1.346 . S
C353 C352 1.369 . S
C353 H356 0.928 . S
C354 N350 1.345 . S
C354 C355 1.371 . S
C354 H357 0.931 . S
C355 C351 1.391 . S
C355 C354 1.371 . S
C355 H362 0.930 . S
H356 C353 0.928 . S
H357 C354 0.931 . S
H358 C334 0.930 . S
H359 C331 0.930 . S
H360 C340 0.930 . S
H361 C352 0.929 . S
H362 C355 0.930 . S
C363 C364 1.351 . S
C363 N366 1.368 . S
C363 H368 0.931 . S
C364 C363 1.351 . S
C364 N365 1.373 . S
C364 H392 0.930 . S
N365 C364 1.373 . S
N365 C367 1.340 . S
N366 C363 1.368 . S
N366 C367 1.321 . S
N366 Co369 2.135 . S
C367 N365 1.340 . S
C367 N366 1.321 . S
C367 H391 0.930 . S
H368 C363 0.931 . S
Co369 N366 2.135 . S
Co369 N372 2.121 . S
Co369 O377 2.055 . S
Co369 O380 2.039 . S
Co369 N383 2.140 . S
C370 O371 1.227 . S
C370 O380 1.265 1_545 S
O371 C370 1.227 . S
N372 Co369 2.121 . S
N372 C374 1.375 . S
N372 C375 1.313 . S
C373 C374 1.338 . S
C373 N376 1.377 . S
C373 H393 0.930 . S
C374 N372 1.375 . S
C374 C373 1.338 . S
C374 H378 0.931 . S
C375 N372 1.313 . S
C375 N376 1.344 . S
C375 H379 0.930 . S
N376 C373 1.377 . S
N376 C375 1.344 . S
O377 Co369 2.055 . S
O377 C381 1.253 . S
H378 C374 0.931 . S
H379 C375 0.930 . S
O380 Co369 2.039 . S
O380 C370 1.265 1_565 S
C381 O377 1.253 . S
C381 O382 1.227 . S
O382 C381 1.227 . S
N383 Co369 2.140 . S
N383 C386 1.346 . S
N383 C387 1.345 . S
C384 C385 1.387 . S
C384 C388 1.391 . S
C385 C384 1.387 . S
C385 C386 1.369 . S
C385 H394 0.929 . S
C386 N383 1.346 . S
C386 C385 1.369 . S
C386 H389 0.928 . S
C387 N383 1.345 . S
C387 C388 1.371 . S
C387 H390 0.931 . S
C388 C384 1.391 . S
C388 C387 1.371 . S
C388 H395 0.930 . S
H389 C386 0.928 . S
H390 C387 0.931 . S
H391 C367 0.930 . S
H392 C364 0.930 . S
H393 C373 0.930 . S
H394 C385 0.929 . S
H395 C388 0.930 . S
C396 C397 1.349 . S
C396 C398 1.327 . S
C396 H421 0.950 . S
C397 C396 1.349 . S
C397 C413 1.349 . S
C398 C396 1.327 . S
C398 C417 1.429 . S
C398 H422 0.950 . S
C399 C416 1.574 . S
C399 C418 1.368 . S
C399 H423 0.949 . S
H400 C404 0.949 . S
C401 C402 1.349 . S
C401 C403 1.327 . S
C401 H424 0.950 . S
C402 C401 1.349 . S
C402 C414 1.349 . S
C403 C401 1.327 . S
C403 C419 1.429 . S
C403 H425 0.950 . S
C404 H400 0.949 . S
C404 C412 1.574 . S
C404 C420 1.368 . S
H405 C413 0.950 . S
H406 C411 0.950 . S
H407 C412 0.949 . S
H408 C414 0.950 . S
H409 C415 0.950 . S
H410 C416 0.949 . S
C411 H406 0.950 . S
C411 C413 1.327 . S
C411 C417 1.429 . S
C412 C404 1.574 . S
C412 H407 0.949 . S
C412 C418 1.368 . S
C413 C397 1.349 . S
C413 H405 0.950 . S
C413 C411 1.327 . S
C414 C402 1.349 . S
C414 H408 0.950 . S
C414 C415 1.327 . S
C415 H409 0.950 . S
C415 C414 1.327 . S
C415 C419 1.429 . S
C416 C399 1.574 . S
C416 H410 0.949 . S
C416 C420 1.368 . S
C417 C398 1.429 . S
C417 C411 1.429 . S
C417 C418 1.523 . S
C418 C399 1.368 . S
C418 C412 1.368 . S
C418 C417 1.523 . S
C419 C403 1.429 . S
C419 C415 1.429 . S
C419 C420 1.523 . S
C420 C404 1.368 . S
C420 C416 1.368 . S
C420 C419 1.523 . S
H421 C396 0.950 . S
H422 C398 0.950 . S
H423 C399 0.949 . S
H424 C401 0.950 . S
H425 C403 0.950 . S
C426 C427 1.349 . S
C426 C428 1.327 . S
C426 H451 0.950 . S
C427 C426 1.349 . S
C427 C443 1.349 . S
C428 C426 1.327 . S
C428 C447 1.429 . S
C428 H452 0.950 . S
C429 C446 1.574 . S
C429 C448 1.368 . S
C429 H453 0.949 . S
H430 C434 0.949 . S
C431 C432 1.349 . S
C431 C433 1.327 . S
C431 H454 0.950 . S
C432 C431 1.349 . S
C432 C444 1.349 . S
C433 C431 1.327 . S
C433 C449 1.429 . S
C433 H455 0.950 . S
C434 H430 0.949 . S
C434 C442 1.574 . S
C434 C450 1.368 . S
H435 C443 0.950 . S
H436 C441 0.950 . S
H437 C442 0.949 . S
H438 C444 0.950 . S
H439 C445 0.950 . S
H440 C446 0.949 . S
C441 H436 0.950 . S
C441 C443 1.327 . S
C441 C447 1.429 . S
C442 C434 1.574 . S
C442 H437 0.949 . S
C442 C448 1.368 . S
C443 C427 1.349 . S
C443 H435 0.950 . S
C443 C441 1.327 . S
C444 C432 1.349 . S
C444 H438 0.950 . S
C444 C445 1.327 . S
C445 H439 0.950 . S
C445 C444 1.327 . S
C445 C449 1.429 . S
C446 C429 1.574 . S
C446 H440 0.949 . S
C446 C450 1.368 . S
C447 C428 1.429 . S
C447 C441 1.429 . S
C447 C448 1.523 . S
C448 C429 1.368 . S
C448 C442 1.368 . S
C448 C447 1.523 . S
C449 C433 1.429 . S
C449 C445 1.429 . S
C449 C450 1.523 . S
C450 C434 1.368 . S
C450 C446 1.368 . S
C450 C449 1.523 . S
H451 C426 0.950 . S
H452 C428 0.950 . S
H453 C429 0.949 . S
H454 C431 0.950 . S
H455 C433 0.950 . S
C456 C457 1.349 . S
C456 C458 1.327 . S
C456 H481 0.950 . S
C457 C456 1.349 . S
C457 C473 1.349 . S
C458 C456 1.327 . S
C458 C477 1.429 . S
C458 H482 0.950 . S
C459 C476 1.574 . S
C459 C478 1.368 . S
C459 H483 0.949 . S
H460 C464 0.949 . S
C461 C462 1.349 . S
C461 C463 1.327 . S
C461 H484 0.950 . S
C462 C461 1.349 . S
C462 C474 1.349 . S
C463 C461 1.327 . S
C463 C479 1.429 . S
C463 H485 0.950 . S
C464 H460 0.949 . S
C464 C472 1.574 . S
C464 C480 1.368 . S
H465 C473 0.950 . S
H466 C471 0.950 . S
H467 C472 0.949 . S
H468 C474 0.950 1_554 S
H469 C475 0.950 . S
H470 C476 0.949 . S
C471 H466 0.950 . S
C471 C473 1.327 . S
C471 C477 1.429 . S
C472 C464 1.574 . S
C472 H467 0.949 . S
C472 C478 1.368 . S
C473 C457 1.349 . S
C473 H465 0.950 . S
C473 C471 1.327 . S
C474 C462 1.349 . S
C474 H468 0.950 1_556 S
C474 C475 1.327 . S
C475 H469 0.950 . S
C475 C474 1.327 . S
C475 C479 1.429 . S
C476 C459 1.574 . S
C476 H470 0.949 . S
C476 C480 1.368 . S
C477 C458 1.429 . S
C477 C471 1.429 . S
C477 C478 1.523 . S
C478 C459 1.368 . S
C478 C472 1.368 . S
C478 C477 1.523 . S
C479 C463 1.429 . S
C479 C475 1.429 . S
C479 C480 1.523 . S
C480 C464 1.368 . S
C480 C476 1.368 . S
C480 C479 1.523 . S
H481 C456 0.950 . S
H482 C458 0.950 . S
H483 C459 0.949 . S
H484 C461 0.950 . S
H485 C463 0.950 . S
C486 C487 1.349 . S
C486 C488 1.327 . S
C486 H511 0.950 . S
C487 C486 1.349 . S
C487 C503 1.349 . S
C488 C486 1.327 . S
C488 C507 1.429 . S
C488 H512 0.950 . S
C489 C506 1.574 . S
C489 C508 1.368 . S
C489 H513 0.949 . S
H490 C494 0.949 . S
C491 C492 1.349 . S
C491 C493 1.327 . S
C491 H514 0.950 . S
C492 C491 1.349 . S
C492 C504 1.349 . S
C493 C491 1.327 . S
C493 C509 1.429 . S
C493 H515 0.950 . S
C494 H490 0.949 . S
C494 C502 1.574 . S
C494 C510 1.368 . S
H495 C503 0.950 1_556 S
H496 C501 0.950 . S
H497 C502 0.949 . S
H498 C504 0.950 . S
H499 C505 0.950 . S
H500 C506 0.949 . S
C501 H496 0.950 . S
C501 C503 1.327 . S
C501 C507 1.429 . S
C502 C494 1.574 . S
C502 H497 0.949 . S
C502 C508 1.368 . S
C503 C487 1.349 . S
C503 H495 0.950 1_554 S
C503 C501 1.327 . S
C504 C492 1.349 . S
C504 H498 0.950 . S
C504 C505 1.327 . S
C505 H499 0.950 . S
C505 C504 1.327 . S
C505 C509 1.429 . S
C506 C489 1.574 . S
C506 H500 0.949 . S
C506 C510 1.368 . S
C507 C488 1.429 . S
C507 C501 1.429 . S
C507 C508 1.523 . S
C508 C489 1.368 . S
C508 C502 1.368 . S
C508 C507 1.523 . S
C509 C493 1.429 . S
C509 C505 1.429 . S
C509 C510 1.523 . S
C510 C494 1.368 . S
C510 C506 1.368 . S
C510 C509 1.523 . S
H511 C486 0.950 . S
H512 C488 0.950 . S
H513 C489 0.949 . S
H514 C491 0.950 . S
H515 C493 0.950 . S
C516 C517 1.349 . S
C516 C518 1.327 . S
C516 H541 0.950 . S
C517 C516 1.349 . S
C517 C533 1.349 . S
C518 C516 1.327 . S
C518 C537 1.429 . S
C518 H542 0.950 . S
C519 C536 1.574 . S
C519 C538 1.368 . S
C519 H543 0.949 . S
H520 C524 0.949 . S
C521 C522 1.349 . S
C521 C523 1.327 . S
C521 H544 0.950 . S
C522 C521 1.349 . S
C522 C534 1.349 . S
C523 C521 1.327 . S
C523 C539 1.429 . S
C523 H545 0.950 . S
C524 H520 0.949 . S
C524 C532 1.574 . S
C524 C540 1.368 . S
H525 C533 0.950 . S
H526 C531 0.950 . S
H527 C532 0.949 . S
H528 C534 0.950 . S
H529 C535 0.950 . S
H530 C536 0.949 . S
C531 H526 0.950 . S
C531 C533 1.327 . S
C531 C537 1.429 . S
C532 C524 1.574 . S
C532 H527 0.949 . S
C532 C538 1.368 . S
C533 C517 1.349 . S
C533 H525 0.950 . S
C533 C531 1.327 . S
C534 C522 1.349 . S
C534 H528 0.950 . S
C534 C535 1.327 . S
C535 H529 0.950 . S
C535 C534 1.327 . S
C535 C539 1.429 . S
C536 C519 1.574 . S
C536 H530 0.949 . S
C536 C540 1.368 . S
C537 C518 1.429 . S
C537 C531 1.429 . S
C537 C538 1.523 . S
C538 C519 1.368 . S
C538 C532 1.368 . S
C538 C537 1.523 . S
C539 C523 1.429 . S
C539 C535 1.429 . S
C539 C540 1.523 . S
C540 C524 1.368 . S
C540 C536 1.368 . S
C540 C539 1.523 . S
H541 C516 0.950 . S
H542 C518 0.950 . S
H543 C519 0.949 . S
H544 C521 0.950 . S
H545 C523 0.950 . S
C546 C547 1.349 . S
C546 C548 1.327 . S
C546 H571 0.950 . S
C547 C546 1.349 . S
C547 C563 1.349 . S
C548 C546 1.327 . S
C548 C567 1.429 . S
C548 H572 0.950 . S
C549 C566 1.574 . S
C549 C568 1.368 . S
C549 H573 0.949 . S
H550 C554 0.949 . S
C551 C552 1.349 . S
C551 C553 1.327 . S
C551 H574 0.950 . S
C552 C551 1.349 . S
C552 C564 1.349 . S
C553 C551 1.327 . S
C553 C569 1.429 . S
C553 H575 0.950 . S
C554 H550 0.949 . S
C554 C562 1.574 . S
C554 C570 1.368 . S
H555 C563 0.950 . S
H556 C561 0.950 . S
H557 C562 0.949 . S
H558 C564 0.950 . S
H559 C565 0.950 . S
H560 C566 0.949 . S
C561 H556 0.950 . S
C561 C563 1.327 . S
C561 C567 1.429 . S
C562 C554 1.574 . S
C562 H557 0.949 . S
C562 C568 1.368 . S
C563 C547 1.349 . S
C563 H555 0.950 . S
C563 C561 1.327 . S
C564 C552 1.349 . S
C564 H558 0.950 . S
C564 C565 1.327 . S
C565 H559 0.950 . S
C565 C564 1.327 . S
C565 C569 1.429 . S
C566 C549 1.574 . S
C566 H560 0.949 . S
C566 C570 1.368 . S
C567 C548 1.429 . S
C567 C561 1.429 . S
C567 C568 1.523 . S
C568 C549 1.368 . S
C568 C562 1.368 . S
C568 C567 1.523 . S
C569 C553 1.429 . S
C569 C565 1.429 . S
C569 C570 1.523 . S
C570 C554 1.368 . S
C570 C566 1.368 . S
C570 C569 1.523 . S
H571 C546 0.950 . S
H572 C548 0.950 . S
H573 C549 0.949 . S
H574 C551 0.950 . S
H575 C553 0.950 . S
C576 C577 1.349 . S
C576 C578 1.327 . S
C576 H601 0.950 . S
C577 C576 1.349 . S
C577 C593 1.349 . S
C578 C576 1.327 . S
C578 C597 1.429 . S
C578 H602 0.950 . S
C579 C596 1.574 . S
C579 C598 1.368 . S
C579 H603 0.949 . S
H580 C584 0.949 . S
C581 C582 1.349 . S
C581 C583 1.327 . S
C581 H604 0.950 . S
C582 C581 1.349 . S
C582 C594 1.349 . S
C583 C581 1.327 . S
C583 C599 1.429 . S
C583 H605 0.950 . S
C584 H580 0.949 . S
C584 C592 1.574 . S
C584 C600 1.368 . S
H585 C593 0.950 . S
H586 C591 0.950 . S
H587 C592 0.949 . S
H588 C594 0.950 . S
H589 C595 0.950 . S
H590 C596 0.949 . S
C591 H586 0.950 . S
C591 C593 1.327 . S
C591 C597 1.429 . S
C592 C584 1.574 . S
C592 H587 0.949 . S
C592 C598 1.368 . S
C593 C577 1.349 . S
C593 H585 0.950 . S
C593 C591 1.327 . S
C594 C582 1.349 . S
C594 H588 0.950 . S
C594 C595 1.327 . S
C595 H589 0.950 . S
C595 C594 1.327 . S
C595 C599 1.429 . S
C596 C579 1.574 . S
C596 H590 0.949 . S
C596 C600 1.368 . S
C597 C578 1.429 . S
C597 C591 1.429 . S
C597 C598 1.523 . S
C598 C579 1.368 . S
C598 C592 1.368 . S
C598 C597 1.523 . S
C599 C583 1.429 . S
C599 C595 1.429 . S
C599 C600 1.523 . S
C600 C584 1.368 . S
C600 C596 1.368 . S
C600 C599 1.523 . S
H601 C576 0.950 . S
H602 C578 0.950 . S
H603 C579 0.949 . S
H604 C581 0.950 . S
H605 C583 0.950 . S
C606 C607 1.349 . S
C606 C608 1.327 . S
C606 H631 0.950 . S
C607 C606 1.349 . S
C607 C623 1.349 . S
C608 C606 1.327 . S
C608 C627 1.429 . S
C608 H632 0.950 . S
C609 C626 1.574 . S
C609 C628 1.368 . S
C609 H633 0.949 . S
H610 C614 0.949 . S
C611 C612 1.349 . S
C611 C613 1.327 . S
C611 H634 0.950 . S
C612 C611 1.349 . S
C612 C624 1.349 . S
C613 C611 1.327 . S
C613 C629 1.429 . S
C613 H635 0.950 . S
C614 H610 0.949 . S
C614 C622 1.574 . S
C614 C630 1.368 . S
H615 C623 0.950 . S
H616 C621 0.950 . S
H617 C622 0.949 . S
H618 C624 0.950 . S
H619 C625 0.950 . S
H620 C626 0.949 . S
C621 H616 0.950 . S
C621 C623 1.327 . S
C621 C627 1.429 . S
C622 C614 1.574 . S
C622 H617 0.949 . S
C622 C628 1.368 . S
C623 C607 1.349 . S
C623 H615 0.950 . S
C623 C621 1.327 . S
C624 C612 1.349 . S
C624 H618 0.950 . S
C624 C625 1.327 . S
C625 H619 0.950 . S
C625 C624 1.327 . S
C625 C629 1.429 . S
C626 C609 1.574 . S
C626 H620 0.949 . S
C626 C630 1.368 . S
C627 C608 1.429 . S
C627 C621 1.429 . S
C627 C628 1.523 . S
C628 C609 1.368 . S
C628 C622 1.368 . S
C628 C627 1.523 . S
C629 C613 1.429 . S
C629 C625 1.429 . S
C629 C630 1.523 . S
C630 C614 1.368 . S
C630 C626 1.368 . S
C630 C629 1.523 . S
H631 C606 0.950 . S
H632 C608 0.950 . S
H633 C609 0.949 . S
H634 C611 0.950 . S
H635 C613 0.950 . S
C636 C637 1.349 . S
C636 C638 1.327 . S
C636 H661 0.950 . S
C637 C636 1.349 . S
C637 C653 1.349 . S
C638 C636 1.327 . S
C638 C657 1.429 . S
C638 H662 0.950 . S
C639 C656 1.574 . S
C639 C658 1.368 . S
C639 H663 0.949 . S
H640 C644 0.949 . S
C641 C642 1.349 . S
C641 C643 1.327 . S
C641 H664 0.950 . S
C642 C641 1.349 . S
C642 C654 1.349 . S
C643 C641 1.327 . S
C643 C659 1.429 . S
C643 H665 0.950 . S
C644 H640 0.949 . S
C644 C652 1.574 . S
C644 C660 1.368 . S
H645 C653 0.950 . S
H646 C651 0.950 . S
H647 C652 0.949 . S
H648 C654 0.950 . S
H649 C655 0.950 . S
H650 C656 0.949 . S
C651 H646 0.950 . S
C651 C653 1.327 . S
C651 C657 1.429 . S
C652 C644 1.574 . S
C652 H647 0.949 . S
C652 C658 1.368 . S
C653 C637 1.349 . S
C653 H645 0.950 . S
C653 C651 1.327 . S
C654 C642 1.349 . S
C654 H648 0.950 . S
C654 C655 1.327 . S
C655 H649 0.950 . S
C655 C654 1.327 . S
C655 C659 1.429 . S
C656 C639 1.574 . S
C656 H650 0.949 . S
C656 C660 1.368 . S
C657 C638 1.429 . S
C657 C651 1.429 . S
C657 C658 1.523 . S
C658 C639 1.368 . S
C658 C652 1.368 . S
C658 C657 1.523 . S
C659 C643 1.429 . S
C659 C655 1.429 . S
C659 C660 1.523 . S
C660 C644 1.368 . S
C660 C656 1.368 . S
C660 C659 1.523 . S
H661 C636 0.950 . S
H662 C638 0.950 . S
H663 C639 0.949 . S
H664 C641 0.950 . S
H665 C643 0.950 . S
C666 C667 1.349 . S
C666 C668 1.327 . S
C666 H691 0.950 . S
C667 C666 1.349 . S
C667 C683 1.349 . S
C668 C666 1.327 . S
C668 C687 1.429 . S
C668 H692 0.950 . S
C669 C686 1.574 . S
C669 C688 1.368 . S
C669 H693 0.949 . S
H670 C674 0.949 . S
C671 C672 1.349 . S
C671 C673 1.327 . S
C671 H694 0.950 . S
C672 C671 1.349 . S
C672 C684 1.349 . S
C673 C671 1.327 . S
C673 C689 1.429 . S
C673 H695 0.950 . S
C674 H670 0.949 . S
C674 C682 1.574 . S
C674 C690 1.368 . S
H675 C683 0.950 . S
H676 C681 0.950 . S
H677 C682 0.949 . S
H678 C684 0.950 . S
H679 C685 0.950 . S
H680 C686 0.949 . S
C681 H676 0.950 . S
C681 C683 1.327 . S
C681 C687 1.429 . S
C682 C674 1.574 . S
C682 H677 0.949 . S
C682 C688 1.368 . S
C683 C667 1.349 . S
C683 H675 0.950 . S
C683 C681 1.327 . S
C684 C672 1.349 . S
C684 H678 0.950 . S
C684 C685 1.327 . S
C685 H679 0.950 . S
C685 C684 1.327 . S
C685 C689 1.429 . S
C686 C669 1.574 . S
C686 H680 0.949 . S
C686 C690 1.368 . S
C687 C668 1.429 . S
C687 C681 1.429 . S
C687 C688 1.523 . S
C688 C669 1.368 . S
C688 C682 1.368 . S
C688 C687 1.523 . S
C689 C673 1.429 . S
C689 C685 1.429 . S
C689 C690 1.523 . S
C690 C674 1.368 . S
C690 C686 1.368 . S
C690 C689 1.523 . S
H691 C666 0.950 . S
H692 C668 0.950 . S
H693 C669 0.949 . S
H694 C671 0.950 . S
H695 C673 0.950 . S
C696 C697 1.349 . S
C696 C698 1.327 1_556 S
C696 H721 0.954 . S
C697 C696 1.349 . S
C697 C713 1.349 . S
C698 C696 1.327 1_554 S
C698 C717 1.429 . S
C698 H722 0.950 . S
C699 C716 1.574 . S
C699 C718 1.368 . S
C699 H723 0.949 . S
H700 C704 0.949 . S
C701 C702 1.349 . S
C701 C703 1.327 . S
C701 H724 0.950 . S
C702 C701 1.349 . S
C702 C714 1.349 . S
C703 C701 1.327 . S
C703 C719 1.429 . S
C703 H725 0.950 . S
C704 H700 0.949 . S
C704 C712 1.574 . S
C704 C720 1.368 . S
H705 C713 0.950 . S
H706 C711 0.950 . S
H707 C712 0.949 . S
H708 C714 0.950 . S
H709 C715 0.950 . S
H710 C716 0.949 . S
C711 H706 0.950 . S
C711 C713 1.327 . S
C711 C717 1.429 1_556 S
C712 C704 1.574 . S
C712 H707 0.949 . S
C712 C718 1.368 . S
C713 C697 1.349 . S
C713 H705 0.950 . S
C713 C711 1.327 . S
C714 C702 1.349 . S
C714 H708 0.950 . S
C714 C715 1.327 . S
C715 H709 0.950 . S
C715 C714 1.327 . S
C715 C719 1.429 . S
C716 C699 1.574 . S
C716 H710 0.949 . S
C716 C720 1.368 . S
C717 C698 1.429 . S
C717 C711 1.429 1_554 S
C717 C718 1.523 . S
C718 C699 1.368 . S
C718 C712 1.368 . S
C718 C717 1.523 . S
C719 C703 1.429 . S
C719 C715 1.429 . S
C719 C720 1.523 . S
C720 C704 1.368 . S
C720 C716 1.368 . S
C720 C719 1.523 . S
H721 C696 0.954 . S
H722 C698 0.950 . S
H723 C699 0.949 . S
H724 C701 0.950 . S
H725 C703 0.950 . S
C726 C727 1.349 . S
C726 C728 1.327 . S
C726 H751 0.950 . S
C727 C726 1.349 . S
C727 C743 1.349 . S
C728 C726 1.327 . S
C728 C747 1.429 . S
C728 H752 0.950 . S
C729 C746 1.574 . S
C729 C748 1.368 . S
C729 H753 0.949 . S
H730 C734 0.949 . S
C731 C732 1.349 . S
C731 C733 1.327 . S
C731 H754 0.950 . S
C732 C731 1.349 . S
C732 C744 1.349 . S
C733 C731 1.327 . S
C733 C749 1.429 . S
C733 H755 0.950 . S
C734 H730 0.949 . S
C734 C742 1.574 . S
C734 C750 1.368 . S
H735 C743 0.950 . S
H736 C741 0.950 . S
H737 C742 0.949 . S
H738 C744 0.950 . S
H739 C745 0.950 . S
H740 C746 0.949 . S
C741 H736 0.950 . S
C741 C743 1.327 . S
C741 C747 1.429 . S
C742 C734 1.574 . S
C742 H737 0.949 . S
C742 C748 1.368 . S
C743 C727 1.349 . S
C743 H735 0.950 . S
C743 C741 1.327 . S
C744 C732 1.349 . S
C744 H738 0.950 . S
C744 C745 1.327 . S
C745 H739 0.950 . S
C745 C744 1.327 . S
C745 C749 1.429 . S
C746 C729 1.574 . S
C746 H740 0.949 . S
C746 C750 1.368 . S
C747 C728 1.429 . S
C747 C741 1.429 . S
C747 C748 1.523 . S
C748 C729 1.368 . S
C748 C742 1.368 . S
C748 C747 1.523 . S
C749 C733 1.429 . S
C749 C745 1.429 . S
C749 C750 1.523 . S
C750 C734 1.368 . S
C750 C746 1.368 . S
C750 C749 1.523 . S
H751 C726 0.950 . S
H752 C728 0.950 . S
H753 C729 0.949 . S
H754 C731 0.950 . S
H755 C733 0.950 . S
C756 C757 1.349 . S
C756 C758 1.327 . S
C756 H781 0.950 . S
C757 C756 1.349 . S
C757 C773 1.349 . S
C758 C756 1.327 . S
C758 C777 1.429 . S
C758 H782 0.950 . S
C759 C776 1.574 . S
C759 C778 1.368 . S
C759 H783 0.949 . S
H760 C764 0.949 . S
C761 C762 1.349 . S
C761 C763 1.327 . S
C761 H784 0.950 . S
C762 C761 1.349 . S
C762 C774 1.349 . S
C763 C761 1.327 . S
C763 C779 1.429 . S
C763 H785 0.950 . S
C764 H760 0.949 . S
C764 C772 1.574 . S
C764 C780 1.368 . S
H765 C773 0.950 . S
H766 C771 0.950 . S
H767 C772 0.949 . S
H768 C774 0.950 . S
H769 C775 0.950 . S
H770 C776 0.949 . S
C771 H766 0.950 . S
C771 C773 1.327 . S
C771 C777 1.429 . S
C772 C764 1.574 . S
C772 H767 0.949 . S
C772 C778 1.368 . S
C773 C757 1.349 . S
C773 H765 0.950 . S
C773 C771 1.327 . S
C774 C762 1.349 . S
C774 H768 0.950 . S
C774 C775 1.327 . S
C775 H769 0.950 . S
C775 C774 1.327 . S
C775 C779 1.429 . S
C776 C759 1.574 . S
C776 H770 0.949 . S
C776 C780 1.368 . S
C777 C758 1.429 . S
C777 C771 1.429 . S
C777 C778 1.523 . S
C778 C759 1.368 . S
C778 C772 1.368 . S
C778 C777 1.523 . S
C779 C763 1.429 . S
C779 C775 1.429 . S
C779 C780 1.523 . S
C780 C764 1.368 . S
C780 C776 1.368 . S
C780 C779 1.523 . S
H781 C756 0.950 . S
H782 C758 0.950 . S
H783 C759 0.949 . S
H784 C761 0.950 . S
H785 C763 0.950 . S
C786 C787 1.349 . S
C786 C788 1.327 . S
C786 H811 0.950 . S
C787 C786 1.349 . S
C787 C803 1.349 . S
C788 C786 1.327 . S
C788 C807 1.429 . S
C788 H812 0.950 . S
C789 C806 1.574 . S
C789 C808 1.368 . S
C789 H813 0.949 . S
H790 C794 0.949 . S
C791 C792 1.349 . S
C791 C793 1.327 . S
C791 H814 0.950 . S
C792 C791 1.349 . S
C792 C804 1.349 . S
C793 C791 1.327 . S
C793 C809 1.429 . S
C793 H815 0.950 . S
C794 H790 0.949 . S
C794 C802 1.574 . S
C794 C810 1.368 . S
H795 C803 0.950 . S
H796 C801 0.950 . S
H797 C802 0.949 . S
H798 C804 0.950 . S
H799 C805 0.950 . S
H800 C806 0.949 . S
C801 H796 0.950 . S
C801 C803 1.327 . S
C801 C807 1.429 . S
C802 C794 1.574 . S
C802 H797 0.949 . S
C802 C808 1.368 . S
C803 C787 1.349 . S
C803 H795 0.950 . S
C803 C801 1.327 . S
C804 C792 1.349 . S
C804 H798 0.950 . S
C804 C805 1.327 . S
C805 H799 0.950 . S
C805 C804 1.327 . S
C805 C809 1.429 . S
C806 C789 1.574 . S
C806 H800 0.949 . S
C806 C810 1.368 . S
C807 C788 1.429 . S
C807 C801 1.429 . S
C807 C808 1.523 . S
C808 C789 1.368 . S
C808 C802 1.368 . S
C808 C807 1.523 . S
C809 C793 1.429 . S
C809 C805 1.429 . S
C809 C810 1.523 . S
C810 C794 1.368 . S
C810 C806 1.368 . S
C810 C809 1.523 . S
H811 C786 0.950 . S
H812 C788 0.950 . S
H813 C789 0.949 . S
H814 C791 0.950 . S
H815 C793 0.950 . S
C816 C817 1.349 . S
C816 C818 1.327 . S
C816 H841 0.950 . S
C817 C816 1.349 . S
C817 C833 1.349 . S
C818 C816 1.327 . S
C818 C837 1.429 . S
C818 H842 0.950 . S
C819 C836 1.574 . S
C819 C838 1.368 . S
C819 H843 0.949 . S
H820 C824 0.949 . S
C821 C822 1.349 . S
C821 C823 1.327 . S
C821 H844 0.950 . S
C822 C821 1.349 . S
C822 C834 1.349 . S
C823 C821 1.327 . S
C823 C839 1.429 . S
C823 H845 0.950 . S
C824 H820 0.949 . S
C824 C832 1.574 . S
C824 C840 1.368 . S
H825 C833 0.950 . S
H826 C831 0.950 . S
H827 C832 0.949 . S
H828 C834 0.950 . S
H829 C835 0.950 . S
H830 C836 0.949 . S
C831 H826 0.950 . S
C831 C833 1.327 . S
C831 C837 1.429 . S
C832 C824 1.574 . S
C832 H827 0.949 . S
C832 C838 1.368 . S
C833 C817 1.349 . S
C833 H825 0.950 . S
C833 C831 1.327 . S
C834 C822 1.349 . S
C834 H828 0.950 . S
C834 C835 1.327 . S
C835 H829 0.950 . S
C835 C834 1.327 . S
C835 C839 1.429 . S
C836 C819 1.574 . S
C836 H830 0.949 . S
C836 C840 1.368 . S
C837 C818 1.429 . S
C837 C831 1.429 . S
C837 C838 1.523 . S
C838 C819 1.368 . S
C838 C832 1.368 . S
C838 C837 1.523 . S
C839 C823 1.429 . S
C839 C835 1.429 . S
C839 C840 1.523 . S
C840 C824 1.368 . S
C840 C836 1.368 . S
C840 C839 1.523 . S
H841 C816 0.950 . S
H842 C818 0.950 . S
H843 C819 0.949 . S
H844 C821 0.950 . S
H845 C823 0.950 . S
C846 C847 1.349 1_556 S
C846 C848 1.327 . S
C846 H871 0.950 . S
C847 C846 1.349 1_554 S
C847 C863 1.349 . S
C848 C846 1.327 . S
C848 C867 1.429 . S
C848 H872 0.950 . S
C849 C866 1.574 . S
C849 C868 1.368 . S
C849 H873 0.949 1_556 S
H850 C854 0.949 . S
C851 C852 1.349 . S
C851 C853 1.327 . S
C851 H874 0.950 . S
C852 C851 1.349 . S
C852 C864 1.349 . S
C853 C851 1.327 . S
C853 C869 1.429 . S
C853 H875 0.950 . S
C854 H850 0.949 . S
C854 C862 1.574 . S
C854 C870 1.368 . S
H855 C863 0.950 . S
H856 C861 0.950 . S
H857 C862 0.949 . S
H858 C864 0.950 . S
H859 C865 0.950 . S
H860 C866 0.949 . S
C861 H856 0.950 . S
C861 C863 1.327 . S
C861 C867 1.429 1_554 S
C862 C854 1.574 . S
C862 H857 0.949 . S
C862 C868 1.368 . S
C863 C847 1.349 . S
C863 H855 0.950 . S
C863 C861 1.327 . S
C864 C852 1.349 . S
C864 H858 0.950 . S
C864 C865 1.327 . S
C865 H859 0.950 . S
C865 C864 1.327 . S
C865 C869 1.429 . S
C866 C849 1.574 . S
C866 H860 0.949 . S
C866 C870 1.368 . S
C867 C848 1.429 . S
C867 C861 1.429 1_556 S
C867 C868 1.523 . S
C868 C849 1.368 . S
C868 C862 1.368 . S
C868 C867 1.523 . S
C869 C853 1.429 . S
C869 C865 1.429 . S
C869 C870 1.523 . S
C870 C854 1.368 . S
C870 C866 1.368 . S
C870 C869 1.523 . S
H871 C846 0.950 . S
H872 C848 0.950 . S
H873 C849 0.949 1_554 S
H874 C851 0.950 . S
H875 C853 0.950 . S
C876 C877 1.349 . S
C876 C878 1.327 . S
C876 H901 0.950 . S
C877 C876 1.349 . S
C877 C893 1.349 . S
C878 C876 1.327 . S
C878 C897 1.429 . S
C878 H902 0.950 . S
C879 C896 1.574 . S
C879 C898 1.368 . S
C879 H903 0.949 . S
H880 C884 0.949 . S
C881 C882 1.349 . S
C881 C883 1.327 . S
C881 H904 0.950 . S
C882 C881 1.349 . S
C882 C894 1.349 . S
C883 C881 1.327 . S
C883 C899 1.429 . S
C883 H905 0.950 . S
C884 H880 0.949 . S
C884 C892 1.574 . S
C884 C900 1.368 . S
H885 C893 0.950 . S
H886 C891 0.950 . S
H887 C892 0.949 . S
H888 C894 0.950 . S
H889 C895 0.950 . S
H890 C896 0.949 . S
C891 H886 0.950 . S
C891 C893 1.327 . S
C891 C897 1.429 . S
C892 C884 1.574 . S
C892 H887 0.949 . S
C892 C898 1.368 . S
C893 C877 1.349 . S
C893 H885 0.950 . S
C893 C891 1.327 . S
C894 C882 1.349 . S
C894 H888 0.950 . S
C894 C895 1.327 . S
C895 H889 0.950 . S
C895 C894 1.327 . S
C895 C899 1.429 . S
C896 C879 1.574 . S
C896 H890 0.949 . S
C896 C900 1.368 . S
C897 C878 1.429 . S
C897 C891 1.429 . S
C897 C898 1.523 . S
C898 C879 1.368 . S
C898 C892 1.368 . S
C898 C897 1.523 . S
C899 C883 1.429 . S
C899 C895 1.429 . S
C899 C900 1.523 . S
C900 C884 1.368 . S
C900 C896 1.368 . S
C900 C899 1.523 . S
H901 C876 0.950 . S
H902 C878 0.950 . S
H903 C879 0.949 . S
H904 C881 0.950 . S
H905 C883 0.950 . S
C906 C907 1.349 . S
C906 C908 1.327 . S
C906 H931 0.950 . S
C907 C906 1.349 . S
C907 C923 1.349 . S
C908 C906 1.327 . S
C908 C927 1.429 . S
C908 H932 0.950 . S
C909 C926 1.574 . S
C909 C928 1.368 . S
C909 H933 0.949 . S
H910 C914 0.949 . S
C911 C912 1.349 . S
C911 C913 1.327 . S
C911 H934 0.950 . S
C912 C911 1.349 . S
C912 C924 1.349 . S
C913 C911 1.327 . S
C913 C929 1.429 . S
C913 H935 0.950 . S
C914 H910 0.949 . S
C914 C922 1.574 . S
C914 C930 1.368 . S
H915 C923 0.950 . S
H916 C921 0.950 . S
H917 C922 0.949 . S
H918 C924 0.950 . S
H919 C925 0.950 . S
H920 C926 0.949 . S
C921 H916 0.950 . S
C921 C923 1.327 . S
C921 C927 1.429 . S
C922 C914 1.574 . S
C922 H917 0.949 . S
C922 C928 1.368 . S
C923 C907 1.349 . S
C923 H915 0.950 . S
C923 C921 1.327 . S
C924 C912 1.349 . S
C924 H918 0.950 . S
C924 C925 1.327 . S
C925 H919 0.950 . S
C925 C924 1.327 . S
C925 C929 1.429 . S
C926 C909 1.574 . S
C926 H920 0.949 . S
C926 C930 1.368 . S
C927 C908 1.429 . S
C927 C921 1.429 . S
C927 C928 1.523 . S
C928 C909 1.368 . S
C928 C922 1.368 . S
C928 C927 1.523 . S
C929 C913 1.429 . S
C929 C925 1.429 . S
C929 C930 1.523 . S
C930 C914 1.368 . S
C930 C926 1.368 . S
C930 C929 1.523 . S
H931 C906 0.950 . S
H932 C908 0.950 . S
H933 C909 0.949 . S
H934 C911 0.950 . S
H935 C913 0.950 . S
C936 C937 1.349 . S
C936 C938 1.327 . S
C936 H961 0.950 . S
C937 C936 1.349 . S
C937 C953 1.349 . S
C938 C936 1.327 . S
C938 C957 1.429 . S
C938 H962 0.950 . S
C939 C956 1.574 . S
C939 C958 1.368 . S
C939 H963 0.949 . S
H940 C944 0.949 . S
C941 C942 1.349 . S
C941 C943 1.327 . S
C941 H964 0.950 . S
C942 C941 1.349 . S
C942 C954 1.349 . S
C943 C941 1.327 . S
C943 C959 1.429 . S
C943 H965 0.950 . S
C944 H940 0.949 . S
C944 C952 1.574 . S
C944 C960 1.368 . S
H945 C953 0.950 . S
H946 C951 0.950 . S
H947 C952 0.949 . S
H948 C954 0.950 . S
H949 C955 0.950 . S
H950 C956 0.949 . S
C951 H946 0.950 . S
C951 C953 1.327 . S
C951 C957 1.429 . S
C952 C944 1.574 . S
C952 H947 0.949 . S
C952 C958 1.368 . S
C953 C937 1.349 . S
C953 H945 0.950 . S
C953 C951 1.327 . S
C954 C942 1.349 . S
C954 H948 0.950 . S
C954 C955 1.327 . S
C955 H949 0.950 . S
C955 C954 1.327 . S
C955 C959 1.429 . S
C956 C939 1.574 . S
C956 H950 0.949 . S
C956 C960 1.368 . S
C957 C938 1.429 . S
C957 C951 1.429 . S
C957 C958 1.523 . S
C958 C939 1.368 . S
C958 C952 1.368 . S
C958 C957 1.523 . S
C959 C943 1.429 . S
C959 C955 1.429 . S
C959 C960 1.523 . S
C960 C944 1.368 . S
C960 C956 1.368 . S
C960 C959 1.523 . S
H961 C936 0.950 . S
H962 C938 0.950 . S
H963 C939 0.949 . S
H964 C941 0.950 . S
H965 C943 0.950 . S
C966 C967 1.349 . S
C966 C968 1.327 . S
C966 H991 0.950 . S
C967 C966 1.349 . S
C967 C983 1.349 . S
C968 C966 1.327 . S
C968 C987 1.429 . S
C968 H992 0.950 . S
C969 C986 1.574 . S
C969 C988 1.368 . S
C969 H993 0.949 . S
H970 C974 0.949 . S
C971 C972 1.349 . S
C971 C973 1.327 . S
C971 H994 0.950 . S
C972 C971 1.349 . S
C972 C984 1.349 . S
C973 C971 1.327 . S
C973 C989 1.429 . S
C973 H995 0.950 . S
C974 H970 0.949 . S
C974 C982 1.574 . S
C974 C990 1.368 . S
H975 C983 0.950 . S
H976 C981 0.950 . S
H977 C982 0.949 . S
H978 C984 0.950 . S
H979 C985 0.950 . S
H980 C986 0.949 . S
C981 H976 0.950 . S
C981 C983 1.327 . S
C981 C987 1.429 . S
C982 C974 1.574 . S
C982 H977 0.949 . S
C982 C988 1.368 . S
C983 C967 1.349 . S
C983 H975 0.950 . S
C983 C981 1.327 . S
C984 C972 1.349 . S
C984 H978 0.950 . S
C984 C985 1.327 . S
C985 H979 0.950 . S
C985 C984 1.327 . S
C985 C989 1.429 . S
C986 C969 1.574 . S
C986 H980 0.949 . S
C986 C990 1.368 . S
C987 C968 1.429 . S
C987 C981 1.429 . S
C987 C988 1.523 . S
C988 C969 1.368 . S
C988 C982 1.368 . S
C988 C987 1.523 . S
C989 C973 1.429 . S
C989 C985 1.429 . S
C989 C990 1.523 . S
C990 C974 1.368 . S
C990 C986 1.368 . S
C990 C989 1.523 . S
H991 C966 0.950 . S
H992 C968 0.950 . S
H993 C969 0.949 . S
H994 C971 0.950 . S
H995 C973 0.950 . S
C996 C997 1.349 . S
C996 C998 1.327 . S
C996 H1021 0.950 . S
C997 C996 1.349 . S
C997 C1013 1.349 . S
C998 C996 1.327 . S
C998 C1017 1.429 . S
C998 H1022 0.950 . S
C999 C1016 1.574 . S
C999 C1018 1.368 . S
C999 H1023 0.949 . S
H1000 C1004 0.949 . S
C1001 C1002 1.349 . S
C1001 C1003 1.327 . S
C1001 H1024 0.950 . S
C1002 C1001 1.349 . S
C1002 C1014 1.349 . S
C1003 C1001 1.327 . S
C1003 C1019 1.429 . S
C1003 H1025 0.950 . S
C1004 H1000 0.949 . S
C1004 C1012 1.574 . S
C1004 C1020 1.368 . S
H1005 C1013 0.950 . S
H1006 C1011 0.950 . S
H1007 C1012 0.949 . S
H1008 C1014 0.950 . S
H1009 C1015 0.950 . S
H1010 C1016 0.949 . S
C1011 H1006 0.950 . S
C1011 C1013 1.327 . S
C1011 C1017 1.429 . S
C1012 C1004 1.574 . S
C1012 H1007 0.949 . S
C1012 C1018 1.368 . S
C1013 C997 1.349 . S
C1013 H1005 0.950 . S
C1013 C1011 1.327 . S
C1014 C1002 1.349 . S
C1014 H1008 0.950 . S
C1014 C1015 1.327 . S
C1015 H1009 0.950 . S
C1015 C1014 1.327 . S
C1015 C1019 1.429 . S
C1016 C999 1.574 . S
C1016 H1010 0.949 . S
C1016 C1020 1.368 . S
C1017 C998 1.429 . S
C1017 C1011 1.429 . S
C1017 C1018 1.523 . S
C1018 C999 1.368 . S
C1018 C1012 1.368 . S
C1018 C1017 1.523 . S
C1019 C1003 1.429 . S
C1019 C1015 1.429 . S
C1019 C1020 1.523 . S
C1020 C1004 1.368 . S
C1020 C1016 1.368 . S
C1020 C1019 1.523 . S
H1021 C996 0.950 . S
H1022 C998 0.950 . S
H1023 C999 0.949 . S
H1024 C1001 0.950 . S
H1025 C1003 0.950 . S
C1026 C1027 1.349 . S
C1026 C1028 1.327 . S
C1026 H1051 0.950 . S
C1027 C1026 1.349 . S
C1027 C1043 1.349 . S
C1028 C1026 1.327 . S
C1028 C1047 1.429 . S
C1028 H1052 0.950 . S
C1029 C1046 1.574 . S
C1029 C1048 1.368 . S
C1029 H1053 0.949 . S
H1030 C1034 0.949 . S
C1031 C1032 1.349 . S
C1031 C1033 1.327 . S
C1031 H1054 0.950 . S
C1032 C1031 1.349 . S
C1032 C1044 1.349 . S
C1033 C1031 1.327 . S
C1033 C1049 1.429 . S
C1033 H1055 0.950 . S
C1034 H1030 0.949 . S
C1034 C1042 1.574 . S
C1034 C1050 1.368 . S
H1035 C1043 0.950 . S
H1036 C1041 0.950 . S
H1037 C1042 0.949 . S
H1038 C1044 0.950 . S
H1039 C1045 0.950 . S
H1040 C1046 0.949 . S
C1041 H1036 0.950 . S
C1041 C1043 1.327 . S
C1041 C1047 1.429 . S
C1042 C1034 1.574 . S
C1042 H1037 0.949 . S
C1042 C1048 1.368 . S
C1043 C1027 1.349 . S
C1043 H1035 0.950 . S
C1043 C1041 1.327 . S
C1044 C1032 1.349 . S
C1044 H1038 0.950 . S
C1044 C1045 1.327 . S
C1045 H1039 0.950 . S
C1045 C1044 1.327 . S
C1045 C1049 1.429 . S
C1046 C1029 1.574 . S
C1046 H1040 0.949 . S
C1046 C1050 1.368 . S
C1047 C1028 1.429 . S
C1047 C1041 1.429 . S
C1047 C1048 1.523 . S
C1048 C1029 1.368 . S
C1048 C1042 1.368 . S
C1048 C1047 1.523 . S
C1049 C1033 1.429 . S
C1049 C1045 1.429 . S
C1049 C1050 1.523 . S
C1050 C1034 1.368 . S
C1050 C1046 1.368 . S
C1050 C1049 1.523 . S
H1051 C1026 0.950 . S
H1052 C1028 0.950 . S
H1053 C1029 0.949 . S
H1054 C1031 0.950 . S
H1055 C1033 0.950 . S
C1056 C1057 1.349 . S
C1056 C1058 1.327 . S
C1056 H1081 0.950 . S
C1057 C1056 1.349 . S
C1057 C1073 1.349 . S
C1058 C1056 1.327 . S
C1058 C1077 1.429 . S
C1058 H1082 0.950 . S
C1059 C1076 1.574 . S
C1059 C1078 1.368 . S
C1059 H1083 0.949 . S
H1060 C1064 0.949 . S
C1061 C1062 1.349 . S
C1061 C1063 1.327 . S
C1061 H1084 0.950 . S
C1062 C1061 1.349 . S
C1062 C1074 1.349 . S
C1063 C1061 1.327 . S
C1063 C1079 1.429 . S
C1063 H1085 0.950 . S
C1064 H1060 0.949 . S
C1064 C1072 1.574 . S
C1064 C1080 1.368 . S
H1065 C1073 0.950 . S
H1066 C1071 0.950 . S
H1067 C1072 0.949 . S
H1068 C1074 0.950 . S
H1069 C1075 0.950 . S
H1070 C1076 0.949 . S
C1071 H1066 0.950 . S
C1071 C1073 1.327 . S
C1071 C1077 1.429 . S
C1072 C1064 1.574 . S
C1072 H1067 0.949 . S
C1072 C1078 1.368 . S
C1073 C1057 1.349 . S
C1073 H1065 0.950 . S
C1073 C1071 1.327 . S
C1074 C1062 1.349 . S
C1074 H1068 0.950 . S
C1074 C1075 1.327 . S
C1075 H1069 0.950 . S
C1075 C1074 1.327 . S
C1075 C1079 1.429 . S
C1076 C1059 1.574 . S
C1076 H1070 0.949 . S
C1076 C1080 1.368 . S
C1077 C1058 1.429 . S
C1077 C1071 1.429 . S
C1077 C1078 1.523 . S
C1078 C1059 1.368 . S
C1078 C1072 1.368 . S
C1078 C1077 1.523 . S
C1079 C1063 1.429 . S
C1079 C1075 1.429 . S
C1079 C1080 1.523 . S
C1080 C1064 1.368 . S
C1080 C1076 1.368 . S
C1080 C1079 1.523 . S
H1081 C1056 0.950 . S
H1082 C1058 0.950 . S
H1083 C1059 0.949 . S
H1084 C1061 0.950 . S
H1085 C1063 0.950 . S
C1086 C1087 1.349 . S
C1086 C1088 1.327 . S
C1086 H1111 0.950 . S
C1087 C1086 1.349 . S
C1087 C1103 1.349 . S
C1088 C1086 1.327 . S
C1088 C1107 1.429 . S
C1088 H1112 0.950 . S
C1089 C1106 1.574 . S
C1089 C1108 1.368 . S
C1089 H1113 0.949 . S
H1090 C1094 0.949 . S
C1091 C1092 1.349 . S
C1091 C1093 1.327 . S
C1091 H1114 0.950 . S
C1092 C1091 1.349 . S
C1092 C1104 1.349 . S
C1093 C1091 1.327 . S
C1093 C1109 1.429 . S
C1093 H1115 0.950 . S
C1094 H1090 0.949 . S
C1094 C1102 1.574 . S
C1094 C1110 1.368 . S
H1095 C1103 0.950 . S
H1096 C1101 0.950 . S
H1097 C1102 0.949 . S
H1098 C1104 0.950 . S
H1099 C1105 0.950 . S
H1100 C1106 0.949 . S
C1101 H1096 0.950 . S
C1101 C1103 1.327 . S
C1101 C1107 1.429 . S
C1102 C1094 1.574 . S
C1102 H1097 0.949 . S
C1102 C1108 1.368 . S
C1103 C1087 1.349 . S
C1103 H1095 0.950 . S
C1103 C1101 1.327 . S
C1104 C1092 1.349 . S
C1104 H1098 0.950 . S
C1104 C1105 1.327 . S
C1105 H1099 0.950 . S
C1105 C1104 1.327 . S
C1105 C1109 1.429 . S
C1106 C1089 1.574 . S
C1106 H1100 0.949 . S
C1106 C1110 1.368 . S
C1107 C1088 1.429 . S
C1107 C1101 1.429 . S
C1107 C1108 1.523 . S
C1108 C1089 1.368 . S
C1108 C1102 1.368 . S
C1108 C1107 1.523 . S
C1109 C1093 1.429 . S
C1109 C1105 1.429 . S
C1109 C1110 1.523 . S
C1110 C1094 1.368 . S
C1110 C1106 1.368 . S
C1110 C1109 1.523 . S
H1111 C1086 0.950 . S
H1112 C1088 0.950 . S
H1113 C1089 0.949 . S
H1114 C1091 0.950 . S
H1115 C1093 0.950 . S
C1116 C1117 1.349 . S
C1116 C1118 1.327 . S
C1116 H1141 0.950 . S
C1117 C1116 1.349 . S
C1117 C1133 1.349 . S
C1118 C1116 1.327 . S
C1118 C1137 1.429 . S
C1118 H1142 0.950 . S
C1119 C1136 1.574 . S
C1119 C1138 1.368 . S
C1119 H1143 0.949 . S
H1120 C1124 0.949 . S
C1121 C1122 1.349 . S
C1121 C1123 1.327 . S
C1121 H1144 0.950 . S
C1122 C1121 1.349 . S
C1122 C1134 1.349 . S
C1123 C1121 1.327 . S
C1123 C1139 1.429 . S
C1123 H1145 0.950 . S
C1124 H1120 0.949 . S
C1124 C1132 1.574 . S
C1124 C1140 1.368 . S
H1125 C1133 0.950 . S
H1126 C1131 0.950 . S
H1127 C1132 0.949 . S
H1128 C1134 0.950 . S
H1129 C1135 0.950 . S
H1130 C1136 0.949 . S
C1131 H1126 0.950 . S
C1131 C1133 1.327 . S
C1131 C1137 1.429 . S
C1132 C1124 1.574 . S
C1132 H1127 0.949 . S
C1132 C1138 1.368 . S
C1133 C1117 1.349 . S
C1133 H1125 0.950 . S
C1133 C1131 1.327 . S
C1134 C1122 1.349 . S
C1134 H1128 0.950 . S
C1134 C1135 1.327 . S
C1135 H1129 0.950 . S
C1135 C1134 1.327 . S
C1135 C1139 1.429 . S
C1136 C1119 1.574 . S
C1136 H1130 0.949 . S
C1136 C1140 1.368 . S
C1137 C1118 1.429 . S
C1137 C1131 1.429 . S
C1137 C1138 1.523 . S
C1138 C1119 1.368 . S
C1138 C1132 1.368 . S
C1138 C1137 1.523 . S
C1139 C1123 1.429 . S
C1139 C1135 1.429 . S
C1139 C1140 1.523 . S
C1140 C1124 1.368 . S
C1140 C1136 1.368 . S
C1140 C1139 1.523 . S
H1141 C1116 0.950 . S
H1142 C1118 0.950 . S
H1143 C1119 0.949 . S
H1144 C1121 0.950 . S
H1145 C1123 0.950 . S
C1146 C1147 1.349 . S
C1146 C1148 1.327 . S
C1146 H1171 0.950 . S
C1147 C1146 1.349 . S
C1147 C1163 1.349 . S
C1148 C1146 1.327 . S
C1148 C1167 1.429 . S
C1148 H1172 0.950 . S
C1149 C1166 1.575 . S
C1149 C1168 1.361 1_655 S
C1149 H1173 0.945 . S
H1150 C1154 0.945 . S
C1151 C1152 1.349 . S
C1151 C1153 1.327 . S
C1151 H1174 0.950 . S
C1152 C1151 1.349 . S
C1152 C1164 1.349 . S
C1153 C1151 1.327 . S
C1153 C1169 1.429 . S
C1153 H1175 0.950 . S
C1154 H1150 0.945 . S
C1154 C1162 1.575 . S
C1154 C1170 1.361 1_455 S
H1155 C1163 0.950 . S
H1156 C1161 0.950 . S
H1157 C1162 0.949 . S
H1158 C1164 0.950 . S
H1159 C1165 0.950 . S
H1160 C1166 0.949 . S
C1161 H1156 0.950 . S
C1161 C1163 1.327 . S
C1161 C1167 1.429 . S
C1162 C1154 1.575 . S
C1162 H1157 0.949 . S
C1162 C1168 1.368 . S
C1163 C1147 1.349 . S
C1163 H1155 0.950 . S
C1163 C1161 1.327 . S
C1164 C1152 1.349 . S
C1164 H1158 0.950 . S
C1164 C1165 1.327 . S
C1165 H1159 0.950 . S
C1165 C1164 1.327 . S
C1165 C1169 1.429 . S
C1166 C1149 1.575 . S
C1166 H1160 0.949 . S
C1166 C1170 1.368 . S
C1167 C1148 1.429 . S
C1167 C1161 1.429 . S
C1167 C1168 1.523 . S
C1168 C1149 1.361 1_455 S
C1168 C1162 1.368 . S
C1168 C1167 1.523 . S
C1169 C1153 1.429 . S
C1169 C1165 1.429 . S
C1169 C1170 1.523 . S
C1170 C1154 1.361 1_655 S
C1170 C1166 1.368 . S
C1170 C1169 1.523 . S
H1171 C1146 0.950 . S
H1172 C1148 0.950 . S
H1173 C1149 0.945 . S
H1174 C1151 0.950 . S
H1175 C1153 0.950 . S
C1176 C1177 1.349 . S
C1176 C1178 1.327 . S
C1176 H1201 0.950 . S
C1177 C1176 1.349 . S
C1177 C1193 1.349 1_545 S
C1178 C1176 1.327 . S
C1178 C1197 1.429 . S
C1178 H1202 0.950 . S
C1179 C1196 1.574 1_556 S
C1179 C1198 1.368 1_565 S
C1179 H1203 0.949 . S
H1180 C1184 0.949 . S
C1181 C1182 1.349 . S
C1181 C1183 1.327 . S
C1181 H1204 0.950 . S
C1182 C1181 1.349 . S
C1182 C1194 1.349 1_565 S
C1183 C1181 1.327 . S
C1183 C1199 1.429 . S
C1183 H1205 0.950 . S
C1184 H1180 0.949 . S
C1184 C1192 1.574 1_554 S
C1184 C1200 1.368 1_545 S
H1185 C1193 0.950 . S
H1186 C1191 0.950 . S
H1187 C1192 0.949 . S
H1188 C1194 0.950 . S
H1189 C1195 0.950 . S
H1190 C1196 0.949 . S
C1191 H1186 0.950 . S
C1191 C1193 1.327 . S
C1191 C1197 1.429 1_565 S
C1192 C1184 1.574 1_556 S
C1192 H1187 0.949 . S
C1192 C1198 1.368 . S
C1193 C1177 1.349 1_565 S
C1193 H1185 0.950 . S
C1193 C1191 1.327 . S
C1194 C1182 1.349 1_545 S
C1194 H1188 0.950 . S
C1194 C1195 1.327 . S
C1195 H1189 0.950 . S
C1195 C1194 1.327 . S
C1195 C1199 1.429 1_545 S
C1196 C1179 1.574 1_554 S
C1196 H1190 0.949 . S
C1196 C1200 1.368 . S
C1197 C1178 1.429 . S
C1197 C1191 1.429 1_545 S
C1197 C1198 1.523 . S
C1198 C1179 1.368 1_545 S
C1198 C1192 1.368 . S
C1198 C1197 1.523 . S
C1199 C1183 1.429 . S
C1199 C1195 1.429 1_565 S
C1199 C1200 1.523 . S
C1200 C1184 1.368 1_565 S
C1200 C1196 1.368 . S
C1200 C1199 1.523 . S
H1201 C1176 0.950 . S
H1202 C1178 0.950 . S
H1203 C1179 0.949 . S
H1204 C1181 0.950 . S
H1205 C1183 0.950 . S
C1206 C1207 1.349 . S
C1206 C1208 1.327 . S
C1206 H1231 0.950 . S
C1207 C1206 1.349 . S
C1207 C1223 1.349 . S
C1208 C1206 1.327 . S
C1208 C1227 1.429 . S
C1208 H1232 0.950 . S
C1209 C1226 1.574 . S
C1209 C1228 1.368 . S
C1209 H1233 0.949 . S
H1210 C1214 0.949 . S
C1211 C1212 1.349 . S
C1211 C1213 1.327 . S
C1211 H1234 0.950 . S
C1212 C1211 1.349 . S
C1212 C1224 1.349 . S
C1213 C1211 1.327 . S
C1213 C1229 1.429 . S
C1213 H1235 0.950 . S
C1214 H1210 0.949 . S
C1214 C1222 1.574 . S
C1214 C1230 1.368 . S
H1215 C1223 0.950 . S
H1216 C1221 0.950 . S
H1217 C1222 0.949 . S
H1218 C1224 0.950 . S
H1219 C1225 0.950 . S
H1220 C1226 0.949 . S
C1221 H1216 0.950 . S
C1221 C1223 1.327 . S
C1221 C1227 1.429 . S
C1222 C1214 1.574 . S
C1222 H1217 0.949 . S
C1222 C1228 1.368 . S
C1223 C1207 1.349 . S
C1223 H1215 0.950 . S
C1223 C1221 1.327 . S
C1224 C1212 1.349 . S
C1224 H1218 0.950 . S
C1224 C1225 1.327 . S
C1225 H1219 0.950 . S
C1225 C1224 1.327 . S
C1225 C1229 1.429 . S
C1226 C1209 1.574 . S
C1226 H1220 0.949 . S
C1226 C1230 1.368 . S
C1227 C1208 1.429 . S
C1227 C1221 1.429 . S
C1227 C1228 1.523 . S
C1228 C1209 1.368 . S
C1228 C1222 1.368 . S
C1228 C1227 1.523 . S
C1229 C1213 1.429 . S
C1229 C1225 1.429 . S
C1229 C1230 1.523 . S
C1230 C1214 1.368 . S
C1230 C1226 1.368 . S
C1230 C1229 1.523 . S
H1231 C1206 0.950 . S
H1232 C1208 0.950 . S
H1233 C1209 0.949 . S
H1234 C1211 0.950 . S
H1235 C1213 0.950 . S
C1236 C1237 1.349 . S
C1236 C1238 1.327 . S
C1236 H1261 0.950 . S
C1237 C1236 1.349 . S
C1237 C1253 1.349 . S
C1238 C1236 1.327 . S
C1238 C1257 1.429 . S
C1238 H1262 0.950 . S
C1239 C1256 1.579 . S
C1239 C1258 1.339 1_455 S
C1239 H1263 0.973 . S
H1240 C1244 0.973 . S
C1241 C1242 1.349 . S
C1241 C1243 1.327 . S
C1241 H1264 0.950 . S
C1242 C1241 1.349 . S
C1242 C1254 1.349 . S
C1243 C1241 1.327 . S
C1243 C1259 1.429 . S
C1243 H1265 0.950 . S
C1244 H1240 0.973 . S
C1244 C1252 1.579 . S
C1244 C1260 1.339 1_655 S
H1245 C1253 0.950 . S
H1246 C1251 0.950 . S
H1247 C1252 0.949 . S
H1248 C1254 0.950 . S
H1249 C1255 0.950 . S
H1250 C1256 0.949 . S
C1251 H1246 0.950 . S
C1251 C1253 1.327 . S
C1251 C1257 1.429 . S
C1252 C1244 1.579 . S
C1252 H1247 0.949 . S
C1252 C1258 1.368 . S
C1253 C1237 1.349 . S
C1253 H1245 0.950 . S
C1253 C1251 1.327 . S
C1254 C1242 1.349 . S
C1254 H1248 0.950 . S
C1254 C1255 1.327 . S
C1255 H1249 0.950 . S
C1255 C1254 1.327 . S
C1255 C1259 1.429 . S
C1256 C1239 1.579 . S
C1256 H1250 0.949 . S
C1256 C1260 1.368 . S
C1257 C1238 1.429 . S
C1257 C1251 1.429 . S
C1257 C1258 1.523 . S
C1258 C1239 1.339 1_655 S
C1258 C1252 1.368 . S
C1258 C1257 1.523 . S
C1259 C1243 1.429 . S
C1259 C1255 1.429 . S
C1259 C1260 1.523 . S
C1260 C1244 1.339 1_455 S
C1260 C1256 1.368 . S
C1260 C1259 1.523 . S
H1261 C1236 0.950 . S
H1262 C1238 0.950 . S
H1263 C1239 0.973 . S
H1264 C1241 0.950 . S
H1265 C1243 0.950 . S
C1266 C1267 1.349 1_565 S
C1266 C1268 1.327 . S
C1266 H1291 0.950 . S
C1267 C1266 1.349 1_545 S
C1267 C1283 1.349 . S
C1268 C1266 1.327 . S
C1268 C1287 1.429 1_565 S
C1268 H1292 0.950 . S
C1269 C1286 1.574 . S
C1269 C1288 1.368 . S
C1269 H1293 0.949 . S
H1270 C1274 0.949 . S
C1271 C1272 1.349 1_545 S
C1271 C1273 1.327 . S
C1271 H1294 0.950 . S
C1272 C1271 1.349 1_565 S
C1272 C1284 1.349 . S
C1273 C1271 1.327 . S
C1273 C1289 1.429 1_545 S
C1273 H1295 0.950 . S
C1274 H1270 0.949 . S
C1274 C1282 1.574 . S
C1274 C1290 1.368 . S
H1275 C1283 0.950 . S
H1276 C1281 0.950 . S
H1277 C1282 0.949 . S
H1278 C1284 0.950 . S
H1279 C1285 0.950 . S
H1280 C1286 0.949 . S
C1281 H1276 0.950 . S
C1281 C1283 1.327 . S
C1281 C1287 1.429 . S
C1282 C1274 1.574 . S
C1282 H1277 0.949 . S
C1282 C1288 1.368 1_565 S
C1283 C1267 1.349 . S
C1283 H1275 0.950 . S
C1283 C1281 1.327 . S
C1284 C1272 1.349 . S
C1284 H1278 0.950 . S
C1284 C1285 1.327 . S
C1285 H1279 0.950 . S
C1285 C1284 1.327 . S
C1285 C1289 1.429 . S
C1286 C1269 1.574 . S
C1286 H1280 0.949 . S
C1286 C1290 1.368 1_545 S
C1287 C1268 1.429 1_545 S
C1287 C1281 1.429 . S
C1287 C1288 1.523 . S
C1288 C1269 1.368 . S
C1288 C1282 1.368 1_545 S
C1288 C1287 1.523 . S
C1289 C1273 1.429 1_565 S
C1289 C1285 1.429 . S
C1289 C1290 1.523 . S
C1290 C1274 1.368 . S
C1290 C1286 1.368 1_565 S
C1290 C1289 1.523 . S
H1291 C1266 0.950 . S
H1292 C1268 0.950 . S
H1293 C1269 0.949 . S
H1294 C1271 0.950 . S
H1295 C1273 0.950 . S
C397 C282 0.601 . S
C402 C18 0.601 . S
C427 C51 0.601 . S
C432 C315 0.601 . S
C457 C84 0.601 . S
C462 C348 0.601 . S
C487 C117 0.601 . S
C492 C381 0.601 . S
C517 C150 0.601 . S
C522 C216 0.601 . S
C547 C183 0.601 . S
C552 C249 0.601 . S
C577 N13 1.755 . S
C582 C172 1.701 . S
C607 C7 1.701 . S
C612 N46 1.755 . S
C637 N79 1.755 . S
C642 C40 1.701 . S
C667 C73 1.701 . S
C672 N112 1.755 . S
C697 C106 1.701 . S
C702 N145 1.755 . S
C727 N178 1.755 . S
C732 C139 1.701 . S
C757 C238 1.701 . S
C762 N211 1.755 . S
C787 C271 1.701 . S
C792 N244 1.755 . S
C817 C304 1.701 . S
C822 N277 1.755 . S
C847 C337 1.701 . S
C852 N310 1.755 . S
C877 C370 1.701 . S
C882 N343 1.755 . S
C907 N376 1.755 . S
C912 C205 1.701 . S
C937 C21 1.250 . S
C942 C219 1.250 . S
C967 C54 1.250 . S
C972 C252 1.250 . S
C997 C87 1.250 . S
C1002 C285 1.250 . S
C1027 C120 1.250 . S
C1032 C318 1.250 . S
C1057 C351 1.250 . S
C1062 C153 1.250 . S
C1087 C186 1.250 . S
C1092 C384 1.250 . S
C1117 N299 0.630 . S
C1122 N2 0.630 . S
C1147 N35 0.630 . S
C1152 N332 0.630 . S
C1177 N68 0.630 . S
C1182 N365 0.630 . S
C1207 N101 0.630 . S
C1212 N200 0.630 . S
C1237 N134 0.630 . S
C1242 N233 0.630 . S
C1267 N266 0.630 . S
C1272 N167 0.630 . S
