# Generated by pormake.
# Topology qtz-e, (6)-cn, num edge types: 1
# Building blocks:
#     Node 0, Type 0, BuildingBlock: BETDEL_clean_sbu_0, # of connection points: 6
#     Node 1, Type 0, BuildingBlock: BETDEL_clean_sbu_0, # of connection points: 6
#     Node 2, Type 0, BuildingBlock: BETDEL_clean_sbu_0, # of connection points: 6
#     Node 3, Type 0, BuildingBlock: BETDEL_clean_sbu_0, # of connection points: 6
#     Node 4, Type 0, BuildingBlock: BETDEL_clean_sbu_0, # of connection points: 6
#     Node 5, Type 0, BuildingBlock: BETDEL_clean_sbu_0, # of connection points: 6
#     Edge 6, Type (0, 0), BuildingBlock: XUDNAN_clean_linker_2, # of connection points: 2
#     Edge 7, Type (0, 0), BuildingBlock: XUDNAN_clean_linker_2, # of connection points: 2
#     Edge 8, Type (0, 0), BuildingBlock: XUDNAN_clean_linker_2, # of connection points: 2
#     Edge 9, Type (0, 0), BuildingBlock: XUDNAN_clean_linker_2, # of connection points: 2
#     Edge 10, Type (0, 0), BuildingBlock: XUDNAN_clean_linker_2, # of connection points: 2
#     Edge 11, Type (0, 0), BuildingBlock: XUDNAN_clean_linker_2, # of connection points: 2
#     Edge 12, Type (0, 0), BuildingBlock: XUDNAN_clean_linker_2, # of connection points: 2
#     Edge 13, Type (0, 0), BuildingBlock: XUDNAN_clean_linker_2, # of connection points: 2
#     Edge 14, Type (0, 0), BuildingBlock: XUDNAN_clean_linker_2, # of connection points: 2
#     Edge 15, Type (0, 0), BuildingBlock: XUDNAN_clean_linker_2, # of connection points: 2
#     Edge 16, Type (0, 0), BuildingBlock: XUDNAN_clean_linker_2, # of connection points: 2
#     Edge 17, Type (0, 0), BuildingBlock: XUDNAN_clean_linker_2, # of connection points: 2
#     Edge 18, Type (0, 0), BuildingBlock: XUDNAN_clean_linker_2, # of connection points: 2
#     Edge 19, Type (0, 0), BuildingBlock: XUDNAN_clean_linker_2, # of connection points: 2
#     Edge 20, Type (0, 0), BuildingBlock: XUDNAN_clean_linker_2, # of connection points: 2
#     Edge 21, Type (0, 0), BuildingBlock: XUDNAN_clean_linker_2, # of connection points: 2
#     Edge 22, Type (0, 0), BuildingBlock: XUDNAN_clean_linker_2, # of connection points: 2
#     Edge 23, Type (0, 0), BuildingBlock: XUDNAN_clean_linker_2, # of connection points: 2
# Relax obj value: 0.209
# Max RMSD: 0.208
# Mean RMSD: 0.208
data_MOF--net-qtz-e--node1-BETDEL_clean_sbu_0--edge1-XUDNAN_clean_linker_2
_symmetry_space_group_name_H-M    P1
_symmetry_Int_Tables_number       1
_symmetry_cell_setting            triclinic
loop_
_symmetry_equiv_pos_as_xyz
'x, y, z'
_cell_length_a     25.285897
_cell_length_b     24.796415
_cell_length_c     38.779007
_cell_angle_alpha  89.913748
_cell_angle_beta   90.262246
_cell_angle_gamma 119.90581
loop_
_atom_site_label
_atom_site_type_symbol
_atom_site_fract_x
_atom_site_fract_y
_atom_site_fract_z
_atom_type_partial_charge
Dy0 Dy 0.18728 0.45787 0.05903 0.0
C1 C 0.1298 0.2261 0.99667 0.0
C2 C 0.21348 0.55881 0.09923 0.0
Dy3 Dy 0.13252 0.3223 0.03255 0.0
O4 O 0.17877 0.54271 0.07175 0.0
O5 O 0.23466 0.5213 0.10352 0.0
O6 O 0.27965 0.47329 0.04947 0.0
O7 O 0.20998 0.38412 0.06499 0.0
C8 C 0.26433 0.41556 0.05455 0.0
C9 C 0.05714 0.3682 0.03198 0.0
O10 O 0.11424 0.29952 0.0882 0.0
O11 O 0.12644 0.39666 0.10163 0.0
O12 O 0.08394 0.23561 0.99991 0.0
O13 O 0.17539 0.26687 1.01489 0.0
O14 O 0.03765 0.30884 0.03431 0.0
O15 O 0.11312 0.39735 1.02545 0.0
O16 O 0.2129 0.48228 1.00335 0.0
O17 O 0.18958 0.38153 0.98884 0.0
C18 C 0.11068 0.33863 0.11001 0.0
C19 C 0.2145 0.44158 0.98162 0.0
Dy20 Dy 0.70158 0.2094 0.40127 0.0
C21 C 0.90006 0.20621 0.32804 0.0
C22 C 0.61008 0.19459 0.44395 0.0
Dy23 Dy 0.80657 0.19386 0.36832 0.0
O24 O 0.66313 0.24434 0.44159 0.0
O25 O 0.6056 0.15352 0.42142 0.0
O26 O 0.74676 0.30988 0.39081 0.0
O27 O 0.80049 0.26624 0.39747 0.0
C28 C 0.8005 0.31553 0.38818 0.0
C29 C 0.69923 0.09138 0.37763 0.0
O30 O 0.82603 0.18291 0.42309 0.0
O31 O 0.73412 0.17039 0.44347 0.0
O32 O 0.84257 0.16832 0.32218 0.0
O33 O 0.90678 0.23602 0.35679 0.0
O34 O 0.74991 0.0901 0.37986 0.0
O35 O 0.70914 0.14385 0.36853 0.0
O36 O 0.68118 0.2157 0.34544 0.0
O37 O 0.77772 0.23753 0.32692 0.0
C38 C 0.785 0.16797 0.44779 0.0
C39 C 0.72468 0.23522 0.32157 0.0
Dy40 Dy 0.50089 0.69432 0.71681 0.0
C41 C 0.69588 0.90478 0.65006 0.0
C42 C 0.41618 0.60708 0.75956 0.0
Dy43 Dy 0.61984 0.80197 0.68785 0.0
O44 O 0.42333 0.66174 0.7537 0.0
O45 O 0.45367 0.59836 0.7405 0.0
O46 O 0.44922 0.7362 0.69571 0.0
O47 O 0.53979 0.79507 0.71389 0.0
C48 C 0.49425 0.79273 0.69848 0.0
C49 C 0.61705 0.69397 0.69891 0.0
O50 O 0.64163 0.82729 0.743 0.0
O51 O 0.56631 0.73061 0.76216 0.0
O52 O 0.70459 0.85808 0.65586 0.0
O53 O 0.64707 0.89592 0.66583 0.0
O54 O 0.66637 0.74712 0.7043 0.0
O55 O 0.57574 0.7023 0.68717 0.0
O56 O 0.47972 0.66889 0.66105 0.0
O57 O 0.55746 0.76486 0.64156 0.0
C58 C 0.61539 0.78578 0.76784 0.0
C59 C 0.50677 0.7108 0.63615 0.0
Dy60 Dy 0.77598 0.5485 0.06802 0.0
C61 C 0.76286 0.7408 0.99131 0.0
C62 C 0.76231 0.44594 0.10234 0.0
Dy63 Dy 0.78607 0.65936 1.0268 0.0
O64 O 0.7203 0.44927 0.08478 0.0
O65 O 0.81354 0.49825 0.0996 0.0
O66 O 0.71184 0.55867 0.10243 0.0
O67 O 0.71053 0.57568 0.04996 0.0
C68 C 0.68504 0.57251 0.0784 0.0
C69 C 0.87541 0.63231 1.01675 0.0
O70 O 0.81517 0.70249 0.07972 0.0
O71 O 0.83204 0.62621 0.10413 0.0
O72 O 0.81693 0.74813 0.99674 0.0
O73 O 0.7225 0.6912 1.00721 0.0
O74 O 0.85613 0.65487 0.99268 0.0
O75 O 0.84931 0.63015 0.04449 0.0
O76 O 0.7579 0.50984 1.01364 0.0
O77 O 0.73638 0.58266 0.98945 0.0
C78 C 0.83497 0.68113 0.10531 0.0
C79 C 0.73795 0.53034 0.98778 0.0
Dy80 Dy 0.23988 0.78482 0.38899 0.0
C81 C 0.0745 0.83778 0.31313 0.0
C82 C 0.30557 0.7517 0.43107 0.0
Dy83 Dy 0.16144 0.83617 0.35426 0.0
O84 O 0.24828 0.71725 0.42335 0.0
O85 O 0.32819 0.80533 0.41543 0.0
O86 O 0.18519 0.69507 0.36265 0.0
O87 O 0.1436 0.74796 0.37673 0.0
C88 C 0.13737 0.70124 0.35997 0.0
C89 C 0.27193 0.919 0.37687 0.0
O90 O 0.13293 0.83596 0.40824 0.0
O91 O 0.2096 0.82289 0.43354 0.0
O92 O 0.13003 0.88394 0.31656 0.0
O93 O 0.06641 0.79216 0.33304 0.0
O94 O 0.2283 0.9325 0.37496 0.0
O95 O 0.25613 0.86774 0.36301 0.0
O96 O 0.27229 0.79068 0.33417 0.0
O97 O 0.19713 0.80727 0.3092 0.0
C98 C 0.16489 0.83652 0.43554 0.0
C99 C 0.24212 0.79445 0.30675 0.0
Dy100 Dy 0.41266 0.20972 0.7447 0.0
C101 C 0.20963 0.05145 0.65469 0.0
C102 C 0.5011 0.2913 0.78847 0.0
Dy103 Dy 0.29144 0.13476 0.7013 0.0
O104 O 0.49066 0.30551 0.75778 0.0
O105 O 0.46397 0.23297 0.79475 0.0
O106 O 0.43169 0.13243 0.7452 0.0
O107 O 0.33978 0.11316 0.74121 0.0
C108 C 0.37505 0.09068 0.73954 0.0
C109 C 0.3415 0.25848 0.70551 0.0
O110 O 0.24857 0.12242 0.75264 0.0
O111 O 0.33634 0.20231 0.77847 0.0
O112 O 0.22758 0.11055 0.65559 0.0
O113 O 0.23344 0.03768 0.68053 0.0
O114 O 0.28262 0.22191 0.7035 0.0
O115 O 0.36817 0.22787 0.70295 0.0
O116 O 0.45486 0.21171 0.69313 0.0
O117 O 0.36373 0.13718 0.66751 0.0
C118 C 0.27698 0.16038 0.77889 0.0
C119 C 0.42388 0.17234 0.66767 0.0
H120 H 0.27277 0.70635 0.28788 0.0
H121 H 0.23163 0.84384 0.24642 0.0
H122 H 0.22569 0.80273 0.18783 0.0
H123 H 0.36333 0.70285 0.21268 0.0
H124 H 0.33218 0.61996 0.21624 0.0
H125 H 0.34123 0.66561 0.25424 0.0
H126 H 0.2266 0.59442 0.268 0.0
H127 H 0.21684 0.54922 0.22979 0.0
H128 H 0.17017 0.58444 0.23622 0.0
H129 H 0.2091 0.73709 0.13489 0.0
H130 H 0.1948 0.65835 0.09078 0.0
H131 H 0.2505 0.56632 0.16579 0.0
C132 C 0.26512 0.72938 0.26628 0.0
C133 C 0.25354 0.77889 0.27168 0.0
C134 C 0.24119 0.80621 0.24285 0.0
C135 C 0.23751 0.78306 0.20944 0.0
C136 C 0.24652 0.73253 0.20506 0.0
C137 C 0.26109 0.70661 0.23258 0.0
C138 C 0.26451 0.64999 0.2211 0.0
C139 C 0.32917 0.66024 0.22637 0.0
C140 C 0.21669 0.59106 0.23989 0.0
C141 C 0.24909 0.64796 0.18307 0.0
C142 C 0.23841 0.69568 0.17431 0.0
C143 C 0.21874 0.70034 0.14124 0.0
C144 C 0.21052 0.65544 0.11638 0.0
C145 C 0.22267 0.60716 0.12469 0.0
C146 C 0.24228 0.60369 0.15846 0.0
H147 H 0.5209 0.26243 0.63 0.0
H148 H 0.3924 0.06429 0.63557 0.0
H149 H 0.42412 0.04935 0.5784 0.0
H150 H 0.4978 0.28069 0.54274 0.0
H151 H 0.57629 0.33487 0.5325 0.0
H152 H 0.54907 0.33082 0.57579 0.0
H153 H 0.63294 0.3097 0.5997 0.0
H154 H 0.66146 0.31543 0.55656 0.0
H155 H 0.64063 0.24679 0.58195 0.0
H156 H 0.46038 0.05602 0.51851 0.0
H157 H 0.51342 0.08279 0.4624 0.0
H158 H 0.61981 0.27561 0.49454 0.0
C159 C 0.50112 0.21581 0.61958 0.0
C160 C 0.45444 0.16449 0.63732 0.0
C161 C 0.42838 0.10426 0.62252 0.0
C162 C 0.44576 0.09522 0.5899 0.0
C163 C 0.48953 0.14687 0.57227 0.0
C164 C 0.51804 0.20582 0.58672 0.0
C165 C 0.56291 0.25322 0.56153 0.0
C166 C 0.54545 0.30282 0.55263 0.0
C167 C 0.62837 0.28303 0.57578 0.0
C168 C 0.55407 0.21172 0.53074 0.0
C169 C 0.51123 0.1506 0.53749 0.0
C170 C 0.49453 0.10367 0.51296 0.0
C171 C 0.52433 0.11928 0.48105 0.0
C172 C 0.57035 0.18106 0.47417 0.0
C173 C 0.58441 0.22799 0.49908 0.0
H174 H 0.23788 0.54133 0.93854 0.0
H175 H 0.27107 0.3865 0.95115 0.0
H176 H 0.32297 0.41041 0.8953 0.0
H177 H 0.20641 0.52206 0.84802 0.0
H178 H 0.24584 0.60396 0.83807 0.0
H179 H 0.21319 0.57764 0.88017 0.0
H180 H 0.31838 0.64931 0.90872 0.0
H181 H 0.35103 0.6765 0.8667 0.0
H182 H 0.3837 0.64366 0.89545 0.0
H183 H 0.36592 0.44507 0.83698 0.0
H184 H 0.40951 0.49959 0.78192 0.0
H185 H 0.3493 0.63124 0.80563 0.0
C186 C 0.2564 0.51283 0.92955 0.0
C187 C 0.24946 0.46152 0.94904 0.0
C188 C 0.27456 0.42534 0.93645 0.0
C189 C 0.30411 0.43828 0.90468 0.0
C190 C 0.30814 0.48734 0.88544 0.0
C191 C 0.28591 0.52476 0.89743 0.0
C192 C 0.29741 0.57505 0.87134 0.0
C193 C 0.23711 0.5693 0.85865 0.0
C194 C 0.34018 0.63997 0.88646 0.0
C195 C 0.3285 0.5591 0.8429 0.0
C196 C 0.33416 0.50827 0.85163 0.0
C197 C 0.36189 0.48506 0.82979 0.0
C198 C 0.38607 0.51582 0.7985 0.0
C199 C 0.38223 0.56894 0.78946 0.0
C200 C 0.3522 0.59015 0.81173 0.0
H201 H 0.81377 0.32356 0.28172 0.0
H202 H 0.61828 0.19748 0.28496 0.0
H203 H 0.6088 0.23071 0.22591 0.0
H204 H 0.80689 0.44715 0.23863 0.0
H205 H 0.87538 0.47046 0.21418 0.0
H206 H 0.86602 0.43404 0.25561 0.0
H207 H 0.88447 0.35003 0.22762 0.0
H208 H 0.89287 0.38554 0.18592 0.0
H209 H 0.83711 0.30465 0.19204 0.0
H210 H 0.62177 0.27702 0.16634 0.0
H211 H 0.65234 0.34365 0.11461 0.0
H212 H 0.83928 0.44289 0.15174 0.0
C213 C 0.76888 0.30267 0.26998 0.0
C214 C 0.71666 0.25742 0.28766 0.0
C215 C 0.6587 0.23217 0.27178 0.0
C216 C 0.6531 0.25039 0.23821 0.0
C217 C 0.70584 0.2943 0.22124 0.0
C218 C 0.76247 0.3209 0.23688 0.0
C219 C 0.8116 0.36989 0.21414 0.0
C220 C 0.84171 0.43417 0.23168 0.0
C221 C 0.85932 0.35139 0.20436 0.0
C222 C 0.77371 0.36725 0.18316 0.0
C223 C 0.71304 0.32251 0.18753 0.0
C224 C 0.66906 0.31213 0.16268 0.0
C225 C 0.687 0.35001 0.13328 0.0
C226 C 0.74821 0.39827 0.12913 0.0
C227 C 0.79236 0.40585 0.154 0.0
H228 H 0.52762 0.79981 0.58822 0.0
H229 H 0.41656 0.60162 0.60772 0.0
H230 H 0.36053 0.58981 0.55315 0.0
H231 H 0.4093 0.82047 0.55832 0.0
H232 H 0.45365 0.87806 0.52629 0.0
H233 H 0.49046 0.86973 0.56407 0.0
H234 H 0.5644 0.85275 0.52573 0.0
H235 H 0.52811 0.8616 0.48774 0.0
H236 H 0.53409 0.79262 0.49329 0.0
H237 H 0.31085 0.60123 0.49998 0.0
H238 H 0.26843 0.63452 0.45257 0.0
H239 H 0.41111 0.82601 0.46775 0.0
C240 C 0.49265 0.75351 0.58064 0.0
C241 C 0.47696 0.70132 0.60202 0.0
C242 C 0.4296 0.64204 0.59162 0.0
C243 C 0.39773 0.63496 0.56064 0.0
C244 C 0.41375 0.68762 0.54051 0.0
C245 C 0.46012 0.74579 0.55008 0.0
C246 C 0.46474 0.79581 0.52561 0.0
C247 C 0.45385 0.84381 0.54472 0.0
C248 C 0.52651 0.82754 0.50698 0.0
C249 C 0.41291 0.75676 0.50095 0.0
C250 C 0.38457 0.69443 0.5099 0.0
C251 C 0.33316 0.64967 0.49246 0.0
C252 C 0.30939 0.66909 0.46559 0.0
C253 C 0.33691 0.73268 0.45636 0.0
C254 C 0.39001 0.77695 0.47386 0.0
H255 H 0.65074 0.40855 0.97482 0.0
H256 H 0.78117 0.58124 0.92583 0.0
H257 H 0.73825 0.53694 0.86873 0.0
H258 H 0.64416 0.30179 0.90494 0.0
H259 H 0.56317 0.25098 0.91 0.0
H260 H 0.60942 0.29339 0.94658 0.0
H261 H 0.53932 0.34033 0.95686 0.0
H262 H 0.49346 0.29893 0.92003 0.0
H263 H 0.52748 0.38228 0.92252 0.0
H264 H 0.6735 0.47972 0.81801 0.0
H265 H 0.59614 0.40833 0.77601 0.0
H266 H 0.50835 0.27175 0.85708 0.0
C267 C 0.67159 0.43583 0.95189 0.0
C268 C 0.71995 0.49773 0.95444 0.0
C269 C 0.74464 0.53333 0.92414 0.0
C270 C 0.72044 0.50869 0.89166 0.0
C271 C 0.67132 0.44832 0.88989 0.0
C272 C 0.6475 0.41194 0.91908 0.0
C273 C 0.59185 0.35012 0.91006 0.0
C274 C 0.60283 0.29585 0.91838 0.0
C275 C 0.53467 0.3425 0.92846 0.0
C276 C 0.5881 0.35781 0.87145 0.0
C277 C 0.63418 0.41494 0.86037 0.0
C278 C 0.63787 0.43429 0.8262 0.0
C279 C 0.59374 0.3937 0.80257 0.0
C280 C 0.54709 0.33444 0.81326 0.0
C281 C 0.54431 0.31646 0.84812 0.0
H282 H 0.34847 0.42941 1.00888 0.0
H283 H 0.28897 0.3749 0.11392 0.0
H284 H 0.39358 0.40196 0.13073 0.0
H285 H 0.47994 0.38774 1.01128 0.0
H286 H 0.52539 0.45409 0.98425 0.0
H287 H 0.44375 0.4101 0.97855 0.0
H288 H 0.44071 0.5122 0.98544 0.0
H289 H 0.52136 0.55623 0.99336 0.0
H290 H 0.46916 0.55684 1.02465 0.0
H291 H 0.50469 0.46524 0.13924 0.0
H292 H 0.61615 0.53391 0.13651 0.0
H293 H 0.60434 0.54704 1.02535 0.0
C294 C 0.35697 0.41884 0.03475 0.0
C295 C 0.3116 0.39958 0.06014 0.0
C296 C 0.32342 0.3882 0.09414 0.0
C297 C 0.3828 0.4042 0.10391 0.0
C298 C 0.42844 0.42969 0.07899 0.0
C299 C 0.41584 0.43425 0.04467 0.0
C300 C 0.47376 0.4707 1.02397 0.0
C301 C 0.48116 0.42812 0.99799 0.0
C302 C 0.47631 0.52731 1.00583 0.0
C303 C 0.52047 0.49066 0.05257 0.0
C304 C 0.49349 0.46601 0.08397 0.0
C305 C 0.52667 0.4828 0.11463 0.0
C306 C 0.5897 0.52272 0.11288 0.0
C307 C 0.61869 0.54507 0.08066 0.0
C308 C 0.58335 0.53027 0.05029 0.0
H309 H 0.02002 0.66962 0.37397 0.0
H310 H 0.13194 0.62486 0.30937 0.0
H311 H 0.04454 0.52124 0.29815 0.0
H312 H 0.95775 0.55164 0.41799 0.0
H313 H 0.87962 0.53421 0.42067 0.0
H314 H 0.93853 0.61199 0.41162 0.0
H315 H 0.8852 0.61425 0.35502 0.0
H316 H 0.82389 0.53687 0.36449 0.0
H317 H 0.86298 0.55288 0.32377 0.0
H318 H 0.96651 0.417 0.31442 0.0
H319 H 0.88882 0.32294 0.34429 0.0
H320 H 0.82223 0.43199 0.39565 0.0
C321 C 0.02443 0.63924 0.35562 0.0
C322 C 0.08199 0.65383 0.34303 0.0
C323 C 0.08773 0.61349 0.31958 0.0
C324 C 0.03826 0.55466 0.31287 0.0
C325 C -0.01667 0.53802 0.32911 0.0
C326 C -0.02507 0.58011 0.34861 0.0
C327 C 0.91507 0.54759 0.36783 0.0
C328 C 0.92337 0.56222 0.4068 0.0
C329 C 0.86904 0.56384 0.35181 0.0
C330 C 0.89681 0.48066 0.3606 0.0
C331 C 0.93557 0.47599 0.33737 0.0
C332 C 0.93414 0.41972 0.33145 0.0
C333 C 0.89113 0.36679 0.34919 0.0
C334 C 0.85047 0.37079 0.37235 0.0
C335 C 0.85286 0.42809 0.3777 0.0
H336 H 0.40305 0.02278 0.78052 0.0
H337 H 0.31976 0.02069 0.68266 0.0
H338 H 0.34049 0.94005 0.66128 0.0
H339 H 0.52397 0.02712 0.74792 0.0
H340 H 0.53456 0.97845 0.77849 0.0
H341 H 0.496 0.01946 0.79138 0.0
H342 H 0.39984 0.91725 0.80977 0.0
H343 H 0.4395 0.87598 0.79928 0.0
H344 H 0.36598 0.85247 0.78024 0.0
H345 H 0.39013 0.87816 0.64668 0.0
H346 H 0.44618 0.82015 0.64402 0.0
H347 H 0.50603 0.87149 0.74978 0.0
C348 C 0.3854 0.00192 0.75551 0.0
C349 C 0.3581 0.02622 0.73349 0.0
C350 C 0.33797 0.00058 0.70036 0.0
C351 C 0.35094 0.95562 0.68778 0.0
C352 C 0.38381 0.93734 0.70895 0.0
C353 C 0.39914 0.95815 0.74255 0.0
C354 C 0.44121 0.93805 0.75849 0.0
C355 C 0.50252 -0.00586 0.76971 0.0
C356 C 0.40974 0.89324 0.78872 0.0
C357 C 0.44934 0.90508 0.72814 0.0
C358 C 0.41555 0.90477 0.6999 0.0
C359 C 0.41619 0.87744 0.66872 0.0
C360 C 0.44897 0.84585 0.66721 0.0
C361 C 0.4811 0.84317 0.69647 0.0
C362 C 0.48324 0.87489 0.72684 0.0
H363 H 0.58703 0.60037 0.65551 0.0
H364 H 0.60824 0.64745 0.7639 0.0
H365 H 0.53706 0.537 0.77837 0.0
H366 H 0.43766 0.50946 0.65614 0.0
H367 H 0.43102 0.45141 0.62577 0.0
H368 H 0.49528 0.52896 0.62372 0.0
H369 H 0.57152 0.48837 0.63001 0.0
H370 H 0.50776 0.41011 0.62986 0.0
H371 H 0.56229 0.43603 0.66476 0.0
H372 H 0.44814 0.42497 0.77932 0.0
H373 H 0.36374 0.31814 0.76742 0.0
H374 H 0.40146 0.34717 0.65815 0.0
C375 C 0.57993 0.58649 0.68237 0.0
C376 C 0.60406 0.63159 0.70866 0.0
C377 C 0.59162 0.61294 0.74353 0.0
C378 C 0.55048 0.55048 0.75187 0.0
C379 C 0.5231 0.50787 0.72495 0.0
C380 C 0.539 0.52483 0.69092 0.0
C381 C 0.49924 0.47267 0.6664 0.0
C382 C 0.46374 0.49182 0.64157 0.0
C383 C 0.53747 0.45046 0.6466 0.0
C384 C 0.45695 0.42427 0.69172 0.0
C385 C 0.4712 0.44508 0.72539 0.0
C386 C 0.43686 0.40839 0.75303 0.0
C387 C 0.38845 0.34818 0.74605 0.0
C388 C 0.37535 0.32555 0.71181 0.0
C389 C 0.40948 0.36437 0.68443 0.0
H390 H 0.037 0.44229 0.07423 0.0
H391 H -0.00467 0.35755 0.9729 0.0
H392 H 0.94638 0.41937 0.95673 0.0
H393 H 0.89462 0.44797 0.08376 0.0
H394 H 0.93339 0.52098 0.10665 0.0
H395 H 0.96096 0.4668 0.10969 0.0
H396 H 0.0672 0.55428 0.08966 0.0
H397 H 0.03901 0.60777 0.08514 0.0
H398 H 0.07402 0.59236 0.04895 0.0
H399 H 0.91111 0.49766 0.95031 0.0
H400 H 0.87672 0.57476 0.95694 0.0
H401 H 0.93654 0.60319 0.06368 0.0
C402 C 0.01594 0.43574 0.04903 0.0
C403 C 0.01844 0.39493 1.02486 0.0
C404 C -0.00778 0.388 0.99179 0.0
C405 C 0.96502 0.42321 0.98237 0.0
C406 C 0.96433 0.46438 1.00656 0.0
C407 C -0.01215 0.46972 0.03947 0.0
C408 C -0.01864 0.51719 0.06064 0.0
C409 C 0.94009 0.48637 0.09202 0.0
C410 C 0.04413 0.57107 0.07172 0.0
C411 C 0.95112 0.53825 0.03435 0.0
C412 C 0.94243 0.50794 1.00318 0.0
C413 C 0.91705 0.52126 0.97468 0.0
C414 C 0.89827 0.56543 0.97854 0.0
C415 C 0.90424 0.59455 1.01076 0.0
C416 C 0.93166 0.58138 0.03878 0.0
H417 H 0.36412 0.98056 0.33399 0.0
H418 H 0.31963 0.93743 0.44173 0.0
H419 H 0.42658 0.96473 0.4541 0.0
H420 H 0.45081 0.90997 0.3277 0.0
H421 H 0.50595 0.96511 0.29799 0.0
H422 H 0.42948 0.95269 0.29856 0.0
H423 H 0.46923 0.0702 0.30995 0.0
H424 H 0.54563 0.08321 0.30677 0.0
H425 H 0.52297 0.10875 0.34455 0.0
H426 H 0.53961 -0.007 0.45277 0.0
H427 H 0.64919 0.03525 0.43918 0.0
H428 H 0.61096 0.04522 0.33129 0.0
C429 C 0.37795 0.98044 0.36049 0.0
C430 C 0.33501 0.95952 0.38717 0.0
C431 C 0.3531 0.95606 0.42129 0.0
C432 C 0.41327 0.97015 0.42833 0.0
C433 C 0.45378 -0.01326 0.40078 0.0
C434 C 0.43691 -0.00699 0.36768 0.0
C435 C 0.48677 0.00782 0.34201 0.0
C436 C 0.46703 0.95578 0.31499 0.0
C437 C 0.50739 0.07127 0.32484 0.0
C438 C 0.53503 0.00987 0.36575 0.0
C439 C 0.51557 -0.00265 0.39959 0.0
C440 C 0.55497 0.002 0.42629 0.0
C441 C 0.61678 0.02471 0.41834 0.0
C442 C 0.63736 0.04139 0.38407 0.0
C443 C 0.59543 0.03039 0.35744 0.0
H444 H 0.32261 0.21252 0.84201 0.0
H445 H 0.15245 0.09644 0.7875 0.0
H446 H 0.09514 0.0889 0.84051 0.0
H447 H 0.27559 0.13377 0.92541 0.0
H448 H 0.31647 0.20547 0.94928 0.0
H449 H 0.34392 0.19796 0.90778 0.0
H450 H 0.3421 0.29581 0.8861 0.0
H451 H 0.31481 0.30408 0.92739 0.0
H452 H 0.2722 0.29832 0.8888 0.0
H453 H 0.05653 0.103 0.8981 0.0
H454 H 0.04067 0.13971 0.95444 0.0
H455 H 0.23622 0.24108 0.97153 0.0
C456 C 0.27329 0.18507 0.84116 0.0
C457 C 0.24205 0.15515 0.81051 0.0
C458 C 0.17746 0.11971 0.81067 0.0
C459 C 0.1445 0.11492 0.84071 0.0
C460 C 0.17684 0.14503 0.8705 0.0
C461 C 0.23985 0.17919 0.87092 0.0
C462 C 0.26386 0.21003 0.90553 0.0
C463 C 0.30222 0.18529 0.92303 0.0
C464 C 0.30041 0.28128 0.90174 0.0
C465 C 0.20449 0.18904 0.92439 0.0
C466 C 0.15469 0.15134 0.90387 0.0
C467 C 0.09514 0.13138 0.91466 0.0
C468 C 0.08648 0.15217 0.94672 0.0
C469 C 0.13709 0.19214 0.96756 0.0
C470 C 0.19655 0.20901 0.95663 0.0
H471 H 0.88752 0.15523 0.26423 0.0
H472 H 0.01861 0.29941 0.33201 0.0
H473 H 0.09197 0.34221 0.28394 0.0
H474 H 0.00046 0.13654 0.21035 0.0
H475 H 0.95646 0.12544 0.17162 0.0
H476 H 0.91855 0.10025 0.21261 0.0
H477 H 0.86679 0.16657 0.20233 0.0
H478 H 0.90506 0.1927 0.16163 0.0
H479 H 0.91351 0.24869 0.19394 0.0
H480 H 0.14253 0.37975 0.22721 0.0
H481 H 0.17189 0.4044 0.16611 0.0
H482 H 0.01066 0.23362 0.13481 0.0
C483 C 0.93252 0.19444 0.26922 0.0
C484 C 0.94785 0.22376 0.30184 0.0
C485 C 0.00643 0.27588 0.3073 0.0
C486 C 0.04826 0.30055 0.28013 0.0
C487 C 0.03089 0.27201 0.24788 0.0
C488 C -0.02519 0.21947 0.24241 0.0
C489 C 0.9653 0.20102 0.20465 0.0
C490 C 0.95989 0.13701 0.19951 0.0
C491 C 0.90937 0.20236 0.18978 0.0
C492 C 0.02406 0.25244 0.18955 0.0
C493 C 0.06119 0.29286 0.21501 0.0
C494 C 0.11475 0.34758 0.20718 0.0
C495 C 0.13083 0.36135 0.17248 0.0
C496 C 0.09391 0.32028 0.1461 0.0
C497 C 0.04033 0.26473 0.15471 0.0
H498 H 0.6577 0.97952 0.62156 0.0
H499 H 0.80473 0.93753 0.61848 0.0
H500 H 0.85125 0.01097 0.56968 0.0
H501 H 0.63965 0.97903 0.53245 0.0
H502 H 0.62035 0.03986 0.53198 0.0
H503 H 0.60431 -0.00845 0.5695 0.0
H504 H 0.66701 0.08987 0.60731 0.0
H505 H 0.68309 0.13834 0.56973 0.0
H506 H 0.74489 0.14447 0.59598 0.0
H507 H 0.87586 0.08184 0.5175 0.0
H508 H 0.87431 0.13998 0.46593 0.0
H509 H 0.70899 0.13205 0.50343 0.0
C510 C 0.70066 -0.01285 0.61129 0.0
C511 C 0.72835 0.95384 0.62407 0.0
C512 C 0.78337 0.96337 0.60925 0.0
C513 C 0.81003 0.00495 0.58158 0.0
C514 C 0.78077 0.03616 0.56903 0.0
C515 C 0.72717 0.02756 0.58345 0.0
C516 C 0.70114 0.06128 0.56322 0.0
C517 C 0.63765 0.01519 0.54842 0.0
C518 C 0.69894 0.11149 0.58539 0.0
C519 C 0.7482 0.08994 0.53499 0.0
C520 C 0.7941 0.07552 0.53881 0.0
C521 C 0.84055 0.09405 0.51451 0.0
C522 C 0.83935 0.12717 0.48531 0.0
C523 C 0.79177 0.141 0.48057 0.0
C524 C 0.74648 0.12297 0.50624 0.0
H525 H 0.56813 0.71821 0.82708 0.0
H526 H 0.72783 0.88185 0.78734 0.0
H527 H 0.77901 0.89675 0.84379 0.0
H528 H 0.57861 0.77698 0.91637 0.0
H529 H 0.55347 0.70128 0.93481 0.0
H530 H 0.52696 0.70788 0.89263 0.0
H531 H 0.56634 0.63795 0.86715 0.0
H532 H 0.59268 0.63096 0.90915 0.0
H533 H 0.64509 0.65925 0.87347 0.0
H534 H 0.81798 0.88488 0.90192 0.0
H535 H 0.83968 0.84832 0.95686 0.0
H536 H 0.6528 0.6964 0.95955 0.0
C537 C 0.61343 0.75795 0.83036 0.0
C538 C 0.64385 0.79891 0.80268 0.0
C539 C 0.70332 0.85001 0.80814 0.0
C540 C 0.7328 0.85892 0.84018 0.0
C541 C 0.70192 0.81693 0.86671 0.0
C542 C 0.64322 0.76784 0.86222 0.0
C543 C 0.62137 0.72694 0.89398 0.0
C544 C 0.56688 0.72839 0.91042 0.0
C545 C 0.60548 0.65985 0.88541 0.0
C546 C 0.67771 0.75938 0.91664 0.0
C547 C 0.72363 0.81145 0.90059 0.0
C548 C 0.78189 0.84513 0.9151 0.0
C549 C 0.79384 0.8242 0.94633 0.0
C550 C 0.74765 0.77042 0.96278 0.0
C551 C 0.68853 0.73881 0.94812 0.0
H552 H -0.0256 0.73163 0.29247 0.0
H553 H 0.08207 0.92831 0.26923 0.0
H554 H 0.02085 0.9119 0.21612 0.0
H555 H -0.02598 0.68201 0.2107 0.0
H556 H 0.89806 0.6156 0.21179 0.0
H557 H 0.9407 0.64482 0.25114 0.0
H558 H 0.85358 0.65764 0.27725 0.0
H559 H 0.81014 0.62791 0.23798 0.0
H560 H 0.82626 0.70253 0.2545 0.0
H561 H 0.95567 0.87085 0.16185 0.0
H562 H 0.89713 0.80891 0.11096 0.0
H563 H 0.83779 0.63934 0.16953 0.0
C564 C -0.01636 0.77167 0.27688 0.0
C565 C 0.03216 0.83142 0.28512 0.0
C566 C 0.04437 0.88233 0.26352 0.0
C567 C 0.00983 0.87338 0.23336 0.0
C568 C 0.96353 0.81324 0.22526 0.0
C569 C 0.95045 0.7633 0.24655 0.0
C570 C 0.90435 0.70229 0.23023 0.0
C571 C 0.93091 0.65868 0.22569 0.0
C572 C 0.84506 0.67076 0.25124 0.0
C573 C 0.89492 0.72535 0.19592 0.0
C574 C 0.92822 0.78949 0.19369 0.0
C575 C 0.92883 0.82067 0.16352 0.0
C576 C 0.89545 0.78524 0.13477 0.0
C577 C 0.8632 0.71948 0.13635 0.0
C578 C 0.86213 0.68961 0.16756 0.0
H579 H 0.24334 0.9717 0.62805 0.0
H580 H 0.12338 0.04681 0.61004 0.0
H581 H 0.09084 -0.00999 0.55439 0.0
H582 H 0.2968 -0.00664 0.54315 0.0
H583 H 0.3041 0.92472 0.54147 0.0
H584 H 0.31034 0.96234 0.58214 0.0
H585 H 0.22423 0.85957 0.60734 0.0
H586 H 0.21763 0.82104 0.56685 0.0
H587 H 0.15158 0.81925 0.58546 0.0
H588 H 0.07568 0.9296 0.49963 0.0
H589 H 0.08508 0.87877 0.44749 0.0
H590 H 0.22204 0.84975 0.49874 0.0
C591 C 0.20871 0.97446 0.61286 0.0
C592 C 0.18424 0.01199 0.62369 0.0
C593 C 0.14146 0.01717 0.60244 0.0
C594 C 0.12284 -0.0149 0.57086 0.0
C595 C 0.14849 0.94914 0.56062 0.0
C596 C 0.19101 0.9442 0.58084 0.0
C597 C 0.21685 0.90861 0.56219 0.0
C598 C 0.28611 0.94972 0.55691 0.0
C599 C 0.20164 0.84854 0.58162 0.0
C600 C 0.18242 0.89449 0.5282 0.0
C601 C 0.14252 0.91741 0.52813 0.0
C602 C 0.10661 0.91131 0.49946 0.0
C603 C 0.1123 0.88212 0.46988 0.0
C604 C 0.15427 0.85989 0.46876 0.0
C605 C 0.18916 0.86563 0.49866 0.0
loop_
_geom_bond_atom_site_label_1
_geom_bond_atom_site_label_2
_geom_bond_distance
_geom_bond_site_symmetry_2
_ccdc_geom_bond_type
Dy0 O4 2.398 . S
Dy0 O5 2.491 . S
Dy0 O6 2.403 . S
Dy0 O7 2.664 . S
Dy0 O11 2.326 . S
Dy0 O15 2.310 . S
Dy0 O16 2.351 1_554 S
C1 O12 1.185 . S
C1 O13 1.355 . S
C2 O4 1.185 . S
C2 O5 1.355 . S
Dy3 O7 2.310 1_556 S
Dy3 O10 2.351 1_556 S
Dy3 O12 2.398 . S
Dy3 O13 2.491 . S
Dy3 O14 2.403 . S
Dy3 O15 2.664 1_556 S
Dy3 O17 2.326 . S
O4 Dy0 2.398 . S
O4 C2 1.185 . S
O5 Dy0 2.491 . S
O5 C2 1.355 . S
O6 Dy0 2.403 . S
O6 C8 1.254 . S
O7 Dy0 2.664 . S
O7 Dy3 2.310 1_554 S
O7 C8 1.268 . S
C8 O6 1.254 . S
C8 O7 1.268 . S
C9 O14 1.254 1_554 S
C9 O15 1.268 . S
O10 Dy3 2.351 1_554 S
O10 C18 1.249 . S
O11 Dy0 2.326 . S
O11 C18 1.267 . S
O12 C1 1.185 . S
O12 Dy3 2.398 . S
O13 C1 1.355 . S
O13 Dy3 2.491 . S
O14 Dy3 2.403 . S
O14 C9 1.254 1_556 S
O15 Dy0 2.310 . S
O15 Dy3 2.664 1_554 S
O15 C9 1.268 . S
O16 Dy0 2.351 1_556 S
O16 C19 1.249 . S
O17 Dy3 2.326 . S
O17 C19 1.267 . S
C18 O10 1.249 . S
C18 O11 1.267 . S
C19 O16 1.249 . S
C19 O17 1.267 . S
Dy20 O24 2.398 . S
Dy20 O25 2.491 . S
Dy20 O26 2.403 . S
Dy20 O27 2.664 . S
Dy20 O31 2.326 . S
Dy20 O35 2.310 . S
Dy20 O36 2.351 . S
C21 O32 1.185 . S
C21 O33 1.355 . S
C22 O24 1.185 . S
C22 O25 1.355 . S
Dy23 O27 2.310 . S
Dy23 O30 2.351 . S
Dy23 O32 2.398 . S
Dy23 O33 2.491 . S
Dy23 O34 2.403 . S
Dy23 O35 2.664 . S
Dy23 O37 2.326 . S
O24 Dy20 2.398 . S
O24 C22 1.185 . S
O25 Dy20 2.491 . S
O25 C22 1.355 . S
O26 Dy20 2.403 . S
O26 C28 1.254 . S
O27 Dy20 2.664 . S
O27 Dy23 2.310 . S
O27 C28 1.268 . S
C28 O26 1.254 . S
C28 O27 1.268 . S
C29 O34 1.254 . S
C29 O35 1.268 . S
O30 Dy23 2.351 . S
O30 C38 1.249 . S
O31 Dy20 2.326 . S
O31 C38 1.267 . S
O32 C21 1.185 . S
O32 Dy23 2.398 . S
O33 C21 1.355 . S
O33 Dy23 2.491 . S
O34 Dy23 2.403 . S
O34 C29 1.254 . S
O35 Dy20 2.310 . S
O35 Dy23 2.664 . S
O35 C29 1.268 . S
O36 Dy20 2.351 . S
O36 C39 1.249 . S
O37 Dy23 2.326 . S
O37 C39 1.267 . S
C38 O30 1.249 . S
C38 O31 1.267 . S
C39 O36 1.249 . S
C39 O37 1.267 . S
Dy40 O44 2.398 . S
Dy40 O45 2.491 . S
Dy40 O46 2.403 . S
Dy40 O47 2.664 . S
Dy40 O51 2.326 . S
Dy40 O55 2.310 . S
Dy40 O56 2.351 . S
C41 O52 1.185 . S
C41 O53 1.355 . S
C42 O44 1.185 . S
C42 O45 1.355 . S
Dy43 O47 2.310 . S
Dy43 O50 2.351 . S
Dy43 O52 2.398 . S
Dy43 O53 2.491 . S
Dy43 O54 2.403 . S
Dy43 O55 2.664 . S
Dy43 O57 2.326 . S
O44 Dy40 2.398 . S
O44 C42 1.185 . S
O45 Dy40 2.491 . S
O45 C42 1.355 . S
O46 Dy40 2.403 . S
O46 C48 1.254 . S
O47 Dy40 2.664 . S
O47 Dy43 2.310 . S
O47 C48 1.268 . S
C48 O46 1.254 . S
C48 O47 1.268 . S
C49 O54 1.254 . S
C49 O55 1.268 . S
O50 Dy43 2.351 . S
O50 C58 1.249 . S
O51 Dy40 2.326 . S
O51 C58 1.267 . S
O52 C41 1.185 . S
O52 Dy43 2.398 . S
O53 C41 1.355 . S
O53 Dy43 2.491 . S
O54 Dy43 2.403 . S
O54 C49 1.254 . S
O55 Dy40 2.310 . S
O55 Dy43 2.664 . S
O55 C49 1.268 . S
O56 Dy40 2.351 . S
O56 C59 1.249 . S
O57 Dy43 2.326 . S
O57 C59 1.267 . S
C58 O50 1.249 . S
C58 O51 1.267 . S
C59 O56 1.249 . S
C59 O57 1.267 . S
Dy60 O64 2.398 . S
Dy60 O65 2.491 . S
Dy60 O66 2.403 . S
Dy60 O67 2.664 . S
Dy60 O71 2.326 . S
Dy60 O75 2.310 . S
Dy60 O76 2.351 1_554 S
C61 O72 1.185 . S
C61 O73 1.355 . S
C62 O64 1.185 . S
C62 O65 1.355 . S
Dy63 O67 2.310 1_556 S
Dy63 O70 2.351 1_556 S
Dy63 O72 2.398 . S
Dy63 O73 2.491 . S
Dy63 O74 2.403 . S
Dy63 O75 2.664 1_556 S
Dy63 O77 2.326 . S
O64 Dy60 2.398 . S
O64 C62 1.185 . S
O65 Dy60 2.491 . S
O65 C62 1.355 . S
O66 Dy60 2.403 . S
O66 C68 1.254 . S
O67 Dy60 2.664 . S
O67 Dy63 2.310 1_554 S
O67 C68 1.268 . S
C68 O66 1.254 . S
C68 O67 1.268 . S
C69 O74 1.254 1_554 S
C69 O75 1.268 . S
O70 Dy63 2.351 1_554 S
O70 C78 1.249 . S
O71 Dy60 2.326 . S
O71 C78 1.267 . S
O72 C61 1.185 . S
O72 Dy63 2.398 . S
O73 C61 1.355 . S
O73 Dy63 2.491 . S
O74 Dy63 2.403 . S
O74 C69 1.254 1_556 S
O75 Dy60 2.310 . S
O75 Dy63 2.664 1_554 S
O75 C69 1.268 . S
O76 Dy60 2.351 1_556 S
O76 C79 1.249 . S
O77 Dy63 2.326 . S
O77 C79 1.267 . S
C78 O70 1.249 . S
C78 O71 1.267 . S
C79 O76 1.249 . S
C79 O77 1.267 . S
Dy80 O84 2.398 . S
Dy80 O85 2.491 . S
Dy80 O86 2.403 . S
Dy80 O87 2.664 . S
Dy80 O91 2.326 . S
Dy80 O95 2.310 . S
Dy80 O96 2.351 . S
C81 O92 1.185 . S
C81 O93 1.355 . S
C82 O84 1.185 . S
C82 O85 1.355 . S
Dy83 O87 2.310 . S
Dy83 O90 2.351 . S
Dy83 O92 2.398 . S
Dy83 O93 2.491 . S
Dy83 O94 2.403 . S
Dy83 O95 2.664 . S
Dy83 O97 2.326 . S
O84 Dy80 2.398 . S
O84 C82 1.185 . S
O85 Dy80 2.491 . S
O85 C82 1.355 . S
O86 Dy80 2.403 . S
O86 C88 1.254 . S
O87 Dy80 2.664 . S
O87 Dy83 2.310 . S
O87 C88 1.268 . S
C88 O86 1.254 . S
C88 O87 1.268 . S
C89 O94 1.254 . S
C89 O95 1.268 . S
O90 Dy83 2.351 . S
O90 C98 1.249 . S
O91 Dy80 2.326 . S
O91 C98 1.267 . S
O92 C81 1.185 . S
O92 Dy83 2.398 . S
O93 C81 1.355 . S
O93 Dy83 2.491 . S
O94 Dy83 2.403 . S
O94 C89 1.254 . S
O95 Dy80 2.310 . S
O95 Dy83 2.664 . S
O95 C89 1.268 . S
O96 Dy80 2.351 . S
O96 C99 1.249 . S
O97 Dy83 2.326 . S
O97 C99 1.267 . S
C98 O90 1.249 . S
C98 O91 1.267 . S
C99 O96 1.249 . S
C99 O97 1.267 . S
Dy100 O104 2.398 . S
Dy100 O105 2.491 . S
Dy100 O106 2.403 . S
Dy100 O107 2.664 . S
Dy100 O111 2.326 . S
Dy100 O115 2.310 . S
Dy100 O116 2.351 . S
C101 O112 1.185 . S
C101 O113 1.355 . S
C102 O104 1.185 . S
C102 O105 1.355 . S
Dy103 O107 2.310 . S
Dy103 O110 2.351 . S
Dy103 O112 2.398 . S
Dy103 O113 2.491 . S
Dy103 O114 2.403 . S
Dy103 O115 2.664 . S
Dy103 O117 2.326 . S
O104 Dy100 2.398 . S
O104 C102 1.185 . S
O105 Dy100 2.491 . S
O105 C102 1.355 . S
O106 Dy100 2.403 . S
O106 C108 1.254 . S
O107 Dy100 2.664 . S
O107 Dy103 2.310 . S
O107 C108 1.268 . S
C108 O106 1.254 . S
C108 O107 1.268 . S
C109 O114 1.254 . S
C109 O115 1.268 . S
O110 Dy103 2.351 . S
O110 C118 1.249 . S
O111 Dy100 2.326 . S
O111 C118 1.267 . S
O112 C101 1.185 . S
O112 Dy103 2.398 . S
O113 C101 1.355 . S
O113 Dy103 2.491 . S
O114 Dy103 2.403 . S
O114 C109 1.254 . S
O115 Dy100 2.310 . S
O115 Dy103 2.664 . S
O115 C109 1.268 . S
O116 Dy100 2.351 . S
O116 C119 1.249 . S
O117 Dy103 2.326 . S
O117 C119 1.267 . S
C118 O110 1.249 . S
C118 O111 1.267 . S
C119 O116 1.249 . S
C119 O117 1.267 . S
H120 C132 0.930 . S
H121 C134 0.930 . S
H122 C135 0.930 . S
H123 C139 0.959 . S
H124 C139 0.959 . S
H125 C139 0.961 . S
H126 C140 0.960 . S
H127 C140 0.961 . S
H128 C140 0.959 . S
H129 C143 0.929 . S
H130 C144 0.931 . S
H131 C146 0.930 . S
C132 H120 0.930 . S
C132 C133 1.399 . S
C132 C137 1.399 . S
C133 C132 1.399 . S
C133 C134 1.376 . S
C134 H121 0.930 . S
C134 C133 1.376 . S
C134 C135 1.388 . S
C135 H122 0.930 . S
C135 C134 1.388 . S
C135 C136 1.390 . S
C136 C135 1.390 . S
C136 C137 1.394 . S
C136 C142 1.465 . S
C137 C132 1.399 . S
C137 C136 1.394 . S
C137 C138 1.516 . S
C138 C137 1.516 . S
C138 C139 1.502 . S
C138 C140 1.561 . S
C138 C141 1.526 . S
C139 H123 0.959 . S
C139 H124 0.959 . S
C139 H125 0.961 . S
C139 C138 1.502 . S
C140 H126 0.960 . S
C140 H127 0.961 . S
C140 H128 0.959 . S
C140 C138 1.561 . S
C141 C138 1.526 . S
C141 C142 1.396 . S
C141 C146 1.390 . S
C142 C136 1.465 . S
C142 C141 1.396 . S
C142 C143 1.399 . S
C143 H129 0.929 . S
C143 C142 1.399 . S
C143 C144 1.385 . S
C144 H130 0.931 . S
C144 C143 1.385 . S
C144 C145 1.389 . S
C145 C144 1.389 . S
C145 C146 1.387 . S
C146 H131 0.930 . S
C146 C141 1.390 . S
C146 C145 1.387 . S
H147 C159 0.930 . S
H148 C161 0.930 . S
H149 C162 0.930 . S
H150 C166 0.959 . S
H151 C166 0.959 . S
H152 C166 0.961 . S
H153 C167 0.960 . S
H154 C167 0.961 . S
H155 C167 0.959 . S
H156 C170 0.929 . S
H157 C171 0.931 . S
H158 C173 0.930 . S
C159 H147 0.930 . S
C159 C160 1.399 . S
C159 C164 1.399 . S
C160 C159 1.399 . S
C160 C161 1.376 . S
C161 H148 0.930 . S
C161 C160 1.376 . S
C161 C162 1.388 . S
C162 H149 0.930 . S
C162 C161 1.388 . S
C162 C163 1.390 . S
C163 C162 1.390 . S
C163 C164 1.394 . S
C163 C169 1.465 . S
C164 C159 1.399 . S
C164 C163 1.394 . S
C164 C165 1.516 . S
C165 C164 1.516 . S
C165 C166 1.502 . S
C165 C167 1.561 . S
C165 C168 1.526 . S
C166 H150 0.959 . S
C166 H151 0.959 . S
C166 H152 0.961 . S
C166 C165 1.502 . S
C167 H153 0.960 . S
C167 H154 0.961 . S
C167 H155 0.959 . S
C167 C165 1.561 . S
C168 C165 1.526 . S
C168 C169 1.396 . S
C168 C173 1.390 . S
C169 C163 1.465 . S
C169 C168 1.396 . S
C169 C170 1.399 . S
C170 H156 0.929 . S
C170 C169 1.399 . S
C170 C171 1.385 . S
C171 H157 0.931 . S
C171 C170 1.385 . S
C171 C172 1.389 . S
C172 C171 1.389 . S
C172 C173 1.387 . S
C173 H158 0.930 . S
C173 C168 1.390 . S
C173 C172 1.387 . S
H174 C186 0.930 . S
H175 C188 0.930 . S
H176 C189 0.930 . S
H177 C193 0.959 . S
H178 C193 0.959 . S
H179 C193 0.961 . S
H180 C194 0.960 . S
H181 C194 0.961 . S
H182 C194 0.959 . S
H183 C197 0.929 . S
H184 C198 0.931 . S
H185 C200 0.930 . S
C186 H174 0.930 . S
C186 C187 1.399 . S
C186 C191 1.399 . S
C187 C186 1.399 . S
C187 C188 1.376 . S
C188 H175 0.930 . S
C188 C187 1.376 . S
C188 C189 1.388 . S
C189 H176 0.930 . S
C189 C188 1.388 . S
C189 C190 1.390 . S
C190 C189 1.390 . S
C190 C191 1.394 . S
C190 C196 1.465 . S
C191 C186 1.399 . S
C191 C190 1.394 . S
C191 C192 1.516 . S
C192 C191 1.516 . S
C192 C193 1.502 . S
C192 C194 1.561 . S
C192 C195 1.526 . S
C193 H177 0.959 . S
C193 H178 0.959 . S
C193 H179 0.961 . S
C193 C192 1.502 . S
C194 H180 0.960 . S
C194 H181 0.961 . S
C194 H182 0.959 . S
C194 C192 1.561 . S
C195 C192 1.526 . S
C195 C196 1.396 . S
C195 C200 1.390 . S
C196 C190 1.465 . S
C196 C195 1.396 . S
C196 C197 1.399 . S
C197 H183 0.929 . S
C197 C196 1.399 . S
C197 C198 1.385 . S
C198 H184 0.931 . S
C198 C197 1.385 . S
C198 C199 1.389 . S
C199 C198 1.389 . S
C199 C200 1.387 . S
C200 H185 0.930 . S
C200 C195 1.390 . S
C200 C199 1.387 . S
H201 C213 0.930 . S
H202 C215 0.930 . S
H203 C216 0.930 . S
H204 C220 0.959 . S
H205 C220 0.959 . S
H206 C220 0.961 . S
H207 C221 0.960 . S
H208 C221 0.961 . S
H209 C221 0.959 . S
H210 C224 0.929 . S
H211 C225 0.931 . S
H212 C227 0.930 . S
C213 H201 0.930 . S
C213 C214 1.399 . S
C213 C218 1.399 . S
C214 C213 1.399 . S
C214 C215 1.376 . S
C215 H202 0.930 . S
C215 C214 1.376 . S
C215 C216 1.388 . S
C216 H203 0.930 . S
C216 C215 1.388 . S
C216 C217 1.390 . S
C217 C216 1.390 . S
C217 C218 1.394 . S
C217 C223 1.465 . S
C218 C213 1.399 . S
C218 C217 1.394 . S
C218 C219 1.516 . S
C219 C218 1.516 . S
C219 C220 1.502 . S
C219 C221 1.561 . S
C219 C222 1.526 . S
C220 H204 0.959 . S
C220 H205 0.959 . S
C220 H206 0.961 . S
C220 C219 1.502 . S
C221 H207 0.960 . S
C221 H208 0.961 . S
C221 H209 0.959 . S
C221 C219 1.561 . S
C222 C219 1.526 . S
C222 C223 1.396 . S
C222 C227 1.390 . S
C223 C217 1.465 . S
C223 C222 1.396 . S
C223 C224 1.399 . S
C224 H210 0.929 . S
C224 C223 1.399 . S
C224 C225 1.385 . S
C225 H211 0.931 . S
C225 C224 1.385 . S
C225 C226 1.389 . S
C226 C225 1.389 . S
C226 C227 1.387 . S
C227 H212 0.930 . S
C227 C222 1.390 . S
C227 C226 1.387 . S
H228 C240 0.930 . S
H229 C242 0.930 . S
H230 C243 0.930 . S
H231 C247 0.959 . S
H232 C247 0.959 . S
H233 C247 0.961 . S
H234 C248 0.960 . S
H235 C248 0.961 . S
H236 C248 0.959 . S
H237 C251 0.929 . S
H238 C252 0.931 . S
H239 C254 0.930 . S
C240 H228 0.930 . S
C240 C241 1.399 . S
C240 C245 1.399 . S
C241 C240 1.399 . S
C241 C242 1.376 . S
C242 H229 0.930 . S
C242 C241 1.376 . S
C242 C243 1.388 . S
C243 H230 0.930 . S
C243 C242 1.388 . S
C243 C244 1.390 . S
C244 C243 1.390 . S
C244 C245 1.394 . S
C244 C250 1.465 . S
C245 C240 1.399 . S
C245 C244 1.394 . S
C245 C246 1.516 . S
C246 C245 1.516 . S
C246 C247 1.502 . S
C246 C248 1.561 . S
C246 C249 1.526 . S
C247 H231 0.959 . S
C247 H232 0.959 . S
C247 H233 0.961 . S
C247 C246 1.502 . S
C248 H234 0.960 . S
C248 H235 0.961 . S
C248 H236 0.959 . S
C248 C246 1.561 . S
C249 C246 1.526 . S
C249 C250 1.396 . S
C249 C254 1.390 . S
C250 C244 1.465 . S
C250 C249 1.396 . S
C250 C251 1.399 . S
C251 H237 0.929 . S
C251 C250 1.399 . S
C251 C252 1.385 . S
C252 H238 0.931 . S
C252 C251 1.385 . S
C252 C253 1.389 . S
C253 C252 1.389 . S
C253 C254 1.387 . S
C254 H239 0.930 . S
C254 C249 1.390 . S
C254 C253 1.387 . S
H255 C267 0.930 . S
H256 C269 0.930 . S
H257 C270 0.930 . S
H258 C274 0.959 . S
H259 C274 0.959 . S
H260 C274 0.961 . S
H261 C275 0.960 . S
H262 C275 0.961 . S
H263 C275 0.959 . S
H264 C278 0.929 . S
H265 C279 0.931 . S
H266 C281 0.930 . S
C267 H255 0.930 . S
C267 C268 1.399 . S
C267 C272 1.399 . S
C268 C267 1.399 . S
C268 C269 1.376 . S
C269 H256 0.930 . S
C269 C268 1.376 . S
C269 C270 1.388 . S
C270 H257 0.930 . S
C270 C269 1.388 . S
C270 C271 1.390 . S
C271 C270 1.390 . S
C271 C272 1.394 . S
C271 C277 1.465 . S
C272 C267 1.399 . S
C272 C271 1.394 . S
C272 C273 1.516 . S
C273 C272 1.516 . S
C273 C274 1.502 . S
C273 C275 1.561 . S
C273 C276 1.526 . S
C274 H258 0.959 . S
C274 H259 0.959 . S
C274 H260 0.961 . S
C274 C273 1.502 . S
C275 H261 0.960 . S
C275 H262 0.961 . S
C275 H263 0.959 . S
C275 C273 1.561 . S
C276 C273 1.526 . S
C276 C277 1.396 . S
C276 C281 1.390 . S
C277 C271 1.465 . S
C277 C276 1.396 . S
C277 C278 1.399 . S
C278 H264 0.929 . S
C278 C277 1.399 . S
C278 C279 1.385 . S
C279 H265 0.931 . S
C279 C278 1.385 . S
C279 C280 1.389 . S
C280 C279 1.389 . S
C280 C281 1.387 . S
C281 H266 0.930 . S
C281 C276 1.390 . S
C281 C280 1.387 . S
H282 C294 0.930 . S
H283 C296 0.930 . S
H284 C297 0.930 . S
H285 C301 0.959 . S
H286 C301 0.959 1_556 S
H287 C301 0.961 . S
H288 C302 0.960 . S
H289 C302 0.961 . S
H290 C302 0.959 . S
H291 C305 0.929 . S
H292 C306 0.931 . S
H293 C308 0.930 . S
C294 H282 0.930 . S
C294 C295 1.399 . S
C294 C299 1.399 . S
C295 C294 1.399 . S
C295 C296 1.376 . S
C296 H283 0.930 . S
C296 C295 1.376 . S
C296 C297 1.388 . S
C297 H284 0.930 . S
C297 C296 1.388 . S
C297 C298 1.390 . S
C298 C297 1.390 . S
C298 C299 1.394 . S
C298 C304 1.465 . S
C299 C294 1.399 . S
C299 C298 1.394 . S
C299 C300 1.516 . S
C300 C299 1.516 . S
C300 C301 1.502 . S
C300 C302 1.561 1_554 S
C300 C303 1.526 . S
C301 H285 0.959 . S
C301 H286 0.959 1_554 S
C301 H287 0.961 . S
C301 C300 1.502 . S
C302 H288 0.960 . S
C302 H289 0.961 . S
C302 H290 0.959 . S
C302 C300 1.561 1_556 S
C303 C300 1.526 . S
C303 C304 1.396 . S
C303 C308 1.390 . S
C304 C298 1.465 . S
C304 C303 1.396 . S
C304 C305 1.399 . S
C305 H291 0.929 . S
C305 C304 1.399 . S
C305 C306 1.385 . S
C306 H292 0.931 . S
C306 C305 1.385 . S
C306 C307 1.389 . S
C307 C306 1.389 . S
C307 C308 1.387 . S
C308 H293 0.930 . S
C308 C303 1.390 . S
C308 C307 1.387 . S
H309 C321 0.930 . S
H310 C323 0.930 . S
H311 C324 0.930 . S
H312 C328 0.959 . S
H313 C328 0.959 . S
H314 C328 0.961 . S
H315 C329 0.960 1_455 S
H316 C329 0.961 . S
H317 C329 0.959 . S
H318 C332 0.929 . S
H319 C333 0.931 . S
H320 C335 0.930 . S
C321 H309 0.930 . S
C321 C322 1.399 . S
C321 C326 1.399 . S
C322 C321 1.399 . S
C322 C323 1.376 . S
C323 H310 0.930 . S
C323 C322 1.376 . S
C323 C324 1.388 1_455 S
C324 H311 0.930 . S
C324 C323 1.388 1_655 S
C324 C325 1.390 . S
C325 C324 1.390 . S
C325 C326 1.394 1_655 S
C325 C331 1.465 . S
C326 C321 1.399 . S
C326 C325 1.394 1_455 S
C326 C327 1.516 . S
C327 C326 1.516 . S
C327 C328 1.502 . S
C327 C329 1.561 1_455 S
C327 C330 1.526 1_455 S
C328 H312 0.959 . S
C328 H313 0.959 . S
C328 H314 0.961 . S
C328 C327 1.502 . S
C329 H315 0.960 1_655 S
C329 H316 0.961 . S
C329 H317 0.959 . S
C329 C327 1.561 1_655 S
C330 C327 1.526 1_655 S
C330 C331 1.396 . S
C330 C335 1.390 . S
C331 C325 1.465 . S
C331 C330 1.396 . S
C331 C332 1.399 . S
C332 H318 0.929 . S
C332 C331 1.399 . S
C332 C333 1.385 . S
C333 H319 0.931 . S
C333 C332 1.385 . S
C333 C334 1.389 . S
C334 C333 1.389 . S
C334 C335 1.387 . S
C335 H320 0.930 . S
C335 C330 1.390 . S
C335 C334 1.387 . S
H336 C348 0.930 . S
H337 C350 0.930 . S
H338 C351 0.931 . S
H339 C355 0.959 . S
H340 C355 0.959 . S
H341 C355 0.961 . S
H342 C356 0.960 . S
H343 C356 0.961 . S
H344 C356 0.959 . S
H345 C359 0.929 . S
H346 C360 0.931 . S
H347 C362 0.930 . S
C348 H336 0.930 . S
C348 C349 1.399 . S
C348 C353 1.399 . S
C349 C348 1.399 . S
C349 C350 1.376 . S
C350 H337 0.930 . S
C350 C349 1.376 . S
C350 C351 1.386 1_545 S
C351 H338 0.931 . S
C351 C350 1.386 1_565 S
C351 C352 1.391 . S
C352 C351 1.391 . S
C352 C353 1.394 1_565 S
C352 C358 1.465 . S
C353 C348 1.399 . S
C353 C352 1.394 1_545 S
C353 C354 1.516 . S
C354 C353 1.516 . S
C354 C355 1.502 . S
C354 C356 1.561 1_545 S
C354 C357 1.526 1_545 S
C355 H339 0.959 . S
C355 H340 0.959 . S
C355 H341 0.961 . S
C355 C354 1.502 . S
C356 H342 0.960 . S
C356 H343 0.961 . S
C356 H344 0.959 . S
C356 C354 1.561 1_565 S
C357 C354 1.526 1_565 S
C357 C358 1.396 . S
C357 C362 1.390 . S
C358 C352 1.465 . S
C358 C357 1.396 . S
C358 C359 1.399 . S
C359 H345 0.929 . S
C359 C358 1.399 . S
C359 C360 1.385 . S
C360 H346 0.931 . S
C360 C359 1.385 . S
C360 C361 1.389 . S
C361 C360 1.389 . S
C361 C362 1.387 . S
C362 H347 0.930 . S
C362 C357 1.390 . S
C362 C361 1.387 . S
H363 C375 0.930 . S
H364 C377 0.930 . S
H365 C378 0.930 . S
H366 C382 0.959 . S
H367 C382 0.959 . S
H368 C382 0.961 . S
H369 C383 0.960 . S
H370 C383 0.961 . S
H371 C383 0.959 . S
H372 C386 0.929 . S
H373 C387 0.931 . S
H374 C389 0.930 . S
C375 H363 0.930 . S
C375 C376 1.399 . S
C375 C380 1.399 . S
C376 C375 1.399 . S
C376 C377 1.376 . S
C377 H364 0.930 . S
C377 C376 1.376 . S
C377 C378 1.388 . S
C378 H365 0.930 . S
C378 C377 1.388 . S
C378 C379 1.390 . S
C379 C378 1.390 . S
C379 C380 1.394 . S
C379 C385 1.465 . S
C380 C375 1.399 . S
C380 C379 1.394 . S
C380 C381 1.516 . S
C381 C380 1.516 . S
C381 C382 1.502 . S
C381 C383 1.561 . S
C381 C384 1.526 . S
C382 H366 0.959 . S
C382 H367 0.959 . S
C382 H368 0.961 . S
C382 C381 1.502 . S
C383 H369 0.960 . S
C383 H370 0.961 . S
C383 H371 0.959 . S
C383 C381 1.561 . S
C384 C381 1.526 . S
C384 C385 1.396 . S
C384 C389 1.390 . S
C385 C379 1.465 . S
C385 C384 1.396 . S
C385 C386 1.399 . S
C386 H372 0.929 . S
C386 C385 1.399 . S
C386 C387 1.385 . S
C387 H373 0.931 . S
C387 C386 1.385 . S
C387 C388 1.389 . S
C388 C387 1.389 . S
C388 C389 1.387 . S
C389 H374 0.930 . S
C389 C384 1.390 . S
C389 C388 1.387 . S
H390 C402 0.930 . S
H391 C404 0.930 . S
H392 C405 0.930 . S
H393 C409 0.959 . S
H394 C409 0.959 . S
H395 C409 0.961 . S
H396 C410 0.960 . S
H397 C410 0.961 . S
H398 C410 0.959 1_556 S
H399 C413 0.929 . S
H400 C414 0.931 . S
H401 C416 0.930 . S
C402 H390 0.930 . S
C402 C403 1.399 1_554 S
C402 C407 1.399 . S
C403 C402 1.399 1_556 S
C403 C404 1.376 . S
C404 H391 0.930 . S
C404 C403 1.376 . S
C404 C405 1.388 1_455 S
C405 H392 0.930 . S
C405 C404 1.388 1_655 S
C405 C406 1.390 . S
C406 C405 1.390 . S
C406 C407 1.394 1_656 S
C406 C412 1.465 . S
C407 C402 1.399 . S
C407 C406 1.394 1_454 S
C407 C408 1.516 . S
C408 C407 1.516 . S
C408 C409 1.502 . S
C408 C410 1.561 . S
C408 C411 1.526 1_455 S
C409 H393 0.959 . S
C409 H394 0.959 . S
C409 H395 0.961 . S
C409 C408 1.502 . S
C410 H396 0.960 . S
C410 H397 0.961 . S
C410 H398 0.959 1_554 S
C410 C408 1.561 . S
C411 C408 1.526 1_655 S
C411 C412 1.396 1_554 S
C411 C416 1.390 . S
C412 C406 1.465 . S
C412 C411 1.396 1_556 S
C412 C413 1.399 . S
C413 H399 0.929 . S
C413 C412 1.399 . S
C413 C414 1.385 . S
C414 H400 0.931 . S
C414 C413 1.385 . S
C414 C415 1.400 . S
C415 C414 1.400 . S
C415 C416 1.379 1_556 S
C416 H401 0.930 . S
C416 C411 1.390 . S
C416 C415 1.379 1_554 S
H417 C429 0.930 . S
H418 C431 0.930 . S
H419 C432 0.930 . S
H420 C436 0.959 . S
H421 C436 0.959 . S
H422 C436 0.961 . S
H423 C437 0.960 . S
H424 C437 0.961 . S
H425 C437 0.959 1_545 S
H426 C440 0.929 . S
H427 C441 0.931 . S
H428 C443 0.930 . S
C429 H417 0.930 . S
C429 C430 1.399 . S
C429 C434 1.399 . S
C430 C429 1.399 . S
C430 C431 1.376 . S
C431 H418 0.930 . S
C431 C430 1.376 . S
C431 C432 1.388 1_565 S
C432 H419 0.930 . S
C432 C431 1.388 1_545 S
C432 C433 1.390 . S
C433 C432 1.390 . S
C433 C434 1.394 1_545 S
C433 C439 1.465 . S
C434 C429 1.399 . S
C434 C433 1.394 1_565 S
C434 C435 1.516 . S
C435 C434 1.516 . S
C435 C436 1.502 . S
C435 C437 1.561 . S
C435 C438 1.526 1_565 S
C436 H420 0.959 . S
C436 H421 0.959 . S
C436 H422 0.961 . S
C436 C435 1.502 . S
C437 H423 0.960 . S
C437 H424 0.961 . S
C437 H425 0.959 1_565 S
C437 C435 1.561 . S
C438 C435 1.526 1_545 S
C438 C439 1.396 . S
C438 C443 1.390 . S
C439 C433 1.465 . S
C439 C438 1.396 . S
C439 C440 1.399 . S
C440 H426 0.929 . S
C440 C439 1.399 . S
C440 C441 1.385 . S
C441 H427 0.931 . S
C441 C440 1.385 . S
C441 C442 1.389 . S
C442 C441 1.389 . S
C442 C443 1.387 . S
C443 H428 0.930 . S
C443 C438 1.390 . S
C443 C442 1.387 . S
H444 C456 0.930 . S
H445 C458 0.930 . S
H446 C459 0.930 . S
H447 C463 0.959 . S
H448 C463 0.959 . S
H449 C463 0.961 . S
H450 C464 0.960 . S
H451 C464 0.961 . S
H452 C464 0.959 . S
H453 C467 0.929 . S
H454 C468 0.931 . S
H455 C470 0.930 . S
C456 H444 0.930 . S
C456 C457 1.399 . S
C456 C461 1.399 . S
C457 C456 1.399 . S
C457 C458 1.376 . S
C458 H445 0.930 . S
C458 C457 1.376 . S
C458 C459 1.388 . S
C459 H446 0.930 . S
C459 C458 1.388 . S
C459 C460 1.390 . S
C460 C459 1.390 . S
C460 C461 1.394 . S
C460 C466 1.465 . S
C461 C456 1.399 . S
C461 C460 1.394 . S
C461 C462 1.516 . S
C462 C461 1.516 . S
C462 C463 1.502 . S
C462 C464 1.561 . S
C462 C465 1.526 . S
C463 H447 0.959 . S
C463 H448 0.959 . S
C463 H449 0.961 . S
C463 C462 1.502 . S
C464 H450 0.960 . S
C464 H451 0.961 . S
C464 H452 0.959 . S
C464 C462 1.561 . S
C465 C462 1.526 . S
C465 C466 1.396 . S
C465 C470 1.390 . S
C466 C460 1.465 . S
C466 C465 1.396 . S
C466 C467 1.399 . S
C467 H453 0.929 . S
C467 C466 1.399 . S
C467 C468 1.385 . S
C468 H454 0.931 . S
C468 C467 1.385 . S
C468 C469 1.389 . S
C469 C468 1.389 . S
C469 C470 1.387 . S
C470 H455 0.930 . S
C470 C465 1.390 . S
C470 C469 1.387 . S
H471 C483 0.930 . S
H472 C485 0.930 . S
H473 C486 0.930 1_455 S
H474 C490 0.959 . S
H475 C490 0.959 . S
H476 C490 0.961 1_655 S
H477 C491 0.960 . S
H478 C491 0.961 . S
H479 C491 0.959 . S
H480 C494 0.929 . S
H481 C495 0.931 . S
H482 C497 0.930 . S
C483 H471 0.930 . S
C483 C484 1.399 . S
C483 C488 1.399 . S
C484 C483 1.399 . S
C484 C485 1.376 . S
C485 H472 0.930 . S
C485 C484 1.376 . S
C485 C486 1.388 . S
C486 H473 0.930 1_655 S
C486 C485 1.388 . S
C486 C487 1.390 1_655 S
C487 C486 1.390 1_455 S
C487 C488 1.394 1_455 S
C487 C493 1.465 . S
C488 C483 1.399 . S
C488 C487 1.394 1_655 S
C488 C489 1.516 . S
C489 C488 1.516 . S
C489 C490 1.502 1_655 S
C489 C491 1.561 . S
C489 C492 1.526 1_655 S
C490 H474 0.959 . S
C490 H475 0.959 . S
C490 H476 0.961 1_455 S
C490 C489 1.502 1_455 S
C491 H477 0.960 . S
C491 H478 0.961 . S
C491 H479 0.959 . S
C491 C489 1.561 . S
C492 C489 1.526 1_455 S
C492 C493 1.396 . S
C492 C497 1.390 . S
C493 C487 1.465 . S
C493 C492 1.396 . S
C493 C494 1.399 . S
C494 H480 0.929 . S
C494 C493 1.399 . S
C494 C495 1.385 . S
C495 H481 0.931 . S
C495 C494 1.385 . S
C495 C496 1.389 . S
C496 C495 1.389 . S
C496 C497 1.387 . S
C497 H482 0.930 . S
C497 C492 1.390 . S
C497 C496 1.387 . S
H498 C510 0.930 . S
H499 C512 0.930 . S
H500 C513 0.930 . S
H501 C517 0.959 . S
H502 C517 0.959 . S
H503 C517 0.961 . S
H504 C518 0.960 . S
H505 C518 0.961 . S
H506 C518 0.959 . S
H507 C521 0.929 . S
H508 C522 0.931 . S
H509 C524 0.930 . S
C510 H498 0.930 . S
C510 C511 1.399 . S
C510 C515 1.399 1_565 S
C511 C510 1.399 . S
C511 C512 1.376 . S
C512 H499 0.930 . S
C512 C511 1.376 . S
C512 C513 1.388 . S
C513 H500 0.930 . S
C513 C512 1.388 . S
C513 C514 1.390 . S
C514 C513 1.390 . S
C514 C515 1.394 1_565 S
C514 C520 1.465 1_565 S
C515 C510 1.399 1_545 S
C515 C514 1.394 1_545 S
C515 C516 1.516 . S
C516 C515 1.516 . S
C516 C517 1.502 . S
C516 C518 1.561 . S
C516 C519 1.526 . S
C517 H501 0.959 . S
C517 H502 0.959 . S
C517 H503 0.961 . S
C517 C516 1.502 . S
C518 H504 0.960 . S
C518 H505 0.961 . S
C518 H506 0.959 . S
C518 C516 1.561 . S
C519 C516 1.526 . S
C519 C520 1.396 . S
C519 C524 1.390 . S
C520 C514 1.465 1_545 S
C520 C519 1.396 . S
C520 C521 1.399 . S
C521 H507 0.929 . S
C521 C520 1.399 . S
C521 C522 1.385 . S
C522 H508 0.931 . S
C522 C521 1.385 . S
C522 C523 1.389 . S
C523 C522 1.389 . S
C523 C524 1.387 . S
C524 H509 0.930 . S
C524 C519 1.390 . S
C524 C523 1.387 . S
H525 C537 0.930 . S
H526 C539 0.930 . S
H527 C540 0.930 . S
H528 C544 0.959 . S
H529 C544 0.959 . S
H530 C544 0.961 . S
H531 C545 0.960 . S
H532 C545 0.961 . S
H533 C545 0.959 . S
H534 C548 0.929 . S
H535 C549 0.931 . S
H536 C551 0.930 . S
C537 H525 0.930 . S
C537 C538 1.399 . S
C537 C542 1.399 . S
C538 C537 1.399 . S
C538 C539 1.376 . S
C539 H526 0.930 . S
C539 C538 1.376 . S
C539 C540 1.388 . S
C540 H527 0.930 . S
C540 C539 1.388 . S
C540 C541 1.390 . S
C541 C540 1.390 . S
C541 C542 1.394 . S
C541 C547 1.465 . S
C542 C537 1.399 . S
C542 C541 1.394 . S
C542 C543 1.516 . S
C543 C542 1.516 . S
C543 C544 1.502 . S
C543 C545 1.561 . S
C543 C546 1.526 . S
C544 H528 0.959 . S
C544 H529 0.959 . S
C544 H530 0.961 . S
C544 C543 1.502 . S
C545 H531 0.960 . S
C545 H532 0.961 . S
C545 H533 0.959 . S
C545 C543 1.561 . S
C546 C543 1.526 . S
C546 C547 1.396 . S
C546 C551 1.390 . S
C547 C541 1.465 . S
C547 C546 1.396 . S
C547 C548 1.399 . S
C548 H534 0.929 . S
C548 C547 1.399 . S
C548 C549 1.385 . S
C549 H535 0.931 . S
C549 C548 1.385 . S
C549 C550 1.389 . S
C550 C549 1.389 . S
C550 C551 1.387 . S
C551 H536 0.930 . S
C551 C546 1.390 . S
C551 C550 1.387 . S
H552 C564 0.930 . S
H553 C566 0.930 . S
H554 C567 0.930 . S
H555 C571 0.959 . S
H556 C571 0.959 . S
H557 C571 0.961 . S
H558 C572 0.960 . S
H559 C572 0.961 . S
H560 C572 0.959 . S
H561 C575 0.929 1_455 S
H562 C576 0.931 . S
H563 C578 0.930 . S
C564 H552 0.930 . S
C564 C565 1.399 . S
C564 C569 1.399 1_455 S
C565 C564 1.399 . S
C565 C566 1.376 . S
C566 H553 0.930 . S
C566 C565 1.376 . S
C566 C567 1.388 . S
C567 H554 0.930 . S
C567 C566 1.388 . S
C567 C568 1.390 . S
C568 C567 1.390 . S
C568 C569 1.394 1_455 S
C568 C574 1.465 1_455 S
C569 C564 1.399 1_655 S
C569 C568 1.394 1_655 S
C569 C570 1.516 . S
C570 C569 1.516 . S
C570 C571 1.502 . S
C570 C572 1.561 . S
C570 C573 1.526 . S
C571 H555 0.959 . S
C571 H556 0.959 . S
C571 H557 0.961 . S
C571 C570 1.502 . S
C572 H558 0.960 . S
C572 H559 0.961 . S
C572 H560 0.959 . S
C572 C570 1.561 . S
C573 C570 1.526 . S
C573 C574 1.396 . S
C573 C578 1.390 . S
C574 C568 1.465 1_655 S
C574 C573 1.396 . S
C574 C575 1.399 . S
C575 H561 0.929 1_655 S
C575 C574 1.399 . S
C575 C576 1.385 . S
C576 H562 0.931 . S
C576 C575 1.385 . S
C576 C577 1.389 . S
C577 C576 1.389 . S
C577 C578 1.387 . S
C578 H563 0.930 . S
C578 C573 1.390 . S
C578 C577 1.387 . S
H579 C591 0.930 1_565 S
H580 C593 0.930 . S
H581 C594 0.930 . S
H582 C598 0.959 . S
H583 C598 0.959 . S
H584 C598 0.961 . S
H585 C599 0.960 . S
H586 C599 0.961 . S
H587 C599 0.959 . S
H588 C602 0.929 1_545 S
H589 C603 0.931 . S
H590 C605 0.930 . S
C591 H579 0.930 1_545 S
C591 C592 1.399 . S
C591 C596 1.399 1_545 S
C592 C591 1.399 . S
C592 C593 1.376 . S
C593 H580 0.930 . S
C593 C592 1.376 . S
C593 C594 1.388 . S
C594 H581 0.930 . S
C594 C593 1.388 . S
C594 C595 1.390 . S
C595 C594 1.390 . S
C595 C596 1.394 1_545 S
C595 C601 1.465 1_545 S
C596 C591 1.399 1_565 S
C596 C595 1.394 1_565 S
C596 C597 1.516 . S
C597 C596 1.516 . S
C597 C598 1.502 . S
C597 C599 1.561 . S
C597 C600 1.526 . S
C598 H582 0.959 . S
C598 H583 0.959 . S
C598 H584 0.961 . S
C598 C597 1.502 . S
C599 H585 0.960 . S
C599 H586 0.961 . S
C599 H587 0.959 . S
C599 C597 1.561 . S
C600 C597 1.526 . S
C600 C601 1.396 . S
C600 C605 1.390 . S
C601 C595 1.465 1_565 S
C601 C600 1.396 . S
C601 C602 1.399 . S
C602 H588 0.929 1_565 S
C602 C601 1.399 . S
C602 C603 1.385 . S
C603 H589 0.931 . S
C603 C602 1.385 . S
C603 C604 1.389 . S
C604 C603 1.389 . S
C604 C605 1.387 . S
C605 H590 0.930 . S
C605 C600 1.390 . S
C605 C604 1.387 . S
C133 C99 1.239 . S
C145 C2 1.210 . S
C160 C119 1.251 . S
C172 C22 1.241 . S
C187 C19 1.244 . S
C199 C42 1.253 . S
C214 C39 1.228 . S
C226 C62 1.203 . S
C241 C59 1.223 . S
C253 C82 1.204 . S
C268 C79 1.230 . S
C280 C102 1.203 . S
C295 C8 0.618 . S
C307 C68 0.846 . S
C322 C88 0.841 . S
C334 C28 0.686 . S
C349 C108 0.840 . S
C361 C48 0.688 . S
C376 C49 0.756 . S
C388 C109 0.736 . S
C403 C9 0.748 1_556 S
C415 C69 0.724 1_556 S
C430 C89 0.760 . S
C442 C29 0.729 . S
C457 C118 1.294 . S
C469 C1 1.297 . S
C484 C21 1.277 . S
C496 C18 1.281 . S
C511 C41 1.292 . S
C523 C38 1.295 . S
C538 C58 1.295 . S
C550 C61 1.294 . S
C565 C81 1.296 . S
C577 C78 1.294 . S
C592 C101 1.297 . S
C604 C98 1.294 . S
