# Generated by pormake.
# Topology uod, (4)-cn, num edge types: 1
# Building blocks:
#     Node 0, Type 0, BuildingBlock: KUFVIS_clean_sbu_0, # of connection points: 4
#     Node 1, Type 0, BuildingBlock: KUFVIS_clean_sbu_0, # of connection points: 4
#     Node 2, Type 0, BuildingBlock: KUFVIS_clean_sbu_0, # of connection points: 4
#     Node 3, Type 0, BuildingBlock: KUFVIS_clean_sbu_0, # of connection points: 4
#     Node 4, Type 0, BuildingBlock: KUFVIS_clean_sbu_0, # of connection points: 4
#     Node 5, Type 0, BuildingBlock: KUFVIS_clean_sbu_0, # of connection points: 4
#     Node 6, Type 0, BuildingBlock: KUFVIS_clean_sbu_0, # of connection points: 4
#     Node 7, Type 0, BuildingBlock: KUFVIS_clean_sbu_0, # of connection points: 4
#     Node 8, Type 0, BuildingBlock: KUFVIS_clean_sbu_0, # of connection points: 4
#     Node 9, Type 0, BuildingBlock: KUFVIS_clean_sbu_0, # of connection points: 4
#     Node 10, Type 0, BuildingBlock: KUFVIS_clean_sbu_0, # of connection points: 4
#     Node 11, Type 0, BuildingBlock: KUFVIS_clean_sbu_0, # of connection points: 4
#     Node 12, Type 0, BuildingBlock: KUFVIS_clean_sbu_0, # of connection points: 4
#     Node 13, Type 0, BuildingBlock: KUFVIS_clean_sbu_0, # of connection points: 4
#     Node 14, Type 0, BuildingBlock: KUFVIS_clean_sbu_0, # of connection points: 4
#     Node 15, Type 0, BuildingBlock: KUFVIS_clean_sbu_0, # of connection points: 4
#     Node 16, Type 0, BuildingBlock: KUFVIS_clean_sbu_0, # of connection points: 4
#     Node 17, Type 0, BuildingBlock: KUFVIS_clean_sbu_0, # of connection points: 4
#     Node 18, Type 0, BuildingBlock: KUFVIS_clean_sbu_0, # of connection points: 4
#     Node 19, Type 0, BuildingBlock: KUFVIS_clean_sbu_0, # of connection points: 4
#     Node 20, Type 0, BuildingBlock: KUFVIS_clean_sbu_0, # of connection points: 4
#     Node 21, Type 0, BuildingBlock: KUFVIS_clean_sbu_0, # of connection points: 4
#     Node 22, Type 0, BuildingBlock: KUFVIS_clean_sbu_0, # of connection points: 4
#     Node 23, Type 0, BuildingBlock: KUFVIS_clean_sbu_0, # of connection points: 4
#     Node 24, Type 0, BuildingBlock: KUFVIS_clean_sbu_0, # of connection points: 4
#     Node 25, Type 0, BuildingBlock: KUFVIS_clean_sbu_0, # of connection points: 4
#     Node 26, Type 0, BuildingBlock: KUFVIS_clean_sbu_0, # of connection points: 4
#     Node 27, Type 0, BuildingBlock: KUFVIS_clean_sbu_0, # of connection points: 4
#     Node 28, Type 0, BuildingBlock: KUFVIS_clean_sbu_0, # of connection points: 4
#     Node 29, Type 0, BuildingBlock: KUFVIS_clean_sbu_0, # of connection points: 4
#     Node 30, Type 0, BuildingBlock: KUFVIS_clean_sbu_0, # of connection points: 4
#     Node 31, Type 0, BuildingBlock: KUFVIS_clean_sbu_0, # of connection points: 4
#     Edge 32, Type (0, 0), BuildingBlock: AJUNOK_clean_linker_0, # of connection points: 2
#     Edge 33, Type (0, 0), BuildingBlock: AJUNOK_clean_linker_0, # of connection points: 2
#     Edge 34, Type (0, 0), BuildingBlock: AJUNOK_clean_linker_0, # of connection points: 2
#     Edge 35, Type (0, 0), BuildingBlock: AJUNOK_clean_linker_0, # of connection points: 2
#     Edge 36, Type (0, 0), BuildingBlock: AJUNOK_clean_linker_0, # of connection points: 2
#     Edge 37, Type (0, 0), BuildingBlock: AJUNOK_clean_linker_0, # of connection points: 2
#     Edge 38, Type (0, 0), BuildingBlock: AJUNOK_clean_linker_0, # of connection points: 2
#     Edge 39, Type (0, 0), BuildingBlock: AJUNOK_clean_linker_0, # of connection points: 2
#     Edge 40, Type (0, 0), BuildingBlock: AJUNOK_clean_linker_0, # of connection points: 2
#     Edge 41, Type (0, 0), BuildingBlock: AJUNOK_clean_linker_0, # of connection points: 2
#     Edge 42, Type (0, 0), BuildingBlock: AJUNOK_clean_linker_0, # of connection points: 2
#     Edge 43, Type (0, 0), BuildingBlock: AJUNOK_clean_linker_0, # of connection points: 2
#     Edge 44, Type (0, 0), BuildingBlock: AJUNOK_clean_linker_0, # of connection points: 2
#     Edge 45, Type (0, 0), BuildingBlock: AJUNOK_clean_linker_0, # of connection points: 2
#     Edge 46, Type (0, 0), BuildingBlock: AJUNOK_clean_linker_0, # of connection points: 2
#     Edge 47, Type (0, 0), BuildingBlock: AJUNOK_clean_linker_0, # of connection points: 2
#     Edge 48, Type (0, 0), BuildingBlock: AJUNOK_clean_linker_0, # of connection points: 2
#     Edge 49, Type (0, 0), BuildingBlock: AJUNOK_clean_linker_0, # of connection points: 2
#     Edge 50, Type (0, 0), BuildingBlock: AJUNOK_clean_linker_0, # of connection points: 2
#     Edge 51, Type (0, 0), BuildingBlock: AJUNOK_clean_linker_0, # of connection points: 2
#     Edge 52, Type (0, 0), BuildingBlock: AJUNOK_clean_linker_0, # of connection points: 2
#     Edge 53, Type (0, 0), BuildingBlock: AJUNOK_clean_linker_0, # of connection points: 2
#     Edge 54, Type (0, 0), BuildingBlock: AJUNOK_clean_linker_0, # of connection points: 2
#     Edge 55, Type (0, 0), BuildingBlock: AJUNOK_clean_linker_0, # of connection points: 2
#     Edge 56, Type (0, 0), BuildingBlock: AJUNOK_clean_linker_0, # of connection points: 2
#     Edge 57, Type (0, 0), BuildingBlock: AJUNOK_clean_linker_0, # of connection points: 2
#     Edge 58, Type (0, 0), BuildingBlock: AJUNOK_clean_linker_0, # of connection points: 2
#     Edge 59, Type (0, 0), BuildingBlock: AJUNOK_clean_linker_0, # of connection points: 2
#     Edge 60, Type (0, 0), BuildingBlock: AJUNOK_clean_linker_0, # of connection points: 2
#     Edge 61, Type (0, 0), BuildingBlock: AJUNOK_clean_linker_0, # of connection points: 2
#     Edge 62, Type (0, 0), BuildingBlock: AJUNOK_clean_linker_0, # of connection points: 2
#     Edge 63, Type (0, 0), BuildingBlock: AJUNOK_clean_linker_0, # of connection points: 2
#     Edge 64, Type (0, 0), BuildingBlock: AJUNOK_clean_linker_0, # of connection points: 2
#     Edge 65, Type (0, 0), BuildingBlock: AJUNOK_clean_linker_0, # of connection points: 2
#     Edge 66, Type (0, 0), BuildingBlock: AJUNOK_clean_linker_0, # of connection points: 2
#     Edge 67, Type (0, 0), BuildingBlock: AJUNOK_clean_linker_0, # of connection points: 2
#     Edge 68, Type (0, 0), BuildingBlock: AJUNOK_clean_linker_0, # of connection points: 2
#     Edge 69, Type (0, 0), BuildingBlock: AJUNOK_clean_linker_0, # of connection points: 2
#     Edge 70, Type (0, 0), BuildingBlock: AJUNOK_clean_linker_0, # of connection points: 2
#     Edge 71, Type (0, 0), BuildingBlock: AJUNOK_clean_linker_0, # of connection points: 2
#     Edge 72, Type (0, 0), BuildingBlock: AJUNOK_clean_linker_0, # of connection points: 2
#     Edge 73, Type (0, 0), BuildingBlock: AJUNOK_clean_linker_0, # of connection points: 2
#     Edge 74, Type (0, 0), BuildingBlock: AJUNOK_clean_linker_0, # of connection points: 2
#     Edge 75, Type (0, 0), BuildingBlock: AJUNOK_clean_linker_0, # of connection points: 2
#     Edge 76, Type (0, 0), BuildingBlock: AJUNOK_clean_linker_0, # of connection points: 2
#     Edge 77, Type (0, 0), BuildingBlock: AJUNOK_clean_linker_0, # of connection points: 2
#     Edge 78, Type (0, 0), BuildingBlock: AJUNOK_clean_linker_0, # of connection points: 2
#     Edge 79, Type (0, 0), BuildingBlock: AJUNOK_clean_linker_0, # of connection points: 2
#     Edge 80, Type (0, 0), BuildingBlock: AJUNOK_clean_linker_0, # of connection points: 2
#     Edge 81, Type (0, 0), BuildingBlock: AJUNOK_clean_linker_0, # of connection points: 2
#     Edge 82, Type (0, 0), BuildingBlock: AJUNOK_clean_linker_0, # of connection points: 2
#     Edge 83, Type (0, 0), BuildingBlock: AJUNOK_clean_linker_0, # of connection points: 2
#     Edge 84, Type (0, 0), BuildingBlock: AJUNOK_clean_linker_0, # of connection points: 2
#     Edge 85, Type (0, 0), BuildingBlock: AJUNOK_clean_linker_0, # of connection points: 2
#     Edge 86, Type (0, 0), BuildingBlock: AJUNOK_clean_linker_0, # of connection points: 2
#     Edge 87, Type (0, 0), BuildingBlock: AJUNOK_clean_linker_0, # of connection points: 2
#     Edge 88, Type (0, 0), BuildingBlock: AJUNOK_clean_linker_0, # of connection points: 2
#     Edge 89, Type (0, 0), BuildingBlock: AJUNOK_clean_linker_0, # of connection points: 2
#     Edge 90, Type (0, 0), BuildingBlock: AJUNOK_clean_linker_0, # of connection points: 2
#     Edge 91, Type (0, 0), BuildingBlock: AJUNOK_clean_linker_0, # of connection points: 2
#     Edge 92, Type (0, 0), BuildingBlock: AJUNOK_clean_linker_0, # of connection points: 2
#     Edge 93, Type (0, 0), BuildingBlock: AJUNOK_clean_linker_0, # of connection points: 2
#     Edge 94, Type (0, 0), BuildingBlock: AJUNOK_clean_linker_0, # of connection points: 2
#     Edge 95, Type (0, 0), BuildingBlock: AJUNOK_clean_linker_0, # of connection points: 2
# Relax obj value: 0.202
# Max RMSD: 0.181
# Mean RMSD: 0.175
data_MOF--net-uod--node1-KUFVIS_clean_sbu_0--edge1-AJUNOK_clean_linker_0
_symmetry_space_group_name_H-M    P1
_symmetry_Int_Tables_number       1
_symmetry_cell_setting            triclinic
loop_
_symmetry_equiv_pos_as_xyz
'x, y, z'
_cell_length_a     63.112095
_cell_length_b     19.726745
_cell_length_c     47.469687
_cell_angle_alpha  90.05254
_cell_angle_beta   90.040724
_cell_angle_gamma 90.004533
loop_
_atom_site_label
_atom_site_type_symbol
_atom_site_fract_x
_atom_site_fract_y
_atom_site_fract_z
_atom_type_partial_charge
Mn0 Mn 0.04775 0.38653 0.08242 0.0
Mn1 Mn 0.04937 0.39171 0.15311 0.0
C2 C 0.05436 0.48633 0.10491 0.0
C3 C 0.02449 0.40924 0.04378 0.0
C4 C 0.08711 0.34767 0.11786 0.0
O5 O 0.03524 0.29454 0.09288 0.0
O6 O 0.0375 0.30355 0.14002 0.0
C7 C 0.00286 0.39588 0.16111 0.0
N8 N 0.02229 0.42444 0.16503 0.0
C9 C 0.00687 0.52209 0.18753 0.0
C10 C 0.98671 0.49347 0.18391 0.0
C11 C 0.98471 0.4301 0.17063 0.0
C12 C 0.02438 0.48555 0.17767 0.0
H13 H 1.00123 0.34755 0.15063 0.0
C14 C 0.0329 0.2702 0.11765 0.0
O15 O 0.04248 0.3785 0.03966 0.0
O16 O 0.01972 0.41963 0.06958 0.0
N17 N 0.06045 0.47372 0.1689 0.0
C18 C 0.08107 0.49312 0.17165 0.0
C19 C 0.08586 0.5551 0.1848 0.0
C20 C 0.06941 0.59612 0.19517 0.0
C21 C 0.04836 0.57404 0.19287 0.0
C22 C 0.0446 0.51132 0.17996 0.0
H23 H 0.09376 0.46188 0.16361 0.0
O24 O 0.05915 0.47931 0.07872 0.0
O25 O 0.04515 0.43526 0.11703 0.0
O26 O 0.07821 0.35254 0.09333 0.0
O27 O 0.07755 0.36111 0.14099 0.0
C28 C 0.03097 0.61176 0.20289 0.0
C29 C 0.01024 0.58587 0.20016 0.0
H30 H 0.97267 0.51988 0.1911 0.0
H31 H 0.9692 0.40787 0.16761 0.0
H32 H 0.10216 0.57148 0.18671 0.0
H33 H 0.07314 0.64426 0.20499 0.0
H34 H 0.03338 0.66073 0.21268 0.0
H35 H 0.99698 0.61539 0.20781 0.0
Mn36 Mn 0.21769 0.85649 0.08491 0.0
Mn37 Mn 0.21521 0.85169 0.15544 0.0
C38 C 0.21063 0.75704 0.10733 0.0
C39 C 0.24175 0.8299 0.04735 0.0
C40 C 0.1778 0.89455 0.11931 0.0
O41 O 0.23027 0.94841 0.09542 0.0
O42 O 0.22671 0.94022 0.14243 0.0
C43 C 0.26169 0.85 0.16395 0.0
N44 N 0.24239 0.82053 0.16774 0.0
C45 C 0.25821 0.72383 0.19041 0.0
C46 C 0.27824 0.75344 0.18696 0.0
C47 C 0.27997 0.81677 0.17364 0.0
C48 C 0.24055 0.75939 0.18036 0.0
H49 H 0.26314 0.89828 0.15343 0.0
C50 C 0.23178 0.97337 0.12022 0.0
O51 O 0.22406 0.86133 0.04216 0.0
O52 O 0.24585 0.82204 0.07344 0.0
N53 N 0.20447 0.76922 0.17118 0.0
C54 C 0.18395 0.74859 0.17364 0.0
C55 C 0.17943 0.68646 0.18678 0.0
C56 C 0.19603 0.64649 0.1974 0.0
C57 C 0.21696 0.66974 0.19534 0.0
C58 C 0.22046 0.73255 0.18244 0.0
H59 H 0.17116 0.77886 0.16531 0.0
O60 O 0.20605 0.76402 0.08109 0.0
O61 O 0.21985 0.80793 0.11955 0.0
O62 O 0.1872 0.89111 0.09508 0.0
O63 O 0.18698 0.88073 0.14273 0.0
C64 C 0.23449 0.63306 0.20558 0.0
C65 C 0.25511 0.66 0.20306 0.0
H66 H 0.29239 0.72782 0.19429 0.0
H67 H 0.29539 0.83975 0.17072 0.0
H68 H 0.16321 0.66911 0.18846 0.0
H69 H 0.19252 0.59823 0.20721 0.0
H70 H 0.23227 0.58407 0.21536 0.0
H71 H 0.26848 0.63123 0.21088 0.0
Mn72 Mn 0.04631 0.85909 0.16423 0.0
Mn73 Mn 0.04781 0.85815 0.09355 0.0
C74 C 0.05314 0.76089 0.1407 0.0
C75 C 0.02314 0.83247 0.20254 0.0
C76 C 0.0857 0.89906 0.12912 0.0
O77 O 0.03374 0.95176 0.15491 0.0
O78 O 0.03658 0.94602 0.10777 0.0
C79 C 1.00122 0.85716 0.08619 0.0
N80 N 0.02044 0.82775 0.08166 0.0
C81 C 0.00422 0.73205 0.05866 0.0
C82 C 0.98427 0.7616 0.06289 0.0
C83 C 0.98277 0.82442 0.07672 0.0
C84 C 0.02205 0.76717 0.06848 0.0
H85 H 0.99996 0.90501 0.09712 0.0
C86 C 0.03192 0.97813 0.13042 0.0
O87 O 0.041 0.86366 0.2071 0.0
O88 O 0.0184 0.82449 0.17659 0.0
N89 N 0.05827 0.77667 0.07664 0.0
C90 C 0.07876 0.75654 0.07317 0.0
C91 C 0.08306 0.69498 0.05941 0.0
C92 C 0.06627 0.65519 0.04914 0.0
C93 C 0.04537 0.6782 0.05208 0.0
C94 C 0.04209 0.74045 0.06559 0.0
H95 H 0.0917 0.78679 0.08118 0.0
O96 O 0.0579 0.76644 0.16695 0.0
O97 O 0.04371 0.81229 0.12912 0.0
O98 O 0.07667 0.89401 0.15355 0.0
O99 O 0.07623 0.88632 0.10581 0.0
C100 C 0.02766 0.64186 0.04213 0.0
C101 C 0.00709 0.66869 0.04545 0.0
H102 H 0.97 0.73634 0.05575 0.0
H103 H 0.96742 0.84735 0.08022 0.0
H104 H 0.09925 0.67793 0.05697 0.0
H105 H 0.06962 0.60734 0.03886 0.0
H106 H 0.0297 0.59321 0.03196 0.0
H107 H 0.99359 0.64016 0.03781 0.0
Mn108 Mn 0.21832 0.38501 0.16675 0.0
Mn109 Mn 0.21801 0.38545 0.09595 0.0
C110 C 0.21245 0.48305 0.14293 0.0
C111 C 0.24017 0.41119 0.20638 0.0
C112 C 0.17918 0.34816 0.13025 0.0
O113 O 0.23073 0.29175 0.15795 0.0
O114 O 0.22816 0.2969 0.11074 0.0
C115 C 0.26471 0.38096 0.09002 0.0
N116 N 0.24591 0.41258 0.08493 0.0
C117 C 0.26354 0.50529 0.06179 0.0
C118 C 0.28307 0.47348 0.06662 0.0
C119 C 0.28365 0.41104 0.0808 0.0
C120 C 0.24519 0.47283 0.07141 0.0
H121 H 0.26529 0.33333 0.10116 0.0
C122 C 0.23267 0.26516 0.13348 0.0
O123 O 0.22211 0.38032 0.2098 0.0
O124 O 0.24604 0.41837 0.18076 0.0
N125 N 0.20875 0.46775 0.07848 0.0
C126 C 0.18858 0.49019 0.07427 0.0
C127 C 0.18521 0.55177 0.06012 0.0
C128 C 0.2026 0.58916 0.05014 0.0
C129 C 0.22316 0.56379 0.05381 0.0
C130 C 0.22551 0.50175 0.06779 0.0
H131 H 0.17518 0.46192 0.0821 0.0
O132 O 0.2071 0.47793 0.16899 0.0
O133 O 0.22195 0.43133 0.13165 0.0
O134 O 0.18802 0.35153 0.15485 0.0
O135 O 0.18905 0.3604 0.10719 0.0
C136 C 0.24142 0.59746 0.04404 0.0
C137 C 0.26159 0.56826 0.04806 0.0
H138 H 0.29772 0.49666 0.05963 0.0
H139 H 0.29867 0.38631 0.08473 0.0
H140 H 0.16927 0.57067 0.05713 0.0
H141 H 0.19996 0.63698 0.0395 0.0
H142 H 0.2401 0.64574 0.03339 0.0
H143 H 0.27552 0.59451 0.0405 0.0
Mn144 Mn 0.96249 0.65277 0.91646 0.0
Mn145 Mn 0.93039 0.55046 0.95324 0.0
C146 C 0.92636 0.65155 0.90187 0.0
C147 C 0.97767 0.75957 0.91164 0.0
C148 C 0.96185 0.50438 0.90852 0.0
O149 O 0.98139 0.61415 0.94862 0.0
O150 O 0.95398 0.58982 0.97511 0.0
C151 C 0.91329 0.64688 0.99526 0.0
N152 N 0.91015 0.59647 0.9761 0.0
C153 C 0.87351 0.58585 0.98919 0.0
C154 C 0.87633 0.63744 0.0092 0.0
C155 C 0.89629 0.66834 0.01214 0.0
C156 C 0.89105 0.56646 0.97307 0.0
H157 H 0.92868 0.67012 0.99774 0.0
C158 C 0.97363 0.5839 0.96999 0.0
O159 O 0.9863 0.70679 0.89999 0.0
O160 O 0.96278 0.74791 0.92984 0.0
N161 N 0.90652 0.50853 0.93558 0.0
C162 C 0.90596 0.46448 0.91349 0.0
C163 C 0.88682 0.43203 0.90658 0.0
C164 C 0.86861 0.44393 0.9228 0.0
C165 C 0.86968 0.48848 0.94579 0.0
C166 C 0.88917 0.51909 0.95176 0.0
H167 H 0.92003 0.45373 0.90141 0.0
O168 O 0.94135 0.67931 0.88762 0.0
O169 O 0.93264 0.62775 0.92645 0.0
O170 O 0.96606 0.56186 0.89774 0.0
O171 O 0.95045 0.49612 0.93052 0.0
C172 C 0.85206 0.50493 0.96264 0.0
C173 C 0.85392 0.55381 0.98422 0.0
H174 H 0.86324 0.65426 0.0222 0.0
H175 H 0.89857 0.70834 0.02746 0.0
H176 H 0.88611 0.39768 0.88883 0.0
H177 H 0.85387 0.41905 0.91728 0.0
H178 H 0.83695 0.481 0.95892 0.0
H179 H 0.8401 0.56709 0.99657 0.0
Mn180 Mn 0.80422 0.10034 0.91673 0.0
Mn181 Mn 0.84067 0.19355 0.95223 0.0
C182 C 0.83972 0.09817 0.90208 0.0
C183 C 0.78557 0.00064 0.90696 0.0
C184 C 0.81254 0.2514 0.90799 0.0
O185 O 0.78705 0.12929 0.95188 0.0
O186 O 0.81278 0.19247 0.97098 0.0
C187 C 0.84341 0.09813 1.00011 0.0
N188 N 0.85312 0.13644 0.98009 0.0
C189 C 0.88755 0.11113 0.99899 0.0
C190 C 0.87795 0.07191 0.02006 0.0
C191 C 0.85578 0.06491 0.02047 0.0
C192 C 0.8744 0.14201 0.97902 0.0
H193 H 0.82637 0.0933 1.00057 0.0
C194 C 0.79373 0.171 0.97055 0.0
O195 O 0.77889 0.05916 0.89823 0.0
O196 O 0.80156 0.00104 0.92418 0.0
N197 N 0.86878 0.20407 0.93798 0.0
C198 C 0.87552 0.24373 0.91628 0.0
C199 C 0.89733 0.25518 0.91269 0.0
C200 C 0.91191 0.22737 0.93175 0.0
C201 C 0.90459 0.18879 0.95448 0.0
C202 C 0.8827 0.17881 0.95697 0.0
H203 H 0.8643 0.26707 0.9021 0.0
O204 O 0.82438 0.07931 0.8859 0.0
O205 O 0.83425 0.11452 0.92793 0.0
O206 O 0.8019 0.19784 0.90292 0.0
O207 O 0.82851 0.25491 0.9244 0.0
C208 C 0.91814 0.15983 0.9748 0.0
C209 C 0.90963 0.12061 0.99693 0.0
H210 H 0.88744 0.04669 0.03592 0.0
H211 H 0.84825 0.0345 0.03657 0.0
H212 H 0.90297 0.28659 0.89572 0.0
H213 H 0.92866 0.23655 0.92888 0.0
H214 H 0.93514 0.16672 0.97339 0.0
H215 H 0.92022 0.09775 0.01218 0.0
Mn216 Mn 0.95999 0.11078 0.83503 0.0
Mn217 Mn 0.92563 0.21363 0.80126 0.0
C218 C 0.92448 0.11235 0.85083 0.0
C219 C 0.97526 0.00518 0.84375 0.0
C220 C 0.95439 0.26217 0.84671 0.0
O221 O 0.97778 0.13659 0.80022 0.0
O222 O 0.95378 0.20892 0.78361 0.0
C223 C 0.92257 0.1213 0.75229 0.0
N224 N 0.91299 0.16102 0.772 0.0
C225 C 0.87869 0.14136 0.75155 0.0
C226 C 0.88815 0.1005 0.73089 0.0
C227 C 0.91019 0.09013 0.73136 0.0
C228 C 0.89184 0.17038 0.77203 0.0
H229 H 0.93951 0.11372 0.75253 0.0
C230 C 0.97222 0.18309 0.78309 0.0
O231 O 0.98419 0.06039 0.85277 0.0
O232 O 0.95969 0.01261 0.82621 0.0
N233 N 0.8974 0.23084 0.81358 0.0
C234 C 0.89093 0.27349 0.83443 0.0
C235 C 0.86937 0.29036 0.83668 0.0
C236 C 0.85487 0.26478 0.81689 0.0
C237 C 0.86198 0.22332 0.79493 0.0
C238 C 0.88366 0.20932 0.79352 0.0
H239 H 0.90227 0.29617 0.84855 0.0
O240 O 0.94019 0.09284 0.86601 0.0
O241 O 0.92965 0.13074 0.82492 0.0
O242 O 0.96463 0.20688 0.84985 0.0
O243 O 0.93822 0.2695 0.8308 0.0
C244 C 0.84842 0.19572 0.77428 0.0
C245 C 0.85676 0.15432 0.75271 0.0
H246 H 0.87866 0.0767 0.71463 0.0
H247 H 0.91761 0.05853 0.71555 0.0
H248 H 0.86402 0.32413 0.85319 0.0
H249 H 0.83836 0.27821 0.81821 0.0
H250 H 0.83155 0.20567 0.7749 0.0
H251 H 0.84617 0.13285 0.73711 0.0
Mn252 Mn 0.80526 0.64769 0.83877 0.0
Mn253 Mn 0.84147 0.55632 0.80231 0.0
C254 C 0.84098 0.65184 0.85202 0.0
C255 C 0.78619 0.74658 0.84846 0.0
C256 C 0.81524 0.49772 0.84843 0.0
O257 O 0.78746 0.61683 0.80443 0.0
O258 O 0.81296 0.5532 0.78514 0.0
C259 C 0.84129 0.64924 0.75346 0.0
N260 N 0.8522 0.61438 0.77353 0.0
C261 C 0.88561 0.64848 0.75384 0.0
C262 C 0.87477 0.68469 0.73289 0.0
C263 C 0.8525 0.68541 0.73282 0.0
C264 C 0.87357 0.61455 0.77417 0.0
H265 H 0.82418 0.64913 0.75316 0.0
C266 C 0.7938 0.57362 0.78615 0.0
O267 O 0.78015 0.68816 0.85809 0.0
O268 O 0.80187 0.74637 0.8308 0.0
N269 N 0.87016 0.5502 0.81505 0.0
C270 C 0.87819 0.50997 0.8358 0.0
C271 C 0.90025 0.50231 0.8383 0.0
C272 C 0.9138 0.53502 0.81926 0.0
C273 C 0.90519 0.57397 0.79743 0.0
C274 C 0.8831 0.57947 0.79584 0.0
H275 H 0.86779 0.48308 0.85 0.0
O276 O 0.82599 0.67056 0.86877 0.0
O277 O 0.83499 0.63512 0.82644 0.0
O278 O 0.80394 0.55024 0.85294 0.0
O279 O 0.83093 0.49513 0.83144 0.0
C280 C 0.91766 0.60672 0.77692 0.0
C281 C 0.90788 0.64443 0.75527 0.0
H282 H 0.88337 0.71205 0.71676 0.0
H283 H 0.844 0.71324 0.71674 0.0
H284 H 0.90686 0.46995 0.85434 0.0
H285 H 0.93078 0.52873 0.82124 0.0
H286 H 0.93478 0.60347 0.77768 0.0
H287 H 0.91763 0.66984 0.73976 0.0
Mn288 Mn 0.05233 0.89722 0.58731 0.0
Mn289 Mn 0.0548 0.90394 0.65769 0.0
C290 C 0.05968 0.99741 0.60931 0.0
C291 C 0.02807 0.92361 0.55002 0.0
C292 C 0.09171 0.85572 0.62172 0.0
O293 O 0.03925 0.80659 0.59825 0.0
O294 O 0.04206 0.8162 0.64534 0.0
C295 C 0.00846 0.91223 0.66672 0.0
N296 N 0.02815 0.93929 0.67006 0.0
C297 C 0.01376 0.03944 0.69189 0.0
C298 C 0.99335 0.01231 0.68893 0.0
C299 C 0.99069 0.94846 0.67627 0.0
C300 C 0.03087 0.00087 0.68208 0.0
H301 H 0.00631 0.86359 0.65666 0.0
C302 C 0.03703 0.78279 0.62312 0.0
O303 O 0.0456 0.89144 0.54466 0.0
O304 O 0.02432 0.93271 0.5761 0.0
N305 N 0.06671 0.98579 0.67254 0.0
C306 C 0.08748 0.0043 0.67415 0.0
C307 C 0.09289 0.06677 0.68643 0.0
C308 C 0.07692 0.10935 0.69701 0.0
C309 C 0.0557 0.08848 0.69568 0.0
C310 C 0.05131 0.02519 0.68364 0.0
H311 H 0.0998 0.97191 0.66589 0.0
O312 O 0.06444 0.98922 0.58318 0.0
O313 O 0.05042 0.94683 0.62163 0.0
O314 O 0.08258 0.8609 0.59737 0.0
O315 O 0.08256 0.87063 0.64501 0.0
C316 C 0.03874 0.12811 0.70572 0.0
C317 C 0.01778 0.1037 0.70376 0.0
H318 H 0.9796 0.04028 0.6961 0.0
H319 H 0.97497 0.92742 0.67371 0.0
H320 H 0.10932 0.08234 0.68751 0.0
H321 H 0.08112 0.15788 0.70613 0.0
H322 H 0.04165 0.17754 0.71485 0.0
H323 H 0.00486 0.13482 0.71136 0.0
Mn324 Mn 0.21698 0.35656 0.58562 0.0
Mn325 Mn 0.21503 0.35041 0.6561 0.0
C326 C 0.2099 0.25649 0.60788 0.0
C327 C 0.24056 0.32982 0.54765 0.0
C328 C 0.17789 0.39839 0.62051 0.0
O329 O 0.23013 0.44755 0.59641 0.0
O330 O 0.22768 0.43794 0.64355 0.0
C331 C 0.26142 0.3421 0.66473 0.0
N332 N 0.24174 0.31514 0.66828 0.0
C333 C 0.25621 0.21541 0.69028 0.0
C334 C 0.27662 0.24244 0.6871 0.0
C335 C 0.27922 0.30602 0.67425 0.0
C336 C 0.23906 0.2538 0.68048 0.0
H337 H 0.26351 0.39056 0.65454 0.0
C338 C 0.23251 0.47142 0.6213 0.0
O339 O 0.22297 0.3622 0.54283 0.0
O340 O 0.24484 0.32102 0.57364 0.0
N341 N 0.20318 0.26878 0.67116 0.0
C342 C 0.18241 0.25045 0.67305 0.0
C343 C 0.17704 0.18831 0.68559 0.0
C344 C 0.19306 0.14589 0.69617 0.0
C345 C 0.21428 0.16661 0.69457 0.0
C346 C 0.21863 0.22957 0.68226 0.0
H347 H 0.17005 0.28273 0.66482 0.0
O348 O 0.20488 0.26437 0.58182 0.0
O349 O 0.21922 0.30728 0.62001 0.0
O350 O 0.18682 0.39289 0.59607 0.0
O351 O 0.1872 0.38368 0.64371 0.0
C352 C 0.23128 0.12717 0.70462 0.0
C353 C 0.25224 0.15146 0.7024 0.0
H354 H 0.2904 0.2146 0.69427 0.0
H355 H 0.29494 0.32698 0.67153 0.0
H356 H 0.16062 0.17287 0.68688 0.0
H357 H 0.18889 0.09762 0.7055 0.0
H358 H 0.22841 0.07801 0.71398 0.0
H359 H 0.26519 0.12053 0.71001 0.0
Mn360 Mn 0.04662 0.36945 0.66742 0.0
Mn361 Mn 0.04718 0.37135 0.59668 0.0
C362 C 0.05264 0.27206 0.64322 0.0
C363 C 0.0247 0.34339 0.70664 0.0
C364 C 0.08599 0.40581 0.63147 0.0
O365 O 0.03458 0.46333 0.65919 0.0
O366 O 0.03754 0.46008 0.61204 0.0
C367 C 1.00051 0.37874 0.59074 0.0
N368 N 0.01913 0.34616 0.5855 0.0
C369 C 1.00096 0.25511 0.56187 0.0
C370 C 0.98162 0.28794 0.56685 0.0
C371 C 0.9814 0.35002 0.58136 0.0
C372 C 0.01949 0.28623 0.57168 0.0
H373 H 1.00022 0.42611 0.60213 0.0
C374 C 0.03305 0.49115 0.63497 0.0
O375 O 0.04283 0.3737 0.71036 0.0
O376 O 0.01883 0.33665 0.68098 0.0
N377 N 0.05598 0.28926 0.57861 0.0
C378 C 0.07603 0.26605 0.5741 0.0
C379 C 0.07903 0.20459 0.55967 0.0
C380 C 0.06143 0.16827 0.54964 0.0
C381 C 0.04101 0.19463 0.55351 0.0
C382 C 0.03901 0.25636 0.56785 0.0
H383 H 0.08959 0.29354 0.58195 0.0
O384 O 0.05763 0.27646 0.66943 0.0
O385 O 0.04314 0.32396 0.632 0.0
O386 O 0.077 0.40238 0.65596 0.0
O387 O 0.07623 0.39437 0.60822 0.0
C388 C 0.02256 0.16229 0.54356 0.0
C389 C 1.00255 0.19251 0.54773 0.0
H390 H 0.96684 0.26582 0.55971 0.0
H391 H 0.96653 0.37554 0.5854 0.0
H392 H 0.09487 0.185 0.55649 0.0
H393 H 0.06378 0.12058 0.53875 0.0
H394 H 0.02363 0.11433 0.5326 0.0
H395 H 0.98848 0.16737 0.53994 0.0
Mn396 Mn 0.22346 0.88518 0.66695 0.0
Mn397 Mn 0.2222 0.8829 0.59617 0.0
C398 C 0.21727 0.98251 0.64272 0.0
C399 C 0.24549 0.91202 0.70613 0.0
C400 C 0.18373 0.84872 0.63154 0.0
O401 O 0.23542 0.79099 0.65852 0.0
O402 O 0.23195 0.79435 0.61141 0.0
C403 C 0.26879 0.87527 0.58942 0.0
N404 N 0.25013 0.90787 0.58449 0.0
C405 C 0.26804 0.99835 0.56026 0.0
C406 C 0.28742 0.96551 0.56491 0.0
C407 C 0.28779 0.90371 0.57958 0.0
C408 C 0.24962 0.96755 0.57054 0.0
H409 H 0.2692 0.8281 0.60091 0.0
C410 C 0.23667 0.76318 0.63422 0.0
O411 O 0.22743 0.88138 0.70986 0.0
O412 O 0.25135 0.91828 0.68043 0.0
N413 N 0.21322 0.96479 0.57816 0.0
C414 C 0.19312 0.98789 0.57391 0.0
C415 C 0.18996 0.04905 0.55937 0.0
C416 C 0.20746 0.08516 0.54894 0.0
C417 C 0.22792 0.05884 0.55253 0.0
C418 C 0.23006 0.99743 0.56702 0.0
H419 H 0.17964 0.96053 0.58204 0.0
O420 O 0.21247 0.97829 0.66898 0.0
O421 O 0.22666 0.93047 0.63142 0.0
O422 O 0.19296 0.85222 0.65589 0.0
O423 O 0.19326 0.86005 0.60816 0.0
C424 C 0.24625 0.09088 0.54213 0.0
C425 C 0.26629 0.06065 0.54598 0.0
H426 H 0.30212 0.98739 0.55741 0.0
H427 H 0.3027 0.87817 0.58337 0.0
H428 H 0.17409 0.06858 0.5564 0.0
H429 H 0.20499 0.13261 0.53795 0.0
H430 H 0.24505 0.13859 0.53105 0.0
H431 H 0.28028 0.08548 0.53781 0.0
Mn432 Mn 0.96046 0.14926 0.42122 0.0
Mn433 Mn 0.92747 0.04207 0.45553 0.0
C434 C 0.92476 0.14251 0.40721 0.0
C435 C 0.97456 0.2569 0.41308 0.0
C436 C 0.95717 0.99762 0.40997 0.0
O437 O 0.97885 0.12224 0.45549 0.0
O438 O 0.95505 0.05163 0.47459 0.0
C439 C 0.92115 0.1318 0.50477 0.0
N440 N 0.91299 0.09161 0.48414 0.0
C441 C 0.87789 0.10069 0.5034 0.0
C442 C 0.88593 0.14151 0.52514 0.0
C443 C 0.90763 0.15768 0.52567 0.0
C444 C 0.89209 0.07752 0.48292 0.0
H445 H 0.93785 0.14368 0.50526 0.0
C446 C 0.97343 0.07827 0.47395 0.0
O447 O 0.98383 0.20309 0.40324 0.0
O448 O 0.95942 0.2469 0.43106 0.0
N449 N 0.90002 0.02262 0.4408 0.0
C450 C 0.89502 0.98135 0.41879 0.0
C451 C 0.87397 0.95995 0.41522 0.0
C452 C 0.85835 0.98068 0.43436 0.0
C453 C 0.86397 0.02126 0.45742 0.0
C454 C 0.88524 0.04021 0.46011 0.0
H455 H 0.90717 0.96315 0.40474 0.0
O456 O 0.93934 0.16693 0.39115 0.0
O457 O 0.9311 0.12477 0.43254 0.0
O458 O 0.96584 0.05485 0.40521 0.0
O459 O 0.94179 0.98786 0.42692 0.0
C460 C 0.84943 0.04242 0.47817 0.0
C461 C 0.85636 0.08251 0.50106 0.0
H462 H 0.87557 0.16109 0.54141 0.0
H463 H 0.91393 0.1895 0.54226 0.0
H464 H 0.86988 0.92552 0.39841 0.0
H465 H 0.84224 0.96353 0.43154 0.0
H466 H 0.83287 0.02853 0.47666 0.0
H467 H 0.84499 0.09927 0.51667 0.0
Mn468 Mn 0.80543 0.58868 0.4182 0.0
Mn469 Mn 0.83902 0.68163 0.45768 0.0
C470 C 0.84157 0.58588 0.40629 0.0
C471 C 0.78632 0.4893 0.41047 0.0
C472 C 0.81034 0.73785 0.412 0.0
O473 O 0.78663 0.62923 0.44998 0.0
O474 O 0.81315 0.65592 0.47861 0.0
C475 C 0.85007 0.58151 0.50165 0.0
N476 N 0.85621 0.62726 0.48179 0.0
C477 C 0.89252 0.6207 0.49687 0.0
C478 C 0.88663 0.57355 0.51753 0.0
C479 C 0.86533 0.55345 0.51976 0.0
C480 C 0.87667 0.64592 0.47908 0.0
H481 H 0.83364 0.5671 0.5038 0.0
C482 C 0.79369 0.66049 0.47168 0.0
O483 O 0.78069 0.54631 0.39914 0.0
O484 O 0.80149 0.49172 0.42898 0.0
N485 N 0.86509 0.71048 0.44099 0.0
C486 C 0.86819 0.75636 0.41996 0.0
C487 C 0.88873 0.78078 0.4147 0.0
C488 C 0.90582 0.75824 0.4311 0.0
C489 C 0.9022 0.71234 0.45305 0.0
C490 C 0.8814 0.69003 0.45747 0.0
H491 H 0.85503 0.77547 0.4078 0.0
O492 O 0.82713 0.56041 0.39015 0.0
O493 O 0.83481 0.60554 0.43115 0.0
O494 O 0.80464 0.68187 0.40112 0.0
O495 O 0.82213 0.74316 0.43378 0.0
C496 C 0.91836 0.68878 0.47107 0.0
C497 C 0.91353 0.64296 0.49296 0.0
H498 H 0.89833 0.55219 0.53167 0.0
H499 H 0.86065 0.51706 0.53563 0.0
H500 H 0.8914 0.81844 0.39862 0.0
H501 H 0.92156 0.77761 0.42697 0.0
H502 H 0.93457 0.70531 0.46822 0.0
H503 H 0.92613 0.6246 0.50645 0.0
Mn504 Mn 0.96032 0.60815 0.33508 0.0
Mn505 Mn 0.9253 0.71159 0.30287 0.0
C506 C 0.92543 0.61283 0.353 0.0
C507 C 0.9747 0.5009 0.34362 0.0
C508 C 0.95608 0.76014 0.34603 0.0
O509 O 0.97698 0.63196 0.29903 0.0
O510 O 0.95265 0.70435 0.28302 0.0
C511 C 0.91931 0.61744 0.25498 0.0
N512 N 0.91098 0.65898 0.27502 0.0
C513 C 0.87567 0.64151 0.25747 0.0
C514 C 0.88387 0.59928 0.23633 0.0
C515 C 0.90578 0.58684 0.2352 0.0
C516 C 0.88993 0.6702 0.27665 0.0
H517 H 0.93615 0.60789 0.25415 0.0
C518 C 0.97094 0.6774 0.28164 0.0
O519 O 0.98452 0.55533 0.35183 0.0
O520 O 0.95885 0.50981 0.32667 0.0
N521 N 0.89781 0.73035 0.31757 0.0
C522 C 0.89253 0.77167 0.33944 0.0
C523 C 0.87119 0.78963 0.3435 0.0
C524 C 0.85564 0.76552 0.32488 0.0
C525 C 0.8615 0.72454 0.30211 0.0
C526 C 0.88302 0.70982 0.29871 0.0
H527 H 0.90461 0.79174 0.35322 0.0
O528 O 0.94149 0.59271 0.36734 0.0
O529 O 0.92984 0.62962 0.3267 0.0
O530 O 0.96606 0.70434 0.34919 0.0
O531 O 0.9395 0.76773 0.33093 0.0
C532 C 0.84683 0.69762 0.28268 0.0
C533 C 0.8539 0.65576 0.26047 0.0
H534 H 0.87348 0.57571 0.22101 0.0
H535 H 0.91223 0.55393 0.21909 0.0
H536 H 0.8667 0.8229 0.36058 0.0
H537 H 0.83928 0.77934 0.32801 0.0
H538 H 0.83007 0.7082 0.28482 0.0
H539 H 0.84247 0.6346 0.24588 0.0
Mn540 Mn 0.80358 0.13447 0.3425 0.0
Mn541 Mn 0.83922 0.0392 0.30647 0.0
C542 C 0.83923 0.13622 0.35763 0.0
C543 C 0.78533 0.23446 0.35235 0.0
C544 C 0.81104 0.98346 0.35152 0.0
O545 O 0.78599 0.10663 0.3076 0.0
O546 O 0.81145 0.04463 0.2876 0.0
C547 C 0.84324 0.13803 0.25995 0.0
N548 N 0.85241 0.09583 0.27906 0.0
C549 C 0.88715 0.11824 0.26054 0.0
C550 C 0.87809 0.16145 0.24039 0.0
C551 C 0.85604 0.1717 0.24022 0.0
C552 C 0.87359 0.08663 0.27977 0.0
H553 H 0.82629 0.14568 0.25981 0.0
C554 C 0.79248 0.06646 0.28835 0.0
O555 O 0.77846 0.17618 0.36102 0.0
O556 O 0.80127 0.23379 0.33506 0.0
N557 N 0.86719 0.02194 0.31985 0.0
C558 C 0.87324 0.97743 0.34019 0.0
C559 C 0.89474 0.96017 0.34296 0.0
C560 C 0.90975 0.98819 0.32453 0.0
C561 C 0.90307 0.03188 0.30302 0.0
C562 C 0.88137 0.04563 0.30085 0.0
H563 H 0.86157 0.95384 0.35354 0.0
O564 O 0.82358 0.15505 0.37315 0.0
O565 O 0.83394 0.11889 0.33164 0.0
O566 O 0.80084 0.0377 0.35669 0.0
O567 O 0.82635 0.97864 0.33407 0.0
C568 C 0.91703 0.06203 0.28355 0.0
C569 C 0.90909 0.1056 0.26245 0.0
H570 H 0.88791 0.18729 0.22508 0.0
H571 H 0.84893 0.20522 0.22485 0.0
H572 H 0.89968 0.92418 0.3588 0.0
H573 H 0.9263 0.97496 0.32676 0.0
H574 H 0.93391 0.05244 0.28474 0.0
H575 H 0.92 0.12906 0.24778 0.0
Mn576 Mn 0.54939 0.39125 0.58751 0.0
Mn577 Mn 0.55209 0.39275 0.65807 0.0
C578 C 0.55741 0.48932 0.61055 0.0
C579 C 0.52532 0.41892 0.55019 0.0
C580 C 0.58918 0.3499 0.62154 0.0
O581 O 0.53659 0.29915 0.59732 0.0
O582 O 0.54034 0.30503 0.64432 0.0
C583 C 0.50561 0.39563 0.66642 0.0
N584 N 0.52499 0.42449 0.67037 0.0
C585 C 0.50941 0.52175 0.69297 0.0
C586 C 0.4893 0.49282 0.68932 0.0
C587 C 0.4874 0.42948 0.67599 0.0
C588 C 0.52698 0.48557 0.68305 0.0
H589 H 0.50404 0.34736 0.65588 0.0
C590 C 0.53512 0.273 0.62188 0.0
O591 O 0.54291 0.38698 0.54485 0.0
O592 O 0.52134 0.42719 0.57632 0.0
N593 N 0.5631 0.47383 0.6747 0.0
C594 C 0.58372 0.49225 0.67839 0.0
C595 C 0.58845 0.55369 0.69201 0.0
C596 C 0.57194 0.595 0.70199 0.0
C597 C 0.55088 0.57347 0.69904 0.0
C598 C 0.54718 0.51131 0.68565 0.0
H599 H 0.59644 0.46068 0.67067 0.0
O600 O 0.56144 0.48318 0.58412 0.0
O601 O 0.5478 0.43881 0.62256 0.0
O602 O 0.57979 0.35503 0.59733 0.0
O603 O 0.58018 0.36339 0.64511 0.0
C604 C 0.53343 0.61098 0.70901 0.0
C605 C 0.5127 0.58521 0.70591 0.0
H606 H 0.47521 0.51888 0.69659 0.0
H607 H 0.47192 0.40697 0.67297 0.0
H608 H 0.60476 0.56944 0.69458 0.0
H609 H 0.57563 0.64273 0.71218 0.0
H610 H 0.53579 0.65954 0.71916 0.0
H611 H 0.4994 0.6144 0.71365 0.0
Mn612 Mn 0.72252 0.86227 0.58515 0.0
Mn613 Mn 0.72176 0.85852 0.65601 0.0
C614 C 0.71652 0.76307 0.60813 0.0
C615 C 0.74425 0.83913 0.54531 0.0
C616 C 0.68331 0.89868 0.62143 0.0
O617 O 0.73485 0.95502 0.59497 0.0
O618 O 0.73236 0.94738 0.64213 0.0
C619 C 0.7684 0.86055 0.66294 0.0
N620 N 0.74941 0.8296 0.6674 0.0
C621 C 0.76633 0.73558 0.69063 0.0
C622 C 0.78605 0.76668 0.68643 0.0
C623 C 0.78708 0.82941 0.67251 0.0
C624 C 0.74825 0.76904 0.68063 0.0
H625 H 0.7693 0.9085 0.65206 0.0
C626 C 0.73682 0.98034 0.61967 0.0
O627 O 0.72615 0.87008 0.54229 0.0
O628 O 0.75023 0.82989 0.57082 0.0
N629 N 0.71194 0.77588 0.67265 0.0
C630 C 0.69161 0.75427 0.67628 0.0
C631 C 0.68779 0.69259 0.69015 0.0
C632 C 0.70487 0.65427 0.70047 0.0
C633 C 0.72559 0.67875 0.69737 0.0
C634 C 0.7284 0.7409 0.68363 0.0
H635 H 0.67845 0.78333 0.66825 0.0
O636 O 0.71134 0.76933 0.58204 0.0
O637 O 0.72591 0.81435 0.61995 0.0
O638 O 0.69222 0.89543 0.59691 0.0
O639 O 0.69302 0.88544 0.64452 0.0
C640 C 0.74355 0.64409 0.7075 0.0
C641 C 0.76391 0.67241 0.70411 0.0
H642 H 0.8005 0.74274 0.69371 0.0
H643 H 0.80225 0.8536 0.66908 0.0
H644 H 0.67173 0.67439 0.69268 0.0
H645 H 0.70188 0.60643 0.71093 0.0
H646 H 0.74186 0.5957 0.71796 0.0
H647 H 0.77761 0.64524 0.71196 0.0
Mn648 Mn 0.55228 0.8632 0.66864 0.0
Mn649 Mn 0.55349 0.86008 0.59805 0.0
C650 C 0.55956 0.76436 0.64568 0.0
C651 C 0.5289 0.83697 0.70682 0.0
C652 C 0.59137 0.9035 0.63315 0.0
O653 O 0.5393 0.95507 0.65889 0.0
O654 O 0.54188 0.94808 0.61178 0.0
C655 C 0.50686 0.85645 0.59127 0.0
N656 N 0.52619 0.82778 0.58674 0.0
C657 C 0.51027 0.72982 0.56506 0.0
C658 C 0.49021 0.75856 0.5693 0.0
C659 C 0.4885 0.82215 0.58246 0.0
C660 C 0.52799 0.76645 0.57422 0.0
H661 H 0.50544 0.90489 0.60171 0.0
C662 C 0.53719 0.98065 0.63431 0.0
O663 O 0.54666 0.86861 0.7115 0.0
O664 O 0.52445 0.82795 0.68087 0.0
N665 N 0.56424 0.77856 0.58149 0.0
C666 C 0.58481 0.75993 0.57745 0.0
C667 C 0.58932 0.6982 0.56394 0.0
C668 C 0.57267 0.65668 0.55452 0.0
C669 C 0.55166 0.67826 0.55794 0.0
C670 C 0.54816 0.74079 0.57113 0.0
H671 H 0.59765 0.79159 0.58476 0.0
O672 O 0.56428 0.77107 0.6719 0.0
O673 O 0.54985 0.81497 0.63388 0.0
O674 O 0.58248 0.89882 0.65769 0.0
O675 O 0.58183 0.88994 0.60996 0.0
C676 C 0.53406 0.64037 0.54867 0.0
C677 C 0.51337 0.66605 0.55231 0.0
H678 H 0.47601 0.73215 0.56263 0.0
H679 H 0.47306 0.8445 0.58595 0.0
H680 H 0.60559 0.68237 0.56104 0.0
H681 H 0.5762 0.6087 0.54446 0.0
H682 H 0.53626 0.59152 0.53869 0.0
H683 H 0.49996 0.63651 0.54515 0.0
Mn684 Mn 0.72038 0.39034 0.66774 0.0
Mn685 Mn 0.71956 0.39357 0.59694 0.0
C686 C 0.71446 0.48942 0.64456 0.0
C687 C 0.74217 0.4145 0.70749 0.0
C688 C 0.68118 0.35332 0.63158 0.0
O689 O 0.73289 0.29768 0.65807 0.0
O690 O 0.73028 0.30491 0.6109 0.0
C691 C 0.76619 0.39174 0.58994 0.0
N692 N 0.74717 0.42259 0.5855 0.0
C693 C 0.76403 0.51701 0.5625 0.0
C694 C 0.78377 0.486 0.56667 0.0
C695 C 0.78484 0.42311 0.58046 0.0
C696 C 0.74597 0.48325 0.57235 0.0
H697 H 0.76712 0.34372 0.60076 0.0
C698 C 0.73483 0.27214 0.6334 0.0
O699 O 0.72415 0.38323 0.71065 0.0
O700 O 0.74805 0.42338 0.68194 0.0
N701 N 0.70968 0.47622 0.58036 0.0
C702 C 0.68935 0.49815 0.57703 0.0
C703 C 0.6855 0.56003 0.56333 0.0
C704 C 0.70255 0.59841 0.553 0.0
C705 C 0.72327 0.57381 0.55594 0.0
C706 C 0.72611 0.51134 0.56941 0.0
H707 H 0.67621 0.46919 0.58516 0.0
O708 O 0.70909 0.48329 0.67058 0.0
O709 O 0.72379 0.43788 0.63292 0.0
O710 O 0.69015 0.35668 0.65607 0.0
O711 O 0.69083 0.36653 0.60847 0.0
C712 C 0.74122 0.6088 0.546 0.0
C713 C 0.76159 0.58048 0.54928 0.0
H714 H 0.79821 0.51016 0.5595 0.0
H715 H 0.80003 0.39901 0.58388 0.0
H716 H 0.66944 0.57841 0.56099 0.0
H717 H 0.69955 0.64648 0.54273 0.0
H718 H 0.7395 0.65754 0.53587 0.0
H719 H 0.77527 0.60797 0.5416 0.0
Mn720 Mn 0.45937 0.64284 0.41992 0.0
Mn721 Mn 0.42612 0.53325 0.45243 0.0
C722 C 0.42419 0.63517 0.40307 0.0
C723 C 0.47284 0.75158 0.41227 0.0
C724 C 0.4575 0.49097 0.40859 0.0
O725 O 0.47684 0.61804 0.45523 0.0
O726 O 0.45306 0.54564 0.47278 0.0
C727 C 0.41771 0.62488 0.50046 0.0
N728 N 0.41046 0.58217 0.4801 0.0
C729 C 0.3747 0.59127 0.49706 0.0
C730 C 0.38178 0.63479 0.51849 0.0
C731 C 0.40337 0.65199 0.52009 0.0
C732 C 0.38972 0.5662 0.47808 0.0
H733 H 0.43431 0.63791 0.50167 0.0
C734 C 0.47122 0.57363 0.47332 0.0
O735 O 0.48293 0.69841 0.4033 0.0
O736 O 0.45721 0.74056 0.42937 0.0
N737 N 0.39925 0.50897 0.4371 0.0
C738 C 0.39515 0.46647 0.41519 0.0
C739 C 0.37432 0.4441 0.41051 0.0
C740 C 0.35801 0.46459 0.42871 0.0
C741 C 0.36274 0.50624 0.45182 0.0
C742 C 0.38386 0.52562 0.45574 0.0
H743 H 0.40784 0.44841 0.40196 0.0
O744 O 0.43968 0.65879 0.3885 0.0
O745 O 0.42939 0.61669 0.42895 0.0
O746 O 0.46597 0.54876 0.40441 0.0
O747 O 0.44167 0.48004 0.42466 0.0
C748 C 0.34738 0.52951 0.47109 0.0
C749 C 0.35333 0.57233 0.49358 0.0
H750 H 0.37076 0.65569 0.53368 0.0
H751 H 0.40894 0.68584 0.53645 0.0
H752 H 0.37089 0.41015 0.39325 0.0
H753 H 0.342 0.44731 0.42491 0.0
H754 H 0.33093 0.5154 0.46869 0.0
H755 H 0.34133 0.59061 0.50802 0.0
Mn756 Mn 0.30361 0.09727 0.41658 0.0
Mn757 Mn 0.33914 0.19518 0.45163 0.0
C758 C 0.33918 0.09764 0.40213 0.0
C759 C 0.28566 0.99587 0.40785 0.0
C760 C 0.31022 0.24831 0.407 0.0
O761 O 0.28611 0.12719 0.45134 0.0
O762 O 0.31156 0.19085 0.47092 0.0
C763 C 0.34377 0.10142 0.4998 0.0
N764 N 0.35269 0.14038 0.47935 0.0
C765 C 0.38768 0.12053 0.49757 0.0
C766 C 0.3789 0.08054 0.51902 0.0
C767 C 0.35685 0.07046 0.51999 0.0
C768 C 0.37387 0.14884 0.47774 0.0
H769 H 0.32681 0.09442 0.50072 0.0
C770 C 0.29259 0.1688 0.4702 0.0
O771 O 0.27867 0.0533 0.39836 0.0
O772 O 0.30166 0.99833 0.42505 0.0
N773 N 0.36685 0.20941 0.43671 0.0
C774 C 0.37262 0.25149 0.41533 0.0
C775 C 0.39408 0.26806 0.41172 0.0
C776 C 0.40937 0.24162 0.43014 0.0
C777 C 0.40301 0.20037 0.4526 0.0
C778 C 0.38136 0.18638 0.4554 0.0
H779 H 0.36083 0.27378 0.40171 0.0
O780 O 0.32409 0.07617 0.38609 0.0
O781 O 0.33345 0.11482 0.42778 0.0
O782 O 0.30048 0.19326 0.40173 0.0
O783 O 0.32582 0.25439 0.42391 0.0
C784 C 0.41721 0.17374 0.47267 0.0
C785 C 0.40957 0.1334 0.49503 0.0
H786 H 0.38893 0.05717 0.53479 0.0
H787 H 0.34995 0.03952 0.53641 0.0
H788 H 0.3988 0.30305 0.39545 0.0
H789 H 0.42585 0.25479 0.42724 0.0
H790 H 0.43405 0.18369 0.47102 0.0
H791 H 0.42066 0.11258 0.51014 0.0
Mn792 Mn 0.45909 0.10297 0.33356 0.0
Mn793 Mn 0.42522 0.20864 0.30019 0.0
C794 C 0.42388 0.10954 0.35039 0.0
C795 C 0.47291 0.99518 0.34246 0.0
C796 C 0.4559 0.25532 0.34405 0.0
O797 O 0.47649 0.1262 0.29801 0.0
O798 O 0.45256 0.19833 0.28079 0.0
C799 C 0.41858 0.11402 0.25261 0.0
N800 N 0.41054 0.15689 0.27238 0.0
C801 C 0.37518 0.14272 0.25452 0.0
C802 C 0.38306 0.09905 0.23367 0.0
C803 C 0.40485 0.0843 0.23283 0.0
C804 C 0.38962 0.17037 0.27372 0.0
H805 H 0.43532 0.10277 0.25199 0.0
C806 C 0.47078 0.17091 0.2801 0.0
O807 O 0.48282 0.04921 0.35091 0.0
O808 O 0.4573 0.00465 0.32515 0.0
N809 N 0.39787 0.23083 0.31441 0.0
C810 C 0.393 0.27461 0.33559 0.0
C811 C 0.37189 0.29515 0.33935 0.0
C812 C 0.35614 0.27164 0.32088 0.0
C813 C 0.36164 0.22883 0.29851 0.0
C814 C 0.38299 0.21138 0.29549 0.0
H815 H 0.4053 0.29518 0.34885 0.0
O816 O 0.43956 0.08822 0.3652 0.0
O817 O 0.42889 0.12654 0.32429 0.0
O818 O 0.46519 0.19862 0.3479 0.0
O819 O 0.43978 0.26408 0.32818 0.0
C820 C 0.34681 0.20288 0.27908 0.0
C821 C 0.35356 0.15946 0.2572 0.0
H822 H 0.37252 0.07618 0.21835 0.0
H823 H 0.41105 0.05031 0.21694 0.0
H824 H 0.3678 0.33004 0.35603 0.0
H825 H 0.33995 0.28761 0.32369 0.0
H826 H 0.33016 0.2155 0.28093 0.0
H827 H 0.34199 0.13914 0.24259 0.0
Mn828 Mn 0.30354 0.64283 0.33767 0.0
Mn829 Mn 0.33916 0.54807 0.3015 0.0
C830 C 0.33921 0.64322 0.35172 0.0
C831 C 0.28533 0.74264 0.3482 0.0
C832 C 0.31137 0.49173 0.34651 0.0
O833 O 0.28584 0.61466 0.30285 0.0
O834 O 0.31103 0.55017 0.28326 0.0
C835 C 0.34178 0.64204 0.25314 0.0
N836 N 0.35155 0.6045 0.27339 0.0
C837 C 0.38593 0.62885 0.25411 0.0
C838 C 0.37628 0.66791 0.23302 0.0
C839 C 0.35411 0.67491 0.23266 0.0
C840 C 0.37285 0.59866 0.27431 0.0
H841 H 0.32472 0.64635 0.25256 0.0
C842 C 0.29203 0.57206 0.28422 0.0
O843 O 0.27857 0.68411 0.35676 0.0
O844 O 0.3011 0.74236 0.33064 0.0
N845 N 0.36736 0.53609 0.31523 0.0
C846 C 0.37403 0.49378 0.33608 0.0
C847 C 0.39572 0.4793 0.3388 0.0
C848 C 0.41033 0.50793 0.31997 0.0
C849 C 0.40304 0.54938 0.29807 0.0
C850 C 0.38121 0.56129 0.29617 0.0
H851 H 0.36276 0.46979 0.34995 0.0
O852 O 0.32412 0.66262 0.36817 0.0
O853 O 0.33341 0.62748 0.32591 0.0
O854 O 0.3009 0.54564 0.35137 0.0
O855 O 0.32707 0.4875 0.32968 0.0
C856 C 0.41652 0.57817 0.27766 0.0
C857 C 0.40799 0.61839 0.25583 0.0
H858 H 0.38572 0.69263 0.21698 0.0
H859 H 0.34653 0.70487 0.21643 0.0
H860 H 0.40115 0.44435 0.35471 0.0
H861 H 0.42702 0.49632 0.32208 0.0
H862 H 0.43348 0.56992 0.27861 0.0
H863 H 0.41852 0.64074 0.24041 0.0
Mn864 Mn 0.54776 0.88133 0.08265 0.0
Mn865 Mn 0.5475 0.88678 0.15345 0.0
C866 C 0.55367 0.98126 0.10525 0.0
C867 C 0.52619 0.90098 0.04234 0.0
C868 C 0.58656 0.84664 0.12024 0.0
O869 O 0.53537 0.78875 0.09252 0.0
O870 O 0.53733 0.79721 0.13963 0.0
C871 C 0.50073 0.88386 0.15837 0.0
N872 N 0.51954 0.91544 0.16346 0.0
C873 C 0.50186 0.01064 0.18477 0.0
C874 C 0.48231 0.97895 0.17989 0.0
C875 C 0.48175 0.91528 0.16663 0.0
C876 C 0.52024 0.97687 0.17607 0.0
H877 H 0.50019 0.83522 0.14796 0.0
C878 C 0.53312 0.76379 0.11718 0.0
O879 O 0.54448 0.87097 0.03981 0.0
O880 O 0.52014 0.91271 0.06762 0.0
N881 N 0.55677 0.9699 0.17026 0.0
C882 C 0.57695 0.99113 0.17539 0.0
C883 C 0.58033 0.05322 0.1892 0.0
C884 C 0.56293 0.09226 0.19798 0.0
C885 C 0.54232 0.06791 0.19356 0.0
C886 C 0.53996 0.00531 0.17999 0.0
H887 H 0.59037 0.96144 0.1686 0.0
O888 O 0.55891 0.97425 0.07921 0.0
O889 O 0.54408 0.93041 0.11713 0.0
O890 O 0.57796 0.84887 0.09545 0.0
O891 O 0.57651 0.86029 0.14303 0.0
C892 C 0.52404 0.10298 0.20231 0.0
C893 C 0.50382 0.07447 0.19784 0.0
H894 H 0.46764 0.00308 0.1862 0.0
H895 H 0.46673 0.89059 0.1627 0.0
H896 H 0.5963 0.07119 0.19287 0.0
H897 H 0.56558 0.14043 0.20838 0.0
H898 H 0.52539 0.15172 0.21259 0.0
H899 H 0.48986 0.10177 0.20467 0.0
Mn900 Mn 0.71905 0.35631 0.08768 0.0
Mn901 Mn 0.71694 0.35372 0.15832 0.0
C902 C 0.71222 0.25751 0.11068 0.0
C903 C 0.74231 0.33031 0.04941 0.0
C904 C 0.67924 0.39398 0.12236 0.0
O905 O 0.73153 0.44888 0.09756 0.0
O906 O 0.72784 0.44237 0.14457 0.0
C907 C 0.76348 0.35534 0.16623 0.0
N908 N 0.7444 0.32475 0.17044 0.0
C909 C 0.76097 0.2302 0.19368 0.0
C910 C 0.78078 0.26094 0.18978 0.0
C911 C 0.78204 0.32376 0.17597 0.0
C912 C 0.74303 0.2641 0.18355 0.0
H913 H 0.76456 0.40327 0.15537 0.0
C914 C 0.73285 0.4749 0.12219 0.0
O915 O 0.72448 0.36167 0.04485 0.0
O916 O 0.74701 0.32222 0.07537 0.0
N917 N 0.70683 0.27133 0.17484 0.0
C918 C 0.68645 0.24971 0.17788 0.0
C919 C 0.68242 0.18788 0.19153 0.0
C920 C 0.69934 0.14932 0.20214 0.0
C921 C 0.72012 0.17372 0.19958 0.0
C922 C 0.72313 0.23612 0.18611 0.0
H923 H 0.67341 0.27889 0.16956 0.0
O924 O 0.70755 0.26366 0.08442 0.0
O925 O 0.72153 0.30872 0.12262 0.0
O926 O 0.68863 0.39069 0.09814 0.0
O927 O 0.68846 0.38062 0.14581 0.0
C928 C 0.73795 0.13869 0.20992 0.0
C929 C 0.75836 0.16688 0.20692 0.0
H930 H 0.79514 0.23659 0.19716 0.0
H931 H 0.79728 0.34764 0.17273 0.0
H932 H 0.66632 0.16968 0.19362 0.0
H933 H 0.6962 0.1013 0.21236 0.0
H934 H 0.73612 0.09011 0.22022 0.0
H935 H 0.77197 0.13954 0.21485 0.0
Mn936 Mn 0.54758 0.3538 0.16492 0.0
Mn937 Mn 0.5501 0.35209 0.09432 0.0
C938 C 0.55522 0.25547 0.14177 0.0
C939 C 0.52388 0.32691 0.20258 0.0
C940 C 0.58719 0.39569 0.13083 0.0
O941 O 0.53478 0.44588 0.15502 0.0
O942 O 0.53806 0.43931 0.10796 0.0
C943 C 0.50365 0.34747 0.08573 0.0
N944 N 0.52314 0.31938 0.08186 0.0
C945 C 0.50797 0.22145 0.05923 0.0
C946 C 0.48774 0.24961 0.06276 0.0
C947 C 0.48558 0.31291 0.07607 0.0
C948 C 0.52538 0.2584 0.06918 0.0
H949 H 0.50189 0.39565 0.09628 0.0
C950 C 0.53307 0.47166 0.13041 0.0
O951 O 0.54154 0.35884 0.20761 0.0
O952 O 0.51963 0.31821 0.17653 0.0
N953 N 0.56143 0.27128 0.07792 0.0
C954 C 0.58212 0.25322 0.07466 0.0
C955 C 0.5871 0.19186 0.06116 0.0
C956 C 0.57076 0.15008 0.05099 0.0
C957 C 0.54963 0.17111 0.05363 0.0
C958 C 0.54568 0.23335 0.06679 0.0
H959 H 0.59472 0.28503 0.08259 0.0
O960 O 0.55953 0.26156 0.16815 0.0
O961 O 0.54576 0.30639 0.12988 0.0
O962 O 0.5779 0.38995 0.15505 0.0
O963 O 0.57811 0.3825 0.10729 0.0
C964 C 0.53235 0.13282 0.0437 0.0
C965 C 0.51152 0.15787 0.0465 0.0
H966 H 0.47376 0.22298 0.05546 0.0
H967 H 0.47002 0.3348 0.07902 0.0
H968 H 0.60346 0.17646 0.05887 0.0
H969 H 0.57463 0.10231 0.04097 0.0
H970 H 0.53495 0.08404 0.03394 0.0
H971 H 0.49836 0.12787 0.03877 0.0
Mn972 Mn 0.71748 0.88446 0.16975 0.0
Mn973 Mn 0.71647 0.88705 0.09906 0.0
C974 C 0.71081 0.98324 0.14652 0.0
C975 C 0.7406 0.91142 0.2083 0.0
C976 C 0.67844 0.84431 0.13399 0.0
O977 O 0.73031 0.79224 0.16012 0.0
O978 O 0.72799 0.79931 0.11293 0.0
C979 C 0.76308 0.88987 0.09206 0.0
N980 N 0.74376 0.9187 0.08754 0.0
C981 C 0.7597 0.01532 0.065 0.0
C982 C 0.77975 0.9864 0.06922 0.0
C983 C 0.78143 0.92341 0.08282 0.0
C984 C 0.74198 0.97946 0.07459 0.0
H985 H 0.76447 0.84186 0.10281 0.0
C986 C 0.73261 0.76688 0.13548 0.0
O987 O 0.7228 0.8799 0.21272 0.0
O988 O 0.74533 0.9193 0.18238 0.0
N989 N 0.70577 0.96863 0.08253 0.0
C990 C 0.68522 0.9883 0.07915 0.0
C991 C 0.68075 0.04998 0.06562 0.0
C992 C 0.69743 0.09039 0.05549 0.0
C993 C 0.7184 0.06797 0.05841 0.0
C994 C 0.72185 0.00558 0.07169 0.0
H995 H 0.67237 0.95754 0.08701 0.0
O996 O 0.70576 0.97705 0.17264 0.0
O997 O 0.7203 0.93201 0.1349 0.0
O998 O 0.68721 0.84938 0.15861 0.0
O999 O 0.6881 0.85754 0.1109 0.0
C1000 C 0.73601 0.10501 0.04864 0.0
C1001 C 0.75665 0.07876 0.05199 0.0
H1002 H 0.79395 0.01229 0.06225 0.0
H1003 H 0.79685 0.90094 0.08632 0.0
H1004 H 0.66452 0.06664 0.06323 0.0
H1005 H 0.69394 0.13832 0.04538 0.0
H1006 H 0.73385 0.15372 0.03855 0.0
H1007 H 0.77007 0.1077 0.04454 0.0
Mn1008 Mn 0.46274 0.15284 0.91966 0.0
Mn1009 Mn 0.42981 0.0541 0.95734 0.0
C1010 C 0.42647 0.15348 0.90718 0.0
C1011 C 0.47899 0.25763 0.91339 0.0
C1012 C 0.45931 0.0037 0.91105 0.0
O1013 O 0.48199 0.11216 0.95101 0.0
O1014 O 0.45527 0.08314 0.97838 0.0
C1015 C 0.41739 0.14863 0.00288 0.0
N1016 N 0.4119 0.10398 0.98223 0.0
C1017 C 0.3756 0.10297 0.99761 0.0
C1018 C 0.38084 0.14894 0.01906 0.0
C1019 C 0.4018 0.17229 0.02156 0.0
C1020 C 0.39175 0.08206 0.97936 0.0
H1021 H 0.43359 0.16546 0.00524 0.0
C1022 C 0.47465 0.07722 0.97149 0.0
O1023 O 0.48664 0.20348 0.90161 0.0
O1024 O 0.46451 0.24834 0.9324 0.0
N1025 N 0.40416 0.02311 0.94017 0.0
C1026 C 0.40165 0.97959 0.91813 0.0
C1027 C 0.38145 0.95306 0.91232 0.0
C1028 C 0.36414 0.97097 0.92923 0.0
C1029 C 0.36714 0.0148 0.95209 0.0
C1030 C 0.38761 0.03952 0.95697 0.0
H1031 H 0.41504 0.96395 0.90558 0.0
O1032 O 0.44091 0.18047 0.89163 0.0
O1033 O 0.43324 0.13202 0.93175 0.0
O1034 O 0.465 0.06087 0.90118 0.0
O1035 O 0.44738 0.99668 0.93261 0.0
C1036 C 0.35069 0.03402 0.9705 0.0
C1037 C 0.35492 0.07805 0.99327 0.0
H1038 H 0.36888 0.16701 0.0336 0.0
H1039 H 0.40597 0.20779 0.03805 0.0
H1040 H 0.37925 0.91737 0.89533 0.0
H1041 H 0.3487 0.94974 0.92481 0.0
H1042 H 0.33472 0.01545 0.96726 0.0
H1043 H 0.3421 0.09312 0.00708 0.0
Mn1044 Mn 0.30735 0.60195 0.9175 0.0
Mn1045 Mn 0.34218 0.69948 0.95399 0.0
C1046 C 0.34304 0.6034 0.90263 0.0
C1047 C 0.28986 0.50014 0.90759 0.0
C1048 C 0.31418 0.75387 0.90872 0.0
O1049 O 0.28927 0.62857 0.95209 0.0
O1050 O 0.31406 0.69384 0.97175 0.0
C1051 C 0.34534 0.60099 1.00072 0.0
N1052 N 0.35488 0.64299 0.98187 0.0
C1053 C 0.38927 0.62031 1.0015 0.0
C1054 C 0.37983 0.57724 0.02137 0.0
C1055 C 0.35777 0.56722 0.02086 0.0
C1056 C 0.37608 0.65192 0.98179 0.0
H1057 H 0.32839 0.59356 1.00037 0.0
C1058 C 0.29526 0.67067 0.97092 0.0
O1059 O 0.28267 0.55777 0.89858 0.0
O1060 O 0.30575 0.50244 0.92495 0.0
N1061 N 0.3704 0.71724 0.94167 0.0
C1062 C 0.37682 0.76224 0.9217 0.0
C1063 C 0.39839 0.77941 0.9197 0.0
C1064 C 0.41305 0.75116 0.9386 0.0
C1065 C 0.40597 0.70704 0.95971 0.0
C1066 C 0.38424 0.69309 0.96104 0.0
H1067 H 0.36543 0.78603 0.908 0.0
O1068 O 0.32762 0.58296 0.88705 0.0
O1069 O 0.33755 0.61984 0.92864 0.0
O1070 O 0.30411 0.69913 0.90365 0.0
O1071 O 0.32968 0.75927 0.92588 0.0
C1072 C 0.41956 0.67676 0.97963 0.0
C1073 C 0.41124 0.63301 1.00038 0.0
H1074 H 0.38936 0.55141 0.03702 0.0
H1075 H 0.35037 0.53386 0.03603 0.0
H1076 H 0.40367 0.81542 0.90408 0.0
H1077 H 0.42963 0.7645 0.937 0.0
H1078 H 0.43644 0.6865 0.97908 0.0
H1079 H 0.42186 0.60955 0.01542 0.0
Mn1080 Mn 0.46366 0.60984 0.83721 0.0
Mn1081 Mn 0.4294 0.71543 0.80436 0.0
C1082 C 0.42819 0.61387 0.85225 0.0
C1083 C 0.47851 0.50317 0.84524 0.0
C1084 C 0.45935 0.76075 0.84934 0.0
O1085 O 0.48123 0.63746 0.80225 0.0
O1086 O 0.45691 0.7088 0.7849 0.0
C1087 C 0.42337 0.62761 0.75445 0.0
N1088 N 0.41508 0.6661 0.77553 0.0
C1089 C 0.37993 0.65566 0.75648 0.0
C1090 C 0.38809 0.61654 0.73431 0.0
C1091 C 0.40988 0.60189 0.73344 0.0
C1092 C 0.3941 0.67875 0.77704 0.0
H1093 H 0.44015 0.61699 0.75366 0.0
C1094 C 0.47536 0.68253 0.78448 0.0
O1095 O 0.48764 0.55774 0.85457 0.0
O1096 O 0.46297 0.51185 0.82772 0.0
N1097 N 0.40192 0.73198 0.81958 0.0
C1098 C 0.39676 0.77149 0.84207 0.0
C1099 C 0.37559 0.79108 0.84607 0.0
C1100 C 0.35999 0.77039 0.82684 0.0
C1101 C 0.36576 0.73159 0.80333 0.0
C1102 C 0.38714 0.71437 0.80025 0.0
H1103 H 0.40887 0.78978 0.85621 0.0
O1104 O 0.4433 0.59157 0.86799 0.0
O1105 O 0.43389 0.63202 0.82671 0.0
O1106 O 0.46886 0.70451 0.85305 0.0
O1107 O 0.44345 0.76961 0.83319 0.0
C1108 C 0.35124 0.7105 0.7825 0.0
C1109 C 0.35829 0.67218 0.75919 0.0
H1110 H 0.37775 0.5971 0.71796 0.0
H1111 H 0.41629 0.57142 0.7165 0.0
H1112 H 0.37138 0.82401 0.86333 0.0
H1113 H 0.34377 0.78615 0.82997 0.0
H1114 H 0.3346 0.7231 0.78427 0.0
H1115 H 0.34694 0.65546 0.74353 0.0
Mn1116 Mn 0.30707 0.14661 0.83714 0.0
Mn1117 Mn 0.34297 0.04815 0.80301 0.0
C1118 C 0.34222 0.1455 0.85392 0.0
C1119 C 0.28929 0.24803 0.84654 0.0
C1120 C 0.3134 0.99494 0.84653 0.0
O1121 O 0.2902 0.1195 0.80159 0.0
O1122 O 0.31544 0.05329 0.78345 0.0
C1123 C 0.3478 0.14455 0.7558 0.0
N1124 N 0.35666 0.10376 0.77569 0.0
C1125 C 0.39174 0.12651 0.75842 0.0
C1126 C 0.38303 0.16867 0.73763 0.0
C1127 C 0.36096 0.17799 0.73642 0.0
C1128 C 0.37784 0.09519 0.77731 0.0
H1129 H 0.33082 0.1512 0.75474 0.0
C1130 C 0.2966 0.07641 0.78338 0.0
O1131 O 0.28178 0.19006 0.85461 0.0
O1132 O 0.30558 0.24638 0.82984 0.0
N1133 N 0.37072 0.03103 0.81736 0.0
C1134 C 0.37646 0.98713 0.83816 0.0
C1135 C 0.39795 0.97022 0.8416 0.0
C1136 C 0.41325 0.99834 0.82367 0.0
C1137 C 0.40692 0.04155 0.80183 0.0
C1138 C 0.38525 0.05479 0.79883 0.0
H1139 H 0.36465 0.96404 0.8515 0.0
O1140 O 0.32632 0.16574 0.86866 0.0
O1141 O 0.33754 0.12869 0.82766 0.0
O1142 O 0.30338 0.04988 0.85103 0.0
O1143 O 0.32949 0.98878 0.83047 0.0
C1144 C 0.42123 0.07162 0.7828 0.0
C1145 C 0.41366 0.11447 0.76122 0.0
H1146 H 0.39312 0.19425 0.72257 0.0
H1147 H 0.35411 0.21051 0.72048 0.0
H1148 H 0.40278 0.93453 0.85761 0.0
H1149 H 0.42975 0.98554 0.82664 0.0
H1150 H 0.4381 0.06241 0.78465 0.0
H1151 H 0.42482 0.13777 0.74686 0.0
C1152 C 0.07249 0.65904 0.12612 0.0
C1153 C 0.05319 0.69349 0.12883 0.0
C1154 C 0.0728 0.59073 0.11865 0.0
C1155 C 0.05382 0.55451 0.11599 0.0
H1156 H 0.08736 0.68526 0.12954 0.0
H1157 H 0.0879 0.56579 0.11539 0.0
S1158 S 0.99927 0.62157 0.12228 0.0
N1159 N 0.01475 0.68728 0.12885 0.0
N1160 N 0.01533 0.55729 0.11576 0.0
C1161 C 0.03443 0.58816 0.11902 0.0
C1162 C 0.03411 0.65817 0.12561 0.0
C1163 C 0.19245 0.65218 0.12064 0.0
C1164 C 0.21134 0.68887 0.1182 0.0
C1165 C 0.19293 0.58393 0.12803 0.0
C1166 C 0.21232 0.55003 0.13083 0.0
H1167 H 0.17729 0.67673 0.11733 0.0
H1168 H 0.17812 0.55731 0.13136 0.0
S1169 S 0.26605 0.62328 0.12449 0.0
N1170 N 0.24983 0.68717 0.11806 0.0
N1171 N 0.25074 0.55714 0.13093 0.0
C1172 C 0.23131 0.58577 0.1277 0.0
C1173 C 0.23082 0.65577 0.12122 0.0
C1174 C 0.96067 0.38513 0.84813 0.0
C1175 C 0.96157 0.32217 0.86184 0.0
C1176 C 0.96347 0.44508 0.86312 0.0
C1177 C 0.96671 0.44352 0.89233 0.0
H1178 H 0.9567 0.38819 0.82594 0.0
H1179 H 0.96112 0.49271 0.85221 0.0
S1180 S 0.9742 0.29129 0.93691 0.0
N1181 N 0.96919 0.26099 0.90513 0.0
N1182 N 0.97381 0.37468 0.93377 0.0
C1183 C 0.96965 0.38085 0.90579 0.0
C1184 C 0.9672 0.31965 0.89037 0.0
C1185 C 0.81185 0.37348 0.84884 0.0
C1186 C 0.80988 0.43543 0.86319 0.0
C1187 C 0.81036 0.3123 0.86332 0.0
C1188 C 0.80741 0.31217 0.89244 0.0
H1189 H 0.81532 0.37255 0.82649 0.0
H1190 H 0.81297 0.26513 0.85217 0.0
S1191 S 0.79555 0.45915 0.93817 0.0
N1192 N 0.8004 0.49246 0.9069 0.0
N1193 N 0.79847 0.37639 0.93443 0.0
C1194 C 0.80326 0.37304 0.90656 0.0
C1195 C 0.80425 0.43532 0.89175 0.0
C1196 C 0.07584 0.1065 0.62189 0.0
C1197 C 0.05767 0.06643 0.61916 0.0
C1198 C 0.07406 0.17503 0.62857 0.0
C1199 C 0.05408 0.20579 0.63046 0.0
H1200 H 0.09145 0.08439 0.61944 0.0
H1201 H 0.08834 0.20421 0.63236 0.0
S1202 S 1.00181 0.1231 0.62267 0.0
N1203 N 0.0192 0.06173 0.61748 0.0
N1204 N 0.01586 0.1921 0.62908 0.0
C1205 C 0.0358 0.16669 0.62683 0.0
C1206 C 0.0376 0.09648 0.62104 0.0
C1207 C 0.1957 0.07933 0.62812 0.0
C1208 C 0.2157 0.04864 0.62987 0.0
C1209 C 0.19385 0.14762 0.62107 0.0
C1210 C 0.212 0.18761 0.61787 0.0
H1211 H 0.18146 0.05026 0.63224 0.0
H1212 H 0.17822 0.16963 0.61873 0.0
S1213 S 0.26788 0.13111 0.62092 0.0
N1214 N 0.2539 0.06231 0.62787 0.0
N1215 N 0.25045 0.19228 0.61567 0.0
C1216 C 0.23208 0.15764 0.61965 0.0
C1217 C 0.23394 0.08763 0.62577 0.0
C1218 C 0.96303 0.94254 0.36425 0.0
C1219 C 0.96391 0.93925 0.39367 0.0
C1220 C 0.96238 0.88306 0.34842 0.0
C1221 C 0.96307 0.81944 0.3617 0.0
H1222 H 0.96077 0.99069 0.35369 0.0
H1223 H 0.95984 0.88671 0.32588 0.0
S1224 S 0.97013 0.78589 0.4378 0.0
N1225 N 0.96877 0.8693 0.43529 0.0
N1226 N 0.96808 0.75676 0.40527 0.0
C1227 C 0.96654 0.81596 0.39078 0.0
C1228 C 0.96681 0.87643 0.40693 0.0
C1229 C 0.80594 0.79945 0.36746 0.0
C1230 C 0.80513 0.7998 0.39694 0.0
C1231 C 0.80633 0.86009 0.3526 0.0
C1232 C 0.80545 0.9223 0.36685 0.0
H1233 H 0.80792 0.75243 0.35593 0.0
H1234 H 0.80843 0.85844 0.32994 0.0
S1235 S 0.79688 0.94867 0.44326 0.0
N1236 N 0.7992 0.86572 0.43955 0.0
N1237 N 0.7994 0.98081 0.41129 0.0
C1238 C 0.80192 0.92311 0.39599 0.0
C1239 C 0.80193 0.86126 0.41121 0.0
C1240 C 0.54005 0.66237 0.63176 0.0
C1241 C 0.55948 0.69628 0.63442 0.0
C1242 C 0.53954 0.59317 0.62579 0.0
C1243 C 0.55844 0.55684 0.62228 0.0
H1244 H 0.52525 0.68921 0.63489 0.0
H1245 H 0.52435 0.5683 0.62321 0.0
S1246 S 0.61315 0.62304 0.62728 0.0
N1247 N 0.59788 0.68873 0.63471 0.0
N1248 N 0.59689 0.55942 0.62048 0.0
C1249 C 0.5779 0.5905 0.62437 0.0
C1250 C 0.57843 0.66013 0.6316 0.0
C1251 C 0.6969 0.66174 0.62243 0.0
C1252 C 0.7163 0.69564 0.61984 0.0
C1253 C 0.69638 0.5937 0.63017 0.0
C1254 C 0.71526 0.55714 0.63317 0.0
H1255 H 0.68211 0.68828 0.61883 0.0
H1256 H 0.6812 0.56923 0.6334 0.0
S1257 S 0.76999 0.62265 0.62716 0.0
N1258 N 0.75472 0.68857 0.62021 0.0
N1259 N 0.75375 0.55891 0.63372 0.0
C1260 C 0.73475 0.59017 0.63016 0.0
C1261 C 0.73527 0.65998 0.62333 0.0
C1262 C 0.46301 0.43752 0.36264 0.0
C1263 C 0.46465 0.43372 0.39198 0.0
C1264 C 0.46208 0.37836 0.34666 0.0
C1265 C 0.46315 0.31447 0.3597 0.0
H1266 H 0.46031 0.48577 0.35235 0.0
H1267 H 0.45896 0.38251 0.32426 0.0
S1268 S 0.47232 0.27986 0.43537 0.0
N1269 N 0.47069 0.36327 0.43315 0.0
N1270 N 0.46951 0.2512 0.40286 0.0
C1271 C 0.46746 0.31057 0.3886 0.0
C1272 C 0.46803 0.37078 0.40491 0.0
C1273 C 0.30678 0.36805 0.3472 0.0
C1274 C 0.30548 0.43034 0.36143 0.0
C1275 C 0.30598 0.30733 0.36206 0.0
C1276 C 0.30429 0.3082 0.39141 0.0
H1277 H 0.30957 0.36646 0.32468 0.0
H1278 H 0.30848 0.26005 0.3509 0.0
S1279 S 0.29482 0.45667 0.43732 0.0
N1280 N 0.29812 0.48889 0.40551 0.0
N1281 N 0.29727 0.37373 0.43371 0.0
C1282 C 0.30061 0.36944 0.40549 0.0
C1283 C 0.301 0.4312 0.39032 0.0
C1284 C 0.53594 0.15421 0.12638 0.0
C1285 C 0.55533 0.18772 0.13016 0.0
C1286 C 0.53549 0.08529 0.11984 0.0
C1287 C 0.55443 0.04888 0.11693 0.0
H1288 H 0.5211 0.1811 0.12907 0.0
H1289 H 0.52034 0.06067 0.11649 0.0
S1290 S 0.60907 0.11401 0.12495 0.0
N1291 N 0.5937 0.17966 0.13208 0.0
N1292 N 0.59291 0.05093 0.11694 0.0
C1293 C 0.57386 0.0822 0.12009 0.0
C1294 C 0.5743 0.1515 0.12785 0.0
C1295 C 0.69246 0.08697 0.13194 0.0
C1296 C 0.71144 0.05105 0.13516 0.0
C1297 C 0.6928 0.1552 0.12443 0.0
C1298 C 0.7121 0.18989 0.12226 0.0
H1299 H 0.67734 0.06191 0.13488 0.0
H1300 H 0.67795 0.18125 0.12066 0.0
S1301 S 0.766 0.11867 0.13019 0.0
N1302 N 0.74992 0.05425 0.13633 0.0
N1303 N 0.75055 0.18415 0.12319 0.0
C1304 C 0.73117 0.15482 0.12593 0.0
C1305 C 0.73084 0.08487 0.13255 0.0
C1306 C 0.46396 0.81823 0.89473 0.0
C1307 C 0.46607 0.81928 0.86545 0.0
C1308 C 0.46347 0.87881 0.90984 0.0
C1309 C 0.46524 0.94168 0.89593 0.0
H1310 H 0.46089 0.77102 0.90565 0.0
H1311 H 0.46036 0.87644 0.93226 0.0
S1312 S 0.47618 0.96784 0.81989 0.0
N1313 N 0.47348 0.88503 0.82343 0.0
N1314 N 0.47304 -0.00017 0.85179 0.0
C1315 C 0.4699 0.94231 0.86698 0.0
C1316 C 0.47013 0.88059 0.85166 0.0
C1317 C 0.31015 0.87774 0.90715 0.0
C1318 C 0.30828 0.81485 0.89344 0.0
C1319 C 0.30957 0.93779 0.89184 0.0
C1320 C 0.30743 0.93582 0.86255 0.0
H1321 H 0.31333 0.88031 0.92956 0.0
H1322 H 0.31263 0.98528 0.90262 0.0
S1323 S 0.2973 0.78583 0.81772 0.0
N1324 N 0.3005 0.75485 0.84978 0.0
N1325 N 0.30003 0.86882 0.82076 0.0
C1326 C 0.30343 0.87417 0.84895 0.0
C1327 C 0.30362 0.81303 0.86457 0.0
C1328 C 0.00803 0.52129 0.98156 0.0
C1329 C 0.98678 0.53759 0.98825 0.0
C1330 C 0.01998 0.47499 0.99804 0.0
C1331 C 0.01109 0.44276 0.02176 0.0
H1332 H 0.01562 0.54505 0.96366 0.0
H1333 H 0.03653 0.46711 0.993 0.0
S1334 S 0.9558 0.46286 0.04731 0.0
N1335 N 0.95732 0.5139 0.01992 0.0
N1336 N 0.97936 0.4273 0.0499 0.0
C1337 C 0.98967 0.4565 0.02786 0.0
C1338 C 0.97767 0.5037 0.01148 0.0
C1339 C 0.25993 0.72653 0.98271 0.0
C1340 C 0.28013 0.70312 0.99118 0.0
C1341 C 0.24776 0.77053 1.00004 0.0
C1342 C 0.25542 0.79318 0.02639 0.0
H1343 H 0.25378 0.71253 0.96221 0.0
H1344 H 0.23217 0.7859 0.99299 0.0
S1345 S 0.30722 0.74544 0.05841 0.0
N1346 N 0.30675 0.70482 0.02807 0.0
N1347 N 0.28473 0.78776 0.05976 0.0
C1348 C 0.2756 0.76973 0.03487 0.0
C1349 C 0.28767 0.72475 0.01759 0.0
C1350 C 0.01827 0.77242 0.24978 0.0
C1351 C 0.00986 0.79665 0.22411 0.0
C1352 C 0.00632 0.72925 0.26767 0.0
C1353 C 0.98557 0.7085 0.26048 0.0
H1354 H 0.03427 0.78584 0.25584 0.0
H1355 H 0.01309 0.71395 0.28764 0.0
S1356 S 0.95641 0.75589 0.19547 0.0
N1357 N 0.97932 0.79548 0.19272 0.0
N1358 N 0.95756 0.71445 0.22557 0.0
C1359 C 0.97725 0.73176 0.23476 0.0
C1360 C 0.98915 0.77572 0.21687 0.0
C1361 C 0.27363 0.46594 0.22218 0.0
C1362 C 0.25261 0.44761 0.22865 0.0
C1363 C 0.28543 0.50955 0.23938 0.0
C1364 C 0.27701 0.53774 0.26425 0.0
H1365 H 0.28114 0.44696 0.20322 0.0
H1366 H 0.30159 0.52058 0.23318 0.0
S1367 S 0.22247 0.50813 0.29089 0.0
N1368 N 0.22352 0.463 0.26156 0.0
N1369 N 0.24598 0.54415 0.29449 0.0
C1370 C 0.25591 0.52056 0.2711 0.0
C1371 C 0.24374 0.47552 0.25334 0.0
C1372 C 0.75886 0.22778 0.98384 0.0
C1373 C 0.77922 0.20415 0.9914 0.0
C1374 C 0.74715 0.27162 1.00178 0.0
C1375 C 0.75546 0.29383 0.02784 0.0
H1376 H 0.75219 0.21401 0.9636 0.0
H1377 H 0.73141 0.28718 0.99543 0.0
S1378 S 0.80791 0.24513 0.05762 0.0
N1379 N 0.80669 0.205 0.02721 0.0
N1380 N 0.78551 0.28772 0.05998 0.0
C1381 C 0.77581 0.27019 0.03542 0.0
C1382 C 0.78742 0.22536 0.01753 0.0
C1383 C 0.97889 0.2476 0.73902 0.0
C1384 C 0.98735 0.21662 0.76326 0.0
C1385 C 0.9909 0.29145 0.72228 0.0
C1386 C 0.01215 0.30701 0.72864 0.0
H1387 H 0.96254 0.2388 0.73306 0.0
H1388 H 0.98338 0.31281 0.70378 0.0
S1389 S 0.04245 0.2381 0.7892 0.0
N1390 N 0.01863 0.20427 0.79275 0.0
N1391 N 0.0415 0.28584 0.76061 0.0
C1392 C 0.02107 0.27611 0.75265 0.0
C1393 C 0.00868 0.2309 0.76994 0.0
C1394 C 0.77576 0.46662 0.72413 0.0
C1395 C 0.75458 0.4495 0.73013 0.0
C1396 C 0.78755 0.50969 0.74156 0.0
C1397 C 0.77895 0.5384 0.76623 0.0
H1398 H 0.78338 0.44731 0.7053 0.0
H1399 H 0.80381 0.52009 0.73563 0.0
S1400 S 0.72393 0.51184 0.79163 0.0
N1401 N 0.72514 0.46649 0.76236 0.0
N1402 N 0.74758 0.54657 0.79576 0.0
C1403 C 0.7577 0.52224 0.77265 0.0
C1404 C 0.74554 0.47782 0.75463 0.0
C1405 C 0.00896 0.02398 0.48521 0.0
C1406 C 0.98894 0.04785 0.49411 0.0
C1407 C 0.02141 0.9808 0.50252 0.0
C1408 C 0.01414 0.95942 0.52919 0.0
H1409 H 0.01474 0.03687 0.46442 0.0
H1410 H 0.03687 0.96499 0.49515 0.0
S1411 S 0.96281 0.0084 0.56218 0.0
N1412 N 0.96284 0.04768 0.53157 0.0
N1413 N 0.98534 0.96623 0.56328 0.0
C1414 C 0.9941 0.98325 0.53806 0.0
C1415 C 0.98179 0.02745 0.52081 0.0
C1416 C 0.25769 0.22653 0.48255 0.0
C1417 C 0.27786 0.20218 0.49068 0.0
C1418 C 0.24587 0.27092 0.50013 0.0
C1419 C 0.25389 0.29311 0.52635 0.0
H1420 H 0.25127 0.21281 0.46217 0.0
H1421 H 0.23026 0.28688 0.49339 0.0
S1422 S 0.30585 0.24357 0.55738 0.0
N1423 N 0.30491 0.20303 0.52705 0.0
N1424 N 0.28353 0.28669 0.55916 0.0
C1425 C 0.27408 0.26901 0.53443 0.0
C1426 C 0.28579 0.22361 0.51693 0.0
C1427 C 0.27885 0.96787 0.72177 0.0
C1428 C 0.25779 0.94978 0.72812 0.0
C1429 C 0.29049 0.01242 0.73877 0.0
C1430 C 0.28181 0.04185 0.76323 0.0
H1431 H 0.28651 0.94784 0.70311 0.0
H1432 H 0.30673 0.02306 0.73283 0.0
S1433 S 0.22705 0.01348 0.78927 0.0
N1434 N 0.22839 0.96681 0.76039 0.0
N1435 N 0.2505 0.0498 0.79289 0.0
C1436 C 0.26065 0.02504 0.76987 0.0
C1437 C 0.24867 0.97904 0.75236 0.0
C1438 C 0.78929 0.74262 0.51162 0.0
C1439 C 0.77989 0.70647 0.48919 0.0
C1440 C 0.77791 0.78959 0.52777 0.0
C1441 C 0.75639 0.80357 0.52262 0.0
H1442 H 0.80575 0.73456 0.51713 0.0
H1443 H 0.78599 0.81362 0.54529 0.0
S1444 S 0.72391 0.72528 0.4661 0.0
N1445 N 0.74754 0.69047 0.46203 0.0
N1446 N 0.72602 0.77812 0.49301 0.0
C1447 C 0.74675 0.76974 0.4998 0.0
C1448 C 0.75846 0.72135 0.48309 0.0
C1449 C 0.74574 0.96761 0.25647 0.0
C1450 C 0.7538 0.94772 0.22997 0.0
C1451 C 0.75754 0.01034 0.27479 0.0
C1452 C 0.77778 0.03508 0.26723 0.0
H1453 H 0.73015 0.9509 0.26293 0.0
H1454 H 0.75109 0.02218 0.29535 0.0
S1455 S 0.80576 0.0007 0.19993 0.0
N1456 N 0.78344 0.95777 0.19733 0.0
N1457 N 0.80482 0.03804 0.23096 0.0
C1458 C 0.7857 0.01636 0.24065 0.0
C1459 C 0.77398 0.97281 0.22232 0.0
C1460 C 0.50692 0.52224 0.48583 0.0
C1461 C 0.48644 0.54351 0.49398 0.0
C1462 C 0.51928 0.47895 0.50319 0.0
C1463 C 0.51154 0.45502 0.52924 0.0
H1464 H 0.51314 0.5371 0.4655 0.0
H1465 H 0.53507 0.4651 0.49637 0.0
S1466 S 0.45897 0.49686 0.5603 0.0
N1467 N 0.45939 0.53831 0.53017 0.0
N1468 N 0.48187 0.45686 0.56203 0.0
C1469 C 0.49109 0.47646 0.53745 0.0
C1470 C 0.4788 0.52064 0.52011 0.0
C1471 C 0.52337 0.77698 0.75396 0.0
C1472 C 0.51528 0.80217 0.72828 0.0
C1473 C 0.51108 0.73386 0.77148 0.0
C1474 C 0.49033 0.71403 0.76383 0.0
H1475 H 0.5394 0.78942 0.76028 0.0
H1476 H 0.51761 0.71769 0.79148 0.0
S1477 S 0.46191 0.76486 0.69864 0.0
N1478 N 0.48498 0.80368 0.69651 0.0
N1479 N 0.46267 0.72219 0.72844 0.0
C1480 C 0.48234 0.73843 0.73809 0.0
C1481 C 0.49454 0.78256 0.72067 0.0
C1482 C 0.50628 0.22335 0.26723 0.0
C1483 C 0.48578 0.20164 0.25933 0.0
C1484 C 0.51838 0.26708 0.24974 0.0
C1485 C 0.51033 0.29104 0.22383 0.0
H1486 H 0.51273 0.20839 0.28743 0.0
H1487 H 0.53422 0.28111 0.25631 0.0
S1488 S 0.45751 0.24866 0.19357 0.0
N1489 N 0.45834 0.20685 0.2236 0.0
N1490 N 0.48032 0.28913 0.19156 0.0
C1491 C 0.48983 0.26941 0.21595 0.0
C1492 C 0.47782 0.22476 0.23339 0.0
C1493 C 0.51042 0.02402 0.98418 0.0
C1494 C 0.48819 0.02762 0.98762 0.0
C1495 C 0.52289 0.97717 0.99966 0.0
C1496 C 0.51359 0.93191 0.01905 0.0
H1497 H 0.51833 0.05906 0.97014 0.0
H1498 H 0.53998 0.97978 0.99791 0.0
S1499 S 0.4561 0.91224 0.03279 0.0
N1500 N 0.45749 0.97465 0.00978 0.0
N1501 N 0.48082 0.88882 0.03852 0.0
C1502 C 0.49141 0.93199 0.0212 0.0
C1503 C 0.47878 0.97919 0.00568 0.0
C1504 C 0.14602 0.3427 0.10059 0.0
C1505 C 0.1558 0.3358 0.12734 0.0
C1506 C 0.12389 0.34201 0.09728 0.0
C1507 C 0.11038 0.33362 0.12048 0.0
H1508 H 0.15544 0.35173 0.08192 0.0
H1509 H 0.11738 0.35157 0.07654 0.0
S1510 S 0.12771 0.30022 0.1943 0.0
N1511 N 0.15003 0.31167 0.17687 0.0
N1512 N 0.10861 0.3082 0.17078 0.0
C1513 C 0.11996 0.32085 0.14701 0.0
C1514 C 0.14254 0.32246 0.15041 0.0
C1515 C 0.12215 0.90503 0.15058 0.0
C1516 C 0.10902 0.91238 0.12692 0.0
C1517 C 0.14429 0.90357 0.1479 0.0
C1518 C 0.15449 0.90859 0.12137 0.0
H1519 H 0.11532 0.89686 0.17123 0.0
H1520 H 0.15339 0.89526 0.16693 0.0
S1521 S 0.12752 0.9413 0.05331 0.0
N1522 N 0.10805 0.93516 0.07635 0.0
N1523 N 0.14955 0.93019 0.07147 0.0
C1524 C 0.14163 0.92112 0.09781 0.0
C1525 C 0.11901 0.92353 0.10055 0.0
C1526 C 0.8663 0.62981 0.89149 0.0
C1527 C 0.86297 0.65029 0.86337 0.0
C1528 C 0.88638 0.63435 0.90426 0.0
C1529 C 0.90444 0.65257 0.88911 0.0
H1530 H 0.85306 0.61305 0.90422 0.0
H1531 H 0.88752 0.6288 0.92647 0.0
S1532 S 0.90227 0.74132 0.81974 0.0
N1533 N 0.87775 0.71506 0.82489 0.0
N1534 N 0.91609 0.71244 0.8467 0.0
C1535 C 0.90084 0.67998 0.86177 0.0
C1536 C 0.88005 0.68061 0.84947 0.0
C1537 C 0.88406 0.11182 0.84788 0.0
C1538 C 0.90266 0.10416 0.86352 0.0
C1539 C 0.86404 0.11409 0.8609 0.0
C1540 C 0.86149 0.09967 0.88983 0.0
H1541 H 0.88491 0.11177 0.82541 0.0
H1542 H 0.85032 0.12446 0.84787 0.0
S1543 S 0.90306 0.0224 0.93436 0.0
N1544 N 0.91601 0.05231 0.90686 0.0
N1545 N 0.87797 0.04241 0.92918 0.0
C1546 C 0.87931 0.07511 0.90407 0.0
C1547 C 0.89995 0.07954 0.89149 0.0
C1548 C 0.15015 0.84388 0.60285 0.0
C1549 C 0.16028 0.83765 0.62939 0.0
C1550 C 0.128 0.84513 0.60017 0.0
C1551 C 0.11482 0.83943 0.62385 0.0
H1552 H 0.15935 0.851 0.58384 0.0
H1553 H 0.12124 0.85413 0.57953 0.0
S1554 S 0.13301 0.80827 0.69746 0.0
N1555 N 0.15514 0.81665 0.6793 0.0
N1556 N 0.11362 0.81681 0.67441 0.0
C1557 C 0.12468 0.82708 0.65022 0.0
C1558 C 0.1473 0.82672 0.65295 0.0
C1559 C 0.11931 0.40999 0.60233 0.0
C1560 C 0.10941 0.41684 0.62897 0.0
C1561 C 0.14144 0.40863 0.59938 0.0
C1562 C 0.1548 0.41485 0.62287 0.0
H1563 H 0.10996 0.40243 0.58346 0.0
H1564 H 0.14803 0.39911 0.57868 0.0
S1565 S 0.13723 0.44794 0.69659 0.0
N1566 N 0.11496 0.43912 0.67873 0.0
N1567 N 0.15644 0.43875 0.67332 0.0
C1568 C 0.14517 0.42788 0.64932 0.0
C1569 C 0.12257 0.42835 0.65233 0.0
C1570 C 0.87946 0.13967 0.3541 0.0
C1571 C 0.86108 0.14009 0.37047 0.0
C1572 C 0.89971 0.13528 0.3664 0.0
C1573 C 0.90268 0.14052 0.39582 0.0
H1574 H 0.87818 0.14646 0.33175 0.0
H1575 H 0.91326 0.13106 0.35252 0.0
S1576 S 0.86101 0.19744 0.44525 0.0
N1577 N 0.84791 0.17463 0.4167 0.0
N1578 N 0.88624 0.18282 0.43834 0.0
C1579 C 0.88483 0.1577 0.41177 0.0
C1580 C 0.86401 0.15479 0.39956 0.0
C1581 C 0.88504 0.60948 0.35162 0.0
C1582 C 0.90397 0.60558 0.3668 0.0
C1583 C 0.86519 0.60861 0.36511 0.0
C1584 C 0.86322 0.59466 0.39418 0.0
H1585 H 0.88552 0.60866 0.32908 0.0
H1586 H 0.85115 0.61536 0.35226 0.0
S1587 S 0.90686 0.53039 0.43872 0.0
N1588 N 0.91884 0.56135 0.41069 0.0
N1589 N 0.88134 0.54418 0.43377 0.0
C1590 C 0.8817 0.57575 0.40838 0.0
C1591 C 0.90207 0.58373 0.39529 0.0
C1592 C 0.62555 0.34713 0.59984 0.0
C1593 C 0.61245 0.33582 0.62323 0.0
C1594 C 0.64771 0.34868 0.60262 0.0
C1595 C 0.65787 0.33983 0.62899 0.0
H1596 H 0.61869 0.35853 0.57947 0.0
H1597 H 0.65682 0.36006 0.5839 0.0
S1598 S 0.63094 0.29571 0.69592 0.0
N1599 N 0.61147 0.30509 0.67303 0.0
N1600 N 0.65295 0.3102 0.67819 0.0
C1601 C 0.64503 0.32335 0.65213 0.0
C1602 C 0.62243 0.32081 0.64926 0.0
C1603 C 0.62803 0.90765 0.654 0.0
C1604 C 0.61465 0.91691 0.6307 0.0
C1605 C 0.65015 0.90577 0.65084 0.0
C1606 C 0.66002 0.91231 0.62417 0.0
H1607 H 0.62142 0.89821 0.67467 0.0
H1608 H 0.65946 0.89601 0.66956 0.0
S1609 S 0.63232 0.94993 0.55706 0.0
N1610 N 0.61312 0.94281 0.58044 0.0
N1611 N 0.65454 0.93718 0.57462 0.0
C1612 C 0.64691 0.9266 0.60102 0.0
C1613 C 0.62434 0.92941 0.60426 0.0
C1614 C 0.38385 0.63074 0.4056 0.0
C1615 C 0.40239 0.63931 0.38996 0.0
C1616 C 0.36382 0.62717 0.39261 0.0
C1617 C 0.36111 0.64108 0.36364 0.0
H1618 H 0.38472 0.63123 0.42811 0.0
H1619 H 0.35017 0.61663 0.40573 0.0
S1620 S 0.40241 0.71758 0.31847 0.0
N1621 N 0.41549 0.68928 0.34616 0.0
N1622 N 0.37738 0.69713 0.32388 0.0
C1623 C 0.37886 0.66538 0.34918 0.0
C1624 C 0.39955 0.6622 0.36176 0.0
C1625 C 0.3835 0.11099 0.34792 0.0
C1626 C 0.40214 0.10414 0.36353 0.0
C1627 C 0.36349 0.11364 0.36097 0.0
C1628 C 0.36099 0.10052 0.39002 0.0
H1629 H 0.38429 0.10979 0.32542 0.0
H1630 H 0.34973 0.1229 0.34787 0.0
S1631 S 0.40288 0.02809 0.43544 0.0
N1632 N 0.4157 0.05638 0.40755 0.0
N1633 N 0.37771 0.04676 0.43001 0.0
C1634 C 0.37892 0.07779 0.40454 0.0
C1635 C 0.39954 0.08193 0.39186 0.0
C1636 C 0.64152 0.84075 0.1541 0.0
C1637 C 0.65519 0.83046 0.13119 0.0
C1638 C 0.61943 0.84198 0.15044 0.0
C1639 C 0.60986 0.83378 0.12362 0.0
H1640 H 0.6479 0.85144 0.17483 0.0
H1641 H 0.60988 0.85245 0.16887 0.0
S1642 S 0.63841 0.79286 0.0575 0.0
N1643 N 0.65733 0.80173 0.08123 0.0
N1644 N 0.61597 0.80622 0.07444 0.0
C1645 C 0.62328 0.8185 0.1009 0.0
C1646 C 0.64581 0.81632 0.10466 0.0
C1647 C 0.64553 0.40054 0.15061 0.0
C1648 C 0.65591 0.40735 0.12429 0.0
C1649 C 0.62337 0.40149 0.15297 0.0
C1650 C 0.61044 0.41011 0.12919 0.0
H1651 H 0.65449 0.39117 0.16966 0.0
H1652 H 0.61638 0.3918 0.17341 0.0
S1653 S 0.62945 0.44423 0.05623 0.0
N1654 N 0.65135 0.43224 0.07457 0.0
N1655 N 0.60981 0.43624 0.07892 0.0
C1656 C 0.6206 0.42316 0.10311 0.0
C1657 C 0.64323 0.42126 0.10068 0.0
C1658 C 0.4024 0.14401 0.86558 0.0
C1659 C 0.40463 0.14871 0.89515 0.0
C1660 C 0.38248 0.14806 0.85236 0.0
C1661 C 0.36369 0.14756 0.86786 0.0
H1662 H 0.41631 0.14093 0.85227 0.0
H1663 H 0.38181 0.15545 0.82998 0.0
S1664 S 0.36144 0.20149 0.94297 0.0
N1665 N 0.38689 0.18836 0.93713 0.0
N1666 N 0.34919 0.17897 0.91374 0.0
C1667 C 0.36581 0.16057 0.89722 0.0
C1668 C 0.38629 0.1639 0.91042 0.0
C1669 C 0.40339 0.61249 0.89344 0.0
C1670 C 0.4062 0.61119 0.8639 0.0
C1671 C 0.3833 0.60427 0.90583 0.0
C1672 C 0.36483 0.6036 0.88961 0.0
H1673 H 0.41699 0.61678 0.90727 0.0
H1674 H 0.38226 0.59523 0.92809 0.0
S1675 S 0.36489 0.55448 0.81383 0.0
N1676 N 0.38997 0.57139 0.8208 0.0
N1677 N 0.35174 0.57262 0.84288 0.0
C1678 C 0.36771 0.5925 0.86024 0.0
C1679 C 0.38846 0.59351 0.84781 0.0
C1680 C 0.02809 0.0827 0.1007 0.0
C1681 C 0.02704 0.05202 0.12755 0.0
C1682 C 0.02833 0.15336 0.09749 0.0
C1683 C 0.02743 0.19689 0.12094 0.0
H1684 H 0.03 0.05212 0.08191 0.0
H1685 H 0.03053 0.17368 0.0765 0.0
S1686 S 0.01961 0.14309 0.19533 0.0
N1687 N 0.02162 0.0713 0.17765 0.0
N1688 N 0.02177 0.20393 0.17166 0.0
C1689 C 0.0242 0.16707 0.14767 0.0
C1690 C 0.02406 0.09486 0.15095 0.0
C1691 C 0.23412 0.07745 0.1506 0.0
C1692 C 0.23693 0.04681 0.12393 0.0
C1693 C 0.23442 0.14809 0.15398 0.0
C1694 C 0.23761 0.19144 0.13089 0.0
H1695 H 0.23041 0.04702 0.16892 0.0
H1696 H 0.23078 0.1687 0.17458 0.0
S1697 S 0.25061 0.13723 0.05784 0.0
N1698 N 0.24644 0.06562 0.07491 0.0
N1699 N 0.24724 0.19817 0.08126 0.0
C1700 C 0.24253 0.16144 0.10466 0.0
C1701 C 0.24214 0.08934 0.10118 0.0
C1702 C 0.9967 0.85462 0.88605 0.0
C1703 C 0.9779 0.82549 0.89657 0.0
C1704 C 0.99611 0.91318 0.86887 0.0
C1705 C 0.97665 0.94176 0.86044 0.0
H1706 H 0.01188 0.83215 0.89117 0.0
H1707 H 0.01086 0.93536 0.86174 0.0
S1708 S 0.92297 0.88303 0.88138 0.0
N1709 N 0.93937 0.8304 0.89725 0.0
N1710 N 0.93824 0.93633 0.864 0.0
C1711 C 0.95785 0.91227 0.87056 0.0
C1712 C 0.95847 0.85514 0.88881 0.0
C1713 C 0.77938 0.87507 0.90676 0.0
C1714 C 0.77957 0.93708 0.89219 0.0
C1715 C 0.77911 0.81293 0.89219 0.0
C1716 C 0.77982 0.81059 0.86252 0.0
H1717 H 0.78058 0.87455 0.92953 0.0
H1718 H 0.78021 0.76654 0.9043 0.0
S1719 S 0.77904 0.95834 0.81446 0.0
N1720 N 0.77864 0.99203 0.84633 0.0
N1721 N 0.77929 0.87539 0.81916 0.0
C1722 C 0.77888 0.87205 0.84774 0.0
C1723 C 0.77845 0.93527 0.86253 0.0
C1724 C 0.03416 0.67837 0.65316 0.0
C1725 C 0.03108 0.70999 0.62679 0.0
C1726 C 0.03308 0.60769 0.6562 0.0
C1727 C 0.02882 0.56538 0.63301 0.0
H1728 H 0.03874 0.70788 0.67143 0.0
H1729 H 0.037 0.58604 0.67651 0.0
S1730 S 0.01474 0.62304 0.56084 0.0
N1731 N 0.02014 0.69365 0.5781 0.0
N1732 N 0.01797 0.5611 0.5838 0.0
C1733 C 0.02365 0.59663 0.60716 0.0
C1734 C 0.02481 0.66871 0.60405 0.0
C1735 C 0.23563 0.5755 0.65167 0.0
C1736 C 0.23844 0.54429 0.62511 0.0
C1737 C 0.23679 0.64614 0.65499 0.0
C1738 C 0.24086 0.68889 0.63194 0.0
H1739 H 0.23123 0.54568 0.66989 0.0
H1740 H 0.23308 0.66743 0.67545 0.0
S1741 S 0.25409 0.63247 0.55926 0.0
N1742 N 0.24882 0.56156 0.57631 0.0
N1743 N 0.25118 0.69397 0.58254 0.0
C1744 C 0.24571 0.65804 0.60586 0.0
C1745 C 0.24446 0.58601 0.60245 0.0
C1746 C 0.99456 0.40638 0.36878 0.0
C1747 C 0.97545 0.43801 0.36085 0.0
C1748 C 0.99453 0.34809 0.38618 0.0
C1749 C 0.97549 0.32203 0.39735 0.0
H1750 H 0.00951 0.42593 0.36108 0.0
H1751 H 0.00944 0.32344 0.39096 0.0
S1752 S 0.9213 0.38832 0.38376 0.0
N1753 N 0.93708 0.43891 0.36579 0.0
N1754 N 0.93712 0.33309 0.39914 0.0
C1755 C 0.95643 0.35467 0.39008 0.0
C1756 C 0.95639 0.41173 0.37173 0.0
C1757 C 0.77803 0.35922 0.35305 0.0
C1758 C 0.7798 0.29756 0.36759 0.0
C1759 C 0.77783 0.4213 0.3676 0.0
C1760 C 0.78027 0.42404 0.39714 0.0
H1761 H 0.77781 0.35962 0.33023 0.0
H1762 H 0.77756 0.4676 0.35535 0.0
S1763 S 0.78438 0.27659 0.44508 0.0
N1764 N 0.78248 0.24274 0.41334 0.0
N1765 N 0.78322 0.35947 0.44043 0.0
C1766 C 0.78103 0.36263 0.41198 0.0
C1767 C 0.78053 0.29937 0.39726 0.0
C1768 C 0.53317 0.08517 0.60445 0.0
C1769 C 0.53169 0.05414 0.6312 0.0
C1770 C 0.53252 0.1559 0.60129 0.0
C1771 C 0.53031 0.19908 0.6247 0.0
H1772 H 0.53609 0.05499 0.58578 0.0
H1773 H 0.53514 0.17674 0.58047 0.0
S1774 S 0.52102 0.14375 0.69856 0.0
N1775 N 0.52452 0.07239 0.68098 0.0
N1776 N 0.52309 0.205 0.67505 0.0
C1777 C 0.52673 0.16863 0.6512 0.0
C1778 C 0.52746 0.09643 0.65444 0.0
C1779 C 0.73854 0.16832 0.60315 0.0
C1780 C 0.74014 0.19871 0.63004 0.0
C1781 C 0.73917 0.09776 0.59964 0.0
C1782 C 0.74151 0.05415 0.62284 0.0
H1783 H 0.73557 0.19887 0.58461 0.0
H1784 H 0.73648 0.0774 0.57874 0.0
S1785 S 0.7512 0.10784 0.6969 0.0
N1786 N 0.74756 0.17954 0.67968 0.0
N1787 N 0.74904 0.04711 0.67313 0.0
C1788 C 0.74523 0.08397 0.64948 0.0
C1789 C 0.74448 0.15603 0.65307 0.0
C1790 C 0.49272 0.84438 0.38621 0.0
C1791 C 0.47359 0.81618 0.39613 0.0
C1792 C 0.49274 0.90242 0.36869 0.0
C1793 C 0.47361 0.93172 0.35936 0.0
H1794 H 0.50769 0.82176 0.39218 0.0
H1795 H 0.50773 0.92384 0.36209 0.0
S1796 S 0.41926 0.87576 0.37862 0.0
N1797 N 0.43508 0.82246 0.39513 0.0
N1798 N 0.43511 0.92809 0.36165 0.0
C1799 C 0.45447 0.90315 0.36889 0.0
C1800 C 0.45446 0.84624 0.38735 0.0
C1801 C 0.27863 0.86789 0.34931 0.0
C1802 C 0.27973 0.80564 0.36358 0.0
C1803 C 0.27829 0.92958 0.36419 0.0
C1804 C 0.27988 0.93127 0.39383 0.0
H1805 H 0.27904 0.86904 0.3265 0.0
H1806 H 0.27854 0.97635 0.35225 0.0
S1807 S 0.28202 0.78233 0.44116 0.0
N1808 N 0.28086 0.74944 0.40918 0.0
N1809 N 0.28141 0.86539 0.43686 0.0
C1810 C 0.28004 0.86941 0.40835 0.0
C1811 C 0.27965 0.80659 0.39328 0.0
C1812 C 0.52969 0.57586 0.10034 0.0
C1813 C 0.528 0.54535 0.12718 0.0
C1814 C 0.52975 0.64651 0.09702 0.0
C1815 C 0.52804 0.69017 0.12034 0.0
H1816 H 0.53223 0.5452 0.08171 0.0
H1817 H 0.53244 0.66678 0.07612 0.0
S1818 S 0.51841 0.63673 0.19439 0.0
N1819 N 0.52117 0.56486 0.17695 0.0
N1820 N 0.52099 0.69744 0.17074 0.0
C1821 C 0.52422 0.66046 0.14694 0.0
C1822 C 0.52426 0.58829 0.15035 0.0
C1823 C 0.73585 0.57919 0.15236 0.0
C1824 C 0.73778 0.54866 0.12554 0.0
C1825 C 0.73588 0.64983 0.15575 0.0
C1826 C 0.73794 0.69343 0.13249 0.0
H1827 H 0.73305 0.54857 0.17092 0.0
H1828 H 0.73295 0.67017 0.17658 0.0
S1829 S 0.74836 0.63983 0.05862 0.0
N1830 N 0.74525 0.56801 0.07594 0.0
N1831 N 0.74561 0.70059 0.08226 0.0
C1832 C 0.74203 0.66365 0.10595 0.0
C1833 C 0.74189 0.59149 0.10249 0.0
C1834 C 0.49873 0.34858 0.88616 0.0
C1835 C 0.47988 0.32345 0.89822 0.0
C1836 C 0.49857 0.40712 0.86893 0.0
C1837 C 0.4794 0.43971 0.86198 0.0
H1838 H 0.51361 0.32298 0.89011 0.0
H1839 H 0.51339 0.42612 0.86059 0.0
S1840 S 0.4257 0.39276 0.88737 0.0
N1841 N 0.44163 0.33666 0.90198 0.0
N1842 N 0.44122 0.44248 0.86862 0.0
C1843 C 0.46054 0.41429 0.87366 0.0
C1844 C 0.46079 0.35719 0.89196 0.0
C1845 C 0.28287 0.37366 0.84829 0.0
C1846 C 0.28411 0.31098 0.86222 0.0
C1847 C 0.28254 0.43494 0.86352 0.0
C1848 C 0.28431 0.43578 0.89315 0.0
H1849 H 0.28305 0.37544 0.82549 0.0
H1850 H 0.2826 0.48209 0.85183 0.0
S1851 S 0.28741 0.28539 0.93961 0.0
N1852 N 0.28596 0.25349 0.90748 0.0
N1853 N 0.2865 0.36856 0.93578 0.0
C1854 C 0.2848 0.37345 0.90732 0.0
C1855 C 0.28441 0.3111 0.89193 0.0
loop_
_geom_bond_atom_site_label_1
_geom_bond_atom_site_label_2
_geom_bond_distance
_geom_bond_site_symmetry_2
_ccdc_geom_bond_type
Mn0 O5 2.095 . S
Mn0 O15 2.162 . S
Mn0 O16 2.297 . S
Mn0 O24 2.385 . S
Mn0 O25 2.209 . S
Mn0 O26 2.094 . S
Mn1 O6 2.121 . S
Mn1 N8 2.257 . S
Mn1 N17 2.282 . S
Mn1 O25 2.215 . S
Mn1 O27 2.117 . S
C2 O24 1.234 . S
C2 O25 1.283 . S
C3 O15 1.281 . S
C3 O16 1.236 . S
C4 O26 1.240 . S
C4 O27 1.264 . S
O5 Mn0 2.095 . S
O5 C14 1.250 . S
O6 Mn1 2.121 . S
O6 C14 1.258 . S
C7 N8 1.326 . S
C7 C11 1.460 1_455 S
C7 H13 0.929 . S
N8 Mn1 2.257 . S
N8 C7 1.326 . S
N8 C12 1.362 . S
C9 C10 1.258 . S
C9 C12 1.431 . S
C9 C29 1.449 . S
C10 C9 1.258 . S
C10 C11 1.477 1_455 S
C10 H30 0.931 1_455 S
C11 C7 1.460 1_655 S
C11 C10 1.477 1_655 S
C11 H31 0.930 . S
C12 N8 1.362 . S
C12 C9 1.431 . S
C12 C22 1.476 . S
H13 C7 0.929 . S
C14 O5 1.250 . S
C14 O6 1.258 . S
O15 Mn0 2.162 . S
O15 C3 1.281 . S
O16 Mn0 2.297 . S
O16 C3 1.236 . S
N17 Mn1 2.282 . S
N17 C18 1.328 . S
N17 C22 1.318 . S
C18 N17 1.328 . S
C18 C19 1.457 . S
C18 H23 0.929 . S
C19 C18 1.457 . S
C19 C20 1.291 . S
C19 H32 0.931 . S
C20 C19 1.291 . S
C20 C21 1.373 . S
C20 H33 0.929 . S
C21 C20 1.373 . S
C21 C22 1.396 . S
C21 C28 1.403 . S
C22 C12 1.476 . S
C22 N17 1.318 . S
C22 C21 1.396 . S
H23 C18 0.929 . S
O24 Mn0 2.385 . S
O24 C2 1.234 . S
O25 Mn0 2.209 . S
O25 Mn1 2.215 . S
O25 C2 1.283 . S
O26 Mn0 2.094 . S
O26 C4 1.240 . S
O27 Mn1 2.117 . S
O27 C4 1.264 . S
C28 C21 1.403 . S
C28 C29 1.399 . S
C28 H34 0.929 . S
C29 C9 1.449 . S
C29 C28 1.399 . S
C29 H35 0.930 . S
H30 C10 0.931 1_655 S
H31 C11 0.930 . S
H32 C19 0.931 . S
H33 C20 0.929 . S
H34 C28 0.929 . S
H35 C29 0.930 . S
Mn36 O41 2.095 . S
Mn36 O51 2.162 . S
Mn36 O52 2.297 . S
Mn36 O60 2.385 . S
Mn36 O61 2.209 . S
Mn36 O62 2.094 . S
Mn37 O42 2.121 . S
Mn37 N44 2.257 . S
Mn37 N53 2.282 . S
Mn37 O61 2.215 . S
Mn37 O63 2.117 . S
C38 O60 1.234 . S
C38 O61 1.283 . S
C39 O51 1.281 . S
C39 O52 1.236 . S
C40 O62 1.240 . S
C40 O63 1.264 . S
O41 Mn36 2.095 . S
O41 C50 1.250 . S
O42 Mn37 2.121 . S
O42 C50 1.258 . S
C43 N44 1.326 . S
C43 C47 1.460 . S
C43 H49 0.929 . S
N44 Mn37 2.257 . S
N44 C43 1.326 . S
N44 C48 1.362 . S
C45 C46 1.258 . S
C45 C48 1.431 . S
C45 C65 1.449 . S
C46 C45 1.258 . S
C46 C47 1.477 . S
C46 H66 0.931 . S
C47 C43 1.460 . S
C47 C46 1.477 . S
C47 H67 0.930 . S
C48 N44 1.362 . S
C48 C45 1.431 . S
C48 C58 1.476 . S
H49 C43 0.929 . S
C50 O41 1.250 . S
C50 O42 1.258 . S
O51 Mn36 2.162 . S
O51 C39 1.281 . S
O52 Mn36 2.297 . S
O52 C39 1.236 . S
N53 Mn37 2.282 . S
N53 C54 1.328 . S
N53 C58 1.318 . S
C54 N53 1.328 . S
C54 C55 1.457 . S
C54 H59 0.929 . S
C55 C54 1.457 . S
C55 C56 1.291 . S
C55 H68 0.931 . S
C56 C55 1.291 . S
C56 C57 1.373 . S
C56 H69 0.929 . S
C57 C56 1.373 . S
C57 C58 1.396 . S
C57 C64 1.403 . S
C58 C48 1.476 . S
C58 N53 1.318 . S
C58 C57 1.396 . S
H59 C54 0.929 . S
O60 Mn36 2.385 . S
O60 C38 1.234 . S
O61 Mn36 2.209 . S
O61 Mn37 2.215 . S
O61 C38 1.283 . S
O62 Mn36 2.094 . S
O62 C40 1.240 . S
O63 Mn37 2.117 . S
O63 C40 1.264 . S
C64 C57 1.403 . S
C64 C65 1.399 . S
C64 H70 0.929 . S
C65 C45 1.449 . S
C65 C64 1.399 . S
C65 H71 0.930 . S
H66 C46 0.931 . S
H67 C47 0.930 . S
H68 C55 0.931 . S
H69 C56 0.929 . S
H70 C64 0.929 . S
H71 C65 0.930 . S
Mn72 O77 2.095 . S
Mn72 O87 2.162 . S
Mn72 O88 2.297 . S
Mn72 O96 2.385 . S
Mn72 O97 2.209 . S
Mn72 O98 2.094 . S
Mn73 O78 2.121 . S
Mn73 N80 2.257 . S
Mn73 N89 2.282 . S
Mn73 O97 2.215 . S
Mn73 O99 2.117 . S
C74 O96 1.234 . S
C74 O97 1.283 . S
C75 O87 1.281 . S
C75 O88 1.236 . S
C76 O98 1.240 . S
C76 O99 1.264 . S
O77 Mn72 2.095 . S
O77 C86 1.250 . S
O78 Mn73 2.121 . S
O78 C86 1.258 . S
C79 N80 1.326 . S
C79 C83 1.460 1_455 S
C79 H85 0.929 . S
N80 Mn73 2.257 . S
N80 C79 1.326 . S
N80 C84 1.362 . S
C81 C82 1.258 . S
C81 C84 1.431 . S
C81 C101 1.449 1_554 S
C82 C81 1.258 . S
C82 C83 1.477 1_455 S
C82 H102 0.931 1_454 S
C83 C79 1.460 1_655 S
C83 C82 1.477 1_655 S
C83 H103 0.930 . S
C84 N80 1.362 . S
C84 C81 1.431 . S
C84 C94 1.476 . S
H85 C79 0.929 . S
C86 O77 1.250 . S
C86 O78 1.258 . S
O87 Mn72 2.162 . S
O87 C75 1.281 . S
O88 Mn72 2.297 . S
O88 C75 1.236 . S
N89 Mn73 2.282 . S
N89 C90 1.328 . S
N89 C94 1.318 . S
C90 N89 1.328 . S
C90 C91 1.457 . S
C90 H95 0.929 . S
C91 C90 1.457 . S
C91 C92 1.291 . S
C91 H104 0.931 . S
C92 C91 1.291 . S
C92 C93 1.373 . S
C92 H105 0.929 . S
C93 C92 1.373 . S
C93 C94 1.396 . S
C93 C100 1.403 . S
C94 C84 1.476 . S
C94 N89 1.318 . S
C94 C93 1.396 . S
H95 C90 0.929 . S
O96 Mn72 2.385 . S
O96 C74 1.234 . S
O97 Mn72 2.209 . S
O97 Mn73 2.215 . S
O97 C74 1.283 . S
O98 Mn72 2.094 . S
O98 C76 1.240 . S
O99 Mn73 2.117 . S
O99 C76 1.264 . S
C100 C93 1.403 . S
C100 C101 1.399 1_554 S
C100 H106 0.929 1_554 S
C101 C81 1.449 1_556 S
C101 C100 1.399 1_556 S
C101 H107 0.930 . S
H102 C82 0.931 1_656 S
H103 C83 0.930 . S
H104 C91 0.931 . S
H105 C92 0.929 . S
H106 C100 0.929 1_556 S
H107 C101 0.930 . S
Mn108 O113 2.095 . S
Mn108 O123 2.162 . S
Mn108 O124 2.297 . S
Mn108 O132 2.385 . S
Mn108 O133 2.209 . S
Mn108 O134 2.094 . S
Mn109 O114 2.121 . S
Mn109 N116 2.257 . S
Mn109 N125 2.282 . S
Mn109 O133 2.215 . S
Mn109 O135 2.117 . S
C110 O132 1.234 . S
C110 O133 1.283 . S
C111 O123 1.281 . S
C111 O124 1.236 . S
C112 O134 1.240 . S
C112 O135 1.264 . S
O113 Mn108 2.095 . S
O113 C122 1.250 . S
O114 Mn109 2.121 . S
O114 C122 1.258 . S
C115 N116 1.326 . S
C115 C119 1.460 . S
C115 H121 0.929 . S
N116 Mn109 2.257 . S
N116 C115 1.326 . S
N116 C120 1.362 . S
C117 C118 1.258 . S
C117 C120 1.431 . S
C117 C137 1.449 1_554 S
C118 C117 1.258 . S
C118 C119 1.477 . S
C118 H138 0.931 1_554 S
C119 C115 1.460 . S
C119 C118 1.477 . S
C119 H139 0.930 . S
C120 N116 1.362 . S
C120 C117 1.431 . S
C120 C130 1.476 . S
H121 C115 0.929 . S
C122 O113 1.250 . S
C122 O114 1.258 . S
O123 Mn108 2.162 . S
O123 C111 1.281 . S
O124 Mn108 2.297 . S
O124 C111 1.236 . S
N125 Mn109 2.282 . S
N125 C126 1.328 . S
N125 C130 1.318 . S
C126 N125 1.328 . S
C126 C127 1.457 . S
C126 H131 0.929 . S
C127 C126 1.457 . S
C127 C128 1.291 . S
C127 H140 0.931 . S
C128 C127 1.291 . S
C128 C129 1.373 . S
C128 H141 0.929 . S
C129 C128 1.373 . S
C129 C130 1.396 . S
C129 C136 1.403 . S
C130 C120 1.476 . S
C130 N125 1.318 . S
C130 C129 1.396 . S
H131 C126 0.929 . S
O132 Mn108 2.385 . S
O132 C110 1.234 . S
O133 Mn108 2.209 . S
O133 Mn109 2.215 . S
O133 C110 1.283 . S
O134 Mn108 2.094 . S
O134 C112 1.240 . S
O135 Mn109 2.117 . S
O135 C112 1.264 . S
C136 C129 1.403 . S
C136 C137 1.399 1_554 S
C136 H142 0.929 1_554 S
C137 C117 1.449 1_556 S
C137 C136 1.399 1_556 S
C137 H143 0.930 . S
H138 C118 0.931 1_556 S
H139 C119 0.930 . S
H140 C127 0.931 . S
H141 C128 0.929 . S
H142 C136 0.929 1_556 S
H143 C137 0.930 . S
Mn144 O149 2.095 . S
Mn144 O159 2.162 . S
Mn144 O160 2.297 . S
Mn144 O168 2.385 . S
Mn144 O169 2.209 . S
Mn144 O170 2.094 . S
Mn145 O150 2.121 . S
Mn145 N152 2.257 . S
Mn145 N161 2.282 . S
Mn145 O169 2.215 . S
Mn145 O171 2.117 . S
C146 O168 1.234 . S
C146 O169 1.283 . S
C147 O159 1.281 . S
C147 O160 1.236 . S
C148 O170 1.240 . S
C148 O171 1.264 . S
O149 Mn144 2.095 . S
O149 C158 1.250 . S
O150 Mn145 2.121 . S
O150 C158 1.258 . S
C151 N152 1.326 . S
C151 C155 1.460 1_556 S
C151 H157 0.929 . S
N152 Mn145 2.257 . S
N152 C151 1.326 . S
N152 C156 1.362 . S
C153 C154 1.258 . S
C153 C156 1.431 . S
C153 C173 1.449 . S
C154 C153 1.258 . S
C154 C155 1.477 1_556 S
C154 H174 0.931 1_556 S
C155 C151 1.460 1_554 S
C155 C154 1.477 1_554 S
C155 H175 0.930 . S
C156 N152 1.362 . S
C156 C153 1.431 . S
C156 C166 1.476 . S
H157 C151 0.929 . S
C158 O149 1.250 . S
C158 O150 1.258 . S
O159 Mn144 2.162 . S
O159 C147 1.281 . S
O160 Mn144 2.297 . S
O160 C147 1.236 . S
N161 Mn145 2.282 . S
N161 C162 1.328 . S
N161 C166 1.318 . S
C162 N161 1.328 . S
C162 C163 1.457 . S
C162 H167 0.929 . S
C163 C162 1.457 . S
C163 C164 1.291 . S
C163 H176 0.931 . S
C164 C163 1.291 . S
C164 C165 1.373 . S
C164 H177 0.929 . S
C165 C164 1.373 . S
C165 C166 1.396 . S
C165 C172 1.403 . S
C166 C156 1.476 . S
C166 N161 1.318 . S
C166 C165 1.396 . S
H167 C162 0.929 . S
O168 Mn144 2.385 . S
O168 C146 1.234 . S
O169 Mn144 2.209 . S
O169 Mn145 2.215 . S
O169 C146 1.283 . S
O170 Mn144 2.094 . S
O170 C148 1.240 . S
O171 Mn145 2.117 . S
O171 C148 1.264 . S
C172 C165 1.403 . S
C172 C173 1.399 . S
C172 H178 0.929 . S
C173 C153 1.449 . S
C173 C172 1.399 . S
C173 H179 0.930 . S
H174 C154 0.931 1_554 S
H175 C155 0.930 . S
H176 C163 0.931 . S
H177 C164 0.929 . S
H178 C172 0.929 . S
H179 C173 0.930 . S
Mn180 O185 2.095 . S
Mn180 O195 2.162 . S
Mn180 O196 2.297 . S
Mn180 O204 2.385 . S
Mn180 O205 2.209 . S
Mn180 O206 2.094 . S
Mn181 O186 2.121 . S
Mn181 N188 2.257 . S
Mn181 N197 2.282 . S
Mn181 O205 2.215 . S
Mn181 O207 2.117 . S
C182 O204 1.234 . S
C182 O205 1.283 . S
C183 O195 1.281 . S
C183 O196 1.236 . S
C184 O206 1.240 . S
C184 O207 1.264 . S
O185 Mn180 2.095 . S
O185 C194 1.250 . S
O186 Mn181 2.121 . S
O186 C194 1.258 . S
C187 N188 1.326 . S
C187 C191 1.460 1_556 S
C187 H193 0.929 . S
N188 Mn181 2.257 . S
N188 C187 1.326 . S
N188 C192 1.362 . S
C189 C190 1.258 . S
C189 C192 1.431 . S
C189 C209 1.449 . S
C190 C189 1.258 . S
C190 C191 1.477 1_556 S
C190 H210 0.931 1_556 S
C191 C187 1.460 1_554 S
C191 C190 1.477 1_554 S
C191 H211 0.930 . S
C192 N188 1.362 . S
C192 C189 1.431 . S
C192 C202 1.476 . S
H193 C187 0.929 . S
C194 O185 1.250 . S
C194 O186 1.258 . S
O195 Mn180 2.162 . S
O195 C183 1.281 . S
O196 Mn180 2.297 . S
O196 C183 1.236 . S
N197 Mn181 2.282 . S
N197 C198 1.328 . S
N197 C202 1.318 . S
C198 N197 1.328 . S
C198 C199 1.457 . S
C198 H203 0.929 . S
C199 C198 1.457 . S
C199 C200 1.291 . S
C199 H212 0.931 . S
C200 C199 1.291 . S
C200 C201 1.373 . S
C200 H213 0.929 . S
C201 C200 1.373 . S
C201 C202 1.396 . S
C201 C208 1.403 . S
C202 C192 1.476 . S
C202 N197 1.318 . S
C202 C201 1.396 . S
H203 C198 0.929 . S
O204 Mn180 2.385 . S
O204 C182 1.234 . S
O205 Mn180 2.209 . S
O205 Mn181 2.215 . S
O205 C182 1.283 . S
O206 Mn180 2.094 . S
O206 C184 1.240 . S
O207 Mn181 2.117 . S
O207 C184 1.264 . S
C208 C201 1.403 . S
C208 C209 1.399 . S
C208 H214 0.929 . S
C209 C189 1.449 . S
C209 C208 1.399 . S
C209 H215 0.930 . S
H210 C190 0.931 1_554 S
H211 C191 0.930 . S
H212 C199 0.931 . S
H213 C200 0.929 . S
H214 C208 0.929 . S
H215 C209 0.930 . S
Mn216 O221 2.095 . S
Mn216 O231 2.162 . S
Mn216 O232 2.297 . S
Mn216 O240 2.385 . S
Mn216 O241 2.209 . S
Mn216 O242 2.094 . S
Mn217 O222 2.121 . S
Mn217 N224 2.257 . S
Mn217 N233 2.282 . S
Mn217 O241 2.215 . S
Mn217 O243 2.117 . S
C218 O240 1.234 . S
C218 O241 1.283 . S
C219 O231 1.281 . S
C219 O232 1.236 . S
C220 O242 1.240 . S
C220 O243 1.264 . S
O221 Mn216 2.095 . S
O221 C230 1.250 . S
O222 Mn217 2.121 . S
O222 C230 1.258 . S
C223 N224 1.326 . S
C223 C227 1.460 . S
C223 H229 0.929 . S
N224 Mn217 2.257 . S
N224 C223 1.326 . S
N224 C228 1.362 . S
C225 C226 1.258 . S
C225 C228 1.431 . S
C225 C245 1.449 . S
C226 C225 1.258 . S
C226 C227 1.477 . S
C226 H246 0.931 . S
C227 C223 1.460 . S
C227 C226 1.477 . S
C227 H247 0.930 . S
C228 N224 1.362 . S
C228 C225 1.431 . S
C228 C238 1.476 . S
H229 C223 0.929 . S
C230 O221 1.250 . S
C230 O222 1.258 . S
O231 Mn216 2.162 . S
O231 C219 1.281 . S
O232 Mn216 2.297 . S
O232 C219 1.236 . S
N233 Mn217 2.282 . S
N233 C234 1.328 . S
N233 C238 1.318 . S
C234 N233 1.328 . S
C234 C235 1.457 . S
C234 H239 0.929 . S
C235 C234 1.457 . S
C235 C236 1.291 . S
C235 H248 0.931 . S
C236 C235 1.291 . S
C236 C237 1.373 . S
C236 H249 0.929 . S
C237 C236 1.373 . S
C237 C238 1.396 . S
C237 C244 1.403 . S
C238 C228 1.476 . S
C238 N233 1.318 . S
C238 C237 1.396 . S
H239 C234 0.929 . S
O240 Mn216 2.385 . S
O240 C218 1.234 . S
O241 Mn216 2.209 . S
O241 Mn217 2.215 . S
O241 C218 1.283 . S
O242 Mn216 2.094 . S
O242 C220 1.240 . S
O243 Mn217 2.117 . S
O243 C220 1.264 . S
C244 C237 1.403 . S
C244 C245 1.399 . S
C244 H250 0.929 . S
C245 C225 1.449 . S
C245 C244 1.399 . S
C245 H251 0.930 . S
H246 C226 0.931 . S
H247 C227 0.930 . S
H248 C235 0.931 . S
H249 C236 0.929 . S
H250 C244 0.929 . S
H251 C245 0.930 . S
Mn252 O257 2.095 . S
Mn252 O267 2.162 . S
Mn252 O268 2.297 . S
Mn252 O276 2.385 . S
Mn252 O277 2.209 . S
Mn252 O278 2.094 . S
Mn253 O258 2.121 . S
Mn253 N260 2.257 . S
Mn253 N269 2.282 . S
Mn253 O277 2.215 . S
Mn253 O279 2.117 . S
C254 O276 1.234 . S
C254 O277 1.283 . S
C255 O267 1.281 . S
C255 O268 1.236 . S
C256 O278 1.240 . S
C256 O279 1.264 . S
O257 Mn252 2.095 . S
O257 C266 1.250 . S
O258 Mn253 2.121 . S
O258 C266 1.258 . S
C259 N260 1.326 . S
C259 C263 1.460 . S
C259 H265 0.929 . S
N260 Mn253 2.257 . S
N260 C259 1.326 . S
N260 C264 1.362 . S
C261 C262 1.258 . S
C261 C264 1.431 . S
C261 C281 1.449 . S
C262 C261 1.258 . S
C262 C263 1.477 . S
C262 H282 0.931 . S
C263 C259 1.460 . S
C263 C262 1.477 . S
C263 H283 0.930 . S
C264 N260 1.362 . S
C264 C261 1.431 . S
C264 C274 1.476 . S
H265 C259 0.929 . S
C266 O257 1.250 . S
C266 O258 1.258 . S
O267 Mn252 2.162 . S
O267 C255 1.281 . S
O268 Mn252 2.297 . S
O268 C255 1.236 . S
N269 Mn253 2.282 . S
N269 C270 1.328 . S
N269 C274 1.318 . S
C270 N269 1.328 . S
C270 C271 1.457 . S
C270 H275 0.929 . S
C271 C270 1.457 . S
C271 C272 1.291 . S
C271 H284 0.931 . S
C272 C271 1.291 . S
C272 C273 1.373 . S
C272 H285 0.929 . S
C273 C272 1.373 . S
C273 C274 1.396 . S
C273 C280 1.403 . S
C274 C264 1.476 . S
C274 N269 1.318 . S
C274 C273 1.396 . S
H275 C270 0.929 . S
O276 Mn252 2.385 . S
O276 C254 1.234 . S
O277 Mn252 2.209 . S
O277 Mn253 2.215 . S
O277 C254 1.283 . S
O278 Mn252 2.094 . S
O278 C256 1.240 . S
O279 Mn253 2.117 . S
O279 C256 1.264 . S
C280 C273 1.403 . S
C280 C281 1.399 . S
C280 H286 0.929 . S
C281 C261 1.449 . S
C281 C280 1.399 . S
C281 H287 0.930 . S
H282 C262 0.931 . S
H283 C263 0.930 . S
H284 C271 0.931 . S
H285 C272 0.929 . S
H286 C280 0.929 . S
H287 C281 0.930 . S
Mn288 O293 2.095 . S
Mn288 O303 2.162 . S
Mn288 O304 2.297 . S
Mn288 O312 2.385 1_565 S
Mn288 O313 2.209 . S
Mn288 O314 2.094 . S
Mn289 O294 2.121 . S
Mn289 N296 2.257 . S
Mn289 N305 2.282 . S
Mn289 O313 2.215 . S
Mn289 O315 2.117 . S
C290 O312 1.234 . S
C290 O313 1.283 1_545 S
C291 O303 1.281 . S
C291 O304 1.236 . S
C292 O314 1.240 . S
C292 O315 1.264 . S
O293 Mn288 2.095 . S
O293 C302 1.250 . S
O294 Mn289 2.121 . S
O294 C302 1.258 . S
C295 N296 1.326 . S
C295 C299 1.460 1_455 S
C295 H301 0.929 . S
N296 Mn289 2.257 . S
N296 C295 1.326 . S
N296 C300 1.362 . S
C297 C298 1.258 . S
C297 C300 1.431 . S
C297 C317 1.449 1_565 S
C298 C297 1.258 . S
C298 C299 1.477 1_455 S
C298 H318 0.931 1_455 S
C299 C295 1.460 1_655 S
C299 C298 1.477 1_655 S
C299 H319 0.930 . S
C300 N296 1.362 . S
C300 C297 1.431 . S
C300 C310 1.476 1_565 S
H301 C295 0.929 . S
C302 O293 1.250 . S
C302 O294 1.258 . S
O303 Mn288 2.162 . S
O303 C291 1.281 . S
O304 Mn288 2.297 . S
O304 C291 1.236 . S
N305 Mn289 2.282 . S
N305 C306 1.328 1_565 S
N305 C310 1.318 1_565 S
C306 N305 1.328 1_545 S
C306 C307 1.457 . S
C306 H311 0.929 . S
C307 C306 1.457 . S
C307 C308 1.291 . S
C307 H320 0.931 . S
C308 C307 1.291 . S
C308 C309 1.373 . S
C308 H321 0.929 . S
C309 C308 1.373 . S
C309 C310 1.396 . S
C309 C316 1.403 . S
C310 C300 1.476 1_545 S
C310 N305 1.318 1_545 S
C310 C309 1.396 . S
H311 C306 0.929 . S
O312 Mn288 2.385 1_545 S
O312 C290 1.234 . S
O313 Mn288 2.209 . S
O313 Mn289 2.215 . S
O313 C290 1.283 1_565 S
O314 Mn288 2.094 . S
O314 C292 1.240 . S
O315 Mn289 2.117 . S
O315 C292 1.264 . S
C316 C309 1.403 . S
C316 C317 1.399 . S
C316 H322 0.929 . S
C317 C297 1.449 1_545 S
C317 C316 1.399 . S
C317 H323 0.930 . S
H318 C298 0.931 1_655 S
H319 C299 0.930 . S
H320 C307 0.931 . S
H321 C308 0.929 . S
H322 C316 0.929 . S
H323 C317 0.930 . S
Mn324 O329 2.095 . S
Mn324 O339 2.162 . S
Mn324 O340 2.297 . S
Mn324 O348 2.385 . S
Mn324 O349 2.209 . S
Mn324 O350 2.094 . S
Mn325 O330 2.121 . S
Mn325 N332 2.257 . S
Mn325 N341 2.282 . S
Mn325 O349 2.215 . S
Mn325 O351 2.117 . S
C326 O348 1.234 . S
C326 O349 1.283 . S
C327 O339 1.281 . S
C327 O340 1.236 . S
C328 O350 1.240 . S
C328 O351 1.264 . S
O329 Mn324 2.095 . S
O329 C338 1.250 . S
O330 Mn325 2.121 . S
O330 C338 1.258 . S
C331 N332 1.326 . S
C331 C335 1.460 . S
C331 H337 0.929 . S
N332 Mn325 2.257 . S
N332 C331 1.326 . S
N332 C336 1.362 . S
C333 C334 1.258 . S
C333 C336 1.431 . S
C333 C353 1.449 . S
C334 C333 1.258 . S
C334 C335 1.477 . S
C334 H354 0.931 . S
C335 C331 1.460 . S
C335 C334 1.477 . S
C335 H355 0.930 . S
C336 N332 1.362 . S
C336 C333 1.431 . S
C336 C346 1.476 . S
H337 C331 0.929 . S
C338 O329 1.250 . S
C338 O330 1.258 . S
O339 Mn324 2.162 . S
O339 C327 1.281 . S
O340 Mn324 2.297 . S
O340 C327 1.236 . S
N341 Mn325 2.282 . S
N341 C342 1.328 . S
N341 C346 1.318 . S
C342 N341 1.328 . S
C342 C343 1.457 . S
C342 H347 0.929 . S
C343 C342 1.457 . S
C343 C344 1.291 . S
C343 H356 0.931 . S
C344 C343 1.291 . S
C344 C345 1.373 . S
C344 H357 0.929 . S
C345 C344 1.373 . S
C345 C346 1.396 . S
C345 C352 1.403 . S
C346 C336 1.476 . S
C346 N341 1.318 . S
C346 C345 1.396 . S
H347 C342 0.929 . S
O348 Mn324 2.385 . S
O348 C326 1.234 . S
O349 Mn324 2.209 . S
O349 Mn325 2.215 . S
O349 C326 1.283 . S
O350 Mn324 2.094 . S
O350 C328 1.240 . S
O351 Mn325 2.117 . S
O351 C328 1.264 . S
C352 C345 1.403 . S
C352 C353 1.399 . S
C352 H358 0.929 . S
C353 C333 1.449 . S
C353 C352 1.399 . S
C353 H359 0.930 . S
H354 C334 0.931 . S
H355 C335 0.930 . S
H356 C343 0.931 . S
H357 C344 0.929 . S
H358 C352 0.929 . S
H359 C353 0.930 . S
Mn360 O365 2.095 . S
Mn360 O375 2.162 . S
Mn360 O376 2.297 . S
Mn360 O384 2.385 . S
Mn360 O385 2.209 . S
Mn360 O386 2.094 . S
Mn361 O366 2.121 . S
Mn361 N368 2.257 . S
Mn361 N377 2.282 . S
Mn361 O385 2.215 . S
Mn361 O387 2.117 . S
C362 O384 1.234 . S
C362 O385 1.283 . S
C363 O375 1.281 . S
C363 O376 1.236 . S
C364 O386 1.240 . S
C364 O387 1.264 . S
O365 Mn360 2.095 . S
O365 C374 1.250 . S
O366 Mn361 2.121 . S
O366 C374 1.258 . S
C367 N368 1.326 . S
C367 C371 1.460 1_455 S
C367 H373 0.929 . S
N368 Mn361 2.257 . S
N368 C367 1.326 . S
N368 C372 1.362 . S
C369 C370 1.258 . S
C369 C372 1.431 . S
C369 C389 1.449 . S
C370 C369 1.258 . S
C370 C371 1.477 1_455 S
C370 H390 0.931 1_455 S
C371 C367 1.460 1_655 S
C371 C370 1.477 1_655 S
C371 H391 0.930 . S
C372 N368 1.362 . S
C372 C369 1.431 . S
C372 C382 1.476 . S
H373 C367 0.929 . S
C374 O365 1.250 . S
C374 O366 1.258 . S
O375 Mn360 2.162 . S
O375 C363 1.281 . S
O376 Mn360 2.297 . S
O376 C363 1.236 . S
N377 Mn361 2.282 . S
N377 C378 1.328 . S
N377 C382 1.318 . S
C378 N377 1.328 . S
C378 C379 1.457 . S
C378 H383 0.929 . S
C379 C378 1.457 . S
C379 C380 1.291 . S
C379 H392 0.931 . S
C380 C379 1.291 . S
C380 C381 1.373 . S
C380 H393 0.929 . S
C381 C380 1.373 . S
C381 C382 1.396 . S
C381 C388 1.403 . S
C382 C372 1.476 . S
C382 N377 1.318 . S
C382 C381 1.396 . S
H383 C378 0.929 . S
O384 Mn360 2.385 . S
O384 C362 1.234 . S
O385 Mn360 2.209 . S
O385 Mn361 2.215 . S
O385 C362 1.283 . S
O386 Mn360 2.094 . S
O386 C364 1.240 . S
O387 Mn361 2.117 . S
O387 C364 1.264 . S
C388 C381 1.403 . S
C388 C389 1.399 . S
C388 H394 0.929 . S
C389 C369 1.449 . S
C389 C388 1.399 . S
C389 H395 0.930 . S
H390 C370 0.931 1_655 S
H391 C371 0.930 . S
H392 C379 0.931 . S
H393 C380 0.929 . S
H394 C388 0.929 . S
H395 C389 0.930 . S
Mn396 O401 2.095 . S
Mn396 O411 2.162 . S
Mn396 O412 2.297 . S
Mn396 O420 2.385 1_565 S
Mn396 O421 2.209 . S
Mn396 O422 2.094 . S
Mn397 O402 2.121 . S
Mn397 N404 2.257 . S
Mn397 N413 2.282 . S
Mn397 O421 2.215 . S
Mn397 O423 2.117 . S
C398 O420 1.234 . S
C398 O421 1.283 1_545 S
C399 O411 1.281 . S
C399 O412 1.236 . S
C400 O422 1.240 . S
C400 O423 1.264 . S
O401 Mn396 2.095 . S
O401 C410 1.250 . S
O402 Mn397 2.121 . S
O402 C410 1.258 . S
C403 N404 1.326 . S
C403 C407 1.460 . S
C403 H409 0.929 . S
N404 Mn397 2.257 . S
N404 C403 1.326 . S
N404 C408 1.362 . S
C405 C406 1.258 . S
C405 C408 1.431 . S
C405 C425 1.449 1_565 S
C406 C405 1.258 . S
C406 C407 1.477 . S
C406 H426 0.931 . S
C407 C403 1.460 . S
C407 C406 1.477 . S
C407 H427 0.930 . S
C408 N404 1.362 . S
C408 C405 1.431 . S
C408 C418 1.476 1_565 S
H409 C403 0.929 . S
C410 O401 1.250 . S
C410 O402 1.258 . S
O411 Mn396 2.162 . S
O411 C399 1.281 . S
O412 Mn396 2.297 . S
O412 C399 1.236 . S
N413 Mn397 2.282 . S
N413 C414 1.328 1_565 S
N413 C418 1.318 1_565 S
C414 N413 1.328 1_545 S
C414 C415 1.457 . S
C414 H419 0.929 . S
C415 C414 1.457 . S
C415 C416 1.291 . S
C415 H428 0.931 . S
C416 C415 1.291 . S
C416 C417 1.373 . S
C416 H429 0.929 . S
C417 C416 1.373 . S
C417 C418 1.396 . S
C417 C424 1.403 . S
C418 C408 1.476 1_545 S
C418 N413 1.318 1_545 S
C418 C417 1.396 . S
H419 C414 0.929 . S
O420 Mn396 2.385 1_545 S
O420 C398 1.234 . S
O421 Mn396 2.209 . S
O421 Mn397 2.215 . S
O421 C398 1.283 1_565 S
O422 Mn396 2.094 . S
O422 C400 1.240 . S
O423 Mn397 2.117 . S
O423 C400 1.264 . S
C424 C417 1.403 . S
C424 C425 1.399 . S
C424 H430 0.929 . S
C425 C405 1.449 1_545 S
C425 C424 1.399 . S
C425 H431 0.930 . S
H426 C406 0.931 . S
H427 C407 0.930 . S
H428 C415 0.931 . S
H429 C416 0.929 . S
H430 C424 0.929 . S
H431 C425 0.930 . S
Mn432 O437 2.095 . S
Mn432 O447 2.162 . S
Mn432 O448 2.297 . S
Mn432 O456 2.385 . S
Mn432 O457 2.209 . S
Mn432 O458 2.094 . S
Mn433 O438 2.121 1_565 S
Mn433 N440 2.257 . S
Mn433 N449 2.282 . S
Mn433 O457 2.215 1_565 S
Mn433 O459 2.117 . S
C434 O456 1.234 . S
C434 O457 1.283 . S
C435 O447 1.281 . S
C435 O448 1.236 . S
C436 O458 1.240 1_565 S
C436 O459 1.264 . S
O437 Mn432 2.095 . S
O437 C446 1.250 . S
O438 Mn433 2.121 1_545 S
O438 C446 1.258 . S
C439 N440 1.326 1_545 S
C439 C443 1.460 . S
C439 H445 0.929 . S
N440 Mn433 2.257 . S
N440 C439 1.326 1_565 S
N440 C444 1.362 . S
C441 C442 1.258 . S
C441 C444 1.431 . S
C441 C461 1.449 . S
C442 C441 1.258 . S
C442 C443 1.477 1_565 S
C442 H462 0.931 . S
C443 C439 1.460 . S
C443 C442 1.477 1_545 S
C443 H463 0.930 . S
C444 N440 1.362 . S
C444 C441 1.431 . S
C444 C454 1.476 . S
H445 C439 0.929 . S
C446 O437 1.250 . S
C446 O438 1.258 . S
O447 Mn432 2.162 . S
O447 C435 1.281 . S
O448 Mn432 2.297 . S
O448 C435 1.236 . S
N449 Mn433 2.282 . S
N449 C450 1.328 . S
N449 C454 1.318 . S
C450 N449 1.328 . S
C450 C451 1.457 . S
C450 H455 0.929 . S
C451 C450 1.457 . S
C451 C452 1.291 . S
C451 H464 0.931 . S
C452 C451 1.291 . S
C452 C453 1.373 . S
C452 H465 0.929 . S
C453 C452 1.373 . S
C453 C454 1.396 . S
C453 C460 1.403 . S
C454 C444 1.476 . S
C454 N449 1.318 . S
C454 C453 1.396 . S
H455 C450 0.929 . S
O456 Mn432 2.385 . S
O456 C434 1.234 . S
O457 Mn432 2.209 . S
O457 Mn433 2.215 1_545 S
O457 C434 1.283 . S
O458 Mn432 2.094 . S
O458 C436 1.240 1_545 S
O459 Mn433 2.117 . S
O459 C436 1.264 . S
C460 C453 1.403 . S
C460 C461 1.399 . S
C460 H466 0.929 . S
C461 C441 1.449 . S
C461 C460 1.399 . S
C461 H467 0.930 . S
H462 C442 0.931 . S
H463 C443 0.930 . S
H464 C451 0.931 . S
H465 C452 0.929 . S
H466 C460 0.929 . S
H467 C461 0.930 . S
Mn468 O473 2.095 . S
Mn468 O483 2.162 . S
Mn468 O484 2.297 . S
Mn468 O492 2.385 . S
Mn468 O493 2.209 . S
Mn468 O494 2.094 . S
Mn469 O474 2.121 . S
Mn469 N476 2.257 . S
Mn469 N485 2.282 . S
Mn469 O493 2.215 . S
Mn469 O495 2.117 . S
C470 O492 1.234 . S
C470 O493 1.283 . S
C471 O483 1.281 . S
C471 O484 1.236 . S
C472 O494 1.240 . S
C472 O495 1.264 . S
O473 Mn468 2.095 . S
O473 C482 1.250 . S
O474 Mn469 2.121 . S
O474 C482 1.258 . S
C475 N476 1.326 . S
C475 C479 1.460 . S
C475 H481 0.929 . S
N476 Mn469 2.257 . S
N476 C475 1.326 . S
N476 C480 1.362 . S
C477 C478 1.258 . S
C477 C480 1.431 . S
C477 C497 1.449 . S
C478 C477 1.258 . S
C478 C479 1.477 . S
C478 H498 0.931 . S
C479 C475 1.460 . S
C479 C478 1.477 . S
C479 H499 0.930 . S
C480 N476 1.362 . S
C480 C477 1.431 . S
C480 C490 1.476 . S
H481 C475 0.929 . S
C482 O473 1.250 . S
C482 O474 1.258 . S
O483 Mn468 2.162 . S
O483 C471 1.281 . S
O484 Mn468 2.297 . S
O484 C471 1.236 . S
N485 Mn469 2.282 . S
N485 C486 1.328 . S
N485 C490 1.318 . S
C486 N485 1.328 . S
C486 C487 1.457 . S
C486 H491 0.929 . S
C487 C486 1.457 . S
C487 C488 1.291 . S
C487 H500 0.931 . S
C488 C487 1.291 . S
C488 C489 1.373 . S
C488 H501 0.929 . S
C489 C488 1.373 . S
C489 C490 1.396 . S
C489 C496 1.403 . S
C490 C480 1.476 . S
C490 N485 1.318 . S
C490 C489 1.396 . S
H491 C486 0.929 . S
O492 Mn468 2.385 . S
O492 C470 1.234 . S
O493 Mn468 2.209 . S
O493 Mn469 2.215 . S
O493 C470 1.283 . S
O494 Mn468 2.094 . S
O494 C472 1.240 . S
O495 Mn469 2.117 . S
O495 C472 1.264 . S
C496 C489 1.403 . S
C496 C497 1.399 . S
C496 H502 0.929 . S
C497 C477 1.449 . S
C497 C496 1.399 . S
C497 H503 0.930 . S
H498 C478 0.931 . S
H499 C479 0.930 . S
H500 C487 0.931 . S
H501 C488 0.929 . S
H502 C496 0.929 . S
H503 C497 0.930 . S
Mn504 O509 2.095 . S
Mn504 O519 2.162 . S
Mn504 O520 2.297 . S
Mn504 O528 2.385 . S
Mn504 O529 2.209 . S
Mn504 O530 2.094 . S
Mn505 O510 2.121 . S
Mn505 N512 2.257 . S
Mn505 N521 2.282 . S
Mn505 O529 2.215 . S
Mn505 O531 2.117 . S
C506 O528 1.234 . S
C506 O529 1.283 . S
C507 O519 1.281 . S
C507 O520 1.236 . S
C508 O530 1.240 . S
C508 O531 1.264 . S
O509 Mn504 2.095 . S
O509 C518 1.250 . S
O510 Mn505 2.121 . S
O510 C518 1.258 . S
C511 N512 1.326 . S
C511 C515 1.460 . S
C511 H517 0.929 . S
N512 Mn505 2.257 . S
N512 C511 1.326 . S
N512 C516 1.362 . S
C513 C514 1.258 . S
C513 C516 1.431 . S
C513 C533 1.449 . S
C514 C513 1.258 . S
C514 C515 1.477 . S
C514 H534 0.931 . S
C515 C511 1.460 . S
C515 C514 1.477 . S
C515 H535 0.930 . S
C516 N512 1.362 . S
C516 C513 1.431 . S
C516 C526 1.476 . S
H517 C511 0.929 . S
C518 O509 1.250 . S
C518 O510 1.258 . S
O519 Mn504 2.162 . S
O519 C507 1.281 . S
O520 Mn504 2.297 . S
O520 C507 1.236 . S
N521 Mn505 2.282 . S
N521 C522 1.328 . S
N521 C526 1.318 . S
C522 N521 1.328 . S
C522 C523 1.457 . S
C522 H527 0.929 . S
C523 C522 1.457 . S
C523 C524 1.291 . S
C523 H536 0.931 . S
C524 C523 1.291 . S
C524 C525 1.373 . S
C524 H537 0.929 . S
C525 C524 1.373 . S
C525 C526 1.396 . S
C525 C532 1.403 . S
C526 C516 1.476 . S
C526 N521 1.318 . S
C526 C525 1.396 . S
H527 C522 0.929 . S
O528 Mn504 2.385 . S
O528 C506 1.234 . S
O529 Mn504 2.209 . S
O529 Mn505 2.215 . S
O529 C506 1.283 . S
O530 Mn504 2.094 . S
O530 C508 1.240 . S
O531 Mn505 2.117 . S
O531 C508 1.264 . S
C532 C525 1.403 . S
C532 C533 1.399 . S
C532 H538 0.929 . S
C533 C513 1.449 . S
C533 C532 1.399 . S
C533 H539 0.930 . S
H534 C514 0.931 . S
H535 C515 0.930 . S
H536 C523 0.931 . S
H537 C524 0.929 . S
H538 C532 0.929 . S
H539 C533 0.930 . S
Mn540 O545 2.095 . S
Mn540 O555 2.162 . S
Mn540 O556 2.297 . S
Mn540 O564 2.385 . S
Mn540 O565 2.209 . S
Mn540 O566 2.094 . S
Mn541 O546 2.121 1_565 S
Mn541 N548 2.257 . S
Mn541 N557 2.282 . S
Mn541 O565 2.215 1_565 S
Mn541 O567 2.117 . S
C542 O564 1.234 . S
C542 O565 1.283 . S
C543 O555 1.281 . S
C543 O556 1.236 . S
C544 O566 1.240 1_565 S
C544 O567 1.264 . S
O545 Mn540 2.095 . S
O545 C554 1.250 . S
O546 Mn541 2.121 1_545 S
O546 C554 1.258 . S
C547 N548 1.326 1_545 S
C547 C551 1.460 . S
C547 H553 0.929 . S
N548 Mn541 2.257 . S
N548 C547 1.326 1_565 S
N548 C552 1.362 . S
C549 C550 1.258 . S
C549 C552 1.431 . S
C549 C569 1.449 . S
C550 C549 1.258 . S
C550 C551 1.477 1_565 S
C550 H570 0.931 . S
C551 C547 1.460 . S
C551 C550 1.477 1_545 S
C551 H571 0.930 . S
C552 N548 1.362 . S
C552 C549 1.431 . S
C552 C562 1.476 . S
H553 C547 0.929 . S
C554 O545 1.250 . S
C554 O546 1.258 . S
O555 Mn540 2.162 . S
O555 C543 1.281 . S
O556 Mn540 2.297 . S
O556 C543 1.236 . S
N557 Mn541 2.282 . S
N557 C558 1.328 . S
N557 C562 1.318 . S
C558 N557 1.328 . S
C558 C559 1.457 . S
C558 H563 0.929 . S
C559 C558 1.457 . S
C559 C560 1.291 . S
C559 H572 0.931 . S
C560 C559 1.291 . S
C560 C561 1.373 . S
C560 H573 0.929 . S
C561 C560 1.373 . S
C561 C562 1.396 . S
C561 C568 1.403 . S
C562 C552 1.476 . S
C562 N557 1.318 . S
C562 C561 1.396 . S
H563 C558 0.929 . S
O564 Mn540 2.385 . S
O564 C542 1.234 . S
O565 Mn540 2.209 . S
O565 Mn541 2.215 1_545 S
O565 C542 1.283 . S
O566 Mn540 2.094 . S
O566 C544 1.240 1_545 S
O567 Mn541 2.117 . S
O567 C544 1.264 . S
C568 C561 1.403 . S
C568 C569 1.399 . S
C568 H574 0.929 . S
C569 C549 1.449 . S
C569 C568 1.399 . S
C569 H575 0.930 . S
H570 C550 0.931 . S
H571 C551 0.930 . S
H572 C559 0.931 . S
H573 C560 0.929 . S
H574 C568 0.929 . S
H575 C569 0.930 . S
Mn576 O581 2.095 . S
Mn576 O591 2.162 . S
Mn576 O592 2.297 . S
Mn576 O600 2.385 . S
Mn576 O601 2.209 . S
Mn576 O602 2.094 . S
Mn577 O582 2.121 . S
Mn577 N584 2.257 . S
Mn577 N593 2.282 . S
Mn577 O601 2.215 . S
Mn577 O603 2.117 . S
C578 O600 1.234 . S
C578 O601 1.283 . S
C579 O591 1.281 . S
C579 O592 1.236 . S
C580 O602 1.240 . S
C580 O603 1.264 . S
O581 Mn576 2.095 . S
O581 C590 1.250 . S
O582 Mn577 2.121 . S
O582 C590 1.258 . S
C583 N584 1.326 . S
C583 C587 1.460 . S
C583 H589 0.929 . S
N584 Mn577 2.257 . S
N584 C583 1.326 . S
N584 C588 1.362 . S
C585 C586 1.258 . S
C585 C588 1.431 . S
C585 C605 1.449 . S
C586 C585 1.258 . S
C586 C587 1.477 . S
C586 H606 0.931 . S
C587 C583 1.460 . S
C587 C586 1.477 . S
C587 H607 0.930 . S
C588 N584 1.362 . S
C588 C585 1.431 . S
C588 C598 1.476 . S
H589 C583 0.929 . S
C590 O581 1.250 . S
C590 O582 1.258 . S
O591 Mn576 2.162 . S
O591 C579 1.281 . S
O592 Mn576 2.297 . S
O592 C579 1.236 . S
N593 Mn577 2.282 . S
N593 C594 1.328 . S
N593 C598 1.318 . S
C594 N593 1.328 . S
C594 C595 1.457 . S
C594 H599 0.929 . S
C595 C594 1.457 . S
C595 C596 1.291 . S
C595 H608 0.931 . S
C596 C595 1.291 . S
C596 C597 1.373 . S
C596 H609 0.929 . S
C597 C596 1.373 . S
C597 C598 1.396 . S
C597 C604 1.403 . S
C598 C588 1.476 . S
C598 N593 1.318 . S
C598 C597 1.396 . S
H599 C594 0.929 . S
O600 Mn576 2.385 . S
O600 C578 1.234 . S
O601 Mn576 2.209 . S
O601 Mn577 2.215 . S
O601 C578 1.283 . S
O602 Mn576 2.094 . S
O602 C580 1.240 . S
O603 Mn577 2.117 . S
O603 C580 1.264 . S
C604 C597 1.403 . S
C604 C605 1.399 . S
C604 H610 0.929 . S
C605 C585 1.449 . S
C605 C604 1.399 . S
C605 H611 0.930 . S
H606 C586 0.931 . S
H607 C587 0.930 . S
H608 C595 0.931 . S
H609 C596 0.929 . S
H610 C604 0.929 . S
H611 C605 0.930 . S
Mn612 O617 2.095 . S
Mn612 O627 2.162 . S
Mn612 O628 2.297 . S
Mn612 O636 2.385 . S
Mn612 O637 2.209 . S
Mn612 O638 2.094 . S
Mn613 O618 2.121 . S
Mn613 N620 2.257 . S
Mn613 N629 2.282 . S
Mn613 O637 2.215 . S
Mn613 O639 2.117 . S
C614 O636 1.234 . S
C614 O637 1.283 . S
C615 O627 1.281 . S
C615 O628 1.236 . S
C616 O638 1.240 . S
C616 O639 1.264 . S
O617 Mn612 2.095 . S
O617 C626 1.250 . S
O618 Mn613 2.121 . S
O618 C626 1.258 . S
C619 N620 1.326 . S
C619 C623 1.460 . S
C619 H625 0.929 . S
N620 Mn613 2.257 . S
N620 C619 1.326 . S
N620 C624 1.362 . S
C621 C622 1.258 . S
C621 C624 1.431 . S
C621 C641 1.449 . S
C622 C621 1.258 . S
C622 C623 1.477 . S
C622 H642 0.931 . S
C623 C619 1.460 . S
C623 C622 1.477 . S
C623 H643 0.930 . S
C624 N620 1.362 . S
C624 C621 1.431 . S
C624 C634 1.476 . S
H625 C619 0.929 . S
C626 O617 1.250 . S
C626 O618 1.258 . S
O627 Mn612 2.162 . S
O627 C615 1.281 . S
O628 Mn612 2.297 . S
O628 C615 1.236 . S
N629 Mn613 2.282 . S
N629 C630 1.328 . S
N629 C634 1.318 . S
C630 N629 1.328 . S
C630 C631 1.457 . S
C630 H635 0.929 . S
C631 C630 1.457 . S
C631 C632 1.291 . S
C631 H644 0.931 . S
C632 C631 1.291 . S
C632 C633 1.373 . S
C632 H645 0.929 . S
C633 C632 1.373 . S
C633 C634 1.396 . S
C633 C640 1.403 . S
C634 C624 1.476 . S
C634 N629 1.318 . S
C634 C633 1.396 . S
H635 C630 0.929 . S
O636 Mn612 2.385 . S
O636 C614 1.234 . S
O637 Mn612 2.209 . S
O637 Mn613 2.215 . S
O637 C614 1.283 . S
O638 Mn612 2.094 . S
O638 C616 1.240 . S
O639 Mn613 2.117 . S
O639 C616 1.264 . S
C640 C633 1.403 . S
C640 C641 1.399 . S
C640 H646 0.929 . S
C641 C621 1.449 . S
C641 C640 1.399 . S
C641 H647 0.930 . S
H642 C622 0.931 . S
H643 C623 0.930 . S
H644 C631 0.931 . S
H645 C632 0.929 . S
H646 C640 0.929 . S
H647 C641 0.930 . S
Mn648 O653 2.095 . S
Mn648 O663 2.162 . S
Mn648 O664 2.297 . S
Mn648 O672 2.385 . S
Mn648 O673 2.209 . S
Mn648 O674 2.094 . S
Mn649 O654 2.121 . S
Mn649 N656 2.257 . S
Mn649 N665 2.282 . S
Mn649 O673 2.215 . S
Mn649 O675 2.117 . S
C650 O672 1.234 . S
C650 O673 1.283 . S
C651 O663 1.281 . S
C651 O664 1.236 . S
C652 O674 1.240 . S
C652 O675 1.264 . S
O653 Mn648 2.095 . S
O653 C662 1.250 . S
O654 Mn649 2.121 . S
O654 C662 1.258 . S
C655 N656 1.326 . S
C655 C659 1.460 . S
C655 H661 0.929 . S
N656 Mn649 2.257 . S
N656 C655 1.326 . S
N656 C660 1.362 . S
C657 C658 1.258 . S
C657 C660 1.431 . S
C657 C677 1.449 . S
C658 C657 1.258 . S
C658 C659 1.477 . S
C658 H678 0.931 . S
C659 C655 1.460 . S
C659 C658 1.477 . S
C659 H679 0.930 . S
C660 N656 1.362 . S
C660 C657 1.431 . S
C660 C670 1.476 . S
H661 C655 0.929 . S
C662 O653 1.250 . S
C662 O654 1.258 . S
O663 Mn648 2.162 . S
O663 C651 1.281 . S
O664 Mn648 2.297 . S
O664 C651 1.236 . S
N665 Mn649 2.282 . S
N665 C666 1.328 . S
N665 C670 1.318 . S
C666 N665 1.328 . S
C666 C667 1.457 . S
C666 H671 0.929 . S
C667 C666 1.457 . S
C667 C668 1.291 . S
C667 H680 0.931 . S
C668 C667 1.291 . S
C668 C669 1.373 . S
C668 H681 0.929 . S
C669 C668 1.373 . S
C669 C670 1.396 . S
C669 C676 1.403 . S
C670 C660 1.476 . S
C670 N665 1.318 . S
C670 C669 1.396 . S
H671 C666 0.929 . S
O672 Mn648 2.385 . S
O672 C650 1.234 . S
O673 Mn648 2.209 . S
O673 Mn649 2.215 . S
O673 C650 1.283 . S
O674 Mn648 2.094 . S
O674 C652 1.240 . S
O675 Mn649 2.117 . S
O675 C652 1.264 . S
C676 C669 1.403 . S
C676 C677 1.399 . S
C676 H682 0.929 . S
C677 C657 1.449 . S
C677 C676 1.399 . S
C677 H683 0.930 . S
H678 C658 0.931 . S
H679 C659 0.930 . S
H680 C667 0.931 . S
H681 C668 0.929 . S
H682 C676 0.929 . S
H683 C677 0.930 . S
Mn684 O689 2.095 . S
Mn684 O699 2.162 . S
Mn684 O700 2.297 . S
Mn684 O708 2.385 . S
Mn684 O709 2.209 . S
Mn684 O710 2.094 . S
Mn685 O690 2.121 . S
Mn685 N692 2.257 . S
Mn685 N701 2.282 . S
Mn685 O709 2.215 . S
Mn685 O711 2.117 . S
C686 O708 1.234 . S
C686 O709 1.283 . S
C687 O699 1.281 . S
C687 O700 1.236 . S
C688 O710 1.240 . S
C688 O711 1.264 . S
O689 Mn684 2.095 . S
O689 C698 1.250 . S
O690 Mn685 2.121 . S
O690 C698 1.258 . S
C691 N692 1.326 . S
C691 C695 1.460 . S
C691 H697 0.929 . S
N692 Mn685 2.257 . S
N692 C691 1.326 . S
N692 C696 1.362 . S
C693 C694 1.258 . S
C693 C696 1.431 . S
C693 C713 1.449 . S
C694 C693 1.258 . S
C694 C695 1.477 . S
C694 H714 0.931 . S
C695 C691 1.460 . S
C695 C694 1.477 . S
C695 H715 0.930 . S
C696 N692 1.362 . S
C696 C693 1.431 . S
C696 C706 1.476 . S
H697 C691 0.929 . S
C698 O689 1.250 . S
C698 O690 1.258 . S
O699 Mn684 2.162 . S
O699 C687 1.281 . S
O700 Mn684 2.297 . S
O700 C687 1.236 . S
N701 Mn685 2.282 . S
N701 C702 1.328 . S
N701 C706 1.318 . S
C702 N701 1.328 . S
C702 C703 1.457 . S
C702 H707 0.929 . S
C703 C702 1.457 . S
C703 C704 1.291 . S
C703 H716 0.931 . S
C704 C703 1.291 . S
C704 C705 1.373 . S
C704 H717 0.929 . S
C705 C704 1.373 . S
C705 C706 1.396 . S
C705 C712 1.403 . S
C706 C696 1.476 . S
C706 N701 1.318 . S
C706 C705 1.396 . S
H707 C702 0.929 . S
O708 Mn684 2.385 . S
O708 C686 1.234 . S
O709 Mn684 2.209 . S
O709 Mn685 2.215 . S
O709 C686 1.283 . S
O710 Mn684 2.094 . S
O710 C688 1.240 . S
O711 Mn685 2.117 . S
O711 C688 1.264 . S
C712 C705 1.403 . S
C712 C713 1.399 . S
C712 H718 0.929 . S
C713 C693 1.449 . S
C713 C712 1.399 . S
C713 H719 0.930 . S
H714 C694 0.931 . S
H715 C695 0.930 . S
H716 C703 0.931 . S
H717 C704 0.929 . S
H718 C712 0.929 . S
H719 C713 0.930 . S
Mn720 O725 2.095 . S
Mn720 O735 2.162 . S
Mn720 O736 2.297 . S
Mn720 O744 2.385 . S
Mn720 O745 2.209 . S
Mn720 O746 2.094 . S
Mn721 O726 2.121 . S
Mn721 N728 2.257 . S
Mn721 N737 2.282 . S
Mn721 O745 2.215 . S
Mn721 O747 2.117 . S
C722 O744 1.234 . S
C722 O745 1.283 . S
C723 O735 1.281 . S
C723 O736 1.236 . S
C724 O746 1.240 . S
C724 O747 1.264 . S
O725 Mn720 2.095 . S
O725 C734 1.250 . S
O726 Mn721 2.121 . S
O726 C734 1.258 . S
C727 N728 1.326 . S
C727 C731 1.460 . S
C727 H733 0.929 . S
N728 Mn721 2.257 . S
N728 C727 1.326 . S
N728 C732 1.362 . S
C729 C730 1.258 . S
C729 C732 1.431 . S
C729 C749 1.449 . S
C730 C729 1.258 . S
C730 C731 1.477 . S
C730 H750 0.931 . S
C731 C727 1.460 . S
C731 C730 1.477 . S
C731 H751 0.930 . S
C732 N728 1.362 . S
C732 C729 1.431 . S
C732 C742 1.476 . S
H733 C727 0.929 . S
C734 O725 1.250 . S
C734 O726 1.258 . S
O735 Mn720 2.162 . S
O735 C723 1.281 . S
O736 Mn720 2.297 . S
O736 C723 1.236 . S
N737 Mn721 2.282 . S
N737 C738 1.328 . S
N737 C742 1.318 . S
C738 N737 1.328 . S
C738 C739 1.457 . S
C738 H743 0.929 . S
C739 C738 1.457 . S
C739 C740 1.291 . S
C739 H752 0.931 . S
C740 C739 1.291 . S
C740 C741 1.373 . S
C740 H753 0.929 . S
C741 C740 1.373 . S
C741 C742 1.396 . S
C741 C748 1.403 . S
C742 C732 1.476 . S
C742 N737 1.318 . S
C742 C741 1.396 . S
H743 C738 0.929 . S
O744 Mn720 2.385 . S
O744 C722 1.234 . S
O745 Mn720 2.209 . S
O745 Mn721 2.215 . S
O745 C722 1.283 . S
O746 Mn720 2.094 . S
O746 C724 1.240 . S
O747 Mn721 2.117 . S
O747 C724 1.264 . S
C748 C741 1.403 . S
C748 C749 1.399 . S
C748 H754 0.929 . S
C749 C729 1.449 . S
C749 C748 1.399 . S
C749 H755 0.930 . S
H750 C730 0.931 . S
H751 C731 0.930 . S
H752 C739 0.931 . S
H753 C740 0.929 . S
H754 C748 0.929 . S
H755 C749 0.930 . S
Mn756 O761 2.095 . S
Mn756 O771 2.162 . S
Mn756 O772 2.297 . S
Mn756 O780 2.385 . S
Mn756 O781 2.209 . S
Mn756 O782 2.094 . S
Mn757 O762 2.121 . S
Mn757 N764 2.257 . S
Mn757 N773 2.282 . S
Mn757 O781 2.215 . S
Mn757 O783 2.117 . S
C758 O780 1.234 . S
C758 O781 1.283 . S
C759 O771 1.281 . S
C759 O772 1.236 . S
C760 O782 1.240 . S
C760 O783 1.264 . S
O761 Mn756 2.095 . S
O761 C770 1.250 . S
O762 Mn757 2.121 . S
O762 C770 1.258 . S
C763 N764 1.326 . S
C763 C767 1.460 . S
C763 H769 0.929 . S
N764 Mn757 2.257 . S
N764 C763 1.326 . S
N764 C768 1.362 . S
C765 C766 1.258 . S
C765 C768 1.431 . S
C765 C785 1.449 . S
C766 C765 1.258 . S
C766 C767 1.477 . S
C766 H786 0.931 . S
C767 C763 1.460 . S
C767 C766 1.477 . S
C767 H787 0.930 . S
C768 N764 1.362 . S
C768 C765 1.431 . S
C768 C778 1.476 . S
H769 C763 0.929 . S
C770 O761 1.250 . S
C770 O762 1.258 . S
O771 Mn756 2.162 . S
O771 C759 1.281 . S
O772 Mn756 2.297 . S
O772 C759 1.236 . S
N773 Mn757 2.282 . S
N773 C774 1.328 . S
N773 C778 1.318 . S
C774 N773 1.328 . S
C774 C775 1.457 . S
C774 H779 0.929 . S
C775 C774 1.457 . S
C775 C776 1.291 . S
C775 H788 0.931 . S
C776 C775 1.291 . S
C776 C777 1.373 . S
C776 H789 0.929 . S
C777 C776 1.373 . S
C777 C778 1.396 . S
C777 C784 1.403 . S
C778 C768 1.476 . S
C778 N773 1.318 . S
C778 C777 1.396 . S
H779 C774 0.929 . S
O780 Mn756 2.385 . S
O780 C758 1.234 . S
O781 Mn756 2.209 . S
O781 Mn757 2.215 . S
O781 C758 1.283 . S
O782 Mn756 2.094 . S
O782 C760 1.240 . S
O783 Mn757 2.117 . S
O783 C760 1.264 . S
C784 C777 1.403 . S
C784 C785 1.399 . S
C784 H790 0.929 . S
C785 C765 1.449 . S
C785 C784 1.399 . S
C785 H791 0.930 . S
H786 C766 0.931 . S
H787 C767 0.930 . S
H788 C775 0.931 . S
H789 C776 0.929 . S
H790 C784 0.929 . S
H791 C785 0.930 . S
Mn792 O797 2.095 . S
Mn792 O807 2.162 . S
Mn792 O808 2.297 . S
Mn792 O816 2.385 . S
Mn792 O817 2.209 . S
Mn792 O818 2.094 . S
Mn793 O798 2.121 . S
Mn793 N800 2.257 . S
Mn793 N809 2.282 . S
Mn793 O817 2.215 . S
Mn793 O819 2.117 . S
C794 O816 1.234 . S
C794 O817 1.283 . S
C795 O807 1.281 . S
C795 O808 1.236 . S
C796 O818 1.240 . S
C796 O819 1.264 . S
O797 Mn792 2.095 . S
O797 C806 1.250 . S
O798 Mn793 2.121 . S
O798 C806 1.258 . S
C799 N800 1.326 . S
C799 C803 1.460 . S
C799 H805 0.929 . S
N800 Mn793 2.257 . S
N800 C799 1.326 . S
N800 C804 1.362 . S
C801 C802 1.258 . S
C801 C804 1.431 . S
C801 C821 1.449 . S
C802 C801 1.258 . S
C802 C803 1.477 . S
C802 H822 0.931 . S
C803 C799 1.460 . S
C803 C802 1.477 . S
C803 H823 0.930 . S
C804 N800 1.362 . S
C804 C801 1.431 . S
C804 C814 1.476 . S
H805 C799 0.929 . S
C806 O797 1.250 . S
C806 O798 1.258 . S
O807 Mn792 2.162 . S
O807 C795 1.281 . S
O808 Mn792 2.297 . S
O808 C795 1.236 . S
N809 Mn793 2.282 . S
N809 C810 1.328 . S
N809 C814 1.318 . S
C810 N809 1.328 . S
C810 C811 1.457 . S
C810 H815 0.929 . S
C811 C810 1.457 . S
C811 C812 1.291 . S
C811 H824 0.931 . S
C812 C811 1.291 . S
C812 C813 1.373 . S
C812 H825 0.929 . S
C813 C812 1.373 . S
C813 C814 1.396 . S
C813 C820 1.403 . S
C814 C804 1.476 . S
C814 N809 1.318 . S
C814 C813 1.396 . S
H815 C810 0.929 . S
O816 Mn792 2.385 . S
O816 C794 1.234 . S
O817 Mn792 2.209 . S
O817 Mn793 2.215 . S
O817 C794 1.283 . S
O818 Mn792 2.094 . S
O818 C796 1.240 . S
O819 Mn793 2.117 . S
O819 C796 1.264 . S
C820 C813 1.403 . S
C820 C821 1.399 . S
C820 H826 0.929 . S
C821 C801 1.449 . S
C821 C820 1.399 . S
C821 H827 0.930 . S
H822 C802 0.931 . S
H823 C803 0.930 . S
H824 C811 0.931 . S
H825 C812 0.929 . S
H826 C820 0.929 . S
H827 C821 0.930 . S
Mn828 O833 2.095 . S
Mn828 O843 2.162 . S
Mn828 O844 2.297 . S
Mn828 O852 2.385 . S
Mn828 O853 2.209 . S
Mn828 O854 2.094 . S
Mn829 O834 2.121 . S
Mn829 N836 2.257 . S
Mn829 N845 2.282 . S
Mn829 O853 2.215 . S
Mn829 O855 2.117 . S
C830 O852 1.234 . S
C830 O853 1.283 . S
C831 O843 1.281 . S
C831 O844 1.236 . S
C832 O854 1.240 . S
C832 O855 1.264 . S
O833 Mn828 2.095 . S
O833 C842 1.250 . S
O834 Mn829 2.121 . S
O834 C842 1.258 . S
C835 N836 1.326 . S
C835 C839 1.460 . S
C835 H841 0.929 . S
N836 Mn829 2.257 . S
N836 C835 1.326 . S
N836 C840 1.362 . S
C837 C838 1.258 . S
C837 C840 1.431 . S
C837 C857 1.449 . S
C838 C837 1.258 . S
C838 C839 1.477 . S
C838 H858 0.931 . S
C839 C835 1.460 . S
C839 C838 1.477 . S
C839 H859 0.930 . S
C840 N836 1.362 . S
C840 C837 1.431 . S
C840 C850 1.476 . S
H841 C835 0.929 . S
C842 O833 1.250 . S
C842 O834 1.258 . S
O843 Mn828 2.162 . S
O843 C831 1.281 . S
O844 Mn828 2.297 . S
O844 C831 1.236 . S
N845 Mn829 2.282 . S
N845 C846 1.328 . S
N845 C850 1.318 . S
C846 N845 1.328 . S
C846 C847 1.457 . S
C846 H851 0.929 . S
C847 C846 1.457 . S
C847 C848 1.291 . S
C847 H860 0.931 . S
C848 C847 1.291 . S
C848 C849 1.373 . S
C848 H861 0.929 . S
C849 C848 1.373 . S
C849 C850 1.396 . S
C849 C856 1.403 . S
C850 C840 1.476 . S
C850 N845 1.318 . S
C850 C849 1.396 . S
H851 C846 0.929 . S
O852 Mn828 2.385 . S
O852 C830 1.234 . S
O853 Mn828 2.209 . S
O853 Mn829 2.215 . S
O853 C830 1.283 . S
O854 Mn828 2.094 . S
O854 C832 1.240 . S
O855 Mn829 2.117 . S
O855 C832 1.264 . S
C856 C849 1.403 . S
C856 C857 1.399 . S
C856 H862 0.929 . S
C857 C837 1.449 . S
C857 C856 1.399 . S
C857 H863 0.930 . S
H858 C838 0.931 . S
H859 C839 0.930 . S
H860 C847 0.931 . S
H861 C848 0.929 . S
H862 C856 0.929 . S
H863 C857 0.930 . S
Mn864 O869 2.095 . S
Mn864 O879 2.162 . S
Mn864 O880 2.297 . S
Mn864 O888 2.385 1_565 S
Mn864 O889 2.209 . S
Mn864 O890 2.094 . S
Mn865 O870 2.121 . S
Mn865 N872 2.257 . S
Mn865 N881 2.282 . S
Mn865 O889 2.215 . S
Mn865 O891 2.117 . S
C866 O888 1.234 . S
C866 O889 1.283 1_545 S
C867 O879 1.281 . S
C867 O880 1.236 . S
C868 O890 1.240 . S
C868 O891 1.264 . S
O869 Mn864 2.095 . S
O869 C878 1.250 . S
O870 Mn865 2.121 . S
O870 C878 1.258 . S
C871 N872 1.326 . S
C871 C875 1.460 . S
C871 H877 0.929 . S
N872 Mn865 2.257 . S
N872 C871 1.326 . S
N872 C876 1.362 . S
C873 C874 1.258 . S
C873 C876 1.431 . S
C873 C893 1.449 1_565 S
C874 C873 1.258 . S
C874 C875 1.477 . S
C874 H894 0.931 . S
C875 C871 1.460 . S
C875 C874 1.477 . S
C875 H895 0.930 . S
C876 N872 1.362 . S
C876 C873 1.431 . S
C876 C886 1.476 1_565 S
H877 C871 0.929 . S
C878 O869 1.250 . S
C878 O870 1.258 . S
O879 Mn864 2.162 . S
O879 C867 1.281 . S
O880 Mn864 2.297 . S
O880 C867 1.236 . S
N881 Mn865 2.282 . S
N881 C882 1.328 1_565 S
N881 C886 1.318 1_565 S
C882 N881 1.328 1_545 S
C882 C883 1.457 . S
C882 H887 0.929 . S
C883 C882 1.457 . S
C883 C884 1.291 . S
C883 H896 0.931 . S
C884 C883 1.291 . S
C884 C885 1.373 . S
C884 H897 0.929 . S
C885 C884 1.373 . S
C885 C886 1.396 . S
C885 C892 1.403 . S
C886 C876 1.476 1_545 S
C886 N881 1.318 1_545 S
C886 C885 1.396 . S
H887 C882 0.929 . S
O888 Mn864 2.385 1_545 S
O888 C866 1.234 . S
O889 Mn864 2.209 . S
O889 Mn865 2.215 . S
O889 C866 1.283 1_565 S
O890 Mn864 2.094 . S
O890 C868 1.240 . S
O891 Mn865 2.117 . S
O891 C868 1.264 . S
C892 C885 1.403 . S
C892 C893 1.399 . S
C892 H898 0.929 . S
C893 C873 1.449 1_545 S
C893 C892 1.399 . S
C893 H899 0.930 . S
H894 C874 0.931 . S
H895 C875 0.930 . S
H896 C883 0.931 . S
H897 C884 0.929 . S
H898 C892 0.929 . S
H899 C893 0.930 . S
Mn900 O905 2.095 . S
Mn900 O915 2.162 . S
Mn900 O916 2.297 . S
Mn900 O924 2.385 . S
Mn900 O925 2.209 . S
Mn900 O926 2.094 . S
Mn901 O906 2.121 . S
Mn901 N908 2.257 . S
Mn901 N917 2.282 . S
Mn901 O925 2.215 . S
Mn901 O927 2.117 . S
C902 O924 1.234 . S
C902 O925 1.283 . S
C903 O915 1.281 . S
C903 O916 1.236 . S
C904 O926 1.240 . S
C904 O927 1.264 . S
O905 Mn900 2.095 . S
O905 C914 1.250 . S
O906 Mn901 2.121 . S
O906 C914 1.258 . S
C907 N908 1.326 . S
C907 C911 1.460 . S
C907 H913 0.929 . S
N908 Mn901 2.257 . S
N908 C907 1.326 . S
N908 C912 1.362 . S
C909 C910 1.258 . S
C909 C912 1.431 . S
C909 C929 1.449 . S
C910 C909 1.258 . S
C910 C911 1.477 . S
C910 H930 0.931 . S
C911 C907 1.460 . S
C911 C910 1.477 . S
C911 H931 0.930 . S
C912 N908 1.362 . S
C912 C909 1.431 . S
C912 C922 1.476 . S
H913 C907 0.929 . S
C914 O905 1.250 . S
C914 O906 1.258 . S
O915 Mn900 2.162 . S
O915 C903 1.281 . S
O916 Mn900 2.297 . S
O916 C903 1.236 . S
N917 Mn901 2.282 . S
N917 C918 1.328 . S
N917 C922 1.318 . S
C918 N917 1.328 . S
C918 C919 1.457 . S
C918 H923 0.929 . S
C919 C918 1.457 . S
C919 C920 1.291 . S
C919 H932 0.931 . S
C920 C919 1.291 . S
C920 C921 1.373 . S
C920 H933 0.929 . S
C921 C920 1.373 . S
C921 C922 1.396 . S
C921 C928 1.403 . S
C922 C912 1.476 . S
C922 N917 1.318 . S
C922 C921 1.396 . S
H923 C918 0.929 . S
O924 Mn900 2.385 . S
O924 C902 1.234 . S
O925 Mn900 2.209 . S
O925 Mn901 2.215 . S
O925 C902 1.283 . S
O926 Mn900 2.094 . S
O926 C904 1.240 . S
O927 Mn901 2.117 . S
O927 C904 1.264 . S
C928 C921 1.403 . S
C928 C929 1.399 . S
C928 H934 0.929 . S
C929 C909 1.449 . S
C929 C928 1.399 . S
C929 H935 0.930 . S
H930 C910 0.931 . S
H931 C911 0.930 . S
H932 C919 0.931 . S
H933 C920 0.929 . S
H934 C928 0.929 . S
H935 C929 0.930 . S
Mn936 O941 2.095 . S
Mn936 O951 2.162 . S
Mn936 O952 2.297 . S
Mn936 O960 2.385 . S
Mn936 O961 2.209 . S
Mn936 O962 2.094 . S
Mn937 O942 2.121 . S
Mn937 N944 2.257 . S
Mn937 N953 2.282 . S
Mn937 O961 2.215 . S
Mn937 O963 2.117 . S
C938 O960 1.234 . S
C938 O961 1.283 . S
C939 O951 1.281 . S
C939 O952 1.236 . S
C940 O962 1.240 . S
C940 O963 1.264 . S
O941 Mn936 2.095 . S
O941 C950 1.250 . S
O942 Mn937 2.121 . S
O942 C950 1.258 . S
C943 N944 1.326 . S
C943 C947 1.460 . S
C943 H949 0.929 . S
N944 Mn937 2.257 . S
N944 C943 1.326 . S
N944 C948 1.362 . S
C945 C946 1.258 . S
C945 C948 1.431 . S
C945 C965 1.449 1_554 S
C946 C945 1.258 . S
C946 C947 1.477 . S
C946 H966 0.931 1_554 S
C947 C943 1.460 . S
C947 C946 1.477 . S
C947 H967 0.930 . S
C948 N944 1.362 . S
C948 C945 1.431 . S
C948 C958 1.476 . S
H949 C943 0.929 . S
C950 O941 1.250 . S
C950 O942 1.258 . S
O951 Mn936 2.162 . S
O951 C939 1.281 . S
O952 Mn936 2.297 . S
O952 C939 1.236 . S
N953 Mn937 2.282 . S
N953 C954 1.328 . S
N953 C958 1.318 . S
C954 N953 1.328 . S
C954 C955 1.457 . S
C954 H959 0.929 . S
C955 C954 1.457 . S
C955 C956 1.291 . S
C955 H968 0.931 . S
C956 C955 1.291 . S
C956 C957 1.373 . S
C956 H969 0.929 . S
C957 C956 1.373 . S
C957 C958 1.396 . S
C957 C964 1.403 . S
C958 C948 1.476 . S
C958 N953 1.318 . S
C958 C957 1.396 . S
H959 C954 0.929 . S
O960 Mn936 2.385 . S
O960 C938 1.234 . S
O961 Mn936 2.209 . S
O961 Mn937 2.215 . S
O961 C938 1.283 . S
O962 Mn936 2.094 . S
O962 C940 1.240 . S
O963 Mn937 2.117 . S
O963 C940 1.264 . S
C964 C957 1.403 . S
C964 C965 1.399 1_554 S
C964 H970 0.929 1_554 S
C965 C945 1.449 1_556 S
C965 C964 1.399 1_556 S
C965 H971 0.930 . S
H966 C946 0.931 1_556 S
H967 C947 0.930 . S
H968 C955 0.931 . S
H969 C956 0.929 . S
H970 C964 0.929 1_556 S
H971 C965 0.930 . S
Mn972 O977 2.095 . S
Mn972 O987 2.162 . S
Mn972 O988 2.297 . S
Mn972 O996 2.385 1_565 S
Mn972 O997 2.209 . S
Mn972 O998 2.094 . S
Mn973 O978 2.121 . S
Mn973 N980 2.257 . S
Mn973 N989 2.282 . S
Mn973 O997 2.215 . S
Mn973 O999 2.117 . S
C974 O996 1.234 . S
C974 O997 1.283 1_545 S
C975 O987 1.281 . S
C975 O988 1.236 . S
C976 O998 1.240 . S
C976 O999 1.264 . S
O977 Mn972 2.095 . S
O977 C986 1.250 . S
O978 Mn973 2.121 . S
O978 C986 1.258 . S
C979 N980 1.326 . S
C979 C983 1.460 . S
C979 H985 0.929 . S
N980 Mn973 2.257 . S
N980 C979 1.326 . S
N980 C984 1.362 . S
C981 C982 1.258 . S
C981 C984 1.431 . S
C981 C1001 1.449 1_564 S
C982 C981 1.258 . S
C982 C983 1.477 . S
C982 H1002 0.931 1_554 S
C983 C979 1.460 . S
C983 C982 1.477 . S
C983 H1003 0.930 . S
C984 N980 1.362 . S
C984 C981 1.431 . S
C984 C994 1.476 1_565 S
H985 C979 0.929 . S
C986 O977 1.250 . S
C986 O978 1.258 . S
O987 Mn972 2.162 . S
O987 C975 1.281 . S
O988 Mn972 2.297 . S
O988 C975 1.236 . S
N989 Mn973 2.282 . S
N989 C990 1.328 1_565 S
N989 C994 1.318 1_565 S
C990 N989 1.328 1_545 S
C990 C991 1.457 . S
C990 H995 0.929 . S
C991 C990 1.457 . S
C991 C992 1.291 . S
C991 H1004 0.931 . S
C992 C991 1.291 . S
C992 C993 1.373 . S
C992 H1005 0.929 . S
C993 C992 1.373 . S
C993 C994 1.396 . S
C993 C1000 1.403 . S
C994 C984 1.476 1_545 S
C994 N989 1.318 1_545 S
C994 C993 1.396 . S
H995 C990 0.929 . S
O996 Mn972 2.385 1_545 S
O996 C974 1.234 . S
O997 Mn972 2.209 . S
O997 Mn973 2.215 . S
O997 C974 1.283 1_565 S
O998 Mn972 2.094 . S
O998 C976 1.240 . S
O999 Mn973 2.117 . S
O999 C976 1.264 . S
C1000 C993 1.403 . S
C1000 C1001 1.399 1_554 S
C1000 H1006 0.929 1_554 S
C1001 C981 1.449 1_546 S
C1001 C1000 1.399 1_556 S
C1001 H1007 0.930 . S
H1002 C982 0.931 1_556 S
H1003 C983 0.930 . S
H1004 C991 0.931 . S
H1005 C992 0.929 . S
H1006 C1000 0.929 1_556 S
H1007 C1001 0.930 . S
Mn1008 O1013 2.095 . S
Mn1008 O1023 2.162 . S
Mn1008 O1024 2.297 . S
Mn1008 O1032 2.385 . S
Mn1008 O1033 2.209 . S
Mn1008 O1034 2.094 . S
Mn1009 O1014 2.121 1_565 S
Mn1009 N1016 2.257 . S
Mn1009 N1025 2.282 . S
Mn1009 O1033 2.215 1_565 S
Mn1009 O1035 2.117 . S
C1010 O1032 1.234 . S
C1010 O1033 1.283 . S
C1011 O1023 1.281 . S
C1011 O1024 1.236 . S
C1012 O1034 1.240 1_565 S
C1012 O1035 1.264 . S
O1013 Mn1008 2.095 . S
O1013 C1022 1.250 . S
O1014 Mn1009 2.121 1_545 S
O1014 C1022 1.258 . S
C1015 N1016 1.326 1_545 S
C1015 C1019 1.460 1_556 S
C1015 H1021 0.929 . S
N1016 Mn1009 2.257 . S
N1016 C1015 1.326 1_565 S
N1016 C1020 1.362 . S
C1017 C1018 1.258 . S
C1017 C1020 1.431 . S
C1017 C1037 1.449 . S
C1018 C1017 1.258 . S
C1018 C1019 1.477 1_566 S
C1018 H1038 0.931 1_556 S
C1019 C1015 1.460 1_554 S
C1019 C1018 1.477 1_544 S
C1019 H1039 0.930 . S
C1020 N1016 1.362 . S
C1020 C1017 1.431 . S
C1020 C1030 1.476 . S
H1021 C1015 0.929 . S
C1022 O1013 1.250 . S
C1022 O1014 1.258 . S
O1023 Mn1008 2.162 . S
O1023 C1011 1.281 . S
O1024 Mn1008 2.297 . S
O1024 C1011 1.236 . S
N1025 Mn1009 2.282 . S
N1025 C1026 1.328 . S
N1025 C1030 1.318 . S
C1026 N1025 1.328 . S
C1026 C1027 1.457 . S
C1026 H1031 0.929 . S
C1027 C1026 1.457 . S
C1027 C1028 1.291 . S
C1027 H1040 0.931 . S
C1028 C1027 1.291 . S
C1028 C1029 1.373 . S
C1028 H1041 0.929 . S
C1029 C1028 1.373 . S
C1029 C1030 1.396 . S
C1029 C1036 1.403 . S
C1030 C1020 1.476 . S
C1030 N1025 1.318 . S
C1030 C1029 1.396 . S
H1031 C1026 0.929 . S
O1032 Mn1008 2.385 . S
O1032 C1010 1.234 . S
O1033 Mn1008 2.209 . S
O1033 Mn1009 2.215 1_545 S
O1033 C1010 1.283 . S
O1034 Mn1008 2.094 . S
O1034 C1012 1.240 1_545 S
O1035 Mn1009 2.117 . S
O1035 C1012 1.264 . S
C1036 C1029 1.403 . S
C1036 C1037 1.399 . S
C1036 H1042 0.929 . S
C1037 C1017 1.449 . S
C1037 C1036 1.399 . S
C1037 H1043 0.930 . S
H1038 C1018 0.931 1_554 S
H1039 C1019 0.930 . S
H1040 C1027 0.931 . S
H1041 C1028 0.929 . S
H1042 C1036 0.929 . S
H1043 C1037 0.930 . S
Mn1044 O1049 2.095 . S
Mn1044 O1059 2.162 . S
Mn1044 O1060 2.297 . S
Mn1044 O1068 2.385 . S
Mn1044 O1069 2.209 . S
Mn1044 O1070 2.094 . S
Mn1045 O1050 2.121 . S
Mn1045 N1052 2.257 . S
Mn1045 N1061 2.282 . S
Mn1045 O1069 2.215 . S
Mn1045 O1071 2.117 . S
C1046 O1068 1.234 . S
C1046 O1069 1.283 . S
C1047 O1059 1.281 . S
C1047 O1060 1.236 . S
C1048 O1070 1.240 . S
C1048 O1071 1.264 . S
O1049 Mn1044 2.095 . S
O1049 C1058 1.250 . S
O1050 Mn1045 2.121 . S
O1050 C1058 1.258 . S
C1051 N1052 1.326 . S
C1051 C1055 1.460 1_556 S
C1051 H1057 0.929 . S
N1052 Mn1045 2.257 . S
N1052 C1051 1.326 . S
N1052 C1056 1.362 . S
C1053 C1054 1.258 . S
C1053 C1056 1.431 . S
C1053 C1073 1.449 . S
C1054 C1053 1.258 . S
C1054 C1055 1.477 1_556 S
C1054 H1074 0.931 1_556 S
C1055 C1051 1.460 1_554 S
C1055 C1054 1.477 1_554 S
C1055 H1075 0.930 . S
C1056 N1052 1.362 . S
C1056 C1053 1.431 . S
C1056 C1066 1.476 . S
H1057 C1051 0.929 . S
C1058 O1049 1.250 . S
C1058 O1050 1.258 . S
O1059 Mn1044 2.162 . S
O1059 C1047 1.281 . S
O1060 Mn1044 2.297 . S
O1060 C1047 1.236 . S
N1061 Mn1045 2.282 . S
N1061 C1062 1.328 . S
N1061 C1066 1.318 . S
C1062 N1061 1.328 . S
C1062 C1063 1.457 . S
C1062 H1067 0.929 . S
C1063 C1062 1.457 . S
C1063 C1064 1.291 . S
C1063 H1076 0.931 . S
C1064 C1063 1.291 . S
C1064 C1065 1.373 . S
C1064 H1077 0.929 . S
C1065 C1064 1.373 . S
C1065 C1066 1.396 . S
C1065 C1072 1.403 . S
C1066 C1056 1.476 . S
C1066 N1061 1.318 . S
C1066 C1065 1.396 . S
H1067 C1062 0.929 . S
O1068 Mn1044 2.385 . S
O1068 C1046 1.234 . S
O1069 Mn1044 2.209 . S
O1069 Mn1045 2.215 . S
O1069 C1046 1.283 . S
O1070 Mn1044 2.094 . S
O1070 C1048 1.240 . S
O1071 Mn1045 2.117 . S
O1071 C1048 1.264 . S
C1072 C1065 1.403 . S
C1072 C1073 1.399 . S
C1072 H1078 0.929 . S
C1073 C1053 1.449 . S
C1073 C1072 1.399 . S
C1073 H1079 0.930 . S
H1074 C1054 0.931 1_554 S
H1075 C1055 0.930 . S
H1076 C1063 0.931 . S
H1077 C1064 0.929 . S
H1078 C1072 0.929 . S
H1079 C1073 0.930 . S
Mn1080 O1085 2.095 . S
Mn1080 O1095 2.162 . S
Mn1080 O1096 2.297 . S
Mn1080 O1104 2.385 . S
Mn1080 O1105 2.209 . S
Mn1080 O1106 2.094 . S
Mn1081 O1086 2.121 . S
Mn1081 N1088 2.257 . S
Mn1081 N1097 2.282 . S
Mn1081 O1105 2.215 . S
Mn1081 O1107 2.117 . S
C1082 O1104 1.234 . S
C1082 O1105 1.283 . S
C1083 O1095 1.281 . S
C1083 O1096 1.236 . S
C1084 O1106 1.240 . S
C1084 O1107 1.264 . S
O1085 Mn1080 2.095 . S
O1085 C1094 1.250 . S
O1086 Mn1081 2.121 . S
O1086 C1094 1.258 . S
C1087 N1088 1.326 . S
C1087 C1091 1.460 . S
C1087 H1093 0.929 . S
N1088 Mn1081 2.257 . S
N1088 C1087 1.326 . S
N1088 C1092 1.362 . S
C1089 C1090 1.258 . S
C1089 C1092 1.431 . S
C1089 C1109 1.449 . S
C1090 C1089 1.258 . S
C1090 C1091 1.477 . S
C1090 H1110 0.931 . S
C1091 C1087 1.460 . S
C1091 C1090 1.477 . S
C1091 H1111 0.930 . S
C1092 N1088 1.362 . S
C1092 C1089 1.431 . S
C1092 C1102 1.476 . S
H1093 C1087 0.929 . S
C1094 O1085 1.250 . S
C1094 O1086 1.258 . S
O1095 Mn1080 2.162 . S
O1095 C1083 1.281 . S
O1096 Mn1080 2.297 . S
O1096 C1083 1.236 . S
N1097 Mn1081 2.282 . S
N1097 C1098 1.328 . S
N1097 C1102 1.318 . S
C1098 N1097 1.328 . S
C1098 C1099 1.457 . S
C1098 H1103 0.929 . S
C1099 C1098 1.457 . S
C1099 C1100 1.291 . S
C1099 H1112 0.931 . S
C1100 C1099 1.291 . S
C1100 C1101 1.373 . S
C1100 H1113 0.929 . S
C1101 C1100 1.373 . S
C1101 C1102 1.396 . S
C1101 C1108 1.403 . S
C1102 C1092 1.476 . S
C1102 N1097 1.318 . S
C1102 C1101 1.396 . S
H1103 C1098 0.929 . S
O1104 Mn1080 2.385 . S
O1104 C1082 1.234 . S
O1105 Mn1080 2.209 . S
O1105 Mn1081 2.215 . S
O1105 C1082 1.283 . S
O1106 Mn1080 2.094 . S
O1106 C1084 1.240 . S
O1107 Mn1081 2.117 . S
O1107 C1084 1.264 . S
C1108 C1101 1.403 . S
C1108 C1109 1.399 . S
C1108 H1114 0.929 . S
C1109 C1089 1.449 . S
C1109 C1108 1.399 . S
C1109 H1115 0.930 . S
H1110 C1090 0.931 . S
H1111 C1091 0.930 . S
H1112 C1099 0.931 . S
H1113 C1100 0.929 . S
H1114 C1108 0.929 . S
H1115 C1109 0.930 . S
Mn1116 O1121 2.095 . S
Mn1116 O1131 2.162 . S
Mn1116 O1132 2.297 . S
Mn1116 O1140 2.385 . S
Mn1116 O1141 2.209 . S
Mn1116 O1142 2.094 . S
Mn1117 O1122 2.121 1_565 S
Mn1117 N1124 2.257 . S
Mn1117 N1133 2.282 . S
Mn1117 O1141 2.215 1_565 S
Mn1117 O1143 2.117 . S
C1118 O1140 1.234 . S
C1118 O1141 1.283 . S
C1119 O1131 1.281 . S
C1119 O1132 1.236 . S
C1120 O1142 1.240 1_565 S
C1120 O1143 1.264 . S
O1121 Mn1116 2.095 . S
O1121 C1130 1.250 . S
O1122 Mn1117 2.121 1_545 S
O1122 C1130 1.258 . S
C1123 N1124 1.326 1_545 S
C1123 C1127 1.460 . S
C1123 H1129 0.929 . S
N1124 Mn1117 2.257 . S
N1124 C1123 1.326 1_565 S
N1124 C1128 1.362 . S
C1125 C1126 1.258 . S
C1125 C1128 1.431 . S
C1125 C1145 1.449 . S
C1126 C1125 1.258 . S
C1126 C1127 1.477 1_565 S
C1126 H1146 0.931 . S
C1127 C1123 1.460 . S
C1127 C1126 1.477 1_545 S
C1127 H1147 0.930 . S
C1128 N1124 1.362 . S
C1128 C1125 1.431 . S
C1128 C1138 1.476 . S
H1129 C1123 0.929 . S
C1130 O1121 1.250 . S
C1130 O1122 1.258 . S
O1131 Mn1116 2.162 . S
O1131 C1119 1.281 . S
O1132 Mn1116 2.297 . S
O1132 C1119 1.236 . S
N1133 Mn1117 2.282 . S
N1133 C1134 1.328 . S
N1133 C1138 1.318 . S
C1134 N1133 1.328 . S
C1134 C1135 1.457 . S
C1134 H1139 0.929 . S
C1135 C1134 1.457 . S
C1135 C1136 1.291 . S
C1135 H1148 0.931 . S
C1136 C1135 1.291 . S
C1136 C1137 1.373 . S
C1136 H1149 0.929 . S
C1137 C1136 1.373 . S
C1137 C1138 1.396 . S
C1137 C1144 1.403 . S
C1138 C1128 1.476 . S
C1138 N1133 1.318 . S
C1138 C1137 1.396 . S
H1139 C1134 0.929 . S
O1140 Mn1116 2.385 . S
O1140 C1118 1.234 . S
O1141 Mn1116 2.209 . S
O1141 Mn1117 2.215 1_545 S
O1141 C1118 1.283 . S
O1142 Mn1116 2.094 . S
O1142 C1120 1.240 1_545 S
O1143 Mn1117 2.117 . S
O1143 C1120 1.264 . S
C1144 C1137 1.403 . S
C1144 C1145 1.399 . S
C1144 H1150 0.929 . S
C1145 C1125 1.449 . S
C1145 C1144 1.399 . S
C1145 H1151 0.930 . S
H1146 C1126 0.931 . S
H1147 C1127 0.930 . S
H1148 C1135 0.931 . S
H1149 C1136 0.929 . S
H1150 C1144 0.929 . S
H1151 C1145 0.930 . S
C1152 C1153 1.369 . S
C1152 C1154 1.419 . S
C1152 H1156 0.930 . S
C1153 C1152 1.369 . S
C1153 C1162 1.429 . S
C1154 C1152 1.419 . S
C1154 C1155 1.363 . S
C1154 H1157 0.929 . S
C1155 C1154 1.363 . S
C1155 C1161 1.428 . S
H1156 C1152 0.930 . S
H1157 C1154 0.929 . S
S1158 N1159 1.613 . S
S1158 N1160 1.610 . S
N1159 S1158 1.613 . S
N1159 C1162 1.350 . S
N1160 S1158 1.610 . S
N1160 C1161 1.351 . S
C1161 C1155 1.428 . S
C1161 N1160 1.351 . S
C1161 C1162 1.434 . S
C1162 C1153 1.429 . S
C1162 N1159 1.350 . S
C1162 C1161 1.434 . S
C1163 C1164 1.369 . S
C1163 C1165 1.419 . S
C1163 H1167 0.930 . S
C1164 C1163 1.369 . S
C1164 C1173 1.429 . S
C1165 C1163 1.419 . S
C1165 C1166 1.363 . S
C1165 H1168 0.929 . S
C1166 C1165 1.363 . S
C1166 C1172 1.428 . S
H1167 C1163 0.930 . S
H1168 C1165 0.929 . S
S1169 N1170 1.613 . S
S1169 N1171 1.610 . S
N1170 S1169 1.613 . S
N1170 C1173 1.350 . S
N1171 S1169 1.610 . S
N1171 C1172 1.351 . S
C1172 C1166 1.428 . S
C1172 N1171 1.351 . S
C1172 C1173 1.434 . S
C1173 C1164 1.429 . S
C1173 N1170 1.350 . S
C1173 C1172 1.434 . S
C1174 C1175 1.369 . S
C1174 C1176 1.419 . S
C1174 H1178 0.930 . S
C1175 C1174 1.369 . S
C1175 C1184 1.429 . S
C1176 C1174 1.419 . S
C1176 C1177 1.363 . S
C1176 H1179 0.929 . S
C1177 C1176 1.363 . S
C1177 C1183 1.428 . S
H1178 C1174 0.930 . S
H1179 C1176 0.929 . S
S1180 N1181 1.613 . S
S1180 N1182 1.610 . S
N1181 S1180 1.613 . S
N1181 C1184 1.350 . S
N1182 S1180 1.610 . S
N1182 C1183 1.351 . S
C1183 C1177 1.428 . S
C1183 N1182 1.351 . S
C1183 C1184 1.434 . S
C1184 C1175 1.429 . S
C1184 N1181 1.350 . S
C1184 C1183 1.434 . S
C1185 C1186 1.369 . S
C1185 C1187 1.419 . S
C1185 H1189 0.930 . S
C1186 C1185 1.369 . S
C1186 C1195 1.429 . S
C1187 C1185 1.419 . S
C1187 C1188 1.363 . S
C1187 H1190 0.929 . S
C1188 C1187 1.363 . S
C1188 C1194 1.428 . S
H1189 C1185 0.930 . S
H1190 C1187 0.929 . S
S1191 N1192 1.613 . S
S1191 N1193 1.610 . S
N1192 S1191 1.613 . S
N1192 C1195 1.350 . S
N1193 S1191 1.610 . S
N1193 C1194 1.351 . S
C1194 C1188 1.428 . S
C1194 N1193 1.351 . S
C1194 C1195 1.434 . S
C1195 C1186 1.429 . S
C1195 N1192 1.350 . S
C1195 C1194 1.434 . S
C1196 C1197 1.369 . S
C1196 C1198 1.419 . S
C1196 H1200 0.930 . S
C1197 C1196 1.369 . S
C1197 C1206 1.429 . S
C1198 C1196 1.419 . S
C1198 C1199 1.363 . S
C1198 H1201 0.929 . S
C1199 C1198 1.363 . S
C1199 C1205 1.428 . S
H1200 C1196 0.930 . S
H1201 C1198 0.929 . S
S1202 N1203 1.613 . S
S1202 N1204 1.610 . S
N1203 S1202 1.613 . S
N1203 C1206 1.350 . S
N1204 S1202 1.610 . S
N1204 C1205 1.351 . S
C1205 C1199 1.428 . S
C1205 N1204 1.351 . S
C1205 C1206 1.434 . S
C1206 C1197 1.429 . S
C1206 N1203 1.350 . S
C1206 C1205 1.434 . S
C1207 C1208 1.369 . S
C1207 C1209 1.419 . S
C1207 H1211 0.930 . S
C1208 C1207 1.369 . S
C1208 C1217 1.429 . S
C1209 C1207 1.419 . S
C1209 C1210 1.363 . S
C1209 H1212 0.929 . S
C1210 C1209 1.363 . S
C1210 C1216 1.428 . S
H1211 C1207 0.930 . S
H1212 C1209 0.929 . S
S1213 N1214 1.613 . S
S1213 N1215 1.610 . S
N1214 S1213 1.613 . S
N1214 C1217 1.350 . S
N1215 S1213 1.610 . S
N1215 C1216 1.351 . S
C1216 C1210 1.428 . S
C1216 N1215 1.351 . S
C1216 C1217 1.434 . S
C1217 C1208 1.429 . S
C1217 N1214 1.350 . S
C1217 C1216 1.434 . S
C1218 C1219 1.369 . S
C1218 C1220 1.419 . S
C1218 H1222 0.930 . S
C1219 C1218 1.369 . S
C1219 C1228 1.429 . S
C1220 C1218 1.419 . S
C1220 C1221 1.363 . S
C1220 H1223 0.929 . S
C1221 C1220 1.363 . S
C1221 C1227 1.428 . S
H1222 C1218 0.930 . S
H1223 C1220 0.929 . S
S1224 N1225 1.613 . S
S1224 N1226 1.610 . S
N1225 S1224 1.613 . S
N1225 C1228 1.350 . S
N1226 S1224 1.610 . S
N1226 C1227 1.351 . S
C1227 C1221 1.428 . S
C1227 N1226 1.351 . S
C1227 C1228 1.434 . S
C1228 C1219 1.429 . S
C1228 N1225 1.350 . S
C1228 C1227 1.434 . S
C1229 C1230 1.369 . S
C1229 C1231 1.419 . S
C1229 H1233 0.930 . S
C1230 C1229 1.369 . S
C1230 C1239 1.429 . S
C1231 C1229 1.419 . S
C1231 C1232 1.363 . S
C1231 H1234 0.929 . S
C1232 C1231 1.363 . S
C1232 C1238 1.428 . S
H1233 C1229 0.930 . S
H1234 C1231 0.929 . S
S1235 N1236 1.613 . S
S1235 N1237 1.610 . S
N1236 S1235 1.613 . S
N1236 C1239 1.350 . S
N1237 S1235 1.610 . S
N1237 C1238 1.351 . S
C1238 C1232 1.428 . S
C1238 N1237 1.351 . S
C1238 C1239 1.434 . S
C1239 C1230 1.429 . S
C1239 N1236 1.350 . S
C1239 C1238 1.434 . S
C1240 C1241 1.369 . S
C1240 C1242 1.419 . S
C1240 H1244 0.930 . S
C1241 C1240 1.369 . S
C1241 C1250 1.429 . S
C1242 C1240 1.419 . S
C1242 C1243 1.363 . S
C1242 H1245 0.929 . S
C1243 C1242 1.363 . S
C1243 C1249 1.428 . S
H1244 C1240 0.930 . S
H1245 C1242 0.929 . S
S1246 N1247 1.613 . S
S1246 N1248 1.610 . S
N1247 S1246 1.613 . S
N1247 C1250 1.350 . S
N1248 S1246 1.610 . S
N1248 C1249 1.351 . S
C1249 C1243 1.428 . S
C1249 N1248 1.351 . S
C1249 C1250 1.434 . S
C1250 C1241 1.429 . S
C1250 N1247 1.350 . S
C1250 C1249 1.434 . S
C1251 C1252 1.369 . S
C1251 C1253 1.419 . S
C1251 H1255 0.930 . S
C1252 C1251 1.369 . S
C1252 C1261 1.429 . S
C1253 C1251 1.419 . S
C1253 C1254 1.363 . S
C1253 H1256 0.929 . S
C1254 C1253 1.363 . S
C1254 C1260 1.428 . S
H1255 C1251 0.930 . S
H1256 C1253 0.929 . S
S1257 N1258 1.613 . S
S1257 N1259 1.610 . S
N1258 S1257 1.613 . S
N1258 C1261 1.350 . S
N1259 S1257 1.610 . S
N1259 C1260 1.351 . S
C1260 C1254 1.428 . S
C1260 N1259 1.351 . S
C1260 C1261 1.434 . S
C1261 C1252 1.429 . S
C1261 N1258 1.350 . S
C1261 C1260 1.434 . S
C1262 C1263 1.369 . S
C1262 C1264 1.419 . S
C1262 H1266 0.930 . S
C1263 C1262 1.369 . S
C1263 C1272 1.429 . S
C1264 C1262 1.419 . S
C1264 C1265 1.363 . S
C1264 H1267 0.929 . S
C1265 C1264 1.363 . S
C1265 C1271 1.428 . S
H1266 C1262 0.930 . S
H1267 C1264 0.929 . S
S1268 N1269 1.613 . S
S1268 N1270 1.610 . S
N1269 S1268 1.613 . S
N1269 C1272 1.350 . S
N1270 S1268 1.610 . S
N1270 C1271 1.351 . S
C1271 C1265 1.428 . S
C1271 N1270 1.351 . S
C1271 C1272 1.434 . S
C1272 C1263 1.429 . S
C1272 N1269 1.350 . S
C1272 C1271 1.434 . S
C1273 C1274 1.369 . S
C1273 C1275 1.419 . S
C1273 H1277 0.930 . S
C1274 C1273 1.369 . S
C1274 C1283 1.429 . S
C1275 C1273 1.419 . S
C1275 C1276 1.363 . S
C1275 H1278 0.929 . S
C1276 C1275 1.363 . S
C1276 C1282 1.428 . S
H1277 C1273 0.930 . S
H1278 C1275 0.929 . S
S1279 N1280 1.613 . S
S1279 N1281 1.610 . S
N1280 S1279 1.613 . S
N1280 C1283 1.350 . S
N1281 S1279 1.610 . S
N1281 C1282 1.351 . S
C1282 C1276 1.428 . S
C1282 N1281 1.351 . S
C1282 C1283 1.434 . S
C1283 C1274 1.429 . S
C1283 N1280 1.350 . S
C1283 C1282 1.434 . S
C1284 C1285 1.369 . S
C1284 C1286 1.419 . S
C1284 H1288 0.930 . S
C1285 C1284 1.369 . S
C1285 C1294 1.429 . S
C1286 C1284 1.419 . S
C1286 C1287 1.363 . S
C1286 H1289 0.929 . S
C1287 C1286 1.363 . S
C1287 C1293 1.428 . S
H1288 C1284 0.930 . S
H1289 C1286 0.929 . S
S1290 N1291 1.613 . S
S1290 N1292 1.610 . S
N1291 S1290 1.613 . S
N1291 C1294 1.350 . S
N1292 S1290 1.610 . S
N1292 C1293 1.351 . S
C1293 C1287 1.428 . S
C1293 N1292 1.351 . S
C1293 C1294 1.434 . S
C1294 C1285 1.429 . S
C1294 N1291 1.350 . S
C1294 C1293 1.434 . S
C1295 C1296 1.369 . S
C1295 C1297 1.419 . S
C1295 H1299 0.930 . S
C1296 C1295 1.369 . S
C1296 C1305 1.429 . S
C1297 C1295 1.419 . S
C1297 C1298 1.363 . S
C1297 H1300 0.929 . S
C1298 C1297 1.363 . S
C1298 C1304 1.428 . S
H1299 C1295 0.930 . S
H1300 C1297 0.929 . S
S1301 N1302 1.613 . S
S1301 N1303 1.610 . S
N1302 S1301 1.613 . S
N1302 C1305 1.350 . S
N1303 S1301 1.610 . S
N1303 C1304 1.351 . S
C1304 C1298 1.428 . S
C1304 N1303 1.351 . S
C1304 C1305 1.434 . S
C1305 C1296 1.429 . S
C1305 N1302 1.350 . S
C1305 C1304 1.434 . S
C1306 C1307 1.369 . S
C1306 C1308 1.419 . S
C1306 H1310 0.930 . S
C1307 C1306 1.369 . S
C1307 C1316 1.429 . S
C1308 C1306 1.419 . S
C1308 C1309 1.363 . S
C1308 H1311 0.929 . S
C1309 C1308 1.363 . S
C1309 C1315 1.428 . S
H1310 C1306 0.930 . S
H1311 C1308 0.929 . S
S1312 N1313 1.613 . S
S1312 N1314 1.610 . S
N1313 S1312 1.613 . S
N1313 C1316 1.350 . S
N1314 S1312 1.610 . S
N1314 C1315 1.351 . S
C1315 C1309 1.428 . S
C1315 N1314 1.351 . S
C1315 C1316 1.434 . S
C1316 C1307 1.429 . S
C1316 N1313 1.350 . S
C1316 C1315 1.434 . S
C1317 C1318 1.369 . S
C1317 C1319 1.419 . S
C1317 H1321 0.930 . S
C1318 C1317 1.369 . S
C1318 C1327 1.429 . S
C1319 C1317 1.419 . S
C1319 C1320 1.363 . S
C1319 H1322 0.929 . S
C1320 C1319 1.363 . S
C1320 C1326 1.428 . S
H1321 C1317 0.930 . S
H1322 C1319 0.929 . S
S1323 N1324 1.613 . S
S1323 N1325 1.610 . S
N1324 S1323 1.613 . S
N1324 C1327 1.350 . S
N1325 S1323 1.610 . S
N1325 C1326 1.351 . S
C1326 C1320 1.428 . S
C1326 N1325 1.351 . S
C1326 C1327 1.434 . S
C1327 C1318 1.429 . S
C1327 N1324 1.350 . S
C1327 C1326 1.434 . S
C1328 C1329 1.369 1_455 S
C1328 C1330 1.417 . S
C1328 H1332 0.930 . S
C1329 C1328 1.369 1_655 S
C1329 C1338 1.419 1_556 S
C1330 C1328 1.417 . S
C1330 C1331 1.365 1_556 S
C1330 H1333 0.929 . S
C1331 C1330 1.365 1_554 S
C1331 C1337 1.428 1_455 S
H1332 C1328 0.930 . S
H1333 C1330 0.929 . S
S1334 N1335 1.613 . S
S1334 N1336 1.610 . S
N1335 S1334 1.613 . S
N1335 C1338 1.352 . S
N1336 S1334 1.610 . S
N1336 C1337 1.351 . S
C1337 C1331 1.428 1_655 S
C1337 N1336 1.351 . S
C1337 C1338 1.443 . S
C1338 C1329 1.419 1_554 S
C1338 N1335 1.352 . S
C1338 C1337 1.443 . S
C1339 C1340 1.369 . S
C1339 C1341 1.419 1_556 S
C1339 H1343 0.932 . S
C1340 C1339 1.369 . S
C1340 C1349 1.429 . S
C1341 C1339 1.419 1_554 S
C1341 C1342 1.363 . S
C1341 H1344 0.929 . S
C1342 C1341 1.363 . S
C1342 C1348 1.424 1_554 S
H1343 C1339 0.932 . S
H1344 C1341 0.929 . S
S1345 N1346 1.613 . S
S1345 N1347 1.610 . S
N1346 S1345 1.613 . S
N1346 C1349 1.350 . S
N1347 S1345 1.610 . S
N1347 C1348 1.351 . S
C1348 C1342 1.424 1_556 S
C1348 N1347 1.351 . S
C1348 C1349 1.438 . S
C1349 C1340 1.429 . S
C1349 N1346 1.350 . S
C1349 C1348 1.438 . S
C1350 C1351 1.369 . S
C1350 C1352 1.417 . S
C1350 H1354 0.930 . S
C1351 C1350 1.369 . S
C1351 C1360 1.429 1_455 S
C1352 C1350 1.417 . S
C1352 C1353 1.366 1_455 S
C1352 H1355 0.929 . S
C1353 C1352 1.366 1_655 S
C1353 C1359 1.428 . S
H1354 C1350 0.930 . S
H1355 C1352 0.929 . S
S1356 N1357 1.613 . S
S1356 N1358 1.610 . S
N1357 S1356 1.613 . S
N1357 C1360 1.350 . S
N1358 S1356 1.610 . S
N1358 C1359 1.351 . S
C1359 C1353 1.428 . S
C1359 N1358 1.351 . S
C1359 C1360 1.434 . S
C1360 C1351 1.429 1_655 S
C1360 N1357 1.350 . S
C1360 C1359 1.434 . S
C1361 C1362 1.369 . S
C1361 C1363 1.419 . S
C1361 H1365 0.930 . S
C1362 C1361 1.369 . S
C1362 C1371 1.429 . S
C1363 C1361 1.419 . S
C1363 C1364 1.363 . S
C1363 H1366 0.929 . S
C1364 C1363 1.363 . S
C1364 C1370 1.428 . S
H1365 C1361 0.930 . S
H1366 C1363 0.929 . S
S1367 N1368 1.613 . S
S1367 N1369 1.610 . S
N1368 S1367 1.613 . S
N1368 C1371 1.350 . S
N1369 S1367 1.610 . S
N1369 C1370 1.351 . S
C1370 C1364 1.428 . S
C1370 N1369 1.351 . S
C1370 C1371 1.434 . S
C1371 C1362 1.429 . S
C1371 N1368 1.350 . S
C1371 C1370 1.434 . S
C1372 C1373 1.369 . S
C1372 C1374 1.419 . S
C1372 H1376 0.930 . S
C1373 C1372 1.369 . S
C1373 C1382 1.400 1_556 S
C1374 C1372 1.419 . S
C1374 C1375 1.363 1_556 S
C1374 H1377 0.929 . S
C1375 C1374 1.363 1_554 S
C1375 C1381 1.428 . S
H1376 C1372 0.930 . S
H1377 C1374 0.929 . S
S1378 N1379 1.613 . S
S1378 N1380 1.610 . S
N1379 S1378 1.613 . S
N1379 C1382 1.355 . S
N1380 S1378 1.610 . S
N1380 C1381 1.351 . S
C1381 C1375 1.428 . S
C1381 N1380 1.351 . S
C1381 C1382 1.461 . S
C1382 C1373 1.400 1_554 S
C1382 N1379 1.355 . S
C1382 C1381 1.461 . S
C1383 C1384 1.369 . S
C1383 C1385 1.419 . S
C1383 H1387 0.930 . S
C1384 C1383 1.369 . S
C1384 C1393 1.429 1_655 S
C1385 C1383 1.419 . S
C1385 C1386 1.363 1_655 S
C1385 H1388 0.929 . S
C1386 C1385 1.363 1_455 S
C1386 C1392 1.428 . S
H1387 C1383 0.930 . S
H1388 C1385 0.929 . S
S1389 N1390 1.613 . S
S1389 N1391 1.610 . S
N1390 S1389 1.613 . S
N1390 C1393 1.350 . S
N1391 S1389 1.610 . S
N1391 C1392 1.351 . S
C1392 C1386 1.428 . S
C1392 N1391 1.351 . S
C1392 C1393 1.434 . S
C1393 C1384 1.429 1_455 S
C1393 N1390 1.350 . S
C1393 C1392 1.434 . S
C1394 C1395 1.369 . S
C1394 C1396 1.419 . S
C1394 H1398 0.930 . S
C1395 C1394 1.369 . S
C1395 C1404 1.429 . S
C1396 C1394 1.419 . S
C1396 C1397 1.363 . S
C1396 H1399 0.929 . S
C1397 C1396 1.363 . S
C1397 C1403 1.428 . S
H1398 C1394 0.930 . S
H1399 C1396 0.929 . S
S1400 N1401 1.613 . S
S1400 N1402 1.610 . S
N1401 S1400 1.613 . S
N1401 C1404 1.350 . S
N1402 S1400 1.610 . S
N1402 C1403 1.351 . S
C1403 C1397 1.428 . S
C1403 N1402 1.351 . S
C1403 C1404 1.434 . S
C1404 C1395 1.429 . S
C1404 N1401 1.350 . S
C1404 C1403 1.434 . S
C1405 C1406 1.369 1_465 S
C1405 C1407 1.419 . S
C1405 H1409 0.930 . S
C1406 C1405 1.369 1_645 S
C1406 C1415 1.429 . S
C1407 C1405 1.419 . S
C1407 C1408 1.363 . S
C1407 H1410 0.929 . S
C1408 C1407 1.363 . S
C1408 C1414 1.428 1_465 S
H1409 C1405 0.930 . S
H1410 C1407 0.929 . S
S1411 N1412 1.613 . S
S1411 N1413 1.610 . S
N1412 S1411 1.613 . S
N1412 C1415 1.350 . S
N1413 S1411 1.610 . S
N1413 C1414 1.351 . S
C1414 C1408 1.428 1_645 S
C1414 N1413 1.351 . S
C1414 C1415 1.434 . S
C1415 C1406 1.429 . S
C1415 N1412 1.350 . S
C1415 C1414 1.434 . S
C1416 C1417 1.369 . S
C1416 C1418 1.419 . S
C1416 H1420 0.930 . S
C1417 C1416 1.369 . S
C1417 C1426 1.429 . S
C1418 C1416 1.419 . S
C1418 C1419 1.363 . S
C1418 H1421 0.929 . S
C1419 C1418 1.363 . S
C1419 C1425 1.428 . S
H1420 C1416 0.930 . S
H1421 C1418 0.929 . S
S1422 N1423 1.613 . S
S1422 N1424 1.610 . S
N1423 S1422 1.613 . S
N1423 C1426 1.350 . S
N1424 S1422 1.610 . S
N1424 C1425 1.351 . S
C1425 C1419 1.428 . S
C1425 N1424 1.351 . S
C1425 C1426 1.434 . S
C1426 C1417 1.429 . S
C1426 N1423 1.350 . S
C1426 C1425 1.434 . S
C1427 C1428 1.361 1_545 S
C1427 C1429 1.427 . S
C1427 H1431 0.930 . S
C1428 C1427 1.361 1_565 S
C1428 C1437 1.429 . S
C1429 C1427 1.427 . S
C1429 C1430 1.363 . S
C1429 H1432 0.929 . S
C1430 C1429 1.363 . S
C1430 C1436 1.428 . S
H1431 C1427 0.930 . S
H1432 C1429 0.929 . S
S1433 N1434 1.613 . S
S1433 N1435 1.610 1_565 S
N1434 S1433 1.613 . S
N1434 C1437 1.350 . S
N1435 S1433 1.610 1_545 S
N1435 C1436 1.351 . S
C1436 C1430 1.428 . S
C1436 N1435 1.351 . S
C1436 C1437 1.434 1_545 S
C1437 C1428 1.429 . S
C1437 N1434 1.350 . S
C1437 C1436 1.434 1_565 S
C1438 C1439 1.369 . S
C1438 C1440 1.419 . S
C1438 H1442 0.930 . S
C1439 C1438 1.369 . S
C1439 C1448 1.429 . S
C1440 C1438 1.419 . S
C1440 C1441 1.363 . S
C1440 H1443 0.929 . S
C1441 C1440 1.363 . S
C1441 C1447 1.428 . S
H1442 C1438 0.930 . S
H1443 C1440 0.929 . S
S1444 N1445 1.613 . S
S1444 N1446 1.610 . S
N1445 S1444 1.613 . S
N1445 C1448 1.350 . S
N1446 S1444 1.610 . S
N1446 C1447 1.351 . S
C1447 C1441 1.428 . S
C1447 N1446 1.351 . S
C1447 C1448 1.434 . S
C1448 C1439 1.429 . S
C1448 N1445 1.350 . S
C1448 C1447 1.434 . S
C1449 C1450 1.369 . S
C1449 C1451 1.419 . S
C1449 H1453 0.930 . S
C1450 C1449 1.369 . S
C1450 C1459 1.429 1_565 S
C1451 C1449 1.419 . S
C1451 C1452 1.363 1_565 S
C1451 H1454 0.929 . S
C1452 C1451 1.363 1_545 S
C1452 C1458 1.428 . S
H1453 C1449 0.930 . S
H1454 C1451 0.929 . S
S1455 N1456 1.613 . S
S1455 N1457 1.610 . S
N1456 S1455 1.613 . S
N1456 C1459 1.350 . S
N1457 S1455 1.610 . S
N1457 C1458 1.351 . S
C1458 C1452 1.428 . S
C1458 N1457 1.351 . S
C1458 C1459 1.434 . S
C1459 C1450 1.429 1_545 S
C1459 N1456 1.350 . S
C1459 C1458 1.434 . S
C1460 C1461 1.369 . S
C1460 C1462 1.419 . S
C1460 H1464 0.930 . S
C1461 C1460 1.369 . S
C1461 C1470 1.429 . S
C1462 C1460 1.419 . S
C1462 C1463 1.363 . S
C1462 H1465 0.929 . S
C1463 C1462 1.363 . S
C1463 C1469 1.428 . S
H1464 C1460 0.930 . S
H1465 C1462 0.929 . S
S1466 N1467 1.613 . S
S1466 N1468 1.610 . S
N1467 S1466 1.613 . S
N1467 C1470 1.350 . S
N1468 S1466 1.610 . S
N1468 C1469 1.351 . S
C1469 C1463 1.428 . S
C1469 N1468 1.351 . S
C1469 C1470 1.434 . S
C1470 C1461 1.429 . S
C1470 N1467 1.350 . S
C1470 C1469 1.434 . S
C1471 C1472 1.369 . S
C1471 C1473 1.419 . S
C1471 H1475 0.930 . S
C1472 C1471 1.369 . S
C1472 C1481 1.429 . S
C1473 C1471 1.419 . S
C1473 C1474 1.363 . S
C1473 H1476 0.929 . S
C1474 C1473 1.363 . S
C1474 C1480 1.428 . S
H1475 C1471 0.930 . S
H1476 C1473 0.929 . S
S1477 N1478 1.613 . S
S1477 N1479 1.610 . S
N1478 S1477 1.613 . S
N1478 C1481 1.350 . S
N1479 S1477 1.610 . S
N1479 C1480 1.351 . S
C1480 C1474 1.428 . S
C1480 N1479 1.351 . S
C1480 C1481 1.434 . S
C1481 C1472 1.429 . S
C1481 N1478 1.350 . S
C1481 C1480 1.434 . S
C1482 C1483 1.369 . S
C1482 C1484 1.419 . S
C1482 H1486 0.930 . S
C1483 C1482 1.369 . S
C1483 C1492 1.429 . S
C1484 C1482 1.419 . S
C1484 C1485 1.363 . S
C1484 H1487 0.929 . S
C1485 C1484 1.363 . S
C1485 C1491 1.428 . S
H1486 C1482 0.930 . S
H1487 C1484 0.929 . S
S1488 N1489 1.613 . S
S1488 N1490 1.610 . S
N1489 S1488 1.613 . S
N1489 C1492 1.350 . S
N1490 S1488 1.610 . S
N1490 C1491 1.351 . S
C1491 C1485 1.428 . S
C1491 N1490 1.351 . S
C1491 C1492 1.434 . S
C1492 C1483 1.429 . S
C1492 N1489 1.350 . S
C1492 C1491 1.434 . S
C1493 C1494 1.369 . S
C1493 C1495 1.419 1_556 S
C1493 H1497 0.930 . S
C1494 C1493 1.369 . S
C1494 C1503 1.429 1_545 S
C1495 C1493 1.419 1_554 S
C1495 C1496 1.363 1_545 S
C1495 H1498 0.929 . S
C1496 C1495 1.363 1_565 S
C1496 C1502 1.428 . S
H1497 C1493 0.930 . S
H1498 C1495 0.929 . S
S1499 N1500 1.613 . S
S1499 N1501 1.610 1_556 S
N1500 S1499 1.613 . S
N1500 C1503 1.350 . S
N1501 S1499 1.610 1_554 S
N1501 C1502 1.351 . S
C1502 C1496 1.428 . S
C1502 N1501 1.351 . S
C1502 C1503 1.434 1_554 S
C1503 C1494 1.429 1_565 S
C1503 N1500 1.350 . S
C1503 C1502 1.434 1_556 S
C1504 C1505 1.369 . S
C1504 C1506 1.419 . S
C1504 H1508 0.930 . S
C1505 C1504 1.369 . S
C1505 C1514 1.429 . S
C1506 C1504 1.419 . S
C1506 C1507 1.363 . S
C1506 H1509 0.929 . S
C1507 C1506 1.363 . S
C1507 C1513 1.428 . S
H1508 C1504 0.930 . S
H1509 C1506 0.929 . S
S1510 N1511 1.613 . S
S1510 N1512 1.610 . S
N1511 S1510 1.613 . S
N1511 C1514 1.350 . S
N1512 S1510 1.610 . S
N1512 C1513 1.351 . S
C1513 C1507 1.428 . S
C1513 N1512 1.351 . S
C1513 C1514 1.434 . S
C1514 C1505 1.429 . S
C1514 N1511 1.350 . S
C1514 C1513 1.434 . S
C1515 C1516 1.369 . S
C1515 C1517 1.419 . S
C1515 H1519 0.930 . S
C1516 C1515 1.369 . S
C1516 C1525 1.429 . S
C1517 C1515 1.419 . S
C1517 C1518 1.363 . S
C1517 H1520 0.929 . S
C1518 C1517 1.363 . S
C1518 C1524 1.428 . S
H1519 C1515 0.930 . S
H1520 C1517 0.929 . S
S1521 N1522 1.613 . S
S1521 N1523 1.610 . S
N1522 S1521 1.613 . S
N1522 C1525 1.350 . S
N1523 S1521 1.610 . S
N1523 C1524 1.351 . S
C1524 C1518 1.428 . S
C1524 N1523 1.351 . S
C1524 C1525 1.434 . S
C1525 C1516 1.429 . S
C1525 N1522 1.350 . S
C1525 C1524 1.434 . S
C1526 C1527 1.369 . S
C1526 C1528 1.419 . S
C1526 H1530 0.930 . S
C1527 C1526 1.369 . S
C1527 C1536 1.429 . S
C1528 C1526 1.419 . S
C1528 C1529 1.363 . S
C1528 H1531 0.929 . S
C1529 C1528 1.363 . S
C1529 C1535 1.428 . S
H1530 C1526 0.930 . S
H1531 C1528 0.929 . S
S1532 N1533 1.613 . S
S1532 N1534 1.610 . S
N1533 S1532 1.613 . S
N1533 C1536 1.350 . S
N1534 S1532 1.610 . S
N1534 C1535 1.351 . S
C1535 C1529 1.428 . S
C1535 N1534 1.351 . S
C1535 C1536 1.434 . S
C1536 C1527 1.429 . S
C1536 N1533 1.350 . S
C1536 C1535 1.434 . S
C1537 C1538 1.369 . S
C1537 C1539 1.419 . S
C1537 H1541 0.930 . S
C1538 C1537 1.369 . S
C1538 C1547 1.429 . S
C1539 C1537 1.419 . S
C1539 C1540 1.363 . S
C1539 H1542 0.929 . S
C1540 C1539 1.363 . S
C1540 C1546 1.428 . S
H1541 C1537 0.930 . S
H1542 C1539 0.929 . S
S1543 N1544 1.613 . S
S1543 N1545 1.610 . S
N1544 S1543 1.613 . S
N1544 C1547 1.350 . S
N1545 S1543 1.610 . S
N1545 C1546 1.351 . S
C1546 C1540 1.428 . S
C1546 N1545 1.351 . S
C1546 C1547 1.434 . S
C1547 C1538 1.429 . S
C1547 N1544 1.350 . S
C1547 C1546 1.434 . S
C1548 C1549 1.369 . S
C1548 C1550 1.419 . S
C1548 H1552 0.930 . S
C1549 C1548 1.369 . S
C1549 C1558 1.429 . S
C1550 C1548 1.419 . S
C1550 C1551 1.363 . S
C1550 H1553 0.929 . S
C1551 C1550 1.363 . S
C1551 C1557 1.428 . S
H1552 C1548 0.930 . S
H1553 C1550 0.929 . S
S1554 N1555 1.613 . S
S1554 N1556 1.610 . S
N1555 S1554 1.613 . S
N1555 C1558 1.350 . S
N1556 S1554 1.610 . S
N1556 C1557 1.351 . S
C1557 C1551 1.428 . S
C1557 N1556 1.351 . S
C1557 C1558 1.434 . S
C1558 C1549 1.429 . S
C1558 N1555 1.350 . S
C1558 C1557 1.434 . S
C1559 C1560 1.369 . S
C1559 C1561 1.419 . S
C1559 H1563 0.930 . S
C1560 C1559 1.369 . S
C1560 C1569 1.429 . S
C1561 C1559 1.419 . S
C1561 C1562 1.363 . S
C1561 H1564 0.929 . S
C1562 C1561 1.363 . S
C1562 C1568 1.428 . S
H1563 C1559 0.930 . S
H1564 C1561 0.929 . S
S1565 N1566 1.613 . S
S1565 N1567 1.610 . S
N1566 S1565 1.613 . S
N1566 C1569 1.350 . S
N1567 S1565 1.610 . S
N1567 C1568 1.351 . S
C1568 C1562 1.428 . S
C1568 N1567 1.351 . S
C1568 C1569 1.434 . S
C1569 C1560 1.429 . S
C1569 N1566 1.350 . S
C1569 C1568 1.434 . S
C1570 C1571 1.369 . S
C1570 C1572 1.419 . S
C1570 H1574 0.930 . S
C1571 C1570 1.369 . S
C1571 C1580 1.429 . S
C1572 C1570 1.419 . S
C1572 C1573 1.363 . S
C1572 H1575 0.929 . S
C1573 C1572 1.363 . S
C1573 C1579 1.428 . S
H1574 C1570 0.930 . S
H1575 C1572 0.929 . S
S1576 N1577 1.613 . S
S1576 N1578 1.610 . S
N1577 S1576 1.613 . S
N1577 C1580 1.350 . S
N1578 S1576 1.610 . S
N1578 C1579 1.351 . S
C1579 C1573 1.428 . S
C1579 N1578 1.351 . S
C1579 C1580 1.434 . S
C1580 C1571 1.429 . S
C1580 N1577 1.350 . S
C1580 C1579 1.434 . S
C1581 C1582 1.369 . S
C1581 C1583 1.419 . S
C1581 H1585 0.930 . S
C1582 C1581 1.369 . S
C1582 C1591 1.429 . S
C1583 C1581 1.419 . S
C1583 C1584 1.363 . S
C1583 H1586 0.929 . S
C1584 C1583 1.363 . S
C1584 C1590 1.428 . S
H1585 C1581 0.930 . S
H1586 C1583 0.929 . S
S1587 N1588 1.613 . S
S1587 N1589 1.610 . S
N1588 S1587 1.613 . S
N1588 C1591 1.350 . S
N1589 S1587 1.610 . S
N1589 C1590 1.351 . S
C1590 C1584 1.428 . S
C1590 N1589 1.351 . S
C1590 C1591 1.434 . S
C1591 C1582 1.429 . S
C1591 N1588 1.350 . S
C1591 C1590 1.434 . S
C1592 C1593 1.369 . S
C1592 C1594 1.419 . S
C1592 H1596 0.930 . S
C1593 C1592 1.369 . S
C1593 C1602 1.429 . S
C1594 C1592 1.419 . S
C1594 C1595 1.363 . S
C1594 H1597 0.929 . S
C1595 C1594 1.363 . S
C1595 C1601 1.428 . S
H1596 C1592 0.930 . S
H1597 C1594 0.929 . S
S1598 N1599 1.613 . S
S1598 N1600 1.610 . S
N1599 S1598 1.613 . S
N1599 C1602 1.350 . S
N1600 S1598 1.610 . S
N1600 C1601 1.351 . S
C1601 C1595 1.428 . S
C1601 N1600 1.351 . S
C1601 C1602 1.434 . S
C1602 C1593 1.429 . S
C1602 N1599 1.350 . S
C1602 C1601 1.434 . S
C1603 C1604 1.369 . S
C1603 C1605 1.419 . S
C1603 H1607 0.930 . S
C1604 C1603 1.369 . S
C1604 C1613 1.429 . S
C1605 C1603 1.419 . S
C1605 C1606 1.363 . S
C1605 H1608 0.929 . S
C1606 C1605 1.363 . S
C1606 C1612 1.428 . S
H1607 C1603 0.930 . S
H1608 C1605 0.929 . S
S1609 N1610 1.613 . S
S1609 N1611 1.610 . S
N1610 S1609 1.613 . S
N1610 C1613 1.350 . S
N1611 S1609 1.610 . S
N1611 C1612 1.351 . S
C1612 C1606 1.428 . S
C1612 N1611 1.351 . S
C1612 C1613 1.434 . S
C1613 C1604 1.429 . S
C1613 N1610 1.350 . S
C1613 C1612 1.434 . S
C1614 C1615 1.369 . S
C1614 C1616 1.419 . S
C1614 H1618 0.930 . S
C1615 C1614 1.369 . S
C1615 C1624 1.429 . S
C1616 C1614 1.419 . S
C1616 C1617 1.363 . S
C1616 H1619 0.929 . S
C1617 C1616 1.363 . S
C1617 C1623 1.428 . S
H1618 C1614 0.930 . S
H1619 C1616 0.929 . S
S1620 N1621 1.613 . S
S1620 N1622 1.610 . S
N1621 S1620 1.613 . S
N1621 C1624 1.350 . S
N1622 S1620 1.610 . S
N1622 C1623 1.351 . S
C1623 C1617 1.428 . S
C1623 N1622 1.351 . S
C1623 C1624 1.434 . S
C1624 C1615 1.429 . S
C1624 N1621 1.350 . S
C1624 C1623 1.434 . S
C1625 C1626 1.369 . S
C1625 C1627 1.419 . S
C1625 H1629 0.930 . S
C1626 C1625 1.369 . S
C1626 C1635 1.429 . S
C1627 C1625 1.419 . S
C1627 C1628 1.363 . S
C1627 H1630 0.929 . S
C1628 C1627 1.363 . S
C1628 C1634 1.428 . S
H1629 C1625 0.930 . S
H1630 C1627 0.929 . S
S1631 N1632 1.613 . S
S1631 N1633 1.610 . S
N1632 S1631 1.613 . S
N1632 C1635 1.350 . S
N1633 S1631 1.610 . S
N1633 C1634 1.351 . S
C1634 C1628 1.428 . S
C1634 N1633 1.351 . S
C1634 C1635 1.434 . S
C1635 C1626 1.429 . S
C1635 N1632 1.350 . S
C1635 C1634 1.434 . S
C1636 C1637 1.369 . S
C1636 C1638 1.419 . S
C1636 H1640 0.930 . S
C1637 C1636 1.369 . S
C1637 C1646 1.429 . S
C1638 C1636 1.419 . S
C1638 C1639 1.363 . S
C1638 H1641 0.929 . S
C1639 C1638 1.363 . S
C1639 C1645 1.428 . S
H1640 C1636 0.930 . S
H1641 C1638 0.929 . S
S1642 N1643 1.613 . S
S1642 N1644 1.610 . S
N1643 S1642 1.613 . S
N1643 C1646 1.350 . S
N1644 S1642 1.610 . S
N1644 C1645 1.351 . S
C1645 C1639 1.428 . S
C1645 N1644 1.351 . S
C1645 C1646 1.434 . S
C1646 C1637 1.429 . S
C1646 N1643 1.350 . S
C1646 C1645 1.434 . S
C1647 C1648 1.369 . S
C1647 C1649 1.419 . S
C1647 H1651 0.930 . S
C1648 C1647 1.369 . S
C1648 C1657 1.429 . S
C1649 C1647 1.419 . S
C1649 C1650 1.363 . S
C1649 H1652 0.929 . S
C1650 C1649 1.363 . S
C1650 C1656 1.428 . S
H1651 C1647 0.930 . S
H1652 C1649 0.929 . S
S1653 N1654 1.613 . S
S1653 N1655 1.610 . S
N1654 S1653 1.613 . S
N1654 C1657 1.350 . S
N1655 S1653 1.610 . S
N1655 C1656 1.351 . S
C1656 C1650 1.428 . S
C1656 N1655 1.351 . S
C1656 C1657 1.434 . S
C1657 C1648 1.429 . S
C1657 N1654 1.350 . S
C1657 C1656 1.434 . S
C1658 C1659 1.369 . S
C1658 C1660 1.419 . S
C1658 H1662 0.930 . S
C1659 C1658 1.369 . S
C1659 C1668 1.429 . S
C1660 C1658 1.419 . S
C1660 C1661 1.363 . S
C1660 H1663 0.929 . S
C1661 C1660 1.363 . S
C1661 C1667 1.428 . S
H1662 C1658 0.930 . S
H1663 C1660 0.929 . S
S1664 N1665 1.613 1_565 S
S1664 N1666 1.610 1_565 S
N1665 S1664 1.613 1_545 S
N1665 C1668 1.350 . S
N1666 S1664 1.610 1_545 S
N1666 C1667 1.351 . S
C1667 C1661 1.428 . S
C1667 N1666 1.351 . S
C1667 C1668 1.434 . S
C1668 C1659 1.429 . S
C1668 N1665 1.350 . S
C1668 C1667 1.434 . S
C1669 C1670 1.369 . S
C1669 C1671 1.419 . S
C1669 H1673 0.930 . S
C1670 C1669 1.369 . S
C1670 C1679 1.429 . S
C1671 C1669 1.419 . S
C1671 C1672 1.363 . S
C1671 H1674 0.929 . S
C1672 C1671 1.363 . S
C1672 C1678 1.428 . S
H1673 C1669 0.930 . S
H1674 C1671 0.929 . S
S1675 N1676 1.613 . S
S1675 N1677 1.610 . S
N1676 S1675 1.613 . S
N1676 C1679 1.350 . S
N1677 S1675 1.610 . S
N1677 C1678 1.351 . S
C1678 C1672 1.428 . S
C1678 N1677 1.351 . S
C1678 C1679 1.434 . S
C1679 C1670 1.429 . S
C1679 N1676 1.350 . S
C1679 C1678 1.434 . S
C1680 C1681 1.369 . S
C1680 C1682 1.419 . S
C1680 H1684 0.930 . S
C1681 C1680 1.369 . S
C1681 C1690 1.429 . S
C1682 C1680 1.419 . S
C1682 C1683 1.363 . S
C1682 H1685 0.929 . S
C1683 C1682 1.363 . S
C1683 C1689 1.428 . S
H1684 C1680 0.930 . S
H1685 C1682 0.929 . S
S1686 N1687 1.613 . S
S1686 N1688 1.610 . S
N1687 S1686 1.613 . S
N1687 C1690 1.350 . S
N1688 S1686 1.610 . S
N1688 C1689 1.351 . S
C1689 C1683 1.428 . S
C1689 N1688 1.351 . S
C1689 C1690 1.434 . S
C1690 C1681 1.429 . S
C1690 N1687 1.350 . S
C1690 C1689 1.434 . S
C1691 C1692 1.369 . S
C1691 C1693 1.419 . S
C1691 H1695 0.930 . S
C1692 C1691 1.369 . S
C1692 C1701 1.429 . S
C1693 C1691 1.419 . S
C1693 C1694 1.363 . S
C1693 H1696 0.929 . S
C1694 C1693 1.363 . S
C1694 C1700 1.428 . S
H1695 C1691 0.930 . S
H1696 C1693 0.929 . S
S1697 N1698 1.613 . S
S1697 N1699 1.610 . S
N1698 S1697 1.613 . S
N1698 C1701 1.350 . S
N1699 S1697 1.610 . S
N1699 C1700 1.351 . S
C1700 C1694 1.428 . S
C1700 N1699 1.351 . S
C1700 C1701 1.434 . S
C1701 C1692 1.429 . S
C1701 N1698 1.350 . S
C1701 C1700 1.434 . S
C1702 C1703 1.369 . S
C1702 C1704 1.419 . S
C1702 H1706 0.930 1_655 S
C1703 C1702 1.369 . S
C1703 C1712 1.429 . S
C1704 C1702 1.419 . S
C1704 C1705 1.363 . S
C1704 H1707 0.929 1_655 S
C1705 C1704 1.363 . S
C1705 C1711 1.428 . S
H1706 C1702 0.930 1_455 S
H1707 C1704 0.929 1_455 S
S1708 N1709 1.613 . S
S1708 N1710 1.610 . S
N1709 S1708 1.613 . S
N1709 C1712 1.350 . S
N1710 S1708 1.610 . S
N1710 C1711 1.351 . S
C1711 C1705 1.428 . S
C1711 N1710 1.351 . S
C1711 C1712 1.434 . S
C1712 C1703 1.429 . S
C1712 N1709 1.350 . S
C1712 C1711 1.434 . S
C1713 C1714 1.369 . S
C1713 C1715 1.419 . S
C1713 H1717 0.930 . S
C1714 C1713 1.369 . S
C1714 C1723 1.429 . S
C1715 C1713 1.419 . S
C1715 C1716 1.363 . S
C1715 H1718 0.929 . S
C1716 C1715 1.363 . S
C1716 C1722 1.428 . S
H1717 C1713 0.930 . S
H1718 C1715 0.929 . S
S1719 N1720 1.613 . S
S1719 N1721 1.610 . S
N1720 S1719 1.613 . S
N1720 C1723 1.350 . S
N1721 S1719 1.610 . S
N1721 C1722 1.351 . S
C1722 C1716 1.428 . S
C1722 N1721 1.351 . S
C1722 C1723 1.434 . S
C1723 C1714 1.429 . S
C1723 N1720 1.350 . S
C1723 C1722 1.434 . S
C1724 C1725 1.369 . S
C1724 C1726 1.419 . S
C1724 H1728 0.930 . S
C1725 C1724 1.369 . S
C1725 C1734 1.429 . S
C1726 C1724 1.419 . S
C1726 C1727 1.363 . S
C1726 H1729 0.929 . S
C1727 C1726 1.363 . S
C1727 C1733 1.428 . S
H1728 C1724 0.930 . S
H1729 C1726 0.929 . S
S1730 N1731 1.613 . S
S1730 N1732 1.610 . S
N1731 S1730 1.613 . S
N1731 C1734 1.350 . S
N1732 S1730 1.610 . S
N1732 C1733 1.351 . S
C1733 C1727 1.428 . S
C1733 N1732 1.351 . S
C1733 C1734 1.434 . S
C1734 C1725 1.429 . S
C1734 N1731 1.350 . S
C1734 C1733 1.434 . S
C1735 C1736 1.369 . S
C1735 C1737 1.419 . S
C1735 H1739 0.930 . S
C1736 C1735 1.369 . S
C1736 C1745 1.429 . S
C1737 C1735 1.419 . S
C1737 C1738 1.363 . S
C1737 H1740 0.929 . S
C1738 C1737 1.363 . S
C1738 C1744 1.428 . S
H1739 C1735 0.930 . S
H1740 C1737 0.929 . S
S1741 N1742 1.613 . S
S1741 N1743 1.610 . S
N1742 S1741 1.613 . S
N1742 C1745 1.350 . S
N1743 S1741 1.610 . S
N1743 C1744 1.351 . S
C1744 C1738 1.428 . S
C1744 N1743 1.351 . S
C1744 C1745 1.434 . S
C1745 C1736 1.429 . S
C1745 N1742 1.350 . S
C1745 C1744 1.434 . S
C1746 C1747 1.369 . S
C1746 C1748 1.419 . S
C1746 H1750 0.930 1_655 S
C1747 C1746 1.369 . S
C1747 C1756 1.429 . S
C1748 C1746 1.419 . S
C1748 C1749 1.363 . S
C1748 H1751 0.929 1_655 S
C1749 C1748 1.363 . S
C1749 C1755 1.428 . S
H1750 C1746 0.930 1_455 S
H1751 C1748 0.929 1_455 S
S1752 N1753 1.613 . S
S1752 N1754 1.610 . S
N1753 S1752 1.613 . S
N1753 C1756 1.350 . S
N1754 S1752 1.610 . S
N1754 C1755 1.351 . S
C1755 C1749 1.428 . S
C1755 N1754 1.351 . S
C1755 C1756 1.434 . S
C1756 C1747 1.429 . S
C1756 N1753 1.350 . S
C1756 C1755 1.434 . S
C1757 C1758 1.369 . S
C1757 C1759 1.419 . S
C1757 H1761 0.930 . S
C1758 C1757 1.369 . S
C1758 C1767 1.429 . S
C1759 C1757 1.419 . S
C1759 C1760 1.363 . S
C1759 H1762 0.929 . S
C1760 C1759 1.363 . S
C1760 C1766 1.428 . S
H1761 C1757 0.930 . S
H1762 C1759 0.929 . S
S1763 N1764 1.613 . S
S1763 N1765 1.610 . S
N1764 S1763 1.613 . S
N1764 C1767 1.350 . S
N1765 S1763 1.610 . S
N1765 C1766 1.351 . S
C1766 C1760 1.428 . S
C1766 N1765 1.351 . S
C1766 C1767 1.434 . S
C1767 C1758 1.429 . S
C1767 N1764 1.350 . S
C1767 C1766 1.434 . S
C1768 C1769 1.369 . S
C1768 C1770 1.419 . S
C1768 H1772 0.930 . S
C1769 C1768 1.369 . S
C1769 C1778 1.429 . S
C1770 C1768 1.419 . S
C1770 C1771 1.363 . S
C1770 H1773 0.929 . S
C1771 C1770 1.363 . S
C1771 C1777 1.428 . S
H1772 C1768 0.930 . S
H1773 C1770 0.929 . S
S1774 N1775 1.613 . S
S1774 N1776 1.610 . S
N1775 S1774 1.613 . S
N1775 C1778 1.350 . S
N1776 S1774 1.610 . S
N1776 C1777 1.351 . S
C1777 C1771 1.428 . S
C1777 N1776 1.351 . S
C1777 C1778 1.434 . S
C1778 C1769 1.429 . S
C1778 N1775 1.350 . S
C1778 C1777 1.434 . S
C1779 C1780 1.369 . S
C1779 C1781 1.419 . S
C1779 H1783 0.930 . S
C1780 C1779 1.369 . S
C1780 C1789 1.429 . S
C1781 C1779 1.419 . S
C1781 C1782 1.363 . S
C1781 H1784 0.929 . S
C1782 C1781 1.363 . S
C1782 C1788 1.428 . S
H1783 C1779 0.930 . S
H1784 C1781 0.929 . S
S1785 N1786 1.613 . S
S1785 N1787 1.610 . S
N1786 S1785 1.613 . S
N1786 C1789 1.350 . S
N1787 S1785 1.610 . S
N1787 C1788 1.351 . S
C1788 C1782 1.428 . S
C1788 N1787 1.351 . S
C1788 C1789 1.434 . S
C1789 C1780 1.429 . S
C1789 N1786 1.350 . S
C1789 C1788 1.434 . S
C1790 C1791 1.369 . S
C1790 C1792 1.419 . S
C1790 H1794 0.930 . S
C1791 C1790 1.369 . S
C1791 C1800 1.429 . S
C1792 C1790 1.419 . S
C1792 C1793 1.363 . S
C1792 H1795 0.929 . S
C1793 C1792 1.363 . S
C1793 C1799 1.428 . S
H1794 C1790 0.930 . S
H1795 C1792 0.929 . S
S1796 N1797 1.613 . S
S1796 N1798 1.610 . S
N1797 S1796 1.613 . S
N1797 C1800 1.350 . S
N1798 S1796 1.610 . S
N1798 C1799 1.351 . S
C1799 C1793 1.428 . S
C1799 N1798 1.351 . S
C1799 C1800 1.434 . S
C1800 C1791 1.429 . S
C1800 N1797 1.350 . S
C1800 C1799 1.434 . S
C1801 C1802 1.369 . S
C1801 C1803 1.419 . S
C1801 H1805 0.930 . S
C1802 C1801 1.369 . S
C1802 C1811 1.429 . S
C1803 C1801 1.419 . S
C1803 C1804 1.363 . S
C1803 H1806 0.929 . S
C1804 C1803 1.363 . S
C1804 C1810 1.428 . S
H1805 C1801 0.930 . S
H1806 C1803 0.929 . S
S1807 N1808 1.613 . S
S1807 N1809 1.610 . S
N1808 S1807 1.613 . S
N1808 C1811 1.350 . S
N1809 S1807 1.610 . S
N1809 C1810 1.351 . S
C1810 C1804 1.428 . S
C1810 N1809 1.351 . S
C1810 C1811 1.434 . S
C1811 C1802 1.429 . S
C1811 N1808 1.350 . S
C1811 C1810 1.434 . S
C1812 C1813 1.369 . S
C1812 C1814 1.419 . S
C1812 H1816 0.930 . S
C1813 C1812 1.369 . S
C1813 C1822 1.429 . S
C1814 C1812 1.419 . S
C1814 C1815 1.363 . S
C1814 H1817 0.929 . S
C1815 C1814 1.363 . S
C1815 C1821 1.428 . S
H1816 C1812 0.930 . S
H1817 C1814 0.929 . S
S1818 N1819 1.613 . S
S1818 N1820 1.610 . S
N1819 S1818 1.613 . S
N1819 C1822 1.350 . S
N1820 S1818 1.610 . S
N1820 C1821 1.351 . S
C1821 C1815 1.428 . S
C1821 N1820 1.351 . S
C1821 C1822 1.434 . S
C1822 C1813 1.429 . S
C1822 N1819 1.350 . S
C1822 C1821 1.434 . S
C1823 C1824 1.369 . S
C1823 C1825 1.419 . S
C1823 H1827 0.930 . S
C1824 C1823 1.369 . S
C1824 C1833 1.429 . S
C1825 C1823 1.419 . S
C1825 C1826 1.363 . S
C1825 H1828 0.929 . S
C1826 C1825 1.363 . S
C1826 C1832 1.428 . S
H1827 C1823 0.930 . S
H1828 C1825 0.929 . S
S1829 N1830 1.613 . S
S1829 N1831 1.610 . S
N1830 S1829 1.613 . S
N1830 C1833 1.350 . S
N1831 S1829 1.610 . S
N1831 C1832 1.351 . S
C1832 C1826 1.428 . S
C1832 N1831 1.351 . S
C1832 C1833 1.434 . S
C1833 C1824 1.429 . S
C1833 N1830 1.350 . S
C1833 C1832 1.434 . S
C1834 C1835 1.369 . S
C1834 C1836 1.419 . S
C1834 H1838 0.930 . S
C1835 C1834 1.369 . S
C1835 C1844 1.429 . S
C1836 C1834 1.419 . S
C1836 C1837 1.363 . S
C1836 H1839 0.929 . S
C1837 C1836 1.363 . S
C1837 C1843 1.428 . S
H1838 C1834 0.930 . S
H1839 C1836 0.929 . S
S1840 N1841 1.613 . S
S1840 N1842 1.610 . S
N1841 S1840 1.613 . S
N1841 C1844 1.350 . S
N1842 S1840 1.610 . S
N1842 C1843 1.351 . S
C1843 C1837 1.428 . S
C1843 N1842 1.351 . S
C1843 C1844 1.434 . S
C1844 C1835 1.429 . S
C1844 N1841 1.350 . S
C1844 C1843 1.434 . S
C1845 C1846 1.369 . S
C1845 C1847 1.419 . S
C1845 H1849 0.930 . S
C1846 C1845 1.369 . S
C1846 C1855 1.429 . S
C1847 C1845 1.419 . S
C1847 C1848 1.363 . S
C1847 H1850 0.929 . S
C1848 C1847 1.363 . S
C1848 C1854 1.428 . S
H1849 C1845 0.930 . S
H1850 C1847 0.929 . S
S1851 N1852 1.613 . S
S1851 N1853 1.610 . S
N1852 S1851 1.613 . S
N1852 C1855 1.350 . S
N1853 S1851 1.610 . S
N1853 C1854 1.351 . S
C1854 C1848 1.428 . S
C1854 N1853 1.351 . S
C1854 C1855 1.434 . S
C1855 C1846 1.429 . S
C1855 N1852 1.350 . S
C1855 C1854 1.434 . S
C1153 C74 0.924 . S
C1155 C2 0.943 . S
C1164 C38 0.945 . S
C1166 C110 0.926 . S
C1175 C220 0.706 . S
C1177 C148 0.682 . S
C1186 C256 0.707 . S
C1188 C184 0.682 . S
C1197 C290 0.946 . S
C1199 C362 0.926 . S
C1208 C398 0.924 . S
C1210 C326 0.943 . S
C1219 C436 0.679 . S
C1221 C508 0.704 . S
C1230 C472 0.683 . S
C1232 C544 0.706 . S
C1241 C650 0.944 . S
C1243 C578 0.926 . S
C1252 C614 0.930 . S
C1254 C686 0.943 . S
C1263 C724 0.678 . S
C1265 C796 0.702 . S
C1274 C832 0.708 . S
C1276 C760 0.684 . S
C1285 C938 0.943 . S
C1287 C866 0.925 . S
C1296 C974 0.945 . S
C1298 C902 0.933 . S
C1307 C1084 0.697 . S
C1309 C1012 0.702 . S
C1318 C1048 0.709 . S
C1320 C1120 0.685 . S
C1329 C158 1.475 . S
C1331 C3 1.629 . S
C1340 C1058 1.467 . S
C1342 C39 1.631 . S
C1351 C75 1.628 . S
C1353 C518 1.476 . S
C1362 C111 1.632 . S
C1364 C842 1.468 . S
C1373 C194 1.481 . S
C1375 C903 1.626 . S
C1384 C230 1.473 . S
C1386 C363 1.629 . S
C1395 C687 1.628 . S
C1397 C266 1.475 . S
C1406 C446 1.480 . S
C1408 C291 1.627 . S
C1417 C770 1.479 . S
C1419 C327 1.627 . S
C1428 C399 1.628 . S
C1430 C1130 1.475 . S
C1439 C482 1.477 . S
C1441 C615 1.627 . S
C1450 C975 1.626 . S
C1452 C554 1.479 . S
C1461 C734 1.467 . S
C1463 C579 1.631 . S
C1472 C651 1.626 . S
C1474 C1094 1.479 . S
C1483 C806 1.481 . S
C1485 C939 1.627 . S
C1494 C1022 1.469 . S
C1496 C867 1.631 . S
C1505 C112 1.524 . S
C1507 C4 1.522 . S
C1516 C76 1.520 . S
C1518 C40 1.524 . S
C1527 C254 1.465 . S
C1529 C146 1.458 . S
C1538 C218 1.460 . S
C1540 C182 1.463 . S
C1549 C400 1.524 . S
C1551 C292 1.520 . S
C1560 C364 1.523 . S
C1562 C328 1.523 . S
C1571 C542 1.462 . S
C1573 C434 1.462 . S
C1582 C506 1.457 . S
C1584 C470 1.465 . S
C1593 C580 1.520 . S
C1595 C688 1.524 . S
C1604 C652 1.520 . S
C1606 C616 1.524 . S
C1615 C722 1.457 . S
C1617 C830 1.464 . S
C1626 C794 1.458 . S
C1628 C758 1.464 . S
C1637 C976 1.520 . S
C1639 C868 1.524 . S
C1648 C904 1.524 . S
C1650 C940 1.520 . S
C1659 C1010 1.462 . S
C1661 C1118 1.460 . S
C1670 C1082 1.465 . S
C1672 C1046 1.458 . S
C1681 C86 1.700 1_545 S
C1683 C14 1.696 . S
C1692 C50 1.699 1_545 S
C1694 C122 1.696 . S
C1703 C147 1.345 . S
C1705 C219 1.345 1_565 S
C1714 C183 1.346 1_565 S
C1716 C255 1.345 . S
C1725 C302 1.700 . S
C1727 C374 1.697 . S
C1736 C338 1.697 . S
C1738 C410 1.695 . S
C1747 C507 1.345 . S
C1749 C435 1.345 . S
C1758 C543 1.347 . S
C1760 C471 1.346 . S
C1769 C662 1.696 1_545 S
C1771 C590 1.695 . S
C1780 C698 1.697 . S
C1782 C626 1.695 1_545 S
C1791 C723 1.345 . S
C1793 C795 1.345 1_565 S
C1802 C831 1.348 . S
C1804 C759 1.346 1_565 S
C1813 C950 1.695 . S
C1815 C878 1.695 . S
C1824 C914 1.699 . S
C1826 C986 1.696 . S
C1835 C1011 1.344 . S
C1837 C1083 1.345 . S
C1846 C1119 1.347 . S
C1848 C1047 1.346 . S
