# Generated by pormake.
# Topology lta, (4)-cn, num edge types: 1
# Building blocks:
#     Node 0, Type 0, BuildingBlock: TATPOV_clean_sbu_0, # of connection points: 4
#     Node 1, Type 0, BuildingBlock: TATPOV_clean_sbu_0, # of connection points: 4
#     Node 2, Type 0, BuildingBlock: TATPOV_clean_sbu_0, # of connection points: 4
#     Node 3, Type 0, BuildingBlock: TATPOV_clean_sbu_0, # of connection points: 4
#     Node 4, Type 0, BuildingBlock: TATPOV_clean_sbu_0, # of connection points: 4
#     Node 5, Type 0, BuildingBlock: TATPOV_clean_sbu_0, # of connection points: 4
#     Node 6, Type 0, BuildingBlock: TATPOV_clean_sbu_0, # of connection points: 4
#     Node 7, Type 0, BuildingBlock: TATPOV_clean_sbu_0, # of connection points: 4
#     Node 8, Type 0, BuildingBlock: TATPOV_clean_sbu_0, # of connection points: 4
#     Node 9, Type 0, BuildingBlock: TATPOV_clean_sbu_0, # of connection points: 4
#     Node 10, Type 0, BuildingBlock: TATPOV_clean_sbu_0, # of connection points: 4
#     Node 11, Type 0, BuildingBlock: TATPOV_clean_sbu_0, # of connection points: 4
#     Node 12, Type 0, BuildingBlock: TATPOV_clean_sbu_0, # of connection points: 4
#     Node 13, Type 0, BuildingBlock: TATPOV_clean_sbu_0, # of connection points: 4
#     Node 14, Type 0, BuildingBlock: TATPOV_clean_sbu_0, # of connection points: 4
#     Node 15, Type 0, BuildingBlock: TATPOV_clean_sbu_0, # of connection points: 4
#     Node 16, Type 0, BuildingBlock: TATPOV_clean_sbu_0, # of connection points: 4
#     Node 17, Type 0, BuildingBlock: TATPOV_clean_sbu_0, # of connection points: 4
#     Node 18, Type 0, BuildingBlock: TATPOV_clean_sbu_0, # of connection points: 4
#     Node 19, Type 0, BuildingBlock: TATPOV_clean_sbu_0, # of connection points: 4
#     Node 20, Type 0, BuildingBlock: TATPOV_clean_sbu_0, # of connection points: 4
#     Node 21, Type 0, BuildingBlock: TATPOV_clean_sbu_0, # of connection points: 4
#     Node 22, Type 0, BuildingBlock: TATPOV_clean_sbu_0, # of connection points: 4
#     Node 23, Type 0, BuildingBlock: TATPOV_clean_sbu_0, # of connection points: 4
#     Edge 24, Type (0, 0), BuildingBlock: TEMPAE_clean_linker_10, # of connection points: 2
#     Edge 25, Type (0, 0), BuildingBlock: TEMPAE_clean_linker_10, # of connection points: 2
#     Edge 26, Type (0, 0), BuildingBlock: TEMPAE_clean_linker_10, # of connection points: 2
#     Edge 27, Type (0, 0), BuildingBlock: TEMPAE_clean_linker_10, # of connection points: 2
#     Edge 28, Type (0, 0), BuildingBlock: TEMPAE_clean_linker_10, # of connection points: 2
#     Edge 29, Type (0, 0), BuildingBlock: TEMPAE_clean_linker_10, # of connection points: 2
#     Edge 30, Type (0, 0), BuildingBlock: TEMPAE_clean_linker_10, # of connection points: 2
#     Edge 31, Type (0, 0), BuildingBlock: TEMPAE_clean_linker_10, # of connection points: 2
#     Edge 32, Type (0, 0), BuildingBlock: TEMPAE_clean_linker_10, # of connection points: 2
#     Edge 33, Type (0, 0), BuildingBlock: TEMPAE_clean_linker_10, # of connection points: 2
#     Edge 34, Type (0, 0), BuildingBlock: TEMPAE_clean_linker_10, # of connection points: 2
#     Edge 35, Type (0, 0), BuildingBlock: TEMPAE_clean_linker_10, # of connection points: 2
#     Edge 36, Type (0, 0), BuildingBlock: TEMPAE_clean_linker_10, # of connection points: 2
#     Edge 37, Type (0, 0), BuildingBlock: TEMPAE_clean_linker_10, # of connection points: 2
#     Edge 38, Type (0, 0), BuildingBlock: TEMPAE_clean_linker_10, # of connection points: 2
#     Edge 39, Type (0, 0), BuildingBlock: TEMPAE_clean_linker_10, # of connection points: 2
#     Edge 40, Type (0, 0), BuildingBlock: TEMPAE_clean_linker_10, # of connection points: 2
#     Edge 41, Type (0, 0), BuildingBlock: TEMPAE_clean_linker_10, # of connection points: 2
#     Edge 42, Type (0, 0), BuildingBlock: TEMPAE_clean_linker_10, # of connection points: 2
#     Edge 43, Type (0, 0), BuildingBlock: TEMPAE_clean_linker_10, # of connection points: 2
#     Edge 44, Type (0, 0), BuildingBlock: TEMPAE_clean_linker_10, # of connection points: 2
#     Edge 45, Type (0, 0), BuildingBlock: TEMPAE_clean_linker_10, # of connection points: 2
#     Edge 46, Type (0, 0), BuildingBlock: TEMPAE_clean_linker_10, # of connection points: 2
#     Edge 47, Type (0, 0), BuildingBlock: TEMPAE_clean_linker_10, # of connection points: 2
#     Edge 48, Type (0, 0), BuildingBlock: TEMPAE_clean_linker_10, # of connection points: 2
#     Edge 49, Type (0, 0), BuildingBlock: TEMPAE_clean_linker_10, # of connection points: 2
#     Edge 50, Type (0, 0), BuildingBlock: TEMPAE_clean_linker_10, # of connection points: 2
#     Edge 51, Type (0, 0), BuildingBlock: TEMPAE_clean_linker_10, # of connection points: 2
#     Edge 52, Type (0, 0), BuildingBlock: TEMPAE_clean_linker_10, # of connection points: 2
#     Edge 53, Type (0, 0), BuildingBlock: TEMPAE_clean_linker_10, # of connection points: 2
#     Edge 54, Type (0, 0), BuildingBlock: TEMPAE_clean_linker_10, # of connection points: 2
#     Edge 55, Type (0, 0), BuildingBlock: TEMPAE_clean_linker_10, # of connection points: 2
#     Edge 56, Type (0, 0), BuildingBlock: TEMPAE_clean_linker_10, # of connection points: 2
#     Edge 57, Type (0, 0), BuildingBlock: TEMPAE_clean_linker_10, # of connection points: 2
#     Edge 58, Type (0, 0), BuildingBlock: TEMPAE_clean_linker_10, # of connection points: 2
#     Edge 59, Type (0, 0), BuildingBlock: TEMPAE_clean_linker_10, # of connection points: 2
#     Edge 60, Type (0, 0), BuildingBlock: TEMPAE_clean_linker_10, # of connection points: 2
#     Edge 61, Type (0, 0), BuildingBlock: TEMPAE_clean_linker_10, # of connection points: 2
#     Edge 62, Type (0, 0), BuildingBlock: TEMPAE_clean_linker_10, # of connection points: 2
#     Edge 63, Type (0, 0), BuildingBlock: TEMPAE_clean_linker_10, # of connection points: 2
#     Edge 64, Type (0, 0), BuildingBlock: TEMPAE_clean_linker_10, # of connection points: 2
#     Edge 65, Type (0, 0), BuildingBlock: TEMPAE_clean_linker_10, # of connection points: 2
#     Edge 66, Type (0, 0), BuildingBlock: TEMPAE_clean_linker_10, # of connection points: 2
#     Edge 67, Type (0, 0), BuildingBlock: TEMPAE_clean_linker_10, # of connection points: 2
#     Edge 68, Type (0, 0), BuildingBlock: TEMPAE_clean_linker_10, # of connection points: 2
#     Edge 69, Type (0, 0), BuildingBlock: TEMPAE_clean_linker_10, # of connection points: 2
#     Edge 70, Type (0, 0), BuildingBlock: TEMPAE_clean_linker_10, # of connection points: 2
#     Edge 71, Type (0, 0), BuildingBlock: TEMPAE_clean_linker_10, # of connection points: 2
# Relax obj value: 0.190
# Max RMSD: 0.076
# Mean RMSD: 0.076
data_MOF--net-lta--node1-TATPOV_clean_sbu_0--edge1-TEMPAE_clean_linker_10
_symmetry_space_group_name_H-M    P1
_symmetry_Int_Tables_number       1
_symmetry_cell_setting            triclinic
loop_
_symmetry_equiv_pos_as_xyz
'x, y, z'
_cell_length_a     56.82716
_cell_length_b     56.826772
_cell_length_c     56.91513
_cell_angle_alpha  89.969442
_cell_angle_beta   90.031691
_cell_angle_gamma 89.985919
loop_
_atom_site_label
_atom_site_type_symbol
_atom_site_fract_x
_atom_site_fract_y
_atom_site_fract_z
_atom_type_partial_charge
Zn0 Zn 0.09547 0.33338 0.54064 0.0
Zn1 Zn 0.12351 0.29815 0.53537 0.0
O2 O 0.1316 0.31751 0.50598 0.0
O3 O 0.10913 0.34848 0.51154 0.0
O4 O 0.14549 0.27076 0.53243 0.0
O5 O 0.10777 0.34145 0.57207 0.0
O6 O 0.13469 0.31417 0.56661 0.0
C7 C 0.12437 0.33767 0.4994 0.0
C8 C 0.06955 0.29158 0.53514 0.0
O9 O 0.09012 0.28277 0.53328 0.0
O10 O 0.06704 0.31339 0.53866 0.0
C11 C 0.14332 0.2559 0.51589 0.0
O12 O 0.12584 0.25818 0.50093 0.0
C13 C 0.12592 0.33068 0.57903 0.0
Zn14 Zn 0.65037 0.09025 0.50737 0.0
Zn15 Zn 0.68282 0.11932 0.51221 0.0
O16 O 0.66931 0.12718 0.47904 0.0
O17 O 0.64694 0.09629 0.47307 0.0
O18 O 0.70912 0.14274 0.51463 0.0
O19 O 0.62943 0.10704 0.52984 0.0
O20 O 0.66059 0.12745 0.54034 0.0
C21 C 0.65621 0.11502 0.4655 0.0
C22 C 0.69215 0.06646 0.51777 0.0
O23 O 0.70026 0.0871 0.51435 0.0
O24 O 0.67012 0.0633 0.51799 0.0
C25 C 0.72662 0.14011 0.50099 0.0
O26 O 0.72698 0.122 0.48665 0.0
C27 C 0.63905 0.12183 0.54335 0.0
Zn28 Zn 0.89567 0.63822 0.5261 0.0
Zn29 Zn 0.86489 0.67174 0.52643 0.0
O30 O 0.85782 0.65501 0.49494 0.0
O31 O 0.88216 0.625 0.49632 0.0
O32 O 0.84114 0.69786 0.52611 0.0
O33 O 0.88537 0.62624 0.55704 0.0
O34 O 0.85662 0.65229 0.5566 0.0
C35 C 0.86604 0.63625 0.48585 0.0
C36 C 0.91795 0.68277 0.52546 0.0
O37 O 0.89672 0.69 0.52631 0.0
O38 O 0.92219 0.66093 0.52494 0.0
C39 C 0.84315 0.71332 0.51008 0.0
O40 O 0.86056 0.71155 0.495 0.0
C41 C 0.86733 0.63516 0.56642 0.0
Zn42 Zn 0.36255 0.8744 0.49438 0.0
Zn43 Zn 0.32175 0.86074 0.50625 0.0
O44 O 0.32904 0.84233 0.47518 0.0
O45 O 0.36637 0.85049 0.46955 0.0
O46 O 0.2899 0.84766 0.51378 0.0
O47 O 0.376 0.86741 0.52568 0.0
O48 O 0.34168 0.85297 0.53616 0.0
C49 C 0.34808 0.8393 0.46373 0.0
C50 C 0.32952 0.91207 0.49268 0.0
O51 O 0.31614 0.89651 0.50176 0.0
O52 O 0.35027 0.90669 0.48665 0.0
C53 C 0.27282 0.85236 0.50015 0.0
O54 O 0.27621 0.86703 0.48262 0.0
C55 C 0.36322 0.85734 0.54081 0.0
Zn56 Zn 0.08425 0.66418 0.47338 0.0
Zn57 Zn 0.11557 0.69711 0.47546 0.0
O58 O 0.12171 0.67972 0.50661 0.0
O59 O 0.0948 0.65201 0.50498 0.0
O60 O 0.13954 0.72294 0.47661 0.0
O61 O 0.0974 0.65093 0.44406 0.0
O62 O 0.1256 0.67744 0.44599 0.0
C63 C 0.11164 0.6619 0.51572 0.0
C64 C 0.06252 0.70861 0.47229 0.0
O65 O 0.0837 0.71559 0.47482 0.0
O66 O 0.05804 0.6869 0.4707 0.0
C67 C 0.13755 0.7393 0.49169 0.0
O68 O 0.11946 0.73918 0.50607 0.0
C69 C 0.11601 0.65986 0.43584 0.0
Zn70 Zn 0.36979 0.1222 0.49678 0.0
Zn71 Zn 0.32806 0.1373 0.4885 0.0
O72 O 0.33783 0.1538 0.51993 0.0
O73 O 0.37501 0.14378 0.52344 0.0
O74 O 0.29595 0.15114 0.48368 0.0
O75 O 0.38123 0.13228 0.46554 0.0
O76 O 0.34608 0.14664 0.45791 0.0
C77 C 0.35746 0.1553 0.5307 0.0
C78 C 0.336 0.08497 0.49785 0.0
O79 O 0.32218 0.10144 0.49142 0.0
O80 O 0.35739 0.08948 0.50214 0.0
C81 C 0.27893 0.14471 0.49664 0.0
O82 O 0.28238 0.12791 0.51214 0.0
C83 C 0.36741 0.14307 0.45186 0.0
Zn84 Zn 0.89256 0.34969 0.47262 0.0
Zn85 Zn 0.86643 0.31217 0.47074 0.0
O86 O 0.8563 0.32754 0.50215 0.0
O87 O 0.8782 0.35938 0.50317 0.0
O88 O 0.84558 0.28375 0.47015 0.0
O89 O 0.87949 0.36219 0.44295 0.0
O90 O 0.85741 0.3304 0.44005 0.0
C91 C 0.8627 0.34638 0.51245 0.0
C92 C 0.92021 0.30776 0.4725 0.0
O93 O 0.90005 0.29792 0.47222 0.0
O94 O 0.92171 0.32998 0.47219 0.0
C95 C 0.84762 0.26882 0.48666 0.0
O96 O 0.86381 0.27217 0.50283 0.0
C97 C 0.86433 0.35019 0.43203 0.0
Zn98 Zn 0.66066 0.90747 0.46887 0.0
Zn99 Zn 0.68795 0.87174 0.47332 0.0
O100 O 0.66895 0.86975 0.5041 0.0
O101 O 0.64777 0.90203 0.50143 0.0
O102 O 0.71022 0.8445 0.47633 0.0
O103 O 0.64489 0.89453 0.44072 0.0
O104 O 0.66803 0.86356 0.4434 0.0
C105 C 0.65398 0.88394 0.51286 0.0
C106 C 0.70754 0.92225 0.46768 0.0
O107 O 0.71095 0.90058 0.47244 0.0
O108 O 0.68691 0.92969 0.46403 0.0
C109 C 0.72555 0.84514 0.49259 0.0
O110 O 0.72615 0.86346 0.50667 0.0
C111 C 0.65163 0.87483 0.43295 0.0
Zn112 Zn 0.51603 0.09689 0.32954 0.0
Zn113 Zn 0.51708 0.12635 0.29818 0.0
O114 O 0.48444 0.13169 0.31368 0.0
O115 O 0.48111 0.09891 0.33367 0.0
O116 O 0.51638 0.15007 0.27232 0.0
O117 O 0.53654 0.11607 0.35041 0.0
O118 O 0.54563 0.13653 0.31896 0.0
C119 C 0.47207 0.11783 0.32623 0.0
C120 C 0.52723 0.07466 0.28777 0.0
O121 O 0.5202 0.09458 0.28024 0.0
O122 O 0.53 0.0716 0.3096 0.0
C123 C 0.50035 0.14796 0.2569 0.0
O124 O 0.48568 0.13015 0.25833 0.0
C125 C 0.54901 0.13161 0.34057 0.0
Zn126 Zn 0.91257 0.52659 0.3325 0.0
Zn127 Zn 0.88044 0.5245 0.30026 0.0
O128 O 0.8751 0.49309 0.31739 0.0
O129 O 0.9025 0.49468 0.34458 0.0
O130 O 0.85597 0.52333 0.27511 0.0
O131 O 0.89936 0.55584 0.34605 0.0
O132 O 0.87064 0.55383 0.32013 0.0
C133 C 0.88562 0.48384 0.33486 0.0
C134 C 0.93296 0.52808 0.28735 0.0
O135 O 0.91163 0.52543 0.28095 0.0
O136 O 0.93802 0.52959 0.30892 0.0
C137 C 0.85742 0.50735 0.25957 0.0
O138 O 0.87505 0.4924 0.26042 0.0
C139 C 0.88052 0.564 0.33751 0.0
Zn140 Zn 0.46868 0.89859 0.34193 0.0
Zn141 Zn 0.47209 0.8707 0.30647 0.0
O142 O 0.50115 0.86106 0.32637 0.0
O143 O 0.49675 0.88371 0.35734 0.0
O144 O 0.47403 0.84861 0.27907 0.0
O145 O 0.43662 0.88768 0.34968 0.0
O146 O 0.43949 0.8619 0.3211 0.0
C147 C 0.50812 0.86791 0.34654 0.0
C148 C 0.47524 0.92449 0.30017 0.0
O149 O 0.47567 0.90389 0.29133 0.0
O150 O 0.47238 0.92706 0.32205 0.0
C151 C 0.46954 0.85441 0.25797 0.0
O152 O 0.46321 0.87611 0.25317 0.0
C153 C 0.42787 0.87089 0.33805 0.0
Zn154 Zn 0.0971 0.47074 0.35951 0.0
Zn155 Zn 0.12801 0.47143 0.32596 0.0
O156 O 0.13487 0.50256 0.34338 0.0
O157 O 0.11061 0.50042 0.37333 0.0
O158 O 0.15129 0.47275 0.29969 0.0
O159 O 0.10795 0.43926 0.37003 0.0
O160 O 0.13684 0.44088 0.34425 0.0
C161 C 0.12662 0.51125 0.36228 0.0
C162 C 0.07497 0.4723 0.31493 0.0
O163 O 0.09622 0.47154 0.30785 0.0
O164 O 0.07061 0.47249 0.33672 0.0
C165 C 0.14829 0.48893 0.28457 0.0
O166 O 0.13047 0.50346 0.28704 0.0
C167 C 0.12613 0.43032 0.36089 0.0
Zn168 Zn 0.51068 0.91263 0.65936 0.0
Zn169 Zn 0.51617 0.88192 0.69003 0.0
O170 O 0.48256 0.87536 0.67702 0.0
O171 O 0.47597 0.90771 0.65704 0.0
O172 O 0.51893 0.85728 0.715 0.0
O173 O 0.53168 0.89587 0.63683 0.0
O174 O 0.54316 0.87392 0.66655 0.0
C175 C 0.46861 0.88836 0.66518 0.0
C176 C 0.52376 0.93396 0.70157 0.0
O177 O 0.51985 0.91311 0.70883 0.0
O178 O 0.52322 0.93819 0.67977 0.0
C179 C 0.50599 0.85921 0.7331 0.0
O180 O 0.49195 0.87749 0.73496 0.0
C181 C 0.54519 0.88029 0.64515 0.0
Zn182 Zn 0.10934 0.51842 0.64265 0.0
Zn183 Zn 0.13592 0.5193 0.67995 0.0
O184 O 0.14546 0.48795 0.664 0.0
O185 O 0.12234 0.48716 0.63307 0.0
O186 O 0.1563 0.51887 0.7086 0.0
O187 O 0.12394 0.54759 0.63035 0.0
O188 O 0.14524 0.55035 0.66265 0.0
C189 C 0.13814 0.47763 0.64552 0.0
C190 C 0.08219 0.51909 0.68477 0.0
O191 O 0.10249 0.5183 0.69423 0.0
O192 O 0.08032 0.52009 0.66263 0.0
C193 C 0.15289 0.50233 0.72324 0.0
O194 O 0.13623 0.48687 0.71904 0.0
C195 C 0.13892 0.5584 0.6427 0.0
Zn196 Zn 0.47191 0.09076 0.67095 0.0
Zn197 Zn 0.47766 0.12595 0.69819 0.0
O198 O 0.50719 0.12831 0.67714 0.0
O199 O 0.50396 0.09575 0.65659 0.0
O200 O 0.48171 0.15317 0.71996 0.0
O201 O 0.44347 0.10458 0.65626 0.0
O202 O 0.44629 0.13413 0.68093 0.0
C203 C 0.51541 0.11411 0.66189 0.0
C204 C 0.4728 0.07576 0.71791 0.0
O205 O 0.47821 0.09728 0.72115 0.0
O206 O 0.46778 0.06858 0.6975 0.0
C207 C 0.49875 0.15312 0.73439 0.0
O208 O 0.51333 0.13517 0.73457 0.0
C209 C 0.43546 0.1237 0.66428 0.0
Zn210 Zn 0.9095 0.45181 0.65615 0.0
Zn211 Zn 0.88103 0.45538 0.69168 0.0
O212 O 0.87283 0.48532 0.67314 0.0
O213 O 0.89614 0.48189 0.64254 0.0
O214 O 0.85936 0.45798 0.71916 0.0
O215 O 0.89643 0.42075 0.64722 0.0
O216 O 0.87006 0.42443 0.67529 0.0
C217 C 0.88046 0.4932 0.65363 0.0
C218 C 0.93489 0.45521 0.69859 0.0
O219 O 0.91424 0.45681 0.70717 0.0
O220 O 0.93769 0.45258 0.67673 0.0
C221 C 0.86317 0.47373 0.73452 0.0
O222 O 0.88165 0.48744 0.73226 0.0
C223 C 0.87872 0.41292 0.65813 0.0
Zn224 Zn 0.32227 0.53939 0.08598 0.0
Zn225 Zn 0.29597 0.53381 0.12251 0.0
O226 O 0.31567 0.50355 0.12358 0.0
O227 O 0.33663 0.50719 0.09135 0.0
O228 O 0.27481 0.52973 0.15018 0.0
O229 O 0.33708 0.56815 0.09901 0.0
O230 O 0.31528 0.56396 0.13068 0.0
C231 C 0.33086 0.49537 0.10934 0.0
C232 C 0.27458 0.53886 0.07291 0.0
O233 O 0.27207 0.53421 0.09467 0.0
O234 O 0.29485 0.54307 0.06479 0.0
C235 C 0.26061 0.51248 0.14986 0.0
O236 O 0.26046 0.49839 0.13156 0.0
C237 C 0.33089 0.57522 0.11913 0.0
Zn238 Zn 0.33565 0.48956 0.91571 0.0
Zn239 Zn 0.30493 0.48091 0.88517 0.0
O240 O 0.31683 0.51433 0.87629 0.0
O241 O 0.33808 0.52351 0.90712 0.0
O242 O 0.28018 0.47608 0.86066 0.0
O243 O 0.35828 0.46709 0.90129 0.0
O244 O 0.32933 0.45417 0.87905 0.0
C245 C 0.32912 0.52928 0.88761 0.0
C246 C 0.29306 0.47767 0.93756 0.0
O247 O 0.28596 0.47901 0.91636 0.0
O248 O 0.31478 0.47965 0.942 0.0
C249 C 0.26228 0.48944 0.86164 0.0
O250 O 0.26061 0.50465 0.87895 0.0
C251 C 0.35055 0.45271 0.88622 0.0
Zn252 Zn 0.53266 0.34515 0.9191 0.0
Zn253 Zn 0.52977 0.31913 0.88195 0.0
O254 O 0.49824 0.33661 0.87997 0.0
O255 O 0.49954 0.35686 0.91284 0.0
O256 O 0.52827 0.29719 0.85453 0.0
O257 O 0.56054 0.36228 0.90692 0.0
O258 O 0.5586 0.34072 0.87485 0.0
C259 C 0.48862 0.35074 0.89441 0.0
C260 C 0.53471 0.29767 0.93179 0.0
O261 O 0.53082 0.29538 0.90987 0.0
O262 O 0.53773 0.31797 0.94035 0.0
C263 C 0.51222 0.28165 0.85527 0.0
O264 O 0.49767 0.28144 0.87322 0.0
C265 C 0.56843 0.35693 0.88687 0.0
Zn266 Zn 0.66077 0.54616 0.89488 0.0
Zn267 Zn 0.69582 0.53693 0.86735 0.0
O268 O 0.67465 0.50825 0.86156 0.0
O269 O 0.64373 0.51721 0.88293 0.0
O270 O 0.7232 0.53019 0.84648 0.0
O271 O 0.65575 0.57743 0.88028 0.0
O272 O 0.68252 0.56842 0.85387 0.0
C273 C 0.6541 0.5033 0.86896 0.0
C274 C 0.70238 0.53934 0.92107 0.0
O275 O 0.71098 0.53626 0.90062 0.0
O276 O 0.68078 0.54409 0.92343 0.0
C277 C 0.7365 0.51286 0.85121 0.0
O278 O 0.73206 0.49998 0.86987 0.0
C279 C 0.66708 0.58258 0.8619 0.0
Zn280 Zn 0.48041 0.63502 0.87563 0.0
Zn281 Zn 0.47846 0.6749 0.85524 0.0
O282 O 0.51022 0.66117 0.84332 0.0
O283 O 0.5127 0.62861 0.86394 0.0
O284 O 0.47757 0.70575 0.83837 0.0
O285 O 0.45342 0.62253 0.85758 0.0
O286 O 0.44743 0.65838 0.8443 0.0
C287 C 0.52156 0.64273 0.84922 0.0
C288 C 0.47729 0.67209 0.90884 0.0
O289 O 0.47953 0.6845 0.89031 0.0
O290 O 0.47566 0.64994 0.90726 0.0
C291 C 0.49344 0.72091 0.8426 0.0
O292 O 0.50949 0.71621 0.85855 0.0
C293 C 0.44113 0.63688 0.84589 0.0
Zn294 Zn 0.64926 0.48383 0.09304 0.0
Zn295 Zn 0.68344 0.48117 0.1213 0.0
O296 O 0.6695 0.51407 0.12899 0.0
O297 O 0.64363 0.51761 0.10058 0.0
O298 O 0.71084 0.47973 0.14325 0.0
O299 O 0.63097 0.45977 0.1104 0.0
O300 O 0.66269 0.45254 0.1314 0.0
C301 C 0.65416 0.5263 0.11812 0.0
C302 C 0.69099 0.47609 0.06809 0.0
O303 O 0.69944 0.47944 0.08856 0.0
O304 O 0.66893 0.47512 0.06532 0.0
C305 C 0.72772 0.49396 0.13985 0.0
O306 O 0.72665 0.50859 0.12199 0.0
C307 C 0.64144 0.44783 0.12594 0.0
Zn308 Zn 0.5227 0.64234 0.1076 0.0
Zn309 Zn 0.51803 0.6839 0.1263 0.0
O310 O 0.4883 0.66626 0.13784 0.0
O311 O 0.49171 0.63189 0.12054 0.0
O312 O 0.51389 0.7155 0.14117 0.0
O313 O 0.55163 0.63636 0.1261 0.0
O314 O 0.55012 0.67249 0.14009 0.0
C315 C 0.48025 0.64577 0.13362 0.0
C316 C 0.52065 0.67837 0.07281 0.0
O317 O 0.51707 0.69134 0.09072 0.0
O318 O 0.52467 0.65662 0.07539 0.0
C319 C 0.49398 0.72562 0.14024 0.0
O320 O 0.47668 0.71547 0.12875 0.0
C321 C 0.56028 0.65255 0.1386 0.0
Zn322 Zn 0.47166 0.34804 0.08205 0.0
Zn323 Zn 0.46797 0.31687 0.11343 0.0
O324 O 0.50105 0.33081 0.11991 0.0
O325 O 0.50605 0.35236 0.08831 0.0
O326 O 0.46656 0.29114 0.13737 0.0
O327 O 0.44873 0.36892 0.09824 0.0
O328 O 0.44012 0.33931 0.12171 0.0
C329 C 0.51414 0.34379 0.10717 0.0
C330 C 0.46215 0.30469 0.06109 0.0
O331 O 0.46571 0.29811 0.08219 0.0
O332 O 0.46139 0.32643 0.0564 0.0
C333 C 0.48144 0.27467 0.13467 0.0
O334 O 0.49596 0.27557 0.11673 0.0
C335 C 0.43636 0.36024 0.11452 0.0
C336 C 0.15699 0.40868 0.38294 0.0
C337 C 0.13518 0.40858 0.3715 0.0
C338 C 0.16151 0.3927 0.40128 0.0
C339 C 0.1437 0.37663 0.40809 0.0
C340 C 0.1233 0.3742 0.39402 0.0
C341 C 0.11921 0.3904 0.37595 0.0
C342 C 0.18392 0.39513 0.41524 0.0
C343 C 0.10414 0.35688 0.40017 0.0
C344 C 0.14503 0.33494 0.46038 0.0
C345 C 0.13268 0.34825 0.47711 0.0
C346 C 0.15035 0.34437 0.43814 0.0
C347 C 0.14297 0.36751 0.43258 0.0
C348 C 0.13185 0.38145 0.44999 0.0
C349 C 0.12689 0.37165 0.47197 0.0
C350 C 0.16264 0.32906 0.42032 0.0
C351 C 0.12384 0.40634 0.44501 0.0
H352 H 0.16935 0.42279 0.37945 0.0
H353 H 0.1024 0.39031 0.3669 0.0
H354 H 0.18057 0.40633 0.43085 0.0
H355 H 0.19016 0.37773 0.42157 0.0
H356 H 0.19804 0.40352 0.40467 0.0
H357 H 0.09157 0.35438 0.38541 0.0
H358 H 0.11174 0.33955 0.40495 0.0
H359 H 0.09419 0.36349 0.4156 0.0
H360 H 0.14976 0.31687 0.46429 0.0
H361 H 0.11773 0.38221 0.48493 0.0
H362 H 0.17396 0.33959 0.40842 0.0
H363 H 0.14927 0.31994 0.40942 0.0
H364 H 0.17359 0.31541 0.42904 0.0
H365 H 0.13867 0.41699 0.43816 0.0
H366 H 0.11674 0.4152 0.4609 0.0
H367 H 0.10987 0.40617 0.43137 0.0
C368 C 0.64955 0.14727 0.43593 0.0
C369 C 0.64968 0.12326 0.44172 0.0
C370 C 0.63793 0.15524 0.41556 0.0
C371 C 0.62609 0.1388 0.40104 0.0
C372 C 0.62864 0.1144 0.40549 0.0
C373 C 0.64046 0.10698 0.42572 0.0
C374 C 0.63669 0.18131 0.41083 0.0
C375 C 0.61669 0.09608 0.39036 0.0
C376 C 0.56477 0.14542 0.37846 0.0
C377 C 0.5683 0.14206 0.35436 0.0
C378 C 0.58382 0.14763 0.39383 0.0
C379 C 0.60701 0.14638 0.38479 0.0
C380 C 0.61056 0.14646 0.36014 0.0
C381 C 0.59103 0.14415 0.34507 0.0
C382 C 0.57904 0.14812 0.41994 0.0
C383 C 0.63496 0.14645 0.34977 0.0
H384 H 0.65702 0.15994 0.44805 0.0
H385 H 0.64111 0.08835 0.4298 0.0
H386 H 0.63469 0.18509 0.3918 0.0
H387 H 0.6213 0.18885 0.42016 0.0
H388 H 0.6527 0.19036 0.41747 0.0
H389 H 0.62216 0.0779 0.39503 0.0
H390 H 0.59733 0.09741 0.39253 0.0
H391 H 0.62075 0.09909 0.37156 0.0
H392 H 0.54708 0.1443 0.38556 0.0
H393 H 0.59377 0.14182 0.32636 0.0
H394 H 0.58999 0.16168 0.42865 0.0
H395 H 0.58369 0.13081 0.42773 0.0
H396 H 0.56025 0.1518 0.4239 0.0
H397 H 0.64739 0.15663 0.36086 0.0
H398 H 0.6349 0.15393 0.33174 0.0
H399 H 0.64152 0.12809 0.34866 0.0
C400 C 0.84728 0.64359 0.44645 0.0
C401 C 0.85845 0.62826 0.46228 0.0
C402 C 0.84401 0.63713 0.42279 0.0
C403 C 0.85228 0.61497 0.41493 0.0
C404 C 0.86171 0.59877 0.43137 0.0
C405 C 0.86461 0.60561 0.45478 0.0
C406 C 0.8332 0.65467 0.40608 0.0
C407 C 0.87054 0.57479 0.42396 0.0
C408 C 0.84625 0.5814 0.35845 0.0
C409 C 0.86934 0.58361 0.35014 0.0
C410 C 0.83879 0.59441 0.37812 0.0
C411 C 0.85493 0.60963 0.38947 0.0
C412 C 0.87684 0.61455 0.3787 0.0
C413 C 0.88382 0.60134 0.35918 0.0
C414 C 0.81484 0.5896 0.38841 0.0
C415 C 0.89437 0.63117 0.38974 0.0
H416 H 0.84224 0.66107 0.45217 0.0
H417 H 0.87278 0.59348 0.46703 0.0
H418 H 0.8473 0.66582 0.39848 0.0
H419 H 0.82385 0.64584 0.39141 0.0
H420 H 0.82068 0.66645 0.41538 0.0
H421 H 0.8759 0.56378 0.43919 0.0
H422 H 0.85673 0.56524 0.41404 0.0
H423 H 0.88597 0.57683 0.41219 0.0
H424 H 0.83497 0.56775 0.35136 0.0
H425 H 0.90159 0.60323 0.35247 0.0
H426 H 0.80733 0.60571 0.39649 0.0
H427 H 0.81644 0.57605 0.40237 0.0
H428 H 0.80247 0.5829 0.37485 0.0
H429 H 0.8856 0.64758 0.39557 0.0
H430 H 0.90879 0.63583 0.37741 0.0
H431 H 0.90227 0.62269 0.40546 0.0
C432 C 0.33142 0.82931 0.42439 0.0
C433 C 0.34892 0.82608 0.44148 0.0
C434 C 0.33723 0.82774 0.40039 0.0
C435 C 0.36103 0.82409 0.39396 0.0
C436 C 0.37697 0.8155 0.41109 0.0
C437 C 0.37057 0.81645 0.43479 0.0
C438 C 0.31881 0.83339 0.38222 0.0
C439 C 0.40208 0.80934 0.405 0.0
C440 C 0.39868 0.83751 0.34095 0.0
C441 C 0.4055 0.86057 0.34654 0.0
C442 C 0.38122 0.82597 0.35426 0.0
C443 C 0.37121 0.83757 0.37393 0.0
C444 C 0.37603 0.86183 0.37754 0.0
C445 C 0.39268 0.87304 0.36344 0.0
C446 C 0.37492 0.80099 0.348 0.0
C447 C 0.3659 0.8755 0.39801 0.0
H448 H 0.31425 0.83587 0.42948 0.0
H449 H 0.38373 0.81288 0.44814 0.0
H450 H 0.3161 0.85269 0.38129 0.0
H451 H 0.32402 0.82694 0.36455 0.0
H452 H 0.30172 0.82533 0.38721 0.0
H453 H 0.41169 0.8016 0.42016 0.0
H454 H 0.40244 0.79651 0.39036 0.0
H455 H 0.41163 0.82538 0.39923 0.0
H456 H 0.40794 0.82795 0.32732 0.0
H457 H 0.39716 0.89121 0.36713 0.0
H458 H 0.3599 0.79413 0.35841 0.0
H459 H 0.39045 0.78944 0.35066 0.0
H460 H 0.37033 0.80003 0.32906 0.0
H461 H 0.34644 0.87556 0.39714 0.0
H462 H 0.37189 0.89411 0.39831 0.0
H463 H 0.3712 0.86721 0.41485 0.0
C464 C 0.13598 0.60146 0.63893 0.0
C465 C 0.14788 0.58066 0.63331 0.0
C466 C 0.1351 0.62016 0.62279 0.0
C467 C 0.14614 0.61759 0.60063 0.0
C468 C 0.16125 0.59817 0.59666 0.0
C469 C 0.16179 0.57977 0.61307 0.0
C470 C 0.11952 0.64098 0.62806 0.0
C471 C 0.17388 0.595 0.57357 0.0
C472 C 0.10884 0.63189 0.54748 0.0
C473 C 0.11988 0.65197 0.53838 0.0
C474 C 0.11698 0.62106 0.568 0.0
C475 C 0.13666 0.6306 0.58 0.0
C476 C 0.14744 0.65137 0.57146 0.0
C477 C 0.13901 0.66176 0.55061 0.0
C478 C 0.1048 0.59894 0.57642 0.0
C479 C 0.16828 0.66223 0.58378 0.0
H480 H 0.12507 0.60203 0.65455 0.0
H481 H 0.17088 0.56356 0.60873 0.0
H482 H 0.127 0.65739 0.62059 0.0
H483 H 0.102 0.63813 0.61991 0.0
H484 H 0.117 0.64329 0.64727 0.0
H485 H 0.18834 0.58191 0.575 0.0
H486 H 0.16119 0.58866 0.56015 0.0
H487 H 0.18126 0.61193 0.5673 0.0
H488 H 0.09399 0.62424 0.53829 0.0
H489 H 0.14762 0.67733 0.54375 0.0
H490 H 0.09851 0.60131 0.59472 0.0
H491 H 0.11737 0.584 0.57639 0.0
H492 H 0.0895 0.59412 0.56527 0.0
H493 H 0.16652 0.66093 0.60316 0.0
H494 H 0.17052 0.68103 0.57888 0.0
H495 H 0.18449 0.65267 0.57866 0.0
C496 C 0.34268 0.16464 0.57095 0.0
C497 C 0.35984 0.16738 0.55348 0.0
C498 C 0.34906 0.16603 0.59482 0.0
C499 C 0.37304 0.16928 0.60079 0.0
C500 C 0.38899 0.17689 0.58326 0.0
C501 C 0.38209 0.17593 0.5597 0.0
C502 C 0.33094 0.16075 0.61338 0.0
C503 C 0.41442 0.18213 0.58887 0.0
C504 C 0.40825 0.15794 0.65623 0.0
C505 C 0.41492 0.13448 0.65234 0.0
C506 C 0.39207 0.16916 0.64115 0.0
C507 C 0.38306 0.15676 0.62149 0.0
C508 C 0.38801 0.13241 0.61906 0.0
C509 C 0.40349 0.12158 0.63474 0.0
C510 C 0.38594 0.19455 0.64571 0.0
C511 C 0.37893 0.11807 0.59854 0.0
H512 H 0.32517 0.15876 0.56621 0.0
H513 H 0.39508 0.17897 0.54607 0.0
H514 H 0.32978 0.14146 0.61614 0.0
H515 H 0.3357 0.16909 0.63038 0.0
H516 H 0.31329 0.16706 0.60782 0.0
H517 H 0.4239 0.18978 0.5736 0.0
H518 H 0.4156 0.19466 0.60373 0.0
H519 H 0.42352 0.16566 0.59415 0.0
H520 H 0.41648 0.16791 0.67023 0.0
H521 H 0.40791 0.10321 0.63209 0.0
H522 H 0.37078 0.2007 0.63505 0.0
H523 H 0.40144 0.20578 0.64187 0.0
H524 H 0.3817 0.19701 0.6646 0.0
H525 H 0.35945 0.11826 0.59825 0.0
H526 H 0.38476 0.09942 0.59926 0.0
H527 H 0.38523 0.12573 0.58174 0.0
C528 C 0.88091 0.37447 0.63848 0.0
C529 C 0.86685 0.39228 0.64801 0.0
C530 C 0.87292 0.36104 0.61949 0.0
C531 C 0.8504 0.36578 0.60994 0.0
C532 C 0.8346 0.38035 0.62253 0.0
C533 C 0.84312 0.39375 0.64149 0.0
C534 C 0.89006 0.34481 0.60734 0.0
C535 C 0.80983 0.38433 0.61397 0.0
C536 C 0.85842 0.37496 0.54507 0.0
C537 C 0.85398 0.35242 0.53619 0.0
C538 C 0.85526 0.38005 0.56886 0.0
C539 C 0.8471 0.36219 0.58426 0.0
C540 C 0.84009 0.34017 0.57494 0.0
C541 C 0.84377 0.33544 0.55093 0.0
C542 C 0.8627 0.40402 0.57775 0.0
C543 C 0.8302 0.32097 0.59033 0.0
H544 H 0.89914 0.37303 0.64395 0.0
H545 H 0.83206 0.4073 0.64912 0.0
H546 H 0.88127 0.3282 0.60216 0.0
H547 H 0.8967 0.3534 0.59112 0.0
H548 H 0.90538 0.3405 0.61871 0.0
H549 H 0.79811 0.38976 0.62862 0.0
H550 H 0.80978 0.39859 0.60064 0.0
H551 H 0.80263 0.3682 0.60563 0.0
H552 H 0.86571 0.38836 0.53363 0.0
H553 H 0.83991 0.31806 0.5441 0.0
H554 H 0.87799 0.40217 0.58975 0.0
H555 H 0.84821 0.41232 0.58779 0.0
H556 H 0.86776 0.41612 0.56327 0.0
H557 H 0.84446 0.30847 0.59501 0.0
H558 H 0.81652 0.31086 0.58071 0.0
H559 H 0.82244 0.328 0.60678 0.0
C560 C 0.55799 0.86594 0.60631 0.0
C561 C 0.56368 0.87083 0.62972 0.0
C562 C 0.57559 0.86309 0.58937 0.0
C563 C 0.59946 0.86569 0.59599 0.0
C564 C 0.60536 0.86831 0.62006 0.0
C565 C 0.58728 0.87075 0.63678 0.0
C566 C 0.56844 0.8598 0.56402 0.0
C567 C 0.6306 0.8709 0.62785 0.0
C568 C 0.64226 0.85652 0.5455 0.0
C569 C 0.64311 0.87931 0.53603 0.0
C570 C 0.62931 0.85184 0.56605 0.0
C571 C 0.61715 0.87044 0.57733 0.0
C572 C 0.6194 0.89371 0.56869 0.0
C573 C 0.63223 0.89781 0.54812 0.0
C574 C 0.62746 0.82684 0.57478 0.0
C575 C 0.60703 0.91417 0.58032 0.0
H576 H 0.53966 0.8658 0.60095 0.0
H577 H 0.59165 0.87461 0.65493 0.0
H578 H 0.57098 0.87658 0.55436 0.0
H579 H 0.57958 0.84628 0.55544 0.0
H580 H 0.5497 0.85451 0.56231 0.0
H581 H 0.6326 0.86753 0.64697 0.0
H582 H 0.64226 0.85873 0.61802 0.0
H583 H 0.63661 0.88911 0.62418 0.0
H584 H 0.65077 0.84216 0.53629 0.0
H585 H 0.63319 0.91554 0.54113 0.0
H586 H 0.6102 0.81943 0.56947 0.0
H587 H 0.6284 0.82616 0.59424 0.0
H588 H 0.64154 0.81551 0.56736 0.0
H589 H 0.58773 0.9123 0.57804 0.0
H590 H 0.61247 0.93138 0.57281 0.0
H591 H 0.61071 0.91432 0.59946 0.0
C592 C 0.36269 0.14796 0.40825 0.0
C593 C 0.3765 0.14988 0.42857 0.0
C594 C 0.37334 0.14776 0.3859 0.0
C595 C 0.39819 0.14917 0.38418 0.0
C596 C 0.41167 0.15409 0.40453 0.0
C597 C 0.40061 0.15449 0.42643 0.0
C598 C 0.35816 0.14392 0.36452 0.0
C599 C 0.43818 0.15616 0.40368 0.0
C600 C 0.4354 0.10868 0.34816 0.0
C601 C 0.44862 0.12489 0.3351 0.0
C602 C 0.41669 0.11609 0.36228 0.0
C603 C 0.41082 0.14031 0.36309 0.0
C604 C 0.42179 0.15614 0.34731 0.0
C605 C 0.44084 0.14829 0.3336 0.0
C606 C 0.4052 0.09838 0.37843 0.0
C607 C 0.41499 0.18177 0.34648 0.0
H608 H 0.34395 0.14474 0.40983 0.0
H609 H 0.4112 0.1566 0.44215 0.0
H610 H 0.36634 0.15142 0.34847 0.0
H611 H 0.35564 0.12476 0.36174 0.0
H612 H 0.3405 0.15192 0.36699 0.0
H613 H 0.44575 0.1618 0.42078 0.0
H614 H 0.44595 0.13887 0.39896 0.0
H615 H 0.44359 0.16901 0.39006 0.0
H616 H 0.44083 0.0904 0.34882 0.0
H617 H 0.45057 0.16086 0.32307 0.0
H618 H 0.38578 0.0999 0.37753 0.0
H619 H 0.41058 0.10194 0.39685 0.0
H620 H 0.41019 0.08 0.37403 0.0
H621 H 0.39609 0.18427 0.3507 0.0
H622 H 0.41864 0.18942 0.32888 0.0
H623 H 0.42552 0.19169 0.35956 0.0
C624 C 0.8397 0.37934 0.41194 0.0
C625 C 0.85513 0.36025 0.41017 0.0
C626 C 0.83949 0.39699 0.3947 0.0
C627 C 0.85529 0.39541 0.37553 0.0
C628 C 0.86808 0.37432 0.37192 0.0
C629 C 0.86801 0.35696 0.38949 0.0
C630 C 0.82513 0.4189 0.399 0.0
C631 C 0.88451 0.37156 0.3513 0.0
C632 C 0.85986 0.44775 0.33374 0.0
C633 C 0.87806 0.46072 0.34431 0.0
C634 C 0.85245 0.42609 0.34323 0.0
C635 C 0.86332 0.41745 0.3639 0.0
C636 C 0.8819 0.43036 0.37439 0.0
C637 C 0.88904 0.4517 0.36444 0.0
C638 C 0.83271 0.41285 0.33144 0.0
C639 C 0.8941 0.42187 0.39646 0.0
H640 H 0.82992 0.38193 0.42809 0.0
H641 H 0.88012 0.34226 0.38827 0.0
H642 H 0.83664 0.43274 0.40658 0.0
H643 H 0.81774 0.42579 0.38233 0.0
H644 H 0.81049 0.41556 0.41149 0.0
H645 H 0.88867 0.35276 0.34795 0.0
H646 H 0.87682 0.37938 0.33517 0.0
H647 H 0.90123 0.38092 0.3551 0.0
H648 H 0.85129 0.45457 0.31814 0.0
H649 H 0.90315 0.4615 0.37273 0.0
H650 H 0.81614 0.41584 0.3413 0.0
H651 H 0.83616 0.39363 0.33139 0.0
H652 H 0.82997 0.41884 0.31306 0.0
H653 H 0.88116 0.4202 0.41096 0.0
H654 H 0.90833 0.43395 0.40225 0.0
H655 H 0.90189 0.40422 0.39347 0.0
C656 C 0.53531 0.86416 0.38056 0.0
C657 C 0.53036 0.85912 0.35697 0.0
C658 C 0.55769 0.86025 0.39001 0.0
C659 C 0.57569 0.85089 0.37555 0.0
C660 C 0.57024 0.84365 0.35236 0.0
C661 C 0.54758 0.84796 0.34325 0.0
C662 C 0.56251 0.86807 0.41494 0.0
C663 C 0.58864 0.8329 0.33658 0.0
C664 C 0.63115 0.88035 0.39517 0.0
C665 C 0.63862 0.86493 0.41286 0.0
C666 C 0.61227 0.87457 0.3805 0.0
C667 C 0.6005 0.85286 0.38377 0.0
C668 C 0.61008 0.83592 0.39937 0.0
C669 C 0.62914 0.84221 0.41392 0.0
C670 C 0.60307 0.89303 0.36374 0.0
C671 C 0.59866 0.8122 0.40261 0.0
H672 H 0.52195 0.87231 0.39145 0.0
H673 H 0.54383 0.84374 0.32506 0.0
H674 H 0.57118 0.85377 0.425 0.0
H675 H 0.57464 0.88338 0.41479 0.0
H676 H 0.5462 0.87325 0.42436 0.0
H677 H 0.58044 0.82162 0.3229 0.0
H678 H 0.59844 0.84714 0.32753 0.0
H679 H 0.60147 0.82225 0.34673 0.0
H680 H 0.63876 0.89783 0.39419 0.0
H681 H 0.63498 0.83022 0.42755 0.0
H682 H 0.58671 0.90083 0.37102 0.0
H683 H 0.59867 0.88508 0.34651 0.0
H684 H 0.61599 0.90742 0.36089 0.0
H685 H 0.58369 0.81389 0.415 0.0
H686 H 0.61125 0.7992 0.41002 0.0
H687 H 0.59168 0.80541 0.38572 0.0
C688 C 0.14964 0.6375 0.41921 0.0
C689 C 0.12728 0.64741 0.4162 0.0
C690 C 0.1563 0.61752 0.40621 0.0
C691 C 0.1401 0.60749 0.39015 0.0
C692 C 0.11919 0.61983 0.38452 0.0
C693 C 0.11296 0.63961 0.39777 0.0
C694 C 0.17924 0.60548 0.41191 0.0
C695 C 0.10169 0.61024 0.36701 0.0
C696 C 0.14661 0.55031 0.35602 0.0
C697 C 0.13412 0.53479 0.37064 0.0
C698 C 0.15042 0.57384 0.36276 0.0
C699 C 0.14134 0.58195 0.38447 0.0
C700 C 0.13026 0.56583 0.39994 0.0
C701 C 0.12687 0.54252 0.39285 0.0
C702 C 0.16284 0.59019 0.34598 0.0
C703 C 0.12047 0.57352 0.42342 0.0
H704 H 0.16075 0.64357 0.43348 0.0
H705 H 0.09573 0.64747 0.39537 0.0
H706 H 0.17602 0.59129 0.42492 0.0
H707 H 0.187 0.59731 0.39599 0.0
H708 H 0.19213 0.618 0.41959 0.0
H709 H 0.08848 0.62368 0.36182 0.0
H710 H 0.11077 0.60385 0.35101 0.0
H711 H 0.09225 0.59509 0.37494 0.0
H712 H 0.15247 0.54443 0.33888 0.0
H713 H 0.1176 0.53055 0.40444 0.0
H714 H 0.17264 0.60418 0.35543 0.0
H715 H 0.14964 0.59879 0.33446 0.0
H716 H 0.17529 0.58038 0.33455 0.0
H717 H 0.13423 0.58257 0.43386 0.0
H718 H 0.11364 0.55851 0.4339 0.0
H719 H 0.10587 0.5862 0.42063 0.0
C720 C 0.39823 0.85108 0.56584 0.0
C721 C 0.37368 0.85234 0.56408 0.0
C722 C 0.40951 0.85225 0.5876 0.0
C723 C 0.39586 0.85437 0.60831 0.0
C724 C 0.37099 0.85276 0.60688 0.0
C725 C 0.3601 0.85194 0.58464 0.0
C726 C 0.43609 0.85364 0.58808 0.0
C727 C 0.35576 0.85368 0.62853 0.0
C728 C 0.43974 0.85574 0.65766 0.0
C729 C 0.4452 0.87982 0.65756 0.0
C730 C 0.4209 0.84709 0.64411 0.0
C731 C 0.40781 0.86287 0.62996 0.0
C732 C 0.41119 0.88741 0.63259 0.0
C733 C 0.42977 0.89557 0.6465 0.0
C734 C 0.41669 0.82092 0.64307 0.0
C735 C 0.39727 0.90501 0.61834 0.0
H736 H 0.4088 0.8507 0.54998 0.0
H737 H 0.34107 0.85255 0.58341 0.0
H738 H 0.44165 0.87135 0.59415 0.0
H739 H 0.44339 0.84054 0.60053 0.0
H740 H 0.44403 0.85044 0.57053 0.0
H741 H 0.33958 0.84299 0.62605 0.0
H742 H 0.36523 0.84725 0.64434 0.0
H743 H 0.35018 0.87211 0.63172 0.0
H744 H 0.45121 0.84346 0.66668 0.0
H745 H 0.43342 0.9143 0.64701 0.0
H746 H 0.42676 0.81331 0.62821 0.0
H747 H 0.39777 0.81697 0.6402 0.0
H748 H 0.42264 0.81214 0.65947 0.0
H749 H 0.40249 0.90375 0.59959 0.0
H750 H 0.40026 0.92337 0.62433 0.0
H751 H 0.37819 0.90115 0.61945 0.0
C752 C 0.13998 0.44431 0.61739 0.0
C753 C 0.14638 0.45372 0.63921 0.0
C754 C 0.14361 0.42056 0.61221 0.0
C755 C 0.15427 0.40571 0.6292 0.0
C756 C 0.16273 0.41551 0.65047 0.0
C757 C 0.15853 0.43946 0.65533 0.0
C758 C 0.13444 0.41112 0.58909 0.0
C759 C 0.17498 0.4007 0.66875 0.0
C760 C 0.1247 0.34868 0.61826 0.0
C761 C 0.13831 0.34069 0.59939 0.0
C762 C 0.13186 0.36817 0.6315 0.0
C763 C 0.15302 0.37981 0.62544 0.0
C764 C 0.16886 0.36889 0.60964 0.0
C765 C 0.16122 0.34934 0.59654 0.0
C766 C 0.11487 0.37854 0.64903 0.0
C767 C 0.19231 0.37987 0.60399 0.0
H768 H 0.13105 0.45531 0.60462 0.0
H769 H 0.16381 0.44665 0.67216 0.0
H770 H 0.14869 0.40201 0.5794 0.0
H771 H 0.12024 0.39813 0.59237 0.0
H772 H 0.12726 0.42522 0.5776 0.0
H773 H 0.18854 0.41118 0.67812 0.0
H774 H 0.16193 0.3948 0.68199 0.0
H775 H 0.18345 0.38492 0.66099 0.0
H776 H 0.10711 0.34166 0.62069 0.0
H777 H 0.17192 0.34299 0.5821 0.0
H778 H 0.10577 0.39384 0.64096 0.0
H779 H 0.12434 0.38488 0.66483 0.0
H780 H 0.10133 0.36557 0.65455 0.0
H781 H 0.18989 0.39363 0.59036 0.0
H782 H 0.20485 0.36657 0.59707 0.0
H783 H 0.20005 0.38835 0.61978 0.0
C784 C 0.54699 0.14205 0.64845 0.0
C785 C 0.53772 0.11918 0.64944 0.0
C786 C 0.56646 0.14724 0.63405 0.0
C787 C 0.57683 0.12909 0.62051 0.0
C788 C 0.56849 0.10572 0.62275 0.0
C789 C 0.54903 0.10109 0.63709 0.0
C790 C 0.57493 0.17233 0.63228 0.0
C791 C 0.57917 0.08572 0.60887 0.0
C792 C 0.60125 0.1358 0.55953 0.0
C793 C 0.62509 0.1308 0.56321 0.0
C794 C 0.58566 0.13791 0.57844 0.0
C795 C 0.5941 0.1345 0.6016 0.0
C796 C 0.6186 0.1318 0.60553 0.0
C797 C 0.63393 0.13008 0.58618 0.0
C798 C 0.55978 0.14126 0.57338 0.0
C799 C 0.62832 0.12839 0.62996 0.0
H800 H 0.53841 0.1561 0.65806 0.0
H801 H 0.54223 0.08329 0.63808 0.0
H802 H 0.59443 0.17309 0.63183 0.0
H803 H 0.56835 0.18021 0.61569 0.0
H804 H 0.56851 0.18322 0.64717 0.0
H805 H 0.57212 0.06831 0.61429 0.0
H806 H 0.5754 0.08823 0.5899 0.0
H807 H 0.59856 0.08551 0.61105 0.0
H808 H 0.59449 0.13655 0.54171 0.0
H809 H 0.65238 0.12613 0.58901 0.0
H810 H 0.55201 0.15436 0.58555 0.0
H811 H 0.55041 0.12435 0.5761 0.0
H812 H 0.55661 0.14716 0.55503 0.0
H813 H 0.61939 0.14014 0.64271 0.0
H814 H 0.64757 0.13176 0.6306 0.0
H815 H 0.62516 0.10998 0.63562 0.0
C816 C 0.87941 0.52342 0.62192 0.0
C817 C 0.87179 0.51589 0.64409 0.0
C818 C 0.87305 0.54549 0.61306 0.0
C819 C 0.85858 0.56056 0.62665 0.0
C820 C 0.84995 0.55275 0.64865 0.0
C821 C 0.85674 0.53049 0.65717 0.0
C822 C 0.88261 0.55296 0.58941 0.0
C823 C 0.83437 0.56814 0.66361 0.0
C824 C 0.87387 0.62128 0.60673 0.0
C825 C 0.85845 0.62365 0.58771 0.0
C826 C 0.87195 0.60218 0.62218 0.0
C827 C 0.85441 0.58497 0.61811 0.0
C828 C 0.8367 0.58928 0.60111 0.0
C829 C 0.83896 0.6087 0.58596 0.0
C830 C 0.89084 0.59866 0.6405 0.0
C831 C 0.8173 0.57174 0.5967 0.0
H832 H 0.89084 0.51222 0.61156 0.0
H833 H 0.85069 0.5248 0.67432 0.0
H834 H 0.86799 0.55818 0.57758 0.0
H835 H 0.89426 0.56848 0.59157 0.0
H836 H 0.89285 0.53878 0.5807 0.0
H837 H 0.82449 0.55766 0.6768 0.0
H838 H 0.84542 0.58107 0.67317 0.0
H839 H 0.82166 0.57815 0.65269 0.0
H840 H 0.88899 0.63287 0.60797 0.0
H841 H 0.82714 0.61047 0.5711 0.0
H842 H 0.90394 0.58576 0.63388 0.0
H843 H 0.88328 0.59151 0.65697 0.0
H844 H 0.90018 0.61535 0.64453 0.0
H845 H 0.82418 0.55719 0.58566 0.0
H846 H 0.80223 0.57995 0.58733 0.0
H847 H 0.81093 0.56399 0.61343 0.0
C848 C 0.35602 0.46193 0.09623 0.0
C849 C 0.34225 0.47234 0.11381 0.0
C850 C 0.36837 0.44103 0.10041 0.0
C851 C 0.36707 0.43023 0.12282 0.0
C852 C 0.35241 0.44005 0.14037 0.0
C853 C 0.34012 0.46102 0.13564 0.0
C854 C 0.38363 0.43106 0.08107 0.0
C855 C 0.35053 0.42902 0.16441 0.0
C856 C 0.39398 0.36943 0.12024 0.0
C857 C 0.41761 0.37501 0.12432 0.0
C858 C 0.3765 0.38687 0.12204 0.0
C859 C 0.38304 0.41017 0.1281 0.0
C860 C 0.40653 0.41502 0.13482 0.0
C861 C 0.42359 0.39739 0.1326 0.0
C862 C 0.35162 0.38094 0.11498 0.0
C863 C 0.41426 0.43948 0.14175 0.0
H864 H 0.35752 0.47036 0.07921 0.0
H865 H 0.32941 0.46889 0.14929 0.0
H866 H 0.40241 0.43214 0.08629 0.0
H867 H 0.37942 0.41223 0.07816 0.0
H868 H 0.38137 0.44063 0.06419 0.0
H869 H 0.33566 0.43644 0.17468 0.0
H870 H 0.34822 0.40969 0.16301 0.0
H871 H 0.36706 0.4322 0.1743 0.0
H872 H 0.38948 0.35213 0.11358 0.0
H873 H 0.44196 0.40161 0.13565 0.0
H874 H 0.34853 0.38696 0.09669 0.0
H875 H 0.33872 0.39006 0.12643 0.0
H876 H 0.34831 0.36169 0.11576 0.0
H877 H 0.41502 0.45077 0.12585 0.0
H878 H 0.43193 0.43944 0.1501 0.0
H879 H 0.40148 0.44753 0.15408 0.0
C880 C 0.39758 0.64096 0.84158 0.0
C881 C 0.4183 0.62839 0.83705 0.0
C882 C 0.3759 0.62906 0.843 0.0
C883 C 0.37547 0.60426 0.84054 0.0
C884 C 0.39559 0.59253 0.83173 0.0
C885 C 0.41681 0.60484 0.82999 0.0
C886 C 0.35417 0.64252 0.85003 0.0
C887 C 0.39579 0.56625 0.82773 0.0
C888 C 0.35135 0.56686 0.88923 0.0
C889 C 0.33583 0.55214 0.87699 0.0
C890 C 0.36279 0.58547 0.87797 0.0
C891 C 0.35804 0.59004 0.85392 0.0
C892 C 0.34005 0.57724 0.84236 0.0
C893 C 0.32936 0.55813 0.85393 0.0
C894 C 0.38174 0.59857 0.89132 0.0
C895 C 0.33305 0.58248 0.81734 0.0
H896 H 0.39859 0.65935 0.84654 0.0
H897 H 0.43282 0.59533 0.82578 0.0
H898 H 0.33803 0.63393 0.84314 0.0
H899 H 0.3529 0.64315 0.86946 0.0
H900 H 0.35495 0.66093 0.84349 0.0
H901 H 0.41218 0.56027 0.81892 0.0
H902 H 0.39432 0.55699 0.84485 0.0
H903 H 0.38057 0.56096 0.81678 0.0
H904 H 0.35599 0.5628 0.90726 0.0
H905 H 0.31687 0.54724 0.84448 0.0
H906 H 0.37826 0.61775 0.89093 0.0
H907 H 0.39912 0.59552 0.88296 0.0
H908 H 0.38293 0.59299 0.90999 0.0
H909 H 0.33885 0.6002 0.81154 0.0
H910 H 0.31364 0.58126 0.81542 0.0
H911 H 0.34085 0.56908 0.80551 0.0
C912 C 0.45494 0.35957 0.86714 0.0
C913 C 0.46499 0.36065 0.88965 0.0
C914 C 0.43362 0.37115 0.86218 0.0
C915 C 0.42216 0.38395 0.88018 0.0
C916 C 0.43152 0.38378 0.90325 0.0
C917 C 0.45281 0.37222 0.90766 0.0
C918 C 0.42413 0.37078 0.83742 0.0
C919 C 0.41976 0.39699 0.92308 0.0
C920 C 0.38971 0.44094 0.87193 0.0
C921 C 0.36672 0.43438 0.87779 0.0
C922 C 0.4076 0.42414 0.87011 0.0
C923 C 0.40239 0.40023 0.87474 0.0
C924 C 0.37872 0.39323 0.87843 0.0
C925 C 0.36101 0.41051 0.87983 0.0
C926 C 0.43248 0.43238 0.8657 0.0
C927 C 0.37243 0.36789 0.88316 0.0
H928 H 0.46417 0.35049 0.85316 0.0
H929 H 0.46023 0.37277 0.92521 0.0
H930 H 0.40475 0.36844 0.83741 0.0
H931 H 0.42798 0.38785 0.82878 0.0
H932 H 0.43223 0.35653 0.82678 0.0
H933 H 0.42805 0.39325 0.94037 0.0
H934 H 0.42088 0.4162 0.91974 0.0
H935 H 0.40084 0.3923 0.92411 0.0
H936 H 0.394 0.45946 0.87022 0.0
H937 H 0.34321 0.4055 0.88449 0.0
H938 H 0.4414 0.42078 0.85282 0.0
H939 H 0.44263 0.43158 0.88235 0.0
H940 H 0.43303 0.45076 0.85904 0.0
H941 H 0.38261 0.35588 0.87165 0.0
H942 H 0.35334 0.3646 0.88052 0.0
H943 H 0.3769 0.36351 0.90164 0.0
C944 C 0.61946 0.47643 0.86916 0.0
C945 C 0.64302 0.48044 0.86312 0.0
C946 C 0.60959 0.45392 0.86758 0.0
C947 C 0.62363 0.43486 0.85978 0.0
C948 C 0.64684 0.43911 0.85183 0.0
C949 C 0.65631 0.46191 0.85362 0.0
C950 C 0.58463 0.45027 0.87601 0.0
C951 C 0.66224 0.41938 0.84302 0.0
C952 C 0.60419 0.38096 0.89263 0.0
C953 C 0.58748 0.37159 0.87717 0.0
C954 C 0.61807 0.40022 0.88615 0.0
C955 C 0.61497 0.41047 0.86369 0.0
C956 C 0.60004 0.39941 0.84707 0.0
C957 C 0.5864 0.37994 0.85402 0.0
C958 C 0.63411 0.4111 0.90432 0.0
C959 C 0.59667 0.40948 0.82278 0.0
H960 H 0.60893 0.49072 0.87613 0.0
H961 H 0.6745 0.46489 0.84872 0.0
H962 H 0.57441 0.44007 0.8629 0.0
H963 H 0.58481 0.44 0.8926 0.0
H964 H 0.57539 0.46718 0.8793 0.0
H965 H 0.67722 0.42613 0.83245 0.0
H966 H 0.6695 0.40955 0.85823 0.0
H967 H 0.65199 0.40678 0.8322 0.0
H968 H 0.60521 0.37427 0.91046 0.0
H969 H 0.57348 0.37268 0.84203 0.0
H970 H 0.62618 0.42773 0.9108 0.0
H971 H 0.65144 0.41548 0.89651 0.0
H972 H 0.63697 0.39926 0.9196 0.0
H973 H 0.58421 0.42449 0.82369 0.0
H974 H 0.5893 0.39619 0.8105 0.0
H975 H 0.61352 0.41618 0.81558 0.0
C976 C 0.65058 0.59964 0.82537 0.0
C977 C 0.65869 0.603 0.84837 0.0
C978 C 0.63137 0.61282 0.81697 0.0
C979 C 0.62017 0.62897 0.83225 0.0
C980 C 0.63178 0.63588 0.85316 0.0
C981 C 0.65107 0.62272 0.86099 0.0
C982 C 0.62067 0.60658 0.79357 0.0
C983 C 0.62121 0.65385 0.86958 0.0
C984 C 0.55862 0.65516 0.82811 0.0
C985 C 0.54574 0.63819 0.84062 0.0
C986 C 0.58276 0.65182 0.82343 0.0
C987 C 0.59408 0.63117 0.83164 0.0
C988 C 0.58061 0.61332 0.84273 0.0
C989 C 0.55669 0.617 0.84683 0.0
C990 C 0.59609 0.67043 0.81001 0.0
C991 C 0.59163 0.59081 0.85182 0.0
H992 H 0.65681 0.58469 0.8153 0.0
H993 H 0.65786 0.62568 0.87857 0.0
H994 H 0.60706 0.59282 0.79611 0.0
H995 H 0.61211 0.62216 0.78547 0.0
H996 H 0.63419 0.59955 0.78135 0.0
H997 H 0.63441 0.6605 0.88237 0.0
H998 H 0.61387 0.66897 0.85969 0.0
H999 H 0.60661 0.64558 0.87958 0.0
H1000 H 0.5501 0.67136 0.82274 0.0
H1001 H 0.54677 0.60353 0.85598 0.0
H1002 H 0.5993 0.66402 0.79188 0.0
H1003 H 0.61351 0.67397 0.81806 0.0
H1004 H 0.5861 0.68721 0.8089 0.0
H1005 H 0.60041 0.58124 0.83731 0.0
H1006 H 0.57851 0.57878 0.85989 0.0
H1007 H 0.60514 0.59495 0.86527 0.0
C1008 C 0.6591 0.56152 0.14477 0.0
C1009 C 0.64733 0.5501 0.12631 0.0
C1010 C 0.65136 0.5836 0.15302 0.0
C1011 C 0.63109 0.59406 0.14292 0.0
C1012 C 0.6196 0.58275 0.12388 0.0
C1013 C 0.62799 0.56116 0.11577 0.0
C1014 C 0.66458 0.5951 0.17292 0.0
C1015 C 0.59781 0.59294 0.11242 0.0
C1016 C 0.58236 0.62917 0.16708 0.0
C1017 C 0.58256 0.64737 0.1505 0.0
C1018 C 0.60117 0.61327 0.16841 0.0
C1019 C 0.62022 0.61582 0.15262 0.0
C1020 C 0.62272 0.63713 0.13997 0.0
C1021 C 0.60353 0.6527 0.13877 0.0
C1022 C 0.59844 0.59148 0.18328 0.0
C1023 C 0.64371 0.64136 0.12438 0.0
H1024 H 0.67419 0.55318 0.15292 0.0
H1025 H 0.6188 0.55259 0.10144 0.0
H1026 H 0.66207 0.61446 0.17326 0.0
H1027 H 0.65827 0.58774 0.18984 0.0
H1028 H 0.68371 0.59124 0.17164 0.0
H1029 H 0.59098 0.58168 0.09799 0.0
H1030 H 0.58363 0.59501 0.12565 0.0
H1031 H 0.60171 0.61055 0.10501 0.0
H1032 H 0.56616 0.62527 0.17638 0.0
H1033 H 0.60379 0.66696 0.12611 0.0
H1034 H 0.61556 0.58621 0.191 0.0
H1035 H 0.5921 0.57678 0.17209 0.0
H1036 H 0.58553 0.59421 0.19768 0.0
H1037 H 0.6599 0.63377 0.13226 0.0
H1038 H 0.64641 0.66047 0.12123 0.0
H1039 H 0.64075 0.63272 0.10714 0.0
C1040 C 0.35457 0.61135 0.11458 0.0
C1041 C 0.34441 0.59472 0.12963 0.0
C1042 C 0.3741 0.62453 0.12165 0.0
C1043 C 0.38358 0.62095 0.14439 0.0
C1044 C 0.37103 0.60708 0.16084 0.0
C1045 C 0.35152 0.59387 0.1532 0.0
C1046 C 0.38645 0.63966 0.10365 0.0
C1047 C 0.37974 0.60406 0.18568 0.0
C1048 C 0.44917 0.61538 0.1382 0.0
C1049 C 0.45658 0.63861 0.14184 0.0
C1050 C 0.4256 0.60897 0.14104 0.0
C1051 C 0.40896 0.62615 0.14808 0.0
C1052 C 0.41676 0.64899 0.15429 0.0
C1053 C 0.44054 0.65506 0.1509 0.0
C1054 C 0.41827 0.58427 0.13437 0.0
C1055 C 0.39991 0.66758 0.16291 0.0
H1056 H 0.34866 0.61243 0.09648 0.0
H1057 H 0.34345 0.58127 0.16502 0.0
H1058 H 0.39142 0.65686 0.11136 0.0
H1059 H 0.40286 0.63077 0.09789 0.0
H1060 H 0.37532 0.64289 0.08792 0.0
H1061 H 0.36521 0.59885 0.19765 0.0
H1062 H 0.39329 0.59001 0.18615 0.0
H1063 H 0.38791 0.62052 0.19227 0.0
H1064 H 0.46156 0.60239 0.13175 0.0
H1065 H 0.44619 0.67298 0.15416 0.0
H1066 H 0.40695 0.58486 0.11847 0.0
H1067 H 0.40787 0.57614 0.14869 0.0
H1068 H 0.43358 0.57272 0.13059 0.0
H1069 H 0.39355 0.67809 0.14776 0.0
H1070 H 0.40885 0.67983 0.17522 0.0
H1071 H 0.38443 0.65975 0.17186 0.0
C1072 C 0.63711 0.4051 0.13515 0.0
C1073 C 0.62844 0.42813 0.13649 0.0
C1074 C 0.6216 0.38584 0.13668 0.0
C1075 C 0.59715 0.39005 0.13927 0.0
C1076 C 0.58912 0.41312 0.14416 0.0
C1077 C 0.60491 0.4319 0.14262 0.0
C1078 C 0.631 0.36135 0.1328 0.0
C1079 C 0.56332 0.41846 0.14765 0.0
C1080 C 0.55282 0.36233 0.09894 0.0
C1081 C 0.53804 0.35072 0.11486 0.0
C1082 C 0.57346 0.37337 0.10645 0.0
C1083 C 0.57969 0.37262 0.13056 0.0
C1084 C 0.56624 0.35875 0.14628 0.0
C1085 C 0.54539 0.34803 0.13827 0.0
C1086 C 0.58734 0.3877 0.08886 0.0
C1087 C 0.57275 0.35656 0.17187 0.0
H1088 H 0.6554 0.4022 0.13057 0.0
H1089 H 0.59837 0.44979 0.14399 0.0
H1090 H 0.62069 0.34818 0.14286 0.0
H1091 H 0.62965 0.35684 0.11389 0.0
H1092 H 0.64981 0.36009 0.13799 0.0
H1093 H 0.56043 0.43663 0.15425 0.0
H1094 H 0.55392 0.41657 0.13065 0.0
H1095 H 0.55535 0.40591 0.16025 0.0
H1096 H 0.5476 0.36395 0.08068 0.0
H1097 H 0.53427 0.33871 0.15063 0.0
H1098 H 0.60625 0.38297 0.08964 0.0
H1099 H 0.5858 0.40669 0.09316 0.0
H1100 H 0.58108 0.38505 0.07056 0.0
H1101 H 0.59199 0.35842 0.17465 0.0
H1102 H 0.56693 0.33935 0.17908 0.0
H1103 H 0.56373 0.37058 0.18201 0.0
C1104 C 0.02731 0.2843 0.54152 0.0
C1105 C 0.04814 0.27787 0.53008 0.0
C1106 C 0.00539 0.27992 0.53125 0.0
C1107 C 0.00442 0.26876 0.50902 0.0
C1108 C 0.0251 0.25856 0.49957 0.0
C1109 C 0.04696 0.26343 0.51016 0.0
C1110 C 0.98375 0.29044 0.5425 0.0
C1111 C 0.02453 0.24503 0.47681 0.0
C1112 C 0.94175 0.27168 0.48652 0.0
C1113 C 0.94206 0.294 0.47594 0.0
C1114 C 0.96264 0.26153 0.49519 0.0
C1115 C 0.98403 0.27424 0.4935 0.0
C1116 C 0.98467 0.29549 0.48046 0.0
C1117 C 0.96373 0.30496 0.47172 0.0
C1118 C 0.96129 0.2382 0.50772 0.0
C1119 C 0.00705 0.30966 0.47781 0.0
H1120 H 0.02827 0.29504 0.55725 0.0
H1121 H 0.06307 0.25812 0.50143 0.0
H1122 H 0.97805 0.30611 0.5323 0.0
H1123 H 0.96906 0.27762 0.54241 0.0
H1124 H 0.98705 0.296 0.56092 0.0
H1125 H 0.03941 0.23238 0.47581 0.0
H1126 H 0.00771 0.23531 0.47481 0.0
H1127 H 0.02617 0.25745 0.46186 0.0
H1128 H 0.92509 0.26288 0.4895 0.0
H1129 H 0.96415 0.32191 0.46296 0.0
H1130 H 0.95567 0.2411 0.52615 0.0
H1131 H 0.9785 0.22896 0.50788 0.0
H1132 H 0.94796 0.22665 0.4993 0.0
H1133 H 0.01282 0.31619 0.49527 0.0
H1134 H 0.00474 0.32506 0.466 0.0
H1135 H 0.02135 0.29853 0.47065 0.0
C1136 C 0.73099 0.04649 0.50982 0.0
C1137 C 0.7076 0.04545 0.51772 0.0
C1138 C 0.74309 0.02577 0.50348 0.0
C1139 C 0.7312 0.00388 0.50454 0.0
C1140 C 0.7087 0.00268 0.51531 0.0
C1141 C 0.69747 0.02343 0.52213 0.0
C1142 C 0.76813 0.02735 0.49483 0.0
C1143 C 0.69511 0.97985 0.51729 0.0
C1144 C 0.72409 0.96067 0.45702 0.0
C1145 C 0.72605 0.94018 0.47054 0.0
C1146 C 0.73009 0.98254 0.46654 0.0
C1147 C 0.73879 0.98354 0.48988 0.0
C1148 C 0.74634 0.9625 0.50088 0.0
C1149 C 0.7394 0.94075 0.49125 0.0
C1150 C 0.72275 0.00446 0.45341 0.0
C1151 C 0.7584 0.96295 0.52443 0.0
H1152 H 0.73928 0.06346 0.50719 0.0
H1153 H 0.67974 0.02245 0.5291 0.0
H1154 H 0.77989 0.0189 0.50792 0.0
H1155 H 0.77045 0.01768 0.47807 0.0
H1156 H 0.77389 0.04586 0.49233 0.0
H1157 H 0.67793 0.98213 0.52631 0.0
H1158 H 0.69165 0.97259 0.49952 0.0
H1159 H 0.70543 0.96666 0.52725 0.0
H1160 H 0.71446 0.96003 0.44056 0.0
H1161 H 0.74166 0.9248 0.50148 0.0
H1162 H 0.73655 0.01817 0.4545 0.0
H1163 H 0.70647 0.0117 0.46141 0.0
H1164 H 0.71916 0.00079 0.43457 0.0
H1165 H 0.76849 0.9795 0.52687 0.0
H1166 H 0.77049 0.94769 0.52627 0.0
H1167 H 0.7451 0.96171 0.53863 0.0
C1168 C 0.96073 0.69058 0.52686 0.0
C1169 C 0.93799 0.69919 0.5229 0.0
C1170 C 0.98051 0.70283 0.51901 0.0
C1171 C 0.97757 0.72472 0.50735 0.0
C1172 C 0.95485 0.73497 0.50608 0.0
C1173 C 0.93517 0.72193 0.51368 0.0
C1174 C 0.00428 0.69098 0.5212 0.0
C1175 C 0.95085 0.75892 0.49541 0.0
C1176 C 0.03994 0.73853 0.49472 0.0
C1177 C 0.04229 0.7246 0.47455 0.0
C1178 C 0.01742 0.74344 0.50379 0.0
C1179 C 0.99746 0.73346 0.49272 0.0
C1180 C -0.00021 0.724 0.46982 0.0
C1181 C 0.02234 0.71971 0.46096 0.0
C1182 C 0.01528 0.75608 0.52694 0.0
C1183 C 0.97887 0.71448 0.45654 0.0
H1184 H 0.96303 0.67334 0.5347 0.0
H1185 H 0.91763 0.72895 0.51102 0.0
H1186 H 0.01156 0.68732 0.50349 0.0
H1187 H 0.01682 0.70261 0.53052 0.0
H1188 H 0.00335 0.67407 0.53096 0.0
H1189 H 0.93827 0.76908 0.50637 0.0
H1190 H 0.96736 0.76919 0.49363 0.0
H1191 H 0.94268 0.75689 0.47781 0.0
H1192 H 0.05539 0.74289 0.50501 0.0
H1193 H 0.02429 0.70953 0.44495 0.0
H1194 H 0.01665 0.7432 0.54154 0.0
H1195 H 0.99803 0.76516 0.52839 0.0
H1196 H 0.02966 0.76914 0.52908 0.0
H1197 H 0.97243 0.69822 0.46525 0.0
H1198 H 0.98332 0.71017 0.43803 0.0
H1199 H 0.96433 0.72747 0.45656 0.0
C1200 C 0.341 0.04406 0.51251 0.0
C1201 C 0.32788 0.06028 0.49935 0.0
C1202 C 0.33599 0.01997 0.51171 0.0
C1203 C 0.31748 0.01177 0.49721 0.0
C1204 C 0.30313 0.02817 0.48508 0.0
C1205 C 0.30846 0.05233 0.48636 0.0
C1206 C 0.35158 0.00318 0.52521 0.0
C1207 C 0.28315 0.02014 0.46958 0.0
C1208 C 0.33331 0.9516 0.47441 0.0
C1209 C 0.32204 0.93691 0.49068 0.0
C1210 C 0.33019 0.97603 0.47502 0.0
C1211 C 0.31564 0.98607 0.49253 0.0
C1212 C 0.30264 0.97121 0.50774 0.0
C1213 C 0.30593 0.94669 0.50657 0.0
C1214 C 0.34409 0.99115 0.45817 0.0
C1215 C 0.28679 0.98123 0.52648 0.0
H1216 H 0.35579 0.05014 0.52292 0.0
H1217 H 0.29819 0.06481 0.47622 0.0
H1218 H 0.34075 0.99059 0.53546 0.0
H1219 H 0.36239 0.99279 0.51272 0.0
H1220 H 0.36361 0.01249 0.53747 0.0
H1221 H 0.27103 0.03483 0.46514 0.0
H1222 H 0.2904 0.01293 0.45298 0.0
H1223 H 0.27294 0.00589 0.47817 0.0
H1224 H 0.34547 0.94406 0.46182 0.0
H1225 H 0.2971 0.93538 0.51913 0.0
H1226 H 0.35844 0.00019 0.46785 0.0
H1227 H 0.3327 0.00492 0.45032 0.0
H1228 H 0.35208 0.98065 0.44377 0.0
H1229 H 0.2977 0.98791 0.54121 0.0
H1230 H 0.27451 0.96776 0.53353 0.0
H1231 H 0.27641 0.99625 0.51956 0.0
C1232 C 0.49296 0.94459 0.26493 0.0
C1233 C 0.47996 0.94568 0.28585 0.0
C1234 C 0.50193 0.96526 0.25459 0.0
C1235 C 0.49802 0.98722 0.26574 0.0
C1236 C 0.48278 0.98842 0.28544 0.0
C1237 C 0.47384 0.96767 0.29506 0.0
C1238 C 0.5168 0.96314 0.23278 0.0
C1239 C 0.47759 0.01137 0.29791 0.0
C1240 C 0.54062 0.0341 0.27981 0.0
C1241 C 0.52737 0.0536 0.27263 0.0
C1242 C 0.53355 0.01129 0.27388 0.0
C1243 C 0.51278 0.00818 0.26047 0.0
C1244 C 0.50261 0.02784 0.24905 0.0
C1245 C 0.50988 0.0506 0.25549 0.0
C1246 C 0.54589 0.99074 0.28533 0.0
C1247 C 0.48187 0.02499 0.23281 0.0
H1248 H 0.49739 0.92762 0.25744 0.0
H1249 H 0.46318 0.96862 0.31083 0.0
H1250 H 0.51869 0.98016 0.22339 0.0
H1251 H 0.53456 0.95664 0.23765 0.0
H1252 H 0.509 0.95002 0.22059 0.0
H1253 H 0.46492 0.00916 0.3126 0.0
H1254 H 0.4941 0.01886 0.30517 0.0
H1255 H 0.47014 0.02436 0.28543 0.0
H1256 H 0.55474 0.03651 0.29242 0.0
H1257 H 0.49997 0.0657 0.24932 0.0
H1258 H 0.54833 0.97624 0.27256 0.0
H1259 H 0.53497 0.98398 0.30003 0.0
H1260 H 0.56338 0.99579 0.29246 0.0
H1261 H 0.48288 0.00809 0.22308 0.0
H1262 H 0.48092 0.03976 0.22004 0.0
H1263 H 0.46537 0.02501 0.24322 0.0
C1264 C 0.97292 0.53899 0.27531 0.0
C1265 C 0.95273 0.52562 0.27087 0.0
C1266 C 0.99528 0.52955 0.27121 0.0
C1267 C 0.99712 0.50633 0.26233 0.0
C1268 C 0.97694 0.49551 0.25252 0.0
C1269 C 0.95463 0.50516 0.25726 0.0
C1270 C 0.0164 0.54249 0.28082 0.0
C1271 C 0.97858 0.47193 0.24057 0.0
C1272 C 0.05847 0.48353 0.27533 0.0
C1273 C 0.05512 0.4753 0.29836 0.0
C1274 C 0.03921 0.49149 0.26185 0.0
C1275 C 0.01639 0.49139 0.27188 0.0
C1276 C 0.01282 0.48066 0.29413 0.0
C1277 C 0.03219 0.47256 0.30687 0.0
C1278 C 0.04334 0.50059 0.2373 0.0
C1279 C 0.98886 0.47967 0.30572 0.0
H1280 H 0.97133 0.55521 0.28524 0.0
H1281 H 0.93897 0.49504 0.25321 0.0
H1282 H 0.02137 0.53481 0.29807 0.0
H1283 H 0.0317 0.54075 0.26889 0.0
H1284 H 0.01265 0.56151 0.28342 0.0
H1285 H 0.96389 0.46951 0.22791 0.0
H1286 H 0.9956 0.47005 0.2312 0.0
H1287 H 0.97741 0.45773 0.25391 0.0
H1288 H 0.07615 0.48501 0.26837 0.0
H1289 H 0.02942 0.46545 0.32434 0.0
H1290 H 0.03432 0.51766 0.23442 0.0
H1291 H 0.0358 0.4879 0.22454 0.0
H1292 H 0.06237 0.50274 0.23338 0.0
H1293 H 0.98225 0.49776 0.30888 0.0
H1294 H 0.98925 0.47027 0.32284 0.0
H1295 H 0.97608 0.47056 0.29418 0.0
C1296 C 0.51671 0.95251 0.74112 0.0
C1297 C 0.52494 0.95417 0.71793 0.0
C1298 C 0.51075 0.97294 0.7538 0.0
C1299 C 0.51229 0.99518 0.7426 0.0
C1300 C 0.52384 0.99689 0.72052 0.0
C1301 C 0.53042 0.97636 0.70877 0.0
C1302 C 0.50113 0.97028 0.77832 0.0
C1303 C 0.52662 0.02007 0.7077 0.0
C1304 C 0.46355 0.03679 0.73418 0.0
C1305 C 0.47642 0.05769 0.73615 0.0
C1306 C 0.4736 0.0153 0.74068 0.0
C1307 C 0.49683 0.01509 0.74977 0.0
C1308 C 0.507 0.03653 0.75736 0.0
C1309 C 0.49688 0.0579 0.74994 0.0
C1310 C 0.46101 0.99289 0.73394 0.0
C1311 C 0.5301 0.03697 0.77033 0.0
H1312 H 0.51323 0.93538 0.74875 0.0
H1313 H 0.53778 0.97772 0.69125 0.0
H1314 H 0.49871 0.98742 0.78735 0.0
H1315 H 0.48405 0.96083 0.77771 0.0
H1316 H 0.51331 0.95926 0.78891 0.0
H1317 H 0.53597 0.0181 0.69067 0.0
H1318 H 0.50909 0.02788 0.7041 0.0
H1319 H 0.53672 0.03265 0.7186 0.0
H1320 H 0.44713 0.03685 0.72443 0.0
H1321 H 0.50651 0.07418 0.75238 0.0
H1322 H 0.46069 0.98058 0.74902 0.0
H1323 H 0.47045 0.98414 0.71926 0.0
H1324 H 0.44258 0.99618 0.7283 0.0
H1325 H 0.53409 0.0197 0.77856 0.0
H1326 H 0.5297 0.05074 0.78416 0.0
H1327 H 0.54452 0.04159 0.75804 0.0
C1328 C 0.95664 0.47895 0.72837 0.0
C1329 C 0.95604 0.45984 0.71283 0.0
C1330 C 0.97822 0.48968 0.73408 0.0
C1331 C -0.00084 0.4812 0.72359 0.0
C1332 C -0.00121 0.45948 0.71139 0.0
C1333 C 0.97713 0.44905 0.70616 0.0
C1334 C 0.97818 0.51169 0.74884 0.0
C1335 C 0.02079 0.44912 0.7007 0.0
C1336 C 0.03875 0.52038 0.6885 0.0
C1337 C 0.06059 0.5157 0.69887 0.0
C1338 C 0.01798 0.51136 0.69806 0.0
C1339 C 0.01906 0.49751 0.71877 0.0
C1340 C 0.04063 0.49556 0.73111 0.0
C1341 C 0.06131 0.50455 0.72088 0.0
C1342 C 0.99535 0.51446 0.68441 0.0
C1343 C 0.04243 0.48233 0.754 0.0
H1344 H 0.94032 0.4871 0.73395 0.0
H1345 H 0.97661 0.43387 0.69463 0.0
H1346 H 0.9951 0.51384 0.75836 0.0
H1347 H 0.97565 0.52725 0.73735 0.0
H1348 H 0.96353 0.51136 0.76175 0.0
H1349 H 0.01788 0.43095 0.69409 0.0
H1350 H 0.02663 0.46025 0.68576 0.0
H1351 H 0.03522 0.44869 0.71379 0.0
H1352 H 0.03804 0.52963 0.67184 0.0
H1353 H 0.07812 0.50129 0.7293 0.0
H1354 H 0.9812 0.52107 0.69605 0.0
H1355 H 0.98958 0.49723 0.67725 0.0
H1356 H 0.99732 0.52695 0.66952 0.0
H1357 H 0.02524 0.48122 0.76319 0.0
H1358 H 0.05542 0.49092 0.7658 0.0
H1359 H 0.04882 0.46421 0.75055 0.0
C1360 C 0.28545 0.47498 0.98023 0.0
C1361 C 0.2764 0.47789 0.95755 0.0
C1362 C 0.27314 0.48308 -0.00016 0.0
C1363 C 0.25066 0.49358 0.99674 0.0
C1364 C 0.23972 0.49258 0.97439 0.0
C1365 C 0.25291 0.48504 0.95482 0.0
C1366 C 0.28574 0.48304 0.02329 0.0
C1367 C 0.21459 0.50051 0.97106 0.0
C1368 C 0.242 0.51402 0.05749 0.0
C1369 C 0.25568 0.53449 0.0557 0.0
C1370 C 0.23483 0.50214 0.03701 0.0
C1371 C 0.24258 0.51058 0.01493 0.0
C1372 C 0.25128 0.53391 0.01328 0.0
C1373 C 0.25741 0.54579 0.03391 0.0
C1374 C 0.22234 0.47888 0.03919 0.0
C1375 C 0.25859 0.54454 0.99006 0.0
H1376 H 0.30324 0.46845 0.98252 0.0
H1377 H 0.24543 0.48639 0.93734 0.0
H1378 H 0.28905 0.50138 0.02909 0.0
H1379 H 0.27483 0.47428 0.03682 0.0
H1380 H 0.30293 0.47375 0.02255 0.0
H1381 H 0.20964 0.50152 0.9522 0.0
H1382 H 0.20276 0.48773 0.97989 0.0
H1383 H 0.21143 0.51787 0.97936 0.0
H1384 H 0.23969 0.50561 0.07444 0.0
H1385 H 0.26708 0.56221 0.03269 0.0
H1386 H 0.2352 0.46485 0.04354 0.0
H1387 H 0.21325 0.47408 0.0226 0.0
H1388 H 0.20927 0.47955 0.05369 0.0
H1389 H 0.27462 0.53549 0.98352 0.0
H1390 H 0.26257 0.56362 0.99166 0.0
H1391 H 0.24456 0.5423 0.97673 0.0
C1392 C 0.51231 0.26198 0.94416 0.0
C1393 C 0.5304 0.27823 0.94845 0.0
C1394 C 0.49948 0.25247 0.96306 0.0
C1395 C 0.50441 0.26041 0.98612 0.0
C1396 C 0.52598 0.27221 0.99044 0.0
C1397 C 0.53895 0.28072 0.97138 0.0
C1398 C 0.47885 0.23663 0.958 0.0
C1399 C 0.53334 0.27948 0.01489 0.0
C1400 C 0.46032 0.29634 0.01848 0.0
C1401 C 0.46398 0.2879 0.04129 0.0
C1402 C 0.47093 0.28544 -0.00078 0.0
C1403 C 0.48474 0.2649 0.00284 0.0
C1404 C 0.48413 0.25365 0.02506 0.0
C1405 C 0.47413 0.26557 0.0443 0.0
C1406 C 0.46996 0.29797 0.97577 0.0
C1407 C 0.49577 0.23019 0.02922 0.0
H1408 H 0.50624 0.25899 0.92635 0.0
H1409 H 0.55378 0.2923 0.9746 0.0
H1410 H 0.47168 0.22849 0.97423 0.0
H1411 H 0.46472 0.24674 0.9491 0.0
H1412 H 0.48434 0.22246 0.94573 0.0
H1413 H 0.55109 0.28769 0.01516 0.0
H1414 H 0.52055 0.29234 0.02214 0.0
H1415 H 0.53366 0.26395 0.02665 0.0
H1416 H 0.45143 0.31305 0.01595 0.0
H1417 H 0.47613 0.25831 0.06181 0.0
H1418 H 0.46338 0.2859 0.96199 0.0
H1419 H 0.48782 0.30394 0.97063 0.0
H1420 H 0.45823 0.31361 0.97611 0.0
H1421 H 0.50207 0.22189 0.01273 0.0
H1422 H 0.48307 0.21811 0.03783 0.0
H1423 H 0.51077 0.23232 0.04154 0.0
C1424 C 0.7327 0.5157 0.9426 0.0
C1425 C 0.71598 0.53386 0.94248 0.0
C1426 C 0.73901 0.50461 0.96381 0.0
C1427 C 0.72793 0.51169 0.98495 0.0
C1428 C 0.71398 0.53237 0.98514 0.0
C1429 C 0.70833 0.54328 0.96386 0.0
C1430 C 0.75553 0.48387 0.96308 0.0
C1431 C 0.70228 0.54116 0.00731 0.0
C1432 C 0.69648 0.47068 0.02527 0.0
C1433 C 0.70596 0.47758 0.04691 0.0
C1434 C 0.70568 0.47931 0.00418 0.0
C1435 C 0.72513 0.49492 0.00482 0.0
C1436 C 0.73721 0.49854 0.02628 0.0
C1437 C 0.72731 0.49001 0.04728 0.0
C1438 C 0.69253 0.47423 0.98166 0.0
C1439 C 0.75914 0.5134 0.02751 0.0
H1440 H 0.7391 0.50864 0.9261 0.0
H1441 H 0.69595 0.55782 0.9638 0.0
H1442 H 0.76397 0.4807 0.98039 0.0
H1443 H 0.74561 0.46785 0.95801 0.0
H1444 H 0.76943 0.48668 0.94965 0.0
H1445 H 0.69347 0.55843 0.0047 0.0
H1446 H 0.68885 0.52826 0.0132 0.0
H1447 H 0.71539 0.54306 0.0216 0.0
H1448 H 0.68042 0.46037 0.02489 0.0
H1449 H 0.73514 0.49491 0.06394 0.0
H1450 H 0.70488 0.46845 0.96776 0.0
H1451 H 0.68368 0.4905 0.9754 0.0
H1452 H 0.67894 0.46037 0.98397 0.0
H1453 H 0.76866 0.51367 0.01049 0.0
H1454 H 0.77115 0.50674 0.04141 0.0
H1455 H 0.75432 0.53173 0.03219 0.0
C1456 C 0.46908 0.67102 0.95161 0.0
C1457 C 0.4792 0.68268 0.93244 0.0
C1458 C 0.47514 0.67701 0.97467 0.0
C1459 C 0.49199 0.69494 0.97865 0.0
C1460 C 0.50047 0.70837 0.95946 0.0
C1461 C 0.49389 0.7021 0.93646 0.0
C1462 C 0.46521 0.66255 0.99462 0.0
C1463 C 0.51809 0.72789 0.96298 0.0
C1464 C 0.50086 0.70503 0.04385 0.0
C1465 C 0.51763 0.68759 0.04874 0.0
C1466 C 0.49365 0.70943 0.02059 0.0
C1467 C 0.50361 0.69613 0.00204 0.0
C1468 C 0.52236 0.6804 0.00682 0.0
C1469 C 0.52903 0.67624 0.03012 0.0
C1470 C 0.47395 0.72667 0.01622 0.0
C1471 C 0.53387 0.6662 0.98756 0.0
H1472 H 0.4574 0.65625 0.94853 0.0
H1473 H 0.50168 0.71124 0.92165 0.0
H1474 H 0.47914 0.65083 0.00171 0.0
H1475 H 0.45923 0.67411 0.00912 0.0
H1476 H 0.45017 0.65144 0.9889 0.0
H1477 H 0.51835 0.74014 0.94776 0.0
H1478 H 0.51423 0.73803 0.97918 0.0
H1479 H 0.53592 0.72018 0.9649 0.0
H1480 H 0.49206 0.71392 0.05823 0.0
H1481 H 0.54229 0.66302 0.03386 0.0
H1482 H 0.45708 0.71694 0.01487 0.0
H1483 H 0.4766 0.73632 -0.00052 0.0
H1484 H 0.47237 0.73958 0.03079 0.0
H1485 H 0.52134 0.6527 0.98108 0.0
H1486 H 0.55004 0.65711 0.99375 0.0
H1487 H 0.53855 0.67765 0.97249 0.0
C1488 C 0.15865 0.22026 0.49498 0.0
C1489 C 0.16117 0.23721 0.51272 0.0
C1490 C 0.17616 0.20325 0.4911 0.0
C1491 C 0.19669 0.20336 0.50518 0.0
C1492 C 0.19911 0.22014 0.52339 0.0
C1493 C 0.1813 0.2368 0.52699 0.0
C1494 C 0.17291 0.18547 0.47167 0.0
C1495 C 0.22081 0.22089 0.53874 0.0
C1496 C 0.23772 0.15105 0.51076 0.0
C1497 C 0.25654 0.15801 0.4964 0.0
C1498 C 0.21751 0.16507 0.51287 0.0
C1499 C 0.2162 0.18662 0.50047 0.0
C1500 C 0.23462 0.19318 0.48508 0.0
C1501 C 0.25454 0.17874 0.48316 0.0
C1502 C 0.19805 0.15736 0.52921 0.0
C1503 C 0.23389 0.21607 0.4716 0.0
H1504 H 0.14311 0.22041 0.48394 0.0
H1505 H 0.1834 0.24981 0.54075 0.0
H1506 H 0.18658 0.1881 0.45801 0.0
H1507 H 0.17513 0.16737 0.47865 0.0
H1508 H 0.15532 0.18684 0.46325 0.0
H1509 H 0.21969 0.23469 0.55251 0.0
H1510 H 0.22348 0.20362 0.54743 0.0
H1511 H 0.23656 0.22437 0.52777 0.0
H1512 H 0.23905 0.13495 0.5209 0.0
H1513 H 0.26894 0.18422 0.47195 0.0
H1514 H 0.18073 0.15869 0.52032 0.0
H1515 H 0.19754 0.16918 0.54472 0.0
H1516 H 0.20053 0.13901 0.53547 0.0
H1517 H 0.21709 0.21767 0.4618 0.0
H1518 H 0.2487 0.21768 0.45896 0.0
H1519 H 0.23478 0.23105 0.48407 0.0
C1520 C 0.74359 0.17898 0.51278 0.0
C1521 C 0.74564 0.15787 0.50018 0.0
C1522 C 0.76084 0.19654 0.51101 0.0
C1523 C 0.78066 0.19283 0.49642 0.0
C1524 C 0.78314 0.17133 0.48414 0.0
C1525 C 0.76555 0.15413 0.48611 0.0
C1526 C 0.75759 0.21929 0.52433 0.0
C1527 C 0.80414 0.16668 0.46857 0.0
C1528 C 0.81203 0.24687 0.47299 0.0
C1529 C 0.83114 0.24876 0.48849 0.0
C1530 C 0.79558 0.22862 0.47528 0.0
C1531 C 0.7984 0.21178 0.4934 0.0
C1532 C 0.81787 0.21332 0.50882 0.0
C1533 C 0.83399 0.23184 0.50622 0.0
C1534 C 0.77498 0.22758 0.45854 0.0
C1535 C 0.82152 0.19557 0.52824 0.0
H1536 H 0.72826 0.18201 0.52369 0.0
H1537 H 0.76732 0.13782 0.47641 0.0
H1538 H 0.77309 0.22269 0.53567 0.0
H1539 H 0.75623 0.23418 0.51177 0.0
H1540 H 0.74156 0.21912 0.5355 0.0
H1541 H 0.80398 0.14862 0.4611 0.0
H1542 H 0.8044 0.17951 0.45388 0.0
H1543 H 0.82068 0.16911 0.47865 0.0
H1544 H 0.80968 0.25989 0.45926 0.0
H1545 H 0.84875 0.23313 0.51822 0.0
H1546 H 0.75826 0.22908 0.46848 0.0
H1547 H 0.77471 0.21037 0.44935 0.0
H1548 H 0.77554 0.24182 0.44516 0.0
H1549 H 0.80646 0.19616 0.54063 0.0
H1550 H 0.83799 0.1988 0.53826 0.0
H1551 H 0.82218 0.17753 0.52082 0.0
C1552 C 0.82954 0.75087 0.49171 0.0
C1553 C 0.82596 0.73277 0.50809 0.0
C1554 C 0.81328 0.76929 0.48933 0.0
C1555 C 0.79288 0.76953 0.50358 0.0
C1556 C 0.78917 0.75136 0.52018 0.0
C1557 C 0.8058 0.73322 0.5223 0.0
C1558 C 0.81791 0.78846 0.47154 0.0
C1559 C 0.76754 0.75099 0.53559 0.0
C1560 C 0.76099 0.82761 0.51188 0.0
C1561 C 0.74259 0.82567 0.49556 0.0
C1562 C 0.77746 0.80944 0.51472 0.0
C1563 C 0.77538 0.78878 0.501 0.0
C1564 C 0.75675 0.78662 0.48462 0.0
C1565 C 0.74062 0.80513 0.48204 0.0
C1566 C 0.79719 0.81242 0.53226 0.0
C1567 C 0.75392 0.76478 0.46978 0.0
H1568 H 0.8451 0.7507 0.48071 0.0
H1569 H 0.80288 0.71927 0.53496 0.0
H1570 H 0.80342 0.78904 0.45848 0.0
H1571 H 0.81838 0.80584 0.4804 0.0
H1572 H 0.83478 0.78585 0.46204 0.0
H1573 H 0.76729 0.73562 0.54766 0.0
H1574 H 0.76669 0.76732 0.54624 0.0
H1575 H 0.75148 0.75049 0.52452 0.0
H1576 H 0.76267 0.84344 0.52236 0.0
H1577 H 0.72641 0.80347 0.46944 0.0
H1578 H 0.81442 0.81126 0.52317 0.0
H1579 H 0.79664 0.79802 0.54542 0.0
H1580 H 0.79625 0.82953 0.54165 0.0
H1581 H 0.76977 0.7622 0.4587 0.0
H1582 H 0.73824 0.7657 0.45815 0.0
H1583 H 0.75227 0.74907 0.48124 0.0
C1584 C 0.15305 0.77664 0.5092 0.0
C1585 C 0.15582 0.75775 0.49356 0.0
C1586 C 0.17061 0.79385 0.51157 0.0
C1587 C 0.19144 0.79201 0.49809 0.0
C1588 C 0.19423 0.77312 0.48213 0.0
C1589 C 0.17636 0.75627 0.48001 0.0
C1590 C 0.16698 0.81387 0.52862 0.0
C1591 C 0.21627 0.77051 0.46751 0.0
C1592 C 0.23187 0.84377 0.48653 0.0
C1593 C 0.25055 0.83897 0.50192 0.0
C1594 C 0.2119 0.82927 0.4859 0.0
C1595 C 0.2107 0.80945 0.50091 0.0
C1596 C 0.22895 0.8052 0.5173 0.0
C1597 C 0.24863 0.82007 0.51767 0.0
C1598 C 0.19263 0.83451 0.46838 0.0
C1599 C 0.2283 0.78422 0.5336 0.0
H1600 H 0.13719 0.77795 0.51968 0.0
H1601 H 0.17866 0.74173 0.4679 0.0
H1602 H 0.18071 0.8133 0.54247 0.0
H1603 H 0.16881 0.83097 0.5194 0.0
H1604 H 0.14943 0.81322 0.53718 0.0
H1605 H 0.21556 0.75494 0.45573 0.0
H1606 H 0.21897 0.78647 0.45661 0.0
H1607 H 0.23182 0.76874 0.47918 0.0
H1608 H 0.23313 0.85845 0.47443 0.0
H1609 H 0.26294 0.81629 0.52969 0.0
H1610 H 0.17518 0.83417 0.4771 0.0
H1611 H 0.19248 0.82073 0.45457 0.0
H1612 H 0.19501 0.8519 0.45978 0.0
H1613 H 0.21132 0.78359 0.54317 0.0
H1614 H 0.24286 0.78452 0.54663 0.0
H1615 H 0.22969 0.76779 0.52317 0.0
C1616 C 0.51174 0.18605 0.23816 0.0
C1617 C 0.4976 0.16583 0.23823 0.0
C1618 C 0.50879 0.20351 0.22101 0.0
C1619 C 0.49137 0.2006 0.20348 0.0
C1620 C 0.4772 0.18013 0.20329 0.0
C1621 C 0.48046 0.16299 0.22072 0.0
C1622 C 0.52419 0.22517 0.22177 0.0
C1623 C 0.45855 0.17641 0.18475 0.0
C1624 C 0.46978 0.25565 0.17255 0.0
C1625 C 0.48313 0.25524 0.15184 0.0
C1626 C 0.47206 0.23779 0.18941 0.0
C1627 C 0.48798 0.21906 0.18536 0.0
C1628 C 0.50115 0.2183 0.1643 0.0
C1629 C 0.49861 0.23644 0.1478 0.0
C1630 C 0.45778 0.23917 0.21173 0.0
C1631 C 0.51819 0.19851 0.15934 0.0
H1632 H 0.52499 0.18839 0.25166 0.0
H1633 H 0.4695 0.14738 0.22064 0.0
H1634 H 0.5341 0.22689 0.20507 0.0
H1635 H 0.5131 0.24114 0.22359 0.0
H1636 H 0.53695 0.2247 0.23655 0.0
H1637 H 0.44924 0.15936 0.18689 0.0
H1638 H 0.44542 0.19083 0.18552 0.0
H1639 H 0.46663 0.17691 0.16701 0.0
H1640 H 0.45778 0.27012 0.17578 0.0
H1641 H 0.5089 0.23595 0.13179 0.0
H1642 H 0.46972 0.24044 0.22711 0.0
H1643 H 0.4472 0.22291 0.21394 0.0
H1644 H 0.44571 0.25455 0.2119 0.0
H1645 H 0.53232 0.19839 0.17281 0.0
H1646 H 0.52645 0.20008 0.14172 0.0
H1647 H 0.50901 0.18132 0.16043 0.0
C1648 C 0.84137 0.4884 0.22332 0.0
C1649 C 0.83921 0.50529 0.24115 0.0
C1650 C 0.82396 0.48598 0.20601 0.0
C1651 C 0.80392 0.50074 0.20666 0.0
C1652 C 0.8017 0.51792 0.22451 0.0
C1653 C 0.81941 0.52002 0.24152 0.0
C1654 C 0.82692 0.46755 0.18714 0.0
C1655 C 0.7805 0.53392 0.22578 0.0
C1656 C 0.7669 0.50977 0.15197 0.0
C1657 C 0.74778 0.49481 0.15635 0.0
C1658 C 0.78558 0.51151 0.16798 0.0
C1659 C 0.78502 0.49805 0.18889 0.0
C1660 C 0.76598 0.48261 0.19323 0.0
C1661 C 0.7476 0.48112 0.17687 0.0
C1662 C 0.8057 0.52806 0.16273 0.0
C1663 C 0.76478 0.46803 0.2154 0.0
H1664 H 0.85665 0.47699 0.22289 0.0
H1665 H 0.8176 0.53311 0.25525 0.0
H1666 H 0.81224 0.45472 0.18803 0.0
H1667 H 0.82623 0.4759 0.16953 0.0
H1668 H 0.84381 0.45783 0.18882 0.0
H1669 H 0.78159 0.54652 0.24066 0.0
H1670 H 0.77875 0.54404 0.20921 0.0
H1671 H 0.76427 0.52327 0.22781 0.0
H1672 H 0.76721 0.52032 0.1361 0.0
H1673 H 0.73289 0.46951 0.18037 0.0
H1674 H 0.82267 0.51843 0.16342 0.0
H1675 H 0.80644 0.54207 0.17627 0.0
H1676 H 0.80398 0.53649 0.14519 0.0
H1677 H 0.78083 0.45706 0.21713 0.0
H1678 H 0.74913 0.45632 0.21576 0.0
H1679 H 0.7641 0.47978 0.23095 0.0
C1680 C 0.50875 0.75974 0.16354 0.0
C1681 C 0.48976 0.74722 0.154 0.0
C1682 C 0.50499 0.77881 0.17867 0.0
C1683 C 0.4817 0.78531 0.18459 0.0
C1684 C 0.46245 0.77338 0.17426 0.0
C1685 C 0.46671 0.75453 0.15895 0.0
C1686 C 0.52597 0.79134 0.18912 0.0
C1687 C 0.43736 0.77972 0.1803 0.0
C1688 C 0.47412 0.81289 0.24462 0.0
C1689 C 0.47181 0.8368 0.23902 0.0
C1690 C 0.47687 0.79594 0.22699 0.0
C1691 C 0.47759 0.80312 0.20319 0.0
C1692 C 0.47505 0.82719 0.19736 0.0
C1693 C 0.47205 0.84378 0.21538 0.0
C1694 C 0.47928 0.77037 0.23388 0.0
C1695 C 0.47595 0.83545 0.17216 0.0
H1696 H 0.5266 0.75431 0.15958 0.0
H1697 H 0.45196 0.74492 0.15163 0.0
H1698 H 0.52413 0.81065 0.18693 0.0
H1699 H 0.52688 0.78771 0.20826 0.0
H1700 H 0.5428 0.78568 0.18097 0.0
H1701 H 0.42443 0.77018 0.1692 0.0
H1702 H 0.43388 0.77534 0.19898 0.0
H1703 H 0.43448 0.79891 0.1782 0.0
H1704 H 0.47378 0.80736 0.26285 0.0
H1705 H 0.47033 0.86226 0.21095 0.0
H1706 H 0.49674 0.76363 0.22834 0.0
H1707 H 0.46573 0.75968 0.22476 0.0
H1708 H 0.47742 0.76764 0.25312 0.0
H1709 H 0.49337 0.83117 0.16447 0.0
H1710 H 0.47296 0.8547 0.17053 0.0
H1711 H 0.46249 0.82612 0.16156 0.0
C1712 C 0.15974 0.50777 0.24666 0.0
C1713 C 0.1647 0.49162 0.26463 0.0
C1714 C 0.17523 0.51079 0.22776 0.0
C1715 C 0.19625 0.49746 0.22693 0.0
C1716 C 0.20133 0.48106 0.24494 0.0
C1717 C 0.18542 0.47827 0.26357 0.0
C1718 C 0.16918 0.52833 0.20874 0.0
C1719 C 0.22366 0.46665 0.24466 0.0
C1720 C 0.22688 0.49106 0.16813 0.0
C1721 C 0.24437 0.50839 0.1697 0.0
C1722 C 0.21114 0.48723 0.18669 0.0
C1723 C 0.21306 0.50096 0.20733 0.0
C1724 C 0.23082 0.51832 0.20913 0.0
C1725 C 0.24623 0.52189 0.19024 0.0
C1726 C 0.1923 0.46866 0.18413 0.0
C1727 C 0.23346 0.53319 0.23096 0.0
H1728 H 0.1437 0.51807 0.24731 0.0
H1729 H 0.18938 0.46579 0.27743 0.0
H1730 H 0.18291 0.54217 0.20785 0.0
H1731 H 0.16877 0.51945 0.19139 0.0
H1732 H 0.15188 0.53692 0.21174 0.0
H1733 H 0.22487 0.45449 0.2599 0.0
H1734 H 0.22461 0.45615 0.22826 0.0
H1735 H 0.23918 0.47848 0.24487 0.0
H1736 H 0.22533 0.4806 0.15229 0.0
H1737 H 0.25976 0.53525 0.19161 0.0
H1738 H 0.17465 0.47686 0.18569 0.0
H1739 H 0.19387 0.45552 0.19847 0.0
H1740 H 0.19334 0.45933 0.16701 0.0
H1741 H 0.21716 0.5435 0.23397 0.0
H1742 H 0.24853 0.54558 0.22975 0.0
H1743 H 0.23605 0.52173 0.24654 0.0
C1744 C 0.47916 0.74644 0.80982 0.0
C1745 C 0.49477 0.74277 0.82856 0.0
C1746 C 0.48116 0.7663 0.79536 0.0
C1747 C 0.49913 0.78295 0.79982 0.0
C1748 C 0.51455 0.7797 0.81909 0.0
C1749 C 0.51222 0.7596 0.83322 0.0
C1750 C 0.46441 0.76916 0.77493 0.0
C1751 C 0.5338 0.79721 0.82446 0.0
C1752 C 0.51842 0.81961 0.74765 0.0
C1753 C 0.50557 0.8404 0.75105 0.0
C1754 C 0.5169 0.80097 0.76372 0.0
C1755 C 0.50228 0.80324 0.78371 0.0
C1756 C 0.48983 0.82443 0.78764 0.0
C1757 C 0.49158 0.84276 0.77122 0.0
C1758 C 0.53042 0.77858 0.75893 0.0
C1759 C 0.47419 0.82752 0.80886 0.0
H1760 H 0.46561 0.73354 0.80612 0.0
H1761 H 0.52429 0.75693 0.84772 0.0
H1762 H 0.45534 0.78641 0.77602 0.0
H1763 H 0.47439 0.76891 0.75818 0.0
H1764 H 0.45091 0.75504 0.77435 0.0
H1765 H 0.54348 0.79278 0.84084 0.0
H1766 H 0.54654 0.79773 0.8097 0.0
H1767 H 0.52629 0.81514 0.82624 0.0
H1768 H 0.5293 0.81766 0.73214 0.0
H1769 H 0.48169 0.85883 0.77403 0.0
H1770 H 0.51794 0.76381 0.75628 0.0
H1771 H 0.5416 0.77404 0.77426 0.0
H1772 H 0.54181 0.78003 0.74314 0.0
H1773 H 0.45934 0.81488 0.80799 0.0
H1774 H 0.46689 0.84561 0.81013 0.0
H1775 H 0.48417 0.82362 0.82517 0.0
C1776 C 0.22458 0.50368 0.84412 0.0
C1777 C 0.24462 0.48935 0.84258 0.0
C1778 C 0.20857 0.50519 0.82543 0.0
C1779 C 0.21281 0.49216 0.80469 0.0
C1780 C 0.23264 0.47716 0.80326 0.0
C1781 C 0.24829 0.47588 0.82227 0.0
C1782 C 0.18748 0.52122 0.82764 0.0
C1783 C 0.23771 0.46303 0.78137 0.0
C1784 C 0.1631 0.4827 0.7612 0.0
C1785 C 0.16786 0.50009 0.74437 0.0
C1786 C 0.17746 0.48002 0.78107 0.0
C1787 C 0.19709 0.49503 0.78407 0.0
C1788 C 0.20191 0.51271 0.76722 0.0
C1789 C 0.18719 0.51508 0.7476 0.0
C1790 C 0.17172 0.46108 0.79878 0.0
C1791 C 0.22276 0.529 0.76982 0.0
H1792 H 0.22155 0.51404 0.85982 0.0
H1793 H 0.26373 0.46476 0.82095 0.0
H1794 H 0.18881 0.53569 0.81462 0.0
H1795 H 0.17109 0.51138 0.82372 0.0
H1796 H 0.18597 0.52905 0.84546 0.0
H1797 H 0.25328 0.45138 0.78349 0.0
H1798 H 0.22227 0.45204 0.77672 0.0
H1799 H 0.24097 0.4751 0.76639 0.0
H1800 H 0.14814 0.4711 0.75886 0.0
H1801 H 0.191 0.52854 0.73465 0.0
H1802 H 0.16932 0.46899 0.81644 0.0
H1803 H 0.18657 0.44847 0.80008 0.0
H1804 H 0.15553 0.45118 0.79411 0.0
H1805 H 0.22154 0.53876 0.78665 0.0
H1806 H 0.22397 0.54192 0.75522 0.0
H1807 H 0.23928 0.5186 0.77034 0.0
C1808 C 0.48754 0.19287 0.74938 0.0
C1809 C 0.50169 0.17272 0.75118 0.0
C1810 C 0.48961 0.2113 0.76561 0.0
C1811 C 0.50611 0.20942 0.78414 0.0
C1812 C 0.52066 0.18928 0.78588 0.0
C1813 C 0.51833 0.17118 0.76931 0.0
C1814 C 0.47391 0.23261 0.76312 0.0
C1815 C 0.53835 0.18665 0.80552 0.0
C1816 C 0.52465 0.26464 0.81669 0.0
C1817 C 0.51041 0.26351 0.83678 0.0
C1818 C 0.52335 0.24721 0.79929 0.0
C1819 C 0.50756 0.22818 0.80219 0.0
C1820 C 0.49311 0.22698 0.82239 0.0
C1821 C 0.49465 0.24471 0.8394 0.0
C1822 C 0.53889 0.2491 0.77786 0.0
C1823 C 0.47613 0.20686 0.82611 0.0
H1824 H 0.47473 0.19423 0.73533 0.0
H1825 H 0.52931 0.15565 0.77081 0.0
H1826 H 0.46232 0.23413 0.77873 0.0
H1827 H 0.48472 0.24884 0.76232 0.0
H1828 H 0.4627 0.23177 0.74715 0.0
H1829 H 0.54878 0.17019 0.804 0.0
H1830 H 0.55062 0.20183 0.80558 0.0
H1831 H 0.52913 0.18659 0.8227 0.0
H1832 H 0.53683 0.27915 0.81453 0.0
H1833 H 0.48364 0.24368 0.85492 0.0
H1834 H 0.52793 0.24937 0.76173 0.0
H1835 H 0.55055 0.23348 0.77671 0.0
H1836 H 0.55001 0.26518 0.77814 0.0
H1837 H 0.46338 0.20607 0.81136 0.0
H1838 H 0.46618 0.20853 0.84282 0.0
H1839 H 0.48584 0.18992 0.82631 0.0
C1840 C 0.77216 0.48896 0.84155 0.0
C1841 C 0.75629 0.50688 0.83549 0.0
C1842 C 0.79066 0.48278 0.82645 0.0
C1843 C 0.79318 0.49471 0.80478 0.0
C1844 C 0.77736 0.51294 0.79866 0.0
C1845 C 0.75915 0.51886 0.81414 0.0
C1846 C 0.80735 0.46336 0.83357 0.0
C1847 C 0.77944 0.52597 0.77561 0.0
C1848 C 0.85076 0.49435 0.77124 0.0
C1849 C 0.84609 0.47771 0.75367 0.0
C1850 C 0.83398 0.4995 0.78854 0.0
C1851 C 0.81199 0.48783 0.78809 0.0
C1852 C 0.80743 0.47053 0.77082 0.0
C1853 C 0.82459 0.46561 0.75385 0.0
C1854 C 0.83949 0.51791 0.80686 0.0
C1855 C 0.78412 0.4578 0.76976 0.0
H1856 H 0.77011 0.47969 0.85807 0.0
H1857 H 0.74694 0.53271 0.80932 0.0
H1858 H 0.80625 0.44866 0.82079 0.0
H1859 H 0.82574 0.4699 0.83329 0.0
H1860 H 0.80346 0.45639 0.85139 0.0
H1861 H 0.76588 0.53993 0.77367 0.0
H1862 H 0.79708 0.53419 0.77414 0.0
H1863 H 0.77761 0.51344 0.76077 0.0
H1864 H 0.86741 0.50366 0.77129 0.0
H1865 H 0.82086 0.45269 0.74034 0.0
H1866 H 0.83627 0.51079 0.82472 0.0
H1867 H 0.82768 0.53327 0.80451 0.0
H1868 H 0.85801 0.52409 0.80582 0.0
H1869 H 0.78015 0.44952 0.78696 0.0
H1870 H 0.78384 0.44395 0.75599 0.0
H1871 H 0.76983 0.47057 0.76601 0.0
loop_
_geom_bond_atom_site_label_1
_geom_bond_atom_site_label_2
_geom_bond_distance
_geom_bond_site_symmetry_2
_ccdc_geom_bond_type
Zn0 O3 2.031 . S
Zn0 O5 2.049 . S
Zn0 O10 2.067 . S
Zn1 O2 1.962 . S
Zn1 O4 1.986 . S
Zn1 O6 1.996 . S
Zn1 O9 1.943 . S
O2 Zn1 1.962 . S
O2 C7 1.254 . S
O3 Zn0 2.031 . S
O3 C7 1.269 . S
O4 Zn1 1.986 . S
O4 C11 1.262 . S
O5 Zn0 2.049 . S
O5 C13 1.260 . S
O6 Zn1 1.996 . S
O6 C13 1.257 . S
C7 O2 1.254 . S
C7 O3 1.269 . S
C8 O9 1.249 . S
C8 O10 1.270 . S
O9 Zn1 1.943 . S
O9 C8 1.249 . S
O10 Zn0 2.067 . S
O10 C8 1.270 . S
C11 O4 1.262 . S
C11 O12 1.232 . S
O12 C11 1.232 . S
C13 O5 1.260 . S
C13 O6 1.257 . S
Zn14 O17 2.031 . S
Zn14 O19 2.049 . S
Zn14 O24 2.067 . S
Zn15 O16 1.962 . S
Zn15 O18 1.986 . S
Zn15 O20 1.996 . S
Zn15 O23 1.943 . S
O16 Zn15 1.962 . S
O16 C21 1.254 . S
O17 Zn14 2.031 . S
O17 C21 1.269 . S
O18 Zn15 1.986 . S
O18 C25 1.262 . S
O19 Zn14 2.049 . S
O19 C27 1.260 . S
O20 Zn15 1.996 . S
O20 C27 1.257 . S
C21 O16 1.254 . S
C21 O17 1.269 . S
C22 O23 1.249 . S
C22 O24 1.270 . S
O23 Zn15 1.943 . S
O23 C22 1.249 . S
O24 Zn14 2.067 . S
O24 C22 1.270 . S
C25 O18 1.262 . S
C25 O26 1.232 . S
O26 C25 1.232 . S
C27 O19 1.260 . S
C27 O20 1.257 . S
Zn28 O31 2.031 . S
Zn28 O33 2.049 . S
Zn28 O38 2.067 . S
Zn29 O30 1.962 . S
Zn29 O32 1.986 . S
Zn29 O34 1.996 . S
Zn29 O37 1.943 . S
O30 Zn29 1.962 . S
O30 C35 1.254 . S
O31 Zn28 2.031 . S
O31 C35 1.269 . S
O32 Zn29 1.986 . S
O32 C39 1.262 . S
O33 Zn28 2.049 . S
O33 C41 1.260 . S
O34 Zn29 1.996 . S
O34 C41 1.257 . S
C35 O30 1.254 . S
C35 O31 1.269 . S
C36 O37 1.249 . S
C36 O38 1.270 . S
O37 Zn29 1.943 . S
O37 C36 1.249 . S
O38 Zn28 2.067 . S
O38 C36 1.270 . S
C39 O32 1.262 . S
C39 O40 1.232 . S
O40 C39 1.232 . S
C41 O33 1.260 . S
C41 O34 1.257 . S
Zn42 O45 2.031 . S
Zn42 O47 2.049 . S
Zn42 O52 2.067 . S
Zn43 O44 1.962 . S
Zn43 O46 1.986 . S
Zn43 O48 1.996 . S
Zn43 O51 1.943 . S
O44 Zn43 1.962 . S
O44 C49 1.254 . S
O45 Zn42 2.031 . S
O45 C49 1.269 . S
O46 Zn43 1.986 . S
O46 C53 1.262 . S
O47 Zn42 2.049 . S
O47 C55 1.260 . S
O48 Zn43 1.996 . S
O48 C55 1.257 . S
C49 O44 1.254 . S
C49 O45 1.269 . S
C50 O51 1.249 . S
C50 O52 1.270 . S
O51 Zn43 1.943 . S
O51 C50 1.249 . S
O52 Zn42 2.067 . S
O52 C50 1.270 . S
C53 O46 1.262 . S
C53 O54 1.232 . S
O54 C53 1.232 . S
C55 O47 1.260 . S
C55 O48 1.257 . S
Zn56 O59 2.031 . S
Zn56 O61 2.049 . S
Zn56 O66 2.067 . S
Zn57 O58 1.962 . S
Zn57 O60 1.986 . S
Zn57 O62 1.996 . S
Zn57 O65 1.943 . S
O58 Zn57 1.962 . S
O58 C63 1.254 . S
O59 Zn56 2.031 . S
O59 C63 1.269 . S
O60 Zn57 1.986 . S
O60 C67 1.262 . S
O61 Zn56 2.049 . S
O61 C69 1.260 . S
O62 Zn57 1.996 . S
O62 C69 1.257 . S
C63 O58 1.254 . S
C63 O59 1.269 . S
C64 O65 1.249 . S
C64 O66 1.270 . S
O65 Zn57 1.943 . S
O65 C64 1.249 . S
O66 Zn56 2.067 . S
O66 C64 1.270 . S
C67 O60 1.262 . S
C67 O68 1.232 . S
O68 C67 1.232 . S
C69 O61 1.260 . S
C69 O62 1.257 . S
Zn70 O73 2.031 . S
Zn70 O75 2.049 . S
Zn70 O80 2.067 . S
Zn71 O72 1.962 . S
Zn71 O74 1.986 . S
Zn71 O76 1.996 . S
Zn71 O79 1.943 . S
O72 Zn71 1.962 . S
O72 C77 1.254 . S
O73 Zn70 2.031 . S
O73 C77 1.269 . S
O74 Zn71 1.986 . S
O74 C81 1.262 . S
O75 Zn70 2.049 . S
O75 C83 1.260 . S
O76 Zn71 1.996 . S
O76 C83 1.257 . S
C77 O72 1.254 . S
C77 O73 1.269 . S
C78 O79 1.249 . S
C78 O80 1.270 . S
O79 Zn71 1.943 . S
O79 C78 1.249 . S
O80 Zn70 2.067 . S
O80 C78 1.270 . S
C81 O74 1.262 . S
C81 O82 1.232 . S
O82 C81 1.232 . S
C83 O75 1.260 . S
C83 O76 1.257 . S
Zn84 O87 2.031 . S
Zn84 O89 2.049 . S
Zn84 O94 2.067 . S
Zn85 O86 1.962 . S
Zn85 O88 1.986 . S
Zn85 O90 1.996 . S
Zn85 O93 1.943 . S
O86 Zn85 1.962 . S
O86 C91 1.254 . S
O87 Zn84 2.031 . S
O87 C91 1.269 . S
O88 Zn85 1.986 . S
O88 C95 1.262 . S
O89 Zn84 2.049 . S
O89 C97 1.260 . S
O90 Zn85 1.996 . S
O90 C97 1.257 . S
C91 O86 1.254 . S
C91 O87 1.269 . S
C92 O93 1.249 . S
C92 O94 1.270 . S
O93 Zn85 1.943 . S
O93 C92 1.249 . S
O94 Zn84 2.067 . S
O94 C92 1.270 . S
C95 O88 1.262 . S
C95 O96 1.232 . S
O96 C95 1.232 . S
C97 O89 1.260 . S
C97 O90 1.257 . S
Zn98 O101 2.031 . S
Zn98 O103 2.049 . S
Zn98 O108 2.067 . S
Zn99 O100 1.962 . S
Zn99 O102 1.986 . S
Zn99 O104 1.996 . S
Zn99 O107 1.943 . S
O100 Zn99 1.962 . S
O100 C105 1.254 . S
O101 Zn98 2.031 . S
O101 C105 1.269 . S
O102 Zn99 1.986 . S
O102 C109 1.262 . S
O103 Zn98 2.049 . S
O103 C111 1.260 . S
O104 Zn99 1.996 . S
O104 C111 1.257 . S
C105 O100 1.254 . S
C105 O101 1.269 . S
C106 O107 1.249 . S
C106 O108 1.270 . S
O107 Zn99 1.943 . S
O107 C106 1.249 . S
O108 Zn98 2.067 . S
O108 C106 1.270 . S
C109 O102 1.262 . S
C109 O110 1.232 . S
O110 C109 1.232 . S
C111 O103 1.260 . S
C111 O104 1.257 . S
Zn112 O115 2.031 . S
Zn112 O117 2.049 . S
Zn112 O122 2.067 . S
Zn113 O114 1.962 . S
Zn113 O116 1.986 . S
Zn113 O118 1.996 . S
Zn113 O121 1.943 . S
O114 Zn113 1.962 . S
O114 C119 1.254 . S
O115 Zn112 2.031 . S
O115 C119 1.269 . S
O116 Zn113 1.986 . S
O116 C123 1.262 . S
O117 Zn112 2.049 . S
O117 C125 1.260 . S
O118 Zn113 1.996 . S
O118 C125 1.257 . S
C119 O114 1.254 . S
C119 O115 1.269 . S
C120 O121 1.249 . S
C120 O122 1.270 . S
O121 Zn113 1.943 . S
O121 C120 1.249 . S
O122 Zn112 2.067 . S
O122 C120 1.270 . S
C123 O116 1.262 . S
C123 O124 1.232 . S
O124 C123 1.232 . S
C125 O117 1.260 . S
C125 O118 1.257 . S
Zn126 O129 2.031 . S
Zn126 O131 2.049 . S
Zn126 O136 2.067 . S
Zn127 O128 1.962 . S
Zn127 O130 1.986 . S
Zn127 O132 1.996 . S
Zn127 O135 1.943 . S
O128 Zn127 1.962 . S
O128 C133 1.254 . S
O129 Zn126 2.031 . S
O129 C133 1.269 . S
O130 Zn127 1.986 . S
O130 C137 1.262 . S
O131 Zn126 2.049 . S
O131 C139 1.260 . S
O132 Zn127 1.996 . S
O132 C139 1.257 . S
C133 O128 1.254 . S
C133 O129 1.269 . S
C134 O135 1.249 . S
C134 O136 1.270 . S
O135 Zn127 1.943 . S
O135 C134 1.249 . S
O136 Zn126 2.067 . S
O136 C134 1.270 . S
C137 O130 1.262 . S
C137 O138 1.232 . S
O138 C137 1.232 . S
C139 O131 1.260 . S
C139 O132 1.257 . S
Zn140 O143 2.031 . S
Zn140 O145 2.049 . S
Zn140 O150 2.067 . S
Zn141 O142 1.962 . S
Zn141 O144 1.986 . S
Zn141 O146 1.996 . S
Zn141 O149 1.943 . S
O142 Zn141 1.962 . S
O142 C147 1.254 . S
O143 Zn140 2.031 . S
O143 C147 1.269 . S
O144 Zn141 1.986 . S
O144 C151 1.262 . S
O145 Zn140 2.049 . S
O145 C153 1.260 . S
O146 Zn141 1.996 . S
O146 C153 1.257 . S
C147 O142 1.254 . S
C147 O143 1.269 . S
C148 O149 1.249 . S
C148 O150 1.270 . S
O149 Zn141 1.943 . S
O149 C148 1.249 . S
O150 Zn140 2.067 . S
O150 C148 1.270 . S
C151 O144 1.262 . S
C151 O152 1.232 . S
O152 C151 1.232 . S
C153 O145 1.260 . S
C153 O146 1.257 . S
Zn154 O157 2.031 . S
Zn154 O159 2.049 . S
Zn154 O164 2.067 . S
Zn155 O156 1.962 . S
Zn155 O158 1.986 . S
Zn155 O160 1.996 . S
Zn155 O163 1.943 . S
O156 Zn155 1.962 . S
O156 C161 1.254 . S
O157 Zn154 2.031 . S
O157 C161 1.269 . S
O158 Zn155 1.986 . S
O158 C165 1.262 . S
O159 Zn154 2.049 . S
O159 C167 1.260 . S
O160 Zn155 1.996 . S
O160 C167 1.257 . S
C161 O156 1.254 . S
C161 O157 1.269 . S
C162 O163 1.249 . S
C162 O164 1.270 . S
O163 Zn155 1.943 . S
O163 C162 1.249 . S
O164 Zn154 2.067 . S
O164 C162 1.270 . S
C165 O158 1.262 . S
C165 O166 1.232 . S
O166 C165 1.232 . S
C167 O159 1.260 . S
C167 O160 1.257 . S
Zn168 O171 2.031 . S
Zn168 O173 2.049 . S
Zn168 O178 2.067 . S
Zn169 O170 1.962 . S
Zn169 O172 1.986 . S
Zn169 O174 1.996 . S
Zn169 O177 1.943 . S
O170 Zn169 1.962 . S
O170 C175 1.254 . S
O171 Zn168 2.031 . S
O171 C175 1.269 . S
O172 Zn169 1.986 . S
O172 C179 1.262 . S
O173 Zn168 2.049 . S
O173 C181 1.260 . S
O174 Zn169 1.996 . S
O174 C181 1.257 . S
C175 O170 1.254 . S
C175 O171 1.269 . S
C176 O177 1.249 . S
C176 O178 1.270 . S
O177 Zn169 1.943 . S
O177 C176 1.249 . S
O178 Zn168 2.067 . S
O178 C176 1.270 . S
C179 O172 1.262 . S
C179 O180 1.232 . S
O180 C179 1.232 . S
C181 O173 1.260 . S
C181 O174 1.257 . S
Zn182 O185 2.031 . S
Zn182 O187 2.049 . S
Zn182 O192 2.067 . S
Zn183 O184 1.962 . S
Zn183 O186 1.986 . S
Zn183 O188 1.996 . S
Zn183 O191 1.943 . S
O184 Zn183 1.962 . S
O184 C189 1.254 . S
O185 Zn182 2.031 . S
O185 C189 1.269 . S
O186 Zn183 1.986 . S
O186 C193 1.262 . S
O187 Zn182 2.049 . S
O187 C195 1.260 . S
O188 Zn183 1.996 . S
O188 C195 1.257 . S
C189 O184 1.254 . S
C189 O185 1.269 . S
C190 O191 1.249 . S
C190 O192 1.270 . S
O191 Zn183 1.943 . S
O191 C190 1.249 . S
O192 Zn182 2.067 . S
O192 C190 1.270 . S
C193 O186 1.262 . S
C193 O194 1.232 . S
O194 C193 1.232 . S
C195 O187 1.260 . S
C195 O188 1.257 . S
Zn196 O199 2.031 . S
Zn196 O201 2.049 . S
Zn196 O206 2.067 . S
Zn197 O198 1.962 . S
Zn197 O200 1.986 . S
Zn197 O202 1.996 . S
Zn197 O205 1.943 . S
O198 Zn197 1.962 . S
O198 C203 1.254 . S
O199 Zn196 2.031 . S
O199 C203 1.269 . S
O200 Zn197 1.986 . S
O200 C207 1.262 . S
O201 Zn196 2.049 . S
O201 C209 1.260 . S
O202 Zn197 1.996 . S
O202 C209 1.257 . S
C203 O198 1.254 . S
C203 O199 1.269 . S
C204 O205 1.249 . S
C204 O206 1.270 . S
O205 Zn197 1.943 . S
O205 C204 1.249 . S
O206 Zn196 2.067 . S
O206 C204 1.270 . S
C207 O200 1.262 . S
C207 O208 1.232 . S
O208 C207 1.232 . S
C209 O201 1.260 . S
C209 O202 1.257 . S
Zn210 O213 2.031 . S
Zn210 O215 2.049 . S
Zn210 O220 2.067 . S
Zn211 O212 1.962 . S
Zn211 O214 1.986 . S
Zn211 O216 1.996 . S
Zn211 O219 1.943 . S
O212 Zn211 1.962 . S
O212 C217 1.254 . S
O213 Zn210 2.031 . S
O213 C217 1.269 . S
O214 Zn211 1.986 . S
O214 C221 1.262 . S
O215 Zn210 2.049 . S
O215 C223 1.260 . S
O216 Zn211 1.996 . S
O216 C223 1.257 . S
C217 O212 1.254 . S
C217 O213 1.269 . S
C218 O219 1.249 . S
C218 O220 1.270 . S
O219 Zn211 1.943 . S
O219 C218 1.249 . S
O220 Zn210 2.067 . S
O220 C218 1.270 . S
C221 O214 1.262 . S
C221 O222 1.232 . S
O222 C221 1.232 . S
C223 O215 1.260 . S
C223 O216 1.257 . S
Zn224 O227 2.031 . S
Zn224 O229 2.049 . S
Zn224 O234 2.067 . S
Zn225 O226 1.962 . S
Zn225 O228 1.986 . S
Zn225 O230 1.996 . S
Zn225 O233 1.943 . S
O226 Zn225 1.962 . S
O226 C231 1.254 . S
O227 Zn224 2.031 . S
O227 C231 1.269 . S
O228 Zn225 1.986 . S
O228 C235 1.262 . S
O229 Zn224 2.049 . S
O229 C237 1.260 . S
O230 Zn225 1.996 . S
O230 C237 1.257 . S
C231 O226 1.254 . S
C231 O227 1.269 . S
C232 O233 1.249 . S
C232 O234 1.270 . S
O233 Zn225 1.943 . S
O233 C232 1.249 . S
O234 Zn224 2.067 . S
O234 C232 1.270 . S
C235 O228 1.262 . S
C235 O236 1.232 . S
O236 C235 1.232 . S
C237 O229 1.260 . S
C237 O230 1.257 . S
Zn238 O241 2.031 . S
Zn238 O243 2.049 . S
Zn238 O248 2.067 . S
Zn239 O240 1.962 . S
Zn239 O242 1.986 . S
Zn239 O244 1.996 . S
Zn239 O247 1.943 . S
O240 Zn239 1.962 . S
O240 C245 1.254 . S
O241 Zn238 2.031 . S
O241 C245 1.269 . S
O242 Zn239 1.986 . S
O242 C249 1.262 . S
O243 Zn238 2.049 . S
O243 C251 1.260 . S
O244 Zn239 1.996 . S
O244 C251 1.257 . S
C245 O240 1.254 . S
C245 O241 1.269 . S
C246 O247 1.249 . S
C246 O248 1.270 . S
O247 Zn239 1.943 . S
O247 C246 1.249 . S
O248 Zn238 2.067 . S
O248 C246 1.270 . S
C249 O242 1.262 . S
C249 O250 1.232 . S
O250 C249 1.232 . S
C251 O243 1.260 . S
C251 O244 1.257 . S
Zn252 O255 2.031 . S
Zn252 O257 2.049 . S
Zn252 O262 2.067 . S
Zn253 O254 1.962 . S
Zn253 O256 1.986 . S
Zn253 O258 1.996 . S
Zn253 O261 1.943 . S
O254 Zn253 1.962 . S
O254 C259 1.254 . S
O255 Zn252 2.031 . S
O255 C259 1.269 . S
O256 Zn253 1.986 . S
O256 C263 1.262 . S
O257 Zn252 2.049 . S
O257 C265 1.260 . S
O258 Zn253 1.996 . S
O258 C265 1.257 . S
C259 O254 1.254 . S
C259 O255 1.269 . S
C260 O261 1.249 . S
C260 O262 1.270 . S
O261 Zn253 1.943 . S
O261 C260 1.249 . S
O262 Zn252 2.067 . S
O262 C260 1.270 . S
C263 O256 1.262 . S
C263 O264 1.232 . S
O264 C263 1.232 . S
C265 O257 1.260 . S
C265 O258 1.257 . S
Zn266 O269 2.031 . S
Zn266 O271 2.049 . S
Zn266 O276 2.067 . S
Zn267 O268 1.962 . S
Zn267 O270 1.986 . S
Zn267 O272 1.996 . S
Zn267 O275 1.943 . S
O268 Zn267 1.962 . S
O268 C273 1.254 . S
O269 Zn266 2.031 . S
O269 C273 1.269 . S
O270 Zn267 1.986 . S
O270 C277 1.262 . S
O271 Zn266 2.049 . S
O271 C279 1.260 . S
O272 Zn267 1.996 . S
O272 C279 1.257 . S
C273 O268 1.254 . S
C273 O269 1.269 . S
C274 O275 1.249 . S
C274 O276 1.270 . S
O275 Zn267 1.943 . S
O275 C274 1.249 . S
O276 Zn266 2.067 . S
O276 C274 1.270 . S
C277 O270 1.262 . S
C277 O278 1.232 . S
O278 C277 1.232 . S
C279 O271 1.260 . S
C279 O272 1.257 . S
Zn280 O283 2.031 . S
Zn280 O285 2.049 . S
Zn280 O290 2.067 . S
Zn281 O282 1.962 . S
Zn281 O284 1.986 . S
Zn281 O286 1.996 . S
Zn281 O289 1.943 . S
O282 Zn281 1.962 . S
O282 C287 1.254 . S
O283 Zn280 2.031 . S
O283 C287 1.269 . S
O284 Zn281 1.986 . S
O284 C291 1.262 . S
O285 Zn280 2.049 . S
O285 C293 1.260 . S
O286 Zn281 1.996 . S
O286 C293 1.257 . S
C287 O282 1.254 . S
C287 O283 1.269 . S
C288 O289 1.249 . S
C288 O290 1.270 . S
O289 Zn281 1.943 . S
O289 C288 1.249 . S
O290 Zn280 2.067 . S
O290 C288 1.270 . S
C291 O284 1.262 . S
C291 O292 1.232 . S
O292 C291 1.232 . S
C293 O285 1.260 . S
C293 O286 1.257 . S
Zn294 O297 2.031 . S
Zn294 O299 2.049 . S
Zn294 O304 2.067 . S
Zn295 O296 1.962 . S
Zn295 O298 1.986 . S
Zn295 O300 1.996 . S
Zn295 O303 1.943 . S
O296 Zn295 1.962 . S
O296 C301 1.254 . S
O297 Zn294 2.031 . S
O297 C301 1.269 . S
O298 Zn295 1.986 . S
O298 C305 1.262 . S
O299 Zn294 2.049 . S
O299 C307 1.260 . S
O300 Zn295 1.996 . S
O300 C307 1.257 . S
C301 O296 1.254 . S
C301 O297 1.269 . S
C302 O303 1.249 . S
C302 O304 1.270 . S
O303 Zn295 1.943 . S
O303 C302 1.249 . S
O304 Zn294 2.067 . S
O304 C302 1.270 . S
C305 O298 1.262 . S
C305 O306 1.232 . S
O306 C305 1.232 . S
C307 O299 1.260 . S
C307 O300 1.257 . S
Zn308 O311 2.031 . S
Zn308 O313 2.049 . S
Zn308 O318 2.067 . S
Zn309 O310 1.962 . S
Zn309 O312 1.986 . S
Zn309 O314 1.996 . S
Zn309 O317 1.943 . S
O310 Zn309 1.962 . S
O310 C315 1.254 . S
O311 Zn308 2.031 . S
O311 C315 1.269 . S
O312 Zn309 1.986 . S
O312 C319 1.262 . S
O313 Zn308 2.049 . S
O313 C321 1.260 . S
O314 Zn309 1.996 . S
O314 C321 1.257 . S
C315 O310 1.254 . S
C315 O311 1.269 . S
C316 O317 1.249 . S
C316 O318 1.270 . S
O317 Zn309 1.943 . S
O317 C316 1.249 . S
O318 Zn308 2.067 . S
O318 C316 1.270 . S
C319 O312 1.262 . S
C319 O320 1.232 . S
O320 C319 1.232 . S
C321 O313 1.260 . S
C321 O314 1.257 . S
Zn322 O325 2.031 . S
Zn322 O327 2.049 . S
Zn322 O332 2.067 . S
Zn323 O324 1.962 . S
Zn323 O326 1.986 . S
Zn323 O328 1.996 . S
Zn323 O331 1.943 . S
O324 Zn323 1.962 . S
O324 C329 1.254 . S
O325 Zn322 2.031 . S
O325 C329 1.269 . S
O326 Zn323 1.986 . S
O326 C333 1.262 . S
O327 Zn322 2.049 . S
O327 C335 1.260 . S
O328 Zn323 1.996 . S
O328 C335 1.257 . S
C329 O324 1.254 . S
C329 O325 1.269 . S
C330 O331 1.249 . S
C330 O332 1.270 . S
O331 Zn323 1.943 . S
O331 C330 1.249 . S
O332 Zn322 2.067 . S
O332 C330 1.270 . S
C333 O326 1.262 . S
C333 O334 1.232 . S
O334 C333 1.232 . S
C335 O327 1.260 . S
C335 O328 1.257 . S
C336 C337 1.391 . S
C336 C338 1.394 . S
C336 H352 0.931 . S
C337 C336 1.391 . S
C337 C341 1.376 . S
C338 C336 1.394 . S
C338 C339 1.369 . S
C338 C342 1.531 . S
C339 C338 1.369 . S
C339 C340 1.410 . S
C339 C347 1.503 . S
C340 C339 1.410 . S
C340 C341 1.392 . S
C340 C343 1.511 . S
C341 C337 1.376 . S
C341 C340 1.392 . S
C341 H353 0.929 . S
C342 C338 1.531 . S
C342 H354 0.960 . S
C342 H355 0.962 . S
C342 H356 0.960 . S
C343 C340 1.511 . S
C343 H357 0.961 . S
C343 H358 0.961 . S
C343 H359 0.961 . S
C344 C345 1.370 . S
C344 C346 1.363 . S
C344 H360 0.931 . S
C345 C344 1.370 . S
C345 C349 1.408 . S
C346 C344 1.363 . S
C346 C347 1.370 . S
C346 C350 1.524 . S
C347 C339 1.503 . S
C347 C346 1.370 . S
C347 C348 1.403 . S
C348 C347 1.403 . S
C348 C349 1.404 . S
C348 C351 1.539 . S
C349 C345 1.408 . S
C349 C348 1.404 . S
C349 H361 0.930 . S
C350 C346 1.524 . S
C350 H362 0.956 . S
C350 H363 0.961 . S
C350 H364 0.961 . S
C351 C348 1.539 . S
C351 H365 0.958 . S
C351 H366 0.961 . S
C351 H367 0.960 . S
H352 C336 0.931 . S
H353 C341 0.929 . S
H354 C342 0.960 . S
H355 C342 0.962 . S
H356 C342 0.960 . S
H357 C343 0.961 . S
H358 C343 0.961 . S
H359 C343 0.961 . S
H360 C344 0.931 . S
H361 C349 0.930 . S
H362 C350 0.956 . S
H363 C350 0.961 . S
H364 C350 0.961 . S
H365 C351 0.958 . S
H366 C351 0.961 . S
H367 C351 0.960 . S
C368 C369 1.391 . S
C368 C370 1.394 . S
C368 H384 0.931 . S
C369 C368 1.391 . S
C369 C373 1.376 . S
C370 C368 1.394 . S
C370 C371 1.369 . S
C370 C374 1.531 . S
C371 C370 1.369 . S
C371 C372 1.410 . S
C371 C379 1.503 . S
C372 C371 1.410 . S
C372 C373 1.392 . S
C372 C375 1.511 . S
C373 C369 1.376 . S
C373 C372 1.392 . S
C373 H385 0.929 . S
C374 C370 1.531 . S
C374 H386 0.960 . S
C374 H387 0.962 . S
C374 H388 0.960 . S
C375 C372 1.511 . S
C375 H389 0.961 . S
C375 H390 0.961 . S
C375 H391 0.961 . S
C376 C377 1.370 . S
C376 C378 1.363 . S
C376 H392 0.931 . S
C377 C376 1.370 . S
C377 C381 1.408 . S
C378 C376 1.363 . S
C378 C379 1.370 . S
C378 C382 1.524 . S
C379 C371 1.503 . S
C379 C378 1.370 . S
C379 C380 1.403 . S
C380 C379 1.403 . S
C380 C381 1.404 . S
C380 C383 1.539 . S
C381 C377 1.408 . S
C381 C380 1.404 . S
C381 H393 0.930 . S
C382 C378 1.524 . S
C382 H394 0.956 . S
C382 H395 0.961 . S
C382 H396 0.961 . S
C383 C380 1.539 . S
C383 H397 0.958 . S
C383 H398 0.961 . S
C383 H399 0.960 . S
H384 C368 0.931 . S
H385 C373 0.929 . S
H386 C374 0.960 . S
H387 C374 0.962 . S
H388 C374 0.960 . S
H389 C375 0.961 . S
H390 C375 0.961 . S
H391 C375 0.961 . S
H392 C376 0.931 . S
H393 C381 0.930 . S
H394 C382 0.956 . S
H395 C382 0.961 . S
H396 C382 0.961 . S
H397 C383 0.958 . S
H398 C383 0.961 . S
H399 C383 0.960 . S
C400 C401 1.391 . S
C400 C402 1.394 . S
C400 H416 0.931 . S
C401 C400 1.391 . S
C401 C405 1.376 . S
C402 C400 1.394 . S
C402 C403 1.369 . S
C402 C406 1.531 . S
C403 C402 1.369 . S
C403 C404 1.410 . S
C403 C411 1.503 . S
C404 C403 1.410 . S
C404 C405 1.392 . S
C404 C407 1.511 . S
C405 C401 1.376 . S
C405 C404 1.392 . S
C405 H417 0.929 . S
C406 C402 1.531 . S
C406 H418 0.960 . S
C406 H419 0.962 . S
C406 H420 0.960 . S
C407 C404 1.511 . S
C407 H421 0.961 . S
C407 H422 0.961 . S
C407 H423 0.961 . S
C408 C409 1.370 . S
C408 C410 1.363 . S
C408 H424 0.931 . S
C409 C408 1.370 . S
C409 C413 1.408 . S
C410 C408 1.363 . S
C410 C411 1.370 . S
C410 C414 1.524 . S
C411 C403 1.503 . S
C411 C410 1.370 . S
C411 C412 1.403 . S
C412 C411 1.403 . S
C412 C413 1.404 . S
C412 C415 1.539 . S
C413 C409 1.408 . S
C413 C412 1.404 . S
C413 H425 0.930 . S
C414 C410 1.524 . S
C414 H426 0.956 . S
C414 H427 0.961 . S
C414 H428 0.961 . S
C415 C412 1.539 . S
C415 H429 0.958 . S
C415 H430 0.961 . S
C415 H431 0.960 . S
H416 C400 0.931 . S
H417 C405 0.929 . S
H418 C406 0.960 . S
H419 C406 0.962 . S
H420 C406 0.960 . S
H421 C407 0.961 . S
H422 C407 0.961 . S
H423 C407 0.961 . S
H424 C408 0.931 . S
H425 C413 0.930 . S
H426 C414 0.956 . S
H427 C414 0.961 . S
H428 C414 0.961 . S
H429 C415 0.958 . S
H430 C415 0.961 . S
H431 C415 0.960 . S
C432 C433 1.391 . S
C432 C434 1.394 . S
C432 H448 0.931 . S
C433 C432 1.391 . S
C433 C437 1.376 . S
C434 C432 1.394 . S
C434 C435 1.369 . S
C434 C438 1.531 . S
C435 C434 1.369 . S
C435 C436 1.410 . S
C435 C443 1.503 . S
C436 C435 1.410 . S
C436 C437 1.392 . S
C436 C439 1.511 . S
C437 C433 1.376 . S
C437 C436 1.392 . S
C437 H449 0.929 . S
C438 C434 1.531 . S
C438 H450 0.960 . S
C438 H451 0.962 . S
C438 H452 0.960 . S
C439 C436 1.511 . S
C439 H453 0.961 . S
C439 H454 0.961 . S
C439 H455 0.961 . S
C440 C441 1.370 . S
C440 C442 1.363 . S
C440 H456 0.931 . S
C441 C440 1.370 . S
C441 C445 1.408 . S
C442 C440 1.363 . S
C442 C443 1.370 . S
C442 C446 1.524 . S
C443 C435 1.503 . S
C443 C442 1.370 . S
C443 C444 1.403 . S
C444 C443 1.403 . S
C444 C445 1.404 . S
C444 C447 1.539 . S
C445 C441 1.408 . S
C445 C444 1.404 . S
C445 H457 0.930 . S
C446 C442 1.524 . S
C446 H458 0.956 . S
C446 H459 0.961 . S
C446 H460 0.961 . S
C447 C444 1.539 . S
C447 H461 0.958 . S
C447 H462 0.961 . S
C447 H463 0.960 . S
H448 C432 0.931 . S
H449 C437 0.929 . S
H450 C438 0.960 . S
H451 C438 0.962 . S
H452 C438 0.960 . S
H453 C439 0.961 . S
H454 C439 0.961 . S
H455 C439 0.961 . S
H456 C440 0.931 . S
H457 C445 0.930 . S
H458 C446 0.956 . S
H459 C446 0.961 . S
H460 C446 0.961 . S
H461 C447 0.958 . S
H462 C447 0.961 . S
H463 C447 0.960 . S
C464 C465 1.391 . S
C464 C466 1.394 . S
C464 H480 0.931 . S
C465 C464 1.391 . S
C465 C469 1.376 . S
C466 C464 1.394 . S
C466 C467 1.369 . S
C466 C470 1.531 . S
C467 C466 1.369 . S
C467 C468 1.410 . S
C467 C475 1.503 . S
C468 C467 1.410 . S
C468 C469 1.392 . S
C468 C471 1.511 . S
C469 C465 1.376 . S
C469 C468 1.392 . S
C469 H481 0.929 . S
C470 C466 1.531 . S
C470 H482 0.960 . S
C470 H483 0.962 . S
C470 H484 0.960 . S
C471 C468 1.511 . S
C471 H485 0.961 . S
C471 H486 0.961 . S
C471 H487 0.961 . S
C472 C473 1.370 . S
C472 C474 1.363 . S
C472 H488 0.931 . S
C473 C472 1.370 . S
C473 C477 1.408 . S
C474 C472 1.363 . S
C474 C475 1.370 . S
C474 C478 1.524 . S
C475 C467 1.503 . S
C475 C474 1.370 . S
C475 C476 1.403 . S
C476 C475 1.403 . S
C476 C477 1.404 . S
C476 C479 1.539 . S
C477 C473 1.408 . S
C477 C476 1.404 . S
C477 H489 0.930 . S
C478 C474 1.524 . S
C478 H490 0.956 . S
C478 H491 0.961 . S
C478 H492 0.961 . S
C479 C476 1.539 . S
C479 H493 0.958 . S
C479 H494 0.961 . S
C479 H495 0.960 . S
H480 C464 0.931 . S
H481 C469 0.929 . S
H482 C470 0.960 . S
H483 C470 0.962 . S
H484 C470 0.960 . S
H485 C471 0.961 . S
H486 C471 0.961 . S
H487 C471 0.961 . S
H488 C472 0.931 . S
H489 C477 0.930 . S
H490 C478 0.956 . S
H491 C478 0.961 . S
H492 C478 0.961 . S
H493 C479 0.958 . S
H494 C479 0.961 . S
H495 C479 0.960 . S
C496 C497 1.391 . S
C496 C498 1.394 . S
C496 H512 0.931 . S
C497 C496 1.391 . S
C497 C501 1.376 . S
C498 C496 1.394 . S
C498 C499 1.369 . S
C498 C502 1.531 . S
C499 C498 1.369 . S
C499 C500 1.410 . S
C499 C507 1.503 . S
C500 C499 1.410 . S
C500 C501 1.392 . S
C500 C503 1.511 . S
C501 C497 1.376 . S
C501 C500 1.392 . S
C501 H513 0.929 . S
C502 C498 1.531 . S
C502 H514 0.960 . S
C502 H515 0.962 . S
C502 H516 0.960 . S
C503 C500 1.511 . S
C503 H517 0.961 . S
C503 H518 0.961 . S
C503 H519 0.961 . S
C504 C505 1.370 . S
C504 C506 1.363 . S
C504 H520 0.931 . S
C505 C504 1.370 . S
C505 C509 1.408 . S
C506 C504 1.363 . S
C506 C507 1.370 . S
C506 C510 1.524 . S
C507 C499 1.503 . S
C507 C506 1.370 . S
C507 C508 1.403 . S
C508 C507 1.403 . S
C508 C509 1.404 . S
C508 C511 1.539 . S
C509 C505 1.408 . S
C509 C508 1.404 . S
C509 H521 0.930 . S
C510 C506 1.524 . S
C510 H522 0.956 . S
C510 H523 0.961 . S
C510 H524 0.961 . S
C511 C508 1.539 . S
C511 H525 0.958 . S
C511 H526 0.961 . S
C511 H527 0.960 . S
H512 C496 0.931 . S
H513 C501 0.929 . S
H514 C502 0.960 . S
H515 C502 0.962 . S
H516 C502 0.960 . S
H517 C503 0.961 . S
H518 C503 0.961 . S
H519 C503 0.961 . S
H520 C504 0.931 . S
H521 C509 0.930 . S
H522 C510 0.956 . S
H523 C510 0.961 . S
H524 C510 0.961 . S
H525 C511 0.958 . S
H526 C511 0.961 . S
H527 C511 0.960 . S
C528 C529 1.391 . S
C528 C530 1.394 . S
C528 H544 0.931 . S
C529 C528 1.391 . S
C529 C533 1.376 . S
C530 C528 1.394 . S
C530 C531 1.369 . S
C530 C534 1.531 . S
C531 C530 1.369 . S
C531 C532 1.410 . S
C531 C539 1.503 . S
C532 C531 1.410 . S
C532 C533 1.392 . S
C532 C535 1.511 . S
C533 C529 1.376 . S
C533 C532 1.392 . S
C533 H545 0.929 . S
C534 C530 1.531 . S
C534 H546 0.960 . S
C534 H547 0.962 . S
C534 H548 0.960 . S
C535 C532 1.511 . S
C535 H549 0.961 . S
C535 H550 0.961 . S
C535 H551 0.961 . S
C536 C537 1.370 . S
C536 C538 1.363 . S
C536 H552 0.931 . S
C537 C536 1.370 . S
C537 C541 1.408 . S
C538 C536 1.363 . S
C538 C539 1.370 . S
C538 C542 1.524 . S
C539 C531 1.503 . S
C539 C538 1.370 . S
C539 C540 1.403 . S
C540 C539 1.403 . S
C540 C541 1.404 . S
C540 C543 1.539 . S
C541 C537 1.408 . S
C541 C540 1.404 . S
C541 H553 0.930 . S
C542 C538 1.524 . S
C542 H554 0.956 . S
C542 H555 0.961 . S
C542 H556 0.961 . S
C543 C540 1.539 . S
C543 H557 0.958 . S
C543 H558 0.961 . S
C543 H559 0.960 . S
H544 C528 0.931 . S
H545 C533 0.929 . S
H546 C534 0.960 . S
H547 C534 0.962 . S
H548 C534 0.960 . S
H549 C535 0.961 . S
H550 C535 0.961 . S
H551 C535 0.961 . S
H552 C536 0.931 . S
H553 C541 0.930 . S
H554 C542 0.956 . S
H555 C542 0.961 . S
H556 C542 0.961 . S
H557 C543 0.958 . S
H558 C543 0.961 . S
H559 C543 0.960 . S
C560 C561 1.391 . S
C560 C562 1.394 . S
C560 H576 0.931 . S
C561 C560 1.391 . S
C561 C565 1.376 . S
C562 C560 1.394 . S
C562 C563 1.369 . S
C562 C566 1.531 . S
C563 C562 1.369 . S
C563 C564 1.410 . S
C563 C571 1.503 . S
C564 C563 1.410 . S
C564 C565 1.392 . S
C564 C567 1.511 . S
C565 C561 1.376 . S
C565 C564 1.392 . S
C565 H577 0.929 . S
C566 C562 1.531 . S
C566 H578 0.960 . S
C566 H579 0.962 . S
C566 H580 0.960 . S
C567 C564 1.511 . S
C567 H581 0.961 . S
C567 H582 0.961 . S
C567 H583 0.961 . S
C568 C569 1.370 . S
C568 C570 1.363 . S
C568 H584 0.931 . S
C569 C568 1.370 . S
C569 C573 1.408 . S
C570 C568 1.363 . S
C570 C571 1.370 . S
C570 C574 1.524 . S
C571 C563 1.503 . S
C571 C570 1.370 . S
C571 C572 1.403 . S
C572 C571 1.403 . S
C572 C573 1.404 . S
C572 C575 1.539 . S
C573 C569 1.408 . S
C573 C572 1.404 . S
C573 H585 0.930 . S
C574 C570 1.524 . S
C574 H586 0.956 . S
C574 H587 0.961 . S
C574 H588 0.961 . S
C575 C572 1.539 . S
C575 H589 0.958 . S
C575 H590 0.961 . S
C575 H591 0.960 . S
H576 C560 0.931 . S
H577 C565 0.929 . S
H578 C566 0.960 . S
H579 C566 0.962 . S
H580 C566 0.960 . S
H581 C567 0.961 . S
H582 C567 0.961 . S
H583 C567 0.961 . S
H584 C568 0.931 . S
H585 C573 0.930 . S
H586 C574 0.956 . S
H587 C574 0.961 . S
H588 C574 0.961 . S
H589 C575 0.958 . S
H590 C575 0.961 . S
H591 C575 0.960 . S
C592 C593 1.391 . S
C592 C594 1.394 . S
C592 H608 0.931 . S
C593 C592 1.391 . S
C593 C597 1.376 . S
C594 C592 1.394 . S
C594 C595 1.369 . S
C594 C598 1.531 . S
C595 C594 1.369 . S
C595 C596 1.410 . S
C595 C603 1.503 . S
C596 C595 1.410 . S
C596 C597 1.392 . S
C596 C599 1.511 . S
C597 C593 1.376 . S
C597 C596 1.392 . S
C597 H609 0.929 . S
C598 C594 1.531 . S
C598 H610 0.960 . S
C598 H611 0.962 . S
C598 H612 0.960 . S
C599 C596 1.511 . S
C599 H613 0.961 . S
C599 H614 0.961 . S
C599 H615 0.961 . S
C600 C601 1.370 . S
C600 C602 1.363 . S
C600 H616 0.931 . S
C601 C600 1.370 . S
C601 C605 1.408 . S
C602 C600 1.363 . S
C602 C603 1.370 . S
C602 C606 1.524 . S
C603 C595 1.503 . S
C603 C602 1.370 . S
C603 C604 1.403 . S
C604 C603 1.403 . S
C604 C605 1.404 . S
C604 C607 1.539 . S
C605 C601 1.408 . S
C605 C604 1.404 . S
C605 H617 0.930 . S
C606 C602 1.524 . S
C606 H618 0.956 . S
C606 H619 0.961 . S
C606 H620 0.961 . S
C607 C604 1.539 . S
C607 H621 0.958 . S
C607 H622 0.961 . S
C607 H623 0.960 . S
H608 C592 0.931 . S
H609 C597 0.929 . S
H610 C598 0.960 . S
H611 C598 0.962 . S
H612 C598 0.960 . S
H613 C599 0.961 . S
H614 C599 0.961 . S
H615 C599 0.961 . S
H616 C600 0.931 . S
H617 C605 0.930 . S
H618 C606 0.956 . S
H619 C606 0.961 . S
H620 C606 0.961 . S
H621 C607 0.958 . S
H622 C607 0.961 . S
H623 C607 0.960 . S
C624 C625 1.391 . S
C624 C626 1.394 . S
C624 H640 0.931 . S
C625 C624 1.391 . S
C625 C629 1.376 . S
C626 C624 1.394 . S
C626 C627 1.369 . S
C626 C630 1.531 . S
C627 C626 1.369 . S
C627 C628 1.410 . S
C627 C635 1.503 . S
C628 C627 1.410 . S
C628 C629 1.392 . S
C628 C631 1.511 . S
C629 C625 1.376 . S
C629 C628 1.392 . S
C629 H641 0.929 . S
C630 C626 1.531 . S
C630 H642 0.960 . S
C630 H643 0.962 . S
C630 H644 0.960 . S
C631 C628 1.511 . S
C631 H645 0.961 . S
C631 H646 0.961 . S
C631 H647 0.961 . S
C632 C633 1.370 . S
C632 C634 1.363 . S
C632 H648 0.931 . S
C633 C632 1.370 . S
C633 C637 1.408 . S
C634 C632 1.363 . S
C634 C635 1.370 . S
C634 C638 1.524 . S
C635 C627 1.503 . S
C635 C634 1.370 . S
C635 C636 1.403 . S
C636 C635 1.403 . S
C636 C637 1.404 . S
C636 C639 1.539 . S
C637 C633 1.408 . S
C637 C636 1.404 . S
C637 H649 0.930 . S
C638 C634 1.524 . S
C638 H650 0.956 . S
C638 H651 0.961 . S
C638 H652 0.961 . S
C639 C636 1.539 . S
C639 H653 0.958 . S
C639 H654 0.961 . S
C639 H655 0.960 . S
H640 C624 0.931 . S
H641 C629 0.929 . S
H642 C630 0.960 . S
H643 C630 0.962 . S
H644 C630 0.960 . S
H645 C631 0.961 . S
H646 C631 0.961 . S
H647 C631 0.961 . S
H648 C632 0.931 . S
H649 C637 0.930 . S
H650 C638 0.956 . S
H651 C638 0.961 . S
H652 C638 0.961 . S
H653 C639 0.958 . S
H654 C639 0.961 . S
H655 C639 0.960 . S
C656 C657 1.391 . S
C656 C658 1.394 . S
C656 H672 0.931 . S
C657 C656 1.391 . S
C657 C661 1.376 . S
C658 C656 1.394 . S
C658 C659 1.369 . S
C658 C662 1.531 . S
C659 C658 1.369 . S
C659 C660 1.410 . S
C659 C667 1.503 . S
C660 C659 1.410 . S
C660 C661 1.392 . S
C660 C663 1.511 . S
C661 C657 1.376 . S
C661 C660 1.392 . S
C661 H673 0.929 . S
C662 C658 1.531 . S
C662 H674 0.960 . S
C662 H675 0.962 . S
C662 H676 0.960 . S
C663 C660 1.511 . S
C663 H677 0.961 . S
C663 H678 0.961 . S
C663 H679 0.961 . S
C664 C665 1.370 . S
C664 C666 1.363 . S
C664 H680 0.931 . S
C665 C664 1.370 . S
C665 C669 1.408 . S
C666 C664 1.363 . S
C666 C667 1.370 . S
C666 C670 1.524 . S
C667 C659 1.503 . S
C667 C666 1.370 . S
C667 C668 1.403 . S
C668 C667 1.403 . S
C668 C669 1.404 . S
C668 C671 1.539 . S
C669 C665 1.408 . S
C669 C668 1.404 . S
C669 H681 0.930 . S
C670 C666 1.524 . S
C670 H682 0.956 . S
C670 H683 0.961 . S
C670 H684 0.961 . S
C671 C668 1.539 . S
C671 H685 0.958 . S
C671 H686 0.961 . S
C671 H687 0.960 . S
H672 C656 0.931 . S
H673 C661 0.929 . S
H674 C662 0.960 . S
H675 C662 0.962 . S
H676 C662 0.960 . S
H677 C663 0.961 . S
H678 C663 0.961 . S
H679 C663 0.961 . S
H680 C664 0.931 . S
H681 C669 0.930 . S
H682 C670 0.956 . S
H683 C670 0.961 . S
H684 C670 0.961 . S
H685 C671 0.958 . S
H686 C671 0.961 . S
H687 C671 0.960 . S
C688 C689 1.391 . S
C688 C690 1.394 . S
C688 H704 0.931 . S
C689 C688 1.391 . S
C689 C693 1.376 . S
C690 C688 1.394 . S
C690 C691 1.369 . S
C690 C694 1.531 . S
C691 C690 1.369 . S
C691 C692 1.410 . S
C691 C699 1.503 . S
C692 C691 1.410 . S
C692 C693 1.392 . S
C692 C695 1.511 . S
C693 C689 1.376 . S
C693 C692 1.392 . S
C693 H705 0.929 . S
C694 C690 1.531 . S
C694 H706 0.960 . S
C694 H707 0.962 . S
C694 H708 0.960 . S
C695 C692 1.511 . S
C695 H709 0.961 . S
C695 H710 0.961 . S
C695 H711 0.961 . S
C696 C697 1.370 . S
C696 C698 1.363 . S
C696 H712 0.931 . S
C697 C696 1.370 . S
C697 C701 1.408 . S
C698 C696 1.363 . S
C698 C699 1.370 . S
C698 C702 1.524 . S
C699 C691 1.503 . S
C699 C698 1.370 . S
C699 C700 1.403 . S
C700 C699 1.403 . S
C700 C701 1.404 . S
C700 C703 1.539 . S
C701 C697 1.408 . S
C701 C700 1.404 . S
C701 H713 0.930 . S
C702 C698 1.524 . S
C702 H714 0.956 . S
C702 H715 0.961 . S
C702 H716 0.961 . S
C703 C700 1.539 . S
C703 H717 0.958 . S
C703 H718 0.961 . S
C703 H719 0.960 . S
H704 C688 0.931 . S
H705 C693 0.929 . S
H706 C694 0.960 . S
H707 C694 0.962 . S
H708 C694 0.960 . S
H709 C695 0.961 . S
H710 C695 0.961 . S
H711 C695 0.961 . S
H712 C696 0.931 . S
H713 C701 0.930 . S
H714 C702 0.956 . S
H715 C702 0.961 . S
H716 C702 0.961 . S
H717 C703 0.958 . S
H718 C703 0.961 . S
H719 C703 0.960 . S
C720 C721 1.391 . S
C720 C722 1.394 . S
C720 H736 0.931 . S
C721 C720 1.391 . S
C721 C725 1.376 . S
C722 C720 1.394 . S
C722 C723 1.369 . S
C722 C726 1.531 . S
C723 C722 1.369 . S
C723 C724 1.410 . S
C723 C731 1.503 . S
C724 C723 1.410 . S
C724 C725 1.392 . S
C724 C727 1.511 . S
C725 C721 1.376 . S
C725 C724 1.392 . S
C725 H737 0.929 . S
C726 C722 1.531 . S
C726 H738 0.960 . S
C726 H739 0.962 . S
C726 H740 0.960 . S
C727 C724 1.511 . S
C727 H741 0.961 . S
C727 H742 0.961 . S
C727 H743 0.961 . S
C728 C729 1.370 . S
C728 C730 1.363 . S
C728 H744 0.931 . S
C729 C728 1.370 . S
C729 C733 1.408 . S
C730 C728 1.363 . S
C730 C731 1.370 . S
C730 C734 1.524 . S
C731 C723 1.503 . S
C731 C730 1.370 . S
C731 C732 1.403 . S
C732 C731 1.403 . S
C732 C733 1.404 . S
C732 C735 1.539 . S
C733 C729 1.408 . S
C733 C732 1.404 . S
C733 H745 0.930 . S
C734 C730 1.524 . S
C734 H746 0.956 . S
C734 H747 0.961 . S
C734 H748 0.961 . S
C735 C732 1.539 . S
C735 H749 0.958 . S
C735 H750 0.961 . S
C735 H751 0.960 . S
H736 C720 0.931 . S
H737 C725 0.929 . S
H738 C726 0.960 . S
H739 C726 0.962 . S
H740 C726 0.960 . S
H741 C727 0.961 . S
H742 C727 0.961 . S
H743 C727 0.961 . S
H744 C728 0.931 . S
H745 C733 0.930 . S
H746 C734 0.956 . S
H747 C734 0.961 . S
H748 C734 0.961 . S
H749 C735 0.958 . S
H750 C735 0.961 . S
H751 C735 0.960 . S
C752 C753 1.391 . S
C752 C754 1.394 . S
C752 H768 0.931 . S
C753 C752 1.391 . S
C753 C757 1.376 . S
C754 C752 1.394 . S
C754 C755 1.369 . S
C754 C758 1.531 . S
C755 C754 1.369 . S
C755 C756 1.410 . S
C755 C763 1.503 . S
C756 C755 1.410 . S
C756 C757 1.392 . S
C756 C759 1.511 . S
C757 C753 1.376 . S
C757 C756 1.392 . S
C757 H769 0.929 . S
C758 C754 1.531 . S
C758 H770 0.960 . S
C758 H771 0.962 . S
C758 H772 0.960 . S
C759 C756 1.511 . S
C759 H773 0.961 . S
C759 H774 0.961 . S
C759 H775 0.961 . S
C760 C761 1.370 . S
C760 C762 1.363 . S
C760 H776 0.931 . S
C761 C760 1.370 . S
C761 C765 1.408 . S
C762 C760 1.363 . S
C762 C763 1.370 . S
C762 C766 1.524 . S
C763 C755 1.503 . S
C763 C762 1.370 . S
C763 C764 1.403 . S
C764 C763 1.403 . S
C764 C765 1.404 . S
C764 C767 1.539 . S
C765 C761 1.408 . S
C765 C764 1.404 . S
C765 H777 0.930 . S
C766 C762 1.524 . S
C766 H778 0.956 . S
C766 H779 0.961 . S
C766 H780 0.961 . S
C767 C764 1.539 . S
C767 H781 0.958 . S
C767 H782 0.961 . S
C767 H783 0.960 . S
H768 C752 0.931 . S
H769 C757 0.929 . S
H770 C758 0.960 . S
H771 C758 0.962 . S
H772 C758 0.960 . S
H773 C759 0.961 . S
H774 C759 0.961 . S
H775 C759 0.961 . S
H776 C760 0.931 . S
H777 C765 0.930 . S
H778 C766 0.956 . S
H779 C766 0.961 . S
H780 C766 0.961 . S
H781 C767 0.958 . S
H782 C767 0.961 . S
H783 C767 0.960 . S
C784 C785 1.391 . S
C784 C786 1.394 . S
C784 H800 0.931 . S
C785 C784 1.391 . S
C785 C789 1.376 . S
C786 C784 1.394 . S
C786 C787 1.369 . S
C786 C790 1.531 . S
C787 C786 1.369 . S
C787 C788 1.410 . S
C787 C795 1.503 . S
C788 C787 1.410 . S
C788 C789 1.392 . S
C788 C791 1.511 . S
C789 C785 1.376 . S
C789 C788 1.392 . S
C789 H801 0.929 . S
C790 C786 1.531 . S
C790 H802 0.960 . S
C790 H803 0.962 . S
C790 H804 0.960 . S
C791 C788 1.511 . S
C791 H805 0.961 . S
C791 H806 0.961 . S
C791 H807 0.961 . S
C792 C793 1.370 . S
C792 C794 1.363 . S
C792 H808 0.931 . S
C793 C792 1.370 . S
C793 C797 1.408 . S
C794 C792 1.363 . S
C794 C795 1.370 . S
C794 C798 1.524 . S
C795 C787 1.503 . S
C795 C794 1.370 . S
C795 C796 1.403 . S
C796 C795 1.403 . S
C796 C797 1.404 . S
C796 C799 1.539 . S
C797 C793 1.408 . S
C797 C796 1.404 . S
C797 H809 0.930 . S
C798 C794 1.524 . S
C798 H810 0.956 . S
C798 H811 0.961 . S
C798 H812 0.961 . S
C799 C796 1.539 . S
C799 H813 0.958 . S
C799 H814 0.961 . S
C799 H815 0.960 . S
H800 C784 0.931 . S
H801 C789 0.929 . S
H802 C790 0.960 . S
H803 C790 0.962 . S
H804 C790 0.960 . S
H805 C791 0.961 . S
H806 C791 0.961 . S
H807 C791 0.961 . S
H808 C792 0.931 . S
H809 C797 0.930 . S
H810 C798 0.956 . S
H811 C798 0.961 . S
H812 C798 0.961 . S
H813 C799 0.958 . S
H814 C799 0.961 . S
H815 C799 0.960 . S
C816 C817 1.391 . S
C816 C818 1.394 . S
C816 H832 0.931 . S
C817 C816 1.391 . S
C817 C821 1.376 . S
C818 C816 1.394 . S
C818 C819 1.369 . S
C818 C822 1.531 . S
C819 C818 1.369 . S
C819 C820 1.410 . S
C819 C827 1.503 . S
C820 C819 1.410 . S
C820 C821 1.392 . S
C820 C823 1.511 . S
C821 C817 1.376 . S
C821 C820 1.392 . S
C821 H833 0.929 . S
C822 C818 1.531 . S
C822 H834 0.960 . S
C822 H835 0.962 . S
C822 H836 0.960 . S
C823 C820 1.511 . S
C823 H837 0.961 . S
C823 H838 0.961 . S
C823 H839 0.961 . S
C824 C825 1.370 . S
C824 C826 1.363 . S
C824 H840 0.931 . S
C825 C824 1.370 . S
C825 C829 1.408 . S
C826 C824 1.363 . S
C826 C827 1.370 . S
C826 C830 1.524 . S
C827 C819 1.503 . S
C827 C826 1.370 . S
C827 C828 1.403 . S
C828 C827 1.403 . S
C828 C829 1.404 . S
C828 C831 1.539 . S
C829 C825 1.408 . S
C829 C828 1.404 . S
C829 H841 0.930 . S
C830 C826 1.524 . S
C830 H842 0.956 . S
C830 H843 0.961 . S
C830 H844 0.961 . S
C831 C828 1.539 . S
C831 H845 0.958 . S
C831 H846 0.961 . S
C831 H847 0.960 . S
H832 C816 0.931 . S
H833 C821 0.929 . S
H834 C822 0.960 . S
H835 C822 0.962 . S
H836 C822 0.960 . S
H837 C823 0.961 . S
H838 C823 0.961 . S
H839 C823 0.961 . S
H840 C824 0.931 . S
H841 C829 0.930 . S
H842 C830 0.956 . S
H843 C830 0.961 . S
H844 C830 0.961 . S
H845 C831 0.958 . S
H846 C831 0.961 . S
H847 C831 0.960 . S
C848 C849 1.391 . S
C848 C850 1.394 . S
C848 H864 0.931 . S
C849 C848 1.391 . S
C849 C853 1.376 . S
C850 C848 1.394 . S
C850 C851 1.369 . S
C850 C854 1.531 . S
C851 C850 1.369 . S
C851 C852 1.410 . S
C851 C859 1.503 . S
C852 C851 1.410 . S
C852 C853 1.392 . S
C852 C855 1.511 . S
C853 C849 1.376 . S
C853 C852 1.392 . S
C853 H865 0.929 . S
C854 C850 1.531 . S
C854 H866 0.960 . S
C854 H867 0.962 . S
C854 H868 0.960 . S
C855 C852 1.511 . S
C855 H869 0.961 . S
C855 H870 0.961 . S
C855 H871 0.961 . S
C856 C857 1.370 . S
C856 C858 1.363 . S
C856 H872 0.931 . S
C857 C856 1.370 . S
C857 C861 1.408 . S
C858 C856 1.363 . S
C858 C859 1.370 . S
C858 C862 1.524 . S
C859 C851 1.503 . S
C859 C858 1.370 . S
C859 C860 1.403 . S
C860 C859 1.403 . S
C860 C861 1.404 . S
C860 C863 1.539 . S
C861 C857 1.408 . S
C861 C860 1.404 . S
C861 H873 0.930 . S
C862 C858 1.524 . S
C862 H874 0.956 . S
C862 H875 0.961 . S
C862 H876 0.961 . S
C863 C860 1.539 . S
C863 H877 0.958 . S
C863 H878 0.961 . S
C863 H879 0.960 . S
H864 C848 0.931 . S
H865 C853 0.929 . S
H866 C854 0.960 . S
H867 C854 0.962 . S
H868 C854 0.960 . S
H869 C855 0.961 . S
H870 C855 0.961 . S
H871 C855 0.961 . S
H872 C856 0.931 . S
H873 C861 0.930 . S
H874 C862 0.956 . S
H875 C862 0.961 . S
H876 C862 0.961 . S
H877 C863 0.958 . S
H878 C863 0.961 . S
H879 C863 0.960 . S
C880 C881 1.391 . S
C880 C882 1.394 . S
C880 H896 0.931 . S
C881 C880 1.391 . S
C881 C885 1.376 . S
C882 C880 1.394 . S
C882 C883 1.369 . S
C882 C886 1.531 . S
C883 C882 1.369 . S
C883 C884 1.410 . S
C883 C891 1.503 . S
C884 C883 1.410 . S
C884 C885 1.392 . S
C884 C887 1.511 . S
C885 C881 1.376 . S
C885 C884 1.392 . S
C885 H897 0.929 . S
C886 C882 1.531 . S
C886 H898 0.960 . S
C886 H899 0.962 . S
C886 H900 0.960 . S
C887 C884 1.511 . S
C887 H901 0.961 . S
C887 H902 0.961 . S
C887 H903 0.961 . S
C888 C889 1.370 . S
C888 C890 1.363 . S
C888 H904 0.931 . S
C889 C888 1.370 . S
C889 C893 1.408 . S
C890 C888 1.363 . S
C890 C891 1.370 . S
C890 C894 1.524 . S
C891 C883 1.503 . S
C891 C890 1.370 . S
C891 C892 1.403 . S
C892 C891 1.403 . S
C892 C893 1.404 . S
C892 C895 1.539 . S
C893 C889 1.408 . S
C893 C892 1.404 . S
C893 H905 0.930 . S
C894 C890 1.524 . S
C894 H906 0.956 . S
C894 H907 0.961 . S
C894 H908 0.961 . S
C895 C892 1.539 . S
C895 H909 0.958 . S
C895 H910 0.961 . S
C895 H911 0.960 . S
H896 C880 0.931 . S
H897 C885 0.929 . S
H898 C886 0.960 . S
H899 C886 0.962 . S
H900 C886 0.960 . S
H901 C887 0.961 . S
H902 C887 0.961 . S
H903 C887 0.961 . S
H904 C888 0.931 . S
H905 C893 0.930 . S
H906 C894 0.956 . S
H907 C894 0.961 . S
H908 C894 0.961 . S
H909 C895 0.958 . S
H910 C895 0.961 . S
H911 C895 0.960 . S
C912 C913 1.391 . S
C912 C914 1.394 . S
C912 H928 0.931 . S
C913 C912 1.391 . S
C913 C917 1.376 . S
C914 C912 1.394 . S
C914 C915 1.369 . S
C914 C918 1.531 . S
C915 C914 1.369 . S
C915 C916 1.410 . S
C915 C923 1.503 . S
C916 C915 1.410 . S
C916 C917 1.392 . S
C916 C919 1.511 . S
C917 C913 1.376 . S
C917 C916 1.392 . S
C917 H929 0.929 . S
C918 C914 1.531 . S
C918 H930 0.960 . S
C918 H931 0.962 . S
C918 H932 0.960 . S
C919 C916 1.511 . S
C919 H933 0.961 . S
C919 H934 0.961 . S
C919 H935 0.961 . S
C920 C921 1.370 . S
C920 C922 1.363 . S
C920 H936 0.931 . S
C921 C920 1.370 . S
C921 C925 1.408 . S
C922 C920 1.363 . S
C922 C923 1.370 . S
C922 C926 1.524 . S
C923 C915 1.503 . S
C923 C922 1.370 . S
C923 C924 1.403 . S
C924 C923 1.403 . S
C924 C925 1.404 . S
C924 C927 1.539 . S
C925 C921 1.408 . S
C925 C924 1.404 . S
C925 H937 0.930 . S
C926 C922 1.524 . S
C926 H938 0.956 . S
C926 H939 0.961 . S
C926 H940 0.961 . S
C927 C924 1.539 . S
C927 H941 0.958 . S
C927 H942 0.961 . S
C927 H943 0.960 . S
H928 C912 0.931 . S
H929 C917 0.929 . S
H930 C918 0.960 . S
H931 C918 0.962 . S
H932 C918 0.960 . S
H933 C919 0.961 . S
H934 C919 0.961 . S
H935 C919 0.961 . S
H936 C920 0.931 . S
H937 C925 0.930 . S
H938 C926 0.956 . S
H939 C926 0.961 . S
H940 C926 0.961 . S
H941 C927 0.958 . S
H942 C927 0.961 . S
H943 C927 0.960 . S
C944 C945 1.391 . S
C944 C946 1.394 . S
C944 H960 0.931 . S
C945 C944 1.391 . S
C945 C949 1.376 . S
C946 C944 1.394 . S
C946 C947 1.369 . S
C946 C950 1.531 . S
C947 C946 1.369 . S
C947 C948 1.410 . S
C947 C955 1.503 . S
C948 C947 1.410 . S
C948 C949 1.392 . S
C948 C951 1.511 . S
C949 C945 1.376 . S
C949 C948 1.392 . S
C949 H961 0.929 . S
C950 C946 1.531 . S
C950 H962 0.960 . S
C950 H963 0.962 . S
C950 H964 0.960 . S
C951 C948 1.511 . S
C951 H965 0.961 . S
C951 H966 0.961 . S
C951 H967 0.961 . S
C952 C953 1.370 . S
C952 C954 1.363 . S
C952 H968 0.931 . S
C953 C952 1.370 . S
C953 C957 1.408 . S
C954 C952 1.363 . S
C954 C955 1.370 . S
C954 C958 1.524 . S
C955 C947 1.503 . S
C955 C954 1.370 . S
C955 C956 1.403 . S
C956 C955 1.403 . S
C956 C957 1.404 . S
C956 C959 1.539 . S
C957 C953 1.408 . S
C957 C956 1.404 . S
C957 H969 0.930 . S
C958 C954 1.524 . S
C958 H970 0.956 . S
C958 H971 0.961 . S
C958 H972 0.961 . S
C959 C956 1.539 . S
C959 H973 0.958 . S
C959 H974 0.961 . S
C959 H975 0.960 . S
H960 C944 0.931 . S
H961 C949 0.929 . S
H962 C950 0.960 . S
H963 C950 0.962 . S
H964 C950 0.960 . S
H965 C951 0.961 . S
H966 C951 0.961 . S
H967 C951 0.961 . S
H968 C952 0.931 . S
H969 C957 0.930 . S
H970 C958 0.956 . S
H971 C958 0.961 . S
H972 C958 0.961 . S
H973 C959 0.958 . S
H974 C959 0.961 . S
H975 C959 0.960 . S
C976 C977 1.391 . S
C976 C978 1.394 . S
C976 H992 0.931 . S
C977 C976 1.391 . S
C977 C981 1.376 . S
C978 C976 1.394 . S
C978 C979 1.369 . S
C978 C982 1.531 . S
C979 C978 1.369 . S
C979 C980 1.410 . S
C979 C987 1.503 . S
C980 C979 1.410 . S
C980 C981 1.392 . S
C980 C983 1.511 . S
C981 C977 1.376 . S
C981 C980 1.392 . S
C981 H993 0.929 . S
C982 C978 1.531 . S
C982 H994 0.960 . S
C982 H995 0.962 . S
C982 H996 0.960 . S
C983 C980 1.511 . S
C983 H997 0.961 . S
C983 H998 0.961 . S
C983 H999 0.961 . S
C984 C985 1.370 . S
C984 C986 1.363 . S
C984 H1000 0.931 . S
C985 C984 1.370 . S
C985 C989 1.408 . S
C986 C984 1.363 . S
C986 C987 1.370 . S
C986 C990 1.524 . S
C987 C979 1.503 . S
C987 C986 1.370 . S
C987 C988 1.403 . S
C988 C987 1.403 . S
C988 C989 1.404 . S
C988 C991 1.539 . S
C989 C985 1.408 . S
C989 C988 1.404 . S
C989 H1001 0.930 . S
C990 C986 1.524 . S
C990 H1002 0.956 . S
C990 H1003 0.961 . S
C990 H1004 0.961 . S
C991 C988 1.539 . S
C991 H1005 0.958 . S
C991 H1006 0.961 . S
C991 H1007 0.960 . S
H992 C976 0.931 . S
H993 C981 0.929 . S
H994 C982 0.960 . S
H995 C982 0.962 . S
H996 C982 0.960 . S
H997 C983 0.961 . S
H998 C983 0.961 . S
H999 C983 0.961 . S
H1000 C984 0.931 . S
H1001 C989 0.930 . S
H1002 C990 0.956 . S
H1003 C990 0.961 . S
H1004 C990 0.961 . S
H1005 C991 0.958 . S
H1006 C991 0.961 . S
H1007 C991 0.960 . S
C1008 C1009 1.391 . S
C1008 C1010 1.394 . S
C1008 H1024 0.931 . S
C1009 C1008 1.391 . S
C1009 C1013 1.376 . S
C1010 C1008 1.394 . S
C1010 C1011 1.369 . S
C1010 C1014 1.531 . S
C1011 C1010 1.369 . S
C1011 C1012 1.410 . S
C1011 C1019 1.503 . S
C1012 C1011 1.410 . S
C1012 C1013 1.392 . S
C1012 C1015 1.511 . S
C1013 C1009 1.376 . S
C1013 C1012 1.392 . S
C1013 H1025 0.929 . S
C1014 C1010 1.531 . S
C1014 H1026 0.960 . S
C1014 H1027 0.962 . S
C1014 H1028 0.960 . S
C1015 C1012 1.511 . S
C1015 H1029 0.961 . S
C1015 H1030 0.961 . S
C1015 H1031 0.961 . S
C1016 C1017 1.370 . S
C1016 C1018 1.363 . S
C1016 H1032 0.931 . S
C1017 C1016 1.370 . S
C1017 C1021 1.408 . S
C1018 C1016 1.363 . S
C1018 C1019 1.370 . S
C1018 C1022 1.524 . S
C1019 C1011 1.503 . S
C1019 C1018 1.370 . S
C1019 C1020 1.403 . S
C1020 C1019 1.403 . S
C1020 C1021 1.404 . S
C1020 C1023 1.539 . S
C1021 C1017 1.408 . S
C1021 C1020 1.404 . S
C1021 H1033 0.930 . S
C1022 C1018 1.524 . S
C1022 H1034 0.956 . S
C1022 H1035 0.961 . S
C1022 H1036 0.961 . S
C1023 C1020 1.539 . S
C1023 H1037 0.958 . S
C1023 H1038 0.961 . S
C1023 H1039 0.960 . S
H1024 C1008 0.931 . S
H1025 C1013 0.929 . S
H1026 C1014 0.960 . S
H1027 C1014 0.962 . S
H1028 C1014 0.960 . S
H1029 C1015 0.961 . S
H1030 C1015 0.961 . S
H1031 C1015 0.961 . S
H1032 C1016 0.931 . S
H1033 C1021 0.930 . S
H1034 C1022 0.956 . S
H1035 C1022 0.961 . S
H1036 C1022 0.961 . S
H1037 C1023 0.958 . S
H1038 C1023 0.961 . S
H1039 C1023 0.960 . S
C1040 C1041 1.391 . S
C1040 C1042 1.394 . S
C1040 H1056 0.931 . S
C1041 C1040 1.391 . S
C1041 C1045 1.376 . S
C1042 C1040 1.394 . S
C1042 C1043 1.369 . S
C1042 C1046 1.531 . S
C1043 C1042 1.369 . S
C1043 C1044 1.410 . S
C1043 C1051 1.503 . S
C1044 C1043 1.410 . S
C1044 C1045 1.392 . S
C1044 C1047 1.511 . S
C1045 C1041 1.376 . S
C1045 C1044 1.392 . S
C1045 H1057 0.929 . S
C1046 C1042 1.531 . S
C1046 H1058 0.960 . S
C1046 H1059 0.962 . S
C1046 H1060 0.960 . S
C1047 C1044 1.511 . S
C1047 H1061 0.961 . S
C1047 H1062 0.961 . S
C1047 H1063 0.961 . S
C1048 C1049 1.370 . S
C1048 C1050 1.363 . S
C1048 H1064 0.931 . S
C1049 C1048 1.370 . S
C1049 C1053 1.408 . S
C1050 C1048 1.363 . S
C1050 C1051 1.370 . S
C1050 C1054 1.524 . S
C1051 C1043 1.503 . S
C1051 C1050 1.370 . S
C1051 C1052 1.403 . S
C1052 C1051 1.403 . S
C1052 C1053 1.404 . S
C1052 C1055 1.539 . S
C1053 C1049 1.408 . S
C1053 C1052 1.404 . S
C1053 H1065 0.930 . S
C1054 C1050 1.524 . S
C1054 H1066 0.956 . S
C1054 H1067 0.961 . S
C1054 H1068 0.961 . S
C1055 C1052 1.539 . S
C1055 H1069 0.958 . S
C1055 H1070 0.961 . S
C1055 H1071 0.960 . S
H1056 C1040 0.931 . S
H1057 C1045 0.929 . S
H1058 C1046 0.960 . S
H1059 C1046 0.962 . S
H1060 C1046 0.960 . S
H1061 C1047 0.961 . S
H1062 C1047 0.961 . S
H1063 C1047 0.961 . S
H1064 C1048 0.931 . S
H1065 C1053 0.930 . S
H1066 C1054 0.956 . S
H1067 C1054 0.961 . S
H1068 C1054 0.961 . S
H1069 C1055 0.958 . S
H1070 C1055 0.961 . S
H1071 C1055 0.960 . S
C1072 C1073 1.391 . S
C1072 C1074 1.394 . S
C1072 H1088 0.931 . S
C1073 C1072 1.391 . S
C1073 C1077 1.376 . S
C1074 C1072 1.394 . S
C1074 C1075 1.369 . S
C1074 C1078 1.531 . S
C1075 C1074 1.369 . S
C1075 C1076 1.410 . S
C1075 C1083 1.503 . S
C1076 C1075 1.410 . S
C1076 C1077 1.392 . S
C1076 C1079 1.511 . S
C1077 C1073 1.376 . S
C1077 C1076 1.392 . S
C1077 H1089 0.929 . S
C1078 C1074 1.531 . S
C1078 H1090 0.960 . S
C1078 H1091 0.962 . S
C1078 H1092 0.960 . S
C1079 C1076 1.511 . S
C1079 H1093 0.961 . S
C1079 H1094 0.961 . S
C1079 H1095 0.961 . S
C1080 C1081 1.370 . S
C1080 C1082 1.363 . S
C1080 H1096 0.931 . S
C1081 C1080 1.370 . S
C1081 C1085 1.408 . S
C1082 C1080 1.363 . S
C1082 C1083 1.370 . S
C1082 C1086 1.524 . S
C1083 C1075 1.503 . S
C1083 C1082 1.370 . S
C1083 C1084 1.403 . S
C1084 C1083 1.403 . S
C1084 C1085 1.404 . S
C1084 C1087 1.539 . S
C1085 C1081 1.408 . S
C1085 C1084 1.404 . S
C1085 H1097 0.930 . S
C1086 C1082 1.524 . S
C1086 H1098 0.956 . S
C1086 H1099 0.961 . S
C1086 H1100 0.961 . S
C1087 C1084 1.539 . S
C1087 H1101 0.958 . S
C1087 H1102 0.961 . S
C1087 H1103 0.960 . S
H1088 C1072 0.931 . S
H1089 C1077 0.929 . S
H1090 C1078 0.960 . S
H1091 C1078 0.962 . S
H1092 C1078 0.960 . S
H1093 C1079 0.961 . S
H1094 C1079 0.961 . S
H1095 C1079 0.961 . S
H1096 C1080 0.931 . S
H1097 C1085 0.930 . S
H1098 C1086 0.956 . S
H1099 C1086 0.961 . S
H1100 C1086 0.961 . S
H1101 C1087 0.958 . S
H1102 C1087 0.961 . S
H1103 C1087 0.960 . S
C1104 C1105 1.391 . S
C1104 C1106 1.394 . S
C1104 H1120 0.931 . S
C1105 C1104 1.391 . S
C1105 C1109 1.376 . S
C1106 C1104 1.394 . S
C1106 C1107 1.369 . S
C1106 C1110 1.531 . S
C1107 C1106 1.369 . S
C1107 C1108 1.410 . S
C1107 C1115 1.503 1_455 S
C1108 C1107 1.410 . S
C1108 C1109 1.392 . S
C1108 C1111 1.511 . S
C1109 C1105 1.376 . S
C1109 C1108 1.392 . S
C1109 H1121 0.929 . S
C1110 C1106 1.531 . S
C1110 H1122 0.960 1_455 S
C1110 H1123 0.962 . S
C1110 H1124 0.960 . S
C1111 C1108 1.511 . S
C1111 H1125 0.961 . S
C1111 H1126 0.961 1_455 S
C1111 H1127 0.961 . S
C1112 C1113 1.370 . S
C1112 C1114 1.363 . S
C1112 H1128 0.931 . S
C1113 C1112 1.370 . S
C1113 C1117 1.408 . S
C1114 C1112 1.363 . S
C1114 C1115 1.370 . S
C1114 C1118 1.524 . S
C1115 C1107 1.503 1_655 S
C1115 C1114 1.370 . S
C1115 C1116 1.403 . S
C1116 C1115 1.403 . S
C1116 C1117 1.404 . S
C1116 C1119 1.539 . S
C1117 C1113 1.408 . S
C1117 C1116 1.404 . S
C1117 H1129 0.930 . S
C1118 C1114 1.524 . S
C1118 H1130 0.980 . S
C1118 H1131 0.933 1_655 S
C1118 H1132 0.961 . S
C1119 C1116 1.539 . S
C1119 H1133 0.958 . S
C1119 H1134 0.961 . S
C1119 H1135 0.970 . S
H1120 C1104 0.931 . S
H1121 C1109 0.929 . S
H1122 C1110 0.960 1_655 S
H1123 C1110 0.962 . S
H1124 C1110 0.960 . S
H1125 C1111 0.961 . S
H1126 C1111 0.961 1_655 S
H1127 C1111 0.961 . S
H1128 C1112 0.931 . S
H1129 C1117 0.930 . S
H1130 C1118 0.980 . S
H1131 C1118 0.933 1_455 S
H1132 C1118 0.961 . S
H1133 C1119 0.958 . S
H1134 C1119 0.961 . S
H1135 C1119 0.970 . S
C1136 C1137 1.391 . S
C1136 C1138 1.394 . S
C1136 H1152 0.931 . S
C1137 C1136 1.391 . S
C1137 C1141 1.376 . S
C1138 C1136 1.394 . S
C1138 C1139 1.369 . S
C1138 C1142 1.531 . S
C1139 C1138 1.369 . S
C1139 C1140 1.410 . S
C1139 C1147 1.503 1_545 S
C1140 C1139 1.410 . S
C1140 C1141 1.392 . S
C1140 C1143 1.511 . S
C1141 C1137 1.376 . S
C1141 C1140 1.392 . S
C1141 H1153 0.929 . S
C1142 C1138 1.531 . S
C1142 H1154 0.960 1_545 S
C1142 H1155 0.962 . S
C1142 H1156 0.960 . S
C1143 C1140 1.511 . S
C1143 H1157 0.961 . S
C1143 H1158 0.961 1_545 S
C1143 H1159 0.961 . S
C1144 C1145 1.370 . S
C1144 C1146 1.363 . S
C1144 H1160 0.931 . S
C1145 C1144 1.370 . S
C1145 C1149 1.408 . S
C1146 C1144 1.363 . S
C1146 C1147 1.370 . S
C1146 C1150 1.524 . S
C1147 C1139 1.503 1_565 S
C1147 C1146 1.370 . S
C1147 C1148 1.403 . S
C1148 C1147 1.403 . S
C1148 C1149 1.404 . S
C1148 C1151 1.539 . S
C1149 C1145 1.408 . S
C1149 C1148 1.404 . S
C1149 H1161 0.930 . S
C1150 C1146 1.524 . S
C1150 H1162 0.956 . S
C1150 H1163 0.950 1_565 S
C1150 H1164 0.961 . S
C1151 C1148 1.539 . S
C1151 H1165 0.958 . S
C1151 H1166 0.961 . S
C1151 H1167 0.935 1_565 S
H1152 C1136 0.931 . S
H1153 C1141 0.929 . S
H1154 C1142 0.960 1_565 S
H1155 C1142 0.962 . S
H1156 C1142 0.960 . S
H1157 C1143 0.961 . S
H1158 C1143 0.961 1_565 S
H1159 C1143 0.961 . S
H1160 C1144 0.931 . S
H1161 C1149 0.930 . S
H1162 C1150 0.956 . S
H1163 C1150 0.950 1_545 S
H1164 C1150 0.961 . S
H1165 C1151 0.958 . S
H1166 C1151 0.961 . S
H1167 C1151 0.935 1_545 S
C1168 C1169 1.391 . S
C1168 C1170 1.394 . S
C1168 H1184 0.931 . S
C1169 C1168 1.391 . S
C1169 C1173 1.376 . S
C1170 C1168 1.394 . S
C1170 C1171 1.369 . S
C1170 C1174 1.531 . S
C1171 C1170 1.369 . S
C1171 C1172 1.410 . S
C1171 C1179 1.503 1_655 S
C1172 C1171 1.410 . S
C1172 C1173 1.392 . S
C1172 C1175 1.511 . S
C1173 C1169 1.376 . S
C1173 C1172 1.392 . S
C1173 H1185 0.929 . S
C1174 C1170 1.531 . S
C1174 H1186 0.960 1_655 S
C1174 H1187 0.962 . S
C1174 H1188 0.960 . S
C1175 C1172 1.511 . S
C1175 H1189 0.961 . S
C1175 H1190 0.961 1_655 S
C1175 H1191 0.961 . S
C1176 C1177 1.370 . S
C1176 C1178 1.363 . S
C1176 H1192 0.931 . S
C1177 C1176 1.370 . S
C1177 C1181 1.408 . S
C1178 C1176 1.363 . S
C1178 C1179 1.370 . S
C1178 C1182 1.524 . S
C1179 C1171 1.503 1_455 S
C1179 C1178 1.370 . S
C1179 C1180 1.403 . S
C1180 C1179 1.403 . S
C1180 C1181 1.404 . S
C1180 C1183 1.539 . S
C1181 C1177 1.408 . S
C1181 C1180 1.404 . S
C1181 H1193 0.930 . S
C1182 C1178 1.524 . S
C1182 H1194 0.958 . S
C1182 H1195 0.961 1_455 S
C1182 H1196 0.961 . S
C1183 C1180 1.539 . S
C1183 H1197 0.958 . S
C1183 H1198 0.961 . S
C1183 H1199 0.960 . S
H1184 C1168 0.931 . S
H1185 C1173 0.929 . S
H1186 C1174 0.960 1_455 S
H1187 C1174 0.962 . S
H1188 C1174 0.960 . S
H1189 C1175 0.961 . S
H1190 C1175 0.961 1_455 S
H1191 C1175 0.961 . S
H1192 C1176 0.931 . S
H1193 C1181 0.930 . S
H1194 C1182 0.958 . S
H1195 C1182 0.961 1_655 S
H1196 C1182 0.961 . S
H1197 C1183 0.958 . S
H1198 C1183 0.961 . S
H1199 C1183 0.960 . S
C1200 C1201 1.391 . S
C1200 C1202 1.394 . S
C1200 H1216 0.931 . S
C1201 C1200 1.391 . S
C1201 C1205 1.376 . S
C1202 C1200 1.394 . S
C1202 C1203 1.369 . S
C1202 C1206 1.531 . S
C1203 C1202 1.369 . S
C1203 C1204 1.410 . S
C1203 C1211 1.503 1_545 S
C1204 C1203 1.410 . S
C1204 C1205 1.392 . S
C1204 C1207 1.511 . S
C1205 C1201 1.376 . S
C1205 C1204 1.392 . S
C1205 H1217 0.929 . S
C1206 C1202 1.531 . S
C1206 H1218 0.960 1_545 S
C1206 H1219 0.962 . S
C1206 H1220 0.960 . S
C1207 C1204 1.511 . S
C1207 H1221 0.961 . S
C1207 H1222 0.961 1_545 S
C1207 H1223 0.961 . S
C1208 C1209 1.370 . S
C1208 C1210 1.363 . S
C1208 H1224 0.931 . S
C1209 C1208 1.370 . S
C1209 C1213 1.408 . S
C1210 C1208 1.363 . S
C1210 C1211 1.370 . S
C1210 C1214 1.524 . S
C1211 C1203 1.503 1_565 S
C1211 C1210 1.370 . S
C1211 C1212 1.403 . S
C1212 C1211 1.403 . S
C1212 C1213 1.404 . S
C1212 C1215 1.539 . S
C1213 C1209 1.408 . S
C1213 C1212 1.404 . S
C1213 H1225 0.930 . S
C1214 C1210 1.524 . S
C1214 H1226 0.965 . S
C1214 H1227 0.961 1_565 S
C1214 H1228 0.961 . S
C1215 C1212 1.539 . S
C1215 H1229 0.958 . S
C1215 H1230 0.961 . S
C1215 H1231 0.960 . S
H1216 C1200 0.931 . S
H1217 C1205 0.929 . S
H1218 C1206 0.960 1_565 S
H1219 C1206 0.962 . S
H1220 C1206 0.960 . S
H1221 C1207 0.961 . S
H1222 C1207 0.961 1_565 S
H1223 C1207 0.961 . S
H1224 C1208 0.931 . S
H1225 C1213 0.930 . S
H1226 C1214 0.965 . S
H1227 C1214 0.961 1_545 S
H1228 C1214 0.961 . S
H1229 C1215 0.958 . S
H1230 C1215 0.961 . S
H1231 C1215 0.960 . S
C1232 C1233 1.391 . S
C1232 C1234 1.394 . S
C1232 H1248 0.931 . S
C1233 C1232 1.391 . S
C1233 C1237 1.376 . S
C1234 C1232 1.394 . S
C1234 C1235 1.369 . S
C1234 C1238 1.531 . S
C1235 C1234 1.369 . S
C1235 C1236 1.410 . S
C1235 C1243 1.503 1_565 S
C1236 C1235 1.410 . S
C1236 C1237 1.392 . S
C1236 C1239 1.511 . S
C1237 C1233 1.376 . S
C1237 C1236 1.392 . S
C1237 H1249 0.929 . S
C1238 C1234 1.531 . S
C1238 H1250 0.960 1_565 S
C1238 H1251 0.962 . S
C1238 H1252 0.960 . S
C1239 C1236 1.511 . S
C1239 H1253 0.961 . S
C1239 H1254 0.961 1_565 S
C1239 H1255 0.961 . S
C1240 C1241 1.370 . S
C1240 C1242 1.363 . S
C1240 H1256 0.931 . S
C1241 C1240 1.370 . S
C1241 C1245 1.408 . S
C1242 C1240 1.363 . S
C1242 C1243 1.370 . S
C1242 C1246 1.524 . S
C1243 C1235 1.503 1_545 S
C1243 C1242 1.370 . S
C1243 C1244 1.403 . S
C1244 C1243 1.403 . S
C1244 C1245 1.404 . S
C1244 C1247 1.539 . S
C1245 C1241 1.408 . S
C1245 C1244 1.404 . S
C1245 H1257 0.930 . S
C1246 C1242 1.524 . S
C1246 H1258 0.956 . S
C1246 H1259 0.942 1_545 S
C1246 H1260 0.961 . S
C1247 C1244 1.539 . S
C1247 H1261 0.958 . S
C1247 H1262 0.961 . S
C1247 H1263 0.925 1_545 S
H1248 C1232 0.931 . S
H1249 C1237 0.929 . S
H1250 C1238 0.960 1_545 S
H1251 C1238 0.962 . S
H1252 C1238 0.960 . S
H1253 C1239 0.961 . S
H1254 C1239 0.961 1_545 S
H1255 C1239 0.961 . S
H1256 C1240 0.931 . S
H1257 C1245 0.930 . S
H1258 C1246 0.956 . S
H1259 C1246 0.942 1_565 S
H1260 C1246 0.961 . S
H1261 C1247 0.958 . S
H1262 C1247 0.961 . S
H1263 C1247 0.925 1_565 S
C1264 C1265 1.391 . S
C1264 C1266 1.394 . S
C1264 H1280 0.931 . S
C1265 C1264 1.391 . S
C1265 C1269 1.376 . S
C1266 C1264 1.394 . S
C1266 C1267 1.369 . S
C1266 C1270 1.531 . S
C1267 C1266 1.369 . S
C1267 C1268 1.410 . S
C1267 C1275 1.503 1_655 S
C1268 C1267 1.410 . S
C1268 C1269 1.392 . S
C1268 C1271 1.511 . S
C1269 C1265 1.376 . S
C1269 C1268 1.392 . S
C1269 H1281 0.929 . S
C1270 C1266 1.531 . S
C1270 H1282 0.960 1_655 S
C1270 H1283 0.962 . S
C1270 H1284 0.960 . S
C1271 C1268 1.511 . S
C1271 H1285 0.961 . S
C1271 H1286 0.961 1_655 S
C1271 H1287 0.961 . S
C1272 C1273 1.370 . S
C1272 C1274 1.363 . S
C1272 H1288 0.931 . S
C1273 C1272 1.370 . S
C1273 C1277 1.408 . S
C1274 C1272 1.363 . S
C1274 C1275 1.370 . S
C1274 C1278 1.524 . S
C1275 C1267 1.503 1_455 S
C1275 C1274 1.370 . S
C1275 C1276 1.403 . S
C1276 C1275 1.403 . S
C1276 C1277 1.404 . S
C1276 C1279 1.539 . S
C1277 C1273 1.408 . S
C1277 C1276 1.404 . S
C1277 H1289 0.930 . S
C1278 C1274 1.524 . S
C1278 H1290 0.981 . S
C1278 H1291 0.934 1_455 S
C1278 H1292 0.961 . S
C1279 C1276 1.539 . S
C1279 H1293 0.958 . S
C1279 H1294 0.961 . S
C1279 H1295 0.968 . S
H1280 C1264 0.931 . S
H1281 C1269 0.929 . S
H1282 C1270 0.960 1_455 S
H1283 C1270 0.962 . S
H1284 C1270 0.960 . S
H1285 C1271 0.961 . S
H1286 C1271 0.961 1_455 S
H1287 C1271 0.961 . S
H1288 C1272 0.931 . S
H1289 C1277 0.930 . S
H1290 C1278 0.981 . S
H1291 C1278 0.934 1_655 S
H1292 C1278 0.961 . S
H1293 C1279 0.958 . S
H1294 C1279 0.961 . S
H1295 C1279 0.968 . S
C1296 C1297 1.391 . S
C1296 C1298 1.394 . S
C1296 H1312 0.931 . S
C1297 C1296 1.391 . S
C1297 C1301 1.376 . S
C1298 C1296 1.394 . S
C1298 C1299 1.369 . S
C1298 C1302 1.531 . S
C1299 C1298 1.369 . S
C1299 C1300 1.410 . S
C1299 C1307 1.503 1_565 S
C1300 C1299 1.410 . S
C1300 C1301 1.392 . S
C1300 C1303 1.511 . S
C1301 C1297 1.376 . S
C1301 C1300 1.392 . S
C1301 H1313 0.929 . S
C1302 C1298 1.531 . S
C1302 H1314 0.960 1_565 S
C1302 H1315 0.962 . S
C1302 H1316 0.960 . S
C1303 C1300 1.511 . S
C1303 H1317 0.961 . S
C1303 H1318 0.961 1_565 S
C1303 H1319 0.961 . S
C1304 C1305 1.370 . S
C1304 C1306 1.363 . S
C1304 H1320 0.931 . S
C1305 C1304 1.370 . S
C1305 C1309 1.408 . S
C1306 C1304 1.363 . S
C1306 C1307 1.370 . S
C1306 C1310 1.524 . S
C1307 C1299 1.503 1_545 S
C1307 C1306 1.370 . S
C1307 C1308 1.403 . S
C1308 C1307 1.403 . S
C1308 C1309 1.404 . S
C1308 C1311 1.539 . S
C1309 C1305 1.408 . S
C1309 C1308 1.404 . S
C1309 H1321 0.930 . S
C1310 C1306 1.524 . S
C1310 H1322 0.956 . S
C1310 H1323 0.946 1_545 S
C1310 H1324 0.961 . S
C1311 C1308 1.539 . S
C1311 H1325 0.958 . S
C1311 H1326 0.961 . S
C1311 H1327 0.924 1_545 S
H1312 C1296 0.931 . S
H1313 C1301 0.929 . S
H1314 C1302 0.960 1_545 S
H1315 C1302 0.962 . S
H1316 C1302 0.960 . S
H1317 C1303 0.961 . S
H1318 C1303 0.961 1_545 S
H1319 C1303 0.961 . S
H1320 C1304 0.931 . S
H1321 C1309 0.930 . S
H1322 C1310 0.956 . S
H1323 C1310 0.946 1_565 S
H1324 C1310 0.961 . S
H1325 C1311 0.958 . S
H1326 C1311 0.961 . S
H1327 C1311 0.924 1_565 S
C1328 C1329 1.391 . S
C1328 C1330 1.394 . S
C1328 H1344 0.931 . S
C1329 C1328 1.391 . S
C1329 C1333 1.376 . S
C1330 C1328 1.394 . S
C1330 C1331 1.369 . S
C1330 C1334 1.531 . S
C1331 C1330 1.369 . S
C1331 C1332 1.410 . S
C1331 C1339 1.503 1_655 S
C1332 C1331 1.410 . S
C1332 C1333 1.392 . S
C1332 C1335 1.511 . S
C1333 C1329 1.376 . S
C1333 C1332 1.392 . S
C1333 H1345 0.929 . S
C1334 C1330 1.531 . S
C1334 H1346 0.960 1_655 S
C1334 H1347 0.962 . S
C1334 H1348 0.960 . S
C1335 C1332 1.511 . S
C1335 H1349 0.961 . S
C1335 H1350 0.961 1_655 S
C1335 H1351 0.961 . S
C1336 C1337 1.370 . S
C1336 C1338 1.363 . S
C1336 H1352 0.931 . S
C1337 C1336 1.370 . S
C1337 C1341 1.408 . S
C1338 C1336 1.363 . S
C1338 C1339 1.370 . S
C1338 C1342 1.524 . S
C1339 C1331 1.503 1_455 S
C1339 C1338 1.370 . S
C1339 C1340 1.403 . S
C1340 C1339 1.403 . S
C1340 C1341 1.404 . S
C1340 C1343 1.539 . S
C1341 C1337 1.408 . S
C1341 C1340 1.404 . S
C1341 H1353 0.930 . S
C1342 C1338 1.524 . S
C1342 H1354 0.956 . S
C1342 H1355 0.961 1_455 S
C1342 H1356 0.961 . S
C1343 C1340 1.539 . S
C1343 H1357 0.958 . S
C1343 H1358 0.961 . S
C1343 H1359 0.942 1_455 S
H1344 C1328 0.931 . S
H1345 C1333 0.929 . S
H1346 C1334 0.960 1_455 S
H1347 C1334 0.962 . S
H1348 C1334 0.960 . S
H1349 C1335 0.961 . S
H1350 C1335 0.961 1_455 S
H1351 C1335 0.961 . S
H1352 C1336 0.931 . S
H1353 C1341 0.930 . S
H1354 C1342 0.956 . S
H1355 C1342 0.961 1_655 S
H1356 C1342 0.961 . S
H1357 C1343 0.958 . S
H1358 C1343 0.961 . S
H1359 C1343 0.942 1_655 S
C1360 C1361 1.391 . S
C1360 C1362 1.394 . S
C1360 H1376 0.931 . S
C1361 C1360 1.391 . S
C1361 C1365 1.376 . S
C1362 C1360 1.394 . S
C1362 C1363 1.369 . S
C1362 C1366 1.531 . S
C1363 C1362 1.369 . S
C1363 C1364 1.410 . S
C1363 C1371 1.503 1_556 S
C1364 C1363 1.410 . S
C1364 C1365 1.392 . S
C1364 C1367 1.511 . S
C1365 C1361 1.376 . S
C1365 C1364 1.392 . S
C1365 H1377 0.929 . S
C1366 C1362 1.531 . S
C1366 H1378 0.960 1_556 S
C1366 H1379 0.962 . S
C1366 H1380 0.960 . S
C1367 C1364 1.511 . S
C1367 H1381 0.961 . S
C1367 H1382 0.961 1_556 S
C1367 H1383 0.961 . S
C1368 C1369 1.370 . S
C1368 C1370 1.363 . S
C1368 H1384 0.931 . S
C1369 C1368 1.370 . S
C1369 C1373 1.408 . S
C1370 C1368 1.363 . S
C1370 C1371 1.370 . S
C1370 C1374 1.524 . S
C1371 C1363 1.503 1_554 S
C1371 C1370 1.370 . S
C1371 C1372 1.403 . S
C1372 C1371 1.403 . S
C1372 C1373 1.404 . S
C1372 C1375 1.539 . S
C1373 C1369 1.408 . S
C1373 C1372 1.404 . S
C1373 H1385 0.930 . S
C1374 C1370 1.524 . S
C1374 H1386 0.964 . S
C1374 H1387 0.961 1_554 S
C1374 H1388 0.961 . S
C1375 C1372 1.539 . S
C1375 H1389 0.958 . S
C1375 H1390 0.961 . S
C1375 H1391 0.960 . S
H1376 C1360 0.931 . S
H1377 C1365 0.929 . S
H1378 C1366 0.960 1_554 S
H1379 C1366 0.962 . S
H1380 C1366 0.960 . S
H1381 C1367 0.961 . S
H1382 C1367 0.961 1_554 S
H1383 C1367 0.961 . S
H1384 C1368 0.931 . S
H1385 C1373 0.930 . S
H1386 C1374 0.964 . S
H1387 C1374 0.961 1_556 S
H1388 C1374 0.961 . S
H1389 C1375 0.958 . S
H1390 C1375 0.961 . S
H1391 C1375 0.960 . S
C1392 C1393 1.391 . S
C1392 C1394 1.394 . S
C1392 H1408 0.931 . S
C1393 C1392 1.391 . S
C1393 C1397 1.376 . S
C1394 C1392 1.394 . S
C1394 C1395 1.369 . S
C1394 C1398 1.531 . S
C1395 C1394 1.369 . S
C1395 C1396 1.410 . S
C1395 C1403 1.503 1_556 S
C1396 C1395 1.410 . S
C1396 C1397 1.392 . S
C1396 C1399 1.511 . S
C1397 C1393 1.376 . S
C1397 C1396 1.392 . S
C1397 H1409 0.929 . S
C1398 C1394 1.531 . S
C1398 H1410 0.960 1_556 S
C1398 H1411 0.962 . S
C1398 H1412 0.960 . S
C1399 C1396 1.511 . S
C1399 H1413 0.961 . S
C1399 H1414 0.961 1_556 S
C1399 H1415 0.961 . S
C1400 C1401 1.370 . S
C1400 C1402 1.363 . S
C1400 H1416 0.931 . S
C1401 C1400 1.370 . S
C1401 C1405 1.408 . S
C1402 C1400 1.363 . S
C1402 C1403 1.370 . S
C1402 C1406 1.524 . S
C1403 C1395 1.503 1_554 S
C1403 C1402 1.370 . S
C1403 C1404 1.403 . S
C1404 C1403 1.403 . S
C1404 C1405 1.404 . S
C1404 C1407 1.539 . S
C1405 C1401 1.408 . S
C1405 C1404 1.404 . S
C1405 H1417 0.930 . S
C1406 C1402 1.524 . S
C1406 H1418 0.956 . S
C1406 H1419 0.961 1_554 S
C1406 H1420 0.961 . S
C1407 C1404 1.539 . S
C1407 H1421 0.958 . S
C1407 H1422 0.961 . S
C1407 H1423 0.959 1_554 S
H1408 C1392 0.931 . S
H1409 C1397 0.929 . S
H1410 C1398 0.960 1_554 S
H1411 C1398 0.962 . S
H1412 C1398 0.960 . S
H1413 C1399 0.961 . S
H1414 C1399 0.961 1_554 S
H1415 C1399 0.961 . S
H1416 C1400 0.931 . S
H1417 C1405 0.930 . S
H1418 C1406 0.956 . S
H1419 C1406 0.961 1_556 S
H1420 C1406 0.961 . S
H1421 C1407 0.958 . S
H1422 C1407 0.961 . S
H1423 C1407 0.959 1_556 S
C1424 C1425 1.391 . S
C1424 C1426 1.394 . S
C1424 H1440 0.931 . S
C1425 C1424 1.391 . S
C1425 C1429 1.376 . S
C1426 C1424 1.394 . S
C1426 C1427 1.369 . S
C1426 C1430 1.531 . S
C1427 C1426 1.369 . S
C1427 C1428 1.410 . S
C1427 C1435 1.503 1_556 S
C1428 C1427 1.410 . S
C1428 C1429 1.392 . S
C1428 C1431 1.511 . S
C1429 C1425 1.376 . S
C1429 C1428 1.392 . S
C1429 H1441 0.929 . S
C1430 C1426 1.531 . S
C1430 H1442 0.960 1_556 S
C1430 H1443 0.962 . S
C1430 H1444 0.960 . S
C1431 C1428 1.511 . S
C1431 H1445 0.961 . S
C1431 H1446 0.961 1_556 S
C1431 H1447 0.961 . S
C1432 C1433 1.370 . S
C1432 C1434 1.363 . S
C1432 H1448 0.931 . S
C1433 C1432 1.370 . S
C1433 C1437 1.408 . S
C1434 C1432 1.363 . S
C1434 C1435 1.370 . S
C1434 C1438 1.524 . S
C1435 C1427 1.503 1_554 S
C1435 C1434 1.370 . S
C1435 C1436 1.403 . S
C1436 C1435 1.403 . S
C1436 C1437 1.404 . S
C1436 C1439 1.539 . S
C1437 C1433 1.408 . S
C1437 C1436 1.404 . S
C1437 H1449 0.930 . S
C1438 C1434 1.524 . S
C1438 H1450 0.967 . S
C1438 H1451 0.961 1_554 S
C1438 H1452 0.961 . S
C1439 C1436 1.539 . S
C1439 H1453 0.958 . S
C1439 H1454 0.961 . S
C1439 H1455 0.960 . S
H1440 C1424 0.931 . S
H1441 C1429 0.929 . S
H1442 C1430 0.960 1_554 S
H1443 C1430 0.962 . S
H1444 C1430 0.960 . S
H1445 C1431 0.961 . S
H1446 C1431 0.961 1_554 S
H1447 C1431 0.961 . S
H1448 C1432 0.931 . S
H1449 C1437 0.930 . S
H1450 C1438 0.967 . S
H1451 C1438 0.961 1_556 S
H1452 C1438 0.961 . S
H1453 C1439 0.958 . S
H1454 C1439 0.961 . S
H1455 C1439 0.960 . S
C1456 C1457 1.391 . S
C1456 C1458 1.394 . S
C1456 H1472 0.931 . S
C1457 C1456 1.391 . S
C1457 C1461 1.376 . S
C1458 C1456 1.394 . S
C1458 C1459 1.369 . S
C1458 C1462 1.531 . S
C1459 C1458 1.369 . S
C1459 C1460 1.410 . S
C1459 C1467 1.503 1_556 S
C1460 C1459 1.410 . S
C1460 C1461 1.392 . S
C1460 C1463 1.511 . S
C1461 C1457 1.376 . S
C1461 C1460 1.392 . S
C1461 H1473 0.929 . S
C1462 C1458 1.531 . S
C1462 H1474 0.960 1_556 S
C1462 H1475 0.962 . S
C1462 H1476 0.960 . S
C1463 C1460 1.511 . S
C1463 H1477 0.961 . S
C1463 H1478 0.961 1_556 S
C1463 H1479 0.961 . S
C1464 C1465 1.370 . S
C1464 C1466 1.363 . S
C1464 H1480 0.931 . S
C1465 C1464 1.370 . S
C1465 C1469 1.408 . S
C1466 C1464 1.363 . S
C1466 C1467 1.370 . S
C1466 C1470 1.524 . S
C1467 C1459 1.503 1_554 S
C1467 C1466 1.370 . S
C1467 C1468 1.403 . S
C1468 C1467 1.403 . S
C1468 C1469 1.404 . S
C1468 C1471 1.539 . S
C1469 C1465 1.408 . S
C1469 C1468 1.404 . S
C1469 H1481 0.930 . S
C1470 C1466 1.524 . S
C1470 H1482 0.962 . S
C1470 H1483 0.961 1_554 S
C1470 H1484 0.961 . S
C1471 C1468 1.539 . S
C1471 H1485 0.958 . S
C1471 H1486 0.961 . S
C1471 H1487 0.960 . S
H1472 C1456 0.931 . S
H1473 C1461 0.929 . S
H1474 C1462 0.960 1_554 S
H1475 C1462 0.962 . S
H1476 C1462 0.960 . S
H1477 C1463 0.961 . S
H1478 C1463 0.961 1_554 S
H1479 C1463 0.961 . S
H1480 C1464 0.931 . S
H1481 C1469 0.930 . S
H1482 C1470 0.962 . S
H1483 C1470 0.961 1_556 S
H1484 C1470 0.961 . S
H1485 C1471 0.958 . S
H1486 C1471 0.961 . S
H1487 C1471 0.960 . S
C1488 C1489 1.391 . S
C1488 C1490 1.394 . S
C1488 H1504 0.931 . S
C1489 C1488 1.391 . S
C1489 C1493 1.376 . S
C1490 C1488 1.394 . S
C1490 C1491 1.369 . S
C1490 C1494 1.531 . S
C1491 C1490 1.369 . S
C1491 C1492 1.410 . S
C1491 C1499 1.503 . S
C1492 C1491 1.410 . S
C1492 C1493 1.392 . S
C1492 C1495 1.511 . S
C1493 C1489 1.376 . S
C1493 C1492 1.392 . S
C1493 H1505 0.929 . S
C1494 C1490 1.531 . S
C1494 H1506 0.960 . S
C1494 H1507 0.962 . S
C1494 H1508 0.960 . S
C1495 C1492 1.511 . S
C1495 H1509 0.961 . S
C1495 H1510 0.961 . S
C1495 H1511 0.961 . S
C1496 C1497 1.370 . S
C1496 C1498 1.363 . S
C1496 H1512 0.931 . S
C1497 C1496 1.370 . S
C1497 C1501 1.408 . S
C1498 C1496 1.363 . S
C1498 C1499 1.370 . S
C1498 C1502 1.524 . S
C1499 C1491 1.503 . S
C1499 C1498 1.370 . S
C1499 C1500 1.403 . S
C1500 C1499 1.403 . S
C1500 C1501 1.404 . S
C1500 C1503 1.539 . S
C1501 C1497 1.408 . S
C1501 C1500 1.404 . S
C1501 H1513 0.930 . S
C1502 C1498 1.524 . S
C1502 H1514 0.956 . S
C1502 H1515 0.961 . S
C1502 H1516 0.961 . S
C1503 C1500 1.539 . S
C1503 H1517 0.958 . S
C1503 H1518 0.961 . S
C1503 H1519 0.960 . S
H1504 C1488 0.931 . S
H1505 C1493 0.929 . S
H1506 C1494 0.960 . S
H1507 C1494 0.962 . S
H1508 C1494 0.960 . S
H1509 C1495 0.961 . S
H1510 C1495 0.961 . S
H1511 C1495 0.961 . S
H1512 C1496 0.931 . S
H1513 C1501 0.930 . S
H1514 C1502 0.956 . S
H1515 C1502 0.961 . S
H1516 C1502 0.961 . S
H1517 C1503 0.958 . S
H1518 C1503 0.961 . S
H1519 C1503 0.960 . S
C1520 C1521 1.391 . S
C1520 C1522 1.394 . S
C1520 H1536 0.931 . S
C1521 C1520 1.391 . S
C1521 C1525 1.376 . S
C1522 C1520 1.394 . S
C1522 C1523 1.369 . S
C1522 C1526 1.531 . S
C1523 C1522 1.369 . S
C1523 C1524 1.410 . S
C1523 C1531 1.503 . S
C1524 C1523 1.410 . S
C1524 C1525 1.392 . S
C1524 C1527 1.511 . S
C1525 C1521 1.376 . S
C1525 C1524 1.392 . S
C1525 H1537 0.929 . S
C1526 C1522 1.531 . S
C1526 H1538 0.960 . S
C1526 H1539 0.962 . S
C1526 H1540 0.960 . S
C1527 C1524 1.511 . S
C1527 H1541 0.961 . S
C1527 H1542 0.961 . S
C1527 H1543 0.961 . S
C1528 C1529 1.370 . S
C1528 C1530 1.363 . S
C1528 H1544 0.931 . S
C1529 C1528 1.370 . S
C1529 C1533 1.408 . S
C1530 C1528 1.363 . S
C1530 C1531 1.370 . S
C1530 C1534 1.524 . S
C1531 C1523 1.503 . S
C1531 C1530 1.370 . S
C1531 C1532 1.403 . S
C1532 C1531 1.403 . S
C1532 C1533 1.404 . S
C1532 C1535 1.539 . S
C1533 C1529 1.408 . S
C1533 C1532 1.404 . S
C1533 H1545 0.930 . S
C1534 C1530 1.524 . S
C1534 H1546 0.956 . S
C1534 H1547 0.961 . S
C1534 H1548 0.961 . S
C1535 C1532 1.539 . S
C1535 H1549 0.958 . S
C1535 H1550 0.961 . S
C1535 H1551 0.960 . S
H1536 C1520 0.931 . S
H1537 C1525 0.929 . S
H1538 C1526 0.960 . S
H1539 C1526 0.962 . S
H1540 C1526 0.960 . S
H1541 C1527 0.961 . S
H1542 C1527 0.961 . S
H1543 C1527 0.961 . S
H1544 C1528 0.931 . S
H1545 C1533 0.930 . S
H1546 C1534 0.956 . S
H1547 C1534 0.961 . S
H1548 C1534 0.961 . S
H1549 C1535 0.958 . S
H1550 C1535 0.961 . S
H1551 C1535 0.960 . S
C1552 C1553 1.391 . S
C1552 C1554 1.394 . S
C1552 H1568 0.931 . S
C1553 C1552 1.391 . S
C1553 C1557 1.376 . S
C1554 C1552 1.394 . S
C1554 C1555 1.369 . S
C1554 C1558 1.531 . S
C1555 C1554 1.369 . S
C1555 C1556 1.410 . S
C1555 C1563 1.503 . S
C1556 C1555 1.410 . S
C1556 C1557 1.392 . S
C1556 C1559 1.511 . S
C1557 C1553 1.376 . S
C1557 C1556 1.392 . S
C1557 H1569 0.929 . S
C1558 C1554 1.531 . S
C1558 H1570 0.960 . S
C1558 H1571 0.962 . S
C1558 H1572 0.960 . S
C1559 C1556 1.511 . S
C1559 H1573 0.961 . S
C1559 H1574 0.961 . S
C1559 H1575 0.961 . S
C1560 C1561 1.370 . S
C1560 C1562 1.363 . S
C1560 H1576 0.931 . S
C1561 C1560 1.370 . S
C1561 C1565 1.408 . S
C1562 C1560 1.363 . S
C1562 C1563 1.370 . S
C1562 C1566 1.524 . S
C1563 C1555 1.503 . S
C1563 C1562 1.370 . S
C1563 C1564 1.403 . S
C1564 C1563 1.403 . S
C1564 C1565 1.404 . S
C1564 C1567 1.539 . S
C1565 C1561 1.408 . S
C1565 C1564 1.404 . S
C1565 H1577 0.930 . S
C1566 C1562 1.524 . S
C1566 H1578 0.956 . S
C1566 H1579 0.961 . S
C1566 H1580 0.961 . S
C1567 C1564 1.539 . S
C1567 H1581 0.958 . S
C1567 H1582 0.961 . S
C1567 H1583 0.960 . S
H1568 C1552 0.931 . S
H1569 C1557 0.929 . S
H1570 C1558 0.960 . S
H1571 C1558 0.962 . S
H1572 C1558 0.960 . S
H1573 C1559 0.961 . S
H1574 C1559 0.961 . S
H1575 C1559 0.961 . S
H1576 C1560 0.931 . S
H1577 C1565 0.930 . S
H1578 C1566 0.956 . S
H1579 C1566 0.961 . S
H1580 C1566 0.961 . S
H1581 C1567 0.958 . S
H1582 C1567 0.961 . S
H1583 C1567 0.960 . S
C1584 C1585 1.391 . S
C1584 C1586 1.394 . S
C1584 H1600 0.931 . S
C1585 C1584 1.391 . S
C1585 C1589 1.376 . S
C1586 C1584 1.394 . S
C1586 C1587 1.369 . S
C1586 C1590 1.531 . S
C1587 C1586 1.369 . S
C1587 C1588 1.410 . S
C1587 C1595 1.503 . S
C1588 C1587 1.410 . S
C1588 C1589 1.392 . S
C1588 C1591 1.511 . S
C1589 C1585 1.376 . S
C1589 C1588 1.392 . S
C1589 H1601 0.929 . S
C1590 C1586 1.531 . S
C1590 H1602 0.960 . S
C1590 H1603 0.962 . S
C1590 H1604 0.960 . S
C1591 C1588 1.511 . S
C1591 H1605 0.961 . S
C1591 H1606 0.961 . S
C1591 H1607 0.961 . S
C1592 C1593 1.370 . S
C1592 C1594 1.363 . S
C1592 H1608 0.931 . S
C1593 C1592 1.370 . S
C1593 C1597 1.408 . S
C1594 C1592 1.363 . S
C1594 C1595 1.370 . S
C1594 C1598 1.524 . S
C1595 C1587 1.503 . S
C1595 C1594 1.370 . S
C1595 C1596 1.403 . S
C1596 C1595 1.403 . S
C1596 C1597 1.404 . S
C1596 C1599 1.539 . S
C1597 C1593 1.408 . S
C1597 C1596 1.404 . S
C1597 H1609 0.930 . S
C1598 C1594 1.524 . S
C1598 H1610 0.956 . S
C1598 H1611 0.961 . S
C1598 H1612 0.961 . S
C1599 C1596 1.539 . S
C1599 H1613 0.958 . S
C1599 H1614 0.961 . S
C1599 H1615 0.960 . S
H1600 C1584 0.931 . S
H1601 C1589 0.929 . S
H1602 C1590 0.960 . S
H1603 C1590 0.962 . S
H1604 C1590 0.960 . S
H1605 C1591 0.961 . S
H1606 C1591 0.961 . S
H1607 C1591 0.961 . S
H1608 C1592 0.931 . S
H1609 C1597 0.930 . S
H1610 C1598 0.956 . S
H1611 C1598 0.961 . S
H1612 C1598 0.961 . S
H1613 C1599 0.958 . S
H1614 C1599 0.961 . S
H1615 C1599 0.960 . S
C1616 C1617 1.391 . S
C1616 C1618 1.394 . S
C1616 H1632 0.931 . S
C1617 C1616 1.391 . S
C1617 C1621 1.376 . S
C1618 C1616 1.394 . S
C1618 C1619 1.369 . S
C1618 C1622 1.531 . S
C1619 C1618 1.369 . S
C1619 C1620 1.410 . S
C1619 C1627 1.503 . S
C1620 C1619 1.410 . S
C1620 C1621 1.392 . S
C1620 C1623 1.511 . S
C1621 C1617 1.376 . S
C1621 C1620 1.392 . S
C1621 H1633 0.929 . S
C1622 C1618 1.531 . S
C1622 H1634 0.960 . S
C1622 H1635 0.962 . S
C1622 H1636 0.960 . S
C1623 C1620 1.511 . S
C1623 H1637 0.961 . S
C1623 H1638 0.961 . S
C1623 H1639 0.961 . S
C1624 C1625 1.370 . S
C1624 C1626 1.363 . S
C1624 H1640 0.931 . S
C1625 C1624 1.370 . S
C1625 C1629 1.408 . S
C1626 C1624 1.363 . S
C1626 C1627 1.370 . S
C1626 C1630 1.524 . S
C1627 C1619 1.503 . S
C1627 C1626 1.370 . S
C1627 C1628 1.403 . S
C1628 C1627 1.403 . S
C1628 C1629 1.404 . S
C1628 C1631 1.539 . S
C1629 C1625 1.408 . S
C1629 C1628 1.404 . S
C1629 H1641 0.930 . S
C1630 C1626 1.524 . S
C1630 H1642 0.956 . S
C1630 H1643 0.961 . S
C1630 H1644 0.961 . S
C1631 C1628 1.539 . S
C1631 H1645 0.958 . S
C1631 H1646 0.961 . S
C1631 H1647 0.960 . S
H1632 C1616 0.931 . S
H1633 C1621 0.929 . S
H1634 C1622 0.960 . S
H1635 C1622 0.962 . S
H1636 C1622 0.960 . S
H1637 C1623 0.961 . S
H1638 C1623 0.961 . S
H1639 C1623 0.961 . S
H1640 C1624 0.931 . S
H1641 C1629 0.930 . S
H1642 C1630 0.956 . S
H1643 C1630 0.961 . S
H1644 C1630 0.961 . S
H1645 C1631 0.958 . S
H1646 C1631 0.961 . S
H1647 C1631 0.960 . S
C1648 C1649 1.391 . S
C1648 C1650 1.394 . S
C1648 H1664 0.931 . S
C1649 C1648 1.391 . S
C1649 C1653 1.376 . S
C1650 C1648 1.394 . S
C1650 C1651 1.369 . S
C1650 C1654 1.531 . S
C1651 C1650 1.369 . S
C1651 C1652 1.410 . S
C1651 C1659 1.503 . S
C1652 C1651 1.410 . S
C1652 C1653 1.392 . S
C1652 C1655 1.511 . S
C1653 C1649 1.376 . S
C1653 C1652 1.392 . S
C1653 H1665 0.929 . S
C1654 C1650 1.531 . S
C1654 H1666 0.960 . S
C1654 H1667 0.962 . S
C1654 H1668 0.960 . S
C1655 C1652 1.511 . S
C1655 H1669 0.961 . S
C1655 H1670 0.961 . S
C1655 H1671 0.961 . S
C1656 C1657 1.370 . S
C1656 C1658 1.363 . S
C1656 H1672 0.931 . S
C1657 C1656 1.370 . S
C1657 C1661 1.408 . S
C1658 C1656 1.363 . S
C1658 C1659 1.370 . S
C1658 C1662 1.524 . S
C1659 C1651 1.503 . S
C1659 C1658 1.370 . S
C1659 C1660 1.403 . S
C1660 C1659 1.403 . S
C1660 C1661 1.404 . S
C1660 C1663 1.539 . S
C1661 C1657 1.408 . S
C1661 C1660 1.404 . S
C1661 H1673 0.930 . S
C1662 C1658 1.524 . S
C1662 H1674 0.956 . S
C1662 H1675 0.961 . S
C1662 H1676 0.961 . S
C1663 C1660 1.539 . S
C1663 H1677 0.958 . S
C1663 H1678 0.961 . S
C1663 H1679 0.960 . S
H1664 C1648 0.931 . S
H1665 C1653 0.929 . S
H1666 C1654 0.960 . S
H1667 C1654 0.962 . S
H1668 C1654 0.960 . S
H1669 C1655 0.961 . S
H1670 C1655 0.961 . S
H1671 C1655 0.961 . S
H1672 C1656 0.931 . S
H1673 C1661 0.930 . S
H1674 C1662 0.956 . S
H1675 C1662 0.961 . S
H1676 C1662 0.961 . S
H1677 C1663 0.958 . S
H1678 C1663 0.961 . S
H1679 C1663 0.960 . S
C1680 C1681 1.391 . S
C1680 C1682 1.394 . S
C1680 H1696 0.931 . S
C1681 C1680 1.391 . S
C1681 C1685 1.376 . S
C1682 C1680 1.394 . S
C1682 C1683 1.369 . S
C1682 C1686 1.531 . S
C1683 C1682 1.369 . S
C1683 C1684 1.410 . S
C1683 C1691 1.503 . S
C1684 C1683 1.410 . S
C1684 C1685 1.392 . S
C1684 C1687 1.511 . S
C1685 C1681 1.376 . S
C1685 C1684 1.392 . S
C1685 H1697 0.929 . S
C1686 C1682 1.531 . S
C1686 H1698 0.960 . S
C1686 H1699 0.962 . S
C1686 H1700 0.960 . S
C1687 C1684 1.511 . S
C1687 H1701 0.961 . S
C1687 H1702 0.961 . S
C1687 H1703 0.961 . S
C1688 C1689 1.370 . S
C1688 C1690 1.363 . S
C1688 H1704 0.931 . S
C1689 C1688 1.370 . S
C1689 C1693 1.408 . S
C1690 C1688 1.363 . S
C1690 C1691 1.370 . S
C1690 C1694 1.524 . S
C1691 C1683 1.503 . S
C1691 C1690 1.370 . S
C1691 C1692 1.403 . S
C1692 C1691 1.403 . S
C1692 C1693 1.404 . S
C1692 C1695 1.539 . S
C1693 C1689 1.408 . S
C1693 C1692 1.404 . S
C1693 H1705 0.930 . S
C1694 C1690 1.524 . S
C1694 H1706 0.956 . S
C1694 H1707 0.961 . S
C1694 H1708 0.961 . S
C1695 C1692 1.539 . S
C1695 H1709 0.958 . S
C1695 H1710 0.961 . S
C1695 H1711 0.960 . S
H1696 C1680 0.931 . S
H1697 C1685 0.929 . S
H1698 C1686 0.960 . S
H1699 C1686 0.962 . S
H1700 C1686 0.960 . S
H1701 C1687 0.961 . S
H1702 C1687 0.961 . S
H1703 C1687 0.961 . S
H1704 C1688 0.931 . S
H1705 C1693 0.930 . S
H1706 C1694 0.956 . S
H1707 C1694 0.961 . S
H1708 C1694 0.961 . S
H1709 C1695 0.958 . S
H1710 C1695 0.961 . S
H1711 C1695 0.960 . S
C1712 C1713 1.391 . S
C1712 C1714 1.394 . S
C1712 H1728 0.931 . S
C1713 C1712 1.391 . S
C1713 C1717 1.376 . S
C1714 C1712 1.394 . S
C1714 C1715 1.369 . S
C1714 C1718 1.531 . S
C1715 C1714 1.369 . S
C1715 C1716 1.410 . S
C1715 C1723 1.503 . S
C1716 C1715 1.410 . S
C1716 C1717 1.392 . S
C1716 C1719 1.511 . S
C1717 C1713 1.376 . S
C1717 C1716 1.392 . S
C1717 H1729 0.929 . S
C1718 C1714 1.531 . S
C1718 H1730 0.960 . S
C1718 H1731 0.962 . S
C1718 H1732 0.960 . S
C1719 C1716 1.511 . S
C1719 H1733 0.961 . S
C1719 H1734 0.961 . S
C1719 H1735 0.961 . S
C1720 C1721 1.370 . S
C1720 C1722 1.363 . S
C1720 H1736 0.931 . S
C1721 C1720 1.370 . S
C1721 C1725 1.408 . S
C1722 C1720 1.363 . S
C1722 C1723 1.370 . S
C1722 C1726 1.524 . S
C1723 C1715 1.503 . S
C1723 C1722 1.370 . S
C1723 C1724 1.403 . S
C1724 C1723 1.403 . S
C1724 C1725 1.404 . S
C1724 C1727 1.539 . S
C1725 C1721 1.408 . S
C1725 C1724 1.404 . S
C1725 H1737 0.930 . S
C1726 C1722 1.524 . S
C1726 H1738 0.956 . S
C1726 H1739 0.961 . S
C1726 H1740 0.961 . S
C1727 C1724 1.539 . S
C1727 H1741 0.958 . S
C1727 H1742 0.961 . S
C1727 H1743 0.960 . S
H1728 C1712 0.931 . S
H1729 C1717 0.929 . S
H1730 C1718 0.960 . S
H1731 C1718 0.962 . S
H1732 C1718 0.960 . S
H1733 C1719 0.961 . S
H1734 C1719 0.961 . S
H1735 C1719 0.961 . S
H1736 C1720 0.931 . S
H1737 C1725 0.930 . S
H1738 C1726 0.956 . S
H1739 C1726 0.961 . S
H1740 C1726 0.961 . S
H1741 C1727 0.958 . S
H1742 C1727 0.961 . S
H1743 C1727 0.960 . S
C1744 C1745 1.391 . S
C1744 C1746 1.394 . S
C1744 H1760 0.931 . S
C1745 C1744 1.391 . S
C1745 C1749 1.376 . S
C1746 C1744 1.394 . S
C1746 C1747 1.369 . S
C1746 C1750 1.531 . S
C1747 C1746 1.369 . S
C1747 C1748 1.410 . S
C1747 C1755 1.503 . S
C1748 C1747 1.410 . S
C1748 C1749 1.392 . S
C1748 C1751 1.511 . S
C1749 C1745 1.376 . S
C1749 C1748 1.392 . S
C1749 H1761 0.929 . S
C1750 C1746 1.531 . S
C1750 H1762 0.960 . S
C1750 H1763 0.962 . S
C1750 H1764 0.960 . S
C1751 C1748 1.511 . S
C1751 H1765 0.961 . S
C1751 H1766 0.961 . S
C1751 H1767 0.961 . S
C1752 C1753 1.370 . S
C1752 C1754 1.363 . S
C1752 H1768 0.931 . S
C1753 C1752 1.370 . S
C1753 C1757 1.408 . S
C1754 C1752 1.363 . S
C1754 C1755 1.370 . S
C1754 C1758 1.524 . S
C1755 C1747 1.503 . S
C1755 C1754 1.370 . S
C1755 C1756 1.403 . S
C1756 C1755 1.403 . S
C1756 C1757 1.404 . S
C1756 C1759 1.539 . S
C1757 C1753 1.408 . S
C1757 C1756 1.404 . S
C1757 H1769 0.930 . S
C1758 C1754 1.524 . S
C1758 H1770 0.956 . S
C1758 H1771 0.961 . S
C1758 H1772 0.961 . S
C1759 C1756 1.539 . S
C1759 H1773 0.958 . S
C1759 H1774 0.961 . S
C1759 H1775 0.960 . S
H1760 C1744 0.931 . S
H1761 C1749 0.929 . S
H1762 C1750 0.960 . S
H1763 C1750 0.962 . S
H1764 C1750 0.960 . S
H1765 C1751 0.961 . S
H1766 C1751 0.961 . S
H1767 C1751 0.961 . S
H1768 C1752 0.931 . S
H1769 C1757 0.930 . S
H1770 C1758 0.956 . S
H1771 C1758 0.961 . S
H1772 C1758 0.961 . S
H1773 C1759 0.958 . S
H1774 C1759 0.961 . S
H1775 C1759 0.960 . S
C1776 C1777 1.391 . S
C1776 C1778 1.394 . S
C1776 H1792 0.931 . S
C1777 C1776 1.391 . S
C1777 C1781 1.376 . S
C1778 C1776 1.394 . S
C1778 C1779 1.369 . S
C1778 C1782 1.531 . S
C1779 C1778 1.369 . S
C1779 C1780 1.410 . S
C1779 C1787 1.503 . S
C1780 C1779 1.410 . S
C1780 C1781 1.392 . S
C1780 C1783 1.511 . S
C1781 C1777 1.376 . S
C1781 C1780 1.392 . S
C1781 H1793 0.929 . S
C1782 C1778 1.531 . S
C1782 H1794 0.960 . S
C1782 H1795 0.962 . S
C1782 H1796 0.960 . S
C1783 C1780 1.511 . S
C1783 H1797 0.961 . S
C1783 H1798 0.961 . S
C1783 H1799 0.961 . S
C1784 C1785 1.370 . S
C1784 C1786 1.363 . S
C1784 H1800 0.931 . S
C1785 C1784 1.370 . S
C1785 C1789 1.408 . S
C1786 C1784 1.363 . S
C1786 C1787 1.370 . S
C1786 C1790 1.524 . S
C1787 C1779 1.503 . S
C1787 C1786 1.370 . S
C1787 C1788 1.403 . S
C1788 C1787 1.403 . S
C1788 C1789 1.404 . S
C1788 C1791 1.539 . S
C1789 C1785 1.408 . S
C1789 C1788 1.404 . S
C1789 H1801 0.930 . S
C1790 C1786 1.524 . S
C1790 H1802 0.956 . S
C1790 H1803 0.961 . S
C1790 H1804 0.961 . S
C1791 C1788 1.539 . S
C1791 H1805 0.958 . S
C1791 H1806 0.961 . S
C1791 H1807 0.960 . S
H1792 C1776 0.931 . S
H1793 C1781 0.929 . S
H1794 C1782 0.960 . S
H1795 C1782 0.962 . S
H1796 C1782 0.960 . S
H1797 C1783 0.961 . S
H1798 C1783 0.961 . S
H1799 C1783 0.961 . S
H1800 C1784 0.931 . S
H1801 C1789 0.930 . S
H1802 C1790 0.956 . S
H1803 C1790 0.961 . S
H1804 C1790 0.961 . S
H1805 C1791 0.958 . S
H1806 C1791 0.961 . S
H1807 C1791 0.960 . S
C1808 C1809 1.391 . S
C1808 C1810 1.394 . S
C1808 H1824 0.931 . S
C1809 C1808 1.391 . S
C1809 C1813 1.376 . S
C1810 C1808 1.394 . S
C1810 C1811 1.369 . S
C1810 C1814 1.531 . S
C1811 C1810 1.369 . S
C1811 C1812 1.410 . S
C1811 C1819 1.503 . S
C1812 C1811 1.410 . S
C1812 C1813 1.392 . S
C1812 C1815 1.511 . S
C1813 C1809 1.376 . S
C1813 C1812 1.392 . S
C1813 H1825 0.929 . S
C1814 C1810 1.531 . S
C1814 H1826 0.960 . S
C1814 H1827 0.962 . S
C1814 H1828 0.960 . S
C1815 C1812 1.511 . S
C1815 H1829 0.961 . S
C1815 H1830 0.961 . S
C1815 H1831 0.961 . S
C1816 C1817 1.370 . S
C1816 C1818 1.363 . S
C1816 H1832 0.931 . S
C1817 C1816 1.370 . S
C1817 C1821 1.408 . S
C1818 C1816 1.363 . S
C1818 C1819 1.370 . S
C1818 C1822 1.524 . S
C1819 C1811 1.503 . S
C1819 C1818 1.370 . S
C1819 C1820 1.403 . S
C1820 C1819 1.403 . S
C1820 C1821 1.404 . S
C1820 C1823 1.539 . S
C1821 C1817 1.408 . S
C1821 C1820 1.404 . S
C1821 H1833 0.930 . S
C1822 C1818 1.524 . S
C1822 H1834 0.956 . S
C1822 H1835 0.961 . S
C1822 H1836 0.961 . S
C1823 C1820 1.539 . S
C1823 H1837 0.958 . S
C1823 H1838 0.961 . S
C1823 H1839 0.960 . S
H1824 C1808 0.931 . S
H1825 C1813 0.929 . S
H1826 C1814 0.960 . S
H1827 C1814 0.962 . S
H1828 C1814 0.960 . S
H1829 C1815 0.961 . S
H1830 C1815 0.961 . S
H1831 C1815 0.961 . S
H1832 C1816 0.931 . S
H1833 C1821 0.930 . S
H1834 C1822 0.956 . S
H1835 C1822 0.961 . S
H1836 C1822 0.961 . S
H1837 C1823 0.958 . S
H1838 C1823 0.961 . S
H1839 C1823 0.960 . S
C1840 C1841 1.391 . S
C1840 C1842 1.394 . S
C1840 H1856 0.931 . S
C1841 C1840 1.391 . S
C1841 C1845 1.376 . S
C1842 C1840 1.394 . S
C1842 C1843 1.369 . S
C1842 C1846 1.531 . S
C1843 C1842 1.369 . S
C1843 C1844 1.410 . S
C1843 C1851 1.503 . S
C1844 C1843 1.410 . S
C1844 C1845 1.392 . S
C1844 C1847 1.511 . S
C1845 C1841 1.376 . S
C1845 C1844 1.392 . S
C1845 H1857 0.929 . S
C1846 C1842 1.531 . S
C1846 H1858 0.960 . S
C1846 H1859 0.962 . S
C1846 H1860 0.960 . S
C1847 C1844 1.511 . S
C1847 H1861 0.961 . S
C1847 H1862 0.961 . S
C1847 H1863 0.961 . S
C1848 C1849 1.370 . S
C1848 C1850 1.363 . S
C1848 H1864 0.931 . S
C1849 C1848 1.370 . S
C1849 C1853 1.408 . S
C1850 C1848 1.363 . S
C1850 C1851 1.370 . S
C1850 C1854 1.524 . S
C1851 C1843 1.503 . S
C1851 C1850 1.370 . S
C1851 C1852 1.403 . S
C1852 C1851 1.403 . S
C1852 C1853 1.404 . S
C1852 C1855 1.539 . S
C1853 C1849 1.408 . S
C1853 C1852 1.404 . S
C1853 H1865 0.930 . S
C1854 C1850 1.524 . S
C1854 H1866 0.956 . S
C1854 H1867 0.961 . S
C1854 H1868 0.961 . S
C1855 C1852 1.539 . S
C1855 H1869 0.958 . S
C1855 H1870 0.961 . S
C1855 H1871 0.960 . S
H1856 C1840 0.931 . S
H1857 C1845 0.929 . S
H1858 C1846 0.960 . S
H1859 C1846 0.962 . S
H1860 C1846 0.960 . S
H1861 C1847 0.961 . S
H1862 C1847 0.961 . S
H1863 C1847 0.961 . S
H1864 C1848 0.931 . S
H1865 C1853 0.930 . S
H1866 C1854 0.956 . S
H1867 C1854 0.961 . S
H1868 C1854 0.961 . S
H1869 C1855 0.958 . S
H1870 C1855 0.961 . S
H1871 C1855 0.960 . S
C337 C167 1.265 . S
C345 C7 1.446 . S
C369 C21 1.479 . S
C377 C125 1.328 . S
C401 C35 1.465 . S
C409 C139 1.307 . S
C433 C49 1.443 . S
C441 C153 1.288 . S
C465 C195 1.359 . S
C473 C63 1.464 . S
C497 C77 1.451 . S
C505 C209 1.295 . S
C529 C223 1.304 . S
C537 C91 1.462 . S
C561 C181 1.292 . S
C569 C105 1.460 . S
C593 C83 1.329 . S
C601 C119 1.456 . S
C625 C97 1.248 . S
C633 C133 1.449 . S
C657 C147 1.448 . S
C665 C111 1.314 . S
C689 C69 1.247 . S
C697 C161 1.446 . S
C721 C55 1.257 . S
C729 C175 1.452 . S
C753 C189 1.443 . S
C761 C13 1.309 . S
C785 C203 1.479 . S
C793 C27 1.327 . S
C817 C217 1.434 . S
C825 C41 1.299 . S
C849 C231 1.428 . S
C857 C335 1.283 . S
C881 C293 1.328 . S
C889 C245 1.456 . S
C913 C259 1.460 . S
C921 C251 1.302 . S
C945 C273 1.433 . S
C953 C265 1.298 . S
C977 C279 1.246 . S
C985 C287 1.447 . S
C1009 C301 1.478 . S
C1017 C321 1.324 . S
C1041 C237 1.360 . S
C1049 C315 1.467 . S
C1073 C307 1.361 . S
C1081 C329 1.466 . S
C1105 C8 1.171 . S
C1113 C92 1.200 . S
C1137 C22 1.175 . S
C1145 C106 1.215 . S
C1169 C36 1.202 . S
C1177 C64 1.199 . S
C1201 C78 1.255 . S
C1209 C50 1.220 . S
C1233 C148 1.206 . S
C1241 C120 1.230 . S
C1265 C134 1.170 . S
C1273 C162 1.201 . S
C1297 C176 1.197 . S
C1305 C204 1.227 . S
C1329 C218 1.235 . S
C1337 C190 1.236 . S
C1361 C246 1.254 . S
C1369 C232 1.220 . S
C1393 C260 1.248 . S
C1401 C330 1.236 . S
C1425 C274 1.256 . S
C1433 C302 1.222 . S
C1457 C288 1.191 . S
C1465 C316 1.198 . S
C1489 C11 1.006 . S
C1497 C81 1.021 . S
C1521 C25 1.041 . S
C1529 C95 1.019 . S
C1553 C39 1.004 . S
C1561 C109 1.023 . S
C1585 C67 1.005 . S
C1593 C53 1.031 . S
C1617 C123 1.041 . S
C1625 C333 1.029 . S
C1649 C137 1.002 . S
C1657 C305 1.025 . S
C1681 C319 1.025 . S
C1689 C151 1.034 . S
C1713 C165 1.004 . S
C1721 C235 1.031 . S
C1745 C291 1.033 . S
C1753 C179 1.017 . S
C1777 C249 1.002 . S
C1785 C193 1.026 . S
C1809 C207 1.045 . S
C1817 C263 1.024 . S
C1841 C277 1.007 . S
C1849 C221 1.021 . S
