# Generated by pormake.
# Topology whw, (6)-cn, num edge types: 1
# Building blocks:
#     Node 0, Type 0, BuildingBlock: PAMTOO_clean_sbu_0, # of connection points: 6
#     Node 1, Type 0, BuildingBlock: PAMTOO_clean_sbu_0, # of connection points: 6
#     Node 2, Type 0, BuildingBlock: PAMTOO_clean_sbu_0, # of connection points: 6
#     Node 3, Type 0, BuildingBlock: PAMTOO_clean_sbu_0, # of connection points: 6
#     Node 4, Type 0, BuildingBlock: PAMTOO_clean_sbu_0, # of connection points: 6
#     Node 5, Type 0, BuildingBlock: PAMTOO_clean_sbu_0, # of connection points: 6
#     Node 6, Type 0, BuildingBlock: PAMTOO_clean_sbu_0, # of connection points: 6
#     Node 7, Type 0, BuildingBlock: PAMTOO_clean_sbu_0, # of connection points: 6
#     Node 8, Type 0, BuildingBlock: PAMTOO_clean_sbu_0, # of connection points: 6
#     Node 9, Type 0, BuildingBlock: PAMTOO_clean_sbu_0, # of connection points: 6
#     Node 10, Type 0, BuildingBlock: PAMTOO_clean_sbu_0, # of connection points: 6
#     Node 11, Type 0, BuildingBlock: PAMTOO_clean_sbu_0, # of connection points: 6
#     Node 12, Type 0, BuildingBlock: PAMTOO_clean_sbu_0, # of connection points: 6
#     Node 13, Type 0, BuildingBlock: PAMTOO_clean_sbu_0, # of connection points: 6
#     Node 14, Type 0, BuildingBlock: PAMTOO_clean_sbu_0, # of connection points: 6
#     Node 15, Type 0, BuildingBlock: PAMTOO_clean_sbu_0, # of connection points: 6
#     Edge 16, Type (0, 0), BuildingBlock: ZUJKAS_clean_linker_0, # of connection points: 2
#     Edge 17, Type (0, 0), BuildingBlock: ZUJKAS_clean_linker_0, # of connection points: 2
#     Edge 18, Type (0, 0), BuildingBlock: ZUJKAS_clean_linker_0, # of connection points: 2
#     Edge 19, Type (0, 0), BuildingBlock: ZUJKAS_clean_linker_0, # of connection points: 2
#     Edge 20, Type (0, 0), BuildingBlock: ZUJKAS_clean_linker_0, # of connection points: 2
#     Edge 21, Type (0, 0), BuildingBlock: ZUJKAS_clean_linker_0, # of connection points: 2
#     Edge 22, Type (0, 0), BuildingBlock: ZUJKAS_clean_linker_0, # of connection points: 2
#     Edge 23, Type (0, 0), BuildingBlock: ZUJKAS_clean_linker_0, # of connection points: 2
#     Edge 24, Type (0, 0), BuildingBlock: ZUJKAS_clean_linker_0, # of connection points: 2
#     Edge 25, Type (0, 0), BuildingBlock: ZUJKAS_clean_linker_0, # of connection points: 2
#     Edge 26, Type (0, 0), BuildingBlock: ZUJKAS_clean_linker_0, # of connection points: 2
#     Edge 27, Type (0, 0), BuildingBlock: ZUJKAS_clean_linker_0, # of connection points: 2
#     Edge 28, Type (0, 0), BuildingBlock: ZUJKAS_clean_linker_0, # of connection points: 2
#     Edge 29, Type (0, 0), BuildingBlock: ZUJKAS_clean_linker_0, # of connection points: 2
#     Edge 30, Type (0, 0), BuildingBlock: ZUJKAS_clean_linker_0, # of connection points: 2
#     Edge 31, Type (0, 0), BuildingBlock: ZUJKAS_clean_linker_0, # of connection points: 2
#     Edge 32, Type (0, 0), BuildingBlock: ZUJKAS_clean_linker_0, # of connection points: 2
#     Edge 33, Type (0, 0), BuildingBlock: ZUJKAS_clean_linker_0, # of connection points: 2
#     Edge 34, Type (0, 0), BuildingBlock: ZUJKAS_clean_linker_0, # of connection points: 2
#     Edge 35, Type (0, 0), BuildingBlock: ZUJKAS_clean_linker_0, # of connection points: 2
#     Edge 36, Type (0, 0), BuildingBlock: ZUJKAS_clean_linker_0, # of connection points: 2
#     Edge 37, Type (0, 0), BuildingBlock: ZUJKAS_clean_linker_0, # of connection points: 2
#     Edge 38, Type (0, 0), BuildingBlock: ZUJKAS_clean_linker_0, # of connection points: 2
#     Edge 39, Type (0, 0), BuildingBlock: ZUJKAS_clean_linker_0, # of connection points: 2
#     Edge 40, Type (0, 0), BuildingBlock: ZUJKAS_clean_linker_0, # of connection points: 2
#     Edge 41, Type (0, 0), BuildingBlock: ZUJKAS_clean_linker_0, # of connection points: 2
#     Edge 42, Type (0, 0), BuildingBlock: ZUJKAS_clean_linker_0, # of connection points: 2
#     Edge 43, Type (0, 0), BuildingBlock: ZUJKAS_clean_linker_0, # of connection points: 2
#     Edge 44, Type (0, 0), BuildingBlock: ZUJKAS_clean_linker_0, # of connection points: 2
#     Edge 45, Type (0, 0), BuildingBlock: ZUJKAS_clean_linker_0, # of connection points: 2
#     Edge 46, Type (0, 0), BuildingBlock: ZUJKAS_clean_linker_0, # of connection points: 2
#     Edge 47, Type (0, 0), BuildingBlock: ZUJKAS_clean_linker_0, # of connection points: 2
#     Edge 48, Type (0, 0), BuildingBlock: ZUJKAS_clean_linker_0, # of connection points: 2
#     Edge 49, Type (0, 0), BuildingBlock: ZUJKAS_clean_linker_0, # of connection points: 2
#     Edge 50, Type (0, 0), BuildingBlock: ZUJKAS_clean_linker_0, # of connection points: 2
#     Edge 51, Type (0, 0), BuildingBlock: ZUJKAS_clean_linker_0, # of connection points: 2
#     Edge 52, Type (0, 0), BuildingBlock: ZUJKAS_clean_linker_0, # of connection points: 2
#     Edge 53, Type (0, 0), BuildingBlock: ZUJKAS_clean_linker_0, # of connection points: 2
#     Edge 54, Type (0, 0), BuildingBlock: ZUJKAS_clean_linker_0, # of connection points: 2
#     Edge 55, Type (0, 0), BuildingBlock: ZUJKAS_clean_linker_0, # of connection points: 2
#     Edge 56, Type (0, 0), BuildingBlock: ZUJKAS_clean_linker_0, # of connection points: 2
#     Edge 57, Type (0, 0), BuildingBlock: ZUJKAS_clean_linker_0, # of connection points: 2
#     Edge 58, Type (0, 0), BuildingBlock: ZUJKAS_clean_linker_0, # of connection points: 2
#     Edge 59, Type (0, 0), BuildingBlock: ZUJKAS_clean_linker_0, # of connection points: 2
#     Edge 60, Type (0, 0), BuildingBlock: ZUJKAS_clean_linker_0, # of connection points: 2
#     Edge 61, Type (0, 0), BuildingBlock: ZUJKAS_clean_linker_0, # of connection points: 2
#     Edge 62, Type (0, 0), BuildingBlock: ZUJKAS_clean_linker_0, # of connection points: 2
#     Edge 63, Type (0, 0), BuildingBlock: ZUJKAS_clean_linker_0, # of connection points: 2
# Relax obj value: 0.661
# Max RMSD: 0.192
# Mean RMSD: 0.192
data_MOF--net-whw--node1-PAMTOO_clean_sbu_0--edge1-ZUJKAS_clean_linker_0
_symmetry_space_group_name_H-M    P1
_symmetry_Int_Tables_number       1
_symmetry_cell_setting            triclinic
loop_
_symmetry_equiv_pos_as_xyz
'x, y, z'
_cell_length_a     62.931835
_cell_length_b     63.026221
_cell_length_c     37.413877
_cell_angle_alpha  89.682011
_cell_angle_beta   90.041971
_cell_angle_gamma 90.037899
loop_
_atom_site_label
_atom_site_type_symbol
_atom_site_fract_x
_atom_site_fract_y
_atom_site_fract_z
_atom_type_partial_charge
Dy0 Dy 0.98458 0.12027 0.21007 0.0
Dy1 Dy 0.02803 0.14177 0.18763 0.0
C2 C -0.01149 0.16819 0.21893 0.0
O3 O 0.97992 0.13086 0.15034 0.0
O4 O 0.00765 0.15411 0.14228 0.0
O5 O 0.95541 0.11945 0.23995 0.0
O6 O 0.96192 0.09503 0.20091 0.0
O7 O 0.02676 0.10903 0.16093 0.0
O8 O 0.00611 0.09254 0.20166 0.0
O9 O 0.03207 0.14108 0.24823 0.0
O10 O 0.00061 0.12632 0.26604 0.0
O11 O 0.06151 0.13974 0.19754 0.0
O12 O 0.04949 0.16292 0.15933 0.0
C13 C -0.01037 0.14585 0.13069 0.0
O14 O 0.97661 0.154 0.20394 0.0
O15 O 0.00929 0.16581 0.21919 0.0
C16 C 0.94204 0.08554 0.25192 0.0
C17 C 0.92556 0.06143 0.30888 0.0
C18 C 0.94725 0.06692 0.30807 0.0
C19 C 0.95542 0.07892 0.27977 0.0
C20 C 0.9209 0.07865 0.25107 0.0
C21 C 0.91271 0.06659 0.2793 0.0
C22 C 0.94923 0.10153 0.22611 0.0
C23 C 0.01869 0.0913 0.17401 0.0
C24 C 0.0192 0.13539 0.27443 0.0
C25 C 0.08313 0.14658 0.14852 0.0
C26 C 0.11378 0.12625 0.10583 0.0
C27 C 0.11811 0.13072 0.14184 0.0
C28 C 0.10295 0.14088 0.16291 0.0
C29 C 0.07903 0.1429 0.11226 0.0
C30 C 0.0943 0.13302 0.09105 0.0
C31 C 0.06631 0.15365 0.17292 0.0
H32 H 0.95752 0.06343 0.33058 0.0
H33 H 0.97183 0.08412 0.28071 0.0
H34 H 0.91042 0.08357 0.22958 0.0
H35 H 0.89602 0.0624 0.27903 0.0
H36 H 0.13285 0.12567 0.15417 0.0
H37 H 0.10633 0.14344 0.19096 0.0
H38 H 0.06384 0.14704 0.10053 0.0
H39 H 0.09066 0.13039 1.06313 0.0
Dy40 Dy 0.10996 0.72094 0.46846 0.0
Dy41 Dy 0.09206 0.76591 0.44787 0.0
C42 C 0.06299 0.7301 0.49063 0.0
O43 O 0.09077 0.7133 0.41717 0.0
O44 O 0.08311 0.74709 0.39813 0.0
O45 O 0.11216 0.68687 0.47063 0.0
O46 O 0.13846 0.70632 0.48922 0.0
O47 O 0.1282 0.76774 0.4398 0.0
O48 O 0.13153 0.73343 0.42575 0.0
O49 O 0.08826 0.76832 0.50759 0.0
O50 O 0.1084 0.73968 0.52341 0.0
O51 O 0.08974 0.79899 0.46122 0.0
O52 O 0.07706 0.78794 0.411 0.0
C53 C 0.08267 0.72637 0.39259 0.0
O54 O 0.07867 0.71668 0.49171 0.0
O55 O 0.06404 0.74861 0.47355 0.0
C56 C 0.13345 0.67305 0.51679 0.0
C57 C 0.1384 0.64512 0.5751 0.0
C58 C 0.12185 0.66016 0.57467 0.0
C59 C 0.11944 0.67407 0.54579 0.0
C60 C 0.14999 0.65819 0.51703 0.0
C61 C 0.15247 0.6443 0.54597 0.0
C62 C 0.13082 0.68714 0.48589 0.0
C63 C 0.13933 0.75255 0.42475 0.0
C64 C 0.09701 0.75679 0.53295 0.0
C65 C 0.09433 0.82119 0.41228 0.0
C66 C 0.12004 0.85372 0.38392 0.0
C67 C 0.10049 0.85856 0.40015 0.0
C68 C 0.08778 0.84239 0.41444 0.0
C69 C 0.11379 0.8163 0.39609 0.0
C70 C 0.12653 0.8324 0.38207 0.0
C71 C 0.08215 0.80441 0.43019 0.0
H72 H 0.11053 0.66098 0.5964 0.0
H73 H 0.10655 0.68547 0.54592 0.0
H74 H 0.16095 0.65729 0.49477 0.0
H75 H 0.16548 0.63307 0.54567 0.0
H76 H 0.09508 0.87484 0.40185 0.0
H77 H 0.07296 0.84643 0.42745 0.0
H78 H 0.11918 0.80003 0.39446 0.0
H79 H 0.14124 0.82808 0.36897 0.0
Dy80 Dy 0.50428 0.8485 0.71229 0.0
Dy81 Dy 0.45715 0.83713 0.68911 0.0
C82 C 0.48657 0.80315 0.73348 0.0
O83 O 0.51074 0.83091 0.66004 0.0
O84 O 0.4766 0.82809 0.6391 0.0
O85 O 0.53838 0.84614 0.71379 0.0
O86 O 0.52255 0.87349 0.73702 0.0
O87 O 0.45918 0.87294 0.68215 0.0
O88 O 0.4945 0.87408 0.67312 0.0
O89 O 0.45329 0.83468 0.74963 0.0
O90 O 0.48632 0.84572 0.7674 0.0
O91 O 0.42364 0.84197 0.69698 0.0
O92 O 0.4345 0.82225 0.65354 0.0
C93 C 0.49737 0.82547 0.63429 0.0
O94 O 0.50331 0.81535 0.7305 0.0
O95 O 0.46823 0.80764 0.71794 0.0
C96 C 0.55619 0.86405 0.7601 0.0
C97 C 0.58764 0.86422 0.81354 0.0
C98 C 0.57166 0.84855 0.8135 0.0
C99 C 0.55601 0.84848 0.78697 0.0
C100 C 0.57195 0.87975 0.76014 0.0
C101 C 0.58755 0.87986 0.78664 0.0
C102 C 0.54062 0.86394 0.73106 0.0
C103 C 0.47589 0.8831 0.66993 0.0
C104 C 0.46684 0.83863 0.77578 0.0
C105 C 0.40535 0.84501 0.64347 0.0
C106 C 0.38025 0.87214 0.60107 0.0
C107 C 0.40244 0.8746 0.60212 0.0
C108 C 0.41488 0.86115 0.62313 0.0
C109 C 0.38321 0.84268 0.6431 0.0
C110 C 0.3707 0.85616 0.62198 0.0
C111 C 0.41841 0.8322 0.66775 0.0
H112 H 0.57143 0.83615 0.83365 0.0
H113 H 0.54394 0.83621 0.78719 0.0
H114 H 0.57224 0.89188 0.73951 0.0
H115 H 0.59943 0.89231 0.78623 0.0
H116 H 0.41021 0.88691 0.58657 0.0
H117 H 0.43194 0.86347 0.62375 0.0
H118 H 0.37562 0.83052 0.65922 0.0
H119 H 0.35366 0.85377 0.62135 0.0
Dy120 Dy 0.38324 0.23908 0.95769 0.0
Dy121 Dy 0.4 0.19357 0.93678 0.0
C122 C 0.42987 0.22515 0.98311 0.0
O123 O 0.39533 0.24277 0.89951 0.0
O124 O 0.41517 0.21272 0.89173 0.0
O125 O 0.38522 0.27325 0.9535 0.0
O126 O 0.35719 0.25831 0.97592 0.0
O127 O 0.36873 0.19829 0.9065 0.0
O128 O 0.35369 0.22042 0.94593 0.0
O129 O 0.39647 0.19072 0.99795 0.0
O130 O 0.38874 0.22478 1.01451 0.0
O131 O 0.39278 0.16077 0.94659 0.0
O132 O 0.41831 0.16923 0.91015 0.0
C133 C 0.40931 0.23176 0.88043 0.0
O134 O 0.41556 0.2402 0.98059 0.0
O135 O 0.42785 0.20674 0.96687 0.0
C136 C 0.36541 0.29244 0.99582 0.0
C137 C 0.35961 0.32238 1.0502 0.0
C138 C 0.37373 0.30526 1.05501 0.0
C139 C 0.37657 0.29035 1.02802 0.0
C140 C 0.35177 0.30972 0.99048 0.0
C141 C 0.3489 0.32464 1.01746 0.0
C142 C 0.36674 0.27612 0.9684 0.0
C143 C 0.35166 0.20791 0.91845 0.0
C144 C 0.39403 0.20496 1.02362 0.0
C145 C 0.39753 0.13844 0.89797 0.0
C146 C 0.37497 0.11051 0.85323 0.0
C147 C 0.37845 0.10529 0.88931 0.0
C148 C 0.38968 0.11913 0.91143 0.0
C149 C 0.39461 0.14345 0.86176 0.0
C150 C 0.38362 0.12952 0.83955 0.0
C151 C 0.40638 0.15399 0.92303 0.0
H152 H 0.38249 0.30333 1.07975 0.0
H153 H 0.38715 0.27703 1.03245 0.0
H154 H 0.34298 0.31141 0.96571 0.0
H155 H 0.33783 0.33755 1.01311 0.0
H156 H 0.37195 0.09087 0.90077 0.0
H157 H 0.3916 0.11511 0.93945 0.0
H158 H 0.40036 0.15832 0.85078 0.0
H159 H 0.38177 0.13379 0.81165 0.0
Dy160 Dy -0.00255 0.84648 0.96215 0.0
Dy161 Dy 0.04399 0.83361 0.99093 0.0
C162 C 0.01453 0.80029 0.95285 0.0
O163 O -0.00783 0.83752 1.02138 0.0
O164 O 0.02316 0.82019 1.03591 0.0
O165 O 0.96944 0.84131 0.93026 0.0
O166 O 0.96989 0.86658 0.96907 0.0
O167 O 0.03629 0.86628 1.01316 0.0
O168 O 0.01401 0.8779 0.96985 0.0
O169 O 0.0479 0.83293 0.9294 0.0
O170 O 0.01468 0.84137 0.9082 0.0
O171 O 0.07658 0.84324 0.98582 0.0
O172 O 0.06812 0.81722 1.02167 0.0
C173 C 0.00334 0.82557 1.04401 0.0
O174 O -0.00086 0.8113 0.9673 0.0
O175 O 0.03425 0.80545 0.95957 0.0
C176 C 0.94845 0.87118 0.91795 0.0
C177 C 0.92639 0.89271 0.86337 0.0
C178 C 0.91534 0.88375 0.89243 0.0
C179 C 0.92631 0.87305 0.91947 0.0
C180 C 0.95972 0.88116 0.89027 0.0
C181 C 0.94875 0.8919 0.86317 0.0
C182 C 0.95923 0.85733 0.94371 0.0
C183 C 0.02599 0.882 0.99771 0.0
C184 C 0.03454 0.83509 0.902 0.0
C185 C 0.09681 0.84004 1.03784 0.0
C186 C 0.12153 0.86307 1.08711 0.0
C187 C 0.12791 0.86152 1.05125 0.0
C188 C 0.11567 0.85005 1.02689 0.0
C189 C 0.09061 0.84118 1.07374 0.0
C190 C 0.10294 0.85243 0.09817 0.0
C191 C 0.08309 0.8302 1.01075 0.0
H192 H 0.89814 0.88382 0.89318 0.0
H193 H 0.91742 0.8654 0.94074 0.0
H194 H 0.97687 0.87992 0.88889 0.0
H195 H 0.9577 0.89882 0.8413 0.0
H196 H 0.14204 0.86958 1.04178 0.0
H197 H 0.12064 0.84947 0.99918 0.0
H198 H 0.07608 0.83369 1.08288 0.0
H199 H 0.09783 0.85278 0.1258 0.0
Dy200 Dy 0.38479 0.72894 0.20824 0.0
Dy201 Dy 0.39691 0.7766 0.23198 0.0
C202 C 0.43065 0.74731 0.18828 0.0
O203 O 0.40107 0.72336 0.26245 0.0
O204 O 0.40659 0.75741 0.28187 0.0
O205 O 0.38832 0.69493 0.21146 0.0
O206 O 0.36227 0.70882 0.18117 0.0
O207 O 0.36176 0.77483 0.24567 0.0
O208 O 0.35555 0.73959 0.23791 0.0
O209 O 0.39783 0.77988 0.17091 0.0
O210 O 0.38832 0.74642 0.15301 0.0
O211 O 0.39194 0.80997 0.22279 0.0
O212 O 0.41284 0.7996 0.2654 0.0
C213 C 0.40777 0.73663 0.28745 0.0
O214 O 0.41751 0.7312 0.18801 0.0
O215 O 0.42678 0.76506 0.20563 0.0
C216 C 0.37382 0.67451 0.16487 0.0
C217 C 0.37623 0.64139 0.11503 0.0
C218 C 0.3829 0.66203 0.10569 0.0
C219 C 0.38174 0.6785 0.1305 0.0
C220 C 0.36737 0.65397 0.17438 0.0
C221 C 0.36859 0.63751 0.1497 0.0
C222 C 0.37179 0.69139 0.19132 0.0
C223 C 0.34921 0.75824 0.24894 0.0
C224 C 0.39469 0.76612 0.14477 0.0
C225 C 0.39042 0.82889 0.27564 0.0
C226 C 0.36422 0.85443 0.31843 0.0
C227 C 0.36239 0.8322 0.3196 0.0
C228 C 0.37538 0.81956 0.29844 0.0
C229 C 0.39213 0.85104 0.27384 0.0
C230 C 0.37912 0.86377 0.29517 0.0
C231 C 0.40253 0.81552 0.25112 0.0
H232 H 0.38914 0.66541 1.07929 0.0
H233 H 0.38691 0.69429 0.12287 0.0
H234 H 0.36121 0.65069 0.20089 0.0
H235 H 0.36317 0.62185 0.15755 0.0
H236 H 0.35087 0.82457 0.33694 0.0
H237 H 0.37354 0.80248 0.2996 0.0
H238 H 0.40342 0.85847 0.25583 0.0
H239 H 0.38101 0.88084 0.29402 0.0
Dy240 Dy 0.50234 0.13087 0.46051 0.0
Dy241 Dy 0.45374 0.14176 0.48371 0.0
C242 C 0.48391 0.17561 0.44856 0.0
O243 O 0.50512 0.13972 0.52009 0.0
O244 O 0.47301 0.15608 0.53004 0.0
O245 O 0.53106 0.14 0.43346 0.0
O246 O 0.53077 0.11168 0.46643 0.0
O247 O 0.4602 0.10849 0.50509 0.0
O248 O 0.48821 0.09845 0.47049 0.0
O249 O 0.45155 0.13992 0.42223 0.0
O250 O 0.48618 0.13454 0.40496 0.0
O251 O 0.42103 0.13477 0.47293 0.0
O252 O 0.42905 0.15651 0.51553 0.0
C253 C 0.49264 0.15148 0.54078 0.0
O254 O 0.49803 0.16551 0.4677 0.0
O255 O 0.46407 0.16968 0.45131 0.0
C256 C 0.55514 0.11281 0.41812 0.0
C257 C 0.58486 0.09817 0.36766 0.0
C258 C 0.56524 0.1067 0.35648 0.0
C259 C 0.55049 0.1139 0.38149 0.0
C260 C 0.57407 0.10319 0.42947 0.0
C261 C 0.58879 0.09586 0.40448 0.0
C262 C 0.54172 0.12354 0.44457 0.0
C263 C 0.47342 0.09371 0.49404 0.0
C264 C 0.46598 0.13853 0.39641 0.0
C265 C 0.39942 0.13367 0.52286 0.0
C266 C 0.37074 0.10667 0.55854 0.0
C267 C 0.36332 0.12468 0.54003 0.0
C268 C 0.37759 0.138 0.52203 0.0
C269 C 0.4069 0.116 0.54195 0.0
C270 C 0.3927 0.10258 0.55954 0.0
C271 C 0.41399 0.14566 0.49991 0.0
H272 H 0.56174 0.109 0.32839 0.0
H273 H 0.53593 0.12123 0.3721 0.0
H274 H 0.57788 0.10215 0.45768 0.0
H275 H 0.60358 0.0891 0.41398 0.0
H276 H 0.34649 0.12825 0.53909 0.0
H277 H 0.37155 0.1514 0.50687 0.0
H278 H 0.42371 0.11235 0.54263 0.0
H279 H 0.39893 0.08913 0.57435 0.0
Dy280 Dy 0.10727 0.23815 0.70592 0.0
Dy281 Dy 0.09232 0.19184 0.73357 0.0
C282 C 0.06052 0.22416 0.69804 0.0
O283 O 0.09916 0.24263 0.76592 0.0
O284 O 0.07945 0.21275 0.77836 0.0
O285 O 0.10147 0.26684 0.67635 0.0
O286 O 0.12895 0.26482 0.71107 0.0
O287 O 0.12575 0.19754 0.75506 0.0
O288 O 0.13824 0.22086 0.71382 0.0
O289 O 0.09132 0.1883 0.67234 0.0
O290 O 0.10129 0.22121 0.6516 0.0
O291 O 0.09811 0.15874 0.72504 0.0
O292 O 0.07654 0.16849 0.76711 0.0
C293 C 0.08617 0.2319 0.78767 0.0
O294 O 0.07243 0.23795 0.71451 0.0
O295 O 0.06459 0.20396 0.70248 0.0
C296 C 0.13063 0.28893 0.66196 0.0
C297 C 0.14665 0.31857 0.61218 0.0
C298 C 0.1372 0.29955 0.60054 0.0
C299 C 0.1293 0.28484 0.62521 0.0
C300 C 0.14141 0.30707 0.67372 0.0
C301 C 0.14943 0.32175 0.64906 0.0
C302 C 0.11846 0.27633 0.68804 0.0
C303 C 0.14182 0.20787 0.74067 0.0
C304 C 0.09425 0.20161 0.64511 0.0
C305 C 0.09896 0.13885 0.77705 0.0
C306 C 0.12641 0.1116 0.81482 0.0
C307 C 0.1296 0.13367 0.81536 0.0
C308 C 0.11594 0.14716 0.79676 0.0
C309 C 0.09551 0.11688 0.77669 0.0
C310 C 0.10905 0.10331 0.79579 0.0
C311 C 0.08708 0.15278 0.75281 0.0
H312 H 0.13456 0.29663 0.57239 0.0
H313 H 0.12107 0.2709 0.6155 0.0
H314 H 0.14264 0.31046 0.70201 0.0
H315 H 0.15691 0.33606 0.65889 0.0
H316 H 0.14251 0.14054 0.83059 0.0
H317 H 0.11891 0.16408 0.79713 0.0
H318 H 0.08267 0.1102 0.76105 0.0
H319 H 0.10615 0.08637 0.79529 0.0
Dy320 Dy 0.88238 0.23014 0.70423 0.0
Dy321 Dy 0.89784 0.27548 0.72954 0.0
C322 C 0.93012 0.24529 0.68644 0.0
O323 O 0.89222 0.2259 0.76363 0.0
O324 O 0.91265 0.2553 0.77369 0.0
O325 O 0.88407 0.19623 0.71239 0.0
O326 O 0.86043 0.20968 0.67656 0.0
O327 O 0.86549 0.27012 0.75573 0.0
O328 O 0.85161 0.24663 0.7169 0.0
O329 O 0.89802 0.27933 0.66815 0.0
O330 O 0.88964 0.24592 0.64892 0.0
O331 O 0.89326 0.30847 0.71756 0.0
O332 O 0.91206 0.29937 0.7637 0.0
C333 C 0.90603 0.23631 0.78404 0.0
O334 O 0.91576 0.2302 0.68566 0.0
O335 O 0.92741 0.26312 0.7041 0.0
C336 C 0.87199 0.17447 0.66551 0.0
C337 C 0.87613 0.13925 0.62018 0.0
C338 C 0.87745 0.16001 0.60629 0.0
C339 C 0.87547 0.17751 0.62881 0.0
C340 C 0.87092 0.1538 0.67946 0.0
C341 C 0.87304 0.13632 0.65703 0.0
C342 C 0.8688 0.19239 0.68979 0.0
C343 C 0.84895 0.25964 0.74363 0.0
C344 C 0.89601 0.26568 0.64145 0.0
C345 C 0.88974 0.32948 0.76822 0.0
C346 C 0.86476 0.3578 0.80818 0.0
C347 C 0.85555 0.33977 0.79262 0.0
C348 C 0.86792 0.32572 0.77294 0.0
C349 C 0.89896 0.34765 0.78297 0.0
C350 C 0.88658 0.36173 0.80286 0.0
C351 C 0.90254 0.31485 0.74672 0.0
H352 H 0.88017 0.16271 0.57804 0.0
H353 H 0.87652 0.19335 0.61754 0.0
H354 H 0.8682 0.15119 0.70775 0.0
H355 H 0.87186 0.12051 0.66839 0.0
H356 H 0.83879 0.33638 0.79601 0.0
H357 H 0.8604 0.31193 0.76135 0.0
H358 H 0.91575 0.35086 0.77937 0.0
H359 H 0.89423 0.37528 0.81504 0.0
Dy360 Dy 0.60627 0.7436 0.20978 0.0
Dy361 Dy 0.59317 0.69641 0.23502 0.0
C362 C 0.56056 0.72756 0.19756 0.0
O363 O 0.59495 0.74818 0.26809 0.0
O364 O 0.57948 0.71596 0.28107 0.0
O365 O 0.60317 0.77112 0.17568 0.0
O366 O 0.62469 0.77174 0.2208 0.0
O367 O 0.62595 0.70294 0.25829 0.0
O368 O 0.63785 0.72758 0.21888 0.0
O369 O 0.59453 0.69309 0.17356 0.0
O370 O 0.60132 0.72719 0.15487 0.0
O371 O 0.60117 0.66363 0.22775 0.0
O372 O 0.57684 0.67229 0.26608 0.0
C373 C 0.58356 0.73592 0.29001 0.0
O374 O 0.57123 0.74207 0.21472 0.0
O375 O 0.56559 0.70758 0.20246 0.0
C376 C 0.63454 0.79067 0.16924 0.0
C377 C 0.66194 0.80774 0.11725 0.0
C378 C 0.64857 0.82107 0.13723 0.0
C379 C 0.63494 0.81256 0.16299 0.0
C380 C 0.64888 0.77746 0.15129 0.0
C381 C 0.66253 0.78594 0.12549 0.0
C382 C 0.61804 0.7816 0.19222 0.0
C383 C 0.64169 0.71424 0.24512 0.0
C384 C 0.59636 0.70716 0.14709 0.0
C385 C 0.60069 0.6446 0.28069 0.0
C386 C 0.62794 0.62033 0.32445 0.0
C387 C 0.62913 0.64263 0.32426 0.0
C388 C 0.61551 0.65461 0.30287 0.0
C389 C 0.59933 0.62241 0.28062 0.0
C390 C 0.61277 0.61034 0.30254 0.0
C391 C 0.58916 0.65721 0.25405 0.0
H392 H 0.64748 0.83787 0.13119 0.0
H393 H 0.62396 0.82294 0.17674 0.0
H394 H 0.6488 0.76048 0.15606 0.0
H395 H 0.67275 0.77532 0.11069 0.0
H396 H 0.64081 0.65089 0.34026 0.0
H397 H 0.61698 0.67172 0.30288 0.0
H398 H 0.58818 0.61444 0.26316 0.0
H399 H 0.61118 0.59323 0.30246 0.0
Dy400 Dy 0.60631 0.23156 0.96288 0.0
Dy401 Dy 0.5919 0.2781 0.93826 0.0
C402 C 0.56004 0.24677 0.97725 0.0
O403 O 0.59561 0.22786 0.90383 0.0
O404 O 0.57654 0.25841 0.8942 0.0
O405 O 0.60221 0.20238 0.99221 0.0
O406 O 0.62749 0.20509 0.95335 0.0
O407 O 0.62408 0.27138 0.91268 0.0
O408 O 0.63721 0.24899 0.95443 0.0
O409 O 0.59238 0.28091 0.99977 0.0
O410 O 0.60245 0.24763 1.01842 0.0
O411 O 0.60057 0.31075 0.94536 0.0
O412 O 0.57489 0.30247 0.90903 0.0
C413 C 0.5822 0.23917 0.88372 0.0
O414 O 0.57107 0.23172 0.96212 0.0
O415 O 0.56484 0.2667 0.97135 0.0
C416 C 0.63274 0.1818 1.00227 0.0
C417 C 0.6538 0.15711 1.05412 0.0
C418 C 0.6503 0.1789 1.05978 0.0
C419 C 0.63982 0.19117 1.03402 0.0
C420 C 0.6375 0.16051 0.99543 0.0
C421 C 0.64799 0.14824 1.02113 0.0
C422 C 0.6186 0.19325 0.97774 0.0
C423 C 0.64044 0.26136 0.92667 0.0
C424 C 0.59578 0.26716 1.02627 0.0
C425 C 0.59761 0.33109 0.89385 0.0
C426 C 0.62196 0.35668 0.84769 0.0
C427 C 0.62019 0.33473 0.84177 0.0
C428 C 0.60818 0.32203 0.86474 0.0
C429 C 0.59922 0.35298 0.89982 0.0
C430 C 0.61134 0.36572 0.87689 0.0
C431 C 0.5875 0.31746 0.92069 0.0
H432 H 0.65434 0.18617 1.08506 0.0
H433 H 0.63627 0.20763 1.03965 0.0
H434 H 0.63221 0.1531 0.97091 0.0
H435 H 0.65066 0.13157 1.01589 0.0
H436 H 0.62844 0.3273 0.81973 0.0
H437 H 0.60759 0.30506 0.86031 0.0
H438 H 0.59148 0.36011 0.92264 0.0
H439 H 0.61233 0.38261 0.88186 0.0
Dy440 Dy 0.88109 0.75332 0.46501 0.0
Dy441 Dy 0.9001 0.70814 0.4447 0.0
C442 C 0.92839 0.74658 0.47351 0.0
O443 O 0.89001 0.7564 0.40452 0.0
O444 O 0.9126 0.72805 0.39862 0.0
O445 O 0.88613 0.7851 0.48377 0.0
O446 O 0.85475 0.77558 0.46683 0.0
O447 O 0.86727 0.70964 0.41796 0.0
O448 O 0.85172 0.73492 0.45203 0.0
O449 O 0.89704 0.70391 0.50503 0.0
O450 O 0.88729 0.73746 0.52125 0.0
O451 O 0.89756 0.67454 0.45348 0.0
O452 O 0.92135 0.68684 0.4169 0.0
C453 C 0.90475 0.74597 0.38572 0.0
O454 O 0.91515 0.75811 0.4555 0.0
O455 O 0.92469 0.72612 0.47671 0.0
C456 C 0.85728 0.80152 0.51227 0.0
C457 C 0.84468 0.82741 0.56968 0.0
C458 C 0.85873 0.81029 0.57522 0.0
C459 C 0.86485 0.7974 0.54687 0.0
C460 C 0.84248 0.81782 0.50682 0.0
C461 C 0.83614 0.83061 0.5353 0.0
C462 C 0.86623 0.79042 0.48132 0.0
C463 C 0.85016 0.72034 0.42742 0.0
C464 C 0.89371 0.71793 0.53052 0.0
C465 C 0.90326 0.65521 0.4021 0.0
C466 C 0.88136 0.62654 0.35802 0.0
C467 C 0.87892 0.64857 0.35326 0.0
C468 C 0.88978 0.66275 0.37506 0.0
C469 C 0.90604 0.63331 0.40675 0.0
C470 C 0.8952 0.61903 0.38477 0.0
C471 C 0.91141 0.67 0.42882 0.0
H472 H 0.86597 0.80745 0.60107 0.0
H473 H 0.87625 0.78483 0.55172 0.0
H474 H 0.8364 0.82115 0.48026 0.0
H475 H 0.82503 0.84339 0.53016 0.0
H476 H 0.86813 0.65488 0.3333 0.0
H477 H 0.88704 0.67962 0.37169 0.0
H478 H 0.91609 0.62726 0.42801 0.0
H479 H 0.89755 0.60217 0.38881 0.0
Dy480 Dy 0.49012 0.6262 0.71241 0.0
Dy481 Dy 0.5373 0.63941 0.68791 0.0
C482 C 0.5057 0.67234 0.72358 0.0
O483 O 0.48564 0.6377 0.65404 0.0
O484 O 0.51793 0.65308 0.64131 0.0
O485 O 0.46201 0.62914 0.74476 0.0
O486 O 0.46256 0.60683 0.70105 0.0
O487 O 0.53105 0.60662 0.66498 0.0
O488 O 0.50658 0.59477 0.70455 0.0
O489 O 0.54039 0.63851 0.74947 0.0
O490 O 0.50619 0.63175 0.76763 0.0
O491 O 0.57013 0.63163 0.69623 0.0
O492 O 0.56154 0.65564 0.65701 0.0
C493 C 0.49793 0.6491 0.63221 0.0
O494 O 0.49078 0.66125 0.70814 0.0
O495 O 0.52569 0.66714 0.71914 0.0
C496 C 0.44231 0.59781 0.75168 0.0
C497 C 0.42175 0.5718 0.80223 0.0
C498 C 0.44373 0.5757 0.80482 0.0
C499 C 0.45393 0.58858 0.77969 0.0
C500 C 0.4208 0.59274 0.74742 0.0
C501 C 0.41058 0.57975 0.77243 0.0
C502 C 0.45203 0.61387 0.72848 0.0
C503 C 0.51993 0.59087 0.6785 0.0
C504 C 0.5262 0.6369 0.77569 0.0
C505 C 0.58942 0.63186 0.64366 0.0
C506 C 0.61399 0.60479 0.6006 0.0
C507 C 0.59168 0.60329 0.60078 0.0
C508 C 0.57955 0.61682 0.62179 0.0
C509 C 0.61162 0.63348 0.64385 0.0
C510 C 0.62384 0.62014 0.62226 0.0
C511 C 0.57663 0.64347 0.66973 0.0
H512 H 0.45278 0.57009 0.8276 0.0
H513 H 0.47064 0.59223 0.78314 0.0
H514 H 0.41169 0.59959 0.72564 0.0
H515 H 0.39372 0.57682 0.76945 0.0
H516 H 0.58351 0.59145 0.585 0.0
H517 H 0.56243 0.61516 0.62166 0.0
H518 H 0.61948 0.64481 0.66107 0.0
H519 H 0.64095 0.62197 0.62235 0.0
Dy520 Dy 0.01038 0.34907 0.21019 0.0
Dy521 Dy 0.96484 0.33201 0.18616 0.0
C522 C 0.00101 0.30126 0.21663 0.0
O523 O 0.01441 0.33887 0.15056 0.0
O524 O 0.98463 0.31852 0.14108 0.0
O525 O 0.03917 0.34582 0.24066 0.0
O526 O 0.03608 0.37155 0.20231 0.0
O527 O 0.96897 0.3651 0.16154 0.0
O528 O -0.00762 0.37928 0.20057 0.0
O529 O 0.96173 0.33013 0.24704 0.0
O530 O -0.00639 0.34372 0.26558 0.0
O531 O 0.93168 0.33609 0.1971 0.0
O532 O 0.94156 0.31483 0.15478 0.0
C533 C 0.00353 0.32516 0.13035 0.0
O534 O 0.01455 0.3147 0.20339 0.0
O535 O 0.98054 0.30526 0.21581 0.0
C536 C 0.05892 0.37673 0.25188 0.0
C537 C 0.08362 0.39643 0.30487 0.0
C538 C 0.06199 0.392 0.31101 0.0
C539 C 0.04972 0.38218 0.28468 0.0
C540 C 0.07996 0.38261 0.24465 0.0
C541 C 0.09223 0.39242 0.27091 0.0
C542 C 0.04792 0.36271 0.2268 0.0
C543 C 0.97909 0.38181 0.17397 0.0
C544 C 0.97482 0.33489 0.27347 0.0
C545 C 0.91011 0.33496 0.14698 0.0
C546 C 0.8791 0.35836 0.10973 0.0
C547 C 0.87372 0.3391 0.1266 0.0
C548 C 0.88913 0.32755 0.14539 0.0
C549 C 0.91557 0.35395 0.12961 0.0
C550 C 0.9002 0.3656 0.11126 0.0
C551 C 0.92563 0.32445 0.17024 0.0
H552 H 0.05494 0.39468 0.337 0.0
H553 H 0.03346 0.37775 0.29067 0.0
H554 H 0.08726 0.37856 0.21936 0.0
H555 H 0.10877 0.39584 0.26532 0.0
H556 H 0.85759 0.33313 0.12558 0.0
H557 H 0.88462 0.31306 0.15914 0.0
H558 H 0.93166 0.35997 0.13079 0.0
H559 H 0.9049 0.38011 0.09776 0.0
Dy560 Dy 0.49276 0.34712 0.46303 0.0
Dy561 Dy 0.53926 0.33539 0.48524 0.0
C562 C 0.50976 0.30157 0.44172 0.0
O563 O 0.48598 0.32754 0.5133 0.0
O564 O 0.51988 0.32638 0.53559 0.0
O565 O 0.45865 0.34556 0.4588 0.0
O566 O 0.47559 0.3745 0.44389 0.0
O567 O 0.53697 0.37138 0.48935 0.0
O568 O 0.503 0.37005 0.50584 0.0
O569 O 0.54239 0.33121 0.42501 0.0
O570 O 0.51087 0.34617 0.40784 0.0
O571 O 0.57276 0.33917 0.47544 0.0
O572 O 0.56213 0.32226 0.52256 0.0
C573 C 0.4992 0.32266 0.53965 0.0
O574 O 0.49383 0.31494 0.44091 0.0
O575 O 0.52738 0.30517 0.46003 0.0
C576 C 0.44184 0.3691 0.41814 0.0
C577 C 0.41161 0.37789 0.36487 0.0
C578 C 0.42433 0.35956 0.3629 0.0
C579 C 0.43941 0.35521 0.38935 0.0
C580 C 0.42923 0.38737 0.42018 0.0
C581 C 0.41425 0.39179 0.3937 0.0
C582 C 0.45718 0.365 0.44669 0.0
C583 C 0.5209 0.38046 0.50537 0.0
C584 C 0.5294 0.33707 0.39904 0.0
C585 C 0.59168 0.34501 0.52769 0.0
C586 C 0.61754 0.37327 0.56619 0.0
C587 C 0.59568 0.37721 0.56221 0.0
C588 C 0.58287 0.36316 0.54329 0.0
C589 C 0.61355 0.34125 0.53063 0.0
C590 C 0.62642 0.35527 0.54985 0.0
C591 C 0.5782 0.33108 0.50615 0.0
H592 H 0.42287 0.34877 0.3406 0.0
H593 H 0.44915 0.34109 0.38731 0.0
H594 H 0.43096 0.39823 0.44237 0.0
H595 H 0.4046 0.40595 0.39592 0.0
H596 H 0.58841 0.39104 0.57416 0.0
H597 H 0.56605 0.36647 0.54085 0.0
H598 H 0.62062 0.32746 0.51825 0.0
H599 H 0.64316 0.35168 0.55287 0.0
Dy600 Dy -0.004 0.63183 0.96397 0.0
Dy601 Dy 0.94819 0.63777 0.99012 0.0
C602 C 0.97322 0.6768 0.95737 0.0
O603 O -0.00015 0.64219 1.02236 0.0
O604 O 0.96598 0.652 1.0383 0.0
O605 O 0.02293 0.63798 0.92981 0.0
O606 O 0.02624 0.61711 0.97553 0.0
O607 O 0.95986 0.60669 1.01301 0.0
O608 O 0.98342 0.59816 0.97024 0.0
O609 O 0.94549 0.63994 0.92804 0.0
O610 O 0.97996 0.63692 0.90921 0.0
O611 O 0.91747 0.62483 0.97873 0.0
O612 O 0.92108 0.64741 1.02206 0.0
C613 C 0.9866 0.65056 1.04601 0.0
O614 O -0.00917 0.66692 0.96643 0.0
O615 O 0.95453 0.66867 0.96433 0.0
C616 C 0.04685 0.60965 0.92492 0.0
C617 C 0.0693 0.5839 0.8769 0.0
C618 C 0.08022 0.59785 0.8997 0.0
C619 C 0.06904 0.61066 0.92349 0.0
C620 C 0.03593 0.59489 0.90385 0.0
C621 C 0.04709 0.58208 0.87997 0.0
C622 C 0.03526 0.62483 0.94699 0.0
C623 C 0.97166 0.59233 0.9976 0.0
C624 C 0.95969 0.64061 0.90161 0.0
C625 C 0.89684 0.61883 1.0294 0.0
C626 C 0.87424 0.58963 1.0721 0.0
C627 C 0.89424 0.5843 1.05821 0.0
C628 C 0.90542 0.59875 1.0371 0.0
C629 C 0.87666 0.62406 1.04236 0.0
C630 C 0.8654 0.60955 1.06359 0.0
C631 C 0.90856 0.63371 1.00635 0.0
H632 H 0.09727 0.59987 0.89761 0.0
H633 H 0.07766 0.62195 0.93973 0.0
H634 H 0.01876 0.59384 0.90495 0.0
H635 H 0.03829 0.57138 0.8629 0.0
H636 H 0.90141 0.56905 1.06416 0.0
H637 H 0.92078 0.59421 1.02674 0.0
H638 H 0.8697 0.63939 1.03635 0.0
H639 H 0.85017 0.61423 1.07443 0.0
H640 H 0.15761 0.12823 0.10662 0.0
H641 H 0.18215 0.11114 1.06506 0.0
H642 H 0.12912 0.08078 1.01288 0.0
H643 H 0.10493 0.09619 1.05585 0.0
H644 H 0.1648 0.05622 1.00863 0.0
H645 H 0.18507 0.13964 0.97021 0.0
H646 H 0.19205 0.1298 1.01374 0.0
H647 H 0.16465 0.13486 1.00288 0.0
C648 C 0.15126 0.11743 1.08692 0.0
C649 C 0.12918 0.11419 1.08374 0.0
C650 C 0.16532 0.10778 1.06302 0.0
C651 C 0.15745 0.0952 1.03512 0.0
C652 C 0.13565 0.09054 1.03398 0.0
H653 H 0.114 0.08134 0.86225 0.0
H654 H 0.13493 0.06792 0.91175 0.0
C655 C 0.12171 0.09977 1.05815 0.0
C656 C 0.1704 0.08986 1.00334 0.0
H657 H 0.18254 0.11492 0.92539 0.0
C658 C 0.16953 0.06892 0.99063 0.0
C659 C 0.17758 0.10618 0.98013 0.0
C660 C 0.17997 0.12889 0.99222 0.0
C661 C 0.17149 0.06468 0.95401 0.0
C662 C 0.17421 0.08183 0.92997 0.0
C663 C 0.17967 0.10181 0.94366 0.0
C664 C 0.16474 0.08161 0.89361 0.0
C665 C 0.16844 0.04229 0.94113 0.0
C666 C 0.17455 0.09282 0.86556 0.0
C667 C 0.16232 0.10102 0.83753 0.0
C668 C 0.14021 0.0978 0.83693 0.0
C669 C 0.131 0.08406 0.86209 0.0
C670 C 0.14314 0.07612 0.89032 0.0
H671 H 0.17736 0.03108 0.95856 0.0
H672 H 0.15138 0.03795 0.94303 0.0
H673 H 0.17383 0.04033 0.91307 0.0
H674 H 0.19116 0.09722 0.86736 0.0
H675 H 0.16983 0.11131 0.81797 0.0
H676 H 0.16327 0.85932 0.38505 0.0
H677 H 0.18406 0.87917 0.3409 0.0
H678 H 0.12603 0.90454 0.29636 0.0
H679 H 0.10548 0.88514 0.3403 0.0
H680 H 0.17914 0.8655 0.27769 0.0
H681 H 0.16512 0.95042 0.26543 0.0
H682 H 0.1615 0.93663 0.30755 0.0
H683 H 0.13985 0.93901 0.27597 0.0
C684 C 0.15508 0.86982 0.36665 0.0
C685 C 0.13274 0.8703 0.36549 0.0
C686 C 0.16699 0.88134 0.34169 0.0
C687 C 0.15672 0.89337 0.3151 0.0
C688 C 0.13453 0.89583 0.3169 0.0
H689 H 0.10654 0.88812 0.14065 0.0
H690 H 0.12643 0.90223 0.19068 0.0
C691 C 0.12265 0.88447 0.34195 0.0
C692 C 0.16735 0.89754 0.28037 0.0
H693 H 0.15846 0.92927 0.20807 0.0
C694 C 0.17559 0.8798 0.26258 0.0
C695 C 0.16359 0.91636 0.26071 0.0
C696 C 0.15726 0.9367 0.27873 0.0
C697 C 0.17565 0.87884 0.2252 0.0
C698 C 0.16777 0.89639 0.2054 0.0
C699 C 0.16382 0.91556 0.22324 0.0
C700 C 0.15731 0.893 0.17037 0.0
C701 C 0.18114 0.85795 0.20784 0.0
C702 C 0.16804 0.88407 0.14121 0.0
C703 C 0.15652 0.87513 0.11302 0.0
C704 C 0.13413 0.8755 0.11327 0.0
C705 C 0.1237 0.88675 0.14037 0.0
C706 C 0.13514 0.89524 0.16871 0.0
H707 H 0.18621 0.84574 0.2276 0.0
H708 H 0.16719 0.85169 0.19308 0.0
H709 H 0.19434 0.8603 0.18862 0.0
H710 H 0.18519 0.88274 0.14136 0.0
H711 H 0.1651 0.86683 0.0923 0.0
H712 H 0.34257 0.89168 0.30492 0.0
H713 H 0.3238 0.91388 0.34875 0.0
H714 H 0.33998 0.86889 0.43187 0.0
H715 H 0.35813 0.84691 0.3888 0.0
H716 H 0.29776 0.88492 0.43781 0.0
H717 H 0.3556 0.95079 0.42032 0.0
H718 H 0.33897 0.94163 0.38427 0.0
H719 H 0.36159 0.92622 0.39809 0.0
C720 C 0.34186 0.88656 0.33257 0.0
C721 C 0.35175 0.86755 0.3435 0.0
C722 C 0.33109 0.89919 0.35748 0.0
C723 C 0.33035 0.89302 0.39356 0.0
C724 C 0.33989 0.87382 0.40406 0.0
H725 H 0.38944 0.88052 0.53195 0.0
H726 H 0.36759 0.89834 0.48794 0.0
C727 C 0.35037 0.86124 0.3794 0.0
C728 C 0.32222 0.90692 0.42225 0.0
H729 H 0.34944 0.93855 0.4794 0.0
C730 C 0.30823 0.89748 0.44687 0.0
C731 C 0.33477 0.92424 0.43356 0.0
C732 C 0.3485 0.93651 0.40774 0.0
C733 C 0.31131 0.90029 0.48369 0.0
C734 C 0.32817 0.91346 0.49514 0.0
C735 C 0.33728 0.92761 0.47036 0.0
C736 C 0.3421 0.9061 0.52468 0.0
C737 C 0.29925 0.88629 0.50944 0.0
C738 C 0.33526 0.90457 0.56032 0.0
C739 C 0.3478 0.89391 0.58572 0.0
C740 C 0.36744 0.885 0.5758 0.0
C741 C 0.37457 0.88746 0.54056 0.0
C742 C 0.36205 0.89778 0.51536 0.0
H743 H 0.28554 0.87835 0.49642 0.0
H744 H 0.30999 0.87387 0.52034 0.0
H745 H 0.29324 0.89586 0.53208 0.0
H746 H 0.32006 0.91102 0.56826 0.0
H747 H 0.34207 0.89238 0.61289 0.0
H748 H 0.37412 0.06674 0.85201 0.0
H749 H 0.35736 0.04428 0.80687 0.0
H750 H 0.33157 0.10006 0.75538 0.0
H751 H 0.34658 0.12221 0.80172 0.0
H752 H 0.30603 0.06586 0.7441 0.0
H753 H 0.39026 0.0431 0.71645 0.0
H754 H 0.37799 0.03519 0.75768 0.0
H755 H 0.38472 0.06261 0.75008 0.0
C756 C 0.36431 0.07414 0.8317 0.0
C757 C 0.36238 0.09638 0.82964 0.0
C758 C 0.35486 0.06126 0.80575 0.0
C759 C 0.34385 0.07051 0.77698 0.0
C760 C 0.34017 0.09248 0.77707 0.0
H761 H 0.33995 0.11939 0.60444 0.0
H762 H 0.32406 0.09813 0.65146 0.0
C763 C 0.34917 0.10524 0.80324 0.0
C764 C 0.33958 0.05889 0.74338 0.0
H765 H 0.36798 0.04823 0.66841 0.0
C766 C 0.31939 0.06115 0.72766 0.0
C767 C 0.35673 0.05178 0.72205 0.0
C768 C 0.37866 0.04796 0.73722 0.0
C769 C 0.31695 0.0606 0.6904 0.0
C770 C 0.33512 0.05784 0.6688 0.0
C771 C 0.35413 0.05109 0.68491 0.0
C772 C 0.33705 0.06818 0.63321 0.0
C773 C 0.29541 0.06512 0.6745 0.0
C774 C 0.34891 0.05849 0.60601 0.0
C775 C 0.3585 0.07087 0.57944 0.0
C776 C 0.35612 0.09305 0.57945 0.0
C777 C 0.34203 0.10233 0.60377 0.0
C778 C 0.33267 0.09003 0.63054 0.0
H779 H 0.28294 0.05639 0.68959 0.0
H780 H 0.29185 0.0823 0.67694 0.0
H781 H 0.29458 0.06056 0.6459 0.0
H782 H 0.35253 0.0417 0.60742 0.0
H783 H 0.36903 0.06329 0.5605 0.0
H784 H 0.89201 0.78073 0.34239 0.0
H785 H 0.90757 0.79369 0.28583 0.0
H786 H 0.9553 0.74493 0.29207 0.0
H787 H 0.93939 0.73155 0.34709 0.0
H788 H 0.94171 0.81119 0.26219 0.0
H789 H 0.94277 0.73467 0.19204 0.0
H790 H 0.92944 0.73776 0.23426 0.0
H791 H 0.95768 0.73287 0.23266 0.0
C792 C 0.90567 0.77253 0.33161 0.0
C793 C 0.91395 0.75466 0.35009 0.0
C794 C 0.91477 0.78009 0.29881 0.0
C795 C 0.93264 0.77021 0.28268 0.0
C796 C 0.94115 0.75271 0.30181 0.0
H797 H 0.01804 0.79587 0.09443 0.0
H798 H 0.0013 0.7833 0.15008 0.0
C799 C 0.93197 0.74506 0.33417 0.0
C800 C 0.94265 0.77833 0.24699 0.0
H801 H 0.96376 0.7622 0.16602 0.0
C802 C 0.94626 0.80029 0.24125 0.0
C803 C 0.94896 0.76472 0.21836 0.0
C804 C 0.94431 0.74125 0.21941 0.0
C805 C 0.95609 0.80863 0.20955 0.0
C806 C 0.96273 0.79497 0.18135 0.0
C807 C 0.95909 0.77305 0.18697 0.0
C808 C 0.97324 0.803 0.14618 0.0
C809 C 0.95985 0.83221 0.20714 0.0
C810 C 0.96349 0.8183 0.12365 0.0
C811 C 0.97308 0.82546 0.09118 0.0
C812 C -0.00692 0.81784 1.07941 0.0
C813 C 0.00281 0.80247 0.1019 0.0
C814 C -0.00692 0.79512 0.13417 0.0
H815 H 0.95966 0.83973 0.23392 0.0
H816 H 0.9753 0.83578 0.1941 0.0
H817 H 0.94703 0.83955 0.19089 0.0
H818 H 0.94809 0.82462 0.13082 0.0
H819 H 0.96468 0.83712 1.0752 0.0
H820 H 0.93786 0.25051 0.83063 0.0
H821 H 0.95098 0.23482 0.88662 0.0
H822 H 0.90517 0.18442 0.8771 0.0
H823 H 0.89268 0.19961 0.82044 0.0
H824 H 0.93914 0.22797 0.95011 0.0
H825 H 0.95133 0.14637 0.90231 0.0
H826 H 0.94481 0.16773 0.8721 0.0
H827 H 0.92419 0.15429 0.89697 0.0
C828 C 0.93058 0.23596 0.84009 0.0
C829 C 0.91409 0.22652 0.81974 0.0
C830 C 0.93819 0.22685 0.87275 0.0
C831 C 0.92981 0.20771 0.88718 0.0
C832 C 0.91297 0.19856 0.86716 0.0
H833 H 0.95346 0.13288 0.09123 0.0
H834 H 0.93924 0.14734 1.03459 0.0
C835 C 0.9055 0.20755 0.83432 0.0
C836 C 0.93824 0.19796 0.92301 0.0
H837 H 0.9532 0.15113 0.96522 0.0
C838 C 0.94227 0.21114 0.95287 0.0
C839 C 0.94269 0.17588 0.9284 0.0
C840 C 0.94076 0.16028 0.89816 0.0
C841 C 0.94985 0.20324 0.98659 0.0
C842 C 0.95412 0.18118 0.992 0.0
C843 C 0.95003 0.16796 0.9623 0.0
C844 C 0.96312 0.17176 1.02754 0.0
C845 C 0.95267 0.21885 1.01662 0.0
C846 C 0.98177 0.17985 1.04373 0.0
C847 C -0.00995 0.17142 1.07631 0.0
C848 C 0.98026 0.15432 0.09492 0.0
C849 C 0.96171 0.14599 1.07858 0.0
C850 C 0.95348 0.15438 1.04567 0.0
H851 H 0.9427 0.23321 1.01258 0.0
H852 H 0.94854 0.21161 1.04283 0.0
H853 H 0.96951 0.22405 1.01752 0.0
H854 H -0.00972 0.19271 1.0309 0.0
H855 H 0.00435 0.17852 1.08701 0.0
H856 H 0.54792 0.25309 0.842 0.0
H857 H 0.53296 0.23824 0.78698 0.0
H858 H 0.58145 0.19008 0.78746 0.0
H859 H 0.59558 0.20419 0.84352 0.0
H860 H 0.54057 0.23367 0.72259 0.0
H861 H 0.53746 0.14996 0.76486 0.0
H862 H 0.54418 0.17067 0.79577 0.0
H863 H 0.5642 0.15953 0.76681 0.0
C864 C 0.55539 0.23918 0.83075 0.0
C865 C 0.5731 0.22997 0.84847 0.0
C866 C 0.54672 0.23055 0.79863 0.0
C867 C 0.55527 0.21225 0.782 0.0
C868 C 0.5734 0.20345 0.79927 0.0
H869 H 0.53078 0.14255 0.57653 0.0
H870 H 0.5449 0.15703 0.63259 0.0
C871 C 0.58184 0.21185 0.83174 0.0
C872 C 0.54564 0.203 0.74676 0.0
H873 H 0.53274 0.15646 0.70266 0.0
C874 C 0.5388 0.21673 0.71883 0.0
C875 C 0.54274 0.18081 0.74012 0.0
C876 C 0.54731 0.16442 0.76861 0.0
C877 C 0.53008 0.20929 0.6857 0.0
C878 C 0.52771 0.18713 0.67885 0.0
C879 C 0.53447 0.1734 0.70667 0.0
C880 C 0.51848 0.17795 0.64348 0.0
C881 C 0.52397 0.22552 0.65778 0.0
C882 C 0.49841 0.18409 0.62951 0.0
C883 C 0.49008 0.17552 0.59707 0.0
C884 C 0.50134 0.16036 0.57657 0.0
C885 C 0.52132 0.15411 0.59072 0.0
C886 C 0.52954 0.16251 0.62334 0.0
H887 H 0.53215 0.24092 0.66215 0.0
H888 H 0.52781 0.21987 0.63048 0.0
H889 H 0.5066 0.22841 0.65925 0.0
H890 H 0.48886 0.19545 0.64395 0.0
H891 H 0.47468 0.18098 0.58794 0.0
H892 H 0.5384 0.8118 0.61728 0.0
H893 H 0.55227 0.79676 0.56187 0.0
H894 H 0.49061 0.80307 0.51312 0.0
H895 H 0.47646 0.81726 0.56933 0.0
H896 H 0.50509 0.76965 0.48627 0.0
H897 H 0.5747 0.8221 0.47529 0.0
H898 H 0.5758 0.80712 0.51602 0.0
H899 H 0.55469 0.82608 0.50893 0.0
C900 C 0.52764 0.81015 0.59487 0.0
C901 C 0.50607 0.81619 0.59881 0.0
C902 C 0.5358 0.80161 0.56237 0.0
C903 C 0.52304 0.79899 0.53137 0.0
C904 C 0.50136 0.80475 0.53552 0.0
H905 H 0.58311 0.77779 0.31526 0.0
H906 H 0.56836 0.79217 0.37082 0.0
C907 C 0.49312 0.81307 0.56822 0.0
C908 C 0.53197 0.79 0.49548 0.0
H909 H 0.57452 0.79218 0.43682 0.0
C910 C 0.5203 0.77478 0.47575 0.0
C911 C 0.55168 0.79647 0.47971 0.0
C912 C 0.56482 0.81399 0.49584 0.0
C913 C 0.52754 0.76596 0.4426 0.0
C914 C 0.54778 0.77161 0.42783 0.0
C915 C 0.55926 0.78712 0.44723 0.0
C916 C 0.55703 0.76228 0.39243 0.0
C917 C 0.51269 0.75121 0.42313 0.0
C918 C 0.55644 0.7403 0.38424 0.0
C919 C 0.56478 0.73197 0.35168 0.0
C920 C 0.57467 0.745 0.32551 0.0
C921 C 0.57575 0.76689 0.33398 0.0
C922 C 0.5672 0.77525 0.36639 0.0
H923 H 0.49586 0.75441 0.4302 0.0
H924 H 0.51437 0.75278 0.39371 0.0
H925 H 0.51624 0.7346 0.43104 0.0
H926 H 0.54971 0.72925 0.40333 0.0
H927 H 0.56361 0.71505 0.34722 0.0
H928 H 0.63958 0.63033 0.39224 0.0
H929 H 0.65969 0.60934 0.43419 0.0
H930 H 0.66738 0.56011 0.3555 0.0
H931 H 0.64728 0.58167 0.31226 0.0
H932 H 0.65156 0.54411 0.41518 0.0
H933 H 0.71844 0.59123 0.46026 0.0
H934 H 0.69792 0.6102 0.45166 0.0
H935 H 0.70785 0.5941 0.41545 0.0
C936 C 0.64617 0.61544 0.38313 0.0
C937 C 0.64184 0.60779 0.34874 0.0
C938 C 0.65793 0.60342 0.40721 0.0
C939 C 0.66576 0.58334 0.39776 0.0
C940 C 0.66193 0.57573 0.36315 0.0
H941 H 0.65315 0.58619 0.61273 0.0
H942 H 0.6749 0.56665 0.56945 0.0
C943 C 0.65017 0.58794 0.33871 0.0
C944 C 0.67368 0.56936 0.42683 0.0
H945 H 0.69022 0.58298 0.50978 0.0
C946 C 0.66103 0.55176 0.43564 0.0
C947 C 0.68722 0.57782 0.45335 0.0
C948 C 0.70382 0.59421 0.44436 0.0
C949 C 0.65705 0.54685 0.47161 0.0
C950 C 0.66536 0.56039 0.49818 0.0
C951 C 0.68265 0.57348 0.48932 0.0
C952 C 0.65134 0.56783 0.52735 0.0
C953 C 0.64109 0.52982 0.48058 0.0
C954 C 0.631 0.5752 0.51801 0.0
C955 C 0.61886 0.58666 0.5421 0.0
C956 C 0.62665 0.59112 0.5764 0.0
C957 C 0.64676 0.5832 0.58635 0.0
C958 C 0.65909 0.57176 0.56189 0.0
H959 H 0.64437 0.51539 0.46461 0.0
H960 H 0.64145 0.52565 0.50947 0.0
H961 H 0.6249 0.53535 0.47336 0.0
H962 H 0.62494 0.57337 0.49109 0.0
H963 H 0.60377 0.59294 0.53303 0.0
H964 H 0.65128 0.38775 0.86337 0.0
H965 H 0.67247 0.40876 0.82036 0.0
H966 H 0.64145 0.37644 0.73335 0.0
H967 H 0.62051 0.35575 0.77554 0.0
H968 H 0.69146 0.37979 0.73535 0.0
H969 H 0.64721 0.45531 0.74438 0.0
H970 H 0.65644 0.44074 0.78323 0.0
H971 H 0.63283 0.4324 0.76017 0.0
C972 C 0.64902 0.38529 0.835 0.0
C973 C 0.63442 0.37 0.82267 0.0
C974 C 0.66117 0.39718 0.81063 0.0
C975 C 0.65868 0.39389 0.77385 0.0
C976 C 0.64383 0.37893 0.76173 0.0
H977 H 0.60598 0.38749 0.63136 0.0
H978 H 0.62791 0.40455 0.67561 0.0
C979 C 0.63189 0.3671 0.78581 0.0
C980 C 0.67062 0.40589 0.74651 0.0
H981 H 0.65206 0.44087 0.68485 0.0
C982 C 0.6839 0.39387 0.72442 0.0
C983 C 0.66183 0.42487 0.73298 0.0
C984 C 0.64894 0.43927 0.7565 0.0
C985 C 0.68344 0.39686 0.68726 0.0
C986 C 0.66963 0.41247 0.6729 0.0
C987 C 0.6618 0.42823 0.69587 0.0
C988 C 0.65597 0.40678 0.64206 0.0
C989 C 0.69447 0.38087 0.66389 0.0
C990 C 0.66411 0.40271 0.60782 0.0
C991 C 0.65145 0.39247 0.58229 0.0
C992 C 0.63042 0.38656 0.59055 0.0
C993 C 0.62199 0.39204 0.62392 0.0
C994 C 0.63459 0.40194 0.6493 0.0
H995 H 0.7061 0.37115 0.6792 0.0
H996 H 0.68254 0.37002 0.65195 0.0
H997 H 0.70302 0.38909 0.64191 0.0
H998 H 0.68043 0.40657 0.60136 0.0
H999 H 0.65823 0.38868 0.55651 0.0
H1000 H 0.85229 0.34223 1.05995 0.0
H1001 H 0.83391 0.36204 1.01332 0.0
H1002 H 0.8518 0.42097 1.06326 0.0
H1003 H 0.87088 0.40105 0.10976 0.0
H1004 H 0.80412 0.39508 1.00076 0.0
H1005 H 0.88729 0.42172 0.97326 0.0
H1006 H 0.88242 0.402 1.00725 0.0
H1007 H 0.87451 0.42907 1.01426 0.0
C1008 C 0.8517 0.35937 1.06174 0.0
C1009 C 0.86342 0.37014 0.08786 0.0
C1010 C 0.8411 0.37073 1.03514 0.0
C1011 C 0.84194 0.393 1.03434 0.0
C1012 C 0.85138 0.4038 1.06294 0.0
H1013 H 0.86475 0.40129 0.81435 0.0
H1014 H 0.85004 0.42182 0.86394 0.0
C1015 C 0.86228 0.39242 0.08938 0.0
C1016 C 0.83724 0.40378 1.0 0.0
H1017 H 0.86537 0.41559 0.92496 0.0
C1018 C 0.81726 0.40044 0.98428 0.0
C1019 C 0.85413 0.41159 0.97863 0.0
C1020 C 0.87582 0.41636 0.99399 0.0
C1021 C 0.8148 0.40117 0.94702 0.0
C1022 C 0.83287 0.40479 0.92539 0.0
C1023 C 0.85161 0.41216 0.94145 0.0
C1024 C 0.83507 0.39484 0.88971 0.0
C1025 C 0.7934 0.39607 0.93117 0.0
C1026 C 0.83081 0.37302 0.88674 0.0
C1027 C 0.83921 0.36134 0.85866 0.0
C1028 C 0.85227 0.37114 0.83301 0.0
C1029 C 0.85503 0.39327 0.83412 0.0
C1030 C 0.84643 0.40505 0.8622 0.0
H1031 H 0.7807 0.4044 0.94618 0.0
H1032 H 0.79242 0.4007 0.90253 0.0
H1033 H 0.79029 0.37879 0.93381 0.0
H1034 H 0.82279 0.36447 0.90798 0.0
H1035 H 0.83695 0.3443 0.85888 0.0
H1036 H 0.87525 0.62998 0.28648 0.0
H1037 H 0.8551 0.6067 0.24782 0.0
H1038 H 0.84087 0.56558 0.33724 0.0
H1039 H 0.86101 0.58937 0.37684 0.0
H1040 H 0.85499 0.54363 0.2765 0.0
H1041 H 0.79123 0.59728 0.23584 0.0
H1042 H 0.81508 0.61274 0.23818 0.0
H1043 H 0.80498 0.60005 0.27811 0.0
C1044 C 0.86753 0.61624 0.29821 0.0
C1045 C 0.86949 0.61169 0.33479 0.0
C1046 C 0.8559 0.60296 0.2761 0.0
C1047 C 0.84585 0.5848 0.28992 0.0
C1048 C 0.84812 0.57978 0.32628 0.0
H1049 H 0.83214 0.57811 1.07726 0.0
H1050 H 0.81485 0.56175 0.12925 0.0
C1051 C 0.85979 0.59324 0.34868 0.0
C1052 C 0.83501 0.57055 0.26449 0.0
H1053 H 0.81136 0.58025 0.18484 0.0
C1054 C 0.84461 0.55102 0.25692 0.0
C1055 C 0.82022 0.57907 0.23995 0.0
C1056 C 0.80709 0.59832 0.24879 0.0
C1057 C 0.84366 0.54274 0.22221 0.0
C1058 C 0.83405 0.55507 0.19487 0.0
C1059 C 0.82004 0.57135 0.20496 0.0
C1060 C 0.84408 0.55702 0.15895 0.0
C1061 C 0.85511 0.52233 0.21428 0.0
C1062 C 0.86636 0.55872 0.15711 0.0
C1063 C 0.87616 0.56776 0.12742 0.0
C1064 C 0.86397 0.5757 0.099 0.0
C1065 C 0.84188 0.57238 0.09916 0.0
C1066 C 0.83202 0.56289 0.12877 0.0
H1067 H 0.85001 0.50989 0.2336 0.0
H1068 H 0.85193 0.51669 0.18671 0.0
H1069 H 0.87248 0.52454 0.21801 0.0
H1070 H 0.87627 0.55519 0.18001 0.0
H1071 H 0.89319 0.57026 0.1283 0.0
H1072 H 0.51962 0.31505 0.60535 0.0
H1073 H 0.50528 0.29984 0.66113 0.0
H1074 H 0.44417 0.29267 0.61106 0.0
H1075 H 0.45836 0.30791 0.5555 0.0
H1076 H 0.47392 0.31127 0.70893 0.0
H1077 H 0.45041 0.23371 0.6536 0.0
H1078 H 0.46736 0.25193 0.62957 0.0
H1079 H 0.43902 0.25569 0.62964 0.0
C1080 C 0.50311 0.31021 0.60591 0.0
C1081 C 0.49043 0.31291 0.57483 0.0
C1082 C 0.49478 0.30142 0.63833 0.0
C1083 C 0.47341 0.29448 0.64138 0.0
C1084 C 0.46075 0.29723 0.61035 0.0
H1085 H 0.40342 0.27177 0.84875 0.0
H1086 H 0.4184 0.28646 0.79333 0.0
C1087 C 0.46898 0.30623 0.57811 0.0
C1088 C 0.46438 0.28483 0.67662 0.0
H1089 H 0.4378 0.24142 0.71197 0.0
C1090 C 0.46603 0.29598 0.70925 0.0
C1091 C 0.45423 0.26458 0.67865 0.0
C1092 C 0.45279 0.25063 0.64615 0.0
C1093 C 0.45766 0.28804 0.74239 0.0
C1094 C 0.44676 0.26814 0.74418 0.0
C1095 C 0.44564 0.25674 0.7117 0.0
C1096 C 0.43693 0.25882 0.77913 0.0
C1097 C 0.46122 0.30101 0.77558 0.0
C1098 C 0.44125 0.23782 0.79083 0.0
C1099 C 0.43247 0.22923 0.82302 0.0
C1100 C 0.4186 0.24102 0.84525 0.0
C1101 C 0.41398 0.2619 0.83323 0.0
C1102 C 0.42286 0.27052 0.80114 0.0
H1103 H 0.47501 0.31189 0.7725 0.0
H1104 H 0.44695 0.31086 0.78066 0.0
H1105 H 0.46401 0.2907 0.79927 0.0
H1106 H 0.45178 0.22796 0.7752 0.0
H1107 H 0.43664 0.21314 0.83049 0.0
H1108 H 0.51895 0.66822 0.57436 0.0
H1109 H 0.50468 0.68225 0.5181 0.0
H1110 H 0.44142 0.66557 0.55178 0.0
H1111 H 0.45585 0.65061 0.60742 0.0
H1112 H 0.44042 0.65937 0.48627 0.0
H1113 H 0.48115 0.73651 0.48989 0.0
H1114 H 0.50026 0.71549 0.48916 0.0
H1115 H 0.48256 0.7182 0.52684 0.0
C1116 C 0.50195 0.66751 0.57011 0.0
C1117 C 0.48883 0.65809 0.59662 0.0
C1118 C 0.49358 0.67594 0.53747 0.0
C1119 C 0.47149 0.67595 0.52956 0.0
C1120 C 0.45843 0.66626 0.55596 0.0
H1121 H 0.41782 0.75752 0.3515 0.0
H1122 H 0.4321 0.74314 0.40777 0.0
C1123 C 0.46682 0.65759 0.58842 0.0
C1124 C 0.4621 0.68533 0.49408 0.0
H1125 H 0.46501 0.72748 0.43437 0.0
C1126 C 0.44593 0.67435 0.47534 0.0
C1127 C 0.46834 0.70523 0.47862 0.0
C1128 C 0.48384 0.71964 0.49735 0.0
C1129 C 0.43645 0.68208 0.44288 0.0
C1130 C 0.4435 0.70141 0.42639 0.0
C1131 C 0.45942 0.71258 0.44545 0.0
C1132 C 0.4344 0.71046 0.39048 0.0
C1133 C 0.4182 0.66956 0.42759 0.0
C1134 C 0.43074 0.69764 0.35997 0.0
C1135 C 0.42211 0.70595 0.32746 0.0
C1136 C 0.41705 0.72773 0.32298 0.0
C1137 C 0.42122 0.74071 0.35305 0.0
C1138 C 0.4296 0.73233 0.38577 0.0
H1139 H 0.40995 0.66018 0.44865 0.0
H1140 H 0.40634 0.68006 0.41448 0.0
H1141 H 0.42439 0.65819 0.40761 0.0
H1142 H 0.43484 0.681 0.36084 0.0
H1143 H 0.41965 0.69515 0.30544 0.0
H1144 H 0.06935 0.74889 0.33231 0.0
H1145 H 0.05354 0.73647 0.27658 0.0
H1146 H 0.05615 0.67214 0.31547 0.0
H1147 H 0.07289 0.68457 0.37106 0.0
H1148 H 0.06335 0.66887 0.24929 0.0
H1149 H -0.00442 0.72388 0.24839 0.0
H1150 H 0.02001 0.7384 0.24803 0.0
H1151 H 0.01326 0.72199 0.28609 0.0
C1152 C 0.06657 0.73203 0.32943 0.0
C1153 C 0.0726 0.718 0.35743 0.0
C1154 C 0.05708 0.72482 0.29703 0.0
C1155 C 0.05257 0.7031 0.2907 0.0
C1156 C 0.05893 0.68898 0.3185 0.0
H1157 H 0.96573 0.6641 0.10879 0.0
H1158 H 0.98099 0.67569 0.16611 0.0
C1159 C 0.06864 0.6962 0.35089 0.0
C1160 C 0.04198 0.69521 0.25534 0.0
H1161 H 0.00214 0.70578 0.19367 0.0
C1162 C 0.04991 0.67708 0.23752 0.0
C1163 C 0.02391 0.70505 0.23885 0.0
C1164 C 0.01254 0.72324 0.25652 0.0
C1165 C 0.04108 0.66912 0.20484 0.0
C1166 C 0.02378 0.67967 0.18729 0.0
C1167 C 0.0155 0.69749 0.20556 0.0
C1168 C 0.01404 0.67244 0.15084 0.0
C1169 C 0.05016 0.64879 0.19033 0.0
C1170 C 0.0268 0.66682 0.12114 0.0
C1171 C 0.01796 0.65985 0.0881 0.0
C1172 C -0.00427 0.65848 1.08218 0.0
C1173 C 0.98285 0.66468 0.11143 0.0
C1174 C -0.00825 0.67146 0.14475 0.0
H1175 H 0.05729 0.63894 0.21195 0.0
H1176 H 0.03783 0.63918 0.17666 0.0
H1177 H 0.06298 0.65261 0.171 0.0
H1178 H 0.0439 0.66801 0.12311 0.0
H1179 H 0.0288 0.65567 1.06681 0.0
H1180 H 0.0544 0.21819 0.83475 0.0
H1181 H 0.04141 0.23431 0.89009 0.0
H1182 H 0.08783 0.28412 0.87914 0.0
H1183 H 0.10011 0.26855 0.82295 0.0
H1184 H 0.05282 0.24129 0.9531 0.0
H1185 H 0.04243 0.32296 0.90285 0.0
H1186 H 0.04874 0.3014 0.87333 0.0
H1187 H 0.06946 0.31458 0.89819 0.0
C1188 C 0.06185 0.23269 0.84377 0.0
C1189 C 0.07843 0.24187 0.82316 0.0
C1190 C 0.05432 0.24206 0.87604 0.0
C1191 C 0.06289 0.26117 0.88983 0.0
C1192 C 0.07986 0.27004 0.86962 0.0
H1193 H 0.04063 0.33629 0.09206 0.0
H1194 H 0.05469 0.32133 1.03605 0.0
C1195 C 0.08723 0.26082 0.83709 0.0
C1196 C 0.05449 0.27121 0.92522 0.0
H1197 H 0.0403 0.31845 0.96588 0.0
C1198 C 0.05002 0.25819 0.95534 0.0
C1199 C 0.05046 0.29339 0.92989 0.0
C1200 C 0.05279 0.30886 0.89926 0.0
C1201 C 0.04237 0.26634 0.98865 0.0
C1202 C 0.03859 0.28849 0.99336 0.0
C1203 C 0.04312 0.30155 0.96343 0.0
C1204 C 0.02967 0.29819 1.02847 0.0
C1205 C 0.0389 0.2509 1.01903 0.0
C1206 C 0.01048 0.29097 1.04408 0.0
C1207 C 0.00225 0.29973 1.07627 0.0
C1208 C 0.01271 0.31626 0.09499 0.0
C1209 C 0.03185 0.32366 1.07926 0.0
C1210 C 0.03999 0.31499 1.04672 0.0
H1211 H 0.04829 0.23615 1.01543 0.0
H1212 H 0.04326 0.25805 1.04508 0.0
H1213 H 0.02186 0.24641 1.01997 0.0
H1214 H 0.00151 0.27853 1.03111 0.0
H1215 H -0.0125 0.29334 1.08661 0.0
H1216 H 0.01649 0.31288 0.28072 0.0
H1217 H 0.01983 0.29016 0.33352 0.0
H1218 H 0.01005 0.23528 0.2669 0.0
H1219 H 0.0037 0.25822 0.21527 0.0
H1220 H 0.98171 0.26753 0.34789 0.0
H1221 H 0.04522 0.20676 0.3338 0.0
H1222 H 0.05102 0.23404 0.34578 0.0
H1223 H 0.04373 0.22745 0.30101 0.0
C1224 C 0.01509 0.29593 0.2775 0.0
C1225 C 0.00889 0.28715 0.2446 0.0
C1226 C 0.01753 0.283 0.30754 0.0
C1227 C 0.01494 0.26109 0.30432 0.0
C1228 C 0.0118 0.25223 0.27015 0.0
H1229 H 0.97976 0.21066 0.22145 0.0
H1230 H 0.9721 0.23061 0.27575 0.0
C1231 C 0.00813 0.26522 0.2406 0.0
C1232 C 0.009 0.2481 0.3356 0.0
H1233 H 0.00972 0.19458 0.3389 0.0
C1234 C -0.01184 0.25156 0.3479 0.0
C1235 C 0.0177 0.2276 0.33874 0.0
C1236 C 0.04067 0.22358 0.3295 0.0
C1237 C 0.974 0.23441 0.34974 0.0
C1238 C 0.98166 0.21416 0.34072 0.0
C1239 C 0.00367 0.2105 0.34301 0.0
C1240 C 0.97163 0.20295 0.3106 0.0
C1241 C 0.95052 0.23856 0.35216 0.0
C1242 C 0.97064 0.1808 0.31142 0.0
C1243 C 0.97365 0.16948 0.27996 0.0
C1244 C 0.97876 0.18018 0.24801 0.0
C1245 C 0.97657 0.20217 0.24612 0.0
C1246 C 0.97198 0.21345 0.27717 0.0
H1247 H 0.94722 0.25102 0.37222 0.0
H1248 H 0.94466 0.24443 0.32591 0.0
H1249 H 0.94169 0.22388 0.35934 0.0
H1250 H 0.97017 0.17233 0.33669 0.0
H1251 H 0.97393 0.15239 0.28149 0.0
H1252 H 0.91109 0.76603 0.531 0.0
H1253 H 0.92933 0.77547 0.586 0.0
H1254 H -0.0106 0.76693 0.5323 0.0
H1255 H 0.97099 0.75378 0.47942 0.0
H1256 H 0.95205 0.73991 0.61122 0.0
H1257 H 0.00842 0.80521 0.61379 0.0
H1258 H 0.9808 0.80865 0.6009 0.0
H1259 H 0.00061 0.80166 0.56812 0.0
C1260 C 0.92818 0.76568 0.53125 0.0
C1261 C 0.93975 0.75743 0.50229 0.0
C1262 C 0.93856 0.77195 0.56233 0.0
C1263 C 0.96071 0.77127 0.56385 0.0
C1264 C 0.97221 0.76692 0.53228 0.0
H1265 H 0.0194 0.72898 0.485 0.0
H1266 H -0.00562 0.72918 0.53525 0.0
C1267 C 0.96181 0.75921 0.50208 0.0
C1268 C 0.97137 0.7672 0.5984 0.0
H1269 H 0.02476 0.76843 0.59919 0.0
C1270 C 0.96803 0.74637 0.61092 0.0
C1271 C -0.00831 0.77606 0.60304 0.0
C1272 C -0.00451 0.79928 0.59626 0.0
C1273 C 0.98518 0.73218 0.61105 0.0
C1274 C 0.00547 0.74013 0.60238 0.0
C1275 C 0.00899 0.76213 0.60417 0.0
C1276 C 0.01878 0.72898 0.57622 0.0
C1277 C 0.98101 0.70871 0.61335 0.0
C1278 C 0.04044 0.72638 0.58286 0.0
C1279 C 0.05446 0.72467 0.55427 0.0
C1280 C 0.04715 0.72705 0.51885 0.0
C1281 C 0.02536 0.72775 0.5121 0.0
C1282 C 0.01119 0.72778 0.54081 0.0
H1283 H 0.9761 0.70287 0.58664 0.0
H1284 H -0.0045 0.69998 0.62182 0.0
H1285 H 0.96786 0.70531 0.63236 0.0
H1286 H 0.04665 0.72741 0.60982 0.0
H1287 H 0.07126 0.72329 0.56002 0.0
H1288 H 0.47179 0.66562 0.76746 0.0
H1289 H 0.46664 0.67902 0.82733 0.0
H1290 H 0.52194 0.71922 0.81346 0.0
H1291 H 0.52825 0.70378 0.75556 0.0
H1292 H 0.45425 0.70724 0.85856 0.0
H1293 H 0.52836 0.71877 0.91467 0.0
H1294 H 0.53829 0.72598 0.87157 0.0
H1295 H 0.52765 0.69956 0.87914 0.0
C1296 C 0.48288 0.67727 0.77736 0.0
C1297 C 0.50032 0.68384 0.75658 0.0
C1298 C 0.48003 0.68484 0.81202 0.0
C1299 C 0.49403 0.69995 0.82634 0.0
C1300 C 0.51122 0.70687 0.80483 0.0
H1301 H 0.51113 0.80588 0.793 0.0
H1302 H 0.50606 0.78792 0.84951 0.0
C1303 C 0.51454 0.69859 0.77081 0.0
C1304 C 0.48859 0.71152 0.85996 0.0
H1305 H 0.51294 0.75746 0.88059 0.0
C1306 C 0.46727 0.71794 0.86416 0.0
C1307 C 0.50409 0.72474 0.87574 0.0
C1308 C 0.52582 0.71662 0.88554 0.0
C1309 C 0.4629 0.73963 0.86808 0.0
C1310 C 0.48006 0.75381 0.86373 0.0
C1311 C 0.49986 0.74657 0.87649 0.0
C1312 C 0.4805 0.76764 0.83108 0.0
C1313 C 0.44031 0.74738 0.86939 0.0
C1314 C 0.46793 0.76257 0.80085 0.0
C1315 C 0.47052 0.77328 0.76839 0.0
C1316 C 0.48627 0.78876 0.76472 0.0
C1317 C 0.49921 0.7935 0.79441 0.0
C1318 C 0.49609 0.7834 0.82723 0.0
H1319 H 0.43304 0.74218 0.89501 0.0
H1320 H 0.4394 0.76497 0.86758 0.0
H1321 H 0.43083 0.74017 0.84754 0.0
H1322 H 0.45636 0.7499 0.80151 0.0
H1323 H 0.46013 0.76949 0.74622 0.0
H1324 H 0.52772 0.26876 1.0073 0.0
H1325 H 0.51295 0.26403 1.0662 0.0
H1326 H 0.5559 0.21147 1.0856 0.0
H1327 H 0.56909 0.21523 1.02497 0.0
H1328 H 0.52712 0.19834 0.11688 0.0
H1329 H 0.51284 0.27199 0.16776 0.0
H1330 H 0.50485 0.2818 0.12484 0.0
H1331 H 0.53175 0.27232 0.13165 0.0
C1332 C 0.53365 0.25595 1.02398 0.0
C1333 C 0.54901 0.24198 1.01106 0.0
C1334 C 0.52573 0.25357 1.05852 0.0
C1335 C 0.53349 0.23752 1.08175 0.0
C1336 C 0.54941 0.22394 1.06886 0.0
H1337 H 0.42534 0.24985 1.04202 0.0
H1338 H 0.44381 0.24647 0.09843 0.0
C1339 C 0.55675 0.22588 1.03377 0.0
C1340 C 0.52196 0.23242 0.11572 0.0
H1341 H 0.47466 0.25616 0.12682 0.0
C1342 C 0.51575 0.21108 0.12 0.0
C1343 C 0.50762 0.24766 0.1291 0.0
C1344 C 0.51481 0.2697 0.13856 0.0
C1345 C 0.494 0.20622 0.1191 0.0
C1346 C 0.47974 0.22312 0.11272 0.0
C1347 C 0.48588 0.24318 0.12559 0.0
C1348 C 0.46609 0.2227 1.08007 0.0
C1349 C 0.48681 0.18344 0.11856 0.0
C1350 C 0.47237 0.21077 1.04993 0.0
C1351 C 0.46138 0.21227 1.01762 0.0
C1352 C 0.44439 0.22639 1.01404 0.0
C1353 C 0.43868 0.23904 1.04348 0.0
C1354 C 0.4491 0.2369 1.07621 0.0
H1355 H 0.49109 0.17577 0.14436 0.0
H1356 H 0.46936 0.18211 0.11458 0.0
H1357 H 0.49523 0.17466 0.09718 0.0
H1358 H 0.48614 0.20052 1.0507 0.0
H1359 H 0.46609 0.20227 0.99554 0.0
H1360 H 0.04038 0.77252 0.91799 0.0
H1361 H 0.03666 0.75962 0.8579 0.0
H1362 H 0.978 0.79534 0.84693 0.0
H1363 H 0.98093 0.80587 0.90806 0.0
H1364 H 0.96992 0.77561 0.79992 0.0
H1365 H 0.03614 0.74331 0.76188 0.0
H1366 H 0.04639 0.73607 0.80493 0.0
H1367 H 0.04252 0.76383 0.79339 0.0
C1368 C 0.02638 0.77699 0.90286 0.0
C1369 C 0.01061 0.78965 0.91834 0.0
C1370 C 0.02442 0.77008 0.86758 0.0
C1371 C 0.00672 0.77591 0.84627 0.0
C1372 C -0.00837 0.78969 0.86174 0.0
H1373 H 0.94313 0.68551 0.90722 0.0
H1374 H 0.94895 0.70246 0.84998 0.0
C1375 C -0.00684 0.79573 0.8974 0.0
C1376 C 0.00162 0.76456 0.81174 0.0
H1377 H 0.0151 0.71296 0.81807 0.0
C1378 C 0.97975 0.76189 0.80557 0.0
C1379 C 0.01355 0.7462 0.80417 0.0
C1380 C 0.036 0.74755 0.79063 0.0
C1381 C 0.97028 0.7432 0.81872 0.0
C1382 C 0.98404 0.72637 0.82923 0.0
C1383 C 0.00489 0.72672 0.81533 0.0
C1384 C 0.98041 0.71418 0.86282 0.0
C1385 C 0.94662 0.74281 0.82466 0.0
C1386 C -0.00377 0.7145 0.88962 0.0
C1387 C -0.00658 0.70362 0.92182 0.0
C1388 C 0.9744 0.69284 0.92861 0.0
C1389 C 0.95799 0.69381 0.90301 0.0
C1390 C 0.96125 0.70366 0.86999 0.0
H1391 H 0.93871 0.75713 0.81345 0.0
H1392 H 0.93964 0.72867 0.81156 0.0
H1393 H 0.9431 0.74209 0.8537 0.0
H1394 H 0.01102 0.72298 0.88557 0.0
H1395 H 0.00637 0.70311 0.94092 0.0
H1396 H 0.53796 0.70215 0.15272 0.0
H1397 H 0.52707 0.70963 0.09259 0.0
H1398 H 0.55383 0.77291 0.10083 0.0
H1399 H 0.56316 0.76553 0.1621 0.0
H1400 H 0.53254 0.78276 1.05549 0.0
H1401 H 0.53903 0.71376 1.02 0.0
H1402 H 0.51475 0.71444 0.99446 0.0
H1403 H 0.51542 0.69982 1.0354 0.0
C1404 C 0.54105 0.71782 0.14186 0.0
C1405 C 0.55098 0.73334 0.16267 0.0
C1406 C 0.53525 0.72212 0.10656 0.0
C1407 C 0.53922 0.74218 0.0906 0.0
C1408 C 0.54996 0.7574 0.11148 0.0
H1409 H 0.42821 0.72677 0.12503 0.0
H1410 H 0.44959 0.73265 1.07219 0.0
C1411 C 0.55522 0.75323 0.14709 0.0
C1412 C 0.52871 0.74852 1.05581 0.0
H1413 H 0.48212 0.72303 1.04857 0.0
C1414 C 0.52143 0.76965 1.05461 0.0
C1415 C 0.51419 0.7339 1.04109 0.0
C1416 C 0.52148 0.71434 1.02189 0.0
C1417 C 0.49991 0.77336 1.06224 0.0
C1418 C 0.4866 0.75548 1.06724 0.0
C1419 C 0.49281 0.73644 1.05061 0.0
C1420 C 0.47145 0.75445 0.09762 0.0
C1421 C 0.49215 0.79567 1.06776 0.0
C1422 C 0.47649 0.76453 0.13019 0.0
C1423 C 0.46379 0.7617 0.16041 0.0
C1424 C 0.4464 0.74791 0.15924 0.0
C1425 C 0.44184 0.73719 0.12717 0.0
C1426 C 0.45394 0.74074 0.09658 0.0
H1427 H 0.49681 0.80567 1.04452 0.0
H1428 H 0.47461 0.79631 1.07092 0.0
H1429 H 0.49992 0.80256 0.09169 0.0
H1430 H 0.49056 0.77427 0.13279 0.0
H1431 H 0.46758 0.77024 0.18465 0.0
H1432 H 0.45875 0.19188 0.3956 0.0
H1433 H 0.46891 0.2015 0.33604 0.0
H1434 H 0.53485 0.18863 0.36274 0.0
H1435 H 0.5243 0.17994 0.42265 0.0
H1436 H 0.54396 0.20047 0.30748 0.0
H1437 H 0.47831 0.22135 0.24396 0.0
H1438 H 0.46226 0.22179 0.28325 0.0
H1439 H 0.4752 0.1973 0.26978 0.0
C1440 C 0.47548 0.19156 0.38885 0.0
C1441 C 0.49068 0.18524 0.41416 0.0
C1442 C 0.48146 0.1968 0.35398 0.0
C1443 C 0.50298 0.1962 0.34309 0.0
C1444 C 0.5181 0.18955 0.36887 0.0
H1445 H 0.491 0.30585 0.37696 0.0
H1446 H 0.49759 0.28546 0.32357 0.0
C1447 C 0.51209 0.18465 0.40386 0.0
C1448 C 0.50997 0.20595 0.30789 0.0
H1449 H 0.48685 0.25367 0.29887 0.0
C1450 C 0.53143 0.21225 0.3064 0.0
C1451 C 0.49608 0.22108 0.29271 0.0
C1452 C 0.47683 0.21479 0.27145 0.0
C1453 C 0.53618 0.23351 0.31431 0.0
C1454 C 0.51893 0.24769 0.31876 0.0
C1455 C 0.49966 0.24233 0.30174 0.0
C1456 C 0.51821 0.26254 0.34946 0.0
C1457 C 0.55884 0.24006 0.3208 0.0
C1458 C 0.52757 0.25671 0.38244 0.0
C1459 C 0.52432 0.26884 0.4131 0.0
C1460 C 0.51082 0.28644 0.41188 0.0
C1461 C 0.50103 0.29194 0.37922 0.0
C1462 C 0.50505 0.28044 0.3483 0.0
H1463 H 0.56527 0.23133 0.34428 0.0
H1464 H 0.56869 0.23561 0.2974 0.0
H1465 H 0.56031 0.25741 0.32524 0.0
H1466 H 0.53695 0.24241 0.38503 0.0
H1467 H 0.53226 0.2644 0.43773 0.0
H1468 H 0.03579 0.20007 0.6544 0.0
H1469 H 0.02342 0.20863 0.5956 0.0
H1470 H 0.05292 0.27073 0.60321 0.0
H1471 H 0.06283 0.26266 0.66397 0.0
H1472 H 0.03044 0.28156 0.56116 0.0
H1473 H 0.0186 0.21327 0.4964 0.0
H1474 H 0.01222 0.19851 0.53591 0.0
H1475 H 0.03835 0.2105 0.53106 0.0
C1476 C 0.03924 0.21571 0.64368 0.0
C1477 C 0.05025 0.23065 0.6641 0.0
C1478 C 0.0327 0.22057 0.609 0.0
C1479 C 0.0373 0.24051 0.59307 0.0
C1480 C 0.04879 0.25526 0.6137 0.0
H1481 H 0.92725 0.22421 0.62338 0.0
H1482 H 0.94771 0.23073 0.56961 0.0
C1483 C 0.05456 0.25063 0.64893 0.0
C1484 C 0.02661 0.24729 0.55875 0.0
H1485 H 0.98033 0.22231 0.54348 0.0
C1486 C 0.01952 0.2685 0.55734 0.0
C1487 C 0.01289 0.23261 0.54213 0.0
C1488 C 0.02112 0.21252 0.52575 0.0
C1489 C -0.00238 0.27233 0.55988 0.0
C1490 C 0.98406 0.25454 0.56311 0.0
C1491 C -0.00898 0.23559 0.54715 0.0
C1492 C 0.96956 0.25279 0.59435 0.0
C1493 C -0.01044 0.29462 0.56444 0.0
C1494 C 0.97514 0.2625 0.62702 0.0
C1495 C 0.96314 0.25914 0.65782 0.0
C1496 C 0.94578 0.2453 0.65718 0.0
C1497 C 0.94084 0.23471 0.62512 0.0
C1498 C 0.95234 0.2387 0.59397 0.0
H1499 H -0.00338 0.30177 0.58877 0.0
H1500 H -0.00524 0.30446 0.54134 0.0
H1501 H 0.97195 0.29512 0.56624 0.0
H1502 H -0.01092 0.27247 0.62924 0.0
H1503 H 0.96727 0.26758 0.68201 0.0
H1504 H 0.003 0.05214 0.1942 0.0
H1505 H 0.0057 0.01805 0.16373 0.0
H1506 H 0.04322 0.04729 1.08076 0.0
H1507 H 0.04084 0.08154 0.11162 0.0
H1508 H -0.0082 0.00424 0.10167 0.0
H1509 H 0.07925 -0.00398 0.09824 0.0
H1510 H 0.0662 0.01607 0.12451 0.0
H1511 H 0.07006 0.01999 1.07726 0.0
C1512 C 0.01211 0.05142 0.1697 0.0
C1513 C 0.02186 0.06995 0.15588 0.0
C1514 C 0.01356 0.03171 0.15201 0.0
C1515 C 0.02492 0.0295 0.11976 0.0
C1516 C 0.03475 0.04799 0.10588 0.0
H1517 H 0.00472 0.91852 0.97611 0.0
H1518 H 0.00467 0.95369 1.00384 0.0
C1519 C 0.0333 0.0678 0.12362 0.0
C1520 C 0.02576 0.00813 0.10057 0.0
H1521 H 0.05953 0.9709 1.06467 0.0
C1522 C 0.00669 -0.00293 0.09364 0.0
C1523 C 0.04504 -0.00188 0.09014 0.0
C1524 C 0.06632 0.00802 0.09819 0.0
C1525 C 0.00631 0.97692 1.0767 0.0
C1526 C 0.02555 0.96718 1.06535 0.0
C1527 C 0.04465 0.97811 1.07267 0.0
C1528 C 0.0262 0.94557 1.04697 0.0
C1529 C 0.98516 0.96598 1.0722 0.0
C1530 C 0.03891 0.92889 1.06048 0.0
C1531 C 0.03911 0.90863 1.0443 0.0
C1532 C 0.02674 0.90418 1.01367 0.0
C1533 C 0.01444 0.92102 0.99961 0.0
C1534 C 0.01424 0.94129 1.01584 0.0
H1535 H 0.97311 0.9722 0.09113 0.0
H1536 H 0.97921 0.96887 1.04468 0.0
H1537 H 0.98662 0.94859 1.0764 0.0
H1538 H 0.04846 0.9314 1.08418 0.0
H1539 H 0.04885 0.89631 1.0562 0.0
H1540 H 0.16292 0.79002 0.41383 0.0
H1541 H 0.19767 0.794 0.38373 0.0
H1542 H 0.19938 0.72668 0.36505 0.0
H1543 H 0.16511 0.72266 0.39429 0.0
H1544 H 0.23835 0.77731 0.39659 0.0
H1545 H 0.21117 0.74809 0.26547 0.0
H1546 H 0.19283 0.7552 0.30044 0.0
H1547 H 0.20551 0.72958 0.30075 0.0
C1548 C 0.17065 0.77607 0.40321 0.0
C1549 C 0.16075 0.75601 0.4066 0.0
C1550 C 0.19067 0.77834 0.38593 0.0
C1551 C 0.20139 0.76071 0.3711 0.0
C1552 C 0.19159 0.74075 0.37508 0.0
H1553 H 0.319 0.72704 0.25955 0.0
H1554 H 0.28438 0.72928 0.28877 0.0
C1555 C 0.17178 0.73847 0.39224 0.0
C1556 C 0.22274 0.76272 0.3519 0.0
H1557 H 0.24871 0.74927 0.27433 0.0
C1558 C 0.24048 0.77139 0.36969 0.0
C1559 C 0.22603 0.75506 0.31662 0.0
C1560 C 0.20784 0.74666 0.29454 0.0
C1561 C 0.26115 0.77177 0.35412 0.0
C1562 C 0.26451 0.76365 0.3191 0.0
C1563 C 0.24662 0.75542 0.3011 0.0
C1564 C 0.28632 0.76273 0.30107 0.0
C1565 C 0.27937 0.78008 0.37619 0.0
C1566 C 0.29955 0.78076 0.29717 0.0
C1567 C 0.3197 0.77949 0.28026 0.0
C1568 C 0.32737 0.76017 0.26625 0.0
C1569 C 0.31397 0.74227 0.26976 0.0
C1570 C 0.29392 0.74354 0.28664 0.0
H1571 H 0.27554 0.77999 0.40518 0.0
H1572 H 0.29396 0.77054 0.37198 0.0
H1573 H 0.28275 0.79672 0.36818 0.0
H1574 H 0.29425 0.796 0.30689 0.0
H1575 H 0.32928 0.79373 0.27822 0.0
H1576 H 0.50289 0.0612 0.49 0.0
H1577 H 0.50229 0.02631 0.51884 0.0
H1578 H 0.4408 0.04011 0.56358 0.0
H1579 H 0.44178 0.07547 0.53593 0.0
H1580 H 0.46172 0.02046 0.61234 0.0
H1581 H 0.47551 0.97273 0.49152 0.0
H1582 H 0.49682 -0.00889 0.49824 0.0
H1583 H 0.4704 0.00081 0.48902 0.0
C1584 C 0.48906 0.05682 0.50561 0.0
C1585 C 0.47229 0.07146 0.51001 0.0
C1586 C 0.48865 0.03655 0.52208 0.0
C1587 C 0.47123 0.02976 0.54309 0.0
C1588 C 0.45448 0.04444 0.54758 0.0
H1589 H 0.4406 0.90953 0.66178 0.0
H1590 H 0.43857 0.94445 0.63211 0.0
C1591 C 0.45501 0.06484 0.53147 0.0
C1592 C 0.47078 0.00788 0.56117 0.0
H1593 H 0.47988 0.95463 0.54735 0.0
C1594 C 0.4655 0.00613 0.59779 0.0
C1595 C 0.47557 -0.01133 0.54291 0.0
C1596 C 0.47966 -0.01163 0.5032 0.0
C1597 C 0.46548 -0.01363 0.61637 0.0
C1598 C 0.4708 0.96733 0.59828 0.0
C1599 C 0.47591 0.969 0.56169 0.0
C1600 C 0.47173 0.94573 0.61688 0.0
C1601 C 0.46032 -0.01388 0.65571 0.0
C1602 C 0.49086 0.93414 0.61814 0.0
C1603 C 0.49208 0.91416 0.63537 0.0
C1604 C 0.47414 0.90469 0.65169 0.0
C1605 C 0.45486 0.91613 0.64995 0.0
C1606 C 0.4537 0.9363 0.63298 0.0
H1607 H 0.4611 0.00223 0.66751 0.0
H1608 H 0.44396 0.97992 0.65954 0.0
H1609 H 0.4714 0.97555 0.67052 0.0
H1610 H 0.50507 0.94069 0.60602 0.0
H1611 H 0.50725 0.90606 0.63572 0.0
H1612 H 0.34057 0.18562 0.85693 0.0
H1613 H 0.30607 0.1847 0.82589 0.0
H1614 H 0.27914 0.22468 0.90706 0.0
H1615 H 0.31343 0.22597 0.9376 0.0
H1616 H 0.2665 0.17104 0.84141 0.0
H1617 H 0.26104 0.25769 0.82085 0.0
H1618 H 0.28505 0.24507 0.83644 0.0
H1619 H 0.26383 0.25083 0.86718 0.0
C1620 C 0.32733 0.19422 0.86827 0.0
C1621 C 0.33018 0.20598 0.89997 0.0
C1622 C 0.30744 0.1937 0.85037 0.0
C1623 C 0.28967 0.20503 0.86327 0.0
C1624 C 0.29241 0.21626 0.89546 0.0
H1625 H 0.15503 0.18437 0.79951 0.0
H1626 H 0.19005 0.1832 0.82792 0.0
C1627 C 0.31221 0.21681 0.91329 0.0
C1628 C 0.26839 0.20508 0.8435 0.0
H1629 H 0.22949 0.23794 0.80966 0.0
C1630 C 0.25852 0.18573 0.83444 0.0
C1631 C 0.25767 0.22409 0.83342 0.0
C1632 C 0.26752 0.24559 0.83961 0.0
C1633 C 0.2385 0.18486 0.81677 0.0
C1634 C 0.22737 0.20388 0.80805 0.0
C1635 C 0.2375 0.22322 0.81639 0.0
C1636 C 0.20554 0.20419 0.79002 0.0
C1637 C 0.22977 0.16339 0.80686 0.0
C1638 C 0.20167 0.21678 0.75933 0.0
C1639 C 0.18136 0.21763 0.74304 0.0
C1640 C 0.16397 0.20599 0.75682 0.0
C1641 C 0.16784 0.19341 0.78753 0.0
C1642 C 0.18813 0.19261 0.80386 0.0
H1643 H 0.24262 0.15139 0.80464 0.0
H1644 H 0.21869 0.15793 0.82805 0.0
H1645 H 0.22101 0.16404 0.78111 0.0
H1646 H 0.21446 0.22604 0.74778 0.0
H1647 H 0.17926 0.22766 0.71972 0.0
H1648 H 0.67821 0.24189 0.94685 0.0
H1649 H 0.71294 0.24298 0.91717 0.0
H1650 H 0.68718 0.28416 0.83575 0.0
H1651 H 0.65263 0.28354 0.86581 0.0
H1652 H 0.72735 0.23002 0.85561 0.0
H1653 H 0.73987 0.31672 0.85504 0.0
H1654 H 0.71868 0.30439 0.88005 0.0
H1655 H 0.71567 0.30953 0.83289 0.0
C1656 C 0.67991 0.25143 0.92287 0.0
C1657 C 0.66229 0.26279 0.90925 0.0
C1658 C 0.69996 0.25198 0.90564 0.0
C1659 C 0.70333 0.26397 0.87411 0.0
C1660 C 0.68567 0.27523 0.8604 0.0
H1661 H 0.81113 0.23973 0.72609 0.0
H1662 H 0.77679 0.24105 0.75662 0.0
C1663 C 0.66564 0.27474 0.87767 0.0
C1664 C 0.72494 0.26407 0.85523 0.0
H1665 H 0.76339 0.29654 0.81867 0.0
C1666 C 0.73513 0.24466 0.84771 0.0
C1667 C 0.73581 0.28298 0.84499 0.0
C1668 C 0.72707 0.30458 0.85397 0.0
C1669 C 0.75514 0.2436 0.83013 0.0
C1670 C 0.76559 0.26248 0.81855 0.0
C1671 C 0.75562 0.28191 0.82673 0.0
C1672 C 0.78682 0.26238 0.79855 0.0
C1673 C 0.76513 0.22207 0.82511 0.0
C1674 C 0.8043 0.27461 0.81025 0.0
C1675 C 0.82415 0.27408 0.79232 0.0
C1676 C 0.82733 0.26139 0.76174 0.0
C1677 C 0.80966 0.24962 0.74952 0.0
C1678 C 0.78985 0.25019 0.76739 0.0
H1679 H 0.75894 0.21035 0.8448 0.0
H1680 H 0.76123 0.21616 0.79801 0.0
H1681 H 0.78268 0.22283 0.82784 0.0
H1682 H 0.80276 0.28436 0.83385 0.0
H1683 H 0.83713 0.28346 0.80282 0.0
H1684 H 0.83834 0.69123 0.3748 0.0
H1685 H 0.80406 0.68808 0.34365 0.0
H1686 H 0.77936 0.74012 0.40516 0.0
H1687 H 0.81308 0.74282 0.43694 0.0
H1688 H 0.74931 0.71288 0.40003 0.0
H1689 H 0.78071 0.72138 0.26274 0.0
H1690 H 0.79175 0.69899 0.28592 0.0
H1691 H 0.79713 0.72543 0.30159 0.0
C1692 C 0.8256 0.70197 0.38186 0.0
C1693 C 0.82886 0.7173 0.40873 0.0
C1694 C 0.80589 0.70033 0.36356 0.0
C1695 C 0.78874 0.71416 0.37101 0.0
C1696 C 0.79196 0.72918 0.3983 0.0
H1697 H 0.67718 0.73932 0.23218 0.0
H1698 H 0.71185 0.73866 0.26218 0.0
C1699 C 0.81151 0.73072 0.41667 0.0
C1700 C 0.76743 0.71305 0.35128 0.0
H1701 H 0.74415 0.7127 0.2679 0.0
C1702 C 0.74834 0.71283 0.37109 0.0
C1703 C 0.76554 0.71334 0.31333 0.0
C1704 C 0.78484 0.71502 0.28961 0.0
C1705 C 0.72798 0.7128 0.35462 0.0
C1706 C 0.72608 0.71238 0.31669 0.0
C1707 C 0.74515 0.71275 0.29683 0.0
C1708 C 0.70465 0.71221 0.29729 0.0
C1709 C 0.70867 0.71401 0.37839 0.0
C1710 C 0.6886 0.69732 0.30577 0.0
C1711 C 0.66852 0.69778 0.28865 0.0
C1712 C 0.66372 0.71292 0.26184 0.0
C1713 C 0.68001 0.72736 0.25252 0.0
C1714 C 0.70004 0.72699 0.26984 0.0
H1715 H 0.71261 0.7209 0.40485 0.0
H1716 H 0.69593 0.72375 0.36596 0.0
H1717 H 0.70242 0.69777 0.38309 0.0
H1718 H 0.69153 0.6852 0.32574 0.0
H1719 H 0.65669 0.68622 0.29665 0.0
H1720 H 0.54927 0.57528 0.6299 0.0
H1721 H 0.55059 0.54022 0.6016 0.0
H1722 H 0.49536 0.5209 0.66131 0.0
H1723 H 0.49403 0.55584 0.68988 0.0
H1724 H 0.55402 0.49772 0.6307 0.0
H1725 H 0.47806 0.50737 0.55738 0.0
H1726 H 0.49197 0.52951 0.57697 0.0
H1727 H 0.47647 0.512 0.60465 0.0
C1728 C 0.53741 0.5636 0.63726 0.0
C1729 C 0.52151 0.56876 0.66246 0.0
C1730 C 0.5382 0.54338 0.62092 0.0
C1731 C 0.52292 0.52761 0.6286 0.0
C1732 C 0.50722 0.53262 0.65414 0.0
H1733 H 0.49087 0.4007 0.54635 0.0
H1734 H 0.49255 0.43516 0.57565 0.0
C1735 C 0.50657 0.55274 0.67081 0.0
C1736 C 0.5233 0.50613 0.60991 0.0
H1737 H 0.49412 0.47356 0.55511 0.0
C1738 C 0.54092 0.49252 0.61406 0.0
C1739 C 0.50632 0.49891 0.58807 0.0
C1740 C 0.48718 0.51272 0.58112 0.0
C1741 C 0.54175 0.47204 0.59819 0.0
C1742 C 0.52477 0.4648 0.5761 0.0
C1743 C 0.50725 0.47861 0.57178 0.0
C1744 C 0.52439 0.44299 0.55815 0.0
C1745 C 0.56057 0.45808 0.60666 0.0
C1746 C 0.54161 0.43512 0.53777 0.0
C1747 C 0.54077 0.41494 0.5211 0.0
C1748 C 0.52251 0.40197 0.52355 0.0
C1749 C 0.50527 0.40996 0.54357 0.0
C1750 C 0.5062 0.42994 0.56046 0.0
H1751 H 0.56833 0.46278 0.6321 0.0
H1752 H 0.55585 0.44115 0.60879 0.0
H1753 H 0.57254 0.45973 0.58506 0.0
H1754 H 0.55571 0.44471 0.53412 0.0
H1755 H 0.55437 0.40963 0.50586 0.0
H1756 H -0.00666 0.55619 0.97414 0.0
H1757 H -0.00609 0.52049 1.00138 0.0
H1758 H 0.95246 0.54216 1.08511 0.0
H1759 H 0.95155 0.57734 1.05798 0.0
H1760 H 0.00735 0.50438 1.06331 0.0
H1761 H 0.92095 0.48973 1.05996 0.0
H1762 H 0.93294 0.51182 1.0367 0.0
H1763 H 0.92709 0.51356 1.08374 0.0
C1764 C 0.98415 0.55333 0.99814 0.0
C1765 C 0.97214 0.56995 1.01322 0.0
C1766 C 0.98453 0.53277 1.01392 0.0
C1767 C 0.97282 0.52799 1.04525 0.0
C1768 C 0.96113 0.54473 1.06049 0.0
H1769 H -0.00185 0.41986 0.1922 0.0
H1770 H -0.00342 0.45417 0.16141 0.0
C1771 C 0.96072 0.56515 1.0448 0.0
C1772 C 0.97322 0.50595 1.0626 0.0
H1773 H 0.94128 0.46651 0.09737 0.0
C1774 C -0.00717 0.49615 1.07052 0.0
C1775 C 0.95444 0.49454 1.0719 0.0
C1776 C 0.93268 0.50283 1.06231 0.0
C1777 C -0.00581 0.47605 0.08789 0.0
C1778 C 0.97542 0.46513 0.09875 0.0
C1779 C 0.95581 0.47465 0.08992 0.0
C1780 C 0.97578 0.44388 0.11876 0.0
C1781 C 0.01592 0.46654 0.09361 0.0
C1782 C 0.9639 0.42627 0.10673 0.0
C1783 C 0.96455 0.40645 0.12482 0.0
C1784 C 0.977 0.40343 0.15589 0.0
C1785 C -0.01158 0.42123 0.16842 0.0
C1786 C -0.01227 0.44102 0.15039 0.0
H1787 H 0.02766 0.47306 1.07429 0.0
H1788 H 0.02154 0.47047 0.12089 0.0
H1789 H 0.01557 0.44901 0.09089 0.0
H1790 H 0.95434 0.42769 1.08275 0.0
H1791 H 0.95549 0.39335 0.11401 0.0
H1792 H 0.00189 0.12372 0.3428 0.0
H1793 H 0.0139 0.13383 0.40343 0.0
H1794 H 0.06426 0.17102 0.35739 0.0
H1795 H 0.05265 0.16088 0.29755 0.0
H1796 H 0.05181 0.12873 0.44475 0.0
H1797 H 0.0409 0.21468 0.42616 0.0
H1798 H 0.03109 0.19559 0.39457 0.0
H1799 H 0.05866 0.20362 0.39374 0.0
C1800 C 0.01558 0.13401 0.34527 0.0
C1801 C 0.02608 0.14109 0.3137 0.0
C1802 C 0.0226 0.13992 0.38062 0.0
C1803 C 0.04022 0.15371 0.38671 0.0
C1804 C 0.05054 0.16076 0.35512 0.0
H1805 H 0.10272 0.21914 0.5762 0.0
H1806 H 0.0909 0.20702 0.51694 0.0
C1807 C 0.04379 0.15465 0.32007 0.0
C1808 C 0.04798 0.16056 0.42511 0.0
H1809 H 0.06067 0.20429 0.47703 0.0
C1810 C 0.05345 0.14533 0.45163 0.0
C1811 C 0.05085 0.18215 0.43589 0.0
C1812 C 0.0449 0.20002 0.41124 0.0
C1813 C 0.06181 0.15079 0.48638 0.0
C1814 C 0.06439 0.17251 0.49729 0.0
C1815 C 0.05895 0.18764 0.4706 0.0
C1816 C 0.0725 0.17992 0.53528 0.0
C1817 C 0.06888 0.13275 0.51016 0.0
C1818 C 0.06645 0.16973 0.5677 0.0
C1819 C 0.07384 0.17645 0.60204 0.0
C1820 C 0.0873 0.19433 0.60685 0.0
C1821 C 0.09278 0.20514 0.57474 0.0
C1822 C 0.08574 0.19809 0.54015 0.0
H1823 H 0.07342 0.11864 0.49424 0.0
H1824 H 0.08267 0.13731 0.52694 0.0
H1825 H 0.0555 0.12795 0.52774 0.0
H1826 H 0.05544 0.15659 0.56696 0.0
H1827 H 0.0684 0.16771 0.62529 0.0
H1828 H 0.11646 0.74577 0.60026 0.0
H1829 H 0.10706 0.75788 0.66118 0.0
H1830 H 0.05576 0.79485 0.61761 0.0
H1831 H 0.06513 0.78323 0.55758 0.0
H1832 H 0.10474 0.79802 0.69626 0.0
H1833 H 0.02423 0.7644 0.69755 0.0
H1834 H 0.04252 0.75908 0.66164 0.0
H1835 H 0.02717 0.78331 0.66201 0.0
C1836 C 0.10316 0.75648 0.60338 0.0
C1837 C 0.0919 0.76335 0.57246 0.0
C1838 C 0.09768 0.76357 0.63884 0.0
C1839 C 0.08027 0.77747 0.64566 0.0
C1840 C 0.06903 0.78408 0.61475 0.0
H1841 H 0.01332 0.83696 0.83515 0.0
H1842 H 0.02457 0.82379 0.7763 0.0
C1843 C 0.07467 0.77736 0.57959 0.0
C1844 C 0.07392 0.78536 0.68405 0.0
H1845 H 0.03145 0.79021 0.74267 0.0
C1846 C 0.08871 0.79599 0.70628 0.0
C1847 C 0.05299 0.78341 0.69874 0.0
C1848 C 0.03588 0.77172 0.67888 0.0
C1849 C 0.08328 0.80486 0.74057 0.0
C1850 C 0.06228 0.80288 0.7553 0.0
C1851 C 0.04756 0.79218 0.73298 0.0
C1852 C 0.05525 0.81161 0.79293 0.0
C1853 C 0.10023 0.81731 0.75971 0.0
C1854 C 0.0679 0.8094 0.82425 0.0
C1855 C 0.06149 0.81739 0.85835 0.0
C1856 C 0.04177 0.82785 0.86393 0.0
C1857 C 0.02879 0.82959 0.83295 0.0
C1858 C 0.03532 0.82174 0.79865 0.0
H1859 H 0.11216 0.82381 0.74069 0.0
H1860 H 0.09335 0.83071 0.77494 0.0
H1861 H 0.10877 0.80663 0.77851 0.0
H1862 H 0.08282 0.80098 0.8228 0.0
H1863 H 0.07203 0.81487 0.88084 0.0
H1864 H 0.39779 0.7423 1.08048 0.0
H1865 H 0.41011 0.75347 1.02071 0.0
H1866 H 0.41889 0.81707 1.05891 0.0
H1867 H 0.4068 0.80598 0.1184 0.0
H1868 H 0.40312 0.82074 0.99311 0.0
H1869 H 0.46816 0.76282 0.9798 0.0
H1870 H 0.44272 0.75016 0.98419 0.0
H1871 H 0.45315 0.7655 1.02058 0.0
C1872 C 0.40217 0.75875 1.07643 0.0
C1873 C 0.40086 0.77299 0.10571 0.0
C1874 C 0.40961 0.76523 1.04164 0.0
C1875 C 0.41607 0.78642 1.03368 0.0
C1876 C 0.41431 0.80066 1.06278 0.0
H1877 H 0.49076 0.8352 0.84041 0.0
H1878 H 0.47938 0.82263 0.90014 0.0
C1879 C 0.40718 0.79415 0.09754 0.0
C1880 C 0.4242 0.79395 0.9958 0.0
H1881 H 0.46013 0.78335 0.92752 0.0
C1882 C 0.41559 0.81234 0.97914 0.0
C1883 C 0.44078 0.78377 0.97597 0.0
C1884 C 0.45193 0.76459 0.99109 0.0
C1885 C 0.4224 0.8202 0.94476 0.0
C1886 C 0.43872 0.80986 0.92474 0.0
C1887 C 0.44765 0.79169 0.94158 0.0
C1888 C 0.44629 0.81758 0.88677 0.0
C1889 C 0.4121 0.84005 0.93032 0.0
C1890 C 0.43214 0.81919 0.85736 0.0
C1891 C 0.43878 0.82625 0.82268 0.0
C1892 C 0.46001 0.83252 0.81484 0.0
C1893 C 0.47424 0.83104 0.84431 0.0
C1894 C 0.46763 0.82356 0.87904 0.0
H1895 H 0.40405 0.84919 0.95169 0.0
H1896 H 0.424 0.85047 0.91709 0.0
H1897 H 0.39998 0.83562 0.91014 0.0
H1898 H 0.4157 0.81459 0.86096 0.0
H1899 H 0.42698 0.82664 0.80161 0.0
H1900 H 0.42544 0.14571 0.36768 0.0
H1901 H 0.41449 0.15624 0.30735 0.0
H1902 H 0.47999 0.15658 0.27428 0.0
H1903 H 0.49076 0.14498 0.3342 0.0
H1904 H 0.41469 0.1859 0.26539 0.0
H1905 H 0.46313 0.13043 0.18675 0.0
H1906 H 0.46142 0.12825 0.23462 0.0
H1907 H 0.47954 0.14693 0.21407 0.0
C1908 C 0.43766 0.14754 0.34755 0.0
C1909 C 0.45921 0.14379 0.35707 0.0
C1910 C 0.43128 0.1539 0.31231 0.0
C1911 C 0.44595 0.15712 0.28391 0.0
C1912 C 0.4676 0.15362 0.29364 0.0
H1913 H 0.39769 0.22982 1.08629 0.0
H1914 H 0.41059 0.21989 0.14593 0.0
C1915 C 0.47397 0.14697 0.32885 0.0
C1916 C 0.43851 0.16455 0.24547 0.0
H1917 H 0.44647 0.15804 0.15431 0.0
C1918 C 0.42179 0.17952 0.24137 0.0
C1919 C 0.44692 0.15672 0.21242 0.0
C1920 C 0.46357 0.13955 0.21207 0.0
C1921 C 0.41363 0.18653 0.20726 0.0
C1922 C 0.42258 0.1793 0.17423 0.0
C1923 C 0.43925 0.16427 0.17833 0.0
C1924 C 0.41462 0.18623 0.13584 0.0
C1925 C 0.39463 0.20107 0.20756 0.0
C1926 C 0.41299 0.17155 0.10725 0.0
C1927 C 0.40601 0.17751 1.07213 0.0
C1928 C 0.39998 0.19858 1.06291 0.0
C1929 C 0.40158 0.21334 0.09133 0.0
C1930 C 0.40893 0.20744 0.12639 0.0
H1931 H 0.38542 0.19939 0.23274 0.0
H1932 H 0.40015 0.21777 0.20581 0.0
H1933 H 0.3838 0.19781 0.18483 0.0
H1934 H 0.41708 0.1551 0.11197 0.0
H1935 H 0.40549 0.16533 1.05186 0.0
H1936 H 0.84054 0.81942 0.64144 0.0
H1937 H 0.84372 0.84489 0.68935 0.0
H1938 H 0.84194 0.89634 0.61274 0.0
H1939 H 0.84074 0.87073 0.56424 0.0
H1940 H 0.87384 0.90192 0.65019 0.0
H1941 H 0.81168 0.88472 0.74756 0.0
H1942 H 0.82344 0.85962 0.73779 0.0
H1943 H 0.81019 0.87442 0.70268 0.0
C1944 C 0.84057 0.83615 0.63469 0.0
C1945 C 0.8409 0.84292 0.59885 0.0
C1946 C 0.84189 0.85083 0.66233 0.0
C1947 C 0.84284 0.8727 0.65492 0.0
C1948 C 0.84119 0.87959 0.61926 0.0
H1949 H 0.8898 0.91658 0.86008 0.0
H1950 H 0.86689 0.9217 0.80764 0.0
C1951 C 0.84034 0.86486 0.59147 0.0
C1952 C 0.84968 0.88752 0.68351 0.0
H1953 H 0.84796 0.89168 0.77415 0.0
C1954 C 0.86764 0.90027 0.6771 0.0
C1955 C 0.84131 0.88641 0.71857 0.0
C1956 C 0.82042 0.87573 0.72677 0.0
C1957 C 0.87908 0.90925 0.70538 0.0
C1958 C 0.87289 0.90463 0.74089 0.0
C1959 C 0.85326 0.89462 0.74699 0.0
C1960 C 0.8882 0.90594 0.77098 0.0
C1961 C 0.89841 0.9225 0.69688 0.0
C1962 C 0.90797 0.8958 0.76773 0.0
C1963 C 0.92103 0.89296 0.7974 0.0
C1964 C 0.9145 0.89987 0.83126 0.0
C1965 C 0.89519 0.91098 0.83432 0.0
C1966 C 0.88213 0.91398 0.80439 0.0
H1967 H 0.89545 0.93254 0.67289 0.0
H1968 H 0.90291 0.9329 0.71952 0.0
H1969 H 0.91195 0.9119 0.69052 0.0
H1970 H 0.91275 0.88872 0.74269 0.0
H1971 H 0.93554 0.88393 0.79419 0.0
H1972 H 0.85666 0.13352 0.55594 0.0
H1973 H 0.86221 0.10469 0.51371 0.0
H1974 H 0.90508 0.07422 0.58793 0.0
H1975 H 0.89981 0.10332 0.63027 0.0
H1976 H 0.92243 0.08176 0.52198 0.0
H1977 H 0.84483 0.0425 0.50515 0.0
H1978 H 0.84214 0.07081 0.50332 0.0
H1979 H 0.85126 0.05827 0.54392 0.0
C1980 C 0.86708 0.12056 0.56343 0.0
C1981 C 0.87796 0.12074 0.59619 0.0
C1982 C 0.86995 0.1039 0.53956 0.0
C1983 C 0.88372 0.08709 0.54801 0.0
C1984 C 0.89411 0.08688 0.5812 0.0
H1985 H 0.94037 0.03151 0.35675 0.0
H1986 H 0.92924 0.02775 0.41934 0.0
C1987 C 0.89113 0.10351 0.60526 0.0
C1988 C 0.88973 0.07198 0.51969 0.0
H1989 H 0.86784 0.0431 0.45228 0.0
C1990 C 0.91073 0.07264 0.5073 0.0
C1991 C 0.87442 0.06 0.50092 0.0
C1992 C 0.85195 0.05767 0.51429 0.0
C1993 C 0.91627 0.06386 0.47428 0.0
C1994 C 0.9004 0.05365 0.45365 0.0
C1995 C 0.87995 0.05099 0.46801 0.0
C1996 C 0.90343 0.05029 0.41485 0.0
C1997 C 0.93847 0.06764 0.46022 0.0
C1998 C 0.89147 0.06274 0.39105 0.0
C1999 C 0.89757 0.06469 0.35545 0.0
C2000 C 0.91584 0.05428 0.34296 0.0
C2001 C 0.92645 0.04001 0.36586 0.0
C2002 C 0.92015 0.03788 0.40157 0.0
H2003 H 0.94798 0.07805 0.47799 0.0
H2004 H 0.94691 0.05226 0.45796 0.0
H2005 H 0.93787 0.07508 0.43327 0.0
H2006 H 0.87848 0.07243 0.40067 0.0
H2007 H 0.8891 0.07591 0.33869 0.0
H2008 H 0.68491 0.16408 0.10433 0.0
H2009 H 0.68881 0.14549 0.16164 0.0
H2010 H 0.64004 0.10117 0.13022 0.0
H2011 H 0.63638 0.11929 1.07329 0.0
H2012 H 0.65711 0.14681 0.20539 0.0
H2013 H 0.67581 0.06237 0.18865 0.0
H2014 H 0.68074 0.08163 0.15365 0.0
H2015 H 0.65496 0.06931 0.15819 0.0
C2016 C 0.67556 0.14993 0.10928 0.0
C2017 C 0.66022 0.14326 1.08443 0.0
C2018 C 0.67789 0.13924 0.14191 0.0
C2019 C 0.66485 0.12179 0.15025 0.0
C2020 C 0.65076 0.11415 0.12421 0.0
H2021 H 0.58111 0.08088 0.30079 0.0
H2022 H 0.60716 0.08317 0.25256 0.0
C2023 C 0.64857 0.12468 0.09157 0.0
C2024 C 0.66219 0.11471 0.18786 0.0
H2025 H 0.65073 0.07068 0.23785 0.0
C2026 C 0.65648 0.13017 0.21292 0.0
C2027 C 0.66132 0.09302 0.19775 0.0
C2028 C 0.66878 0.07571 0.17311 0.0
C2029 C 0.64788 0.12455 0.24613 0.0
C2030 C 0.64528 0.10282 0.25479 0.0
C2031 C 0.65261 0.08732 0.23102 0.0
C2032 C 0.63208 0.0963 0.28564 0.0
C2033 C 0.63991 0.14196 0.2703 0.0
C2034 C 0.63787 0.10185 0.32054 0.0
C2035 C 0.62287 0.10098 0.34802 0.0
C2036 C 0.60192 0.09429 0.34104 0.0
C2037 C 0.59694 0.0866 0.30683 0.0
C2038 C 0.61189 0.08766 0.27934 0.0
H2039 H 0.64041 0.15782 0.25719 0.0
H2040 H 0.62331 0.13873 0.27876 0.0
H2041 H 0.64996 0.14262 0.29464 0.0
H2042 H 0.65349 0.10832 0.32597 0.0
H2043 H 0.6273 0.10707 0.37398 0.0
H2044 H 0.5825 0.85662 0.88481 0.0
H2045 H 0.60977 0.85563 0.93094 0.0
H2046 H 0.65758 0.8718 0.85279 0.0
H2047 H 0.63032 0.87201 0.8059 0.0
H2048 H 0.67033 0.83937 0.89475 0.0
H2049 H 0.64063 0.90297 0.98093 0.0
H2050 H 0.61902 0.88548 0.9709 0.0
H2051 H 0.63183 0.90003 0.93523 0.0
C2052 C 0.5988 0.85992 0.87734 0.0
C2053 C 0.60424 0.86437 0.8417 0.0
C2054 C 0.61435 0.85971 0.90385 0.0
C2055 C 0.63563 0.86421 0.89545 0.0
C2056 C 0.64119 0.86863 0.85991 0.0
H2057 H 0.68332 0.84537 0.10673 0.0
H2058 H 0.68918 0.86283 1.04891 0.0
C2059 C 0.6256 0.86881 0.83324 0.0
C2060 C 0.65194 0.86242 0.92381 0.0
H2061 H 0.65714 0.8726 1.01243 0.0
C2062 C 0.66797 0.84711 0.92026 0.0
C2063 C 0.64967 0.8732 0.95658 0.0
C2064 C 0.6345 0.89153 0.96092 0.0
C2065 C 0.67961 0.84017 0.95012 0.0
C2066 C 0.67449 0.84828 0.98424 0.0
C2067 C 0.66078 0.86582 0.98657 0.0
C2068 C 0.6786 0.83604 1.01755 0.0
C2069 C 0.6963 0.82331 0.94507 0.0
C2070 C 0.67195 0.81477 1.01921 0.0
C2071 C 0.66877 0.80478 1.05204 0.0
C2072 C 0.67184 0.81596 1.084 0.0
C2073 C 0.68058 0.83648 1.08246 0.0
C2074 C 0.68401 0.84643 1.04944 0.0
H2075 H 0.70559 0.82656 0.92039 0.0
H2076 H 0.70739 0.82239 0.96813 0.0
H2077 H 0.68846 0.80768 0.94155 0.0
H2078 H 0.66702 0.80648 0.99533 0.0
H2079 H 0.66179 0.78907 1.05219 0.0
H2080 H 0.56668 0.64535 0.804 0.0
H2081 H 0.57751 0.65656 0.86393 0.0
H2082 H 0.51208 0.65613 0.89714 0.0
H2083 H 0.50141 0.64386 0.83768 0.0
H2084 H 0.57651 0.68684 0.90539 0.0
H2085 H 0.52988 0.62983 0.98514 0.0
H2086 H 0.53169 0.62772 0.9373 0.0
H2087 H 0.513 0.64581 0.95745 0.0
C2088 C 0.55444 0.64719 0.82406 0.0
C2089 C 0.53294 0.64298 0.81471 0.0
C2090 C 0.56076 0.65391 0.85909 0.0
C2091 C 0.54608 0.65703 0.88747 0.0
C2092 C 0.52447 0.65322 0.87783 0.0
H2093 H 0.59143 0.73161 1.08396 0.0
H2094 H 0.57951 0.72103 1.02432 0.0
C2095 C 0.51816 0.64625 0.84285 0.0
C2096 C 0.55342 0.66471 0.92576 0.0
H2097 H 0.5457 0.65802 1.01715 0.0
C2098 C 0.56966 0.68023 0.92957 0.0
C2099 C 0.5453 0.65662 0.95901 0.0
C2100 C 0.52918 0.63894 0.95966 0.0
C2101 C 0.5776 0.68753 0.96356 0.0
C2102 C 0.56898 0.67998 0.9968 0.0
C2103 C 0.55277 0.66442 0.99298 0.0
C2104 C 0.57669 0.68725 1.03514 0.0
C2105 C 0.596 0.70284 0.96293 0.0
C2106 C 0.57877 0.67271 1.06416 0.0
C2107 C 0.58541 0.679 0.09924 0.0
C2108 C 0.59054 0.70033 0.10803 0.0
C2109 C 0.58836 0.71496 1.07924 0.0
C2110 C 0.58154 0.70868 1.04418 0.0
H2111 H 0.60525 0.70153 0.93776 0.0
H2112 H 0.58981 0.7193 0.96435 0.0
H2113 H 0.60696 0.70005 0.98571 0.0
H2114 H 0.57533 0.6561 1.0598 0.0
H2115 H 0.58639 0.6669 0.11981 0.0
H2116 H 0.56086 0.30939 0.37554 0.0
H2117 H 0.5706 0.29775 0.31543 0.0
H2118 H 0.52163 0.33735 0.27082 0.0
H2119 H 0.51156 0.34892 0.33148 0.0
H2120 H 0.55098 0.27588 0.2605 0.0
H2121 H 0.57022 0.35522 0.20584 0.0
H2122 H 0.56646 0.35065 0.25308 0.0
H2123 H 0.54387 0.35285 0.22384 0.0
C2124 C 0.55211 0.316 0.35318 0.0
C2125 C 0.53544 0.33074 0.35983 0.0
C2126 C 0.55775 0.30904 0.31808 0.0
C2127 C 0.54744 0.3166 0.28683 0.0
C2128 C 0.5306 0.33123 0.29328 0.0
H2129 H 0.57169 0.30162 1.04968 0.0
H2130 H 0.56014 0.31178 0.10953 0.0
C2131 C 0.52467 0.33796 0.32865 0.0
C2132 C 0.55428 0.30907 0.24846 0.0
H2133 H 0.57154 0.32678 0.16548 0.0
C2134 C 0.55547 0.28718 0.23991 0.0
C2135 C 0.56027 0.32315 0.2201 0.0
C2136 C 0.56037 0.34677 0.22603 0.0
C2137 C 0.56168 0.27932 0.20528 0.0
C2138 C 0.56813 0.29342 0.17691 0.0
C2139 C 0.56689 0.31534 0.1857 0.0
C2140 C 0.57565 0.28624 0.13841 0.0
C2141 C 0.56032 0.2557 0.19961 0.0
C2142 C 0.58873 0.26818 0.13172 0.0
C2143 C 0.59517 0.26195 0.09637 0.0
C2144 C 0.58959 0.27373 1.06529 0.0
C2145 C 0.57688 0.29192 1.07199 0.0
C2146 C 0.57013 0.2979 0.10711 0.0
H2147 H 0.54829 0.24833 0.21753 0.0
H2148 H 0.55608 0.25177 0.17165 0.0
H2149 H 0.5759 0.24842 0.20613 0.0
H2150 H 0.59443 0.25877 0.15395 0.0
H2151 H 0.60484 0.24786 0.09354 0.0
H2152 H 0.94579 0.30412 0.29565 0.0
H2153 H 0.93443 0.29285 0.3555 0.0
H2154 H 0.97639 0.33878 0.4023 0.0
H2155 H -0.0116 0.34973 0.34199 0.0
H2156 H 0.95662 0.27556 0.41816 0.0
H2157 H 0.91966 0.35198 0.45538 0.0
H2158 H 0.92579 0.34557 0.40952 0.0
H2159 H 0.94663 0.3532 0.43959 0.0
C2160 C 0.95274 0.31207 0.31841 0.0
C2161 C 0.96811 0.32832 0.31246 0.0
C2162 C 0.94612 0.3054 0.35338 0.0
C2163 C 0.95393 0.31485 0.38509 0.0
C2164 C 0.96943 0.33104 0.37935 0.0
H2165 H 0.91654 0.30293 0.61898 0.0
H2166 H 0.93044 0.31351 0.56041 0.0
C2167 C 0.97649 0.33739 0.34421 0.0
C2168 C 0.94588 0.30771 0.42321 0.0
H2169 H 0.91942 0.32502 0.49906 0.0
C2170 C 0.94832 0.28649 0.43545 0.0
C2171 C 0.93527 0.32146 0.44767 0.0
C2172 C 0.93146 0.34431 0.43757 0.0
C2173 C 0.94101 0.27901 0.46987 0.0
C2174 C 0.92977 0.29261 0.49406 0.0
C2175 C 0.9276 0.31394 0.48184 0.0
C2176 C 0.92066 0.28543 0.5317 0.0
C2177 C 0.94642 0.25653 0.48031 0.0
C2178 C 0.90971 0.26589 0.53777 0.0
C2179 C 0.90162 0.2596 0.57224 0.0
C2180 C 0.90355 0.27257 0.60304 0.0
C2181 C 0.91418 0.2922 0.59685 0.0
C2182 C 0.92235 0.2984 0.56253 0.0
H2183 H 0.96093 0.25095 0.46632 0.0
H2184 H 0.94907 0.25497 0.50951 0.0
H2185 H 0.93315 0.24593 0.47246 0.0
H2186 H 0.90706 0.25529 0.5156 0.0
H2187 H 0.89381 0.24436 0.57469 0.0
H2188 H 0.91894 0.64817 0.8723 0.0
H2189 H 0.90853 0.6612 0.81273 0.0
H2190 H 0.97438 0.66461 0.78256 0.0
H2191 H 0.98467 0.65088 0.84145 0.0
H2192 H 0.91001 0.69397 0.77292 0.0
H2193 H 0.9579 0.63872 0.69297 0.0
H2194 H 0.95528 0.6356 0.74062 0.0
H2195 H 0.97432 0.65407 0.72216 0.0
C2196 C 0.93135 0.65122 0.85292 0.0
C2197 C 0.95288 0.64761 0.86287 0.0
C2198 C 0.92528 0.65901 0.81818 0.0
C2199 C 0.94028 0.66377 0.79079 0.0
C2200 C 0.96184 0.66054 0.8011 0.0
H2201 H 0.90212 0.67765 0.55862 0.0
H2202 H 0.9125 0.66622 0.61866 0.0
C2203 C 0.9679 0.6526 0.83571 0.0
C2204 C 0.93341 0.67231 0.75263 0.0
H2205 H 0.94262 0.66759 0.6614 0.0
C2206 C 0.91728 0.68796 0.74877 0.0
C2207 C 0.94208 0.66497 0.71946 0.0
C2208 C 0.95818 0.64728 0.71885 0.0
C2209 C 0.91007 0.69616 0.71471 0.0
C2210 C 0.91923 0.68929 0.6816 0.0
C2211 C 0.93524 0.67353 0.6855 0.0
C2212 C 0.91207 0.69723 0.6432 0.0
C2213 C 0.8919 0.71171 0.71496 0.0
C2214 C 0.90799 0.71889 0.63407 0.0
C2215 C 0.90154 0.72562 0.59879 0.0
C2216 C 0.89901 0.71118 0.57003 0.0
C2217 C 0.90341 0.68966 0.57908 0.0
C2218 C 0.90965 0.68296 0.61422 0.0
H2219 H 0.88235 0.71029 0.73981 0.0
H2220 H 0.89836 0.72808 0.71378 0.0
H2221 H 0.88119 0.7093 0.69175 0.0
H2222 H 0.91024 0.73099 0.65407 0.0
H2223 H 0.89901 0.74237 0.59393 0.0
H2224 H 0.4049 0.41587 0.33103 0.0
H2225 H 0.38306 0.42225 0.27781 0.0
H2226 H 0.3623 0.35698 0.28065 0.0
H2227 H 0.38354 0.35073 0.33404 0.0
H2228 H 0.39267 0.40203 0.21817 0.0
H2229 H 0.30882 0.38532 0.24642 0.0
H2230 H 0.32745 0.39217 0.28134 0.0
H2231 H 0.32459 0.36501 0.26701 0.0
C2232 C 0.39508 0.40311 0.32094 0.0
C2233 C 0.39609 0.38271 0.33628 0.0
C2234 C 0.38259 0.4068 0.29064 0.0
C2235 C 0.37078 0.39021 0.27555 0.0
C2236 C 0.37078 0.37021 0.2923 0.0
H2237 H 0.3538 0.31279 0.12039 0.0
H2238 H 0.35088 0.33731 0.17016 0.0
C2239 C 0.38326 0.36651 0.32244 0.0
C2240 C 0.36232 0.39197 0.23879 0.0
H2241 H 0.32251 0.37093 0.18856 0.0
C2242 C 0.37698 0.39613 0.2114 0.0
C2243 C 0.34176 0.38468 0.22997 0.0
C2244 C 0.32473 0.3818 0.25788 0.0
C2245 C 0.37283 0.38995 0.17618 0.0
C2246 C 0.35338 0.37971 0.16841 0.0
C2247 C 0.33756 0.37847 0.19477 0.0
C2248 C 0.35157 0.36564 0.13716 0.0
C2249 C 0.39027 0.39206 0.14868 0.0
C2250 C 0.35246 0.37346 0.10202 0.0
C2251 C 0.35456 0.3594 1.07343 0.0
C2252 C 0.35569 0.33739 1.07973 0.0
C2253 C 0.35353 0.32967 0.1148 0.0
C2254 C 0.35152 0.34366 0.1432 0.0
H2255 H 0.40488 0.3994 0.15982 0.0
H2256 H 0.39446 0.37622 0.13791 0.0
H2257 H 0.38467 0.40207 0.1261 0.0
H2258 H 0.35232 0.39039 0.09686 0.0
H2259 H 0.35611 0.36578 1.04662 0.0
H2260 H 0.38989 0.60053 0.12535 0.0
H2261 H 0.39265 0.57242 1.08047 0.0
H2262 H 0.36739 0.615 1.00048 0.0
H2263 H 0.36419 0.64295 1.04512 0.0
H2264 H 0.35124 0.56998 0.99995 0.0
H2265 H 0.43955 0.57869 1.00123 0.0
H2266 H 0.42557 0.57398 1.04249 0.0
H2267 H 0.42268 0.59895 1.01983 0.0
C2268 C 0.38462 0.60376 0.0983 0.0
C2269 C 0.37706 0.62401 0.08858 0.0
C2270 C 0.38624 0.58772 1.07278 0.0
C2271 C 0.38026 0.59172 1.03728 0.0
C2272 C 0.37199 0.61163 1.02785 0.0
H2273 H 0.38445 0.58586 0.82984 0.0
H2274 H 0.37125 0.57951 0.88948 0.0
C2275 C 0.37043 0.62765 1.05323 0.0
C2276 C 0.38448 0.57625 1.00872 0.0
H2277 H 0.42417 0.56273 0.95161 0.0
C2278 C 0.36722 0.56777 0.9898 0.0
C2279 C 0.40537 0.57301 0.99608 0.0
C2280 C 0.42445 0.5816 1.01576 0.0
C2281 C 0.37021 0.55794 0.95664 0.0
C2282 C 0.39086 0.5572 0.9418 0.0
C2283 C 0.40829 0.56341 0.96277 0.0
C2284 C 0.3944 0.55526 0.90278 0.0
C2285 C 0.35107 0.54957 0.93698 0.0
C2286 C 0.41142 0.54323 0.88953 0.0
C2287 C 0.41924 0.54706 0.85509 0.0
C2288 C 0.41015 0.56299 0.83349 0.0
C2289 C 0.39172 0.57331 0.84547 0.0
C2290 C 0.38401 0.56956 0.8798 0.0
H2291 H 0.33975 0.54207 0.95602 0.0
H2292 H 0.34264 0.56297 0.92384 0.0
H2293 H 0.35555 0.53777 0.91638 0.0
H2294 H 0.41972 0.53214 0.90679 0.0
H2295 H 0.43328 0.53862 0.84636 0.0
H2296 H 0.13375 0.65393 0.64588 0.0
H2297 H 0.13341 0.62906 0.69563 0.0
H2298 H 0.14882 0.57778 0.6242 0.0
H2299 H 0.14805 0.60262 0.5736 0.0
H2300 H 0.11704 0.56666 0.66406 0.0
H2301 H 0.17647 0.59944 0.75495 0.0
H2302 H 0.15983 0.62107 0.74156 0.0
H2303 H 0.1754 0.60725 0.70844 0.0
C2304 C 0.13717 0.63739 0.64068 0.0
C2305 C 0.14071 0.63024 0.60573 0.0
C2306 C 0.13742 0.6232 0.66932 0.0
C2307 C 0.14162 0.60157 0.66387 0.0
C2308 C 0.14584 0.59444 0.62912 0.0
H2309 H 0.10828 0.56414 0.8769 0.0
H2310 H 0.13017 0.55672 0.82428 0.0
C2311 C 0.14546 0.60867 0.60028 0.0
C2312 C 0.13858 0.58649 0.69397 0.0
H2313 H 0.14322 0.58612 0.78447 0.0
C2314 C 0.12333 0.57036 0.69029 0.0
C2315 C 0.14745 0.59036 0.72803 0.0
C2316 C 0.1659 0.60532 0.73325 0.0
C2317 C 0.11441 0.5605 0.72044 0.0
C2318 C 0.12035 0.56758 0.75486 0.0
C2319 C 0.13798 0.58113 0.7582 0.0
C2320 C 0.10586 0.56554 0.78599 0.0
C2321 C 0.09773 0.54364 0.71505 0.0
C2322 C 0.08463 0.57208 0.7821 0.0
C2323 C 0.07214 0.57614 0.81196 0.0
C2324 C 0.08068 0.57413 0.84647 0.0
C2325 C 0.10136 0.566 0.85056 0.0
C2326 C 0.11384 0.56168 0.82052 0.0
H2327 H 0.10242 0.53298 0.69286 0.0
H2328 H 0.09519 0.53396 0.73956 0.0
H2329 H 0.08251 0.55124 0.7072 0.0
H2330 H 0.07819 0.57595 0.75604 0.0
H2331 H 0.05642 0.58271 0.80783 0.0
H2332 H 0.07673 0.42498 0.35891 0.0
H2333 H 0.09605 0.42672 0.41572 0.0
H2334 H 0.14071 0.38031 0.37692 0.0
H2335 H 0.12192 0.37889 0.32045 0.0
H2336 H 0.09593 0.39361 0.45624 0.0
H2337 H 0.17996 0.41407 0.43687 0.0
H2338 H 0.16011 0.4199 0.40332 0.0
H2339 H 0.17282 0.39424 0.40499 0.0
C2340 C 0.09111 0.41573 0.36218 0.0
C2341 C 0.09773 0.4017 0.33532 0.0
C2342 C 0.1022 0.41681 0.39454 0.0
C2343 C 0.11999 0.40379 0.40061 0.0
C2344 C 0.12749 0.39102 0.37272 0.0
H2345 H 0.16293 0.31586 0.54427 0.0
H2346 H 0.16013 0.34281 0.4973 0.0
C2347 C 0.11657 0.39011 0.34034 0.0
C2348 C 0.12772 0.39975 0.43751 0.0
H2349 H 0.17271 0.38735 0.4843 0.0
C2350 C 0.1127 0.39298 0.46284 0.0
C2351 C 0.1496 0.39885 0.4462 0.0
C2352 C 0.16647 0.4074 0.42141 0.0
C2353 C 0.11894 0.38347 0.49505 0.0
C2354 C 0.14086 0.38095 0.50241 0.0
C2355 C 0.15592 0.38918 0.47843 0.0
C2356 C 0.14797 0.3672 0.53222 0.0
C2357 C 0.10201 0.3746 0.51957 0.0
C2358 C 0.14317 0.3724 0.56767 0.0
C2359 C 0.14438 0.35692 0.59445 0.0
C2360 C 0.15062 0.33605 0.58619 0.0
C2361 C 0.15761 0.33163 0.55133 0.0
C2362 C 0.15625 0.34708 0.52454 0.0
H2363 H 0.08591 0.3753 0.5074 0.0
H2364 H 0.10555 0.35783 0.52662 0.0
H2365 H 0.10168 0.38388 0.54467 0.0
H2366 H 0.13695 0.38794 0.57411 0.0
H2367 H 0.1388 0.36093 0.62093 0.0
loop_
_geom_bond_atom_site_label_1
_geom_bond_atom_site_label_2
_geom_bond_distance
_geom_bond_site_symmetry_2
_ccdc_geom_bond_type
Dy0 O3 2.307 . S
Dy0 O5 2.395 . S
Dy0 O6 2.379 . S
Dy0 O8 2.349 . S
Dy0 O10 2.298 1_655 S
Dy0 O14 2.275 1_655 S
Dy0 C22 2.738 . S
Dy1 O4 2.298 . S
Dy1 O7 2.275 . S
Dy1 O9 2.307 . S
Dy1 O11 2.395 . S
Dy1 O12 2.379 . S
Dy1 O15 2.339 . S
Dy1 C31 2.738 . S
C2 O14 1.254 . S
C2 O15 1.257 . S
O3 Dy0 2.307 . S
O3 C13 1.266 . S
O4 Dy1 2.298 . S
O4 C13 1.236 1_455 S
O5 Dy0 2.395 . S
O5 C22 1.255 . S
O6 Dy0 2.379 . S
O6 C22 1.249 . S
O7 Dy1 2.275 . S
O7 C23 1.254 . S
O8 Dy0 2.349 . S
O8 C23 1.217 1_655 S
O9 Dy1 2.307 . S
O9 C24 1.266 . S
O10 Dy0 2.298 1_455 S
O10 C24 1.236 . S
O11 Dy1 2.395 . S
O11 C31 1.255 . S
O12 Dy1 2.379 . S
O12 C31 1.249 . S
C13 O3 1.266 . S
C13 O4 1.236 1_655 S
O14 Dy0 2.275 1_455 S
O14 C2 1.254 . S
O15 Dy1 2.339 . S
O15 C2 1.257 . S
C16 C19 1.344 . S
C16 C20 1.328 . S
C16 C22 1.516 . S
C17 C18 1.304 . S
C17 C21 1.323 . S
C18 C17 1.304 . S
C18 C19 1.371 . S
C18 H32 0.930 . S
C19 C16 1.344 . S
C19 C18 1.371 . S
C19 H33 0.931 . S
C20 C16 1.328 . S
C20 C21 1.433 . S
C20 H34 0.931 . S
C21 C17 1.323 . S
C21 C20 1.433 . S
C21 H35 0.933 . S
C22 Dy0 2.738 . S
C22 O5 1.255 . S
C22 O6 1.249 . S
C22 C16 1.516 . S
C23 O7 1.254 . S
C23 O8 1.217 1_455 S
C24 O9 1.266 . S
C24 O10 1.236 . S
C25 C28 1.344 1_554 S
C25 C29 1.328 1_554 S
C25 C31 1.516 . S
C26 C27 1.304 . S
C26 C30 1.323 . S
C27 C26 1.304 . S
C27 C28 1.371 . S
C27 H36 0.930 . S
C28 C25 1.344 1_556 S
C28 C27 1.371 . S
C28 H37 0.931 . S
C29 C25 1.328 1_556 S
C29 C30 1.433 . S
C29 H38 0.931 1_556 S
C30 C26 1.323 . S
C30 C29 1.433 . S
C30 H39 0.933 . S
C31 Dy1 2.738 . S
C31 O11 1.255 . S
C31 O12 1.249 . S
C31 C25 1.516 . S
H32 C18 0.930 . S
H33 C19 0.931 . S
H34 C20 0.931 . S
H35 C21 0.933 . S
H36 C27 0.930 . S
H37 C28 0.931 . S
H38 C29 0.931 1_554 S
H39 C30 0.933 . S
Dy40 O43 2.307 . S
Dy40 O45 2.395 . S
Dy40 O46 2.379 . S
Dy40 O48 2.339 . S
Dy40 O50 2.298 . S
Dy40 O54 2.275 . S
Dy40 C62 2.738 . S
Dy41 O44 2.298 . S
Dy41 O47 2.275 . S
Dy41 O49 2.307 . S
Dy41 O51 2.395 . S
Dy41 O52 2.379 . S
Dy41 O55 2.339 . S
Dy41 C71 2.738 . S
C42 O54 1.254 . S
C42 O55 1.257 . S
O43 Dy40 2.307 . S
O43 C53 1.266 . S
O44 Dy41 2.298 . S
O44 C53 1.236 . S
O45 Dy40 2.395 . S
O45 C62 1.255 . S
O46 Dy40 2.379 . S
O46 C62 1.249 . S
O47 Dy41 2.275 . S
O47 C63 1.254 . S
O48 Dy40 2.339 . S
O48 C63 1.257 . S
O49 Dy41 2.307 . S
O49 C64 1.266 . S
O50 Dy40 2.298 . S
O50 C64 1.236 . S
O51 Dy41 2.395 . S
O51 C71 1.255 . S
O52 Dy41 2.379 . S
O52 C71 1.249 . S
C53 O43 1.266 . S
C53 O44 1.236 . S
O54 Dy40 2.275 . S
O54 C42 1.254 . S
O55 Dy41 2.339 . S
O55 C42 1.257 . S
C56 C59 1.344 . S
C56 C60 1.328 . S
C56 C62 1.516 . S
C57 C58 1.304 . S
C57 C61 1.323 . S
C58 C57 1.304 . S
C58 C59 1.371 . S
C58 H72 0.930 . S
C59 C56 1.344 . S
C59 C58 1.371 . S
C59 H73 0.931 . S
C60 C56 1.328 . S
C60 C61 1.433 . S
C60 H74 0.931 . S
C61 C57 1.323 . S
C61 C60 1.433 . S
C61 H75 0.933 . S
C62 Dy40 2.738 . S
C62 O45 1.255 . S
C62 O46 1.249 . S
C62 C56 1.516 . S
C63 O47 1.254 . S
C63 O48 1.257 . S
C64 O49 1.266 . S
C64 O50 1.236 . S
C65 C68 1.344 . S
C65 C69 1.328 . S
C65 C71 1.516 . S
C66 C67 1.304 . S
C66 C70 1.323 . S
C67 C66 1.304 . S
C67 C68 1.371 . S
C67 H76 0.930 . S
C68 C65 1.344 . S
C68 C67 1.371 . S
C68 H77 0.931 . S
C69 C65 1.328 . S
C69 C70 1.433 . S
C69 H78 0.931 . S
C70 C66 1.323 . S
C70 C69 1.433 . S
C70 H79 0.933 . S
C71 Dy41 2.738 . S
C71 O51 1.255 . S
C71 O52 1.249 . S
C71 C65 1.516 . S
H72 C58 0.930 . S
H73 C59 0.931 . S
H74 C60 0.931 . S
H75 C61 0.933 . S
H76 C67 0.930 . S
H77 C68 0.931 . S
H78 C69 0.931 . S
H79 C70 0.933 . S
Dy80 O83 2.307 . S
Dy80 O85 2.395 . S
Dy80 O86 2.379 . S
Dy80 O88 2.339 . S
Dy80 O90 2.298 . S
Dy80 O94 2.275 . S
Dy80 C102 2.738 . S
Dy81 O84 2.298 . S
Dy81 O87 2.275 . S
Dy81 O89 2.307 . S
Dy81 O91 2.395 . S
Dy81 O92 2.379 . S
Dy81 O95 2.339 . S
Dy81 C111 2.738 . S
C82 O94 1.254 . S
C82 O95 1.257 . S
O83 Dy80 2.307 . S
O83 C93 1.266 . S
O84 Dy81 2.298 . S
O84 C93 1.236 . S
O85 Dy80 2.395 . S
O85 C102 1.255 . S
O86 Dy80 2.379 . S
O86 C102 1.249 . S
O87 Dy81 2.275 . S
O87 C103 1.254 . S
O88 Dy80 2.339 . S
O88 C103 1.257 . S
O89 Dy81 2.307 . S
O89 C104 1.266 . S
O90 Dy80 2.298 . S
O90 C104 1.236 . S
O91 Dy81 2.395 . S
O91 C111 1.255 . S
O92 Dy81 2.379 . S
O92 C111 1.249 . S
C93 O83 1.266 . S
C93 O84 1.236 . S
O94 Dy80 2.275 . S
O94 C82 1.254 . S
O95 Dy81 2.339 . S
O95 C82 1.257 . S
C96 C99 1.344 . S
C96 C100 1.328 . S
C96 C102 1.516 . S
C97 C98 1.304 . S
C97 C101 1.323 . S
C98 C97 1.304 . S
C98 C99 1.371 . S
C98 H112 0.930 . S
C99 C96 1.344 . S
C99 C98 1.371 . S
C99 H113 0.931 . S
C100 C96 1.328 . S
C100 C101 1.433 . S
C100 H114 0.931 . S
C101 C97 1.323 . S
C101 C100 1.433 . S
C101 H115 0.933 . S
C102 Dy80 2.738 . S
C102 O85 1.255 . S
C102 O86 1.249 . S
C102 C96 1.516 . S
C103 O87 1.254 . S
C103 O88 1.257 . S
C104 O89 1.266 . S
C104 O90 1.236 . S
C105 C108 1.344 . S
C105 C109 1.328 . S
C105 C111 1.516 . S
C106 C107 1.304 . S
C106 C110 1.323 . S
C107 C106 1.304 . S
C107 C108 1.371 . S
C107 H116 0.930 . S
C108 C105 1.344 . S
C108 C107 1.371 . S
C108 H117 0.931 . S
C109 C105 1.328 . S
C109 C110 1.433 . S
C109 H118 0.931 . S
C110 C106 1.323 . S
C110 C109 1.433 . S
C110 H119 0.933 . S
C111 Dy81 2.738 . S
C111 O91 1.255 . S
C111 O92 1.249 . S
C111 C105 1.516 . S
H112 C98 0.930 . S
H113 C99 0.931 . S
H114 C100 0.931 . S
H115 C101 0.933 . S
H116 C107 0.930 . S
H117 C108 0.931 . S
H118 C109 0.931 . S
H119 C110 0.933 . S
Dy120 O123 2.307 . S
Dy120 O125 2.395 . S
Dy120 O126 2.379 . S
Dy120 O128 2.339 . S
Dy120 O130 2.298 . S
Dy120 O134 2.275 . S
Dy120 C142 2.738 . S
Dy121 O124 2.298 . S
Dy121 O127 2.275 . S
Dy121 O129 2.307 . S
Dy121 O131 2.395 . S
Dy121 O132 2.379 . S
Dy121 O135 2.339 . S
Dy121 C151 2.738 . S
C122 O134 1.254 . S
C122 O135 1.257 . S
O123 Dy120 2.307 . S
O123 C133 1.266 . S
O124 Dy121 2.298 . S
O124 C133 1.236 . S
O125 Dy120 2.395 . S
O125 C142 1.255 . S
O126 Dy120 2.379 . S
O126 C142 1.249 . S
O127 Dy121 2.275 . S
O127 C143 1.254 . S
O128 Dy120 2.339 . S
O128 C143 1.257 . S
O129 Dy121 2.307 . S
O129 C144 1.266 . S
O130 Dy120 2.298 . S
O130 C144 1.236 . S
O131 Dy121 2.395 . S
O131 C151 1.255 . S
O132 Dy121 2.379 . S
O132 C151 1.249 . S
C133 O123 1.266 . S
C133 O124 1.236 . S
O134 Dy120 2.275 . S
O134 C122 1.254 . S
O135 Dy121 2.339 . S
O135 C122 1.257 . S
C136 C139 1.343 . S
C136 C140 1.328 . S
C136 C142 1.516 . S
C137 C138 1.304 . S
C137 C141 1.323 . S
C138 C137 1.304 . S
C138 C139 1.372 1_554 S
C138 H152 0.930 . S
C139 C136 1.343 . S
C139 C138 1.372 1_556 S
C139 H153 0.931 . S
C140 C136 1.328 . S
C140 C141 1.433 1_556 S
C140 H154 0.931 . S
C141 C137 1.323 . S
C141 C140 1.433 1_554 S
C141 H155 0.933 . S
C142 Dy120 2.738 . S
C142 O125 1.255 . S
C142 O126 1.249 . S
C142 C136 1.516 . S
C143 O127 1.254 . S
C143 O128 1.257 . S
C144 O129 1.266 . S
C144 O130 1.236 . S
C145 C148 1.344 . S
C145 C149 1.328 . S
C145 C151 1.516 . S
C146 C147 1.304 . S
C146 C150 1.323 . S
C147 C146 1.304 . S
C147 C148 1.371 . S
C147 H156 0.930 . S
C148 C145 1.344 . S
C148 C147 1.371 . S
C148 H157 0.931 . S
C149 C145 1.328 . S
C149 C150 1.433 . S
C149 H158 0.931 . S
C150 C146 1.323 . S
C150 C149 1.433 . S
C150 H159 0.933 . S
C151 Dy121 2.738 . S
C151 O131 1.255 . S
C151 O132 1.249 . S
C151 C145 1.516 . S
H152 C138 0.930 . S
H153 C139 0.931 . S
H154 C140 0.931 . S
H155 C141 0.933 . S
H156 C147 0.930 . S
H157 C148 0.931 . S
H158 C149 0.931 . S
H159 C150 0.933 . S
Dy160 O163 2.307 . S
Dy160 O165 2.395 . S
Dy160 O166 2.379 . S
Dy160 O168 2.349 . S
Dy160 O170 2.298 1_655 S
Dy160 O174 2.275 1_655 S
Dy160 C182 2.738 . S
Dy161 O164 2.298 . S
Dy161 O167 2.275 . S
Dy161 O169 2.307 . S
Dy161 O171 2.395 . S
Dy161 O172 2.379 . S
Dy161 O175 2.339 . S
Dy161 C191 2.738 . S
C162 O174 1.254 . S
C162 O175 1.257 . S
O163 Dy160 2.307 . S
O163 C173 1.266 . S
O164 Dy161 2.298 . S
O164 C173 1.236 1_455 S
O165 Dy160 2.395 . S
O165 C182 1.255 . S
O166 Dy160 2.379 . S
O166 C182 1.249 . S
O167 Dy161 2.275 . S
O167 C183 1.254 . S
O168 Dy160 2.349 . S
O168 C183 1.217 1_655 S
O169 Dy161 2.307 . S
O169 C184 1.266 . S
O170 Dy160 2.298 1_455 S
O170 C184 1.236 . S
O171 Dy161 2.395 . S
O171 C191 1.255 . S
O172 Dy161 2.379 . S
O172 C191 1.249 . S
C173 O163 1.266 . S
C173 O164 1.236 1_655 S
O174 Dy160 2.275 1_455 S
O174 C162 1.254 . S
O175 Dy161 2.339 . S
O175 C162 1.257 . S
C176 C179 1.344 . S
C176 C180 1.328 . S
C176 C182 1.516 . S
C177 C178 1.304 . S
C177 C181 1.323 . S
C178 C177 1.304 . S
C178 C179 1.371 . S
C178 H192 0.930 . S
C179 C176 1.344 . S
C179 C178 1.371 . S
C179 H193 0.931 . S
C180 C176 1.328 . S
C180 C181 1.433 . S
C180 H194 0.931 . S
C181 C177 1.323 . S
C181 C180 1.433 . S
C181 H195 0.933 . S
C182 Dy160 2.738 . S
C182 O165 1.255 . S
C182 O166 1.249 . S
C182 C176 1.516 . S
C183 O167 1.254 . S
C183 O168 1.217 1_455 S
C184 O169 1.266 . S
C184 O170 1.236 . S
C185 C188 1.344 1_556 S
C185 C189 1.328 1_556 S
C185 C191 1.516 . S
C186 C187 1.304 . S
C186 C190 1.323 . S
C187 C186 1.304 . S
C187 C188 1.371 . S
C187 H196 0.930 . S
C188 C185 1.344 1_554 S
C188 C187 1.371 . S
C188 H197 0.931 . S
C189 C185 1.328 1_554 S
C189 C190 1.433 . S
C189 H198 0.931 1_554 S
C190 C186 1.323 . S
C190 C189 1.433 . S
C190 H199 0.933 . S
C191 Dy161 2.738 . S
C191 O171 1.255 . S
C191 O172 1.249 . S
C191 C185 1.516 . S
H192 C178 0.930 . S
H193 C179 0.931 . S
H194 C180 0.931 . S
H195 C181 0.933 . S
H196 C187 0.930 . S
H197 C188 0.931 . S
H198 C189 0.931 1_556 S
H199 C190 0.933 . S
Dy200 O203 2.307 . S
Dy200 O205 2.395 . S
Dy200 O206 2.379 . S
Dy200 O208 2.339 . S
Dy200 O210 2.298 . S
Dy200 O214 2.275 . S
Dy200 C222 2.738 . S
Dy201 O204 2.298 . S
Dy201 O207 2.275 . S
Dy201 O209 2.307 . S
Dy201 O211 2.395 . S
Dy201 O212 2.379 . S
Dy201 O215 2.339 . S
Dy201 C231 2.738 . S
C202 O214 1.254 . S
C202 O215 1.257 . S
O203 Dy200 2.307 . S
O203 C213 1.266 . S
O204 Dy201 2.298 . S
O204 C213 1.236 . S
O205 Dy200 2.395 . S
O205 C222 1.255 . S
O206 Dy200 2.379 . S
O206 C222 1.249 . S
O207 Dy201 2.275 . S
O207 C223 1.254 . S
O208 Dy200 2.339 . S
O208 C223 1.257 . S
O209 Dy201 2.307 . S
O209 C224 1.266 . S
O210 Dy200 2.298 . S
O210 C224 1.236 . S
O211 Dy201 2.395 . S
O211 C231 1.255 . S
O212 Dy201 2.379 . S
O212 C231 1.249 . S
C213 O203 1.266 . S
C213 O204 1.236 . S
O214 Dy200 2.275 . S
O214 C202 1.254 . S
O215 Dy201 2.339 . S
O215 C202 1.257 . S
C216 C219 1.343 . S
C216 C220 1.328 . S
C216 C222 1.516 . S
C217 C218 1.304 . S
C217 C221 1.323 . S
C218 C217 1.304 . S
C218 C219 1.372 1_556 S
C218 H232 0.930 . S
C219 C216 1.343 . S
C219 C218 1.372 1_554 S
C219 H233 0.931 . S
C220 C216 1.328 . S
C220 C221 1.433 1_554 S
C220 H234 0.931 . S
C221 C217 1.323 . S
C221 C220 1.433 1_556 S
C221 H235 0.933 . S
C222 Dy200 2.738 . S
C222 O205 1.255 . S
C222 O206 1.249 . S
C222 C216 1.516 . S
C223 O207 1.254 . S
C223 O208 1.257 . S
C224 O209 1.266 . S
C224 O210 1.236 . S
C225 C228 1.344 . S
C225 C229 1.328 . S
C225 C231 1.516 . S
C226 C227 1.304 . S
C226 C230 1.323 . S
C227 C226 1.304 . S
C227 C228 1.371 . S
C227 H236 0.930 . S
C228 C225 1.344 . S
C228 C227 1.371 . S
C228 H237 0.931 . S
C229 C225 1.328 . S
C229 C230 1.433 . S
C229 H238 0.931 . S
C230 C226 1.323 . S
C230 C229 1.433 . S
C230 H239 0.933 . S
C231 Dy201 2.738 . S
C231 O211 1.255 . S
C231 O212 1.249 . S
C231 C225 1.516 . S
H232 C218 0.930 . S
H233 C219 0.931 . S
H234 C220 0.931 . S
H235 C221 0.933 . S
H236 C227 0.930 . S
H237 C228 0.931 . S
H238 C229 0.931 . S
H239 C230 0.933 . S
Dy240 O243 2.307 . S
Dy240 O245 2.395 . S
Dy240 O246 2.379 . S
Dy240 O248 2.339 . S
Dy240 O250 2.298 . S
Dy240 O254 2.275 . S
Dy240 C262 2.738 . S
Dy241 O244 2.298 . S
Dy241 O247 2.275 . S
Dy241 O249 2.307 . S
Dy241 O251 2.395 . S
Dy241 O252 2.379 . S
Dy241 O255 2.339 . S
Dy241 C271 2.738 . S
C242 O254 1.254 . S
C242 O255 1.257 . S
O243 Dy240 2.307 . S
O243 C253 1.266 . S
O244 Dy241 2.298 . S
O244 C253 1.236 . S
O245 Dy240 2.395 . S
O245 C262 1.255 . S
O246 Dy240 2.379 . S
O246 C262 1.249 . S
O247 Dy241 2.275 . S
O247 C263 1.254 . S
O248 Dy240 2.339 . S
O248 C263 1.257 . S
O249 Dy241 2.307 . S
O249 C264 1.266 . S
O250 Dy240 2.298 . S
O250 C264 1.236 . S
O251 Dy241 2.395 . S
O251 C271 1.255 . S
O252 Dy241 2.379 . S
O252 C271 1.249 . S
C253 O243 1.266 . S
C253 O244 1.236 . S
O254 Dy240 2.275 . S
O254 C242 1.254 . S
O255 Dy241 2.339 . S
O255 C242 1.257 . S
C256 C259 1.344 . S
C256 C260 1.328 . S
C256 C262 1.516 . S
C257 C258 1.304 . S
C257 C261 1.323 . S
C258 C257 1.304 . S
C258 C259 1.371 . S
C258 H272 0.930 . S
C259 C256 1.344 . S
C259 C258 1.371 . S
C259 H273 0.931 . S
C260 C256 1.328 . S
C260 C261 1.433 . S
C260 H274 0.931 . S
C261 C257 1.323 . S
C261 C260 1.433 . S
C261 H275 0.933 . S
C262 Dy240 2.738 . S
C262 O245 1.255 . S
C262 O246 1.249 . S
C262 C256 1.516 . S
C263 O247 1.254 . S
C263 O248 1.257 . S
C264 O249 1.266 . S
C264 O250 1.236 . S
C265 C268 1.344 . S
C265 C269 1.328 . S
C265 C271 1.516 . S
C266 C267 1.304 . S
C266 C270 1.323 . S
C267 C266 1.304 . S
C267 C268 1.371 . S
C267 H276 0.930 . S
C268 C265 1.344 . S
C268 C267 1.371 . S
C268 H277 0.931 . S
C269 C265 1.328 . S
C269 C270 1.433 . S
C269 H278 0.931 . S
C270 C266 1.323 . S
C270 C269 1.433 . S
C270 H279 0.933 . S
C271 Dy241 2.738 . S
C271 O251 1.255 . S
C271 O252 1.249 . S
C271 C265 1.516 . S
H272 C258 0.930 . S
H273 C259 0.931 . S
H274 C260 0.931 . S
H275 C261 0.933 . S
H276 C267 0.930 . S
H277 C268 0.931 . S
H278 C269 0.931 . S
H279 C270 0.933 . S
Dy280 O283 2.307 . S
Dy280 O285 2.395 . S
Dy280 O286 2.379 . S
Dy280 O288 2.339 . S
Dy280 O290 2.298 . S
Dy280 O294 2.275 . S
Dy280 C302 2.738 . S
Dy281 O284 2.298 . S
Dy281 O287 2.275 . S
Dy281 O289 2.307 . S
Dy281 O291 2.395 . S
Dy281 O292 2.379 . S
Dy281 O295 2.339 . S
Dy281 C311 2.738 . S
C282 O294 1.254 . S
C282 O295 1.257 . S
O283 Dy280 2.307 . S
O283 C293 1.266 . S
O284 Dy281 2.298 . S
O284 C293 1.236 . S
O285 Dy280 2.395 . S
O285 C302 1.255 . S
O286 Dy280 2.379 . S
O286 C302 1.249 . S
O287 Dy281 2.275 . S
O287 C303 1.254 . S
O288 Dy280 2.339 . S
O288 C303 1.257 . S
O289 Dy281 2.307 . S
O289 C304 1.266 . S
O290 Dy280 2.298 . S
O290 C304 1.236 . S
O291 Dy281 2.395 . S
O291 C311 1.255 . S
O292 Dy281 2.379 . S
O292 C311 1.249 . S
C293 O283 1.266 . S
C293 O284 1.236 . S
O294 Dy280 2.275 . S
O294 C282 1.254 . S
O295 Dy281 2.339 . S
O295 C282 1.257 . S
C296 C299 1.344 . S
C296 C300 1.328 . S
C296 C302 1.516 . S
C297 C298 1.304 . S
C297 C301 1.323 . S
C298 C297 1.304 . S
C298 C299 1.371 . S
C298 H312 0.930 . S
C299 C296 1.344 . S
C299 C298 1.371 . S
C299 H313 0.931 . S
C300 C296 1.328 . S
C300 C301 1.433 . S
C300 H314 0.931 . S
C301 C297 1.323 . S
C301 C300 1.433 . S
C301 H315 0.933 . S
C302 Dy280 2.738 . S
C302 O285 1.255 . S
C302 O286 1.249 . S
C302 C296 1.516 . S
C303 O287 1.254 . S
C303 O288 1.257 . S
C304 O289 1.266 . S
C304 O290 1.236 . S
C305 C308 1.344 . S
C305 C309 1.328 . S
C305 C311 1.516 . S
C306 C307 1.304 . S
C306 C310 1.323 . S
C307 C306 1.304 . S
C307 C308 1.371 . S
C307 H316 0.930 . S
C308 C305 1.344 . S
C308 C307 1.371 . S
C308 H317 0.931 . S
C309 C305 1.328 . S
C309 C310 1.433 . S
C309 H318 0.931 . S
C310 C306 1.323 . S
C310 C309 1.433 . S
C310 H319 0.933 . S
C311 Dy281 2.738 . S
C311 O291 1.255 . S
C311 O292 1.249 . S
C311 C305 1.516 . S
H312 C298 0.930 . S
H313 C299 0.931 . S
H314 C300 0.931 . S
H315 C301 0.933 . S
H316 C307 0.930 . S
H317 C308 0.931 . S
H318 C309 0.931 . S
H319 C310 0.933 . S
Dy320 O323 2.307 . S
Dy320 O325 2.395 . S
Dy320 O326 2.379 . S
Dy320 O328 2.339 . S
Dy320 O330 2.298 . S
Dy320 O334 2.275 . S
Dy320 C342 2.738 . S
Dy321 O324 2.298 . S
Dy321 O327 2.275 . S
Dy321 O329 2.307 . S
Dy321 O331 2.395 . S
Dy321 O332 2.379 . S
Dy321 O335 2.339 . S
Dy321 C351 2.738 . S
C322 O334 1.254 . S
C322 O335 1.257 . S
O323 Dy320 2.307 . S
O323 C333 1.266 . S
O324 Dy321 2.298 . S
O324 C333 1.236 . S
O325 Dy320 2.395 . S
O325 C342 1.255 . S
O326 Dy320 2.379 . S
O326 C342 1.249 . S
O327 Dy321 2.275 . S
O327 C343 1.254 . S
O328 Dy320 2.339 . S
O328 C343 1.257 . S
O329 Dy321 2.307 . S
O329 C344 1.266 . S
O330 Dy320 2.298 . S
O330 C344 1.236 . S
O331 Dy321 2.395 . S
O331 C351 1.255 . S
O332 Dy321 2.379 . S
O332 C351 1.249 . S
C333 O323 1.266 . S
C333 O324 1.236 . S
O334 Dy320 2.275 . S
O334 C322 1.254 . S
O335 Dy321 2.339 . S
O335 C322 1.257 . S
C336 C339 1.344 . S
C336 C340 1.328 . S
C336 C342 1.516 . S
C337 C338 1.304 . S
C337 C341 1.323 . S
C338 C337 1.304 . S
C338 C339 1.371 . S
C338 H352 0.930 . S
C339 C336 1.344 . S
C339 C338 1.371 . S
C339 H353 0.931 . S
C340 C336 1.328 . S
C340 C341 1.433 . S
C340 H354 0.931 . S
C341 C337 1.323 . S
C341 C340 1.433 . S
C341 H355 0.933 . S
C342 Dy320 2.738 . S
C342 O325 1.255 . S
C342 O326 1.249 . S
C342 C336 1.516 . S
C343 O327 1.254 . S
C343 O328 1.257 . S
C344 O329 1.266 . S
C344 O330 1.236 . S
C345 C348 1.344 . S
C345 C349 1.328 . S
C345 C351 1.516 . S
C346 C347 1.304 . S
C346 C350 1.323 . S
C347 C346 1.304 . S
C347 C348 1.371 . S
C347 H356 0.930 . S
C348 C345 1.344 . S
C348 C347 1.371 . S
C348 H357 0.931 . S
C349 C345 1.328 . S
C349 C350 1.433 . S
C349 H358 0.931 . S
C350 C346 1.323 . S
C350 C349 1.433 . S
C350 H359 0.933 . S
C351 Dy321 2.738 . S
C351 O331 1.255 . S
C351 O332 1.249 . S
C351 C345 1.516 . S
H352 C338 0.930 . S
H353 C339 0.931 . S
H354 C340 0.931 . S
H355 C341 0.933 . S
H356 C347 0.930 . S
H357 C348 0.931 . S
H358 C349 0.931 . S
H359 C350 0.933 . S
Dy360 O363 2.307 . S
Dy360 O365 2.395 . S
Dy360 O366 2.379 . S
Dy360 O368 2.339 . S
Dy360 O370 2.298 . S
Dy360 O374 2.275 . S
Dy360 C382 2.738 . S
Dy361 O364 2.298 . S
Dy361 O367 2.275 . S
Dy361 O369 2.307 . S
Dy361 O371 2.395 . S
Dy361 O372 2.379 . S
Dy361 O375 2.339 . S
Dy361 C391 2.738 . S
C362 O374 1.254 . S
C362 O375 1.257 . S
O363 Dy360 2.307 . S
O363 C373 1.266 . S
O364 Dy361 2.298 . S
O364 C373 1.236 . S
O365 Dy360 2.395 . S
O365 C382 1.255 . S
O366 Dy360 2.379 . S
O366 C382 1.249 . S
O367 Dy361 2.275 . S
O367 C383 1.254 . S
O368 Dy360 2.339 . S
O368 C383 1.257 . S
O369 Dy361 2.307 . S
O369 C384 1.266 . S
O370 Dy360 2.298 . S
O370 C384 1.236 . S
O371 Dy361 2.395 . S
O371 C391 1.255 . S
O372 Dy361 2.379 . S
O372 C391 1.249 . S
C373 O363 1.266 . S
C373 O364 1.236 . S
O374 Dy360 2.275 . S
O374 C362 1.254 . S
O375 Dy361 2.339 . S
O375 C362 1.257 . S
C376 C379 1.343 . S
C376 C380 1.328 . S
C376 C382 1.516 . S
C377 C378 1.304 . S
C377 C381 1.323 . S
C378 C377 1.304 . S
C378 C379 1.372 1_556 S
C378 H392 0.930 . S
C379 C376 1.343 . S
C379 C378 1.372 1_554 S
C379 H393 0.931 . S
C380 C376 1.328 . S
C380 C381 1.433 1_554 S
C380 H394 0.931 . S
C381 C377 1.323 . S
C381 C380 1.433 1_556 S
C381 H395 0.933 . S
C382 Dy360 2.738 . S
C382 O365 1.255 . S
C382 O366 1.249 . S
C382 C376 1.516 . S
C383 O367 1.254 . S
C383 O368 1.257 . S
C384 O369 1.266 . S
C384 O370 1.236 . S
C385 C388 1.344 . S
C385 C389 1.328 . S
C385 C391 1.516 . S
C386 C387 1.304 . S
C386 C390 1.323 . S
C387 C386 1.304 . S
C387 C388 1.371 . S
C387 H396 0.930 . S
C388 C385 1.344 . S
C388 C387 1.371 . S
C388 H397 0.931 . S
C389 C385 1.328 . S
C389 C390 1.433 . S
C389 H398 0.931 . S
C390 C386 1.323 . S
C390 C389 1.433 . S
C390 H399 0.933 . S
C391 Dy361 2.738 . S
C391 O371 1.255 . S
C391 O372 1.249 . S
C391 C385 1.516 . S
H392 C378 0.930 . S
H393 C379 0.931 . S
H394 C380 0.931 . S
H395 C381 0.933 . S
H396 C387 0.930 . S
H397 C388 0.931 . S
H398 C389 0.931 . S
H399 C390 0.933 . S
Dy400 O403 2.307 . S
Dy400 O405 2.395 . S
Dy400 O406 2.379 . S
Dy400 O408 2.339 . S
Dy400 O410 2.298 . S
Dy400 O414 2.275 . S
Dy400 C422 2.738 . S
Dy401 O404 2.298 . S
Dy401 O407 2.275 . S
Dy401 O409 2.307 . S
Dy401 O411 2.395 . S
Dy401 O412 2.379 . S
Dy401 O415 2.339 . S
Dy401 C431 2.738 . S
C402 O414 1.254 . S
C402 O415 1.257 . S
O403 Dy400 2.307 . S
O403 C413 1.266 . S
O404 Dy401 2.298 . S
O404 C413 1.236 . S
O405 Dy400 2.395 . S
O405 C422 1.255 . S
O406 Dy400 2.379 . S
O406 C422 1.249 . S
O407 Dy401 2.275 . S
O407 C423 1.254 . S
O408 Dy400 2.339 . S
O408 C423 1.257 . S
O409 Dy401 2.307 . S
O409 C424 1.266 . S
O410 Dy400 2.298 . S
O410 C424 1.236 . S
O411 Dy401 2.395 . S
O411 C431 1.255 . S
O412 Dy401 2.379 . S
O412 C431 1.249 . S
C413 O403 1.266 . S
C413 O404 1.236 . S
O414 Dy400 2.275 . S
O414 C402 1.254 . S
O415 Dy401 2.339 . S
O415 C402 1.257 . S
C416 C419 1.343 . S
C416 C420 1.328 . S
C416 C422 1.516 . S
C417 C418 1.304 . S
C417 C421 1.323 . S
C418 C417 1.304 . S
C418 C419 1.372 1_554 S
C418 H432 0.930 . S
C419 C416 1.343 . S
C419 C418 1.372 1_556 S
C419 H433 0.931 . S
C420 C416 1.328 . S
C420 C421 1.433 1_556 S
C420 H434 0.931 . S
C421 C417 1.323 . S
C421 C420 1.433 1_554 S
C421 H435 0.933 . S
C422 Dy400 2.738 . S
C422 O405 1.255 . S
C422 O406 1.249 . S
C422 C416 1.516 . S
C423 O407 1.254 . S
C423 O408 1.257 . S
C424 O409 1.266 . S
C424 O410 1.236 . S
C425 C428 1.344 . S
C425 C429 1.328 . S
C425 C431 1.516 . S
C426 C427 1.304 . S
C426 C430 1.323 . S
C427 C426 1.304 . S
C427 C428 1.371 . S
C427 H436 0.930 . S
C428 C425 1.344 . S
C428 C427 1.371 . S
C428 H437 0.931 . S
C429 C425 1.328 . S
C429 C430 1.433 . S
C429 H438 0.931 . S
C430 C426 1.323 . S
C430 C429 1.433 . S
C430 H439 0.933 . S
C431 Dy401 2.738 . S
C431 O411 1.255 . S
C431 O412 1.249 . S
C431 C425 1.516 . S
H432 C418 0.930 . S
H433 C419 0.931 . S
H434 C420 0.931 . S
H435 C421 0.933 . S
H436 C427 0.930 . S
H437 C428 0.931 . S
H438 C429 0.931 . S
H439 C430 0.933 . S
Dy440 O443 2.307 . S
Dy440 O445 2.395 . S
Dy440 O446 2.379 . S
Dy440 O448 2.339 . S
Dy440 O450 2.298 . S
Dy440 O454 2.275 . S
Dy440 C462 2.738 . S
Dy441 O444 2.298 . S
Dy441 O447 2.275 . S
Dy441 O449 2.307 . S
Dy441 O451 2.395 . S
Dy441 O452 2.379 . S
Dy441 O455 2.339 . S
Dy441 C471 2.738 . S
C442 O454 1.254 . S
C442 O455 1.257 . S
O443 Dy440 2.307 . S
O443 C453 1.266 . S
O444 Dy441 2.298 . S
O444 C453 1.236 . S
O445 Dy440 2.395 . S
O445 C462 1.255 . S
O446 Dy440 2.379 . S
O446 C462 1.249 . S
O447 Dy441 2.275 . S
O447 C463 1.254 . S
O448 Dy440 2.339 . S
O448 C463 1.257 . S
O449 Dy441 2.307 . S
O449 C464 1.266 . S
O450 Dy440 2.298 . S
O450 C464 1.236 . S
O451 Dy441 2.395 . S
O451 C471 1.255 . S
O452 Dy441 2.379 . S
O452 C471 1.249 . S
C453 O443 1.266 . S
C453 O444 1.236 . S
O454 Dy440 2.275 . S
O454 C442 1.254 . S
O455 Dy441 2.339 . S
O455 C442 1.257 . S
C456 C459 1.344 . S
C456 C460 1.328 . S
C456 C462 1.516 . S
C457 C458 1.304 . S
C457 C461 1.323 . S
C458 C457 1.304 . S
C458 C459 1.371 . S
C458 H472 0.930 . S
C459 C456 1.344 . S
C459 C458 1.371 . S
C459 H473 0.931 . S
C460 C456 1.328 . S
C460 C461 1.433 . S
C460 H474 0.931 . S
C461 C457 1.323 . S
C461 C460 1.433 . S
C461 H475 0.933 . S
C462 Dy440 2.738 . S
C462 O445 1.255 . S
C462 O446 1.249 . S
C462 C456 1.516 . S
C463 O447 1.254 . S
C463 O448 1.257 . S
C464 O449 1.266 . S
C464 O450 1.236 . S
C465 C468 1.344 . S
C465 C469 1.328 . S
C465 C471 1.516 . S
C466 C467 1.304 . S
C466 C470 1.323 . S
C467 C466 1.304 . S
C467 C468 1.371 . S
C467 H476 0.930 . S
C468 C465 1.344 . S
C468 C467 1.371 . S
C468 H477 0.931 . S
C469 C465 1.328 . S
C469 C470 1.433 . S
C469 H478 0.931 . S
C470 C466 1.323 . S
C470 C469 1.433 . S
C470 H479 0.933 . S
C471 Dy441 2.738 . S
C471 O451 1.255 . S
C471 O452 1.249 . S
C471 C465 1.516 . S
H472 C458 0.930 . S
H473 C459 0.931 . S
H474 C460 0.931 . S
H475 C461 0.933 . S
H476 C467 0.930 . S
H477 C468 0.931 . S
H478 C469 0.931 . S
H479 C470 0.933 . S
Dy480 O483 2.307 . S
Dy480 O485 2.395 . S
Dy480 O486 2.379 . S
Dy480 O488 2.339 . S
Dy480 O490 2.298 . S
Dy480 O494 2.275 . S
Dy480 C502 2.738 . S
Dy481 O484 2.298 . S
Dy481 O487 2.275 . S
Dy481 O489 2.307 . S
Dy481 O491 2.395 . S
Dy481 O492 2.379 . S
Dy481 O495 2.339 . S
Dy481 C511 2.738 . S
C482 O494 1.254 . S
C482 O495 1.257 . S
O483 Dy480 2.307 . S
O483 C493 1.266 . S
O484 Dy481 2.298 . S
O484 C493 1.236 . S
O485 Dy480 2.395 . S
O485 C502 1.255 . S
O486 Dy480 2.379 . S
O486 C502 1.249 . S
O487 Dy481 2.275 . S
O487 C503 1.254 . S
O488 Dy480 2.339 . S
O488 C503 1.257 . S
O489 Dy481 2.307 . S
O489 C504 1.266 . S
O490 Dy480 2.298 . S
O490 C504 1.236 . S
O491 Dy481 2.395 . S
O491 C511 1.255 . S
O492 Dy481 2.379 . S
O492 C511 1.249 . S
C493 O483 1.266 . S
C493 O484 1.236 . S
O494 Dy480 2.275 . S
O494 C482 1.254 . S
O495 Dy481 2.339 . S
O495 C482 1.257 . S
C496 C499 1.344 . S
C496 C500 1.328 . S
C496 C502 1.516 . S
C497 C498 1.304 . S
C497 C501 1.323 . S
C498 C497 1.304 . S
C498 C499 1.371 . S
C498 H512 0.930 . S
C499 C496 1.344 . S
C499 C498 1.371 . S
C499 H513 0.931 . S
C500 C496 1.328 . S
C500 C501 1.433 . S
C500 H514 0.931 . S
C501 C497 1.323 . S
C501 C500 1.433 . S
C501 H515 0.933 . S
C502 Dy480 2.738 . S
C502 O485 1.255 . S
C502 O486 1.249 . S
C502 C496 1.516 . S
C503 O487 1.254 . S
C503 O488 1.257 . S
C504 O489 1.266 . S
C504 O490 1.236 . S
C505 C508 1.344 . S
C505 C509 1.328 . S
C505 C511 1.516 . S
C506 C507 1.304 . S
C506 C510 1.323 . S
C507 C506 1.304 . S
C507 C508 1.371 . S
C507 H516 0.930 . S
C508 C505 1.344 . S
C508 C507 1.371 . S
C508 H517 0.931 . S
C509 C505 1.328 . S
C509 C510 1.433 . S
C509 H518 0.931 . S
C510 C506 1.323 . S
C510 C509 1.433 . S
C510 H519 0.933 . S
C511 Dy481 2.738 . S
C511 O491 1.255 . S
C511 O492 1.249 . S
C511 C505 1.516 . S
H512 C498 0.930 . S
H513 C499 0.931 . S
H514 C500 0.931 . S
H515 C501 0.933 . S
H516 C507 0.930 . S
H517 C508 0.931 . S
H518 C509 0.931 . S
H519 C510 0.933 . S
Dy520 O523 2.307 . S
Dy520 O525 2.395 . S
Dy520 O526 2.379 . S
Dy520 O528 2.339 . S
Dy520 O530 2.298 . S
Dy520 O534 2.275 . S
Dy520 C542 2.738 . S
Dy521 O524 2.298 1_655 S
Dy521 O527 2.275 . S
Dy521 O529 2.307 . S
Dy521 O531 2.395 . S
Dy521 O532 2.379 . S
Dy521 O535 2.339 . S
Dy521 C551 2.738 . S
C522 O534 1.254 . S
C522 O535 1.257 1_455 S
O523 Dy520 2.307 . S
O523 C533 1.266 . S
O524 Dy521 2.298 1_455 S
O524 C533 1.236 . S
O525 Dy520 2.395 . S
O525 C542 1.255 . S
O526 Dy520 2.379 . S
O526 C542 1.249 . S
O527 Dy521 2.275 . S
O527 C543 1.254 1_655 S
O528 Dy520 2.339 . S
O528 C543 1.257 . S
O529 Dy521 2.307 . S
O529 C544 1.266 . S
O530 Dy520 2.298 . S
O530 C544 1.236 1_455 S
O531 Dy521 2.395 . S
O531 C551 1.255 . S
O532 Dy521 2.379 . S
O532 C551 1.249 . S
C533 O523 1.266 . S
C533 O524 1.236 . S
O534 Dy520 2.275 . S
O534 C522 1.254 . S
O535 Dy521 2.339 . S
O535 C522 1.257 1_655 S
C536 C539 1.344 . S
C536 C540 1.328 . S
C536 C542 1.516 . S
C537 C538 1.304 . S
C537 C541 1.323 . S
C538 C537 1.304 . S
C538 C539 1.371 . S
C538 H552 0.930 . S
C539 C536 1.344 . S
C539 C538 1.371 . S
C539 H553 0.931 . S
C540 C536 1.328 . S
C540 C541 1.433 . S
C540 H554 0.931 . S
C541 C537 1.323 . S
C541 C540 1.433 . S
C541 H555 0.933 . S
C542 Dy520 2.738 . S
C542 O525 1.255 . S
C542 O526 1.249 . S
C542 C536 1.516 . S
C543 O527 1.254 1_455 S
C543 O528 1.257 . S
C544 O529 1.266 . S
C544 O530 1.236 1_655 S
C545 C548 1.344 1_554 S
C545 C549 1.328 1_554 S
C545 C551 1.516 . S
C546 C547 1.304 . S
C546 C550 1.323 . S
C547 C546 1.304 . S
C547 C548 1.371 . S
C547 H556 0.930 . S
C548 C545 1.344 1_556 S
C548 C547 1.371 . S
C548 H557 0.931 . S
C549 C545 1.328 1_556 S
C549 C550 1.433 . S
C549 H558 0.931 1_556 S
C550 C546 1.323 . S
C550 C549 1.433 . S
C550 H559 0.933 . S
C551 Dy521 2.738 . S
C551 O531 1.255 . S
C551 O532 1.249 . S
C551 C545 1.516 . S
H552 C538 0.930 . S
H553 C539 0.931 . S
H554 C540 0.931 . S
H555 C541 0.933 . S
H556 C547 0.930 . S
H557 C548 0.931 . S
H558 C549 0.931 1_554 S
H559 C550 0.933 . S
Dy560 O563 2.307 . S
Dy560 O565 2.395 . S
Dy560 O566 2.379 . S
Dy560 O568 2.339 . S
Dy560 O570 2.298 . S
Dy560 O574 2.275 . S
Dy560 C582 2.738 . S
Dy561 O564 2.298 . S
Dy561 O567 2.275 . S
Dy561 O569 2.307 . S
Dy561 O571 2.395 . S
Dy561 O572 2.379 . S
Dy561 O575 2.339 . S
Dy561 C591 2.738 . S
C562 O574 1.254 . S
C562 O575 1.257 . S
O563 Dy560 2.307 . S
O563 C573 1.266 . S
O564 Dy561 2.298 . S
O564 C573 1.236 . S
O565 Dy560 2.395 . S
O565 C582 1.255 . S
O566 Dy560 2.379 . S
O566 C582 1.249 . S
O567 Dy561 2.275 . S
O567 C583 1.254 . S
O568 Dy560 2.339 . S
O568 C583 1.257 . S
O569 Dy561 2.307 . S
O569 C584 1.266 . S
O570 Dy560 2.298 . S
O570 C584 1.236 . S
O571 Dy561 2.395 . S
O571 C591 1.255 . S
O572 Dy561 2.379 . S
O572 C591 1.249 . S
C573 O563 1.266 . S
C573 O564 1.236 . S
O574 Dy560 2.275 . S
O574 C562 1.254 . S
O575 Dy561 2.339 . S
O575 C562 1.257 . S
C576 C579 1.344 . S
C576 C580 1.328 . S
C576 C582 1.516 . S
C577 C578 1.304 . S
C577 C581 1.323 . S
C578 C577 1.304 . S
C578 C579 1.371 . S
C578 H592 0.930 . S
C579 C576 1.344 . S
C579 C578 1.371 . S
C579 H593 0.931 . S
C580 C576 1.328 . S
C580 C581 1.433 . S
C580 H594 0.931 . S
C581 C577 1.323 . S
C581 C580 1.433 . S
C581 H595 0.933 . S
C582 Dy560 2.738 . S
C582 O565 1.255 . S
C582 O566 1.249 . S
C582 C576 1.516 . S
C583 O567 1.254 . S
C583 O568 1.257 . S
C584 O569 1.266 . S
C584 O570 1.236 . S
C585 C588 1.344 . S
C585 C589 1.328 . S
C585 C591 1.516 . S
C586 C587 1.304 . S
C586 C590 1.323 . S
C587 C586 1.304 . S
C587 C588 1.371 . S
C587 H596 0.930 . S
C588 C585 1.344 . S
C588 C587 1.371 . S
C588 H597 0.931 . S
C589 C585 1.328 . S
C589 C590 1.433 . S
C589 H598 0.931 . S
C590 C586 1.323 . S
C590 C589 1.433 . S
C590 H599 0.933 . S
C591 Dy561 2.738 . S
C591 O571 1.255 . S
C591 O572 1.249 . S
C591 C585 1.516 . S
H592 C578 0.930 . S
H593 C579 0.931 . S
H594 C580 0.931 . S
H595 C581 0.933 . S
H596 C587 0.930 . S
H597 C588 0.931 . S
H598 C589 0.931 . S
H599 C590 0.933 . S
Dy600 O603 2.307 . S
Dy600 O605 2.395 . S
Dy600 O606 2.379 . S
Dy600 O608 2.339 . S
Dy600 O610 2.298 . S
Dy600 O614 2.275 . S
Dy600 C622 2.738 . S
Dy601 O604 2.298 1_655 S
Dy601 O607 2.275 . S
Dy601 O609 2.307 . S
Dy601 O611 2.395 . S
Dy601 O612 2.379 . S
Dy601 O615 2.339 . S
Dy601 C631 2.738 . S
C602 O614 1.254 . S
C602 O615 1.257 1_455 S
O603 Dy600 2.307 . S
O603 C613 1.266 . S
O604 Dy601 2.298 1_455 S
O604 C613 1.236 . S
O605 Dy600 2.395 . S
O605 C622 1.255 . S
O606 Dy600 2.379 . S
O606 C622 1.249 . S
O607 Dy601 2.275 . S
O607 C623 1.254 1_655 S
O608 Dy600 2.339 . S
O608 C623 1.257 . S
O609 Dy601 2.307 . S
O609 C624 1.266 . S
O610 Dy600 2.298 . S
O610 C624 1.236 1_455 S
O611 Dy601 2.395 . S
O611 C631 1.255 . S
O612 Dy601 2.379 . S
O612 C631 1.249 . S
C613 O603 1.266 . S
C613 O604 1.236 . S
O614 Dy600 2.275 . S
O614 C602 1.254 . S
O615 Dy601 2.339 . S
O615 C602 1.257 1_655 S
C616 C619 1.344 . S
C616 C620 1.328 . S
C616 C622 1.516 . S
C617 C618 1.304 . S
C617 C621 1.323 . S
C618 C617 1.304 . S
C618 C619 1.371 . S
C618 H632 0.930 . S
C619 C616 1.344 . S
C619 C618 1.371 . S
C619 H633 0.931 . S
C620 C616 1.328 . S
C620 C621 1.433 . S
C620 H634 0.931 . S
C621 C617 1.323 . S
C621 C620 1.433 . S
C621 H635 0.933 . S
C622 Dy600 2.738 . S
C622 O605 1.255 . S
C622 O606 1.249 . S
C622 C616 1.516 . S
C623 O607 1.254 1_455 S
C623 O608 1.257 . S
C624 O609 1.266 . S
C624 O610 1.236 1_655 S
C625 C628 1.344 1_556 S
C625 C629 1.328 1_556 S
C625 C631 1.516 . S
C626 C627 1.304 . S
C626 C630 1.323 . S
C627 C626 1.304 . S
C627 C628 1.371 . S
C627 H636 0.930 . S
C628 C625 1.344 1_554 S
C628 C627 1.371 . S
C628 H637 0.931 . S
C629 C625 1.328 1_554 S
C629 C630 1.433 . S
C629 H638 0.931 1_554 S
C630 C626 1.323 . S
C630 C629 1.433 . S
C630 H639 0.933 . S
C631 Dy601 2.738 . S
C631 O611 1.255 . S
C631 O612 1.249 . S
C631 C625 1.516 . S
H632 C618 0.930 . S
H633 C619 0.931 . S
H634 C620 0.931 . S
H635 C621 0.933 . S
H636 C627 0.930 . S
H637 C628 0.931 . S
H638 C629 0.931 1_556 S
H639 C630 0.933 . S
H640 C648 0.929 . S
H641 C650 0.930 . S
H642 C652 0.930 . S
H643 C655 0.929 . S
H644 C658 0.930 . S
H645 C660 0.960 . S
H646 C660 0.960 . S
H647 C660 0.960 . S
C648 H640 0.929 . S
C648 C649 1.377 . S
C648 C650 1.384 . S
C649 C648 1.377 . S
C649 C655 1.390 . S
C650 H641 0.930 . S
C650 C648 1.384 . S
C650 C651 1.372 . S
C651 C650 1.372 . S
C651 C652 1.400 . S
C651 C656 1.490 . S
C652 H642 0.930 . S
C652 C651 1.400 . S
C652 C655 1.386 . S
H653 C669 0.930 . S
H654 C670 0.931 . S
C655 H643 0.929 . S
C655 C649 1.390 . S
C655 C652 1.386 . S
C656 C651 1.490 . S
C656 C658 1.395 . S
C656 C659 1.403 . S
H657 C663 0.930 . S
C658 H644 0.930 . S
C658 C656 1.395 . S
C658 C661 1.403 . S
C659 C656 1.403 . S
C659 C660 1.524 . S
C659 C663 1.400 . S
C660 H645 0.960 . S
C660 H646 0.960 . S
C660 H647 0.960 . S
C660 C659 1.524 . S
C661 C658 1.403 . S
C661 C662 1.392 . S
C661 C665 1.495 . S
C662 C661 1.392 . S
C662 C663 1.385 . S
C662 C664 1.478 . S
C663 H657 0.930 . S
C663 C659 1.400 . S
C663 C662 1.385 . S
C664 C662 1.478 . S
C664 C666 1.381 . S
C664 C670 1.383 . S
C665 C661 1.495 . S
C665 H671 0.959 . S
C665 H672 0.961 . S
C665 H673 0.960 . S
C666 C664 1.381 . S
C666 C667 1.394 . S
C666 H674 0.930 . S
C667 C666 1.394 . S
C667 C668 1.383 . S
C667 H675 0.929 . S
C668 C667 1.383 . S
C668 C669 1.377 . S
C669 H653 0.930 . S
C669 C668 1.377 . S
C669 C670 1.379 . S
C670 H654 0.931 . S
C670 C664 1.383 . S
C670 C669 1.379 . S
H671 C665 0.959 . S
H672 C665 0.961 . S
H673 C665 0.960 . S
H674 C666 0.930 . S
H675 C667 0.929 . S
H676 C684 0.929 . S
H677 C686 0.930 . S
H678 C688 0.930 . S
H679 C691 0.929 . S
H680 C694 0.930 . S
H681 C696 0.960 . S
H682 C696 0.960 . S
H683 C696 0.960 . S
C684 H676 0.929 . S
C684 C685 1.377 . S
C684 C686 1.384 . S
C685 C684 1.377 . S
C685 C691 1.390 . S
C686 H677 0.930 . S
C686 C684 1.384 . S
C686 C687 1.372 . S
C687 C686 1.372 . S
C687 C688 1.400 . S
C687 C692 1.490 . S
C688 H678 0.930 . S
C688 C687 1.400 . S
C688 C691 1.386 . S
H689 C705 0.930 . S
H690 C706 0.931 . S
C691 H679 0.929 . S
C691 C685 1.390 . S
C691 C688 1.386 . S
C692 C687 1.490 . S
C692 C694 1.395 . S
C692 C695 1.403 . S
H693 C699 0.930 . S
C694 H680 0.930 . S
C694 C692 1.395 . S
C694 C697 1.403 . S
C695 C692 1.403 . S
C695 C696 1.524 . S
C695 C699 1.400 . S
C696 H681 0.960 . S
C696 H682 0.960 . S
C696 H683 0.960 . S
C696 C695 1.524 . S
C697 C694 1.403 . S
C697 C698 1.392 . S
C697 C701 1.495 . S
C698 C697 1.392 . S
C698 C699 1.385 . S
C698 C700 1.478 . S
C699 H693 0.930 . S
C699 C695 1.400 . S
C699 C698 1.385 . S
C700 C698 1.478 . S
C700 C702 1.381 . S
C700 C706 1.383 . S
C701 C697 1.495 . S
C701 H707 0.959 . S
C701 H708 0.961 . S
C701 H709 0.960 . S
C702 C700 1.381 . S
C702 C703 1.394 . S
C702 H710 0.930 . S
C703 C702 1.394 . S
C703 C704 1.383 . S
C703 H711 0.929 1_554 S
C704 C703 1.383 . S
C704 C705 1.377 . S
C705 H689 0.930 . S
C705 C704 1.377 . S
C705 C706 1.379 . S
C706 H690 0.931 . S
C706 C700 1.383 . S
C706 C705 1.379 . S
H707 C701 0.959 . S
H708 C701 0.961 . S
H709 C701 0.960 . S
H710 C702 0.930 . S
H711 C703 0.929 1_556 S
H712 C720 0.929 . S
H713 C722 0.930 . S
H714 C724 0.930 . S
H715 C727 0.929 . S
H716 C730 0.930 . S
H717 C732 0.960 . S
H718 C732 0.960 . S
H719 C732 0.960 . S
C720 H712 0.929 . S
C720 C721 1.377 . S
C720 C722 1.384 . S
C721 C720 1.377 . S
C721 C727 1.390 . S
C722 H713 0.930 . S
C722 C720 1.384 . S
C722 C723 1.372 . S
C723 C722 1.372 . S
C723 C724 1.400 . S
C723 C728 1.490 . S
C724 H714 0.930 . S
C724 C723 1.400 . S
C724 C727 1.386 . S
H725 C741 0.930 . S
H726 C742 0.931 . S
C727 H715 0.929 . S
C727 C721 1.390 . S
C727 C724 1.386 . S
C728 C723 1.490 . S
C728 C730 1.395 . S
C728 C731 1.403 . S
H729 C735 0.930 . S
C730 H716 0.930 . S
C730 C728 1.395 . S
C730 C733 1.403 . S
C731 C728 1.403 . S
C731 C732 1.524 . S
C731 C735 1.400 . S
C732 H717 0.960 . S
C732 H718 0.960 . S
C732 H719 0.960 . S
C732 C731 1.524 . S
C733 C730 1.403 . S
C733 C734 1.392 . S
C733 C737 1.495 . S
C734 C733 1.392 . S
C734 C735 1.385 . S
C734 C736 1.478 . S
C735 H729 0.930 . S
C735 C731 1.400 . S
C735 C734 1.385 . S
C736 C734 1.478 . S
C736 C738 1.381 . S
C736 C742 1.383 . S
C737 C733 1.495 . S
C737 H743 0.959 . S
C737 H744 0.961 . S
C737 H745 0.960 . S
C738 C736 1.381 . S
C738 C739 1.394 . S
C738 H746 0.930 . S
C739 C738 1.394 . S
C739 C740 1.383 . S
C739 H747 0.929 . S
C740 C739 1.383 . S
C740 C741 1.377 . S
C741 H725 0.930 . S
C741 C740 1.377 . S
C741 C742 1.379 . S
C742 H726 0.931 . S
C742 C736 1.383 . S
C742 C741 1.379 . S
H743 C737 0.959 . S
H744 C737 0.961 . S
H745 C737 0.960 . S
H746 C738 0.930 . S
H747 C739 0.929 . S
H748 C756 0.929 . S
H749 C758 0.930 . S
H750 C760 0.930 . S
H751 C763 0.929 . S
H752 C766 0.930 . S
H753 C768 0.960 . S
H754 C768 0.960 . S
H755 C768 0.960 . S
C756 H748 0.929 . S
C756 C757 1.377 . S
C756 C758 1.384 . S
C757 C756 1.377 . S
C757 C763 1.390 . S
C758 H749 0.930 . S
C758 C756 1.384 . S
C758 C759 1.372 . S
C759 C758 1.372 . S
C759 C760 1.400 . S
C759 C764 1.490 . S
C760 H750 0.930 . S
C760 C759 1.400 . S
C760 C763 1.386 . S
H761 C777 0.930 . S
H762 C778 0.931 . S
C763 H751 0.929 . S
C763 C757 1.390 . S
C763 C760 1.386 . S
C764 C759 1.490 . S
C764 C766 1.395 . S
C764 C767 1.403 . S
H765 C771 0.930 . S
C766 H752 0.930 . S
C766 C764 1.395 . S
C766 C769 1.403 . S
C767 C764 1.403 . S
C767 C768 1.524 . S
C767 C771 1.400 . S
C768 H753 0.960 . S
C768 H754 0.960 . S
C768 H755 0.960 . S
C768 C767 1.524 . S
C769 C766 1.403 . S
C769 C770 1.392 . S
C769 C773 1.495 . S
C770 C769 1.392 . S
C770 C771 1.385 . S
C770 C772 1.478 . S
C771 H765 0.930 . S
C771 C767 1.400 . S
C771 C770 1.385 . S
C772 C770 1.478 . S
C772 C774 1.381 . S
C772 C778 1.383 . S
C773 C769 1.495 . S
C773 H779 0.959 . S
C773 H780 0.961 . S
C773 H781 0.960 . S
C774 C772 1.381 . S
C774 C775 1.394 . S
C774 H782 0.930 . S
C775 C774 1.394 . S
C775 C776 1.383 . S
C775 H783 0.929 . S
C776 C775 1.383 . S
C776 C777 1.377 . S
C777 H761 0.930 . S
C777 C776 1.377 . S
C777 C778 1.379 . S
C778 H762 0.931 . S
C778 C772 1.383 . S
C778 C777 1.379 . S
H779 C773 0.959 . S
H780 C773 0.961 . S
H781 C773 0.960 . S
H782 C774 0.930 . S
H783 C775 0.929 . S
H784 C792 0.929 . S
H785 C794 0.930 . S
H786 C796 0.930 . S
H787 C799 0.929 . S
H788 C802 0.930 . S
H789 C804 0.960 . S
H790 C804 0.960 . S
H791 C804 0.960 . S
C792 H784 0.929 . S
C792 C793 1.377 . S
C792 C794 1.384 . S
C793 C792 1.377 . S
C793 C799 1.390 . S
C794 H785 0.930 . S
C794 C792 1.384 . S
C794 C795 1.372 . S
C795 C794 1.372 . S
C795 C796 1.400 . S
C795 C800 1.490 . S
C796 H786 0.930 . S
C796 C795 1.400 . S
C796 C799 1.386 . S
H797 C813 0.930 . S
H798 C814 0.931 . S
C799 H787 0.929 . S
C799 C793 1.390 . S
C799 C796 1.386 . S
C800 C795 1.490 . S
C800 C802 1.395 . S
C800 C803 1.403 . S
H801 C807 0.930 . S
C802 H788 0.930 . S
C802 C800 1.395 . S
C802 C805 1.403 . S
C803 C800 1.403 . S
C803 C804 1.524 . S
C803 C807 1.400 . S
C804 H789 0.960 . S
C804 H790 0.960 . S
C804 H791 0.960 . S
C804 C803 1.524 . S
C805 C802 1.403 . S
C805 C806 1.392 . S
C805 C809 1.495 . S
C806 C805 1.392 . S
C806 C807 1.385 . S
C806 C808 1.478 . S
C807 H801 0.930 . S
C807 C803 1.400 . S
C807 C806 1.385 . S
C808 C806 1.478 . S
C808 C810 1.381 . S
C808 C814 1.383 . S
C809 C805 1.495 . S
C809 H815 0.959 . S
C809 H816 0.961 . S
C809 H817 0.960 . S
C810 C808 1.381 . S
C810 C811 1.394 . S
C810 H818 0.930 . S
C811 C810 1.394 . S
C811 C812 1.383 . S
C811 H819 0.929 . S
C812 C811 1.383 . S
C812 C813 1.377 . S
C813 H797 0.930 . S
C813 C812 1.377 . S
C813 C814 1.379 . S
C814 H798 0.931 . S
C814 C808 1.383 . S
C814 C813 1.379 . S
H815 C809 0.959 . S
H816 C809 0.961 . S
H817 C809 0.960 . S
H818 C810 0.930 . S
H819 C811 0.929 . S
H820 C828 0.929 . S
H821 C830 0.930 . S
H822 C832 0.930 . S
H823 C835 0.929 . S
H824 C838 0.930 . S
H825 C840 0.960 . S
H826 C840 0.960 . S
H827 C840 0.960 . S
C828 H820 0.929 . S
C828 C829 1.377 . S
C828 C830 1.384 . S
C829 C828 1.377 . S
C829 C835 1.390 . S
C830 H821 0.930 . S
C830 C828 1.384 . S
C830 C831 1.372 . S
C831 C830 1.372 . S
C831 C832 1.400 . S
C831 C836 1.490 . S
C832 H822 0.930 . S
C832 C831 1.400 . S
C832 C835 1.386 . S
H833 C849 0.930 . S
H834 C850 0.931 . S
C835 H823 0.929 . S
C835 C829 1.390 . S
C835 C832 1.386 . S
C836 C831 1.490 . S
C836 C838 1.395 . S
C836 C839 1.403 . S
H837 C843 0.930 . S
C838 H824 0.930 . S
C838 C836 1.395 . S
C838 C841 1.403 . S
C839 C836 1.403 . S
C839 C840 1.524 . S
C839 C843 1.400 . S
C840 H825 0.960 . S
C840 H826 0.960 . S
C840 H827 0.960 . S
C840 C839 1.524 . S
C841 C838 1.403 . S
C841 C842 1.392 . S
C841 C845 1.495 . S
C842 C841 1.392 . S
C842 C843 1.385 . S
C842 C844 1.478 . S
C843 H837 0.930 . S
C843 C839 1.400 . S
C843 C842 1.385 . S
C844 C842 1.478 . S
C844 C846 1.381 . S
C844 C850 1.383 . S
C845 C841 1.495 . S
C845 H851 0.959 . S
C845 H852 0.961 . S
C845 H853 0.960 . S
C846 C844 1.381 . S
C846 C847 1.394 . S
C846 H854 0.930 . S
C847 C846 1.394 . S
C847 C848 1.383 . S
C847 H855 0.929 . S
C848 C847 1.383 . S
C848 C849 1.377 . S
C849 H833 0.930 . S
C849 C848 1.377 . S
C849 C850 1.379 . S
C850 H834 0.931 . S
C850 C844 1.383 . S
C850 C849 1.379 . S
H851 C845 0.959 . S
H852 C845 0.961 . S
H853 C845 0.960 . S
H854 C846 0.930 . S
H855 C847 0.929 . S
H856 C864 0.929 . S
H857 C866 0.930 . S
H858 C868 0.930 . S
H859 C871 0.929 . S
H860 C874 0.930 . S
H861 C876 0.960 . S
H862 C876 0.960 . S
H863 C876 0.960 . S
C864 H856 0.929 . S
C864 C865 1.377 . S
C864 C866 1.384 . S
C865 C864 1.377 . S
C865 C871 1.390 . S
C866 H857 0.930 . S
C866 C864 1.384 . S
C866 C867 1.372 . S
C867 C866 1.372 . S
C867 C868 1.400 . S
C867 C872 1.490 . S
C868 H858 0.930 . S
C868 C867 1.400 . S
C868 C871 1.386 . S
H869 C885 0.930 . S
H870 C886 0.931 . S
C871 H859 0.929 . S
C871 C865 1.390 . S
C871 C868 1.386 . S
C872 C867 1.490 . S
C872 C874 1.395 . S
C872 C875 1.403 . S
H873 C879 0.930 . S
C874 H860 0.930 . S
C874 C872 1.395 . S
C874 C877 1.403 . S
C875 C872 1.403 . S
C875 C876 1.524 . S
C875 C879 1.400 . S
C876 H861 0.960 . S
C876 H862 0.960 . S
C876 H863 0.960 . S
C876 C875 1.524 . S
C877 C874 1.403 . S
C877 C878 1.392 . S
C877 C881 1.495 . S
C878 C877 1.392 . S
C878 C879 1.385 . S
C878 C880 1.478 . S
C879 H873 0.930 . S
C879 C875 1.400 . S
C879 C878 1.385 . S
C880 C878 1.478 . S
C880 C882 1.381 . S
C880 C886 1.383 . S
C881 C877 1.495 . S
C881 H887 0.959 . S
C881 H888 0.961 . S
C881 H889 0.960 . S
C882 C880 1.381 . S
C882 C883 1.394 . S
C882 H890 0.930 . S
C883 C882 1.394 . S
C883 C884 1.383 . S
C883 H891 0.929 . S
C884 C883 1.383 . S
C884 C885 1.377 . S
C885 H869 0.930 . S
C885 C884 1.377 . S
C885 C886 1.379 . S
C886 H870 0.931 . S
C886 C880 1.383 . S
C886 C885 1.379 . S
H887 C881 0.959 . S
H888 C881 0.961 . S
H889 C881 0.960 . S
H890 C882 0.930 . S
H891 C883 0.929 . S
H892 C900 0.929 . S
H893 C902 0.930 . S
H894 C904 0.930 . S
H895 C907 0.929 . S
H896 C910 0.930 . S
H897 C912 0.960 . S
H898 C912 0.960 . S
H899 C912 0.960 . S
C900 H892 0.929 . S
C900 C901 1.377 . S
C900 C902 1.384 . S
C901 C900 1.377 . S
C901 C907 1.390 . S
C902 H893 0.930 . S
C902 C900 1.384 . S
C902 C903 1.372 . S
C903 C902 1.372 . S
C903 C904 1.400 . S
C903 C908 1.490 . S
C904 H894 0.930 . S
C904 C903 1.400 . S
C904 C907 1.386 . S
H905 C921 0.930 . S
H906 C922 0.931 . S
C907 H895 0.929 . S
C907 C901 1.390 . S
C907 C904 1.386 . S
C908 C903 1.490 . S
C908 C910 1.395 . S
C908 C911 1.403 . S
H909 C915 0.930 . S
C910 H896 0.930 . S
C910 C908 1.395 . S
C910 C913 1.403 . S
C911 C908 1.403 . S
C911 C912 1.524 . S
C911 C915 1.400 . S
C912 H897 0.960 . S
C912 H898 0.960 . S
C912 H899 0.960 . S
C912 C911 1.524 . S
C913 C910 1.403 . S
C913 C914 1.392 . S
C913 C917 1.495 . S
C914 C913 1.392 . S
C914 C915 1.385 . S
C914 C916 1.478 . S
C915 H909 0.930 . S
C915 C911 1.400 . S
C915 C914 1.385 . S
C916 C914 1.478 . S
C916 C918 1.381 . S
C916 C922 1.383 . S
C917 C913 1.495 . S
C917 H923 0.959 . S
C917 H924 0.961 . S
C917 H925 0.960 . S
C918 C916 1.381 . S
C918 C919 1.394 . S
C918 H926 0.930 . S
C919 C918 1.394 . S
C919 C920 1.383 . S
C919 H927 0.929 . S
C920 C919 1.383 . S
C920 C921 1.377 . S
C921 H905 0.930 . S
C921 C920 1.377 . S
C921 C922 1.379 . S
C922 H906 0.931 . S
C922 C916 1.383 . S
C922 C921 1.379 . S
H923 C917 0.959 . S
H924 C917 0.961 . S
H925 C917 0.960 . S
H926 C918 0.930 . S
H927 C919 0.929 . S
H928 C936 0.929 . S
H929 C938 0.930 . S
H930 C940 0.930 . S
H931 C943 0.929 . S
H932 C946 0.930 . S
H933 C948 0.960 . S
H934 C948 0.960 . S
H935 C948 0.960 . S
C936 H928 0.929 . S
C936 C937 1.377 . S
C936 C938 1.384 . S
C937 C936 1.377 . S
C937 C943 1.390 . S
C938 H929 0.930 . S
C938 C936 1.384 . S
C938 C939 1.372 . S
C939 C938 1.372 . S
C939 C940 1.400 . S
C939 C944 1.490 . S
C940 H930 0.930 . S
C940 C939 1.400 . S
C940 C943 1.386 . S
H941 C957 0.930 . S
H942 C958 0.931 . S
C943 H931 0.929 . S
C943 C937 1.390 . S
C943 C940 1.386 . S
C944 C939 1.490 . S
C944 C946 1.395 . S
C944 C947 1.403 . S
H945 C951 0.930 . S
C946 H932 0.930 . S
C946 C944 1.395 . S
C946 C949 1.403 . S
C947 C944 1.403 . S
C947 C948 1.524 . S
C947 C951 1.400 . S
C948 H933 0.960 . S
C948 H934 0.960 . S
C948 H935 0.960 . S
C948 C947 1.524 . S
C949 C946 1.403 . S
C949 C950 1.392 . S
C949 C953 1.495 . S
C950 C949 1.392 . S
C950 C951 1.385 . S
C950 C952 1.478 . S
C951 H945 0.930 . S
C951 C947 1.400 . S
C951 C950 1.385 . S
C952 C950 1.478 . S
C952 C954 1.381 . S
C952 C958 1.383 . S
C953 C949 1.495 . S
C953 H959 0.959 . S
C953 H960 0.961 . S
C953 H961 0.960 . S
C954 C952 1.381 . S
C954 C955 1.394 . S
C954 H962 0.930 . S
C955 C954 1.394 . S
C955 C956 1.383 . S
C955 H963 0.929 . S
C956 C955 1.383 . S
C956 C957 1.377 . S
C957 H941 0.930 . S
C957 C956 1.377 . S
C957 C958 1.379 . S
C958 H942 0.931 . S
C958 C952 1.383 . S
C958 C957 1.379 . S
H959 C953 0.959 . S
H960 C953 0.961 . S
H961 C953 0.960 . S
H962 C954 0.930 . S
H963 C955 0.929 . S
H964 C972 0.929 . S
H965 C974 0.930 . S
H966 C976 0.930 . S
H967 C979 0.929 . S
H968 C982 0.930 . S
H969 C984 0.960 . S
H970 C984 0.960 . S
H971 C984 0.960 . S
C972 H964 0.929 . S
C972 C973 1.377 . S
C972 C974 1.384 . S
C973 C972 1.377 . S
C973 C979 1.390 . S
C974 H965 0.930 . S
C974 C972 1.384 . S
C974 C975 1.372 . S
C975 C974 1.372 . S
C975 C976 1.400 . S
C975 C980 1.490 . S
C976 H966 0.930 . S
C976 C975 1.400 . S
C976 C979 1.386 . S
H977 C993 0.930 . S
H978 C994 0.931 . S
C979 H967 0.929 . S
C979 C973 1.390 . S
C979 C976 1.386 . S
C980 C975 1.490 . S
C980 C982 1.395 . S
C980 C983 1.403 . S
H981 C987 0.930 . S
C982 H968 0.930 . S
C982 C980 1.395 . S
C982 C985 1.403 . S
C983 C980 1.403 . S
C983 C984 1.524 . S
C983 C987 1.400 . S
C984 H969 0.960 . S
C984 H970 0.960 . S
C984 H971 0.960 . S
C984 C983 1.524 . S
C985 C982 1.403 . S
C985 C986 1.392 . S
C985 C989 1.495 . S
C986 C985 1.392 . S
C986 C987 1.385 . S
C986 C988 1.478 . S
C987 H981 0.930 . S
C987 C983 1.400 . S
C987 C986 1.385 . S
C988 C986 1.478 . S
C988 C990 1.381 . S
C988 C994 1.383 . S
C989 C985 1.495 . S
C989 H995 0.959 . S
C989 H996 0.961 . S
C989 H997 0.960 . S
C990 C988 1.381 . S
C990 C991 1.394 . S
C990 H998 0.930 . S
C991 C990 1.394 . S
C991 C992 1.383 . S
C991 H999 0.929 . S
C992 C991 1.383 . S
C992 C993 1.377 . S
C993 H977 0.930 . S
C993 C992 1.377 . S
C993 C994 1.379 . S
C994 H978 0.931 . S
C994 C988 1.383 . S
C994 C993 1.379 . S
H995 C989 0.959 . S
H996 C989 0.961 . S
H997 C989 0.960 . S
H998 C990 0.930 . S
H999 C991 0.929 . S
H1000 C1008 0.929 1_554 S
H1001 C1010 0.930 . S
H1002 C1012 0.930 . S
H1003 C1015 0.929 . S
H1004 C1018 0.930 . S
H1005 C1020 0.960 . S
H1006 C1020 0.960 . S
H1007 C1020 0.960 . S
C1008 H1000 0.929 1_556 S
C1008 C1009 1.377 . S
C1008 C1010 1.384 . S
C1009 C1008 1.377 . S
C1009 C1015 1.390 . S
C1010 H1001 0.930 . S
C1010 C1008 1.384 . S
C1010 C1011 1.372 . S
C1011 C1010 1.372 . S
C1011 C1012 1.400 . S
C1011 C1016 1.490 . S
C1012 H1002 0.930 . S
C1012 C1011 1.400 . S
C1012 C1015 1.386 . S
H1013 C1029 0.930 . S
H1014 C1030 0.931 . S
C1015 H1003 0.929 . S
C1015 C1009 1.390 . S
C1015 C1012 1.386 . S
C1016 C1011 1.490 . S
C1016 C1018 1.395 . S
C1016 C1019 1.403 . S
H1017 C1023 0.930 . S
C1018 H1004 0.930 . S
C1018 C1016 1.395 . S
C1018 C1021 1.403 . S
C1019 C1016 1.403 . S
C1019 C1020 1.524 . S
C1019 C1023 1.400 . S
C1020 H1005 0.960 . S
C1020 H1006 0.960 . S
C1020 H1007 0.960 . S
C1020 C1019 1.524 . S
C1021 C1018 1.403 . S
C1021 C1022 1.392 . S
C1021 C1025 1.495 . S
C1022 C1021 1.392 . S
C1022 C1023 1.385 . S
C1022 C1024 1.478 . S
C1023 H1017 0.930 . S
C1023 C1019 1.400 . S
C1023 C1022 1.385 . S
C1024 C1022 1.478 . S
C1024 C1026 1.381 . S
C1024 C1030 1.383 . S
C1025 C1021 1.495 . S
C1025 H1031 0.959 . S
C1025 H1032 0.961 . S
C1025 H1033 0.960 . S
C1026 C1024 1.381 . S
C1026 C1027 1.394 . S
C1026 H1034 0.930 . S
C1027 C1026 1.394 . S
C1027 C1028 1.383 . S
C1027 H1035 0.929 . S
C1028 C1027 1.383 . S
C1028 C1029 1.377 . S
C1029 H1013 0.930 . S
C1029 C1028 1.377 . S
C1029 C1030 1.379 . S
C1030 H1014 0.931 . S
C1030 C1024 1.383 . S
C1030 C1029 1.379 . S
H1031 C1025 0.959 . S
H1032 C1025 0.961 . S
H1033 C1025 0.960 . S
H1034 C1026 0.930 . S
H1035 C1027 0.929 . S
H1036 C1044 0.929 . S
H1037 C1046 0.930 . S
H1038 C1048 0.930 . S
H1039 C1051 0.929 . S
H1040 C1054 0.930 . S
H1041 C1056 0.960 . S
H1042 C1056 0.960 . S
H1043 C1056 0.960 . S
C1044 H1036 0.929 . S
C1044 C1045 1.377 . S
C1044 C1046 1.384 . S
C1045 C1044 1.377 . S
C1045 C1051 1.390 . S
C1046 H1037 0.930 . S
C1046 C1044 1.384 . S
C1046 C1047 1.372 . S
C1047 C1046 1.372 . S
C1047 C1048 1.400 . S
C1047 C1052 1.490 . S
C1048 H1038 0.930 . S
C1048 C1047 1.400 . S
C1048 C1051 1.386 . S
H1049 C1065 0.930 . S
H1050 C1066 0.931 . S
C1051 H1039 0.929 . S
C1051 C1045 1.390 . S
C1051 C1048 1.386 . S
C1052 C1047 1.490 . S
C1052 C1054 1.395 . S
C1052 C1055 1.403 . S
H1053 C1059 0.930 . S
C1054 H1040 0.930 . S
C1054 C1052 1.395 . S
C1054 C1057 1.403 . S
C1055 C1052 1.403 . S
C1055 C1056 1.524 . S
C1055 C1059 1.400 . S
C1056 H1041 0.960 . S
C1056 H1042 0.960 . S
C1056 H1043 0.960 . S
C1056 C1055 1.524 . S
C1057 C1054 1.403 . S
C1057 C1058 1.392 . S
C1057 C1061 1.495 . S
C1058 C1057 1.392 . S
C1058 C1059 1.385 . S
C1058 C1060 1.478 . S
C1059 H1053 0.930 . S
C1059 C1055 1.400 . S
C1059 C1058 1.385 . S
C1060 C1058 1.478 . S
C1060 C1062 1.381 . S
C1060 C1066 1.383 . S
C1061 C1057 1.495 . S
C1061 H1067 0.959 . S
C1061 H1068 0.961 . S
C1061 H1069 0.960 . S
C1062 C1060 1.381 . S
C1062 C1063 1.394 . S
C1062 H1070 0.930 . S
C1063 C1062 1.394 . S
C1063 C1064 1.383 . S
C1063 H1071 0.929 . S
C1064 C1063 1.383 . S
C1064 C1065 1.377 . S
C1065 H1049 0.930 . S
C1065 C1064 1.377 . S
C1065 C1066 1.379 . S
C1066 H1050 0.931 . S
C1066 C1060 1.383 . S
C1066 C1065 1.379 . S
H1067 C1061 0.959 . S
H1068 C1061 0.961 . S
H1069 C1061 0.960 . S
H1070 C1062 0.930 . S
H1071 C1063 0.929 . S
H1072 C1080 0.929 . S
H1073 C1082 0.930 . S
H1074 C1084 0.930 . S
H1075 C1087 0.929 . S
H1076 C1090 0.930 . S
H1077 C1092 0.960 . S
H1078 C1092 0.960 . S
H1079 C1092 0.960 . S
C1080 H1072 0.929 . S
C1080 C1081 1.377 . S
C1080 C1082 1.384 . S
C1081 C1080 1.377 . S
C1081 C1087 1.390 . S
C1082 H1073 0.930 . S
C1082 C1080 1.384 . S
C1082 C1083 1.372 . S
C1083 C1082 1.372 . S
C1083 C1084 1.400 . S
C1083 C1088 1.490 . S
C1084 H1074 0.930 . S
C1084 C1083 1.400 . S
C1084 C1087 1.386 . S
H1085 C1101 0.930 . S
H1086 C1102 0.931 . S
C1087 H1075 0.929 . S
C1087 C1081 1.390 . S
C1087 C1084 1.386 . S
C1088 C1083 1.490 . S
C1088 C1090 1.395 . S
C1088 C1091 1.403 . S
H1089 C1095 0.930 . S
C1090 H1076 0.930 . S
C1090 C1088 1.395 . S
C1090 C1093 1.403 . S
C1091 C1088 1.403 . S
C1091 C1092 1.524 . S
C1091 C1095 1.400 . S
C1092 H1077 0.960 . S
C1092 H1078 0.960 . S
C1092 H1079 0.960 . S
C1092 C1091 1.524 . S
C1093 C1090 1.403 . S
C1093 C1094 1.392 . S
C1093 C1097 1.495 . S
C1094 C1093 1.392 . S
C1094 C1095 1.385 . S
C1094 C1096 1.478 . S
C1095 H1089 0.930 . S
C1095 C1091 1.400 . S
C1095 C1094 1.385 . S
C1096 C1094 1.478 . S
C1096 C1098 1.381 . S
C1096 C1102 1.383 . S
C1097 C1093 1.495 . S
C1097 H1103 0.959 . S
C1097 H1104 0.961 . S
C1097 H1105 0.960 . S
C1098 C1096 1.381 . S
C1098 C1099 1.394 . S
C1098 H1106 0.930 . S
C1099 C1098 1.394 . S
C1099 C1100 1.383 . S
C1099 H1107 0.929 . S
C1100 C1099 1.383 . S
C1100 C1101 1.377 . S
C1101 H1085 0.930 . S
C1101 C1100 1.377 . S
C1101 C1102 1.379 . S
C1102 H1086 0.931 . S
C1102 C1096 1.383 . S
C1102 C1101 1.379 . S
H1103 C1097 0.959 . S
H1104 C1097 0.961 . S
H1105 C1097 0.960 . S
H1106 C1098 0.930 . S
H1107 C1099 0.929 . S
H1108 C1116 0.929 . S
H1109 C1118 0.930 . S
H1110 C1120 0.930 . S
H1111 C1123 0.929 . S
H1112 C1126 0.930 . S
H1113 C1128 0.960 . S
H1114 C1128 0.960 . S
H1115 C1128 0.960 . S
C1116 H1108 0.929 . S
C1116 C1117 1.377 . S
C1116 C1118 1.384 . S
C1117 C1116 1.377 . S
C1117 C1123 1.390 . S
C1118 H1109 0.930 . S
C1118 C1116 1.384 . S
C1118 C1119 1.372 . S
C1119 C1118 1.372 . S
C1119 C1120 1.400 . S
C1119 C1124 1.490 . S
C1120 H1110 0.930 . S
C1120 C1119 1.400 . S
C1120 C1123 1.386 . S
H1121 C1137 0.930 . S
H1122 C1138 0.931 . S
C1123 H1111 0.929 . S
C1123 C1117 1.390 . S
C1123 C1120 1.386 . S
C1124 C1119 1.490 . S
C1124 C1126 1.395 . S
C1124 C1127 1.403 . S
H1125 C1131 0.930 . S
C1126 H1112 0.930 . S
C1126 C1124 1.395 . S
C1126 C1129 1.403 . S
C1127 C1124 1.403 . S
C1127 C1128 1.524 . S
C1127 C1131 1.400 . S
C1128 H1113 0.960 . S
C1128 H1114 0.960 . S
C1128 H1115 0.960 . S
C1128 C1127 1.524 . S
C1129 C1126 1.403 . S
C1129 C1130 1.392 . S
C1129 C1133 1.495 . S
C1130 C1129 1.392 . S
C1130 C1131 1.385 . S
C1130 C1132 1.478 . S
C1131 H1125 0.930 . S
C1131 C1127 1.400 . S
C1131 C1130 1.385 . S
C1132 C1130 1.478 . S
C1132 C1134 1.381 . S
C1132 C1138 1.383 . S
C1133 C1129 1.495 . S
C1133 H1139 0.959 . S
C1133 H1140 0.961 . S
C1133 H1141 0.960 . S
C1134 C1132 1.381 . S
C1134 C1135 1.394 . S
C1134 H1142 0.930 . S
C1135 C1134 1.394 . S
C1135 C1136 1.383 . S
C1135 H1143 0.929 . S
C1136 C1135 1.383 . S
C1136 C1137 1.377 . S
C1137 H1121 0.930 . S
C1137 C1136 1.377 . S
C1137 C1138 1.379 . S
C1138 H1122 0.931 . S
C1138 C1132 1.383 . S
C1138 C1137 1.379 . S
H1139 C1133 0.959 . S
H1140 C1133 0.961 . S
H1141 C1133 0.960 . S
H1142 C1134 0.930 . S
H1143 C1135 0.929 . S
H1144 C1152 0.929 . S
H1145 C1154 0.930 . S
H1146 C1156 0.930 . S
H1147 C1159 0.929 . S
H1148 C1162 0.930 . S
H1149 C1164 0.960 . S
H1150 C1164 0.960 . S
H1151 C1164 0.960 . S
C1152 H1144 0.929 . S
C1152 C1153 1.377 . S
C1152 C1154 1.384 . S
C1153 C1152 1.377 . S
C1153 C1159 1.390 . S
C1154 H1145 0.930 . S
C1154 C1152 1.384 . S
C1154 C1155 1.372 . S
C1155 C1154 1.372 . S
C1155 C1156 1.400 . S
C1155 C1160 1.490 . S
C1156 H1146 0.930 . S
C1156 C1155 1.400 . S
C1156 C1159 1.386 . S
H1157 C1173 0.930 . S
H1158 C1174 0.931 . S
C1159 H1147 0.929 . S
C1159 C1153 1.390 . S
C1159 C1156 1.386 . S
C1160 C1155 1.490 . S
C1160 C1162 1.395 . S
C1160 C1163 1.403 . S
H1161 C1167 0.930 . S
C1162 H1148 0.930 . S
C1162 C1160 1.395 . S
C1162 C1165 1.403 . S
C1163 C1160 1.403 . S
C1163 C1164 1.524 . S
C1163 C1167 1.400 . S
C1164 H1149 0.960 . S
C1164 H1150 0.960 . S
C1164 H1151 0.960 . S
C1164 C1163 1.524 . S
C1165 C1162 1.403 . S
C1165 C1166 1.392 . S
C1165 C1169 1.495 . S
C1166 C1165 1.392 . S
C1166 C1167 1.385 . S
C1166 C1168 1.478 . S
C1167 H1161 0.930 . S
C1167 C1163 1.400 . S
C1167 C1166 1.385 . S
C1168 C1166 1.478 . S
C1168 C1170 1.381 . S
C1168 C1174 1.383 . S
C1169 C1165 1.495 . S
C1169 H1175 0.959 . S
C1169 H1176 0.961 . S
C1169 H1177 0.960 . S
C1170 C1168 1.381 . S
C1170 C1171 1.394 . S
C1170 H1178 0.930 . S
C1171 C1170 1.394 . S
C1171 C1172 1.383 . S
C1171 H1179 0.929 1_554 S
C1172 C1171 1.383 . S
C1172 C1173 1.377 . S
C1173 H1157 0.930 . S
C1173 C1172 1.377 . S
C1173 C1174 1.379 . S
C1174 H1158 0.931 . S
C1174 C1168 1.383 . S
C1174 C1173 1.379 . S
H1175 C1169 0.959 . S
H1176 C1169 0.961 . S
H1177 C1169 0.960 . S
H1178 C1170 0.930 . S
H1179 C1171 0.929 1_556 S
H1180 C1188 0.929 . S
H1181 C1190 0.930 . S
H1182 C1192 0.930 . S
H1183 C1195 0.929 . S
H1184 C1198 0.930 . S
H1185 C1200 0.960 . S
H1186 C1200 0.960 . S
H1187 C1200 0.960 . S
C1188 H1180 0.929 . S
C1188 C1189 1.377 . S
C1188 C1190 1.384 . S
C1189 C1188 1.377 . S
C1189 C1195 1.390 . S
C1190 H1181 0.930 . S
C1190 C1188 1.384 . S
C1190 C1191 1.372 . S
C1191 C1190 1.372 . S
C1191 C1192 1.400 . S
C1191 C1196 1.490 . S
C1192 H1182 0.930 . S
C1192 C1191 1.400 . S
C1192 C1195 1.386 . S
H1193 C1209 0.901 1_554 S
H1194 C1210 0.931 . S
C1195 H1183 0.929 . S
C1195 C1189 1.390 . S
C1195 C1192 1.386 . S
C1196 C1191 1.490 . S
C1196 C1198 1.395 . S
C1196 C1199 1.403 . S
H1197 C1203 0.930 . S
C1198 H1184 0.930 . S
C1198 C1196 1.395 . S
C1198 C1201 1.403 . S
C1199 C1196 1.403 . S
C1199 C1200 1.524 . S
C1199 C1203 1.400 . S
C1200 H1185 0.960 . S
C1200 H1186 0.960 . S
C1200 H1187 0.960 . S
C1200 C1199 1.524 . S
C1201 C1198 1.403 . S
C1201 C1202 1.392 . S
C1201 C1205 1.495 . S
C1202 C1201 1.392 . S
C1202 C1203 1.385 . S
C1202 C1204 1.478 . S
C1203 H1197 0.930 . S
C1203 C1199 1.400 . S
C1203 C1202 1.385 . S
C1204 C1202 1.478 . S
C1204 C1206 1.381 . S
C1204 C1210 1.383 . S
C1205 C1201 1.495 . S
C1205 H1211 0.959 . S
C1205 H1212 0.961 . S
C1205 H1213 0.960 . S
C1206 C1204 1.381 . S
C1206 C1207 1.394 . S
C1206 H1214 0.930 . S
C1207 C1206 1.394 . S
C1207 C1208 1.383 . S
C1207 H1215 0.929 . S
C1208 C1207 1.383 . S
C1208 C1209 1.377 . S
C1209 H1193 0.901 1_556 S
C1209 C1208 1.377 . S
C1209 C1210 1.379 . S
C1210 H1194 0.931 . S
C1210 C1204 1.383 . S
C1210 C1209 1.379 . S
H1211 C1205 0.959 . S
H1212 C1205 0.961 . S
H1213 C1205 0.960 . S
H1214 C1206 0.930 . S
H1215 C1207 0.929 . S
H1216 C1224 0.929 . S
H1217 C1226 0.930 . S
H1218 C1228 0.930 . S
H1219 C1231 0.929 . S
H1220 C1234 0.930 1_655 S
H1221 C1236 0.960 . S
H1222 C1236 0.960 . S
H1223 C1236 0.960 . S
C1224 H1216 0.929 . S
C1224 C1225 1.377 . S
C1224 C1226 1.384 . S
C1225 C1224 1.377 . S
C1225 C1231 1.390 1_455 S
C1226 H1217 0.930 . S
C1226 C1224 1.384 . S
C1226 C1227 1.372 . S
C1227 C1226 1.372 . S
C1227 C1228 1.400 1_455 S
C1227 C1232 1.490 . S
C1228 H1218 0.930 . S
C1228 C1227 1.400 1_655 S
C1228 C1231 1.386 . S
H1229 C1245 0.930 1_655 S
H1230 C1246 0.931 1_655 S
C1231 H1219 0.929 . S
C1231 C1225 1.390 1_655 S
C1231 C1228 1.386 . S
C1232 C1227 1.490 . S
C1232 C1234 1.395 . S
C1232 C1235 1.403 . S
H1233 C1239 0.930 . S
C1234 H1220 0.930 1_455 S
C1234 C1232 1.395 . S
C1234 C1237 1.403 . S
C1235 C1232 1.403 . S
C1235 C1236 1.524 . S
C1235 C1239 1.400 . S
C1236 H1221 0.960 . S
C1236 H1222 0.960 . S
C1236 H1223 0.960 . S
C1236 C1235 1.524 . S
C1237 C1234 1.403 . S
C1237 C1238 1.392 . S
C1237 C1241 1.495 1_455 S
C1238 C1237 1.392 . S
C1238 C1239 1.385 . S
C1238 C1240 1.478 . S
C1239 H1233 0.930 . S
C1239 C1235 1.400 . S
C1239 C1238 1.385 . S
C1240 C1238 1.478 . S
C1240 C1242 1.381 . S
C1240 C1246 1.383 . S
C1241 C1237 1.495 1_655 S
C1241 H1247 0.959 . S
C1241 H1248 0.961 . S
C1241 H1249 0.960 1_655 S
C1242 C1240 1.381 . S
C1242 C1243 1.394 . S
C1242 H1250 0.930 . S
C1243 C1242 1.394 . S
C1243 C1244 1.383 . S
C1243 H1251 0.929 . S
C1244 C1243 1.383 . S
C1244 C1245 1.377 . S
C1245 H1229 0.930 1_455 S
C1245 C1244 1.377 . S
C1245 C1246 1.379 . S
C1246 H1230 0.931 1_455 S
C1246 C1240 1.383 . S
C1246 C1245 1.379 . S
H1247 C1241 0.959 . S
H1248 C1241 0.961 . S
H1249 C1241 0.960 1_455 S
H1250 C1242 0.930 . S
H1251 C1243 0.929 . S
H1252 C1260 0.929 . S
H1253 C1262 0.930 . S
H1254 C1264 0.930 . S
H1255 C1267 0.929 . S
H1256 C1270 0.930 1_655 S
H1257 C1272 0.970 . S
H1258 C1272 0.960 . S
H1259 C1272 0.960 . S
C1260 H1252 0.929 . S
C1260 C1261 1.377 . S
C1260 C1262 1.384 . S
C1261 C1260 1.377 . S
C1261 C1267 1.390 . S
C1262 H1253 0.930 . S
C1262 C1260 1.384 . S
C1262 C1263 1.372 . S
C1263 C1262 1.372 . S
C1263 C1264 1.400 . S
C1263 C1268 1.490 . S
C1264 H1254 0.930 . S
C1264 C1263 1.400 . S
C1264 C1267 1.386 . S
H1265 C1281 0.930 . S
H1266 C1282 0.931 . S
C1267 H1255 0.929 . S
C1267 C1261 1.390 . S
C1267 C1264 1.386 . S
C1268 C1263 1.490 . S
C1268 C1270 1.395 1_655 S
C1268 C1271 1.390 1_655 S
H1269 C1275 0.930 . S
C1270 H1256 0.930 1_455 S
C1270 C1268 1.395 1_455 S
C1270 C1273 1.403 . S
C1271 C1268 1.390 1_455 S
C1271 C1272 1.511 1_455 S
C1271 C1275 1.427 . S
C1272 H1257 0.970 . S
C1272 H1258 0.960 . S
C1272 H1259 0.960 . S
C1272 C1271 1.511 1_655 S
C1273 C1270 1.403 . S
C1273 C1274 1.392 . S
C1273 C1277 1.495 . S
C1274 C1273 1.392 . S
C1274 C1275 1.385 . S
C1274 C1276 1.478 . S
C1275 H1269 0.930 . S
C1275 C1271 1.427 . S
C1275 C1274 1.385 . S
C1276 C1274 1.478 . S
C1276 C1278 1.381 . S
C1276 C1282 1.383 . S
C1277 C1273 1.495 . S
C1277 H1283 0.959 . S
C1277 H1284 0.961 . S
C1277 H1285 0.960 . S
C1278 C1276 1.381 . S
C1278 C1279 1.394 . S
C1278 H1286 0.930 . S
C1279 C1278 1.394 . S
C1279 C1280 1.383 . S
C1279 H1287 0.929 . S
C1280 C1279 1.383 . S
C1280 C1281 1.377 . S
C1281 H1265 0.930 . S
C1281 C1280 1.377 . S
C1281 C1282 1.379 . S
C1282 H1266 0.931 . S
C1282 C1276 1.383 . S
C1282 C1281 1.379 . S
H1283 C1277 0.959 . S
H1284 C1277 0.961 . S
H1285 C1277 0.960 . S
H1286 C1278 0.930 . S
H1287 C1279 0.929 . S
H1288 C1296 0.929 . S
H1289 C1298 0.930 . S
H1290 C1300 0.930 . S
H1291 C1303 0.929 . S
H1292 C1306 0.930 . S
H1293 C1308 0.960 . S
H1294 C1308 0.960 . S
H1295 C1308 0.960 . S
C1296 H1288 0.929 . S
C1296 C1297 1.377 . S
C1296 C1298 1.384 . S
C1297 C1296 1.377 . S
C1297 C1303 1.390 . S
C1298 H1289 0.930 . S
C1298 C1296 1.384 . S
C1298 C1299 1.372 . S
C1299 C1298 1.372 . S
C1299 C1300 1.400 . S
C1299 C1304 1.490 . S
C1300 H1290 0.930 . S
C1300 C1299 1.400 . S
C1300 C1303 1.386 . S
H1301 C1317 0.930 . S
H1302 C1318 0.931 . S
C1303 H1291 0.929 . S
C1303 C1297 1.390 . S
C1303 C1300 1.386 . S
C1304 C1299 1.490 . S
C1304 C1306 1.395 . S
C1304 C1307 1.403 . S
H1305 C1311 0.930 . S
C1306 H1292 0.930 . S
C1306 C1304 1.395 . S
C1306 C1309 1.403 . S
C1307 C1304 1.403 . S
C1307 C1308 1.524 . S
C1307 C1311 1.400 . S
C1308 H1293 0.960 . S
C1308 H1294 0.960 . S
C1308 H1295 0.960 . S
C1308 C1307 1.524 . S
C1309 C1306 1.403 . S
C1309 C1310 1.392 . S
C1309 C1313 1.495 . S
C1310 C1309 1.392 . S
C1310 C1311 1.385 . S
C1310 C1312 1.478 . S
C1311 H1305 0.930 . S
C1311 C1307 1.400 . S
C1311 C1310 1.385 . S
C1312 C1310 1.478 . S
C1312 C1314 1.381 . S
C1312 C1318 1.383 . S
C1313 C1309 1.495 . S
C1313 H1319 0.959 . S
C1313 H1320 0.961 . S
C1313 H1321 0.960 . S
C1314 C1312 1.381 . S
C1314 C1315 1.394 . S
C1314 H1322 0.930 . S
C1315 C1314 1.394 . S
C1315 C1316 1.383 . S
C1315 H1323 0.929 . S
C1316 C1315 1.383 . S
C1316 C1317 1.377 . S
C1317 H1301 0.930 . S
C1317 C1316 1.377 . S
C1317 C1318 1.379 . S
C1318 H1302 0.931 . S
C1318 C1312 1.383 . S
C1318 C1317 1.379 . S
H1319 C1313 0.959 . S
H1320 C1313 0.961 . S
H1321 C1313 0.960 . S
H1322 C1314 0.930 . S
H1323 C1315 0.929 . S
H1324 C1332 0.929 . S
H1325 C1334 0.930 . S
H1326 C1336 0.930 . S
H1327 C1339 0.929 . S
H1328 C1342 0.930 . S
H1329 C1344 0.960 . S
H1330 C1344 0.960 . S
H1331 C1344 0.960 . S
C1332 H1324 0.929 . S
C1332 C1333 1.377 . S
C1332 C1334 1.384 . S
C1333 C1332 1.377 . S
C1333 C1339 1.390 . S
C1334 H1325 0.930 . S
C1334 C1332 1.384 . S
C1334 C1335 1.372 . S
C1335 C1334 1.372 . S
C1335 C1336 1.400 . S
C1335 C1340 1.490 . S
C1336 H1326 0.930 . S
C1336 C1335 1.400 . S
C1336 C1339 1.386 . S
H1337 C1353 0.930 . S
H1338 C1354 0.931 . S
C1339 H1327 0.929 . S
C1339 C1333 1.390 . S
C1339 C1336 1.386 . S
C1340 C1335 1.490 . S
C1340 C1342 1.395 . S
C1340 C1343 1.403 . S
H1341 C1347 0.930 . S
C1342 H1328 0.930 . S
C1342 C1340 1.395 . S
C1342 C1345 1.403 . S
C1343 C1340 1.403 . S
C1343 C1344 1.524 . S
C1343 C1347 1.400 . S
C1344 H1329 0.960 . S
C1344 H1330 0.960 . S
C1344 H1331 0.960 . S
C1344 C1343 1.524 . S
C1345 C1342 1.403 . S
C1345 C1346 1.392 . S
C1345 C1349 1.495 . S
C1346 C1345 1.392 . S
C1346 C1347 1.385 . S
C1346 C1348 1.478 . S
C1347 H1341 0.930 . S
C1347 C1343 1.400 . S
C1347 C1346 1.385 . S
C1348 C1346 1.478 . S
C1348 C1350 1.381 . S
C1348 C1354 1.383 . S
C1349 C1345 1.495 . S
C1349 H1355 0.959 . S
C1349 H1356 0.961 . S
C1349 H1357 0.960 . S
C1350 C1348 1.381 . S
C1350 C1351 1.394 . S
C1350 H1358 0.930 . S
C1351 C1350 1.394 . S
C1351 C1352 1.383 . S
C1351 H1359 0.929 . S
C1352 C1351 1.383 . S
C1352 C1353 1.377 . S
C1353 H1337 0.930 . S
C1353 C1352 1.377 . S
C1353 C1354 1.379 . S
C1354 H1338 0.931 . S
C1354 C1348 1.383 . S
C1354 C1353 1.379 . S
H1355 C1349 0.959 . S
H1356 C1349 0.961 . S
H1357 C1349 0.960 . S
H1358 C1350 0.930 . S
H1359 C1351 0.929 . S
H1360 C1368 0.929 . S
H1361 C1370 0.930 . S
H1362 C1372 0.930 . S
H1363 C1375 0.929 . S
H1364 C1378 0.930 . S
H1365 C1380 0.960 . S
H1366 C1380 0.960 1_455 S
H1367 C1380 0.960 . S
C1368 H1360 0.929 . S
C1368 C1369 1.377 . S
C1368 C1370 1.384 . S
C1369 C1368 1.377 . S
C1369 C1375 1.390 1_455 S
C1370 H1361 0.930 . S
C1370 C1368 1.384 . S
C1370 C1371 1.372 . S
C1371 C1370 1.372 . S
C1371 C1372 1.400 1_455 S
C1371 C1376 1.490 . S
C1372 H1362 0.930 . S
C1372 C1371 1.400 1_655 S
C1372 C1375 1.386 . S
H1373 C1389 0.930 . S
H1374 C1390 0.931 . S
C1375 H1363 0.929 . S
C1375 C1369 1.390 1_655 S
C1375 C1372 1.386 . S
C1376 C1371 1.490 . S
C1376 C1378 1.395 . S
C1376 C1379 1.403 . S
H1377 C1383 0.930 1_655 S
C1378 H1364 0.930 . S
C1378 C1376 1.395 . S
C1378 C1381 1.403 . S
C1379 C1376 1.403 . S
C1379 C1380 1.524 1_455 S
C1379 C1383 1.400 . S
C1380 H1365 0.960 . S
C1380 H1366 0.960 1_655 S
C1380 H1367 0.960 . S
C1380 C1379 1.524 1_655 S
C1381 C1378 1.403 . S
C1381 C1382 1.392 . S
C1381 C1385 1.495 . S
C1382 C1381 1.392 . S
C1382 C1383 1.385 . S
C1382 C1384 1.478 . S
C1383 H1377 0.930 1_455 S
C1383 C1379 1.400 . S
C1383 C1382 1.385 . S
C1384 C1382 1.478 . S
C1384 C1386 1.381 . S
C1384 C1390 1.383 1_455 S
C1385 C1381 1.495 . S
C1385 H1391 0.959 . S
C1385 H1392 0.961 . S
C1385 H1393 0.960 . S
C1386 C1384 1.381 . S
C1386 C1387 1.394 . S
C1386 H1394 0.930 . S
C1387 C1386 1.394 . S
C1387 C1388 1.383 . S
C1387 H1395 0.929 . S
C1388 C1387 1.383 . S
C1388 C1389 1.377 1_455 S
C1389 H1373 0.930 . S
C1389 C1388 1.377 1_655 S
C1389 C1390 1.379 . S
C1390 H1374 0.931 . S
C1390 C1384 1.383 1_655 S
C1390 C1389 1.379 . S
H1391 C1385 0.959 . S
H1392 C1385 0.961 . S
H1393 C1385 0.960 . S
H1394 C1386 0.930 . S
H1395 C1387 0.929 . S
H1396 C1404 0.929 . S
H1397 C1406 0.930 . S
H1398 C1408 0.930 . S
H1399 C1411 0.929 . S
H1400 C1414 0.930 . S
H1401 C1416 0.960 . S
H1402 C1416 0.960 . S
H1403 C1416 0.960 . S
C1404 H1396 0.929 . S
C1404 C1405 1.377 . S
C1404 C1406 1.384 . S
C1405 C1404 1.377 . S
C1405 C1411 1.390 . S
C1406 H1397 0.930 . S
C1406 C1404 1.384 . S
C1406 C1407 1.372 . S
C1407 C1406 1.372 . S
C1407 C1408 1.400 . S
C1407 C1412 1.490 . S
C1408 H1398 0.930 . S
C1408 C1407 1.400 . S
C1408 C1411 1.386 . S
H1409 C1425 0.930 . S
H1410 C1426 0.931 . S
C1411 H1399 0.929 . S
C1411 C1405 1.390 . S
C1411 C1408 1.386 . S
C1412 C1407 1.490 . S
C1412 C1414 1.395 . S
C1412 C1415 1.403 . S
H1413 C1419 0.930 . S
C1414 H1400 0.930 . S
C1414 C1412 1.395 . S
C1414 C1417 1.403 . S
C1415 C1412 1.403 . S
C1415 C1416 1.524 . S
C1415 C1419 1.400 . S
C1416 H1401 0.960 . S
C1416 H1402 0.960 . S
C1416 H1403 0.960 . S
C1416 C1415 1.524 . S
C1417 C1414 1.403 . S
C1417 C1418 1.392 . S
C1417 C1421 1.495 . S
C1418 C1417 1.392 . S
C1418 C1419 1.385 . S
C1418 C1420 1.478 . S
C1419 H1413 0.930 . S
C1419 C1415 1.400 . S
C1419 C1418 1.385 . S
C1420 C1418 1.478 . S
C1420 C1422 1.381 . S
C1420 C1426 1.383 . S
C1421 C1417 1.495 . S
C1421 H1427 0.959 . S
C1421 H1428 0.961 . S
C1421 H1429 0.960 . S
C1422 C1420 1.381 . S
C1422 C1423 1.394 . S
C1422 H1430 0.930 . S
C1423 C1422 1.394 . S
C1423 C1424 1.383 . S
C1423 H1431 0.929 . S
C1424 C1423 1.383 . S
C1424 C1425 1.377 . S
C1425 H1409 0.930 . S
C1425 C1424 1.377 . S
C1425 C1426 1.379 . S
C1426 H1410 0.931 . S
C1426 C1420 1.383 . S
C1426 C1425 1.379 . S
H1427 C1421 0.959 . S
H1428 C1421 0.961 . S
H1429 C1421 0.960 . S
H1430 C1422 0.930 . S
H1431 C1423 0.929 . S
H1432 C1440 0.929 . S
H1433 C1442 0.930 . S
H1434 C1444 0.930 . S
H1435 C1447 0.929 . S
H1436 C1450 0.930 . S
H1437 C1452 0.960 . S
H1438 C1452 0.960 . S
H1439 C1452 0.960 . S
C1440 H1432 0.929 . S
C1440 C1441 1.377 . S
C1440 C1442 1.384 . S
C1441 C1440 1.377 . S
C1441 C1447 1.390 . S
C1442 H1433 0.930 . S
C1442 C1440 1.384 . S
C1442 C1443 1.372 . S
C1443 C1442 1.372 . S
C1443 C1444 1.400 . S
C1443 C1448 1.490 . S
C1444 H1434 0.930 . S
C1444 C1443 1.400 . S
C1444 C1447 1.386 . S
H1445 C1461 0.930 . S
H1446 C1462 0.931 . S
C1447 H1435 0.929 . S
C1447 C1441 1.390 . S
C1447 C1444 1.386 . S
C1448 C1443 1.490 . S
C1448 C1450 1.395 . S
C1448 C1451 1.403 . S
H1449 C1455 0.930 . S
C1450 H1436 0.930 . S
C1450 C1448 1.395 . S
C1450 C1453 1.403 . S
C1451 C1448 1.403 . S
C1451 C1452 1.524 . S
C1451 C1455 1.400 . S
C1452 H1437 0.960 . S
C1452 H1438 0.960 . S
C1452 H1439 0.960 . S
C1452 C1451 1.524 . S
C1453 C1450 1.403 . S
C1453 C1454 1.392 . S
C1453 C1457 1.495 . S
C1454 C1453 1.392 . S
C1454 C1455 1.385 . S
C1454 C1456 1.478 . S
C1455 H1449 0.930 . S
C1455 C1451 1.400 . S
C1455 C1454 1.385 . S
C1456 C1454 1.478 . S
C1456 C1458 1.381 . S
C1456 C1462 1.383 . S
C1457 C1453 1.495 . S
C1457 H1463 0.959 . S
C1457 H1464 0.961 . S
C1457 H1465 0.960 . S
C1458 C1456 1.381 . S
C1458 C1459 1.394 . S
C1458 H1466 0.930 . S
C1459 C1458 1.394 . S
C1459 C1460 1.383 . S
C1459 H1467 0.929 . S
C1460 C1459 1.383 . S
C1460 C1461 1.377 . S
C1461 H1445 0.930 . S
C1461 C1460 1.377 . S
C1461 C1462 1.379 . S
C1462 H1446 0.931 . S
C1462 C1456 1.383 . S
C1462 C1461 1.379 . S
H1463 C1457 0.959 . S
H1464 C1457 0.961 . S
H1465 C1457 0.960 . S
H1466 C1458 0.930 . S
H1467 C1459 0.929 . S
H1468 C1476 0.929 . S
H1469 C1478 0.930 . S
H1470 C1480 0.930 . S
H1471 C1483 0.929 . S
H1472 C1486 0.930 . S
H1473 C1488 0.960 . S
H1474 C1488 0.960 . S
H1475 C1488 0.960 . S
C1476 H1468 0.929 . S
C1476 C1477 1.377 . S
C1476 C1478 1.384 . S
C1477 C1476 1.377 . S
C1477 C1483 1.390 . S
C1478 H1469 0.930 . S
C1478 C1476 1.384 . S
C1478 C1479 1.372 . S
C1479 C1478 1.372 . S
C1479 C1480 1.400 . S
C1479 C1484 1.490 . S
C1480 H1470 0.930 . S
C1480 C1479 1.400 . S
C1480 C1483 1.386 . S
H1481 C1497 0.930 . S
H1482 C1498 0.931 . S
C1483 H1471 0.929 . S
C1483 C1477 1.390 . S
C1483 C1480 1.386 . S
C1484 C1479 1.490 . S
C1484 C1486 1.395 . S
C1484 C1487 1.403 . S
H1485 C1491 0.930 . S
C1486 H1472 0.930 . S
C1486 C1484 1.395 . S
C1486 C1489 1.403 . S
C1487 C1484 1.403 . S
C1487 C1488 1.524 . S
C1487 C1491 1.400 1_455 S
C1488 H1473 0.960 . S
C1488 H1474 0.960 . S
C1488 H1475 0.960 . S
C1488 C1487 1.524 . S
C1489 C1486 1.403 . S
C1489 C1490 1.392 1_455 S
C1489 C1493 1.495 1_455 S
C1490 C1489 1.392 1_655 S
C1490 C1491 1.385 . S
C1490 C1492 1.478 . S
C1491 H1485 0.930 . S
C1491 C1487 1.400 1_655 S
C1491 C1490 1.385 . S
C1492 C1490 1.478 . S
C1492 C1494 1.381 . S
C1492 C1498 1.383 . S
C1493 C1489 1.495 1_655 S
C1493 H1499 0.959 1_655 S
C1493 H1500 0.961 . S
C1493 H1501 0.960 . S
C1494 C1492 1.381 . S
C1494 C1495 1.394 . S
C1494 H1502 0.930 . S
C1495 C1494 1.394 . S
C1495 C1496 1.383 . S
C1495 H1503 0.929 . S
C1496 C1495 1.383 . S
C1496 C1497 1.377 . S
C1497 H1481 0.930 . S
C1497 C1496 1.377 . S
C1497 C1498 1.379 . S
C1498 H1482 0.931 . S
C1498 C1492 1.383 . S
C1498 C1497 1.379 . S
H1499 C1493 0.959 1_455 S
H1500 C1493 0.961 . S
H1501 C1493 0.960 . S
H1502 C1494 0.930 . S
H1503 C1495 0.929 . S
H1504 C1512 0.929 . S
H1505 C1514 0.930 . S
H1506 C1516 0.930 . S
H1507 C1519 0.929 . S
H1508 C1522 0.930 . S
H1509 C1524 0.960 . S
H1510 C1524 0.960 . S
H1511 C1524 0.960 . S
C1512 H1504 0.929 . S
C1512 C1513 1.377 . S
C1512 C1514 1.384 . S
C1513 C1512 1.377 . S
C1513 C1519 1.390 . S
C1514 H1505 0.930 . S
C1514 C1512 1.384 . S
C1514 C1515 1.372 . S
C1515 C1514 1.372 . S
C1515 C1516 1.400 . S
C1515 C1520 1.490 . S
C1516 H1506 0.930 . S
C1516 C1515 1.400 . S
C1516 C1519 1.386 . S
H1517 C1533 0.930 . S
H1518 C1534 0.931 . S
C1519 H1507 0.929 . S
C1519 C1513 1.390 . S
C1519 C1516 1.386 . S
C1520 C1515 1.490 . S
C1520 C1522 1.395 1_455 S
C1520 C1523 1.403 . S
H1521 C1527 0.930 . S
C1522 H1508 0.930 . S
C1522 C1520 1.395 1_655 S
C1522 C1525 1.403 1_544 S
C1523 C1520 1.403 . S
C1523 C1524 1.524 . S
C1523 C1527 1.400 1_544 S
C1524 H1509 0.960 . S
C1524 H1510 0.960 . S
C1524 H1511 0.960 . S
C1524 C1523 1.524 . S
C1525 C1522 1.403 1_566 S
C1525 C1526 1.392 1_655 S
C1525 C1529 1.495 . S
C1526 C1525 1.392 1_455 S
C1526 C1527 1.385 . S
C1526 C1528 1.478 . S
C1527 H1521 0.930 . S
C1527 C1523 1.400 1_566 S
C1527 C1526 1.385 . S
C1528 C1526 1.478 . S
C1528 C1530 1.381 . S
C1528 C1534 1.383 . S
C1529 C1525 1.495 . S
C1529 H1535 0.959 . S
C1529 H1536 0.961 . S
C1529 H1537 0.960 . S
C1530 C1528 1.381 . S
C1530 C1531 1.394 . S
C1530 H1538 0.930 . S
C1531 C1530 1.394 . S
C1531 C1532 1.383 . S
C1531 H1539 0.929 . S
C1532 C1531 1.383 . S
C1532 C1533 1.377 . S
C1533 H1517 0.930 . S
C1533 C1532 1.377 . S
C1533 C1534 1.379 . S
C1534 H1518 0.931 . S
C1534 C1528 1.383 . S
C1534 C1533 1.379 . S
H1535 C1529 0.959 . S
H1536 C1529 0.961 . S
H1537 C1529 0.960 . S
H1538 C1530 0.930 . S
H1539 C1531 0.929 . S
H1540 C1548 0.929 . S
H1541 C1550 0.930 . S
H1542 C1552 0.930 . S
H1543 C1555 0.929 . S
H1544 C1558 0.930 . S
H1545 C1560 0.960 . S
H1546 C1560 0.960 . S
H1547 C1560 0.960 . S
C1548 H1540 0.929 . S
C1548 C1549 1.377 . S
C1548 C1550 1.384 . S
C1549 C1548 1.377 . S
C1549 C1555 1.390 . S
C1550 H1541 0.930 . S
C1550 C1548 1.384 . S
C1550 C1551 1.372 . S
C1551 C1550 1.372 . S
C1551 C1552 1.400 . S
C1551 C1556 1.490 . S
C1552 H1542 0.930 . S
C1552 C1551 1.400 . S
C1552 C1555 1.386 . S
H1553 C1569 0.930 . S
H1554 C1570 0.931 . S
C1555 H1543 0.929 . S
C1555 C1549 1.390 . S
C1555 C1552 1.386 . S
C1556 C1551 1.490 . S
C1556 C1558 1.395 . S
C1556 C1559 1.403 . S
H1557 C1563 0.930 . S
C1558 H1544 0.930 . S
C1558 C1556 1.395 . S
C1558 C1561 1.403 . S
C1559 C1556 1.403 . S
C1559 C1560 1.524 . S
C1559 C1563 1.400 . S
C1560 H1545 0.960 . S
C1560 H1546 0.960 . S
C1560 H1547 0.960 . S
C1560 C1559 1.524 . S
C1561 C1558 1.403 . S
C1561 C1562 1.392 . S
C1561 C1565 1.495 . S
C1562 C1561 1.392 . S
C1562 C1563 1.385 . S
C1562 C1564 1.478 . S
C1563 H1557 0.930 . S
C1563 C1559 1.400 . S
C1563 C1562 1.385 . S
C1564 C1562 1.478 . S
C1564 C1566 1.381 . S
C1564 C1570 1.383 . S
C1565 C1561 1.495 . S
C1565 H1571 0.959 . S
C1565 H1572 0.961 . S
C1565 H1573 0.960 . S
C1566 C1564 1.381 . S
C1566 C1567 1.394 . S
C1566 H1574 0.930 . S
C1567 C1566 1.394 . S
C1567 C1568 1.383 . S
C1567 H1575 0.929 . S
C1568 C1567 1.383 . S
C1568 C1569 1.377 . S
C1569 H1553 0.930 . S
C1569 C1568 1.377 . S
C1569 C1570 1.379 . S
C1570 H1554 0.931 . S
C1570 C1564 1.383 . S
C1570 C1569 1.379 . S
H1571 C1565 0.959 . S
H1572 C1565 0.961 . S
H1573 C1565 0.960 . S
H1574 C1566 0.930 . S
H1575 C1567 0.929 . S
H1576 C1584 0.929 . S
H1577 C1586 0.930 . S
H1578 C1588 0.930 . S
H1579 C1591 0.929 . S
H1580 C1594 0.930 . S
H1581 C1596 0.960 . S
H1582 C1596 0.960 . S
H1583 C1596 0.960 . S
C1584 H1576 0.929 . S
C1584 C1585 1.377 . S
C1584 C1586 1.384 . S
C1585 C1584 1.377 . S
C1585 C1591 1.390 . S
C1586 H1577 0.930 . S
C1586 C1584 1.384 . S
C1586 C1587 1.372 . S
C1587 C1586 1.372 . S
C1587 C1588 1.400 . S
C1587 C1592 1.490 . S
C1588 H1578 0.930 . S
C1588 C1587 1.400 . S
C1588 C1591 1.386 . S
H1589 C1605 0.930 . S
H1590 C1606 0.931 . S
C1591 H1579 0.929 . S
C1591 C1585 1.390 . S
C1591 C1588 1.386 . S
C1592 C1587 1.490 . S
C1592 C1594 1.395 . S
C1592 C1595 1.403 1_545 S
H1593 C1599 0.930 . S
C1594 H1580 0.930 . S
C1594 C1592 1.395 . S
C1594 C1597 1.403 . S
C1595 C1592 1.403 1_565 S
C1595 C1596 1.524 . S
C1595 C1599 1.400 . S
C1596 H1581 0.960 . S
C1596 H1582 0.960 . S
C1596 H1583 0.960 . S
C1596 C1595 1.524 . S
C1597 C1594 1.403 . S
C1597 C1598 1.392 1_545 S
C1597 C1601 1.495 . S
C1598 C1597 1.392 1_565 S
C1598 C1599 1.385 . S
C1598 C1600 1.478 . S
C1599 H1593 0.930 . S
C1599 C1595 1.400 . S
C1599 C1598 1.385 . S
C1600 C1598 1.478 . S
C1600 C1602 1.381 . S
C1600 C1606 1.383 . S
C1601 C1597 1.495 . S
C1601 H1607 0.959 . S
C1601 H1608 0.961 . S
C1601 H1609 0.960 . S
C1602 C1600 1.381 . S
C1602 C1603 1.394 . S
C1602 H1610 0.930 . S
C1603 C1602 1.394 . S
C1603 C1604 1.383 . S
C1603 H1611 0.929 . S
C1604 C1603 1.383 . S
C1604 C1605 1.377 . S
C1605 H1589 0.930 . S
C1605 C1604 1.377 . S
C1605 C1606 1.379 . S
C1606 H1590 0.931 . S
C1606 C1600 1.383 . S
C1606 C1605 1.379 . S
H1607 C1601 0.959 . S
H1608 C1601 0.961 . S
H1609 C1601 0.960 . S
H1610 C1602 0.930 . S
H1611 C1603 0.929 . S
H1612 C1620 0.929 . S
H1613 C1622 0.930 . S
H1614 C1624 0.930 . S
H1615 C1627 0.929 . S
H1616 C1630 0.930 . S
H1617 C1632 0.960 . S
H1618 C1632 0.960 . S
H1619 C1632 0.960 . S
C1620 H1612 0.929 . S
C1620 C1621 1.377 . S
C1620 C1622 1.384 . S
C1621 C1620 1.377 . S
C1621 C1627 1.390 . S
C1622 H1613 0.930 . S
C1622 C1620 1.384 . S
C1622 C1623 1.372 . S
C1623 C1622 1.372 . S
C1623 C1624 1.400 . S
C1623 C1628 1.490 . S
C1624 H1614 0.930 . S
C1624 C1623 1.400 . S
C1624 C1627 1.386 . S
H1625 C1641 0.930 . S
H1626 C1642 0.931 . S
C1627 H1615 0.929 . S
C1627 C1621 1.390 . S
C1627 C1624 1.386 . S
C1628 C1623 1.490 . S
C1628 C1630 1.395 . S
C1628 C1631 1.403 . S
H1629 C1635 0.930 . S
C1630 H1616 0.930 . S
C1630 C1628 1.395 . S
C1630 C1633 1.403 . S
C1631 C1628 1.403 . S
C1631 C1632 1.524 . S
C1631 C1635 1.400 . S
C1632 H1617 0.960 . S
C1632 H1618 0.960 . S
C1632 H1619 0.960 . S
C1632 C1631 1.524 . S
C1633 C1630 1.403 . S
C1633 C1634 1.392 . S
C1633 C1637 1.495 . S
C1634 C1633 1.392 . S
C1634 C1635 1.385 . S
C1634 C1636 1.478 . S
C1635 H1629 0.930 . S
C1635 C1631 1.400 . S
C1635 C1634 1.385 . S
C1636 C1634 1.478 . S
C1636 C1638 1.381 . S
C1636 C1642 1.383 . S
C1637 C1633 1.495 . S
C1637 H1643 0.959 . S
C1637 H1644 0.961 . S
C1637 H1645 0.960 . S
C1638 C1636 1.381 . S
C1638 C1639 1.394 . S
C1638 H1646 0.930 . S
C1639 C1638 1.394 . S
C1639 C1640 1.383 . S
C1639 H1647 0.929 . S
C1640 C1639 1.383 . S
C1640 C1641 1.377 . S
C1641 H1625 0.930 . S
C1641 C1640 1.377 . S
C1641 C1642 1.379 . S
C1642 H1626 0.931 . S
C1642 C1636 1.383 . S
C1642 C1641 1.379 . S
H1643 C1637 0.959 . S
H1644 C1637 0.961 . S
H1645 C1637 0.960 . S
H1646 C1638 0.930 . S
H1647 C1639 0.929 . S
H1648 C1656 0.929 . S
H1649 C1658 0.930 . S
H1650 C1660 0.930 . S
H1651 C1663 0.929 . S
H1652 C1666 0.930 . S
H1653 C1668 0.960 . S
H1654 C1668 0.960 . S
H1655 C1668 0.960 . S
C1656 H1648 0.929 . S
C1656 C1657 1.377 . S
C1656 C1658 1.384 . S
C1657 C1656 1.377 . S
C1657 C1663 1.390 . S
C1658 H1649 0.930 . S
C1658 C1656 1.384 . S
C1658 C1659 1.372 . S
C1659 C1658 1.372 . S
C1659 C1660 1.400 . S
C1659 C1664 1.490 . S
C1660 H1650 0.930 . S
C1660 C1659 1.400 . S
C1660 C1663 1.386 . S
H1661 C1677 0.930 . S
H1662 C1678 0.931 . S
C1663 H1651 0.929 . S
C1663 C1657 1.390 . S
C1663 C1660 1.386 . S
C1664 C1659 1.490 . S
C1664 C1666 1.395 . S
C1664 C1667 1.403 . S
H1665 C1671 0.930 . S
C1666 H1652 0.930 . S
C1666 C1664 1.395 . S
C1666 C1669 1.403 . S
C1667 C1664 1.403 . S
C1667 C1668 1.524 . S
C1667 C1671 1.400 . S
C1668 H1653 0.960 . S
C1668 H1654 0.960 . S
C1668 H1655 0.960 . S
C1668 C1667 1.524 . S
C1669 C1666 1.403 . S
C1669 C1670 1.392 . S
C1669 C1673 1.495 . S
C1670 C1669 1.392 . S
C1670 C1671 1.385 . S
C1670 C1672 1.478 . S
C1671 H1665 0.930 . S
C1671 C1667 1.400 . S
C1671 C1670 1.385 . S
C1672 C1670 1.478 . S
C1672 C1674 1.381 . S
C1672 C1678 1.383 . S
C1673 C1669 1.495 . S
C1673 H1679 0.959 . S
C1673 H1680 0.961 . S
C1673 H1681 0.960 . S
C1674 C1672 1.381 . S
C1674 C1675 1.394 . S
C1674 H1682 0.930 . S
C1675 C1674 1.394 . S
C1675 C1676 1.383 . S
C1675 H1683 0.929 . S
C1676 C1675 1.383 . S
C1676 C1677 1.377 . S
C1677 H1661 0.930 . S
C1677 C1676 1.377 . S
C1677 C1678 1.379 . S
C1678 H1662 0.931 . S
C1678 C1672 1.383 . S
C1678 C1677 1.379 . S
H1679 C1673 0.959 . S
H1680 C1673 0.961 . S
H1681 C1673 0.960 . S
H1682 C1674 0.930 . S
H1683 C1675 0.929 . S
H1684 C1692 0.929 . S
H1685 C1694 0.930 . S
H1686 C1696 0.930 . S
H1687 C1699 0.929 . S
H1688 C1702 0.930 . S
H1689 C1704 0.960 . S
H1690 C1704 0.960 . S
H1691 C1704 0.960 . S
C1692 H1684 0.929 . S
C1692 C1693 1.377 . S
C1692 C1694 1.384 . S
C1693 C1692 1.377 . S
C1693 C1699 1.390 . S
C1694 H1685 0.930 . S
C1694 C1692 1.384 . S
C1694 C1695 1.372 . S
C1695 C1694 1.372 . S
C1695 C1696 1.400 . S
C1695 C1700 1.490 . S
C1696 H1686 0.930 . S
C1696 C1695 1.400 . S
C1696 C1699 1.386 . S
H1697 C1713 0.930 . S
H1698 C1714 0.931 . S
C1699 H1687 0.929 . S
C1699 C1693 1.390 . S
C1699 C1696 1.386 . S
C1700 C1695 1.490 . S
C1700 C1702 1.395 . S
C1700 C1703 1.403 . S
H1701 C1707 0.930 . S
C1702 H1688 0.930 . S
C1702 C1700 1.395 . S
C1702 C1705 1.403 . S
C1703 C1700 1.403 . S
C1703 C1704 1.524 . S
C1703 C1707 1.400 . S
C1704 H1689 0.960 . S
C1704 H1690 0.960 . S
C1704 H1691 0.960 . S
C1704 C1703 1.524 . S
C1705 C1702 1.403 . S
C1705 C1706 1.392 . S
C1705 C1709 1.495 . S
C1706 C1705 1.392 . S
C1706 C1707 1.385 . S
C1706 C1708 1.478 . S
C1707 H1701 0.930 . S
C1707 C1703 1.400 . S
C1707 C1706 1.385 . S
C1708 C1706 1.478 . S
C1708 C1710 1.381 . S
C1708 C1714 1.383 . S
C1709 C1705 1.495 . S
C1709 H1715 0.959 . S
C1709 H1716 0.961 . S
C1709 H1717 0.960 . S
C1710 C1708 1.381 . S
C1710 C1711 1.394 . S
C1710 H1718 0.930 . S
C1711 C1710 1.394 . S
C1711 C1712 1.383 . S
C1711 H1719 0.929 . S
C1712 C1711 1.383 . S
C1712 C1713 1.377 . S
C1713 H1697 0.930 . S
C1713 C1712 1.377 . S
C1713 C1714 1.379 . S
C1714 H1698 0.931 . S
C1714 C1708 1.383 . S
C1714 C1713 1.379 . S
H1715 C1709 0.959 . S
H1716 C1709 0.961 . S
H1717 C1709 0.960 . S
H1718 C1710 0.930 . S
H1719 C1711 0.929 . S
H1720 C1728 0.929 . S
H1721 C1730 0.930 . S
H1722 C1732 0.930 . S
H1723 C1735 0.929 . S
H1724 C1738 0.930 . S
H1725 C1740 0.960 . S
H1726 C1740 0.960 . S
H1727 C1740 0.960 . S
C1728 H1720 0.929 . S
C1728 C1729 1.377 . S
C1728 C1730 1.384 . S
C1729 C1728 1.377 . S
C1729 C1735 1.390 . S
C1730 H1721 0.930 . S
C1730 C1728 1.384 . S
C1730 C1731 1.372 . S
C1731 C1730 1.372 . S
C1731 C1732 1.400 . S
C1731 C1736 1.490 . S
C1732 H1722 0.930 . S
C1732 C1731 1.400 . S
C1732 C1735 1.386 . S
H1733 C1749 0.930 . S
H1734 C1750 0.931 . S
C1735 H1723 0.929 . S
C1735 C1729 1.390 . S
C1735 C1732 1.386 . S
C1736 C1731 1.490 . S
C1736 C1738 1.395 . S
C1736 C1739 1.403 . S
H1737 C1743 0.930 . S
C1738 H1724 0.930 . S
C1738 C1736 1.395 . S
C1738 C1741 1.403 . S
C1739 C1736 1.403 . S
C1739 C1740 1.524 . S
C1739 C1743 1.400 . S
C1740 H1725 0.960 . S
C1740 H1726 0.960 . S
C1740 H1727 0.960 . S
C1740 C1739 1.524 . S
C1741 C1738 1.403 . S
C1741 C1742 1.392 . S
C1741 C1745 1.495 . S
C1742 C1741 1.392 . S
C1742 C1743 1.385 . S
C1742 C1744 1.478 . S
C1743 H1737 0.930 . S
C1743 C1739 1.400 . S
C1743 C1742 1.385 . S
C1744 C1742 1.478 . S
C1744 C1746 1.381 . S
C1744 C1750 1.383 . S
C1745 C1741 1.495 . S
C1745 H1751 0.959 . S
C1745 H1752 0.961 . S
C1745 H1753 0.960 . S
C1746 C1744 1.381 . S
C1746 C1747 1.394 . S
C1746 H1754 0.930 . S
C1747 C1746 1.394 . S
C1747 C1748 1.383 . S
C1747 H1755 0.929 . S
C1748 C1747 1.383 . S
C1748 C1749 1.377 . S
C1749 H1733 0.930 . S
C1749 C1748 1.377 . S
C1749 C1750 1.379 . S
C1750 H1734 0.931 . S
C1750 C1744 1.383 . S
C1750 C1749 1.379 . S
H1751 C1745 0.959 . S
H1752 C1745 0.961 . S
H1753 C1745 0.960 . S
H1754 C1746 0.930 . S
H1755 C1747 0.929 . S
H1756 C1764 0.929 . S
H1757 C1766 0.930 . S
H1758 C1768 0.930 . S
H1759 C1771 0.929 . S
H1760 C1774 0.930 . S
H1761 C1776 0.960 . S
H1762 C1776 0.960 . S
H1763 C1776 0.960 . S
C1764 H1756 0.929 . S
C1764 C1765 1.377 . S
C1764 C1766 1.384 . S
C1765 C1764 1.377 . S
C1765 C1771 1.390 1_455 S
C1766 H1757 0.930 . S
C1766 C1764 1.384 . S
C1766 C1767 1.372 . S
C1767 C1766 1.372 . S
C1767 C1768 1.400 1_455 S
C1767 C1772 1.490 . S
C1768 H1758 0.930 . S
C1768 C1767 1.400 1_655 S
C1768 C1771 1.386 . S
H1769 C1785 0.937 . S
H1770 C1786 0.931 1_655 S
C1771 H1759 0.929 . S
C1771 C1765 1.390 1_655 S
C1771 C1768 1.386 . S
C1772 C1767 1.490 . S
C1772 C1774 1.395 . S
C1772 C1775 1.403 1_455 S
H1773 C1779 0.930 . S
C1774 H1760 0.930 . S
C1774 C1772 1.395 . S
C1774 C1777 1.403 1_556 S
C1775 C1772 1.403 1_655 S
C1775 C1776 1.524 . S
C1775 C1779 1.400 1_556 S
C1776 H1761 0.960 . S
C1776 H1762 0.960 . S
C1776 H1763 0.960 . S
C1776 C1775 1.524 . S
C1777 C1774 1.403 1_554 S
C1777 C1778 1.392 . S
C1777 C1781 1.495 . S
C1778 C1777 1.392 . S
C1778 C1779 1.385 1_455 S
C1778 C1780 1.478 . S
C1779 H1773 0.930 . S
C1779 C1775 1.400 1_554 S
C1779 C1778 1.385 1_655 S
C1780 C1778 1.478 . S
C1780 C1782 1.381 . S
C1780 C1786 1.383 . S
C1781 C1777 1.495 . S
C1781 H1787 0.959 . S
C1781 H1788 0.961 . S
C1781 H1789 0.960 . S
C1782 C1780 1.381 . S
C1782 C1783 1.394 . S
C1782 H1790 0.930 . S
C1783 C1782 1.394 . S
C1783 C1784 1.383 . S
C1783 H1791 0.929 . S
C1784 C1783 1.383 . S
C1784 C1785 1.371 1_455 S
C1785 H1769 0.937 . S
C1785 C1784 1.371 1_655 S
C1785 C1786 1.378 1_655 S
C1786 H1770 0.931 1_455 S
C1786 C1780 1.383 . S
C1786 C1785 1.378 1_455 S
H1787 C1781 0.959 . S
H1788 C1781 0.961 . S
H1789 C1781 0.960 . S
H1790 C1782 0.930 . S
H1791 C1783 0.929 . S
H1792 C1800 0.929 . S
H1793 C1802 0.930 . S
H1794 C1804 0.930 . S
H1795 C1807 0.929 . S
H1796 C1810 0.930 . S
H1797 C1812 0.960 . S
H1798 C1812 0.960 . S
H1799 C1812 0.960 . S
C1800 H1792 0.929 . S
C1800 C1801 1.377 . S
C1800 C1802 1.384 . S
C1801 C1800 1.377 . S
C1801 C1807 1.390 . S
C1802 H1793 0.930 . S
C1802 C1800 1.384 . S
C1802 C1803 1.372 . S
C1803 C1802 1.372 . S
C1803 C1804 1.400 . S
C1803 C1808 1.490 . S
C1804 H1794 0.930 . S
C1804 C1803 1.400 . S
C1804 C1807 1.386 . S
H1805 C1821 0.930 . S
H1806 C1822 0.931 . S
C1807 H1795 0.929 . S
C1807 C1801 1.390 . S
C1807 C1804 1.386 . S
C1808 C1803 1.490 . S
C1808 C1810 1.395 . S
C1808 C1811 1.403 . S
H1809 C1815 0.930 . S
C1810 H1796 0.930 . S
C1810 C1808 1.395 . S
C1810 C1813 1.403 . S
C1811 C1808 1.403 . S
C1811 C1812 1.524 . S
C1811 C1815 1.400 . S
C1812 H1797 0.960 . S
C1812 H1798 0.960 . S
C1812 H1799 0.960 . S
C1812 C1811 1.524 . S
C1813 C1810 1.403 . S
C1813 C1814 1.392 . S
C1813 C1817 1.495 . S
C1814 C1813 1.392 . S
C1814 C1815 1.385 . S
C1814 C1816 1.478 . S
C1815 H1809 0.930 . S
C1815 C1811 1.400 . S
C1815 C1814 1.385 . S
C1816 C1814 1.478 . S
C1816 C1818 1.381 . S
C1816 C1822 1.383 . S
C1817 C1813 1.495 . S
C1817 H1823 0.959 . S
C1817 H1824 0.961 . S
C1817 H1825 0.960 . S
C1818 C1816 1.381 . S
C1818 C1819 1.394 . S
C1818 H1826 0.930 . S
C1819 C1818 1.394 . S
C1819 C1820 1.383 . S
C1819 H1827 0.929 . S
C1820 C1819 1.383 . S
C1820 C1821 1.377 . S
C1821 H1805 0.930 . S
C1821 C1820 1.377 . S
C1821 C1822 1.379 . S
C1822 H1806 0.931 . S
C1822 C1816 1.383 . S
C1822 C1821 1.379 . S
H1823 C1817 0.959 . S
H1824 C1817 0.961 . S
H1825 C1817 0.960 . S
H1826 C1818 0.930 . S
H1827 C1819 0.929 . S
H1828 C1836 0.929 . S
H1829 C1838 0.930 . S
H1830 C1840 0.930 . S
H1831 C1843 0.929 . S
H1832 C1846 0.930 . S
H1833 C1848 0.960 . S
H1834 C1848 0.960 . S
H1835 C1848 0.960 . S
C1836 H1828 0.929 . S
C1836 C1837 1.377 . S
C1836 C1838 1.384 . S
C1837 C1836 1.377 . S
C1837 C1843 1.390 . S
C1838 H1829 0.930 . S
C1838 C1836 1.384 . S
C1838 C1839 1.372 . S
C1839 C1838 1.372 . S
C1839 C1840 1.400 . S
C1839 C1844 1.490 . S
C1840 H1830 0.930 . S
C1840 C1839 1.400 . S
C1840 C1843 1.386 . S
H1841 C1857 0.930 . S
H1842 C1858 0.931 . S
C1843 H1831 0.929 . S
C1843 C1837 1.390 . S
C1843 C1840 1.386 . S
C1844 C1839 1.490 . S
C1844 C1846 1.395 . S
C1844 C1847 1.403 . S
H1845 C1851 0.930 . S
C1846 H1832 0.930 . S
C1846 C1844 1.395 . S
C1846 C1849 1.403 . S
C1847 C1844 1.403 . S
C1847 C1848 1.524 . S
C1847 C1851 1.400 . S
C1848 H1833 0.960 . S
C1848 H1834 0.960 . S
C1848 H1835 0.960 . S
C1848 C1847 1.524 . S
C1849 C1846 1.403 . S
C1849 C1850 1.392 . S
C1849 C1853 1.495 . S
C1850 C1849 1.392 . S
C1850 C1851 1.385 . S
C1850 C1852 1.478 . S
C1851 H1845 0.930 . S
C1851 C1847 1.400 . S
C1851 C1850 1.385 . S
C1852 C1850 1.478 . S
C1852 C1854 1.381 . S
C1852 C1858 1.383 . S
C1853 C1849 1.495 . S
C1853 H1859 0.959 . S
C1853 H1860 0.961 . S
C1853 H1861 0.960 . S
C1854 C1852 1.381 . S
C1854 C1855 1.394 . S
C1854 H1862 0.930 . S
C1855 C1854 1.394 . S
C1855 C1856 1.383 . S
C1855 H1863 0.929 . S
C1856 C1855 1.383 . S
C1856 C1857 1.377 . S
C1857 H1841 0.930 . S
C1857 C1856 1.377 . S
C1857 C1858 1.379 . S
C1858 H1842 0.931 . S
C1858 C1852 1.383 . S
C1858 C1857 1.379 . S
H1859 C1853 0.959 . S
H1860 C1853 0.961 . S
H1861 C1853 0.960 . S
H1862 C1854 0.930 . S
H1863 C1855 0.929 . S
H1864 C1872 0.929 . S
H1865 C1874 0.930 . S
H1866 C1876 0.930 . S
H1867 C1879 0.929 1_554 S
H1868 C1882 0.930 . S
H1869 C1884 0.960 . S
H1870 C1884 0.960 . S
H1871 C1884 0.960 . S
C1872 H1864 0.929 . S
C1872 C1873 1.377 . S
C1872 C1874 1.384 . S
C1873 C1872 1.377 . S
C1873 C1879 1.390 . S
C1874 H1865 0.930 . S
C1874 C1872 1.384 . S
C1874 C1875 1.372 . S
C1875 C1874 1.372 . S
C1875 C1876 1.400 . S
C1875 C1880 1.490 . S
C1876 H1866 0.930 . S
C1876 C1875 1.400 . S
C1876 C1879 1.386 . S
H1877 C1893 0.930 . S
H1878 C1894 0.931 . S
C1879 H1867 0.929 1_556 S
C1879 C1873 1.390 . S
C1879 C1876 1.386 . S
C1880 C1875 1.490 . S
C1880 C1882 1.395 . S
C1880 C1883 1.403 . S
H1881 C1887 0.930 . S
C1882 H1868 0.930 . S
C1882 C1880 1.395 . S
C1882 C1885 1.403 . S
C1883 C1880 1.403 . S
C1883 C1884 1.524 . S
C1883 C1887 1.400 . S
C1884 H1869 0.960 . S
C1884 H1870 0.960 . S
C1884 H1871 0.960 . S
C1884 C1883 1.524 . S
C1885 C1882 1.403 . S
C1885 C1886 1.392 . S
C1885 C1889 1.495 . S
C1886 C1885 1.392 . S
C1886 C1887 1.385 . S
C1886 C1888 1.478 . S
C1887 H1881 0.930 . S
C1887 C1883 1.400 . S
C1887 C1886 1.385 . S
C1888 C1886 1.478 . S
C1888 C1890 1.381 . S
C1888 C1894 1.383 . S
C1889 C1885 1.495 . S
C1889 H1895 0.959 . S
C1889 H1896 0.961 . S
C1889 H1897 0.960 . S
C1890 C1888 1.381 . S
C1890 C1891 1.394 . S
C1890 H1898 0.930 . S
C1891 C1890 1.394 . S
C1891 C1892 1.383 . S
C1891 H1899 0.929 . S
C1892 C1891 1.383 . S
C1892 C1893 1.377 . S
C1893 H1877 0.930 . S
C1893 C1892 1.377 . S
C1893 C1894 1.379 . S
C1894 H1878 0.931 . S
C1894 C1888 1.383 . S
C1894 C1893 1.379 . S
H1895 C1889 0.959 . S
H1896 C1889 0.961 . S
H1897 C1889 0.960 . S
H1898 C1890 0.930 . S
H1899 C1891 0.929 . S
H1900 C1908 0.929 . S
H1901 C1910 0.930 . S
H1902 C1912 0.930 . S
H1903 C1915 0.929 . S
H1904 C1918 0.930 . S
H1905 C1920 0.960 . S
H1906 C1920 0.960 . S
H1907 C1920 0.960 . S
C1908 H1900 0.929 . S
C1908 C1909 1.377 . S
C1908 C1910 1.384 . S
C1909 C1908 1.377 . S
C1909 C1915 1.390 . S
C1910 H1901 0.930 . S
C1910 C1908 1.384 . S
C1910 C1911 1.372 . S
C1911 C1910 1.372 . S
C1911 C1912 1.400 . S
C1911 C1916 1.490 . S
C1912 H1902 0.930 . S
C1912 C1911 1.400 . S
C1912 C1915 1.386 . S
H1913 C1929 0.930 . S
H1914 C1930 0.931 . S
C1915 H1903 0.929 . S
C1915 C1909 1.390 . S
C1915 C1912 1.386 . S
C1916 C1911 1.490 . S
C1916 C1918 1.395 . S
C1916 C1919 1.403 . S
H1917 C1923 0.930 . S
C1918 H1904 0.930 . S
C1918 C1916 1.395 . S
C1918 C1921 1.403 . S
C1919 C1916 1.403 . S
C1919 C1920 1.524 . S
C1919 C1923 1.400 . S
C1920 H1905 0.960 . S
C1920 H1906 0.960 . S
C1920 H1907 0.960 . S
C1920 C1919 1.524 . S
C1921 C1918 1.403 . S
C1921 C1922 1.392 . S
C1921 C1925 1.495 . S
C1922 C1921 1.392 . S
C1922 C1923 1.385 . S
C1922 C1924 1.478 . S
C1923 H1917 0.930 . S
C1923 C1919 1.400 . S
C1923 C1922 1.385 . S
C1924 C1922 1.478 . S
C1924 C1926 1.381 . S
C1924 C1930 1.383 . S
C1925 C1921 1.495 . S
C1925 H1931 0.959 . S
C1925 H1932 0.961 . S
C1925 H1933 0.960 . S
C1926 C1924 1.381 . S
C1926 C1927 1.394 . S
C1926 H1934 0.930 . S
C1927 C1926 1.394 . S
C1927 C1928 1.383 . S
C1927 H1935 0.929 . S
C1928 C1927 1.383 . S
C1928 C1929 1.377 . S
C1929 H1913 0.930 . S
C1929 C1928 1.377 . S
C1929 C1930 1.379 . S
C1930 H1914 0.931 . S
C1930 C1924 1.383 . S
C1930 C1929 1.379 . S
H1931 C1925 0.959 . S
H1932 C1925 0.961 . S
H1933 C1925 0.960 . S
H1934 C1926 0.930 . S
H1935 C1927 0.929 . S
H1936 C1944 0.929 . S
H1937 C1946 0.930 . S
H1938 C1948 0.930 . S
H1939 C1951 0.929 . S
H1940 C1954 0.930 . S
H1941 C1956 0.960 . S
H1942 C1956 0.960 . S
H1943 C1956 0.960 . S
C1944 H1936 0.929 . S
C1944 C1945 1.377 . S
C1944 C1946 1.384 . S
C1945 C1944 1.377 . S
C1945 C1951 1.390 . S
C1946 H1937 0.930 . S
C1946 C1944 1.384 . S
C1946 C1947 1.372 . S
C1947 C1946 1.372 . S
C1947 C1948 1.400 . S
C1947 C1952 1.490 . S
C1948 H1938 0.930 . S
C1948 C1947 1.400 . S
C1948 C1951 1.386 . S
H1949 C1965 0.930 . S
H1950 C1966 0.931 . S
C1951 H1939 0.929 . S
C1951 C1945 1.390 . S
C1951 C1948 1.386 . S
C1952 C1947 1.490 . S
C1952 C1954 1.395 . S
C1952 C1955 1.403 . S
H1953 C1959 0.930 . S
C1954 H1940 0.930 . S
C1954 C1952 1.395 . S
C1954 C1957 1.403 . S
C1955 C1952 1.403 . S
C1955 C1956 1.524 . S
C1955 C1959 1.400 . S
C1956 H1941 0.960 . S
C1956 H1942 0.960 . S
C1956 H1943 0.960 . S
C1956 C1955 1.524 . S
C1957 C1954 1.403 . S
C1957 C1958 1.392 . S
C1957 C1961 1.495 . S
C1958 C1957 1.392 . S
C1958 C1959 1.385 . S
C1958 C1960 1.478 . S
C1959 H1953 0.930 . S
C1959 C1955 1.400 . S
C1959 C1958 1.385 . S
C1960 C1958 1.478 . S
C1960 C1962 1.381 . S
C1960 C1966 1.383 . S
C1961 C1957 1.495 . S
C1961 H1967 0.959 . S
C1961 H1968 0.961 . S
C1961 H1969 0.960 . S
C1962 C1960 1.381 . S
C1962 C1963 1.394 . S
C1962 H1970 0.930 . S
C1963 C1962 1.394 . S
C1963 C1964 1.383 . S
C1963 H1971 0.929 . S
C1964 C1963 1.383 . S
C1964 C1965 1.377 . S
C1965 H1949 0.930 . S
C1965 C1964 1.377 . S
C1965 C1966 1.379 . S
C1966 H1950 0.931 . S
C1966 C1960 1.383 . S
C1966 C1965 1.379 . S
H1967 C1961 0.959 . S
H1968 C1961 0.961 . S
H1969 C1961 0.960 . S
H1970 C1962 0.930 . S
H1971 C1963 0.929 . S
H1972 C1980 0.929 . S
H1973 C1982 0.930 . S
H1974 C1984 0.930 . S
H1975 C1987 0.929 . S
H1976 C1990 0.930 . S
H1977 C1992 0.960 . S
H1978 C1992 0.960 . S
H1979 C1992 0.960 . S
C1980 H1972 0.929 . S
C1980 C1981 1.377 . S
C1980 C1982 1.384 . S
C1981 C1980 1.377 . S
C1981 C1987 1.390 . S
C1982 H1973 0.930 . S
C1982 C1980 1.384 . S
C1982 C1983 1.372 . S
C1983 C1982 1.372 . S
C1983 C1984 1.400 . S
C1983 C1988 1.490 . S
C1984 H1974 0.930 . S
C1984 C1983 1.400 . S
C1984 C1987 1.386 . S
H1985 C2001 0.930 . S
H1986 C2002 0.931 . S
C1987 H1975 0.929 . S
C1987 C1981 1.390 . S
C1987 C1984 1.386 . S
C1988 C1983 1.490 . S
C1988 C1990 1.395 . S
C1988 C1991 1.403 . S
H1989 C1995 0.930 . S
C1990 H1976 0.930 . S
C1990 C1988 1.395 . S
C1990 C1993 1.403 . S
C1991 C1988 1.403 . S
C1991 C1992 1.524 . S
C1991 C1995 1.400 . S
C1992 H1977 0.960 . S
C1992 H1978 0.960 . S
C1992 H1979 0.960 . S
C1992 C1991 1.524 . S
C1993 C1990 1.403 . S
C1993 C1994 1.392 . S
C1993 C1997 1.495 . S
C1994 C1993 1.392 . S
C1994 C1995 1.385 . S
C1994 C1996 1.478 . S
C1995 H1989 0.930 . S
C1995 C1991 1.400 . S
C1995 C1994 1.385 . S
C1996 C1994 1.478 . S
C1996 C1998 1.381 . S
C1996 C2002 1.383 . S
C1997 C1993 1.495 . S
C1997 H2003 0.959 . S
C1997 H2004 0.961 . S
C1997 H2005 0.960 . S
C1998 C1996 1.381 . S
C1998 C1999 1.394 . S
C1998 H2006 0.930 . S
C1999 C1998 1.394 . S
C1999 C2000 1.383 . S
C1999 H2007 0.929 . S
C2000 C1999 1.383 . S
C2000 C2001 1.377 . S
C2001 H1985 0.930 . S
C2001 C2000 1.377 . S
C2001 C2002 1.379 . S
C2002 H1986 0.931 . S
C2002 C1996 1.383 . S
C2002 C2001 1.379 . S
H2003 C1997 0.959 . S
H2004 C1997 0.961 . S
H2005 C1997 0.960 . S
H2006 C1998 0.930 . S
H2007 C1999 0.929 . S
H2008 C2016 0.929 . S
H2009 C2018 0.930 . S
H2010 C2020 0.930 . S
H2011 C2023 0.929 . S
H2012 C2026 0.930 . S
H2013 C2028 0.960 . S
H2014 C2028 0.960 . S
H2015 C2028 0.960 . S
C2016 H2008 0.929 . S
C2016 C2017 1.377 . S
C2016 C2018 1.384 . S
C2017 C2016 1.377 . S
C2017 C2023 1.390 . S
C2018 H2009 0.930 . S
C2018 C2016 1.384 . S
C2018 C2019 1.372 . S
C2019 C2018 1.372 . S
C2019 C2020 1.400 . S
C2019 C2024 1.490 . S
C2020 H2010 0.930 . S
C2020 C2019 1.400 . S
C2020 C2023 1.386 . S
H2021 C2037 0.930 . S
H2022 C2038 0.931 . S
C2023 H2011 0.929 . S
C2023 C2017 1.390 . S
C2023 C2020 1.386 . S
C2024 C2019 1.490 . S
C2024 C2026 1.395 . S
C2024 C2027 1.403 . S
H2025 C2031 0.930 . S
C2026 H2012 0.930 . S
C2026 C2024 1.395 . S
C2026 C2029 1.403 . S
C2027 C2024 1.403 . S
C2027 C2028 1.524 . S
C2027 C2031 1.400 . S
C2028 H2013 0.960 . S
C2028 H2014 0.960 . S
C2028 H2015 0.960 . S
C2028 C2027 1.524 . S
C2029 C2026 1.403 . S
C2029 C2030 1.392 . S
C2029 C2033 1.495 . S
C2030 C2029 1.392 . S
C2030 C2031 1.385 . S
C2030 C2032 1.478 . S
C2031 H2025 0.930 . S
C2031 C2027 1.400 . S
C2031 C2030 1.385 . S
C2032 C2030 1.478 . S
C2032 C2034 1.381 . S
C2032 C2038 1.383 . S
C2033 C2029 1.495 . S
C2033 H2039 0.959 . S
C2033 H2040 0.961 . S
C2033 H2041 0.960 . S
C2034 C2032 1.381 . S
C2034 C2035 1.394 . S
C2034 H2042 0.930 . S
C2035 C2034 1.394 . S
C2035 C2036 1.383 . S
C2035 H2043 0.929 . S
C2036 C2035 1.383 . S
C2036 C2037 1.377 . S
C2037 H2021 0.930 . S
C2037 C2036 1.377 . S
C2037 C2038 1.379 . S
C2038 H2022 0.931 . S
C2038 C2032 1.383 . S
C2038 C2037 1.379 . S
H2039 C2033 0.959 . S
H2040 C2033 0.961 . S
H2041 C2033 0.960 . S
H2042 C2034 0.930 . S
H2043 C2035 0.929 . S
H2044 C2052 0.929 . S
H2045 C2054 0.930 . S
H2046 C2056 0.930 . S
H2047 C2059 0.929 . S
H2048 C2062 0.930 . S
H2049 C2064 0.960 . S
H2050 C2064 0.960 . S
H2051 C2064 0.960 . S
C2052 H2044 0.929 . S
C2052 C2053 1.377 . S
C2052 C2054 1.384 . S
C2053 C2052 1.377 . S
C2053 C2059 1.390 . S
C2054 H2045 0.930 . S
C2054 C2052 1.384 . S
C2054 C2055 1.372 . S
C2055 C2054 1.372 . S
C2055 C2056 1.400 . S
C2055 C2060 1.490 . S
C2056 H2046 0.930 . S
C2056 C2055 1.400 . S
C2056 C2059 1.386 . S
H2057 C2073 0.930 . S
H2058 C2074 0.931 . S
C2059 H2047 0.929 . S
C2059 C2053 1.390 . S
C2059 C2056 1.386 . S
C2060 C2055 1.490 . S
C2060 C2062 1.395 . S
C2060 C2063 1.403 . S
H2061 C2067 0.930 . S
C2062 H2048 0.930 . S
C2062 C2060 1.395 . S
C2062 C2065 1.403 . S
C2063 C2060 1.403 . S
C2063 C2064 1.524 . S
C2063 C2067 1.400 . S
C2064 H2049 0.960 . S
C2064 H2050 0.960 . S
C2064 H2051 0.960 . S
C2064 C2063 1.524 . S
C2065 C2062 1.403 . S
C2065 C2066 1.392 . S
C2065 C2069 1.495 . S
C2066 C2065 1.392 . S
C2066 C2067 1.385 . S
C2066 C2068 1.478 . S
C2067 H2061 0.930 . S
C2067 C2063 1.400 . S
C2067 C2066 1.385 . S
C2068 C2066 1.478 . S
C2068 C2070 1.381 . S
C2068 C2074 1.383 . S
C2069 C2065 1.495 . S
C2069 H2075 0.959 . S
C2069 H2076 0.961 . S
C2069 H2077 0.960 . S
C2070 C2068 1.381 . S
C2070 C2071 1.394 . S
C2070 H2078 0.930 . S
C2071 C2070 1.394 . S
C2071 C2072 1.383 . S
C2071 H2079 0.929 . S
C2072 C2071 1.383 . S
C2072 C2073 1.377 . S
C2073 H2057 0.930 . S
C2073 C2072 1.377 . S
C2073 C2074 1.379 . S
C2074 H2058 0.931 . S
C2074 C2068 1.383 . S
C2074 C2073 1.379 . S
H2075 C2069 0.959 . S
H2076 C2069 0.961 . S
H2077 C2069 0.960 . S
H2078 C2070 0.930 . S
H2079 C2071 0.929 . S
H2080 C2088 0.929 . S
H2081 C2090 0.930 . S
H2082 C2092 0.930 . S
H2083 C2095 0.929 . S
H2084 C2098 0.930 . S
H2085 C2100 0.960 . S
H2086 C2100 0.960 . S
H2087 C2100 0.960 . S
C2088 H2080 0.929 . S
C2088 C2089 1.377 . S
C2088 C2090 1.384 . S
C2089 C2088 1.377 . S
C2089 C2095 1.390 . S
C2090 H2081 0.930 . S
C2090 C2088 1.384 . S
C2090 C2091 1.372 . S
C2091 C2090 1.372 . S
C2091 C2092 1.400 . S
C2091 C2096 1.490 . S
C2092 H2082 0.930 . S
C2092 C2091 1.400 . S
C2092 C2095 1.386 . S
H2093 C2109 0.930 . S
H2094 C2110 0.931 . S
C2095 H2083 0.929 . S
C2095 C2089 1.390 . S
C2095 C2092 1.386 . S
C2096 C2091 1.490 . S
C2096 C2098 1.395 . S
C2096 C2099 1.403 . S
H2097 C2103 0.930 . S
C2098 H2084 0.930 . S
C2098 C2096 1.395 . S
C2098 C2101 1.403 . S
C2099 C2096 1.403 . S
C2099 C2100 1.524 . S
C2099 C2103 1.400 . S
C2100 H2085 0.960 . S
C2100 H2086 0.960 . S
C2100 H2087 0.960 . S
C2100 C2099 1.524 . S
C2101 C2098 1.403 . S
C2101 C2102 1.392 . S
C2101 C2105 1.495 . S
C2102 C2101 1.392 . S
C2102 C2103 1.385 . S
C2102 C2104 1.478 . S
C2103 H2097 0.930 . S
C2103 C2099 1.400 . S
C2103 C2102 1.385 . S
C2104 C2102 1.478 . S
C2104 C2106 1.381 . S
C2104 C2110 1.383 . S
C2105 C2101 1.495 . S
C2105 H2111 0.959 . S
C2105 H2112 0.961 . S
C2105 H2113 0.960 . S
C2106 C2104 1.381 . S
C2106 C2107 1.394 . S
C2106 H2114 0.930 . S
C2107 C2106 1.394 . S
C2107 C2108 1.383 . S
C2107 H2115 0.929 . S
C2108 C2107 1.383 . S
C2108 C2109 1.377 . S
C2109 H2093 0.930 . S
C2109 C2108 1.377 . S
C2109 C2110 1.379 . S
C2110 H2094 0.931 . S
C2110 C2104 1.383 . S
C2110 C2109 1.379 . S
H2111 C2105 0.959 . S
H2112 C2105 0.961 . S
H2113 C2105 0.960 . S
H2114 C2106 0.930 . S
H2115 C2107 0.929 . S
H2116 C2124 0.929 . S
H2117 C2126 0.930 . S
H2118 C2128 0.930 . S
H2119 C2131 0.929 . S
H2120 C2134 0.930 . S
H2121 C2136 0.960 . S
H2122 C2136 0.960 . S
H2123 C2136 0.960 . S
C2124 H2116 0.929 . S
C2124 C2125 1.377 . S
C2124 C2126 1.384 . S
C2125 C2124 1.377 . S
C2125 C2131 1.390 . S
C2126 H2117 0.930 . S
C2126 C2124 1.384 . S
C2126 C2127 1.372 . S
C2127 C2126 1.372 . S
C2127 C2128 1.400 . S
C2127 C2132 1.490 . S
C2128 H2118 0.930 . S
C2128 C2127 1.400 . S
C2128 C2131 1.386 . S
H2129 C2145 0.930 1_556 S
H2130 C2146 0.931 . S
C2131 H2119 0.929 . S
C2131 C2125 1.390 . S
C2131 C2128 1.386 . S
C2132 C2127 1.490 . S
C2132 C2134 1.395 . S
C2132 C2135 1.403 . S
H2133 C2139 0.930 . S
C2134 H2120 0.930 . S
C2134 C2132 1.395 . S
C2134 C2137 1.403 . S
C2135 C2132 1.403 . S
C2135 C2136 1.524 . S
C2135 C2139 1.400 . S
C2136 H2121 0.960 . S
C2136 H2122 0.960 . S
C2136 H2123 0.960 . S
C2136 C2135 1.524 . S
C2137 C2134 1.403 . S
C2137 C2138 1.392 . S
C2137 C2141 1.495 . S
C2138 C2137 1.392 . S
C2138 C2139 1.385 . S
C2138 C2140 1.478 . S
C2139 H2133 0.930 . S
C2139 C2135 1.400 . S
C2139 C2138 1.385 . S
C2140 C2138 1.478 . S
C2140 C2142 1.381 . S
C2140 C2146 1.383 . S
C2141 C2137 1.495 . S
C2141 H2147 0.959 . S
C2141 H2148 0.961 . S
C2141 H2149 0.960 . S
C2142 C2140 1.381 . S
C2142 C2143 1.394 . S
C2142 H2150 0.930 . S
C2143 C2142 1.394 . S
C2143 C2144 1.383 . S
C2143 H2151 0.929 . S
C2144 C2143 1.383 . S
C2144 C2145 1.377 . S
C2145 H2129 0.930 1_554 S
C2145 C2144 1.377 . S
C2145 C2146 1.379 . S
C2146 H2130 0.931 . S
C2146 C2140 1.383 . S
C2146 C2145 1.379 . S
H2147 C2141 0.959 . S
H2148 C2141 0.961 . S
H2149 C2141 0.960 . S
H2150 C2142 0.930 . S
H2151 C2143 0.929 . S
H2152 C2160 0.929 . S
H2153 C2162 0.930 . S
H2154 C2164 0.930 . S
H2155 C2167 0.929 . S
H2156 C2170 0.930 . S
H2157 C2172 0.960 . S
H2158 C2172 0.960 . S
H2159 C2172 0.960 . S
C2160 H2152 0.929 . S
C2160 C2161 1.377 . S
C2160 C2162 1.384 . S
C2161 C2160 1.377 . S
C2161 C2167 1.390 . S
C2162 H2153 0.930 . S
C2162 C2160 1.384 . S
C2162 C2163 1.372 . S
C2163 C2162 1.372 . S
C2163 C2164 1.400 . S
C2163 C2168 1.490 . S
C2164 H2154 0.930 . S
C2164 C2163 1.400 . S
C2164 C2167 1.386 . S
H2165 C2181 0.930 . S
H2166 C2182 0.931 . S
C2167 H2155 0.929 . S
C2167 C2161 1.390 . S
C2167 C2164 1.386 . S
C2168 C2163 1.490 . S
C2168 C2170 1.395 . S
C2168 C2171 1.403 . S
H2169 C2175 0.930 . S
C2170 H2156 0.930 . S
C2170 C2168 1.395 . S
C2170 C2173 1.403 . S
C2171 C2168 1.403 . S
C2171 C2172 1.524 . S
C2171 C2175 1.400 . S
C2172 H2157 0.960 . S
C2172 H2158 0.960 . S
C2172 H2159 0.960 . S
C2172 C2171 1.524 . S
C2173 C2170 1.403 . S
C2173 C2174 1.392 . S
C2173 C2177 1.495 . S
C2174 C2173 1.392 . S
C2174 C2175 1.385 . S
C2174 C2176 1.478 . S
C2175 H2169 0.930 . S
C2175 C2171 1.400 . S
C2175 C2174 1.385 . S
C2176 C2174 1.478 . S
C2176 C2178 1.381 . S
C2176 C2182 1.383 . S
C2177 C2173 1.495 . S
C2177 H2183 0.959 . S
C2177 H2184 0.961 . S
C2177 H2185 0.960 . S
C2178 C2176 1.381 . S
C2178 C2179 1.394 . S
C2178 H2186 0.930 . S
C2179 C2178 1.394 . S
C2179 C2180 1.383 . S
C2179 H2187 0.929 . S
C2180 C2179 1.383 . S
C2180 C2181 1.377 . S
C2181 H2165 0.930 . S
C2181 C2180 1.377 . S
C2181 C2182 1.379 . S
C2182 H2166 0.931 . S
C2182 C2176 1.383 . S
C2182 C2181 1.379 . S
H2183 C2177 0.959 . S
H2184 C2177 0.961 . S
H2185 C2177 0.960 . S
H2186 C2178 0.930 . S
H2187 C2179 0.929 . S
H2188 C2196 0.929 . S
H2189 C2198 0.930 . S
H2190 C2200 0.930 . S
H2191 C2203 0.929 . S
H2192 C2206 0.930 . S
H2193 C2208 0.960 . S
H2194 C2208 0.960 . S
H2195 C2208 0.960 . S
C2196 H2188 0.929 . S
C2196 C2197 1.377 . S
C2196 C2198 1.384 . S
C2197 C2196 1.377 . S
C2197 C2203 1.390 . S
C2198 H2189 0.930 . S
C2198 C2196 1.384 . S
C2198 C2199 1.372 . S
C2199 C2198 1.372 . S
C2199 C2200 1.400 . S
C2199 C2204 1.490 . S
C2200 H2190 0.930 . S
C2200 C2199 1.400 . S
C2200 C2203 1.386 . S
H2201 C2217 0.930 . S
H2202 C2218 0.931 . S
C2203 H2191 0.929 . S
C2203 C2197 1.390 . S
C2203 C2200 1.386 . S
C2204 C2199 1.490 . S
C2204 C2206 1.395 . S
C2204 C2207 1.403 . S
H2205 C2211 0.930 . S
C2206 H2192 0.930 . S
C2206 C2204 1.395 . S
C2206 C2209 1.403 . S
C2207 C2204 1.403 . S
C2207 C2208 1.524 . S
C2207 C2211 1.400 . S
C2208 H2193 0.960 . S
C2208 H2194 0.960 . S
C2208 H2195 0.960 . S
C2208 C2207 1.524 . S
C2209 C2206 1.403 . S
C2209 C2210 1.392 . S
C2209 C2213 1.495 . S
C2210 C2209 1.392 . S
C2210 C2211 1.385 . S
C2210 C2212 1.478 . S
C2211 H2205 0.930 . S
C2211 C2207 1.400 . S
C2211 C2210 1.385 . S
C2212 C2210 1.478 . S
C2212 C2214 1.381 . S
C2212 C2218 1.383 . S
C2213 C2209 1.495 . S
C2213 H2219 0.959 . S
C2213 H2220 0.961 . S
C2213 H2221 0.960 . S
C2214 C2212 1.381 . S
C2214 C2215 1.394 . S
C2214 H2222 0.930 . S
C2215 C2214 1.394 . S
C2215 C2216 1.383 . S
C2215 H2223 0.929 . S
C2216 C2215 1.383 . S
C2216 C2217 1.377 . S
C2217 H2201 0.930 . S
C2217 C2216 1.377 . S
C2217 C2218 1.379 . S
C2218 H2202 0.931 . S
C2218 C2212 1.383 . S
C2218 C2217 1.379 . S
H2219 C2213 0.959 . S
H2220 C2213 0.961 . S
H2221 C2213 0.960 . S
H2222 C2214 0.930 . S
H2223 C2215 0.929 . S
H2224 C2232 0.929 . S
H2225 C2234 0.930 . S
H2226 C2236 0.930 . S
H2227 C2239 0.929 . S
H2228 C2242 0.930 . S
H2229 C2244 0.960 . S
H2230 C2244 0.960 . S
H2231 C2244 0.960 . S
C2232 H2224 0.929 . S
C2232 C2233 1.377 . S
C2232 C2234 1.384 . S
C2233 C2232 1.377 . S
C2233 C2239 1.390 . S
C2234 H2225 0.930 . S
C2234 C2232 1.384 . S
C2234 C2235 1.372 . S
C2235 C2234 1.372 . S
C2235 C2236 1.400 . S
C2235 C2240 1.490 . S
C2236 H2226 0.930 . S
C2236 C2235 1.400 . S
C2236 C2239 1.386 . S
H2237 C2253 0.930 . S
H2238 C2254 0.931 . S
C2239 H2227 0.929 . S
C2239 C2233 1.390 . S
C2239 C2236 1.386 . S
C2240 C2235 1.490 . S
C2240 C2242 1.395 . S
C2240 C2243 1.403 . S
H2241 C2247 0.930 . S
C2242 H2228 0.930 . S
C2242 C2240 1.395 . S
C2242 C2245 1.403 . S
C2243 C2240 1.403 . S
C2243 C2244 1.524 . S
C2243 C2247 1.400 . S
C2244 H2229 0.960 . S
C2244 H2230 0.960 . S
C2244 H2231 0.960 . S
C2244 C2243 1.524 . S
C2245 C2242 1.403 . S
C2245 C2246 1.392 . S
C2245 C2249 1.495 . S
C2246 C2245 1.392 . S
C2246 C2247 1.385 . S
C2246 C2248 1.478 . S
C2247 H2241 0.930 . S
C2247 C2243 1.400 . S
C2247 C2246 1.385 . S
C2248 C2246 1.478 . S
C2248 C2250 1.381 . S
C2248 C2254 1.383 . S
C2249 C2245 1.495 . S
C2249 H2255 0.959 . S
C2249 H2256 0.961 . S
C2249 H2257 0.960 . S
C2250 C2248 1.381 . S
C2250 C2251 1.394 . S
C2250 H2258 0.930 . S
C2251 C2250 1.394 . S
C2251 C2252 1.383 . S
C2251 H2259 0.929 . S
C2252 C2251 1.383 . S
C2252 C2253 1.377 . S
C2253 H2237 0.930 . S
C2253 C2252 1.377 . S
C2253 C2254 1.379 . S
C2254 H2238 0.931 . S
C2254 C2248 1.383 . S
C2254 C2253 1.379 . S
H2255 C2249 0.959 . S
H2256 C2249 0.961 . S
H2257 C2249 0.960 . S
H2258 C2250 0.930 . S
H2259 C2251 0.929 . S
H2260 C2268 0.929 . S
H2261 C2270 0.930 . S
H2262 C2272 0.930 . S
H2263 C2275 0.929 . S
H2264 C2278 0.930 . S
H2265 C2280 0.960 . S
H2266 C2280 0.960 . S
H2267 C2280 0.960 . S
C2268 H2260 0.929 . S
C2268 C2269 1.377 . S
C2268 C2270 1.384 . S
C2269 C2268 1.377 . S
C2269 C2275 1.390 . S
C2270 H2261 0.930 . S
C2270 C2268 1.384 . S
C2270 C2271 1.372 . S
C2271 C2270 1.372 . S
C2271 C2272 1.400 . S
C2271 C2276 1.490 . S
C2272 H2262 0.930 . S
C2272 C2271 1.400 . S
C2272 C2275 1.386 . S
H2273 C2289 0.930 . S
H2274 C2290 0.931 . S
C2275 H2263 0.929 . S
C2275 C2269 1.390 . S
C2275 C2272 1.386 . S
C2276 C2271 1.490 . S
C2276 C2278 1.395 . S
C2276 C2279 1.403 . S
H2277 C2283 0.930 . S
C2278 H2264 0.930 . S
C2278 C2276 1.395 . S
C2278 C2281 1.403 . S
C2279 C2276 1.403 . S
C2279 C2280 1.524 . S
C2279 C2283 1.400 . S
C2280 H2265 0.960 . S
C2280 H2266 0.960 . S
C2280 H2267 0.960 . S
C2280 C2279 1.524 . S
C2281 C2278 1.403 . S
C2281 C2282 1.392 . S
C2281 C2285 1.495 . S
C2282 C2281 1.392 . S
C2282 C2283 1.385 . S
C2282 C2284 1.478 . S
C2283 H2277 0.930 . S
C2283 C2279 1.400 . S
C2283 C2282 1.385 . S
C2284 C2282 1.478 . S
C2284 C2286 1.381 . S
C2284 C2290 1.383 . S
C2285 C2281 1.495 . S
C2285 H2291 0.959 . S
C2285 H2292 0.961 . S
C2285 H2293 0.960 . S
C2286 C2284 1.381 . S
C2286 C2287 1.394 . S
C2286 H2294 0.930 . S
C2287 C2286 1.394 . S
C2287 C2288 1.383 . S
C2287 H2295 0.929 . S
C2288 C2287 1.383 . S
C2288 C2289 1.377 . S
C2289 H2273 0.930 . S
C2289 C2288 1.377 . S
C2289 C2290 1.379 . S
C2290 H2274 0.931 . S
C2290 C2284 1.383 . S
C2290 C2289 1.379 . S
H2291 C2285 0.959 . S
H2292 C2285 0.961 . S
H2293 C2285 0.960 . S
H2294 C2286 0.930 . S
H2295 C2287 0.929 . S
H2296 C2304 0.929 . S
H2297 C2306 0.930 . S
H2298 C2308 0.930 . S
H2299 C2311 0.929 . S
H2300 C2314 0.930 . S
H2301 C2316 0.960 . S
H2302 C2316 0.960 . S
H2303 C2316 0.960 . S
C2304 H2296 0.929 . S
C2304 C2305 1.377 . S
C2304 C2306 1.384 . S
C2305 C2304 1.377 . S
C2305 C2311 1.390 . S
C2306 H2297 0.930 . S
C2306 C2304 1.384 . S
C2306 C2307 1.372 . S
C2307 C2306 1.372 . S
C2307 C2308 1.400 . S
C2307 C2312 1.490 . S
C2308 H2298 0.930 . S
C2308 C2307 1.400 . S
C2308 C2311 1.386 . S
H2309 C2325 0.930 . S
H2310 C2326 0.931 . S
C2311 H2299 0.929 . S
C2311 C2305 1.390 . S
C2311 C2308 1.386 . S
C2312 C2307 1.490 . S
C2312 C2314 1.395 . S
C2312 C2315 1.403 . S
H2313 C2319 0.930 . S
C2314 H2300 0.930 . S
C2314 C2312 1.395 . S
C2314 C2317 1.403 . S
C2315 C2312 1.403 . S
C2315 C2316 1.524 . S
C2315 C2319 1.400 . S
C2316 H2301 0.960 . S
C2316 H2302 0.960 . S
C2316 H2303 0.960 . S
C2316 C2315 1.524 . S
C2317 C2314 1.403 . S
C2317 C2318 1.392 . S
C2317 C2321 1.495 . S
C2318 C2317 1.392 . S
C2318 C2319 1.385 . S
C2318 C2320 1.478 . S
C2319 H2313 0.930 . S
C2319 C2315 1.400 . S
C2319 C2318 1.385 . S
C2320 C2318 1.478 . S
C2320 C2322 1.381 . S
C2320 C2326 1.383 . S
C2321 C2317 1.495 . S
C2321 H2327 0.959 . S
C2321 H2328 0.961 . S
C2321 H2329 0.960 . S
C2322 C2320 1.381 . S
C2322 C2323 1.394 . S
C2322 H2330 0.930 . S
C2323 C2322 1.394 . S
C2323 C2324 1.383 . S
C2323 H2331 0.929 . S
C2324 C2323 1.383 . S
C2324 C2325 1.377 . S
C2325 H2309 0.930 . S
C2325 C2324 1.377 . S
C2325 C2326 1.379 . S
C2326 H2310 0.931 . S
C2326 C2320 1.383 . S
C2326 C2325 1.379 . S
H2327 C2321 0.959 . S
H2328 C2321 0.961 . S
H2329 C2321 0.960 . S
H2330 C2322 0.930 . S
H2331 C2323 0.929 . S
H2332 C2340 0.929 . S
H2333 C2342 0.930 . S
H2334 C2344 0.930 . S
H2335 C2347 0.929 . S
H2336 C2350 0.930 . S
H2337 C2352 0.960 . S
H2338 C2352 0.960 . S
H2339 C2352 0.960 . S
C2340 H2332 0.929 . S
C2340 C2341 1.377 . S
C2340 C2342 1.384 . S
C2341 C2340 1.377 . S
C2341 C2347 1.390 . S
C2342 H2333 0.930 . S
C2342 C2340 1.384 . S
C2342 C2343 1.372 . S
C2343 C2342 1.372 . S
C2343 C2344 1.400 . S
C2343 C2348 1.490 . S
C2344 H2334 0.930 . S
C2344 C2343 1.400 . S
C2344 C2347 1.386 . S
H2345 C2361 0.930 . S
H2346 C2362 0.931 . S
C2347 H2335 0.929 . S
C2347 C2341 1.390 . S
C2347 C2344 1.386 . S
C2348 C2343 1.490 . S
C2348 C2350 1.395 . S
C2348 C2351 1.403 . S
H2349 C2355 0.930 . S
C2350 H2336 0.930 . S
C2350 C2348 1.395 . S
C2350 C2353 1.403 . S
C2351 C2348 1.403 . S
C2351 C2352 1.524 . S
C2351 C2355 1.400 . S
C2352 H2337 0.960 . S
C2352 H2338 0.960 . S
C2352 H2339 0.960 . S
C2352 C2351 1.524 . S
C2353 C2350 1.403 . S
C2353 C2354 1.392 . S
C2353 C2357 1.495 . S
C2354 C2353 1.392 . S
C2354 C2355 1.385 . S
C2354 C2356 1.478 . S
C2355 H2349 0.930 . S
C2355 C2351 1.400 . S
C2355 C2354 1.385 . S
C2356 C2354 1.478 . S
C2356 C2358 1.381 . S
C2356 C2362 1.383 . S
C2357 C2353 1.495 . S
C2357 H2363 0.959 . S
C2357 H2364 0.961 . S
C2357 H2365 0.960 . S
C2358 C2356 1.381 . S
C2358 C2359 1.394 . S
C2358 H2366 0.930 . S
C2359 C2358 1.394 . S
C2359 C2360 1.383 . S
C2359 H2367 0.929 . S
C2360 C2359 1.383 . S
C2360 C2361 1.377 . S
C2361 H2345 0.930 . S
C2361 C2360 1.377 . S
C2361 C2362 1.379 . S
C2362 H2346 0.931 . S
C2362 C2356 1.383 . S
C2362 C2361 1.379 . S
H2363 C2357 0.959 . S
H2364 C2357 0.961 . S
H2365 C2357 0.960 . S
H2366 C2358 0.930 . S
H2367 C2359 0.929 . S
C649 C26 1.801 . S
C668 C306 1.823 . S
C685 C66 1.804 . S
C704 C186 1.798 . S
C721 C226 1.802 . S
C740 C106 1.815 . S
C757 C146 1.800 . S
C776 C266 1.823 . S
C793 C453 4.086 . S
C812 C173 4.085 1_554 S
C829 C333 4.083 . S
C848 C13 4.078 1_556 S
C865 C413 4.083 . S
C884 C253 4.074 . S
C901 C93 4.086 . S
C920 C373 4.078 . S
C937 C386 1.800 . S
C956 C506 1.816 . S
C973 C426 1.804 . S
C992 C586 1.805 . S
C1009 C546 1.800 . S
C1028 C346 1.824 . S
C1045 C466 1.801 . S
C1064 C626 1.812 . S
C1081 C573 4.083 . S
C1100 C133 4.078 . S
C1117 C493 4.084 . S
C1136 C213 4.086 . S
C1153 C53 4.084 . S
C1172 C613 4.086 1_554 S
C1189 C293 4.084 . S
C1208 C533 4.071 1_556 S
C1225 C522 0.417 . S
C1244 C2 0.506 . S
C1261 C442 0.427 . S
C1280 C42 0.467 . S
C1297 C482 0.388 . S
C1316 C82 0.429 . S
C1333 C402 0.404 . S
C1352 C122 0.314 . S
C1369 C162 0.417 . S
C1388 C602 0.362 . S
C1405 C362 0.388 . S
C1424 C202 0.430 . S
C1441 C242 0.390 . S
C1460 C562 0.443 . S
C1477 C282 0.391 . S
C1496 C322 0.453 . S
C1513 C23 1.094 . S
C1532 C183 1.066 . S
C1549 C63 1.087 . S
C1568 C223 1.068 . S
C1585 C263 1.086 . S
C1604 C103 1.108 . S
C1621 C143 1.083 . S
C1640 C303 1.111 . S
C1657 C423 1.090 . S
C1676 C343 1.057 . S
C1693 C463 1.085 . S
C1712 C383 1.079 . S
C1729 C503 1.088 . S
C1748 C583 1.075 . S
C1765 C623 1.094 . S
C1784 C543 1.067 . S
C1801 C24 4.465 . S
C1820 C304 4.464 . S
C1837 C64 4.465 . S
C1856 C184 4.465 . S
C1873 C224 4.465 1_556 S
C1892 C104 4.465 . S
C1909 C264 4.466 . S
C1928 C144 4.463 1_554 S
C1945 C457 0.887 . S
C1964 C177 0.898 . S
C1981 C337 0.896 . S
C2000 C17 0.848 . S
C2017 C417 0.893 . S
C2036 C257 0.865 . S
C2053 C97 0.884 . S
C2072 C377 0.910 . S
C2089 C504 4.466 . S
C2108 C384 4.461 1_556 S
C2125 C584 4.466 . S
C2144 C424 4.456 1_554 S
C2161 C544 4.466 . S
C2180 C344 4.455 . S
C2197 C624 4.466 . S
C2216 C464 4.460 . S
C2233 C577 0.893 . S
C2252 C137 0.857 . S
C2269 C217 0.875 . S
C2288 C497 0.943 . S
C2305 C57 0.887 . S
C2324 C617 0.896 . S
C2341 C537 0.895 . S
C2360 C297 0.849 . S
