# Generated by pormake.
# Topology unv, (4)-cn, num edge types: 1
# Building blocks:
#     Node 0, Type 0, BuildingBlock: ICAMEG_clean_sbu_1, # of connection points: 4
#     Node 1, Type 0, BuildingBlock: ICAMEG_clean_sbu_1, # of connection points: 4
#     Node 2, Type 0, BuildingBlock: ICAMEG_clean_sbu_1, # of connection points: 4
#     Node 3, Type 0, BuildingBlock: ICAMEG_clean_sbu_1, # of connection points: 4
#     Node 4, Type 0, BuildingBlock: ICAMEG_clean_sbu_1, # of connection points: 4
#     Node 5, Type 0, BuildingBlock: ICAMEG_clean_sbu_1, # of connection points: 4
#     Node 6, Type 0, BuildingBlock: ICAMEG_clean_sbu_1, # of connection points: 4
#     Node 7, Type 0, BuildingBlock: ICAMEG_clean_sbu_1, # of connection points: 4
#     Node 8, Type 0, BuildingBlock: ICAMEG_clean_sbu_1, # of connection points: 4
#     Node 9, Type 0, BuildingBlock: ICAMEG_clean_sbu_1, # of connection points: 4
#     Node 10, Type 0, BuildingBlock: ICAMEG_clean_sbu_1, # of connection points: 4
#     Node 11, Type 0, BuildingBlock: ICAMEG_clean_sbu_1, # of connection points: 4
#     Node 12, Type 0, BuildingBlock: ICAMEG_clean_sbu_1, # of connection points: 4
#     Node 13, Type 0, BuildingBlock: ICAMEG_clean_sbu_1, # of connection points: 4
#     Node 14, Type 0, BuildingBlock: ICAMEG_clean_sbu_1, # of connection points: 4
#     Node 15, Type 0, BuildingBlock: ICAMEG_clean_sbu_1, # of connection points: 4
#     Node 16, Type 0, BuildingBlock: ICAMEG_clean_sbu_1, # of connection points: 4
#     Node 17, Type 0, BuildingBlock: ICAMEG_clean_sbu_1, # of connection points: 4
#     Node 18, Type 0, BuildingBlock: ICAMEG_clean_sbu_1, # of connection points: 4
#     Node 19, Type 0, BuildingBlock: ICAMEG_clean_sbu_1, # of connection points: 4
#     Node 20, Type 0, BuildingBlock: ICAMEG_clean_sbu_1, # of connection points: 4
#     Node 21, Type 0, BuildingBlock: ICAMEG_clean_sbu_1, # of connection points: 4
#     Node 22, Type 0, BuildingBlock: ICAMEG_clean_sbu_1, # of connection points: 4
#     Node 23, Type 0, BuildingBlock: ICAMEG_clean_sbu_1, # of connection points: 4
#     Edge 24, Type (0, 0), BuildingBlock: AJUNOK_clean_linker_0, # of connection points: 2
#     Edge 25, Type (0, 0), BuildingBlock: AJUNOK_clean_linker_0, # of connection points: 2
#     Edge 26, Type (0, 0), BuildingBlock: AJUNOK_clean_linker_0, # of connection points: 2
#     Edge 27, Type (0, 0), BuildingBlock: AJUNOK_clean_linker_0, # of connection points: 2
#     Edge 28, Type (0, 0), BuildingBlock: AJUNOK_clean_linker_0, # of connection points: 2
#     Edge 29, Type (0, 0), BuildingBlock: AJUNOK_clean_linker_0, # of connection points: 2
#     Edge 30, Type (0, 0), BuildingBlock: AJUNOK_clean_linker_0, # of connection points: 2
#     Edge 31, Type (0, 0), BuildingBlock: AJUNOK_clean_linker_0, # of connection points: 2
#     Edge 32, Type (0, 0), BuildingBlock: AJUNOK_clean_linker_0, # of connection points: 2
#     Edge 33, Type (0, 0), BuildingBlock: AJUNOK_clean_linker_0, # of connection points: 2
#     Edge 34, Type (0, 0), BuildingBlock: AJUNOK_clean_linker_0, # of connection points: 2
#     Edge 35, Type (0, 0), BuildingBlock: AJUNOK_clean_linker_0, # of connection points: 2
#     Edge 36, Type (0, 0), BuildingBlock: AJUNOK_clean_linker_0, # of connection points: 2
#     Edge 37, Type (0, 0), BuildingBlock: AJUNOK_clean_linker_0, # of connection points: 2
#     Edge 38, Type (0, 0), BuildingBlock: AJUNOK_clean_linker_0, # of connection points: 2
#     Edge 39, Type (0, 0), BuildingBlock: AJUNOK_clean_linker_0, # of connection points: 2
#     Edge 40, Type (0, 0), BuildingBlock: AJUNOK_clean_linker_0, # of connection points: 2
#     Edge 41, Type (0, 0), BuildingBlock: AJUNOK_clean_linker_0, # of connection points: 2
#     Edge 42, Type (0, 0), BuildingBlock: AJUNOK_clean_linker_0, # of connection points: 2
#     Edge 43, Type (0, 0), BuildingBlock: AJUNOK_clean_linker_0, # of connection points: 2
#     Edge 44, Type (0, 0), BuildingBlock: AJUNOK_clean_linker_0, # of connection points: 2
#     Edge 45, Type (0, 0), BuildingBlock: AJUNOK_clean_linker_0, # of connection points: 2
#     Edge 46, Type (0, 0), BuildingBlock: AJUNOK_clean_linker_0, # of connection points: 2
#     Edge 47, Type (0, 0), BuildingBlock: AJUNOK_clean_linker_0, # of connection points: 2
#     Edge 48, Type (0, 0), BuildingBlock: AJUNOK_clean_linker_0, # of connection points: 2
#     Edge 49, Type (0, 0), BuildingBlock: AJUNOK_clean_linker_0, # of connection points: 2
#     Edge 50, Type (0, 0), BuildingBlock: AJUNOK_clean_linker_0, # of connection points: 2
#     Edge 51, Type (0, 0), BuildingBlock: AJUNOK_clean_linker_0, # of connection points: 2
#     Edge 52, Type (0, 0), BuildingBlock: AJUNOK_clean_linker_0, # of connection points: 2
#     Edge 53, Type (0, 0), BuildingBlock: AJUNOK_clean_linker_0, # of connection points: 2
#     Edge 54, Type (0, 0), BuildingBlock: AJUNOK_clean_linker_0, # of connection points: 2
#     Edge 55, Type (0, 0), BuildingBlock: AJUNOK_clean_linker_0, # of connection points: 2
#     Edge 56, Type (0, 0), BuildingBlock: AJUNOK_clean_linker_0, # of connection points: 2
#     Edge 57, Type (0, 0), BuildingBlock: AJUNOK_clean_linker_0, # of connection points: 2
#     Edge 58, Type (0, 0), BuildingBlock: AJUNOK_clean_linker_0, # of connection points: 2
#     Edge 59, Type (0, 0), BuildingBlock: AJUNOK_clean_linker_0, # of connection points: 2
#     Edge 60, Type (0, 0), BuildingBlock: AJUNOK_clean_linker_0, # of connection points: 2
#     Edge 61, Type (0, 0), BuildingBlock: AJUNOK_clean_linker_0, # of connection points: 2
#     Edge 62, Type (0, 0), BuildingBlock: AJUNOK_clean_linker_0, # of connection points: 2
#     Edge 63, Type (0, 0), BuildingBlock: AJUNOK_clean_linker_0, # of connection points: 2
#     Edge 64, Type (0, 0), BuildingBlock: AJUNOK_clean_linker_0, # of connection points: 2
#     Edge 65, Type (0, 0), BuildingBlock: AJUNOK_clean_linker_0, # of connection points: 2
#     Edge 66, Type (0, 0), BuildingBlock: AJUNOK_clean_linker_0, # of connection points: 2
#     Edge 67, Type (0, 0), BuildingBlock: AJUNOK_clean_linker_0, # of connection points: 2
#     Edge 68, Type (0, 0), BuildingBlock: AJUNOK_clean_linker_0, # of connection points: 2
#     Edge 69, Type (0, 0), BuildingBlock: AJUNOK_clean_linker_0, # of connection points: 2
#     Edge 70, Type (0, 0), BuildingBlock: AJUNOK_clean_linker_0, # of connection points: 2
#     Edge 71, Type (0, 0), BuildingBlock: AJUNOK_clean_linker_0, # of connection points: 2
# Relax obj value: 0.182
# Max RMSD: 0.148
# Mean RMSD: 0.128
data_MOF--net-unv--node1-ICAMEG_clean_sbu_1--edge1-AJUNOK_clean_linker_0
_symmetry_space_group_name_H-M    P1
_symmetry_Int_Tables_number       1
_symmetry_cell_setting            triclinic
loop_
_symmetry_equiv_pos_as_xyz
'x, y, z'
_cell_length_a     39.706453
_cell_length_b     39.703793
_cell_length_c     39.7064
_cell_angle_alpha  89.968105
_cell_angle_beta   89.990078
_cell_angle_gamma 89.997701
loop_
_atom_site_label
_atom_site_type_symbol
_atom_site_fract_x
_atom_site_fract_y
_atom_site_fract_z
_atom_type_partial_charge
Co0 Co 0.98912 0.05647 0.37122 0.0
Co1 Co 0.95028 0.11666 0.42158 0.0
O2 O 0.96509 0.09934 0.37742 0.0
C3 C 0.94588 0.02031 0.3225 0.0
O4 O 0.94026 0.99842 0.34663 0.0
C5 C 0.98128 0.17636 0.38525 0.0
O6 O 0.98906 0.15789 0.35906 0.0
O7 O 0.99523 0.1076 0.44177 0.0
O8 O 0.01619 0.06406 0.41272 0.0
H9 H 0.93903 0.11283 0.5476 0.0
H10 H 0.98669 0.10342 0.31317 0.0
O11 O 0.96247 0.04718 0.32891 0.0
H12 H 0.10734 0.08943 0.33899 0.0
H13 H 0.04951 0.96683 0.30445 0.0
H14 H 0.00799 1.00019 0.41663 0.0
H15 H 0.06427 0.05993 0.3726 0.0
H16 H 0.02079 0.02126 0.31251 0.0
O17 O 0.96602 0.16375 0.41054 0.0
H18 H 0.95602 0.09171 0.49177 0.0
H19 H 0.91434 0.17848 0.44503 0.0
H20 H 0.03681 0.94565 0.40971 0.0
H21 H 0.02897 0.13284 0.27843 0.0
H22 H 0.0577 0.92858 0.3533 0.0
H23 H 0.0898 0.12603 0.29136 0.0
O24 O 0.95499 0.0328 0.39884 0.0
H25 H 0.86949 0.159 0.33327 0.0
H26 H 0.87995 0.10324 0.44369 0.0
H27 H 0.82358 0.11347 0.41992 0.0
H28 H 0.81804 0.14175 0.36439 0.0
H29 H 0.92527 0.14787 0.35771 0.0
H30 H 0.89709 0.20068 0.50044 0.0
H31 H 0.90933 0.16771 0.5522 0.0
O32 O 0.93463 0.07071 0.43532 0.0
C33 C 0.01716 0.0846 0.43731 0.0
C34 C 0.9334 0.12737 0.52522 0.0
C35 C 0.90992 0.17669 0.49875 0.0
N36 N 0.93587 0.13366 0.46512 0.0
C37 C 0.94286 0.11548 0.49351 0.0
C38 C 0.9198 0.16402 0.46745 0.0
C39 C 0.91679 0.15818 0.52779 0.0
C40 C 0.01312 0.10004 0.31871 0.0
N41 N 0.02295 0.0799 0.34481 0.0
C42 C 0.03694 0.11691 0.29907 0.0
C43 C 0.07106 0.11312 0.30637 0.0
C44 C 0.08091 0.09263 0.33312 0.0
C45 C 0.05638 0.07615 0.3522 0.0
C46 C 0.04053 0.97398 0.32917 0.0
C47 C 0.01713 0.99305 0.39201 0.0
C48 C 0.02421 0.00477 0.33389 0.0
N49 N 0.01269 0.01396 0.36502 0.0
C50 C 0.03339 0.96209 0.38825 0.0
C51 C 0.04511 0.95253 0.35658 0.0
C52 C 0.93711 0.04067 0.42427 0.0
C53 C 0.87156 0.14688 0.3576 0.0
C54 C 0.87783 0.11549 0.41949 0.0
C55 C 0.8458 0.12126 0.40618 0.0
C56 C 0.84271 0.13713 0.37504 0.0
N57 N 0.90606 0.12547 0.40245 0.0
C58 C 0.90319 0.14069 0.37172 0.0
Co59 Co 0.00409 0.43192 0.36131 0.0
Co60 Co 0.05112 0.37776 0.41108 0.0
O61 O 0.03161 0.39151 0.36765 0.0
C62 C 0.05321 0.45688 0.3092 0.0
O63 O 0.07555 0.46408 0.33244 0.0
C64 C 0.00956 0.31967 0.38999 0.0
O65 O 0.98673 0.34141 0.38009 0.0
O66 O 0.00793 0.38576 0.43547 0.0
O67 O 0.98062 0.42434 0.40475 0.0
H68 H 0.0754 0.38882 0.53478 0.0
H69 H 0.00687 0.3812 0.30667 0.0
O70 O 0.02629 0.44109 0.31679 0.0
H71 H 0.88712 0.38829 0.33883 0.0
H72 H 0.93501 0.51442 0.29394 0.0
H73 H 0.98298 0.48836 0.40551 0.0
H74 H 0.92957 0.42367 0.36718 0.0
H75 H 0.96777 0.46243 0.30283 0.0
O76 O 0.03712 0.32984 0.40286 0.0
H77 H 0.05165 0.40627 0.48012 0.0
H78 H 0.09206 0.31888 0.43352 0.0
H79 H 0.95006 0.54043 0.39781 0.0
H80 H 0.96517 0.34578 0.27725 0.0
H81 H 0.92588 0.5538 0.34168 0.0
H82 H 0.90484 0.34906 0.29345 0.0
O83 O 0.03783 0.4598 0.38539 0.0
H84 H 0.12373 0.33176 0.31825 0.0
H85 H 0.12247 0.39761 0.42352 0.0
H86 H 0.17625 0.3886 0.39373 0.0
H87 H 0.1771 0.35537 0.34075 0.0
H88 H 0.07046 0.34163 0.34872 0.0
H89 H 0.11607 0.30036 0.48776 0.0
H90 H 0.10786 0.33548 0.53886 0.0
O91 O 0.06529 0.42517 0.42071 0.0
C92 C 0.98353 0.40612 0.43094 0.0
C93 C 0.07928 0.37337 0.51267 0.0
C94 C 0.10204 0.32368 0.48629 0.0
N95 N 0.07071 0.36377 0.4536 0.0
C96 C 0.066 0.38318 0.48161 0.0
C97 C 0.08835 0.33428 0.45566 0.0
C98 C 0.09744 0.34341 0.51495 0.0
C99 C 0.9806 0.38306 0.31356 0.0
N100 N 0.97065 0.4046 0.33848 0.0
C101 C 0.95713 0.36284 0.29693 0.0
C102 C 0.92329 0.36466 0.30606 0.0
C103 C 0.91334 0.38663 0.33155 0.0
C104 C 0.9375 0.40652 0.3476 0.0
C105 C 0.94536 0.50884 0.31854 0.0
C106 C 0.97231 0.49382 0.38106 0.0
C107 C 0.964 0.47945 0.32372 0.0
N108 N 0.97712 0.4722 0.35472 0.0
C109 C 0.95378 0.52343 0.37684 0.0
C110 C 0.94025 0.53093 0.34533 0.0
C111 C 0.05911 0.45441 0.40884 0.0
C112 C 0.12369 0.3462 0.34136 0.0
C113 C 0.12263 0.38324 0.4004 0.0
C114 C 0.15316 0.37815 0.3837 0.0
C115 C 0.15362 0.35949 0.35398 0.0
N116 N 0.09341 0.37 0.38793 0.0
C117 C 0.09363 0.35178 0.35876 0.0
Co118 Co 1.00025 0.93414 0.14063 0.0
Co119 Co 0.94185 0.88064 0.10402 0.0
O120 O 0.96908 0.89622 0.14222 0.0
C121 C 0.9513 0.95599 0.19293 0.0
O122 O 0.92663 0.94222 0.17581 0.0
C123 C 0.98641 0.82257 0.11931 0.0
O124 O 0.01108 0.84436 0.12212 0.0
O125 O 0.9799 0.88682 0.07131 0.0
O126 O 0.01955 0.9174 0.09786 0.0
H127 H 0.89227 0.88488 0.98751 0.0
H128 H 0.99656 0.89267 0.20243 0.0
O129 O 0.98174 0.95292 0.18342 0.0
H130 H 0.11364 0.88171 0.16241 0.0
H131 H 0.08082 0.01879 0.18991 0.0
H132 H 0.02285 0.98075 0.08689 0.0
H133 H 0.07305 0.91755 0.13192 0.0
H134 H 0.04332 0.96927 0.19128 0.0
O135 O 0.95672 0.83295 0.11278 0.0
H136 H 0.92662 0.90519 0.03501 0.0
H137 H 0.89763 0.82086 0.09381 0.0
H138 H 0.06 0.03037 0.08448 0.0
H139 H 0.03642 0.85681 0.23393 0.0
H140 H 0.08939 0.04971 0.13616 0.0
H141 H 0.09539 0.85106 0.21382 0.0
O142 O 0.96726 0.96169 0.11506 0.0
H143 H 0.88735 0.84192 0.21151 0.0
H144 H 0.86983 0.90165 0.104 0.0
H145 H 0.82254 0.89602 0.14392 0.0
H146 H 0.83115 0.86593 0.19809 0.0
H147 H 0.934 0.84835 0.17097 0.0
H148 H 0.86303 0.79938 0.04696 0.0
H149 H 0.86012 0.8315 0.99333 0.0
O150 O 0.92696 0.92786 0.0941 0.0
C151 C 0.00868 0.90121 0.07252 0.0
C152 C 0.89333 0.87061 0.01072 0.0
C153 C 0.87697 0.82263 0.04407 0.0
N154 N 0.9143 0.86429 0.06708 0.0
C155 C 0.91279 0.88205 0.03768 0.0
C156 C 0.89672 0.83487 0.07048 0.0
C157 C 0.87532 0.84067 0.014 0.0
C158 C 0.02229 0.89054 0.19378 0.0
N159 N 0.03254 0.90729 0.16553 0.0
C160 C 0.0447 0.87011 0.21161 0.0
C161 C 0.07777 0.86686 0.20029 0.0
C162 C 0.08803 0.88404 0.17144 0.0
C163 C 0.06492 0.90425 0.15425 0.0
C164 C 0.06832 0.01052 0.16715 0.0
C165 C 0.03574 0.98882 0.10948 0.0
C166 C 0.04708 0.98248 0.16776 0.0
N167 N 0.03117 0.97193 0.13912 0.0
C168 C 0.05671 0.017 0.10795 0.0
C169 C 0.07311 0.02787 0.137 0.0
C170 C 0.93998 0.9569 0.09877 0.0
C171 C 0.88326 0.85501 0.18794 0.0
C172 C 0.87378 0.88859 0.12756 0.0
C173 C 0.8469 0.88542 0.15003 0.0
C174 C 0.85175 0.86852 0.18042 0.0
N175 N 0.90458 0.87518 0.13509 0.0
C176 C 0.90954 0.85862 0.16484 0.0
Co177 Co 0.98919 0.56599 0.14192 0.0
Co178 Co 0.0484 0.61646 0.1025 0.0
O179 O 0.02273 0.60206 0.14223 0.0
C180 C 0.03967 0.53977 0.19061 0.0
O181 O 0.06403 0.55254 0.17228 0.0
C182 C 0.0088 0.67713 0.12048 0.0
O183 O 0.98295 0.65693 0.12449 0.0
O184 O 0.00808 0.61361 0.07237 0.0
O185 O 0.96868 0.58451 0.1004 0.0
H186 H 0.08771 0.60972 0.98238 0.0
H187 H 0.99898 0.60589 0.20403 0.0
O188 O 0.00893 0.54527 0.18332 0.0
H189 H 0.88066 0.62469 0.17124 0.0
H190 H 0.90557 0.4865 0.19473 0.0
H191 H 0.9602 0.52198 0.08897 0.0
H192 H 0.91726 0.58743 0.13758 0.0
H193 H 0.94698 0.5328 0.19458 0.0
O194 O 0.03741 0.66498 0.11234 0.0
H195 H 0.05554 0.59173 0.03236 0.0
H196 H 0.09659 0.67252 0.08915 0.0
H197 H 0.91873 0.47578 0.08795 0.0
H198 H 0.96318 0.64313 0.23862 0.0
H199 H 0.89114 0.4577 0.14111 0.0
H200 H 0.90359 0.65277 0.2222 0.0
O201 O 0.0188 0.53658 0.11422 0.0
H202 H 0.11225 0.65077 0.20616 0.0
H203 H 0.11877 0.5907 0.09767 0.0
H204 H 0.16884 0.59302 0.13437 0.0
H205 H 0.16578 0.6233 0.18902 0.0
H206 H 0.0627 0.64756 0.16882 0.0
H207 H 0.12897 0.69161 0.03967 0.0
H208 H 0.12472 0.66005 0.98583 0.0
O209 O 0.05954 0.56858 0.09158 0.0
C210 C 0.97872 0.60075 0.07466 0.0
C211 C 0.08985 0.62364 0.00572 0.0
C212 C 0.11295 0.66963 0.03786 0.0
N213 N 0.0743 0.63096 0.06369 0.0
C214 C 0.07178 0.6135 0.03415 0.0
C215 C 0.09448 0.65876 0.06576 0.0
C216 C 0.11057 0.6519 0.00766 0.0
C217 C 0.97299 0.60979 0.19692 0.0
N218 N 0.96016 0.59441 0.16896 0.0
C219 C 0.95288 0.63097 0.21651 0.0
C220 C 0.91946 0.6364 0.20726 0.0
C221 C 0.90658 0.62066 0.17866 0.0
C222 C 0.92744 0.59966 0.15966 0.0
C223 C 0.91732 0.49423 0.17138 0.0
C224 C 0.94807 0.51449 0.11217 0.0
C225 C 0.9408 0.52043 0.17114 0.0
N226 N 0.95577 0.53031 0.14174 0.0
C227 C 0.9247 0.48822 0.11145 0.0
C228 C 0.90926 0.47807 0.14129 0.0
C229 C 0.04536 0.54014 0.09653 0.0
C230 C 0.11392 0.63758 0.18237 0.0
C231 C 0.11721 0.60381 0.12147 0.0
C232 C 0.14567 0.60511 0.1421 0.0
C233 C 0.14394 0.62212 0.17275 0.0
N234 N 0.08791 0.61912 0.13104 0.0
C235 C 0.08599 0.63578 0.16108 0.0
Co236 Co 0.36215 0.98669 0.06814 0.0
Co237 Co 0.41617 0.94087 0.11889 0.0
O238 O 0.37165 0.95867 0.10738 0.0
C239 C 0.31264 0.93393 0.04554 0.0
O240 O 0.33707 0.91311 0.0377 0.0
C241 C 0.39786 0.9824 0.17766 0.0
O242 O 0.38977 0.0059 0.15588 0.0
O243 O 0.43858 0.98506 0.10997 0.0
O244 O 0.40444 0.01277 0.07461 0.0
H245 H 0.54009 0.92122 0.10231 0.0
H246 H 0.31121 0.97859 0.122 0.0
O247 O 0.31893 0.96177 0.06025 0.0
H248 H 0.33326 0.10065 0.11594 0.0
H249 H 0.28694 0.05298 0.99032 0.0
H250 H 0.40245 0.01203 0.01049 0.0
H251 H 0.3619 0.06141 0.07731 0.0
H252 H 0.30016 0.01957 0.04098 0.0
O253 O 0.4089 0.95414 0.16715 0.0
H254 H 0.48395 0.94328 0.08754 0.0
H255 H 0.44258 0.90047 0.17644 0.0
H256 H 0.39041 0.04568 0.95971 0.0
H257 H 0.2816 0.01693 0.16087 0.0
H258 H 0.33229 0.06636 0.94932 0.0
H259 H 0.29273 0.07843 0.15813 0.0
O260 O 0.38717 0.95522 0.0384 0.0
H261 H 0.32845 0.86411 0.16826 0.0
H262 H 0.4306 0.87027 0.09785 0.0
H263 H 0.40349 0.81524 0.10766 0.0
H264 H 0.35209 0.81191 0.14319 0.0
H265 H 0.3562 0.91868 0.15755 0.0
H266 H 0.49836 0.87813 0.19232 0.0
H267 H 0.54757 0.88837 0.15505 0.0
O268 O 0.42424 0.92752 0.07103 0.0
C269 C 0.43187 0.01012 0.09098 0.0
C270 C 0.51882 0.91647 0.11869 0.0
C271 C 0.4954 0.89233 0.16924 0.0
N272 N 0.45997 0.9229 0.13095 0.0
C273 C 0.48694 0.9288 0.11041 0.0
C274 C 0.4639 0.90509 0.16015 0.0
C275 C 0.523 0.89808 0.14831 0.0
C276 C 0.31596 0.00535 0.12045 0.0
N277 N 0.33834 0.01775 0.09742 0.0
C278 C 0.2992 0.02693 0.1426 0.0
C279 C 0.30548 0.06142 0.14107 0.0
C280 C 0.32824 0.0739 0.11744 0.0
C281 C 0.34453 0.05155 0.09571 0.0
C282 C 0.3124 0.04421 0.99463 0.0
C283 C 0.37715 0.02118 0.00632 0.0
C284 C 0.32003 0.02524 0.02326 0.0
N285 N 0.35214 0.01413 0.0289 0.0
C286 C 0.37047 0.04013 0.97745 0.0
C287 C 0.33785 0.0517 0.97162 0.0
C288 C 0.41126 0.93432 0.04241 0.0
C289 C 0.35088 0.86523 0.15281 0.0
C290 C 0.40815 0.86905 0.11321 0.0
C291 C 0.39296 0.8378 0.11875 0.0
C292 C 0.36414 0.83595 0.1387 0.0
N293 N 0.39508 0.89762 0.12726 0.0
C294 C 0.36675 0.89603 0.14674 0.0
Co295 Co 0.63163 0.52096 0.0624 0.0
Co296 Co 0.58395 0.56824 0.11814 0.0
O297 O 0.62672 0.54927 0.10222 0.0
C298 C 0.67849 0.56366 0.02239 0.0
O299 O 0.65349 0.56933 0.00165 0.0
C300 C 0.6056 0.52369 0.17356 0.0
O301 O 0.61114 0.50079 0.1504 0.0
O302 O 0.55921 0.5253 0.10998 0.0
O303 O 0.59057 0.49488 0.07427 0.0
H304 H 0.45969 0.592 0.1142 0.0
H305 H 0.68957 0.52914 0.1087 0.0
O306 O 0.67358 0.54662 0.0493 0.0
H307 H 0.6654 0.40731 0.10752 0.0
H308 H 0.69644 0.45221 0.97762 0.0
H309 H 0.58462 0.49517 0.01039 0.0
H310 H 0.63172 0.44655 0.07308 0.0
H311 H 0.68969 0.48698 0.02861 0.0
O312 O 0.59491 0.55278 0.16509 0.0
H313 H 0.51341 0.56878 0.09347 0.0
H314 H 0.56449 0.60766 0.17898 0.0
H315 H 0.5901 0.4598 0.9597 0.0
H316 H 0.72411 0.49075 0.1433 0.0
H317 H 0.64635 0.43829 0.94282 0.0
H318 H 0.71204 0.42937 0.14288 0.0
O319 O 0.60286 0.55207 0.03612 0.0
H320 H 0.67797 0.6402 0.16278 0.0
H321 H 0.57051 0.63996 0.1005 0.0
H322 H 0.60019 0.69371 0.11002 0.0
H323 H 0.65425 0.69405 0.14149 0.0
H324 H 0.64764 0.58699 0.15236 0.0
H325 H 0.51124 0.63106 0.20084 0.0
H326 H 0.45837 0.6234 0.1683 0.0
O327 O 0.57188 0.58348 0.07147 0.0
C328 C 0.56416 0.49921 0.09196 0.0
C329 C 0.48258 0.59568 0.12854 0.0
C330 C 0.51151 0.61754 0.17718 0.0
N331 N 0.54212 0.58724 0.13477 0.0
C332 C 0.51311 0.58272 0.11684 0.0
C333 C 0.54158 0.60421 0.1647 0.0
C334 C 0.48185 0.61324 0.15891 0.0
C335 C 0.68439 0.50242 0.10816 0.0
N336 N 0.65886 0.49007 0.08869 0.0
C337 C 0.70393 0.48083 0.1279 0.0
C338 C 0.69712 0.44639 0.12769 0.0
C339 C 0.67094 0.434 0.10786 0.0
C340 C 0.65192 0.45635 0.08847 0.0
C341 C 0.6718 0.46149 0.98466 0.0
C342 C 0.60916 0.48569 0.00341 0.0
C343 C 0.66784 0.48128 0.01345 0.0
N344 N 0.63679 0.49307 0.02254 0.0
C345 C 0.61212 0.46579 0.97457 0.0
C346 C 0.64369 0.45369 0.96515 0.0
C347 C 0.58073 0.57461 0.04186 0.0
C348 C 0.6544 0.64038 0.14908 0.0
C349 C 0.59415 0.63989 0.11401 0.0
C350 C 0.61077 0.67041 0.11942 0.0
C351 C 0.64109 0.67059 0.1371 0.0
N352 N 0.60729 0.6104 0.12597 0.0
C353 C 0.63707 0.61035 0.14319 0.0
Co354 Co 0.36783 0.99408 0.43433 0.0
Co355 Co 0.41222 0.04787 0.38195 0.0
O356 O 0.37109 0.02449 0.39585 0.0
C357 C 0.31691 0.04305 0.46175 0.0
O358 O 0.33985 0.0667 0.4643 0.0
C359 C 0.39647 0.00547 0.32266 0.0
O360 O 0.39295 0.98004 0.34351 0.0
O361 O 0.4408 0.00679 0.38875 0.0
O362 O 0.41089 0.97201 0.42179 0.0
H363 H 0.53308 0.08414 0.392 0.0
H364 H 0.31213 0.00122 0.38532 0.0
O365 O 0.32401 0.01488 0.44812 0.0
H366 H 0.34022 0.88025 0.38535 0.0
H367 H 0.3073 0.91769 0.51579 0.0
H368 H 0.41646 0.96815 0.48478 0.0
H369 H 0.37007 0.91969 0.42282 0.0
H370 H 0.31175 0.9555 0.46672 0.0
O371 O 0.40393 0.03456 0.33393 0.0
H372 H 0.4815 0.05418 0.40927 0.0
H373 H 0.4296 0.09216 0.32378 0.0
H374 H 0.41322 0.93003 0.53368 0.0
H375 H 0.2812 0.96267 0.3477 0.0
H376 H 0.35833 0.90454 0.54952 0.0
H377 H 0.29531 0.90172 0.34744 0.0
O378 O 0.39333 0.02605 0.46354 0.0
H379 H 0.31222 0.1127 0.33934 0.0
H380 H 0.41863 0.11975 0.4029 0.0
H381 H 0.38392 0.17075 0.39571 0.0
H382 H 0.33033 0.16743 0.3636 0.0
H383 H 0.34754 0.06224 0.34753 0.0
H384 H 0.48074 0.12226 0.30538 0.0
H385 H 0.53291 0.11849 0.33969 0.0
O386 O 0.4214 0.06142 0.42939 0.0
C387 C 0.43732 0.97934 0.40518 0.0
C388 C 0.51049 0.08603 0.37686 0.0
C389 C 0.48112 0.10741 0.32824 0.0
N390 N 0.4525 0.07159 0.36768 0.0
C391 C 0.48118 0.06918 0.38655 0.0
C392 C 0.45226 0.09023 0.33873 0.0
C393 C 0.51038 0.10529 0.34751 0.0
C394 C 0.3184 0.97472 0.38536 0.0
N395 N 0.3433 0.96277 0.40591 0.0
C396 C 0.30081 0.95302 0.364 0.0
C397 C 0.30875 0.91884 0.36384 0.0
C398 C 0.33398 0.90679 0.38506 0.0
C399 C 0.35105 0.92926 0.40603 0.0
C400 C 0.33137 0.9286 0.50911 0.0
C401 C 0.39252 0.95697 0.49131 0.0
C402 C 0.33403 0.95015 0.48142 0.0
N403 N 0.36438 0.96388 0.4727 0.0
C404 C 0.39083 0.93549 0.51913 0.0
C405 C 0.36001 0.92122 0.52802 0.0
C406 C 0.41336 0.05077 0.45861 0.0
C407 C 0.33554 0.11448 0.35335 0.0
C408 C 0.39524 0.11805 0.38915 0.0
C409 C 0.37574 0.14704 0.38503 0.0
C410 C 0.3457 0.14517 0.36699 0.0
N411 N 0.38516 0.08807 0.37562 0.0
C412 C 0.35569 0.08601 0.35799 0.0
Co413 Co 0.63736 0.48778 0.42604 0.0
Co414 Co 0.59198 0.43891 0.36976 0.0
O415 O 0.6338 0.45986 0.38577 0.0
C416 C 0.68708 0.44319 0.4616 0.0
O417 O 0.66231 0.42714 0.47639 0.0
C418 C 0.61041 0.48566 0.31522 0.0
O419 O 0.6162 0.50765 0.33916 0.0
O420 O 0.56488 0.48029 0.37874 0.0
O421 O 0.59486 0.5115 0.41487 0.0
H422 H 0.46927 0.40824 0.37436 0.0
H423 H 0.69504 0.48373 0.37883 0.0
O424 O 0.68096 0.46488 0.43859 0.0
H425 H 0.66372 0.60387 0.38226 0.0
H426 H 0.69899 0.55804 0.51187 0.0
H427 H 0.58931 0.51014 0.47875 0.0
H428 H 0.63309 0.56224 0.41675 0.0
H429 H 0.69373 0.52411 0.46017 0.0
O430 O 0.60143 0.45578 0.32294 0.0
H431 H 0.52173 0.43433 0.39487 0.0
H432 H 0.57429 0.39913 0.30864 0.0
H433 H 0.59332 0.5444 0.53034 0.0
H434 H 0.72665 0.52458 0.34426 0.0
H435 H 0.64848 0.56851 0.54731 0.0
H436 H 0.71092 0.58512 0.34574 0.0
O437 O 0.6106 0.4548 0.45218 0.0
H438 H 0.68979 0.37315 0.32371 0.0
H439 H 0.58283 0.36629 0.38649 0.0
H440 H 0.61566 0.31454 0.37631 0.0
H441 H 0.6695 0.31777 0.34461 0.0
H442 H 0.6563 0.42433 0.33474 0.0
H443 H 0.5223 0.37284 0.28702 0.0
H444 H 0.46933 0.37719 0.32005 0.0
O445 O 0.58127 0.42239 0.41626 0.0
C446 C 0.56863 0.50622 0.39724 0.0
C447 C 0.49222 0.406 0.35981 0.0
C448 C 0.52198 0.38618 0.31078 0.0
N449 N 0.55114 0.41784 0.35321 0.0
C450 C 0.52204 0.4206 0.37137 0.0
C451 C 0.55132 0.40113 0.32313 0.0
C452 C 0.49227 0.38863 0.32933 0.0
C453 C 0.68833 0.51009 0.3799 0.0
N454 N 0.66247 0.52063 0.4 0.0
C455 C 0.70621 0.53308 0.36016 0.0
C456 C 0.69734 0.56704 0.36097 0.0
C457 C 0.67086 0.57757 0.38145 0.0
C458 C 0.65357 0.55388 0.40088 0.0
C459 C 0.6748 0.54769 0.50475 0.0
C460 C 0.61337 0.52075 0.48579 0.0
C461 C 0.67169 0.52836 0.47553 0.0
N462 N 0.64122 0.51525 0.46632 0.0
C463 C 0.6155 0.54004 0.51512 0.0
C464 C 0.64646 0.55355 0.52462 0.0
C465 C 0.5897 0.4312 0.44602 0.0
C466 C 0.66633 0.37141 0.33749 0.0
C467 C 0.60633 0.36792 0.37284 0.0
C468 C 0.62475 0.33852 0.36706 0.0
C469 C 0.65495 0.34035 0.34925 0.0
N470 N 0.6176 0.39826 0.3611 0.0
C471 C 0.64723 0.40028 0.34372 0.0
Co472 Co 0.05831 0.36295 0.97989 0.0
Co473 Co 0.11676 0.41601 0.94161 0.0
O474 O 0.10065 0.37112 0.95556 0.0
C475 C 0.02202 0.31581 0.93481 0.0
O476 O 0.99978 0.33987 0.93054 0.0
C477 C 0.17663 0.38181 0.97442 0.0
O478 O 0.15865 0.35521 0.98198 0.0
O479 O 0.10607 0.4356 0.98651 0.0
O480 O 0.06585 0.40311 0.00912 0.0
H481 H 0.10899 0.54194 0.93132 0.0
H482 H 0.10632 0.30621 0.9731 0.0
O483 O 0.04912 0.32195 0.95114 0.0
H484 H 0.09354 0.32358 0.09535 0.0
H485 H 0.97103 0.29151 0.03846 0.0
H486 H 0.00158 0.40627 0.002 0.0
H487 H 0.06282 0.3593 0.05498 0.0
H488 H 0.02461 0.30201 0.00898 0.0
O489 O 0.16381 0.40644 0.95827 0.0
H490 H 0.08943 0.48527 0.94751 0.0
H491 H 0.17846 0.44185 0.90712 0.0
H492 H 0.9479 0.3969 0.03177 0.0
H493 H 0.13688 0.26924 0.01256 0.0
H494 H 0.93224 0.33921 0.05012 0.0
H495 H 0.13073 0.27793 0.07421 0.0
O496 O 0.0336 0.39207 0.94768 0.0
H497 H 0.16428 0.33008 0.86126 0.0
H498 H 0.1038 0.43803 0.87115 0.0
H499 H 0.1161 0.41503 0.81487 0.0
H500 H 0.14674 0.36074 0.80963 0.0
H501 H 0.15111 0.35376 0.91696 0.0
H502 H 0.19914 0.49812 0.89075 0.0
H503 H 0.16424 0.54864 0.90272 0.0
O504 O 0.07073 0.42814 0.92509 0.0
C505 C 0.08467 0.4291 0.00955 0.0
C506 C 0.12437 0.52011 0.92582 0.0
C507 C 0.17498 0.49551 0.90309 0.0
N508 N 0.13258 0.46023 0.9279 0.0
C509 C 0.11337 0.48793 0.93482 0.0
C510 C 0.16315 0.46372 0.91246 0.0
C511 C 0.15538 0.52385 0.90981 0.0
C512 C 0.1032 0.30989 0.99988 0.0
N513 N 0.08277 0.33492 0.01168 0.0
C514 C 0.12073 0.28901 0.02211 0.0
C515 C 0.11731 0.29393 0.05668 0.0
C516 C 0.09651 0.31958 0.06856 0.0
C517 C 0.07936 0.33994 0.04556 0.0
C518 C 0.97756 0.31679 0.03062 0.0
C519 C 0.99504 0.38108 0.01002 0.0
C520 C 0.00788 0.3229 0.01387 0.0
N521 N 0.01633 0.35476 0.00381 0.0
C522 C 0.96457 0.37594 0.02682 0.0
C523 C 0.95581 0.34356 0.03713 0.0
C524 C 0.04085 0.41701 0.92881 0.0
C525 C 0.15111 0.35387 0.86321 0.0
C526 C 0.11708 0.41437 0.86915 0.0
C527 C 0.12402 0.40149 0.83717 0.0
C528 C 0.14121 0.37105 0.83425 0.0
N529 N 0.12719 0.39757 0.89748 0.0
C530 C 0.14375 0.36754 0.89477 0.0
Co531 Co 0.06755 0.63941 0.50218 0.0
Co532 Co 0.12051 0.59568 0.55589 0.0
O533 O 0.10583 0.63689 0.5329 0.0
C534 C 0.0464 0.6879 0.55541 0.0
O535 O 0.05833 0.66796 0.57893 0.0
C536 C 0.17841 0.61357 0.51258 0.0
O537 O 0.15658 0.61831 0.48822 0.0
O538 O 0.11355 0.56723 0.5148 0.0
O539 O 0.08226 0.59766 0.479 0.0
H540 H 0.11316 0.47421 0.5908 0.0
H541 H 0.11287 0.69769 0.51134 0.0
O542 O 0.05069 0.6812 0.52437 0.0
H543 H 0.11728 0.67193 0.38996 0.0
H544 H 0.98405 0.6982 0.42675 0.0
H545 H 0.01935 0.58933 0.475 0.0
H546 H 0.0809 0.63903 0.42805 0.0
H547 H 0.03321 0.69492 0.46458 0.0
O548 O 0.16824 0.60461 0.54169 0.0
H549 H 0.09449 0.52588 0.56179 0.0
H550 H 0.17935 0.57896 0.59943 0.0
H551 H 0.97042 0.5914 0.43687 0.0
H552 H 0.14936 0.73163 0.47417 0.0
H553 H 0.95237 0.64615 0.41255 0.0
H554 H 0.15184 0.7187 0.41302 0.0
O555 O 0.03928 0.61246 0.53346 0.0
H556 H 0.16246 0.69591 0.62072 0.0
H557 H 0.09991 0.58882 0.62778 0.0
H558 H 0.10684 0.62358 0.6788 0.0
H559 H 0.13836 0.67752 0.67545 0.0
H560 H 0.15469 0.66052 0.57027 0.0
H561 H 0.19913 0.52778 0.62862 0.0
H562 H 0.16586 0.47496 0.62451 0.0
O563 O 0.07327 0.58589 0.57024 0.0
C564 C 0.09831 0.57102 0.48675 0.0
C565 C 0.12781 0.4971 0.5929 0.0
C566 C 0.17609 0.52716 0.61408 0.0
N567 N 0.13563 0.55547 0.57917 0.0
C568 C 0.1173 0.52647 0.57663 0.0
C569 C 0.1648 0.55604 0.59744 0.0
C570 C 0.1574 0.49753 0.61177 0.0
C571 C 0.11377 0.692 0.48473 0.0
N572 N 0.09503 0.66617 0.47189 0.0
C573 C 0.13449 0.71127 0.46382 0.0
C574 C 0.13589 0.70398 0.42952 0.0
C575 C 0.11656 0.67771 0.41658 0.0
C576 C 0.09616 0.65898 0.43828 0.0
C577 C 0.99171 0.67418 0.43712 0.0
C578 C 0.01189 0.61321 0.46426 0.0
C579 C 0.01949 0.67218 0.45861 0.0
N580 N 0.02937 0.64191 0.47173 0.0
C581 C 0.98406 0.61424 0.44279 0.0
C582 C 0.97394 0.64497 0.42917 0.0
C583 C 0.04417 0.59359 0.55902 0.0
C584 C 0.14875 0.67241 0.62252 0.0
C585 C 0.11358 0.61231 0.62612 0.0
C586 C 0.11749 0.63184 0.6551 0.0
C587 C 0.13519 0.6621 0.65321 0.0
N588 N 0.12704 0.62256 0.59613 0.0
C589 C 0.14438 0.65221 0.59406 0.0
Co590 Co 0.93591 0.85871 0.52353 0.0
Co591 Co 0.88368 0.90102 0.57899 0.0
O592 O 0.89828 0.86046 0.55488 0.0
C593 C 0.96264 0.80574 0.57045 0.0
O594 O 0.96352 0.82727 0.5955 0.0
C595 C 0.82612 0.88242 0.53651 0.0
O596 O 0.84863 0.87903 0.5126 0.0
O597 O 0.8882 0.93036 0.53823 0.0
O598 O 0.92294 0.90258 0.50359 0.0
H599 H 0.88996 0.02161 0.61694 0.0
H600 H 0.8887 0.80116 0.52804 0.0
O601 O 0.95023 0.81415 0.54209 0.0
H602 H 0.88257 0.83945 0.41003 0.0
H603 H 0.01579 0.80194 0.44287 0.0
H604 H 0.98596 0.9085 0.49922 0.0
H605 H 0.92096 0.86709 0.45025 0.0
H606 H 0.96739 0.80458 0.48172 0.0
O607 O 0.83564 0.89106 0.56598 0.0
H608 H 0.90884 0.97104 0.58625 0.0
H609 H 0.82554 0.91564 0.62405 0.0
H610 H 0.03398 0.90714 0.45999 0.0
H611 H 0.8502 0.77252 0.48857 0.0
H612 H 0.04938 0.85355 0.43165 0.0
H613 H 0.84683 0.7918 0.42915 0.0
O614 O 0.96524 0.88263 0.55624 0.0
H615 H 0.84614 0.79911 0.64406 0.0
H616 H 0.90709 0.90717 0.64999 0.0
H617 H 0.9027 0.87168 0.70083 0.0
H618 H 0.87196 0.81725 0.69805 0.0
H619 H 0.85139 0.83526 0.59377 0.0
H620 H 0.80553 0.9657 0.65494 0.0
H621 H 0.83789 0.01914 0.65157 0.0
O622 O 0.93151 0.91179 0.59144 0.0
C623 C 0.90501 0.92806 0.51097 0.0
C624 C 0.8757 0.99844 0.61873 0.0
C625 C 0.82828 0.96708 0.63998 0.0
N626 N 0.86847 0.94038 0.60356 0.0
C627 C 0.88636 0.96969 0.60152 0.0
C628 C 0.83968 0.93885 0.62238 0.0
C629 C 0.84646 0.99705 0.6381 0.0
C630 C 0.88761 0.80945 0.50213 0.0
N631 N 0.90707 0.83576 0.49146 0.0
C632 C 0.86568 0.79322 0.47993 0.0
C633 C 0.86378 0.80407 0.4466 0.0
C634 C 0.8838 0.83083 0.43587 0.0
C635 C 0.90542 0.84647 0.45878 0.0
C636 C 0.00935 0.82546 0.45506 0.0
C637 C 0.99223 0.88514 0.48674 0.0
C638 C 0.98202 0.82709 0.47717 0.0
N639 N 0.97367 0.85674 0.49255 0.0
C640 C 0.01958 0.88449 0.46466 0.0
C641 C 0.02818 0.85442 0.44876 0.0
C642 C 0.96059 0.90288 0.5808 0.0
C643 C 0.85952 0.82281 0.6456 0.0
C644 C 0.89378 0.88346 0.64857 0.0
C645 C 0.89131 0.86351 0.67745 0.0
C646 C 0.87405 0.83299 0.67588 0.0
N647 N 0.87936 0.87335 0.61901 0.0
C648 C 0.86248 0.84343 0.61724 0.0
Co649 Co 0.43312 0.63869 0.48927 0.0
Co650 Co 0.3782 0.59457 0.43782 0.0
O651 O 0.39436 0.63612 0.45907 0.0
C652 C 0.47907 0.6832 0.45086 0.0
O653 O 0.49973 0.6575 0.44923 0.0
C654 C 0.32206 0.61463 0.48241 0.0
O655 O 0.34499 0.62123 0.50525 0.0
O656 O 0.386 0.56738 0.47953 0.0
O657 O 0.41747 0.59847 0.51463 0.0
H658 H 0.38322 0.47212 0.40623 0.0
H659 H 0.39012 0.6986 0.47819 0.0
O660 O 0.45 0.6796 0.46428 0.0
H661 H 0.38452 0.67647 0.60027 0.0
H662 H 0.5179 0.69803 0.5629 0.0
H663 H 0.48081 0.5886 0.51744 0.0
H664 H 0.4196 0.64105 0.56328 0.0
H665 H 0.46851 0.69457 0.52542 0.0
O666 O 0.33104 0.60448 0.4533 0.0
H667 H 0.40327 0.52433 0.43318 0.0
H668 H 0.31762 0.57721 0.39697 0.0
H669 H 0.5301 0.59086 0.5551 0.0
H670 H 0.35507 0.73506 0.51427 0.0
H671 H 0.549 0.64588 0.57807 0.0
H672 H 0.35197 0.72396 0.57576 0.0
O673 O 0.45952 0.60847 0.45934 0.0
H674 H 0.3347 0.69287 0.37101 0.0
H675 H 0.39603 0.58502 0.3655 0.0
H676 H 0.38709 0.61779 0.31348 0.0
H677 H 0.3561 0.67209 0.31603 0.0
H678 H 0.34451 0.65942 0.42247 0.0
H679 H 0.29643 0.52545 0.3699 0.0
H680 H 0.32941 0.47246 0.37432 0.0
O681 O 0.42479 0.58358 0.42239 0.0
C682 C 0.40118 0.57178 0.50752 0.0
C683 C 0.36867 0.49507 0.40403 0.0
C684 C 0.31995 0.525 0.38368 0.0
N685 N 0.36181 0.55386 0.41637 0.0
C686 C 0.37995 0.52474 0.41915 0.0
C687 C 0.33203 0.55421 0.39911 0.0
C688 C 0.33847 0.49528 0.38615 0.0
C689 C 0.38912 0.69379 0.50496 0.0
N690 N 0.40686 0.66765 0.51862 0.0
C691 C 0.36914 0.71445 0.52525 0.0
C692 C 0.36738 0.70819 0.55974 0.0
C693 C 0.3856 0.68153 0.5735 0.0
C694 C 0.4053 0.66141 0.55243 0.0
C695 C 0.5099 0.6739 0.55307 0.0
C696 C 0.48876 0.61264 0.52744 0.0
C697 C 0.48199 0.6718 0.53178 0.0
N698 N 0.47171 0.64142 0.51928 0.0
C699 C 0.51674 0.61375 0.54872 0.0
C700 C 0.52734 0.64464 0.56158 0.0
C701 C 0.45412 0.58928 0.43417 0.0
C702 C 0.34818 0.66922 0.36957 0.0
C703 C 0.38273 0.60872 0.36684 0.0
C704 C 0.37763 0.62712 0.33729 0.0
C705 C 0.36022 0.65756 0.33873 0.0
N706 N 0.37071 0.62026 0.39696 0.0
C707 C 0.35373 0.65014 0.3986 0.0
Co708 Co 0.49318 0.56802 0.85476 0.0
Co709 Co 0.43432 0.62098 0.89123 0.0
O710 O 0.46117 0.60521 0.85277 0.0
C711 C 0.44723 0.54275 0.80114 0.0
O712 O 0.42092 0.5522 0.8188 0.0
C713 C 0.47664 0.67929 0.87371 0.0
O714 O 0.50157 0.65768 0.8719 0.0
O715 O 0.47325 0.61828 0.92324 0.0
O716 O 0.51058 0.58418 0.89843 0.0
H717 H 0.39031 0.61893 0.0099 0.0
H718 H 0.49052 0.61071 0.79378 0.0
O719 O 0.47693 0.54976 0.81093 0.0
H720 H 0.6062 0.62299 0.83726 0.0
H721 H 0.57895 0.48728 0.80754 0.0
H722 H 0.51467 0.52074 0.90839 0.0
H723 H 0.56544 0.5859 0.86593 0.0
H724 H 0.5395 0.53523 0.80532 0.0
O725 O 0.44702 0.66886 0.88053 0.0
H726 H 0.4242 0.59884 0.96191 0.0
H727 H 0.38667 0.67818 0.90075 0.0
H728 H 0.55361 0.47252 0.91161 0.0
H729 H 0.53059 0.64785 0.76407 0.0
H730 H 0.58627 0.4556 0.86102 0.0
H731 H 0.58886 0.65425 0.78591 0.0
O732 O 0.45991 0.53932 0.87871 0.0
H733 H 0.37557 0.65338 0.78393 0.0
H734 H 0.36334 0.59668 0.89379 0.0
H735 H 0.31499 0.59858 0.85483 0.0
H736 H 0.32095 0.62713 0.79946 0.0
H737 H 0.42335 0.65063 0.82356 0.0
H738 H 0.35257 0.69936 0.94818 0.0
H739 H 0.35416 0.66957 0.0032 0.0
O740 O 0.42185 0.5735 0.903 0.0
C741 C 0.5012 0.6025 0.92292 0.0
C742 C 0.38929 0.63207 0.98602 0.0
C743 C 0.36816 0.67723 0.9514 0.0
N744 N 0.40717 0.63713 0.92849 0.0
C745 C 0.40834 0.62074 0.95872 0.0
C746 C 0.38756 0.66516 0.92465 0.0
C747 C 0.36905 0.6605 0.98226 0.0
C748 C 0.51594 0.61316 0.80322 0.0
N749 N 0.52567 0.59609 0.83146 0.0
C750 C 0.53846 0.63431 0.78639 0.0
C751 C 0.57114 0.63792 0.79868 0.0
C752 C 0.58089 0.62041 0.8275 0.0
C753 C 0.55767 0.59952 0.84369 0.0
C754 C 0.56501 0.49451 0.82981 0.0
C755 C 0.52885 0.51362 0.88626 0.0
C756 C 0.54264 0.52164 0.82872 0.0
N757 N 0.52499 0.53096 0.85677 0.0
C758 C 0.55087 0.48628 0.88826 0.0
C759 C 0.5691 0.47674 0.85983 0.0
C760 C 0.43386 0.54427 0.89689 0.0
C761 C 0.37265 0.64092 0.80801 0.0
C762 C 0.36615 0.60904 0.8697 0.0
C763 C 0.33867 0.61011 0.84778 0.0
C764 C 0.34202 0.62616 0.81673 0.0
N765 N 0.39609 0.62362 0.86098 0.0
C766 C 0.39957 0.63939 0.83059 0.0
Co767 Co 0.50018 0.93458 0.8563 0.0
Co768 Co 0.5539 0.87774 0.89477 0.0
O769 O 0.5304 0.89581 0.8552 0.0
C770 C 0.55315 0.95921 0.80922 0.0
O771 O 0.57675 0.94486 0.82737 0.0
C772 C 0.50799 0.82271 0.87456 0.0
O773 O 0.48501 0.846 0.87007 0.0
O774 O 0.51391 0.88425 0.92481 0.0
O775 O 0.4772 0.91672 0.89689 0.0
H776 H 0.5913 0.87555 0.01566 0.0
H777 H 0.50798 0.89459 0.79407 0.0
O778 O 0.52211 0.95474 0.81586 0.0
H779 H 0.38706 0.88848 0.82175 0.0
H780 H 0.42467 0.02329 0.80581 0.0
H781 H 0.47472 0.97907 0.91053 0.0
H782 H 0.42595 0.92179 0.85684 0.0
H783 H 0.46185 0.97354 0.80446 0.0
O784 O 0.53764 0.83113 0.88363 0.0
H785 H 0.56155 0.89837 0.96614 0.0
H786 H 0.59633 0.81688 0.90633 0.0
H787 H 0.43739 0.02862 0.91306 0.0
H788 H 0.46997 0.86134 0.75785 0.0
H789 H 0.41217 0.05115 0.86042 0.0
H790 H 0.40906 0.85796 0.77176 0.0
O791 O 0.53227 0.95999 0.88517 0.0
H792 H 0.61453 0.83954 0.79048 0.0
H793 H 0.62659 0.89553 0.90066 0.0
H794 H 0.67641 0.88884 0.86415 0.0
H795 H 0.67056 0.86059 0.80865 0.0
H796 H 0.56531 0.84702 0.82767 0.0
H797 H 0.62625 0.79295 0.95527 0.0
H798 H 0.62398 0.82245 0.01039 0.0
O799 O 0.57015 0.92386 0.9069 0.0
C800 C 0.48569 0.89944 0.92248 0.0
C801 C 0.59264 0.86255 0.99175 0.0
C802 C 0.61222 0.81618 0.95785 0.0
N803 N 0.57766 0.85929 0.93327 0.0
C804 C 0.57596 0.87544 0.96359 0.0
C805 C 0.59523 0.82984 0.93024 0.0
C806 C 0.61094 0.83274 0.98877 0.0
C807 C 0.48146 0.89337 0.80014 0.0
N808 N 0.46921 0.90986 0.82773 0.0
C809 C 0.46008 0.87446 0.7796 0.0
C810 C 0.42592 0.87255 0.78743 0.0
C811 C 0.41357 0.88962 0.8155 0.0
C812 C 0.43572 0.90827 0.83545 0.0
C813 C 0.43542 0.01365 0.82894 0.0
C814 C 0.4636 0.98851 0.88754 0.0
C815 C 0.45651 0.9855 0.82833 0.0
N816 N 0.47021 0.97321 0.85743 0.0
C817 C 0.44257 0.01667 0.88912 0.0
C818 C 0.42844 0.02929 0.85958 0.0
C819 C 0.55865 0.95356 0.90243 0.0
C820 C 0.61742 0.85181 0.81464 0.0
C821 C 0.62383 0.88332 0.87649 0.0
C822 C 0.65214 0.87953 0.85596 0.0
C823 C 0.64884 0.86366 0.82483 0.0
N824 N 0.59313 0.87151 0.86635 0.0
C825 C 0.58967 0.856 0.83585 0.0
Co826 Co 0.49525 0.43205 0.63095 0.0
Co827 Co 0.44002 0.37867 0.58986 0.0
O828 O 0.46439 0.39389 0.63002 0.0
C829 C 0.44673 0.45766 0.68258 0.0
O830 O 0.42192 0.45525 0.66088 0.0
C831 C 0.48269 0.32092 0.60819 0.0
O832 O 0.50727 0.34282 0.61108 0.0
O833 O 0.48059 0.38318 0.56035 0.0
O834 O 0.51539 0.4183 0.58742 0.0
H835 H 0.4025 0.38306 0.46907 0.0
H836 H 0.49129 0.3865 0.68986 0.0
O837 O 0.47614 0.4473 0.67494 0.0
H838 H 0.60939 0.38079 0.65181 0.0
H839 H 0.57446 0.51429 0.68623 0.0
H840 H 0.5184 0.48184 0.5803 0.0
H841 H 0.56854 0.41741 0.62265 0.0
H842 H 0.5369 0.46485 0.68431 0.0
O843 O 0.45325 0.33093 0.60017 0.0
H844 H 0.43287 0.40281 0.51949 0.0
H845 H 0.39486 0.32035 0.57605 0.0
H846 H 0.55579 0.53139 0.5811 0.0
H847 H 0.53137 0.34974 0.71997 0.0
H848 H 0.58418 0.54789 0.63432 0.0
H849 H 0.59087 0.34666 0.70089 0.0
O850 O 0.46238 0.46055 0.60639 0.0
H851 H 0.37591 0.34139 0.69243 0.0
H852 H 0.36872 0.40137 0.58387 0.0
H853 H 0.31814 0.39675 0.61966 0.0
H854 H 0.32153 0.36649 0.67433 0.0
H855 H 0.42595 0.34691 0.65601 0.0
H856 H 0.36428 0.2995 0.52616 0.0
H857 H 0.36792 0.331 0.4722 0.0
O858 O 0.42696 0.4261 0.57865 0.0
C859 C 0.50788 0.39998 0.56225 0.0
C860 C 0.40059 0.36919 0.49247 0.0
C861 C 0.3792 0.32225 0.52449 0.0
N862 N 0.41541 0.36292 0.55074 0.0
C863 C 0.41761 0.38034 0.52114 0.0
C864 C 0.39662 0.33414 0.55264 0.0
C865 C 0.38124 0.33995 0.49423 0.0
C866 C 0.51721 0.38547 0.6816 0.0
N867 N 0.5276 0.40414 0.65462 0.0
C868 C 0.53976 0.36454 0.69866 0.0
C869 C 0.57313 0.36279 0.68791 0.0
C870 C 0.58353 0.38192 0.66037 0.0
C871 C 0.56027 0.40254 0.6439 0.0
C872 C 0.56233 0.50728 0.66285 0.0
C873 C 0.53083 0.4887 0.60352 0.0
C874 C 0.54101 0.47933 0.66161 0.0
N875 N 0.5257 0.47027 0.63215 0.0
C876 C 0.55192 0.51685 0.60383 0.0
C877 C 0.56778 0.52612 0.63372 0.0
C878 C 0.43753 0.4554 0.5867 0.0
C879 C 0.3741 0.35458 0.66863 0.0
C880 C 0.37043 0.38831 0.6077 0.0
C881 C 0.34169 0.38569 0.62782 0.0
C882 C 0.3436 0.36869 0.65848 0.0
N883 N 0.4002 0.3743 0.6178 0.0
C884 C 0.40231 0.35769 0.64786 0.0
Co885 Co 0.51095 0.06784 0.64434 0.0
Co886 Co 0.55974 0.12145 0.59601 0.0
O887 O 0.53883 0.10784 0.63853 0.0
C888 C 0.5627 0.047 0.69525 0.0
O889 O 0.58585 0.04499 0.67176 0.0
C890 C 0.51435 0.17774 0.61231 0.0
O891 O 0.49151 0.15468 0.61846 0.0
O892 O 0.51798 0.11192 0.56981 0.0
O893 O 0.4876 0.07591 0.60082 0.0
H894 H 0.58919 0.11047 0.47341 0.0
H895 H 0.5143 0.11854 0.69894 0.0
O896 O 0.53335 0.05814 0.68849 0.0
H897 H 0.39461 0.11332 0.6662 0.0
H898 H 0.44142 0.98602 0.71188 0.0
H899 H 0.48853 0.01202 0.5999 0.0
H900 H 0.43656 0.07682 0.6385 0.0
H901 H 0.47515 0.03738 0.70299 0.0
O902 O 0.54394 0.16887 0.60351 0.0
H903 H 0.56359 0.09274 0.52715 0.0
H904 H 0.60016 0.18112 0.57496 0.0
H905 H 0.45426 0.96079 0.60756 0.0
H906 H 0.47312 0.15522 0.72759 0.0
H907 H 0.43066 0.94736 0.66389 0.0
H908 H 0.41282 0.15286 0.7111 0.0
O909 O 0.5445 0.03969 0.62023 0.0
H910 H 0.62721 0.1704 0.69119 0.0
H911 H 0.63194 0.10313 0.58692 0.0
H912 H 0.68418 0.11377 0.61881 0.0
H913 H 0.68202 0.14772 0.6713 0.0
H914 H 0.57553 0.1589 0.65865 0.0
H915 H 0.62601 0.19995 0.52166 0.0
H916 H 0.62068 0.16446 0.47043 0.0
O917 O 0.57531 0.07433 0.58753 0.0
C918 C 0.49247 0.09291 0.57408 0.0
C919 C 0.59187 0.12607 0.4956 0.0
C920 C 0.61247 0.17632 0.52267 0.0
N921 N 0.58074 0.13566 0.55425 0.0
C922 C 0.57756 0.11608 0.52614 0.0
C923 C 0.59776 0.16554 0.55276 0.0
C924 C 0.60947 0.15639 0.49393 0.0
C925 C 0.48803 0.11712 0.69192 0.0
N926 N 0.47781 0.09546 0.66723 0.0
C927 C 0.46486 0.13804 0.70811 0.0
C928 C 0.43104 0.13673 0.69882 0.0
C929 C 0.42081 0.11456 0.67362 0.0
C930 C 0.44468 0.094 0.65798 0.0
C931 C 0.45154 0.9916 0.68719 0.0
C932 C 0.47799 0.00659 0.62442 0.0
C933 C 0.47072 0.02063 0.682 0.0
N934 N 0.48355 0.02788 0.65086 0.0
C935 C 0.45878 0.97743 0.62864 0.0
C936 C 0.44552 0.96992 0.66026 0.0
C937 C 0.56756 0.0451 0.59847 0.0
C938 C 0.62849 0.15565 0.66831 0.0
C939 C 0.63079 0.1178 0.60982 0.0
C940 C 0.66046 0.12381 0.62772 0.0
C941 C 0.65923 0.14288 0.65716 0.0
N942 N 0.60077 0.13053 0.62085 0.0
C943 C 0.59933 0.14914 0.64974 0.0
Co944 Co 0.85716 0.51116 0.56321 0.0
Co945 Co 0.89417 0.45522 0.61886 0.0
O946 O 0.85534 0.48043 0.60163 0.0
C947 C 0.80847 0.45947 0.53952 0.0
O948 O 0.8258 0.43585 0.55484 0.0
C949 C 0.87601 0.50034 0.67548 0.0
O950 O 0.87184 0.5242 0.653 0.0
O951 O 0.92551 0.49431 0.61259 0.0
O952 O 0.89819 0.53279 0.58158 0.0
H953 H 0.0133 0.41247 0.61765 0.0
H954 H 0.79465 0.50408 0.60303 0.0
O955 O 0.81628 0.49037 0.54271 0.0
H956 H 0.82527 0.62413 0.61145 0.0
H957 H 0.80829 0.5892 0.47582 0.0
H958 H 0.91204 0.53671 0.51947 0.0
H959 H 0.85947 0.58505 0.57741 0.0
H960 H 0.80612 0.55094 0.52473 0.0
O961 O 0.88418 0.47077 0.66598 0.0
H962 H 0.96461 0.4446 0.59633 0.0
H963 H 0.90532 0.41167 0.67906 0.0
H964 H 0.9154 0.57516 0.47082 0.0
H965 H 0.75935 0.54231 0.63701 0.0
H966 H 0.86326 0.60166 0.44862 0.0
H967 H 0.77474 0.60278 0.64155 0.0
O968 O 0.8855 0.47905 0.53706 0.0
H969 H 0.7881 0.39774 0.65707 0.0
H970 H 0.89739 0.38258 0.60006 0.0
H971 H 0.85918 0.334 0.60632 0.0
H972 H 0.80412 0.34141 0.63507 0.0
H973 H 0.82698 0.4457 0.65 0.0
H974 H 0.95347 0.37942 0.70149 0.0
H975 H 0.00789 0.37956 0.67061 0.0
O976 O 0.90517 0.4395 0.57243 0.0
C977 C 0.92378 0.52301 0.59819 0.0
C978 C 0.98969 0.41213 0.63129 0.0
C979 C 0.95612 0.3936 0.67835 0.0
N980 N 0.93207 0.42974 0.63625 0.0
C981 C 0.96201 0.4302 0.61929 0.0
C982 C 0.92896 0.41195 0.66557 0.0
C983 C 0.98665 0.39369 0.66101 0.0
C984 C 0.80136 0.5304 0.60474 0.0
N985 N 0.82925 0.54231 0.58847 0.0
C986 C 0.78133 0.55191 0.62407 0.0
C987 C 0.79 0.58583 0.62663 0.0
C988 C 0.81837 0.59782 0.60979 0.0
C989 C 0.83779 0.57555 0.59071 0.0
C990 C 0.8312 0.5779 0.48532 0.0
C991 C 0.88926 0.54837 0.51016 0.0
C992 C 0.83013 0.55617 0.51298 0.0
N993 N 0.85896 0.54182 0.52514 0.0
C994 C 0.89132 0.57003 0.48252 0.0
C995 C 0.86205 0.58487 0.47007 0.0
C996 C 0.90177 0.45193 0.543 0.0
C997 C 0.81206 0.39417 0.64457 0.0
C998 C 0.87343 0.38603 0.61248 0.0
C999 C 0.85193 0.35841 0.61603 0.0
C1000 C 0.82105 0.36258 0.63219 0.0
N1001 N 0.86447 0.4169 0.62479 0.0
C1002 C 0.83422 0.4212 0.6406 0.0
Co1003 Co 0.148 0.98581 0.57274 0.0
Co1004 Co 0.11205 0.04613 0.62424 0.0
O1005 O 0.15037 0.01941 0.60854 0.0
C1006 C 0.19749 0.03502 0.545 0.0
O1007 O 0.1799 0.06008 0.55745 0.0
C1008 C 0.13164 0.00622 0.68412 0.0
O1009 O 0.13469 0.98031 0.66385 0.0
O1010 O 0.0805 0.00667 0.62218 0.0
O1011 O 0.10684 0.96604 0.59311 0.0
H1012 H 0.99328 0.08971 0.62081 0.0
H1013 H 0.21068 0.99565 0.61176 0.0
O1014 O 0.18901 0.00461 0.55061 0.0
H1015 H 0.17988 0.87658 0.62908 0.0
H1016 H 0.19616 0.90054 0.49209 0.0
H1017 H 0.0927 0.95653 0.53193 0.0
H1018 H 0.14554 0.91321 0.59254 0.0
H1019 H 0.19875 0.94326 0.53707 0.0
O1020 O 0.12307 0.03481 0.6723 0.0
H1021 H 0.04141 0.05541 0.60178 0.0
H1022 H 0.10202 0.09481 0.68058 0.0
H1023 H 0.08896 0.91354 0.48733 0.0
H1024 H 0.24612 0.95987 0.64819 0.0
H1025 H 0.1409 0.88525 0.46706 0.0
H1026 H 0.23067 0.89991 0.65718 0.0
O1027 O 0.1196 0.01591 0.54414 0.0
H1028 H 0.21957 0.10572 0.65413 0.0
H1029 H 0.10858 0.11713 0.59971 0.0
H1030 H 0.14736 0.16562 0.60036 0.0
H1031 H 0.20334 0.16008 0.62775 0.0
H1032 H 0.18009 0.05778 0.6526 0.0
H1033 H 0.05441 0.12923 0.70076 0.0
H1034 H 0.9996 0.12695 0.67067 0.0
O1035 O 0.10016 0.05772 0.57687 0.0
C1036 C 0.08178 0.977 0.60982 0.0
C1037 C 0.01704 0.09097 0.63411 0.0
C1038 C 0.05134 0.11312 0.67899 0.0
N1039 N 0.07455 0.07323 0.63995 0.0
C1040 C 0.04441 0.07165 0.62341 0.0
C1041 C 0.07818 0.09348 0.66753 0.0
C1042 C 0.0206 0.11184 0.66209 0.0
C1043 C 0.20389 0.96954 0.61546 0.0
N1044 N 0.17586 0.95657 0.60029 0.0
C1045 C 0.22401 0.94942 0.63615 0.0
C1046 C 0.21532 0.91579 0.6412 0.0
C1047 C 0.1868 0.9027 0.62549 0.0
C1048 C 0.16728 0.9236 0.60501 0.0
C1049 C 0.17332 0.91265 0.50074 0.0
C1050 C 0.11542 0.94416 0.52344 0.0
C1051 C 0.17464 0.93694 0.52613 0.0
N1052 N 0.14587 0.9522 0.53732 0.0
C1053 C 0.11314 0.91992 0.49808 0.0
C1054 C 0.14232 0.90407 0.48671 0.0
C1055 C 0.10318 0.04326 0.54836 0.0
C1056 C 0.19524 0.10846 0.64216 0.0
C1057 C 0.13291 0.11448 0.61153 0.0
C1058 C 0.15474 0.14206 0.61192 0.0
C1059 C 0.18613 0.13894 0.62732 0.0
N1060 N 0.14203 0.08467 0.62612 0.0
C1061 C 0.17273 0.08145 0.64132 0.0
Co1062 Co 0.85834 0.51089 0.93241 0.0
Co1063 Co 0.8964 0.56828 0.87876 0.0
O1064 O 0.85728 0.54245 0.89472 0.0
C1065 C 0.80649 0.55962 0.95512 0.0
O1066 O 0.82478 0.58453 0.94336 0.0
C1067 C 0.87747 0.5268 0.81997 0.0
O1068 O 0.8752 0.5014 0.84102 0.0
O1069 O 0.92714 0.52824 0.88164 0.0
O1070 O 0.90116 0.49168 0.91593 0.0
H1071 H 0.01637 0.60858 0.87954 0.0
H1072 H 0.7974 0.51541 0.88989 0.0
O1073 O 0.81542 0.52918 0.95083 0.0
H1074 H 0.83551 0.39759 0.88014 0.0
H1075 H 0.80866 0.42919 0.01596 0.0
H1076 H 0.91182 0.48754 0.97883 0.0
H1077 H 0.86617 0.43786 0.91612 0.0
H1078 H 0.80733 0.46774 0.9672 0.0
O1079 O 0.88514 0.55597 0.83096 0.0
H1080 H 0.96757 0.57606 0.90002 0.0
H1081 H 0.90678 0.61584 0.82158 0.0
H1082 H 0.91426 0.44931 0.02764 0.0
H1083 H 0.76572 0.47592 0.85384 0.0
H1084 H 0.86246 0.4197 0.04649 0.0
H1085 H 0.78483 0.41657 0.84872 0.0
O1086 O 0.88348 0.54362 0.96045 0.0
H1087 H 0.79039 0.62972 0.84711 0.0
H1088 H 0.90103 0.63932 0.9027 0.0
H1089 H 0.86324 0.68862 0.90105 0.0
H1090 H 0.80748 0.68398 0.87309 0.0
H1091 H 0.82887 0.58099 0.84953 0.0
H1092 H 0.95497 0.64858 0.79999 0.0
H1093 H 0.01024 0.64518 0.82913 0.0
O1094 O 0.90874 0.58086 0.92611 0.0
C1095 C 0.92585 0.50025 0.89742 0.0
C1096 C 0.9924 0.6104 0.86669 0.0
C1097 C 0.95795 0.6328 0.82203 0.0
N1098 N 0.9343 0.59432 0.86225 0.0
C1099 C 0.96465 0.59214 0.87826 0.0
C1100 C 0.93077 0.61416 0.83433 0.0
C1101 C 0.98895 0.63089 0.83839 0.0
C1102 C 0.8057 0.48955 0.88794 0.0
N1103 N 0.83356 0.47892 0.90509 0.0
C1104 C 0.78774 0.46734 0.86743 0.0
C1105 C 0.7985 0.43405 0.86454 0.0
C1106 C 0.82694 0.4234 0.88213 0.0
C1107 C 0.84429 0.44633 0.90238 0.0
C1108 C 0.83144 0.44181 0.0079 0.0
C1109 C 0.8892 0.4746 0.9867 0.0
C1110 C 0.83084 0.46367 0.98032 0.0
N1111 N 0.85954 0.47962 0.96996 0.0
C1112 C 0.89073 0.45301 0.01442 0.0
C1113 C 0.86163 0.43649 0.02502 0.0
C1114 C 0.90211 0.56929 0.95539 0.0
C1115 C 0.81466 0.63207 0.85928 0.0
C1116 C 0.87678 0.6371 0.89053 0.0
C1117 C 0.85552 0.66511 0.88962 0.0
C1118 C 0.82425 0.6625 0.87391 0.0
N1119 N 0.86721 0.60736 0.8761 0.0
C1120 C 0.8366 0.60461 0.86062 0.0
Co1121 Co 0.14214 0.99469 0.94475 0.0
Co1122 Co 0.10513 0.94277 0.88517 0.0
O1123 O 0.14416 0.96517 0.90559 0.0
C1124 C 0.19075 0.94276 0.96844 0.0
O1125 O 0.17257 0.91891 0.95456 0.0
C1126 C 0.13037 0.98483 0.82921 0.0
O1127 O 0.1322 0.00964 0.85096 0.0
O1128 O 0.07679 0.98467 0.88711 0.0
O1129 O 0.10104 0.01641 0.92699 0.0
H1130 H 0.9835 0.90957 0.87252 0.0
H1131 H 0.20561 0.98974 0.90608 0.0
O1132 O 0.1832 0.97366 0.96463 0.0
H1133 H 0.17183 0.10901 0.89835 0.0
H1134 H 0.19062 0.0714 0.03339 0.0
H1135 H 0.08701 0.01964 0.98858 0.0
H1136 H 0.13766 0.06851 0.93078 0.0
H1137 H 0.19306 0.03334 0.9844 0.0
O1138 O 0.12139 0.95566 0.83912 0.0
H1139 H 0.03174 0.93849 0.89873 0.0
H1140 H 0.09781 0.89795 0.82545 0.0
H1141 H 0.08332 0.0587 0.03661 0.0
H1142 H 0.24078 0.02947 0.87367 0.0
H1143 H 0.13537 0.08448 0.05974 0.0
H1144 H 0.22384 0.08956 0.86955 0.0
O1145 O 0.1138 0.96173 0.96979 0.0
H1146 H 0.20907 0.87501 0.86025 0.0
H1147 H 0.09386 0.8717 0.90657 0.0
H1148 H 0.12818 0.8199 0.90627 0.0
H1149 H 0.18621 0.82135 0.88292 0.0
H1150 H 0.17397 0.92627 0.86131 0.0
H1151 H 0.05038 0.86881 0.79797 0.0
H1152 H 0.99271 0.87438 0.8216 0.0
O1153 O 0.08744 0.93009 0.9306 0.0
C1154 C 0.07771 0.01086 0.90579 0.0
C1155 C 0.00852 0.90674 0.86207 0.0
C1156 C 0.04604 0.88396 0.8202 0.0
N1157 N 0.06756 0.91965 0.86405 0.0
C1158 C 0.03592 0.92293 0.87702 0.0
C1159 C 0.0728 0.90058 0.83586 0.0
C1160 C 0.0137 0.88708 0.83348 0.0
C1161 C 0.19828 0.01592 0.90463 0.0
N1162 N 0.1697 0.02682 0.92037 0.0
C1163 C 0.21821 0.03826 0.88615 0.0
C1164 C 0.20866 0.07197 0.88382 0.0
C1165 C 0.17947 0.0829 0.89995 0.0
C1166 C 0.16016 0.05983 0.9182 0.0
C1167 C 0.16774 0.06025 0.02364 0.0
C1168 C 0.10977 0.0311 0.99816 0.0
C1169 C 0.16898 0.03856 0.99598 0.0
N1170 N 0.14018 0.02439 0.98352 0.0
C1171 C 0.10754 0.05301 0.02556 0.0
C1172 C 0.13676 0.06756 0.03842 0.0
C1173 C 0.09294 0.93892 0.96103 0.0
C1174 C 0.18379 0.87403 0.8704 0.0
C1175 C 0.11913 0.87254 0.89647 0.0
C1176 C 0.13841 0.84312 0.89629 0.0
C1177 C 0.17096 0.84395 0.88317 0.0
N1178 N 0.13186 0.90192 0.88382 0.0
C1179 C 0.16376 0.90294 0.87095 0.0
Co1180 Co 0.56935 0.85941 0.51192 0.0
Co1181 Co 0.62752 0.89627 0.45833 0.0
O1182 O 0.60926 0.85765 0.48321 0.0
C1183 C 0.54935 0.80905 0.46031 0.0
O1184 O 0.56446 0.82681 0.43687 0.0
C1185 C 0.68291 0.87855 0.50518 0.0
O1186 O 0.66034 0.87679 0.52926 0.0
O1187 O 0.62078 0.92746 0.49736 0.0
O1188 O 0.58605 0.90125 0.53354 0.0
H1189 H 0.6299 0.01553 0.41591 0.0
H1190 H 0.61157 0.79818 0.50828 0.0
O1191 O 0.55084 0.81768 0.49111 0.0
H1192 H 0.60983 0.82949 0.62843 0.0
H1193 H 0.47744 0.8106 0.58467 0.0
H1194 H 0.52353 0.91407 0.53365 0.0
H1195 H 0.57792 0.86252 0.58659 0.0
H1196 H 0.52914 0.80851 0.55027 0.0
O1197 O 0.67392 0.88537 0.47512 0.0
H1198 H 0.60661 0.96713 0.44715 0.0
H1199 H 0.68902 0.9063 0.41644 0.0
H1200 H 0.47182 0.91726 0.56779 0.0
H1201 H 0.64351 0.76404 0.54925 0.0
H1202 H 0.44846 0.86532 0.5937 0.0
H1203 H 0.6429 0.77976 0.6098 0.0
O1204 O 0.54456 0.88636 0.47787 0.0
H1205 H 0.66497 0.78942 0.40189 0.0
H1206 H 0.61046 0.8998 0.38524 0.0
H1207 H 0.61691 0.86129 0.33692 0.0
H1208 H 0.64434 0.80566 0.34511 0.0
H1209 H 0.6578 0.82859 0.44955 0.0
H1210 H 0.71339 0.9541 0.3851 0.0
H1211 H 0.68369 0.00917 0.38459 0.0
O1212 O 0.58173 0.9083 0.44121 0.0
C1213 C 0.60446 0.9261 0.52504 0.0
C1214 C 0.64301 0.99163 0.41583 0.0
C1215 C 0.6899 0.95717 0.39858 0.0
N1216 N 0.64626 0.93386 0.43336 0.0
C1217 C 0.62988 0.96411 0.43338 0.0
C1218 C 0.67601 0.93021 0.41642 0.0
C1219 C 0.67321 0.98806 0.39829 0.0
C1220 C 0.61118 0.80513 0.5346 0.0
N1221 N 0.5933 0.83262 0.54503 0.0
C1222 C 0.62931 0.78573 0.55767 0.0
C1223 C 0.62897 0.79457 0.59163 0.0
C1224 C 0.61048 0.8225 0.6021 0.0
C1225 C 0.59268 0.84131 0.57829 0.0
C1226 C 0.48746 0.83345 0.57367 0.0
C1227 C 0.5137 0.89137 0.54505 0.0
C1228 C 0.51672 0.83242 0.55415 0.0
N1229 N 0.52957 0.8612 0.54027 0.0
C1230 C 0.48435 0.89333 0.56431 0.0
C1231 C 0.47121 0.86416 0.57874 0.0
C1232 C 0.55175 0.90334 0.45158 0.0
C1233 C 0.65305 0.81362 0.39799 0.0
C1234 C 0.62239 0.87561 0.389 0.0
C1235 C 0.62602 0.85394 0.36154 0.0
C1236 C 0.64144 0.82274 0.36615 0.0
N1237 N 0.63389 0.8665 0.42015 0.0
C1238 C 0.64904 0.83596 0.42485 0.0
Co1239 Co 0.56677 0.13868 0.98975 0.0
Co1240 Co 0.61979 0.09864 0.04637 0.0
O1241 O 0.6048 0.13846 0.02106 0.0
C1242 C 0.54512 0.19061 0.03905 0.0
O1243 O 0.55661 0.17218 0.06397 0.0
C1244 C 0.6799 0.11587 0.0055 0.0
O1245 O 0.65975 0.11814 0.97938 0.0
O1246 O 0.61584 0.06849 0.00602 0.0
O1247 O 0.58192 0.09566 0.97005 0.0
H1248 H 0.61424 0.97853 0.08603 0.0
H1249 H 0.61051 0.19875 0.99451 0.0
O1250 O 0.54948 0.18185 0.00857 0.0
H1251 H 0.61955 0.16095 0.87656 0.0
H1252 H 0.48452 0.19178 0.90898 0.0
H1253 H 0.51881 0.08672 0.9657 0.0
H1254 H 0.58308 0.1307 0.91676 0.0
H1255 H 0.53326 0.19117 0.94747 0.0
O1256 O 0.6679 0.10871 0.03439 0.0
H1257 H 0.59531 0.02845 0.05432 0.0
H1258 H 0.6772 0.08536 0.09298 0.0
H1259 H 0.47017 0.08613 0.92713 0.0
H1260 H 0.6471 0.22997 0.95508 0.0
H1261 H 0.45269 0.13894 0.8985 0.0
H1262 H 0.65182 0.21102 0.89565 0.0
O1263 O 0.53806 0.11366 0.02227 0.0
H1264 H 0.65541 0.20237 0.10942 0.0
H1265 H 0.59599 0.09358 0.11744 0.0
H1266 H 0.59956 0.1302 0.16748 0.0
H1267 H 0.62952 0.185 0.16366 0.0
H1268 H 0.65097 0.16511 0.05992 0.0
H1269 H 0.69721 0.03595 0.12489 0.0
H1270 H 0.66558 0.98207 0.12161 0.0
O1271 O 0.57236 0.08756 0.05884 0.0
C1272 C 0.59968 0.07035 0.97828 0.0
C1273 C 0.6282 0.00188 0.08775 0.0
C1274 C 0.6748 0.03409 0.10949 0.0
N1275 N 0.63505 0.05984 0.07189 0.0
C1276 C 0.61754 0.03028 0.06992 0.0
C1277 C 0.6634 0.06196 0.09129 0.0
C1278 C 0.65702 0.00388 0.10766 0.0
C1279 C 0.61229 0.19054 0.96861 0.0
N1280 N 0.59462 0.16305 0.9579 0.0
C1281 C 0.63311 0.20823 0.94644 0.0
C1282 C 0.63578 0.19756 0.91311 0.0
C1283 C 0.61769 0.16946 0.90238 0.0
C1284 C 0.59715 0.15237 0.92528 0.0
C1285 C 0.49197 0.16857 0.92121 0.0
C1286 C 0.51158 0.10975 0.9531 0.0
C1287 C 0.51953 0.16808 0.94306 0.0
N1288 N 0.52909 0.13887 0.9586 0.0
C1289 C 0.48392 0.10928 0.93138 0.0
C1290 C 0.47411 0.13893 0.91535 0.0
C1291 C 0.5431 0.09457 0.04761 0.0
C1292 C 0.64236 0.17852 0.11142 0.0
C1293 C 0.60896 0.11745 0.11555 0.0
C1294 C 0.61096 0.13804 0.14399 0.0
C1295 C 0.62779 0.16877 0.14184 0.0
N1296 N 0.6234 0.12714 0.08584 0.0
C1297 C 0.63987 0.15727 0.08351 0.0
Co1298 Co 0.43161 0.36312 0.00079 0.0
Co1299 Co 0.37582 0.40882 0.05024 0.0
O1300 O 0.39204 0.36659 0.0301 0.0
C1301 C 0.47608 0.31761 0.03967 0.0
O1302 O 0.49738 0.34282 0.04123 0.0
C1303 C 0.31887 0.38554 0.00772 0.0
O1304 O 0.34083 0.37361 0.98613 0.0
O1305 O 0.38353 0.43456 0.00776 0.0
O1306 O 0.41732 0.4035 0.97494 0.0
H1307 H 0.38112 0.53234 0.0772 0.0
H1308 H 0.38787 0.30344 0.01043 0.0
O1309 O 0.44711 0.32195 0.02628 0.0
H1310 H 0.38509 0.32689 0.8885 0.0
H1311 H 0.51678 0.30189 0.92914 0.0
H1312 H 0.4813 0.41207 0.9741 0.0
H1313 H 0.41887 0.36235 0.92667 0.0
H1314 H 0.46647 0.30649 0.96524 0.0
O1315 O 0.32858 0.39929 0.03501 0.0
H1316 H 0.40128 0.479 0.05268 0.0
H1317 H 0.31526 0.42786 0.09051 0.0
H1318 H 0.53164 0.40865 0.93791 0.0
H1319 H 0.35409 0.26705 0.9731 0.0
H1320 H 0.54972 0.35324 0.91519 0.0
H1321 H 0.35251 0.27875 0.91166 0.0
O1322 O 0.45797 0.39279 0.0313 0.0
H1323 H 0.33212 0.31226 0.11935 0.0
H1324 H 0.39299 0.42045 0.12247 0.0
H1325 H 0.38383 0.389 0.17526 0.0
H1326 H 0.35308 0.33453 0.17391 0.0
H1327 H 0.34215 0.34444 0.06711 0.0
H1328 H 0.29395 0.48076 0.11513 0.0
H1329 H 0.32704 0.53347 0.10865 0.0
O1330 O 0.42235 0.42003 0.0656 0.0
C1331 C 0.39984 0.4298 0.98052 0.0
C1332 C 0.36654 0.50952 0.08033 0.0
C1333 C 0.3176 0.48057 0.10157 0.0
N1334 N 0.35965 0.45027 0.07045 0.0
C1335 C 0.3779 0.4792 0.06662 0.0
C1336 C 0.32977 0.4507 0.08754 0.0
C1337 C 0.33618 0.51014 0.09793 0.0
C1338 C 0.38758 0.30845 0.98368 0.0
N1339 N 0.40559 0.33475 0.97071 0.0
C1340 C 0.36829 0.28787 0.96269 0.0
C1341 C 0.36737 0.29448 0.92822 0.0
C1342 C 0.38563 0.32149 0.91521 0.0
C1343 C 0.40465 0.34154 0.93697 0.0
C1344 C 0.50914 0.32618 0.93885 0.0
C1345 C 0.4889 0.38788 0.9642 0.0
C1346 C 0.48068 0.32894 0.95934 0.0
N1347 N 0.47086 0.35953 0.97172 0.0
C1348 C 0.51747 0.3861 0.94376 0.0
C1349 C 0.52761 0.355 0.93104 0.0
C1350 C 0.45199 0.41313 0.05539 0.0
C1351 C 0.3455 0.33599 0.12027 0.0
C1352 C 0.3798 0.39668 0.12166 0.0
C1353 C 0.37457 0.37903 0.15164 0.0
C1354 C 0.3573 0.34848 0.15087 0.0
N1355 N 0.36805 0.38431 0.09177 0.0
C1356 C 0.35118 0.35435 0.09079 0.0
Co1357 Co 0.93843 0.13864 0.99667 0.0
Co1358 Co 0.88429 0.09314 0.9455 0.0
O1359 O 0.89975 0.13524 0.96634 0.0
C1360 C 0.95833 0.18655 0.94217 0.0
O1361 O 0.94616 0.1664 0.91899 0.0
C1362 C 0.82557 0.11452 0.98623 0.0
O1363 O 0.84689 0.12059 0.01073 0.0
O1364 O 0.88962 0.0671 0.98845 0.0
O1365 O 0.92391 0.09756 0.02127 0.0
H1366 H 0.88927 0.96959 0.91867 0.0
H1367 H 0.893 0.19662 0.98609 0.0
O1368 O 0.95505 0.1799 0.97332 0.0
H1369 H 0.88911 0.17421 0.10817 0.0
H1370 H 0.0224 0.19973 0.06965 0.0
H1371 H 0.98687 0.08941 0.02508 0.0
H1372 H 0.92553 0.14046 0.07093 0.0
H1373 H 0.97301 0.19528 0.03227 0.0
O1374 O 0.83646 0.10395 0.95796 0.0
H1375 H 0.90845 0.02248 0.94492 0.0
H1376 H 0.82609 0.07518 0.90152 0.0
H1377 H 0.03587 0.09265 0.06307 0.0
H1378 H 0.85652 0.23143 0.02239 0.0
H1379 H 0.05408 0.14813 0.08544 0.0
H1380 H 0.85425 0.22015 0.08389 0.0
O1381 O 0.96649 0.11071 0.9659 0.0
H1382 H 0.84646 0.19052 0.87404 0.0
H1383 H 0.90562 0.08132 0.87442 0.0
H1384 H 0.90048 0.11312 0.8213 0.0
H1385 H 0.87065 0.16812 0.82088 0.0
H1386 H 0.85244 0.15799 0.92666 0.0
H1387 H 0.80582 0.02277 0.87501 0.0
H1388 H 0.8376 0.96952 0.88339 0.0
O1389 O 0.93145 0.08137 0.93257 0.0
C1390 C 0.9061 0.07152 0.01571 0.0
C1391 C 0.87526 0.99265 0.91472 0.0
C1392 C 0.82842 0.02249 0.89024 0.0
N1393 N 0.86862 0.05195 0.92444 0.0
C1394 C 0.88605 0.0227 0.92944 0.0
C1395 C 0.83998 0.05208 0.90535 0.0
C1396 C 0.84626 0.99262 0.89496 0.0
C1397 C 0.89225 0.19167 0.01285 0.0
N1398 N 0.91112 0.16625 0.02636 0.0
C1399 C 0.87151 0.21142 0.03326 0.0
C1400 C 0.87023 0.20507 0.06776 0.0
C1401 C 0.88973 0.17926 0.08139 0.0
C1402 C 0.91015 0.16003 0.06017 0.0
C1403 C 0.01467 0.17539 0.06012 0.0
C1404 C 0.99437 0.11361 0.03503 0.0
C1405 C 0.98677 0.17272 0.03887 0.0
N1406 N 0.97684 0.14206 0.02675 0.0
C1407 C 0.02226 0.1153 0.05639 0.0
C1408 C 0.03245 0.14644 0.06895 0.0
C1409 C 0.96094 0.08966 0.94222 0.0
C1410 C 0.85944 0.16655 0.87388 0.0
C1411 C 0.89273 0.10528 0.87447 0.0
C1412 C 0.88982 0.12314 0.8443 0.0
C1413 C 0.87306 0.15398 0.84407 0.0
N1414 N 0.87923 0.11773 0.90358 0.0
C1415 C 0.8628 0.14797 0.90357 0.0
C1416 C 0.08508 0.04039 0.48797 0.0
C1417 C 0.08484 0.05766 0.51893 0.0
C1418 C 0.06466 0.05059 0.46112 0.0
C1419 C 0.04293 0.07853 0.4639 0.0
H1420 H 0.10022 0.01793 0.48468 0.0
H1421 H 0.06503 0.03541 0.43846 0.0
S1422 S 0.03623 0.13554 0.5378 0.0
N1423 N 0.06354 0.10648 0.54946 0.0
N1424 N 0.02532 0.12564 0.49897 0.0
C1425 C 0.0441 0.09747 0.49387 0.0
C1426 C 0.06494 0.08703 0.52134 0.0
C1427 C 0.93395 0.43694 0.45443 0.0
C1428 C 0.95911 0.41225 0.45872 0.0
C1429 C 0.91455 0.4483 0.48149 0.0
C1430 C 0.91915 0.4354 0.51418 0.0
H1431 H 0.93004 0.4489 0.43022 0.0
H1432 H 0.89661 0.46832 0.47676 0.0
S1433 S 0.97752 0.3661 0.53802 0.0
N1434 N 0.98458 0.37216 0.49751 0.0
N1435 N 0.94782 0.39325 0.54841 0.0
C1436 C 0.94227 0.40873 0.51839 0.0
C1437 C 0.96227 0.39722 0.4907 0.0
C1438 C 0.06412 0.89965 0.04306 0.0
C1439 C 0.02897 0.90414 0.04164 0.0
C1440 C 0.08489 0.90976 0.01625 0.0
C1441 C 0.07106 0.92476 0.98735 0.0
H1442 H 0.07571 0.88949 0.06559 0.0
H1443 H 0.11191 0.90672 0.0185 0.0
S1444 S 0.9813 0.94624 0.97331 0.0
N1445 N 0.98181 0.92673 0.01001 0.0
N1446 N 0.02072 0.94618 0.96015 0.0
C1447 C 0.03607 0.92939 0.9857 0.0
C1448 C 0.015 0.9189 0.01274 0.0
C1449 C 0.92532 0.58313 0.04661 0.0
C1450 C 0.95617 0.60059 0.04472 0.0
C1451 C 0.90701 0.57515 0.01769 0.0
C1452 C 0.91843 0.58451 0.98547 0.0
H1453 H 0.91597 0.5737 0.07044 0.0
H1454 H 0.88445 0.56009 0.02067 0.0
S1455 S 0.99346 0.63738 0.96718 0.0
N1456 N 0.99443 0.63186 0.00837 0.0
N1457 N 0.95954 0.61734 0.95393 0.0
C1458 C 0.94725 0.60514 0.98343 0.0
C1459 C 0.96621 0.61306 0.01304 0.0
C1460 C 0.49174 0.02985 0.096 0.0
C1461 C 0.45864 0.03571 0.08466 0.0
C1462 C 0.51862 0.05017 0.08541 0.0
C1463 C 0.51362 0.07722 0.06296 0.0
H1464 H 0.49736 0.00845 0.11196 0.0
H1465 H 0.54371 0.04353 0.09379 0.0
S1466 S 0.43116 0.10691 0.03014 0.0
N1467 N 0.42199 0.07337 0.05286 0.0
N1468 N 0.47233 0.11138 0.03315 0.0
C1469 C 0.48035 0.08493 0.05342 0.0
C1470 C 0.45296 0.06425 0.06419 0.0
C1471 C 0.54057 0.44731 0.0654 0.0
C1472 C 0.53664 0.47404 0.08836 0.0
C1473 C 0.51346 0.42682 0.05632 0.0
C1474 C 0.48108 0.43182 0.06992 0.0
H1475 H 0.56444 0.44298 0.05292 0.0
H1476 H 0.51787 0.40785 0.03724 0.0
S1477 S 0.45839 0.4948 0.13537 0.0
N1478 N 0.49863 0.50181 0.1277 0.0
N1479 N 0.44763 0.46315 0.11072 0.0
C1480 C 0.47729 0.45681 0.09487 0.0
C1481 C 0.50504 0.47787 0.10409 0.0
C1482 C 0.52766 0.95099 0.41775 0.0
C1483 C 0.52351 0.91941 0.43334 0.0
C1484 C 0.49976 0.9693 0.40599 0.0
C1485 C 0.46679 0.95656 0.40925 0.0
H1486 H 0.55229 0.9626 0.41649 0.0
H1487 H 0.50396 0.99445 0.39632 0.0
S1488 S 0.44369 0.87156 0.44113 0.0
N1489 N 0.48483 0.87385 0.44644 0.0
N1490 N 0.43267 0.90775 0.42393 0.0
C1491 C 0.46292 0.92355 0.42175 0.0
C1492 C 0.49119 0.90512 0.43393 0.0
C1493 C 0.51563 0.5762 0.43406 0.0
C1494 C 0.48354 0.57091 0.41993 0.0
C1495 C 0.54324 0.55657 0.42483 0.0
C1496 C 0.54016 0.53021 0.40134 0.0
H1497 H 0.5195 0.59481 0.45358 0.0
H1498 H 0.56689 0.56134 0.43756 0.0
S1499 S 0.46276 0.50824 0.35357 0.0
N1500 N 0.4511 0.5394 0.37846 0.0
N1501 N 0.50308 0.50196 0.3615 0.0
C1502 C 0.50876 0.52578 0.3854 0.0
C1503 C 0.48048 0.54616 0.39464 0.0
C1504 C 0.09375 0.48707 0.03316 0.0
C1505 C 0.07854 0.45511 0.03598 0.0
C1506 C 0.08413 0.51393 0.05396 0.0
C1507 C 0.05889 0.51007 0.07862 0.0
H1508 H 0.11223 0.492 0.01371 0.0
H1509 H 0.09567 0.53826 0.0496 0.0
S1510 S 0.01486 0.43025 0.10013 0.0
N1511 N 0.03954 0.42034 0.06823 0.0
N1512 N 0.02182 0.47053 0.1074 0.0
C1513 C 0.04522 0.47765 0.0834 0.0
C1514 C 0.05493 0.4503 0.06212 0.0
C1515 C 0.09092 0.48058 0.45684 0.0
C1516 C 0.07513 0.48404 0.42522 0.0
C1517 C 0.10078 0.50885 0.47561 0.0
C1518 C 0.09532 0.54174 0.46352 0.0
H1519 H 0.09412 0.45595 0.46812 0.0
H1520 H 0.11092 0.50478 0.5006 0.0
S1521 S 0.06115 0.56439 0.37928 0.0
N1522 N 0.059 0.52295 0.38063 0.0
N1523 N 0.07774 0.57576 0.4156 0.0
C1524 C 0.08233 0.54538 0.43066 0.0
C1525 C 0.07218 0.51666 0.41162 0.0
C1526 C 0.92089 0.95207 0.45518 0.0
C1527 C 0.90614 0.95688 0.48706 0.0
C1528 C 0.92857 0.97919 0.43421 0.0
C1529 C 0.92202 0.0126 0.44406 0.0
H1530 H 0.92814 0.92719 0.44675 0.0
H1531 H 0.94145 0.97373 0.41081 0.0
S1532 S 0.87819 0.03875 0.52257 0.0
N1533 N 0.88107 0.99739 0.5256 0.0
N1534 N 0.89565 0.04864 0.48616 0.0
C1535 C 0.90466 0.01771 0.47466 0.0
C1536 C 0.89668 0.98983 0.49611 0.0
C1537 C 0.39612 0.5101 0.52025 0.0
C1538 C 0.4036 0.54296 0.53138 0.0
C1539 C 0.40512 0.48179 0.53937 0.0
C1540 C 0.42204 0.48522 0.57033 0.0
H1541 H 0.38502 0.50598 0.49569 0.0
H1542 H 0.4005 0.4571 0.52879 0.0
S1543 S 0.44092 0.56558 0.61424 0.0
N1544 N 0.42408 0.5771 0.57805 0.0
N1545 N 0.44103 0.52405 0.61375 0.0
C1546 C 0.42687 0.51788 0.58317 0.0
C1547 C 0.41764 0.54669 0.56378 0.0
C1548 C 0.57339 0.57854 0.97968 0.0
C1549 C 0.56267 0.58841 0.01199 0.0
C1550 C 0.55447 0.58564 0.95107 0.0
C1551 C 0.52336 0.60247 0.95312 0.0
H1552 H 0.59582 0.56353 0.97619 0.0
H1553 H 0.56376 0.57602 0.92731 0.0
S1554 S 0.48575 0.63828 0.03091 0.0
N1555 N 0.52067 0.61977 0.04388 0.0
N1556 N 0.48438 0.63242 0.98976 0.0
C1557 C 0.51327 0.61477 0.98484 0.0
C1558 C 0.533 0.60784 0.0143 0.0
C1559 C 0.45877 0.90394 0.01389 0.0
C1560 C 0.42682 0.91929 0.01187 0.0
C1561 C 0.47667 0.895 0.98479 0.0
C1562 C 0.46335 0.90101 0.95249 0.0
H1563 H 0.47098 0.90042 0.03802 0.0
H1564 H 0.50196 0.88523 0.98775 0.0
S1565 S 0.37773 0.93386 0.93355 0.0
N1566 N 0.38052 0.93527 0.97496 0.0
N1567 N 0.41394 0.91823 0.92053 0.0
C1568 C 0.43015 0.9134 0.95027 0.0
C1569 C 0.41197 0.92261 0.97985 0.0
C1570 C 0.56171 0.41897 0.53612 0.0
C1571 C 0.53133 0.40094 0.53305 0.0
C1572 C 0.58151 0.42642 0.5081 0.0
C1573 C 0.57204 0.41618 0.4755 0.0
H1574 H 0.56966 0.42905 0.56017 0.0
H1575 H 0.60359 0.44194 0.51207 0.0
S1576 S 0.49837 0.36244 0.45442 0.0
N1577 N 0.49525 0.36869 0.4954 0.0
N1578 N 0.53278 0.38252 0.44251 0.0
C1579 C 0.54344 0.39537 0.47237 0.0
C1580 C 0.52304 0.3878 0.50114 0.0
C1581 C 0.44315 0.06305 0.54858 0.0
C1582 C 0.46882 0.08739 0.54553 0.0
C1583 C 0.42423 0.05271 0.52071 0.0
C1584 C 0.43 0.06627 0.48846 0.0
H1585 H 0.43843 0.05063 0.5724 0.0
H1586 H 0.40589 0.03285 0.52442 0.0
S1587 S 0.49042 0.1349 0.46783 0.0
N1588 N 0.4961 0.12784 0.50837 0.0
N1589 N 0.46059 0.10851 0.45602 0.0
C1590 C 0.45384 0.09249 0.48551 0.0
C1591 C 0.47319 0.10302 0.51398 0.0
C1592 C 0.01588 0.54654 0.5902 0.0
C1593 C 0.01417 0.57868 0.57535 0.0
C1594 C 0.98655 0.52959 0.60034 0.0
C1595 C 0.95452 0.54429 0.59615 0.0
H1596 H 0.03974 0.53349 0.59216 0.0
H1597 H 0.98897 0.50399 0.60944 0.0
S1598 S 0.93755 0.63127 0.56583 0.0
N1599 N 0.97867 0.62674 0.56205 0.0
N1600 N 0.92378 0.59535 0.58158 0.0
C1601 C 0.953 0.5778 0.58448 0.0
C1602 C 0.98275 0.59485 0.5739 0.0
C1603 C 0.98953 0.95212 0.60783 0.0
C1604 C 0.99091 0.91885 0.59565 0.0
C1605 C 0.0191 0.97013 0.61515 0.0
C1606 C 0.05111 0.95543 0.61076 0.0
H1607 H 0.96567 0.96516 0.60961 0.0
H1608 H 0.01681 0.9964 0.62211 0.0
S1609 S 0.06776 0.86637 0.58706 0.0
N1610 N 0.02647 0.87024 0.58474 0.0
N1611 N 0.08174 0.90356 0.59919 0.0
C1612 C 0.05247 0.92105 0.60195 0.0
C1613 C 0.02248 0.90291 0.59418 0.0
C1614 C 0.97918 0.42485 0.91967 0.0
C1615 C 0.01227 0.43592 0.91353 0.0
C1616 C 0.95144 0.44483 0.91173 0.0
C1617 C 0.95526 0.47706 0.89741 0.0
H1618 H 0.97439 0.40127 0.93248 0.0
H1619 H 0.92682 0.43545 0.91872 0.0
S1620 S 0.03604 0.5155 0.87018 0.0
N1621 N 0.04705 0.47934 0.8875 0.0
N1622 N 0.99458 0.5171 0.87279 0.0
C1623 C 0.98793 0.48727 0.88817 0.0
C1624 C 0.01647 0.46672 0.89624 0.0
C1625 C 0.05145 0.06404 0.92651 0.0
C1626 C 0.04856 0.03445 0.90708 0.0
C1627 C 0.02316 0.08258 0.93615 0.0
C1628 C 0.99053 0.07262 0.92668 0.0
H1629 H 0.07564 0.07213 0.93612 0.0
H1630 H 0.02701 0.10412 0.95245 0.0
S1631 S 0.96953 0.00114 0.86991 0.0
N1632 N 0.01081 0.99911 0.87428 0.0
N1633 N 0.95744 0.03397 0.89232 0.0
C1634 C 0.98745 0.04498 0.90451 0.0
C1635 C 0.01648 0.02598 0.89466 0.0
C1636 C 0.5977 0.01761 0.55036 0.0
C1637 C 0.58409 0.01542 0.58306 0.0
C1638 C 0.60704 0.9886 0.53253 0.0
C1639 C 0.60323 0.95639 0.54683 0.0
H1640 H 0.59918 0.04163 0.53754 0.0
H1641 H 0.61507 0.9914 0.50662 0.0
S1642 S 0.57677 0.93776 0.63462 0.0
N1643 N 0.57281 0.97896 0.63102 0.0
N1644 N 0.59094 0.92469 0.59781 0.0
C1645 C 0.59306 0.95425 0.58073 0.0
C1646 C 0.58332 0.98368 0.59876 0.0
C1647 C 0.57884 0.04355 0.92551 0.0
C1648 C 0.5972 0.0405 0.95576 0.0
C1649 C 0.56822 0.01528 0.90759 0.0
C1650 C 0.57576 0.98254 0.91875 0.0
H1651 H 0.57076 0.06795 0.91637 0.0
H1652 H 0.55273 0.01926 0.88547 0.0
S1653 S 0.62957 0.96065 0.99213 0.0
N1654 N 0.62703 0.00213 0.99313 0.0
N1655 N 0.60758 0.94879 0.9589 0.0
C1656 C 0.59714 0.97907 0.94689 0.0
C1657 C 0.60776 0.00808 0.96549 0.0
C1658 C 0.43289 0.48231 0.90811 0.0
C1659 C 0.41911 0.51442 0.91424 0.0
C1660 C 0.42458 0.45463 0.92821 0.0
C1661 C 0.4022 0.4577 0.95557 0.0
H1662 H 0.45157 0.47864 0.88856 0.0
H1663 H 0.43731 0.43105 0.92314 0.0
S1664 S 0.35379 0.53451 0.97827 0.0
N1665 N 0.37783 0.54638 0.94649 0.0
N1666 N 0.36244 0.49434 0.98452 0.0
C1667 C 0.38587 0.48888 0.96016 0.0
C1668 C 0.39425 0.5172 0.93947 0.0
C1669 C 0.89806 0.01068 0.03167 0.0
C1670 C 0.90807 0.04352 0.04072 0.0
C1671 C 0.90616 0.98279 0.0519 0.0
C1672 C 0.92479 0.9866 0.08184 0.0
H1673 H 0.88555 0.00613 0.00786 0.0
H1674 H 0.89947 0.95797 0.04289 0.0
S1675 S 0.951 0.06753 0.12052 0.0
N1676 N 0.93309 0.07834 0.08464 0.0
N1677 N 0.94835 0.02613 0.12218 0.0
C1678 C 0.93225 0.01946 0.09268 0.0
C1679 C 0.92392 0.04781 0.07225 0.0
C1680 C 0.00491 0.2272 0.41344 0.0
C1681 C 0.98912 0.21267 0.38529 0.0
C1682 C 0.01216 0.26178 0.41438 0.0
C1683 C 0.00275 0.28316 0.38773 0.0
H1684 H 0.01197 0.21166 0.43474 0.0
H1685 H 0.02452 0.27198 0.43647 0.0
S1686 S 0.96022 0.25751 0.3087 0.0
N1687 N 0.96455 0.22205 0.33007 0.0
N1688 N 0.97675 0.28735 0.3325 0.0
C1689 C 0.98664 0.26896 0.35961 0.0
C1690 C 0.98021 0.2336 0.35821 0.0
C1691 C 0.9713 0.72789 0.12147 0.0
C1692 C 0.004 0.71425 0.12274 0.0
C1693 C 0.96593 0.76281 0.12099 0.0
C1694 C 0.99302 0.78571 0.12203 0.0
H1695 H 0.94954 0.7115 0.11997 0.0
H1696 H 0.94024 0.77183 0.11933 0.0
S1697 S 0.08362 0.76302 0.1283 0.0
N1698 N 0.06388 0.72647 0.12699 0.0
N1699 N 0.05388 0.792 0.12627 0.0
C1700 C 0.02586 0.77243 0.12448 0.0
C1701 C 0.03132 0.73678 0.12475 0.0
C1702 C 0.40018 0.96216 0.23745 0.0
C1703 C 0.39527 0.98879 0.21448 0.0
C1704 C 0.39949 0.96761 0.27235 0.0
C1705 C 0.39427 0.99997 0.28576 0.0
H1706 H 0.40494 0.93684 0.22847 0.0
H1707 H 0.40401 0.94637 0.28889 0.0
S1708 S 0.37772 0.07797 0.23683 0.0
N1709 N 0.3831 0.04857 0.20795 0.0
N1710 N 0.3822 0.05876 0.27343 0.0
C1711 C 0.38846 0.0267 0.26318 0.0
C1712 C 0.38882 0.02112 0.22762 0.0
C1713 C 0.60871 0.48077 0.21962 0.0
C1714 C 0.60936 0.5148 0.20966 0.0
C1715 C 0.60971 0.47161 0.25371 0.0
C1716 C 0.61186 0.49607 0.27928 0.0
H1717 H 0.60645 0.46097 0.20099 0.0
H1718 H 0.60837 0.44509 0.26002 0.0
S1719 S 0.61707 0.58868 0.26638 0.0
N1720 N 0.61409 0.57302 0.228 0.0
N1721 N 0.6164 0.55593 0.292 0.0
C1722 C 0.61378 0.53019 0.2696 0.0
C1723 C 0.61238 0.53952 0.23485 0.0
C1724 C 0.26779 0.35551 0.98633 0.0
C1725 C 0.28261 0.38477 0.99967 0.0
C1726 C 0.2332 0.35442 0.97892 0.0
C1727 C 0.21265 0.38292 0.98353 0.0
H1728 H 0.28294 0.33322 0.98204 0.0
H1729 H 0.22261 0.33138 0.96887 0.0
S1730 S 0.23959 0.46584 0.01692 0.0
N1731 N 0.27421 0.44279 0.01724 0.0
N1732 N 0.20962 0.4412 0.00192 0.0
C1733 C 0.22732 0.41242 0.9964 0.0
C1734 C 0.26221 0.41322 0.00486 0.0
C1735 C 0.22685 0.61431 0.47226 0.0
C1736 C 0.21503 0.61638 0.5056 0.0
C1737 C 0.26141 0.61439 0.46503 0.0
C1738 C 0.28564 0.61697 0.4908 0.0
H1739 H 0.20931 0.61168 0.45152 0.0
H1740 H 0.26914 0.61202 0.43896 0.0
S1741 S 0.26776 0.62571 0.58226 0.0
N1742 N 0.23025 0.6229 0.56458 0.0
N1743 N 0.29514 0.62339 0.55106 0.0
C1744 C 0.27413 0.62027 0.52421 0.0
C1745 C 0.23889 0.61985 0.53159 0.0
C1746 C 0.73071 0.88297 0.54614 0.0
C1747 C 0.71928 0.876 0.51332 0.0
C1748 C 0.76524 0.88423 0.55362 0.0
C1749 C 0.78972 0.87829 0.52864 0.0
H1750 H 0.71291 0.88867 0.56601 0.0
H1751 H 0.77272 0.89065 0.57906 0.0
S1752 S 0.77269 0.85493 0.43955 0.0
N1753 N 0.73504 0.86036 0.45627 0.0
N1754 N 0.79974 0.86237 0.4702 0.0
C1755 C 0.77851 0.86971 0.49604 0.0
C1756 C 0.74338 0.86867 0.48842 0.0
C1757 C 0.52475 0.76193 0.87348 0.0
C1758 C 0.49921 0.78643 0.87138 0.0
C1759 C 0.51721 0.72747 0.87312 0.0
C1760 C 0.48375 0.71593 0.87096 0.0
H1761 H 0.55089 0.76935 0.87596 0.0
H1762 H 0.53784 0.70978 0.87551 0.0
S1763 S 0.40758 0.76951 0.86233 0.0
N1764 N 0.43903 0.79657 0.86503 0.0
N1765 N 0.42491 0.73179 0.86461 0.0
C1766 C 0.45798 0.74007 0.86775 0.0
C1767 C 0.46568 0.77527 0.86786 0.0
C1768 C 0.52339 0.27293 0.60948 0.0
C1769 C 0.48994 0.28444 0.61171 0.0
C1770 C 0.531 0.23849 0.6103 0.0
C1771 C 0.50552 0.21407 0.61374 0.0
H1772 H 0.54393 0.29059 0.6062 0.0
H1773 H 0.55712 0.23102 0.6078 0.0
S1774 S 0.41399 0.23117 0.62336 0.0
N1775 N 0.43121 0.26879 0.61938 0.0
N1776 N 0.44544 0.20407 0.62125 0.0
C1777 C 0.47201 0.22528 0.6172 0.0
C1778 C 0.46424 0.26043 0.61606 0.0
C1779 C 0.87605 0.48782 0.77046 0.0
C1780 C 0.8741 0.52085 0.78316 0.0
C1781 C 0.87586 0.48149 0.73573 0.0
C1782 C 0.87343 0.50788 0.71211 0.0
H1783 H 0.87871 0.4666 0.78741 0.0
H1784 H 0.87821 0.45562 0.7274 0.0
S1785 S 0.86457 0.59883 0.73234 0.0
N1786 N 0.86745 0.5802 0.76939 0.0
N1787 N 0.8669 0.56836 0.70417 0.0
C1788 C 0.8701 0.54098 0.72449 0.0
C1789 C 0.87052 0.54744 0.75994 0.0
C1790 C 0.13399 0.96893 0.73491 0.0
C1791 C 0.13513 0.00155 0.72109 0.0
C1792 C 0.13372 0.96382 0.76984 0.0
C1793 C 0.13484 0.99108 0.79252 0.0
H1794 H 0.13212 0.94709 0.71868 0.0
H1795 H 0.13177 0.9382 0.77904 0.0
S1796 S 0.14196 0.08145 0.76924 0.0
N1797 N 0.14024 0.06148 0.73283 0.0
N1798 N 0.13985 0.05192 0.79843 0.0
C1799 C 0.13773 0.02379 0.77905 0.0
C1800 C 0.1378 0.029 0.7434 0.0
C1801 C 0.76631 0.11367 0.96434 0.0
C1802 C 0.7886 0.11788 0.99166 0.0
C1803 C 0.73127 0.11423 0.96889 0.0
C1804 C 0.71696 0.1187 0.00099 0.0
H1805 H 0.77593 0.10934 0.93918 0.0
H1806 H 0.71534 0.11009 0.94713 0.0
S1807 S 0.76386 0.13373 0.08051 0.0
N1808 N 0.79351 0.1289 0.05178 0.0
N1809 N 0.72778 0.1297 0.06028 0.0
C1810 C 0.73885 0.12408 0.02838 0.0
C1811 C 0.77459 0.12378 0.02372 0.0
C1812 C 0.92356 0.96373 0.24892 0.0
C1813 C 0.94451 0.97614 0.22333 0.0
C1814 C 0.9221 0.97982 0.28038 0.0
C1815 C 0.94114 0.00911 0.28709 0.0
H1816 H 0.90995 0.94035 0.24537 0.0
H1817 H 0.90728 0.96819 0.30012 0.0
S1818 S 0.99494 0.05468 0.22547 0.0
N1819 N 0.9812 0.02138 0.20476 0.0
N1820 N 0.97791 0.05215 0.26332 0.0
C1821 C 0.95969 0.02334 0.26038 0.0
C1822 C 0.96159 0.00664 0.22867 0.0
C1823 C 0.07519 0.50246 0.27114 0.0
C1824 C 0.05479 0.47372 0.27581 0.0
C1825 C 0.07154 0.52312 0.24256 0.0
C1826 C 0.04711 0.51586 0.21805 0.0
H1827 H 0.0928 0.51017 0.29048 0.0
H1828 H 0.08657 0.5458 0.24058 0.0
S1829 S 0.99186 0.44063 0.21498 0.0
N1830 N 0.01277 0.43674 0.2507 0.0
N1831 N 0.00556 0.47587 0.19772 0.0
C1832 C 0.02836 0.48604 0.22117 0.0
C1833 C 0.03232 0.46485 0.24984 0.0
C1834 C 0.24489 0.91299 0.98154 0.0
C1835 C 0.21873 0.93462 0.99142 0.0
C1836 C 0.27456 0.91058 0.00077 0.0
C1837 C 0.27873 0.9296 0.0305 0.0
H1838 H 0.24335 0.89963 0.9578 0.0
H1839 H 0.29512 0.89552 0.99105 0.0
S1840 S 0.21432 0.98457 0.07017 0.0
N1841 N 0.19663 0.97147 0.03492 0.0
N1842 N 0.25186 0.96674 0.0712 0.0
C1843 C 0.2513 0.94885 0.04201 0.0
C1844 C 0.22144 0.95146 0.02238 0.0
C1845 C 0.73894 0.54697 0.02064 0.0
C1846 C 0.71325 0.56885 0.0099 0.0
C1847 C 0.76961 0.54526 0.00341 0.0
C1848 C 0.77612 0.56599 0.97542 0.0
H1849 H 0.73465 0.5294 0.04107 0.0
H1850 H 0.78801 0.52674 0.01143 0.0
S1851 S 0.71951 0.6313 0.94049 0.0
N1852 N 0.69779 0.61428 0.97166 0.0
N1853 N 0.75616 0.61159 0.93997 0.0
C1854 C 0.75196 0.59 0.96619 0.0
C1855 C 0.72033 0.59131 0.98329 0.0
C1856 C 0.26027 0.01996 0.47535 0.0
C1857 C 0.28415 0.04581 0.47968 0.0
C1858 C 0.23199 0.01751 0.49605 0.0
C1859 C 0.22592 0.04107 0.52174 0.0
H1860 H 0.26398 0.0005 0.45659 0.0
H1861 H 0.21502 0.99648 0.49224 0.0
S1862 S 0.27823 0.11572 0.54158 0.0
N1863 N 0.29832 0.0971 0.51026 0.0
N1864 N 0.24435 0.09268 0.54884 0.0
C1865 C 0.24816 0.06835 0.52509 0.0
C1866 C 0.27745 0.0707 0.50413 0.0
C1867 C 0.75582 0.42749 0.52623 0.0
C1868 C 0.78053 0.45084 0.51667 0.0
C1869 C 0.72651 0.42333 0.50687 0.0
C1870 C 0.72116 0.44212 0.47712 0.0
H1871 H 0.75823 0.41382 0.54973 0.0
H1872 H 0.70721 0.4065 0.51629 0.0
S1873 S 0.78221 0.5015 0.43819 0.0
N1874 N 0.80038 0.48945 0.47357 0.0
N1875 N 0.74595 0.48123 0.43676 0.0
C1876 C 0.74735 0.46329 0.4659 0.0
C1877 C 0.77683 0.46781 0.48585 0.0
C1878 C 0.98054 0.27398 0.912 0.0
C1879 C 0.01095 0.2804 0.92934 0.0
C1880 C 0.96461 0.24241 0.91376 0.0
C1881 C 0.97846 0.21637 0.93318 0.0
H1882 H 0.96783 0.29407 0.89859 0.0
H1883 H 0.94025 0.23917 0.90192 0.0
S1884 S 0.05996 0.21766 0.97861 0.0
N1885 N 0.05636 0.25585 0.96257 0.0
N1886 N 0.02593 0.19714 0.96647 0.0
C1887 C 0.01003 0.2214 0.94825 0.0
C1888 C 0.02651 0.25324 0.94607 0.0
C1889 C 0.99513 0.72097 0.54294 0.0
C1890 C 0.02321 0.7157 0.56381 0.0
C1891 C 0.9743 0.74894 0.54712 0.0
C1892 C 0.98081 0.77314 0.57217 0.0
H1893 H 0.98956 0.70367 0.52258 0.0
H1894 H 0.95368 0.75229 0.52955 0.0
S1895 S 0.04972 0.76935 0.6353 0.0
N1896 N 0.05514 0.73521 0.61213 0.0
N1897 N 0.01621 0.78861 0.61983 0.0
C1898 C 0.0077 0.76716 0.59459 0.0
C1899 C 0.02888 0.73824 0.59043 0.0
C1900 C 0.49821 0.77434 0.46887 0.0
C1901 C 0.5288 0.77942 0.45175 0.0
C1902 C 0.48043 0.74409 0.46583 0.0
C1903 C 0.49309 0.71744 0.44624 0.0
H1904 H 0.48855 0.79349 0.48576 0.0
H1905 H 0.45789 0.74084 0.48087 0.0
S1906 S 0.57001 0.7199 0.39306 0.0
N1907 N 0.56914 0.75712 0.41164 0.0
N1908 N 0.53628 0.69956 0.40652 0.0
C1909 C 0.5225 0.72312 0.42715 0.0
C1910 C 0.54025 0.75431 0.42977 0.0
C1911 C 0.4692 0.49563 0.76669 0.0
C1912 C 0.44372 0.51958 0.77222 0.0
C1913 C 0.46867 0.47452 0.73866 0.0
C1914 C 0.44276 0.47653 0.71459 0.0
H1915 H 0.4901 0.4933 0.78406 0.0
H1916 H 0.48943 0.4571 0.73542 0.0
S1917 S 0.36882 0.53374 0.71842 0.0
N1918 N 0.39072 0.54294 0.75258 0.0
N1919 N 0.38984 0.50346 0.69908 0.0
C1920 C 0.41621 0.49939 0.72048 0.0
C1921 C 0.41667 0.52086 0.74948 0.0
C1922 C 0.58355 0.97727 0.75686 0.0
C1923 C 0.56159 0.98465 0.78358 0.0
C1924 C 0.58625 0.99925 0.72916 0.0
C1925 C 0.56712 0.02915 0.72762 0.0
H1926 H 0.59693 0.9535 0.75632 0.0
H1927 H 0.60148 0.99156 0.70788 0.0
S1928 S 0.51139 0.06262 0.79469 0.0
N1929 N 0.52453 0.02597 0.8093 0.0
N1930 N 0.52944 0.06705 0.75749 0.0
C1931 C 0.54749 0.038 0.75568 0.0
C1932 C 0.54474 0.01575 0.78362 0.0
C1933 C 0.51935 0.27869 0.06397 0.0
C1934 C 0.48906 0.28309 0.04585 0.0
C1935 C 0.53647 0.24772 0.06395 0.0
C1936 C 0.52404 0.22039 0.04541 0.0
H1937 H 0.53082 0.29978 0.07691 0.0
H1938 H 0.56055 0.24584 0.07663 0.0
S1939 S 0.44393 0.21681 0.99766 0.0
N1940 N 0.44567 0.25573 0.01216 0.0
N1941 N 0.47831 0.19805 0.0116 0.0
C1942 C 0.49279 0.22361 0.0292 0.0
C1943 C 0.47509 0.25483 0.02964 0.0
loop_
_geom_bond_atom_site_label_1
_geom_bond_atom_site_label_2
_geom_bond_distance
_geom_bond_site_symmetry_2
_ccdc_geom_bond_type
Co0 O2 2.143 . S
Co0 O8 2.074 . S
Co0 O11 2.093 . S
Co0 O24 2.097 1_455 S
Co0 N41 2.151 . S
Co0 N49 2.214 1_545 S
Co1 O2 2.160 1_655 S
Co1 O7 2.058 1_655 S
Co1 O17 2.057 . S
Co1 O32 2.037 . S
Co1 N36 2.145 . S
Co1 N57 2.257 . S
O2 Co0 2.143 . S
O2 Co1 2.160 1_455 S
C3 O4 1.278 . S
C3 O11 1.224 1_655 S
O4 C3 1.278 . S
C5 O6 1.237 1_655 S
C5 O17 1.238 . S
O6 C5 1.237 1_455 S
O7 Co1 2.058 1_455 S
O7 C33 1.269 . S
O8 Co0 2.074 . S
O8 C33 1.257 . S
H9 C34 0.930 . S
H10 C40 0.930 . S
O11 Co0 2.093 . S
O11 C3 1.224 1_455 S
H12 C44 0.929 . S
H13 C46 0.930 . S
H14 C47 0.930 . S
H15 C45 0.929 . S
H16 C48 0.928 . S
O17 Co1 2.057 . S
O17 C5 1.238 . S
H18 C37 0.929 . S
H19 C38 0.929 . S
H20 C50 0.931 . S
H21 C42 0.929 . S
H22 C51 0.930 . S
H23 C43 0.931 . S
O24 Co0 2.097 1_655 S
O24 C52 1.214 . S
H25 C53 0.929 . S
H26 C54 0.929 . S
H27 C55 0.930 . S
H28 C56 0.929 . S
H29 C58 0.930 . S
H30 C35 0.930 . S
H31 C39 0.930 . S
O32 Co1 2.037 . S
O32 C52 1.234 . S
C33 O7 1.269 . S
C33 O8 1.257 . S
C34 H9 0.930 . S
C34 C37 1.388 . S
C34 C39 1.418 . S
C35 H30 0.930 . S
C35 C38 1.404 . S
C35 C39 1.353 . S
N36 Co1 2.145 . S
N36 C37 1.397 . S
N36 C38 1.334 . S
C37 H18 0.929 . S
C37 C34 1.388 . S
C37 N36 1.397 . S
C38 H19 0.929 . S
C38 C35 1.404 . S
C38 N36 1.334 . S
C39 H31 0.930 . S
C39 C34 1.418 . S
C39 C35 1.353 . S
C40 H10 0.930 . S
C40 N41 1.330 . S
C40 C42 1.446 . S
N41 Co0 2.151 . S
N41 C40 1.330 . S
N41 C45 1.418 . S
C42 H21 0.929 . S
C42 C40 1.446 . S
C42 C43 1.332 . S
C43 H23 0.931 . S
C43 C42 1.332 . S
C43 C44 1.267 . S
C44 H12 0.929 . S
C44 C43 1.267 . S
C44 C45 1.251 . S
C45 H15 0.929 . S
C45 N41 1.418 . S
C45 C44 1.251 . S
C46 H13 0.930 . S
C46 C48 1.406 . S
C46 C51 1.261 . S
C47 H14 0.930 . S
C47 N49 1.325 . S
C47 C50 1.357 . S
C48 H16 0.928 . S
C48 C46 1.406 . S
C48 N49 1.261 . S
N49 Co0 2.214 1_565 S
N49 C47 1.325 . S
N49 C48 1.261 . S
C50 H20 0.931 . S
C50 C47 1.357 . S
C50 C51 1.312 . S
C51 H22 0.930 . S
C51 C46 1.261 . S
C51 C50 1.312 . S
C52 O24 1.214 . S
C52 O32 1.234 . S
C53 H25 0.929 . S
C53 C56 1.391 . S
C53 C58 1.391 . S
C54 H26 0.929 . S
C54 C55 1.390 . S
C54 N57 1.391 . S
C55 H27 0.930 . S
C55 C54 1.390 . S
C55 C56 1.392 . S
C56 H28 0.929 . S
C56 C53 1.391 . S
C56 C55 1.392 . S
N57 Co1 2.257 . S
N57 C54 1.391 . S
N57 C58 1.388 . S
C58 H29 0.930 . S
C58 C53 1.391 . S
C58 N57 1.388 . S
Co59 O61 2.143 . S
Co59 O67 2.074 . S
Co59 O70 2.093 . S
Co59 O83 2.097 1_655 S
Co59 N100 2.151 . S
Co59 N108 2.214 . S
Co60 O61 2.160 1_455 S
Co60 O66 2.058 1_455 S
Co60 O76 2.057 . S
Co60 O91 2.037 . S
Co60 N95 2.145 . S
Co60 N116 2.257 . S
O61 Co59 2.143 . S
O61 Co60 2.160 1_655 S
C62 O63 1.278 . S
C62 O70 1.224 1_455 S
O63 C62 1.278 . S
C64 O65 1.245 1_455 S
C64 O76 1.232 . S
O65 C64 1.245 1_655 S
O66 Co60 2.058 1_655 S
O66 C92 1.269 . S
O67 Co59 2.074 . S
O67 C92 1.257 . S
H68 C93 0.930 . S
H69 C99 0.930 . S
O70 Co59 2.093 . S
O70 C62 1.224 1_655 S
H71 C103 0.929 . S
H72 C105 0.930 . S
H73 C106 0.930 . S
H74 C104 0.929 . S
H75 C107 0.928 . S
O76 Co60 2.057 . S
O76 C64 1.232 . S
H77 C96 0.929 . S
H78 C97 0.929 . S
H79 C109 0.931 . S
H80 C101 0.929 . S
H81 C110 0.930 . S
H82 C102 0.931 . S
O83 Co59 2.097 1_455 S
O83 C111 1.214 . S
H84 C112 0.929 . S
H85 C113 0.929 . S
H86 C114 0.930 . S
H87 C115 0.929 . S
H88 C117 0.930 . S
H89 C94 0.930 . S
H90 C98 0.930 . S
O91 Co60 2.037 . S
O91 C111 1.234 . S
C92 O66 1.269 . S
C92 O67 1.257 . S
C93 H68 0.930 . S
C93 C96 1.388 . S
C93 C98 1.418 . S
C94 H89 0.930 . S
C94 C97 1.404 . S
C94 C98 1.353 . S
N95 Co60 2.145 . S
N95 C96 1.397 . S
N95 C97 1.334 . S
C96 H77 0.929 . S
C96 C93 1.388 . S
C96 N95 1.397 . S
C97 H78 0.929 . S
C97 C94 1.404 . S
C97 N95 1.334 . S
C98 H90 0.930 . S
C98 C93 1.418 . S
C98 C94 1.353 . S
C99 H69 0.930 . S
C99 N100 1.330 . S
C99 C101 1.446 . S
N100 Co59 2.151 . S
N100 C99 1.330 . S
N100 C104 1.418 . S
C101 H80 0.929 . S
C101 C99 1.446 . S
C101 C102 1.332 . S
C102 H82 0.931 . S
C102 C101 1.332 . S
C102 C103 1.267 . S
C103 H71 0.929 . S
C103 C102 1.267 . S
C103 C104 1.251 . S
C104 H74 0.929 . S
C104 N100 1.418 . S
C104 C103 1.251 . S
C105 H72 0.930 . S
C105 C107 1.406 . S
C105 C110 1.261 . S
C106 H73 0.930 . S
C106 N108 1.325 . S
C106 C109 1.357 . S
C107 H75 0.928 . S
C107 C105 1.406 . S
C107 N108 1.261 . S
N108 Co59 2.214 . S
N108 C106 1.325 . S
N108 C107 1.261 . S
C109 H79 0.931 . S
C109 C106 1.357 . S
C109 C110 1.312 . S
C110 H81 0.930 . S
C110 C105 1.261 . S
C110 C109 1.312 . S
C111 O83 1.214 . S
C111 O91 1.234 . S
C112 H84 0.929 . S
C112 C115 1.391 . S
C112 C117 1.391 . S
C113 H85 0.929 . S
C113 C114 1.390 . S
C113 N116 1.391 . S
C114 H86 0.930 . S
C114 C113 1.390 . S
C114 C115 1.392 . S
C115 H87 0.929 . S
C115 C112 1.391 . S
C115 C114 1.392 . S
N116 Co60 2.257 . S
N116 C113 1.391 . S
N116 C117 1.388 . S
C117 H88 0.930 . S
C117 C112 1.391 . S
C117 N116 1.388 . S
Co118 O120 2.143 . S
Co118 O126 2.074 . S
Co118 O129 2.093 . S
Co118 O142 2.097 1_455 S
Co118 N159 2.151 . S
Co118 N167 2.214 1_565 S
Co119 O120 2.160 1_655 S
Co119 O125 2.058 1_655 S
Co119 O135 2.057 . S
Co119 O150 2.037 . S
Co119 N154 2.145 . S
Co119 N175 2.257 . S
O120 Co118 2.143 . S
O120 Co119 2.160 1_455 S
C121 O122 1.278 . S
C121 O129 1.224 1_655 S
O122 C121 1.278 . S
C123 O124 1.245 1_655 S
C123 O135 1.232 . S
O124 C123 1.245 1_455 S
O125 Co119 2.058 1_455 S
O125 C151 1.269 . S
O126 Co118 2.074 . S
O126 C151 1.257 . S
H127 C152 0.930 1_556 S
H128 C158 0.930 . S
O129 Co118 2.093 . S
O129 C121 1.224 1_455 S
H130 C162 0.929 . S
H131 C164 0.930 . S
H132 C165 0.930 . S
H133 C163 0.929 . S
H134 C166 0.928 . S
O135 Co119 2.057 . S
O135 C123 1.232 . S
H136 C155 0.929 . S
H137 C156 0.929 . S
H138 C168 0.931 . S
H139 C160 0.929 . S
H140 C169 0.930 . S
H141 C161 0.931 . S
O142 Co118 2.097 1_655 S
O142 C170 1.214 . S
H143 C171 0.929 . S
H144 C172 0.929 . S
H145 C173 0.930 . S
H146 C174 0.929 . S
H147 C176 0.930 . S
H148 C153 0.930 . S
H149 C157 0.930 1_556 S
O150 Co119 2.037 . S
O150 C170 1.234 . S
C151 O125 1.269 . S
C151 O126 1.257 . S
C152 H127 0.930 1_554 S
C152 C155 1.388 . S
C152 C157 1.418 . S
C153 H148 0.930 . S
C153 C156 1.404 . S
C153 C157 1.353 . S
N154 Co119 2.145 . S
N154 C155 1.397 . S
N154 C156 1.334 . S
C155 H136 0.929 . S
C155 C152 1.388 . S
C155 N154 1.397 . S
C156 H137 0.929 . S
C156 C153 1.404 . S
C156 N154 1.334 . S
C157 H149 0.930 1_554 S
C157 C152 1.418 . S
C157 C153 1.353 . S
C158 H128 0.930 . S
C158 N159 1.330 . S
C158 C160 1.446 . S
N159 Co118 2.151 . S
N159 C158 1.330 . S
N159 C163 1.418 . S
C160 H139 0.929 . S
C160 C158 1.446 . S
C160 C161 1.332 . S
C161 H141 0.931 . S
C161 C160 1.332 . S
C161 C162 1.267 . S
C162 H130 0.929 . S
C162 C161 1.267 . S
C162 C163 1.251 . S
C163 H133 0.929 . S
C163 N159 1.418 . S
C163 C162 1.251 . S
C164 H131 0.930 . S
C164 C166 1.406 . S
C164 C169 1.261 . S
C165 H132 0.930 . S
C165 N167 1.325 . S
C165 C168 1.357 . S
C166 H134 0.928 . S
C166 C164 1.406 . S
C166 N167 1.261 . S
N167 Co118 2.214 1_545 S
N167 C165 1.325 . S
N167 C166 1.261 . S
C168 H138 0.931 . S
C168 C165 1.357 . S
C168 C169 1.312 . S
C169 H140 0.930 . S
C169 C164 1.261 . S
C169 C168 1.312 . S
C170 O142 1.214 . S
C170 O150 1.234 . S
C171 H143 0.929 . S
C171 C174 1.391 . S
C171 C176 1.391 . S
C172 H144 0.929 . S
C172 C173 1.390 . S
C172 N175 1.391 . S
C173 H145 0.930 . S
C173 C172 1.390 . S
C173 C174 1.392 . S
C174 H146 0.929 . S
C174 C171 1.391 . S
C174 C173 1.392 . S
N175 Co119 2.257 . S
N175 C172 1.391 . S
N175 C176 1.388 . S
C176 H147 0.930 . S
C176 C171 1.391 . S
C176 N175 1.388 . S
Co177 O179 2.143 . S
Co177 O185 2.074 . S
Co177 O188 2.093 . S
Co177 O201 2.097 1_655 S
Co177 N218 2.151 . S
Co177 N226 2.214 . S
Co178 O179 2.160 1_455 S
Co178 O184 2.058 1_455 S
Co178 O194 2.057 . S
Co178 O209 2.037 . S
Co178 N213 2.145 . S
Co178 N234 2.257 . S
O179 Co177 2.143 . S
O179 Co178 2.160 1_655 S
C180 O181 1.278 . S
C180 O188 1.224 1_455 S
O181 C180 1.278 . S
C182 O183 1.245 1_455 S
C182 O194 1.232 . S
O183 C182 1.245 1_655 S
O184 Co178 2.058 1_655 S
O184 C210 1.269 . S
O185 Co177 2.074 . S
O185 C210 1.257 . S
H186 C211 0.930 1_556 S
H187 C217 0.930 . S
O188 Co177 2.093 . S
O188 C180 1.224 1_655 S
H189 C221 0.929 . S
H190 C223 0.930 . S
H191 C224 0.930 . S
H192 C222 0.929 . S
H193 C225 0.928 . S
O194 Co178 2.057 . S
O194 C182 1.232 . S
H195 C214 0.929 . S
H196 C215 0.929 . S
H197 C227 0.931 . S
H198 C219 0.929 . S
H199 C228 0.930 . S
H200 C220 0.931 . S
O201 Co177 2.097 1_455 S
O201 C229 1.214 . S
H202 C230 0.929 . S
H203 C231 0.929 . S
H204 C232 0.930 . S
H205 C233 0.929 . S
H206 C235 0.930 . S
H207 C212 0.930 . S
H208 C216 0.930 1_556 S
O209 Co178 2.037 . S
O209 C229 1.234 . S
C210 O184 1.269 . S
C210 O185 1.257 . S
C211 H186 0.930 1_554 S
C211 C214 1.388 . S
C211 C216 1.418 . S
C212 H207 0.930 . S
C212 C215 1.404 . S
C212 C216 1.353 . S
N213 Co178 2.145 . S
N213 C214 1.397 . S
N213 C215 1.334 . S
C214 H195 0.929 . S
C214 C211 1.388 . S
C214 N213 1.397 . S
C215 H196 0.929 . S
C215 C212 1.404 . S
C215 N213 1.334 . S
C216 H208 0.930 1_554 S
C216 C211 1.418 . S
C216 C212 1.353 . S
C217 H187 0.930 . S
C217 N218 1.330 . S
C217 C219 1.446 . S
N218 Co177 2.151 . S
N218 C217 1.330 . S
N218 C222 1.418 . S
C219 H198 0.929 . S
C219 C217 1.446 . S
C219 C220 1.332 . S
C220 H200 0.931 . S
C220 C219 1.332 . S
C220 C221 1.267 . S
C221 H189 0.929 . S
C221 C220 1.267 . S
C221 C222 1.251 . S
C222 H192 0.929 . S
C222 N218 1.418 . S
C222 C221 1.251 . S
C223 H190 0.930 . S
C223 C225 1.406 . S
C223 C228 1.261 . S
C224 H191 0.930 . S
C224 N226 1.325 . S
C224 C227 1.357 . S
C225 H193 0.928 . S
C225 C223 1.406 . S
C225 N226 1.261 . S
N226 Co177 2.214 . S
N226 C224 1.325 . S
N226 C225 1.261 . S
C227 H197 0.931 . S
C227 C224 1.357 . S
C227 C228 1.312 . S
C228 H199 0.930 . S
C228 C223 1.261 . S
C228 C227 1.312 . S
C229 O201 1.214 . S
C229 O209 1.234 . S
C230 H202 0.929 . S
C230 C233 1.391 . S
C230 C235 1.391 . S
C231 H203 0.929 . S
C231 C232 1.390 . S
C231 N234 1.391 . S
C232 H204 0.930 . S
C232 C231 1.390 . S
C232 C233 1.392 . S
C233 H205 0.929 . S
C233 C230 1.391 . S
C233 C232 1.392 . S
N234 Co178 2.257 . S
N234 C231 1.391 . S
N234 C235 1.388 . S
C235 H206 0.930 . S
C235 C230 1.391 . S
C235 N234 1.388 . S
Co236 O238 2.143 . S
Co236 O244 2.074 . S
Co236 O247 2.093 . S
Co236 O260 2.097 1_545 S
Co236 N277 2.151 . S
Co236 N285 2.214 1_554 S
Co237 O238 2.160 1_565 S
Co237 O243 2.058 1_565 S
Co237 O253 2.057 . S
Co237 O268 2.037 . S
Co237 N272 2.145 . S
Co237 N293 2.257 . S
O238 Co236 2.143 . S
O238 Co237 2.160 1_545 S
C239 O240 1.278 . S
C239 O247 1.224 1_565 S
O240 C239 1.278 . S
C241 O242 1.237 1_565 S
C241 O253 1.238 . S
O242 C241 1.237 1_545 S
O243 Co237 2.058 1_545 S
O243 C269 1.269 . S
O244 Co236 2.074 . S
O244 C269 1.257 . S
H245 C270 0.930 . S
H246 C276 0.930 . S
O247 Co236 2.093 . S
O247 C239 1.224 1_545 S
H248 C280 0.929 . S
H249 C282 0.930 . S
H250 C283 0.930 . S
H251 C281 0.929 . S
H252 C284 0.928 . S
O253 Co237 2.057 . S
O253 C241 1.238 . S
H254 C273 0.929 . S
H255 C274 0.929 . S
H256 C286 0.931 . S
H257 C278 0.929 . S
H258 C287 0.930 . S
H259 C279 0.931 . S
O260 Co236 2.097 1_565 S
O260 C288 1.214 . S
H261 C289 0.929 . S
H262 C290 0.929 . S
H263 C291 0.930 . S
H264 C292 0.929 . S
H265 C294 0.930 . S
H266 C271 0.930 . S
H267 C275 0.930 . S
O268 Co237 2.037 . S
O268 C288 1.234 . S
C269 O243 1.269 . S
C269 O244 1.257 . S
C270 H245 0.930 . S
C270 C273 1.388 . S
C270 C275 1.418 . S
C271 H266 0.930 . S
C271 C274 1.404 . S
C271 C275 1.353 . S
N272 Co237 2.145 . S
N272 C273 1.397 . S
N272 C274 1.334 . S
C273 H254 0.929 . S
C273 C270 1.388 . S
C273 N272 1.397 . S
C274 H255 0.929 . S
C274 C271 1.404 . S
C274 N272 1.334 . S
C275 H267 0.930 . S
C275 C270 1.418 . S
C275 C271 1.353 . S
C276 H246 0.930 . S
C276 N277 1.330 . S
C276 C278 1.446 . S
N277 Co236 2.151 . S
N277 C276 1.330 . S
N277 C281 1.418 . S
C278 H257 0.929 . S
C278 C276 1.446 . S
C278 C279 1.332 . S
C279 H259 0.931 . S
C279 C278 1.332 . S
C279 C280 1.267 . S
C280 H248 0.929 . S
C280 C279 1.267 . S
C280 C281 1.251 . S
C281 H251 0.929 . S
C281 N277 1.418 . S
C281 C280 1.251 . S
C282 H249 0.930 . S
C282 C284 1.406 . S
C282 C287 1.261 . S
C283 H250 0.930 . S
C283 N285 1.325 . S
C283 C286 1.357 . S
C284 H252 0.928 . S
C284 C282 1.406 . S
C284 N285 1.261 . S
N285 Co236 2.214 1_556 S
N285 C283 1.325 . S
N285 C284 1.261 . S
C286 H256 0.931 . S
C286 C283 1.357 . S
C286 C287 1.312 . S
C287 H258 0.930 . S
C287 C282 1.261 . S
C287 C286 1.312 . S
C288 O260 1.214 . S
C288 O268 1.234 . S
C289 H261 0.929 . S
C289 C292 1.391 . S
C289 C294 1.391 . S
C290 H262 0.929 . S
C290 C291 1.390 . S
C290 N293 1.391 . S
C291 H263 0.930 . S
C291 C290 1.390 . S
C291 C292 1.392 . S
C292 H264 0.929 . S
C292 C289 1.391 . S
C292 C291 1.392 . S
N293 Co237 2.257 . S
N293 C290 1.391 . S
N293 C294 1.388 . S
C294 H265 0.930 . S
C294 C289 1.391 . S
C294 N293 1.388 . S
Co295 O297 2.143 . S
Co295 O303 2.074 . S
Co295 O306 2.093 . S
Co295 O319 2.097 . S
Co295 N336 2.151 . S
Co295 N344 2.214 1_554 S
Co296 O297 2.160 . S
Co296 O302 2.058 . S
Co296 O312 2.057 . S
Co296 O327 2.037 . S
Co296 N331 2.145 . S
Co296 N352 2.257 . S
O297 Co295 2.143 . S
O297 Co296 2.160 . S
C298 O299 1.278 . S
C298 O306 1.224 . S
O299 C298 1.278 . S
C300 O301 1.245 . S
C300 O312 1.232 . S
O301 C300 1.245 . S
O302 Co296 2.058 . S
O302 C328 1.269 . S
O303 Co295 2.074 . S
O303 C328 1.257 . S
H304 C329 0.930 . S
H305 C335 0.930 . S
O306 Co295 2.093 . S
O306 C298 1.224 . S
H307 C339 0.929 . S
H308 C341 0.930 . S
H309 C342 0.930 . S
H310 C340 0.929 . S
H311 C343 0.928 . S
O312 Co296 2.057 . S
O312 C300 1.232 . S
H313 C332 0.929 . S
H314 C333 0.929 . S
H315 C345 0.931 . S
H316 C337 0.929 . S
H317 C346 0.930 . S
H318 C338 0.931 . S
O319 Co295 2.097 . S
O319 C347 1.214 . S
H320 C348 0.929 . S
H321 C349 0.929 . S
H322 C350 0.930 . S
H323 C351 0.929 . S
H324 C353 0.930 . S
H325 C330 0.930 . S
H326 C334 0.930 . S
O327 Co296 2.037 . S
O327 C347 1.234 . S
C328 O302 1.269 . S
C328 O303 1.257 . S
C329 H304 0.930 . S
C329 C332 1.388 . S
C329 C334 1.418 . S
C330 H325 0.930 . S
C330 C333 1.404 . S
C330 C334 1.353 . S
N331 Co296 2.145 . S
N331 C332 1.397 . S
N331 C333 1.334 . S
C332 H313 0.929 . S
C332 C329 1.388 . S
C332 N331 1.397 . S
C333 H314 0.929 . S
C333 C330 1.404 . S
C333 N331 1.334 . S
C334 H326 0.930 . S
C334 C329 1.418 . S
C334 C330 1.353 . S
C335 H305 0.930 . S
C335 N336 1.330 . S
C335 C337 1.446 . S
N336 Co295 2.151 . S
N336 C335 1.330 . S
N336 C340 1.418 . S
C337 H316 0.929 . S
C337 C335 1.446 . S
C337 C338 1.332 . S
C338 H318 0.931 . S
C338 C337 1.332 . S
C338 C339 1.267 . S
C339 H307 0.929 . S
C339 C338 1.267 . S
C339 C340 1.251 . S
C340 H310 0.929 . S
C340 N336 1.418 . S
C340 C339 1.251 . S
C341 H308 0.930 . S
C341 C343 1.406 . S
C341 C346 1.261 . S
C342 H309 0.930 . S
C342 N344 1.325 . S
C342 C345 1.357 . S
C343 H311 0.928 . S
C343 C341 1.406 . S
C343 N344 1.261 . S
N344 Co295 2.214 1_556 S
N344 C342 1.325 . S
N344 C343 1.261 . S
C345 H315 0.931 . S
C345 C342 1.357 . S
C345 C346 1.312 . S
C346 H317 0.930 . S
C346 C341 1.261 . S
C346 C345 1.312 . S
C347 O319 1.214 . S
C347 O327 1.234 . S
C348 H320 0.929 . S
C348 C351 1.391 . S
C348 C353 1.391 . S
C349 H321 0.929 . S
C349 C350 1.390 . S
C349 N352 1.391 . S
C350 H322 0.930 . S
C350 C349 1.390 . S
C350 C351 1.392 . S
C351 H323 0.929 . S
C351 C348 1.391 . S
C351 C350 1.392 . S
N352 Co296 2.257 . S
N352 C349 1.391 . S
N352 C353 1.388 . S
C353 H324 0.930 . S
C353 C348 1.391 . S
C353 N352 1.388 . S
Co354 O356 2.143 . S
Co354 O362 2.074 . S
Co354 O365 2.093 . S
Co354 O378 2.097 1_565 S
Co354 N395 2.151 . S
Co354 N403 2.214 . S
Co355 O356 2.160 1_545 S
Co355 O361 2.058 1_545 S
Co355 O371 2.057 . S
Co355 O386 2.037 . S
Co355 N390 2.145 . S
Co355 N411 2.257 . S
O356 Co354 2.143 . S
O356 Co355 2.160 1_565 S
C357 O358 1.278 . S
C357 O365 1.224 1_545 S
O358 C357 1.278 . S
C359 O360 1.245 1_545 S
C359 O371 1.232 . S
O360 C359 1.245 1_565 S
O361 Co355 2.058 1_565 S
O361 C387 1.269 . S
O362 Co354 2.074 . S
O362 C387 1.257 . S
H363 C388 0.930 . S
H364 C394 0.930 . S
O365 Co354 2.093 . S
O365 C357 1.224 1_565 S
H366 C398 0.929 . S
H367 C400 0.930 . S
H368 C401 0.930 . S
H369 C399 0.929 . S
H370 C402 0.928 . S
O371 Co355 2.057 . S
O371 C359 1.232 . S
H372 C391 0.929 . S
H373 C392 0.929 . S
H374 C404 0.931 . S
H375 C396 0.929 . S
H376 C405 0.930 . S
H377 C397 0.931 . S
O378 Co354 2.097 1_545 S
O378 C406 1.214 . S
H379 C407 0.929 . S
H380 C408 0.929 . S
H381 C409 0.930 . S
H382 C410 0.929 . S
H383 C412 0.930 . S
H384 C389 0.930 . S
H385 C393 0.930 . S
O386 Co355 2.037 . S
O386 C406 1.234 . S
C387 O361 1.269 . S
C387 O362 1.257 . S
C388 H363 0.930 . S
C388 C391 1.388 . S
C388 C393 1.418 . S
C389 H384 0.930 . S
C389 C392 1.404 . S
C389 C393 1.353 . S
N390 Co355 2.145 . S
N390 C391 1.397 . S
N390 C392 1.334 . S
C391 H372 0.929 . S
C391 C388 1.388 . S
C391 N390 1.397 . S
C392 H373 0.929 . S
C392 C389 1.404 . S
C392 N390 1.334 . S
C393 H385 0.930 . S
C393 C388 1.418 . S
C393 C389 1.353 . S
C394 H364 0.930 . S
C394 N395 1.330 . S
C394 C396 1.446 . S
N395 Co354 2.151 . S
N395 C394 1.330 . S
N395 C399 1.418 . S
C396 H375 0.929 . S
C396 C394 1.446 . S
C396 C397 1.332 . S
C397 H377 0.931 . S
C397 C396 1.332 . S
C397 C398 1.267 . S
C398 H366 0.929 . S
C398 C397 1.267 . S
C398 C399 1.251 . S
C399 H369 0.929 . S
C399 N395 1.418 . S
C399 C398 1.251 . S
C400 H367 0.930 . S
C400 C402 1.406 . S
C400 C405 1.261 . S
C401 H368 0.930 . S
C401 N403 1.325 . S
C401 C404 1.357 . S
C402 H370 0.928 . S
C402 C400 1.406 . S
C402 N403 1.261 . S
N403 Co354 2.214 . S
N403 C401 1.325 . S
N403 C402 1.261 . S
C404 H374 0.931 . S
C404 C401 1.357 . S
C404 C405 1.312 . S
C405 H376 0.930 . S
C405 C400 1.261 . S
C405 C404 1.312 . S
C406 O378 1.214 . S
C406 O386 1.234 . S
C407 H379 0.929 . S
C407 C410 1.391 . S
C407 C412 1.391 . S
C408 H380 0.929 . S
C408 C409 1.390 . S
C408 N411 1.391 . S
C409 H381 0.930 . S
C409 C408 1.390 . S
C409 C410 1.392 . S
C410 H382 0.929 . S
C410 C407 1.391 . S
C410 C409 1.392 . S
N411 Co355 2.257 . S
N411 C408 1.391 . S
N411 C412 1.388 . S
C412 H383 0.930 . S
C412 C407 1.391 . S
C412 N411 1.388 . S
Co413 O415 2.143 . S
Co413 O421 2.074 . S
Co413 O424 2.093 . S
Co413 O437 2.097 . S
Co413 N454 2.151 . S
Co413 N462 2.214 . S
Co414 O415 2.160 . S
Co414 O420 2.058 . S
Co414 O430 2.057 . S
Co414 O445 2.037 . S
Co414 N449 2.145 . S
Co414 N470 2.257 . S
O415 Co413 2.143 . S
O415 Co414 2.160 . S
C416 O417 1.278 . S
C416 O424 1.224 . S
O417 C416 1.278 . S
C418 O419 1.245 . S
C418 O430 1.232 . S
O419 C418 1.245 . S
O420 Co414 2.058 . S
O420 C446 1.269 . S
O421 Co413 2.074 . S
O421 C446 1.257 . S
H422 C447 0.930 . S
H423 C453 0.930 . S
O424 Co413 2.093 . S
O424 C416 1.224 . S
H425 C457 0.929 . S
H426 C459 0.930 . S
H427 C460 0.930 . S
H428 C458 0.929 . S
H429 C461 0.928 . S
O430 Co414 2.057 . S
O430 C418 1.232 . S
H431 C450 0.929 . S
H432 C451 0.929 . S
H433 C463 0.931 . S
H434 C455 0.929 . S
H435 C464 0.930 . S
H436 C456 0.931 . S
O437 Co413 2.097 . S
O437 C465 1.214 . S
H438 C466 0.929 . S
H439 C467 0.929 . S
H440 C468 0.930 . S
H441 C469 0.929 . S
H442 C471 0.930 . S
H443 C448 0.930 . S
H444 C452 0.930 . S
O445 Co414 2.037 . S
O445 C465 1.234 . S
C446 O420 1.269 . S
C446 O421 1.257 . S
C447 H422 0.930 . S
C447 C450 1.388 . S
C447 C452 1.418 . S
C448 H443 0.930 . S
C448 C451 1.404 . S
C448 C452 1.353 . S
N449 Co414 2.145 . S
N449 C450 1.397 . S
N449 C451 1.334 . S
C450 H431 0.929 . S
C450 C447 1.388 . S
C450 N449 1.397 . S
C451 H432 0.929 . S
C451 C448 1.404 . S
C451 N449 1.334 . S
C452 H444 0.930 . S
C452 C447 1.418 . S
C452 C448 1.353 . S
C453 H423 0.930 . S
C453 N454 1.330 . S
C453 C455 1.446 . S
N454 Co413 2.151 . S
N454 C453 1.330 . S
N454 C458 1.418 . S
C455 H434 0.929 . S
C455 C453 1.446 . S
C455 C456 1.332 . S
C456 H436 0.931 . S
C456 C455 1.332 . S
C456 C457 1.267 . S
C457 H425 0.929 . S
C457 C456 1.267 . S
C457 C458 1.251 . S
C458 H428 0.929 . S
C458 N454 1.418 . S
C458 C457 1.251 . S
C459 H426 0.930 . S
C459 C461 1.406 . S
C459 C464 1.261 . S
C460 H427 0.930 . S
C460 N462 1.325 . S
C460 C463 1.357 . S
C461 H429 0.928 . S
C461 C459 1.406 . S
C461 N462 1.261 . S
N462 Co413 2.214 . S
N462 C460 1.325 . S
N462 C461 1.261 . S
C463 H433 0.931 . S
C463 C460 1.357 . S
C463 C464 1.312 . S
C464 H435 0.930 . S
C464 C459 1.261 . S
C464 C463 1.312 . S
C465 O437 1.214 . S
C465 O445 1.234 . S
C466 H438 0.929 . S
C466 C469 1.391 . S
C466 C471 1.391 . S
C467 H439 0.929 . S
C467 C468 1.390 . S
C467 N470 1.391 . S
C468 H440 0.930 . S
C468 C467 1.390 . S
C468 C469 1.392 . S
C469 H441 0.929 . S
C469 C466 1.391 . S
C469 C468 1.392 . S
N470 Co414 2.257 . S
N470 C467 1.391 . S
N470 C471 1.388 . S
C471 H442 0.930 . S
C471 C466 1.391 . S
C471 N470 1.388 . S
Co472 O474 2.143 . S
Co472 O480 2.074 . S
Co472 O483 2.093 . S
Co472 O496 2.097 1_554 S
Co472 N513 2.151 . S
Co472 N521 2.214 1_455 S
Co473 O474 2.160 1_556 S
Co473 O479 2.058 1_556 S
Co473 O489 2.057 . S
Co473 O504 2.037 . S
Co473 N508 2.145 . S
Co473 N529 2.257 . S
O474 Co472 2.143 . S
O474 Co473 2.160 1_554 S
C475 O476 1.278 . S
C475 O483 1.224 1_556 S
O476 C475 1.278 . S
C477 O478 1.237 1_556 S
C477 O489 1.238 . S
O478 C477 1.237 1_554 S
O479 Co473 2.058 1_554 S
O479 C505 1.269 . S
O480 Co472 2.074 . S
O480 C505 1.257 . S
H481 C506 0.930 . S
H482 C512 0.930 . S
O483 Co472 2.093 . S
O483 C475 1.224 1_554 S
H484 C516 0.929 . S
H485 C518 0.930 . S
H486 C519 0.930 . S
H487 C517 0.929 . S
H488 C520 0.928 . S
O489 Co473 2.057 . S
O489 C477 1.238 . S
H490 C509 0.929 . S
H491 C510 0.929 . S
H492 C522 0.931 . S
H493 C514 0.929 . S
H494 C523 0.930 . S
H495 C515 0.931 . S
O496 Co472 2.097 1_556 S
O496 C524 1.214 . S
H497 C525 0.929 . S
H498 C526 0.929 . S
H499 C527 0.930 . S
H500 C528 0.929 . S
H501 C530 0.930 . S
H502 C507 0.930 . S
H503 C511 0.930 . S
O504 Co473 2.037 . S
O504 C524 1.234 . S
C505 O479 1.269 . S
C505 O480 1.257 . S
C506 H481 0.930 . S
C506 C509 1.388 . S
C506 C511 1.418 . S
C507 H502 0.930 . S
C507 C510 1.404 . S
C507 C511 1.353 . S
N508 Co473 2.145 . S
N508 C509 1.397 . S
N508 C510 1.334 . S
C509 H490 0.929 . S
C509 C506 1.388 . S
C509 N508 1.397 . S
C510 H491 0.929 . S
C510 C507 1.404 . S
C510 N508 1.334 . S
C511 H503 0.930 . S
C511 C506 1.418 . S
C511 C507 1.353 . S
C512 H482 0.930 . S
C512 N513 1.330 . S
C512 C514 1.446 . S
N513 Co472 2.151 . S
N513 C512 1.330 . S
N513 C517 1.418 . S
C514 H493 0.929 . S
C514 C512 1.446 . S
C514 C515 1.332 . S
C515 H495 0.931 . S
C515 C514 1.332 . S
C515 C516 1.267 . S
C516 H484 0.929 . S
C516 C515 1.267 . S
C516 C517 1.251 . S
C517 H487 0.929 . S
C517 N513 1.418 . S
C517 C516 1.251 . S
C518 H485 0.930 . S
C518 C520 1.406 . S
C518 C523 1.261 . S
C519 H486 0.930 . S
C519 N521 1.325 . S
C519 C522 1.357 . S
C520 H488 0.928 . S
C520 C518 1.406 . S
C520 N521 1.261 . S
N521 Co472 2.214 1_655 S
N521 C519 1.325 . S
N521 C520 1.261 . S
C522 H492 0.931 . S
C522 C519 1.357 . S
C522 C523 1.312 . S
C523 H494 0.930 . S
C523 C518 1.261 . S
C523 C522 1.312 . S
C524 O496 1.214 . S
C524 O504 1.234 . S
C525 H497 0.929 . S
C525 C528 1.391 . S
C525 C530 1.391 . S
C526 H498 0.929 . S
C526 C527 1.390 . S
C526 N529 1.391 . S
C527 H499 0.930 . S
C527 C526 1.390 . S
C527 C528 1.392 . S
C528 H500 0.929 . S
C528 C525 1.391 . S
C528 C527 1.392 . S
N529 Co473 2.257 . S
N529 C526 1.391 . S
N529 C530 1.388 . S
C530 H501 0.930 . S
C530 C525 1.391 . S
C530 N529 1.388 . S
Co531 O533 2.143 . S
Co531 O539 2.074 . S
Co531 O542 2.093 . S
Co531 O555 2.097 . S
Co531 N572 2.151 . S
Co531 N580 2.214 1_455 S
Co532 O533 2.160 . S
Co532 O538 2.058 . S
Co532 O548 2.057 . S
Co532 O563 2.037 . S
Co532 N567 2.145 . S
Co532 N588 2.257 . S
O533 Co531 2.143 . S
O533 Co532 2.160 . S
C534 O535 1.278 . S
C534 O542 1.224 . S
O535 C534 1.278 . S
C536 O537 1.245 . S
C536 O548 1.232 . S
O537 C536 1.245 . S
O538 Co532 2.058 . S
O538 C564 1.269 . S
O539 Co531 2.074 . S
O539 C564 1.257 . S
H540 C565 0.930 . S
H541 C571 0.930 . S
O542 Co531 2.093 . S
O542 C534 1.224 . S
H543 C575 0.929 . S
H544 C577 0.930 . S
H545 C578 0.930 . S
H546 C576 0.929 . S
H547 C579 0.928 . S
O548 Co532 2.057 . S
O548 C536 1.232 . S
H549 C568 0.929 . S
H550 C569 0.929 . S
H551 C581 0.931 . S
H552 C573 0.929 . S
H553 C582 0.930 . S
H554 C574 0.931 . S
O555 Co531 2.097 . S
O555 C583 1.214 . S
H556 C584 0.929 . S
H557 C585 0.929 . S
H558 C586 0.930 . S
H559 C587 0.929 . S
H560 C589 0.930 . S
H561 C566 0.930 . S
H562 C570 0.930 . S
O563 Co532 2.037 . S
O563 C583 1.234 . S
C564 O538 1.269 . S
C564 O539 1.257 . S
C565 H540 0.930 . S
C565 C568 1.388 . S
C565 C570 1.418 . S
C566 H561 0.930 . S
C566 C569 1.404 . S
C566 C570 1.353 . S
N567 Co532 2.145 . S
N567 C568 1.397 . S
N567 C569 1.334 . S
C568 H549 0.929 . S
C568 C565 1.388 . S
C568 N567 1.397 . S
C569 H550 0.929 . S
C569 C566 1.404 . S
C569 N567 1.334 . S
C570 H562 0.930 . S
C570 C565 1.418 . S
C570 C566 1.353 . S
C571 H541 0.930 . S
C571 N572 1.330 . S
C571 C573 1.446 . S
N572 Co531 2.151 . S
N572 C571 1.330 . S
N572 C576 1.418 . S
C573 H552 0.929 . S
C573 C571 1.446 . S
C573 C574 1.332 . S
C574 H554 0.931 . S
C574 C573 1.332 . S
C574 C575 1.267 . S
C575 H543 0.929 . S
C575 C574 1.267 . S
C575 C576 1.251 . S
C576 H546 0.929 . S
C576 N572 1.418 . S
C576 C575 1.251 . S
C577 H544 0.930 . S
C577 C579 1.406 . S
C577 C582 1.261 . S
C578 H545 0.930 . S
C578 N580 1.325 . S
C578 C581 1.357 . S
C579 H547 0.928 . S
C579 C577 1.406 . S
C579 N580 1.261 . S
N580 Co531 2.214 1_655 S
N580 C578 1.325 . S
N580 C579 1.261 . S
C581 H551 0.931 . S
C581 C578 1.357 . S
C581 C582 1.312 . S
C582 H553 0.930 . S
C582 C577 1.261 . S
C582 C581 1.312 . S
C583 O555 1.214 . S
C583 O563 1.234 . S
C584 H556 0.929 . S
C584 C587 1.391 . S
C584 C589 1.391 . S
C585 H557 0.929 . S
C585 C586 1.390 . S
C585 N588 1.391 . S
C586 H558 0.930 . S
C586 C585 1.390 . S
C586 C587 1.392 . S
C587 H559 0.929 . S
C587 C584 1.391 . S
C587 C586 1.392 . S
N588 Co532 2.257 . S
N588 C585 1.391 . S
N588 C589 1.388 . S
C589 H560 0.930 . S
C589 C584 1.391 . S
C589 N588 1.388 . S
Co590 O592 2.143 . S
Co590 O598 2.074 . S
Co590 O601 2.093 . S
Co590 O614 2.097 . S
Co590 N631 2.151 . S
Co590 N639 2.214 1_655 S
Co591 O592 2.160 . S
Co591 O597 2.058 . S
Co591 O607 2.057 . S
Co591 O622 2.037 . S
Co591 N626 2.145 . S
Co591 N647 2.257 . S
O592 Co590 2.143 . S
O592 Co591 2.160 . S
C593 O594 1.278 . S
C593 O601 1.224 . S
O594 C593 1.278 . S
C595 O596 1.245 . S
C595 O607 1.232 . S
O596 C595 1.245 . S
O597 Co591 2.058 . S
O597 C623 1.269 . S
O598 Co590 2.074 . S
O598 C623 1.257 . S
H599 C624 0.930 1_545 S
H600 C630 0.930 . S
O601 Co590 2.093 . S
O601 C593 1.224 . S
H602 C634 0.929 . S
H603 C636 0.930 . S
H604 C637 0.930 . S
H605 C635 0.929 . S
H606 C638 0.928 . S
O607 Co591 2.057 . S
O607 C595 1.232 . S
H608 C627 0.929 . S
H609 C628 0.929 . S
H610 C640 0.931 . S
H611 C632 0.929 . S
H612 C641 0.930 . S
H613 C633 0.931 . S
O614 Co590 2.097 . S
O614 C642 1.214 . S
H615 C643 0.929 . S
H616 C644 0.929 . S
H617 C645 0.930 . S
H618 C646 0.929 . S
H619 C648 0.930 . S
H620 C625 0.930 . S
H621 C629 0.930 1_545 S
O622 Co591 2.037 . S
O622 C642 1.234 . S
C623 O597 1.269 . S
C623 O598 1.257 . S
C624 H599 0.930 1_565 S
C624 C627 1.388 . S
C624 C629 1.418 . S
C625 H620 0.930 . S
C625 C628 1.404 . S
C625 C629 1.353 . S
N626 Co591 2.145 . S
N626 C627 1.397 . S
N626 C628 1.334 . S
C627 H608 0.929 . S
C627 C624 1.388 . S
C627 N626 1.397 . S
C628 H609 0.929 . S
C628 C625 1.404 . S
C628 N626 1.334 . S
C629 H621 0.930 1_565 S
C629 C624 1.418 . S
C629 C625 1.353 . S
C630 H600 0.930 . S
C630 N631 1.330 . S
C630 C632 1.446 . S
N631 Co590 2.151 . S
N631 C630 1.330 . S
N631 C635 1.418 . S
C632 H611 0.929 . S
C632 C630 1.446 . S
C632 C633 1.332 . S
C633 H613 0.931 . S
C633 C632 1.332 . S
C633 C634 1.267 . S
C634 H602 0.929 . S
C634 C633 1.267 . S
C634 C635 1.251 . S
C635 H605 0.929 . S
C635 N631 1.418 . S
C635 C634 1.251 . S
C636 H603 0.930 . S
C636 C638 1.406 . S
C636 C641 1.261 . S
C637 H604 0.930 . S
C637 N639 1.325 . S
C637 C640 1.357 . S
C638 H606 0.928 . S
C638 C636 1.406 . S
C638 N639 1.261 . S
N639 Co590 2.214 1_455 S
N639 C637 1.325 . S
N639 C638 1.261 . S
C640 H610 0.931 . S
C640 C637 1.357 . S
C640 C641 1.312 . S
C641 H612 0.930 . S
C641 C636 1.261 . S
C641 C640 1.312 . S
C642 O614 1.214 . S
C642 O622 1.234 . S
C643 H615 0.929 . S
C643 C646 1.391 . S
C643 C648 1.391 . S
C644 H616 0.929 . S
C644 C645 1.390 . S
C644 N647 1.391 . S
C645 H617 0.930 . S
C645 C644 1.390 . S
C645 C646 1.392 . S
C646 H618 0.929 . S
C646 C643 1.391 . S
C646 C645 1.392 . S
N647 Co591 2.257 . S
N647 C644 1.391 . S
N647 C648 1.388 . S
C648 H619 0.930 . S
C648 C643 1.391 . S
C648 N647 1.388 . S
Co649 O651 2.143 . S
Co649 O657 2.074 . S
Co649 O660 2.093 . S
Co649 O673 2.097 . S
Co649 N690 2.151 . S
Co649 N698 2.214 . S
Co650 O651 2.160 . S
Co650 O656 2.058 . S
Co650 O666 2.057 . S
Co650 O681 2.037 . S
Co650 N685 2.145 . S
Co650 N706 2.257 . S
O651 Co649 2.143 . S
O651 Co650 2.160 . S
C652 O653 1.278 . S
C652 O660 1.224 . S
O653 C652 1.278 . S
C654 O655 1.245 . S
C654 O666 1.232 . S
O655 C654 1.245 . S
O656 Co650 2.058 . S
O656 C682 1.269 . S
O657 Co649 2.074 . S
O657 C682 1.257 . S
H658 C683 0.930 . S
H659 C689 0.930 . S
O660 Co649 2.093 . S
O660 C652 1.224 . S
H661 C693 0.929 . S
H662 C695 0.930 . S
H663 C696 0.930 . S
H664 C694 0.929 . S
H665 C697 0.928 . S
O666 Co650 2.057 . S
O666 C654 1.232 . S
H667 C686 0.929 . S
H668 C687 0.929 . S
H669 C699 0.931 . S
H670 C691 0.929 . S
H671 C700 0.930 . S
H672 C692 0.931 . S
O673 Co649 2.097 . S
O673 C701 1.214 . S
H674 C702 0.929 . S
H675 C703 0.929 . S
H676 C704 0.930 . S
H677 C705 0.929 . S
H678 C707 0.930 . S
H679 C684 0.930 . S
H680 C688 0.930 . S
O681 Co650 2.037 . S
O681 C701 1.234 . S
C682 O656 1.269 . S
C682 O657 1.257 . S
C683 H658 0.930 . S
C683 C686 1.388 . S
C683 C688 1.418 . S
C684 H679 0.930 . S
C684 C687 1.404 . S
C684 C688 1.353 . S
N685 Co650 2.145 . S
N685 C686 1.397 . S
N685 C687 1.334 . S
C686 H667 0.929 . S
C686 C683 1.388 . S
C686 N685 1.397 . S
C687 H668 0.929 . S
C687 C684 1.404 . S
C687 N685 1.334 . S
C688 H680 0.930 . S
C688 C683 1.418 . S
C688 C684 1.353 . S
C689 H659 0.930 . S
C689 N690 1.330 . S
C689 C691 1.446 . S
N690 Co649 2.151 . S
N690 C689 1.330 . S
N690 C694 1.418 . S
C691 H670 0.929 . S
C691 C689 1.446 . S
C691 C692 1.332 . S
C692 H672 0.931 . S
C692 C691 1.332 . S
C692 C693 1.267 . S
C693 H661 0.929 . S
C693 C692 1.267 . S
C693 C694 1.251 . S
C694 H664 0.929 . S
C694 N690 1.418 . S
C694 C693 1.251 . S
C695 H662 0.930 . S
C695 C697 1.406 . S
C695 C700 1.261 . S
C696 H663 0.930 . S
C696 N698 1.325 . S
C696 C699 1.357 . S
C697 H665 0.928 . S
C697 C695 1.406 . S
C697 N698 1.261 . S
N698 Co649 2.214 . S
N698 C696 1.325 . S
N698 C697 1.261 . S
C699 H669 0.931 . S
C699 C696 1.357 . S
C699 C700 1.312 . S
C700 H671 0.930 . S
C700 C695 1.261 . S
C700 C699 1.312 . S
C701 O673 1.214 . S
C701 O681 1.234 . S
C702 H674 0.929 . S
C702 C705 1.391 . S
C702 C707 1.391 . S
C703 H675 0.929 . S
C703 C704 1.390 . S
C703 N706 1.391 . S
C704 H676 0.930 . S
C704 C703 1.390 . S
C704 C705 1.392 . S
C705 H677 0.929 . S
C705 C702 1.391 . S
C705 C704 1.392 . S
N706 Co650 2.257 . S
N706 C703 1.391 . S
N706 C707 1.388 . S
C707 H678 0.930 . S
C707 C702 1.391 . S
C707 N706 1.388 . S
Co708 O710 2.143 . S
Co708 O716 2.074 . S
Co708 O719 2.093 . S
Co708 O732 2.097 . S
Co708 N749 2.151 . S
Co708 N757 2.214 . S
Co709 O710 2.160 . S
Co709 O715 2.058 . S
Co709 O725 2.057 . S
Co709 O740 2.037 . S
Co709 N744 2.145 . S
Co709 N765 2.257 . S
O710 Co708 2.143 . S
O710 Co709 2.160 . S
C711 O712 1.278 . S
C711 O719 1.224 . S
O712 C711 1.278 . S
C713 O714 1.245 . S
C713 O725 1.232 . S
O714 C713 1.245 . S
O715 Co709 2.058 . S
O715 C741 1.269 . S
O716 Co708 2.074 . S
O716 C741 1.257 . S
H717 C742 0.930 1_554 S
H718 C748 0.930 . S
O719 Co708 2.093 . S
O719 C711 1.224 . S
H720 C752 0.929 . S
H721 C754 0.930 . S
H722 C755 0.930 . S
H723 C753 0.929 . S
H724 C756 0.928 . S
O725 Co709 2.057 . S
O725 C713 1.232 . S
H726 C745 0.929 . S
H727 C746 0.929 . S
H728 C758 0.931 . S
H729 C750 0.929 . S
H730 C759 0.930 . S
H731 C751 0.931 . S
O732 Co708 2.097 . S
O732 C760 1.214 . S
H733 C761 0.929 . S
H734 C762 0.929 . S
H735 C763 0.930 . S
H736 C764 0.929 . S
H737 C766 0.930 . S
H738 C743 0.930 . S
H739 C747 0.930 1_554 S
O740 Co709 2.037 . S
O740 C760 1.234 . S
C741 O715 1.269 . S
C741 O716 1.257 . S
C742 H717 0.930 1_556 S
C742 C745 1.388 . S
C742 C747 1.418 . S
C743 H738 0.930 . S
C743 C746 1.404 . S
C743 C747 1.353 . S
N744 Co709 2.145 . S
N744 C745 1.397 . S
N744 C746 1.334 . S
C745 H726 0.929 . S
C745 C742 1.388 . S
C745 N744 1.397 . S
C746 H727 0.929 . S
C746 C743 1.404 . S
C746 N744 1.334 . S
C747 H739 0.930 1_556 S
C747 C742 1.418 . S
C747 C743 1.353 . S
C748 H718 0.930 . S
C748 N749 1.330 . S
C748 C750 1.446 . S
N749 Co708 2.151 . S
N749 C748 1.330 . S
N749 C753 1.418 . S
C750 H729 0.929 . S
C750 C748 1.446 . S
C750 C751 1.332 . S
C751 H731 0.931 . S
C751 C750 1.332 . S
C751 C752 1.267 . S
C752 H720 0.929 . S
C752 C751 1.267 . S
C752 C753 1.251 . S
C753 H723 0.929 . S
C753 N749 1.418 . S
C753 C752 1.251 . S
C754 H721 0.930 . S
C754 C756 1.406 . S
C754 C759 1.261 . S
C755 H722 0.930 . S
C755 N757 1.325 . S
C755 C758 1.357 . S
C756 H724 0.928 . S
C756 C754 1.406 . S
C756 N757 1.261 . S
N757 Co708 2.214 . S
N757 C755 1.325 . S
N757 C756 1.261 . S
C758 H728 0.931 . S
C758 C755 1.357 . S
C758 C759 1.312 . S
C759 H730 0.930 . S
C759 C754 1.261 . S
C759 C758 1.312 . S
C760 O732 1.214 . S
C760 O740 1.234 . S
C761 H733 0.929 . S
C761 C764 1.391 . S
C761 C766 1.391 . S
C762 H734 0.929 . S
C762 C763 1.390 . S
C762 N765 1.391 . S
C763 H735 0.930 . S
C763 C762 1.390 . S
C763 C764 1.392 . S
C764 H736 0.929 . S
C764 C761 1.391 . S
C764 C763 1.392 . S
N765 Co709 2.257 . S
N765 C762 1.391 . S
N765 C766 1.388 . S
C766 H737 0.930 . S
C766 C761 1.391 . S
C766 N765 1.388 . S
Co767 O769 2.143 . S
Co767 O775 2.074 . S
Co767 O778 2.093 . S
Co767 O791 2.097 . S
Co767 N808 2.151 . S
Co767 N816 2.214 1_565 S
Co768 O769 2.160 . S
Co768 O774 2.058 . S
Co768 O784 2.057 . S
Co768 O799 2.037 . S
Co768 N803 2.145 . S
Co768 N824 2.257 . S
O769 Co767 2.143 . S
O769 Co768 2.160 . S
C770 O771 1.278 . S
C770 O778 1.224 . S
O771 C770 1.278 . S
C772 O773 1.245 . S
C772 O784 1.232 . S
O773 C772 1.245 . S
O774 Co768 2.058 . S
O774 C800 1.269 . S
O775 Co767 2.074 . S
O775 C800 1.257 . S
H776 C801 0.930 1_554 S
H777 C807 0.930 . S
O778 Co767 2.093 . S
O778 C770 1.224 . S
H779 C811 0.929 . S
H780 C813 0.930 . S
H781 C814 0.930 . S
H782 C812 0.929 . S
H783 C815 0.928 . S
O784 Co768 2.057 . S
O784 C772 1.232 . S
H785 C804 0.929 . S
H786 C805 0.929 . S
H787 C817 0.931 . S
H788 C809 0.929 . S
H789 C818 0.930 . S
H790 C810 0.931 . S
O791 Co767 2.097 . S
O791 C819 1.214 . S
H792 C820 0.929 . S
H793 C821 0.929 . S
H794 C822 0.930 . S
H795 C823 0.929 . S
H796 C825 0.930 . S
H797 C802 0.930 . S
H798 C806 0.930 1_554 S
O799 Co768 2.037 . S
O799 C819 1.234 . S
C800 O774 1.269 . S
C800 O775 1.257 . S
C801 H776 0.930 1_556 S
C801 C804 1.388 . S
C801 C806 1.418 . S
C802 H797 0.930 . S
C802 C805 1.404 . S
C802 C806 1.353 . S
N803 Co768 2.145 . S
N803 C804 1.397 . S
N803 C805 1.334 . S
C804 H785 0.929 . S
C804 C801 1.388 . S
C804 N803 1.397 . S
C805 H786 0.929 . S
C805 C802 1.404 . S
C805 N803 1.334 . S
C806 H798 0.930 1_556 S
C806 C801 1.418 . S
C806 C802 1.353 . S
C807 H777 0.930 . S
C807 N808 1.330 . S
C807 C809 1.446 . S
N808 Co767 2.151 . S
N808 C807 1.330 . S
N808 C812 1.418 . S
C809 H788 0.929 . S
C809 C807 1.446 . S
C809 C810 1.332 . S
C810 H790 0.931 . S
C810 C809 1.332 . S
C810 C811 1.267 . S
C811 H779 0.929 . S
C811 C810 1.267 . S
C811 C812 1.251 . S
C812 H782 0.929 . S
C812 N808 1.418 . S
C812 C811 1.251 . S
C813 H780 0.930 . S
C813 C815 1.406 . S
C813 C818 1.261 . S
C814 H781 0.930 . S
C814 N816 1.325 . S
C814 C817 1.357 . S
C815 H783 0.928 . S
C815 C813 1.406 . S
C815 N816 1.261 . S
N816 Co767 2.214 1_545 S
N816 C814 1.325 . S
N816 C815 1.261 . S
C817 H787 0.931 . S
C817 C814 1.357 . S
C817 C818 1.312 . S
C818 H789 0.930 . S
C818 C813 1.261 . S
C818 C817 1.312 . S
C819 O791 1.214 . S
C819 O799 1.234 . S
C820 H792 0.929 . S
C820 C823 1.391 . S
C820 C825 1.391 . S
C821 H793 0.929 . S
C821 C822 1.390 . S
C821 N824 1.391 . S
C822 H794 0.930 . S
C822 C821 1.390 . S
C822 C823 1.392 . S
C823 H795 0.929 . S
C823 C820 1.391 . S
C823 C822 1.392 . S
N824 Co768 2.257 . S
N824 C821 1.391 . S
N824 C825 1.388 . S
C825 H796 0.930 . S
C825 C820 1.391 . S
C825 N824 1.388 . S
Co826 O828 2.143 . S
Co826 O834 2.074 . S
Co826 O837 2.093 . S
Co826 O850 2.097 . S
Co826 N867 2.151 . S
Co826 N875 2.214 . S
Co827 O828 2.160 . S
Co827 O833 2.058 . S
Co827 O843 2.057 . S
Co827 O858 2.037 . S
Co827 N862 2.145 . S
Co827 N883 2.257 . S
O828 Co826 2.143 . S
O828 Co827 2.160 . S
C829 O830 1.278 . S
C829 O837 1.224 . S
O830 C829 1.278 . S
C831 O832 1.245 . S
C831 O843 1.232 . S
O832 C831 1.245 . S
O833 Co827 2.058 . S
O833 C859 1.269 . S
O834 Co826 2.074 . S
O834 C859 1.257 . S
H835 C860 0.930 . S
H836 C866 0.930 . S
O837 Co826 2.093 . S
O837 C829 1.224 . S
H838 C870 0.929 . S
H839 C872 0.930 . S
H840 C873 0.930 . S
H841 C871 0.929 . S
H842 C874 0.928 . S
O843 Co827 2.057 . S
O843 C831 1.232 . S
H844 C863 0.929 . S
H845 C864 0.929 . S
H846 C876 0.931 . S
H847 C868 0.929 . S
H848 C877 0.930 . S
H849 C869 0.931 . S
O850 Co826 2.097 . S
O850 C878 1.214 . S
H851 C879 0.929 . S
H852 C880 0.929 . S
H853 C881 0.930 . S
H854 C882 0.929 . S
H855 C884 0.930 . S
H856 C861 0.930 . S
H857 C865 0.930 . S
O858 Co827 2.037 . S
O858 C878 1.234 . S
C859 O833 1.269 . S
C859 O834 1.257 . S
C860 H835 0.930 . S
C860 C863 1.388 . S
C860 C865 1.418 . S
C861 H856 0.930 . S
C861 C864 1.404 . S
C861 C865 1.353 . S
N862 Co827 2.145 . S
N862 C863 1.397 . S
N862 C864 1.334 . S
C863 H844 0.929 . S
C863 C860 1.388 . S
C863 N862 1.397 . S
C864 H845 0.929 . S
C864 C861 1.404 . S
C864 N862 1.334 . S
C865 H857 0.930 . S
C865 C860 1.418 . S
C865 C861 1.353 . S
C866 H836 0.930 . S
C866 N867 1.330 . S
C866 C868 1.446 . S
N867 Co826 2.151 . S
N867 C866 1.330 . S
N867 C871 1.418 . S
C868 H847 0.929 . S
C868 C866 1.446 . S
C868 C869 1.332 . S
C869 H849 0.931 . S
C869 C868 1.332 . S
C869 C870 1.267 . S
C870 H838 0.929 . S
C870 C869 1.267 . S
C870 C871 1.251 . S
C871 H841 0.929 . S
C871 N867 1.418 . S
C871 C870 1.251 . S
C872 H839 0.930 . S
C872 C874 1.406 . S
C872 C877 1.261 . S
C873 H840 0.930 . S
C873 N875 1.325 . S
C873 C876 1.357 . S
C874 H842 0.928 . S
C874 C872 1.406 . S
C874 N875 1.261 . S
N875 Co826 2.214 . S
N875 C873 1.325 . S
N875 C874 1.261 . S
C876 H846 0.931 . S
C876 C873 1.357 . S
C876 C877 1.312 . S
C877 H848 0.930 . S
C877 C872 1.261 . S
C877 C876 1.312 . S
C878 O850 1.214 . S
C878 O858 1.234 . S
C879 H851 0.929 . S
C879 C882 1.391 . S
C879 C884 1.391 . S
C880 H852 0.929 . S
C880 C881 1.390 . S
C880 N883 1.391 . S
C881 H853 0.930 . S
C881 C880 1.390 . S
C881 C882 1.392 . S
C882 H854 0.929 . S
C882 C879 1.391 . S
C882 C881 1.392 . S
N883 Co827 2.257 . S
N883 C880 1.391 . S
N883 C884 1.388 . S
C884 H855 0.930 . S
C884 C879 1.391 . S
C884 N883 1.388 . S
Co885 O887 2.143 . S
Co885 O893 2.074 . S
Co885 O896 2.093 . S
Co885 O909 2.097 . S
Co885 N926 2.151 . S
Co885 N934 2.214 1_545 S
Co886 O887 2.160 . S
Co886 O892 2.058 . S
Co886 O902 2.057 . S
Co886 O917 2.037 . S
Co886 N921 2.145 . S
Co886 N942 2.257 . S
O887 Co885 2.143 . S
O887 Co886 2.160 . S
C888 O889 1.278 . S
C888 O896 1.224 . S
O889 C888 1.278 . S
C890 O891 1.245 . S
C890 O902 1.232 . S
O891 C890 1.245 . S
O892 Co886 2.058 . S
O892 C918 1.269 . S
O893 Co885 2.074 . S
O893 C918 1.257 . S
H894 C919 0.930 . S
H895 C925 0.930 . S
O896 Co885 2.093 . S
O896 C888 1.224 . S
H897 C929 0.929 . S
H898 C931 0.930 . S
H899 C932 0.930 . S
H900 C930 0.929 . S
H901 C933 0.928 . S
O902 Co886 2.057 . S
O902 C890 1.232 . S
H903 C922 0.929 . S
H904 C923 0.929 . S
H905 C935 0.931 . S
H906 C927 0.929 . S
H907 C936 0.930 . S
H908 C928 0.931 . S
O909 Co885 2.097 . S
O909 C937 1.214 . S
H910 C938 0.929 . S
H911 C939 0.929 . S
H912 C940 0.930 . S
H913 C941 0.929 . S
H914 C943 0.930 . S
H915 C920 0.930 . S
H916 C924 0.930 . S
O917 Co886 2.037 . S
O917 C937 1.234 . S
C918 O892 1.269 . S
C918 O893 1.257 . S
C919 H894 0.930 . S
C919 C922 1.388 . S
C919 C924 1.418 . S
C920 H915 0.930 . S
C920 C923 1.404 . S
C920 C924 1.353 . S
N921 Co886 2.145 . S
N921 C922 1.397 . S
N921 C923 1.334 . S
C922 H903 0.929 . S
C922 C919 1.388 . S
C922 N921 1.397 . S
C923 H904 0.929 . S
C923 C920 1.404 . S
C923 N921 1.334 . S
C924 H916 0.930 . S
C924 C919 1.418 . S
C924 C920 1.353 . S
C925 H895 0.930 . S
C925 N926 1.330 . S
C925 C927 1.446 . S
N926 Co885 2.151 . S
N926 C925 1.330 . S
N926 C930 1.418 . S
C927 H906 0.929 . S
C927 C925 1.446 . S
C927 C928 1.332 . S
C928 H908 0.931 . S
C928 C927 1.332 . S
C928 C929 1.267 . S
C929 H897 0.929 . S
C929 C928 1.267 . S
C929 C930 1.251 . S
C930 H900 0.929 . S
C930 N926 1.418 . S
C930 C929 1.251 . S
C931 H898 0.930 . S
C931 C933 1.406 . S
C931 C936 1.261 . S
C932 H899 0.930 . S
C932 N934 1.325 . S
C932 C935 1.357 . S
C933 H901 0.928 . S
C933 C931 1.406 . S
C933 N934 1.261 . S
N934 Co885 2.214 1_565 S
N934 C932 1.325 . S
N934 C933 1.261 . S
C935 H905 0.931 . S
C935 C932 1.357 . S
C935 C936 1.312 . S
C936 H907 0.930 . S
C936 C931 1.261 . S
C936 C935 1.312 . S
C937 O909 1.214 . S
C937 O917 1.234 . S
C938 H910 0.929 . S
C938 C941 1.391 . S
C938 C943 1.391 . S
C939 H911 0.929 . S
C939 C940 1.390 . S
C939 N942 1.391 . S
C940 H912 0.930 . S
C940 C939 1.390 . S
C940 C941 1.392 . S
C941 H913 0.929 . S
C941 C938 1.391 . S
C941 C940 1.392 . S
N942 Co886 2.257 . S
N942 C939 1.391 . S
N942 C943 1.388 . S
C943 H914 0.930 . S
C943 C938 1.391 . S
C943 N942 1.388 . S
Co944 O946 2.143 . S
Co944 O952 2.074 . S
Co944 O955 2.093 . S
Co944 O968 2.097 . S
Co944 N985 2.151 . S
Co944 N993 2.214 . S
Co945 O946 2.160 . S
Co945 O951 2.058 . S
Co945 O961 2.057 . S
Co945 O976 2.037 . S
Co945 N980 2.145 . S
Co945 N1001 2.257 . S
O946 Co944 2.143 . S
O946 Co945 2.160 . S
C947 O948 1.278 . S
C947 O955 1.224 . S
O948 C947 1.278 . S
C949 O950 1.245 . S
C949 O961 1.232 . S
O950 C949 1.245 . S
O951 Co945 2.058 . S
O951 C977 1.269 . S
O952 Co944 2.074 . S
O952 C977 1.257 . S
H953 C978 0.930 1_455 S
H954 C984 0.930 . S
O955 Co944 2.093 . S
O955 C947 1.224 . S
H956 C988 0.929 . S
H957 C990 0.930 . S
H958 C991 0.930 . S
H959 C989 0.929 . S
H960 C992 0.928 . S
O961 Co945 2.057 . S
O961 C949 1.232 . S
H962 C981 0.929 . S
H963 C982 0.929 . S
H964 C994 0.931 . S
H965 C986 0.929 . S
H966 C995 0.930 . S
H967 C987 0.931 . S
O968 Co944 2.097 . S
O968 C996 1.214 . S
H969 C997 0.929 . S
H970 C998 0.929 . S
H971 C999 0.930 . S
H972 C1000 0.929 . S
H973 C1002 0.930 . S
H974 C979 0.930 . S
H975 C983 0.930 1_455 S
O976 Co945 2.037 . S
O976 C996 1.234 . S
C977 O951 1.269 . S
C977 O952 1.257 . S
C978 H953 0.930 1_655 S
C978 C981 1.388 . S
C978 C983 1.418 . S
C979 H974 0.930 . S
C979 C982 1.404 . S
C979 C983 1.353 . S
N980 Co945 2.145 . S
N980 C981 1.397 . S
N980 C982 1.334 . S
C981 H962 0.929 . S
C981 C978 1.388 . S
C981 N980 1.397 . S
C982 H963 0.929 . S
C982 C979 1.404 . S
C982 N980 1.334 . S
C983 H975 0.930 1_655 S
C983 C978 1.418 . S
C983 C979 1.353 . S
C984 H954 0.930 . S
C984 N985 1.330 . S
C984 C986 1.446 . S
N985 Co944 2.151 . S
N985 C984 1.330 . S
N985 C989 1.418 . S
C986 H965 0.929 . S
C986 C984 1.446 . S
C986 C987 1.332 . S
C987 H967 0.931 . S
C987 C986 1.332 . S
C987 C988 1.267 . S
C988 H956 0.929 . S
C988 C987 1.267 . S
C988 C989 1.251 . S
C989 H959 0.929 . S
C989 N985 1.418 . S
C989 C988 1.251 . S
C990 H957 0.930 . S
C990 C992 1.406 . S
C990 C995 1.261 . S
C991 H958 0.930 . S
C991 N993 1.325 . S
C991 C994 1.357 . S
C992 H960 0.928 . S
C992 C990 1.406 . S
C992 N993 1.261 . S
N993 Co944 2.214 . S
N993 C991 1.325 . S
N993 C992 1.261 . S
C994 H964 0.931 . S
C994 C991 1.357 . S
C994 C995 1.312 . S
C995 H966 0.930 . S
C995 C990 1.261 . S
C995 C994 1.312 . S
C996 O968 1.214 . S
C996 O976 1.234 . S
C997 H969 0.929 . S
C997 C1000 1.391 . S
C997 C1002 1.391 . S
C998 H970 0.929 . S
C998 C999 1.390 . S
C998 N1001 1.391 . S
C999 H971 0.930 . S
C999 C998 1.390 . S
C999 C1000 1.392 . S
C1000 H972 0.929 . S
C1000 C997 1.391 . S
C1000 C999 1.392 . S
N1001 Co945 2.257 . S
N1001 C998 1.391 . S
N1001 C1002 1.388 . S
C1002 H973 0.930 . S
C1002 C997 1.391 . S
C1002 N1001 1.388 . S
Co1003 O1005 2.143 . S
Co1003 O1011 2.074 . S
Co1003 O1014 2.093 . S
Co1003 O1027 2.097 1_565 S
Co1003 N1044 2.151 . S
Co1003 N1052 2.214 . S
Co1004 O1005 2.160 1_545 S
Co1004 O1010 2.058 1_545 S
Co1004 O1020 2.057 . S
Co1004 O1035 2.037 . S
Co1004 N1039 2.145 . S
Co1004 N1060 2.257 . S
O1005 Co1003 2.143 . S
O1005 Co1004 2.160 1_565 S
C1006 O1007 1.278 . S
C1006 O1014 1.224 1_545 S
O1007 C1006 1.278 . S
C1008 O1009 1.245 1_545 S
C1008 O1020 1.232 . S
O1009 C1008 1.245 1_565 S
O1010 Co1004 2.058 1_565 S
O1010 C1036 1.269 . S
O1011 Co1003 2.074 . S
O1011 C1036 1.257 . S
H1012 C1037 0.930 1_655 S
H1013 C1043 0.930 . S
O1014 Co1003 2.093 . S
O1014 C1006 1.224 1_565 S
H1015 C1047 0.929 . S
H1016 C1049 0.930 . S
H1017 C1050 0.930 . S
H1018 C1048 0.929 . S
H1019 C1051 0.928 . S
O1020 Co1004 2.057 . S
O1020 C1008 1.232 . S
H1021 C1040 0.929 . S
H1022 C1041 0.929 . S
H1023 C1053 0.931 . S
H1024 C1045 0.929 . S
H1025 C1054 0.930 . S
H1026 C1046 0.931 . S
O1027 Co1003 2.097 1_545 S
O1027 C1055 1.214 . S
H1028 C1056 0.929 . S
H1029 C1057 0.929 . S
H1030 C1058 0.930 . S
H1031 C1059 0.929 . S
H1032 C1061 0.930 . S
H1033 C1038 0.930 . S
H1034 C1042 0.930 1_655 S
O1035 Co1004 2.037 . S
O1035 C1055 1.234 . S
C1036 O1010 1.269 . S
C1036 O1011 1.257 . S
C1037 H1012 0.930 1_455 S
C1037 C1040 1.388 . S
C1037 C1042 1.418 . S
C1038 H1033 0.930 . S
C1038 C1041 1.404 . S
C1038 C1042 1.353 . S
N1039 Co1004 2.145 . S
N1039 C1040 1.397 . S
N1039 C1041 1.334 . S
C1040 H1021 0.929 . S
C1040 C1037 1.388 . S
C1040 N1039 1.397 . S
C1041 H1022 0.929 . S
C1041 C1038 1.404 . S
C1041 N1039 1.334 . S
C1042 H1034 0.930 1_455 S
C1042 C1037 1.418 . S
C1042 C1038 1.353 . S
C1043 H1013 0.930 . S
C1043 N1044 1.330 . S
C1043 C1045 1.446 . S
N1044 Co1003 2.151 . S
N1044 C1043 1.330 . S
N1044 C1048 1.418 . S
C1045 H1024 0.929 . S
C1045 C1043 1.446 . S
C1045 C1046 1.332 . S
C1046 H1026 0.931 . S
C1046 C1045 1.332 . S
C1046 C1047 1.267 . S
C1047 H1015 0.929 . S
C1047 C1046 1.267 . S
C1047 C1048 1.251 . S
C1048 H1018 0.929 . S
C1048 N1044 1.418 . S
C1048 C1047 1.251 . S
C1049 H1016 0.930 . S
C1049 C1051 1.406 . S
C1049 C1054 1.261 . S
C1050 H1017 0.930 . S
C1050 N1052 1.325 . S
C1050 C1053 1.357 . S
C1051 H1019 0.928 . S
C1051 C1049 1.406 . S
C1051 N1052 1.261 . S
N1052 Co1003 2.214 . S
N1052 C1050 1.325 . S
N1052 C1051 1.261 . S
C1053 H1023 0.931 . S
C1053 C1050 1.357 . S
C1053 C1054 1.312 . S
C1054 H1025 0.930 . S
C1054 C1049 1.261 . S
C1054 C1053 1.312 . S
C1055 O1027 1.214 . S
C1055 O1035 1.234 . S
C1056 H1028 0.929 . S
C1056 C1059 1.391 . S
C1056 C1061 1.391 . S
C1057 H1029 0.929 . S
C1057 C1058 1.390 . S
C1057 N1060 1.391 . S
C1058 H1030 0.930 . S
C1058 C1057 1.390 . S
C1058 C1059 1.392 . S
C1059 H1031 0.929 . S
C1059 C1056 1.391 . S
C1059 C1058 1.392 . S
N1060 Co1004 2.257 . S
N1060 C1057 1.391 . S
N1060 C1061 1.388 . S
C1061 H1032 0.930 . S
C1061 C1056 1.391 . S
C1061 N1060 1.388 . S
Co1062 O1064 2.143 . S
Co1062 O1070 2.074 . S
Co1062 O1073 2.093 . S
Co1062 O1086 2.097 . S
Co1062 N1103 2.151 . S
Co1062 N1111 2.214 1_556 S
Co1063 O1064 2.160 . S
Co1063 O1069 2.058 . S
Co1063 O1079 2.057 . S
Co1063 O1094 2.037 . S
Co1063 N1098 2.145 . S
Co1063 N1119 2.257 . S
O1064 Co1062 2.143 . S
O1064 Co1063 2.160 . S
C1065 O1066 1.278 . S
C1065 O1073 1.224 . S
O1066 C1065 1.278 . S
C1067 O1068 1.245 . S
C1067 O1079 1.232 . S
O1068 C1067 1.245 . S
O1069 Co1063 2.058 . S
O1069 C1095 1.269 . S
O1070 Co1062 2.074 . S
O1070 C1095 1.257 . S
H1071 C1096 0.930 1_455 S
H1072 C1102 0.930 . S
O1073 Co1062 2.093 . S
O1073 C1065 1.224 . S
H1074 C1106 0.929 . S
H1075 C1108 0.930 . S
H1076 C1109 0.930 . S
H1077 C1107 0.929 . S
H1078 C1110 0.928 . S
O1079 Co1063 2.057 . S
O1079 C1067 1.232 . S
H1080 C1099 0.929 . S
H1081 C1100 0.929 . S
H1082 C1112 0.931 . S
H1083 C1104 0.929 . S
H1084 C1113 0.930 . S
H1085 C1105 0.931 . S
O1086 Co1062 2.097 . S
O1086 C1114 1.214 . S
H1087 C1115 0.929 . S
H1088 C1116 0.929 . S
H1089 C1117 0.930 . S
H1090 C1118 0.929 . S
H1091 C1120 0.930 . S
H1092 C1097 0.930 . S
H1093 C1101 0.930 1_455 S
O1094 Co1063 2.037 . S
O1094 C1114 1.234 . S
C1095 O1069 1.269 . S
C1095 O1070 1.257 . S
C1096 H1071 0.930 1_655 S
C1096 C1099 1.388 . S
C1096 C1101 1.418 . S
C1097 H1092 0.930 . S
C1097 C1100 1.404 . S
C1097 C1101 1.353 . S
N1098 Co1063 2.145 . S
N1098 C1099 1.397 . S
N1098 C1100 1.334 . S
C1099 H1080 0.929 . S
C1099 C1096 1.388 . S
C1099 N1098 1.397 . S
C1100 H1081 0.929 . S
C1100 C1097 1.404 . S
C1100 N1098 1.334 . S
C1101 H1093 0.930 1_655 S
C1101 C1096 1.418 . S
C1101 C1097 1.353 . S
C1102 H1072 0.930 . S
C1102 N1103 1.330 . S
C1102 C1104 1.446 . S
N1103 Co1062 2.151 . S
N1103 C1102 1.330 . S
N1103 C1107 1.418 . S
C1104 H1083 0.929 . S
C1104 C1102 1.446 . S
C1104 C1105 1.332 . S
C1105 H1085 0.931 . S
C1105 C1104 1.332 . S
C1105 C1106 1.267 . S
C1106 H1074 0.929 . S
C1106 C1105 1.267 . S
C1106 C1107 1.251 . S
C1107 H1077 0.929 . S
C1107 N1103 1.418 . S
C1107 C1106 1.251 . S
C1108 H1075 0.930 . S
C1108 C1110 1.406 . S
C1108 C1113 1.261 . S
C1109 H1076 0.930 . S
C1109 N1111 1.325 . S
C1109 C1112 1.357 . S
C1110 H1078 0.928 . S
C1110 C1108 1.406 . S
C1110 N1111 1.261 . S
N1111 Co1062 2.214 1_554 S
N1111 C1109 1.325 . S
N1111 C1110 1.261 . S
C1112 H1082 0.931 . S
C1112 C1109 1.357 . S
C1112 C1113 1.312 . S
C1113 H1084 0.930 . S
C1113 C1108 1.261 . S
C1113 C1112 1.312 . S
C1114 O1086 1.214 . S
C1114 O1094 1.234 . S
C1115 H1087 0.929 . S
C1115 C1118 1.391 . S
C1115 C1120 1.391 . S
C1116 H1088 0.929 . S
C1116 C1117 1.390 . S
C1116 N1119 1.391 . S
C1117 H1089 0.930 . S
C1117 C1116 1.390 . S
C1117 C1118 1.392 . S
C1118 H1090 0.929 . S
C1118 C1115 1.391 . S
C1118 C1117 1.392 . S
N1119 Co1063 2.257 . S
N1119 C1116 1.391 . S
N1119 C1120 1.388 . S
C1120 H1091 0.930 . S
C1120 C1115 1.391 . S
C1120 N1119 1.388 . S
Co1121 O1123 2.143 . S
Co1121 O1129 2.074 . S
Co1121 O1132 2.093 . S
Co1121 O1145 2.097 1_545 S
Co1121 N1162 2.151 . S
Co1121 N1170 2.214 1_556 S
Co1122 O1123 2.160 1_565 S
Co1122 O1128 2.058 1_565 S
Co1122 O1138 2.057 . S
Co1122 O1153 2.037 . S
Co1122 N1157 2.145 . S
Co1122 N1178 2.257 . S
O1123 Co1121 2.143 . S
O1123 Co1122 2.160 1_545 S
C1124 O1125 1.278 . S
C1124 O1132 1.224 1_565 S
O1125 C1124 1.278 . S
C1126 O1127 1.245 1_565 S
C1126 O1138 1.232 . S
O1127 C1126 1.245 1_545 S
O1128 Co1122 2.058 1_545 S
O1128 C1154 1.269 . S
O1129 Co1121 2.074 . S
O1129 C1154 1.257 . S
H1130 C1155 0.930 1_655 S
H1131 C1161 0.930 . S
O1132 Co1121 2.093 . S
O1132 C1124 1.224 1_545 S
H1133 C1165 0.929 . S
H1134 C1167 0.930 . S
H1135 C1168 0.930 . S
H1136 C1166 0.929 . S
H1137 C1169 0.928 . S
O1138 Co1122 2.057 . S
O1138 C1126 1.232 . S
H1139 C1158 0.929 . S
H1140 C1159 0.929 . S
H1141 C1171 0.931 . S
H1142 C1163 0.929 . S
H1143 C1172 0.930 . S
H1144 C1164 0.931 . S
O1145 Co1121 2.097 1_565 S
O1145 C1173 1.214 . S
H1146 C1174 0.929 . S
H1147 C1175 0.929 . S
H1148 C1176 0.930 . S
H1149 C1177 0.929 . S
H1150 C1179 0.930 . S
H1151 C1156 0.930 . S
H1152 C1160 0.930 1_655 S
O1153 Co1122 2.037 . S
O1153 C1173 1.234 . S
C1154 O1128 1.269 . S
C1154 O1129 1.257 . S
C1155 H1130 0.930 1_455 S
C1155 C1158 1.388 . S
C1155 C1160 1.418 . S
C1156 H1151 0.930 . S
C1156 C1159 1.404 . S
C1156 C1160 1.353 . S
N1157 Co1122 2.145 . S
N1157 C1158 1.397 . S
N1157 C1159 1.334 . S
C1158 H1139 0.929 . S
C1158 C1155 1.388 . S
C1158 N1157 1.397 . S
C1159 H1140 0.929 . S
C1159 C1156 1.404 . S
C1159 N1157 1.334 . S
C1160 H1152 0.930 1_455 S
C1160 C1155 1.418 . S
C1160 C1156 1.353 . S
C1161 H1131 0.930 . S
C1161 N1162 1.330 . S
C1161 C1163 1.446 . S
N1162 Co1121 2.151 . S
N1162 C1161 1.330 . S
N1162 C1166 1.418 . S
C1163 H1142 0.929 . S
C1163 C1161 1.446 . S
C1163 C1164 1.332 . S
C1164 H1144 0.931 . S
C1164 C1163 1.332 . S
C1164 C1165 1.267 . S
C1165 H1133 0.929 . S
C1165 C1164 1.267 . S
C1165 C1166 1.251 . S
C1166 H1136 0.929 . S
C1166 N1162 1.418 . S
C1166 C1165 1.251 . S
C1167 H1134 0.930 . S
C1167 C1169 1.406 . S
C1167 C1172 1.261 . S
C1168 H1135 0.930 . S
C1168 N1170 1.325 . S
C1168 C1171 1.357 . S
C1169 H1137 0.928 . S
C1169 C1167 1.406 . S
C1169 N1170 1.261 . S
N1170 Co1121 2.214 1_554 S
N1170 C1168 1.325 . S
N1170 C1169 1.261 . S
C1171 H1141 0.931 . S
C1171 C1168 1.357 . S
C1171 C1172 1.312 . S
C1172 H1143 0.930 . S
C1172 C1167 1.261 . S
C1172 C1171 1.312 . S
C1173 O1145 1.214 . S
C1173 O1153 1.234 . S
C1174 H1146 0.929 . S
C1174 C1177 1.391 . S
C1174 C1179 1.391 . S
C1175 H1147 0.929 . S
C1175 C1176 1.390 . S
C1175 N1178 1.391 . S
C1176 H1148 0.930 . S
C1176 C1175 1.390 . S
C1176 C1177 1.392 . S
C1177 H1149 0.929 . S
C1177 C1174 1.391 . S
C1177 C1176 1.392 . S
N1178 Co1122 2.257 . S
N1178 C1175 1.391 . S
N1178 C1179 1.388 . S
C1179 H1150 0.930 . S
C1179 C1174 1.391 . S
C1179 N1178 1.388 . S
Co1180 O1182 2.143 . S
Co1180 O1188 2.074 . S
Co1180 O1191 2.093 . S
Co1180 O1204 2.097 . S
Co1180 N1221 2.151 . S
Co1180 N1229 2.214 . S
Co1181 O1182 2.160 . S
Co1181 O1187 2.058 . S
Co1181 O1197 2.057 . S
Co1181 O1212 2.037 . S
Co1181 N1216 2.145 . S
Co1181 N1237 2.257 . S
O1182 Co1180 2.143 . S
O1182 Co1181 2.160 . S
C1183 O1184 1.278 . S
C1183 O1191 1.224 . S
O1184 C1183 1.278 . S
C1185 O1186 1.245 . S
C1185 O1197 1.232 . S
O1186 C1185 1.245 . S
O1187 Co1181 2.058 . S
O1187 C1213 1.269 . S
O1188 Co1180 2.074 . S
O1188 C1213 1.257 . S
H1189 C1214 0.930 1_545 S
H1190 C1220 0.930 . S
O1191 Co1180 2.093 . S
O1191 C1183 1.224 . S
H1192 C1224 0.929 . S
H1193 C1226 0.930 . S
H1194 C1227 0.930 . S
H1195 C1225 0.929 . S
H1196 C1228 0.928 . S
O1197 Co1181 2.057 . S
O1197 C1185 1.232 . S
H1198 C1217 0.929 . S
H1199 C1218 0.929 . S
H1200 C1230 0.931 . S
H1201 C1222 0.929 . S
H1202 C1231 0.930 . S
H1203 C1223 0.931 . S
O1204 Co1180 2.097 . S
O1204 C1232 1.214 . S
H1205 C1233 0.929 . S
H1206 C1234 0.929 . S
H1207 C1235 0.930 . S
H1208 C1236 0.929 . S
H1209 C1238 0.930 . S
H1210 C1215 0.930 . S
H1211 C1219 0.930 1_545 S
O1212 Co1181 2.037 . S
O1212 C1232 1.234 . S
C1213 O1187 1.269 . S
C1213 O1188 1.257 . S
C1214 H1189 0.930 1_565 S
C1214 C1217 1.388 . S
C1214 C1219 1.418 . S
C1215 H1210 0.930 . S
C1215 C1218 1.404 . S
C1215 C1219 1.353 . S
N1216 Co1181 2.145 . S
N1216 C1217 1.397 . S
N1216 C1218 1.334 . S
C1217 H1198 0.929 . S
C1217 C1214 1.388 . S
C1217 N1216 1.397 . S
C1218 H1199 0.929 . S
C1218 C1215 1.404 . S
C1218 N1216 1.334 . S
C1219 H1211 0.930 1_565 S
C1219 C1214 1.418 . S
C1219 C1215 1.353 . S
C1220 H1190 0.930 . S
C1220 N1221 1.330 . S
C1220 C1222 1.446 . S
N1221 Co1180 2.151 . S
N1221 C1220 1.330 . S
N1221 C1225 1.418 . S
C1222 H1201 0.929 . S
C1222 C1220 1.446 . S
C1222 C1223 1.332 . S
C1223 H1203 0.931 . S
C1223 C1222 1.332 . S
C1223 C1224 1.267 . S
C1224 H1192 0.929 . S
C1224 C1223 1.267 . S
C1224 C1225 1.251 . S
C1225 H1195 0.929 . S
C1225 N1221 1.418 . S
C1225 C1224 1.251 . S
C1226 H1193 0.930 . S
C1226 C1228 1.406 . S
C1226 C1231 1.261 . S
C1227 H1194 0.930 . S
C1227 N1229 1.325 . S
C1227 C1230 1.357 . S
C1228 H1196 0.928 . S
C1228 C1226 1.406 . S
C1228 N1229 1.261 . S
N1229 Co1180 2.214 . S
N1229 C1227 1.325 . S
N1229 C1228 1.261 . S
C1230 H1200 0.931 . S
C1230 C1227 1.357 . S
C1230 C1231 1.312 . S
C1231 H1202 0.930 . S
C1231 C1226 1.261 . S
C1231 C1230 1.312 . S
C1232 O1204 1.214 . S
C1232 O1212 1.234 . S
C1233 H1205 0.929 . S
C1233 C1236 1.391 . S
C1233 C1238 1.391 . S
C1234 H1206 0.929 . S
C1234 C1235 1.390 . S
C1234 N1237 1.391 . S
C1235 H1207 0.930 . S
C1235 C1234 1.390 . S
C1235 C1236 1.392 . S
C1236 H1208 0.929 . S
C1236 C1233 1.391 . S
C1236 C1235 1.392 . S
N1237 Co1181 2.257 . S
N1237 C1234 1.391 . S
N1237 C1238 1.388 . S
C1238 H1209 0.930 . S
C1238 C1233 1.391 . S
C1238 N1237 1.388 . S
Co1239 O1241 2.143 . S
Co1239 O1247 2.074 . S
Co1239 O1250 2.093 . S
Co1239 O1263 2.097 1_556 S
Co1239 N1280 2.151 . S
Co1239 N1288 2.214 . S
Co1240 O1241 2.160 1_554 S
Co1240 O1246 2.058 1_554 S
Co1240 O1256 2.057 . S
Co1240 O1271 2.037 . S
Co1240 N1275 2.145 . S
Co1240 N1296 2.257 . S
O1241 Co1239 2.143 . S
O1241 Co1240 2.160 1_556 S
C1242 O1243 1.278 . S
C1242 O1250 1.224 1_554 S
O1243 C1242 1.278 . S
C1244 O1245 1.245 1_554 S
C1244 O1256 1.232 . S
O1245 C1244 1.245 1_556 S
O1246 Co1240 2.058 1_556 S
O1246 C1272 1.269 . S
O1247 Co1239 2.074 . S
O1247 C1272 1.257 . S
H1248 C1273 0.930 1_565 S
H1249 C1279 0.930 . S
O1250 Co1239 2.093 . S
O1250 C1242 1.224 1_556 S
H1251 C1283 0.929 . S
H1252 C1285 0.930 . S
H1253 C1286 0.930 . S
H1254 C1284 0.929 . S
H1255 C1287 0.928 . S
O1256 Co1240 2.057 . S
O1256 C1244 1.232 . S
H1257 C1276 0.929 . S
H1258 C1277 0.929 . S
H1259 C1289 0.931 . S
H1260 C1281 0.929 . S
H1261 C1290 0.930 . S
H1262 C1282 0.931 . S
O1263 Co1239 2.097 1_554 S
O1263 C1291 1.214 . S
H1264 C1292 0.929 . S
H1265 C1293 0.929 . S
H1266 C1294 0.930 . S
H1267 C1295 0.929 . S
H1268 C1297 0.930 . S
H1269 C1274 0.930 . S
H1270 C1278 0.930 1_565 S
O1271 Co1240 2.037 . S
O1271 C1291 1.234 . S
C1272 O1246 1.269 . S
C1272 O1247 1.257 . S
C1273 H1248 0.930 1_545 S
C1273 C1276 1.388 . S
C1273 C1278 1.418 . S
C1274 H1269 0.930 . S
C1274 C1277 1.404 . S
C1274 C1278 1.353 . S
N1275 Co1240 2.145 . S
N1275 C1276 1.397 . S
N1275 C1277 1.334 . S
C1276 H1257 0.929 . S
C1276 C1273 1.388 . S
C1276 N1275 1.397 . S
C1277 H1258 0.929 . S
C1277 C1274 1.404 . S
C1277 N1275 1.334 . S
C1278 H1270 0.930 1_545 S
C1278 C1273 1.418 . S
C1278 C1274 1.353 . S
C1279 H1249 0.930 . S
C1279 N1280 1.330 . S
C1279 C1281 1.446 . S
N1280 Co1239 2.151 . S
N1280 C1279 1.330 . S
N1280 C1284 1.418 . S
C1281 H1260 0.929 . S
C1281 C1279 1.446 . S
C1281 C1282 1.332 . S
C1282 H1262 0.931 . S
C1282 C1281 1.332 . S
C1282 C1283 1.267 . S
C1283 H1251 0.929 . S
C1283 C1282 1.267 . S
C1283 C1284 1.251 . S
C1284 H1254 0.929 . S
C1284 N1280 1.418 . S
C1284 C1283 1.251 . S
C1285 H1252 0.930 . S
C1285 C1287 1.406 . S
C1285 C1290 1.261 . S
C1286 H1253 0.930 . S
C1286 N1288 1.325 . S
C1286 C1289 1.357 . S
C1287 H1255 0.928 . S
C1287 C1285 1.406 . S
C1287 N1288 1.261 . S
N1288 Co1239 2.214 . S
N1288 C1286 1.325 . S
N1288 C1287 1.261 . S
C1289 H1259 0.931 . S
C1289 C1286 1.357 . S
C1289 C1290 1.312 . S
C1290 H1261 0.930 . S
C1290 C1285 1.261 . S
C1290 C1289 1.312 . S
C1291 O1263 1.214 . S
C1291 O1271 1.234 . S
C1292 H1264 0.929 . S
C1292 C1295 1.391 . S
C1292 C1297 1.391 . S
C1293 H1265 0.929 . S
C1293 C1294 1.390 . S
C1293 N1296 1.391 . S
C1294 H1266 0.930 . S
C1294 C1293 1.390 . S
C1294 C1295 1.392 . S
C1295 H1267 0.929 . S
C1295 C1292 1.391 . S
C1295 C1294 1.392 . S
N1296 Co1240 2.257 . S
N1296 C1293 1.391 . S
N1296 C1297 1.388 . S
C1297 H1268 0.930 . S
C1297 C1292 1.391 . S
C1297 N1296 1.388 . S
Co1298 O1300 2.143 . S
Co1298 O1306 2.074 . S
Co1298 O1309 2.093 . S
Co1298 O1322 2.097 1_556 S
Co1298 N1339 2.151 . S
Co1298 N1347 2.214 . S
Co1299 O1300 2.160 1_554 S
Co1299 O1305 2.058 1_554 S
Co1299 O1315 2.057 . S
Co1299 O1330 2.037 . S
Co1299 N1334 2.145 . S
Co1299 N1355 2.257 . S
O1300 Co1298 2.143 . S
O1300 Co1299 2.160 1_556 S
C1301 O1302 1.278 . S
C1301 O1309 1.224 1_554 S
O1302 C1301 1.278 . S
C1303 O1304 1.245 1_554 S
C1303 O1315 1.232 . S
O1304 C1303 1.245 1_556 S
O1305 Co1299 2.058 1_556 S
O1305 C1331 1.269 . S
O1306 Co1298 2.074 . S
O1306 C1331 1.257 . S
H1307 C1332 0.930 . S
H1308 C1338 0.930 . S
O1309 Co1298 2.093 . S
O1309 C1301 1.224 1_556 S
H1310 C1342 0.929 . S
H1311 C1344 0.930 . S
H1312 C1345 0.930 . S
H1313 C1343 0.929 . S
H1314 C1346 0.928 . S
O1315 Co1299 2.057 . S
O1315 C1303 1.232 . S
H1316 C1335 0.929 . S
H1317 C1336 0.929 . S
H1318 C1348 0.931 . S
H1319 C1340 0.929 . S
H1320 C1349 0.930 . S
H1321 C1341 0.931 . S
O1322 Co1298 2.097 1_554 S
O1322 C1350 1.214 . S
H1323 C1351 0.929 . S
H1324 C1352 0.929 . S
H1325 C1353 0.930 . S
H1326 C1354 0.929 . S
H1327 C1356 0.930 . S
H1328 C1333 0.930 . S
H1329 C1337 0.930 . S
O1330 Co1299 2.037 . S
O1330 C1350 1.234 . S
C1331 O1305 1.269 . S
C1331 O1306 1.257 . S
C1332 H1307 0.930 . S
C1332 C1335 1.388 . S
C1332 C1337 1.418 . S
C1333 H1328 0.930 . S
C1333 C1336 1.404 . S
C1333 C1337 1.353 . S
N1334 Co1299 2.145 . S
N1334 C1335 1.397 . S
N1334 C1336 1.334 . S
C1335 H1316 0.929 . S
C1335 C1332 1.388 . S
C1335 N1334 1.397 . S
C1336 H1317 0.929 . S
C1336 C1333 1.404 . S
C1336 N1334 1.334 . S
C1337 H1329 0.930 . S
C1337 C1332 1.418 . S
C1337 C1333 1.353 . S
C1338 H1308 0.930 . S
C1338 N1339 1.330 . S
C1338 C1340 1.446 . S
N1339 Co1298 2.151 . S
N1339 C1338 1.330 . S
N1339 C1343 1.418 . S
C1340 H1319 0.929 . S
C1340 C1338 1.446 . S
C1340 C1341 1.332 . S
C1341 H1321 0.931 . S
C1341 C1340 1.332 . S
C1341 C1342 1.267 . S
C1342 H1310 0.929 . S
C1342 C1341 1.267 . S
C1342 C1343 1.251 . S
C1343 H1313 0.929 . S
C1343 N1339 1.418 . S
C1343 C1342 1.251 . S
C1344 H1311 0.930 . S
C1344 C1346 1.406 . S
C1344 C1349 1.261 . S
C1345 H1312 0.930 . S
C1345 N1347 1.325 . S
C1345 C1348 1.357 . S
C1346 H1314 0.928 . S
C1346 C1344 1.406 . S
C1346 N1347 1.261 . S
N1347 Co1298 2.214 . S
N1347 C1345 1.325 . S
N1347 C1346 1.261 . S
C1348 H1318 0.931 . S
C1348 C1345 1.357 . S
C1348 C1349 1.312 . S
C1349 H1320 0.930 . S
C1349 C1344 1.261 . S
C1349 C1348 1.312 . S
C1350 O1322 1.214 . S
C1350 O1330 1.234 . S
C1351 H1323 0.929 . S
C1351 C1354 1.391 . S
C1351 C1356 1.391 . S
C1352 H1324 0.929 . S
C1352 C1353 1.390 . S
C1352 N1355 1.391 . S
C1353 H1325 0.930 . S
C1353 C1352 1.390 . S
C1353 C1354 1.392 . S
C1354 H1326 0.929 . S
C1354 C1351 1.391 . S
C1354 C1353 1.392 . S
N1355 Co1299 2.257 . S
N1355 C1352 1.391 . S
N1355 C1356 1.388 . S
C1356 H1327 0.930 . S
C1356 C1351 1.391 . S
C1356 N1355 1.388 . S
Co1357 O1359 2.143 . S
Co1357 O1365 2.074 . S
Co1357 O1368 2.093 . S
Co1357 O1381 2.097 1_554 S
Co1357 N1398 2.151 . S
Co1357 N1406 2.214 1_655 S
Co1358 O1359 2.160 1_556 S
Co1358 O1364 2.058 1_556 S
Co1358 O1374 2.057 . S
Co1358 O1389 2.037 . S
Co1358 N1393 2.145 . S
Co1358 N1414 2.257 . S
O1359 Co1357 2.143 . S
O1359 Co1358 2.160 1_554 S
C1360 O1361 1.278 . S
C1360 O1368 1.224 1_556 S
O1361 C1360 1.278 . S
C1362 O1363 1.245 1_556 S
C1362 O1374 1.232 . S
O1363 C1362 1.245 1_554 S
O1364 Co1358 2.058 1_554 S
O1364 C1390 1.269 . S
O1365 Co1357 2.074 . S
O1365 C1390 1.257 . S
H1366 C1391 0.930 1_565 S
H1367 C1397 0.930 . S
O1368 Co1357 2.093 . S
O1368 C1360 1.224 1_554 S
H1369 C1401 0.929 . S
H1370 C1403 0.930 . S
H1371 C1404 0.930 . S
H1372 C1402 0.929 . S
H1373 C1405 0.928 . S
O1374 Co1358 2.057 . S
O1374 C1362 1.232 . S
H1375 C1394 0.929 . S
H1376 C1395 0.929 . S
H1377 C1407 0.931 . S
H1378 C1399 0.929 . S
H1379 C1408 0.930 . S
H1380 C1400 0.931 . S
O1381 Co1357 2.097 1_556 S
O1381 C1409 1.214 . S
H1382 C1410 0.929 . S
H1383 C1411 0.929 . S
H1384 C1412 0.930 . S
H1385 C1413 0.929 . S
H1386 C1415 0.930 . S
H1387 C1392 0.930 . S
H1388 C1396 0.930 1_565 S
O1389 Co1358 2.037 . S
O1389 C1409 1.234 . S
C1390 O1364 1.269 . S
C1390 O1365 1.257 . S
C1391 H1366 0.930 1_545 S
C1391 C1394 1.388 . S
C1391 C1396 1.418 . S
C1392 H1387 0.930 . S
C1392 C1395 1.404 . S
C1392 C1396 1.353 . S
N1393 Co1358 2.145 . S
N1393 C1394 1.397 . S
N1393 C1395 1.334 . S
C1394 H1375 0.929 . S
C1394 C1391 1.388 . S
C1394 N1393 1.397 . S
C1395 H1376 0.929 . S
C1395 C1392 1.404 . S
C1395 N1393 1.334 . S
C1396 H1388 0.930 1_545 S
C1396 C1391 1.418 . S
C1396 C1392 1.353 . S
C1397 H1367 0.930 . S
C1397 N1398 1.330 . S
C1397 C1399 1.446 . S
N1398 Co1357 2.151 . S
N1398 C1397 1.330 . S
N1398 C1402 1.418 . S
C1399 H1378 0.929 . S
C1399 C1397 1.446 . S
C1399 C1400 1.332 . S
C1400 H1380 0.931 . S
C1400 C1399 1.332 . S
C1400 C1401 1.267 . S
C1401 H1369 0.929 . S
C1401 C1400 1.267 . S
C1401 C1402 1.251 . S
C1402 H1372 0.929 . S
C1402 N1398 1.418 . S
C1402 C1401 1.251 . S
C1403 H1370 0.930 . S
C1403 C1405 1.406 . S
C1403 C1408 1.261 . S
C1404 H1371 0.930 . S
C1404 N1406 1.325 . S
C1404 C1407 1.357 . S
C1405 H1373 0.928 . S
C1405 C1403 1.406 . S
C1405 N1406 1.261 . S
N1406 Co1357 2.214 1_455 S
N1406 C1404 1.325 . S
N1406 C1405 1.261 . S
C1407 H1377 0.931 . S
C1407 C1404 1.357 . S
C1407 C1408 1.312 . S
C1408 H1379 0.930 . S
C1408 C1403 1.261 . S
C1408 C1407 1.312 . S
C1409 O1381 1.214 . S
C1409 O1389 1.234 . S
C1410 H1382 0.929 . S
C1410 C1413 1.391 . S
C1410 C1415 1.391 . S
C1411 H1383 0.929 . S
C1411 C1412 1.390 . S
C1411 N1414 1.391 . S
C1412 H1384 0.930 . S
C1412 C1411 1.390 . S
C1412 C1413 1.392 . S
C1413 H1385 0.929 . S
C1413 C1410 1.391 . S
C1413 C1412 1.392 . S
N1414 Co1358 2.257 . S
N1414 C1411 1.391 . S
N1414 C1415 1.388 . S
C1415 H1386 0.930 . S
C1415 C1410 1.391 . S
C1415 N1414 1.388 . S
C1416 C1417 1.369 . S
C1416 C1418 1.419 . S
C1416 H1420 0.930 . S
C1417 C1416 1.369 . S
C1417 C1426 1.429 . S
C1418 C1416 1.419 . S
C1418 C1419 1.363 . S
C1418 H1421 0.929 . S
C1419 C1418 1.363 . S
C1419 C1425 1.428 . S
H1420 C1416 0.930 . S
H1421 C1418 0.929 . S
S1422 N1423 1.613 . S
S1422 N1424 1.610 . S
N1423 S1422 1.613 . S
N1423 C1426 1.350 . S
N1424 S1422 1.610 . S
N1424 C1425 1.351 . S
C1425 C1419 1.428 . S
C1425 N1424 1.351 . S
C1425 C1426 1.434 . S
C1426 C1417 1.429 . S
C1426 N1423 1.350 . S
C1426 C1425 1.434 . S
C1427 C1428 1.369 . S
C1427 C1429 1.419 . S
C1427 H1431 0.930 . S
C1428 C1427 1.369 . S
C1428 C1437 1.429 . S
C1429 C1427 1.419 . S
C1429 C1430 1.363 . S
C1429 H1432 0.929 . S
C1430 C1429 1.363 . S
C1430 C1436 1.428 . S
H1431 C1427 0.930 . S
H1432 C1429 0.929 . S
S1433 N1434 1.613 . S
S1433 N1435 1.610 . S
N1434 S1433 1.613 . S
N1434 C1437 1.350 . S
N1435 S1433 1.610 . S
N1435 C1436 1.351 . S
C1436 C1430 1.428 . S
C1436 N1435 1.351 . S
C1436 C1437 1.434 . S
C1437 C1428 1.429 . S
C1437 N1434 1.350 . S
C1437 C1436 1.434 . S
C1438 C1439 1.369 . S
C1438 C1440 1.419 . S
C1438 H1442 0.930 . S
C1439 C1438 1.369 . S
C1439 C1448 1.429 . S
C1440 C1438 1.419 . S
C1440 C1441 1.363 1_554 S
C1440 H1443 0.929 . S
C1441 C1440 1.363 1_556 S
C1441 C1447 1.431 . S
H1442 C1438 0.930 . S
H1443 C1440 0.929 . S
S1444 N1445 1.613 1_656 S
S1444 N1446 1.610 1_655 S
N1445 S1444 1.613 1_454 S
N1445 C1448 1.350 . S
N1446 S1444 1.610 1_455 S
N1446 C1447 1.359 . S
C1447 C1441 1.431 . S
C1447 N1446 1.359 . S
C1447 C1448 1.423 1_556 S
C1448 C1439 1.429 . S
C1448 N1445 1.350 . S
C1448 C1447 1.423 1_554 S
C1449 C1450 1.369 . S
C1449 C1451 1.419 . S
C1449 H1453 0.930 . S
C1450 C1449 1.369 . S
C1450 C1459 1.429 . S
C1451 C1449 1.419 . S
C1451 C1452 1.363 1_554 S
C1451 H1454 0.929 . S
C1452 C1451 1.363 1_556 S
C1452 C1458 1.428 . S
H1453 C1449 0.930 . S
H1454 C1451 0.929 . S
S1455 N1456 1.613 1_556 S
S1455 N1457 1.610 . S
N1456 S1455 1.613 1_554 S
N1456 C1459 1.350 . S
N1457 S1455 1.610 . S
N1457 C1458 1.351 . S
C1458 C1452 1.428 . S
C1458 N1457 1.351 . S
C1458 C1459 1.434 1_556 S
C1459 C1450 1.429 . S
C1459 N1456 1.350 . S
C1459 C1458 1.434 1_554 S
C1460 C1461 1.369 . S
C1460 C1462 1.419 . S
C1460 H1464 0.930 . S
C1461 C1460 1.369 . S
C1461 C1470 1.429 . S
C1462 C1460 1.419 . S
C1462 C1463 1.363 . S
C1462 H1465 0.929 . S
C1463 C1462 1.363 . S
C1463 C1469 1.428 . S
H1464 C1460 0.930 . S
H1465 C1462 0.929 . S
S1466 N1467 1.613 . S
S1466 N1468 1.610 . S
N1467 S1466 1.613 . S
N1467 C1470 1.350 . S
N1468 S1466 1.610 . S
N1468 C1469 1.351 . S
C1469 C1463 1.428 . S
C1469 N1468 1.351 . S
C1469 C1470 1.434 . S
C1470 C1461 1.429 . S
C1470 N1467 1.350 . S
C1470 C1469 1.434 . S
C1471 C1472 1.369 . S
C1471 C1473 1.419 . S
C1471 H1475 0.930 . S
C1472 C1471 1.369 . S
C1472 C1481 1.429 . S
C1473 C1471 1.419 . S
C1473 C1474 1.363 . S
C1473 H1476 0.929 . S
C1474 C1473 1.363 . S
C1474 C1480 1.428 . S
H1475 C1471 0.930 . S
H1476 C1473 0.929 . S
S1477 N1478 1.613 . S
S1477 N1479 1.610 . S
N1478 S1477 1.613 . S
N1478 C1481 1.350 . S
N1479 S1477 1.610 . S
N1479 C1480 1.351 . S
C1480 C1474 1.428 . S
C1480 N1479 1.351 . S
C1480 C1481 1.434 . S
C1481 C1472 1.429 . S
C1481 N1478 1.350 . S
C1481 C1480 1.434 . S
C1482 C1483 1.369 . S
C1482 C1484 1.419 . S
C1482 H1486 0.930 . S
C1483 C1482 1.369 . S
C1483 C1492 1.429 . S
C1484 C1482 1.419 . S
C1484 C1485 1.363 . S
C1484 H1487 0.929 . S
C1485 C1484 1.363 . S
C1485 C1491 1.428 . S
H1486 C1482 0.930 . S
H1487 C1484 0.929 . S
S1488 N1489 1.613 . S
S1488 N1490 1.610 . S
N1489 S1488 1.613 . S
N1489 C1492 1.350 . S
N1490 S1488 1.610 . S
N1490 C1491 1.351 . S
C1491 C1485 1.428 . S
C1491 N1490 1.351 . S
C1491 C1492 1.434 . S
C1492 C1483 1.429 . S
C1492 N1489 1.350 . S
C1492 C1491 1.434 . S
C1493 C1494 1.369 . S
C1493 C1495 1.419 . S
C1493 H1497 0.930 . S
C1494 C1493 1.369 . S
C1494 C1503 1.429 . S
C1495 C1493 1.419 . S
C1495 C1496 1.363 . S
C1495 H1498 0.929 . S
C1496 C1495 1.363 . S
C1496 C1502 1.428 . S
H1497 C1493 0.930 . S
H1498 C1495 0.929 . S
S1499 N1500 1.613 . S
S1499 N1501 1.610 . S
N1500 S1499 1.613 . S
N1500 C1503 1.350 . S
N1501 S1499 1.610 . S
N1501 C1502 1.351 . S
C1502 C1496 1.428 . S
C1502 N1501 1.351 . S
C1502 C1503 1.434 . S
C1503 C1494 1.429 . S
C1503 N1500 1.350 . S
C1503 C1502 1.434 . S
C1504 C1505 1.369 . S
C1504 C1506 1.419 . S
C1504 H1508 0.930 . S
C1505 C1504 1.369 . S
C1505 C1514 1.429 . S
C1506 C1504 1.419 . S
C1506 C1507 1.363 . S
C1506 H1509 0.929 . S
C1507 C1506 1.363 . S
C1507 C1513 1.428 . S
H1508 C1504 0.930 . S
H1509 C1506 0.929 . S
S1510 N1511 1.613 1_655 S
S1510 N1512 1.612 . S
N1511 S1510 1.613 1_455 S
N1511 C1514 1.350 . S
N1512 S1510 1.612 . S
N1512 C1513 1.344 1_655 S
C1513 C1507 1.428 . S
C1513 N1512 1.344 1_455 S
C1513 C1514 1.434 . S
C1514 C1505 1.429 . S
C1514 N1511 1.350 . S
C1514 C1513 1.434 . S
C1515 C1516 1.369 . S
C1515 C1517 1.419 . S
C1515 H1519 0.930 . S
C1516 C1515 1.369 . S
C1516 C1525 1.429 . S
C1517 C1515 1.419 . S
C1517 C1518 1.363 . S
C1517 H1520 0.929 . S
C1518 C1517 1.363 . S
C1518 C1524 1.428 . S
H1519 C1515 0.930 . S
H1520 C1517 0.929 . S
S1521 N1522 1.613 . S
S1521 N1523 1.610 1_655 S
N1522 S1521 1.613 . S
N1522 C1525 1.350 1_655 S
N1523 S1521 1.610 1_455 S
N1523 C1524 1.351 . S
C1524 C1518 1.428 . S
C1524 N1523 1.351 . S
C1524 C1525 1.434 . S
C1525 C1516 1.429 . S
C1525 N1522 1.350 1_455 S
C1525 C1524 1.434 . S
C1526 C1527 1.369 . S
C1526 C1528 1.419 . S
C1526 H1530 0.930 . S
C1527 C1526 1.369 . S
C1527 C1536 1.429 . S
C1528 C1526 1.419 . S
C1528 C1529 1.363 1_565 S
C1528 H1531 0.929 1_565 S
C1529 C1528 1.363 1_545 S
C1529 C1535 1.428 1_545 S
H1530 C1526 0.930 . S
H1531 C1528 0.929 1_545 S
S1532 N1533 1.613 1_455 S
S1532 N1534 1.610 . S
N1533 S1532 1.613 1_655 S
N1533 C1536 1.350 . S
N1534 S1532 1.610 . S
N1534 C1535 1.351 1_455 S
C1535 C1529 1.428 1_565 S
C1535 N1534 1.351 1_655 S
C1535 C1536 1.434 . S
C1536 C1527 1.429 . S
C1536 N1533 1.350 . S
C1536 C1535 1.434 . S
C1537 C1538 1.369 . S
C1537 C1539 1.419 . S
C1537 H1541 0.930 . S
C1538 C1537 1.369 . S
C1538 C1547 1.429 . S
C1539 C1537 1.419 . S
C1539 C1540 1.363 . S
C1539 H1542 0.929 . S
C1540 C1539 1.363 . S
C1540 C1546 1.428 . S
H1541 C1537 0.930 . S
H1542 C1539 0.929 . S
S1543 N1544 1.613 . S
S1543 N1545 1.610 . S
N1544 S1543 1.613 . S
N1544 C1547 1.350 . S
N1545 S1543 1.610 . S
N1545 C1546 1.351 . S
C1546 C1540 1.428 . S
C1546 N1545 1.351 . S
C1546 C1547 1.434 . S
C1547 C1538 1.429 . S
C1547 N1544 1.350 . S
C1547 C1546 1.434 . S
C1548 C1549 1.369 1_556 S
C1548 C1550 1.419 . S
C1548 H1552 0.930 . S
C1549 C1548 1.369 1_554 S
C1549 C1558 1.434 . S
C1550 C1548 1.419 . S
C1550 C1551 1.363 . S
C1550 H1553 0.929 . S
C1551 C1550 1.363 . S
C1551 C1557 1.428 . S
H1552 C1548 0.930 . S
H1553 C1550 0.929 . S
S1554 N1555 1.613 1_556 S
S1554 N1556 1.610 . S
N1555 S1554 1.613 1_554 S
N1555 C1558 1.361 . S
N1556 S1554 1.610 . S
N1556 C1557 1.351 . S
C1557 C1551 1.428 . S
C1557 N1556 1.351 . S
C1557 C1558 1.415 1_556 S
C1558 C1549 1.434 . S
C1558 N1555 1.361 . S
C1558 C1557 1.415 1_554 S
C1559 C1560 1.367 1_556 S
C1559 C1561 1.436 . S
C1559 H1563 0.915 1_556 S
C1560 C1559 1.367 1_554 S
C1560 C1569 1.429 1_554 S
C1561 C1559 1.436 . S
C1561 C1562 1.363 . S
C1561 H1564 0.929 . S
C1562 C1561 1.363 . S
C1562 C1568 1.428 . S
H1563 C1559 0.915 1_554 S
H1564 C1561 0.929 . S
S1565 N1566 1.613 . S
S1565 N1567 1.610 . S
N1566 S1565 1.613 . S
N1566 C1569 1.350 . S
N1567 S1565 1.610 . S
N1567 C1568 1.351 . S
C1568 C1562 1.428 . S
C1568 N1567 1.351 . S
C1568 C1569 1.434 . S
C1569 C1560 1.429 1_556 S
C1569 N1566 1.350 . S
C1569 C1568 1.434 . S
C1570 C1571 1.369 . S
C1570 C1572 1.419 . S
C1570 H1574 0.930 . S
C1571 C1570 1.369 . S
C1571 C1580 1.429 . S
C1572 C1570 1.419 . S
C1572 C1573 1.363 . S
C1572 H1575 0.929 . S
C1573 C1572 1.363 . S
C1573 C1579 1.428 . S
H1574 C1570 0.930 . S
H1575 C1572 0.929 . S
S1576 N1577 1.613 . S
S1576 N1578 1.610 . S
N1577 S1576 1.613 . S
N1577 C1580 1.350 . S
N1578 S1576 1.610 . S
N1578 C1579 1.351 . S
C1579 C1573 1.428 . S
C1579 N1578 1.351 . S
C1579 C1580 1.434 . S
C1580 C1571 1.429 . S
C1580 N1577 1.350 . S
C1580 C1579 1.434 . S
C1581 C1582 1.369 . S
C1581 C1583 1.419 . S
C1581 H1585 0.930 . S
C1582 C1581 1.369 . S
C1582 C1591 1.429 . S
C1583 C1581 1.419 . S
C1583 C1584 1.363 . S
C1583 H1586 0.929 . S
C1584 C1583 1.363 . S
C1584 C1590 1.428 . S
H1585 C1581 0.930 . S
H1586 C1583 0.929 . S
S1587 N1588 1.613 . S
S1587 N1589 1.610 . S
N1588 S1587 1.613 . S
N1588 C1591 1.350 . S
N1589 S1587 1.610 . S
N1589 C1590 1.351 . S
C1590 C1584 1.428 . S
C1590 N1589 1.351 . S
C1590 C1591 1.434 . S
C1591 C1582 1.429 . S
C1591 N1588 1.350 . S
C1591 C1590 1.434 . S
C1592 C1593 1.374 . S
C1592 C1594 1.403 1_455 S
C1592 H1596 0.941 . S
C1593 C1592 1.374 . S
C1593 C1602 1.429 1_455 S
C1594 C1592 1.403 1_655 S
C1594 C1595 1.363 . S
C1594 H1597 0.929 . S
C1595 C1594 1.363 . S
C1595 C1601 1.428 . S
H1596 C1592 0.941 . S
H1597 C1594 0.929 . S
S1598 N1599 1.613 . S
S1598 N1600 1.610 . S
N1599 S1598 1.613 . S
N1599 C1602 1.350 . S
N1600 S1598 1.610 . S
N1600 C1601 1.351 . S
C1601 C1595 1.428 . S
C1601 N1600 1.351 . S
C1601 C1602 1.434 . S
C1602 C1593 1.429 1_655 S
C1602 N1599 1.350 . S
C1602 C1601 1.434 . S
C1603 C1604 1.369 . S
C1603 C1605 1.419 1_655 S
C1603 H1607 0.930 . S
C1604 C1603 1.369 . S
C1604 C1613 1.429 1_655 S
C1605 C1603 1.419 1_455 S
C1605 C1606 1.363 . S
C1605 H1608 0.929 . S
C1606 C1605 1.363 . S
C1606 C1612 1.428 . S
H1607 C1603 0.930 . S
H1608 C1605 0.929 . S
S1609 N1610 1.613 . S
S1609 N1611 1.610 . S
N1610 S1609 1.613 . S
N1610 C1613 1.350 . S
N1611 S1609 1.610 . S
N1611 C1612 1.351 . S
C1612 C1606 1.428 . S
C1612 N1611 1.351 . S
C1612 C1613 1.434 . S
C1613 C1604 1.429 1_455 S
C1613 N1610 1.350 . S
C1613 C1612 1.434 . S
C1614 C1615 1.369 1_655 S
C1614 C1616 1.419 . S
C1614 H1618 0.930 . S
C1615 C1614 1.369 1_455 S
C1615 C1624 1.429 1_455 S
C1616 C1614 1.419 . S
C1616 C1617 1.363 . S
C1616 H1619 0.929 . S
C1617 C1616 1.363 . S
C1617 C1623 1.428 . S
H1618 C1614 0.930 . S
H1619 C1616 0.929 . S
S1620 N1621 1.613 . S
S1620 N1622 1.610 1_554 S
N1621 S1620 1.613 . S
N1621 C1624 1.350 1_554 S
N1622 S1620 1.610 1_556 S
N1622 C1623 1.351 . S
C1623 C1617 1.428 . S
C1623 N1622 1.351 . S
C1623 C1624 1.434 . S
C1624 C1615 1.429 1_655 S
C1624 N1621 1.350 1_556 S
C1624 C1623 1.434 . S
C1625 C1626 1.369 . S
C1625 C1627 1.419 . S
C1625 H1629 0.930 . S
C1626 C1625 1.369 . S
C1626 C1635 1.429 . S
C1627 C1625 1.419 . S
C1627 C1628 1.363 1_455 S
C1627 H1630 0.929 . S
C1628 C1627 1.363 1_655 S
C1628 C1634 1.428 . S
H1629 C1625 0.930 . S
H1630 C1627 0.929 . S
S1631 N1632 1.613 1_655 S
S1631 N1633 1.610 . S
N1632 S1631 1.613 1_455 S
N1632 C1635 1.350 . S
N1633 S1631 1.610 . S
N1633 C1634 1.351 . S
C1634 C1628 1.428 . S
C1634 N1633 1.351 . S
C1634 C1635 1.434 1_655 S
C1635 C1626 1.429 . S
C1635 N1632 1.350 . S
C1635 C1634 1.434 1_455 S
C1636 C1637 1.369 . S
C1636 C1638 1.419 1_545 S
C1636 H1640 0.930 . S
C1637 C1636 1.369 . S
C1637 C1646 1.429 1_545 S
C1638 C1636 1.419 1_565 S
C1638 C1639 1.363 . S
C1638 H1641 0.929 . S
C1639 C1638 1.363 . S
C1639 C1645 1.428 . S
H1640 C1636 0.930 . S
H1641 C1638 0.929 . S
S1642 N1643 1.613 . S
S1642 N1644 1.610 . S
N1643 S1642 1.613 . S
N1643 C1646 1.350 . S
N1644 S1642 1.610 . S
N1644 C1645 1.351 . S
C1645 C1639 1.428 . S
C1645 N1644 1.351 . S
C1645 C1646 1.434 . S
C1646 C1637 1.429 1_565 S
C1646 N1643 1.350 . S
C1646 C1645 1.434 . S
C1647 C1648 1.369 . S
C1647 C1649 1.419 . S
C1647 H1651 0.930 . S
C1648 C1647 1.369 . S
C1648 C1657 1.429 . S
C1649 C1647 1.419 . S
C1649 C1650 1.363 1_545 S
C1649 H1652 0.929 1_545 S
C1650 C1649 1.363 1_565 S
C1650 C1656 1.428 1_565 S
H1651 C1647 0.930 . S
H1652 C1649 0.929 1_565 S
S1653 N1654 1.613 . S
S1653 N1655 1.610 1_545 S
N1654 S1653 1.613 . S
N1654 C1657 1.350 . S
N1655 S1653 1.610 1_565 S
N1655 C1656 1.351 1_565 S
C1656 C1650 1.428 1_545 S
C1656 N1655 1.351 1_545 S
C1656 C1657 1.434 . S
C1657 C1648 1.429 . S
C1657 N1654 1.350 . S
C1657 C1656 1.434 . S
C1658 C1659 1.369 . S
C1658 C1660 1.419 . S
C1658 H1662 0.930 . S
C1659 C1658 1.369 . S
C1659 C1668 1.429 . S
C1660 C1658 1.419 . S
C1660 C1661 1.363 . S
C1660 H1663 0.929 . S
C1661 C1660 1.363 . S
C1661 C1667 1.428 . S
H1662 C1658 0.930 . S
H1663 C1660 0.929 . S
S1664 N1665 1.613 . S
S1664 N1666 1.610 . S
N1665 S1664 1.613 . S
N1665 C1668 1.350 . S
N1666 S1664 1.610 . S
N1666 C1667 1.351 . S
C1667 C1661 1.428 . S
C1667 N1666 1.351 . S
C1667 C1668 1.434 . S
C1668 C1659 1.429 . S
C1668 N1665 1.350 . S
C1668 C1667 1.434 . S
C1669 C1670 1.369 . S
C1669 C1671 1.419 1_545 S
C1669 H1673 0.930 . S
C1670 C1669 1.369 . S
C1670 C1679 1.429 . S
C1671 C1669 1.419 1_565 S
C1671 C1672 1.363 . S
C1671 H1674 0.929 . S
C1672 C1671 1.363 . S
C1672 C1678 1.428 1_565 S
H1673 C1669 0.930 . S
H1674 C1671 0.929 . S
S1675 N1676 1.613 . S
S1675 N1677 1.610 . S
N1676 S1675 1.613 . S
N1676 C1679 1.350 . S
N1677 S1675 1.610 . S
N1677 C1678 1.351 . S
C1678 C1672 1.428 1_545 S
C1678 N1677 1.351 . S
C1678 C1679 1.434 . S
C1679 C1670 1.429 . S
C1679 N1676 1.350 . S
C1679 C1678 1.434 . S
C1680 C1681 1.366 1_455 S
C1680 C1682 1.419 . S
C1680 H1684 0.930 . S
C1681 C1680 1.366 1_655 S
C1681 C1690 1.430 . S
C1682 C1680 1.419 . S
C1682 C1683 1.363 . S
C1682 H1685 0.929 . S
C1683 C1682 1.363 . S
C1683 C1689 1.428 1_455 S
H1684 C1680 0.930 . S
H1685 C1682 0.929 . S
S1686 N1687 1.613 . S
S1686 N1688 1.610 . S
N1687 S1686 1.613 . S
N1687 C1690 1.350 . S
N1688 S1686 1.610 . S
N1688 C1689 1.351 . S
C1689 C1683 1.428 1_655 S
C1689 N1688 1.351 . S
C1689 C1690 1.434 . S
C1690 C1681 1.430 . S
C1690 N1687 1.350 . S
C1690 C1689 1.434 . S
C1691 C1692 1.369 1_655 S
C1691 C1693 1.419 . S
C1691 H1695 0.930 . S
C1692 C1691 1.369 1_455 S
C1692 C1701 1.429 . S
C1693 C1691 1.419 . S
C1693 C1694 1.363 . S
C1693 H1696 0.929 . S
C1694 C1693 1.363 . S
C1694 C1700 1.428 1_655 S
H1695 C1691 0.930 . S
H1696 C1693 0.929 . S
S1697 N1698 1.613 . S
S1697 N1699 1.610 . S
N1698 S1697 1.613 . S
N1698 C1701 1.350 . S
N1699 S1697 1.610 . S
N1699 C1700 1.351 . S
C1700 C1694 1.428 1_455 S
C1700 N1699 1.351 . S
C1700 C1701 1.434 . S
C1701 C1692 1.429 . S
C1701 N1698 1.350 . S
C1701 C1700 1.434 . S
C1702 C1703 1.372 . S
C1702 C1704 1.419 . S
C1702 H1706 0.930 . S
C1703 C1702 1.372 . S
C1703 C1712 1.426 1_565 S
C1704 C1702 1.419 . S
C1704 C1705 1.363 1_565 S
C1704 H1707 0.929 . S
C1705 C1704 1.363 1_545 S
C1705 C1711 1.428 . S
H1706 C1702 0.930 . S
H1707 C1704 0.929 . S
S1708 N1709 1.613 . S
S1708 N1710 1.610 . S
N1709 S1708 1.613 . S
N1709 C1712 1.350 . S
N1710 S1708 1.610 . S
N1710 C1711 1.351 . S
C1711 C1705 1.428 . S
C1711 N1710 1.351 . S
C1711 C1712 1.434 . S
C1712 C1703 1.426 1_545 S
C1712 N1709 1.350 . S
C1712 C1711 1.434 . S
C1713 C1714 1.369 . S
C1713 C1715 1.419 . S
C1713 H1717 0.930 . S
C1714 C1713 1.369 . S
C1714 C1723 1.429 . S
C1715 C1713 1.419 . S
C1715 C1716 1.363 . S
C1715 H1718 0.929 . S
C1716 C1715 1.363 . S
C1716 C1722 1.428 . S
H1717 C1713 0.930 . S
H1718 C1715 0.929 . S
S1719 N1720 1.613 . S
S1719 N1721 1.610 . S
N1720 S1719 1.613 . S
N1720 C1723 1.350 . S
N1721 S1719 1.610 . S
N1721 C1722 1.351 . S
C1722 C1716 1.428 . S
C1722 N1721 1.351 . S
C1722 C1723 1.434 . S
C1723 C1714 1.429 . S
C1723 N1720 1.350 . S
C1723 C1722 1.434 . S
C1724 C1725 1.369 1_556 S
C1724 C1726 1.419 . S
C1724 H1728 0.930 . S
C1725 C1724 1.369 1_554 S
C1725 C1734 1.429 . S
C1726 C1724 1.419 . S
C1726 C1727 1.368 . S
C1726 H1729 0.929 . S
C1727 C1726 1.368 . S
C1727 C1733 1.422 1_556 S
H1728 C1724 0.930 . S
H1729 C1726 0.929 . S
S1730 N1731 1.613 . S
S1730 N1732 1.610 . S
N1731 S1730 1.613 . S
N1731 C1734 1.350 . S
N1732 S1730 1.610 . S
N1732 C1733 1.351 . S
C1733 C1727 1.422 1_554 S
C1733 N1732 1.351 . S
C1733 C1734 1.434 . S
C1734 C1725 1.429 . S
C1734 N1731 1.350 . S
C1734 C1733 1.434 . S
C1735 C1736 1.369 . S
C1735 C1737 1.419 . S
C1735 H1739 0.930 . S
C1736 C1735 1.369 . S
C1736 C1745 1.429 . S
C1737 C1735 1.419 . S
C1737 C1738 1.363 . S
C1737 H1740 0.929 . S
C1738 C1737 1.363 . S
C1738 C1744 1.428 . S
H1739 C1735 0.930 . S
H1740 C1737 0.929 . S
S1741 N1742 1.613 . S
S1741 N1743 1.610 . S
N1742 S1741 1.613 . S
N1742 C1745 1.350 . S
N1743 S1741 1.610 . S
N1743 C1744 1.351 . S
C1744 C1738 1.428 . S
C1744 N1743 1.351 . S
C1744 C1745 1.434 . S
C1745 C1736 1.429 . S
C1745 N1742 1.350 . S
C1745 C1744 1.434 . S
C1746 C1747 1.369 . S
C1746 C1748 1.419 . S
C1746 H1750 0.930 . S
C1747 C1746 1.369 . S
C1747 C1756 1.429 . S
C1748 C1746 1.419 . S
C1748 C1749 1.363 . S
C1748 H1751 0.929 . S
C1749 C1748 1.363 . S
C1749 C1755 1.428 . S
H1750 C1746 0.930 . S
H1751 C1748 0.929 . S
S1752 N1753 1.613 . S
S1752 N1754 1.610 . S
N1753 S1752 1.613 . S
N1753 C1756 1.350 . S
N1754 S1752 1.610 . S
N1754 C1755 1.351 . S
C1755 C1749 1.428 . S
C1755 N1754 1.351 . S
C1755 C1756 1.434 . S
C1756 C1747 1.429 . S
C1756 N1753 1.350 . S
C1756 C1755 1.434 . S
C1757 C1758 1.369 . S
C1757 C1759 1.419 . S
C1757 H1761 0.930 . S
C1758 C1757 1.369 . S
C1758 C1767 1.429 . S
C1759 C1757 1.419 . S
C1759 C1760 1.363 . S
C1759 H1762 0.929 . S
C1760 C1759 1.363 . S
C1760 C1766 1.428 . S
H1761 C1757 0.930 . S
H1762 C1759 0.929 . S
S1763 N1764 1.613 . S
S1763 N1765 1.610 . S
N1764 S1763 1.613 . S
N1764 C1767 1.350 . S
N1765 S1763 1.610 . S
N1765 C1766 1.351 . S
C1766 C1760 1.428 . S
C1766 N1765 1.351 . S
C1766 C1767 1.434 . S
C1767 C1758 1.429 . S
C1767 N1764 1.350 . S
C1767 C1766 1.434 . S
C1768 C1769 1.369 . S
C1768 C1770 1.419 . S
C1768 H1772 0.930 . S
C1769 C1768 1.369 . S
C1769 C1778 1.429 . S
C1770 C1768 1.419 . S
C1770 C1771 1.363 . S
C1770 H1773 0.929 . S
C1771 C1770 1.363 . S
C1771 C1777 1.428 . S
H1772 C1768 0.930 . S
H1773 C1770 0.929 . S
S1774 N1775 1.613 . S
S1774 N1776 1.610 . S
N1775 S1774 1.613 . S
N1775 C1778 1.350 . S
N1776 S1774 1.610 . S
N1776 C1777 1.351 . S
C1777 C1771 1.428 . S
C1777 N1776 1.351 . S
C1777 C1778 1.434 . S
C1778 C1769 1.429 . S
C1778 N1775 1.350 . S
C1778 C1777 1.434 . S
C1779 C1780 1.369 . S
C1779 C1781 1.419 . S
C1779 H1783 0.930 . S
C1780 C1779 1.369 . S
C1780 C1789 1.429 . S
C1781 C1779 1.419 . S
C1781 C1782 1.363 . S
C1781 H1784 0.929 . S
C1782 C1781 1.363 . S
C1782 C1788 1.428 . S
H1783 C1779 0.930 . S
H1784 C1781 0.929 . S
S1785 N1786 1.613 . S
S1785 N1787 1.610 . S
N1786 S1785 1.613 . S
N1786 C1789 1.350 . S
N1787 S1785 1.610 . S
N1787 C1788 1.351 . S
C1788 C1782 1.428 . S
C1788 N1787 1.351 . S
C1788 C1789 1.434 . S
C1789 C1780 1.429 . S
C1789 N1786 1.350 . S
C1789 C1788 1.434 . S
C1790 C1791 1.369 . S
C1790 C1792 1.420 . S
C1790 H1794 0.930 . S
C1791 C1790 1.369 . S
C1791 C1800 1.429 . S
C1792 C1790 1.420 . S
C1792 C1793 1.362 1_545 S
C1792 H1795 0.929 . S
C1793 C1792 1.362 1_565 S
C1793 C1799 1.429 . S
H1794 C1790 0.930 . S
H1795 C1792 0.929 . S
S1796 N1797 1.613 . S
S1796 N1798 1.610 1_545 S
N1797 S1796 1.613 . S
N1797 C1800 1.350 . S
N1798 S1796 1.610 1_565 S
N1798 C1799 1.351 . S
C1799 C1793 1.429 . S
C1799 N1798 1.351 . S
C1799 C1800 1.433 1_565 S
C1800 C1791 1.429 . S
C1800 N1797 1.350 . S
C1800 C1799 1.433 1_545 S
C1801 C1802 1.369 . S
C1801 C1803 1.419 . S
C1801 H1805 0.930 . S
C1802 C1801 1.369 . S
C1802 C1811 1.429 1_556 S
C1803 C1801 1.419 . S
C1803 C1804 1.363 1_556 S
C1803 H1806 0.929 . S
C1804 C1803 1.363 1_554 S
C1804 C1810 1.428 . S
H1805 C1801 0.930 . S
H1806 C1803 0.929 . S
S1807 N1808 1.613 . S
S1807 N1809 1.610 . S
N1808 S1807 1.613 . S
N1808 C1811 1.350 . S
N1809 S1807 1.610 . S
N1809 C1810 1.351 . S
C1810 C1804 1.428 . S
C1810 N1809 1.351 . S
C1810 C1811 1.434 . S
C1811 C1802 1.429 1_554 S
C1811 N1808 1.350 . S
C1811 C1810 1.434 . S
C1812 C1813 1.369 . S
C1812 C1814 1.419 1_565 S
C1812 H1816 0.930 . S
C1813 C1812 1.369 . S
C1813 C1822 1.429 1_655 S
C1814 C1812 1.419 1_545 S
C1814 C1815 1.363 . S
C1814 H1817 0.929 . S
C1815 C1814 1.363 . S
C1815 C1821 1.428 1_655 S
H1816 C1812 0.930 . S
H1817 C1814 0.929 . S
S1818 N1819 1.613 . S
S1818 N1820 1.610 1_565 S
N1819 S1818 1.613 . S
N1819 C1822 1.350 . S
N1820 S1818 1.610 1_545 S
N1820 C1821 1.351 . S
C1821 C1815 1.428 1_455 S
C1821 N1820 1.351 . S
C1821 C1822 1.434 1_545 S
C1822 C1813 1.429 1_455 S
C1822 N1819 1.350 . S
C1822 C1821 1.434 1_565 S
C1823 C1824 1.369 . S
C1823 C1825 1.419 . S
C1823 H1827 0.930 . S
C1824 C1823 1.369 . S
C1824 C1833 1.429 1_455 S
C1825 C1823 1.419 . S
C1825 C1826 1.363 . S
C1825 H1828 0.929 . S
C1826 C1825 1.363 . S
C1826 C1832 1.428 1_455 S
H1827 C1823 0.930 . S
H1828 C1825 0.929 . S
S1829 N1830 1.613 . S
S1829 N1831 1.610 . S
N1830 S1829 1.613 . S
N1830 C1833 1.350 . S
N1831 S1829 1.610 . S
N1831 C1832 1.351 . S
C1832 C1826 1.428 1_655 S
C1832 N1831 1.351 . S
C1832 C1833 1.434 . S
C1833 C1824 1.429 1_655 S
C1833 N1830 1.350 . S
C1833 C1832 1.434 . S
C1834 C1835 1.369 . S
C1834 C1836 1.419 . S
C1834 H1838 0.930 . S
C1835 C1834 1.369 . S
C1835 C1844 1.430 1_565 S
C1836 C1834 1.419 . S
C1836 C1837 1.363 1_556 S
C1836 H1839 0.929 . S
C1837 C1836 1.363 1_554 S
C1837 C1843 1.428 1_565 S
H1838 C1834 0.930 . S
H1839 C1836 0.929 . S
S1840 N1841 1.613 . S
S1840 N1842 1.610 . S
N1841 S1840 1.613 . S
N1841 C1844 1.350 1_554 S
N1842 S1840 1.610 . S
N1842 C1843 1.351 . S
C1843 C1837 1.428 1_545 S
C1843 N1842 1.351 . S
C1843 C1844 1.433 1_554 S
C1844 C1835 1.430 1_545 S
C1844 N1841 1.350 1_556 S
C1844 C1843 1.433 1_556 S
C1845 C1846 1.369 . S
C1845 C1847 1.419 1_554 S
C1845 H1849 0.930 . S
C1846 C1845 1.369 . S
C1846 C1855 1.429 . S
C1847 C1845 1.419 1_556 S
C1847 C1848 1.363 . S
C1847 H1850 0.929 . S
C1848 C1847 1.363 . S
C1848 C1854 1.428 . S
H1849 C1845 0.930 . S
H1850 C1847 0.929 . S
S1851 N1852 1.613 1_556 S
S1851 N1853 1.610 . S
N1852 S1851 1.613 1_554 S
N1852 C1855 1.350 . S
N1853 S1851 1.610 . S
N1853 C1854 1.351 . S
C1854 C1848 1.428 . S
C1854 N1853 1.351 . S
C1854 C1855 1.434 1_556 S
C1855 C1846 1.429 . S
C1855 N1852 1.350 . S
C1855 C1854 1.434 1_554 S
C1856 C1857 1.369 1_565 S
C1856 C1858 1.419 . S
C1856 H1860 0.930 . S
C1857 C1856 1.369 1_545 S
C1857 C1866 1.429 . S
C1858 C1856 1.419 . S
C1858 C1859 1.363 1_565 S
C1858 H1861 0.929 . S
C1859 C1858 1.363 1_545 S
C1859 C1865 1.428 . S
H1860 C1856 0.930 . S
H1861 C1858 0.929 . S
S1862 N1863 1.613 . S
S1862 N1864 1.610 . S
N1863 S1862 1.613 . S
N1863 C1866 1.350 . S
N1864 S1862 1.610 . S
N1864 C1865 1.351 . S
C1865 C1859 1.428 . S
C1865 N1864 1.351 . S
C1865 C1866 1.434 . S
C1866 C1857 1.429 . S
C1866 N1863 1.350 . S
C1866 C1865 1.434 . S
C1867 C1868 1.369 . S
C1867 C1869 1.419 . S
C1867 H1871 0.930 . S
C1868 C1867 1.369 . S
C1868 C1877 1.429 . S
C1869 C1867 1.419 . S
C1869 C1870 1.363 . S
C1869 H1872 0.929 . S
C1870 C1869 1.363 . S
C1870 C1876 1.428 . S
H1871 C1867 0.930 . S
H1872 C1869 0.929 . S
S1873 N1874 1.613 . S
S1873 N1875 1.610 . S
N1874 S1873 1.613 . S
N1874 C1877 1.350 . S
N1875 S1873 1.610 . S
N1875 C1876 1.351 . S
C1876 C1870 1.428 . S
C1876 N1875 1.351 . S
C1876 C1877 1.434 . S
C1877 C1868 1.429 . S
C1877 N1874 1.350 . S
C1877 C1876 1.434 . S
C1878 C1879 1.346 1_655 S
C1878 C1880 1.441 . S
C1878 H1882 0.931 . S
C1879 C1878 1.346 1_455 S
C1879 C1888 1.429 1_556 S
C1880 C1878 1.441 . S
C1880 C1881 1.363 . S
C1880 H1883 0.929 . S
C1881 C1880 1.363 . S
C1881 C1887 1.428 1_556 S
H1882 C1878 0.931 . S
H1883 C1880 0.929 . S
S1884 N1885 1.613 . S
S1884 N1886 1.610 . S
N1885 S1884 1.613 . S
N1885 C1888 1.350 . S
N1886 S1884 1.610 . S
N1886 C1887 1.351 1_455 S
C1887 C1881 1.428 1_554 S
C1887 N1886 1.351 1_655 S
C1887 C1888 1.434 1_655 S
C1888 C1879 1.429 1_554 S
C1888 N1885 1.350 . S
C1888 C1887 1.434 1_455 S
C1889 C1890 1.369 1_655 S
C1889 C1891 1.419 . S
C1889 H1893 0.930 . S
C1890 C1889 1.369 1_455 S
C1890 C1899 1.429 . S
C1891 C1889 1.419 . S
C1891 C1892 1.363 . S
C1891 H1894 0.929 . S
C1892 C1891 1.363 . S
C1892 C1898 1.444 . S
H1893 C1889 0.930 . S
H1894 C1891 0.929 . S
S1895 N1896 1.613 . S
S1895 N1897 1.610 . S
N1896 S1895 1.613 . S
N1896 C1899 1.350 . S
N1897 S1895 1.610 . S
N1897 C1898 1.348 1_455 S
C1898 C1892 1.444 . S
C1898 N1897 1.348 1_655 S
C1898 C1899 1.420 1_655 S
C1899 C1890 1.429 . S
C1899 N1896 1.350 . S
C1899 C1898 1.420 1_455 S
C1900 C1901 1.369 . S
C1900 C1902 1.419 . S
C1900 H1904 0.930 . S
C1901 C1900 1.369 . S
C1901 C1910 1.429 . S
C1902 C1900 1.419 . S
C1902 C1903 1.363 . S
C1902 H1905 0.929 . S
C1903 C1902 1.363 . S
C1903 C1909 1.428 . S
H1904 C1900 0.930 . S
H1905 C1902 0.929 . S
S1906 N1907 1.613 . S
S1906 N1908 1.610 . S
N1907 S1906 1.613 . S
N1907 C1910 1.350 . S
N1908 S1906 1.610 . S
N1908 C1909 1.351 . S
C1909 C1903 1.428 . S
C1909 N1908 1.351 . S
C1909 C1910 1.434 . S
C1910 C1901 1.429 . S
C1910 N1907 1.350 . S
C1910 C1909 1.434 . S
C1911 C1912 1.369 . S
C1911 C1913 1.419 . S
C1911 H1915 0.930 . S
C1912 C1911 1.369 . S
C1912 C1921 1.429 . S
C1913 C1911 1.419 . S
C1913 C1914 1.363 . S
C1913 H1916 0.929 . S
C1914 C1913 1.363 . S
C1914 C1920 1.428 . S
H1915 C1911 0.930 . S
H1916 C1913 0.929 . S
S1917 N1918 1.613 . S
S1917 N1919 1.610 . S
N1918 S1917 1.613 . S
N1918 C1921 1.350 . S
N1919 S1917 1.610 . S
N1919 C1920 1.351 . S
C1920 C1914 1.428 . S
C1920 N1919 1.351 . S
C1920 C1921 1.434 . S
C1921 C1912 1.429 . S
C1921 N1918 1.350 . S
C1921 C1920 1.434 . S
C1922 C1923 1.369 . S
C1922 C1924 1.419 1_565 S
C1922 H1926 0.930 . S
C1923 C1922 1.369 . S
C1923 C1932 1.429 . S
C1924 C1922 1.419 1_545 S
C1924 C1925 1.363 . S
C1924 H1927 0.929 . S
C1925 C1924 1.363 . S
C1925 C1931 1.428 . S
H1926 C1922 0.930 . S
H1927 C1924 0.929 . S
S1928 N1929 1.613 1_545 S
S1928 N1930 1.610 . S
N1929 S1928 1.613 1_565 S
N1929 C1932 1.350 . S
N1930 S1928 1.610 . S
N1930 C1931 1.351 . S
C1931 C1925 1.428 . S
C1931 N1930 1.351 . S
C1931 C1932 1.434 1_545 S
C1932 C1923 1.429 . S
C1932 N1929 1.350 . S
C1932 C1931 1.434 1_565 S
C1933 C1934 1.369 . S
C1933 C1935 1.419 . S
C1933 H1937 0.930 . S
C1934 C1933 1.369 . S
C1934 C1943 1.429 1_554 S
C1935 C1933 1.419 . S
C1935 C1936 1.363 . S
C1935 H1938 0.929 . S
C1936 C1935 1.363 . S
C1936 C1942 1.428 1_554 S
H1937 C1933 0.930 . S
H1938 C1935 0.929 . S
S1939 N1940 1.613 . S
S1939 N1941 1.610 . S
N1940 S1939 1.613 . S
N1940 C1943 1.350 . S
N1941 S1939 1.610 . S
N1941 C1942 1.351 . S
C1942 C1936 1.428 1_556 S
C1942 N1941 1.351 . S
C1942 C1943 1.434 . S
C1943 C1934 1.429 1_556 S
C1943 N1940 1.350 . S
C1943 C1942 1.434 . S
C1417 C1055 0.917 . S
C1419 C33 0.905 . S
C1428 C92 0.991 . S
C1430 C996 0.954 . S
C1439 C151 1.082 . S
C1441 C1173 1.095 . S
C1450 C210 1.170 . S
C1452 C1114 1.127 . S
C1461 C269 0.905 . S
C1463 C1291 0.915 . S
C1472 C328 1.111 . S
C1474 C1350 1.113 . S
C1483 C1232 0.965 . S
C1485 C387 0.991 . S
C1494 C701 1.114 . S
C1496 C446 1.165 . S
C1505 C505 0.904 . S
C1507 C229 0.915 . S
C1516 C111 1.109 . S
C1518 C564 1.107 . S
C1527 C623 1.279 . S
C1529 C52 1.281 . S
C1538 C682 1.166 . S
C1540 C878 1.120 . S
C1549 C347 1.278 . S
C1551 C741 1.342 . S
C1560 C288 1.283 . S
C1562 C800 1.284 . S
C1571 C859 1.164 . S
C1573 C465 1.124 . S
C1582 C918 1.110 . S
C1584 C406 1.113 . S
C1593 C583 1.290 . S
C1595 C977 1.341 . S
C1604 C642 1.121 . S
C1606 C1036 1.171 . S
C1615 C524 1.279 . S
C1617 C1095 1.281 . S
C1626 C1154 1.084 . S
C1628 C1409 1.096 . S
C1637 C937 1.285 . S
C1639 C1213 1.343 . S
C1648 C1272 1.170 . S
C1650 C819 1.117 . S
C1659 C760 0.966 . S
C1661 C1331 0.988 . S
C1670 C1390 1.083 . S
C1672 C170 1.094 . S
C1681 C5 1.716 . S
C1683 C64 1.700 . S
C1692 C182 1.613 . S
C1694 C123 1.627 . S
C1703 C241 1.715 . S
C1705 C359 1.700 . S
C1714 C300 1.988 . S
C1716 C418 1.956 . S
C1725 C1303 1.697 . S
C1727 C477 1.715 . S
C1736 C536 1.988 . S
C1738 C654 1.955 . S
C1747 C1185 1.908 . S
C1749 C595 1.930 . S
C1758 C772 1.927 . S
C1760 C713 1.906 . S
C1769 C831 1.962 . S
C1771 C890 1.982 . S
C1780 C1067 1.934 . S
C1782 C949 1.902 . S
C1791 C1008 1.609 . S
C1793 C1126 1.626 . S
C1802 C1362 1.626 . S
C1804 C1244 1.613 . S
C1813 C121 1.356 . S
C1815 C3 1.351 . S
C1824 C62 1.592 . S
C1826 C180 1.572 . S
C1835 C1124 1.344 . S
C1837 C239 1.360 . S
C1846 C298 1.534 . S
C1848 C1065 1.535 . S
C1857 C357 1.582 . S
C1859 C1006 1.579 . S
C1868 C947 1.756 . S
C1870 C416 1.764 . S
C1879 C475 1.363 . S
C1881 C1360 1.344 . S
C1890 C534 1.543 . S
C1892 C593 1.529 . S
C1901 C1183 1.760 . S
C1903 C652 1.761 . S
C1912 C711 1.753 . S
C1914 C829 1.766 . S
C1923 C770 1.534 . S
C1925 C888 1.537 . S
C1934 C1301 1.589 . S
C1936 C1242 1.574 . S
