# Generated by pormake.
# Topology qtz-x, (6)-cn, num edge types: 1
# Building blocks:
#     Node 0, Type 0, BuildingBlock: BETDIP_clean_sbu_0, # of connection points: 6
#     Node 1, Type 0, BuildingBlock: BETDIP_clean_sbu_0, # of connection points: 6
#     Node 2, Type 0, BuildingBlock: BETDIP_clean_sbu_0, # of connection points: 6
#     Edge 3, Type (0, 0), BuildingBlock: FUNLAD_clean_linker_0, # of connection points: 2
#     Edge 4, Type (0, 0), BuildingBlock: FUNLAD_clean_linker_0, # of connection points: 2
#     Edge 5, Type (0, 0), BuildingBlock: FUNLAD_clean_linker_0, # of connection points: 2
#     Edge 6, Type (0, 0), BuildingBlock: FUNLAD_clean_linker_0, # of connection points: 2
#     Edge 7, Type (0, 0), BuildingBlock: FUNLAD_clean_linker_0, # of connection points: 2
#     Edge 8, Type (0, 0), BuildingBlock: FUNLAD_clean_linker_0, # of connection points: 2
#     Edge 9, Type (0, 0), BuildingBlock: FUNLAD_clean_linker_0, # of connection points: 2
#     Edge 10, Type (0, 0), BuildingBlock: FUNLAD_clean_linker_0, # of connection points: 2
#     Edge 11, Type (0, 0), BuildingBlock: FUNLAD_clean_linker_0, # of connection points: 2
# Relax obj value: 0.201
# Max RMSD: 0.243
# Mean RMSD: 0.227
data_MOF--net-qtz-x--node1-BETDIP_clean_sbu_0--edge1-FUNLAD_clean_linker_0
_symmetry_space_group_name_H-M    P1
_symmetry_Int_Tables_number       1
_symmetry_cell_setting            triclinic
loop_
_symmetry_equiv_pos_as_xyz
'x, y, z'
_cell_length_a     16.917737
_cell_length_b     17.027524
_cell_length_c     60.084878
_cell_angle_alpha  69.962484
_cell_angle_beta   111.81495
_cell_angle_gamma 120.99966
loop_
_atom_site_label
_atom_site_type_symbol
_atom_site_fract_x
_atom_site_fract_y
_atom_site_fract_z
_atom_type_partial_charge
Tb0 Tb 1.01862 0.60633 0.197 0.0
Tb1 Tb 0.20545 0.73389 0.18492 0.0
C2 C 0.88601 0.47264 0.21575 0.0
C3 C 0.86415 0.4387 0.23994 0.0
C4 C 0.93322 0.43228 0.2616 0.0
C5 C 0.91105 0.40034 0.2843 0.0
C6 C 0.81908 0.3733 0.28582 0.0
C7 C 0.75007 0.3796 0.26408 0.0
C8 C 0.77251 0.41217 0.24139 0.0
C9 C 0.06006 0.7853 0.18671 0.0
C10 C 0.20781 0.68389 0.23952 0.0
C11 C 0.33799 0.86041 0.16531 0.0
C12 C 0.35742 0.87633 0.14169 0.0
C13 C 0.29125 0.88435 0.11944 0.0
C14 C 0.3055 0.88803 0.09756 0.0
C15 C 0.38607 0.88355 0.09749 0.0
C16 C 0.45387 0.87902 0.11963 0.0
C17 C 0.43976 0.8757 0.14148 0.0
C18 C 0.16111 0.55378 0.19454 0.0
C19 C 1.01841 0.66404 0.14207 0.0
O20 O 0.95792 0.46637 0.21433 0.0
O21 O 0.88437 0.55205 0.20357 0.0
O22 O 0.11663 0.74986 0.19874 0.0
O23 O 0.97517 0.71884 0.18134 0.0
O24 O 0.12004 0.61762 0.2334 0.0
O25 O 0.25163 0.74834 0.22262 0.0
O26 O 0.26437 0.86908 0.16453 0.0
O27 O 0.34332 0.78694 0.18105 0.0
O28 O 0.10635 0.59113 0.18268 0.0
O29 O 0.24618 0.61917 0.20015 0.0
O30 O 0.10553 0.72926 0.14883 0.0
O31 O 0.97293 0.59707 0.15847 0.0
H32 H 1.00419 0.45128 0.26101 0.0
H33 H 0.96552 0.39518 0.30065 0.0
H34 H 0.67886 0.36024 0.26461 0.0
H35 H 0.71813 0.4166 0.22494 0.0
H36 H 0.22711 0.88516 0.11896 0.0
H37 H 0.25166 0.89084 0.08083 0.0
H38 H 0.51732 0.87681 0.12009 0.0
H39 H 0.49196 0.86985 0.15837 0.0
Tb40 Tb 0.78443 0.14848 0.55086 0.0
Tb41 Tb 0.71172 0.95621 0.54516 0.0
C42 C 0.81895 0.29346 0.5626 0.0
C43 C 0.83904 0.32439 0.58497 0.0
C44 C 0.79824 0.26263 0.60452 0.0
C45 C 0.81961 0.29439 0.62563 0.0
C46 C 0.88219 0.38835 0.62751 0.0
C47 C 0.92347 0.44937 0.60791 0.0
C48 C 0.90194 0.41764 0.58686 0.0
C49 C 0.9106 0.11418 0.54527 0.0
C50 C 0.77688 -0.01473 0.59799 0.0
C51 C 0.67347 0.81591 0.53048 0.0
C52 C 0.62781 0.792 0.50598 0.0
C53 C 0.64243 0.72954 0.49956 0.0
C54 C 0.601 0.70942 0.47596 0.0
C55 C 0.54492 0.75213 0.45839 0.0
C56 C 0.53022 0.81429 0.46504 0.0
C57 C 0.57104 0.83382 0.48858 0.0
C58 C 0.58466 -0.00902 0.55013 0.0
C59 C 0.72196 0.12114 0.4979 0.0
O60 O 0.73298 0.22976 0.5552 0.0
O61 O 0.88431 0.27781 0.56097 0.0
O62 O 0.8506 0.05963 0.55803 0.0
O63 O 0.90375 0.19178 0.53619 0.0
O64 O 0.77702 0.06779 0.58807 0.0
O65 O 0.76647 0.93187 0.5845 0.0
O66 O 0.75706 0.88813 0.53272 0.0
O67 O 0.61899 0.81781 0.54082 0.0
O68 O 0.64576 0.04517 0.53769 0.0
O69 O 0.59 0.91268 0.55892 0.0
O70 O 0.7146 0.03593 0.50766 0.0
O71 O 0.73771 0.17675 0.51145 0.0
H72 H 0.7497 0.19012 0.60347 0.0
H73 H 0.78597 0.24575 0.64029 0.0
H74 H 0.97327 0.52164 0.60891 0.0
H75 H 0.93478 0.46605 0.57203 0.0
H76 H 0.68636 0.6969 0.51271 0.0
H77 H 0.61428 0.66181 0.47134 0.0
H78 H 0.48639 0.84735 0.45209 0.0
H79 H 0.55845 0.88205 0.49316 0.0
Tb80 Tb 0.76458 0.79891 0.86233 0.0
Tb81 Tb 0.91316 0.73098 0.87694 0.0
C82 C 0.62092 0.81164 0.86058 0.0
C83 C 0.58286 0.80402 0.8801 0.0
C84 C 0.58091 0.73461 0.90125 0.0
C85 C 0.55661 0.73508 0.92099 0.0
C86 C 0.53371 0.80487 0.92002 0.0
C87 C 0.53173 0.87195 0.89844 0.0
C88 C 0.55639 0.87162 0.87868 0.0
C89 C 0.93914 0.92995 0.86415 0.0
C90 C 0.85954 0.74154 0.91922 0.0
C91 C 0.05156 0.70945 0.87871 0.0
C92 C 0.07432 0.69287 0.85974 0.0
C93 C 0.08378 0.75606 0.83742 0.0
C94 C 0.08496 0.731 0.81776 0.0
C95 C 0.07759 0.64261 0.82008 0.0
C96 C 0.0755 0.5823 0.84295 0.0
C97 C 0.07379 0.60723 0.8626 0.0
C98 C 0.73725 0.60052 0.87436 0.0
C99 C 0.82373 0.79527 0.82 0.0
O100 O 0.61773 0.73512 0.85903 0.0
O101 O 0.70269 0.88399 0.85859 0.0
O102 O 0.91344 0.8532 0.87883 0.0
O103 O 0.86527 0.9385 0.84857 0.0
O104 O 0.78698 0.75339 0.90238 0.0
O105 O 0.92795 0.74283 0.91321 0.0
O106 O 0.05545 0.79145 0.87541 0.0
O107 O 0.97557 0.64161 0.88583 0.0
O108 O 0.76487 0.67766 0.86004 0.0
O109 O 0.81016 0.59118 0.89011 0.0
O110 O 0.89368 0.77922 0.83703 0.0
O111 O 0.75481 0.79447 0.82566 0.0
H112 H 0.60084 0.6814 0.90289 0.0
H113 H 0.55737 0.68158 0.9372 0.0
H114 H 0.51499 0.92697 0.8972 0.0
H115 H 0.55788 0.92602 0.86258 0.0
H116 H 0.08591 0.82322 0.83474 0.0
H117 H 0.08849 0.77967 0.80048 0.0
H118 H 0.06952 0.51363 0.8453 0.0
H119 H 0.06676 0.55741 0.87965 0.0
C120 C 1.00782 0.90964 0.17676 0.0
C121 C 0.08079 0.88162 0.18621 0.0
C122 C 1.02604 -0.00131 0.17776 0.0
C123 C 0.11796 0.0618 0.18833 0.0
C124 C 0.19127 0.03431 0.19707 0.0
C125 C 0.17293 0.94525 0.19612 0.0
C126 C 0.14119 0.15708 0.19025 0.0
C127 C 0.07633 0.18272 0.18932 0.0
C128 C 0.10019 0.27789 0.19147 0.0
C129 C 1.02811 0.30721 0.18225 0.0
C130 C 0.04734 0.39615 0.18359 0.0
C131 C 0.13909 0.45766 0.19442 0.0
H132 H 0.2486 0.31845 0.21105 0.0
C133 C 0.21072 0.42778 0.2043 0.0
C134 C 0.19162 0.33893 0.2029 0.0
H135 H 0.28195 0.47343 0.21296 0.0
H136 H 0.93621 0.86232 0.1688 0.0
H137 H 0.96794 0.01753 0.17003 0.0
H138 H 0.26296 0.08146 0.20505 0.0
H139 H 0.23076 0.92582 0.20345 0.0
H140 H 0.2156 0.20734 0.19294 0.0
H141 H 1.00183 0.13278 0.18654 0.0
H142 H 0.95678 0.26162 0.1736 0.0
H143 H 0.99057 0.41712 0.17587 0.0
C144 C 0.48962 0.08205 0.53721 0.0
C145 C 0.50759 0.00562 0.55161 0.0
C146 C 0.41313 0.09113 0.53835 0.0
C147 C 0.35323 0.02385 0.55401 0.0
C148 C 0.3734 0.94908 0.56874 0.0
C149 C 0.44896 0.93979 0.56747 0.0
C150 C 0.27061 0.02903 0.55617 0.0
C151 C 0.22591 0.07853 0.53905 0.0
C152 C 0.14306 0.08331 0.54123 0.0
C153 C 0.12269 0.15806 0.52659 0.0
C154 C 0.04679 0.1668 0.52789 0.0
C155 C 0.9881 0.1004 0.54369 0.0
H156 H 0.09399 0.95514 0.5679 0.0
C157 C 1.00629 0.024 0.55798 0.0
C158 C 0.08304 0.01547 0.5568 0.0
H159 H 0.9618 0.97136 0.57019 0.0
H160 H 0.53399 0.13418 0.52492 0.0
H161 H 0.40225 0.1514 0.52716 0.0
H162 H 0.32965 0.89664 0.58115 0.0
H163 H 0.46125 0.88039 0.57895 0.0
H164 H 0.24493 -0.01157 0.57255 0.0
H165 H 0.25161 0.11924 0.52268 0.0
H166 H 0.1665 0.2109 0.51424 0.0
H167 H 1.03433 0.22618 0.51649 0.0
C168 C 0.05884 0.0856 0.84829 0.0
C169 C 1.03768 0.00342 0.86602 0.0
C170 C 0.15189 0.15655 0.8503 0.0
C171 C 0.22554 0.14674 0.87025 0.0
C172 C 0.20426 0.06343 0.88766 0.0
C173 C 0.11117 -0.00739 0.88565 0.0
C174 C 0.32543 0.22053 0.87337 0.0
C175 C 0.35011 0.3115 0.86336 0.0
C176 C 0.45013 0.38488 0.86676 0.0
C177 C 0.47345 0.46691 0.84897 0.0
C178 C 0.56685 0.5373 0.8514 0.0
C179 C 0.63842 0.52742 0.87188 0.0
H180 H 0.50637 0.31541 0.90204 0.0
C181 C 0.61514 0.4464 0.88992 0.0
C182 C 0.52186 0.37587 0.88748 0.0
H183 H 0.66902 0.43763 0.90601 0.0
H184 H 1.00345 0.09508 0.83282 0.0
H185 H 0.16548 0.21797 0.83599 0.0
H186 H 0.25964 0.05357 0.90307 0.0
H187 H 0.09667 0.9298 0.89958 0.0
H188 H 0.38018 0.19849 0.88476 0.0
H189 H 0.29575 0.3339 0.85187 0.0
H190 H 0.41949 0.47603 0.83295 0.0
H191 H 0.58314 0.59898 0.83715 0.0
C192 C 0.44403 0.83062 0.94005 0.0
C193 C 0.51731 0.8104 0.94196 0.0
C194 C 0.42999 0.83647 0.96087 0.0
C195 C 0.48993 0.82327 0.98405 0.0
C196 C 0.56274 0.80272 0.98583 0.0
C197 C 0.57637 0.79647 0.9651 0.0
C198 C 0.47847 0.82756 1.00696 0.0
C199 C 0.42548 0.86391 1.00785 0.0
C200 C 0.41645 0.86783 1.03116 0.0
C201 C 0.38733 0.93189 1.03099 0.0
C202 C 0.37783 0.93758 0.05248 0.0
C203 C 0.39726 0.87915 0.07464 0.0
H204 H 0.45258 0.75486 0.05423 0.0
C205 C 0.42508 0.81418 0.07478 0.0
C206 C 0.43392 0.808 0.05332 0.0
H207 H 0.43806 0.76648 0.09145 0.0
H208 H 0.39656 0.84047 0.92249 0.0
H209 H 0.37131 0.84988 0.9586 0.0
H210 H 0.60989 0.79185 1.00336 0.0
H211 H 0.63419 0.78194 0.96717 0.0
H212 H 0.51931 0.80261 1.02389 0.0
H213 H 0.3905 0.89594 0.99108 0.0
H214 H 0.37248 -0.02177 1.0142 0.0
H215 H 0.35623 -0.01164 0.0518 0.0
C216 C 0.70467 0.09864 0.45689 0.0
C217 C 0.72061 0.15694 0.47155 0.0
C218 C 0.71433 0.13448 0.43283 0.0
C219 C 0.74005 0.22978 0.42278 0.0
C220 C 0.75384 0.28747 0.43725 0.0
C221 C 0.74374 0.25151 0.46129 0.0
C222 C 0.75994 0.2727 0.39807 0.0
C223 C 0.72519 0.22425 0.38017 0.0
C224 C 0.7496 0.26652 0.35599 0.0
C225 C 0.68655 0.22362 0.33591 0.0
C226 C 0.70849 0.25889 0.31313 0.0
C227 C 0.79483 0.33733 0.30994 0.0
H228 H 0.88792 0.37872 0.36797 0.0
C229 C 0.85835 0.38005 0.33007 0.0
C230 C 0.8361 0.34515 0.35283 0.0
H231 H 0.92535 0.44074 0.32822 0.0
H232 H 0.68768 0.02566 0.46422 0.0
H233 H 0.70534 0.0878 0.42264 0.0
H234 H 0.77423 0.36119 0.43008 0.0
H235 H 0.75718 0.29866 0.47205 0.0
H236 H 0.80362 0.34763 0.39446 0.0
H237 H 0.67439 0.15113 0.38289 0.0
H238 H 0.62001 0.16233 0.33786 0.0
H239 H 0.65859 0.22345 0.29811 0.0
C240 C 0.74118 0.79951 0.7753 0.0
C241 C 0.82517 0.81687 0.794 0.0
C242 C 0.74431 0.82233 0.75077 0.0
C243 C 0.83182 0.86447 0.7445 0.0
C244 C 0.91547 0.88209 0.7632 0.0
C245 C 0.91214 0.85768 0.78765 0.0
C246 C 0.83914 0.89703 0.71866 0.0
C247 C 0.77325 0.85191 0.70046 0.0
C248 C 0.78094 0.88725 0.67461 0.0
C249 C 0.7443 0.8237 0.65926 0.0
C250 C 0.74664 0.85538 0.63457 0.0
C251 C 0.78353 0.95137 0.62459 0.0
H252 H 0.84662 0.03434 0.67586 0.0
C253 C 0.82048 0.01495 0.63999 0.0
C254 C 0.81972 -0.01663 0.66473 0.0
H255 H 0.849 0.08936 0.63287 0.0
H256 H 0.67312 0.76837 0.77963 0.0
H257 H 0.67868 0.80963 0.73674 0.0
H258 H 0.98385 0.91529 0.75888 0.0
H259 H 0.97822 0.87346 0.80155 0.0
H260 H 0.9034 0.95846 0.71475 0.0
H261 H 0.71365 0.7854 0.7047 0.0
H262 H 0.71336 0.74928 0.66636 0.0
H263 H 0.7166 0.8046 0.62313 0.0
C264 C 0.91986 0.68922 0.96394 0.0
C265 C 0.86616 0.73187 0.94524 0.0
C266 C 0.9273 0.68196 0.98852 0.0
C267 C 0.88239 0.71866 0.99487 0.0
C268 C 0.82938 0.76177 0.97618 0.0
C269 C 0.82012 0.76713 0.95164 0.0
C270 C 0.89546 0.71941 1.02071 0.0
C271 C 0.90552 0.65116 0.03952 0.0
C272 C 0.92574 0.65608 0.06547 0.0
C273 C 0.89501 0.57332 0.08274 0.0
C274 C 0.92019 0.57584 0.10761 0.0
C275 C 0.97859 0.66119 0.11571 0.0
H276 H 1.00826 0.80674 0.06093 0.0
C277 C 1.00764 0.74404 0.09839 0.0
C278 C 0.98137 0.74168 0.07356 0.0
H279 H 0.05263 0.81085 0.1041 0.0
H280 H 0.95621 0.66149 0.95958 0.0
H281 H 0.97064 0.6503 1.00248 0.0
H282 H 0.79535 0.79182 0.98058 0.0
H283 H 0.77899 0.80123 0.93769 0.0
H284 H 0.89416 0.77724 1.02419 0.0
H285 H 0.89733 0.58883 0.03584 0.0
H286 H 0.85274 0.5064 0.07703 0.0
H287 H 0.89777 0.51078 0.12058 0.0
C288 C 0.20638 0.63383 0.28405 0.0
C289 C 0.25476 0.69199 0.26552 0.0
C290 C 0.25001 0.64563 0.30835 0.0
C291 C 0.3433 0.71588 0.31463 0.0
C292 C 0.39153 0.77334 0.2961 0.0
C293 C 0.34814 0.7614 0.2719 0.0
C294 C 0.39122 0.7354 0.33985 0.0
C295 C 0.36721 0.67322 0.36019 0.0
C296 C 0.41565 0.69556 0.38514 0.0
C297 C 0.41521 0.62281 0.40533 0.0
C298 C 0.45838 0.6411 0.42907 0.0
C299 C 0.50189 0.73259 0.43316 0.0
H300 H 0.45872 0.84498 0.37435 0.0
C301 C 0.50194 0.80538 0.41297 0.0
C302 C 0.45914 0.78718 0.38927 0.0
H303 H 0.53524 0.87675 0.41548 0.0
H304 H 0.13406 0.58053 0.27977 0.0
H305 H 0.20923 0.60142 0.32192 0.0
H306 H 0.46312 0.82836 0.30031 0.0
H307 H 0.38774 0.80767 0.25816 0.0
H308 H 0.4514 0.80343 0.34165 0.0
H309 H 0.31305 0.60228 0.35878 0.0
H310 H 0.38139 0.55149 0.40274 0.0
H311 H 0.45596 0.58332 0.44425 0.0
C312 C 0.99925 0.62624 0.77642 0.0
C313 C 0.06348 0.61039 0.79825 0.0
C314 C 0.98067 0.59157 0.75615 0.0
C315 C 1.027 0.54109 0.75709 0.0
C316 C 0.09109 0.52512 0.77896 0.0
C317 C 0.1092 0.55935 0.79933 0.0
C318 C 1.00751 0.50103 0.73606 0.0
C319 C 0.96978 0.53233 0.71281 0.0
C320 C 0.94838 0.49281 0.69151 0.0
C321 C 0.93316 0.54583 0.66801 0.0
C322 C 0.91137 0.51177 0.64735 0.0
C323 C 0.90395 0.42341 0.64963 0.0
H324 H 0.94781 0.35899 0.7115 0.0
C325 C 0.91781 0.36947 0.67311 0.0
C326 C 0.93948 0.40355 0.69384 0.0
H327 H 0.91287 0.3012 0.67552 0.0
H328 H 0.96084 0.66305 0.77522 0.0
H329 H 0.92792 0.60256 0.74013 0.0
H330 H 0.12721 0.48583 0.78032 0.0
H331 H 0.15898 0.54593 0.81592 0.0
H332 H 1.02826 0.4462 0.73995 0.0
H333 H 0.95688 0.59249 0.70878 0.0
H334 H 0.93821 0.61421 0.66558 0.0
H335 H 0.89927 0.55445 0.62954 0.0
loop_
_geom_bond_atom_site_label_1
_geom_bond_atom_site_label_2
_geom_bond_distance
_geom_bond_site_symmetry_2
_ccdc_geom_bond_type
Tb0 C2 2.809 . S
Tb0 O20 2.484 . S
Tb0 O21 2.440 . S
Tb0 O22 2.658 1_655 S
Tb0 O23 2.409 . S
Tb0 O24 2.378 1_655 S
Tb0 O28 2.325 . S
Tb0 O31 2.341 . S
Tb1 C11 2.809 . S
Tb1 O22 2.325 . S
Tb1 O25 2.341 . S
Tb1 O26 2.484 . S
Tb1 O27 2.440 . S
Tb1 O28 2.658 1_455 S
Tb1 O29 2.409 . S
Tb1 O30 2.378 1_455 S
C2 Tb0 2.809 . S
C2 C3 1.514 . S
C2 O20 1.248 . S
C2 O21 1.266 . S
C3 C2 1.514 . S
C3 C4 1.359 . S
C3 C8 1.348 . S
C4 C3 1.359 . S
C4 C5 1.380 . S
C4 H32 0.929 . S
C5 C4 1.380 . S
C5 C6 1.347 . S
C5 H33 0.931 . S
C6 C5 1.347 . S
C6 C7 1.369 . S
C7 C6 1.369 . S
C7 C8 1.408 . S
C7 H34 0.930 . S
C8 C3 1.348 . S
C8 C7 1.408 . S
C8 H35 0.930 . S
C9 O22 1.281 1_655 S
C9 O23 1.254 . S
C10 O24 1.236 . S
C10 O25 1.266 . S
C11 Tb1 2.809 . S
C11 C12 1.514 . S
C11 O26 1.248 . S
C11 O27 1.266 . S
C12 C11 1.514 . S
C12 C13 1.359 . S
C12 C17 1.348 . S
C13 C12 1.359 . S
C13 C14 1.380 . S
C13 H36 0.929 . S
C14 C13 1.380 . S
C14 C15 1.347 . S
C14 H37 0.931 1_565 S
C15 C14 1.347 . S
C15 C16 1.369 . S
C16 C15 1.369 . S
C16 C17 1.408 . S
C16 H38 0.930 . S
C17 C12 1.348 . S
C17 C16 1.408 . S
C17 H39 0.930 . S
C18 O28 1.281 1_455 S
C18 O29 1.254 . S
C19 O30 1.236 . S
C19 O31 1.266 . S
O20 Tb0 2.484 . S
O20 C2 1.248 . S
O21 Tb0 2.440 . S
O21 C2 1.266 . S
O22 Tb0 2.658 1_455 S
O22 Tb1 2.325 . S
O22 C9 1.281 1_455 S
O23 Tb0 2.409 . S
O23 C9 1.254 . S
O24 Tb0 2.378 1_455 S
O24 C10 1.236 . S
O25 Tb1 2.341 . S
O25 C10 1.266 . S
O26 Tb1 2.484 . S
O26 C11 1.248 . S
O27 Tb1 2.440 . S
O27 C11 1.266 . S
O28 Tb0 2.325 . S
O28 Tb1 2.658 1_655 S
O28 C18 1.281 1_655 S
O29 Tb1 2.409 . S
O29 C18 1.254 . S
O30 Tb1 2.378 1_655 S
O30 C19 1.236 . S
O31 Tb0 2.341 . S
O31 C19 1.266 . S
H32 C4 0.929 . S
H33 C5 0.931 . S
H34 C7 0.930 . S
H35 C8 0.930 . S
H36 C13 0.929 . S
H37 C14 0.931 1_545 S
H38 C16 0.930 . S
H39 C17 0.930 . S
Tb40 C42 2.809 . S
Tb40 O60 2.484 . S
Tb40 O61 2.440 . S
Tb40 O62 2.658 1_545 S
Tb40 O63 2.409 . S
Tb40 O64 2.378 . S
Tb40 O68 2.325 . S
Tb40 O71 2.341 . S
Tb41 C51 2.809 . S
Tb41 O62 2.325 . S
Tb41 O65 2.341 . S
Tb41 O66 2.484 . S
Tb41 O67 2.440 . S
Tb41 O68 2.658 1_565 S
Tb41 O69 2.409 . S
Tb41 O70 2.378 1_565 S
C42 Tb40 2.809 . S
C42 C43 1.514 . S
C42 O60 1.248 . S
C42 O61 1.266 . S
C43 C42 1.514 . S
C43 C44 1.359 . S
C43 C48 1.348 . S
C44 C43 1.359 . S
C44 C45 1.380 . S
C44 H72 0.929 . S
C45 C44 1.380 . S
C45 C46 1.347 . S
C45 H73 0.931 . S
C46 C45 1.347 . S
C46 C47 1.369 . S
C47 C46 1.369 . S
C47 C48 1.408 . S
C47 H74 0.930 1_655 S
C48 C43 1.348 . S
C48 C47 1.408 . S
C48 H75 0.930 . S
C49 O62 1.281 1_545 S
C49 O63 1.254 . S
C50 O64 1.236 1_565 S
C50 O65 1.266 . S
C51 Tb41 2.809 . S
C51 C52 1.514 . S
C51 O66 1.248 . S
C51 O67 1.266 . S
C52 C51 1.514 . S
C52 C53 1.359 . S
C52 C57 1.348 . S
C53 C52 1.359 . S
C53 C54 1.380 . S
C53 H76 0.929 . S
C54 C53 1.380 . S
C54 C55 1.347 . S
C54 H77 0.931 . S
C55 C54 1.347 . S
C55 C56 1.369 . S
C56 C55 1.369 . S
C56 C57 1.408 . S
C56 H78 0.930 . S
C57 C52 1.348 . S
C57 C56 1.408 . S
C57 H79 0.930 . S
C58 O68 1.281 1_565 S
C58 O69 1.254 . S
C59 O70 1.236 . S
C59 O71 1.266 . S
O60 Tb40 2.484 . S
O60 C42 1.248 . S
O61 Tb40 2.440 . S
O61 C42 1.266 . S
O62 Tb40 2.658 1_565 S
O62 Tb41 2.325 . S
O62 C49 1.281 1_565 S
O63 Tb40 2.409 . S
O63 C49 1.254 . S
O64 Tb40 2.378 . S
O64 C50 1.236 1_545 S
O65 Tb41 2.341 . S
O65 C50 1.266 . S
O66 Tb41 2.484 . S
O66 C51 1.248 . S
O67 Tb41 2.440 . S
O67 C51 1.266 . S
O68 Tb40 2.325 . S
O68 Tb41 2.658 1_545 S
O68 C58 1.281 1_545 S
O69 Tb41 2.409 . S
O69 C58 1.254 . S
O70 Tb41 2.378 1_545 S
O70 C59 1.236 . S
O71 Tb40 2.341 . S
O71 C59 1.266 . S
H72 C44 0.929 . S
H73 C45 0.931 . S
H74 C47 0.930 1_455 S
H75 C48 0.930 . S
H76 C53 0.929 . S
H77 C54 0.931 . S
H78 C56 0.930 . S
H79 C57 0.930 . S
Tb80 C82 2.809 . S
Tb80 O100 2.484 . S
Tb80 O101 2.440 1_565 S
Tb80 O102 2.658 . S
Tb80 O103 2.409 1_565 S
Tb80 O104 2.378 . S
Tb80 O108 2.325 . S
Tb80 O111 2.341 . S
Tb81 C91 2.809 . S
Tb81 O102 2.325 . S
Tb81 O105 2.341 . S
Tb81 O106 2.484 . S
Tb81 O107 2.440 . S
Tb81 O108 2.658 . S
Tb81 O109 2.409 . S
Tb81 O110 2.378 . S
C82 Tb80 2.809 . S
C82 C83 1.514 . S
C82 O100 1.248 . S
C82 O101 1.266 1_565 S
C83 C82 1.514 . S
C83 C84 1.359 . S
C83 C88 1.348 1_565 S
C84 C83 1.359 . S
C84 C85 1.380 . S
C84 H112 0.929 . S
C85 C84 1.380 . S
C85 C86 1.347 . S
C85 H113 0.931 . S
C86 C85 1.347 . S
C86 C87 1.369 1_565 S
C87 C86 1.369 1_545 S
C87 C88 1.408 . S
C87 H114 0.930 . S
C88 C83 1.348 1_545 S
C88 C87 1.408 . S
C88 H115 0.930 . S
C89 O102 1.281 1_545 S
C89 O103 1.254 . S
C90 O104 1.236 . S
C90 O105 1.266 . S
C91 Tb81 2.809 . S
C91 C92 1.514 . S
C91 O106 1.248 . S
C91 O107 1.266 . S
C92 C91 1.514 . S
C92 C93 1.359 1_655 S
C92 C97 1.348 . S
C93 C92 1.359 1_455 S
C93 C94 1.380 . S
C93 H116 0.929 . S
C94 C93 1.380 . S
C94 C95 1.347 . S
C94 H117 0.931 . S
C95 C94 1.347 . S
C95 C96 1.369 1_455 S
C96 C95 1.369 1_655 S
C96 C97 1.408 . S
C96 H118 0.930 . S
C97 C92 1.348 . S
C97 C96 1.408 . S
C97 H119 0.930 . S
C98 O108 1.281 . S
C98 O109 1.254 . S
C99 O110 1.236 . S
C99 O111 1.266 . S
O100 Tb80 2.484 . S
O100 C82 1.248 . S
O101 Tb80 2.440 1_545 S
O101 C82 1.266 1_545 S
O102 Tb80 2.658 . S
O102 Tb81 2.325 . S
O102 C89 1.281 1_565 S
O103 Tb80 2.409 1_545 S
O103 C89 1.254 . S
O104 Tb80 2.378 . S
O104 C90 1.236 . S
O105 Tb81 2.341 . S
O105 C90 1.266 . S
O106 Tb81 2.484 . S
O106 C91 1.248 . S
O107 Tb81 2.440 . S
O107 C91 1.266 . S
O108 Tb80 2.325 . S
O108 Tb81 2.658 . S
O108 C98 1.281 . S
O109 Tb81 2.409 . S
O109 C98 1.254 . S
O110 Tb81 2.378 . S
O110 C99 1.236 . S
O111 Tb80 2.341 . S
O111 C99 1.266 . S
H112 C84 0.929 . S
H113 C85 0.931 . S
H114 C87 0.930 . S
H115 C88 0.930 . S
H116 C93 0.929 . S
H117 C94 0.931 . S
H118 C96 0.930 . S
H119 C97 0.930 . S
C120 C121 1.386 1_655 S
C120 C122 1.383 1_565 S
C120 H136 0.951 . S
C121 C120 1.386 1_455 S
C121 C125 1.383 . S
C122 C120 1.383 1_545 S
C122 C123 1.402 1_655 S
C122 H137 0.951 . S
C123 C122 1.402 1_455 S
C123 C124 1.375 . S
C123 C126 1.481 . S
C124 C123 1.375 . S
C124 C125 1.367 1_545 S
C124 H138 0.951 . S
C125 C121 1.383 . S
C125 C124 1.367 1_565 S
C125 H139 0.950 . S
C126 C123 1.481 . S
C126 C127 1.297 1_455 S
C126 H140 0.950 . S
C127 C126 1.297 1_655 S
C127 C128 1.479 . S
C127 H141 0.950 . S
C128 C127 1.479 . S
C128 C129 1.375 . S
C128 C134 1.404 1_655 S
C129 C128 1.375 . S
C129 C130 1.369 . S
C129 H142 0.950 . S
C130 C129 1.369 . S
C130 C131 1.392 . S
C130 H143 0.951 . S
C131 C130 1.392 . S
C131 C133 1.384 1_655 S
H132 C134 0.949 . S
C133 C131 1.384 1_455 S
C133 C134 1.385 . S
C133 H135 0.950 . S
C134 C128 1.404 1_455 S
C134 H132 0.949 . S
C134 C133 1.385 . S
H135 C133 0.950 . S
H136 C120 0.951 . S
H137 C122 0.951 . S
H138 C124 0.951 . S
H139 C125 0.950 . S
H140 C126 0.950 . S
H141 C127 0.950 . S
H142 C129 0.950 . S
H143 C130 0.951 . S
C144 C145 1.386 . S
C144 C146 1.383 . S
C144 H160 0.951 . S
C145 C144 1.386 . S
C145 C149 1.383 1_545 S
C146 C144 1.383 . S
C146 C147 1.402 1_545 S
C146 H161 0.951 . S
C147 C146 1.402 1_565 S
C147 C148 1.375 . S
C147 C150 1.481 . S
C148 C147 1.375 . S
C148 C149 1.367 . S
C148 H162 0.951 . S
C149 C145 1.383 1_565 S
C149 C148 1.367 . S
C149 H163 0.950 . S
C150 C147 1.481 . S
C150 C151 1.297 . S
C150 H164 0.950 . S
C151 C150 1.297 . S
C151 C152 1.479 . S
C151 H165 0.950 . S
C152 C151 1.479 . S
C152 C153 1.375 1_565 S
C152 C158 1.404 . S
C153 C152 1.375 1_545 S
C153 C154 1.369 1_455 S
C153 H166 0.950 . S
C154 C153 1.369 1_655 S
C154 C155 1.392 1_545 S
C154 H167 0.951 . S
C155 C154 1.392 1_565 S
C155 C157 1.384 . S
H156 C158 0.949 . S
C157 C155 1.384 . S
C157 C158 1.385 1_655 S
C157 H159 0.950 . S
C158 C152 1.404 . S
C158 H156 0.949 . S
C158 C157 1.385 1_455 S
H159 C157 0.950 . S
H160 C144 0.951 . S
H161 C146 0.951 . S
H162 C148 0.951 . S
H163 C149 0.950 . S
H164 C150 0.950 . S
H165 C151 0.950 . S
H166 C153 0.950 . S
H167 C154 0.951 . S
C168 C169 1.386 . S
C168 C170 1.383 . S
C168 H184 0.951 . S
C169 C168 1.386 . S
C169 C173 1.383 . S
C170 C168 1.383 . S
C170 C171 1.402 . S
C170 H185 0.951 . S
C171 C170 1.402 . S
C171 C172 1.375 . S
C171 C174 1.481 . S
C172 C171 1.375 . S
C172 C173 1.367 . S
C172 H186 0.951 . S
C173 C169 1.383 . S
C173 C172 1.367 . S
C173 H187 0.950 . S
C174 C171 1.481 . S
C174 C175 1.297 . S
C174 H188 0.950 . S
C175 C174 1.297 . S
C175 C176 1.479 . S
C175 H189 0.950 . S
C176 C175 1.479 . S
C176 C177 1.375 . S
C176 C182 1.404 . S
C177 C176 1.375 . S
C177 C178 1.369 . S
C177 H190 0.950 . S
C178 C177 1.369 . S
C178 C179 1.392 . S
C178 H191 0.951 . S
C179 C178 1.392 . S
C179 C181 1.384 . S
H180 C182 0.949 . S
C181 C179 1.384 . S
C181 C182 1.385 . S
C181 H183 0.950 . S
C182 C176 1.404 . S
C182 H180 0.949 . S
C182 C181 1.385 . S
H183 C181 0.950 . S
H184 C168 0.951 . S
H185 C170 0.951 . S
H186 C172 0.951 . S
H187 C173 0.950 . S
H188 C174 0.950 . S
H189 C175 0.950 . S
H190 C177 0.950 . S
H191 C178 0.951 . S
C192 C193 1.386 1_545 S
C192 C194 1.383 . S
C192 H208 0.951 . S
C193 C192 1.386 1_565 S
C193 C197 1.383 . S
C194 C192 1.383 . S
C194 C195 1.402 1_545 S
C194 H209 0.951 . S
C195 C194 1.402 1_565 S
C195 C196 1.375 . S
C195 C198 1.481 . S
C196 C195 1.375 . S
C196 C197 1.367 . S
C196 H210 0.951 . S
C197 C193 1.383 . S
C197 C196 1.367 . S
C197 H211 0.950 . S
C198 C195 1.481 . S
C198 C199 1.297 . S
C198 H212 0.950 . S
C199 C198 1.297 . S
C199 C200 1.479 . S
C199 H213 0.950 1_565 S
C200 C199 1.479 . S
C200 C201 1.375 1_565 S
C200 C206 1.404 1_556 S
C201 C200 1.375 1_545 S
C201 C202 1.369 1_556 S
C201 H214 0.950 . S
C202 C201 1.369 1_554 S
C202 C203 1.392 1_545 S
C202 H215 0.951 . S
C203 C202 1.392 1_565 S
C203 C205 1.384 . S
H204 C206 0.949 . S
C205 C203 1.384 . S
C205 C206 1.385 . S
C205 H207 0.950 . S
C206 C200 1.404 1_554 S
C206 H204 0.949 . S
C206 C205 1.385 . S
H207 C205 0.950 . S
H208 C192 0.951 . S
H209 C194 0.951 . S
H210 C196 0.951 . S
H211 C197 0.950 . S
H212 C198 0.950 . S
H213 C199 0.950 1_545 S
H214 C201 0.950 . S
H215 C202 0.951 . S
C216 C217 1.386 . S
C216 C218 1.383 . S
C216 H232 0.951 . S
C217 C216 1.386 . S
C217 C221 1.383 . S
C218 C216 1.383 . S
C218 C219 1.402 . S
C218 H233 0.951 . S
C219 C218 1.402 . S
C219 C220 1.375 . S
C219 C222 1.481 . S
C220 C219 1.375 . S
C220 C221 1.367 . S
C220 H234 0.951 . S
C221 C217 1.383 . S
C221 C220 1.367 . S
C221 H235 0.950 . S
C222 C219 1.481 . S
C222 C223 1.297 . S
C222 H236 0.950 . S
C223 C222 1.297 . S
C223 C224 1.479 . S
C223 H237 0.950 . S
C224 C223 1.479 . S
C224 C225 1.375 . S
C224 C230 1.404 . S
C225 C224 1.375 . S
C225 C226 1.369 . S
C225 H238 0.950 . S
C226 C225 1.369 . S
C226 C227 1.392 . S
C226 H239 0.951 . S
C227 C226 1.392 . S
C227 C229 1.384 . S
H228 C230 0.949 . S
C229 C227 1.384 . S
C229 C230 1.385 . S
C229 H231 0.950 . S
C230 C224 1.404 . S
C230 H228 0.949 . S
C230 C229 1.385 . S
H231 C229 0.950 . S
H232 C216 0.951 . S
H233 C218 0.951 . S
H234 C220 0.951 . S
H235 C221 0.950 . S
H236 C222 0.950 . S
H237 C223 0.950 . S
H238 C225 0.950 . S
H239 C226 0.951 . S
C240 C241 1.386 . S
C240 C242 1.383 . S
C240 H256 0.951 . S
C241 C240 1.386 . S
C241 C245 1.383 . S
C242 C240 1.383 . S
C242 C243 1.402 . S
C242 H257 0.951 . S
C243 C242 1.402 . S
C243 C244 1.375 . S
C243 C246 1.481 . S
C244 C243 1.375 . S
C244 C245 1.367 . S
C244 H258 0.951 1_565 S
C245 C241 1.383 . S
C245 C244 1.367 . S
C245 H259 0.950 . S
C246 C243 1.481 . S
C246 C247 1.297 . S
C246 H260 0.950 . S
C247 C246 1.297 . S
C247 C248 1.479 . S
C247 H261 0.950 . S
C248 C247 1.479 . S
C248 C249 1.375 . S
C248 C254 1.404 . S
C249 C248 1.375 . S
C249 C250 1.369 . S
C249 H262 0.950 . S
C250 C249 1.369 . S
C250 C251 1.392 . S
C250 H263 0.951 . S
C251 C250 1.392 . S
C251 C253 1.384 . S
H252 C254 0.949 1_545 S
C253 C251 1.384 . S
C253 C254 1.385 . S
C253 H255 0.950 1_565 S
C254 C248 1.404 . S
C254 H252 0.949 1_565 S
C254 C253 1.385 . S
H255 C253 0.950 1_545 S
H256 C240 0.951 . S
H257 C242 0.951 . S
H258 C244 0.951 1_545 S
H259 C245 0.950 . S
H260 C246 0.950 . S
H261 C247 0.950 . S
H262 C249 0.950 . S
H263 C250 0.951 . S
C264 C265 1.386 . S
C264 C266 1.383 . S
C264 H280 0.951 . S
C265 C264 1.386 . S
C265 C269 1.383 . S
C266 C264 1.383 . S
C266 C267 1.402 . S
C266 H281 0.951 . S
C267 C266 1.402 . S
C267 C268 1.375 . S
C267 C270 1.481 . S
C268 C267 1.375 . S
C268 C269 1.367 . S
C268 H282 0.951 . S
C269 C265 1.383 . S
C269 C268 1.367 . S
C269 H283 0.950 . S
C270 C267 1.481 . S
C270 C271 1.297 1_556 S
C270 H284 0.950 . S
C271 C270 1.297 1_554 S
C271 C272 1.479 . S
C271 H285 0.950 . S
C272 C271 1.479 . S
C272 C273 1.375 . S
C272 C278 1.404 . S
C273 C272 1.375 . S
C273 C274 1.369 . S
C273 H286 0.950 . S
C274 C273 1.369 . S
C274 C275 1.392 . S
C274 H287 0.951 . S
C275 C274 1.392 . S
C275 C277 1.384 . S
H276 C278 0.949 . S
C277 C275 1.384 . S
C277 C278 1.385 . S
C277 H279 0.950 . S
C278 C272 1.404 . S
C278 H276 0.949 . S
C278 C277 1.385 . S
H279 C277 0.950 . S
H280 C264 0.951 . S
H281 C266 0.951 . S
H282 C268 0.951 . S
H283 C269 0.950 . S
H284 C270 0.950 . S
H285 C271 0.950 . S
H286 C273 0.950 . S
H287 C274 0.951 . S
C288 C289 1.386 . S
C288 C290 1.383 . S
C288 H304 0.951 . S
C289 C288 1.386 . S
C289 C293 1.383 . S
C290 C288 1.383 . S
C290 C291 1.402 . S
C290 H305 0.951 . S
C291 C290 1.402 . S
C291 C292 1.375 . S
C291 C294 1.481 . S
C292 C291 1.375 . S
C292 C293 1.367 . S
C292 H306 0.951 . S
C293 C289 1.383 . S
C293 C292 1.367 . S
C293 H307 0.950 . S
C294 C291 1.481 . S
C294 C295 1.297 . S
C294 H308 0.950 . S
C295 C294 1.297 . S
C295 C296 1.479 . S
C295 H309 0.950 . S
C296 C295 1.479 . S
C296 C297 1.375 . S
C296 C302 1.404 . S
C297 C296 1.375 . S
C297 C298 1.369 . S
C297 H310 0.950 . S
C298 C297 1.369 . S
C298 C299 1.392 . S
C298 H311 0.951 . S
C299 C298 1.392 . S
C299 C301 1.384 . S
H300 C302 0.949 . S
C301 C299 1.384 . S
C301 C302 1.385 . S
C301 H303 0.950 . S
C302 C296 1.404 . S
C302 H300 0.949 . S
C302 C301 1.385 . S
H303 C301 0.950 . S
H304 C288 0.951 . S
H305 C290 0.951 . S
H306 C292 0.951 . S
H307 C293 0.950 . S
H308 C294 0.950 . S
H309 C295 0.950 . S
H310 C297 0.950 . S
H311 C298 0.951 . S
C312 C313 1.386 . S
C312 C314 1.383 . S
C312 H328 0.951 . S
C313 C312 1.386 . S
C313 C317 1.383 . S
C314 C312 1.383 . S
C314 C315 1.402 . S
C314 H329 0.951 . S
C315 C314 1.402 . S
C315 C316 1.375 1_455 S
C315 C318 1.483 1_455 S
C316 C315 1.375 1_655 S
C316 C317 1.367 1_655 S
C316 H330 0.951 . S
C317 C313 1.383 . S
C317 C316 1.367 1_455 S
C317 H331 0.950 1_455 S
C318 C315 1.483 1_655 S
C318 C319 1.294 1_655 S
C318 H332 0.951 . S
C319 C318 1.294 1_455 S
C319 C320 1.479 1_455 S
C319 H333 0.950 . S
C320 C319 1.479 1_655 S
C320 C321 1.375 1_655 S
C320 C326 1.404 . S
C321 C320 1.375 1_455 S
C321 C322 1.369 1_455 S
C321 H334 0.950 . S
C322 C321 1.369 1_655 S
C322 C323 1.392 . S
C322 H335 0.951 . S
C323 C322 1.392 . S
C323 C325 1.384 . S
H324 C326 0.949 . S
C325 C323 1.384 . S
C325 C326 1.385 . S
C325 H327 0.950 . S
C326 C320 1.404 . S
C326 H324 0.949 . S
C326 C325 1.385 . S
H327 C325 0.950 . S
H328 C312 0.951 . S
H329 C314 0.951 . S
H330 C316 0.951 . S
H331 C317 0.950 1_655 S
H332 C318 0.951 . S
H333 C319 0.950 . S
H334 C321 0.950 . S
H335 C322 0.951 . S
C121 C9 1.397 1_455 S
C131 C18 1.462 1_655 S
C145 C58 1.447 1_545 S
C155 C49 1.505 1_565 S
C169 C89 1.201 1_455 S
C179 C98 1.277 . S
C193 C86 0.910 . S
C203 C15 0.942 . S
C217 C59 1.782 . S
C227 C6 1.748 . S
C241 C99 2.330 . S
C251 C50 2.293 . S
C265 C90 2.275 . S
C275 C19 2.214 . S
C289 C10 1.681 . S
C299 C55 1.625 . S
C313 C95 0.950 . S
C323 C46 0.995 . S
