# Generated by pormake.
# Topology vbw, (6)-cn, num edge types: 1
# Building blocks:
#     Node 0, Type 0, BuildingBlock: IZENUY_clean_sbu_0, # of connection points: 6
#     Node 1, Type 0, BuildingBlock: IZENUY_clean_sbu_0, # of connection points: 6
#     Node 2, Type 0, BuildingBlock: IZENUY_clean_sbu_0, # of connection points: 6
#     Node 3, Type 0, BuildingBlock: IZENUY_clean_sbu_0, # of connection points: 6
#     Node 4, Type 0, BuildingBlock: IZENUY_clean_sbu_0, # of connection points: 6
#     Node 5, Type 0, BuildingBlock: IZENUY_clean_sbu_0, # of connection points: 6
#     Node 6, Type 0, BuildingBlock: IZENUY_clean_sbu_0, # of connection points: 6
#     Node 7, Type 0, BuildingBlock: IZENUY_clean_sbu_0, # of connection points: 6
#     Node 8, Type 0, BuildingBlock: IZENUY_clean_sbu_0, # of connection points: 6
#     Node 9, Type 0, BuildingBlock: IZENUY_clean_sbu_0, # of connection points: 6
#     Node 10, Type 0, BuildingBlock: IZENUY_clean_sbu_0, # of connection points: 6
#     Node 11, Type 0, BuildingBlock: IZENUY_clean_sbu_0, # of connection points: 6
#     Node 12, Type 0, BuildingBlock: IZENUY_clean_sbu_0, # of connection points: 6
#     Node 13, Type 0, BuildingBlock: IZENUY_clean_sbu_0, # of connection points: 6
#     Node 14, Type 0, BuildingBlock: IZENUY_clean_sbu_0, # of connection points: 6
#     Node 15, Type 0, BuildingBlock: IZENUY_clean_sbu_0, # of connection points: 6
#     Edge 16, Type (0, 0), None
#     Edge 17, Type (0, 0), None
#     Edge 18, Type (0, 0), None
#     Edge 19, Type (0, 0), None
#     Edge 20, Type (0, 0), None
#     Edge 21, Type (0, 0), None
#     Edge 22, Type (0, 0), None
#     Edge 23, Type (0, 0), None
#     Edge 24, Type (0, 0), None
#     Edge 25, Type (0, 0), None
#     Edge 26, Type (0, 0), None
#     Edge 27, Type (0, 0), None
#     Edge 28, Type (0, 0), None
#     Edge 29, Type (0, 0), None
#     Edge 30, Type (0, 0), None
#     Edge 31, Type (0, 0), None
#     Edge 32, Type (0, 0), None
#     Edge 33, Type (0, 0), None
#     Edge 34, Type (0, 0), None
#     Edge 35, Type (0, 0), None
#     Edge 36, Type (0, 0), None
#     Edge 37, Type (0, 0), None
#     Edge 38, Type (0, 0), None
#     Edge 39, Type (0, 0), None
#     Edge 40, Type (0, 0), None
#     Edge 41, Type (0, 0), None
#     Edge 42, Type (0, 0), None
#     Edge 43, Type (0, 0), None
#     Edge 44, Type (0, 0), None
#     Edge 45, Type (0, 0), None
#     Edge 46, Type (0, 0), None
#     Edge 47, Type (0, 0), None
#     Edge 48, Type (0, 0), None
#     Edge 49, Type (0, 0), None
#     Edge 50, Type (0, 0), None
#     Edge 51, Type (0, 0), None
#     Edge 52, Type (0, 0), None
#     Edge 53, Type (0, 0), None
#     Edge 54, Type (0, 0), None
#     Edge 55, Type (0, 0), None
#     Edge 56, Type (0, 0), None
#     Edge 57, Type (0, 0), None
#     Edge 58, Type (0, 0), None
#     Edge 59, Type (0, 0), None
#     Edge 60, Type (0, 0), None
#     Edge 61, Type (0, 0), None
#     Edge 62, Type (0, 0), None
#     Edge 63, Type (0, 0), None
# Relax obj value: 0.217
# Max RMSD: 0.233
# Mean RMSD: 0.232
data_MOF--net-vbw--node1-IZENUY_clean_sbu_0--edge1-none
_symmetry_space_group_name_H-M    P1
_symmetry_Int_Tables_number       1
_symmetry_cell_setting            triclinic
loop_
_symmetry_equiv_pos_as_xyz
'x, y, z'
_cell_length_a     25.346057
_cell_length_b     21.044356
_cell_length_c     12.780567
_cell_angle_alpha  90.000013
_cell_angle_beta   89.997531
_cell_angle_gamma 89.999971
loop_
_atom_site_label
_atom_site_type_symbol
_atom_site_fract_x
_atom_site_fract_y
_atom_site_fract_z
_atom_type_partial_charge
Fe0 Fe 0.15718 0.28942 0.13002 0.0
Fe1 Fe 0.15215 0.16141 0.2442 0.0
O2 O 0.17703 0.209 0.14368 0.0
Fe3 Fe 0.22498 0.17757 0.05992 0.0
O4 O 0.26965 0.23312 0.11125 0.0
O5 O 0.22135 0.31562 0.07735 0.0
O6 O 0.18206 0.30934 0.25549 0.0
C7 C 0.16305 0.28635 0.3367 0.0
C8 C 0.16372 0.26394 0.92952 0.0
O9 O 0.14259 0.23043 0.33688 0.0
C10 C 0.16035 0.07777 0.06263 0.0
O11 O 0.0891 0.27471 0.17807 0.0
O12 O 0.08642 0.17005 0.19205 0.0
O13 O 0.20403 0.22869 0.94644 0.0
O14 O 0.13199 0.27615 1.00159 0.0
C15 C 0.25816 0.13152 0.25886 0.0
O16 O 0.15797 0.0859 0.1629 0.0
O17 O 0.18057 0.11988 1.00704 0.0
C18 C 0.06331 0.22278 0.1805 0.0
O19 O 0.2174 0.1517 0.30473 0.0
O20 O 0.25595 0.12323 0.15956 0.0
C21 C 0.26573 0.28771 0.07798 0.0
Fe22 Fe 0.41653 0.92986 0.74418 0.0
Fe23 Fe 0.34371 0.91369 0.55991 0.0
O24 O 0.39166 0.88227 0.64367 0.0
Fe25 Fe 0.41151 0.80185 0.63 0.0
O26 O 0.38662 0.78193 0.75547 0.0
O27 O 0.42609 0.86084 0.83686 0.0
O28 O 0.35129 0.93957 0.80472 0.0
C29 C 0.31052 0.95975 0.75885 0.0
C30 C 0.50538 0.86849 0.68048 0.0
O31 O 0.31274 0.96804 0.65956 0.0
C32 C 0.40497 0.82733 0.4295 0.0
O33 O 0.41071 1.00537 0.66289 0.0
O34 O 0.38812 0.97139 0.50702 0.0
O35 O 0.47958 0.81655 0.67805 0.0
O36 O 0.48226 0.92122 0.69203 0.0
C37 C 0.30295 0.80355 0.57798 0.0
O38 O 0.36466 0.86258 0.44643 0.0
O39 O 0.4367 0.81512 0.50157 0.0
C40 C 0.40834 1.0135 0.56262 0.0
O41 O 0.29904 0.85814 0.61125 0.0
O42 O 0.34733 0.77565 0.57734 0.0
C43 C 0.40563 0.80492 0.83668 0.0
Fe44 Fe 0.15718 0.80185 0.94671 0.0
Fe45 Fe 0.15215 0.92986 0.83253 0.0
O46 O 0.17703 0.88227 0.93305 0.0
Fe47 Fe 0.22498 0.91369 1.01681 0.0
O48 O 0.26965 0.85814 0.96545 0.0
O49 O 0.22135 0.77565 0.99937 0.0
O50 O 0.18206 0.78193 0.82124 0.0
C51 C 0.16305 0.80492 0.74003 0.0
C52 C 0.16372 0.82732 0.14721 0.0
O53 O 0.1426 0.86084 0.73985 0.0
C54 C 0.16035 1.01347 1.0141 0.0
O55 O 0.0891 0.81656 0.89866 0.0
O56 O 0.08642 0.92122 0.88467 0.0
O57 O 0.20403 0.86257 0.13028 0.0
O58 O 0.13199 0.81512 0.07515 0.0
C59 C 0.25816 0.95974 0.81787 0.0
O60 O 0.15797 1.00537 0.91383 0.0
O61 O 0.18058 0.97139 0.0697 0.0
C62 C 0.06331 0.86849 0.89623 0.0
O63 O 0.2174 0.93958 0.77199 0.0
O64 O 0.25595 0.96804 0.91716 0.0
C65 C 0.26573 0.80355 0.99873 0.0
Fe66 Fe 0.41653 0.1614 0.33251 0.0
Fe67 Fe 0.3437 0.17758 0.5168 0.0
O68 O 0.39165 0.20899 0.43303 0.0
Fe69 Fe 0.41151 0.28942 0.44669 0.0
O70 O 0.38662 0.30934 0.32122 0.0
O71 O 0.42609 0.23043 0.23983 0.0
O72 O 0.35129 0.15169 0.27198 0.0
C73 C 0.31052 0.13153 0.31786 0.0
C74 C 0.50537 0.22278 0.39621 0.0
O75 O 0.31273 0.12323 0.41716 0.0
C76 C 0.40496 0.26394 0.64719 0.0
O77 O 0.41072 0.0859 0.41381 0.0
O78 O 0.3881 0.11988 0.56969 0.0
O79 O 0.47958 0.27471 0.39864 0.0
O80 O 0.48226 0.17005 0.38465 0.0
C81 C 0.30295 0.28772 0.49872 0.0
O82 O 0.36465 0.2287 0.63027 0.0
O83 O 0.43669 0.27615 0.57512 0.0
C84 C 0.40834 0.07779 0.51408 0.0
O85 O 0.29904 0.23313 0.46545 0.0
O86 O 0.34733 0.31562 0.49936 0.0
C87 C 0.40563 0.28635 0.24001 0.0
Fe88 Fe 0.91654 0.92987 0.83251 0.0
Fe89 Fe 0.9115 0.80186 0.9467 0.0
O90 O 0.89166 0.88229 0.93303 0.0
Fe91 Fe 0.84371 0.91372 1.01678 0.0
O92 O 0.81275 0.96807 0.91714 0.0
O93 O 0.85129 0.93958 0.77197 0.0
O94 O 0.9261 0.86085 0.73983 0.0
C95 C 0.90564 0.80493 0.74002 0.0
C96 C 0.90838 1.0135 1.01406 0.0
O97 O 0.88661 0.78194 0.82122 0.0
C98 C 0.90496 0.82734 0.1472 0.0
O99 O 0.98227 0.92122 0.88465 0.0
O100 O 0.97958 0.81656 0.89864 0.0
O101 O 0.88812 0.97142 0.06966 0.0
O102 O 0.91072 1.00538 0.91379 0.0
C103 C 0.80295 0.80359 0.99874 0.0
O104 O 0.93669 0.81512 0.07513 0.0
O105 O 0.86466 0.8626 0.13026 0.0
C106 C 1.00537 0.86849 0.89623 0.0
O107 O 0.84732 0.77567 0.99937 0.0
O108 O 0.79905 0.85817 0.96543 0.0
C109 C 0.81053 0.95976 0.81784 0.0
Fe110 Fe 0.72497 0.17754 0.51679 0.0
Fe111 Fe 0.65215 0.1614 0.33252 0.0
O112 O 0.67703 0.20898 0.43304 0.0
Fe113 Fe 0.65719 0.28941 0.44671 0.0
O114 O 0.72137 0.31559 0.49938 0.0
O115 O 0.76964 0.23309 0.46543 0.0
O116 O 0.75594 0.1232 0.41714 0.0
C117 C 0.75816 0.13151 0.31785 0.0
C118 C 0.66372 0.26392 0.64721 0.0
O119 O 0.71739 0.15168 0.27198 0.0
C120 C 0.56331 0.22277 0.39625 0.0
O121 O 0.68056 0.11985 0.56967 0.0
O122 O 0.65796 0.08589 0.41381 0.0
O123 O 0.632 0.27615 0.57515 0.0
O124 O 0.70403 0.22866 0.63027 0.0
C125 C 0.66305 0.28634 0.24003 0.0
O126 O 0.58642 0.17005 0.38467 0.0
O127 O 0.58911 0.27471 0.39867 0.0
C128 C 0.66031 0.07776 0.51408 0.0
O129 O 0.64259 0.23042 0.23985 0.0
O130 O 0.68207 0.30932 0.32124 0.0
C131 C 0.76574 0.28767 0.49875 0.0
Fe132 Fe 0.91654 0.16139 0.24419 0.0
Fe133 Fe 0.9115 0.28941 0.13 0.0
O134 O 0.89166 0.20898 0.14367 0.0
Fe135 Fe 0.8437 0.17755 0.05992 0.0
O136 O 0.81274 0.1232 0.15957 0.0
O137 O 0.85129 0.15167 0.30474 0.0
O138 O 0.92609 0.23042 0.33687 0.0
C139 C 0.90563 0.28634 0.33668 0.0
C140 C 0.90838 0.07779 0.06263 0.0
O141 O 0.88661 0.30932 0.25548 0.0
C142 C 0.90496 0.26393 0.9295 0.0
O143 O 0.98227 0.17005 0.19205 0.0
O144 O 0.97958 0.27471 0.17805 0.0
O145 O 0.88811 0.11985 1.00702 0.0
O146 O 0.91073 0.08589 0.16291 0.0
C147 C 0.80295 0.28768 0.07797 0.0
O148 O 0.93669 0.27615 1.00157 0.0
O149 O 0.86465 0.22867 0.94644 0.0
C150 C 1.00537 0.22277 0.18047 0.0
O151 O 0.84732 0.3156 0.07733 0.0
O152 O 0.79905 0.2331 0.11129 0.0
C153 C 0.81053 0.13151 0.25886 0.0
Fe154 Fe 0.65719 0.80186 0.63002 0.0
Fe155 Fe 0.72498 0.91372 0.55993 0.0
O156 O 0.67703 0.88229 0.64368 0.0
Fe157 Fe 0.65215 0.92987 0.74421 0.0
O158 O 0.64259 0.86085 0.83688 0.0
O159 O 0.68207 0.78194 0.75549 0.0
O160 O 0.72137 0.77567 0.57734 0.0
C161 C 0.76574 0.80359 0.57798 0.0
C162 C 0.56331 0.86849 0.68048 0.0
O163 O 0.76964 0.85816 0.6113 0.0
C164 C 0.66031 1.01348 0.56265 0.0
O165 O 0.632 0.81512 0.50159 0.0
O166 O 0.70403 0.8626 0.44645 0.0
O167 O 0.58642 0.92122 0.69207 0.0
O168 O 0.58911 0.81656 0.67807 0.0
C169 C 0.75816 0.95975 0.75886 0.0
O170 O 0.68058 0.97142 0.50704 0.0
O171 O 0.65796 1.00538 0.66292 0.0
C172 C 0.66372 0.82734 0.42952 0.0
O173 O 0.75594 0.96806 0.65957 0.0
O174 O 0.71739 0.93959 0.80474 0.0
C175 C 0.66305 0.80493 0.8367 0.0
Fe176 Fe 0.65717 0.78941 0.13 0.0
Fe177 Fe 0.65215 0.6614 0.24419 0.0
O178 O 0.67703 0.70899 0.14368 0.0
Fe179 Fe 0.72499 0.67757 0.05992 0.0
O180 O 0.76966 0.7331 0.11127 0.0
O181 O 0.72135 0.81561 0.07737 0.0
O182 O 0.68204 0.80934 0.25548 0.0
C183 C 0.66303 0.78635 0.33669 0.0
C184 C 0.66373 0.76392 0.92951 0.0
O185 O 0.64258 0.73042 0.33687 0.0
C186 C 0.66035 0.57777 0.06263 0.0
O187 O 0.5891 0.7747 0.17803 0.0
O188 O 0.58642 0.67004 0.19204 0.0
O189 O 0.70406 0.7287 0.94645 0.0
O190 O 0.632 0.77614 1.00156 0.0
C191 C 0.75816 0.63151 0.25886 0.0
O192 O 0.65798 0.58589 0.1629 0.0
O193 O 0.68057 0.61988 1.00703 0.0
C194 C 0.56331 0.72276 0.18047 0.0
O195 O 0.7174 0.6517 0.30473 0.0
O196 O 0.75594 0.62321 0.15957 0.0
C197 C 0.76573 0.78772 0.07814 0.0
Fe198 Fe 0.91653 0.42987 0.74417 0.0
Fe199 Fe 0.8437 0.4137 0.55991 0.0
O200 O 0.89165 0.38227 0.64366 0.0
Fe201 Fe 0.91151 0.30185 0.62999 0.0
O202 O 0.88665 0.28192 0.75547 0.0
O203 O 0.9261 0.36085 0.83686 0.0
O204 O 0.85129 0.43957 0.80472 0.0
C205 C 0.81053 0.45976 0.75886 0.0
C206 C 1.00538 0.36851 0.68045 0.0
O207 O 0.81274 0.46806 0.65956 0.0
C208 C 0.90495 0.32734 0.4295 0.0
O209 O 0.91071 0.50537 0.66288 0.0
O210 O 0.88812 0.47139 0.50702 0.0
O211 O 0.97959 0.31657 0.67801 0.0
O212 O 0.98226 0.42123 0.69202 0.0
C213 C 0.80296 0.30355 0.57813 0.0
O214 O 0.86463 0.36257 0.44644 0.0
O215 O 0.93669 0.31513 0.50154 0.0
C216 C 0.90833 0.5135 0.56262 0.0
O217 O 0.79902 0.35817 0.61127 0.0
O218 O 0.84734 0.27566 0.57736 0.0
C219 C 0.90566 0.30492 0.83667 0.0
Fe220 Fe 0.65717 0.30186 0.94673 0.0
Fe221 Fe 0.65215 0.42987 0.83253 0.0
O222 O 0.67703 0.38228 0.93305 0.0
Fe223 Fe 0.72499 0.4137 1.0168 0.0
O224 O 0.76967 0.35816 0.96543 0.0
O225 O 0.72135 0.27565 0.99935 0.0
O226 O 0.68204 0.28192 0.82124 0.0
C227 C 0.66303 0.30492 0.74004 0.0
C228 C 0.66373 0.32734 0.14721 0.0
O229 O 0.64258 0.36085 0.73985 0.0
C230 C 0.66035 0.51347 1.0141 0.0
O231 O 0.5891 0.31657 0.8987 0.0
O232 O 0.58642 0.42123 0.88469 0.0
O233 O 0.70406 0.36256 0.13027 0.0
O234 O 0.632 0.31513 0.07517 0.0
C235 C 0.75816 0.45975 0.81786 0.0
O236 O 0.65798 0.50538 0.91383 0.0
O237 O 0.68058 0.47138 0.06971 0.0
C238 C 0.56331 0.36851 0.89626 0.0
O239 O 0.7174 0.43958 0.77199 0.0
O240 O 0.75595 0.46805 0.91716 0.0
C241 C 0.76573 0.30355 0.99857 0.0
Fe242 Fe 0.91151 0.78941 0.44671 0.0
Fe243 Fe 0.91653 0.6614 0.33252 0.0
O244 O 0.89165 0.70899 0.43304 0.0
Fe245 Fe 0.84369 0.67757 0.51679 0.0
O246 O 0.79902 0.73311 0.46543 0.0
O247 O 0.84733 0.81562 0.49934 0.0
O248 O 0.88665 0.80934 0.32123 0.0
C249 C 0.90566 0.78635 0.24002 0.0
C250 C 0.90495 0.76392 0.6472 0.0
O251 O 0.9261 0.73042 0.23984 0.0
C252 C 0.90833 0.57779 0.51408 0.0
O253 O 0.97959 0.7747 0.39868 0.0
O254 O 0.98226 0.67004 0.38467 0.0
O255 O 0.86462 0.72871 0.63026 0.0
O256 O 0.93669 0.77614 0.57515 0.0
C257 C 0.81052 0.63152 0.31786 0.0
O258 O 0.91071 0.58589 0.41381 0.0
O259 O 0.8881 0.61988 0.56969 0.0
C260 C 1.00537 0.72276 0.39624 0.0
O261 O 0.85129 0.65169 0.27198 0.0
O262 O 0.81274 0.62321 0.41715 0.0
C263 C 0.80295 0.78772 0.49857 0.0
Fe264 Fe 0.41654 0.42987 0.83251 0.0
Fe265 Fe 0.4115 0.30186 0.94671 0.0
O266 O 0.39165 0.38229 0.93303 0.0
Fe267 Fe 0.3437 0.41373 1.01677 0.0
O268 O 0.31275 0.46808 0.91713 0.0
O269 O 0.35129 0.43958 0.77197 0.0
O270 O 0.42611 0.36086 0.73984 0.0
C271 C 0.40566 0.30493 0.74003 0.0
C272 C 0.40837 0.5135 1.01407 0.0
O273 O 0.38664 0.28194 0.82123 0.0
C274 C 0.40495 0.32736 0.1472 0.0
O275 O 0.48227 0.42123 0.88466 0.0
O276 O 0.47958 0.31657 0.89868 0.0
O277 O 0.38812 0.47141 0.06966 0.0
O278 O 0.41071 0.50538 0.9138 0.0
C279 C 0.30295 0.30359 0.99859 0.0
O280 O 0.43668 0.31513 0.07515 0.0
O281 O 0.36463 0.36259 0.13025 0.0
C282 C 0.50537 0.36851 0.89626 0.0
O283 O 0.34732 0.27567 0.99935 0.0
O284 O 0.29903 0.3582 0.96541 0.0
C285 C 0.31053 0.45977 0.81784 0.0
Fe286 Fe 0.22498 0.67754 0.51678 0.0
Fe287 Fe 0.15215 0.66139 0.33253 0.0
O288 O 0.17703 0.70897 0.43305 0.0
Fe289 Fe 0.15718 0.7894 0.44673 0.0
O290 O 0.22136 0.81559 0.49936 0.0
O291 O 0.26966 0.73307 0.46541 0.0
O292 O 0.25593 0.62318 0.41713 0.0
C293 C 0.25816 0.6315 0.31784 0.0
C294 C 0.16374 0.7639 0.64722 0.0
O295 O 0.21739 0.65168 0.27198 0.0
C296 C 0.06331 0.72276 0.39628 0.0
O297 O 0.18056 0.61985 0.56967 0.0
O298 O 0.15797 0.58589 0.41381 0.0
O299 O 0.132 0.77614 0.57517 0.0
O300 O 0.20406 0.72867 0.63026 0.0
C301 C 0.16303 0.78634 0.24004 0.0
O302 O 0.08642 0.67003 0.38469 0.0
O303 O 0.0891 0.77469 0.39871 0.0
C304 C 0.16031 0.57776 0.51408 0.0
O305 O 0.14258 0.73041 0.23986 0.0
O306 O 0.18205 0.80933 0.32124 0.0
C307 C 0.26573 0.78768 0.49859 0.0
Fe308 Fe 0.4115 0.7894 0.12999 0.0
Fe309 Fe 0.3437 0.67754 0.05993 0.0
O310 O 0.39165 0.70897 0.14367 0.0
Fe311 Fe 0.41654 0.66139 0.24419 0.0
O312 O 0.4261 0.73041 0.33686 0.0
O313 O 0.38664 0.80932 0.25547 0.0
O314 O 0.34732 0.81559 0.07735 0.0
C315 C 0.30295 0.78768 0.07813 0.0
C316 C 0.50537 0.72276 0.18044 0.0
O317 O 0.29903 0.73308 0.11131 0.0
C318 C 0.40838 0.57779 0.06263 0.0
O319 O 0.43668 0.77614 1.00154 0.0
O320 O 0.36462 0.72868 0.94645 0.0
O321 O 0.48227 0.67003 0.19203 0.0
O322 O 0.47958 0.77469 0.17801 0.0
C323 C 0.31053 0.63151 0.25886 0.0
O324 O 0.38811 0.61985 1.00702 0.0
O325 O 0.41072 0.58588 0.1629 0.0
C326 C 0.40495 0.76391 0.9295 0.0
O327 O 0.31275 0.62319 0.15957 0.0
O328 O 0.35129 0.65167 0.30474 0.0
C329 C 0.40566 0.78634 0.33667 0.0
Fe330 Fe 0.15718 0.30186 0.63 0.0
Fe331 Fe 0.22499 0.41372 0.55994 0.0
O332 O 0.17703 0.38229 0.64368 0.0
Fe333 Fe 0.15215 0.42988 0.74421 0.0
O334 O 0.14258 0.36086 0.83688 0.0
O335 O 0.18205 0.28194 0.75548 0.0
O336 O 0.22136 0.27567 0.57736 0.0
C337 C 0.26574 0.30358 0.57813 0.0
C338 C 0.06331 0.36851 0.68045 0.0
O339 O 0.26966 0.35819 0.61132 0.0
C340 C 0.16031 0.51348 0.56265 0.0
O341 O 0.13201 0.31513 0.50156 0.0
O342 O 0.20406 0.36259 0.44646 0.0
O343 O 0.08642 0.42123 0.69205 0.0
O344 O 0.0891 0.31657 0.67803 0.0
C345 C 0.25816 0.45976 0.75886 0.0
O346 O 0.18058 0.47141 0.50703 0.0
O347 O 0.15797 0.50538 0.66292 0.0
C348 C 0.16374 0.32736 0.42951 0.0
O349 O 0.25594 0.46808 0.65958 0.0
O350 O 0.21739 0.43959 0.80475 0.0
C351 C 0.16303 0.30493 0.83669 0.0
loop_
_geom_bond_atom_site_label_1
_geom_bond_atom_site_label_2
_geom_bond_distance
_geom_bond_site_symmetry_2
_ccdc_geom_bond_type
Fe0 O2 1.918 . S
Fe0 O5 1.997 . S
Fe0 O6 2.002 . S
Fe0 O11 1.976 . S
Fe0 O14 1.996 1_554 S
Fe1 O2 1.918 . S
Fe1 O9 1.997 . S
Fe1 O12 1.996 . S
Fe1 O16 1.976 . S
Fe1 O19 2.002 . S
O2 Fe0 1.918 . S
O2 Fe1 1.918 . S
O2 Fe3 1.918 1_554 S
Fe3 O2 1.918 1_556 S
Fe3 O4 2.002 . S
Fe3 O13 1.976 . S
Fe3 O17 1.996 . S
Fe3 O20 1.997 1_556 S
O4 Fe3 2.002 . S
O4 C21 1.295 1_556 S
O5 Fe0 1.997 . S
O5 C21 1.235 . S
O6 Fe0 2.002 . S
O6 C7 1.295 . S
C7 O6 1.295 . S
C7 O9 1.235 . S
C8 O13 1.287 . S
C8 O14 1.255 . S
O9 Fe1 1.997 . S
O9 C7 1.235 . S
C10 O16 1.287 . S
C10 O17 1.255 1_554 S
O11 Fe0 1.976 . S
O11 C18 1.287 . S
O12 Fe1 1.996 . S
O12 C18 1.255 . S
O13 Fe3 1.976 . S
O13 C8 1.287 . S
O14 Fe0 1.996 1_556 S
O14 C8 1.255 . S
C15 O19 1.295 . S
C15 O20 1.235 . S
O16 Fe1 1.976 . S
O16 C10 1.287 . S
O17 Fe3 1.996 . S
O17 C10 1.255 1_556 S
C18 O11 1.287 . S
C18 O12 1.255 . S
O19 Fe1 2.002 . S
O19 C15 1.295 . S
O20 Fe3 1.997 1_554 S
O20 C15 1.235 . S
C21 O4 1.295 1_554 S
C21 O5 1.235 . S
Fe22 O24 1.918 . S
Fe22 O27 1.997 . S
Fe22 O28 2.002 . S
Fe22 O33 1.976 . S
Fe22 O36 1.996 . S
Fe23 O24 1.918 . S
Fe23 O31 1.997 . S
Fe23 O34 1.996 . S
Fe23 O38 1.976 . S
Fe23 O41 2.002 . S
O24 Fe22 1.918 . S
O24 Fe23 1.918 . S
O24 Fe25 1.918 . S
Fe25 O24 1.918 . S
Fe25 O26 2.002 . S
Fe25 O35 1.976 . S
Fe25 O39 1.996 . S
Fe25 O42 1.997 . S
O26 Fe25 2.002 . S
O26 C43 1.295 . S
O27 Fe22 1.997 . S
O27 C43 1.235 . S
O28 Fe22 2.002 . S
O28 C29 1.295 . S
C29 O28 1.295 . S
C29 O31 1.235 . S
C30 O35 1.287 . S
C30 O36 1.255 . S
O31 Fe23 1.997 . S
O31 C29 1.235 . S
C32 O38 1.287 . S
C32 O39 1.255 . S
O33 Fe22 1.976 . S
O33 C40 1.287 . S
O34 Fe23 1.996 . S
O34 C40 1.255 . S
O35 Fe25 1.976 . S
O35 C30 1.287 . S
O36 Fe22 1.996 . S
O36 C30 1.255 . S
C37 O41 1.295 . S
C37 O42 1.235 . S
O38 Fe23 1.976 . S
O38 C32 1.287 . S
O39 Fe25 1.996 . S
O39 C32 1.255 . S
C40 O33 1.287 . S
C40 O34 1.255 . S
O41 Fe23 2.002 . S
O41 C37 1.295 . S
O42 Fe25 1.997 . S
O42 C37 1.235 . S
C43 O26 1.295 . S
C43 O27 1.235 . S
Fe44 O46 1.918 . S
Fe44 O49 1.997 . S
Fe44 O50 2.002 . S
Fe44 O55 1.976 . S
Fe44 O58 1.996 1_556 S
Fe45 O46 1.918 . S
Fe45 O53 1.997 . S
Fe45 O56 1.996 . S
Fe45 O60 1.976 . S
Fe45 O63 2.002 . S
O46 Fe44 1.918 . S
O46 Fe45 1.918 . S
O46 Fe47 1.918 1_556 S
Fe47 O46 1.918 1_554 S
Fe47 O48 2.002 . S
Fe47 O57 1.976 . S
Fe47 O61 1.996 . S
Fe47 O64 1.997 1_554 S
O48 Fe47 2.002 . S
O48 C65 1.295 1_554 S
O49 Fe44 1.997 . S
O49 C65 1.235 . S
O50 Fe44 2.002 . S
O50 C51 1.295 . S
C51 O50 1.295 . S
C51 O53 1.235 . S
C52 O57 1.287 . S
C52 O58 1.255 . S
O53 Fe45 1.997 . S
O53 C51 1.235 . S
C54 O60 1.287 . S
C54 O61 1.255 1_556 S
O55 Fe44 1.976 . S
O55 C62 1.287 . S
O56 Fe45 1.996 . S
O56 C62 1.255 . S
O57 Fe47 1.976 . S
O57 C52 1.287 . S
O58 Fe44 1.996 1_554 S
O58 C52 1.255 . S
C59 O63 1.295 . S
C59 O64 1.235 . S
O60 Fe45 1.976 . S
O60 C54 1.287 . S
O61 Fe47 1.996 . S
O61 C54 1.255 1_554 S
C62 O55 1.287 . S
C62 O56 1.255 . S
O63 Fe45 2.002 . S
O63 C59 1.295 . S
O64 Fe47 1.997 1_556 S
O64 C59 1.235 . S
C65 O48 1.295 1_556 S
C65 O49 1.235 . S
Fe66 O68 1.918 . S
Fe66 O71 1.997 . S
Fe66 O72 2.002 . S
Fe66 O77 1.976 . S
Fe66 O80 1.996 . S
Fe67 O68 1.918 . S
Fe67 O75 1.997 . S
Fe67 O78 1.996 . S
Fe67 O82 1.976 . S
Fe67 O85 2.002 . S
O68 Fe66 1.918 . S
O68 Fe67 1.918 . S
O68 Fe69 1.918 . S
Fe69 O68 1.918 . S
Fe69 O70 2.002 . S
Fe69 O79 1.976 . S
Fe69 O83 1.996 . S
Fe69 O86 1.997 . S
O70 Fe69 2.002 . S
O70 C87 1.295 . S
O71 Fe66 1.997 . S
O71 C87 1.235 . S
O72 Fe66 2.002 . S
O72 C73 1.295 . S
C73 O72 1.295 . S
C73 O75 1.235 . S
C74 O79 1.287 . S
C74 O80 1.255 . S
O75 Fe67 1.997 . S
O75 C73 1.235 . S
C76 O82 1.287 . S
C76 O83 1.255 . S
O77 Fe66 1.976 . S
O77 C84 1.287 . S
O78 Fe67 1.996 . S
O78 C84 1.255 . S
O79 Fe69 1.976 . S
O79 C74 1.287 . S
O80 Fe66 1.996 . S
O80 C74 1.255 . S
C81 O85 1.295 . S
C81 O86 1.235 . S
O82 Fe67 1.976 . S
O82 C76 1.287 . S
O83 Fe69 1.996 . S
O83 C76 1.255 . S
C84 O77 1.287 . S
C84 O78 1.255 . S
O85 Fe67 2.002 . S
O85 C81 1.295 . S
O86 Fe69 1.997 . S
O86 C81 1.235 . S
C87 O70 1.295 . S
C87 O71 1.235 . S
Fe88 O90 1.918 . S
Fe88 O93 1.997 . S
Fe88 O94 2.002 . S
Fe88 O99 1.976 . S
Fe88 O102 1.996 . S
Fe89 O90 1.918 . S
Fe89 O97 1.997 . S
Fe89 O100 1.996 . S
Fe89 O104 1.976 1_556 S
Fe89 O107 2.002 . S
O90 Fe88 1.918 . S
O90 Fe89 1.918 . S
O90 Fe91 1.918 1_556 S
Fe91 O90 1.918 1_554 S
Fe91 O92 2.002 1_554 S
Fe91 O101 1.976 . S
Fe91 O105 1.996 . S
Fe91 O108 1.997 . S
O92 Fe91 2.002 1_556 S
O92 C109 1.295 . S
O93 Fe88 1.997 . S
O93 C109 1.235 . S
O94 Fe88 2.002 . S
O94 C95 1.295 . S
C95 O94 1.295 . S
C95 O97 1.235 . S
C96 O101 1.287 1_556 S
C96 O102 1.255 . S
O97 Fe89 1.997 . S
O97 C95 1.235 . S
C98 O104 1.287 . S
C98 O105 1.255 . S
O99 Fe88 1.976 . S
O99 C106 1.287 . S
O100 Fe89 1.996 . S
O100 C106 1.255 . S
O101 Fe91 1.976 . S
O101 C96 1.287 1_554 S
O102 Fe88 1.996 . S
O102 C96 1.255 . S
C103 O107 1.295 . S
C103 O108 1.235 1_556 S
O104 Fe89 1.976 1_554 S
O104 C98 1.287 . S
O105 Fe91 1.996 . S
O105 C98 1.255 . S
C106 O99 1.287 . S
C106 O100 1.255 . S
O107 Fe89 2.002 . S
O107 C103 1.295 . S
O108 Fe91 1.997 . S
O108 C103 1.235 1_554 S
C109 O92 1.295 . S
C109 O93 1.235 . S
Fe110 O112 1.918 . S
Fe110 O115 1.997 . S
Fe110 O116 2.002 . S
Fe110 O121 1.976 . S
Fe110 O124 1.996 . S
Fe111 O112 1.918 . S
Fe111 O119 1.997 . S
Fe111 O122 1.996 . S
Fe111 O126 1.976 . S
Fe111 O129 2.002 . S
O112 Fe110 1.918 . S
O112 Fe111 1.918 . S
O112 Fe113 1.918 . S
Fe113 O112 1.918 . S
Fe113 O114 2.002 . S
Fe113 O123 1.976 . S
Fe113 O127 1.996 . S
Fe113 O130 1.997 . S
O114 Fe113 2.002 . S
O114 C131 1.295 . S
O115 Fe110 1.997 . S
O115 C131 1.235 . S
O116 Fe110 2.002 . S
O116 C117 1.295 . S
C117 O116 1.295 . S
C117 O119 1.235 . S
C118 O123 1.287 . S
C118 O124 1.255 . S
O119 Fe111 1.997 . S
O119 C117 1.235 . S
C120 O126 1.287 . S
C120 O127 1.255 . S
O121 Fe110 1.976 . S
O121 C128 1.287 . S
O122 Fe111 1.996 . S
O122 C128 1.255 . S
O123 Fe113 1.976 . S
O123 C118 1.287 . S
O124 Fe110 1.996 . S
O124 C118 1.255 . S
C125 O129 1.295 . S
C125 O130 1.235 . S
O126 Fe111 1.976 . S
O126 C120 1.287 . S
O127 Fe113 1.996 . S
O127 C120 1.255 . S
C128 O121 1.287 . S
C128 O122 1.255 . S
O129 Fe111 2.002 . S
O129 C125 1.295 . S
O130 Fe113 1.997 . S
O130 C125 1.235 . S
C131 O114 1.295 . S
C131 O115 1.235 . S
Fe132 O134 1.918 . S
Fe132 O137 1.997 . S
Fe132 O138 2.002 . S
Fe132 O143 1.976 . S
Fe132 O146 1.996 . S
Fe133 O134 1.918 . S
Fe133 O141 1.997 . S
Fe133 O144 1.996 . S
Fe133 O148 1.976 1_554 S
Fe133 O151 2.002 . S
O134 Fe132 1.918 . S
O134 Fe133 1.918 . S
O134 Fe135 1.918 1_554 S
Fe135 O134 1.918 1_556 S
Fe135 O136 2.002 1_556 S
Fe135 O145 1.976 . S
Fe135 O149 1.996 . S
Fe135 O152 1.997 . S
O136 Fe135 2.002 1_554 S
O136 C153 1.295 . S
O137 Fe132 1.997 . S
O137 C153 1.235 . S
O138 Fe132 2.002 . S
O138 C139 1.295 . S
C139 O138 1.295 . S
C139 O141 1.235 . S
C140 O145 1.287 1_554 S
C140 O146 1.255 . S
O141 Fe133 1.997 . S
O141 C139 1.235 . S
C142 O148 1.287 . S
C142 O149 1.255 . S
O143 Fe132 1.976 . S
O143 C150 1.287 . S
O144 Fe133 1.996 . S
O144 C150 1.255 . S
O145 Fe135 1.976 . S
O145 C140 1.287 1_556 S
O146 Fe132 1.996 . S
O146 C140 1.255 . S
C147 O151 1.295 . S
C147 O152 1.235 1_554 S
O148 Fe133 1.976 1_556 S
O148 C142 1.287 . S
O149 Fe135 1.996 . S
O149 C142 1.255 . S
C150 O143 1.287 . S
C150 O144 1.255 . S
O151 Fe133 2.002 . S
O151 C147 1.295 . S
O152 Fe135 1.997 . S
O152 C147 1.235 1_556 S
C153 O136 1.295 . S
C153 O137 1.235 . S
Fe154 O156 1.918 . S
Fe154 O159 1.997 . S
Fe154 O160 2.002 . S
Fe154 O165 1.976 . S
Fe154 O168 1.996 . S
Fe155 O156 1.918 . S
Fe155 O163 1.997 . S
Fe155 O166 1.996 . S
Fe155 O170 1.976 . S
Fe155 O173 2.002 . S
O156 Fe154 1.918 . S
O156 Fe155 1.918 . S
O156 Fe157 1.918 . S
Fe157 O156 1.918 . S
Fe157 O158 2.002 . S
Fe157 O167 1.976 . S
Fe157 O171 1.996 . S
Fe157 O174 1.997 . S
O158 Fe157 2.002 . S
O158 C175 1.295 . S
O159 Fe154 1.997 . S
O159 C175 1.235 . S
O160 Fe154 2.002 . S
O160 C161 1.295 . S
C161 O160 1.295 . S
C161 O163 1.235 . S
C162 O167 1.287 . S
C162 O168 1.255 . S
O163 Fe155 1.997 . S
O163 C161 1.235 . S
C164 O170 1.287 . S
C164 O171 1.255 . S
O165 Fe154 1.976 . S
O165 C172 1.287 . S
O166 Fe155 1.996 . S
O166 C172 1.255 . S
O167 Fe157 1.976 . S
O167 C162 1.287 . S
O168 Fe154 1.996 . S
O168 C162 1.255 . S
C169 O173 1.295 . S
C169 O174 1.235 . S
O170 Fe155 1.976 . S
O170 C164 1.287 . S
O171 Fe157 1.996 . S
O171 C164 1.255 . S
C172 O165 1.287 . S
C172 O166 1.255 . S
O173 Fe155 2.002 . S
O173 C169 1.295 . S
O174 Fe157 1.997 . S
O174 C169 1.235 . S
C175 O158 1.295 . S
C175 O159 1.235 . S
Fe176 O178 1.918 . S
Fe176 O181 1.997 . S
Fe176 O182 2.002 . S
Fe176 O187 1.976 . S
Fe176 O190 1.996 1_554 S
Fe177 O178 1.918 . S
Fe177 O185 1.997 . S
Fe177 O188 1.996 . S
Fe177 O192 1.976 . S
Fe177 O195 2.002 . S
O178 Fe176 1.918 . S
O178 Fe177 1.918 . S
O178 Fe179 1.918 1_554 S
Fe179 O178 1.918 1_556 S
Fe179 O180 2.002 . S
Fe179 O189 1.976 . S
Fe179 O193 1.996 . S
Fe179 O196 1.997 1_556 S
O180 Fe179 2.002 . S
O180 C197 1.295 1_556 S
O181 Fe176 1.997 . S
O181 C197 1.235 . S
O182 Fe176 2.002 . S
O182 C183 1.295 . S
C183 O182 1.295 . S
C183 O185 1.235 . S
C184 O189 1.287 . S
C184 O190 1.255 . S
O185 Fe177 1.997 . S
O185 C183 1.235 . S
C186 O192 1.287 . S
C186 O193 1.255 1_554 S
O187 Fe176 1.976 . S
O187 C194 1.287 . S
O188 Fe177 1.996 . S
O188 C194 1.255 . S
O189 Fe179 1.976 . S
O189 C184 1.287 . S
O190 Fe176 1.996 1_556 S
O190 C184 1.255 . S
C191 O195 1.295 . S
C191 O196 1.235 . S
O192 Fe177 1.976 . S
O192 C186 1.287 . S
O193 Fe179 1.996 . S
O193 C186 1.255 1_556 S
C194 O187 1.287 . S
C194 O188 1.255 . S
O195 Fe177 2.002 . S
O195 C191 1.295 . S
O196 Fe179 1.997 1_554 S
O196 C191 1.235 . S
C197 O180 1.295 1_554 S
C197 O181 1.235 . S
Fe198 O200 1.918 . S
Fe198 O203 1.997 . S
Fe198 O204 2.002 . S
Fe198 O209 1.976 . S
Fe198 O212 1.996 . S
Fe199 O200 1.918 . S
Fe199 O207 1.997 . S
Fe199 O210 1.996 . S
Fe199 O214 1.976 . S
Fe199 O217 2.002 . S
O200 Fe198 1.918 . S
O200 Fe199 1.918 . S
O200 Fe201 1.918 . S
Fe201 O200 1.918 . S
Fe201 O202 2.002 . S
Fe201 O211 1.976 . S
Fe201 O215 1.996 . S
Fe201 O218 1.997 . S
O202 Fe201 2.002 . S
O202 C219 1.295 . S
O203 Fe198 1.997 . S
O203 C219 1.235 . S
O204 Fe198 2.002 . S
O204 C205 1.295 . S
C205 O204 1.295 . S
C205 O207 1.235 . S
C206 O211 1.287 . S
C206 O212 1.255 . S
O207 Fe199 1.997 . S
O207 C205 1.235 . S
C208 O214 1.287 . S
C208 O215 1.255 . S
O209 Fe198 1.976 . S
O209 C216 1.287 . S
O210 Fe199 1.996 . S
O210 C216 1.255 . S
O211 Fe201 1.976 . S
O211 C206 1.287 . S
O212 Fe198 1.996 . S
O212 C206 1.255 . S
C213 O217 1.295 . S
C213 O218 1.235 . S
O214 Fe199 1.976 . S
O214 C208 1.287 . S
O215 Fe201 1.996 . S
O215 C208 1.255 . S
C216 O209 1.287 . S
C216 O210 1.255 . S
O217 Fe199 2.002 . S
O217 C213 1.295 . S
O218 Fe201 1.997 . S
O218 C213 1.235 . S
C219 O202 1.295 . S
C219 O203 1.235 . S
Fe220 O222 1.918 . S
Fe220 O225 1.997 . S
Fe220 O226 2.002 . S
Fe220 O231 1.976 . S
Fe220 O234 1.996 1_556 S
Fe221 O222 1.918 . S
Fe221 O229 1.997 . S
Fe221 O232 1.996 . S
Fe221 O236 1.976 . S
Fe221 O239 2.002 . S
O222 Fe220 1.918 . S
O222 Fe221 1.918 . S
O222 Fe223 1.918 1_556 S
Fe223 O222 1.918 1_554 S
Fe223 O224 2.002 . S
Fe223 O233 1.976 . S
Fe223 O237 1.996 . S
Fe223 O240 1.997 1_554 S
O224 Fe223 2.002 . S
O224 C241 1.295 1_554 S
O225 Fe220 1.997 . S
O225 C241 1.235 . S
O226 Fe220 2.002 . S
O226 C227 1.295 . S
C227 O226 1.295 . S
C227 O229 1.235 . S
C228 O233 1.287 . S
C228 O234 1.255 . S
O229 Fe221 1.997 . S
O229 C227 1.235 . S
C230 O236 1.287 . S
C230 O237 1.255 1_556 S
O231 Fe220 1.976 . S
O231 C238 1.287 . S
O232 Fe221 1.996 . S
O232 C238 1.255 . S
O233 Fe223 1.976 . S
O233 C228 1.287 . S
O234 Fe220 1.996 1_554 S
O234 C228 1.255 . S
C235 O239 1.295 . S
C235 O240 1.235 . S
O236 Fe221 1.976 . S
O236 C230 1.287 . S
O237 Fe223 1.996 . S
O237 C230 1.255 1_554 S
C238 O231 1.287 . S
C238 O232 1.255 . S
O239 Fe221 2.002 . S
O239 C235 1.295 . S
O240 Fe223 1.997 1_556 S
O240 C235 1.235 . S
C241 O224 1.295 1_556 S
C241 O225 1.235 . S
Fe242 O244 1.918 . S
Fe242 O247 1.997 . S
Fe242 O248 2.002 . S
Fe242 O253 1.976 . S
Fe242 O256 1.996 . S
Fe243 O244 1.918 . S
Fe243 O251 1.997 . S
Fe243 O254 1.996 . S
Fe243 O258 1.976 . S
Fe243 O261 2.002 . S
O244 Fe242 1.918 . S
O244 Fe243 1.918 . S
O244 Fe245 1.918 . S
Fe245 O244 1.918 . S
Fe245 O246 2.002 . S
Fe245 O255 1.976 . S
Fe245 O259 1.996 . S
Fe245 O262 1.997 . S
O246 Fe245 2.002 . S
O246 C263 1.295 . S
O247 Fe242 1.997 . S
O247 C263 1.235 . S
O248 Fe242 2.002 . S
O248 C249 1.295 . S
C249 O248 1.295 . S
C249 O251 1.235 . S
C250 O255 1.287 . S
C250 O256 1.255 . S
O251 Fe243 1.997 . S
O251 C249 1.235 . S
C252 O258 1.287 . S
C252 O259 1.255 . S
O253 Fe242 1.976 . S
O253 C260 1.287 . S
O254 Fe243 1.996 . S
O254 C260 1.255 . S
O255 Fe245 1.976 . S
O255 C250 1.287 . S
O256 Fe242 1.996 . S
O256 C250 1.255 . S
C257 O261 1.295 . S
C257 O262 1.235 . S
O258 Fe243 1.976 . S
O258 C252 1.287 . S
O259 Fe245 1.996 . S
O259 C252 1.255 . S
C260 O253 1.287 . S
C260 O254 1.255 . S
O261 Fe243 2.002 . S
O261 C257 1.295 . S
O262 Fe245 1.997 . S
O262 C257 1.235 . S
C263 O246 1.295 . S
C263 O247 1.235 . S
Fe264 O266 1.918 . S
Fe264 O269 1.997 . S
Fe264 O270 2.002 . S
Fe264 O275 1.976 . S
Fe264 O278 1.996 . S
Fe265 O266 1.918 . S
Fe265 O273 1.997 . S
Fe265 O276 1.996 . S
Fe265 O280 1.976 1_556 S
Fe265 O283 2.002 . S
O266 Fe264 1.918 . S
O266 Fe265 1.918 . S
O266 Fe267 1.918 1_556 S
Fe267 O266 1.918 1_554 S
Fe267 O268 2.002 1_554 S
Fe267 O277 1.976 . S
Fe267 O281 1.996 . S
Fe267 O284 1.997 . S
O268 Fe267 2.002 1_556 S
O268 C285 1.295 . S
O269 Fe264 1.997 . S
O269 C285 1.235 . S
O270 Fe264 2.002 . S
O270 C271 1.295 . S
C271 O270 1.295 . S
C271 O273 1.235 . S
C272 O277 1.287 1_556 S
C272 O278 1.255 . S
O273 Fe265 1.997 . S
O273 C271 1.235 . S
C274 O280 1.287 . S
C274 O281 1.255 . S
O275 Fe264 1.976 . S
O275 C282 1.287 . S
O276 Fe265 1.996 . S
O276 C282 1.255 . S
O277 Fe267 1.976 . S
O277 C272 1.287 1_554 S
O278 Fe264 1.996 . S
O278 C272 1.255 . S
C279 O283 1.295 . S
C279 O284 1.235 1_556 S
O280 Fe265 1.976 1_554 S
O280 C274 1.287 . S
O281 Fe267 1.996 . S
O281 C274 1.255 . S
C282 O275 1.287 . S
C282 O276 1.255 . S
O283 Fe265 2.002 . S
O283 C279 1.295 . S
O284 Fe267 1.997 . S
O284 C279 1.235 1_554 S
C285 O268 1.295 . S
C285 O269 1.235 . S
Fe286 O288 1.918 . S
Fe286 O291 1.997 . S
Fe286 O292 2.002 . S
Fe286 O297 1.976 . S
Fe286 O300 1.996 . S
Fe287 O288 1.918 . S
Fe287 O295 1.997 . S
Fe287 O298 1.996 . S
Fe287 O302 1.976 . S
Fe287 O305 2.002 . S
O288 Fe286 1.918 . S
O288 Fe287 1.918 . S
O288 Fe289 1.918 . S
Fe289 O288 1.918 . S
Fe289 O290 2.002 . S
Fe289 O299 1.976 . S
Fe289 O303 1.996 . S
Fe289 O306 1.997 . S
O290 Fe289 2.002 . S
O290 C307 1.295 . S
O291 Fe286 1.997 . S
O291 C307 1.235 . S
O292 Fe286 2.002 . S
O292 C293 1.295 . S
C293 O292 1.295 . S
C293 O295 1.235 . S
C294 O299 1.287 . S
C294 O300 1.255 . S
O295 Fe287 1.997 . S
O295 C293 1.235 . S
C296 O302 1.287 . S
C296 O303 1.255 . S
O297 Fe286 1.976 . S
O297 C304 1.287 . S
O298 Fe287 1.996 . S
O298 C304 1.255 . S
O299 Fe289 1.976 . S
O299 C294 1.287 . S
O300 Fe286 1.996 . S
O300 C294 1.255 . S
C301 O305 1.295 . S
C301 O306 1.235 . S
O302 Fe287 1.976 . S
O302 C296 1.287 . S
O303 Fe289 1.996 . S
O303 C296 1.255 . S
C304 O297 1.287 . S
C304 O298 1.255 . S
O305 Fe287 2.002 . S
O305 C301 1.295 . S
O306 Fe289 1.997 . S
O306 C301 1.235 . S
C307 O290 1.295 . S
C307 O291 1.235 . S
Fe308 O310 1.918 . S
Fe308 O313 1.997 . S
Fe308 O314 2.002 . S
Fe308 O319 1.976 1_554 S
Fe308 O322 1.996 . S
Fe309 O310 1.918 1_556 S
Fe309 O317 1.997 . S
Fe309 O320 1.996 . S
Fe309 O324 1.976 . S
Fe309 O327 2.002 1_556 S
O310 Fe308 1.918 . S
O310 Fe309 1.918 1_554 S
O310 Fe311 1.918 . S
Fe311 O310 1.918 . S
Fe311 O312 2.002 . S
Fe311 O321 1.976 . S
Fe311 O325 1.996 . S
Fe311 O328 1.997 . S
O312 Fe311 2.002 . S
O312 C329 1.295 . S
O313 Fe308 1.997 . S
O313 C329 1.235 . S
O314 Fe308 2.002 . S
O314 C315 1.295 . S
C315 O314 1.295 . S
C315 O317 1.235 1_554 S
C316 O321 1.287 . S
C316 O322 1.255 . S
O317 Fe309 1.997 . S
O317 C315 1.235 1_556 S
C318 O324 1.287 1_554 S
C318 O325 1.255 . S
O319 Fe308 1.976 1_556 S
O319 C326 1.287 . S
O320 Fe309 1.996 . S
O320 C326 1.255 . S
O321 Fe311 1.976 . S
O321 C316 1.287 . S
O322 Fe308 1.996 . S
O322 C316 1.255 . S
C323 O327 1.295 . S
C323 O328 1.235 . S
O324 Fe309 1.976 . S
O324 C318 1.287 1_556 S
O325 Fe311 1.996 . S
O325 C318 1.255 . S
C326 O319 1.287 . S
C326 O320 1.255 . S
O327 Fe309 2.002 1_554 S
O327 C323 1.295 . S
O328 Fe311 1.997 . S
O328 C323 1.235 . S
C329 O312 1.295 . S
C329 O313 1.235 . S
Fe330 O332 1.918 . S
Fe330 O335 1.997 . S
Fe330 O336 2.002 . S
Fe330 O341 1.976 . S
Fe330 O344 1.996 . S
Fe331 O332 1.918 . S
Fe331 O339 1.997 . S
Fe331 O342 1.996 . S
Fe331 O346 1.976 . S
Fe331 O349 2.002 . S
O332 Fe330 1.918 . S
O332 Fe331 1.918 . S
O332 Fe333 1.918 . S
Fe333 O332 1.918 . S
Fe333 O334 2.002 . S
Fe333 O343 1.976 . S
Fe333 O347 1.996 . S
Fe333 O350 1.997 . S
O334 Fe333 2.002 . S
O334 C351 1.295 . S
O335 Fe330 1.997 . S
O335 C351 1.235 . S
O336 Fe330 2.002 . S
O336 C337 1.295 . S
C337 O336 1.295 . S
C337 O339 1.235 . S
C338 O343 1.287 . S
C338 O344 1.255 . S
O339 Fe331 1.997 . S
O339 C337 1.235 . S
C340 O346 1.287 . S
C340 O347 1.255 . S
O341 Fe330 1.976 . S
O341 C348 1.287 . S
O342 Fe331 1.996 . S
O342 C348 1.255 . S
O343 Fe333 1.976 . S
O343 C338 1.287 . S
O344 Fe330 1.996 . S
O344 C338 1.255 . S
C345 O349 1.295 . S
C345 O350 1.235 . S
O346 Fe331 1.976 . S
O346 C340 1.287 . S
O347 Fe333 1.996 . S
O347 C340 1.255 . S
C348 O341 1.287 . S
C348 O342 1.255 . S
O349 Fe331 2.002 . S
O349 C345 1.295 . S
O350 Fe333 1.997 . S
O350 C345 1.235 . S
C351 O334 1.295 . S
C351 O335 1.235 . S
C15 C73 1.803 . S
C59 C29 1.803 . S
C169 C109 1.842 . S
C117 C153 1.842 . S
C257 C191 1.803 . S
C235 C205 1.803 . S
C285 C345 1.842 . S
C323 C293 1.842 . S
C8 C351 1.842 . S
C32 C329 1.842 . S
C301 C52 1.842 . S
C271 C76 1.842 . S
C98 C249 1.863 . S
C118 C227 1.863 . S
C219 C142 1.863 . S
C183 C172 1.863 . S
C184 C175 1.842 . S
C208 C139 1.842 . S
C228 C125 1.842 . S
C250 C95 1.842 . S
C87 C274 1.863 . S
C51 C294 1.863 . S
C326 C43 1.863 . S
C348 C7 1.863 . S
C18 C150 1.451 1_455 S
C30 C162 1.451 . S
C106 C62 1.451 1_655 S
C74 C120 1.451 . S
C194 C316 1.451 . S
C206 C338 1.451 1_655 S
C238 C282 1.451 . S
C296 C260 1.451 1_455 S
C10 C54 1.555 1_544 S
C40 C84 1.555 1_565 S
C140 C96 1.584 1_544 S
C128 C164 1.584 1_545 S
C186 C230 1.555 1_554 S
C252 C216 1.555 . S
C272 C318 1.584 1_556 S
C304 C340 1.584 . S
C21 C279 1.707 1_554 S
C37 C307 1.707 . S
C65 C315 1.707 1_556 S
C81 C337 1.707 . S
C103 C197 1.707 1_556 S
C213 C131 1.707 . S
C241 C147 1.707 1_556 S
C263 C161 1.707 . S
