# Generated by pormake.
# Topology uov, (4)-cn, num edge types: 1
# Building blocks:
#     Node 0, Type 0, BuildingBlock: QUQFOY_clean_sbu_3, # of connection points: 4
#     Node 1, Type 0, BuildingBlock: QUQFOY_clean_sbu_3, # of connection points: 4
#     Node 2, Type 0, BuildingBlock: QUQFOY_clean_sbu_3, # of connection points: 4
#     Node 3, Type 0, BuildingBlock: QUQFOY_clean_sbu_3, # of connection points: 4
#     Node 4, Type 0, BuildingBlock: QUQFOY_clean_sbu_3, # of connection points: 4
#     Node 5, Type 0, BuildingBlock: QUQFOY_clean_sbu_3, # of connection points: 4
#     Node 6, Type 0, BuildingBlock: QUQFOY_clean_sbu_3, # of connection points: 4
#     Node 7, Type 0, BuildingBlock: QUQFOY_clean_sbu_3, # of connection points: 4
#     Edge 8, Type (0, 0), BuildingBlock: ZUJKAS_clean_linker_0, # of connection points: 2
#     Edge 9, Type (0, 0), BuildingBlock: ZUJKAS_clean_linker_0, # of connection points: 2
#     Edge 10, Type (0, 0), BuildingBlock: ZUJKAS_clean_linker_0, # of connection points: 2
#     Edge 11, Type (0, 0), BuildingBlock: ZUJKAS_clean_linker_0, # of connection points: 2
#     Edge 12, Type (0, 0), BuildingBlock: ZUJKAS_clean_linker_0, # of connection points: 2
#     Edge 13, Type (0, 0), BuildingBlock: ZUJKAS_clean_linker_0, # of connection points: 2
#     Edge 14, Type (0, 0), BuildingBlock: ZUJKAS_clean_linker_0, # of connection points: 2
#     Edge 15, Type (0, 0), BuildingBlock: ZUJKAS_clean_linker_0, # of connection points: 2
#     Edge 16, Type (0, 0), BuildingBlock: ZUJKAS_clean_linker_0, # of connection points: 2
#     Edge 17, Type (0, 0), BuildingBlock: ZUJKAS_clean_linker_0, # of connection points: 2
#     Edge 18, Type (0, 0), BuildingBlock: ZUJKAS_clean_linker_0, # of connection points: 2
#     Edge 19, Type (0, 0), BuildingBlock: ZUJKAS_clean_linker_0, # of connection points: 2
#     Edge 20, Type (0, 0), BuildingBlock: ZUJKAS_clean_linker_0, # of connection points: 2
#     Edge 21, Type (0, 0), BuildingBlock: ZUJKAS_clean_linker_0, # of connection points: 2
#     Edge 22, Type (0, 0), BuildingBlock: ZUJKAS_clean_linker_0, # of connection points: 2
#     Edge 23, Type (0, 0), BuildingBlock: ZUJKAS_clean_linker_0, # of connection points: 2
# Relax obj value: 0.140
# Max RMSD: 0.153
# Mean RMSD: 0.145
data_MOF--net-uov--node1-QUQFOY_clean_sbu_3--edge1-ZUJKAS_clean_linker_0
_symmetry_space_group_name_H-M    P1
_symmetry_Int_Tables_number       1
_symmetry_cell_setting            triclinic
loop_
_symmetry_equiv_pos_as_xyz
'x, y, z'
_cell_length_a     40.64331
_cell_length_b     40.850895
_cell_length_c     56.226048
_cell_angle_alpha  90.134985
_cell_angle_beta   90.128052
_cell_angle_gamma 88.421028
loop_
_atom_site_label
_atom_site_type_symbol
_atom_site_fract_x
_atom_site_fract_y
_atom_site_fract_z
_atom_type_partial_charge
C0 C 0.95648 0.20195 0.58871 0.0
O1 O 0.9673 0.17748 0.60052 0.0
Cd2 Cd 0.02297 0.17316 0.6147 0.0
O3 O 0.97473 0.22624 0.585 0.0
Cd4 Cd 0.03065 0.24442 0.59516 0.0
C5 C 0.06391 0.18378 0.56189 0.0
O6 O 0.03648 0.22261 0.63532 0.0
O7 O 0.08108 0.23792 0.61831 0.0
O8 O 0.00745 0.29824 0.60388 0.0
C9 C 0.0671 0.22759 0.63685 0.0
O10 O 0.05611 0.16473 0.57876 0.0
C11 C 0.02572 0.31338 0.58957 0.0
O12 O 0.05611 0.21413 0.56264 0.0
O13 O 0.04654 0.29629 0.57775 0.0
C14 C 0.19682 0.90775 0.32885 0.0
O15 O 0.17325 0.92631 0.33601 0.0
Cd16 Cd 0.17341 0.96068 0.37059 0.0
O17 O 0.22439 0.90699 0.33971 0.0
Cd18 Cd 0.25041 0.934 0.37424 0.0
C19 C 0.19526 0.90124 0.41198 0.0
O20 O 0.224 -0.01197 0.37025 0.0
O21 O 0.25392 0.9801 0.4015 0.0
O22 O 0.29844 0.94093 0.34972 0.0
C23 C 0.23551 -0.00066 0.38947 0.0
O24 O 0.17465 0.92178 0.403 0.0
C25 C 0.31898 0.92945 0.36478 0.0
O26 O 0.22481 0.89896 0.40438 0.0
O27 O 0.30733 0.91798 0.38391 0.0
C28 C -0.00327 0.77991 0.58739 0.0
O29 O 0.98107 0.80255 0.59845 0.0
Cd30 Cd 0.92724 0.79496 0.61533 0.0
O31 O 0.98438 0.75181 0.58489 0.0
Cd32 Cd 0.93502 0.72138 0.59525 0.0
C33 C 0.88609 0.77401 0.56418 0.0
O34 O 0.92855 0.74317 0.63517 0.0
O35 O 0.88886 0.71385 0.62236 0.0
O36 O 0.97352 0.67567 0.60002 0.0
C37 C 0.90104 0.73036 0.63917 0.0
O38 O 0.88957 0.79406 0.58135 0.0
C39 C 0.95738 0.65592 0.58738 0.0
O40 O 0.90181 0.74663 0.56381 0.0
O41 O 0.93035 0.66658 0.57856 0.0
C42 C 0.77098 0.05967 0.33269 0.0
O43 O 0.79414 0.04194 0.34137 0.0
Cd44 Cd 0.79142 0.01372 0.37839 0.0
O45 O 0.74316 0.06197 0.34306 0.0
Cd46 Cd 0.71677 0.03854 0.37875 0.0
C47 C 0.76802 0.07927 0.41431 0.0
O48 O 0.74226 -0.01656 0.37912 0.0
O49 O 0.71778 -0.00041 0.41123 0.0
O50 O 0.67008 0.02559 0.35413 0.0
C51 C 0.73232 0.97664 0.39985 0.0
O52 O 0.78909 0.05738 0.40783 0.0
C53 C 0.64842 0.03798 0.36793 0.0
O54 O 0.73901 0.08003 0.40561 0.0
O55 O 0.6587 0.05258 0.38639 0.0
C56 C 0.89825 0.19016 0.12293 0.0
O57 O 0.91689 0.16796 0.11393 0.0
Cd58 Cd 0.95466 0.17471 0.08172 0.0
O59 O 0.8989 0.21948 0.11532 0.0
Cd60 Cd 0.929 0.25021 0.08478 0.0
C61 C 0.89955 0.20481 0.03984 0.0
O62 O 0.98333 0.22349 0.08831 0.0
O63 O 0.97544 0.25442 0.05782 0.0
O64 O 0.93702 0.29376 0.11326 0.0
C65 C -0.00503 0.23596 0.06962 0.0
O66 O 0.92069 0.18324 0.04671 0.0
C67 C 0.92647 0.31668 0.09983 0.0
O68 O 0.89441 0.23115 0.05166 0.0
O69 O 0.91493 0.3084 0.07972 0.0
C70 C 0.19672 0.95798 0.87318 0.0
O71 O 0.17422 0.97066 0.86017 0.0
Cd72 Cd 0.17524 0.02637 0.84671 0.0
O73 O 0.22218 0.97406 0.87836 0.0
Cd74 Cd 0.24716 0.02724 0.86967 0.0
C75 C 0.18669 0.06481 0.90089 0.0
O76 O 0.22782 0.03479 0.82919 0.0
O77 O 0.24677 0.07767 0.8463 0.0
O78 O 0.29861 -0.00246 0.86325 0.0
C79 C 0.23516 0.06468 0.8277 0.0
O80 O 0.1683 0.05941 0.88298 0.0
C81 C 0.31523 0.01452 0.87763 0.0
O82 O 0.21637 0.05406 0.90142 0.0
O83 O 0.30008 0.03779 0.88838 0.0
C84 C 0.07526 0.76324 0.12296 0.0
O85 O 0.05591 0.78506 0.11426 0.0
Cd86 Cd 0.01601 0.77746 0.08342 0.0
O87 O 0.07459 0.73376 0.11557 0.0
Cd88 Cd 0.0433 0.70266 0.0856 0.0
C89 C 0.06864 0.74835 0.03979 0.0
O90 O -0.01115 0.72831 0.0913 0.0
O91 O -0.00504 0.69806 0.06019 0.0
O92 O 0.03796 0.65875 0.11401 0.0
C93 C 0.976 0.71573 0.07299 0.0
O94 O 0.04723 0.76931 0.04718 0.0
C95 C 0.04768 0.63607 0.10003 0.0
O96 O 0.07561 0.72245 0.05161 0.0
O97 O 0.05767 0.64466 0.07963 0.0
C98 C 0.78025 -0.00641 0.87848 0.0
O99 O 0.80392 0.97941 0.86749 0.0
Cd100 Cd 0.80212 0.92332 0.8546 0.0
O101 O 0.75381 0.97856 0.88252 0.0
Cd102 Cd 0.72814 0.92539 0.87502 0.0
C103 C 0.78619 0.88691 0.90858 0.0
O104 O 0.75006 0.91703 0.83537 0.0
O105 O 0.72504 0.87604 0.85037 0.0
O106 O 0.67911 0.95883 0.86841 0.0
C107 C 0.74003 0.88811 0.83284 0.0
O108 O 0.80591 0.89152 0.89139 0.0
C109 C 0.66074 0.94247 0.88188 0.0
O110 O 0.7567 0.89817 0.90783 0.0
O111 O 0.67368 0.91753 0.89207 0.0
H112 H 0.01821 0.63009 0.59766 0.0
H113 H 0.03731 0.57318 0.59319 0.0
H114 H 0.94256 0.54812 0.56471 0.0
H115 H 0.92362 0.60519 0.56845 0.0
H116 H 0.01297 0.5226 0.61578 0.0
H117 H 0.00334 0.50072 0.51896 0.0
H118 H 0.00163 0.54134 0.53171 0.0
H119 H 0.96542 0.5169 0.53099 0.0
C120 C 0.00159 0.61252 0.59015 0.0
C121 C 0.96939 0.62199 0.58346 0.0
C122 C 0.01257 0.58007 0.58755 0.0
C123 C -0.00847 0.55654 0.57829 0.0
C124 C 0.95951 0.56605 0.57128 0.0
H125 H 0.98166 0.35481 0.61131 0.0
H126 H 0.97707 0.41422 0.60757 0.0
C127 C 0.94861 0.59859 0.57364 0.0
C128 C 0.00185 0.52156 0.57827 0.0
H129 H 0.00477 0.4526 0.54389 0.0
C130 C 0.01167 0.50742 0.59996 0.0
C131 C 0.00064 0.50187 0.55757 0.0
C132 C -0.00747 0.51608 0.53345 0.0
C133 C 0.01875 0.47381 0.60177 0.0
C134 C 0.01514 0.45377 0.58147 0.0
C135 C 0.007 0.46806 0.5595 0.0
C136 C 0.01784 0.41776 0.58311 0.0
C137 C 0.02967 0.46001 0.62548 0.0
C138 C 0.04167 0.40009 0.56999 0.0
C139 C 0.04424 0.36602 0.57196 0.0
C140 C 0.02287 0.34924 0.58699 0.0
C141 C -0.00134 0.36705 0.59974 0.0
C142 C -0.00391 0.401 0.59772 0.0
H143 H 0.04081 0.47905 0.63685 0.0
H144 H 0.00797 0.45068 0.63501 0.0
H145 H 0.04782 0.43944 0.62318 0.0
H146 H 0.0585 0.41269 0.55848 0.0
H147 H 0.06305 0.35288 0.56185 0.0
H148 H 0.62053 0.00789 0.32991 0.0
H149 H 0.56397 -0.01023 0.32639 0.0
H150 H 0.54025 0.03502 0.3938 0.0
H151 H 0.59683 0.05351 0.39744 0.0
H152 H 0.53558 0.94749 0.35984 0.0
H153 H 0.46313 0.06406 0.3501 0.0
H154 H 0.50693 0.06112 0.34477 0.0
H155 H 0.4915 0.06296 0.37467 0.0
C156 C 0.60314 0.01461 0.34378 0.0
C157 C 0.61315 0.03207 0.364 0.0
C158 C 0.57088 0.00413 0.34175 0.0
C159 C 0.54801 0.01111 0.3598 0.0
C160 C 0.55748 0.02976 0.37954 0.0
H161 H 0.36868 0.91469 0.39621 0.0
H162 H 0.42588 0.93152 0.39353 0.0
C163 C 0.5898 0.04028 0.38159 0.0
C164 C 0.5151 -0.00331 0.35882 0.0
H165 H 0.433 0.016 0.35699 0.0
C166 C 0.51311 0.96242 0.35908 0.0
C167 C 0.48598 0.01629 0.35772 0.0
C168 C 0.48683 0.05316 0.35659 0.0
C169 C 0.48261 0.94719 0.35864 0.0
C170 C 0.45348 0.96682 0.35809 0.0
C171 C 0.45548 0.00107 0.35747 0.0
C172 C 0.42051 0.95251 0.35839 0.0
C173 C 0.48174 0.9103 0.35856 0.0
C174 C 0.39884 0.95821 0.33933 0.0
C175 C 0.36623 0.94864 0.34079 0.0
C176 C 0.35467 0.93345 0.36145 0.0
C177 C 0.37689 0.92621 0.38002 0.0
C178 C 0.40958 0.93578 0.37852 0.0
H179 H 0.50588 0.89896 0.35348 0.0
H180 H 0.47551 0.90168 0.37665 0.0
H181 H 0.4626 0.90163 0.34609 0.0
H182 H 0.4069 0.97109 0.32365 0.0
H183 H 0.34974 0.95455 0.32616 0.0
H184 H 0.95376 0.3405 0.14046 0.0
H185 H 0.97323 0.39584 0.14708 0.0
H186 H 0.93242 0.42612 0.07951 0.0
H187 H 0.9127 0.37086 0.07274 0.0
H188 H 0.01886 0.42325 0.11569 0.0
H189 H 0.90623 0.50216 0.12466 0.0
H190 H 0.90615 0.45833 0.12892 0.0
H191 H 0.90588 0.47514 0.09941 0.0
C192 C 0.94815 0.35913 0.12727 0.0
C193 C 0.93187 0.35128 0.10599 0.0
C194 C 0.95938 0.3907 0.13108 0.0
C195 C 0.95421 0.41499 0.11381 0.0
C196 C 0.93625 0.40778 0.0932 0.0
H197 H 0.06035 0.58223 0.07218 0.0
H198 H 0.04105 0.52684 0.07887 0.0
C199 C 0.92506 0.37618 0.08934 0.0
C200 C 0.97068 0.44665 0.11605 0.0
H201 H 0.95639 0.52925 0.11664 0.0
C202 C 0.00524 0.44645 0.11621 0.0
C203 C 0.95281 0.47675 0.11687 0.0
C204 C 0.9157 0.47825 0.11768 0.0
C205 C 0.02245 0.47573 0.11628 0.0
C206 C 0.00456 0.50584 0.11601 0.0
C207 C 0.97001 0.50604 0.11675 0.0
C208 C 0.02095 0.53751 0.11374 0.0
C209 C 0.05957 0.47426 0.11644 0.0
C210 C 0.01663 0.56155 0.13135 0.0
C211 C 0.02766 0.59318 0.1276 0.0
C212 C 0.04283 0.60135 0.10603 0.0
C213 C 0.04884 0.57667 0.089 0.0
C214 C 0.03788 0.545 0.09281 0.0
H215 H 0.06933 0.45023 0.12295 0.0
H216 H 0.06868 0.47773 0.09805 0.0
H217 H 0.06954 0.49398 0.12777 0.0
H218 H 0.00358 0.55618 0.1476 0.0
H219 H 0.02267 0.61163 0.14108 0.0
H220 H 0.35864 0.05016 0.90362 0.0
H221 H 0.41815 0.04003 0.90752 0.0
H222 H 0.41096 0.95312 0.86432 0.0
H223 H 0.3518 0.96327 0.85999 0.0
H224 H 0.45516 -0.01467 0.92491 0.0
H225 H 0.47849 0.00809 0.82928 0.0
H226 H 0.44002 0.01933 0.84347 0.0
H227 H 0.44829 0.97766 0.8344 0.0
C228 C 0.36976 0.02885 0.89502 0.0
C229 C 0.35068 0.00771 0.88126 0.0
C230 C 0.40367 0.02309 0.89731 0.0
C231 C 0.41887 -0.00384 0.88586 0.0
C232 C 0.39969 0.97439 0.87288 0.0
H233 H 0.61251 0.90694 0.90256 0.0
H234 H 0.55396 0.92202 0.9057 0.0
C235 C 0.36591 0.9802 0.87048 0.0
C236 C 0.45492 -0.00885 0.88685 0.0
H237 H 0.52272 -0.01586 0.85151 0.0
C238 C 0.47007 -0.01471 0.90893 0.0
C239 C 0.47422 -0.0083 0.86599 0.0
C240 C 0.45952 -0.00015 0.84197 0.0
C241 C 0.50411 0.97895 0.9106 0.0
C242 C 0.52314 0.97793 0.88956 0.0
C243 C 0.50802 -0.01534 0.8676 0.0
C244 C 0.55879 0.96978 0.88965 0.0
C245 C 0.51938 0.97374 0.93483 0.0
C246 C 0.58075 -0.00858 0.87927 0.0
C247 C 0.61397 -0.01736 0.87706 0.0
C248 C 0.62586 0.95208 0.88527 0.0
C249 C 0.60401 0.93071 0.89617 0.0
C250 C 0.57064 0.9394 0.89816 0.0
H251 H 0.50377 -0.01523 0.9491 0.0
H252 H 0.52196 0.94707 0.93833 0.0
H253 H 0.54419 -0.01561 0.93582 0.0
H254 H 0.57205 0.01493 0.87252 0.0
H255 H 0.63028 -0.00031 0.86871 0.0
H256 H 0.17351 0.02564 0.38556 0.0
H257 H 0.14877 0.06791 0.41111 0.0
H258 H 0.24361 0.0842 0.44316 0.0
H259 H 0.2679 0.0404 0.41863 0.0
H260 H 0.20288 0.07233 0.47562 0.0
H261 H 0.1417 0.16409 0.4177 0.0
H262 H 0.12839 0.12406 0.40984 0.0
H263 H 0.17106 0.13409 0.40626 0.0
C264 C 0.18921 0.03898 0.39755 0.0
C265 C 0.2225 0.02976 0.40031 0.0
C266 C 0.1751 0.06335 0.41206 0.0
C267 C 0.19433 0.07955 0.42899 0.0
C268 C 0.22824 0.07205 0.43029 0.0
H269 H 0.09843 0.21781 0.5288 0.0
H270 H 0.13225 0.19523 0.49636 0.0
C271 C 0.24212 0.0471 0.41627 0.0
C272 C 0.17837 0.09999 0.44777 0.0
H273 H 0.11881 0.15902 0.45755 0.0
C274 C 0.18501 0.09175 0.47158 0.0
C275 C 0.1553 0.12563 0.44269 0.0
C276 C 0.14902 0.13768 0.41771 0.0
C277 C 0.16822 0.10729 0.49033 0.0
C278 C 0.14309 0.13082 0.48514 0.0
C279 C 0.13757 0.1404 0.46146 0.0
C280 C 0.12161 0.14474 0.50406 0.0
C281 C 0.17755 0.09813 0.5155 0.0
C282 C 0.10381 0.12388 0.51872 0.0
C283 C 0.0849 0.1366 0.53741 0.0
C284 C 0.08285 0.17053 0.54147 0.0
C285 C 0.09961 0.19153 0.52615 0.0
C286 C 0.11891 0.17871 0.50761 0.0
H287 H 0.20351 0.08897 0.51658 0.0
H288 H 0.17437 0.11929 0.5278 0.0
H289 H 0.16167 0.07818 0.52165 0.0
H290 H 0.10474 0.09765 0.51583 0.0
H291 H 0.07189 0.11982 0.54866 0.0
H292 H 0.23255 0.8649 0.44399 0.0
H293 H 0.21209 0.833 0.47775 0.0
H294 H 0.11227 0.85882 0.45769 0.0
H295 H 0.1321 0.89024 0.42435 0.0
H296 H 0.17058 0.85802 0.5158 0.0
H297 H 0.11138 0.75867 0.4662 0.0
H298 H 0.14275 0.78356 0.45326 0.0
H299 H 0.10053 0.79812 0.4541 0.0
C300 C 0.20626 0.86337 0.44667 0.0
C301 C 0.18396 0.88012 0.43151 0.0
C302 C 0.19466 0.84525 0.46594 0.0
C303 C 0.16069 0.84323 0.46995 0.0
C304 C 0.13856 0.85957 0.45465 0.0
H305 H 0.0225 0.83944 0.57744 0.0
H306 H 0.07021 0.85009 0.55271 0.0
C307 C 0.15001 0.87775 0.43566 0.0
C308 C 0.14748 0.8259 0.49075 0.0
H309 H 0.0876 0.77252 0.50457 0.0
C310 C 0.15309 0.83867 0.51354 0.0
C311 C 0.1252 0.80025 0.48784 0.0
C312 C 0.11987 0.78411 0.46403 0.0
C313 C 0.13471 0.82844 0.53317 0.0
C314 C 0.10972 0.80542 0.52968 0.0
C315 C 0.10636 0.79055 0.50729 0.0
C316 C 0.08441 0.79897 0.54794 0.0
C317 C 0.1416 0.84313 0.55723 0.0
C318 C 0.07629 0.76671 0.55348 0.0
C319 C 0.04854 0.76055 0.5672 0.0
C320 C 0.02844 0.78656 0.57574 0.0
C321 C 0.03758 0.81888 0.57125 0.0
C322 C 0.06511 0.82501 0.55728 0.0
H323 H 0.16798 0.84919 0.55898 0.0
H324 H 0.12693 0.86628 0.55925 0.0
H325 H 0.13508 0.8263 0.57186 0.0
H326 H 0.09069 0.74623 0.54639 0.0
H327 H 0.04227 0.73535 0.57048 0.0
H328 H 0.72293 0.96074 0.44622 0.0
H329 H 0.74414 0.91249 0.46714 0.0
H330 H 0.78349 0.8734 0.40143 0.0
H331 H 0.76318 0.92245 0.38035 0.0
H332 H 0.73563 0.84655 0.46338 0.0
H333 H 0.86507 0.87789 0.44251 0.0
H334 H 0.83092 0.90575 0.43653 0.0
H335 H 0.83854 0.87094 0.41753 0.0
C336 C 0.73588 0.94181 0.43613 0.0
C337 C 0.74189 0.94562 0.41171 0.0
C338 C 0.74786 0.91414 0.44811 0.0
C339 C 0.76589 0.88964 0.43592 0.0
C340 C 0.77027 0.89239 0.41126 0.0
H341 H 0.88587 0.74815 0.51919 0.0
H342 H 0.85363 0.768 0.48493 0.0
C343 C 0.75855 0.92033 0.39924 0.0
C344 C 0.78191 0.86282 0.44974 0.0
H345 H 0.85718 0.83608 0.46994 0.0
C346 C 0.76221 0.84378 0.46448 0.0
C347 C 0.81662 0.85917 0.45109 0.0
C348 C 0.83914 0.87961 0.43623 0.0
C349 C 0.77631 0.82272 0.48156 0.0
C350 C 0.81089 0.82074 0.4839 0.0
C351 C 0.83062 0.83776 0.46799 0.0
C352 C 0.82697 0.80549 0.50482 0.0
C353 C 0.75417 0.80382 0.49769 0.0
C354 C 0.8225 0.82004 0.52723 0.0
C355 C 0.84111 0.80918 0.54666 0.0
C356 C 0.86445 0.78341 0.54405 0.0
C357 C 0.868 0.768 0.52175 0.0
C358 C 0.84962 0.77923 0.5022 0.0
H359 H 0.7296 0.80042 0.48949 0.0
H360 H 0.76534 0.77944 0.50205 0.0
H361 H 0.75056 0.81762 0.51456 0.0
H362 H 0.80554 0.84075 0.52948 0.0
H363 H 0.8377 0.82144 0.56361 0.0
H364 H 0.72883 0.12342 0.43937 0.0
H365 H 0.7465 0.16107 0.47088 0.0
H366 H 0.84694 0.12673 0.46153 0.0
H367 H 0.82989 0.08978 0.43033 0.0
H368 H 0.77807 0.14422 0.51354 0.0
H369 H 0.85599 0.22561 0.46156 0.0
H370 H 0.82549 0.20027 0.44782 0.0
H371 H 0.86605 0.18372 0.4545 0.0
C372 C 0.75472 0.12431 0.44385 0.0
C373 C 0.77795 0.1036 0.43233 0.0
C374 C 0.76473 0.14577 0.46183 0.0
C375 C 0.7981 0.14712 0.46819 0.0
C376 C 0.82119 0.12672 0.4565 0.0
H377 H 0.918 0.1488 0.58315 0.0
H378 H 0.87054 0.1441 0.55719 0.0
C379 C 0.81129 0.10532 0.43877 0.0
C380 C 0.80939 0.1676 0.4882 0.0
H381 H 0.87369 0.21546 0.50264 0.0
C382 C 0.79834 0.16064 0.51121 0.0
C383 C 0.83509 0.18981 0.48517 0.0
C384 C 0.84604 0.20056 0.46086 0.0
C385 C 0.81486 0.1724 0.53132 0.0
C386 C 0.84357 0.19078 0.5282 0.0
C387 C 0.85214 0.2008 0.5052 0.0
C388 C 0.86784 0.19549 0.54762 0.0
C389 C 0.80212 0.16388 0.55563 0.0
C390 C 0.88238 0.22594 0.55106 0.0
C391 C 0.91023 0.22853 0.56553 0.0
C392 C 0.92393 0.20071 0.57693 0.0
C393 C 0.90802 0.17075 0.57474 0.0
C394 C 0.88051 0.1681 0.56004 0.0
H395 H 0.7748 0.16347 0.55555 0.0
H396 H 0.8113 0.13896 0.56055 0.0
H397 H 0.81014 0.18152 0.56939 0.0
H398 H 0.87318 0.2474 0.54161 0.0
H399 H 0.92181 0.25202 0.56697 0.0
H400 H 0.73265 0.03421 0.89774 0.0
H401 H 0.7404 0.08643 0.91805 0.0
H402 H 0.84424 0.0799 0.90232 0.0
H403 H 0.83656 0.02839 0.88144 0.0
H404 H 0.77494 0.09243 0.95684 0.0
H405 H 0.8274 0.17517 0.89081 0.0
H406 H 0.80719 0.13809 0.88226 0.0
H407 H 0.85015 0.137 0.8905 0.0
C408 C 0.75702 0.04428 0.89815 0.0
C409 C 0.78405 0.02704 0.88809 0.0
C410 C 0.76137 0.07419 0.9097 0.0
C411 C 0.79279 0.08742 0.91142 0.0
C412 C 0.81957 0.0708 0.90062 0.0
H413 H 0.91953 0.16737 0.00264 0.0
H414 H 0.88654 0.14859 0.96938 0.0
C415 C 0.8152 0.04108 0.88888 0.0
C416 C 0.79875 0.11563 0.92738 0.0
H417 H 0.8455 0.18344 0.93226 0.0
C418 C 0.78938 0.113 0.95131 0.0
C419 C 0.8173 0.14267 0.92016 0.0
C420 C 0.82572 0.14854 0.89445 0.0
C421 C 0.80093 0.13469 0.96858 0.0
C422 C 0.82226 0.15967 0.96167 0.0
C423 C 0.82924 0.16412 0.93749 0.0
C424 C 0.84266 0.17631 0.97952 0.0
C425 C 0.7927 0.12896 -0.00562 0.0
C426 C 0.82911 0.19898 -0.00416 0.0
C427 C 0.8481 0.20997 0.01497 0.0
C428 C 0.88059 0.19797 0.01806 0.0
C429 C 0.89442 0.17671 0.00089 0.0
C430 C 0.87569 0.16613 -0.01823 0.0
H431 H 0.77675 0.10758 -0.00317 0.0
H432 H 0.81566 0.12482 0.00482 0.0
H433 H 0.77976 0.15098 0.00177 0.0
H434 H 0.80362 0.20712 -0.00572 0.0
H435 H 0.8369 0.2264 0.02796 0.0
H436 H 0.12525 0.09283 0.90528 0.0
H437 H 0.10246 0.12264 0.93935 0.0
H438 H 0.19414 0.10865 0.97721 0.0
H439 H 0.21748 0.07899 0.94301 0.0
H440 H 0.09632 0.09753 -0.01414 0.0
H441 H 0.17314 0.20827 -0.01674 0.0
H442 H 0.1697 0.18088 0.95817 0.0
H443 H 0.19452 0.16911 -0.01668 0.0
C444 C 0.14071 0.09618 0.92077 0.0
C445 C 0.1732 0.0835 0.9214 0.0
C446 C 0.12762 0.11322 0.94022 0.0
C447 C 0.14673 0.11803 0.96067 0.0
C448 C 0.1792 0.10559 0.96142 0.0
H449 H 0.03613 0.18677 0.08606 0.0
H450 H 0.08004 0.15836 0.06367 0.0
C451 C 0.19239 0.08852 0.94191 0.0
C452 C 0.13182 0.1351 -0.01865 0.0
H453 H 0.13221 0.20668 0.01277 0.0
C454 C 0.10438 0.1212 -0.00799 0.0
C455 C 0.1425 0.16596 -0.01083 0.0
C456 C 0.17144 0.18219 0.97787 0.0
C457 C 0.08636 0.13795 0.00965 0.0
C458 C 0.09656 0.16919 0.01716 0.0
C459 C 0.12477 0.18258 0.00713 0.0
C460 C 0.0756 0.18989 0.03289 0.0
C461 C 0.05546 0.12292 0.01906 0.0
C462 C 0.06014 0.21814 0.02355 0.0
C463 C 0.03533 0.23452 0.0363 0.0
C464 C 0.02552 0.22283 0.05861 0.0
C465 C 0.04294 0.19613 0.0688 0.0
C466 C 0.06791 0.17981 0.05602 0.0
H467 H 0.04805 0.10142 0.00837 0.0
H468 H 0.05973 0.11464 0.03762 0.0
H469 H 0.03471 0.14118 0.01916 0.0
H470 H 0.06586 0.22638 0.00576 0.0
H471 H 0.02263 0.25525 0.02809 0.0
H472 H 0.04278 0.77817 0.00107 0.0
H473 H 0.07261 0.80166 0.96795 0.0
H474 H 0.16381 0.76072 -0.00439 0.0
H475 H 0.1337 0.73638 0.02886 0.0
H476 H 0.12276 0.84722 -0.01776 0.0
H477 H 0.16928 0.74994 0.9202 0.0
H478 H 0.13329 0.74448 0.93847 0.0
H479 H 0.17336 0.74359 0.95182 0.0
C480 C 0.06907 0.77337 -0.00025 0.0
C481 C 0.08605 0.7558 0.01759 0.0
C482 C 0.08604 0.78668 0.98079 0.0
C483 C 0.12035 0.78293 0.97939 0.0
C484 C 0.13725 0.76349 -0.00374 0.0
H485 H 0.23685 0.92616 0.90531 0.0
H486 H 0.22341 0.87864 0.92943 0.0
C487 C 0.12009 0.74969 0.01522 0.0
C488 C 0.13815 0.80404 0.96277 0.0
H489 H 0.18087 0.80481 0.9105 0.0
C490 C 0.13575 0.83794 0.96668 0.0
C491 C 0.15506 0.79171 0.94258 0.0
C492 C 0.15797 0.75545 0.93779 0.0
C493 C 0.14897 0.85998 0.95056 0.0
C494 C 0.16514 0.8478 0.93006 0.0
C495 C 0.16843 0.81388 0.92634 0.0
C496 C 0.1769 0.87071 0.91195 0.0
C497 C 0.14474 0.8963 0.95513 0.0
C498 C 0.15553 0.88118 0.89374 0.0
C499 C 0.16292 0.90849 0.88005 0.0
C500 C 0.1918 0.92575 0.88444 0.0
C501 C 0.21431 0.91358 0.90155 0.0
C502 C 0.20682 0.88632 0.91527 0.0
H503 H 0.13102 0.90173 0.97181 0.0
H504 H 0.16925 0.90754 0.95635 0.0
H505 H 0.1313 0.90808 0.94007 0.0
H506 H 0.13217 0.8695 0.89114 0.0
H507 H 0.14516 0.91705 0.86692 0.0
H508 H 0.75093 0.86969 0.94802 0.0
H509 H 0.77157 0.84077 -0.01655 0.0
H510 H 0.86846 0.83405 0.95246 0.0
H511 H 0.84834 0.86284 0.91719 0.0
H512 H 0.80452 0.77691 -0.01352 0.0
H513 H 0.88206 0.87725 0.01861 0.0
H514 H 0.84908 0.88372 -0.00261 0.0
H515 H 0.88858 0.86785 -0.01226 0.0
C516 C 0.77665 0.86208 0.94876 0.0
C517 C 0.79805 0.86878 0.92982 0.0
C518 C 0.78833 0.84556 0.96899 0.0
C519 C 0.82159 0.83583 0.97065 0.0
C520 C 0.84281 0.84194 0.95165 0.0
H521 H 0.94574 0.69736 0.03206 0.0
H522 H 0.89973 0.72528 0.0123 0.0
C523 C 0.83121 0.85828 0.93145 0.0
C524 C 0.83461 0.81888 -0.00802 0.0
H525 H 0.89649 0.82318 0.03267 0.0
C526 C 0.82416 0.78719 -0.00302 0.0
C527 C 0.85961 0.83267 0.00597 0.0
C528 C 0.87028 0.86739 0.00235 0.0
C529 C 0.84004 0.76791 0.01441 0.0
C530 C 0.86726 0.78061 0.02677 0.0
C531 C 0.87581 0.81327 0.02307 0.0
C532 C 0.89005 0.75962 0.04102 0.0
C533 C 0.82815 0.73384 0.01891 0.0
C534 C 0.8998 0.76936 0.06389 0.0
C535 C 0.92656 0.75364 0.07511 0.0
C536 C 0.94407 0.72809 0.06355 0.0
C537 C 0.93284 0.71698 0.04138 0.0
C538 C 0.90623 0.73275 0.03017 0.0
H539 H 0.80124 0.73255 0.01565 0.0
H540 H 0.84066 0.7165 0.00644 0.0
H541 H 0.83351 0.72578 0.0374 0.0
H542 H 0.88778 0.79015 0.0725 0.0
H543 H 0.93461 0.76269 0.09227 0.0
H544 H 0.04455 0.21725 0.68175 0.0
H545 H 0.07599 0.19623 0.71588 0.0
H546 H 0.16387 0.19124 0.6729 0.0
H547 H 0.13296 0.21379 0.6392 0.0
H548 H 0.1038 0.13934 0.72002 0.0
H549 H 0.20105 0.22988 0.73152 0.0
H550 H 0.16575 0.23746 0.71262 0.0
H551 H 0.20092 0.21412 0.70176 0.0
C552 C 0.07071 0.21221 0.67976 0.0
C553 C 0.08635 0.21718 0.65789 0.0
C554 C 0.08865 0.20022 0.69924 0.0
C555 C 0.12245 0.19258 0.6971 0.0
C556 C 0.13812 0.19789 0.67527 0.0
H557 H 0.21994 0.04378 0.78312 0.0
H558 H 0.19487 0.07613 0.75097 0.0
C559 C 0.12033 0.2105 0.65594 0.0
C560 C 0.14048 0.1762 0.71692 0.0
H561 H 0.21129 0.17724 0.7497 0.0
C562 C 0.12712 0.1479 0.72667 0.0
C563 C 0.17073 0.18752 0.72586 0.0
C564 C 0.18523 0.21912 0.71755 0.0
C565 C 0.14338 0.13026 0.74471 0.0
C566 C 0.17463 0.14037 0.75256 0.0
C567 C 0.18767 0.16912 0.7433 0.0
C568 C 0.19366 0.1217 0.77076 0.0
C569 C 0.12651 0.10132 0.75544 0.0
C570 C 0.20334 0.13703 0.79192 0.0
C571 C 0.21845 0.11875 0.81006 0.0
C572 C 0.22379 0.08479 0.8074 0.0
C573 C 0.21567 0.06983 0.78575 0.0
C574 C 0.20112 0.08823 0.76746 0.0
H575 H 0.0994 0.10317 0.75291 0.0
H576 H 0.13549 0.07853 0.74653 0.0
H577 H 0.13175 0.09921 0.77477 0.0
H578 H 0.19808 0.16289 0.79475 0.0
H579 H 0.22453 0.13094 0.82656 0.0
H580 H 0.08801 0.82451 0.13923 0.0
H581 H 0.12195 0.83934 0.17308 0.0
H582 H 0.14819 0.73758 0.18458 0.0
H583 H 0.11388 0.72231 0.15062 0.0
H584 H 0.12438 0.7688 0.22474 0.0
H585 H 0.221 0.84248 0.18389 0.0
H586 H 0.18085 0.85539 0.17372 0.0
H587 H 0.19629 0.81471 0.16685 0.0
C588 C 0.10129 0.80523 0.14871 0.0
C589 C 0.09808 0.7722 0.14229 0.0
C590 C 0.121 0.81381 0.16793 0.0
C591 C 0.13804 0.78961 0.18107 0.0
C592 C 0.1355 0.75663 0.17446 0.0
H593 H 0.24288 0.86975 0.30505 0.0
H594 H 0.23386 0.83487 0.27016 0.0
C595 C 0.11586 0.74798 0.1551 0.0
C596 C 0.15518 0.79891 0.2032 0.0
H597 H 0.20763 0.8554 0.22514 0.0
C598 C 0.14321 0.78711 0.22484 0.0
C599 C 0.18013 0.82237 0.20333 0.0
C600 C 0.19556 0.83419 0.18066 0.0
C601 C 0.15345 0.80031 0.24657 0.0
C602 C 0.17585 0.82616 0.24654 0.0
C603 C 0.19004 0.83591 0.22507 0.0
C604 C 0.1816 0.84597 0.26809 0.0
C605 C 0.13915 0.78745 0.26934 0.0
C606 C 0.15528 0.86403 0.27813 0.0
C607 C 0.16031 0.88406 0.29782 0.0
C608 C 0.19184 0.88647 0.30789 0.0
C609 C 0.21827 0.86835 0.29776 0.0
C610 C 0.2132 0.84841 0.27788 0.0
H611 H 0.13117 0.76182 0.26719 0.0
H612 H 0.15724 0.78843 0.28414 0.0
H613 H 0.11722 0.80276 0.27428 0.0
H614 H 0.13083 0.86299 0.27049 0.0
H615 H 0.13941 0.89766 0.30512 0.0
H616 H 0.83832 0.71275 0.64991 0.0
H617 H 0.80466 0.73182 0.68357 0.0
H618 H 0.88615 0.78663 0.7102 0.0
H619 H 0.92001 0.76758 0.67682 0.0
H620 H 0.85055 0.75125 0.74563 0.0
H621 H 0.76959 0.82839 0.68701 0.0
H622 H 0.77408 0.78567 0.67951 0.0
H623 H 0.80882 0.81163 0.67717 0.0
C624 C 0.84917 0.72858 0.66308 0.0
C625 C 0.88172 0.73893 0.66062 0.0
C626 C 0.82987 0.73952 0.68221 0.0
C627 C 0.84284 0.76095 0.69911 0.0
C628 C 0.87572 0.77015 0.69725 0.0
H629 H 0.77357 0.90742 0.79364 0.0
H630 H 0.79422 0.87306 0.76103 0.0
C631 C 0.895 0.7593 0.67816 0.0
C632 C 0.822 0.77525 0.71817 0.0
H633 H 0.76011 0.83176 0.72815 0.0
C634 C 0.83045 0.7685 0.74189 0.0
C635 C 0.79601 0.7979 0.71307 0.0
C636 C 0.78657 0.80662 0.68785 0.0
C637 C 0.81419 0.78461 0.76073 0.0
C638 C 0.78869 0.80779 0.75561 0.0
C639 C 0.77956 0.81379 0.73192 0.0
C640 C 0.77362 0.82848 0.77445 0.0
C641 C 0.82546 0.77792 0.78589 0.0
C642 C 0.75454 0.81484 0.79245 0.0
C643 C 0.74267 0.83443 0.81115 0.0
C644 C 0.74975 0.86794 0.81206 0.0
C645 C 0.76783 0.88168 0.7935 0.0
C646 C 0.7796 0.86212 0.77484 0.0
H647 H 0.84884 0.7632 0.78651 0.0
H648 H 0.829 0.80126 0.79562 0.0
H649 H 0.80632 0.76419 0.79537 0.0
H650 H 0.74932 0.78898 0.79224 0.0
H651 H 0.72866 0.82318 0.82514 0.0
H652 H 0.82916 0.06607 0.3094 0.0
H653 H 0.83947 0.09727 0.27346 0.0
H654 H 0.73697 0.12699 0.2699 0.0
H655 H 0.7262 0.09565 0.30613 0.0
H656 H 0.76537 0.10204 0.22606 0.0
H657 H 0.84005 0.19856 0.26697 0.0
H658 H 0.85299 0.15805 0.27596 0.0
H659 H 0.81267 0.17359 0.284 0.0
C660 C 0.80872 0.07924 0.30108 0.0
C661 C 0.77684 0.0784 0.31068 0.0
C662 C 0.81474 0.09726 0.28063 0.0
C663 C 0.78908 0.11483 0.26934 0.0
C664 C 0.75711 0.11381 0.27857 0.0
H665 H 0.85919 0.23183 0.14968 0.0
H666 H 0.82495 0.21774 0.18378 0.0
C667 C 0.75105 0.09589 0.29922 0.0
C668 C 0.796 0.13293 0.24729 0.0
H669 H 0.84822 0.18901 0.22502 0.0
C670 C 0.78291 0.12158 0.2258 0.0
C671 C 0.81836 0.1588 0.24708 0.0
C672 C 0.83159 0.17323 0.26977 0.0
C673 C 0.79374 0.13368 0.20392 0.0
C674 C 0.81852 0.15732 0.20369 0.0
C675 C 0.82952 0.17057 0.22523 0.0
C676 C 0.83615 0.16574 0.18166 0.0
C677 C 0.77938 0.12027 0.18127 0.0
C678 C 0.85385 0.14117 0.1693 0.0
C679 C 0.87351 0.14909 0.14998 0.0
C680 C 0.87602 0.18182 0.14268 0.0
C681 C 0.85778 0.20638 0.15484 0.0
C682 C 0.83816 0.1984 0.17428 0.0
H683 H 0.75399 0.1117 0.18415 0.0
H684 H 0.77884 0.13893 0.16693 0.0
H685 H 0.79471 0.09896 0.17522 0.0
H686 H 0.85331 0.11591 0.17508 0.0
H687 H 0.88719 0.12956 0.14104 0.0
loop_
_geom_bond_atom_site_label_1
_geom_bond_atom_site_label_2
_geom_bond_distance
_geom_bond_site_symmetry_2
_ccdc_geom_bond_type
C0 O1 1.306 . S
C0 O3 1.160 . S
O1 C0 1.306 . S
O1 Cd2 2.228 . S
Cd2 O1 2.228 . S
Cd2 O6 2.273 . S
Cd2 O10 2.277 . S
O3 C0 1.160 . S
O3 Cd4 2.203 . S
Cd4 O3 2.203 . S
Cd4 O6 2.411 . S
Cd4 O7 2.333 . S
Cd4 O8 2.352 . S
Cd4 O12 2.277 . S
Cd4 O13 2.356 . S
C5 O10 1.209 . S
C5 O12 1.226 . S
O6 Cd2 2.273 . S
O6 Cd4 2.411 . S
O6 C9 1.320 . S
O7 Cd4 2.333 . S
O7 C9 1.214 . S
O8 Cd4 2.352 . S
O8 C11 1.258 . S
C9 O6 1.320 . S
C9 O7 1.214 . S
O10 Cd2 2.277 . S
O10 C5 1.209 . S
C11 O8 1.258 . S
C11 O13 1.282 . S
O12 Cd4 2.277 . S
O12 C5 1.226 . S
O13 Cd4 2.356 . S
O13 C11 1.282 . S
C14 O15 1.306 . S
C14 O17 1.160 . S
O15 C14 1.306 . S
O15 Cd16 2.228 . S
Cd16 O15 2.228 . S
Cd16 O20 2.273 . S
Cd16 O24 2.277 . S
O17 C14 1.160 . S
O17 Cd18 2.203 . S
Cd18 O17 2.203 . S
Cd18 O20 2.411 . S
Cd18 O21 2.333 . S
Cd18 O22 2.352 . S
Cd18 O26 2.277 . S
Cd18 O27 2.356 . S
C19 O24 1.209 . S
C19 O26 1.226 . S
O20 Cd16 2.273 . S
O20 Cd18 2.411 . S
O20 C23 1.320 . S
O21 Cd18 2.333 . S
O21 C23 1.214 . S
O22 Cd18 2.352 . S
O22 C25 1.258 . S
C23 O20 1.320 . S
C23 O21 1.214 . S
O24 Cd16 2.277 . S
O24 C19 1.209 . S
C25 O22 1.258 . S
C25 O27 1.282 . S
O26 Cd18 2.277 . S
O26 C19 1.226 . S
O27 Cd18 2.356 . S
O27 C25 1.282 . S
C28 O29 1.306 . S
C28 O31 1.160 . S
O29 C28 1.306 . S
O29 Cd30 2.228 . S
Cd30 O29 2.228 . S
Cd30 O34 2.273 . S
Cd30 O38 2.277 . S
O31 C28 1.160 . S
O31 Cd32 2.203 . S
Cd32 O31 2.203 . S
Cd32 O34 2.411 . S
Cd32 O35 2.333 . S
Cd32 O36 2.352 . S
Cd32 O40 2.277 . S
Cd32 O41 2.356 . S
C33 O38 1.209 . S
C33 O40 1.226 . S
O34 Cd30 2.273 . S
O34 Cd32 2.411 . S
O34 C37 1.320 . S
O35 Cd32 2.333 . S
O35 C37 1.214 . S
O36 Cd32 2.352 . S
O36 C39 1.258 . S
C37 O34 1.320 . S
C37 O35 1.214 . S
O38 Cd30 2.277 . S
O38 C33 1.209 . S
C39 O36 1.258 . S
C39 O41 1.282 . S
O40 Cd32 2.277 . S
O40 C33 1.226 . S
O41 Cd32 2.356 . S
O41 C39 1.282 . S
C42 O43 1.306 . S
C42 O45 1.160 . S
O43 C42 1.306 . S
O43 Cd44 2.228 . S
Cd44 O43 2.228 . S
Cd44 O48 2.273 . S
Cd44 O52 2.277 . S
O45 C42 1.160 . S
O45 Cd46 2.203 . S
Cd46 O45 2.203 . S
Cd46 O48 2.411 . S
Cd46 O49 2.333 . S
Cd46 O50 2.352 . S
Cd46 O54 2.277 . S
Cd46 O55 2.356 . S
C47 O52 1.209 . S
C47 O54 1.226 . S
O48 Cd44 2.273 . S
O48 Cd46 2.411 . S
O48 C51 1.320 . S
O49 Cd46 2.333 . S
O49 C51 1.214 . S
O50 Cd46 2.352 . S
O50 C53 1.258 . S
C51 O48 1.320 . S
C51 O49 1.214 . S
O52 Cd44 2.277 . S
O52 C47 1.209 . S
C53 O50 1.258 . S
C53 O55 1.282 . S
O54 Cd46 2.277 . S
O54 C47 1.226 . S
O55 Cd46 2.356 . S
O55 C53 1.282 . S
C56 O57 1.306 . S
C56 O59 1.160 . S
O57 C56 1.306 . S
O57 Cd58 2.228 . S
Cd58 O57 2.228 . S
Cd58 O62 2.273 . S
Cd58 O66 2.277 . S
O59 C56 1.160 . S
O59 Cd60 2.203 . S
Cd60 O59 2.203 . S
Cd60 O62 2.411 . S
Cd60 O63 2.333 . S
Cd60 O64 2.352 . S
Cd60 O68 2.277 . S
Cd60 O69 2.356 . S
C61 O66 1.209 . S
C61 O68 1.226 . S
O62 Cd58 2.273 . S
O62 Cd60 2.411 . S
O62 C65 1.320 . S
O63 Cd60 2.333 . S
O63 C65 1.214 . S
O64 Cd60 2.352 . S
O64 C67 1.258 . S
C65 O62 1.320 . S
C65 O63 1.214 . S
O66 Cd58 2.277 . S
O66 C61 1.209 . S
C67 O64 1.258 . S
C67 O69 1.282 . S
O68 Cd60 2.277 . S
O68 C61 1.226 . S
O69 Cd60 2.356 . S
O69 C67 1.282 . S
C70 O71 1.306 . S
C70 O73 1.160 . S
O71 C70 1.306 . S
O71 Cd72 2.228 . S
Cd72 O71 2.228 . S
Cd72 O76 2.273 . S
Cd72 O80 2.277 . S
O73 C70 1.160 . S
O73 Cd74 2.203 . S
Cd74 O73 2.203 . S
Cd74 O76 2.411 . S
Cd74 O77 2.333 . S
Cd74 O78 2.352 . S
Cd74 O82 2.277 . S
Cd74 O83 2.356 . S
C75 O80 1.209 . S
C75 O82 1.226 . S
O76 Cd72 2.273 . S
O76 Cd74 2.411 . S
O76 C79 1.320 . S
O77 Cd74 2.333 . S
O77 C79 1.214 . S
O78 Cd74 2.352 . S
O78 C81 1.258 . S
C79 O76 1.320 . S
C79 O77 1.214 . S
O80 Cd72 2.277 . S
O80 C75 1.209 . S
C81 O78 1.258 . S
C81 O83 1.282 . S
O82 Cd74 2.277 . S
O82 C75 1.226 . S
O83 Cd74 2.356 . S
O83 C81 1.282 . S
C84 O85 1.306 . S
C84 O87 1.160 . S
O85 C84 1.306 . S
O85 Cd86 2.228 . S
Cd86 O85 2.228 . S
Cd86 O90 2.273 . S
Cd86 O94 2.277 . S
O87 C84 1.160 . S
O87 Cd88 2.203 . S
Cd88 O87 2.203 . S
Cd88 O90 2.411 . S
Cd88 O91 2.333 . S
Cd88 O92 2.352 . S
Cd88 O96 2.277 . S
Cd88 O97 2.356 . S
C89 O94 1.209 . S
C89 O96 1.226 . S
O90 Cd86 2.273 . S
O90 Cd88 2.411 . S
O90 C93 1.320 . S
O91 Cd88 2.333 . S
O91 C93 1.214 . S
O92 Cd88 2.352 . S
O92 C95 1.258 . S
C93 O90 1.320 . S
C93 O91 1.214 . S
O94 Cd86 2.277 . S
O94 C89 1.209 . S
C95 O92 1.258 . S
C95 O97 1.282 . S
O96 Cd88 2.277 . S
O96 C89 1.226 . S
O97 Cd88 2.356 . S
O97 C95 1.282 . S
C98 O99 1.306 . S
C98 O101 1.160 . S
O99 C98 1.306 . S
O99 Cd100 2.228 . S
Cd100 O99 2.228 . S
Cd100 O104 2.273 . S
Cd100 O108 2.277 . S
O101 C98 1.160 . S
O101 Cd102 2.203 . S
Cd102 O101 2.203 . S
Cd102 O104 2.411 . S
Cd102 O105 2.333 . S
Cd102 O106 2.352 . S
Cd102 O110 2.277 . S
Cd102 O111 2.356 . S
C103 O108 1.209 . S
C103 O110 1.226 . S
O104 Cd100 2.273 . S
O104 Cd102 2.411 . S
O104 C107 1.320 . S
O105 Cd102 2.333 . S
O105 C107 1.214 . S
O106 Cd102 2.352 . S
O106 C109 1.258 . S
C107 O104 1.320 . S
C107 O105 1.214 . S
O108 Cd100 2.277 . S
O108 C103 1.209 . S
C109 O106 1.258 . S
C109 O111 1.282 . S
O110 Cd102 2.277 . S
O110 C103 1.226 . S
O111 Cd102 2.356 . S
O111 C109 1.282 . S
H112 C120 0.929 . S
H113 C122 0.930 1_455 S
H114 C124 0.930 . S
H115 C127 0.929 . S
H116 C130 0.930 . S
H117 C132 0.960 . S
H118 C132 0.960 . S
H119 C132 0.960 . S
C120 H112 0.929 . S
C120 C121 1.377 . S
C120 C122 1.384 . S
C121 C120 1.377 . S
C121 C127 1.390 . S
C122 H113 0.930 1_655 S
C122 C120 1.384 . S
C122 C123 1.372 . S
C123 C122 1.372 . S
C123 C124 1.400 . S
C123 C128 1.490 . S
C124 H114 0.930 . S
C124 C123 1.400 . S
C124 C127 1.386 . S
H125 C141 0.930 . S
H126 C142 0.931 . S
C127 H115 0.929 . S
C127 C121 1.390 . S
C127 C124 1.386 . S
C128 C123 1.490 . S
C128 C130 1.395 1_655 S
C128 C131 1.403 . S
H129 C135 0.930 . S
C130 H116 0.930 . S
C130 C128 1.395 1_455 S
C130 C133 1.403 . S
C131 C128 1.403 . S
C131 C132 1.524 . S
C131 C135 1.400 . S
C132 H117 0.960 . S
C132 H118 0.960 . S
C132 H119 0.960 . S
C132 C131 1.524 . S
C133 C130 1.403 . S
C133 C134 1.392 . S
C133 C137 1.495 . S
C134 C133 1.392 . S
C134 C135 1.385 1_455 S
C134 C136 1.478 . S
C135 H129 0.930 . S
C135 C131 1.400 . S
C135 C134 1.385 1_655 S
C136 C134 1.478 . S
C136 C138 1.381 . S
C136 C142 1.383 . S
C137 C133 1.495 . S
C137 H143 0.959 . S
C137 H144 0.961 . S
C137 H145 0.960 . S
C138 C136 1.381 . S
C138 C139 1.394 . S
C138 H146 0.930 . S
C139 C138 1.394 . S
C139 C140 1.383 . S
C139 H147 0.929 . S
C140 C139 1.383 . S
C140 C141 1.377 . S
C141 H125 0.930 . S
C141 C140 1.377 . S
C141 C142 1.379 . S
C142 H126 0.931 . S
C142 C136 1.383 . S
C142 C141 1.379 . S
H143 C137 0.959 . S
H144 C137 0.961 . S
H145 C137 0.960 . S
H146 C138 0.930 . S
H147 C139 0.929 . S
H148 C156 0.929 . S
H149 C158 0.930 . S
H150 C160 0.930 . S
H151 C163 0.929 . S
H152 C166 0.930 . S
H153 C168 0.960 . S
H154 C168 0.960 . S
H155 C168 0.960 . S
C156 H148 0.929 . S
C156 C157 1.377 . S
C156 C158 1.384 . S
C157 C156 1.377 . S
C157 C163 1.390 . S
C158 H149 0.930 . S
C158 C156 1.384 . S
C158 C159 1.372 . S
C159 C158 1.372 . S
C159 C160 1.400 . S
C159 C164 1.490 . S
C160 H150 0.930 . S
C160 C159 1.400 . S
C160 C163 1.386 . S
H161 C177 0.930 . S
H162 C178 0.931 . S
C163 H151 0.929 . S
C163 C157 1.390 . S
C163 C160 1.386 . S
C164 C159 1.490 . S
C164 C166 1.395 1_545 S
C164 C167 1.403 . S
H165 C171 0.930 . S
C166 H152 0.930 . S
C166 C164 1.395 1_565 S
C166 C169 1.403 . S
C167 C164 1.403 . S
C167 C168 1.524 . S
C167 C171 1.400 . S
C168 H153 0.960 . S
C168 H154 0.960 . S
C168 H155 0.960 . S
C168 C167 1.524 . S
C169 C166 1.403 . S
C169 C170 1.392 . S
C169 C173 1.495 . S
C170 C169 1.392 . S
C170 C171 1.385 1_565 S
C170 C172 1.478 . S
C171 H165 0.930 . S
C171 C167 1.400 . S
C171 C170 1.385 1_545 S
C172 C170 1.478 . S
C172 C174 1.381 . S
C172 C178 1.383 . S
C173 C169 1.495 . S
C173 H179 0.959 . S
C173 H180 0.961 . S
C173 H181 0.960 . S
C174 C172 1.381 . S
C174 C175 1.394 . S
C174 H182 0.930 . S
C175 C174 1.394 . S
C175 C176 1.383 . S
C175 H183 0.929 . S
C176 C175 1.383 . S
C176 C177 1.377 . S
C177 H161 0.930 . S
C177 C176 1.377 . S
C177 C178 1.379 . S
C178 H162 0.931 . S
C178 C172 1.383 . S
C178 C177 1.379 . S
H179 C173 0.959 . S
H180 C173 0.961 . S
H181 C173 0.960 . S
H182 C174 0.930 . S
H183 C175 0.929 . S
H184 C192 0.929 . S
H185 C194 0.930 . S
H186 C196 0.930 . S
H187 C199 0.929 . S
H188 C202 0.930 . S
H189 C204 0.960 . S
H190 C204 0.960 . S
H191 C204 0.960 . S
C192 H184 0.929 . S
C192 C193 1.377 . S
C192 C194 1.384 . S
C193 C192 1.377 . S
C193 C199 1.390 . S
C194 H185 0.930 . S
C194 C192 1.384 . S
C194 C195 1.372 . S
C195 C194 1.372 . S
C195 C196 1.400 . S
C195 C200 1.490 . S
C196 H186 0.930 . S
C196 C195 1.400 . S
C196 C199 1.386 . S
H197 C213 0.930 . S
H198 C214 0.931 . S
C199 H187 0.929 . S
C199 C193 1.390 . S
C199 C196 1.386 . S
C200 C195 1.490 . S
C200 C202 1.395 1_655 S
C200 C203 1.403 . S
H201 C207 0.930 . S
C202 H188 0.930 . S
C202 C200 1.395 1_455 S
C202 C205 1.403 . S
C203 C200 1.403 . S
C203 C204 1.524 . S
C203 C207 1.400 . S
C204 H189 0.960 . S
C204 H190 0.960 . S
C204 H191 0.960 . S
C204 C203 1.524 . S
C205 C202 1.403 . S
C205 C206 1.392 . S
C205 C209 1.495 . S
C206 C205 1.392 . S
C206 C207 1.385 1_455 S
C206 C208 1.478 . S
C207 H201 0.930 . S
C207 C203 1.400 . S
C207 C206 1.385 1_655 S
C208 C206 1.478 . S
C208 C210 1.381 . S
C208 C214 1.383 . S
C209 C205 1.495 . S
C209 H215 0.959 . S
C209 H216 0.961 . S
C209 H217 0.960 . S
C210 C208 1.381 . S
C210 C211 1.394 . S
C210 H218 0.930 . S
C211 C210 1.394 . S
C211 C212 1.383 . S
C211 H219 0.929 . S
C212 C211 1.383 . S
C212 C213 1.377 . S
C213 H197 0.930 . S
C213 C212 1.377 . S
C213 C214 1.379 . S
C214 H198 0.931 . S
C214 C208 1.383 . S
C214 C213 1.379 . S
H215 C209 0.959 . S
H216 C209 0.961 . S
H217 C209 0.960 . S
H218 C210 0.930 . S
H219 C211 0.929 . S
H220 C228 0.929 . S
H221 C230 0.930 . S
H222 C232 0.930 . S
H223 C235 0.929 . S
H224 C238 0.930 . S
H225 C240 0.960 . S
H226 C240 0.960 . S
H227 C240 0.960 . S
C228 H220 0.929 . S
C228 C229 1.377 . S
C228 C230 1.384 . S
C229 C228 1.377 . S
C229 C235 1.390 . S
C230 H221 0.930 . S
C230 C228 1.384 . S
C230 C231 1.372 . S
C231 C230 1.372 . S
C231 C232 1.400 . S
C231 C236 1.490 . S
C232 H222 0.930 . S
C232 C231 1.400 . S
C232 C235 1.386 . S
H233 C249 0.930 . S
H234 C250 0.931 . S
C235 H223 0.929 . S
C235 C229 1.390 . S
C235 C232 1.386 . S
C236 C231 1.490 . S
C236 C238 1.395 1_545 S
C236 C239 1.403 . S
H237 C243 0.930 . S
C238 H224 0.930 . S
C238 C236 1.395 1_565 S
C238 C241 1.403 . S
C239 C236 1.403 . S
C239 C240 1.524 . S
C239 C243 1.400 . S
C240 H225 0.960 . S
C240 H226 0.960 . S
C240 H227 0.960 . S
C240 C239 1.524 . S
C241 C238 1.403 . S
C241 C242 1.392 . S
C241 C245 1.495 . S
C242 C241 1.392 . S
C242 C243 1.385 1_565 S
C242 C244 1.478 . S
C243 H237 0.930 . S
C243 C239 1.400 . S
C243 C242 1.385 1_545 S
C244 C242 1.478 . S
C244 C246 1.381 . S
C244 C250 1.383 . S
C245 C241 1.495 . S
C245 H251 0.959 . S
C245 H252 0.961 . S
C245 H253 0.960 . S
C246 C244 1.381 . S
C246 C247 1.394 . S
C246 H254 0.930 . S
C247 C246 1.394 . S
C247 C248 1.383 . S
C247 H255 0.929 . S
C248 C247 1.383 . S
C248 C249 1.377 . S
C249 H233 0.930 . S
C249 C248 1.377 . S
C249 C250 1.379 . S
C250 H234 0.931 . S
C250 C244 1.383 . S
C250 C249 1.379 . S
H251 C245 0.959 . S
H252 C245 0.961 . S
H253 C245 0.960 . S
H254 C246 0.930 . S
H255 C247 0.929 . S
H256 C264 0.929 . S
H257 C266 0.930 . S
H258 C268 0.930 . S
H259 C271 0.929 1_565 S
H260 C274 0.930 . S
H261 C276 0.960 . S
H262 C276 0.960 . S
H263 C276 0.960 . S
C264 H256 0.929 . S
C264 C265 1.377 . S
C264 C266 1.384 1_565 S
C265 C264 1.377 . S
C265 C271 1.390 1_565 S
C266 H257 0.930 . S
C266 C264 1.384 1_545 S
C266 C267 1.372 . S
C267 C266 1.372 . S
C267 C268 1.400 . S
C267 C272 1.490 . S
C268 H258 0.930 . S
C268 C267 1.400 . S
C268 C271 1.386 . S
H269 C285 0.930 . S
H270 C286 0.931 . S
C271 H259 0.929 1_545 S
C271 C265 1.390 1_545 S
C271 C268 1.386 . S
C272 C267 1.490 . S
C272 C274 1.395 . S
C272 C275 1.403 . S
H273 C279 0.930 . S
C274 H260 0.930 . S
C274 C272 1.395 . S
C274 C277 1.403 . S
C275 C272 1.403 . S
C275 C276 1.524 . S
C275 C279 1.400 . S
C276 H261 0.960 . S
C276 H262 0.960 . S
C276 H263 0.960 . S
C276 C275 1.524 . S
C277 C274 1.403 . S
C277 C278 1.392 . S
C277 C281 1.495 . S
C278 C277 1.392 . S
C278 C279 1.385 . S
C278 C280 1.478 . S
C279 H273 0.930 . S
C279 C275 1.400 . S
C279 C278 1.385 . S
C280 C278 1.478 . S
C280 C282 1.381 . S
C280 C286 1.383 . S
C281 C277 1.495 . S
C281 H287 0.959 . S
C281 H288 0.961 . S
C281 H289 0.960 . S
C282 C280 1.381 . S
C282 C283 1.394 . S
C282 H290 0.930 . S
C283 C282 1.394 . S
C283 C284 1.383 . S
C283 H291 0.929 . S
C284 C283 1.383 . S
C284 C285 1.377 . S
C285 H269 0.930 . S
C285 C284 1.377 . S
C285 C286 1.379 . S
C286 H270 0.931 . S
C286 C280 1.383 . S
C286 C285 1.379 . S
H287 C281 0.959 . S
H288 C281 0.961 . S
H289 C281 0.960 . S
H290 C282 0.930 . S
H291 C283 0.929 . S
H292 C300 0.929 . S
H293 C302 0.930 . S
H294 C304 0.930 . S
H295 C307 0.929 . S
H296 C310 0.930 . S
H297 C312 0.960 . S
H298 C312 0.960 . S
H299 C312 0.960 . S
C300 H292 0.929 . S
C300 C301 1.377 . S
C300 C302 1.384 . S
C301 C300 1.377 . S
C301 C307 1.390 . S
C302 H293 0.930 . S
C302 C300 1.384 . S
C302 C303 1.372 . S
C303 C302 1.372 . S
C303 C304 1.400 . S
C303 C308 1.490 . S
C304 H294 0.930 . S
C304 C303 1.400 . S
C304 C307 1.386 . S
H305 C321 0.930 . S
H306 C322 0.931 . S
C307 H295 0.929 . S
C307 C301 1.390 . S
C307 C304 1.386 . S
C308 C303 1.490 . S
C308 C310 1.395 . S
C308 C311 1.403 . S
H309 C315 0.930 . S
C310 H296 0.930 . S
C310 C308 1.395 . S
C310 C313 1.403 . S
C311 C308 1.403 . S
C311 C312 1.524 . S
C311 C315 1.400 . S
C312 H297 0.960 . S
C312 H298 0.960 . S
C312 H299 0.960 . S
C312 C311 1.524 . S
C313 C310 1.403 . S
C313 C314 1.392 . S
C313 C317 1.495 . S
C314 C313 1.392 . S
C314 C315 1.385 . S
C314 C316 1.478 . S
C315 H309 0.930 . S
C315 C311 1.400 . S
C315 C314 1.385 . S
C316 C314 1.478 . S
C316 C318 1.381 . S
C316 C322 1.383 . S
C317 C313 1.495 . S
C317 H323 0.959 . S
C317 H324 0.961 . S
C317 H325 0.960 . S
C318 C316 1.381 . S
C318 C319 1.394 . S
C318 H326 0.930 . S
C319 C318 1.394 . S
C319 C320 1.383 1_455 S
C319 H327 0.929 . S
C320 C319 1.383 1_655 S
C320 C321 1.377 . S
C321 H305 0.930 . S
C321 C320 1.377 . S
C321 C322 1.379 1_655 S
C322 H306 0.931 . S
C322 C316 1.383 . S
C322 C321 1.379 1_455 S
H323 C317 0.959 . S
H324 C317 0.961 . S
H325 C317 0.960 . S
H326 C318 0.930 . S
H327 C319 0.929 . S
H328 C336 0.929 . S
H329 C338 0.930 . S
H330 C340 0.930 . S
H331 C343 0.929 . S
H332 C346 0.930 . S
H333 C348 0.960 . S
H334 C348 0.960 . S
H335 C348 0.960 . S
C336 H328 0.929 . S
C336 C337 1.377 . S
C336 C338 1.384 1_545 S
C337 C336 1.377 . S
C337 C343 1.390 1_545 S
C338 H329 0.930 . S
C338 C336 1.384 1_565 S
C338 C339 1.372 . S
C339 C338 1.372 . S
C339 C340 1.400 . S
C339 C344 1.490 . S
C340 H330 0.930 . S
C340 C339 1.400 . S
C340 C343 1.386 . S
H341 C357 0.930 . S
H342 C358 0.931 . S
C343 H331 0.929 . S
C343 C337 1.390 1_565 S
C343 C340 1.386 . S
C344 C339 1.490 . S
C344 C346 1.395 . S
C344 C347 1.403 . S
H345 C351 0.930 . S
C346 H332 0.930 . S
C346 C344 1.395 . S
C346 C349 1.403 . S
C347 C344 1.403 . S
C347 C348 1.524 . S
C347 C351 1.400 . S
C348 H333 0.960 . S
C348 H334 0.960 . S
C348 H335 0.960 . S
C348 C347 1.524 . S
C349 C346 1.403 . S
C349 C350 1.392 . S
C349 C353 1.495 . S
C350 C349 1.392 . S
C350 C351 1.385 . S
C350 C352 1.478 . S
C351 H345 0.930 . S
C351 C347 1.400 . S
C351 C350 1.385 . S
C352 C350 1.478 . S
C352 C354 1.381 . S
C352 C358 1.383 . S
C353 C349 1.495 . S
C353 H359 0.959 . S
C353 H360 0.961 . S
C353 H361 0.960 . S
C354 C352 1.381 . S
C354 C355 1.394 . S
C354 H362 0.930 . S
C355 C354 1.394 . S
C355 C356 1.383 . S
C355 H363 0.929 . S
C356 C355 1.383 . S
C356 C357 1.377 . S
C357 H341 0.930 . S
C357 C356 1.377 . S
C357 C358 1.379 . S
C358 H342 0.931 . S
C358 C352 1.383 . S
C358 C357 1.379 . S
H359 C353 0.959 . S
H360 C353 0.961 . S
H361 C353 0.960 . S
H362 C354 0.930 . S
H363 C355 0.929 . S
H364 C372 0.929 . S
H365 C374 0.930 . S
H366 C376 0.930 . S
H367 C379 0.929 . S
H368 C382 0.930 . S
H369 C384 0.960 . S
H370 C384 0.960 . S
H371 C384 0.960 . S
C372 H364 0.929 . S
C372 C373 1.377 . S
C372 C374 1.384 . S
C373 C372 1.377 . S
C373 C379 1.390 . S
C374 H365 0.930 . S
C374 C372 1.384 . S
C374 C375 1.372 . S
C375 C374 1.372 . S
C375 C376 1.400 . S
C375 C380 1.490 . S
C376 H366 0.930 . S
C376 C375 1.400 . S
C376 C379 1.386 . S
H377 C393 0.930 1_455 S
H378 C394 0.931 . S
C379 H367 0.929 . S
C379 C373 1.390 . S
C379 C376 1.386 . S
C380 C375 1.490 . S
C380 C382 1.395 . S
C380 C383 1.403 . S
H381 C387 0.930 . S
C382 H368 0.930 . S
C382 C380 1.395 . S
C382 C385 1.403 . S
C383 C380 1.403 . S
C383 C384 1.524 . S
C383 C387 1.400 . S
C384 H369 0.960 . S
C384 H370 0.960 . S
C384 H371 0.960 . S
C384 C383 1.524 . S
C385 C382 1.403 . S
C385 C386 1.392 . S
C385 C389 1.495 . S
C386 C385 1.392 . S
C386 C387 1.385 . S
C386 C388 1.478 . S
C387 H381 0.930 . S
C387 C383 1.400 . S
C387 C386 1.385 . S
C388 C386 1.478 . S
C388 C390 1.381 . S
C388 C394 1.383 . S
C389 C385 1.495 . S
C389 H395 0.959 . S
C389 H396 0.961 . S
C389 H397 0.960 . S
C390 C388 1.381 . S
C390 C391 1.394 . S
C390 H398 0.930 . S
C391 C390 1.394 . S
C391 C392 1.383 1_655 S
C391 H399 0.929 1_655 S
C392 C391 1.383 1_455 S
C392 C393 1.377 1_455 S
C393 H377 0.930 1_655 S
C393 C392 1.377 1_655 S
C393 C394 1.379 . S
C394 H378 0.931 . S
C394 C388 1.383 . S
C394 C393 1.379 . S
H395 C389 0.959 . S
H396 C389 0.961 . S
H397 C389 0.960 . S
H398 C390 0.930 . S
H399 C391 0.929 1_455 S
H400 C408 0.929 1_565 S
H401 C410 0.930 . S
H402 C412 0.930 . S
H403 C415 0.929 . S
H404 C418 0.930 . S
H405 C420 0.960 . S
H406 C420 0.960 . S
H407 C420 0.960 . S
C408 H400 0.929 1_545 S
C408 C409 1.377 1_545 S
C408 C410 1.384 . S
C409 C408 1.377 1_565 S
C409 C415 1.390 1_565 S
C410 H401 0.930 . S
C410 C408 1.384 . S
C410 C411 1.372 . S
C411 C410 1.372 . S
C411 C412 1.400 . S
C411 C416 1.490 . S
C412 H402 0.930 . S
C412 C411 1.400 . S
C412 C415 1.386 . S
H413 C429 0.930 . S
H414 C430 0.931 . S
C415 H403 0.929 . S
C415 C409 1.390 1_545 S
C415 C412 1.386 . S
C416 C411 1.490 . S
C416 C418 1.395 1_556 S
C416 C419 1.403 . S
H417 C423 0.930 . S
C418 H404 0.930 . S
C418 C416 1.395 1_554 S
C418 C421 1.403 . S
C419 C416 1.403 . S
C419 C420 1.524 . S
C419 C423 1.400 . S
C420 H405 0.960 . S
C420 H406 0.960 . S
C420 H407 0.960 . S
C420 C419 1.524 . S
C421 C418 1.403 . S
C421 C422 1.392 . S
C421 C425 1.495 . S
C422 C421 1.392 . S
C422 C423 1.385 1_554 S
C422 C424 1.478 . S
C423 H417 0.930 . S
C423 C419 1.400 . S
C423 C422 1.385 1_556 S
C424 C422 1.478 . S
C424 C426 1.381 . S
C424 C430 1.383 . S
C425 C421 1.495 . S
C425 H431 0.959 . S
C425 H432 0.961 . S
C425 H433 0.960 . S
C426 C424 1.381 . S
C426 C427 1.394 . S
C426 H434 0.930 . S
C427 C426 1.394 . S
C427 C428 1.383 . S
C427 H435 0.929 . S
C428 C427 1.383 . S
C428 C429 1.377 . S
C429 H413 0.930 . S
C429 C428 1.377 . S
C429 C430 1.379 . S
C430 H414 0.931 . S
C430 C424 1.383 . S
C430 C429 1.379 . S
H431 C425 0.959 . S
H432 C425 0.961 . S
H433 C425 0.960 . S
H434 C426 0.930 . S
H435 C427 0.929 . S
H436 C444 0.929 . S
H437 C446 0.930 . S
H438 C448 0.930 1_554 S
H439 C451 0.929 . S
H440 C454 0.930 . S
H441 C456 0.960 . S
H442 C456 0.960 . S
H443 C456 0.960 . S
C444 H436 0.929 . S
C444 C445 1.377 . S
C444 C446 1.384 . S
C445 C444 1.377 . S
C445 C451 1.390 . S
C446 H437 0.930 . S
C446 C444 1.384 . S
C446 C447 1.372 . S
C447 C446 1.372 . S
C447 C448 1.400 . S
C447 C452 1.490 . S
C448 H438 0.930 1_556 S
C448 C447 1.400 . S
C448 C451 1.386 . S
H449 C465 0.930 . S
H450 C466 0.931 . S
C451 H439 0.929 . S
C451 C445 1.390 . S
C451 C448 1.386 . S
C452 C447 1.490 . S
C452 C454 1.395 . S
C452 C455 1.403 1_556 S
H453 C459 0.930 . S
C454 H440 0.930 . S
C454 C452 1.395 . S
C454 C457 1.403 . S
C455 C452 1.403 1_554 S
C455 C456 1.524 . S
C455 C459 1.400 . S
C456 H441 0.960 . S
C456 H442 0.960 . S
C456 H443 0.960 . S
C456 C455 1.524 . S
C457 C454 1.403 . S
C457 C458 1.392 1_556 S
C457 C461 1.495 . S
C458 C457 1.392 1_554 S
C458 C459 1.385 . S
C458 C460 1.478 . S
C459 H453 0.930 . S
C459 C455 1.400 . S
C459 C458 1.385 . S
C460 C458 1.478 . S
C460 C462 1.381 . S
C460 C466 1.383 . S
C461 C457 1.495 . S
C461 H467 0.959 . S
C461 H468 0.929 1_556 S
C461 H469 0.960 . S
C462 C460 1.381 . S
C462 C463 1.394 1_455 S
C462 H470 0.930 . S
C463 C462 1.394 1_655 S
C463 C464 1.383 . S
C463 H471 0.929 . S
C464 C463 1.383 . S
C464 C465 1.377 1_655 S
C465 H449 0.930 . S
C465 C464 1.377 1_455 S
C465 C466 1.379 . S
C466 H450 0.931 . S
C466 C460 1.383 . S
C466 C465 1.379 . S
H467 C461 0.959 . S
H468 C461 0.929 1_554 S
H469 C461 0.960 . S
H470 C462 0.930 . S
H471 C463 0.929 . S
H472 C480 0.929 . S
H473 C482 0.930 . S
H474 C484 0.930 . S
H475 C487 0.929 . S
H476 C490 0.930 . S
H477 C492 0.960 . S
H478 C492 0.960 . S
H479 C492 0.960 1_554 S
C480 H472 0.929 . S
C480 C481 1.377 . S
C480 C482 1.384 . S
C481 C480 1.377 . S
C481 C487 1.390 . S
C482 H473 0.930 . S
C482 C480 1.384 . S
C482 C483 1.372 . S
C483 C482 1.372 . S
C483 C484 1.400 . S
C483 C488 1.490 . S
C484 H474 0.930 . S
C484 C483 1.400 . S
C484 C487 1.386 . S
H485 C501 0.933 . S
H486 C502 0.931 . S
C487 H475 0.929 . S
C487 C481 1.390 . S
C487 C484 1.386 . S
C488 C483 1.490 . S
C488 C490 1.395 . S
C488 C491 1.403 1_554 S
H489 C495 0.930 . S
C490 H476 0.930 . S
C490 C488 1.395 . S
C490 C493 1.403 1_554 S
C491 C488 1.403 1_556 S
C491 C492 1.524 . S
C491 C495 1.400 . S
C492 H477 0.960 . S
C492 H478 0.960 . S
C492 H479 0.960 1_556 S
C492 C491 1.524 . S
C493 C490 1.403 1_556 S
C493 C494 1.392 . S
C493 C497 1.496 . S
C494 C493 1.392 . S
C494 C495 1.385 . S
C494 C496 1.478 . S
C495 H489 0.930 . S
C495 C491 1.400 . S
C495 C494 1.385 . S
C496 C494 1.478 . S
C496 C498 1.381 . S
C496 C502 1.383 . S
C497 C493 1.496 . S
C497 H503 0.950 1_556 S
C497 H504 0.955 1_556 S
C497 H505 0.974 . S
C498 C496 1.381 . S
C498 C499 1.394 . S
C498 H506 0.930 . S
C499 C498 1.394 . S
C499 C500 1.383 1_565 S
C499 H507 0.929 1_565 S
C500 C499 1.383 1_545 S
C500 C501 1.379 . S
C501 H485 0.933 . S
C501 C500 1.379 . S
C501 C502 1.375 1_545 S
C502 H486 0.931 . S
C502 C496 1.383 . S
C502 C501 1.375 1_565 S
H503 C497 0.950 1_554 S
H504 C497 0.955 1_554 S
H505 C497 0.974 . S
H506 C498 0.930 . S
H507 C499 0.929 1_545 S
H508 C516 0.929 . S
H509 C518 0.930 1_554 S
H510 C520 0.930 . S
H511 C523 0.929 . S
H512 C526 0.930 . S
H513 C528 0.960 . S
H514 C528 0.960 . S
H515 C528 0.960 . S
C516 H508 0.929 . S
C516 C517 1.377 . S
C516 C518 1.384 . S
C517 C516 1.377 . S
C517 C523 1.390 . S
C518 H509 0.930 1_556 S
C518 C516 1.384 . S
C518 C519 1.372 . S
C519 C518 1.372 . S
C519 C520 1.400 . S
C519 C524 1.490 . S
C520 H510 0.930 . S
C520 C519 1.400 . S
C520 C523 1.386 . S
H521 C537 0.930 . S
H522 C538 0.931 . S
C523 H511 0.929 . S
C523 C517 1.390 . S
C523 C520 1.386 . S
C524 C519 1.490 . S
C524 C526 1.395 1_556 S
C524 C527 1.403 . S
H525 C531 0.930 . S
C526 H512 0.930 . S
C526 C524 1.395 1_554 S
C526 C529 1.403 . S
C527 C524 1.403 . S
C527 C528 1.524 . S
C527 C531 1.400 1_556 S
C528 H513 0.960 . S
C528 H514 0.960 . S
C528 H515 0.960 . S
C528 C527 1.524 . S
C529 C526 1.403 . S
C529 C530 1.392 . S
C529 C533 1.495 . S
C530 C529 1.392 . S
C530 C531 1.385 . S
C530 C532 1.478 . S
C531 H525 0.930 . S
C531 C527 1.400 1_554 S
C531 C530 1.385 . S
C532 C530 1.478 . S
C532 C534 1.381 . S
C532 C538 1.383 . S
C533 C529 1.495 . S
C533 H539 0.959 . S
C533 H540 0.961 . S
C533 H541 0.960 . S
C534 C532 1.381 . S
C534 C535 1.394 . S
C534 H542 0.930 . S
C535 C534 1.394 . S
C535 C536 1.383 1_655 S
C535 H543 0.929 . S
C536 C535 1.383 1_455 S
C536 C537 1.377 . S
C537 H521 0.930 . S
C537 C536 1.377 . S
C537 C538 1.379 1_455 S
C538 H522 0.931 . S
C538 C532 1.383 . S
C538 C537 1.379 1_655 S
H539 C533 0.959 . S
H540 C533 0.961 . S
H541 C533 0.960 . S
H542 C534 0.930 . S
H543 C535 0.929 . S
H544 C552 0.929 . S
H545 C554 0.930 . S
H546 C556 0.930 . S
H547 C559 0.929 . S
H548 C562 0.930 . S
H549 C564 0.960 . S
H550 C564 0.960 . S
H551 C564 0.960 . S
C552 H544 0.929 . S
C552 C553 1.377 . S
C552 C554 1.384 . S
C553 C552 1.377 . S
C553 C559 1.390 . S
C554 H545 0.930 . S
C554 C552 1.384 . S
C554 C555 1.372 . S
C555 C554 1.372 . S
C555 C556 1.400 . S
C555 C560 1.490 . S
C556 H546 0.930 . S
C556 C555 1.400 . S
C556 C559 1.386 . S
H557 C573 0.930 . S
H558 C574 0.931 . S
C559 H547 0.929 . S
C559 C553 1.390 . S
C559 C556 1.386 . S
C560 C555 1.490 . S
C560 C562 1.395 . S
C560 C563 1.403 . S
H561 C567 0.930 . S
C562 H548 0.930 . S
C562 C560 1.395 . S
C562 C565 1.403 . S
C563 C560 1.403 . S
C563 C564 1.524 . S
C563 C567 1.400 . S
C564 H549 0.960 . S
C564 H550 0.960 . S
C564 H551 0.960 . S
C564 C563 1.524 . S
C565 C562 1.403 . S
C565 C566 1.392 . S
C565 C569 1.495 . S
C566 C565 1.392 . S
C566 C567 1.385 . S
C566 C568 1.478 . S
C567 H561 0.930 . S
C567 C563 1.400 . S
C567 C566 1.385 . S
C568 C566 1.478 . S
C568 C570 1.381 . S
C568 C574 1.383 . S
C569 C565 1.495 . S
C569 H575 0.959 . S
C569 H576 0.961 . S
C569 H577 0.960 . S
C570 C568 1.381 . S
C570 C571 1.394 . S
C570 H578 0.930 . S
C571 C570 1.394 . S
C571 C572 1.383 . S
C571 H579 0.929 . S
C572 C571 1.383 . S
C572 C573 1.377 . S
C573 H557 0.930 . S
C573 C572 1.377 . S
C573 C574 1.379 . S
C574 H558 0.931 . S
C574 C568 1.383 . S
C574 C573 1.379 . S
H575 C569 0.959 . S
H576 C569 0.961 . S
H577 C569 0.960 . S
H578 C570 0.930 . S
H579 C571 0.929 . S
H580 C588 0.929 . S
H581 C590 0.930 . S
H582 C592 0.930 . S
H583 C595 0.929 . S
H584 C598 0.930 . S
H585 C600 0.960 . S
H586 C600 0.960 . S
H587 C600 0.960 . S
C588 H580 0.929 . S
C588 C589 1.377 . S
C588 C590 1.384 . S
C589 C588 1.377 . S
C589 C595 1.390 . S
C590 H581 0.930 . S
C590 C588 1.384 . S
C590 C591 1.372 . S
C591 C590 1.372 . S
C591 C592 1.400 . S
C591 C596 1.490 . S
C592 H582 0.930 . S
C592 C591 1.400 . S
C592 C595 1.386 . S
H593 C609 0.930 . S
H594 C610 0.931 . S
C595 H583 0.929 . S
C595 C589 1.390 . S
C595 C592 1.386 . S
C596 C591 1.490 . S
C596 C598 1.395 . S
C596 C599 1.403 . S
H597 C603 0.930 . S
C598 H584 0.930 . S
C598 C596 1.395 . S
C598 C601 1.403 . S
C599 C596 1.403 . S
C599 C600 1.524 . S
C599 C603 1.400 . S
C600 H585 0.960 . S
C600 H586 0.960 . S
C600 H587 0.960 . S
C600 C599 1.524 . S
C601 C598 1.403 . S
C601 C602 1.392 . S
C601 C605 1.495 . S
C602 C601 1.392 . S
C602 C603 1.385 . S
C602 C604 1.478 . S
C603 H597 0.930 . S
C603 C599 1.400 . S
C603 C602 1.385 . S
C604 C602 1.478 . S
C604 C606 1.381 . S
C604 C610 1.383 . S
C605 C601 1.495 . S
C605 H611 0.959 . S
C605 H612 0.961 . S
C605 H613 0.960 . S
C606 C604 1.381 . S
C606 C607 1.394 . S
C606 H614 0.930 . S
C607 C606 1.394 . S
C607 C608 1.383 . S
C607 H615 0.929 . S
C608 C607 1.383 . S
C608 C609 1.377 . S
C609 H593 0.930 . S
C609 C608 1.377 . S
C609 C610 1.379 . S
C610 H594 0.931 . S
C610 C604 1.383 . S
C610 C609 1.379 . S
H611 C605 0.959 . S
H612 C605 0.961 . S
H613 C605 0.960 . S
H614 C606 0.930 . S
H615 C607 0.929 . S
H616 C624 0.929 . S
H617 C626 0.930 . S
H618 C628 0.930 . S
H619 C631 0.929 . S
H620 C634 0.930 . S
H621 C636 0.960 . S
H622 C636 0.960 . S
H623 C636 0.960 . S
C624 H616 0.929 . S
C624 C625 1.377 . S
C624 C626 1.384 . S
C625 C624 1.377 . S
C625 C631 1.390 . S
C626 H617 0.930 . S
C626 C624 1.384 . S
C626 C627 1.372 . S
C627 C626 1.372 . S
C627 C628 1.400 . S
C627 C632 1.490 . S
C628 H618 0.930 . S
C628 C627 1.400 . S
C628 C631 1.386 . S
H629 C645 0.930 . S
H630 C646 0.931 . S
C631 H619 0.929 . S
C631 C625 1.390 . S
C631 C628 1.386 . S
C632 C627 1.490 . S
C632 C634 1.395 . S
C632 C635 1.403 . S
H633 C639 0.930 . S
C634 H620 0.930 . S
C634 C632 1.395 . S
C634 C637 1.403 . S
C635 C632 1.403 . S
C635 C636 1.524 . S
C635 C639 1.400 . S
C636 H621 0.960 . S
C636 H622 0.960 . S
C636 H623 0.960 . S
C636 C635 1.524 . S
C637 C634 1.403 . S
C637 C638 1.392 . S
C637 C641 1.495 . S
C638 C637 1.392 . S
C638 C639 1.385 . S
C638 C640 1.478 . S
C639 H633 0.930 . S
C639 C635 1.400 . S
C639 C638 1.385 . S
C640 C638 1.478 . S
C640 C642 1.381 . S
C640 C646 1.383 . S
C641 C637 1.495 . S
C641 H647 0.959 . S
C641 H648 0.961 . S
C641 H649 0.960 . S
C642 C640 1.381 . S
C642 C643 1.394 . S
C642 H650 0.930 . S
C643 C642 1.394 . S
C643 C644 1.383 . S
C643 H651 0.929 . S
C644 C643 1.383 . S
C644 C645 1.377 . S
C645 H629 0.930 . S
C645 C644 1.377 . S
C645 C646 1.379 . S
C646 H630 0.931 . S
C646 C640 1.383 . S
C646 C645 1.379 . S
H647 C641 0.959 . S
H648 C641 0.961 . S
H649 C641 0.960 . S
H650 C642 0.930 . S
H651 C643 0.929 . S
H652 C660 0.929 . S
H653 C662 0.930 . S
H654 C664 0.930 . S
H655 C667 0.929 . S
H656 C670 0.930 . S
H657 C672 0.960 . S
H658 C672 0.960 . S
H659 C672 0.960 . S
C660 H652 0.929 . S
C660 C661 1.377 . S
C660 C662 1.384 . S
C661 C660 1.377 . S
C661 C667 1.390 . S
C662 H653 0.930 . S
C662 C660 1.384 . S
C662 C663 1.372 . S
C663 C662 1.372 . S
C663 C664 1.400 . S
C663 C668 1.490 . S
C664 H654 0.930 . S
C664 C663 1.400 . S
C664 C667 1.386 . S
H665 C681 0.930 . S
H666 C682 0.931 . S
C667 H655 0.929 . S
C667 C661 1.390 . S
C667 C664 1.386 . S
C668 C663 1.490 . S
C668 C670 1.395 . S
C668 C671 1.403 . S
H669 C675 0.930 . S
C670 H656 0.930 . S
C670 C668 1.395 . S
C670 C673 1.403 . S
C671 C668 1.403 . S
C671 C672 1.524 . S
C671 C675 1.400 . S
C672 H657 0.960 . S
C672 H658 0.960 . S
C672 H659 0.960 . S
C672 C671 1.524 . S
C673 C670 1.403 . S
C673 C674 1.392 . S
C673 C677 1.495 . S
C674 C673 1.392 . S
C674 C675 1.385 . S
C674 C676 1.478 . S
C675 H669 0.930 . S
C675 C671 1.400 . S
C675 C674 1.385 . S
C676 C674 1.478 . S
C676 C678 1.381 . S
C676 C682 1.383 . S
C677 C673 1.495 . S
C677 H683 0.959 . S
C677 H684 0.961 . S
C677 H685 0.960 . S
C678 C676 1.381 . S
C678 C679 1.394 . S
C678 H686 0.930 . S
C679 C678 1.394 . S
C679 C680 1.383 . S
C679 H687 0.929 . S
C680 C679 1.383 . S
C680 C681 1.377 . S
C681 H665 0.930 . S
C681 C680 1.377 . S
C681 C682 1.379 . S
C682 H666 0.931 . S
C682 C676 1.383 . S
C682 C681 1.379 . S
H683 C677 0.959 . S
H684 C677 0.961 . S
H685 C677 0.960 . S
H686 C678 0.930 . S
H687 C679 0.929 . S
C121 C39 1.349 . S
C140 C11 1.361 . S
C157 C53 1.446 . S
C176 C25 1.457 . S
C193 C67 1.446 . S
C212 C95 1.459 . S
C229 C81 1.353 . S
C248 C109 1.353 . S
C265 C23 0.953 . S
C284 C5 0.919 . S
C301 C19 0.998 . S
C320 C28 1.010 . S
C337 C51 0.947 . S
C356 C33 0.968 . S
C373 C47 0.992 . S
C392 C0 1.021 . S
C409 C98 1.012 . S
C428 C61 0.972 . S
C445 C75 0.946 . S
C464 C65 0.943 . S
C481 C89 0.993 . S
C500 C70 0.992 . S
C517 C103 0.936 . S
C536 C93 0.946 . S
C553 C9 1.724 . S
C572 C79 1.719 . S
C589 C84 1.705 . S
C608 C14 1.690 . S
C625 C37 1.723 . S
C644 C107 1.715 . S
C661 C42 1.705 . S
C680 C56 1.690 . S
