# Generated by pormake.
# Topology rob, (6)-cn, num edge types: 1
# Building blocks:
#     Node 0, Type 0, BuildingBlock: NUHQIS_clean_sbu_0, # of connection points: 6
#     Node 1, Type 0, BuildingBlock: NUHQIS_clean_sbu_0, # of connection points: 6
#     Node 2, Type 0, BuildingBlock: NUHQIS_clean_sbu_0, # of connection points: 6
#     Node 3, Type 0, BuildingBlock: NUHQIS_clean_sbu_0, # of connection points: 6
#     Edge 4, Type (0, 0), BuildingBlock: ZUJKAS_clean_linker_0, # of connection points: 2
#     Edge 5, Type (0, 0), BuildingBlock: ZUJKAS_clean_linker_0, # of connection points: 2
#     Edge 6, Type (0, 0), BuildingBlock: ZUJKAS_clean_linker_0, # of connection points: 2
#     Edge 7, Type (0, 0), BuildingBlock: ZUJKAS_clean_linker_0, # of connection points: 2
#     Edge 8, Type (0, 0), BuildingBlock: ZUJKAS_clean_linker_0, # of connection points: 2
#     Edge 9, Type (0, 0), BuildingBlock: ZUJKAS_clean_linker_0, # of connection points: 2
#     Edge 10, Type (0, 0), BuildingBlock: ZUJKAS_clean_linker_0, # of connection points: 2
#     Edge 11, Type (0, 0), BuildingBlock: ZUJKAS_clean_linker_0, # of connection points: 2
#     Edge 12, Type (0, 0), BuildingBlock: ZUJKAS_clean_linker_0, # of connection points: 2
#     Edge 13, Type (0, 0), BuildingBlock: ZUJKAS_clean_linker_0, # of connection points: 2
#     Edge 14, Type (0, 0), BuildingBlock: ZUJKAS_clean_linker_0, # of connection points: 2
#     Edge 15, Type (0, 0), BuildingBlock: ZUJKAS_clean_linker_0, # of connection points: 2
# Relax obj value: 0.029
# Max RMSD: 0.122
# Mean RMSD: 0.122
data_MOF--net-rob--node1-NUHQIS_clean_sbu_0--edge1-ZUJKAS_clean_linker_0
_symmetry_space_group_name_H-M    P1
_symmetry_Int_Tables_number       1
_symmetry_cell_setting            triclinic
loop_
_symmetry_equiv_pos_as_xyz
'x, y, z'
_cell_length_a     19.728187
_cell_length_b     34.166058
_cell_length_c     44.534884
_cell_angle_alpha  96.679175
_cell_angle_beta   89.930966
_cell_angle_gamma 89.985868
loop_
_atom_site_label
_atom_site_type_symbol
_atom_site_fract_x
_atom_site_fract_y
_atom_site_fract_z
_atom_type_partial_charge
Tb0 Tb 0.18273 0.2706 0.04104 0.0
Eu1 Eu 0.30782 0.22318 1.00286 0.0
C2 C 0.31013 0.31555 0.02262 0.0
C3 C 0.18621 0.26343 0.96954 0.0
C4 C 0.07014 0.30277 0.10544 0.0
C5 C 0.00158 0.32711 0.14899 0.0
C6 C 0.01995 0.32815 0.11872 0.0
C7 C 0.10167 0.27614 0.12271 0.0
C8 C 0.08339 0.27507 0.15297 0.0
C9 C 0.03324 0.30065 0.16656 0.0
C10 C 0.09142 0.30522 0.07404 0.0
O11 O 0.16926 0.2082 0.04501 0.0
O12 O 0.21591 0.18419 0.99973 0.0
O13 O 0.31876 0.20781 0.0505 0.0
O14 O 0.26202 0.26196 0.07364 0.0
C15 C 0.1754 0.18008 0.02247 0.0
O16 O 0.3461 0.17189 0.97377 0.0
O17 O 0.41195 0.22154 0.98613 0.0
O18 O 0.34493 0.28285 0.02246 0.0
O19 O 0.2436 0.31507 0.02238 0.0
O20 O 0.14836 0.2643 0.99403 0.0
O21 O 0.25152 0.25604 0.96993 0.0
C22 C 0.30261 0.2316 0.07485 0.0
O23 O 0.15196 0.31941 0.07094 0.0
O24 O 0.0807 0.27396 0.05491 0.0
C25 C 0.42183 0.18927 0.93666 0.0
C26 C 0.45558 0.19045 0.87509 0.0
C27 C 0.48239 0.16133 0.89165 0.0
C28 C 0.46549 0.16072 0.92216 0.0
C29 C 0.39491 0.21833 0.92027 0.0
C30 C 0.41148 0.21889 0.88979 0.0
C31 C 0.40368 0.18855 0.96868 0.0
H32 H 0.96345 0.34756 0.15879 0.0
H33 H -0.0045 0.3491 0.10578 0.0
H34 H 0.14073 0.25635 0.11282 0.0
H35 H 0.10821 0.25397 0.16564 0.0
H36 H 0.51589 0.13875 0.88095 0.0
H37 H 0.48647 0.13794 0.93441 0.0
H38 H 0.36139 0.24077 0.93114 0.0
H39 H 0.39066 0.24205 0.8779 0.0
Tb40 Tb 0.68004 0.77069 0.0403 0.0
Eu41 Eu 0.80685 0.72381 1.00255 0.0
C42 C 0.80688 0.81633 1.01958 0.0
C43 C 0.68261 0.76284 0.96933 0.0
C44 C 0.564 0.79946 0.10418 0.0
C45 C 0.50302 0.82502 0.14973 0.0
C46 C 0.52198 0.82804 0.11977 0.0
C47 C 0.5866 0.76768 0.11885 0.0
C48 C 0.56822 0.76481 0.14886 0.0
C49 C 0.52632 0.7935 0.1647 0.0
C50 C 0.58677 0.80383 0.07324 0.0
O51 O 0.6444 0.71211 0.023 0.0
O52 O 0.74433 0.67817 0.02228 0.0
O53 O 0.84 0.73325 0.05138 0.0
O54 O 0.73383 0.73931 0.07277 0.0
C55 C 0.67792 0.67894 0.02319 0.0
O56 O 0.8411 0.67352 0.97156 0.0
O57 O 0.91244 0.71934 0.98772 0.0
O58 O 0.81832 0.7881 0.99766 0.0
O59 O 0.76565 0.81109 0.04191 0.0
O60 O 0.66691 0.78569 0.99428 0.0
O61 O 0.72428 0.73285 0.9694 0.0
C62 C 0.79962 0.73413 0.075 0.0
O63 O 0.64731 0.81826 0.07113 0.0
O64 O 0.57724 0.77362 0.05306 0.0
C65 C 0.92302 0.69037 0.93704 0.0
C66 C 0.95802 0.6923 0.87569 0.0
C67 C 0.97702 0.66019 0.89097 0.0
C68 C 0.95971 0.65928 0.92139 0.0
C69 C 0.90382 0.72246 0.92192 0.0
C70 C 0.92143 0.72351 0.89158 0.0
C71 C 0.90143 0.68813 0.96847 0.0
H72 H 0.47119 0.84778 0.16138 0.0
H73 H 0.50441 0.85291 0.10888 0.0
H74 H 0.61874 0.74517 0.10713 0.0
H75 H 0.5863 0.7399 0.15957 0.0
H76 H 0.00569 0.63587 0.87947 0.0
H77 H 0.97445 0.63413 0.93263 0.0
H78 H 0.87449 0.74648 0.93349 0.0
H79 H 0.90518 0.74839 0.88038 0.0
Tb80 Tb 0.17992 0.71905 0.50168 0.0
Eu81 Eu 0.30366 0.7668 0.54009 0.0
C82 C 0.305 0.67437 0.52459 0.0
C83 C 0.17658 0.73009 0.57246 0.0
C84 C 0.06495 0.68905 0.43781 0.0
C85 C 0.00872 0.6622 0.39144 0.0
C86 C 0.02775 0.65895 0.42132 0.0
C87 C 0.08236 0.72271 0.42419 0.0
C88 C 0.06343 0.72599 0.39431 0.0
C89 C 0.02682 0.69562 0.37746 0.0
C90 C 0.08972 0.6839 0.46827 0.0
O91 O 0.1428 0.77835 0.51603 0.0
O92 O 0.24312 0.81232 0.51928 0.0
O93 O 0.33903 0.75632 0.49146 0.0
O94 O 0.23357 0.75113 0.46962 0.0
C95 C 0.17689 0.81148 0.51663 0.0
O96 O 0.33841 0.81784 0.56996 0.0
O97 O 0.40826 0.7701 0.55652 0.0
O98 O 0.31369 0.70287 0.54654 0.0
O99 O 0.26627 0.67932 0.50142 0.0
O100 O 0.16539 0.70537 0.54799 0.0
O101 O 0.21702 0.76055 0.57201 0.0
C102 C 0.29941 0.75616 0.46768 0.0
O103 O 0.1522 0.67209 0.46936 0.0
O104 O 0.07703 0.7124 0.48958 0.0
C105 C 0.41652 0.80159 0.60646 0.0
C106 C 0.45314 0.80028 0.66765 0.0
C107 C 0.4996 0.81295 0.64678 0.0
C108 C 0.48134 0.81368 0.61647 0.0
C109 C 0.37014 0.78864 0.62712 0.0
C110 C 0.38815 0.78816 0.65745 0.0
C111 C 0.39746 0.80243 0.57456 0.0
H112 H 0.97977 0.63851 0.3793 0.0
H113 H 0.01422 0.63266 0.43141 0.0
H114 H 0.11163 0.74613 0.43649 0.0
H115 H 0.07899 0.7519 0.3842 0.0
H116 H 0.54985 0.82275 0.65397 0.0
H117 H 0.5178 0.82374 0.60085 0.0
H118 H 0.31996 0.77884 0.61979 0.0
H119 H 0.35154 0.77771 0.67281 0.0
Tb120 Tb 0.68185 0.22101 0.50169 0.0
Eu121 Eu 0.80772 0.26702 0.53988 0.0
C122 C 0.81122 0.17567 0.51735 0.0
C123 C 0.68786 0.2254 0.57285 0.0
C124 C 0.56622 0.19001 0.43808 0.0
C125 C 0.5158 0.15933 0.3914 0.0
C126 C 0.53466 0.15768 0.42152 0.0
C127 C 0.57864 0.22415 0.42417 0.0
C128 C 0.55934 0.22595 0.39413 0.0
C129 C 0.528 0.19347 0.37734 0.0
C130 C 0.58958 0.18694 0.46912 0.0
O131 O 0.66854 0.28363 0.49891 0.0
O132 O 0.71494 0.30549 0.5446 0.0
O133 O 0.81964 0.28351 0.49262 0.0
O134 O 0.75852 0.23174 0.46834 0.0
C135 C 0.67448 0.31078 0.52211 0.0
O136 O 0.84713 0.31867 0.56819 0.0
O137 O 0.91002 0.26705 0.5584 0.0
O138 O 0.84549 0.2086 0.51787 0.0
O139 O 0.74472 0.17598 0.51853 0.0
O140 O 0.64886 0.22684 0.54899 0.0
O141 O 0.75338 0.23159 0.57176 0.0
C142 C 0.80125 0.26128 0.46783 0.0
O143 O 0.6505 0.17287 0.47123 0.0
O144 O 0.5792 0.21754 0.48899 0.0
C145 C 0.91715 0.30119 0.60735 0.0
C146 C 0.94612 0.30113 0.66945 0.0
C147 C 0.97235 0.33076 0.65323 0.0
C148 C 0.95803 0.33073 0.62242 0.0
C149 C 0.88995 0.27198 0.62354 0.0
C150 C 0.90437 0.27189 0.65425 0.0
C151 C 0.90257 0.30088 0.57488 0.0
H152 H 0.49126 0.13397 0.37917 0.0
H153 H 0.52519 0.13098 0.4318 0.0
H154 H 0.60398 0.24924 0.43642 0.0
H155 H 0.57023 0.25246 0.38384 0.0
H156 H 0.00512 0.3535 0.66421 0.0
H157 H 0.97929 0.35359 0.61031 0.0
H158 H 0.85785 0.24907 0.61237 0.0
H159 H 0.88256 0.24899 0.66614 0.0
H160 H 0.72853 0.60411 0.02255 0.0
H161 H 0.66435 0.54277 0.02232 0.0
H162 H 0.47706 0.60813 0.02479 0.0
H163 H 0.54042 0.66949 0.02475 0.0
H164 H 0.56942 0.52217 0.0656 0.0
H165 H 0.45208 0.52306 0.95235 0.0
H166 H 0.52376 0.55364 0.96463 0.0
H167 H 0.43986 0.5675 0.97755 0.0
C168 C 0.67368 0.60547 0.02296 0.0
C169 C 0.63964 0.64172 0.02347 0.0
C170 C 0.63714 0.57039 0.02285 0.0
C171 C 0.56603 0.57091 0.02306 0.0
C172 C 0.53191 0.60703 0.024 0.0
H173 H 0.25647 0.38972 0.02352 0.0
H174 H 0.31823 0.45204 0.02454 0.0
C175 C 0.56832 0.6421 0.02413 0.0
C176 C 0.52747 0.53373 0.02291 0.0
H177 H 0.41289 0.4745 0.98214 0.0
C178 C 0.53539 0.51162 0.04732 0.0
C179 C 0.48294 0.52023 0.99906 0.0
C180 C 0.4744 0.5421 0.97176 0.0
C181 C 0.49921 0.47652 0.04872 0.0
C182 C 0.45492 0.46292 0.02481 0.0
C183 C 0.44678 0.48511 1.00046 0.0
C184 C 0.41764 0.42525 0.02433 0.0
C185 C 0.50776 0.45468 0.07604 0.0
C186 C 0.45315 0.38959 0.02344 0.0
C187 C 0.41816 0.35401 0.02287 0.0
C188 C 0.34685 0.35338 0.02299 0.0
C189 C 0.31136 0.38917 0.0235 0.0
C190 C 0.34652 0.42479 0.02407 0.0
H191 H 0.52883 0.47399 0.09561 0.0
H192 H 0.45867 0.44245 0.08285 0.0
H193 H 0.54346 0.42979 0.07045 0.0
H194 H 0.50805 0.38925 0.02298 0.0
H195 H 0.44715 0.32701 0.02228 0.0
H196 H 0.39121 0.65332 0.56823 0.0
H197 H 0.45401 0.59146 0.56805 0.0
H198 H 0.36413 0.54807 0.48242 0.0
H199 H 0.30168 0.60975 0.48219 0.0
H200 H 0.40357 0.51331 0.5649 0.0
H201 H 0.56875 0.53379 0.46689 0.0
H202 H 0.52093 0.57366 0.48698 0.0
H203 H 0.47965 0.53849 0.45986 0.0
C204 C 0.38481 0.63065 0.54933 0.0
C205 C 0.34172 0.63662 0.52512 0.0
C206 C 0.42071 0.59533 0.54929 0.0
C207 C 0.41451 0.56549 0.52499 0.0
C208 C 0.37065 0.57105 0.50109 0.0
H209 H 0.58626 0.33244 0.47955 0.0
H210 H 0.52209 0.39394 0.48107 0.0
C211 C 0.33472 0.60629 0.50111 0.0
C212 C 0.4533 0.52832 0.52474 0.0
H213 H 0.57259 0.47122 0.48501 0.0
C214 C 0.4408 0.50415 0.54755 0.0
C215 C 0.50171 0.51649 0.50203 0.0
C216 C 0.51917 0.54207 0.47768 0.0
C217 C 0.4745 0.46799 0.5479 0.0
C218 C 0.52277 0.45612 0.52512 0.0
C219 C 0.53539 0.48036 0.50238 0.0
C220 C 0.56108 0.41872 0.52455 0.0
C221 C 0.45703 0.4424 0.57223 0.0
C222 C 0.60485 0.4125 0.54834 0.0
C223 C 0.64157 0.37741 0.54757 0.0
C224 C 0.63553 0.34795 0.52288 0.0
C225 C 0.59202 0.35445 0.49894 0.0
C226 C 0.55532 0.38957 0.49975 0.0
H227 H 0.40749 0.45073 0.58305 0.0
H228 H 0.45517 0.41083 0.56292 0.0
H229 H 0.49658 0.44594 0.59003 0.0
H230 H 0.61109 0.43496 0.5674 0.0
H231 H 0.67487 0.3735 0.56631 0.0
H232 H 0.08617 0.16043 0.06552 0.0
H233 H 0.02367 0.09855 0.06585 0.0
H234 H 0.11447 0.05406 0.98055 0.0
H235 H 0.17758 0.11543 0.98009 0.0
H236 H 0.93078 0.06361 0.02241 0.0
H237 H 0.15255 0.96657 0.03417 0.0
H238 H 0.15731 0.01958 0.04167 0.0
H239 H 0.159 -0.00398 1.00342 0.0
C240 C 0.09309 0.13743 0.04688 0.0
C241 C 0.13719 0.14283 0.02285 0.0
C242 C 0.05728 0.10212 0.04711 0.0
C243 C 0.06528 0.07155 0.02346 0.0
C244 C 0.10864 0.07699 0.99932 0.0
H245 H 0.89661 0.83826 0.9776 0.0
H246 H 0.95709 0.90091 0.97865 0.0
C247 C 0.1444 0.11222 0.99904 0.0
C248 C 0.02711 0.03424 0.02359 0.0
H249 H 0.04693 0.93486 0.02292 0.0
C250 C 0.95605 0.03546 0.02272 0.0
C251 C 0.06035 -0.00239 0.02393 0.0
C252 C 0.13648 0.99472 0.02613 0.0
C253 C 0.91728 0.00085 0.02147 0.0
C254 C 0.95056 0.96419 0.02163 0.0
C255 C 0.02161 0.96301 0.02268 0.0
C256 C 0.91263 0.92665 0.02082 0.0
C257 C 0.84116 0.00373 1.01924 0.0
C258 C 0.86804 0.92028 0.04432 0.0
C259 C 0.83329 0.88457 0.04378 0.0
C260 C 0.84288 0.85441 0.01981 0.0
C261 C 0.8879 0.86085 0.99636 0.0
C262 C 0.92258 0.89661 0.99693 0.0
H263 H 0.82504 0.03209 1.01154 0.0
H264 H 0.82047 0.97914 1.00339 0.0
H265 H 0.81852 0.00191 0.04185 0.0
H266 H 0.8607 0.94276 0.06328 0.0
H267 H 0.79934 0.88056 0.0623 0.0
H268 H 0.75836 0.10119 0.51485 0.0
H269 H 0.82063 0.03907 0.51411 0.0
H270 H 0.0099 0.1024 0.51639 0.0
H271 H 0.94844 0.16458 0.51738 0.0
H272 H 0.91985 0.00647 0.47143 0.0
H273 H 0.02458 0.03563 0.58761 0.0
H274 H 0.9546 0.06332 0.57468 0.0
H275 H 0.03991 0.07389 0.56398 0.0
C276 C 0.81323 0.10195 0.51526 0.0
C277 C 0.84839 0.1379 0.51635 0.0
C278 C 0.84868 0.06642 0.51479 0.0
C279 C 0.91976 0.06628 0.51564 0.0
C280 C 0.955 0.102 0.51628 0.0
H281 H 0.22864 0.88613 0.51832 0.0
H282 H 0.16581 0.94756 0.51663 0.0
C283 C 0.9197 0.13748 0.5167 0.0
C284 C 0.95725 0.02873 0.51551 0.0
H285 H 0.06657 0.97939 0.55706 0.0
C286 C 0.95171 0.0004 0.49017 0.0
C287 C -0.00117 0.02107 0.54 0.0
C288 C 0.00458 0.04988 0.56825 0.0
C289 C 0.98776 0.96477 0.48843 0.0
C290 C 0.02939 0.9571 0.51293 0.0
C291 C 0.03478 0.98544 0.53828 0.0
C292 C 0.06726 0.91967 0.51293 0.0
C293 C 0.98216 0.93604 0.46012 0.0
C294 C 0.03257 0.88369 0.51162 0.0
C295 C 0.06825 0.84852 0.51253 0.0
C296 C 0.13936 0.84872 0.51501 0.0
C297 C 0.17395 0.88488 0.51636 0.0
C298 C 0.13816 0.92003 0.51542 0.0
H299 H 0.96331 0.95056 0.44068 0.0
H300 H 0.03191 0.92212 0.45396 0.0
H301 H 0.94583 0.91241 0.46413 0.0
H302 H 0.97777 0.88284 0.51032 0.0
H303 H 0.03993 0.82126 0.51156 0.0
H304 H 0.46566 0.25386 0.3528 0.0
H305 H 0.43323 0.25638 0.30004 0.0
H306 H 0.51524 0.13983 0.27637 0.0
H307 H 0.54697 0.13692 0.3292 0.0
H308 H 0.51081 0.25212 0.24935 0.0
H309 H 0.3282 0.12763 0.2397 0.0
H310 H 0.36117 0.14936 0.27558 0.0
H311 H 0.41158 0.11493 0.2514 0.0
C312 C 0.47687 0.22878 0.33635 0.0
C313 C 0.50849 0.19508 0.34523 0.0
C314 C 0.45815 0.23021 0.30621 0.0
C315 C 0.4707 0.19803 0.28428 0.0
C316 C 0.50331 0.16459 0.29298 0.0
H317 H 0.38441 0.17096 0.089 0.0
H318 H 0.43014 0.16123 0.13889 0.0
C319 C 0.52158 0.16301 0.32318 0.0
C320 C 0.45081 0.20004 0.25229 0.0
H321 H 0.35206 0.15615 0.19488 0.0
C322 C 0.47615 0.23109 0.23747 0.0
C323 C 0.40578 0.17248 0.23667 0.0
C324 C 0.37455 0.13942 0.25168 0.0
C325 C 0.45736 0.23552 0.20765 0.0
C326 C 0.41156 0.20838 0.19227 0.0
C327 C 0.38741 0.17679 0.20673 0.0
C328 C 0.38461 0.21398 0.16198 0.0
C329 C 0.48651 0.26929 0.1928 0.0
C330 C 0.34321 0.24651 0.1586 0.0
C331 C 0.31691 0.25207 0.13032 0.0
C332 C 0.33141 0.22518 0.10469 0.0
C333 C 0.37257 0.19235 0.10818 0.0
C334 C 0.39865 0.18671 0.13666 0.0
H335 H 0.53314 0.28129 0.20443 0.0
H336 H 0.49862 0.25993 0.16867 0.0
H337 H 0.44855 0.29338 0.19373 0.0
H338 H 0.3308 0.26753 0.17795 0.0
H339 H 0.28504 0.27754 0.12867 0.0
H340 H 0.60747 0.77456 0.21082 0.0
H341 H 0.57465 0.76836 0.2632 0.0
H342 H 0.36929 0.79988 0.24339 0.0
H343 H 0.4014 0.80575 0.19097 0.0
H344 H 0.50834 0.82864 0.30712 0.0
H345 H 0.35654 0.69214 0.27996 0.0
H346 H 0.41931 0.70805 0.25441 0.0
H347 H 0.33779 0.73155 0.25779 0.0
C348 C 0.55522 0.77993 0.21757 0.0
C349 C 0.50694 0.79047 0.19668 0.0
C350 C 0.5367 0.77661 0.24753 0.0
C351 C 0.46946 0.78331 0.25706 0.0
C352 C 0.42133 0.79423 0.23639 0.0
H353 H 0.23044 0.76851 0.41654 0.0
H354 H 0.27626 0.77605 0.36678 0.0
C355 C 0.43987 0.79785 0.20651 0.0
C356 C 0.44925 0.77871 0.28855 0.0
H357 H 0.34935 0.72362 0.33007 0.0
C358 C 0.47395 0.80556 0.31226 0.0
C359 C 0.40449 0.74854 0.2951 0.0
C360 C 0.37825 0.71815 0.27057 0.0
C361 C 0.45312 0.80386 0.34232 0.0
C362 C 0.40761 0.77391 0.34885 0.0
C363 C 0.38409 0.74662 0.3251 0.0
C364 C 0.38124 0.77109 0.37984 0.0
C365 C 0.47806 0.83499 0.36659 0.0
C366 C 0.42496 0.76581 0.40395 0.0
C367 C 0.3988 0.76173 0.43273 0.0
C368 C 0.32838 0.76236 0.4378 0.0
C369 C 0.28493 0.76777 0.41357 0.0
C370 C 0.31106 0.77208 0.38499 0.0
H371 H 0.49806 0.86122 0.35691 0.0
H372 H 0.4369 0.84465 0.38282 0.0
H373 H 0.51972 0.82261 0.37929 0.0
H374 H 0.47923 0.76407 0.40041 0.0
H375 H 0.43365 0.7573 0.4508 0.0
H376 H 0.72938 0.73518 0.91342 0.0
H377 H 0.68274 0.74584 0.86451 0.0
H378 H 0.52394 0.81793 0.9087 0.0
H379 H 0.57173 0.80814 0.9582 0.0
H380 H 0.56053 0.72468 0.84157 0.0
H381 H 0.59017 0.88712 0.84689 0.0
H382 H 0.63064 0.85874 0.87355 0.0
H383 H 0.5421 0.87077 0.87735 0.0
C384 C 0.68461 0.75346 0.91289 0.0
C385 C 0.65412 0.77073 0.93981 0.0
C386 C 0.65803 0.75955 0.88481 0.0
C387 C 0.60015 0.78295 0.88281 0.0
C388 C 0.56946 0.80041 0.90961 0.0
H389 H 0.37831 0.82422 0.71841 0.0
H390 H 0.40975 0.82068 0.77134 0.0
C391 C 0.59658 0.79462 0.9379 0.0
C392 C 0.57146 0.78746 0.85252 0.0
H393 H 0.53637 0.85474 0.80347 0.0
C394 C 0.55512 0.75317 0.83332 0.0
C395 C 0.56417 0.82464 0.84172 0.0
C396 C 0.58318 0.86244 0.8608 0.0
C397 C 0.53281 0.75495 0.8036 0.0
C398 C 0.52688 0.79197 0.79267 0.0
C399 C 0.54116 0.8264 0.812 0.0
C400 C 0.50845 0.79518 0.76078 0.0
C401 C 0.51608 0.71719 0.78397 0.0
C402 C 0.55391 0.78242 0.73743 0.0
C403 C 0.53625 0.78446 0.70725 0.0
C404 C 0.47259 0.79917 0.69983 0.0
C405 C 0.42741 0.81232 0.72336 0.0
C406 C 0.44538 0.81055 0.75359 0.0
H407 H 0.51002 0.69201 0.79745 0.0
H408 H 0.46874 0.72055 0.77104 0.0
H409 H 0.55772 0.71004 0.76746 0.0
H410 H 0.60302 0.77067 0.74257 0.0
H411 H 0.57196 0.7738 0.68968 0.0
H412 H 0.55347 0.22729 0.58974 0.0
H413 H 0.50719 0.2208 0.64015 0.0
H414 H 0.70835 0.19992 0.67255 0.0
H415 H 0.75487 0.20685 0.62279 0.0
H416 H 0.51234 0.15994 0.67698 0.0
H417 H 0.64494 0.29235 0.7316 0.0
H418 H 0.63834 0.28147 0.69107 0.0
H419 H 0.70151 0.25739 0.71156 0.0
C420 C 0.58774 0.22109 0.60757 0.0
C421 C 0.65798 0.21811 0.60229 0.0
C422 C 0.56124 0.21746 0.63637 0.0
C423 C 0.60453 0.21083 0.6603 0.0
C424 C 0.67418 0.20615 0.65468 0.0
H425 H 0.58082 0.17879 0.84899 0.0
H426 H 0.61239 0.18266 0.79627 0.0
C427 C 0.70066 0.20996 0.6261 0.0
C428 C 0.57763 0.20904 0.69129 0.0
H429 H 0.59647 0.24971 0.7646 0.0
C430 C 0.53014 0.17979 0.69612 0.0
C431 C 0.60072 0.2351 0.71624 0.0
C432 C 0.64866 0.2686 0.71238 0.0
C433 C 0.50714 0.17497 0.72538 0.0
C434 C 0.53178 0.20034 0.75036 0.0
C435 C 0.5781 0.23008 0.74544 0.0
C436 C 0.51122 0.19625 0.78193 0.0
C437 C 0.45836 0.14201 0.72948 0.0
C438 C 0.44386 0.20272 0.79139 0.0
C439 C 0.42559 0.20042 0.82152 0.0
C440 C 0.4744 0.19167 0.8428 0.0
C441 C 0.54178 0.18502 0.83314 0.0
C442 C 0.56001 0.18746 0.80306 0.0
H443 H 0.45569 0.12007 0.70904 0.0
H444 H 0.47323 0.12664 0.74911 0.0
H445 H 0.4069 0.15447 0.73395 0.0
H446 H 0.40559 0.21014 0.77557 0.0
H447 H 0.37317 0.20543 0.82813 0.0
H448 H 0.92881 0.71165 0.08893 0.0
H449 H 0.97338 0.702 0.13897 0.0
H450 H 0.77965 0.73522 0.17905 0.0
H451 H 0.73466 0.74431 0.1295 0.0
H452 H 0.98484 0.7545 0.19091 0.0
H453 H 0.81567 0.63105 0.21156 0.0
H454 H 0.82532 0.64742 0.17469 0.0
H455 H 0.77007 0.67348 0.20235 0.0
C456 C 0.89563 0.71671 0.10839 0.0
C457 C 0.82785 0.7283 0.10506 0.0
C458 C 0.92119 0.71121 0.13697 0.0
C459 C 0.87946 0.71711 0.16269 0.0
C460 C 0.81231 0.72943 0.15947 0.0
H461 H 0.98164 0.76048 0.35235 0.0
H462 H 0.95119 0.76488 0.29962 0.0
C463 C 0.78671 0.73476 0.13102 0.0
C464 C 0.90603 0.71132 0.19308 0.0
H465 H 0.87523 0.66251 0.25443 0.0
C466 C 0.96128 0.73415 0.20471 0.0
C467 C 0.87585 0.68438 0.21095 0.0
C468 C 0.81889 0.65739 0.19916 0.0
C469 C 0.98566 0.7317 0.23409 0.0
C470 C 0.95327 0.70617 0.25246 0.0
C471 C 0.89951 0.68242 0.24047 0.0
C472 C 0.97385 0.70384 0.28429 0.0
C473 C 0.04613 0.75627 0.24514 0.0
C474 C -0.00455 0.66789 0.29337 0.0
C475 C 0.01281 0.66525 0.32352 0.0
C476 C 0.0085 0.6985 0.34531 0.0
C477 C 0.98662 0.73446 0.33612 0.0
C478 C 0.96927 0.73705 0.30595 0.0
H479 H 0.07593 0.76572 0.22606 0.0
H480 H 0.02834 0.78315 0.25935 0.0
H481 H 0.08 0.73974 0.25908 0.0
H482 H -0.00083 0.64186 0.27706 0.0
H483 H 0.03032 0.63723 0.32968 0.0
H484 H 0.77305 0.22159 0.41246 0.0
H485 H 0.82104 0.23203 0.36365 0.0
H486 H 0.94282 0.32745 0.40628 0.0
H487 H 0.89464 0.31737 0.45567 0.0
H488 H 0.87487 0.34421 0.35257 0.0
H489 H 0.015 0.20276 0.33467 0.0
H490 H 0.92723 0.19718 0.34402 0.0
H491 H 0.98334 0.2231 0.37125 0.0
C492 C 0.81025 0.24476 0.41167 0.0
C493 C 0.83037 0.26843 0.43817 0.0
C494 C 0.83784 0.25055 0.38365 0.0
C495 C 0.88637 0.28003 0.38139 0.0
C496 C 0.90579 0.3043 0.4076 0.0
H497 H 0.11701 0.29227 0.21458 0.0
H498 H 0.08523 0.29 0.26749 0.0
C499 C 0.87824 0.29847 0.43579 0.0
C500 C 0.91556 0.28559 0.35144 0.0
H501 H 0.00048 0.23708 0.29137 0.0
C502 C 0.90294 0.32098 0.33928 0.0
C503 C 0.95293 0.25545 0.3343 0.0
C504 C 0.97109 0.21761 0.34679 0.0
C505 C 0.92443 0.32641 0.30993 0.0
C506 C 0.95862 0.29541 0.29218 0.0
C507 C 0.97358 0.26066 0.30483 0.0
C508 C 0.97797 0.29799 0.26021 0.0
C509 C 0.91034 0.36527 0.29819 0.0
C510 C 0.92815 0.30274 0.23844 0.0
C511 C 0.94606 0.30378 0.20814 0.0
C512 C 0.01422 0.29984 0.1989 0.0
C513 C 0.06398 0.29493 0.22079 0.0
C514 C 0.04598 0.29388 0.2511 0.0
H515 H 0.9018 0.3892 0.31694 0.0
H516 H 0.95287 0.37388 0.28398 0.0
H517 H 0.86386 0.36252 0.2841 0.0
H518 H 0.87516 0.30496 0.2448 0.0
H519 H 0.90628 0.30687 0.19185 0.0
H520 H 0.95026 0.36275 0.71481 0.0
H521 H 0.98177 0.36071 0.76782 0.0
H522 H 0.0133 0.23522 0.75024 0.0
H523 H 0.98128 0.23698 0.69742 0.0
H524 H 0.94502 0.25538 0.80319 0.0
H525 H 0.17367 0.34916 0.79796 0.0
H526 H 0.09628 0.37176 0.78763 0.0
H527 H 0.12827 0.32904 0.76456 0.0
C528 C 0.96424 0.33477 0.72223 0.0
C529 C 0.9636 0.30006 0.70185 0.0
C530 C 0.98229 0.33365 0.75252 0.0
C531 C 0.00096 0.29791 0.76293 0.0
C532 C -0.00088 0.26315 0.74275 0.0
H533 H 0.24461 0.25292 0.91361 0.0
H534 H 0.1945 0.2631 0.86529 0.0
C535 C 0.98066 0.26419 0.71256 0.0
C536 C 0.02342 0.29649 0.79465 0.0
H537 H 0.14608 0.3294 0.84548 0.0
C538 C 0.9888 0.27169 0.81252 0.0
C539 C 0.08095 0.31751 0.80669 0.0
C540 C 0.12242 0.3431 0.78818 0.0
C541 C 0.01066 0.26689 0.84192 0.0
C542 C 0.06796 0.2881 0.854 0.0
C543 C 0.10186 0.31339 0.83629 0.0
C544 C 0.09707 0.28224 0.88395 0.0
C545 C 0.97384 0.23795 0.85925 0.0
C546 C 0.05919 0.28984 0.91075 0.0
C547 C 0.08776 0.28375 0.93867 0.0
C548 C 0.15501 0.27042 0.94029 0.0
C549 C 0.19284 0.26337 0.91339 0.0
C550 C 0.16422 0.26918 0.88562 0.0
H551 H 0.9414 0.21753 0.84426 0.0
H552 H 0.01021 0.22024 0.87107 0.0
H553 H 0.9407 0.25436 0.87651 0.0
H554 H 0.00772 0.30072 0.91013 0.0
H555 H 0.05733 0.28971 0.95894 0.0
H556 H 0.10606 0.66515 0.58683 0.0
H557 H 0.05912 0.65444 0.63638 0.0
H558 H 0.12983 0.76919 0.67374 0.0
H559 H 0.17654 0.78019 0.6248 0.0
H560 H 0.13524 0.65786 0.69314 0.0
H561 H 0.92667 0.76737 0.69864 0.0
H562 H 0.96676 0.74796 0.66353 0.0
H563 H 0.00757 0.78601 0.68838 0.0
C564 C 0.11101 0.68823 0.60553 0.0
C565 C 0.1449 0.72357 0.60174 0.0
C566 C 0.08433 0.68202 0.63382 0.0
C567 C 0.09027 0.71124 0.65861 0.0
C568 C 0.12368 0.74652 0.65481 0.0
H569 H 0.00641 0.7546 0.8486 0.0
H570 H 0.03569 0.75617 0.79537 0.0
C571 C 0.15066 0.75264 0.62675 0.0
C572 C 0.06433 0.70473 0.68894 0.0
H573 H 0.95683 0.74319 0.7449 0.0
C574 C 0.09557 0.67607 0.70438 0.0
C575 C 0.01284 0.7287 0.70353 0.0
C576 C 0.97598 0.75904 0.68762 0.0
C577 C 0.07878 0.67193 0.73456 0.0
C578 C 0.02827 0.69656 0.74943 0.0
C579 C -0.00429 0.72443 0.7336 0.0
C580 C 0.01021 0.69507 0.78173 0.0
C581 C 0.11747 0.64245 0.75062 0.0
C582 C 0.98544 0.66033 0.7918 0.0
C583 C 0.96891 0.65933 0.82229 0.0
C584 C 0.97597 0.69321 0.84327 0.0
C585 C -0.00013 0.72809 0.83301 0.0
C586 C 0.0168 0.72899 0.80259 0.0
H587 H 0.1655 0.63331 0.73876 0.0
H588 H 0.12959 0.6547 0.77419 0.0
H589 H 0.08592 0.61571 0.75143 0.0
H590 H 0.97823 0.63406 0.77604 0.0
H591 H 0.94949 0.63219 0.82936 0.0
loop_
_geom_bond_atom_site_label_1
_geom_bond_atom_site_label_2
_geom_bond_distance
_geom_bond_site_symmetry_2
_ccdc_geom_bond_type
Tb0 C10 2.825 . S
Tb0 O11 2.347 . S
Tb0 O14 2.366 . S
Tb0 O19 2.418 . S
Tb0 O20 2.384 1_554 S
Tb0 O23 2.479 . S
Tb0 O24 2.471 . S
Eu1 O12 2.418 . S
Eu1 O13 2.384 1_556 S
Eu1 O16 2.479 . S
Eu1 O17 2.471 . S
Eu1 O18 2.347 . S
Eu1 O21 2.366 . S
Eu1 C31 2.825 . S
C2 O18 1.259 1_554 S
C2 O19 1.265 . S
C3 O20 1.255 . S
C3 O21 1.265 . S
C4 C6 1.380 . S
C4 C7 1.374 . S
C4 C10 1.507 . S
C5 C6 1.384 . S
C5 C9 1.387 . S
C5 H32 0.930 . S
C6 C4 1.380 . S
C6 C5 1.384 . S
C6 H33 0.931 . S
C7 C4 1.374 . S
C7 C8 1.390 . S
C7 H34 0.930 . S
C8 C7 1.390 . S
C8 C9 1.391 . S
C8 H35 0.930 . S
C9 C5 1.387 . S
C9 C8 1.391 . S
C10 Tb0 2.825 . S
C10 C4 1.507 . S
C10 O23 1.238 . S
C10 O24 1.247 . S
O11 Tb0 2.347 . S
O11 C15 1.259 1_554 S
O12 Eu1 2.418 . S
O12 C15 1.265 . S
O13 Eu1 2.384 1_554 S
O13 C22 1.255 . S
O14 Tb0 2.366 . S
O14 C22 1.265 . S
C15 O11 1.259 1_556 S
C15 O12 1.265 . S
O16 Eu1 2.479 . S
O16 C31 1.238 . S
O17 Eu1 2.471 . S
O17 C31 1.247 . S
O18 Eu1 2.347 . S
O18 C2 1.259 1_556 S
O19 Tb0 2.418 . S
O19 C2 1.265 . S
O20 Tb0 2.384 1_556 S
O20 C3 1.255 . S
O21 Eu1 2.366 . S
O21 C3 1.265 . S
C22 O13 1.255 . S
C22 O14 1.265 . S
O23 Tb0 2.479 . S
O23 C10 1.238 . S
O24 Tb0 2.471 . S
O24 C10 1.247 . S
C25 C28 1.380 . S
C25 C29 1.374 . S
C25 C31 1.507 . S
C26 C27 1.387 . S
C26 C30 1.391 . S
C27 C26 1.387 . S
C27 C28 1.384 . S
C27 H36 0.930 . S
C28 C25 1.380 . S
C28 C27 1.384 . S
C28 H37 0.931 . S
C29 C25 1.374 . S
C29 C30 1.390 . S
C29 H38 0.930 . S
C30 C26 1.391 . S
C30 C29 1.390 . S
C30 H39 0.930 . S
C31 Eu1 2.825 . S
C31 O16 1.238 . S
C31 O17 1.247 . S
C31 C25 1.507 . S
H32 C5 0.930 . S
H33 C6 0.931 . S
H34 C7 0.930 . S
H35 C8 0.930 . S
H36 C27 0.930 . S
H37 C28 0.931 . S
H38 C29 0.930 . S
H39 C30 0.930 . S
Tb40 C50 2.825 . S
Tb40 O51 2.347 . S
Tb40 O54 2.366 . S
Tb40 O59 2.418 . S
Tb40 O60 2.384 1_554 S
Tb40 O63 2.479 . S
Tb40 O64 2.471 . S
Eu41 O52 2.418 . S
Eu41 O53 2.384 1_556 S
Eu41 O56 2.479 . S
Eu41 O57 2.471 . S
Eu41 O58 2.347 . S
Eu41 O61 2.366 . S
Eu41 C71 2.825 . S
C42 O58 1.259 1_554 S
C42 O59 1.265 . S
C43 O60 1.255 . S
C43 O61 1.265 . S
C44 C46 1.380 . S
C44 C47 1.374 . S
C44 C50 1.507 . S
C45 C46 1.384 . S
C45 C49 1.387 . S
C45 H72 0.930 . S
C46 C44 1.380 . S
C46 C45 1.384 . S
C46 H73 0.931 . S
C47 C44 1.374 . S
C47 C48 1.390 . S
C47 H74 0.930 . S
C48 C47 1.390 . S
C48 C49 1.391 . S
C48 H75 0.930 . S
C49 C45 1.387 . S
C49 C48 1.391 . S
C50 Tb40 2.825 . S
C50 C44 1.507 . S
C50 O63 1.238 . S
C50 O64 1.247 . S
O51 Tb40 2.347 . S
O51 C55 1.259 1_554 S
O52 Eu41 2.418 . S
O52 C55 1.265 . S
O53 Eu41 2.384 1_554 S
O53 C62 1.255 . S
O54 Tb40 2.366 . S
O54 C62 1.265 . S
C55 O51 1.259 1_556 S
C55 O52 1.265 . S
O56 Eu41 2.479 . S
O56 C71 1.238 . S
O57 Eu41 2.471 . S
O57 C71 1.247 . S
O58 Eu41 2.347 . S
O58 C42 1.259 1_556 S
O59 Tb40 2.418 . S
O59 C42 1.265 . S
O60 Tb40 2.384 1_556 S
O60 C43 1.255 . S
O61 Eu41 2.366 . S
O61 C43 1.265 . S
C62 O53 1.255 . S
C62 O54 1.265 . S
O63 Tb40 2.479 . S
O63 C50 1.238 . S
O64 Tb40 2.471 . S
O64 C50 1.247 . S
C65 C68 1.380 . S
C65 C69 1.374 . S
C65 C71 1.507 . S
C66 C67 1.387 . S
C66 C70 1.391 . S
C67 C66 1.387 . S
C67 C68 1.384 . S
C67 H76 0.930 . S
C68 C65 1.380 . S
C68 C67 1.384 . S
C68 H77 0.931 . S
C69 C65 1.374 . S
C69 C70 1.390 . S
C69 H78 0.930 . S
C70 C66 1.391 . S
C70 C69 1.390 . S
C70 H79 0.930 . S
C71 Eu41 2.825 . S
C71 O56 1.238 . S
C71 O57 1.247 . S
C71 C65 1.507 . S
H72 C45 0.930 . S
H73 C46 0.931 . S
H74 C47 0.930 . S
H75 C48 0.930 . S
H76 C67 0.930 . S
H77 C68 0.931 . S
H78 C69 0.930 . S
H79 C70 0.930 . S
Tb80 C90 2.825 . S
Tb80 O91 2.347 . S
Tb80 O94 2.366 . S
Tb80 O99 2.418 . S
Tb80 O100 2.384 . S
Tb80 O103 2.479 . S
Tb80 O104 2.471 . S
Eu81 O92 2.418 . S
Eu81 O93 2.384 . S
Eu81 O96 2.479 . S
Eu81 O97 2.471 . S
Eu81 O98 2.347 . S
Eu81 O101 2.366 . S
Eu81 C111 2.825 . S
C82 O98 1.259 . S
C82 O99 1.265 . S
C83 O100 1.255 . S
C83 O101 1.265 . S
C84 C86 1.380 . S
C84 C87 1.374 . S
C84 C90 1.507 . S
C85 C86 1.384 . S
C85 C89 1.387 . S
C85 H112 0.930 . S
C86 C84 1.380 . S
C86 C85 1.384 . S
C86 H113 0.931 . S
C87 C84 1.374 . S
C87 C88 1.390 . S
C87 H114 0.930 . S
C88 C87 1.390 . S
C88 C89 1.391 . S
C88 H115 0.930 . S
C89 C85 1.387 . S
C89 C88 1.391 . S
C90 Tb80 2.825 . S
C90 C84 1.507 . S
C90 O103 1.238 . S
C90 O104 1.247 . S
O91 Tb80 2.347 . S
O91 C95 1.259 . S
O92 Eu81 2.418 . S
O92 C95 1.265 . S
O93 Eu81 2.384 . S
O93 C102 1.255 . S
O94 Tb80 2.366 . S
O94 C102 1.265 . S
C95 O91 1.259 . S
C95 O92 1.265 . S
O96 Eu81 2.479 . S
O96 C111 1.238 . S
O97 Eu81 2.471 . S
O97 C111 1.247 . S
O98 Eu81 2.347 . S
O98 C82 1.259 . S
O99 Tb80 2.418 . S
O99 C82 1.265 . S
O100 Tb80 2.384 . S
O100 C83 1.255 . S
O101 Eu81 2.366 . S
O101 C83 1.265 . S
C102 O93 1.255 . S
C102 O94 1.265 . S
O103 Tb80 2.479 . S
O103 C90 1.238 . S
O104 Tb80 2.471 . S
O104 C90 1.247 . S
C105 C108 1.380 . S
C105 C109 1.374 . S
C105 C111 1.507 . S
C106 C107 1.387 . S
C106 C110 1.391 . S
C107 C106 1.387 . S
C107 C108 1.384 . S
C107 H116 0.930 . S
C108 C105 1.380 . S
C108 C107 1.384 . S
C108 H117 0.931 . S
C109 C105 1.374 . S
C109 C110 1.390 . S
C109 H118 0.930 . S
C110 C106 1.391 . S
C110 C109 1.390 . S
C110 H119 0.930 . S
C111 Eu81 2.825 . S
C111 O96 1.238 . S
C111 O97 1.247 . S
C111 C105 1.507 . S
H112 C85 0.930 . S
H113 C86 0.931 . S
H114 C87 0.930 . S
H115 C88 0.930 . S
H116 C107 0.930 . S
H117 C108 0.931 . S
H118 C109 0.930 . S
H119 C110 0.930 . S
Tb120 C130 2.825 . S
Tb120 O131 2.347 . S
Tb120 O134 2.366 . S
Tb120 O139 2.418 . S
Tb120 O140 2.384 . S
Tb120 O143 2.479 . S
Tb120 O144 2.471 . S
Eu121 O132 2.418 . S
Eu121 O133 2.384 . S
Eu121 O136 2.479 . S
Eu121 O137 2.471 . S
Eu121 O138 2.347 . S
Eu121 O141 2.366 . S
Eu121 C151 2.825 . S
C122 O138 1.259 . S
C122 O139 1.265 . S
C123 O140 1.255 . S
C123 O141 1.265 . S
C124 C126 1.380 . S
C124 C127 1.374 . S
C124 C130 1.507 . S
C125 C126 1.384 . S
C125 C129 1.387 . S
C125 H152 0.930 . S
C126 C124 1.380 . S
C126 C125 1.384 . S
C126 H153 0.931 . S
C127 C124 1.374 . S
C127 C128 1.390 . S
C127 H154 0.930 . S
C128 C127 1.390 . S
C128 C129 1.391 . S
C128 H155 0.930 . S
C129 C125 1.387 . S
C129 C128 1.391 . S
C130 Tb120 2.825 . S
C130 C124 1.507 . S
C130 O143 1.238 . S
C130 O144 1.247 . S
O131 Tb120 2.347 . S
O131 C135 1.259 . S
O132 Eu121 2.418 . S
O132 C135 1.265 . S
O133 Eu121 2.384 . S
O133 C142 1.255 . S
O134 Tb120 2.366 . S
O134 C142 1.265 . S
C135 O131 1.259 . S
C135 O132 1.265 . S
O136 Eu121 2.479 . S
O136 C151 1.238 . S
O137 Eu121 2.471 . S
O137 C151 1.247 . S
O138 Eu121 2.347 . S
O138 C122 1.259 . S
O139 Tb120 2.418 . S
O139 C122 1.265 . S
O140 Tb120 2.384 . S
O140 C123 1.255 . S
O141 Eu121 2.366 . S
O141 C123 1.265 . S
C142 O133 1.255 . S
C142 O134 1.265 . S
O143 Tb120 2.479 . S
O143 C130 1.238 . S
O144 Tb120 2.471 . S
O144 C130 1.247 . S
C145 C148 1.380 . S
C145 C149 1.374 . S
C145 C151 1.507 . S
C146 C147 1.387 . S
C146 C150 1.391 . S
C147 C146 1.387 . S
C147 C148 1.384 . S
C147 H156 0.930 . S
C148 C145 1.380 . S
C148 C147 1.384 . S
C148 H157 0.931 . S
C149 C145 1.374 . S
C149 C150 1.390 . S
C149 H158 0.930 . S
C150 C146 1.391 . S
C150 C149 1.390 . S
C150 H159 0.930 . S
C151 Eu121 2.825 . S
C151 O136 1.238 . S
C151 O137 1.247 . S
C151 C145 1.507 . S
H152 C125 0.930 . S
H153 C126 0.931 . S
H154 C127 0.930 . S
H155 C128 0.930 . S
H156 C147 0.930 . S
H157 C148 0.931 . S
H158 C149 0.930 . S
H159 C150 0.930 . S
H160 C168 0.929 . S
H161 C170 0.930 . S
H162 C172 0.930 . S
H163 C175 0.929 . S
H164 C178 0.930 . S
H165 C180 0.960 . S
H166 C180 0.960 . S
H167 C180 0.960 . S
C168 H160 0.929 . S
C168 C169 1.377 . S
C168 C170 1.384 . S
C169 C168 1.377 . S
C169 C175 1.390 1_554 S
C170 H161 0.930 . S
C170 C168 1.384 . S
C170 C171 1.372 . S
C171 C170 1.372 . S
C171 C172 1.400 1_554 S
C171 C176 1.490 . S
C172 H162 0.930 . S
C172 C171 1.400 1_556 S
C172 C175 1.386 . S
H173 C189 0.930 1_556 S
H174 C190 0.931 . S
C175 H163 0.929 . S
C175 C169 1.390 1_556 S
C175 C172 1.386 . S
C176 C171 1.490 . S
C176 C178 1.395 . S
C176 C179 1.403 1_554 S
H177 C183 0.930 . S
C178 H164 0.930 . S
C178 C176 1.395 . S
C178 C181 1.403 . S
C179 C176 1.403 1_556 S
C179 C180 1.524 . S
C179 C183 1.400 . S
C180 H165 0.960 . S
C180 H166 0.960 . S
C180 H167 0.960 . S
C180 C179 1.524 . S
C181 C178 1.403 . S
C181 C182 1.392 . S
C181 C185 1.495 . S
C182 C181 1.392 . S
C182 C183 1.385 1_554 S
C182 C184 1.478 . S
C183 H177 0.930 . S
C183 C179 1.400 . S
C183 C182 1.385 1_556 S
C184 C182 1.478 . S
C184 C186 1.381 . S
C184 C190 1.383 . S
C185 C181 1.495 . S
C185 H191 0.959 . S
C185 H192 0.961 . S
C185 H193 0.960 . S
C186 C184 1.381 . S
C186 C187 1.394 . S
C186 H194 0.930 . S
C187 C186 1.394 . S
C187 C188 1.383 . S
C187 H195 0.929 . S
C188 C187 1.383 . S
C188 C189 1.377 . S
C189 H173 0.930 1_554 S
C189 C188 1.377 . S
C189 C190 1.379 . S
C190 H174 0.931 . S
C190 C184 1.383 . S
C190 C189 1.379 . S
H191 C185 0.959 . S
H192 C185 0.961 . S
H193 C185 0.960 . S
H194 C186 0.930 . S
H195 C187 0.929 . S
H196 C204 0.929 . S
H197 C206 0.930 . S
H198 C208 0.930 . S
H199 C211 0.929 . S
H200 C214 0.930 . S
H201 C216 0.960 . S
H202 C216 0.960 . S
H203 C216 0.960 . S
C204 H196 0.929 . S
C204 C205 1.377 . S
C204 C206 1.384 . S
C205 C204 1.377 . S
C205 C211 1.390 . S
C206 H197 0.930 . S
C206 C204 1.384 . S
C206 C207 1.372 . S
C207 C206 1.372 . S
C207 C208 1.400 . S
C207 C212 1.490 . S
C208 H198 0.930 . S
C208 C207 1.400 . S
C208 C211 1.386 . S
H209 C225 0.930 . S
H210 C226 0.931 . S
C211 H199 0.929 . S
C211 C205 1.390 . S
C211 C208 1.386 . S
C212 C207 1.490 . S
C212 C214 1.395 . S
C212 C215 1.403 . S
H213 C219 0.930 . S
C214 H200 0.930 . S
C214 C212 1.395 . S
C214 C217 1.403 . S
C215 C212 1.403 . S
C215 C216 1.524 . S
C215 C219 1.400 . S
C216 H201 0.960 . S
C216 H202 0.960 . S
C216 H203 0.960 . S
C216 C215 1.524 . S
C217 C214 1.403 . S
C217 C218 1.392 . S
C217 C221 1.495 . S
C218 C217 1.392 . S
C218 C219 1.385 . S
C218 C220 1.478 . S
C219 H213 0.930 . S
C219 C215 1.400 . S
C219 C218 1.385 . S
C220 C218 1.478 . S
C220 C222 1.381 . S
C220 C226 1.383 . S
C221 C217 1.495 . S
C221 H227 0.959 . S
C221 H228 0.961 . S
C221 H229 0.960 . S
C222 C220 1.381 . S
C222 C223 1.394 . S
C222 H230 0.930 . S
C223 C222 1.394 . S
C223 C224 1.383 . S
C223 H231 0.929 . S
C224 C223 1.383 . S
C224 C225 1.377 . S
C225 H209 0.930 . S
C225 C224 1.377 . S
C225 C226 1.379 . S
C226 H210 0.931 . S
C226 C220 1.383 . S
C226 C225 1.379 . S
H227 C221 0.959 . S
H228 C221 0.961 . S
H229 C221 0.960 . S
H230 C222 0.930 . S
H231 C223 0.929 . S
H232 C240 0.929 . S
H233 C242 0.930 . S
H234 C244 0.930 . S
H235 C247 0.929 . S
H236 C250 0.930 . S
H237 C252 0.960 . S
H238 C252 0.960 1_545 S
H239 C252 0.934 1_546 S
C240 H232 0.929 . S
C240 C241 1.377 . S
C240 C242 1.384 . S
C241 C240 1.377 . S
C241 C247 1.390 1_554 S
C242 H233 0.930 . S
C242 C240 1.384 . S
C242 C243 1.372 . S
C243 C242 1.372 . S
C243 C244 1.400 1_554 S
C243 C248 1.490 . S
C244 H234 0.930 . S
C244 C243 1.400 1_556 S
C244 C247 1.386 . S
H245 C261 0.930 . S
H246 C262 0.931 . S
C247 H235 0.929 . S
C247 C241 1.390 1_556 S
C247 C244 1.386 . S
C248 C243 1.490 . S
C248 C250 1.395 1_454 S
C248 C251 1.403 1_545 S
H249 C255 0.930 . S
C250 H236 0.930 . S
C250 C248 1.395 1_656 S
C250 C253 1.403 . S
C251 C248 1.403 1_565 S
C251 C252 1.524 . S
C251 C255 1.400 . S
C252 H237 0.960 . S
C252 H238 0.960 1_565 S
C252 H239 0.934 1_564 S
C252 C251 1.524 . S
C253 C250 1.403 . S
C253 C254 1.392 1_546 S
C253 C257 1.495 . S
C254 C253 1.392 1_564 S
C254 C255 1.385 1_655 S
C254 C256 1.477 . S
C255 H249 0.930 . S
C255 C251 1.400 . S
C255 C254 1.385 1_455 S
C256 C254 1.477 . S
C256 C258 1.396 . S
C256 C262 1.369 1_554 S
C257 C253 1.495 . S
C257 H263 0.959 . S
C257 H264 0.961 1_545 S
C257 H265 0.960 1_556 S
C258 C256 1.396 . S
C258 C259 1.394 . S
C258 H266 0.930 . S
C259 C258 1.394 . S
C259 C260 1.383 . S
C259 H267 0.929 . S
C260 C259 1.383 . S
C260 C261 1.377 1_554 S
C261 H245 0.930 . S
C261 C260 1.377 1_556 S
C261 C262 1.379 . S
C262 H246 0.931 . S
C262 C256 1.369 1_556 S
C262 C261 1.379 . S
H263 C257 0.959 . S
H264 C257 0.961 1_565 S
H265 C257 0.960 1_554 S
H266 C258 0.930 . S
H267 C259 0.929 . S
H268 C276 0.929 . S
H269 C278 0.930 . S
H270 C280 0.930 . S
H271 C283 0.929 . S
H272 C286 0.931 . S
H273 C288 0.960 . S
H274 C288 0.960 . S
H275 C288 0.960 . S
C276 H268 0.929 . S
C276 C277 1.377 . S
C276 C278 1.384 . S
C277 C276 1.377 . S
C277 C283 1.390 . S
C278 H269 0.930 . S
C278 C276 1.384 . S
C278 C279 1.372 . S
C279 C278 1.372 . S
C279 C280 1.400 . S
C279 C284 1.490 . S
C280 H270 0.930 . S
C280 C279 1.400 . S
C280 C283 1.386 . S
H281 C297 0.930 . S
H282 C298 0.931 . S
C283 H271 0.929 . S
C283 C277 1.390 . S
C283 C280 1.386 . S
C284 C279 1.490 . S
C284 C286 1.395 1_545 S
C284 C287 1.403 1_655 S
H285 C291 0.930 . S
C286 H272 0.931 . S
C286 C284 1.395 1_565 S
C286 C289 1.403 . S
C287 C284 1.403 1_455 S
C287 C288 1.524 . S
C287 C291 1.400 1_545 S
C288 H273 0.960 . S
C288 H274 0.960 . S
C288 H275 0.960 . S
C288 C287 1.524 . S
C289 C286 1.403 . S
C289 C290 1.392 1_655 S
C289 C293 1.495 . S
C290 C289 1.392 1_455 S
C290 C291 1.385 . S
C290 C292 1.478 . S
C291 H285 0.930 . S
C291 C287 1.400 1_565 S
C291 C290 1.385 . S
C292 C290 1.478 . S
C292 C294 1.381 . S
C292 C298 1.383 . S
C293 C289 1.495 . S
C293 H299 0.959 . S
C293 H300 0.961 . S
C293 H301 0.960 . S
C294 C292 1.381 . S
C294 C295 1.394 . S
C294 H302 0.930 . S
C295 C294 1.394 . S
C295 C296 1.383 . S
C295 H303 0.929 . S
C296 C295 1.383 . S
C296 C297 1.377 . S
C297 H281 0.930 . S
C297 C296 1.377 . S
C297 C298 1.379 . S
C298 H282 0.931 . S
C298 C292 1.383 . S
C298 C297 1.379 . S
H299 C293 0.959 . S
H300 C293 0.961 . S
H301 C293 0.960 . S
H302 C294 0.930 . S
H303 C295 0.929 . S
H304 C312 0.929 . S
H305 C314 0.930 . S
H306 C316 0.930 . S
H307 C319 0.929 . S
H308 C322 0.930 . S
H309 C324 0.960 . S
H310 C324 0.960 . S
H311 C324 0.960 . S
C312 H304 0.929 . S
C312 C313 1.377 . S
C312 C314 1.384 . S
C313 C312 1.377 . S
C313 C319 1.390 . S
C314 H305 0.930 . S
C314 C312 1.384 . S
C314 C315 1.372 . S
C315 C314 1.372 . S
C315 C316 1.400 . S
C315 C320 1.490 . S
C316 H306 0.930 . S
C316 C315 1.400 . S
C316 C319 1.386 . S
H317 C333 0.930 . S
H318 C334 0.931 . S
C319 H307 0.929 . S
C319 C313 1.390 . S
C319 C316 1.386 . S
C320 C315 1.490 . S
C320 C322 1.395 . S
C320 C323 1.403 . S
H321 C327 0.930 . S
C322 H308 0.930 . S
C322 C320 1.395 . S
C322 C325 1.403 . S
C323 C320 1.403 . S
C323 C324 1.524 . S
C323 C327 1.400 . S
C324 H309 0.960 . S
C324 H310 0.960 . S
C324 H311 0.960 . S
C324 C323 1.524 . S
C325 C322 1.403 . S
C325 C326 1.392 . S
C325 C329 1.495 . S
C326 C325 1.392 . S
C326 C327 1.385 . S
C326 C328 1.478 . S
C327 H321 0.930 . S
C327 C323 1.400 . S
C327 C326 1.385 . S
C328 C326 1.478 . S
C328 C330 1.381 . S
C328 C334 1.383 . S
C329 C325 1.495 . S
C329 H335 0.959 . S
C329 H336 0.961 . S
C329 H337 0.960 . S
C330 C328 1.381 . S
C330 C331 1.394 . S
C330 H338 0.930 . S
C331 C330 1.394 . S
C331 C332 1.383 . S
C331 H339 0.929 . S
C332 C331 1.383 . S
C332 C333 1.377 . S
C333 H317 0.930 . S
C333 C332 1.377 . S
C333 C334 1.379 . S
C334 H318 0.931 . S
C334 C328 1.383 . S
C334 C333 1.379 . S
H335 C329 0.959 . S
H336 C329 0.961 . S
H337 C329 0.960 . S
H338 C330 0.930 . S
H339 C331 0.929 . S
H340 C348 0.929 . S
H341 C350 0.930 . S
H342 C352 0.930 . S
H343 C355 0.929 . S
H344 C358 0.930 . S
H345 C360 0.960 . S
H346 C360 0.960 . S
H347 C360 0.960 . S
C348 H340 0.929 . S
C348 C349 1.377 . S
C348 C350 1.384 . S
C349 C348 1.377 . S
C349 C355 1.390 . S
C350 H341 0.930 . S
C350 C348 1.384 . S
C350 C351 1.372 . S
C351 C350 1.372 . S
C351 C352 1.400 . S
C351 C356 1.490 . S
C352 H342 0.930 . S
C352 C351 1.400 . S
C352 C355 1.386 . S
H353 C369 0.930 . S
H354 C370 0.931 . S
C355 H343 0.929 . S
C355 C349 1.390 . S
C355 C352 1.386 . S
C356 C351 1.490 . S
C356 C358 1.395 . S
C356 C359 1.403 . S
H357 C363 0.930 . S
C358 H344 0.930 . S
C358 C356 1.395 . S
C358 C361 1.403 . S
C359 C356 1.403 . S
C359 C360 1.524 . S
C359 C363 1.400 . S
C360 H345 0.960 . S
C360 H346 0.960 . S
C360 H347 0.960 . S
C360 C359 1.524 . S
C361 C358 1.403 . S
C361 C362 1.392 . S
C361 C365 1.495 . S
C362 C361 1.392 . S
C362 C363 1.385 . S
C362 C364 1.478 . S
C363 H357 0.930 . S
C363 C359 1.400 . S
C363 C362 1.385 . S
C364 C362 1.478 . S
C364 C366 1.381 . S
C364 C370 1.383 . S
C365 C361 1.495 . S
C365 H371 0.959 . S
C365 H372 0.961 . S
C365 H373 0.960 . S
C366 C364 1.381 . S
C366 C367 1.394 . S
C366 H374 0.930 . S
C367 C366 1.394 . S
C367 C368 1.383 . S
C367 H375 0.929 . S
C368 C367 1.383 . S
C368 C369 1.377 . S
C369 H353 0.930 . S
C369 C368 1.377 . S
C369 C370 1.379 . S
C370 H354 0.931 . S
C370 C364 1.383 . S
C370 C369 1.379 . S
H371 C365 0.959 . S
H372 C365 0.961 . S
H373 C365 0.960 . S
H374 C366 0.930 . S
H375 C367 0.929 . S
H376 C384 0.929 . S
H377 C386 0.930 . S
H378 C388 0.930 . S
H379 C391 0.929 . S
H380 C394 0.930 . S
H381 C396 0.960 . S
H382 C396 0.960 . S
H383 C396 0.960 . S
C384 H376 0.929 . S
C384 C385 1.377 . S
C384 C386 1.384 . S
C385 C384 1.377 . S
C385 C391 1.390 . S
C386 H377 0.930 . S
C386 C384 1.384 . S
C386 C387 1.372 . S
C387 C386 1.372 . S
C387 C388 1.400 . S
C387 C392 1.490 . S
C388 H378 0.930 . S
C388 C387 1.400 . S
C388 C391 1.386 . S
H389 C405 0.930 . S
H390 C406 0.931 . S
C391 H379 0.929 . S
C391 C385 1.390 . S
C391 C388 1.386 . S
C392 C387 1.490 . S
C392 C394 1.395 . S
C392 C395 1.403 . S
H393 C399 0.930 . S
C394 H380 0.930 . S
C394 C392 1.395 . S
C394 C397 1.403 . S
C395 C392 1.403 . S
C395 C396 1.524 . S
C395 C399 1.400 . S
C396 H381 0.960 . S
C396 H382 0.960 . S
C396 H383 0.960 . S
C396 C395 1.524 . S
C397 C394 1.403 . S
C397 C398 1.392 . S
C397 C401 1.495 . S
C398 C397 1.392 . S
C398 C399 1.385 . S
C398 C400 1.478 . S
C399 H393 0.930 . S
C399 C395 1.400 . S
C399 C398 1.385 . S
C400 C398 1.478 . S
C400 C402 1.381 . S
C400 C406 1.383 . S
C401 C397 1.495 . S
C401 H407 0.959 . S
C401 H408 0.961 . S
C401 H409 0.960 . S
C402 C400 1.381 . S
C402 C403 1.394 . S
C402 H410 0.930 . S
C403 C402 1.394 . S
C403 C404 1.383 . S
C403 H411 0.929 . S
C404 C403 1.383 . S
C404 C405 1.377 . S
C405 H389 0.930 . S
C405 C404 1.377 . S
C405 C406 1.379 . S
C406 H390 0.931 . S
C406 C400 1.383 . S
C406 C405 1.379 . S
H407 C401 0.959 . S
H408 C401 0.961 . S
H409 C401 0.960 . S
H410 C402 0.930 . S
H411 C403 0.929 . S
H412 C420 0.929 . S
H413 C422 0.930 . S
H414 C424 0.930 . S
H415 C427 0.929 . S
H416 C430 0.930 . S
H417 C432 0.960 . S
H418 C432 0.960 . S
H419 C432 0.960 . S
C420 H412 0.929 . S
C420 C421 1.377 . S
C420 C422 1.384 . S
C421 C420 1.377 . S
C421 C427 1.390 . S
C422 H413 0.930 . S
C422 C420 1.384 . S
C422 C423 1.372 . S
C423 C422 1.372 . S
C423 C424 1.400 . S
C423 C428 1.490 . S
C424 H414 0.930 . S
C424 C423 1.400 . S
C424 C427 1.386 . S
H425 C441 0.930 . S
H426 C442 0.931 . S
C427 H415 0.929 . S
C427 C421 1.390 . S
C427 C424 1.386 . S
C428 C423 1.490 . S
C428 C430 1.395 . S
C428 C431 1.403 . S
H429 C435 0.930 . S
C430 H416 0.930 . S
C430 C428 1.395 . S
C430 C433 1.403 . S
C431 C428 1.403 . S
C431 C432 1.524 . S
C431 C435 1.400 . S
C432 H417 0.960 . S
C432 H418 0.960 . S
C432 H419 0.960 . S
C432 C431 1.524 . S
C433 C430 1.403 . S
C433 C434 1.392 . S
C433 C437 1.495 . S
C434 C433 1.392 . S
C434 C435 1.385 . S
C434 C436 1.478 . S
C435 H429 0.930 . S
C435 C431 1.400 . S
C435 C434 1.385 . S
C436 C434 1.478 . S
C436 C438 1.381 . S
C436 C442 1.383 . S
C437 C433 1.495 . S
C437 H443 0.959 . S
C437 H444 0.961 . S
C437 H445 0.960 . S
C438 C436 1.381 . S
C438 C439 1.394 . S
C438 H446 0.930 . S
C439 C438 1.394 . S
C439 C440 1.383 . S
C439 H447 0.929 . S
C440 C439 1.383 . S
C440 C441 1.377 . S
C441 H425 0.930 . S
C441 C440 1.377 . S
C441 C442 1.379 . S
C442 H426 0.931 . S
C442 C436 1.383 . S
C442 C441 1.379 . S
H443 C437 0.959 . S
H444 C437 0.961 . S
H445 C437 0.960 . S
H446 C438 0.930 . S
H447 C439 0.929 . S
H448 C456 0.929 . S
H449 C458 0.930 . S
H450 C460 0.930 . S
H451 C463 0.929 . S
H452 C466 0.930 1_455 S
H453 C468 0.960 . S
H454 C468 0.960 . S
H455 C468 0.960 . S
C456 H448 0.929 . S
C456 C457 1.377 . S
C456 C458 1.384 . S
C457 C456 1.377 . S
C457 C463 1.390 . S
C458 H449 0.930 . S
C458 C456 1.384 . S
C458 C459 1.372 . S
C459 C458 1.372 . S
C459 C460 1.400 . S
C459 C464 1.490 . S
C460 H450 0.930 . S
C460 C459 1.400 . S
C460 C463 1.386 . S
H461 C477 0.930 . S
H462 C478 0.931 . S
C463 H451 0.929 . S
C463 C457 1.390 . S
C463 C460 1.386 . S
C464 C459 1.490 . S
C464 C466 1.395 . S
C464 C467 1.403 . S
H465 C471 0.930 . S
C466 H452 0.930 1_655 S
C466 C464 1.395 . S
C466 C469 1.403 1_655 S
C467 C464 1.403 . S
C467 C468 1.524 . S
C467 C471 1.400 . S
C468 H453 0.960 . S
C468 H454 0.960 . S
C468 H455 0.960 . S
C468 C467 1.524 . S
C469 C466 1.403 1_455 S
C469 C470 1.392 1_455 S
C469 C473 1.495 . S
C470 C469 1.392 1_655 S
C470 C471 1.385 . S
C470 C472 1.478 . S
C471 H465 0.930 . S
C471 C467 1.400 . S
C471 C470 1.385 . S
C472 C470 1.478 . S
C472 C474 1.381 1_655 S
C472 C478 1.383 . S
C473 C469 1.495 . S
C473 H479 0.959 . S
C473 H480 0.961 . S
C473 H481 0.960 . S
C474 C472 1.381 1_455 S
C474 C475 1.394 . S
C474 H482 0.930 . S
C475 C474 1.394 . S
C475 C476 1.383 . S
C475 H483 0.929 . S
C476 C475 1.383 . S
C476 C477 1.377 1_455 S
C477 H461 0.930 . S
C477 C476 1.377 1_655 S
C477 C478 1.379 . S
C478 H462 0.931 . S
C478 C472 1.383 . S
C478 C477 1.379 . S
H479 C473 0.959 . S
H480 C473 0.961 . S
H481 C473 0.960 . S
H482 C474 0.930 . S
H483 C475 0.929 . S
H484 C492 0.929 . S
H485 C494 0.930 . S
H486 C496 0.930 . S
H487 C499 0.929 . S
H488 C502 0.930 . S
H489 C504 0.960 . S
H490 C504 0.960 . S
H491 C504 0.960 . S
C492 H484 0.929 . S
C492 C493 1.377 . S
C492 C494 1.384 . S
C493 C492 1.377 . S
C493 C499 1.390 . S
C494 H485 0.930 . S
C494 C492 1.384 . S
C494 C495 1.372 . S
C495 C494 1.372 . S
C495 C496 1.400 . S
C495 C500 1.490 . S
C496 H486 0.930 . S
C496 C495 1.400 . S
C496 C499 1.386 . S
H497 C513 0.930 . S
H498 C514 0.931 . S
C499 H487 0.929 . S
C499 C493 1.390 . S
C499 C496 1.386 . S
C500 C495 1.490 . S
C500 C502 1.395 . S
C500 C503 1.403 . S
H501 C507 0.930 . S
C502 H488 0.930 . S
C502 C500 1.395 . S
C502 C505 1.403 . S
C503 C500 1.403 . S
C503 C504 1.524 . S
C503 C507 1.400 . S
C504 H489 0.960 . S
C504 H490 0.960 . S
C504 H491 0.960 . S
C504 C503 1.524 . S
C505 C502 1.403 . S
C505 C506 1.392 . S
C505 C509 1.495 . S
C506 C505 1.392 . S
C506 C507 1.385 . S
C506 C508 1.478 . S
C507 H501 0.930 . S
C507 C503 1.400 . S
C507 C506 1.385 . S
C508 C506 1.478 . S
C508 C510 1.381 . S
C508 C514 1.383 1_655 S
C509 C505 1.495 . S
C509 H515 0.959 . S
C509 H516 0.961 . S
C509 H517 0.960 . S
C510 C508 1.381 . S
C510 C511 1.394 . S
C510 H518 0.930 . S
C511 C510 1.394 . S
C511 C512 1.383 1_655 S
C511 H519 0.929 . S
C512 C511 1.383 1_455 S
C512 C513 1.377 . S
C513 H497 0.930 . S
C513 C512 1.377 . S
C513 C514 1.379 . S
C514 H498 0.931 . S
C514 C508 1.383 1_455 S
C514 C513 1.379 . S
H515 C509 0.959 . S
H516 C509 0.961 . S
H517 C509 0.960 . S
H518 C510 0.930 . S
H519 C511 0.929 . S
H520 C528 0.929 . S
H521 C530 0.930 . S
H522 C532 0.930 . S
H523 C535 0.929 . S
H524 C538 0.930 . S
H525 C540 0.960 . S
H526 C540 0.960 . S
H527 C540 0.960 . S
C528 H520 0.929 . S
C528 C529 1.377 . S
C528 C530 1.384 . S
C529 C528 1.377 . S
C529 C535 1.390 1_655 S
C530 H521 0.930 . S
C530 C528 1.384 . S
C530 C531 1.372 1_655 S
C531 C530 1.372 1_455 S
C531 C532 1.400 . S
C531 C536 1.490 . S
C532 H522 0.930 . S
C532 C531 1.400 . S
C532 C535 1.386 . S
H533 C549 0.930 . S
H534 C550 0.931 . S
C535 H523 0.929 . S
C535 C529 1.390 1_455 S
C535 C532 1.386 . S
C536 C531 1.490 . S
C536 C538 1.395 1_455 S
C536 C539 1.403 . S
H537 C543 0.930 . S
C538 H524 0.930 . S
C538 C536 1.395 1_655 S
C538 C541 1.403 1_655 S
C539 C536 1.403 . S
C539 C540 1.524 . S
C539 C543 1.400 . S
C540 H525 0.960 . S
C540 H526 0.960 . S
C540 H527 0.960 . S
C540 C539 1.524 . S
C541 C538 1.403 1_455 S
C541 C542 1.392 . S
C541 C545 1.495 1_455 S
C542 C541 1.392 . S
C542 C543 1.385 . S
C542 C544 1.478 . S
C543 H537 0.930 . S
C543 C539 1.400 . S
C543 C542 1.385 . S
C544 C542 1.478 . S
C544 C546 1.381 . S
C544 C550 1.383 . S
C545 C541 1.495 1_655 S
C545 H551 0.959 . S
C545 H552 0.961 . S
C545 H553 0.960 . S
C546 C544 1.381 . S
C546 C547 1.394 . S
C546 H554 0.930 . S
C547 C546 1.394 . S
C547 C548 1.383 . S
C547 H555 0.929 . S
C548 C547 1.383 . S
C548 C549 1.377 . S
C549 H533 0.930 . S
C549 C548 1.377 . S
C549 C550 1.379 . S
C550 H534 0.931 . S
C550 C544 1.383 . S
C550 C549 1.379 . S
H551 C545 0.959 . S
H552 C545 0.961 . S
H553 C545 0.960 . S
H554 C546 0.930 . S
H555 C547 0.929 . S
H556 C564 0.929 . S
H557 C566 0.930 . S
H558 C568 0.930 . S
H559 C571 0.929 . S
H560 C574 0.930 . S
H561 C576 0.960 . S
H562 C576 0.960 . S
H563 C576 0.960 . S
C564 H556 0.929 . S
C564 C565 1.377 . S
C564 C566 1.384 . S
C565 C564 1.377 . S
C565 C571 1.390 . S
C566 H557 0.930 . S
C566 C564 1.384 . S
C566 C567 1.372 . S
C567 C566 1.372 . S
C567 C568 1.400 . S
C567 C572 1.490 . S
C568 H558 0.930 . S
C568 C567 1.400 . S
C568 C571 1.386 . S
H569 C585 0.930 . S
H570 C586 0.931 . S
C571 H559 0.929 . S
C571 C565 1.390 . S
C571 C568 1.386 . S
C572 C567 1.490 . S
C572 C574 1.395 . S
C572 C575 1.403 . S
H573 C579 0.930 . S
C574 H560 0.930 . S
C574 C572 1.395 . S
C574 C577 1.403 . S
C575 C572 1.403 . S
C575 C576 1.524 . S
C575 C579 1.400 . S
C576 H561 0.960 . S
C576 H562 0.960 . S
C576 H563 0.960 . S
C576 C575 1.524 . S
C577 C574 1.403 . S
C577 C578 1.392 . S
C577 C581 1.495 . S
C578 C577 1.392 . S
C578 C579 1.385 . S
C578 C580 1.478 . S
C579 H573 0.930 . S
C579 C575 1.400 . S
C579 C578 1.385 . S
C580 C578 1.478 . S
C580 C582 1.381 1_455 S
C580 C586 1.383 . S
C581 C577 1.495 . S
C581 H587 0.959 . S
C581 H588 0.961 . S
C581 H589 0.960 1_455 S
C582 C580 1.381 1_655 S
C582 C583 1.394 . S
C582 H590 0.930 . S
C583 C582 1.394 . S
C583 C584 1.383 . S
C583 H591 0.929 . S
C584 C583 1.383 . S
C584 C585 1.377 1_655 S
C585 H569 0.930 . S
C585 C584 1.377 1_455 S
C585 C586 1.379 . S
C586 H570 0.931 . S
C586 C580 1.383 . S
C586 C585 1.379 . S
H587 C581 0.959 . S
H588 C581 0.961 . S
H589 C581 0.960 1_655 S
H590 C582 0.930 . S
H591 C583 0.929 . S
C169 C55 1.501 1_554 S
C188 C2 1.492 . S
C205 C82 1.505 . S
C224 C135 1.492 . S
C241 C15 1.506 1_554 S
C260 C42 1.494 . S
C277 C122 1.506 . S
C296 C95 1.515 . S
C313 C129 1.225 . S
C332 C22 1.217 . S
C349 C49 1.224 . S
C368 C102 1.227 . S
C385 C43 1.223 . S
C404 C106 1.218 . S
C421 C123 1.223 . S
C440 C26 1.223 . S
C457 C62 1.224 . S
C476 C89 1.222 . S
C493 C142 1.223 . S
C512 C9 1.226 . S
C529 C146 1.225 . S
C548 C3 1.227 . S
C565 C83 1.224 . S
C584 C66 1.226 . S
