# Generated by pormake.
# Topology smm, (6)-cn, num edge types: 1
# Building blocks:
#     Node 0, Type 0, BuildingBlock: BETDIP_clean_sbu_0, # of connection points: 6
#     Node 1, Type 0, BuildingBlock: BETDIP_clean_sbu_0, # of connection points: 6
#     Node 2, Type 0, BuildingBlock: BETDIP_clean_sbu_0, # of connection points: 6
#     Node 3, Type 0, BuildingBlock: BETDIP_clean_sbu_0, # of connection points: 6
#     Node 4, Type 0, BuildingBlock: BETDIP_clean_sbu_0, # of connection points: 6
#     Node 5, Type 0, BuildingBlock: BETDIP_clean_sbu_0, # of connection points: 6
#     Node 6, Type 0, BuildingBlock: BETDIP_clean_sbu_0, # of connection points: 6
#     Node 7, Type 0, BuildingBlock: BETDIP_clean_sbu_0, # of connection points: 6
#     Node 8, Type 0, BuildingBlock: BETDIP_clean_sbu_0, # of connection points: 6
#     Edge 9, Type (0, 0), BuildingBlock: AJUNOK_clean_linker_0, # of connection points: 2
#     Edge 10, Type (0, 0), BuildingBlock: AJUNOK_clean_linker_0, # of connection points: 2
#     Edge 11, Type (0, 0), BuildingBlock: AJUNOK_clean_linker_0, # of connection points: 2
#     Edge 12, Type (0, 0), BuildingBlock: AJUNOK_clean_linker_0, # of connection points: 2
#     Edge 13, Type (0, 0), BuildingBlock: AJUNOK_clean_linker_0, # of connection points: 2
#     Edge 14, Type (0, 0), BuildingBlock: AJUNOK_clean_linker_0, # of connection points: 2
#     Edge 15, Type (0, 0), BuildingBlock: AJUNOK_clean_linker_0, # of connection points: 2
#     Edge 16, Type (0, 0), BuildingBlock: AJUNOK_clean_linker_0, # of connection points: 2
#     Edge 17, Type (0, 0), BuildingBlock: AJUNOK_clean_linker_0, # of connection points: 2
#     Edge 18, Type (0, 0), BuildingBlock: AJUNOK_clean_linker_0, # of connection points: 2
#     Edge 19, Type (0, 0), BuildingBlock: AJUNOK_clean_linker_0, # of connection points: 2
#     Edge 20, Type (0, 0), BuildingBlock: AJUNOK_clean_linker_0, # of connection points: 2
#     Edge 21, Type (0, 0), BuildingBlock: AJUNOK_clean_linker_0, # of connection points: 2
#     Edge 22, Type (0, 0), BuildingBlock: AJUNOK_clean_linker_0, # of connection points: 2
#     Edge 23, Type (0, 0), BuildingBlock: AJUNOK_clean_linker_0, # of connection points: 2
#     Edge 24, Type (0, 0), BuildingBlock: AJUNOK_clean_linker_0, # of connection points: 2
#     Edge 25, Type (0, 0), BuildingBlock: AJUNOK_clean_linker_0, # of connection points: 2
#     Edge 26, Type (0, 0), BuildingBlock: AJUNOK_clean_linker_0, # of connection points: 2
#     Edge 27, Type (0, 0), BuildingBlock: AJUNOK_clean_linker_0, # of connection points: 2
#     Edge 28, Type (0, 0), BuildingBlock: AJUNOK_clean_linker_0, # of connection points: 2
#     Edge 29, Type (0, 0), BuildingBlock: AJUNOK_clean_linker_0, # of connection points: 2
#     Edge 30, Type (0, 0), BuildingBlock: AJUNOK_clean_linker_0, # of connection points: 2
#     Edge 31, Type (0, 0), BuildingBlock: AJUNOK_clean_linker_0, # of connection points: 2
#     Edge 32, Type (0, 0), BuildingBlock: AJUNOK_clean_linker_0, # of connection points: 2
#     Edge 33, Type (0, 0), BuildingBlock: AJUNOK_clean_linker_0, # of connection points: 2
#     Edge 34, Type (0, 0), BuildingBlock: AJUNOK_clean_linker_0, # of connection points: 2
#     Edge 35, Type (0, 0), BuildingBlock: AJUNOK_clean_linker_0, # of connection points: 2
# Relax obj value: 0.030
# Max RMSD: 0.102
# Mean RMSD: 0.101
data_MOF--net-smm--node1-BETDIP_clean_sbu_0--edge1-AJUNOK_clean_linker_0
_symmetry_space_group_name_H-M    P1
_symmetry_Int_Tables_number       1
_symmetry_cell_setting            triclinic
loop_
_symmetry_equiv_pos_as_xyz
'x, y, z'
_cell_length_a     56.373514
_cell_length_b     56.552602
_cell_length_c     10.281191
_cell_angle_alpha  89.830353
_cell_angle_beta   90.168158
_cell_angle_gamma 120.09618
loop_
_atom_site_label
_atom_site_type_symbol
_atom_site_fract_x
_atom_site_fract_y
_atom_site_fract_z
_atom_type_partial_charge
Tb0 Tb 1.0364 0.21583 0.97969 0.0
Tb1 Tb 0.08695 0.21099 0.94092 0.0
C2 C 0.99985 0.22417 0.07246 0.0
C3 C 0.99271 0.24489 0.11266 0.0
C4 C 0.97316 0.23789 0.2112 0.0
C5 C 0.9635 0.25551 0.24433 0.0
C6 C 0.97329 0.28065 0.18004 0.0
C7 C 0.99366 0.28816 0.08414 0.0
C8 C 1.00329 0.27036 0.05043 0.0
C9 C 0.04796 0.21095 0.73547 0.0
C10 C 0.09474 0.26997 0.94513 0.0
C11 C 0.12311 0.20104 0.85774 0.0
C12 C 0.13208 0.18081 0.87425 0.0
C13 C 0.15465 0.18405 0.80279 0.0
C14 C 0.16471 0.16615 0.82103 0.0
C15 C 0.15235 0.14455 0.91101 0.0
C16 C 0.12946 0.14113 0.9817 0.0
C17 C 0.1194 0.15915 0.96347 0.0
C18 C 0.07523 0.21484 0.18576 0.0
C19 C 1.0278 0.15669 0.95742 0.0
O20 O 1.01769 0.22158 0.14375 0.0
O21 O 1.00276 0.22145 0.94806 0.0
O22 O 0.06472 0.22423 0.82439 0.0
O23 O 1.02326 0.20135 0.77974 0.0
O24 O 0.06949 0.25901 0.9925 0.0
O25 O 0.10421 0.25434 0.90083 0.0
O26 O 0.09954 0.19277 0.79965 0.0
O27 O 0.12643 0.21648 0.95845 0.0
O28 O 0.05842 0.20203 0.09617 0.0
O29 O 0.09973 0.22378 0.14157 0.0
O30 O 0.0541 0.16808 0.92624 0.0
O31 O 1.01695 0.17157 -0.00466 0.0
H32 H 0.96473 0.21835 0.26042 0.0
H33 H 0.94794 0.24923 0.31896 0.0
H34 H 1.00137 0.30728 0.03192 0.0
H35 H 1.01838 0.27617 0.97389 0.0
H36 H 0.16474 0.20067 0.73368 0.0
H37 H 0.18223 0.16922 0.76456 0.0
H38 H 0.11974 0.12494 0.05308 0.0
H39 H 0.10203 0.15643 0.02014 0.0
Tb40 Tb 0.88823 0.84921 0.99011 0.0
Tb41 Tb 0.89418 0.90482 0.94845 0.0
C42 C 0.87744 0.80402 0.08884 0.0
C43 C 0.85563 0.77508 0.10756 0.0
C44 C 0.84364 0.7661 0.23096 0.0
C45 C 0.82656 0.73819 0.25688 0.0
C46 C 0.82137 0.71863 0.16042 0.0
C47 C 0.83226 0.72766 0.03529 0.0
C48 C 0.84927 0.75555 0.00921 0.0
C49 C 0.89308 0.86511 0.74431 0.0
C50 C 0.83438 0.85389 0.9468 0.0
C51 C 0.90576 0.95142 0.86603 0.0
C52 C 0.92602 0.98064 0.88866 0.0
C53 C 0.94147 0.99705 0.78374 0.0
C54 C 0.95878 1.02525 0.79957 0.0
C55 C 0.96075 0.03767 0.92041 0.0
C56 C 0.94593 1.02113 0.02645 0.0
C57 C 0.92875 0.99292 0.01087 0.0
C58 C 0.89021 0.88945 0.19432 0.0
C59 C 0.94793 0.89916 0.96924 0.0
O60 O 0.87502 0.82284 0.15152 0.0
O61 O 0.88761 0.81198 0.97196 0.0
O62 O 0.8804 0.86928 0.83323 0.0
O63 O 0.90143 0.84902 0.78893 0.0
O64 O 0.84491 0.83918 -0.00665 0.0
O65 O 0.85057 0.87927 0.90609 0.0
O66 O 0.91462 0.93642 0.81126 0.0
O67 O 0.88814 0.93835 0.95904 0.0
O68 O 0.90274 0.88513 0.10506 0.0
O69 O 0.88181 0.90534 0.14934 0.0
O70 O 0.93697 0.91413 0.93285 0.0
O71 O 0.93254 0.87388 0.013 0.0
H72 H 0.8484 0.78058 0.30931 0.0
H73 H 0.81848 0.73183 0.35416 0.0
H74 H 0.8282 0.71306 0.95836 0.0
H75 H 0.85822 0.76165 0.91327 0.0
H76 H 0.93965 0.98814 0.68847 0.0
H77 H 0.96996 0.03749 0.71618 0.0
H78 H 0.94745 1.03009 0.12129 0.0
H79 H 0.91722 0.98086 0.09399 0.0
Tb80 Tb 0.25371 0.06913 0.9922 0.0
Tb81 Tb 0.19935 1.01757 0.95239 0.0
C82 C 0.29885 0.10481 0.0886 0.0
C83 C 0.32771 0.11162 0.11044 0.0
C84 C 0.33586 0.1067 0.23235 0.0
C85 C 0.36361 0.11653 0.26031 0.0
C86 C 0.38393 0.13164 0.16727 0.0
C87 C 0.37574 0.13596 0.04432 0.0
C88 C 0.348 0.12611 0.01625 0.0
C89 C 0.23778 0.058 0.74761 0.0
C90 C 0.252 1.01208 0.95032 0.0
C91 C 0.15337 0.98041 0.87109 0.0
C92 C 0.12385 0.97058 0.88583 0.0
C93 C 0.10512 0.94813 0.81178 0.0
C94 C 0.07691 0.93715 0.8283 0.0
C95 C 0.06683 0.9484 0.91952 0.0
C96 C 0.08566 0.97143 0.99132 0.0
C97 C 0.11401 0.98234 0.97527 0.0
C98 C 0.21487 1.03036 0.19797 0.0
C99 C 0.20179 0.07552 0.96844 0.0
O100 O 0.27964 0.0844 0.15496 0.0
O101 O 0.29111 0.10573 0.96931 0.0
O102 O 0.23458 0.04099 0.83498 0.0
O103 O 0.25273 0.08251 0.79339 0.0
O104 O 0.26551 0.03728 -0.00225 0.0
O105 O 0.22645 1.00158 0.90821 0.0
O106 O 0.16815 1.0038 0.81129 0.0
O107 O 0.16588 0.97792 0.97304 0.0
O108 O 0.21792 0.04642 0.10673 0.0
O109 O 0.20061 1.00562 0.15499 0.0
O110 O 0.18784 0.04934 0.93509 0.0
O111 O 0.2275 0.08706 0.00985 0.0
H112 H 0.32086 0.09609 0.30809 0.0
H113 H 0.36923 0.11328 0.35677 0.0
H114 H 0.39089 0.14745 0.9704 0.0
H115 H 0.34259 0.13063 0.92197 0.0
H116 H 0.11232 0.93883 0.74203 0.0
H117 H 0.06292 0.91977 0.76974 0.0
H118 H 0.07845 0.98056 0.06197 0.0
H119 H 0.12819 0.99963 0.03372 0.0
Tb120 Tb 0.70163 0.54731 0.31788 0.0
Tb121 Tb 0.75195 0.54236 0.2783 0.0
C122 C 0.66667 0.55763 0.41378 0.0
C123 C 0.66014 0.57974 0.43523 0.0
C124 C 0.66506 0.59259 0.55731 0.0
C125 C 0.65518 0.61033 0.58558 0.0
C126 C 0.64001 0.61551 0.49265 0.0
C127 C 0.63579 0.60331 0.36936 0.0
C128 C 0.64569 0.58562 0.34098 0.0
C129 C 0.71295 0.5427 0.07278 0.0
C130 C 0.76007 0.60152 0.27735 0.0
C131 C 0.78739 0.53108 0.19906 0.0
C132 C 0.79579 0.51035 0.22151 0.0
C133 C 0.79229 0.49181 0.12238 0.0
C134 C 0.80222 0.47368 0.13748 0.0
C135 C 0.81598 0.47377 0.25194 0.0
C136 C 0.8192 0.49209 0.35173 0.0
C137 C 0.8092 0.51014 0.33691 0.0
C138 C 0.74028 0.5461 0.52352 0.0
C139 C 0.69276 0.4882 0.29698 0.0
O140 O 0.68713 0.55876 0.47977 0.0
O141 O 0.66539 0.54879 0.29487 0.0
O142 O 0.72979 0.55568 0.16185 0.0
O143 O 0.68833 0.53367 0.11698 0.0
O144 O 0.73472 0.59064 0.32348 0.0
O145 O 0.76963 0.58573 0.2363 0.0
O146 O 0.76392 0.52297 0.14014 0.0
O147 O 0.79151 0.5481 0.29395 0.0
O148 O 0.72347 0.53331 0.43404 0.0
O149 O 0.76475 0.55508 0.47908 0.0
O150 O 0.7188 0.49963 0.26103 0.0
O151 O 0.68235 0.50313 0.33995 0.0
H152 H 0.67563 0.58811 0.63307 0.0
H153 H 0.65834 0.61898 0.68224 0.0
H154 H 0.62423 0.60697 0.29562 0.0
H155 H 0.64117 0.57584 0.24659 0.0
H156 H 0.78242 0.49176 0.03171 0.0
H157 H 0.79989 0.46018 0.05781 0.0
H158 H 0.82969 0.49259 0.44105 0.0
H159 H 0.81245 0.52424 0.41512 0.0
Tb160 Tb 0.556 0.1813 0.3257 0.0
Tb161 Tb 0.56071 0.2363 0.28373 0.0
C162 C 0.54557 0.13614 0.42342 0.0
C163 C 0.52341 0.10737 0.44298 0.0
C164 C 0.51161 0.09859 0.56687 0.0
C165 C 0.49411 0.07077 0.59309 0.0
C166 C 0.48829 0.0511 0.49642 0.0
C167 C 0.49894 0.05995 0.3708 0.0
C168 C 0.51638 0.08775 0.34442 0.0
C169 C 0.56037 0.19699 0.07982 0.0
C170 C 0.5014 0.18463 0.28481 0.0
C171 C 0.5715 0.28272 0.20179 0.0
C172 C 0.59147 0.31204 0.2243 0.0
C173 C 0.60603 0.32876 0.11848 0.0
C174 C 0.62309 0.35699 0.13469 0.0
C175 C 0.62572 0.36915 0.25693 0.0
C176 C 0.61175 0.35232 0.36367 0.0
C177 C 0.59481 0.32407 0.34765 0.0
C178 C 0.55724 0.22118 0.5298 0.0
C179 C 0.61522 0.23166 0.30323 0.0
O180 O 0.54383 0.15516 0.48781 0.0
O181 O 0.55518 0.14399 0.30561 0.0
O182 O 0.54741 0.20081 0.1687 0.0
O183 O 0.56941 0.1815 0.12464 0.0
O184 O 0.51261 0.1706 0.33166 0.0
O185 O 0.51698 0.21006 0.24279 0.0
O186 O 0.58059 0.26799 0.14628 0.0
O187 O 0.5541 0.26947 0.29529 0.0
O188 O 0.56999 0.21718 0.44046 0.0
O189 O 0.54828 0.2366 0.48471 0.0
O190 O 0.6038 0.24626 0.26694 0.0
O191 O 0.60019 0.20641 0.34782 0.0
H192 H 0.51683 0.11314 0.64532 0.0
H193 H 0.4862 0.06455 0.69074 0.0
H194 H 0.49439 0.04525 0.29371 0.0
H195 H 0.52513 0.0937 0.24803 0.0
H196 H 0.60372 0.32005 0.02235 0.0
H197 H 0.6336 0.36944 0.0507 0.0
H198 H 0.6138 0.36106 0.45952 0.0
H199 H 0.58398 0.31176 0.43147 0.0
Tb200 Tb 0.92033 0.40122 0.31394 0.0
Tb201 Tb 0.86639 0.34909 0.27486 0.0
C202 C 0.9646 0.43862 0.40938 0.0
C203 C 0.99296 0.4464 0.44609 0.0
C204 C 1.00473 0.46343 0.55433 0.0
C205 C 1.03221 0.47331 0.5868 0.0
C206 C 0.04853 0.46619 0.51225 0.0
C207 C 1.03655 0.44852 0.40548 0.0
C208 C 1.00899 0.43877 0.3723 0.0
C209 C 0.90405 0.38977 0.06998 0.0
C210 C 0.91956 0.34459 0.27624 0.0
C211 C 0.82042 0.3117 0.19437 0.0
C212 C 0.79096 0.30225 0.20924 0.0
C213 C 0.77191 0.27916 0.1398 0.0
C214 C 0.74377 0.26857 0.15702 0.0
C215 C 0.73405 0.28085 0.24438 0.0
C216 C 0.7532 0.30455 0.31119 0.0
C217 C 0.78148 0.31507 0.29444 0.0
C218 C 0.88184 0.36213 0.52014 0.0
C219 C 0.86783 0.4066 0.28866 0.0
O220 O 0.94479 0.41959 0.479 0.0
O221 O 0.95853 0.43656 0.28536 0.0
O222 O 0.90144 0.37291 0.15704 0.0
O223 O 0.91831 0.41437 0.11595 0.0
O224 O 0.93271 0.36982 0.32377 0.0
O225 O 0.89404 0.33368 0.23295 0.0
O226 O 0.83534 0.33484 0.13281 0.0
O227 O 0.83292 0.30946 0.297 0.0
O228 O 0.88462 0.37808 0.42873 0.0
O229 O 0.86794 0.33733 0.47736 0.0
O230 O 0.85415 0.3803 0.25765 0.0
O231 O 0.89367 0.41866 0.32815 0.0
H232 H 0.99276 0.46962 0.61239 0.0
H233 H 1.04083 0.48678 0.66973 0.0
H234 H 0.04873 0.44297 0.34523 0.0
H235 H 1.00042 0.42584 0.28766 0.0
H236 H 0.77881 0.26903 0.07328 0.0
H237 H 0.72954 0.25063 0.10231 0.0
H238 H 0.74629 0.31447 0.37881 0.0
H239 H 0.7959 0.3329 0.34922 0.0
Tb240 Tb 0.36709 0.88045 0.6569 0.0
Tb241 Tb 0.41693 0.87461 0.61754 0.0
C242 C 0.33254 0.89136 0.75301 0.0
C243 C 0.32637 0.91371 0.77459 0.0
C244 C 0.33094 0.92619 0.8975 0.0
C245 C 0.3213 0.94414 0.92568 0.0
C246 C 0.30673 0.94992 0.83182 0.0
C247 C 0.3029 0.93811 0.70773 0.0
C248 C 0.31256 0.92021 0.67944 0.0
C249 C 0.37823 0.87554 0.41191 0.0
C250 C 0.4258 0.93413 0.61569 0.0
C251 C 0.45228 0.8632 0.53824 0.0
C252 C 0.46113 0.84285 0.56163 0.0
C253 C 0.45867 0.82488 0.4616 0.0
C254 C 0.46905 0.80715 0.47749 0.0
C255 C 0.48224 0.80709 0.59368 0.0
C256 C 0.48449 0.82487 0.69427 0.0
C257 C 0.47399 0.84251 0.67867 0.0
C258 C 0.4054 0.87856 0.86272 0.0
C259 C 0.35732 0.82095 0.63525 0.0
O260 O 0.35288 0.8922 0.81893 0.0
O261 O 0.33114 0.88248 0.63408 0.0
O262 O 0.39514 0.88833 0.50098 0.0
O263 O 0.35368 0.86697 0.45596 0.0
O264 O 0.40053 0.9236 0.66218 0.0
O265 O 0.43499 0.91802 0.57472 0.0
O266 O 0.42854 0.8546 0.48109 0.0
O267 O 0.45659 0.88057 0.63166 0.0
O268 O 0.38852 0.86598 0.77315 0.0
O269 O 0.4298 0.88711 0.81842 0.0
O270 O 0.38341 0.83197 0.60078 0.0
O271 O 0.34723 0.83621 0.67772 0.0
H272 H 0.34101 0.92123 0.97388 0.0
H273 H 0.32415 0.95247 0.0229 0.0
H274 H 0.29181 0.94223 0.63325 0.0
H275 H 0.30833 0.91075 0.58433 0.0
H276 H 0.44925 0.82497 0.36974 0.0
H277 H 0.46746 0.79405 0.39732 0.0
H278 H 0.49451 0.82523 0.78489 0.0
H279 H 0.47643 0.8562 0.75762 0.0
Tb280 Tb 0.22132 0.51583 0.65494 0.0
Tb281 Tb 0.22488 0.5705 0.61357 0.0
C282 C 0.21408 0.47171 0.75221 0.0
C283 C 0.19382 0.44333 0.78804 0.0
C284 C 0.16928 0.4277 0.71874 0.0
C285 C 0.15186 0.40002 0.75007 0.0
C286 C 0.15905 0.38762 0.84957 0.0
C287 C 0.18318 0.40361 0.92091 0.0
C288 C 0.20033 0.43118 0.89061 0.0
C289 C 0.22567 0.53189 0.40983 0.0
C290 C 0.1661 0.518 0.61822 0.0
C291 C 0.23383 0.61611 0.52764 0.0
C292 C 0.25338 0.64556 0.54276 0.0
C293 C 0.24853 0.66423 0.47472 0.0
C294 C 0.26559 0.69235 0.49256 0.0
C295 C 0.28786 0.70242 0.57943 0.0
C296 C 0.29317 0.68366 0.6451 0.0
C297 C 0.27597 0.65541 0.62739 0.0
C298 C 0.22162 0.55532 0.8593 0.0
C299 C 0.28012 0.56724 0.63256 0.0
O300 O 0.2142 0.49127 0.82042 0.0
O301 O 0.21857 0.47777 0.62836 0.0
O302 O 0.21225 0.5351 0.49858 0.0
O303 O 0.2356 0.51715 0.45472 0.0
O304 O 0.1777 0.50423 0.66399 0.0
O305 O 0.18116 0.54352 0.5765 0.0
O306 O 0.24281 0.60135 0.47143 0.0
O307 O 0.21839 0.60376 0.62837 0.0
O308 O 0.23456 0.55163 0.76975 0.0
O309 O 0.21227 0.57046 0.8145 0.0
O310 O 0.26833 0.58163 0.59903 0.0
O311 O 0.26548 0.54163 0.67277 0.0
H312 H 0.164 0.43665 0.63862 0.0
H313 H 0.13339 0.38806 0.69343 0.0
H314 H 0.18906 0.39458 -0.00142 0.0
H315 H 0.21916 0.44287 0.94527 0.0
H316 H 0.23127 0.65703 0.40865 0.0
H317 H 0.26134 0.70627 0.43833 0.0
H318 H 0.31024 0.69085 0.71226 0.0
H319 H 0.28003 0.64127 0.68088 0.0
Tb320 Tb 0.5864 0.73419 0.65727 0.0
Tb321 Tb 0.5323 0.68259 0.61725 0.0
C322 C 0.63133 0.76961 0.75602 0.0
C323 C 0.66034 0.77688 0.77588 0.0
C324 C 0.66931 0.77428 0.90022 0.0
C325 C 0.69727 0.78498 0.92627 0.0
C326 C 0.71692 0.79884 0.82897 0.0
C327 C 0.70789 0.80032 0.7031 0.0
C328 C 0.67995 0.78956 0.67688 0.0
C329 C 0.57065 0.72318 0.4124 0.0
C330 C 0.5848 0.67711 0.61295 0.0
C331 C 0.48542 0.64674 0.54017 0.0
C332 C 0.45638 0.63894 0.56287 0.0
C333 C 0.44028 0.63908 0.45858 0.0
C334 C 0.41219 0.62932 0.47499 0.0
C335 C 0.39957 0.61895 0.59581 0.0
C336 C 0.4159 0.61983 0.70144 0.0
C337 C 0.44397 0.62968 0.68525 0.0
C338 C 0.54769 0.69541 0.86295 0.0
C339 C 0.53451 0.74039 0.63344 0.0
O340 O 0.61247 0.74847 0.81993 0.0
O341 O 0.62339 0.7713 0.63813 0.0
O342 O 0.56744 0.70615 0.49959 0.0
O343 O 0.58562 0.74768 0.45838 0.0
O344 O 0.59829 0.70235 0.66012 0.0
O345 O 0.55917 0.66644 0.57176 0.0
O346 O 0.50078 0.66969 0.47794 0.0
O347 O 0.49854 0.64311 0.63636 0.0
O348 O 0.55064 0.71143 0.77171 0.0
O349 O 0.53362 0.67066 0.8199 0.0
O350 O 0.52097 0.71436 0.59837 0.0
O351 O 0.56008 0.75198 0.67671 0.0
H352 H 0.65478 0.76491 0.979 0.0
H353 H 0.70361 0.78354 0.02413 0.0
H354 H 0.72255 0.81045 0.62554 0.0
H355 H 0.67386 0.79205 0.58013 0.0
H356 H 0.44928 0.64608 0.36326 0.0
H357 H 0.40013 0.62892 0.39192 0.0
H358 H 0.40683 0.61246 0.79632 0.0
H359 H 0.45577 0.62946 0.7681 0.0
C360 C 0.09977 0.3169 0.9371 0.0
C361 C 0.11159 0.30013 0.92536 0.0
C362 C 0.115 0.34514 0.91083 0.0
C363 C 0.1427 0.35769 0.87369 0.0
H364 H 0.07847 0.30814 0.9649 0.0
H365 H 0.10515 0.35728 0.92085 0.0
S366 S 0.18344 0.32343 0.82644 0.0
N367 N 0.15296 0.29867 0.87225 0.0
N368 N 0.18122 0.35143 0.82391 0.0
C369 C 0.15477 0.34131 0.86183 0.0
C370 C 0.13934 0.31264 0.88745 0.0
C371 C 0.78664 0.81284 0.95451 0.0
C372 C 0.80423 0.84055 0.92204 0.0
C373 C 0.75845 0.79948 0.92506 0.0
C374 C 0.74676 0.81319 0.86067 0.0
H375 H 0.79469 0.8012 0.00196 0.0
H376 H 0.74579 0.77813 0.95093 0.0
S377 S 0.78299 0.88617 0.76215 0.0
N378 N 0.80712 0.8815 0.82719 0.0
N379 N 0.75448 0.85632 0.77209 0.0
C380 C 0.7639 0.84095 0.82993 0.0
C381 C 0.79249 0.85463 0.8606 0.0
C382 C 0.25253 0.97077 0.86633 0.0
C383 C 0.26656 0.99651 0.92744 0.0
C384 C 0.26574 0.95609 0.83589 0.0
C385 C 0.29358 0.96634 0.86561 0.0
H386 H 0.2311 0.96181 0.84026 0.0
H387 H 0.25393 0.93635 0.78934 0.0
S388 S 0.33999 0.03267 0.0252 0.0
N389 N 0.31019 0.03158 0.0171 0.0
N390 N 0.33492 1.00389 0.95935 0.0
C391 C 0.3079 0.99188 0.92793 0.0
C392 C 0.29445 1.00697 0.95879 0.0
C393 C 0.4596 0.18504 0.20257 0.0
C394 C 0.47114 0.17062 0.26197 0.0
C395 C 0.43156 0.17225 0.17238 0.0
C396 C 0.41367 0.14445 0.2005 0.0
H397 H 0.47233 0.20644 0.17774 0.0
H398 H 0.42378 0.18435 0.1273 0.0
S399 S 0.43312 0.09705 0.35351 0.0
N400 N 0.46208 0.12661 0.34731 0.0
N401 N 0.4095 0.1027 0.28959 0.0
C402 C 0.42476 0.12974 0.26055 0.0
C403 C 0.4534 0.14275 0.29134 0.0
C404 C 0.91898 0.30091 0.22829 0.0
C405 C 0.93419 0.32898 0.25808 0.0
C406 C 0.93185 0.28564 0.20411 0.0
C407 C 0.96057 0.29774 0.2073 0.0
H408 H 0.89681 0.2905 0.22309 0.0
H409 H 0.91915 0.26416 0.18071 0.0
S410 S 1.01014 0.37027 0.28345 0.0
N411 N 0.97986 0.36813 0.29189 0.0
N412 N 1.00396 0.33932 0.24543 0.0
C413 C 0.97615 0.3257 0.23756 0.0
C414 C 0.96301 0.3413 0.2636 0.0
C415 C 0.78047 0.67687 0.25408 0.0
C416 C 0.80619 0.68891 0.19243 0.0
C417 C 0.7659 0.64877 0.28342 0.0
C418 C 0.77662 0.63161 0.25353 0.0
H419 H 0.77131 0.6892 0.27773 0.0
H420 H 0.74594 0.64043 0.3285 0.0
S421 S 0.84455 0.65393 0.1023 0.0
N422 N 0.84257 0.68203 0.10986 0.0
N423 N 0.8156 0.62953 0.16478 0.0
C424 C 0.80278 0.64372 0.19516 0.0
C425 C 0.81742 0.67222 0.16462 0.0
C426 C 0.12288 0.51948 0.58212 0.0
C427 C 0.13584 0.50388 0.59826 0.0
C428 C 0.0947 0.50707 0.5558 0.0
C429 C 0.07829 0.47854 0.54246 0.0
H430 H 0.13461 0.54155 0.58951 0.0
H431 H 0.08576 0.52 0.54346 0.0
S432 S 0.10177 0.42821 0.57666 0.0
N433 N 0.12972 0.4581 0.60033 0.0
N434 N 0.07685 0.43493 0.54961 0.0
C435 C 0.09084 0.46263 0.55875 0.0
C436 C 0.11954 0.47523 0.58729 0.0
C437 C 0.5854 0.63572 0.53055 0.0
C438 C 0.59949 0.66169 0.58949 0.0
C439 C 0.59872 0.62117 0.49967 0.0
C440 C 0.62673 0.63179 0.52675 0.0
H441 H 0.56384 0.62649 0.50662 0.0
H442 H 0.58686 0.60125 0.45489 0.0
S443 S 0.67335 0.69884 0.67956 0.0
N444 N 0.64337 0.69739 0.67403 0.0
N445 N 0.66829 0.66993 0.61539 0.0
C446 C 0.64111 0.65756 0.58679 0.0
C447 C 0.62756 0.67252 0.61813 0.0
C448 C 0.44722 1.00975 0.59184 0.0
C449 C 0.47277 1.02139 0.52874 0.0
C450 C 0.43238 0.98167 0.62176 0.0
C451 C 0.44264 0.96417 0.59105 0.0
H452 H 0.43843 1.02235 0.61626 0.0
H453 H 0.41257 0.97364 0.66803 0.0
S454 S 0.50996 0.98539 0.43559 0.0
N455 N 0.5085 1.01376 0.44365 0.0
N456 N 0.48101 0.96133 0.49968 0.0
C457 C 0.46863 0.97589 0.53111 0.0
C458 C 0.48355 1.00435 0.49996 0.0
C459 C 0.20422 0.12108 0.96609 0.0
C460 C 0.18824 0.09237 0.96015 0.0
C461 C 0.19238 0.13764 0.9517 0.0
C462 C 0.164 0.12626 0.93209 0.0
H463 H 0.22622 0.13099 0.97953 0.0
H464 H 0.20563 0.15962 0.95578 0.0
S465 S 0.11268 0.05231 0.91272 0.0
N466 N 0.14215 0.05329 0.93614 0.0
N467 N 0.12007 0.08449 0.90929 0.0
C468 C 0.14763 0.09762 0.92861 0.0
C469 C 0.1597 0.08069 0.9423 0.0
C470 C 1.00499 0.08191 0.89154 0.0
C471 C 0.97763 0.0679 0.93435 0.0
C472 C 1.02105 0.11048 0.90098 0.0
C473 C 1.01034 0.1263 0.95237 0.0
H474 H 1.01411 0.07067 0.85087 0.0
H475 H 1.042 0.12018 0.86638 0.0
S476 S 0.93933 0.09924 0.07487 0.0
N477 N 0.94026 0.07183 0.02793 0.0
N478 N 0.97022 0.12538 0.04606 0.0
C479 C 0.9829 0.11242 -0.00451 0.0
C480 C 0.96663 0.08331 0.9865 0.0
C481 C 0.99538 0.93975 0.94167 0.0
C482 C 0.97834 0.91145 0.96344 0.0
C483 C 1.024 0.9517 0.93092 0.0
C484 C 1.03671 0.93579 0.93976 0.0
H485 H 0.9866 0.95287 0.93206 0.0
H486 H 1.0362 0.97345 0.91234 0.0
S487 S 1.002 0.86115 0.00227 0.0
N488 N 0.97682 0.86807 -0.00211 0.0
N489 N 1.03039 0.89057 0.97743 0.0
C490 C 1.02008 0.90763 0.96383 0.0
C491 C 0.991 0.89547 0.97582 0.0
C492 C 0.85582 0.46715 0.30275 0.0
C493 C 0.82825 0.45587 0.26471 0.0
C494 C 0.86827 0.45105 0.31105 0.0
C495 C 0.85367 0.4229 0.28207 0.0
H496 H 0.86808 0.48877 0.32395 0.0
H497 H 0.88965 0.46093 0.33937 0.0
S498 S 0.78016 0.38307 0.18641 0.0
N499 N 0.78623 0.41463 0.20417 0.0
N500 N 0.80946 0.3843 0.21857 0.0
C501 C 0.82584 0.41126 0.24611 0.0
C502 C 0.8132 0.42774 0.23757 0.0
C503 C 0.6856 0.44214 0.23406 0.0
C504 C 0.6753 0.4578 0.29149 0.0
C505 C 0.66955 0.41359 0.2239 0.0
C506 C 0.64258 0.39939 0.27184 0.0
H507 H 0.70622 0.45197 0.19517 0.0
H508 H 0.67838 0.40251 0.17855 0.0
S509 S 0.6054 0.43026 0.42924 0.0
N510 N 0.63598 0.45654 0.39645 0.0
N511 N 0.60599 0.403 0.37693 0.0
C512 C 0.63199 0.41463 0.33007 0.0
C513 C 0.64825 0.44375 0.33985 0.0
C514 C 0.6625 0.27217 0.26641 0.0
C515 C 0.64566 0.24412 0.29531 0.0
C516 C 0.6911 0.28411 0.2533 0.0
C517 C 0.704 0.26843 0.26689 0.0
H518 H 0.65355 0.28505 0.25279 0.0
H519 H 0.70312 0.30562 0.22918 0.0
S520 S 0.66997 0.19467 0.34936 0.0
N521 N 0.64466 0.20135 0.34201 0.0
N522 N 0.69812 0.22384 0.31718 0.0
C523 C 0.6876 0.24059 0.29828 0.0
C524 C 0.65856 0.22845 0.31258 0.0
C525 C 0.53469 0.78472 0.65763 0.0
C526 C 0.52033 0.75666 0.62697 0.0
C527 C 0.52211 0.80071 0.64856 0.0
C528 C 0.49467 0.78938 0.60789 0.0
H529 H 0.55597 0.7946 0.68767 0.0
H530 H 0.53415 0.8223 0.67105 0.0
S531 S 0.44715 0.71668 0.52541 0.0
N532 N 0.47639 0.71801 0.56014 0.0
N533 N 0.45302 0.74816 0.54365 0.0
C534 C 0.47986 0.76131 0.57939 0.0
C535 C 0.49259 0.74495 0.58891 0.0
C536 C 0.33398 0.74536 0.58927 0.0
C537 C 0.3053 0.73244 0.60109 0.0
C538 C 0.35058 0.77386 0.60175 0.0
C539 C 0.33923 0.79063 0.62804 0.0
H540 H 0.34362 0.73342 0.56704 0.0
H541 H 0.37251 0.78277 0.58967 0.0
S542 S 0.26518 0.76636 0.67659 0.0
N543 N 0.26631 0.73828 0.64699 0.0
N544 N 0.29725 0.79164 0.67028 0.0
C545 C 0.31056 0.77777 0.64341 0.0
C546 C 0.29369 0.74878 0.62989 0.0
C547 C 0.35541 0.61943 0.56759 0.0
C548 C 0.36925 0.60588 0.60966 0.0
C549 C 0.32672 0.60701 0.57715 0.0
C550 C 0.31065 0.58037 0.62788 0.0
H551 H 0.36687 0.63987 0.52738 0.0
H552 H 0.31711 0.61835 0.54316 0.0
S553 S 0.33722 0.53585 0.74747 0.0
N554 N 0.36485 0.56424 0.70114 0.0
N555 N 0.31122 0.54085 0.71978 0.0
C556 C 0.3244 0.56663 0.67018 0.0
C557 C 0.35357 0.57937 0.66095 0.0
C558 C 1.03479 0.19725 0.50251 0.0
C559 C 0.0553 0.21173 0.59616 0.0
C560 C 1.04126 0.19832 0.36972 0.0
C561 C 0.06846 0.21408 0.32567 0.0
H562 H 1.01356 0.18496 0.53192 0.0
H563 H 1.02484 0.18659 0.3014 0.0
S564 S 0.12979 0.25582 0.53103 0.0
N565 N 0.10401 0.24215 0.63459 0.0
N566 N 0.11604 0.24445 0.38646 0.0
C567 C 0.08913 0.22859 0.41831 0.0
C568 C 0.08259 0.22735 0.55314 0.0
C569 C 0.90552 0.86422 0.51057 0.0
C570 C 0.89257 0.87187 0.60486 0.0
C571 C 0.90469 0.86988 0.37775 0.0
C572 C 0.89075 0.88326 0.33434 0.0
H573 H 0.91638 0.85378 0.53948 0.0
H574 H 0.91512 0.86379 0.30882 0.0
S575 S 0.85358 0.90768 0.54151 0.0
N576 N 0.8656 0.89381 0.64451 0.0
N577 N 0.86375 0.90404 0.39641 0.0
C578 C 0.87776 0.89102 0.4276 0.0
C579 C 0.87875 0.88544 0.56242 0.0
C580 C 0.22149 1.02444 0.56343 0.0
C581 C 0.23141 0.05132 0.60778 0.0
C582 C 0.2163 1.01791 0.43074 0.0
C583 C 0.22071 0.03797 0.33737 0.0
H584 H 0.21796 1.00834 0.63145 0.0
H585 H 0.20887 0.99698 0.40111 0.0
S586 S 0.24497 0.1111 0.40416 0.0
N587 N 0.24455 0.09794 0.54826 0.0
N588 N 0.23445 0.08563 0.29991 0.0
C589 C 0.23017 0.06482 0.38084 0.0
C590 C 0.23558 0.07149 0.51575 0.0
C591 C 0.70617 0.53069 0.70656 0.0
C592 C 0.73351 0.54546 0.66332 0.0
C593 C 0.69967 0.52974 0.83924 0.0
C594 C 0.72027 0.54338 0.93352 0.0
H595 H 0.68966 0.51971 0.63763 0.0
H596 H 0.67833 0.51823 0.86805 0.0
S597 S 0.79513 0.58471 0.8705 0.0
N598 N 0.78132 0.574 0.72547 0.0
N599 N 0.76922 0.57192 0.97334 0.0
C600 C 0.74769 0.55803 0.89124 0.0
C601 C 0.75427 0.55914 0.75656 0.0
C602 C 0.5724 0.20228 0.71352 0.0
C603 C 0.55786 0.21503 0.66983 0.0
C604 C 0.57327 0.19665 0.84634 0.0
C605 C 0.55976 0.2037 0.94036 0.0
H606 H 0.58326 0.19668 0.6448 0.0
H607 H 0.58461 0.1867 0.87547 0.0
S608 S 0.51907 0.2377 0.8763 0.0
N609 N 0.52969 0.23456 0.73142 0.0
N610 N 0.5316 0.22436 0.97953 0.0
C611 C 0.54534 0.21663 0.89767 0.0
C612 C 0.54432 0.22219 0.76285 0.0
C613 C 0.88415 0.34998 0.75235 0.0
C614 C 0.88738 0.36974 0.65963 0.0
C615 C 0.88916 0.35649 0.88511 0.0
C616 C 0.89771 0.38305 0.93019 0.0
H617 H 0.87785 0.32932 0.72212 0.0
H618 H 0.88663 0.34064 0.95259 0.0
S619 S 0.90742 0.44181 0.72867 0.0
N620 N 0.8982 0.41663 0.62371 0.0
N621 N 0.90807 0.42896 0.87219 0.0
C622 C 0.90059 0.40289 0.83886 0.0
C623 C 0.89533 0.39622 0.70387 0.0
C624 C 0.36483 0.86285 0.17828 0.0
C625 C 0.3855 0.87607 0.2727 0.0
C626 C 0.37129 0.86372 0.04561 0.0
C627 C 0.39867 0.87798 0.00252 0.0
H628 H 0.34347 0.85175 0.20697 0.0
H629 H 0.35473 0.85306 0.97656 0.0
S630 S 0.46046 0.91592 0.21016 0.0
N631 N 0.43453 0.90361 0.31287 0.0
N632 N 0.44658 0.90555 0.065 0.0
C633 C 0.41949 0.89122 0.09591 0.0
C634 C 0.41294 0.89019 0.23059 0.0
C635 C 0.23836 0.5381 0.04391 0.0
C636 C 0.22246 0.54933 -0.00055 0.0
C637 C 0.23945 0.53266 0.17684 0.0
C638 C 0.22483 0.53843 0.27028 0.0
H639 H 0.25017 0.5336 0.97577 0.0
H640 H 0.25185 0.5239 0.20653 0.0
S641 S 0.18037 0.56822 0.20418 0.0
N642 N 0.19183 0.56607 0.05975 0.0
N643 N 0.19413 0.55623 0.30808 0.0
C644 C 0.20906 0.54986 0.22686 0.0
C645 C 0.20782 0.55522 0.09191 0.0
C646 C 0.55419 0.68958 0.22852 0.0
C647 C 0.5643 0.71651 0.27258 0.0
C648 C 0.54898 0.68301 0.0959 0.0
C649 C 0.55355 0.70307 0.0023 0.0
H650 H 0.55052 0.67346 0.29672 0.0
H651 H 0.54139 0.66204 0.06652 0.0
S652 S 0.57839 0.77636 0.06822 0.0
N653 N 0.57783 0.7632 0.21252 0.0
N654 N 0.56769 0.75081 0.96427 0.0
C655 C 0.5632 0.72998 0.04546 0.0
C656 C 0.56864 0.7367 0.18032 0.0
loop_
_geom_bond_atom_site_label_1
_geom_bond_atom_site_label_2
_geom_bond_distance
_geom_bond_site_symmetry_2
_ccdc_geom_bond_type
Tb0 C2 2.809 1_556 S
Tb0 O20 2.484 1_556 S
Tb0 O21 2.440 . S
Tb0 O22 2.658 1_655 S
Tb0 O23 2.409 . S
Tb0 O24 2.378 1_655 S
Tb0 O28 2.325 1_656 S
Tb0 O31 2.341 1_556 S
Tb1 C11 2.809 1_554 S
Tb1 O22 2.325 1_554 S
Tb1 O25 2.341 1_554 S
Tb1 O26 2.484 1_554 S
Tb1 O27 2.440 . S
Tb1 O28 2.658 . S
Tb1 O29 2.409 . S
Tb1 O30 2.378 . S
C2 Tb0 2.809 1_554 S
C2 C3 1.514 . S
C2 O20 1.248 . S
C2 O21 1.266 1_554 S
C3 C2 1.514 . S
C3 C4 1.359 . S
C3 C8 1.348 1_554 S
C4 C3 1.359 . S
C4 C5 1.380 . S
C4 H32 0.929 . S
C5 C4 1.380 . S
C5 C6 1.347 . S
C5 H33 0.931 . S
C6 C5 1.347 . S
C6 C7 1.369 1_554 S
C7 C6 1.369 1_556 S
C7 C8 1.408 . S
C7 H34 0.930 . S
C8 C3 1.348 1_556 S
C8 C7 1.408 . S
C8 H35 0.930 . S
C9 O22 1.281 . S
C9 O23 1.254 1_455 S
C10 O24 1.236 . S
C10 O25 1.266 . S
C11 Tb1 2.809 1_556 S
C11 C12 1.514 . S
C11 O26 1.248 . S
C11 O27 1.266 1_556 S
C12 C11 1.514 . S
C12 C13 1.359 . S
C12 C17 1.348 1_556 S
C13 C12 1.359 . S
C13 C14 1.380 . S
C13 H36 0.929 . S
C14 C13 1.380 . S
C14 C15 1.347 . S
C14 H37 0.931 . S
C15 C14 1.347 . S
C15 C16 1.369 1_556 S
C16 C15 1.369 1_554 S
C16 C17 1.408 . S
C16 H38 0.930 . S
C17 C12 1.348 1_554 S
C17 C16 1.408 . S
C17 H39 0.930 . S
C18 O28 1.281 . S
C18 O29 1.254 . S
C19 O30 1.236 1_655 S
C19 O31 1.266 . S
O20 Tb0 2.484 1_554 S
O20 C2 1.248 . S
O21 Tb0 2.440 . S
O21 C2 1.266 1_556 S
O22 Tb0 2.658 1_455 S
O22 Tb1 2.325 1_556 S
O22 C9 1.281 . S
O23 Tb0 2.409 . S
O23 C9 1.254 1_655 S
O24 Tb0 2.378 1_455 S
O24 C10 1.236 . S
O25 Tb1 2.341 1_556 S
O25 C10 1.266 . S
O26 Tb1 2.484 1_556 S
O26 C11 1.248 . S
O27 Tb1 2.440 . S
O27 C11 1.266 1_554 S
O28 Tb0 2.325 1_454 S
O28 Tb1 2.658 . S
O28 C18 1.281 . S
O29 Tb1 2.409 . S
O29 C18 1.254 . S
O30 Tb1 2.378 . S
O30 C19 1.236 1_455 S
O31 Tb0 2.341 1_554 S
O31 C19 1.266 . S
H32 C4 0.929 . S
H33 C5 0.931 . S
H34 C7 0.930 . S
H35 C8 0.930 . S
H36 C13 0.929 . S
H37 C14 0.931 . S
H38 C16 0.930 . S
H39 C17 0.930 . S
Tb40 C42 2.809 1_556 S
Tb40 O60 2.484 1_556 S
Tb40 O61 2.440 . S
Tb40 O62 2.658 . S
Tb40 O63 2.409 . S
Tb40 O64 2.378 . S
Tb40 O68 2.325 1_556 S
Tb40 O71 2.341 1_556 S
Tb41 C51 2.809 1_554 S
Tb41 O62 2.325 1_554 S
Tb41 O65 2.341 1_554 S
Tb41 O66 2.484 1_554 S
Tb41 O67 2.440 . S
Tb41 O68 2.658 . S
Tb41 O69 2.409 . S
Tb41 O70 2.378 . S
C42 Tb40 2.809 1_554 S
C42 C43 1.514 . S
C42 O60 1.248 . S
C42 O61 1.266 1_554 S
C43 C42 1.514 . S
C43 C44 1.359 . S
C43 C48 1.348 1_554 S
C44 C43 1.359 . S
C44 C45 1.380 . S
C44 H72 0.929 . S
C45 C44 1.380 . S
C45 C46 1.347 . S
C45 H73 0.931 . S
C46 C45 1.347 . S
C46 C47 1.369 1_554 S
C47 C46 1.369 1_556 S
C47 C48 1.408 . S
C47 H74 0.930 . S
C48 C43 1.348 1_556 S
C48 C47 1.408 . S
C48 H75 0.930 . S
C49 O62 1.281 . S
C49 O63 1.254 . S
C50 O64 1.236 . S
C50 O65 1.266 . S
C51 Tb41 2.809 1_556 S
C51 C52 1.514 . S
C51 O66 1.248 . S
C51 O67 1.266 1_556 S
C52 C51 1.514 . S
C52 C53 1.359 . S
C52 C57 1.348 1_556 S
C53 C52 1.359 . S
C53 C54 1.380 . S
C53 H76 0.929 . S
C54 C53 1.380 . S
C54 C55 1.347 1_565 S
C54 H77 0.931 . S
C55 C54 1.347 1_545 S
C55 C56 1.369 1_546 S
C56 C55 1.369 1_564 S
C56 C57 1.410 . S
C56 H78 0.929 1_565 S
C57 C52 1.348 1_554 S
C57 C56 1.410 . S
C57 H79 0.930 . S
C58 O68 1.281 . S
C58 O69 1.254 . S
C59 O70 1.236 . S
C59 O71 1.266 . S
O60 Tb40 2.484 1_554 S
O60 C42 1.248 . S
O61 Tb40 2.440 . S
O61 C42 1.266 1_556 S
O62 Tb40 2.658 . S
O62 Tb41 2.325 1_556 S
O62 C49 1.281 . S
O63 Tb40 2.409 . S
O63 C49 1.254 . S
O64 Tb40 2.378 . S
O64 C50 1.236 . S
O65 Tb41 2.341 1_556 S
O65 C50 1.266 . S
O66 Tb41 2.484 1_556 S
O66 C51 1.248 . S
O67 Tb41 2.440 . S
O67 C51 1.266 1_554 S
O68 Tb40 2.325 1_554 S
O68 Tb41 2.658 . S
O68 C58 1.281 . S
O69 Tb41 2.409 . S
O69 C58 1.254 . S
O70 Tb41 2.378 . S
O70 C59 1.236 . S
O71 Tb40 2.341 1_554 S
O71 C59 1.266 . S
H72 C44 0.929 . S
H73 C45 0.931 . S
H74 C47 0.930 . S
H75 C48 0.930 . S
H76 C53 0.929 . S
H77 C54 0.931 . S
H78 C56 0.929 1_545 S
H79 C57 0.930 . S
Tb80 C82 2.809 1_556 S
Tb80 O100 2.484 1_556 S
Tb80 O101 2.440 . S
Tb80 O102 2.658 . S
Tb80 O103 2.409 . S
Tb80 O104 2.378 . S
Tb80 O108 2.325 1_556 S
Tb80 O111 2.341 1_556 S
Tb81 C91 2.809 1_554 S
Tb81 O102 2.325 1_564 S
Tb81 O105 2.341 1_554 S
Tb81 O106 2.484 1_554 S
Tb81 O107 2.440 . S
Tb81 O108 2.658 1_565 S
Tb81 O109 2.409 . S
Tb81 O110 2.378 1_565 S
C82 Tb80 2.809 1_554 S
C82 C83 1.514 . S
C82 O100 1.248 . S
C82 O101 1.266 1_554 S
C83 C82 1.514 . S
C83 C84 1.359 . S
C83 C88 1.348 1_554 S
C84 C83 1.359 . S
C84 C85 1.380 . S
C84 H112 0.929 . S
C85 C84 1.380 . S
C85 C86 1.347 . S
C85 H113 0.931 . S
C86 C85 1.347 . S
C86 C87 1.369 1_554 S
C87 C86 1.369 1_556 S
C87 C88 1.408 . S
C87 H114 0.930 . S
C88 C83 1.348 1_556 S
C88 C87 1.408 . S
C88 H115 0.930 . S
C89 O102 1.281 . S
C89 O103 1.254 . S
C90 O104 1.236 1_565 S
C90 O105 1.266 . S
C91 Tb81 2.809 1_556 S
C91 C92 1.514 . S
C91 O106 1.248 . S
C91 O107 1.266 1_556 S
C92 C91 1.514 . S
C92 C93 1.359 . S
C92 C97 1.348 1_556 S
C93 C92 1.359 . S
C93 C94 1.380 . S
C93 H116 0.929 . S
C94 C93 1.380 . S
C94 C95 1.347 . S
C94 H117 0.931 . S
C95 C94 1.347 . S
C95 C96 1.369 1_556 S
C96 C95 1.369 1_554 S
C96 C97 1.408 . S
C96 H118 0.930 . S
C97 C92 1.348 1_554 S
C97 C96 1.408 . S
C97 H119 0.930 . S
C98 O108 1.281 . S
C98 O109 1.254 1_545 S
C99 O110 1.236 . S
C99 O111 1.266 . S
O100 Tb80 2.484 1_554 S
O100 C82 1.248 . S
O101 Tb80 2.440 . S
O101 C82 1.266 1_556 S
O102 Tb80 2.658 . S
O102 Tb81 2.325 1_546 S
O102 C89 1.281 . S
O103 Tb80 2.409 . S
O103 C89 1.254 . S
O104 Tb80 2.378 . S
O104 C90 1.236 1_545 S
O105 Tb81 2.341 1_556 S
O105 C90 1.266 . S
O106 Tb81 2.484 1_556 S
O106 C91 1.248 . S
O107 Tb81 2.440 . S
O107 C91 1.266 1_554 S
O108 Tb80 2.325 1_554 S
O108 Tb81 2.658 1_545 S
O108 C98 1.281 . S
O109 Tb81 2.409 . S
O109 C98 1.254 1_565 S
O110 Tb81 2.378 1_545 S
O110 C99 1.236 . S
O111 Tb80 2.341 1_554 S
O111 C99 1.266 . S
H112 C84 0.929 . S
H113 C85 0.931 . S
H114 C87 0.930 . S
H115 C88 0.930 . S
H116 C93 0.929 . S
H117 C94 0.931 . S
H118 C96 0.930 . S
H119 C97 0.930 . S
Tb120 C122 2.809 . S
Tb120 O140 2.484 . S
Tb120 O141 2.440 . S
Tb120 O142 2.658 . S
Tb120 O143 2.409 . S
Tb120 O144 2.378 . S
Tb120 O148 2.325 . S
Tb120 O151 2.341 . S
Tb121 C131 2.809 . S
Tb121 O142 2.325 . S
Tb121 O145 2.341 . S
Tb121 O146 2.484 . S
Tb121 O147 2.440 . S
Tb121 O148 2.658 . S
Tb121 O149 2.409 . S
Tb121 O150 2.378 . S
C122 Tb120 2.809 . S
C122 C123 1.514 . S
C122 O140 1.248 . S
C122 O141 1.266 . S
C123 C122 1.514 . S
C123 C124 1.359 . S
C123 C128 1.348 . S
C124 C123 1.359 . S
C124 C125 1.380 . S
C124 H152 0.929 . S
C125 C124 1.380 . S
C125 C126 1.347 . S
C125 H153 0.931 . S
C126 C125 1.347 . S
C126 C127 1.369 . S
C127 C126 1.369 . S
C127 C128 1.408 . S
C127 H154 0.930 . S
C128 C123 1.348 . S
C128 C127 1.408 . S
C128 H155 0.930 . S
C129 O142 1.281 . S
C129 O143 1.254 . S
C130 O144 1.236 . S
C130 O145 1.266 . S
C131 Tb121 2.809 . S
C131 C132 1.514 . S
C131 O146 1.248 . S
C131 O147 1.266 . S
C132 C131 1.514 . S
C132 C133 1.359 . S
C132 C137 1.348 . S
C133 C132 1.359 . S
C133 C134 1.380 . S
C133 H156 0.929 . S
C134 C133 1.380 . S
C134 C135 1.347 . S
C134 H157 0.931 . S
C135 C134 1.347 . S
C135 C136 1.369 . S
C136 C135 1.369 . S
C136 C137 1.408 . S
C136 H158 0.930 . S
C137 C132 1.348 . S
C137 C136 1.408 . S
C137 H159 0.930 . S
C138 O148 1.281 . S
C138 O149 1.254 . S
C139 O150 1.236 . S
C139 O151 1.266 . S
O140 Tb120 2.484 . S
O140 C122 1.248 . S
O141 Tb120 2.440 . S
O141 C122 1.266 . S
O142 Tb120 2.658 . S
O142 Tb121 2.325 . S
O142 C129 1.281 . S
O143 Tb120 2.409 . S
O143 C129 1.254 . S
O144 Tb120 2.378 . S
O144 C130 1.236 . S
O145 Tb121 2.341 . S
O145 C130 1.266 . S
O146 Tb121 2.484 . S
O146 C131 1.248 . S
O147 Tb121 2.440 . S
O147 C131 1.266 . S
O148 Tb120 2.325 . S
O148 Tb121 2.658 . S
O148 C138 1.281 . S
O149 Tb121 2.409 . S
O149 C138 1.254 . S
O150 Tb121 2.378 . S
O150 C139 1.236 . S
O151 Tb120 2.341 . S
O151 C139 1.266 . S
H152 C124 0.929 . S
H153 C125 0.931 . S
H154 C127 0.930 . S
H155 C128 0.930 . S
H156 C133 0.929 . S
H157 C134 0.931 . S
H158 C136 0.930 . S
H159 C137 0.930 . S
Tb160 C162 2.809 . S
Tb160 O180 2.484 . S
Tb160 O181 2.440 . S
Tb160 O182 2.658 . S
Tb160 O183 2.409 . S
Tb160 O184 2.378 . S
Tb160 O188 2.325 . S
Tb160 O191 2.341 . S
Tb161 C171 2.809 . S
Tb161 O182 2.325 . S
Tb161 O185 2.341 . S
Tb161 O186 2.484 . S
Tb161 O187 2.440 . S
Tb161 O188 2.658 . S
Tb161 O189 2.409 . S
Tb161 O190 2.378 . S
C162 Tb160 2.809 . S
C162 C163 1.514 . S
C162 O180 1.248 . S
C162 O181 1.266 . S
C163 C162 1.514 . S
C163 C164 1.359 . S
C163 C168 1.348 . S
C164 C163 1.359 . S
C164 C165 1.380 . S
C164 H192 0.929 . S
C165 C164 1.380 . S
C165 C166 1.347 . S
C165 H193 0.931 . S
C166 C165 1.347 . S
C166 C167 1.369 . S
C167 C166 1.369 . S
C167 C168 1.408 . S
C167 H194 0.930 . S
C168 C163 1.348 . S
C168 C167 1.408 . S
C168 H195 0.930 . S
C169 O182 1.281 . S
C169 O183 1.254 . S
C170 O184 1.236 . S
C170 O185 1.266 . S
C171 Tb161 2.809 . S
C171 C172 1.514 . S
C171 O186 1.248 . S
C171 O187 1.266 . S
C172 C171 1.514 . S
C172 C173 1.359 . S
C172 C177 1.348 . S
C173 C172 1.359 . S
C173 C174 1.380 . S
C173 H196 0.929 . S
C174 C173 1.380 . S
C174 C175 1.347 . S
C174 H197 0.931 . S
C175 C174 1.347 . S
C175 C176 1.369 . S
C176 C175 1.369 . S
C176 C177 1.408 . S
C176 H198 0.930 . S
C177 C172 1.348 . S
C177 C176 1.408 . S
C177 H199 0.930 . S
C178 O188 1.281 . S
C178 O189 1.254 . S
C179 O190 1.236 . S
C179 O191 1.266 . S
O180 Tb160 2.484 . S
O180 C162 1.248 . S
O181 Tb160 2.440 . S
O181 C162 1.266 . S
O182 Tb160 2.658 . S
O182 Tb161 2.325 . S
O182 C169 1.281 . S
O183 Tb160 2.409 . S
O183 C169 1.254 . S
O184 Tb160 2.378 . S
O184 C170 1.236 . S
O185 Tb161 2.341 . S
O185 C170 1.266 . S
O186 Tb161 2.484 . S
O186 C171 1.248 . S
O187 Tb161 2.440 . S
O187 C171 1.266 . S
O188 Tb160 2.325 . S
O188 Tb161 2.658 . S
O188 C178 1.281 . S
O189 Tb161 2.409 . S
O189 C178 1.254 . S
O190 Tb161 2.378 . S
O190 C179 1.236 . S
O191 Tb160 2.341 . S
O191 C179 1.266 . S
H192 C164 0.929 . S
H193 C165 0.931 . S
H194 C167 0.930 . S
H195 C168 0.930 . S
H196 C173 0.929 . S
H197 C174 0.931 . S
H198 C176 0.930 . S
H199 C177 0.930 . S
Tb200 C202 2.809 . S
Tb200 O220 2.484 . S
Tb200 O221 2.440 . S
Tb200 O222 2.658 . S
Tb200 O223 2.409 . S
Tb200 O224 2.378 . S
Tb200 O228 2.325 . S
Tb200 O231 2.341 . S
Tb201 C211 2.809 . S
Tb201 O222 2.325 . S
Tb201 O225 2.341 . S
Tb201 O226 2.484 . S
Tb201 O227 2.440 . S
Tb201 O228 2.658 . S
Tb201 O229 2.409 . S
Tb201 O230 2.378 . S
C202 Tb200 2.809 . S
C202 C203 1.514 . S
C202 O220 1.248 . S
C202 O221 1.266 . S
C203 C202 1.514 . S
C203 C204 1.359 . S
C203 C208 1.348 . S
C204 C203 1.359 . S
C204 C205 1.380 . S
C204 H232 0.929 . S
C205 C204 1.380 . S
C205 C206 1.347 1_655 S
C205 H233 0.931 . S
C206 C205 1.347 1_455 S
C206 C207 1.393 . S
C207 C206 1.393 . S
C207 C208 1.361 1_455 S
C207 H234 0.955 . S
C208 C203 1.348 . S
C208 C207 1.361 1_655 S
C208 H235 0.930 . S
C209 O222 1.281 . S
C209 O223 1.254 . S
C210 O224 1.236 . S
C210 O225 1.266 . S
C211 Tb201 2.809 . S
C211 C212 1.514 . S
C211 O226 1.248 . S
C211 O227 1.266 . S
C212 C211 1.514 . S
C212 C213 1.359 . S
C212 C217 1.348 . S
C213 C212 1.359 . S
C213 C214 1.380 . S
C213 H236 0.929 . S
C214 C213 1.380 . S
C214 C215 1.347 . S
C214 H237 0.931 . S
C215 C214 1.347 . S
C215 C216 1.369 . S
C216 C215 1.369 . S
C216 C217 1.408 . S
C216 H238 0.930 . S
C217 C212 1.348 . S
C217 C216 1.408 . S
C217 H239 0.930 . S
C218 O228 1.281 . S
C218 O229 1.254 . S
C219 O230 1.236 . S
C219 O231 1.266 . S
O220 Tb200 2.484 . S
O220 C202 1.248 . S
O221 Tb200 2.440 . S
O221 C202 1.266 . S
O222 Tb200 2.658 . S
O222 Tb201 2.325 . S
O222 C209 1.281 . S
O223 Tb200 2.409 . S
O223 C209 1.254 . S
O224 Tb200 2.378 . S
O224 C210 1.236 . S
O225 Tb201 2.341 . S
O225 C210 1.266 . S
O226 Tb201 2.484 . S
O226 C211 1.248 . S
O227 Tb201 2.440 . S
O227 C211 1.266 . S
O228 Tb200 2.325 . S
O228 Tb201 2.658 . S
O228 C218 1.281 . S
O229 Tb201 2.409 . S
O229 C218 1.254 . S
O230 Tb201 2.378 . S
O230 C219 1.236 . S
O231 Tb200 2.341 . S
O231 C219 1.266 . S
H232 C204 0.929 . S
H233 C205 0.931 . S
H234 C207 0.955 . S
H235 C208 0.930 . S
H236 C213 0.929 . S
H237 C214 0.931 . S
H238 C216 0.930 . S
H239 C217 0.930 . S
Tb240 C242 2.809 . S
Tb240 O260 2.484 . S
Tb240 O261 2.440 . S
Tb240 O262 2.658 . S
Tb240 O263 2.409 . S
Tb240 O264 2.378 . S
Tb240 O268 2.325 . S
Tb240 O271 2.341 . S
Tb241 C251 2.809 . S
Tb241 O262 2.325 . S
Tb241 O265 2.341 . S
Tb241 O266 2.484 . S
Tb241 O267 2.440 . S
Tb241 O268 2.658 . S
Tb241 O269 2.409 . S
Tb241 O270 2.378 . S
C242 Tb240 2.809 . S
C242 C243 1.514 . S
C242 O260 1.248 . S
C242 O261 1.266 . S
C243 C242 1.514 . S
C243 C244 1.359 . S
C243 C248 1.348 . S
C244 C243 1.359 . S
C244 C245 1.380 . S
C244 H272 0.929 . S
C245 C244 1.380 . S
C245 C246 1.347 . S
C245 H273 0.931 . S
C246 C245 1.347 . S
C246 C247 1.369 . S
C247 C246 1.369 . S
C247 C248 1.408 . S
C247 H274 0.930 . S
C248 C243 1.348 . S
C248 C247 1.408 . S
C248 H275 0.930 . S
C249 O262 1.281 . S
C249 O263 1.254 . S
C250 O264 1.236 . S
C250 O265 1.266 . S
C251 Tb241 2.809 . S
C251 C252 1.514 . S
C251 O266 1.248 . S
C251 O267 1.266 . S
C252 C251 1.514 . S
C252 C253 1.359 . S
C252 C257 1.348 . S
C253 C252 1.359 . S
C253 C254 1.380 . S
C253 H276 0.929 . S
C254 C253 1.380 . S
C254 C255 1.347 . S
C254 H277 0.931 . S
C255 C254 1.347 . S
C255 C256 1.369 . S
C256 C255 1.369 . S
C256 C257 1.408 . S
C256 H278 0.930 . S
C257 C252 1.348 . S
C257 C256 1.408 . S
C257 H279 0.930 . S
C258 O268 1.281 . S
C258 O269 1.254 . S
C259 O270 1.236 . S
C259 O271 1.266 . S
O260 Tb240 2.484 . S
O260 C242 1.248 . S
O261 Tb240 2.440 . S
O261 C242 1.266 . S
O262 Tb240 2.658 . S
O262 Tb241 2.325 . S
O262 C249 1.281 . S
O263 Tb240 2.409 . S
O263 C249 1.254 . S
O264 Tb240 2.378 . S
O264 C250 1.236 . S
O265 Tb241 2.341 . S
O265 C250 1.266 . S
O266 Tb241 2.484 . S
O266 C251 1.248 . S
O267 Tb241 2.440 . S
O267 C251 1.266 . S
O268 Tb240 2.325 . S
O268 Tb241 2.658 . S
O268 C258 1.281 . S
O269 Tb241 2.409 . S
O269 C258 1.254 . S
O270 Tb241 2.378 . S
O270 C259 1.236 . S
O271 Tb240 2.341 . S
O271 C259 1.266 . S
H272 C244 0.929 . S
H273 C245 0.931 . S
H274 C247 0.930 . S
H275 C248 0.930 . S
H276 C253 0.929 . S
H277 C254 0.931 . S
H278 C256 0.930 . S
H279 C257 0.930 . S
Tb280 C282 2.809 . S
Tb280 O300 2.484 . S
Tb280 O301 2.440 . S
Tb280 O302 2.658 . S
Tb280 O303 2.409 . S
Tb280 O304 2.378 . S
Tb280 O308 2.325 . S
Tb280 O311 2.341 . S
Tb281 C291 2.809 . S
Tb281 O302 2.325 . S
Tb281 O305 2.341 . S
Tb281 O306 2.484 . S
Tb281 O307 2.440 . S
Tb281 O308 2.658 . S
Tb281 O309 2.409 . S
Tb281 O310 2.378 . S
C282 Tb280 2.809 . S
C282 C283 1.514 . S
C282 O300 1.248 . S
C282 O301 1.266 . S
C283 C282 1.514 . S
C283 C284 1.359 . S
C283 C288 1.348 . S
C284 C283 1.359 . S
C284 C285 1.380 . S
C284 H312 0.929 . S
C285 C284 1.380 . S
C285 C286 1.347 . S
C285 H313 0.931 . S
C286 C285 1.347 . S
C286 C287 1.369 . S
C287 C286 1.369 . S
C287 C288 1.408 . S
C287 H314 0.930 . S
C288 C283 1.348 . S
C288 C287 1.408 . S
C288 H315 0.930 . S
C289 O302 1.281 . S
C289 O303 1.254 . S
C290 O304 1.236 . S
C290 O305 1.266 . S
C291 Tb281 2.809 . S
C291 C292 1.514 . S
C291 O306 1.248 . S
C291 O307 1.266 . S
C292 C291 1.514 . S
C292 C293 1.359 . S
C292 C297 1.348 . S
C293 C292 1.359 . S
C293 C294 1.380 . S
C293 H316 0.929 . S
C294 C293 1.380 . S
C294 C295 1.347 . S
C294 H317 0.931 . S
C295 C294 1.347 . S
C295 C296 1.369 . S
C296 C295 1.369 . S
C296 C297 1.408 . S
C296 H318 0.930 . S
C297 C292 1.348 . S
C297 C296 1.408 . S
C297 H319 0.930 . S
C298 O308 1.281 . S
C298 O309 1.254 . S
C299 O310 1.236 . S
C299 O311 1.266 . S
O300 Tb280 2.484 . S
O300 C282 1.248 . S
O301 Tb280 2.440 . S
O301 C282 1.266 . S
O302 Tb280 2.658 . S
O302 Tb281 2.325 . S
O302 C289 1.281 . S
O303 Tb280 2.409 . S
O303 C289 1.254 . S
O304 Tb280 2.378 . S
O304 C290 1.236 . S
O305 Tb281 2.341 . S
O305 C290 1.266 . S
O306 Tb281 2.484 . S
O306 C291 1.248 . S
O307 Tb281 2.440 . S
O307 C291 1.266 . S
O308 Tb280 2.325 . S
O308 Tb281 2.658 . S
O308 C298 1.281 . S
O309 Tb281 2.409 . S
O309 C298 1.254 . S
O310 Tb281 2.378 . S
O310 C299 1.236 . S
O311 Tb280 2.341 . S
O311 C299 1.266 . S
H312 C284 0.929 . S
H313 C285 0.931 . S
H314 C287 0.930 . S
H315 C288 0.930 . S
H316 C293 0.929 . S
H317 C294 0.931 . S
H318 C296 0.930 . S
H319 C297 0.930 . S
Tb320 C322 2.809 . S
Tb320 O340 2.484 . S
Tb320 O341 2.440 . S
Tb320 O342 2.658 . S
Tb320 O343 2.409 . S
Tb320 O344 2.378 . S
Tb320 O348 2.325 . S
Tb320 O351 2.341 . S
Tb321 C331 2.809 . S
Tb321 O342 2.325 . S
Tb321 O345 2.341 . S
Tb321 O346 2.484 . S
Tb321 O347 2.440 . S
Tb321 O348 2.658 . S
Tb321 O349 2.409 . S
Tb321 O350 2.378 . S
C322 Tb320 2.809 . S
C322 C323 1.514 . S
C322 O340 1.248 . S
C322 O341 1.266 . S
C323 C322 1.514 . S
C323 C324 1.359 . S
C323 C328 1.348 . S
C324 C323 1.359 . S
C324 C325 1.380 . S
C324 H352 0.929 . S
C325 C324 1.380 . S
C325 C326 1.347 . S
C325 H353 0.931 . S
C326 C325 1.347 . S
C326 C327 1.369 . S
C327 C326 1.369 . S
C327 C328 1.408 . S
C327 H354 0.930 . S
C328 C323 1.348 . S
C328 C327 1.408 . S
C328 H355 0.930 . S
C329 O342 1.281 . S
C329 O343 1.254 . S
C330 O344 1.236 . S
C330 O345 1.266 . S
C331 Tb321 2.809 . S
C331 C332 1.514 . S
C331 O346 1.248 . S
C331 O347 1.266 . S
C332 C331 1.514 . S
C332 C333 1.359 . S
C332 C337 1.348 . S
C333 C332 1.359 . S
C333 C334 1.380 . S
C333 H356 0.929 . S
C334 C333 1.380 . S
C334 C335 1.347 . S
C334 H357 0.931 . S
C335 C334 1.347 . S
C335 C336 1.369 . S
C336 C335 1.369 . S
C336 C337 1.408 . S
C336 H358 0.930 . S
C337 C332 1.348 . S
C337 C336 1.408 . S
C337 H359 0.930 . S
C338 O348 1.281 . S
C338 O349 1.254 . S
C339 O350 1.236 . S
C339 O351 1.266 . S
O340 Tb320 2.484 . S
O340 C322 1.248 . S
O341 Tb320 2.440 . S
O341 C322 1.266 . S
O342 Tb320 2.658 . S
O342 Tb321 2.325 . S
O342 C329 1.281 . S
O343 Tb320 2.409 . S
O343 C329 1.254 . S
O344 Tb320 2.378 . S
O344 C330 1.236 . S
O345 Tb321 2.341 . S
O345 C330 1.266 . S
O346 Tb321 2.484 . S
O346 C331 1.248 . S
O347 Tb321 2.440 . S
O347 C331 1.266 . S
O348 Tb320 2.325 . S
O348 Tb321 2.658 . S
O348 C338 1.281 . S
O349 Tb321 2.409 . S
O349 C338 1.254 . S
O350 Tb321 2.378 . S
O350 C339 1.236 . S
O351 Tb320 2.341 . S
O351 C339 1.266 . S
H352 C324 0.929 . S
H353 C325 0.931 . S
H354 C327 0.930 . S
H355 C328 0.930 . S
H356 C333 0.929 . S
H357 C334 0.931 . S
H358 C336 0.930 . S
H359 C337 0.930 . S
C360 C361 1.369 1_554 S
C360 C362 1.419 1_554 S
C360 H364 0.930 . S
C361 C360 1.369 1_556 S
C361 C370 1.429 . S
C362 C360 1.419 1_556 S
C362 C363 1.363 . S
C362 H365 0.929 . S
C363 C362 1.363 . S
C363 C369 1.428 . S
H364 C360 0.930 . S
H365 C362 0.929 . S
S366 N367 1.613 . S
S366 N368 1.610 . S
N367 S366 1.613 . S
N367 C370 1.350 . S
N368 S366 1.610 . S
N368 C369 1.351 . S
C369 C363 1.428 . S
C369 N368 1.351 . S
C369 C370 1.434 . S
C370 C361 1.429 . S
C370 N367 1.350 . S
C370 C369 1.434 . S
C371 C372 1.369 . S
C371 C373 1.419 . S
C371 H375 0.930 1_556 S
C372 C371 1.369 . S
C372 C381 1.429 . S
C373 C371 1.419 . S
C373 C374 1.363 . S
C373 H376 0.929 . S
C374 C373 1.363 . S
C374 C380 1.428 . S
H375 C371 0.930 1_554 S
H376 C373 0.929 . S
S377 N378 1.613 . S
S377 N379 1.610 . S
N378 S377 1.613 . S
N378 C381 1.350 . S
N379 S377 1.610 . S
N379 C380 1.351 . S
C380 C374 1.428 . S
C380 N379 1.351 . S
C380 C381 1.434 . S
C381 C372 1.429 . S
C381 N378 1.350 . S
C381 C380 1.434 . S
C382 C383 1.369 . S
C382 C384 1.419 . S
C382 H386 0.930 . S
C383 C382 1.369 . S
C383 C392 1.429 . S
C384 C382 1.419 . S
C384 C385 1.363 . S
C384 H387 0.929 . S
C385 C384 1.363 . S
C385 C391 1.428 . S
H386 C382 0.930 . S
H387 C384 0.929 . S
S388 N389 1.613 . S
S388 N390 1.610 1_545 S
N389 S388 1.613 . S
N389 C392 1.350 1_545 S
N390 S388 1.610 1_565 S
N390 C391 1.351 . S
C391 C385 1.428 . S
C391 N390 1.351 . S
C391 C392 1.434 . S
C392 C383 1.429 . S
C392 N389 1.350 1_565 S
C392 C391 1.434 . S
C393 C394 1.369 . S
C393 C395 1.419 . S
C393 H397 0.930 . S
C394 C393 1.369 . S
C394 C403 1.429 . S
C395 C393 1.419 . S
C395 C396 1.363 . S
C395 H398 0.929 . S
C396 C395 1.363 . S
C396 C402 1.428 . S
H397 C393 0.930 . S
H398 C395 0.929 . S
S399 N400 1.613 . S
S399 N401 1.610 . S
N400 S399 1.613 . S
N400 C403 1.350 . S
N401 S399 1.610 . S
N401 C402 1.351 . S
C402 C396 1.428 . S
C402 N401 1.351 . S
C402 C403 1.434 . S
C403 C394 1.429 . S
C403 N400 1.350 . S
C403 C402 1.434 . S
C404 C405 1.369 . S
C404 C406 1.419 . S
C404 H408 0.930 . S
C405 C404 1.369 . S
C405 C414 1.429 . S
C406 C404 1.419 . S
C406 C407 1.363 . S
C406 H409 0.929 . S
C407 C406 1.363 . S
C407 C413 1.428 . S
H408 C404 0.930 . S
H409 C406 0.929 . S
S410 N411 1.613 . S
S410 N412 1.610 . S
N411 S410 1.613 . S
N411 C414 1.350 . S
N412 S410 1.610 . S
N412 C413 1.351 . S
C413 C407 1.428 . S
C413 N412 1.351 . S
C413 C414 1.434 . S
C414 C405 1.429 . S
C414 N411 1.350 . S
C414 C413 1.434 . S
C415 C416 1.369 . S
C415 C417 1.419 . S
C415 H419 0.930 . S
C416 C415 1.369 . S
C416 C425 1.429 . S
C417 C415 1.419 . S
C417 C418 1.363 . S
C417 H420 0.929 . S
C418 C417 1.363 . S
C418 C424 1.428 . S
H419 C415 0.930 . S
H420 C417 0.929 . S
S421 N422 1.613 . S
S421 N423 1.610 1_556 S
N422 S421 1.613 . S
N422 C425 1.344 1_556 S
N423 S421 1.610 1_554 S
N423 C424 1.351 . S
C424 C418 1.428 . S
C424 N423 1.351 . S
C424 C425 1.434 . S
C425 C416 1.429 . S
C425 N422 1.344 1_554 S
C425 C424 1.434 . S
C426 C427 1.369 . S
C426 C428 1.419 . S
C426 H430 0.930 . S
C427 C426 1.369 . S
C427 C436 1.429 . S
C428 C426 1.419 . S
C428 C429 1.363 . S
C428 H431 0.929 . S
C429 C428 1.363 . S
C429 C435 1.428 . S
H430 C426 0.930 . S
H431 C428 0.929 . S
S432 N433 1.613 . S
S432 N434 1.610 . S
N433 S432 1.613 . S
N433 C436 1.350 . S
N434 S432 1.610 . S
N434 C435 1.351 . S
C435 C429 1.428 . S
C435 N434 1.351 . S
C435 C436 1.434 . S
C436 C427 1.429 . S
C436 N433 1.350 . S
C436 C435 1.434 . S
C437 C438 1.369 . S
C437 C439 1.419 . S
C437 H441 0.930 . S
C438 C437 1.369 . S
C438 C447 1.429 . S
C439 C437 1.419 . S
C439 C440 1.363 . S
C439 H442 0.929 . S
C440 C439 1.363 . S
C440 C446 1.428 . S
H441 C437 0.930 . S
H442 C439 0.929 . S
S443 N444 1.613 . S
S443 N445 1.610 . S
N444 S443 1.613 . S
N444 C447 1.350 . S
N445 S443 1.610 . S
N445 C446 1.351 . S
C446 C440 1.428 . S
C446 N445 1.351 . S
C446 C447 1.434 . S
C447 C438 1.429 . S
C447 N444 1.350 . S
C447 C446 1.434 . S
C448 C449 1.369 . S
C448 C450 1.419 . S
C448 H452 0.930 . S
C449 C448 1.369 . S
C449 C458 1.429 . S
C450 C448 1.419 . S
C450 C451 1.363 . S
C450 H453 0.929 . S
C451 C450 1.363 . S
C451 C457 1.428 . S
H452 C448 0.930 . S
H453 C450 0.929 . S
S454 N455 1.613 . S
S454 N456 1.610 . S
N455 S454 1.613 . S
N455 C458 1.350 . S
N456 S454 1.610 . S
N456 C457 1.351 . S
C457 C451 1.428 . S
C457 N456 1.351 . S
C457 C458 1.434 . S
C458 C449 1.429 . S
C458 N455 1.350 . S
C458 C457 1.434 . S
C459 C460 1.369 1_556 S
C459 C461 1.419 . S
C459 H463 0.930 . S
C460 C459 1.369 1_554 S
C460 C469 1.429 . S
C461 C459 1.419 . S
C461 C462 1.363 . S
C461 H464 0.929 . S
C462 C461 1.363 . S
C462 C468 1.428 1_556 S
H463 C459 0.930 . S
H464 C461 0.929 . S
S465 N466 1.613 . S
S465 N467 1.610 . S
N466 S465 1.613 . S
N466 C469 1.350 . S
N467 S465 1.610 . S
N467 C468 1.351 . S
C468 C462 1.428 1_554 S
C468 N467 1.351 . S
C468 C469 1.434 . S
C469 C460 1.429 . S
C469 N466 1.350 . S
C469 C468 1.434 . S
C470 C471 1.369 . S
C470 C472 1.419 . S
C470 H474 0.930 . S
C471 C470 1.369 . S
C471 C480 1.429 1_556 S
C472 C470 1.419 . S
C472 C473 1.363 1_556 S
C472 H475 0.929 1_655 S
C473 C472 1.363 1_554 S
C473 C479 1.428 . S
H474 C470 0.930 . S
H475 C472 0.929 1_455 S
S476 N477 1.613 . S
S476 N478 1.610 . S
N477 S476 1.613 . S
N477 C480 1.350 . S
N478 S476 1.610 . S
N478 C479 1.351 . S
C479 C473 1.428 . S
C479 N478 1.351 . S
C479 C480 1.434 . S
C480 C471 1.429 1_554 S
C480 N477 1.350 . S
C480 C479 1.434 . S
C481 C482 1.372 . S
C481 C483 1.419 . S
C481 H485 0.930 . S
C482 C481 1.372 . S
C482 C491 1.425 1_554 S
C483 C481 1.419 . S
C483 C484 1.363 1_554 S
C483 H486 0.929 . S
C484 C483 1.363 1_556 S
C484 C490 1.428 . S
H485 C481 0.930 . S
H486 C483 0.929 . S
S487 N488 1.613 . S
S487 N489 1.610 . S
N488 S487 1.613 . S
N488 C491 1.350 . S
N489 S487 1.610 . S
N489 C490 1.351 . S
C490 C484 1.428 . S
C490 N489 1.351 . S
C490 C491 1.434 . S
C491 C482 1.425 1_556 S
C491 N488 1.350 . S
C491 C490 1.434 . S
C492 C493 1.369 . S
C492 C494 1.419 . S
C492 H496 0.930 . S
C493 C492 1.369 . S
C493 C502 1.429 . S
C494 C492 1.419 . S
C494 C495 1.363 . S
C494 H497 0.929 . S
C495 C494 1.363 . S
C495 C501 1.428 . S
H496 C492 0.930 . S
H497 C494 0.929 . S
S498 N499 1.613 . S
S498 N500 1.610 . S
N499 S498 1.613 . S
N499 C502 1.350 . S
N500 S498 1.610 . S
N500 C501 1.351 . S
C501 C495 1.428 . S
C501 N500 1.351 . S
C501 C502 1.434 . S
C502 C493 1.429 . S
C502 N499 1.350 . S
C502 C501 1.434 . S
C503 C504 1.369 . S
C503 C505 1.419 . S
C503 H507 0.930 . S
C504 C503 1.369 . S
C504 C513 1.429 . S
C505 C503 1.419 . S
C505 C506 1.363 . S
C505 H508 0.929 . S
C506 C505 1.363 . S
C506 C512 1.428 . S
H507 C503 0.930 . S
H508 C505 0.929 . S
S509 N510 1.613 . S
S509 N511 1.610 . S
N510 S509 1.613 . S
N510 C513 1.350 . S
N511 S509 1.610 . S
N511 C512 1.351 . S
C512 C506 1.428 . S
C512 N511 1.351 . S
C512 C513 1.434 . S
C513 C504 1.429 . S
C513 N510 1.350 . S
C513 C512 1.434 . S
C514 C515 1.369 . S
C514 C516 1.419 . S
C514 H518 0.930 . S
C515 C514 1.369 . S
C515 C524 1.429 . S
C516 C514 1.419 . S
C516 C517 1.363 . S
C516 H519 0.929 . S
C517 C516 1.363 . S
C517 C523 1.428 . S
H518 C514 0.930 . S
H519 C516 0.929 . S
S520 N521 1.613 . S
S520 N522 1.610 . S
N521 S520 1.613 . S
N521 C524 1.350 . S
N522 S520 1.610 . S
N522 C523 1.351 . S
C523 C517 1.428 . S
C523 N522 1.351 . S
C523 C524 1.434 . S
C524 C515 1.429 . S
C524 N521 1.350 . S
C524 C523 1.434 . S
C525 C526 1.369 . S
C525 C527 1.419 . S
C525 H529 0.930 . S
C526 C525 1.369 . S
C526 C535 1.429 . S
C527 C525 1.419 . S
C527 C528 1.363 . S
C527 H530 0.929 . S
C528 C527 1.363 . S
C528 C534 1.428 . S
H529 C525 0.930 . S
H530 C527 0.929 . S
S531 N532 1.613 . S
S531 N533 1.610 . S
N532 S531 1.613 . S
N532 C535 1.350 . S
N533 S531 1.610 . S
N533 C534 1.351 . S
C534 C528 1.428 . S
C534 N533 1.351 . S
C534 C535 1.434 . S
C535 C526 1.429 . S
C535 N532 1.350 . S
C535 C534 1.434 . S
C536 C537 1.369 . S
C536 C538 1.419 . S
C536 H540 0.930 . S
C537 C536 1.369 . S
C537 C546 1.429 . S
C538 C536 1.419 . S
C538 C539 1.363 . S
C538 H541 0.929 . S
C539 C538 1.363 . S
C539 C545 1.428 . S
H540 C536 0.930 . S
H541 C538 0.929 . S
S542 N543 1.613 . S
S542 N544 1.610 . S
N543 S542 1.613 . S
N543 C546 1.350 . S
N544 S542 1.610 . S
N544 C545 1.351 . S
C545 C539 1.428 . S
C545 N544 1.351 . S
C545 C546 1.434 . S
C546 C537 1.429 . S
C546 N543 1.350 . S
C546 C545 1.434 . S
C547 C548 1.369 . S
C547 C549 1.419 . S
C547 H551 0.930 . S
C548 C547 1.369 . S
C548 C557 1.429 . S
C549 C547 1.419 . S
C549 C550 1.363 . S
C549 H552 0.929 . S
C550 C549 1.363 . S
C550 C556 1.428 . S
H551 C547 0.930 . S
H552 C549 0.929 . S
S553 N554 1.613 . S
S553 N555 1.610 . S
N554 S553 1.613 . S
N554 C557 1.350 . S
N555 S553 1.610 . S
N555 C556 1.351 . S
C556 C550 1.428 . S
C556 N555 1.351 . S
C556 C557 1.434 . S
C557 C548 1.429 . S
C557 N554 1.350 . S
C557 C556 1.434 . S
C558 C559 1.369 . S
C558 C560 1.419 . S
C558 H562 0.930 . S
C559 C558 1.369 . S
C559 C568 1.429 . S
C560 C558 1.419 . S
C560 C561 1.363 . S
C560 H563 0.929 . S
C561 C560 1.363 . S
C561 C567 1.428 . S
H562 C558 0.930 . S
H563 C560 0.929 . S
S564 N565 1.613 . S
S564 N566 1.610 . S
N565 S564 1.613 . S
N565 C568 1.350 . S
N566 S564 1.610 . S
N566 C567 1.351 . S
C567 C561 1.428 . S
C567 N566 1.351 . S
C567 C568 1.434 . S
C568 C559 1.429 . S
C568 N565 1.350 . S
C568 C567 1.434 . S
C569 C570 1.369 . S
C569 C571 1.419 . S
C569 H573 0.930 . S
C570 C569 1.369 . S
C570 C579 1.429 . S
C571 C569 1.419 . S
C571 C572 1.363 . S
C571 H574 0.929 . S
C572 C571 1.363 . S
C572 C578 1.428 . S
H573 C569 0.930 . S
H574 C571 0.929 . S
S575 N576 1.613 . S
S575 N577 1.610 . S
N576 S575 1.613 . S
N576 C579 1.350 . S
N577 S575 1.610 . S
N577 C578 1.351 . S
C578 C572 1.428 . S
C578 N577 1.351 . S
C578 C579 1.434 . S
C579 C570 1.429 . S
C579 N576 1.350 . S
C579 C578 1.434 . S
C580 C581 1.369 1_565 S
C580 C582 1.419 . S
C580 H584 0.930 . S
C581 C580 1.369 1_545 S
C581 C590 1.429 . S
C582 C580 1.419 . S
C582 C583 1.363 1_565 S
C582 H585 0.929 . S
C583 C582 1.363 1_545 S
C583 C589 1.428 . S
H584 C580 0.930 . S
H585 C582 0.929 . S
S586 N587 1.613 . S
S586 N588 1.610 . S
N587 S586 1.613 . S
N587 C590 1.350 . S
N588 S586 1.610 . S
N588 C589 1.351 . S
C589 C583 1.428 . S
C589 N588 1.351 . S
C589 C590 1.434 . S
C590 C581 1.429 . S
C590 N587 1.350 . S
C590 C589 1.434 . S
C591 C592 1.369 . S
C591 C593 1.419 . S
C591 H595 0.930 . S
C592 C591 1.369 . S
C592 C601 1.429 . S
C593 C591 1.419 . S
C593 C594 1.363 . S
C593 H596 0.929 . S
C594 C593 1.363 . S
C594 C600 1.428 . S
H595 C591 0.930 . S
H596 C593 0.929 . S
S597 N598 1.613 . S
S597 N599 1.610 . S
N598 S597 1.613 . S
N598 C601 1.350 . S
N599 S597 1.610 . S
N599 C600 1.351 . S
C600 C594 1.428 . S
C600 N599 1.351 . S
C600 C601 1.434 . S
C601 C592 1.429 . S
C601 N598 1.350 . S
C601 C600 1.434 . S
C602 C603 1.369 . S
C602 C604 1.419 . S
C602 H606 0.930 . S
C603 C602 1.369 . S
C603 C612 1.429 . S
C604 C602 1.419 . S
C604 C605 1.363 . S
C604 H607 0.929 . S
C605 C604 1.363 . S
C605 C611 1.428 . S
H606 C602 0.930 . S
H607 C604 0.929 . S
S608 N609 1.613 . S
S608 N610 1.610 . S
N609 S608 1.613 . S
N609 C612 1.350 . S
N610 S608 1.610 . S
N610 C611 1.351 . S
C611 C605 1.428 . S
C611 N610 1.351 . S
C611 C612 1.434 . S
C612 C603 1.429 . S
C612 N609 1.350 . S
C612 C611 1.434 . S
C613 C614 1.369 . S
C613 C615 1.419 . S
C613 H617 0.930 . S
C614 C613 1.369 . S
C614 C623 1.429 . S
C615 C613 1.419 . S
C615 C616 1.363 . S
C615 H618 0.929 . S
C616 C615 1.363 . S
C616 C622 1.428 . S
H617 C613 0.930 . S
H618 C615 0.929 . S
S619 N620 1.613 . S
S619 N621 1.610 . S
N620 S619 1.613 . S
N620 C623 1.350 . S
N621 S619 1.610 . S
N621 C622 1.351 . S
C622 C616 1.428 . S
C622 N621 1.351 . S
C622 C623 1.434 . S
C623 C614 1.429 . S
C623 N620 1.350 . S
C623 C622 1.434 . S
C624 C625 1.369 . S
C624 C626 1.419 . S
C624 H628 0.930 . S
C625 C624 1.369 . S
C625 C634 1.429 . S
C626 C624 1.419 . S
C626 C627 1.363 . S
C626 H629 0.929 . S
C627 C626 1.363 . S
C627 C633 1.428 . S
H628 C624 0.930 . S
H629 C626 0.929 . S
S630 N631 1.613 . S
S630 N632 1.610 . S
N631 S630 1.613 . S
N631 C634 1.350 . S
N632 S630 1.610 . S
N632 C633 1.351 . S
C633 C627 1.428 . S
C633 N632 1.351 . S
C633 C634 1.434 . S
C634 C625 1.429 . S
C634 N631 1.350 . S
C634 C633 1.434 . S
C635 C636 1.369 . S
C635 C637 1.419 . S
C635 H639 0.930 . S
C636 C635 1.369 . S
C636 C645 1.429 . S
C637 C635 1.419 . S
C637 C638 1.363 . S
C637 H640 0.929 . S
C638 C637 1.363 . S
C638 C644 1.428 . S
H639 C635 0.930 . S
H640 C637 0.929 . S
S641 N642 1.613 . S
S641 N643 1.610 . S
N642 S641 1.613 . S
N642 C645 1.350 . S
N643 S641 1.610 . S
N643 C644 1.351 . S
C644 C638 1.428 . S
C644 N643 1.351 . S
C644 C645 1.434 . S
C645 C636 1.429 . S
C645 N642 1.350 . S
C645 C644 1.434 . S
C646 C647 1.369 . S
C646 C648 1.419 . S
C646 H650 0.930 . S
C647 C646 1.369 . S
C647 C656 1.429 . S
C648 C646 1.419 . S
C648 C649 1.363 . S
C648 H651 0.929 . S
C649 C648 1.363 . S
C649 C655 1.428 . S
H650 C646 0.930 . S
H651 C648 0.929 . S
S652 N653 1.613 . S
S652 N654 1.610 . S
N653 S652 1.613 . S
N653 C656 1.350 . S
N654 S652 1.610 . S
N654 C655 1.351 . S
C655 C649 1.428 . S
C655 N654 1.351 . S
C655 C656 1.434 . S
C656 C647 1.429 . S
C656 N653 1.350 . S
C656 C655 1.434 . S
C361 C10 1.764 . S
C363 C286 1.828 . S
C372 C50 1.768 . S
C374 C326 1.826 . S
C383 C90 1.769 . S
C385 C246 1.828 . S
C394 C170 1.766 . S
C396 C86 1.828 . S
C405 C210 1.765 . S
C407 C6 1.829 . S
C416 C46 1.828 . S
C418 C130 1.765 . S
C427 C290 1.764 . S
C429 C206 1.829 . S
C438 C330 1.766 . S
C440 C126 1.829 . S
C449 C166 1.827 1_565 S
C451 C250 1.766 . S
C460 C99 1.719 . S
C462 C15 1.692 . S
C471 C55 1.691 . S
C473 C19 1.718 . S
C482 C59 1.719 . S
C484 C95 1.693 1_655 S
C493 C135 1.695 . S
C495 C219 1.719 . S
C504 C139 1.718 . S
C506 C175 1.691 . S
C515 C179 1.718 . S
C517 C215 1.692 . S
C526 C339 1.719 . S
C528 C255 1.695 . S
C537 C295 1.694 . S
C539 C259 1.718 . S
C548 C335 1.690 . S
C550 C299 1.718 . S
C559 C9 1.154 . S
C561 C18 1.161 . S
C570 C49 1.154 . S
C572 C58 1.161 . S
C581 C89 1.156 . S
C583 C98 1.160 . S
C592 C138 1.161 . S
C594 C129 1.155 1_556 S
C603 C178 1.153 . S
C605 C169 1.162 1_556 S
C614 C218 1.163 . S
C616 C209 1.154 1_556 S
C625 C249 1.160 . S
C627 C258 1.156 1_554 S
C636 C298 1.153 1_554 S
C638 C289 1.162 . S
C647 C329 1.157 . S
C649 C338 1.159 1_554 S
