# Generated by pormake.
# Topology smu, (6)-cn, num edge types: 1
# Building blocks:
#     Node 0, Type 0, BuildingBlock: PAMTUU_clean_sbu_0, # of connection points: 6
#     Node 1, Type 0, BuildingBlock: PAMTUU_clean_sbu_0, # of connection points: 6
#     Node 2, Type 0, BuildingBlock: PAMTUU_clean_sbu_0, # of connection points: 6
#     Node 3, Type 0, BuildingBlock: PAMTUU_clean_sbu_0, # of connection points: 6
#     Node 4, Type 0, BuildingBlock: PAMTUU_clean_sbu_0, # of connection points: 6
#     Node 5, Type 0, BuildingBlock: PAMTUU_clean_sbu_0, # of connection points: 6
#     Edge 6, Type (0, 0), BuildingBlock: OJICUG_clean_linker_0, # of connection points: 2
#     Edge 7, Type (0, 0), BuildingBlock: OJICUG_clean_linker_0, # of connection points: 2
#     Edge 8, Type (0, 0), BuildingBlock: OJICUG_clean_linker_0, # of connection points: 2
#     Edge 9, Type (0, 0), BuildingBlock: OJICUG_clean_linker_0, # of connection points: 2
#     Edge 10, Type (0, 0), BuildingBlock: OJICUG_clean_linker_0, # of connection points: 2
#     Edge 11, Type (0, 0), BuildingBlock: OJICUG_clean_linker_0, # of connection points: 2
#     Edge 12, Type (0, 0), BuildingBlock: OJICUG_clean_linker_0, # of connection points: 2
#     Edge 13, Type (0, 0), BuildingBlock: OJICUG_clean_linker_0, # of connection points: 2
#     Edge 14, Type (0, 0), BuildingBlock: OJICUG_clean_linker_0, # of connection points: 2
#     Edge 15, Type (0, 0), BuildingBlock: OJICUG_clean_linker_0, # of connection points: 2
#     Edge 16, Type (0, 0), BuildingBlock: OJICUG_clean_linker_0, # of connection points: 2
#     Edge 17, Type (0, 0), BuildingBlock: OJICUG_clean_linker_0, # of connection points: 2
#     Edge 18, Type (0, 0), BuildingBlock: OJICUG_clean_linker_0, # of connection points: 2
#     Edge 19, Type (0, 0), BuildingBlock: OJICUG_clean_linker_0, # of connection points: 2
#     Edge 20, Type (0, 0), BuildingBlock: OJICUG_clean_linker_0, # of connection points: 2
#     Edge 21, Type (0, 0), BuildingBlock: OJICUG_clean_linker_0, # of connection points: 2
#     Edge 22, Type (0, 0), BuildingBlock: OJICUG_clean_linker_0, # of connection points: 2
#     Edge 23, Type (0, 0), BuildingBlock: OJICUG_clean_linker_0, # of connection points: 2
# Relax obj value: 0.228
# Max RMSD: 0.334
# Mean RMSD: 0.334
data_MOF--net-smu--node1-PAMTUU_clean_sbu_0--edge1-OJICUG_clean_linker_0
_symmetry_space_group_name_H-M    P1
_symmetry_Int_Tables_number       1
_symmetry_cell_setting            triclinic
loop_
_symmetry_equiv_pos_as_xyz
'x, y, z'
_cell_length_a     31.400603
_cell_length_b     31.361281
_cell_length_c     19.889208
_cell_angle_alpha  89.679328
_cell_angle_beta   90.062565
_cell_angle_gamma 120.09936
loop_
_atom_site_label
_atom_site_type_symbol
_atom_site_fract_x
_atom_site_fract_y
_atom_site_fract_z
_atom_type_partial_charge
Tb0 Tb 0.31848 0.12412 0.27139 0.0
Tb1 Tb 0.40162 0.09169 0.2701 0.0
C2 C 0.33813 0.07586 0.14073 0.0
C3 C 0.23676 0.18774 0.26762 0.0
C4 C 0.18223 0.23652 0.26706 0.0
C5 C 0.21226 0.241 0.21205 0.0
C6 C 0.23937 0.21692 0.2124 0.0
C7 C 0.20682 0.18315 0.32275 0.0
C8 C 0.1798 0.20748 0.32255 0.0
C9 C 0.26704 0.16419 0.26897 0.0
O10 O 0.2742 0.04685 0.25453 0.0
O11 O 0.33077 0.02154 0.27961 0.0
O12 O 0.38303 0.09287 0.37572 0.0
O13 O 0.30712 0.08658 0.3678 0.0
O14 O 0.45221 0.07923 0.21727 0.0
O15 O 0.45131 0.0786 0.32542 0.0
O16 O 0.43558 0.16981 0.24314 0.0
O17 O 0.38698 0.18149 0.31353 0.0
O18 O 0.32164 0.1041 0.16534 0.0
O19 O 0.36651 0.06434 0.17511 0.0
C20 C 0.28547 1.01256 0.26675 0.0
O21 O 0.258 0.1278 0.30965 0.0
O22 O 0.30425 0.17709 0.22825 0.0
C23 C 0.33922 0.07934 0.40095 0.0
C24 C 0.52856 0.10631 0.27251 0.0
C25 C 0.63306 0.15792 0.27325 0.0
C26 C 0.60567 0.11304 0.3085 0.0
C27 C 0.55424 0.08785 0.30838 0.0
C28 C 0.55532 0.15098 0.23687 0.0
C29 C 0.60706 0.17652 0.23724 0.0
C30 C 0.47414 0.07715 0.27167 0.0
C31 C 0.42775 0.19971 0.27947 0.0
H32 H 0.21453 0.26295 0.16849 0.0
H33 H 0.26224 0.22103 0.16932 0.0
H34 H 0.20445 0.16098 0.3661 0.0
H35 H 0.15605 0.20251 0.36491 0.0
H36 H 0.62383 0.0966 0.33554 0.0
H37 H 0.5344 0.05337 0.33586 0.0
H38 H 0.53632 0.16608 0.20872 0.0
H39 H 0.62657 0.21107 0.20998 0.0
Tb40 Tb 0.83736 0.71987 0.2684 0.0
Tb41 Tb 0.72046 0.64373 0.26608 0.0
C42 C 0.7696 0.70551 0.13839 0.0
C43 C 0.98265 0.80185 0.27179 0.0
C44 C 0.08603 0.86283 0.27216 0.0
C45 C 0.05871 0.85637 0.2128 0.0
C46 C 1.00741 0.82569 0.21248 0.0
C47 C 1.00945 0.80915 0.33106 0.0
C48 C 0.06042 0.83874 0.33121 0.0
C49 C 0.9295 0.76695 0.27408 0.0
O50 O 0.81165 0.77016 0.253 0.0
O51 O 0.72748 0.71827 0.27217 0.0
O52 O 0.74228 0.65812 0.37126 0.0
O53 O 0.81 0.73462 0.36101 0.0
O54 O 0.65813 0.59254 0.21276 0.0
O55 O 0.65494 0.59851 0.32023 0.0
O56 O 0.76084 0.60647 0.2356 0.0
O57 O 0.82104 0.64935 0.30873 0.0
O58 O 0.81295 0.71378 0.16135 0.0
O59 O 0.72955 0.68325 0.17452 0.0
C60 C 0.76698 0.76269 0.26138 0.0
O61 O 0.90174 0.7678 0.3219 0.0
O62 O 0.90536 0.74177 0.22133 0.0
C63 C 0.77149 0.70237 0.39545 0.0
C64 C 0.60697 0.51858 0.27282 0.0
C65 C 0.55303 0.41374 0.27808 0.0
C66 C 0.53572 0.44207 0.31052 0.0
C67 C 0.56246 0.49365 0.30819 0.0
C68 C 0.62503 0.49083 0.24097 0.0
C69 C 0.59844 0.43908 0.24366 0.0
C70 C 0.6323 0.57309 0.26704 0.0
C71 C 0.79674 0.61007 0.27283 0.0
H72 H 0.07671 0.87515 0.16663 0.0
H73 H 0.98727 0.82058 0.16616 0.0
H74 H 0.99097 0.79081 0.37734 0.0
H75 H 0.0796 0.84168 0.3777 0.0
H76 H 0.5007 0.42462 0.33649 0.0
H77 H 0.54772 0.51416 0.333 0.0
H78 H 0.65948 0.50908 0.21346 0.0
H79 H 0.61374 0.41911 0.21893 0.0
Tb80 Tb 0.9159 0.20898 0.2716 0.0
Tb81 Tb 0.95502 0.32512 0.265 0.0
C82 C 0.9692 0.27524 0.13952 0.0
C83 C 0.85372 0.06455 0.27022 0.0
C84 C 0.81043 0.96141 0.26274 0.0
C85 C 0.81057 0.98885 0.20639 0.0
C86 C 0.83182 0.04004 0.21018 0.0
C87 C 0.8546 0.03726 0.32588 0.0
C88 C 0.83318 0.9862 0.32224 0.0
C89 C 0.86869 0.11663 0.28027 0.0
O90 O 0.992 0.23574 0.25488 0.0
O91 O 1.023 0.31969 0.27353 0.0
O92 O 0.95282 0.30749 0.37174 0.0
O93 O 0.9556 0.23602 0.36593 0.0
O94 O 0.9663 0.38672 0.20862 0.0
O95 O 0.97291 0.39064 0.31649 0.0
O96 O 0.87712 0.28271 0.23668 0.0
O97 O 0.8636 0.2266 0.31479 0.0
O98 O 0.93507 0.23157 0.16377 0.0
O99 O 0.98536 0.31578 0.17393 0.0
C100 C 0.02865 0.28071 0.26398 0.0
O101 O 0.9071 0.14447 0.31694 0.0
O102 O 0.85916 0.1412 0.23518 0.0
C103 C 0.96464 0.27619 0.39801 0.0
C104 C 0.94027 0.43648 0.2646 0.0
C105 C 0.88608 0.48674 0.26805 0.0
C106 C 0.92948 0.50327 0.30605 0.0
C107 C 0.95595 0.47833 0.30455 0.0
C108 C 0.89681 0.41936 0.22677 0.0
C109 C 0.87006 0.44425 0.22844 0.0
C110 C 0.97072 0.41257 0.26186 0.0
C111 C 0.84631 0.24809 0.27697 0.0
H112 H 0.79351 0.97059 0.15973 0.0
H113 H 0.83003 0.06013 0.16682 0.0
H114 H 0.87066 0.0553 0.37308 0.0
H115 H 0.83472 0.96617 0.36586 0.0
H116 H 0.9439 0.53626 0.33617 0.0
H117 H 0.9893 0.49228 0.33405 0.0
H118 H 0.88357 0.3869 0.19569 0.0
H119 H 0.83663 0.42988 0.19912 0.0
Tb120 Tb 0.09737 0.39105 0.76579 0.0
Tb121 Tb 0.13517 0.31228 0.76347 0.0
C122 C 0.07899 0.32552 0.89087 0.0
C123 C 0.11288 0.518 0.76751 0.0
C124 C 0.16461 0.62267 0.76582 0.0
C125 C 0.14962 0.59649 0.82694 0.0
C126 C 0.12394 0.54488 0.82774 0.0
C127 C 0.12893 0.54414 0.70644 0.0
C128 C 0.15449 0.5958 0.70564 0.0
C129 C 0.0825 0.46324 0.76921 0.0
O130 O 0.17502 0.42621 0.79709 0.0
O131 O 0.19302 0.38194 0.72679 0.0
O132 O 0.09652 0.30139 0.66794 0.0
O133 O 0.10549 0.37828 0.66037 0.0
O134 O 0.17369 0.28468 0.81872 0.0
O135 O 0.15286 0.26413 0.71373 0.0
O136 O 0.0584 0.26384 0.76852 0.0
O137 O 0.02821 0.31806 0.75728 0.0
O138 O 0.06286 0.34899 0.85427 0.0
O139 O 0.11471 0.31785 0.86956 0.0
C140 C 0.20753 0.42172 0.76143 0.0
O141 O 0.0793 0.43893 0.71454 0.0
O142 O 0.08741 0.4416 0.82226 0.0
C143 C 0.091 0.33462 0.6345 0.0
C144 C 0.19749 0.22871 0.76854 0.0
C145 C 0.24619 0.17351 0.7692 0.0
C146 C 0.22177 0.176 0.71114 0.0
C147 C 0.19802 0.20356 0.71071 0.0
C148 C 0.22077 0.22552 0.82699 0.0
C149 C 0.24514 0.19855 0.82722 0.0
C150 C 0.17449 0.2597 0.767 0.0
C151 C 1.02213 0.27286 0.76263 0.0
H152 H 0.15616 0.61583 0.87415 0.0
H153 H 0.1118 0.52597 0.87568 0.0
H154 H 0.12109 0.52475 0.6591 0.0
H155 H 0.16599 0.61476 0.65768 0.0
H156 H 0.22023 0.15614 0.66604 0.0
H157 H 0.18017 0.20523 0.66493 0.0
H158 H 0.22083 0.24448 0.87237 0.0
H159 H 0.26369 0.19802 0.87284 0.0
Tb160 Tb 0.3291 0.94291 0.76599 0.0
Tb161 Tb 0.21388 0.91134 0.77276 0.0
C162 C 0.28593 0.96154 0.89551 0.0
C163 C 0.43816 0.92371 0.76484 0.0
C164 C 0.48755 0.8688 0.76619 0.0
C165 C 0.48857 0.89594 0.82277 0.0
C166 C 0.46434 0.92318 0.82197 0.0
C167 C 0.43602 0.89559 0.70878 0.0
C168 C 0.46049 0.86853 0.70946 0.0
C169 C 0.41517 0.95516 0.76438 0.0
O170 O 0.28576 0.86606 0.79928 0.0
O171 O 0.22291 0.85239 0.73283 0.0
O172 O 0.2361 0.94615 0.6735 0.0
O173 O 0.30452 0.93774 0.66208 0.0
O174 O 0.15228 0.91411 0.80974 0.0
O175 O 0.14376 0.85127 0.754 0.0
O176 O 0.24704 0.98931 0.7606 0.0
O177 O 0.33083 1.01435 0.76151 0.0
O178 O 0.32358 0.97743 0.85504 0.0
O179 O 0.24204 0.92525 0.87746 0.0
C180 C 0.24671 0.83514 0.76581 0.0
O181 O 0.39168 0.95578 0.7105 0.0
O182 O 0.39162 0.95389 0.81883 0.0
C183 C 0.27434 0.95196 0.63828 0.0
C184 C 0.07245 0.85972 0.76298 0.0
C185 C 0.96987 0.81675 0.74678 0.0
C186 C 0.99722 0.8054 0.7019 0.0
C187 C 0.04817 0.8266 0.71008 0.0
C188 C 0.04565 0.87401 0.80409 0.0
C189 C 0.995 0.85302 0.79588 0.0
C190 C 0.12159 0.87073 0.7859 0.0
C191 C 0.29378 0.02345 0.7604 0.0
H192 H 0.50956 0.89757 0.86691 0.0
H193 H 0.46685 0.94466 0.86582 0.0
H194 H 0.41605 0.89496 0.66402 0.0
H195 H 0.45856 0.84765 0.66522 0.0
H196 H 0.97893 0.77793 0.66327 0.0
H197 H 0.06785 0.81464 0.67772 0.0
H198 H 0.06329 0.89907 0.84556 0.0
H199 H 0.9752 0.86374 0.83001 0.0
Tb200 Tb 0.65006 0.71009 0.76004 0.0
Tb201 Tb 0.72648 0.82571 0.76279 0.0
C202 C 0.71255 0.75434 0.88617 0.0
C203 C 0.5238 0.59969 0.76073 0.0
C204 C 0.41944 0.5511 0.76336 0.0
C205 C 0.44592 0.55193 0.82083 0.0
C206 C 0.49743 0.57576 0.81942 0.0
C207 C 0.49742 0.60019 0.70384 0.0
C208 C 0.4459 0.57616 0.70516 0.0
C209 C 0.57832 0.62273 0.75963 0.0
O210 O 0.61325 0.74959 0.7967 0.0
O211 O 0.65633 0.81231 0.72669 0.0
O212 O 0.74098 0.80309 0.66598 0.0
O213 O 0.6641 0.73553 0.65581 0.0
O214 O 0.76222 0.88954 0.82281 0.0
O215 O 0.75722 0.8942 0.71432 0.0
O216 O 0.77754 0.79952 0.76133 0.0
O217 O 0.72307 0.71511 0.74717 0.0
O218 O 0.69299 0.71637 0.84655 0.0
O219 O 0.71541 0.79645 0.86777 0.0
C220 C 0.617 0.78682 0.76213 0.0
O221 O 0.60187 0.64653 0.70542 0.0
O222 O 0.60111 0.6463 0.81377 0.0
C223 C 0.70806 0.76562 0.63069 0.0
C224 C 0.81098 0.96973 0.77094 0.0
C225 C 0.87076 0.07312 0.77091 0.0
C226 C 0.86085 0.04681 0.71048 0.0
C227 C 0.83094 0.99553 0.71044 0.0
C228 C 0.82213 0.99583 0.83136 0.0
C229 C 0.85134 0.0469 0.83135 0.0
C230 C 0.77098 0.91816 0.77067 0.0
C231 C 0.76832 0.75415 0.75234 0.0
H232 H 0.4268 0.53259 0.86622 0.0
H233 H 0.51667 0.57472 0.86409 0.0
H234 H 0.51643 0.61855 0.65791 0.0
H235 H 0.42669 0.57676 0.66023 0.0
H236 H 0.87609 0.06574 0.66327 0.0
H237 H 0.82222 0.97636 0.66284 0.0
H238 H 0.80631 0.97701 0.87848 0.0
H239 H 0.85765 0.06588 0.87882 0.0
C240 C 0.2596 0.99219 0.99794 0.0
C241 C 0.29589 0.98897 0.96022 0.0
H242 H 0.24448 0.02387 0.0847 0.0
C243 C 0.34539 0.01808 0.98014 0.0
H244 H 0.22127 0.97103 0.98347 0.0
C245 C 0.3585 0.04889 0.03559 0.0
C246 C 0.32282 0.05195 0.07399 0.0
H247 H 0.37473 1.01715 0.9528 0.0
H248 H 0.39697 0.06948 0.04981 0.0
C249 C 0.27301 0.02346 0.05464 0.0
C250 C 0.69329 0.70453 0.53974 0.0
C251 C 0.72328 0.75155 0.56746 0.0
H252 H 0.68523 0.65183 0.46564 0.0
C253 C 0.76999 0.7821 0.53869 0.0
H254 H 0.65734 0.67963 0.56081 0.0
C255 C 0.78626 0.76585 0.48395 0.0
C256 C 0.75643 0.71845 0.45702 0.0
H257 H 0.79436 0.81832 0.55909 0.0
H258 H 0.82223 0.79052 0.46275 0.0
C259 C 0.70966 0.68819 0.48556 0.0
C260 C 0.04868 0.3099 0.07638 0.0
C261 C 0.99676 0.28032 0.07639 0.0
H262 H 0.11584 0.34385 0.01875 0.0
C263 C 0.9728 0.26336 1.01484 0.0
H264 H 0.06816 0.32624 0.12259 0.0
C265 C 1.00014 0.27743 0.95486 0.0
C266 C 0.05217 0.30491 0.95512 0.0
H267 H 0.93297 0.24276 1.01264 0.0
H268 H 0.98024 0.26874 0.90796 0.0
C269 C 0.0762 0.3204 0.01688 0.0
C270 C 0.27847 0.03633 0.49583 0.0
C271 C 0.32333 0.04894 0.46385 0.0
H272 H 0.22737 0.99556 0.57503 0.0
C273 C 0.35047 0.02756 0.48821 0.0
H274 H 0.25621 0.05155 0.47806 0.0
C275 C 0.33339 0.9946 0.54269 0.0
C276 C 0.2887 0.98208 0.57504 0.0
H277 H 0.38472 0.03553 0.46443 0.0
H278 H 0.35586 0.97951 0.55999 0.0
C279 C 0.26151 1.00355 0.5509 0.0
C280 C 0.72908 0.76835 1.01073 0.0
C281 C 0.73315 0.74797 0.95042 0.0
H282 H 0.73311 0.76657 0.1178 0.0
C283 C 0.75261 0.71593 0.95248 0.0
H284 H 0.71225 0.79121 1.01154 0.0
C285 C 0.76969 0.70623 1.01255 0.0
C286 C 0.76418 0.72531 0.07307 0.0
H287 H 0.75338 0.69698 0.9076 0.0
H288 H 0.78354 0.6808 1.01234 0.0
C289 C 0.74236 0.75526 0.07155 0.0
C290 C 1.0151 0.33769 0.48707 0.0
C291 C 0.99497 0.28994 0.46053 0.0
H292 H 0.06178 0.38954 0.56088 0.0
C293 C 1.00849 0.25755 0.49019 0.0
H294 H 1.00634 0.36403 0.46508 0.0
C295 C 0.04079 0.27239 0.54525 0.0
C296 C 0.06094 0.32023 0.57169 0.0
H297 H 0.99432 0.22069 0.4707 0.0
H298 H 0.04957 0.24612 0.56745 0.0
C299 C 0.04762 0.35262 0.54166 0.0
C300 C 0.71681 0.21125 0.21844 0.0
C301 C 0.68828 0.18464 0.2747 0.0
H302 H 0.78926 0.25281 0.17507 0.0
C303 C 0.71306 0.18239 0.33248 0.0
H304 H 0.69932 0.21348 0.17269 0.0
C305 C 0.76423 0.20393 0.33311 0.0
C306 C 0.79254 0.22953 0.27667 0.0
H307 H 0.69296 0.16369 0.37759 0.0
H308 H 0.78169 0.20027 0.37806 0.0
C309 C 0.76844 0.23376 0.21962 0.0
C310 C 0.49265 0.33327 0.33491 0.0
C311 C 0.52334 0.3583 0.27963 0.0
H312 H 0.43859 0.26433 0.37779 0.0
C313 C 0.52404 0.32974 0.22542 0.0
H314 H 0.49175 0.35317 0.37864 0.0
C315 C 0.49446 0.2781 0.22619 0.0
C316 C 0.46269 0.25375 0.28049 0.0
H317 H 0.54635 0.34718 0.18132 0.0
H318 H 0.49518 0.25742 0.18319 0.0
C319 C 0.46237 0.28197 0.33488 0.0
C320 C 0.85766 0.53831 0.32902 0.0
C321 C 0.85841 0.51426 0.26987 0.0
H322 H 0.83775 0.58704 0.37586 0.0
C323 C 0.83423 0.51858 0.21252 0.0
H324 H 0.87434 0.53492 0.37489 0.0
C325 C 0.81157 0.54754 0.21392 0.0
C326 C 0.8133 0.57333 0.27233 0.0
H327 H 0.83432 0.50116 0.16574 0.0
H328 H 0.79485 0.55164 0.1685 0.0
C329 C 0.83605 0.56784 0.32992 0.0
C330 C 0.2234 0.70717 0.81279 0.0
C331 C 0.18806 0.67753 0.76456 0.0
H332 H 0.27028 0.78031 0.8507 0.0
C333 C 0.1737 0.7006 0.7161 0.0
H334 H 0.23546 0.69063 0.85069 0.0
C335 C 0.19343 0.75166 0.71632 0.0
C336 C 0.22845 0.7813 0.76466 0.0
H337 H 0.14609 0.67905 0.67888 0.0
H338 H 0.18081 0.76786 0.67866 0.0
C339 C 0.24362 0.75856 0.81257 0.0
C340 C 0.52003 0.81743 0.82062 0.0
C341 C 0.51732 0.84375 0.76457 0.0
H342 H 0.55292 0.77755 0.86365 0.0
C343 C 0.5453 0.8481 0.70723 0.0
H344 H 0.49886 0.81335 0.86558 0.0
C345 C 0.57607 0.82793 0.70638 0.0
C346 C 0.57943 0.80227 0.76249 0.0
H347 H 0.54482 0.86869 0.66361 0.0
H348 H 0.59807 0.83326 0.66183 0.0
C349 C 0.55052 0.7965 0.81938 0.0
C350 C 0.2842 0.48945 0.81658 0.0
C351 C 0.26083 0.45887 0.76122 0.0
H352 H 0.35297 0.54262 0.8611 0.0
C353 C 0.28971 0.46063 0.70614 0.0
H354 H 0.26297 0.48845 0.86006 0.0
C355 C 0.3407 0.49143 0.70651 0.0
C356 C 0.36456 0.52117 0.7623 0.0
H357 H 0.2729 0.43743 0.66273 0.0
H358 H 0.36162 0.49063 0.66375 0.0
C359 C 0.3357 0.52006 0.81734 0.0
C360 C 0.12157 0.24986 0.20506 0.0
C361 C 0.14969 0.2578 0.26316 0.0
H362 H 0.06031 0.2502 0.1612 0.0
C363 C 0.14289 0.28175 0.31834 0.0
H364 H 0.12487 0.23018 0.16261 0.0
C365 C 0.10689 0.29571 0.31603 0.0
C366 C 0.07706 0.28502 0.25899 0.0
H367 H 0.16395 0.2878 0.364 0.0
H368 H 0.09952 0.31068 0.36061 0.0
C369 C 0.0852 0.26251 0.20354 0.0
C370 C 0.16964 0.90177 0.21599 0.0
C371 C 0.14068 0.89515 0.2735 0.0
H372 H 0.24058 0.94426 0.1693 0.0
C373 C 0.16435 0.92122 0.33225 0.0
H374 H 0.15318 0.88188 0.17011 0.0
C375 C 0.21477 0.95439 0.33255 0.0
C376 C 0.24264 0.96348 0.27387 0.0
H377 H 0.14374 0.91869 0.37712 0.0
H378 H 0.23098 0.97679 0.37678 0.0
C379 C 0.22007 0.93623 0.21593 0.0
C380 C 0.80301 0.88899 0.20286 0.0
C381 C 0.79006 0.90758 0.25799 0.0
H382 H 0.80622 0.82841 0.16201 0.0
C383 C 0.76185 0.87521 0.31044 0.0
H384 H 0.82581 0.91313 0.1627 0.0
C385 C 0.7486 0.82531 0.30865 0.0
C386 C 0.76408 0.80773 0.25484 0.0
H387 H 0.75176 0.88891 0.35389 0.0
H388 H 0.73002 0.80175 0.3515 0.0
C389 C 0.79093 0.84002 0.20193 0.0
C390 C 0.29085 0.13573 0.71098 0.0
C391 C 0.27048 0.14303 0.77004 0.0
H392 H 0.31614 0.09166 0.66172 0.0
C393 C 0.27013 0.11781 0.82895 0.0
H394 H 0.29292 0.15524 0.66494 0.0
C395 C 0.28622 0.08376 0.82759 0.0
C396 C 0.30195 0.07323 0.76717 0.0
H397 H 0.25397 0.12129 0.87514 0.0
H398 H 0.28118 0.06166 0.87218 0.0
C399 C 0.30575 0.10051 0.70934 0.0
C400 C 0.88942 0.77577 0.80721 0.0
C401 C 0.91524 0.78914 0.74602 0.0
H402 H 0.82185 0.75417 0.85652 0.0
C403 C 0.88854 0.77856 0.68562 0.0
H404 H 0.90867 0.78253 0.85467 0.0
C405 C 0.83741 0.75905 0.68709 0.0
C406 C 0.81253 0.74992 0.74877 0.0
H407 H 0.90743 0.78861 0.63763 0.0
H408 H 0.81823 0.7557 0.64042 0.0
C409 C 0.83892 0.7573 0.80847 0.0
C410 C 0.93981 0.20891 0.71975 0.0
C411 C 0.97415 0.22846 0.77204 0.0
H412 H 0.87907 0.1435 0.67826 0.0
C413 C 0.97136 0.19756 0.82533 0.0
H414 H 0.94277 0.23146 0.67657 0.0
C415 C 0.93686 0.14797 0.82549 0.0
C416 C 0.9036 0.12733 0.77229 0.0
H417 H 0.99942 0.2107 0.86394 0.0
H418 H 0.93885 0.12532 0.86529 0.0
C419 C 0.90442 0.15844 0.72002 0.0
loop_
_geom_bond_atom_site_label_1
_geom_bond_atom_site_label_2
_geom_bond_distance
_geom_bond_site_symmetry_2
_ccdc_geom_bond_type
Tb0 C9 2.764 . S
Tb0 O10 2.325 . S
Tb0 O13 2.303 . S
Tb0 O17 2.322 . S
Tb0 O18 2.349 . S
Tb0 O21 2.415 . S
Tb0 O22 2.399 . S
Tb1 O11 2.322 . S
Tb1 O12 2.349 . S
Tb1 O14 2.415 . S
Tb1 O15 2.399 . S
Tb1 O16 2.325 . S
Tb1 O19 2.303 . S
Tb1 C30 2.764 . S
C2 O18 1.261 . S
C2 O19 1.257 . S
C3 C6 1.358 . S
C3 C7 1.332 . S
C3 C9 1.504 . S
C4 C5 1.373 . S
C4 C8 1.308 . S
C5 C4 1.373 . S
C5 C6 1.429 . S
C5 H32 0.932 . S
C6 C3 1.358 . S
C6 C5 1.429 . S
C6 H33 0.930 . S
C7 C3 1.332 . S
C7 C8 1.394 . S
C7 H34 0.932 . S
C8 C4 1.308 . S
C8 C7 1.394 . S
C8 H35 0.929 . S
C9 Tb0 2.764 . S
C9 C3 1.504 . S
C9 O21 1.239 . S
C9 O22 1.263 . S
O10 Tb0 2.325 . S
O10 C20 1.236 . S
O11 Tb1 2.322 . S
O11 C20 1.257 . S
O12 Tb1 2.349 . S
O12 C23 1.261 . S
O13 Tb0 2.303 . S
O13 C23 1.257 . S
O14 Tb1 2.415 . S
O14 C30 1.239 . S
O15 Tb1 2.399 . S
O15 C30 1.263 . S
O16 Tb1 2.325 . S
O16 C31 1.236 . S
O17 Tb0 2.322 . S
O17 C31 1.257 . S
O18 Tb0 2.349 . S
O18 C2 1.261 . S
O19 Tb1 2.303 . S
O19 C2 1.257 . S
C20 O10 1.236 . S
C20 O11 1.257 . S
O21 Tb0 2.415 . S
O21 C9 1.239 . S
O22 Tb0 2.399 . S
O22 C9 1.263 . S
C23 O12 1.261 . S
C23 O13 1.257 . S
C24 C27 1.358 . S
C24 C28 1.332 . S
C24 C30 1.504 . S
C25 C26 1.373 . S
C25 C29 1.308 . S
C26 C25 1.373 . S
C26 C27 1.429 . S
C26 H36 0.932 . S
C27 C24 1.358 . S
C27 C26 1.429 . S
C27 H37 0.930 . S
C28 C24 1.332 . S
C28 C29 1.394 . S
C28 H38 0.932 . S
C29 C25 1.308 . S
C29 C28 1.394 . S
C29 H39 0.929 . S
C30 Tb1 2.764 . S
C30 O14 1.239 . S
C30 O15 1.263 . S
C30 C24 1.504 . S
C31 O16 1.236 . S
C31 O17 1.257 . S
H32 C5 0.932 . S
H33 C6 0.930 . S
H34 C7 0.932 . S
H35 C8 0.929 . S
H36 C26 0.932 . S
H37 C27 0.930 . S
H38 C28 0.932 . S
H39 C29 0.929 . S
Tb40 C49 2.764 . S
Tb40 O50 2.325 . S
Tb40 O53 2.303 . S
Tb40 O57 2.322 . S
Tb40 O58 2.349 . S
Tb40 O61 2.415 . S
Tb40 O62 2.399 . S
Tb41 O51 2.322 . S
Tb41 O52 2.349 . S
Tb41 O54 2.415 . S
Tb41 O55 2.399 . S
Tb41 O56 2.325 . S
Tb41 O59 2.303 . S
Tb41 C70 2.764 . S
C42 O58 1.261 . S
C42 O59 1.257 . S
C43 C46 1.358 1_655 S
C43 C47 1.332 . S
C43 C49 1.504 . S
C44 C45 1.373 . S
C44 C48 1.308 . S
C45 C44 1.373 . S
C45 C46 1.429 . S
C45 H72 0.932 . S
C46 C43 1.358 1_455 S
C46 C45 1.429 . S
C46 H73 0.930 1_455 S
C47 C43 1.332 . S
C47 C48 1.394 1_655 S
C47 H74 0.932 . S
C48 C44 1.308 . S
C48 C47 1.394 1_455 S
C48 H75 0.929 . S
C49 Tb40 2.764 . S
C49 C43 1.504 . S
C49 O61 1.239 . S
C49 O62 1.263 . S
O50 Tb40 2.325 . S
O50 C60 1.236 . S
O51 Tb41 2.322 . S
O51 C60 1.257 . S
O52 Tb41 2.349 . S
O52 C63 1.261 . S
O53 Tb40 2.303 . S
O53 C63 1.257 . S
O54 Tb41 2.415 . S
O54 C70 1.239 . S
O55 Tb41 2.399 . S
O55 C70 1.263 . S
O56 Tb41 2.325 . S
O56 C71 1.236 . S
O57 Tb40 2.322 . S
O57 C71 1.257 . S
O58 Tb40 2.349 . S
O58 C42 1.261 . S
O59 Tb41 2.303 . S
O59 C42 1.257 . S
C60 O50 1.236 . S
C60 O51 1.257 . S
O61 Tb40 2.415 . S
O61 C49 1.239 . S
O62 Tb40 2.399 . S
O62 C49 1.263 . S
C63 O52 1.261 . S
C63 O53 1.257 . S
C64 C67 1.358 . S
C64 C68 1.332 . S
C64 C70 1.504 . S
C65 C66 1.373 . S
C65 C69 1.308 . S
C66 C65 1.373 . S
C66 C67 1.429 . S
C66 H76 0.932 . S
C67 C64 1.358 . S
C67 C66 1.429 . S
C67 H77 0.930 . S
C68 C64 1.332 . S
C68 C69 1.394 . S
C68 H78 0.932 . S
C69 C65 1.308 . S
C69 C68 1.394 . S
C69 H79 0.929 . S
C70 Tb41 2.764 . S
C70 O54 1.239 . S
C70 O55 1.263 . S
C70 C64 1.504 . S
C71 O56 1.236 . S
C71 O57 1.257 . S
H72 C45 0.932 . S
H73 C46 0.930 1_655 S
H74 C47 0.932 . S
H75 C48 0.929 . S
H76 C66 0.932 . S
H77 C67 0.930 . S
H78 C68 0.932 . S
H79 C69 0.929 . S
Tb80 C89 2.764 . S
Tb80 O90 2.325 . S
Tb80 O93 2.303 . S
Tb80 O97 2.322 . S
Tb80 O98 2.349 . S
Tb80 O101 2.415 . S
Tb80 O102 2.399 . S
Tb81 O91 2.322 . S
Tb81 O92 2.349 . S
Tb81 O94 2.415 . S
Tb81 O95 2.399 . S
Tb81 O96 2.325 . S
Tb81 O99 2.303 . S
Tb81 C110 2.764 . S
C82 O98 1.261 . S
C82 O99 1.257 . S
C83 C86 1.358 1_545 S
C83 C87 1.332 . S
C83 C89 1.504 . S
C84 C85 1.373 . S
C84 C88 1.308 . S
C85 C84 1.373 . S
C85 C86 1.429 . S
C85 H112 0.932 . S
C86 C83 1.358 1_565 S
C86 C85 1.429 . S
C86 H113 0.930 1_565 S
C87 C83 1.332 . S
C87 C88 1.394 1_545 S
C87 H114 0.932 . S
C88 C84 1.308 . S
C88 C87 1.394 1_565 S
C88 H115 0.929 . S
C89 Tb80 2.764 . S
C89 C83 1.504 . S
C89 O101 1.239 . S
C89 O102 1.263 . S
O90 Tb80 2.325 . S
O90 C100 1.236 . S
O91 Tb81 2.322 . S
O91 C100 1.257 . S
O92 Tb81 2.349 . S
O92 C103 1.261 . S
O93 Tb80 2.303 . S
O93 C103 1.257 . S
O94 Tb81 2.415 . S
O94 C110 1.239 . S
O95 Tb81 2.399 . S
O95 C110 1.263 . S
O96 Tb81 2.325 . S
O96 C111 1.236 . S
O97 Tb80 2.322 . S
O97 C111 1.257 . S
O98 Tb80 2.349 . S
O98 C82 1.261 . S
O99 Tb81 2.303 . S
O99 C82 1.257 . S
C100 O90 1.236 . S
C100 O91 1.257 . S
O101 Tb80 2.415 . S
O101 C89 1.239 . S
O102 Tb80 2.399 . S
O102 C89 1.263 . S
C103 O92 1.261 . S
C103 O93 1.257 . S
C104 C107 1.358 . S
C104 C108 1.332 . S
C104 C110 1.504 . S
C105 C106 1.373 . S
C105 C109 1.308 . S
C106 C105 1.373 . S
C106 C107 1.429 . S
C106 H116 0.932 . S
C107 C104 1.358 . S
C107 C106 1.429 . S
C107 H117 0.930 . S
C108 C104 1.332 . S
C108 C109 1.394 . S
C108 H118 0.932 . S
C109 C105 1.308 . S
C109 C108 1.394 . S
C109 H119 0.929 . S
C110 Tb81 2.764 . S
C110 O94 1.239 . S
C110 O95 1.263 . S
C110 C104 1.504 . S
C111 O96 1.236 . S
C111 O97 1.257 . S
H112 C85 0.932 . S
H113 C86 0.930 1_545 S
H114 C87 0.932 . S
H115 C88 0.929 . S
H116 C106 0.932 . S
H117 C107 0.930 . S
H118 C108 0.932 . S
H119 C109 0.929 . S
Tb120 C129 2.764 . S
Tb120 O130 2.325 . S
Tb120 O133 2.303 . S
Tb120 O137 2.322 . S
Tb120 O138 2.349 . S
Tb120 O141 2.415 . S
Tb120 O142 2.399 . S
Tb121 O131 2.322 . S
Tb121 O132 2.349 . S
Tb121 O134 2.415 . S
Tb121 O135 2.399 . S
Tb121 O136 2.325 . S
Tb121 O139 2.303 . S
Tb121 C150 2.764 . S
C122 O138 1.261 . S
C122 O139 1.257 . S
C123 C126 1.358 . S
C123 C127 1.332 . S
C123 C129 1.504 . S
C124 C125 1.373 . S
C124 C128 1.308 . S
C125 C124 1.373 . S
C125 C126 1.429 . S
C125 H152 0.932 . S
C126 C123 1.358 . S
C126 C125 1.429 . S
C126 H153 0.930 . S
C127 C123 1.332 . S
C127 C128 1.394 . S
C127 H154 0.932 . S
C128 C124 1.308 . S
C128 C127 1.394 . S
C128 H155 0.929 . S
C129 Tb120 2.764 . S
C129 C123 1.504 . S
C129 O141 1.239 . S
C129 O142 1.263 . S
O130 Tb120 2.325 . S
O130 C140 1.236 . S
O131 Tb121 2.322 . S
O131 C140 1.257 . S
O132 Tb121 2.349 . S
O132 C143 1.261 . S
O133 Tb120 2.303 . S
O133 C143 1.257 . S
O134 Tb121 2.415 . S
O134 C150 1.239 . S
O135 Tb121 2.399 . S
O135 C150 1.263 . S
O136 Tb121 2.325 . S
O136 C151 1.236 . S
O137 Tb120 2.322 . S
O137 C151 1.257 . S
O138 Tb120 2.349 . S
O138 C122 1.261 . S
O139 Tb121 2.303 . S
O139 C122 1.257 . S
C140 O130 1.236 . S
C140 O131 1.257 . S
O141 Tb120 2.415 . S
O141 C129 1.239 . S
O142 Tb120 2.399 . S
O142 C129 1.263 . S
C143 O132 1.261 . S
C143 O133 1.257 . S
C144 C147 1.358 . S
C144 C148 1.332 . S
C144 C150 1.504 . S
C145 C146 1.373 . S
C145 C149 1.308 . S
C146 C145 1.373 . S
C146 C147 1.429 . S
C146 H156 0.932 . S
C147 C144 1.358 . S
C147 C146 1.429 . S
C147 H157 0.930 . S
C148 C144 1.332 . S
C148 C149 1.394 . S
C148 H158 0.932 . S
C149 C145 1.308 . S
C149 C148 1.394 . S
C149 H159 0.929 . S
C150 Tb121 2.764 . S
C150 O134 1.239 . S
C150 O135 1.263 . S
C150 C144 1.504 . S
C151 O136 1.236 . S
C151 O137 1.257 . S
H152 C125 0.932 . S
H153 C126 0.930 . S
H154 C127 0.932 . S
H155 C128 0.929 . S
H156 C146 0.932 . S
H157 C147 0.930 . S
H158 C148 0.932 . S
H159 C149 0.929 . S
Tb160 C169 2.764 . S
Tb160 O170 2.325 . S
Tb160 O173 2.303 . S
Tb160 O177 2.322 . S
Tb160 O178 2.349 . S
Tb160 O181 2.415 . S
Tb160 O182 2.399 . S
Tb161 O171 2.322 . S
Tb161 O172 2.349 . S
Tb161 O174 2.415 . S
Tb161 O175 2.399 . S
Tb161 O176 2.325 . S
Tb161 O179 2.303 . S
Tb161 C190 2.764 . S
C162 O178 1.261 . S
C162 O179 1.257 . S
C163 C166 1.358 . S
C163 C167 1.332 . S
C163 C169 1.504 . S
C164 C165 1.373 . S
C164 C168 1.308 . S
C165 C164 1.373 . S
C165 C166 1.429 . S
C165 H192 0.932 . S
C166 C163 1.358 . S
C166 C165 1.429 . S
C166 H193 0.930 . S
C167 C163 1.332 . S
C167 C168 1.394 . S
C167 H194 0.932 . S
C168 C164 1.308 . S
C168 C167 1.394 . S
C168 H195 0.929 . S
C169 Tb160 2.764 . S
C169 C163 1.504 . S
C169 O181 1.239 . S
C169 O182 1.263 . S
O170 Tb160 2.325 . S
O170 C180 1.236 . S
O171 Tb161 2.322 . S
O171 C180 1.257 . S
O172 Tb161 2.349 . S
O172 C183 1.261 . S
O173 Tb160 2.303 . S
O173 C183 1.257 . S
O174 Tb161 2.415 . S
O174 C190 1.239 . S
O175 Tb161 2.399 . S
O175 C190 1.263 . S
O176 Tb161 2.325 . S
O176 C191 1.236 . S
O177 Tb160 2.322 . S
O177 C191 1.257 . S
O178 Tb160 2.349 . S
O178 C162 1.261 . S
O179 Tb161 2.303 . S
O179 C162 1.257 . S
C180 O170 1.236 . S
C180 O171 1.257 . S
O181 Tb160 2.415 . S
O181 C169 1.239 . S
O182 Tb160 2.399 . S
O182 C169 1.263 . S
C183 O172 1.261 . S
C183 O173 1.257 . S
C184 C187 1.358 1_455 S
C184 C188 1.332 . S
C184 C190 1.504 . S
C185 C186 1.373 . S
C185 C189 1.308 . S
C186 C185 1.373 . S
C186 C187 1.429 . S
C186 H196 0.932 . S
C187 C184 1.358 1_655 S
C187 C186 1.429 . S
C187 H197 0.930 1_655 S
C188 C184 1.332 . S
C188 C189 1.394 1_455 S
C188 H198 0.932 . S
C189 C185 1.308 . S
C189 C188 1.394 1_655 S
C189 H199 0.929 . S
C190 Tb161 2.764 . S
C190 O174 1.239 . S
C190 O175 1.263 . S
C190 C184 1.504 . S
C191 O176 1.236 . S
C191 O177 1.257 . S
H192 C165 0.932 . S
H193 C166 0.930 . S
H194 C167 0.932 . S
H195 C168 0.929 . S
H196 C186 0.932 . S
H197 C187 0.930 1_455 S
H198 C188 0.932 . S
H199 C189 0.929 . S
Tb200 C209 2.764 . S
Tb200 O210 2.325 . S
Tb200 O213 2.303 . S
Tb200 O217 2.322 . S
Tb200 O218 2.349 . S
Tb200 O221 2.415 . S
Tb200 O222 2.399 . S
Tb201 O211 2.322 . S
Tb201 O212 2.349 . S
Tb201 O214 2.415 . S
Tb201 O215 2.399 . S
Tb201 O216 2.325 . S
Tb201 O219 2.303 . S
Tb201 C230 2.764 . S
C202 O218 1.261 . S
C202 O219 1.257 . S
C203 C206 1.358 . S
C203 C207 1.332 . S
C203 C209 1.504 . S
C204 C205 1.373 . S
C204 C208 1.308 . S
C205 C204 1.373 . S
C205 C206 1.429 . S
C205 H232 0.932 . S
C206 C203 1.358 . S
C206 C205 1.429 . S
C206 H233 0.930 . S
C207 C203 1.332 . S
C207 C208 1.394 . S
C207 H234 0.932 . S
C208 C204 1.308 . S
C208 C207 1.394 . S
C208 H235 0.929 . S
C209 Tb200 2.764 . S
C209 C203 1.504 . S
C209 O221 1.239 . S
C209 O222 1.263 . S
O210 Tb200 2.325 . S
O210 C220 1.236 . S
O211 Tb201 2.322 . S
O211 C220 1.257 . S
O212 Tb201 2.349 . S
O212 C223 1.261 . S
O213 Tb200 2.303 . S
O213 C223 1.257 . S
O214 Tb201 2.415 . S
O214 C230 1.239 . S
O215 Tb201 2.399 . S
O215 C230 1.263 . S
O216 Tb201 2.325 . S
O216 C231 1.236 . S
O217 Tb200 2.322 . S
O217 C231 1.257 . S
O218 Tb200 2.349 . S
O218 C202 1.261 . S
O219 Tb201 2.303 . S
O219 C202 1.257 . S
C220 O210 1.236 . S
C220 O211 1.257 . S
O221 Tb200 2.415 . S
O221 C209 1.239 . S
O222 Tb200 2.399 . S
O222 C209 1.263 . S
C223 O212 1.261 . S
C223 O213 1.257 . S
C224 C227 1.358 1_565 S
C224 C228 1.332 . S
C224 C230 1.504 . S
C225 C226 1.373 . S
C225 C229 1.308 . S
C226 C225 1.373 . S
C226 C227 1.429 . S
C226 H236 0.932 . S
C227 C224 1.358 1_545 S
C227 C226 1.429 . S
C227 H237 0.930 1_545 S
C228 C224 1.332 . S
C228 C229 1.394 1_565 S
C228 H238 0.932 . S
C229 C225 1.308 . S
C229 C228 1.394 1_545 S
C229 H239 0.929 . S
C230 Tb201 2.764 . S
C230 O214 1.239 . S
C230 O215 1.263 . S
C230 C224 1.504 . S
C231 O216 1.236 . S
C231 O217 1.257 . S
H232 C205 0.932 . S
H233 C206 0.930 . S
H234 C207 0.932 . S
H235 C208 0.929 . S
H236 C226 0.932 . S
H237 C227 0.930 1_565 S
H238 C228 0.932 . S
H239 C229 0.929 . S
C240 C241 1.387 1_554 S
C240 H244 0.950 . S
C240 C249 1.390 1_565 S
C241 C240 1.387 1_556 S
C241 C243 1.387 . S
H242 C249 0.950 . S
C243 C241 1.387 . S
C243 C245 1.390 1_565 S
C243 H247 0.950 . S
H244 C240 0.950 . S
C245 C243 1.390 1_545 S
C245 C246 1.387 1_556 S
C245 H248 0.950 . S
C246 C245 1.387 1_554 S
C246 C249 1.387 . S
H247 C243 0.950 . S
H248 C245 0.950 . S
C249 C240 1.390 1_545 S
C249 H242 0.950 . S
C249 C246 1.387 . S
C250 C251 1.387 . S
C250 H254 0.950 . S
C250 C259 1.390 . S
C251 C250 1.387 . S
C251 C253 1.387 . S
H252 C259 0.950 . S
C253 C251 1.387 . S
C253 C255 1.390 . S
C253 H257 0.950 . S
H254 C250 0.950 . S
C255 C253 1.390 . S
C255 C256 1.387 . S
C255 H258 0.950 . S
C256 C255 1.387 . S
C256 C259 1.387 . S
H257 C253 0.950 . S
H258 C255 0.950 . S
C259 C250 1.390 . S
C259 H252 0.950 . S
C259 C256 1.387 . S
C260 C261 1.387 . S
C260 H264 0.950 . S
C260 C269 1.390 1_655 S
C261 C260 1.387 . S
C261 C263 1.387 1_554 S
H262 C269 0.950 . S
C263 C261 1.387 1_556 S
C263 C265 1.390 . S
C263 H267 0.950 . S
H264 C260 0.950 . S
C265 C263 1.390 . S
C265 C266 1.387 1_655 S
C265 H268 0.950 . S
C266 C265 1.387 1_455 S
C266 C269 1.387 1_556 S
H267 C263 0.950 . S
H268 C265 0.950 . S
C269 C260 1.390 1_455 S
C269 H262 0.950 . S
C269 C266 1.387 1_554 S
C270 C271 1.387 . S
C270 H274 0.950 . S
C270 C279 1.390 1_545 S
C271 C270 1.387 . S
C271 C273 1.387 . S
H272 C279 0.950 . S
C273 C271 1.387 . S
C273 C275 1.390 1_545 S
C273 H277 0.950 . S
H274 C270 0.950 . S
C275 C273 1.390 1_565 S
C275 C276 1.387 . S
C275 H278 0.950 . S
C276 C275 1.387 . S
C276 C279 1.387 . S
H277 C273 0.950 . S
H278 C275 0.950 . S
C279 C270 1.390 1_565 S
C279 H272 0.950 . S
C279 C276 1.387 . S
C280 C281 1.387 1_554 S
C280 H284 0.950 . S
C280 C289 1.390 . S
C281 C280 1.387 1_556 S
C281 C283 1.387 . S
H282 C289 0.950 . S
C283 C281 1.387 . S
C283 C285 1.390 . S
C283 H287 0.950 . S
H284 C280 0.950 . S
C285 C283 1.390 . S
C285 C286 1.387 1_556 S
C285 H288 0.950 . S
C286 C285 1.387 1_554 S
C286 C289 1.387 . S
H287 C283 0.950 . S
H288 C285 0.950 . S
C289 C280 1.390 . S
C289 H282 0.950 . S
C289 C286 1.387 . S
C290 C291 1.387 . S
C290 H294 0.950 . S
C290 C299 1.390 1_655 S
C291 C290 1.387 . S
C291 C293 1.387 . S
H292 C299 0.950 . S
C293 C291 1.387 . S
C293 C295 1.390 1_655 S
C293 H297 0.950 . S
H294 C290 0.950 . S
C295 C293 1.390 1_455 S
C295 C296 1.387 . S
C295 H298 0.950 . S
C296 C295 1.387 . S
C296 C299 1.387 . S
H297 C293 0.950 . S
H298 C295 0.950 . S
C299 C290 1.390 1_455 S
C299 H292 0.950 . S
C299 C296 1.387 . S
C300 C301 1.387 . S
C300 H304 0.950 . S
C300 C309 1.390 . S
C301 C300 1.387 . S
C301 C303 1.387 . S
H302 C309 0.950 . S
C303 C301 1.387 . S
C303 C305 1.390 . S
C303 H307 0.950 . S
H304 C300 0.950 . S
C305 C303 1.390 . S
C305 C306 1.387 . S
C305 H308 0.950 . S
C306 C305 1.387 . S
C306 C309 1.387 . S
H307 C303 0.950 . S
H308 C305 0.950 . S
C309 C300 1.390 . S
C309 H302 0.950 . S
C309 C306 1.387 . S
C310 C311 1.387 . S
C310 H314 0.950 . S
C310 C319 1.390 . S
C311 C310 1.387 . S
C311 C313 1.387 . S
H312 C319 0.950 . S
C313 C311 1.387 . S
C313 C315 1.390 . S
C313 H317 0.950 . S
H314 C310 0.950 . S
C315 C313 1.390 . S
C315 C316 1.387 . S
C315 H318 0.950 . S
C316 C315 1.387 . S
C316 C319 1.387 . S
H317 C313 0.950 . S
H318 C315 0.950 . S
C319 C310 1.390 . S
C319 H312 0.950 . S
C319 C316 1.387 . S
C320 C321 1.387 . S
C320 H324 0.950 . S
C320 C329 1.390 . S
C321 C320 1.387 . S
C321 C323 1.387 . S
H322 C329 0.950 . S
C323 C321 1.387 . S
C323 C325 1.390 . S
C323 H327 0.950 . S
H324 C320 0.950 . S
C325 C323 1.390 . S
C325 C326 1.387 . S
C325 H328 0.950 . S
C326 C325 1.387 . S
C326 C329 1.387 . S
H327 C323 0.950 . S
H328 C325 0.950 . S
C329 C320 1.390 . S
C329 H322 0.950 . S
C329 C326 1.387 . S
C330 C331 1.387 . S
C330 H334 0.950 . S
C330 C339 1.390 . S
C331 C330 1.387 . S
C331 C333 1.387 . S
H332 C339 0.950 . S
C333 C331 1.387 . S
C333 C335 1.390 . S
C333 H337 0.950 . S
H334 C330 0.950 . S
C335 C333 1.390 . S
C335 C336 1.387 . S
C335 H338 0.950 . S
C336 C335 1.387 . S
C336 C339 1.387 . S
H337 C333 0.950 . S
H338 C335 0.950 . S
C339 C330 1.390 . S
C339 H332 0.950 . S
C339 C336 1.387 . S
C340 C341 1.387 . S
C340 H344 0.950 . S
C340 C349 1.390 . S
C341 C340 1.387 . S
C341 C343 1.387 . S
H342 C349 0.950 . S
C343 C341 1.387 . S
C343 C345 1.390 . S
C343 H347 0.950 . S
H344 C340 0.950 . S
C345 C343 1.390 . S
C345 C346 1.387 . S
C345 H348 0.950 . S
C346 C345 1.387 . S
C346 C349 1.387 . S
H347 C343 0.950 . S
H348 C345 0.950 . S
C349 C340 1.390 . S
C349 H342 0.950 . S
C349 C346 1.387 . S
C350 C351 1.387 . S
C350 H354 0.950 . S
C350 C359 1.390 . S
C351 C350 1.387 . S
C351 C353 1.387 . S
H352 C359 0.950 . S
C353 C351 1.387 . S
C353 C355 1.390 . S
C353 H357 0.950 . S
H354 C350 0.950 . S
C355 C353 1.390 . S
C355 C356 1.387 . S
C355 H358 0.950 . S
C356 C355 1.387 . S
C356 C359 1.387 . S
H357 C353 0.950 . S
H358 C355 0.950 . S
C359 C350 1.390 . S
C359 H352 0.950 . S
C359 C356 1.387 . S
C360 C361 1.387 . S
C360 H364 0.950 . S
C360 C369 1.390 . S
C361 C360 1.387 . S
C361 C363 1.387 . S
H362 C369 0.950 . S
C363 C361 1.387 . S
C363 C365 1.390 . S
C363 H367 0.950 . S
H364 C360 0.950 . S
C365 C363 1.390 . S
C365 C366 1.387 . S
C365 H368 0.950 . S
C366 C365 1.387 . S
C366 C369 1.387 . S
H367 C363 0.950 . S
H368 C365 0.950 . S
C369 C360 1.390 . S
C369 H362 0.950 . S
C369 C366 1.387 . S
C370 C371 1.387 . S
C370 H374 0.950 . S
C370 C379 1.390 . S
C371 C370 1.387 . S
C371 C373 1.387 . S
H372 C379 0.950 . S
C373 C371 1.387 . S
C373 C375 1.390 1_565 S
C373 H377 0.950 1_565 S
H374 C370 0.950 . S
C375 C373 1.390 1_545 S
C375 C376 1.387 1_545 S
C375 H378 0.950 . S
C376 C375 1.387 1_565 S
C376 C379 1.387 . S
H377 C373 0.950 1_545 S
H378 C375 0.950 . S
C379 C370 1.390 . S
C379 H372 0.950 . S
C379 C376 1.387 . S
C380 C381 1.387 . S
C380 H384 0.950 . S
C380 C389 1.390 . S
C381 C380 1.387 . S
C381 C383 1.387 . S
H382 C389 0.950 . S
C383 C381 1.387 . S
C383 C385 1.390 . S
C383 H387 0.950 . S
H384 C380 0.950 . S
C385 C383 1.390 . S
C385 C386 1.387 . S
C385 H388 0.950 . S
C386 C385 1.387 . S
C386 C389 1.387 . S
H387 C383 0.950 . S
H388 C385 0.950 . S
C389 C380 1.390 . S
C389 H382 0.950 . S
C389 C386 1.387 . S
C390 C391 1.387 . S
C390 H394 0.950 . S
C390 C399 1.390 . S
C391 C390 1.387 . S
C391 C393 1.387 . S
H392 C399 0.950 . S
C393 C391 1.387 . S
C393 C395 1.390 1_545 S
C393 H397 0.950 1_545 S
H394 C390 0.950 . S
C395 C393 1.390 1_565 S
C395 C396 1.387 1_565 S
C395 H398 0.950 . S
C396 C395 1.387 1_545 S
C396 C399 1.387 . S
H397 C393 0.950 1_565 S
H398 C395 0.950 . S
C399 C390 1.390 . S
C399 H392 0.950 . S
C399 C396 1.387 . S
C400 C401 1.387 . S
C400 H404 0.950 . S
C400 C409 1.390 . S
C401 C400 1.387 . S
C401 C403 1.387 . S
H402 C409 0.950 . S
C403 C401 1.387 . S
C403 C405 1.390 . S
C403 H407 0.950 . S
H404 C400 0.950 . S
C405 C403 1.390 . S
C405 C406 1.387 . S
C405 H408 0.950 . S
C406 C405 1.387 . S
C406 C409 1.387 . S
H407 C403 0.950 . S
H408 C405 0.950 . S
C409 C400 1.390 . S
C409 H402 0.950 . S
C409 C406 1.387 . S
C410 C411 1.387 . S
C410 H414 0.950 . S
C410 C419 1.390 . S
C411 C410 1.387 . S
C411 C413 1.387 . S
H412 C419 0.950 . S
C413 C411 1.387 . S
C413 C415 1.390 . S
C413 H417 0.950 1_655 S
H414 C410 0.950 . S
C415 C413 1.390 . S
C415 C416 1.387 . S
C415 H418 0.950 . S
C416 C415 1.387 . S
C416 C419 1.387 . S
H417 C413 0.950 1_455 S
H418 C415 0.950 . S
C419 C410 1.390 . S
C419 H412 0.950 . S
C419 C416 1.387 . S
C241 C162 2.434 . S
C246 C2 2.514 . S
C251 C223 2.514 . S
C256 C63 2.434 . S
C261 C82 2.516 . S
C266 C122 2.436 . S
C271 C23 2.436 . S
C276 C183 2.516 . S
C281 C202 2.436 . S
C286 C42 2.516 . S
C291 C103 2.434 . S
C296 C143 2.515 . S
C301 C25 1.895 . S
C306 C111 1.907 . S
C311 C65 1.891 . S
C316 C31 1.904 . S
C321 C105 1.891 . S
C326 C71 1.904 . S
C331 C124 1.894 . S
C336 C180 1.907 . S
C341 C164 1.895 . S
C346 C220 1.907 . S
C351 C140 1.907 . S
C356 C204 1.895 . S
C361 C4 1.313 . S
C366 C100 1.310 1_455 S
C371 C44 1.313 . S
C376 C20 1.311 1_565 S
C381 C84 1.313 . S
C386 C60 1.310 . S
C391 C145 1.317 . S
C396 C191 1.315 1_545 S
C401 C185 1.313 . S
C406 C231 1.310 . S
C411 C151 1.315 1_655 S
C416 C225 1.318 . S
