# Generated by pormake.
# Topology lig, (3)-cn, num edge types: 1
# Building blocks:
#     Node 0, Type 0, BuildingBlock: WUSLED_clean_sbu_0, # of connection points: 3
#     Node 1, Type 0, BuildingBlock: WUSLED_clean_sbu_0, # of connection points: 3
#     Node 2, Type 0, BuildingBlock: WUSLED_clean_sbu_0, # of connection points: 3
#     Node 3, Type 0, BuildingBlock: WUSLED_clean_sbu_0, # of connection points: 3
#     Node 4, Type 0, BuildingBlock: WUSLED_clean_sbu_0, # of connection points: 3
#     Node 5, Type 0, BuildingBlock: WUSLED_clean_sbu_0, # of connection points: 3
#     Node 6, Type 0, BuildingBlock: WUSLED_clean_sbu_0, # of connection points: 3
#     Node 7, Type 0, BuildingBlock: WUSLED_clean_sbu_0, # of connection points: 3
#     Node 8, Type 0, BuildingBlock: WUSLED_clean_sbu_0, # of connection points: 3
#     Node 9, Type 0, BuildingBlock: WUSLED_clean_sbu_0, # of connection points: 3
#     Node 10, Type 0, BuildingBlock: WUSLED_clean_sbu_0, # of connection points: 3
#     Node 11, Type 0, BuildingBlock: WUSLED_clean_sbu_0, # of connection points: 3
#     Node 12, Type 0, BuildingBlock: WUSLED_clean_sbu_0, # of connection points: 3
#     Node 13, Type 0, BuildingBlock: WUSLED_clean_sbu_0, # of connection points: 3
#     Node 14, Type 0, BuildingBlock: WUSLED_clean_sbu_0, # of connection points: 3
#     Node 15, Type 0, BuildingBlock: WUSLED_clean_sbu_0, # of connection points: 3
#     Edge 16, Type (0, 0), BuildingBlock: UVAHIK_clean_linker_0, # of connection points: 2
#     Edge 17, Type (0, 0), BuildingBlock: UVAHIK_clean_linker_0, # of connection points: 2
#     Edge 18, Type (0, 0), BuildingBlock: UVAHIK_clean_linker_0, # of connection points: 2
#     Edge 19, Type (0, 0), BuildingBlock: UVAHIK_clean_linker_0, # of connection points: 2
#     Edge 20, Type (0, 0), BuildingBlock: UVAHIK_clean_linker_0, # of connection points: 2
#     Edge 21, Type (0, 0), BuildingBlock: UVAHIK_clean_linker_0, # of connection points: 2
#     Edge 22, Type (0, 0), BuildingBlock: UVAHIK_clean_linker_0, # of connection points: 2
#     Edge 23, Type (0, 0), BuildingBlock: UVAHIK_clean_linker_0, # of connection points: 2
#     Edge 24, Type (0, 0), BuildingBlock: UVAHIK_clean_linker_0, # of connection points: 2
#     Edge 25, Type (0, 0), BuildingBlock: UVAHIK_clean_linker_0, # of connection points: 2
#     Edge 26, Type (0, 0), BuildingBlock: UVAHIK_clean_linker_0, # of connection points: 2
#     Edge 27, Type (0, 0), BuildingBlock: UVAHIK_clean_linker_0, # of connection points: 2
#     Edge 28, Type (0, 0), BuildingBlock: UVAHIK_clean_linker_0, # of connection points: 2
#     Edge 29, Type (0, 0), BuildingBlock: UVAHIK_clean_linker_0, # of connection points: 2
#     Edge 30, Type (0, 0), BuildingBlock: UVAHIK_clean_linker_0, # of connection points: 2
#     Edge 31, Type (0, 0), BuildingBlock: UVAHIK_clean_linker_0, # of connection points: 2
#     Edge 32, Type (0, 0), BuildingBlock: UVAHIK_clean_linker_0, # of connection points: 2
#     Edge 33, Type (0, 0), BuildingBlock: UVAHIK_clean_linker_0, # of connection points: 2
#     Edge 34, Type (0, 0), BuildingBlock: UVAHIK_clean_linker_0, # of connection points: 2
#     Edge 35, Type (0, 0), BuildingBlock: UVAHIK_clean_linker_0, # of connection points: 2
#     Edge 36, Type (0, 0), BuildingBlock: UVAHIK_clean_linker_0, # of connection points: 2
#     Edge 37, Type (0, 0), BuildingBlock: UVAHIK_clean_linker_0, # of connection points: 2
#     Edge 38, Type (0, 0), BuildingBlock: UVAHIK_clean_linker_0, # of connection points: 2
#     Edge 39, Type (0, 0), BuildingBlock: UVAHIK_clean_linker_0, # of connection points: 2
# Relax obj value: 0.000
# Max RMSD: 0.009
# Mean RMSD: 0.006
data_MOF--net-lig--node1-WUSLED_clean_sbu_0--edge1-UVAHIK_clean_linker_0
_symmetry_space_group_name_H-M    P1
_symmetry_Int_Tables_number       1
_symmetry_cell_setting            triclinic
loop_
_symmetry_equiv_pos_as_xyz
'x, y, z'
_cell_length_a     109.40485
_cell_length_b     110.65123
_cell_length_c     78.73234
_cell_angle_alpha  88.524083
_cell_angle_beta   90.026076
_cell_angle_gamma 91.496765
loop_
_atom_site_label
_atom_site_type_symbol
_atom_site_fract_x
_atom_site_fract_y
_atom_site_fract_z
_atom_type_partial_charge
C0 C 0.10351 0.01287 0.0357 0.0
C1 C 0.09714 1.00853 0.02147 0.0
C2 C 0.07774 0.01501 0.03314 0.0
C3 C 0.08442 1.0096 0.0202 0.0
C4 C 0.0842 0.01961 0.04714 0.0
C5 C 0.09689 0.01851 0.04842 0.0
U6 U 0.13804 0.01657 0.02436 0.0
O7 O 0.15377 0.01906 0.04148 0.0
O8 O 0.1524 1.00294 0.02586 0.0
C9 C 0.1584 1.00857 0.03791 0.0
C10 C 0.11676 1.01077 0.03832 0.0
C11 C 0.16265 1.00097 0.0524 0.0
C12 C 0.16244 0.99486 0.08238 0.0
C13 C 0.15756 1.00159 0.06874 0.0
C14 C 0.17735 0.98663 0.06348 0.0
C15 C 0.17251 0.98739 0.07998 0.0
C16 C 0.17249 0.99335 0.0499 0.0
C17 C 0.14812 0.0358 0.98442 0.0
C18 C 0.16409 0.05084 0.97698 0.0
C19 C 0.15534 0.03825 0.9552 0.0
C20 C 0.14773 0.03245 0.96734 0.0
C21 C 0.1635 0.04766 0.95978 0.0
C22 C 0.15648 0.045 0.98915 0.0
C23 C 0.13903 0.03034 0.9966 0.0
O24 O 0.12224 1.00397 0.02735 0.0
O25 O 0.12354 0.02012 0.0429 0.0
O26 O 0.13883 0.03465 0.01201 0.0
O27 O 0.13746 0.01853 0.99642 0.0
H28 H 0.10192 1.00405 0.01147 0.0
H29 H 0.07978 1.00584 1.00932 0.0
H30 H 0.07945 0.02403 0.05722 0.0
H31 H 0.10152 0.02189 0.05957 0.0
H32 H 0.15852 0.99576 0.0949 0.0
H33 H 0.14995 1.0074 0.07103 0.0
H34 H 0.18493 0.98081 0.06102 0.0
H35 H 0.17655 0.9927 0.03742 0.0
H36 H 0.17015 0.05812 0.98098 0.0
H37 H 0.15475 0.0354 0.94217 0.0
H38 H 0.14134 0.02546 0.96328 0.0
H39 H 0.15697 0.04791 1.00217 0.0
C40 C 0.26566 0.85708 0.28685 0.0
C41 C 0.26275 0.85256 0.2708 0.0
C42 C 0.263 0.83181 0.2823 0.0
C43 C 0.26146 0.84004 0.26853 0.0
C44 C 0.26578 0.83646 0.29837 0.0
C45 C 0.2671 0.84893 0.30059 0.0
U46 U 0.26109 0.89104 0.27612 0.0
O47 O 0.25845 0.90598 0.29355 0.0
O48 O 0.27459 0.9062 0.277 0.0
C49 C 0.26894 0.91138 0.28951 0.0
C50 C 0.2676 0.87016 0.28961 0.0
C51 C 0.27671 0.91578 0.30366 0.0
C52 C 0.28143 0.91724 0.33386 0.0
C53 C 0.27466 0.91201 0.32065 0.0
C54 C 0.2926 0.92984 0.31331 0.0
C55 C 0.29037 0.92637 0.33038 0.0
C56 C 0.28583 0.92464 0.30016 0.0
C57 C 0.24074 0.90044 0.23787 0.0
C58 C 0.24067 0.91959 0.22184 0.0
C59 C 0.22375 0.90524 0.21909 0.0
C60 C 0.2294 0.89735 0.23065 0.0
C61 C 0.22933 0.91644 0.21442 0.0
C62 C 0.2463 0.91168 0.23348 0.0
C63 C 0.24667 0.89156 0.24934 0.0
O64 O 0.27411 0.87624 0.27808 0.0
O65 O 0.25805 0.87603 0.29475 0.0
O66 O 0.24256 0.8908 0.26502 0.0
O67 O 0.25865 0.891 0.24838 0.0
H68 H 0.26154 0.85869 0.26001 0.0
H69 H 0.25917 0.83681 0.25603 0.0
H70 H 0.26721 0.83044 0.30921 0.0
H71 H 0.26939 0.85222 0.31307 0.0
H72 H 0.27937 0.91439 0.34683 0.0
H73 H 0.26767 0.90521 0.3238 0.0
H74 H 0.29955 0.93666 0.31007 0.0
H75 H 0.28758 0.92772 0.28719 0.0
H76 H 0.24517 0.92819 0.21871 0.0
H77 H 0.21513 0.9024 0.2135 0.0
H78 H 0.22496 0.8887 0.23379 0.0
H79 H 0.25504 0.9143 0.23893 0.0
C80 C 0.36019 1.00479 0.49336 0.0
C81 C 0.3653 0.9937 0.4893 0.0
C82 C 0.35077 0.99124 0.46594 0.0
C83 C 0.36061 0.98698 0.47576 0.0
C84 C 0.34582 1.00243 0.46995 0.0
C85 C 0.35046 1.0091 0.4835 0.0
U86 U 0.38482 0.01906 0.52278 0.0
O87 O 0.3851 0.03696 0.53436 0.0
O88 O 0.38467 0.02059 0.55065 0.0
C89 C 0.38402 0.03245 0.54992 0.0
C90 C 0.36436 0.01183 0.50815 0.0
C91 C 0.37494 0.03803 0.56124 0.0
C92 C 0.36217 0.05496 0.56837 0.0
C93 C 0.36971 0.04918 0.55688 0.0
C94 C 0.36474 0.03853 0.58879 0.0
C95 C 0.35967 0.04978 0.58456 0.0
C96 C 0.3723 0.03277 0.57732 0.0
C97 C 0.41926 0.01488 0.51267 0.0
C98 C 0.43724 0.01547 0.53098 0.0
C99 C 0.43965 0.01748 0.50048 0.0
C100 C 0.42695 0.01646 0.49849 0.0
C101 C 0.445 0.01692 0.51673 0.0
C102 C 0.4245 0.01448 0.52898 0.0
C103 C 0.40596 0.01311 0.50984 0.0
O104 O 0.36955 1.00582 0.52072 0.0
O105 O 0.36978 0.02235 0.5047 0.0
O106 O 0.39999 0.02269 0.50474 0.0
O107 O 0.39986 1.00631 0.52106 0.0
H108 H 0.37284 0.99017 0.49666 0.0
H109 H 0.36475 0.97848 0.47293 0.0
H110 H 0.33814 1.00594 0.46286 0.0
H111 H 0.34631 0.01758 0.48643 0.0
H112 H 0.35833 0.06354 0.56457 0.0
H113 H 0.37162 0.0536 0.5447 0.0
H114 H 0.36318 0.03433 0.60121 0.0
H115 H 0.37634 0.02431 0.58124 0.0
H116 H 0.44102 0.01513 0.54369 0.0
H117 H 0.44529 0.0184 0.4892 0.0
H118 H 0.42314 0.01671 0.48579 0.0
H119 H 0.41877 0.0133 0.54014 0.0
C120 C 0.26761 0.17854 0.75811 0.0
C121 C 0.26441 0.18272 0.77417 0.0
C122 C 0.26504 0.20362 0.76322 0.0
C123 C 0.26317 0.19514 0.77672 0.0
C124 C 0.26817 0.19932 0.74716 0.0
C125 C 0.26943 0.18694 0.74466 0.0
U126 U 0.2626 0.14439 0.76851 0.0
O127 O 0.25887 0.12955 0.75089 0.0
O128 O 0.27552 0.12956 0.76645 0.0
C129 C 0.26929 0.12434 0.75424 0.0
C130 C 0.26925 0.16557 0.75501 0.0
C131 C 0.27626 0.12012 0.73944 0.0
C132 C 0.29496 0.11917 0.72269 0.0
C133 C 0.28831 0.12419 0.73591 0.0
C134 C 0.27756 0.10618 0.71609 0.0
C135 C 0.28973 0.10996 0.71274 0.0
C136 C 0.27095 0.11118 0.72928 0.0
C137 C 0.24283 0.13406 0.80753 0.0
C138 C 0.24349 0.11701 0.82778 0.0
C139 C 0.22441 0.12704 0.8226 0.0
C140 C 0.23029 0.13497 0.81091 0.0
C141 C 0.23094 0.11801 0.83131 0.0
C142 C 0.24937 0.12493 0.816 0.0
C143 C 0.24888 0.1432 0.79599 0.0
O144 O 0.27593 0.1596 0.76611 0.0
O145 O 0.25944 0.15944 0.75027 0.0
O146 O 0.24439 0.14417 0.78054 0.0
O147 O 0.26089 0.14406 0.79638 0.0
H148 H 0.2629 0.17638 0.78473 0.0
H149 H 0.26062 0.19809 0.7892 0.0
H150 H 0.26986 0.20555 0.73654 0.0
H151 H 0.27194 0.18392 0.73218 0.0
H152 H 0.30432 0.12226 0.7206 0.0
H153 H 0.29268 0.13106 0.74354 0.0
H154 H 0.27313 0.0993 0.70853 0.0
H155 H 0.26169 0.10787 0.73173 0.0
H156 H 0.24878 0.11009 0.83409 0.0
H157 H 0.2148 0.12822 0.82514 0.0
H158 H 0.22506 0.14199 0.8047 0.0
H159 H 0.25905 0.12398 0.81368 0.0
C160 C 0.85951 1.00296 0.05041 0.0
C161 C 0.86633 1.00121 0.06536 0.0
C162 C 0.84981 0.9885 0.07769 0.0
C163 C 0.86151 0.99407 0.07889 0.0
C164 C 0.84312 0.99021 0.06258 0.0
C165 C 0.84792 0.99735 0.04913 0.0
U166 U 0.88494 0.01868 0.02292 0.0
O167 O 0.88554 0.02165 0.99518 0.0
O168 O 0.8856 0.03722 0.01189 0.0
C169 C 0.88513 0.03348 0.99619 0.0
C170 C 0.86403 1.01084 0.03618 0.0
C171 C 0.87652 0.03973 0.98468 0.0
C172 C 0.85721 0.04082 0.96932 0.0
C173 C 0.8649 0.03481 0.98087 0.0
C174 C 0.87259 0.05677 0.96547 0.0
C175 C 0.86097 0.05188 0.96143 0.0
C176 C 0.88025 0.05076 0.97693 0.0
C177 C 0.91918 0.01388 0.03408 0.0
C178 C 0.93818 1.01029 0.01896 0.0
C179 C 0.93882 0.02044 0.0458 0.0
C180 C 0.92606 0.0195 0.04686 0.0
C181 C 0.9451 0.01569 0.03196 0.0
C182 C 0.92538 1.00937 0.02002 0.0
C183 C 0.90577 0.01195 0.03647 0.0
O184 O 0.86949 0.02107 0.04029 0.0
O185 O 0.86952 1.00542 0.02375 0.0
O186 O 0.89981 1.00569 0.02499 0.0
O187 O 0.89967 0.02123 0.04172 0.0
H188 H 0.87532 1.00541 0.06661 0.0
H189 H 0.86698 0.99285 0.09024 0.0
H190 H 0.83404 0.98622 0.06125 0.0
H191 H 0.84249 0.99862 0.03774 0.0
H192 H 0.84828 0.03684 0.96666 0.0
H193 H 0.8618 0.02631 0.98674 0.0
H194 H 0.87591 0.06515 0.95949 0.0
H195 H 0.8892 0.05469 0.97961 0.0
H196 H 0.94266 1.00641 1.0082 0.0
H197 H 0.94379 0.02484 0.05591 0.0
H198 H 0.92157 0.02299 0.0579 0.0
H199 H 0.92039 1.00489 1.00999 0.0
C200 C 0.75652 0.17762 0.76074 0.0
C201 C 0.75806 0.18228 0.77706 0.0
C202 C 0.75894 0.20293 0.76516 0.0
C203 C 0.75923 0.19481 0.77925 0.0
C204 C 0.75757 0.19816 0.74885 0.0
C205 C 0.75636 0.18567 0.74669 0.0
U206 U 0.76135 0.14365 0.77123 0.0
O207 O 0.748 0.12837 0.77036 0.0
O208 O 0.76408 0.1288 0.75369 0.0
C209 C 0.75365 0.12329 0.75776 0.0
C210 C 0.75463 0.16453 0.75795 0.0
C211 C 0.74588 0.11888 0.74363 0.0
C212 C 0.74121 0.11729 0.71343 0.0
C213 C 0.748 0.12252 0.72661 0.0
C214 C 0.72986 0.10492 0.73405 0.0
C215 C 0.73215 0.10829 0.71696 0.0
C216 C 0.73665 0.11012 0.74718 0.0
C217 C 0.78213 0.13444 0.80922 0.0
C218 C 0.78248 0.11566 0.82611 0.0
C219 C 0.79977 0.12973 0.8268 0.0
C220 C 0.79381 0.13747 0.81537 0.0
C221 C 0.79418 0.11875 0.83243 0.0
C222 C 0.77652 0.12342 0.81458 0.0
C223 C 0.77593 0.14321 0.79785 0.0
O224 O 0.76418 0.15873 0.75263 0.0
O225 O 0.74821 0.15835 0.76949 0.0
O226 O 0.76395 0.14359 0.79896 0.0
O227 O 0.77994 0.1441 0.78212 0.0
H228 H 0.75827 0.17625 0.78811 0.0
H229 H 0.76042 0.19814 0.79197 0.0
H230 H 0.75713 0.2041 0.73772 0.0
H231 H 0.75513 0.18229 0.73399 0.0
H232 H 0.74332 0.12005 0.70045 0.0
H233 H 0.75508 0.12922 0.72341 0.0
H234 H 0.72282 0.0982 0.73733 0.0
H235 H 0.73484 0.10712 0.76017 0.0
H236 H 0.77795 0.10723 0.83001 0.0
H237 H 0.80867 0.13252 0.83155 0.0
H238 H 0.79828 0.14595 0.8115 0.0
H239 H 0.76751 0.12085 0.80998 0.0
C240 C 0.60291 0.01296 0.51232 0.0
C241 C 0.59765 0.01293 0.52862 0.0
C242 C 0.57733 0.0155 0.51627 0.0
C243 C 0.58499 0.01415 0.53056 0.0
C244 C 0.58271 0.01572 0.50002 0.0
C245 C 0.59532 0.01444 0.49809 0.0
U246 U 0.63744 0.01702 0.52276 0.0
O247 O 0.65191 1.00349 0.52202 0.0
O248 O 0.65295 0.01957 0.50513 0.0
C249 C 0.65764 1.00907 0.50929 0.0
C250 C 0.61609 1.0109 0.50965 0.0
C251 C 0.66155 1.00143 0.49515 0.0
C252 C 0.66204 0.99656 0.46511 0.0
C253 C 0.65737 1.00328 0.47841 0.0
C254 C 0.67489 0.98581 0.4851 0.0
C255 C 0.67095 0.9878 0.46826 0.0
C256 C 0.67027 0.99257 0.49835 0.0
C257 C 0.6475 0.03713 0.56042 0.0
C258 C 0.66537 0.03667 0.57893 0.0
C259 C 0.65339 0.05472 0.57682 0.0
C260 C 0.64558 0.04906 0.56522 0.0
C261 C 0.66334 0.04859 0.58398 0.0
C262 C 0.65755 0.03101 0.56725 0.0
C263 C 0.63847 0.03122 0.54908 0.0
O264 O 0.62273 0.02026 0.50413 0.0
O265 O 0.62167 1.00433 0.52129 0.0
O266 O 0.6372 0.01938 0.55043 0.0
O267 O 0.63816 0.03532 0.53327 0.0
H268 H 0.60329 0.01184 0.53983 0.0
H269 H 0.5812 0.01409 0.54327 0.0
H270 H 0.57712 0.01656 0.48871 0.0
H271 H 0.59915 0.01442 0.4854 0.0
H272 H 0.65868 0.99823 0.45235 0.0
H273 H 0.65063 1.01002 0.47552 0.0
H274 H 0.68183 0.97928 0.48801 0.0
H275 H 0.67371 0.99103 0.51111 0.0
H276 H 0.67302 0.03172 0.584 0.0
H277 H 0.65141 0.06382 0.58055 0.0
H278 H 0.63785 0.05394 0.56023 0.0
H279 H 0.65928 0.02181 0.56373 0.0
C280 C 0.75561 0.85716 0.28837 0.0
C281 C 0.75841 0.85289 0.27223 0.0
C282 C 0.75781 0.83203 0.28336 0.0
C283 C 0.75951 0.84044 0.26975 0.0
C284 C 0.75521 0.83645 0.29955 0.0
C285 C 0.75412 0.84885 0.30199 0.0
U286 U 0.76 0.89146 0.27794 0.0
O287 O 0.74656 0.90589 0.27989 0.0
O288 O 0.76315 0.90638 0.29551 0.0
C289 C 0.75252 0.91122 0.29225 0.0
C290 C 0.75381 0.87013 0.29137 0.0
C291 C 0.74517 0.91505 0.30701 0.0
C292 C 0.72719 0.92505 0.3177 0.0
C293 C 0.73369 0.92019 0.30426 0.0
C294 C 0.74344 0.91967 0.33707 0.0
C295 C 0.73205 0.92501 0.33425 0.0
C296 C 0.74992 0.91476 0.32363 0.0
C297 C 0.77955 0.90233 0.2388 0.0
C298 C 0.77865 0.91608 0.21408 0.0
C299 C 0.79816 0.912 0.22719 0.0
C300 C 0.7923 0.90431 0.23921 0.0
C301 C 0.79145 0.91786 0.21429 0.0
C302 C 0.77279 0.90839 0.22614 0.0
C303 C 0.77374 0.89307 0.25047 0.0
O304 O 0.76351 0.87644 0.29611 0.0
O305 O 0.74703 0.87597 0.28025 0.0
O306 O 0.76175 0.89183 0.25006 0.0
O307 O 0.77821 0.89222 0.26595 0.0
H308 H 0.75961 0.85915 0.26152 0.0
H309 H 0.76143 0.83739 0.25709 0.0
H310 H 0.75407 0.83031 0.3104 0.0
H311 H 0.752 0.85196 0.31457 0.0
H312 H 0.71854 0.92922 0.31497 0.0
H313 H 0.72986 0.92074 0.29158 0.0
H314 H 0.7474 0.91934 0.34967 0.0
H315 H 0.75877 0.91097 0.32626 0.0
H316 H 0.77319 0.92031 0.20424 0.0
H317 H 0.80799 0.91327 0.22794 0.0
H318 H 0.79781 0.89969 0.24866 0.0
H319 H 0.76298 0.90698 0.22525 0.0
C320 C 0.60224 0.51141 0.53317 0.0
C321 C 0.59734 0.52226 0.52691 0.0
C322 C 0.57664 0.5134 0.52867 0.0
C323 C 0.58466 0.52325 0.52472 0.0
C324 C 0.58166 0.50252 0.53471 0.0
C325 C 0.59429 0.50156 0.53694 0.0
U326 U 0.63675 0.51765 0.52414 0.0
O327 O 0.65172 0.52066 0.54238 0.0
O328 O 0.65191 0.50493 0.52602 0.0
C329 C 0.65703 0.51049 0.53888 0.0
C330 C 0.61546 0.51017 0.53658 0.0
C331 C 0.66104 0.50273 0.55348 0.0
C332 C 0.66542 0.49976 0.5837 0.0
C333 C 0.66054 0.5067 0.5703 0.0
C334 C 0.67127 0.48464 0.56383 0.0
C335 C 0.67095 0.48867 0.58064 0.0
C336 C 0.66644 0.4916 0.55045 0.0
C337 C 0.64679 0.53849 0.48588 0.0
C338 C 0.6652 0.53887 0.46839 0.0
C339 C 0.6525 0.55643 0.46884 0.0
C340 C 0.64456 0.55037 0.4803 0.0
C341 C 0.66289 0.55075 0.46261 0.0
C342 C 0.65726 0.5328 0.47994 0.0
C343 C 0.6377 0.53213 0.49709 0.0
O344 O 0.62163 0.50406 0.52551 0.0
O345 O 0.62145 0.51983 0.54184 0.0
O346 O 0.63682 0.53606 0.51265 0.0
O347 O 0.63697 0.52027 0.49635 0.0
H348 H 0.60328 0.52999 0.52385 0.0
H349 H 0.58114 0.53172 0.51986 0.0
H350 H 0.5758 0.4948 0.53813 0.0
H351 H 0.59786 0.49312 0.54187 0.0
H352 H 0.66488 0.5031 0.59648 0.0
H353 H 0.65656 0.51528 0.57314 0.0
H354 H 0.67561 0.47625 0.56092 0.0
H355 H 0.66717 0.48837 0.53762 0.0
H356 H 0.67318 0.53426 0.46403 0.0
H357 H 0.65031 0.56549 0.46452 0.0
H358 H 0.63651 0.55491 0.48459 0.0
H359 H 0.65923 0.52365 0.48406 0.0
C360 C 0.76617 0.35864 0.78645 0.0
C361 C 0.76465 0.35399 0.77012 0.0
C362 C 0.76371 0.33334 0.78202 0.0
C363 C 0.76346 0.34146 0.76793 0.0
C364 C 0.76507 0.33811 0.79834 0.0
C365 C 0.76629 0.3506 0.8005 0.0
U366 U 0.76169 0.39263 0.77567 0.0
O367 O 0.75885 0.40756 0.79304 0.0
O368 O 0.77517 0.4078 0.77682 0.0
C369 C 0.76937 0.41297 0.78921 0.0
C370 C 0.76809 0.37174 0.78923 0.0
C371 C 0.77696 0.41727 0.80357 0.0
C372 C 0.78233 0.41722 0.83364 0.0
C373 C 0.77574 0.41225 0.82009 0.0
C374 C 0.79171 0.43208 0.81433 0.0
C375 C 0.79032 0.42729 0.83097 0.0
C376 C 0.78509 0.42714 0.80083 0.0
C377 C 0.74145 0.40186 0.73706 0.0
C378 C 0.7418 0.41995 0.71867 0.0
C379 C 0.7238 0.40678 0.71958 0.0
C380 C 0.72951 0.39923 0.73153 0.0
C381 C 0.72991 0.41716 0.71278 0.0
C382 C 0.74752 0.41238 0.73068 0.0
C383 C 0.74745 0.39311 0.74871 0.0
O384 O 0.77471 0.37784 0.77783 0.0
O385 O 0.75852 0.37761 0.79427 0.0
O386 O 0.74323 0.39232 0.76434 0.0
O387 O 0.75943 0.39261 0.74789 0.0
H388 H 0.76447 0.36002 0.75907 0.0
H389 H 0.76228 0.33813 0.7552 0.0
H390 H 0.76547 0.33217 0.80947 0.0
H391 H 0.76751 0.35398 0.8132 0.0
H392 H 0.78115 0.41319 0.84623 0.0
H393 H 0.76956 0.4046 0.8226 0.0
H394 H 0.79764 0.43991 0.81178 0.0
H395 H 0.78614 0.43123 0.78823 0.0
H396 H 0.74684 0.4278 0.71365 0.0
H397 H 0.71457 0.40444 0.71565 0.0
H398 H 0.72463 0.39119 0.73628 0.0
H399 H 0.75674 0.41463 0.73473 0.0
C400 C 0.85918 0.5062 0.99436 0.0
C401 C 0.86648 0.49818 0.98558 0.0
C402 C 0.84914 0.49248 0.96756 0.0
C403 C 0.86151 0.49139 0.97228 0.0
C404 C 0.84198 0.5007 0.97628 0.0
C405 C 0.84694 0.50745 0.98951 0.0
U406 U 0.88481 0.52019 0.0224 0.0
O407 O 0.88533 0.53788 0.03456 0.0
O408 O 0.88546 0.52126 0.05035 0.0
C409 C 0.88481 0.53311 0.05002 0.0
C410 C 0.86388 0.51314 1.00888 0.0
C411 C 0.87606 0.53835 0.06201 0.0
C412 C 0.85841 0.55056 0.06812 0.0
C413 C 0.866 0.54503 0.05639 0.0
C414 C 0.87066 0.54262 0.09123 0.0
C415 C 0.86069 0.54949 0.08571 0.0
C416 C 0.87825 0.53715 0.07952 0.0
C417 C 0.91897 0.51618 0.01086 0.0
C418 C 0.93718 0.5165 0.02874 0.0
C419 C 0.93919 0.51909 0.99825 0.0
C420 C 0.92647 0.51805 0.99655 0.0
C421 C 0.94475 0.51825 0.01435 0.0
C422 C 0.92442 0.51551 0.02702 0.0
C423 C 0.90562 0.51442 1.00835 0.0
O424 O 0.8695 0.50696 0.02089 0.0
O425 O 0.8693 0.52361 1.00518 0.0
O426 O 0.89956 0.52407 1.00378 0.0
O427 O 0.89973 0.50743 0.01954 0.0
H428 H 0.87596 0.49707 0.98913 0.0
H429 H 0.86729 0.4851 0.96595 0.0
H430 H 0.83251 0.50198 0.97283 0.0
H431 H 0.84116 0.51363 0.99607 0.0
H432 H 0.85074 0.55565 0.06341 0.0
H433 H 0.86405 0.54609 0.04296 0.0
H434 H 0.87282 0.54172 0.10462 0.0
H435 H 0.88599 0.53214 0.08417 0.0
H436 H 0.94112 0.51595 0.04135 0.0
H437 H 0.94469 0.52025 0.98686 0.0
H438 H 0.9225 0.51852 0.98394 0.0
H439 H 0.91884 0.51411 0.0383 0.0
C440 C 0.76781 0.67733 0.25716 0.0
C441 C 0.76485 0.68162 0.27323 0.0
C442 C 0.76544 0.70246 0.26202 0.0
C443 C 0.76371 0.69407 0.27566 0.0
C444 C 0.76832 0.69804 0.24594 0.0
C445 C 0.76949 0.68563 0.24356 0.0
U446 U 0.76313 0.64339 0.26886 0.0
O447 O 0.75913 0.62812 0.25208 0.0
O448 O 0.77608 0.6286 0.26697 0.0
C449 C 0.76957 0.62296 0.25542 0.0
C450 C 0.76938 0.66431 0.25423 0.0
C451 C 0.77635 0.61842 0.24075 0.0
C452 C 0.79198 0.62058 0.21874 0.0
C453 C 0.78524 0.62551 0.23197 0.0
C454 C 0.78083 0.60154 0.22275 0.0
C455 C 0.78996 0.60846 0.21411 0.0
C456 C 0.77413 0.60646 0.2359 0.0
C457 C 0.74487 0.63399 0.30969 0.0
C458 C 0.73131 0.61679 0.31706 0.0
C459 C 0.74102 0.62826 0.33933 0.0
C460 C 0.74682 0.63578 0.32707 0.0
C461 C 0.73303 0.61876 0.33453 0.0
C462 C 0.73716 0.62432 0.30477 0.0
C463 C 0.75033 0.64283 0.29719 0.0
O464 O 0.7764 0.65852 0.2651 0.0
O465 O 0.75943 0.65809 0.25026 0.0
O466 O 0.74537 0.64335 0.28197 0.0
O467 O 0.76233 0.64375 0.29686 0.0
H468 H 0.76345 0.67536 0.28391 0.0
H469 H 0.76134 0.69711 0.28817 0.0
H470 H 0.76989 0.70419 0.2352 0.0
H471 H 0.77181 0.68251 0.23106 0.0
H472 H 0.79898 0.62616 0.21246 0.0
H473 H 0.78711 0.63477 0.23551 0.0
H474 H 0.77884 0.59227 0.21936 0.0
H475 H 0.76727 0.60085 0.24246 0.0
H476 H 0.72516 0.60965 0.31285 0.0
H477 H 0.74277 0.62993 0.35261 0.0
H478 H 0.75271 0.64316 0.3312 0.0
H479 H 0.73546 0.62271 0.29146 0.0
C480 C 0.35916 0.50512 0.5527 0.0
C481 C 0.36559 0.49531 0.55957 0.0
C482 C 0.34945 0.49129 0.5806 0.0
C483 C 0.36077 0.48845 0.57336 0.0
C484 C 0.34318 0.50126 0.5738 0.0
C485 C 0.34798 0.50807 0.56001 0.0
U486 U 0.38449 0.51842 0.52281 0.0
O487 O 0.38462 0.51979 0.49482 0.0
O488 O 0.3856 0.53625 0.50975 0.0
C489 C 0.38471 0.53167 0.49454 0.0
C490 C 0.36362 0.51215 0.53762 0.0
C491 C 0.37604 0.53747 0.48269 0.0
C492 C 0.35594 0.54518 0.47568 0.0
C493 C 0.36383 0.53937 0.48718 0.0
C494 C 0.37236 0.54711 0.4551 0.0
C495 C 0.36011 0.54914 0.45948 0.0
C496 C 0.3802 0.54135 0.46658 0.0
C497 C 0.41856 0.51233 0.53277 0.0
C498 C 0.43692 0.52389 0.52421 0.0
C499 C 0.43855 0.50322 0.53459 0.0
C500 C 0.42586 0.50242 0.53676 0.0
C501 C 0.44429 0.51399 0.5284 0.0
C502 C 0.42418 0.52306 0.52633 0.0
C503 C 0.40525 0.51131 0.53615 0.0
O504 O 0.3696 0.52234 0.54058 0.0
O505 O 0.36856 0.50597 0.52547 0.0
O506 O 0.39875 0.50475 0.52559 0.0
O507 O 0.39981 0.52122 0.54052 0.0
H508 H 0.37428 0.49289 0.55419 0.0
H509 H 0.36592 0.48094 0.57839 0.0
H510 H 0.33438 0.50364 0.57885 0.0
H511 H 0.34284 0.51556 0.55488 0.0
H512 H 0.34655 0.54646 0.47944 0.0
H513 H 0.36042 0.53641 0.49955 0.0
H514 H 0.37597 0.55019 0.4429 0.0
H515 H 0.3896 0.54001 0.46289 0.0
H516 H 0.44099 0.53227 0.51923 0.0
H517 H 0.44391 0.49546 0.53817 0.0
H518 H 0.42174 0.49407 0.54182 0.0
H519 H 0.41875 0.53084 0.52308 0.0
C520 C 0.25531 0.67614 0.26003 0.0
C521 C 0.25809 0.68091 0.27597 0.0
C522 C 0.25697 0.70152 0.26412 0.0
C523 C 0.25891 0.69348 0.278 0.0
C524 C 0.25438 0.69661 0.24814 0.0
C525 C 0.25356 0.68409 0.24615 0.0
U526 U 0.26059 0.64264 0.27249 0.0
O527 O 0.24777 0.62702 0.27133 0.0
O528 O 0.26448 0.62743 0.25594 0.0
C529 C 0.25414 0.62166 0.25969 0.0
C530 C 0.25392 0.66298 0.25754 0.0
C531 C 0.24715 0.61673 0.24526 0.0
C532 C 0.23344 0.61901 0.22105 0.0
C533 C 0.24025 0.62411 0.23434 0.0
C534 C 0.24048 0.59917 0.2294 0.0
C535 C 0.23339 0.60644 0.2185 0.0
C536 C 0.24726 0.60426 0.24261 0.0
C537 C 0.27946 0.63487 0.31278 0.0
C538 C 0.28568 0.61472 0.32181 0.0
C539 C 0.29005 0.63179 0.33966 0.0
C540 C 0.28447 0.63946 0.32775 0.0
C541 C 0.29075 0.61931 0.33688 0.0
C542 C 0.28006 0.62243 0.30987 0.0
C543 C 0.27381 0.6433 0.30043 0.0
O544 O 0.26389 0.65735 0.25347 0.0
O545 O 0.24712 0.65688 0.26873 0.0
O546 O 0.2618 0.6434 0.30039 0.0
O547 O 0.27855 0.64376 0.28509 0.0
H548 H 0.25949 0.67493 0.28687 0.0
H549 H 0.26081 0.69689 0.29052 0.0
H550 H 0.25307 0.70246 0.23709 0.0
H551 H 0.25147 0.68059 0.23372 0.0
H552 H 0.22803 0.62488 0.213 0.0
H553 H 0.24004 0.63377 0.23618 0.0
H554 H 0.24087 0.58951 0.22769 0.0
H555 H 0.25257 0.59842 0.25085 0.0
H556 H 0.28594 0.60515 0.31931 0.0
H557 H 0.294 0.63571 0.35093 0.0
H558 H 0.28414 0.64904 0.3302 0.0
H559 H 0.27622 0.6187 0.2984 0.0
C560 C 0.10286 0.51427 0.01195 0.0
C561 C 0.09728 0.51377 0.02805 0.0
C562 C 0.07725 0.51696 0.01512 0.0
C563 C 0.08459 0.51507 0.02961 0.0
C564 C 0.08295 0.51765 0.99908 0.0
C565 C 0.09558 0.51631 0.99754 0.0
U566 U 0.13723 0.51726 0.02394 0.0
O567 O 0.15136 0.50343 0.02301 0.0
O568 O 0.15318 0.51992 1.00707 0.0
C569 C 0.15749 0.50918 0.01078 0.0
C570 C 0.11605 0.51209 1.00962 0.0
C571 C 0.16159 0.50179 0.9964 0.0
C572 C 0.16613 0.49947 0.9663 0.0
C573 C 0.1611 0.50609 0.97943 0.0
C574 C 0.17204 0.48401 0.98673 0.0
C575 C 0.17182 0.4884 0.96979 0.0
C576 C 0.16704 0.49063 0.99984 0.0
C577 C 0.14684 0.53545 0.06371 0.0
C578 C 0.1659 0.54616 0.07063 0.0
C579 C 0.15125 0.54103 0.09285 0.0
C580 C 0.14353 0.53561 0.08091 0.0
C581 C 0.16251 0.54646 0.08789 0.0
C582 C 0.15815 0.54068 0.05866 0.0
C583 C 0.13799 0.53036 0.05139 0.0
O584 O 0.12296 0.5215 1.00503 0.0
O585 O 0.12127 0.50499 0.02097 0.0
O586 O 0.13636 0.51854 0.05184 0.0
O587 O 0.13822 0.53503 0.03586 0.0
H588 H 0.10268 0.51224 0.0394 0.0
H589 H 0.08055 0.51463 0.04216 0.0
H590 H 0.07761 0.51892 0.98762 0.0
H591 H 0.09966 0.51665 0.98499 0.0
H592 H 0.1659 0.50323 0.95348 0.0
H593 H 0.15708 0.5147 0.97629 0.0
H594 H 0.17616 0.47545 0.98992 0.0
H595 H 0.16765 0.48711 0.01277 0.0
H596 H 0.17456 0.55012 0.06637 0.0
H597 H 0.14822 0.54122 0.10593 0.0
H598 H 0.13481 0.53172 0.08509 0.0
H599 H 0.16095 0.54067 0.04547 0.0
C600 C 0.25518 0.35833 0.7896 0.0
C601 C 0.25818 0.35403 0.77354 0.0
C602 C 0.25715 0.33316 0.78464 0.0
C603 C 0.25916 0.34156 0.77108 0.0
C604 C 0.25432 0.3376 0.80074 0.0
C605 C 0.25334 0.35002 0.80316 0.0
U606 U 0.25961 0.39239 0.77807 0.0
O607 O 0.24659 0.40708 0.78058 0.0
O608 O 0.26374 0.40753 0.79501 0.0
C609 C 0.2531 0.4125 0.79235 0.0
C610 C 0.25367 0.37134 0.79257 0.0
C611 C 0.2465 0.41666 0.80757 0.0
C612 C 0.22761 0.42009 0.82304 0.0
C613 C 0.23377 0.41499 0.80945 0.0
C614 C 0.24677 0.42845 0.83335 0.0
C615 C 0.234 0.42704 0.83506 0.0
C616 C 0.25292 0.42337 0.81977 0.0
C617 C 0.27736 0.40201 0.73687 0.0
C618 C 0.28892 0.42055 0.72949 0.0
C619 C 0.28289 0.40676 0.70745 0.0
C620 C 0.27718 0.39912 0.71963 0.0
C621 C 0.289 0.41751 0.71221 0.0
C622 C 0.28316 0.41287 0.7417 0.0
C623 C 0.27205 0.39317 0.74943 0.0
O624 O 0.26366 0.37757 0.79631 0.0
O625 O 0.24649 0.37714 0.78192 0.0
O626 O 0.26005 0.39227 0.75004 0.0
O627 O 0.2772 0.39268 0.76452 0.0
H628 H 0.25964 0.36029 0.76289 0.0
H629 H 0.26125 0.3385 0.75849 0.0
H630 H 0.25294 0.33147 0.81155 0.0
H631 H 0.25107 0.35315 0.81567 0.0
H632 H 0.21776 0.41891 0.8238 0.0
H633 H 0.22849 0.40998 0.80022 0.0
H634 H 0.25206 0.43355 0.84247 0.0
H635 H 0.26271 0.42491 0.81862 0.0
H636 H 0.29358 0.4287 0.73366 0.0
H637 H 0.28254 0.40422 0.69427 0.0
H638 H 0.27274 0.3908 0.71559 0.0
H639 H 0.28344 0.41532 0.75493 0.0
C640 C 0.18314 0.05823 0.94994 0.0
C641 C 0.17104 0.05437 0.94656 0.0
C642 C 0.19009 0.06464 0.93755 0.0
C643 C 0.1916 0.07129 0.89098 0.0
H644 H 0.2123 0.09847 0.90399 0.0
C645 C 0.21274 0.10536 0.84149 0.0
C646 C 0.22469 0.1099 0.84427 0.0
C647 C 0.20668 0.09816 0.8539 0.0
C648 C 0.2067 0.0908 0.90014 0.0
H649 H 0.15674 0.05454 0.92746 0.0
H650 H 0.16879 0.06562 0.90597 0.0
H651 H 0.20091 0.0868 0.92572 0.0
H652 H 0.2396 0.11033 0.86242 0.0
H653 H 0.2291 0.09763 0.88394 0.0
H654 H 0.19731 0.07534 0.8654 0.0
C655 C 0.17303 0.0635 0.91809 0.0
C656 C 0.20015 0.0841 0.91263 0.0
C657 C 0.16609 0.05712 0.93045 0.0
C658 C 0.23046 0.10691 0.85975 0.0
C659 C 0.22437 0.09974 0.87219 0.0
C660 C 0.19813 0.07799 0.8785 0.0
C661 C 0.18512 0.06737 0.92144 0.0
C662 C 0.19244 0.07429 0.90821 0.0
C663 C 0.21237 0.0953 0.86948 0.0
C664 C 0.20572 0.0879 0.88288 0.0
H665 H 0.18733 0.05616 0.9621 0.0
H666 H 0.19942 0.06732 0.94054 0.0
H667 H 0.18594 0.06367 0.8871 0.0
H668 H 0.20805 0.10735 0.82968 0.0
H669 H 0.19741 0.09502 0.85138 0.0
C670 C 0.21067 0.92596 0.20146 0.0
C671 C 0.22343 0.92461 0.20158 0.0
C672 C 0.20506 0.93316 0.18897 0.0
C673 C 0.21138 0.95757 0.15647 0.0
H674 H 0.18089 0.94598 0.13684 0.0
C675 C 0.19092 0.97954 0.09564 0.0
C676 C 0.17814 0.9806 0.09455 0.0
C677 C 0.19626 0.97306 0.1091 0.0
C678 C 0.18932 0.94945 0.14232 0.0
H679 H 0.24026 0.92988 0.18852 0.0
H680 H 0.2305 0.94241 0.16676 0.0
H681 H 0.19054 0.93419 0.15946 0.0
H682 H 0.161 0.9756 0.107 0.0
H683 H 0.17032 0.96448 0.13064 0.0
H684 H 0.21019 0.9728 0.13926 0.0
C685 C 0.22483 0.93802 0.17649 0.0
C686 C 0.19487 0.94267 0.15533 0.0
C687 C 0.23044 0.93083 0.189 0.0
C688 C 0.17087 0.97506 0.10744 0.0
C689 C 0.17621 0.96856 0.12092 0.0
C690 C 0.20583 0.96435 0.14346 0.0
C691 C 0.21204 0.93923 0.17621 0.0
C692 C 0.20601 0.9466 0.16255 0.0
C693 C 0.18899 0.96744 0.12193 0.0
C694 C 0.19474 0.96037 0.13614 0.0
H695 H 0.20499 0.92149 0.2111 0.0
H696 H 0.19523 0.93404 0.18939 0.0
H697 H 0.21984 0.96101 0.16189 0.0
H698 H 0.19685 0.9838 0.08612 0.0
H699 H 0.2061 0.97231 0.1093 0.0
C700 C 0.29969 0.94506 0.34338 0.0
C701 C 0.29709 0.93254 0.34444 0.0
C702 C 0.30595 0.95092 0.35646 0.0
C703 C 0.31402 0.94785 0.40216 0.0
H704 H 0.33784 0.97333 0.39074 0.0
C705 C 0.34381 0.9714 0.45345 0.0
C706 C 0.34551 0.98403 0.45174 0.0
C707 C 0.33839 0.96474 0.44039 0.0
C708 C 0.33114 0.96632 0.39419 0.0
H709 H 0.29919 0.91639 0.36026 0.0
H710 H 0.31009 0.92662 0.38309 0.0
H711 H 0.32749 0.96245 0.36814 0.0
H712 H 0.34309 0.99945 0.43463 0.0
H713 H 0.33354 0.98792 0.41204 0.0
H714 H 0.31764 0.95178 0.42823 0.0
C715 C 0.30715 0.93193 0.37217 0.0
C716 C 0.32518 0.96006 0.38119 0.0
C717 C 0.30089 0.92606 0.35905 0.0
C718 C 0.34182 0.98977 0.4365 0.0
C719 C 0.33645 0.98312 0.42343 0.0
C720 C 0.31999 0.95411 0.41517 0.0
C721 C 0.3098 0.94445 0.37104 0.0
C722 C 0.31646 0.9508 0.38497 0.0
C723 C 0.33459 0.97051 0.42521 0.0
C724 C 0.32856 0.9635 0.41137 0.0
H725 H 0.2967 0.95043 0.33254 0.0
H726 H 0.30758 0.9606 0.35525 0.0
H727 H 0.30726 0.94089 0.40559 0.0
H728 H 0.34643 0.96667 0.46505 0.0
H729 H 0.33723 0.95504 0.44216 0.0
C730 C 0.29573 0.09154 0.69679 0.0
C731 C 0.29696 0.10407 0.69924 0.0
C732 C 0.3024 0.08595 0.68415 0.0
C733 C 0.32987 0.09003 0.65665 0.0
H734 H 0.31426 0.06453 0.6309 0.0
C735 C 0.35344 0.06883 0.59891 0.0
C736 C 0.35214 0.05623 0.59717 0.0
C737 C 0.34664 0.07484 0.61102 0.0
C738 C 0.31882 0.07154 0.63808 0.0
H739 H 0.30625 0.12052 0.69007 0.0
H740 H 0.31788 0.11078 0.66803 0.0
H741 H 0.30267 0.07469 0.65249 0.0
H742 H 0.3424 0.04015 0.60675 0.0
H743 H 0.33069 0.05057 0.62799 0.0
H744 H 0.34603 0.08686 0.64225 0.0
C745 C 0.31183 0.10524 0.67606 0.0
C746 C 0.31216 0.07738 0.6505 0.0
C747 C 0.30515 0.11084 0.68873 0.0
C748 C 0.34375 0.04983 0.60781 0.0
C749 C 0.33692 0.05584 0.61989 0.0
C750 C 0.33654 0.08419 0.64422 0.0
C751 C 0.31052 0.09271 0.67356 0.0
C752 C 0.31759 0.08668 0.66003 0.0
C753 C 0.33829 0.06843 0.62172 0.0
C754 C 0.33112 0.07482 0.6348 0.0
H755 H 0.28974 0.08596 0.70485 0.0
H756 H 0.30131 0.07626 0.68287 0.0
H757 H 0.33443 0.09702 0.66388 0.0
H758 H 0.3599 0.07406 0.5911 0.0
H759 H 0.34786 0.08454 0.61191 0.0
C760 C 0.79272 0.93617 0.19438 0.0
C761 C 0.79782 0.92542 0.20079 0.0
C762 C 0.79862 0.94307 0.18146 0.0
C763 C 0.82162 0.94078 0.14705 0.0
H764 H 0.82186 0.97582 0.14747 0.0
C765 C 0.83767 0.97037 0.08912 0.0
C766 C 0.84448 0.98107 0.09214 0.0
C767 C 0.8323 0.96361 0.10255 0.0
C768 C 0.82198 0.96604 0.14721 0.0
H769 H 0.81315 0.91354 0.19836 0.0
H770 H 0.8235 0.92565 0.17621 0.0
H771 H 0.81205 0.96414 0.17064 0.0
H772 H 0.85094 0.99298 0.11186 0.0
H773 H 0.84173 0.98109 0.13531 0.0
H774 H 0.83169 0.94267 0.12378 0.0
C775 C 0.81488 0.9287 0.18104 0.0
C776 C 0.81621 0.95933 0.16042 0.0
C777 C 0.809 0.92182 0.19395 0.0
C778 C 0.84586 0.98474 0.10903 0.0
C779 C 0.84045 0.97799 0.12249 0.0
C780 C 0.82736 0.94749 0.13385 0.0
C781 C 0.80975 0.9394 0.17455 0.0
C782 C 0.81594 0.9466 0.16052 0.0
C783 C 0.83355 0.96735 0.11943 0.0
C784 C 0.8276 0.96021 0.13371 0.0
H785 H 0.78419 0.9393 0.19941 0.0
H786 H 0.79432 0.95119 0.1767 0.0
H787 H 0.8215 0.93101 0.14657 0.0
H788 H 0.83651 0.96717 0.07632 0.0
H789 H 0.82697 0.95554 0.09965 0.0
C790 C 0.84629 0.05184 0.93662 0.0
C791 C 0.853 0.05828 0.94885 0.0
C792 C 0.83942 0.05795 0.9242 0.0
C793 C 0.83724 0.08803 0.90255 0.0
H794 H 0.80581 0.07561 0.88709 0.0
C795 C 0.8132 0.10917 0.8441 0.0
C796 C 0.8005 0.11075 0.84507 0.0
C797 C 0.81929 0.10229 0.85648 0.0
C798 C 0.81455 0.07925 0.89132 0.0
H799 H 0.85724 0.07623 0.95798 0.0
H800 H 0.8453 0.08684 0.93647 0.0
H801 H 0.81669 0.06479 0.90966 0.0
H802 H 0.78426 0.10611 0.85987 0.0
H803 H 0.79488 0.09413 0.88148 0.0
H804 H 0.83505 0.10259 0.8845 0.0
C805 C 0.84555 0.07707 0.9362 0.0
C806 C 0.82085 0.07297 0.90416 0.0
C807 C 0.8524 0.07097 0.94857 0.0
C808 C 0.79401 0.105 0.85858 0.0
C809 C 0.80012 0.09812 0.871 0.0
C810 C 0.83097 0.09428 0.88972 0.0
C811 C 0.83908 0.07067 0.92369 0.0
C812 C 0.83228 0.07729 0.90999 0.0
C813 C 0.81287 0.09679 0.87023 0.0
C814 C 0.81953 0.09 0.8839 0.0
H815 H 0.84663 0.04207 0.9363 0.0
H816 H 0.83466 0.05271 0.9147 0.0
H817 H 0.84609 0.09157 0.90651 0.0
H818 H 0.81847 0.11325 0.83371 0.0
H819 H 0.82906 0.10127 0.85523 0.0
C820 C 0.67531 0.04798 0.61142 0.0
C821 C 0.67129 0.05452 0.59699 0.0
C822 C 0.68221 0.0537 0.62405 0.0
C823 C 0.70134 0.08127 0.63244 0.0
H824 H 0.69416 0.07296 0.67958 0.0
C825 C 0.72166 0.1087 0.68828 0.0
C826 C 0.72533 0.10219 0.70293 0.0
C827 C 0.71526 0.10291 0.67521 0.0
C828 C 0.6964 0.07531 0.66649 0.0
H829 H 0.67175 0.0722 0.58442 0.0
H830 H 0.68358 0.08219 0.60651 0.0
H831 H 0.68292 0.06277 0.65714 0.0
H832 H 0.72535 0.08431 0.71494 0.0
H833 H 0.71421 0.07429 0.6923 0.0
H834 H 0.7148 0.09384 0.64184 0.0
C835 C 0.68147 0.0726 0.60803 0.0
C836 C 0.68995 0.06944 0.65358 0.0
C837 C 0.67455 0.06689 0.59543 0.0
C838 C 0.72247 0.08971 0.70406 0.0
C839 C 0.71607 0.08394 0.69102 0.0
C840 C 0.7078 0.08715 0.64537 0.0
C841 C 0.68531 0.06612 0.62261 0.0
C842 C 0.69232 0.07232 0.63636 0.0
C843 C 0.71235 0.09045 0.67642 0.0
C844 C 0.70543 0.08425 0.66259 0.0
H845 H 0.6729 0.03848 0.61317 0.0
H846 H 0.68513 0.04836 0.63496 0.0
H847 H 0.70356 0.08362 0.61935 0.0
H848 H 0.72355 0.11834 0.68702 0.0
H849 H 0.71242 0.10827 0.66427 0.0
C850 C 0.71269 0.92985 0.34994 0.0
C851 C 0.72549 0.93095 0.34834 0.0
C852 C 0.70655 0.93574 0.36286 0.0
C853 C 0.71 0.9614 0.39202 0.0
H854 H 0.68309 0.94543 0.41642 0.0
C855 C 0.67952 0.98698 0.43857 0.0
C856 C 0.67641 0.98103 0.45404 0.0
C857 C 0.68517 0.98078 0.42552 0.0
C858 C 0.69062 0.95001 0.40979 0.0
H859 H 0.74181 0.93922 0.35916 0.0
H860 H 0.73115 0.94933 0.38173 0.0
H861 H 0.69377 0.9347 0.39437 0.0
H862 H 0.67656 0.96375 0.46766 0.0
H863 H 0.68647 0.95298 0.44499 0.0
H864 H 0.70697 0.97664 0.40756 0.0
C865 C 0.72583 0.94398 0.37292 0.0
C866 C 0.69668 0.94389 0.39702 0.0
C867 C 0.73197 0.93804 0.36008 0.0
C868 C 0.67892 0.96866 0.45599 0.0
C869 C 0.68451 0.96245 0.44291 0.0
C870 C 0.70391 0.96753 0.40471 0.0
C871 C 0.71303 0.94295 0.37446 0.0
C872 C 0.70648 0.94948 0.38799 0.0
C873 C 0.6878 0.96844 0.42754 0.0
C874 C 0.69415 0.96192 0.41382 0.0
H875 H 0.7074 0.92439 0.34124 0.0
H876 H 0.69668 0.93481 0.36355 0.0
H877 H 0.71741 0.96605 0.38523 0.0
H878 H 0.67785 0.99652 0.43665 0.0
H879 H 0.68744 0.98567 0.41381 0.0
C880 C 0.72427 0.59872 0.34579 0.0
C881 C 0.72628 0.61123 0.34771 0.0
C882 C 0.71792 0.59174 0.35822 0.0
C883 C 0.70839 0.59197 0.40359 0.0
H884 H 0.68485 0.56719 0.39027 0.0
C885 C 0.67392 0.56957 0.45125 0.0
C886 C 0.67107 0.55716 0.44988 0.0
C887 C 0.68114 0.57572 0.43897 0.0
C888 C 0.69151 0.57396 0.39425 0.0
H889 H 0.7228 0.62619 0.36417 0.0
H890 H 0.71184 0.61409 0.38573 0.0
H891 H 0.69643 0.57866 0.36852 0.0
H892 H 0.6737 0.54151 0.4344 0.0
H893 H 0.68646 0.55218 0.41313 0.0
H894 H 0.70344 0.58733 0.4293 0.0
C895 C 0.71538 0.6096 0.37478 0.0
C896 C 0.69816 0.58055 0.38174 0.0
C897 C 0.72169 0.61656 0.36237 0.0
C898 C 0.67579 0.55103 0.43598 0.0
C899 C 0.68299 0.5572 0.42365 0.0
C900 C 0.70175 0.58538 0.41608 0.0
C901 C 0.71341 0.59709 0.37292 0.0
C902 C 0.70663 0.58972 0.38623 0.0
C903 C 0.68572 0.56965 0.42493 0.0
C904 C 0.69315 0.57634 0.4116 0.0
H905 H 0.72778 0.59425 0.3348 0.0
H906 H 0.71672 0.58211 0.35643 0.0
H907 H 0.71499 0.59879 0.40757 0.0
H908 H 0.67057 0.57457 0.46186 0.0
H909 H 0.68293 0.58532 0.44033 0.0
C910 C 0.67561 0.46879 0.59539 0.0
C911 C 0.67666 0.48149 0.59477 0.0
C912 C 0.68131 0.46204 0.60829 0.0
C913 C 0.69512 0.46445 0.65136 0.0
H914 H 0.71035 0.43453 0.63971 0.0
C915 C 0.72527 0.4375 0.69914 0.0
C916 C 0.72398 0.4248 0.69932 0.0
C917 C 0.71961 0.44458 0.68652 0.0
C918 C 0.70603 0.44279 0.64326 0.0
H919 H 0.68465 0.49701 0.60736 0.0
H920 H 0.69458 0.48527 0.62981 0.0
H921 H 0.70017 0.44644 0.61774 0.0
H922 H 0.71584 0.40966 0.68602 0.0
H923 H 0.70583 0.42195 0.66435 0.0
H924 H 0.70101 0.46078 0.67691 0.0
C925 C 0.68919 0.48051 0.62045 0.0
C926 C 0.70017 0.44964 0.63063 0.0
C927 C 0.68347 0.48726 0.60755 0.0
C928 C 0.71693 0.4194 0.68647 0.0
C929 C 0.7113 0.42646 0.67387 0.0
C930 C 0.701 0.4576 0.66401 0.0
C931 C 0.68825 0.46779 0.62096 0.0
C932 C 0.69458 0.46055 0.63449 0.0
C933 C 0.71255 0.43915 0.67369 0.0
C934 C 0.7065 0.44664 0.66016 0.0
H935 H 0.67029 0.46403 0.58595 0.0
H936 H 0.68018 0.45229 0.60842 0.0
H937 H 0.6908 0.47272 0.65489 0.0
H938 H 0.73054 0.44199 0.70888 0.0
H939 H 0.72089 0.45431 0.68671 0.0
C940 C 0.85009 0.48286 0.93878 0.0
C941 C 0.8436 0.48505 0.95378 0.0
C942 C 0.84465 0.47623 0.92569 0.0
C943 C 0.81416 0.46643 0.90927 0.0
H944 H 0.83275 0.44395 0.88334 0.0
C945 C 0.79089 0.43461 0.86107 0.0
C946 C 0.79687 0.43306 0.84548 0.0
C947 C 0.79679 0.44057 0.87438 0.0
C948 C 0.82745 0.45028 0.89034 0.0
H949 H 0.82641 0.48148 0.96692 0.0
H950 H 0.817 0.46996 0.94425 0.0
H951 H 0.84268 0.45503 0.90619 0.0
H952 H 0.81396 0.43633 0.83198 0.0
H953 H 0.82419 0.44684 0.85509 0.0
H954 H 0.79894 0.46171 0.89345 0.0
C955 C 0.8262 0.4736 0.94238 0.0
C956 C 0.83315 0.45666 0.90346 0.0
C957 C 0.83162 0.48022 0.95543 0.0
C958 C 0.80901 0.43746 0.84371 0.0
C959 C 0.81493 0.44339 0.85706 0.0
C960 C 0.80846 0.46006 0.89619 0.0
C961 C 0.83258 0.47159 0.92725 0.0
C962 C 0.82658 0.46481 0.91315 0.0
C963 C 0.80887 0.44513 0.87253 0.0
C964 C 0.815 0.45187 0.88655 0.0
H965 H 0.85929 0.48653 0.93696 0.0
H966 H 0.84983 0.47499 0.91417 0.0
H967 H 0.80884 0.4728 0.91619 0.0
H968 H 0.78151 0.43146 0.86287 0.0
H969 H 0.79187 0.4416 0.88617 0.0
C970 C 0.8497 0.54989 0.11385 0.0
C971 C 0.85291 0.55566 0.09829 0.0
C972 C 0.84288 0.55584 0.12599 0.0
C973 C 0.82252 0.5819 0.13174 0.0
H974 H 0.831 0.57714 0.17921 0.0
C975 C 0.80067 0.60933 0.18558 0.0
C976 C 0.79747 0.60289 0.20065 0.0
C977 C 0.80753 0.60392 0.17291 0.0
C978 C 0.82841 0.57849 0.16603 0.0
H979 H 0.85134 0.5723 0.08338 0.0
H980 H 0.83948 0.58268 0.10455 0.0
H981 H 0.8425 0.56703 0.15752 0.0
H982 H 0.7993 0.58573 0.21425 0.0
H983 H 0.81102 0.57629 0.19219 0.0
H984 H 0.80843 0.5934 0.14034 0.0
C985 C 0.84211 0.57347 0.10728 0.0
C986 C 0.83501 0.57266 0.15355 0.0
C987 C 0.84892 0.5675 0.09511 0.0
C988 C 0.80143 0.59094 0.20275 0.0
C989 C 0.8083 0.58556 0.19015 0.0
C990 C 0.81592 0.58776 0.14425 0.0
C991 C 0.83908 0.56776 0.12297 0.0
C992 C 0.83212 0.5742 0.13622 0.0
C993 C 0.81144 0.59194 0.17503 0.0
C994 C 0.81872 0.58607 0.16159 0.0
H995 H 0.85242 0.54071 0.11665 0.0
H996 H 0.84052 0.55103 0.13773 0.0
H997 H 0.81992 0.58322 0.11857 0.0
H998 H 0.79772 0.61851 0.18346 0.0
H999 H 0.80986 0.60916 0.16152 0.0
C1000 C 0.34463 0.4711 0.59506 0.0
C1001 C 0.34401 0.48378 0.59491 0.0
C1002 C 0.33904 0.46403 0.60805 0.0
C1003 C 0.32654 0.46544 0.65191 0.0
H1004 H 0.30918 0.43592 0.63979 0.0
C1005 C 0.29542 0.438 0.69969 0.0
C1006 C 0.29562 0.4253 0.69919 0.0
C1007 C 0.30149 0.44522 0.68726 0.0
C1008 C 0.3141 0.44405 0.64347 0.0
H1009 H 0.33727 0.49896 0.60871 0.0
H1010 H 0.32739 0.48667 0.63117 0.0
H1011 H 0.31957 0.4482 0.61782 0.0
H1012 H 0.3028 0.41031 0.68541 0.0
H1013 H 0.31332 0.42282 0.66386 0.0
H1014 H 0.32104 0.46129 0.67758 0.0
C1015 C 0.33226 0.48216 0.62129 0.0
C1016 C 0.32008 0.45111 0.63083 0.0
C1017 C 0.33782 0.48921 0.60828 0.0
C1018 C 0.30219 0.42004 0.68604 0.0
C1019 C 0.30825 0.42724 0.67364 0.0
C1020 C 0.32056 0.45837 0.66457 0.0
C1021 C 0.3327 0.46946 0.62129 0.0
C1022 C 0.3264 0.4619 0.63486 0.0
C1023 C 0.30794 0.43993 0.674 0.0
C1024 C 0.31427 0.44756 0.66053 0.0
H1025 H 0.34921 0.46658 0.58492 0.0
H1026 H 0.33971 0.4543 0.60771 0.0
H1027 H 0.33144 0.4736 0.65555 0.0
H1028 H 0.29035 0.44239 0.7095 0.0
H1029 H 0.30092 0.45495 0.68787 0.0
C1030 C 0.30446 0.60193 0.34447 0.0
C1031 C 0.29686 0.61123 0.34964 0.0
C1032 C 0.31063 0.59477 0.35648 0.0
C1033 C 0.32144 0.59482 0.40123 0.0
H1034 H 0.3255 0.56055 0.39477 0.0
C1035 C 0.34367 0.56415 0.45277 0.0
C1036 C 0.35188 0.55551 0.44721 0.0
C1037 C 0.33642 0.57055 0.44112 0.0
C1038 C 0.32456 0.57013 0.39671 0.0
H1039 H 0.28947 0.61989 0.37167 0.0
H1040 H 0.30018 0.60744 0.39252 0.0
H1041 H 0.31395 0.57236 0.37401 0.0
H1042 H 0.35854 0.54659 0.42494 0.0
H1043 H 0.34611 0.55786 0.40468 0.0
H1044 H 0.33212 0.59264 0.42384 0.0
C1045 C 0.30159 0.60583 0.37916 0.0
C1046 C 0.31793 0.57692 0.38477 0.0
C1047 C 0.29543 0.61299 0.36717 0.0
C1048 C 0.35245 0.55328 0.4297 0.0
C1049 C 0.3452 0.55966 0.41807 0.0
C1050 C 0.32808 0.58804 0.41315 0.0
C1051 C 0.30937 0.59669 0.374 0.0
C1052 C 0.31629 0.58937 0.38683 0.0
C1053 C 0.33715 0.56846 0.42358 0.0
C1054 C 0.32977 0.57561 0.41105 0.0
H1055 H 0.30591 0.6004 0.3311 0.0
H1056 H 0.31665 0.58792 0.352 0.0
H1057 H 0.32058 0.60442 0.40312 0.0
H1058 H 0.34303 0.56619 0.46611 0.0
H1059 H 0.33022 0.57714 0.44589 0.0
C1060 C 0.22502 0.60636 0.18852 0.0
C1061 C 0.2259 0.60081 0.20475 0.0
C1062 C 0.21823 0.60084 0.17558 0.0
C1063 C 0.19369 0.57755 0.16856 0.0
H1064 H 0.20631 0.57775 0.12255 0.0
C1065 C 0.17171 0.54763 0.11721 0.0
C1066 C 0.17048 0.5526 0.10068 0.0
C1067 C 0.17861 0.55367 0.12951 0.0
C1068 C 0.20257 0.57771 0.13528 0.0
H1069 H 0.21997 0.58518 0.2201 0.0
H1070 H 0.20837 0.57551 0.19761 0.0
H1071 H 0.2178 0.58816 0.14465 0.0
H1072 H 0.17572 0.56787 0.08421 0.0
H1073 H 0.18777 0.57839 0.10565 0.0
H1074 H 0.17848 0.56711 0.15925 0.0
C1075 C 0.21286 0.58417 0.19484 0.0
C1076 C 0.20917 0.58371 0.14798 0.0
C1077 C 0.21966 0.58967 0.20772 0.0
C1078 C 0.17657 0.56368 0.09672 0.0
C1079 C 0.18348 0.56973 0.10905 0.0
C1080 C 0.1871 0.57157 0.15588 0.0
C1081 C 0.21206 0.58965 0.17857 0.0
C1082 C 0.20486 0.58364 0.16483 0.0
C1083 C 0.1845 0.56487 0.12568 0.0
C1084 C 0.19148 0.57148 0.13908 0.0
H1085 H 0.22976 0.61489 0.1857 0.0
H1086 H 0.21773 0.60539 0.16327 0.0
H1087 H 0.18994 0.57749 0.18129 0.0
H1088 H 0.16736 0.53901 0.12066 0.0
H1089 H 0.17939 0.54949 0.14204 0.0
C1090 C 0.18902 0.47591 0.95896 0.0
C1091 C 0.17787 0.48167 0.95597 0.0
C1092 C 0.19485 0.4698 0.94601 0.0
C1093 C 0.18953 0.45598 0.90395 0.0
H1094 H 0.22484 0.45872 0.90051 0.0
C1095 C 0.21737 0.42736 0.8574 0.0
C1096 C 0.22739 0.4331 0.84902 0.0
C1097 C 0.2112 0.43313 0.87041 0.0
C1098 C 0.21497 0.45791 0.90118 0.0
H1099 H 0.16407 0.48529 0.93684 0.0
H1100 H 0.17435 0.47485 0.91419 0.0
H1101 H 0.21434 0.46917 0.92285 0.0
H1102 H 0.23848 0.44964 0.84761 0.0
H1103 H 0.2278 0.45962 0.87021 0.0
H1104 H 0.19017 0.44491 0.88204 0.0
C1105 C 0.17853 0.47495 0.92665 0.0
C1106 C 0.20894 0.4638 0.91416 0.0
C1107 C 0.1727 0.48108 0.93962 0.0
C1108 C 0.231 0.4448 0.85397 0.0
C1109 C 0.22484 0.45055 0.86697 0.0
C1110 C 0.19557 0.45007 0.89097 0.0
C1111 C 0.18973 0.46927 0.92964 0.0
C1112 C 0.19613 0.46294 0.91575 0.0
C1113 C 0.21487 0.4448 0.87541 0.0
C1114 C 0.20838 0.45097 0.88937 0.0
H1115 H 0.19339 0.47628 0.97129 0.0
H1116 H 0.20337 0.46543 0.9489 0.0
H1117 H 0.17967 0.45499 0.90484 0.0
H1118 H 0.2144 0.41831 0.85411 0.0
H1119 H 0.20367 0.42834 0.87675 0.0
C1120 C 0.96516 0.01821 0.01608 0.0
C1121 C 0.95878 0.01604 0.03144 0.0
C1122 C 0.97799 0.01846 0.01572 0.0
C1123 C 1.00518 0.02211 0.04372 0.0
H1124 H 0.02244 1.0073 1.00698 0.0
C1125 C 0.05702 0.01359 0.04719 0.0
C1126 C 0.06409 0.01552 0.03238 0.0
C1127 C 0.04424 0.01399 0.04659 0.0
C1128 C 0.01778 0.01162 0.01723 0.0
H1129 H 0.96106 0.01211 0.05838 0.0
H1130 H 0.98329 0.01259 0.05774 0.0
H1131 H 1.00012 1.0074 1.00678 0.0
H1132 H 0.06309 0.01946 1.0053 0.0
H1133 H 0.0408 0.02013 1.00426 0.0
H1134 H 0.0228 0.02628 0.05423 0.0
C1135 C 0.9784 0.01434 0.04601 0.0
C1136 C 1.00496 0.01167 0.01712 0.0
C1137 C 0.9656 0.01407 0.04637 0.0
C1138 C 0.05797 0.01779 0.01693 0.0
C1139 C 0.04517 0.01818 0.01633 0.0
C1140 C 0.01798 0.02205 0.04384 0.0
C1141 C 0.98479 0.01656 0.03069 0.0
C1142 C 0.99847 0.01684 0.03044 0.0
C1143 C 0.03813 0.01631 0.03118 0.0
C1144 C 0.02447 0.01672 0.03067 0.0
H1145 H 0.96025 0.0199 1.00436 0.0
H1146 H 0.98258 0.02034 1.00372 0.0
H1147 H 1.00054 0.02639 0.05403 0.0
H1148 H 0.06133 0.01155 0.05926 0.0
H1149 H 0.03915 0.01227 0.05823 0.0
C1150 C 0.24926 0.72242 0.25748 0.0
C1151 C 0.25751 0.71493 0.26622 0.0
C1152 C 0.24983 0.73499 0.25916 0.0
C1153 C 0.26166 0.75914 0.28716 0.0
H1154 H 0.25632 0.77989 0.24756 0.0
C1155 C 0.25631 0.81085 0.29248 0.0
C1156 C 0.26191 0.81844 0.27998 0.0
C1157 C 0.2557 0.79829 0.29067 0.0
C1158 C 0.25792 0.77425 0.25874 0.0
H1159 H 0.2729 0.71498 0.28358 0.0
H1160 H 0.27388 0.73688 0.28656 0.0
H1161 H 0.25573 0.758 0.24473 0.0
H1162 H 0.27128 0.81862 0.25571 0.0
H1163 H 0.27022 0.79674 0.25254 0.0
H1164 H 0.26407 0.7754 0.30111 0.0
C1165 C 0.26686 0.73299 0.27853 0.0
C1166 C 0.25744 0.76166 0.25716 0.0
C1167 C 0.26629 0.7204 0.27682 0.0
C1168 C 0.26675 0.81311 0.26549 0.0
C1169 C 0.26615 0.80053 0.26368 0.0
C1170 C 0.26212 0.77174 0.28875 0.0
C1171 C 0.25866 0.74047 0.26967 0.0
C1172 C 0.25929 0.75392 0.27135 0.0
C1173 C 0.26068 0.79293 0.2763 0.0
C1174 C 0.26024 0.77948 0.27457 0.0
H1175 H 0.24221 0.71855 0.24946 0.0
H1176 H 0.24322 0.7404 0.25239 0.0
H1177 H 0.26302 0.7535 0.29841 0.0
H1178 H 0.25229 0.81462 0.30367 0.0
H1179 H 0.25121 0.79278 0.3005 0.0
C1180 C 0.46577 0.02549 0.50822 0.0
C1181 C 0.4586 0.01758 0.51864 0.0
C1182 C 0.47855 0.02568 0.50933 0.0
C1183 C 0.50442 1.00692 0.52359 0.0
H1184 H 0.52311 0.03702 0.5182 0.0
C1185 C 0.55729 1.00907 0.53012 0.0
C1186 C 0.56379 0.01641 0.51816 0.0
C1187 C 0.54452 1.00951 0.53128 0.0
C1188 C 0.51805 0.02851 0.51958 0.0
H1189 H 0.45942 1.00373 0.53857 0.0
H1190 H 0.48168 1.00421 0.54073 0.0
H1191 H 0.50084 0.03729 0.51837 0.0
H1192 H 0.56185 0.03024 0.49839 0.0
H1193 H 0.53965 0.03089 0.50025 0.0
H1194 H 0.52164 0.99814 0.52467 0.0
C1195 C 0.4774 1.01019 0.53152 0.0
C1196 C 0.50525 0.02866 0.51968 0.0
C1197 C 0.4646 1.01001 0.53043 0.0
C1198 C 0.55717 0.02435 0.50762 0.0
C1199 C 0.54442 0.02482 0.50882 0.0
C1200 C 0.51723 1.00677 0.52351 0.0
C1201 C 0.48457 0.01796 0.52089 0.0
C1202 C 0.49824 0.01786 0.52154 0.0
C1203 C 0.53789 0.01734 0.52057 0.0
C1204 C 0.52423 0.01756 0.52137 0.0
H1205 H 0.46149 0.03155 0.49913 0.0
H1206 H 0.48372 0.03171 0.50081 0.0
H1207 H 0.49937 0.99839 0.5248 0.0
H1208 H 0.56205 1.00276 0.53834 0.0
H1209 H 0.53984 1.00371 0.54061 0.0
C1210 C 0.24961 0.31169 0.79036 0.0
C1211 C 0.25789 0.31984 0.7821 0.0
C1212 C 0.25039 0.2992 0.78834 0.0
C1213 C 0.26309 0.27623 0.7601 0.0
H1214 H 0.25729 0.25462 0.79898 0.0
C1215 C 0.25847 0.22432 0.75325 0.0
C1216 C 0.26386 0.21689 0.7658 0.0
C1217 C 0.25772 0.23681 0.75535 0.0
C1218 C 0.25903 0.26051 0.788 0.0
H1219 H 0.27354 0.32106 0.7652 0.0
H1220 H 0.27489 0.29928 0.76164 0.0
H1221 H 0.25635 0.27641 0.80235 0.0
H1222 H 0.2727 0.21693 0.79045 0.0
H1223 H 0.27141 0.2387 0.79411 0.0
H1224 H 0.26599 0.26034 0.74583 0.0
C1225 C 0.26768 0.30259 0.76956 0.0
C1226 C 0.25834 0.27303 0.78989 0.0
C1227 C 0.2669 0.3151 0.7716 0.0
C1228 C 0.26834 0.22232 0.78062 0.0
C1229 C 0.26761 0.23483 0.78271 0.0
C1230 C 0.26375 0.2637 0.75821 0.0
C1231 C 0.25947 0.29445 0.77796 0.0
C1232 C 0.26034 0.28108 0.77596 0.0
C1233 C 0.26234 0.24227 0.77006 0.0
C1234 C 0.26171 0.25565 0.77213 0.0
H1235 H 0.24238 0.31498 0.79829 0.0
H1236 H 0.24375 0.29326 0.79475 0.0
H1237 H 0.26457 0.28211 0.74905 0.0
H1238 H 0.25471 0.22046 0.74181 0.0
H1239 H 0.25339 0.24218 0.74547 0.0
C1240 C 0.75605 0.31248 0.79132 0.0
C1241 C 0.7628 0.31995 0.77979 0.0
C1242 C 0.75558 0.2999 0.78965 0.0
C1243 C 0.77211 0.2748 0.77024 0.0
H1244 H 0.742 0.25654 0.77932 0.0
C1245 C 0.76658 0.22379 0.75585 0.0
C1246 C 0.75985 0.21632 0.76738 0.0
C1247 C 0.76706 0.23637 0.75752 0.0
C1248 C 0.75053 0.26147 0.77694 0.0
H1249 H 0.77432 0.31991 0.75739 0.0
H1250 H 0.77332 0.29801 0.75431 0.0
H1251 H 0.74241 0.27848 0.78158 0.0
H1252 H 0.74835 0.21636 0.78981 0.0
H1253 H 0.74935 0.23825 0.79289 0.0
H1254 H 0.78023 0.25779 0.7656 0.0
C1255 C 0.76849 0.30188 0.76478 0.0
C1256 C 0.75077 0.27408 0.77822 0.0
C1257 C 0.76894 0.31448 0.76642 0.0
C1258 C 0.75372 0.22179 0.78077 0.0
C1259 C 0.75417 0.23438 0.78241 0.0
C1260 C 0.77188 0.26219 0.76896 0.0
C1261 C 0.76185 0.2944 0.77642 0.0
C1262 C 0.76156 0.28094 0.7749 0.0
C1263 C 0.7608 0.24187 0.77076 0.0
C1264 C 0.76108 0.25533 0.77229 0.0
H1265 H 0.75109 0.31636 0.80167 0.0
H1266 H 0.75045 0.29446 0.79895 0.0
H1267 H 0.78065 0.27973 0.76787 0.0
H1268 H 0.77153 0.21992 0.74549 0.0
H1269 H 0.77217 0.24181 0.74821 0.0
C1270 C 0.76742 0.81401 0.27 0.0
C1271 C 0.75856 0.81871 0.28079 0.0
C1272 C 0.76821 0.8015 0.26792 0.0
C1273 C 0.75927 0.77193 0.28855 0.0
H1274 H 0.76628 0.75921 0.24429 0.0
C1275 C 0.7691 0.72121 0.27915 0.0
C1276 C 0.76439 0.71575 0.2645 0.0
C1277 C 0.76843 0.73373 0.28119 0.0
C1278 C 0.76422 0.76258 0.25673 0.0
H1279 H 0.74333 0.81379 0.29743 0.0
H1280 H 0.74471 0.79209 0.29383 0.0
H1281 H 0.76487 0.78098 0.24753 0.0
H1282 H 0.75494 0.71927 0.24073 0.0
H1283 H 0.75373 0.74101 0.2443 0.0
H1284 H 0.75837 0.75352 0.29769 0.0
C1285 C 0.75123 0.79805 0.28722 0.0
C1286 C 0.76356 0.77511 0.25863 0.0
C1287 C 0.75044 0.81054 0.28929 0.0
C1288 C 0.75887 0.72315 0.25204 0.0
C1289 C 0.75819 0.73566 0.25408 0.0
C1290 C 0.75994 0.7594 0.28665 0.0
C1291 C 0.76016 0.79333 0.27657 0.0
C1292 C 0.76104 0.77997 0.27456 0.0
C1293 C 0.76301 0.74115 0.26865 0.0
C1294 C 0.76239 0.75454 0.27071 0.0
H1295 H 0.77393 0.81999 0.2634 0.0
H1296 H 0.77531 0.79822 0.25978 0.0
H1297 H 0.75745 0.77531 0.30105 0.0
H1298 H 0.77358 0.71585 0.28891 0.0
H1299 H 0.7724 0.73763 0.29247 0.0
C1300 C 0.46446 0.52535 0.53149 0.0
C1301 C 0.4579 0.51487 0.52669 0.0
C1302 C 0.47727 0.52593 0.53067 0.0
C1303 C 0.50399 0.51133 0.51123 0.0
H1304 H 0.52196 0.52553 0.54854 0.0
C1305 C 0.5559 0.50474 0.52079 0.0
C1306 C 0.56309 0.51444 0.52687 0.0
C1307 C 0.54316 0.50544 0.51987 0.0
C1308 C 0.51711 0.52168 0.53788 0.0
H1309 H 0.45977 0.49691 0.51677 0.0
H1310 H 0.48202 0.49784 0.51558 0.0
H1311 H 0.49968 0.52561 0.54851 0.0
H1312 H 0.56238 0.53256 0.53661 0.0
H1313 H 0.54017 0.53386 0.53475 0.0
H1314 H 0.52142 0.50731 0.50067 0.0
C1315 C 0.47728 0.50567 0.51989 0.0
C1316 C 0.5043 0.52173 0.53787 0.0
C1317 C 0.46449 0.50508 0.52076 0.0
C1318 C 0.55717 0.52495 0.53173 0.0
C1319 C 0.5444 0.52564 0.53085 0.0
C1320 C 0.5168 0.51129 0.51124 0.0
C1321 C 0.48387 0.51606 0.52496 0.0
C1322 C 0.49755 0.51647 0.52461 0.0
C1323 C 0.5372 0.51586 0.52502 0.0
C1324 C 0.52355 0.51638 0.52463 0.0
H1325 H 0.45972 0.53304 0.53626 0.0
H1326 H 0.482 0.53413 0.5345 0.0
H1327 H 0.49913 0.50738 0.50066 0.0
H1328 H 0.56013 0.49656 0.51673 0.0
H1329 H 0.53795 0.49768 0.51546 0.0
C1330 C 0.96536 0.52711 1.00568 0.0
C1331 C 0.95838 0.51895 0.01595 0.0
C1332 C 0.97815 0.52733 1.00645 0.0
C1333 C 1.00454 0.51772 0.03302 0.0
H1334 H 0.02231 0.52148 0.99054 0.0
C1335 C 0.05687 0.51031 0.02783 0.0
C1336 C 0.06367 0.51793 0.01655 0.0
C1337 C 0.04408 0.51078 0.02844 0.0
C1338 C 0.01753 0.52058 1.00256 0.0
H1339 H 0.95951 0.50468 0.03525 0.0
H1340 H 0.98181 0.50506 0.03658 0.0
H1341 H 1.00008 0.52169 0.99042 0.0
H1342 H 0.06225 0.53238 0.99756 0.0
H1343 H 0.04004 0.53323 0.99867 0.0
H1344 H 0.02205 0.51655 0.04513 0.0
C1345 C 0.97737 0.51141 0.02805 0.0
C1346 C 1.00474 0.5207 1.00249 0.0
C1347 C 0.96456 0.51119 0.02729 0.0
C1348 C 0.05733 0.52621 1.00618 0.0
C1349 C 0.04456 0.52668 1.0068 0.0
C1350 C 0.01737 0.5176 0.03309 0.0
C1351 C 0.98436 0.5194 0.0175 0.0
C1352 C 0.99804 0.5193 0.01771 0.0
C1353 C 0.03773 0.51889 0.0178 0.0
C1354 C 0.02405 0.51905 0.01785 0.0
H1355 H 0.96094 0.53338 0.99703 0.0
H1356 H 0.98319 0.53379 0.99839 0.0
H1357 H 0.99973 0.51676 0.04501 0.0
H1358 H 0.06141 0.50371 0.03585 0.0
H1359 H 0.03915 0.50453 0.03693 0.0
loop_
_geom_bond_atom_site_label_1
_geom_bond_atom_site_label_2
_geom_bond_distance
_geom_bond_site_symmetry_2
_ccdc_geom_bond_type
C0 C1 1.264 . S
C0 C5 1.479 1_545 S
C0 C10 1.465 . S
C1 C0 1.264 . S
C1 C3 1.339 . S
C1 H28 0.931 1_554 S
C2 C3 1.395 . S
C2 C4 1.320 1_545 S
C3 C1 1.339 . S
C3 C2 1.395 . S
C3 H29 0.929 1_554 S
C4 C2 1.320 1_565 S
C4 C5 1.405 . S
C4 H30 0.930 . S
C5 C0 1.479 1_565 S
C5 C4 1.405 . S
C5 H31 0.931 . S
U6 O7 2.454 1_545 S
U6 O8 2.458 1_545 S
U6 C9 2.984 1_545 S
U6 C10 2.847 . S
U6 C23 2.882 1_554 S
U6 O24 2.457 . S
U6 O25 2.420 . S
U6 O26 2.455 . S
U6 O27 2.449 1_554 S
O7 U6 2.454 1_565 S
O7 C9 1.353 . S
O8 U6 2.458 1_565 S
O8 C9 1.286 . S
C9 U6 2.984 1_565 S
C9 O7 1.353 . S
C9 O8 1.286 . S
C9 C11 1.363 . S
C10 C0 1.465 . S
C10 U6 2.847 . S
C10 O24 1.286 . S
C10 O25 1.202 . S
C11 C9 1.363 . S
C11 C13 1.408 . S
C11 C16 1.342 . S
C12 C13 1.310 . S
C12 C15 1.461 . S
C12 H32 0.932 . S
C13 C11 1.408 . S
C13 C12 1.310 . S
C13 H33 0.930 . S
C14 C15 1.474 . S
C14 C16 1.285 . S
C14 H34 0.929 . S
C15 C12 1.461 . S
C15 C14 1.474 . S
C16 C11 1.342 . S
C16 C14 1.285 . S
C16 H35 0.930 . S
C17 C20 1.424 . S
C17 C22 1.245 . S
C17 C23 1.428 . S
C18 C21 1.260 . S
C18 C22 1.477 . S
C18 H36 0.932 . S
C19 C20 1.384 . S
C19 C21 1.479 . S
C19 H37 0.929 . S
C20 C17 1.424 . S
C20 C19 1.384 . S
C20 H38 0.928 . S
C21 C18 1.260 . S
C21 C19 1.479 . S
C22 C17 1.245 . S
C22 C18 1.477 . S
C22 H39 0.932 . S
C23 U6 2.882 1_556 S
C23 C17 1.428 . S
C23 O26 1.301 1_556 S
C23 O27 1.282 . S
O24 U6 2.457 . S
O24 C10 1.286 . S
O25 U6 2.420 . S
O25 C10 1.202 . S
O26 U6 2.455 . S
O26 C23 1.301 1_554 S
O27 U6 2.449 1_556 S
O27 C23 1.282 . S
H28 C1 0.931 1_556 S
H29 C3 0.929 1_556 S
H30 C4 0.930 . S
H31 C5 0.931 . S
H32 C12 0.932 . S
H33 C13 0.930 . S
H34 C14 0.929 . S
H35 C16 0.930 . S
H36 C18 0.932 . S
H37 C19 0.929 . S
H38 C20 0.928 . S
H39 C22 0.932 . S
C40 C41 1.264 . S
C40 C45 1.479 . S
C40 C50 1.465 . S
C41 C40 1.264 . S
C41 C43 1.339 . S
C41 H68 0.931 . S
C42 C43 1.395 . S
C42 C44 1.320 . S
C43 C41 1.339 . S
C43 C42 1.395 . S
C43 H69 0.929 . S
C44 C42 1.320 . S
C44 C45 1.405 . S
C44 H70 0.930 . S
C45 C40 1.479 . S
C45 C44 1.405 . S
C45 H71 0.931 . S
U46 O47 2.454 . S
U46 O48 2.458 . S
U46 C49 2.984 . S
U46 C50 2.847 . S
U46 C63 2.882 . S
U46 O64 2.441 . S
U46 O65 2.420 . S
U46 O66 2.455 . S
U46 O67 2.449 . S
O47 U46 2.454 . S
O47 C49 1.353 . S
O48 U46 2.458 . S
O48 C49 1.286 . S
C49 U46 2.984 . S
C49 O47 1.353 . S
C49 O48 1.286 . S
C49 C51 1.363 . S
C50 C40 1.465 . S
C50 U46 2.847 . S
C50 O64 1.249 . S
C50 O65 1.202 . S
C51 C49 1.363 . S
C51 C53 1.408 . S
C51 C56 1.342 . S
C52 C53 1.310 . S
C52 C55 1.461 . S
C52 H72 0.932 . S
C53 C51 1.408 . S
C53 C52 1.310 . S
C53 H73 0.930 . S
C54 C55 1.474 . S
C54 C56 1.285 . S
C54 H74 0.929 . S
C55 C52 1.461 . S
C55 C54 1.474 . S
C56 C51 1.342 . S
C56 C54 1.285 . S
C56 H75 0.930 . S
C57 C60 1.424 . S
C57 C62 1.245 . S
C57 C63 1.428 . S
C58 C61 1.260 . S
C58 C62 1.477 . S
C58 H76 0.932 . S
C59 C60 1.384 . S
C59 C61 1.479 . S
C59 H77 0.929 . S
C60 C57 1.424 . S
C60 C59 1.384 . S
C60 H78 0.928 . S
C61 C58 1.260 . S
C61 C59 1.479 . S
C62 C57 1.245 . S
C62 C58 1.477 . S
C62 H79 0.932 . S
C63 U46 2.882 . S
C63 C57 1.428 . S
C63 O66 1.301 . S
C63 O67 1.282 . S
O64 U46 2.441 . S
O64 C50 1.249 . S
O65 U46 2.420 . S
O65 C50 1.202 . S
O66 U46 2.455 . S
O66 C63 1.301 . S
O67 U46 2.449 . S
O67 C63 1.282 . S
H68 C41 0.931 . S
H69 C43 0.929 . S
H70 C44 0.930 . S
H71 C45 0.931 . S
H72 C52 0.932 . S
H73 C53 0.930 . S
H74 C54 0.929 . S
H75 C56 0.930 . S
H76 C58 0.932 . S
H77 C59 0.929 . S
H78 C60 0.928 . S
H79 C62 0.932 . S
C80 C81 1.264 . S
C80 C85 1.479 . S
C80 C90 1.465 1_565 S
C81 C80 1.264 . S
C81 C83 1.339 . S
C81 H108 0.931 . S
C82 C83 1.395 . S
C82 C84 1.320 . S
C83 C81 1.339 . S
C83 C82 1.395 . S
C83 H109 0.929 . S
C84 C82 1.320 . S
C84 C85 1.405 . S
C84 H110 0.930 . S
C85 C80 1.479 . S
C85 C84 1.405 . S
C85 H111 0.927 1_565 S
U86 O87 2.454 . S
U86 O88 2.458 . S
U86 C89 2.984 . S
U86 C90 2.847 . S
U86 C103 2.882 . S
U86 O104 2.441 . S
U86 O105 2.420 . S
U86 O106 2.455 . S
U86 O107 2.449 . S
O87 U86 2.454 . S
O87 C89 1.353 . S
O88 U86 2.458 . S
O88 C89 1.286 . S
C89 U86 2.984 . S
C89 O87 1.353 . S
C89 O88 1.286 . S
C89 C91 1.363 . S
C90 C80 1.465 1_545 S
C90 U86 2.847 . S
C90 O104 1.249 . S
C90 O105 1.202 . S
C91 C89 1.363 . S
C91 C93 1.408 . S
C91 C96 1.342 . S
C92 C93 1.310 . S
C92 C95 1.461 . S
C92 H112 0.932 . S
C93 C91 1.408 . S
C93 C92 1.310 . S
C93 H113 0.930 . S
C94 C95 1.474 . S
C94 C96 1.285 . S
C94 H114 0.929 . S
C95 C92 1.461 . S
C95 C94 1.474 . S
C96 C91 1.342 . S
C96 C94 1.285 . S
C96 H115 0.930 . S
C97 C100 1.424 . S
C97 C102 1.245 . S
C97 C103 1.428 . S
C98 C101 1.260 . S
C98 C102 1.477 . S
C98 H116 0.932 . S
C99 C100 1.384 . S
C99 C101 1.479 . S
C99 H117 0.929 . S
C100 C97 1.424 . S
C100 C99 1.384 . S
C100 H118 0.928 . S
C101 C98 1.260 . S
C101 C99 1.479 . S
C102 C97 1.245 . S
C102 C98 1.477 . S
C102 H119 0.932 . S
C103 U86 2.882 . S
C103 C97 1.428 . S
C103 O106 1.301 . S
C103 O107 1.282 . S
O104 U86 2.441 . S
O104 C90 1.249 . S
O105 U86 2.420 . S
O105 C90 1.202 . S
O106 U86 2.455 . S
O106 C103 1.301 . S
O107 U86 2.449 . S
O107 C103 1.282 . S
H108 C81 0.931 . S
H109 C83 0.929 . S
H110 C84 0.930 . S
H111 C85 0.927 1_545 S
H112 C92 0.932 . S
H113 C93 0.930 . S
H114 C94 0.929 . S
H115 C96 0.930 . S
H116 C98 0.932 . S
H117 C99 0.929 . S
H118 C100 0.928 . S
H119 C102 0.932 . S
C120 C121 1.264 . S
C120 C125 1.479 . S
C120 C130 1.465 . S
C121 C120 1.264 . S
C121 C123 1.339 . S
C121 H148 0.931 . S
C122 C123 1.395 . S
C122 C124 1.320 . S
C123 C121 1.339 . S
C123 C122 1.395 . S
C123 H149 0.929 . S
C124 C122 1.320 . S
C124 C125 1.405 . S
C124 H150 0.930 . S
C125 C120 1.479 . S
C125 C124 1.405 . S
C125 H151 0.931 . S
U126 O127 2.454 . S
U126 O128 2.458 . S
U126 C129 2.984 . S
U126 C130 2.847 . S
U126 C143 2.882 . S
U126 O144 2.441 . S
U126 O145 2.420 . S
U126 O146 2.455 . S
U126 O147 2.449 . S
O127 U126 2.454 . S
O127 C129 1.353 . S
O128 U126 2.458 . S
O128 C129 1.286 . S
C129 U126 2.984 . S
C129 O127 1.353 . S
C129 O128 1.286 . S
C129 C131 1.363 . S
C130 C120 1.465 . S
C130 U126 2.847 . S
C130 O144 1.249 . S
C130 O145 1.202 . S
C131 C129 1.363 . S
C131 C133 1.408 . S
C131 C136 1.342 . S
C132 C133 1.310 . S
C132 C135 1.461 . S
C132 H152 0.932 . S
C133 C131 1.408 . S
C133 C132 1.310 . S
C133 H153 0.930 . S
C134 C135 1.474 . S
C134 C136 1.285 . S
C134 H154 0.929 . S
C135 C132 1.461 . S
C135 C134 1.474 . S
C136 C131 1.342 . S
C136 C134 1.285 . S
C136 H155 0.930 . S
C137 C140 1.424 . S
C137 C142 1.245 . S
C137 C143 1.428 . S
C138 C141 1.260 . S
C138 C142 1.477 . S
C138 H156 0.932 . S
C139 C140 1.384 . S
C139 C141 1.479 . S
C139 H157 0.929 . S
C140 C137 1.424 . S
C140 C139 1.384 . S
C140 H158 0.928 . S
C141 C138 1.260 . S
C141 C139 1.479 . S
C142 C137 1.245 . S
C142 C138 1.477 . S
C142 H159 0.932 . S
C143 U126 2.882 . S
C143 C137 1.428 . S
C143 O146 1.301 . S
C143 O147 1.282 . S
O144 U126 2.441 . S
O144 C130 1.249 . S
O145 U126 2.420 . S
O145 C130 1.202 . S
O146 U126 2.455 . S
O146 C143 1.301 . S
O147 U126 2.449 . S
O147 C143 1.282 . S
H148 C121 0.931 . S
H149 C123 0.929 . S
H150 C124 0.930 . S
H151 C125 0.931 . S
H152 C132 0.932 . S
H153 C133 0.930 . S
H154 C134 0.929 . S
H155 C136 0.930 . S
H156 C138 0.932 . S
H157 C139 0.929 . S
H158 C140 0.928 . S
H159 C142 0.932 . S
C160 C161 1.264 . S
C160 C165 1.479 . S
C160 C170 1.465 . S
C161 C160 1.264 . S
C161 C163 1.339 . S
C161 H188 0.931 . S
C162 C163 1.395 . S
C162 C164 1.320 . S
C163 C161 1.339 . S
C163 C162 1.395 . S
C163 H189 0.929 . S
C164 C162 1.320 . S
C164 C165 1.405 . S
C164 H190 0.930 . S
C165 C160 1.479 . S
C165 C164 1.405 . S
C165 H191 0.931 . S
U166 O167 2.432 1_554 S
U166 O168 2.458 1_554 S
U166 C169 2.984 1_554 S
U166 C170 2.847 1_545 S
U166 C183 2.882 . S
U166 O184 2.428 1_545 S
U166 O185 2.420 1_545 S
U166 O186 2.455 1_554 S
U166 O187 2.449 1_545 S
O167 U166 2.432 1_556 S
O167 C169 1.401 . S
O168 U166 2.458 1_556 S
O168 C169 1.286 . S
C169 U166 2.984 1_556 S
C169 O167 1.401 . S
C169 O168 1.286 . S
C169 C171 1.363 . S
C170 C160 1.465 . S
C170 U166 2.847 1_565 S
C170 O184 1.281 . S
C170 O185 1.202 . S
C171 C169 1.363 . S
C171 C173 1.408 . S
C171 C176 1.342 . S
C172 C173 1.310 . S
C172 C175 1.461 . S
C172 H192 0.932 . S
C173 C171 1.408 . S
C173 C172 1.310 . S
C173 H193 0.930 . S
C174 C175 1.474 . S
C174 C176 1.285 . S
C174 H194 0.929 . S
C175 C172 1.461 . S
C175 C174 1.474 . S
C176 C171 1.342 . S
C176 C174 1.285 . S
C176 H195 0.930 . S
C177 C180 1.424 . S
C177 C182 1.218 1_554 S
C177 C183 1.428 . S
C178 C181 1.260 . S
C178 C182 1.472 1_554 S
C178 H196 0.932 1_554 S
C179 C180 1.384 . S
C179 C181 1.479 . S
C179 H197 0.929 1_545 S
C180 C177 1.424 . S
C180 C179 1.384 . S
C180 H198 0.928 1_545 S
C181 C178 1.260 . S
C181 C179 1.479 . S
C182 C177 1.218 1_556 S
C182 C178 1.472 1_556 S
C182 H199 0.964 . S
C183 U166 2.882 . S
C183 C177 1.428 . S
C183 O186 1.301 1_554 S
C183 O187 1.282 1_545 S
O184 U166 2.428 1_565 S
O184 C170 1.281 . S
O185 U166 2.420 1_565 S
O185 C170 1.202 . S
O186 U166 2.455 1_556 S
O186 C183 1.301 1_556 S
O187 U166 2.449 1_565 S
O187 C183 1.282 1_565 S
H188 C161 0.931 . S
H189 C163 0.929 . S
H190 C164 0.930 . S
H191 C165 0.931 . S
H192 C172 0.932 . S
H193 C173 0.930 . S
H194 C174 0.929 . S
H195 C176 0.930 . S
H196 C178 0.932 1_556 S
H197 C179 0.929 1_565 S
H198 C180 0.928 1_565 S
H199 C182 0.964 . S
C200 C201 1.264 . S
C200 C205 1.479 . S
C200 C210 1.465 . S
C201 C200 1.264 . S
C201 C203 1.339 . S
C201 H228 0.931 . S
C202 C203 1.395 . S
C202 C204 1.320 . S
C203 C201 1.339 . S
C203 C202 1.395 . S
C203 H229 0.929 . S
C204 C202 1.320 . S
C204 C205 1.405 . S
C204 H230 0.930 . S
C205 C200 1.479 . S
C205 C204 1.405 . S
C205 H231 0.931 . S
U206 O207 2.454 . S
U206 O208 2.458 . S
U206 C209 2.984 . S
U206 C210 2.847 . S
U206 C223 2.882 . S
U206 O224 2.441 . S
U206 O225 2.420 . S
U206 O226 2.455 . S
U206 O227 2.449 . S
O207 U206 2.454 . S
O207 C209 1.353 . S
O208 U206 2.458 . S
O208 C209 1.286 . S
C209 U206 2.984 . S
C209 O207 1.353 . S
C209 O208 1.286 . S
C209 C211 1.363 . S
C210 C200 1.465 . S
C210 U206 2.847 . S
C210 O224 1.249 . S
C210 O225 1.202 . S
C211 C209 1.363 . S
C211 C213 1.408 . S
C211 C216 1.342 . S
C212 C213 1.310 . S
C212 C215 1.461 . S
C212 H232 0.932 . S
C213 C211 1.408 . S
C213 C212 1.310 . S
C213 H233 0.930 . S
C214 C215 1.474 . S
C214 C216 1.285 . S
C214 H234 0.929 . S
C215 C212 1.461 . S
C215 C214 1.474 . S
C216 C211 1.342 . S
C216 C214 1.285 . S
C216 H235 0.930 . S
C217 C220 1.424 . S
C217 C222 1.245 . S
C217 C223 1.428 . S
C218 C221 1.260 . S
C218 C222 1.477 . S
C218 H236 0.932 . S
C219 C220 1.384 . S
C219 C221 1.479 . S
C219 H237 0.929 . S
C220 C217 1.424 . S
C220 C219 1.384 . S
C220 H238 0.928 . S
C221 C218 1.260 . S
C221 C219 1.479 . S
C222 C217 1.245 . S
C222 C218 1.477 . S
C222 H239 0.932 . S
C223 U206 2.882 . S
C223 C217 1.428 . S
C223 O226 1.301 . S
C223 O227 1.282 . S
O224 U206 2.441 . S
O224 C210 1.249 . S
O225 U206 2.420 . S
O225 C210 1.202 . S
O226 U206 2.455 . S
O226 C223 1.301 . S
O227 U206 2.449 . S
O227 C223 1.282 . S
H228 C201 0.931 . S
H229 C203 0.929 . S
H230 C204 0.930 . S
H231 C205 0.931 . S
H232 C212 0.932 . S
H233 C213 0.930 . S
H234 C214 0.929 . S
H235 C216 0.930 . S
H236 C218 0.932 . S
H237 C219 0.929 . S
H238 C220 0.928 . S
H239 C222 0.932 . S
C240 C241 1.264 1_565 S
C240 C245 1.479 . S
C240 C250 1.465 . S
C241 C240 1.264 1_545 S
C241 C243 1.339 . S
C241 H268 0.931 . S
C242 C243 1.395 . S
C242 C244 1.320 1_545 S
C243 C241 1.339 . S
C243 C242 1.395 . S
C243 H269 0.929 . S
C244 C242 1.320 1_565 S
C244 C245 1.405 . S
C244 H270 0.930 . S
C245 C240 1.479 . S
C245 C244 1.405 . S
C245 H271 0.931 . S
U246 O247 2.454 . S
U246 O248 2.458 . S
U246 C249 2.984 . S
U246 C250 2.847 . S
U246 C263 2.882 1_565 S
U246 O264 2.441 . S
U246 O265 2.420 . S
U246 O266 2.433 1_565 S
U246 O267 2.449 1_565 S
O247 U246 2.454 . S
O247 C249 1.353 . S
O248 U246 2.458 . S
O248 C249 1.286 . S
C249 U246 2.984 . S
C249 O247 1.353 . S
C249 O248 1.286 . S
C249 C251 1.363 . S
C250 C240 1.465 . S
C250 U246 2.847 . S
C250 O264 1.249 . S
C250 O265 1.202 . S
C251 C249 1.363 . S
C251 C253 1.408 . S
C251 C256 1.342 . S
C252 C253 1.310 . S
C252 C255 1.461 . S
C252 H272 0.932 . S
C253 C251 1.408 . S
C253 C252 1.310 . S
C253 H273 0.930 . S
C254 C255 1.474 . S
C254 C256 1.285 . S
C254 H274 0.929 . S
C255 C252 1.461 . S
C255 C254 1.474 . S
C256 C251 1.342 . S
C256 C254 1.285 . S
C256 H275 0.930 . S
C257 C260 1.424 . S
C257 C262 1.245 . S
C257 C263 1.428 . S
C258 C261 1.260 . S
C258 C262 1.477 . S
C258 H276 0.932 . S
C259 C260 1.384 . S
C259 C261 1.479 . S
C259 H277 0.929 . S
C260 C257 1.424 . S
C260 C259 1.384 . S
C260 H278 0.928 . S
C261 C258 1.260 . S
C261 C259 1.479 . S
C262 C257 1.245 . S
C262 C258 1.477 . S
C262 H279 0.932 . S
C263 U246 2.882 1_545 S
C263 C257 1.428 . S
C263 O266 1.353 . S
C263 O267 1.282 . S
O264 U246 2.441 . S
O264 C250 1.249 . S
O265 U246 2.420 . S
O265 C250 1.202 . S
O266 U246 2.433 1_545 S
O266 C263 1.353 . S
O267 U246 2.449 1_545 S
O267 C263 1.282 . S
H268 C241 0.931 . S
H269 C243 0.929 . S
H270 C244 0.930 . S
H271 C245 0.931 . S
H272 C252 0.932 . S
H273 C253 0.930 . S
H274 C254 0.929 . S
H275 C256 0.930 . S
H276 C258 0.932 . S
H277 C259 0.929 . S
H278 C260 0.928 . S
H279 C262 0.932 . S
C280 C281 1.264 . S
C280 C285 1.479 . S
C280 C290 1.465 . S
C281 C280 1.264 . S
C281 C283 1.339 . S
C281 H308 0.931 . S
C282 C283 1.395 . S
C282 C284 1.320 . S
C283 C281 1.339 . S
C283 C282 1.395 . S
C283 H309 0.929 . S
C284 C282 1.320 . S
C284 C285 1.405 . S
C284 H310 0.930 . S
C285 C280 1.479 . S
C285 C284 1.405 . S
C285 H311 0.931 . S
U286 O287 2.454 . S
U286 O288 2.458 . S
U286 C289 2.984 . S
U286 C290 2.847 . S
U286 C303 2.882 . S
U286 O304 2.441 . S
U286 O305 2.420 . S
U286 O306 2.455 . S
U286 O307 2.449 . S
O287 U286 2.454 . S
O287 C289 1.353 . S
O288 U286 2.458 . S
O288 C289 1.286 . S
C289 U286 2.984 . S
C289 O287 1.353 . S
C289 O288 1.286 . S
C289 C291 1.363 . S
C290 C280 1.465 . S
C290 U286 2.847 . S
C290 O304 1.249 . S
C290 O305 1.202 . S
C291 C289 1.363 . S
C291 C293 1.408 . S
C291 C296 1.342 . S
C292 C293 1.310 . S
C292 C295 1.461 . S
C292 H312 0.932 . S
C293 C291 1.408 . S
C293 C292 1.310 . S
C293 H313 0.930 . S
C294 C295 1.474 . S
C294 C296 1.285 . S
C294 H314 0.929 . S
C295 C292 1.461 . S
C295 C294 1.474 . S
C296 C291 1.342 . S
C296 C294 1.285 . S
C296 H315 0.930 . S
C297 C300 1.424 . S
C297 C302 1.245 . S
C297 C303 1.428 . S
C298 C301 1.260 . S
C298 C302 1.477 . S
C298 H316 0.932 . S
C299 C300 1.384 . S
C299 C301 1.479 . S
C299 H317 0.929 . S
C300 C297 1.424 . S
C300 C299 1.384 . S
C300 H318 0.928 . S
C301 C298 1.260 . S
C301 C299 1.479 . S
C302 C297 1.245 . S
C302 C298 1.477 . S
C302 H319 0.932 . S
C303 U286 2.882 . S
C303 C297 1.428 . S
C303 O306 1.301 . S
C303 O307 1.282 . S
O304 U286 2.441 . S
O304 C290 1.249 . S
O305 U286 2.420 . S
O305 C290 1.202 . S
O306 U286 2.455 . S
O306 C303 1.301 . S
O307 U286 2.449 . S
O307 C303 1.282 . S
H308 C281 0.931 . S
H309 C283 0.929 . S
H310 C284 0.930 . S
H311 C285 0.931 . S
H312 C292 0.932 . S
H313 C293 0.930 . S
H314 C294 0.929 . S
H315 C296 0.930 . S
H316 C298 0.932 . S
H317 C299 0.929 . S
H318 C300 0.928 . S
H319 C302 0.932 . S
C320 C321 1.264 . S
C320 C325 1.479 . S
C320 C330 1.465 . S
C321 C320 1.264 . S
C321 C323 1.339 . S
C321 H348 0.931 . S
C322 C323 1.395 . S
C322 C324 1.320 . S
C323 C321 1.339 . S
C323 C322 1.395 . S
C323 H349 0.929 . S
C324 C322 1.320 . S
C324 C325 1.405 . S
C324 H350 0.930 . S
C325 C320 1.479 . S
C325 C324 1.405 . S
C325 H351 0.931 . S
U326 O327 2.454 . S
U326 O328 2.458 . S
U326 C329 2.984 . S
U326 C330 2.847 . S
U326 C343 2.882 . S
U326 O344 2.441 . S
U326 O345 2.420 . S
U326 O346 2.455 . S
U326 O347 2.449 . S
O327 U326 2.454 . S
O327 C329 1.353 . S
O328 U326 2.458 . S
O328 C329 1.286 . S
C329 U326 2.984 . S
C329 O327 1.353 . S
C329 O328 1.286 . S
C329 C331 1.363 . S
C330 C320 1.465 . S
C330 U326 2.847 . S
C330 O344 1.249 . S
C330 O345 1.202 . S
C331 C329 1.363 . S
C331 C333 1.408 . S
C331 C336 1.342 . S
C332 C333 1.310 . S
C332 C335 1.461 . S
C332 H352 0.932 . S
C333 C331 1.408 . S
C333 C332 1.310 . S
C333 H353 0.930 . S
C334 C335 1.474 . S
C334 C336 1.285 . S
C334 H354 0.929 . S
C335 C332 1.461 . S
C335 C334 1.474 . S
C336 C331 1.342 . S
C336 C334 1.285 . S
C336 H355 0.930 . S
C337 C340 1.424 . S
C337 C342 1.245 . S
C337 C343 1.428 . S
C338 C341 1.260 . S
C338 C342 1.477 . S
C338 H356 0.932 . S
C339 C340 1.384 . S
C339 C341 1.479 . S
C339 H357 0.929 . S
C340 C337 1.424 . S
C340 C339 1.384 . S
C340 H358 0.928 . S
C341 C338 1.260 . S
C341 C339 1.479 . S
C342 C337 1.245 . S
C342 C338 1.477 . S
C342 H359 0.932 . S
C343 U326 2.882 . S
C343 C337 1.428 . S
C343 O346 1.301 . S
C343 O347 1.282 . S
O344 U326 2.441 . S
O344 C330 1.249 . S
O345 U326 2.420 . S
O345 C330 1.202 . S
O346 U326 2.455 . S
O346 C343 1.301 . S
O347 U326 2.449 . S
O347 C343 1.282 . S
H348 C321 0.931 . S
H349 C323 0.929 . S
H350 C324 0.930 . S
H351 C325 0.931 . S
H352 C332 0.932 . S
H353 C333 0.930 . S
H354 C334 0.929 . S
H355 C336 0.930 . S
H356 C338 0.932 . S
H357 C339 0.929 . S
H358 C340 0.928 . S
H359 C342 0.932 . S
C360 C361 1.264 . S
C360 C365 1.479 . S
C360 C370 1.465 . S
C361 C360 1.264 . S
C361 C363 1.339 . S
C361 H388 0.931 . S
C362 C363 1.395 . S
C362 C364 1.320 . S
C363 C361 1.339 . S
C363 C362 1.395 . S
C363 H389 0.929 . S
C364 C362 1.320 . S
C364 C365 1.405 . S
C364 H390 0.930 . S
C365 C360 1.479 . S
C365 C364 1.405 . S
C365 H391 0.931 . S
U366 O367 2.454 . S
U366 O368 2.458 . S
U366 C369 2.984 . S
U366 C370 2.847 . S
U366 C383 2.882 . S
U366 O384 2.441 . S
U366 O385 2.420 . S
U366 O386 2.455 . S
U366 O387 2.449 . S
O367 U366 2.454 . S
O367 C369 1.353 . S
O368 U366 2.458 . S
O368 C369 1.286 . S
C369 U366 2.984 . S
C369 O367 1.353 . S
C369 O368 1.286 . S
C369 C371 1.363 . S
C370 C360 1.465 . S
C370 U366 2.847 . S
C370 O384 1.249 . S
C370 O385 1.202 . S
C371 C369 1.363 . S
C371 C373 1.408 . S
C371 C376 1.342 . S
C372 C373 1.310 . S
C372 C375 1.461 . S
C372 H392 0.932 . S
C373 C371 1.408 . S
C373 C372 1.310 . S
C373 H393 0.930 . S
C374 C375 1.474 . S
C374 C376 1.285 . S
C374 H394 0.929 . S
C375 C372 1.461 . S
C375 C374 1.474 . S
C376 C371 1.342 . S
C376 C374 1.285 . S
C376 H395 0.930 . S
C377 C380 1.424 . S
C377 C382 1.245 . S
C377 C383 1.428 . S
C378 C381 1.260 . S
C378 C382 1.477 . S
C378 H396 0.932 . S
C379 C380 1.384 . S
C379 C381 1.479 . S
C379 H397 0.929 . S
C380 C377 1.424 . S
C380 C379 1.384 . S
C380 H398 0.928 . S
C381 C378 1.260 . S
C381 C379 1.479 . S
C382 C377 1.245 . S
C382 C378 1.477 . S
C382 H399 0.932 . S
C383 U366 2.882 . S
C383 C377 1.428 . S
C383 O386 1.301 . S
C383 O387 1.282 . S
O384 U366 2.441 . S
O384 C370 1.249 . S
O385 U366 2.420 . S
O385 C370 1.202 . S
O386 U366 2.455 . S
O386 C383 1.301 . S
O387 U366 2.449 . S
O387 C383 1.282 . S
H388 C361 0.931 . S
H389 C363 0.929 . S
H390 C364 0.930 . S
H391 C365 0.931 . S
H392 C372 0.932 . S
H393 C373 0.930 . S
H394 C374 0.929 . S
H395 C376 0.930 . S
H396 C378 0.932 . S
H397 C379 0.929 . S
H398 C380 0.928 . S
H399 C382 0.932 . S
C400 C401 1.264 . S
C400 C405 1.479 . S
C400 C410 1.465 . S
C401 C400 1.264 . S
C401 C403 1.339 . S
C401 H428 0.931 . S
C402 C403 1.395 . S
C402 C404 1.320 . S
C403 C401 1.339 . S
C403 C402 1.395 . S
C403 H429 0.929 . S
C404 C402 1.320 . S
C404 C405 1.405 . S
C404 H430 0.930 . S
C405 C400 1.479 . S
C405 C404 1.405 . S
C405 H431 0.931 . S
U406 O407 2.454 . S
U406 O408 2.458 . S
U406 C409 2.984 . S
U406 C410 2.847 1_554 S
U406 C423 2.882 . S
U406 O424 2.441 1_554 S
U406 O425 2.420 1_554 S
U406 O426 2.455 . S
U406 O427 2.449 1_554 S
O407 U406 2.454 . S
O407 C409 1.353 . S
O408 U406 2.458 . S
O408 C409 1.286 . S
C409 U406 2.984 . S
C409 O407 1.353 . S
C409 O408 1.286 . S
C409 C411 1.363 . S
C410 C400 1.465 . S
C410 U406 2.847 1_556 S
C410 O424 1.249 . S
C410 O425 1.202 . S
C411 C409 1.363 . S
C411 C413 1.408 . S
C411 C416 1.342 . S
C412 C413 1.310 . S
C412 C415 1.461 . S
C412 H432 0.932 . S
C413 C411 1.408 . S
C413 C412 1.310 . S
C413 H433 0.930 . S
C414 C415 1.474 . S
C414 C416 1.285 . S
C414 H434 0.929 . S
C415 C412 1.461 . S
C415 C414 1.474 . S
C416 C411 1.342 . S
C416 C414 1.285 . S
C416 H435 0.930 . S
C417 C420 1.424 1_554 S
C417 C422 1.245 . S
C417 C423 1.428 . S
C418 C421 1.260 . S
C418 C422 1.477 . S
C418 H436 0.932 . S
C419 C420 1.384 . S
C419 C421 1.479 1_556 S
C419 H437 0.929 . S
C420 C417 1.424 1_556 S
C420 C419 1.384 . S
C420 H438 0.928 . S
C421 C418 1.260 . S
C421 C419 1.479 1_554 S
C422 C417 1.245 . S
C422 C418 1.477 . S
C422 H439 0.932 . S
C423 U406 2.882 . S
C423 C417 1.428 . S
C423 O426 1.301 . S
C423 O427 1.282 1_554 S
O424 U406 2.441 1_556 S
O424 C410 1.249 . S
O425 U406 2.420 1_556 S
O425 C410 1.202 . S
O426 U406 2.455 . S
O426 C423 1.301 . S
O427 U406 2.449 1_556 S
O427 C423 1.282 1_556 S
H428 C401 0.931 . S
H429 C403 0.929 . S
H430 C404 0.930 . S
H431 C405 0.931 . S
H432 C412 0.932 . S
H433 C413 0.930 . S
H434 C414 0.929 . S
H435 C416 0.930 . S
H436 C418 0.932 . S
H437 C419 0.929 . S
H438 C420 0.928 . S
H439 C422 0.932 . S
C440 C441 1.264 . S
C440 C445 1.479 . S
C440 C450 1.465 . S
C441 C440 1.264 . S
C441 C443 1.339 . S
C441 H468 0.931 . S
C442 C443 1.395 . S
C442 C444 1.320 . S
C443 C441 1.339 . S
C443 C442 1.395 . S
C443 H469 0.929 . S
C444 C442 1.320 . S
C444 C445 1.405 . S
C444 H470 0.930 . S
C445 C440 1.479 . S
C445 C444 1.405 . S
C445 H471 0.931 . S
U446 O447 2.454 . S
U446 O448 2.458 . S
U446 C449 2.984 . S
U446 C450 2.847 . S
U446 C463 2.882 . S
U446 O464 2.441 . S
U446 O465 2.420 . S
U446 O466 2.455 . S
U446 O467 2.449 . S
O447 U446 2.454 . S
O447 C449 1.353 . S
O448 U446 2.458 . S
O448 C449 1.286 . S
C449 U446 2.984 . S
C449 O447 1.353 . S
C449 O448 1.286 . S
C449 C451 1.363 . S
C450 C440 1.465 . S
C450 U446 2.847 . S
C450 O464 1.249 . S
C450 O465 1.202 . S
C451 C449 1.363 . S
C451 C453 1.408 . S
C451 C456 1.342 . S
C452 C453 1.310 . S
C452 C455 1.461 . S
C452 H472 0.932 . S
C453 C451 1.408 . S
C453 C452 1.310 . S
C453 H473 0.930 . S
C454 C455 1.474 . S
C454 C456 1.285 . S
C454 H474 0.929 . S
C455 C452 1.461 . S
C455 C454 1.474 . S
C456 C451 1.342 . S
C456 C454 1.285 . S
C456 H475 0.930 . S
C457 C460 1.424 . S
C457 C462 1.245 . S
C457 C463 1.428 . S
C458 C461 1.260 . S
C458 C462 1.477 . S
C458 H476 0.932 . S
C459 C460 1.384 . S
C459 C461 1.479 . S
C459 H477 0.929 . S
C460 C457 1.424 . S
C460 C459 1.384 . S
C460 H478 0.928 . S
C461 C458 1.260 . S
C461 C459 1.479 . S
C462 C457 1.245 . S
C462 C458 1.477 . S
C462 H479 0.932 . S
C463 U446 2.882 . S
C463 C457 1.428 . S
C463 O466 1.301 . S
C463 O467 1.282 . S
O464 U446 2.441 . S
O464 C450 1.249 . S
O465 U446 2.420 . S
O465 C450 1.202 . S
O466 U446 2.455 . S
O466 C463 1.301 . S
O467 U446 2.449 . S
O467 C463 1.282 . S
H468 C441 0.931 . S
H469 C443 0.929 . S
H470 C444 0.930 . S
H471 C445 0.931 . S
H472 C452 0.932 . S
H473 C453 0.930 . S
H474 C454 0.929 . S
H475 C456 0.930 . S
H476 C458 0.932 . S
H477 C459 0.929 . S
H478 C460 0.928 . S
H479 C462 0.932 . S
C480 C481 1.264 . S
C480 C485 1.479 . S
C480 C490 1.465 . S
C481 C480 1.264 . S
C481 C483 1.339 . S
C481 H508 0.931 . S
C482 C483 1.395 . S
C482 C484 1.320 . S
C483 C481 1.339 . S
C483 C482 1.395 . S
C483 H509 0.929 . S
C484 C482 1.320 . S
C484 C485 1.405 . S
C484 H510 0.930 . S
C485 C480 1.479 . S
C485 C484 1.405 . S
C485 H511 0.931 . S
U486 O487 2.454 . S
U486 O488 2.458 . S
U486 C489 2.984 . S
U486 C490 2.847 . S
U486 C503 2.882 . S
U486 O504 2.441 . S
U486 O505 2.420 . S
U486 O506 2.455 . S
U486 O507 2.449 . S
O487 U486 2.454 . S
O487 C489 1.353 . S
O488 U486 2.458 . S
O488 C489 1.286 . S
C489 U486 2.984 . S
C489 O487 1.353 . S
C489 O488 1.286 . S
C489 C491 1.363 . S
C490 C480 1.465 . S
C490 U486 2.847 . S
C490 O504 1.249 . S
C490 O505 1.202 . S
C491 C489 1.363 . S
C491 C493 1.408 . S
C491 C496 1.342 . S
C492 C493 1.310 . S
C492 C495 1.461 . S
C492 H512 0.932 . S
C493 C491 1.408 . S
C493 C492 1.310 . S
C493 H513 0.930 . S
C494 C495 1.474 . S
C494 C496 1.285 . S
C494 H514 0.929 . S
C495 C492 1.461 . S
C495 C494 1.474 . S
C496 C491 1.342 . S
C496 C494 1.285 . S
C496 H515 0.930 . S
C497 C500 1.424 . S
C497 C502 1.245 . S
C497 C503 1.428 . S
C498 C501 1.260 . S
C498 C502 1.477 . S
C498 H516 0.932 . S
C499 C500 1.384 . S
C499 C501 1.479 . S
C499 H517 0.929 . S
C500 C497 1.424 . S
C500 C499 1.384 . S
C500 H518 0.928 . S
C501 C498 1.260 . S
C501 C499 1.479 . S
C502 C497 1.245 . S
C502 C498 1.477 . S
C502 H519 0.932 . S
C503 U486 2.882 . S
C503 C497 1.428 . S
C503 O506 1.301 . S
C503 O507 1.282 . S
O504 U486 2.441 . S
O504 C490 1.249 . S
O505 U486 2.420 . S
O505 C490 1.202 . S
O506 U486 2.455 . S
O506 C503 1.301 . S
O507 U486 2.449 . S
O507 C503 1.282 . S
H508 C481 0.931 . S
H509 C483 0.929 . S
H510 C484 0.930 . S
H511 C485 0.931 . S
H512 C492 0.932 . S
H513 C493 0.930 . S
H514 C494 0.929 . S
H515 C496 0.930 . S
H516 C498 0.932 . S
H517 C499 0.929 . S
H518 C500 0.928 . S
H519 C502 0.932 . S
C520 C521 1.264 . S
C520 C525 1.479 . S
C520 C530 1.465 . S
C521 C520 1.264 . S
C521 C523 1.339 . S
C521 H548 0.931 . S
C522 C523 1.395 . S
C522 C524 1.320 . S
C523 C521 1.339 . S
C523 C522 1.395 . S
C523 H549 0.929 . S
C524 C522 1.320 . S
C524 C525 1.405 . S
C524 H550 0.930 . S
C525 C520 1.479 . S
C525 C524 1.405 . S
C525 H551 0.931 . S
U526 O527 2.454 . S
U526 O528 2.458 . S
U526 C529 2.984 . S
U526 C530 2.847 . S
U526 C543 2.882 . S
U526 O544 2.441 . S
U526 O545 2.420 . S
U526 O546 2.455 . S
U526 O547 2.449 . S
O527 U526 2.454 . S
O527 C529 1.353 . S
O528 U526 2.458 . S
O528 C529 1.286 . S
C529 U526 2.984 . S
C529 O527 1.353 . S
C529 O528 1.286 . S
C529 C531 1.363 . S
C530 C520 1.465 . S
C530 U526 2.847 . S
C530 O544 1.249 . S
C530 O545 1.202 . S
C531 C529 1.363 . S
C531 C533 1.408 . S
C531 C536 1.342 . S
C532 C533 1.310 . S
C532 C535 1.461 . S
C532 H552 0.932 . S
C533 C531 1.408 . S
C533 C532 1.310 . S
C533 H553 0.930 . S
C534 C535 1.474 . S
C534 C536 1.285 . S
C534 H554 0.929 . S
C535 C532 1.461 . S
C535 C534 1.474 . S
C536 C531 1.342 . S
C536 C534 1.285 . S
C536 H555 0.930 . S
C537 C540 1.424 . S
C537 C542 1.245 . S
C537 C543 1.428 . S
C538 C541 1.260 . S
C538 C542 1.477 . S
C538 H556 0.932 . S
C539 C540 1.384 . S
C539 C541 1.479 . S
C539 H557 0.929 . S
C540 C537 1.424 . S
C540 C539 1.384 . S
C540 H558 0.928 . S
C541 C538 1.260 . S
C541 C539 1.479 . S
C542 C537 1.245 . S
C542 C538 1.477 . S
C542 H559 0.932 . S
C543 U526 2.882 . S
C543 C537 1.428 . S
C543 O546 1.301 . S
C543 O547 1.282 . S
O544 U526 2.441 . S
O544 C530 1.249 . S
O545 U526 2.420 . S
O545 C530 1.202 . S
O546 U526 2.455 . S
O546 C543 1.301 . S
O547 U526 2.449 . S
O547 C543 1.282 . S
H548 C521 0.931 . S
H549 C523 0.929 . S
H550 C524 0.930 . S
H551 C525 0.931 . S
H552 C532 0.932 . S
H553 C533 0.930 . S
H554 C534 0.929 . S
H555 C536 0.930 . S
H556 C538 0.932 . S
H557 C539 0.929 . S
H558 C540 0.928 . S
H559 C542 0.932 . S
C560 C561 1.264 . S
C560 C565 1.479 . S
C560 C570 1.465 . S
C561 C560 1.264 . S
C561 C563 1.339 . S
C561 H588 0.931 . S
C562 C563 1.395 . S
C562 C564 1.320 . S
C563 C561 1.339 . S
C563 C562 1.395 . S
C563 H589 0.929 . S
C564 C562 1.320 . S
C564 C565 1.405 . S
C564 H590 0.930 1_554 S
C565 C560 1.479 . S
C565 C564 1.405 . S
C565 H591 0.919 1_554 S
U566 O567 2.454 1_554 S
U566 O568 2.458 . S
U566 C569 2.984 1_554 S
U566 C570 2.847 . S
U566 C583 2.882 . S
U566 O584 2.441 . S
U566 O585 2.420 . S
U566 O586 2.455 . S
U566 O587 2.449 . S
O567 U566 2.454 1_556 S
O567 C569 1.353 . S
O568 U566 2.458 . S
O568 C569 1.286 1_554 S
C569 U566 2.984 1_556 S
C569 O567 1.353 . S
C569 O568 1.286 1_556 S
C569 C571 1.363 . S
C570 C560 1.465 . S
C570 U566 2.847 . S
C570 O584 1.249 . S
C570 O585 1.202 . S
C571 C569 1.363 . S
C571 C573 1.408 . S
C571 C576 1.342 . S
C572 C573 1.310 . S
C572 C575 1.461 . S
C572 H592 0.932 . S
C573 C571 1.408 . S
C573 C572 1.310 . S
C573 H593 0.930 . S
C574 C575 1.474 . S
C574 C576 1.285 . S
C574 H594 0.929 . S
C575 C572 1.461 . S
C575 C574 1.474 . S
C576 C571 1.342 . S
C576 C574 1.285 . S
C576 H595 0.930 . S
C577 C580 1.424 . S
C577 C582 1.245 . S
C577 C583 1.428 . S
C578 C581 1.260 . S
C578 C582 1.477 . S
C578 H596 0.932 . S
C579 C580 1.384 . S
C579 C581 1.479 . S
C579 H597 0.929 . S
C580 C577 1.424 . S
C580 C579 1.384 . S
C580 H598 0.928 . S
C581 C578 1.260 . S
C581 C579 1.479 . S
C582 C577 1.245 . S
C582 C578 1.477 . S
C582 H599 0.932 . S
C583 U566 2.882 . S
C583 C577 1.428 . S
C583 O586 1.301 . S
C583 O587 1.282 . S
O584 U566 2.441 . S
O584 C570 1.249 . S
O585 U566 2.420 . S
O585 C570 1.202 . S
O586 U566 2.455 . S
O586 C583 1.301 . S
O587 U566 2.449 . S
O587 C583 1.282 . S
H588 C561 0.931 . S
H589 C563 0.929 . S
H590 C564 0.930 1_556 S
H591 C565 0.919 1_556 S
H592 C572 0.932 . S
H593 C573 0.930 . S
H594 C574 0.929 . S
H595 C576 0.930 . S
H596 C578 0.932 . S
H597 C579 0.929 . S
H598 C580 0.928 . S
H599 C582 0.932 . S
C600 C601 1.264 . S
C600 C605 1.479 . S
C600 C610 1.465 . S
C601 C600 1.264 . S
C601 C603 1.339 . S
C601 H628 0.931 . S
C602 C603 1.395 . S
C602 C604 1.320 . S
C603 C601 1.339 . S
C603 C602 1.395 . S
C603 H629 0.929 . S
C604 C602 1.320 . S
C604 C605 1.405 . S
C604 H630 0.930 . S
C605 C600 1.479 . S
C605 C604 1.405 . S
C605 H631 0.931 . S
U606 O607 2.454 . S
U606 O608 2.458 . S
U606 C609 2.984 . S
U606 C610 2.847 . S
U606 C623 2.882 . S
U606 O624 2.441 . S
U606 O625 2.420 . S
U606 O626 2.455 . S
U606 O627 2.449 . S
O607 U606 2.454 . S
O607 C609 1.353 . S
O608 U606 2.458 . S
O608 C609 1.286 . S
C609 U606 2.984 . S
C609 O607 1.353 . S
C609 O608 1.286 . S
C609 C611 1.363 . S
C610 C600 1.465 . S
C610 U606 2.847 . S
C610 O624 1.249 . S
C610 O625 1.202 . S
C611 C609 1.363 . S
C611 C613 1.408 . S
C611 C616 1.342 . S
C612 C613 1.310 . S
C612 C615 1.461 . S
C612 H632 0.932 . S
C613 C611 1.408 . S
C613 C612 1.310 . S
C613 H633 0.930 . S
C614 C615 1.474 . S
C614 C616 1.285 . S
C614 H634 0.929 . S
C615 C612 1.461 . S
C615 C614 1.474 . S
C616 C611 1.342 . S
C616 C614 1.285 . S
C616 H635 0.930 . S
C617 C620 1.424 . S
C617 C622 1.245 . S
C617 C623 1.428 . S
C618 C621 1.260 . S
C618 C622 1.477 . S
C618 H636 0.932 . S
C619 C620 1.384 . S
C619 C621 1.479 . S
C619 H637 0.929 . S
C620 C617 1.424 . S
C620 C619 1.384 . S
C620 H638 0.928 . S
C621 C618 1.260 . S
C621 C619 1.479 . S
C622 C617 1.245 . S
C622 C618 1.477 . S
C622 H639 0.932 . S
C623 U606 2.882 . S
C623 C617 1.428 . S
C623 O626 1.301 . S
C623 O627 1.282 . S
O624 U606 2.441 . S
O624 C610 1.249 . S
O625 U606 2.420 . S
O625 C610 1.202 . S
O626 U606 2.455 . S
O626 C623 1.301 . S
O627 U606 2.449 . S
O627 C623 1.282 . S
H628 C601 0.931 . S
H629 C603 0.929 . S
H630 C604 0.930 . S
H631 C605 0.931 . S
H632 C612 0.932 . S
H633 C613 0.930 . S
H634 C614 0.929 . S
H635 C616 0.930 . S
H636 C618 0.932 . S
H637 C619 0.929 . S
H638 C620 0.928 . S
H639 C622 0.932 . S
C640 C641 1.349 . S
C640 C642 1.327 . S
C640 H665 0.950 . S
C641 C640 1.349 . S
C641 C657 1.349 . S
C642 C640 1.327 . S
C642 C661 1.429 . S
C642 H666 0.950 . S
C643 C660 1.574 . S
C643 C662 1.368 . S
C643 H667 0.949 . S
H644 C648 0.949 . S
C645 C646 1.349 . S
C645 C647 1.327 . S
C645 H668 0.950 . S
C646 C645 1.349 . S
C646 C658 1.349 . S
C647 C645 1.327 . S
C647 C663 1.429 . S
C647 H669 0.950 . S
C648 H644 0.949 . S
C648 C656 1.574 . S
C648 C664 1.368 . S
H649 C657 0.950 . S
H650 C655 0.950 . S
H651 C656 0.949 . S
H652 C658 0.950 . S
H653 C659 0.950 . S
H654 C660 0.949 . S
C655 H650 0.950 . S
C655 C657 1.327 . S
C655 C661 1.429 . S
C656 C648 1.574 . S
C656 H651 0.949 . S
C656 C662 1.368 . S
C657 C641 1.349 . S
C657 H649 0.950 . S
C657 C655 1.327 . S
C658 C646 1.349 . S
C658 H652 0.950 . S
C658 C659 1.327 . S
C659 H653 0.950 . S
C659 C658 1.327 . S
C659 C663 1.429 . S
C660 C643 1.574 . S
C660 H654 0.949 . S
C660 C664 1.368 . S
C661 C642 1.429 . S
C661 C655 1.429 . S
C661 C662 1.523 . S
C662 C643 1.368 . S
C662 C656 1.368 . S
C662 C661 1.523 . S
C663 C647 1.429 . S
C663 C659 1.429 . S
C663 C664 1.523 . S
C664 C648 1.368 . S
C664 C660 1.368 . S
C664 C663 1.523 . S
H665 C640 0.950 . S
H666 C642 0.950 . S
H667 C643 0.949 . S
H668 C645 0.950 . S
H669 C647 0.950 . S
C670 C671 1.349 . S
C670 C672 1.327 . S
C670 H695 0.950 . S
C671 C670 1.349 . S
C671 C687 1.349 . S
C672 C670 1.327 . S
C672 C691 1.429 . S
C672 H696 0.950 . S
C673 C690 1.574 . S
C673 C692 1.368 . S
C673 H697 0.949 . S
H674 C678 0.949 . S
C675 C676 1.349 . S
C675 C677 1.327 . S
C675 H698 0.950 . S
C676 C675 1.349 . S
C676 C688 1.349 . S
C677 C675 1.327 . S
C677 C693 1.429 . S
C677 H699 0.950 . S
C678 H674 0.949 . S
C678 C686 1.574 . S
C678 C694 1.368 . S
H679 C687 0.950 . S
H680 C685 0.950 . S
H681 C686 0.949 . S
H682 C688 0.950 . S
H683 C689 0.950 . S
H684 C690 0.949 . S
C685 H680 0.950 . S
C685 C687 1.327 . S
C685 C691 1.429 . S
C686 C678 1.574 . S
C686 H681 0.949 . S
C686 C692 1.368 . S
C687 C671 1.349 . S
C687 H679 0.950 . S
C687 C685 1.327 . S
C688 C676 1.349 . S
C688 H682 0.950 . S
C688 C689 1.327 . S
C689 H683 0.950 . S
C689 C688 1.327 . S
C689 C693 1.429 . S
C690 C673 1.574 . S
C690 H684 0.949 . S
C690 C694 1.368 . S
C691 C672 1.429 . S
C691 C685 1.429 . S
C691 C692 1.523 . S
C692 C673 1.368 . S
C692 C686 1.368 . S
C692 C691 1.523 . S
C693 C677 1.429 . S
C693 C689 1.429 . S
C693 C694 1.523 . S
C694 C678 1.368 . S
C694 C690 1.368 . S
C694 C693 1.523 . S
H695 C670 0.950 . S
H696 C672 0.950 . S
H697 C673 0.949 . S
H698 C675 0.950 . S
H699 C677 0.950 . S
C700 C701 1.349 . S
C700 C702 1.327 . S
C700 H725 0.950 . S
C701 C700 1.349 . S
C701 C717 1.349 . S
C702 C700 1.327 . S
C702 C721 1.429 . S
C702 H726 0.950 . S
C703 C720 1.574 . S
C703 C722 1.368 . S
C703 H727 0.949 . S
H704 C708 0.949 . S
C705 C706 1.349 . S
C705 C707 1.327 . S
C705 H728 0.950 . S
C706 C705 1.349 . S
C706 C718 1.349 . S
C707 C705 1.327 . S
C707 C723 1.429 . S
C707 H729 0.950 . S
C708 H704 0.949 . S
C708 C716 1.574 . S
C708 C724 1.368 . S
H709 C717 0.950 . S
H710 C715 0.950 . S
H711 C716 0.949 . S
H712 C718 0.950 . S
H713 C719 0.950 . S
H714 C720 0.949 . S
C715 H710 0.950 . S
C715 C717 1.327 . S
C715 C721 1.429 . S
C716 C708 1.574 . S
C716 H711 0.949 . S
C716 C722 1.368 . S
C717 C701 1.349 . S
C717 H709 0.950 . S
C717 C715 1.327 . S
C718 C706 1.349 . S
C718 H712 0.950 . S
C718 C719 1.327 . S
C719 H713 0.950 . S
C719 C718 1.327 . S
C719 C723 1.429 . S
C720 C703 1.574 . S
C720 H714 0.949 . S
C720 C724 1.368 . S
C721 C702 1.429 . S
C721 C715 1.429 . S
C721 C722 1.523 . S
C722 C703 1.368 . S
C722 C716 1.368 . S
C722 C721 1.523 . S
C723 C707 1.429 . S
C723 C719 1.429 . S
C723 C724 1.523 . S
C724 C708 1.368 . S
C724 C720 1.368 . S
C724 C723 1.523 . S
H725 C700 0.950 . S
H726 C702 0.950 . S
H727 C703 0.949 . S
H728 C705 0.950 . S
H729 C707 0.950 . S
C730 C731 1.349 . S
C730 C732 1.327 . S
C730 H755 0.950 . S
C731 C730 1.349 . S
C731 C747 1.349 . S
C732 C730 1.327 . S
C732 C751 1.429 . S
C732 H756 0.950 . S
C733 C750 1.574 . S
C733 C752 1.368 . S
C733 H757 0.949 . S
H734 C738 0.949 . S
C735 C736 1.349 . S
C735 C737 1.327 . S
C735 H758 0.950 . S
C736 C735 1.349 . S
C736 C748 1.349 . S
C737 C735 1.327 . S
C737 C753 1.429 . S
C737 H759 0.950 . S
C738 H734 0.949 . S
C738 C746 1.574 . S
C738 C754 1.368 . S
H739 C747 0.950 . S
H740 C745 0.950 . S
H741 C746 0.949 . S
H742 C748 0.950 . S
H743 C749 0.950 . S
H744 C750 0.949 . S
C745 H740 0.950 . S
C745 C747 1.327 . S
C745 C751 1.429 . S
C746 C738 1.574 . S
C746 H741 0.949 . S
C746 C752 1.368 . S
C747 C731 1.349 . S
C747 H739 0.950 . S
C747 C745 1.327 . S
C748 C736 1.349 . S
C748 H742 0.950 . S
C748 C749 1.327 . S
C749 H743 0.950 . S
C749 C748 1.327 . S
C749 C753 1.429 . S
C750 C733 1.574 . S
C750 H744 0.949 . S
C750 C754 1.368 . S
C751 C732 1.429 . S
C751 C745 1.429 . S
C751 C752 1.523 . S
C752 C733 1.368 . S
C752 C746 1.368 . S
C752 C751 1.523 . S
C753 C737 1.429 . S
C753 C749 1.429 . S
C753 C754 1.523 . S
C754 C738 1.368 . S
C754 C750 1.368 . S
C754 C753 1.523 . S
H755 C730 0.950 . S
H756 C732 0.950 . S
H757 C733 0.949 . S
H758 C735 0.950 . S
H759 C737 0.950 . S
C760 C761 1.349 . S
C760 C762 1.327 . S
C760 H785 0.950 . S
C761 C760 1.349 . S
C761 C777 1.349 . S
C762 C760 1.327 . S
C762 C781 1.429 . S
C762 H786 0.950 . S
C763 C780 1.574 . S
C763 C782 1.368 . S
C763 H787 0.949 . S
H764 C768 0.949 . S
C765 C766 1.349 . S
C765 C767 1.327 . S
C765 H788 0.950 . S
C766 C765 1.349 . S
C766 C778 1.349 . S
C767 C765 1.327 . S
C767 C783 1.429 . S
C767 H789 0.950 . S
C768 H764 0.949 . S
C768 C776 1.574 . S
C768 C784 1.368 . S
H769 C777 0.950 . S
H770 C775 0.950 . S
H771 C776 0.949 . S
H772 C778 0.950 . S
H773 C779 0.950 . S
H774 C780 0.949 . S
C775 H770 0.950 . S
C775 C777 1.327 . S
C775 C781 1.429 . S
C776 C768 1.574 . S
C776 H771 0.949 . S
C776 C782 1.368 . S
C777 C761 1.349 . S
C777 H769 0.950 . S
C777 C775 1.327 . S
C778 C766 1.349 . S
C778 H772 0.950 . S
C778 C779 1.327 . S
C779 H773 0.950 . S
C779 C778 1.327 . S
C779 C783 1.429 . S
C780 C763 1.574 . S
C780 H774 0.949 . S
C780 C784 1.368 . S
C781 C762 1.429 . S
C781 C775 1.429 . S
C781 C782 1.523 . S
C782 C763 1.368 . S
C782 C776 1.368 . S
C782 C781 1.523 . S
C783 C767 1.429 . S
C783 C779 1.429 . S
C783 C784 1.523 . S
C784 C768 1.368 . S
C784 C780 1.368 . S
C784 C783 1.523 . S
H785 C760 0.950 . S
H786 C762 0.950 . S
H787 C763 0.949 . S
H788 C765 0.950 . S
H789 C767 0.950 . S
C790 C791 1.349 . S
C790 C792 1.327 . S
C790 H815 0.950 . S
C791 C790 1.349 . S
C791 C807 1.349 . S
C792 C790 1.327 . S
C792 C811 1.429 . S
C792 H816 0.950 . S
C793 C810 1.574 . S
C793 C812 1.368 . S
C793 H817 0.949 . S
H794 C798 0.949 . S
C795 C796 1.349 . S
C795 C797 1.327 . S
C795 H818 0.950 . S
C796 C795 1.349 . S
C796 C808 1.349 . S
C797 C795 1.327 . S
C797 C813 1.429 . S
C797 H819 0.950 . S
C798 H794 0.949 . S
C798 C806 1.574 . S
C798 C814 1.368 . S
H799 C807 0.950 . S
H800 C805 0.950 . S
H801 C806 0.949 . S
H802 C808 0.950 . S
H803 C809 0.950 . S
H804 C810 0.949 . S
C805 H800 0.950 . S
C805 C807 1.327 . S
C805 C811 1.429 . S
C806 C798 1.574 . S
C806 H801 0.949 . S
C806 C812 1.368 . S
C807 C791 1.349 . S
C807 H799 0.950 . S
C807 C805 1.327 . S
C808 C796 1.349 . S
C808 H802 0.950 . S
C808 C809 1.327 . S
C809 H803 0.950 . S
C809 C808 1.327 . S
C809 C813 1.429 . S
C810 C793 1.574 . S
C810 H804 0.949 . S
C810 C814 1.368 . S
C811 C792 1.429 . S
C811 C805 1.429 . S
C811 C812 1.523 . S
C812 C793 1.368 . S
C812 C806 1.368 . S
C812 C811 1.523 . S
C813 C797 1.429 . S
C813 C809 1.429 . S
C813 C814 1.523 . S
C814 C798 1.368 . S
C814 C810 1.368 . S
C814 C813 1.523 . S
H815 C790 0.950 . S
H816 C792 0.950 . S
H817 C793 0.949 . S
H818 C795 0.950 . S
H819 C797 0.950 . S
C820 C821 1.349 . S
C820 C822 1.327 . S
C820 H845 0.950 . S
C821 C820 1.349 . S
C821 C837 1.349 . S
C822 C820 1.327 . S
C822 C841 1.429 . S
C822 H846 0.950 . S
C823 C840 1.574 . S
C823 C842 1.368 . S
C823 H847 0.949 . S
H824 C828 0.949 . S
C825 C826 1.349 . S
C825 C827 1.327 . S
C825 H848 0.950 . S
C826 C825 1.349 . S
C826 C838 1.349 . S
C827 C825 1.327 . S
C827 C843 1.429 . S
C827 H849 0.950 . S
C828 H824 0.949 . S
C828 C836 1.574 . S
C828 C844 1.368 . S
H829 C837 0.950 . S
H830 C835 0.950 . S
H831 C836 0.949 . S
H832 C838 0.950 . S
H833 C839 0.950 . S
H834 C840 0.949 . S
C835 H830 0.950 . S
C835 C837 1.327 . S
C835 C841 1.429 . S
C836 C828 1.574 . S
C836 H831 0.949 . S
C836 C842 1.368 . S
C837 C821 1.349 . S
C837 H829 0.950 . S
C837 C835 1.327 . S
C838 C826 1.349 . S
C838 H832 0.950 . S
C838 C839 1.327 . S
C839 H833 0.950 . S
C839 C838 1.327 . S
C839 C843 1.429 . S
C840 C823 1.574 . S
C840 H834 0.949 . S
C840 C844 1.368 . S
C841 C822 1.429 . S
C841 C835 1.429 . S
C841 C842 1.523 . S
C842 C823 1.368 . S
C842 C836 1.368 . S
C842 C841 1.523 . S
C843 C827 1.429 . S
C843 C839 1.429 . S
C843 C844 1.523 . S
C844 C828 1.368 . S
C844 C840 1.368 . S
C844 C843 1.523 . S
H845 C820 0.950 . S
H846 C822 0.950 . S
H847 C823 0.949 . S
H848 C825 0.950 . S
H849 C827 0.950 . S
C850 C851 1.349 . S
C850 C852 1.327 . S
C850 H875 0.950 . S
C851 C850 1.349 . S
C851 C867 1.349 . S
C852 C850 1.327 . S
C852 C871 1.429 . S
C852 H876 0.950 . S
C853 C870 1.574 . S
C853 C872 1.368 . S
C853 H877 0.949 . S
H854 C858 0.949 . S
C855 C856 1.349 . S
C855 C857 1.327 . S
C855 H878 0.950 . S
C856 C855 1.349 . S
C856 C868 1.349 . S
C857 C855 1.327 . S
C857 C873 1.429 . S
C857 H879 0.950 . S
C858 H854 0.949 . S
C858 C866 1.574 . S
C858 C874 1.368 . S
H859 C867 0.950 . S
H860 C865 0.950 . S
H861 C866 0.949 . S
H862 C868 0.950 . S
H863 C869 0.950 . S
H864 C870 0.949 . S
C865 H860 0.950 . S
C865 C867 1.327 . S
C865 C871 1.429 . S
C866 C858 1.574 . S
C866 H861 0.949 . S
C866 C872 1.368 . S
C867 C851 1.349 . S
C867 H859 0.950 . S
C867 C865 1.327 . S
C868 C856 1.349 . S
C868 H862 0.950 . S
C868 C869 1.327 . S
C869 H863 0.950 . S
C869 C868 1.327 . S
C869 C873 1.429 . S
C870 C853 1.574 . S
C870 H864 0.949 . S
C870 C874 1.368 . S
C871 C852 1.429 . S
C871 C865 1.429 . S
C871 C872 1.523 . S
C872 C853 1.368 . S
C872 C866 1.368 . S
C872 C871 1.523 . S
C873 C857 1.429 . S
C873 C869 1.429 . S
C873 C874 1.523 . S
C874 C858 1.368 . S
C874 C870 1.368 . S
C874 C873 1.523 . S
H875 C850 0.950 . S
H876 C852 0.950 . S
H877 C853 0.949 . S
H878 C855 0.950 . S
H879 C857 0.950 . S
C880 C881 1.349 . S
C880 C882 1.327 . S
C880 H905 0.950 . S
C881 C880 1.349 . S
C881 C897 1.349 . S
C882 C880 1.327 . S
C882 C901 1.429 . S
C882 H906 0.950 . S
C883 C900 1.574 . S
C883 C902 1.368 . S
C883 H907 0.949 . S
H884 C888 0.949 . S
C885 C886 1.349 . S
C885 C887 1.327 . S
C885 H908 0.950 . S
C886 C885 1.349 . S
C886 C898 1.349 . S
C887 C885 1.327 . S
C887 C903 1.429 . S
C887 H909 0.950 . S
C888 H884 0.949 . S
C888 C896 1.574 . S
C888 C904 1.368 . S
H889 C897 0.950 . S
H890 C895 0.950 . S
H891 C896 0.949 . S
H892 C898 0.950 . S
H893 C899 0.950 . S
H894 C900 0.949 . S
C895 H890 0.950 . S
C895 C897 1.327 . S
C895 C901 1.429 . S
C896 C888 1.574 . S
C896 H891 0.949 . S
C896 C902 1.368 . S
C897 C881 1.349 . S
C897 H889 0.950 . S
C897 C895 1.327 . S
C898 C886 1.349 . S
C898 H892 0.950 . S
C898 C899 1.327 . S
C899 H893 0.950 . S
C899 C898 1.327 . S
C899 C903 1.429 . S
C900 C883 1.574 . S
C900 H894 0.949 . S
C900 C904 1.368 . S
C901 C882 1.429 . S
C901 C895 1.429 . S
C901 C902 1.523 . S
C902 C883 1.368 . S
C902 C896 1.368 . S
C902 C901 1.523 . S
C903 C887 1.429 . S
C903 C899 1.429 . S
C903 C904 1.523 . S
C904 C888 1.368 . S
C904 C900 1.368 . S
C904 C903 1.523 . S
H905 C880 0.950 . S
H906 C882 0.950 . S
H907 C883 0.949 . S
H908 C885 0.950 . S
H909 C887 0.950 . S
C910 C911 1.349 . S
C910 C912 1.327 . S
C910 H935 0.950 . S
C911 C910 1.349 . S
C911 C927 1.349 . S
C912 C910 1.327 . S
C912 C931 1.429 . S
C912 H936 0.950 . S
C913 C930 1.574 . S
C913 C932 1.368 . S
C913 H937 0.949 . S
H914 C918 0.949 . S
C915 C916 1.349 . S
C915 C917 1.327 . S
C915 H938 0.950 . S
C916 C915 1.349 . S
C916 C928 1.349 . S
C917 C915 1.327 . S
C917 C933 1.429 . S
C917 H939 0.950 . S
C918 H914 0.949 . S
C918 C926 1.574 . S
C918 C934 1.368 . S
H919 C927 0.950 . S
H920 C925 0.950 . S
H921 C926 0.949 . S
H922 C928 0.950 . S
H923 C929 0.950 . S
H924 C930 0.949 . S
C925 H920 0.950 . S
C925 C927 1.327 . S
C925 C931 1.429 . S
C926 C918 1.574 . S
C926 H921 0.949 . S
C926 C932 1.368 . S
C927 C911 1.349 . S
C927 H919 0.950 . S
C927 C925 1.327 . S
C928 C916 1.349 . S
C928 H922 0.950 . S
C928 C929 1.327 . S
C929 H923 0.950 . S
C929 C928 1.327 . S
C929 C933 1.429 . S
C930 C913 1.574 . S
C930 H924 0.949 . S
C930 C934 1.368 . S
C931 C912 1.429 . S
C931 C925 1.429 . S
C931 C932 1.523 . S
C932 C913 1.368 . S
C932 C926 1.368 . S
C932 C931 1.523 . S
C933 C917 1.429 . S
C933 C929 1.429 . S
C933 C934 1.523 . S
C934 C918 1.368 . S
C934 C930 1.368 . S
C934 C933 1.523 . S
H935 C910 0.950 . S
H936 C912 0.950 . S
H937 C913 0.949 . S
H938 C915 0.950 . S
H939 C917 0.950 . S
C940 C941 1.349 . S
C940 C942 1.327 . S
C940 H965 0.950 . S
C941 C940 1.349 . S
C941 C957 1.349 . S
C942 C940 1.327 . S
C942 C961 1.429 . S
C942 H966 0.950 . S
C943 C960 1.574 . S
C943 C962 1.368 . S
C943 H967 0.949 . S
H944 C948 0.949 . S
C945 C946 1.349 . S
C945 C947 1.327 . S
C945 H968 0.950 . S
C946 C945 1.349 . S
C946 C958 1.349 . S
C947 C945 1.327 . S
C947 C963 1.429 . S
C947 H969 0.950 . S
C948 H944 0.949 . S
C948 C956 1.574 . S
C948 C964 1.368 . S
H949 C957 0.950 . S
H950 C955 0.950 . S
H951 C956 0.949 . S
H952 C958 0.950 . S
H953 C959 0.950 . S
H954 C960 0.949 . S
C955 H950 0.950 . S
C955 C957 1.327 . S
C955 C961 1.429 . S
C956 C948 1.574 . S
C956 H951 0.949 . S
C956 C962 1.368 . S
C957 C941 1.349 . S
C957 H949 0.950 . S
C957 C955 1.327 . S
C958 C946 1.349 . S
C958 H952 0.950 . S
C958 C959 1.327 . S
C959 H953 0.950 . S
C959 C958 1.327 . S
C959 C963 1.429 . S
C960 C943 1.574 . S
C960 H954 0.949 . S
C960 C964 1.368 . S
C961 C942 1.429 . S
C961 C955 1.429 . S
C961 C962 1.523 . S
C962 C943 1.368 . S
C962 C956 1.368 . S
C962 C961 1.523 . S
C963 C947 1.429 . S
C963 C959 1.429 . S
C963 C964 1.523 . S
C964 C948 1.368 . S
C964 C960 1.368 . S
C964 C963 1.523 . S
H965 C940 0.950 . S
H966 C942 0.950 . S
H967 C943 0.949 . S
H968 C945 0.950 . S
H969 C947 0.950 . S
C970 C971 1.349 . S
C970 C972 1.327 . S
C970 H995 0.950 . S
C971 C970 1.349 . S
C971 C987 1.349 . S
C972 C970 1.327 . S
C972 C991 1.429 . S
C972 H996 0.950 . S
C973 C990 1.574 . S
C973 C992 1.368 . S
C973 H997 0.949 . S
H974 C978 0.949 . S
C975 C976 1.349 . S
C975 C977 1.327 . S
C975 H998 0.950 . S
C976 C975 1.349 . S
C976 C988 1.349 . S
C977 C975 1.327 . S
C977 C993 1.429 . S
C977 H999 0.950 . S
C978 H974 0.949 . S
C978 C986 1.574 . S
C978 C994 1.368 . S
H979 C987 0.950 . S
H980 C985 0.950 . S
H981 C986 0.949 . S
H982 C988 0.950 . S
H983 C989 0.950 . S
H984 C990 0.949 . S
C985 H980 0.950 . S
C985 C987 1.327 . S
C985 C991 1.429 . S
C986 C978 1.574 . S
C986 H981 0.949 . S
C986 C992 1.368 . S
C987 C971 1.349 . S
C987 H979 0.950 . S
C987 C985 1.327 . S
C988 C976 1.349 . S
C988 H982 0.950 . S
C988 C989 1.327 . S
C989 H983 0.950 . S
C989 C988 1.327 . S
C989 C993 1.429 . S
C990 C973 1.574 . S
C990 H984 0.949 . S
C990 C994 1.368 . S
C991 C972 1.429 . S
C991 C985 1.429 . S
C991 C992 1.523 . S
C992 C973 1.368 . S
C992 C986 1.368 . S
C992 C991 1.523 . S
C993 C977 1.429 . S
C993 C989 1.429 . S
C993 C994 1.523 . S
C994 C978 1.368 . S
C994 C990 1.368 . S
C994 C993 1.523 . S
H995 C970 0.950 . S
H996 C972 0.950 . S
H997 C973 0.949 . S
H998 C975 0.950 . S
H999 C977 0.950 . S
C1000 C1001 1.349 . S
C1000 C1002 1.327 . S
C1000 H1025 0.950 . S
C1001 C1000 1.349 . S
C1001 C1017 1.349 . S
C1002 C1000 1.327 . S
C1002 C1021 1.429 . S
C1002 H1026 0.950 . S
C1003 C1020 1.574 . S
C1003 C1022 1.368 . S
C1003 H1027 0.949 . S
H1004 C1008 0.949 . S
C1005 C1006 1.349 . S
C1005 C1007 1.327 . S
C1005 H1028 0.950 . S
C1006 C1005 1.349 . S
C1006 C1018 1.349 . S
C1007 C1005 1.327 . S
C1007 C1023 1.429 . S
C1007 H1029 0.950 . S
C1008 H1004 0.949 . S
C1008 C1016 1.574 . S
C1008 C1024 1.368 . S
H1009 C1017 0.950 . S
H1010 C1015 0.950 . S
H1011 C1016 0.949 . S
H1012 C1018 0.950 . S
H1013 C1019 0.950 . S
H1014 C1020 0.949 . S
C1015 H1010 0.950 . S
C1015 C1017 1.327 . S
C1015 C1021 1.429 . S
C1016 C1008 1.574 . S
C1016 H1011 0.949 . S
C1016 C1022 1.368 . S
C1017 C1001 1.349 . S
C1017 H1009 0.950 . S
C1017 C1015 1.327 . S
C1018 C1006 1.349 . S
C1018 H1012 0.950 . S
C1018 C1019 1.327 . S
C1019 H1013 0.950 . S
C1019 C1018 1.327 . S
C1019 C1023 1.429 . S
C1020 C1003 1.574 . S
C1020 H1014 0.949 . S
C1020 C1024 1.368 . S
C1021 C1002 1.429 . S
C1021 C1015 1.429 . S
C1021 C1022 1.523 . S
C1022 C1003 1.368 . S
C1022 C1016 1.368 . S
C1022 C1021 1.523 . S
C1023 C1007 1.429 . S
C1023 C1019 1.429 . S
C1023 C1024 1.523 . S
C1024 C1008 1.368 . S
C1024 C1020 1.368 . S
C1024 C1023 1.523 . S
H1025 C1000 0.950 . S
H1026 C1002 0.950 . S
H1027 C1003 0.949 . S
H1028 C1005 0.950 . S
H1029 C1007 0.950 . S
C1030 C1031 1.349 . S
C1030 C1032 1.327 . S
C1030 H1055 0.950 . S
C1031 C1030 1.349 . S
C1031 C1047 1.349 . S
C1032 C1030 1.327 . S
C1032 C1051 1.429 . S
C1032 H1056 0.950 . S
C1033 C1050 1.574 . S
C1033 C1052 1.368 . S
C1033 H1057 0.949 . S
H1034 C1038 0.949 . S
C1035 C1036 1.349 . S
C1035 C1037 1.327 . S
C1035 H1058 0.950 . S
C1036 C1035 1.349 . S
C1036 C1048 1.349 . S
C1037 C1035 1.327 . S
C1037 C1053 1.429 . S
C1037 H1059 0.950 . S
C1038 H1034 0.949 . S
C1038 C1046 1.574 . S
C1038 C1054 1.368 . S
H1039 C1047 0.950 . S
H1040 C1045 0.950 . S
H1041 C1046 0.949 . S
H1042 C1048 0.950 . S
H1043 C1049 0.950 . S
H1044 C1050 0.949 . S
C1045 H1040 0.950 . S
C1045 C1047 1.327 . S
C1045 C1051 1.429 . S
C1046 C1038 1.574 . S
C1046 H1041 0.949 . S
C1046 C1052 1.368 . S
C1047 C1031 1.349 . S
C1047 H1039 0.950 . S
C1047 C1045 1.327 . S
C1048 C1036 1.349 . S
C1048 H1042 0.950 . S
C1048 C1049 1.327 . S
C1049 H1043 0.950 . S
C1049 C1048 1.327 . S
C1049 C1053 1.429 . S
C1050 C1033 1.574 . S
C1050 H1044 0.949 . S
C1050 C1054 1.368 . S
C1051 C1032 1.429 . S
C1051 C1045 1.429 . S
C1051 C1052 1.523 . S
C1052 C1033 1.368 . S
C1052 C1046 1.368 . S
C1052 C1051 1.523 . S
C1053 C1037 1.429 . S
C1053 C1049 1.429 . S
C1053 C1054 1.523 . S
C1054 C1038 1.368 . S
C1054 C1050 1.368 . S
C1054 C1053 1.523 . S
H1055 C1030 0.950 . S
H1056 C1032 0.950 . S
H1057 C1033 0.949 . S
H1058 C1035 0.950 . S
H1059 C1037 0.950 . S
C1060 C1061 1.349 . S
C1060 C1062 1.327 . S
C1060 H1085 0.950 . S
C1061 C1060 1.349 . S
C1061 C1077 1.349 . S
C1062 C1060 1.327 . S
C1062 C1081 1.429 . S
C1062 H1086 0.950 . S
C1063 C1080 1.574 . S
C1063 C1082 1.368 . S
C1063 H1087 0.949 . S
H1064 C1068 0.949 . S
C1065 C1066 1.349 . S
C1065 C1067 1.327 . S
C1065 H1088 0.950 . S
C1066 C1065 1.349 . S
C1066 C1078 1.349 . S
C1067 C1065 1.327 . S
C1067 C1083 1.429 . S
C1067 H1089 0.950 . S
C1068 H1064 0.949 . S
C1068 C1076 1.574 . S
C1068 C1084 1.368 . S
H1069 C1077 0.950 . S
H1070 C1075 0.950 . S
H1071 C1076 0.949 . S
H1072 C1078 0.950 . S
H1073 C1079 0.950 . S
H1074 C1080 0.949 . S
C1075 H1070 0.950 . S
C1075 C1077 1.327 . S
C1075 C1081 1.429 . S
C1076 C1068 1.574 . S
C1076 H1071 0.949 . S
C1076 C1082 1.368 . S
C1077 C1061 1.349 . S
C1077 H1069 0.950 . S
C1077 C1075 1.327 . S
C1078 C1066 1.349 . S
C1078 H1072 0.950 . S
C1078 C1079 1.327 . S
C1079 H1073 0.950 . S
C1079 C1078 1.327 . S
C1079 C1083 1.429 . S
C1080 C1063 1.574 . S
C1080 H1074 0.949 . S
C1080 C1084 1.368 . S
C1081 C1062 1.429 . S
C1081 C1075 1.429 . S
C1081 C1082 1.523 . S
C1082 C1063 1.368 . S
C1082 C1076 1.368 . S
C1082 C1081 1.523 . S
C1083 C1067 1.429 . S
C1083 C1079 1.429 . S
C1083 C1084 1.523 . S
C1084 C1068 1.368 . S
C1084 C1080 1.368 . S
C1084 C1083 1.523 . S
H1085 C1060 0.950 . S
H1086 C1062 0.950 . S
H1087 C1063 0.949 . S
H1088 C1065 0.950 . S
H1089 C1067 0.950 . S
C1090 C1091 1.349 . S
C1090 C1092 1.327 . S
C1090 H1115 0.950 . S
C1091 C1090 1.349 . S
C1091 C1107 1.349 . S
C1092 C1090 1.327 . S
C1092 C1111 1.429 . S
C1092 H1116 0.950 . S
C1093 C1110 1.574 . S
C1093 C1112 1.368 . S
C1093 H1117 0.949 . S
H1094 C1098 0.949 . S
C1095 C1096 1.349 . S
C1095 C1097 1.327 . S
C1095 H1118 0.950 . S
C1096 C1095 1.349 . S
C1096 C1108 1.349 . S
C1097 C1095 1.327 . S
C1097 C1113 1.429 . S
C1097 H1119 0.950 . S
C1098 H1094 0.949 . S
C1098 C1106 1.574 . S
C1098 C1114 1.368 . S
H1099 C1107 0.950 . S
H1100 C1105 0.950 . S
H1101 C1106 0.949 . S
H1102 C1108 0.950 . S
H1103 C1109 0.950 . S
H1104 C1110 0.949 . S
C1105 H1100 0.950 . S
C1105 C1107 1.327 . S
C1105 C1111 1.429 . S
C1106 C1098 1.574 . S
C1106 H1101 0.949 . S
C1106 C1112 1.368 . S
C1107 C1091 1.349 . S
C1107 H1099 0.950 . S
C1107 C1105 1.327 . S
C1108 C1096 1.349 . S
C1108 H1102 0.950 . S
C1108 C1109 1.327 . S
C1109 H1103 0.950 . S
C1109 C1108 1.327 . S
C1109 C1113 1.429 . S
C1110 C1093 1.574 . S
C1110 H1104 0.949 . S
C1110 C1114 1.368 . S
C1111 C1092 1.429 . S
C1111 C1105 1.429 . S
C1111 C1112 1.523 . S
C1112 C1093 1.368 . S
C1112 C1106 1.368 . S
C1112 C1111 1.523 . S
C1113 C1097 1.429 . S
C1113 C1109 1.429 . S
C1113 C1114 1.523 . S
C1114 C1098 1.368 . S
C1114 C1110 1.368 . S
C1114 C1113 1.523 . S
H1115 C1090 0.950 . S
H1116 C1092 0.950 . S
H1117 C1093 0.949 . S
H1118 C1095 0.950 . S
H1119 C1097 0.950 . S
C1120 C1121 1.349 . S
C1120 C1122 1.327 . S
C1120 H1145 0.950 1_554 S
C1121 C1120 1.349 . S
C1121 C1137 1.349 . S
C1122 C1120 1.327 . S
C1122 C1141 1.429 . S
C1122 H1146 0.950 1_554 S
C1123 C1140 1.574 1_655 S
C1123 C1142 1.368 1_565 S
C1123 H1147 0.949 . S
H1124 C1128 0.949 1_556 S
C1125 C1126 1.349 1_565 S
C1125 C1127 1.327 . S
C1125 H1148 0.950 . S
C1126 C1125 1.349 1_545 S
C1126 C1138 1.352 1_554 S
C1127 C1125 1.327 . S
C1127 C1143 1.429 1_565 S
C1127 H1149 0.950 . S
C1128 H1124 0.949 1_554 S
C1128 C1136 1.574 1_455 S
C1128 C1144 1.368 . S
H1129 C1137 0.950 1_565 S
H1130 C1135 0.913 1_565 S
H1131 C1136 0.949 1_556 S
H1132 C1138 0.946 . S
H1133 C1139 0.938 1_556 S
H1134 C1140 0.949 . S
C1135 H1130 0.913 1_545 S
C1135 C1137 1.334 . S
C1135 C1141 1.460 . S
C1136 C1128 1.574 1_655 S
C1136 H1131 0.949 1_554 S
C1136 C1142 1.368 . S
C1137 C1121 1.349 . S
C1137 H1129 0.950 1_545 S
C1137 C1135 1.334 . S
C1138 C1126 1.352 1_556 S
C1138 H1132 0.946 . S
C1138 C1139 1.327 1_556 S
C1139 H1133 0.938 1_554 S
C1139 C1138 1.327 1_554 S
C1139 C1143 1.440 . S
C1140 C1123 1.574 1_455 S
C1140 H1134 0.949 . S
C1140 C1144 1.368 1_565 S
C1141 C1122 1.429 . S
C1141 C1135 1.460 . S
C1141 C1142 1.523 . S
C1142 C1123 1.368 1_545 S
C1142 C1136 1.368 . S
C1142 C1141 1.523 . S
C1143 C1127 1.429 1_545 S
C1143 C1139 1.440 . S
C1143 C1144 1.523 . S
C1144 C1128 1.368 . S
C1144 C1140 1.368 1_545 S
C1144 C1143 1.523 . S
H1145 C1120 0.950 1_556 S
H1146 C1122 0.950 1_556 S
H1147 C1123 0.949 . S
H1148 C1125 0.950 . S
H1149 C1127 0.950 . S
C1150 C1151 1.349 . S
C1150 C1152 1.327 . S
C1150 H1175 0.950 . S
C1151 C1150 1.349 . S
C1151 C1167 1.349 . S
C1152 C1150 1.327 . S
C1152 C1171 1.429 . S
C1152 H1176 0.950 . S
C1153 C1170 1.574 . S
C1153 C1172 1.368 . S
C1153 H1177 0.949 . S
H1154 C1158 0.949 . S
C1155 C1156 1.349 . S
C1155 C1157 1.327 . S
C1155 H1178 0.950 . S
C1156 C1155 1.349 . S
C1156 C1168 1.349 . S
C1157 C1155 1.327 . S
C1157 C1173 1.429 . S
C1157 H1179 0.950 . S
C1158 H1154 0.949 . S
C1158 C1166 1.574 . S
C1158 C1174 1.368 . S
H1159 C1167 0.950 . S
H1160 C1165 0.950 . S
H1161 C1166 0.949 . S
H1162 C1168 0.950 . S
H1163 C1169 0.950 . S
H1164 C1170 0.949 . S
C1165 H1160 0.950 . S
C1165 C1167 1.327 . S
C1165 C1171 1.429 . S
C1166 C1158 1.574 . S
C1166 H1161 0.949 . S
C1166 C1172 1.368 . S
C1167 C1151 1.349 . S
C1167 H1159 0.950 . S
C1167 C1165 1.327 . S
C1168 C1156 1.349 . S
C1168 H1162 0.950 . S
C1168 C1169 1.327 . S
C1169 H1163 0.950 . S
C1169 C1168 1.327 . S
C1169 C1173 1.429 . S
C1170 C1153 1.574 . S
C1170 H1164 0.949 . S
C1170 C1174 1.368 . S
C1171 C1152 1.429 . S
C1171 C1165 1.429 . S
C1171 C1172 1.523 . S
C1172 C1153 1.368 . S
C1172 C1166 1.368 . S
C1172 C1171 1.523 . S
C1173 C1157 1.429 . S
C1173 C1169 1.429 . S
C1173 C1174 1.523 . S
C1174 C1158 1.368 . S
C1174 C1170 1.368 . S
C1174 C1173 1.523 . S
H1175 C1150 0.950 . S
H1176 C1152 0.950 . S
H1177 C1153 0.949 . S
H1178 C1155 0.950 . S
H1179 C1157 0.950 . S
C1180 C1181 1.349 . S
C1180 C1182 1.327 . S
C1180 H1205 0.950 . S
C1181 C1180 1.349 . S
C1181 C1197 1.349 . S
C1182 C1180 1.327 . S
C1182 C1201 1.429 . S
C1182 H1206 0.950 . S
C1183 C1200 1.574 . S
C1183 C1202 1.368 . S
C1183 H1207 0.949 . S
H1184 C1188 0.949 . S
C1185 C1186 1.367 . S
C1185 C1187 1.337 . S
C1185 H1208 0.930 1_545 S
C1186 C1185 1.367 . S
C1186 C1198 1.349 . S
C1187 C1185 1.337 . S
C1187 C1203 1.429 . S
C1187 H1209 0.943 1_545 S
C1188 H1184 0.949 . S
C1188 C1196 1.574 . S
C1188 C1204 1.368 . S
H1189 C1197 0.950 . S
H1190 C1195 0.950 . S
H1191 C1196 0.949 . S
H1192 C1198 0.950 . S
H1193 C1199 0.950 . S
H1194 C1200 0.967 . S
C1195 H1190 0.950 . S
C1195 C1197 1.327 . S
C1195 C1201 1.429 . S
C1196 C1188 1.574 . S
C1196 H1191 0.949 . S
C1196 C1202 1.368 . S
C1197 C1181 1.349 . S
C1197 H1189 0.950 . S
C1197 C1195 1.327 . S
C1198 C1186 1.349 . S
C1198 H1192 0.950 . S
C1198 C1199 1.327 . S
C1199 H1193 0.950 . S
C1199 C1198 1.327 . S
C1199 C1203 1.429 . S
C1200 C1183 1.574 . S
C1200 H1194 0.967 . S
C1200 C1204 1.368 . S
C1201 C1182 1.429 . S
C1201 C1195 1.429 . S
C1201 C1202 1.523 . S
C1202 C1183 1.368 . S
C1202 C1196 1.368 . S
C1202 C1201 1.523 . S
C1203 C1187 1.429 . S
C1203 C1199 1.429 . S
C1203 C1204 1.523 . S
C1204 C1188 1.368 . S
C1204 C1200 1.368 . S
C1204 C1203 1.523 . S
H1205 C1180 0.950 . S
H1206 C1182 0.950 . S
H1207 C1183 0.949 . S
H1208 C1185 0.930 1_565 S
H1209 C1187 0.943 1_565 S
C1210 C1211 1.349 . S
C1210 C1212 1.327 . S
C1210 H1235 0.950 . S
C1211 C1210 1.349 . S
C1211 C1227 1.349 . S
C1212 C1210 1.327 . S
C1212 C1231 1.429 . S
C1212 H1236 0.950 . S
C1213 C1230 1.574 . S
C1213 C1232 1.368 . S
C1213 H1237 0.949 . S
H1214 C1218 0.949 . S
C1215 C1216 1.349 . S
C1215 C1217 1.327 . S
C1215 H1238 0.950 . S
C1216 C1215 1.349 . S
C1216 C1228 1.349 . S
C1217 C1215 1.327 . S
C1217 C1233 1.429 . S
C1217 H1239 0.950 . S
C1218 H1214 0.949 . S
C1218 C1226 1.574 . S
C1218 C1234 1.368 . S
H1219 C1227 0.950 . S
H1220 C1225 0.950 . S
H1221 C1226 0.949 . S
H1222 C1228 0.950 . S
H1223 C1229 0.950 . S
H1224 C1230 0.949 . S
C1225 H1220 0.950 . S
C1225 C1227 1.327 . S
C1225 C1231 1.429 . S
C1226 C1218 1.574 . S
C1226 H1221 0.949 . S
C1226 C1232 1.368 . S
C1227 C1211 1.349 . S
C1227 H1219 0.950 . S
C1227 C1225 1.327 . S
C1228 C1216 1.349 . S
C1228 H1222 0.950 . S
C1228 C1229 1.327 . S
C1229 H1223 0.950 . S
C1229 C1228 1.327 . S
C1229 C1233 1.429 . S
C1230 C1213 1.574 . S
C1230 H1224 0.949 . S
C1230 C1234 1.368 . S
C1231 C1212 1.429 . S
C1231 C1225 1.429 . S
C1231 C1232 1.523 . S
C1232 C1213 1.368 . S
C1232 C1226 1.368 . S
C1232 C1231 1.523 . S
C1233 C1217 1.429 . S
C1233 C1229 1.429 . S
C1233 C1234 1.523 . S
C1234 C1218 1.368 . S
C1234 C1230 1.368 . S
C1234 C1233 1.523 . S
H1235 C1210 0.950 . S
H1236 C1212 0.950 . S
H1237 C1213 0.949 . S
H1238 C1215 0.950 . S
H1239 C1217 0.950 . S
C1240 C1241 1.349 . S
C1240 C1242 1.327 . S
C1240 H1265 0.950 . S
C1241 C1240 1.349 . S
C1241 C1257 1.349 . S
C1242 C1240 1.327 . S
C1242 C1261 1.429 . S
C1242 H1266 0.950 . S
C1243 C1260 1.574 . S
C1243 C1262 1.368 . S
C1243 H1267 0.949 . S
H1244 C1248 0.949 . S
C1245 C1246 1.349 . S
C1245 C1247 1.327 . S
C1245 H1268 0.950 . S
C1246 C1245 1.349 . S
C1246 C1258 1.349 . S
C1247 C1245 1.327 . S
C1247 C1263 1.429 . S
C1247 H1269 0.950 . S
C1248 H1244 0.949 . S
C1248 C1256 1.574 . S
C1248 C1264 1.368 . S
H1249 C1257 0.950 . S
H1250 C1255 0.950 . S
H1251 C1256 0.949 . S
H1252 C1258 0.950 . S
H1253 C1259 0.950 . S
H1254 C1260 0.949 . S
C1255 H1250 0.950 . S
C1255 C1257 1.327 . S
C1255 C1261 1.429 . S
C1256 C1248 1.574 . S
C1256 H1251 0.949 . S
C1256 C1262 1.368 . S
C1257 C1241 1.349 . S
C1257 H1249 0.950 . S
C1257 C1255 1.327 . S
C1258 C1246 1.349 . S
C1258 H1252 0.950 . S
C1258 C1259 1.327 . S
C1259 H1253 0.950 . S
C1259 C1258 1.327 . S
C1259 C1263 1.429 . S
C1260 C1243 1.574 . S
C1260 H1254 0.949 . S
C1260 C1264 1.368 . S
C1261 C1242 1.429 . S
C1261 C1255 1.429 . S
C1261 C1262 1.523 . S
C1262 C1243 1.368 . S
C1262 C1256 1.368 . S
C1262 C1261 1.523 . S
C1263 C1247 1.429 . S
C1263 C1259 1.429 . S
C1263 C1264 1.523 . S
C1264 C1248 1.368 . S
C1264 C1260 1.368 . S
C1264 C1263 1.523 . S
H1265 C1240 0.950 . S
H1266 C1242 0.950 . S
H1267 C1243 0.949 . S
H1268 C1245 0.950 . S
H1269 C1247 0.950 . S
C1270 C1271 1.349 . S
C1270 C1272 1.327 . S
C1270 H1295 0.950 . S
C1271 C1270 1.349 . S
C1271 C1287 1.349 . S
C1272 C1270 1.327 . S
C1272 C1291 1.429 . S
C1272 H1296 0.950 . S
C1273 C1290 1.574 . S
C1273 C1292 1.368 . S
C1273 H1297 0.949 . S
H1274 C1278 0.949 . S
C1275 C1276 1.349 . S
C1275 C1277 1.327 . S
C1275 H1298 0.950 . S
C1276 C1275 1.349 . S
C1276 C1288 1.349 . S
C1277 C1275 1.327 . S
C1277 C1293 1.429 . S
C1277 H1299 0.950 . S
C1278 H1274 0.949 . S
C1278 C1286 1.574 . S
C1278 C1294 1.368 . S
H1279 C1287 0.950 . S
H1280 C1285 0.950 . S
H1281 C1286 0.949 . S
H1282 C1288 0.950 . S
H1283 C1289 0.950 . S
H1284 C1290 0.949 . S
C1285 H1280 0.950 . S
C1285 C1287 1.327 . S
C1285 C1291 1.429 . S
C1286 C1278 1.574 . S
C1286 H1281 0.949 . S
C1286 C1292 1.368 . S
C1287 C1271 1.349 . S
C1287 H1279 0.950 . S
C1287 C1285 1.327 . S
C1288 C1276 1.349 . S
C1288 H1282 0.950 . S
C1288 C1289 1.327 . S
C1289 H1283 0.950 . S
C1289 C1288 1.327 . S
C1289 C1293 1.429 . S
C1290 C1273 1.574 . S
C1290 H1284 0.949 . S
C1290 C1294 1.368 . S
C1291 C1272 1.429 . S
C1291 C1285 1.429 . S
C1291 C1292 1.523 . S
C1292 C1273 1.368 . S
C1292 C1286 1.368 . S
C1292 C1291 1.523 . S
C1293 C1277 1.429 . S
C1293 C1289 1.429 . S
C1293 C1294 1.523 . S
C1294 C1278 1.368 . S
C1294 C1290 1.368 . S
C1294 C1293 1.523 . S
H1295 C1270 0.950 . S
H1296 C1272 0.950 . S
H1297 C1273 0.949 . S
H1298 C1275 0.950 . S
H1299 C1277 0.950 . S
C1300 C1301 1.349 . S
C1300 C1302 1.327 . S
C1300 H1325 0.950 . S
C1301 C1300 1.349 . S
C1301 C1317 1.349 . S
C1302 C1300 1.327 . S
C1302 C1321 1.429 . S
C1302 H1326 0.950 . S
C1303 C1320 1.574 . S
C1303 C1322 1.368 . S
C1303 H1327 0.949 . S
H1304 C1308 0.949 . S
C1305 C1306 1.349 . S
C1305 C1307 1.327 . S
C1305 H1328 0.950 . S
C1306 C1305 1.349 . S
C1306 C1318 1.349 . S
C1307 C1305 1.327 . S
C1307 C1323 1.429 . S
C1307 H1329 0.950 . S
C1308 H1304 0.949 . S
C1308 C1316 1.574 . S
C1308 C1324 1.368 . S
H1309 C1317 0.950 . S
H1310 C1315 0.950 . S
H1311 C1316 0.949 . S
H1312 C1318 0.950 . S
H1313 C1319 0.950 . S
H1314 C1320 0.949 . S
C1315 H1310 0.950 . S
C1315 C1317 1.327 . S
C1315 C1321 1.429 . S
C1316 C1308 1.574 . S
C1316 H1311 0.949 . S
C1316 C1322 1.368 . S
C1317 C1301 1.349 . S
C1317 H1309 0.950 . S
C1317 C1315 1.327 . S
C1318 C1306 1.349 . S
C1318 H1312 0.950 . S
C1318 C1319 1.327 . S
C1319 H1313 0.950 . S
C1319 C1318 1.327 . S
C1319 C1323 1.429 . S
C1320 C1303 1.574 . S
C1320 H1314 0.949 . S
C1320 C1324 1.368 . S
C1321 C1302 1.429 . S
C1321 C1315 1.429 . S
C1321 C1322 1.523 . S
C1322 C1303 1.368 . S
C1322 C1316 1.368 . S
C1322 C1321 1.523 . S
C1323 C1307 1.429 . S
C1323 C1319 1.429 . S
C1323 C1324 1.523 . S
C1324 C1308 1.368 . S
C1324 C1320 1.368 . S
C1324 C1323 1.523 . S
H1325 C1300 0.950 . S
H1326 C1302 0.950 . S
H1327 C1303 0.949 . S
H1328 C1305 0.950 . S
H1329 C1307 0.950 . S
C1330 C1331 1.349 1_556 S
C1330 C1332 1.327 . S
C1330 H1355 0.950 . S
C1331 C1330 1.349 1_554 S
C1331 C1347 1.349 . S
C1332 C1330 1.327 . S
C1332 C1351 1.429 1_556 S
C1332 H1356 0.950 . S
C1333 C1350 1.574 1_655 S
C1333 C1352 1.368 . S
C1333 H1357 0.949 . S
H1334 C1338 0.949 . S
C1335 C1336 1.349 . S
C1335 C1337 1.327 . S
C1335 H1358 0.950 . S
C1336 C1335 1.349 . S
C1336 C1348 1.349 . S
C1337 C1335 1.327 . S
C1337 C1353 1.429 . S
C1337 H1359 0.950 . S
C1338 H1334 0.949 . S
C1338 C1346 1.574 1_455 S
C1338 C1354 1.368 1_556 S
H1339 C1347 0.950 . S
H1340 C1345 0.950 . S
H1341 C1346 0.949 . S
H1342 C1348 0.950 1_556 S
H1343 C1349 0.950 1_556 S
H1344 C1350 0.949 . S
C1345 H1340 0.950 . S
C1345 C1347 1.327 . S
C1345 C1351 1.429 . S
C1346 C1338 1.574 1_655 S
C1346 H1341 0.949 . S
C1346 C1352 1.368 1_556 S
C1347 C1331 1.349 . S
C1347 H1339 0.950 . S
C1347 C1345 1.327 . S
C1348 C1336 1.349 . S
C1348 H1342 0.950 1_554 S
C1348 C1349 1.327 . S
C1349 H1343 0.950 1_554 S
C1349 C1348 1.327 . S
C1349 C1353 1.429 . S
C1350 C1333 1.574 1_455 S
C1350 H1344 0.949 . S
C1350 C1354 1.368 . S
C1351 C1332 1.429 1_554 S
C1351 C1345 1.429 . S
C1351 C1352 1.523 . S
C1352 C1333 1.368 . S
C1352 C1346 1.368 1_554 S
C1352 C1351 1.523 . S
C1353 C1337 1.429 . S
C1353 C1349 1.429 . S
C1353 C1354 1.523 . S
C1354 C1338 1.368 1_554 S
C1354 C1350 1.368 . S
C1354 C1353 1.523 . S
H1355 C1330 0.950 . S
H1356 C1332 0.950 . S
H1357 C1333 0.949 . S
H1358 C1335 0.950 . S
H1359 C1337 0.950 . S
C641 C21 1.487 . S
C646 C141 1.492 . S
C671 C61 1.492 . S
C676 C15 1.503 . S
C701 C55 1.503 . S
C706 C82 1.494 . S
C731 C135 1.504 . S
C736 C95 1.504 . S
C761 C301 1.492 . S
C766 C162 1.491 . S
C791 C175 1.504 . S
C796 C221 1.492 . S
C821 C261 1.497 . S
C826 C215 1.504 . S
C851 C295 1.505 . S
C856 C255 1.506 . S
C881 C461 1.494 . S
C886 C341 1.488 . S
C911 C335 1.503 . S
C916 C381 1.492 . S
C941 C402 1.495 . S
C946 C375 1.504 . S
C971 C415 1.504 . S
C976 C455 1.504 . S
C1001 C482 1.492 . S
C1006 C621 1.492 . S
C1031 C541 1.492 . S
C1036 C495 1.504 . S
C1061 C535 1.504 . S
C1066 C581 1.496 . S
C1091 C575 1.506 . S
C1096 C615 1.506 . S
C1121 C181 1.491 . S
C1126 C2 1.490 . S
C1151 C522 1.487 . S
C1156 C42 1.487 . S
C1181 C101 1.502 . S
C1186 C242 1.500 . S
C1211 C602 1.487 . S
C1216 C122 1.494 . S
C1241 C362 1.487 . S
C1246 C202 1.487 . S
C1271 C282 1.487 . S
C1276 C442 1.494 . S
C1301 C501 1.492 . S
C1306 C322 1.490 . S
C1331 C421 1.503 . S
C1336 C562 1.501 . S
