# Generated by pormake.
# Topology crs, (6)-cn, num edge types: 1
# Building blocks:
#     Node 0, Type 0, BuildingBlock: HISSIN_clean_sbu_0, # of connection points: 6
#     Node 1, Type 0, BuildingBlock: HISSIN_clean_sbu_0, # of connection points: 6
#     Node 2, Type 0, BuildingBlock: HISSIN_clean_sbu_0, # of connection points: 6
#     Node 3, Type 0, BuildingBlock: HISSIN_clean_sbu_0, # of connection points: 6
#     Node 4, Type 0, BuildingBlock: HISSIN_clean_sbu_0, # of connection points: 6
#     Node 5, Type 0, BuildingBlock: HISSIN_clean_sbu_0, # of connection points: 6
#     Node 6, Type 0, BuildingBlock: HISSIN_clean_sbu_0, # of connection points: 6
#     Node 7, Type 0, BuildingBlock: HISSIN_clean_sbu_0, # of connection points: 6
#     Node 8, Type 0, BuildingBlock: HISSIN_clean_sbu_0, # of connection points: 6
#     Node 9, Type 0, BuildingBlock: HISSIN_clean_sbu_0, # of connection points: 6
#     Node 10, Type 0, BuildingBlock: HISSIN_clean_sbu_0, # of connection points: 6
#     Node 11, Type 0, BuildingBlock: HISSIN_clean_sbu_0, # of connection points: 6
#     Node 12, Type 0, BuildingBlock: HISSIN_clean_sbu_0, # of connection points: 6
#     Node 13, Type 0, BuildingBlock: HISSIN_clean_sbu_0, # of connection points: 6
#     Node 14, Type 0, BuildingBlock: HISSIN_clean_sbu_0, # of connection points: 6
#     Node 15, Type 0, BuildingBlock: HISSIN_clean_sbu_0, # of connection points: 6
#     Edge 16, Type (0, 0), BuildingBlock: XUDNAN_clean_linker_2, # of connection points: 2
#     Edge 17, Type (0, 0), BuildingBlock: XUDNAN_clean_linker_2, # of connection points: 2
#     Edge 18, Type (0, 0), BuildingBlock: XUDNAN_clean_linker_2, # of connection points: 2
#     Edge 19, Type (0, 0), BuildingBlock: XUDNAN_clean_linker_2, # of connection points: 2
#     Edge 20, Type (0, 0), BuildingBlock: XUDNAN_clean_linker_2, # of connection points: 2
#     Edge 21, Type (0, 0), BuildingBlock: XUDNAN_clean_linker_2, # of connection points: 2
#     Edge 22, Type (0, 0), BuildingBlock: XUDNAN_clean_linker_2, # of connection points: 2
#     Edge 23, Type (0, 0), BuildingBlock: XUDNAN_clean_linker_2, # of connection points: 2
#     Edge 24, Type (0, 0), BuildingBlock: XUDNAN_clean_linker_2, # of connection points: 2
#     Edge 25, Type (0, 0), BuildingBlock: XUDNAN_clean_linker_2, # of connection points: 2
#     Edge 26, Type (0, 0), BuildingBlock: XUDNAN_clean_linker_2, # of connection points: 2
#     Edge 27, Type (0, 0), BuildingBlock: XUDNAN_clean_linker_2, # of connection points: 2
#     Edge 28, Type (0, 0), BuildingBlock: XUDNAN_clean_linker_2, # of connection points: 2
#     Edge 29, Type (0, 0), BuildingBlock: XUDNAN_clean_linker_2, # of connection points: 2
#     Edge 30, Type (0, 0), BuildingBlock: XUDNAN_clean_linker_2, # of connection points: 2
#     Edge 31, Type (0, 0), BuildingBlock: XUDNAN_clean_linker_2, # of connection points: 2
#     Edge 32, Type (0, 0), BuildingBlock: XUDNAN_clean_linker_2, # of connection points: 2
#     Edge 33, Type (0, 0), BuildingBlock: XUDNAN_clean_linker_2, # of connection points: 2
#     Edge 34, Type (0, 0), BuildingBlock: XUDNAN_clean_linker_2, # of connection points: 2
#     Edge 35, Type (0, 0), BuildingBlock: XUDNAN_clean_linker_2, # of connection points: 2
#     Edge 36, Type (0, 0), BuildingBlock: XUDNAN_clean_linker_2, # of connection points: 2
#     Edge 37, Type (0, 0), BuildingBlock: XUDNAN_clean_linker_2, # of connection points: 2
#     Edge 38, Type (0, 0), BuildingBlock: XUDNAN_clean_linker_2, # of connection points: 2
#     Edge 39, Type (0, 0), BuildingBlock: XUDNAN_clean_linker_2, # of connection points: 2
#     Edge 40, Type (0, 0), BuildingBlock: XUDNAN_clean_linker_2, # of connection points: 2
#     Edge 41, Type (0, 0), BuildingBlock: XUDNAN_clean_linker_2, # of connection points: 2
#     Edge 42, Type (0, 0), BuildingBlock: XUDNAN_clean_linker_2, # of connection points: 2
#     Edge 43, Type (0, 0), BuildingBlock: XUDNAN_clean_linker_2, # of connection points: 2
#     Edge 44, Type (0, 0), BuildingBlock: XUDNAN_clean_linker_2, # of connection points: 2
#     Edge 45, Type (0, 0), BuildingBlock: XUDNAN_clean_linker_2, # of connection points: 2
#     Edge 46, Type (0, 0), BuildingBlock: XUDNAN_clean_linker_2, # of connection points: 2
#     Edge 47, Type (0, 0), BuildingBlock: XUDNAN_clean_linker_2, # of connection points: 2
#     Edge 48, Type (0, 0), BuildingBlock: XUDNAN_clean_linker_2, # of connection points: 2
#     Edge 49, Type (0, 0), BuildingBlock: XUDNAN_clean_linker_2, # of connection points: 2
#     Edge 50, Type (0, 0), BuildingBlock: XUDNAN_clean_linker_2, # of connection points: 2
#     Edge 51, Type (0, 0), BuildingBlock: XUDNAN_clean_linker_2, # of connection points: 2
#     Edge 52, Type (0, 0), BuildingBlock: XUDNAN_clean_linker_2, # of connection points: 2
#     Edge 53, Type (0, 0), BuildingBlock: XUDNAN_clean_linker_2, # of connection points: 2
#     Edge 54, Type (0, 0), BuildingBlock: XUDNAN_clean_linker_2, # of connection points: 2
#     Edge 55, Type (0, 0), BuildingBlock: XUDNAN_clean_linker_2, # of connection points: 2
#     Edge 56, Type (0, 0), BuildingBlock: XUDNAN_clean_linker_2, # of connection points: 2
#     Edge 57, Type (0, 0), BuildingBlock: XUDNAN_clean_linker_2, # of connection points: 2
#     Edge 58, Type (0, 0), BuildingBlock: XUDNAN_clean_linker_2, # of connection points: 2
#     Edge 59, Type (0, 0), BuildingBlock: XUDNAN_clean_linker_2, # of connection points: 2
#     Edge 60, Type (0, 0), BuildingBlock: XUDNAN_clean_linker_2, # of connection points: 2
#     Edge 61, Type (0, 0), BuildingBlock: XUDNAN_clean_linker_2, # of connection points: 2
#     Edge 62, Type (0, 0), BuildingBlock: XUDNAN_clean_linker_2, # of connection points: 2
#     Edge 63, Type (0, 0), BuildingBlock: XUDNAN_clean_linker_2, # of connection points: 2
# Relax obj value: 0.466
# Max RMSD: 0.365
# Mean RMSD: 0.312
data_MOF--net-crs--node1-HISSIN_clean_sbu_0--edge1-XUDNAN_clean_linker_2
_symmetry_space_group_name_H-M    P1
_symmetry_Int_Tables_number       1
_symmetry_cell_setting            triclinic
loop_
_symmetry_equiv_pos_as_xyz
'x, y, z'
_cell_length_a     52.623941
_cell_length_b     57.037667
_cell_length_c     44.145011
_cell_angle_alpha  73.821273
_cell_angle_beta   75.389322
_cell_angle_gamma 65.962538
loop_
_atom_site_label
_atom_site_type_symbol
_atom_site_fract_x
_atom_site_fract_y
_atom_site_fract_z
_atom_type_partial_charge
Eu0 Eu 0.94642 1.00956 0.06075 0.0
Eu1 Eu 0.95537 0.0497 0.99255 0.0
C2 C 0.90229 0.03428 1.01312 0.0
C3 C 0.92319 0.95776 0.11695 0.0
C4 C 0.90137 0.96357 0.10002 0.0
C5 C 0.92256 0.91381 0.13789 0.0
C6 C 0.89024 0.94478 0.10201 0.0
C7 C 0.93366 0.9328 0.13602 0.0
C8 C 0.90092 0.91957 0.1206 0.0
C9 C 0.93626 0.97713 0.11247 0.0
O10 O 0.95233 0.07009 0.03132 0.0
O11 O 0.9247 0.0508 0.06972 0.0
C12 C 0.93515 0.06948 0.05866 0.0
O13 O -0.01567 1.01815 0.06155 0.0
O14 O 0.93736 0.08693 0.9608 0.0
O15 O -0.02028 0.06079 0.94675 0.0
O16 O -0.00199 0.02732 1.00732 0.0
C17 C 0.00324 1.02147 0.03655 0.0
O18 O -0.02745 0.98455 0.024 0.0
O19 O 0.95886 1.01336 0.9779 0.0
O20 O 0.90989 0.0544 1.00752 0.0
O21 O 0.96091 0.97238 0.09441 0.0
O22 O 0.91971 1.00162 0.10572 0.0
O23 O 0.91562 1.01253 0.03146 0.0
C24 C -0.02806 0.10581 0.93607 0.0
C25 C 0.9586 0.12588 0.95379 0.0
C26 C 0.01017 0.12218 0.91416 0.0
C27 C -0.02883 0.14363 0.95207 0.0
C28 C -0.00253 0.10455 0.91564 0.0
C29 C -0.00263 0.14153 0.93285 0.0
C30 C 0.96118 0.08455 0.94149 0.0
C31 C -0.03043 0.98928 0.99389 0.0
H32 H 0.89305 0.9826 0.08488 0.0
H33 H 0.93132 0.8945 0.15227 0.0
H34 H 0.87317 0.9501 0.08895 0.0
H35 H 0.95072 0.92788 0.14893 0.0
H36 H 0.939 0.12733 0.96997 0.0
H37 H 0.03028 0.12036 0.89892 0.0
H38 H 0.96101 0.15822 0.96694 0.0
H39 H 0.00815 0.08929 0.90177 0.0
Eu40 Eu -0.01575 0.28109 0.28697 0.0
Eu41 Eu 0.94505 0.27591 0.2418 0.0
C42 C 0.9294 0.33053 0.26284 0.0
C43 C 0.00732 0.31137 0.33709 0.0
C44 C 0.00259 0.33761 0.32139 0.0
C45 C -0.00057 0.32436 0.38774 0.0
C46 C -0.00384 0.35701 0.33875 0.0
C47 C 0.00609 0.30495 0.37038 0.0
C48 C -0.00591 0.35067 0.37217 0.0
C49 C 0.01306 0.2907 0.31926 0.0
O50 O -0.02802 0.29911 0.21223 0.0
O51 O 0.00931 0.27548 0.2385 0.0
C52 C -0.00086 0.28983 0.21246 0.0
O53 O -0.00068 0.23747 0.28991 0.0
O54 O 0.94302 0.27389 0.19382 0.0
O55 O 0.90882 0.27109 0.23217 0.0
O56 O -0.01799 0.2379 0.24656 0.0
C57 C -0.00199 0.22564 0.26893 0.0
O58 O 0.94437 0.27943 0.31937 0.0
O59 O 0.93021 0.25865 0.29258 0.0
O60 O 0.91994 0.3153 0.25496 0.0
O61 O -0.00049 0.27458 0.33152 0.0
O62 O 0.01445 0.29778 0.28829 0.0
O63 O 0.9547 0.32217 0.2704 0.0
C64 C 0.91989 0.24684 0.19129 0.0
C65 C 0.92101 0.22293 0.21214 0.0
C66 C 0.91993 0.22875 0.14732 0.0
C67 C 0.92118 0.20225 0.20073 0.0
C68 C 0.91954 0.24948 0.15879 0.0
C69 C 0.9205 0.20493 0.16819 0.0
C70 C 0.91982 0.26901 0.20257 0.0
C71 C 0.92936 0.26606 0.31865 0.0
H72 H 0.0034 0.3433 0.29573 0.0
H73 H -0.00166 0.3188 0.41345 0.0
H74 H -0.00805 0.37711 0.32612 0.0
H75 H 0.00989 0.28491 0.38309 0.0
H76 H 0.92176 0.22021 0.23723 0.0
H77 H 0.91914 0.23157 0.12223 0.0
H78 H 0.922 0.18406 0.21738 0.0
H79 H 0.91886 0.26769 0.14223 0.0
Eu80 Eu 0.72467 0.28399 0.54101 0.0
Eu81 Eu 0.70407 0.26562 0.49002 0.0
C82 C 0.76946 0.25683 0.4849 0.0
C83 C 0.76137 0.30716 0.58602 0.0
C84 C 0.78845 0.29957 0.56796 0.0
C85 C 0.77495 0.33161 0.61191 0.0
C86 C 0.80878 0.30783 0.5721 0.0
C87 C 0.75475 0.32324 0.6079 0.0
C88 C 0.80219 0.32396 0.59412 0.0
C89 C 0.7397 0.29849 0.58275 0.0
O90 O 0.71503 0.22993 0.53089 0.0
O91 O 0.70911 0.25208 0.56959 0.0
C92 C 0.71139 0.23092 0.56125 0.0
O93 O 0.67773 0.30545 0.54356 0.0
O94 O 0.71015 0.23691 0.46225 0.0
O95 O 0.67524 0.2743 0.45735 0.0
O96 O 0.66671 0.27586 0.52879 0.0
C97 C 0.65956 0.29503 0.54378 0.0
O98 O 0.73112 0.31072 0.49448 0.0
O99 O 0.69856 0.30877 0.47014 0.0
O100 O 0.74871 0.2625 0.46954 0.0
O101 O 0.72191 0.31463 0.56361 0.0
O102 O 0.74776 0.27415 0.58015 0.0
O103 O 0.76482 0.25845 0.51508 0.0
C104 C 0.66801 0.23759 0.4516 0.0
C105 C 0.6415 0.24348 0.47114 0.0
C106 C 0.65787 0.20705 0.43205 0.0
C107 C 0.62307 0.23168 0.47053 0.0
C108 C 0.67619 0.21908 0.4324 0.0
C109 C 0.63098 0.21357 0.45072 0.0
C110 C 0.687 0.25106 0.45021 0.0
C111 C 0.71441 0.32076 0.47288 0.0
H112 H 0.79385 0.28727 0.55077 0.0
H113 H 0.76936 0.34379 0.62929 0.0
H114 H 0.82951 0.30189 0.55782 0.0
H115 H 0.73394 0.32924 0.62203 0.0
H116 H 0.63485 0.2575 0.48648 0.0
H117 H 0.66439 0.1933 0.4164 0.0
H118 H 0.60256 0.23681 0.4854 0.0
H119 H 0.69657 0.21426 0.41724 0.0
Eu120 Eu 0.69805 1.01528 0.7266 0.0
Eu121 Eu 0.71204 0.0287 0.78618 0.0
C122 C 0.65029 0.0536 0.76955 0.0
C123 C 0.67864 1.01697 0.64799 0.0
C124 C 0.67086 0.04421 0.63784 0.0
C125 C 0.66114 1.01509 0.60347 0.0
C126 C 0.6574 0.05697 0.61101 0.0
C127 C 0.67464 1.00243 0.63009 0.0
C128 C 0.65141 0.04261 0.59425 0.0
C129 C 0.68943 1.00349 0.67807 0.0
O130 O 0.71696 0.98617 0.80125 0.0
O131 O 0.68641 0.9878 0.77129 0.0
C132 C 0.70045 0.97631 0.79558 0.0
O133 O 0.74061 0.98611 0.73651 0.0
O134 O 0.70813 0.02428 0.83774 0.0
O135 O 0.72828 0.05018 0.80513 0.0
O136 O 0.75433 1.01049 0.75761 0.0
C137 C 0.76039 0.99063 0.74426 0.0
O138 O 0.71283 0.04939 0.70418 0.0
O139 O 0.70215 0.06622 0.74913 0.0
O140 O 0.6652 0.03981 0.79248 0.0
O141 O 0.71328 1.00449 0.67997 0.0
O142 O 0.67105 1.00701 0.70412 0.0
O143 O 0.66051 0.05034 0.74002 0.0
C144 C 0.74607 0.02755 0.85292 0.0
C145 C 0.77328 1.01324 0.83918 0.0
C146 C 0.76437 0.02502 0.8993 0.0
C147 C 0.79611 1.00586 0.85486 0.0
C148 C 0.74158 0.03262 0.88346 0.0
C149 C 0.79192 1.01246 0.88457 0.0
C150 C 0.72271 0.0388 0.8347 0.0
C151 C 0.70795 0.06885 0.71787 0.0
H152 H 0.67414 0.05564 0.6514 0.0
H153 H 0.65648 1.00331 0.59173 0.0
H154 H 0.65035 0.07813 0.60443 0.0
H155 H 0.68069 0.98137 0.63762 0.0
H156 H 0.77701 1.00887 0.81572 0.0
H157 H 0.76065 0.03059 0.92203 0.0
H158 H 0.81717 0.99613 0.84313 0.0
H159 H 0.72064 0.04351 0.8944 0.0
Eu160 Eu 0.49112 0.78436 0.28775 0.0
Eu161 Eu 0.45338 0.7729 0.2468 0.0
C162 C 0.43353 0.82998 0.26518 0.0
C163 C 0.51668 0.80942 0.34205 0.0
C164 C 0.4912 0.83045 0.34684 0.0
C165 C 0.5338 0.81857 0.38201 0.0
C166 C 0.48711 0.84557 0.36901 0.0
C167 C 0.53789 0.80357 0.35978 0.0
C168 C 0.50838 0.83977 0.38689 0.0
C169 C 0.52137 0.79317 0.31908 0.0
O170 O 0.47653 0.79797 0.21398 0.0
O171 O 0.51528 0.78 0.23839 0.0
C172 C 0.50359 0.79142 0.21255 0.0
O173 O 0.50338 0.74069 0.2968 0.0
O174 O 0.44996 0.7681 0.20081 0.0
O175 O 0.41767 0.76482 0.24155 0.0
O176 O 0.49292 0.73681 0.25142 0.0
C177 C 0.50571 0.72663 0.27657 0.0
O178 O 0.45107 0.78425 0.32073 0.0
O179 O 0.44083 0.75751 0.29893 0.0
O180 O 0.42638 0.81302 0.25746 0.0
O181 O 0.51145 0.77433 0.32942 0.0
O182 O 0.51681 0.8055 0.2901 0.0
O183 O 0.45822 0.8239 0.27323 0.0
C184 C 0.42721 0.73968 0.20224 0.0
C185 C 0.43207 0.71523 0.2231 0.0
C186 C 0.42267 0.72126 0.16124 0.0
C187 C 0.43188 0.69402 0.21317 0.0
C188 C 0.42268 0.74247 0.17125 0.0
C189 C 0.42708 0.69682 0.18214 0.0
C190 C 0.42731 0.76242 0.21183 0.0
C191 C 0.43789 0.76853 0.32275 0.0
H192 H 0.47449 0.83512 0.3335 0.0
H193 H 0.55074 0.8138 0.39504 0.0
H194 H 0.4672 0.86158 0.37244 0.0
H195 H 0.55767 0.78738 0.35639 0.0
H196 H 0.43599 0.71252 0.247 0.0
H197 H 0.41863 0.72416 0.13734 0.0
H198 H 0.43568 0.67536 0.22971 0.0
H199 H 0.41902 0.76116 0.15475 0.0
Eu200 Eu 0.22476 0.78039 0.53864 0.0
Eu201 Eu 0.21424 0.75657 0.48465 0.0
C202 C 0.27472 0.75913 0.48232 0.0
C203 C 0.2499 0.8103 0.58976 0.0
C204 C 0.26509 0.82365 0.56559 0.0
C205 C 0.26519 0.82116 0.62978 0.0
C206 C 0.28006 0.83597 0.57358 0.0
C207 C 0.25034 0.8089 0.6218 0.0
C208 C 0.27992 0.83515 0.60582 0.0
C209 C 0.23278 0.79818 0.58265 0.0
O210 O 0.23705 0.7226 0.5209 0.0
O211 O 0.21868 0.74195 0.56409 0.0
C212 C 0.22939 0.72072 0.55192 0.0
O213 O 0.17792 0.79123 0.54515 0.0
O214 O 0.21536 0.72312 0.46885 0.0
O215 O 0.20357 0.76139 0.43803 0.0
O216 O 0.17489 0.76173 0.52093 0.0
C217 C 0.1639 0.77858 0.54003 0.0
O218 O 0.22377 0.81085 0.49228 0.0
O219 O 0.19459 0.80065 0.47197 0.0
O220 O 0.25617 0.76089 0.46593 0.0
O221 O 0.21528 0.81242 0.56245 0.0
O222 O 0.24525 0.77391 0.57911 0.0
O223 O 0.26802 0.76125 0.51244 0.0
C224 C 0.18261 0.73255 0.43555 0.0
C225 C 0.15455 0.74557 0.44832 0.0
C226 C 0.16706 0.70821 0.41171 0.0
C227 C 0.13282 0.7399 0.44279 0.0
C228 C 0.1887 0.71401 0.41707 0.0
C229 C 0.13892 0.72093 0.4247 0.0
C230 C 0.20589 0.7371 0.44245 0.0
C231 C 0.20656 0.81691 0.47184 0.0
H232 H 0.26503 0.82485 0.54068 0.0
H233 H 0.26507 0.81971 0.6548 0.0
H234 H 0.29109 0.8467 0.55458 0.0
H235 H 0.23886 0.79853 0.64075 0.0
H236 H 0.14952 0.75979 0.46293 0.0
H237 H 0.17235 0.69371 0.39743 0.0
H238 H 0.11137 0.74979 0.45338 0.0
H239 H 0.21028 0.70375 0.40712 0.0
Eu240 Eu 0.19682 0.51402 0.73971 0.0
Eu241 Eu 0.22051 0.5319 0.78703 0.0
C242 C 0.15679 0.56025 0.77471 0.0
C243 C 0.17037 0.49665 0.67589 0.0
C244 C 0.15833 0.47885 0.67605 0.0
C245 C 0.16939 0.51244 0.619 0.0
C246 C 0.15226 0.47745 0.64789 0.0
C247 C 0.17575 0.51365 0.64735 0.0
C248 C 0.1581 0.49393 0.61903 0.0
C249 C 0.1799 0.49459 0.70515 0.0
O250 O 0.22199 0.49059 0.81091 0.0
O251 O 0.18482 0.49437 0.7902 0.0
C252 C 0.20195 0.48232 0.81139 0.0
O253 O 0.23966 0.48377 0.74603 0.0
O254 O 0.21658 0.53648 0.83563 0.0
O255 O 0.24541 0.55034 0.79741 0.0
O256 O 0.26027 0.5063 0.76116 0.0
C257 C 0.26203 0.48684 0.74951 0.0
O258 O 0.21667 0.54212 0.70651 0.0
O259 O 0.21506 0.56492 0.74284 0.0
O260 O 0.17316 0.54841 0.79661 0.0
O261 O 0.20596 0.49228 0.70269 0.0
O262 O 0.16267 0.50839 0.72617 0.0
O263 O 0.16438 0.55346 0.74682 0.0
C264 C 0.25882 0.53286 0.84855 0.0
C265 C 0.28578 0.51604 0.83753 0.0
C266 C 0.27411 0.52806 0.898 0.0
C267 C 0.30711 0.50619 0.85616 0.0
C268 C 0.25288 0.53814 0.87923 0.0
C269 C 0.30161 0.51273 0.88617 0.0
C270 C 0.23689 0.54556 0.82817 0.0
C271 C 0.21814 0.56264 0.71306 0.0
H272 H 0.15423 0.46551 0.6979 0.0
H273 H 0.17376 0.52552 0.59704 0.0
H274 H 0.14284 0.46351 0.64874 0.0
H275 H 0.18532 0.52736 0.64692 0.0
H276 H 0.29062 0.51128 0.81411 0.0
H277 H 0.26945 0.53366 0.92089 0.0
H278 H 0.32818 0.49438 0.84662 0.0
H279 H 0.23209 0.55085 0.88818 0.0
Eu280 Eu -0.03667 0.50432 0.54875 0.0
Eu281 Eu -0.03425 0.54693 0.48097 0.0
C282 C 0.90848 0.53831 0.51579 0.0
C283 C 0.94183 0.45313 0.60833 0.0
C284 C 0.92067 0.45943 0.59025 0.0
C285 C 0.93512 0.41214 0.63452 0.0
C286 C 0.9071 0.44211 0.59394 0.0
C287 C 0.94876 0.42957 0.63078 0.0
C288 C 0.91447 0.41806 0.61573 0.0
C289 C 0.95883 0.46959 0.60044 0.0
O290 O 0.95368 0.56861 0.52176 0.0
O291 O -0.02499 0.53434 0.55976 0.0
C292 C -0.03495 0.55954 0.54803 0.0
O293 O 0.00872 0.49237 0.5247 0.0
O294 O 0.94784 0.58606 0.45257 0.0
O295 O -0.0129 0.55826 0.43332 0.0
O296 O 0.00725 0.53307 0.49714 0.0
C297 C 0.02139 0.50897 0.50984 0.0
O298 O 0.95477 0.48849 0.5131 0.0
O299 O -0.02461 0.50829 0.46639 0.0
O300 O 0.92439 0.54237 0.48833 0.0
O301 O -0.02089 0.46461 0.57635 0.0
O302 O 0.94478 0.4947 0.59856 0.0
O303 O 0.91825 0.5305 0.54291 0.0
C304 C -0.01579 0.60144 0.42575 0.0
C305 C -0.00022 0.59889 0.4488 0.0
C306 C -0.00399 0.63912 0.39475 0.0
C307 C 0.01367 0.61602 0.4447 0.0
C308 C -0.01777 0.62171 0.39877 0.0
C309 C 0.01209 0.63622 0.41757 0.0
C310 C -0.02978 0.58277 0.43063 0.0
C311 C -0.03484 0.48993 0.48265 0.0
H312 H 0.91542 0.47732 0.57232 0.0
H313 H 0.94109 0.39385 0.65167 0.0
H314 H 0.89171 0.44707 0.57865 0.0
H315 H -0.0347 0.4243 0.64463 0.0
H316 H 0.00124 0.58356 0.47002 0.0
H317 H -0.00548 0.65452 0.3736 0.0
H318 H 0.02547 0.61358 0.46296 0.0
H319 H -0.02983 0.624 0.38085 0.0
Eu320 Eu 0.22249 0.28732 0.03976 0.0
Eu321 Eu 0.20838 0.25962 0.99295 0.0
C322 C 0.27211 0.25799 0.98757 0.0
C323 C 0.25136 0.31615 0.08697 0.0
C324 C 0.27523 0.31697 0.06433 0.0
C325 C 0.26913 0.32658 0.12506 0.0
C326 C 0.29609 0.3225 0.07215 0.0
C327 C 0.2483 0.32123 0.11718 0.0
C328 C 0.29339 0.32695 0.1028 0.0
C329 C 0.23058 0.30786 0.08086 0.0
O330 O 0.21993 0.22581 0.03483 0.0
O331 O 0.21852 0.24935 0.07024 0.0
C332 C 0.22038 0.22745 0.0638 0.0
O333 O 0.17523 0.30258 0.04212 0.0
O334 O 0.21244 0.22825 0.9706 0.0
O335 O 0.18464 0.26799 0.95497 0.0
O336 O 0.17174 0.26667 0.03276 0.0
C337 C 0.16078 0.28784 0.04484 0.0
O338 O 0.227 0.31301 0.99114 0.0
O339 O 0.19612 0.30343 0.97311 0.0
O340 O 0.25372 0.25481 0.97533 0.0
O341 O 0.21713 0.32177 0.05688 0.0
O342 O 0.23831 0.28277 0.08277 0.0
O343 O 0.26556 0.26804 1.01317 0.0
C344 C 0.17104 0.23459 0.95158 0.0
C345 C 0.15435 0.24793 0.92739 0.0
C346 C 0.14333 0.20672 0.97316 0.0
C347 C 0.13211 0.24104 0.92631 0.0
C348 C 0.16547 0.21384 0.97447 0.0
C349 C 0.1263 0.22048 0.94925 0.0
C350 C 0.19323 0.24357 0.95278 0.0
C351 C 0.21016 0.31858 0.9707 0.0
H352 H 0.27796 0.31279 0.04097 0.0
H353 H 0.26627 0.33039 0.14864 0.0
H354 H 0.31463 0.3226 0.0546 0.0
H355 H 0.23002 0.32053 0.13493 0.0
H356 H 0.15835 0.26395 0.90948 0.0
H357 H 0.13916 0.19084 0.99118 0.0
H358 H 0.11954 0.2517 0.90737 0.0
H359 H 0.17794 0.20334 0.99351 0.0
Eu360 Eu 0.20641 1.01297 0.23912 0.0
Eu361 Eu 0.21115 0.03336 0.29909 0.0
C362 C 0.15351 0.05695 0.26955 0.0
C363 C 0.19116 1.0055 0.16319 0.0
C364 C 0.17039 0.03065 0.15849 0.0
C365 C 0.18286 0.99751 0.1162 0.0
C366 C 0.15506 0.03875 0.13347 0.0
C367 C 0.19806 0.98937 0.14133 0.0
C368 C 0.16046 1.02182 0.11287 0.0
C369 C 0.20363 0.99492 0.19242 0.0
O370 O 0.21537 0.99115 0.31878 0.0
O371 O 0.19031 0.98915 0.28491 0.0
C372 C 0.20126 0.97967 0.3115 0.0
O373 O 0.24786 0.98606 0.2543 0.0
O374 O 0.1952 0.03758 0.34864 0.0
O375 O 0.22582 0.05478 0.32015 0.0
O376 O 0.25655 1.01007 0.28168 0.0
C377 C 0.26501 0.99018 0.26739 0.0
O378 O 0.21945 0.04802 0.2144 0.0
O379 O 0.21015 0.06714 0.25741 0.0
O380 O 0.16496 0.0485 0.29558 0.0
O381 O 0.22462 1.00134 0.19292 0.0
O382 O 0.18568 0.99622 0.21896 0.0
O383 O 0.16706 0.04846 0.24316 0.0
C384 C 0.22739 0.03979 0.37495 0.0
C385 C 0.25345 1.01899 0.37352 0.0
C386 C 0.23347 0.04481 0.425 0.0
C387 C 0.26994 1.01179 0.39719 0.0
C388 C 0.21708 0.05214 0.40118 0.0
C389 C 0.2604 0.02518 0.42258 0.0
C390 C 0.21159 0.0497 0.34841 0.0
C391 C 0.2164 0.06786 0.22646 0.0
H392 H 0.16502 0.04338 0.17516 0.0
H393 H 0.18725 0.98396 0.10089 0.0
H394 H 0.138 0.05763 0.13124 0.0
H395 H 0.21412 0.96993 0.1447 0.0
H396 H 0.26149 1.0091 0.35348 0.0
H397 H 0.22584 0.05557 0.4442 0.0
H398 H 0.29061 0.99651 0.395 0.0
H399 H 0.19688 0.06814 0.40256 0.0
Eu400 Eu 0.47968 0.28796 0.79174 0.0
Eu401 Eu 0.45452 0.26571 0.74721 0.0
C402 C 0.42519 0.32578 0.75795 0.0
C403 C 0.49607 0.31922 0.84981 0.0
C404 C 0.47119 0.34123 0.85287 0.0
C405 C 0.51301 0.3292 0.88919 0.0
C406 C 0.46725 0.35714 0.8742 0.0
C407 C 0.51688 0.31343 0.86804 0.0
C408 C 0.4881 0.35116 0.89278 0.0
C409 C 0.50173 0.30228 0.82723 0.0
O410 O 0.48313 0.28396 0.71065 0.0
O411 O 0.5074 0.28936 0.74375 0.0
C412 C 0.50321 0.29009 0.71529 0.0
O413 O 0.5013 0.24375 0.79757 0.0
O414 O 0.43336 0.26971 0.70813 0.0
O415 O 0.44259 0.2341 0.74456 0.0
O416 O 0.49904 0.23839 0.74894 0.0
C417 C 0.51014 0.22982 0.77512 0.0
O418 O 0.43849 0.28562 0.81994 0.0
O419 O 0.44167 0.25164 0.79977 0.0
O420 O 0.4224 0.30539 0.75286 0.0
O421 O 0.49299 0.28265 0.83713 0.0
O422 O 0.49886 0.31355 0.7976 0.0
O423 O 0.44645 0.32418 0.76988 0.0
C424 C 0.43684 0.23072 0.69416 0.0
C425 C 0.45597 0.20469 0.69632 0.0
C426 C 0.42017 0.22597 0.65043 0.0
C427 C 0.45685 0.18932 0.67594 0.0
C428 C 0.41926 0.24125 0.67079 0.0
C429 C 0.43867 0.19969 0.65302 0.0
C430 C 0.43227 0.24629 0.71811 0.0
C431 C 0.43129 0.26572 0.82203 0.0
H432 H 0.45491 0.34607 0.83883 0.0
H433 H 0.52979 0.32428 0.90252 0.0
H434 H 0.44779 0.37384 0.87648 0.0
H435 H 0.53634 0.29671 0.86575 0.0
H436 H 0.46974 0.19599 0.71422 0.0
H437 H 0.40559 0.23452 0.6334 0.0
H438 H 0.47161 0.16926 0.67828 0.0
H439 H 0.40406 0.26113 0.66896 0.0
Eu440 Eu -0.01761 0.78962 0.78203 0.0
Eu441 Eu 0.9479 0.76981 0.74529 0.0
C442 C 0.92704 0.82985 0.75167 0.0
C443 C 0.00486 0.82407 0.83007 0.0
C444 C -0.02178 0.84272 0.83846 0.0
C445 C 0.0249 0.83946 0.86102 0.0
C446 C -0.02505 0.85954 0.85835 0.0
C447 C 0.02812 0.82282 0.84121 0.0
C448 C -0.00176 0.85778 0.8703 0.0
C449 C 0.00921 0.80528 0.81034 0.0
O450 O -0.02393 0.787 0.70693 0.0
O451 O 0.01013 0.78037 0.73559 0.0
C452 C 0.00162 0.78464 0.70832 0.0
O453 O -0.00223 0.74551 0.79458 0.0
O454 O 0.92801 0.77376 0.70521 0.0
O455 O 0.92939 0.74174 0.74571 0.0
O456 O -0.00999 0.73747 0.75024 0.0
C457 C 0.00257 0.72975 0.77534 0.0
O458 O 0.9416 0.79151 0.8148 0.0
O459 O 0.93285 0.76111 0.79816 0.0
O460 O 0.91921 0.8105 0.75241 0.0
O461 O -0.00019 0.78628 0.82372 0.0
O462 O 0.00504 0.81472 0.78076 0.0
O463 O 0.9524 0.82586 0.7559 0.0
C464 C 0.93177 0.73351 0.69549 0.0
C465 C 0.96032 0.7208 0.68419 0.0
C466 C 0.91936 0.7081 0.66946 0.0
C467 C -0.03164 0.70162 0.66596 0.0
C468 C 0.91136 0.72727 0.68768 0.0
C469 C 0.948 0.69471 0.65876 0.0
C470 C 0.92312 0.75205 0.71699 0.0
C471 C 0.92877 0.77502 0.81938 0.0
H472 H 0.95998 0.844 0.83001 0.0
H473 H 0.04338 0.83786 0.86925 0.0
H474 H 0.95414 0.87336 0.86512 0.0
H475 H 0.04887 0.8087 0.83485 0.0
H476 H -0.02359 0.72534 0.68999 0.0
H477 H 0.90312 0.70312 0.6648 0.0
H478 H -0.00943 0.69202 0.65779 0.0
H479 H 0.88922 0.73678 0.69635 0.0
Eu480 Eu 0.70912 0.51754 0.24545 0.0
Eu481 Eu 0.71852 0.54079 0.30012 0.0
C482 C 0.65828 0.5579 0.2813 0.0
C483 C 0.68809 0.50865 0.174 0.0
C484 C 0.6667 0.53346 0.16955 0.0
C485 C 0.6799 0.50008 0.12732 0.0
C486 C 0.65116 0.54107 0.14482 0.0
C487 C 0.6953 0.49242 0.15217 0.0
C488 C 0.657 0.52402 0.12423 0.0
C489 C 0.70161 0.49868 0.20245 0.0
O490 O 0.72593 0.49891 0.32255 0.0
O491 O 0.70043 0.49126 0.29372 0.0
C492 C 0.71265 0.48499 0.31908 0.0
O493 O 0.75262 0.49245 0.2553 0.0
O494 O 0.70156 0.55165 0.3466 0.0
O495 O 0.73714 0.56146 0.31755 0.0
O496 O 0.76322 0.51636 0.28121 0.0
C497 C 0.77073 0.49674 0.2666 0.0
O498 O 0.72231 0.5519 0.21684 0.0
O499 O 0.71144 0.57376 0.25749 0.0
O500 O 0.67266 0.54701 0.30506 0.0
O501 O 0.72396 0.50396 0.20036 0.0
O502 O 0.68472 0.50166 0.2296 0.0
O503 O 0.67014 0.55295 0.25284 0.0
C504 C 0.73269 0.55499 0.37354 0.0
C505 C 0.74917 0.52907 0.38537 0.0
C506 C 0.74034 0.56904 0.41635 0.0
C507 C 0.76162 0.52324 0.41235 0.0
C508 C 0.72794 0.57482 0.38943 0.0
C509 C 0.75771 0.54327 0.42779 0.0
C510 C 0.72012 0.56184 0.34481 0.0
C511 C 0.71796 0.57307 0.22697 0.0
H512 H 0.66116 0.54634 0.18608 0.0
H513 H 0.68462 0.48644 0.11201 0.0
H514 H 0.63367 0.55967 0.14278 0.0
H515 H 0.71191 0.47328 0.15527 0.0
H516 H 0.75275 0.51351 0.37345 0.0
H517 H 0.73732 0.58498 0.42729 0.0
H518 H 0.77477 0.50319 0.42074 0.0
H519 H 0.71509 0.59491 0.3806 0.0
Eu520 Eu 0.71729 0.78889 0.0317 0.0
Eu521 Eu 0.7086 0.75724 0.98521 0.0
C522 C 0.76907 0.76047 0.98242 0.0
C523 C 0.74442 0.82055 0.07712 0.0
C524 C 0.77003 0.81812 0.05644 0.0
C525 C 0.75958 0.8353 0.11345 0.0
C526 C 0.79044 0.82423 0.06436 0.0
C527 C 0.73923 0.82932 0.10547 0.0
C528 C 0.78551 0.83256 0.09317 0.0
C529 C 0.72368 0.81218 0.07101 0.0
O530 O 0.72291 0.72601 0.02863 0.0
O531 O 0.70893 0.75351 0.06367 0.0
C532 C 0.71698 0.72992 0.05798 0.0
O533 O 0.6706 0.80177 0.03403 0.0
O534 O 0.71781 0.72192 0.96763 0.0
O535 O 0.68954 0.75921 0.94579 0.0
O536 O 0.6686 0.76645 0.02068 0.0
C537 C 0.65686 0.78707 0.03401 0.0
O538 O 0.72045 0.81372 0.98202 0.0
O539 O 0.69305 0.80043 0.96299 0.0
O540 O 0.75133 0.76015 0.9664 0.0
O541 O 0.71195 0.82478 0.04551 0.0
O542 O 0.73051 0.78695 0.07542 0.0
O543 O 0.76114 0.76539 1.01136 0.0
C544 C 0.67885 0.72254 0.94998 0.0
C545 C 0.6583 0.72239 0.97729 0.0
C546 C 0.65594 0.70567 0.92457 0.0
C547 C 0.6364 0.7143 0.97805 0.0
C548 C 0.67778 0.71388 0.92379 0.0
C549 C 0.63478 0.70622 0.9515 0.0
C550 C 0.69977 0.73397 0.94771 0.0
C551 C 0.705 0.8172 0.96083 0.0
H552 H 0.77438 0.81111 0.03457 0.0
H553 H 0.75498 0.84214 0.13549 0.0
H554 H 0.81027 0.82187 0.04836 0.0
H555 H 0.71957 0.83117 0.12171 0.0
H556 H 0.65882 0.72914 0.99768 0.0
H557 H 0.65507 0.69975 0.90368 0.0
H558 H 0.62062 0.71458 0.99927 0.0
H559 H 0.69338 0.71414 0.90245 0.0
Eu560 Eu 0.45433 1.00332 0.56477 0.0
Eu561 Eu 0.46798 0.03537 0.49026 0.0
C562 C 0.40866 0.02681 0.5156 0.0
C563 C 0.43118 0.95322 0.6236 0.0
C564 C 0.42745 0.94685 0.59692 0.0
C565 C 0.40378 0.92764 0.65803 0.0
C566 C 0.41144 0.93155 0.60065 0.0
C567 C 0.4197 0.94316 0.65422 0.0
C568 C 0.39884 0.92221 0.6312 0.0
C569 C 0.44373 0.97305 0.61856 0.0
O570 O 0.45431 0.06529 0.52077 0.0
O571 O 0.43756 0.04548 0.57071 0.0
C572 C 0.44168 0.06598 0.55044 0.0
O573 O 0.48769 1.01796 0.56526 0.0
O574 O 0.4605 0.0697 0.45156 0.0
O575 O 0.4977 0.0349 0.4457 0.0
O576 O 0.507 1.01568 0.51356 0.0
C577 C 0.50758 1.01975 0.54106 0.0
O578 O 0.48051 0.97429 0.53233 0.0
O579 O 0.46607 0.99837 0.48484 0.0
O580 O 0.42306 0.03984 0.49417 0.0
O581 O 0.46883 0.96821 0.60137 0.0
O582 O 0.42675 0.99701 0.60967 0.0
O583 O 0.4177 1.01089 0.54168 0.0
C584 C 0.503 0.07581 0.42911 0.0
C585 C 0.52158 0.07018 0.4503 0.0
C586 C 0.51117 0.11627 0.4039 0.0
C587 C 0.53441 0.08762 0.44876 0.0
C588 C 0.49825 0.09872 0.40551 0.0
C589 C 0.52887 0.11115 0.42601 0.0
C590 C 0.48546 0.06 0.43523 0.0
C591 C 0.47605 0.97572 0.50376 0.0
H592 H 0.43586 0.95474 0.573 0.0
H593 H 0.39477 0.92043 0.68194 0.0
H594 H 0.40781 0.92823 0.5794 0.0
H595 H 0.42221 0.94804 0.67504 0.0
H596 H 0.52514 0.05286 0.46911 0.0
H597 H 0.50673 0.13414 0.38592 0.0
H598 H 0.54748 0.0833 0.4665 0.0
H599 H 0.48369 0.10355 0.38925 0.0
Eu600 Eu 0.4462 0.50189 0.0794 0.0
Eu601 Eu 0.45275 0.54258 1.01081 0.0
C602 C 0.40083 0.52622 0.03331 0.0
C603 C 0.43443 0.44417 0.13538 0.0
C604 C 0.44268 0.43152 0.10949 0.0
C605 C 0.40878 0.41561 0.1645 0.0
C606 C 0.43361 0.41144 0.11081 0.0
C607 C 0.41797 0.43574 0.16317 0.0
C608 C 0.41584 0.40384 0.13792 0.0
C609 C 0.43979 0.46822 0.13143 0.0
O610 O 0.45144 0.56235 0.04941 0.0
O611 O 0.42485 0.54279 0.08924 0.0
C612 C 0.43518 0.56151 0.07743 0.0
O613 O 0.48403 0.51164 0.07775 0.0
O614 O 0.43664 0.58228 0.98301 0.0
O615 O 0.4711 0.55211 0.96102 0.0
O616 O 0.49623 0.52178 0.02331 0.0
C617 C 0.50225 0.51562 0.05221 0.0
O618 O 0.47193 0.47697 0.0427 0.0
O619 O 0.45665 0.50561 0.99723 0.0
O620 O 0.40782 0.54649 0.02914 0.0
O621 O 0.46444 0.46809 0.11563 0.0
O622 O 0.41932 0.48979 0.12209 0.0
O623 O 0.41487 0.50428 0.05088 0.0
C624 C 0.47399 0.59385 0.95045 0.0
C625 C 0.50079 0.58391 0.95946 0.0
C626 C 0.47661 0.63723 0.93362 0.0
C627 C 0.51526 0.60048 0.9558 0.0
C628 C 0.46216 0.62054 0.93708 0.0
C629 C 0.50312 0.62738 0.9434 0.0
C630 C 0.45705 0.57721 0.95903 0.0
C631 C 0.46796 0.48158 1.01302 0.0
H632 H 0.45512 0.43794 0.08766 0.0
H633 H 0.39485 0.41033 0.18557 0.0
H634 H 0.43964 0.40252 0.09012 0.0
H635 H 0.41114 0.44553 0.1832 0.0
H636 H 0.51014 0.56349 0.97051 0.0
H637 H 0.46686 0.65789 0.92388 0.0
H638 H 0.5354 0.59239 0.96409 0.0
H639 H 0.44136 0.62861 0.93042 0.0
H640 H 0.95753 0.10791 0.04831 0.0
H641 H 0.89789 0.07541 0.11421 0.0
H642 H 0.88808 0.10624 0.14886 0.0
H643 H -0.01447 0.1176 0.10854 0.0
H644 H -0.01064 0.14782 0.08553 0.0
H645 H -0.0085 0.12337 0.06552 0.0
H646 H 0.95168 0.1578 0.03448 0.0
H647 H 0.94938 0.18227 0.05456 0.0
H648 H 0.91845 0.17537 0.05632 0.0
H649 H 0.88529 0.13963 0.17725 0.0
H650 H 0.88842 0.17481 0.19663 0.0
H651 H 0.94961 0.18635 0.11284 0.0
C652 C 0.94223 0.10741 0.06989 0.0
C653 C 0.92843 0.08918 0.0784 0.0
C654 C 0.90875 0.08912 0.10704 0.0
C655 C 0.90303 0.10656 0.12697 0.0
C656 C 0.91713 0.12406 0.11808 0.0
C657 C 0.93626 0.12473 0.0902 0.0
C658 C 0.94865 0.14541 0.08651 0.0
C659 C -0.01935 0.13279 0.08653 0.0
C660 C 0.94161 0.16646 0.05617 0.0
C661 C 0.93327 0.15637 0.11654 0.0
C662 C 0.91536 0.14358 0.13447 0.0
C663 C 0.89922 0.14981 0.16342 0.0
C664 C 0.90129 0.16973 0.17435 0.0
C665 C 0.91928 0.18336 0.15637 0.0
C666 C 0.93546 0.17649 0.12702 0.0
H667 H 0.78687 0.25207 0.42212 0.0
H668 H 0.81708 0.25134 0.50543 0.0
H669 H 0.86309 0.24947 0.47245 0.0
H670 H 0.85487 0.20868 0.38403 0.0
H671 H 0.84856 0.22717 0.3445 0.0
H672 H 0.81932 0.22505 0.37548 0.0
H673 H 0.79705 0.27572 0.3658 0.0
H674 H 0.82625 0.27802 0.33505 0.0
H675 H 0.81722 0.29399 0.36829 0.0
H676 H 0.90327 0.25359 0.42933 0.0
H677 H 0.93584 0.2609 0.37974 0.0
H678 H 0.88016 0.25786 0.32446 0.0
C679 C 0.80334 0.25087 0.43369 0.0
C680 C 0.79832 0.25175 0.46648 0.0
C681 C 0.82041 0.25048 0.48047 0.0
C682 C 0.84664 0.24945 0.4619 0.0
C683 C 0.85056 0.24941 0.42946 0.0
C684 C 0.82964 0.24976 0.41554 0.0
C685 C 0.83856 0.25131 0.37979 0.0
C686 C 0.84044 0.22657 0.37041 0.0
C687 C 0.81859 0.27624 0.36115 0.0
C688 C 0.86747 0.25256 0.3756 0.0
C689 C 0.87402 0.25132 0.40459 0.0
C690 C 0.8986 0.2541 0.4066 0.0
C691 C 0.9169 0.25838 0.37826 0.0
C692 C 0.91063 0.25973 0.34829 0.0
C693 C 0.88576 0.2564 0.34708 0.0
H694 H 0.71658 0.0845 0.65141 0.0
H695 H 0.69731 0.11271 0.73951 0.0
H696 H 0.69503 0.15626 0.70852 0.0
H697 H 0.7608 0.12126 0.60688 0.0
H698 H 0.74829 0.12872 0.56961 0.0
H699 H 0.7479 0.09934 0.59831 0.0
H700 H 0.69451 0.1134 0.59838 0.0
H701 H 0.69472 0.14286 0.56967 0.0
H702 H 0.67085 0.14495 0.60699 0.0
H703 H 0.69514 0.19616 0.6698 0.0
H704 H 0.69847 0.23143 0.62459 0.0
H705 H 0.7181 0.17982 0.55881 0.0
C706 C 0.71194 0.09985 0.66414 0.0
C707 C 0.70724 0.09494 0.6981 0.0
C708 C 0.7011 0.11569 0.71369 0.0
C709 C 0.69967 0.14065 0.69626 0.0
C710 C 0.7044 0.14481 0.66307 0.0
C711 C 0.71044 0.12515 0.64697 0.0
C712 C 0.71484 0.13537 0.61094 0.0
C713 C 0.74474 0.12027 0.59553 0.0
C714 C 0.69239 0.13406 0.59559 0.0
C715 C 0.7108 0.16367 0.60954 0.0
C716 C 0.70458 0.16845 0.64009 0.0
C717 C 0.70001 0.1927 0.64574 0.0
C718 C 0.70205 0.21269 0.61961 0.0
C719 C 0.70875 0.20864 0.58776 0.0
C720 C 0.71298 0.18367 0.58272 0.0
H721 H 0.86631 1.00809 0.02285 0.0
H722 H 0.90787 0.05547 0.95004 0.0
H723 H 0.89014 0.04798 0.90849 0.0
H724 H 0.87453 0.96132 0.97501 0.0
H725 H 0.83983 0.96023 0.99063 0.0
H726 H 0.85836 0.96641 1.01498 0.0
H727 H 0.81656 1.0096 0.02325 0.0
H728 H 0.79771 1.00325 0.99956 0.0
H729 H 0.80366 0.03371 0.98886 0.0
H730 H 0.8679 0.03656 0.87508 0.0
H731 H 0.83391 0.02983 0.85222 0.0
H732 H 0.80303 0.99277 0.94619 0.0
C733 C 0.87146 1.01694 0.99814 0.0
C734 C 0.88822 0.03248 0.98957 0.0
C735 C 0.89464 0.04384 0.95711 0.0
C736 C 0.88511 0.03932 0.93328 0.0
C737 C 0.86888 0.02371 0.94236 0.0
C738 C 0.86144 1.01321 0.974 0.0
C739 C 0.84101 0.99977 0.97733 0.0
C740 C 0.85423 0.97018 0.99025 0.0
C741 C 0.81308 1.01235 0.99849 0.0
C742 C 0.83737 1.0053 0.94273 0.0
C743 C 0.85457 1.01821 0.92294 0.0
C744 C 0.85442 0.02632 0.89019 0.0
C745 C 0.83519 1.02226 0.87741 0.0
C746 C 0.81604 1.01068 0.89748 0.0
C747 C 0.81766 1.00146 0.9304 0.0
H748 H 0.01314 0.03229 0.08777 0.0
H749 H 0.05289 1.01205 0.995 0.0
H750 H 0.09679 1.01492 1.00156 0.0
H751 H 0.04602 0.07921 0.08066 0.0
H752 H 0.04936 0.07018 0.12238 0.0
H753 H 0.02086 0.06737 0.10979 0.0
H754 H 0.03607 1.01826 0.1373 0.0
H755 H 0.06422 1.02103 0.15043 0.0
H756 H 0.07188 0.99666 0.12743 0.0
H757 H 0.13722 1.01667 0.02033 0.0
H758 H 0.17128 1.01616 0.05056 0.0
H759 H 0.10378 0.0375 0.12936 0.0
C760 C 0.03114 0.02828 0.06894 0.0
C761 C 0.02987 1.02164 0.04108 0.0
C762 C 0.05361 1.01705 1.01662 0.0
C763 C 0.07851 1.0188 0.02004 0.0
C764 C 0.079 0.02565 0.04774 0.0
C765 C 0.0559 0.0304 0.07169 0.0
C766 C 0.06198 0.03681 0.09943 0.0
C767 C 0.04346 0.06507 0.10328 0.0
C768 C 0.05834 1.017 0.13046 0.0
C769 C 0.09251 0.03385 0.08795 0.0
C770 C 0.10191 0.0277 0.05793 0.0
C771 C 0.13002 1.02192 0.0436 0.0
C772 C 0.14918 1.02166 0.06087 0.0
C773 C 0.14 0.02719 0.092 0.0
C774 C 0.1112 0.03403 0.10521 0.0
H775 H -0.00466 0.47437 0.42525 0.0
H776 H 0.93198 0.46091 0.50566 0.0
H777 H 0.93146 0.42571 0.4847 0.0
H778 H -0.03231 0.46021 0.36561 0.0
H779 H 0.00228 0.44384 0.34528 0.0
H780 H -0.00339 0.46966 0.36509 0.0
H781 H 0.03614 0.4383 0.39818 0.0
H782 H 0.04184 0.41237 0.37861 0.0
H783 H 0.03412 0.40749 0.42158 0.0
H784 H 0.93938 0.3902 0.45819 0.0
H785 H 0.95465 0.35662 0.42568 0.0
H786 H 0.01268 0.39174 0.36131 0.0
C787 C -0.01895 0.46429 0.43807 0.0
C788 C -0.03618 0.47048 0.46722 0.0
C789 C 0.94564 0.45654 0.48346 0.0
C790 C 0.94505 0.43647 0.4717 0.0
C791 C -0.03738 0.43046 0.44344 0.0
C792 C -0.01983 0.44395 0.42659 0.0
C793 C -0.00235 0.43248 0.39742 0.0
C794 C -0.00937 0.45276 0.36652 0.0
C795 C 0.02931 0.42204 0.39906 0.0
C796 C -0.01253 0.41025 0.40106 0.0
C797 C -0.03284 0.40964 0.42777 0.0
C798 C 0.95514 0.39052 0.43706 0.0
C799 C -0.03589 0.37141 0.41858 0.0
C800 C -0.01509 0.37146 0.39105 0.0
C801 C -0.00344 0.39134 0.38207 0.0
H802 H 0.62093 0.27072 0.5614 0.0
H803 H 0.63649 0.33597 0.57504 0.0
H804 H 0.59468 0.34449 0.61684 0.0
H805 H 0.5421 0.30015 0.57774 0.0
H806 H 0.53935 0.269 0.59837 0.0
H807 H 0.56805 0.27036 0.56626 0.0
H808 H 0.60369 0.23844 0.60396 0.0
H809 H 0.57523 0.23718 0.63626 0.0
H810 H 0.60253 0.24668 0.64098 0.0
H811 H 0.55654 0.34167 0.66234 0.0
H812 H 0.52167 0.32973 0.70644 0.0
H813 H 0.52883 0.26761 0.66266 0.0
C814 C 0.61506 0.28731 0.57247 0.0
C815 C 0.63198 0.30274 0.56483 0.0
C816 C 0.62387 0.32391 0.58038 0.0
C817 C 0.60011 0.32894 0.60416 0.0
C818 C 0.58449 0.3128 0.61192 0.0
C819 C 0.59134 0.29263 0.59628 0.0
C820 C 0.57229 0.27696 0.61097 0.0
C821 C 0.55438 0.27927 0.58689 0.0
C822 C 0.58946 0.24812 0.6238 0.0
C823 C 0.55428 0.29099 0.63793 0.0
C824 C 0.56167 0.31165 0.63792 0.0
C825 C 0.55005 0.32598 0.66217 0.0
C826 C 0.53042 0.31899 0.68717 0.0
C827 C 0.52238 0.29807 0.68754 0.0
C828 C 0.53414 0.28413 0.66238 0.0
H829 H 0.72682 0.9471 0.84781 0.0
H830 H 0.66781 0.95008 0.79227 0.0
H831 H 0.66274 0.90995 0.82838 0.0
H832 H 0.76126 0.87661 0.86433 0.0
H833 H 0.76541 0.87501 0.90425 0.0
H834 H 0.7646 0.90385 0.87391 0.0
H835 H 0.72346 0.93251 0.90986 0.0
H836 H 0.72408 0.90378 0.94029 0.0
H837 H 0.69191 0.92493 0.92481 0.0
H838 H 0.6638 0.86961 0.87073 0.0
H839 H 0.67096 0.83193 0.91588 0.0
H840 H 0.72922 0.85495 0.94445 0.0
C841 C 0.71283 0.93934 0.84314 0.0
C842 C 0.69767 0.95189 0.81707 0.0
C843 C 0.67965 0.94095 0.81197 0.0
C844 C 0.67663 0.91812 0.83239 0.0
C845 C 0.69177 0.90635 0.85787 0.0
C846 C 0.70957 0.91655 0.86329 0.0
C847 C 0.72339 0.90012 0.89245 0.0
C848 C 0.75557 0.88819 0.88317 0.0
C849 C 0.71521 0.91631 0.91838 0.0
C850 C 0.71044 0.87915 0.90273 0.0
C851 C 0.69233 0.88312 0.88237 0.0
C852 C 0.67794 0.86634 0.88681 0.0
C853 C 0.68217 0.84493 0.91262 0.0
C854 C 0.70062 0.84036 0.93394 0.0
C855 C 0.71489 0.85786 0.92878 0.0
H856 H 0.14208 0.25321 0.09045 0.0
H857 H 0.1177 0.33533 0.04511 0.0
H858 H 0.07146 0.34455 0.08084 0.0
H859 H 0.07332 0.24731 0.10716 0.0
H860 H 0.07903 0.22636 0.14573 0.0
H861 H 0.10852 0.22599 0.11419 0.0
H862 H 0.13253 0.23629 0.15078 0.0
H863 H 0.10316 0.23671 0.18241 0.0
H864 H 0.11376 0.26473 0.16873 0.0
H865 H 0.02777 0.34424 0.12178 0.0
H866 H -0.00706 0.3357 0.16893 0.0
H867 H 0.04901 0.25482 0.19059 0.0
C868 C 0.12672 0.27303 0.08769 0.0
C869 C 0.13291 0.29354 0.06478 0.0
C870 C 0.11296 0.3194 0.06243 0.0
C871 C 0.08672 0.32475 0.08248 0.0
C872 C 0.08125 0.30404 0.10508 0.0
C873 C 0.10092 0.27877 0.10809 0.0
C874 C 0.09121 0.26047 0.13621 0.0
C875 C 0.08781 0.23876 0.12515 0.0
C876 C 0.11136 0.24889 0.16099 0.0
C877 C 0.063 0.27937 0.14869 0.0
C878 C 0.05728 0.30428 0.13004 0.0
C879 C 0.0321 0.32485 0.13665 0.0
C880 C 0.01246 0.31986 0.16331 0.0
C881 C 0.0186 0.29473 0.18328 0.0
C882 C 0.04407 0.27428 0.17577 0.0
H883 H 0.69968 0.44147 0.3201 0.0
H884 H 0.72245 0.47744 0.37891 0.0
H885 H 0.72316 0.44057 0.42335 0.0
H886 H 0.65442 0.41319 0.38564 0.0
H887 H 0.66567 0.3832 0.37151 0.0
H888 H 0.66547 0.4131 0.34354 0.0
H889 H 0.71821 0.39051 0.32214 0.0
H890 H 0.71858 0.36058 0.35006 0.0
H891 H 0.74329 0.37522 0.34959 0.0
H892 H 0.72411 0.40029 0.46069 0.0
H893 H 0.72443 0.35718 0.4909 0.0
H894 H 0.70036 0.34441 0.41132 0.0
C895 C 0.70449 0.44163 0.34247 0.0
C896 C 0.71112 0.46253 0.3457 0.0
C897 C 0.71752 0.4618 0.37539 0.0
C898 C 0.71789 0.44089 0.40104 0.0
C899 C 0.71174 0.42058 0.39706 0.0
C900 C 0.70504 0.42057 0.36876 0.0
C901 C 0.70008 0.39542 0.37144 0.0
C902 C 0.66959 0.4016 0.36782 0.0
C903 C 0.72131 0.37949 0.34684 0.0
C904 C 0.70543 0.38144 0.40545 0.0
C905 C 0.71205 0.39662 0.41948 0.0
C906 C 0.71881 0.38822 0.45012 0.0
C907 C 0.71904 0.36354 0.46705 0.0
C908 C 0.71247 0.34724 0.4536 0.0
C909 C 0.70523 0.35648 0.42238 0.0
H910 H 0.56271 1.0103 0.51318 0.0
H911 H 0.49365 0.05897 0.57221 0.0
H912 H 0.52301 0.08243 0.57426 0.0
H913 H 0.61079 0.99706 0.55791 0.0
H914 H 0.64027 0.99676 0.52631 0.0
H915 H 0.61161 0.99036 0.52001 0.0
H916 H 0.60528 0.02823 0.47012 0.0
H917 H 0.63389 0.03485 0.47702 0.0
H918 H 0.5999 0.06058 0.4741 0.0
H919 H 0.56033 0.09394 0.58029 0.0
H920 H 0.60298 0.08509 0.60077 0.0
H921 H 0.65107 0.02869 0.53966 0.0
C922 C 0.55379 0.02636 0.5258 0.0
C923 C 0.52595 0.03306 0.54229 0.0
C924 C 0.51492 0.05365 0.55929 0.0
C925 C 0.53133 0.06741 0.56011 0.0
C926 C 0.55899 0.06012 0.54418 0.0
C927 C 0.57034 0.03977 0.5277 0.0
C928 C 0.60205 0.0318 0.51917 0.0
C929 C 0.61703 1.00228 0.53164 0.0
C930 C 0.61079 0.03932 0.48295 0.0
C931 C 0.60692 0.04869 0.53665 0.0
C932 C 0.58165 0.06614 0.54899 0.0
C933 C 0.58031 0.08085 0.57019 0.0
C934 C 0.60487 0.07577 0.58163 0.0
C935 C 0.6303 0.05581 0.57219 0.0
C936 C 0.63179 0.04393 0.54732 0.0
H937 H 0.95257 0.98822 0.93991 0.0
H938 H 0.00312 0.93882 1.01403 0.0
H939 H 0.01412 0.9003 0.99138 0.0
H940 H 0.92363 0.9409 0.93789 0.0
H941 H 0.92436 0.94976 0.89525 0.0
H942 H 0.92037 0.97378 0.91706 0.0
H943 H -0.0361 0.98228 0.88027 0.0
H944 H -0.032 0.9583 0.85834 0.0
H945 H -0.00307 0.95521 0.87591 0.0
H946 H 0.0201 0.8672 0.96132 0.0
H947 H 0.02184 0.84108 0.92439 0.0
H948 H -0.0325 0.91088 0.86888 0.0
C949 C -0.03381 0.96933 0.95115 0.0
C950 C -0.02284 0.96662 0.97868 0.0
C951 C -0.00551 0.94147 0.99296 0.0
C952 C 0.00083 0.91941 0.98029 0.0
C953 C -0.01045 0.92267 0.95341 0.0
C954 C -0.02739 0.94693 0.93891 0.0
C955 C -0.0368 0.94473 0.91026 0.0
C956 C 0.93098 0.95277 0.91543 0.0
C957 C -0.02636 0.9611 0.87936 0.0
C958 C -0.02198 0.91552 0.91064 0.0
C959 C -0.00709 0.90328 0.93594 0.0
C960 C 0.00862 0.87654 0.94134 0.0
C961 C 0.0096 0.86189 0.92008 0.0
C962 C -0.00491 0.87389 0.89347 0.0
C963 C -0.02129 0.90108 0.88905 0.0
H964 H 0.052 0.12609 0.94073 0.0
H965 H -0.02425 0.19466 0.92853 0.0
H966 H 0.00019 0.22237 0.93278 0.0
H967 H 0.0731 0.14491 0.99871 0.0
H968 H 0.11019 0.13173 0.98354 0.0
H969 H 0.08683 0.11742 0.97909 0.0
H970 H 0.10337 0.12455 0.91785 0.0
H971 H 0.12693 0.13869 0.92212 0.0
H972 H 0.10122 0.15687 0.89566 0.0
H973 H 0.03323 0.24248 0.93724 0.0
H974 H 0.07249 0.25369 0.94226 0.0
H975 H 0.1267 0.17169 0.95278 0.0
C976 C 0.04058 0.14699 0.93856 0.0
C977 C 0.01212 0.15837 0.93401 0.0
C978 C -0.0024 0.18566 0.93202 0.0
C979 C 0.01128 0.20149 0.93439 0.0
C980 C 0.03934 0.18962 0.93903 0.0
C981 C 0.05381 0.16299 0.94118 0.0
C982 C 0.08373 0.15503 0.94658 0.0
C983 C 0.08874 0.13616 0.97891 0.0
C984 C 0.10506 0.14309 0.9189 0.0
C985 C 0.08396 0.18141 0.94677 0.0
C986 C 0.05817 0.2011 0.94235 0.0
C987 C 0.05349 0.22723 0.94081 0.0
C988 C 0.07588 0.23341 0.94357 0.0
C989 C 0.1025 0.21352 0.94796 0.0
C990 C 0.10644 0.1872 0.94987 0.0
H991 H 0.6285 0.59563 0.23587 0.0
H992 H 0.62468 0.5666 0.33823 0.0
H993 H 0.58135 0.60459 0.3475 0.0
H994 H 0.61019 0.66009 0.23769 0.0
H995 H 0.58902 0.67389 0.20621 0.0
H996 H 0.61675 0.64226 0.20689 0.0
H997 H 0.58116 0.62176 0.20618 0.0
H998 H 0.55327 0.65346 0.20513 0.0
H999 H 0.54996 0.62603 0.236 0.0
H1000 H 0.54394 0.64837 0.34633 0.0
H1001 H 0.51239 0.69459 0.33459 0.0
H1002 H 0.53875 0.69564 0.23301 0.0
C1003 C 0.61797 0.59681 0.26017 0.0
C1004 C 0.62987 0.57808 0.28634 0.0
C1005 C 0.61591 0.58066 0.31783 0.0
C1006 C 0.59123 0.60215 0.32335 0.0
C1007 C 0.58063 0.6208 0.29713 0.0
C1008 C 0.59328 0.61824 0.26611 0.0
C1009 C 0.57905 0.64234 0.24238 0.0
C1010 C 0.6 0.65541 0.22212 0.0
C1011 C 0.56502 0.63548 0.22117 0.0
C1012 C 0.55721 0.65922 0.26499 0.0
C1013 C 0.5584 0.64626 0.29644 0.0
C1014 C 0.5423 0.65854 0.32182 0.0
C1015 C 0.52461 0.68482 0.31493 0.0
C1016 C 0.52301 0.69849 0.28294 0.0
C1017 C 0.53916 0.68539 0.25766 0.0
H1018 H 0.33221 0.83831 0.57964 0.0
H1019 H 0.25982 0.86451 0.65208 0.0
H1020 H 0.28345 0.88753 0.66821 0.0
H1021 H 0.38539 0.82799 0.62526 0.0
H1022 H 0.40748 0.83989 0.59138 0.0
H1023 H 0.38522 0.82489 0.58578 0.0
H1024 H 0.36212 0.86637 0.54488 0.0
H1025 H 0.38441 0.88141 0.55025 0.0
H1026 H 0.34668 0.89784 0.55637 0.0
H1027 H 0.31411 0.90867 0.67566 0.0
H1028 H 0.34927 0.92768 0.67289 0.0
H1029 H 0.4025 0.88712 0.59647 0.0
C1030 C 0.32129 0.849 0.59878 0.0
C1031 C 0.29423 0.84941 0.61477 0.0
C1032 C 0.28074 0.8635 0.63985 0.0
C1033 C 0.29394 0.87674 0.64912 0.0
C1034 C 0.32067 0.87573 0.63311 0.0
C1035 C 0.33421 0.8623 0.60843 0.0
C1036 C 0.36274 0.86471 0.59491 0.0
C1037 C 0.38662 0.83776 0.59963 0.0
C1038 C 0.36405 0.8784 0.55951 0.0
C1039 C 0.36293 0.8818 0.61565 0.0
C1040 C 0.33851 0.88783 0.63759 0.0
C1041 C 0.33346 0.9039 0.65878 0.0
C1042 C 0.35374 0.91442 0.6572 0.0
C1043 C 0.37886 0.90882 0.63463 0.0
C1044 C 0.38352 0.89197 0.6139 0.0
H1045 H 0.03264 0.69719 0.73288 0.0
H1046 H 0.01872 0.70154 0.83271 0.0
H1047 H 0.05365 0.65671 0.84391 0.0
H1048 H 0.04461 0.62747 0.74494 0.0
H1049 H 0.07219 0.62244 0.71088 0.0
H1050 H 0.04418 0.65397 0.71107 0.0
H1051 H 0.08094 0.67599 0.70017 0.0
H1052 H 0.10901 0.64458 0.69986 0.0
H1053 H 0.10652 0.66449 0.7266 0.0
H1054 H 0.09126 0.61291 0.84401 0.0
H1055 H 0.13177 0.57344 0.83267 0.0
H1056 H 0.12275 0.59744 0.73232 0.0
C1057 C 0.03666 0.68852 0.75718 0.0
C1058 C 0.02288 0.7027 0.78202 0.0
C1059 C 0.02908 0.69098 0.81336 0.0
C1060 C 0.04874 0.6655 0.81998 0.0
C1061 C 0.0621 0.65211 0.79495 0.0
C1062 C 0.05653 0.66321 0.76413 0.0
C1063 C 0.07546 0.64529 0.74121 0.0
C1064 C 0.05806 0.63679 0.72614 0.0
C1065 C 0.09408 0.65837 0.71546 0.0
C1066 C 0.09277 0.62251 0.76397 0.0
C1067 C 0.08442 0.6268 0.79488 0.0
C1068 C 0.0979 0.60921 0.81996 0.0
C1069 C 0.12094 0.58686 0.81322 0.0
C1070 C 0.13041 0.58232 0.78161 0.0
C1071 C 0.11578 0.6002 0.75678 0.0
H1072 H 0.79484 0.37326 0.59856 0.0
H1073 H 0.85762 0.29489 0.59978 0.0
H1074 H 0.89283 0.30986 0.60827 0.0
H1075 H 0.84084 0.40752 0.55629 0.0
H1076 H 0.82422 0.43356 0.57845 0.0
H1077 H 0.80403 0.41637 0.57328 0.0
H1078 H 0.78979 0.40508 0.63471 0.0
H1079 H 0.81006 0.42215 0.64007 0.0
H1080 H 0.81685 0.3884 0.65966 0.0
H1081 H 0.92119 0.33371 0.61602 0.0
H1082 H 0.94126 0.3651 0.61929 0.0
H1083 H 0.85934 0.42748 0.61414 0.0
C1084 C 0.81592 0.35918 0.60093 0.0
C1085 C 0.82351 0.33289 0.59865 0.0
C1086 C 0.85146 0.31517 0.60122 0.0
C1087 C 0.87151 0.32344 0.60628 0.0
C1088 C 0.86324 0.34948 0.60863 0.0
C1089 C 0.83615 0.36711 0.60586 0.0
C1090 C 0.83281 0.39419 0.60825 0.0
C1091 C 0.82503 0.41407 0.57722 0.0
C1092 C 0.81109 0.40296 0.63741 0.0
C1093 C 0.86232 0.3891 0.61265 0.0
C1094 C 0.87952 0.36318 0.613 0.0
C1095 C 0.90787 0.35402 0.61599 0.0
C1096 C 0.91902 0.37195 0.61809 0.0
C1097 C 0.90186 0.39872 0.61708 0.0
C1098 C 0.87304 0.40718 0.61481 0.0
H1099 H 0.28657 0.94566 0.24333 0.0
H1100 H 0.30864 0.98886 0.29303 0.0
H1101 H 0.35563 0.95338 0.29567 0.0
H1102 H 0.31797 0.88333 0.28895 0.0
H1103 H 0.32922 0.86683 0.25583 0.0
H1104 H 0.29858 0.89646 0.2559 0.0
H1105 H 0.32056 0.91766 0.20126 0.0
H1106 H 0.35128 0.88804 0.20094 0.0
H1107 H 0.35503 0.91885 0.1969 0.0
H1108 H 0.39984 0.9117 0.29417 0.0
H1109 H 0.43614 0.86791 0.29017 0.0
H1110 H 0.38314 0.85272 0.24268 0.0
C1111 C 0.30125 0.94801 0.25451 0.0
C1112 C 0.2939 0.97022 0.26782 0.0
C1113 C 0.31384 0.97214 0.28248 0.0
C1114 C 0.34055 0.95208 0.28408 0.0
C1115 C 0.34687 0.93032 0.27096 0.0
C1116 C 0.32767 0.92827 0.25649 0.0
C1117 C 0.33871 0.90255 0.2455 0.0
C1118 C 0.32001 0.88634 0.26257 0.0
C1119 C 0.34157 0.90706 0.20898 0.0
C1120 C 0.36719 0.89016 0.25622 0.0
C1121 C 0.37171 0.90647 0.27063 0.0
C1122 C 0.3965 0.89887 0.2828 0.0
C1123 C 0.41702 0.87395 0.28035 0.0
C1124 C 0.41254 0.85682 0.26606 0.0
C1125 C 0.38729 0.86526 0.25373 0.0
H1126 H 0.30687 0.46406 0.78245 0.0
H1127 H 0.2779 0.46348 0.69909 0.0
H1128 H 0.32024 0.42491 0.68886 0.0
H1129 H 0.38485 0.43857 0.75094 0.0
H1130 H 0.39311 0.41866 0.78934 0.0
H1131 H 0.36327 0.4491 0.78701 0.0
H1132 H 0.33087 0.42443 0.82219 0.0
H1133 H 0.36043 0.39391 0.82436 0.0
H1134 H 0.32977 0.39732 0.80982 0.0
H1135 H 0.36028 0.38354 0.69208 0.0
H1136 H 0.3983 0.34158 0.70716 0.0
H1137 H 0.40307 0.36765 0.78831 0.0
C1138 C 0.31012 0.4563 0.76144 0.0
C1139 C 0.28948 0.46675 0.74127 0.0
C1140 C 0.29368 0.4557 0.71462 0.0
C1141 C 0.31766 0.43389 0.70858 0.0
C1142 C 0.33719 0.42336 0.72947 0.0
C1143 C 0.33394 0.43419 0.75525 0.0
C1144 C 0.35664 0.41717 0.77582 0.0
C1145 C 0.3756 0.43175 0.77576 0.0
C1146 C 0.34364 0.40765 0.81006 0.0
C1147 C 0.37245 0.39475 0.75809 0.0
C1148 C 0.3609 0.39896 0.7313 0.0
C1149 C 0.36995 0.3802 0.71257 0.0
C1150 C 0.39137 0.35638 0.72146 0.0
C1151 C 0.4036 0.35158 0.74871 0.0
C1152 C 0.39435 0.37114 0.76701 0.0
H1153 H 0.14472 0.79095 0.59876 0.0
H1154 H 0.12035 0.77201 0.52437 0.0
H1155 H 0.07441 0.77428 0.55841 0.0
H1156 H 0.11659 0.75101 0.66231 0.0
H1157 H 0.10568 0.77271 0.68987 0.0
H1158 H 0.1351 0.7725 0.65838 0.0
H1159 H 0.11088 0.82243 0.63835 0.0
H1160 H 0.08141 0.82286 0.66992 0.0
H1161 H 0.07571 0.8351 0.62894 0.0
H1162 H 0.032 0.77727 0.6014 0.0
H1163 H -0.00261 0.77809 0.65099 0.0
H1164 H 0.05131 0.79252 0.698 0.0
C1165 C 0.12946 0.78787 0.58932 0.0
C1166 C 0.13575 0.78175 0.55881 0.0
C1167 C 0.11571 0.77695 0.54765 0.0
C1168 C 0.08962 0.77826 0.56675 0.0
C1169 C 0.08423 0.78404 0.59695 0.0
C1170 C 0.10369 0.78859 0.60823 0.0
C1171 C 0.09385 0.79225 0.64244 0.0
C1172 C 0.114 0.77084 0.66454 0.0
C1173 C 0.09024 0.8198 0.64505 0.0
C1174 C 0.06577 0.78903 0.64876 0.0
C1175 C 0.06044 0.78462 0.62213 0.0
C1176 C 0.0359 0.7808 0.62235 0.0
C1177 C 0.01636 0.78136 0.65061 0.0
C1178 C 0.0217 0.78539 0.67832 0.0
C1179 C 0.04669 0.78935 0.67723 0.0
H1180 H 0.22788 0.94948 0.36374 0.0
H1181 H 0.16669 0.9551 0.3094 0.0
H1182 H 0.16069 0.91534 0.34536 0.0
H1183 H 0.26065 0.87904 0.37796 0.0
H1184 H 0.26629 0.87586 0.41775 0.0
H1185 H 0.2653 0.90527 0.38841 0.0
H1186 H 0.22574 0.93308 0.42644 0.0
H1187 H 0.22656 0.90375 0.4559 0.0
H1188 H 0.19398 0.92594 0.44198 0.0
H1189 H 0.16131 0.8749 0.38677 0.0
H1190 H 0.16951 0.83562 0.42955 0.0
H1191 H 0.23105 0.85473 0.45766 0.0
C1192 C 0.21308 0.94246 0.35948 0.0
C1193 C 0.19763 0.95568 0.33364 0.0
C1194 C 0.17876 0.94551 0.32888 0.0
C1195 C 0.17516 0.9229 0.34928 0.0
C1196 C 0.19067 0.91039 0.37441 0.0
C1197 C 0.20937 0.9197 0.37956 0.0
C1198 C 0.22396 0.90202 0.4079 0.0
C1199 C 0.25595 0.88982 0.39737 0.0
C1200 C 0.21715 0.9171 0.43464 0.0
C1201 C 0.21049 0.88136 0.4179 0.0
C1202 C 0.19129 0.88673 0.39823 0.0
C1203 C 0.17629 0.87053 0.4023 0.0
C1204 C 0.18114 0.84817 0.42683 0.0
C1205 C 0.20093 0.84185 0.44728 0.0
C1206 C 0.21566 0.85893 0.44271 0.0
H1207 H 0.92294 0.69082 0.61305 0.0
H1208 H -0.00772 0.64796 0.66713 0.0
H1209 H 0.00549 0.61022 0.64207 0.0
H1210 H 0.90291 0.63702 0.6198 0.0
H1211 H 0.89436 0.64642 0.58003 0.0
H1212 H 0.89142 0.67104 0.60024 0.0
H1213 H 0.92481 0.68739 0.55297 0.0
H1214 H 0.92781 0.66282 0.53258 0.0
H1215 H 0.95905 0.66455 0.54011 0.0
H1216 H 0.00942 0.57602 0.61445 0.0
H1217 H 0.00438 0.54764 0.58512 0.0
H1218 H 0.9328 0.61198 0.54796 0.0
C1219 C 0.94098 0.67355 0.61952 0.0
C1220 C 0.95667 0.67256 0.64198 0.0
C1221 C -0.01978 0.64953 0.64959 0.0
C1222 C -0.01218 0.62787 0.6356 0.0
C1223 C -0.02821 0.62943 0.61385 0.0
C1224 C 0.94896 0.65169 0.60565 0.0
C1225 C 0.93482 0.64781 0.58231 0.0
C1226 C 0.90406 0.65074 0.59645 0.0
C1227 C 0.93675 0.66677 0.55008 0.0
C1228 C 0.95291 0.6197 0.57928 0.0
C1229 C -0.02583 0.60958 0.59763 0.0
C1230 C -0.00705 0.58377 0.59988 0.0
C1231 C -0.01021 0.56775 0.58323 0.0
C1232 C -0.03188 0.57753 0.56434 0.0
C1233 C 0.94968 0.60401 0.56202 0.0
H1234 H 0.29813 0.74797 0.42287 0.0
H1235 H 0.31613 0.7651 0.50337 0.0
H1236 H 0.36221 0.76554 0.47257 0.0
H1237 H 0.37101 0.70612 0.39572 0.0
H1238 H 0.36712 0.71863 0.35421 0.0
H1239 H 0.33701 0.71683 0.38389 0.0
H1240 H 0.31015 0.76637 0.36459 0.0
H1241 H 0.34017 0.76837 0.33503 0.0
H1242 H 0.32568 0.78957 0.36361 0.0
H1243 H 0.40342 0.76949 0.43083 0.0
H1244 H 0.43795 0.77429 0.38214 0.0
H1245 H 0.39351 0.75322 0.32972 0.0
C1246 C 0.31194 0.75135 0.43431 0.0
C1247 C 0.30354 0.75648 0.46554 0.0
C1248 C 0.32219 0.76094 0.47953 0.0
C1249 C 0.3484 0.76125 0.46223 0.0
C1250 C 0.35572 0.75672 0.43119 0.0
C1251 C 0.33817 0.75155 0.4175 0.0
C1252 C 0.35021 0.74879 0.38319 0.0
C1253 C 0.35673 0.72093 0.37902 0.0
C1254 C 0.33037 0.76951 0.36027 0.0
C1255 C 0.37694 0.75395 0.37939 0.0
C1256 C 0.37979 0.75841 0.40737 0.0
C1257 C 0.4017 0.76556 0.40896 0.0
C1258 C 0.4211 0.76836 0.38117 0.0
C1259 C 0.41849 0.76388 0.3523 0.0
C1260 C 0.39633 0.75625 0.35162 0.0
H1261 H 0.2145 0.08575 0.1609 0.0
H1262 H 0.22505 0.10593 0.24368 0.0
H1263 H 0.22822 0.14744 0.21076 0.0
H1264 H 0.26201 0.11476 0.10211 0.0
H1265 H 0.24021 0.12712 0.07137 0.0
H1266 H 0.23967 0.09815 0.10089 0.0
H1267 H 0.18561 0.11981 0.11589 0.0
H1268 H 0.18601 0.14883 0.08643 0.0
H1269 H 0.17096 0.15123 0.12743 0.0
H1270 H 0.22919 0.18711 0.17033 0.0
H1271 H 0.22784 0.22325 0.12424 0.0
H1272 H 0.2163 0.17954 0.06566 0.0
C1273 C 0.21778 0.0988 0.17197 0.0
C1274 C 0.21959 0.09232 0.20508 0.0
C1275 C 0.2235 0.11023 0.21857 0.0
C1276 C 0.22539 0.13396 0.2 0.0
C1277 C 0.22326 0.13986 0.16774 0.0
C1278 C 0.21953 0.12292 0.15367 0.0
C1279 C 0.21714 0.13479 0.11848 0.0
C1280 C 0.24119 0.11768 0.09694 0.0
C1281 C 0.18821 0.13891 0.11166 0.0
C1282 C 0.22016 0.16092 0.11516 0.0
C1283 C 0.22368 0.16324 0.14401 0.0
C1284 C 0.22652 0.1855 0.14757 0.0
C1285 C 0.22567 0.20604 0.12107 0.0
C1286 C 0.22201 0.2045 0.091 0.0
C1287 C 0.21932 0.18142 0.08812 0.0
H1288 H 0.79499 0.74555 0.92523 0.0
H1289 H 0.80732 0.77275 1.00111 0.0
H1290 H 0.85155 0.77689 0.96885 0.0
H1291 H 0.87038 0.70872 0.89925 0.0
H1292 H 0.86603 0.71805 0.85782 0.0
H1293 H 0.83719 0.7144 0.88853 0.0
H1294 H 0.80551 0.76172 0.86613 0.0
H1295 H 0.83429 0.76567 0.83566 0.0
H1296 H 0.81677 0.78849 0.86224 0.0
H1297 H 0.89103 0.78356 0.92536 0.0
H1298 H 0.925 0.78828 0.87595 0.0
H1299 H 0.88719 0.7555 0.82967 0.0
C1300 C 0.80729 0.75179 0.93543 0.0
C1301 C 0.79769 0.75878 0.96571 0.0
C1302 C 0.81434 0.76707 0.97806 0.0
C1303 C 0.83947 0.76958 0.95988 0.0
C1304 C 0.8478 0.76337 0.92963 0.0
C1305 C 0.83244 0.75423 0.91775 0.0
C1306 C 0.8451 0.75016 0.88397 0.0
C1307 C 0.85529 0.7211 0.88231 0.0
C1308 C 0.82417 0.76755 0.86064 0.0
C1309 C 0.86959 0.75907 0.8784 0.0
C1310 C 0.87084 0.76663 0.90496 0.0
C1311 C 0.89058 0.77724 0.90461 0.0
C1312 C 0.90965 0.78 0.87642 0.0
C1313 C 0.90887 0.77203 0.84912 0.0
C1314 C 0.88863 0.76135 0.85033 0.0
H1315 H 0.20598 0.61528 0.71216 0.0
H1316 H 0.24148 0.55747 0.65171 0.0
H1317 H 0.24933 0.59108 0.60547 0.0
H1318 H 0.16918 0.66838 0.65313 0.0
H1319 H 0.17543 0.69334 0.66448 0.0
H1320 H 0.17352 0.66461 0.69364 0.0
H1321 H 0.22283 0.65499 0.70583 0.0
H1322 H 0.2249 0.68369 0.67667 0.0
H1323 H 0.25223 0.65216 0.67367 0.0
H1324 H 0.25327 0.6304 0.56541 0.0
H1325 H 0.25137 0.67367 0.53318 0.0
H1326 H 0.21216 0.7079 0.61767 0.0
C1327 C 0.21565 0.60968 0.68924 0.0
C1328 C 0.22325 0.58352 0.68578 0.0
C1329 C 0.23542 0.57722 0.65517 0.0
C1330 C 0.24005 0.59622 0.62867 0.0
C1331 C 0.23224 0.62173 0.63278 0.0
C1332 C 0.22013 0.62864 0.66218 0.0
C1333 C 0.21279 0.65786 0.65939 0.0
C1334 C 0.18084 0.67187 0.66818 0.0
C1335 C 0.22917 0.66244 0.68013 0.0
C1336 C 0.2228 0.66613 0.62392 0.0
C1337 C 0.23404 0.64483 0.60922 0.0
C1338 C 0.24454 0.64723 0.57667 0.0
C1339 C 0.24338 0.67202 0.55851 0.0
C1340 C 0.2317 0.69443 0.57267 0.0
C1341 C 0.22139 0.69126 0.60601 0.0
H1342 H 0.31297 0.02616 0.4039 0.0
H1343 H 0.25111 1.01774 0.48802 0.0
H1344 H 0.28272 1.01696 0.52188 0.0
H1345 H 0.37621 0.98528 0.44066 0.0
H1346 H 0.39488 1.00657 0.4178 0.0
H1347 H 0.36851 1.00358 0.40146 0.0
H1348 H 0.3427 0.05406 0.3928 0.0
H1349 H 0.36866 0.05705 0.40981 0.0
H1350 H 0.33187 0.07004 0.42634 0.0
H1351 H 0.32109 1.01791 0.54585 0.0
H1352 H 0.36279 1.02123 0.55809 0.0
H1353 H 0.39702 0.03216 0.45712 0.0
C1354 C 0.30642 0.02342 0.42955 0.0
C1355 C 0.27996 1.02155 0.44359 0.0
C1356 C 0.27153 1.01896 0.47705 0.0
C1357 C 0.28928 1.0185 0.49634 0.0
C1358 C 0.31508 1.02094 0.48157 0.0
C1359 C 0.3236 0.02331 0.44893 0.0
C1360 C 0.35145 0.0272 0.43856 0.0
C1361 C 0.37409 1.00429 0.42376 0.0
C1362 C 0.34847 0.05366 0.41552 0.0
C1363 C 0.35719 0.027 0.47042 0.0
C1364 C 0.33622 1.023 0.49503 0.0
C1365 C 0.33753 1.02121 0.52676 0.0
C1366 C 0.36115 1.02321 0.53345 0.0
C1367 C 0.38267 0.02744 0.50842 0.0
C1368 C 0.38047 0.02961 0.47658 0.0
H1369 H 0.8171 0.86106 0.05516 0.0
H1370 H 0.80195 0.81838 0.15175 0.0
H1371 H 0.83437 0.83218 0.1682 0.0
H1372 H 0.89262 0.84831 0.05401 0.0
H1373 H 0.88957 0.88064 0.03111 0.0
H1374 H 0.86797 0.86469 0.02611 0.0
H1375 H 0.82323 0.9046 0.03881 0.0
H1376 H 0.84463 0.92051 0.0441 0.0
H1377 H 0.81705 0.91522 0.07573 0.0
H1378 H 0.86406 0.85456 0.17545 0.0
H1379 H 0.88858 0.8841 0.17284 0.0
H1380 H 0.88585 0.91063 0.07108 0.0
C1381 C 0.82123 0.85403 0.07954 0.0
C1382 C 0.80707 0.83866 0.10219 0.0
C1383 C 0.81244 0.83037 0.13409 0.0
C1384 C 0.83097 0.83792 0.1436 0.0
C1385 C 0.84412 0.85358 0.12085 0.0
C1386 C 0.83965 0.8614 0.08942 0.0
C1387 C 0.85464 0.87985 0.07027 0.0
C1388 C 0.87757 0.86763 0.04381 0.0
C1389 C 0.83362 0.90662 0.05644 0.0
C1390 C 0.86741 0.88186 0.09609 0.0
C1391 C 0.86143 0.86633 0.12501 0.0
C1392 C 0.86935 0.86643 0.15281 0.0
C1393 C 0.88336 0.88319 0.15109 0.0
C1394 C 0.88911 0.89969 0.12179 0.0
C1395 C 0.88158 0.89842 0.0939 0.0
H1396 H 0.64042 0.1622 0.45294 0.0
H1397 H 0.57613 0.24017 0.44236 0.0
H1398 H 0.54298 0.22245 0.43468 0.0
H1399 H 0.62484 0.14077 0.39425 0.0
H1400 H 0.6308 0.10776 0.41643 0.0
H1401 H 0.64916 0.12626 0.42255 0.0
H1402 H 0.6298 0.11877 0.48327 0.0
H1403 H 0.61171 0.09999 0.47724 0.0
H1404 H 0.59234 0.12771 0.49631 0.0
H1405 H 0.51768 0.19673 0.42577 0.0
H1406 H 0.50064 0.16407 0.41986 0.0
H1407 H 0.58164 0.10293 0.43564 0.0
C1408 C 0.61932 0.17547 0.44914 0.0
C1409 C 0.61075 0.20253 0.44822 0.0
C1410 C 0.58294 0.21933 0.44345 0.0
C1411 C 0.56406 0.20948 0.43891 0.0
C1412 C 0.57327 0.18277 0.43952 0.0
C1413 C 0.60011 0.16592 0.44491 0.0
C1414 C 0.60467 0.13803 0.44442 0.0
C1415 C 0.62879 0.12761 0.41782 0.0
C1416 C 0.60993 0.12008 0.47726 0.0
C1417 C 0.57643 0.14199 0.43715 0.0
C1418 C 0.5586 0.16791 0.43452 0.0
C1419 C 0.53142 0.17636 0.42779 0.0
C1420 C 0.52205 0.15772 0.42414 0.0
C1421 C 0.53985 0.13098 0.42716 0.0
C1422 C 0.56746 0.12317 0.43348 0.0
H1423 H 0.79183 0.45625 0.23539 0.0
H1424 H 0.81478 0.49102 0.29524 0.0
H1425 H 0.86042 0.4535 0.29737 0.0
H1426 H 0.81651 0.39271 0.27763 0.0
H1427 H 0.82825 0.37776 0.24313 0.0
H1428 H 0.79974 0.40891 0.24262 0.0
H1429 H 0.82665 0.42941 0.19156 0.0
H1430 H 0.85521 0.39821 0.19168 0.0
H1431 H 0.86198 0.42681 0.19144 0.0
H1432 H 0.90214 0.40974 0.29591 0.0
H1433 H 0.93484 0.36452 0.29215 0.0
H1434 H 0.88177 0.3589 0.23557 0.0
C1435 C 0.80651 0.45643 0.24857 0.0
C1436 C 0.79967 0.47672 0.2651 0.0
C1437 C 0.81962 0.47584 0.28215 0.0
C1438 C 0.84555 0.45458 0.28352 0.0
C1439 C 0.85109 0.43451 0.26768 0.0
C1440 C 0.83204 0.43543 0.25046 0.0
C1441 C 0.8415 0.41073 0.23764 0.0
C1442 C 0.82024 0.39671 0.25107 0.0
C1443 C 0.84665 0.41665 0.2009 0.0
C1444 C 0.86876 0.39532 0.25077 0.0
C1445 C 0.87425 0.4094 0.26766 0.0
C1446 C 0.89806 0.39871 0.28255 0.0
C1447 C 0.91652 0.37299 0.28026 0.0
C1448 C 0.91083 0.35813 0.26359 0.0
C1449 C 0.88671 0.36966 0.24853 0.0
H1450 H 0.06633 0.62249 0.42589 0.0
H1451 H -0.00771 0.68987 0.40052 0.0
H1452 H 0.01707 0.71934 0.39794 0.0
H1453 H 0.08465 0.64904 0.47674 0.0
H1454 H 0.12213 0.63427 0.46467 0.0
H1455 H 0.09912 0.61872 0.46256 0.0
H1456 H 0.11894 0.61904 0.40248 0.0
H1457 H 0.14215 0.63449 0.40439 0.0
H1458 H 0.11828 0.64951 0.37561 0.0
H1459 H 0.04922 0.74126 0.40185 0.0
H1460 H 0.087 0.75378 0.40872 0.0
H1461 H 0.13955 0.67166 0.43127 0.0
C1462 C 0.05537 0.64346 0.41964 0.0
C1463 C 0.02739 0.65397 0.41347 0.0
C1464 C 0.01382 0.68147 0.40505 0.0
C1465 C 0.02767 0.69831 0.4037 0.0
C1466 C 0.05512 0.68726 0.41052 0.0
C1467 C 0.06888 0.66045 0.41801 0.0
C1468 C 0.09814 0.65341 0.42485 0.0
C1469 C 0.10117 0.63796 0.45925 0.0
C1470 C 0.12071 0.63822 0.40037 0.0
C1471 C 0.0986 0.68048 0.42053 0.0
C1472 C 0.07363 0.69978 0.41228 0.0
C1473 C 0.06894 0.7263 0.40803 0.0
C1474 C 0.09041 0.73322 0.41215 0.0
C1475 C 0.11623 0.71369 0.42028 0.0
C1476 C 0.12023 0.68703 0.42449 0.0
H1477 H 0.62218 0.09605 0.72684 0.0
H1478 H 0.6215 0.06316 0.82827 0.0
H1479 H 0.58522 0.10468 0.84065 0.0
H1480 H 0.61649 0.15818 0.73027 0.0
H1481 H 0.59356 0.17599 0.7007 0.0
H1482 H 0.61727 0.14284 0.69928 0.0
H1483 H 0.57549 0.12921 0.70101 0.0
H1484 H 0.55166 0.16246 0.70175 0.0
H1485 H 0.54571 0.13603 0.73256 0.0
H1486 H 0.5533 0.15107 0.84215 0.0
H1487 H 0.52272 0.19786 0.83258 0.0
H1488 H 0.54313 0.20034 0.73038 0.0
C1489 C 0.61377 0.09729 0.75164 0.0
C1490 C 0.62464 0.07631 0.77658 0.0
C1491 C 0.61347 0.07894 0.80875 0.0
C1492 C 0.59292 0.10249 0.81605 0.0
C1493 C 0.58357 0.12316 0.79094 0.0
C1494 C 0.59318 0.12068 0.75939 0.0
C1495 C 0.58037 0.14626 0.73695 0.0
C1496 C 0.60329 0.1564 0.71555 0.0
C1497 C 0.56223 0.14331 0.71689 0.0
C1498 C 0.5624 0.16352 0.76085 0.0
C1499 C 0.56469 0.14986 0.79185 0.0
C1500 C 0.551 0.16192 0.818 0.0
C1501 C 0.53389 0.18853 0.81233 0.0
C1502 C 0.53047 0.20265 0.78079 0.0
C1503 C 0.54516 0.18997 0.75479 0.0
H1504 H 0.71986 0.58696 0.16036 0.0
H1505 H 0.71999 0.61502 0.24236 0.0
H1506 H 0.72076 0.65653 0.20777 0.0
H1507 H 0.76649 0.61833 0.10348 0.0
H1508 H 0.74769 0.62702 0.07064 0.0
H1509 H 0.74786 0.59853 0.1014 0.0
H1510 H 0.69333 0.61673 0.11153 0.0
H1511 H 0.69299 0.64529 0.08086 0.0
H1512 H 0.67462 0.64896 0.12066 0.0
H1513 H 0.7199 0.69539 0.16639 0.0
H1514 H 0.71837 0.7303 0.11884 0.0
H1515 H 0.71943 0.67938 0.06097 0.0
C1516 C 0.72031 0.60177 0.17091 0.0
C1517 C 0.7198 0.59748 0.20432 0.0
C1518 C 0.72019 0.61758 0.21706 0.0
C1519 C 0.7207 0.64137 0.19755 0.0
C1520 C 0.72089 0.64511 0.16505 0.0
C1521 C 0.72079 0.626 0.15157 0.0
C1522 C 0.72057 0.63585 0.11572 0.0
C1523 C 0.74725 0.61892 0.09668 0.0
C1524 C 0.69378 0.63676 0.10666 0.0
C1525 C 0.72048 0.66336 0.1115 0.0
C1526 C 0.72063 0.66806 0.14048 0.0
C1527 C 0.71992 0.69196 0.14347 0.0
C1528 C 0.71897 0.71175 0.11619 0.0
C1529 C 0.71883 0.70774 0.08596 0.0
C1530 C 0.71977 0.68304 0.08362 0.0
H1531 H 0.90127 0.51265 0.47842 0.0
H1532 H 0.85608 0.5596 0.55064 0.0
H1533 H 0.81093 0.55969 0.54241 0.0
H1534 H 0.85699 0.5436 0.4252 0.0
H1535 H 0.8603 0.51501 0.41229 0.0
H1536 H 0.8885 0.51465 0.42847 0.0
H1537 H 0.88653 0.47348 0.47089 0.0
H1538 H 0.85812 0.47357 0.45504 0.0
H1539 H 0.8539 0.47391 0.49676 0.0
H1540 H 0.77098 0.56097 0.51869 0.0
H1541 H 0.74034 0.56274 0.48316 0.0
H1542 H 0.81315 0.51364 0.42806 0.0
C1543 C 0.88189 0.52242 0.49305 0.0
C1544 C 0.88179 0.53631 0.51491 0.0
C1545 C 0.8563 0.54886 0.53379 0.0
C1546 C 0.83073 0.54887 0.52933 0.0
C1547 C 0.83146 0.53557 0.50667 0.0
C1548 C 0.85658 0.52215 0.48932 0.0
C1549 C 0.85198 0.5114 0.46438 0.0
C1550 C 0.8652 0.52182 0.43062 0.0
C1551 C 0.86329 0.4813 0.47226 0.0
C1552 C 0.82023 0.52242 0.4687 0.0
C1553 C 0.80864 0.53582 0.49361 0.0
C1554 C 0.7798 0.55 0.49967 0.0
C1555 C 0.7626 0.55103 0.47927 0.0
C1556 C 0.77438 0.53813 0.45302 0.0
C1557 C 0.8034 0.52303 0.44846 0.0
H1558 H 0.12725 0.53403 0.57737 0.0
H1559 H 0.17081 0.44992 0.59657 0.0
H1560 H 0.14723 0.44573 0.55782 0.0
H1561 H 0.06535 0.53424 0.57948 0.0
H1562 H 0.05353 0.56184 0.54768 0.0
H1563 H 0.08017 0.55953 0.56798 0.0
H1564 H 0.11382 0.56285 0.51412 0.0
H1565 H 0.08694 0.56543 0.49353 0.0
H1566 H 0.12147 0.5404 0.4884 0.0
H1567 H 0.10924 0.44896 0.53252 0.0
H1568 H 0.06281 0.46024 0.51765 0.0
H1569 H 0.0453 0.54245 0.51114 0.0
C1570 C 0.13298 0.51498 0.57192 0.0
C1571 C 0.15072 0.49232 0.58977 0.0
C1572 C 0.15715 0.46749 0.58304 0.0
C1573 C 0.14401 0.46495 0.56093 0.0
C1574 C 0.12492 0.48749 0.54533 0.0
C1575 C 0.11996 0.51219 0.54984 0.0
C1576 C 0.09519 0.53271 0.53444 0.0
C1577 C 0.07224 0.54792 0.55886 0.0
C1578 C 0.10495 0.55145 0.50592 0.0
C1579 C 0.08545 0.51537 0.52339 0.0
C1580 C 0.10321 0.48942 0.52921 0.0
C1581 C 0.09578 0.46929 0.5265 0.0
C1582 C 0.06933 0.4758 0.51831 0.0
C1583 C 0.05085 0.50219 0.51278 0.0
C1584 C 0.0595 0.52218 0.51419 0.0
H1585 H 0.55424 0.79785 0.1989 0.0
H1586 H 0.49281 0.79108 0.15553 0.0
H1587 H 0.52416 0.79203 0.10343 0.0
H1588 H 0.57638 0.8429 0.12965 0.0
H1589 H 0.61258 0.82833 0.13602 0.0
H1590 H 0.58466 0.82832 0.16949 0.0
H1591 H 0.6077 0.7778 0.18572 0.0
H1592 H 0.63561 0.77766 0.15232 0.0
H1593 H 0.61501 0.75787 0.15698 0.0
H1594 H 0.56501 0.78773 0.05804 0.0
H1595 H 0.61022 0.7838 0.02126 0.0
H1596 H 0.64229 0.79814 0.09291 0.0
C1597 C 0.5473 0.7969 0.17831 0.0
C1598 C 0.52124 0.79435 0.18111 0.0
C1599 C 0.51269 0.79322 0.15374 0.0
C1600 C 0.53035 0.79368 0.12411 0.0
C1601 C 0.55614 0.79587 0.12218 0.0
C1602 C 0.56435 0.79798 0.14841 0.0
C1603 C 0.59318 0.79993 0.14006 0.0
C1604 C 0.59159 0.82645 0.14403 0.0
C1605 C 0.6141 0.77695 0.15995 0.0
C1606 C 0.6002 0.79791 0.10527 0.0
C1607 C 0.57872 0.79532 0.09541 0.0
C1608 C 0.58167 0.79048 0.06516 0.0
C1609 C 0.60731 0.78824 0.0445 0.0
C1610 C 0.62916 0.79145 0.0541 0.0
C1611 C 0.62541 0.79658 0.08467 0.0
H1612 H 0.60072 0.53743 0.14191 0.0
H1613 H 0.66753 0.51895 0.0617 0.0
H1614 H 0.6338 0.51792 0.03223 0.0
H1615 H 0.57234 0.49423 0.1408 0.0
H1616 H 0.53597 0.51408 0.15169 0.0
H1617 H 0.56331 0.51892 0.16384 0.0
H1618 H 0.54554 0.56798 0.13631 0.0
H1619 H 0.51759 0.56344 0.1248 0.0
H1620 H 0.54116 0.57685 0.09492 0.0
H1621 H 0.59389 0.51426 1.01435 0.0
H1622 H 0.55095 0.50884 1.00912 0.0
H1623 H 0.51199 0.52705 0.10298 0.0
C1624 C 0.60797 0.53432 0.11759 0.0
C1625 C 0.63651 0.52872 0.10375 0.0
C1626 C 0.6456 0.52356 0.07245 0.0
C1627 C 0.62662 0.52297 0.05561 0.0
C1628 C 0.5988 0.5275 0.07056 0.0
C1629 C 0.58947 0.53333 0.10076 0.0
C1630 C 0.55954 0.53453 0.1131 0.0
C1631 C 0.55771 0.51422 0.14418 0.0
C1632 C 0.5398 0.56236 0.11753 0.0
C1633 C 0.5538 0.5275 0.08566 0.0
C1634 C 0.57641 0.52405 0.06105 0.0
C1635 C 0.576 0.51709 0.03338 0.0
C1636 C 0.55167 0.51388 0.03072 0.0
C1637 C 0.52846 0.51714 0.05588 0.0
C1638 C 0.52965 0.52396 0.08364 0.0
H1639 H 0.39227 0.40478 0.08911 0.0
H1640 H 0.40789 0.36319 0.18511 0.0
H1641 H 0.38141 0.33604 0.18466 0.0
H1642 H 0.32322 0.40893 0.09974 0.0
H1643 H 0.32493 0.40451 0.0603 0.0
H1644 H 0.34773 0.41843 0.06685 0.0
H1645 H 0.39133 0.38256 0.04311 0.0
H1646 H 0.36865 0.36849 0.03638 0.0
H1647 H 0.39661 0.34852 0.05951 0.0
H1648 H 0.35008 0.31626 0.17533 0.0
H1649 H 0.31575 0.30534 0.15813 0.0
H1650 H 0.3208 0.36011 0.0682 0.0
C1651 C 0.39086 0.38944 0.1097 0.0
C1652 C 0.40238 0.38583 0.13704 0.0
C1653 C 0.39921 0.36621 0.16395 0.0
C1654 C 0.38438 0.35064 0.16381 0.0
C1655 C 0.37297 0.35498 0.13658 0.0
C1656 C 0.37614 0.37384 0.10997 0.0
C1657 C 0.36013 0.37598 0.08465 0.0
C1658 C 0.33767 0.40359 0.07749 0.0
C1659 C 0.3804 0.36843 0.05411 0.0
C1660 C 0.34686 0.35577 0.10147 0.0
C1661 C 0.35475 0.3437 0.13126 0.0
C1662 C 0.34397 0.32538 0.15195 0.0
C1663 C 0.32438 0.31944 0.14207 0.0
C1664 C 0.3157 0.3319 0.11186 0.0
C1665 C 0.32744 0.34999 0.09118 0.0
H1666 H 0.03967 0.19353 0.30556 0.0
H1667 H -0.00177 0.19488 0.23113 0.0
H1668 H 0.03098 0.15019 0.22673 0.0
H1669 H 0.10854 0.16059 0.27103 0.0
H1670 H 0.1207 0.14118 0.30805 0.0
H1671 H 0.09233 0.17245 0.30771 0.0
H1672 H 0.06053 0.15039 0.35022 0.0
H1673 H 0.08888 0.11901 0.3507 0.0
H1674 H 0.05511 0.12341 0.34269 0.0
H1675 H 0.0712 0.10757 0.22578 0.0
H1676 H 0.11537 0.06895 0.23029 0.0
H1677 H 0.12966 0.09395 0.30675 0.0
C1678 C 0.03714 0.18427 0.28876 0.0
C1679 C 0.01633 0.19786 0.2687 0.0
C1680 C 0.01399 0.18503 0.24677 0.0
C1681 C 0.03246 0.15954 0.24411 0.0
C1682 C 0.05304 0.14691 0.26375 0.0
C1683 C 0.05537 0.15869 0.28586 0.0
C1684 C 0.08033 0.14122 0.30287 0.0
C1685 C 0.10174 0.15466 0.29705 0.0
C1686 C 0.07062 0.13302 0.33875 0.0
C1687 C 0.09199 0.11814 0.2863 0.0
C1688 C 0.07588 0.1218 0.26385 0.0
C1689 C 0.08369 0.10418 0.24372 0.0
C1690 C 0.10881 0.08236 0.2464 0.0
C1691 C 0.12562 0.07825 0.26921 0.0
C1692 C 0.11681 0.09621 0.28969 0.0
H1693 H 0.24031 0.35212 0.95044 0.0
H1694 H 0.16817 0.34101 0.9344 0.0
H1695 H 0.15838 0.38157 0.89357 0.0
H1696 H 0.20961 0.42295 0.9399 0.0
H1697 H 0.24167 0.42803 0.91892 0.0
H1698 H 0.24329 0.39812 0.94752 0.0
H1699 H 0.27461 0.37109 0.90441 0.0
H1700 H 0.27315 0.4009 0.87568 0.0
H1701 H 0.26242 0.37745 0.86722 0.0
H1702 H 0.15558 0.42308 0.85497 0.0
H1703 H 0.16099 0.46267 0.81873 0.0
H1704 H 0.23549 0.44815 0.85728 0.0
C1705 C 0.2224 0.35829 0.9384 0.0
C1706 C 0.20495 0.34324 0.9459 0.0
C1707 C 0.18191 0.35198 0.92926 0.0
C1708 C 0.17609 0.37512 0.90599 0.0
C1709 C 0.19356 0.38945 0.89921 0.0
C1710 C 0.21637 0.3814 0.91468 0.0
C1711 C 0.232 0.40044 0.90201 0.0
C1712 C 0.23161 0.41314 0.92868 0.0
C1713 C 0.26234 0.38665 0.8864 0.0
C1714 C 0.21425 0.42042 0.8772 0.0
C1715 C 0.19218 0.41357 0.87623 0.0
C1716 C 0.17281 0.42865 0.85547 0.0
C1717 C 0.17609 0.45122 0.83492 0.0
C1718 C 0.19865 0.45878 0.83496 0.0
C1719 C 0.21794 0.44309 0.85664 0.0
H1720 H 0.30361 0.28907 0.9672 0.0
H1721 H 0.30399 0.21325 0.9659 0.0
H1722 H 0.34849 0.20508 0.92772 0.0
H1723 H 0.32368 0.30551 0.8861 0.0
H1724 H 0.3454 0.32266 0.88753 0.0
H1725 H 0.31691 0.32069 0.91952 0.0
H1726 H 0.35151 0.30012 0.96054 0.0
H1727 H 0.38014 0.30231 0.92867 0.0
H1728 H 0.38227 0.27124 0.95484 0.0
H1729 H 0.38847 0.20738 0.88513 0.0
H1730 H 0.4224 0.21961 0.84038 0.0
H1731 H 0.39607 0.29484 0.86705 0.0
C1732 C 0.31382 0.27035 0.95982 0.0
C1733 C 0.30097 0.25144 0.96992 0.0
C1734 C 0.31395 0.22767 0.95874 0.0
C1735 C 0.33916 0.2229 0.9371 0.0
C1736 C 0.35092 0.24224 0.92669 0.0
C1737 C 0.33881 0.26549 0.93768 0.0
C1738 C 0.35392 0.28422 0.91969 0.0
C1739 C 0.33378 0.30976 0.90218 0.0
C1740 C 0.36779 0.28979 0.94229 0.0
C1741 C 0.37587 0.26811 0.89635 0.0
C1742 C 0.37391 0.24386 0.90117 0.0
C1743 C 0.39055 0.22613 0.88141 0.0
C1744 C 0.40967 0.23335 0.85591 0.0
C1745 C 0.41199 0.25815 0.85026 0.0
C1746 C 0.39506 0.27561 0.87104 0.0
H1747 H 0.36394 0.50197 0.03745 0.0
H1748 H 0.41265 0.54585 0.97056 0.0
H1749 H 0.39948 0.53832 0.9256 0.0
H1750 H 0.37373 0.45518 0.9882 0.0
H1751 H 0.33766 0.45708 0.99917 0.0
H1752 H 0.35442 0.4618 0.02675 0.0
H1753 H 0.31465 0.50698 0.03067 0.0
H1754 H 0.29759 0.50213 1.00363 0.0
H1755 H 0.30637 0.53102 0.9946 0.0
H1756 H 0.38094 0.52762 0.88809 0.0
H1757 H 0.34821 0.52446 0.85967 0.0
H1758 H 0.30647 0.49199 0.94956 0.0
C1759 C 0.37175 0.50989 1.01328 0.0
C1760 C 0.38944 0.52427 1.00738 0.0
C1761 C 0.399 0.5348 0.97558 0.0
C1762 C 0.39202 0.53029 0.94985 0.0
C1763 C 0.37486 0.51578 0.95629 0.0
C1764 C 0.36404 0.50644 0.98712 0.0
C1765 C 0.34254 0.4951 0.98707 0.0
C1766 C 0.35271 0.46553 1.00112 0.0
C1767 C 0.31358 0.50969 1.00504 0.0
C1768 C 0.34236 0.50046 0.95145 0.0
C1769 C 0.36215 0.51131 0.93425 0.0
C1770 C 0.36541 0.51904 0.90115 0.0
C1771 C 0.34687 0.517 0.8852 0.0
C1772 C 0.32499 0.5079 0.90249 0.0
C1773 C 0.32326 0.49875 0.9359 0.0
H1774 H 0.63604 0.66457 0.93104 0.0
H1775 H 0.57901 0.73211 0.97195 0.0
H1776 H 0.53859 0.72067 0.97157 0.0
H1777 H 0.59063 0.66841 0.87883 0.0
H1778 H 0.60099 0.63337 0.88508 0.0
H1779 H 0.62534 0.6473 0.88778 0.0
H1780 H 0.63105 0.6194 0.94485 0.0
H1781 H 0.60684 0.60532 0.94225 0.0
H1782 H 0.60019 0.62138 0.97483 0.0
H1783 H 0.50456 0.70143 0.96751 0.0
H1784 H 0.47969 0.6743 0.96288 0.0
H1785 H 0.55904 0.61987 0.92386 0.0
C1786 C 0.61502 0.67709 0.93961 0.0
C1787 C 0.61061 0.69922 0.9515 0.0
C1788 C 0.58284 0.7149 0.96304 0.0
C1789 C 0.55976 0.70869 0.96268 0.0
C1790 C 0.56485 0.68677 0.95069 0.0
C1791 C 0.59179 0.67115 0.93951 0.0
C1792 C 0.59164 0.64818 0.92893 0.0
C1793 C 0.60281 0.6494 0.89302 0.0
C1794 C 0.60842 0.62203 0.94891 0.0
C1795 C 0.56042 0.6532 0.93615 0.0
C1796 C 0.54528 0.67566 0.94845 0.0
C1797 C 0.51615 0.68391 0.95767 0.0
C1798 C 0.50219 0.6685 0.95473 0.0
C1799 C 0.51745 0.64509 0.94286 0.0
C1800 C 0.54687 0.63765 0.93307 0.0
H1801 H 0.87287 0.84722 0.73995 0.0
H1802 H 0.93455 0.87396 0.75437 0.0
H1803 H 0.89946 0.91888 0.7506 0.0
H1804 H 0.83874 0.9057 0.68332 0.0
H1805 H 0.80415 0.90445 0.69941 0.0
H1806 H 0.83472 0.87464 0.70128 0.0
H1807 H 0.82037 0.86306 0.76269 0.0
H1808 H 0.7898 0.89279 0.76099 0.0
H1809 H 0.81466 0.88622 0.78666 0.0
H1810 H 0.85645 0.96024 0.74973 0.0
H1811 H 0.80902 0.99503 0.74993 0.0
H1812 H 0.77655 0.94121 0.73436 0.0
C1813 C 0.87915 0.86254 0.74194 0.0
C1814 C 0.90649 0.85703 0.74739 0.0
C1815 C 0.91376 0.87767 0.75005 0.0
C1816 C 0.89398 0.9033 0.74794 0.0
C1817 C 0.86712 0.908 0.74293 0.0
C1818 C 0.85975 0.88823 0.73975 0.0
C1819 C 0.82921 0.89824 0.73567 0.0
C1820 C 0.82656 0.8956 0.70297 0.0
C1821 C 0.81254 0.88425 0.76314 0.0
C1822 C 0.82049 0.92662 0.73746 0.0
C1823 C 0.8426 0.93192 0.74168 0.0
C1824 C 0.83905 0.95646 0.74594 0.0
C1825 C 0.81209 0.97606 0.74607 0.0
C1826 C 0.78922 0.97092 0.74178 0.0
C1827 C 0.7937 0.94594 0.73709 0.0
H1828 H 0.44203 0.14825 0.67001 0.0
H1829 H 0.43421 0.21372 0.58941 0.0
H1830 H 0.43055 0.1875 0.55587 0.0
H1831 H 0.48514 0.09792 0.62406 0.0
H1832 H 0.46907 0.07473 0.64763 0.0
H1833 H 0.4707 0.09877 0.66553 0.0
H1834 H 0.41653 0.11474 0.68296 0.0
H1835 H 0.41466 0.09094 0.66484 0.0
H1836 H 0.39394 0.12516 0.65335 0.0
H1837 H 0.4287 0.15426 0.53073 0.0
H1838 H 0.43118 0.11524 0.51466 0.0
H1839 H 0.43969 0.07103 0.6114 0.0
C1840 C 0.43983 0.157 0.64523 0.0
C1841 C 0.43822 0.18317 0.63243 0.0
C1842 C 0.43504 0.1939 0.59993 0.0
C1843 C 0.43301 0.17914 0.58065 0.0
C1844 C 0.4342 0.15361 0.59414 0.0
C1845 C 0.43775 0.14251 0.62559 0.0
C1846 C 0.43895 0.11444 0.6339 0.0
C1847 C 0.46767 0.09534 0.64333 0.0
C1848 C 0.41456 0.11114 0.66033 0.0
C1849 C 0.43545 0.11155 0.60222 0.0
C1850 C 0.43277 0.13442 0.57965 0.0
C1851 C 0.43059 0.1363 0.54823 0.0
C1852 C 0.43194 0.11403 0.53937 0.0
C1853 C 0.43531 0.09016 0.56184 0.0
C1854 C 0.43642 0.08915 0.59388 0.0
H1855 H 0.46579 0.4053 0.88597 0.0
H1856 H 0.50185 0.3334 0.95281 0.0
H1857 H 0.50061 0.3591 0.98993 0.0
H1858 H 0.5022 0.44099 0.89862 0.0
H1859 H 0.47307 0.47193 0.89677 0.0
H1860 H 0.47514 0.44828 0.87555 0.0
H1861 H 0.42551 0.44917 0.90481 0.0
H1862 H 0.4233 0.47307 0.92574 0.0
H1863 H 0.41852 0.44303 0.94785 0.0
H1864 H 0.49877 0.39166 1.01824 0.0
H1865 H 0.49266 0.4298 0.0387 0.0
H1866 H 0.45579 0.48167 0.95541 0.0
C1867 C 0.47294 0.395 0.90866 0.0
C1868 C 0.4843 0.36724 0.91621 0.0
C1869 C 0.49363 0.35457 0.9461 0.0
C1870 C 0.49287 0.369 0.96748 0.0
C1871 C 0.48239 0.3962 0.95894 0.0
C1872 C 0.47216 0.40919 0.93054 0.0
C1873 C 0.46237 0.43869 0.92733 0.0
C1874 C 0.47921 0.45067 0.89781 0.0
C1875 C 0.43053 0.45175 0.92638 0.0
C1876 C 0.46927 0.44007 0.95805 0.0
C1877 C 0.48078 0.41527 0.97583 0.0
C1878 C 0.48951 0.41122 1.00472 0.0
C1879 C 0.486 0.4331 1.0161 0.0
C1880 C 0.4737 0.45885 0.99877 0.0
C1881 C 0.46539 0.46229 0.9692 0.0
H1882 H 0.48479 0.89334 0.37966 0.0
H1883 H 0.52307 0.82269 0.44685 0.0
H1884 H 0.5183 0.84958 0.48468 0.0
H1885 H 0.51732 0.93183 0.39385 0.0
H1886 H 0.48697 0.96179 0.39032 0.0
H1887 H 0.49221 0.93696 0.36919 0.0
H1888 H 0.44277 0.93568 0.39601 0.0
H1889 H 0.43738 0.96065 0.41703 0.0
H1890 H 0.43401 0.93 0.43896 0.0
H1891 H 0.51017 0.88449 0.5148 0.0
H1892 H 0.49962 0.92461 0.53442 0.0
H1893 H 0.46684 0.97204 0.44719 0.0
C1894 C 0.49177 0.88348 0.40253 0.0
C1895 C 0.50432 0.85589 0.41027 0.0
C1896 C 0.51367 0.84381 0.44024 0.0
C1897 C 0.5109 0.85891 0.46196 0.0
C1898 C 0.4987 0.88607 0.45342 0.0
C1899 C 0.48922 0.89824 0.42445 0.0
C1900 C 0.47761 0.92775 0.42063 0.0
C1901 C 0.49455 0.94031 0.39179 0.0
C1902 C 0.44607 0.93918 0.41801 0.0
C1903 C 0.48232 0.9303 0.45182 0.0
C1904 C 0.49433 0.90607 0.47053 0.0
C1905 C 0.50074 0.90358 0.50034 0.0
C1906 C 0.49473 0.92647 0.51125 0.0
C1907 C 0.4826 0.9515 0.49229 0.0
C1908 C 0.47628 0.95326 0.46225 0.0
H1909 H 0.45452 0.60233 0.06303 0.0
H1910 H 0.40446 0.56373 0.13728 0.0
H1911 H 0.39763 0.59366 0.17191 0.0
H1912 H 0.48914 0.61369 0.11566 0.0
H1913 H 0.48845 0.64514 0.09177 0.0
H1914 H 0.4895 0.62029 0.07319 0.0
H1915 H 0.44428 0.6531 0.04981 0.0
H1916 H 0.44307 0.67761 0.06906 0.0
H1917 H 0.41306 0.66798 0.0765 0.0
H1918 H 0.39698 0.62686 0.19923 0.0
H1919 H 0.40056 0.66291 0.21638 0.0
H1920 H 0.45044 0.68067 0.12461 0.0
C1921 C 0.44197 0.60027 0.08648 0.0
C1922 C 0.42999 0.58064 0.09732 0.0
C1923 C 0.41382 0.57859 0.12829 0.0
C1924 C 0.40985 0.59548 0.14824 0.0
C1925 C 0.42209 0.61443 0.13695 0.0
C1926 C 0.4377 0.61707 0.10676 0.0
C1927 C 0.4484 0.63926 0.10052 0.0
C1928 C 0.4808 0.62897 0.09494 0.0
C1929 C 0.43648 0.66076 0.0723 0.0
C1930 C 0.43628 0.64868 0.13189 0.0
C1931 C 0.42137 0.63393 0.15263 0.0
C1932 C 0.40857 0.63858 0.18321 0.0
C1933 C 0.41089 0.65899 0.19282 0.0
C1934 C 0.42578 0.67463 0.1719 0.0
C1935 C 0.43867 0.66926 0.14104 0.0
loop_
_geom_bond_atom_site_label_1
_geom_bond_atom_site_label_2
_geom_bond_distance
_geom_bond_site_symmetry_2
_ccdc_geom_bond_type
Eu0 C9 2.828 . S
Eu0 O11 2.392 1_565 S
Eu0 O13 2.418 1_655 S
Eu0 O18 2.373 1_654 S
Eu0 O21 2.488 . S
Eu0 O22 2.471 . S
Eu0 O23 2.349 1_564 S
Eu1 O10 2.373 1_456 S
Eu1 O14 2.488 . S
Eu1 O15 2.471 . S
Eu1 O16 2.349 1_546 S
Eu1 O19 2.392 1_545 S
Eu1 O20 2.418 1_455 S
Eu1 C30 2.828 . S
C2 O20 1.244 . S
C2 O23 1.265 . S
C3 C4 1.379 . S
C3 C7 1.373 . S
C3 C9 1.505 . S
C4 C3 1.379 . S
C4 C6 1.369 . S
C4 H32 0.949 . S
C5 C7 1.383 . S
C5 C8 1.382 . S
C5 H33 0.930 . S
C6 C4 1.369 . S
C6 C8 1.392 . S
C6 H34 0.930 . S
C7 C3 1.373 . S
C7 C5 1.383 . S
C7 H35 0.931 . S
C8 C5 1.382 . S
C8 C6 1.392 . S
C9 Eu0 2.828 . S
C9 C3 1.505 . S
C9 O21 1.249 . S
C9 O22 1.244 . S
O10 Eu1 2.373 1_654 S
O10 C12 1.258 . S
O11 Eu0 2.392 1_545 S
O11 C12 1.242 . S
C12 O10 1.258 . S
C12 O11 1.242 . S
O13 Eu0 2.418 1_455 S
O13 C17 1.244 . S
O14 Eu1 2.488 . S
O14 C30 1.249 . S
O15 Eu1 2.471 . S
O15 C30 1.244 . S
O16 Eu1 2.349 1_564 S
O16 C17 1.265 . S
C17 O13 1.244 . S
C17 O16 1.265 . S
O18 Eu0 2.373 1_456 S
O18 C31 1.258 . S
O19 Eu1 2.392 1_565 S
O19 C31 1.242 . S
O20 Eu1 2.418 1_655 S
O20 C2 1.244 . S
O21 Eu0 2.488 . S
O21 C9 1.249 . S
O22 Eu0 2.471 . S
O22 C9 1.244 . S
O23 Eu0 2.349 1_546 S
O23 C2 1.265 . S
C24 C25 1.379 . S
C24 C28 1.373 . S
C24 C30 1.505 . S
C25 C24 1.379 . S
C25 C27 1.369 . S
C25 H36 0.933 . S
C26 C28 1.383 . S
C26 C29 1.382 . S
C26 H37 0.930 . S
C27 C25 1.369 . S
C27 C29 1.392 . S
C27 H38 0.930 . S
C28 C24 1.373 . S
C28 C26 1.383 . S
C28 H39 0.931 . S
C29 C26 1.382 . S
C29 C27 1.392 . S
C30 Eu1 2.828 . S
C30 O14 1.249 . S
C30 O15 1.244 . S
C30 C24 1.505 . S
C31 O18 1.258 . S
C31 O19 1.242 . S
H32 C4 0.949 . S
H33 C5 0.930 . S
H34 C6 0.930 . S
H35 C7 0.931 . S
H36 C25 0.933 . S
H37 C26 0.930 . S
H38 C27 0.930 . S
H39 C28 0.931 . S
Eu40 C49 2.828 . S
Eu40 O51 2.392 . S
Eu40 O53 2.418 . S
Eu40 O58 2.373 1_455 S
Eu40 O61 2.488 . S
Eu40 O62 2.471 1_455 S
Eu40 O63 2.349 1_455 S
Eu41 O50 2.373 1_655 S
Eu41 O54 2.488 . S
Eu41 O55 2.471 1_655 S
Eu41 O56 2.349 1_655 S
Eu41 O59 2.392 . S
Eu41 O60 2.418 . S
Eu41 C70 2.828 . S
C42 O60 1.244 . S
C42 O63 1.265 . S
C43 C44 1.379 1_455 S
C43 C47 1.373 . S
C43 C49 1.505 . S
C44 C43 1.379 1_655 S
C44 C46 1.369 . S
C44 H72 0.930 . S
C45 C47 1.383 . S
C45 C48 1.382 1_455 S
C45 H73 0.930 . S
C46 C44 1.369 . S
C46 C48 1.392 . S
C46 H74 0.930 . S
C47 C43 1.373 . S
C47 C45 1.383 . S
C47 H75 0.931 . S
C48 C45 1.382 1_655 S
C48 C46 1.392 . S
C49 Eu40 2.828 . S
C49 C43 1.505 . S
C49 O61 1.249 . S
C49 O62 1.244 1_455 S
O50 Eu41 2.373 1_455 S
O50 C52 1.258 . S
O51 Eu40 2.392 . S
O51 C52 1.242 . S
C52 O50 1.258 . S
C52 O51 1.242 . S
O53 Eu40 2.418 . S
O53 C57 1.244 . S
O54 Eu41 2.488 . S
O54 C70 1.249 . S
O55 Eu41 2.471 1_455 S
O55 C70 1.244 1_455 S
O56 Eu41 2.349 1_455 S
O56 C57 1.265 . S
C57 O53 1.244 . S
C57 O56 1.265 . S
O58 Eu40 2.373 1_655 S
O58 C71 1.258 . S
O59 Eu41 2.392 . S
O59 C71 1.242 . S
O60 Eu41 2.418 . S
O60 C42 1.244 . S
O61 Eu40 2.488 . S
O61 C49 1.249 . S
O62 Eu40 2.471 1_655 S
O62 C49 1.244 1_655 S
O63 Eu40 2.349 1_655 S
O63 C42 1.265 . S
C64 C65 1.379 1_655 S
C64 C68 1.373 . S
C64 C70 1.505 . S
C65 C64 1.379 1_455 S
C65 C67 1.369 . S
C65 H76 0.930 . S
C66 C68 1.383 . S
C66 C69 1.382 1_655 S
C66 H77 0.930 . S
C67 C65 1.369 . S
C67 C69 1.392 . S
C67 H78 0.930 . S
C68 C64 1.373 . S
C68 C66 1.383 . S
C68 H79 0.931 . S
C69 C66 1.382 1_455 S
C69 C67 1.392 . S
C70 Eu41 2.828 . S
C70 O54 1.249 . S
C70 O55 1.244 1_655 S
C70 C64 1.505 . S
C71 O58 1.258 . S
C71 O59 1.242 . S
H72 C44 0.930 . S
H73 C45 0.930 . S
H74 C46 0.930 . S
H75 C47 0.931 . S
H76 C65 0.930 . S
H77 C66 0.930 . S
H78 C67 0.930 . S
H79 C68 0.931 . S
Eu80 C89 2.828 . S
Eu80 O91 2.392 . S
Eu80 O93 2.418 . S
Eu80 O98 2.373 . S
Eu80 O101 2.488 . S
Eu80 O102 2.471 . S
Eu80 O103 2.349 . S
Eu81 O90 2.373 . S
Eu81 O94 2.488 . S
Eu81 O95 2.471 . S
Eu81 O96 2.349 . S
Eu81 O99 2.392 . S
Eu81 O100 2.418 . S
Eu81 C110 2.828 . S
C82 O100 1.244 . S
C82 O103 1.265 . S
C83 C84 1.379 . S
C83 C87 1.373 . S
C83 C89 1.505 . S
C84 C83 1.379 . S
C84 C86 1.369 . S
C84 H112 0.930 . S
C85 C87 1.383 . S
C85 C88 1.382 . S
C85 H113 0.930 . S
C86 C84 1.369 . S
C86 C88 1.392 . S
C86 H114 0.930 . S
C87 C83 1.373 . S
C87 C85 1.383 . S
C87 H115 0.931 . S
C88 C85 1.382 . S
C88 C86 1.392 . S
C89 Eu80 2.828 . S
C89 C83 1.505 . S
C89 O101 1.249 . S
C89 O102 1.244 . S
O90 Eu81 2.373 . S
O90 C92 1.258 . S
O91 Eu80 2.392 . S
O91 C92 1.242 . S
C92 O90 1.258 . S
C92 O91 1.242 . S
O93 Eu80 2.418 . S
O93 C97 1.244 . S
O94 Eu81 2.488 . S
O94 C110 1.249 . S
O95 Eu81 2.471 . S
O95 C110 1.244 . S
O96 Eu81 2.349 . S
O96 C97 1.265 . S
C97 O93 1.244 . S
C97 O96 1.265 . S
O98 Eu80 2.373 . S
O98 C111 1.258 . S
O99 Eu81 2.392 . S
O99 C111 1.242 . S
O100 Eu81 2.418 . S
O100 C82 1.244 . S
O101 Eu80 2.488 . S
O101 C89 1.249 . S
O102 Eu80 2.471 . S
O102 C89 1.244 . S
O103 Eu80 2.349 . S
O103 C82 1.265 . S
C104 C105 1.379 . S
C104 C108 1.373 . S
C104 C110 1.505 . S
C105 C104 1.379 . S
C105 C107 1.369 . S
C105 H116 0.930 . S
C106 C108 1.383 . S
C106 C109 1.382 . S
C106 H117 0.930 . S
C107 C105 1.369 . S
C107 C109 1.392 . S
C107 H118 0.930 . S
C108 C104 1.373 . S
C108 C106 1.383 . S
C108 H119 0.931 . S
C109 C106 1.382 . S
C109 C107 1.392 . S
C110 Eu81 2.828 . S
C110 O94 1.249 . S
C110 O95 1.244 . S
C110 C104 1.505 . S
C111 O98 1.258 . S
C111 O99 1.242 . S
H112 C84 0.930 . S
H113 C85 0.930 . S
H114 C86 0.930 . S
H115 C87 0.931 . S
H116 C105 0.930 . S
H117 C106 0.930 . S
H118 C107 0.930 . S
H119 C108 0.931 . S
Eu120 C129 2.828 . S
Eu120 O131 2.392 . S
Eu120 O133 2.418 . S
Eu120 O138 2.373 1_565 S
Eu120 O141 2.488 . S
Eu120 O142 2.471 1_565 S
Eu120 O143 2.349 1_565 S
Eu121 O130 2.373 1_545 S
Eu121 O134 2.488 . S
Eu121 O135 2.471 1_545 S
Eu121 O136 2.349 1_545 S
Eu121 O139 2.392 . S
Eu121 O140 2.418 . S
Eu121 C150 2.828 . S
C122 O140 1.244 . S
C122 O143 1.265 . S
C123 C124 1.379 . S
C123 C127 1.373 1_545 S
C123 C129 1.505 1_545 S
C124 C123 1.379 . S
C124 C126 1.369 . S
C124 H152 0.930 . S
C125 C127 1.383 . S
C125 C128 1.382 1_565 S
C125 H153 0.930 . S
C126 C124 1.369 . S
C126 C128 1.392 . S
C126 H154 0.930 . S
C127 C123 1.373 1_565 S
C127 C125 1.383 . S
C127 H155 0.931 . S
C128 C125 1.382 1_545 S
C128 C126 1.392 . S
C129 Eu120 2.828 . S
C129 C123 1.505 1_565 S
C129 O141 1.249 . S
C129 O142 1.244 1_565 S
O130 Eu121 2.373 1_565 S
O130 C132 1.258 . S
O131 Eu120 2.392 . S
O131 C132 1.242 . S
C132 O130 1.258 . S
C132 O131 1.242 . S
O133 Eu120 2.418 . S
O133 C137 1.244 . S
O134 Eu121 2.488 . S
O134 C150 1.249 . S
O135 Eu121 2.471 1_565 S
O135 C150 1.244 1_565 S
O136 Eu121 2.349 1_565 S
O136 C137 1.265 . S
C137 O133 1.244 . S
C137 O136 1.265 . S
O138 Eu120 2.373 1_545 S
O138 C151 1.258 . S
O139 Eu121 2.392 . S
O139 C151 1.242 . S
O140 Eu121 2.418 . S
O140 C122 1.244 . S
O141 Eu120 2.488 . S
O141 C129 1.249 . S
O142 Eu120 2.471 1_545 S
O142 C129 1.244 1_545 S
O143 Eu120 2.349 1_545 S
O143 C122 1.265 . S
C144 C145 1.379 . S
C144 C148 1.373 1_565 S
C144 C150 1.505 1_565 S
C145 C144 1.379 . S
C145 C147 1.369 . S
C145 H156 0.930 . S
C146 C148 1.383 . S
C146 C149 1.382 1_545 S
C146 H157 0.930 . S
C147 C145 1.369 . S
C147 C149 1.392 . S
C147 H158 0.930 . S
C148 C144 1.373 1_545 S
C148 C146 1.383 . S
C148 H159 0.931 . S
C149 C146 1.382 1_565 S
C149 C147 1.392 . S
C150 Eu121 2.828 . S
C150 O134 1.249 . S
C150 O135 1.244 1_545 S
C150 C144 1.505 1_545 S
C151 O138 1.258 . S
C151 O139 1.242 . S
H152 C124 0.930 . S
H153 C125 0.930 . S
H154 C126 0.930 . S
H155 C127 0.931 . S
H156 C145 0.930 . S
H157 C146 0.930 . S
H158 C147 0.930 . S
H159 C148 0.931 . S
Eu160 C169 2.828 . S
Eu160 O171 2.392 . S
Eu160 O173 2.418 . S
Eu160 O178 2.373 . S
Eu160 O181 2.488 . S
Eu160 O182 2.471 . S
Eu160 O183 2.349 . S
Eu161 O170 2.373 . S
Eu161 O174 2.488 . S
Eu161 O175 2.471 . S
Eu161 O176 2.349 . S
Eu161 O179 2.392 . S
Eu161 O180 2.418 . S
Eu161 C190 2.828 . S
C162 O180 1.244 . S
C162 O183 1.265 . S
C163 C164 1.379 . S
C163 C167 1.373 . S
C163 C169 1.505 . S
C164 C163 1.379 . S
C164 C166 1.369 . S
C164 H192 0.930 . S
C165 C167 1.383 . S
C165 C168 1.382 . S
C165 H193 0.930 . S
C166 C164 1.369 . S
C166 C168 1.392 . S
C166 H194 0.930 . S
C167 C163 1.373 . S
C167 C165 1.383 . S
C167 H195 0.931 . S
C168 C165 1.382 . S
C168 C166 1.392 . S
C169 Eu160 2.828 . S
C169 C163 1.505 . S
C169 O181 1.249 . S
C169 O182 1.244 . S
O170 Eu161 2.373 . S
O170 C172 1.258 . S
O171 Eu160 2.392 . S
O171 C172 1.242 . S
C172 O170 1.258 . S
C172 O171 1.242 . S
O173 Eu160 2.418 . S
O173 C177 1.244 . S
O174 Eu161 2.488 . S
O174 C190 1.249 . S
O175 Eu161 2.471 . S
O175 C190 1.244 . S
O176 Eu161 2.349 . S
O176 C177 1.265 . S
C177 O173 1.244 . S
C177 O176 1.265 . S
O178 Eu160 2.373 . S
O178 C191 1.258 . S
O179 Eu161 2.392 . S
O179 C191 1.242 . S
O180 Eu161 2.418 . S
O180 C162 1.244 . S
O181 Eu160 2.488 . S
O181 C169 1.249 . S
O182 Eu160 2.471 . S
O182 C169 1.244 . S
O183 Eu160 2.349 . S
O183 C162 1.265 . S
C184 C185 1.379 . S
C184 C188 1.373 . S
C184 C190 1.505 . S
C185 C184 1.379 . S
C185 C187 1.369 . S
C185 H196 0.930 . S
C186 C188 1.383 . S
C186 C189 1.382 . S
C186 H197 0.930 . S
C187 C185 1.369 . S
C187 C189 1.392 . S
C187 H198 0.930 . S
C188 C184 1.373 . S
C188 C186 1.383 . S
C188 H199 0.931 . S
C189 C186 1.382 . S
C189 C187 1.392 . S
C190 Eu161 2.828 . S
C190 O174 1.249 . S
C190 O175 1.244 . S
C190 C184 1.505 . S
C191 O178 1.258 . S
C191 O179 1.242 . S
H192 C164 0.930 . S
H193 C165 0.930 . S
H194 C166 0.930 . S
H195 C167 0.931 . S
H196 C185 0.930 . S
H197 C186 0.930 . S
H198 C187 0.930 . S
H199 C188 0.931 . S
Eu200 C209 2.828 . S
Eu200 O211 2.392 . S
Eu200 O213 2.418 . S
Eu200 O218 2.373 . S
Eu200 O221 2.488 . S
Eu200 O222 2.471 . S
Eu200 O223 2.349 . S
Eu201 O210 2.373 . S
Eu201 O214 2.488 . S
Eu201 O215 2.471 . S
Eu201 O216 2.349 . S
Eu201 O219 2.392 . S
Eu201 O220 2.418 . S
Eu201 C230 2.828 . S
C202 O220 1.244 . S
C202 O223 1.265 . S
C203 C204 1.379 . S
C203 C207 1.373 . S
C203 C209 1.505 . S
C204 C203 1.379 . S
C204 C206 1.369 . S
C204 H232 0.930 . S
C205 C207 1.383 . S
C205 C208 1.382 . S
C205 H233 0.930 . S
C206 C204 1.369 . S
C206 C208 1.392 . S
C206 H234 0.930 . S
C207 C203 1.373 . S
C207 C205 1.383 . S
C207 H235 0.931 . S
C208 C205 1.382 . S
C208 C206 1.392 . S
C209 Eu200 2.828 . S
C209 C203 1.505 . S
C209 O221 1.249 . S
C209 O222 1.244 . S
O210 Eu201 2.373 . S
O210 C212 1.258 . S
O211 Eu200 2.392 . S
O211 C212 1.242 . S
C212 O210 1.258 . S
C212 O211 1.242 . S
O213 Eu200 2.418 . S
O213 C217 1.244 . S
O214 Eu201 2.488 . S
O214 C230 1.249 . S
O215 Eu201 2.471 . S
O215 C230 1.244 . S
O216 Eu201 2.349 . S
O216 C217 1.265 . S
C217 O213 1.244 . S
C217 O216 1.265 . S
O218 Eu200 2.373 . S
O218 C231 1.258 . S
O219 Eu201 2.392 . S
O219 C231 1.242 . S
O220 Eu201 2.418 . S
O220 C202 1.244 . S
O221 Eu200 2.488 . S
O221 C209 1.249 . S
O222 Eu200 2.471 . S
O222 C209 1.244 . S
O223 Eu200 2.349 . S
O223 C202 1.265 . S
C224 C225 1.379 . S
C224 C228 1.373 . S
C224 C230 1.505 . S
C225 C224 1.379 . S
C225 C227 1.369 . S
C225 H236 0.930 . S
C226 C228 1.383 . S
C226 C229 1.382 . S
C226 H237 0.930 . S
C227 C225 1.369 . S
C227 C229 1.392 . S
C227 H238 0.930 . S
C228 C224 1.373 . S
C228 C226 1.383 . S
C228 H239 0.931 . S
C229 C226 1.382 . S
C229 C227 1.392 . S
C230 Eu201 2.828 . S
C230 O214 1.249 . S
C230 O215 1.244 . S
C230 C224 1.505 . S
C231 O218 1.258 . S
C231 O219 1.242 . S
H232 C204 0.930 . S
H233 C205 0.930 . S
H234 C206 0.930 . S
H235 C207 0.931 . S
H236 C225 0.930 . S
H237 C226 0.930 . S
H238 C227 0.930 . S
H239 C228 0.931 . S
Eu240 C249 2.828 . S
Eu240 O251 2.392 . S
Eu240 O253 2.418 . S
Eu240 O258 2.373 . S
Eu240 O261 2.488 . S
Eu240 O262 2.471 . S
Eu240 O263 2.349 . S
Eu241 O250 2.373 . S
Eu241 O254 2.488 . S
Eu241 O255 2.471 . S
Eu241 O256 2.349 . S
Eu241 O259 2.392 . S
Eu241 O260 2.418 . S
Eu241 C270 2.828 . S
C242 O260 1.244 . S
C242 O263 1.265 . S
C243 C244 1.379 . S
C243 C247 1.373 . S
C243 C249 1.505 . S
C244 C243 1.379 . S
C244 C246 1.369 . S
C244 H272 0.930 . S
C245 C247 1.383 . S
C245 C248 1.382 . S
C245 H273 0.930 . S
C246 C244 1.369 . S
C246 C248 1.392 . S
C246 H274 0.930 . S
C247 C243 1.373 . S
C247 C245 1.383 . S
C247 H275 0.931 . S
C248 C245 1.382 . S
C248 C246 1.392 . S
C249 Eu240 2.828 . S
C249 C243 1.505 . S
C249 O261 1.249 . S
C249 O262 1.244 . S
O250 Eu241 2.373 . S
O250 C252 1.258 . S
O251 Eu240 2.392 . S
O251 C252 1.242 . S
C252 O250 1.258 . S
C252 O251 1.242 . S
O253 Eu240 2.418 . S
O253 C257 1.244 . S
O254 Eu241 2.488 . S
O254 C270 1.249 . S
O255 Eu241 2.471 . S
O255 C270 1.244 . S
O256 Eu241 2.349 . S
O256 C257 1.265 . S
C257 O253 1.244 . S
C257 O256 1.265 . S
O258 Eu240 2.373 . S
O258 C271 1.258 . S
O259 Eu241 2.392 . S
O259 C271 1.242 . S
O260 Eu241 2.418 . S
O260 C242 1.244 . S
O261 Eu240 2.488 . S
O261 C249 1.249 . S
O262 Eu240 2.471 . S
O262 C249 1.244 . S
O263 Eu240 2.349 . S
O263 C242 1.265 . S
C264 C265 1.379 . S
C264 C268 1.373 . S
C264 C270 1.505 . S
C265 C264 1.379 . S
C265 C267 1.369 . S
C265 H276 0.930 . S
C266 C268 1.383 . S
C266 C269 1.382 . S
C266 H277 0.930 . S
C267 C265 1.369 . S
C267 C269 1.392 . S
C267 H278 0.930 . S
C268 C264 1.373 . S
C268 C266 1.383 . S
C268 H279 0.931 . S
C269 C266 1.382 . S
C269 C267 1.392 . S
C270 Eu241 2.828 . S
C270 O254 1.249 . S
C270 O255 1.244 . S
C270 C264 1.505 . S
C271 O258 1.258 . S
C271 O259 1.242 . S
H272 C244 0.930 . S
H273 C245 0.930 . S
H274 C246 0.930 . S
H275 C247 0.931 . S
H276 C265 0.930 . S
H277 C266 0.930 . S
H278 C267 0.930 . S
H279 C268 0.931 . S
Eu280 C289 2.828 . S
Eu280 O291 2.392 . S
Eu280 O293 2.418 1_655 S
Eu280 O298 2.373 1_655 S
Eu280 O301 2.488 . S
Eu280 O302 2.471 . S
Eu280 O303 2.349 . S
Eu281 O290 2.373 1_455 S
Eu281 O294 2.488 . S
Eu281 O295 2.471 . S
Eu281 O296 2.349 . S
Eu281 O299 2.392 . S
Eu281 O300 2.418 1_455 S
Eu281 C310 2.828 . S
C282 O300 1.244 . S
C282 O303 1.265 . S
C283 C284 1.379 . S
C283 C287 1.373 . S
C283 C289 1.505 . S
C284 C283 1.379 . S
C284 C286 1.369 . S
C284 H312 0.930 . S
C285 C287 1.383 . S
C285 C288 1.382 . S
C285 H313 0.930 . S
C286 C284 1.369 . S
C286 C288 1.392 . S
C286 H314 0.930 . S
C287 C283 1.373 . S
C287 C285 1.383 . S
C287 H315 0.931 . S
C288 C285 1.382 . S
C288 C286 1.392 . S
C289 Eu280 2.828 . S
C289 C283 1.505 . S
C289 O301 1.249 . S
C289 O302 1.244 . S
O290 Eu281 2.373 1_655 S
O290 C292 1.258 . S
O291 Eu280 2.392 . S
O291 C292 1.242 . S
C292 O290 1.258 . S
C292 O291 1.242 . S
O293 Eu280 2.418 1_455 S
O293 C297 1.244 . S
O294 Eu281 2.488 . S
O294 C310 1.249 . S
O295 Eu281 2.471 . S
O295 C310 1.244 . S
O296 Eu281 2.349 . S
O296 C297 1.265 . S
C297 O293 1.244 . S
C297 O296 1.265 . S
O298 Eu280 2.373 1_455 S
O298 C311 1.258 . S
O299 Eu281 2.392 . S
O299 C311 1.242 . S
O300 Eu281 2.418 1_655 S
O300 C282 1.244 . S
O301 Eu280 2.488 . S
O301 C289 1.249 . S
O302 Eu280 2.471 . S
O302 C289 1.244 . S
O303 Eu280 2.349 . S
O303 C282 1.265 . S
C304 C305 1.379 . S
C304 C308 1.373 . S
C304 C310 1.505 . S
C305 C304 1.379 . S
C305 C307 1.369 . S
C305 H316 0.930 . S
C306 C308 1.383 . S
C306 C309 1.382 . S
C306 H317 0.930 . S
C307 C305 1.369 . S
C307 C309 1.392 . S
C307 H318 0.930 . S
C308 C304 1.373 . S
C308 C306 1.383 . S
C308 H319 0.931 . S
C309 C306 1.382 . S
C309 C307 1.392 . S
C310 Eu281 2.828 . S
C310 O294 1.249 . S
C310 O295 1.244 . S
C310 C304 1.505 . S
C311 O298 1.258 . S
C311 O299 1.242 . S
H312 C284 0.930 . S
H313 C285 0.930 . S
H314 C286 0.930 . S
H315 C287 0.931 . S
H316 C305 0.930 . S
H317 C306 0.930 . S
H318 C307 0.930 . S
H319 C308 0.931 . S
Eu320 C329 2.828 . S
Eu320 O331 2.392 . S
Eu320 O333 2.418 . S
Eu320 O338 2.373 1_554 S
Eu320 O341 2.488 . S
Eu320 O342 2.471 . S
Eu320 O343 2.349 1_554 S
Eu321 O330 2.373 1_556 S
Eu321 O334 2.488 . S
Eu321 O335 2.471 . S
Eu321 O336 2.349 1_556 S
Eu321 O339 2.392 . S
Eu321 O340 2.418 . S
Eu321 C350 2.828 . S
C322 O340 1.244 . S
C322 O343 1.265 . S
C323 C324 1.379 1_554 S
C323 C327 1.373 . S
C323 C329 1.505 . S
C324 C323 1.379 1_556 S
C324 C326 1.369 . S
C324 H352 0.930 . S
C325 C327 1.383 . S
C325 C328 1.382 . S
C325 H353 0.930 . S
C326 C324 1.369 . S
C326 C328 1.392 1_556 S
C326 H354 0.930 . S
C327 C323 1.373 . S
C327 C325 1.383 . S
C327 H355 0.931 . S
C328 C325 1.382 . S
C328 C326 1.392 1_554 S
C329 Eu320 2.828 . S
C329 C323 1.505 . S
C329 O341 1.249 . S
C329 O342 1.244 . S
O330 Eu321 2.373 1_554 S
O330 C332 1.258 . S
O331 Eu320 2.392 . S
O331 C332 1.242 . S
C332 O330 1.258 . S
C332 O331 1.242 . S
O333 Eu320 2.418 . S
O333 C337 1.244 . S
O334 Eu321 2.488 . S
O334 C350 1.249 . S
O335 Eu321 2.471 . S
O335 C350 1.244 . S
O336 Eu321 2.349 1_554 S
O336 C337 1.265 . S
C337 O333 1.244 . S
C337 O336 1.265 . S
O338 Eu320 2.373 1_556 S
O338 C351 1.258 . S
O339 Eu321 2.392 . S
O339 C351 1.242 . S
O340 Eu321 2.418 . S
O340 C322 1.244 . S
O341 Eu320 2.488 . S
O341 C329 1.249 . S
O342 Eu320 2.471 . S
O342 C329 1.244 . S
O343 Eu320 2.349 1_556 S
O343 C322 1.265 . S
C344 C345 1.379 1_556 S
C344 C348 1.373 . S
C344 C350 1.505 . S
C345 C344 1.379 1_554 S
C345 C347 1.369 . S
C345 H356 0.930 . S
C346 C348 1.383 . S
C346 C349 1.382 . S
C346 H357 0.930 . S
C347 C345 1.369 . S
C347 C349 1.392 1_554 S
C347 H358 0.930 . S
C348 C344 1.373 . S
C348 C346 1.383 . S
C348 H359 0.931 . S
C349 C346 1.382 . S
C349 C347 1.392 1_556 S
C350 Eu321 2.828 . S
C350 O334 1.249 . S
C350 O335 1.244 . S
C350 C344 1.505 . S
C351 O338 1.258 . S
C351 O339 1.242 . S
H352 C324 0.930 . S
H353 C325 0.930 . S
H354 C326 0.930 . S
H355 C327 0.931 . S
H356 C345 0.930 . S
H357 C346 0.930 . S
H358 C347 0.930 . S
H359 C348 0.931 . S
Eu360 C369 2.828 . S
Eu360 O371 2.392 . S
Eu360 O373 2.418 . S
Eu360 O378 2.373 1_565 S
Eu360 O381 2.488 . S
Eu360 O382 2.471 1_565 S
Eu360 O383 2.349 1_565 S
Eu361 O370 2.373 1_545 S
Eu361 O374 2.488 . S
Eu361 O375 2.471 1_545 S
Eu361 O376 2.349 1_545 S
Eu361 O379 2.392 . S
Eu361 O380 2.418 . S
Eu361 C390 2.828 . S
C362 O380 1.244 . S
C362 O383 1.265 . S
C363 C364 1.379 . S
C363 C367 1.373 1_545 S
C363 C369 1.505 1_545 S
C364 C363 1.379 . S
C364 C366 1.369 . S
C364 H392 0.930 . S
C365 C367 1.383 . S
C365 C368 1.382 1_565 S
C365 H393 0.930 . S
C366 C364 1.369 . S
C366 C368 1.392 . S
C366 H394 0.930 . S
C367 C363 1.373 1_565 S
C367 C365 1.383 . S
C367 H395 0.931 . S
C368 C365 1.382 1_545 S
C368 C366 1.392 . S
C369 Eu360 2.828 . S
C369 C363 1.505 1_565 S
C369 O381 1.249 . S
C369 O382 1.244 1_565 S
O370 Eu361 2.373 1_565 S
O370 C372 1.258 . S
O371 Eu360 2.392 . S
O371 C372 1.242 . S
C372 O370 1.258 . S
C372 O371 1.242 . S
O373 Eu360 2.418 . S
O373 C377 1.244 . S
O374 Eu361 2.488 . S
O374 C390 1.249 . S
O375 Eu361 2.471 1_565 S
O375 C390 1.244 1_565 S
O376 Eu361 2.349 1_565 S
O376 C377 1.265 . S
C377 O373 1.244 . S
C377 O376 1.265 . S
O378 Eu360 2.373 1_545 S
O378 C391 1.258 . S
O379 Eu361 2.392 . S
O379 C391 1.242 . S
O380 Eu361 2.418 . S
O380 C362 1.244 . S
O381 Eu360 2.488 . S
O381 C369 1.249 . S
O382 Eu360 2.471 1_545 S
O382 C369 1.244 1_545 S
O383 Eu360 2.349 1_545 S
O383 C362 1.265 . S
C384 C385 1.379 . S
C384 C388 1.373 1_565 S
C384 C390 1.505 1_565 S
C385 C384 1.379 . S
C385 C387 1.369 . S
C385 H396 0.930 . S
C386 C388 1.383 . S
C386 C389 1.382 1_545 S
C386 H397 0.930 . S
C387 C385 1.369 . S
C387 C389 1.392 . S
C387 H398 0.930 . S
C388 C384 1.373 1_545 S
C388 C386 1.383 . S
C388 H399 0.931 . S
C389 C386 1.382 1_565 S
C389 C387 1.392 . S
C390 Eu361 2.828 . S
C390 O374 1.249 . S
C390 O375 1.244 1_545 S
C390 C384 1.505 1_545 S
C391 O378 1.258 . S
C391 O379 1.242 . S
H392 C364 0.930 . S
H393 C365 0.930 . S
H394 C366 0.930 . S
H395 C367 0.931 . S
H396 C385 0.930 . S
H397 C386 0.930 . S
H398 C387 0.930 . S
H399 C388 0.931 . S
Eu400 C409 2.828 . S
Eu400 O411 2.392 . S
Eu400 O413 2.418 . S
Eu400 O418 2.373 . S
Eu400 O421 2.488 . S
Eu400 O422 2.471 . S
Eu400 O423 2.349 . S
Eu401 O410 2.373 . S
Eu401 O414 2.488 . S
Eu401 O415 2.471 . S
Eu401 O416 2.349 . S
Eu401 O419 2.392 . S
Eu401 O420 2.418 . S
Eu401 C430 2.828 . S
C402 O420 1.244 . S
C402 O423 1.265 . S
C403 C404 1.379 . S
C403 C407 1.373 . S
C403 C409 1.505 . S
C404 C403 1.379 . S
C404 C406 1.369 . S
C404 H432 0.930 . S
C405 C407 1.383 . S
C405 C408 1.382 . S
C405 H433 0.930 . S
C406 C404 1.369 . S
C406 C408 1.392 . S
C406 H434 0.930 . S
C407 C403 1.373 . S
C407 C405 1.383 . S
C407 H435 0.931 . S
C408 C405 1.382 . S
C408 C406 1.392 . S
C409 Eu400 2.828 . S
C409 C403 1.505 . S
C409 O421 1.249 . S
C409 O422 1.244 . S
O410 Eu401 2.373 . S
O410 C412 1.258 . S
O411 Eu400 2.392 . S
O411 C412 1.242 . S
C412 O410 1.258 . S
C412 O411 1.242 . S
O413 Eu400 2.418 . S
O413 C417 1.244 . S
O414 Eu401 2.488 . S
O414 C430 1.249 . S
O415 Eu401 2.471 . S
O415 C430 1.244 . S
O416 Eu401 2.349 . S
O416 C417 1.265 . S
C417 O413 1.244 . S
C417 O416 1.265 . S
O418 Eu400 2.373 . S
O418 C431 1.258 . S
O419 Eu401 2.392 . S
O419 C431 1.242 . S
O420 Eu401 2.418 . S
O420 C402 1.244 . S
O421 Eu400 2.488 . S
O421 C409 1.249 . S
O422 Eu400 2.471 . S
O422 C409 1.244 . S
O423 Eu400 2.349 . S
O423 C402 1.265 . S
C424 C425 1.379 . S
C424 C428 1.373 . S
C424 C430 1.505 . S
C425 C424 1.379 . S
C425 C427 1.369 . S
C425 H436 0.930 . S
C426 C428 1.383 . S
C426 C429 1.382 . S
C426 H437 0.930 . S
C427 C425 1.369 . S
C427 C429 1.392 . S
C427 H438 0.930 . S
C428 C424 1.373 . S
C428 C426 1.383 . S
C428 H439 0.931 . S
C429 C426 1.382 . S
C429 C427 1.392 . S
C430 Eu401 2.828 . S
C430 O414 1.249 . S
C430 O415 1.244 . S
C430 C424 1.505 . S
C431 O418 1.258 . S
C431 O419 1.242 . S
H432 C404 0.930 . S
H433 C405 0.930 . S
H434 C406 0.930 . S
H435 C407 0.931 . S
H436 C425 0.930 . S
H437 C426 0.930 . S
H438 C427 0.930 . S
H439 C428 0.931 . S
Eu440 C449 2.828 . S
Eu440 O451 2.392 . S
Eu440 O453 2.418 . S
Eu440 O458 2.373 1_455 S
Eu440 O461 2.488 . S
Eu440 O462 2.471 1_455 S
Eu440 O463 2.349 1_455 S
Eu441 O450 2.373 1_655 S
Eu441 O454 2.488 . S
Eu441 O455 2.471 1_655 S
Eu441 O456 2.349 1_655 S
Eu441 O459 2.392 . S
Eu441 O460 2.418 . S
Eu441 C470 2.828 . S
C442 O460 1.244 . S
C442 O463 1.265 . S
C443 C444 1.379 1_455 S
C443 C447 1.373 . S
C443 C449 1.505 . S
C444 C443 1.379 1_655 S
C444 C446 1.369 . S
C444 H472 0.930 . S
C445 C447 1.383 . S
C445 C448 1.382 1_455 S
C445 H473 0.930 . S
C446 C444 1.369 . S
C446 C448 1.392 . S
C446 H474 0.930 . S
C447 C443 1.373 . S
C447 C445 1.383 . S
C447 H475 0.931 . S
C448 C445 1.382 1_655 S
C448 C446 1.392 . S
C449 Eu440 2.828 . S
C449 C443 1.505 . S
C449 O461 1.249 . S
C449 O462 1.244 1_455 S
O450 Eu441 2.373 1_455 S
O450 C452 1.258 . S
O451 Eu440 2.392 . S
O451 C452 1.242 . S
C452 O450 1.258 . S
C452 O451 1.242 . S
O453 Eu440 2.418 . S
O453 C457 1.244 . S
O454 Eu441 2.488 . S
O454 C470 1.249 . S
O455 Eu441 2.471 1_455 S
O455 C470 1.244 1_455 S
O456 Eu441 2.349 1_455 S
O456 C457 1.265 . S
C457 O453 1.244 . S
C457 O456 1.265 . S
O458 Eu440 2.373 1_655 S
O458 C471 1.258 . S
O459 Eu441 2.392 . S
O459 C471 1.242 . S
O460 Eu441 2.418 . S
O460 C442 1.244 . S
O461 Eu440 2.488 . S
O461 C449 1.249 . S
O462 Eu440 2.471 1_655 S
O462 C449 1.244 1_655 S
O463 Eu440 2.349 1_655 S
O463 C442 1.265 . S
C464 C465 1.379 1_655 S
C464 C468 1.373 . S
C464 C470 1.505 . S
C465 C464 1.379 1_455 S
C465 C467 1.369 . S
C465 H476 0.930 . S
C466 C468 1.383 . S
C466 C469 1.382 1_655 S
C466 H477 0.930 . S
C467 C465 1.369 . S
C467 C469 1.392 . S
C467 H478 0.930 . S
C468 C464 1.373 . S
C468 C466 1.383 . S
C468 H479 0.931 . S
C469 C466 1.382 1_455 S
C469 C467 1.392 . S
C470 Eu441 2.828 . S
C470 O454 1.249 . S
C470 O455 1.244 1_655 S
C470 C464 1.505 . S
C471 O458 1.258 . S
C471 O459 1.242 . S
H472 C444 0.930 . S
H473 C445 0.930 . S
H474 C446 0.930 . S
H475 C447 0.931 . S
H476 C465 0.930 . S
H477 C466 0.930 . S
H478 C467 0.930 . S
H479 C468 0.931 . S
Eu480 C489 2.828 . S
Eu480 O491 2.392 . S
Eu480 O493 2.418 . S
Eu480 O498 2.373 . S
Eu480 O501 2.488 . S
Eu480 O502 2.471 . S
Eu480 O503 2.349 . S
Eu481 O490 2.373 . S
Eu481 O494 2.488 . S
Eu481 O495 2.471 . S
Eu481 O496 2.349 . S
Eu481 O499 2.392 . S
Eu481 O500 2.418 . S
Eu481 C510 2.828 . S
C482 O500 1.244 . S
C482 O503 1.265 . S
C483 C484 1.379 . S
C483 C487 1.373 . S
C483 C489 1.505 . S
C484 C483 1.379 . S
C484 C486 1.369 . S
C484 H512 0.930 . S
C485 C487 1.383 . S
C485 C488 1.382 . S
C485 H513 0.930 . S
C486 C484 1.369 . S
C486 C488 1.392 . S
C486 H514 0.930 . S
C487 C483 1.373 . S
C487 C485 1.383 . S
C487 H515 0.931 . S
C488 C485 1.382 . S
C488 C486 1.392 . S
C489 Eu480 2.828 . S
C489 C483 1.505 . S
C489 O501 1.249 . S
C489 O502 1.244 . S
O490 Eu481 2.373 . S
O490 C492 1.258 . S
O491 Eu480 2.392 . S
O491 C492 1.242 . S
C492 O490 1.258 . S
C492 O491 1.242 . S
O493 Eu480 2.418 . S
O493 C497 1.244 . S
O494 Eu481 2.488 . S
O494 C510 1.249 . S
O495 Eu481 2.471 . S
O495 C510 1.244 . S
O496 Eu481 2.349 . S
O496 C497 1.265 . S
C497 O493 1.244 . S
C497 O496 1.265 . S
O498 Eu480 2.373 . S
O498 C511 1.258 . S
O499 Eu481 2.392 . S
O499 C511 1.242 . S
O500 Eu481 2.418 . S
O500 C482 1.244 . S
O501 Eu480 2.488 . S
O501 C489 1.249 . S
O502 Eu480 2.471 . S
O502 C489 1.244 . S
O503 Eu480 2.349 . S
O503 C482 1.265 . S
C504 C505 1.379 . S
C504 C508 1.373 . S
C504 C510 1.505 . S
C505 C504 1.379 . S
C505 C507 1.369 . S
C505 H516 0.930 . S
C506 C508 1.383 . S
C506 C509 1.382 . S
C506 H517 0.930 . S
C507 C505 1.369 . S
C507 C509 1.392 . S
C507 H518 0.930 . S
C508 C504 1.373 . S
C508 C506 1.383 . S
C508 H519 0.931 . S
C509 C506 1.382 . S
C509 C507 1.392 . S
C510 Eu481 2.828 . S
C510 O494 1.249 . S
C510 O495 1.244 . S
C510 C504 1.505 . S
C511 O498 1.258 . S
C511 O499 1.242 . S
H512 C484 0.930 . S
H513 C485 0.930 . S
H514 C486 0.930 . S
H515 C487 0.931 . S
H516 C505 0.930 . S
H517 C506 0.930 . S
H518 C507 0.930 . S
H519 C508 0.931 . S
Eu520 C529 2.828 . S
Eu520 O531 2.392 . S
Eu520 O533 2.418 . S
Eu520 O538 2.373 1_554 S
Eu520 O541 2.488 . S
Eu520 O542 2.471 . S
Eu520 O543 2.349 1_554 S
Eu521 O530 2.373 1_556 S
Eu521 O534 2.488 . S
Eu521 O535 2.471 . S
Eu521 O536 2.349 1_556 S
Eu521 O539 2.392 . S
Eu521 O540 2.418 . S
Eu521 C550 2.828 . S
C522 O540 1.244 . S
C522 O543 1.265 . S
C523 C524 1.379 1_554 S
C523 C527 1.373 . S
C523 C529 1.505 . S
C524 C523 1.379 1_556 S
C524 C526 1.369 . S
C524 H552 0.930 . S
C525 C527 1.383 . S
C525 C528 1.382 . S
C525 H553 0.930 . S
C526 C524 1.369 . S
C526 C528 1.392 1_556 S
C526 H554 0.930 . S
C527 C523 1.373 . S
C527 C525 1.383 . S
C527 H555 0.931 . S
C528 C525 1.382 . S
C528 C526 1.392 1_554 S
C529 Eu520 2.828 . S
C529 C523 1.505 . S
C529 O541 1.249 . S
C529 O542 1.244 . S
O530 Eu521 2.373 1_554 S
O530 C532 1.258 . S
O531 Eu520 2.392 . S
O531 C532 1.242 . S
C532 O530 1.258 . S
C532 O531 1.242 . S
O533 Eu520 2.418 . S
O533 C537 1.244 . S
O534 Eu521 2.488 . S
O534 C550 1.249 . S
O535 Eu521 2.471 . S
O535 C550 1.244 . S
O536 Eu521 2.349 1_554 S
O536 C537 1.265 . S
C537 O533 1.244 . S
C537 O536 1.265 . S
O538 Eu520 2.373 1_556 S
O538 C551 1.258 . S
O539 Eu521 2.392 . S
O539 C551 1.242 . S
O540 Eu521 2.418 . S
O540 C522 1.244 . S
O541 Eu520 2.488 . S
O541 C529 1.249 . S
O542 Eu520 2.471 . S
O542 C529 1.244 . S
O543 Eu520 2.349 1_556 S
O543 C522 1.265 . S
C544 C545 1.379 1_556 S
C544 C548 1.373 . S
C544 C550 1.505 . S
C545 C544 1.379 1_554 S
C545 C547 1.369 . S
C545 H556 0.930 . S
C546 C548 1.383 . S
C546 C549 1.382 . S
C546 H557 0.930 . S
C547 C545 1.369 . S
C547 C549 1.392 1_554 S
C547 H558 0.930 . S
C548 C544 1.373 . S
C548 C546 1.383 . S
C548 H559 0.931 . S
C549 C546 1.382 . S
C549 C547 1.392 1_556 S
C550 Eu521 2.828 . S
C550 O534 1.249 . S
C550 O535 1.244 . S
C550 C544 1.505 . S
C551 O538 1.258 . S
C551 O539 1.242 . S
H552 C524 0.930 . S
H553 C525 0.930 . S
H554 C526 0.930 . S
H555 C527 0.931 . S
H556 C545 0.930 . S
H557 C546 0.930 . S
H558 C547 0.930 . S
H559 C548 0.931 . S
Eu560 C569 2.828 . S
Eu560 O571 2.392 1_565 S
Eu560 O573 2.418 . S
Eu560 O578 2.373 . S
Eu560 O581 2.488 . S
Eu560 O582 2.471 . S
Eu560 O583 2.349 1_565 S
Eu561 O570 2.373 . S
Eu561 O574 2.488 . S
Eu561 O575 2.471 . S
Eu561 O576 2.349 1_545 S
Eu561 O579 2.392 1_545 S
Eu561 O580 2.418 . S
Eu561 C590 2.828 . S
C562 O580 1.244 . S
C562 O583 1.265 . S
C563 C564 1.379 . S
C563 C567 1.373 . S
C563 C569 1.505 . S
C564 C563 1.379 . S
C564 C566 1.369 . S
C564 H592 0.930 . S
C565 C567 1.383 . S
C565 C568 1.382 . S
C565 H593 0.930 . S
C566 C564 1.369 . S
C566 C568 1.392 . S
C566 H594 0.930 . S
C567 C563 1.373 . S
C567 C565 1.383 . S
C567 H595 0.931 . S
C568 C565 1.382 . S
C568 C566 1.392 . S
C569 Eu560 2.828 . S
C569 C563 1.505 . S
C569 O581 1.249 . S
C569 O582 1.244 . S
O570 Eu561 2.373 . S
O570 C572 1.258 . S
O571 Eu560 2.392 1_545 S
O571 C572 1.242 . S
C572 O570 1.258 . S
C572 O571 1.242 . S
O573 Eu560 2.418 . S
O573 C577 1.244 . S
O574 Eu561 2.488 . S
O574 C590 1.249 . S
O575 Eu561 2.471 . S
O575 C590 1.244 . S
O576 Eu561 2.349 1_565 S
O576 C577 1.265 . S
C577 O573 1.244 . S
C577 O576 1.265 . S
O578 Eu560 2.373 . S
O578 C591 1.258 . S
O579 Eu561 2.392 1_565 S
O579 C591 1.242 . S
O580 Eu561 2.418 . S
O580 C562 1.244 . S
O581 Eu560 2.488 . S
O581 C569 1.249 . S
O582 Eu560 2.471 . S
O582 C569 1.244 . S
O583 Eu560 2.349 1_545 S
O583 C562 1.265 . S
C584 C585 1.379 . S
C584 C588 1.373 . S
C584 C590 1.505 . S
C585 C584 1.379 . S
C585 C587 1.369 . S
C585 H596 0.930 . S
C586 C588 1.383 . S
C586 C589 1.382 . S
C586 H597 0.930 . S
C587 C585 1.369 . S
C587 C589 1.392 . S
C587 H598 0.930 . S
C588 C584 1.373 . S
C588 C586 1.383 . S
C588 H599 0.931 . S
C589 C586 1.382 . S
C589 C587 1.392 . S
C590 Eu561 2.828 . S
C590 O574 1.249 . S
C590 O575 1.244 . S
C590 C584 1.505 . S
C591 O578 1.258 . S
C591 O579 1.242 . S
H592 C564 0.930 . S
H593 C565 0.930 . S
H594 C566 0.930 . S
H595 C567 0.931 . S
H596 C585 0.930 . S
H597 C586 0.930 . S
H598 C587 0.930 . S
H599 C588 0.931 . S
Eu600 C609 2.828 . S
Eu600 O611 2.392 . S
Eu600 O613 2.418 . S
Eu600 O618 2.373 1_554 S
Eu600 O621 2.488 . S
Eu600 O622 2.471 . S
Eu600 O623 2.349 1_554 S
Eu601 O610 2.373 1_556 S
Eu601 O614 2.488 . S
Eu601 O615 2.471 . S
Eu601 O616 2.349 1_556 S
Eu601 O619 2.392 . S
Eu601 O620 2.418 . S
Eu601 C630 2.828 . S
C602 O620 1.244 . S
C602 O623 1.265 . S
C603 C604 1.379 . S
C603 C607 1.373 . S
C603 C609 1.505 . S
C604 C603 1.379 . S
C604 C606 1.369 . S
C604 H632 0.950 . S
C605 C607 1.383 . S
C605 C608 1.382 . S
C605 H633 0.930 . S
C606 C604 1.369 . S
C606 C608 1.392 . S
C606 H634 0.930 . S
C607 C603 1.373 . S
C607 C605 1.383 . S
C607 H635 0.931 . S
C608 C605 1.382 . S
C608 C606 1.392 . S
C609 Eu600 2.828 . S
C609 C603 1.505 . S
C609 O621 1.249 . S
C609 O622 1.244 . S
O610 Eu601 2.373 1_554 S
O610 C612 1.258 . S
O611 Eu600 2.392 . S
O611 C612 1.242 . S
C612 O610 1.258 . S
C612 O611 1.242 . S
O613 Eu600 2.418 . S
O613 C617 1.244 . S
O614 Eu601 2.488 . S
O614 C630 1.249 . S
O615 Eu601 2.471 . S
O615 C630 1.244 . S
O616 Eu601 2.349 1_554 S
O616 C617 1.265 . S
C617 O613 1.244 . S
C617 O616 1.265 . S
O618 Eu600 2.373 1_556 S
O618 C631 1.258 . S
O619 Eu601 2.392 . S
O619 C631 1.242 . S
O620 Eu601 2.418 . S
O620 C602 1.244 . S
O621 Eu600 2.488 . S
O621 C609 1.249 . S
O622 Eu600 2.471 . S
O622 C609 1.244 . S
O623 Eu600 2.349 1_556 S
O623 C602 1.265 . S
C624 C625 1.379 . S
C624 C628 1.373 . S
C624 C630 1.505 . S
C625 C624 1.379 . S
C625 C627 1.369 . S
C625 H636 0.932 . S
C626 C628 1.383 . S
C626 C629 1.382 . S
C626 H637 0.930 . S
C627 C625 1.369 . S
C627 C629 1.392 . S
C627 H638 0.930 . S
C628 C624 1.373 . S
C628 C626 1.383 . S
C628 H639 0.931 . S
C629 C626 1.382 . S
C629 C627 1.392 . S
C630 Eu601 2.828 . S
C630 O614 1.249 . S
C630 O615 1.244 . S
C630 C624 1.505 . S
C631 O618 1.258 . S
C631 O619 1.242 . S
H632 C604 0.950 . S
H633 C605 0.930 . S
H634 C606 0.930 . S
H635 C607 0.931 . S
H636 C625 0.932 . S
H637 C626 0.930 . S
H638 C627 0.930 . S
H639 C628 0.931 . S
H640 C652 0.930 . S
H641 C654 0.930 . S
H642 C655 0.930 . S
H643 C659 0.967 . S
H644 C659 0.959 1_656 S
H645 C659 0.943 1_656 S
H646 C660 0.960 . S
H647 C660 0.961 . S
H648 C660 0.959 . S
H649 C663 0.929 . S
H650 C664 0.931 . S
H651 C666 0.930 1_655 S
C652 H640 0.930 . S
C652 C653 1.399 . S
C652 C657 1.399 . S
C653 C652 1.399 . S
C653 C654 1.376 . S
C654 H641 0.930 . S
C654 C653 1.376 . S
C654 C655 1.388 . S
C655 H642 0.930 . S
C655 C654 1.388 . S
C655 C656 1.390 . S
C656 C655 1.390 . S
C656 C657 1.394 . S
C656 C662 1.465 . S
C657 C652 1.399 . S
C657 C656 1.394 . S
C657 C658 1.516 . S
C658 C657 1.516 . S
C658 C659 1.513 1_655 S
C658 C660 1.561 . S
C658 C661 1.526 . S
C659 H643 0.967 . S
C659 H644 0.959 1_454 S
C659 H645 0.943 1_454 S
C659 C658 1.513 1_455 S
C660 H646 0.960 . S
C660 H647 0.961 . S
C660 H648 0.959 . S
C660 C658 1.561 . S
C661 C658 1.526 . S
C661 C662 1.396 . S
C661 C666 1.385 1_655 S
C662 C656 1.465 . S
C662 C661 1.396 . S
C662 C663 1.399 1_655 S
C663 H649 0.929 . S
C663 C662 1.399 1_455 S
C663 C664 1.385 . S
C664 H650 0.931 . S
C664 C663 1.385 . S
C664 C665 1.389 . S
C665 C664 1.389 . S
C665 C666 1.392 . S
C666 H651 0.930 1_455 S
C666 C661 1.385 1_455 S
C666 C665 1.392 . S
H667 C679 0.930 . S
H668 C681 0.930 . S
H669 C682 0.930 . S
H670 C686 0.959 . S
H671 C686 0.959 . S
H672 C686 0.961 . S
H673 C687 0.960 . S
H674 C687 0.961 . S
H675 C687 0.959 . S
H676 C690 0.929 . S
H677 C691 0.931 . S
H678 C693 0.930 . S
C679 H667 0.930 . S
C679 C680 1.399 . S
C679 C684 1.399 . S
C680 C679 1.399 . S
C680 C681 1.376 . S
C681 H668 0.930 . S
C681 C680 1.376 . S
C681 C682 1.388 . S
C682 H669 0.930 . S
C682 C681 1.388 . S
C682 C683 1.390 . S
C683 C682 1.390 . S
C683 C684 1.394 . S
C683 C689 1.465 . S
C684 C679 1.399 . S
C684 C683 1.394 . S
C684 C685 1.516 . S
C685 C684 1.516 . S
C685 C686 1.502 . S
C685 C687 1.561 . S
C685 C688 1.526 . S
C686 H670 0.959 . S
C686 H671 0.959 . S
C686 H672 0.961 . S
C686 C685 1.502 . S
C687 H673 0.960 . S
C687 H674 0.961 . S
C687 H675 0.959 . S
C687 C685 1.561 . S
C688 C685 1.526 . S
C688 C689 1.396 . S
C688 C693 1.390 . S
C689 C683 1.465 . S
C689 C688 1.396 . S
C689 C690 1.399 . S
C690 H676 0.929 . S
C690 C689 1.399 . S
C690 C691 1.385 . S
C691 H677 0.931 . S
C691 C690 1.385 . S
C691 C692 1.389 . S
C692 C691 1.389 . S
C692 C693 1.387 . S
C693 H678 0.930 . S
C693 C688 1.390 . S
C693 C692 1.387 . S
H694 C706 0.930 . S
H695 C708 0.930 . S
H696 C709 0.930 . S
H697 C713 0.959 . S
H698 C713 0.959 . S
H699 C713 0.961 . S
H700 C714 0.960 . S
H701 C714 0.961 . S
H702 C714 0.959 . S
H703 C717 0.929 . S
H704 C718 0.931 . S
H705 C720 0.930 . S
C706 H694 0.930 . S
C706 C707 1.399 . S
C706 C711 1.399 . S
C707 C706 1.399 . S
C707 C708 1.376 . S
C708 H695 0.930 . S
C708 C707 1.376 . S
C708 C709 1.388 . S
C709 H696 0.930 . S
C709 C708 1.388 . S
C709 C710 1.390 . S
C710 C709 1.390 . S
C710 C711 1.394 . S
C710 C716 1.465 . S
C711 C706 1.399 . S
C711 C710 1.394 . S
C711 C712 1.516 . S
C712 C711 1.516 . S
C712 C713 1.502 . S
C712 C714 1.561 . S
C712 C715 1.526 . S
C713 H697 0.959 . S
C713 H698 0.959 . S
C713 H699 0.961 . S
C713 C712 1.502 . S
C714 H700 0.960 . S
C714 H701 0.961 . S
C714 H702 0.959 . S
C714 C712 1.561 . S
C715 C712 1.526 . S
C715 C716 1.396 . S
C715 C720 1.390 . S
C716 C710 1.465 . S
C716 C715 1.396 . S
C716 C717 1.399 . S
C717 H703 0.929 . S
C717 C716 1.399 . S
C717 C718 1.385 . S
C718 H704 0.931 . S
C718 C717 1.385 . S
C718 C719 1.389 . S
C719 C718 1.389 . S
C719 C720 1.387 . S
C720 H705 0.930 . S
C720 C715 1.390 . S
C720 C719 1.387 . S
H721 C733 0.930 . S
H722 C735 0.930 . S
H723 C736 0.930 . S
H724 C740 0.959 . S
H725 C740 0.959 1_554 S
H726 C740 0.961 1_544 S
H727 C741 0.960 . S
H728 C741 0.961 . S
H729 C741 0.959 . S
H730 C744 0.929 . S
H731 C745 0.931 . S
H732 C747 0.930 . S
C733 H721 0.930 . S
C733 C734 1.399 . S
C733 C738 1.399 . S
C734 C733 1.399 . S
C734 C735 1.376 . S
C735 H722 0.930 . S
C735 C734 1.376 . S
C735 C736 1.388 . S
C736 H723 0.930 . S
C736 C735 1.388 . S
C736 C737 1.390 . S
C737 C736 1.390 . S
C737 C738 1.394 . S
C737 C743 1.465 1_545 S
C738 C733 1.399 . S
C738 C737 1.394 . S
C738 C739 1.516 . S
C739 C738 1.516 . S
C739 C740 1.502 1_545 S
C739 C741 1.561 . S
C739 C742 1.526 1_545 S
C740 H724 0.959 . S
C740 H725 0.959 1_556 S
C740 H726 0.961 1_566 S
C740 C739 1.502 1_565 S
C741 H727 0.960 . S
C741 H728 0.961 . S
C741 H729 0.959 . S
C741 C739 1.561 . S
C742 C739 1.526 1_565 S
C742 C743 1.396 . S
C742 C747 1.390 . S
C743 C737 1.465 1_565 S
C743 C742 1.396 . S
C743 C744 1.399 . S
C744 H730 0.929 . S
C744 C743 1.399 . S
C744 C745 1.385 . S
C745 H731 0.931 . S
C745 C744 1.385 . S
C745 C746 1.389 . S
C746 C745 1.389 . S
C746 C747 1.387 . S
C747 H732 0.930 . S
C747 C742 1.390 . S
C747 C746 1.387 . S
H748 C760 0.930 . S
H749 C762 0.930 1_545 S
H750 C763 0.930 . S
H751 C767 0.959 . S
H752 C767 0.959 . S
H753 C767 0.961 . S
H754 C768 0.960 . S
H755 C768 0.961 . S
H756 C768 0.959 . S
H757 C771 0.929 . S
H758 C772 0.931 . S
H759 C774 0.930 1_565 S
C760 H748 0.930 . S
C760 C761 1.399 . S
C760 C765 1.399 . S
C761 C760 1.399 . S
C761 C762 1.376 . S
C762 H749 0.930 1_565 S
C762 C761 1.376 . S
C762 C763 1.388 1_565 S
C763 H750 0.930 . S
C763 C762 1.388 1_545 S
C763 C764 1.390 . S
C764 C763 1.390 . S
C764 C765 1.394 1_545 S
C764 C770 1.465 . S
C765 C760 1.399 . S
C765 C764 1.394 1_565 S
C765 C766 1.516 . S
C766 C765 1.516 . S
C766 C767 1.502 . S
C766 C768 1.561 . S
C766 C769 1.526 . S
C767 H751 0.959 . S
C767 H752 0.959 . S
C767 H753 0.961 . S
C767 C766 1.502 . S
C768 H754 0.960 . S
C768 H755 0.961 . S
C768 H756 0.959 . S
C768 C766 1.561 . S
C769 C766 1.526 . S
C769 C770 1.396 1_565 S
C769 C774 1.390 1_565 S
C770 C764 1.465 . S
C770 C769 1.396 1_545 S
C770 C771 1.399 . S
C771 H757 0.929 . S
C771 C770 1.399 . S
C771 C772 1.385 . S
C772 H758 0.931 . S
C772 C771 1.385 . S
C772 C773 1.389 . S
C773 C772 1.389 . S
C773 C774 1.387 . S
C774 H759 0.930 1_545 S
C774 C769 1.390 1_545 S
C774 C773 1.387 . S
H775 C787 0.941 . S
H776 C789 0.930 . S
H777 C790 0.930 . S
H778 C794 0.959 . S
H779 C794 0.959 . S
H780 C794 0.961 . S
H781 C795 0.960 . S
H782 C795 0.961 . S
H783 C795 0.959 . S
H784 C798 0.929 . S
H785 C799 0.931 . S
H786 C801 0.930 . S
C787 H775 0.941 . S
C787 C788 1.378 1_655 S
C787 C792 1.399 . S
C788 C787 1.378 1_455 S
C788 C789 1.376 . S
C789 H776 0.930 . S
C789 C788 1.376 . S
C789 C790 1.388 . S
C790 H777 0.930 . S
C790 C789 1.388 . S
C790 C791 1.390 . S
C791 C790 1.390 . S
C791 C792 1.383 1_455 S
C791 C797 1.465 . S
C792 C787 1.399 . S
C792 C791 1.383 1_655 S
C792 C793 1.536 . S
C793 C792 1.536 . S
C793 C794 1.502 . S
C793 C795 1.561 . S
C793 C796 1.526 . S
C794 H778 0.959 . S
C794 H779 0.959 . S
C794 H780 0.961 . S
C794 C793 1.502 . S
C795 H781 0.960 . S
C795 H782 0.961 . S
C795 H783 0.959 . S
C795 C793 1.561 . S
C796 C793 1.526 . S
C796 C797 1.396 1_655 S
C796 C801 1.390 . S
C797 C791 1.465 . S
C797 C796 1.396 1_455 S
C797 C798 1.399 . S
C798 H784 0.929 . S
C798 C797 1.399 . S
C798 C799 1.385 . S
C799 H785 0.931 . S
C799 C798 1.385 . S
C799 C800 1.389 1_455 S
C800 C799 1.389 1_655 S
C800 C801 1.387 . S
C801 H786 0.930 . S
C801 C796 1.390 . S
C801 C800 1.387 . S
H802 C814 0.930 . S
H803 C816 0.930 . S
H804 C817 0.930 . S
H805 C821 0.959 . S
H806 C821 0.959 . S
H807 C821 0.961 . S
H808 C822 0.960 . S
H809 C822 0.961 . S
H810 C822 0.959 . S
H811 C825 0.929 . S
H812 C826 0.931 . S
H813 C828 0.930 . S
C814 H802 0.930 . S
C814 C815 1.399 . S
C814 C819 1.399 . S
C815 C814 1.399 . S
C815 C816 1.376 . S
C816 H803 0.930 . S
C816 C815 1.376 . S
C816 C817 1.388 . S
C817 H804 0.930 . S
C817 C816 1.388 . S
C817 C818 1.390 . S
C818 C817 1.390 . S
C818 C819 1.394 . S
C818 C824 1.465 . S
C819 C814 1.399 . S
C819 C818 1.394 . S
C819 C820 1.516 . S
C820 C819 1.516 . S
C820 C821 1.502 . S
C820 C822 1.561 . S
C820 C823 1.526 . S
C821 H805 0.959 . S
C821 H806 0.959 . S
C821 H807 0.961 . S
C821 C820 1.502 . S
C822 H808 0.960 . S
C822 H809 0.961 . S
C822 H810 0.959 . S
C822 C820 1.561 . S
C823 C820 1.526 . S
C823 C824 1.396 . S
C823 C828 1.390 . S
C824 C818 1.465 . S
C824 C823 1.396 . S
C824 C825 1.399 . S
C825 H811 0.929 . S
C825 C824 1.399 . S
C825 C826 1.385 . S
C826 H812 0.931 . S
C826 C825 1.385 . S
C826 C827 1.389 . S
C827 C826 1.389 . S
C827 C828 1.387 . S
C828 H813 0.930 . S
C828 C823 1.390 . S
C828 C827 1.387 . S
H829 C841 0.930 . S
H830 C843 0.930 . S
H831 C844 0.930 . S
H832 C848 0.959 . S
H833 C848 0.959 . S
H834 C848 0.961 . S
H835 C849 0.960 . S
H836 C849 0.961 . S
H837 C849 0.959 . S
H838 C852 0.929 . S
H839 C853 0.931 . S
H840 C855 0.930 . S
C841 H829 0.930 . S
C841 C842 1.399 . S
C841 C846 1.399 . S
C842 C841 1.399 . S
C842 C843 1.376 . S
C843 H830 0.930 . S
C843 C842 1.376 . S
C843 C844 1.388 . S
C844 H831 0.930 . S
C844 C843 1.388 . S
C844 C845 1.390 . S
C845 C844 1.390 . S
C845 C846 1.394 . S
C845 C851 1.465 . S
C846 C841 1.399 . S
C846 C845 1.394 . S
C846 C847 1.516 . S
C847 C846 1.516 . S
C847 C848 1.502 . S
C847 C849 1.561 . S
C847 C850 1.526 . S
C848 H832 0.959 . S
C848 H833 0.959 . S
C848 H834 0.961 . S
C848 C847 1.502 . S
C849 H835 0.960 . S
C849 H836 0.961 . S
C849 H837 0.959 . S
C849 C847 1.561 . S
C850 C847 1.526 . S
C850 C851 1.396 . S
C850 C855 1.390 . S
C851 C845 1.465 . S
C851 C850 1.396 . S
C851 C852 1.399 . S
C852 H838 0.929 . S
C852 C851 1.399 . S
C852 C853 1.385 . S
C853 H839 0.931 . S
C853 C852 1.385 . S
C853 C854 1.389 . S
C854 C853 1.389 . S
C854 C855 1.387 . S
C855 H840 0.930 . S
C855 C850 1.390 . S
C855 C854 1.387 . S
H856 C868 0.930 . S
H857 C870 0.930 . S
H858 C871 0.930 . S
H859 C875 0.959 . S
H860 C875 0.959 . S
H861 C875 0.961 . S
H862 C876 0.960 . S
H863 C876 0.961 . S
H864 C876 0.959 . S
H865 C879 0.929 . S
H866 C880 0.931 . S
H867 C882 0.930 . S
C868 H856 0.930 . S
C868 C869 1.399 . S
C868 C873 1.399 . S
C869 C868 1.399 . S
C869 C870 1.376 . S
C870 H857 0.930 . S
C870 C869 1.376 . S
C870 C871 1.388 . S
C871 H858 0.930 . S
C871 C870 1.388 . S
C871 C872 1.390 . S
C872 C871 1.390 . S
C872 C873 1.394 . S
C872 C878 1.465 . S
C873 C868 1.399 . S
C873 C872 1.394 . S
C873 C874 1.516 . S
C874 C873 1.516 . S
C874 C875 1.502 . S
C874 C876 1.561 . S
C874 C877 1.526 . S
C875 H859 0.959 . S
C875 H860 0.959 . S
C875 H861 0.961 . S
C875 C874 1.502 . S
C876 H862 0.960 . S
C876 H863 0.961 . S
C876 H864 0.959 . S
C876 C874 1.561 . S
C877 C874 1.526 . S
C877 C878 1.396 . S
C877 C882 1.390 . S
C878 C872 1.465 . S
C878 C877 1.396 . S
C878 C879 1.399 . S
C879 H865 0.929 . S
C879 C878 1.399 . S
C879 C880 1.385 . S
C880 H866 0.931 . S
C880 C879 1.385 . S
C880 C881 1.389 . S
C881 C880 1.389 . S
C881 C882 1.387 . S
C882 H867 0.930 . S
C882 C877 1.390 . S
C882 C881 1.387 . S
H883 C895 0.930 . S
H884 C897 0.930 . S
H885 C898 0.930 . S
H886 C902 0.959 . S
H887 C902 0.959 . S
H888 C902 0.961 . S
H889 C903 0.960 . S
H890 C903 0.961 . S
H891 C903 0.959 . S
H892 C906 0.929 . S
H893 C907 0.931 . S
H894 C909 0.930 . S
C895 H883 0.930 . S
C895 C896 1.399 . S
C895 C900 1.399 . S
C896 C895 1.399 . S
C896 C897 1.376 . S
C897 H884 0.930 . S
C897 C896 1.376 . S
C897 C898 1.388 . S
C898 H885 0.930 . S
C898 C897 1.388 . S
C898 C899 1.390 . S
C899 C898 1.390 . S
C899 C900 1.394 . S
C899 C905 1.465 . S
C900 C895 1.399 . S
C900 C899 1.394 . S
C900 C901 1.516 . S
C901 C900 1.516 . S
C901 C902 1.502 . S
C901 C903 1.561 . S
C901 C904 1.526 . S
C902 H886 0.959 . S
C902 H887 0.959 . S
C902 H888 0.961 . S
C902 C901 1.502 . S
C903 H889 0.960 . S
C903 H890 0.961 . S
C903 H891 0.959 . S
C903 C901 1.561 . S
C904 C901 1.526 . S
C904 C905 1.396 . S
C904 C909 1.390 . S
C905 C899 1.465 . S
C905 C904 1.396 . S
C905 C906 1.399 . S
C906 H892 0.929 . S
C906 C905 1.399 . S
C906 C907 1.385 . S
C907 H893 0.931 . S
C907 C906 1.385 . S
C907 C908 1.389 . S
C908 C907 1.389 . S
C908 C909 1.387 . S
C909 H894 0.930 . S
C909 C904 1.390 . S
C909 C908 1.387 . S
H910 C922 0.930 . S
H911 C924 0.930 . S
H912 C925 0.930 . S
H913 C929 0.959 . S
H914 C929 0.959 . S
H915 C929 0.961 . S
H916 C930 0.990 . S
H917 C930 0.961 . S
H918 C930 0.959 . S
H919 C933 0.929 . S
H920 C934 0.931 . S
H921 C936 0.930 . S
C922 H910 0.930 . S
C922 C923 1.399 . S
C922 C927 1.399 . S
C923 C922 1.399 . S
C923 C924 1.376 . S
C924 H911 0.930 . S
C924 C923 1.376 . S
C924 C925 1.389 1_565 S
C925 H912 0.930 . S
C925 C924 1.389 1_545 S
C925 C926 1.397 1_545 S
C926 C925 1.397 1_565 S
C926 C927 1.404 . S
C926 C932 1.449 1_565 S
C927 C922 1.399 . S
C927 C926 1.404 . S
C927 C928 1.516 . S
C928 C927 1.516 . S
C928 C929 1.502 . S
C928 C930 1.561 1_565 S
C928 C931 1.526 1_565 S
C929 H913 0.959 . S
C929 H914 0.959 . S
C929 H915 0.961 . S
C929 C928 1.502 . S
C930 H916 0.990 . S
C930 H917 0.961 . S
C930 H918 0.959 . S
C930 C928 1.561 1_545 S
C931 C928 1.526 1_545 S
C931 C932 1.396 . S
C931 C936 1.390 . S
C932 C926 1.449 1_545 S
C932 C931 1.396 . S
C932 C933 1.399 . S
C933 H919 0.929 . S
C933 C932 1.399 . S
C933 C934 1.385 . S
C934 H920 0.931 . S
C934 C933 1.385 . S
C934 C935 1.389 . S
C935 C934 1.389 . S
C935 C936 1.387 . S
C936 H921 0.930 . S
C936 C931 1.390 . S
C936 C935 1.387 . S
H937 C949 0.930 . S
H938 C951 0.930 1_554 S
H939 C952 0.930 1_554 S
H940 C956 0.959 . S
H941 C956 0.959 . S
H942 C956 0.961 1_455 S
H943 C957 0.960 . S
H944 C957 0.961 . S
H945 C957 0.959 . S
H946 C960 0.929 . S
H947 C961 0.931 . S
H948 C963 0.933 1_455 S
C949 H937 0.930 . S
C949 C950 1.399 . S
C949 C954 1.399 . S
C950 C949 1.399 . S
C950 C951 1.376 . S
C951 H938 0.930 1_556 S
C951 C950 1.376 . S
C951 C952 1.388 . S
C952 H939 0.930 1_556 S
C952 C951 1.388 . S
C952 C953 1.390 . S
C953 C952 1.390 . S
C953 C954 1.394 . S
C953 C959 1.465 . S
C954 C949 1.399 . S
C954 C953 1.394 . S
C954 C955 1.516 . S
C955 C954 1.516 . S
C955 C956 1.502 1_455 S
C955 C957 1.561 . S
C955 C958 1.526 . S
C956 H940 0.959 . S
C956 H941 0.959 . S
C956 H942 0.961 1_655 S
C956 C955 1.502 1_655 S
C957 H943 0.960 . S
C957 H944 0.961 . S
C957 H945 0.959 . S
C957 C955 1.561 . S
C958 C955 1.526 . S
C958 C959 1.396 . S
C958 C963 1.372 1_455 S
C959 C953 1.465 . S
C959 C958 1.396 . S
C959 C960 1.399 1_455 S
C960 H946 0.929 . S
C960 C959 1.399 1_655 S
C960 C961 1.385 . S
C961 H947 0.931 . S
C961 C960 1.385 . S
C961 C962 1.389 . S
C962 C961 1.389 . S
C962 C963 1.402 . S
C963 H948 0.933 1_655 S
C963 C958 1.372 1_655 S
C963 C962 1.402 . S
H964 C976 0.930 . S
H965 C978 0.930 . S
H966 C979 0.930 1_554 S
H967 C983 0.959 . S
H968 C983 0.959 . S
H969 C983 0.961 . S
H970 C984 0.960 . S
H971 C984 0.961 . S
H972 C984 0.959 . S
H973 C987 0.929 . S
H974 C988 0.931 . S
H975 C990 0.930 . S
C976 H964 0.930 . S
C976 C977 1.399 . S
C976 C981 1.399 . S
C977 C976 1.399 . S
C977 C978 1.376 . S
C978 H965 0.930 . S
C978 C977 1.376 . S
C978 C979 1.388 . S
C979 H966 0.930 1_556 S
C979 C978 1.388 . S
C979 C980 1.390 . S
C980 C979 1.390 . S
C980 C981 1.394 . S
C980 C986 1.465 . S
C981 C976 1.399 . S
C981 C980 1.394 . S
C981 C982 1.516 . S
C982 C981 1.516 . S
C982 C983 1.502 . S
C982 C984 1.561 . S
C982 C985 1.526 . S
C983 H967 0.959 . S
C983 H968 0.959 . S
C983 H969 0.961 . S
C983 C982 1.502 . S
C984 H970 0.960 . S
C984 H971 0.961 . S
C984 H972 0.959 . S
C984 C982 1.561 . S
C985 C982 1.526 . S
C985 C986 1.396 . S
C985 C990 1.390 . S
C986 C980 1.465 . S
C986 C985 1.396 . S
C986 C987 1.399 1_556 S
C987 H973 0.929 . S
C987 C986 1.399 1_554 S
C987 C988 1.385 . S
C988 H974 0.931 . S
C988 C987 1.385 . S
C988 C989 1.389 1_554 S
C989 C988 1.389 1_556 S
C989 C990 1.387 . S
C990 H975 0.930 . S
C990 C985 1.390 . S
C990 C989 1.387 . S
H991 C1003 0.930 . S
H992 C1005 0.930 . S
H993 C1006 0.930 . S
H994 C1010 0.959 . S
H995 C1010 0.959 . S
H996 C1010 0.961 . S
H997 C1011 0.960 . S
H998 C1011 0.961 . S
H999 C1011 0.959 . S
H1000 C1014 0.929 . S
H1001 C1015 0.931 . S
H1002 C1017 0.930 . S
C1003 H991 0.930 . S
C1003 C1004 1.399 . S
C1003 C1008 1.399 . S
C1004 C1003 1.399 . S
C1004 C1005 1.376 . S
C1005 H992 0.930 . S
C1005 C1004 1.376 . S
C1005 C1006 1.388 . S
C1006 H993 0.930 . S
C1006 C1005 1.388 . S
C1006 C1007 1.390 . S
C1007 C1006 1.390 . S
C1007 C1008 1.394 . S
C1007 C1013 1.465 . S
C1008 C1003 1.399 . S
C1008 C1007 1.394 . S
C1008 C1009 1.516 . S
C1009 C1008 1.516 . S
C1009 C1010 1.502 . S
C1009 C1011 1.561 . S
C1009 C1012 1.526 . S
C1010 H994 0.959 . S
C1010 H995 0.959 . S
C1010 H996 0.961 . S
C1010 C1009 1.502 . S
C1011 H997 0.960 . S
C1011 H998 0.961 . S
C1011 H999 0.959 . S
C1011 C1009 1.561 . S
C1012 C1009 1.526 . S
C1012 C1013 1.396 . S
C1012 C1017 1.390 . S
C1013 C1007 1.465 . S
C1013 C1012 1.396 . S
C1013 C1014 1.399 . S
C1014 H1000 0.929 . S
C1014 C1013 1.399 . S
C1014 C1015 1.385 . S
C1015 H1001 0.931 . S
C1015 C1014 1.385 . S
C1015 C1016 1.389 . S
C1016 C1015 1.389 . S
C1016 C1017 1.387 . S
C1017 H1002 0.930 . S
C1017 C1012 1.390 . S
C1017 C1016 1.387 . S
H1018 C1030 0.930 . S
H1019 C1032 0.930 . S
H1020 C1033 0.930 . S
H1021 C1037 0.959 . S
H1022 C1037 0.959 . S
H1023 C1037 0.961 . S
H1024 C1038 0.960 . S
H1025 C1038 0.961 . S
H1026 C1038 0.959 . S
H1027 C1041 0.929 . S
H1028 C1042 0.931 . S
H1029 C1044 0.930 . S
C1030 H1018 0.930 . S
C1030 C1031 1.399 . S
C1030 C1035 1.399 . S
C1031 C1030 1.399 . S
C1031 C1032 1.376 . S
C1032 H1019 0.930 . S
C1032 C1031 1.376 . S
C1032 C1033 1.388 . S
C1033 H1020 0.930 . S
C1033 C1032 1.388 . S
C1033 C1034 1.390 . S
C1034 C1033 1.390 . S
C1034 C1035 1.394 . S
C1034 C1040 1.465 . S
C1035 C1030 1.399 . S
C1035 C1034 1.394 . S
C1035 C1036 1.516 . S
C1036 C1035 1.516 . S
C1036 C1037 1.502 . S
C1036 C1038 1.561 . S
C1036 C1039 1.526 . S
C1037 H1021 0.959 . S
C1037 H1022 0.959 . S
C1037 H1023 0.961 . S
C1037 C1036 1.502 . S
C1038 H1024 0.960 . S
C1038 H1025 0.961 . S
C1038 H1026 0.959 . S
C1038 C1036 1.561 . S
C1039 C1036 1.526 . S
C1039 C1040 1.396 . S
C1039 C1044 1.390 . S
C1040 C1034 1.465 . S
C1040 C1039 1.396 . S
C1040 C1041 1.399 . S
C1041 H1027 0.929 . S
C1041 C1040 1.399 . S
C1041 C1042 1.385 . S
C1042 H1028 0.931 . S
C1042 C1041 1.385 . S
C1042 C1043 1.389 . S
C1043 C1042 1.389 . S
C1043 C1044 1.387 . S
C1044 H1029 0.930 . S
C1044 C1039 1.390 . S
C1044 C1043 1.387 . S
H1045 C1057 0.930 . S
H1046 C1059 0.930 . S
H1047 C1060 0.930 . S
H1048 C1064 0.959 . S
H1049 C1064 0.959 . S
H1050 C1064 0.961 . S
H1051 C1065 0.960 . S
H1052 C1065 0.961 . S
H1053 C1065 0.959 . S
H1054 C1068 0.929 . S
H1055 C1069 0.931 . S
H1056 C1071 0.930 . S
C1057 H1045 0.930 . S
C1057 C1058 1.399 . S
C1057 C1062 1.399 . S
C1058 C1057 1.399 . S
C1058 C1059 1.376 . S
C1059 H1046 0.930 . S
C1059 C1058 1.376 . S
C1059 C1060 1.388 . S
C1060 H1047 0.930 . S
C1060 C1059 1.388 . S
C1060 C1061 1.390 . S
C1061 C1060 1.390 . S
C1061 C1062 1.394 . S
C1061 C1067 1.465 . S
C1062 C1057 1.399 . S
C1062 C1061 1.394 . S
C1062 C1063 1.516 . S
C1063 C1062 1.516 . S
C1063 C1064 1.502 . S
C1063 C1065 1.561 . S
C1063 C1066 1.526 . S
C1064 H1048 0.959 . S
C1064 H1049 0.959 . S
C1064 H1050 0.961 . S
C1064 C1063 1.502 . S
C1065 H1051 0.960 . S
C1065 H1052 0.961 . S
C1065 H1053 0.959 . S
C1065 C1063 1.561 . S
C1066 C1063 1.526 . S
C1066 C1067 1.396 . S
C1066 C1071 1.390 . S
C1067 C1061 1.465 . S
C1067 C1066 1.396 . S
C1067 C1068 1.399 . S
C1068 H1054 0.929 . S
C1068 C1067 1.399 . S
C1068 C1069 1.385 . S
C1069 H1055 0.931 . S
C1069 C1068 1.385 . S
C1069 C1070 1.389 . S
C1070 C1069 1.389 . S
C1070 C1071 1.387 . S
C1071 H1056 0.930 . S
C1071 C1066 1.390 . S
C1071 C1070 1.387 . S
H1072 C1084 0.930 . S
H1073 C1086 0.930 . S
H1074 C1087 0.930 . S
H1075 C1091 0.959 . S
H1076 C1091 0.959 . S
H1077 C1091 0.961 . S
H1078 C1092 0.960 . S
H1079 C1092 0.961 . S
H1080 C1092 0.959 . S
H1081 C1095 0.929 . S
H1082 C1096 0.931 . S
H1083 C1098 0.930 . S
C1084 H1072 0.930 . S
C1084 C1085 1.399 . S
C1084 C1089 1.399 . S
C1085 C1084 1.399 . S
C1085 C1086 1.376 . S
C1086 H1073 0.930 . S
C1086 C1085 1.376 . S
C1086 C1087 1.388 . S
C1087 H1074 0.930 . S
C1087 C1086 1.388 . S
C1087 C1088 1.390 . S
C1088 C1087 1.390 . S
C1088 C1089 1.394 . S
C1088 C1094 1.465 . S
C1089 C1084 1.399 . S
C1089 C1088 1.394 . S
C1089 C1090 1.516 . S
C1090 C1089 1.516 . S
C1090 C1091 1.502 . S
C1090 C1092 1.561 . S
C1090 C1093 1.526 . S
C1091 H1075 0.959 . S
C1091 H1076 0.959 . S
C1091 H1077 0.961 . S
C1091 C1090 1.502 . S
C1092 H1078 0.960 . S
C1092 H1079 0.961 . S
C1092 H1080 0.959 . S
C1092 C1090 1.561 . S
C1093 C1090 1.526 . S
C1093 C1094 1.396 . S
C1093 C1098 1.390 . S
C1094 C1088 1.465 . S
C1094 C1093 1.396 . S
C1094 C1095 1.399 . S
C1095 H1081 0.929 . S
C1095 C1094 1.399 . S
C1095 C1096 1.385 . S
C1096 H1082 0.931 . S
C1096 C1095 1.385 . S
C1096 C1097 1.389 . S
C1097 C1096 1.389 . S
C1097 C1098 1.387 . S
C1098 H1083 0.930 . S
C1098 C1093 1.390 . S
C1098 C1097 1.387 . S
H1099 C1111 0.930 . S
H1100 C1113 0.930 . S
H1101 C1114 0.930 . S
H1102 C1118 0.959 . S
H1103 C1118 0.959 . S
H1104 C1118 0.961 . S
H1105 C1119 0.960 . S
H1106 C1119 0.961 . S
H1107 C1119 0.959 . S
H1108 C1122 0.929 . S
H1109 C1123 0.931 . S
H1110 C1125 0.930 . S
C1111 H1099 0.930 . S
C1111 C1112 1.399 . S
C1111 C1116 1.399 . S
C1112 C1111 1.399 . S
C1112 C1113 1.376 . S
C1113 H1100 0.930 . S
C1113 C1112 1.376 . S
C1113 C1114 1.388 . S
C1114 H1101 0.930 . S
C1114 C1113 1.388 . S
C1114 C1115 1.390 . S
C1115 C1114 1.390 . S
C1115 C1116 1.394 . S
C1115 C1121 1.465 . S
C1116 C1111 1.399 . S
C1116 C1115 1.394 . S
C1116 C1117 1.516 . S
C1117 C1116 1.516 . S
C1117 C1118 1.502 . S
C1117 C1119 1.561 . S
C1117 C1120 1.526 . S
C1118 H1102 0.959 . S
C1118 H1103 0.959 . S
C1118 H1104 0.961 . S
C1118 C1117 1.502 . S
C1119 H1105 0.960 . S
C1119 H1106 0.961 . S
C1119 H1107 0.959 . S
C1119 C1117 1.561 . S
C1120 C1117 1.526 . S
C1120 C1121 1.396 . S
C1120 C1125 1.390 . S
C1121 C1115 1.465 . S
C1121 C1120 1.396 . S
C1121 C1122 1.399 . S
C1122 H1108 0.929 . S
C1122 C1121 1.399 . S
C1122 C1123 1.385 . S
C1123 H1109 0.931 . S
C1123 C1122 1.385 . S
C1123 C1124 1.389 . S
C1124 C1123 1.389 . S
C1124 C1125 1.387 . S
C1125 H1110 0.930 . S
C1125 C1120 1.390 . S
C1125 C1124 1.387 . S
H1126 C1138 0.930 . S
H1127 C1140 0.930 . S
H1128 C1141 0.930 . S
H1129 C1145 0.959 . S
H1130 C1145 0.959 . S
H1131 C1145 0.961 . S
H1132 C1146 0.960 . S
H1133 C1146 0.961 . S
H1134 C1146 0.959 . S
H1135 C1149 0.929 . S
H1136 C1150 0.931 . S
H1137 C1152 0.930 . S
C1138 H1126 0.930 . S
C1138 C1139 1.399 . S
C1138 C1143 1.399 . S
C1139 C1138 1.399 . S
C1139 C1140 1.376 . S
C1140 H1127 0.930 . S
C1140 C1139 1.376 . S
C1140 C1141 1.388 . S
C1141 H1128 0.930 . S
C1141 C1140 1.388 . S
C1141 C1142 1.390 . S
C1142 C1141 1.390 . S
C1142 C1143 1.394 . S
C1142 C1148 1.465 . S
C1143 C1138 1.399 . S
C1143 C1142 1.394 . S
C1143 C1144 1.516 . S
C1144 C1143 1.516 . S
C1144 C1145 1.502 . S
C1144 C1146 1.561 . S
C1144 C1147 1.526 . S
C1145 H1129 0.959 . S
C1145 H1130 0.959 . S
C1145 H1131 0.961 . S
C1145 C1144 1.502 . S
C1146 H1132 0.960 . S
C1146 H1133 0.961 . S
C1146 H1134 0.959 . S
C1146 C1144 1.561 . S
C1147 C1144 1.526 . S
C1147 C1148 1.396 . S
C1147 C1152 1.390 . S
C1148 C1142 1.465 . S
C1148 C1147 1.396 . S
C1148 C1149 1.399 . S
C1149 H1135 0.929 . S
C1149 C1148 1.399 . S
C1149 C1150 1.385 . S
C1150 H1136 0.931 . S
C1150 C1149 1.385 . S
C1150 C1151 1.389 . S
C1151 C1150 1.389 . S
C1151 C1152 1.387 . S
C1152 H1137 0.930 . S
C1152 C1147 1.390 . S
C1152 C1151 1.387 . S
H1153 C1165 0.930 . S
H1154 C1167 0.930 . S
H1155 C1168 0.930 . S
H1156 C1172 0.959 . S
H1157 C1172 0.959 . S
H1158 C1172 0.961 . S
H1159 C1173 0.960 . S
H1160 C1173 0.961 . S
H1161 C1173 0.959 . S
H1162 C1176 0.929 . S
H1163 C1177 0.931 . S
H1164 C1179 0.930 . S
C1165 H1153 0.930 . S
C1165 C1166 1.399 . S
C1165 C1170 1.399 . S
C1166 C1165 1.399 . S
C1166 C1167 1.376 . S
C1167 H1154 0.930 . S
C1167 C1166 1.376 . S
C1167 C1168 1.388 . S
C1168 H1155 0.930 . S
C1168 C1167 1.388 . S
C1168 C1169 1.390 . S
C1169 C1168 1.390 . S
C1169 C1170 1.394 . S
C1169 C1175 1.465 . S
C1170 C1165 1.399 . S
C1170 C1169 1.394 . S
C1170 C1171 1.516 . S
C1171 C1170 1.516 . S
C1171 C1172 1.502 . S
C1171 C1173 1.561 . S
C1171 C1174 1.526 . S
C1172 H1156 0.959 . S
C1172 H1157 0.959 . S
C1172 H1158 0.961 . S
C1172 C1171 1.502 . S
C1173 H1159 0.960 . S
C1173 H1160 0.961 . S
C1173 H1161 0.959 . S
C1173 C1171 1.561 . S
C1174 C1171 1.526 . S
C1174 C1175 1.396 . S
C1174 C1179 1.390 . S
C1175 C1169 1.465 . S
C1175 C1174 1.396 . S
C1175 C1176 1.399 . S
C1176 H1162 0.929 . S
C1176 C1175 1.399 . S
C1176 C1177 1.385 . S
C1177 H1163 0.931 . S
C1177 C1176 1.385 . S
C1177 C1178 1.389 . S
C1178 C1177 1.389 . S
C1178 C1179 1.387 . S
C1179 H1164 0.930 . S
C1179 C1174 1.390 . S
C1179 C1178 1.387 . S
H1180 C1192 0.930 . S
H1181 C1194 0.930 . S
H1182 C1195 0.930 . S
H1183 C1199 0.959 . S
H1184 C1199 0.959 . S
H1185 C1199 0.961 . S
H1186 C1200 0.960 . S
H1187 C1200 0.961 . S
H1188 C1200 0.959 . S
H1189 C1203 0.929 . S
H1190 C1204 0.931 . S
H1191 C1206 0.930 . S
C1192 H1180 0.930 . S
C1192 C1193 1.399 . S
C1192 C1197 1.399 . S
C1193 C1192 1.399 . S
C1193 C1194 1.376 . S
C1194 H1181 0.930 . S
C1194 C1193 1.376 . S
C1194 C1195 1.388 . S
C1195 H1182 0.930 . S
C1195 C1194 1.388 . S
C1195 C1196 1.390 . S
C1196 C1195 1.390 . S
C1196 C1197 1.394 . S
C1196 C1202 1.465 . S
C1197 C1192 1.399 . S
C1197 C1196 1.394 . S
C1197 C1198 1.516 . S
C1198 C1197 1.516 . S
C1198 C1199 1.502 . S
C1198 C1200 1.561 . S
C1198 C1201 1.526 . S
C1199 H1183 0.959 . S
C1199 H1184 0.959 . S
C1199 H1185 0.961 . S
C1199 C1198 1.502 . S
C1200 H1186 0.960 . S
C1200 H1187 0.961 . S
C1200 H1188 0.959 . S
C1200 C1198 1.561 . S
C1201 C1198 1.526 . S
C1201 C1202 1.396 . S
C1201 C1206 1.390 . S
C1202 C1196 1.465 . S
C1202 C1201 1.396 . S
C1202 C1203 1.399 . S
C1203 H1189 0.929 . S
C1203 C1202 1.399 . S
C1203 C1204 1.385 . S
C1204 H1190 0.931 . S
C1204 C1203 1.385 . S
C1204 C1205 1.389 . S
C1205 C1204 1.389 . S
C1205 C1206 1.387 . S
C1206 H1191 0.930 . S
C1206 C1201 1.390 . S
C1206 C1205 1.387 . S
H1207 C1219 0.930 . S
H1208 C1221 0.930 . S
H1209 C1222 0.930 . S
H1210 C1226 0.959 . S
H1211 C1226 0.959 . S
H1212 C1226 0.961 . S
H1213 C1227 0.960 . S
H1214 C1227 0.961 . S
H1215 C1227 0.959 . S
H1216 C1230 0.929 . S
H1217 C1231 0.931 . S
H1218 C1233 0.930 . S
C1219 H1207 0.930 . S
C1219 C1220 1.399 . S
C1219 C1224 1.423 . S
C1220 C1219 1.399 . S
C1220 C1221 1.376 . S
C1221 H1208 0.930 . S
C1221 C1220 1.376 . S
C1221 C1222 1.388 . S
C1222 H1209 0.930 . S
C1222 C1221 1.388 . S
C1222 C1223 1.390 . S
C1223 C1222 1.390 . S
C1223 C1224 1.392 . S
C1223 C1229 1.465 1_455 S
C1224 C1219 1.423 . S
C1224 C1223 1.392 . S
C1224 C1225 1.495 1_455 S
C1225 C1224 1.495 1_655 S
C1225 C1226 1.502 . S
C1225 C1227 1.561 1_655 S
C1225 C1228 1.526 . S
C1226 H1210 0.959 . S
C1226 H1211 0.959 . S
C1226 H1212 0.961 . S
C1226 C1225 1.502 . S
C1227 H1213 0.960 . S
C1227 H1214 0.961 . S
C1227 H1215 0.959 . S
C1227 C1225 1.561 1_455 S
C1228 C1225 1.526 . S
C1228 C1229 1.396 . S
C1228 C1233 1.390 . S
C1229 C1223 1.465 1_655 S
C1229 C1228 1.396 . S
C1229 C1230 1.399 . S
C1230 H1216 0.929 . S
C1230 C1229 1.399 . S
C1230 C1231 1.385 . S
C1231 H1217 0.931 . S
C1231 C1230 1.385 . S
C1231 C1232 1.389 . S
C1232 C1231 1.389 . S
C1232 C1233 1.387 . S
C1233 H1218 0.930 . S
C1233 C1228 1.390 . S
C1233 C1232 1.387 . S
H1234 C1246 0.930 . S
H1235 C1248 0.930 . S
H1236 C1249 0.930 . S
H1237 C1253 0.959 . S
H1238 C1253 0.959 . S
H1239 C1253 0.961 . S
H1240 C1254 0.960 . S
H1241 C1254 0.961 . S
H1242 C1254 0.959 . S
H1243 C1257 0.929 . S
H1244 C1258 0.931 . S
H1245 C1260 0.930 . S
C1246 H1234 0.930 . S
C1246 C1247 1.399 . S
C1246 C1251 1.399 . S
C1247 C1246 1.399 . S
C1247 C1248 1.376 . S
C1248 H1235 0.930 . S
C1248 C1247 1.376 . S
C1248 C1249 1.388 . S
C1249 H1236 0.930 . S
C1249 C1248 1.388 . S
C1249 C1250 1.390 . S
C1250 C1249 1.390 . S
C1250 C1251 1.394 . S
C1250 C1256 1.465 . S
C1251 C1246 1.399 . S
C1251 C1250 1.394 . S
C1251 C1252 1.516 . S
C1252 C1251 1.516 . S
C1252 C1253 1.502 . S
C1252 C1254 1.561 . S
C1252 C1255 1.526 . S
C1253 H1237 0.959 . S
C1253 H1238 0.959 . S
C1253 H1239 0.961 . S
C1253 C1252 1.502 . S
C1254 H1240 0.960 . S
C1254 H1241 0.961 . S
C1254 H1242 0.959 . S
C1254 C1252 1.561 . S
C1255 C1252 1.526 . S
C1255 C1256 1.396 . S
C1255 C1260 1.390 . S
C1256 C1250 1.465 . S
C1256 C1255 1.396 . S
C1256 C1257 1.399 . S
C1257 H1243 0.929 . S
C1257 C1256 1.399 . S
C1257 C1258 1.385 . S
C1258 H1244 0.931 . S
C1258 C1257 1.385 . S
C1258 C1259 1.389 . S
C1259 C1258 1.389 . S
C1259 C1260 1.387 . S
C1260 H1245 0.930 . S
C1260 C1255 1.390 . S
C1260 C1259 1.387 . S
H1261 C1273 0.930 . S
H1262 C1275 0.930 . S
H1263 C1276 0.930 . S
H1264 C1280 0.959 . S
H1265 C1280 0.959 . S
H1266 C1280 0.961 . S
H1267 C1281 0.960 . S
H1268 C1281 0.961 . S
H1269 C1281 0.959 . S
H1270 C1284 0.929 . S
H1271 C1285 0.931 . S
H1272 C1287 0.930 . S
C1273 H1261 0.930 . S
C1273 C1274 1.399 . S
C1273 C1278 1.399 . S
C1274 C1273 1.399 . S
C1274 C1275 1.376 . S
C1275 H1262 0.930 . S
C1275 C1274 1.376 . S
C1275 C1276 1.388 . S
C1276 H1263 0.930 . S
C1276 C1275 1.388 . S
C1276 C1277 1.390 . S
C1277 C1276 1.390 . S
C1277 C1278 1.394 . S
C1277 C1283 1.465 . S
C1278 C1273 1.399 . S
C1278 C1277 1.394 . S
C1278 C1279 1.516 . S
C1279 C1278 1.516 . S
C1279 C1280 1.502 . S
C1279 C1281 1.561 . S
C1279 C1282 1.526 . S
C1280 H1264 0.959 . S
C1280 H1265 0.959 . S
C1280 H1266 0.961 . S
C1280 C1279 1.502 . S
C1281 H1267 0.960 . S
C1281 H1268 0.961 . S
C1281 H1269 0.959 . S
C1281 C1279 1.561 . S
C1282 C1279 1.526 . S
C1282 C1283 1.396 . S
C1282 C1287 1.390 . S
C1283 C1277 1.465 . S
C1283 C1282 1.396 . S
C1283 C1284 1.399 . S
C1284 H1270 0.929 . S
C1284 C1283 1.399 . S
C1284 C1285 1.385 . S
C1285 H1271 0.931 . S
C1285 C1284 1.385 . S
C1285 C1286 1.389 . S
C1286 C1285 1.389 . S
C1286 C1287 1.387 . S
C1287 H1272 0.930 . S
C1287 C1282 1.390 . S
C1287 C1286 1.387 . S
H1288 C1300 0.930 . S
H1289 C1302 0.930 . S
H1290 C1303 0.930 . S
H1291 C1307 0.959 . S
H1292 C1307 0.959 . S
H1293 C1307 0.961 . S
H1294 C1308 0.960 . S
H1295 C1308 0.961 . S
H1296 C1308 0.959 . S
H1297 C1311 0.929 . S
H1298 C1312 0.931 . S
H1299 C1314 0.930 . S
C1300 H1288 0.930 . S
C1300 C1301 1.399 . S
C1300 C1305 1.399 . S
C1301 C1300 1.399 . S
C1301 C1302 1.376 . S
C1302 H1289 0.930 . S
C1302 C1301 1.376 . S
C1302 C1303 1.388 . S
C1303 H1290 0.930 . S
C1303 C1302 1.388 . S
C1303 C1304 1.390 . S
C1304 C1303 1.390 . S
C1304 C1305 1.394 . S
C1304 C1310 1.465 . S
C1305 C1300 1.399 . S
C1305 C1304 1.394 . S
C1305 C1306 1.516 . S
C1306 C1305 1.516 . S
C1306 C1307 1.502 . S
C1306 C1308 1.561 . S
C1306 C1309 1.526 . S
C1307 H1291 0.959 . S
C1307 H1292 0.959 . S
C1307 H1293 0.961 . S
C1307 C1306 1.502 . S
C1308 H1294 0.960 . S
C1308 H1295 0.961 . S
C1308 H1296 0.959 . S
C1308 C1306 1.561 . S
C1309 C1306 1.526 . S
C1309 C1310 1.396 . S
C1309 C1314 1.390 . S
C1310 C1304 1.465 . S
C1310 C1309 1.396 . S
C1310 C1311 1.399 . S
C1311 H1297 0.929 . S
C1311 C1310 1.399 . S
C1311 C1312 1.385 . S
C1312 H1298 0.931 . S
C1312 C1311 1.385 . S
C1312 C1313 1.389 . S
C1313 C1312 1.389 . S
C1313 C1314 1.387 . S
C1314 H1299 0.930 . S
C1314 C1309 1.390 . S
C1314 C1313 1.387 . S
H1315 C1327 0.930 . S
H1316 C1329 0.930 . S
H1317 C1330 0.930 . S
H1318 C1334 0.959 . S
H1319 C1334 0.959 . S
H1320 C1334 0.961 . S
H1321 C1335 0.960 . S
H1322 C1335 0.961 . S
H1323 C1335 0.959 . S
H1324 C1338 0.929 . S
H1325 C1339 0.931 . S
H1326 C1341 0.930 . S
C1327 H1315 0.930 . S
C1327 C1328 1.399 . S
C1327 C1332 1.399 . S
C1328 C1327 1.399 . S
C1328 C1329 1.376 . S
C1329 H1316 0.930 . S
C1329 C1328 1.376 . S
C1329 C1330 1.388 . S
C1330 H1317 0.930 . S
C1330 C1329 1.388 . S
C1330 C1331 1.390 . S
C1331 C1330 1.390 . S
C1331 C1332 1.394 . S
C1331 C1337 1.465 . S
C1332 C1327 1.399 . S
C1332 C1331 1.394 . S
C1332 C1333 1.516 . S
C1333 C1332 1.516 . S
C1333 C1334 1.502 . S
C1333 C1335 1.561 . S
C1333 C1336 1.526 . S
C1334 H1318 0.959 . S
C1334 H1319 0.959 . S
C1334 H1320 0.961 . S
C1334 C1333 1.502 . S
C1335 H1321 0.960 . S
C1335 H1322 0.961 . S
C1335 H1323 0.959 . S
C1335 C1333 1.561 . S
C1336 C1333 1.526 . S
C1336 C1337 1.396 . S
C1336 C1341 1.390 . S
C1337 C1331 1.465 . S
C1337 C1336 1.396 . S
C1337 C1338 1.399 . S
C1338 H1324 0.929 . S
C1338 C1337 1.399 . S
C1338 C1339 1.385 . S
C1339 H1325 0.931 . S
C1339 C1338 1.385 . S
C1339 C1340 1.389 . S
C1340 C1339 1.389 . S
C1340 C1341 1.387 . S
C1341 H1326 0.930 . S
C1341 C1336 1.390 . S
C1341 C1340 1.387 . S
H1342 C1354 0.930 . S
H1343 C1356 0.930 . S
H1344 C1357 0.918 1_545 S
H1345 C1361 0.959 . S
H1346 C1361 0.959 . S
H1347 C1361 0.961 . S
H1348 C1362 0.960 . S
H1349 C1362 0.961 . S
H1350 C1362 0.959 . S
H1351 C1365 0.929 . S
H1352 C1366 0.931 . S
H1353 C1368 0.930 . S
C1354 H1342 0.930 . S
C1354 C1355 1.399 . S
C1354 C1359 1.399 . S
C1355 C1354 1.399 . S
C1355 C1356 1.376 . S
C1356 H1343 0.930 . S
C1356 C1355 1.376 . S
C1356 C1357 1.388 . S
C1357 H1344 0.918 1_565 S
C1357 C1356 1.388 . S
C1357 C1358 1.390 1_565 S
C1358 C1357 1.390 1_545 S
C1358 C1359 1.394 1_545 S
C1358 C1364 1.465 . S
C1359 C1354 1.399 . S
C1359 C1358 1.394 1_565 S
C1359 C1360 1.516 1_565 S
C1360 C1359 1.516 1_545 S
C1360 C1361 1.502 1_545 S
C1360 C1362 1.561 . S
C1360 C1363 1.526 . S
C1361 H1345 0.959 . S
C1361 H1346 0.959 . S
C1361 H1347 0.961 . S
C1361 C1360 1.502 1_565 S
C1362 H1348 0.960 . S
C1362 H1349 0.961 . S
C1362 H1350 0.959 . S
C1362 C1360 1.561 . S
C1363 C1360 1.526 . S
C1363 C1364 1.396 . S
C1363 C1368 1.390 . S
C1364 C1358 1.465 . S
C1364 C1363 1.396 . S
C1364 C1365 1.399 . S
C1365 H1351 0.929 . S
C1365 C1364 1.399 . S
C1365 C1366 1.385 . S
C1366 H1352 0.931 . S
C1366 C1365 1.385 . S
C1366 C1367 1.389 . S
C1367 C1366 1.389 . S
C1367 C1368 1.387 . S
C1368 H1353 0.930 . S
C1368 C1363 1.390 . S
C1368 C1367 1.387 . S
H1369 C1381 0.930 . S
H1370 C1383 0.930 . S
H1371 C1384 0.930 . S
H1372 C1388 0.959 . S
H1373 C1388 0.959 . S
H1374 C1388 0.961 . S
H1375 C1389 0.960 . S
H1376 C1389 0.961 . S
H1377 C1389 0.959 1_554 S
H1378 C1392 0.929 . S
H1379 C1393 0.931 . S
H1380 C1395 0.930 . S
C1381 H1369 0.930 . S
C1381 C1382 1.399 1_556 S
C1381 C1386 1.399 1_556 S
C1382 C1381 1.399 1_554 S
C1382 C1383 1.376 . S
C1383 H1370 0.930 . S
C1383 C1382 1.376 . S
C1383 C1384 1.388 . S
C1384 H1371 0.930 . S
C1384 C1383 1.388 . S
C1384 C1385 1.390 . S
C1385 C1384 1.390 . S
C1385 C1386 1.394 . S
C1385 C1391 1.465 . S
C1386 C1381 1.399 1_554 S
C1386 C1385 1.394 . S
C1386 C1387 1.516 1_554 S
C1387 C1386 1.516 1_556 S
C1387 C1388 1.502 . S
C1387 C1389 1.561 . S
C1387 C1390 1.526 1_556 S
C1388 H1372 0.959 . S
C1388 H1373 0.959 . S
C1388 H1374 0.961 . S
C1388 C1387 1.502 . S
C1389 H1375 0.960 . S
C1389 H1376 0.961 . S
C1389 H1377 0.959 1_556 S
C1389 C1387 1.561 . S
C1390 C1387 1.526 1_554 S
C1390 C1391 1.396 . S
C1390 C1395 1.390 . S
C1391 C1385 1.465 . S
C1391 C1390 1.396 . S
C1391 C1392 1.399 . S
C1392 H1378 0.929 . S
C1392 C1391 1.399 . S
C1392 C1393 1.385 . S
C1393 H1379 0.931 . S
C1393 C1392 1.385 . S
C1393 C1394 1.389 . S
C1394 C1393 1.389 . S
C1394 C1395 1.387 . S
C1395 H1380 0.930 . S
C1395 C1390 1.390 . S
C1395 C1394 1.387 . S
H1396 C1408 0.930 . S
H1397 C1410 0.930 . S
H1398 C1411 0.930 . S
H1399 C1415 0.959 . S
H1400 C1415 0.959 . S
H1401 C1415 0.961 . S
H1402 C1416 0.960 . S
H1403 C1416 0.961 . S
H1404 C1416 0.959 . S
H1405 C1419 0.929 . S
H1406 C1420 0.931 . S
H1407 C1422 0.930 . S
C1408 H1396 0.930 . S
C1408 C1409 1.399 . S
C1408 C1413 1.399 . S
C1409 C1408 1.399 . S
C1409 C1410 1.376 . S
C1410 H1397 0.930 . S
C1410 C1409 1.376 . S
C1410 C1411 1.388 . S
C1411 H1398 0.930 . S
C1411 C1410 1.388 . S
C1411 C1412 1.390 . S
C1412 C1411 1.390 . S
C1412 C1413 1.394 . S
C1412 C1418 1.465 . S
C1413 C1408 1.399 . S
C1413 C1412 1.394 . S
C1413 C1414 1.516 . S
C1414 C1413 1.516 . S
C1414 C1415 1.502 . S
C1414 C1416 1.561 . S
C1414 C1417 1.526 . S
C1415 H1399 0.959 . S
C1415 H1400 0.959 . S
C1415 H1401 0.961 . S
C1415 C1414 1.502 . S
C1416 H1402 0.960 . S
C1416 H1403 0.961 . S
C1416 H1404 0.959 . S
C1416 C1414 1.561 . S
C1417 C1414 1.526 . S
C1417 C1418 1.396 . S
C1417 C1422 1.390 . S
C1418 C1412 1.465 . S
C1418 C1417 1.396 . S
C1418 C1419 1.399 . S
C1419 H1405 0.929 . S
C1419 C1418 1.399 . S
C1419 C1420 1.385 . S
C1420 H1406 0.931 . S
C1420 C1419 1.385 . S
C1420 C1421 1.389 . S
C1421 C1420 1.389 . S
C1421 C1422 1.387 . S
C1422 H1407 0.930 . S
C1422 C1417 1.390 . S
C1422 C1421 1.387 . S
H1423 C1435 0.930 . S
H1424 C1437 0.930 . S
H1425 C1438 0.930 . S
H1426 C1442 0.959 . S
H1427 C1442 0.959 . S
H1428 C1442 0.961 . S
H1429 C1443 0.960 . S
H1430 C1443 0.961 . S
H1431 C1443 0.959 . S
H1432 C1446 0.929 . S
H1433 C1447 0.931 . S
H1434 C1449 0.930 . S
C1435 H1423 0.930 . S
C1435 C1436 1.399 . S
C1435 C1440 1.399 . S
C1436 C1435 1.399 . S
C1436 C1437 1.376 . S
C1437 H1424 0.930 . S
C1437 C1436 1.376 . S
C1437 C1438 1.388 . S
C1438 H1425 0.930 . S
C1438 C1437 1.388 . S
C1438 C1439 1.390 . S
C1439 C1438 1.390 . S
C1439 C1440 1.394 . S
C1439 C1445 1.465 . S
C1440 C1435 1.399 . S
C1440 C1439 1.394 . S
C1440 C1441 1.516 . S
C1441 C1440 1.516 . S
C1441 C1442 1.502 . S
C1441 C1443 1.561 . S
C1441 C1444 1.526 . S
C1442 H1426 0.959 . S
C1442 H1427 0.959 . S
C1442 H1428 0.961 . S
C1442 C1441 1.502 . S
C1443 H1429 0.960 . S
C1443 H1430 0.961 . S
C1443 H1431 0.959 . S
C1443 C1441 1.561 . S
C1444 C1441 1.526 . S
C1444 C1445 1.396 . S
C1444 C1449 1.390 . S
C1445 C1439 1.465 . S
C1445 C1444 1.396 . S
C1445 C1446 1.399 . S
C1446 H1432 0.929 . S
C1446 C1445 1.399 . S
C1446 C1447 1.385 . S
C1447 H1433 0.931 . S
C1447 C1446 1.385 . S
C1447 C1448 1.389 . S
C1448 C1447 1.389 . S
C1448 C1449 1.387 . S
C1449 H1434 0.930 . S
C1449 C1444 1.390 . S
C1449 C1448 1.387 . S
H1450 C1462 0.930 . S
H1451 C1464 0.930 . S
H1452 C1465 0.930 . S
H1453 C1469 0.959 . S
H1454 C1469 0.959 . S
H1455 C1469 0.961 . S
H1456 C1470 0.960 . S
H1457 C1470 0.961 . S
H1458 C1470 0.959 . S
H1459 C1473 0.929 . S
H1460 C1474 0.931 . S
H1461 C1476 0.930 . S
C1462 H1450 0.930 . S
C1462 C1463 1.399 . S
C1462 C1467 1.399 . S
C1463 C1462 1.399 . S
C1463 C1464 1.376 . S
C1464 H1451 0.930 . S
C1464 C1463 1.376 . S
C1464 C1465 1.388 . S
C1465 H1452 0.930 . S
C1465 C1464 1.388 . S
C1465 C1466 1.390 . S
C1466 C1465 1.390 . S
C1466 C1467 1.394 . S
C1466 C1472 1.465 . S
C1467 C1462 1.399 . S
C1467 C1466 1.394 . S
C1467 C1468 1.516 . S
C1468 C1467 1.516 . S
C1468 C1469 1.502 . S
C1468 C1470 1.561 . S
C1468 C1471 1.526 . S
C1469 H1453 0.959 . S
C1469 H1454 0.959 . S
C1469 H1455 0.961 . S
C1469 C1468 1.502 . S
C1470 H1456 0.960 . S
C1470 H1457 0.961 . S
C1470 H1458 0.959 . S
C1470 C1468 1.561 . S
C1471 C1468 1.526 . S
C1471 C1472 1.396 . S
C1471 C1476 1.390 . S
C1472 C1466 1.465 . S
C1472 C1471 1.396 . S
C1472 C1473 1.399 . S
C1473 H1459 0.929 . S
C1473 C1472 1.399 . S
C1473 C1474 1.385 . S
C1474 H1460 0.931 . S
C1474 C1473 1.385 . S
C1474 C1475 1.389 . S
C1475 C1474 1.389 . S
C1475 C1476 1.387 . S
C1476 H1461 0.930 . S
C1476 C1471 1.390 . S
C1476 C1475 1.387 . S
H1477 C1489 0.930 . S
H1478 C1491 0.930 . S
H1479 C1492 0.930 . S
H1480 C1496 0.959 . S
H1481 C1496 0.959 . S
H1482 C1496 0.961 . S
H1483 C1497 0.960 . S
H1484 C1497 0.961 . S
H1485 C1497 0.959 . S
H1486 C1500 0.929 . S
H1487 C1501 0.931 . S
H1488 C1503 0.930 . S
C1489 H1477 0.930 . S
C1489 C1490 1.399 . S
C1489 C1494 1.399 . S
C1490 C1489 1.399 . S
C1490 C1491 1.376 . S
C1491 H1478 0.930 . S
C1491 C1490 1.376 . S
C1491 C1492 1.388 . S
C1492 H1479 0.930 . S
C1492 C1491 1.388 . S
C1492 C1493 1.390 . S
C1493 C1492 1.390 . S
C1493 C1494 1.394 . S
C1493 C1499 1.465 . S
C1494 C1489 1.399 . S
C1494 C1493 1.394 . S
C1494 C1495 1.516 . S
C1495 C1494 1.516 . S
C1495 C1496 1.502 . S
C1495 C1497 1.561 . S
C1495 C1498 1.526 . S
C1496 H1480 0.959 . S
C1496 H1481 0.959 . S
C1496 H1482 0.961 . S
C1496 C1495 1.502 . S
C1497 H1483 0.960 . S
C1497 H1484 0.961 . S
C1497 H1485 0.959 . S
C1497 C1495 1.561 . S
C1498 C1495 1.526 . S
C1498 C1499 1.396 . S
C1498 C1503 1.390 . S
C1499 C1493 1.465 . S
C1499 C1498 1.396 . S
C1499 C1500 1.399 . S
C1500 H1486 0.929 . S
C1500 C1499 1.399 . S
C1500 C1501 1.385 . S
C1501 H1487 0.931 . S
C1501 C1500 1.385 . S
C1501 C1502 1.389 . S
C1502 C1501 1.389 . S
C1502 C1503 1.387 . S
C1503 H1488 0.930 . S
C1503 C1498 1.390 . S
C1503 C1502 1.387 . S
H1504 C1516 0.930 . S
H1505 C1518 0.930 . S
H1506 C1519 0.930 . S
H1507 C1523 0.959 . S
H1508 C1523 0.959 . S
H1509 C1523 0.961 . S
H1510 C1524 0.960 . S
H1511 C1524 0.961 . S
H1512 C1524 0.959 . S
H1513 C1527 0.929 . S
H1514 C1528 0.931 . S
H1515 C1530 0.930 . S
C1516 H1504 0.930 . S
C1516 C1517 1.399 . S
C1516 C1521 1.399 . S
C1517 C1516 1.399 . S
C1517 C1518 1.376 . S
C1518 H1505 0.930 . S
C1518 C1517 1.376 . S
C1518 C1519 1.388 . S
C1519 H1506 0.930 . S
C1519 C1518 1.388 . S
C1519 C1520 1.390 . S
C1520 C1519 1.390 . S
C1520 C1521 1.394 . S
C1520 C1526 1.465 . S
C1521 C1516 1.399 . S
C1521 C1520 1.394 . S
C1521 C1522 1.516 . S
C1522 C1521 1.516 . S
C1522 C1523 1.502 . S
C1522 C1524 1.561 . S
C1522 C1525 1.526 . S
C1523 H1507 0.959 . S
C1523 H1508 0.959 . S
C1523 H1509 0.961 . S
C1523 C1522 1.502 . S
C1524 H1510 0.960 . S
C1524 H1511 0.961 . S
C1524 H1512 0.959 . S
C1524 C1522 1.561 . S
C1525 C1522 1.526 . S
C1525 C1526 1.396 . S
C1525 C1530 1.390 . S
C1526 C1520 1.465 . S
C1526 C1525 1.396 . S
C1526 C1527 1.399 . S
C1527 H1513 0.929 . S
C1527 C1526 1.399 . S
C1527 C1528 1.385 . S
C1528 H1514 0.931 . S
C1528 C1527 1.385 . S
C1528 C1529 1.389 . S
C1529 C1528 1.389 . S
C1529 C1530 1.387 . S
C1530 H1515 0.930 . S
C1530 C1525 1.390 . S
C1530 C1529 1.387 . S
H1531 C1543 0.930 . S
H1532 C1545 0.930 . S
H1533 C1546 0.930 . S
H1534 C1550 0.959 . S
H1535 C1550 0.959 . S
H1536 C1550 0.961 . S
H1537 C1551 0.960 . S
H1538 C1551 0.961 . S
H1539 C1551 0.959 . S
H1540 C1554 0.929 . S
H1541 C1555 0.931 . S
H1542 C1557 0.930 . S
C1543 H1531 0.930 . S
C1543 C1544 1.399 . S
C1543 C1548 1.399 . S
C1544 C1543 1.399 . S
C1544 C1545 1.376 . S
C1545 H1532 0.930 . S
C1545 C1544 1.376 . S
C1545 C1546 1.388 . S
C1546 H1533 0.930 . S
C1546 C1545 1.388 . S
C1546 C1547 1.390 . S
C1547 C1546 1.390 . S
C1547 C1548 1.394 . S
C1547 C1553 1.465 . S
C1548 C1543 1.399 . S
C1548 C1547 1.394 . S
C1548 C1549 1.516 . S
C1549 C1548 1.516 . S
C1549 C1550 1.502 . S
C1549 C1551 1.561 . S
C1549 C1552 1.526 . S
C1550 H1534 0.959 . S
C1550 H1535 0.959 . S
C1550 H1536 0.961 . S
C1550 C1549 1.502 . S
C1551 H1537 0.960 . S
C1551 H1538 0.961 . S
C1551 H1539 0.959 . S
C1551 C1549 1.561 . S
C1552 C1549 1.526 . S
C1552 C1553 1.396 . S
C1552 C1557 1.390 . S
C1553 C1547 1.465 . S
C1553 C1552 1.396 . S
C1553 C1554 1.399 . S
C1554 H1540 0.929 . S
C1554 C1553 1.399 . S
C1554 C1555 1.385 . S
C1555 H1541 0.931 . S
C1555 C1554 1.385 . S
C1555 C1556 1.389 . S
C1556 C1555 1.389 . S
C1556 C1557 1.387 . S
C1557 H1542 0.930 . S
C1557 C1552 1.390 . S
C1557 C1556 1.387 . S
H1558 C1570 0.930 . S
H1559 C1572 0.930 . S
H1560 C1573 0.930 . S
H1561 C1577 0.959 . S
H1562 C1577 0.959 . S
H1563 C1577 0.961 . S
H1564 C1578 0.960 . S
H1565 C1578 0.961 . S
H1566 C1578 0.959 . S
H1567 C1581 0.929 . S
H1568 C1582 0.931 . S
H1569 C1584 0.930 . S
C1570 H1558 0.930 . S
C1570 C1571 1.399 . S
C1570 C1575 1.399 . S
C1571 C1570 1.399 . S
C1571 C1572 1.376 . S
C1572 H1559 0.930 . S
C1572 C1571 1.376 . S
C1572 C1573 1.388 . S
C1573 H1560 0.930 . S
C1573 C1572 1.388 . S
C1573 C1574 1.390 . S
C1574 C1573 1.390 . S
C1574 C1575 1.394 . S
C1574 C1580 1.465 . S
C1575 C1570 1.399 . S
C1575 C1574 1.394 . S
C1575 C1576 1.516 . S
C1576 C1575 1.516 . S
C1576 C1577 1.502 . S
C1576 C1578 1.561 . S
C1576 C1579 1.526 . S
C1577 H1561 0.959 . S
C1577 H1562 0.959 . S
C1577 H1563 0.961 . S
C1577 C1576 1.502 . S
C1578 H1564 0.960 . S
C1578 H1565 0.961 . S
C1578 H1566 0.959 . S
C1578 C1576 1.561 . S
C1579 C1576 1.526 . S
C1579 C1580 1.396 . S
C1579 C1584 1.390 . S
C1580 C1574 1.465 . S
C1580 C1579 1.396 . S
C1580 C1581 1.399 . S
C1581 H1567 0.929 . S
C1581 C1580 1.399 . S
C1581 C1582 1.385 . S
C1582 H1568 0.931 . S
C1582 C1581 1.385 . S
C1582 C1583 1.389 . S
C1583 C1582 1.389 . S
C1583 C1584 1.387 . S
C1584 H1569 0.930 . S
C1584 C1579 1.390 . S
C1584 C1583 1.387 . S
H1585 C1597 0.930 . S
H1586 C1599 0.930 . S
H1587 C1600 0.930 . S
H1588 C1604 0.959 . S
H1589 C1604 0.959 . S
H1590 C1604 0.961 . S
H1591 C1605 0.960 . S
H1592 C1605 0.961 . S
H1593 C1605 0.959 . S
H1594 C1608 0.929 . S
H1595 C1609 0.931 . S
H1596 C1611 0.930 . S
C1597 H1585 0.930 . S
C1597 C1598 1.399 . S
C1597 C1602 1.399 . S
C1598 C1597 1.399 . S
C1598 C1599 1.376 . S
C1599 H1586 0.930 . S
C1599 C1598 1.376 . S
C1599 C1600 1.388 . S
C1600 H1587 0.930 . S
C1600 C1599 1.388 . S
C1600 C1601 1.390 . S
C1601 C1600 1.390 . S
C1601 C1602 1.394 . S
C1601 C1607 1.465 . S
C1602 C1597 1.399 . S
C1602 C1601 1.394 . S
C1602 C1603 1.516 . S
C1603 C1602 1.516 . S
C1603 C1604 1.502 . S
C1603 C1605 1.561 . S
C1603 C1606 1.526 . S
C1604 H1588 0.959 . S
C1604 H1589 0.959 . S
C1604 H1590 0.961 . S
C1604 C1603 1.502 . S
C1605 H1591 0.960 . S
C1605 H1592 0.961 . S
C1605 H1593 0.959 . S
C1605 C1603 1.561 . S
C1606 C1603 1.526 . S
C1606 C1607 1.396 . S
C1606 C1611 1.390 . S
C1607 C1601 1.465 . S
C1607 C1606 1.396 . S
C1607 C1608 1.399 . S
C1608 H1594 0.929 . S
C1608 C1607 1.399 . S
C1608 C1609 1.385 . S
C1609 H1595 0.931 . S
C1609 C1608 1.385 . S
C1609 C1610 1.389 . S
C1610 C1609 1.389 . S
C1610 C1611 1.387 . S
C1611 H1596 0.930 . S
C1611 C1606 1.390 . S
C1611 C1610 1.387 . S
H1612 C1624 0.930 . S
H1613 C1626 0.930 . S
H1614 C1627 0.930 . S
H1615 C1631 0.959 . S
H1616 C1631 0.959 . S
H1617 C1631 0.961 . S
H1618 C1632 0.960 . S
H1619 C1632 0.961 . S
H1620 C1632 0.959 . S
H1621 C1635 0.929 . S
H1622 C1636 0.931 . S
H1623 C1638 0.930 . S
C1624 H1612 0.930 . S
C1624 C1625 1.399 . S
C1624 C1629 1.399 . S
C1625 C1624 1.399 . S
C1625 C1626 1.376 . S
C1626 H1613 0.930 . S
C1626 C1625 1.376 . S
C1626 C1627 1.388 . S
C1627 H1614 0.930 . S
C1627 C1626 1.388 . S
C1627 C1628 1.390 . S
C1628 C1627 1.390 . S
C1628 C1629 1.394 . S
C1628 C1634 1.465 . S
C1629 C1624 1.399 . S
C1629 C1628 1.394 . S
C1629 C1630 1.516 . S
C1630 C1629 1.516 . S
C1630 C1631 1.502 . S
C1630 C1632 1.561 . S
C1630 C1633 1.526 . S
C1631 H1615 0.959 . S
C1631 H1616 0.959 . S
C1631 H1617 0.961 . S
C1631 C1630 1.502 . S
C1632 H1618 0.960 . S
C1632 H1619 0.961 . S
C1632 H1620 0.959 . S
C1632 C1630 1.561 . S
C1633 C1630 1.526 . S
C1633 C1634 1.396 . S
C1633 C1638 1.390 . S
C1634 C1628 1.465 . S
C1634 C1633 1.396 . S
C1634 C1635 1.399 . S
C1635 H1621 0.929 . S
C1635 C1634 1.399 . S
C1635 C1636 1.385 . S
C1636 H1622 0.931 . S
C1636 C1635 1.385 . S
C1636 C1637 1.389 . S
C1637 C1636 1.389 . S
C1637 C1638 1.387 . S
C1638 H1623 0.930 . S
C1638 C1633 1.390 . S
C1638 C1637 1.387 . S
H1639 C1651 0.930 . S
H1640 C1653 0.930 . S
H1641 C1654 0.930 . S
H1642 C1658 0.959 . S
H1643 C1658 0.959 1_556 S
H1644 C1658 0.961 1_556 S
H1645 C1659 0.960 . S
H1646 C1659 0.961 . S
H1647 C1659 0.959 . S
H1648 C1662 0.929 . S
H1649 C1663 0.931 . S
H1650 C1665 0.930 1_556 S
C1651 H1639 0.930 . S
C1651 C1652 1.399 . S
C1651 C1656 1.399 . S
C1652 C1651 1.399 . S
C1652 C1653 1.376 . S
C1653 H1640 0.930 . S
C1653 C1652 1.376 . S
C1653 C1654 1.388 . S
C1654 H1641 0.930 . S
C1654 C1653 1.388 . S
C1654 C1655 1.390 . S
C1655 C1654 1.390 . S
C1655 C1656 1.394 . S
C1655 C1661 1.465 . S
C1656 C1651 1.399 . S
C1656 C1655 1.394 . S
C1656 C1657 1.516 . S
C1657 C1656 1.516 . S
C1657 C1658 1.502 . S
C1657 C1659 1.561 1_554 S
C1657 C1660 1.526 . S
C1658 H1642 0.959 . S
C1658 H1643 0.959 1_554 S
C1658 H1644 0.961 1_554 S
C1658 C1657 1.502 . S
C1659 H1645 0.960 . S
C1659 H1646 0.961 . S
C1659 H1647 0.959 . S
C1659 C1657 1.561 1_556 S
C1660 C1657 1.526 . S
C1660 C1661 1.396 . S
C1660 C1665 1.390 . S
C1661 C1655 1.465 . S
C1661 C1660 1.396 . S
C1661 C1662 1.399 . S
C1662 H1648 0.929 . S
C1662 C1661 1.399 . S
C1662 C1663 1.385 . S
C1663 H1649 0.931 . S
C1663 C1662 1.385 . S
C1663 C1664 1.389 . S
C1664 C1663 1.389 . S
C1664 C1665 1.387 . S
C1665 H1650 0.930 1_554 S
C1665 C1660 1.390 . S
C1665 C1664 1.387 . S
H1666 C1678 0.930 . S
H1667 C1680 0.930 . S
H1668 C1681 0.930 . S
H1669 C1685 0.959 . S
H1670 C1685 0.959 . S
H1671 C1685 0.961 . S
H1672 C1686 0.960 . S
H1673 C1686 0.961 . S
H1674 C1686 0.959 . S
H1675 C1689 0.929 . S
H1676 C1690 0.931 . S
H1677 C1692 0.930 . S
C1678 H1666 0.930 . S
C1678 C1679 1.399 . S
C1678 C1683 1.399 . S
C1679 C1678 1.399 . S
C1679 C1680 1.376 . S
C1680 H1667 0.930 . S
C1680 C1679 1.376 . S
C1680 C1681 1.388 . S
C1681 H1668 0.930 . S
C1681 C1680 1.388 . S
C1681 C1682 1.390 . S
C1682 C1681 1.390 . S
C1682 C1683 1.394 . S
C1682 C1688 1.465 . S
C1683 C1678 1.399 . S
C1683 C1682 1.394 . S
C1683 C1684 1.516 . S
C1684 C1683 1.516 . S
C1684 C1685 1.502 . S
C1684 C1686 1.561 . S
C1684 C1687 1.526 . S
C1685 H1669 0.959 . S
C1685 H1670 0.959 . S
C1685 H1671 0.961 . S
C1685 C1684 1.502 . S
C1686 H1672 0.960 . S
C1686 H1673 0.961 . S
C1686 H1674 0.959 . S
C1686 C1684 1.561 . S
C1687 C1684 1.526 . S
C1687 C1688 1.396 . S
C1687 C1692 1.390 . S
C1688 C1682 1.465 . S
C1688 C1687 1.396 . S
C1688 C1689 1.399 . S
C1689 H1675 0.929 . S
C1689 C1688 1.399 . S
C1689 C1690 1.385 . S
C1690 H1676 0.931 . S
C1690 C1689 1.385 . S
C1690 C1691 1.389 . S
C1691 C1690 1.389 . S
C1691 C1692 1.387 . S
C1692 H1677 0.930 . S
C1692 C1687 1.390 . S
C1692 C1691 1.387 . S
H1693 C1705 0.930 . S
H1694 C1707 0.930 . S
H1695 C1708 0.930 . S
H1696 C1712 0.959 . S
H1697 C1712 0.959 . S
H1698 C1712 0.961 . S
H1699 C1713 0.960 . S
H1700 C1713 0.961 . S
H1701 C1713 0.959 . S
H1702 C1716 0.929 . S
H1703 C1717 0.931 . S
H1704 C1719 0.930 . S
C1705 H1693 0.930 . S
C1705 C1706 1.399 . S
C1705 C1710 1.399 . S
C1706 C1705 1.399 . S
C1706 C1707 1.376 . S
C1707 H1694 0.930 . S
C1707 C1706 1.376 . S
C1707 C1708 1.388 . S
C1708 H1695 0.930 . S
C1708 C1707 1.388 . S
C1708 C1709 1.390 . S
C1709 C1708 1.390 . S
C1709 C1710 1.394 . S
C1709 C1715 1.465 . S
C1710 C1705 1.399 . S
C1710 C1709 1.394 . S
C1710 C1711 1.516 . S
C1711 C1710 1.516 . S
C1711 C1712 1.502 . S
C1711 C1713 1.561 . S
C1711 C1714 1.526 . S
C1712 H1696 0.959 . S
C1712 H1697 0.959 . S
C1712 H1698 0.961 . S
C1712 C1711 1.502 . S
C1713 H1699 0.960 . S
C1713 H1700 0.961 . S
C1713 H1701 0.959 . S
C1713 C1711 1.561 . S
C1714 C1711 1.526 . S
C1714 C1715 1.396 . S
C1714 C1719 1.390 . S
C1715 C1709 1.465 . S
C1715 C1714 1.396 . S
C1715 C1716 1.399 . S
C1716 H1702 0.929 . S
C1716 C1715 1.399 . S
C1716 C1717 1.385 . S
C1717 H1703 0.931 . S
C1717 C1716 1.385 . S
C1717 C1718 1.389 . S
C1718 C1717 1.389 . S
C1718 C1719 1.387 . S
C1719 H1704 0.930 . S
C1719 C1714 1.390 . S
C1719 C1718 1.387 . S
H1720 C1732 0.930 . S
H1721 C1734 0.930 . S
H1722 C1735 0.930 . S
H1723 C1739 0.959 . S
H1724 C1739 0.959 . S
H1725 C1739 0.961 . S
H1726 C1740 0.960 . S
H1727 C1740 0.961 . S
H1728 C1740 0.959 . S
H1729 C1743 0.929 . S
H1730 C1744 0.931 . S
H1731 C1746 0.930 . S
C1732 H1720 0.930 . S
C1732 C1733 1.399 . S
C1732 C1737 1.399 . S
C1733 C1732 1.399 . S
C1733 C1734 1.376 . S
C1734 H1721 0.930 . S
C1734 C1733 1.376 . S
C1734 C1735 1.388 . S
C1735 H1722 0.930 . S
C1735 C1734 1.388 . S
C1735 C1736 1.390 . S
C1736 C1735 1.390 . S
C1736 C1737 1.394 . S
C1736 C1742 1.465 . S
C1737 C1732 1.399 . S
C1737 C1736 1.394 . S
C1737 C1738 1.516 . S
C1738 C1737 1.516 . S
C1738 C1739 1.502 . S
C1738 C1740 1.561 . S
C1738 C1741 1.526 . S
C1739 H1723 0.959 . S
C1739 H1724 0.959 . S
C1739 H1725 0.961 . S
C1739 C1738 1.502 . S
C1740 H1726 0.960 . S
C1740 H1727 0.961 . S
C1740 H1728 0.959 . S
C1740 C1738 1.561 . S
C1741 C1738 1.526 . S
C1741 C1742 1.396 . S
C1741 C1746 1.390 . S
C1742 C1736 1.465 . S
C1742 C1741 1.396 . S
C1742 C1743 1.399 . S
C1743 H1729 0.929 . S
C1743 C1742 1.399 . S
C1743 C1744 1.385 . S
C1744 H1730 0.931 . S
C1744 C1743 1.385 . S
C1744 C1745 1.389 . S
C1745 C1744 1.389 . S
C1745 C1746 1.387 . S
C1746 H1731 0.930 . S
C1746 C1741 1.390 . S
C1746 C1745 1.387 . S
H1747 C1759 0.930 . S
H1748 C1761 0.930 . S
H1749 C1762 0.930 . S
H1750 C1766 0.959 . S
H1751 C1766 0.959 . S
H1752 C1766 0.961 . S
H1753 C1767 0.960 1_554 S
H1754 C1767 0.961 1_554 S
H1755 C1767 0.959 . S
H1756 C1770 0.929 . S
H1757 C1771 0.931 . S
H1758 C1773 0.930 . S
C1759 H1747 0.930 . S
C1759 C1760 1.399 . S
C1759 C1764 1.399 . S
C1760 C1759 1.399 . S
C1760 C1761 1.376 . S
C1761 H1748 0.930 . S
C1761 C1760 1.376 . S
C1761 C1762 1.388 . S
C1762 H1749 0.930 . S
C1762 C1761 1.388 . S
C1762 C1763 1.390 . S
C1763 C1762 1.390 . S
C1763 C1764 1.394 . S
C1763 C1769 1.465 . S
C1764 C1759 1.399 . S
C1764 C1763 1.394 . S
C1764 C1765 1.516 . S
C1765 C1764 1.516 . S
C1765 C1766 1.502 . S
C1765 C1767 1.561 . S
C1765 C1768 1.526 . S
C1766 H1750 0.959 . S
C1766 H1751 0.959 . S
C1766 H1752 0.961 . S
C1766 C1765 1.502 . S
C1767 H1753 0.960 1_556 S
C1767 H1754 0.961 1_556 S
C1767 H1755 0.959 . S
C1767 C1765 1.561 . S
C1768 C1765 1.526 . S
C1768 C1769 1.396 . S
C1768 C1773 1.390 . S
C1769 C1763 1.465 . S
C1769 C1768 1.396 . S
C1769 C1770 1.399 . S
C1770 H1756 0.929 . S
C1770 C1769 1.399 . S
C1770 C1771 1.385 . S
C1771 H1757 0.931 . S
C1771 C1770 1.385 . S
C1771 C1772 1.389 . S
C1772 C1771 1.389 . S
C1772 C1773 1.387 . S
C1773 H1758 0.930 . S
C1773 C1768 1.390 . S
C1773 C1772 1.387 . S
H1774 C1786 0.930 . S
H1775 C1788 0.930 . S
H1776 C1789 0.930 . S
H1777 C1793 0.959 . S
H1778 C1793 0.959 . S
H1779 C1793 0.961 . S
H1780 C1794 0.960 . S
H1781 C1794 0.961 . S
H1782 C1794 0.959 . S
H1783 C1797 0.929 . S
H1784 C1798 0.931 . S
H1785 C1800 0.930 . S
C1786 H1774 0.930 . S
C1786 C1787 1.399 . S
C1786 C1791 1.399 . S
C1787 C1786 1.399 . S
C1787 C1788 1.376 1_556 S
C1788 H1775 0.930 . S
C1788 C1787 1.376 1_554 S
C1788 C1789 1.388 . S
C1789 H1776 0.930 . S
C1789 C1788 1.388 . S
C1789 C1790 1.390 1_554 S
C1790 C1789 1.390 1_556 S
C1790 C1791 1.394 . S
C1790 C1796 1.465 . S
C1791 C1786 1.399 . S
C1791 C1790 1.394 . S
C1791 C1792 1.516 . S
C1792 C1791 1.516 . S
C1792 C1793 1.502 . S
C1792 C1794 1.561 . S
C1792 C1795 1.526 . S
C1793 H1777 0.959 . S
C1793 H1778 0.959 . S
C1793 H1779 0.961 . S
C1793 C1792 1.502 . S
C1794 H1780 0.960 . S
C1794 H1781 0.961 . S
C1794 H1782 0.959 . S
C1794 C1792 1.561 . S
C1795 C1792 1.526 . S
C1795 C1796 1.396 . S
C1795 C1800 1.390 . S
C1796 C1790 1.465 . S
C1796 C1795 1.396 . S
C1796 C1797 1.399 . S
C1797 H1783 0.929 . S
C1797 C1796 1.399 . S
C1797 C1798 1.385 . S
C1798 H1784 0.931 . S
C1798 C1797 1.385 . S
C1798 C1799 1.389 . S
C1799 C1798 1.389 . S
C1799 C1800 1.387 . S
C1800 H1785 0.930 . S
C1800 C1795 1.390 . S
C1800 C1799 1.387 . S
H1801 C1813 0.930 . S
H1802 C1815 0.930 . S
H1803 C1816 0.930 . S
H1804 C1820 0.959 . S
H1805 C1820 0.959 . S
H1806 C1820 0.961 . S
H1807 C1821 0.960 . S
H1808 C1821 0.961 . S
H1809 C1821 0.959 . S
H1810 C1824 0.929 . S
H1811 C1825 0.931 . S
H1812 C1827 0.930 . S
C1813 H1801 0.930 . S
C1813 C1814 1.399 . S
C1813 C1818 1.399 . S
C1814 C1813 1.399 . S
C1814 C1815 1.376 . S
C1815 H1802 0.930 . S
C1815 C1814 1.376 . S
C1815 C1816 1.388 . S
C1816 H1803 0.930 . S
C1816 C1815 1.388 . S
C1816 C1817 1.390 . S
C1817 C1816 1.390 . S
C1817 C1818 1.394 . S
C1817 C1823 1.465 . S
C1818 C1813 1.399 . S
C1818 C1817 1.394 . S
C1818 C1819 1.516 . S
C1819 C1818 1.516 . S
C1819 C1820 1.502 . S
C1819 C1821 1.561 . S
C1819 C1822 1.526 . S
C1820 H1804 0.959 . S
C1820 H1805 0.959 . S
C1820 H1806 0.961 . S
C1820 C1819 1.502 . S
C1821 H1807 0.960 . S
C1821 H1808 0.961 . S
C1821 H1809 0.959 . S
C1821 C1819 1.561 . S
C1822 C1819 1.526 . S
C1822 C1823 1.396 . S
C1822 C1827 1.390 . S
C1823 C1817 1.465 . S
C1823 C1822 1.396 . S
C1823 C1824 1.399 . S
C1824 H1810 0.929 . S
C1824 C1823 1.399 . S
C1824 C1825 1.385 . S
C1825 H1811 0.931 . S
C1825 C1824 1.385 . S
C1825 C1826 1.389 . S
C1826 C1825 1.389 . S
C1826 C1827 1.387 . S
C1827 H1812 0.930 . S
C1827 C1822 1.390 . S
C1827 C1826 1.387 . S
H1828 C1840 0.930 . S
H1829 C1842 0.930 . S
H1830 C1843 0.930 . S
H1831 C1847 0.959 . S
H1832 C1847 0.959 . S
H1833 C1847 0.961 . S
H1834 C1848 0.960 . S
H1835 C1848 0.961 . S
H1836 C1848 0.959 . S
H1837 C1851 0.929 . S
H1838 C1852 0.931 . S
H1839 C1854 0.930 . S
C1840 H1828 0.930 . S
C1840 C1841 1.399 . S
C1840 C1845 1.399 . S
C1841 C1840 1.399 . S
C1841 C1842 1.376 . S
C1842 H1829 0.930 . S
C1842 C1841 1.376 . S
C1842 C1843 1.388 . S
C1843 H1830 0.930 . S
C1843 C1842 1.388 . S
C1843 C1844 1.390 . S
C1844 C1843 1.390 . S
C1844 C1845 1.394 . S
C1844 C1850 1.465 . S
C1845 C1840 1.399 . S
C1845 C1844 1.394 . S
C1845 C1846 1.516 . S
C1846 C1845 1.516 . S
C1846 C1847 1.502 . S
C1846 C1848 1.561 . S
C1846 C1849 1.526 . S
C1847 H1831 0.959 . S
C1847 H1832 0.959 . S
C1847 H1833 0.961 . S
C1847 C1846 1.502 . S
C1848 H1834 0.960 . S
C1848 H1835 0.961 . S
C1848 H1836 0.959 . S
C1848 C1846 1.561 . S
C1849 C1846 1.526 . S
C1849 C1850 1.396 . S
C1849 C1854 1.390 . S
C1850 C1844 1.465 . S
C1850 C1849 1.396 . S
C1850 C1851 1.399 . S
C1851 H1837 0.929 . S
C1851 C1850 1.399 . S
C1851 C1852 1.385 . S
C1852 H1838 0.931 . S
C1852 C1851 1.385 . S
C1852 C1853 1.389 . S
C1853 C1852 1.389 . S
C1853 C1854 1.387 . S
C1854 H1839 0.930 . S
C1854 C1849 1.390 . S
C1854 C1853 1.387 . S
H1855 C1867 0.930 . S
H1856 C1869 0.930 . S
H1857 C1870 0.930 . S
H1858 C1874 0.959 . S
H1859 C1874 0.959 . S
H1860 C1874 0.961 . S
H1861 C1875 0.960 . S
H1862 C1875 0.961 . S
H1863 C1875 0.959 . S
H1864 C1878 0.929 1_554 S
H1865 C1879 0.931 1_554 S
H1866 C1881 0.930 . S
C1867 H1855 0.930 . S
C1867 C1868 1.399 . S
C1867 C1872 1.399 . S
C1868 C1867 1.399 . S
C1868 C1869 1.376 . S
C1869 H1856 0.930 . S
C1869 C1868 1.376 . S
C1869 C1870 1.388 . S
C1870 H1857 0.930 . S
C1870 C1869 1.388 . S
C1870 C1871 1.390 . S
C1871 C1870 1.390 . S
C1871 C1872 1.394 . S
C1871 C1877 1.465 . S
C1872 C1867 1.399 . S
C1872 C1871 1.394 . S
C1872 C1873 1.516 . S
C1873 C1872 1.516 . S
C1873 C1874 1.502 . S
C1873 C1875 1.561 . S
C1873 C1876 1.526 . S
C1874 H1858 0.959 . S
C1874 H1859 0.959 . S
C1874 H1860 0.961 . S
C1874 C1873 1.502 . S
C1875 H1861 0.960 . S
C1875 H1862 0.961 . S
C1875 H1863 0.959 . S
C1875 C1873 1.561 . S
C1876 C1873 1.526 . S
C1876 C1877 1.396 . S
C1876 C1881 1.390 . S
C1877 C1871 1.465 . S
C1877 C1876 1.396 . S
C1877 C1878 1.399 . S
C1878 H1864 0.929 1_556 S
C1878 C1877 1.399 . S
C1878 C1879 1.385 . S
C1879 H1865 0.931 1_556 S
C1879 C1878 1.385 . S
C1879 C1880 1.389 . S
C1880 C1879 1.389 . S
C1880 C1881 1.387 . S
C1881 H1866 0.930 . S
C1881 C1876 1.390 . S
C1881 C1880 1.387 . S
H1882 C1894 0.930 . S
H1883 C1896 0.930 . S
H1884 C1897 0.930 . S
H1885 C1901 0.959 . S
H1886 C1901 0.959 . S
H1887 C1901 0.961 . S
H1888 C1902 0.960 . S
H1889 C1902 0.961 . S
H1890 C1902 0.959 . S
H1891 C1905 0.929 . S
H1892 C1906 0.931 . S
H1893 C1908 0.930 . S
C1894 H1882 0.930 . S
C1894 C1895 1.399 . S
C1894 C1899 1.399 . S
C1895 C1894 1.399 . S
C1895 C1896 1.376 . S
C1896 H1883 0.930 . S
C1896 C1895 1.376 . S
C1896 C1897 1.388 . S
C1897 H1884 0.930 . S
C1897 C1896 1.388 . S
C1897 C1898 1.390 . S
C1898 C1897 1.390 . S
C1898 C1899 1.394 . S
C1898 C1904 1.465 . S
C1899 C1894 1.399 . S
C1899 C1898 1.394 . S
C1899 C1900 1.516 . S
C1900 C1899 1.516 . S
C1900 C1901 1.502 . S
C1900 C1902 1.561 . S
C1900 C1903 1.526 . S
C1901 H1885 0.959 . S
C1901 H1886 0.959 . S
C1901 H1887 0.961 . S
C1901 C1900 1.502 . S
C1902 H1888 0.960 . S
C1902 H1889 0.961 . S
C1902 H1890 0.959 . S
C1902 C1900 1.561 . S
C1903 C1900 1.526 . S
C1903 C1904 1.396 . S
C1903 C1908 1.390 . S
C1904 C1898 1.465 . S
C1904 C1903 1.396 . S
C1904 C1905 1.399 . S
C1905 H1891 0.929 . S
C1905 C1904 1.399 . S
C1905 C1906 1.385 . S
C1906 H1892 0.931 . S
C1906 C1905 1.385 . S
C1906 C1907 1.389 . S
C1907 C1906 1.389 . S
C1907 C1908 1.387 . S
C1908 H1893 0.930 . S
C1908 C1903 1.390 . S
C1908 C1907 1.387 . S
H1909 C1921 0.930 . S
H1910 C1923 0.930 . S
H1911 C1924 0.930 . S
H1912 C1928 0.959 . S
H1913 C1928 0.959 . S
H1914 C1928 0.961 1_556 S
H1915 C1929 0.960 1_556 S
H1916 C1929 0.961 1_556 S
H1917 C1929 0.959 . S
H1918 C1932 0.929 . S
H1919 C1933 0.931 . S
H1920 C1935 0.930 . S
C1921 H1909 0.930 . S
C1921 C1922 1.399 . S
C1921 C1926 1.399 . S
C1922 C1921 1.399 . S
C1922 C1923 1.376 . S
C1923 H1910 0.930 . S
C1923 C1922 1.376 . S
C1923 C1924 1.388 . S
C1924 H1911 0.930 . S
C1924 C1923 1.388 . S
C1924 C1925 1.390 . S
C1925 C1924 1.390 . S
C1925 C1926 1.394 . S
C1925 C1931 1.465 . S
C1926 C1921 1.399 . S
C1926 C1925 1.394 . S
C1926 C1927 1.516 . S
C1927 C1926 1.516 . S
C1927 C1928 1.502 . S
C1927 C1929 1.561 . S
C1927 C1930 1.526 . S
C1928 H1912 0.959 . S
C1928 H1913 0.959 . S
C1928 H1914 0.961 1_554 S
C1928 C1927 1.502 . S
C1929 H1915 0.960 1_554 S
C1929 H1916 0.961 1_554 S
C1929 H1917 0.959 . S
C1929 C1927 1.561 . S
C1930 C1927 1.526 . S
C1930 C1931 1.396 . S
C1930 C1935 1.390 . S
C1931 C1925 1.465 . S
C1931 C1930 1.396 . S
C1931 C1932 1.399 . S
C1932 H1918 0.929 . S
C1932 C1931 1.399 . S
C1932 C1933 1.385 . S
C1933 H1919 0.931 . S
C1933 C1932 1.385 . S
C1933 C1934 1.389 . S
C1934 C1933 1.389 . S
C1934 C1935 1.387 . S
C1935 H1920 0.930 . S
C1935 C1930 1.390 . S
C1935 C1934 1.387 . S
C653 C12 1.503 . S
C665 C69 1.387 . S
C680 C82 1.511 . S
C692 C71 1.543 . S
C707 C151 2.379 . S
C719 C92 2.436 . S
C734 C2 0.973 . S
C746 C149 0.877 . S
C761 C17 0.941 . S
C773 C368 1.022 . S
C788 C311 1.523 . S
C800 C48 1.412 . S
C815 C97 1.507 . S
C827 C412 1.510 . S
C842 C132 2.408 . S
C854 C551 2.451 . S
C869 C337 1.534 . S
C881 C52 1.509 . S
C896 C492 2.416 . S
C908 C111 2.443 . S
C923 C577 0.909 . S
C935 C128 0.913 . S
C950 C31 1.491 . S
C962 C448 1.471 . S
C977 C29 0.588 . S
C989 C349 0.564 . S
C1004 C482 1.773 . S
C1016 C177 1.801 . S
C1031 C208 0.562 . S
C1043 C568 0.571 . S
C1058 C457 1.781 . S
C1070 C242 1.741 . S
C1085 C88 0.456 . S
C1097 C288 0.639 . S
C1112 C377 1.770 . S
C1124 C162 1.799 . S
C1139 C257 1.738 . S
C1151 C402 1.792 . S
C1166 C217 1.557 . S
C1178 C452 1.562 . S
C1193 C372 2.387 . S
C1205 C231 2.443 . S
C1220 C469 1.405 . S
C1232 C292 1.488 . S
C1247 C202 1.508 . S
C1259 C191 1.535 . S
C1274 C391 2.401 . S
C1286 C332 2.430 . S
C1301 C522 1.557 . S
C1313 C471 1.557 . S
C1328 C271 2.409 . S
C1340 C212 2.451 . S
C1355 C389 0.957 . S
C1367 C562 0.994 . S
C1382 C528 0.524 . S
C1394 C8 0.601 . S
C1409 C109 0.482 . S
C1421 C589 0.634 . S
C1436 C497 1.766 . S
C1448 C42 1.796 . S
C1463 C309 0.622 . S
C1475 C229 0.452 . S
C1490 C122 1.771 . S
C1502 C417 1.801 . S
C1517 C511 2.390 . S
C1529 C532 2.430 . S
C1544 C282 0.921 . S
C1556 C509 1.020 . S
C1571 C248 0.849 . S
C1583 C297 0.961 . S
C1598 C172 1.533 . S
C1610 C537 1.517 . S
C1625 C488 0.907 . S
C1637 C617 1.034 . S
C1652 C608 0.642 . S
C1664 C328 0.448 . S
C1679 C57 1.808 . S
C1691 C362 1.769 . S
C1706 C351 2.430 . S
C1718 C252 2.380 . S
C1733 C322 1.557 . S
C1745 C431 1.516 . S
C1760 C602 1.024 . S
C1772 C269 0.841 . S
C1787 C549 0.569 . S
C1799 C629 0.583 . S
C1814 C442 1.776 . S
C1826 C137 1.734 . S
C1841 C429 1.468 . S
C1853 C572 1.475 . S
C1868 C408 1.477 . S
C1880 C631 1.482 . S
C1895 C168 1.477 . S
C1907 C591 1.466 . S
C1922 C612 1.522 . S
C1934 C189 1.374 . S
