# Generated by pormake.
# Topology upa, (4)-cn, num edge types: 1
# Building blocks:
#     Node 0, Type 0, BuildingBlock: CEKHIL_clean_sbu_0, # of connection points: 4
#     Node 1, Type 0, BuildingBlock: CEKHIL_clean_sbu_0, # of connection points: 4
#     Node 2, Type 0, BuildingBlock: CEKHIL_clean_sbu_0, # of connection points: 4
#     Node 3, Type 0, BuildingBlock: CEKHIL_clean_sbu_0, # of connection points: 4
#     Node 4, Type 0, BuildingBlock: CEKHIL_clean_sbu_0, # of connection points: 4
#     Node 5, Type 0, BuildingBlock: CEKHIL_clean_sbu_0, # of connection points: 4
#     Node 6, Type 0, BuildingBlock: CEKHIL_clean_sbu_0, # of connection points: 4
#     Node 7, Type 0, BuildingBlock: CEKHIL_clean_sbu_0, # of connection points: 4
#     Edge 8, Type (0, 0), BuildingBlock: AJUNOK_clean_linker_0, # of connection points: 2
#     Edge 9, Type (0, 0), BuildingBlock: AJUNOK_clean_linker_0, # of connection points: 2
#     Edge 10, Type (0, 0), BuildingBlock: AJUNOK_clean_linker_0, # of connection points: 2
#     Edge 11, Type (0, 0), BuildingBlock: AJUNOK_clean_linker_0, # of connection points: 2
#     Edge 12, Type (0, 0), BuildingBlock: AJUNOK_clean_linker_0, # of connection points: 2
#     Edge 13, Type (0, 0), BuildingBlock: AJUNOK_clean_linker_0, # of connection points: 2
#     Edge 14, Type (0, 0), BuildingBlock: AJUNOK_clean_linker_0, # of connection points: 2
#     Edge 15, Type (0, 0), BuildingBlock: AJUNOK_clean_linker_0, # of connection points: 2
#     Edge 16, Type (0, 0), BuildingBlock: AJUNOK_clean_linker_0, # of connection points: 2
#     Edge 17, Type (0, 0), BuildingBlock: AJUNOK_clean_linker_0, # of connection points: 2
#     Edge 18, Type (0, 0), BuildingBlock: AJUNOK_clean_linker_0, # of connection points: 2
#     Edge 19, Type (0, 0), BuildingBlock: AJUNOK_clean_linker_0, # of connection points: 2
#     Edge 20, Type (0, 0), BuildingBlock: AJUNOK_clean_linker_0, # of connection points: 2
#     Edge 21, Type (0, 0), BuildingBlock: AJUNOK_clean_linker_0, # of connection points: 2
#     Edge 22, Type (0, 0), BuildingBlock: AJUNOK_clean_linker_0, # of connection points: 2
#     Edge 23, Type (0, 0), BuildingBlock: AJUNOK_clean_linker_0, # of connection points: 2
# Relax obj value: 0.238
# Max RMSD: 0.138
# Mean RMSD: 0.138
data_MOF--net-upa--node1-CEKHIL_clean_sbu_0--edge1-AJUNOK_clean_linker_0
_symmetry_space_group_name_H-M    P1
_symmetry_Int_Tables_number       1
_symmetry_cell_setting            triclinic
loop_
_symmetry_equiv_pos_as_xyz
'x, y, z'
_cell_length_a     18.796737
_cell_length_b     18.789125
_cell_length_c     31.037552
_cell_angle_alpha  90.17563
_cell_angle_beta   89.914355
_cell_angle_gamma 89.969443
loop_
_atom_site_label
_atom_site_type_symbol
_atom_site_fract_x
_atom_site_fract_y
_atom_site_fract_z
_atom_type_partial_charge
Co0 Co 0.20397 0.22867 0.3363 0.0
O1 O 0.28317 0.288 0.31679 0.0
O2 O 0.2891 0.17206 0.32608 0.0
C3 C 0.11479 0.26947 0.29265 0.0
O4 O 0.13699 0.14858 0.35296 0.0
Co5 Co 0.0695 0.29052 0.38126 0.0
O6 O 0.03018 0.19392 0.37021 0.0
C7 C 0.20027 0.27202 0.4326 0.0
C8 C 0.32121 0.23017 0.31459 0.0
C9 C 0.07046 0.14111 0.36158 0.0
O10 O 0.23137 0.24309 0.39963 0.0
O11 O 0.13773 0.29879 0.43061 0.0
O12 O 0.16233 0.22514 0.27816 0.0
O13 O 0.12887 0.29552 0.33032 0.0
Co14 Co 0.27946 0.70221 0.83662 0.0
O15 O 0.21874 0.78007 0.81713 0.0
O16 O 0.3347 0.78805 0.82579 0.0
C17 C 0.23931 0.61161 0.79346 0.0
O18 O 0.36052 0.63645 0.85324 0.0
Co19 Co 0.21923 0.5679 0.88236 0.0
O20 O 0.31624 0.52967 0.8713 0.0
C21 C 0.23659 0.69989 0.93304 0.0
C22 C 0.27581 0.81908 0.81466 0.0
C23 C 0.36858 0.57017 0.86226 0.0
O24 O 0.26545 0.7305 0.89998 0.0
O25 O 0.21009 0.63721 0.93126 0.0
O26 O 0.28258 0.6596 0.77856 0.0
O27 O 0.21368 0.62618 0.83117 0.0
Co28 Co 0.80588 0.77545 0.33671 0.0
O29 O 0.72727 0.71598 0.31704 0.0
O30 O 0.71988 0.83162 0.32769 0.0
C31 C 0.89471 0.73717 0.29176 0.0
O32 O 0.87368 0.85487 0.35415 0.0
Co33 Co 0.93914 0.70896 0.38029 0.0
O34 O 0.97941 0.80503 0.36971 0.0
C35 C 0.81007 0.73001 0.43277 0.0
C36 C 0.68839 0.77322 0.31582 0.0
C37 C 0.94082 0.85934 0.36202 0.0
O38 O 0.77927 0.75961 0.40008 0.0
O39 O 0.87196 0.70185 0.43028 0.0
O40 O 0.84614 0.78101 0.27835 0.0
O41 O 0.88103 0.70892 0.32886 0.0
Co42 Co 0.73415 0.3067 0.83714 0.0
O43 O 0.79333 0.22805 0.817 0.0
O44 O 0.67767 0.22106 0.82726 0.0
C45 C 0.77362 0.39604 0.79317 0.0
O46 O 0.65504 0.37452 0.85493 0.0
Co47 Co 0.80048 0.4398 0.88177 0.0
O48 O 0.70482 0.48052 0.87025 0.0
C49 C 0.77984 0.30967 0.93313 0.0
C50 C 0.73601 0.1894 0.81538 0.0
C51 C 0.65061 0.4418 0.86252 0.0
O52 O 0.74984 0.27922 0.90034 0.0
O53 O 0.80799 0.37156 0.93101 0.0
O54 O 0.72927 0.34834 0.77905 0.0
O55 O 0.80091 0.38139 0.83035 0.0
Co56 Co 0.70413 0.27834 0.20508 0.0
O57 O 0.78339 0.21887 0.22435 0.0
O58 O 0.78922 0.33485 0.21531 0.0
C59 C 0.61494 0.23726 0.2487 0.0
O60 O 0.63716 0.35869 0.18874 0.0
Co61 Co 0.56967 0.21724 0.16014 0.0
O62 O 0.53024 0.31367 0.17178 0.0
C63 C 0.70035 0.23637 0.10853 0.0
C64 C 0.82138 0.27669 0.22664 0.0
C65 C 0.57056 0.36634 0.18047 0.0
O66 O 0.73163 0.26423 0.14171 0.0
O67 O 0.63773 0.20978 0.11054 0.0
O68 O 0.66241 0.28148 0.26326 0.0
O69 O 0.62907 0.21151 0.21094 0.0
Co70 Co 0.23365 0.20134 0.70447 0.0
O71 O 0.29273 0.28098 0.72369 0.0
O72 O 0.1768 0.28653 0.71392 0.0
C73 C 0.27289 0.11289 0.74904 0.0
O74 O 0.15409 0.13331 0.68775 0.0
Co75 Co 0.2984 0.06715 0.6605 0.0
O76 O 0.20289 0.02671 0.67283 0.0
C77 C 0.27678 0.19596 0.60801 0.0
C78 C 0.23478 0.31877 0.72558 0.0
C79 C 0.14903 0.06595 0.68065 0.0
O80 O 0.24859 0.22748 0.64105 0.0
O81 O 0.30439 0.13377 0.6103 0.0
O82 O 0.2292 0.1615 0.76286 0.0
O83 O 0.30046 0.12633 0.71167 0.0
Co84 Co 0.30635 0.73309 0.20496 0.0
O85 O 0.22763 0.79277 0.22452 0.0
O86 O 0.2202 0.67715 0.21395 0.0
C87 C 0.39481 0.77144 0.24995 0.0
O88 O 0.37412 0.6533 0.18773 0.0
Co89 Co 0.44035 0.7985 0.1615 0.0
O90 O 0.48041 0.70256 0.17285 0.0
C91 C 0.31182 0.77736 0.1087 0.0
C92 C 0.18868 0.73561 0.2258 0.0
C93 C 0.44143 0.64848 0.18038 0.0
O94 O 0.28033 0.7489 0.14156 0.0
O95 O 0.37391 0.80502 0.11123 0.0
O96 O 0.34611 0.72771 0.26338 0.0
O97 O 0.38153 0.79945 0.21275 0.0
Co98 Co 0.77735 0.8059 0.70506 0.0
O99 O 0.71741 0.72684 0.72422 0.0
O100 O 0.83346 0.72072 0.71482 0.0
C101 C 0.73789 0.89527 0.74924 0.0
O102 O 0.85826 0.87231 0.68887 0.0
Co103 Co 0.7175 0.94095 0.6606 0.0
O104 O 0.81407 0.97963 0.67215 0.0
C105 C 0.73642 0.81066 0.60843 0.0
C106 C 0.77528 0.68889 0.72642 0.0
C107 C 0.86639 0.9389 0.68076 0.0
O108 O 0.76338 0.77895 0.64161 0.0
O109 O 0.71041 0.87358 0.61053 0.0
O110 O 0.7809 0.84647 0.76336 0.0
O111 O 0.7113 0.88196 0.7116 0.0
C112 C 0.96564 0.05949 0.3689 0.0
C113 C 0.0391 0.06844 0.36147 0.0
C114 C 0.93428 0.99189 0.36881 0.0
C115 C 0.97511 0.93028 0.36167 0.0
H116 H 0.93165 0.10507 0.37479 0.0
H117 H 0.87765 0.98794 0.37486 0.0
S118 S 0.16879 0.92379 0.33795 0.0
N119 N 0.15133 0.00912 0.34494 0.0
N120 N 0.09233 0.88238 0.34503 0.0
C121 C 0.04844 0.9382 0.35371 0.0
C122 C 0.08039 1.00709 0.35351 0.0
C123 C 0.45106 0.46663 0.87182 0.0
C124 C 0.4414 0.53926 0.86216 0.0
C125 C 0.51874 0.43552 0.87166 0.0
C126 C 0.57969 0.47583 0.8622 0.0
H127 H 0.406 0.43309 0.87956 0.0
H128 H 0.52332 0.37956 0.8795 0.0
S129 S 0.58425 0.66688 0.83215 0.0
N130 N 0.49937 0.64999 0.84112 0.0
N131 N 0.62633 0.59127 0.84099 0.0
C132 C 0.57112 0.54824 0.85203 0.0
C133 C 0.50213 0.57997 0.85195 0.0
C134 C 0.46631 0.44848 0.1719 0.0
C135 C 0.5392 0.43907 0.18093 0.0
C136 C 0.43503 0.51618 0.1721 0.0
C137 C 0.47543 0.57739 0.18093 0.0
H138 H 0.43274 0.40323 0.16455 0.0
H139 H 0.37889 0.52055 0.1647 0.0
S140 S 0.66713 0.58253 0.20961 0.0
N141 N 0.65013 0.49749 0.20113 0.0
N142 N 0.59133 0.62441 0.20105 0.0
C143 C 0.54808 0.569 0.19059 0.0
C144 C 0.57992 0.50002 0.19074 0.0
C145 C 0.0171 0.07304 0.6718 0.0
C146 C 0.07781 0.03253 0.68152 0.0
C147 C 0.94927 0.04227 0.6716 0.0
C148 C 0.93921 0.96978 0.68151 0.0
H149 H 0.02203 0.12883 0.66361 0.0
H150 H 0.90445 0.07585 0.66345 0.0
S151 S 0.081 0.84228 0.7134 0.0
N152 N 0.1236 0.91734 0.70385 0.0
N153 N 0.99632 0.85943 0.70404 0.0
C154 C 0.99958 0.9291 0.69246 0.0
C155 C 0.06874 0.96043 0.69229 0.0
C156 C 0.28112 0.21019 0.48526 0.0
C157 C 0.23271 0.2654 0.47654 0.0
C158 C 0.29905 0.19173 0.52779 0.0
C159 C 0.26958 0.22763 0.56378 0.0
H160 H 0.30187 0.1777 0.45922 0.0
H161 H 0.33352 0.14617 0.53235 0.0
S162 S 0.15124 0.38573 0.55827 0.0
N163 N 0.16399 0.36294 0.50743 0.0
N164 N 0.19735 0.32814 0.58701 0.0
C165 C 0.22627 0.28718 0.55534 0.0
C166 C 0.20791 0.30596 0.51195 0.0
C167 C 0.29855 0.78091 0.98585 0.0
C168 C 0.24299 0.73298 0.97693 0.0
C169 C 0.31681 0.79903 0.02846 0.0
C170 C 0.28036 0.77025 0.06434 0.0
H171 H 0.33148 0.80101 0.95993 0.0
H172 H 0.36266 0.83303 0.03318 0.0
S173 S 0.12114 0.65366 0.05822 0.0
N174 N 0.14451 0.66567 1.00747 0.0
N175 N 0.17892 0.69939 0.08717 0.0
C176 C 0.22046 0.72754 0.05567 0.0
C177 C 0.20188 0.70899 1.0122 0.0
C178 C 0.71335 0.81327 0.52833 0.0
C179 C 0.743 0.77799 0.56429 0.0
C180 C 0.7305 0.79364 0.48576 0.0
C181 C 0.77835 0.73783 0.47695 0.0
H182 H 0.67926 0.85917 0.5329 0.0
H183 H 0.70958 0.82567 0.45973 0.0
S184 S 0.8602 0.61897 0.55875 0.0
N185 N 0.81489 0.67756 0.58751 0.0
N186 N 0.84686 0.64059 0.50788 0.0
C187 C 0.80338 0.69796 0.5124 0.0
C188 C 0.78577 0.71793 0.55584 0.0
C189 C 0.71684 0.22984 0.9859 0.0
C190 C 0.77256 0.27764 0.97715 0.0
C191 C 0.69751 0.21278 0.02845 0.0
C192 C 0.73296 0.24256 0.06443 0.0
H193 H 0.68462 0.20898 0.95987 0.0
H194 H 0.65163 0.17877 0.03299 0.0
S195 S 0.89212 0.35924 0.05896 0.0
N196 N 0.87018 0.34586 1.00809 0.0
N197 N 0.83362 0.31417 0.0877 0.0
C198 C 0.79303 0.28512 0.05601 0.0
C199 C 0.81275 0.30256 1.0126 0.0
C200 C 0.51061 0.29262 0.28784 0.0
C201 C 0.54187 0.23269 0.26787 0.0
C202 C 0.43946 0.29161 0.30257 0.0
C203 C 0.39695 0.23005 0.29906 0.0
H204 H 0.54063 0.34156 0.29092 0.0
H205 H 0.41771 0.33948 0.317 0.0
S206 S 0.45392 0.05837 0.25016 0.0
N207 N 0.52445 0.11018 0.24538 0.0
N208 N 0.39252 0.1071 0.27442 0.0
C209 C 0.42818 0.16936 0.27991 0.0
C210 C 0.49996 0.17102 0.26396 0.0
C211 C 0.33527 0.9255 0.78012 0.0
C212 C 0.27447 0.89476 0.79928 0.0
C213 C 0.33468 0.99592 0.76424 0.0
C214 C 0.27406 0.0396 0.76813 0.0
H215 H 0.38341 0.89435 0.77647 0.0
H216 H 0.38221 0.01639 0.74889 0.0
S217 S 0.10112 0.98533 0.81589 0.0
N218 N 0.15169 0.91395 0.82069 0.0
N219 N 0.1513 0.04625 0.79263 0.0
C220 C 0.21332 0.00987 0.78785 0.0
C221 C 0.21333 0.93764 0.80291 0.0
C222 C 0.58105 0.83409 0.28323 0.0
C223 C 0.61252 0.77237 0.30074 0.0
C224 C 0.51074 0.83371 0.26715 0.0
C225 C 0.46791 0.77231 0.26923 0.0
H226 H 0.61159 0.8828 0.28093 0.0
H227 H 0.48968 0.88198 0.25305 0.0
S228 S 0.52425 0.59661 0.31203 0.0
N229 N 0.59486 0.64776 0.3185 0.0
N230 N 0.46276 0.64784 0.2902 0.0
C231 C 0.4983 0.71062 0.28734 0.0
C232 C 0.57042 0.71044 0.30255 0.0
C233 C 0.67499 0.0818 0.78271 0.0
C234 C 0.7368 0.11347 0.80006 0.0
C235 C 0.67539 0.01135 0.76654 0.0
C236 C 0.73693 0.96863 0.7684 0.0
H237 H 0.62617 0.11224 0.78064 0.0
H238 H 0.62704 0.99008 0.75262 0.0
S239 S 0.9128 0.02556 0.81051 0.0
N240 N 0.8616 0.09613 0.81729 0.0
N241 N 0.86157 0.96381 0.78884 0.0
C242 C 0.79869 0.99926 0.78628 0.0
C243 C 0.79883 0.07147 0.80156 0.0
C244 C 0.01061 0.21406 0.2536 0.0
C245 C 0.04179 0.27403 0.27348 0.0
C246 C 0.93956 0.21511 0.23881 0.0
C247 C 0.89705 0.27676 0.24218 0.0
H248 H 0.04062 0.16505 0.25063 0.0
H249 H 0.91788 0.1672 0.22446 0.0
S250 S 0.95388 0.44863 0.29072 0.0
N251 N 0.02433 0.39671 0.29568 0.0
N252 N 0.8926 0.39987 0.26654 0.0
C253 C 0.92822 0.33751 0.26121 0.0
C254 C 0.9999 0.3358 0.27722 0.0
C255 C 0.29046 0.44093 0.73259 0.0
C256 C 0.23406 0.39398 0.74178 0.0
C257 C 0.29041 0.51182 0.74796 0.0
C258 C 0.23492 0.53829 0.77424 0.0
H259 H 0.33483 0.42292 0.71309 0.0
H260 H 0.33533 0.5455 0.74016 0.0
S261 S 0.0767 0.43562 0.80963 0.0
N262 N 0.12173 0.37897 0.77931 0.0
N263 N 0.12294 0.51037 0.8095 0.0
C264 C 0.17871 0.49146 0.78403 0.0
C265 C 0.17792 0.41999 0.76748 0.0
C266 C 0.0807 0.67434 0.25751 0.0
C267 C 0.11276 0.73654 0.24101 0.0
C268 C 0.01032 0.67464 0.27364 0.0
C269 C 0.96802 0.7365 0.27261 0.0
H270 H 0.11078 0.62522 0.25895 0.0
H271 H 0.98878 0.62592 0.2869 0.0
S272 S 0.02604 0.91366 0.23294 0.0
N273 N 0.09625 0.86216 0.22553 0.0
N274 N 0.96401 0.86196 0.25383 0.0
C275 C 0.99902 0.79873 0.25556 0.0
C276 C 0.0712 0.79895 0.24034 0.0
C277 C 0.71927 0.49658 0.7502 0.0
C278 C 0.77684 0.46944 0.77432 0.0
C279 C 0.71845 0.56755 0.73525 0.0
C280 C 0.77602 0.61391 0.74274 0.0
H281 H 0.67343 0.46333 0.74377 0.0
H282 H 0.67261 0.58602 0.71736 0.0
S283 S 0.93867 0.5705 0.80502 0.0
N284 N 0.89184 0.49616 0.80599 0.0
N285 N 0.89153 0.62774 0.77665 0.0
C286 C 0.83402 0.58731 0.76648 0.0
C287 C 0.8341 0.51575 0.78257 0.0
loop_
_geom_bond_atom_site_label_1
_geom_bond_atom_site_label_2
_geom_bond_distance
_geom_bond_site_symmetry_2
_ccdc_geom_bond_type
Co0 O1 2.216 . S
Co0 O2 2.091 . S
Co0 O4 2.004 . S
Co0 O10 2.021 . S
Co0 O12 2.137 . S
Co0 O13 2.244 . S
O1 Co0 2.216 . S
O1 C8 1.247 . S
O2 Co0 2.091 . S
O2 C8 1.261 . S
C3 O12 1.247 . S
C3 O13 1.272 . S
O4 Co0 2.004 . S
O4 C9 1.259 . S
Co5 O6 2.061 . S
Co5 O11 2.052 . S
Co5 O13 2.135 . S
O6 Co5 2.061 . S
O6 C9 1.235 . S
C7 O10 1.238 . S
C7 O11 1.241 . S
C8 O1 1.247 . S
C8 O2 1.261 . S
C9 O4 1.259 . S
C9 O6 1.235 . S
O10 Co0 2.021 . S
O10 C7 1.238 . S
O11 Co5 2.052 . S
O11 C7 1.241 . S
O12 Co0 2.137 . S
O12 C3 1.247 . S
O13 Co0 2.244 . S
O13 C3 1.272 . S
O13 Co5 2.135 . S
Co14 O15 2.216 . S
Co14 O16 2.091 . S
Co14 O18 2.004 . S
Co14 O24 2.021 . S
Co14 O26 2.137 . S
Co14 O27 2.244 . S
O15 Co14 2.216 . S
O15 C22 1.247 . S
O16 Co14 2.091 . S
O16 C22 1.261 . S
C17 O26 1.247 . S
C17 O27 1.272 . S
O18 Co14 2.004 . S
O18 C23 1.259 . S
Co19 O20 2.061 . S
Co19 O25 2.052 . S
Co19 O27 2.135 . S
O20 Co19 2.061 . S
O20 C23 1.235 . S
C21 O24 1.238 . S
C21 O25 1.241 . S
C22 O15 1.247 . S
C22 O16 1.261 . S
C23 O18 1.259 . S
C23 O20 1.235 . S
O24 Co14 2.021 . S
O24 C21 1.238 . S
O25 Co19 2.052 . S
O25 C21 1.241 . S
O26 Co14 2.137 . S
O26 C17 1.247 . S
O27 Co14 2.244 . S
O27 C17 1.272 . S
O27 Co19 2.135 . S
Co28 O29 2.216 . S
Co28 O30 2.091 . S
Co28 O32 2.004 . S
Co28 O38 2.021 . S
Co28 O40 2.137 . S
Co28 O41 2.244 . S
O29 Co28 2.216 . S
O29 C36 1.247 . S
O30 Co28 2.091 . S
O30 C36 1.261 . S
C31 O40 1.247 . S
C31 O41 1.272 . S
O32 Co28 2.004 . S
O32 C37 1.259 . S
Co33 O34 2.061 . S
Co33 O39 2.052 . S
Co33 O41 2.135 . S
O34 Co33 2.061 . S
O34 C37 1.235 . S
C35 O38 1.238 . S
C35 O39 1.241 . S
C36 O29 1.247 . S
C36 O30 1.261 . S
C37 O32 1.259 . S
C37 O34 1.235 . S
O38 Co28 2.021 . S
O38 C35 1.238 . S
O39 Co33 2.052 . S
O39 C35 1.241 . S
O40 Co28 2.137 . S
O40 C31 1.247 . S
O41 Co28 2.244 . S
O41 C31 1.272 . S
O41 Co33 2.135 . S
Co42 O43 2.216 . S
Co42 O44 2.091 . S
Co42 O46 2.004 . S
Co42 O52 2.021 . S
Co42 O54 2.137 . S
Co42 O55 2.244 . S
O43 Co42 2.216 . S
O43 C50 1.247 . S
O44 Co42 2.091 . S
O44 C50 1.261 . S
C45 O54 1.247 . S
C45 O55 1.272 . S
O46 Co42 2.004 . S
O46 C51 1.259 . S
Co47 O48 2.061 . S
Co47 O53 2.052 . S
Co47 O55 2.135 . S
O48 Co47 2.061 . S
O48 C51 1.235 . S
C49 O52 1.238 . S
C49 O53 1.241 . S
C50 O43 1.247 . S
C50 O44 1.261 . S
C51 O46 1.259 . S
C51 O48 1.235 . S
O52 Co42 2.021 . S
O52 C49 1.238 . S
O53 Co47 2.052 . S
O53 C49 1.241 . S
O54 Co42 2.137 . S
O54 C45 1.247 . S
O55 Co42 2.244 . S
O55 C45 1.272 . S
O55 Co47 2.135 . S
Co56 O57 2.216 . S
Co56 O58 2.091 . S
Co56 O60 2.004 . S
Co56 O66 2.021 . S
Co56 O68 2.137 . S
Co56 O69 2.244 . S
O57 Co56 2.216 . S
O57 C64 1.247 . S
O58 Co56 2.091 . S
O58 C64 1.261 . S
C59 O68 1.247 . S
C59 O69 1.272 . S
O60 Co56 2.004 . S
O60 C65 1.259 . S
Co61 O62 2.061 . S
Co61 O67 2.052 . S
Co61 O69 2.135 . S
O62 Co61 2.061 . S
O62 C65 1.235 . S
C63 O66 1.238 . S
C63 O67 1.241 . S
C64 O57 1.247 . S
C64 O58 1.261 . S
C65 O60 1.259 . S
C65 O62 1.235 . S
O66 Co56 2.021 . S
O66 C63 1.238 . S
O67 Co61 2.052 . S
O67 C63 1.241 . S
O68 Co56 2.137 . S
O68 C59 1.247 . S
O69 Co56 2.244 . S
O69 C59 1.272 . S
O69 Co61 2.135 . S
Co70 O71 2.216 . S
Co70 O72 2.091 . S
Co70 O74 2.004 . S
Co70 O80 2.021 . S
Co70 O82 2.137 . S
Co70 O83 2.244 . S
O71 Co70 2.216 . S
O71 C78 1.247 . S
O72 Co70 2.091 . S
O72 C78 1.261 . S
C73 O82 1.247 . S
C73 O83 1.272 . S
O74 Co70 2.004 . S
O74 C79 1.259 . S
Co75 O76 2.061 . S
Co75 O81 2.052 . S
Co75 O83 2.135 . S
O76 Co75 2.061 . S
O76 C79 1.235 . S
C77 O80 1.238 . S
C77 O81 1.241 . S
C78 O71 1.247 . S
C78 O72 1.261 . S
C79 O74 1.259 . S
C79 O76 1.235 . S
O80 Co70 2.021 . S
O80 C77 1.238 . S
O81 Co75 2.052 . S
O81 C77 1.241 . S
O82 Co70 2.137 . S
O82 C73 1.247 . S
O83 Co70 2.244 . S
O83 C73 1.272 . S
O83 Co75 2.135 . S
Co84 O85 2.216 . S
Co84 O86 2.091 . S
Co84 O88 2.004 . S
Co84 O94 2.021 . S
Co84 O96 2.137 . S
Co84 O97 2.244 . S
O85 Co84 2.216 . S
O85 C92 1.247 . S
O86 Co84 2.091 . S
O86 C92 1.261 . S
C87 O96 1.247 . S
C87 O97 1.272 . S
O88 Co84 2.004 . S
O88 C93 1.259 . S
Co89 O90 2.061 . S
Co89 O95 2.052 . S
Co89 O97 2.135 . S
O90 Co89 2.061 . S
O90 C93 1.235 . S
C91 O94 1.238 . S
C91 O95 1.241 . S
C92 O85 1.247 . S
C92 O86 1.261 . S
C93 O88 1.259 . S
C93 O90 1.235 . S
O94 Co84 2.021 . S
O94 C91 1.238 . S
O95 Co89 2.052 . S
O95 C91 1.241 . S
O96 Co84 2.137 . S
O96 C87 1.247 . S
O97 Co84 2.244 . S
O97 C87 1.272 . S
O97 Co89 2.135 . S
Co98 O99 2.216 . S
Co98 O100 2.091 . S
Co98 O102 2.004 . S
Co98 O108 2.021 . S
Co98 O110 2.137 . S
Co98 O111 2.244 . S
O99 Co98 2.216 . S
O99 C106 1.247 . S
O100 Co98 2.091 . S
O100 C106 1.261 . S
C101 O110 1.247 . S
C101 O111 1.272 . S
O102 Co98 2.004 . S
O102 C107 1.259 . S
Co103 O104 2.061 . S
Co103 O109 2.052 . S
Co103 O111 2.135 . S
O104 Co103 2.061 . S
O104 C107 1.235 . S
C105 O108 1.238 . S
C105 O109 1.241 . S
C106 O99 1.247 . S
C106 O100 1.261 . S
C107 O102 1.259 . S
C107 O104 1.235 . S
O108 Co98 2.021 . S
O108 C105 1.238 . S
O109 Co103 2.052 . S
O109 C105 1.241 . S
O110 Co98 2.137 . S
O110 C101 1.247 . S
O111 Co98 2.244 . S
O111 C101 1.272 . S
O111 Co103 2.135 . S
C112 C113 1.369 1_655 S
C112 C114 1.419 . S
C112 H116 0.930 . S
C113 C112 1.369 1_455 S
C113 C122 1.429 1_545 S
C114 C112 1.419 . S
C114 C115 1.363 1_545 S
C114 H117 0.929 . S
C115 C114 1.363 1_565 S
C115 C121 1.428 1_655 S
H116 C112 0.930 . S
H117 C114 0.929 . S
S118 N119 1.613 . S
S118 N120 1.610 . S
N119 S118 1.613 . S
N119 C122 1.350 . S
N120 S118 1.610 . S
N120 C121 1.351 . S
C121 C115 1.428 1_455 S
C121 N120 1.351 . S
C121 C122 1.434 . S
C122 C113 1.429 1_565 S
C122 N119 1.350 . S
C122 C121 1.434 . S
C123 C124 1.369 . S
C123 C125 1.419 . S
C123 H127 0.930 . S
C124 C123 1.369 . S
C124 C133 1.429 . S
C125 C123 1.419 . S
C125 C126 1.363 . S
C125 H128 0.929 . S
C126 C125 1.363 . S
C126 C132 1.428 . S
H127 C123 0.930 . S
H128 C125 0.929 . S
S129 N130 1.613 . S
S129 N131 1.610 . S
N130 S129 1.613 . S
N130 C133 1.350 . S
N131 S129 1.610 . S
N131 C132 1.351 . S
C132 C126 1.428 . S
C132 N131 1.351 . S
C132 C133 1.434 . S
C133 C124 1.429 . S
C133 N130 1.350 . S
C133 C132 1.434 . S
C134 C135 1.369 . S
C134 C136 1.419 . S
C134 H138 0.930 . S
C135 C134 1.369 . S
C135 C144 1.429 . S
C136 C134 1.419 . S
C136 C137 1.363 . S
C136 H139 0.929 . S
C137 C136 1.363 . S
C137 C143 1.428 . S
H138 C134 0.930 . S
H139 C136 0.929 . S
S140 N141 1.613 . S
S140 N142 1.610 . S
N141 S140 1.613 . S
N141 C144 1.350 . S
N142 S140 1.610 . S
N142 C143 1.351 . S
C143 C137 1.428 . S
C143 N142 1.351 . S
C143 C144 1.434 . S
C144 C135 1.429 . S
C144 N141 1.350 . S
C144 C143 1.434 . S
C145 C146 1.369 1_655 S
C145 C147 1.419 . S
C145 H149 0.930 . S
C146 C145 1.369 1_455 S
C146 C155 1.429 1_545 S
C147 C145 1.419 . S
C147 C148 1.363 1_545 S
C147 H150 0.929 . S
C148 C147 1.363 1_565 S
C148 C154 1.428 1_655 S
H149 C145 0.930 . S
H150 C147 0.929 . S
S151 N152 1.613 . S
S151 N153 1.610 . S
N152 S151 1.613 . S
N152 C155 1.350 . S
N153 S151 1.610 . S
N153 C154 1.351 . S
C154 C148 1.428 1_455 S
C154 N153 1.351 . S
C154 C155 1.434 . S
C155 C146 1.429 1_565 S
C155 N152 1.350 . S
C155 C154 1.434 . S
C156 C157 1.369 . S
C156 C158 1.419 . S
C156 H160 0.930 . S
C157 C156 1.369 . S
C157 C166 1.429 . S
C158 C156 1.419 . S
C158 C159 1.363 . S
C158 H161 0.929 . S
C159 C158 1.363 . S
C159 C165 1.428 . S
H160 C156 0.930 . S
H161 C158 0.929 . S
S162 N163 1.613 . S
S162 N164 1.610 . S
N163 S162 1.613 . S
N163 C166 1.350 . S
N164 S162 1.610 . S
N164 C165 1.351 . S
C165 C159 1.428 . S
C165 N164 1.351 . S
C165 C166 1.434 . S
C166 C157 1.429 . S
C166 N163 1.350 . S
C166 C165 1.434 . S
C167 C168 1.369 . S
C167 C169 1.419 1_556 S
C167 H171 0.930 . S
C168 C167 1.369 . S
C168 C177 1.429 . S
C169 C167 1.419 1_554 S
C169 C170 1.363 . S
C169 H172 0.929 . S
C170 C169 1.363 . S
C170 C176 1.428 . S
H171 C167 0.930 . S
H172 C169 0.929 . S
S173 N174 1.613 1_554 S
S173 N175 1.610 . S
N174 S173 1.613 1_556 S
N174 C177 1.350 . S
N175 S173 1.610 . S
N175 C176 1.351 . S
C176 C170 1.428 . S
C176 N175 1.351 . S
C176 C177 1.434 1_554 S
C177 C168 1.429 . S
C177 N174 1.350 . S
C177 C176 1.434 1_556 S
C178 C179 1.369 . S
C178 C180 1.419 . S
C178 H182 0.930 . S
C179 C178 1.369 . S
C179 C188 1.429 . S
C180 C178 1.419 . S
C180 C181 1.363 . S
C180 H183 0.929 . S
C181 C180 1.363 . S
C181 C187 1.428 . S
H182 C178 0.930 . S
H183 C180 0.929 . S
S184 N185 1.613 . S
S184 N186 1.610 . S
N185 S184 1.613 . S
N185 C188 1.350 . S
N186 S184 1.610 . S
N186 C187 1.351 . S
C187 C181 1.428 . S
C187 N186 1.351 . S
C187 C188 1.434 . S
C188 C179 1.429 . S
C188 N185 1.350 . S
C188 C187 1.434 . S
C189 C190 1.369 . S
C189 C191 1.419 1_556 S
C189 H193 0.930 . S
C190 C189 1.369 . S
C190 C199 1.429 . S
C191 C189 1.419 1_554 S
C191 C192 1.363 . S
C191 H194 0.929 . S
C192 C191 1.363 . S
C192 C198 1.428 . S
H193 C189 0.930 . S
H194 C191 0.929 . S
S195 N196 1.613 1_554 S
S195 N197 1.610 . S
N196 S195 1.613 1_556 S
N196 C199 1.350 . S
N197 S195 1.610 . S
N197 C198 1.351 . S
C198 C192 1.428 . S
C198 N197 1.351 . S
C198 C199 1.434 1_554 S
C199 C190 1.429 . S
C199 N196 1.350 . S
C199 C198 1.434 1_556 S
C200 C201 1.369 . S
C200 C202 1.419 . S
C200 H204 0.930 . S
C201 C200 1.369 . S
C201 C210 1.429 . S
C202 C200 1.419 . S
C202 C203 1.363 . S
C202 H205 0.929 . S
C203 C202 1.363 . S
C203 C209 1.428 . S
H204 C200 0.930 . S
H205 C202 0.929 . S
S206 N207 1.613 . S
S206 N208 1.610 . S
N207 S206 1.613 . S
N207 C210 1.350 . S
N208 S206 1.610 . S
N208 C209 1.351 . S
C209 C203 1.428 . S
C209 N208 1.351 . S
C209 C210 1.434 . S
C210 C201 1.429 . S
C210 N207 1.350 . S
C210 C209 1.434 . S
C211 C212 1.369 . S
C211 C213 1.419 . S
C211 H215 0.930 . S
C212 C211 1.369 . S
C212 C221 1.429 . S
C213 C211 1.419 . S
C213 C214 1.363 . S
C213 H216 0.929 . S
C214 C213 1.363 . S
C214 C220 1.428 . S
H215 C211 0.930 . S
H216 C213 0.929 . S
S217 N218 1.613 . S
S217 N219 1.610 1_565 S
N218 S217 1.613 . S
N218 C221 1.350 . S
N219 S217 1.610 1_545 S
N219 C220 1.351 1_545 S
C220 C214 1.428 . S
C220 N219 1.351 1_565 S
C220 C221 1.434 . S
C221 C212 1.429 . S
C221 N218 1.350 . S
C221 C220 1.434 . S
C222 C223 1.369 . S
C222 C224 1.419 . S
C222 H226 0.930 . S
C223 C222 1.369 . S
C223 C232 1.429 . S
C224 C222 1.419 . S
C224 C225 1.363 . S
C224 H227 0.929 . S
C225 C224 1.363 . S
C225 C231 1.428 . S
H226 C222 0.930 . S
H227 C224 0.929 . S
S228 N229 1.613 . S
S228 N230 1.610 . S
N229 S228 1.613 . S
N229 C232 1.350 . S
N230 S228 1.610 . S
N230 C231 1.351 . S
C231 C225 1.428 . S
C231 N230 1.351 . S
C231 C232 1.434 . S
C232 C223 1.429 . S
C232 N229 1.350 . S
C232 C231 1.434 . S
C233 C234 1.369 . S
C233 C235 1.419 . S
C233 H237 0.930 . S
C234 C233 1.369 . S
C234 C243 1.429 . S
C235 C233 1.419 . S
C235 C236 1.363 . S
C235 H238 0.929 . S
C236 C235 1.363 . S
C236 C242 1.428 . S
H237 C233 0.930 . S
H238 C235 0.929 . S
S239 N240 1.613 . S
S239 N241 1.610 1_545 S
N240 S239 1.613 . S
N240 C243 1.350 . S
N241 S239 1.610 1_565 S
N241 C242 1.351 1_565 S
C242 C236 1.428 . S
C242 N241 1.351 1_545 S
C242 C243 1.434 . S
C243 C234 1.429 . S
C243 N240 1.350 . S
C243 C242 1.434 . S
C244 C245 1.369 . S
C244 C246 1.419 . S
C244 H248 0.930 . S
C245 C244 1.369 . S
C245 C254 1.429 . S
C246 C244 1.419 . S
C246 C247 1.363 . S
C246 H249 0.929 . S
C247 C246 1.363 . S
C247 C253 1.428 . S
H248 C244 0.930 . S
H249 C246 0.929 . S
S250 N251 1.613 . S
S250 N252 1.610 . S
N251 S250 1.613 . S
N251 C254 1.350 . S
N252 S250 1.610 . S
N252 C253 1.351 . S
C253 C247 1.428 . S
C253 N252 1.351 . S
C253 C254 1.434 . S
C254 C245 1.429 . S
C254 N251 1.350 . S
C254 C253 1.434 . S
C255 C256 1.369 . S
C255 C257 1.419 . S
C255 H259 0.930 . S
C256 C255 1.369 . S
C256 C265 1.429 . S
C257 C255 1.419 . S
C257 C258 1.363 . S
C257 H260 0.929 . S
C258 C257 1.363 . S
C258 C264 1.428 . S
H259 C255 0.930 . S
H260 C257 0.929 . S
S261 N262 1.613 . S
S261 N263 1.610 . S
N262 S261 1.613 . S
N262 C265 1.350 . S
N263 S261 1.610 . S
N263 C264 1.351 . S
C264 C258 1.428 . S
C264 N263 1.351 . S
C264 C265 1.434 . S
C265 C256 1.429 . S
C265 N262 1.350 . S
C265 C264 1.434 . S
C266 C267 1.369 . S
C266 C268 1.419 . S
C266 H270 0.930 . S
C267 C266 1.369 . S
C267 C276 1.429 . S
C268 C266 1.419 . S
C268 C269 1.363 . S
C268 H271 0.929 . S
C269 C268 1.363 . S
C269 C275 1.428 . S
H270 C266 0.930 . S
H271 C268 0.929 . S
S272 N273 1.613 . S
S272 N274 1.610 1_455 S
N273 S272 1.613 . S
N273 C276 1.350 . S
N274 S272 1.610 1_655 S
N274 C275 1.351 1_655 S
C275 C269 1.428 . S
C275 N274 1.351 1_455 S
C275 C276 1.434 . S
C276 C267 1.429 . S
C276 N273 1.350 . S
C276 C275 1.434 . S
C277 C278 1.369 . S
C277 C279 1.419 . S
C277 H281 0.930 . S
C278 C277 1.369 . S
C278 C287 1.429 . S
C279 C277 1.419 . S
C279 C280 1.363 . S
C279 H282 0.929 . S
C280 C279 1.363 . S
C280 C286 1.428 . S
H281 C277 0.930 . S
H282 C279 0.929 . S
S283 N284 1.613 . S
S283 N285 1.610 . S
N284 S283 1.613 . S
N284 C287 1.350 . S
N285 S283 1.610 . S
N285 C286 1.351 . S
C286 C280 1.428 . S
C286 N285 1.351 . S
C286 C287 1.434 . S
C287 C278 1.429 . S
C287 N284 1.350 . S
C287 C286 1.434 . S
C113 C9 0.777 . S
C115 C37 0.763 . S
C124 C23 0.776 . S
C126 C51 0.764 . S
C135 C65 0.778 . S
C137 C93 0.762 . S
C146 C79 0.765 . S
C148 C107 0.772 . S
C157 C7 1.420 . S
C159 C77 1.421 . S
C168 C21 1.424 . S
C170 C91 1.424 . S
C179 C105 1.420 . S
C181 C35 1.421 . S
C190 C49 1.423 . S
C192 C63 1.423 . S
C201 C59 1.740 . S
C203 C8 1.789 . S
C212 C22 1.793 . S
C214 C73 1.734 1_565 S
C223 C36 1.796 . S
C225 C87 1.731 . S
C234 C50 1.794 . S
C236 C101 1.734 1_545 S
C245 C3 1.729 1_655 S
C247 C64 1.795 . S
C256 C78 1.788 . S
C258 C17 1.739 . S
C267 C92 1.794 . S
C269 C31 1.734 1_455 S
C278 C45 1.740 . S
C280 C106 1.789 . S
