# Generated by pormake.
# Topology qtz-e, (6)-cn, num edge types: 1
# Building blocks:
#     Node 0, Type 0, BuildingBlock: BETDEL_clean_sbu_0, # of connection points: 6
#     Node 1, Type 0, BuildingBlock: BETDEL_clean_sbu_0, # of connection points: 6
#     Node 2, Type 0, BuildingBlock: BETDEL_clean_sbu_0, # of connection points: 6
#     Node 3, Type 0, BuildingBlock: BETDEL_clean_sbu_0, # of connection points: 6
#     Node 4, Type 0, BuildingBlock: BETDEL_clean_sbu_0, # of connection points: 6
#     Node 5, Type 0, BuildingBlock: BETDEL_clean_sbu_0, # of connection points: 6
#     Edge 6, Type (0, 0), BuildingBlock: CIFDUS_clean_linker_0, # of connection points: 2
#     Edge 7, Type (0, 0), BuildingBlock: CIFDUS_clean_linker_0, # of connection points: 2
#     Edge 8, Type (0, 0), BuildingBlock: CIFDUS_clean_linker_0, # of connection points: 2
#     Edge 9, Type (0, 0), BuildingBlock: CIFDUS_clean_linker_0, # of connection points: 2
#     Edge 10, Type (0, 0), BuildingBlock: CIFDUS_clean_linker_0, # of connection points: 2
#     Edge 11, Type (0, 0), BuildingBlock: CIFDUS_clean_linker_0, # of connection points: 2
#     Edge 12, Type (0, 0), BuildingBlock: CIFDUS_clean_linker_0, # of connection points: 2
#     Edge 13, Type (0, 0), BuildingBlock: CIFDUS_clean_linker_0, # of connection points: 2
#     Edge 14, Type (0, 0), BuildingBlock: CIFDUS_clean_linker_0, # of connection points: 2
#     Edge 15, Type (0, 0), BuildingBlock: CIFDUS_clean_linker_0, # of connection points: 2
#     Edge 16, Type (0, 0), BuildingBlock: CIFDUS_clean_linker_0, # of connection points: 2
#     Edge 17, Type (0, 0), BuildingBlock: CIFDUS_clean_linker_0, # of connection points: 2
#     Edge 18, Type (0, 0), BuildingBlock: CIFDUS_clean_linker_0, # of connection points: 2
#     Edge 19, Type (0, 0), BuildingBlock: CIFDUS_clean_linker_0, # of connection points: 2
#     Edge 20, Type (0, 0), BuildingBlock: CIFDUS_clean_linker_0, # of connection points: 2
#     Edge 21, Type (0, 0), BuildingBlock: CIFDUS_clean_linker_0, # of connection points: 2
#     Edge 22, Type (0, 0), BuildingBlock: CIFDUS_clean_linker_0, # of connection points: 2
#     Edge 23, Type (0, 0), BuildingBlock: CIFDUS_clean_linker_0, # of connection points: 2
# Relax obj value: 0.203
# Max RMSD: 0.208
# Mean RMSD: 0.208
data_MOF--net-qtz-e--node1-BETDEL_clean_sbu_0--edge1-CIFDUS_clean_linker_0
_symmetry_space_group_name_H-M    P1
_symmetry_Int_Tables_number       1
_symmetry_cell_setting            triclinic
loop_
_symmetry_equiv_pos_as_xyz
'x, y, z'
_cell_length_a     22.249242
_cell_length_b     22.290298
_cell_length_c     34.181723
_cell_angle_alpha  89.220644
_cell_angle_beta   90.335346
_cell_angle_gamma 120.17761
loop_
_atom_site_label
_atom_site_type_symbol
_atom_site_fract_x
_atom_site_fract_y
_atom_site_fract_z
_atom_type_partial_charge
Dy0 Dy 0.14567 0.42138 0.07004 0.0
C1 C 0.08431 0.20204 0.96247 0.0
C2 C 0.1636 0.52964 0.1141 0.0
Dy3 Dy 0.09449 0.29449 1.01734 0.0
O4 O 0.21358 0.51949 0.10298 0.0
O5 O 0.10459 0.48225 0.0998 0.0
O6 O 0.20606 0.38448 0.10418 0.0
O7 O 0.19522 0.3678 0.044 0.0
C8 C 0.22173 0.35889 0.07476 0.0
C9 C 0.00336 0.33568 1.03342 0.0
O10 O 0.07293 0.24272 0.07601 0.0
O11 O 0.07066 0.33281 0.108 0.0
O12 O 0.05195 0.23692 0.9612 0.0
O13 O 0.12047 0.2161 0.99453 0.0
O14 O -0.01618 0.27059 1.02887 0.0
O15 O 0.06671 0.37285 1.02645 0.0
O16 O 0.19023 0.47792 1.0133 0.0
O17 O 0.15832 0.38055 0.97502 0.0
C18 C 0.05929 0.26851 0.10712 0.0
C19 C 0.18914 0.44873 0.97942 0.0
Dy20 Dy 0.74306 0.18544 0.42286 0.0
C21 C 0.92291 0.14561 0.31912 0.0
C22 C 0.64858 0.19155 0.4702 0.0
Dy23 Dy 0.82616 0.14803 0.36685 0.0
O24 O 0.69929 0.24497 0.45261 0.0
O25 O 0.64914 0.1354 0.46172 0.0
O26 O 0.84015 0.25391 0.45542 0.0
O27 O 0.84518 0.2444 0.39525 0.0
C28 C 0.88087 0.27424 0.4252 0.0
C29 C 0.68687 0.06973 0.36126 0.0
O30 O 0.8439 0.1044 0.42237 0.0
O31 O 0.76881 0.12097 0.46205 0.0
O32 O 0.85642 0.10237 0.31781 0.0
O33 O 0.93652 0.18768 0.34811 0.0
O34 O 0.72815 0.08163 0.33186 0.0
O35 O 0.7224 0.09377 0.39187 0.0
O36 O 0.72407 0.22262 0.364 0.0
O37 O 0.81999 0.2299 0.33288 0.0
C38 C 0.81318 0.09884 0.45639 0.0
C39 C 0.7679 0.24227 0.33388 0.0
Dy40 Dy 0.50177 0.72373 0.74146 0.0
C41 C 0.74923 0.91103 0.65648 0.0
C42 C 0.3841 0.63369 0.78182 0.0
Dy43 Dy 0.63485 0.81136 0.69561 0.0
O44 O 0.41672 0.61535 0.75771 0.0
O45 O 0.41408 0.70067 0.78227 0.0
O46 O 0.52683 0.8178 0.77505 0.0
O47 O 0.55117 0.82859 0.71575 0.0
C48 C 0.55097 0.8609 0.74575 0.0
C49 C 0.57893 0.67341 0.69041 0.0
O50 O 0.67913 0.82273 0.75624 0.0
O51 O 0.58013 0.7326 0.78547 0.0
O52 O 0.71979 0.8447 0.65091 0.0
O53 O 0.71792 0.9224 0.68497 0.0
O54 O 0.61125 0.71594 0.66162 0.0
O55 O 0.58299 0.70699 0.72044 0.0
O56 O 0.45868 0.71396 0.67992 0.0
O57 O 0.55664 0.81009 0.65438 0.0
C58 C 0.64633 0.78212 0.78678 0.0
C59 C 0.49113 0.76004 0.65128 0.0
Dy60 Dy 0.73223 0.49826 0.08648 0.0
C61 C 0.75369 0.73062 0.9981 0.0
C62 C 0.72299 0.39115 0.13093 0.0
Dy63 Dy 0.76393 0.63146 0.04057 0.0
O64 O 0.67056 0.39189 0.11456 0.0
O65 O 0.78004 0.44654 0.12054 0.0
O66 O 0.6442 0.5015 0.1146 0.0
O67 O 0.66915 0.53512 0.05678 0.0
C68 C 0.62775 0.52572 0.0843 0.0
C69 C 0.86341 0.59736 0.03833 0.0
O70 O 0.78635 0.67469 0.10146 0.0
O71 O 0.77968 0.57796 0.1329 0.0
O72 O 0.80561 0.71948 0.99685 0.0
O73 O 0.70961 0.69034 1.0246 0.0
O74 O 0.85371 0.63194 1.01054 0.0
O75 O 0.82511 0.59066 0.067 0.0
O76 O 0.72409 0.46119 1.02448 0.0
O77 O 0.70921 0.54846 0.99663 0.0
C78 C 0.79152 0.64243 0.13315 0.0
C79 C 0.70943 0.48933 0.99398 0.0
Dy80 Dy 0.23068 0.778 0.4012 0.0
C81 C 0.0393 0.81967 0.30791 0.0
C82 C 0.32305 0.76017 0.44574 0.0
Dy83 Dy 0.13972 0.81232 0.35083 0.0
O84 O 0.26839 0.71071 0.42899 0.0
O85 O 0.3295 0.81965 0.43588 0.0
O86 O 0.13743 0.70823 0.43673 0.0
O87 O 0.1259 0.71538 0.3768 0.0
C88 C 0.09428 0.6843 0.40776 0.0
C89 C 0.27694 0.89535 0.34084 0.0
O90 O 0.12716 0.85278 0.40839 0.0
O91 O 0.21218 0.84289 0.44291 0.0
O92 O 0.10541 0.86428 0.3063 0.0
O93 O 0.02797 0.77248 0.33424 0.0
O94 O 0.23276 0.87691 0.31232 0.0
O95 O 0.24565 0.8718 0.37283 0.0
O96 O 0.24941 0.74875 0.34104 0.0
O97 O 0.14768 0.73535 0.3143 0.0
C98 C 0.1647 0.86183 0.44037 0.0
C99 C 0.203 0.72811 0.3122 0.0
Dy100 Dy 0.42861 0.23354 0.74796 0.0
C101 C 0.21488 0.04325 0.64367 0.0
C102 C 0.53608 0.33195 0.7901 0.0
Dy103 Dy 0.30117 0.14025 0.69615 0.0
O104 O 0.52974 0.27308 0.77988 0.0
O105 O 0.48501 0.33813 0.77591 0.0
O106 O 0.40254 0.14027 0.78453 0.0
O107 O 0.38377 0.12889 0.72463 0.0
C108 C 0.38006 0.09669 0.75598 0.0
C109 C 0.32959 0.2706 0.70641 0.0
O110 O 0.25241 0.11456 0.75567 0.0
O111 O 0.33815 0.21598 0.78437 0.0
O112 O 0.24234 0.10996 0.63927 0.0
O113 O 0.23239 0.0296 0.6776 0.0
O114 O 0.26634 0.22006 0.70094 0.0
O115 O 0.37168 0.24971 0.70229 0.0
O116 O 0.48506 0.24915 0.69133 0.0
O117 O 0.38961 0.16871 0.65517 0.0
C118 C 0.27625 0.15894 0.78496 0.0
C119 C 0.45692 0.21432 0.65871 0.0
H120 H 0.11664 0.6852 0.2502 0.0
H121 H 0.30723 0.70084 0.29255 0.0
H122 H 0.31615 0.64712 0.23221 0.0
H123 H 0.26532 0.58994 0.16895 0.0
H124 H 0.07214 0.57192 0.12994 0.0
H125 H 0.06945 0.63405 0.1875 0.0
C126 C 0.16048 0.67717 0.24654 0.0
C127 C 0.21089 0.69641 0.27619 0.0
C128 C 0.16498 0.64645 0.21218 0.0
C129 C 0.26736 0.68589 0.2704 0.0
C130 C 0.27254 0.65545 0.23586 0.0
C131 C 0.22354 0.60104 0.17278 0.0
C132 C 0.16917 0.577 0.14526 0.0
C133 C 0.22123 0.63496 0.20669 0.0
C134 C 0.11462 0.59038 0.1507 0.0
C135 C 0.11285 0.62543 0.18368 0.0
H136 H 0.42369 0.13039 0.59667 0.0
H137 H 0.58959 0.32111 0.64388 0.0
H138 H 0.66149 0.33563 0.58649 0.0
H139 H 0.67865 0.29011 0.52439 0.0
H140 H 0.51461 0.09466 0.48138 0.0
H141 H 0.43933 0.0867 0.53533 0.0
C142 C 0.47537 0.17559 0.59442 0.0
C143 C 0.50131 0.22466 0.62448 0.0
C144 C 0.51631 0.1829 0.56191 0.0
C145 C 0.56866 0.28238 0.6212 0.0
C146 C 0.60958 0.29084 0.58835 0.0
C147 C 0.62588 0.24673 0.5266 0.0
C148 C 0.60138 0.19335 0.49908 0.0
C149 C 0.58409 0.24107 0.55866 0.0
C150 C 0.53385 0.13636 0.50234 0.0
C151 C 0.49114 0.13164 0.5332 0.0
H152 H 0.20683 0.4071 0.9082 0.0
H153 H 0.24785 0.58987 0.97206 0.0
H154 H 0.30487 0.66212 0.91445 0.0
H155 H 0.34814 0.67388 0.84734 0.0
H156 H 0.31283 0.49216 0.78485 0.0
H157 H 0.24683 0.4184 0.84053 0.0
C158 C 0.2279 0.46272 0.90963 0.0
C159 C 0.22325 0.49301 0.94459 0.0
C160 C 0.26106 0.50391 0.87657 0.0
C161 C 0.25101 0.56518 0.9457 0.0
C162 C 0.28341 0.60651 0.91271 0.0
C163 C 0.32488 0.61798 0.84564 0.0
C164 C 0.33491 0.58821 0.81209 0.0
C165 C 0.2892 0.57646 0.87815 0.0
C166 C 0.30543 0.51597 0.81039 0.0
C167 C 0.26816 0.474 0.84227 0.0
H168 H 0.656 0.21313 0.28731 0.0
H169 H 0.87424 0.35862 0.30408 0.0
H170 H 0.88012 0.41358 0.24146 0.0
H171 H 0.82627 0.41721 0.18057 0.0
H172 H 0.608 0.27605 0.16138 0.0
H173 H 0.59945 0.22061 0.22542 0.0
C174 C 0.70403 0.25813 0.27757 0.0
C175 C 0.76423 0.2829 0.30067 0.0
C176 C 0.70771 0.2885 0.24049 0.0
C177 C 0.82686 0.33977 0.28731 0.0
C178 C 0.83063 0.37057 0.25115 0.0
C179 C 0.77686 0.37375 0.19011 0.0
C180 C 0.71811 0.34999 0.16614 0.0
C181 C 0.77193 0.34443 0.22719 0.0
C182 C 0.65425 0.29444 0.1792 0.0
C183 C 0.64921 0.2634 0.21596 0.0
H184 H 0.42061 0.66211 0.59559 0.0
H185 H 0.48196 0.87072 0.62952 0.0
H186 H 0.44096 0.89129 0.56728 0.0
H187 H 0.39125 0.85188 0.50261 0.0
H188 H 0.32508 0.64268 0.4677 0.0
H189 H 0.36597 0.62074 0.53023 0.0
C190 C 0.42325 0.71126 0.5895 0.0
C191 C 0.45324 0.76461 0.61708 0.0
C192 C 0.40068 0.72326 0.55309 0.0
C193 C 0.45828 0.82882 0.60872 0.0
C194 C 0.43554 0.84085 0.57304 0.0
C195 C 0.38677 0.8018 0.50841 0.0
C196 C 0.35645 0.74936 0.48042 0.0
C197 C 0.40785 0.78896 0.54476 0.0
C198 C 0.34935 0.68418 0.48869 0.0
C199 C 0.37201 0.67144 0.52457 0.0
H200 H 0.67735 0.53567 0.92821 0.0
H201 H 0.6945 0.36311 0.97368 0.0
H202 H 0.65108 0.3028 0.9114 0.0
H203 H 0.59809 0.29533 0.84646 0.0
H204 H 0.5738 0.4654 0.80461 0.0
H205 H 0.63166 0.53144 0.86315 0.0
C206 C 0.67206 0.48494 0.92473 0.0
C207 C 0.68822 0.45348 0.95592 0.0
C208 C 0.6461 0.45045 0.8894 0.0
C209 C 0.68174 0.38818 0.95035 0.0
C210 C 0.657 0.35378 0.91474 0.0
C211 C 0.60704 0.34751 0.84985 0.0
C212 C 0.58225 0.37593 0.82135 0.0
C213 C 0.63773 0.3839 0.88436 0.0
C214 C 0.59286 0.4429 0.82618 0.0
C215 C 0.62544 0.48034 0.85971 0.0
H216 H 0.32617 0.43389 1.02377 0.0
H217 H 0.27327 0.30831 0.12889 0.0
H218 H 0.39646 0.35211 0.1421 0.0
H219 H 0.51776 0.43391 0.12725 0.0
H220 H 0.57296 0.56107 1.02255 0.0
H221 H 0.44943 0.51065 1.00624 0.0
C222 C 0.34174 0.41436 0.04877 0.0
C223 C 0.29127 0.3673 0.07516 0.0
C224 C 0.41259 0.44217 0.05703 0.0
C225 C 0.31165 0.34363 0.108 0.0
C226 C 0.38188 0.36955 0.11586 0.0
C227 C 0.50295 0.45117 0.10099 0.0
C228 C 0.55415 0.50205 0.07644 0.0
C229 C 0.4326 0.42058 0.09133 0.0
C230 C 0.53415 0.5228 0.04217 0.0
C231 C 0.46377 0.49341 1.03265 0.0
H232 H 0.08097 0.58749 0.46119 0.0
H233 H -0.00139 0.61209 0.35132 0.0
H234 H 0.93058 0.48558 0.34462 0.0
H235 H 0.89538 0.36892 0.37041 0.0
H236 H -0.0197 0.34543 0.47925 0.0
H237 H 0.04934 0.47179 0.48539 0.0
C238 C 0.04743 0.56541 0.43598 0.0
C239 C 0.044 0.60908 0.40697 0.0
C240 C 0.01102 0.49327 0.43163 0.0
C241 C 0.00115 0.57941 0.37426 0.0
C242 C -0.03688 0.50729 0.37021 0.0
C243 C 0.9309 0.39151 0.39466 0.0
C244 C 0.93433 0.3482 0.42382 0.0
C245 C -0.0315 0.46387 0.39846 0.0
C246 C -0.0218 0.378 0.45609 0.0
C247 C 0.01669 0.45002 0.45985 0.0
H248 H 0.44333 0.06421 0.69941 0.0
H249 H 0.35955 0.00933 0.81637 0.0
H250 H 0.41241 0.93681 0.82504 0.0
H251 H 0.486 0.89387 0.80059 0.0
H252 H 0.56972 0.9468 0.68349 0.0
H253 H 0.51581 0.01859 0.67419 0.0
C254 C 0.43521 0.0349 0.72639 0.0
C255 C 0.39692 0.04103 0.75713 0.0
C256 C 0.46778 -0.00455 0.73161 0.0
C257 C 0.38803 0.00427 0.79225 0.0
C258 C 0.41906 0.96382 0.79738 0.0
C259 C 0.49333 0.92172 0.77314 0.0
C260 C 0.53186 0.91519 0.74273 0.0
C261 C 0.46022 0.96036 0.76759 0.0
C262 C 0.5406 0.9515 0.70737 0.0
C263 C 0.50907 -0.00832 0.7019 0.0
H264 H 0.5089 0.58079 0.74817 0.0
H265 H 0.54099 0.59848 0.62332 0.0
H266 H 0.45639 0.47482 0.6164 0.0
H267 H 0.37818 0.36078 0.64666 0.0
H268 H 0.34189 0.34454 0.77092 0.0
H269 H 0.42031 0.46985 0.77732 0.0
C270 C 0.49611 0.55782 0.71938 0.0
C271 C 0.53034 0.59852 0.68627 0.0
C272 C 0.44559 0.48764 0.71554 0.0
C273 C 0.51528 0.56793 0.64923 0.0
C274 C 0.46651 0.49753 0.64523 0.0
C275 C 0.38528 0.38551 0.67479 0.0
C276 C 0.35342 0.34459 0.70816 0.0
C277 C 0.43145 0.45695 0.6782 0.0
C278 C 0.36452 0.37589 0.74479 0.0
C279 C 0.41028 0.44711 0.74849 0.0
H280 H -0.03408 0.3976 0.97933 0.0
H281 H 0.95088 0.34774 0.10227 0.0
H282 H 0.91164 0.43058 0.11545 0.0
H283 H 0.89315 0.5256 0.09194 0.0
H284 H 0.89855 0.56738 0.96824 0.0
H285 H 0.93434 0.4824 0.95523 0.0
C286 C 0.95134 0.40312 1.00874 0.0
C287 C 0.95927 0.36586 0.03972 0.0
C288 C 0.92994 0.45126 1.01595 0.0
C289 C 0.94288 0.37464 0.07796 0.0
C290 C 0.9218 0.42284 0.08551 0.0
C291 C 0.89979 0.5141 0.06216 0.0
C292 C 0.89153 0.55115 1.03113 0.0
C293 C 0.91679 0.46261 0.05479 0.0
C294 C 0.90467 0.53945 0.99267 0.0
C295 C 0.92427 0.4903 0.98516 0.0
H296 H 0.3775 -0.00104 0.38155 0.0
H297 H 0.34337 0.85619 0.28903 0.0
H298 H 0.46842 0.89678 0.28649 0.0
H299 H 0.58788 0.97057 0.31367 0.0
H300 H 0.62011 0.12673 0.39641 0.0
H301 H 0.4964 0.0839 0.40044 0.0
C302 C 0.39778 -0.02265 0.36063 0.0
C303 C 0.35205 0.92438 0.33596 0.0
C304 C 0.46938 0.00267 0.35833 0.0
C305 C 0.37826 0.8971 0.30843 0.0
C306 C 0.44957 0.92015 0.30705 0.0
C307 C 0.56747 -0.00499 0.33243 0.0
C308 C 0.61242 0.04802 0.3578 0.0
C309 C 0.49574 0.97251 0.33228 0.0
C310 C 0.58584 0.08125 0.38041 0.0
C311 C 0.51511 0.05801 0.3816 0.0
H312 H 0.1483 0.14437 0.79379 0.0
H313 H 0.31623 0.14365 0.85672 0.0
H314 H 0.26249 0.14247 0.91906 0.0
H315 H 0.17869 0.16092 0.9549 0.0
H316 H 0.01687 0.17413 0.89236 0.0
H317 H 0.0557 0.14956 0.83088 0.0
C318 C 0.17168 0.14197 0.82127 0.0
C319 C 0.23572 0.14401 0.82108 0.0
C320 C 0.14187 0.14426 0.85702 0.0
C321 C 0.26676 0.14211 0.85655 0.0
C322 C 0.23622 0.14167 0.8921 0.0
C323 C 0.15076 0.15649 0.92797 0.0
C324 C 0.0955 0.16982 0.92799 0.0
C325 C 0.1753 0.14552 0.89265 0.0
C326 C 0.0598 0.16422 0.89295 0.0
C327 C 0.08231 0.1507 0.85776 0.0
H328 H 0.89252 0.07925 0.24953 0.0
H329 H 0.05572 0.25201 0.31181 0.0
H330 H 0.11662 0.30275 0.2504 0.0
H331 H 0.11256 0.30791 0.17875 0.0
H332 H 0.95094 0.13598 0.11567 0.0
H333 H 0.89985 0.07463 0.17766 0.0
C334 C 0.94252 0.12684 0.24973 0.0
C335 C -0.03092 0.16255 0.28499 0.0
C336 C -0.02358 0.15658 0.21415 0.0
C337 C 0.03406 0.22386 0.28498 0.0
C338 C 0.06854 0.25328 0.24983 0.0
C339 C 0.06671 0.25651 0.17872 0.0
C340 C 0.03433 0.22671 0.14318 0.0
C341 C 0.03838 0.22182 0.21422 0.0
C342 C -0.02397 0.15974 0.14298 0.0
C343 C 0.94694 0.12492 0.17833 0.0
H344 H 0.79061 0.88932 0.5861 0.0
H345 H 0.79773 0.04967 0.65865 0.0
H346 H 0.82992 0.12771 0.60205 0.0
H347 H 0.83225 0.14112 0.53074 0.0
H348 H 0.8218 -0.01934 0.45724 0.0
H349 H 0.81536 0.91182 0.51539 0.0
C350 C 0.80151 0.94213 0.58971 0.0
C351 C 0.79058 0.96343 0.62628 0.0
C352 C 0.81788 -0.01401 0.55674 0.0
C353 C 0.80527 0.032 0.63071 0.0
C354 C 0.82304 0.07642 0.59828 0.0
C355 C 0.83016 0.09172 0.52757 0.0
C356 C 0.82614 0.06506 0.49005 0.0
C357 C 0.82566 0.05254 0.56095 0.0
C358 C 0.82467 0.00182 0.48599 0.0
C359 C 0.82055 0.96241 0.5192 0.0
H360 H 0.59394 0.76863 0.85901 0.0
H361 H 0.78196 0.81638 0.79782 0.0
H362 H 0.83736 0.81615 0.86012 0.0
H363 H 0.82589 0.78719 0.93077 0.0
H364 H 0.63675 0.73937 0.99104 0.0
H365 H 0.58881 0.75698 0.93045 0.0
C366 C 0.64733 0.77966 0.85941 0.0
C367 C 0.68354 0.79105 0.82403 0.0
C368 C 0.67858 0.7798 0.89515 0.0
C369 C 0.75307 0.80695 0.8248 0.0
C370 C 0.78458 0.80669 0.86036 0.0
C371 C 0.77502 0.78267 0.93084 0.0
C372 C 0.73453 0.76127 0.96521 0.0
C373 C 0.74709 0.79124 0.89561 0.0
C374 C 0.66879 0.75563 0.96495 0.0
C375 C 0.64107 0.765 0.93022 0.0
H376 H 0.90493 0.71836 0.30244 0.0
H377 H 0.06354 0.90044 0.24256 0.0
H378 H -0.00714 0.86764 0.18311 0.0
H379 H 0.89626 0.7753 0.14505 0.0
H380 H 0.74282 0.58999 0.20496 0.0
H381 H 0.80005 0.63614 0.26737 0.0
C382 C 0.92308 0.75188 0.27672 0.0
C383 C -0.01039 0.81104 0.27664 0.0
C384 C 0.88327 0.73146 0.24235 0.0
C385 C 0.01251 0.85428 0.24322 0.0
C386 C -0.02768 0.83526 0.2091 0.0
C387 C 0.87429 0.74632 0.172 0.0
C388 C 0.81595 0.67921 0.17053 0.0
C389 C 0.90909 0.77221 0.20777 0.0
C390 C 0.78814 0.6416 0.20549 0.0
C391 C 0.82097 0.66781 0.24116 0.0
H392 H 0.17933 0.06499 0.57064 0.0
H393 H 0.18823 0.91035 0.64377 0.0
H394 H 0.16703 0.83712 0.58699 0.0
H395 H 0.16153 0.82424 0.51568 0.0
H396 H 0.14909 -0.02409 0.44195 0.0
H397 H 0.15541 0.04301 0.49979 0.0
C398 C 0.17494 0.01452 0.57421 0.0
C399 C 0.18614 -0.00659 0.61123 0.0
C400 C 0.16304 0.97269 0.54129 0.0
C401 C 0.17999 0.92782 0.61557 0.0
C402 C 0.16834 0.8861 0.58306 0.0
C403 C 0.15905 0.87144 0.51241 0.0
C404 C 0.15582 0.89584 0.47479 0.0
C405 C 0.16229 0.90916 0.54566 0.0
C406 C 0.1516 0.95634 0.47074 0.0
C407 C 0.15561 -0.00521 0.50376 0.0
loop_
_geom_bond_atom_site_label_1
_geom_bond_atom_site_label_2
_geom_bond_distance
_geom_bond_site_symmetry_2
_ccdc_geom_bond_type
Dy0 O4 2.398 . S
Dy0 O5 2.491 . S
Dy0 O6 2.403 . S
Dy0 O7 2.664 . S
Dy0 O11 2.326 . S
Dy0 O15 2.310 . S
Dy0 O16 2.351 1_554 S
C1 O12 1.185 . S
C1 O13 1.355 . S
C2 O4 1.185 . S
C2 O5 1.355 . S
Dy3 O7 2.310 1_556 S
Dy3 O10 2.351 1_556 S
Dy3 O12 2.398 . S
Dy3 O13 2.491 . S
Dy3 O14 2.403 . S
Dy3 O15 2.664 1_556 S
Dy3 O17 2.326 . S
O4 Dy0 2.398 . S
O4 C2 1.185 . S
O5 Dy0 2.491 . S
O5 C2 1.355 . S
O6 Dy0 2.403 . S
O6 C8 1.254 . S
O7 Dy0 2.664 . S
O7 Dy3 2.310 1_554 S
O7 C8 1.268 . S
C8 O6 1.254 . S
C8 O7 1.268 . S
C9 O14 1.239 1_554 S
C9 O15 1.281 . S
O10 Dy3 2.351 1_554 S
O10 C18 1.249 . S
O11 Dy0 2.326 . S
O11 C18 1.267 . S
O12 C1 1.185 . S
O12 Dy3 2.398 . S
O13 C1 1.355 . S
O13 Dy3 2.491 . S
O14 Dy3 2.403 . S
O14 C9 1.239 1_556 S
O15 Dy0 2.310 . S
O15 Dy3 2.664 1_554 S
O15 C9 1.281 . S
O16 Dy0 2.351 1_556 S
O16 C19 1.249 . S
O17 Dy3 2.326 . S
O17 C19 1.267 . S
C18 O10 1.249 . S
C18 O11 1.267 . S
C19 O16 1.249 . S
C19 O17 1.267 . S
Dy20 O24 2.398 . S
Dy20 O25 2.491 . S
Dy20 O26 2.403 . S
Dy20 O27 2.664 . S
Dy20 O31 2.326 . S
Dy20 O35 2.310 . S
Dy20 O36 2.351 . S
C21 O32 1.185 . S
C21 O33 1.355 . S
C22 O24 1.185 . S
C22 O25 1.355 . S
Dy23 O27 2.310 . S
Dy23 O30 2.351 . S
Dy23 O32 2.398 . S
Dy23 O33 2.491 . S
Dy23 O34 2.403 . S
Dy23 O35 2.664 . S
Dy23 O37 2.326 . S
O24 Dy20 2.398 . S
O24 C22 1.185 . S
O25 Dy20 2.491 . S
O25 C22 1.355 . S
O26 Dy20 2.403 . S
O26 C28 1.254 . S
O27 Dy20 2.664 . S
O27 Dy23 2.310 . S
O27 C28 1.268 . S
C28 O26 1.254 . S
C28 O27 1.268 . S
C29 O34 1.254 . S
C29 O35 1.268 . S
O30 Dy23 2.351 . S
O30 C38 1.249 . S
O31 Dy20 2.326 . S
O31 C38 1.267 . S
O32 C21 1.185 . S
O32 Dy23 2.398 . S
O33 C21 1.355 . S
O33 Dy23 2.491 . S
O34 Dy23 2.403 . S
O34 C29 1.254 . S
O35 Dy20 2.310 . S
O35 Dy23 2.664 . S
O35 C29 1.268 . S
O36 Dy20 2.351 . S
O36 C39 1.249 . S
O37 Dy23 2.326 . S
O37 C39 1.267 . S
C38 O30 1.249 . S
C38 O31 1.267 . S
C39 O36 1.249 . S
C39 O37 1.267 . S
Dy40 O44 2.398 . S
Dy40 O45 2.491 . S
Dy40 O46 2.403 . S
Dy40 O47 2.664 . S
Dy40 O51 2.326 . S
Dy40 O55 2.310 . S
Dy40 O56 2.351 . S
C41 O52 1.185 . S
C41 O53 1.355 . S
C42 O44 1.185 . S
C42 O45 1.355 . S
Dy43 O47 2.310 . S
Dy43 O50 2.351 . S
Dy43 O52 2.398 . S
Dy43 O53 2.491 . S
Dy43 O54 2.403 . S
Dy43 O55 2.664 . S
Dy43 O57 2.326 . S
O44 Dy40 2.398 . S
O44 C42 1.185 . S
O45 Dy40 2.491 . S
O45 C42 1.355 . S
O46 Dy40 2.403 . S
O46 C48 1.254 . S
O47 Dy40 2.664 . S
O47 Dy43 2.310 . S
O47 C48 1.268 . S
C48 O46 1.254 . S
C48 O47 1.268 . S
C49 O54 1.254 . S
C49 O55 1.268 . S
O50 Dy43 2.351 . S
O50 C58 1.249 . S
O51 Dy40 2.326 . S
O51 C58 1.267 . S
O52 C41 1.185 . S
O52 Dy43 2.398 . S
O53 C41 1.355 . S
O53 Dy43 2.491 . S
O54 Dy43 2.403 . S
O54 C49 1.254 . S
O55 Dy40 2.310 . S
O55 Dy43 2.664 . S
O55 C49 1.268 . S
O56 Dy40 2.351 . S
O56 C59 1.249 . S
O57 Dy43 2.326 . S
O57 C59 1.267 . S
C58 O50 1.249 . S
C58 O51 1.267 . S
C59 O56 1.249 . S
C59 O57 1.267 . S
Dy60 O64 2.398 . S
Dy60 O65 2.491 . S
Dy60 O66 2.403 . S
Dy60 O67 2.664 . S
Dy60 O71 2.326 . S
Dy60 O75 2.310 . S
Dy60 O76 2.351 1_554 S
C61 O72 1.185 . S
C61 O73 1.355 . S
C62 O64 1.185 . S
C62 O65 1.355 . S
Dy63 O67 2.310 1_556 S
Dy63 O70 2.351 1_556 S
Dy63 O72 2.398 . S
Dy63 O73 2.491 . S
Dy63 O74 2.403 . S
Dy63 O75 2.664 1_556 S
Dy63 O77 2.326 . S
O64 Dy60 2.398 . S
O64 C62 1.185 . S
O65 Dy60 2.491 . S
O65 C62 1.355 . S
O66 Dy60 2.403 . S
O66 C68 1.254 . S
O67 Dy60 2.664 . S
O67 Dy63 2.310 1_554 S
O67 C68 1.268 . S
C68 O66 1.254 . S
C68 O67 1.268 . S
C69 O74 1.239 1_554 S
C69 O75 1.281 . S
O70 Dy63 2.351 1_554 S
O70 C78 1.249 . S
O71 Dy60 2.326 . S
O71 C78 1.267 . S
O72 C61 1.185 . S
O72 Dy63 2.398 . S
O73 C61 1.355 . S
O73 Dy63 2.491 . S
O74 Dy63 2.403 . S
O74 C69 1.239 1_556 S
O75 Dy60 2.310 . S
O75 Dy63 2.664 1_554 S
O75 C69 1.281 . S
O76 Dy60 2.351 1_556 S
O76 C79 1.249 . S
O77 Dy63 2.326 . S
O77 C79 1.267 . S
C78 O70 1.249 . S
C78 O71 1.267 . S
C79 O76 1.249 . S
C79 O77 1.267 . S
Dy80 O84 2.398 . S
Dy80 O85 2.491 . S
Dy80 O86 2.403 . S
Dy80 O87 2.664 . S
Dy80 O91 2.326 . S
Dy80 O95 2.310 . S
Dy80 O96 2.351 . S
C81 O92 1.185 . S
C81 O93 1.355 . S
C82 O84 1.185 . S
C82 O85 1.355 . S
Dy83 O87 2.310 . S
Dy83 O90 2.351 . S
Dy83 O92 2.398 . S
Dy83 O93 2.491 . S
Dy83 O94 2.403 . S
Dy83 O95 2.664 . S
Dy83 O97 2.326 . S
O84 Dy80 2.398 . S
O84 C82 1.185 . S
O85 Dy80 2.491 . S
O85 C82 1.355 . S
O86 Dy80 2.403 . S
O86 C88 1.254 . S
O87 Dy80 2.664 . S
O87 Dy83 2.310 . S
O87 C88 1.268 . S
C88 O86 1.254 . S
C88 O87 1.268 . S
C89 O94 1.254 . S
C89 O95 1.268 . S
O90 Dy83 2.351 . S
O90 C98 1.249 . S
O91 Dy80 2.326 . S
O91 C98 1.267 . S
O92 C81 1.185 . S
O92 Dy83 2.398 . S
O93 C81 1.355 . S
O93 Dy83 2.491 . S
O94 Dy83 2.403 . S
O94 C89 1.254 . S
O95 Dy80 2.310 . S
O95 Dy83 2.664 . S
O95 C89 1.268 . S
O96 Dy80 2.351 . S
O96 C99 1.249 . S
O97 Dy83 2.326 . S
O97 C99 1.267 . S
C98 O90 1.249 . S
C98 O91 1.267 . S
C99 O96 1.249 . S
C99 O97 1.267 . S
Dy100 O104 2.398 . S
Dy100 O105 2.491 . S
Dy100 O106 2.403 . S
Dy100 O107 2.664 . S
Dy100 O111 2.326 . S
Dy100 O115 2.310 . S
Dy100 O116 2.351 . S
C101 O112 1.185 . S
C101 O113 1.355 . S
C102 O104 1.185 . S
C102 O105 1.355 . S
Dy103 O107 2.310 . S
Dy103 O110 2.351 . S
Dy103 O112 2.398 . S
Dy103 O113 2.491 . S
Dy103 O114 2.403 . S
Dy103 O115 2.664 . S
Dy103 O117 2.326 . S
O104 Dy100 2.398 . S
O104 C102 1.185 . S
O105 Dy100 2.491 . S
O105 C102 1.355 . S
O106 Dy100 2.403 . S
O106 C108 1.254 . S
O107 Dy100 2.664 . S
O107 Dy103 2.310 . S
O107 C108 1.268 . S
C108 O106 1.254 . S
C108 O107 1.268 . S
C109 O114 1.254 . S
C109 O115 1.268 . S
O110 Dy103 2.351 . S
O110 C118 1.249 . S
O111 Dy100 2.326 . S
O111 C118 1.267 . S
O112 C101 1.185 . S
O112 Dy103 2.398 . S
O113 C101 1.355 . S
O113 Dy103 2.491 . S
O114 Dy103 2.403 . S
O114 C109 1.254 . S
O115 Dy100 2.310 . S
O115 Dy103 2.664 . S
O115 C109 1.268 . S
O116 Dy100 2.351 . S
O116 C119 1.249 . S
O117 Dy103 2.326 . S
O117 C119 1.267 . S
C118 O110 1.249 . S
C118 O111 1.267 . S
C119 O116 1.249 . S
C119 O117 1.267 . S
H120 C126 0.930 . S
H121 C129 0.930 . S
H122 C130 0.930 . S
H123 C131 0.930 . S
H124 C134 0.930 . S
H125 C135 0.930 . S
C126 H120 0.930 . S
C126 C127 1.355 . S
C126 C128 1.415 . S
C127 C126 1.355 . S
C127 C129 1.419 . S
C128 C126 1.415 . S
C128 C133 1.425 . S
C128 C135 1.409 . S
C129 H121 0.930 . S
C129 C127 1.419 . S
C129 C130 1.362 . S
C130 H122 0.930 . S
C130 C129 1.362 . S
C130 C133 1.409 . S
C131 H123 0.930 . S
C131 C132 1.355 . S
C131 C133 1.415 . S
C132 C131 1.355 . S
C132 C134 1.419 . S
C133 C128 1.425 . S
C133 C130 1.409 . S
C133 C131 1.415 . S
C134 H124 0.930 . S
C134 C132 1.419 . S
C134 C135 1.362 . S
C135 H125 0.930 . S
C135 C128 1.409 . S
C135 C134 1.362 . S
H136 C142 0.930 . S
H137 C145 0.930 . S
H138 C146 0.930 . S
H139 C147 0.930 . S
H140 C150 0.930 . S
H141 C151 0.930 . S
C142 H136 0.930 . S
C142 C143 1.355 . S
C142 C144 1.415 . S
C143 C142 1.355 . S
C143 C145 1.419 . S
C144 C142 1.415 . S
C144 C149 1.425 . S
C144 C151 1.409 . S
C145 H137 0.930 . S
C145 C143 1.419 . S
C145 C146 1.362 . S
C146 H138 0.930 . S
C146 C145 1.362 . S
C146 C149 1.409 . S
C147 H139 0.930 . S
C147 C148 1.355 . S
C147 C149 1.415 . S
C148 C147 1.355 . S
C148 C150 1.419 . S
C149 C144 1.425 . S
C149 C146 1.409 . S
C149 C147 1.415 . S
C150 H140 0.930 . S
C150 C148 1.419 . S
C150 C151 1.362 . S
C151 H141 0.930 . S
C151 C144 1.409 . S
C151 C150 1.362 . S
H152 C158 0.930 . S
H153 C161 0.930 . S
H154 C162 0.930 . S
H155 C163 0.930 . S
H156 C166 0.930 . S
H157 C167 0.930 . S
C158 H152 0.930 . S
C158 C159 1.355 . S
C158 C160 1.415 . S
C159 C158 1.355 . S
C159 C161 1.419 . S
C160 C158 1.415 . S
C160 C165 1.425 . S
C160 C167 1.409 . S
C161 H153 0.930 . S
C161 C159 1.419 . S
C161 C162 1.362 . S
C162 H154 0.930 . S
C162 C161 1.362 . S
C162 C165 1.409 . S
C163 H155 0.930 . S
C163 C164 1.355 . S
C163 C165 1.415 . S
C164 C163 1.355 . S
C164 C166 1.419 . S
C165 C160 1.425 . S
C165 C162 1.409 . S
C165 C163 1.415 . S
C166 H156 0.930 . S
C166 C164 1.419 . S
C166 C167 1.362 . S
C167 H157 0.930 . S
C167 C160 1.409 . S
C167 C166 1.362 . S
H168 C174 0.930 . S
H169 C177 0.930 . S
H170 C178 0.930 . S
H171 C179 0.930 . S
H172 C182 0.930 . S
H173 C183 0.930 . S
C174 H168 0.930 . S
C174 C175 1.355 . S
C174 C176 1.415 . S
C175 C174 1.355 . S
C175 C177 1.419 . S
C176 C174 1.415 . S
C176 C181 1.425 . S
C176 C183 1.409 . S
C177 H169 0.930 . S
C177 C175 1.419 . S
C177 C178 1.362 . S
C178 H170 0.930 . S
C178 C177 1.362 . S
C178 C181 1.409 . S
C179 H171 0.930 . S
C179 C180 1.355 . S
C179 C181 1.415 . S
C180 C179 1.355 . S
C180 C182 1.419 . S
C181 C176 1.425 . S
C181 C178 1.409 . S
C181 C179 1.415 . S
C182 H172 0.930 . S
C182 C180 1.419 . S
C182 C183 1.362 . S
C183 H173 0.930 . S
C183 C176 1.409 . S
C183 C182 1.362 . S
H184 C190 0.930 . S
H185 C193 0.930 . S
H186 C194 0.930 . S
H187 C195 0.930 . S
H188 C198 0.930 . S
H189 C199 0.930 . S
C190 H184 0.930 . S
C190 C191 1.355 . S
C190 C192 1.415 . S
C191 C190 1.355 . S
C191 C193 1.419 . S
C192 C190 1.415 . S
C192 C197 1.425 . S
C192 C199 1.409 . S
C193 H185 0.930 . S
C193 C191 1.419 . S
C193 C194 1.362 . S
C194 H186 0.930 . S
C194 C193 1.362 . S
C194 C197 1.409 . S
C195 H187 0.930 . S
C195 C196 1.355 . S
C195 C197 1.415 . S
C196 C195 1.355 . S
C196 C198 1.419 . S
C197 C192 1.425 . S
C197 C194 1.409 . S
C197 C195 1.415 . S
C198 H188 0.930 . S
C198 C196 1.419 . S
C198 C199 1.362 . S
C199 H189 0.930 . S
C199 C192 1.409 . S
C199 C198 1.362 . S
H200 C206 0.930 . S
H201 C209 0.930 . S
H202 C210 0.930 . S
H203 C211 0.930 . S
H204 C214 0.930 . S
H205 C215 0.930 . S
C206 H200 0.930 . S
C206 C207 1.355 . S
C206 C208 1.415 . S
C207 C206 1.355 . S
C207 C209 1.419 . S
C208 C206 1.415 . S
C208 C213 1.425 . S
C208 C215 1.409 . S
C209 H201 0.930 . S
C209 C207 1.419 . S
C209 C210 1.362 . S
C210 H202 0.930 . S
C210 C209 1.362 . S
C210 C213 1.409 . S
C211 H203 0.930 . S
C211 C212 1.355 . S
C211 C213 1.415 . S
C212 C211 1.355 . S
C212 C214 1.419 . S
C213 C208 1.425 . S
C213 C210 1.409 . S
C213 C211 1.415 . S
C214 H204 0.930 . S
C214 C212 1.419 . S
C214 C215 1.362 . S
C215 H205 0.930 . S
C215 C208 1.409 . S
C215 C214 1.362 . S
H216 C222 0.930 . S
H217 C225 0.930 . S
H218 C226 0.930 . S
H219 C227 0.930 . S
H220 C230 0.930 . S
H221 C231 0.930 . S
C222 H216 0.930 . S
C222 C223 1.355 . S
C222 C224 1.415 . S
C223 C222 1.355 . S
C223 C225 1.419 . S
C224 C222 1.415 . S
C224 C229 1.425 . S
C224 C231 1.409 . S
C225 H217 0.930 . S
C225 C223 1.419 . S
C225 C226 1.362 . S
C226 H218 0.930 . S
C226 C225 1.362 . S
C226 C229 1.409 . S
C227 H219 0.930 . S
C227 C228 1.355 . S
C227 C229 1.415 . S
C228 C227 1.355 . S
C228 C230 1.419 . S
C229 C224 1.425 . S
C229 C226 1.409 . S
C229 C227 1.415 . S
C230 H220 0.930 . S
C230 C228 1.419 . S
C230 C231 1.362 . S
C231 H221 0.930 . S
C231 C224 1.409 . S
C231 C230 1.362 . S
H232 C238 0.930 . S
H233 C241 0.930 . S
H234 C242 0.930 . S
H235 C243 0.930 . S
H236 C246 0.930 . S
H237 C247 0.930 . S
C238 H232 0.930 . S
C238 C239 1.355 . S
C238 C240 1.415 . S
C239 C238 1.355 . S
C239 C241 1.419 1_455 S
C240 C238 1.415 . S
C240 C245 1.425 1_455 S
C240 C247 1.409 . S
C241 H233 0.930 . S
C241 C239 1.419 1_655 S
C241 C242 1.362 . S
C242 H234 0.930 . S
C242 C241 1.362 . S
C242 C245 1.409 . S
C243 H235 0.930 . S
C243 C244 1.355 . S
C243 C245 1.415 . S
C244 C243 1.355 . S
C244 C246 1.419 1_655 S
C245 C240 1.425 1_655 S
C245 C242 1.409 . S
C245 C243 1.415 . S
C246 H236 0.930 . S
C246 C244 1.419 1_455 S
C246 C247 1.362 . S
C247 H237 0.930 . S
C247 C240 1.409 . S
C247 C246 1.362 . S
H248 C254 0.930 . S
H249 C257 0.930 . S
H250 C258 0.930 . S
H251 C259 0.930 . S
H252 C262 0.930 . S
H253 C263 0.930 . S
C254 H248 0.930 . S
C254 C255 1.355 1_565 S
C254 C256 1.415 . S
C255 C254 1.355 1_545 S
C255 C257 1.419 . S
C256 C254 1.415 . S
C256 C261 1.425 1_565 S
C256 C263 1.409 . S
C257 H249 0.930 . S
C257 C255 1.419 . S
C257 C258 1.362 . S
C258 H250 0.930 . S
C258 C257 1.362 . S
C258 C261 1.409 . S
C259 H251 0.930 . S
C259 C260 1.355 1_545 S
C259 C261 1.415 . S
C260 C259 1.355 1_565 S
C260 C262 1.419 . S
C261 C256 1.425 1_545 S
C261 C258 1.409 . S
C261 C259 1.415 . S
C262 H252 0.930 . S
C262 C260 1.419 . S
C262 C263 1.362 . S
C263 H253 0.930 . S
C263 C256 1.409 . S
C263 C262 1.362 . S
H264 C270 0.930 . S
H265 C273 0.930 . S
H266 C274 0.930 . S
H267 C275 0.930 . S
H268 C278 0.930 . S
H269 C279 0.930 . S
C270 H264 0.930 . S
C270 C271 1.355 . S
C270 C272 1.415 . S
C271 C270 1.355 . S
C271 C273 1.419 . S
C272 C270 1.415 . S
C272 C277 1.425 . S
C272 C279 1.409 . S
C273 H265 0.930 . S
C273 C271 1.419 . S
C273 C274 1.362 . S
C274 H266 0.930 . S
C274 C273 1.362 . S
C274 C277 1.409 . S
C275 H267 0.930 . S
C275 C276 1.355 . S
C275 C277 1.415 . S
C276 C275 1.355 . S
C276 C278 1.419 . S
C277 C272 1.425 . S
C277 C274 1.409 . S
C277 C275 1.415 . S
C278 H268 0.930 . S
C278 C276 1.419 . S
C278 C279 1.362 . S
C279 H269 0.930 . S
C279 C272 1.409 . S
C279 C278 1.362 . S
H280 C286 0.930 . S
H281 C289 0.930 . S
H282 C290 0.930 . S
H283 C291 0.930 . S
H284 C294 0.930 . S
H285 C295 0.930 . S
C286 H280 0.930 . S
C286 C287 1.355 1_556 S
C286 C288 1.415 . S
C287 C286 1.355 1_554 S
C287 C289 1.419 . S
C288 C286 1.415 . S
C288 C293 1.425 1_456 S
C288 C295 1.409 . S
C289 H281 0.930 . S
C289 C287 1.419 . S
C289 C290 1.362 1_455 S
C290 H282 0.930 . S
C290 C289 1.362 1_655 S
C290 C293 1.409 . S
C291 H283 0.930 . S
C291 C292 1.355 1_554 S
C291 C293 1.415 . S
C292 C291 1.355 1_556 S
C292 C294 1.419 . S
C293 C288 1.425 1_654 S
C293 C290 1.409 . S
C293 C291 1.415 . S
C294 H284 0.930 . S
C294 C292 1.419 . S
C294 C295 1.362 1_655 S
C295 H285 0.930 . S
C295 C288 1.409 . S
C295 C294 1.362 1_455 S
H296 C302 0.930 . S
H297 C305 0.930 . S
H298 C306 0.930 . S
H299 C307 0.930 . S
H300 C310 0.930 . S
H301 C311 0.930 . S
C302 H296 0.930 . S
C302 C303 1.355 1_545 S
C302 C304 1.415 . S
C303 C302 1.355 1_565 S
C303 C305 1.419 . S
C304 C302 1.415 . S
C304 C309 1.425 1_545 S
C304 C311 1.409 . S
C305 H297 0.930 . S
C305 C303 1.419 . S
C305 C306 1.362 . S
C306 H298 0.930 . S
C306 C305 1.362 . S
C306 C309 1.409 . S
C307 H299 0.930 . S
C307 C308 1.355 1_565 S
C307 C309 1.415 . S
C308 C307 1.355 1_545 S
C308 C310 1.419 . S
C309 C304 1.425 1_565 S
C309 C306 1.409 . S
C309 C307 1.415 . S
C310 H300 0.930 . S
C310 C308 1.419 . S
C310 C311 1.362 . S
C311 H301 0.930 . S
C311 C304 1.409 . S
C311 C310 1.362 . S
H312 C318 0.930 . S
H313 C321 0.930 . S
H314 C322 0.930 . S
H315 C323 0.930 . S
H316 C326 0.930 . S
H317 C327 0.930 . S
C318 H312 0.930 . S
C318 C319 1.355 . S
C318 C320 1.415 . S
C319 C318 1.355 . S
C319 C321 1.419 . S
C320 C318 1.415 . S
C320 C325 1.425 . S
C320 C327 1.409 . S
C321 H313 0.930 . S
C321 C319 1.419 . S
C321 C322 1.362 . S
C322 H314 0.930 . S
C322 C321 1.362 . S
C322 C325 1.409 . S
C323 H315 0.930 . S
C323 C324 1.355 . S
C323 C325 1.415 . S
C324 C323 1.355 . S
C324 C326 1.419 . S
C325 C320 1.425 . S
C325 C322 1.409 . S
C325 C323 1.415 . S
C326 H316 0.930 . S
C326 C324 1.419 . S
C326 C327 1.362 . S
C327 H317 0.930 . S
C327 C320 1.409 . S
C327 C326 1.362 . S
H328 C334 0.930 . S
H329 C337 0.930 . S
H330 C338 0.930 . S
H331 C339 0.930 . S
H332 C342 0.930 . S
H333 C343 0.930 . S
C334 H328 0.930 . S
C334 C335 1.355 . S
C334 C336 1.415 . S
C335 C334 1.355 . S
C335 C337 1.419 1_655 S
C336 C334 1.415 . S
C336 C341 1.425 1_655 S
C336 C343 1.409 . S
C337 H329 0.930 . S
C337 C335 1.419 1_455 S
C337 C338 1.362 . S
C338 H330 0.930 . S
C338 C337 1.362 . S
C338 C341 1.409 . S
C339 H331 0.930 . S
C339 C340 1.355 . S
C339 C341 1.415 . S
C340 C339 1.355 . S
C340 C342 1.419 . S
C341 C336 1.425 1_455 S
C341 C338 1.409 . S
C341 C339 1.415 . S
C342 H332 0.930 . S
C342 C340 1.419 . S
C342 C343 1.362 1_455 S
C343 H333 0.930 . S
C343 C336 1.409 . S
C343 C342 1.362 1_655 S
H344 C350 0.930 . S
H345 C353 0.930 . S
H346 C354 0.930 . S
H347 C355 0.930 . S
H348 C358 0.930 . S
H349 C359 0.930 1_565 S
C350 H344 0.930 . S
C350 C351 1.355 . S
C350 C352 1.418 . S
C351 C350 1.355 . S
C351 C353 1.419 . S
C352 C350 1.418 . S
C352 C357 1.424 1_565 S
C352 C359 1.407 1_565 S
C353 H345 0.930 . S
C353 C351 1.419 . S
C353 C354 1.362 1_565 S
C354 H346 0.930 . S
C354 C353 1.362 1_545 S
C354 C357 1.409 . S
C355 H347 0.930 . S
C355 C356 1.355 . S
C355 C357 1.415 . S
C356 C355 1.355 . S
C356 C358 1.419 . S
C357 C352 1.424 1_545 S
C357 C354 1.409 . S
C357 C355 1.415 . S
C358 H348 0.930 . S
C358 C356 1.419 . S
C358 C359 1.362 . S
C359 H349 0.930 1_545 S
C359 C352 1.407 1_545 S
C359 C358 1.362 . S
H360 C366 0.930 . S
H361 C369 0.930 . S
H362 C370 0.930 . S
H363 C371 0.930 . S
H364 C374 0.930 . S
H365 C375 0.930 . S
C366 H360 0.930 . S
C366 C367 1.355 . S
C366 C368 1.415 . S
C367 C366 1.355 . S
C367 C369 1.419 . S
C368 C366 1.415 . S
C368 C373 1.425 . S
C368 C375 1.409 . S
C369 H361 0.930 . S
C369 C367 1.419 . S
C369 C370 1.362 . S
C370 H362 0.930 . S
C370 C369 1.362 . S
C370 C373 1.409 . S
C371 H363 0.930 . S
C371 C372 1.355 . S
C371 C373 1.415 . S
C372 C371 1.355 . S
C372 C374 1.419 . S
C373 C368 1.425 . S
C373 C370 1.409 . S
C373 C371 1.415 . S
C374 H364 0.930 . S
C374 C372 1.419 . S
C374 C375 1.362 . S
C375 H365 0.930 . S
C375 C368 1.409 . S
C375 C374 1.362 . S
H376 C382 0.930 . S
H377 C385 0.930 . S
H378 C386 0.930 . S
H379 C387 0.930 . S
H380 C390 0.930 . S
H381 C391 0.930 . S
C382 H376 0.930 . S
C382 C383 1.355 1_655 S
C382 C384 1.415 . S
C383 C382 1.355 1_455 S
C383 C385 1.419 . S
C384 C382 1.415 . S
C384 C389 1.425 . S
C384 C391 1.409 . S
C385 H377 0.930 . S
C385 C383 1.419 . S
C385 C386 1.362 . S
C386 H378 0.930 . S
C386 C385 1.362 . S
C386 C389 1.409 1_455 S
C387 H379 0.930 . S
C387 C388 1.355 . S
C387 C389 1.415 . S
C388 C387 1.355 . S
C388 C390 1.419 . S
C389 C384 1.425 . S
C389 C386 1.409 1_655 S
C389 C387 1.415 . S
C390 H380 0.930 . S
C390 C388 1.419 . S
C390 C391 1.362 . S
C391 H381 0.930 . S
C391 C384 1.409 . S
C391 C390 1.362 . S
H392 C398 0.930 . S
H393 C401 0.930 . S
H394 C402 0.930 . S
H395 C403 0.930 . S
H396 C406 0.930 . S
H397 C407 0.930 . S
C398 H392 0.930 . S
C398 C399 1.355 1_565 S
C398 C400 1.415 . S
C399 C398 1.355 1_545 S
C399 C401 1.419 . S
C400 C398 1.415 . S
C400 C405 1.425 . S
C400 C407 1.409 . S
C401 H393 0.930 . S
C401 C399 1.419 . S
C401 C402 1.362 . S
C402 H394 0.930 . S
C402 C401 1.362 . S
C402 C405 1.409 1_545 S
C403 H395 0.930 . S
C403 C404 1.355 . S
C403 C405 1.415 . S
C404 C403 1.355 . S
C404 C406 1.419 . S
C405 C400 1.425 . S
C405 C402 1.409 1_565 S
C405 C403 1.415 . S
C406 H396 0.930 . S
C406 C404 1.419 . S
C406 C407 1.362 . S
C407 H397 0.930 . S
C407 C400 1.409 . S
C407 C406 1.362 . S
C127 C99 1.248 . S
C132 C2 1.247 . S
C143 C119 1.241 . S
C148 C22 1.265 . S
C159 C19 1.269 . S
C164 C42 1.234 . S
C175 C39 1.248 . S
C180 C62 1.269 . S
C191 C59 1.246 . S
C196 C82 1.270 . S
C207 C79 1.244 . S
C212 C102 1.271 . S
C223 C8 0.956 . S
C228 C68 0.955 . S
C239 C88 0.919 . S
C244 C28 0.915 . S
C255 C108 0.764 . S
C260 C48 0.767 . S
C271 C49 0.921 . S
C276 C109 0.925 . S
C287 C9 0.943 . S
C292 C69 0.932 1_556 S
C303 C89 0.912 . S
C308 C29 0.914 . S
C319 C118 1.322 . S
C324 C1 1.335 . S
C335 C21 1.303 . S
C340 C18 1.328 . S
C351 C41 1.323 . S
C356 C38 1.321 . S
C367 C58 1.324 . S
C372 C61 1.310 . S
C383 C81 1.323 . S
C388 C78 1.330 . S
C399 C101 1.321 . S
C404 C98 1.330 . S
