# Generated by pormake.
# Topology unv, (4)-cn, num edge types: 1
# Building blocks:
#     Node 0, Type 0, BuildingBlock: GALJAG_clean_sbu_0, # of connection points: 4
#     Node 1, Type 0, BuildingBlock: GALJAG_clean_sbu_0, # of connection points: 4
#     Node 2, Type 0, BuildingBlock: GALJAG_clean_sbu_0, # of connection points: 4
#     Node 3, Type 0, BuildingBlock: GALJAG_clean_sbu_0, # of connection points: 4
#     Node 4, Type 0, BuildingBlock: GALJAG_clean_sbu_0, # of connection points: 4
#     Node 5, Type 0, BuildingBlock: GALJAG_clean_sbu_0, # of connection points: 4
#     Node 6, Type 0, BuildingBlock: GALJAG_clean_sbu_0, # of connection points: 4
#     Node 7, Type 0, BuildingBlock: GALJAG_clean_sbu_0, # of connection points: 4
#     Node 8, Type 0, BuildingBlock: GALJAG_clean_sbu_0, # of connection points: 4
#     Node 9, Type 0, BuildingBlock: GALJAG_clean_sbu_0, # of connection points: 4
#     Node 10, Type 0, BuildingBlock: GALJAG_clean_sbu_0, # of connection points: 4
#     Node 11, Type 0, BuildingBlock: GALJAG_clean_sbu_0, # of connection points: 4
#     Node 12, Type 0, BuildingBlock: GALJAG_clean_sbu_0, # of connection points: 4
#     Node 13, Type 0, BuildingBlock: GALJAG_clean_sbu_0, # of connection points: 4
#     Node 14, Type 0, BuildingBlock: GALJAG_clean_sbu_0, # of connection points: 4
#     Node 15, Type 0, BuildingBlock: GALJAG_clean_sbu_0, # of connection points: 4
#     Node 16, Type 0, BuildingBlock: GALJAG_clean_sbu_0, # of connection points: 4
#     Node 17, Type 0, BuildingBlock: GALJAG_clean_sbu_0, # of connection points: 4
#     Node 18, Type 0, BuildingBlock: GALJAG_clean_sbu_0, # of connection points: 4
#     Node 19, Type 0, BuildingBlock: GALJAG_clean_sbu_0, # of connection points: 4
#     Node 20, Type 0, BuildingBlock: GALJAG_clean_sbu_0, # of connection points: 4
#     Node 21, Type 0, BuildingBlock: GALJAG_clean_sbu_0, # of connection points: 4
#     Node 22, Type 0, BuildingBlock: GALJAG_clean_sbu_0, # of connection points: 4
#     Node 23, Type 0, BuildingBlock: GALJAG_clean_sbu_0, # of connection points: 4
#     Edge 24, Type (0, 0), BuildingBlock: OJICUG_clean_linker_0, # of connection points: 2
#     Edge 25, Type (0, 0), BuildingBlock: OJICUG_clean_linker_0, # of connection points: 2
#     Edge 26, Type (0, 0), BuildingBlock: OJICUG_clean_linker_0, # of connection points: 2
#     Edge 27, Type (0, 0), BuildingBlock: OJICUG_clean_linker_0, # of connection points: 2
#     Edge 28, Type (0, 0), BuildingBlock: OJICUG_clean_linker_0, # of connection points: 2
#     Edge 29, Type (0, 0), BuildingBlock: OJICUG_clean_linker_0, # of connection points: 2
#     Edge 30, Type (0, 0), BuildingBlock: OJICUG_clean_linker_0, # of connection points: 2
#     Edge 31, Type (0, 0), BuildingBlock: OJICUG_clean_linker_0, # of connection points: 2
#     Edge 32, Type (0, 0), BuildingBlock: OJICUG_clean_linker_0, # of connection points: 2
#     Edge 33, Type (0, 0), BuildingBlock: OJICUG_clean_linker_0, # of connection points: 2
#     Edge 34, Type (0, 0), BuildingBlock: OJICUG_clean_linker_0, # of connection points: 2
#     Edge 35, Type (0, 0), BuildingBlock: OJICUG_clean_linker_0, # of connection points: 2
#     Edge 36, Type (0, 0), BuildingBlock: OJICUG_clean_linker_0, # of connection points: 2
#     Edge 37, Type (0, 0), BuildingBlock: OJICUG_clean_linker_0, # of connection points: 2
#     Edge 38, Type (0, 0), BuildingBlock: OJICUG_clean_linker_0, # of connection points: 2
#     Edge 39, Type (0, 0), BuildingBlock: OJICUG_clean_linker_0, # of connection points: 2
#     Edge 40, Type (0, 0), BuildingBlock: OJICUG_clean_linker_0, # of connection points: 2
#     Edge 41, Type (0, 0), BuildingBlock: OJICUG_clean_linker_0, # of connection points: 2
#     Edge 42, Type (0, 0), BuildingBlock: OJICUG_clean_linker_0, # of connection points: 2
#     Edge 43, Type (0, 0), BuildingBlock: OJICUG_clean_linker_0, # of connection points: 2
#     Edge 44, Type (0, 0), BuildingBlock: OJICUG_clean_linker_0, # of connection points: 2
#     Edge 45, Type (0, 0), BuildingBlock: OJICUG_clean_linker_0, # of connection points: 2
#     Edge 46, Type (0, 0), BuildingBlock: OJICUG_clean_linker_0, # of connection points: 2
#     Edge 47, Type (0, 0), BuildingBlock: OJICUG_clean_linker_0, # of connection points: 2
#     Edge 48, Type (0, 0), BuildingBlock: OJICUG_clean_linker_0, # of connection points: 2
#     Edge 49, Type (0, 0), BuildingBlock: OJICUG_clean_linker_0, # of connection points: 2
#     Edge 50, Type (0, 0), BuildingBlock: OJICUG_clean_linker_0, # of connection points: 2
#     Edge 51, Type (0, 0), BuildingBlock: OJICUG_clean_linker_0, # of connection points: 2
#     Edge 52, Type (0, 0), BuildingBlock: OJICUG_clean_linker_0, # of connection points: 2
#     Edge 53, Type (0, 0), BuildingBlock: OJICUG_clean_linker_0, # of connection points: 2
#     Edge 54, Type (0, 0), BuildingBlock: OJICUG_clean_linker_0, # of connection points: 2
#     Edge 55, Type (0, 0), BuildingBlock: OJICUG_clean_linker_0, # of connection points: 2
#     Edge 56, Type (0, 0), BuildingBlock: OJICUG_clean_linker_0, # of connection points: 2
#     Edge 57, Type (0, 0), BuildingBlock: OJICUG_clean_linker_0, # of connection points: 2
#     Edge 58, Type (0, 0), BuildingBlock: OJICUG_clean_linker_0, # of connection points: 2
#     Edge 59, Type (0, 0), BuildingBlock: OJICUG_clean_linker_0, # of connection points: 2
#     Edge 60, Type (0, 0), BuildingBlock: OJICUG_clean_linker_0, # of connection points: 2
#     Edge 61, Type (0, 0), BuildingBlock: OJICUG_clean_linker_0, # of connection points: 2
#     Edge 62, Type (0, 0), BuildingBlock: OJICUG_clean_linker_0, # of connection points: 2
#     Edge 63, Type (0, 0), BuildingBlock: OJICUG_clean_linker_0, # of connection points: 2
#     Edge 64, Type (0, 0), BuildingBlock: OJICUG_clean_linker_0, # of connection points: 2
#     Edge 65, Type (0, 0), BuildingBlock: OJICUG_clean_linker_0, # of connection points: 2
#     Edge 66, Type (0, 0), BuildingBlock: OJICUG_clean_linker_0, # of connection points: 2
#     Edge 67, Type (0, 0), BuildingBlock: OJICUG_clean_linker_0, # of connection points: 2
#     Edge 68, Type (0, 0), BuildingBlock: OJICUG_clean_linker_0, # of connection points: 2
#     Edge 69, Type (0, 0), BuildingBlock: OJICUG_clean_linker_0, # of connection points: 2
#     Edge 70, Type (0, 0), BuildingBlock: OJICUG_clean_linker_0, # of connection points: 2
#     Edge 71, Type (0, 0), BuildingBlock: OJICUG_clean_linker_0, # of connection points: 2
# Relax obj value: 0.403
# Max RMSD: 0.239
# Mean RMSD: 0.210
data_MOF--net-unv--node1-GALJAG_clean_sbu_0--edge1-OJICUG_clean_linker_0
_symmetry_space_group_name_H-M    P1
_symmetry_Int_Tables_number       1
_symmetry_cell_setting            triclinic
loop_
_symmetry_equiv_pos_as_xyz
'x, y, z'
_cell_length_a     35.643761
_cell_length_b     35.621119
_cell_length_c     35.612688
_cell_angle_alpha  89.971303
_cell_angle_beta   90.010116
_cell_angle_gamma 90.048309
loop_
_atom_site_label
_atom_site_type_symbol
_atom_site_fract_x
_atom_site_fract_y
_atom_site_fract_z
_atom_type_partial_charge
In0 In 0.03224 0.09607 0.36879 0.0
O1 O 0.06884 0.06099 0.32892 0.0
O2 O 0.01278 0.07426 0.31294 0.0
C3 C 0.07708 0.09601 0.42987 0.0
C4 C 0.02123 0.16722 0.34506 0.0
C5 C 0.97962 0.04861 0.39505 0.0
O6 O 0.08906 0.08728 0.39764 0.0
O7 O 0.04332 0.10646 0.43063 0.0
O8 O 0.9767 0.08368 0.39971 0.0
O9 O 0.0089 0.03814 0.3784 0.0
C10 C 0.0424 0.0563 0.30566 0.0
O11 O 0.99489 0.14588 0.35524 0.0
O12 O 0.05349 0.15276 0.34692 0.0
In13 In 0.98171 0.39742 0.3395 0.0
O14 O 0.02025 0.34853 0.32309 0.0
O15 O 0.96207 0.33769 0.32821 0.0
C16 C 0.04194 0.44327 0.34536 0.0
C17 C 0.94138 0.43949 0.29109 0.0
C18 C 0.94924 0.39554 0.40796 0.0
O19 O 0.0335 0.41924 0.36997 0.0
O20 O 0.02159 0.44233 0.31644 0.0
O21 O 0.93033 0.39393 0.37803 0.0
O22 O 0.98414 0.39805 0.40318 0.0
C23 C 0.9943 0.32448 0.32247 0.0
O24 O 0.94271 0.44611 0.32589 0.0
O25 O 0.95907 0.41044 0.28088 0.0
In26 In 0.01997 0.90458 0.13072 0.0
O27 O 0.97755 0.8574 0.1386 0.0
O28 O 0.03501 0.84492 0.14843 0.0
C29 C 0.97355 0.96021 0.10949 0.0
C30 C 0.03566 0.93719 0.19677 0.0
C31 C 0.06389 0.90386 0.06902 0.0
O32 O 0.96562 0.92619 0.10319 0.0
O33 O 0.00446 0.96563 0.12563 0.0
O34 O 0.07722 0.90807 0.10163 0.0
O35 O 0.02901 0.8982 0.06804 0.0
C36 C 0.00161 0.83311 0.1477 0.0
O37 O 0.06055 0.93294 0.17181 0.0
O38 O 0.00446 0.92207 0.18939 0.0
In39 In 0.95616 0.60356 0.13281 0.0
O40 O 0.92955 0.54763 0.14779 0.0
O41 O 0.93415 0.5881 0.19135 0.0
C42 C 0.91804 0.60331 0.06718 0.0
C43 C 0.96678 0.6758 0.15353 0.0
C44 C 0.02126 0.5665 0.12124 0.0
O45 O 0.90206 0.59718 0.09826 0.0
O46 O 0.95254 0.61063 0.06964 0.0
O47 O 0.00572 0.58621 0.0963 0.0
O48 O 0.00493 0.56691 0.1526 0.0
C49 C 0.92516 0.55498 0.18214 0.0
O50 O 0.99273 0.65188 0.15293 0.0
O51 O 0.93483 0.66296 0.1453 0.0
In52 In 0.36713 0.02643 0.10354 0.0
O53 O 0.34621 0.98663 0.14898 0.0
O54 O 0.35288 0.04391 0.16373 0.0
C55 C 0.3796 0.96403 0.06234 0.0
C56 C 0.3172 0.06133 0.05849 0.0
C57 C 0.43275 0.06467 0.10462 0.0
O58 O 0.40359 0.97754 0.08455 0.0
O59 O 0.34854 0.9809 0.06228 0.0
O60 O 0.40165 0.08074 0.09916 0.0
O61 O 0.43028 0.03006 0.11138 0.0
C62 C 0.34414 0.01123 0.17425 0.0
O63 O 0.35102 0.05617 0.04948 0.0
O64 O 0.30881 0.05039 0.09122 0.0
In65 In 0.64935 0.45129 0.08645 0.0
O66 O 0.6799 0.40755 0.0517 0.0
O67 O 0.71283 0.44892 0.07952 0.0
C68 C 0.58263 0.41546 0.08628 0.0
C69 C 0.66118 0.46619 0.15962 0.0
C70 C 0.63768 0.50419 0.03313 0.0
O71 O 0.61335 0.39788 0.08509 0.0
O72 O 0.58584 0.45062 0.08793 0.0
O73 O 0.6294 0.50968 0.06717 0.0
O74 O 0.65215 0.47272 0.0265 0.0
C75 C 0.71203 0.42153 0.05694 0.0
O76 O 0.66279 0.4913 0.13463 0.0
O77 O 0.6555 0.43343 0.14739 0.0
In78 In 0.35434 0.95625 0.40208 0.0
O79 O 0.33773 -0.00291 0.35581 0.0
O80 O 0.3417 0.93948 0.34138 0.0
C81 C 0.36252 0.0161 0.44797 0.0
C82 C 0.30397 0.91891 0.44449 0.0
C83 C 0.42138 0.92101 0.40174 0.0
O84 O 0.38814 0.00473 0.42643 0.0
O85 O 0.33191 -0.00127 0.44476 0.0
O86 O 0.39084 0.90323 0.4048 0.0
O87 O 0.41768 0.95587 0.39716 0.0
C88 C 0.33568 0.97261 0.3304 0.0
O89 O 0.33844 0.92051 0.45238 0.0
O90 O 0.29521 0.93411 0.41359 0.0
In91 In 0.62024 0.51677 0.38733 0.0
O92 O 0.66282 0.55127 0.4212 0.0
O93 O 0.67745 0.49591 0.40423 0.0
C94 C 0.56296 0.56643 0.38693 0.0
C95 C 0.63961 0.50135 0.31578 0.0
C96 C 0.59366 0.46722 0.43795 0.0
O97 O 0.59629 0.57604 0.39424 0.0
O98 O 0.55903 0.53234 0.37832 0.0
O99 O 0.61185 0.49622 0.44653 0.0
O100 O 0.58751 0.46315 0.40323 0.0
C101 C 0.68626 0.52467 0.42295 0.0
O102 O 0.62808 0.47672 0.33845 0.0
O103 O 0.6412 0.53417 0.32907 0.0
In104 In 0.10023 0.37723 0.02582 0.0
O105 O 0.0833 0.32034 0.05035 0.0
O106 O 0.04166 0.36274 0.04603 0.0
C107 C 0.10061 0.44105 0.06655 0.0
C108 C 0.17039 0.35072 0.01571 0.0
C109 C 0.06499 0.3915 0.96044 0.0
O110 O 0.09274 0.40953 0.08074 0.0
O111 O 0.11038 0.43983 0.03257 0.0
O112 O 0.06648 0.35911 0.97465 0.0
O113 O 0.08335 0.41618 0.97804 0.0
C114 C 0.04923 0.32925 0.05447 0.0
O115 O 0.14769 0.3558 0.98912 0.0
O116 O 0.15775 0.35895 0.04772 0.0
In117 In 0.0899 0.63769 0.45208 0.0
O118 O 0.05855 0.68259 0.41796 0.0
O119 O 0.06611 0.69012 0.47695 0.0
C120 C 0.09778 0.57804 0.4064 0.0
C121 C 0.16028 0.65965 0.4679 0.0
C122 C 0.03564 0.60841 0.49535 0.0
O123 O 0.08675 0.60958 0.39429 0.0
O124 O 0.10626 0.5775 0.44078 0.0
O125 O 0.06912 0.61088 0.50702 0.0
O126 O 0.03049 0.61911 0.46201 0.0
C127 C 0.05116 0.70168 0.44703 0.0
O128 O 0.13884 0.64488 0.49197 0.0
O129 O 0.14608 0.66369 0.43563 0.0
In130 In 0.89473 0.86436 0.50367 0.0
O131 O 0.84407 0.85226 0.54137 0.0
O132 O 0.83584 0.85097 0.48252 0.0
C133 C 0.94193 0.87801 0.56166 0.0
C134 C 0.93356 0.8081 0.47165 0.0
C135 C 0.9006 0.92747 0.46246 0.0
O136 O 0.91801 0.90157 0.55055 0.0
O137 O 0.94023 0.84677 0.54527 0.0
O138 O 0.90199 0.89505 0.44823 0.0
O139 O 0.89436 0.92805 0.49731 0.0
C140 C 0.82148 0.84748 0.5146 0.0
O141 O 0.93679 0.84174 0.461 0.0
O142 O 0.90958 0.80281 0.49729 0.0
In143 In 0.38968 0.64974 0.50941 0.0
O144 O 0.34222 0.67348 0.47293 0.0
O145 O 0.33008 0.65894 0.52942 0.0
C146 C 0.4377 0.6408 0.45099 0.0
C147 C 0.42747 0.70052 0.55063 0.0
C148 C 0.38552 0.57987 0.53848 0.0
O149 O 0.40601 0.62507 0.45221 0.0
O150 O 0.44397 0.66282 0.47788 0.0
O151 O 0.38661 0.60874 0.55899 0.0
O152 O 0.3866 0.58643 0.50379 0.0
C153 C 0.31776 0.67058 0.49841 0.0
O154 O 0.4333 0.66563 0.55319 0.0
O155 O 0.40145 0.7097 0.52825 0.0
In156 In 0.52391 0.58506 0.84917 0.0
O157 O 0.48554 0.63554 0.84676 0.0
O158 O 0.5438 0.64488 0.83738 0.0
C159 C 0.4725 0.5331 0.86868 0.0
C160 C 0.5329 0.55873 0.7792 0.0
C161 C 0.57142 0.57749 0.90761 0.0
O162 O 0.46947 0.56693 0.87882 0.0
O163 O 0.50119 0.52591 0.84949 0.0
O164 O 0.58177 0.57243 0.87406 0.0
O165 O 0.53782 0.58779 0.91126 0.0
C166 C 0.51131 0.65884 0.83991 0.0
O167 O 0.55795 0.55471 0.80404 0.0
O168 O 0.50542 0.5788 0.78902 0.0
In169 In 0.47207 0.88979 0.86655 0.0
O170 O 0.45165 0.83012 0.85604 0.0
O171 O 0.50922 0.84162 0.84642 0.0
C172 C 0.53486 0.93128 0.87604 0.0
C173 C 0.43508 0.93308 0.81671 0.0
C174 C 0.43537 0.89113 0.93279 0.0
O175 O 0.5167 0.93095 0.84567 0.0
O176 O 0.52257 0.90906 0.9007 0.0
O177 O 0.41863 0.89462 0.90176 0.0
O178 O 0.47016 0.88548 0.93014 0.0
C179 C 0.48333 0.81754 0.84674 0.0
O180 O 0.44836 0.90135 0.80798 0.0
O181 O 0.43951 0.94214 0.85065 0.0
In182 In 0.47941 0.39203 0.62217 0.0
O183 O 0.44185 0.34085 0.6324 0.0
O184 O 0.49763 0.33816 0.65213 0.0
C185 C 0.42436 0.43654 0.59577 0.0
C186 C 0.50345 0.44257 0.67292 0.0
C187 C 0.52523 0.39376 0.56208 0.0
O188 O 0.42947 0.43101 0.63038 0.0
O189 O 0.445 0.41716 0.57453 0.0
O190 O 0.53547 0.40372 0.59451 0.0
O191 O 0.49227 0.38088 0.56031 0.0
C192 C 0.46658 0.32177 0.64877 0.0
O193 O 0.52627 0.42389 0.65332 0.0
O194 O 0.46946 0.4338 0.66867 0.0
In195 In 0.44754 0.08928 0.65025 0.0
O196 O 0.47846 0.14216 0.66889 0.0
O197 O 0.41998 0.14632 0.65868 0.0
C198 C 0.51375 0.05368 0.63965 0.0
C199 C 0.41812 0.04364 0.70286 0.0
C200 C 0.41162 0.08326 0.58392 0.0
O201 O 0.49943 0.07521 0.61553 0.0
O202 O 0.49604 0.0522 0.67019 0.0
O203 O 0.39517 0.07725 0.61478 0.0
O204 O 0.44544 0.09308 0.58691 0.0
C205 C 0.44995 0.16301 0.66727 0.0
O206 O 0.41951 0.03502 0.66852 0.0
O207 O 0.42952 0.07642 0.71038 0.0
In208 In 0.85316 0.49631 0.5868 0.0
O209 O 0.81516 0.53712 0.55429 0.0
O210 O 0.80055 0.47917 0.55625 0.0
C211 C 0.90985 0.54423 0.57252 0.0
C212 C 0.83512 0.48935 0.66051 0.0
C213 C 0.88232 0.43965 0.54568 0.0
O214 O 0.87684 0.54956 0.56082 0.0
O215 O 0.91379 0.51578 0.59326 0.0
O216 O 0.90193 0.45932 0.56761 0.0
O217 O 0.84771 0.44647 0.54703 0.0
C218 C 0.79361 0.51128 0.54299 0.0
O219 O 0.84419 0.46193 0.64023 0.0
O220 O 0.83427 0.52032 0.64352 0.0
In221 In 0.14951 0.96768 0.60473 0.0
O222 O 0.17241 0.00733 0.64968 0.0
O223 O 0.16565 0.95002 0.6642 0.0
C224 C 0.13898 0.02813 0.55986 0.0
C225 C 0.1954 0.92774 0.55978 0.0
C226 C 0.08217 0.93352 0.61178 0.0
O227 O 0.11552 0.01787 0.58427 0.0
O228 O 0.16885 0.00925 0.55952 0.0
O229 O 0.11199 0.91538 0.60583 0.0
O230 O 0.08668 0.96841 0.61516 0.0
C231 C 0.1747 0.98252 0.67482 0.0
O232 O 0.16098 0.93234 0.55289 0.0
O233 O 0.20641 0.94192 0.59042 0.0
In234 In 0.8636 0.47227 0.89299 0.0
O235 O 0.84165 0.50536 0.8423 0.0
O236 O 0.84811 0.44654 0.83656 0.0
C237 C 0.86742 0.53686 0.93241 0.0
C238 C 0.82219 0.4339 0.94341 0.0
C239 C 0.93273 0.44168 0.89042 0.0
O240 O 0.83787 0.5174 0.93074 0.0
O241 O 0.89371 0.52536 0.91168 0.0
O242 O 0.90348 0.42222 0.89495 0.0
O243 O 0.92687 0.47627 0.88589 0.0
C244 C 0.8394 0.47711 0.82111 0.0
O245 O 0.85585 0.44313 0.94916 0.0
O246 O 0.80963 0.44274 0.91139 0.0
In247 In 0.15102 0.03448 0.90182 0.0
O248 O 0.16875 0.06442 0.95533 0.0
O249 O 0.21095 0.05325 0.91464 0.0
C250 C 0.08822 0.07695 0.89731 0.0
C251 C 0.17461 0.0188 0.8314 0.0
C252 C 0.13294 0.97356 0.94363 0.0
O253 O 0.1198 0.09081 0.90546 0.0
O254 O 0.0888 0.04229 0.89046 0.0
O255 O 0.11121 0.98746 0.91944 0.0
O256 O 0.1646 0.98917 0.94543 0.0
C257 C 0.2031 0.06596 0.94684 0.0
O258 O 0.17049 0.99395 0.85625 0.0
O259 O 0.16793 0.05178 0.84236 0.0
In260 In 0.5887 0.86101 0.54199 0.0
O261 O 0.63988 0.8453 0.50711 0.0
O262 O 0.64646 0.84709 0.56622 0.0
C263 C 0.5518 0.87132 0.47653 0.0
C264 C 0.53995 0.81115 0.57145 0.0
C265 C 0.58652 0.92589 0.58099 0.0
O266 O 0.55428 0.83966 0.49215 0.0
O267 O 0.5699 0.89712 0.49268 0.0
O268 O 0.58218 0.89432 0.59656 0.0
O269 O 0.59306 0.92442 0.54625 0.0
C270 C 0.66174 0.84212 0.5347 0.0
O271 O 0.53274 0.84563 0.56809 0.0
O272 O 0.57293 0.80202 0.56208 0.0
In273 In 0.60169 0.12931 0.96755 0.0
O274 O 0.58494 0.18629 0.94347 0.0
O275 O 0.54532 0.14172 0.94071 0.0
C276 C 0.60356 0.06357 0.92996 0.0
C277 C 0.67278 0.15472 0.97536 0.0
C278 C 0.56333 0.11867 0.0322 0.0
O279 O 0.59628 0.09436 0.91402 0.0
O280 O 0.61139 0.06632 0.96436 0.0
O281 O 0.56425 0.14984 0.01547 0.0
O282 O 0.58381 0.0937 0.01772 0.0
C283 C 0.5522 0.1759 0.93458 0.0
O284 O 0.65089 0.15034 0.00279 0.0
O285 O 0.65867 0.14685 0.9439 0.0
In286 In 0.39938 0.34198 0.9734 0.0
O287 O 0.44709 0.32191 0.93661 0.0
O288 O 0.40979 0.28054 0.95831 0.0
C289 C 0.40158 0.40522 0.93207 0.0
C290 C 0.32666 0.32698 0.98759 0.0
C291 C 0.44537 0.35605 0.03205 0.0
O292 O 0.40492 0.37302 0.91768 0.0
O293 O 0.39552 0.40527 0.96691 0.0
O294 O 0.42239 0.37974 0.01941 0.0
O295 O 0.44336 0.32421 0.01682 0.0
C296 C 0.43906 0.28753 0.93944 0.0
O297 O 0.35098 0.3289 0.0132 0.0
O298 O 0.33936 0.3309 0.95481 0.0
In299 In 0.9051 0.15626 0.00645 0.0
O300 O 0.85477 0.17014 0.96894 0.0
O301 O 0.84576 0.16579 0.02766 0.0
C302 C 0.95272 0.14305 0.94852 0.0
C303 C 0.94089 0.21311 0.04078 0.0
C304 C 0.9092 0.09227 0.04658 0.0
O305 O 0.92664 0.12089 0.95739 0.0
O306 O 0.95296 0.17319 0.96692 0.0
O307 O 0.91421 0.12421 0.06102 0.0
O308 O 0.90084 0.09273 0.01222 0.0
C309 C 0.83159 0.17104 0.9957 0.0
O310 O 0.94877 0.17907 0.04666 0.0
O311 O 0.91386 0.21854 0.01836 0.0
C312 C 0.14879 0.05402 0.49539 0.0
C313 C 0.1288 0.05436 0.52943 0.0
H314 H 0.14801 0.06734 0.4367 0.0
C315 C 0.09527 0.07485 0.53168 0.0
H316 H 0.17477 0.03847 0.49286 0.0
C317 C 0.08012 0.09158 0.49964 0.0
C318 C 0.09806 0.08779 0.4647 0.0
H319 H 0.07942 0.07581 0.55762 0.0
H320 H 0.05296 0.10503 0.50178 0.0
C321 C 0.13344 0.07049 0.46319 0.0
C322 C 0.95457 0.40589 0.477 0.0
C323 C 0.93202 0.39841 0.44549 0.0
H324 H 0.95629 0.4242 0.53418 0.0
C325 C 0.89289 0.39752 0.44968 0.0
H326 H 0.98488 0.40634 0.47469 0.0
C327 C 0.87652 0.40728 0.48395 0.0
C328 C 0.89907 0.41839 0.5144 0.0
H329 H 0.87486 0.39141 0.42597 0.0
H330 H 0.84621 0.40889 0.48564 0.0
C331 C 0.93823 0.41589 0.51116 0.0
C332 C 0.1227 0.92495 0.03694 0.0
C333 C 0.08548 0.91219 0.03462 0.0
H334 H 0.16746 0.95402 0.00924 0.0
C335 C 0.06698 0.91334 -0.00022 0.0
H336 H 0.13772 0.92422 0.06337 0.0
C337 C 0.08386 0.9306 0.9689 0.0
C338 C 0.11965 0.9467 0.97225 0.0
H339 H 0.03837 0.90342 -0.00298 0.0
H340 H 0.06787 0.93354 0.94319 0.0
C341 C 0.13974 0.94198 0.0059 0.0
C342 C 0.921 0.59992 -0.00265 0.0
C343 C 0.89998 0.59608 0.03052 0.0
H344 H 0.92659 0.58463 0.93955 0.0
C345 C 0.86411 0.57982 0.02863 0.0
H346 H 0.94856 0.61275 -0.00218 0.0
C347 C 0.85133 0.56398 0.99501 0.0
C348 C 0.87439 0.564 0.96296 0.0
H349 H 0.84716 0.57674 0.05369 0.0
H350 H 0.82497 0.54882 0.99513 0.0
C351 C 0.90836 0.58393 0.96389 0.0
C352 C 0.47057 0.11962 0.08244 0.0
C353 C 0.46916 0.08265 0.09612 0.0
H354 H 0.50235 0.16055 0.05196 0.0
C355 C 0.50197 0.06079 0.09548 0.0
H356 H 0.44579 0.1372 0.08277 0.0
C357 C 0.53426 0.07402 0.07761 0.0
C358 C 0.53439 0.10949 0.06043 0.0
H359 H 0.50188 0.03229 0.10611 0.0
H360 H 0.55812 0.05541 0.07489 0.0
C361 C 0.50303 0.13301 0.06486 0.0
C362 C 0.54331 0.35923 0.07107 0.0
C363 C 0.54582 0.39722 0.0813 0.0
H364 H 0.50868 0.31585 0.04794 0.0
C365 C 0.51303 0.41906 0.08221 0.0
H366 H 0.56811 0.34169 0.07042 0.0
C367 C 0.47909 0.4043 0.06951 0.0
C368 C 0.47735 0.36746 0.05569 0.0
H369 H 0.51403 0.44831 0.09048 0.0
H370 H 0.45489 0.42262 0.06802 0.0
C371 C 0.50924 0.34441 0.05838 0.0
C372 C 0.52241 0.91524 0.43084 0.0
C373 C 0.52347 0.87956 0.4475 0.0
H374 H 0.48917 0.95608 0.40219 0.0
C375 C 0.49326 0.85478 0.44179 0.0
H376 H 0.54542 0.93478 0.43453 0.0
C377 C 0.46076 0.86711 0.42355 0.0
C378 C 0.45823 0.90425 0.41055 0.0
H379 H 0.49336 0.82704 0.45428 0.0
H380 H 0.4367 0.84855 0.42232 0.0
C381 C 0.49012 0.92742 0.41235 0.0
C382 C 0.46286 0.59608 0.40329 0.0
C383 C 0.46801 0.6281 0.42571 0.0
H384 H 0.48922 0.55148 0.37295 0.0
C385 C 0.50418 0.64353 0.42902 0.0
H386 H 0.43532 0.58362 0.40009 0.0
C387 C 0.53511 0.62513 0.41343 0.0
C388 C 0.53035 0.59093 0.39439 0.0
H389 H 0.50899 0.66833 0.44597 0.0
H390 H 0.56292 0.63622 0.41872 0.0
C391 C 0.4938 0.5776 0.38784 0.0
C392 C 0.08889 0.50988 0.06377 0.0
C393 C 0.09071 0.47672 0.0851 0.0
H394 H 0.06529 0.56489 0.05881 0.0
C395 C 0.07625 0.47667 0.12178 0.0
H396 H 0.10002 0.51086 0.03548 0.0
C397 C 0.05671 0.50786 0.1353 0.0
C398 C 0.05102 0.53929 0.11212 0.0
H399 H 0.07749 0.45158 0.13894 0.0
H400 H 0.04332 0.50598 0.16255 0.0
C401 C 0.06895 0.54084 0.07708 0.0
C402 C 0.06269 0.50928 0.3342 0.0
C403 C 0.06663 0.47538 0.35407 0.0
H404 H 0.06984 0.56902 0.33529 0.0
C405 C 0.08823 0.47493 0.38702 0.0
H406 H 0.04624 0.51045 0.30864 0.0
C407 C 0.1019 0.50839 0.40212 0.0
C408 C 0.09391 0.5429 0.3847 0.0
H409 H 0.09199 0.44915 0.40273 0.0
H410 H 0.11599 0.50744 0.42906 0.0
C411 C 0.07612 0.54288 0.3495 0.0
C412 C 0.91355 -0.00348 0.45921 0.0
C413 C 0.9127 0.96114 0.44164 0.0
H414 H 0.93527 0.05281 0.45765 0.0
C415 C 0.92904 0.95699 0.40605 0.0
H416 H 0.90108 0.00048 0.48666 0.0
C417 C 0.94896 0.98653 0.38997 0.0
C418 C 0.95229 0.02096 0.40881 0.0
H419 H 0.92872 0.93015 0.39175 0.0
H420 H 0.96327 0.98188 0.36352 0.0
C421 C 0.93304 0.02643 0.44269 0.0
C422 C 0.38704 0.53488 0.59236 0.0
C423 C 0.3869 0.54134 0.55349 0.0
H424 H 0.39795 0.49562 0.63649 0.0
C425 C 0.39187 0.51092 0.52888 0.0
H426 H 0.38285 0.55777 0.61193 0.0
C427 C 0.40056 0.4754 0.54288 0.0
C428 C 0.40409 0.46968 0.5817 0.0
H429 H 0.39146 0.515 0.49874 0.0
H430 H 0.40704 0.45311 0.52324 0.0
C431 C 0.39537 0.49921 0.60639 0.0
C432 C 0.59804 0.55613 0.00778 0.0
C433 C 0.62669 0.52969 0.00243 0.0
H434 H 0.55798 0.59239 0.98148 0.0
C435 C 0.64116 0.52409 0.96615 0.0
H436 H 0.58642 0.561 0.03545 0.0
C437 C 0.62521 0.54233 0.93532 0.0
C438 C 0.5942 0.56607 0.94026 0.0
H439 H 0.66348 0.50404 0.96132 0.0
H440 H 0.63545 0.53574 0.90746 0.0
C441 C 0.58174 0.57401 0.97687 0.0
C442 C 0.36636 0.9306 0.00223 0.0
C443 C 0.38975 0.93615 0.03352 0.0
H444 H 0.36255 0.91142 0.94538 0.0
C445 C 0.42565 0.91999 0.03373 0.0
H446 H 0.33846 0.94261 0.00138 0.0
C447 C 0.43937 0.90202 0.00175 0.0
C448 C 0.41746 0.90013 0.96901 0.0
H449 H 0.44416 0.92355 0.0576 0.0
H450 H 0.46812 0.89218 0.00183 0.0
C451 C 0.38016 0.91278 0.97013 0.0
C452 C 0.58129 0.4228 0.53267 0.0
C453 C 0.54688 0.40416 0.52838 0.0
H454 H 0.623 0.45739 0.50703 0.0
C455 C 0.53078 0.40149 0.49238 0.0
H456 H 0.59452 0.42509 0.55996 0.0
C457 C 0.54731 0.41996 0.46184 0.0
C458 C 0.57984 0.44151 0.46716 0.0
H459 H 0.50422 0.38726 0.4883 0.0
H460 H 0.53334 0.41947 0.43482 0.0
C461 C 0.59748 0.44147 0.5024 0.0
C462 C 0.35895 0.05819 0.54473 0.0
C463 C 0.39487 0.07421 0.54714 0.0
H464 H 0.31997 0.02767 0.51061 0.0
C465 C 0.41689 0.077 0.51452 0.0
H466 H 0.34131 0.05588 0.56939 0.0
C467 C 0.40481 0.06076 0.48101 0.0
C468 C 0.37037 0.04174 0.47946 0.0
H469 H 0.44457 0.08954 0.51542 0.0
H470 H 0.42349 0.06103 0.45702 0.0
C471 C 0.3467 0.04218 0.51104 0.0
C472 C 0.00977 0.57204 0.54989 0.0
C473 C 0.00408 0.59521 0.51854 0.0
H474 H 0.98394 0.53754 0.59199 0.0
C475 C 0.96734 0.60497 0.50818 0.0
H476 H 0.03787 0.56434 0.55852 0.0
C477 C 0.93671 0.59037 0.52758 0.0
C478 C 0.94216 0.56526 0.55743 0.0
H479 H 0.96219 0.62332 0.48446 0.0
H480 H 0.90874 0.59737 0.51796 0.0
C481 C 0.97896 0.55689 0.56906 0.0
C482 C 0.97782 0.92585 0.59799 0.0
C483 C 0.97455 0.88889 0.58474 0.0
H484 H 0.01475 0.96891 0.61759 0.0
C485 C 0.00563 0.86475 0.58744 0.0
H486 H 0.95428 0.94502 0.59647 0.0
C487 C 0.04041 0.87852 0.59926 0.0
C488 C 0.04451 0.91654 0.60876 0.0
H489 H 0.0039 0.83603 0.57759 0.0
H490 H 0.06453 0.86005 0.59842 0.0
C491 C 0.01251 0.93955 0.60998 0.0
C492 C 0.00847 0.37585 0.92247 0.0
C493 C 0.03694 0.40154 0.93175 0.0
H494 H 0.95263 0.36859 0.9016 0.0
C495 C 0.03383 0.4389 0.91957 0.0
H496 H 0.01022 0.3468 0.9313 0.0
C497 C 0.00091 0.45132 0.90236 0.0
C498 C 0.97058 0.42659 0.8974 0.0
H499 H 0.0555 0.45923 0.92607 0.0
H500 H -0.00189 0.48092 0.89596 0.0
C501 C 0.97542 0.38834 0.90555 0.0
C502 C 0.05242 0.13482 0.91482 0.0
C503 C 0.05261 0.09779 0.90131 0.0
H504 H 0.01996 0.17882 0.93968 0.0
C505 C 0.01827 0.07892 0.8966 0.0
H506 H 0.07842 0.15014 0.91847 0.0
C507 C 0.98483 0.09526 0.90879 0.0
C508 C 0.98511 0.13083 0.92573 0.0
H509 H 0.01748 0.05047 0.88589 0.0
H510 H 0.95922 0.07893 0.90736 0.0
C511 C 0.01888 0.15128 0.92683 0.0
C512 C 0.54766 0.99372 0.65202 0.0
C513 C 0.54251 0.02572 0.62948 0.0
H514 H 0.56602 0.93652 0.6542 0.0
C515 C 0.55908 0.02689 0.59374 0.0
H516 H 0.53531 0.99209 0.67977 0.0
C517 C 0.57675 0.99512 0.57917 0.0
C518 C 0.57792 0.96165 0.60004 0.0
H519 H 0.55581 0.05129 0.57587 0.0
H520 H 0.58681 0.99597 0.55048 0.0
C521 C 0.56513 0.96182 0.63733 0.0
C522 C 0.58245 0.02534 0.8751 0.0
C523 C 0.59616 0.02697 0.91204 0.0
H524 H 0.55276 0.9929 0.83416 0.0
C525 C 0.59666 0.99405 0.93379 0.0
H526 H 0.58204 0.05021 0.85757 0.0
C527 C 0.57975 0.9613 0.92047 0.0
C528 C 0.56232 0.96091 0.88511 0.0
H529 H 0.60739 0.99436 0.96225 0.0
H530 H 0.57783 0.93725 0.93901 0.0
C531 C 0.56576 0.99247 0.86166 0.0
C532 C 0.44691 0.46873 0.86136 0.0
C533 C 0.44695 0.50304 0.88078 0.0
H534 H 0.43135 0.4108 0.86203 0.0
C535 C 0.42617 0.50645 0.91403 0.0
H536 H 0.46239 0.46558 0.83537 0.0
C537 C 0.40862 0.47492 0.9295 0.0
C538 C 0.4113 0.43982 0.91162 0.0
H539 H 0.42573 0.53267 0.9294 0.0
H540 H 0.39496 0.47755 0.95654 0.0
C541 C 0.42898 0.43742 0.87652 0.0
C542 C 0.91254 0.02217 0.04933 0.0
C543 C 0.91845 0.05724 0.06651 0.0
H544 H 0.92504 0.9632 0.05008 0.0
C545 C 0.93794 0.0589 0.10068 0.0
H546 H 0.89748 0.02014 0.02298 0.0
C547 C 0.95404 0.02661 0.11572 0.0
C548 C 0.95038 0.99201 0.09722 0.0
H549 H 0.94283 0.08549 0.11461 0.0
H550 H 0.97076 0.02901 0.14103 0.0
C551 C 0.92819 0.98963 0.06479 0.0
C552 C 0.97782 0.22034 0.33125 0.0
C553 C 0.01465 0.20661 0.33394 0.0
H554 H 0.94254 0.2684 0.3247 0.0
C555 C 0.04481 0.23137 0.32813 0.0
H556 H 0.954 0.20186 0.33523 0.0
C557 C 0.03822 0.26962 0.32201 0.0
C558 C 0.00138 0.28365 0.32151 0.0
H559 H 0.07349 0.22149 0.32982 0.0
H560 H 0.062 0.2884 0.3194 0.0
C561 C 0.97125 0.25845 0.32503 0.0
C562 C 0.01122 0.72884 0.16446 0.0
C563 C 0.97436 0.71628 0.15816 0.0
H564 H 0.04872 0.77577 0.1662 0.0
C565 C 0.94588 0.74281 0.1521 0.0
H566 H 0.03376 0.70904 0.16931 0.0
C567 C 0.95449 0.78107 0.15022 0.0
C568 C 0.99173 0.79341 0.15438 0.0
H569 H 0.91722 0.73395 0.14718 0.0
H570 H 0.93221 0.80081 0.14412 0.0
C571 C 0.01982 0.76705 0.16258 0.0
C572 C 0.33281 0.96395 0.2248 0.0
C573 C 0.33599 0.00171 0.21375 0.0
H574 H 0.33 0.92507 0.27061 0.0
C575 C 0.33461 0.02991 0.24123 0.0
H576 H 0.33363 0.9416 0.2042 0.0
C577 C 0.33225 0.02043 0.27923 0.0
C578 C 0.3315 0.98258 0.2904 0.0
H579 H 0.3368 0.05925 0.2335 0.0
H580 H 0.3328 0.04273 0.29989 0.0
C581 C 0.33071 0.95446 0.26281 0.0
C582 C 0.65449 0.44626 0.22643 0.0
C583 C 0.6609 0.47495 0.20013 0.0
H584 H 0.64268 0.4322 0.28359 0.0
C585 C 0.66309 0.51231 0.21265 0.0
H586 H 0.65266 0.4172 0.21764 0.0
C587 C 0.65732 0.52093 0.25054 0.0
C588 C 0.64914 0.49234 0.27646 0.0
H589 H 0.66795 0.535 0.19299 0.0
H590 H 0.6581 0.55004 0.25927 0.0
C591 C 0.6486 0.45487 0.26419 0.0
C592 C 0.27292 0.32998 0.03246 0.0
C593 C 0.2861 0.32615 0.99548 0.0
H594 H 0.22563 0.34084 0.06794 0.0
C595 C 0.26029 0.3263 0.9657 0.0
H596 H 0.29222 0.32995 0.05596 0.0
C597 C 0.22229 0.33256 0.97255 0.0
C598 C 0.20945 0.33886 0.00929 0.0
H599 H 0.26966 0.32327 0.93692 0.0
H600 H 0.20325 0.334 0.94888 0.0
C601 C 0.23486 0.33635 0.03931 0.0
C602 C 0.22505 0.67787 0.44743 0.0
C603 C 0.19983 0.66857 0.47632 0.0
H604 H 0.28257 0.68619 0.43184 0.0
C605 C 0.21332 0.6649 0.51317 0.0
H606 H 0.21535 0.68105 0.41878 0.0
C607 C 0.25159 0.66807 0.52065 0.0
C608 C 0.27717 0.67481 0.4914 0.0
H609 H 0.19449 0.65811 0.53607 0.0
H610 H 0.26128 0.66344 0.54911 0.0
C611 C 0.26348 0.68091 0.45491 0.0
C612 C 0.72659 0.83948 0.56137 0.0
C613 C 0.70263 0.83772 0.53009 0.0
H614 H 0.78326 0.84382 0.58098 0.0
C615 C 0.71827 0.83558 0.49397 0.0
H616 H 0.71529 0.8411 0.58956 0.0
C617 C 0.75709 0.83724 0.48907 0.0
C618 C 0.78097 0.84105 0.5202 0.0
H619 H 0.70049 0.83409 0.46934 0.0
H620 H 0.76827 0.83684 0.46079 0.0
C621 C 0.76547 0.84112 0.55646 0.0
C622 C 0.46035 0.75157 0.84279 0.0
C623 C 0.49014 0.77724 0.84034 0.0
H624 H 0.44376 0.69392 0.84435 0.0
C625 C 0.52675 0.76375 0.83474 0.0
H626 H 0.43183 0.76116 0.847 0.0
C627 C 0.53363 0.72515 0.83329 0.0
C628 C 0.50399 0.69949 0.83741 0.0
H629 H 0.55025 0.78296 0.83271 0.0
H630 H 0.56224 0.71544 0.83009 0.0
C631 C 0.46721 0.71306 0.84133 0.0
C632 C 0.49119 0.2604 0.67202 0.0
C633 C 0.46081 0.28225 0.65967 0.0
H634 H 0.51145 0.20523 0.68451 0.0
C635 C 0.42563 0.26518 0.65472 0.0
H636 H 0.51859 0.27288 0.67628 0.0
C637 C 0.42148 0.22652 0.65969 0.0
C638 C 0.45251 0.20426 0.66947 0.0
H639 H 0.40166 0.28142 0.64548 0.0
H640 H 0.39444 0.21385 0.65396 0.0
C641 C 0.4871 0.22169 0.67679 0.0
C642 C 0.83315 0.44761 0.7579 0.0
C643 C 0.8319 0.47994 0.78043 0.0
H644 H 0.83486 0.42527 0.70218 0.0
C645 C 0.82733 0.51514 0.7632 0.0
H646 H 0.83647 0.42007 0.77038 0.0
C647 C 0.82636 0.51811 0.72404 0.0
C648 C 0.83002 0.48594 0.70152 0.0
H649 H 0.82619 0.54053 0.77988 0.0
H650 H 0.82445 0.54573 0.71145 0.0
C651 C 0.83226 0.45058 0.71882 0.0
C652 C 0.18257 0.963 0.74173 0.0
C653 C 0.18207 0.99162 0.71459 0.0
H654 H 0.18113 0.94924 0.80021 0.0
C655 C 0.18418 0.02922 0.72631 0.0
H656 H 0.18117 0.93376 0.7335 0.0
C657 C 0.18396 0.0381 0.76454 0.0
C658 C 0.18183 0.00953 0.79165 0.0
H659 H 0.18396 0.05187 0.70601 0.0
H660 H 0.18367 0.06737 0.77277 0.0
C661 C 0.18256 0.97188 0.77993 0.0
C662 C 0.77532 0.17115 0.95372 0.0
C663 C 0.79065 0.17324 0.98999 0.0
H664 H 0.72569 0.16372 0.9206 0.0
C665 C 0.76644 0.17337 0.02112 0.0
H666 H 0.79332 0.17105 0.92922 0.0
C667 C 0.72781 0.16922 0.01621 0.0
C668 C 0.71268 0.16474 0.98008 0.0
H669 H 0.77746 0.17513 0.04942 0.0
H670 H 0.71001 0.16794 0.04083 0.0
C671 C 0.73663 0.16687 0.94881 0.0
C672 C 0.0739 0.9812 0.23683 0.0
C673 C 0.03917 0.965 0.22725 0.0
H674 H 0.10244 0.02314 0.26977 0.0
C675 C 0.0063 0.97908 0.24367 0.0
H676 H 0.09963 0.97106 0.22426 0.0
C677 C 0.00778 0.0094 0.26813 0.0
C678 C 0.04225 0.02594 0.2776 0.0
H679 H 0.97905 0.96755 0.23665 0.0
H680 H 0.98174 0.01958 0.28007 0.0
C681 C 0.07548 0.01117 0.2624 0.0
C682 C 0.92523 0.45865 0.22555 0.0
C683 C 0.92716 0.46744 0.2639 0.0
H684 H 0.92182 0.47966 0.16942 0.0
C685 C 0.92118 0.50478 0.27528 0.0
H686 H 0.92948 0.4301 0.21599 0.0
C687 C 0.91727 0.53333 0.24858 0.0
C688 C 0.91876 0.52493 0.2101 0.0
H689 H 0.92242 0.5124 0.3047 0.0
H690 H 0.91561 0.56218 0.25805 0.0
C691 C 0.92076 0.4871 0.19889 0.0
C692 C 0.22278 0.0766 0.01329 0.0
C693 C 0.23228 0.07459 0.97501 0.0
H694 H 0.2425 0.07412 0.07008 0.0
C695 C 0.27029 0.07494 0.96472 0.0
H696 H 0.19369 0.07648 0.02209 0.0
C697 C 0.29823 0.07399 0.99223 0.0
C698 C 0.28861 0.07221 0.03049 0.0
H699 H 0.27843 0.07363 0.93544 0.0
H700 H 0.32723 0.07193 0.98339 0.0
C701 C 0.25072 0.07521 0.04082 0.0
C702 C 0.77962 0.42691 0.03967 0.0
C703 C 0.74343 0.414 0.03109 0.0
H704 H 0.8336 0.44227 0.01836 0.0
C705 C 0.73576 0.40111 0.99455 0.0
H706 H 0.78622 0.43704 0.06759 0.0
C707 C 0.7625 0.40507 0.96613 0.0
C708 C 0.7976 0.42098 0.97408 0.0
H709 H 0.70802 0.39116 0.98708 0.0
H710 H 0.75492 0.39778 0.93758 0.0
C711 C 0.80669 0.42992 0.01145 0.0
C712 C 0.28654 0.90634 0.51108 0.0
C713 C 0.27565 0.90934 0.47322 0.0
H714 H 0.26931 0.90985 0.56859 0.0
C715 C 0.23728 0.91058 0.46443 0.0
H716 H 0.31592 0.90518 0.51876 0.0
C717 C 0.21055 0.91274 0.49306 0.0
C718 C 0.22185 0.91427 0.53087 0.0
H719 H 0.22807 0.9127 0.43552 0.0
H720 H 0.18137 0.91645 0.48541 0.0
C721 C 0.25987 0.90912 0.53968 0.0
C722 C 0.75746 0.485 0.48982 0.0
C723 C 0.76663 0.51622 0.51202 0.0
H724 H 0.72626 0.46368 0.4435 0.0
C725 C 0.75154 0.55147 0.50282 0.0
H726 H 0.76929 0.45761 0.49572 0.0
C727 C 0.72629 0.55495 0.47276 0.0
C728 C 0.71673 0.52339 0.45101 0.0
H729 H 0.75861 0.57604 0.51927 0.0
H730 H 0.71376 0.58204 0.46699 0.0
C731 C 0.73317 0.48861 0.45949 0.0
C732 C 0.02879 0.26396 0.06976 0.0
C733 C 0.0195 0.30111 0.0606 0.0
H734 H 0.01055 0.20678 0.07151 0.0
C735 C 0.98217 0.30983 0.05123 0.0
H736 H 0.0573 0.25652 0.07723 0.0
C737 C 0.95555 0.28132 0.04736 0.0
C738 C 0.96569 0.24376 0.0534 0.0
H739 H 0.97416 0.33828 0.04409 0.0
H740 H 0.92769 0.28846 0.03751 0.0
C741 C 0.00199 0.23552 0.06648 0.0
C742 C 0.01641 0.75942 0.42607 0.0
C743 C 0.01933 0.72762 0.44904 0.0
H744 H 0.98641 0.81063 0.41542 0.0
C745 C 0.9916 0.72045 0.47605 0.0
H746 H 0.03747 0.76517 0.40491 0.0
C747 C 0.9622 0.74548 0.48139 0.0
C748 C 0.96036 0.77869 0.46035 0.0
H749 H 0.99305 0.69563 0.49363 0.0
H750 H 0.942 0.73965 0.50336 0.0
C751 C 0.98723 0.78516 0.43202 0.0
C752 C 0.47225 0.79382 0.5717 0.0
C753 C 0.50988 0.78313 0.57686 0.0
H754 H 0.41631 0.7757 0.55917 0.0
C755 C 0.51857 0.74486 0.58037 0.0
H756 H 0.46465 0.82313 0.56894 0.0
C757 C 0.49065 0.7177 0.57542 0.0
C758 C 0.45384 0.72844 0.56616 0.0
H759 H 0.5473 0.73586 0.58449 0.0
H760 H 0.49861 0.68836 0.57579 0.0
C761 C 0.44453 0.76669 0.566 0.0
C762 C 0.49686 0.53381 0.72518 0.0
C763 C 0.53023 0.53392 0.74613 0.0
H764 H 0.46216 0.50421 0.68631 0.0
C765 C 0.55701 0.50563 0.73968 0.0
H766 H 0.4757 0.55523 0.72932 0.0
C767 C 0.54928 0.47635 0.71452 0.0
C768 C 0.51442 0.47477 0.69627 0.0
H769 H 0.58293 0.50497 0.75554 0.0
H770 H 0.56958 0.45403 0.71091 0.0
C771 C 0.48887 0.50433 0.70087 0.0
C772 C 0.41688 -0.00188 0.7982 0.0
C773 C 0.42139 0.96014 0.78846 0.0
H774 H 0.41191 0.05469 0.77842 0.0
C775 C 0.41774 0.9495 0.7507 0.0
H776 H 0.41933 0.00715 0.82714 0.0
C777 C 0.41294 0.97672 0.72285 0.0
C778 C 0.41224 0.01505 0.7323 0.0
H779 H 0.42082 0.9204 0.74243 0.0
H780 H 0.41268 0.96788 0.69375 0.0
C781 C 0.41256 0.02538 0.77032 0.0
C782 C 0.4565 0.22001 0.93244 0.0
C783 C 0.46584 0.25805 0.92826 0.0
H784 H 0.47683 0.1637 0.93667 0.0
C785 C 0.50293 0.26787 0.91904 0.0
H786 H 0.42809 0.21165 0.93932 0.0
C787 C 0.53095 0.24052 0.91805 0.0
C788 C 0.52217 0.20289 0.92563 0.0
H789 H 0.51093 0.297 0.91545 0.0
H790 H 0.55978 0.24917 0.91371 0.0
C791 C 0.48444 0.19258 0.93084 0.0
loop_
_geom_bond_atom_site_label_1
_geom_bond_atom_site_label_2
_geom_bond_distance
_geom_bond_site_symmetry_2
_ccdc_geom_bond_type
In0 O1 2.294 . S
In0 O2 2.326 1_455 S
In0 O6 2.266 . S
In0 O7 2.325 . S
In0 O8 2.266 1_455 S
In0 O9 2.326 1_455 S
In0 O11 2.294 1_455 S
In0 O12 2.326 . S
O1 In0 2.294 . S
O1 C10 1.240 1_455 S
O2 In0 2.326 1_655 S
O2 C10 1.252 . S
C3 O6 1.252 . S
C3 O7 1.260 . S
C4 O11 1.240 . S
C4 O12 1.252 1_655 S
C5 O8 1.252 . S
C5 O9 1.260 . S
O6 In0 2.266 . S
O6 C3 1.252 . S
O7 In0 2.325 . S
O7 C3 1.260 . S
O8 In0 2.266 1_655 S
O8 C5 1.252 . S
O9 In0 2.326 1_655 S
O9 C5 1.260 . S
C10 O1 1.240 1_655 S
C10 O2 1.252 . S
O11 In0 2.294 1_655 S
O11 C4 1.240 . S
O12 In0 2.326 . S
O12 C4 1.252 1_455 S
In13 O14 2.294 1_655 S
In13 O15 2.326 . S
In13 O19 2.266 1_655 S
In13 O20 2.326 1_655 S
In13 O21 2.266 . S
In13 O22 2.325 . S
In13 O24 2.294 . S
In13 O25 2.326 1_655 S
O14 In13 2.294 1_455 S
O14 C23 1.240 . S
O15 In13 2.326 . S
O15 C23 1.252 1_655 S
C16 O19 1.252 . S
C16 O20 1.260 . S
C17 O24 1.225 1_455 S
C17 O25 1.268 . S
C18 O21 1.252 . S
C18 O22 1.260 . S
O19 In13 2.266 1_455 S
O19 C16 1.252 . S
O20 In13 2.326 1_455 S
O20 C16 1.260 . S
O21 In13 2.266 . S
O21 C18 1.252 . S
O22 In13 2.325 . S
O22 C18 1.260 . S
C23 O14 1.240 . S
C23 O15 1.252 1_455 S
O24 In13 2.294 . S
O24 C17 1.225 1_655 S
O25 In13 2.326 1_455 S
O25 C17 1.268 . S
In26 O27 2.294 1_455 S
In26 O28 2.326 . S
In26 O32 2.266 1_455 S
In26 O33 2.326 1_455 S
In26 O34 2.266 . S
In26 O35 2.325 . S
In26 O37 2.294 . S
In26 O38 2.326 1_455 S
O27 In26 2.294 1_655 S
O27 C36 1.240 . S
O28 In26 2.326 . S
O28 C36 1.252 1_455 S
C29 O32 1.252 . S
C29 O33 1.260 . S
C30 O37 1.255 . S
C30 O38 1.237 1_455 S
C31 O34 1.252 . S
C31 O35 1.260 . S
O32 In26 2.266 1_655 S
O32 C29 1.252 . S
O33 In26 2.326 1_655 S
O33 C29 1.260 . S
O34 In26 2.266 . S
O34 C31 1.252 . S
O35 In26 2.325 . S
O35 C31 1.260 . S
C36 O27 1.240 . S
C36 O28 1.252 1_655 S
O37 In26 2.294 . S
O37 C30 1.255 . S
O38 In26 2.326 1_655 S
O38 C30 1.237 1_655 S
In39 O40 2.294 . S
In39 O41 2.326 1_655 S
In39 O45 2.266 . S
In39 O46 2.325 . S
In39 O47 2.266 1_655 S
In39 O48 2.326 1_655 S
In39 O50 2.294 1_655 S
In39 O51 2.326 . S
O40 In39 2.294 . S
O40 C49 1.240 . S
O41 In39 2.326 1_455 S
O41 C49 1.252 1_455 S
C42 O45 1.252 . S
C42 O46 1.260 . S
C43 O50 1.240 . S
C43 O51 1.252 1_455 S
C44 O47 1.252 . S
C44 O48 1.260 . S
O45 In39 2.266 . S
O45 C42 1.252 . S
O46 In39 2.325 . S
O46 C42 1.260 . S
O47 In39 2.266 1_455 S
O47 C44 1.252 . S
O48 In39 2.326 1_455 S
O48 C44 1.260 . S
C49 O40 1.240 . S
C49 O41 1.252 1_655 S
O50 In39 2.294 1_455 S
O50 C43 1.240 . S
O51 In39 2.326 . S
O51 C43 1.252 1_655 S
In52 O53 2.294 1_545 S
In52 O54 2.326 . S
In52 O58 2.266 1_545 S
In52 O59 2.326 1_545 S
In52 O60 2.266 . S
In52 O61 2.325 . S
In52 O63 2.294 . S
In52 O64 2.326 1_545 S
O53 In52 2.294 1_565 S
O53 C62 1.240 . S
O54 In52 2.326 . S
O54 C62 1.252 1_545 S
C55 O58 1.252 . S
C55 O59 1.260 . S
C56 O63 1.240 1_565 S
C56 O64 1.252 . S
C57 O60 1.252 . S
C57 O61 1.260 . S
O58 In52 2.266 1_565 S
O58 C55 1.252 . S
O59 In52 2.326 1_565 S
O59 C55 1.260 . S
O60 In52 2.266 . S
O60 C57 1.252 . S
O61 In52 2.325 . S
O61 C57 1.260 . S
C62 O53 1.240 . S
C62 O54 1.252 1_565 S
O63 In52 2.294 . S
O63 C56 1.240 1_545 S
O64 In52 2.326 1_565 S
O64 C56 1.252 . S
In65 O66 2.294 . S
In65 O67 2.326 . S
In65 O71 2.266 . S
In65 O72 2.326 . S
In65 O73 2.266 . S
In65 O74 2.326 . S
In65 O76 2.294 . S
In65 O77 2.326 . S
O66 In65 2.294 . S
O66 C75 1.240 . S
O67 In65 2.326 . S
O67 C75 1.252 . S
C68 O71 1.252 . S
C68 O72 1.260 . S
C69 O76 1.240 . S
C69 O77 1.252 . S
C70 O73 1.252 . S
C70 O74 1.260 . S
O71 In65 2.266 . S
O71 C68 1.252 . S
O72 In65 2.326 . S
O72 C68 1.260 . S
O73 In65 2.266 . S
O73 C70 1.252 . S
O74 In65 2.326 . S
O74 C70 1.260 . S
C75 O66 1.240 . S
C75 O67 1.252 . S
O76 In65 2.294 . S
O76 C69 1.240 . S
O77 In65 2.326 . S
O77 C69 1.252 . S
In78 O79 2.294 1_565 S
In78 O80 2.326 . S
In78 O84 2.266 1_565 S
In78 O85 2.326 1_565 S
In78 O86 2.266 . S
In78 O87 2.325 . S
In78 O89 2.294 . S
In78 O90 2.326 1_565 S
O79 In78 2.294 1_545 S
O79 C88 1.240 . S
O80 In78 2.326 . S
O80 C88 1.252 1_565 S
C81 O84 1.252 . S
C81 O85 1.260 . S
C82 O89 1.225 1_545 S
C82 O90 1.268 . S
C83 O86 1.252 . S
C83 O87 1.260 . S
O84 In78 2.266 1_545 S
O84 C81 1.252 . S
O85 In78 2.326 1_545 S
O85 C81 1.260 . S
O86 In78 2.266 . S
O86 C83 1.252 . S
O87 In78 2.325 . S
O87 C83 1.260 . S
C88 O79 1.240 . S
C88 O80 1.252 1_545 S
O89 In78 2.294 . S
O89 C82 1.225 1_565 S
O90 In78 2.326 1_545 S
O90 C82 1.268 . S
In91 O92 2.294 . S
In91 O93 2.326 . S
In91 O97 2.266 . S
In91 O98 2.326 . S
In91 O99 2.266 . S
In91 O100 2.326 . S
In91 O102 2.294 . S
In91 O103 2.326 . S
O92 In91 2.294 . S
O92 C101 1.240 . S
O93 In91 2.326 . S
O93 C101 1.252 . S
C94 O97 1.252 . S
C94 O98 1.260 . S
C95 O102 1.240 . S
C95 O103 1.252 . S
C96 O99 1.252 . S
C96 O100 1.260 . S
O97 In91 2.266 . S
O97 C94 1.252 . S
O98 In91 2.326 . S
O98 C94 1.260 . S
O99 In91 2.266 . S
O99 C96 1.252 . S
O100 In91 2.326 . S
O100 C96 1.260 . S
C101 O92 1.240 . S
C101 O93 1.252 . S
O102 In91 2.294 . S
O102 C95 1.240 . S
O103 In91 2.326 . S
O103 C95 1.252 . S
In104 O105 2.294 . S
In104 O106 2.326 1_554 S
In104 O110 2.266 . S
In104 O111 2.325 . S
In104 O112 2.266 1_554 S
In104 O113 2.326 1_554 S
In104 O115 2.294 1_554 S
In104 O116 2.326 . S
O105 In104 2.294 . S
O105 C114 1.240 1_554 S
O106 In104 2.326 1_556 S
O106 C114 1.252 . S
C107 O110 1.252 . S
C107 O111 1.260 . S
C108 O115 1.240 . S
C108 O116 1.252 1_556 S
C109 O112 1.252 . S
C109 O113 1.260 . S
O110 In104 2.266 . S
O110 C107 1.252 . S
O111 In104 2.325 . S
O111 C107 1.260 . S
O112 In104 2.266 1_556 S
O112 C109 1.252 . S
O113 In104 2.326 1_556 S
O113 C109 1.260 . S
C114 O105 1.240 1_556 S
C114 O106 1.252 . S
O115 In104 2.294 1_556 S
O115 C108 1.240 . S
O116 In104 2.326 . S
O116 C108 1.252 1_554 S
In117 O118 2.294 . S
In117 O119 2.326 . S
In117 O123 2.266 . S
In117 O124 2.326 . S
In117 O125 2.266 . S
In117 O126 2.326 . S
In117 O128 2.294 . S
In117 O129 2.326 . S
O118 In117 2.294 . S
O118 C127 1.240 . S
O119 In117 2.326 . S
O119 C127 1.252 . S
C120 O123 1.252 . S
C120 O124 1.260 . S
C121 O128 1.240 . S
C121 O129 1.252 . S
C122 O125 1.252 . S
C122 O126 1.260 . S
O123 In117 2.266 . S
O123 C120 1.252 . S
O124 In117 2.326 . S
O124 C120 1.260 . S
O125 In117 2.266 . S
O125 C122 1.252 . S
O126 In117 2.326 . S
O126 C122 1.260 . S
C127 O118 1.240 . S
C127 O119 1.252 . S
O128 In117 2.294 . S
O128 C121 1.240 . S
O129 In117 2.326 . S
O129 C121 1.252 . S
In130 O131 2.294 . S
In130 O132 2.326 . S
In130 O136 2.266 . S
In130 O137 2.326 . S
In130 O138 2.266 . S
In130 O139 2.326 . S
In130 O141 2.294 . S
In130 O142 2.326 . S
O131 In130 2.294 . S
O131 C140 1.240 . S
O132 In130 2.326 . S
O132 C140 1.252 . S
C133 O136 1.252 . S
C133 O137 1.260 . S
C134 O141 1.240 . S
C134 O142 1.252 . S
C135 O138 1.252 . S
C135 O139 1.260 . S
O136 In130 2.266 . S
O136 C133 1.252 . S
O137 In130 2.326 . S
O137 C133 1.260 . S
O138 In130 2.266 . S
O138 C135 1.252 . S
O139 In130 2.326 . S
O139 C135 1.260 . S
C140 O131 1.240 . S
C140 O132 1.252 . S
O141 In130 2.294 . S
O141 C134 1.240 . S
O142 In130 2.326 . S
O142 C134 1.252 . S
In143 O144 2.294 . S
In143 O145 2.326 . S
In143 O149 2.266 . S
In143 O150 2.326 . S
In143 O151 2.266 . S
In143 O152 2.326 . S
In143 O154 2.294 . S
In143 O155 2.326 . S
O144 In143 2.294 . S
O144 C153 1.240 . S
O145 In143 2.326 . S
O145 C153 1.252 . S
C146 O149 1.252 . S
C146 O150 1.260 . S
C147 O154 1.240 . S
C147 O155 1.252 . S
C148 O151 1.252 . S
C148 O152 1.260 . S
O149 In143 2.266 . S
O149 C146 1.252 . S
O150 In143 2.326 . S
O150 C146 1.260 . S
O151 In143 2.266 . S
O151 C148 1.252 . S
O152 In143 2.326 . S
O152 C148 1.260 . S
C153 O144 1.240 . S
C153 O145 1.252 . S
O154 In143 2.294 . S
O154 C147 1.240 . S
O155 In143 2.326 . S
O155 C147 1.252 . S
In156 O157 2.294 . S
In156 O158 2.326 . S
In156 O162 2.266 . S
In156 O163 2.326 . S
In156 O164 2.266 . S
In156 O165 2.326 . S
In156 O167 2.294 . S
In156 O168 2.326 . S
O157 In156 2.294 . S
O157 C166 1.240 . S
O158 In156 2.326 . S
O158 C166 1.252 . S
C159 O162 1.252 . S
C159 O163 1.260 . S
C160 O167 1.240 . S
C160 O168 1.252 . S
C161 O164 1.252 . S
C161 O165 1.260 . S
O162 In156 2.266 . S
O162 C159 1.252 . S
O163 In156 2.326 . S
O163 C159 1.260 . S
O164 In156 2.266 . S
O164 C161 1.252 . S
O165 In156 2.326 . S
O165 C161 1.260 . S
C166 O157 1.240 . S
C166 O158 1.252 . S
O167 In156 2.294 . S
O167 C160 1.240 . S
O168 In156 2.326 . S
O168 C160 1.252 . S
In169 O170 2.294 . S
In169 O171 2.326 . S
In169 O175 2.266 . S
In169 O176 2.326 . S
In169 O177 2.266 . S
In169 O178 2.326 . S
In169 O180 2.294 . S
In169 O181 2.326 . S
O170 In169 2.294 . S
O170 C179 1.240 . S
O171 In169 2.326 . S
O171 C179 1.252 . S
C172 O175 1.252 . S
C172 O176 1.260 . S
C173 O180 1.240 . S
C173 O181 1.252 . S
C174 O177 1.252 . S
C174 O178 1.260 . S
O175 In169 2.266 . S
O175 C172 1.252 . S
O176 In169 2.326 . S
O176 C172 1.260 . S
O177 In169 2.266 . S
O177 C174 1.252 . S
O178 In169 2.326 . S
O178 C174 1.260 . S
C179 O170 1.240 . S
C179 O171 1.252 . S
O180 In169 2.294 . S
O180 C173 1.240 . S
O181 In169 2.326 . S
O181 C173 1.252 . S
In182 O183 2.294 . S
In182 O184 2.326 . S
In182 O188 2.266 . S
In182 O189 2.326 . S
In182 O190 2.266 . S
In182 O191 2.326 . S
In182 O193 2.294 . S
In182 O194 2.326 . S
O183 In182 2.294 . S
O183 C192 1.240 . S
O184 In182 2.326 . S
O184 C192 1.252 . S
C185 O188 1.252 . S
C185 O189 1.260 . S
C186 O193 1.240 . S
C186 O194 1.252 . S
C187 O190 1.252 . S
C187 O191 1.260 . S
O188 In182 2.266 . S
O188 C185 1.252 . S
O189 In182 2.326 . S
O189 C185 1.260 . S
O190 In182 2.266 . S
O190 C187 1.252 . S
O191 In182 2.326 . S
O191 C187 1.260 . S
C192 O183 1.240 . S
C192 O184 1.252 . S
O193 In182 2.294 . S
O193 C186 1.240 . S
O194 In182 2.326 . S
O194 C186 1.252 . S
In195 O196 2.294 . S
In195 O197 2.326 . S
In195 O201 2.266 . S
In195 O202 2.326 . S
In195 O203 2.266 . S
In195 O204 2.326 . S
In195 O206 2.294 . S
In195 O207 2.326 . S
O196 In195 2.294 . S
O196 C205 1.240 . S
O197 In195 2.326 . S
O197 C205 1.252 . S
C198 O201 1.252 . S
C198 O202 1.260 . S
C199 O206 1.240 . S
C199 O207 1.252 . S
C200 O203 1.252 . S
C200 O204 1.260 . S
O201 In195 2.266 . S
O201 C198 1.252 . S
O202 In195 2.326 . S
O202 C198 1.260 . S
O203 In195 2.266 . S
O203 C200 1.252 . S
O204 In195 2.326 . S
O204 C200 1.260 . S
C205 O196 1.240 . S
C205 O197 1.252 . S
O206 In195 2.294 . S
O206 C199 1.240 . S
O207 In195 2.326 . S
O207 C199 1.252 . S
In208 O209 2.294 . S
In208 O210 2.326 . S
In208 O214 2.266 . S
In208 O215 2.326 . S
In208 O216 2.266 . S
In208 O217 2.326 . S
In208 O219 2.294 . S
In208 O220 2.326 . S
O209 In208 2.294 . S
O209 C218 1.240 . S
O210 In208 2.326 . S
O210 C218 1.252 . S
C211 O214 1.252 . S
C211 O215 1.260 . S
C212 O219 1.240 . S
C212 O220 1.252 . S
C213 O216 1.252 . S
C213 O217 1.260 . S
O214 In208 2.266 . S
O214 C211 1.252 . S
O215 In208 2.326 . S
O215 C211 1.260 . S
O216 In208 2.266 . S
O216 C213 1.252 . S
O217 In208 2.326 . S
O217 C213 1.260 . S
C218 O209 1.240 . S
C218 O210 1.252 . S
O219 In208 2.294 . S
O219 C212 1.240 . S
O220 In208 2.326 . S
O220 C212 1.252 . S
In221 O222 2.294 1_565 S
In221 O223 2.326 . S
In221 O227 2.266 1_565 S
In221 O228 2.326 1_565 S
In221 O229 2.266 . S
In221 O230 2.325 . S
In221 O232 2.294 . S
In221 O233 2.326 1_565 S
O222 In221 2.294 1_545 S
O222 C231 1.240 . S
O223 In221 2.326 . S
O223 C231 1.252 1_565 S
C224 O227 1.252 . S
C224 O228 1.260 . S
C225 O232 1.240 . S
C225 O233 1.252 1_565 S
C226 O229 1.252 . S
C226 O230 1.260 . S
O227 In221 2.266 1_545 S
O227 C224 1.252 . S
O228 In221 2.326 1_545 S
O228 C224 1.260 . S
O229 In221 2.266 . S
O229 C226 1.252 . S
O230 In221 2.325 . S
O230 C226 1.260 . S
C231 O222 1.240 . S
C231 O223 1.252 1_545 S
O232 In221 2.294 . S
O232 C225 1.240 . S
O233 In221 2.326 1_545 S
O233 C225 1.252 1_545 S
In234 O235 2.294 . S
In234 O236 2.326 . S
In234 O240 2.266 . S
In234 O241 2.326 . S
In234 O242 2.266 . S
In234 O243 2.326 . S
In234 O245 2.294 . S
In234 O246 2.326 . S
O235 In234 2.294 . S
O235 C244 1.240 . S
O236 In234 2.326 . S
O236 C244 1.252 . S
C237 O240 1.252 . S
C237 O241 1.260 . S
C238 O245 1.240 . S
C238 O246 1.252 . S
C239 O242 1.252 . S
C239 O243 1.260 . S
O240 In234 2.266 . S
O240 C237 1.252 . S
O241 In234 2.326 . S
O241 C237 1.260 . S
O242 In234 2.266 . S
O242 C239 1.252 . S
O243 In234 2.326 . S
O243 C239 1.260 . S
C244 O235 1.240 . S
C244 O236 1.252 . S
O245 In234 2.294 . S
O245 C238 1.240 . S
O246 In234 2.326 . S
O246 C238 1.252 . S
In247 O248 2.294 . S
In247 O249 2.326 1_545 S
In247 O253 2.266 . S
In247 O254 2.325 . S
In247 O255 2.266 1_545 S
In247 O256 2.326 1_545 S
In247 O258 2.294 1_545 S
In247 O259 2.326 . S
O248 In247 2.294 . S
O248 C257 1.255 . S
O249 In247 2.326 1_565 S
O249 C257 1.237 1_565 S
C250 O253 1.252 . S
C250 O254 1.260 . S
C251 O258 1.240 . S
C251 O259 1.252 1_565 S
C252 O255 1.252 . S
C252 O256 1.260 . S
O253 In247 2.266 . S
O253 C250 1.252 . S
O254 In247 2.325 . S
O254 C250 1.260 . S
O255 In247 2.266 1_565 S
O255 C252 1.252 . S
O256 In247 2.326 1_565 S
O256 C252 1.260 . S
C257 O248 1.255 . S
C257 O249 1.237 1_545 S
O258 In247 2.294 1_565 S
O258 C251 1.240 . S
O259 In247 2.326 . S
O259 C251 1.252 1_545 S
In260 O261 2.294 . S
In260 O262 2.326 . S
In260 O266 2.266 . S
In260 O267 2.326 . S
In260 O268 2.266 . S
In260 O269 2.326 . S
In260 O271 2.294 . S
In260 O272 2.326 . S
O261 In260 2.294 . S
O261 C270 1.240 . S
O262 In260 2.326 . S
O262 C270 1.252 . S
C263 O266 1.252 . S
C263 O267 1.260 . S
C264 O271 1.240 . S
C264 O272 1.252 . S
C265 O268 1.252 . S
C265 O269 1.260 . S
O266 In260 2.266 . S
O266 C263 1.252 . S
O267 In260 2.326 . S
O267 C263 1.260 . S
O268 In260 2.266 . S
O268 C265 1.252 . S
O269 In260 2.326 . S
O269 C265 1.260 . S
C270 O261 1.240 . S
C270 O262 1.252 . S
O271 In260 2.294 . S
O271 C264 1.240 . S
O272 In260 2.326 . S
O272 C264 1.252 . S
In273 O274 2.294 . S
In273 O275 2.326 1_556 S
In273 O279 2.266 . S
In273 O280 2.325 . S
In273 O281 2.266 1_556 S
In273 O282 2.326 1_556 S
In273 O284 2.294 1_556 S
In273 O285 2.326 . S
O274 In273 2.294 . S
O274 C283 1.240 . S
O275 In273 2.326 1_554 S
O275 C283 1.252 1_554 S
C276 O279 1.252 . S
C276 O280 1.260 . S
C277 O284 1.240 . S
C277 O285 1.252 1_554 S
C278 O281 1.252 . S
C278 O282 1.260 . S
O279 In273 2.266 . S
O279 C276 1.252 . S
O280 In273 2.325 . S
O280 C276 1.260 . S
O281 In273 2.266 1_554 S
O281 C278 1.252 . S
O282 In273 2.326 1_554 S
O282 C278 1.260 . S
C283 O274 1.240 . S
C283 O275 1.252 1_556 S
O284 In273 2.294 1_554 S
O284 C277 1.240 . S
O285 In273 2.326 . S
O285 C277 1.252 1_556 S
In286 O287 2.294 . S
In286 O288 2.326 1_556 S
In286 O292 2.266 . S
In286 O293 2.325 . S
In286 O294 2.266 1_556 S
In286 O295 2.326 1_556 S
In286 O297 2.294 1_556 S
In286 O298 2.326 . S
O287 In286 2.294 . S
O287 C296 1.225 1_556 S
O288 In286 2.326 1_554 S
O288 C296 1.268 . S
C289 O292 1.252 . S
C289 O293 1.260 . S
C290 O297 1.240 . S
C290 O298 1.252 1_554 S
C291 O294 1.252 . S
C291 O295 1.260 . S
O292 In286 2.266 . S
O292 C289 1.252 . S
O293 In286 2.325 . S
O293 C289 1.260 . S
O294 In286 2.266 1_554 S
O294 C291 1.252 . S
O295 In286 2.326 1_554 S
O295 C291 1.260 . S
C296 O287 1.225 1_554 S
C296 O288 1.268 . S
O297 In286 2.294 1_554 S
O297 C290 1.240 . S
O298 In286 2.326 . S
O298 C290 1.252 1_556 S
In299 O300 2.294 1_554 S
In299 O301 2.326 . S
In299 O305 2.266 1_554 S
In299 O306 2.326 1_554 S
In299 O307 2.266 . S
In299 O308 2.325 . S
In299 O310 2.294 . S
In299 O311 2.326 1_554 S
O300 In299 2.294 1_556 S
O300 C309 1.240 . S
O301 In299 2.326 . S
O301 C309 1.252 1_554 S
C302 O305 1.252 . S
C302 O306 1.260 . S
C303 O310 1.255 . S
C303 O311 1.237 1_554 S
C304 O307 1.252 . S
C304 O308 1.260 . S
O305 In299 2.266 1_556 S
O305 C302 1.252 . S
O306 In299 2.326 1_556 S
O306 C302 1.260 . S
O307 In299 2.266 . S
O307 C304 1.252 . S
O308 In299 2.325 . S
O308 C304 1.260 . S
C309 O300 1.240 . S
C309 O301 1.252 1_556 S
O310 In299 2.294 . S
O310 C303 1.255 . S
O311 In299 2.326 1_556 S
O311 C303 1.237 1_556 S
C312 C313 1.387 . S
C312 H316 0.950 1_545 S
C312 C321 1.390 . S
C313 C312 1.387 . S
C313 C315 1.387 . S
H314 C321 0.950 . S
C315 C313 1.387 . S
C315 C317 1.390 . S
C315 H319 0.950 . S
H316 C312 0.950 1_565 S
C317 C315 1.390 . S
C317 C318 1.387 . S
C317 H320 0.950 . S
C318 C317 1.387 . S
C318 C321 1.387 . S
H319 C315 0.950 . S
H320 C317 0.950 . S
C321 C312 1.390 . S
C321 H314 0.950 . S
C321 C318 1.387 . S
C322 C323 1.387 . S
C322 H326 0.950 . S
C322 C331 1.390 . S
C323 C322 1.387 . S
C323 C325 1.387 . S
H324 C331 0.950 . S
C325 C323 1.387 . S
C325 C327 1.390 . S
C325 H329 0.950 . S
H326 C322 0.950 . S
C327 C325 1.390 . S
C327 C328 1.387 . S
C327 H330 0.950 . S
C328 C327 1.387 . S
C328 C331 1.387 . S
H329 C325 0.950 . S
H330 C327 0.950 . S
C331 C322 1.390 . S
C331 H324 0.950 . S
C331 C328 1.387 . S
C332 C333 1.387 . S
C332 H336 0.950 . S
C332 C341 1.390 . S
C333 C332 1.387 . S
C333 C335 1.387 . S
H334 C341 0.950 . S
C335 C333 1.387 . S
C335 C337 1.390 1_554 S
C335 H339 0.950 . S
H336 C332 0.950 . S
C337 C335 1.390 1_556 S
C337 C338 1.387 . S
C337 H340 0.950 . S
C338 C337 1.387 . S
C338 C341 1.387 1_556 S
H339 C335 0.950 . S
H340 C337 0.950 . S
C341 C332 1.390 . S
C341 H334 0.950 . S
C341 C338 1.387 1_554 S
C342 C343 1.387 . S
C342 H346 0.950 . S
C342 C351 1.390 . S
C343 C342 1.387 . S
C343 C345 1.387 . S
H344 C351 0.950 1_556 S
C345 C343 1.387 . S
C345 C347 1.390 . S
C345 H349 0.950 . S
H346 C342 0.950 . S
C347 C345 1.390 . S
C347 C348 1.387 1_554 S
C347 H350 0.950 1_554 S
C348 C347 1.387 1_556 S
C348 C351 1.387 1_556 S
H349 C345 0.950 . S
H350 C347 0.950 1_556 S
C351 C342 1.390 . S
C351 H344 0.950 1_554 S
C351 C348 1.387 1_554 S
C352 C353 1.387 . S
C352 H356 0.950 . S
C352 C361 1.390 . S
C353 C352 1.387 . S
C353 C355 1.387 . S
H354 C361 0.950 . S
C355 C353 1.387 . S
C355 C357 1.390 . S
C355 H359 0.950 . S
H356 C352 0.950 . S
C357 C355 1.390 . S
C357 C358 1.387 . S
C357 H360 0.950 . S
C358 C357 1.387 . S
C358 C361 1.387 . S
H359 C355 0.950 . S
H360 C357 0.950 . S
C361 C352 1.390 . S
C361 H354 0.950 . S
C361 C358 1.387 . S
C362 C363 1.387 . S
C362 H366 0.950 . S
C362 C371 1.390 . S
C363 C362 1.387 . S
C363 C365 1.387 . S
H364 C371 0.950 1_556 S
C365 C363 1.387 . S
C365 C367 1.390 . S
C365 H369 0.950 . S
H366 C362 0.950 . S
C367 C365 1.390 . S
C367 C368 1.387 . S
C367 H370 0.950 . S
C368 C367 1.387 . S
C368 C371 1.387 . S
H369 C365 0.950 . S
H370 C367 0.950 . S
C371 C362 1.390 . S
C371 H364 0.950 1_554 S
C371 C368 1.387 . S
C372 C373 1.387 . S
C372 H376 0.950 . S
C372 C381 1.390 . S
C373 C372 1.387 . S
C373 C375 1.387 . S
H374 C381 0.950 . S
C375 C373 1.387 . S
C375 C377 1.390 . S
C375 H379 0.950 . S
H376 C372 0.950 . S
C377 C375 1.390 . S
C377 C378 1.387 . S
C377 H380 0.950 . S
C378 C377 1.387 . S
C378 C381 1.387 . S
H379 C375 0.950 . S
H380 C377 0.950 . S
C381 C372 1.390 . S
C381 H374 0.950 . S
C381 C378 1.387 . S
C382 C383 1.387 . S
C382 H386 0.950 . S
C382 C391 1.390 . S
C383 C382 1.387 . S
C383 C385 1.387 . S
H384 C391 0.950 . S
C385 C383 1.387 . S
C385 C387 1.390 . S
C385 H389 0.950 . S
H386 C382 0.950 . S
C387 C385 1.390 . S
C387 C388 1.387 . S
C387 H390 0.950 . S
C388 C387 1.387 . S
C388 C391 1.387 . S
H389 C385 0.950 . S
H390 C387 0.950 . S
C391 C382 1.390 . S
C391 H384 0.950 . S
C391 C388 1.387 . S
C392 C393 1.387 . S
C392 H396 0.950 . S
C392 C401 1.390 . S
C393 C392 1.387 . S
C393 C395 1.387 . S
H394 C401 0.950 . S
C395 C393 1.387 . S
C395 C397 1.390 . S
C395 H399 0.950 . S
H396 C392 0.950 . S
C397 C395 1.390 . S
C397 C398 1.387 . S
C397 H400 0.950 . S
C398 C397 1.387 . S
C398 C401 1.387 . S
H399 C395 0.950 . S
H400 C397 0.950 . S
C401 C392 1.390 . S
C401 H394 0.950 . S
C401 C398 1.387 . S
C402 C403 1.387 . S
C402 H406 0.950 . S
C402 C411 1.390 . S
C403 C402 1.387 . S
C403 C405 1.387 . S
H404 C411 0.950 . S
C405 C403 1.387 . S
C405 C407 1.390 . S
C405 H409 0.950 . S
H406 C402 0.950 . S
C407 C405 1.390 . S
C407 C408 1.387 . S
C407 H410 0.950 . S
C408 C407 1.387 . S
C408 C411 1.387 . S
H409 C405 0.950 . S
H410 C407 0.950 . S
C411 C402 1.390 . S
C411 H404 0.950 . S
C411 C408 1.387 . S
C412 C413 1.387 . S
C412 H416 0.950 . S
C412 C421 1.390 1_565 S
C413 C412 1.387 . S
C413 C415 1.387 . S
H414 C421 0.950 . S
C415 C413 1.387 . S
C415 C417 1.390 . S
C415 H419 0.950 . S
H416 C412 0.950 . S
C417 C415 1.390 . S
C417 C418 1.387 1_565 S
C417 H420 0.950 . S
C418 C417 1.387 1_545 S
C418 C421 1.387 . S
H419 C415 0.950 . S
H420 C417 0.950 . S
C421 C412 1.390 1_545 S
C421 H414 0.950 . S
C421 C418 1.387 . S
C422 C423 1.387 . S
C422 H426 0.950 . S
C422 C431 1.390 . S
C423 C422 1.387 . S
C423 C425 1.387 . S
H424 C431 0.950 . S
C425 C423 1.387 . S
C425 C427 1.390 . S
C425 H429 0.950 . S
H426 C422 0.950 . S
C427 C425 1.390 . S
C427 C428 1.387 . S
C427 H430 0.950 . S
C428 C427 1.387 . S
C428 C431 1.387 . S
H429 C425 0.950 . S
H430 C427 0.950 . S
C431 C422 1.390 . S
C431 H424 0.950 . S
C431 C428 1.387 . S
C432 C433 1.387 1_556 S
C432 H436 0.955 . S
C432 C441 1.390 . S
C433 C432 1.387 1_554 S
C433 C435 1.387 1_554 S
H434 C441 0.950 . S
C435 C433 1.387 1_556 S
C435 C437 1.390 . S
C435 H439 0.950 1_556 S
H436 C432 0.955 . S
C437 C435 1.390 . S
C437 C438 1.387 . S
C437 H440 0.950 . S
C438 C437 1.387 . S
C438 C441 1.387 . S
H439 C435 0.950 1_554 S
H440 C437 0.950 . S
C441 C432 1.390 . S
C441 H434 0.950 . S
C441 C438 1.387 . S
C442 C443 1.387 1_556 S
C442 H446 0.943 1_565 S
C442 C451 1.390 . S
C443 C442 1.387 1_554 S
C443 C445 1.387 1_554 S
H444 C451 0.950 . S
C445 C443 1.387 1_556 S
C445 C447 1.390 . S
C445 H449 0.950 1_556 S
H446 C442 0.943 1_545 S
C447 C445 1.390 . S
C447 C448 1.387 . S
C447 H450 0.950 . S
C448 C447 1.387 . S
C448 C451 1.387 . S
H449 C445 0.950 1_554 S
H450 C447 0.950 . S
C451 C442 1.390 . S
C451 H444 0.950 . S
C451 C448 1.387 . S
C452 C453 1.387 . S
C452 H456 0.950 . S
C452 C461 1.390 . S
C453 C452 1.387 . S
C453 C455 1.387 . S
H454 C461 0.950 . S
C455 C453 1.387 . S
C455 C457 1.390 . S
C455 H459 0.950 . S
H456 C452 0.950 . S
C457 C455 1.390 . S
C457 C458 1.387 . S
C457 H460 0.950 . S
C458 C457 1.387 . S
C458 C461 1.387 . S
H459 C455 0.950 . S
H460 C457 0.950 . S
C461 C452 1.390 . S
C461 H454 0.950 . S
C461 C458 1.387 . S
C462 C463 1.387 . S
C462 H466 0.950 . S
C462 C471 1.390 . S
C463 C462 1.387 . S
C463 C465 1.387 . S
H464 C471 0.945 1_565 S
C465 C463 1.387 . S
C465 C467 1.390 . S
C465 H469 0.950 . S
H466 C462 0.950 . S
C467 C465 1.390 . S
C467 C468 1.387 . S
C467 H470 0.950 . S
C468 C467 1.387 . S
C468 C471 1.387 . S
H469 C465 0.950 . S
H470 C467 0.950 . S
C471 C462 1.390 . S
C471 H464 0.945 1_545 S
C471 C468 1.387 . S
C472 C473 1.387 1_655 S
C472 H476 0.950 . S
C472 C481 1.390 . S
C473 C472 1.387 1_455 S
C473 C475 1.387 1_455 S
H474 C481 0.950 . S
C475 C473 1.387 1_655 S
C475 C477 1.390 . S
C475 H479 0.950 1_655 S
H476 C472 0.950 . S
C477 C475 1.390 . S
C477 C478 1.387 . S
C477 H480 0.950 . S
C478 C477 1.387 . S
C478 C481 1.387 . S
H479 C475 0.950 1_455 S
H480 C477 0.950 . S
C481 C472 1.390 . S
C481 H474 0.950 . S
C481 C478 1.387 . S
C482 C483 1.387 1_455 S
C482 H486 0.950 1_455 S
C482 C491 1.390 . S
C483 C482 1.387 1_655 S
C483 C485 1.387 1_655 S
H484 C491 0.950 . S
C485 C483 1.387 1_455 S
C485 C487 1.390 . S
C485 H489 0.950 1_455 S
H486 C482 0.950 1_655 S
C487 C485 1.390 . S
C487 C488 1.387 . S
C487 H490 0.950 . S
C488 C487 1.387 . S
C488 C491 1.387 . S
H489 C485 0.950 1_655 S
H490 C487 0.950 . S
C491 C482 1.390 . S
C491 H484 0.950 . S
C491 C488 1.387 . S
C492 C493 1.387 1_655 S
C492 H496 0.950 . S
C492 C501 1.390 . S
C493 C492 1.387 1_455 S
C493 C495 1.387 1_455 S
H494 C501 0.950 . S
C495 C493 1.387 1_655 S
C495 C497 1.394 . S
C495 H499 0.947 1_655 S
H496 C492 0.950 . S
C497 C495 1.394 . S
C497 C498 1.387 . S
C497 H500 0.950 . S
C498 C497 1.387 . S
C498 C501 1.387 . S
H499 C495 0.947 1_455 S
H500 C497 0.950 . S
C501 C492 1.390 . S
C501 H494 0.950 . S
C501 C498 1.387 . S
C502 C503 1.387 . S
C502 H506 0.950 . S
C502 C511 1.390 . S
C503 C502 1.387 . S
C503 C505 1.387 . S
H504 C511 0.950 1_655 S
C505 C503 1.387 . S
C505 C507 1.390 . S
C505 H509 0.950 . S
H506 C502 0.950 . S
C507 C505 1.390 . S
C507 C508 1.387 1_455 S
C507 H510 0.950 1_455 S
C508 C507 1.387 1_655 S
C508 C511 1.387 1_655 S
H509 C505 0.950 . S
H510 C507 0.950 1_655 S
C511 C502 1.390 . S
C511 H504 0.950 1_455 S
C511 C508 1.387 1_455 S
C512 C513 1.387 1_565 S
C512 H516 0.950 1_565 S
C512 C521 1.390 . S
C513 C512 1.387 1_545 S
C513 C515 1.387 1_545 S
H514 C521 0.950 . S
C515 C513 1.387 1_565 S
C515 C517 1.390 . S
C515 H519 0.950 1_565 S
H516 C512 0.950 1_545 S
C517 C515 1.390 . S
C517 C518 1.387 . S
C517 H520 0.950 . S
C518 C517 1.387 . S
C518 C521 1.387 . S
H519 C515 0.950 1_545 S
H520 C517 0.950 . S
C521 C512 1.390 . S
C521 H514 0.950 . S
C521 C518 1.387 . S
C522 C523 1.387 . S
C522 H526 0.950 . S
C522 C531 1.390 . S
C523 C522 1.387 . S
C523 C525 1.387 . S
H524 C531 0.950 . S
C525 C523 1.387 . S
C525 C527 1.390 1_545 S
C525 H529 0.950 . S
H526 C522 0.950 . S
C527 C525 1.390 1_565 S
C527 C528 1.387 . S
C527 H530 0.950 . S
C528 C527 1.387 . S
C528 C531 1.387 1_565 S
H529 C525 0.950 . S
H530 C527 0.950 . S
C531 C522 1.390 . S
C531 H524 0.950 . S
C531 C528 1.387 1_545 S
C532 C533 1.387 . S
C532 H536 0.950 . S
C532 C541 1.390 . S
C533 C532 1.387 . S
C533 C535 1.387 . S
H534 C541 0.950 . S
C535 C533 1.387 . S
C535 C537 1.390 . S
C535 H539 0.950 . S
H536 C532 0.950 . S
C537 C535 1.390 . S
C537 C538 1.387 . S
C537 H540 0.950 . S
C538 C537 1.387 . S
C538 C541 1.387 . S
H539 C535 0.950 . S
H540 C537 0.950 . S
C541 C532 1.390 . S
C541 H534 0.950 . S
C541 C538 1.387 . S
C542 C543 1.387 . S
C542 H546 0.950 . S
C542 C551 1.390 1_545 S
C543 C542 1.387 . S
C543 C545 1.387 . S
H544 C551 0.950 . S
C545 C543 1.387 . S
C545 C547 1.390 . S
C545 H549 0.950 . S
H546 C542 0.950 . S
C547 C545 1.390 . S
C547 C548 1.387 1_545 S
C547 H550 0.950 . S
C548 C547 1.387 1_565 S
C548 C551 1.387 . S
H549 C545 0.950 . S
H550 C547 0.950 . S
C551 C542 1.390 1_565 S
C551 H544 0.950 . S
C551 C548 1.387 . S
C552 C553 1.387 . S
C552 H556 0.950 . S
C552 C561 1.390 . S
C553 C552 1.387 . S
C553 C555 1.387 1_655 S
H554 C561 0.950 . S
C555 C553 1.387 1_455 S
C555 C557 1.390 . S
C555 H559 0.950 . S
H556 C552 0.950 . S
C557 C555 1.390 . S
C557 C558 1.387 . S
C557 H560 0.950 . S
C558 C557 1.387 . S
C558 C561 1.387 1_455 S
H559 C555 0.950 . S
H560 C557 0.950 . S
C561 C552 1.390 . S
C561 H554 0.950 . S
C561 C558 1.387 1_655 S
C562 C563 1.387 . S
C562 H566 0.950 . S
C562 C571 1.390 1_455 S
C563 C562 1.387 . S
C563 C565 1.387 . S
H564 C571 0.950 . S
C565 C563 1.387 . S
C565 C567 1.390 1_455 S
C565 H569 0.950 . S
H566 C562 0.950 . S
C567 C565 1.390 1_655 S
C567 C568 1.387 . S
C567 H570 0.950 . S
C568 C567 1.387 . S
C568 C571 1.387 . S
H569 C565 0.950 . S
H570 C567 0.950 . S
C571 C562 1.390 1_655 S
C571 H564 0.950 . S
C571 C568 1.387 . S
C572 C573 1.387 . S
C572 H576 0.950 . S
C572 C581 1.390 . S
C573 C572 1.387 . S
C573 C575 1.387 1_565 S
H574 C581 0.950 . S
C575 C573 1.387 1_545 S
C575 C577 1.390 . S
C575 H579 0.950 . S
H576 C572 0.950 . S
C577 C575 1.390 . S
C577 C578 1.387 . S
C577 H580 0.950 . S
C578 C577 1.387 . S
C578 C581 1.387 1_545 S
H579 C575 0.950 . S
H580 C577 0.950 . S
C581 C572 1.390 . S
C581 H574 0.950 . S
C581 C578 1.387 1_565 S
C582 C583 1.387 . S
C582 H586 0.950 . S
C582 C591 1.390 . S
C583 C582 1.387 . S
C583 C585 1.387 . S
H584 C591 0.950 . S
C585 C583 1.387 . S
C585 C587 1.390 . S
C585 H589 0.950 . S
H586 C582 0.950 . S
C587 C585 1.390 . S
C587 C588 1.387 . S
C587 H590 0.950 . S
C588 C587 1.387 . S
C588 C591 1.387 . S
H589 C585 0.950 . S
H590 C587 0.950 . S
C591 C582 1.390 . S
C591 H584 0.950 . S
C591 C588 1.387 . S
C592 C593 1.387 . S
C592 H596 0.950 . S
C592 C601 1.390 . S
C593 C592 1.387 . S
C593 C595 1.387 1_554 S
H594 C601 0.950 . S
C595 C593 1.387 1_556 S
C595 C597 1.390 . S
C595 H599 0.950 . S
H596 C592 0.950 . S
C597 C595 1.390 . S
C597 C598 1.387 . S
C597 H600 0.950 . S
C598 C597 1.387 . S
C598 C601 1.387 1_556 S
H599 C595 0.950 . S
H600 C597 0.950 . S
C601 C592 1.390 . S
C601 H594 0.950 . S
C601 C598 1.387 1_554 S
C602 C603 1.387 . S
C602 H606 0.950 . S
C602 C611 1.390 . S
C603 C602 1.387 . S
C603 C605 1.387 . S
H604 C611 0.950 . S
C605 C603 1.387 . S
C605 C607 1.390 . S
C605 H609 0.950 . S
H606 C602 0.950 . S
C607 C605 1.390 . S
C607 C608 1.387 . S
C607 H610 0.950 . S
C608 C607 1.387 . S
C608 C611 1.387 . S
H609 C605 0.950 . S
H610 C607 0.950 . S
C611 C602 1.390 . S
C611 H604 0.950 . S
C611 C608 1.387 . S
C612 C613 1.387 . S
C612 H616 0.950 . S
C612 C621 1.390 . S
C613 C612 1.387 . S
C613 C615 1.387 . S
H614 C621 0.950 . S
C615 C613 1.387 . S
C615 C617 1.390 . S
C615 H619 0.950 . S
H616 C612 0.950 . S
C617 C615 1.390 . S
C617 C618 1.387 . S
C617 H620 0.950 . S
C618 C617 1.387 . S
C618 C621 1.387 . S
H619 C615 0.950 . S
H620 C617 0.950 . S
C621 C612 1.390 . S
C621 H614 0.950 . S
C621 C618 1.387 . S
C622 C623 1.387 . S
C622 H626 0.950 . S
C622 C631 1.390 . S
C623 C622 1.387 . S
C623 C625 1.387 . S
H624 C631 0.950 . S
C625 C623 1.387 . S
C625 C627 1.390 . S
C625 H629 0.950 . S
H626 C622 0.950 . S
C627 C625 1.390 . S
C627 C628 1.387 . S
C627 H630 0.950 . S
C628 C627 1.387 . S
C628 C631 1.387 . S
H629 C625 0.950 . S
H630 C627 0.950 . S
C631 C622 1.390 . S
C631 H624 0.950 . S
C631 C628 1.387 . S
C632 C633 1.387 . S
C632 H636 0.950 . S
C632 C641 1.390 . S
C633 C632 1.387 . S
C633 C635 1.387 . S
H634 C641 0.950 . S
C635 C633 1.387 . S
C635 C637 1.390 . S
C635 H639 0.950 . S
H636 C632 0.950 . S
C637 C635 1.390 . S
C637 C638 1.387 . S
C637 H640 0.950 . S
C638 C637 1.387 . S
C638 C641 1.387 . S
H639 C635 0.950 . S
H640 C637 0.950 . S
C641 C632 1.390 . S
C641 H634 0.950 . S
C641 C638 1.387 . S
C642 C643 1.387 . S
C642 H646 0.950 . S
C642 C651 1.390 . S
C643 C642 1.387 . S
C643 C645 1.387 . S
H644 C651 0.950 . S
C645 C643 1.387 . S
C645 C647 1.390 . S
C645 H649 0.950 . S
H646 C642 0.950 . S
C647 C645 1.390 . S
C647 C648 1.387 . S
C647 H650 0.950 . S
C648 C647 1.387 . S
C648 C651 1.387 . S
H649 C645 0.950 . S
H650 C647 0.950 . S
C651 C642 1.390 . S
C651 H644 0.950 . S
C651 C648 1.387 . S
C652 C653 1.387 . S
C652 H656 0.950 . S
C652 C661 1.390 1_545 S
C653 C652 1.387 . S
C653 C655 1.387 . S
H654 C661 0.950 . S
C655 C653 1.387 . S
C655 C657 1.391 . S
C655 H659 0.950 . S
H656 C652 0.950 . S
C657 C655 1.391 . S
C657 C658 1.387 1_545 S
C657 H660 0.950 1_545 S
C658 C657 1.387 1_565 S
C658 C661 1.387 . S
H659 C655 0.950 . S
H660 C657 0.950 1_565 S
C661 C652 1.390 1_565 S
C661 H654 0.950 . S
C661 C658 1.387 . S
C662 C663 1.387 . S
C662 H666 0.950 . S
C662 C671 1.390 . S
C663 C662 1.387 . S
C663 C665 1.387 1_556 S
H664 C671 0.950 . S
C665 C663 1.387 1_554 S
C665 C667 1.390 . S
C665 H669 0.950 . S
H666 C662 0.950 . S
C667 C665 1.390 . S
C667 C668 1.387 . S
C667 H670 0.950 . S
C668 C667 1.387 . S
C668 C671 1.387 1_554 S
H669 C665 0.950 . S
H670 C667 0.950 . S
C671 C662 1.390 . S
C671 H664 0.950 . S
C671 C668 1.387 1_556 S
C672 C673 1.389 . S
C672 H676 0.950 . S
C672 C681 1.390 1_565 S
C673 C672 1.389 . S
C673 C675 1.386 1_455 S
H674 C681 0.950 . S
C675 C673 1.386 1_655 S
C675 C677 1.390 1_565 S
C675 H679 0.950 . S
H676 C672 0.950 . S
C677 C675 1.390 1_545 S
C677 C678 1.387 . S
C677 H680 0.950 . S
C678 C677 1.387 . S
C678 C681 1.387 1_655 S
H679 C675 0.950 . S
H680 C677 0.950 . S
C681 C672 1.390 1_545 S
C681 H674 0.950 . S
C681 C678 1.387 1_455 S
C682 C683 1.388 1_655 S
C682 H686 0.950 . S
C682 C691 1.390 . S
C683 C682 1.388 1_455 S
C683 C685 1.387 . S
H684 C691 0.950 . S
C685 C683 1.387 . S
C685 C687 1.390 . S
C685 H689 0.950 . S
H686 C682 0.950 . S
C687 C685 1.390 . S
C687 C688 1.387 1_455 S
C687 H690 0.950 . S
C688 C687 1.387 1_655 S
C688 C691 1.387 . S
H689 C685 0.950 . S
H690 C687 0.950 . S
C691 C682 1.390 . S
C691 H684 0.950 . S
C691 C688 1.387 . S
C692 C693 1.390 . S
C692 H696 0.950 . S
C692 C701 1.390 1_556 S
C693 C692 1.390 . S
C693 C695 1.385 1_545 S
H694 C701 0.950 . S
C695 C693 1.385 1_565 S
C695 C697 1.390 1_556 S
C695 H699 0.950 . S
H696 C692 0.950 . S
C697 C695 1.390 1_554 S
C697 C698 1.387 . S
C697 H700 0.950 . S
C698 C697 1.387 . S
C698 C701 1.387 1_565 S
H699 C695 0.950 . S
H700 C697 0.950 . S
C701 C692 1.390 1_554 S
C701 H694 0.950 . S
C701 C698 1.387 1_545 S
C702 C703 1.387 . S
C702 H706 0.950 . S
C702 C711 1.390 1_554 S
C703 C702 1.387 . S
C703 C705 1.387 . S
H704 C711 0.950 . S
C705 C703 1.387 . S
C705 C707 1.390 1_554 S
C705 H709 0.950 . S
H706 C702 0.950 . S
C707 C705 1.390 1_556 S
C707 C708 1.387 . S
C707 H710 0.950 . S
C708 C707 1.387 . S
C708 C711 1.387 . S
H709 C705 0.950 . S
H710 C707 0.950 . S
C711 C702 1.390 1_556 S
C711 H704 0.950 . S
C711 C708 1.387 . S
C712 C713 1.388 . S
C712 H716 0.950 . S
C712 C721 1.390 . S
C713 C712 1.388 . S
C713 C715 1.387 1_545 S
H714 C721 0.950 . S
C715 C713 1.387 1_565 S
C715 C717 1.390 . S
C715 H719 0.950 . S
H716 C712 0.950 . S
C717 C715 1.390 . S
C717 C718 1.387 . S
C717 H720 0.950 . S
C718 C717 1.387 . S
C718 C721 1.387 1_565 S
H719 C715 0.950 . S
H720 C717 0.950 . S
C721 C712 1.390 . S
C721 H714 0.950 . S
C721 C718 1.387 1_545 S
C722 C723 1.387 . S
C722 H726 0.950 . S
C722 C731 1.390 . S
C723 C722 1.387 . S
C723 C725 1.387 . S
H724 C731 0.950 . S
C725 C723 1.387 . S
C725 C727 1.390 . S
C725 H729 0.950 . S
H726 C722 0.950 . S
C727 C725 1.390 . S
C727 C728 1.387 . S
C727 H730 0.950 . S
C728 C727 1.387 . S
C728 C731 1.387 . S
H729 C725 0.950 . S
H730 C727 0.950 . S
C731 C722 1.390 . S
C731 H724 0.950 . S
C731 C728 1.387 . S
C732 C733 1.387 1_554 S
C732 H736 0.950 . S
C732 C741 1.390 1_455 S
C733 C732 1.387 1_556 S
C733 C735 1.387 . S
H734 C741 0.950 . S
C735 C733 1.387 . S
C735 C737 1.390 1_455 S
C735 H739 0.950 . S
H736 C732 0.950 . S
C737 C735 1.390 1_655 S
C737 C738 1.385 1_556 S
C737 H740 0.950 . S
C738 C737 1.385 1_554 S
C738 C741 1.390 . S
H739 C735 0.950 . S
H740 C737 0.950 . S
C741 C732 1.390 1_655 S
C741 H734 0.950 . S
C741 C738 1.390 . S
C742 C743 1.387 . S
C742 H746 0.950 . S
C742 C751 1.390 1_455 S
C743 C742 1.387 . S
C743 C745 1.387 . S
H744 C751 0.950 . S
C745 C743 1.387 . S
C745 C747 1.390 1_455 S
C745 H749 0.950 . S
H746 C742 0.950 . S
C747 C745 1.390 1_655 S
C747 C748 1.387 . S
C747 H750 0.950 . S
C748 C747 1.387 . S
C748 C751 1.387 . S
H749 C745 0.950 . S
H750 C747 0.950 . S
C751 C742 1.390 1_655 S
C751 H744 0.950 . S
C751 C748 1.387 . S
C752 C753 1.387 . S
C752 H756 0.950 . S
C752 C761 1.390 . S
C753 C752 1.387 . S
C753 C755 1.387 . S
H754 C761 0.950 . S
C755 C753 1.387 . S
C755 C757 1.390 . S
C755 H759 0.950 . S
H756 C752 0.950 . S
C757 C755 1.390 . S
C757 C758 1.387 . S
C757 H760 0.950 . S
C758 C757 1.387 . S
C758 C761 1.387 . S
H759 C755 0.950 . S
H760 C757 0.950 . S
C761 C752 1.390 . S
C761 H754 0.950 . S
C761 C758 1.387 . S
C762 C763 1.387 . S
C762 H766 0.950 . S
C762 C771 1.390 . S
C763 C762 1.387 . S
C763 C765 1.387 . S
H764 C771 0.950 . S
C765 C763 1.387 . S
C765 C767 1.390 . S
C765 H769 0.950 . S
H766 C762 0.950 . S
C767 C765 1.390 . S
C767 C768 1.387 . S
C767 H770 0.950 . S
C768 C767 1.387 . S
C768 C771 1.387 . S
H769 C765 0.950 . S
H770 C767 0.950 . S
C771 C762 1.390 . S
C771 H764 0.950 . S
C771 C768 1.387 . S
C772 C773 1.387 . S
C772 H776 0.950 . S
C772 C781 1.390 1_565 S
C773 C772 1.387 . S
C773 C775 1.387 . S
H774 C781 0.950 . S
C775 C773 1.387 . S
C775 C777 1.390 1_565 S
C775 H779 0.950 . S
H776 C772 0.950 . S
C777 C775 1.390 1_545 S
C777 C778 1.387 . S
C777 H780 0.950 . S
C778 C777 1.387 . S
C778 C781 1.387 . S
H779 C775 0.950 . S
H780 C777 0.950 . S
C781 C772 1.390 1_545 S
C781 H774 0.950 . S
C781 C778 1.387 . S
C782 C783 1.387 . S
C782 H786 0.950 . S
C782 C791 1.390 . S
C783 C782 1.387 . S
C783 C785 1.388 1_554 S
H784 C791 0.950 . S
C785 C783 1.388 1_556 S
C785 C787 1.390 . S
C785 H789 0.950 . S
H786 C782 0.950 . S
C787 C785 1.390 . S
C787 C788 1.387 . S
C787 H790 0.950 . S
C788 C787 1.387 . S
C788 C791 1.387 1_556 S
H789 C785 0.950 . S
H790 C787 0.950 . S
C791 C782 1.390 . S
C791 H784 0.950 . S
C791 C788 1.387 1_554 S
C313 C224 0.794 . S
C318 C3 0.792 . S
C323 C18 0.891 . S
C328 C213 0.861 . S
C333 C31 0.927 . S
C338 C252 0.926 . S
C343 C42 1.021 . S
C348 C237 0.972 . S
C353 C57 0.796 . S
C358 C278 0.798 . S
C363 C68 0.885 . S
C368 C291 0.880 . S
C373 C263 0.858 . S
C378 C83 0.886 . S
C383 C146 0.932 . S
C388 C94 0.978 . S
C393 C107 0.797 . S
C398 C44 0.794 . S
C403 C16 0.881 . S
C408 C120 0.886 . S
C413 C135 1.023 . S
C418 C5 1.009 . S
C423 C148 0.978 . S
C428 C185 0.935 . S
C433 C70 1.051 . S
C438 C161 1.112 . S
C443 C55 1.008 . S
C448 C174 1.021 . S
C453 C187 0.978 . S
C458 C96 0.934 . S
C463 C200 0.885 . S
C468 C81 0.880 . S
C473 C122 1.051 . S
C478 C211 1.112 . S
C483 C133 0.973 . S
C488 C226 1.019 . S
C493 C109 1.010 . S
C498 C239 1.023 . S
C503 C250 0.928 . S
C508 C302 0.924 . S
C513 C198 1.050 . S
C518 C265 1.110 . S
C523 C276 1.019 . S
C528 C172 0.973 . S
C533 C159 0.863 . S
C538 C289 0.886 . S
C543 C304 0.931 . S
C548 C29 0.924 . S
C553 C4 1.908 . S
C558 C23 1.894 . S
C563 C43 1.835 . S
C568 C36 1.849 . S
C573 C62 1.908 . S
C578 C88 1.893 . S
C583 C69 2.098 . S
C588 C95 2.079 . S
C593 C290 1.894 . S
C598 C108 1.908 . S
C603 C121 2.098 . S
C608 C153 2.079 . S
C613 C270 2.024 . S
C618 C140 2.043 . S
C623 C179 2.043 . S
C628 C166 2.024 . S
C633 C192 2.082 . S
C638 C205 2.101 . S
C643 C244 2.040 . S
C648 C212 2.022 . S
C653 C231 1.835 . S
C658 C251 1.849 . S
C663 C309 1.849 . S
C668 C277 1.835 . S
C673 C30 1.563 . S
C678 C10 1.567 . S
C683 C17 1.750 . S
C688 C49 1.744 . S
C693 C257 1.563 . S
C698 C56 1.567 . S
C703 C75 1.673 . S
C708 C238 1.671 . S
C713 C82 1.746 . S
C718 C225 1.740 . S
C723 C218 1.852 . S
C728 C101 1.856 . S
C733 C114 1.567 . S
C738 C303 1.563 . S
C743 C127 1.677 . S
C748 C134 1.675 . S
C753 C264 1.852 . S
C758 C147 1.856 . S
C763 C160 1.852 . S
C768 C186 1.856 . S
C773 C173 1.671 . S
C778 C199 1.673 . S
C783 C296 1.746 . S
C788 C283 1.740 . S
