# Generated by pormake.
# Topology ukh, (4)-cn, num edge types: 1
# Building blocks:
#     Node 0, Type 0, BuildingBlock: CEKHIL_clean_sbu_0, # of connection points: 4
#     Node 1, Type 0, BuildingBlock: CEKHIL_clean_sbu_0, # of connection points: 4
#     Node 2, Type 0, BuildingBlock: CEKHIL_clean_sbu_0, # of connection points: 4
#     Node 3, Type 0, BuildingBlock: CEKHIL_clean_sbu_0, # of connection points: 4
#     Node 4, Type 0, BuildingBlock: CEKHIL_clean_sbu_0, # of connection points: 4
#     Node 5, Type 0, BuildingBlock: CEKHIL_clean_sbu_0, # of connection points: 4
#     Node 6, Type 0, BuildingBlock: CEKHIL_clean_sbu_0, # of connection points: 4
#     Node 7, Type 0, BuildingBlock: CEKHIL_clean_sbu_0, # of connection points: 4
#     Node 8, Type 0, BuildingBlock: CEKHIL_clean_sbu_0, # of connection points: 4
#     Node 9, Type 0, BuildingBlock: CEKHIL_clean_sbu_0, # of connection points: 4
#     Node 10, Type 0, BuildingBlock: CEKHIL_clean_sbu_0, # of connection points: 4
#     Node 11, Type 0, BuildingBlock: CEKHIL_clean_sbu_0, # of connection points: 4
#     Edge 12, Type (0, 0), BuildingBlock: ZUJKAS_clean_linker_0, # of connection points: 2
#     Edge 13, Type (0, 0), BuildingBlock: ZUJKAS_clean_linker_0, # of connection points: 2
#     Edge 14, Type (0, 0), BuildingBlock: ZUJKAS_clean_linker_0, # of connection points: 2
#     Edge 15, Type (0, 0), BuildingBlock: ZUJKAS_clean_linker_0, # of connection points: 2
#     Edge 16, Type (0, 0), BuildingBlock: ZUJKAS_clean_linker_0, # of connection points: 2
#     Edge 17, Type (0, 0), BuildingBlock: ZUJKAS_clean_linker_0, # of connection points: 2
#     Edge 18, Type (0, 0), BuildingBlock: ZUJKAS_clean_linker_0, # of connection points: 2
#     Edge 19, Type (0, 0), BuildingBlock: ZUJKAS_clean_linker_0, # of connection points: 2
#     Edge 20, Type (0, 0), BuildingBlock: ZUJKAS_clean_linker_0, # of connection points: 2
#     Edge 21, Type (0, 0), BuildingBlock: ZUJKAS_clean_linker_0, # of connection points: 2
#     Edge 22, Type (0, 0), BuildingBlock: ZUJKAS_clean_linker_0, # of connection points: 2
#     Edge 23, Type (0, 0), BuildingBlock: ZUJKAS_clean_linker_0, # of connection points: 2
#     Edge 24, Type (0, 0), BuildingBlock: ZUJKAS_clean_linker_0, # of connection points: 2
#     Edge 25, Type (0, 0), BuildingBlock: ZUJKAS_clean_linker_0, # of connection points: 2
#     Edge 26, Type (0, 0), BuildingBlock: ZUJKAS_clean_linker_0, # of connection points: 2
#     Edge 27, Type (0, 0), BuildingBlock: ZUJKAS_clean_linker_0, # of connection points: 2
#     Edge 28, Type (0, 0), BuildingBlock: ZUJKAS_clean_linker_0, # of connection points: 2
#     Edge 29, Type (0, 0), BuildingBlock: ZUJKAS_clean_linker_0, # of connection points: 2
#     Edge 30, Type (0, 0), BuildingBlock: ZUJKAS_clean_linker_0, # of connection points: 2
#     Edge 31, Type (0, 0), BuildingBlock: ZUJKAS_clean_linker_0, # of connection points: 2
#     Edge 32, Type (0, 0), BuildingBlock: ZUJKAS_clean_linker_0, # of connection points: 2
#     Edge 33, Type (0, 0), BuildingBlock: ZUJKAS_clean_linker_0, # of connection points: 2
#     Edge 34, Type (0, 0), BuildingBlock: ZUJKAS_clean_linker_0, # of connection points: 2
#     Edge 35, Type (0, 0), BuildingBlock: ZUJKAS_clean_linker_0, # of connection points: 2
# Relax obj value: 0.070
# Max RMSD: 0.090
# Mean RMSD: 0.090
data_MOF--net-ukh--node1-CEKHIL_clean_sbu_0--edge1-ZUJKAS_clean_linker_0
_symmetry_space_group_name_H-M    P1
_symmetry_Int_Tables_number       1
_symmetry_cell_setting            triclinic
loop_
_symmetry_equiv_pos_as_xyz
'x, y, z'
_cell_length_a     41.928437
_cell_length_b     41.903508
_cell_length_c     78.94356
_cell_angle_alpha  90.014185
_cell_angle_beta   89.975043
_cell_angle_gamma 120.0143
loop_
_atom_site_label
_atom_site_type_symbol
_atom_site_fract_x
_atom_site_fract_y
_atom_site_fract_z
_atom_type_partial_charge
Co0 Co 0.32855 0.24742 0.05112 0.0
O1 O 0.3468 0.29647 0.05948 0.0
O2 O 0.38102 0.27775 0.04624 0.0
C3 C 0.27854 0.2436 0.03849 0.0
O4 O 0.31745 0.19821 0.04038 0.0
Co5 Co 0.25198 0.18535 0.06379 0.0
O6 O 0.25664 0.15908 0.04393 0.0
C7 C 0.31715 0.21368 0.0862 0.0
C8 C 0.37862 0.30449 0.05343 0.0
C9 C 0.28755 0.1676 0.03722 0.0
O10 O 0.33861 0.23209 0.07386 0.0
O11 O 0.28196 0.19596 0.08498 0.0
O12 O 0.31007 0.25921 0.03074 0.0
O13 O 0.27905 0.23371 0.05391 0.0
Co14 Co 0.07737 0.32748 0.38152 0.0
O15 O 0.04692 0.34694 0.38874 0.0
O16 O 0.10066 0.37976 0.37591 0.0
C17 C 0.03168 0.27702 0.36896 0.0
O18 O 0.11501 0.31449 0.37192 0.0
Co19 Co 0.05986 0.25139 0.39648 0.0
O20 O 0.09269 0.25422 0.37773 0.0
C21 C 0.09422 0.31803 0.41775 0.0
C22 C 0.07144 0.37827 0.38252 0.0
C23 C 0.11533 0.28398 0.37015 0.0
O24 O 0.10157 0.33858 0.40456 0.0
O25 O 0.07447 0.28285 0.41737 0.0
O26 O 0.04818 0.30816 0.36088 0.0
O27 O 0.04086 0.27846 0.38464 0.0
Co28 Co 0.75066 0.07576 0.71572 0.0
O29 O 0.70078 0.04468 0.72287 0.0
O30 O 0.72133 0.09886 0.71051 0.0
C31 C 0.75566 0.03079 0.70259 0.0
O32 O 0.80108 0.11415 0.70626 0.0
Co33 Co 0.80995 0.05866 0.72982 0.0
O34 O 0.83895 0.09127 0.7108 0.0
C35 C 0.77926 0.09371 0.75176 0.0
C36 C 0.69371 0.06922 0.71692 0.0
C37 C 0.83168 0.11438 0.70386 0.0
O38 O 0.76375 0.09924 0.73891 0.0
O39 O 0.79582 0.07505 0.75101 0.0
O40 O 0.74111 0.04764 0.69477 0.0
O41 O 0.76336 0.03919 0.71835 0.0
Co42 Co 0.6725 0.75383 0.04812 0.0
O43 O 0.65633 0.70615 0.05781 0.0
O44 O 0.62026 0.72119 0.04364 0.0
C45 C 0.72314 0.75845 0.03587 0.0
O46 O 0.68094 0.80083 0.03593 0.0
Co47 Co 0.74799 0.82038 0.05907 0.0
O48 O 0.7416 0.84195 0.03795 0.0
C49 C 0.68262 0.795 0.08126 0.0
C50 C 0.62412 0.69603 0.05156 0.0
C51 C 0.70989 0.83135 0.03165 0.0
O52 O 0.66178 0.77119 0.07013 0.0
O53 O 0.71754 0.81549 0.07953 0.0
O54 O 0.69139 0.74051 0.02841 0.0
O55 O 0.72278 0.77035 0.05091 0.0
Co56 Co 0.92363 0.67754 0.38392 0.0
O57 O 0.95663 0.66019 0.38972 0.0
O58 O 0.90249 0.62588 0.37746 0.0
C59 C 0.96666 0.7301 0.37162 0.0
O60 O 0.88342 0.68827 0.37579 0.0
Co61 Co 0.93792 0.75066 0.40099 0.0
O62 O 0.89785 0.7445 0.3857 0.0
C63 C 0.90614 0.68218 0.42088 0.0
C64 C 0.9328 0.62867 0.3834 0.0
C65 C 0.87756 0.71569 0.37698 0.0
O66 O 0.90071 0.66336 0.40722 0.0
O67 O 0.9241 0.71746 0.4212 0.0
O68 O 0.95097 0.69952 0.36309 0.0
O69 O 0.95853 0.72706 0.38751 0.0
Co70 Co 0.24778 0.92464 0.71822 0.0
O71 O 0.29836 0.95747 0.72374 0.0
O72 O 0.27752 0.90222 0.71246 0.0
C73 C 0.23923 0.96738 0.70491 0.0
O74 O 0.19644 0.88432 0.71059 0.0
Co75 Co 0.1903 0.94192 0.73455 0.0
O76 O 0.15531 0.8997 0.72052 0.0
C77 C 0.22615 0.91065 0.75534 0.0
C78 C 0.30543 0.93279 0.71798 0.0
C79 C 0.16329 0.87861 0.71213 0.0
O80 O 0.23889 0.90357 0.7419 0.0
O81 O 0.20967 0.92941 0.75517 0.0
O82 O 0.25348 0.95049 0.69686 0.0
O83 O 0.23412 0.9605 0.72091 0.0
Co84 Co 0.75512 0.67669 0.61247 0.0
O85 O 0.70527 0.66084 0.60625 0.0
O86 O 0.7232 0.625 0.61852 0.0
C87 C 0.76557 0.72935 0.62503 0.0
O88 O 0.80511 0.68566 0.62108 0.0
Co89 Co 0.81611 0.74952 0.59612 0.0
O90 O 0.84882 0.7412 0.61126 0.0
C91 C 0.77873 0.68188 0.57571 0.0
C92 C 0.69643 0.62889 0.61243 0.0
C93 C 0.83888 0.71212 0.62 0.0
O94 O 0.76432 0.66275 0.58921 0.0
O95 O 0.79688 0.71716 0.57565 0.0
O96 O 0.74962 0.69847 0.63333 0.0
O97 O 0.77122 0.72669 0.60916 0.0
Co98 Co 0.0789 0.75329 0.9484 0.0
O99 O 0.04583 0.7058 0.93899 0.0
O100 O 0.09798 0.71979 0.95188 0.0
C101 C 0.03458 0.75897 0.96179 0.0
O102 O 0.11888 0.80013 0.96017 0.0
Co103 Co 0.06994 0.82015 0.93796 0.0
O104 O 0.09977 0.84169 0.95862 0.0
C105 C 0.10737 0.79367 0.91482 0.0
C106 C 0.06794 0.69497 0.94446 0.0
C107 C 0.12101 0.83086 0.96455 0.0
O108 O 0.10522 0.77022 0.92595 0.0
O109 O 0.09315 0.81428 0.91687 0.0
O110 O 0.04845 0.74055 0.96873 0.0
O111 O 0.04557 0.77051 0.94658 0.0
Co112 Co 0.32715 0.0777 0.282 0.0
O113 O 0.34711 0.04611 0.2781 0.0
O114 O 0.37933 0.10296 0.28808 0.0
C115 C 0.27639 0.03448 0.29538 0.0
O116 O 0.31308 0.11662 0.28842 0.0
Co117 Co 0.25191 0.05588 0.26493 0.0
O118 O 0.25281 0.09109 0.28195 0.0
C119 C 0.31984 0.09002 0.24449 0.0
C120 C 0.378 0.0722 0.28392 0.0
C121 C 0.28191 0.11591 0.2892 0.0
O122 O 0.33943 0.09705 0.25801 0.0
O123 O 0.2846 0.07103 0.2445 0.0
O124 O 0.30704 0.05326 0.30364 0.0
O125 O 0.27849 0.03999 0.27925 0.0
Co126 Co 0.25051 0.32908 0.61578 0.0
O127 O 0.30045 0.34873 0.60856 0.0
O128 O 0.27892 0.38165 0.62083 0.0
C129 C 0.24644 0.27956 0.629 0.0
O130 O 0.19978 0.31605 0.62519 0.0
Co131 Co 0.19239 0.25199 0.60157 0.0
O132 O 0.16245 0.25528 0.62023 0.0
C133 C 0.2238 0.31754 0.57956 0.0
C134 C 0.3068 0.38025 0.61435 0.0
C135 C 0.16924 0.28542 0.6273 0.0
O136 O 0.2371 0.33877 0.59253 0.0
O137 O 0.20854 0.28239 0.58032 0.0
O138 O 0.26079 0.31109 0.63674 0.0
O139 O 0.23853 0.28007 0.61326 0.0
Co140 Co 0.92504 0.24649 0.94767 0.0
O141 O 0.95858 0.29466 0.93909 0.0
O142 O 0.90464 0.27905 0.95056 0.0
C143 C 0.96835 0.24114 0.96225 0.0
O144 O 0.88418 0.19874 0.95841 0.0
Co145 Co 0.93686 0.18116 0.93781 0.0
O146 O 0.90423 0.15788 0.95756 0.0
C147 C 0.90397 0.2096 0.9131 0.0
C148 C 0.9353 0.30459 0.94386 0.0
C149 C 0.88196 0.16802 0.96285 0.0
O150 O 0.90203 0.23058 0.9245 0.0
O151 O 0.91921 0.19008 0.91567 0.0
O152 O 0.95282 0.25836 0.96884 0.0
O153 O 0.95932 0.23042 0.9468 0.0
Co154 Co 0.67682 0.92327 0.27921 0.0
O155 O 0.66229 0.95836 0.27307 0.0
O156 O 0.62454 0.90353 0.28394 0.0
C157 C 0.72798 0.96391 0.29328 0.0
O158 O 0.68415 0.88096 0.2875 0.0
Co159 Co 0.75129 0.93591 0.26449 0.0
O160 O 0.74066 0.89317 0.27895 0.0
C161 C 0.68623 0.90784 0.24247 0.0
C162 C 0.62955 0.93501 0.27835 0.0
C163 C 0.71048 0.87343 0.28684 0.0
O164 O 0.66562 0.90239 0.25548 0.0
O165 O 0.72143 0.92456 0.24324 0.0
O166 O 0.69614 0.94843 0.30075 0.0
O167 O 0.72722 0.95703 0.27731 0.0
H168 H 0.565 0.65827 0.03027 0.0
H169 H 0.52347 0.59126 0.02922 0.0
H170 H 0.57651 0.57848 0.07344 0.0
H171 H 0.61859 0.64487 0.07417 0.0
H172 H 0.57076 0.53165 0.04929 0.0
H173 H 0.43546 0.52367 0.0574 0.0
H174 H 0.46177 0.55151 0.03981 0.0
H175 H 0.47848 0.56559 0.06104 0.0
C176 C 0.56721 0.64116 0.03995 0.0
C177 C 0.59495 0.6568 0.05232 0.0
C178 C 0.54347 0.60285 0.03935 0.0
C179 C 0.54667 0.5797 0.05132 0.0
C180 C 0.57356 0.59562 0.06401 0.0
H181 H 0.38904 0.35628 0.0766 0.0
H182 H 0.43225 0.42236 0.07528 0.0
C183 C 0.59748 0.63365 0.06448 0.0
C184 C 0.52338 0.53883 0.05038 0.0
H185 H 0.43446 0.4679 0.05143 0.0
C186 C 0.54093 0.51769 0.04976 0.0
C187 C 0.48447 0.52057 0.05104 0.0
C188 C 0.46388 0.54143 0.05252 0.0
C189 C 0.52077 0.47895 0.05015 0.0
C190 C 0.48185 0.4607 0.05072 0.0
C191 C 0.4643 0.48184 0.05096 0.0
C192 C 0.45862 0.41988 0.05213 0.0
C193 C 0.54145 0.45808 0.05059 0.0
C194 C 0.45966 0.39608 0.03983 0.0
C195 C 0.4353 0.3579 0.04077 0.0
C196 C 0.40909 0.34314 0.05384 0.0
C197 C 0.40894 0.36688 0.06637 0.0
C198 C 0.43351 0.40472 0.06557 0.0
H199 H 0.57057 0.47598 0.05455 0.0
H200 H 0.52816 0.43427 0.0594 0.0
H201 H 0.54152 0.44745 0.03773 0.0
H202 H 0.47827 0.40709 0.02915 0.0
H203 H 0.4356 0.34029 0.03081 0.0
H204 H 0.09404 0.43416 0.35914 0.0
H205 H 0.07088 0.47751 0.35638 0.0
H206 H 0.00831 0.43451 0.40245 0.0
H207 H 0.0303 0.39079 0.4049 0.0
H208 H 0.96597 0.43614 0.37738 0.0
H209 H 0.09543 0.57134 0.38129 0.0
H210 H 0.09468 0.54106 0.365 0.0
H211 H 0.09344 0.52864 0.38688 0.0
C212 C 0.07606 0.4347 0.36885 0.0
C213 C 0.06399 0.4092 0.38224 0.0
C214 C 0.06276 0.45939 0.36726 0.0
C215 C 0.03781 0.45932 0.37923 0.0
C216 C 0.02726 0.43494 0.39299 0.0
H217 H 0.97701 0.61843 0.40478 0.0
H218 H 0.99978 0.57543 0.40198 0.0
C219 C 0.04005 0.41011 0.39444 0.0
C220 C 0.02093 0.48303 0.37727 0.0
H221 H 0.04052 0.57249 0.37665 0.0
C222 C 0.98227 0.46599 0.37713 0.0
C223 C 0.04219 0.52193 0.37695 0.0
C224 C 0.08372 0.54195 0.37767 0.0
C225 C 0.9643 0.4867 0.37734 0.0
C226 C 0.98556 0.52562 0.37724 0.0
C227 C 0.02421 0.54263 0.37672 0.0
C228 C 0.96876 0.54939 0.37925 0.0
C229 C 0.92282 0.46669 0.3785 0.0
C230 C 0.94283 0.54852 0.36765 0.0
C231 C 0.92909 0.57282 0.36944 0.0
C232 C 0.94169 0.59873 0.38266 0.0
C233 C 0.96686 0.59882 0.39443 0.0
C234 C 0.98008 0.57437 0.39279 0.0
H235 H 0.91131 0.43749 0.38241 0.0
H236 H 0.91351 0.48043 0.38768 0.0
H237 H 0.91123 0.46692 0.3659 0.0
H238 H 0.93412 0.52994 0.35692 0.0
H239 H 0.91012 0.57256 0.36006 0.0
H240 H 0.36026 0.97685 0.73926 0.0
H241 H 0.42596 0.99962 0.7361 0.0
H242 H 0.40462 0.93263 0.69141 0.0
H243 H 0.33801 0.90863 0.6949 0.0
H244 H 0.45829 0.93323 0.71048 0.0
H245 H 0.48947 0.07672 0.70205 0.0
H246 H 0.46534 0.05809 0.72155 0.0
H247 H 0.44301 0.03818 0.70169 0.0
C248 C 0.36947 0.96659 0.72885 0.0
C249 C 0.34409 0.94118 0.71724 0.0
C250 C 0.40711 0.97997 0.72695 0.0
C251 C 0.42041 0.96896 0.71316 0.0
C252 C 0.39501 0.94198 0.70201 0.0
H253 H 0.66058 0.09293 0.69399 0.0
H254 H 0.59394 0.06895 0.69091 0.0
C255 C 0.35701 0.92808 0.70406 0.0
C256 C 0.46085 0.98583 0.71065 0.0
H257 H 0.5408 0.06899 0.71011 0.0
C258 C 0.47628 0.96289 0.71016 0.0
C259 C 0.48445 0.02457 0.70972 0.0
C260 C 0.46966 0.05075 0.70858 0.0
C261 C 0.51464 0.97764 0.70985 0.0
C262 C 0.53824 0.0164 0.71057 0.0
C263 C 0.5228 0.03932 0.70995 0.0
C264 C 0.57873 0.03337 0.7129 0.0
C265 C 0.52943 0.95144 0.70885 0.0
C266 C 0.5924 0.02284 0.72672 0.0
C267 C 0.6301 0.03628 0.72842 0.0
C268 C 0.65515 0.06122 0.71656 0.0
C269 C 0.64186 0.07388 0.70336 0.0
C270 C 0.60383 0.05997 0.70153 0.0
H271 H 0.5095 0.92526 0.70251 0.0
H272 H 0.55593 0.96381 0.70184 0.0
H273 H 0.53403 0.94455 0.72185 0.0
H274 H 0.57378 0.00349 0.73603 0.0
H275 H 0.63959 0.02631 0.73883 0.0
H276 H 0.6622 0.56921 0.63392 0.0
H277 H 0.59545 0.52697 0.63672 0.0
H278 H 0.57597 0.58123 0.59488 0.0
H279 H 0.64187 0.6237 0.59238 0.0
H280 H 0.53246 0.57381 0.62127 0.0
H281 H 0.52527 0.44013 0.60797 0.0
H282 H 0.55521 0.46603 0.62512 0.0
H283 H 0.56614 0.48383 0.6039 0.0
C284 C 0.64361 0.57158 0.62517 0.0
C285 C 0.65721 0.59973 0.61295 0.0
C286 C 0.6055 0.54748 0.62677 0.0
C287 C 0.58061 0.55084 0.61597 0.0
C288 C 0.59449 0.5782 0.60343 0.0
H289 H 0.3583 0.39548 0.59041 0.0
H290 H 0.42417 0.43935 0.59211 0.0
C291 C 0.63225 0.60238 0.60197 0.0
C292 C 0.54002 0.52702 0.61781 0.0
H293 H 0.46966 0.43807 0.61498 0.0
C294 C 0.51869 0.54408 0.61996 0.0
C295 C 0.52208 0.48828 0.61604 0.0
C296 C 0.54323 0.4684 0.61298 0.0
C297 C 0.47998 0.52367 0.61985 0.0
C298 C 0.46203 0.48494 0.61799 0.0
C299 C 0.48341 0.46778 0.6164 0.0
C300 C 0.4213 0.46167 0.61643 0.0
C301 C 0.45882 0.544 0.62097 0.0
C302 C 0.39734 0.4604 0.62926 0.0
C303 C 0.35928 0.43579 0.62808 0.0
C304 C 0.34488 0.41162 0.61424 0.0
C305 C 0.36871 0.41387 0.6012 0.0
C306 C 0.4064 0.43876 0.60223 0.0
H307 H 0.47646 0.57376 0.61799 0.0
H308 H 0.43496 0.53202 0.61218 0.0
H309 H 0.44825 0.54174 0.63406 0.0
H310 H 0.40816 0.47726 0.6405 0.0
H311 H 0.34153 0.43407 0.63844 0.0
H312 H 0.99401 0.35897 0.92731 0.0
H313 H 0.01585 0.42474 0.92747 0.0
H314 H 0.92217 0.40593 0.95759 0.0
H315 H 0.90026 0.33937 0.95778 0.0
H316 H 0.98548 0.46412 0.91592 0.0
H317 H 0.0087 0.48339 0.98533 0.0
H318 H 0.99973 0.44161 0.97465 0.0
H319 H 0.96251 0.44987 0.97931 0.0
C320 C 0.97782 0.36863 0.93394 0.0
C321 C 0.94545 0.34388 0.94263 0.0
C322 C 0.99042 0.40637 0.934 0.0
C323 C 0.97109 0.42045 0.94279 0.0
C324 C 0.938 0.39577 0.95103 0.0
H325 H 0.00613 0.64024 0.92989 0.0
H326 H 0.98445 0.57456 0.92952 0.0
C327 C 0.92527 0.35773 0.95098 0.0
C328 C 0.98605 0.46099 0.94313 0.0
H329 H 0.01876 0.53565 0.96945 0.0
C330 C 0.9927 0.47973 0.92763 0.0
C331 C 0.99628 0.48149 0.95839 0.0
C332 C 0.99181 0.46321 0.97538 0.0
C333 C 0.00884 0.51823 0.92697 0.0
C334 C 0.01787 0.53864 0.94224 0.0
C335 C 0.01171 0.52 0.95775 0.0
C336 C 0.03208 0.57904 0.94237 0.0
C337 C 0.01662 0.53671 0.90985 0.0
C338 C 0.0659 0.60366 0.95006 0.0
C339 C 0.07842 0.64164 0.95043 0.0
C340 C 0.05716 0.6555 0.94319 0.0
C341 C 0.02345 0.63068 0.93546 0.0
C342 C 0.01099 0.59297 0.93516 0.0
H343 H 0.01921 0.51942 0.89988 0.0
H344 H 0.99343 0.54098 0.90628 0.0
H345 H 0.04231 0.56394 0.91005 0.0
H346 H 0.08254 0.59346 0.9558 0.0
H347 H 0.10433 0.65999 0.9566 0.0
H348 H 0.37274 0.01474 0.30111 0.0
H349 H 0.41726 0.99346 0.30223 0.0
H350 H 0.49421 0.08844 0.27326 0.0
H351 H 0.44977 0.11061 0.27277 0.0
H352 H 0.44023 0.97292 0.27551 0.0
H353 H 0.56191 0.08464 0.30825 0.0
H354 H 0.51755 0.08187 0.30842 0.0
H355 H 0.54736 0.10038 0.2903 0.0
C356 C 0.39962 0.03163 0.29541 0.0
C357 C 0.4081 0.06444 0.287 0.0
C358 C 0.42496 0.01934 0.29597 0.0
C359 C 0.45921 0.0393 0.28789 0.0
C360 C 0.46831 0.07291 0.27992 0.0
H361 H 0.63162 0.99311 0.26228 0.0
H362 H 0.58874 0.01605 0.26481 0.0
C363 C 0.44299 0.08562 0.27962 0.0
C364 C 0.48349 0.0229 0.28663 0.0
H365 H 0.57022 0.03858 0.29465 0.0
C366 C 0.46859 0.98721 0.27982 0.0
C367 C 0.5205 0.04147 0.29224 0.0
C368 C 0.53772 0.07906 0.30036 0.0
C369 C 0.48975 0.9699 0.2782 0.0
C370 C 0.52681 0.98861 0.28365 0.0
C371 C 0.54174 0.02422 0.2905 0.0
C372 C 0.55123 0.97263 0.28158 0.0
C373 C 0.47256 0.93214 0.27024 0.0
C374 C 0.54413 0.9401 0.28998 0.0
C375 C 0.56867 0.92662 0.28847 0.0
C376 C 0.6008 0.94572 0.27867 0.0
C377 C 0.60722 0.97776 0.27 0.0
C378 C 0.58278 0.99104 0.27146 0.0
H379 H 0.44665 0.92499 0.26342 0.0
H380 H 0.49194 0.93036 0.26121 0.0
H381 H 0.46595 0.91125 0.2803 0.0
H382 H 0.52016 0.92569 0.29805 0.0
H383 H 0.56318 0.90209 0.29541 0.0
H384 H 0.38811 0.15096 0.23933 0.0
H385 H 0.41259 0.18392 0.21246 0.0
H386 H 0.3169 0.10017 0.1863 0.0
H387 H 0.29252 0.06721 0.21281 0.0
H388 H 0.38555 0.12761 0.16805 0.0
H389 H 0.36039 0.23807 0.19254 0.0
H390 H 0.38983 0.22645 0.20441 0.0
H391 H 0.34143 0.19403 0.20302 0.0
C392 C 0.37275 0.13919 0.22777 0.0
C393 C 0.3381 0.10677 0.22822 0.0
C394 C 0.3867 0.15812 0.21247 0.0
C395 C 0.36629 0.14468 0.19747 0.0
C396 C 0.33306 0.11103 0.19775 0.0
H397 H 0.28117 0.18726 0.11611 0.0
H398 H 0.30577 0.17961 0.14266 0.0
C399 C 0.31905 0.09232 0.21295 0.0
C400 C 0.37651 0.16681 0.18172 0.0
H401 H 0.36625 0.23476 0.16328 0.0
C402 C 0.38264 0.15184 0.167 0.0
C403 C 0.37256 0.19833 0.18047 0.0
C404 C 0.36557 0.2153 0.19588 0.0
C405 C 0.38165 0.1656 0.15091 0.0
C406 C 0.3745 0.19509 0.14962 0.0
C407 C 0.3718 0.21218 0.16439 0.0
C408 C 0.36169 0.20296 0.13353 0.0
C409 C 0.3848 0.14641 0.13536 0.0
C410 C 0.3852 0.21916 0.11961 0.0
C411 C 0.37113 0.22362 0.10423 0.0
C412 C 0.33334 0.21173 0.1026 0.0
C413 C 0.31032 0.19647 0.11679 0.0
C414 C 0.32436 0.19221 0.13205 0.0
H415 H 0.38912 0.12304 0.13859 0.0
H416 H 0.35944 0.13582 0.12759 0.0
H417 H 0.40831 0.16636 0.12749 0.0
H418 H 0.41419 0.22786 0.12058 0.0
H419 H 0.38962 0.23558 0.09356 0.0
H420 H 0.16615 0.36848 0.42411 0.0
H421 H 0.19601 0.38298 0.45206 0.0
H422 H 0.08975 0.32001 0.47597 0.0
H423 H 0.06019 0.30412 0.44815 0.0
H424 H 0.19125 0.41156 0.48438 0.0
H425 H 0.1418 0.26162 0.48604 0.0
H426 H 0.13945 0.2846 0.46719 0.0
H427 H 0.10523 0.2717 0.48355 0.0
C428 C 0.14922 0.3587 0.43539 0.0
C429 C 0.11105 0.33478 0.4341 0.0
C430 C 0.16624 0.36698 0.45132 0.0
C431 C 0.1451 0.35181 0.46602 0.0
C432 C 0.10658 0.33132 0.46474 0.0
H433 H 0.20223 0.36749 0.57221 0.0
H434 H 0.18941 0.38253 0.54392 0.0
C435 C 0.08973 0.32234 0.44889 0.0
C436 C 0.16306 0.35242 0.48225 0.0
H437 H 0.16757 0.29476 0.51131 0.0
C438 C 0.18638 0.38614 0.49028 0.0
C439 C 0.15734 0.31924 0.48968 0.0
C440 C 0.13492 0.28228 0.4811 0.0
C441 C 0.20329 0.38737 0.50587 0.0
C442 C 0.19602 0.35395 0.51367 0.0
C443 C 0.17322 0.32044 0.50539 0.0
C444 C 0.21083 0.3521 0.5305 0.0
C445 C 0.22908 0.42434 0.51367 0.0
C446 C 0.22758 0.33047 0.53242 0.0
C447 C 0.23368 0.32092 0.54851 0.0
C448 C 0.22406 0.33361 0.56298 0.0
C449 C 0.21018 0.35774 0.56117 0.0
C450 C 0.20311 0.36653 0.545 0.0
H451 H 0.24097 0.44639 0.50391 0.0
H452 H 0.21353 0.43153 0.5228 0.0
H453 H 0.25193 0.42389 0.52056 0.0
H454 H 0.23389 0.31909 0.52144 0.0
H455 H 0.24454 0.30237 0.54965 0.0
H456 H 0.77733 0.0665 0.78312 0.0
H457 H 0.78831 0.09869 0.81014 0.0
H458 H 0.79623 0.19324 0.7845 0.0
H459 H 0.78429 0.16062 0.75725 0.0
H460 H 0.86083 0.20248 0.8053 0.0
H461 H 0.72814 0.13522 0.84009 0.0
H462 H 0.7377 0.104 0.82848 0.0
H463 H 0.73099 0.13743 0.8172 0.0
C464 C 0.78052 0.0938 0.78327 0.0
C465 C 0.7801 0.11115 0.76812 0.0
C466 C 0.78655 0.11206 0.79871 0.0
C467 C 0.79272 0.14815 0.79928 0.0
C468 C 0.79104 0.16519 0.78428 0.0
H469 H 0.86512 0.24279 0.90201 0.0
H470 H 0.83705 0.23661 0.87397 0.0
C471 C 0.78421 0.14656 0.76878 0.0
C472 C 0.80604 0.16905 0.81526 0.0
H473 H 0.7834 0.16293 0.85711 0.0
C474 C 0.84372 0.19484 0.81656 0.0
C475 C 0.78362 0.15909 0.82987 0.0
C476 C 0.74275 0.13264 0.82889 0.0
C477 C 0.86017 0.20827 0.83238 0.0
C478 C 0.83834 0.19551 0.84717 0.0
C479 C 0.80009 0.17248 0.84573 0.0
C480 C 0.85551 0.20052 0.86402 0.0
C481 C 0.90123 0.23402 0.8333 0.0
C482 C 0.87468 0.18194 0.86763 0.0
C483 C 0.89047 0.18518 0.8835 0.0
C484 C 0.88743 0.20711 0.89619 0.0
C485 C 0.86808 0.22576 0.89253 0.0
C486 C 0.85203 0.22229 0.87656 0.0
H487 H 0.91231 0.24887 0.82115 0.0
H488 H 0.90834 0.25447 0.84364 0.0
H489 H 0.91498 0.21779 0.836 0.0
H490 H 0.87714 0.16456 0.85816 0.0
H491 H 0.90494 0.17024 0.88579 0.0
H492 H 0.61924 0.74415 0.09744 0.0
H493 H 0.59527 0.75227 0.12463 0.0
H494 H 0.68452 0.8647 0.12703 0.0
H495 H 0.70859 0.85684 0.10029 0.0
H496 H 0.63854 0.77389 0.15555 0.0
H497 H 0.59216 0.87218 0.1389 0.0
H498 H 0.59617 0.84251 0.12344 0.0
H499 H 0.63615 0.88502 0.12973 0.0
C500 C 0.63332 0.77071 0.1037 0.0
C501 C 0.66589 0.79982 0.09682 0.0
C502 C 0.61962 0.77528 0.11916 0.0
C503 C 0.63781 0.80926 0.12765 0.0
C504 C 0.66965 0.83849 0.12052 0.0
H505 H 0.71723 0.92967 0.21132 0.0
H506 H 0.69241 0.8994 0.18425 0.0
C507 C 0.6836 0.83383 0.10531 0.0
C508 C 0.62669 0.81403 0.14481 0.0
H509 H 0.61588 0.87707 0.16765 0.0
C510 C 0.63207 0.79539 0.15828 0.0
C511 C 0.61816 0.84202 0.14828 0.0
C512 C 0.60994 0.86132 0.13429 0.0
C513 C 0.63319 0.80687 0.17508 0.0
C514 C 0.62857 0.83748 0.17835 0.0
C515 C 0.61956 0.85369 0.16505 0.0
C516 C 0.64048 0.85738 0.19462 0.0
C517 C 0.64286 0.78867 0.18907 0.0
C518 C 0.61897 0.84415 0.20932 0.0
C519 C 0.63305 0.86163 0.2249 0.0
C520 C 0.66894 0.89219 0.22592 0.0
C521 C 0.68963 0.90604 0.21099 0.0
C522 C 0.67546 0.88887 0.1955 0.0
H523 H 0.64461 0.76452 0.18448 0.0
H524 H 0.66979 0.80888 0.1947 0.0
H525 H 0.62184 0.77944 0.19925 0.0
H526 H 0.59188 0.81982 0.20881 0.0
H527 H 0.61651 0.85028 0.2362 0.0
H528 H 0.76251 0.61016 0.57097 0.0
H529 H 0.76907 0.58289 0.54455 0.0
H530 H 0.79814 0.68382 0.51802 0.0
H531 H 0.79121 0.71085 0.54399 0.0
H532 H 0.75161 0.61906 0.49936 0.0
H533 H 0.87419 0.61839 0.52644 0.0
H534 H 0.83065 0.5935 0.53722 0.0
H535 H 0.85441 0.64292 0.53669 0.0
C536 C 0.76958 0.62621 0.55941 0.0
C537 C 0.77692 0.66289 0.55963 0.0
C538 C 0.77349 0.61065 0.54438 0.0
C539 C 0.7846 0.63155 0.52941 0.0
C540 C 0.78959 0.66722 0.52944 0.0
H541 H 0.9236 0.7099 0.4528 0.0
H542 H 0.88938 0.6827 0.4787 0.0
C543 C 0.78583 0.68273 0.54435 0.0
C544 C 0.79476 0.61874 0.51393 0.0
H545 H 0.86873 0.61699 0.49699 0.0
C546 C 0.77652 0.61725 0.4988 0.0
C547 C 0.82724 0.61637 0.51334 0.0
C548 C 0.848 0.61795 0.52923 0.0
C549 C 0.79199 0.6175 0.483 0.0
C550 C 0.82629 0.61868 0.48242 0.0
C551 C 0.84244 0.6161 0.49754 0.0
C552 C 0.84948 0.63131 0.467 0.0
C553 C 0.77347 0.62036 0.46714 0.0
C554 C 0.83914 0.6109 0.45189 0.0
C555 C 0.85874 0.62657 0.4369 0.0
C556 C 0.88879 0.66287 0.43688 0.0
C557 C 0.9003 0.68211 0.4523 0.0
C558 C 0.88089 0.66649 0.46717 0.0
H559 H 0.74826 0.62182 0.46995 0.0
H560 H 0.79276 0.64527 0.45982 0.0
H561 H 0.76559 0.59593 0.45901 0.0
H562 H 0.81523 0.5835 0.45157 0.0
H563 H 0.84931 0.61097 0.42524 0.0
H564 H 0.12572 0.74535 0.90014 0.0
H565 H 0.15932 0.75394 0.87337 0.0
H566 H 0.16975 0.86103 0.86741 0.0
H567 H 0.1363 0.85274 0.89371 0.0
H568 H 0.13626 0.77198 0.84015 0.0
H569 H 0.27651 0.87665 0.86046 0.0
H570 H 0.24208 0.84444 0.875 0.0
H571 H 0.24136 0.8852 0.86847 0.0
C572 C 0.13545 0.77079 0.89315 0.0
C573 C 0.12823 0.79831 0.89901 0.0
C574 C 0.15461 0.77563 0.87792 0.0
C575 C 0.16744 0.80834 0.86863 0.0
C576 C 0.16057 0.83584 0.87457 0.0
H577 H 0.22164 0.93427 0.7868 0.0
H578 H 0.21518 0.90307 0.81364 0.0
C579 C 0.14114 0.83089 0.88955 0.0
C580 C 0.18578 0.81373 0.85206 0.0
H581 H 0.26125 0.87917 0.83099 0.0
C582 C 0.1641 0.79444 0.83807 0.0
C583 C 0.22212 0.84294 0.84949 0.0
C584 C 0.24704 0.8633 0.86418 0.0
C585 C 0.17639 0.8064 0.82148 0.0
C586 C 0.21133 0.83812 0.81899 0.0
C587 C 0.23443 0.85494 0.83295 0.0
C588 C 0.22066 0.85862 0.80281 0.0
C589 C 0.15057 0.78738 0.80686 0.0
C590 C 0.22703 0.84449 0.78788 0.0
C591 C 0.23086 0.86245 0.77239 0.0
C592 C 0.228 0.89451 0.7717 0.0
C593 C 0.22355 0.90943 0.78686 0.0
C594 C 0.22004 0.89173 0.80224 0.0
H595 H 0.12361 0.76418 0.81108 0.0
H596 H 0.14563 0.8074 0.79977 0.0
H597 H 0.16329 0.77641 0.79798 0.0
H598 H 0.22788 0.81909 0.78813 0.0
H599 H 0.2343 0.85032 0.76091 0.0
H600 H 0.11419 0.86702 0.99125 0.0
H601 H 0.16276 0.9239 0.00378 0.0
H602 H 0.24417 0.91405 0.9744 0.0
H603 H 0.19513 0.85656 0.96176 0.0
H604 H 0.23137 0.94811 0.02111 0.0
H605 H 0.24798 0.00953 0.95679 0.0
H606 H 0.20938 0.96493 0.96197 0.0
H607 H 0.25429 0.97033 0.95916 0.0
C608 C 0.14259 0.87624 0.98794 0.0
C609 C 0.15097 0.85743 0.97559 0.0
C610 C 0.17034 0.90881 0.99506 0.0
C611 C 0.20703 0.92358 0.98982 0.0
C612 C 0.21597 0.90331 0.9785 0.0
H613 H 0.33944 0.14573 0.03609 0.0
H614 H 0.33141 0.0887 0.02301 0.0
C615 C 0.18805 0.87028 0.97144 0.0
C616 C 0.23411 0.96208 0.99475 0.0
H617 H 0.27256 0.05013 0.97963 0.0
C618 C 0.24146 0.97049 0.01202 0.0
C619 C 0.24691 0.99122 0.98284 0.0
C620 C 0.23924 0.98386 0.96414 0.0
C621 C 0.25899 0.00714 0.01782 0.0
C622 C 0.26963 0.03613 0.006 0.0
C623 C 0.26462 0.02786 0.98864 0.0
C624 C 0.27883 0.07368 0.01155 0.0
C625 C 0.26325 0.01443 0.03663 0.0
C626 C 0.2529 0.08492 0.00877 0.0
C627 C 0.25738 0.11711 0.01618 0.0
C628 C 0.28814 0.13908 0.0264 0.0
C629 C 0.31563 0.12943 0.02816 0.0
C630 C 0.31089 0.09674 0.02084 0.0
H631 H 0.25098 0.98859 0.04418 0.0
H632 H 0.29294 0.031 0.03984 0.0
H633 H 0.24997 0.03056 0.04043 0.0
H634 H 0.22802 0.06765 0.00163 0.0
H635 H 0.23581 0.12393 0.01459 0.0
H636 H 0.10504 0.22616 0.3511 0.0
H637 H 0.15123 0.2178 0.33622 0.0
H638 H 0.23484 0.32812 0.34974 0.0
H639 H 0.18807 0.33691 0.36475 0.0
H640 H 0.20571 0.26578 0.30898 0.0
H641 H 0.26634 0.25139 0.3694 0.0
H642 H 0.21999 0.2438 0.36895 0.0
H643 H 0.2583 0.28946 0.36628 0.0
C644 C 0.13315 0.24891 0.35074 0.0
C645 C 0.14299 0.28213 0.35917 0.0
C646 C 0.15951 0.24409 0.3422 0.0
C647 C 0.19646 0.27218 0.34201 0.0
C648 C 0.20642 0.30605 0.34983 0.0
H649 H 0.33578 0.18742 0.2972 0.0
H650 H 0.32581 0.23561 0.30998 0.0
C651 C 0.17972 0.31112 0.35828 0.0
C652 C 0.22393 0.26413 0.33428 0.0
H653 H 0.2774 0.22672 0.34475 0.0
C654 C 0.22255 0.25856 0.31671 0.0
C655 C 0.24571 0.25453 0.3444 0.0
C656 C 0.24792 0.25998 0.36333 0.0
C657 C 0.24003 0.24099 0.30919 0.0
C658 C 0.25897 0.22832 0.31952 0.0
C659 C 0.26303 0.23667 0.33687 0.0
C660 C 0.26707 0.19986 0.31315 0.0
C661 C 0.23565 0.23333 0.29042 0.0
C662 C 0.23762 0.1639 0.3112 0.0
C663 C 0.24314 0.13673 0.30401 0.0
C664 C 0.27835 0.14471 0.29858 0.0
C665 C 0.30836 0.18043 0.30124 0.0
C666 C 0.30271 0.20794 0.30848 0.0
H667 H 0.2283 0.25202 0.28367 0.0
H668 H 0.26139 0.23637 0.28489 0.0
H669 H 0.2133 0.20452 0.28828 0.0
H670 H 0.21001 0.15704 0.3149 0.0
H671 H 0.21945 0.10943 0.30244 0.0
H672 H 0.87551 0.10479 0.68194 0.0
H673 H 0.9317 0.15227 0.66846 0.0
H674 H 0.91214 0.23647 0.6888 0.0
H675 H 0.85502 0.1885 0.7023 0.0
H676 H 0.94676 0.21662 0.64555 0.0
H677 H 0.01432 0.2523 0.70901 0.0
H678 H 0.97292 0.20869 0.70542 0.0
H679 H 0.97075 0.25032 0.70596 0.0
C680 C 0.88269 0.13337 0.68323 0.0
C681 C 0.86104 0.14302 0.6932 0.0
C682 C 0.91476 0.16046 0.6755 0.0
C683 C 0.92622 0.19785 0.67775 0.0
C684 C 0.90374 0.20771 0.68697 0.0
H685 H 0.14495 0.33544 0.6289 0.0
H686 H 0.08722 0.3252 0.64216 0.0
C687 C 0.87109 0.18036 0.69456 0.0
C688 C 0.96342 0.22562 0.67169 0.0
H689 H 0.05285 0.27127 0.68513 0.0
C690 C 0.96995 0.22976 0.65417 0.0
C691 C 0.99356 0.24232 0.683 0.0
C692 C 0.9879 0.23834 0.70192 0.0
C693 C 0.00601 0.24811 0.64768 0.0
C694 C 0.03618 0.26247 0.659 0.0
C695 C 0.02963 0.26051 0.6765 0.0
C696 C 0.07355 0.27243 0.65301 0.0
C697 C 0.01174 0.24935 0.62877 0.0
C698 C 0.08536 0.24678 0.6552 0.0
C699 C 0.11777 0.25239 0.64761 0.0
C700 C 0.1394 0.28403 0.63783 0.0
C701 C 0.12892 0.31099 0.63651 0.0
C702 C 0.09593 0.30507 0.64396 0.0
H703 H 0.98534 0.23672 0.62167 0.0
H704 H 0.02898 0.27839 0.6246 0.0
H705 H 0.02667 0.23454 0.62545 0.0
H706 H 0.06849 0.22144 0.66212 0.0
H707 H 0.12526 0.2312 0.64886 0.0
H708 H 0.66097 0.8564 0.03367 0.0
H709 H 0.66908 0.91349 0.02077 0.0
H710 H 0.76264 0.92511 0.99274 0.0
H711 H 0.75479 0.86875 0.00561 0.0
H712 H 0.73366 0.98026 0.02645 0.0
H713 H 0.71185 0.95593 0.95767 0.0
H714 H 0.69337 0.91873 0.97291 0.0
H715 H 0.74035 0.93875 0.96577 0.0
C716 C 0.68219 0.87036 0.02418 0.0
C717 C 0.70708 0.85809 0.02049 0.0
C718 C 0.68701 0.9031 0.01693 0.0
C719 C 0.71627 0.92345 0.00565 0.0
C720 C 0.7394 0.90959 0.0011 0.0
H721 H 0.88611 0.13069 0.98976 0.0
H722 H 0.83614 0.07431 0.00194 0.0
C723 C 0.73494 0.87737 0.00848 0.0
C724 C 0.7267 0.96162 0.00055 0.0
H725 H 0.75674 0.01871 0.96621 0.0
C726 C 0.73768 0.98859 0.01325 0.0
C727 C 0.73155 0.97263 0.98337 0.0
C728 C 0.71827 0.94488 0.96916 0.0
C729 C 0.75653 0.02634 0.00924 0.0
C730 C 0.76489 0.03736 0.99212 0.0
C731 C 0.75073 0.01037 0.97936 0.0
C732 C 0.7931 0.07558 0.98733 0.0
C733 C 0.76893 0.05409 0.02344 0.0
C734 C 0.78559 0.09573 0.97531 0.0
C735 C 0.81433 0.12848 0.96845 0.0
C736 C 0.85095 0.14093 0.97328 0.0
C737 C 0.85805 0.12187 0.98598 0.0
C738 C 0.82944 0.08965 0.99298 0.0
H739 H 0.74995 0.04295 0.03445 0.0
H740 H 0.79666 0.06037 0.02777 0.0
H741 H 0.77056 0.08016 0.01925 0.0
H742 H 0.75781 0.08518 0.97064 0.0
H743 H 0.80826 0.14232 0.95844 0.0
H744 H 0.71507 0.81768 0.27237 0.0
H745 H 0.72706 0.77306 0.28673 0.0
H746 H 0.71489 0.81378 0.33511 0.0
H747 H 0.70145 0.85755 0.32063 0.0
H748 H 0.78681 0.79641 0.30498 0.0
H749 H 0.66817 0.70568 0.34559 0.0
H750 H 0.6648 0.73295 0.32871 0.0
H751 H 0.68322 0.75346 0.34903 0.0
C752 C 0.71335 0.8159 0.28607 0.0
C753 C 0.70694 0.84062 0.29543 0.0
C754 C 0.72041 0.79056 0.29427 0.0
C755 C 0.72178 0.78982 0.31203 0.0
C756 C 0.71313 0.81307 0.32142 0.0
H757 H 0.83911 0.74873 0.38665 0.0
H758 H 0.79586 0.75826 0.36988 0.0
C759 C 0.70545 0.83813 0.31316 0.0
C760 C 0.73798 0.76937 0.32044 0.0
H761 H 0.72662 0.71119 0.35317 0.0
C762 C 0.77323 0.77711 0.31526 0.0
C763 C 0.72045 0.74432 0.33392 0.0
C764 C 0.68191 0.73332 0.33953 0.0
C765 C 0.79212 0.76204 0.32367 0.0
C766 C 0.77519 0.73812 0.33756 0.0
C767 C 0.73946 0.72933 0.34243 0.0
C768 C 0.79624 0.72628 0.34847 0.0
C769 C 0.83096 0.77355 0.31825 0.0
C770 C 0.80982 0.70387 0.34225 0.0
C771 C 0.83471 0.69822 0.35191 0.0
C772 C 0.8465 0.71522 0.36781 0.0
C773 C 0.83095 0.73564 0.37435 0.0
C774 C 0.80602 0.74097 0.36482 0.0
H775 H 0.84194 0.79644 0.3089 0.0
H776 H 0.84964 0.78243 0.32938 0.0
H777 H 0.83139 0.74973 0.31236 0.0
H778 H 0.80231 0.692 0.3297 0.0
H779 H 0.84623 0.68237 0.34656 0.0
H780 H 0.09683 0.83402 0.72607 0.0
H781 H 0.04044 0.78993 0.71159 0.0
H782 H 0.1014 0.80811 0.66513 0.0
H783 H 0.15851 0.85183 0.67986 0.0
H784 H 0.01424 0.81354 0.68655 0.0
H785 H 0.02975 0.69729 0.66308 0.0
H786 H 0.05882 0.72835 0.67946 0.0
H787 H 0.06739 0.74197 0.65759 0.0
C788 C 0.09842 0.82775 0.71289 0.0
C789 C 0.13196 0.84637 0.70405 0.0
C790 C 0.06616 0.80256 0.70462 0.0
C791 C 0.06655 0.7956 0.68727 0.0
C792 C 0.10046 0.81246 0.67859 0.0
H793 H 0.90778 0.73357 0.60903 0.0
H794 H 0.96104 0.7459 0.62634 0.0
C795 C 0.13308 0.83749 0.68699 0.0
C796 C 0.03097 0.77528 0.67802 0.0
H797 H 0.97999 0.70289 0.65141 0.0
C798 C 0.00655 0.789 0.67909 0.0
C799 C 0.02102 0.74341 0.66819 0.0
C800 C 0.04545 0.72662 0.6671 0.0
C801 C 0.973 0.77238 0.67032 0.0
C802 C 0.96324 0.74085 0.6603 0.0
C803 C 0.98738 0.7268 0.65928 0.0
C804 C 0.92987 0.72502 0.64949 0.0
C805 C 0.94884 0.78957 0.67129 0.0
C806 C 0.89437 0.70756 0.65665 0.0
C807 C 0.86367 0.70011 0.6467 0.0
C808 C 0.86832 0.71052 0.62957 0.0
C809 C 0.90349 0.72542 0.62224 0.0
C810 C 0.93393 0.73238 0.63209 0.0
H811 H 0.96276 0.81679 0.67773 0.0
H812 H 0.9406 0.79321 0.65838 0.0
H813 H 0.92337 0.77104 0.67843 0.0
H814 H 0.89074 0.70168 0.6701 0.0
H815 H 0.83691 0.68889 0.65268 0.0
H816 H 0.00418 0.2061 0.95093 0.0
H817 H 0.05367 0.20178 0.96511 0.0
H818 H 0.04428 0.25949 0.00836 0.0
H819 H 0.99493 0.26432 0.99416 0.0
H820 H 0.11578 0.28933 0.99592 0.0
H821 H 0.0513 0.13826 0.00514 0.0
H822 H 0.04848 0.15158 0.98381 0.0
H823 H 0.02482 0.16044 0.00053 0.0
C824 C 0.01231 0.21745 0.96355 0.0
C825 C 0.99578 0.23561 0.97144 0.0
C826 C 0.04042 0.21475 0.97167 0.0
C827 C 0.05228 0.22994 0.98784 0.0
C828 C 0.03531 0.24743 0.9959 0.0
H829 H 0.20978 0.21159 0.05228 0.0
H830 H 0.15439 0.20741 0.03983 0.0
C831 C 0.00715 0.25013 0.98779 0.0
C832 C 0.08423 0.23002 0.99578 0.0
H833 H 0.11627 0.17389 0.00936 0.0
C834 C 0.11585 0.26412 -0.00103 0.0
C835 C 0.08404 0.19705 -0.00019 0.0
C836 C 0.05024 0.15974 0.99731 0.0
C837 C 0.14764 0.26616 0.00582 0.0
C838 C 0.14789 0.2332 0.0093 0.0
C839 C 0.11604 0.19908 0.00645 0.0
C840 C 0.18083 0.23373 0.01628 0.0
C841 C 0.18054 0.30356 0.00944 0.0
C842 C 0.2137 0.2491 0.00694 0.0
C843 C 0.24539 0.25157 0.01401 0.0
C844 C 0.24457 0.23855 0.03049 0.0
C845 C 0.21126 0.22201 0.03957 0.0
C846 C 0.17961 0.21955 0.03249 0.0
H847 H 0.17294 0.32543 0.00987 0.0
H848 H 0.19356 0.30348 0.02167 0.0
H849 H 0.20129 0.31071 -0.00074 0.0
H850 H 0.21494 0.2596 0.99428 0.0
H851 H 0.27063 0.26424 0.00669 0.0
H852 H 0.73535 0.98642 0.32613 0.0
H853 H 0.79024 0.03642 0.33957 0.0
H854 H 0.85206 0.05229 0.29361 0.0
H855 H 0.79733 0.00216 0.28006 0.0
H856 H 0.89017 0.05582 0.32567 0.0
H857 H 0.82674 0.14494 0.32382 0.0
H858 H 0.79944 0.1005 0.33353 0.0
H859 H 0.80964 0.10351 0.3113 0.0
C860 C 0.76075 1.00021 0.31896 0.0
C861 C 0.76202 0.99073 0.302 0.0
C862 C 0.79199 0.02876 0.32663 0.0
C863 C 0.82488 0.04821 0.31746 0.0
C864 C 0.82679 0.03757 0.30083 0.0
H865 H 0.00527 0.26781 0.33673 0.0
H866 H 0.95697 0.21093 0.32382 0.0
C867 C 0.79553 0.00903 0.29312 0.0
C868 C 0.85651 0.08123 0.32481 0.0
H869 H 0.88433 0.16915 0.33746 0.0
C870 C 0.88901 0.08064 0.32828 0.0
C871 C 0.85483 0.11358 0.32795 0.0
C872 C 0.82094 0.116 0.32385 0.0
C873 C 0.91992 0.11163 0.33507 0.0
C874 C 0.91796 0.14371 0.3385 0.0
C875 C 0.88558 0.14438 0.33485 0.0
C876 C 0.94914 0.17711 0.34587 0.0
C877 C 0.95458 0.1101 0.33832 0.0
C878 C 0.96062 0.17672 0.36251 0.0
C879 C 0.98806 0.20915 0.36993 0.0
C880 C 0.0043 0.24242 0.36082 0.0
C881 C 0.99323 0.24255 0.34404 0.0
C882 C 0.96571 0.21015 0.33666 0.0
H883 H 0.95425 0.08657 0.33168 0.0
H884 H 0.97925 0.13606 0.33421 0.0
H885 H 0.95716 0.10682 0.35212 0.0
H886 H 0.94768 0.15156 0.36989 0.0
H887 H 0.99603 0.20826 0.38289 0.0
H888 H 0.78825 0.79518 0.60929 0.0
H889 H 0.79485 0.85156 0.62196 0.0
H890 H 0.7676 0.7992 0.67098 0.0
H891 H 0.76065 0.74263 0.65843 0.0
H892 H 0.73124 0.84808 0.64154 0.0
H893 H 0.86247 0.9054 0.67767 0.0
H894 H 0.85276 0.8756 0.65952 0.0
H895 H 0.83087 0.85663 0.67944 0.0
C896 C 0.78424 0.79588 0.62281 0.0
C897 C 0.77374 0.76452 0.63288 0.0
C898 C 0.78804 0.82805 0.63 0.0
C899 C 0.78195 0.82943 0.64737 0.0
C900 C 0.77284 0.79866 0.65757 0.0
H901 H 0.76733 0.97884 0.71728 0.0
H902 H 0.77527 0.9314 0.70305 0.0
C903 C 0.76872 0.76639 0.65038 0.0
C904 C 0.78148 0.86164 0.65458 0.0
H905 H 0.82592 0.93312 0.6822 0.0
C906 C 0.75206 0.86697 0.65031 0.0
C907 C 0.8085 0.88567 0.66614 0.0
C908 C 0.84065 0.88087 0.67095 0.0
C909 C 0.74828 0.89531 0.65771 0.0
C910 C 0.77548 0.9197 0.66923 0.0
C911 C 0.80522 0.91454 0.67331 0.0
C912 C 0.77273 0.94976 0.6777 0.0
C913 C 0.71437 0.89773 0.65362 0.0
C914 C 0.76952 0.97632 0.66818 0.0
C915 C 0.7642 0.00292 0.67629 0.0
C916 C 0.76302 0.00396 0.69404 0.0
C917 C 0.76803 0.97852 0.70357 0.0
C918 C 0.77263 0.9515 0.69546 0.0
H919 H 0.69173 0.87119 0.64867 0.0
H920 H 0.70414 0.90554 0.66496 0.0
H921 H 0.72124 0.91895 0.6437 0.0
H922 H 0.77069 0.97623 0.65448 0.0
H923 H 0.761 0.02263 0.66867 0.0
H924 H 0.72914 0.71795 0.01056 0.0
H925 H 0.78561 0.72388 -0.00136 0.0
H926 H 0.8503 0.81851 0.03048 0.0
H927 H 0.79377 0.81123 0.04317 0.0
H928 H 0.83926 0.77424 0.98123 0.0
H929 H 0.89667 0.75881 0.04191 0.0
H930 H 0.85056 0.75126 0.04023 0.0
H931 H 0.88923 0.79736 0.04197 0.0
C932 C 0.75544 0.73999 0.01501 0.0
C933 C 0.7572 0.7639 0.02789 0.0
C934 C 0.78769 0.74339 0.00819 0.0
C935 C 0.82227 0.77115 0.01393 0.0
C936 C 0.82401 0.79612 0.02627 0.0
H937 H 0.01741 0.81259 0.95549 0.0
H938 H 0.96874 0.81991 0.96881 0.0
C939 C 0.79172 0.79215 0.0334 0.0
C940 C 0.85625 0.77361 0.00691 0.0
H941 H 0.93533 0.77429 0.01785 0.0
C942 C 0.86025 0.7742 0.98924 0.0
C943 C 0.88343 0.7731 0.01737 0.0
C944 C 0.87964 0.76971 0.0364 0.0
C945 C 0.89021 0.77356 0.98171 0.0
C946 C 0.91793 0.77413 0.99217 0.0
C947 C 0.91428 0.77423 0.00984 0.0
C948 C 0.94966 0.77215 0.98509 0.0
C949 C 0.8908 0.77056 0.96265 0.0
C950 C 0.95659 0.74428 0.99053 0.0
C951 C 0.98513 0.74084 0.98334 0.0
C952 C 0.00683 0.76485 0.9704 0.0
C953 C 1.00068 0.79341 0.96529 0.0
C954 C 0.9727 0.79741 0.97279 0.0
H955 H 0.86288 0.75957 0.95711 0.0
H956 H 0.90874 0.79834 0.9572 0.0
H957 H 0.90164 0.75234 0.95874 0.0
H958 H 0.93933 0.72457 6e-05 0.0
H959 H 0.98935 0.71859 0.9875 0.0
H960 H 0.98638 0.74376 0.33837 0.0
H961 H 0.03603 0.80083 0.32615 0.0
H962 H 0.05831 0.85278 0.37522 0.0
H963 H 0.00858 0.79592 0.38758 0.0
H964 H 0.05047 0.88438 0.33168 0.0
H965 H 0.15428 0.84826 0.35466 0.0
H966 H 0.10733 0.81328 0.35017 0.0
H967 H 0.11738 0.84177 0.36858 0.0
C968 C 0.00152 0.76748 0.34651 0.0
C969 C 0.99386 0.76539 0.36394 0.0
C970 C 0.02972 0.8 0.33951 0.0
C971 C 0.05065 0.8307 0.34984 0.0
C972 C 0.04226 0.8292 0.36711 0.0
H973 H 0.26359 0.02292 0.32928 0.0
H974 H 0.20701 0.97652 0.34313 0.0
C975 C 0.01395 0.79676 0.37412 0.0
C976 C 0.08306 0.86332 0.34282 0.0
H977 H 0.17623 0.90313 0.33923 0.0
C978 C 0.07805 0.88874 0.33335 0.0
C979 C 0.11877 0.86866 0.34516 0.0
C980 C 0.1251 0.84161 0.35514 0.0
C981 C 0.10819 0.91971 0.32608 0.0
C982 C 0.14394 0.92464 0.32807 0.0
C983 C 0.14881 0.89932 0.33776 0.0
C984 C 0.17667 0.95503 0.31977 0.0
C985 C 0.10152 0.947 0.31652 0.0
C986 C 0.17825 0.95838 0.30206 0.0
C987 C 0.21041 0.98499 0.29414 0.0
C988 C 0.24168 0.00828 0.3038 0.0
C989 C 0.2399 0.00526 0.32153 0.0
C990 C 0.20763 0.97884 0.32945 0.0
H991 H 0.0755 0.94564 0.32059 0.0
H992 H 0.1246 0.97561 0.3183 0.0
H993 H 0.09912 0.9404 0.3028 0.0
H994 H 0.15502 0.93968 0.29432 0.0
H995 H 0.2111 0.98659 0.28044 0.0
H996 H 0.25382 0.99093 0.67218 0.0
H997 H 0.2492 0.04168 0.6594 0.0
H998 H 0.20569 0.05741 0.70617 0.0
H999 H 0.21014 0.00661 0.71909 0.0
H1000 H 0.1694 0.06054 0.6742 0.0
H1001 H 0.32184 0.15058 0.67541 0.0
H1002 H 0.30471 0.10599 0.66584 0.0
H1003 H 0.29797 0.10931 0.68808 0.0
C1004 C 0.24286 0.0049 0.67968 0.0
C1005 C 0.23266 0.99511 0.69667 0.0
C1006 C 0.24033 0.03387 0.67238 0.0
C1007 C 0.22754 0.0534 0.68194 0.0
C1008 C 0.21573 0.04262 0.69865 0.0
H1009 H 0.26456 0.27233 0.66136 0.0
H1010 H 0.25678 0.21635 0.67495 0.0
C1011 C 0.21835 0.0137 0.70599 0.0
C1012 C 0.22851 0.08639 0.67482 0.0
H1013 H 0.28782 0.17426 0.66187 0.0
C1014 C 0.1952 0.08546 0.6715 0.0
C1015 C 0.26232 0.11887 0.67157 0.0
C1016 C 0.29882 0.12158 0.67551 0.0
C1017 C 0.19487 0.11621 0.66465 0.0
C1018 C 0.2287 0.14837 0.66103 0.0
C1019 C 0.26196 0.14943 0.66463 0.0
C1020 C 0.23045 0.18125 0.65329 0.0
C1021 C 0.15846 0.11426 0.66149 0.0
C1022 C 0.21813 0.17985 0.63665 0.0
C1023 C 0.22268 0.21175 0.62885 0.0
C1024 C 0.23969 0.24552 0.63757 0.0
C1025 C 0.25134 0.24668 0.65435 0.0
C1026 C 0.24692 0.21479 0.66212 0.0
H1027 H 0.13558 0.091 0.66843 0.0
H1028 H 0.15968 0.14034 0.66534 0.0
H1029 H 0.15212 0.11019 0.64775 0.0
H1030 H 0.20592 0.1543 0.62956 0.0
H1031 H 0.21347 0.21007 0.61589 0.0
loop_
_geom_bond_atom_site_label_1
_geom_bond_atom_site_label_2
_geom_bond_distance
_geom_bond_site_symmetry_2
_ccdc_geom_bond_type
Co0 O1 2.216 . S
Co0 O2 2.091 . S
Co0 O4 2.004 . S
Co0 O10 2.021 . S
Co0 O12 2.137 . S
Co0 O13 2.244 . S
O1 Co0 2.216 . S
O1 C8 1.247 . S
O2 Co0 2.091 . S
O2 C8 1.261 . S
C3 O12 1.247 . S
C3 O13 1.272 . S
O4 Co0 2.004 . S
O4 C9 1.259 . S
Co5 O6 2.061 . S
Co5 O11 2.052 . S
Co5 O13 2.135 . S
O6 Co5 2.061 . S
O6 C9 1.235 . S
C7 O10 1.238 . S
C7 O11 1.241 . S
C8 O1 1.247 . S
C8 O2 1.261 . S
C9 O4 1.259 . S
C9 O6 1.235 . S
O10 Co0 2.021 . S
O10 C7 1.238 . S
O11 Co5 2.052 . S
O11 C7 1.241 . S
O12 Co0 2.137 . S
O12 C3 1.247 . S
O13 Co0 2.244 . S
O13 C3 1.272 . S
O13 Co5 2.135 . S
Co14 O15 2.216 . S
Co14 O16 2.091 . S
Co14 O18 2.004 . S
Co14 O24 2.021 . S
Co14 O26 2.137 . S
Co14 O27 2.244 . S
O15 Co14 2.216 . S
O15 C22 1.247 . S
O16 Co14 2.091 . S
O16 C22 1.261 . S
C17 O26 1.247 . S
C17 O27 1.272 . S
O18 Co14 2.004 . S
O18 C23 1.259 . S
Co19 O20 2.061 . S
Co19 O25 2.052 . S
Co19 O27 2.135 . S
O20 Co19 2.061 . S
O20 C23 1.235 . S
C21 O24 1.238 . S
C21 O25 1.241 . S
C22 O15 1.247 . S
C22 O16 1.261 . S
C23 O18 1.259 . S
C23 O20 1.235 . S
O24 Co14 2.021 . S
O24 C21 1.238 . S
O25 Co19 2.052 . S
O25 C21 1.241 . S
O26 Co14 2.137 . S
O26 C17 1.247 . S
O27 Co14 2.244 . S
O27 C17 1.272 . S
O27 Co19 2.135 . S
Co28 O29 2.216 . S
Co28 O30 2.091 . S
Co28 O32 2.004 . S
Co28 O38 2.021 . S
Co28 O40 2.137 . S
Co28 O41 2.244 . S
O29 Co28 2.216 . S
O29 C36 1.247 . S
O30 Co28 2.091 . S
O30 C36 1.261 . S
C31 O40 1.247 . S
C31 O41 1.272 . S
O32 Co28 2.004 . S
O32 C37 1.259 . S
Co33 O34 2.061 . S
Co33 O39 2.052 . S
Co33 O41 2.135 . S
O34 Co33 2.061 . S
O34 C37 1.235 . S
C35 O38 1.238 . S
C35 O39 1.241 . S
C36 O29 1.247 . S
C36 O30 1.261 . S
C37 O32 1.259 . S
C37 O34 1.235 . S
O38 Co28 2.021 . S
O38 C35 1.238 . S
O39 Co33 2.052 . S
O39 C35 1.241 . S
O40 Co28 2.137 . S
O40 C31 1.247 . S
O41 Co28 2.244 . S
O41 C31 1.272 . S
O41 Co33 2.135 . S
Co42 O43 2.216 . S
Co42 O44 2.091 . S
Co42 O46 2.004 . S
Co42 O52 2.021 . S
Co42 O54 2.137 . S
Co42 O55 2.244 . S
O43 Co42 2.216 . S
O43 C50 1.247 . S
O44 Co42 2.091 . S
O44 C50 1.261 . S
C45 O54 1.247 . S
C45 O55 1.272 . S
O46 Co42 2.004 . S
O46 C51 1.259 . S
Co47 O48 2.061 . S
Co47 O53 2.052 . S
Co47 O55 2.135 . S
O48 Co47 2.061 . S
O48 C51 1.235 . S
C49 O52 1.238 . S
C49 O53 1.241 . S
C50 O43 1.247 . S
C50 O44 1.261 . S
C51 O46 1.259 . S
C51 O48 1.235 . S
O52 Co42 2.021 . S
O52 C49 1.238 . S
O53 Co47 2.052 . S
O53 C49 1.241 . S
O54 Co42 2.137 . S
O54 C45 1.247 . S
O55 Co42 2.244 . S
O55 C45 1.272 . S
O55 Co47 2.135 . S
Co56 O57 2.216 . S
Co56 O58 2.091 . S
Co56 O60 2.004 . S
Co56 O66 2.021 . S
Co56 O68 2.137 . S
Co56 O69 2.244 . S
O57 Co56 2.216 . S
O57 C64 1.247 . S
O58 Co56 2.091 . S
O58 C64 1.261 . S
C59 O68 1.247 . S
C59 O69 1.272 . S
O60 Co56 2.004 . S
O60 C65 1.259 . S
Co61 O62 2.061 . S
Co61 O67 2.052 . S
Co61 O69 2.135 . S
O62 Co61 2.061 . S
O62 C65 1.235 . S
C63 O66 1.238 . S
C63 O67 1.241 . S
C64 O57 1.247 . S
C64 O58 1.261 . S
C65 O60 1.259 . S
C65 O62 1.235 . S
O66 Co56 2.021 . S
O66 C63 1.238 . S
O67 Co61 2.052 . S
O67 C63 1.241 . S
O68 Co56 2.137 . S
O68 C59 1.247 . S
O69 Co56 2.244 . S
O69 C59 1.272 . S
O69 Co61 2.135 . S
Co70 O71 2.216 . S
Co70 O72 2.091 . S
Co70 O74 2.004 . S
Co70 O80 2.021 . S
Co70 O82 2.137 . S
Co70 O83 2.244 . S
O71 Co70 2.216 . S
O71 C78 1.247 . S
O72 Co70 2.091 . S
O72 C78 1.261 . S
C73 O82 1.247 . S
C73 O83 1.272 . S
O74 Co70 2.004 . S
O74 C79 1.259 . S
Co75 O76 2.061 . S
Co75 O81 2.052 . S
Co75 O83 2.135 . S
O76 Co75 2.061 . S
O76 C79 1.235 . S
C77 O80 1.238 . S
C77 O81 1.241 . S
C78 O71 1.247 . S
C78 O72 1.261 . S
C79 O74 1.259 . S
C79 O76 1.235 . S
O80 Co70 2.021 . S
O80 C77 1.238 . S
O81 Co75 2.052 . S
O81 C77 1.241 . S
O82 Co70 2.137 . S
O82 C73 1.247 . S
O83 Co70 2.244 . S
O83 C73 1.272 . S
O83 Co75 2.135 . S
Co84 O85 2.216 . S
Co84 O86 2.091 . S
Co84 O88 2.004 . S
Co84 O94 2.021 . S
Co84 O96 2.137 . S
Co84 O97 2.244 . S
O85 Co84 2.216 . S
O85 C92 1.247 . S
O86 Co84 2.091 . S
O86 C92 1.261 . S
C87 O96 1.247 . S
C87 O97 1.272 . S
O88 Co84 2.004 . S
O88 C93 1.259 . S
Co89 O90 2.061 . S
Co89 O95 2.052 . S
Co89 O97 2.135 . S
O90 Co89 2.061 . S
O90 C93 1.235 . S
C91 O94 1.238 . S
C91 O95 1.241 . S
C92 O85 1.247 . S
C92 O86 1.261 . S
C93 O88 1.259 . S
C93 O90 1.235 . S
O94 Co84 2.021 . S
O94 C91 1.238 . S
O95 Co89 2.052 . S
O95 C91 1.241 . S
O96 Co84 2.137 . S
O96 C87 1.247 . S
O97 Co84 2.244 . S
O97 C87 1.272 . S
O97 Co89 2.135 . S
Co98 O99 2.216 . S
Co98 O100 2.091 . S
Co98 O102 2.004 . S
Co98 O108 2.021 . S
Co98 O110 2.137 . S
Co98 O111 2.244 . S
O99 Co98 2.216 . S
O99 C106 1.247 . S
O100 Co98 2.091 . S
O100 C106 1.261 . S
C101 O110 1.247 . S
C101 O111 1.272 . S
O102 Co98 2.004 . S
O102 C107 1.259 . S
Co103 O104 2.061 . S
Co103 O109 2.052 . S
Co103 O111 2.135 . S
O104 Co103 2.061 . S
O104 C107 1.235 . S
C105 O108 1.238 . S
C105 O109 1.241 . S
C106 O99 1.247 . S
C106 O100 1.261 . S
C107 O102 1.259 . S
C107 O104 1.235 . S
O108 Co98 2.021 . S
O108 C105 1.238 . S
O109 Co103 2.052 . S
O109 C105 1.241 . S
O110 Co98 2.137 . S
O110 C101 1.247 . S
O111 Co98 2.244 . S
O111 C101 1.272 . S
O111 Co103 2.135 . S
Co112 O113 2.216 . S
Co112 O114 2.091 . S
Co112 O116 2.004 . S
Co112 O122 2.021 . S
Co112 O124 2.137 . S
Co112 O125 2.244 . S
O113 Co112 2.216 . S
O113 C120 1.247 . S
O114 Co112 2.091 . S
O114 C120 1.261 . S
C115 O124 1.247 . S
C115 O125 1.272 . S
O116 Co112 2.004 . S
O116 C121 1.259 . S
Co117 O118 2.061 . S
Co117 O123 2.052 . S
Co117 O125 2.135 . S
O118 Co117 2.061 . S
O118 C121 1.235 . S
C119 O122 1.238 . S
C119 O123 1.241 . S
C120 O113 1.247 . S
C120 O114 1.261 . S
C121 O116 1.259 . S
C121 O118 1.235 . S
O122 Co112 2.021 . S
O122 C119 1.238 . S
O123 Co117 2.052 . S
O123 C119 1.241 . S
O124 Co112 2.137 . S
O124 C115 1.247 . S
O125 Co112 2.244 . S
O125 C115 1.272 . S
O125 Co117 2.135 . S
Co126 O127 2.216 . S
Co126 O128 2.091 . S
Co126 O130 2.004 . S
Co126 O136 2.021 . S
Co126 O138 2.137 . S
Co126 O139 2.244 . S
O127 Co126 2.216 . S
O127 C134 1.247 . S
O128 Co126 2.091 . S
O128 C134 1.261 . S
C129 O138 1.247 . S
C129 O139 1.272 . S
O130 Co126 2.004 . S
O130 C135 1.259 . S
Co131 O132 2.061 . S
Co131 O137 2.052 . S
Co131 O139 2.135 . S
O132 Co131 2.061 . S
O132 C135 1.235 . S
C133 O136 1.238 . S
C133 O137 1.241 . S
C134 O127 1.247 . S
C134 O128 1.261 . S
C135 O130 1.259 . S
C135 O132 1.235 . S
O136 Co126 2.021 . S
O136 C133 1.238 . S
O137 Co131 2.052 . S
O137 C133 1.241 . S
O138 Co126 2.137 . S
O138 C129 1.247 . S
O139 Co126 2.244 . S
O139 C129 1.272 . S
O139 Co131 2.135 . S
Co140 O141 2.216 . S
Co140 O142 2.091 . S
Co140 O144 2.004 . S
Co140 O150 2.021 . S
Co140 O152 2.137 . S
Co140 O153 2.244 . S
O141 Co140 2.216 . S
O141 C148 1.247 . S
O142 Co140 2.091 . S
O142 C148 1.261 . S
C143 O152 1.247 . S
C143 O153 1.272 . S
O144 Co140 2.004 . S
O144 C149 1.259 . S
Co145 O146 2.061 . S
Co145 O151 2.052 . S
Co145 O153 2.135 . S
O146 Co145 2.061 . S
O146 C149 1.235 . S
C147 O150 1.238 . S
C147 O151 1.241 . S
C148 O141 1.247 . S
C148 O142 1.261 . S
C149 O144 1.259 . S
C149 O146 1.235 . S
O150 Co140 2.021 . S
O150 C147 1.238 . S
O151 Co145 2.052 . S
O151 C147 1.241 . S
O152 Co140 2.137 . S
O152 C143 1.247 . S
O153 Co140 2.244 . S
O153 C143 1.272 . S
O153 Co145 2.135 . S
Co154 O155 2.216 . S
Co154 O156 2.091 . S
Co154 O158 2.004 . S
Co154 O164 2.021 . S
Co154 O166 2.137 . S
Co154 O167 2.244 . S
O155 Co154 2.216 . S
O155 C162 1.247 . S
O156 Co154 2.091 . S
O156 C162 1.261 . S
C157 O166 1.247 . S
C157 O167 1.272 . S
O158 Co154 2.004 . S
O158 C163 1.259 . S
Co159 O160 2.061 . S
Co159 O165 2.052 . S
Co159 O167 2.135 . S
O160 Co159 2.061 . S
O160 C163 1.235 . S
C161 O164 1.238 . S
C161 O165 1.241 . S
C162 O155 1.247 . S
C162 O156 1.261 . S
C163 O158 1.259 . S
C163 O160 1.235 . S
O164 Co154 2.021 . S
O164 C161 1.238 . S
O165 Co159 2.052 . S
O165 C161 1.241 . S
O166 Co154 2.137 . S
O166 C157 1.247 . S
O167 Co154 2.244 . S
O167 C157 1.272 . S
O167 Co159 2.135 . S
H168 C176 0.929 . S
H169 C178 0.930 . S
H170 C180 0.930 . S
H171 C183 0.929 . S
H172 C186 0.930 . S
H173 C188 0.960 . S
H174 C188 0.960 . S
H175 C188 0.960 . S
C176 H168 0.929 . S
C176 C177 1.377 . S
C176 C178 1.384 . S
C177 C176 1.377 . S
C177 C183 1.390 . S
C178 H169 0.930 . S
C178 C176 1.384 . S
C178 C179 1.372 . S
C179 C178 1.372 . S
C179 C180 1.400 . S
C179 C184 1.490 . S
C180 H170 0.930 . S
C180 C179 1.400 . S
C180 C183 1.386 . S
H181 C197 0.930 . S
H182 C198 0.931 . S
C183 H171 0.929 . S
C183 C177 1.390 . S
C183 C180 1.386 . S
C184 C179 1.490 . S
C184 C186 1.395 . S
C184 C187 1.403 . S
H185 C191 0.930 . S
C186 H172 0.930 . S
C186 C184 1.395 . S
C186 C189 1.403 . S
C187 C184 1.403 . S
C187 C188 1.524 . S
C187 C191 1.400 . S
C188 H173 0.960 . S
C188 H174 0.960 . S
C188 H175 0.960 . S
C188 C187 1.524 . S
C189 C186 1.403 . S
C189 C190 1.392 . S
C189 C193 1.495 . S
C190 C189 1.392 . S
C190 C191 1.385 . S
C190 C192 1.478 . S
C191 H185 0.930 . S
C191 C187 1.400 . S
C191 C190 1.385 . S
C192 C190 1.478 . S
C192 C194 1.381 . S
C192 C198 1.383 . S
C193 C189 1.495 . S
C193 H199 0.959 . S
C193 H200 0.961 . S
C193 H201 0.960 . S
C194 C192 1.381 . S
C194 C195 1.394 . S
C194 H202 0.930 . S
C195 C194 1.394 . S
C195 C196 1.383 . S
C195 H203 0.929 . S
C196 C195 1.383 . S
C196 C197 1.377 . S
C197 H181 0.930 . S
C197 C196 1.377 . S
C197 C198 1.379 . S
C198 H182 0.931 . S
C198 C192 1.383 . S
C198 C197 1.379 . S
H199 C193 0.959 . S
H200 C193 0.961 . S
H201 C193 0.960 . S
H202 C194 0.930 . S
H203 C195 0.929 . S
H204 C212 0.929 . S
H205 C214 0.930 . S
H206 C216 0.930 . S
H207 C219 0.929 . S
H208 C222 0.930 . S
H209 C224 0.960 . S
H210 C224 0.960 . S
H211 C224 0.960 . S
C212 H204 0.929 . S
C212 C213 1.377 . S
C212 C214 1.384 . S
C213 C212 1.377 . S
C213 C219 1.390 . S
C214 H205 0.930 . S
C214 C212 1.384 . S
C214 C215 1.372 . S
C215 C214 1.372 . S
C215 C216 1.400 . S
C215 C220 1.490 . S
C216 H206 0.930 . S
C216 C215 1.400 . S
C216 C219 1.386 . S
H217 C233 0.930 . S
H218 C234 0.931 . S
C219 H207 0.929 . S
C219 C213 1.390 . S
C219 C216 1.386 . S
C220 C215 1.490 . S
C220 C222 1.395 1_455 S
C220 C223 1.403 . S
H221 C227 0.930 . S
C222 H208 0.930 . S
C222 C220 1.395 1_655 S
C222 C225 1.403 . S
C223 C220 1.403 . S
C223 C224 1.524 . S
C223 C227 1.400 . S
C224 H209 0.960 . S
C224 H210 0.960 . S
C224 H211 0.960 . S
C224 C223 1.524 . S
C225 C222 1.403 . S
C225 C226 1.392 . S
C225 C229 1.495 . S
C226 C225 1.392 . S
C226 C227 1.385 1_655 S
C226 C228 1.478 . S
C227 H221 0.930 . S
C227 C223 1.400 . S
C227 C226 1.385 1_455 S
C228 C226 1.478 . S
C228 C230 1.381 . S
C228 C234 1.383 . S
C229 C225 1.495 . S
C229 H235 0.959 . S
C229 H236 0.961 . S
C229 H237 0.960 . S
C230 C228 1.381 . S
C230 C231 1.394 . S
C230 H238 0.930 . S
C231 C230 1.394 . S
C231 C232 1.383 . S
C231 H239 0.929 . S
C232 C231 1.383 . S
C232 C233 1.377 . S
C233 H217 0.930 . S
C233 C232 1.377 . S
C233 C234 1.379 . S
C234 H218 0.931 . S
C234 C228 1.383 . S
C234 C233 1.379 . S
H235 C229 0.959 . S
H236 C229 0.961 . S
H237 C229 0.960 . S
H238 C230 0.930 . S
H239 C231 0.929 . S
H240 C248 0.929 . S
H241 C250 0.930 . S
H242 C252 0.930 . S
H243 C255 0.929 . S
H244 C258 0.930 . S
H245 C260 0.960 . S
H246 C260 0.960 . S
H247 C260 0.960 . S
C248 H240 0.929 . S
C248 C249 1.377 . S
C248 C250 1.384 . S
C249 C248 1.377 . S
C249 C255 1.390 . S
C250 H241 0.930 . S
C250 C248 1.384 . S
C250 C251 1.372 . S
C251 C250 1.372 . S
C251 C252 1.400 . S
C251 C256 1.490 . S
C252 H242 0.930 . S
C252 C251 1.400 . S
C252 C255 1.386 . S
H253 C269 0.930 . S
H254 C270 0.931 . S
C255 H243 0.929 . S
C255 C249 1.390 . S
C255 C252 1.386 . S
C256 C251 1.490 . S
C256 C258 1.395 . S
C256 C259 1.403 1_565 S
H257 C263 0.930 . S
C258 H244 0.930 . S
C258 C256 1.395 . S
C258 C261 1.403 . S
C259 C256 1.403 1_545 S
C259 C260 1.524 . S
C259 C263 1.400 . S
C260 H245 0.960 . S
C260 H246 0.960 . S
C260 H247 0.960 . S
C260 C259 1.524 . S
C261 C258 1.403 . S
C261 C262 1.392 1_565 S
C261 C265 1.495 . S
C262 C261 1.392 1_545 S
C262 C263 1.385 . S
C262 C264 1.478 . S
C263 H257 0.930 . S
C263 C259 1.400 . S
C263 C262 1.385 . S
C264 C262 1.478 . S
C264 C266 1.381 . S
C264 C270 1.383 . S
C265 C261 1.495 . S
C265 H271 0.959 . S
C265 H272 0.961 . S
C265 H273 0.960 . S
C266 C264 1.381 . S
C266 C267 1.394 . S
C266 H274 0.930 . S
C267 C266 1.394 . S
C267 C268 1.383 . S
C267 H275 0.929 . S
C268 C267 1.383 . S
C268 C269 1.377 . S
C269 H253 0.930 . S
C269 C268 1.377 . S
C269 C270 1.379 . S
C270 H254 0.931 . S
C270 C264 1.383 . S
C270 C269 1.379 . S
H271 C265 0.959 . S
H272 C265 0.961 . S
H273 C265 0.960 . S
H274 C266 0.930 . S
H275 C267 0.929 . S
H276 C284 0.929 . S
H277 C286 0.930 . S
H278 C288 0.930 . S
H279 C291 0.929 . S
H280 C294 0.930 . S
H281 C296 0.960 . S
H282 C296 0.960 . S
H283 C296 0.960 . S
C284 H276 0.929 . S
C284 C285 1.377 . S
C284 C286 1.384 . S
C285 C284 1.377 . S
C285 C291 1.390 . S
C286 H277 0.930 . S
C286 C284 1.384 . S
C286 C287 1.372 . S
C287 C286 1.372 . S
C287 C288 1.400 . S
C287 C292 1.490 . S
C288 H278 0.930 . S
C288 C287 1.400 . S
C288 C291 1.386 . S
H289 C305 0.930 . S
H290 C306 0.931 . S
C291 H279 0.929 . S
C291 C285 1.390 . S
C291 C288 1.386 . S
C292 C287 1.490 . S
C292 C294 1.395 . S
C292 C295 1.403 . S
H293 C299 0.930 . S
C294 H280 0.930 . S
C294 C292 1.395 . S
C294 C297 1.403 . S
C295 C292 1.403 . S
C295 C296 1.524 . S
C295 C299 1.400 . S
C296 H281 0.960 . S
C296 H282 0.960 . S
C296 H283 0.960 . S
C296 C295 1.524 . S
C297 C294 1.403 . S
C297 C298 1.392 . S
C297 C301 1.495 . S
C298 C297 1.392 . S
C298 C299 1.385 . S
C298 C300 1.478 . S
C299 H293 0.930 . S
C299 C295 1.400 . S
C299 C298 1.385 . S
C300 C298 1.478 . S
C300 C302 1.381 . S
C300 C306 1.383 . S
C301 C297 1.495 . S
C301 H307 0.959 . S
C301 H308 0.961 . S
C301 H309 0.960 . S
C302 C300 1.381 . S
C302 C303 1.394 . S
C302 H310 0.930 . S
C303 C302 1.394 . S
C303 C304 1.383 . S
C303 H311 0.929 . S
C304 C303 1.383 . S
C304 C305 1.377 . S
C305 H289 0.930 . S
C305 C304 1.377 . S
C305 C306 1.379 . S
C306 H290 0.931 . S
C306 C300 1.383 . S
C306 C305 1.379 . S
H307 C301 0.959 . S
H308 C301 0.961 . S
H309 C301 0.960 . S
H310 C302 0.930 . S
H311 C303 0.929 . S
H312 C320 0.929 . S
H313 C322 0.930 . S
H314 C324 0.930 . S
H315 C327 0.929 . S
H316 C330 0.930 . S
H317 C332 0.960 . S
H318 C332 0.960 . S
H319 C332 0.960 1_655 S
C320 H312 0.929 . S
C320 C321 1.377 . S
C320 C322 1.384 . S
C321 C320 1.377 . S
C321 C327 1.390 . S
C322 H313 0.930 . S
C322 C320 1.384 . S
C322 C323 1.372 . S
C323 C322 1.372 . S
C323 C324 1.400 . S
C323 C328 1.490 . S
C324 H314 0.930 . S
C324 C323 1.400 . S
C324 C327 1.386 . S
H325 C341 0.930 . S
H326 C342 0.924 1_655 S
C327 H315 0.929 . S
C327 C321 1.390 . S
C327 C324 1.386 . S
C328 C323 1.490 . S
C328 C330 1.395 . S
C328 C331 1.403 1_655 S
H329 C335 0.930 . S
C330 H316 0.930 . S
C330 C328 1.395 . S
C330 C333 1.403 . S
C331 C328 1.403 1_455 S
C331 C332 1.524 . S
C331 C335 1.400 . S
C332 H317 0.960 . S
C332 H318 0.960 . S
C332 H319 0.960 1_455 S
C332 C331 1.524 . S
C333 C330 1.403 . S
C333 C334 1.392 1_655 S
C333 C337 1.495 . S
C334 C333 1.392 1_455 S
C334 C335 1.385 . S
C334 C336 1.478 . S
C335 H329 0.930 . S
C335 C331 1.400 . S
C335 C334 1.385 . S
C336 C334 1.478 . S
C336 C338 1.381 . S
C336 C342 1.383 . S
C337 C333 1.495 . S
C337 H343 0.959 . S
C337 H344 0.961 . S
C337 H345 0.960 1_655 S
C338 C336 1.381 . S
C338 C339 1.394 . S
C338 H346 0.930 . S
C339 C338 1.394 . S
C339 C340 1.383 . S
C339 H347 0.929 . S
C340 C339 1.383 . S
C340 C341 1.377 . S
C341 H325 0.930 . S
C341 C340 1.377 . S
C341 C342 1.379 . S
C342 H326 0.924 1_455 S
C342 C336 1.383 . S
C342 C341 1.379 . S
H343 C337 0.959 . S
H344 C337 0.961 . S
H345 C337 0.960 1_455 S
H346 C338 0.930 . S
H347 C339 0.929 . S
H348 C356 0.929 . S
H349 C358 0.930 . S
H350 C360 0.930 . S
H351 C363 0.929 . S
H352 C366 0.930 . S
H353 C368 0.960 . S
H354 C368 0.960 . S
H355 C368 0.960 . S
C356 H348 0.929 . S
C356 C357 1.377 . S
C356 C358 1.384 . S
C357 C356 1.377 . S
C357 C363 1.390 . S
C358 H349 0.930 . S
C358 C356 1.384 . S
C358 C359 1.372 . S
C359 C358 1.372 . S
C359 C360 1.400 . S
C359 C364 1.490 . S
C360 H350 0.930 . S
C360 C359 1.400 . S
C360 C363 1.386 . S
H361 C377 0.930 . S
H362 C378 0.931 . S
C363 H351 0.929 . S
C363 C357 1.390 . S
C363 C360 1.386 . S
C364 C359 1.490 . S
C364 C366 1.395 1_545 S
C364 C367 1.403 . S
H365 C371 0.930 . S
C366 H352 0.930 . S
C366 C364 1.395 1_565 S
C366 C369 1.403 . S
C367 C364 1.403 . S
C367 C368 1.524 . S
C367 C371 1.400 . S
C368 H353 0.960 . S
C368 H354 0.960 . S
C368 H355 0.960 . S
C368 C367 1.524 . S
C369 C366 1.403 . S
C369 C370 1.392 . S
C369 C373 1.495 . S
C370 C369 1.392 . S
C370 C371 1.385 1_565 S
C370 C372 1.478 . S
C371 H365 0.930 . S
C371 C367 1.400 . S
C371 C370 1.385 1_545 S
C372 C370 1.478 . S
C372 C374 1.381 . S
C372 C378 1.383 . S
C373 C369 1.495 . S
C373 H379 0.959 . S
C373 H380 0.961 . S
C373 H381 0.960 . S
C374 C372 1.381 . S
C374 C375 1.394 . S
C374 H382 0.930 . S
C375 C374 1.394 . S
C375 C376 1.383 . S
C375 H383 0.929 . S
C376 C375 1.383 . S
C376 C377 1.377 . S
C377 H361 0.930 . S
C377 C376 1.377 . S
C377 C378 1.379 . S
C378 H362 0.931 . S
C378 C372 1.383 . S
C378 C377 1.379 . S
H379 C373 0.959 . S
H380 C373 0.961 . S
H381 C373 0.960 . S
H382 C374 0.930 . S
H383 C375 0.929 . S
H384 C392 0.929 . S
H385 C394 0.930 . S
H386 C396 0.930 . S
H387 C399 0.929 . S
H388 C402 0.930 . S
H389 C404 0.960 . S
H390 C404 0.960 . S
H391 C404 0.960 . S
C392 H384 0.929 . S
C392 C393 1.377 . S
C392 C394 1.384 . S
C393 C392 1.377 . S
C393 C399 1.390 . S
C394 H385 0.930 . S
C394 C392 1.384 . S
C394 C395 1.372 . S
C395 C394 1.372 . S
C395 C396 1.400 . S
C395 C400 1.490 . S
C396 H386 0.930 . S
C396 C395 1.400 . S
C396 C399 1.386 . S
H397 C413 0.930 . S
H398 C414 0.931 . S
C399 H387 0.929 . S
C399 C393 1.390 . S
C399 C396 1.386 . S
C400 C395 1.490 . S
C400 C402 1.395 . S
C400 C403 1.403 . S
H401 C407 0.930 . S
C402 H388 0.930 . S
C402 C400 1.395 . S
C402 C405 1.403 . S
C403 C400 1.403 . S
C403 C404 1.524 . S
C403 C407 1.400 . S
C404 H389 0.960 . S
C404 H390 0.960 . S
C404 H391 0.960 . S
C404 C403 1.524 . S
C405 C402 1.403 . S
C405 C406 1.392 . S
C405 C409 1.495 . S
C406 C405 1.392 . S
C406 C407 1.385 . S
C406 C408 1.478 . S
C407 H401 0.930 . S
C407 C403 1.400 . S
C407 C406 1.385 . S
C408 C406 1.478 . S
C408 C410 1.381 . S
C408 C414 1.383 . S
C409 C405 1.495 . S
C409 H415 0.959 . S
C409 H416 0.961 . S
C409 H417 0.960 . S
C410 C408 1.381 . S
C410 C411 1.394 . S
C410 H418 0.930 . S
C411 C410 1.394 . S
C411 C412 1.383 . S
C411 H419 0.929 . S
C412 C411 1.383 . S
C412 C413 1.377 . S
C413 H397 0.930 . S
C413 C412 1.377 . S
C413 C414 1.379 . S
C414 H398 0.931 . S
C414 C408 1.383 . S
C414 C413 1.379 . S
H415 C409 0.959 . S
H416 C409 0.961 . S
H417 C409 0.960 . S
H418 C410 0.930 . S
H419 C411 0.929 . S
H420 C428 0.929 . S
H421 C430 0.930 . S
H422 C432 0.930 . S
H423 C435 0.929 . S
H424 C438 0.930 . S
H425 C440 0.960 . S
H426 C440 0.960 . S
H427 C440 0.960 . S
C428 H420 0.929 . S
C428 C429 1.377 . S
C428 C430 1.384 . S
C429 C428 1.377 . S
C429 C435 1.390 . S
C430 H421 0.930 . S
C430 C428 1.384 . S
C430 C431 1.372 . S
C431 C430 1.372 . S
C431 C432 1.400 . S
C431 C436 1.490 . S
C432 H422 0.930 . S
C432 C431 1.400 . S
C432 C435 1.386 . S
H433 C449 0.930 . S
H434 C450 0.931 . S
C435 H423 0.929 . S
C435 C429 1.390 . S
C435 C432 1.386 . S
C436 C431 1.490 . S
C436 C438 1.395 . S
C436 C439 1.403 . S
H437 C443 0.930 . S
C438 H424 0.930 . S
C438 C436 1.395 . S
C438 C441 1.403 . S
C439 C436 1.403 . S
C439 C440 1.524 . S
C439 C443 1.400 . S
C440 H425 0.960 . S
C440 H426 0.960 . S
C440 H427 0.960 . S
C440 C439 1.524 . S
C441 C438 1.403 . S
C441 C442 1.392 . S
C441 C445 1.495 . S
C442 C441 1.392 . S
C442 C443 1.385 . S
C442 C444 1.478 . S
C443 H437 0.930 . S
C443 C439 1.400 . S
C443 C442 1.385 . S
C444 C442 1.478 . S
C444 C446 1.381 . S
C444 C450 1.383 . S
C445 C441 1.495 . S
C445 H451 0.959 . S
C445 H452 0.961 . S
C445 H453 0.960 . S
C446 C444 1.381 . S
C446 C447 1.394 . S
C446 H454 0.930 . S
C447 C446 1.394 . S
C447 C448 1.383 . S
C447 H455 0.929 . S
C448 C447 1.383 . S
C448 C449 1.377 . S
C449 H433 0.930 . S
C449 C448 1.377 . S
C449 C450 1.379 . S
C450 H434 0.931 . S
C450 C444 1.383 . S
C450 C449 1.379 . S
H451 C445 0.959 . S
H452 C445 0.961 . S
H453 C445 0.960 . S
H454 C446 0.930 . S
H455 C447 0.929 . S
H456 C464 0.929 . S
H457 C466 0.930 . S
H458 C468 0.930 . S
H459 C471 0.929 . S
H460 C474 0.930 . S
H461 C476 0.960 . S
H462 C476 0.960 . S
H463 C476 0.960 . S
C464 H456 0.929 . S
C464 C465 1.377 . S
C464 C466 1.384 . S
C465 C464 1.377 . S
C465 C471 1.390 . S
C466 H457 0.930 . S
C466 C464 1.384 . S
C466 C467 1.372 . S
C467 C466 1.372 . S
C467 C468 1.400 . S
C467 C472 1.490 . S
C468 H458 0.930 . S
C468 C467 1.400 . S
C468 C471 1.386 . S
H469 C485 0.930 . S
H470 C486 0.931 . S
C471 H459 0.929 . S
C471 C465 1.390 . S
C471 C468 1.386 . S
C472 C467 1.490 . S
C472 C474 1.395 . S
C472 C475 1.403 . S
H473 C479 0.930 . S
C474 H460 0.930 . S
C474 C472 1.395 . S
C474 C477 1.403 . S
C475 C472 1.403 . S
C475 C476 1.524 . S
C475 C479 1.400 . S
C476 H461 0.960 . S
C476 H462 0.960 . S
C476 H463 0.960 . S
C476 C475 1.524 . S
C477 C474 1.403 . S
C477 C478 1.392 . S
C477 C481 1.495 . S
C478 C477 1.392 . S
C478 C479 1.385 . S
C478 C480 1.478 . S
C479 H473 0.930 . S
C479 C475 1.400 . S
C479 C478 1.385 . S
C480 C478 1.478 . S
C480 C482 1.381 . S
C480 C486 1.383 . S
C481 C477 1.495 . S
C481 H487 0.959 . S
C481 H488 0.961 . S
C481 H489 0.960 . S
C482 C480 1.381 . S
C482 C483 1.394 . S
C482 H490 0.930 . S
C483 C482 1.394 . S
C483 C484 1.383 . S
C483 H491 0.929 . S
C484 C483 1.383 . S
C484 C485 1.377 . S
C485 H469 0.930 . S
C485 C484 1.377 . S
C485 C486 1.379 . S
C486 H470 0.931 . S
C486 C480 1.383 . S
C486 C485 1.379 . S
H487 C481 0.959 . S
H488 C481 0.961 . S
H489 C481 0.960 . S
H490 C482 0.930 . S
H491 C483 0.929 . S
H492 C500 0.929 . S
H493 C502 0.930 . S
H494 C504 0.930 . S
H495 C507 0.929 . S
H496 C510 0.930 . S
H497 C512 0.960 . S
H498 C512 0.960 . S
H499 C512 0.960 . S
C500 H492 0.929 . S
C500 C501 1.377 . S
C500 C502 1.384 . S
C501 C500 1.377 . S
C501 C507 1.390 . S
C502 H493 0.930 . S
C502 C500 1.384 . S
C502 C503 1.372 . S
C503 C502 1.372 . S
C503 C504 1.400 . S
C503 C508 1.490 . S
C504 H494 0.930 . S
C504 C503 1.400 . S
C504 C507 1.386 . S
H505 C521 0.930 . S
H506 C522 0.931 . S
C507 H495 0.929 . S
C507 C501 1.390 . S
C507 C504 1.386 . S
C508 C503 1.490 . S
C508 C510 1.395 . S
C508 C511 1.403 . S
H509 C515 0.930 . S
C510 H496 0.930 . S
C510 C508 1.395 . S
C510 C513 1.403 . S
C511 C508 1.403 . S
C511 C512 1.524 . S
C511 C515 1.400 . S
C512 H497 0.960 . S
C512 H498 0.960 . S
C512 H499 0.960 . S
C512 C511 1.524 . S
C513 C510 1.403 . S
C513 C514 1.392 . S
C513 C517 1.495 . S
C514 C513 1.392 . S
C514 C515 1.385 . S
C514 C516 1.478 . S
C515 H509 0.930 . S
C515 C511 1.400 . S
C515 C514 1.385 . S
C516 C514 1.478 . S
C516 C518 1.381 . S
C516 C522 1.383 . S
C517 C513 1.495 . S
C517 H523 0.959 . S
C517 H524 0.961 . S
C517 H525 0.960 . S
C518 C516 1.381 . S
C518 C519 1.394 . S
C518 H526 0.930 . S
C519 C518 1.394 . S
C519 C520 1.383 . S
C519 H527 0.929 . S
C520 C519 1.383 . S
C520 C521 1.377 . S
C521 H505 0.930 . S
C521 C520 1.377 . S
C521 C522 1.379 . S
C522 H506 0.931 . S
C522 C516 1.383 . S
C522 C521 1.379 . S
H523 C517 0.959 . S
H524 C517 0.961 . S
H525 C517 0.960 . S
H526 C518 0.930 . S
H527 C519 0.929 . S
H528 C536 0.929 . S
H529 C538 0.930 . S
H530 C540 0.930 . S
H531 C543 0.929 . S
H532 C546 0.930 . S
H533 C548 0.960 . S
H534 C548 0.960 . S
H535 C548 0.960 . S
C536 H528 0.929 . S
C536 C537 1.377 . S
C536 C538 1.384 . S
C537 C536 1.377 . S
C537 C543 1.390 . S
C538 H529 0.930 . S
C538 C536 1.384 . S
C538 C539 1.372 . S
C539 C538 1.372 . S
C539 C540 1.400 . S
C539 C544 1.490 . S
C540 H530 0.930 . S
C540 C539 1.400 . S
C540 C543 1.386 . S
H541 C557 0.930 . S
H542 C558 0.931 . S
C543 H531 0.929 . S
C543 C537 1.390 . S
C543 C540 1.386 . S
C544 C539 1.490 . S
C544 C546 1.395 . S
C544 C547 1.403 . S
H545 C551 0.930 . S
C546 H532 0.930 . S
C546 C544 1.395 . S
C546 C549 1.403 . S
C547 C544 1.403 . S
C547 C548 1.524 . S
C547 C551 1.400 . S
C548 H533 0.960 . S
C548 H534 0.960 . S
C548 H535 0.960 . S
C548 C547 1.524 . S
C549 C546 1.403 . S
C549 C550 1.392 . S
C549 C553 1.495 . S
C550 C549 1.392 . S
C550 C551 1.385 . S
C550 C552 1.478 . S
C551 H545 0.930 . S
C551 C547 1.400 . S
C551 C550 1.385 . S
C552 C550 1.478 . S
C552 C554 1.381 . S
C552 C558 1.383 . S
C553 C549 1.495 . S
C553 H559 0.959 . S
C553 H560 0.961 . S
C553 H561 0.960 . S
C554 C552 1.381 . S
C554 C555 1.394 . S
C554 H562 0.930 . S
C555 C554 1.394 . S
C555 C556 1.383 . S
C555 H563 0.929 . S
C556 C555 1.383 . S
C556 C557 1.377 . S
C557 H541 0.930 . S
C557 C556 1.377 . S
C557 C558 1.379 . S
C558 H542 0.931 . S
C558 C552 1.383 . S
C558 C557 1.379 . S
H559 C553 0.959 . S
H560 C553 0.961 . S
H561 C553 0.960 . S
H562 C554 0.930 . S
H563 C555 0.929 . S
H564 C572 0.929 . S
H565 C574 0.930 . S
H566 C576 0.930 . S
H567 C579 0.929 . S
H568 C582 0.930 . S
H569 C584 0.960 . S
H570 C584 0.960 . S
H571 C584 0.960 . S
C572 H564 0.929 . S
C572 C573 1.377 . S
C572 C574 1.384 . S
C573 C572 1.377 . S
C573 C579 1.390 . S
C574 H565 0.930 . S
C574 C572 1.384 . S
C574 C575 1.372 . S
C575 C574 1.372 . S
C575 C576 1.400 . S
C575 C580 1.490 . S
C576 H566 0.930 . S
C576 C575 1.400 . S
C576 C579 1.386 . S
H577 C593 0.930 . S
H578 C594 0.931 . S
C579 H567 0.929 . S
C579 C573 1.390 . S
C579 C576 1.386 . S
C580 C575 1.490 . S
C580 C582 1.395 . S
C580 C583 1.403 . S
H581 C587 0.930 . S
C582 H568 0.930 . S
C582 C580 1.395 . S
C582 C585 1.403 . S
C583 C580 1.403 . S
C583 C584 1.524 . S
C583 C587 1.400 . S
C584 H569 0.960 . S
C584 H570 0.960 . S
C584 H571 0.960 . S
C584 C583 1.524 . S
C585 C582 1.403 . S
C585 C586 1.392 . S
C585 C589 1.495 . S
C586 C585 1.392 . S
C586 C587 1.385 . S
C586 C588 1.478 . S
C587 H581 0.930 . S
C587 C583 1.400 . S
C587 C586 1.385 . S
C588 C586 1.478 . S
C588 C590 1.381 . S
C588 C594 1.383 . S
C589 C585 1.495 . S
C589 H595 0.959 . S
C589 H596 0.961 . S
C589 H597 0.960 . S
C590 C588 1.381 . S
C590 C591 1.394 . S
C590 H598 0.930 . S
C591 C590 1.394 . S
C591 C592 1.383 . S
C591 H599 0.929 . S
C592 C591 1.383 . S
C592 C593 1.377 . S
C593 H577 0.930 . S
C593 C592 1.377 . S
C593 C594 1.379 . S
C594 H578 0.931 . S
C594 C588 1.383 . S
C594 C593 1.379 . S
H595 C589 0.959 . S
H596 C589 0.961 . S
H597 C589 0.960 . S
H598 C590 0.930 . S
H599 C591 0.929 . S
H600 C608 0.929 . S
H601 C610 0.930 . S
H602 C612 0.930 . S
H603 C615 0.929 . S
H604 C618 0.930 . S
H605 C620 0.960 1_545 S
H606 C620 0.960 . S
H607 C620 0.960 . S
C608 H600 0.929 . S
C608 C609 1.377 . S
C608 C610 1.384 . S
C609 C608 1.377 . S
C609 C615 1.390 . S
C610 H601 0.930 . S
C610 C608 1.384 . S
C610 C611 1.372 . S
C611 C610 1.372 . S
C611 C612 1.400 . S
C611 C616 1.490 . S
C612 H602 0.930 . S
C612 C611 1.400 . S
C612 C615 1.386 . S
H613 C629 0.930 . S
H614 C630 0.931 . S
C615 H603 0.929 . S
C615 C609 1.390 . S
C615 C612 1.386 . S
C616 C611 1.490 . S
C616 C618 1.395 1_556 S
C616 C619 1.403 . S
H617 C623 0.930 . S
C618 H604 0.930 . S
C618 C616 1.395 1_554 S
C618 C621 1.403 1_565 S
C619 C616 1.403 . S
C619 C620 1.524 . S
C619 C623 1.400 1_565 S
C620 H605 0.960 1_565 S
C620 H606 0.960 . S
C620 H607 0.960 . S
C620 C619 1.524 . S
C621 C618 1.403 1_545 S
C621 C622 1.392 . S
C621 C625 1.495 . S
C622 C621 1.392 . S
C622 C623 1.385 1_554 S
C622 C624 1.478 . S
C623 H617 0.930 . S
C623 C619 1.400 1_545 S
C623 C622 1.385 1_556 S
C624 C622 1.478 . S
C624 C626 1.381 . S
C624 C630 1.383 . S
C625 C621 1.495 . S
C625 H631 0.959 1_545 S
C625 H632 0.961 . S
C625 H633 0.960 . S
C626 C624 1.381 . S
C626 C627 1.394 . S
C626 H634 0.930 . S
C627 C626 1.394 . S
C627 C628 1.383 . S
C627 H635 0.929 . S
C628 C627 1.383 . S
C628 C629 1.377 . S
C629 H613 0.930 . S
C629 C628 1.377 . S
C629 C630 1.379 . S
C630 H614 0.931 . S
C630 C624 1.383 . S
C630 C629 1.379 . S
H631 C625 0.959 1_565 S
H632 C625 0.961 . S
H633 C625 0.960 . S
H634 C626 0.930 . S
H635 C627 0.929 . S
H636 C644 0.929 . S
H637 C646 0.930 . S
H638 C648 0.930 . S
H639 C651 0.929 . S
H640 C654 0.930 . S
H641 C656 0.960 . S
H642 C656 0.960 . S
H643 C656 0.960 . S
C644 H636 0.929 . S
C644 C645 1.377 . S
C644 C646 1.384 . S
C645 C644 1.377 . S
C645 C651 1.390 . S
C646 H637 0.930 . S
C646 C644 1.384 . S
C646 C647 1.372 . S
C647 C646 1.372 . S
C647 C648 1.400 . S
C647 C652 1.490 . S
C648 H638 0.930 . S
C648 C647 1.400 . S
C648 C651 1.386 . S
H649 C665 0.930 . S
H650 C666 0.931 . S
C651 H639 0.929 . S
C651 C645 1.390 . S
C651 C648 1.386 . S
C652 C647 1.490 . S
C652 C654 1.395 . S
C652 C655 1.403 . S
H653 C659 0.930 . S
C654 H640 0.930 . S
C654 C652 1.395 . S
C654 C657 1.403 . S
C655 C652 1.403 . S
C655 C656 1.524 . S
C655 C659 1.400 . S
C656 H641 0.960 . S
C656 H642 0.960 . S
C656 H643 0.960 . S
C656 C655 1.524 . S
C657 C654 1.403 . S
C657 C658 1.392 . S
C657 C661 1.495 . S
C658 C657 1.392 . S
C658 C659 1.385 . S
C658 C660 1.478 . S
C659 H653 0.930 . S
C659 C655 1.400 . S
C659 C658 1.385 . S
C660 C658 1.478 . S
C660 C662 1.381 . S
C660 C666 1.383 . S
C661 C657 1.495 . S
C661 H667 0.959 . S
C661 H668 0.961 . S
C661 H669 0.960 . S
C662 C660 1.381 . S
C662 C663 1.394 . S
C662 H670 0.930 . S
C663 C662 1.394 . S
C663 C664 1.383 . S
C663 H671 0.929 . S
C664 C663 1.383 . S
C664 C665 1.377 . S
C665 H649 0.930 . S
C665 C664 1.377 . S
C665 C666 1.379 . S
C666 H650 0.931 . S
C666 C660 1.383 . S
C666 C665 1.379 . S
H667 C661 0.959 . S
H668 C661 0.961 . S
H669 C661 0.960 . S
H670 C662 0.930 . S
H671 C663 0.929 . S
H672 C680 0.929 . S
H673 C682 0.930 . S
H674 C684 0.930 . S
H675 C687 0.929 . S
H676 C690 0.930 . S
H677 C692 0.960 1_455 S
H678 C692 0.960 . S
H679 C692 0.960 . S
C680 H672 0.929 . S
C680 C681 1.377 . S
C680 C682 1.384 . S
C681 C680 1.377 . S
C681 C687 1.390 . S
C682 H673 0.930 . S
C682 C680 1.384 . S
C682 C683 1.372 . S
C683 C682 1.372 . S
C683 C684 1.400 . S
C683 C688 1.490 . S
C684 H674 0.930 . S
C684 C683 1.400 . S
C684 C687 1.386 . S
H685 C701 0.930 . S
H686 C702 0.931 . S
C687 H675 0.929 . S
C687 C681 1.390 . S
C687 C684 1.386 . S
C688 C683 1.490 . S
C688 C690 1.395 . S
C688 C691 1.403 . S
H689 C695 0.930 . S
C690 H676 0.930 . S
C690 C688 1.395 . S
C690 C693 1.403 1_655 S
C691 C688 1.403 . S
C691 C692 1.524 . S
C691 C695 1.400 1_655 S
C692 H677 0.960 1_655 S
C692 H678 0.960 . S
C692 H679 0.960 . S
C692 C691 1.524 . S
C693 C690 1.403 1_455 S
C693 C694 1.392 . S
C693 C697 1.495 . S
C694 C693 1.392 . S
C694 C695 1.385 . S
C694 C696 1.478 . S
C695 H689 0.930 . S
C695 C691 1.400 1_455 S
C695 C694 1.385 . S
C696 C694 1.478 . S
C696 C698 1.381 . S
C696 C702 1.383 . S
C697 C693 1.495 . S
C697 H703 0.959 1_455 S
C697 H704 0.961 . S
C697 H705 0.960 . S
C698 C696 1.381 . S
C698 C699 1.394 . S
C698 H706 0.930 . S
C699 C698 1.394 . S
C699 C700 1.383 . S
C699 H707 0.929 . S
C700 C699 1.383 . S
C700 C701 1.377 . S
C701 H685 0.930 . S
C701 C700 1.377 . S
C701 C702 1.379 . S
C702 H686 0.931 . S
C702 C696 1.383 . S
C702 C701 1.379 . S
H703 C697 0.959 1_655 S
H704 C697 0.961 . S
H705 C697 0.960 . S
H706 C698 0.930 . S
H707 C699 0.929 . S
H708 C716 0.929 . S
H709 C718 0.930 . S
H710 C720 0.930 . S
H711 C723 0.929 . S
H712 C726 0.930 . S
H713 C728 0.960 . S
H714 C728 0.960 . S
H715 C728 0.960 . S
C716 H708 0.929 . S
C716 C717 1.377 . S
C716 C718 1.384 . S
C717 C716 1.377 . S
C717 C723 1.390 . S
C718 H709 0.930 . S
C718 C716 1.384 . S
C718 C719 1.372 . S
C719 C718 1.372 . S
C719 C720 1.400 . S
C719 C724 1.490 . S
C720 H710 0.930 . S
C720 C719 1.400 . S
C720 C723 1.386 . S
H721 C737 0.930 . S
H722 C738 0.931 . S
C723 H711 0.929 . S
C723 C717 1.390 . S
C723 C720 1.386 . S
C724 C719 1.490 . S
C724 C726 1.395 . S
C724 C727 1.403 1_554 S
H725 C731 0.930 . S
C726 H712 0.930 . S
C726 C724 1.395 . S
C726 C729 1.403 1_565 S
C727 C724 1.403 1_556 S
C727 C728 1.524 . S
C727 C731 1.400 1_565 S
C728 H713 0.960 . S
C728 H714 0.960 . S
C728 H715 0.960 . S
C728 C727 1.524 . S
C729 C726 1.403 1_545 S
C729 C730 1.392 1_554 S
C729 C733 1.495 . S
C730 C729 1.392 1_556 S
C730 C731 1.385 . S
C730 C732 1.478 . S
C731 H725 0.930 . S
C731 C727 1.400 1_545 S
C731 C730 1.385 . S
C732 C730 1.478 . S
C732 C734 1.381 . S
C732 C738 1.383 . S
C733 C729 1.495 . S
C733 H739 0.959 . S
C733 H740 0.961 . S
C733 H741 0.960 . S
C734 C732 1.381 . S
C734 C735 1.394 . S
C734 H742 0.930 . S
C735 C734 1.394 . S
C735 C736 1.383 . S
C735 H743 0.929 . S
C736 C735 1.383 . S
C736 C737 1.377 . S
C737 H721 0.930 . S
C737 C736 1.377 . S
C737 C738 1.379 . S
C738 H722 0.931 . S
C738 C732 1.383 . S
C738 C737 1.379 . S
H739 C733 0.959 . S
H740 C733 0.961 . S
H741 C733 0.960 . S
H742 C734 0.930 . S
H743 C735 0.929 . S
H744 C752 0.929 . S
H745 C754 0.930 . S
H746 C756 0.930 . S
H747 C759 0.929 . S
H748 C762 0.930 . S
H749 C764 0.960 . S
H750 C764 0.960 . S
H751 C764 0.960 . S
C752 H744 0.929 . S
C752 C753 1.377 . S
C752 C754 1.384 . S
C753 C752 1.377 . S
C753 C759 1.390 . S
C754 H745 0.930 . S
C754 C752 1.384 . S
C754 C755 1.372 . S
C755 C754 1.372 . S
C755 C756 1.400 . S
C755 C760 1.490 . S
C756 H746 0.930 . S
C756 C755 1.400 . S
C756 C759 1.386 . S
H757 C773 0.930 . S
H758 C774 0.931 . S
C759 H747 0.929 . S
C759 C753 1.390 . S
C759 C756 1.386 . S
C760 C755 1.490 . S
C760 C762 1.395 . S
C760 C763 1.403 . S
H761 C767 0.930 . S
C762 H748 0.930 . S
C762 C760 1.395 . S
C762 C765 1.403 . S
C763 C760 1.403 . S
C763 C764 1.524 . S
C763 C767 1.400 . S
C764 H749 0.960 . S
C764 H750 0.960 . S
C764 H751 0.960 . S
C764 C763 1.524 . S
C765 C762 1.403 . S
C765 C766 1.392 . S
C765 C769 1.495 . S
C766 C765 1.392 . S
C766 C767 1.385 . S
C766 C768 1.478 . S
C767 H761 0.930 . S
C767 C763 1.400 . S
C767 C766 1.385 . S
C768 C766 1.478 . S
C768 C770 1.381 . S
C768 C774 1.383 . S
C769 C765 1.495 . S
C769 H775 0.959 . S
C769 H776 0.961 . S
C769 H777 0.960 . S
C770 C768 1.381 . S
C770 C771 1.394 . S
C770 H778 0.930 . S
C771 C770 1.394 . S
C771 C772 1.383 . S
C771 H779 0.929 . S
C772 C771 1.383 . S
C772 C773 1.377 . S
C773 H757 0.930 . S
C773 C772 1.377 . S
C773 C774 1.379 . S
C774 H758 0.931 . S
C774 C768 1.383 . S
C774 C773 1.379 . S
H775 C769 0.959 . S
H776 C769 0.961 . S
H777 C769 0.960 . S
H778 C770 0.930 . S
H779 C771 0.929 . S
H780 C788 0.929 . S
H781 C790 0.930 . S
H782 C792 0.930 . S
H783 C795 0.929 . S
H784 C798 0.930 . S
H785 C800 0.960 . S
H786 C800 0.960 . S
H787 C800 0.960 . S
C788 H780 0.929 . S
C788 C789 1.377 . S
C788 C790 1.384 . S
C789 C788 1.377 . S
C789 C795 1.390 . S
C790 H781 0.930 . S
C790 C788 1.384 . S
C790 C791 1.372 . S
C791 C790 1.372 . S
C791 C792 1.400 . S
C791 C796 1.490 . S
C792 H782 0.930 . S
C792 C791 1.400 . S
C792 C795 1.386 . S
H793 C809 0.930 . S
H794 C810 0.931 . S
C795 H783 0.929 . S
C795 C789 1.390 . S
C795 C792 1.386 . S
C796 C791 1.490 . S
C796 C798 1.395 . S
C796 C799 1.403 . S
H797 C803 0.930 . S
C798 H784 0.930 . S
C798 C796 1.395 . S
C798 C801 1.403 1_455 S
C799 C796 1.403 . S
C799 C800 1.524 . S
C799 C803 1.400 1_455 S
C800 H785 0.960 . S
C800 H786 0.960 . S
C800 H787 0.960 . S
C800 C799 1.524 . S
C801 C798 1.403 1_655 S
C801 C802 1.392 . S
C801 C805 1.495 . S
C802 C801 1.392 . S
C802 C803 1.385 . S
C802 C804 1.478 . S
C803 H797 0.930 . S
C803 C799 1.400 1_655 S
C803 C802 1.385 . S
C804 C802 1.478 . S
C804 C806 1.381 . S
C804 C810 1.383 . S
C805 C801 1.495 . S
C805 H811 0.959 . S
C805 H812 0.961 . S
C805 H813 0.960 . S
C806 C804 1.381 . S
C806 C807 1.394 . S
C806 H814 0.930 . S
C807 C806 1.394 . S
C807 C808 1.383 . S
C807 H815 0.929 . S
C808 C807 1.383 . S
C808 C809 1.377 . S
C809 H793 0.930 . S
C809 C808 1.377 . S
C809 C810 1.379 . S
C810 H794 0.931 . S
C810 C804 1.383 . S
C810 C809 1.379 . S
H811 C805 0.959 . S
H812 C805 0.961 . S
H813 C805 0.960 . S
H814 C806 0.930 . S
H815 C807 0.929 . S
H816 C824 0.929 . S
H817 C826 0.930 . S
H818 C828 0.930 1_554 S
H819 C831 0.929 . S
H820 C834 0.930 . S
H821 C836 0.960 . S
H822 C836 0.960 . S
H823 C836 0.960 . S
C824 H816 0.929 . S
C824 C825 1.377 1_455 S
C824 C826 1.384 . S
C825 C824 1.377 1_655 S
C825 C831 1.390 . S
C826 H817 0.930 . S
C826 C824 1.384 . S
C826 C827 1.372 . S
C827 C826 1.372 . S
C827 C828 1.400 . S
C827 C832 1.490 . S
C828 H818 0.930 1_556 S
C828 C827 1.400 . S
C828 C831 1.386 1_455 S
H829 C845 0.930 . S
H830 C846 0.931 . S
C831 H819 0.929 . S
C831 C825 1.390 . S
C831 C828 1.386 1_655 S
C832 C827 1.490 . S
C832 C834 1.395 . S
C832 C835 1.403 . S
H833 C839 0.930 . S
C834 H820 0.930 . S
C834 C832 1.395 . S
C834 C837 1.403 1_556 S
C835 C832 1.403 . S
C835 C836 1.524 . S
C835 C839 1.400 1_556 S
C836 H821 0.960 . S
C836 H822 0.960 . S
C836 H823 0.960 . S
C836 C835 1.524 . S
C837 C834 1.403 1_554 S
C837 C838 1.392 . S
C837 C841 1.495 . S
C838 C837 1.392 . S
C838 C839 1.385 . S
C838 C840 1.478 . S
C839 H833 0.930 . S
C839 C835 1.400 1_554 S
C839 C838 1.385 . S
C840 C838 1.478 . S
C840 C842 1.381 . S
C840 C846 1.383 . S
C841 C837 1.495 . S
C841 H847 0.959 . S
C841 H848 0.961 . S
C841 H849 0.960 . S
C842 C840 1.381 . S
C842 C843 1.394 . S
C842 H850 0.930 1_554 S
C843 C842 1.394 . S
C843 C844 1.383 . S
C843 H851 0.929 . S
C844 C843 1.383 . S
C844 C845 1.377 . S
C845 H829 0.930 . S
C845 C844 1.377 . S
C845 C846 1.379 . S
C846 H830 0.931 . S
C846 C840 1.383 . S
C846 C845 1.379 . S
H847 C841 0.959 . S
H848 C841 0.961 . S
H849 C841 0.960 . S
H850 C842 0.930 1_556 S
H851 C843 0.929 . S
H852 C860 0.929 . S
H853 C862 0.930 . S
H854 C864 0.930 . S
H855 C867 0.929 . S
H856 C870 0.930 . S
H857 C872 0.960 . S
H858 C872 0.960 . S
H859 C872 0.960 . S
C860 H852 0.929 . S
C860 C861 1.377 . S
C860 C862 1.384 1_565 S
C861 C860 1.377 . S
C861 C867 1.390 1_565 S
C862 H853 0.930 . S
C862 C860 1.384 1_545 S
C862 C863 1.372 . S
C863 C862 1.372 . S
C863 C864 1.400 . S
C863 C868 1.490 . S
C864 H854 0.930 . S
C864 C863 1.400 . S
C864 C867 1.386 . S
H865 C881 0.930 . S
H866 C882 0.931 . S
C867 H855 0.929 . S
C867 C861 1.390 1_545 S
C867 C864 1.386 . S
C868 C863 1.490 . S
C868 C870 1.395 . S
C868 C871 1.403 . S
H869 C875 0.930 . S
C870 H856 0.930 . S
C870 C868 1.395 . S
C870 C873 1.403 . S
C871 C868 1.403 . S
C871 C872 1.524 . S
C871 C875 1.400 . S
C872 H857 0.960 . S
C872 H858 0.960 . S
C872 H859 0.960 . S
C872 C871 1.524 . S
C873 C870 1.403 . S
C873 C874 1.392 . S
C873 C877 1.495 . S
C874 C873 1.392 . S
C874 C875 1.385 . S
C874 C876 1.478 . S
C875 H869 0.930 . S
C875 C871 1.400 . S
C875 C874 1.385 . S
C876 C874 1.478 . S
C876 C878 1.381 . S
C876 C882 1.383 . S
C877 C873 1.495 . S
C877 H883 0.959 . S
C877 H884 0.961 . S
C877 H885 0.960 . S
C878 C876 1.381 . S
C878 C879 1.394 . S
C878 H886 0.930 . S
C879 C878 1.394 . S
C879 C880 1.383 1_655 S
C879 H887 0.947 . S
C880 C879 1.383 1_455 S
C880 C881 1.377 1_455 S
C881 H865 0.930 . S
C881 C880 1.377 1_655 S
C881 C882 1.379 . S
C882 H866 0.931 . S
C882 C876 1.383 . S
C882 C881 1.379 . S
H883 C877 0.959 . S
H884 C877 0.961 . S
H885 C877 0.960 . S
H886 C878 0.930 . S
H887 C879 0.947 . S
H888 C896 0.929 . S
H889 C898 0.930 . S
H890 C900 0.930 . S
H891 C903 0.929 . S
H892 C906 0.930 . S
H893 C908 0.960 . S
H894 C908 0.960 . S
H895 C908 0.960 . S
C896 H888 0.929 . S
C896 C897 1.377 . S
C896 C898 1.384 . S
C897 C896 1.377 . S
C897 C903 1.390 . S
C898 H889 0.930 . S
C898 C896 1.384 . S
C898 C899 1.372 . S
C899 C898 1.372 . S
C899 C900 1.400 . S
C899 C904 1.490 . S
C900 H890 0.930 . S
C900 C899 1.400 . S
C900 C903 1.386 . S
H901 C917 0.930 . S
H902 C918 0.931 . S
C903 H891 0.929 . S
C903 C897 1.390 . S
C903 C900 1.386 . S
C904 C899 1.490 . S
C904 C906 1.395 . S
C904 C907 1.403 . S
H905 C911 0.930 . S
C906 H892 0.930 . S
C906 C904 1.395 . S
C906 C909 1.403 . S
C907 C904 1.403 . S
C907 C908 1.524 . S
C907 C911 1.400 . S
C908 H893 0.960 . S
C908 H894 0.960 . S
C908 H895 0.960 . S
C908 C907 1.524 . S
C909 C906 1.403 . S
C909 C910 1.392 . S
C909 C913 1.495 . S
C910 C909 1.392 . S
C910 C911 1.385 . S
C910 C912 1.478 . S
C911 H905 0.930 . S
C911 C907 1.400 . S
C911 C910 1.385 . S
C912 C910 1.478 . S
C912 C914 1.381 . S
C912 C918 1.383 . S
C913 C909 1.495 . S
C913 H919 0.959 . S
C913 H920 0.961 . S
C913 H921 0.960 . S
C914 C912 1.381 . S
C914 C915 1.394 1_565 S
C914 H922 0.930 . S
C915 C914 1.394 1_545 S
C915 C916 1.383 . S
C915 H923 0.929 . S
C916 C915 1.383 . S
C916 C917 1.377 1_545 S
C917 H901 0.930 . S
C917 C916 1.377 1_565 S
C917 C918 1.379 . S
C918 H902 0.931 . S
C918 C912 1.383 . S
C918 C917 1.379 . S
H919 C913 0.959 . S
H920 C913 0.961 . S
H921 C913 0.960 . S
H922 C914 0.930 . S
H923 C915 0.929 . S
H924 C932 0.929 . S
H925 C934 0.930 . S
H926 C936 0.930 . S
H927 C939 0.929 . S
H928 C942 0.930 . S
H929 C944 0.960 . S
H930 C944 0.960 . S
H931 C944 0.960 . S
C932 H924 0.929 . S
C932 C933 1.377 . S
C932 C934 1.384 . S
C933 C932 1.377 . S
C933 C939 1.390 . S
C934 H925 0.930 . S
C934 C932 1.384 . S
C934 C935 1.372 . S
C935 C934 1.372 . S
C935 C936 1.400 . S
C935 C940 1.490 . S
C936 H926 0.930 . S
C936 C935 1.400 . S
C936 C939 1.386 . S
H937 C953 0.930 . S
H938 C954 0.931 . S
C939 H927 0.929 . S
C939 C933 1.390 . S
C939 C936 1.386 . S
C940 C935 1.490 . S
C940 C942 1.395 1_554 S
C940 C943 1.403 . S
H941 C947 0.930 . S
C942 H928 0.930 . S
C942 C940 1.395 1_556 S
C942 C945 1.403 . S
C943 C940 1.403 . S
C943 C944 1.524 . S
C943 C947 1.400 . S
C944 H929 0.960 . S
C944 H930 0.960 . S
C944 H931 0.960 . S
C944 C943 1.524 . S
C945 C942 1.403 . S
C945 C946 1.392 . S
C945 C949 1.495 . S
C946 C945 1.392 . S
C946 C947 1.385 1_556 S
C946 C948 1.478 . S
C947 H941 0.930 . S
C947 C943 1.400 . S
C947 C946 1.385 1_554 S
C948 C946 1.478 . S
C948 C950 1.381 . S
C948 C954 1.383 . S
C949 C945 1.495 . S
C949 H955 0.959 . S
C949 H956 0.961 . S
C949 H957 0.960 . S
C950 C948 1.381 . S
C950 C951 1.394 . S
C950 H958 0.930 . S
C951 C950 1.394 . S
C951 C952 1.368 1_655 S
C951 H959 0.929 . S
C952 C951 1.368 1_455 S
C952 C953 1.364 . S
C953 H937 0.930 . S
C953 C952 1.364 . S
C953 C954 1.379 1_455 S
C954 H938 0.931 . S
C954 C948 1.383 . S
C954 C953 1.379 1_655 S
H955 C949 0.959 . S
H956 C949 0.961 . S
H957 C949 0.960 . S
H958 C950 0.930 . S
H959 C951 0.929 . S
H960 C968 0.929 1_655 S
H961 C970 0.930 . S
H962 C972 0.930 . S
H963 C975 0.929 . S
H964 C978 0.930 . S
H965 C980 0.960 . S
H966 C980 0.960 . S
H967 C980 0.960 . S
C968 H960 0.929 1_455 S
C968 C969 1.377 1_455 S
C968 C970 1.384 . S
C969 C968 1.377 1_655 S
C969 C975 1.390 1_655 S
C970 H961 0.930 . S
C970 C968 1.384 . S
C970 C971 1.372 . S
C971 C970 1.372 . S
C971 C972 1.400 . S
C971 C976 1.490 . S
C972 H962 0.930 . S
C972 C971 1.400 . S
C972 C975 1.386 . S
H973 C989 0.930 . S
H974 C990 0.931 . S
C975 H963 0.929 . S
C975 C969 1.390 1_455 S
C975 C972 1.386 . S
C976 C971 1.490 . S
C976 C978 1.395 . S
C976 C979 1.403 . S
H977 C983 0.930 . S
C978 H964 0.930 . S
C978 C976 1.395 . S
C978 C981 1.403 . S
C979 C976 1.403 . S
C979 C980 1.524 . S
C979 C983 1.400 . S
C980 H965 0.960 . S
C980 H966 0.960 . S
C980 H967 0.960 . S
C980 C979 1.524 . S
C981 C978 1.403 . S
C981 C982 1.392 . S
C981 C985 1.495 . S
C982 C981 1.392 . S
C982 C983 1.385 . S
C982 C984 1.478 . S
C983 H977 0.930 . S
C983 C979 1.400 . S
C983 C982 1.385 . S
C984 C982 1.478 . S
C984 C986 1.381 . S
C984 C990 1.383 . S
C985 C981 1.495 . S
C985 H991 0.959 . S
C985 H992 0.961 . S
C985 H993 0.960 . S
C986 C984 1.381 . S
C986 C987 1.394 . S
C986 H994 0.930 . S
C987 C986 1.394 . S
C987 C988 1.383 1_565 S
C987 H995 0.929 . S
C988 C987 1.383 1_545 S
C988 C989 1.377 . S
C989 H973 0.930 . S
C989 C988 1.377 . S
C989 C990 1.379 1_545 S
C990 H974 0.931 . S
C990 C984 1.383 . S
C990 C989 1.379 1_565 S
H991 C985 0.959 . S
H992 C985 0.961 . S
H993 C985 0.960 . S
H994 C986 0.930 . S
H995 C987 0.929 . S
H996 C1004 0.929 . S
H997 C1006 0.930 . S
H998 C1008 0.930 . S
H999 C1011 0.929 . S
H1000 C1014 0.930 . S
H1001 C1016 0.960 . S
H1002 C1016 0.960 . S
H1003 C1016 0.960 . S
C1004 H996 0.929 . S
C1004 C1005 1.377 . S
C1004 C1006 1.384 1_565 S
C1005 C1004 1.377 . S
C1005 C1011 1.390 1_565 S
C1006 H997 0.930 . S
C1006 C1004 1.384 1_545 S
C1006 C1007 1.372 . S
C1007 C1006 1.372 . S
C1007 C1008 1.400 . S
C1007 C1012 1.490 . S
C1008 H998 0.930 . S
C1008 C1007 1.400 . S
C1008 C1011 1.386 . S
H1009 C1025 0.930 . S
H1010 C1026 0.931 . S
C1011 H999 0.929 . S
C1011 C1005 1.390 1_545 S
C1011 C1008 1.386 . S
C1012 C1007 1.490 . S
C1012 C1014 1.395 . S
C1012 C1015 1.403 . S
H1013 C1019 0.930 . S
C1014 H1000 0.930 . S
C1014 C1012 1.395 . S
C1014 C1017 1.403 . S
C1015 C1012 1.403 . S
C1015 C1016 1.524 . S
C1015 C1019 1.400 . S
C1016 H1001 0.960 . S
C1016 H1002 0.960 . S
C1016 H1003 0.960 . S
C1016 C1015 1.524 . S
C1017 C1014 1.403 . S
C1017 C1018 1.392 . S
C1017 C1021 1.495 . S
C1018 C1017 1.392 . S
C1018 C1019 1.385 . S
C1018 C1020 1.478 . S
C1019 H1013 0.930 . S
C1019 C1015 1.400 . S
C1019 C1018 1.385 . S
C1020 C1018 1.478 . S
C1020 C1022 1.381 . S
C1020 C1026 1.383 . S
C1021 C1017 1.495 . S
C1021 H1027 0.959 . S
C1021 H1028 0.961 . S
C1021 H1029 0.960 . S
C1022 C1020 1.381 . S
C1022 C1023 1.394 . S
C1022 H1030 0.930 . S
C1023 C1022 1.394 . S
C1023 C1024 1.383 . S
C1023 H1031 0.929 . S
C1024 C1023 1.383 . S
C1024 C1025 1.377 . S
C1025 H1009 0.930 . S
C1025 C1024 1.377 . S
C1025 C1026 1.379 . S
C1026 H1010 0.931 . S
C1026 C1020 1.383 . S
C1026 C1025 1.379 . S
H1027 C1021 0.959 . S
H1028 C1021 0.961 . S
H1029 C1021 0.960 . S
H1030 C1022 0.930 . S
H1031 C1023 0.929 . S
C177 C50 1.320 . S
C196 C8 1.330 . S
C213 C22 1.319 . S
C232 C64 1.330 . S
C249 C78 1.316 . S
C268 C36 1.298 . S
C285 C92 1.320 . S
C304 C134 1.328 . S
C321 C148 1.314 . S
C340 C106 1.309 . S
C357 C120 1.317 . S
C376 C162 1.330 . S
C393 C119 1.618 . S
C412 C7 1.623 . S
C429 C21 1.614 . S
C448 C133 1.636 . S
C465 C35 1.621 . S
C484 C147 1.595 . S
C501 C49 1.622 . S
C520 C161 1.593 . S
C537 C91 1.620 . S
C556 C63 1.610 . S
C573 C105 1.623 . S
C592 C77 1.596 . S
C609 C107 1.102 . S
C628 C9 1.086 . S
C645 C23 1.103 . S
C664 C121 1.074 . S
C681 C37 1.102 . S
C700 C135 1.083 . S
C717 C51 1.116 . S
C736 C149 1.137 . S
C753 C163 1.111 . S
C772 C65 1.079 . S
C789 C79 1.109 . S
C808 C93 1.073 . S
C825 C143 1.445 . S
C844 C3 1.444 . S
C861 C157 1.443 . S
C880 C17 1.438 . S
C897 C87 1.443 . S
C916 C31 1.436 . S
C933 C45 1.445 . S
C952 C101 1.474 . S
C969 C59 1.444 . S
C988 C115 1.442 . S
C1005 C73 1.443 . S
C1024 C129 1.438 . S
