# Generated by pormake.
# Topology ukr, (4)-cn, num edge types: 1
# Building blocks:
#     Node 0, Type 0, BuildingBlock: AZAVOO_clean_sbu_0, # of connection points: 4
#     Node 1, Type 0, BuildingBlock: AZAVOO_clean_sbu_0, # of connection points: 4
#     Node 2, Type 0, BuildingBlock: AZAVOO_clean_sbu_0, # of connection points: 4
#     Node 3, Type 0, BuildingBlock: AZAVOO_clean_sbu_0, # of connection points: 4
#     Node 4, Type 0, BuildingBlock: AZAVOO_clean_sbu_0, # of connection points: 4
#     Node 5, Type 0, BuildingBlock: AZAVOO_clean_sbu_0, # of connection points: 4
#     Node 6, Type 0, BuildingBlock: AZAVOO_clean_sbu_0, # of connection points: 4
#     Node 7, Type 0, BuildingBlock: AZAVOO_clean_sbu_0, # of connection points: 4
#     Node 8, Type 0, BuildingBlock: AZAVOO_clean_sbu_0, # of connection points: 4
#     Node 9, Type 0, BuildingBlock: AZAVOO_clean_sbu_0, # of connection points: 4
#     Node 10, Type 0, BuildingBlock: AZAVOO_clean_sbu_0, # of connection points: 4
#     Node 11, Type 0, BuildingBlock: AZAVOO_clean_sbu_0, # of connection points: 4
#     Node 12, Type 0, BuildingBlock: AZAVOO_clean_sbu_0, # of connection points: 4
#     Node 13, Type 0, BuildingBlock: AZAVOO_clean_sbu_0, # of connection points: 4
#     Node 14, Type 0, BuildingBlock: AZAVOO_clean_sbu_0, # of connection points: 4
#     Node 15, Type 0, BuildingBlock: AZAVOO_clean_sbu_0, # of connection points: 4
#     Node 16, Type 0, BuildingBlock: AZAVOO_clean_sbu_0, # of connection points: 4
#     Node 17, Type 0, BuildingBlock: AZAVOO_clean_sbu_0, # of connection points: 4
#     Node 18, Type 0, BuildingBlock: AZAVOO_clean_sbu_0, # of connection points: 4
#     Node 19, Type 0, BuildingBlock: AZAVOO_clean_sbu_0, # of connection points: 4
#     Node 20, Type 0, BuildingBlock: AZAVOO_clean_sbu_0, # of connection points: 4
#     Node 21, Type 0, BuildingBlock: AZAVOO_clean_sbu_0, # of connection points: 4
#     Node 22, Type 0, BuildingBlock: AZAVOO_clean_sbu_0, # of connection points: 4
#     Node 23, Type 0, BuildingBlock: AZAVOO_clean_sbu_0, # of connection points: 4
#     Node 24, Type 0, BuildingBlock: AZAVOO_clean_sbu_0, # of connection points: 4
#     Node 25, Type 0, BuildingBlock: AZAVOO_clean_sbu_0, # of connection points: 4
#     Node 26, Type 0, BuildingBlock: AZAVOO_clean_sbu_0, # of connection points: 4
#     Node 27, Type 0, BuildingBlock: AZAVOO_clean_sbu_0, # of connection points: 4
#     Node 28, Type 0, BuildingBlock: AZAVOO_clean_sbu_0, # of connection points: 4
#     Node 29, Type 0, BuildingBlock: AZAVOO_clean_sbu_0, # of connection points: 4
#     Node 30, Type 0, BuildingBlock: AZAVOO_clean_sbu_0, # of connection points: 4
#     Node 31, Type 0, BuildingBlock: AZAVOO_clean_sbu_0, # of connection points: 4
#     Node 32, Type 0, BuildingBlock: AZAVOO_clean_sbu_0, # of connection points: 4
#     Node 33, Type 0, BuildingBlock: AZAVOO_clean_sbu_0, # of connection points: 4
#     Node 34, Type 0, BuildingBlock: AZAVOO_clean_sbu_0, # of connection points: 4
#     Node 35, Type 0, BuildingBlock: AZAVOO_clean_sbu_0, # of connection points: 4
#     Node 36, Type 0, BuildingBlock: AZAVOO_clean_sbu_0, # of connection points: 4
#     Node 37, Type 0, BuildingBlock: AZAVOO_clean_sbu_0, # of connection points: 4
#     Node 38, Type 0, BuildingBlock: AZAVOO_clean_sbu_0, # of connection points: 4
#     Node 39, Type 0, BuildingBlock: AZAVOO_clean_sbu_0, # of connection points: 4
#     Node 40, Type 0, BuildingBlock: AZAVOO_clean_sbu_0, # of connection points: 4
#     Node 41, Type 0, BuildingBlock: AZAVOO_clean_sbu_0, # of connection points: 4
#     Node 42, Type 0, BuildingBlock: AZAVOO_clean_sbu_0, # of connection points: 4
#     Node 43, Type 0, BuildingBlock: AZAVOO_clean_sbu_0, # of connection points: 4
#     Node 44, Type 0, BuildingBlock: AZAVOO_clean_sbu_0, # of connection points: 4
#     Node 45, Type 0, BuildingBlock: AZAVOO_clean_sbu_0, # of connection points: 4
#     Node 46, Type 0, BuildingBlock: AZAVOO_clean_sbu_0, # of connection points: 4
#     Node 47, Type 0, BuildingBlock: AZAVOO_clean_sbu_0, # of connection points: 4
#     Edge 48, Type (0, 0), BuildingBlock: EZIPEK_clean_linker_0, # of connection points: 2
#     Edge 49, Type (0, 0), BuildingBlock: EZIPEK_clean_linker_0, # of connection points: 2
#     Edge 50, Type (0, 0), BuildingBlock: EZIPEK_clean_linker_0, # of connection points: 2
#     Edge 51, Type (0, 0), BuildingBlock: EZIPEK_clean_linker_0, # of connection points: 2
#     Edge 52, Type (0, 0), BuildingBlock: EZIPEK_clean_linker_0, # of connection points: 2
#     Edge 53, Type (0, 0), BuildingBlock: EZIPEK_clean_linker_0, # of connection points: 2
#     Edge 54, Type (0, 0), BuildingBlock: EZIPEK_clean_linker_0, # of connection points: 2
#     Edge 55, Type (0, 0), BuildingBlock: EZIPEK_clean_linker_0, # of connection points: 2
#     Edge 56, Type (0, 0), BuildingBlock: EZIPEK_clean_linker_0, # of connection points: 2
#     Edge 57, Type (0, 0), BuildingBlock: EZIPEK_clean_linker_0, # of connection points: 2
#     Edge 58, Type (0, 0), BuildingBlock: EZIPEK_clean_linker_0, # of connection points: 2
#     Edge 59, Type (0, 0), BuildingBlock: EZIPEK_clean_linker_0, # of connection points: 2
#     Edge 60, Type (0, 0), BuildingBlock: EZIPEK_clean_linker_0, # of connection points: 2
#     Edge 61, Type (0, 0), BuildingBlock: EZIPEK_clean_linker_0, # of connection points: 2
#     Edge 62, Type (0, 0), BuildingBlock: EZIPEK_clean_linker_0, # of connection points: 2
#     Edge 63, Type (0, 0), BuildingBlock: EZIPEK_clean_linker_0, # of connection points: 2
#     Edge 64, Type (0, 0), BuildingBlock: EZIPEK_clean_linker_0, # of connection points: 2
#     Edge 65, Type (0, 0), BuildingBlock: EZIPEK_clean_linker_0, # of connection points: 2
#     Edge 66, Type (0, 0), BuildingBlock: EZIPEK_clean_linker_0, # of connection points: 2
#     Edge 67, Type (0, 0), BuildingBlock: EZIPEK_clean_linker_0, # of connection points: 2
#     Edge 68, Type (0, 0), BuildingBlock: EZIPEK_clean_linker_0, # of connection points: 2
#     Edge 69, Type (0, 0), BuildingBlock: EZIPEK_clean_linker_0, # of connection points: 2
#     Edge 70, Type (0, 0), BuildingBlock: EZIPEK_clean_linker_0, # of connection points: 2
#     Edge 71, Type (0, 0), BuildingBlock: EZIPEK_clean_linker_0, # of connection points: 2
#     Edge 72, Type (0, 0), BuildingBlock: EZIPEK_clean_linker_0, # of connection points: 2
#     Edge 73, Type (0, 0), BuildingBlock: EZIPEK_clean_linker_0, # of connection points: 2
#     Edge 74, Type (0, 0), BuildingBlock: EZIPEK_clean_linker_0, # of connection points: 2
#     Edge 75, Type (0, 0), BuildingBlock: EZIPEK_clean_linker_0, # of connection points: 2
#     Edge 76, Type (0, 0), BuildingBlock: EZIPEK_clean_linker_0, # of connection points: 2
#     Edge 77, Type (0, 0), BuildingBlock: EZIPEK_clean_linker_0, # of connection points: 2
#     Edge 78, Type (0, 0), BuildingBlock: EZIPEK_clean_linker_0, # of connection points: 2
#     Edge 79, Type (0, 0), BuildingBlock: EZIPEK_clean_linker_0, # of connection points: 2
#     Edge 80, Type (0, 0), BuildingBlock: EZIPEK_clean_linker_0, # of connection points: 2
#     Edge 81, Type (0, 0), BuildingBlock: EZIPEK_clean_linker_0, # of connection points: 2
#     Edge 82, Type (0, 0), BuildingBlock: EZIPEK_clean_linker_0, # of connection points: 2
#     Edge 83, Type (0, 0), BuildingBlock: EZIPEK_clean_linker_0, # of connection points: 2
#     Edge 84, Type (0, 0), BuildingBlock: EZIPEK_clean_linker_0, # of connection points: 2
#     Edge 85, Type (0, 0), BuildingBlock: EZIPEK_clean_linker_0, # of connection points: 2
#     Edge 86, Type (0, 0), BuildingBlock: EZIPEK_clean_linker_0, # of connection points: 2
#     Edge 87, Type (0, 0), BuildingBlock: EZIPEK_clean_linker_0, # of connection points: 2
#     Edge 88, Type (0, 0), BuildingBlock: EZIPEK_clean_linker_0, # of connection points: 2
#     Edge 89, Type (0, 0), BuildingBlock: EZIPEK_clean_linker_0, # of connection points: 2
#     Edge 90, Type (0, 0), BuildingBlock: EZIPEK_clean_linker_0, # of connection points: 2
#     Edge 91, Type (0, 0), BuildingBlock: EZIPEK_clean_linker_0, # of connection points: 2
#     Edge 92, Type (0, 0), BuildingBlock: EZIPEK_clean_linker_0, # of connection points: 2
#     Edge 93, Type (0, 0), BuildingBlock: EZIPEK_clean_linker_0, # of connection points: 2
#     Edge 94, Type (0, 0), BuildingBlock: EZIPEK_clean_linker_0, # of connection points: 2
#     Edge 95, Type (0, 0), BuildingBlock: EZIPEK_clean_linker_0, # of connection points: 2
#     Edge 96, Type (0, 0), BuildingBlock: EZIPEK_clean_linker_0, # of connection points: 2
#     Edge 97, Type (0, 0), BuildingBlock: EZIPEK_clean_linker_0, # of connection points: 2
#     Edge 98, Type (0, 0), BuildingBlock: EZIPEK_clean_linker_0, # of connection points: 2
#     Edge 99, Type (0, 0), BuildingBlock: EZIPEK_clean_linker_0, # of connection points: 2
#     Edge 100, Type (0, 0), BuildingBlock: EZIPEK_clean_linker_0, # of connection points: 2
#     Edge 101, Type (0, 0), BuildingBlock: EZIPEK_clean_linker_0, # of connection points: 2
#     Edge 102, Type (0, 0), BuildingBlock: EZIPEK_clean_linker_0, # of connection points: 2
#     Edge 103, Type (0, 0), BuildingBlock: EZIPEK_clean_linker_0, # of connection points: 2
#     Edge 104, Type (0, 0), BuildingBlock: EZIPEK_clean_linker_0, # of connection points: 2
#     Edge 105, Type (0, 0), BuildingBlock: EZIPEK_clean_linker_0, # of connection points: 2
#     Edge 106, Type (0, 0), BuildingBlock: EZIPEK_clean_linker_0, # of connection points: 2
#     Edge 107, Type (0, 0), BuildingBlock: EZIPEK_clean_linker_0, # of connection points: 2
#     Edge 108, Type (0, 0), BuildingBlock: EZIPEK_clean_linker_0, # of connection points: 2
#     Edge 109, Type (0, 0), BuildingBlock: EZIPEK_clean_linker_0, # of connection points: 2
#     Edge 110, Type (0, 0), BuildingBlock: EZIPEK_clean_linker_0, # of connection points: 2
#     Edge 111, Type (0, 0), BuildingBlock: EZIPEK_clean_linker_0, # of connection points: 2
#     Edge 112, Type (0, 0), BuildingBlock: EZIPEK_clean_linker_0, # of connection points: 2
#     Edge 113, Type (0, 0), BuildingBlock: EZIPEK_clean_linker_0, # of connection points: 2
#     Edge 114, Type (0, 0), BuildingBlock: EZIPEK_clean_linker_0, # of connection points: 2
#     Edge 115, Type (0, 0), BuildingBlock: EZIPEK_clean_linker_0, # of connection points: 2
#     Edge 116, Type (0, 0), BuildingBlock: EZIPEK_clean_linker_0, # of connection points: 2
#     Edge 117, Type (0, 0), BuildingBlock: EZIPEK_clean_linker_0, # of connection points: 2
#     Edge 118, Type (0, 0), BuildingBlock: EZIPEK_clean_linker_0, # of connection points: 2
#     Edge 119, Type (0, 0), BuildingBlock: EZIPEK_clean_linker_0, # of connection points: 2
#     Edge 120, Type (0, 0), BuildingBlock: EZIPEK_clean_linker_0, # of connection points: 2
#     Edge 121, Type (0, 0), BuildingBlock: EZIPEK_clean_linker_0, # of connection points: 2
#     Edge 122, Type (0, 0), BuildingBlock: EZIPEK_clean_linker_0, # of connection points: 2
#     Edge 123, Type (0, 0), BuildingBlock: EZIPEK_clean_linker_0, # of connection points: 2
#     Edge 124, Type (0, 0), BuildingBlock: EZIPEK_clean_linker_0, # of connection points: 2
#     Edge 125, Type (0, 0), BuildingBlock: EZIPEK_clean_linker_0, # of connection points: 2
#     Edge 126, Type (0, 0), BuildingBlock: EZIPEK_clean_linker_0, # of connection points: 2
#     Edge 127, Type (0, 0), BuildingBlock: EZIPEK_clean_linker_0, # of connection points: 2
#     Edge 128, Type (0, 0), BuildingBlock: EZIPEK_clean_linker_0, # of connection points: 2
#     Edge 129, Type (0, 0), BuildingBlock: EZIPEK_clean_linker_0, # of connection points: 2
#     Edge 130, Type (0, 0), BuildingBlock: EZIPEK_clean_linker_0, # of connection points: 2
#     Edge 131, Type (0, 0), BuildingBlock: EZIPEK_clean_linker_0, # of connection points: 2
#     Edge 132, Type (0, 0), BuildingBlock: EZIPEK_clean_linker_0, # of connection points: 2
#     Edge 133, Type (0, 0), BuildingBlock: EZIPEK_clean_linker_0, # of connection points: 2
#     Edge 134, Type (0, 0), BuildingBlock: EZIPEK_clean_linker_0, # of connection points: 2
#     Edge 135, Type (0, 0), BuildingBlock: EZIPEK_clean_linker_0, # of connection points: 2
#     Edge 136, Type (0, 0), BuildingBlock: EZIPEK_clean_linker_0, # of connection points: 2
#     Edge 137, Type (0, 0), BuildingBlock: EZIPEK_clean_linker_0, # of connection points: 2
#     Edge 138, Type (0, 0), BuildingBlock: EZIPEK_clean_linker_0, # of connection points: 2
#     Edge 139, Type (0, 0), BuildingBlock: EZIPEK_clean_linker_0, # of connection points: 2
#     Edge 140, Type (0, 0), BuildingBlock: EZIPEK_clean_linker_0, # of connection points: 2
#     Edge 141, Type (0, 0), BuildingBlock: EZIPEK_clean_linker_0, # of connection points: 2
#     Edge 142, Type (0, 0), BuildingBlock: EZIPEK_clean_linker_0, # of connection points: 2
#     Edge 143, Type (0, 0), BuildingBlock: EZIPEK_clean_linker_0, # of connection points: 2
# Relax obj value: 0.355
# Max RMSD: 0.204
# Mean RMSD: 0.204
data_MOF--net-ukr--node1-AZAVOO_clean_sbu_0--edge1-EZIPEK_clean_linker_0
_symmetry_space_group_name_H-M    P1
_symmetry_Int_Tables_number       1
_symmetry_cell_setting            triclinic
loop_
_symmetry_equiv_pos_as_xyz
'x, y, z'
_cell_length_a     50.377989
_cell_length_b     50.244911
_cell_length_c     50.265083
_cell_angle_alpha  89.99128
_cell_angle_beta   89.948436
_cell_angle_gamma 90.061311
loop_
_atom_site_label
_atom_site_type_symbol
_atom_site_fract_x
_atom_site_fract_y
_atom_site_fract_z
_atom_type_partial_charge
Mg0 Mg 0.11236 0.28487 0.15411 0.0
O1 O 0.10932 0.24764 0.18032 0.0
O2 O 0.15049 0.23482 0.19106 0.0
Mg3 Mg 0.17969 0.26473 0.17293 0.0
C4 C 0.12535 0.23174 0.19178 0.0
C5 C 0.05459 0.30094 0.14049 0.0
O6 O 0.06696 0.31056 0.11958 0.0
O7 O 0.12105 0.31055 0.19101 0.0
O8 O 0.16266 0.29745 0.19978 0.0
O9 O 0.1176 0.25848 0.11822 0.0
O10 O 0.1505 0.27445 0.14227 0.0
C11 C 0.14233 0.31177 0.20482 0.0
C12 C 0.14274 0.25906 0.12344 0.0
O13 O 0.06781 0.28969 0.15877 0.0
Mg14 Mg 0.21066 0.61531 0.64963 0.0
O15 O 0.2474 0.61386 0.67706 0.0
O16 O 0.25758 0.6559 0.68821 0.0
Mg17 Mg 0.22713 0.68384 0.66961 0.0
C18 C 0.26198 0.63089 0.68909 0.0
C19 C 0.19478 0.55607 0.66904 0.0
O20 O 0.18364 0.5677 0.68957 0.0
O21 O 0.18476 0.62234 0.68656 0.0
O22 O 0.19568 0.66446 0.69648 0.0
O23 O 0.23666 0.62199 0.61398 0.0
O24 O 0.22044 0.65403 0.6389 0.0
C25 C 0.1826 0.64314 0.70103 0.0
C26 C 0.23615 0.64697 0.62003 0.0
O27 O 0.20656 0.56991 0.65143 0.0
Mg28 Mg 0.8812 0.71106 0.15823 0.0
O29 O 0.8926 0.74869 0.18206 0.0
O30 O 0.85494 0.76549 0.19843 0.0
Mg31 Mg 0.81969 0.73982 0.18485 0.0
C32 C 0.88012 0.76609 0.19559 0.0
C33 C 0.94017 0.71581 0.14301 0.0
O34 O 0.92915 0.73402 0.12789 0.0
O35 O 0.87407 0.68776 0.1973 0.0
O36 O 0.8352 0.70541 0.21017 0.0
O37 O 0.8731 0.73648 0.12171 0.0
O38 O 0.8428 0.72506 0.15115 0.0
C39 C 0.85411 0.68878 0.21308 0.0
C40 C 0.849 0.73842 0.13036 0.0
O41 O 0.92553 0.7015 0.15786 0.0
Mg42 Mg 0.7841 0.38327 0.64841 0.0
O43 O 0.74695 0.38594 0.6747 0.0
O44 O 0.73722 0.34506 0.68962 0.0
Mg45 Mg 0.76881 0.31627 0.67409 0.0
C46 C 0.73233 0.36991 0.68786 0.0
C47 C 0.797 0.44299 0.66631 0.0
O48 O 0.80887 0.43147 0.68645 0.0
O49 O 0.81023 0.37928 0.68556 0.0
O50 O 0.79987 0.33803 0.69903 0.0
O51 O 0.75811 0.37183 0.61367 0.0
O52 O 0.77663 0.34331 0.64096 0.0
C53 C 0.81276 0.35975 0.7016 0.0
C54 C 0.76093 0.34742 0.62134 0.0
O55 O 0.78599 0.42898 0.64834 0.0
Mg56 Mg 0.11461 0.71043 0.84548 0.0
O57 O 0.11364 0.74627 0.81737 0.0
O58 O 0.15544 0.75804 0.80789 0.0
Mg59 Mg 0.18303 0.72769 0.82761 0.0
C60 C 0.13041 0.7616 0.80613 0.0
C61 C 0.05492 0.70482 0.85885 0.0
O62 O 0.06508 0.70425 0.8829 0.0
O63 O 0.1234 0.68325 0.81001 0.0
O64 O 0.16526 0.69532 0.80078 0.0
O65 O 0.1195 0.73892 0.87962 0.0
O66 O 0.15272 0.72035 0.8579 0.0
C67 C 0.14456 0.6814 0.7961 0.0
C68 C 0.14472 0.73763 0.87491 0.0
O69 O 0.0702 0.70681 0.83889 0.0
Mg70 Mg 0.77671 0.61212 0.34842 0.0
O71 O 0.74343 0.61202 0.31739 0.0
O72 O 0.73243 0.65425 0.30845 0.0
Mg73 Mg 0.7603 0.68141 0.33186 0.0
C74 C 0.72922 0.62924 0.3054 0.0
C75 C 0.80312 0.55629 0.33657 0.0
O76 O 0.82506 0.57037 0.3355 0.0
O77 O 0.80654 0.62237 0.31536 0.0
O78 O 0.79473 0.66462 0.30749 0.0
O79 O 0.74593 0.61591 0.3808 0.0
O80 O 0.76562 0.64989 0.36121 0.0
C81 C 0.80919 0.6443 0.30274 0.0
C82 C 0.74753 0.64133 0.37701 0.0
O83 O 0.78112 0.56758 0.34146 0.0
Mg84 Mg 0.88163 0.29262 0.84369 0.0
O85 O 0.89109 0.25789 0.8145 0.0
O86 O 0.85165 0.2432 0.80013 0.0
Mg87 Mg 0.81829 0.26781 0.81863 0.0
C88 C 0.87696 0.24197 0.80059 0.0
C89 C 0.94838 0.31245 0.84161 0.0
O90 O 0.9545 0.33784 0.8408 0.0
O91 O 0.87259 0.31999 0.80875 0.0
O92 O 0.83331 0.304 0.79528 0.0
O93 O 0.8776 0.26293 0.87709 0.0
O94 O 0.84472 0.27724 0.85171 0.0
C95 C 0.85255 0.32044 0.79328 0.0
C96 C 0.85295 0.26145 0.86995 0.0
O97 O 0.9243 0.30535 0.84236 0.0
Mg98 Mg 0.21413 0.38406 0.34642 0.0
O99 O 0.25199 0.38337 0.32086 0.0
O100 O 0.25993 0.34121 0.30901 0.0
Mg101 Mg 0.22926 0.31472 0.32989 0.0
C102 C 0.26564 0.36598 0.30837 0.0
C103 C 0.19025 0.44175 0.34048 0.0
O104 O 0.16777 0.42926 0.34496 0.0
O105 O 0.18844 0.37546 0.30955 0.0
O106 O 0.19733 0.33232 0.30266 0.0
O107 O 0.23958 0.37981 0.38262 0.0
O108 O 0.22324 0.346 0.35983 0.0
C109 C 0.18492 0.35368 0.29688 0.0
C110 C 0.23941 0.35453 0.37775 0.0
O111 O 0.21182 0.42877 0.33972 0.0
Mg112 Mg 0.14841 0.11584 0.28783 0.0
O113 O 0.17646 0.11424 0.25187 0.0
O114 O 0.18635 0.156 0.23974 0.0
Mg115 Mg 0.16624 0.18427 0.26908 0.0
C116 C 0.18801 0.13086 0.23656 0.0
C117 C 0.14834 0.05672 0.27264 0.0
O118 O 0.1411 0.06794 0.25019 0.0
O119 O 0.18407 0.1251 0.31476 0.0
O120 O 0.19231 0.16706 0.30198 0.0
O121 O 0.11357 0.12064 0.26003 0.0
O122 O 0.13653 0.15376 0.27716 0.0
C123 C 0.19742 0.14671 0.31629 0.0
C124 C 0.11871 0.14585 0.26075 0.0
O125 O 0.15344 0.07118 0.29274 0.0
Mg126 Mg 0.38098 0.65227 0.78472 0.0
O127 O 0.38573 0.67563 0.74563 0.0
O128 O 0.34553 0.69041 0.73371 0.0
Mg129 Mg 0.31516 0.6771 0.76487 0.0
C130 C 0.37049 0.68829 0.7298 0.0
C131 C 0.44025 0.67265 0.79087 0.0
O132 O 0.4286 0.696 0.79081 0.0
O133 O 0.37628 0.69142 0.80849 0.0
O134 O 0.3354 0.70356 0.79569 0.0
O135 O 0.37072 0.61571 0.76054 0.0
O136 O 0.34156 0.64443 0.77561 0.0
C137 C 0.35634 0.70717 0.80946 0.0
C138 C 0.34642 0.62394 0.7612 0.0
O139 O 0.42632 0.65161 0.78903 0.0
Mg140 Mg 0.84857 0.88143 0.28667 0.0
O141 O 0.82157 0.88563 0.24991 0.0
O142 O 0.80989 0.84476 0.23662 0.0
Mg143 Mg 0.82888 0.81459 0.26501 0.0
C144 C 0.80925 0.87003 0.23415 0.0
C145 C 0.85265 0.94079 0.27477 0.0
O146 O 0.86382 0.93012 0.2537 0.0
O147 O 0.81264 0.87196 0.31306 0.0
O148 O 0.80341 0.83058 0.29931 0.0
O149 O 0.8846 0.87662 0.26033 0.0
O150 O 0.85985 0.84354 0.27482 0.0
C151 C 0.79896 0.85057 0.31438 0.0
C152 C 0.87914 0.85147 0.26012 0.0
O153 O 0.84394 0.92584 0.29318 0.0
Mg154 Mg 0.61352 0.35004 0.78065 0.0
O155 O 0.61192 0.32307 0.74396 0.0
O156 O 0.65349 0.31206 0.73255 0.0
Mg157 Mg 0.68173 0.33048 0.7631 0.0
C158 C 0.62846 0.31138 0.72873 0.0
C159 C 0.55574 0.33151 0.80009 0.0
O160 O 0.56872 0.3167 0.81718 0.0
O161 O 0.62168 0.31346 0.8072 0.0
O162 O 0.66356 0.3041 0.79542 0.0
O163 O 0.62044 0.38516 0.75341 0.0
O164 O 0.65213 0.36107 0.77142 0.0
C165 C 0.64277 0.29945 0.8092 0.0
C166 C 0.64543 0.37952 0.75513 0.0
O167 O 0.56827 0.34631 0.78386 0.0
Mg168 Mg 0.15523 0.88173 0.71249 0.0
O169 O 0.17922 0.88903 0.75087 0.0
O170 O 0.19247 0.84936 0.76617 0.0
Mg171 Mg 0.1787 0.81699 0.73772 0.0
C172 C 0.19117 0.87462 0.76798 0.0
C173 C 0.14487 0.94122 0.7219 0.0
O174 O 0.13315 0.93065 0.74273 0.0
O175 O 0.19347 0.87493 0.68822 0.0
O176 O 0.20379 0.83497 0.70495 0.0
O177 O 0.11821 0.87276 0.73713 0.0
O178 O 0.14728 0.84309 0.72391 0.0
C179 C 0.20826 0.85427 0.68905 0.0
C180 C 0.12643 0.84838 0.73735 0.0
O181 O 0.15604 0.92625 0.70493 0.0
Mg182 Mg 0.61308 0.65892 0.2087 0.0
O183 O 0.61279 0.68541 0.24599 0.0
O184 O 0.65466 0.69759 0.25474 0.0
Mg185 Mg 0.68141 0.68014 0.22232 0.0
C186 C 0.6299 0.6976 0.2602 0.0
C187 C 0.55437 0.64747 0.22244 0.0
O188 O 0.56621 0.63106 0.23892 0.0
O189 O 0.61778 0.69613 0.18294 0.0
O190 O 0.66009 0.70669 0.19192 0.0
O191 O 0.62199 0.62309 0.2339 0.0
O192 O 0.65238 0.6485 0.21575 0.0
C193 C 0.63821 0.71087 0.17982 0.0
C194 C 0.64683 0.62893 0.23124 0.0
O195 O 0.56816 0.66206 0.20711 0.0
Mg196 Mg 0.84502 0.11802 0.71557 0.0
O197 O 0.82237 0.11304 0.75496 0.0
O198 O 0.80798 0.15341 0.76707 0.0
Mg199 Mg 0.82182 0.18423 0.73639 0.0
C200 C 0.80976 0.12833 0.77079 0.0
C201 C 0.86356 0.05831 0.71074 0.0
O202 O 0.88699 0.06943 0.71363 0.0
O203 O 0.80545 0.12344 0.69334 0.0
O204 O 0.79437 0.16487 0.70576 0.0
O205 O 0.88302 0.12809 0.73817 0.0
O206 O 0.85375 0.15743 0.72465 0.0
C207 C 0.79023 0.14378 0.69224 0.0
C208 C 0.87498 0.15254 0.73774 0.0
O209 O 0.84292 0.07281 0.7105 0.0
Mg210 Mg 0.38414 0.34763 0.2139 0.0
O211 O 0.39172 0.3206 0.25045 0.0
O212 O 0.35203 0.30698 0.26498 0.0
Mg213 Mg 0.31929 0.32553 0.23891 0.0
C214 C 0.37734 0.30728 0.26657 0.0
C215 C 0.44134 0.32719 0.19491 0.0
O216 O 0.42829 0.30724 0.18427 0.0
O217 O 0.37419 0.31053 0.18839 0.0
O218 O 0.3336 0.3005 0.20381 0.0
O219 O 0.37875 0.38307 0.24114 0.0
O220 O 0.34619 0.35743 0.22695 0.0
C221 C 0.35287 0.29664 0.18776 0.0
C222 C 0.35391 0.37654 0.24194 0.0
O223 O 0.42887 0.3458 0.20658 0.0
Mg224 Mg 0.28229 0.15377 0.11668 0.0
O225 O 0.245 0.17985 0.11237 0.0
O226 O 0.23308 0.19373 0.153 0.0
Mg227 Mg 0.26273 0.17762 0.1832 0.0
C228 C 0.22964 0.19275 0.12789 0.0
C229 C 0.30184 0.1647 0.05673 0.0
O230 O 0.32008 0.18012 0.06723 0.0
O231 O 0.30856 0.1914 0.12217 0.0
O232 O 0.29535 0.20185 0.16342 0.0
O233 O 0.25656 0.11816 0.12587 0.0
O234 O 0.27261 0.14542 0.15599 0.0
C235 C 0.30986 0.20602 0.14301 0.0
C236 C 0.25755 0.1256 0.15045 0.0
O237 O 0.28528 0.15269 0.07147 0.0
Mg238 Mg 0.28207 0.84557 0.88324 0.0
O239 O 0.24534 0.81861 0.88118 0.0
O240 O 0.23626 0.80935 0.83865 0.0
Mg241 Mg 0.26691 0.83174 0.81335 0.0
C242 C 0.23132 0.80709 0.86346 0.0
C243 C 0.28866 0.85449 0.94425 0.0
O244 O 0.29653 0.87801 0.93596 0.0
O245 O 0.30948 0.81042 0.87299 0.0
O246 O 0.29957 0.80465 0.82997 0.0
O247 O 0.25512 0.88088 0.88027 0.0
O248 O 0.27303 0.86057 0.84574 0.0
C249 C 0.3127 0.79843 0.85078 0.0
C250 C 0.25629 0.87768 0.85477 0.0
O251 O 0.28325 0.83648 0.92742 0.0
Mg252 Mg 0.65194 0.78805 0.38206 0.0
O253 O 0.67384 0.74809 0.38485 0.0
O254 O 0.68814 0.73746 0.34405 0.0
Mg255 Mg 0.67516 0.77014 0.31513 0.0
C256 C 0.68607 0.7326 0.36891 0.0
C257 C 0.64292 0.77279 0.44125 0.0
O258 O 0.63105 0.75268 0.42953 0.0
O259 O 0.69171 0.81028 0.3781 0.0
O260 O 0.70282 0.79904 0.33638 0.0
O261 O 0.61451 0.76537 0.37169 0.0
O262 O 0.64319 0.78068 0.34249 0.0
C263 C 0.70715 0.81167 0.35795 0.0
C264 C 0.62256 0.76649 0.34727 0.0
O265 O 0.65345 0.79101 0.42724 0.0
Mg266 Mg 0.71273 0.15793 0.8827 0.0
O267 O 0.75025 0.18392 0.88075 0.0
O268 O 0.75812 0.19294 0.8379 0.0
Mg269 Mg 0.72709 0.17162 0.81262 0.0
C270 C 0.76387 0.19528 0.86254 0.0
C271 C 0.69947 0.1476 0.94111 0.0
O272 O 0.68955 0.12644 0.92943 0.0
O273 O 0.68683 0.19428 0.87301 0.0
O274 O 0.69576 0.19995 0.82972 0.0
O275 O 0.73903 0.12232 0.88017 0.0
O276 O 0.7221 0.14319 0.84532 0.0
C277 C 0.68346 0.20645 0.85094 0.0
C278 C 0.73912 0.12657 0.85479 0.0
O279 O 0.71013 0.16567 0.92706 0.0
Mg280 Mg 0.34339 0.21383 0.38325 0.0
O281 O 0.31974 0.25251 0.38996 0.0
O282 O 0.3055 0.2664 0.35017 0.0
Mg283 Mg 0.32028 0.23739 0.31821 0.0
C284 C 0.307 0.26889 0.3754 0.0
C285 C 0.35154 0.22523 0.44243 0.0
O286 O 0.36229 0.24627 0.43126 0.0
O287 O 0.30459 0.1908 0.37667 0.0
O288 O 0.2935 0.20483 0.3358 0.0
O289 O 0.38087 0.23736 0.37577 0.0
O290 O 0.35257 0.22551 0.34464 0.0
C291 C 0.28957 0.1902 0.35621 0.0
C292 C 0.37337 0.23875 0.35121 0.0
O293 O 0.34172 0.20704 0.42789 0.0
Mg294 Mg 0.71402 0.85031 0.11498 0.0
O295 O 0.74938 0.82098 0.11637 0.0
O296 O 0.7544 0.80838 0.15884 0.0
Mg297 Mg 0.72443 0.83064 0.18465 0.0
C298 C 0.76119 0.80744 0.13437 0.0
C299 C 0.69163 0.83686 0.05718 0.0
O300 O 0.6703 0.8297 0.07037 0.0
O301 O 0.68458 0.81614 0.12173 0.0
O302 O 0.69141 0.80676 0.16467 0.0
O303 O 0.74268 0.88387 0.12201 0.0
O304 O 0.72267 0.86153 0.15393 0.0
C305 C 0.67935 0.80282 0.14271 0.0
C306 C 0.74073 0.87829 0.14706 0.0
O307 O 0.71177 0.84579 0.06955 0.0
Mg308 Mg 0.64989 0.21092 0.61613 0.0
O309 O 0.67894 0.24609 0.61403 0.0
O310 O 0.68838 0.25915 0.65558 0.0
Mg311 Mg 0.66695 0.23113 0.68428 0.0
C312 C 0.69062 0.26155 0.63041 0.0
C313 C 0.63517 0.20576 0.55722 0.0
O314 O 0.61189 0.20925 0.56846 0.0
O315 O 0.68436 0.18293 0.62683 0.0
O316 O 0.69228 0.19709 0.66834 0.0
O317 O 0.61607 0.24016 0.61964 0.0
O318 O 0.63752 0.22289 0.65359 0.0
C319 C 0.69734 0.18184 0.64866 0.0
C320 C 0.62043 0.23971 0.64498 0.0
O321 O 0.6558 0.20481 0.57168 0.0
Mg322 Mg 0.34816 0.78223 0.61393 0.0
O323 O 0.3203 0.74654 0.60741 0.0
O324 O 0.30875 0.7313 0.64763 0.0
Mg325 Mg 0.32922 0.7569 0.67966 0.0
C326 C 0.30758 0.73037 0.62225 0.0
C327 C 0.35197 0.77489 0.55366 0.0
O328 O 0.36326 0.75309 0.56255 0.0
O329 O 0.31195 0.80749 0.62534 0.0
O330 O 0.30379 0.79206 0.66641 0.0
O331 O 0.38321 0.75403 0.61679 0.0
O332 O 0.35957 0.76808 0.65091 0.0
C333 C 0.29895 0.80796 0.6472 0.0
C334 C 0.37783 0.7528 0.64193 0.0
O335 O 0.34316 0.7919 0.5701 0.0
Mg336 Mg 0.88166 0.70942 0.84107 0.0
O337 O 0.88334 0.74692 0.81476 0.0
O338 O 0.84163 0.75887 0.80518 0.0
Mg339 Mg 0.8136 0.72787 0.82327 0.0
C340 C 0.86666 0.76266 0.80394 0.0
C341 C 0.94064 0.70567 0.85625 0.0
O342 O 0.92946 0.70812 0.87973 0.0
O343 O 0.8733 0.68414 0.80413 0.0
O344 O 0.83145 0.69644 0.7953 0.0
O345 O 0.87655 0.73567 0.87688 0.0
O346 O 0.84347 0.71905 0.85349 0.0
C347 C 0.85219 0.68277 0.79011 0.0
C348 C 0.85139 0.73497 0.87183 0.0
O349 O 0.92622 0.70513 0.83558 0.0
Mg350 Mg 0.78116 0.38438 0.3507 0.0
O351 O 0.74452 0.38954 0.32371 0.0
O352 O 0.72993 0.34895 0.31248 0.0
Mg353 Mg 0.7573 0.31789 0.33105 0.0
C354 C 0.72823 0.37426 0.31166 0.0
C355 C 0.80083 0.44163 0.32974 0.0
O356 O 0.81165 0.42845 0.31 0.0
O357 O 0.80698 0.37422 0.31411 0.0
O358 O 0.79103 0.33354 0.30524 0.0
O359 O 0.75436 0.37917 0.38655 0.0
O360 O 0.76899 0.34642 0.3615 0.0
C361 C 0.80682 0.35282 0.30031 0.0
C362 C 0.75427 0.35408 0.38081 0.0
O363 O 0.78843 0.4293 0.34801 0.0
Mg364 Mg 0.10748 0.28697 0.84247 0.0
O365 O 0.11086 0.24749 0.81947 0.0
O366 O 0.15304 0.24364 0.80629 0.0
Mg367 Mg 0.17745 0.27634 0.82628 0.0
C368 C 0.12912 0.23521 0.80682 0.0
C369 C 0.04866 0.26611 0.84168 0.0
O370 O 0.06012 0.24341 0.84758 0.0
O371 O 0.11408 0.31068 0.80342 0.0
O372 O 0.15782 0.30521 0.79754 0.0
O373 O 0.11325 0.26394 0.87993 0.0
O374 O 0.14576 0.28113 0.85577 0.0
C375 C 0.13566 0.31534 0.79077 0.0
C376 C 0.13825 0.26485 0.8741 0.0
O377 O 0.06275 0.28668 0.83726 0.0
Mg378 Mg 0.21324 0.61498 0.34975 0.0
O379 O 0.24963 0.61105 0.3221 0.0
O380 O 0.26106 0.6522 0.30909 0.0
Mg381 Mg 0.23213 0.68211 0.32734 0.0
C382 C 0.2646 0.62705 0.30922 0.0
C383 C 0.19594 0.55635 0.3304 0.0
O384 O 0.18563 0.56854 0.30979 0.0
O385 O 0.18626 0.62262 0.31363 0.0
O386 O 0.19853 0.664 0.30239 0.0
O387 O 0.2404 0.62184 0.3846 0.0
O388 O 0.22439 0.65371 0.35932 0.0
C389 C 0.18426 0.64327 0.29892 0.0
C390 C 0.24007 0.64677 0.37822 0.0
O391 O 0.20751 0.56966 0.34853 0.0
Mg392 Mg 0.88234 0.28701 0.15627 0.0
O393 O 0.88854 0.24906 0.18109 0.0
O394 O 0.84837 0.23336 0.1918 0.0
Mg395 Mg 0.81666 0.26102 0.17396 0.0
C396 C 0.87368 0.23201 0.19255 0.0
C397 C 0.93989 0.29968 0.14027 0.0
O398 O 0.92767 0.30187 0.11729 0.0
O399 O 0.87164 0.30986 0.19447 0.0
O400 O 0.83071 0.29387 0.20206 0.0
O401 O 0.8787 0.26179 0.11922 0.0
O402 O 0.84498 0.27467 0.14406 0.0
C403 C 0.84996 0.30939 0.20776 0.0
C404 C 0.85358 0.26075 0.12452 0.0
O405 O 0.92647 0.29469 0.16106 0.0
Mg406 Mg 0.21202 0.38356 0.65019 0.0
O407 O 0.24635 0.38417 0.68008 0.0
O408 O 0.25784 0.34226 0.68954 0.0
Mg409 Mg 0.22897 0.31475 0.66762 0.0
C410 C 0.26113 0.36734 0.69188 0.0
C411 C 0.18793 0.44187 0.65483 0.0
O412 O 0.16556 0.43018 0.64822 0.0
O413 O 0.18278 0.37369 0.68413 0.0
O414 O 0.19491 0.33169 0.69277 0.0
O415 O 0.24177 0.37948 0.61712 0.0
O416 O 0.22276 0.34551 0.6374 0.0
C417 C 0.1804 0.35203 0.69735 0.0
C418 C 0.24048 0.35408 0.62111 0.0
O419 O 0.20898 0.42823 0.65705 0.0
Mg420 Mg 0.11462 0.70991 0.15511 0.0
O421 O 0.11163 0.74779 0.18033 0.0
O422 O 0.15269 0.75946 0.19291 0.0
Mg423 Mg 0.18171 0.7281 0.17736 0.0
C424 C 0.12769 0.76346 0.19213 0.0
C425 C 0.05475 0.71359 0.13932 0.0
O426 O 0.06541 0.72365 0.1177 0.0
O427 O 0.1205 0.68472 0.19286 0.0
O428 O 0.16197 0.69666 0.2038 0.0
O429 O 0.12318 0.73579 0.11925 0.0
O430 O 0.15375 0.71911 0.14544 0.0
C431 C 0.14091 0.6831 0.20787 0.0
C432 C 0.14788 0.73468 0.12609 0.0
O433 O 0.06959 0.70582 0.15819 0.0
Mg434 Mg 0.78259 0.61624 0.64558 0.0
O435 O 0.74733 0.61357 0.67487 0.0
O436 O 0.73597 0.6551 0.68629 0.0
Mg437 Mg 0.76498 0.68402 0.66658 0.0
C438 C 0.73251 0.62995 0.68739 0.0
C439 C 0.79908 0.55787 0.66565 0.0
O440 O 0.81155 0.57022 0.68495 0.0
O441 O 0.81017 0.62419 0.6811 0.0
O442 O 0.79799 0.66568 0.69203 0.0
O443 O 0.75414 0.62215 0.61186 0.0
O444 O 0.7719 0.65483 0.63518 0.0
C445 C 0.81209 0.6449 0.69574 0.0
C446 C 0.75487 0.64719 0.61778 0.0
O447 O 0.78666 0.57104 0.64805 0.0
Mg448 Mg 0.84201 0.88423 0.71227 0.0
O449 O 0.81686 0.8876 0.7501 0.0
O450 O 0.80469 0.84663 0.76272 0.0
Mg451 Mg 0.82064 0.81692 0.73221 0.0
C452 C 0.80509 0.8718 0.76606 0.0
C453 C 0.86014 0.94323 0.70485 0.0
O454 O 0.88299 0.93107 0.70168 0.0
O455 O 0.80455 0.877 0.68657 0.0
O456 O 0.79507 0.83551 0.69996 0.0
O457 O 0.87823 0.87556 0.73796 0.0
O458 O 0.85169 0.84517 0.72145 0.0
C459 C 0.7904 0.85582 0.68545 0.0
C460 C 0.87143 0.85078 0.73642 0.0
O461 O 0.83927 0.92954 0.70872 0.0
Mg462 Mg 0.61347 0.34948 0.21466 0.0
O463 O 0.60919 0.32253 0.2517 0.0
O464 O 0.65006 0.3105 0.26444 0.0
Mg465 Mg 0.68031 0.32897 0.23584 0.0
C466 C 0.62489 0.31013 0.26732 0.0
C467 C 0.55604 0.3266 0.20015 0.0
O468 O 0.56911 0.3048 0.19438 0.0
O469 O 0.62251 0.31286 0.18849 0.0
O470 O 0.66373 0.30321 0.20221 0.0
O471 O 0.61948 0.3852 0.24125 0.0
O472 O 0.65171 0.36002 0.22595 0.0
C473 C 0.64363 0.29881 0.18738 0.0
C474 C 0.64446 0.37931 0.24098 0.0
O475 O 0.56845 0.34709 0.20825 0.0
Mg476 Mg 0.14923 0.11521 0.70983 0.0
O477 O 0.18065 0.10924 0.74277 0.0
O478 O 0.19372 0.1496 0.75616 0.0
Mg479 Mg 0.17225 0.18108 0.73149 0.0
C480 C 0.19464 0.12426 0.75768 0.0
C481 C 0.14501 0.05569 0.72053 0.0
O482 O 0.13729 0.0662 0.74315 0.0
O483 O 0.1828 0.12484 0.68025 0.0
O484 O 0.1944 0.1652 0.69525 0.0
O485 O 0.11727 0.11937 0.7412 0.0
O486 O 0.14002 0.15291 0.72432 0.0
C487 C 0.19719 0.1458 0.6791 0.0
C488 C 0.12324 0.1444 0.74154 0.0
O489 O 0.15164 0.07081 0.70138 0.0
Mg490 Mg 0.38067 0.65258 0.21279 0.0
O491 O 0.38606 0.67779 0.25051 0.0
O492 O 0.34592 0.69139 0.26382 0.0
Mg493 Mg 0.31498 0.67497 0.23463 0.0
C494 C 0.37111 0.69056 0.2665 0.0
C495 C 0.4399 0.64619 0.2249 0.0
O496 O 0.42895 0.63548 0.24608 0.0
O497 O 0.37344 0.69036 0.1881 0.0
O498 O 0.33242 0.70125 0.20159 0.0
O499 O 0.37407 0.61639 0.23846 0.0
O500 O 0.34226 0.64277 0.22414 0.0
C501 C 0.35282 0.70512 0.187 0.0
C502 C 0.34931 0.62316 0.23891 0.0
O503 O 0.4252 0.6553 0.20652 0.0
Mg504 Mg 0.84259 0.11462 0.28486 0.0
O505 O 0.81728 0.11004 0.24684 0.0
O506 O 0.8048 0.1509 0.23417 0.0
Mg507 Mg 0.82143 0.18121 0.26375 0.0
C508 C 0.80515 0.12571 0.23098 0.0
C509 C 0.84758 0.05521 0.27204 0.0
O510 O 0.85557 0.06607 0.24965 0.0
O511 O 0.80494 0.12192 0.30954 0.0
O512 O 0.79514 0.16345 0.29653 0.0
O513 O 0.87933 0.12115 0.2601 0.0
O514 O 0.85277 0.15305 0.27386 0.0
C515 C 0.79062 0.14287 0.31075 0.0
C516 C 0.87278 0.14602 0.25969 0.0
O517 O 0.84031 0.06998 0.29121 0.0
Mg518 Mg 0.38141 0.34382 0.78783 0.0
O519 O 0.38636 0.31743 0.75074 0.0
O520 O 0.34617 0.30183 0.73979 0.0
Mg521 Mg 0.31546 0.31793 0.76928 0.0
C522 C 0.37114 0.30363 0.73587 0.0
C523 C 0.44102 0.3263 0.80123 0.0
O524 O 0.42978 0.3048 0.81091 0.0
O525 O 0.37602 0.30686 0.81464 0.0
O526 O 0.33487 0.29448 0.80284 0.0
O527 O 0.3711 0.37896 0.76164 0.0
O528 O 0.34202 0.351 0.77816 0.0
C529 C 0.35566 0.29179 0.81706 0.0
C530 C 0.34675 0.37092 0.76296 0.0
O531 O 0.42676 0.34477 0.79153 0.0
Mg532 Mg 0.15018 0.88235 0.28376 0.0
O533 O 0.17705 0.88661 0.24713 0.0
O534 O 0.18783 0.84581 0.23287 0.0
Mg535 Mg 0.16942 0.81547 0.26124 0.0
C536 C 0.18869 0.8711 0.23082 0.0
C537 C 0.14564 0.94205 0.27222 0.0
O538 O 0.13421 0.93167 0.25117 0.0
O539 O 0.18666 0.87296 0.30961 0.0
O540 O 0.19547 0.83203 0.29429 0.0
O541 O 0.11455 0.87699 0.25665 0.0
O542 O 0.13921 0.8444 0.27225 0.0
C543 C 0.20051 0.85163 0.30965 0.0
C544 C 0.12045 0.85195 0.25685 0.0
O545 O 0.15468 0.92684 0.29024 0.0
Mg546 Mg 0.61456 0.65389 0.78499 0.0
O547 O 0.60779 0.67796 0.74679 0.0
O548 O 0.64723 0.69328 0.73304 0.0
Mg549 Mg 0.67938 0.67914 0.76201 0.0
C550 C 0.6221 0.69117 0.73054 0.0
C551 C 0.55511 0.67309 0.79528 0.0
O552 O 0.56649 0.69619 0.79967 0.0
O553 O 0.62044 0.69305 0.80867 0.0
O554 O 0.66084 0.70517 0.79415 0.0
O555 O 0.62425 0.61732 0.76037 0.0
O556 O 0.65363 0.64648 0.77414 0.0
C557 C 0.64058 0.70864 0.809 0.0
C558 C 0.64847 0.62584 0.76008 0.0
O559 O 0.5693 0.65286 0.79 0.0
Mg560 Mg 0.71593 0.84534 0.88506 0.0
O561 O 0.75172 0.81705 0.88378 0.0
O562 O 0.76139 0.80828 0.84119 0.0
Mg563 Mg 0.73151 0.8305 0.81518 0.0
C564 C 0.76575 0.80552 0.86605 0.0
C565 C 0.69099 0.83901 0.94212 0.0
O566 O 0.66898 0.84353 0.92889 0.0
O567 O 0.68728 0.81095 0.87503 0.0
O568 O 0.69833 0.80479 0.83234 0.0
O569 O 0.74408 0.88001 0.88073 0.0
O570 O 0.72512 0.85926 0.84719 0.0
C571 C 0.68439 0.79896 0.85277 0.0
C572 C 0.74199 0.87659 0.85531 0.0
O573 O 0.71297 0.83806 0.92977 0.0
Mg574 Mg 0.71368 0.15692 0.11465 0.0
O575 O 0.75197 0.18172 0.11327 0.0
O576 O 0.76262 0.19289 0.155 0.0
Mg577 Mg 0.73196 0.17401 0.18301 0.0
C578 C 0.76693 0.19357 0.12996 0.0
C579 C 0.70278 0.14375 0.05573 0.0
O580 O 0.69811 0.12051 0.06677 0.0
O581 O 0.68925 0.19432 0.12346 0.0
O582 O 0.70023 0.20195 0.16599 0.0
O583 O 0.73854 0.1201 0.11911 0.0
O584 O 0.72327 0.14391 0.15263 0.0
C585 C 0.68704 0.20753 0.14505 0.0
C586 C 0.73841 0.12505 0.14437 0.0
O587 O 0.70941 0.16331 0.07021 0.0
Mg588 Mg 0.34453 0.21247 0.61642 0.0
O589 O 0.32028 0.25133 0.61396 0.0
O590 O 0.30602 0.26075 0.65509 0.0
Mg591 Mg 0.32255 0.22955 0.68377 0.0
C592 C 0.30721 0.26583 0.63021 0.0
C593 C 0.35028 0.22726 0.55708 0.0
O594 O 0.35974 0.24889 0.5683 0.0
O595 O 0.30598 0.18871 0.62171 0.0
O596 O 0.29527 0.19903 0.66373 0.0
O597 O 0.38128 0.23662 0.62389 0.0
O598 O 0.3546 0.22174 0.65535 0.0
C599 C 0.29105 0.18639 0.64212 0.0
C600 C 0.37421 0.23673 0.64863 0.0
O601 O 0.34213 0.20818 0.57151 0.0
Mg602 Mg 0.28336 0.8466 0.11456 0.0
O603 O 0.24702 0.81877 0.11465 0.0
O604 O 0.23674 0.80883 0.15686 0.0
Mg605 Mg 0.26733 0.82904 0.18372 0.0
C606 C 0.23242 0.8072 0.1319 0.0
C607 C 0.26592 0.84598 0.05601 0.0
O608 O 0.24535 0.85596 0.06847 0.0
O609 O 0.31016 0.81062 0.12277 0.0
O610 O 0.29929 0.80252 0.16528 0.0
O611 O 0.25644 0.88194 0.1205 0.0
O612 O 0.27442 0.8588 0.1529 0.0
C613 C 0.31259 0.79728 0.14429 0.0
C614 C 0.25814 0.87704 0.14569 0.0
O615 O 0.28649 0.84096 0.06975 0.0
Mg616 Mg 0.64702 0.78587 0.61548 0.0
O617 O 0.67288 0.7482 0.61322 0.0
O618 O 0.6857 0.73797 0.6546 0.0
Mg619 Mg 0.66648 0.76762 0.68334 0.0
C620 C 0.68579 0.73368 0.62954 0.0
C621 C 0.64471 0.77105 0.55612 0.0
O622 O 0.6369 0.74876 0.56732 0.0
O623 O 0.6844 0.81105 0.6233 0.0
O624 O 0.69329 0.79987 0.66552 0.0
O625 O 0.61105 0.76002 0.62068 0.0
O626 O 0.63554 0.77517 0.65371 0.0
C627 C 0.69808 0.81341 0.64458 0.0
C628 C 0.61691 0.75957 0.64571 0.0
O629 O 0.65093 0.79082 0.57061 0.0
Mg630 Mg 0.27525 0.15588 0.88421 0.0
O631 O 0.23781 0.18148 0.88571 0.0
O632 O 0.22982 0.19692 0.84479 0.0
Mg633 Mg 0.26141 0.17986 0.81661 0.0
C634 C 0.22413 0.1952 0.86947 0.0
C635 C 0.29657 0.15581 0.94242 0.0
O636 O 0.31903 0.15151 0.92988 0.0
O637 O 0.30166 0.19311 0.8804 0.0
O638 O 0.29364 0.20379 0.8378 0.0
O639 O 0.25148 0.11939 0.87243 0.0
O640 O 0.26953 0.14728 0.84428 0.0
C641 C 0.30592 0.20736 0.85973 0.0
C642 C 0.25558 0.12629 0.84798 0.0
O643 O 0.27519 0.15784 0.92932 0.0
Mg644 Mg 0.34657 0.78647 0.37994 0.0
O645 O 0.32115 0.74893 0.38718 0.0
O646 O 0.30926 0.73271 0.34752 0.0
Mg647 Mg 0.32655 0.75996 0.31506 0.0
C648 C 0.30903 0.73184 0.37291 0.0
C649 C 0.3503 0.77689 0.43962 0.0
O650 O 0.35917 0.75444 0.42963 0.0
O651 O 0.30857 0.8097 0.37016 0.0
O652 O 0.29916 0.7932 0.32978 0.0
O653 O 0.38322 0.76093 0.37576 0.0
O654 O 0.35755 0.77314 0.34245 0.0
C655 C 0.29443 0.80906 0.34906 0.0
C656 C 0.37726 0.75932 0.35079 0.0
O657 O 0.34304 0.79543 0.42408 0.0
Mg658 Mg 0.64986 0.21402 0.38343 0.0
O659 O 0.67542 0.25159 0.3877 0.0
O660 O 0.68825 0.2645 0.34709 0.0
Mg661 Mg 0.67093 0.23488 0.31686 0.0
C662 C 0.68787 0.26745 0.37231 0.0
C663 C 0.63386 0.20441 0.44247 0.0
O664 O 0.61041 0.20215 0.43131 0.0
O665 O 0.68684 0.18849 0.37541 0.0
O666 O 0.69692 0.20144 0.33392 0.0
O667 O 0.61391 0.2401 0.37717 0.0
O668 O 0.63917 0.22474 0.34493 0.0
C669 C 0.70102 0.18692 0.35436 0.0
C670 C 0.61985 0.23976 0.35213 0.0
O671 O 0.65412 0.20873 0.4281 0.0
C672 C 0.98301 0.31779 0.15786 0.0
C673 C 0.96926 0.29951 0.14131 0.0
C674 C 0.01149 0.28265 0.1239 0.0
C675 C 0.02527 0.30018 0.14121 0.0
N676 N 0.02478 0.33095 0.17803 0.0
N677 N 0.9702 0.26009 0.11387 0.0
C678 C 0.0112 0.31659 0.15935 0.0
C679 C 0.98343 0.28074 0.1257 0.0
N680 N 0.96925 0.33711 0.17116 0.0
N681 N 0.02523 0.26769 0.10581 0.0
H682 H 0.94976 0.2573 0.11558 0.0
H683 H 0.97968 0.24418 0.10462 0.0
H684 H 0.0459 0.26691 0.1051 0.0
H685 H 0.01614 0.25723 0.09042 0.0
H686 H 0.97828 0.35275 0.18128 0.0
H687 H 0.94864 0.33883 0.17035 0.0
H688 H 0.01561 0.34076 0.19379 0.0
H689 H 0.04545 0.33154 0.17893 0.0
C690 C 0.20253 0.50953 0.68568 0.0
C691 C 0.1927 0.52682 0.66565 0.0
C692 C 0.18208 0.48836 0.63757 0.0
C693 C 0.18911 0.47109 0.65873 0.0
N694 N 0.20196 0.46517 0.70461 0.0
N695 N 0.16835 0.53263 0.62467 0.0
C696 C 0.19823 0.48165 0.68329 0.0
C697 C 0.18116 0.51623 0.64216 0.0
N698 N 0.21697 0.51958 0.7064 0.0
N699 N 0.17745 0.47832 0.61272 0.0
H700 H 0.16652 0.55309 0.62758 0.0
H701 H 0.15725 0.5256 0.60866 0.0
H702 H 0.17844 0.45806 0.60832 0.0
H703 H 0.17522 0.49026 0.59593 0.0
H704 H 0.22707 0.50768 0.71999 0.0
H705 H 0.22101 0.53983 0.7086 0.0
H706 H 0.20594 0.47209 0.72373 0.0
H707 H 0.19865 0.44469 0.7038 0.0
C708 C 0.0121 0.7379 0.14703 0.0
C709 C 0.02555 0.71352 0.14257 0.0
C710 C 0.98297 0.68999 0.13937 0.0
C711 C 0.96953 0.71426 0.14468 0.0
N712 N 0.97133 0.75953 0.16064 0.0
N713 N 0.02455 0.66563 0.13984 0.0
C714 C 0.98411 0.73775 0.1505 0.0
C715 C 0.01121 0.68929 0.14061 0.0
N716 N 0.02604 0.76126 0.14784 0.0
N717 N 0.96892 0.66802 0.13165 0.0
H718 H 0.04522 0.6644 0.1396 0.0
H719 H 0.01524 0.64719 0.1415 0.0
H720 H 0.94829 0.66777 0.13011 0.0
H721 H 0.97774 0.65064 0.12468 0.0
H722 H 0.01706 0.77992 0.1476 0.0
H723 H 0.04672 0.76212 0.14714 0.0
H724 H 0.98115 0.77634 0.16772 0.0
H725 H 0.95101 0.7598 0.16464 0.0
C726 C 0.81031 0.48594 0.64476 0.0
C727 C 0.79604 0.47238 0.66502 0.0
C728 C 0.78317 0.51497 0.6853 0.0
C729 C 0.79791 0.52847 0.66531 0.0
N730 N 0.82234 0.52792 0.62404 0.0
N731 N 0.76903 0.47287 0.70464 0.0
C732 C 0.81046 0.51426 0.64439 0.0
C733 C 0.78246 0.48662 0.68531 0.0
N734 N 0.82513 0.47169 0.6269 0.0
N735 N 0.76875 0.52942 0.70335 0.0
H736 H 0.7662 0.45231 0.70402 0.0
H737 H 0.7611 0.48139 0.72172 0.0
H738 H 0.76841 0.55017 0.70361 0.0
H739 H 0.75585 0.52127 0.71728 0.0
H740 H 0.83842 0.48015 0.6135 0.0
H741 H 0.82558 0.45096 0.62649 0.0
H742 H 0.8288 0.51914 0.60645 0.0
H743 H 0.82457 0.54855 0.62397 0.0
C744 C 0.98387 0.68394 0.84406 0.0
C745 C 0.96989 0.7064 0.85389 0.0
C746 C 0.0118 0.72877 0.86462 0.0
C747 C 0.0258 0.7061 0.85529 0.0
N748 N 0.02612 0.66461 0.83115 0.0
N749 N 0.96988 0.75242 0.86733 0.0
C750 C 0.01212 0.68453 0.84324 0.0
C751 C 0.98368 0.72948 0.86243 0.0
N752 N 0.97019 0.66154 0.83686 0.0
N753 N 0.02545 0.74962 0.87557 0.0
H754 H 0.94932 0.75381 0.86528 0.0
H755 H 0.97875 0.77073 0.87115 0.0
H756 H 0.04611 0.75095 0.87535 0.0
H757 H 0.01647 0.76519 0.88582 0.0
H758 H 0.97917 0.64345 0.83235 0.0
H759 H 0.94953 0.66039 0.83703 0.0
H760 H 0.01746 0.65 0.81932 0.0
H761 H 0.04679 0.6636 0.83136 0.0
C762 C 0.79345 0.51469 0.31097 0.0
C763 C 0.80404 0.52703 0.33401 0.0
C764 C 0.81564 0.48344 0.35245 0.0
C765 C 0.80269 0.47101 0.33068 0.0
N766 N 0.77586 0.47442 0.29105 0.0
N767 N 0.82187 0.52362 0.37838 0.0
C768 C 0.79079 0.48651 0.3103 0.0
C769 C 0.81432 0.51154 0.3552 0.0
N770 N 0.78645 0.52991 0.28954 0.0
N771 N 0.82997 0.46844 0.37002 0.0
H772 H 0.82152 0.5442 0.38108 0.0
H773 H 0.82649 0.5132 0.39567 0.0
H774 H 0.83166 0.44781 0.3685 0.0
H775 H 0.84213 0.47657 0.38465 0.0
H776 H 0.78129 0.52198 0.27111 0.0
H777 H 0.78793 0.55063 0.28947 0.0
H778 H 0.76431 0.48482 0.27738 0.0
H779 H 0.77314 0.45387 0.29002 0.0
C780 C 0.00332 0.26593 0.86249 0.0
C781 C 0.01946 0.2683 0.83942 0.0
C782 C 0.98271 0.28888 0.81524 0.0
C783 C 0.96949 0.29233 0.83979 0.0
N784 N 0.96391 0.28114 0.88599 0.0
N785 N 0.02353 0.27684 0.79252 0.0
C786 C 0.97845 0.2793 0.86308 0.0
C787 C 0.00859 0.27778 0.81521 0.0
N788 N 0.01196 0.25144 0.88378 0.0
N789 N 0.97033 0.29626 0.7922 0.0
H790 H 0.0418 0.2671 0.79177 0.0
H791 H 0.01824 0.28589 0.77469 0.0
H792 H 0.95112 0.30404 0.79202 0.0
H793 H 0.97796 0.29279 0.77328 0.0
H794 H 0.00027 0.24705 0.90028 0.0
H795 H 0.03021 0.24176 0.8841 0.0
H796 H 0.97055 0.27481 0.90453 0.0
H797 H 0.94516 0.28992 0.88661 0.0
C798 C 0.20105 0.48256 0.31382 0.0
C799 C 0.19082 0.47107 0.33751 0.0
C800 C 0.18125 0.51552 0.35512 0.0
C801 C 0.19396 0.52701 0.33267 0.0
N802 N 0.22019 0.52153 0.29283 0.0
N803 N 0.17591 0.47649 0.38285 0.0
C804 C 0.20497 0.51056 0.31253 0.0
C805 C 0.18215 0.4875 0.35876 0.0
N806 N 0.20626 0.46681 0.29225 0.0
N807 N 0.16746 0.53124 0.37249 0.0
H808 H 0.17669 0.45608 0.38654 0.0
H809 H 0.17239 0.48775 0.39989 0.0
H810 H 0.16587 0.55182 0.3703 0.0
H811 H 0.15548 0.52365 0.3876 0.0
H812 H 0.21109 0.47436 0.27356 0.0
H813 H 0.20339 0.44625 0.29232 0.0
H814 H 0.23109 0.51026 0.2793 0.0
H815 H 0.224 0.54189 0.29144 0.0
C816 C 0.1339 0.9854 0.29384 0.0
C817 C 0.14856 0.97125 0.27432 0.0
C818 C 0.16675 0.01318 0.25713 0.0
C819 C 0.14963 0.02737 0.27449 0.0
N820 N 0.11433 0.02738 0.30702 0.0
N821 N 0.17829 0.97104 0.23664 0.0
C822 C 0.13275 0.01363 0.2925 0.0
C823 C 0.16481 0.98498 0.25572 0.0
N824 N 0.12079 0.97189 0.31349 0.0
N825 N 0.18554 0.02666 0.24278 0.0
H826 H 0.17914 0.9503 0.23622 0.0
H827 H 0.18763 0.97993 0.22043 0.0
H828 H 0.18785 0.04727 0.24372 0.0
H829 H 0.20038 0.01739 0.23174 0.0
H830 H 0.11261 0.98113 0.33012 0.0
H831 H 0.11963 0.9512 0.31429 0.0
H832 H 0.09939 0.01828 0.31809 0.0
H833 H 0.11235 0.04801 0.30631 0.0
C834 C 0.51117 0.65563 0.81164 0.0
C835 C 0.52576 0.67138 0.79326 0.0
C836 C 0.48435 0.68403 0.77083 0.0
C837 C 0.46966 0.67104 0.79115 0.0
N838 N 0.46863 0.64652 0.83241 0.0
N839 N 0.52667 0.70104 0.75545 0.0
C840 C 0.48293 0.65708 0.8118 0.0
C841 C 0.51244 0.68582 0.77295 0.0
N842 N 0.52428 0.63936 0.82903 0.0
N843 N 0.47153 0.69334 0.74871 0.0
H844 H 0.54731 0.70054 0.75424 0.0
H845 H 0.51812 0.71501 0.7428 0.0
H846 H 0.45111 0.69142 0.7459 0.0
H847 H 0.48122 0.70065 0.73194 0.0
H848 H 0.51486 0.62491 0.84051 0.0
H849 H 0.54489 0.63897 0.83078 0.0
H850 H 0.4772 0.63869 0.84953 0.0
H851 H 0.44799 0.64745 0.8335 0.0
C852 C 0.86422 0.01316 0.29299 0.0
C853 C 0.847 0.02595 0.27468 0.0
C854 C 0.83234 0.98275 0.25745 0.0
C855 C 0.84917 0.96994 0.27614 0.0
N856 N 0.87761 0.97222 0.3147 0.0
N857 N 0.81097 0.02364 0.24327 0.0
C858 C 0.86383 0.98494 0.29501 0.0
C859 C 0.83001 0.01093 0.25794 0.0
N860 N 0.88209 0.02788 0.30727 0.0
N861 N 0.8187 0.96792 0.23916 0.0
H862 H 0.80847 0.04425 0.24344 0.0
H863 H 0.79618 0.01382 0.23267 0.0
H864 H 0.8181 0.94717 0.23953 0.0
H865 H 0.8089 0.97604 0.22285 0.0
H866 H 0.89729 0.01961 0.31857 0.0
H867 H 0.88315 0.04858 0.30628 0.0
H868 H 0.88598 0.98201 0.33091 0.0
H869 H 0.87919 0.95158 0.31596 0.0
C870 C 0.51329 0.30823 0.7886 0.0
C871 C 0.5264 0.33072 0.7995 0.0
C872 C 0.48358 0.35018 0.81218 0.0
C873 C 0.47038 0.32829 0.8001 0.0
N874 N 0.47224 0.28968 0.77159 0.0
N875 N 0.52453 0.37502 0.81785 0.0
C876 C 0.48512 0.30812 0.78692 0.0
C877 C 0.51166 0.35237 0.80997 0.0
N878 N 0.52779 0.28695 0.77983 0.0
N879 N 0.46945 0.36812 0.82696 0.0
H880 H 0.54515 0.37687 0.8179 0.0
H881 H 0.5148 0.39267 0.82259 0.0
H882 H 0.44896 0.36696 0.82959 0.0
H883 H 0.47818 0.38289 0.83855 0.0
H884 H 0.5194 0.26872 0.77471 0.0
H885 H 0.54849 0.28689 0.77923 0.0
H886 H 0.48195 0.27614 0.75931 0.0
H887 H 0.4517 0.28949 0.769 0.0
C888 C 0.16512 0.01283 0.73516 0.0
C889 C 0.14721 0.02648 0.71824 0.0
C890 C 0.13145 0.984 0.70016 0.0
C891 C 0.14685 0.97044 0.7195 0.0
N892 N 0.17764 0.97131 0.75626 0.0
N893 N 0.11169 0.02571 0.6861 0.0
C894 C 0.16352 0.98469 0.73725 0.0
C895 C 0.13015 0.01227 0.70084 0.0
N896 N 0.18431 0.0268 0.74845 0.0
N897 N 0.11795 0.96984 0.68127 0.0
H898 H 0.1102 0.0464 0.68595 0.0
H899 H 0.0966 0.01641 0.67545 0.0
H900 H 0.11741 0.9491 0.6809 0.0
H901 H 0.10882 0.97854 0.66486 0.0
H902 H 0.19961 0.01792 0.75913 0.0
H903 H 0.18647 0.04738 0.74675 0.0
H904 H 0.18745 0.98068 0.77189 0.0
H905 H 0.17846 0.9506 0.75731 0.0
C906 C 0.4833 0.66127 0.24377 0.0
C907 C 0.46914 0.64833 0.22307 0.0
C908 C 0.51091 0.63914 0.19976 0.0
C909 C 0.5251 0.64904 0.22204 0.0
N910 N 0.52536 0.66798 0.26618 0.0
N911 N 0.46927 0.62187 0.18297 0.0
C912 C 0.51144 0.65959 0.24437 0.0
C913 C 0.48284 0.6367 0.2013 0.0
N914 N 0.46991 0.67625 0.26212 0.0
N915 N 0.52424 0.63179 0.17722 0.0
H916 H 0.44879 0.61898 0.18364 0.0
H917 H 0.47848 0.61043 0.16837 0.0
H918 H 0.54488 0.63162 0.17579 0.0
H919 H 0.51483 0.62763 0.15926 0.0
H920 H 0.47925 0.68832 0.27611 0.0
H921 H 0.44936 0.67877 0.26177 0.0
H922 H 0.51646 0.67261 0.2843 0.0
H923 H 0.54604 0.6689 0.26672 0.0
C924 C 0.87052 0.01349 0.73147 0.0
C925 C 0.86109 0.02887 0.70977 0.0
C926 C 0.84686 0.98802 0.68692 0.0
C927 C 0.8593 0.97267 0.70705 0.0
N928 N 0.8839 0.97029 0.74819 0.0
N929 N 0.84241 0.03116 0.66565 0.0
C930 C 0.87146 0.98529 0.72921 0.0
C931 C 0.84954 0.01627 0.68727 0.0
N932 N 0.87724 0.02579 0.7548 0.0
N933 N 0.83253 0.97562 0.66743 0.0
H934 H 0.84428 0.05182 0.665 0.0
H935 H 0.8366 0.02301 0.64753 0.0
H936 H 0.83122 0.95498 0.66572 0.0
H937 H 0.82038 0.9857 0.65406 0.0
H938 H 0.88153 0.01562 0.77231 0.0
H939 H 0.8761 0.04634 0.75751 0.0
H940 H 0.89614 0.97832 0.76282 0.0
H941 H 0.88314 0.94956 0.7486 0.0
C942 C 0.51187 0.30889 0.21473 0.0
C943 C 0.52668 0.32681 0.19869 0.0
C944 C 0.48543 0.34623 0.1815 0.0
C945 C 0.4707 0.32682 0.1958 0.0
N946 N 0.46944 0.28828 0.22452 0.0
N947 N 0.52819 0.35993 0.16399 0.0
C948 C 0.48382 0.30761 0.21182 0.0
C949 C 0.51364 0.34491 0.18141 0.0
N950 N 0.52448 0.2942 0.23386 0.0
N951 N 0.47244 0.36599 0.16807 0.0
H952 H 0.54886 0.35929 0.16307 0.0
H953 H 0.51985 0.37138 0.1489 0.0
H954 H 0.45184 0.36669 0.16621 0.0
H955 H 0.48193 0.38261 0.16014 0.0
H956 H 0.5146 0.28294 0.24816 0.0
H957 H 0.5449 0.29503 0.23712 0.0
H958 H 0.47795 0.27172 0.23355 0.0
H959 H 0.44875 0.28788 0.22487 0.0
C960 C 0.30655 0.13785 0.01501 0.0
C961 C 0.29952 0.16215 0.02754 0.0
C962 C 0.28946 0.18218 0.98425 0.0
C963 C 0.29611 0.15771 0.97176 0.0
N964 N 0.30445 0.11064 0.9752 0.0
N965 N 0.27864 0.20522 0.02529 0.0
C966 C 0.30278 0.13504 0.98714 0.0
C967 C 0.2893 0.1837 0.0125 0.0
N968 N 0.31755 0.11774 0.02963 0.0
N969 N 0.28427 0.20419 0.96912 0.0
H970 H 0.27833 0.20707 0.04597 0.0
H971 H 0.26811 0.22019 0.01564 0.0
H972 H 0.28398 0.20387 0.94837 0.0
H973 H 0.28211 0.22324 0.97696 0.0
H974 H 0.32575 0.10068 0.02124 0.0
H975 H 0.3203 0.11893 0.05017 0.0
H976 H 0.30636 0.09287 0.98567 0.0
H977 H 0.30145 0.10782 0.95485 0.0
C978 C 0.28605 0.82633 0.01453 0.0
C979 C 0.26675 0.84324 0.02626 0.0
C980 C 0.25907 0.86452 0.98302 0.0
C981 C 0.28107 0.85037 0.9724 0.0
N982 N 0.31607 0.81813 0.97767 0.0
N983 N 0.22586 0.86697 0.01762 0.0
C984 C 0.29448 0.83105 0.98793 0.0
C985 C 0.25057 0.85922 0.00948 0.0
N986 N 0.29467 0.80447 0.02821 0.0
N987 N 0.24616 0.883 0.96781 0.0
H988 H 0.21657 0.85914 0.03436 0.0
H989 H 0.21256 0.87735 0.00566 0.0
H990 H 0.24977 0.88572 0.94757 0.0
H991 H 0.23281 0.89677 0.97559 0.0
H992 H 0.307 0.78996 0.02012 0.0
H993 H 0.28662 0.799 0.04655 0.0
H994 H 0.32858 0.80612 0.98894 0.0
H995 H 0.32276 0.82101 0.95823 0.0
C996 C 0.66274 0.75575 0.51231 0.0
C997 C 0.64574 0.77301 0.52676 0.0
C998 C 0.62996 0.79282 0.48505 0.0
C999 C 0.64479 0.77364 0.47062 0.0
N1000 N 0.67428 0.73582 0.46989 0.0
N1001 N 0.61059 0.80561 0.52732 0.0
C1002 C 0.66087 0.75476 0.48409 0.0
C1003 C 0.62885 0.79114 0.51328 0.0
N1004 N 0.68142 0.74111 0.52558 0.0
N1005 N 0.61677 0.81255 0.47179 0.0
H1006 H 0.60886 0.80477 0.54797 0.0
H1007 H 0.59564 0.81681 0.51847 0.0
H1008 H 0.61571 0.81358 0.45111 0.0
H1009 H 0.60838 0.82897 0.48121 0.0
H1010 H 0.69624 0.73019 0.51617 0.0
H1011 H 0.68363 0.74168 0.54621 0.0
H1012 H 0.68361 0.7195 0.47854 0.0
H1013 H 0.67499 0.73557 0.44915 0.0
C1014 C 0.72132 0.13088 0.01147 0.0
C1015 C 0.7031 0.14635 0.02642 0.0
C1016 C 0.68608 0.16643 0.98533 0.0
C1017 C 0.70177 0.14837 0.9704 0.0
N1018 N 0.73407 0.11295 0.9686 0.0
N1019 N 0.6668 0.17758 0.02816 0.0
C1020 C 0.71931 0.13044 0.9833 0.0
C1021 C 0.68531 0.16406 0.01354 0.0
N1022 N 0.74139 0.11768 0.02419 0.0
N1023 N 0.67196 0.18581 0.97254 0.0
H1024 H 0.66554 0.17629 0.04883 0.0
H1025 H 0.6514 0.18855 0.0198 0.0
H1026 H 0.67119 0.18745 0.95187 0.0
H1027 H 0.66257 0.20146 0.98233 0.0
H1028 H 0.75701 0.10836 0.01434 0.0
H1029 H 0.74395 0.1181 0.04477 0.0
H1030 H 0.74447 0.09707 0.97682 0.0
H1031 H 0.73494 0.11343 0.94787 0.0
C1032 C 0.36524 0.20651 0.51433 0.0
C1033 C 0.34901 0.2253 0.52776 0.0
C1034 C 0.3328 0.24265 0.48509 0.0
C1035 C 0.3492 0.22393 0.47172 0.0
N1036 N 0.37765 0.18538 0.47273 0.0
N1037 N 0.31519 0.25917 0.52711 0.0
C1038 C 0.36425 0.20491 0.4861 0.0
C1039 C 0.33217 0.24285 0.51344 0.0
N1040 N 0.3828 0.19133 0.5285 0.0
N1041 N 0.31762 0.25991 0.47051 0.0
H1042 H 0.3138 0.25927 0.54781 0.0
H1043 H 0.30145 0.27183 0.51836 0.0
H1044 H 0.31607 0.25891 0.44984 0.0
H1045 H 0.30665 0.2755 0.47844 0.0
H1046 H 0.39735 0.17944 0.51989 0.0
H1047 H 0.38425 0.19195 0.54918 0.0
H1048 H 0.38632 0.16901 0.48194 0.0
H1049 H 0.37875 0.18446 0.45204 0.0
C1050 C 0.70068 0.81474 0.01335 0.0
C1051 C 0.69123 0.83708 0.02776 0.0
C1052 C 0.68321 0.86113 0.98611 0.0
C1053 C 0.69072 0.83809 0.97159 0.0
N1054 N 0.70327 0.79181 0.97086 0.0
N1055 N 0.66994 0.88003 0.02844 0.0
C1056 C 0.69864 0.81455 0.98507 0.0
C1057 C 0.68138 0.85981 0.01429 0.0
N1058 N 0.71196 0.79392 0.02671 0.0
N1059 N 0.67918 0.88468 0.97307 0.0
H1060 H 0.66904 0.88024 0.04917 0.0
H1061 H 0.65957 0.89563 0.01964 0.0
H1062 H 0.68072 0.88667 0.95248 0.0
H1063 H 0.67666 0.90282 0.98274 0.0
H1064 H 0.72185 0.77832 0.01738 0.0
H1065 H 0.71303 0.7931 0.04743 0.0
H1066 H 0.70646 0.77328 0.97955 0.0
H1067 H 0.70189 0.79096 0.95017 0.0
C1068 C 0.62855 0.22893 0.51381 0.0
C1069 C 0.63743 0.20613 0.52786 0.0
C1070 C 0.64856 0.18421 0.48569 0.0
C1071 C 0.63621 0.20542 0.47178 0.0
N1072 N 0.6139 0.24792 0.47202 0.0
N1073 N 0.65454 0.16132 0.52778 0.0
C1074 C 0.62602 0.22777 0.48569 0.0
C1075 C 0.64742 0.18366 0.51399 0.0
N1076 N 0.62379 0.2521 0.52728 0.0
N1077 N 0.66135 0.16461 0.47184 0.0
H1078 H 0.65403 0.16016 0.54849 0.0
H1079 H 0.65918 0.14326 0.51878 0.0
H1080 H 0.66155 0.16369 0.45111 0.0
H1081 H 0.67335 0.15031 0.48075 0.0
H1082 H 0.61994 0.27021 0.518 0.0
H1083 H 0.62624 0.25394 0.54781 0.0
H1084 H 0.60306 0.263 0.48117 0.0
H1085 H 0.61343 0.24892 0.45131 0.0
C1086 C 0.3636 0.7981 0.4828 0.0
C1087 C 0.34756 0.77963 0.46874 0.0
C1088 C 0.33179 0.76035 0.51064 0.0
C1089 C 0.34821 0.77849 0.52473 0.0
N1090 N 0.37536 0.8181 0.52511 0.0
N1091 N 0.31181 0.74777 0.46851 0.0
C1092 C 0.36252 0.79866 0.51107 0.0
C1093 C 0.33025 0.7621 0.48247 0.0
N1094 N 0.3811 0.81391 0.46921 0.0
N1095 N 0.31789 0.74129 0.52424 0.0
H1096 H 0.30987 0.74902 0.44788 0.0
H1097 H 0.29692 0.73643 0.47734 0.0
H1098 H 0.31671 0.74077 0.54496 0.0
H1099 H 0.30833 0.72534 0.51515 0.0
H1100 H 0.39562 0.82547 0.47833 0.0
H1101 H 0.3824 0.81422 0.44851 0.0
H1102 H 0.3835 0.83504 0.5164 0.0
H1103 H 0.37631 0.81839 0.54582 0.0
C1104 C 0.14337 0.33776 0.2752 0.0
C1105 C 0.1672 0.35264 0.27339 0.0
C1106 C 0.16501 0.35077 0.2248 0.0
C1107 C 0.14498 0.3311 0.22695 0.0
N1108 N 0.1116 0.30883 0.25295 0.0
N1109 N 0.19925 0.37648 0.24709 0.0
C1110 C 0.1326 0.32599 0.25177 0.0
C1111 C 0.17717 0.36073 0.24829 0.0
N1112 N 0.13151 0.33476 0.29947 0.0
N1113 N 0.17247 0.35944 0.20013 0.0
H1114 H 0.20759 0.38506 0.264 0.0
H1115 H 0.20967 0.38057 0.22968 0.0
H1116 H 0.16343 0.35239 0.18282 0.0
H1117 H 0.18574 0.37497 0.19683 0.0
H1118 H 0.11329 0.32547 0.30242 0.0
H1119 H 0.13922 0.34359 0.31661 0.0
H1120 H 0.10336 0.30171 0.27054 0.0
H1121 H 0.10247 0.30139 0.23589 0.0
C1122 C 0.16396 0.642 0.77329 0.0
C1123 C 0.14565 0.66341 0.77282 0.0
C1124 C 0.14269 0.66024 0.72434 0.0
C1125 C 0.16502 0.64322 0.72463 0.0
N1126 N 0.19338 0.61287 0.74814 0.0
N1127 N 0.11442 0.69069 0.74896 0.0
C1128 C 0.17418 0.63204 0.74881 0.0
C1129 C 0.13345 0.67132 0.74867 0.0
N1130 N 0.17185 0.63196 0.79729 0.0
N1131 N 0.1308 0.6659 0.70059 0.0
H1132 H 0.10659 0.6984 0.76654 0.0
H1133 H 0.10683 0.69972 0.73198 0.0
H1134 H 0.13743 0.65756 0.68275 0.0
H1135 H 0.11338 0.67681 0.69866 0.0
H1136 H 0.18483 0.61608 0.79966 0.0
H1137 H 0.16401 0.63889 0.81523 0.0
H1138 H 0.2026 0.60492 0.76482 0.0
H1139 H 0.20026 0.60473 0.73034 0.0
C1140 C 0.84744 0.66938 0.28517 0.0
C1141 C 0.82989 0.64765 0.28207 0.0
C1142 C 0.84068 0.64597 0.23453 0.0
C1143 C 0.85262 0.67141 0.23685 0.0
N1144 N 0.86779 0.70759 0.26427 0.0
N1145 N 0.81107 0.61332 0.25442 0.0
C1146 C 0.85675 0.68288 0.26227 0.0
C1147 C 0.82747 0.63482 0.25704 0.0
N1148 N 0.85436 0.67747 0.31016 0.0
N1149 N 0.84129 0.63309 0.21063 0.0
H1150 H 0.80179 0.60428 0.27062 0.0
H1151 H 0.80583 0.60503 0.23619 0.0
H1152 H 0.85064 0.64122 0.19396 0.0
H1153 H 0.83472 0.61363 0.20793 0.0
H1154 H 0.86862 0.69203 0.31389 0.0
H1155 H 0.84761 0.66759 0.32715 0.0
H1156 H 0.86842 0.71854 0.28185 0.0
H1157 H 0.87488 0.71774 0.24769 0.0
C1158 C 0.8307 0.35972 0.7726 0.0
C1159 C 0.851 0.34024 0.77166 0.0
C1160 C 0.8543 0.34497 0.72345 0.0
C1161 C 0.83139 0.36123 0.72416 0.0
N1162 N 0.80435 0.39215 0.74828 0.0
N1163 N 0.88802 0.32096 0.74837 0.0
C1164 C 0.822 0.37158 0.7485 0.0
C1165 C 0.86508 0.3354 0.74775 0.0
N1166 N 0.81889 0.36558 0.79636 0.0
N1167 N 0.86446 0.33749 0.69938 0.0
H1168 H 0.89609 0.31376 0.76606 0.0
H1169 H 0.90012 0.31782 0.73189 0.0
H1170 H 0.85733 0.34541 0.68155 0.0
H1171 H 0.87933 0.32336 0.69694 0.0
H1172 H 0.80195 0.37727 0.79823 0.0
H1173 H 0.82592 0.35797 0.81436 0.0
H1174 H 0.79766 0.40181 0.76532 0.0
H1175 H 0.79817 0.40099 0.73055 0.0
C1176 C 0.26749 0.14804 0.3424 0.0
C1177 C 0.26589 0.17281 0.35571 0.0
C1178 C 0.21745 0.1707 0.35416 0.0
C1179 C 0.2194 0.14965 0.33556 0.0
N1180 N 0.24546 0.11592 0.31377 0.0
N1181 N 0.23989 0.20703 0.37656 0.0
C1182 C 0.24413 0.13706 0.33079 0.0
C1183 C 0.24094 0.18359 0.36288 0.0
N1184 N 0.29146 0.13553 0.34048 0.0
N1185 N 0.19297 0.17855 0.36282 0.0
H1186 H 0.25692 0.21612 0.38399 0.0
H1187 H 0.22255 0.21785 0.37967 0.0
H1188 H 0.17562 0.16902 0.35659 0.0
H1189 H 0.18998 0.19261 0.37772 0.0
H1190 H 0.29393 0.11648 0.33274 0.0
H1191 H 0.30867 0.1435 0.34889 0.0
H1192 H 0.26316 0.10783 0.30681 0.0
H1193 H 0.22858 0.10692 0.30584 0.0
C1194 C 0.32923 0.75211 0.86118 0.0
C1195 C 0.33263 0.77683 0.84788 0.0
C1196 C 0.36241 0.75595 0.81548 0.0
C1197 C 0.35647 0.7309 0.82685 0.0
N1198 N 0.34256 0.70565 0.86479 0.0
N1199 N 0.35914 0.80408 0.81883 0.0
C1200 C 0.34288 0.72929 0.85141 0.0
C1201 C 0.35171 0.77931 0.82725 0.0
N1202 N 0.31155 0.74998 0.88168 0.0
N1203 N 0.37691 0.75705 0.79255 0.0
H1204 H 0.35168 0.82138 0.82758 0.0
H1205 H 0.37421 0.80752 0.80508 0.0
H1206 H 0.38593 0.74018 0.78454 0.0
H1207 H 0.37935 0.77421 0.78119 0.0
H1208 H 0.30571 0.73193 0.88999 0.0
H1209 H 0.30187 0.76633 0.88988 0.0
H1210 H 0.33475 0.70331 0.88383 0.0
H1211 H 0.35249 0.68889 0.85759 0.0
C1212 C 0.73174 0.85329 0.34828 0.0
C1213 C 0.73195 0.82727 0.35895 0.0
C1214 C 0.77979 0.82458 0.35172 0.0
C1215 C 0.77811 0.84724 0.33497 0.0
N1216 N 0.75335 0.88515 0.31911 0.0
N1217 N 0.75599 0.78884 0.37385 0.0
C1218 C 0.75455 0.86272 0.33441 0.0
C1219 C 0.75613 0.81343 0.36225 0.0
N1220 N 0.70938 0.86839 0.35081 0.0
N1221 N 0.80404 0.81367 0.35704 0.0
H1222 H 0.73896 0.78096 0.38268 0.0
H1223 H 0.77223 0.77605 0.37394 0.0
H1224 H 0.82162 0.82192 0.34971 0.0
H1225 H 0.80696 0.79821 0.3705 0.0
H1226 H 0.70828 0.88832 0.34528 0.0
H1227 H 0.69262 0.86138 0.36088 0.0
H1228 H 0.73588 0.89554 0.31539 0.0
H1229 H 0.76977 0.89291 0.30918 0.0
C1230 C 0.67673 0.25528 0.85768 0.0
C1231 C 0.66635 0.23035 0.84953 0.0
C1232 C 0.63196 0.25268 0.82321 0.0
C1233 C 0.64458 0.27731 0.82861 0.0
N1234 N 0.67206 0.30346 0.85748 0.0
N1235 N 0.63028 0.2049 0.8315 0.0
C1236 C 0.66457 0.27899 0.84829 0.0
C1237 C 0.64246 0.22899 0.83472 0.0
N1238 N 0.69928 0.25621 0.87274 0.0
N1239 N 0.61099 0.25193 0.80603 0.0
H1240 H 0.63777 0.18753 0.84007 0.0
H1241 H 0.61198 0.20231 0.82227 0.0
H1242 H 0.60207 0.26917 0.79878 0.0
H1243 H 0.6026 0.2345 0.79869 0.0
H1244 H 0.70985 0.27358 0.87663 0.0
H1245 H 0.70806 0.23919 0.88065 0.0
H1246 H 0.68517 0.30635 0.87321 0.0
H1247 H 0.66305 0.32093 0.85077 0.0
C1248 C 0.27488 0.85129 0.65441 0.0
C1249 C 0.27416 0.82351 0.64924 0.0
C1250 C 0.22629 0.82367 0.65594 0.0
C1251 C 0.2283 0.84884 0.66821 0.0
N1252 N 0.25359 0.88849 0.677 0.0
N1253 N 0.24892 0.78249 0.64748 0.0
C1254 C 0.25218 0.86361 0.66622 0.0
C1255 C 0.24969 0.80955 0.6501 0.0
N1256 N 0.29733 0.86547 0.64888 0.0
N1257 N 0.20186 0.81281 0.65128 0.0
H1258 H 0.26572 0.77105 0.64374 0.0
H1259 H 0.23196 0.77121 0.65128 0.0
H1260 H 0.18437 0.82312 0.65559 0.0
H1261 H 0.19914 0.79514 0.64076 0.0
H1262 H 0.29841 0.88612 0.65025 0.0
H1263 H 0.31421 0.85663 0.64073 0.0
H1264 H 0.27118 0.89924 0.67874 0.0
H1265 H 0.23702 0.898 0.68502 0.0
C1266 C 0.63877 0.78285 0.1623 0.0
C1267 C 0.65889 0.78161 0.14258 0.0
C1268 C 0.65215 0.7336 0.13832 0.0
C1269 C 0.63722 0.73432 0.16213 0.0
N1270 N 0.60992 0.75855 0.1928 0.0
N1271 N 0.68042 0.75756 0.10716 0.0
C1272 C 0.62796 0.75875 0.1725 0.0
C1273 C 0.66365 0.75758 0.12853 0.0
N1274 N 0.63108 0.80718 0.17171 0.0
N1275 N 0.6557 0.70972 0.12583 0.0
H1276 H 0.68816 0.77496 0.09898 0.0
H1277 H 0.68663 0.74053 0.0972 0.0
H1278 H 0.64692 0.69227 0.13295 0.0
H1279 H 0.66562 0.70725 0.10786 0.0
H1280 H 0.61676 0.81014 0.1863 0.0
H1281 H 0.63853 0.82485 0.16368 0.0
H1282 H 0.60307 0.77541 0.2026 0.0
H1283 H 0.60133 0.74094 0.19968 0.0
C1284 C 0.76626 0.1522 0.64967 0.0
C1285 C 0.76559 0.14308 0.67632 0.0
C1286 C 0.71726 0.14667 0.67637 0.0
C1287 C 0.71873 0.16205 0.65284 0.0
N1288 N 0.74417 0.17805 0.61542 0.0
N1289 N 0.7406 0.13117 0.7154 0.0
C1290 C 0.74296 0.16375 0.6385 0.0
C1291 C 0.74102 0.13952 0.68956 0.0
N1292 N 0.78935 0.1505 0.63555 0.0
N1293 N 0.693 0.1398 0.6864 0.0
H1294 H 0.75781 0.12566 0.72543 0.0
H1295 H 0.72363 0.13127 0.72724 0.0
H1296 H 0.67538 0.14491 0.67674 0.0
H1297 H 0.69049 0.12701 0.70252 0.0
H1298 H 0.79077 0.15484 0.61534 0.0
H1299 H 0.80657 0.14231 0.64366 0.0
H1300 H 0.76186 0.18283 0.60581 0.0
H1301 H 0.72744 0.18611 0.60635 0.0
C1302 C 0.34612 0.22398 0.17003 0.0
C1303 C 0.33095 0.22636 0.14656 0.0
C1304 C 0.3426 0.27373 0.14447 0.0
C1305 C 0.35127 0.27225 0.17129 0.0
N1306 N 0.35917 0.24579 0.21058 0.0
N1307 N 0.31669 0.25273 0.10933 0.0
C1308 C 0.35309 0.24722 0.18416 0.0
C1309 C 0.33034 0.25091 0.13268 0.0
N1310 N 0.35246 0.19931 0.17946 0.0
N1311 N 0.34531 0.29705 0.13083 0.0
H1312 H 0.30836 0.2361 0.10012 0.0
H1313 H 0.31297 0.27063 0.09959 0.0
H1314 H 0.35393 0.3139 0.13939 0.0
H1315 H 0.34115 0.29901 0.11063 0.0
H1316 H 0.36503 0.19629 0.19564 0.0
H1317 H 0.34721 0.182 0.16921 0.0
H1318 H 0.35764 0.22834 0.22169 0.0
H1319 H 0.36341 0.26259 0.22191 0.0
C1320 C 0.85204 0.66359 0.71787 0.0
C1321 C 0.83052 0.64546 0.71864 0.0
C1322 C 0.83361 0.64307 0.76718 0.0
C1323 C 0.85102 0.66521 0.76651 0.0
N1324 N 0.88122 0.6934 0.74243 0.0
N1325 N 0.80411 0.61356 0.74261 0.0
C1326 C 0.86213 0.67406 0.74216 0.0
C1327 C 0.82278 0.63331 0.7429 0.0
N1328 N 0.86218 0.67096 0.69374 0.0
N1329 N 0.82722 0.63204 0.79121 0.0
H1330 H 0.79664 0.60564 0.72497 0.0
H1331 H 0.79577 0.60503 0.7595 0.0
H1332 H 0.8355 0.63888 0.80898 0.0
H1333 H 0.81522 0.61538 0.79368 0.0
H1334 H 0.87843 0.68346 0.69117 0.0
H1335 H 0.85508 0.66293 0.67595 0.0
H1336 H 0.88873 0.70271 0.72556 0.0
H1337 H 0.88965 0.70038 0.76004 0.0
C1338 C 0.84794 0.31028 0.25727 0.0
C1339 C 0.84753 0.32447 0.23289 0.0
C1340 C 0.8271 0.36268 0.25521 0.0
C1341 C 0.82686 0.3479 0.27929 0.0
N1342 N 0.8463 0.31282 0.30529 0.0
N1343 N 0.84383 0.3663 0.2099 0.0
C1344 C 0.84082 0.32358 0.28095 0.0
C1345 C 0.83982 0.35159 0.23239 0.0
N1346 N 0.85311 0.28361 0.25759 0.0
N1347 N 0.8136 0.38615 0.25358 0.0
H1348 H 0.85265 0.35833 0.19289 0.0
H1349 H 0.84062 0.38675 0.20896 0.0
H1350 H 0.80438 0.39484 0.26996 0.0
H1351 H 0.81042 0.3963 0.23581 0.0
H1352 H 0.85066 0.27174 0.27442 0.0
H1353 H 0.8576 0.27292 0.24044 0.0
H1354 H 0.85814 0.296 0.3078 0.0
H1355 H 0.84126 0.3225 0.32297 0.0
C1356 C 0.13235 0.31603 0.74138 0.0
C1357 C 0.13565 0.33032 0.76541 0.0
C1358 C 0.1612 0.36476 0.74217 0.0
C1359 C 0.16001 0.34915 0.71861 0.0
N1360 N 0.13727 0.31549 0.69332 0.0
N1361 N 0.14482 0.37164 0.78726 0.0
C1362 C 0.14293 0.3267 0.71742 0.0
C1363 C 0.14705 0.35604 0.76515 0.0
N1364 N 0.12079 0.29141 0.74188 0.0
N1365 N 0.17739 0.38656 0.7433 0.0
H1366 H 0.13453 0.3652 0.80413 0.0
H1367 H 0.15076 0.39148 0.78795 0.0
H1368 H 0.18784 0.39377 0.72694 0.0
H1369 H 0.18151 0.39683 0.7608 0.0
H1370 H 0.12093 0.27833 0.72581 0.0
H1371 H 0.11193 0.28365 0.75897 0.0
H1372 H 0.12349 0.30025 0.69074 0.0
H1373 H 0.14461 0.32331 0.67552 0.0
C1374 C 0.1697 0.63148 0.25277 0.0
C1375 C 0.16435 0.64442 0.27725 0.0
C1376 C 0.13148 0.67293 0.25541 0.0
C1377 C 0.14152 0.6644 0.2306 0.0
N1378 N 0.16479 0.63206 0.20448 0.0
N1379 N 0.1369 0.67332 0.30354 0.0
C1380 C 0.15857 0.64208 0.22898 0.0
C1381 C 0.14371 0.66352 0.27912 0.0
N1382 N 0.18608 0.60986 0.25239 0.0
N1383 N 0.11073 0.69038 0.25597 0.0
H1384 H 0.14479 0.66557 0.32111 0.0
H1385 H 0.12377 0.68899 0.30659 0.0
H1386 H 0.10126 0.69655 0.23857 0.0
H1387 H 0.10164 0.69718 0.27325 0.0
H1388 H 0.19091 0.59907 0.23543 0.0
H1389 H 0.19385 0.60167 0.26974 0.0
H1390 H 0.17837 0.61689 0.20107 0.0
H1391 H 0.15576 0.63912 0.18716 0.0
C1392 C 0.77096 0.82908 0.64922 0.0
C1393 C 0.76933 0.85229 0.66514 0.0
C1394 C 0.72202 0.85588 0.65444 0.0
C1395 C 0.72271 0.82945 0.6447 0.0
N1396 N 0.74772 0.79076 0.63164 0.0
N1397 N 0.74419 0.88988 0.68079 0.0
C1398 C 0.74727 0.81626 0.64108 0.0
C1399 C 0.74525 0.8668 0.6665 0.0
N1400 N 0.79531 0.81904 0.64273 0.0
N1401 N 0.69901 0.87007 0.65264 0.0
H1402 H 0.76102 0.89861 0.6891 0.0
H1403 H 0.72664 0.89991 0.68511 0.0
H1404 H 0.68195 0.86211 0.64392 0.0
H1405 H 0.69749 0.89015 0.6575 0.0
H1406 H 0.79805 0.80319 0.62967 0.0
H1407 H 0.81289 0.82844 0.64851 0.0
H1408 H 0.76457 0.77877 0.63175 0.0
H1409 H 0.73067 0.7811 0.62495 0.0
C1410 C 0.63419 0.25211 0.17227 0.0
C1411 C 0.64644 0.2771 0.16766 0.0
C1412 C 0.67966 0.25628 0.13895 0.0
C1413 C 0.66949 0.23105 0.14631 0.0
N1414 N 0.63317 0.20465 0.16244 0.0
N1415 N 0.67432 0.30436 0.14014 0.0
C1416 C 0.64521 0.22894 0.16033 0.0
C1417 C 0.66692 0.27958 0.14854 0.0
N1418 N 0.61314 0.25046 0.18929 0.0
N1419 N 0.70242 0.25779 0.12425 0.0
H1420 H 0.66487 0.32154 0.147 0.0
H1421 H 0.68791 0.30781 0.12492 0.0
H1422 H 0.71131 0.24096 0.11609 0.0
H1423 H 0.71287 0.27534 0.12082 0.0
H1424 H 0.60512 0.23267 0.19619 0.0
H1425 H 0.60394 0.26735 0.1969 0.0
H1426 H 0.61452 0.2017 0.17084 0.0
H1427 H 0.64114 0.18762 0.15363 0.0
C1428 C 0.24207 0.1845 0.63584 0.0
C1429 C 0.26619 0.17085 0.64058 0.0
C1430 C 0.24206 0.1337 0.66084 0.0
C1431 C 0.21837 0.14883 0.65886 0.0
N1432 N 0.19387 0.18306 0.63646 0.0
N1433 N 0.28881 0.12974 0.64906 0.0
C1434 C 0.21779 0.17226 0.64326 0.0
C1435 C 0.26597 0.14431 0.64998 0.0
N1436 N 0.24264 0.20983 0.62599 0.0
N1437 N 0.2421 0.11039 0.6748 0.0
H1438 H 0.3064 0.1375 0.64124 0.0
H1439 H 0.28979 0.10958 0.65372 0.0
H1440 H 0.22479 0.10172 0.68217 0.0
H1441 H 0.25926 0.10002 0.67979 0.0
H1442 H 0.2261 0.2222 0.62506 0.0
H1443 H 0.26019 0.21887 0.61973 0.0
H1444 H 0.19177 0.1992 0.62365 0.0
H1445 H 0.17596 0.17406 0.64187 0.0
C1446 C 0.35176 0.77685 0.16564 0.0
C1447 C 0.33156 0.77492 0.1462 0.0
C1448 C 0.33668 0.72649 0.14537 0.0
C1449 C 0.35202 0.72831 0.1689 0.0
N1450 N 0.37701 0.75446 0.20008 0.0
N1451 N 0.3071 0.74886 0.1144 0.0
C1452 C 0.36101 0.75333 0.17821 0.0
C1453 C 0.32525 0.75003 0.13454 0.0
N1454 N 0.3615 0.80136 0.17225 0.0
N1455 N 0.33279 0.70213 0.13396 0.0
H1456 H 0.29939 0.76589 0.10544 0.0
H1457 H 0.29917 0.73125 0.10696 0.0
H1458 H 0.3412 0.68485 0.14181 0.0
H1459 H 0.32325 0.69924 0.11584 0.0
H1460 H 0.37744 0.80437 0.18506 0.0
H1461 H 0.35488 0.81869 0.1629 0.0
H1462 H 0.38176 0.77195 0.21011 0.0
H1463 H 0.38503 0.73737 0.20859 0.0
C1464 C 0.72058 0.14518 0.33625 0.0
C1465 C 0.72334 0.16784 0.35278 0.0
C1466 C 0.77166 0.16359 0.35124 0.0
C1467 C 0.76878 0.14495 0.33034 0.0
N1468 N 0.74203 0.11333 0.30668 0.0
N1469 N 0.75037 0.19559 0.38056 0.0
C1470 C 0.74365 0.13382 0.32443 0.0
C1471 C 0.74863 0.17569 0.36219 0.0
N1472 N 0.69579 0.1351 0.33174 0.0
N1473 N 0.79656 0.16975 0.36011 0.0
H1474 H 0.73359 0.20278 0.39029 0.0
H1475 H 0.76797 0.20477 0.3863 0.0
H1476 H 0.81348 0.16053 0.35242 0.0
H1477 H 0.8005 0.1823 0.37607 0.0
H1478 H 0.69191 0.11806 0.32066 0.0
H1479 H 0.67893 0.14317 0.34075 0.0
H1480 H 0.72437 0.10555 0.29932 0.0
H1481 H 0.75893 0.10377 0.29949 0.0
C1482 C 0.32362 0.25278 0.87023 0.0
C1483 C 0.32764 0.22717 0.85926 0.0
C1484 C 0.36209 0.24447 0.82958 0.0
C1485 C 0.35475 0.27047 0.83726 0.0
N1486 N 0.33642 0.29959 0.87015 0.0
N1487 N 0.35589 0.1968 0.83566 0.0
C1488 C 0.33835 0.27459 0.85974 0.0
C1489 C 0.34899 0.22243 0.8415 0.0
N1490 N 0.30456 0.25633 0.88921 0.0
N1491 N 0.38029 0.24124 0.80972 0.0
H1492 H 0.34643 0.18058 0.84459 0.0
H1493 H 0.37192 0.19155 0.82372 0.0
H1494 H 0.39108 0.25733 0.80228 0.0
H1495 H 0.38465 0.22312 0.80071 0.0
H1496 H 0.29846 0.27483 0.89619 0.0
H1497 H 0.29458 0.24032 0.89786 0.0
H1498 H 0.32591 0.30419 0.88737 0.0
H1499 H 0.34734 0.31548 0.86237 0.0
C1500 C 0.26958 0.85116 0.3392 0.0
C1501 C 0.26936 0.82424 0.34766 0.0
C1502 C 0.22108 0.82339 0.34377 0.0
C1503 C 0.22212 0.84738 0.32914 0.0
N1504 N 0.24684 0.88563 0.31411 0.0
N1505 N 0.24491 0.7839 0.35678 0.0
C1506 C 0.24609 0.86217 0.3278 0.0
C1507 C 0.24502 0.81027 0.35018 0.0
N1508 N 0.29235 0.86575 0.34135 0.0
N1509 N 0.19704 0.81282 0.35061 0.0
H1510 H 0.2622 0.77346 0.36116 0.0
H1511 H 0.22802 0.77195 0.35586 0.0
H1512 H 0.17922 0.82241 0.34605 0.0
H1513 H 0.19495 0.79631 0.36299 0.0
H1514 H 0.29331 0.8861 0.33754 0.0
H1515 H 0.30979 0.85782 0.34924 0.0
H1516 H 0.26432 0.89574 0.30962 0.0
H1517 H 0.22987 0.89451 0.30629 0.0
C1518 C 0.64976 0.73184 0.85194 0.0
C1519 C 0.64067 0.73315 0.82532 0.0
C1520 C 0.64772 0.78123 0.82544 0.0
C1521 C 0.66334 0.77862 0.8487 0.0
N1522 N 0.67745 0.75192 0.88601 0.0
N1523 N 0.63055 0.75915 0.78639 0.0
C1524 C 0.66321 0.75425 0.86304 0.0
C1525 C 0.63885 0.75803 0.81221 0.0
N1526 N 0.64626 0.70891 0.86607 0.0
N1527 N 0.64223 0.806 0.81569 0.0
H1528 H 0.6238 0.74238 0.7763 0.0
H1529 H 0.63193 0.77617 0.77463 0.0
H1530 H 0.64847 0.82327 0.82542 0.0
H1531 H 0.62941 0.80936 0.79979 0.0
H1532 H 0.65051 0.70718 0.88626 0.0
H1533 H 0.63667 0.69236 0.85798 0.0
H1534 H 0.68074 0.73388 0.89563 0.0
H1535 H 0.68689 0.76798 0.89506 0.0
C1536 C 0.10955 0.21383 0.23541 0.0
C1537 C 0.11452 0.20973 0.20801 0.0
C1538 C 0.10945 0.16154 0.21365 0.0
C1539 C 0.10789 0.16562 0.2416 0.0
N1540 N 0.09465 0.1946 0.27712 0.0
N1541 N 0.10993 0.18174 0.1696 0.0
C1542 C 0.10371 0.19157 0.25169 0.0
C1543 C 0.11133 0.18415 0.19661 0.0
N1544 N 0.11183 0.23874 0.24606 0.0
N1545 N 0.11019 0.13638 0.2035 0.0
H1546 H 0.11048 0.19831 0.15712 0.0
H1547 H 0.10575 0.16403 0.15973 0.0
H1548 H 0.10594 0.11955 0.21477 0.0
H1549 H 0.11499 0.13207 0.18383 0.0
H1550 H 0.11143 0.24256 0.26641 0.0
H1551 H 0.1156 0.25552 0.23445 0.0
H1552 H 0.08932 0.21288 0.28527 0.0
H1553 H 0.08997 0.17822 0.28905 0.0
C1554 C 0.29858 0.61693 0.75335 0.0
C1555 C 0.32473 0.61371 0.74367 0.0
C1556 C 0.30738 0.61181 0.69799 0.0
C1557 C 0.28268 0.62141 0.70769 0.0
N1558 N 0.25429 0.63304 0.74465 0.0
N1559 N 0.35326 0.59987 0.70773 0.0
C1560 C 0.27798 0.6235 0.73543 0.0
C1561 C 0.3289 0.60817 0.71624 0.0
N1562 N 0.29371 0.61376 0.77991 0.0
N1563 N 0.31022 0.6068 0.6714 0.0
H1564 H 0.36788 0.59331 0.72076 0.0
H1565 H 0.35883 0.59819 0.68789 0.0
H1566 H 0.29486 0.60968 0.6578 0.0
H1567 H 0.32717 0.59893 0.66266 0.0
H1568 H 0.27474 0.61378 0.78817 0.0
H1569 H 0.30868 0.6082 0.79316 0.0
H1570 H 0.25094 0.6381 0.76446 0.0
H1571 H 0.23839 0.63758 0.7322 0.0
C1572 C 0.89524 0.83534 0.21498 0.0
C1573 C 0.89298 0.83172 0.24299 0.0
C1574 C 0.89979 0.78377 0.23739 0.0
C1575 C 0.8949 0.7871 0.21006 0.0
N1576 N 0.90405 0.81415 0.17227 0.0
N1577 N 0.90181 0.80422 0.28121 0.0
C1578 C 0.89772 0.81243 0.19855 0.0
C1579 C 0.8986 0.80639 0.25431 0.0
N1580 N 0.89356 0.8601 0.20399 0.0
N1581 N 0.90615 0.75907 0.24654 0.0
H1582 H 0.90277 0.82094 0.29351 0.0
H1583 H 0.90387 0.78629 0.29132 0.0
H1584 H 0.90915 0.7433 0.23334 0.0
H1585 H 0.91042 0.75458 0.26627 0.0
H1586 H 0.89163 0.8634 0.18364 0.0
H1587 H 0.89374 0.8775 0.21518 0.0
H1588 H 0.90841 0.83192 0.16255 0.0
H1589 H 0.90779 0.79702 0.16112 0.0
C1590 C 0.6921 0.3921 0.74743 0.0
C1591 C 0.66622 0.39002 0.73681 0.0
C1592 C 0.68482 0.38458 0.69205 0.0
C1593 C 0.71019 0.3808 0.70378 0.0
N1594 N 0.73877 0.38199 0.74221 0.0
N1595 N 0.63813 0.3956 0.69855 0.0
C1596 C 0.71418 0.38551 0.73129 0.0
C1597 C 0.66255 0.38997 0.70883 0.0
N1598 N 0.69516 0.40024 0.77317 0.0
N1599 N 0.68205 0.38179 0.66512 0.0
H1600 H 0.62241 0.40201 0.71036 0.0
H1601 H 0.63386 0.39646 0.67834 0.0
H1602 H 0.69818 0.37854 0.6525 0.0
H1603 H 0.66399 0.38209 0.65515 0.0
H1604 H 0.71348 0.4042 0.78189 0.0
H1605 H 0.6789 0.40559 0.78491 0.0
H1606 H 0.74242 0.38203 0.76259 0.0
H1607 H 0.75547 0.37745 0.73083 0.0
C1608 C 0.11019 0.80666 0.7981 0.0
C1609 C 0.12069 0.78254 0.78792 0.0
C1610 C 0.11762 0.80061 0.74307 0.0
C1611 C 0.11514 0.82655 0.75388 0.0
N1612 N 0.10544 0.85425 0.792 0.0
N1613 N 0.13333 0.75573 0.75017 0.0
C1614 C 0.10974 0.82962 0.78145 0.0
C1615 C 0.12371 0.77911 0.76016 0.0
N1616 N 0.1005 0.80748 0.82343 0.0
N1617 N 0.11476 0.79693 0.71631 0.0
H1618 H 0.13728 0.7392 0.76207 0.0
H1619 H 0.13884 0.75328 0.73034 0.0
H1620 H 0.10977 0.81261 0.70362 0.0
H1621 H 0.11455 0.77824 0.70734 0.0
H1622 H 0.09066 0.8239 0.83134 0.0
H1623 H 0.09978 0.79064 0.83552 0.0
H1624 H 0.10527 0.85797 0.81239 0.0
H1625 H 0.10252 0.87115 0.78044 0.0
C1626 C 0.69482 0.62071 0.23915 0.0
C1627 C 0.66837 0.61733 0.24814 0.0
C1628 C 0.68527 0.60898 0.29315 0.0
C1629 C 0.70985 0.62023 0.28525 0.0
N1630 N 0.73981 0.63359 0.25028 0.0
N1631 N 0.63915 0.60026 0.28237 0.0
C1632 C 0.71531 0.62476 0.258 0.0
C1633 C 0.66378 0.60858 0.27469 0.0
N1634 N 0.70016 0.6196 0.21253 0.0
N1635 N 0.68275 0.59831 0.31802 0.0
H1636 H 0.62468 0.59435 0.26886 0.0
H1637 H 0.63336 0.59817 0.30214 0.0
H1638 H 0.6985 0.59764 0.33141 0.0
H1639 H 0.66607 0.58802 0.32462 0.0
H1640 H 0.71928 0.62002 0.20465 0.0
H1641 H 0.68541 0.61518 0.19861 0.0
H1642 H 0.74401 0.6403 0.23113 0.0
H1643 H 0.75575 0.63522 0.26343 0.0
C1644 C 0.898 0.19732 0.7946 0.0
C1645 C 0.88954 0.22159 0.78331 0.0
C1646 C 0.88809 0.20013 0.73976 0.0
C1647 C 0.88783 0.17489 0.75251 0.0
N1648 N 0.89518 0.14932 0.79276 0.0
N1649 N 0.88042 0.2476 0.74431 0.0
C1650 C 0.89431 0.17328 0.78003 0.0
C1651 C 0.88632 0.22354 0.75546 0.0
N1652 N 0.9096 0.19738 0.81908 0.0
N1653 N 0.8897 0.20145 0.71268 0.0
H1654 H 0.88036 0.26515 0.75543 0.0
H1655 H 0.87475 0.24996 0.72453 0.0
H1656 H 0.89174 0.1844 0.70097 0.0
H1657 H 0.89179 0.21922 0.70221 0.0
H1658 H 0.91802 0.18051 0.82768 0.0
H1659 H 0.9133 0.21508 0.82929 0.0
H1660 H 0.89633 0.14759 0.81339 0.0
H1661 H 0.89356 0.13115 0.78302 0.0
C1662 C 0.31122 0.39703 0.25596 0.0
C1663 C 0.33569 0.38538 0.26327 0.0
C1664 C 0.31502 0.36414 0.30149 0.0
C1665 C 0.28992 0.37449 0.29382 0.0
N1666 N 0.26536 0.40642 0.26741 0.0
N1667 N 0.36211 0.36716 0.2987 0.0
C1668 C 0.28844 0.39309 0.27241 0.0
C1669 C 0.33799 0.37246 0.28796 0.0
N1670 N 0.30973 0.41074 0.23256 0.0
N1671 N 0.31736 0.34608 0.32162 0.0
H1672 H 0.37982 0.37418 0.29052 0.0
H1673 H 0.37982 0.37418 0.29052 0.0
H1674 H 0.30122 0.33861 0.33211 0.0
H1675 H 0.3356 0.33774 0.3269 0.0
H1676 H 0.29205 0.41726 0.22409 0.0
H1677 H 0.32665 0.41486 0.22123 0.0
H1678 H 0.26388 0.42198 0.25382 0.0
H1679 H 0.24794 0.40322 0.27805 0.0
C1680 C 0.21244 0.11092 0.16817 0.0
C1681 C 0.24015 0.11487 0.17193 0.0
C1682 C 0.23355 0.12119 0.2197 0.0
C1683 C 0.20579 0.1208 0.21549 0.0
N1684 N 0.16882 0.10679 0.18874 0.0
N1685 N 0.27714 0.11121 0.20181 0.0
C1686 C 0.19522 0.11273 0.19065 0.0
C1687 C 0.25066 0.11565 0.19804 0.0
N1688 N 0.20251 0.10634 0.14333 0.0
N1689 N 0.24353 0.12794 0.24407 0.0
H1690 H 0.28973 0.10638 0.18601 0.0
H1691 H 0.28592 0.10957 0.22048 0.0
H1692 H 0.23147 0.1312 0.26063 0.0
H1693 H 0.26357 0.13164 0.24755 0.0
H1694 H 0.18243 0.10726 0.13865 0.0
H1695 H 0.21436 0.10128 0.12718 0.0
H1696 H 0.1599 0.09893 0.17183 0.0
H1697 H 0.15612 0.10763 0.20511 0.0
C1698 C 0.38035 0.70579 0.65707 0.0
C1699 C 0.38881 0.73238 0.66008 0.0
C1700 C 0.397 0.72429 0.70744 0.0
C1701 C 0.38168 0.70065 0.70548 0.0
N1702 N 0.36046 0.66732 0.67824 0.0
N1703 N 0.40992 0.766 0.68643 0.0
C1704 C 0.37425 0.69067 0.68014 0.0
C1705 C 0.39923 0.74106 0.68473 0.0
N1706 N 0.37838 0.69508 0.63227 0.0
N1707 N 0.40869 0.73095 0.73101 0.0
H1708 H 0.41292 0.77776 0.66955 0.0
H1709 H 0.41521 0.77518 0.70421 0.0
H1710 H 0.40704 0.71917 0.74795 0.0
H1711 H 0.42172 0.74686 0.73331 0.0
H1712 H 0.37457 0.67499 0.62888 0.0
H1713 H 0.38369 0.70575 0.61528 0.0
H1714 H 0.35159 0.66075 0.66071 0.0
H1715 H 0.35691 0.65511 0.69464 0.0
C1716 C 0.80506 0.88265 0.18623 0.0
C1717 C 0.79362 0.88137 0.21192 0.0
C1718 C 0.75041 0.89305 0.19321 0.0
C1719 C 0.76033 0.88739 0.16742 0.0
N1720 N 0.79841 0.88115 0.13853 0.0
N1721 N 0.75636 0.88864 0.24096 0.0
C1722 C 0.78819 0.88435 0.16352 0.0
C1723 C 0.76664 0.88812 0.2158 0.0
N1724 N 0.83205 0.8821 0.18375 0.0
N1725 N 0.72538 0.90318 0.1958 0.0
H1726 H 0.7681 0.88613 0.25787 0.0
H1727 H 0.7362 0.8905 0.24509 0.0
H1728 H 0.71361 0.90753 0.17927 0.0
H1729 H 0.71739 0.90968 0.21376 0.0
H1730 H 0.84213 0.88499 0.1659 0.0
H1731 H 0.84453 0.88116 0.20026 0.0
H1732 H 0.81763 0.87459 0.13477 0.0
H1733 H 0.78775 0.8846 0.12122 0.0
C1734 C 0.61575 0.30525 0.68087 0.0
C1735 C 0.6182 0.29462 0.70691 0.0
C1736 C 0.60583 0.25069 0.69041 0.0
C1737 C 0.60999 0.25977 0.6641 0.0
N1738 N 0.61099 0.29665 0.63344 0.0
N1739 N 0.61437 0.25765 0.73725 0.0
C1740 C 0.61209 0.2875 0.65898 0.0
C1741 C 0.61228 0.26755 0.71201 0.0
N1742 N 0.61707 0.3322 0.67737 0.0
N1743 N 0.59607 0.22563 0.69439 0.0
H1744 H 0.61878 0.26961 0.75361 0.0
H1745 H 0.61335 0.23746 0.74177 0.0
H1746 H 0.5909 0.21332 0.67846 0.0
H1747 H 0.59063 0.21823 0.71296 0.0
H1748 H 0.61452 0.34186 0.65927 0.0
H1749 H 0.61932 0.3453 0.69329 0.0
H1750 H 0.61505 0.31613 0.6278 0.0
H1751 H 0.60505 0.28474 0.61761 0.0
C1752 C 0.19273 0.88534 0.81631 0.0
C1753 C 0.20463 0.88719 0.79087 0.0
C1754 C 0.24706 0.89873 0.81123 0.0
C1755 C 0.23698 0.88992 0.83601 0.0
N1756 N 0.19887 0.88217 0.86421 0.0
N1757 N 0.24143 0.90008 0.76324 0.0
C1758 C 0.20919 0.88619 0.83938 0.0
C1759 C 0.23115 0.896 0.78807 0.0
N1760 N 0.16582 0.88227 0.81802 0.0
N1761 N 0.27203 0.90928 0.81018 0.0
H1762 H 0.22979 0.89913 0.74609 0.0
H1763 H 0.26142 0.90371 0.75946 0.0
H1764 H 0.28353 0.91166 0.8273 0.0
H1765 H 0.28033 0.91773 0.7932 0.0
H1766 H 0.15516 0.88159 0.83572 0.0
H1767 H 0.15377 0.88213 0.80114 0.0
H1768 H 0.17937 0.87653 0.86796 0.0
H1769 H 0.20973 0.88506 0.88154 0.0
C1770 C 0.62151 0.74319 0.27804 0.0
C1771 C 0.62052 0.71524 0.28185 0.0
C1772 C 0.6076 0.72179 0.3286 0.0
C1773 C 0.61204 0.74954 0.32527 0.0
N1774 N 0.61052 0.78679 0.29552 0.0
N1775 N 0.60667 0.67769 0.30824 0.0
C1776 C 0.61456 0.76019 0.29937 0.0
C1777 C 0.61132 0.70444 0.30632 0.0
N1778 N 0.63024 0.75353 0.25443 0.0
N1779 N 0.6008 0.71204 0.35303 0.0
H1780 H 0.61008 0.66457 0.29253 0.0
H1781 H 0.59822 0.66849 0.32472 0.0
H1782 H 0.59446 0.72422 0.3685 0.0
H1783 H 0.60075 0.69195 0.35796 0.0
H1784 H 0.63444 0.77363 0.25163 0.0
H1785 H 0.63487 0.74178 0.23798 0.0
H1786 H 0.60999 0.79572 0.27683 0.0
H1787 H 0.60488 0.79931 0.31112 0.0
C1788 C 0.80559 0.12316 0.81982 0.0
C1789 C 0.79597 0.11696 0.79422 0.0
C1790 C 0.75314 0.10393 0.81312 0.0
C1791 C 0.76058 0.11653 0.83722 0.0
N1792 N 0.79521 0.13447 0.86551 0.0
N1793 N 0.76416 0.09413 0.76697 0.0
C1794 C 0.78746 0.12431 0.84151 0.0
C1795 C 0.77092 0.10457 0.79111 0.0
N1796 N 0.8321 0.1279 0.82304 0.0
N1797 N 0.72894 0.09169 0.81158 0.0
H1798 H 0.7778 0.0926 0.75143 0.0
H1799 H 0.7455 0.08671 0.76222 0.0
H1800 H 0.71621 0.09045 0.82795 0.0
H1801 H 0.722 0.08145 0.79503 0.0
H1802 H 0.84125 0.13072 0.84137 0.0
H1803 H 0.84537 0.12682 0.80711 0.0
H1804 H 0.81367 0.14306 0.86898 0.0
H1805 H 0.78304 0.13505 0.88219 0.0
C1806 C 0.39403 0.3007 0.31305 0.0
C1807 C 0.3899 0.29044 0.28735 0.0
C1808 C 0.39004 0.24526 0.30487 0.0
C1809 C 0.38656 0.2559 0.3309 0.0
N1810 N 0.39102 0.29371 0.3606 0.0
N1811 N 0.39898 0.25431 0.25808 0.0
C1812 C 0.39101 0.28356 0.33542 0.0
C1813 C 0.39258 0.26296 0.28296 0.0
N1814 N 0.40242 0.32634 0.31559 0.0
N1815 N 0.39004 0.21831 0.30124 0.0
H1816 H 0.40309 0.2678 0.24281 0.0
H1817 H 0.40275 0.23455 0.25321 0.0
H1818 H 0.39054 0.20501 0.31719 0.0
H1819 H 0.38932 0.20914 0.28269 0.0
H1820 H 0.4076 0.33517 0.33358 0.0
H1821 H 0.40745 0.33749 0.29882 0.0
H1822 H 0.39083 0.31401 0.36473 0.0
H1823 H 0.39065 0.28201 0.37763 0.0
C1824 C 0.18111 0.19624 0.11814 0.0
C1825 C 0.20689 0.20751 0.11667 0.0
C1826 C 0.18787 0.25085 0.10543 0.0
C1827 C 0.1624 0.24052 0.11147 0.0
N1828 N 0.13392 0.20207 0.11049 0.0
N1829 N 0.2357 0.24363 0.10415 0.0
C1830 C 0.15866 0.2127 0.11353 0.0
C1831 C 0.21055 0.23417 0.10816 0.0
N1832 N 0.17817 0.17017 0.12527 0.0
N1833 N 0.18991 0.27676 0.09739 0.0
H1834 H 0.25245 0.23151 0.10553 0.0
H1835 H 0.24028 0.26322 0.09935 0.0
H1836 H 0.17311 0.28857 0.09446 0.0
H1837 H 0.20756 0.28618 0.09223 0.0
H1838 H 0.16001 0.16154 0.13015 0.0
H1839 H 0.19434 0.1574 0.12739 0.0
H1840 H 0.13019 0.1817 0.10987 0.0
H1841 H 0.11749 0.21358 0.10554 0.0
C1842 C 0.21155 0.76758 0.88739 0.0
C1843 C 0.208 0.79109 0.87198 0.0
C1844 C 0.15985 0.7847 0.87409 0.0
C1845 C 0.1638 0.75852 0.88334 0.0
N1846 N 0.19235 0.72582 0.90285 0.0
N1847 N 0.17828 0.82109 0.84892 0.0
C1848 C 0.18938 0.75045 0.89174 0.0
C1849 C 0.18199 0.79952 0.865 0.0
N1850 N 0.23608 0.76123 0.89707 0.0
N1851 N 0.13512 0.79565 0.8745 0.0
H1852 H 0.19384 0.83277 0.84192 0.0
H1853 H 0.15989 0.82601 0.8408 0.0
H1854 H 0.11881 0.78578 0.88259 0.0
H1855 H 0.13161 0.81562 0.87014 0.0
H1856 H 0.23947 0.74591 0.91058 0.0
H1857 H 0.25311 0.77215 0.89268 0.0
H1858 H 0.2106 0.71697 0.90674 0.0
H1859 H 0.17601 0.71393 0.90767 0.0
C1860 C 0.71972 0.70767 0.39627 0.0
C1861 C 0.6974 0.70731 0.37903 0.0
C1862 C 0.7013 0.65885 0.37513 0.0
C1863 C 0.72704 0.66045 0.38616 0.0
N1864 N 0.75972 0.68488 0.41083 0.0
N1865 N 0.66549 0.68235 0.35336 0.0
C1866 C 0.73564 0.68437 0.39837 0.0
C1867 C 0.68753 0.68274 0.36916 0.0
N1868 N 0.72598 0.73024 0.41007 0.0
N1869 N 0.69003 0.63459 0.37056 0.0
H1870 H 0.65403 0.69925 0.34994 0.0
H1871 H 0.65934 0.66569 0.34268 0.0
H1872 H 0.69921 0.61689 0.37611 0.0
H1873 H 0.67047 0.63212 0.36436 0.0
H1874 H 0.74066 0.73108 0.42459 0.0
H1875 H 0.71503 0.74775 0.40866 0.0
H1876 H 0.76903 0.70219 0.41733 0.0
H1877 H 0.77077 0.66758 0.41395 0.0
C1878 C 0.81215 0.20369 0.85565 0.0
C1879 C 0.7886 0.20983 0.86977 0.0
C1880 C 0.8122 0.24584 0.89289 0.0
C1881 C 0.83525 0.23958 0.87811 0.0
N1882 N 0.86012 0.20654 0.85473 0.0
N1883 N 0.76709 0.23434 0.90532 0.0
C1884 C 0.8362 0.21635 0.86265 0.0
C1885 C 0.78899 0.2298 0.88994 0.0
N1886 N 0.8107 0.1868 0.83454 0.0
N1887 N 0.81233 0.26803 0.90858 0.0
H1888 H 0.74885 0.22519 0.90212 0.0
H1889 H 0.76721 0.24649 0.92208 0.0
H1890 H 0.82966 0.27899 0.91187 0.0
H1891 H 0.79552 0.27597 0.91762 0.0
H1892 H 0.8263 0.18334 0.82131 0.0
H1893 H 0.8263 0.18334 0.82131 0.0
H1894 H 0.86225 0.18807 0.84553 0.0
H1895 H 0.87785 0.2155 0.86057 0.0
C1896 C 0.30422 0.31766 0.38432 0.0
C1897 C 0.29341 0.29197 0.38773 0.0
C1898 C 0.2502 0.31096 0.39871 0.0
C1899 C 0.25935 0.33592 0.38915 0.0
N1900 N 0.29638 0.3651 0.37929 0.0
N1901 N 0.26062 0.26469 0.40886 0.0
C1902 C 0.28699 0.34015 0.38476 0.0
C1903 C 0.26777 0.2888 0.3986 0.0
N1904 N 0.33098 0.32013 0.3807 0.0
N1905 N 0.22446 0.30859 0.40699 0.0
H1906 H 0.27419 0.24911 0.41044 0.0
H1907 H 0.2424 0.26063 0.41771 0.0
H1908 H 0.21198 0.32509 0.40871 0.0
H1909 H 0.21544 0.29073 0.41223 0.0
H1910 H 0.34109 0.3381 0.37911 0.0
H1911 H 0.34346 0.30359 0.38125 0.0
H1912 H 0.31572 0.36926 0.3734 0.0
H1913 H 0.28492 0.3822 0.38082 0.0
C1914 C 0.81018 0.79954 0.13863 0.0
C1915 C 0.78538 0.79203 0.1274 0.0
C1916 C 0.80605 0.7517 0.10917 0.0
C1917 C 0.83035 0.75922 0.12116 0.0
N1918 N 0.85782 0.79484 0.13669 0.0
N1919 N 0.76106 0.76409 0.09679 0.0
C1920 C 0.83314 0.78473 0.13227 0.0
C1921 C 0.78382 0.76928 0.11061 0.0
N1922 N 0.81184 0.82002 0.1564 0.0
N1923 N 0.80413 0.7273 0.09738 0.0
H1924 H 0.74398 0.77566 0.09851 0.0
H1925 H 0.75958 0.74932 0.08234 0.0
H1926 H 0.82064 0.71496 0.09501 0.0
H1927 H 0.78638 0.71907 0.09071 0.0
H1928 H 0.82885 0.82395 0.16754 0.0
H1929 H 0.7957 0.83172 0.16165 0.0
H1930 H 0.86095 0.8146 0.14214 0.0
H1931 H 0.87491 0.78446 0.13137 0.0
C1932 C 0.71685 0.32816 0.60564 0.0
C1933 C 0.74407 0.32478 0.61198 0.0
C1934 C 0.73665 0.27753 0.62146 0.0
C1935 C 0.70895 0.28206 0.62001 0.0
N1936 N 0.67211 0.30991 0.60777 0.0
N1937 N 0.78094 0.29455 0.61288 0.0
C1938 C 0.69888 0.30676 0.61069 0.0
C1939 C 0.75428 0.29875 0.61562 0.0
N1940 N 0.70851 0.3511 0.59375 0.0
N1941 N 0.74599 0.25331 0.62961 0.0
H1942 H 0.79387 0.30981 0.60726 0.0
H1943 H 0.78976 0.27584 0.61335 0.0
H1944 H 0.73364 0.23692 0.6328 0.0
H1945 H 0.76576 0.2497 0.63438 0.0
H1946 H 0.68912 0.35459 0.58763 0.0
H1947 H 0.72169 0.36547 0.58679 0.0
H1948 H 0.66287 0.32805 0.60417 0.0
H1949 H 0.65883 0.2941 0.60976 0.0
C1950 C 0.28248 0.66208 0.60635 0.0
C1951 C 0.2547 0.66709 0.60847 0.0
C1952 C 0.2631 0.71518 0.60591 0.0
C1953 C 0.29029 0.7099 0.60996 0.0
N1954 N 0.32653 0.68103 0.60009 0.0
N1955 N 0.21837 0.69732 0.60126 0.0
C1956 C 0.30025 0.68408 0.60579 0.0
C1957 C 0.24497 0.69344 0.60501 0.0
N1958 N 0.2921 0.63669 0.60624 0.0
N1959 N 0.2551 0.74087 0.60237 0.0
H1960 H 0.20528 0.68143 0.59855 0.0
H1961 H 0.20927 0.71582 0.59992 0.0
H1962 H 0.26882 0.75634 0.60044 0.0
H1963 H 0.23552 0.74689 0.60003 0.0
H1964 H 0.31204 0.6321 0.6091 0.0
H1965 H 0.28036 0.61997 0.60319 0.0
H1966 H 0.33517 0.66304 0.59461 0.0
H1967 H 0.33898 0.69748 0.59778 0.0
C1968 C 0.88724 0.83163 0.78085 0.0
C1969 C 0.88256 0.82884 0.75309 0.0
C1970 C 0.87462 0.78118 0.75852 0.0
C1971 C 0.87647 0.78426 0.78643 0.0
N1972 N 0.89386 0.80925 0.82331 0.0
N1973 N 0.88512 0.79969 0.71529 0.0
C1974 C 0.88595 0.80851 0.79737 0.0
C1975 C 0.88098 0.80301 0.74193 0.0
N1976 N 0.89207 0.8561 0.79154 0.0
N1977 N 0.86568 0.75782 0.74785 0.0
H1978 H 0.89042 0.81562 0.70301 0.0
H1979 H 0.88613 0.78111 0.70616 0.0
H1980 H 0.86126 0.74115 0.75939 0.0
H1981 H 0.86104 0.75556 0.72778 0.0
H1982 H 0.89179 0.85993 0.8119 0.0
H1983 H 0.89635 0.87276 0.78004 0.0
H1984 H 0.90281 0.82569 0.83215 0.0
H1985 H 0.89383 0.79232 0.8353 0.0
C1986 C 0.65957 0.39195 0.28711 0.0
C1987 C 0.66443 0.39105 0.2594 0.0
C1988 C 0.71252 0.39134 0.26768 0.0
C1989 C 0.70717 0.38597 0.29484 0.0
N1990 N 0.67586 0.38721 0.33137 0.0
N1991 N 0.69456 0.39897 0.22326 0.0
C1992 C 0.681 0.38845 0.30485 0.0
C1993 C 0.69078 0.39408 0.24974 0.0
N1994 N 0.63457 0.39574 0.29682 0.0
N1995 N 0.73827 0.393 0.25923 0.0
H1996 H 0.67862 0.40243 0.21044 0.0
H1997 H 0.71295 0.40066 0.21405 0.0
H1998 H 0.75428 0.39157 0.2723 0.0
H1999 H 0.74408 0.39645 0.23969 0.0
H2000 H 0.63042 0.39575 0.31718 0.0
H2001 H 0.6185 0.40063 0.28481 0.0
H2002 H 0.69066 0.38545 0.34575 0.0
H2003 H 0.69066 0.38545 0.34575 0.0
C2004 C 0.13381 0.16256 0.78575 0.0
C2005 C 0.11625 0.16199 0.76404 0.0
C2006 C 0.10111 0.20694 0.77553 0.0
C2007 C 0.123 0.20941 0.79347 0.0
N2008 N 0.16007 0.18782 0.816 0.0
N2009 N 0.08098 0.18186 0.73924 0.0
C2010 C 0.13921 0.18675 0.7987 0.0
C2011 C 0.09878 0.18349 0.75965 0.0
N2012 N 0.1462 0.14011 0.7942 0.0
N2013 N 0.08307 0.22706 0.77292 0.0
H2014 H 0.07824 0.16428 0.72848 0.0
H2015 H 0.06964 0.19778 0.7325 0.0
H2016 H 0.08547 0.24585 0.7812 0.0
H2017 H 0.06493 0.22477 0.76328 0.0
H2018 H 0.14212 0.12131 0.7864 0.0
H2019 H 0.14212 0.12131 0.7864 0.0
H2020 H 0.17268 0.17164 0.81919 0.0
H2021 H 0.16529 0.20464 0.82673 0.0
C2022 C 0.33417 0.61089 0.28529 0.0
C2023 C 0.32941 0.61159 0.25751 0.0
C2024 C 0.28141 0.61114 0.26528 0.0
C2025 C 0.28631 0.61627 0.29257 0.0
N2026 N 0.31636 0.61841 0.32965 0.0
N2027 N 0.2999 0.60157 0.22153 0.0
C2028 C 0.31242 0.61477 0.30301 0.0
C2029 C 0.30331 0.60801 0.24772 0.0
N2030 N 0.35914 0.60602 0.29461 0.0
N2031 N 0.25588 0.61086 0.25612 0.0
H2032 H 0.31604 0.59841 0.20886 0.0
H2033 H 0.28168 0.59724 0.21285 0.0
H2034 H 0.2396 0.61233 0.26884 0.0
H2035 H 0.25064 0.60982 0.23614 0.0
H2036 H 0.36369 0.60366 0.31465 0.0
H2037 H 0.37499 0.60147 0.28215 0.0
H2038 H 0.33492 0.62072 0.3384 0.0
H2039 H 0.30063 0.61999 0.34306 0.0
C2040 C 0.88837 0.16218 0.21445 0.0
C2041 C 0.88576 0.16626 0.24237 0.0
C2042 C 0.89052 0.21439 0.23584 0.0
C2043 C 0.8858 0.2104 0.20852 0.0
N2044 N 0.89349 0.18275 0.17077 0.0
N2045 N 0.89156 0.19514 0.28016 0.0
C2046 C 0.8889 0.18484 0.19741 0.0
C2047 C 0.88968 0.19211 0.25321 0.0
N2048 N 0.88929 0.13702 0.20427 0.0
N2049 N 0.89663 0.23931 0.24469 0.0
H2050 H 0.89319 0.17886 0.29296 0.0
H2051 H 0.8913 0.21344 0.28983 0.0
H2052 H 0.89904 0.25522 0.23154 0.0
H2053 H 0.90157 0.24386 0.26426 0.0
H2054 H 0.88817 0.13266 0.18408 0.0
H2055 H 0.89148 0.12014 0.21601 0.0
H2056 H 0.89722 0.165 0.16083 0.0
H2057 H 0.89625 0.1997 0.1591 0.0
C2058 C 0.27732 0.37301 0.73849 0.0
C2059 C 0.28137 0.37695 0.71094 0.0
C2060 C 0.32808 0.38821 0.71877 0.0
C2061 C 0.32465 0.38121 0.74601 0.0
N2062 N 0.29427 0.38019 0.783 0.0
N2063 N 0.30666 0.39906 0.67686 0.0
C2064 C 0.29855 0.37808 0.75624 0.0
C2065 C 0.30551 0.3881 0.70167 0.0
N2066 N 0.25342 0.36389 0.74762 0.0
N2067 N 0.35263 0.39402 0.70884 0.0
H2068 H 0.29011 0.40014 0.66451 0.0
H2069 H 0.323 0.40957 0.6697 0.0
H2070 H 0.369 0.39812 0.72069 0.0
H2071 H 0.35676 0.39479 0.68855 0.0
H2072 H 0.25035 0.35754 0.76712 0.0
H2073 H 0.23689 0.36158 0.73533 0.0
H2074 H 0.27546 0.38 0.79161 0.0
H2075 H 0.30952 0.38516 0.79617 0.0
C2076 C 0.11196 0.83485 0.2104 0.0
C2077 C 0.10921 0.83188 0.23834 0.0
C2078 C 0.11073 0.78348 0.23426 0.0
C2079 C 0.11691 0.78641 0.20695 0.0
N2080 N 0.1161 0.81305 0.16724 0.0
N2081 N 0.09482 0.80457 0.27467 0.0
C2082 C 0.1149 0.8116 0.19436 0.0
C2083 C 0.10452 0.80643 0.24937 0.0
N2084 N 0.11277 0.85971 0.19951 0.0
N2085 N 0.11241 0.75903 0.24605 0.0
H2086 H 0.0901 0.82151 0.28576 0.0
H2087 H 0.08909 0.78671 0.28351 0.0
H2088 H 0.11658 0.74176 0.23536 0.0
H2089 H 0.11117 0.75605 0.26651 0.0
H2090 H 0.11754 0.86361 0.17976 0.0
H2091 H 0.1083 0.87675 0.21039 0.0
H2092 H 0.11339 0.83042 0.15633 0.0
H2093 H 0.11803 0.79613 0.15537 0.0
C2094 C 0.71707 0.62324 0.73418 0.0
C2095 C 0.71259 0.61978 0.7066 0.0
C2096 C 0.66584 0.60908 0.71518 0.0
C2097 C 0.66993 0.61517 0.74255 0.0
N2098 N 0.70096 0.61512 0.77887 0.0
N2099 N 0.68622 0.59929 0.67241 0.0
C2100 C 0.69621 0.61773 0.75225 0.0
C2101 C 0.68809 0.60926 0.69758 0.0
N2102 N 0.74088 0.63276 0.74307 0.0
N2103 N 0.64094 0.6043 0.70565 0.0
H2104 H 0.70251 0.59848 0.65964 0.0
H2105 H 0.66955 0.58934 0.66526 0.0
H2106 H 0.62456 0.60108 0.7178 0.0
H2107 H 0.63644 0.60388 0.68544 0.0
H2108 H 0.74419 0.63858 0.76268 0.0
H2109 H 0.75692 0.6363 0.73043 0.0
H2110 H 0.71996 0.61482 0.78704 0.0
H2111 H 0.68585 0.61029 0.79228 0.0
C2112 C 0.78816 0.88616 0.83805 0.0
C2113 C 0.76026 0.88864 0.83537 0.0
C2114 C 0.76433 0.8909 0.78692 0.0
C2115 C 0.79114 0.88289 0.78942 0.0
N2116 N 0.83059 0.87845 0.81586 0.0
N2117 N 0.72395 0.90501 0.80943 0.0
C2118 C 0.80382 0.88269 0.81462 0.0
C2119 C 0.74916 0.89511 0.81035 0.0
N2120 N 0.79938 0.88688 0.86277 0.0
N2121 N 0.75311 0.89288 0.76224 0.0
H2122 H 0.71306 0.90855 0.82677 0.0
H2123 H 0.71483 0.91188 0.79218 0.0
H2124 H 0.76404 0.8907 0.74473 0.0
H2125 H 0.73293 0.89582 0.75897 0.0
H2126 H 0.81951 0.88458 0.86655 0.0
H2127 H 0.78861 0.89182 0.87973 0.0
H2128 H 0.84145 0.87674 0.83334 0.0
H2129 H 0.84229 0.8769 0.79881 0.0
C2130 C 0.61269 0.30362 0.31544 0.0
C2131 C 0.61381 0.29361 0.2891 0.0
C2132 C 0.60485 0.24869 0.30576 0.0
C2133 C 0.60822 0.25827 0.33212 0.0
N2134 N 0.604 0.29585 0.36184 0.0
N2135 N 0.60255 0.25874 0.25841 0.0
C2136 C 0.60806 0.28602 0.33689 0.0
C2137 C 0.60688 0.26676 0.28399 0.0
N2138 N 0.61634 0.3299 0.32077 0.0
N2139 N 0.60062 0.22211 0.30186 0.0
H2140 H 0.60363 0.27194 0.24246 0.0
H2141 H 0.59613 0.23983 0.253 0.0
H2142 H 0.59718 0.20915 0.31774 0.0
H2143 H 0.60055 0.21285 0.28336 0.0
H2144 H 0.6196 0.34423 0.3061 0.0
H2145 H 0.6196 0.34423 0.3061 0.0
H2146 H 0.59848 0.28391 0.37784 0.0
H2147 H 0.60424 0.31624 0.3659 0.0
C2148 C 0.20323 0.09945 0.80033 0.0
C2149 C 0.21315 0.11262 0.77746 0.0
C2150 C 0.25603 0.1172 0.79939 0.0
C2151 C 0.24333 0.11308 0.82428 0.0
N2152 N 0.20641 0.09323 0.848 0.0
N2153 N 0.25071 0.12926 0.75299 0.0
C2154 C 0.21756 0.10151 0.82469 0.0
C2155 C 0.24031 0.11958 0.77617 0.0
N2156 N 0.18067 0.08455 0.79858 0.0
N2157 N 0.28308 0.11871 0.79823 0.0
H2158 H 0.23991 0.1295 0.73526 0.0
H2159 H 0.26955 0.13769 0.75159 0.0
H2160 H 0.29486 0.11563 0.81504 0.0
H2161 H 0.29371 0.12003 0.7805 0.0
H2162 H 0.17355 0.07264 0.81397 0.0
H2163 H 0.1707 0.08184 0.78067 0.0
H2164 H 0.1863 0.0888 0.84999 0.0
H2165 H 0.21727 0.09033 0.86532 0.0
C2166 C 0.39642 0.74831 0.30652 0.0
C2167 C 0.3893 0.7397 0.33238 0.0
C2168 C 0.3791 0.69547 0.31554 0.0
C2169 C 0.38306 0.70492 0.28928 0.0
N2170 N 0.40611 0.73584 0.26087 0.0
N2171 N 0.38825 0.7025 0.36235 0.0
C2172 C 0.39547 0.72987 0.2851 0.0
C2173 C 0.38545 0.71232 0.33727 0.0
N2174 N 0.40298 0.77436 0.30247 0.0
N2175 N 0.36842 0.67086 0.31968 0.0
H2176 H 0.39385 0.71449 0.37831 0.0
H2177 H 0.38793 0.68219 0.36658 0.0
H2178 H 0.36442 0.65781 0.30409 0.0
H2179 H 0.36251 0.66408 0.33835 0.0
H2180 H 0.40538 0.78282 0.28371 0.0
H2181 H 0.40527 0.78765 0.31829 0.0
H2182 H 0.41686 0.75313 0.25702 0.0
H2183 H 0.40667 0.722 0.24545 0.0
C2184 C 0.78486 0.11364 0.15971 0.0
C2185 C 0.75695 0.11237 0.1636 0.0
C2186 C 0.76308 0.1078 0.21166 0.0
C2187 C 0.79013 0.11459 0.20822 0.0
N2188 N 0.82864 0.11702 0.18031 0.0
N2189 N 0.72081 0.09732 0.1907 0.0
C2190 C 0.80169 0.1149 0.18252 0.0
C2191 C 0.74657 0.10562 0.18888 0.0
N2192 N 0.79502 0.11428 0.13451 0.0
N2193 N 0.75308 0.10492 0.23676 0.0
H2194 H 0.70888 0.09513 0.17385 0.0
H2195 H 0.71198 0.0905 0.20814 0.0
H2196 H 0.76523 0.10523 0.25353 0.0
H2197 H 0.73302 0.10272 0.24112 0.0
H2198 H 0.81502 0.11643 0.12996 0.0
H2199 H 0.78344 0.11135 0.11765 0.0
H2200 H 0.83904 0.11816 0.16249 0.0
H2201 H 0.84094 0.11669 0.19699 0.0
C2202 C 0.39078 0.26233 0.71664 0.0
C2203 C 0.38251 0.28894 0.71304 0.0
C2204 C 0.3844 0.28332 0.66464 0.0
C2205 C 0.3856 0.25532 0.66867 0.0
N2206 N 0.39657 0.21846 0.69703 0.0
N2207 N 0.37717 0.327 0.68472 0.0
C2208 C 0.3914 0.24502 0.69429 0.0
C2209 C 0.38157 0.30026 0.68727 0.0
N2210 N 0.39788 0.2539 0.74146 0.0
N2211 N 0.38526 0.29351 0.63944 0.0
H2212 H 0.37597 0.33963 0.70116 0.0
H2213 H 0.37464 0.33686 0.66673 0.0
H2214 H 0.38847 0.28186 0.62267 0.0
H2215 H 0.38492 0.3137 0.63498 0.0
H2216 H 0.40538 0.2351 0.7457 0.0
H2217 H 0.39828 0.26684 0.75766 0.0
H2218 H 0.39837 0.20874 0.7152 0.0
H2219 H 0.39894 0.20599 0.68058 0.0
C2220 C 0.23334 0.88486 0.21426 0.0
C2221 C 0.20572 0.8826 0.20984 0.0
C2222 C 0.21202 0.88988 0.16207 0.0
C2223 C 0.23992 0.88833 0.16618 0.0
N2224 N 0.27624 0.89692 0.19589 0.0
N2225 N 0.1682 0.89286 0.18236 0.0
C2226 C 0.2502 0.89027 0.19234 0.0
C2227 C 0.19484 0.88845 0.18457 0.0
N2228 N 0.24349 0.88059 0.23911 0.0
N2229 N 0.2019 0.89166 0.13696 0.0
H2230 H 0.1557 0.89272 0.19892 0.0
H2231 H 0.15896 0.89915 0.16496 0.0
H2232 H 0.21338 0.89654 0.12048 0.0
H2233 H 0.18196 0.88862 0.13246 0.0
H2234 H 0.26371 0.87881 0.24299 0.0
H2235 H 0.23147 0.87761 0.25577 0.0
H2236 H 0.28472 0.90047 0.21444 0.0
H2237 H 0.28858 0.90153 0.17982 0.0
C2238 C 0.6082 0.7121 0.65984 0.0
C2239 C 0.60552 0.73986 0.66467 0.0
C2240 C 0.59896 0.73097 0.7121 0.0
C2241 C 0.60938 0.70521 0.70805 0.0
N2242 N 0.61697 0.66824 0.67897 0.0
N2243 N 0.59218 0.77523 0.69395 0.0
C2244 C 0.61144 0.69468 0.68205 0.0
C2245 C 0.59837 0.749 0.69038 0.0
N2246 N 0.60848 0.70267 0.63435 0.0
N2247 N 0.58961 0.73789 0.73662 0.0
H2248 H 0.58982 0.78824 0.67793 0.0
H2249 H 0.58986 0.78415 0.71249 0.0
H2250 H 0.58919 0.7244 0.75239 0.0
H2251 H 0.58015 0.75581 0.74077 0.0
H2252 H 0.61034 0.6827 0.62931 0.0
H2253 H 0.60471 0.71463 0.61792 0.0
H2254 H 0.61995 0.65886 0.66079 0.0
H2255 H 0.61836 0.65535 0.69519 0.0
C2256 C 0.80664 0.74646 0.88953 0.0
C2257 C 0.83238 0.75509 0.88204 0.0
C2258 C 0.81491 0.79825 0.86879 0.0
C2259 C 0.78878 0.78922 0.87441 0.0
N2260 N 0.76006 0.75738 0.89609 0.0
N2261 N 0.86178 0.79257 0.87731 0.0
C2262 C 0.78476 0.76427 0.88711 0.0
C2263 C 0.83682 0.78214 0.8759 0.0
N2264 N 0.80323 0.72082 0.89791 0.0
N2265 N 0.81887 0.82177 0.85579 0.0
H2266 H 0.87797 0.78167 0.8841 0.0
H2267 H 0.8657 0.81283 0.87513 0.0
H2268 H 0.80341 0.83455 0.85087 0.0
H2269 H 0.83727 0.82754 0.84822 0.0
H2270 H 0.78482 0.71189 0.90086 0.0
H2271 H 0.81934 0.70824 0.9014 0.0
H2272 H 0.75627 0.74059 0.9076 0.0
H2273 H 0.74338 0.76934 0.89339 0.0
C2274 C 0.83895 0.21404 0.12 0.0
C2275 C 0.83538 0.24083 0.1128 0.0
C2276 C 0.78813 0.23188 0.10541 0.0
C2277 C 0.79081 0.20795 0.12028 0.0
N2278 N 0.81954 0.17634 0.14233 0.0
N2279 N 0.80746 0.275 0.09486 0.0
C2280 C 0.81649 0.19883 0.12745 0.0
C2281 C 0.81023 0.2495 0.10379 0.0
N2282 N 0.86365 0.20313 0.11953 0.0
N2283 N 0.76464 0.23794 0.09335 0.0
H2284 H 0.82383 0.28751 0.09223 0.0
H2285 H 0.7892 0.28386 0.09095 0.0
H2286 H 0.74824 0.22536 0.09395 0.0
H2287 H 0.76219 0.25414 0.08068 0.0
H2288 H 0.86685 0.18278 0.12204 0.0
H2289 H 0.88025 0.21388 0.11331 0.0
H2290 H 0.83772 0.17064 0.15043 0.0
H2291 H 0.80358 0.16457 0.14817 0.0
C2292 C 0.28721 0.33848 0.6234 0.0
C2293 C 0.26163 0.33544 0.61248 0.0
C2294 C 0.27181 0.28864 0.60291 0.0
C2295 C 0.29386 0.29032 0.62048 0.0
N2296 N 0.32208 0.31748 0.6484 0.0
N2297 N 0.23008 0.30848 0.58895 0.0
C2298 C 0.30161 0.31549 0.63077 0.0
C2299 C 0.25428 0.3108 0.60092 0.0
N2300 N 0.29794 0.3632 0.62649 0.0
N2301 N 0.26734 0.26598 0.5886 0.0
H2302 H 0.21779 0.32493 0.58586 0.0
H2303 H 0.2219 0.2904 0.58299 0.0
H2304 H 0.27961 0.24936 0.58963 0.0
H2305 H 0.25287 0.26449 0.57389 0.0
H2306 H 0.31756 0.36622 0.63235 0.0
H2307 H 0.28848 0.38034 0.61978 0.0
H2308 H 0.32592 0.33479 0.65917 0.0
H2309 H 0.33388 0.30135 0.65366 0.0
C2310 C 0.18619 0.79877 0.11488 0.0
C2311 C 0.21137 0.78882 0.1227 0.0
C2312 C 0.19537 0.74329 0.11694 0.0
C2313 C 0.16901 0.75294 0.1158 0.0
N2314 N 0.13963 0.78951 0.10577 0.0
N2315 N 0.24085 0.75172 0.12994 0.0
C2316 C 0.16448 0.78063 0.11189 0.0
C2317 C 0.21636 0.76108 0.12291 0.0
N2318 N 0.18323 0.82547 0.11051 0.0
N2319 N 0.20007 0.71694 0.1122 0.0
H2320 H 0.25697 0.7642 0.13368 0.0
H2321 H 0.24482 0.73171 0.13355 0.0
H2322 H 0.18482 0.70388 0.10693 0.0
H2323 H 0.219 0.70878 0.11067 0.0
H2324 H 0.16602 0.83429 0.10331 0.0
H2325 H 0.19881 0.83897 0.11277 0.0
H2326 H 0.13399 0.8094 0.10596 0.0
H2327 H 0.12454 0.77688 0.09946 0.0
C2328 C 0.74089 0.6914 0.60002 0.0
C2329 C 0.73366 0.66602 0.60996 0.0
C2330 C 0.69291 0.68425 0.62842 0.0
C2331 C 0.70036 0.71003 0.61952 0.0
N2332 N 0.72732 0.73655 0.58972 0.0
N2333 N 0.69772 0.63687 0.62218 0.0
C2334 C 0.72288 0.71308 0.6027 0.0
C2335 C 0.70794 0.66193 0.62027 0.0
N2336 N 0.76542 0.69485 0.58896 0.0
N2337 N 0.67212 0.68098 0.6455 0.0
H2338 H 0.7077 0.62017 0.61511 0.0
H2339 H 0.67804 0.63317 0.62747 0.0
H2340 H 0.65982 0.69656 0.65123 0.0
H2341 H 0.66849 0.66313 0.65544 0.0
H2342 H 0.77343 0.71341 0.58435 0.0
H2343 H 0.77814 0.67886 0.58531 0.0
H2344 H 0.74216 0.73906 0.57551 0.0
H2345 H 0.71474 0.75289 0.59129 0.0
C2346 C 0.18271 0.25397 0.8918 0.0
C2347 C 0.1574 0.2447 0.88386 0.0
C2348 C 0.17562 0.19972 0.87871 0.0
C2349 C 0.20141 0.21076 0.8797 0.0
N2350 N 0.2304 0.24727 0.89053 0.0
N2351 N 0.12884 0.20777 0.87159 0.0
C2352 C 0.20524 0.23747 0.8878 0.0
C2353 C 0.15331 0.21709 0.87875 0.0
N2354 N 0.18493 0.27869 0.90288 0.0
N2355 N 0.17259 0.17275 0.87687 0.0
H2356 H 0.11158 0.21903 0.87239 0.0
H2357 H 0.12564 0.18889 0.8637 0.0
H2358 H 0.18874 0.15978 0.87614 0.0
H2359 H 0.15432 0.16314 0.87829 0.0
H2360 H 0.20243 0.28615 0.91098 0.0
H2361 H 0.16836 0.29072 0.90622 0.0
H2362 H 0.23472 0.2673 0.89357 0.0
H2363 H 0.24718 0.23526 0.88873 0.0
C2364 C 0.26711 0.71486 0.39352 0.0
C2365 C 0.29365 0.71021 0.38589 0.0
C2366 C 0.28649 0.66215 0.39011 0.0
C2367 C 0.25869 0.66694 0.38944 0.0
N2368 N 0.22241 0.6972 0.39701 0.0
N2369 N 0.33082 0.68074 0.38449 0.0
C2370 C 0.24901 0.69317 0.39367 0.0
C2371 C 0.30409 0.68413 0.3868 0.0
N2372 N 0.25961 0.73981 0.40111 0.0
N2373 N 0.29593 0.63702 0.39418 0.0
H2374 H 0.34367 0.69698 0.38501 0.0
H2375 H 0.34015 0.66241 0.38239 0.0
H2376 H 0.2837 0.62101 0.39885 0.0
H2377 H 0.31596 0.63231 0.3957 0.0
H2378 H 0.24087 0.74446 0.40849 0.0
H2379 H 0.27323 0.75541 0.40245 0.0
H2380 H 0.2135 0.71588 0.39676 0.0
H2381 H 0.20913 0.68143 0.39957 0.0
C2382 C 0.74564 0.3084 0.39733 0.0
C2383 C 0.73568 0.33436 0.39257 0.0
C2384 C 0.69186 0.31608 0.38313 0.0
C2385 C 0.70267 0.29011 0.38398 0.0
N2386 N 0.73627 0.26114 0.40168 0.0
N2387 N 0.69657 0.36235 0.39264 0.0
C2388 C 0.72845 0.28611 0.39448 0.0
C2389 C 0.70803 0.33808 0.38965 0.0
N2390 N 0.77192 0.30525 0.40319 0.0
N2391 N 0.66607 0.31994 0.37598 0.0
H2392 H 0.70691 0.37929 0.39867 0.0
H2393 H 0.70691 0.37929 0.39867 0.0
H2394 H 0.65764 0.33887 0.37453 0.0
H2395 H 0.65348 0.30412 0.37153 0.0
H2396 H 0.78152 0.28692 0.4037 0.0
H2397 H 0.78427 0.32154 0.40694 0.0
H2398 H 0.75419 0.25693 0.41105 0.0
H2399 H 0.72345 0.24493 0.40058 0.0
loop_
_geom_bond_atom_site_label_1
_geom_bond_atom_site_label_2
_geom_bond_distance
_geom_bond_site_symmetry_2
_ccdc_geom_bond_type
Mg0 O1 2.028 . S
Mg0 O7 1.986 . S
Mg0 O9 2.114 . S
Mg0 O10 2.251 . S
Mg0 O13 2.010 . S
O1 Mg0 2.028 . S
O1 C4 1.250 . S
O2 Mg3 2.028 . S
O2 C4 1.248 . S
Mg3 O2 2.028 . S
Mg3 O8 2.032 . S
Mg3 O10 2.079 . S
C4 O1 1.250 . S
C4 O2 1.248 . S
C5 O6 1.264 . S
C5 O13 1.249 . S
O6 C5 1.264 . S
O7 Mg0 1.986 . S
O7 C11 1.246 . S
O8 Mg3 2.032 . S
O8 C11 1.259 . S
O9 Mg0 2.114 . S
O9 C12 1.252 . S
O10 Mg0 2.251 . S
O10 Mg3 2.079 . S
O10 C12 1.273 . S
C11 O7 1.246 . S
C11 O8 1.259 . S
C12 O9 1.252 . S
C12 O10 1.273 . S
O13 Mg0 2.010 . S
O13 C5 1.249 . S
Mg14 O15 2.028 . S
Mg14 O21 1.986 . S
Mg14 O23 2.114 . S
Mg14 O24 2.251 . S
Mg14 O27 2.010 . S
O15 Mg14 2.028 . S
O15 C18 1.250 . S
O16 Mg17 2.028 . S
O16 C18 1.248 . S
Mg17 O16 2.028 . S
Mg17 O22 2.032 . S
Mg17 O24 2.079 . S
C18 O15 1.250 . S
C18 O16 1.248 . S
C19 O20 1.264 . S
C19 O27 1.249 . S
O20 C19 1.264 . S
O21 Mg14 1.986 . S
O21 C25 1.246 . S
O22 Mg17 2.032 . S
O22 C25 1.259 . S
O23 Mg14 2.114 . S
O23 C26 1.252 . S
O24 Mg14 2.251 . S
O24 Mg17 2.079 . S
O24 C26 1.273 . S
C25 O21 1.246 . S
C25 O22 1.259 . S
C26 O23 1.252 . S
C26 O24 1.273 . S
O27 Mg14 2.010 . S
O27 C19 1.249 . S
Mg28 O29 2.028 . S
Mg28 O35 1.986 . S
Mg28 O37 2.114 . S
Mg28 O38 2.251 . S
Mg28 O41 2.010 . S
O29 Mg28 2.028 . S
O29 C32 1.250 . S
O30 Mg31 2.028 . S
O30 C32 1.248 . S
Mg31 O30 2.028 . S
Mg31 O36 2.032 . S
Mg31 O38 2.079 . S
C32 O29 1.250 . S
C32 O30 1.248 . S
C33 O34 1.264 . S
C33 O41 1.249 . S
O34 C33 1.264 . S
O35 Mg28 1.986 . S
O35 C39 1.246 . S
O36 Mg31 2.032 . S
O36 C39 1.259 . S
O37 Mg28 2.114 . S
O37 C40 1.252 . S
O38 Mg28 2.251 . S
O38 Mg31 2.079 . S
O38 C40 1.273 . S
C39 O35 1.246 . S
C39 O36 1.259 . S
C40 O37 1.252 . S
C40 O38 1.273 . S
O41 Mg28 2.010 . S
O41 C33 1.249 . S
Mg42 O43 2.028 . S
Mg42 O49 1.986 . S
Mg42 O51 2.114 . S
Mg42 O52 2.251 . S
Mg42 O55 2.010 . S
O43 Mg42 2.028 . S
O43 C46 1.250 . S
O44 Mg45 2.028 . S
O44 C46 1.248 . S
Mg45 O44 2.028 . S
Mg45 O50 2.032 . S
Mg45 O52 2.079 . S
C46 O43 1.250 . S
C46 O44 1.248 . S
C47 O48 1.264 . S
C47 O55 1.249 . S
O48 C47 1.264 . S
O49 Mg42 1.986 . S
O49 C53 1.246 . S
O50 Mg45 2.032 . S
O50 C53 1.259 . S
O51 Mg42 2.114 . S
O51 C54 1.252 . S
O52 Mg42 2.251 . S
O52 Mg45 2.079 . S
O52 C54 1.273 . S
C53 O49 1.246 . S
C53 O50 1.259 . S
C54 O51 1.252 . S
C54 O52 1.273 . S
O55 Mg42 2.010 . S
O55 C47 1.249 . S
Mg56 O57 2.028 . S
Mg56 O63 1.986 . S
Mg56 O65 2.114 . S
Mg56 O66 2.251 . S
Mg56 O69 2.010 . S
O57 Mg56 2.028 . S
O57 C60 1.250 . S
O58 Mg59 2.028 . S
O58 C60 1.248 . S
Mg59 O58 2.028 . S
Mg59 O64 2.032 . S
Mg59 O66 2.079 . S
C60 O57 1.250 . S
C60 O58 1.248 . S
C61 O62 1.264 . S
C61 O69 1.249 . S
O62 C61 1.264 . S
O63 Mg56 1.986 . S
O63 C67 1.246 . S
O64 Mg59 2.032 . S
O64 C67 1.259 . S
O65 Mg56 2.114 . S
O65 C68 1.252 . S
O66 Mg56 2.251 . S
O66 Mg59 2.079 . S
O66 C68 1.273 . S
C67 O63 1.246 . S
C67 O64 1.259 . S
C68 O65 1.252 . S
C68 O66 1.273 . S
O69 Mg56 2.010 . S
O69 C61 1.249 . S
Mg70 O71 2.028 . S
Mg70 O77 1.986 . S
Mg70 O79 2.114 . S
Mg70 O80 2.251 . S
Mg70 O83 2.010 . S
O71 Mg70 2.028 . S
O71 C74 1.250 . S
O72 Mg73 2.028 . S
O72 C74 1.248 . S
Mg73 O72 2.028 . S
Mg73 O78 2.032 . S
Mg73 O80 2.079 . S
C74 O71 1.250 . S
C74 O72 1.248 . S
C75 O76 1.264 . S
C75 O83 1.249 . S
O76 C75 1.264 . S
O77 Mg70 1.986 . S
O77 C81 1.246 . S
O78 Mg73 2.032 . S
O78 C81 1.259 . S
O79 Mg70 2.114 . S
O79 C82 1.252 . S
O80 Mg70 2.251 . S
O80 Mg73 2.079 . S
O80 C82 1.273 . S
C81 O77 1.246 . S
C81 O78 1.259 . S
C82 O79 1.252 . S
C82 O80 1.273 . S
O83 Mg70 2.010 . S
O83 C75 1.249 . S
Mg84 O85 2.028 . S
Mg84 O91 1.986 . S
Mg84 O93 2.114 . S
Mg84 O94 2.251 . S
Mg84 O97 2.010 . S
O85 Mg84 2.028 . S
O85 C88 1.250 . S
O86 Mg87 2.028 . S
O86 C88 1.248 . S
Mg87 O86 2.028 . S
Mg87 O92 2.032 . S
Mg87 O94 2.079 . S
C88 O85 1.250 . S
C88 O86 1.248 . S
C89 O90 1.264 . S
C89 O97 1.249 . S
O90 C89 1.264 . S
O91 Mg84 1.986 . S
O91 C95 1.246 . S
O92 Mg87 2.032 . S
O92 C95 1.259 . S
O93 Mg84 2.114 . S
O93 C96 1.252 . S
O94 Mg84 2.251 . S
O94 Mg87 2.079 . S
O94 C96 1.273 . S
C95 O91 1.246 . S
C95 O92 1.259 . S
C96 O93 1.252 . S
C96 O94 1.273 . S
O97 Mg84 2.010 . S
O97 C89 1.249 . S
Mg98 O99 2.028 . S
Mg98 O105 1.986 . S
Mg98 O107 2.114 . S
Mg98 O108 2.251 . S
Mg98 O111 2.010 . S
O99 Mg98 2.028 . S
O99 C102 1.250 . S
O100 Mg101 2.028 . S
O100 C102 1.248 . S
Mg101 O100 2.028 . S
Mg101 O106 2.032 . S
Mg101 O108 2.079 . S
C102 O99 1.250 . S
C102 O100 1.248 . S
C103 O104 1.264 . S
C103 O111 1.249 . S
O104 C103 1.264 . S
O105 Mg98 1.986 . S
O105 C109 1.246 . S
O106 Mg101 2.032 . S
O106 C109 1.259 . S
O107 Mg98 2.114 . S
O107 C110 1.252 . S
O108 Mg98 2.251 . S
O108 Mg101 2.079 . S
O108 C110 1.273 . S
C109 O105 1.246 . S
C109 O106 1.259 . S
C110 O107 1.252 . S
C110 O108 1.273 . S
O111 Mg98 2.010 . S
O111 C103 1.249 . S
Mg112 O113 2.028 . S
Mg112 O119 1.986 . S
Mg112 O121 2.114 . S
Mg112 O122 2.251 . S
Mg112 O125 2.010 . S
O113 Mg112 2.028 . S
O113 C116 1.250 . S
O114 Mg115 2.028 . S
O114 C116 1.248 . S
Mg115 O114 2.028 . S
Mg115 O120 2.032 . S
Mg115 O122 2.079 . S
C116 O113 1.250 . S
C116 O114 1.248 . S
C117 O118 1.264 . S
C117 O125 1.249 . S
O118 C117 1.264 . S
O119 Mg112 1.986 . S
O119 C123 1.246 . S
O120 Mg115 2.032 . S
O120 C123 1.259 . S
O121 Mg112 2.114 . S
O121 C124 1.252 . S
O122 Mg112 2.251 . S
O122 Mg115 2.079 . S
O122 C124 1.273 . S
C123 O119 1.246 . S
C123 O120 1.259 . S
C124 O121 1.252 . S
C124 O122 1.273 . S
O125 Mg112 2.010 . S
O125 C117 1.249 . S
Mg126 O127 2.028 . S
Mg126 O133 1.986 . S
Mg126 O135 2.114 . S
Mg126 O136 2.251 . S
Mg126 O139 2.010 . S
O127 Mg126 2.028 . S
O127 C130 1.250 . S
O128 Mg129 2.028 . S
O128 C130 1.248 . S
Mg129 O128 2.028 . S
Mg129 O134 2.032 . S
Mg129 O136 2.079 . S
C130 O127 1.250 . S
C130 O128 1.248 . S
C131 O132 1.264 . S
C131 O139 1.249 . S
O132 C131 1.264 . S
O133 Mg126 1.986 . S
O133 C137 1.246 . S
O134 Mg129 2.032 . S
O134 C137 1.259 . S
O135 Mg126 2.114 . S
O135 C138 1.252 . S
O136 Mg126 2.251 . S
O136 Mg129 2.079 . S
O136 C138 1.273 . S
C137 O133 1.246 . S
C137 O134 1.259 . S
C138 O135 1.252 . S
C138 O136 1.273 . S
O139 Mg126 2.010 . S
O139 C131 1.249 . S
Mg140 O141 2.028 . S
Mg140 O147 1.986 . S
Mg140 O149 2.114 . S
Mg140 O150 2.251 . S
Mg140 O153 2.010 . S
O141 Mg140 2.028 . S
O141 C144 1.250 . S
O142 Mg143 2.028 . S
O142 C144 1.248 . S
Mg143 O142 2.028 . S
Mg143 O148 2.032 . S
Mg143 O150 2.079 . S
C144 O141 1.250 . S
C144 O142 1.248 . S
C145 O146 1.264 . S
C145 O153 1.249 . S
O146 C145 1.264 . S
O147 Mg140 1.986 . S
O147 C151 1.246 . S
O148 Mg143 2.032 . S
O148 C151 1.259 . S
O149 Mg140 2.114 . S
O149 C152 1.252 . S
O150 Mg140 2.251 . S
O150 Mg143 2.079 . S
O150 C152 1.273 . S
C151 O147 1.246 . S
C151 O148 1.259 . S
C152 O149 1.252 . S
C152 O150 1.273 . S
O153 Mg140 2.010 . S
O153 C145 1.249 . S
Mg154 O155 2.028 . S
Mg154 O161 1.986 . S
Mg154 O163 2.114 . S
Mg154 O164 2.251 . S
Mg154 O167 2.010 . S
O155 Mg154 2.028 . S
O155 C158 1.250 . S
O156 Mg157 2.028 . S
O156 C158 1.248 . S
Mg157 O156 2.028 . S
Mg157 O162 2.032 . S
Mg157 O164 2.079 . S
C158 O155 1.250 . S
C158 O156 1.248 . S
C159 O160 1.264 . S
C159 O167 1.249 . S
O160 C159 1.264 . S
O161 Mg154 1.986 . S
O161 C165 1.246 . S
O162 Mg157 2.032 . S
O162 C165 1.259 . S
O163 Mg154 2.114 . S
O163 C166 1.252 . S
O164 Mg154 2.251 . S
O164 Mg157 2.079 . S
O164 C166 1.273 . S
C165 O161 1.246 . S
C165 O162 1.259 . S
C166 O163 1.252 . S
C166 O164 1.273 . S
O167 Mg154 2.010 . S
O167 C159 1.249 . S
Mg168 O169 2.028 . S
Mg168 O175 1.986 . S
Mg168 O177 2.114 . S
Mg168 O178 2.251 . S
Mg168 O181 2.010 . S
O169 Mg168 2.028 . S
O169 C172 1.250 . S
O170 Mg171 2.028 . S
O170 C172 1.248 . S
Mg171 O170 2.028 . S
Mg171 O176 2.032 . S
Mg171 O178 2.079 . S
C172 O169 1.250 . S
C172 O170 1.248 . S
C173 O174 1.264 . S
C173 O181 1.249 . S
O174 C173 1.264 . S
O175 Mg168 1.986 . S
O175 C179 1.246 . S
O176 Mg171 2.032 . S
O176 C179 1.259 . S
O177 Mg168 2.114 . S
O177 C180 1.252 . S
O178 Mg168 2.251 . S
O178 Mg171 2.079 . S
O178 C180 1.273 . S
C179 O175 1.246 . S
C179 O176 1.259 . S
C180 O177 1.252 . S
C180 O178 1.273 . S
O181 Mg168 2.010 . S
O181 C173 1.249 . S
Mg182 O183 2.028 . S
Mg182 O189 1.986 . S
Mg182 O191 2.114 . S
Mg182 O192 2.251 . S
Mg182 O195 2.010 . S
O183 Mg182 2.028 . S
O183 C186 1.250 . S
O184 Mg185 2.028 . S
O184 C186 1.248 . S
Mg185 O184 2.028 . S
Mg185 O190 2.032 . S
Mg185 O192 2.079 . S
C186 O183 1.250 . S
C186 O184 1.248 . S
C187 O188 1.264 . S
C187 O195 1.249 . S
O188 C187 1.264 . S
O189 Mg182 1.986 . S
O189 C193 1.246 . S
O190 Mg185 2.032 . S
O190 C193 1.259 . S
O191 Mg182 2.114 . S
O191 C194 1.252 . S
O192 Mg182 2.251 . S
O192 Mg185 2.079 . S
O192 C194 1.273 . S
C193 O189 1.246 . S
C193 O190 1.259 . S
C194 O191 1.252 . S
C194 O192 1.273 . S
O195 Mg182 2.010 . S
O195 C187 1.249 . S
Mg196 O197 2.028 . S
Mg196 O203 1.986 . S
Mg196 O205 2.114 . S
Mg196 O206 2.251 . S
Mg196 O209 2.010 . S
O197 Mg196 2.028 . S
O197 C200 1.250 . S
O198 Mg199 2.028 . S
O198 C200 1.248 . S
Mg199 O198 2.028 . S
Mg199 O204 2.032 . S
Mg199 O206 2.079 . S
C200 O197 1.250 . S
C200 O198 1.248 . S
C201 O202 1.264 . S
C201 O209 1.249 . S
O202 C201 1.264 . S
O203 Mg196 1.986 . S
O203 C207 1.246 . S
O204 Mg199 2.032 . S
O204 C207 1.259 . S
O205 Mg196 2.114 . S
O205 C208 1.252 . S
O206 Mg196 2.251 . S
O206 Mg199 2.079 . S
O206 C208 1.273 . S
C207 O203 1.246 . S
C207 O204 1.259 . S
C208 O205 1.252 . S
C208 O206 1.273 . S
O209 Mg196 2.010 . S
O209 C201 1.249 . S
Mg210 O211 2.028 . S
Mg210 O217 1.986 . S
Mg210 O219 2.114 . S
Mg210 O220 2.251 . S
Mg210 O223 2.010 . S
O211 Mg210 2.028 . S
O211 C214 1.250 . S
O212 Mg213 2.028 . S
O212 C214 1.248 . S
Mg213 O212 2.028 . S
Mg213 O218 2.032 . S
Mg213 O220 2.079 . S
C214 O211 1.250 . S
C214 O212 1.248 . S
C215 O216 1.264 . S
C215 O223 1.249 . S
O216 C215 1.264 . S
O217 Mg210 1.986 . S
O217 C221 1.246 . S
O218 Mg213 2.032 . S
O218 C221 1.259 . S
O219 Mg210 2.114 . S
O219 C222 1.252 . S
O220 Mg210 2.251 . S
O220 Mg213 2.079 . S
O220 C222 1.273 . S
C221 O217 1.246 . S
C221 O218 1.259 . S
C222 O219 1.252 . S
C222 O220 1.273 . S
O223 Mg210 2.010 . S
O223 C215 1.249 . S
Mg224 O225 2.028 . S
Mg224 O231 1.986 . S
Mg224 O233 2.114 . S
Mg224 O234 2.251 . S
Mg224 O237 2.010 . S
O225 Mg224 2.028 . S
O225 C228 1.250 . S
O226 Mg227 2.028 . S
O226 C228 1.248 . S
Mg227 O226 2.028 . S
Mg227 O232 2.032 . S
Mg227 O234 2.079 . S
C228 O225 1.250 . S
C228 O226 1.248 . S
C229 O230 1.264 . S
C229 O237 1.249 . S
O230 C229 1.264 . S
O231 Mg224 1.986 . S
O231 C235 1.246 . S
O232 Mg227 2.032 . S
O232 C235 1.259 . S
O233 Mg224 2.114 . S
O233 C236 1.252 . S
O234 Mg224 2.251 . S
O234 Mg227 2.079 . S
O234 C236 1.273 . S
C235 O231 1.246 . S
C235 O232 1.259 . S
C236 O233 1.252 . S
C236 O234 1.273 . S
O237 Mg224 2.010 . S
O237 C229 1.249 . S
Mg238 O239 2.028 . S
Mg238 O245 1.986 . S
Mg238 O247 2.114 . S
Mg238 O248 2.251 . S
Mg238 O251 2.010 . S
O239 Mg238 2.028 . S
O239 C242 1.250 . S
O240 Mg241 2.028 . S
O240 C242 1.248 . S
Mg241 O240 2.028 . S
Mg241 O246 2.032 . S
Mg241 O248 2.079 . S
C242 O239 1.250 . S
C242 O240 1.248 . S
C243 O244 1.264 . S
C243 O251 1.249 . S
O244 C243 1.264 . S
O245 Mg238 1.986 . S
O245 C249 1.246 . S
O246 Mg241 2.032 . S
O246 C249 1.259 . S
O247 Mg238 2.114 . S
O247 C250 1.252 . S
O248 Mg238 2.251 . S
O248 Mg241 2.079 . S
O248 C250 1.273 . S
C249 O245 1.246 . S
C249 O246 1.259 . S
C250 O247 1.252 . S
C250 O248 1.273 . S
O251 Mg238 2.010 . S
O251 C243 1.249 . S
Mg252 O253 2.028 . S
Mg252 O259 1.986 . S
Mg252 O261 2.114 . S
Mg252 O262 2.251 . S
Mg252 O265 2.010 . S
O253 Mg252 2.028 . S
O253 C256 1.250 . S
O254 Mg255 2.028 . S
O254 C256 1.248 . S
Mg255 O254 2.028 . S
Mg255 O260 2.032 . S
Mg255 O262 2.079 . S
C256 O253 1.250 . S
C256 O254 1.248 . S
C257 O258 1.264 . S
C257 O265 1.249 . S
O258 C257 1.264 . S
O259 Mg252 1.986 . S
O259 C263 1.246 . S
O260 Mg255 2.032 . S
O260 C263 1.259 . S
O261 Mg252 2.114 . S
O261 C264 1.252 . S
O262 Mg252 2.251 . S
O262 Mg255 2.079 . S
O262 C264 1.273 . S
C263 O259 1.246 . S
C263 O260 1.259 . S
C264 O261 1.252 . S
C264 O262 1.273 . S
O265 Mg252 2.010 . S
O265 C257 1.249 . S
Mg266 O267 2.028 . S
Mg266 O273 1.986 . S
Mg266 O275 2.114 . S
Mg266 O276 2.251 . S
Mg266 O279 2.010 . S
O267 Mg266 2.028 . S
O267 C270 1.250 . S
O268 Mg269 2.028 . S
O268 C270 1.248 . S
Mg269 O268 2.028 . S
Mg269 O274 2.032 . S
Mg269 O276 2.079 . S
C270 O267 1.250 . S
C270 O268 1.248 . S
C271 O272 1.264 . S
C271 O279 1.249 . S
O272 C271 1.264 . S
O273 Mg266 1.986 . S
O273 C277 1.246 . S
O274 Mg269 2.032 . S
O274 C277 1.259 . S
O275 Mg266 2.114 . S
O275 C278 1.252 . S
O276 Mg266 2.251 . S
O276 Mg269 2.079 . S
O276 C278 1.273 . S
C277 O273 1.246 . S
C277 O274 1.259 . S
C278 O275 1.252 . S
C278 O276 1.273 . S
O279 Mg266 2.010 . S
O279 C271 1.249 . S
Mg280 O281 2.028 . S
Mg280 O287 1.986 . S
Mg280 O289 2.114 . S
Mg280 O290 2.251 . S
Mg280 O293 2.010 . S
O281 Mg280 2.028 . S
O281 C284 1.250 . S
O282 Mg283 2.028 . S
O282 C284 1.248 . S
Mg283 O282 2.028 . S
Mg283 O288 2.032 . S
Mg283 O290 2.079 . S
C284 O281 1.250 . S
C284 O282 1.248 . S
C285 O286 1.264 . S
C285 O293 1.249 . S
O286 C285 1.264 . S
O287 Mg280 1.986 . S
O287 C291 1.246 . S
O288 Mg283 2.032 . S
O288 C291 1.259 . S
O289 Mg280 2.114 . S
O289 C292 1.252 . S
O290 Mg280 2.251 . S
O290 Mg283 2.079 . S
O290 C292 1.273 . S
C291 O287 1.246 . S
C291 O288 1.259 . S
C292 O289 1.252 . S
C292 O290 1.273 . S
O293 Mg280 2.010 . S
O293 C285 1.249 . S
Mg294 O295 2.028 . S
Mg294 O301 1.986 . S
Mg294 O303 2.114 . S
Mg294 O304 2.251 . S
Mg294 O307 2.010 . S
O295 Mg294 2.028 . S
O295 C298 1.250 . S
O296 Mg297 2.028 . S
O296 C298 1.248 . S
Mg297 O296 2.028 . S
Mg297 O302 2.032 . S
Mg297 O304 2.079 . S
C298 O295 1.250 . S
C298 O296 1.248 . S
C299 O300 1.264 . S
C299 O307 1.249 . S
O300 C299 1.264 . S
O301 Mg294 1.986 . S
O301 C305 1.246 . S
O302 Mg297 2.032 . S
O302 C305 1.259 . S
O303 Mg294 2.114 . S
O303 C306 1.252 . S
O304 Mg294 2.251 . S
O304 Mg297 2.079 . S
O304 C306 1.273 . S
C305 O301 1.246 . S
C305 O302 1.259 . S
C306 O303 1.252 . S
C306 O304 1.273 . S
O307 Mg294 2.010 . S
O307 C299 1.249 . S
Mg308 O309 2.028 . S
Mg308 O315 1.986 . S
Mg308 O317 2.114 . S
Mg308 O318 2.251 . S
Mg308 O321 2.010 . S
O309 Mg308 2.028 . S
O309 C312 1.250 . S
O310 Mg311 2.028 . S
O310 C312 1.248 . S
Mg311 O310 2.028 . S
Mg311 O316 2.032 . S
Mg311 O318 2.079 . S
C312 O309 1.250 . S
C312 O310 1.248 . S
C313 O314 1.264 . S
C313 O321 1.249 . S
O314 C313 1.264 . S
O315 Mg308 1.986 . S
O315 C319 1.246 . S
O316 Mg311 2.032 . S
O316 C319 1.259 . S
O317 Mg308 2.114 . S
O317 C320 1.252 . S
O318 Mg308 2.251 . S
O318 Mg311 2.079 . S
O318 C320 1.273 . S
C319 O315 1.246 . S
C319 O316 1.259 . S
C320 O317 1.252 . S
C320 O318 1.273 . S
O321 Mg308 2.010 . S
O321 C313 1.249 . S
Mg322 O323 2.028 . S
Mg322 O329 1.986 . S
Mg322 O331 2.114 . S
Mg322 O332 2.251 . S
Mg322 O335 2.010 . S
O323 Mg322 2.028 . S
O323 C326 1.250 . S
O324 Mg325 2.028 . S
O324 C326 1.248 . S
Mg325 O324 2.028 . S
Mg325 O330 2.032 . S
Mg325 O332 2.079 . S
C326 O323 1.250 . S
C326 O324 1.248 . S
C327 O328 1.264 . S
C327 O335 1.249 . S
O328 C327 1.264 . S
O329 Mg322 1.986 . S
O329 C333 1.246 . S
O330 Mg325 2.032 . S
O330 C333 1.259 . S
O331 Mg322 2.114 . S
O331 C334 1.252 . S
O332 Mg322 2.251 . S
O332 Mg325 2.079 . S
O332 C334 1.273 . S
C333 O329 1.246 . S
C333 O330 1.259 . S
C334 O331 1.252 . S
C334 O332 1.273 . S
O335 Mg322 2.010 . S
O335 C327 1.249 . S
Mg336 O337 2.028 . S
Mg336 O343 1.986 . S
Mg336 O345 2.114 . S
Mg336 O346 2.251 . S
Mg336 O349 2.010 . S
O337 Mg336 2.028 . S
O337 C340 1.250 . S
O338 Mg339 2.028 . S
O338 C340 1.248 . S
Mg339 O338 2.028 . S
Mg339 O344 2.032 . S
Mg339 O346 2.079 . S
C340 O337 1.250 . S
C340 O338 1.248 . S
C341 O342 1.264 . S
C341 O349 1.249 . S
O342 C341 1.264 . S
O343 Mg336 1.986 . S
O343 C347 1.246 . S
O344 Mg339 2.032 . S
O344 C347 1.259 . S
O345 Mg336 2.114 . S
O345 C348 1.252 . S
O346 Mg336 2.251 . S
O346 Mg339 2.079 . S
O346 C348 1.273 . S
C347 O343 1.246 . S
C347 O344 1.259 . S
C348 O345 1.252 . S
C348 O346 1.273 . S
O349 Mg336 2.010 . S
O349 C341 1.249 . S
Mg350 O351 2.028 . S
Mg350 O357 1.986 . S
Mg350 O359 2.114 . S
Mg350 O360 2.251 . S
Mg350 O363 2.010 . S
O351 Mg350 2.028 . S
O351 C354 1.250 . S
O352 Mg353 2.028 . S
O352 C354 1.248 . S
Mg353 O352 2.028 . S
Mg353 O358 2.032 . S
Mg353 O360 2.079 . S
C354 O351 1.250 . S
C354 O352 1.248 . S
C355 O356 1.264 . S
C355 O363 1.249 . S
O356 C355 1.264 . S
O357 Mg350 1.986 . S
O357 C361 1.246 . S
O358 Mg353 2.032 . S
O358 C361 1.259 . S
O359 Mg350 2.114 . S
O359 C362 1.252 . S
O360 Mg350 2.251 . S
O360 Mg353 2.079 . S
O360 C362 1.273 . S
C361 O357 1.246 . S
C361 O358 1.259 . S
C362 O359 1.252 . S
C362 O360 1.273 . S
O363 Mg350 2.010 . S
O363 C355 1.249 . S
Mg364 O365 2.028 . S
Mg364 O371 1.986 . S
Mg364 O373 2.114 . S
Mg364 O374 2.251 . S
Mg364 O377 2.010 . S
O365 Mg364 2.028 . S
O365 C368 1.250 . S
O366 Mg367 2.028 . S
O366 C368 1.248 . S
Mg367 O366 2.028 . S
Mg367 O372 2.032 . S
Mg367 O374 2.079 . S
C368 O365 1.250 . S
C368 O366 1.248 . S
C369 O370 1.264 . S
C369 O377 1.249 . S
O370 C369 1.264 . S
O371 Mg364 1.986 . S
O371 C375 1.246 . S
O372 Mg367 2.032 . S
O372 C375 1.259 . S
O373 Mg364 2.114 . S
O373 C376 1.252 . S
O374 Mg364 2.251 . S
O374 Mg367 2.079 . S
O374 C376 1.273 . S
C375 O371 1.246 . S
C375 O372 1.259 . S
C376 O373 1.252 . S
C376 O374 1.273 . S
O377 Mg364 2.010 . S
O377 C369 1.249 . S
Mg378 O379 2.028 . S
Mg378 O385 1.986 . S
Mg378 O387 2.114 . S
Mg378 O388 2.251 . S
Mg378 O391 2.010 . S
O379 Mg378 2.028 . S
O379 C382 1.250 . S
O380 Mg381 2.028 . S
O380 C382 1.248 . S
Mg381 O380 2.028 . S
Mg381 O386 2.032 . S
Mg381 O388 2.079 . S
C382 O379 1.250 . S
C382 O380 1.248 . S
C383 O384 1.264 . S
C383 O391 1.249 . S
O384 C383 1.264 . S
O385 Mg378 1.986 . S
O385 C389 1.246 . S
O386 Mg381 2.032 . S
O386 C389 1.259 . S
O387 Mg378 2.114 . S
O387 C390 1.252 . S
O388 Mg378 2.251 . S
O388 Mg381 2.079 . S
O388 C390 1.273 . S
C389 O385 1.246 . S
C389 O386 1.259 . S
C390 O387 1.252 . S
C390 O388 1.273 . S
O391 Mg378 2.010 . S
O391 C383 1.249 . S
Mg392 O393 2.028 . S
Mg392 O399 1.986 . S
Mg392 O401 2.114 . S
Mg392 O402 2.251 . S
Mg392 O405 2.010 . S
O393 Mg392 2.028 . S
O393 C396 1.250 . S
O394 Mg395 2.028 . S
O394 C396 1.248 . S
Mg395 O394 2.028 . S
Mg395 O400 2.032 . S
Mg395 O402 2.079 . S
C396 O393 1.250 . S
C396 O394 1.248 . S
C397 O398 1.264 . S
C397 O405 1.249 . S
O398 C397 1.264 . S
O399 Mg392 1.986 . S
O399 C403 1.246 . S
O400 Mg395 2.032 . S
O400 C403 1.259 . S
O401 Mg392 2.114 . S
O401 C404 1.252 . S
O402 Mg392 2.251 . S
O402 Mg395 2.079 . S
O402 C404 1.273 . S
C403 O399 1.246 . S
C403 O400 1.259 . S
C404 O401 1.252 . S
C404 O402 1.273 . S
O405 Mg392 2.010 . S
O405 C397 1.249 . S
Mg406 O407 2.028 . S
Mg406 O413 1.986 . S
Mg406 O415 2.114 . S
Mg406 O416 2.251 . S
Mg406 O419 2.010 . S
O407 Mg406 2.028 . S
O407 C410 1.250 . S
O408 Mg409 2.028 . S
O408 C410 1.248 . S
Mg409 O408 2.028 . S
Mg409 O414 2.032 . S
Mg409 O416 2.079 . S
C410 O407 1.250 . S
C410 O408 1.248 . S
C411 O412 1.264 . S
C411 O419 1.249 . S
O412 C411 1.264 . S
O413 Mg406 1.986 . S
O413 C417 1.246 . S
O414 Mg409 2.032 . S
O414 C417 1.259 . S
O415 Mg406 2.114 . S
O415 C418 1.252 . S
O416 Mg406 2.251 . S
O416 Mg409 2.079 . S
O416 C418 1.273 . S
C417 O413 1.246 . S
C417 O414 1.259 . S
C418 O415 1.252 . S
C418 O416 1.273 . S
O419 Mg406 2.010 . S
O419 C411 1.249 . S
Mg420 O421 2.028 . S
Mg420 O427 1.986 . S
Mg420 O429 2.114 . S
Mg420 O430 2.251 . S
Mg420 O433 2.010 . S
O421 Mg420 2.028 . S
O421 C424 1.250 . S
O422 Mg423 2.028 . S
O422 C424 1.248 . S
Mg423 O422 2.028 . S
Mg423 O428 2.032 . S
Mg423 O430 2.079 . S
C424 O421 1.250 . S
C424 O422 1.248 . S
C425 O426 1.264 . S
C425 O433 1.249 . S
O426 C425 1.264 . S
O427 Mg420 1.986 . S
O427 C431 1.246 . S
O428 Mg423 2.032 . S
O428 C431 1.259 . S
O429 Mg420 2.114 . S
O429 C432 1.252 . S
O430 Mg420 2.251 . S
O430 Mg423 2.079 . S
O430 C432 1.273 . S
C431 O427 1.246 . S
C431 O428 1.259 . S
C432 O429 1.252 . S
C432 O430 1.273 . S
O433 Mg420 2.010 . S
O433 C425 1.249 . S
Mg434 O435 2.028 . S
Mg434 O441 1.986 . S
Mg434 O443 2.114 . S
Mg434 O444 2.251 . S
Mg434 O447 2.010 . S
O435 Mg434 2.028 . S
O435 C438 1.250 . S
O436 Mg437 2.028 . S
O436 C438 1.248 . S
Mg437 O436 2.028 . S
Mg437 O442 2.032 . S
Mg437 O444 2.079 . S
C438 O435 1.250 . S
C438 O436 1.248 . S
C439 O440 1.264 . S
C439 O447 1.249 . S
O440 C439 1.264 . S
O441 Mg434 1.986 . S
O441 C445 1.246 . S
O442 Mg437 2.032 . S
O442 C445 1.259 . S
O443 Mg434 2.114 . S
O443 C446 1.252 . S
O444 Mg434 2.251 . S
O444 Mg437 2.079 . S
O444 C446 1.273 . S
C445 O441 1.246 . S
C445 O442 1.259 . S
C446 O443 1.252 . S
C446 O444 1.273 . S
O447 Mg434 2.010 . S
O447 C439 1.249 . S
Mg448 O449 2.028 . S
Mg448 O455 1.986 . S
Mg448 O457 2.114 . S
Mg448 O458 2.251 . S
Mg448 O461 2.010 . S
O449 Mg448 2.028 . S
O449 C452 1.250 . S
O450 Mg451 2.028 . S
O450 C452 1.248 . S
Mg451 O450 2.028 . S
Mg451 O456 2.032 . S
Mg451 O458 2.079 . S
C452 O449 1.250 . S
C452 O450 1.248 . S
C453 O454 1.264 . S
C453 O461 1.249 . S
O454 C453 1.264 . S
O455 Mg448 1.986 . S
O455 C459 1.246 . S
O456 Mg451 2.032 . S
O456 C459 1.259 . S
O457 Mg448 2.114 . S
O457 C460 1.252 . S
O458 Mg448 2.251 . S
O458 Mg451 2.079 . S
O458 C460 1.273 . S
C459 O455 1.246 . S
C459 O456 1.259 . S
C460 O457 1.252 . S
C460 O458 1.273 . S
O461 Mg448 2.010 . S
O461 C453 1.249 . S
Mg462 O463 2.028 . S
Mg462 O469 1.986 . S
Mg462 O471 2.114 . S
Mg462 O472 2.251 . S
Mg462 O475 2.010 . S
O463 Mg462 2.028 . S
O463 C466 1.250 . S
O464 Mg465 2.028 . S
O464 C466 1.248 . S
Mg465 O464 2.028 . S
Mg465 O470 2.032 . S
Mg465 O472 2.079 . S
C466 O463 1.250 . S
C466 O464 1.248 . S
C467 O468 1.264 . S
C467 O475 1.249 . S
O468 C467 1.264 . S
O469 Mg462 1.986 . S
O469 C473 1.246 . S
O470 Mg465 2.032 . S
O470 C473 1.259 . S
O471 Mg462 2.114 . S
O471 C474 1.252 . S
O472 Mg462 2.251 . S
O472 Mg465 2.079 . S
O472 C474 1.273 . S
C473 O469 1.246 . S
C473 O470 1.259 . S
C474 O471 1.252 . S
C474 O472 1.273 . S
O475 Mg462 2.010 . S
O475 C467 1.249 . S
Mg476 O477 2.028 . S
Mg476 O483 1.986 . S
Mg476 O485 2.114 . S
Mg476 O486 2.251 . S
Mg476 O489 2.010 . S
O477 Mg476 2.028 . S
O477 C480 1.250 . S
O478 Mg479 2.028 . S
O478 C480 1.248 . S
Mg479 O478 2.028 . S
Mg479 O484 2.032 . S
Mg479 O486 2.079 . S
C480 O477 1.250 . S
C480 O478 1.248 . S
C481 O482 1.264 . S
C481 O489 1.249 . S
O482 C481 1.264 . S
O483 Mg476 1.986 . S
O483 C487 1.246 . S
O484 Mg479 2.032 . S
O484 C487 1.259 . S
O485 Mg476 2.114 . S
O485 C488 1.252 . S
O486 Mg476 2.251 . S
O486 Mg479 2.079 . S
O486 C488 1.273 . S
C487 O483 1.246 . S
C487 O484 1.259 . S
C488 O485 1.252 . S
C488 O486 1.273 . S
O489 Mg476 2.010 . S
O489 C481 1.249 . S
Mg490 O491 2.028 . S
Mg490 O497 1.986 . S
Mg490 O499 2.114 . S
Mg490 O500 2.251 . S
Mg490 O503 2.010 . S
O491 Mg490 2.028 . S
O491 C494 1.250 . S
O492 Mg493 2.028 . S
O492 C494 1.248 . S
Mg493 O492 2.028 . S
Mg493 O498 2.032 . S
Mg493 O500 2.079 . S
C494 O491 1.250 . S
C494 O492 1.248 . S
C495 O496 1.264 . S
C495 O503 1.249 . S
O496 C495 1.264 . S
O497 Mg490 1.986 . S
O497 C501 1.246 . S
O498 Mg493 2.032 . S
O498 C501 1.259 . S
O499 Mg490 2.114 . S
O499 C502 1.252 . S
O500 Mg490 2.251 . S
O500 Mg493 2.079 . S
O500 C502 1.273 . S
C501 O497 1.246 . S
C501 O498 1.259 . S
C502 O499 1.252 . S
C502 O500 1.273 . S
O503 Mg490 2.010 . S
O503 C495 1.249 . S
Mg504 O505 2.028 . S
Mg504 O511 1.986 . S
Mg504 O513 2.114 . S
Mg504 O514 2.251 . S
Mg504 O517 2.010 . S
O505 Mg504 2.028 . S
O505 C508 1.250 . S
O506 Mg507 2.028 . S
O506 C508 1.248 . S
Mg507 O506 2.028 . S
Mg507 O512 2.032 . S
Mg507 O514 2.079 . S
C508 O505 1.250 . S
C508 O506 1.248 . S
C509 O510 1.264 . S
C509 O517 1.249 . S
O510 C509 1.264 . S
O511 Mg504 1.986 . S
O511 C515 1.246 . S
O512 Mg507 2.032 . S
O512 C515 1.259 . S
O513 Mg504 2.114 . S
O513 C516 1.252 . S
O514 Mg504 2.251 . S
O514 Mg507 2.079 . S
O514 C516 1.273 . S
C515 O511 1.246 . S
C515 O512 1.259 . S
C516 O513 1.252 . S
C516 O514 1.273 . S
O517 Mg504 2.010 . S
O517 C509 1.249 . S
Mg518 O519 2.028 . S
Mg518 O525 1.986 . S
Mg518 O527 2.114 . S
Mg518 O528 2.251 . S
Mg518 O531 2.010 . S
O519 Mg518 2.028 . S
O519 C522 1.250 . S
O520 Mg521 2.028 . S
O520 C522 1.248 . S
Mg521 O520 2.028 . S
Mg521 O526 2.032 . S
Mg521 O528 2.079 . S
C522 O519 1.250 . S
C522 O520 1.248 . S
C523 O524 1.264 . S
C523 O531 1.249 . S
O524 C523 1.264 . S
O525 Mg518 1.986 . S
O525 C529 1.246 . S
O526 Mg521 2.032 . S
O526 C529 1.259 . S
O527 Mg518 2.114 . S
O527 C530 1.252 . S
O528 Mg518 2.251 . S
O528 Mg521 2.079 . S
O528 C530 1.273 . S
C529 O525 1.246 . S
C529 O526 1.259 . S
C530 O527 1.252 . S
C530 O528 1.273 . S
O531 Mg518 2.010 . S
O531 C523 1.249 . S
Mg532 O533 2.028 . S
Mg532 O539 1.986 . S
Mg532 O541 2.114 . S
Mg532 O542 2.251 . S
Mg532 O545 2.010 . S
O533 Mg532 2.028 . S
O533 C536 1.250 . S
O534 Mg535 2.028 . S
O534 C536 1.248 . S
Mg535 O534 2.028 . S
Mg535 O540 2.032 . S
Mg535 O542 2.079 . S
C536 O533 1.250 . S
C536 O534 1.248 . S
C537 O538 1.264 . S
C537 O545 1.249 . S
O538 C537 1.264 . S
O539 Mg532 1.986 . S
O539 C543 1.246 . S
O540 Mg535 2.032 . S
O540 C543 1.259 . S
O541 Mg532 2.114 . S
O541 C544 1.252 . S
O542 Mg532 2.251 . S
O542 Mg535 2.079 . S
O542 C544 1.273 . S
C543 O539 1.246 . S
C543 O540 1.259 . S
C544 O541 1.252 . S
C544 O542 1.273 . S
O545 Mg532 2.010 . S
O545 C537 1.249 . S
Mg546 O547 2.028 . S
Mg546 O553 1.986 . S
Mg546 O555 2.114 . S
Mg546 O556 2.251 . S
Mg546 O559 2.010 . S
O547 Mg546 2.028 . S
O547 C550 1.250 . S
O548 Mg549 2.028 . S
O548 C550 1.248 . S
Mg549 O548 2.028 . S
Mg549 O554 2.032 . S
Mg549 O556 2.079 . S
C550 O547 1.250 . S
C550 O548 1.248 . S
C551 O552 1.264 . S
C551 O559 1.249 . S
O552 C551 1.264 . S
O553 Mg546 1.986 . S
O553 C557 1.246 . S
O554 Mg549 2.032 . S
O554 C557 1.259 . S
O555 Mg546 2.114 . S
O555 C558 1.252 . S
O556 Mg546 2.251 . S
O556 Mg549 2.079 . S
O556 C558 1.273 . S
C557 O553 1.246 . S
C557 O554 1.259 . S
C558 O555 1.252 . S
C558 O556 1.273 . S
O559 Mg546 2.010 . S
O559 C551 1.249 . S
Mg560 O561 2.028 . S
Mg560 O567 1.986 . S
Mg560 O569 2.114 . S
Mg560 O570 2.251 . S
Mg560 O573 2.010 . S
O561 Mg560 2.028 . S
O561 C564 1.250 . S
O562 Mg563 2.028 . S
O562 C564 1.248 . S
Mg563 O562 2.028 . S
Mg563 O568 2.032 . S
Mg563 O570 2.079 . S
C564 O561 1.250 . S
C564 O562 1.248 . S
C565 O566 1.264 . S
C565 O573 1.249 . S
O566 C565 1.264 . S
O567 Mg560 1.986 . S
O567 C571 1.246 . S
O568 Mg563 2.032 . S
O568 C571 1.259 . S
O569 Mg560 2.114 . S
O569 C572 1.252 . S
O570 Mg560 2.251 . S
O570 Mg563 2.079 . S
O570 C572 1.273 . S
C571 O567 1.246 . S
C571 O568 1.259 . S
C572 O569 1.252 . S
C572 O570 1.273 . S
O573 Mg560 2.010 . S
O573 C565 1.249 . S
Mg574 O575 2.028 . S
Mg574 O581 1.986 . S
Mg574 O583 2.114 . S
Mg574 O584 2.251 . S
Mg574 O587 2.010 . S
O575 Mg574 2.028 . S
O575 C578 1.250 . S
O576 Mg577 2.028 . S
O576 C578 1.248 . S
Mg577 O576 2.028 . S
Mg577 O582 2.032 . S
Mg577 O584 2.079 . S
C578 O575 1.250 . S
C578 O576 1.248 . S
C579 O580 1.264 . S
C579 O587 1.249 . S
O580 C579 1.264 . S
O581 Mg574 1.986 . S
O581 C585 1.246 . S
O582 Mg577 2.032 . S
O582 C585 1.259 . S
O583 Mg574 2.114 . S
O583 C586 1.252 . S
O584 Mg574 2.251 . S
O584 Mg577 2.079 . S
O584 C586 1.273 . S
C585 O581 1.246 . S
C585 O582 1.259 . S
C586 O583 1.252 . S
C586 O584 1.273 . S
O587 Mg574 2.010 . S
O587 C579 1.249 . S
Mg588 O589 2.028 . S
Mg588 O595 1.986 . S
Mg588 O597 2.114 . S
Mg588 O598 2.251 . S
Mg588 O601 2.010 . S
O589 Mg588 2.028 . S
O589 C592 1.250 . S
O590 Mg591 2.028 . S
O590 C592 1.248 . S
Mg591 O590 2.028 . S
Mg591 O596 2.032 . S
Mg591 O598 2.079 . S
C592 O589 1.250 . S
C592 O590 1.248 . S
C593 O594 1.264 . S
C593 O601 1.249 . S
O594 C593 1.264 . S
O595 Mg588 1.986 . S
O595 C599 1.246 . S
O596 Mg591 2.032 . S
O596 C599 1.259 . S
O597 Mg588 2.114 . S
O597 C600 1.252 . S
O598 Mg588 2.251 . S
O598 Mg591 2.079 . S
O598 C600 1.273 . S
C599 O595 1.246 . S
C599 O596 1.259 . S
C600 O597 1.252 . S
C600 O598 1.273 . S
O601 Mg588 2.010 . S
O601 C593 1.249 . S
Mg602 O603 2.028 . S
Mg602 O609 1.986 . S
Mg602 O611 2.114 . S
Mg602 O612 2.251 . S
Mg602 O615 2.010 . S
O603 Mg602 2.028 . S
O603 C606 1.250 . S
O604 Mg605 2.028 . S
O604 C606 1.248 . S
Mg605 O604 2.028 . S
Mg605 O610 2.032 . S
Mg605 O612 2.079 . S
C606 O603 1.250 . S
C606 O604 1.248 . S
C607 O608 1.264 . S
C607 O615 1.249 . S
O608 C607 1.264 . S
O609 Mg602 1.986 . S
O609 C613 1.246 . S
O610 Mg605 2.032 . S
O610 C613 1.259 . S
O611 Mg602 2.114 . S
O611 C614 1.252 . S
O612 Mg602 2.251 . S
O612 Mg605 2.079 . S
O612 C614 1.273 . S
C613 O609 1.246 . S
C613 O610 1.259 . S
C614 O611 1.252 . S
C614 O612 1.273 . S
O615 Mg602 2.010 . S
O615 C607 1.249 . S
Mg616 O617 2.028 . S
Mg616 O623 1.986 . S
Mg616 O625 2.114 . S
Mg616 O626 2.251 . S
Mg616 O629 2.010 . S
O617 Mg616 2.028 . S
O617 C620 1.250 . S
O618 Mg619 2.028 . S
O618 C620 1.248 . S
Mg619 O618 2.028 . S
Mg619 O624 2.032 . S
Mg619 O626 2.079 . S
C620 O617 1.250 . S
C620 O618 1.248 . S
C621 O622 1.264 . S
C621 O629 1.249 . S
O622 C621 1.264 . S
O623 Mg616 1.986 . S
O623 C627 1.246 . S
O624 Mg619 2.032 . S
O624 C627 1.259 . S
O625 Mg616 2.114 . S
O625 C628 1.252 . S
O626 Mg616 2.251 . S
O626 Mg619 2.079 . S
O626 C628 1.273 . S
C627 O623 1.246 . S
C627 O624 1.259 . S
C628 O625 1.252 . S
C628 O626 1.273 . S
O629 Mg616 2.010 . S
O629 C621 1.249 . S
Mg630 O631 2.028 . S
Mg630 O637 1.986 . S
Mg630 O639 2.114 . S
Mg630 O640 2.251 . S
Mg630 O643 2.010 . S
O631 Mg630 2.028 . S
O631 C634 1.250 . S
O632 Mg633 2.028 . S
O632 C634 1.248 . S
Mg633 O632 2.028 . S
Mg633 O638 2.032 . S
Mg633 O640 2.079 . S
C634 O631 1.250 . S
C634 O632 1.248 . S
C635 O636 1.264 . S
C635 O643 1.249 . S
O636 C635 1.264 . S
O637 Mg630 1.986 . S
O637 C641 1.246 . S
O638 Mg633 2.032 . S
O638 C641 1.259 . S
O639 Mg630 2.114 . S
O639 C642 1.252 . S
O640 Mg630 2.251 . S
O640 Mg633 2.079 . S
O640 C642 1.273 . S
C641 O637 1.246 . S
C641 O638 1.259 . S
C642 O639 1.252 . S
C642 O640 1.273 . S
O643 Mg630 2.010 . S
O643 C635 1.249 . S
Mg644 O645 2.028 . S
Mg644 O651 1.986 . S
Mg644 O653 2.114 . S
Mg644 O654 2.251 . S
Mg644 O657 2.010 . S
O645 Mg644 2.028 . S
O645 C648 1.250 . S
O646 Mg647 2.028 . S
O646 C648 1.248 . S
Mg647 O646 2.028 . S
Mg647 O652 2.032 . S
Mg647 O654 2.079 . S
C648 O645 1.250 . S
C648 O646 1.248 . S
C649 O650 1.264 . S
C649 O657 1.249 . S
O650 C649 1.264 . S
O651 Mg644 1.986 . S
O651 C655 1.246 . S
O652 Mg647 2.032 . S
O652 C655 1.259 . S
O653 Mg644 2.114 . S
O653 C656 1.252 . S
O654 Mg644 2.251 . S
O654 Mg647 2.079 . S
O654 C656 1.273 . S
C655 O651 1.246 . S
C655 O652 1.259 . S
C656 O653 1.252 . S
C656 O654 1.273 . S
O657 Mg644 2.010 . S
O657 C649 1.249 . S
Mg658 O659 2.028 . S
Mg658 O665 1.986 . S
Mg658 O667 2.114 . S
Mg658 O668 2.251 . S
Mg658 O671 2.010 . S
O659 Mg658 2.028 . S
O659 C662 1.250 . S
O660 Mg661 2.028 . S
O660 C662 1.248 . S
Mg661 O660 2.028 . S
Mg661 O666 2.032 . S
Mg661 O668 2.079 . S
C662 O659 1.250 . S
C662 O660 1.248 . S
C663 O664 1.264 . S
C663 O671 1.249 . S
O664 C663 1.264 . S
O665 Mg658 1.986 . S
O665 C669 1.246 . S
O666 Mg661 2.032 . S
O666 C669 1.259 . S
O667 Mg658 2.114 . S
O667 C670 1.252 . S
O668 Mg658 2.251 . S
O668 Mg661 2.079 . S
O668 C670 1.273 . S
C669 O665 1.246 . S
C669 O666 1.259 . S
C670 O667 1.252 . S
C670 O668 1.273 . S
O671 Mg658 2.010 . S
O671 C663 1.249 . S
C672 C673 1.363 . S
C672 C678 1.379 1_655 S
C672 N680 1.356 . S
C673 C672 1.363 . S
C673 C679 1.363 . S
C674 C675 1.363 . S
C674 C679 1.379 1_455 S
C674 N681 1.356 . S
C675 C674 1.363 . S
C675 C678 1.363 . S
N676 C678 1.356 . S
N676 H688 0.984 . S
N676 H689 0.985 . S
N677 C679 1.356 . S
N677 H682 0.984 . S
N677 H683 0.985 . S
C678 C672 1.379 1_455 S
C678 C675 1.363 . S
C678 N676 1.356 . S
C679 C673 1.363 . S
C679 C674 1.379 1_655 S
C679 N677 1.356 . S
N680 C672 1.356 . S
N680 H686 0.984 . S
N680 H687 0.984 . S
N681 C674 1.356 . S
N681 H684 0.984 . S
N681 H685 0.985 . S
H682 N677 0.984 . S
H683 N677 0.985 . S
H684 N681 0.984 . S
H685 N681 0.985 . S
H686 N680 0.984 . S
H687 N680 0.984 . S
H688 N676 0.984 . S
H689 N676 0.985 . S
C690 C691 1.363 . S
C690 C696 1.379 . S
C690 N698 1.356 . S
C691 C690 1.363 . S
C691 C697 1.363 . S
C692 C693 1.363 . S
C692 C697 1.379 . S
C692 N699 1.356 . S
C693 C692 1.363 . S
C693 C696 1.363 . S
N694 C696 1.356 . S
N694 H706 0.984 . S
N694 H707 0.985 . S
N695 C697 1.356 . S
N695 H700 0.984 . S
N695 H701 0.985 . S
C696 C690 1.379 . S
C696 C693 1.363 . S
C696 N694 1.356 . S
C697 C691 1.363 . S
C697 C692 1.379 . S
C697 N695 1.356 . S
N698 C690 1.356 . S
N698 H704 0.984 . S
N698 H705 0.984 . S
N699 C692 1.356 . S
N699 H702 0.984 . S
N699 H703 0.985 . S
H700 N695 0.984 . S
H701 N695 0.985 . S
H702 N699 0.984 . S
H703 N699 0.985 . S
H704 N698 0.984 . S
H705 N698 0.984 . S
H706 N694 0.984 . S
H707 N694 0.985 . S
C708 C709 1.363 . S
C708 C714 1.379 1_455 S
C708 N716 1.356 . S
C709 C708 1.363 . S
C709 C715 1.363 . S
C710 C711 1.363 . S
C710 C715 1.379 1_655 S
C710 N717 1.356 . S
C711 C710 1.363 . S
C711 C714 1.363 . S
N712 C714 1.356 . S
N712 H724 0.984 . S
N712 H725 0.985 . S
N713 C715 1.356 . S
N713 H718 0.984 . S
N713 H719 0.985 . S
C714 C708 1.379 1_655 S
C714 C711 1.363 . S
C714 N712 1.356 . S
C715 C709 1.363 . S
C715 C710 1.379 1_455 S
C715 N713 1.356 . S
N716 C708 1.356 . S
N716 H722 0.984 . S
N716 H723 0.984 . S
N717 C710 1.356 . S
N717 H720 0.984 . S
N717 H721 0.985 . S
H718 N713 0.984 . S
H719 N713 0.985 . S
H720 N717 0.984 . S
H721 N717 0.985 . S
H722 N716 0.984 . S
H723 N716 0.984 . S
H724 N712 0.984 . S
H725 N712 0.985 . S
C726 C727 1.363 . S
C726 C732 1.379 . S
C726 N734 1.356 . S
C727 C726 1.363 . S
C727 C733 1.363 . S
C728 C729 1.363 . S
C728 C733 1.379 . S
C728 N735 1.356 . S
C729 C728 1.363 . S
C729 C732 1.363 . S
N730 C732 1.356 . S
N730 H742 0.984 . S
N730 H743 0.985 . S
N731 C733 1.356 . S
N731 H736 0.984 . S
N731 H737 0.985 . S
C732 C726 1.379 . S
C732 C729 1.363 . S
C732 N730 1.356 . S
C733 C727 1.363 . S
C733 C728 1.379 . S
C733 N731 1.356 . S
N734 C726 1.356 . S
N734 H740 0.984 . S
N734 H741 0.984 . S
N735 C728 1.356 . S
N735 H738 0.984 . S
N735 H739 0.985 . S
H736 N731 0.984 . S
H737 N731 0.985 . S
H738 N735 0.984 . S
H739 N735 0.985 . S
H740 N734 0.984 . S
H741 N734 0.984 . S
H742 N730 0.984 . S
H743 N730 0.985 . S
C744 C745 1.363 . S
C744 C750 1.379 1_655 S
C744 N752 1.356 . S
C745 C744 1.363 . S
C745 C751 1.363 . S
C746 C747 1.363 . S
C746 C751 1.379 1_455 S
C746 N753 1.356 . S
C747 C746 1.363 . S
C747 C750 1.363 . S
N748 C750 1.356 . S
N748 H760 0.984 . S
N748 H761 0.985 . S
N749 C751 1.356 . S
N749 H754 0.984 . S
N749 H755 0.985 . S
C750 C744 1.379 1_455 S
C750 C747 1.363 . S
C750 N748 1.356 . S
C751 C745 1.363 . S
C751 C746 1.379 1_655 S
C751 N749 1.356 . S
N752 C744 1.356 . S
N752 H758 0.984 . S
N752 H759 0.984 . S
N753 C746 1.356 . S
N753 H756 0.984 . S
N753 H757 0.985 . S
H754 N749 0.984 . S
H755 N749 0.985 . S
H756 N753 0.984 . S
H757 N753 0.985 . S
H758 N752 0.984 . S
H759 N752 0.984 . S
H760 N748 0.984 . S
H761 N748 0.985 . S
C762 C763 1.363 . S
C762 C768 1.379 . S
C762 N770 1.356 . S
C763 C762 1.363 . S
C763 C769 1.363 . S
C764 C765 1.363 . S
C764 C769 1.379 . S
C764 N771 1.356 . S
C765 C764 1.363 . S
C765 C768 1.363 . S
N766 C768 1.356 . S
N766 H778 0.984 . S
N766 H779 0.985 . S
N767 C769 1.356 . S
N767 H772 0.984 . S
N767 H773 0.985 . S
C768 C762 1.379 . S
C768 C765 1.363 . S
C768 N766 1.356 . S
C769 C763 1.363 . S
C769 C764 1.379 . S
C769 N767 1.356 . S
N770 C762 1.356 . S
N770 H776 0.984 . S
N770 H777 0.984 . S
N771 C764 1.356 . S
N771 H774 0.984 . S
N771 H775 0.985 . S
H772 N767 0.984 . S
H773 N767 0.985 . S
H774 N771 0.984 . S
H775 N771 0.985 . S
H776 N770 0.984 . S
H777 N770 0.984 . S
H778 N766 0.984 . S
H779 N766 0.985 . S
C780 C781 1.363 . S
C780 C786 1.379 1_455 S
C780 N788 1.356 . S
C781 C780 1.363 . S
C781 C787 1.363 . S
C782 C783 1.363 . S
C782 C787 1.379 1_655 S
C782 N789 1.356 . S
C783 C782 1.363 . S
C783 C786 1.363 . S
N784 C786 1.356 . S
N784 H796 0.984 . S
N784 H797 0.985 . S
N785 C787 1.356 . S
N785 H790 0.984 . S
N785 H791 0.985 . S
C786 C780 1.379 1_655 S
C786 C783 1.363 . S
C786 N784 1.356 . S
C787 C781 1.363 . S
C787 C782 1.379 1_455 S
C787 N785 1.356 . S
N788 C780 1.356 . S
N788 H794 0.984 . S
N788 H795 0.984 . S
N789 C782 1.356 . S
N789 H792 0.984 . S
N789 H793 0.985 . S
H790 N785 0.984 . S
H791 N785 0.985 . S
H792 N789 0.984 . S
H793 N789 0.985 . S
H794 N788 0.984 . S
H795 N788 0.984 . S
H796 N784 0.984 . S
H797 N784 0.985 . S
C798 C799 1.363 . S
C798 C804 1.379 . S
C798 N806 1.356 . S
C799 C798 1.363 . S
C799 C805 1.363 . S
C800 C801 1.363 . S
C800 C805 1.379 . S
C800 N807 1.356 . S
C801 C800 1.363 . S
C801 C804 1.363 . S
N802 C804 1.356 . S
N802 H814 0.984 . S
N802 H815 0.985 . S
N803 C805 1.356 . S
N803 H808 0.984 . S
N803 H809 0.985 . S
C804 C798 1.379 . S
C804 C801 1.363 . S
C804 N802 1.356 . S
C805 C799 1.363 . S
C805 C800 1.379 . S
C805 N803 1.356 . S
N806 C798 1.356 . S
N806 H812 0.984 . S
N806 H813 0.984 . S
N807 C800 1.356 . S
N807 H810 0.984 . S
N807 H811 0.985 . S
H808 N803 0.984 . S
H809 N803 0.985 . S
H810 N807 0.984 . S
H811 N807 0.985 . S
H812 N806 0.984 . S
H813 N806 0.984 . S
H814 N802 0.984 . S
H815 N802 0.985 . S
C816 C817 1.363 . S
C816 C822 1.379 1_565 S
C816 N824 1.356 . S
C817 C816 1.363 . S
C817 C823 1.363 . S
C818 C819 1.363 . S
C818 C823 1.379 1_545 S
C818 N825 1.356 . S
C819 C818 1.363 . S
C819 C822 1.363 . S
N820 C822 1.356 . S
N820 H832 0.984 . S
N820 H833 0.985 . S
N821 C823 1.356 . S
N821 H826 0.984 . S
N821 H827 0.985 . S
C822 C816 1.379 1_545 S
C822 C819 1.363 . S
C822 N820 1.356 . S
C823 C817 1.363 . S
C823 C818 1.379 1_565 S
C823 N821 1.356 . S
N824 C816 1.356 . S
N824 H830 0.984 . S
N824 H831 0.984 . S
N825 C818 1.356 . S
N825 H828 0.984 . S
N825 H829 0.985 . S
H826 N821 0.984 . S
H827 N821 0.985 . S
H828 N825 0.984 . S
H829 N825 0.985 . S
H830 N824 0.984 . S
H831 N824 0.984 . S
H832 N820 0.984 . S
H833 N820 0.985 . S
C834 C835 1.363 . S
C834 C840 1.379 . S
C834 N842 1.356 . S
C835 C834 1.363 . S
C835 C841 1.363 . S
C836 C837 1.363 . S
C836 C841 1.379 . S
C836 N843 1.356 . S
C837 C836 1.363 . S
C837 C840 1.363 . S
N838 C840 1.356 . S
N838 H850 0.984 . S
N838 H851 0.985 . S
N839 C841 1.356 . S
N839 H844 0.984 . S
N839 H845 0.985 . S
C840 C834 1.379 . S
C840 C837 1.363 . S
C840 N838 1.356 . S
C841 C835 1.363 . S
C841 C836 1.379 . S
C841 N839 1.356 . S
N842 C834 1.356 . S
N842 H848 0.984 . S
N842 H849 0.984 . S
N843 C836 1.356 . S
N843 H846 0.984 . S
N843 H847 0.985 . S
H844 N839 0.984 . S
H845 N839 0.985 . S
H846 N843 0.984 . S
H847 N843 0.985 . S
H848 N842 0.984 . S
H849 N842 0.984 . S
H850 N838 0.984 . S
H851 N838 0.985 . S
C852 C853 1.363 . S
C852 C858 1.379 1_545 S
C852 N860 1.356 . S
C853 C852 1.363 . S
C853 C859 1.363 . S
C854 C855 1.363 . S
C854 C859 1.379 1_565 S
C854 N861 1.356 . S
C855 C854 1.363 . S
C855 C858 1.363 . S
N856 C858 1.356 . S
N856 H868 0.984 . S
N856 H869 0.985 . S
N857 C859 1.356 . S
N857 H862 0.984 . S
N857 H863 0.985 . S
C858 C852 1.379 1_565 S
C858 C855 1.363 . S
C858 N856 1.356 . S
C859 C853 1.363 . S
C859 C854 1.379 1_545 S
C859 N857 1.356 . S
N860 C852 1.356 . S
N860 H866 0.984 . S
N860 H867 0.984 . S
N861 C854 1.356 . S
N861 H864 0.984 . S
N861 H865 0.985 . S
H862 N857 0.984 . S
H863 N857 0.985 . S
H864 N861 0.984 . S
H865 N861 0.985 . S
H866 N860 0.984 . S
H867 N860 0.984 . S
H868 N856 0.984 . S
H869 N856 0.985 . S
C870 C871 1.363 . S
C870 C876 1.379 . S
C870 N878 1.356 . S
C871 C870 1.363 . S
C871 C877 1.363 . S
C872 C873 1.363 . S
C872 C877 1.379 . S
C872 N879 1.356 . S
C873 C872 1.363 . S
C873 C876 1.363 . S
N874 C876 1.356 . S
N874 H886 0.984 . S
N874 H887 0.985 . S
N875 C877 1.356 . S
N875 H880 0.984 . S
N875 H881 0.985 . S
C876 C870 1.379 . S
C876 C873 1.363 . S
C876 N874 1.356 . S
C877 C871 1.363 . S
C877 C872 1.379 . S
C877 N875 1.356 . S
N878 C870 1.356 . S
N878 H884 0.984 . S
N878 H885 0.984 . S
N879 C872 1.356 . S
N879 H882 0.984 . S
N879 H883 0.985 . S
H880 N875 0.984 . S
H881 N875 0.985 . S
H882 N879 0.984 . S
H883 N879 0.985 . S
H884 N878 0.984 . S
H885 N878 0.984 . S
H886 N874 0.984 . S
H887 N874 0.985 . S
C888 C889 1.363 . S
C888 C894 1.379 1_545 S
C888 N896 1.356 . S
C889 C888 1.363 . S
C889 C895 1.363 . S
C890 C891 1.363 . S
C890 C895 1.379 1_565 S
C890 N897 1.356 . S
C891 C890 1.363 . S
C891 C894 1.363 . S
N892 C894 1.356 . S
N892 H904 0.984 . S
N892 H905 0.985 . S
N893 C895 1.356 . S
N893 H898 0.984 . S
N893 H899 0.985 . S
C894 C888 1.379 1_565 S
C894 C891 1.363 . S
C894 N892 1.356 . S
C895 C889 1.363 . S
C895 C890 1.379 1_545 S
C895 N893 1.356 . S
N896 C888 1.356 . S
N896 H902 0.984 . S
N896 H903 0.984 . S
N897 C890 1.356 . S
N897 H900 0.984 . S
N897 H901 0.985 . S
H898 N893 0.984 . S
H899 N893 0.985 . S
H900 N897 0.984 . S
H901 N897 0.985 . S
H902 N896 0.984 . S
H903 N896 0.984 . S
H904 N892 0.984 . S
H905 N892 0.985 . S
C906 C907 1.363 . S
C906 C912 1.379 . S
C906 N914 1.356 . S
C907 C906 1.363 . S
C907 C913 1.363 . S
C908 C909 1.363 . S
C908 C913 1.379 . S
C908 N915 1.356 . S
C909 C908 1.363 . S
C909 C912 1.363 . S
N910 C912 1.356 . S
N910 H922 0.984 . S
N910 H923 0.985 . S
N911 C913 1.356 . S
N911 H916 0.984 . S
N911 H917 0.985 . S
C912 C906 1.379 . S
C912 C909 1.363 . S
C912 N910 1.356 . S
C913 C907 1.363 . S
C913 C908 1.379 . S
C913 N911 1.356 . S
N914 C906 1.356 . S
N914 H920 0.984 . S
N914 H921 0.984 . S
N915 C908 1.356 . S
N915 H918 0.984 . S
N915 H919 0.985 . S
H916 N911 0.984 . S
H917 N911 0.985 . S
H918 N915 0.984 . S
H919 N915 0.985 . S
H920 N914 0.984 . S
H921 N914 0.984 . S
H922 N910 0.984 . S
H923 N910 0.985 . S
C924 C925 1.363 . S
C924 C930 1.379 1_545 S
C924 N932 1.356 . S
C925 C924 1.363 . S
C925 C931 1.363 . S
C926 C927 1.363 . S
C926 C931 1.379 1_565 S
C926 N933 1.356 . S
C927 C926 1.363 . S
C927 C930 1.363 . S
N928 C930 1.356 . S
N928 H940 0.984 . S
N928 H941 0.985 . S
N929 C931 1.356 . S
N929 H934 0.984 . S
N929 H935 0.985 . S
C930 C924 1.379 1_565 S
C930 C927 1.363 . S
C930 N928 1.356 . S
C931 C925 1.363 . S
C931 C926 1.379 1_545 S
C931 N929 1.356 . S
N932 C924 1.356 . S
N932 H938 0.984 . S
N932 H939 0.984 . S
N933 C926 1.356 . S
N933 H936 0.984 . S
N933 H937 0.985 . S
H934 N929 0.984 . S
H935 N929 0.985 . S
H936 N933 0.984 . S
H937 N933 0.985 . S
H938 N932 0.984 . S
H939 N932 0.984 . S
H940 N928 0.984 . S
H941 N928 0.985 . S
C942 C943 1.363 . S
C942 C948 1.379 . S
C942 N950 1.356 . S
C943 C942 1.363 . S
C943 C949 1.363 . S
C944 C945 1.363 . S
C944 C949 1.379 . S
C944 N951 1.356 . S
C945 C944 1.363 . S
C945 C948 1.363 . S
N946 C948 1.356 . S
N946 H958 0.984 . S
N946 H959 0.985 . S
N947 C949 1.356 . S
N947 H952 0.984 . S
N947 H953 0.985 . S
C948 C942 1.379 . S
C948 C945 1.363 . S
C948 N946 1.356 . S
C949 C943 1.363 . S
C949 C944 1.379 . S
C949 N947 1.356 . S
N950 C942 1.356 . S
N950 H956 0.984 . S
N950 H957 0.984 . S
N951 C944 1.356 . S
N951 H954 0.984 . S
N951 H955 0.985 . S
H952 N947 0.984 . S
H953 N947 0.985 . S
H954 N951 0.984 . S
H955 N951 0.985 . S
H956 N950 0.984 . S
H957 N950 0.984 . S
H958 N946 0.984 . S
H959 N946 0.985 . S
C960 C961 1.363 . S
C960 C966 1.379 1_554 S
C960 N968 1.356 . S
C961 C960 1.363 . S
C961 C967 1.363 . S
C962 C963 1.363 . S
C962 C967 1.379 1_556 S
C962 N969 1.356 . S
C963 C962 1.363 . S
C963 C966 1.363 . S
N964 C966 1.356 . S
N964 H976 0.984 . S
N964 H977 0.985 . S
N965 C967 1.356 . S
N965 H970 0.984 . S
N965 H971 0.985 . S
C966 C960 1.379 1_556 S
C966 C963 1.363 . S
C966 N964 1.356 . S
C967 C961 1.363 . S
C967 C962 1.379 1_554 S
C967 N965 1.356 . S
N968 C960 1.356 . S
N968 H974 0.984 . S
N968 H975 0.984 . S
N969 C962 1.356 . S
N969 H972 0.984 . S
N969 H973 0.985 . S
H970 N965 0.984 . S
H971 N965 0.985 . S
H972 N969 0.984 . S
H973 N969 0.985 . S
H974 N968 0.984 . S
H975 N968 0.984 . S
H976 N964 0.984 . S
H977 N964 0.985 . S
C978 C979 1.363 . S
C978 C984 1.379 1_554 S
C978 N986 1.356 . S
C979 C978 1.363 . S
C979 C985 1.363 . S
C980 C981 1.363 . S
C980 C985 1.379 1_556 S
C980 N987 1.356 . S
C981 C980 1.363 . S
C981 C984 1.363 . S
N982 C984 1.356 . S
N982 H994 0.984 . S
N982 H995 0.985 . S
N983 C985 1.356 . S
N983 H988 0.984 . S
N983 H989 0.985 . S
C984 C978 1.379 1_556 S
C984 C981 1.363 . S
C984 N982 1.356 . S
C985 C979 1.363 . S
C985 C980 1.379 1_554 S
C985 N983 1.356 . S
N986 C978 1.356 . S
N986 H992 0.984 . S
N986 H993 0.984 . S
N987 C980 1.356 . S
N987 H990 0.984 . S
N987 H991 0.985 . S
H988 N983 0.984 . S
H989 N983 0.985 . S
H990 N987 0.984 . S
H991 N987 0.985 . S
H992 N986 0.984 . S
H993 N986 0.984 . S
H994 N982 0.984 . S
H995 N982 0.985 . S
C996 C997 1.363 . S
C996 C1002 1.379 . S
C996 N1004 1.356 . S
C997 C996 1.363 . S
C997 C1003 1.363 . S
C998 C999 1.363 . S
C998 C1003 1.379 . S
C998 N1005 1.356 . S
C999 C998 1.363 . S
C999 C1002 1.363 . S
N1000 C1002 1.356 . S
N1000 H1012 0.984 . S
N1000 H1013 0.985 . S
N1001 C1003 1.356 . S
N1001 H1006 0.984 . S
N1001 H1007 0.985 . S
C1002 C996 1.379 . S
C1002 C999 1.363 . S
C1002 N1000 1.356 . S
C1003 C997 1.363 . S
C1003 C998 1.379 . S
C1003 N1001 1.356 . S
N1004 C996 1.356 . S
N1004 H1010 0.984 . S
N1004 H1011 0.984 . S
N1005 C998 1.356 . S
N1005 H1008 0.984 . S
N1005 H1009 0.985 . S
H1006 N1001 0.984 . S
H1007 N1001 0.985 . S
H1008 N1005 0.984 . S
H1009 N1005 0.985 . S
H1010 N1004 0.984 . S
H1011 N1004 0.984 . S
H1012 N1000 0.984 . S
H1013 N1000 0.985 . S
C1014 C1015 1.363 . S
C1014 C1020 1.379 1_554 S
C1014 N1022 1.356 . S
C1015 C1014 1.363 . S
C1015 C1021 1.363 . S
C1016 C1017 1.363 . S
C1016 C1021 1.379 1_556 S
C1016 N1023 1.356 . S
C1017 C1016 1.363 . S
C1017 C1020 1.363 . S
N1018 C1020 1.356 . S
N1018 H1030 0.984 . S
N1018 H1031 0.985 . S
N1019 C1021 1.356 . S
N1019 H1024 0.984 . S
N1019 H1025 0.985 . S
C1020 C1014 1.379 1_556 S
C1020 C1017 1.363 . S
C1020 N1018 1.356 . S
C1021 C1015 1.363 . S
C1021 C1016 1.379 1_554 S
C1021 N1019 1.356 . S
N1022 C1014 1.356 . S
N1022 H1028 0.984 . S
N1022 H1029 0.984 . S
N1023 C1016 1.356 . S
N1023 H1026 0.984 . S
N1023 H1027 0.985 . S
H1024 N1019 0.984 . S
H1025 N1019 0.985 . S
H1026 N1023 0.984 . S
H1027 N1023 0.985 . S
H1028 N1022 0.984 . S
H1029 N1022 0.984 . S
H1030 N1018 0.984 . S
H1031 N1018 0.985 . S
C1032 C1033 1.363 . S
C1032 C1038 1.379 . S
C1032 N1040 1.356 . S
C1033 C1032 1.363 . S
C1033 C1039 1.363 . S
C1034 C1035 1.363 . S
C1034 C1039 1.379 . S
C1034 N1041 1.356 . S
C1035 C1034 1.363 . S
C1035 C1038 1.363 . S
N1036 C1038 1.356 . S
N1036 H1048 0.984 . S
N1036 H1049 0.985 . S
N1037 C1039 1.356 . S
N1037 H1042 0.984 . S
N1037 H1043 0.985 . S
C1038 C1032 1.379 . S
C1038 C1035 1.363 . S
C1038 N1036 1.356 . S
C1039 C1033 1.363 . S
C1039 C1034 1.379 . S
C1039 N1037 1.356 . S
N1040 C1032 1.356 . S
N1040 H1046 0.984 . S
N1040 H1047 0.984 . S
N1041 C1034 1.356 . S
N1041 H1044 0.984 . S
N1041 H1045 0.985 . S
H1042 N1037 0.984 . S
H1043 N1037 0.985 . S
H1044 N1041 0.984 . S
H1045 N1041 0.985 . S
H1046 N1040 0.984 . S
H1047 N1040 0.984 . S
H1048 N1036 0.984 . S
H1049 N1036 0.985 . S
C1050 C1051 1.363 . S
C1050 C1056 1.379 1_554 S
C1050 N1058 1.356 . S
C1051 C1050 1.363 . S
C1051 C1057 1.363 . S
C1052 C1053 1.363 . S
C1052 C1057 1.379 1_556 S
C1052 N1059 1.356 . S
C1053 C1052 1.363 . S
C1053 C1056 1.363 . S
N1054 C1056 1.356 . S
N1054 H1066 0.984 . S
N1054 H1067 0.985 . S
N1055 C1057 1.356 . S
N1055 H1060 0.984 . S
N1055 H1061 0.985 . S
C1056 C1050 1.379 1_556 S
C1056 C1053 1.363 . S
C1056 N1054 1.356 . S
C1057 C1051 1.363 . S
C1057 C1052 1.379 1_554 S
C1057 N1055 1.356 . S
N1058 C1050 1.356 . S
N1058 H1064 0.984 . S
N1058 H1065 0.984 . S
N1059 C1052 1.356 . S
N1059 H1062 0.984 . S
N1059 H1063 0.985 . S
H1060 N1055 0.984 . S
H1061 N1055 0.985 . S
H1062 N1059 0.984 . S
H1063 N1059 0.985 . S
H1064 N1058 0.984 . S
H1065 N1058 0.984 . S
H1066 N1054 0.984 . S
H1067 N1054 0.985 . S
C1068 C1069 1.363 . S
C1068 C1074 1.379 . S
C1068 N1076 1.356 . S
C1069 C1068 1.363 . S
C1069 C1075 1.363 . S
C1070 C1071 1.363 . S
C1070 C1075 1.379 . S
C1070 N1077 1.356 . S
C1071 C1070 1.363 . S
C1071 C1074 1.363 . S
N1072 C1074 1.356 . S
N1072 H1084 0.984 . S
N1072 H1085 0.985 . S
N1073 C1075 1.356 . S
N1073 H1078 0.984 . S
N1073 H1079 0.985 . S
C1074 C1068 1.379 . S
C1074 C1071 1.363 . S
C1074 N1072 1.356 . S
C1075 C1069 1.363 . S
C1075 C1070 1.379 . S
C1075 N1073 1.356 . S
N1076 C1068 1.356 . S
N1076 H1082 0.984 . S
N1076 H1083 0.984 . S
N1077 C1070 1.356 . S
N1077 H1080 0.984 . S
N1077 H1081 0.985 . S
H1078 N1073 0.984 . S
H1079 N1073 0.985 . S
H1080 N1077 0.984 . S
H1081 N1077 0.985 . S
H1082 N1076 0.984 . S
H1083 N1076 0.984 . S
H1084 N1072 0.984 . S
H1085 N1072 0.985 . S
C1086 C1087 1.363 . S
C1086 C1092 1.379 . S
C1086 N1094 1.356 . S
C1087 C1086 1.363 . S
C1087 C1093 1.363 . S
C1088 C1089 1.363 . S
C1088 C1093 1.379 . S
C1088 N1095 1.356 . S
C1089 C1088 1.363 . S
C1089 C1092 1.363 . S
N1090 C1092 1.356 . S
N1090 H1102 0.984 . S
N1090 H1103 0.985 . S
N1091 C1093 1.356 . S
N1091 H1096 0.984 . S
N1091 H1097 0.985 . S
C1092 C1086 1.379 . S
C1092 C1089 1.363 . S
C1092 N1090 1.356 . S
C1093 C1087 1.363 . S
C1093 C1088 1.379 . S
C1093 N1091 1.356 . S
N1094 C1086 1.356 . S
N1094 H1100 0.984 . S
N1094 H1101 0.984 . S
N1095 C1088 1.356 . S
N1095 H1098 0.984 . S
N1095 H1099 0.985 . S
H1096 N1091 0.984 . S
H1097 N1091 0.985 . S
H1098 N1095 0.984 . S
H1099 N1095 0.985 . S
H1100 N1094 0.984 . S
H1101 N1094 0.984 . S
H1102 N1090 0.984 . S
H1103 N1090 0.985 . S
C1104 C1105 1.363 . S
C1104 C1110 1.379 . S
C1104 N1112 1.356 . S
C1105 C1104 1.363 . S
C1105 C1111 1.363 . S
C1106 C1107 1.363 . S
C1106 C1111 1.379 . S
C1106 N1113 1.356 . S
C1107 C1106 1.363 . S
C1107 C1110 1.363 . S
N1108 C1110 1.356 . S
N1108 H1120 0.984 . S
N1108 H1121 0.985 . S
N1109 C1111 1.356 . S
N1109 H1114 0.984 . S
N1109 H1115 0.985 . S
C1110 C1104 1.379 . S
C1110 C1107 1.363 . S
C1110 N1108 1.356 . S
C1111 C1105 1.363 . S
C1111 C1106 1.379 . S
C1111 N1109 1.356 . S
N1112 C1104 1.356 . S
N1112 H1118 0.984 . S
N1112 H1119 0.984 . S
N1113 C1106 1.356 . S
N1113 H1116 0.984 . S
N1113 H1117 0.985 . S
H1114 N1109 0.984 . S
H1115 N1109 0.985 . S
H1116 N1113 0.984 . S
H1117 N1113 0.985 . S
H1118 N1112 0.984 . S
H1119 N1112 0.984 . S
H1120 N1108 0.984 . S
H1121 N1108 0.985 . S
C1122 C1123 1.363 . S
C1122 C1128 1.379 . S
C1122 N1130 1.356 . S
C1123 C1122 1.363 . S
C1123 C1129 1.363 . S
C1124 C1125 1.363 . S
C1124 C1129 1.379 . S
C1124 N1131 1.356 . S
C1125 C1124 1.363 . S
C1125 C1128 1.363 . S
N1126 C1128 1.356 . S
N1126 H1138 0.984 . S
N1126 H1139 0.985 . S
N1127 C1129 1.356 . S
N1127 H1132 0.984 . S
N1127 H1133 0.985 . S
C1128 C1122 1.379 . S
C1128 C1125 1.363 . S
C1128 N1126 1.356 . S
C1129 C1123 1.363 . S
C1129 C1124 1.379 . S
C1129 N1127 1.356 . S
N1130 C1122 1.356 . S
N1130 H1136 0.984 . S
N1130 H1137 0.984 . S
N1131 C1124 1.356 . S
N1131 H1134 0.984 . S
N1131 H1135 0.985 . S
H1132 N1127 0.984 . S
H1133 N1127 0.985 . S
H1134 N1131 0.984 . S
H1135 N1131 0.985 . S
H1136 N1130 0.984 . S
H1137 N1130 0.984 . S
H1138 N1126 0.984 . S
H1139 N1126 0.985 . S
C1140 C1141 1.363 . S
C1140 C1146 1.379 . S
C1140 N1148 1.356 . S
C1141 C1140 1.363 . S
C1141 C1147 1.363 . S
C1142 C1143 1.363 . S
C1142 C1147 1.379 . S
C1142 N1149 1.356 . S
C1143 C1142 1.363 . S
C1143 C1146 1.363 . S
N1144 C1146 1.356 . S
N1144 H1156 0.984 . S
N1144 H1157 0.985 . S
N1145 C1147 1.356 . S
N1145 H1150 0.984 . S
N1145 H1151 0.985 . S
C1146 C1140 1.379 . S
C1146 C1143 1.363 . S
C1146 N1144 1.356 . S
C1147 C1141 1.363 . S
C1147 C1142 1.379 . S
C1147 N1145 1.356 . S
N1148 C1140 1.356 . S
N1148 H1154 0.984 . S
N1148 H1155 0.984 . S
N1149 C1142 1.356 . S
N1149 H1152 0.984 . S
N1149 H1153 0.985 . S
H1150 N1145 0.984 . S
H1151 N1145 0.985 . S
H1152 N1149 0.984 . S
H1153 N1149 0.985 . S
H1154 N1148 0.984 . S
H1155 N1148 0.984 . S
H1156 N1144 0.984 . S
H1157 N1144 0.985 . S
C1158 C1159 1.363 . S
C1158 C1164 1.379 . S
C1158 N1166 1.356 . S
C1159 C1158 1.363 . S
C1159 C1165 1.363 . S
C1160 C1161 1.363 . S
C1160 C1165 1.379 . S
C1160 N1167 1.356 . S
C1161 C1160 1.363 . S
C1161 C1164 1.363 . S
N1162 C1164 1.356 . S
N1162 H1174 0.984 . S
N1162 H1175 0.985 . S
N1163 C1165 1.356 . S
N1163 H1168 0.984 . S
N1163 H1169 0.985 . S
C1164 C1158 1.379 . S
C1164 C1161 1.363 . S
C1164 N1162 1.356 . S
C1165 C1159 1.363 . S
C1165 C1160 1.379 . S
C1165 N1163 1.356 . S
N1166 C1158 1.356 . S
N1166 H1172 0.984 . S
N1166 H1173 0.984 . S
N1167 C1160 1.356 . S
N1167 H1170 0.984 . S
N1167 H1171 0.985 . S
H1168 N1163 0.984 . S
H1169 N1163 0.985 . S
H1170 N1167 0.984 . S
H1171 N1167 0.985 . S
H1172 N1166 0.984 . S
H1173 N1166 0.984 . S
H1174 N1162 0.984 . S
H1175 N1162 0.985 . S
C1176 C1177 1.363 . S
C1176 C1182 1.379 . S
C1176 N1184 1.356 . S
C1177 C1176 1.363 . S
C1177 C1183 1.363 . S
C1178 C1179 1.363 . S
C1178 C1183 1.379 . S
C1178 N1185 1.356 . S
C1179 C1178 1.363 . S
C1179 C1182 1.363 . S
N1180 C1182 1.356 . S
N1180 H1192 0.984 . S
N1180 H1193 0.985 . S
N1181 C1183 1.356 . S
N1181 H1186 0.984 . S
N1181 H1187 0.985 . S
C1182 C1176 1.379 . S
C1182 C1179 1.363 . S
C1182 N1180 1.356 . S
C1183 C1177 1.363 . S
C1183 C1178 1.379 . S
C1183 N1181 1.356 . S
N1184 C1176 1.356 . S
N1184 H1190 0.984 . S
N1184 H1191 0.984 . S
N1185 C1178 1.356 . S
N1185 H1188 0.984 . S
N1185 H1189 0.985 . S
H1186 N1181 0.984 . S
H1187 N1181 0.985 . S
H1188 N1185 0.984 . S
H1189 N1185 0.985 . S
H1190 N1184 0.984 . S
H1191 N1184 0.984 . S
H1192 N1180 0.984 . S
H1193 N1180 0.985 . S
C1194 C1195 1.363 . S
C1194 C1200 1.379 . S
C1194 N1202 1.356 . S
C1195 C1194 1.363 . S
C1195 C1201 1.363 . S
C1196 C1197 1.363 . S
C1196 C1201 1.379 . S
C1196 N1203 1.356 . S
C1197 C1196 1.363 . S
C1197 C1200 1.363 . S
N1198 C1200 1.356 . S
N1198 H1210 0.984 . S
N1198 H1211 0.985 . S
N1199 C1201 1.356 . S
N1199 H1204 0.984 . S
N1199 H1205 0.985 . S
C1200 C1194 1.379 . S
C1200 C1197 1.363 . S
C1200 N1198 1.356 . S
C1201 C1195 1.363 . S
C1201 C1196 1.379 . S
C1201 N1199 1.356 . S
N1202 C1194 1.356 . S
N1202 H1208 0.984 . S
N1202 H1209 0.984 . S
N1203 C1196 1.356 . S
N1203 H1206 0.984 . S
N1203 H1207 0.985 . S
H1204 N1199 0.984 . S
H1205 N1199 0.985 . S
H1206 N1203 0.984 . S
H1207 N1203 0.985 . S
H1208 N1202 0.984 . S
H1209 N1202 0.984 . S
H1210 N1198 0.984 . S
H1211 N1198 0.985 . S
C1212 C1213 1.363 . S
C1212 C1218 1.379 . S
C1212 N1220 1.356 . S
C1213 C1212 1.363 . S
C1213 C1219 1.363 . S
C1214 C1215 1.363 . S
C1214 C1219 1.379 . S
C1214 N1221 1.356 . S
C1215 C1214 1.363 . S
C1215 C1218 1.363 . S
N1216 C1218 1.356 . S
N1216 H1228 0.984 . S
N1216 H1229 0.985 . S
N1217 C1219 1.356 . S
N1217 H1222 0.984 . S
N1217 H1223 0.985 . S
C1218 C1212 1.379 . S
C1218 C1215 1.363 . S
C1218 N1216 1.356 . S
C1219 C1213 1.363 . S
C1219 C1214 1.379 . S
C1219 N1217 1.356 . S
N1220 C1212 1.356 . S
N1220 H1226 0.984 . S
N1220 H1227 0.984 . S
N1221 C1214 1.356 . S
N1221 H1224 0.984 . S
N1221 H1225 0.985 . S
H1222 N1217 0.984 . S
H1223 N1217 0.985 . S
H1224 N1221 0.984 . S
H1225 N1221 0.985 . S
H1226 N1220 0.984 . S
H1227 N1220 0.984 . S
H1228 N1216 0.984 . S
H1229 N1216 0.985 . S
C1230 C1231 1.363 . S
C1230 C1236 1.379 . S
C1230 N1238 1.356 . S
C1231 C1230 1.363 . S
C1231 C1237 1.363 . S
C1232 C1233 1.363 . S
C1232 C1237 1.379 . S
C1232 N1239 1.356 . S
C1233 C1232 1.363 . S
C1233 C1236 1.363 . S
N1234 C1236 1.356 . S
N1234 H1246 0.984 . S
N1234 H1247 0.985 . S
N1235 C1237 1.356 . S
N1235 H1240 0.984 . S
N1235 H1241 0.985 . S
C1236 C1230 1.379 . S
C1236 C1233 1.363 . S
C1236 N1234 1.356 . S
C1237 C1231 1.363 . S
C1237 C1232 1.379 . S
C1237 N1235 1.356 . S
N1238 C1230 1.356 . S
N1238 H1244 0.984 . S
N1238 H1245 0.984 . S
N1239 C1232 1.356 . S
N1239 H1242 0.984 . S
N1239 H1243 0.985 . S
H1240 N1235 0.984 . S
H1241 N1235 0.985 . S
H1242 N1239 0.984 . S
H1243 N1239 0.985 . S
H1244 N1238 0.984 . S
H1245 N1238 0.984 . S
H1246 N1234 0.984 . S
H1247 N1234 0.985 . S
C1248 C1249 1.363 . S
C1248 C1254 1.379 . S
C1248 N1256 1.356 . S
C1249 C1248 1.363 . S
C1249 C1255 1.363 . S
C1250 C1251 1.363 . S
C1250 C1255 1.379 . S
C1250 N1257 1.356 . S
C1251 C1250 1.363 . S
C1251 C1254 1.363 . S
N1252 C1254 1.356 . S
N1252 H1264 0.984 . S
N1252 H1265 0.985 . S
N1253 C1255 1.356 . S
N1253 H1258 0.984 . S
N1253 H1259 0.985 . S
C1254 C1248 1.379 . S
C1254 C1251 1.363 . S
C1254 N1252 1.356 . S
C1255 C1249 1.363 . S
C1255 C1250 1.379 . S
C1255 N1253 1.356 . S
N1256 C1248 1.356 . S
N1256 H1262 0.984 . S
N1256 H1263 0.984 . S
N1257 C1250 1.356 . S
N1257 H1260 0.984 . S
N1257 H1261 0.985 . S
H1258 N1253 0.984 . S
H1259 N1253 0.985 . S
H1260 N1257 0.984 . S
H1261 N1257 0.985 . S
H1262 N1256 0.984 . S
H1263 N1256 0.984 . S
H1264 N1252 0.984 . S
H1265 N1252 0.985 . S
C1266 C1267 1.363 . S
C1266 C1272 1.379 . S
C1266 N1274 1.356 . S
C1267 C1266 1.363 . S
C1267 C1273 1.363 . S
C1268 C1269 1.363 . S
C1268 C1273 1.379 . S
C1268 N1275 1.356 . S
C1269 C1268 1.363 . S
C1269 C1272 1.363 . S
N1270 C1272 1.356 . S
N1270 H1282 0.984 . S
N1270 H1283 0.985 . S
N1271 C1273 1.356 . S
N1271 H1276 0.984 . S
N1271 H1277 0.985 . S
C1272 C1266 1.379 . S
C1272 C1269 1.363 . S
C1272 N1270 1.356 . S
C1273 C1267 1.363 . S
C1273 C1268 1.379 . S
C1273 N1271 1.356 . S
N1274 C1266 1.356 . S
N1274 H1280 0.984 . S
N1274 H1281 0.984 . S
N1275 C1268 1.356 . S
N1275 H1278 0.984 . S
N1275 H1279 0.985 . S
H1276 N1271 0.984 . S
H1277 N1271 0.985 . S
H1278 N1275 0.984 . S
H1279 N1275 0.985 . S
H1280 N1274 0.984 . S
H1281 N1274 0.984 . S
H1282 N1270 0.984 . S
H1283 N1270 0.985 . S
C1284 C1285 1.363 . S
C1284 C1290 1.379 . S
C1284 N1292 1.356 . S
C1285 C1284 1.363 . S
C1285 C1291 1.363 . S
C1286 C1287 1.363 . S
C1286 C1291 1.379 . S
C1286 N1293 1.356 . S
C1287 C1286 1.363 . S
C1287 C1290 1.363 . S
N1288 C1290 1.356 . S
N1288 H1300 0.984 . S
N1288 H1301 0.985 . S
N1289 C1291 1.356 . S
N1289 H1294 0.984 . S
N1289 H1295 0.985 . S
C1290 C1284 1.379 . S
C1290 C1287 1.363 . S
C1290 N1288 1.356 . S
C1291 C1285 1.363 . S
C1291 C1286 1.379 . S
C1291 N1289 1.356 . S
N1292 C1284 1.356 . S
N1292 H1298 0.984 . S
N1292 H1299 0.984 . S
N1293 C1286 1.356 . S
N1293 H1296 0.984 . S
N1293 H1297 0.985 . S
H1294 N1289 0.984 . S
H1295 N1289 0.985 . S
H1296 N1293 0.984 . S
H1297 N1293 0.985 . S
H1298 N1292 0.984 . S
H1299 N1292 0.984 . S
H1300 N1288 0.984 . S
H1301 N1288 0.985 . S
C1302 C1303 1.363 . S
C1302 C1308 1.379 . S
C1302 N1310 1.356 . S
C1303 C1302 1.363 . S
C1303 C1309 1.363 . S
C1304 C1305 1.363 . S
C1304 C1309 1.379 . S
C1304 N1311 1.356 . S
C1305 C1304 1.363 . S
C1305 C1308 1.363 . S
N1306 C1308 1.356 . S
N1306 H1318 0.984 . S
N1306 H1319 0.985 . S
N1307 C1309 1.356 . S
N1307 H1312 0.984 . S
N1307 H1313 0.985 . S
C1308 C1302 1.379 . S
C1308 C1305 1.363 . S
C1308 N1306 1.356 . S
C1309 C1303 1.363 . S
C1309 C1304 1.379 . S
C1309 N1307 1.356 . S
N1310 C1302 1.356 . S
N1310 H1316 0.984 . S
N1310 H1317 0.984 . S
N1311 C1304 1.356 . S
N1311 H1314 0.984 . S
N1311 H1315 0.985 . S
H1312 N1307 0.984 . S
H1313 N1307 0.985 . S
H1314 N1311 0.984 . S
H1315 N1311 0.985 . S
H1316 N1310 0.984 . S
H1317 N1310 0.984 . S
H1318 N1306 0.984 . S
H1319 N1306 0.985 . S
C1320 C1321 1.363 . S
C1320 C1326 1.379 . S
C1320 N1328 1.356 . S
C1321 C1320 1.363 . S
C1321 C1327 1.363 . S
C1322 C1323 1.363 . S
C1322 C1327 1.379 . S
C1322 N1329 1.356 . S
C1323 C1322 1.363 . S
C1323 C1326 1.363 . S
N1324 C1326 1.356 . S
N1324 H1336 0.984 . S
N1324 H1337 0.985 . S
N1325 C1327 1.356 . S
N1325 H1330 0.984 . S
N1325 H1331 0.985 . S
C1326 C1320 1.379 . S
C1326 C1323 1.363 . S
C1326 N1324 1.356 . S
C1327 C1321 1.363 . S
C1327 C1322 1.379 . S
C1327 N1325 1.356 . S
N1328 C1320 1.356 . S
N1328 H1334 0.984 . S
N1328 H1335 0.984 . S
N1329 C1322 1.356 . S
N1329 H1332 0.984 . S
N1329 H1333 0.985 . S
H1330 N1325 0.984 . S
H1331 N1325 0.985 . S
H1332 N1329 0.984 . S
H1333 N1329 0.985 . S
H1334 N1328 0.984 . S
H1335 N1328 0.984 . S
H1336 N1324 0.984 . S
H1337 N1324 0.985 . S
C1338 C1339 1.363 . S
C1338 C1344 1.379 . S
C1338 N1346 1.356 . S
C1339 C1338 1.363 . S
C1339 C1345 1.363 . S
C1340 C1341 1.363 . S
C1340 C1345 1.379 . S
C1340 N1347 1.356 . S
C1341 C1340 1.363 . S
C1341 C1344 1.363 . S
N1342 C1344 1.356 . S
N1342 H1354 0.984 . S
N1342 H1355 0.985 . S
N1343 C1345 1.356 . S
N1343 H1348 0.984 . S
N1343 H1349 0.985 . S
C1344 C1338 1.379 . S
C1344 C1341 1.363 . S
C1344 N1342 1.356 . S
C1345 C1339 1.363 . S
C1345 C1340 1.379 . S
C1345 N1343 1.356 . S
N1346 C1338 1.356 . S
N1346 H1352 0.984 . S
N1346 H1353 0.984 . S
N1347 C1340 1.356 . S
N1347 H1350 0.984 . S
N1347 H1351 0.985 . S
H1348 N1343 0.984 . S
H1349 N1343 0.985 . S
H1350 N1347 0.984 . S
H1351 N1347 0.985 . S
H1352 N1346 0.984 . S
H1353 N1346 0.984 . S
H1354 N1342 0.984 . S
H1355 N1342 0.985 . S
C1356 C1357 1.363 . S
C1356 C1362 1.379 . S
C1356 N1364 1.356 . S
C1357 C1356 1.363 . S
C1357 C1363 1.363 . S
C1358 C1359 1.363 . S
C1358 C1363 1.379 . S
C1358 N1365 1.356 . S
C1359 C1358 1.363 . S
C1359 C1362 1.363 . S
N1360 C1362 1.356 . S
N1360 H1372 0.984 . S
N1360 H1373 0.985 . S
N1361 C1363 1.356 . S
N1361 H1366 0.984 . S
N1361 H1367 0.985 . S
C1362 C1356 1.379 . S
C1362 C1359 1.363 . S
C1362 N1360 1.356 . S
C1363 C1357 1.363 . S
C1363 C1358 1.379 . S
C1363 N1361 1.356 . S
N1364 C1356 1.356 . S
N1364 H1370 0.984 . S
N1364 H1371 0.984 . S
N1365 C1358 1.356 . S
N1365 H1368 0.984 . S
N1365 H1369 0.985 . S
H1366 N1361 0.984 . S
H1367 N1361 0.985 . S
H1368 N1365 0.984 . S
H1369 N1365 0.985 . S
H1370 N1364 0.984 . S
H1371 N1364 0.984 . S
H1372 N1360 0.984 . S
H1373 N1360 0.985 . S
C1374 C1375 1.363 . S
C1374 C1380 1.379 . S
C1374 N1382 1.356 . S
C1375 C1374 1.363 . S
C1375 C1381 1.363 . S
C1376 C1377 1.363 . S
C1376 C1381 1.379 . S
C1376 N1383 1.356 . S
C1377 C1376 1.363 . S
C1377 C1380 1.363 . S
N1378 C1380 1.356 . S
N1378 H1390 0.984 . S
N1378 H1391 0.985 . S
N1379 C1381 1.356 . S
N1379 H1384 0.984 . S
N1379 H1385 0.985 . S
C1380 C1374 1.379 . S
C1380 C1377 1.363 . S
C1380 N1378 1.356 . S
C1381 C1375 1.363 . S
C1381 C1376 1.379 . S
C1381 N1379 1.356 . S
N1382 C1374 1.356 . S
N1382 H1388 0.984 . S
N1382 H1389 0.984 . S
N1383 C1376 1.356 . S
N1383 H1386 0.984 . S
N1383 H1387 0.985 . S
H1384 N1379 0.984 . S
H1385 N1379 0.985 . S
H1386 N1383 0.984 . S
H1387 N1383 0.985 . S
H1388 N1382 0.984 . S
H1389 N1382 0.984 . S
H1390 N1378 0.984 . S
H1391 N1378 0.985 . S
C1392 C1393 1.363 . S
C1392 C1398 1.379 . S
C1392 N1400 1.356 . S
C1393 C1392 1.363 . S
C1393 C1399 1.363 . S
C1394 C1395 1.363 . S
C1394 C1399 1.379 . S
C1394 N1401 1.356 . S
C1395 C1394 1.363 . S
C1395 C1398 1.363 . S
N1396 C1398 1.356 . S
N1396 H1408 0.984 . S
N1396 H1409 0.985 . S
N1397 C1399 1.356 . S
N1397 H1402 0.984 . S
N1397 H1403 0.985 . S
C1398 C1392 1.379 . S
C1398 C1395 1.363 . S
C1398 N1396 1.356 . S
C1399 C1393 1.363 . S
C1399 C1394 1.379 . S
C1399 N1397 1.356 . S
N1400 C1392 1.356 . S
N1400 H1406 0.984 . S
N1400 H1407 0.984 . S
N1401 C1394 1.356 . S
N1401 H1404 0.984 . S
N1401 H1405 0.985 . S
H1402 N1397 0.984 . S
H1403 N1397 0.985 . S
H1404 N1401 0.984 . S
H1405 N1401 0.985 . S
H1406 N1400 0.984 . S
H1407 N1400 0.984 . S
H1408 N1396 0.984 . S
H1409 N1396 0.985 . S
C1410 C1411 1.363 . S
C1410 C1416 1.379 . S
C1410 N1418 1.356 . S
C1411 C1410 1.363 . S
C1411 C1417 1.363 . S
C1412 C1413 1.363 . S
C1412 C1417 1.379 . S
C1412 N1419 1.356 . S
C1413 C1412 1.363 . S
C1413 C1416 1.363 . S
N1414 C1416 1.356 . S
N1414 H1426 0.984 . S
N1414 H1427 0.985 . S
N1415 C1417 1.356 . S
N1415 H1420 0.984 . S
N1415 H1421 0.985 . S
C1416 C1410 1.379 . S
C1416 C1413 1.363 . S
C1416 N1414 1.356 . S
C1417 C1411 1.363 . S
C1417 C1412 1.379 . S
C1417 N1415 1.356 . S
N1418 C1410 1.356 . S
N1418 H1424 0.984 . S
N1418 H1425 0.984 . S
N1419 C1412 1.356 . S
N1419 H1422 0.984 . S
N1419 H1423 0.985 . S
H1420 N1415 0.984 . S
H1421 N1415 0.985 . S
H1422 N1419 0.984 . S
H1423 N1419 0.985 . S
H1424 N1418 0.984 . S
H1425 N1418 0.984 . S
H1426 N1414 0.984 . S
H1427 N1414 0.985 . S
C1428 C1429 1.363 . S
C1428 C1434 1.379 . S
C1428 N1436 1.356 . S
C1429 C1428 1.363 . S
C1429 C1435 1.363 . S
C1430 C1431 1.363 . S
C1430 C1435 1.379 . S
C1430 N1437 1.356 . S
C1431 C1430 1.363 . S
C1431 C1434 1.363 . S
N1432 C1434 1.356 . S
N1432 H1444 0.984 . S
N1432 H1445 0.985 . S
N1433 C1435 1.356 . S
N1433 H1438 0.984 . S
N1433 H1439 0.985 . S
C1434 C1428 1.379 . S
C1434 C1431 1.363 . S
C1434 N1432 1.356 . S
C1435 C1429 1.363 . S
C1435 C1430 1.379 . S
C1435 N1433 1.356 . S
N1436 C1428 1.356 . S
N1436 H1442 0.984 . S
N1436 H1443 0.984 . S
N1437 C1430 1.356 . S
N1437 H1440 0.984 . S
N1437 H1441 0.985 . S
H1438 N1433 0.984 . S
H1439 N1433 0.985 . S
H1440 N1437 0.984 . S
H1441 N1437 0.985 . S
H1442 N1436 0.984 . S
H1443 N1436 0.984 . S
H1444 N1432 0.984 . S
H1445 N1432 0.985 . S
C1446 C1447 1.363 . S
C1446 C1452 1.379 . S
C1446 N1454 1.356 . S
C1447 C1446 1.363 . S
C1447 C1453 1.363 . S
C1448 C1449 1.363 . S
C1448 C1453 1.379 . S
C1448 N1455 1.356 . S
C1449 C1448 1.363 . S
C1449 C1452 1.363 . S
N1450 C1452 1.356 . S
N1450 H1462 0.984 . S
N1450 H1463 0.985 . S
N1451 C1453 1.356 . S
N1451 H1456 0.984 . S
N1451 H1457 0.985 . S
C1452 C1446 1.379 . S
C1452 C1449 1.363 . S
C1452 N1450 1.356 . S
C1453 C1447 1.363 . S
C1453 C1448 1.379 . S
C1453 N1451 1.356 . S
N1454 C1446 1.356 . S
N1454 H1460 0.984 . S
N1454 H1461 0.984 . S
N1455 C1448 1.356 . S
N1455 H1458 0.984 . S
N1455 H1459 0.985 . S
H1456 N1451 0.984 . S
H1457 N1451 0.985 . S
H1458 N1455 0.984 . S
H1459 N1455 0.985 . S
H1460 N1454 0.984 . S
H1461 N1454 0.984 . S
H1462 N1450 0.984 . S
H1463 N1450 0.985 . S
C1464 C1465 1.363 . S
C1464 C1470 1.379 . S
C1464 N1472 1.356 . S
C1465 C1464 1.363 . S
C1465 C1471 1.363 . S
C1466 C1467 1.363 . S
C1466 C1471 1.379 . S
C1466 N1473 1.356 . S
C1467 C1466 1.363 . S
C1467 C1470 1.363 . S
N1468 C1470 1.356 . S
N1468 H1480 0.984 . S
N1468 H1481 0.985 . S
N1469 C1471 1.356 . S
N1469 H1474 0.984 . S
N1469 H1475 0.985 . S
C1470 C1464 1.379 . S
C1470 C1467 1.363 . S
C1470 N1468 1.356 . S
C1471 C1465 1.363 . S
C1471 C1466 1.379 . S
C1471 N1469 1.356 . S
N1472 C1464 1.356 . S
N1472 H1478 0.984 . S
N1472 H1479 0.984 . S
N1473 C1466 1.356 . S
N1473 H1476 0.984 . S
N1473 H1477 0.985 . S
H1474 N1469 0.984 . S
H1475 N1469 0.985 . S
H1476 N1473 0.984 . S
H1477 N1473 0.985 . S
H1478 N1472 0.984 . S
H1479 N1472 0.984 . S
H1480 N1468 0.984 . S
H1481 N1468 0.985 . S
C1482 C1483 1.363 . S
C1482 C1488 1.379 . S
C1482 N1490 1.356 . S
C1483 C1482 1.363 . S
C1483 C1489 1.363 . S
C1484 C1485 1.363 . S
C1484 C1489 1.379 . S
C1484 N1491 1.356 . S
C1485 C1484 1.363 . S
C1485 C1488 1.363 . S
N1486 C1488 1.356 . S
N1486 H1498 0.984 . S
N1486 H1499 0.985 . S
N1487 C1489 1.356 . S
N1487 H1492 0.984 . S
N1487 H1493 0.985 . S
C1488 C1482 1.379 . S
C1488 C1485 1.363 . S
C1488 N1486 1.356 . S
C1489 C1483 1.363 . S
C1489 C1484 1.379 . S
C1489 N1487 1.356 . S
N1490 C1482 1.356 . S
N1490 H1496 0.984 . S
N1490 H1497 0.984 . S
N1491 C1484 1.356 . S
N1491 H1494 0.984 . S
N1491 H1495 0.985 . S
H1492 N1487 0.984 . S
H1493 N1487 0.985 . S
H1494 N1491 0.984 . S
H1495 N1491 0.985 . S
H1496 N1490 0.984 . S
H1497 N1490 0.984 . S
H1498 N1486 0.984 . S
H1499 N1486 0.985 . S
C1500 C1501 1.363 . S
C1500 C1506 1.379 . S
C1500 N1508 1.356 . S
C1501 C1500 1.363 . S
C1501 C1507 1.363 . S
C1502 C1503 1.363 . S
C1502 C1507 1.379 . S
C1502 N1509 1.356 . S
C1503 C1502 1.363 . S
C1503 C1506 1.363 . S
N1504 C1506 1.356 . S
N1504 H1516 0.984 . S
N1504 H1517 0.985 . S
N1505 C1507 1.356 . S
N1505 H1510 0.984 . S
N1505 H1511 0.985 . S
C1506 C1500 1.379 . S
C1506 C1503 1.363 . S
C1506 N1504 1.356 . S
C1507 C1501 1.363 . S
C1507 C1502 1.379 . S
C1507 N1505 1.356 . S
N1508 C1500 1.356 . S
N1508 H1514 0.984 . S
N1508 H1515 0.984 . S
N1509 C1502 1.356 . S
N1509 H1512 0.984 . S
N1509 H1513 0.985 . S
H1510 N1505 0.984 . S
H1511 N1505 0.985 . S
H1512 N1509 0.984 . S
H1513 N1509 0.985 . S
H1514 N1508 0.984 . S
H1515 N1508 0.984 . S
H1516 N1504 0.984 . S
H1517 N1504 0.985 . S
C1518 C1519 1.363 . S
C1518 C1524 1.379 . S
C1518 N1526 1.356 . S
C1519 C1518 1.363 . S
C1519 C1525 1.363 . S
C1520 C1521 1.363 . S
C1520 C1525 1.379 . S
C1520 N1527 1.356 . S
C1521 C1520 1.363 . S
C1521 C1524 1.363 . S
N1522 C1524 1.356 . S
N1522 H1534 0.984 . S
N1522 H1535 0.985 . S
N1523 C1525 1.356 . S
N1523 H1528 0.984 . S
N1523 H1529 0.985 . S
C1524 C1518 1.379 . S
C1524 C1521 1.363 . S
C1524 N1522 1.356 . S
C1525 C1519 1.363 . S
C1525 C1520 1.379 . S
C1525 N1523 1.356 . S
N1526 C1518 1.356 . S
N1526 H1532 0.984 . S
N1526 H1533 0.984 . S
N1527 C1520 1.356 . S
N1527 H1530 0.984 . S
N1527 H1531 0.985 . S
H1528 N1523 0.984 . S
H1529 N1523 0.985 . S
H1530 N1527 0.984 . S
H1531 N1527 0.985 . S
H1532 N1526 0.984 . S
H1533 N1526 0.984 . S
H1534 N1522 0.984 . S
H1535 N1522 0.985 . S
C1536 C1537 1.363 . S
C1536 C1542 1.379 . S
C1536 N1544 1.356 . S
C1537 C1536 1.363 . S
C1537 C1543 1.363 . S
C1538 C1539 1.363 . S
C1538 C1543 1.379 . S
C1538 N1545 1.356 . S
C1539 C1538 1.363 . S
C1539 C1542 1.363 . S
N1540 C1542 1.356 . S
N1540 H1552 0.984 . S
N1540 H1553 0.985 . S
N1541 C1543 1.356 . S
N1541 H1546 0.984 . S
N1541 H1547 0.985 . S
C1542 C1536 1.379 . S
C1542 C1539 1.363 . S
C1542 N1540 1.356 . S
C1543 C1537 1.363 . S
C1543 C1538 1.379 . S
C1543 N1541 1.356 . S
N1544 C1536 1.356 . S
N1544 H1550 0.984 . S
N1544 H1551 0.984 . S
N1545 C1538 1.356 . S
N1545 H1548 0.984 . S
N1545 H1549 0.985 . S
H1546 N1541 0.984 . S
H1547 N1541 0.985 . S
H1548 N1545 0.984 . S
H1549 N1545 0.985 . S
H1550 N1544 0.984 . S
H1551 N1544 0.984 . S
H1552 N1540 0.984 . S
H1553 N1540 0.985 . S
C1554 C1555 1.363 . S
C1554 C1560 1.379 . S
C1554 N1562 1.356 . S
C1555 C1554 1.363 . S
C1555 C1561 1.363 . S
C1556 C1557 1.363 . S
C1556 C1561 1.379 . S
C1556 N1563 1.356 . S
C1557 C1556 1.363 . S
C1557 C1560 1.363 . S
N1558 C1560 1.356 . S
N1558 H1570 0.984 . S
N1558 H1571 0.985 . S
N1559 C1561 1.356 . S
N1559 H1564 0.984 . S
N1559 H1565 0.985 . S
C1560 C1554 1.379 . S
C1560 C1557 1.363 . S
C1560 N1558 1.356 . S
C1561 C1555 1.363 . S
C1561 C1556 1.379 . S
C1561 N1559 1.356 . S
N1562 C1554 1.356 . S
N1562 H1568 0.984 . S
N1562 H1569 0.984 . S
N1563 C1556 1.356 . S
N1563 H1566 0.984 . S
N1563 H1567 0.985 . S
H1564 N1559 0.984 . S
H1565 N1559 0.985 . S
H1566 N1563 0.984 . S
H1567 N1563 0.985 . S
H1568 N1562 0.984 . S
H1569 N1562 0.984 . S
H1570 N1558 0.984 . S
H1571 N1558 0.985 . S
C1572 C1573 1.363 . S
C1572 C1578 1.379 . S
C1572 N1580 1.356 . S
C1573 C1572 1.363 . S
C1573 C1579 1.363 . S
C1574 C1575 1.363 . S
C1574 C1579 1.379 . S
C1574 N1581 1.356 . S
C1575 C1574 1.363 . S
C1575 C1578 1.363 . S
N1576 C1578 1.356 . S
N1576 H1588 0.984 . S
N1576 H1589 0.985 . S
N1577 C1579 1.356 . S
N1577 H1582 0.984 . S
N1577 H1583 0.985 . S
C1578 C1572 1.379 . S
C1578 C1575 1.363 . S
C1578 N1576 1.356 . S
C1579 C1573 1.363 . S
C1579 C1574 1.379 . S
C1579 N1577 1.356 . S
N1580 C1572 1.356 . S
N1580 H1586 0.984 . S
N1580 H1587 0.984 . S
N1581 C1574 1.356 . S
N1581 H1584 0.984 . S
N1581 H1585 0.985 . S
H1582 N1577 0.984 . S
H1583 N1577 0.985 . S
H1584 N1581 0.984 . S
H1585 N1581 0.985 . S
H1586 N1580 0.984 . S
H1587 N1580 0.984 . S
H1588 N1576 0.984 . S
H1589 N1576 0.985 . S
C1590 C1591 1.363 . S
C1590 C1596 1.379 . S
C1590 N1598 1.356 . S
C1591 C1590 1.363 . S
C1591 C1597 1.363 . S
C1592 C1593 1.363 . S
C1592 C1597 1.379 . S
C1592 N1599 1.356 . S
C1593 C1592 1.363 . S
C1593 C1596 1.363 . S
N1594 C1596 1.356 . S
N1594 H1606 0.984 . S
N1594 H1607 0.985 . S
N1595 C1597 1.356 . S
N1595 H1600 0.984 . S
N1595 H1601 0.985 . S
C1596 C1590 1.379 . S
C1596 C1593 1.363 . S
C1596 N1594 1.356 . S
C1597 C1591 1.363 . S
C1597 C1592 1.379 . S
C1597 N1595 1.356 . S
N1598 C1590 1.356 . S
N1598 H1604 0.984 . S
N1598 H1605 0.984 . S
N1599 C1592 1.356 . S
N1599 H1602 0.984 . S
N1599 H1603 0.985 . S
H1600 N1595 0.984 . S
H1601 N1595 0.985 . S
H1602 N1599 0.984 . S
H1603 N1599 0.985 . S
H1604 N1598 0.984 . S
H1605 N1598 0.984 . S
H1606 N1594 0.984 . S
H1607 N1594 0.985 . S
C1608 C1609 1.363 . S
C1608 C1614 1.379 . S
C1608 N1616 1.356 . S
C1609 C1608 1.363 . S
C1609 C1615 1.363 . S
C1610 C1611 1.363 . S
C1610 C1615 1.379 . S
C1610 N1617 1.356 . S
C1611 C1610 1.363 . S
C1611 C1614 1.363 . S
N1612 C1614 1.356 . S
N1612 H1624 0.984 . S
N1612 H1625 0.985 . S
N1613 C1615 1.356 . S
N1613 H1618 0.984 . S
N1613 H1619 0.985 . S
C1614 C1608 1.379 . S
C1614 C1611 1.363 . S
C1614 N1612 1.356 . S
C1615 C1609 1.363 . S
C1615 C1610 1.379 . S
C1615 N1613 1.356 . S
N1616 C1608 1.356 . S
N1616 H1622 0.984 . S
N1616 H1623 0.984 . S
N1617 C1610 1.356 . S
N1617 H1620 0.984 . S
N1617 H1621 0.985 . S
H1618 N1613 0.984 . S
H1619 N1613 0.985 . S
H1620 N1617 0.984 . S
H1621 N1617 0.985 . S
H1622 N1616 0.984 . S
H1623 N1616 0.984 . S
H1624 N1612 0.984 . S
H1625 N1612 0.985 . S
C1626 C1627 1.363 . S
C1626 C1632 1.379 . S
C1626 N1634 1.356 . S
C1627 C1626 1.363 . S
C1627 C1633 1.363 . S
C1628 C1629 1.363 . S
C1628 C1633 1.379 . S
C1628 N1635 1.356 . S
C1629 C1628 1.363 . S
C1629 C1632 1.363 . S
N1630 C1632 1.356 . S
N1630 H1642 0.984 . S
N1630 H1643 0.985 . S
N1631 C1633 1.356 . S
N1631 H1636 0.984 . S
N1631 H1637 0.985 . S
C1632 C1626 1.379 . S
C1632 C1629 1.363 . S
C1632 N1630 1.356 . S
C1633 C1627 1.363 . S
C1633 C1628 1.379 . S
C1633 N1631 1.356 . S
N1634 C1626 1.356 . S
N1634 H1640 0.984 . S
N1634 H1641 0.984 . S
N1635 C1628 1.356 . S
N1635 H1638 0.984 . S
N1635 H1639 0.985 . S
H1636 N1631 0.984 . S
H1637 N1631 0.985 . S
H1638 N1635 0.984 . S
H1639 N1635 0.985 . S
H1640 N1634 0.984 . S
H1641 N1634 0.984 . S
H1642 N1630 0.984 . S
H1643 N1630 0.985 . S
C1644 C1645 1.363 . S
C1644 C1650 1.379 . S
C1644 N1652 1.356 . S
C1645 C1644 1.363 . S
C1645 C1651 1.363 . S
C1646 C1647 1.363 . S
C1646 C1651 1.379 . S
C1646 N1653 1.356 . S
C1647 C1646 1.363 . S
C1647 C1650 1.363 . S
N1648 C1650 1.356 . S
N1648 H1660 0.984 . S
N1648 H1661 0.985 . S
N1649 C1651 1.356 . S
N1649 H1654 0.984 . S
N1649 H1655 0.985 . S
C1650 C1644 1.379 . S
C1650 C1647 1.363 . S
C1650 N1648 1.356 . S
C1651 C1645 1.363 . S
C1651 C1646 1.379 . S
C1651 N1649 1.356 . S
N1652 C1644 1.356 . S
N1652 H1658 0.984 . S
N1652 H1659 0.984 . S
N1653 C1646 1.356 . S
N1653 H1656 0.984 . S
N1653 H1657 0.985 . S
H1654 N1649 0.984 . S
H1655 N1649 0.985 . S
H1656 N1653 0.984 . S
H1657 N1653 0.985 . S
H1658 N1652 0.984 . S
H1659 N1652 0.984 . S
H1660 N1648 0.984 . S
H1661 N1648 0.985 . S
C1662 C1663 1.363 . S
C1662 C1668 1.379 . S
C1662 N1670 1.356 . S
C1663 C1662 1.363 . S
C1663 C1669 1.363 . S
C1664 C1665 1.363 . S
C1664 C1669 1.379 . S
C1664 N1671 1.356 . S
C1665 C1664 1.363 . S
C1665 C1668 1.363 . S
N1666 C1668 1.356 . S
N1666 H1678 0.984 . S
N1666 H1679 0.985 . S
N1667 C1669 1.356 . S
N1667 H1672 0.984 . S
N1667 H1673 0.985 . S
C1668 C1662 1.379 . S
C1668 C1665 1.363 . S
C1668 N1666 1.356 . S
C1669 C1663 1.363 . S
C1669 C1664 1.379 . S
C1669 N1667 1.356 . S
N1670 C1662 1.356 . S
N1670 H1676 0.984 . S
N1670 H1677 0.984 . S
N1671 C1664 1.356 . S
N1671 H1674 0.984 . S
N1671 H1675 0.985 . S
H1672 N1667 0.984 . S
H1673 N1667 0.985 . S
H1674 N1671 0.984 . S
H1675 N1671 0.985 . S
H1676 N1670 0.984 . S
H1677 N1670 0.984 . S
H1678 N1666 0.984 . S
H1679 N1666 0.985 . S
C1680 C1681 1.363 . S
C1680 C1686 1.379 . S
C1680 N1688 1.356 . S
C1681 C1680 1.363 . S
C1681 C1687 1.363 . S
C1682 C1683 1.363 . S
C1682 C1687 1.379 . S
C1682 N1689 1.356 . S
C1683 C1682 1.363 . S
C1683 C1686 1.363 . S
N1684 C1686 1.356 . S
N1684 H1696 0.984 . S
N1684 H1697 0.985 . S
N1685 C1687 1.356 . S
N1685 H1690 0.984 . S
N1685 H1691 0.985 . S
C1686 C1680 1.379 . S
C1686 C1683 1.363 . S
C1686 N1684 1.356 . S
C1687 C1681 1.363 . S
C1687 C1682 1.379 . S
C1687 N1685 1.356 . S
N1688 C1680 1.356 . S
N1688 H1694 0.984 . S
N1688 H1695 0.984 . S
N1689 C1682 1.356 . S
N1689 H1692 0.984 . S
N1689 H1693 0.985 . S
H1690 N1685 0.984 . S
H1691 N1685 0.985 . S
H1692 N1689 0.984 . S
H1693 N1689 0.985 . S
H1694 N1688 0.984 . S
H1695 N1688 0.984 . S
H1696 N1684 0.984 . S
H1697 N1684 0.985 . S
C1698 C1699 1.363 . S
C1698 C1704 1.379 . S
C1698 N1706 1.356 . S
C1699 C1698 1.363 . S
C1699 C1705 1.363 . S
C1700 C1701 1.363 . S
C1700 C1705 1.379 . S
C1700 N1707 1.356 . S
C1701 C1700 1.363 . S
C1701 C1704 1.363 . S
N1702 C1704 1.356 . S
N1702 H1714 0.984 . S
N1702 H1715 0.985 . S
N1703 C1705 1.356 . S
N1703 H1708 0.984 . S
N1703 H1709 0.985 . S
C1704 C1698 1.379 . S
C1704 C1701 1.363 . S
C1704 N1702 1.356 . S
C1705 C1699 1.363 . S
C1705 C1700 1.379 . S
C1705 N1703 1.356 . S
N1706 C1698 1.356 . S
N1706 H1712 0.984 . S
N1706 H1713 0.984 . S
N1707 C1700 1.356 . S
N1707 H1710 0.984 . S
N1707 H1711 0.985 . S
H1708 N1703 0.984 . S
H1709 N1703 0.985 . S
H1710 N1707 0.984 . S
H1711 N1707 0.985 . S
H1712 N1706 0.984 . S
H1713 N1706 0.984 . S
H1714 N1702 0.984 . S
H1715 N1702 0.985 . S
C1716 C1717 1.363 . S
C1716 C1722 1.379 . S
C1716 N1724 1.356 . S
C1717 C1716 1.363 . S
C1717 C1723 1.363 . S
C1718 C1719 1.363 . S
C1718 C1723 1.379 . S
C1718 N1725 1.356 . S
C1719 C1718 1.363 . S
C1719 C1722 1.363 . S
N1720 C1722 1.356 . S
N1720 H1732 0.984 . S
N1720 H1733 0.985 . S
N1721 C1723 1.356 . S
N1721 H1726 0.984 . S
N1721 H1727 0.985 . S
C1722 C1716 1.379 . S
C1722 C1719 1.363 . S
C1722 N1720 1.356 . S
C1723 C1717 1.363 . S
C1723 C1718 1.379 . S
C1723 N1721 1.356 . S
N1724 C1716 1.356 . S
N1724 H1730 0.984 . S
N1724 H1731 0.984 . S
N1725 C1718 1.356 . S
N1725 H1728 0.984 . S
N1725 H1729 0.985 . S
H1726 N1721 0.984 . S
H1727 N1721 0.985 . S
H1728 N1725 0.984 . S
H1729 N1725 0.985 . S
H1730 N1724 0.984 . S
H1731 N1724 0.984 . S
H1732 N1720 0.984 . S
H1733 N1720 0.985 . S
C1734 C1735 1.363 . S
C1734 C1740 1.379 . S
C1734 N1742 1.356 . S
C1735 C1734 1.363 . S
C1735 C1741 1.363 . S
C1736 C1737 1.363 . S
C1736 C1741 1.379 . S
C1736 N1743 1.356 . S
C1737 C1736 1.363 . S
C1737 C1740 1.363 . S
N1738 C1740 1.356 . S
N1738 H1750 0.984 . S
N1738 H1751 0.985 . S
N1739 C1741 1.356 . S
N1739 H1744 0.984 . S
N1739 H1745 0.985 . S
C1740 C1734 1.379 . S
C1740 C1737 1.363 . S
C1740 N1738 1.356 . S
C1741 C1735 1.363 . S
C1741 C1736 1.379 . S
C1741 N1739 1.356 . S
N1742 C1734 1.356 . S
N1742 H1748 0.984 . S
N1742 H1749 0.984 . S
N1743 C1736 1.356 . S
N1743 H1746 0.984 . S
N1743 H1747 0.985 . S
H1744 N1739 0.984 . S
H1745 N1739 0.985 . S
H1746 N1743 0.984 . S
H1747 N1743 0.985 . S
H1748 N1742 0.984 . S
H1749 N1742 0.984 . S
H1750 N1738 0.984 . S
H1751 N1738 0.985 . S
C1752 C1753 1.363 . S
C1752 C1758 1.379 . S
C1752 N1760 1.356 . S
C1753 C1752 1.363 . S
C1753 C1759 1.363 . S
C1754 C1755 1.363 . S
C1754 C1759 1.379 . S
C1754 N1761 1.356 . S
C1755 C1754 1.363 . S
C1755 C1758 1.363 . S
N1756 C1758 1.356 . S
N1756 H1768 0.984 . S
N1756 H1769 0.985 . S
N1757 C1759 1.356 . S
N1757 H1762 0.984 . S
N1757 H1763 0.985 . S
C1758 C1752 1.379 . S
C1758 C1755 1.363 . S
C1758 N1756 1.356 . S
C1759 C1753 1.363 . S
C1759 C1754 1.379 . S
C1759 N1757 1.356 . S
N1760 C1752 1.356 . S
N1760 H1766 0.984 . S
N1760 H1767 0.984 . S
N1761 C1754 1.356 . S
N1761 H1764 0.984 . S
N1761 H1765 0.985 . S
H1762 N1757 0.984 . S
H1763 N1757 0.985 . S
H1764 N1761 0.984 . S
H1765 N1761 0.985 . S
H1766 N1760 0.984 . S
H1767 N1760 0.984 . S
H1768 N1756 0.984 . S
H1769 N1756 0.985 . S
C1770 C1771 1.363 . S
C1770 C1776 1.379 . S
C1770 N1778 1.356 . S
C1771 C1770 1.363 . S
C1771 C1777 1.363 . S
C1772 C1773 1.363 . S
C1772 C1777 1.379 . S
C1772 N1779 1.356 . S
C1773 C1772 1.363 . S
C1773 C1776 1.363 . S
N1774 C1776 1.356 . S
N1774 H1786 0.984 . S
N1774 H1787 0.985 . S
N1775 C1777 1.356 . S
N1775 H1780 0.984 . S
N1775 H1781 0.985 . S
C1776 C1770 1.379 . S
C1776 C1773 1.363 . S
C1776 N1774 1.356 . S
C1777 C1771 1.363 . S
C1777 C1772 1.379 . S
C1777 N1775 1.356 . S
N1778 C1770 1.356 . S
N1778 H1784 0.984 . S
N1778 H1785 0.984 . S
N1779 C1772 1.356 . S
N1779 H1782 0.984 . S
N1779 H1783 0.985 . S
H1780 N1775 0.984 . S
H1781 N1775 0.985 . S
H1782 N1779 0.984 . S
H1783 N1779 0.985 . S
H1784 N1778 0.984 . S
H1785 N1778 0.984 . S
H1786 N1774 0.984 . S
H1787 N1774 0.985 . S
C1788 C1789 1.363 . S
C1788 C1794 1.379 . S
C1788 N1796 1.356 . S
C1789 C1788 1.363 . S
C1789 C1795 1.363 . S
C1790 C1791 1.363 . S
C1790 C1795 1.379 . S
C1790 N1797 1.356 . S
C1791 C1790 1.363 . S
C1791 C1794 1.363 . S
N1792 C1794 1.356 . S
N1792 H1804 0.984 . S
N1792 H1805 0.985 . S
N1793 C1795 1.356 . S
N1793 H1798 0.984 . S
N1793 H1799 0.985 . S
C1794 C1788 1.379 . S
C1794 C1791 1.363 . S
C1794 N1792 1.356 . S
C1795 C1789 1.363 . S
C1795 C1790 1.379 . S
C1795 N1793 1.356 . S
N1796 C1788 1.356 . S
N1796 H1802 0.984 . S
N1796 H1803 0.984 . S
N1797 C1790 1.356 . S
N1797 H1800 0.984 . S
N1797 H1801 0.985 . S
H1798 N1793 0.984 . S
H1799 N1793 0.985 . S
H1800 N1797 0.984 . S
H1801 N1797 0.985 . S
H1802 N1796 0.984 . S
H1803 N1796 0.984 . S
H1804 N1792 0.984 . S
H1805 N1792 0.985 . S
C1806 C1807 1.363 . S
C1806 C1812 1.379 . S
C1806 N1814 1.356 . S
C1807 C1806 1.363 . S
C1807 C1813 1.363 . S
C1808 C1809 1.363 . S
C1808 C1813 1.379 . S
C1808 N1815 1.356 . S
C1809 C1808 1.363 . S
C1809 C1812 1.363 . S
N1810 C1812 1.356 . S
N1810 H1822 0.984 . S
N1810 H1823 0.985 . S
N1811 C1813 1.356 . S
N1811 H1816 0.984 . S
N1811 H1817 0.985 . S
C1812 C1806 1.379 . S
C1812 C1809 1.363 . S
C1812 N1810 1.356 . S
C1813 C1807 1.363 . S
C1813 C1808 1.379 . S
C1813 N1811 1.356 . S
N1814 C1806 1.356 . S
N1814 H1820 0.984 . S
N1814 H1821 0.984 . S
N1815 C1808 1.356 . S
N1815 H1818 0.984 . S
N1815 H1819 0.985 . S
H1816 N1811 0.984 . S
H1817 N1811 0.985 . S
H1818 N1815 0.984 . S
H1819 N1815 0.985 . S
H1820 N1814 0.984 . S
H1821 N1814 0.984 . S
H1822 N1810 0.984 . S
H1823 N1810 0.985 . S
C1824 C1825 1.363 . S
C1824 C1830 1.379 . S
C1824 N1832 1.356 . S
C1825 C1824 1.363 . S
C1825 C1831 1.363 . S
C1826 C1827 1.363 . S
C1826 C1831 1.379 . S
C1826 N1833 1.356 . S
C1827 C1826 1.363 . S
C1827 C1830 1.363 . S
N1828 C1830 1.356 . S
N1828 H1840 0.984 . S
N1828 H1841 0.985 . S
N1829 C1831 1.356 . S
N1829 H1834 0.984 . S
N1829 H1835 0.985 . S
C1830 C1824 1.379 . S
C1830 C1827 1.363 . S
C1830 N1828 1.356 . S
C1831 C1825 1.363 . S
C1831 C1826 1.379 . S
C1831 N1829 1.356 . S
N1832 C1824 1.356 . S
N1832 H1838 0.984 . S
N1832 H1839 0.984 . S
N1833 C1826 1.356 . S
N1833 H1836 0.984 . S
N1833 H1837 0.985 . S
H1834 N1829 0.984 . S
H1835 N1829 0.985 . S
H1836 N1833 0.984 . S
H1837 N1833 0.985 . S
H1838 N1832 0.984 . S
H1839 N1832 0.984 . S
H1840 N1828 0.984 . S
H1841 N1828 0.985 . S
C1842 C1843 1.363 . S
C1842 C1848 1.379 . S
C1842 N1850 1.356 . S
C1843 C1842 1.363 . S
C1843 C1849 1.363 . S
C1844 C1845 1.363 . S
C1844 C1849 1.379 . S
C1844 N1851 1.356 . S
C1845 C1844 1.363 . S
C1845 C1848 1.363 . S
N1846 C1848 1.356 . S
N1846 H1858 0.984 . S
N1846 H1859 0.985 . S
N1847 C1849 1.356 . S
N1847 H1852 0.984 . S
N1847 H1853 0.985 . S
C1848 C1842 1.379 . S
C1848 C1845 1.363 . S
C1848 N1846 1.356 . S
C1849 C1843 1.363 . S
C1849 C1844 1.379 . S
C1849 N1847 1.356 . S
N1850 C1842 1.356 . S
N1850 H1856 0.984 . S
N1850 H1857 0.984 . S
N1851 C1844 1.356 . S
N1851 H1854 0.984 . S
N1851 H1855 0.985 . S
H1852 N1847 0.984 . S
H1853 N1847 0.985 . S
H1854 N1851 0.984 . S
H1855 N1851 0.985 . S
H1856 N1850 0.984 . S
H1857 N1850 0.984 . S
H1858 N1846 0.984 . S
H1859 N1846 0.985 . S
C1860 C1861 1.363 . S
C1860 C1866 1.379 . S
C1860 N1868 1.356 . S
C1861 C1860 1.363 . S
C1861 C1867 1.363 . S
C1862 C1863 1.363 . S
C1862 C1867 1.379 . S
C1862 N1869 1.356 . S
C1863 C1862 1.363 . S
C1863 C1866 1.363 . S
N1864 C1866 1.356 . S
N1864 H1876 0.984 . S
N1864 H1877 0.985 . S
N1865 C1867 1.356 . S
N1865 H1870 0.984 . S
N1865 H1871 0.985 . S
C1866 C1860 1.379 . S
C1866 C1863 1.363 . S
C1866 N1864 1.356 . S
C1867 C1861 1.363 . S
C1867 C1862 1.379 . S
C1867 N1865 1.356 . S
N1868 C1860 1.356 . S
N1868 H1874 0.984 . S
N1868 H1875 0.984 . S
N1869 C1862 1.356 . S
N1869 H1872 0.984 . S
N1869 H1873 0.985 . S
H1870 N1865 0.984 . S
H1871 N1865 0.985 . S
H1872 N1869 0.984 . S
H1873 N1869 0.985 . S
H1874 N1868 0.984 . S
H1875 N1868 0.984 . S
H1876 N1864 0.984 . S
H1877 N1864 0.985 . S
C1878 C1879 1.363 . S
C1878 C1884 1.379 . S
C1878 N1886 1.356 . S
C1879 C1878 1.363 . S
C1879 C1885 1.363 . S
C1880 C1881 1.363 . S
C1880 C1885 1.379 . S
C1880 N1887 1.356 . S
C1881 C1880 1.363 . S
C1881 C1884 1.363 . S
N1882 C1884 1.356 . S
N1882 H1894 0.984 . S
N1882 H1895 0.985 . S
N1883 C1885 1.356 . S
N1883 H1888 0.984 . S
N1883 H1889 0.985 . S
C1884 C1878 1.379 . S
C1884 C1881 1.363 . S
C1884 N1882 1.356 . S
C1885 C1879 1.363 . S
C1885 C1880 1.379 . S
C1885 N1883 1.356 . S
N1886 C1878 1.356 . S
N1886 H1892 0.984 . S
N1886 H1893 0.984 . S
N1887 C1880 1.356 . S
N1887 H1890 0.984 . S
N1887 H1891 0.985 . S
H1888 N1883 0.984 . S
H1889 N1883 0.985 . S
H1890 N1887 0.984 . S
H1891 N1887 0.985 . S
H1892 N1886 0.984 . S
H1893 N1886 0.984 . S
H1894 N1882 0.984 . S
H1895 N1882 0.985 . S
C1896 C1897 1.363 . S
C1896 C1902 1.379 . S
C1896 N1904 1.356 . S
C1897 C1896 1.363 . S
C1897 C1903 1.363 . S
C1898 C1899 1.363 . S
C1898 C1903 1.379 . S
C1898 N1905 1.356 . S
C1899 C1898 1.363 . S
C1899 C1902 1.363 . S
N1900 C1902 1.356 . S
N1900 H1912 0.984 . S
N1900 H1913 0.985 . S
N1901 C1903 1.356 . S
N1901 H1906 0.984 . S
N1901 H1907 0.985 . S
C1902 C1896 1.379 . S
C1902 C1899 1.363 . S
C1902 N1900 1.356 . S
C1903 C1897 1.363 . S
C1903 C1898 1.379 . S
C1903 N1901 1.356 . S
N1904 C1896 1.356 . S
N1904 H1910 0.984 . S
N1904 H1911 0.984 . S
N1905 C1898 1.356 . S
N1905 H1908 0.984 . S
N1905 H1909 0.985 . S
H1906 N1901 0.984 . S
H1907 N1901 0.985 . S
H1908 N1905 0.984 . S
H1909 N1905 0.985 . S
H1910 N1904 0.984 . S
H1911 N1904 0.984 . S
H1912 N1900 0.984 . S
H1913 N1900 0.985 . S
C1914 C1915 1.363 . S
C1914 C1920 1.379 . S
C1914 N1922 1.356 . S
C1915 C1914 1.363 . S
C1915 C1921 1.363 . S
C1916 C1917 1.363 . S
C1916 C1921 1.379 . S
C1916 N1923 1.356 . S
C1917 C1916 1.363 . S
C1917 C1920 1.363 . S
N1918 C1920 1.356 . S
N1918 H1930 0.984 . S
N1918 H1931 0.985 . S
N1919 C1921 1.356 . S
N1919 H1924 0.984 . S
N1919 H1925 0.985 . S
C1920 C1914 1.379 . S
C1920 C1917 1.363 . S
C1920 N1918 1.356 . S
C1921 C1915 1.363 . S
C1921 C1916 1.379 . S
C1921 N1919 1.356 . S
N1922 C1914 1.356 . S
N1922 H1928 0.984 . S
N1922 H1929 0.984 . S
N1923 C1916 1.356 . S
N1923 H1926 0.984 . S
N1923 H1927 0.985 . S
H1924 N1919 0.984 . S
H1925 N1919 0.985 . S
H1926 N1923 0.984 . S
H1927 N1923 0.985 . S
H1928 N1922 0.984 . S
H1929 N1922 0.984 . S
H1930 N1918 0.984 . S
H1931 N1918 0.985 . S
C1932 C1933 1.363 . S
C1932 C1938 1.379 . S
C1932 N1940 1.356 . S
C1933 C1932 1.363 . S
C1933 C1939 1.363 . S
C1934 C1935 1.363 . S
C1934 C1939 1.379 . S
C1934 N1941 1.356 . S
C1935 C1934 1.363 . S
C1935 C1938 1.363 . S
N1936 C1938 1.356 . S
N1936 H1948 0.984 . S
N1936 H1949 0.985 . S
N1937 C1939 1.356 . S
N1937 H1942 0.984 . S
N1937 H1943 0.985 . S
C1938 C1932 1.379 . S
C1938 C1935 1.363 . S
C1938 N1936 1.356 . S
C1939 C1933 1.363 . S
C1939 C1934 1.379 . S
C1939 N1937 1.356 . S
N1940 C1932 1.356 . S
N1940 H1946 0.984 . S
N1940 H1947 0.984 . S
N1941 C1934 1.356 . S
N1941 H1944 0.984 . S
N1941 H1945 0.985 . S
H1942 N1937 0.984 . S
H1943 N1937 0.985 . S
H1944 N1941 0.984 . S
H1945 N1941 0.985 . S
H1946 N1940 0.984 . S
H1947 N1940 0.984 . S
H1948 N1936 0.984 . S
H1949 N1936 0.985 . S
C1950 C1951 1.363 . S
C1950 C1956 1.379 . S
C1950 N1958 1.356 . S
C1951 C1950 1.363 . S
C1951 C1957 1.363 . S
C1952 C1953 1.363 . S
C1952 C1957 1.379 . S
C1952 N1959 1.356 . S
C1953 C1952 1.363 . S
C1953 C1956 1.363 . S
N1954 C1956 1.356 . S
N1954 H1966 0.984 . S
N1954 H1967 0.985 . S
N1955 C1957 1.356 . S
N1955 H1960 0.984 . S
N1955 H1961 0.985 . S
C1956 C1950 1.379 . S
C1956 C1953 1.363 . S
C1956 N1954 1.356 . S
C1957 C1951 1.363 . S
C1957 C1952 1.379 . S
C1957 N1955 1.356 . S
N1958 C1950 1.356 . S
N1958 H1964 0.984 . S
N1958 H1965 0.984 . S
N1959 C1952 1.356 . S
N1959 H1962 0.984 . S
N1959 H1963 0.985 . S
H1960 N1955 0.984 . S
H1961 N1955 0.985 . S
H1962 N1959 0.984 . S
H1963 N1959 0.985 . S
H1964 N1958 0.984 . S
H1965 N1958 0.984 . S
H1966 N1954 0.984 . S
H1967 N1954 0.985 . S
C1968 C1969 1.363 . S
C1968 C1974 1.379 . S
C1968 N1976 1.356 . S
C1969 C1968 1.363 . S
C1969 C1975 1.363 . S
C1970 C1971 1.363 . S
C1970 C1975 1.379 . S
C1970 N1977 1.356 . S
C1971 C1970 1.363 . S
C1971 C1974 1.363 . S
N1972 C1974 1.356 . S
N1972 H1984 0.984 . S
N1972 H1985 0.985 . S
N1973 C1975 1.356 . S
N1973 H1978 0.984 . S
N1973 H1979 0.985 . S
C1974 C1968 1.379 . S
C1974 C1971 1.363 . S
C1974 N1972 1.356 . S
C1975 C1969 1.363 . S
C1975 C1970 1.379 . S
C1975 N1973 1.356 . S
N1976 C1968 1.356 . S
N1976 H1982 0.984 . S
N1976 H1983 0.984 . S
N1977 C1970 1.356 . S
N1977 H1980 0.984 . S
N1977 H1981 0.985 . S
H1978 N1973 0.984 . S
H1979 N1973 0.985 . S
H1980 N1977 0.984 . S
H1981 N1977 0.985 . S
H1982 N1976 0.984 . S
H1983 N1976 0.984 . S
H1984 N1972 0.984 . S
H1985 N1972 0.985 . S
C1986 C1987 1.363 . S
C1986 C1992 1.379 . S
C1986 N1994 1.356 . S
C1987 C1986 1.363 . S
C1987 C1993 1.363 . S
C1988 C1989 1.363 . S
C1988 C1993 1.379 . S
C1988 N1995 1.356 . S
C1989 C1988 1.363 . S
C1989 C1992 1.363 . S
N1990 C1992 1.356 . S
N1990 H2002 0.984 . S
N1990 H2003 0.985 . S
N1991 C1993 1.356 . S
N1991 H1996 0.984 . S
N1991 H1997 0.985 . S
C1992 C1986 1.379 . S
C1992 C1989 1.363 . S
C1992 N1990 1.356 . S
C1993 C1987 1.363 . S
C1993 C1988 1.379 . S
C1993 N1991 1.356 . S
N1994 C1986 1.356 . S
N1994 H2000 0.984 . S
N1994 H2001 0.984 . S
N1995 C1988 1.356 . S
N1995 H1998 0.984 . S
N1995 H1999 0.985 . S
H1996 N1991 0.984 . S
H1997 N1991 0.985 . S
H1998 N1995 0.984 . S
H1999 N1995 0.985 . S
H2000 N1994 0.984 . S
H2001 N1994 0.984 . S
H2002 N1990 0.984 . S
H2003 N1990 0.985 . S
C2004 C2005 1.363 . S
C2004 C2010 1.379 . S
C2004 N2012 1.356 . S
C2005 C2004 1.363 . S
C2005 C2011 1.363 . S
C2006 C2007 1.363 . S
C2006 C2011 1.379 . S
C2006 N2013 1.356 . S
C2007 C2006 1.363 . S
C2007 C2010 1.363 . S
N2008 C2010 1.356 . S
N2008 H2020 0.984 . S
N2008 H2021 0.985 . S
N2009 C2011 1.356 . S
N2009 H2014 0.984 . S
N2009 H2015 0.985 . S
C2010 C2004 1.379 . S
C2010 C2007 1.363 . S
C2010 N2008 1.356 . S
C2011 C2005 1.363 . S
C2011 C2006 1.379 . S
C2011 N2009 1.356 . S
N2012 C2004 1.356 . S
N2012 H2018 0.984 . S
N2012 H2019 0.984 . S
N2013 C2006 1.356 . S
N2013 H2016 0.984 . S
N2013 H2017 0.985 . S
H2014 N2009 0.984 . S
H2015 N2009 0.985 . S
H2016 N2013 0.984 . S
H2017 N2013 0.985 . S
H2018 N2012 0.984 . S
H2019 N2012 0.984 . S
H2020 N2008 0.984 . S
H2021 N2008 0.985 . S
C2022 C2023 1.363 . S
C2022 C2028 1.379 . S
C2022 N2030 1.356 . S
C2023 C2022 1.363 . S
C2023 C2029 1.363 . S
C2024 C2025 1.363 . S
C2024 C2029 1.379 . S
C2024 N2031 1.356 . S
C2025 C2024 1.363 . S
C2025 C2028 1.363 . S
N2026 C2028 1.356 . S
N2026 H2038 0.984 . S
N2026 H2039 0.985 . S
N2027 C2029 1.356 . S
N2027 H2032 0.984 . S
N2027 H2033 0.985 . S
C2028 C2022 1.379 . S
C2028 C2025 1.363 . S
C2028 N2026 1.356 . S
C2029 C2023 1.363 . S
C2029 C2024 1.379 . S
C2029 N2027 1.356 . S
N2030 C2022 1.356 . S
N2030 H2036 0.984 . S
N2030 H2037 0.984 . S
N2031 C2024 1.356 . S
N2031 H2034 0.984 . S
N2031 H2035 0.985 . S
H2032 N2027 0.984 . S
H2033 N2027 0.985 . S
H2034 N2031 0.984 . S
H2035 N2031 0.985 . S
H2036 N2030 0.984 . S
H2037 N2030 0.984 . S
H2038 N2026 0.984 . S
H2039 N2026 0.985 . S
C2040 C2041 1.363 . S
C2040 C2046 1.379 . S
C2040 N2048 1.356 . S
C2041 C2040 1.363 . S
C2041 C2047 1.363 . S
C2042 C2043 1.363 . S
C2042 C2047 1.379 . S
C2042 N2049 1.356 . S
C2043 C2042 1.363 . S
C2043 C2046 1.363 . S
N2044 C2046 1.356 . S
N2044 H2056 0.984 . S
N2044 H2057 0.985 . S
N2045 C2047 1.356 . S
N2045 H2050 0.984 . S
N2045 H2051 0.985 . S
C2046 C2040 1.379 . S
C2046 C2043 1.363 . S
C2046 N2044 1.356 . S
C2047 C2041 1.363 . S
C2047 C2042 1.379 . S
C2047 N2045 1.356 . S
N2048 C2040 1.356 . S
N2048 H2054 0.984 . S
N2048 H2055 0.984 . S
N2049 C2042 1.356 . S
N2049 H2052 0.984 . S
N2049 H2053 0.985 . S
H2050 N2045 0.984 . S
H2051 N2045 0.985 . S
H2052 N2049 0.984 . S
H2053 N2049 0.985 . S
H2054 N2048 0.984 . S
H2055 N2048 0.984 . S
H2056 N2044 0.984 . S
H2057 N2044 0.985 . S
C2058 C2059 1.363 . S
C2058 C2064 1.379 . S
C2058 N2066 1.356 . S
C2059 C2058 1.363 . S
C2059 C2065 1.363 . S
C2060 C2061 1.363 . S
C2060 C2065 1.379 . S
C2060 N2067 1.356 . S
C2061 C2060 1.363 . S
C2061 C2064 1.363 . S
N2062 C2064 1.356 . S
N2062 H2074 0.984 . S
N2062 H2075 0.985 . S
N2063 C2065 1.356 . S
N2063 H2068 0.984 . S
N2063 H2069 0.985 . S
C2064 C2058 1.379 . S
C2064 C2061 1.363 . S
C2064 N2062 1.356 . S
C2065 C2059 1.363 . S
C2065 C2060 1.379 . S
C2065 N2063 1.356 . S
N2066 C2058 1.356 . S
N2066 H2072 0.984 . S
N2066 H2073 0.984 . S
N2067 C2060 1.356 . S
N2067 H2070 0.984 . S
N2067 H2071 0.985 . S
H2068 N2063 0.984 . S
H2069 N2063 0.985 . S
H2070 N2067 0.984 . S
H2071 N2067 0.985 . S
H2072 N2066 0.984 . S
H2073 N2066 0.984 . S
H2074 N2062 0.984 . S
H2075 N2062 0.985 . S
C2076 C2077 1.363 . S
C2076 C2082 1.379 . S
C2076 N2084 1.356 . S
C2077 C2076 1.363 . S
C2077 C2083 1.363 . S
C2078 C2079 1.363 . S
C2078 C2083 1.379 . S
C2078 N2085 1.356 . S
C2079 C2078 1.363 . S
C2079 C2082 1.363 . S
N2080 C2082 1.356 . S
N2080 H2092 0.984 . S
N2080 H2093 0.985 . S
N2081 C2083 1.356 . S
N2081 H2086 0.984 . S
N2081 H2087 0.985 . S
C2082 C2076 1.379 . S
C2082 C2079 1.363 . S
C2082 N2080 1.356 . S
C2083 C2077 1.363 . S
C2083 C2078 1.379 . S
C2083 N2081 1.356 . S
N2084 C2076 1.356 . S
N2084 H2090 0.984 . S
N2084 H2091 0.984 . S
N2085 C2078 1.356 . S
N2085 H2088 0.984 . S
N2085 H2089 0.985 . S
H2086 N2081 0.984 . S
H2087 N2081 0.985 . S
H2088 N2085 0.984 . S
H2089 N2085 0.985 . S
H2090 N2084 0.984 . S
H2091 N2084 0.984 . S
H2092 N2080 0.984 . S
H2093 N2080 0.985 . S
C2094 C2095 1.363 . S
C2094 C2100 1.379 . S
C2094 N2102 1.356 . S
C2095 C2094 1.363 . S
C2095 C2101 1.363 . S
C2096 C2097 1.363 . S
C2096 C2101 1.379 . S
C2096 N2103 1.356 . S
C2097 C2096 1.363 . S
C2097 C2100 1.363 . S
N2098 C2100 1.356 . S
N2098 H2110 0.984 . S
N2098 H2111 0.985 . S
N2099 C2101 1.356 . S
N2099 H2104 0.984 . S
N2099 H2105 0.985 . S
C2100 C2094 1.379 . S
C2100 C2097 1.363 . S
C2100 N2098 1.356 . S
C2101 C2095 1.363 . S
C2101 C2096 1.379 . S
C2101 N2099 1.356 . S
N2102 C2094 1.356 . S
N2102 H2108 0.984 . S
N2102 H2109 0.984 . S
N2103 C2096 1.356 . S
N2103 H2106 0.984 . S
N2103 H2107 0.985 . S
H2104 N2099 0.984 . S
H2105 N2099 0.985 . S
H2106 N2103 0.984 . S
H2107 N2103 0.985 . S
H2108 N2102 0.984 . S
H2109 N2102 0.984 . S
H2110 N2098 0.984 . S
H2111 N2098 0.985 . S
C2112 C2113 1.363 . S
C2112 C2118 1.379 . S
C2112 N2120 1.356 . S
C2113 C2112 1.363 . S
C2113 C2119 1.363 . S
C2114 C2115 1.363 . S
C2114 C2119 1.379 . S
C2114 N2121 1.356 . S
C2115 C2114 1.363 . S
C2115 C2118 1.363 . S
N2116 C2118 1.356 . S
N2116 H2128 0.984 . S
N2116 H2129 0.985 . S
N2117 C2119 1.356 . S
N2117 H2122 0.984 . S
N2117 H2123 0.985 . S
C2118 C2112 1.379 . S
C2118 C2115 1.363 . S
C2118 N2116 1.356 . S
C2119 C2113 1.363 . S
C2119 C2114 1.379 . S
C2119 N2117 1.356 . S
N2120 C2112 1.356 . S
N2120 H2126 0.984 . S
N2120 H2127 0.984 . S
N2121 C2114 1.356 . S
N2121 H2124 0.984 . S
N2121 H2125 0.985 . S
H2122 N2117 0.984 . S
H2123 N2117 0.985 . S
H2124 N2121 0.984 . S
H2125 N2121 0.985 . S
H2126 N2120 0.984 . S
H2127 N2120 0.984 . S
H2128 N2116 0.984 . S
H2129 N2116 0.985 . S
C2130 C2131 1.363 . S
C2130 C2136 1.379 . S
C2130 N2138 1.356 . S
C2131 C2130 1.363 . S
C2131 C2137 1.363 . S
C2132 C2133 1.363 . S
C2132 C2137 1.379 . S
C2132 N2139 1.356 . S
C2133 C2132 1.363 . S
C2133 C2136 1.363 . S
N2134 C2136 1.356 . S
N2134 H2146 0.984 . S
N2134 H2147 0.985 . S
N2135 C2137 1.356 . S
N2135 H2140 0.984 . S
N2135 H2141 0.985 . S
C2136 C2130 1.379 . S
C2136 C2133 1.363 . S
C2136 N2134 1.356 . S
C2137 C2131 1.363 . S
C2137 C2132 1.379 . S
C2137 N2135 1.356 . S
N2138 C2130 1.356 . S
N2138 H2144 0.984 . S
N2138 H2145 0.984 . S
N2139 C2132 1.356 . S
N2139 H2142 0.984 . S
N2139 H2143 0.985 . S
H2140 N2135 0.984 . S
H2141 N2135 0.985 . S
H2142 N2139 0.984 . S
H2143 N2139 0.985 . S
H2144 N2138 0.984 . S
H2145 N2138 0.984 . S
H2146 N2134 0.984 . S
H2147 N2134 0.985 . S
C2148 C2149 1.363 . S
C2148 C2154 1.379 . S
C2148 N2156 1.356 . S
C2149 C2148 1.363 . S
C2149 C2155 1.363 . S
C2150 C2151 1.363 . S
C2150 C2155 1.379 . S
C2150 N2157 1.356 . S
C2151 C2150 1.363 . S
C2151 C2154 1.363 . S
N2152 C2154 1.356 . S
N2152 H2164 0.984 . S
N2152 H2165 0.985 . S
N2153 C2155 1.356 . S
N2153 H2158 0.984 . S
N2153 H2159 0.985 . S
C2154 C2148 1.379 . S
C2154 C2151 1.363 . S
C2154 N2152 1.356 . S
C2155 C2149 1.363 . S
C2155 C2150 1.379 . S
C2155 N2153 1.356 . S
N2156 C2148 1.356 . S
N2156 H2162 0.984 . S
N2156 H2163 0.984 . S
N2157 C2150 1.356 . S
N2157 H2160 0.984 . S
N2157 H2161 0.985 . S
H2158 N2153 0.984 . S
H2159 N2153 0.985 . S
H2160 N2157 0.984 . S
H2161 N2157 0.985 . S
H2162 N2156 0.984 . S
H2163 N2156 0.984 . S
H2164 N2152 0.984 . S
H2165 N2152 0.985 . S
C2166 C2167 1.363 . S
C2166 C2172 1.379 . S
C2166 N2174 1.356 . S
C2167 C2166 1.363 . S
C2167 C2173 1.363 . S
C2168 C2169 1.363 . S
C2168 C2173 1.379 . S
C2168 N2175 1.356 . S
C2169 C2168 1.363 . S
C2169 C2172 1.363 . S
N2170 C2172 1.356 . S
N2170 H2182 0.984 . S
N2170 H2183 0.985 . S
N2171 C2173 1.356 . S
N2171 H2176 0.984 . S
N2171 H2177 0.985 . S
C2172 C2166 1.379 . S
C2172 C2169 1.363 . S
C2172 N2170 1.356 . S
C2173 C2167 1.363 . S
C2173 C2168 1.379 . S
C2173 N2171 1.356 . S
N2174 C2166 1.356 . S
N2174 H2180 0.984 . S
N2174 H2181 0.984 . S
N2175 C2168 1.356 . S
N2175 H2178 0.984 . S
N2175 H2179 0.985 . S
H2176 N2171 0.984 . S
H2177 N2171 0.985 . S
H2178 N2175 0.984 . S
H2179 N2175 0.985 . S
H2180 N2174 0.984 . S
H2181 N2174 0.984 . S
H2182 N2170 0.984 . S
H2183 N2170 0.985 . S
C2184 C2185 1.363 . S
C2184 C2190 1.379 . S
C2184 N2192 1.356 . S
C2185 C2184 1.363 . S
C2185 C2191 1.363 . S
C2186 C2187 1.363 . S
C2186 C2191 1.379 . S
C2186 N2193 1.356 . S
C2187 C2186 1.363 . S
C2187 C2190 1.363 . S
N2188 C2190 1.356 . S
N2188 H2200 0.984 . S
N2188 H2201 0.985 . S
N2189 C2191 1.356 . S
N2189 H2194 0.984 . S
N2189 H2195 0.985 . S
C2190 C2184 1.379 . S
C2190 C2187 1.363 . S
C2190 N2188 1.356 . S
C2191 C2185 1.363 . S
C2191 C2186 1.379 . S
C2191 N2189 1.356 . S
N2192 C2184 1.356 . S
N2192 H2198 0.984 . S
N2192 H2199 0.984 . S
N2193 C2186 1.356 . S
N2193 H2196 0.984 . S
N2193 H2197 0.985 . S
H2194 N2189 0.984 . S
H2195 N2189 0.985 . S
H2196 N2193 0.984 . S
H2197 N2193 0.985 . S
H2198 N2192 0.984 . S
H2199 N2192 0.984 . S
H2200 N2188 0.984 . S
H2201 N2188 0.985 . S
C2202 C2203 1.363 . S
C2202 C2208 1.379 . S
C2202 N2210 1.356 . S
C2203 C2202 1.363 . S
C2203 C2209 1.363 . S
C2204 C2205 1.363 . S
C2204 C2209 1.379 . S
C2204 N2211 1.356 . S
C2205 C2204 1.363 . S
C2205 C2208 1.363 . S
N2206 C2208 1.356 . S
N2206 H2218 0.984 . S
N2206 H2219 0.985 . S
N2207 C2209 1.356 . S
N2207 H2212 0.984 . S
N2207 H2213 0.985 . S
C2208 C2202 1.379 . S
C2208 C2205 1.363 . S
C2208 N2206 1.356 . S
C2209 C2203 1.363 . S
C2209 C2204 1.379 . S
C2209 N2207 1.356 . S
N2210 C2202 1.356 . S
N2210 H2216 0.984 . S
N2210 H2217 0.984 . S
N2211 C2204 1.356 . S
N2211 H2214 0.984 . S
N2211 H2215 0.985 . S
H2212 N2207 0.984 . S
H2213 N2207 0.985 . S
H2214 N2211 0.984 . S
H2215 N2211 0.985 . S
H2216 N2210 0.984 . S
H2217 N2210 0.984 . S
H2218 N2206 0.984 . S
H2219 N2206 0.985 . S
C2220 C2221 1.363 . S
C2220 C2226 1.379 . S
C2220 N2228 1.356 . S
C2221 C2220 1.363 . S
C2221 C2227 1.363 . S
C2222 C2223 1.363 . S
C2222 C2227 1.379 . S
C2222 N2229 1.356 . S
C2223 C2222 1.363 . S
C2223 C2226 1.363 . S
N2224 C2226 1.356 . S
N2224 H2236 0.984 . S
N2224 H2237 0.985 . S
N2225 C2227 1.356 . S
N2225 H2230 0.984 . S
N2225 H2231 0.985 . S
C2226 C2220 1.379 . S
C2226 C2223 1.363 . S
C2226 N2224 1.356 . S
C2227 C2221 1.363 . S
C2227 C2222 1.379 . S
C2227 N2225 1.356 . S
N2228 C2220 1.356 . S
N2228 H2234 0.984 . S
N2228 H2235 0.984 . S
N2229 C2222 1.356 . S
N2229 H2232 0.984 . S
N2229 H2233 0.985 . S
H2230 N2225 0.984 . S
H2231 N2225 0.985 . S
H2232 N2229 0.984 . S
H2233 N2229 0.985 . S
H2234 N2228 0.984 . S
H2235 N2228 0.984 . S
H2236 N2224 0.984 . S
H2237 N2224 0.985 . S
C2238 C2239 1.363 . S
C2238 C2244 1.379 . S
C2238 N2246 1.356 . S
C2239 C2238 1.363 . S
C2239 C2245 1.363 . S
C2240 C2241 1.363 . S
C2240 C2245 1.379 . S
C2240 N2247 1.356 . S
C2241 C2240 1.363 . S
C2241 C2244 1.363 . S
N2242 C2244 1.356 . S
N2242 H2254 0.984 . S
N2242 H2255 0.985 . S
N2243 C2245 1.356 . S
N2243 H2248 0.984 . S
N2243 H2249 0.985 . S
C2244 C2238 1.379 . S
C2244 C2241 1.363 . S
C2244 N2242 1.356 . S
C2245 C2239 1.363 . S
C2245 C2240 1.379 . S
C2245 N2243 1.356 . S
N2246 C2238 1.356 . S
N2246 H2252 0.984 . S
N2246 H2253 0.984 . S
N2247 C2240 1.356 . S
N2247 H2250 0.984 . S
N2247 H2251 0.985 . S
H2248 N2243 0.984 . S
H2249 N2243 0.985 . S
H2250 N2247 0.984 . S
H2251 N2247 0.985 . S
H2252 N2246 0.984 . S
H2253 N2246 0.984 . S
H2254 N2242 0.984 . S
H2255 N2242 0.985 . S
C2256 C2257 1.363 . S
C2256 C2262 1.379 . S
C2256 N2264 1.356 . S
C2257 C2256 1.363 . S
C2257 C2263 1.363 . S
C2258 C2259 1.363 . S
C2258 C2263 1.379 . S
C2258 N2265 1.356 . S
C2259 C2258 1.363 . S
C2259 C2262 1.363 . S
N2260 C2262 1.356 . S
N2260 H2272 0.984 . S
N2260 H2273 0.985 . S
N2261 C2263 1.356 . S
N2261 H2266 0.984 . S
N2261 H2267 0.985 . S
C2262 C2256 1.379 . S
C2262 C2259 1.363 . S
C2262 N2260 1.356 . S
C2263 C2257 1.363 . S
C2263 C2258 1.379 . S
C2263 N2261 1.356 . S
N2264 C2256 1.356 . S
N2264 H2270 0.984 . S
N2264 H2271 0.984 . S
N2265 C2258 1.356 . S
N2265 H2268 0.984 . S
N2265 H2269 0.985 . S
H2266 N2261 0.984 . S
H2267 N2261 0.985 . S
H2268 N2265 0.984 . S
H2269 N2265 0.985 . S
H2270 N2264 0.984 . S
H2271 N2264 0.984 . S
H2272 N2260 0.984 . S
H2273 N2260 0.985 . S
C2274 C2275 1.363 . S
C2274 C2280 1.379 . S
C2274 N2282 1.356 . S
C2275 C2274 1.363 . S
C2275 C2281 1.363 . S
C2276 C2277 1.363 . S
C2276 C2281 1.379 . S
C2276 N2283 1.356 . S
C2277 C2276 1.363 . S
C2277 C2280 1.363 . S
N2278 C2280 1.356 . S
N2278 H2290 0.984 . S
N2278 H2291 0.985 . S
N2279 C2281 1.356 . S
N2279 H2284 0.984 . S
N2279 H2285 0.985 . S
C2280 C2274 1.379 . S
C2280 C2277 1.363 . S
C2280 N2278 1.356 . S
C2281 C2275 1.363 . S
C2281 C2276 1.379 . S
C2281 N2279 1.356 . S
N2282 C2274 1.356 . S
N2282 H2288 0.984 . S
N2282 H2289 0.984 . S
N2283 C2276 1.356 . S
N2283 H2286 0.984 . S
N2283 H2287 0.985 . S
H2284 N2279 0.984 . S
H2285 N2279 0.985 . S
H2286 N2283 0.984 . S
H2287 N2283 0.985 . S
H2288 N2282 0.984 . S
H2289 N2282 0.984 . S
H2290 N2278 0.984 . S
H2291 N2278 0.985 . S
C2292 C2293 1.363 . S
C2292 C2298 1.379 . S
C2292 N2300 1.356 . S
C2293 C2292 1.363 . S
C2293 C2299 1.363 . S
C2294 C2295 1.363 . S
C2294 C2299 1.379 . S
C2294 N2301 1.356 . S
C2295 C2294 1.363 . S
C2295 C2298 1.363 . S
N2296 C2298 1.356 . S
N2296 H2308 0.984 . S
N2296 H2309 0.985 . S
N2297 C2299 1.356 . S
N2297 H2302 0.984 . S
N2297 H2303 0.985 . S
C2298 C2292 1.379 . S
C2298 C2295 1.363 . S
C2298 N2296 1.356 . S
C2299 C2293 1.363 . S
C2299 C2294 1.379 . S
C2299 N2297 1.356 . S
N2300 C2292 1.356 . S
N2300 H2306 0.984 . S
N2300 H2307 0.984 . S
N2301 C2294 1.356 . S
N2301 H2304 0.984 . S
N2301 H2305 0.985 . S
H2302 N2297 0.984 . S
H2303 N2297 0.985 . S
H2304 N2301 0.984 . S
H2305 N2301 0.985 . S
H2306 N2300 0.984 . S
H2307 N2300 0.984 . S
H2308 N2296 0.984 . S
H2309 N2296 0.985 . S
C2310 C2311 1.363 . S
C2310 C2316 1.379 . S
C2310 N2318 1.356 . S
C2311 C2310 1.363 . S
C2311 C2317 1.363 . S
C2312 C2313 1.363 . S
C2312 C2317 1.379 . S
C2312 N2319 1.356 . S
C2313 C2312 1.363 . S
C2313 C2316 1.363 . S
N2314 C2316 1.356 . S
N2314 H2326 0.984 . S
N2314 H2327 0.985 . S
N2315 C2317 1.356 . S
N2315 H2320 0.984 . S
N2315 H2321 0.985 . S
C2316 C2310 1.379 . S
C2316 C2313 1.363 . S
C2316 N2314 1.356 . S
C2317 C2311 1.363 . S
C2317 C2312 1.379 . S
C2317 N2315 1.356 . S
N2318 C2310 1.356 . S
N2318 H2324 0.984 . S
N2318 H2325 0.984 . S
N2319 C2312 1.356 . S
N2319 H2322 0.984 . S
N2319 H2323 0.985 . S
H2320 N2315 0.984 . S
H2321 N2315 0.985 . S
H2322 N2319 0.984 . S
H2323 N2319 0.985 . S
H2324 N2318 0.984 . S
H2325 N2318 0.984 . S
H2326 N2314 0.984 . S
H2327 N2314 0.985 . S
C2328 C2329 1.363 . S
C2328 C2334 1.379 . S
C2328 N2336 1.356 . S
C2329 C2328 1.363 . S
C2329 C2335 1.363 . S
C2330 C2331 1.363 . S
C2330 C2335 1.379 . S
C2330 N2337 1.356 . S
C2331 C2330 1.363 . S
C2331 C2334 1.363 . S
N2332 C2334 1.356 . S
N2332 H2344 0.984 . S
N2332 H2345 0.985 . S
N2333 C2335 1.356 . S
N2333 H2338 0.984 . S
N2333 H2339 0.985 . S
C2334 C2328 1.379 . S
C2334 C2331 1.363 . S
C2334 N2332 1.356 . S
C2335 C2329 1.363 . S
C2335 C2330 1.379 . S
C2335 N2333 1.356 . S
N2336 C2328 1.356 . S
N2336 H2342 0.984 . S
N2336 H2343 0.984 . S
N2337 C2330 1.356 . S
N2337 H2340 0.984 . S
N2337 H2341 0.985 . S
H2338 N2333 0.984 . S
H2339 N2333 0.985 . S
H2340 N2337 0.984 . S
H2341 N2337 0.985 . S
H2342 N2336 0.984 . S
H2343 N2336 0.984 . S
H2344 N2332 0.984 . S
H2345 N2332 0.985 . S
C2346 C2347 1.363 . S
C2346 C2352 1.379 . S
C2346 N2354 1.356 . S
C2347 C2346 1.363 . S
C2347 C2353 1.363 . S
C2348 C2349 1.363 . S
C2348 C2353 1.379 . S
C2348 N2355 1.356 . S
C2349 C2348 1.363 . S
C2349 C2352 1.363 . S
N2350 C2352 1.356 . S
N2350 H2362 0.984 . S
N2350 H2363 0.985 . S
N2351 C2353 1.356 . S
N2351 H2356 0.984 . S
N2351 H2357 0.985 . S
C2352 C2346 1.379 . S
C2352 C2349 1.363 . S
C2352 N2350 1.356 . S
C2353 C2347 1.363 . S
C2353 C2348 1.379 . S
C2353 N2351 1.356 . S
N2354 C2346 1.356 . S
N2354 H2360 0.984 . S
N2354 H2361 0.984 . S
N2355 C2348 1.356 . S
N2355 H2358 0.984 . S
N2355 H2359 0.985 . S
H2356 N2351 0.984 . S
H2357 N2351 0.985 . S
H2358 N2355 0.984 . S
H2359 N2355 0.985 . S
H2360 N2354 0.984 . S
H2361 N2354 0.984 . S
H2362 N2350 0.984 . S
H2363 N2350 0.985 . S
C2364 C2365 1.363 . S
C2364 C2370 1.379 . S
C2364 N2372 1.356 . S
C2365 C2364 1.363 . S
C2365 C2371 1.363 . S
C2366 C2367 1.363 . S
C2366 C2371 1.379 . S
C2366 N2373 1.356 . S
C2367 C2366 1.363 . S
C2367 C2370 1.363 . S
N2368 C2370 1.356 . S
N2368 H2380 0.984 . S
N2368 H2381 0.985 . S
N2369 C2371 1.356 . S
N2369 H2374 0.984 . S
N2369 H2375 0.985 . S
C2370 C2364 1.379 . S
C2370 C2367 1.363 . S
C2370 N2368 1.356 . S
C2371 C2365 1.363 . S
C2371 C2366 1.379 . S
C2371 N2369 1.356 . S
N2372 C2364 1.356 . S
N2372 H2378 0.984 . S
N2372 H2379 0.984 . S
N2373 C2366 1.356 . S
N2373 H2376 0.984 . S
N2373 H2377 0.985 . S
H2374 N2369 0.984 . S
H2375 N2369 0.985 . S
H2376 N2373 0.984 . S
H2377 N2373 0.985 . S
H2378 N2372 0.984 . S
H2379 N2372 0.984 . S
H2380 N2368 0.984 . S
H2381 N2368 0.985 . S
C2382 C2383 1.363 . S
C2382 C2388 1.379 . S
C2382 N2390 1.356 . S
C2383 C2382 1.363 . S
C2383 C2389 1.363 . S
C2384 C2385 1.363 . S
C2384 C2389 1.379 . S
C2384 N2391 1.356 . S
C2385 C2384 1.363 . S
C2385 C2388 1.363 . S
N2386 C2388 1.356 . S
N2386 H2398 0.984 . S
N2386 H2399 0.985 . S
N2387 C2389 1.356 . S
N2387 H2392 0.984 . S
N2387 H2393 0.985 . S
C2388 C2382 1.379 . S
C2388 C2385 1.363 . S
C2388 N2386 1.356 . S
C2389 C2383 1.363 . S
C2389 C2384 1.379 . S
C2389 N2387 1.356 . S
N2390 C2382 1.356 . S
N2390 H2396 0.984 . S
N2390 H2397 0.984 . S
N2391 C2384 1.356 . S
N2391 H2394 0.984 . S
N2391 H2395 0.985 . S
H2392 N2387 0.984 . S
H2393 N2387 0.985 . S
H2394 N2391 0.984 . S
H2395 N2391 0.985 . S
H2396 N2390 0.984 . S
H2397 N2390 0.984 . S
H2398 N2386 0.984 . S
H2399 N2386 0.985 . S
C673 C397 1.125 . S
C675 C5 1.125 . S
C691 C19 1.125 . S
C693 C411 1.125 . S
C709 C425 1.125 . S
C711 C33 1.125 . S
C727 C47 1.125 . S
C729 C439 1.125 . S
C745 C341 1.125 . S
C747 C61 1.125 . S
C763 C75 1.125 . S
C765 C355 1.125 . S
C781 C369 1.125 . S
C783 C89 1.125 . S
C799 C103 1.125 . S
C801 C383 1.125 . S
C817 C537 1.125 . S
C819 C117 1.125 . S
C835 C551 1.125 . S
C837 C131 1.125 . S
C853 C509 1.125 . S
C855 C145 1.125 . S
C871 C159 1.125 . S
C873 C523 1.125 . S
C889 C481 1.125 . S
C891 C173 1.125 . S
C907 C495 1.125 . S
C909 C187 1.125 . S
C925 C201 1.125 . S
C927 C453 1.125 . S
C943 C467 1.125 . S
C945 C215 1.125 . S
C961 C229 1.125 . S
C963 C635 1.125 . S
C979 C607 1.125 . S
C981 C243 1.125 . S
C997 C621 1.125 . S
C999 C257 1.125 . S
C1015 C579 1.125 . S
C1017 C271 1.125 . S
C1033 C593 1.125 . S
C1035 C285 1.125 . S
C1051 C299 1.125 . S
C1053 C565 1.125 . S
C1069 C313 1.125 . S
C1071 C663 1.125 . S
C1087 C649 1.125 . S
C1089 C327 1.125 . S
C1105 C109 1.489 . S
C1107 C11 1.489 . S
C1123 C67 1.489 . S
C1125 C25 1.489 . S
C1141 C81 1.489 . S
C1143 C39 1.489 . S
C1159 C95 1.489 . S
C1161 C53 1.489 . S
C1177 C291 1.489 . S
C1179 C123 1.489 . S
C1195 C249 1.489 . S
C1197 C137 1.489 . S
C1213 C263 1.489 . S
C1215 C151 1.489 . S
C1231 C277 1.489 . S
C1233 C165 1.489 . S
C1249 C333 1.489 . S
C1251 C179 1.489 . S
C1267 C305 1.489 . S
C1269 C193 1.489 . S
C1285 C207 1.489 . S
C1287 C319 1.489 . S
C1303 C235 1.489 . S
C1305 C221 1.489 . S
C1321 C445 1.489 . S
C1323 C347 1.489 . S
C1339 C403 1.489 . S
C1341 C361 1.489 . S
C1357 C375 1.489 . S
C1359 C417 1.489 . S
C1375 C389 1.489 . S
C1377 C431 1.489 . S
C1393 C459 1.489 . S
C1395 C627 1.489 . S
C1411 C473 1.489 . S
C1413 C585 1.489 . S
C1429 C599 1.489 . S
C1431 C487 1.489 . S
C1447 C613 1.489 . S
C1449 C501 1.489 . S
C1465 C669 1.489 . S
C1467 C515 1.489 . S
C1483 C641 1.489 . S
C1485 C529 1.489 . S
C1501 C655 1.489 . S
C1503 C543 1.489 . S
C1519 C557 1.489 . S
C1521 C571 1.489 . S
C1537 C4 1.244 . S
C1539 C124 1.164 . S
C1555 C138 1.164 . S
C1557 C18 1.244 . S
C1573 C152 1.164 . S
C1575 C32 1.244 . S
C1591 C166 1.164 . S
C1593 C46 1.244 . S
C1609 C60 1.244 . S
C1611 C180 1.164 . S
C1627 C194 1.164 . S
C1629 C74 1.244 . S
C1645 C88 1.244 . S
C1647 C208 1.164 . S
C1663 C222 1.164 . S
C1665 C102 1.244 . S
C1681 C236 1.164 . S
C1683 C116 1.244 . S
C1699 C334 1.164 . S
C1701 C130 1.244 . S
C1717 C144 1.244 . S
C1719 C306 1.164 . S
C1735 C158 1.244 . S
C1737 C320 1.164 . S
C1753 C172 1.244 . S
C1755 C250 1.164 . S
C1771 C186 1.244 . S
C1773 C264 1.164 . S
C1789 C200 1.244 . S
C1791 C278 1.164 . S
C1807 C214 1.244 . S
C1809 C292 1.164 . S
C1825 C228 1.244 . S
C1827 C12 1.164 . S
C1843 C242 1.244 . S
C1845 C68 1.164 . S
C1861 C256 1.244 . S
C1863 C82 1.164 . S
C1879 C270 1.244 . S
C1881 C96 1.164 . S
C1897 C284 1.244 . S
C1899 C110 1.164 . S
C1915 C298 1.244 . S
C1917 C40 1.164 . S
C1933 C54 1.164 . S
C1935 C312 1.244 . S
C1951 C26 1.164 . S
C1953 C326 1.244 . S
C1969 C460 1.164 . S
C1971 C340 1.244 . S
C1987 C474 1.164 . S
C1989 C354 1.244 . S
C2005 C488 1.164 . S
C2007 C368 1.244 . S
C2023 C502 1.164 . S
C2025 C382 1.244 . S
C2041 C516 1.164 . S
C2043 C396 1.244 . S
C2059 C410 1.244 . S
C2061 C530 1.164 . S
C2077 C544 1.164 . S
C2079 C424 1.244 . S
C2095 C438 1.244 . S
C2097 C558 1.164 . S
C2113 C572 1.164 . S
C2115 C452 1.244 . S
C2131 C466 1.244 . S
C2133 C670 1.164 . S
C2149 C480 1.244 . S
C2151 C642 1.164 . S
C2167 C656 1.164 . S
C2169 C494 1.244 . S
C2185 C586 1.164 . S
C2187 C508 1.244 . S
C2203 C522 1.244 . S
C2205 C600 1.164 . S
C2221 C536 1.244 . S
C2223 C614 1.164 . S
C2239 C628 1.164 . S
C2241 C550 1.244 . S
C2257 C348 1.164 . S
C2259 C564 1.244 . S
C2275 C404 1.164 . S
C2277 C578 1.244 . S
C2293 C418 1.164 . S
C2295 C592 1.244 . S
C2311 C606 1.244 . S
C2313 C432 1.164 . S
C2329 C446 1.164 . S
C2331 C620 1.244 . S
C2347 C376 1.164 . S
C2349 C634 1.244 . S
C2365 C648 1.244 . S
C2367 C390 1.164 . S
C2383 C362 1.164 . S
C2385 C662 1.244 . S
