# Generated by pormake.
# Topology yfk, (5)-cn, num edge types: 1
# Building blocks:
#     Node 0, Type 0, BuildingBlock: BEQFEK_clean_sbu_0, # of connection points: 5
#     Node 1, Type 0, BuildingBlock: BEQFEK_clean_sbu_0, # of connection points: 5
#     Node 2, Type 0, BuildingBlock: BEQFEK_clean_sbu_0, # of connection points: 5
#     Node 3, Type 0, BuildingBlock: BEQFEK_clean_sbu_0, # of connection points: 5
#     Node 4, Type 0, BuildingBlock: BEQFEK_clean_sbu_0, # of connection points: 5
#     Node 5, Type 0, BuildingBlock: BEQFEK_clean_sbu_0, # of connection points: 5
#     Node 6, Type 0, BuildingBlock: BEQFEK_clean_sbu_0, # of connection points: 5
#     Node 7, Type 0, BuildingBlock: BEQFEK_clean_sbu_0, # of connection points: 5
#     Node 8, Type 0, BuildingBlock: BEQFEK_clean_sbu_0, # of connection points: 5
#     Node 9, Type 0, BuildingBlock: BEQFEK_clean_sbu_0, # of connection points: 5
#     Node 10, Type 0, BuildingBlock: BEQFEK_clean_sbu_0, # of connection points: 5
#     Node 11, Type 0, BuildingBlock: BEQFEK_clean_sbu_0, # of connection points: 5
#     Node 12, Type 0, BuildingBlock: BEQFEK_clean_sbu_0, # of connection points: 5
#     Node 13, Type 0, BuildingBlock: BEQFEK_clean_sbu_0, # of connection points: 5
#     Node 14, Type 0, BuildingBlock: BEQFEK_clean_sbu_0, # of connection points: 5
#     Node 15, Type 0, BuildingBlock: BEQFEK_clean_sbu_0, # of connection points: 5
#     Edge 16, Type (0, 0), None
#     Edge 17, Type (0, 0), None
#     Edge 18, Type (0, 0), None
#     Edge 19, Type (0, 0), None
#     Edge 20, Type (0, 0), None
#     Edge 21, Type (0, 0), None
#     Edge 22, Type (0, 0), None
#     Edge 23, Type (0, 0), None
#     Edge 24, Type (0, 0), None
#     Edge 25, Type (0, 0), None
#     Edge 26, Type (0, 0), None
#     Edge 27, Type (0, 0), None
#     Edge 28, Type (0, 0), None
#     Edge 29, Type (0, 0), None
#     Edge 30, Type (0, 0), None
#     Edge 31, Type (0, 0), None
#     Edge 32, Type (0, 0), None
#     Edge 33, Type (0, 0), None
#     Edge 34, Type (0, 0), None
#     Edge 35, Type (0, 0), None
#     Edge 36, Type (0, 0), None
#     Edge 37, Type (0, 0), None
#     Edge 38, Type (0, 0), None
#     Edge 39, Type (0, 0), None
#     Edge 40, Type (0, 0), None
#     Edge 41, Type (0, 0), None
#     Edge 42, Type (0, 0), None
#     Edge 43, Type (0, 0), None
#     Edge 44, Type (0, 0), None
#     Edge 45, Type (0, 0), None
#     Edge 46, Type (0, 0), None
#     Edge 47, Type (0, 0), None
#     Edge 48, Type (0, 0), None
#     Edge 49, Type (0, 0), None
#     Edge 50, Type (0, 0), None
#     Edge 51, Type (0, 0), None
#     Edge 52, Type (0, 0), None
#     Edge 53, Type (0, 0), None
#     Edge 54, Type (0, 0), None
#     Edge 55, Type (0, 0), None
# Relax obj value: 0.300
# Max RMSD: 0.227
# Mean RMSD: 0.227
data_MOF--net-yfk--node1-BEQFEK_clean_sbu_0--edge1-none
_symmetry_space_group_name_H-M    P1
_symmetry_Int_Tables_number       1
_symmetry_cell_setting            triclinic
loop_
_symmetry_equiv_pos_as_xyz
'x, y, z'
_cell_length_a     26.7824
_cell_length_b     26.790926
_cell_length_c     17.648136
_cell_angle_alpha  90.054726
_cell_angle_beta   89.999375
_cell_angle_gamma 89.999925
loop_
_atom_site_label
_atom_site_type_symbol
_atom_site_fract_x
_atom_site_fract_y
_atom_site_fract_z
_atom_type_partial_charge
Co0 Co 0.10562 0.01771 0.39714 0.0
Co1 Co 0.09334 0.11248 0.29428 0.0
C2 C 0.03186 0.01811 0.27172 0.0
O3 O 0.05575 0.99825 0.32522 0.0
O4 O 0.04015 0.06361 0.25322 0.0
C5 C 0.13129 0.92592 0.48495 0.0
O6 O 0.15778 0.88465 0.48475 0.0
C7 C 0.0949 0.18687 0.16664 0.0
C8 C 0.09467 0.25761 0.23084 0.0
C9 C 0.09512 0.23877 0.15784 0.0
N10 N 0.09426 0.17596 0.24118 0.0
N11 N 0.09421 0.21863 0.27895 0.0
C12 C 0.09563 0.14815 0.10562 0.0
H13 H 0.09652 0.11009 0.13044 0.0
H14 H 0.12896 0.15365 0.06921 0.0
H15 H 0.06194 0.15221 0.06952 0.0
C16 C 0.20273 0.05336 0.39899 0.0
N17 N 0.16029 0.05091 0.3593 0.0
N18 N 0.15914 0.08673 0.3085 0.0
C19 C 0.20376 0.11077 0.31162 0.0
C20 C 0.23209 0.09103 0.37105 0.0
C21 C 0.21327 0.02318 0.46868 0.0
H22 H 0.17928 0.02112 0.5044 0.0
H23 H 0.22428 0.98484 0.45175 0.0
H24 H 0.24396 0.03969 0.50274 0.0
O25 O 0.08102 0.06309 0.47651 0.0
O26 O 0.07868 0.13013 0.40086 0.0
H27 H 0.20173 0.18929 0.29304 0.0
H28 H 0.258 0.15945 0.26037 0.0
C29 C 0.21686 0.1554 0.26508 0.0
H30 H 0.19984 0.15226 0.20795 0.0
H31 H 0.09389 0.22125 0.33794 0.0
O32 O 0.13207 0.95304 0.42666 0.0
C33 C 0.076 0.11004 0.46621 0.0
Co34 Co 0.00897 0.91119 0.62687 0.0
Co35 Co 0.10762 0.91719 0.71727 0.0
C36 C 0.01554 0.98138 0.74238 0.0
O37 O 0.99101 0.94386 0.72207 0.0
O38 O 0.06318 0.97836 0.74136 0.0
C39 C 0.91916 0.89656 0.52513 0.0
O40 O 0.8737 0.87818 0.52327 0.0
C41 C 0.18209 0.92295 0.84594 0.0
C42 C 0.25144 0.9053 0.78395 0.0
C43 C 0.23375 0.91774 0.85513 0.0
N44 N 0.17029 0.91411 0.7728 0.0
N45 N 0.21217 0.90356 0.73646 0.0
C46 C 0.14463 0.93673 0.90512 0.0
H47 H 0.10646 0.93794 0.88065 0.0
H48 H 0.14578 0.90898 0.95175 0.0
H49 H 0.15418 0.97376 0.92937 0.0
C50 C 0.03828 0.81098 0.6099 0.0
N51 N 0.04008 0.85278 0.65121 0.0
N52 N 0.07873 0.85193 0.69729 0.0
C53 C 0.10155 0.80707 0.68784 0.0
C54 C 0.07725 0.78063 0.63031 0.0
C55 C 1.00279 0.80243 0.54559 0.0
H56 H 0.00433 0.83479 0.50663 0.0
H57 H 0.96429 0.79899 0.56814 0.0
H58 H 0.01204 0.76821 0.51302 0.0
O59 O 0.05644 0.94209 0.5514 0.0
O60 O 0.12785 0.93022 0.61448 0.0
H61 H 0.18091 0.80232 0.69072 0.0
H62 H 0.14949 0.75064 0.73453 0.0
C63 C 0.14863 0.79175 0.72669 0.0
H64 H 0.15204 0.81087 0.78225 0.0
H65 H 0.21407 0.89543 0.6787 0.0
O66 O 0.94289 0.89479 0.58697 0.0
C67 C 0.10423 0.93927 0.55363 0.0
Co68 Co 0.90864 1.00137 0.36204 0.0
Co69 Co 0.92568 0.89764 0.28977 0.0
C70 C 0.98444 0.99287 0.25346 0.0
O71 O 0.94627 0.01783 0.27009 0.0
O72 O 0.98269 0.94537 0.26067 0.0
C73 C 0.88237 0.09171 0.45157 0.0
O74 O 0.85676 0.13348 0.45416 0.0
C75 C 0.92791 0.82113 0.16546 0.0
C76 C 0.93214 0.75122 0.23106 0.0
C77 C 0.92979 0.76919 0.1576 0.0
N78 N 0.92908 0.8329 0.23975 0.0
N79 N 0.93165 0.79073 0.27843 0.0
C80 C 0.9238 0.85908 0.10378 0.0
H81 H 0.92077 0.89726 0.12794 0.0
H82 H 0.89045 0.85102 0.06847 0.0
H83 H 0.95722 0.85689 0.06674 0.0
C84 C 0.81316 0.96044 0.38137 0.0
N85 N 0.85465 0.96221 0.33927 0.0
N86 N 0.85819 0.92183 0.29723 0.0
C87 C 0.81583 0.89493 0.30829 0.0
C88 C 0.78672 0.91802 0.36406 0.0
C89 C 0.80097 0.99651 0.4436 0.0
H90 H 0.834 1.001 0.48077 0.0
H91 H 0.79123 0.03321 0.41865 0.0
H92 H 0.76919 0.98343 0.47872 0.0
O93 O 0.94123 0.9635 0.44672 0.0
O94 O 0.93553 0.88652 0.39835 0.0
H95 H 0.82512 0.81598 0.3076 0.0
H96 H 0.76539 0.8368 0.273 0.0
C97 C 0.80602 0.84506 0.27353 0.0
H98 H 0.82123 0.84384 0.21507 0.0
H99 H 0.93268 0.78882 0.33746 0.0
O100 O 0.88164 0.06637 0.39117 0.0
C101 C 0.94023 0.91596 0.45477 0.0
Co102 Co 0.99464 0.10804 0.60737 0.0
Co103 Co 0.89411 0.08592 0.69105 0.0
C104 C 0.99122 0.02935 0.72424 0.0
O105 O 0.01478 0.05695 0.67875 0.0
O106 O 0.94404 0.03473 0.73319 0.0
C107 C 0.08477 0.14324 0.53 0.0
O108 O 0.12253 0.17445 0.52722 0.0
C109 C 0.81668 0.08806 0.81266 0.0
C110 C 0.74784 0.07242 0.74821 0.0
C111 C 0.76495 0.08329 0.82042 0.0
N112 N 0.82918 0.08069 0.73955 0.0
N113 N 0.7877 0.07116 0.70152 0.0
C114 C 0.85386 0.10018 0.87316 0.0
H115 H 0.89212 0.1023 0.84913 0.0
H116 H 0.84418 0.1364 0.89995 0.0
H117 H 0.85265 0.071 0.91773 0.0
C118 C 0.9484 0.20013 0.60047 0.0
N119 N 0.95361 0.1584 0.64128 0.0
N120 N 0.91565 0.15359 0.68777 0.0
C121 C 0.88787 0.1959 0.68213 0.0
C122 C 0.90734 0.22621 0.62483 0.0
C123 C 0.98012 0.21357 0.53348 0.0
H124 H 0.98774 0.17986 0.49894 0.0
H125 H 0.01602 0.22941 0.55359 0.0
H126 H 0.96146 0.24174 0.4971 0.0
O127 O 0.95698 0.08269 0.5191 0.0
O128 O 0.88398 0.07552 0.58023 0.0
H129 H 0.81048 0.18165 0.70037 0.0
H130 H 0.82923 0.24497 0.72043 0.0
C131 C 0.84057 0.2052 0.72464 0.0
H132 H 0.84552 0.1947 0.7849 0.0
H133 H 0.78645 0.06445 0.6433 0.0
O134 O 0.05707 0.14327 0.5877 0.0
C135 C 0.90965 0.07628 0.51913 0.0
Co136 Co 0.1057 0.48987 0.84759 0.0
Co137 Co 0.09342 0.39512 0.95051 0.0
C138 C 0.03194 0.48949 0.97302 0.0
O139 O 0.05582 0.50933 0.91949 0.0
O140 O 0.04023 0.444 0.99157 0.0
C141 C 0.13129 0.5817 0.75986 0.0
O142 O 0.15777 0.62298 0.76002 0.0
C143 C 0.09486 0.32074 0.07818 0.0
C144 C 0.09492 0.25 0.01398 0.0
C145 C 0.09516 0.26884 0.08699 0.0
N146 N 0.09437 0.33165 0.00364 0.0
N147 N 0.09448 0.28898 0.96587 0.0
C148 C 0.09539 0.35946 0.1392 0.0
H149 H 0.09628 0.39752 0.11439 0.0
H150 H 0.12865 0.35402 0.17579 0.0
H151 H 0.06163 0.35535 0.17512 0.0
C152 C 0.2028 0.45424 0.84576 0.0
N153 N 0.16037 0.45669 0.88545 0.0
N154 N 0.15922 0.42087 0.93626 0.0
C155 C 0.20384 0.39684 0.93315 0.0
C156 C 0.23217 0.41658 0.87371 0.0
C157 C 0.21334 0.48443 0.77608 0.0
H158 H 0.17935 0.48649 0.74036 0.0
H159 H 0.22436 0.52276 0.79301 0.0
H160 H 0.24403 0.46791 0.74202 0.0
O161 O 0.08111 0.44446 0.76824 0.0
O162 O 0.07874 0.37744 0.84395 0.0
H163 H 0.20192 0.31831 0.95169 0.0
H164 H 0.2581 0.34824 0.98455 0.0
C165 C 0.21695 0.35223 0.97971 0.0
H166 H 0.19985 0.35532 0.03679 0.0
H167 H 0.0943 0.28636 0.90688 0.0
O168 O 0.13214 0.55456 0.81812 0.0
C169 C 0.07606 0.39751 0.77858 0.0
Co170 Co 0.49453 0.89942 0.13764 0.0
Co171 Co 0.39406 0.92145 0.05381 0.0
C172 C 0.49115 0.97807 0.02068 0.0
O173 O 0.51468 0.95051 0.06627 0.0
O174 O 0.44399 0.97263 0.01163 0.0
C175 C 0.58478 0.86435 0.21489 0.0
O176 O 0.62258 0.83317 0.21762 0.0
C177 C 0.31666 0.91922 0.93217 0.0
C178 C 0.24782 0.93492 0.99657 0.0
C179 C 0.26493 0.92399 0.92438 0.0
N180 N 0.32915 0.92665 0.00527 0.0
N181 N 0.28767 0.9362 0.04327 0.0
C182 C 0.35385 0.90707 0.87169 0.0
H183 H 0.3921 0.90496 0.89573 0.0
H184 H 0.34418 0.87084 0.84495 0.0
H185 H 0.35264 0.93622 0.82708 0.0
C186 C 0.44838 0.8073 0.14452 0.0
N187 N 0.45357 0.84902 0.10371 0.0
N188 N 0.41562 0.8538 0.05718 0.0
C189 C 0.38786 0.81147 0.06282 0.0
C190 C 0.40734 0.78118 0.12014 0.0
C191 C 0.4801 0.79388 0.21151 0.0
H192 H 0.48771 0.82759 0.24604 0.0
H193 H 0.51601 0.77805 0.19141 0.0
H194 H 0.46146 0.76571 0.2479 0.0
O195 O 0.45681 0.92475 0.22587 0.0
O196 O 0.38387 0.93191 0.1646 0.0
H197 H 0.31048 0.82569 0.04448 0.0
H198 H 0.32925 0.76236 0.02455 0.0
C199 C 0.34058 0.80213 0.02028 0.0
H200 H 0.34557 0.81259 0.96 0.0
H201 H 0.28641 0.94297 0.10148 0.0
O202 O 0.557 0.86424 0.15729 0.0
C203 C 0.40946 0.93115 0.22577 0.0
Co204 Co 0.90865 0.50626 0.88267 0.0
Co205 Co 0.92572 0.60996 0.95499 0.0
C206 C 0.9845 0.51473 0.99121 0.0
O207 O 0.94635 0.48976 0.97452 0.0
O208 O 0.98275 0.56223 0.98403 0.0
C209 C 0.8823 0.4158 0.79337 0.0
O210 O 0.85663 0.37406 0.79093 0.0
C211 C 0.9279 0.68647 0.07931 0.0
C212 C 0.93229 0.75636 0.01372 0.0
C213 C 0.92983 0.7384 0.08717 0.0
N214 N 0.92915 0.67469 0.00502 0.0
N215 N 0.93182 0.71686 0.96635 0.0
C216 C 0.92365 0.64851 0.14097 0.0
H217 H 0.92062 0.61034 0.11679 0.0
H218 H 0.89026 0.65661 0.17616 0.0
H219 H 0.95702 0.65066 0.17812 0.0
C220 C 0.81321 0.54721 0.86344 0.0
N221 N 0.85468 0.54541 0.90556 0.0
N222 N 0.85823 0.58577 0.94763 0.0
C223 C 0.81588 0.61268 0.93659 0.0
C224 C 0.78678 0.58962 0.8808 0.0
C225 C 0.80103 0.51119 0.80115 0.0
H226 H 0.8341 0.50664 0.76406 0.0
H227 H 0.79119 0.47449 0.82605 0.0
H228 H 0.76931 0.52433 0.76596 0.0
O229 O 0.94114 0.54416 0.7979 0.0
O230 O 0.9355 0.6211 0.84638 0.0
H231 H 0.82523 0.69162 0.93739 0.0
H232 H 0.76546 0.67083 0.97187 0.0
C233 C 0.80608 0.66254 0.9714 0.0
H234 H 0.82125 0.66371 0.02988 0.0
H235 H 0.93293 0.71877 0.90732 0.0
O236 O 0.88157 0.44125 0.85366 0.0
C237 C 0.94011 0.5917 0.78989 0.0
Co238 Co 0.50891 0.09635 0.11784 0.0
Co239 Co 0.60759 0.09017 0.02749 0.0
C240 C 0.51547 0.02603 0.00247 0.0
O241 O 0.49091 0.06353 0.02279 0.0
O242 O 0.56312 0.02901 0.0035 0.0
C243 C 0.41906 0.11116 0.21947 0.0
O244 O 0.37365 0.12965 0.22128 0.0
C245 C 0.68209 0.08435 0.89884 0.0
C246 C 0.75145 0.10187 0.96089 0.0
C247 C 0.73376 0.08951 0.88968 0.0
N248 N 0.67028 0.09315 0.97199 0.0
N249 N 0.71217 0.10363 0.00836 0.0
C250 C 0.64462 0.07069 0.83961 0.0
H251 H 0.60645 0.06949 0.86407 0.0
H252 H 0.64582 0.09848 0.79306 0.0
H253 H 0.65414 0.03367 0.81528 0.0
C254 C 0.5383 0.19652 0.13453 0.0
N255 N 0.54006 0.15469 0.0933 0.0
N256 N 0.57873 0.15546 0.04724 0.0
C257 C 0.60159 0.20032 0.05661 0.0
C258 C 0.57731 0.22682 0.11408 0.0
C259 C 0.50285 0.20514 0.19887 0.0
H260 H 0.50433 0.17278 0.23784 0.0
H261 H 0.46435 0.20865 0.17634 0.0
H262 H 0.51217 0.23935 0.23143 0.0
O263 O 0.55636 0.06554 0.19345 0.0
O264 O 0.62777 0.07727 0.13035 0.0
H265 H 0.68096 0.20491 0.0538 0.0
H266 H 0.64966 0.25664 0.00995 0.0
C267 C 0.64871 0.21554 0.0178 0.0
H268 H 0.65211 0.1964 0.96225 0.0
H269 H 0.71408 0.11172 0.06614 0.0
O270 O 0.44284 0.11289 0.15766 0.0
C271 C 0.60415 0.06836 0.19125 0.0
Co272 Co 0.60585 0.51767 0.89709 0.0
Co273 Co 0.59335 0.61253 0.79443 0.0
C274 C 0.53195 0.51811 0.77187 0.0
O275 O 0.5559 0.49824 0.8253 0.0
O276 O 0.54019 0.56363 0.7534 0.0
C277 C 0.63136 0.4258 0.98478 0.0
O278 O 0.65781 0.3845 0.98459 0.0
C279 C 0.59477 0.68689 0.66678 0.0
C280 C 0.59454 0.75765 0.73093 0.0
C281 C 0.59496 0.73879 0.65795 0.0
N282 N 0.59418 0.676 0.74132 0.0
N283 N 0.59412 0.71868 0.77907 0.0
C284 C 0.59552 0.64816 0.60579 0.0
H285 H 0.59648 0.61011 0.63062 0.0
H286 H 0.62882 0.65369 0.56931 0.0
H287 H 0.5618 0.65216 0.56974 0.0
C288 C 0.7031 0.55307 0.89829 0.0
N289 N 0.66048 0.55084 0.85902 0.0
N290 N 0.65918 0.58682 0.80847 0.0
C291 C 0.70382 0.61083 0.81135 0.0
C292 C 0.73238 0.59076 0.87024 0.0
C293 C 0.71387 0.52271 0.96771 0.0
H294 H 0.68004 0.52071 0.00379 0.0
H295 H 0.72466 0.48436 0.95049 0.0
H296 H 0.74477 0.53903 0.00153 0.0
O297 O 0.58136 0.56305 0.97656 0.0
O298 O 0.57875 0.63014 0.90103 0.0
H299 H 0.70153 0.68939 0.79327 0.0
H300 H 0.75789 0.65982 0.76033 0.0
C301 C 0.71676 0.65563 0.76509 0.0
H302 H 0.69971 0.6526 0.70796 0.0
H303 H 0.59383 0.72131 0.83806 0.0
O304 O 0.63224 0.45296 0.92655 0.0
C305 C 0.5762 0.61 0.96635 0.0
Co306 Co 0.50903 0.41106 0.12685 0.0
Co307 Co 0.60773 0.41731 0.21715 0.0
C308 C 0.51558 0.48143 0.24215 0.0
O309 O 0.49104 0.44391 0.22186 0.0
O310 O 0.56322 0.47844 0.24114 0.0
C311 C 0.41917 0.39631 0.02525 0.0
O312 O 0.37376 0.37783 0.02343 0.0
C313 C 0.68216 0.42312 0.34587 0.0
C314 C 0.75156 0.40568 0.28388 0.0
C315 C 0.73382 0.41799 0.35508 0.0
N316 N 0.6704 0.41436 0.2727 0.0
N317 N 0.71231 0.40394 0.23635 0.0
C318 C 0.64465 0.43671 0.40508 0.0
H319 H 0.60648 0.43787 0.38057 0.0
H320 H 0.64585 0.40888 0.4516 0.0
H321 H 0.65411 0.47372 0.42947 0.0
C322 C 0.53826 0.31076 0.11054 0.0
N323 N 0.54017 0.35272 0.15147 0.0
N324 N 0.5789 0.35202 0.19743 0.0
C325 C 0.6017 0.30712 0.18825 0.0
C326 C 0.57722 0.28046 0.13117 0.0
C327 C 0.5027 0.30201 0.04638 0.0
H328 H 0.50418 0.33427 0.0072 0.0
H329 H 0.46423 0.29863 0.06905 0.0
H330 H 0.51193 0.26771 0.01401 0.0
O331 O 0.55648 0.44186 0.05121 0.0
O332 O 0.62792 0.43025 0.11431 0.0
H333 H 0.68109 0.30269 0.19085 0.0
H334 H 0.64994 0.25087 0.23476 0.0
C335 C 0.6489 0.29197 0.22692 0.0
H336 H 0.65233 0.31111 0.28247 0.0
H337 H 0.71425 0.39588 0.17857 0.0
O338 O 0.44297 0.39453 0.08704 0.0
C339 C 0.60427 0.43916 0.05343 0.0
Co340 Co 0.40855 0.50129 0.86209 0.0
Co341 Co 0.42582 0.39756 0.78987 0.0
C342 C 0.48453 0.49286 0.75371 0.0
O343 O 0.44637 0.51783 0.77038 0.0
O344 O 0.48279 0.44536 0.76089 0.0
C345 C 0.3823 0.59172 0.95145 0.0
O346 O 0.35667 0.63348 0.95399 0.0
C347 C 0.42806 0.32111 0.66549 0.0
C348 C 0.43257 0.25119 0.73101 0.0
C349 C 0.43004 0.26918 0.65758 0.0
N350 N 0.42933 0.33286 0.73979 0.0
N351 N 0.43207 0.29067 0.77841 0.0
C352 C 0.42372 0.35908 0.60386 0.0
H353 H 0.42063 0.39723 0.62808 0.0
H354 H 0.39034 0.35093 0.56869 0.0
H355 H 0.45708 0.357 0.56669 0.0
C356 C 0.3129 0.46053 0.8806 0.0
N357 N 0.35461 0.46216 0.83897 0.0
N358 N 0.35831 0.42169 0.79715 0.0
C359 C 0.31591 0.39479 0.80793 0.0
C360 C 0.28655 0.4181 0.86313 0.0
C361 C 0.30045 0.49672 0.94255 0.0
H362 H 0.33331 0.50124 0.98007 0.0
H363 H 0.29089 0.5334 0.91734 0.0
H364 H 0.26849 0.48376 0.97737 0.0
O365 O 0.44096 0.4634 0.94692 0.0
O366 O 0.43559 0.38641 0.89845 0.0
H367 H 0.32557 0.31588 0.80755 0.0
H368 H 0.26569 0.33637 0.77301 0.0
C369 C 0.30628 0.34481 0.77341 0.0
H370 H 0.32145 0.34356 0.71493 0.0
H371 H 0.43321 0.28874 0.83744 0.0
O372 O 0.38151 0.5663 0.89113 0.0
C373 C 0.44014 0.41584 0.9549 0.0
Co374 Co 0.49465 0.60818 0.10733 0.0
Co375 Co 0.39408 0.58588 0.19089 0.0
C376 C 0.49122 0.52939 0.22405 0.0
O377 O 0.51476 0.557 0.17856 0.0
O378 O 0.44405 0.53474 0.23304 0.0
C379 C 0.58496 0.64317 0.03016 0.0
O380 O 0.62278 0.67431 0.02748 0.0
C381 C 0.31669 0.58792 0.31253 0.0
C382 C 0.24784 0.57227 0.24813 0.0
C383 C 0.26496 0.58313 0.32033 0.0
N384 N 0.32916 0.58057 0.23941 0.0
N385 N 0.28768 0.57104 0.20141 0.0
C386 C 0.35388 0.60005 0.37301 0.0
H387 H 0.39213 0.6022 0.34895 0.0
H388 H 0.34419 0.63627 0.39981 0.0
H389 H 0.3527 0.57088 0.41758 0.0
C390 C 0.44869 0.70048 0.10115 0.0
N391 N 0.45368 0.65853 0.14149 0.0
N392 N 0.41555 0.65356 0.18766 0.0
C393 C 0.3878 0.6959 0.18226 0.0
C394 C 0.40758 0.72645 0.12555 0.0
C395 C 0.48058 0.71416 0.03446 0.0
H396 H 0.48812 0.6806 -0.00046 0.0
H397 H 0.5165 0.72976 0.0549 0.0
H398 H 0.4621 0.74258 -0.00168 0.0
O399 O 0.45694 0.58299 0.019 0.0
O400 O 0.38395 0.57546 0.08009 0.0
H401 H 0.31039 0.68135 0.19979 0.0
H402 H 0.32883 0.74473 0.22011 0.0
C403 C 0.3403 0.705 0.22435 0.0
H404 H 0.34506 0.69448 0.28464 0.0
H405 H 0.28641 0.56434 0.14318 0.0
O406 O 0.55715 0.64331 0.08774 0.0
C407 C 0.40963 0.57638 0.01901 0.0
Co408 Co 0.60576 0.98989 0.34775 0.0
Co409 Co 0.5933 0.89508 0.45054 0.0
C410 C 0.53188 0.98949 0.47302 0.0
O411 O 0.55582 0.00934 0.41957 0.0
O412 O 0.54013 0.94398 0.49153 0.0
C413 C 0.63125 0.08172 0.25989 0.0
O414 O 0.6577 0.12302 0.26005 0.0
C415 C 0.59473 0.82073 0.57824 0.0
C416 C 0.59461 0.74998 0.51409 0.0
C417 C 0.59497 0.76884 0.58708 0.0
N418 N 0.59418 0.83162 0.50369 0.0
N419 N 0.59418 0.78895 0.46594 0.0
C420 C 0.5954 0.85948 0.63923 0.0
H421 H 0.59633 0.89753 0.61439 0.0
H422 H 0.62868 0.85398 0.67575 0.0
H423 H 0.56166 0.85544 0.67523 0.0
C424 C 0.70303 0.95453 0.34655 0.0
N425 N 0.66041 0.95676 0.3858 0.0
N426 N 0.65913 0.9208 0.4364 0.0
C427 C 0.70377 0.89681 0.43354 0.0
C428 C 0.73233 0.91687 0.37463 0.0
C429 C 0.71379 0.98487 0.27709 0.0
H430 H 0.67996 0.98683 0.241 0.0
H431 H 0.72455 0.02323 0.29428 0.0
H432 H 0.7447 0.96855 0.2433 0.0
O433 O 0.58123 0.94448 0.26837 0.0
O434 O 0.57864 0.87742 0.344 0.0
H435 H 0.70156 0.81825 0.45169 0.0
H436 H 0.75787 0.84789 0.48466 0.0
C437 C 0.71674 0.85204 0.47985 0.0
H438 H 0.69967 0.85508 0.53696 0.0
H439 H 0.59394 0.78631 0.40696 0.0
O440 O 0.63212 0.05459 0.31816 0.0
C441 C 0.57603 0.89754 0.27867 0.0
Co442 Co 0.99461 0.39923 0.63748 0.0
Co443 Co 0.89405 0.42146 0.5539 0.0
C444 C 0.99119 0.47798 0.52068 0.0
O445 O 0.01473 0.45037 0.56617 0.0
O446 O 0.94401 0.47259 0.51172 0.0
C447 C 0.08485 0.36428 0.71484 0.0
O448 O 0.12266 0.33313 0.71763 0.0
C449 C 0.81669 0.41938 0.43223 0.0
C450 C 0.74782 0.43504 0.49659 0.0
C451 C 0.76496 0.42417 0.42439 0.0
N452 N 0.82915 0.42674 0.50535 0.0
N453 N 0.78765 0.43628 0.54333 0.0
C454 C 0.8539 0.40725 0.37177 0.0
H455 H 0.89214 0.4051 0.39586 0.0
H456 H 0.84422 0.37104 0.34495 0.0
H457 H 0.85274 0.43643 0.32721 0.0
C458 C 0.94863 0.30693 0.64382 0.0
N459 N 0.95363 0.34886 0.60342 0.0
N460 N 0.91554 0.35379 0.55719 0.0
C461 C 0.88778 0.31146 0.56263 0.0
C462 C 0.90753 0.28094 0.61941 0.0
C463 C 0.98049 0.2933 0.71056 0.0
H464 H 0.98802 0.32688 0.74543 0.0
H465 H 0.01642 0.27769 0.69016 0.0
H466 H 0.962 0.26489 0.74671 0.0
O467 O 0.95692 0.4245 0.72577 0.0
O468 O 0.88392 0.43192 0.66468 0.0
H469 H 0.81038 0.32594 0.54497 0.0
H470 H 0.82888 0.26257 0.5247 0.0
C471 C 0.84032 0.30231 0.52047 0.0
H472 H 0.84512 0.31283 0.46018 0.0
H473 H 0.78637 0.44299 0.60155 0.0
O474 O 0.05709 0.36412 0.6572 0.0
C475 C 0.9096 0.43108 0.72576 0.0
Co476 Co 0.40846 0.00628 0.38269 0.0
Co477 Co 0.42572 0.11002 0.45487 0.0
C478 C 0.48443 0.01473 0.49111 0.0
O479 O 0.4463 0.98974 0.47439 0.0
O480 O 0.48269 0.06223 0.48391 0.0
C481 C 0.3821 0.91587 0.29333 0.0
O482 O 0.3564 0.87416 0.29082 0.0
C483 C 0.42808 0.18649 0.57921 0.0
C484 C 0.43239 0.25641 0.51367 0.0
C485 C 0.43001 0.23842 0.58711 0.0
N486 N 0.42924 0.17474 0.50491 0.0
N487 N 0.43186 0.21693 0.46627 0.0
C488 C 0.42389 0.14851 0.64086 0.0
H489 H 0.4208 0.11036 0.61665 0.0
H490 H 0.39056 0.15662 0.67616 0.0
H491 H 0.45731 0.15063 0.6779 0.0
C492 C 0.31283 0.04708 0.36415 0.0
N493 N 0.35452 0.04544 0.40579 0.0
N494 N 0.35822 0.0859 0.44764 0.0
C495 C 0.31583 0.1128 0.43686 0.0
C496 C 0.28648 0.08952 0.38164 0.0
C497 C 0.30038 0.01092 0.30216 0.0
H498 H 0.33325 0.00638 0.26467 0.0
H499 H 0.29078 0.97424 0.32734 0.0
H500 H 0.26844 0.02391 0.26731 0.0
O501 O 0.44089 0.04413 0.29785 0.0
O502 O 0.43548 0.12113 0.34626 0.0
H503 H 0.32539 0.19172 0.43723 0.0
H504 H 0.26559 0.17116 0.47196 0.0
C505 C 0.30619 0.16277 0.47143 0.0
H506 H 0.32143 0.16403 0.52987 0.0
H507 H 0.4329 0.21886 0.40724 0.0
O508 O 0.38137 0.9413 0.35365 0.0
C509 C 0.44004 0.09167 0.28983 0.0
Co510 Co 0.00896 0.59638 0.6178 0.0
Co511 Co 0.10766 0.59008 0.52748 0.0
C512 C 0.01551 0.52595 0.50255 0.0
O513 O 0.99092 0.56343 0.52289 0.0
O514 O 0.06315 0.52893 0.50355 0.0
C515 C 0.91915 0.61121 0.71952 0.0
O516 O 0.87375 0.62973 0.72134 0.0
C517 C 0.18212 0.58421 0.3988 0.0
C518 C 0.25151 0.60166 0.46082 0.0
C519 C 0.23379 0.58933 0.38962 0.0
N520 N 0.17034 0.593 0.47196 0.0
N521 N 0.21224 0.60343 0.50832 0.0
C522 C 0.14463 0.5706 0.33958 0.0
H523 H 0.10646 0.56944 0.36406 0.0
H524 H 0.14584 0.59842 0.29305 0.0
H525 H 0.15411 0.53359 0.3152 0.0
C526 C 0.03813 0.69671 0.63385 0.0
N527 N 0.04007 0.65471 0.59303 0.0
N528 N 0.07882 0.65538 0.5471 0.0
C529 C 0.10161 0.70029 0.55619 0.0
C530 C 0.0771 0.727 0.61319 0.0
C531 C 1.00258 0.7055 0.698 0.0
H532 H 0.00408 0.67329 0.73728 0.0
H533 H 0.9641 0.70883 0.67533 0.0
H534 H 0.01177 0.73985 0.73029 0.0
O535 O 0.05641 0.56563 0.69345 0.0
O536 O 0.12785 0.57721 0.63033 0.0
H537 H 0.181 0.70468 0.55369 0.0
H538 H 0.1499 0.7565 0.50969 0.0
C539 C 0.14884 0.71539 0.51757 0.0
H540 H 0.15228 0.69623 0.46205 0.0
H541 H 0.21417 0.61151 0.56609 0.0
O542 O 0.94292 0.61293 0.6577 0.0
C543 C 0.1042 0.56833 0.69122 0.0
loop_
_geom_bond_atom_site_label_1
_geom_bond_atom_site_label_2
_geom_bond_distance
_geom_bond_site_symmetry_2
_ccdc_geom_bond_type
Co0 O3 1.970 1_545 S
Co0 N17 1.989 . S
Co0 O25 1.967 . S
Co0 O32 1.920 1_545 S
Co1 O4 1.966 . S
Co1 N10 2.022 . S
Co1 N18 1.993 . S
Co1 O26 1.941 . S
C2 O3 1.258 1_545 S
C2 O4 1.263 . S
O3 Co0 1.970 1_565 S
O3 C2 1.258 1_565 S
O4 Co1 1.966 . S
O4 C2 1.263 . S
C5 O6 1.235 . S
C5 O32 1.289 . S
O6 C5 1.235 . S
C7 C9 1.400 . S
C7 N10 1.351 . S
C7 C12 1.501 . S
C8 C9 1.387 . S
C8 N11 1.341 . S
C9 C7 1.400 . S
C9 C8 1.387 . S
N10 Co1 2.022 . S
N10 C7 1.351 . S
N10 N11 1.365 . S
N11 C8 1.341 . S
N11 N10 1.365 . S
N11 H31 0.862 . S
C12 C7 1.501 . S
C12 H13 0.961 . S
C12 H14 0.961 . S
C12 H15 0.960 . S
H13 C12 0.961 . S
H14 C12 0.961 . S
H15 C12 0.960 . S
C16 N17 1.342 . S
C16 C20 1.401 . S
C16 C21 1.499 1_545 S
N17 Co0 1.989 . S
N17 C16 1.342 . S
N17 N18 1.388 . S
N18 Co1 1.993 . S
N18 N17 1.388 . S
N18 C19 1.346 . S
C19 N18 1.346 . S
C19 C20 1.396 . S
C19 C29 1.510 . S
C20 C16 1.401 . S
C20 C19 1.396 . S
C21 C16 1.499 1_565 S
C21 H22 0.959 . S
C21 H23 0.960 . S
C21 H24 0.961 1_565 S
H22 C21 0.959 . S
H23 C21 0.960 . S
H24 C21 0.961 1_545 S
O25 Co0 1.967 . S
O25 C33 1.258 . S
O26 Co1 1.941 . S
O26 C33 1.266 . S
H27 C29 0.959 . S
H28 C29 0.961 . S
C29 C19 1.510 . S
C29 H27 0.959 . S
C29 H28 0.961 . S
C29 H30 0.960 . S
H30 C29 0.960 . S
H31 N11 0.862 . S
O32 Co0 1.920 1_565 S
O32 C5 1.289 . S
C33 O25 1.258 . S
C33 O26 1.266 . S
Co34 O37 1.970 1_455 S
Co34 N51 1.989 . S
Co34 O59 1.967 . S
Co34 O66 1.920 1_455 S
Co35 O38 1.966 . S
Co35 N44 2.022 . S
Co35 N52 1.993 . S
Co35 O60 1.941 . S
C36 O37 1.258 1_455 S
C36 O38 1.263 . S
O37 Co34 1.970 1_655 S
O37 C36 1.258 1_655 S
O38 Co35 1.966 . S
O38 C36 1.263 . S
C39 O40 1.235 . S
C39 O66 1.289 . S
O40 C39 1.235 . S
C41 C43 1.400 . S
C41 N44 1.351 . S
C41 C46 1.501 . S
C42 C43 1.387 . S
C42 N45 1.341 . S
C43 C41 1.400 . S
C43 C42 1.387 . S
N44 Co35 2.022 . S
N44 C41 1.351 . S
N44 N45 1.365 . S
N45 C42 1.341 . S
N45 N44 1.365 . S
N45 H65 0.862 . S
C46 C41 1.501 . S
C46 H47 0.961 . S
C46 H48 0.961 . S
C46 H49 0.960 . S
H47 C46 0.961 . S
H48 C46 0.961 . S
H49 C46 0.960 . S
C50 N51 1.342 . S
C50 C54 1.401 . S
C50 C55 1.499 1_455 S
N51 Co34 1.989 . S
N51 C50 1.342 . S
N51 N52 1.388 . S
N52 Co35 1.993 . S
N52 N51 1.388 . S
N52 C53 1.346 . S
C53 N52 1.346 . S
C53 C54 1.396 . S
C53 C63 1.510 . S
C54 C50 1.401 . S
C54 C53 1.396 . S
C55 C50 1.499 1_655 S
C55 H56 0.959 . S
C55 H57 0.960 . S
C55 H58 0.961 1_655 S
H56 C55 0.959 . S
H57 C55 0.960 . S
H58 C55 0.961 1_455 S
O59 Co34 1.967 . S
O59 C67 1.258 . S
O60 Co35 1.941 . S
O60 C67 1.266 . S
H61 C63 0.959 . S
H62 C63 0.961 . S
C63 C53 1.510 . S
C63 H61 0.959 . S
C63 H62 0.961 . S
C63 H64 0.960 . S
H64 C63 0.960 . S
H65 N45 0.862 . S
O66 Co34 1.920 1_655 S
O66 C39 1.289 . S
C67 O59 1.258 . S
C67 O60 1.266 . S
Co68 O71 1.970 1_565 S
Co68 N85 1.989 . S
Co68 O93 1.967 . S
Co68 O100 1.920 1_565 S
Co69 O72 1.966 . S
Co69 N78 2.022 . S
Co69 N86 1.993 . S
Co69 O94 1.941 . S
C70 O71 1.258 1_565 S
C70 O72 1.263 . S
O71 Co68 1.970 1_545 S
O71 C70 1.258 1_545 S
O72 Co69 1.966 . S
O72 C70 1.263 . S
C73 O74 1.235 . S
C73 O100 1.289 . S
O74 C73 1.235 . S
C75 C77 1.400 . S
C75 N78 1.351 . S
C75 C80 1.501 . S
C76 C77 1.387 . S
C76 N79 1.341 . S
C77 C75 1.400 . S
C77 C76 1.387 . S
N78 Co69 2.022 . S
N78 C75 1.351 . S
N78 N79 1.365 . S
N79 C76 1.341 . S
N79 N78 1.365 . S
N79 H99 0.862 . S
C80 C75 1.501 . S
C80 H81 0.961 . S
C80 H82 0.961 . S
C80 H83 0.960 . S
H81 C80 0.961 . S
H82 C80 0.961 . S
H83 C80 0.960 . S
C84 N85 1.342 . S
C84 C88 1.401 . S
C84 C89 1.499 1_565 S
N85 Co68 1.989 . S
N85 C84 1.342 . S
N85 N86 1.388 . S
N86 Co69 1.993 . S
N86 N85 1.388 . S
N86 C87 1.346 . S
C87 N86 1.346 . S
C87 C88 1.396 . S
C87 C97 1.510 . S
C88 C84 1.401 . S
C88 C87 1.396 . S
C89 C84 1.499 1_545 S
C89 H90 0.959 . S
C89 H91 0.960 . S
C89 H92 0.961 1_545 S
H90 C89 0.959 . S
H91 C89 0.960 . S
H92 C89 0.961 1_565 S
O93 Co68 1.967 . S
O93 C101 1.258 . S
O94 Co69 1.941 . S
O94 C101 1.266 . S
H95 C97 0.959 . S
H96 C97 0.961 . S
C97 C87 1.510 . S
C97 H95 0.959 . S
C97 H96 0.961 . S
C97 H98 0.960 . S
H98 C97 0.960 . S
H99 N79 0.862 . S
O100 Co68 1.920 1_545 S
O100 C73 1.289 . S
C101 O93 1.258 . S
C101 O94 1.266 . S
Co102 O105 1.970 1_655 S
Co102 N119 1.989 . S
Co102 O127 1.967 . S
Co102 O134 1.920 1_655 S
Co103 O106 1.966 . S
Co103 N112 2.022 . S
Co103 N120 1.993 . S
Co103 O128 1.941 . S
C104 O105 1.258 1_655 S
C104 O106 1.263 . S
O105 Co102 1.970 1_455 S
O105 C104 1.258 1_455 S
O106 Co103 1.966 . S
O106 C104 1.263 . S
C107 O108 1.235 . S
C107 O134 1.289 . S
O108 C107 1.235 . S
C109 C111 1.400 . S
C109 N112 1.351 . S
C109 C114 1.501 . S
C110 C111 1.387 . S
C110 N113 1.341 . S
C111 C109 1.400 . S
C111 C110 1.387 . S
N112 Co103 2.022 . S
N112 C109 1.351 . S
N112 N113 1.365 . S
N113 C110 1.341 . S
N113 N112 1.365 . S
N113 H133 0.862 . S
C114 C109 1.501 . S
C114 H115 0.961 . S
C114 H116 0.961 . S
C114 H117 0.960 . S
H115 C114 0.961 . S
H116 C114 0.961 . S
H117 C114 0.960 . S
C118 N119 1.342 . S
C118 C122 1.401 . S
C118 C123 1.499 1_655 S
N119 Co102 1.989 . S
N119 C118 1.342 . S
N119 N120 1.388 . S
N120 Co103 1.993 . S
N120 N119 1.388 . S
N120 C121 1.346 . S
C121 N120 1.346 . S
C121 C122 1.396 . S
C121 C131 1.510 . S
C122 C118 1.401 . S
C122 C121 1.396 . S
C123 C118 1.499 1_455 S
C123 H124 0.959 . S
C123 H125 0.960 . S
C123 H126 0.961 1_455 S
H124 C123 0.959 . S
H125 C123 0.960 . S
H126 C123 0.961 1_655 S
O127 Co102 1.967 . S
O127 C135 1.258 . S
O128 Co103 1.941 . S
O128 C135 1.266 . S
H129 C131 0.959 . S
H130 C131 0.961 . S
C131 C121 1.510 . S
C131 H129 0.959 . S
C131 H130 0.961 . S
C131 H132 0.960 . S
H132 C131 0.960 . S
H133 N113 0.862 . S
O134 Co102 1.920 1_455 S
O134 C107 1.289 . S
C135 O127 1.258 . S
C135 O128 1.266 . S
Co136 O139 1.970 . S
Co136 N153 1.989 . S
Co136 O161 1.967 . S
Co136 O168 1.920 . S
Co137 O140 1.966 . S
Co137 N146 2.022 1_556 S
Co137 N154 1.993 . S
Co137 O162 1.941 . S
C138 O139 1.258 . S
C138 O140 1.263 . S
O139 Co136 1.970 . S
O139 C138 1.258 . S
O140 Co137 1.966 . S
O140 C138 1.263 . S
C141 O142 1.235 . S
C141 O168 1.289 . S
O142 C141 1.235 . S
C143 C145 1.400 . S
C143 N146 1.351 . S
C143 C148 1.501 . S
C144 C145 1.387 . S
C144 N147 1.341 . S
C145 C143 1.400 . S
C145 C144 1.387 . S
N146 Co137 2.022 1_554 S
N146 C143 1.351 . S
N146 N147 1.365 . S
N147 C144 1.341 . S
N147 N146 1.365 . S
N147 H167 0.862 1_554 S
C148 C143 1.501 . S
C148 H149 0.961 . S
C148 H150 0.961 . S
C148 H151 0.960 . S
H149 C148 0.961 . S
H150 C148 0.961 . S
H151 C148 0.960 . S
C152 N153 1.342 . S
C152 C156 1.401 . S
C152 C157 1.499 . S
N153 Co136 1.989 . S
N153 C152 1.342 . S
N153 N154 1.388 . S
N154 Co137 1.993 . S
N154 N153 1.388 . S
N154 C155 1.346 . S
C155 N154 1.346 . S
C155 C156 1.396 . S
C155 C165 1.510 1_556 S
C156 C152 1.401 . S
C156 C155 1.396 . S
C157 C152 1.499 . S
C157 H158 0.959 . S
C157 H159 0.960 . S
C157 H160 0.961 . S
H158 C157 0.959 . S
H159 C157 0.960 . S
H160 C157 0.961 . S
O161 Co136 1.967 . S
O161 C169 1.258 . S
O162 Co137 1.941 . S
O162 C169 1.266 . S
H163 C165 0.959 1_556 S
H164 C165 0.961 . S
C165 C155 1.510 1_554 S
C165 H163 0.959 1_554 S
C165 H164 0.961 . S
C165 H166 0.960 . S
H166 C165 0.960 . S
H167 N147 0.862 1_556 S
O168 Co136 1.920 . S
O168 C141 1.289 . S
C169 O161 1.258 . S
C169 O162 1.266 . S
Co170 O173 1.970 . S
Co170 N187 1.989 . S
Co170 O195 1.967 . S
Co170 O202 1.920 . S
Co171 O174 1.966 . S
Co171 N180 2.022 1_554 S
Co171 N188 1.993 . S
Co171 O196 1.941 . S
C172 O173 1.258 . S
C172 O174 1.263 . S
O173 Co170 1.970 . S
O173 C172 1.258 . S
O174 Co171 1.966 . S
O174 C172 1.263 . S
C175 O176 1.235 . S
C175 O202 1.289 . S
O176 C175 1.235 . S
C177 C179 1.400 . S
C177 N180 1.351 . S
C177 C182 1.501 . S
C178 C179 1.387 . S
C178 N181 1.341 . S
C179 C177 1.400 . S
C179 C178 1.387 . S
N180 Co171 2.022 1_556 S
N180 C177 1.351 . S
N180 N181 1.365 . S
N181 C178 1.341 . S
N181 N180 1.365 . S
N181 H201 0.862 1_556 S
C182 C177 1.501 . S
C182 H183 0.961 . S
C182 H184 0.961 . S
C182 H185 0.960 . S
H183 C182 0.961 . S
H184 C182 0.961 . S
H185 C182 0.960 . S
C186 N187 1.342 . S
C186 C190 1.401 . S
C186 C191 1.499 . S
N187 Co170 1.989 . S
N187 C186 1.342 . S
N187 N188 1.388 . S
N188 Co171 1.993 . S
N188 N187 1.388 . S
N188 C189 1.346 . S
C189 N188 1.346 . S
C189 C190 1.396 . S
C189 C199 1.510 1_554 S
C190 C186 1.401 . S
C190 C189 1.396 . S
C191 C186 1.499 . S
C191 H192 0.959 . S
C191 H193 0.960 . S
C191 H194 0.961 . S
H192 C191 0.959 . S
H193 C191 0.960 . S
H194 C191 0.961 . S
O195 Co170 1.967 . S
O195 C203 1.258 . S
O196 Co171 1.941 . S
O196 C203 1.266 . S
H197 C199 0.959 1_554 S
H198 C199 0.961 . S
C199 C189 1.510 1_556 S
C199 H197 0.959 1_556 S
C199 H198 0.961 . S
C199 H200 0.960 . S
H200 C199 0.960 . S
H201 N181 0.862 1_554 S
O202 Co170 1.920 . S
O202 C175 1.289 . S
C203 O195 1.258 . S
C203 O196 1.266 . S
Co204 O207 1.970 . S
Co204 N221 1.989 . S
Co204 O229 1.967 . S
Co204 O236 1.920 . S
Co205 O208 1.966 . S
Co205 N214 2.022 1_556 S
Co205 N222 1.993 . S
Co205 O230 1.941 . S
C206 O207 1.258 . S
C206 O208 1.263 . S
O207 Co204 1.970 . S
O207 C206 1.258 . S
O208 Co205 1.966 . S
O208 C206 1.263 . S
C209 O210 1.235 . S
C209 O236 1.289 . S
O210 C209 1.235 . S
C211 C213 1.400 . S
C211 N214 1.351 . S
C211 C216 1.501 . S
C212 C213 1.387 . S
C212 N215 1.341 . S
C213 C211 1.400 . S
C213 C212 1.387 . S
N214 Co205 2.022 1_554 S
N214 C211 1.351 . S
N214 N215 1.365 . S
N215 C212 1.341 . S
N215 N214 1.365 . S
N215 H235 0.862 1_554 S
C216 C211 1.501 . S
C216 H217 0.961 . S
C216 H218 0.961 . S
C216 H219 0.960 . S
H217 C216 0.961 . S
H218 C216 0.961 . S
H219 C216 0.960 . S
C220 N221 1.342 . S
C220 C224 1.401 . S
C220 C225 1.499 . S
N221 Co204 1.989 . S
N221 C220 1.342 . S
N221 N222 1.388 . S
N222 Co205 1.993 . S
N222 N221 1.388 . S
N222 C223 1.346 . S
C223 N222 1.346 . S
C223 C224 1.396 . S
C223 C233 1.510 1_556 S
C224 C220 1.401 . S
C224 C223 1.396 . S
C225 C220 1.499 . S
C225 H226 0.959 . S
C225 H227 0.960 . S
C225 H228 0.961 . S
H226 C225 0.959 . S
H227 C225 0.960 . S
H228 C225 0.961 . S
O229 Co204 1.967 . S
O229 C237 1.258 . S
O230 Co205 1.941 . S
O230 C237 1.266 . S
H231 C233 0.959 1_556 S
H232 C233 0.961 . S
C233 C223 1.510 1_554 S
C233 H231 0.959 1_554 S
C233 H232 0.961 . S
C233 H234 0.960 . S
H234 C233 0.960 . S
H235 N215 0.862 1_556 S
O236 Co204 1.920 . S
O236 C209 1.289 . S
C237 O229 1.258 . S
C237 O230 1.266 . S
Co238 O241 1.970 . S
Co238 N255 1.989 . S
Co238 O263 1.967 . S
Co238 O270 1.920 . S
Co239 O242 1.966 . S
Co239 N248 2.022 1_554 S
Co239 N256 1.993 . S
Co239 O264 1.941 . S
C240 O241 1.258 . S
C240 O242 1.263 . S
O241 Co238 1.970 . S
O241 C240 1.258 . S
O242 Co239 1.966 . S
O242 C240 1.263 . S
C243 O244 1.235 . S
C243 O270 1.289 . S
O244 C243 1.235 . S
C245 C247 1.400 . S
C245 N248 1.351 . S
C245 C250 1.501 . S
C246 C247 1.387 . S
C246 N249 1.341 . S
C247 C245 1.400 . S
C247 C246 1.387 . S
N248 Co239 2.022 1_556 S
N248 C245 1.351 . S
N248 N249 1.365 . S
N249 C246 1.341 . S
N249 N248 1.365 . S
N249 H269 0.862 1_556 S
C250 C245 1.501 . S
C250 H251 0.961 . S
C250 H252 0.961 . S
C250 H253 0.960 . S
H251 C250 0.961 . S
H252 C250 0.961 . S
H253 C250 0.960 . S
C254 N255 1.342 . S
C254 C258 1.401 . S
C254 C259 1.499 . S
N255 Co238 1.989 . S
N255 C254 1.342 . S
N255 N256 1.388 . S
N256 Co239 1.993 . S
N256 N255 1.388 . S
N256 C257 1.346 . S
C257 N256 1.346 . S
C257 C258 1.396 . S
C257 C267 1.510 1_554 S
C258 C254 1.401 . S
C258 C257 1.396 . S
C259 C254 1.499 . S
C259 H260 0.959 . S
C259 H261 0.960 . S
C259 H262 0.961 . S
H260 C259 0.959 . S
H261 C259 0.960 . S
H262 C259 0.961 . S
O263 Co238 1.967 . S
O263 C271 1.258 . S
O264 Co239 1.941 . S
O264 C271 1.266 . S
H265 C267 0.959 1_554 S
H266 C267 0.961 . S
C267 C257 1.510 1_556 S
C267 H265 0.959 1_556 S
C267 H266 0.961 . S
C267 H268 0.960 . S
H268 C267 0.960 . S
H269 N249 0.862 1_554 S
O270 Co238 1.920 . S
O270 C243 1.289 . S
C271 O263 1.258 . S
C271 O264 1.266 . S
Co272 O275 1.970 . S
Co272 N289 1.989 . S
Co272 O297 1.967 . S
Co272 O304 1.920 . S
Co273 O276 1.966 . S
Co273 N282 2.022 . S
Co273 N290 1.993 . S
Co273 O298 1.941 . S
C274 O275 1.258 . S
C274 O276 1.263 . S
O275 Co272 1.970 . S
O275 C274 1.258 . S
O276 Co273 1.966 . S
O276 C274 1.263 . S
C277 O278 1.235 . S
C277 O304 1.289 . S
O278 C277 1.235 . S
C279 C281 1.400 . S
C279 N282 1.351 . S
C279 C284 1.501 . S
C280 C281 1.387 . S
C280 N283 1.341 . S
C281 C279 1.400 . S
C281 C280 1.387 . S
N282 Co273 2.022 . S
N282 C279 1.351 . S
N282 N283 1.365 . S
N283 C280 1.341 . S
N283 N282 1.365 . S
N283 H303 0.862 . S
C284 C279 1.501 . S
C284 H285 0.961 . S
C284 H286 0.961 . S
C284 H287 0.960 . S
H285 C284 0.961 . S
H286 C284 0.961 . S
H287 C284 0.960 . S
C288 N289 1.342 . S
C288 C292 1.401 . S
C288 C293 1.499 . S
N289 Co272 1.989 . S
N289 C288 1.342 . S
N289 N290 1.388 . S
N290 Co273 1.993 . S
N290 N289 1.388 . S
N290 C291 1.346 . S
C291 N290 1.346 . S
C291 C292 1.396 . S
C291 C301 1.510 . S
C292 C288 1.401 . S
C292 C291 1.396 . S
C293 C288 1.499 . S
C293 H294 0.959 . S
C293 H295 0.960 . S
C293 H296 0.961 . S
H294 C293 0.959 . S
H295 C293 0.960 . S
H296 C293 0.961 . S
O297 Co272 1.967 . S
O297 C305 1.258 . S
O298 Co273 1.941 . S
O298 C305 1.266 . S
H299 C301 0.959 . S
H300 C301 0.961 . S
C301 C291 1.510 . S
C301 H299 0.959 . S
C301 H300 0.961 . S
C301 H302 0.960 . S
H302 C301 0.960 . S
H303 N283 0.862 . S
O304 Co272 1.920 . S
O304 C277 1.289 . S
C305 O297 1.258 . S
C305 O298 1.266 . S
Co306 O309 1.970 . S
Co306 N323 1.989 . S
Co306 O331 1.967 . S
Co306 O338 1.920 . S
Co307 O310 1.966 . S
Co307 N316 2.022 . S
Co307 N324 1.993 . S
Co307 O332 1.941 . S
C308 O309 1.258 . S
C308 O310 1.263 . S
O309 Co306 1.970 . S
O309 C308 1.258 . S
O310 Co307 1.966 . S
O310 C308 1.263 . S
C311 O312 1.235 . S
C311 O338 1.289 . S
O312 C311 1.235 . S
C313 C315 1.400 . S
C313 N316 1.351 . S
C313 C318 1.501 . S
C314 C315 1.387 . S
C314 N317 1.341 . S
C315 C313 1.400 . S
C315 C314 1.387 . S
N316 Co307 2.022 . S
N316 C313 1.351 . S
N316 N317 1.365 . S
N317 C314 1.341 . S
N317 N316 1.365 . S
N317 H337 0.862 . S
C318 C313 1.501 . S
C318 H319 0.961 . S
C318 H320 0.961 . S
C318 H321 0.960 . S
H319 C318 0.961 . S
H320 C318 0.961 . S
H321 C318 0.960 . S
C322 N323 1.342 . S
C322 C326 1.401 . S
C322 C327 1.499 . S
N323 Co306 1.989 . S
N323 C322 1.342 . S
N323 N324 1.388 . S
N324 Co307 1.993 . S
N324 N323 1.388 . S
N324 C325 1.346 . S
C325 N324 1.346 . S
C325 C326 1.396 . S
C325 C335 1.510 . S
C326 C322 1.401 . S
C326 C325 1.396 . S
C327 C322 1.499 . S
C327 H328 0.959 . S
C327 H329 0.960 . S
C327 H330 0.961 . S
H328 C327 0.959 . S
H329 C327 0.960 . S
H330 C327 0.961 . S
O331 Co306 1.967 . S
O331 C339 1.258 . S
O332 Co307 1.941 . S
O332 C339 1.266 . S
H333 C335 0.959 . S
H334 C335 0.961 . S
C335 C325 1.510 . S
C335 H333 0.959 . S
C335 H334 0.961 . S
C335 H336 0.960 . S
H336 C335 0.960 . S
H337 N317 0.862 . S
O338 Co306 1.920 . S
O338 C311 1.289 . S
C339 O331 1.258 . S
C339 O332 1.266 . S
Co340 O343 1.970 . S
Co340 N357 1.989 . S
Co340 O365 1.967 . S
Co340 O372 1.920 . S
Co341 O344 1.966 . S
Co341 N350 2.022 . S
Co341 N358 1.993 . S
Co341 O366 1.941 . S
C342 O343 1.258 . S
C342 O344 1.263 . S
O343 Co340 1.970 . S
O343 C342 1.258 . S
O344 Co341 1.966 . S
O344 C342 1.263 . S
C345 O346 1.235 . S
C345 O372 1.289 . S
O346 C345 1.235 . S
C347 C349 1.400 . S
C347 N350 1.351 . S
C347 C352 1.501 . S
C348 C349 1.387 . S
C348 N351 1.341 . S
C349 C347 1.400 . S
C349 C348 1.387 . S
N350 Co341 2.022 . S
N350 C347 1.351 . S
N350 N351 1.365 . S
N351 C348 1.341 . S
N351 N350 1.365 . S
N351 H371 0.862 . S
C352 C347 1.501 . S
C352 H353 0.961 . S
C352 H354 0.961 . S
C352 H355 0.960 . S
H353 C352 0.961 . S
H354 C352 0.961 . S
H355 C352 0.960 . S
C356 N357 1.342 . S
C356 C360 1.401 . S
C356 C361 1.499 . S
N357 Co340 1.989 . S
N357 C356 1.342 . S
N357 N358 1.388 . S
N358 Co341 1.993 . S
N358 N357 1.388 . S
N358 C359 1.346 . S
C359 N358 1.346 . S
C359 C360 1.396 . S
C359 C369 1.510 . S
C360 C356 1.401 . S
C360 C359 1.396 . S
C361 C356 1.499 . S
C361 H362 0.959 . S
C361 H363 0.960 . S
C361 H364 0.961 . S
H362 C361 0.959 . S
H363 C361 0.960 . S
H364 C361 0.961 . S
O365 Co340 1.967 . S
O365 C373 1.258 . S
O366 Co341 1.941 . S
O366 C373 1.266 . S
H367 C369 0.959 . S
H368 C369 0.961 . S
C369 C359 1.510 . S
C369 H367 0.959 . S
C369 H368 0.961 . S
C369 H370 0.960 . S
H370 C369 0.960 . S
H371 N351 0.862 . S
O372 Co340 1.920 . S
O372 C345 1.289 . S
C373 O365 1.258 . S
C373 O366 1.266 . S
Co374 O377 1.970 . S
Co374 N391 1.989 . S
Co374 O399 1.967 . S
Co374 O406 1.920 . S
Co375 O378 1.966 . S
Co375 N384 2.022 . S
Co375 N392 1.993 . S
Co375 O400 1.941 . S
C376 O377 1.258 . S
C376 O378 1.263 . S
O377 Co374 1.970 . S
O377 C376 1.258 . S
O378 Co375 1.966 . S
O378 C376 1.263 . S
C379 O380 1.235 . S
C379 O406 1.289 . S
O380 C379 1.235 . S
C381 C383 1.400 . S
C381 N384 1.351 . S
C381 C386 1.501 . S
C382 C383 1.387 . S
C382 N385 1.341 . S
C383 C381 1.400 . S
C383 C382 1.387 . S
N384 Co375 2.022 . S
N384 C381 1.351 . S
N384 N385 1.365 . S
N385 C382 1.341 . S
N385 N384 1.365 . S
N385 H405 0.862 . S
C386 C381 1.501 . S
C386 H387 0.961 . S
C386 H388 0.961 . S
C386 H389 0.960 . S
H387 C386 0.961 . S
H388 C386 0.961 . S
H389 C386 0.960 . S
C390 N391 1.342 . S
C390 C394 1.401 . S
C390 C395 1.499 . S
N391 Co374 1.989 . S
N391 C390 1.342 . S
N391 N392 1.388 . S
N392 Co375 1.993 . S
N392 N391 1.388 . S
N392 C393 1.346 . S
C393 N392 1.346 . S
C393 C394 1.396 . S
C393 C403 1.510 . S
C394 C390 1.401 . S
C394 C393 1.396 . S
C395 C390 1.499 . S
C395 H396 0.959 . S
C395 H397 0.960 . S
C395 H398 0.961 . S
H396 C395 0.959 . S
H397 C395 0.960 . S
H398 C395 0.961 . S
O399 Co374 1.967 . S
O399 C407 1.258 . S
O400 Co375 1.941 . S
O400 C407 1.266 . S
H401 C403 0.959 . S
H402 C403 0.961 . S
C403 C393 1.510 . S
C403 H401 0.959 . S
C403 H402 0.961 . S
C403 H404 0.960 . S
H404 C403 0.960 . S
H405 N385 0.862 . S
O406 Co374 1.920 . S
O406 C379 1.289 . S
C407 O399 1.258 . S
C407 O400 1.266 . S
Co408 O411 1.970 1_565 S
Co408 N425 1.989 . S
Co408 O433 1.967 . S
Co408 O440 1.920 1_565 S
Co409 O412 1.966 . S
Co409 N418 2.022 . S
Co409 N426 1.993 . S
Co409 O434 1.941 . S
C410 O411 1.258 1_565 S
C410 O412 1.263 . S
O411 Co408 1.970 1_545 S
O411 C410 1.258 1_545 S
O412 Co409 1.966 . S
O412 C410 1.263 . S
C413 O414 1.235 . S
C413 O440 1.289 . S
O414 C413 1.235 . S
C415 C417 1.400 . S
C415 N418 1.351 . S
C415 C420 1.501 . S
C416 C417 1.387 . S
C416 N419 1.341 . S
C417 C415 1.400 . S
C417 C416 1.387 . S
N418 Co409 2.022 . S
N418 C415 1.351 . S
N418 N419 1.365 . S
N419 C416 1.341 . S
N419 N418 1.365 . S
N419 H439 0.862 . S
C420 C415 1.501 . S
C420 H421 0.961 . S
C420 H422 0.961 . S
C420 H423 0.960 . S
H421 C420 0.961 . S
H422 C420 0.961 . S
H423 C420 0.960 . S
C424 N425 1.342 . S
C424 C428 1.401 . S
C424 C429 1.499 1_565 S
N425 Co408 1.989 . S
N425 C424 1.342 . S
N425 N426 1.388 . S
N426 Co409 1.993 . S
N426 N425 1.388 . S
N426 C427 1.346 . S
C427 N426 1.346 . S
C427 C428 1.396 . S
C427 C437 1.510 . S
C428 C424 1.401 . S
C428 C427 1.396 . S
C429 C424 1.499 1_545 S
C429 H430 0.959 . S
C429 H431 0.960 . S
C429 H432 0.961 1_545 S
H430 C429 0.959 . S
H431 C429 0.960 . S
H432 C429 0.961 1_565 S
O433 Co408 1.967 . S
O433 C441 1.258 . S
O434 Co409 1.941 . S
O434 C441 1.266 . S
H435 C437 0.959 . S
H436 C437 0.961 . S
C437 C427 1.510 . S
C437 H435 0.959 . S
C437 H436 0.961 . S
C437 H438 0.960 . S
H438 C437 0.960 . S
H439 N419 0.862 . S
O440 Co408 1.920 1_545 S
O440 C413 1.289 . S
C441 O433 1.258 . S
C441 O434 1.266 . S
Co442 O445 1.970 1_655 S
Co442 N459 1.989 . S
Co442 O467 1.967 . S
Co442 O474 1.920 1_655 S
Co443 O446 1.966 . S
Co443 N452 2.022 . S
Co443 N460 1.993 . S
Co443 O468 1.941 . S
C444 O445 1.258 1_655 S
C444 O446 1.263 . S
O445 Co442 1.970 1_455 S
O445 C444 1.258 1_455 S
O446 Co443 1.966 . S
O446 C444 1.263 . S
C447 O448 1.235 . S
C447 O474 1.289 . S
O448 C447 1.235 . S
C449 C451 1.400 . S
C449 N452 1.351 . S
C449 C454 1.501 . S
C450 C451 1.387 . S
C450 N453 1.341 . S
C451 C449 1.400 . S
C451 C450 1.387 . S
N452 Co443 2.022 . S
N452 C449 1.351 . S
N452 N453 1.365 . S
N453 C450 1.341 . S
N453 N452 1.365 . S
N453 H473 0.862 . S
C454 C449 1.501 . S
C454 H455 0.961 . S
C454 H456 0.961 . S
C454 H457 0.960 . S
H455 C454 0.961 . S
H456 C454 0.961 . S
H457 C454 0.960 . S
C458 N459 1.342 . S
C458 C462 1.401 . S
C458 C463 1.499 1_655 S
N459 Co442 1.989 . S
N459 C458 1.342 . S
N459 N460 1.388 . S
N460 Co443 1.993 . S
N460 N459 1.388 . S
N460 C461 1.346 . S
C461 N460 1.346 . S
C461 C462 1.396 . S
C461 C471 1.510 . S
C462 C458 1.401 . S
C462 C461 1.396 . S
C463 C458 1.499 1_455 S
C463 H464 0.959 . S
C463 H465 0.960 . S
C463 H466 0.961 1_455 S
H464 C463 0.959 . S
H465 C463 0.960 . S
H466 C463 0.961 1_655 S
O467 Co442 1.967 . S
O467 C475 1.258 . S
O468 Co443 1.941 . S
O468 C475 1.266 . S
H469 C471 0.959 . S
H470 C471 0.961 . S
C471 C461 1.510 . S
C471 H469 0.959 . S
C471 H470 0.961 . S
C471 H472 0.960 . S
H472 C471 0.960 . S
H473 N453 0.862 . S
O474 Co442 1.920 1_455 S
O474 C447 1.289 . S
C475 O467 1.258 . S
C475 O468 1.266 . S
Co476 O479 1.970 1_545 S
Co476 N493 1.989 . S
Co476 O501 1.967 . S
Co476 O508 1.920 1_545 S
Co477 O480 1.966 . S
Co477 N486 2.022 . S
Co477 N494 1.993 . S
Co477 O502 1.941 . S
C478 O479 1.258 1_545 S
C478 O480 1.263 . S
O479 Co476 1.970 1_565 S
O479 C478 1.258 1_565 S
O480 Co477 1.966 . S
O480 C478 1.263 . S
C481 O482 1.235 . S
C481 O508 1.289 . S
O482 C481 1.235 . S
C483 C485 1.400 . S
C483 N486 1.351 . S
C483 C488 1.501 . S
C484 C485 1.387 . S
C484 N487 1.341 . S
C485 C483 1.400 . S
C485 C484 1.387 . S
N486 Co477 2.022 . S
N486 C483 1.351 . S
N486 N487 1.365 . S
N487 C484 1.341 . S
N487 N486 1.365 . S
N487 H507 0.862 . S
C488 C483 1.501 . S
C488 H489 0.961 . S
C488 H490 0.961 . S
C488 H491 0.960 . S
H489 C488 0.961 . S
H490 C488 0.961 . S
H491 C488 0.960 . S
C492 N493 1.342 . S
C492 C496 1.401 . S
C492 C497 1.499 1_545 S
N493 Co476 1.989 . S
N493 C492 1.342 . S
N493 N494 1.388 . S
N494 Co477 1.993 . S
N494 N493 1.388 . S
N494 C495 1.346 . S
C495 N494 1.346 . S
C495 C496 1.396 . S
C495 C505 1.510 . S
C496 C492 1.401 . S
C496 C495 1.396 . S
C497 C492 1.499 1_565 S
C497 H498 0.959 . S
C497 H499 0.960 . S
C497 H500 0.961 1_565 S
H498 C497 0.959 . S
H499 C497 0.960 . S
H500 C497 0.961 1_545 S
O501 Co476 1.967 . S
O501 C509 1.258 . S
O502 Co477 1.941 . S
O502 C509 1.266 . S
H503 C505 0.959 . S
H504 C505 0.961 . S
C505 C495 1.510 . S
C505 H503 0.959 . S
C505 H504 0.961 . S
C505 H506 0.960 . S
H506 C505 0.960 . S
H507 N487 0.862 . S
O508 Co476 1.920 1_565 S
O508 C481 1.289 . S
C509 O501 1.258 . S
C509 O502 1.266 . S
Co510 O513 1.970 1_455 S
Co510 N527 1.989 . S
Co510 O535 1.967 . S
Co510 O542 1.920 1_455 S
Co511 O514 1.966 . S
Co511 N520 2.022 . S
Co511 N528 1.993 . S
Co511 O536 1.941 . S
C512 O513 1.258 1_455 S
C512 O514 1.263 . S
O513 Co510 1.970 1_655 S
O513 C512 1.258 1_655 S
O514 Co511 1.966 . S
O514 C512 1.263 . S
C515 O516 1.235 . S
C515 O542 1.289 . S
O516 C515 1.235 . S
C517 C519 1.400 . S
C517 N520 1.351 . S
C517 C522 1.501 . S
C518 C519 1.387 . S
C518 N521 1.341 . S
C519 C517 1.400 . S
C519 C518 1.387 . S
N520 Co511 2.022 . S
N520 C517 1.351 . S
N520 N521 1.365 . S
N521 C518 1.341 . S
N521 N520 1.365 . S
N521 H541 0.862 . S
C522 C517 1.501 . S
C522 H523 0.961 . S
C522 H524 0.961 . S
C522 H525 0.960 . S
H523 C522 0.961 . S
H524 C522 0.961 . S
H525 C522 0.960 . S
C526 N527 1.342 . S
C526 C530 1.401 . S
C526 C531 1.499 1_455 S
N527 Co510 1.989 . S
N527 C526 1.342 . S
N527 N528 1.388 . S
N528 Co511 1.993 . S
N528 N527 1.388 . S
N528 C529 1.346 . S
C529 N528 1.346 . S
C529 C530 1.396 . S
C529 C539 1.510 . S
C530 C526 1.401 . S
C530 C529 1.396 . S
C531 C526 1.499 1_655 S
C531 H532 0.959 . S
C531 H533 0.960 . S
C531 H534 0.961 1_655 S
H532 C531 0.959 . S
H533 C531 0.960 . S
H534 C531 0.961 1_455 S
O535 Co510 1.967 . S
O535 C543 1.258 . S
O536 Co511 1.941 . S
O536 C543 1.266 . S
H537 C539 0.959 . S
H538 C539 0.961 . S
C539 C529 1.510 . S
C539 H537 0.959 . S
C539 H538 0.961 . S
C539 H540 0.960 . S
H540 C539 0.960 . S
H541 N521 0.862 . S
O542 Co510 1.920 1_655 S
O542 C515 1.289 . S
C543 O535 1.258 . S
C543 O536 1.266 . S
C145 C9 2.206 . S
C43 C179 2.206 . S
C77 C213 2.206 . S
C111 C247 2.206 . S
C281 C417 2.206 . S
C451 C315 2.206 . S
C485 C349 2.206 . S
C383 C519 2.206 . S
C20 C496 1.695 . S
C54 C530 1.695 . S
C88 C428 1.695 . S
C462 C122 1.695 . S
C360 C156 1.695 . S
C190 C394 1.695 . S
C224 C292 1.695 . S
C258 C326 1.695 . S
C2 C70 1.749 1_445 S
C36 C104 1.749 1_465 S
C138 C206 1.749 1_455 S
C172 C240 1.749 1_565 S
C342 C274 1.749 . S
C376 C308 1.749 . S
C410 C478 1.749 1_565 S
C444 C512 1.749 1_655 S
C67 C5 2.248 . S
C39 C101 2.248 . S
C135 C73 2.248 . S
C107 C33 2.248 . S
C543 C141 2.248 . S
C175 C441 2.248 . S
C209 C475 2.248 . S
C243 C509 2.248 . S
C277 C339 2.248 1_556 S
C373 C311 2.248 1_556 S
C345 C407 2.248 1_556 S
C379 C305 2.248 1_554 S
C271 C413 2.248 . S
C447 C169 2.248 . S
C481 C203 2.248 . S
C515 C237 2.248 . S
