# Generated by pormake.
# Topology rkf, (6)-cn, num edge types: 1
# Building blocks:
#     Node 0, Type 0, BuildingBlock: CUKXOW_clean_sbu_0, # of connection points: 6
#     Node 1, Type 0, BuildingBlock: CUKXOW_clean_sbu_0, # of connection points: 6
#     Node 2, Type 0, BuildingBlock: CUKXOW_clean_sbu_0, # of connection points: 6
#     Node 3, Type 0, BuildingBlock: CUKXOW_clean_sbu_0, # of connection points: 6
#     Node 4, Type 0, BuildingBlock: CUKXOW_clean_sbu_0, # of connection points: 6
#     Node 5, Type 0, BuildingBlock: CUKXOW_clean_sbu_0, # of connection points: 6
#     Edge 6, Type (0, 0), BuildingBlock: TEMPAE_clean_linker_10, # of connection points: 2
#     Edge 7, Type (0, 0), BuildingBlock: TEMPAE_clean_linker_10, # of connection points: 2
#     Edge 8, Type (0, 0), BuildingBlock: TEMPAE_clean_linker_10, # of connection points: 2
#     Edge 9, Type (0, 0), BuildingBlock: TEMPAE_clean_linker_10, # of connection points: 2
#     Edge 10, Type (0, 0), BuildingBlock: TEMPAE_clean_linker_10, # of connection points: 2
#     Edge 11, Type (0, 0), BuildingBlock: TEMPAE_clean_linker_10, # of connection points: 2
#     Edge 12, Type (0, 0), BuildingBlock: TEMPAE_clean_linker_10, # of connection points: 2
#     Edge 13, Type (0, 0), BuildingBlock: TEMPAE_clean_linker_10, # of connection points: 2
#     Edge 14, Type (0, 0), BuildingBlock: TEMPAE_clean_linker_10, # of connection points: 2
#     Edge 15, Type (0, 0), BuildingBlock: TEMPAE_clean_linker_10, # of connection points: 2
#     Edge 16, Type (0, 0), BuildingBlock: TEMPAE_clean_linker_10, # of connection points: 2
#     Edge 17, Type (0, 0), BuildingBlock: TEMPAE_clean_linker_10, # of connection points: 2
#     Edge 18, Type (0, 0), BuildingBlock: TEMPAE_clean_linker_10, # of connection points: 2
#     Edge 19, Type (0, 0), BuildingBlock: TEMPAE_clean_linker_10, # of connection points: 2
#     Edge 20, Type (0, 0), BuildingBlock: TEMPAE_clean_linker_10, # of connection points: 2
#     Edge 21, Type (0, 0), BuildingBlock: TEMPAE_clean_linker_10, # of connection points: 2
#     Edge 22, Type (0, 0), BuildingBlock: TEMPAE_clean_linker_10, # of connection points: 2
#     Edge 23, Type (0, 0), BuildingBlock: TEMPAE_clean_linker_10, # of connection points: 2
# Relax obj value: 0.318
# Max RMSD: 0.271
# Mean RMSD: 0.269
data_MOF--net-rkf--node1-CUKXOW_clean_sbu_0--edge1-TEMPAE_clean_linker_10
_symmetry_space_group_name_H-M    P1
_symmetry_Int_Tables_number       1
_symmetry_cell_setting            triclinic
loop_
_symmetry_equiv_pos_as_xyz
'x, y, z'
_cell_length_a     24.428892
_cell_length_b     24.522014
_cell_length_c     40.467185
_cell_angle_alpha  90.109326
_cell_angle_beta   89.899704
_cell_angle_gamma 120.217
loop_
_atom_site_label
_atom_site_type_symbol
_atom_site_fract_x
_atom_site_fract_y
_atom_site_fract_z
_atom_type_partial_charge
Tb0 Tb 0.28539 0.05338 1.02864 0.0
C1 C 0.4001 0.06699 0.0729 0.0
Tb2 Tb 0.25984 0.95203 0.08523 0.0
O3 O 0.29517 0.11936 0.06802 0.0
O4 O 0.2374 0.02314 0.07443 0.0
O5 O 0.38186 0.08021 1.0441 0.0
C6 C 0.20033 0.87966 0.13867 0.0
O7 O 0.35954 0.02429 0.0947 0.0
C8 C 0.29699 0.93083 1.02718 0.0
C9 C 0.16475 0.92093 1.03093 0.0
O10 O 0.24345 0.93951 0.13934 0.0
O11 O 0.19527 0.86071 0.10827 0.0
O12 O 0.26943 0.88745 1.04983 0.0
O13 O 0.3059 0.98138 1.0396 0.0
O14 O 0.17157 0.9303 0.06299 0.0
O15 O 0.2066 0.96351 1.01036 0.0
C16 C 0.27821 0.12009 0.97748 0.0
O17 O 0.23147 0.07982 0.99566 0.0
O18 O 0.32991 0.12183 0.98749 0.0
C19 C 0.25992 0.07537 0.08872 0.0
Tb20 Tb 0.11185 0.17294 0.42283 0.0
C21 C 0.02054 0.05645 0.38138 0.0
Tb22 Tb 0.16764 0.10008 0.38411 0.0
O23 O 0.082 0.20089 0.37736 0.0
O24 O 0.15046 0.17551 0.37568 0.0
O25 O 0.02547 0.08798 0.40898 0.0
C26 C 0.22958 0.09164 0.33199 0.0
O27 O 0.0693 0.05489 0.36763 0.0
C28 C 0.14462 0.06104 0.4467 0.0
C29 C 0.26094 0.2261 0.42238 0.0
O30 O 0.18157 0.04348 0.34618 0.0
O31 O 0.24235 0.14266 0.34768 0.0
O32 O 0.168 0.03968 0.42446 0.0
O33 O 0.13581 0.10215 0.43235 0.0
O34 O 0.2547 0.179 0.40352 0.0
O35 O 0.21249 0.23111 0.4334 0.0
C36 C 0.08044 0.22755 0.4703 0.0
O37 O 0.11434 0.2559 0.44444 0.0
O38 O 0.06341 0.16805 0.46918 0.0
C39 C 0.1156 0.18773 0.35739 0.0
Tb40 Tb 0.96441 0.24074 0.70211 0.0
C41 C 0.9561 0.34667 0.74402 0.0
Tb42 Tb 0.07803 0.33074 0.75269 0.0
O43 O 0.90506 0.18917 0.74492 0.0
O44 O 0.00279 0.23681 0.74804 0.0
O45 O 0.93714 0.30978 0.71692 0.0
C46 C 0.14677 0.32167 0.80205 0.0
O47 O 0.00379 0.35464 0.76384 0.0
C48 C 0.08303 0.37877 0.69336 0.0
C49 C 0.10901 0.27235 0.6915 0.0
O50 O 0.14265 0.37231 0.79609 0.0
O51 O 0.11094 0.27782 0.78131 0.0
O52 O 0.13105 0.40372 0.71407 0.0
O53 O 0.03839 0.33332 0.70819 0.0
O54 O 0.12769 0.3009 0.72038 0.0
O55 O 0.05018 0.24753 0.67967 0.0
C56 C 0.88973 0.15965 0.65494 0.0
O57 O 0.91844 0.14778 0.67847 0.0
O58 O 0.90334 0.21837 0.65779 0.0
C59 C 0.95277 0.20793 0.76484 0.0
Tb60 Tb 0.84351 0.95211 0.09 0.0
C61 C 0.96242 0.96355 0.06154 0.0
Tb62 Tb 0.92802 0.06981 0.05344 0.0
O63 O 0.82871 0.89115 1.04653 0.0
O64 O 0.84814 0.98243 1.03976 0.0
O65 O 0.93086 0.95086 0.08945 0.0
C66 C 0.97072 0.15557 1.00477 0.0
O67 O 0.96521 0.00771 1.04159 0.0
C68 C 0.9647 0.07616 0.11576 0.0
C69 C 0.79444 0.04626 0.07885 0.0
O70 O 0.9378 0.15502 1.03 0.0
O71 O 0.98253 0.10997 1.00814 0.0
O72 O 0.0018 0.10625 0.0911 0.0
O73 O 0.90768 0.04877 0.10527 0.0
O74 O 0.84575 0.08201 0.06089 0.0
O75 O 0.78502 -0.00535 0.09404 0.0
C76 C 0.77744 0.86437 0.13542 0.0
O77 O 0.75377 0.87438 0.109 0.0
O78 O 0.83793 0.90395 0.13625 0.0
C79 C 0.8417 0.93426 1.02442 0.0
Tb80 Tb 0.77499 0.73473 0.36066 0.0
C81 C 0.66718 0.62885 0.40516 0.0
Tb82 Tb 0.69766 0.77268 0.41286 0.0
O83 O 0.82891 0.72666 0.40197 0.0
O84 O 0.78795 0.7824 0.40583 0.0
O85 O 0.70002 0.64165 0.37672 0.0
C86 C 0.71427 0.85095 0.46394 0.0
O87 O 0.66654 0.67285 0.4249 0.0
C88 C 0.63877 0.72508 0.3562 0.0
C89 C 0.75366 0.8527 0.34837 0.0
O90 O 0.66044 0.79963 0.45669 0.0
O91 O 0.75679 0.85594 0.44296 0.0
O92 O 0.61962 0.75237 0.37766 0.0
O93 O 0.6862 0.72601 0.36877 0.0
O94 O 0.73213 0.85076 0.37864 0.0
O95 O 0.76879 0.81131 0.33646 0.0
C96 C 0.85484 0.74499 0.31193 0.0
O97 O 0.86098 0.78973 0.33154 0.0
O98 O 0.8024 0.6929 0.31959 0.0
C99 C 0.81527 0.75928 0.42208 0.0
Tb100 Tb 0.06752 0.90231 0.7557 0.0
C101 C 0.04663 0.00435 0.72558 0.0
Tb102 Tb 0.9428 0.85942 0.7167 0.0
O103 O 0.12648 0.94642 0.71166 0.0
O104 O 0.03434 0.87242 0.70625 0.0
O105 O 0.06859 -0.00957 0.75214 0.0
C106 C 0.86922 0.82233 0.6633 0.0
O107 O -0.00074 0.96043 0.70766 0.0
C108 C 0.92416 0.87452 0.7802 0.0
C109 C 0.97184 0.75691 0.74567 0.0
O110 O 0.90953 0.88043 0.67107 0.0
O111 O 0.86802 0.78558 0.6866 0.0
O112 O 0.88124 0.85823 0.75728 0.0
O113 O 0.97357 0.88145 0.76591 0.0
O114 O 0.93823 0.76928 0.7245 0.0
O115 O 0.02047 0.80098 0.76246 0.0
C116 C 0.15108 0.9229 0.80333 0.0
O117 O 0.11151 0.94351 0.80297 0.0
O118 O 0.1447 0.89152 0.77633 0.0
C119 C 0.08185 0.91461 0.69022 0.0
C120 C 0.9297 0.84946 0.0568 0.0
C121 C 0.96843 0.91215 1.04617 0.0
C122 C 0.92433 0.79865 1.03809 0.0
C123 C 0.96305 0.81043 1.00976 0.0
C124 C -0.00932 0.87232 0.99613 0.0
C125 C -0.0023 0.92265 1.01548 0.0
C126 C 0.87397 0.73289 1.04752 0.0
C127 C 0.00544 0.8859 0.96017 0.0
C128 C 0.07635 0.81255 1.04313 0.0
C129 C 0.11318 0.85933 1.01963 0.0
C130 C 0.01837 0.76132 1.03304 0.0
C131 C -0.00732 0.76943 1.00348 0.0
C132 C 0.03894 0.79094 0.97821 0.0
C133 C 0.09925 0.84276 0.98607 0.0
C134 C -0.01384 0.70228 0.05338 0.0
C135 C 0.0229 0.76365 0.94401 0.0
H136 H 0.90051 0.83944 0.07868 0.0
H137 H 0.02175 0.96988 1.00512 0.0
H138 H 0.86976 0.69715 1.02926 0.0
H139 H 0.88341 0.72135 0.07259 0.0
H140 H 0.82753 0.73077 1.04892 0.0
H141 H -0.01049 0.91871 0.95244 0.0
H142 H 0.05723 0.9106 0.95581 0.0
H143 H 0.9802 0.84313 0.9447 0.0
H144 H 0.09232 0.81512 0.0683 0.0
H145 H 0.13228 0.86996 0.96679 0.0
H146 H 0.94284 0.6648 1.04114 0.0
H147 H 0.97473 0.71312 0.07821 0.0
H148 H 0.0194 0.68447 0.05733 0.0
H149 H 0.03924 0.72908 0.94118 0.0
H150 H 0.04769 0.80101 0.9251 0.0
H151 H 0.97093 0.7385 0.9397 0.0
C152 C 0.75301 0.9532 0.33773 0.0
C153 C 0.75984 0.90266 0.32627 0.0
C154 C 0.775 0.00631 0.31717 0.0
C155 C 0.81931 0.01343 0.29247 0.0
C156 C 0.79453 0.9571 0.274 0.0
C157 C 0.7712 0.90104 0.29228 0.0
C158 C 0.74659 0.04801 0.31921 0.0
C159 C 0.78908 0.95592 0.23697 0.0
C160 C 0.95564 0.00358 0.33175 0.0
C161 C 0.96779 0.04333 0.35885 0.0
C162 C 0.91756 0.00224 0.30546 0.0
C163 C 0.8845 0.03658 0.30795 0.0
C164 C 0.90689 0.08502 0.33223 0.0
C165 C 0.94431 0.08502 0.35842 0.0
C166 C 0.92177 0.97183 0.2739 0.0
C167 C 0.89581 0.13995 0.3296 0.0
H168 H 0.72949 0.95053 0.3609 0.0
H169 H 0.76175 0.85791 0.28037 0.0
H170 H 0.76685 0.08601 0.30037 0.0
H171 H 0.6947 0.01898 0.31512 0.0
H172 H 0.75324 0.06834 0.3444 0.0
H173 H 0.77116 0.9874 0.22902 0.0
H174 H 0.83556 0.97272 0.22504 0.0
H175 H 0.75694 0.90753 0.22774 0.0
H176 H 0.97948 0.97642 0.33002 0.0
H177 H 0.95884 0.12113 0.37728 0.0
H178 H 0.92339 -1e-05 0.25226 0.0
H179 H 0.88212 0.92283 0.27176 0.0
H180 H 0.96531 0.96859 0.27341 0.0
H181 H 0.87696 0.14225 0.30505 0.0
H182 H 0.94124 0.18477 0.33336 0.0
H183 H 0.86354 0.13735 0.34962 0.0
C184 C 0.06837 0.07697 0.67929 0.0
C185 C 0.09014 0.06303 0.70794 0.0
C186 C 0.11027 0.11513 0.65474 0.0
C187 C 0.17699 0.15096 0.66123 0.0
C188 C 0.19893 0.13251 0.68935 0.0
C189 C 0.15563 0.09104 0.7128 0.0
C190 C 0.08136 0.10837 0.62116 0.0
C191 C 0.2675 0.15149 0.69374 0.0
C192 C 0.14995 0.25516 0.63769 0.0
C193 C 0.1577 0.26934 0.67171 0.0
C194 C 0.18938 0.23531 0.62296 0.0
C195 C 0.22025 0.21491 0.64485 0.0
C196 C 0.25244 0.26215 0.66898 0.0
C197 C 0.21577 0.28239 0.68607 0.0
C198 C 0.1965 0.23407 0.58617 0.0
C199 C 0.32312 0.29651 0.6727 0.0
H200 H 0.01785 0.05226 0.67428 0.0
H201 H 0.17346 0.07693 0.73366 0.0
H202 H 0.06368 0.1416 0.61835 0.0
H203 H 0.11512 0.11466 0.60131 0.0
H204 H 0.03924 0.06068 0.61832 0.0
H205 H 0.27139 0.11058 0.70238 0.0
H206 H 0.29456 0.16856 0.67035 0.0
H207 H 0.28894 0.18813 0.71324 0.0
H208 H 0.11468 0.25861 0.62336 0.0
H209 H 0.2328 0.30869 0.70893 0.0
H210 H 0.21292 0.20099 0.57893 0.0
H211 H 0.23279 0.28194 0.57784 0.0
H212 H 0.15137 0.22155 0.57347 0.0
H213 H 0.33599 0.29655 0.69899 0.0
H214 H 0.34257 0.3466 0.66549 0.0
H215 H 0.34518 0.27581 0.65686 0.0
C216 C 0.3193 0.21825 0.94168 0.0
C217 C 0.2713 0.15701 0.95008 0.0
C218 C 0.30925 0.25374 0.91721 0.0
C219 C 0.25069 0.22665 0.89989 0.0
C220 C 0.20462 0.16294 0.90674 0.0
C221 C 0.21411 0.13059 0.93269 0.0
C222 C 0.36185 0.31955 0.90928 0.0
C223 C 0.14656 0.12566 0.88576 0.0
C224 C 0.18645 0.32604 0.86043 0.0
C225 C 0.18636 0.31199 0.82686 0.0
C226 C 0.20955 0.30075 0.88457 0.0
C227 C 0.23687 0.26379 0.87475 0.0
C228 C 0.24266 0.25541 0.84051 0.0
C229 C 0.21591 0.27795 0.81723 0.0
C230 C 0.20054 0.30991 0.92063 0.0
C231 C 0.27251 0.21815 0.82833 0.0
H232 H 0.36391 0.23907 0.95487 0.0
H233 H 0.17685 0.08313 0.93863 0.0
H234 H 0.37166 0.32404 0.88232 0.0
H235 H 0.34717 0.35421 0.91592 0.0
H236 H 0.40624 0.33201 0.92274 0.0
H237 H 0.10415 0.10083 0.90185 0.0
H238 H 0.13847 0.1538 0.86714 0.0
H239 H 0.15202 0.08927 0.87224 0.0
H240 H 0.16392 0.35236 0.86804 0.0
H241 H 0.2163 0.267 0.79128 0.0
H242 H 0.24734 0.33793 0.93273 0.0
H243 H 0.1752 0.26359 0.93337 0.0
H244 H 0.1733 0.33457 0.92424 0.0
H245 H 0.31426 0.22798 0.84355 0.0
H246 H 0.28748 0.22892 0.80208 0.0
H247 H 0.23752 0.16699 0.83021 0.0
C248 C 0.10657 0.13121 0.30275 0.0
C249 C 0.10349 0.17859 0.32058 0.0
C250 C 0.08445 0.11618 0.26972 0.0
C251 C 0.06223 0.15217 0.25245 0.0
C252 C 0.06569 0.20467 0.26965 0.0
C253 C 0.08307 0.21501 0.30349 0.0
C254 C 0.08698 0.06208 0.25373 0.0
C255 C 0.05274 0.25192 0.25291 0.0
C256 C 0.05166 0.118 0.15828 0.0
C257 C -0.01287 0.09313 0.15105 0.0
C258 C 0.07684 0.13975 0.19021 0.0
C259 C 0.03668 0.13526 0.21691 0.0
C260 C 0.97173 0.11355 0.20905 0.0
C261 C 0.94775 0.09159 0.17673 0.0
C262 C 0.14755 0.17042 0.19407 0.0
C263 C 0.92776 0.11815 0.2335 0.0
H264 H 0.12385 0.1037 0.31492 0.0
H265 H 0.08172 0.25301 0.31652 0.0
H266 H 0.05191 0.03971 0.23356 0.0
H267 H 0.13519 0.08037 0.24363 0.0
H268 H 0.07941 0.02552 0.27224 0.0
H269 H 0.0913 0.30053 0.25877 0.0
H270 H 0.04901 0.24667 0.22566 0.0
H271 H 0.0084 0.24745 0.26304 0.0
H272 H 0.08348 0.12171 0.13855 0.0
H273 H 0.8985 0.07562 0.1713 0.0
H274 H 0.16122 0.13375 0.19208 0.0
H275 H 0.16513 0.19626 0.21771 0.0
H276 H 0.17182 0.20418 0.17354 0.0
H277 H 0.87808 0.08094 0.22935 0.0
H278 H 0.92906 0.16353 0.22965 0.0
H279 H 0.9413 0.11646 0.25929 0.0
C280 C 0.83785 0.05068 0.63086 0.0
C281 C 0.85054 0.11311 0.62872 0.0
C282 C 0.80589 0.0065 0.60546 0.0
C283 C 0.78692 0.02501 0.57648 0.0
C284 C 0.79595 0.08695 0.57513 0.0
C285 C 0.82724 0.13007 0.60128 0.0
C286 C 0.79234 0.93983 0.60995 0.0
C287 C 0.77335 0.10799 0.54577 0.0
C288 C 0.79188 0.94646 0.49568 0.0
C289 C 0.72936 0.89616 0.49214 0.0
C290 C 0.81039 -0.01123 0.5225 0.0
C291 C 0.76512 0.98238 0.54645 0.0
C292 C 0.70119 0.933 0.54244 0.0
C293 C 0.68425 0.89007 0.51561 0.0
C294 C 0.87928 0.03929 0.52571 0.0
C295 C 0.65051 0.92425 0.56669 0.0
H296 H 0.85373 0.03629 0.65241 0.0
H297 H 0.83534 0.17767 0.5997 0.0
H298 H 0.74152 0.90901 0.61607 0.0
H299 H 0.80169 0.92146 0.58694 0.0
H300 H 0.82052 0.93613 0.63042 0.0
H301 H 0.77511 0.1535 0.55045 0.0
H302 H 0.80349 0.11387 0.52401 0.0
H303 H 0.72404 0.07158 0.53938 0.0
H304 H 0.82737 0.95194 0.47779 0.0
H305 H 0.63583 0.85166 0.51317 0.0
H306 H 0.89788 0.0354 0.55007 0.0
H307 H 0.88414 0.0867 0.52459 0.0
H308 H 0.9092 0.03621 0.50593 0.0
H309 H 0.64895 0.89347 0.58714 0.0
H310 H 0.60308 0.90092 0.55482 0.0
H311 H 0.66 0.96989 0.57742 0.0
C312 C 0.87806 0.97965 0.96636 0.0
C313 C 0.85513 0.92857 0.98834 0.0
C314 C 0.89274 0.97427 0.9329 0.0
C315 C 0.88424 0.91621 0.92031 0.0
C316 C 0.86025 0.86416 0.94252 0.0
C317 C 0.84647 0.87108 0.97586 0.0
C318 C 0.91873 0.03184 0.91141 0.0
C319 C 0.84914 0.80048 0.93159 0.0
C320 C 0.85447 0.86942 0.82793 0.0
C321 C 0.91494 0.88584 0.81586 0.0
C322 C 0.84455 0.88046 0.86125 0.0
C323 C 0.89613 0.90852 0.88383 0.0
C324 C 0.9578 0.92794 0.87092 0.0
C325 C 0.96583 0.91504 0.83771 0.0
C326 C 0.77872 0.86367 0.87198 0.0
C327 C 0.01722 0.96372 0.89083 0.0
H328 H 0.88462 0.0242 0.97527 0.0
H329 H 0.82888 0.83087 0.99231 0.0
H330 H 0.97113 0.05666 0.91255 0.0
H331 H 0.90433 0.01983 0.88523 0.0
H332 H 0.90341 0.06469 0.9205 0.0
H333 H 0.85591 0.77505 0.95245 0.0
H334 H 0.7995 0.77127 0.92303 0.0
H335 H 0.88105 0.80425 0.91107 0.0
H336 H 0.81446 0.8478 0.81119 0.0
H337 H 0.01278 0.92948 0.82864 0.0
H338 H 0.74561 0.85055 0.85077 0.0
H339 H 0.7801 0.90408 0.8852 0.0
H340 H 0.7596 0.8233 0.88934 0.0
H341 H 0.05503 -0.00017 0.87505 0.0
H342 H 0.03403 0.93113 0.89813 0.0
H343 H 0.01145 0.98756 0.91264 0.0
C344 C 0.93579 0.81558 0.27084 0.0
C345 C 0.90064 0.75524 0.28474 0.0
C346 C 0.98089 0.82897 0.24582 0.0
C347 C -0.00464 0.78228 0.23573 0.0
C348 C 0.96021 0.72097 0.24982 0.0
C349 C 0.91234 0.70778 0.27363 0.0
C350 C 0.0137 0.89401 0.23086 0.0
C351 C 0.97438 0.66986 0.24037 0.0
C352 C 0.08523 0.81579 0.1536 0.0
C353 C 0.14885 0.84687 0.16381 0.0
C354 C 0.03491 0.79206 0.1766 0.0
C355 C 0.04794 0.7987 0.21099 0.0
C356 C 0.11214 0.82729 0.2214 0.0
C357 C 0.16159 0.8507 0.19774 0.0
C358 C 0.9679 0.76369 0.164 0.0
C359 C 0.12917 0.83639 0.25758 0.0
H360 H 0.92743 0.85266 0.27931 0.0
H361 H 0.88592 0.66114 0.28445 0.0
H362 H 0.05738 0.92431 0.24516 0.0
H363 H 0.02667 0.89349 0.20468 0.0
H364 H -0.01692 0.91535 0.23174 0.0
H365 H 0.94257 0.6245 0.25302 0.0
H366 H 0.9695 0.66203 0.21327 0.0
H367 H 0.02418 0.68498 0.24684 0.0
H368 H 0.07467 0.81273 0.12745 0.0
H369 H 0.21029 0.87238 0.20579 0.0
H370 H 0.93698 0.7172 0.17573 0.0
H371 H 0.96501 0.75752 0.13673 0.0
H372 H 0.94886 0.79486 0.17077 0.0
H373 H 0.12977 0.87955 0.26646 0.0
H374 H 0.17674 0.84231 0.26191 0.0
H375 H 0.09398 0.79594 0.27253 0.0
C376 C 0.04104 0.89481 0.63044 0.0
C377 C 0.08645 0.93278 0.65404 0.0
C378 C 0.048 0.91237 0.59648 0.0
C379 C 0.09942 0.97111 0.58549 0.0
C380 C 0.14628 0.00856 0.60924 0.0
C381 C 0.13951 -0.01117 0.64267 0.0
C382 C 0.00391 0.86511 0.57181 0.0
C383 C 0.20595 0.06795 0.59911 0.0
C384 C 0.16216 0.00756 0.49552 0.0
C385 C 0.13245 0.03905 0.48217 0.0
C386 C 0.15043 0.9837 0.52824 0.0
C387 C 0.10748 -0.00896 0.54903 0.0
C388 C 0.0747 0.01988 0.53469 0.0
C389 C 0.08876 0.04468 0.50212 0.0
C390 C 0.18414 0.94974 0.53969 0.0
C391 C 0.02212 0.02302 0.55217 0.0
H392 H 0.00131 0.85006 0.63825 0.0
H393 H 0.1767 0.01755 0.66003 0.0
H394 H -0.01294 0.88747 0.55395 0.0
H395 H 0.03047 0.84714 0.55761 0.0
H396 H 0.963 0.82465 0.58399 0.0
H397 H 0.2303 0.09907 0.6205 0.0
H398 H 0.23933 0.05499 0.58798 0.0
H399 H 0.19604 0.09472 0.58035 0.0
H400 H 0.1952 0.0014 0.48026 0.0
H401 H 0.06342 0.0664 0.49186 0.0
H402 H 0.18394 0.91842 0.51976 0.0
H403 H 0.16282 0.92079 0.56214 0.0
H404 H 0.23446 0.98491 0.54482 0.0
H405 H 0.00577 -0.00608 0.57483 0.0
H406 H 0.98138 0.00647 0.53509 0.0
H407 H 0.03726 0.07294 0.55772 0.0
C408 C 0.4939 0.08872 0.10773 0.0
C409 C 0.46825 0.08831 0.07671 0.0
C410 C 0.55425 0.09503 0.11041 0.0
C411 C 0.58845 0.0987 0.08135 0.0
C412 C 0.56461 0.10289 0.05018 0.0
C413 C 0.5053 0.09865 1.04832 0.0
C414 C 0.57919 0.09303 0.14419 0.0
C415 C 0.59837 0.10508 1.01846 0.0
C416 C 0.75586 0.1239 0.08074 0.0
C417 C 0.74312 0.06141 0.08058 0.0
C418 C 0.70615 0.13723 0.08253 0.0
C419 C 0.64252 0.08682 0.08283 0.0
C420 C 0.62977 0.02372 0.0825 0.0
C421 C 0.68017 0.01191 0.08193 0.0
C422 C 0.72158 0.20499 0.08401 0.0
C423 C 0.56274 0.96841 0.08178 0.0
H424 H 0.46576 0.08143 0.12979 0.0
H425 H 0.48582 0.09808 1.02418 0.0
H426 H 0.57187 0.04521 0.14872 0.0
H427 H 0.6308 0.12709 0.14582 0.0
H428 H 0.55452 0.10381 0.16401 0.0
H429 H 0.57775 0.11586 0.99672 0.0
H430 H 0.64941 0.14091 1.01998 0.0
H431 H 0.59473 0.05859 1.01434 0.0
H432 H 0.8046 0.16222 0.08 0.0
H433 H 0.67016 0.96351 0.08153 0.0
H434 H 0.69647 0.21173 0.1051 0.0
H435 H 0.70492 0.21707 0.06119 0.0
H436 H 0.77322 0.23838 0.08667 0.0
H437 H 0.53655 0.96912 0.10403 0.0
H438 H 0.5611 0.92233 0.08087 0.0
H439 H 0.53742 0.9719 0.05987 0.0
C440 C 0.33415 0.34095 0.43064 0.0
C441 C 0.32538 0.28003 0.42818 0.0
C442 C 0.39497 0.39427 0.43049 0.0
C443 C 0.44857 0.3865 0.42898 0.0
C444 C 0.44014 0.32495 0.42901 0.0
C445 C 0.37848 0.27231 0.42791 0.0
C446 C 0.40155 0.45893 0.42965 0.0
C447 C 0.49609 0.31473 0.42883 0.0
C448 C 0.58789 0.52172 0.38557 0.0
C449 C 0.61978 0.56233 0.41203 0.0
C450 C 0.5338 0.46268 0.39091 0.0
C451 C 0.51231 0.44288 0.42362 0.0
C452 C 0.54765 0.48144 0.45058 0.0
C453 C 0.60034 0.54144 0.44445 0.0
C454 C 0.49676 0.42398 0.36137 0.0
C455 C 0.52786 0.4609 0.48583 0.0
H456 H 0.2933 0.34728 0.43058 0.0
H457 H 0.37187 0.22523 0.42628 0.0
H458 H 0.43279 0.48873 0.44993 0.0
H459 H 0.42391 0.48267 0.40601 0.0
H460 H 0.3552 0.45681 0.43197 0.0
H461 H 0.48202 0.26529 0.43514 0.0
H462 H 0.51806 0.32535 0.40393 0.0
H463 H 0.53269 0.347 0.44663 0.0
H464 H 0.60236 0.53795 0.36044 0.0
H465 H 0.62527 0.57266 0.46496 0.0
H466 H 0.45014 0.4215 0.36053 0.0
H467 H 0.48748 0.37498 0.36345 0.0
H468 H 0.52186 0.44426 0.33769 0.0
H469 H 0.48662 0.46625 0.49216 0.0
H470 H 0.56663 0.48958 0.50353 0.0
H471 H 0.51317 0.4104 0.48901 0.0
C472 C 0.92126 0.41672 0.71942 0.0
C473 C 0.93378 0.39219 0.74783 0.0
C474 C 0.91696 0.47152 0.72098 0.0
C475 C 0.92318 0.50121 0.75189 0.0
C476 C 0.92896 0.4727 0.78109 0.0
C477 C 0.9355 0.41909 0.77866 0.0
C478 C 0.91262 0.50111 0.6891 0.0
C479 C 0.93303 0.50143 0.81465 0.0
C480 C 0.00854 0.67975 0.75019 0.0
C481 C 0.95814 0.69145 0.74898 0.0
C482 C -0.00245 0.61799 0.75143 0.0
C483 C 0.93448 0.56672 0.75281 0.0
C484 C 0.88331 0.57844 0.75299 0.0
C485 C 0.89574 0.64086 0.7503 0.0
C486 C 0.05354 0.60768 0.75012 0.0
C487 C 0.81567 0.52517 0.7558 0.0
H488 H 0.92047 0.3965 0.69545 0.0
H489 H 0.94472 0.39991 0.8007 0.0
H490 H 0.87623 0.51529 0.69094 0.0
H491 H 0.95873 0.54444 0.6842 0.0
H492 H 0.90106 0.46874 0.66767 0.0
H493 H 0.92376 0.46721 0.83485 0.0
H494 H 0.98118 0.5427 0.81822 0.0
H495 H 0.89872 0.51837 0.81667 0.0
H496 H 0.05679 0.71901 0.74892 0.0
H497 H 0.85684 0.65019 0.74968 0.0
H498 H 0.04908 0.57781 0.72849 0.0
H499 H 0.05456 0.58237 0.77257 0.0
H500 H 0.0994 0.65269 0.74827 0.0
H501 H 0.80212 0.49566 0.73317 0.0
H502 H 0.78197 0.54263 0.75921 0.0
H503 H 0.81077 0.49424 0.77693 0.0
C504 C 0.32425 0.1205 0.13965 0.0
C505 C 0.26544 0.08213 0.12465 0.0
C506 C 0.33046 0.12179 0.17417 0.0
C507 C 0.27584 0.08606 0.19398 0.0
C508 C 0.2165 0.04648 0.17844 0.0
C509 C 0.21236 0.04492 0.14401 0.0
C510 C 0.39568 0.16133 0.18882 0.0
C511 C 0.15625 0.00423 0.19707 0.0
C512 C 0.25701 0.04329 0.28478 0.0
C513 C 0.25193 0.09312 0.29813 0.0
C514 C 0.27289 0.04419 0.25128 0.0
C515 C 0.27874 0.09345 0.23053 0.0
C516 C 0.27892 0.14627 0.24477 0.0
C517 C 0.2663 0.14567 0.27849 0.0
C518 C 0.28427 -0.00675 0.23817 0.0
C519 C 0.29273 0.20398 0.22495 0.0
H520 H 0.36583 0.14788 0.12439 0.0
H521 H 0.16723 0.01408 0.13214 0.0
H522 H 0.40898 0.21175 0.18811 0.0
H523 H 0.39869 0.14818 0.21469 0.0
H524 H 0.4312 0.1567 0.17375 0.0
H525 H 0.13776 0.95483 0.18892 0.0
H526 H 0.16147 0.00591 0.2242 0.0
H527 H 0.11966 0.0165 0.19045 0.0
H528 H 0.24882 0.00405 0.30044 0.0
H529 H 0.26448 0.18537 0.28913 0.0
H530 H 0.33614 0.01256 0.23625 0.0
H531 H 0.26452 0.97837 0.21304 0.0
H532 H 0.26435 0.9516 0.25475 0.0
H533 H 0.34471 0.23648 0.22435 0.0
H534 H 0.27141 0.23004 0.23655 0.0
H535 H 0.27595 0.19248 0.19908 0.0
C536 C 0.03946 0.22486 0.52678 0.0
C537 C 0.07137 0.25963 0.49881 0.0
C538 C 0.03797 0.25506 0.55591 0.0
C539 C 0.06936 0.32212 0.55707 0.0
C540 C 0.09674 0.357 0.52776 0.0
C541 C 0.09819 0.32534 0.49909 0.0
C542 C 0.00133 0.21351 0.58467 0.0
C543 C 0.12608 0.42776 0.5264 0.0
C544 C 0.03024 0.36673 0.63947 0.0
C545 C 0.08599 0.38434 0.65711 0.0
C546 C 0.02648 0.35383 0.60552 0.0
C547 C 0.07853 0.35492 0.58943 0.0
C548 C 0.13721 0.37969 0.60645 0.0
C549 C 0.14039 0.39523 0.64011 0.0
C550 C 0.96519 0.33468 0.58776 0.0
C551 C 0.19599 0.38649 0.59012 0.0
H552 H 0.01702 0.17381 0.52628 0.0
H553 H 0.12184 0.35239 0.47716 0.0
H554 H 0.01509 0.23747 0.60894 0.0
H555 H 0.9506 0.19703 0.5806 0.0
H556 H 0.00568 0.17064 0.58546 0.0
H557 H 0.11485 0.44204 0.50247 0.0
H558 H 0.10963 0.44641 0.54675 0.0
H559 H 0.17837 0.45012 0.52773 0.0
H560 H -0.01153 0.35995 0.65255 0.0
H561 H 0.18382 0.40998 0.65375 0.0
H562 H 0.9323 0.28348 0.5913 0.0
H563 H 0.97269 0.34452 0.56086 0.0
H564 H 0.94189 0.35985 0.59816 0.0
H565 H 0.22907 0.38524 0.60851 0.0
H566 H 0.22133 0.43286 0.57752 0.0
H567 H 0.18471 0.34919 0.57145 0.0
C568 C 0.89873 0.15975 0.81825 0.0
C569 C 0.9478 0.21041 0.80123 0.0
C570 C 0.89572 0.15995 0.85298 0.0
C571 C 0.94216 0.21308 0.87088 0.0
C572 C -0.01402 0.26748 0.85339 0.0
C573 C -0.01004 0.26439 0.81901 0.0
C574 C 0.84253 0.10275 0.86956 0.0
C575 C 0.03029 0.32817 0.87121 0.0
C576 C 0.92893 0.20371 0.96493 0.0
C577 C 0.97278 0.18457 0.97258 0.0
C578 C 0.91972 0.21586 0.932 0.0
C579 C 0.95458 0.20775 0.90641 0.0
C580 C 0.00248 0.19369 0.91462 0.0
C581 C 0.01082 0.18209 0.94757 0.0
C582 C 0.87084 0.2344 0.9245 0.0
C583 C 0.04256 0.18671 0.88849 0.0
H584 H 0.86404 0.11879 0.80456 0.0
H585 H 0.02637 0.30455 0.80633 0.0
H586 H 0.84453 0.10491 0.89686 0.0
H587 H 0.79671 0.09784 0.86175 0.0
H588 H 0.8422 0.05957 0.861 0.0
H589 H 0.0601 0.32064 0.88914 0.0
H590 H 0.06171 0.36647 0.85395 0.0
H591 H 0.00205 0.34394 0.88561 0.0
H592 H 0.89929 0.20566 0.98432 0.0
H593 H 0.04481 0.16744 0.95351 0.0
H594 H 0.82802 0.1933 0.91396 0.0
H595 H 0.88914 0.27282 0.90589 0.0
H596 H 0.85664 0.25015 0.94705 0.0
H597 H 0.01315 0.14362 0.87359 0.0
H598 H 0.08208 0.18401 0.8999 0.0
H599 H 0.06317 0.22714 0.8713 0.0
C600 C 0.77418 0.8135 0.18862 0.0
C601 C 0.74137 0.82009 0.1622 0.0
C602 C 0.74233 0.78015 0.21704 0.0
C603 C 0.67536 0.75257 0.21907 0.0
C604 C 0.64146 0.75238 0.19058 0.0
C605 C 0.67502 0.78728 0.16261 0.0
C606 C 0.78242 0.7763 0.2443 0.0
C607 C 0.57007 0.71822 0.18989 0.0
C608 C 0.63354 0.6741 0.30238 0.0
C609 C 0.62559 0.71821 0.32057 0.0
C610 C 0.63974 0.67879 0.26787 0.0
C611 C 0.64313 0.73173 0.2518 0.0
C612 C 0.62662 0.77139 0.26979 0.0
C613 C 0.61678 0.76306 0.30402 0.0
C614 C 0.64887 0.6304 0.24949 0.0
C615 C 0.62247 0.82518 0.25423 0.0
H616 H 0.82547 0.83659 0.18769 0.0
H617 H 0.6493 0.79059 0.14163 0.0
H618 H 0.8281 0.82132 0.24614 0.0
H619 H 0.75977 0.76541 0.26892 0.0
H620 H 0.79385 0.73914 0.23786 0.0
H621 H 0.55227 0.69827 0.16492 0.0
H622 H 0.54872 0.67944 0.20827 0.0
H623 H 0.5538 0.75219 0.19522 0.0
H624 H 0.63827 0.63792 0.31522 0.0
H625 H 0.60875 0.79602 0.31818 0.0
H626 H 0.69779 0.63983 0.25355 0.0
H627 H 0.64053 0.63065 0.22255 0.0
H628 H 0.61613 0.58247 0.25934 0.0
H629 H 0.64042 0.86608 0.27137 0.0
H630 H 0.5719 0.80922 0.24941 0.0
H631 H 0.64851 0.84178 0.23065 0.0
C632 C 0.86012 0.74511 0.47451 0.0
C633 C 0.81341 0.75187 0.45833 0.0
C634 C 0.86052 0.74153 0.50914 0.0
C635 C 0.8128 0.74471 0.52771 0.0
C636 C 0.76143 0.74325 0.51114 0.0
C637 C 0.76324 0.74807 0.4768 0.0
C638 C 0.91286 0.73527 0.5249 0.0
C639 C 0.70593 0.73976 0.52967 0.0
C640 C 0.81579 0.73671 0.62143 0.0
C641 C 0.84571 0.801 0.62961 0.0
C642 C 0.80379 0.71698 0.58831 0.0
C643 C 0.82234 0.76278 0.56308 0.0
C644 C 0.84911 0.82731 0.57148 0.0
C645 C 0.86141 0.8457 0.60462 0.0
C646 C 0.77281 0.64761 0.58025 0.0
C647 C 0.86619 0.87731 0.54538 0.0
H648 H 0.89753 0.74468 0.46024 0.0
H649 H 0.72494 0.74877 0.46468 0.0
H650 H 0.91002 0.73245 0.55218 0.0
H651 H 0.91105 0.69184 0.51546 0.0
H652 H 0.95931 0.77546 0.51718 0.0
H653 H 0.66383 0.72344 0.51348 0.0
H654 H 0.69274 0.70734 0.55109 0.0
H655 H 0.71884 0.78709 0.53931 0.0
H656 H 0.80396 0.70203 0.6408 0.0
H657 H 0.88588 0.89545 0.61082 0.0
H658 H 0.80774 0.63789 0.56807 0.0
H659 H 0.73309 0.63375 0.56268 0.0
H660 H 0.7545 0.61767 0.6027 0.0
H661 H 0.88945 0.92535 0.55614 0.0
H662 H 0.8228 0.8694 0.53264 0.0
H663 H 0.89748 0.87468 0.52633 0.0
C664 C 0.22721 0.89868 0.83222 0.0
C665 C 0.18894 0.92621 0.83236 0.0
C666 C 0.25837 0.89715 0.86115 0.0
C667 C 0.24928 0.9221 0.89095 0.0
C668 C 0.21189 0.95146 0.89066 0.0
C669 C 0.18296 0.95374 0.86136 0.0
C670 C 0.2999 0.86801 0.85947 0.0
C671 C 0.20266 0.98214 0.92084 0.0
C672 C 0.25266 0.86424 0.97673 0.0
C673 C 0.29793 0.92089 0.99134 0.0
C674 C 0.2406 0.86137 0.94262 0.0
C675 C 0.27581 0.91612 0.92296 0.0
C676 C 0.32784 0.97018 0.93705 0.0
C677 C 0.33752 0.97238 0.97126 0.0
C678 C 0.18682 0.80155 0.92825 0.0
C679 C 0.36953 0.02799 0.91669 0.0
H680 H 0.23221 0.87762 0.80967 0.0
H681 H 0.15409 0.97587 0.86148 0.0
H682 H 0.3358 0.88511 0.87948 0.0
H683 H 0.26982 0.81599 0.86148 0.0
H684 H 0.32472 0.87829 0.83528 0.0
H685 H 0.15524 0.97801 0.9207 0.0
H686 H 0.20836 0.9627 0.94432 0.0
H687 H 0.23884 0.03291 0.92022 0.0
H688 H 0.22273 0.82414 0.9923 0.0
H689 H 0.37366 0.01586 0.98253 0.0
H690 H 0.20615 0.78061 0.91076 0.0
H691 H 0.15408 0.8118 0.91419 0.0
H692 H 0.15939 0.76597 0.94757 0.0
H693 H 0.41739 0.05591 0.92785 0.0
H694 H 0.34821 0.05861 0.91574 0.0
H695 H 0.37444 0.01503 0.891 0.0
loop_
_geom_bond_atom_site_label_1
_geom_bond_atom_site_label_2
_geom_bond_distance
_geom_bond_site_symmetry_2
_ccdc_geom_bond_type
Tb0 O3 2.453 1_556 S
Tb0 O4 2.596 1_556 S
Tb0 O5 2.374 . S
Tb0 O13 2.343 . S
Tb0 O15 2.353 . S
Tb0 O17 2.427 . S
Tb0 O18 2.513 . S
C1 O5 1.251 1_554 S
C1 O7 1.263 1_545 S
Tb2 O4 2.343 1_565 S
Tb2 O7 2.353 . S
Tb2 O10 2.427 . S
Tb2 O11 2.513 . S
Tb2 O12 2.453 1_554 S
Tb2 O13 2.596 1_564 S
Tb2 O14 2.374 . S
O3 Tb0 2.453 1_554 S
O3 C19 1.245 . S
O4 Tb0 2.596 1_554 S
O4 Tb2 2.343 1_545 S
O4 C19 1.259 . S
O5 Tb0 2.374 . S
O5 C1 1.251 1_556 S
C6 O10 1.275 . S
C6 O11 1.246 . S
O7 C1 1.263 1_565 S
O7 Tb2 2.353 . S
C8 O12 1.245 . S
C8 O13 1.259 1_565 S
C9 O14 1.257 1_545 S
C9 O15 1.261 1_554 S
O10 Tb2 2.427 . S
O10 C6 1.275 . S
O11 Tb2 2.513 . S
O11 C6 1.246 . S
O12 Tb2 2.453 1_556 S
O12 C8 1.245 . S
O13 Tb0 2.343 . S
O13 Tb2 2.596 1_546 S
O13 C8 1.259 1_545 S
O14 Tb2 2.374 . S
O14 C9 1.257 1_565 S
O15 Tb0 2.353 . S
O15 C9 1.261 1_556 S
C16 O17 1.275 . S
C16 O18 1.246 . S
O17 Tb0 2.427 . S
O17 C16 1.275 . S
O18 Tb0 2.513 . S
O18 C16 1.246 . S
C19 O3 1.245 . S
C19 O4 1.259 . S
Tb20 O23 2.453 . S
Tb20 O24 2.596 . S
Tb20 O25 2.374 . S
Tb20 O33 2.343 . S
Tb20 O35 2.353 . S
Tb20 O37 2.427 . S
Tb20 O38 2.513 . S
C21 O25 1.251 . S
C21 O27 1.263 . S
Tb22 O24 2.343 . S
Tb22 O27 2.353 . S
Tb22 O30 2.427 . S
Tb22 O31 2.513 . S
Tb22 O32 2.453 . S
Tb22 O33 2.596 . S
Tb22 O34 2.374 . S
O23 Tb20 2.453 . S
O23 C39 1.245 . S
O24 Tb20 2.596 . S
O24 Tb22 2.343 . S
O24 C39 1.259 . S
O25 Tb20 2.374 . S
O25 C21 1.251 . S
C26 O30 1.275 . S
C26 O31 1.246 . S
O27 C21 1.263 . S
O27 Tb22 2.353 . S
C28 O32 1.245 . S
C28 O33 1.259 . S
C29 O34 1.250 . S
C29 O35 1.263 . S
O30 Tb22 2.427 . S
O30 C26 1.275 . S
O31 Tb22 2.513 . S
O31 C26 1.246 . S
O32 Tb22 2.453 . S
O32 C28 1.245 . S
O33 Tb20 2.343 . S
O33 Tb22 2.596 . S
O33 C28 1.259 . S
O34 Tb22 2.374 . S
O34 C29 1.250 . S
O35 Tb20 2.353 . S
O35 C29 1.263 . S
C36 O37 1.275 . S
C36 O38 1.246 . S
O37 Tb20 2.427 . S
O37 C36 1.275 . S
O38 Tb20 2.513 . S
O38 C36 1.246 . S
C39 O23 1.245 . S
C39 O24 1.259 . S
Tb40 O43 2.453 . S
Tb40 O44 2.596 1_655 S
Tb40 O45 2.374 . S
Tb40 O53 2.343 1_655 S
Tb40 O55 2.353 . S
Tb40 O57 2.427 . S
Tb40 O58 2.513 . S
C41 O45 1.251 1_455 S
C41 O47 1.263 . S
Tb42 O44 2.343 . S
Tb42 O47 2.353 . S
Tb42 O50 2.427 . S
Tb42 O51 2.513 . S
Tb42 O52 2.453 . S
Tb42 O53 2.596 . S
Tb42 O54 2.374 . S
O43 Tb40 2.453 . S
O43 C59 1.245 . S
O44 Tb40 2.596 1_455 S
O44 Tb42 2.343 . S
O44 C59 1.259 1_455 S
O45 Tb40 2.374 . S
O45 C41 1.251 1_655 S
C46 O50 1.275 . S
C46 O51 1.246 . S
O47 C41 1.263 . S
O47 Tb42 2.353 . S
C48 O52 1.245 . S
C48 O53 1.259 . S
C49 O54 1.250 . S
C49 O55 1.263 1_455 S
O50 Tb42 2.427 . S
O50 C46 1.275 . S
O51 Tb42 2.513 . S
O51 C46 1.246 . S
O52 Tb42 2.453 . S
O52 C48 1.245 . S
O53 Tb40 2.343 1_455 S
O53 Tb42 2.596 . S
O53 C48 1.259 . S
O54 Tb42 2.374 . S
O54 C49 1.250 . S
O55 Tb40 2.353 . S
O55 C49 1.263 1_655 S
C56 O57 1.275 . S
C56 O58 1.246 . S
O57 Tb40 2.427 . S
O57 C56 1.275 . S
O58 Tb40 2.513 . S
O58 C56 1.246 . S
C59 O43 1.245 . S
C59 O44 1.259 1_655 S
Tb60 O63 2.453 1_554 S
Tb60 O64 2.596 1_564 S
Tb60 O65 2.374 . S
Tb60 O73 2.343 1_565 S
Tb60 O75 2.353 . S
Tb60 O77 2.427 . S
Tb60 O78 2.513 . S
C61 O65 1.259 1_545 S
C61 O67 1.260 1_554 S
Tb62 O64 2.343 . S
Tb62 O67 2.353 . S
Tb62 O70 2.427 . S
Tb62 O71 2.513 . S
Tb62 O72 2.453 1_556 S
Tb62 O73 2.596 1_556 S
Tb62 O74 2.374 . S
O63 Tb60 2.453 1_556 S
O63 C79 1.245 . S
O64 Tb60 2.596 1_546 S
O64 Tb62 2.343 . S
O64 C79 1.259 1_545 S
O65 Tb60 2.374 . S
O65 C61 1.259 1_565 S
C66 O70 1.275 . S
C66 O71 1.246 . S
O67 C61 1.260 1_556 S
O67 Tb62 2.353 . S
C68 O72 1.245 . S
C68 O73 1.259 . S
C69 O74 1.250 1_554 S
C69 O75 1.263 1_545 S
O70 Tb62 2.427 . S
O70 C66 1.275 . S
O71 Tb62 2.513 . S
O71 C66 1.246 . S
O72 Tb62 2.453 1_554 S
O72 C68 1.245 . S
O73 Tb60 2.343 1_545 S
O73 Tb62 2.596 1_554 S
O73 C68 1.259 . S
O74 Tb62 2.374 . S
O74 C69 1.250 1_556 S
O75 Tb60 2.353 . S
O75 C69 1.263 1_565 S
C76 O77 1.275 . S
C76 O78 1.246 . S
O77 Tb60 2.427 . S
O77 C76 1.275 . S
O78 Tb60 2.513 . S
O78 C76 1.246 . S
C79 O63 1.245 . S
C79 O64 1.259 1_565 S
Tb80 O83 2.453 . S
Tb80 O84 2.596 . S
Tb80 O85 2.374 . S
Tb80 O93 2.343 . S
Tb80 O95 2.353 . S
Tb80 O97 2.427 . S
Tb80 O98 2.513 . S
C81 O85 1.251 . S
C81 O87 1.263 . S
Tb82 O84 2.343 . S
Tb82 O87 2.353 . S
Tb82 O90 2.427 . S
Tb82 O91 2.513 . S
Tb82 O92 2.453 . S
Tb82 O93 2.596 . S
Tb82 O94 2.374 . S
O83 Tb80 2.453 . S
O83 C99 1.245 . S
O84 Tb80 2.596 . S
O84 Tb82 2.343 . S
O84 C99 1.259 . S
O85 Tb80 2.374 . S
O85 C81 1.251 . S
C86 O90 1.275 . S
C86 O91 1.246 . S
O87 C81 1.263 . S
O87 Tb82 2.353 . S
C88 O92 1.245 . S
C88 O93 1.259 . S
C89 O94 1.250 . S
C89 O95 1.263 . S
O90 Tb82 2.427 . S
O90 C86 1.275 . S
O91 Tb82 2.513 . S
O91 C86 1.246 . S
O92 Tb82 2.453 . S
O92 C88 1.245 . S
O93 Tb80 2.343 . S
O93 Tb82 2.596 . S
O93 C88 1.259 . S
O94 Tb82 2.374 . S
O94 C89 1.250 . S
O95 Tb80 2.353 . S
O95 C89 1.263 . S
C96 O97 1.275 . S
C96 O98 1.246 . S
O97 Tb80 2.427 . S
O97 C96 1.275 . S
O98 Tb80 2.513 . S
O98 C96 1.246 . S
C99 O83 1.245 . S
C99 O84 1.259 . S
Tb100 O103 2.453 . S
Tb100 O104 2.596 . S
Tb100 O105 2.374 . S
Tb100 O113 2.344 . S
Tb100 O115 2.353 . S
Tb100 O117 2.427 . S
Tb100 O118 2.513 . S
C101 O105 1.251 . S
C101 O107 1.263 1_455 S
Tb102 O104 2.343 1_655 S
Tb102 O107 2.353 . S
Tb102 O110 2.427 . S
Tb102 O111 2.513 . S
Tb102 O112 2.453 . S
Tb102 O113 2.595 1_655 S
Tb102 O114 2.374 . S
O103 Tb100 2.453 . S
O103 C119 1.245 . S
O104 Tb100 2.596 . S
O104 Tb102 2.343 1_455 S
O104 C119 1.259 . S
O105 Tb100 2.374 . S
O105 C101 1.251 . S
C106 O110 1.275 . S
C106 O111 1.246 . S
O107 C101 1.263 1_655 S
O107 Tb102 2.353 . S
C108 O112 1.245 . S
C108 O113 1.258 1_655 S
C109 O114 1.250 1_455 S
C109 O115 1.263 . S
O110 Tb102 2.427 . S
O110 C106 1.275 . S
O111 Tb102 2.513 . S
O111 C106 1.246 . S
O112 Tb102 2.453 . S
O112 C108 1.245 . S
O113 Tb100 2.344 . S
O113 Tb102 2.595 1_455 S
O113 C108 1.258 1_455 S
O114 Tb102 2.374 . S
O114 C109 1.250 1_655 S
O115 Tb100 2.353 . S
O115 C109 1.263 . S
C116 O117 1.275 . S
C116 O118 1.246 . S
O117 Tb100 2.427 . S
O117 C116 1.275 . S
O118 Tb100 2.513 . S
O118 C116 1.246 . S
C119 O103 1.245 . S
C119 O104 1.259 . S
C120 C121 1.391 1_565 S
C120 C122 1.394 . S
C120 H136 0.931 1_556 S
C121 C120 1.391 1_545 S
C121 C125 1.376 . S
C122 C120 1.394 . S
C122 C123 1.369 1_665 S
C122 C126 1.528 1_556 S
C123 C122 1.369 1_445 S
C123 C124 1.410 . S
C123 C131 1.503 . S
C124 C123 1.410 . S
C124 C125 1.392 1_455 S
C124 C127 1.511 . S
C125 C121 1.376 . S
C125 C124 1.392 1_655 S
C125 H137 0.929 . S
C126 C122 1.528 1_554 S
C126 H138 0.952 1_554 S
C126 H139 0.976 . S
C126 H140 0.957 1_554 S
C127 C124 1.511 . S
C127 H141 0.961 . S
C127 H142 0.961 . S
C127 H143 0.961 . S
C128 C129 1.370 1_554 S
C128 C130 1.363 . S
C128 H144 0.931 . S
C129 C128 1.370 1_556 S
C129 C133 1.408 1_545 S
C130 C128 1.363 . S
C130 C131 1.370 1_554 S
C130 C134 1.524 . S
C131 C123 1.503 . S
C131 C130 1.370 1_556 S
C131 C132 1.403 1_545 S
C132 C131 1.403 1_565 S
C132 C133 1.404 . S
C132 C135 1.539 . S
C133 C129 1.408 1_565 S
C133 C132 1.404 . S
C133 H145 0.930 . S
C134 C130 1.524 . S
C134 H146 0.956 . S
C134 H147 0.961 . S
C134 H148 0.961 . S
C135 C132 1.539 . S
C135 H149 0.958 . S
C135 H150 0.961 1_565 S
C135 H151 0.960 1_565 S
H136 C120 0.931 1_554 S
H137 C125 0.929 . S
H138 C126 0.952 1_556 S
H139 C126 0.976 . S
H140 C126 0.957 1_556 S
H141 C127 0.961 . S
H142 C127 0.961 . S
H143 C127 0.961 . S
H144 C128 0.931 . S
H145 C133 0.930 . S
H146 C134 0.956 . S
H147 C134 0.961 . S
H148 C134 0.961 . S
H149 C135 0.958 . S
H150 C135 0.961 1_545 S
H151 C135 0.960 1_545 S
C152 C153 1.391 . S
C152 C154 1.394 . S
C152 H168 0.931 . S
C153 C152 1.391 . S
C153 C157 1.376 . S
C154 C152 1.394 . S
C154 C155 1.369 . S
C154 C158 1.531 1_565 S
C155 C154 1.369 . S
C155 C156 1.410 . S
C155 C163 1.503 1_665 S
C156 C155 1.410 . S
C156 C157 1.392 . S
C156 C159 1.511 1_655 S
C157 C153 1.376 . S
C157 C156 1.392 . S
C157 H169 0.929 . S
C158 C154 1.531 1_545 S
C158 H170 0.960 . S
C158 H171 0.962 . S
C158 H172 0.960 . S
C159 C156 1.511 1_455 S
C159 H173 0.961 . S
C159 H174 0.961 . S
C159 H175 0.961 . S
C160 C161 1.370 . S
C160 C162 1.363 . S
C160 H176 0.931 . S
C161 C160 1.370 . S
C161 C165 1.408 . S
C162 C160 1.363 . S
C162 C163 1.370 . S
C162 C166 1.524 . S
C163 C155 1.503 1_445 S
C163 C162 1.370 . S
C163 C164 1.403 . S
C164 C163 1.403 . S
C164 C165 1.404 . S
C164 C167 1.539 . S
C165 C161 1.408 . S
C165 C164 1.404 . S
C165 H177 0.930 . S
C166 C162 1.524 . S
C166 H178 0.956 1_455 S
C166 H179 0.961 1_545 S
C166 H180 0.961 . S
C167 C164 1.539 . S
C167 H181 0.958 . S
C167 H182 0.961 . S
C167 H183 0.960 1_545 S
H168 C152 0.931 . S
H169 C157 0.929 . S
H170 C158 0.960 . S
H171 C158 0.962 . S
H172 C158 0.960 . S
H173 C159 0.961 . S
H174 C159 0.961 . S
H175 C159 0.961 . S
H176 C160 0.931 . S
H177 C165 0.930 . S
H178 C166 0.956 1_655 S
H179 C166 0.961 1_565 S
H180 C166 0.961 . S
H181 C167 0.958 . S
H182 C167 0.961 . S
H183 C167 0.960 1_565 S
C184 C185 1.391 1_655 S
C184 C186 1.394 . S
C184 H200 0.931 . S
C185 C184 1.391 1_455 S
C185 C189 1.376 . S
C186 C184 1.394 . S
C186 C187 1.369 1_665 S
C186 C190 1.531 . S
C187 C186 1.369 1_445 S
C187 C188 1.410 . S
C187 C195 1.503 . S
C188 C187 1.410 . S
C188 C189 1.392 1_545 S
C188 C191 1.511 . S
C189 C185 1.376 . S
C189 C188 1.392 1_565 S
C189 H201 0.929 . S
C190 C186 1.531 . S
C190 H202 0.960 1_565 S
C190 H203 0.962 . S
C190 H204 0.960 . S
C191 C188 1.511 . S
C191 H205 0.961 . S
C191 H206 0.961 . S
C191 H207 0.961 . S
C192 C193 1.370 . S
C192 C194 1.363 . S
C192 H208 0.935 . S
C193 C192 1.370 . S
C193 C197 1.408 . S
C194 C192 1.363 . S
C194 C195 1.370 . S
C194 C198 1.524 1_455 S
C195 C187 1.503 . S
C195 C194 1.370 . S
C195 C196 1.403 . S
C196 C195 1.403 . S
C196 C197 1.404 . S
C196 C199 1.539 . S
C197 C193 1.408 . S
C197 C196 1.404 . S
C197 H209 0.930 . S
C198 C194 1.524 1_655 S
C198 H210 0.956 . S
C198 H211 0.961 1_655 S
C198 H212 0.961 . S
C199 C196 1.539 . S
C199 H213 0.958 . S
C199 H214 0.961 . S
C199 H215 0.960 . S
H200 C184 0.931 . S
H201 C189 0.929 . S
H202 C190 0.960 1_545 S
H203 C190 0.962 . S
H204 C190 0.960 . S
H205 C191 0.961 . S
H206 C191 0.961 . S
H207 C191 0.961 . S
H208 C192 0.935 . S
H209 C197 0.930 . S
H210 C198 0.956 . S
H211 C198 0.961 1_455 S
H212 C198 0.961 . S
H213 C199 0.958 . S
H214 C199 0.961 . S
H215 C199 0.960 . S
C216 C217 1.391 . S
C216 C218 1.394 . S
C216 H232 0.931 . S
C217 C216 1.391 . S
C217 C221 1.376 . S
C218 C216 1.394 . S
C218 C219 1.369 . S
C218 C222 1.531 . S
C219 C218 1.369 . S
C219 C220 1.410 . S
C219 C227 1.503 . S
C220 C219 1.410 . S
C220 C221 1.392 . S
C220 C223 1.511 . S
C221 C217 1.376 . S
C221 C220 1.392 . S
C221 H233 0.929 . S
C222 C218 1.531 . S
C222 H234 0.960 . S
C222 H235 0.962 . S
C222 H236 0.960 . S
C223 C220 1.511 . S
C223 H237 0.961 . S
C223 H238 0.961 . S
C223 H239 0.961 . S
C224 C225 1.370 . S
C224 C226 1.363 . S
C224 H240 0.931 . S
C225 C224 1.370 . S
C225 C229 1.408 . S
C226 C224 1.363 . S
C226 C227 1.370 . S
C226 C230 1.524 . S
C227 C219 1.503 . S
C227 C226 1.370 . S
C227 C228 1.403 . S
C228 C227 1.403 . S
C228 C229 1.404 . S
C228 C231 1.539 . S
C229 C225 1.408 . S
C229 C228 1.404 . S
C229 H241 0.930 . S
C230 C226 1.524 . S
C230 H242 0.956 . S
C230 H243 0.961 . S
C230 H244 0.961 . S
C231 C228 1.539 . S
C231 H245 0.958 . S
C231 H246 0.961 . S
C231 H247 0.960 . S
H232 C216 0.931 . S
H233 C221 0.929 . S
H234 C222 0.960 . S
H235 C222 0.962 . S
H236 C222 0.960 . S
H237 C223 0.961 . S
H238 C223 0.961 . S
H239 C223 0.961 . S
H240 C224 0.931 . S
H241 C229 0.930 . S
H242 C230 0.956 . S
H243 C230 0.961 . S
H244 C230 0.961 . S
H245 C231 0.958 . S
H246 C231 0.961 . S
H247 C231 0.960 . S
C248 C249 1.391 . S
C248 C250 1.394 . S
C248 H264 0.931 . S
C249 C248 1.391 . S
C249 C253 1.376 . S
C250 C248 1.394 . S
C250 C251 1.369 . S
C250 C254 1.531 . S
C251 C250 1.369 . S
C251 C252 1.410 . S
C251 C259 1.503 1_455 S
C252 C251 1.410 . S
C252 C253 1.392 . S
C252 C255 1.511 1_455 S
C253 C249 1.376 . S
C253 C252 1.392 . S
C253 H265 0.929 . S
C254 C250 1.531 . S
C254 H266 0.960 . S
C254 H267 0.962 . S
C254 H268 0.960 . S
C255 C252 1.511 1_655 S
C255 H269 0.961 1_655 S
C255 H270 0.961 . S
C255 H271 0.961 . S
C256 C257 1.370 . S
C256 C258 1.363 1_655 S
C256 H272 0.931 1_655 S
C257 C256 1.370 . S
C257 C261 1.408 . S
C258 C256 1.363 1_455 S
C258 C259 1.370 1_455 S
C258 C262 1.524 . S
C259 C251 1.503 1_655 S
C259 C258 1.370 1_655 S
C259 C260 1.403 . S
C260 C259 1.403 . S
C260 C261 1.404 . S
C260 C263 1.539 . S
C261 C257 1.408 . S
C261 C260 1.404 . S
C261 H273 0.930 . S
C262 C258 1.524 . S
C262 H274 0.956 . S
C262 H275 0.961 . S
C262 H276 0.961 . S
C263 C260 1.539 . S
C263 H277 0.958 . S
C263 H278 0.961 . S
C263 H279 0.960 . S
H264 C248 0.931 . S
H265 C253 0.929 . S
H266 C254 0.960 . S
H267 C254 0.962 . S
H268 C254 0.960 . S
H269 C255 0.961 1_455 S
H270 C255 0.961 . S
H271 C255 0.961 . S
H272 C256 0.931 1_455 S
H273 C261 0.930 . S
H274 C262 0.956 . S
H275 C262 0.961 . S
H276 C262 0.961 . S
H277 C263 0.958 . S
H278 C263 0.961 . S
H279 C263 0.960 . S
C280 C281 1.391 . S
C280 C282 1.394 . S
C280 H296 0.931 . S
C281 C280 1.391 . S
C281 C285 1.376 . S
C282 C280 1.394 . S
C282 C283 1.369 . S
C282 C286 1.531 . S
C283 C282 1.369 . S
C283 C284 1.410 . S
C283 C291 1.503 1_545 S
C284 C283 1.410 . S
C284 C285 1.392 . S
C284 C287 1.511 . S
C285 C281 1.376 . S
C285 C284 1.392 . S
C285 H297 0.929 . S
C286 C282 1.531 . S
C286 H298 0.960 1_545 S
C286 H299 0.962 . S
C286 H300 0.960 . S
C287 C284 1.511 . S
C287 H301 0.961 . S
C287 H302 0.961 . S
C287 H303 0.961 . S
C288 C289 1.370 . S
C288 C290 1.363 1_565 S
C288 H304 0.931 . S
C289 C288 1.370 . S
C289 C293 1.408 . S
C290 C288 1.363 1_545 S
C290 C291 1.370 1_545 S
C290 C294 1.524 . S
C291 C283 1.503 1_565 S
C291 C290 1.370 1_565 S
C291 C292 1.403 . S
C292 C291 1.403 . S
C292 C293 1.404 . S
C292 C295 1.539 . S
C293 C289 1.408 . S
C293 C292 1.404 . S
C293 H305 0.930 . S
C294 C290 1.524 . S
C294 H306 0.956 . S
C294 H307 0.961 . S
C294 H308 0.961 . S
C295 C292 1.539 . S
C295 H309 0.958 . S
C295 H310 0.961 . S
C295 H311 0.960 . S
H296 C280 0.931 . S
H297 C285 0.929 . S
H298 C286 0.960 1_565 S
H299 C286 0.962 . S
H300 C286 0.960 . S
H301 C287 0.961 . S
H302 C287 0.961 . S
H303 C287 0.961 . S
H304 C288 0.931 . S
H305 C293 0.930 . S
H306 C294 0.956 . S
H307 C294 0.961 . S
H308 C294 0.961 . S
H309 C295 0.958 . S
H310 C295 0.961 . S
H311 C295 0.960 . S
C312 C313 1.391 . S
C312 C314 1.394 . S
C312 H328 0.946 . S
C313 C312 1.391 . S
C313 C317 1.376 . S
C314 C312 1.394 . S
C314 C315 1.369 . S
C314 C318 1.531 . S
C315 C314 1.369 . S
C315 C316 1.410 . S
C315 C323 1.503 . S
C316 C315 1.410 . S
C316 C317 1.392 . S
C316 C319 1.511 . S
C317 C313 1.376 . S
C317 C316 1.392 . S
C317 H329 0.929 . S
C318 C314 1.531 . S
C318 H330 0.960 . S
C318 H331 0.962 . S
C318 H332 0.960 1_565 S
C319 C316 1.511 . S
C319 H333 0.961 . S
C319 H334 0.961 . S
C319 H335 0.961 . S
C320 C321 1.370 . S
C320 C322 1.363 . S
C320 H336 0.931 . S
C321 C320 1.370 . S
C321 C325 1.408 . S
C322 C320 1.363 . S
C322 C323 1.370 . S
C322 C326 1.524 . S
C323 C315 1.503 . S
C323 C322 1.370 . S
C323 C324 1.403 . S
C324 C323 1.403 . S
C324 C325 1.404 . S
C324 C327 1.539 1_655 S
C325 C321 1.408 . S
C325 C324 1.404 . S
C325 H337 0.930 1_655 S
C326 C322 1.524 . S
C326 H338 0.956 . S
C326 H339 0.961 . S
C326 H340 0.961 . S
C327 C324 1.539 1_455 S
C327 H341 0.958 . S
C327 H342 0.961 . S
C327 H343 0.960 . S
H328 C312 0.946 . S
H329 C317 0.929 . S
H330 C318 0.960 . S
H331 C318 0.962 . S
H332 C318 0.960 1_545 S
H333 C319 0.961 . S
H334 C319 0.961 . S
H335 C319 0.961 . S
H336 C320 0.931 . S
H337 C325 0.930 1_455 S
H338 C326 0.956 . S
H339 C326 0.961 . S
H340 C326 0.961 . S
H341 C327 0.958 . S
H342 C327 0.961 . S
H343 C327 0.960 . S
C344 C345 1.391 . S
C344 C346 1.394 . S
C344 H360 0.931 . S
C345 C344 1.391 . S
C345 C349 1.376 . S
C346 C344 1.394 . S
C346 C347 1.369 1_655 S
C346 C350 1.531 1_655 S
C347 C346 1.369 1_455 S
C347 C348 1.410 1_455 S
C347 C355 1.503 . S
C348 C347 1.410 1_655 S
C348 C349 1.392 . S
C348 C351 1.511 1_655 S
C349 C345 1.376 . S
C349 C348 1.392 . S
C349 H361 0.929 . S
C350 C346 1.531 1_455 S
C350 H362 0.960 . S
C350 H363 0.962 . S
C350 H364 0.960 . S
C351 C348 1.511 1_455 S
C351 H365 0.961 1_455 S
C351 H366 0.961 . S
C351 H367 0.961 . S
C352 C353 1.370 . S
C352 C354 1.363 . S
C352 H368 0.931 . S
C353 C352 1.370 . S
C353 C357 1.408 . S
C354 C352 1.363 . S
C354 C355 1.370 . S
C354 C358 1.524 1_455 S
C355 C347 1.503 . S
C355 C354 1.370 . S
C355 C356 1.403 . S
C356 C355 1.403 . S
C356 C357 1.404 . S
C356 C359 1.539 . S
C357 C353 1.408 . S
C357 C356 1.404 . S
C357 H369 0.930 . S
C358 C354 1.524 1_655 S
C358 H370 0.956 . S
C358 H371 0.961 . S
C358 H372 0.961 . S
C359 C356 1.539 . S
C359 H373 0.958 . S
C359 H374 0.961 . S
C359 H375 0.960 . S
H360 C344 0.931 . S
H361 C349 0.929 . S
H362 C350 0.960 . S
H363 C350 0.962 . S
H364 C350 0.960 . S
H365 C351 0.961 1_655 S
H366 C351 0.961 . S
H367 C351 0.961 . S
H368 C352 0.931 . S
H369 C357 0.930 . S
H370 C358 0.956 . S
H371 C358 0.961 . S
H372 C358 0.961 . S
H373 C359 0.958 . S
H374 C359 0.961 . S
H375 C359 0.960 . S
C376 C377 1.391 . S
C376 C378 1.394 . S
C376 H392 0.931 . S
C377 C376 1.391 . S
C377 C381 1.376 . S
C378 C376 1.394 . S
C378 C379 1.369 1_565 S
C378 C382 1.531 . S
C379 C378 1.369 1_545 S
C379 C380 1.410 . S
C379 C387 1.503 . S
C380 C379 1.410 . S
C380 C381 1.392 1_545 S
C380 C383 1.511 . S
C381 C377 1.376 . S
C381 C380 1.392 1_565 S
C381 H393 0.929 1_565 S
C382 C378 1.531 . S
C382 H394 0.960 . S
C382 H395 0.962 . S
C382 H396 0.960 . S
C383 C380 1.511 . S
C383 H397 0.961 . S
C383 H398 0.961 . S
C383 H399 0.961 . S
C384 C385 1.370 . S
C384 C386 1.363 . S
C384 H400 0.931 . S
C385 C384 1.370 . S
C385 C389 1.408 . S
C386 C384 1.363 . S
C386 C387 1.370 . S
C386 C390 1.524 . S
C387 C379 1.503 . S
C387 C386 1.370 . S
C387 C388 1.403 . S
C388 C387 1.403 . S
C388 C389 1.404 . S
C388 C391 1.539 1_545 S
C389 C385 1.408 . S
C389 C388 1.404 . S
C389 H401 0.930 . S
C390 C386 1.524 . S
C390 H402 0.956 . S
C390 H403 0.961 . S
C390 H404 0.961 . S
C391 C388 1.539 1_565 S
C391 H405 0.958 . S
C391 H406 0.961 . S
C391 H407 0.960 . S
H392 C376 0.931 . S
H393 C381 0.929 1_545 S
H394 C382 0.960 . S
H395 C382 0.962 . S
H396 C382 0.960 . S
H397 C383 0.961 . S
H398 C383 0.961 . S
H399 C383 0.961 . S
H400 C384 0.931 . S
H401 C389 0.930 . S
H402 C390 0.956 . S
H403 C390 0.961 . S
H404 C390 0.961 . S
H405 C391 0.958 . S
H406 C391 0.961 . S
H407 C391 0.960 . S
C408 C409 1.391 . S
C408 C410 1.394 . S
C408 H424 0.931 . S
C409 C408 1.391 . S
C409 C413 1.376 1_544 S
C410 C408 1.394 . S
C410 C411 1.369 . S
C410 C414 1.531 . S
C411 C410 1.369 . S
C411 C412 1.410 1_544 S
C411 C419 1.503 . S
C412 C411 1.410 1_566 S
C412 C413 1.392 . S
C412 C415 1.511 . S
C413 C409 1.376 1_566 S
C413 C412 1.392 . S
C413 H425 0.929 . S
C414 C410 1.531 . S
C414 H426 0.960 . S
C414 H427 0.962 . S
C414 H428 0.960 . S
C415 C412 1.511 . S
C415 H429 0.961 . S
C415 H430 0.961 . S
C415 H431 0.961 . S
C416 C417 1.370 . S
C416 C418 1.363 . S
C416 H432 0.931 1_554 S
C417 C416 1.370 . S
C417 C421 1.408 1_545 S
C418 C416 1.363 . S
C418 C419 1.370 . S
C418 C422 1.524 1_554 S
C419 C411 1.503 . S
C419 C418 1.370 . S
C419 C420 1.403 1_545 S
C420 C419 1.403 1_565 S
C420 C421 1.404 . S
C420 C423 1.539 . S
C421 C417 1.408 1_565 S
C421 C420 1.404 . S
C421 H433 0.930 . S
C422 C418 1.524 1_556 S
C422 H434 0.956 1_556 S
C422 H435 0.961 . S
C422 H436 0.961 . S
C423 C420 1.539 . S
C423 H437 0.958 . S
C423 H438 0.961 . S
C423 H439 0.960 . S
H424 C408 0.931 . S
H425 C413 0.929 . S
H426 C414 0.960 . S
H427 C414 0.962 . S
H428 C414 0.960 . S
H429 C415 0.961 . S
H430 C415 0.961 . S
H431 C415 0.961 . S
H432 C416 0.931 1_556 S
H433 C421 0.930 . S
H434 C422 0.956 1_554 S
H435 C422 0.961 . S
H436 C422 0.961 . S
H437 C423 0.958 . S
H438 C423 0.961 . S
H439 C423 0.960 . S
C440 C441 1.391 . S
C440 C442 1.394 . S
C440 H456 0.931 . S
C441 C440 1.391 . S
C441 C445 1.376 . S
C442 C440 1.394 . S
C442 C443 1.369 . S
C442 C446 1.531 . S
C443 C442 1.369 . S
C443 C444 1.410 . S
C443 C451 1.503 . S
C444 C443 1.410 . S
C444 C445 1.392 . S
C444 C447 1.511 . S
C445 C441 1.376 . S
C445 C444 1.392 . S
C445 H457 0.929 . S
C446 C442 1.531 . S
C446 H458 0.960 . S
C446 H459 0.962 . S
C446 H460 0.960 . S
C447 C444 1.511 . S
C447 H461 0.961 . S
C447 H462 0.961 . S
C447 H463 0.961 . S
C448 C449 1.370 . S
C448 C450 1.363 . S
C448 H464 0.931 . S
C449 C448 1.370 . S
C449 C453 1.408 . S
C450 C448 1.363 . S
C450 C451 1.370 . S
C450 C454 1.524 . S
C451 C443 1.503 . S
C451 C450 1.370 . S
C451 C452 1.403 . S
C452 C451 1.403 . S
C452 C453 1.404 . S
C452 C455 1.539 . S
C453 C449 1.408 . S
C453 C452 1.404 . S
C453 H465 0.930 . S
C454 C450 1.524 . S
C454 H466 0.956 . S
C454 H467 0.961 . S
C454 H468 0.961 . S
C455 C452 1.539 . S
C455 H469 0.958 . S
C455 H470 0.961 . S
C455 H471 0.960 . S
H456 C440 0.931 . S
H457 C445 0.929 . S
H458 C446 0.960 . S
H459 C446 0.962 . S
H460 C446 0.960 . S
H461 C447 0.961 . S
H462 C447 0.961 . S
H463 C447 0.961 . S
H464 C448 0.931 . S
H465 C453 0.930 . S
H466 C454 0.956 . S
H467 C454 0.961 . S
H468 C454 0.961 . S
H469 C455 0.958 . S
H470 C455 0.961 . S
H471 C455 0.960 . S
C472 C473 1.391 . S
C472 C474 1.394 1_455 S
C472 H488 0.931 1_455 S
C473 C472 1.391 . S
C473 C477 1.376 . S
C474 C472 1.394 1_655 S
C474 C475 1.369 1_655 S
C474 C478 1.531 . S
C475 C474 1.369 1_455 S
C475 C476 1.410 . S
C475 C483 1.503 . S
C476 C475 1.410 . S
C476 C477 1.392 . S
C476 C479 1.511 . S
C477 C473 1.376 . S
C477 C476 1.392 . S
C477 H489 0.929 . S
C478 C474 1.531 . S
C478 H490 0.960 . S
C478 H491 0.962 1_655 S
C478 H492 0.960 . S
C479 C476 1.511 . S
C479 H493 0.961 . S
C479 H494 0.961 . S
C479 H495 0.961 1_455 S
C480 C481 1.370 . S
C480 C482 1.363 . S
C480 H496 0.931 . S
C481 C480 1.370 . S
C481 C485 1.408 1_455 S
C482 C480 1.363 . S
C482 C483 1.370 . S
C482 C486 1.524 . S
C483 C475 1.503 . S
C483 C482 1.370 . S
C483 C484 1.403 1_455 S
C484 C483 1.403 1_655 S
C484 C485 1.404 . S
C484 C487 1.539 . S
C485 C481 1.408 1_655 S
C485 C484 1.404 . S
C485 H497 0.930 . S
C486 C482 1.524 . S
C486 H498 0.956 . S
C486 H499 0.961 . S
C486 H500 0.961 . S
C487 C484 1.539 . S
C487 H501 0.958 . S
C487 H502 0.961 . S
C487 H503 0.960 . S
H488 C472 0.931 1_655 S
H489 C477 0.929 . S
H490 C478 0.960 . S
H491 C478 0.962 1_455 S
H492 C478 0.960 . S
H493 C479 0.961 . S
H494 C479 0.961 . S
H495 C479 0.961 1_655 S
H496 C480 0.931 . S
H497 C485 0.930 . S
H498 C486 0.956 . S
H499 C486 0.961 . S
H500 C486 0.961 . S
H501 C487 0.958 . S
H502 C487 0.961 . S
H503 C487 0.960 . S
C504 C505 1.391 . S
C504 C506 1.394 . S
C504 H520 0.931 . S
C505 C504 1.391 . S
C505 C509 1.376 . S
C506 C504 1.394 . S
C506 C507 1.369 . S
C506 C510 1.531 . S
C507 C506 1.369 . S
C507 C508 1.410 . S
C507 C515 1.503 . S
C508 C507 1.410 . S
C508 C509 1.392 . S
C508 C511 1.511 . S
C509 C505 1.376 . S
C509 C508 1.392 . S
C509 H521 0.929 . S
C510 C506 1.531 . S
C510 H522 0.960 . S
C510 H523 0.962 . S
C510 H524 0.960 . S
C511 C508 1.511 . S
C511 H525 0.961 . S
C511 H526 0.961 . S
C511 H527 0.961 . S
C512 C513 1.370 . S
C512 C514 1.363 . S
C512 H528 0.931 . S
C513 C512 1.370 . S
C513 C517 1.408 . S
C514 C512 1.363 . S
C514 C515 1.370 . S
C514 C518 1.524 . S
C515 C507 1.503 . S
C515 C514 1.370 . S
C515 C516 1.403 . S
C516 C515 1.403 . S
C516 C517 1.404 . S
C516 C519 1.539 . S
C517 C513 1.408 . S
C517 C516 1.404 . S
C517 H529 0.930 . S
C518 C514 1.524 . S
C518 H530 0.956 . S
C518 H531 0.961 . S
C518 H532 0.961 1_545 S
C519 C516 1.539 . S
C519 H533 0.958 . S
C519 H534 0.961 . S
C519 H535 0.960 . S
H520 C504 0.931 . S
H521 C509 0.929 . S
H522 C510 0.960 . S
H523 C510 0.962 . S
H524 C510 0.960 . S
H525 C511 0.961 . S
H526 C511 0.961 . S
H527 C511 0.961 . S
H528 C512 0.931 . S
H529 C517 0.930 . S
H530 C518 0.956 . S
H531 C518 0.961 . S
H532 C518 0.961 1_565 S
H533 C519 0.958 . S
H534 C519 0.961 . S
H535 C519 0.960 . S
C536 C537 1.391 . S
C536 C538 1.394 . S
C536 H552 0.931 . S
C537 C536 1.391 . S
C537 C541 1.376 . S
C538 C536 1.394 . S
C538 C539 1.369 . S
C538 C542 1.531 . S
C539 C538 1.369 . S
C539 C540 1.410 . S
C539 C547 1.503 . S
C540 C539 1.410 . S
C540 C541 1.392 . S
C540 C543 1.511 . S
C541 C537 1.376 . S
C541 C540 1.392 . S
C541 H553 0.929 . S
C542 C538 1.531 . S
C542 H554 0.960 . S
C542 H555 0.962 . S
C542 H556 0.960 . S
C543 C540 1.511 . S
C543 H557 0.961 . S
C543 H558 0.961 . S
C543 H559 0.961 . S
C544 C545 1.370 . S
C544 C546 1.363 . S
C544 H560 0.931 . S
C545 C544 1.370 . S
C545 C549 1.408 . S
C546 C544 1.363 . S
C546 C547 1.370 . S
C546 C550 1.524 . S
C547 C539 1.503 . S
C547 C546 1.370 . S
C547 C548 1.403 . S
C548 C547 1.403 . S
C548 C549 1.404 . S
C548 C551 1.539 . S
C549 C545 1.408 . S
C549 C548 1.404 . S
C549 H561 0.930 . S
C550 C546 1.524 . S
C550 H562 0.956 . S
C550 H563 0.961 . S
C550 H564 0.961 . S
C551 C548 1.539 . S
C551 H565 0.958 . S
C551 H566 0.961 . S
C551 H567 0.960 . S
H552 C536 0.931 . S
H553 C541 0.929 . S
H554 C542 0.960 . S
H555 C542 0.962 . S
H556 C542 0.960 . S
H557 C543 0.961 . S
H558 C543 0.961 . S
H559 C543 0.961 . S
H560 C544 0.931 . S
H561 C549 0.930 . S
H562 C550 0.956 . S
H563 C550 0.961 . S
H564 C550 0.961 . S
H565 C551 0.958 . S
H566 C551 0.961 . S
H567 C551 0.960 . S
C568 C569 1.391 . S
C568 C570 1.394 . S
C568 H584 0.931 . S
C569 C568 1.391 . S
C569 C573 1.376 1_655 S
C570 C568 1.394 . S
C570 C571 1.369 . S
C570 C574 1.531 . S
C571 C570 1.369 . S
C571 C572 1.410 1_655 S
C571 C579 1.503 . S
C572 C571 1.410 1_455 S
C572 C573 1.392 . S
C572 C575 1.511 . S
C573 C569 1.376 1_455 S
C573 C572 1.392 . S
C573 H585 0.929 . S
C574 C570 1.531 . S
C574 H586 0.960 . S
C574 H587 0.962 . S
C574 H588 0.960 . S
C575 C572 1.511 . S
C575 H589 0.961 . S
C575 H590 0.961 . S
C575 H591 0.961 . S
C576 C577 1.370 . S
C576 C578 1.363 . S
C576 H592 0.931 . S
C577 C576 1.370 . S
C577 C581 1.408 . S
C578 C576 1.363 . S
C578 C579 1.370 . S
C578 C582 1.524 . S
C579 C571 1.503 . S
C579 C578 1.370 . S
C579 C580 1.403 . S
C580 C579 1.403 . S
C580 C581 1.404 . S
C580 C583 1.539 . S
C581 C577 1.408 . S
C581 C580 1.404 . S
C581 H593 0.930 . S
C582 C578 1.524 . S
C582 H594 0.956 . S
C582 H595 0.961 . S
C582 H596 0.961 . S
C583 C580 1.539 . S
C583 H597 0.958 . S
C583 H598 0.961 . S
C583 H599 0.960 . S
H584 C568 0.931 . S
H585 C573 0.929 . S
H586 C574 0.960 . S
H587 C574 0.962 . S
H588 C574 0.960 . S
H589 C575 0.961 . S
H590 C575 0.961 . S
H591 C575 0.961 . S
H592 C576 0.931 . S
H593 C581 0.930 . S
H594 C582 0.956 . S
H595 C582 0.961 . S
H596 C582 0.961 . S
H597 C583 0.958 . S
H598 C583 0.961 . S
H599 C583 0.960 . S
C600 C601 1.391 . S
C600 C602 1.394 . S
C600 H616 0.931 . S
C601 C600 1.391 . S
C601 C605 1.376 . S
C602 C600 1.394 . S
C602 C603 1.369 . S
C602 C606 1.531 . S
C603 C602 1.369 . S
C603 C604 1.410 . S
C603 C611 1.503 . S
C604 C603 1.410 . S
C604 C605 1.392 . S
C604 C607 1.511 . S
C605 C601 1.376 . S
C605 C604 1.392 . S
C605 H617 0.929 . S
C606 C602 1.531 . S
C606 H618 0.960 . S
C606 H619 0.962 . S
C606 H620 0.960 1_565 S
C607 C604 1.511 . S
C607 H621 0.961 . S
C607 H622 0.961 . S
C607 H623 0.961 . S
C608 C609 1.370 . S
C608 C610 1.363 . S
C608 H624 0.931 . S
C609 C608 1.370 . S
C609 C613 1.408 . S
C610 C608 1.363 . S
C610 C611 1.370 . S
C610 C614 1.524 . S
C611 C603 1.503 . S
C611 C610 1.370 . S
C611 C612 1.403 . S
C612 C611 1.403 . S
C612 C613 1.404 . S
C612 C615 1.539 . S
C613 C609 1.408 . S
C613 C612 1.404 . S
C613 H625 0.930 . S
C614 C610 1.524 . S
C614 H626 0.956 . S
C614 H627 0.961 . S
C614 H628 0.961 . S
C615 C612 1.539 . S
C615 H629 0.958 1_565 S
C615 H630 0.964 . S
C615 H631 0.960 . S
H616 C600 0.931 . S
H617 C605 0.929 . S
H618 C606 0.960 . S
H619 C606 0.962 . S
H620 C606 0.960 1_545 S
H621 C607 0.961 . S
H622 C607 0.961 . S
H623 C607 0.961 . S
H624 C608 0.931 . S
H625 C613 0.930 . S
H626 C614 0.956 . S
H627 C614 0.961 . S
H628 C614 0.961 . S
H629 C615 0.958 1_545 S
H630 C615 0.964 . S
H631 C615 0.960 . S
C632 C633 1.391 . S
C632 C634 1.394 . S
C632 H648 0.931 . S
C633 C632 1.391 . S
C633 C637 1.376 . S
C634 C632 1.394 . S
C634 C635 1.369 . S
C634 C638 1.531 . S
C635 C634 1.369 . S
C635 C636 1.410 . S
C635 C643 1.503 . S
C636 C635 1.410 . S
C636 C637 1.392 . S
C636 C639 1.511 . S
C637 C633 1.376 . S
C637 C636 1.392 . S
C637 H649 0.929 . S
C638 C634 1.531 . S
C638 H650 0.960 . S
C638 H651 0.962 1_655 S
C638 H652 0.960 1_655 S
C639 C636 1.511 . S
C639 H653 0.961 . S
C639 H654 0.961 . S
C639 H655 0.961 . S
C640 C641 1.370 . S
C640 C642 1.363 . S
C640 H656 0.931 . S
C641 C640 1.370 . S
C641 C645 1.408 . S
C642 C640 1.363 . S
C642 C643 1.370 . S
C642 C646 1.524 . S
C643 C635 1.503 . S
C643 C642 1.370 . S
C643 C644 1.403 . S
C644 C643 1.403 . S
C644 C645 1.404 . S
C644 C647 1.539 . S
C645 C641 1.408 . S
C645 C644 1.404 . S
C645 H657 0.930 . S
C646 C642 1.524 . S
C646 H658 0.956 . S
C646 H659 0.961 . S
C646 H660 0.961 . S
C647 C644 1.539 . S
C647 H661 0.958 . S
C647 H662 0.961 . S
C647 H663 0.960 . S
H648 C632 0.931 . S
H649 C637 0.929 . S
H650 C638 0.960 . S
H651 C638 0.962 1_455 S
H652 C638 0.960 1_455 S
H653 C639 0.961 . S
H654 C639 0.961 . S
H655 C639 0.961 . S
H656 C640 0.931 . S
H657 C645 0.930 . S
H658 C646 0.956 . S
H659 C646 0.961 . S
H660 C646 0.961 . S
H661 C647 0.958 . S
H662 C647 0.961 . S
H663 C647 0.960 . S
C664 C665 1.391 . S
C664 C666 1.394 . S
C664 H680 0.931 . S
C665 C664 1.391 . S
C665 C669 1.376 . S
C666 C664 1.394 . S
C666 C667 1.369 . S
C666 C670 1.531 1_565 S
C667 C666 1.369 . S
C667 C668 1.410 . S
C667 C675 1.503 . S
C668 C667 1.410 . S
C668 C669 1.392 . S
C668 C671 1.511 . S
C669 C665 1.376 . S
C669 C668 1.392 . S
C669 H681 0.929 . S
C670 C666 1.531 1_545 S
C670 H682 0.960 . S
C670 H683 0.962 1_545 S
C670 H684 0.960 . S
C671 C668 1.511 . S
C671 H685 0.961 1_455 S
C671 H686 0.961 . S
C671 H687 0.961 . S
C672 C673 1.370 . S
C672 C674 1.363 . S
C672 H688 0.931 . S
C673 C672 1.370 . S
C673 C677 1.408 . S
C674 C672 1.363 . S
C674 C675 1.370 . S
C674 C678 1.524 . S
C675 C667 1.503 . S
C675 C674 1.370 . S
C675 C676 1.403 . S
C676 C675 1.403 . S
C676 C677 1.404 . S
C676 C679 1.539 1_565 S
C677 C673 1.408 . S
C677 C676 1.404 . S
C677 H689 0.930 1_565 S
C678 C674 1.524 . S
C678 H690 0.956 . S
C678 H691 0.961 . S
C678 H692 0.961 . S
C679 C676 1.539 1_545 S
C679 H693 0.958 . S
C679 H694 0.961 . S
C679 H695 0.960 . S
H680 C664 0.931 . S
H681 C669 0.929 . S
H682 C670 0.960 . S
H683 C670 0.962 1_565 S
H684 C670 0.960 . S
H685 C671 0.961 1_655 S
H686 C671 0.961 . S
H687 C671 0.961 . S
H688 C672 0.931 . S
H689 C677 0.930 1_545 S
H690 C678 0.956 . S
H691 C678 0.961 . S
H692 C678 0.961 . S
H693 C679 0.958 . S
H694 C679 0.961 . S
H695 C679 0.960 . S
C121 C61 1.691 1_556 S
C129 C9 1.685 1_556 S
C153 C89 1.670 . S
C161 C21 1.657 . S
C185 C101 1.659 . S
C193 C49 1.675 . S
C217 C16 1.622 . S
C225 C46 1.543 . S
C249 C39 2.640 . S
C257 C68 2.514 . S
C281 C56 1.556 . S
C289 C86 1.575 . S
C313 C79 2.654 . S
C321 C108 2.507 . S
C345 C96 1.555 . S
C353 C6 1.575 . S
C377 C119 2.663 . S
C385 C28 2.496 . S
C409 C1 1.165 . S
C417 C69 1.156 . S
C441 C29 1.184 . S
C449 C81 1.173 . S
C473 C41 1.169 . S
C481 C109 1.166 . S
C505 C19 1.112 . S
C513 C26 1.183 . S
C537 C36 1.138 . S
C545 C48 1.126 . S
C569 C59 1.114 . S
C577 C66 1.182 . S
C601 C76 1.142 . S
C609 C88 1.123 . S
C633 C99 1.147 . S
C641 C106 1.180 . S
C665 C116 1.124 . S
C673 C8 1.138 . S
