# Generated by pormake.
# Topology rob, (6)-cn, num edge types: 1
# Building blocks:
#     Node 0, Type 0, BuildingBlock: MIFKUJ_clean_sbu_0, # of connection points: 6
#     Node 1, Type 0, BuildingBlock: MIFKUJ_clean_sbu_0, # of connection points: 6
#     Node 2, Type 0, BuildingBlock: MIFKUJ_clean_sbu_0, # of connection points: 6
#     Node 3, Type 0, BuildingBlock: MIFKUJ_clean_sbu_0, # of connection points: 6
#     Edge 4, Type (0, 0), BuildingBlock: XUDNAN_clean_linker_2, # of connection points: 2
#     Edge 5, Type (0, 0), BuildingBlock: XUDNAN_clean_linker_2, # of connection points: 2
#     Edge 6, Type (0, 0), BuildingBlock: XUDNAN_clean_linker_2, # of connection points: 2
#     Edge 7, Type (0, 0), BuildingBlock: XUDNAN_clean_linker_2, # of connection points: 2
#     Edge 8, Type (0, 0), BuildingBlock: XUDNAN_clean_linker_2, # of connection points: 2
#     Edge 9, Type (0, 0), BuildingBlock: XUDNAN_clean_linker_2, # of connection points: 2
#     Edge 10, Type (0, 0), BuildingBlock: XUDNAN_clean_linker_2, # of connection points: 2
#     Edge 11, Type (0, 0), BuildingBlock: XUDNAN_clean_linker_2, # of connection points: 2
#     Edge 12, Type (0, 0), BuildingBlock: XUDNAN_clean_linker_2, # of connection points: 2
#     Edge 13, Type (0, 0), BuildingBlock: XUDNAN_clean_linker_2, # of connection points: 2
#     Edge 14, Type (0, 0), BuildingBlock: XUDNAN_clean_linker_2, # of connection points: 2
#     Edge 15, Type (0, 0), BuildingBlock: XUDNAN_clean_linker_2, # of connection points: 2
# Relax obj value: 0.071
# Max RMSD: 0.166
# Mean RMSD: 0.166
data_MOF--net-rob--node1-MIFKUJ_clean_sbu_0--edge1-XUDNAN_clean_linker_2
_symmetry_space_group_name_H-M    P1
_symmetry_Int_Tables_number       1
_symmetry_cell_setting            triclinic
loop_
_symmetry_equiv_pos_as_xyz
'x, y, z'
_cell_length_a     15.944823
_cell_length_b     23.183042
_cell_length_c     30.669954
_cell_angle_alpha  89.941629
_cell_angle_beta   83.195105
_cell_angle_gamma 89.668881
loop_
_atom_site_label
_atom_site_type_symbol
_atom_site_fract_x
_atom_site_fract_y
_atom_site_fract_z
_atom_type_partial_charge
Zn0 Zn 0.21643 0.27986 0.9265 0.0
Zn1 Zn 0.33705 0.24227 0.99841 0.0
C2 C 0.33661 0.22603 0.85535 0.0
O3 O 0.29847 0.17659 0.8641 0.0
C4 C 0.24794 0.2249 0.08103 0.0
O5 O 0.29373 0.17775 0.07423 0.0
O6 O 0.12718 0.30347 0.88887 0.0
O7 O 0.17773 0.20643 0.95746 0.0
O8 O 0.30022 0.16995 0.97057 0.0
C9 C 0.09879 0.26291 0.86706 0.0
O10 O 0.11903 0.20948 0.87577 0.0
O11 O 0.31625 0.26962 0.87959 0.0
C12 C 0.45304 0.2639 0.05592 0.0
O13 O 0.41389 0.31362 0.05348 0.0
O14 O 0.43783 0.22386 0.02974 0.0
O15 O 0.36849 0.31218 0.96147 0.0
O16 O 0.24008 0.34699 0.9645 0.0
O17 O 0.24851 0.26167 0.05009 0.0
C18 C 0.22243 0.16357 0.96662 0.0
C19 C 0.31803 0.35474 0.96715 0.0
Zn20 Zn 0.69756 0.78983 1.00307 0.0
Zn21 Zn 0.77633 0.73086 0.08708 0.0
C22 C 0.75384 0.70748 0.93606 0.0
O23 O 0.67217 0.70324 0.93465 0.0
C24 C 0.65372 0.72518 0.15698 0.0
O25 O 0.67394 0.67156 0.14627 0.0
O26 O 0.62918 0.8261 0.9578 0.0
O27 O 0.62076 0.74188 0.04533 0.0
O28 O 0.71672 0.6749 0.05097 0.0
C29 C 0.55823 0.80493 0.95144 0.0
O30 O 0.52461 0.76516 0.97842 0.0
O31 O 0.78068 0.73853 0.96559 0.0
C32 C 0.87697 0.72417 0.15334 0.0
O33 O 0.86268 0.77944 0.14782 0.0
O34 O 0.84959 0.68861 0.12684 0.0
O35 O 0.85222 0.79104 0.05578 0.0
O36 O 0.76543 0.85167 0.02777 0.0
O37 O 0.6872 0.76543 0.13266 0.0
C38 C 0.6409 0.68891 0.04666 0.0
C39 C 0.83722 0.84014 0.03984 0.0
Zn40 Zn 0.24799 0.75094 0.5969 0.0
Zn41 Zn 0.18328 0.69253 0.509 0.0
C42 C 0.09655 0.72785 0.6564 0.0
O43 O 0.07624 0.78052 0.64571 0.0
C44 C 0.3145 0.70105 0.44379 0.0
O45 O 0.29802 0.64575 0.44846 0.0
O46 O 0.31293 0.7918 0.64063 0.0
O47 O 0.33161 0.69711 0.56309 0.0
O48 O 0.24473 0.63249 0.54085 0.0
C49 C 0.33851 0.75731 0.66861 0.0
O50 O 0.32606 0.70175 0.66411 0.0
O51 O 0.16332 0.70465 0.63714 0.0
C52 C 0.0925 0.69726 0.43899 0.0
O53 O 0.10614 0.75093 0.4498 0.0
O54 O 0.11761 0.65712 0.46278 0.0
O55 O 0.10025 0.74499 0.54413 0.0
O56 O 0.18927 0.81011 0.56225 0.0
O57 O 0.27361 0.7363 0.47024 0.0
C58 C 0.31775 0.6463 0.55011 0.0
C59 C 0.11921 0.79748 0.54887 0.0
Zn60 Zn 0.81896 0.26653 0.50412 0.0
Zn61 Zn 0.74342 0.22728 0.41558 0.0
C62 C 0.6859 0.21451 0.56872 0.0
O63 O 0.73147 0.16702 0.56642 0.0
C64 C 0.86151 0.27984 0.34923 0.0
O65 O 0.79225 0.30524 0.33955 0.0
O66 O 0.89302 0.29313 0.54888 0.0
O67 O 0.8685 0.19167 0.47915 0.0
O68 O 0.75728 0.15653 0.45236 0.0
C69 C 0.91642 0.25407 0.574 0.0
O70 O 0.90102 0.19997 0.56539 0.0
O71 O 0.70787 0.25622 0.54292 0.0
C72 C 0.62628 0.23801 0.35079 0.0
O73 O 0.60769 0.28735 0.37074 0.0
O74 O 0.67794 0.20379 0.36619 0.0
O75 O 0.68536 0.29596 0.44626 0.0
O76 O 0.803 0.33284 0.46379 0.0
O77 O 0.85784 0.24804 0.3833 0.0
C78 C 0.82538 0.14874 0.46933 0.0
C79 C 0.72645 0.33935 0.4571 0.0
H80 H 0.6689 0.57501 0.02564 0.0
H81 H 0.46969 0.70302 0.05239 0.0
H82 H 0.36456 0.63157 0.03495 0.0
H83 H 0.59072 0.50963 0.93513 0.0
H84 H 0.61979 0.43719 0.9489 0.0
H85 H 0.67906 0.49742 0.96569 0.0
H86 H 0.65156 0.46383 0.04685 0.0
H87 H 0.59281 0.40315 0.03025 0.0
H88 H 0.54458 0.45225 0.07144 0.0
H89 H 0.28182 0.54706 0.01179 0.0
H90 H 0.22729 0.45425 0.98746 0.0
H91 H 0.48126 0.3826 0.97601 0.0
C92 C 0.60305 0.58781 0.0284 0.0
C93 C 0.57754 0.64468 0.03992 0.0
C94 C 0.49079 0.65983 0.04299 0.0
C95 C 0.43054 0.61954 0.03332 0.0
C96 C 0.45803 0.56418 0.02105 0.0
C97 C 0.54208 0.54812 0.01897 0.0
C98 C 0.5553 0.48621 1.00417 0.0
C99 C 0.61472 0.48243 0.9609 0.0
C100 C 0.58798 0.44919 0.04033 0.0
C101 C 0.46583 0.47034 0.99761 0.0
C102 C 0.41049 0.5157 0.0077 0.0
C103 C 0.32448 0.51109 1.00396 0.0
C104 C 0.29417 0.45834 0.98999 0.0
C105 C 0.34993 0.41119 0.97987 0.0
C106 C 0.43687 0.41774 0.9835 0.0
H107 H 0.32118 0.54241 0.50647 0.0
H108 H 0.47801 0.65937 0.57162 0.0
H109 H 0.60116 0.5959 0.5518 0.0
H110 H 0.41697 0.4107 0.53822 0.0
H111 H 0.4094 0.37537 0.48652 0.0
H112 H 0.33375 0.43024 0.50591 0.0
H113 H 0.3706 0.48685 0.43323 0.0
H114 H 0.4472 0.43247 0.41382 0.0
H115 H 0.47862 0.50686 0.4163 0.0
H116 H 0.7075 0.5201 0.52485 0.0
H117 H 0.78772 0.43405 0.49626 0.0
H118 H 0.56185 0.3669 0.4484 0.0
C119 C 0.38123 0.55451 0.51687 0.0
C120 C 0.38982 0.60592 0.54062 0.0
C121 C 0.46978 0.62028 0.55332 0.0
C122 C 0.54025 0.58461 0.54213 0.0
C123 C 0.52989 0.53479 0.51811 0.0
C124 C 0.45239 0.51955 0.50579 0.0
C125 C 0.45835 0.46349 0.48031 0.0
C126 C 0.40124 0.41722 0.50418 0.0
C127 C 0.43747 0.47301 0.43312 0.0
C128 C 0.55095 0.44911 0.48096 0.0
C129 C 0.59127 0.49108 0.50254 0.0
C130 C 0.67669 0.48694 0.50781 0.0
C131 C 0.72178 0.43798 0.49133 0.0
C132 C 0.68115 0.39367 0.4701 0.0
C133 C 0.59487 0.39999 0.46438 0.0
H134 H 0.06029 0.13357 0.95628 0.0
H135 H 0.29055 0.06726 1.00121 0.0
H136 H 0.21672 0.97706 0.02467 0.0
H137 H 0.91864 0.07798 0.04318 0.0
H138 H 0.83725 0.06053 0.00936 0.0
H139 H 0.90915 0.11861 0.99383 0.0
H140 H 0.95178 0.07081 0.91802 0.0
H141 H 0.87924 0.01288 0.93308 0.0
H142 H 0.98887 -0.00286 0.91552 0.0
H143 H 0.11594 0.89661 0.0467 0.0
H144 H -0.00207 0.82856 0.06169 0.0
H145 H 0.83365 0.94765 1.00194 0.0
C146 C 0.09562 0.0999 0.97062 0.0
C147 C 0.18127 0.10745 0.97688 0.0
C148 C 0.22505 0.06232 0.99585 0.0
C149 C 0.18358 0.01104 0.00943 0.0
C150 C 0.09865 0.00558 1.00357 0.0
C151 C 0.05539 0.04853 0.98423 0.0
C152 C 0.9641 0.03228 0.98224 0.0
C153 C 0.90376 0.07488 0.00874 0.0
C154 C 0.9449 0.02801 0.93437 0.0
C155 C 0.96247 0.97361 1.00395 0.0
C156 C 0.04069 0.95907 0.01602 0.0
C157 C 0.05454 0.90733 0.03713 0.0
C158 C 0.98693 0.86905 0.04559 0.0
C159 C 0.9064 0.88264 0.0329 0.0
C160 C 0.89426 0.93591 0.01207 0.0
H161 H 0.96965 0.1185 0.50425 0.0
H162 H 0.74748 0.04571 0.4563 0.0
H163 H 0.79634 0.94792 0.4739 0.0
H164 H 0.11513 0.00892 0.46351 0.0
H165 H 0.17316 0.01047 0.51048 0.0
H166 H 0.11967 0.07443 0.49476 0.0
H167 H 0.0377 0.08102 0.57285 0.0
H168 H 0.09087 0.01697 0.58881 0.0
H169 H 0.97711 0.02005 0.59493 0.0
H170 H 0.87051 0.85833 0.49598 0.0
H171 H 0.96568 0.78307 0.51904 0.0
H172 H 0.13895 0.91514 0.55293 0.0
C173 C 0.93085 0.08215 0.49754 0.0
C174 C 0.8545 0.08985 0.47896 0.0
C175 C 0.80616 0.04092 0.4705 0.0
C176 C 0.83328 0.98525 0.4805 0.0
C177 C 0.90861 0.97938 0.49904 0.0
C178 C 0.9567 0.02652 0.50744 0.0
C179 C 0.03571 0.00863 0.52703 0.0
C180 C 0.11562 0.02668 0.49715 0.0
C181 C 0.03528 0.03312 0.57367 0.0
C182 C 0.02525 0.94381 0.52782 0.0
C183 C 0.95127 0.92787 0.51179 0.0
C184 C 0.92845 0.87031 0.5087 0.0
C185 C 0.98304 0.82788 0.52193 0.0
C186 C 0.05996 0.84314 0.53781 0.0
C187 C 0.08063 0.90202 0.54109 0.0
H188 H 0.53843 0.31105 0.30267 0.0
H189 H 0.65971 0.14263 0.2984 0.0
H190 H 0.63243 0.13129 0.2212 0.0
H191 H 0.37573 0.27489 0.23361 0.0
H192 H 0.3798 0.34474 0.20766 0.0
H193 H 0.40455 0.33748 0.2632 0.0
H194 H 0.54961 0.38579 0.24076 0.0
H195 H 0.52611 0.39248 0.18499 0.0
H196 H 0.62068 0.35538 0.19651 0.0
H197 H 0.59443 0.13996 0.14334 0.0
H198 H 0.54276 0.16629 0.07286 0.0
H199 H 0.45335 0.33052 0.12887 0.0
C200 C 0.55817 0.27133 0.28584 0.0
C201 C 0.60095 0.22765 0.30665 0.0
C202 C 0.62644 0.1766 0.28318 0.0
C203 C 0.61154 0.16985 0.23928 0.0
C204 C 0.57124 0.21454 0.21941 0.0
C205 C 0.54435 0.26406 0.24209 0.0
C206 C 0.50402 0.30626 0.21318 0.0
C207 C 0.41049 0.31642 0.23044 0.0
C208 C 0.55306 0.36334 0.2086 0.0
C209 C 0.51326 0.27308 0.17051 0.0
C210 C 0.55165 0.22012 0.17466 0.0
C211 C 0.56451 0.18142 0.13969 0.0
C212 C 0.53544 0.19683 0.09976 0.0
C213 C 0.49478 0.25063 0.09523 0.0
C214 C 0.48522 0.28941 0.13095 0.0
H215 H 0.59581 0.64613 0.21824 0.0
H216 H 0.59466 0.83006 0.19192 0.0
H217 H 0.51234 0.8464 0.26493 0.0
H218 H 0.38799 0.63623 0.27377 0.0
H219 H 0.4171 0.58283 0.31209 0.0
H220 H 0.47476 0.58742 0.25812 0.0
H221 H 0.61426 0.59903 0.293 0.0
H222 H 0.55673 0.59515 0.3471 0.0
H223 H 0.62322 0.6563 0.33187 0.0
H224 H 0.42586 0.84026 0.34199 0.0
H225 H 0.34346 0.8122 0.41262 0.0
H226 H 0.41115 0.63305 0.38599 0.0
C227 C 0.57819 0.69002 0.22747 0.0
C228 C 0.60128 0.73683 0.19922 0.0
C229 C 0.57723 0.7935 0.21299 0.0
C230 C 0.53081 0.80314 0.25443 0.0
C231 C 0.50987 0.7557 0.28163 0.0
C232 C 0.53312 0.70031 0.26845 0.0
C233 C 0.50364 0.65619 0.30301 0.0
C234 C 0.44222 0.61317 0.28571 0.0
C235 C 0.57896 0.62485 0.31972 0.0
C236 C 0.45906 0.69509 0.33781 0.0
C237 C 0.46301 0.7524 0.32528 0.0
C238 C 0.42306 0.79552 0.35212 0.0
C239 C 0.37674 0.77927 0.39224 0.0
C240 C 0.37104 0.72048 0.40488 0.0
C241 C 0.41429 0.67841 0.37749 0.0
H242 H 0.46764 0.72857 0.90958 0.0
H243 H 0.57818 0.89903 0.89616 0.0
H244 H 0.53059 0.90802 0.82216 0.0
H245 H 0.53445 0.68613 0.80021 0.0
H246 H 0.44209 0.64329 0.79519 0.0
H247 H 0.47796 0.65315 0.84815 0.0
H248 H 0.33076 0.69325 0.87916 0.0
H249 H 0.294 0.68316 0.82641 0.0
H250 H 0.28616 0.75319 0.8521 0.0
H251 H 0.46893 0.89658 0.74854 0.0
H252 H 0.40828 0.86374 0.68189 0.0
H253 H 0.35009 0.69835 0.74417 0.0
C254 C 0.48033 0.76841 0.89158 0.0
C255 C 0.52494 0.81368 0.90892 0.0
C256 C 0.54302 0.86418 0.88359 0.0
C257 C 0.51632 0.86956 0.8416 0.0
C258 C 0.4731 0.82361 0.82528 0.0
C259 C 0.45607 0.77385 0.84954 0.0
C260 C 0.41441 0.72883 0.82392 0.0
C261 C 0.47059 0.67467 0.81642 0.0
C262 C 0.32609 0.71376 0.84676 0.0
C263 C 0.40922 0.76113 0.78155 0.0
C264 C 0.44267 0.8159 0.78279 0.0
C265 C 0.44305 0.85365 0.74724 0.0
C266 C 0.40847 0.83473 0.70958 0.0
C267 C 0.37525 0.77836 0.7077 0.0
C268 C 0.37594 0.74145 0.74428 0.0
H269 H 0.62106 0.1366 0.63192 0.0
H270 H 0.60684 0.31638 0.59307 0.0
H271 H 0.51793 0.33797 0.66232 0.0
H272 H 0.40164 0.12902 0.68648 0.0
H273 H 0.43005 0.08161 0.72905 0.0
H274 H 0.48914 0.07953 0.67522 0.0
H275 H 0.62696 0.09738 0.71007 0.0
H276 H 0.56818 0.10059 0.76391 0.0
H277 H 0.63463 0.16 0.74415 0.0
H278 H 0.44399 0.34272 0.73834 0.0
H279 H 0.36928 0.32776 0.81236 0.0
H280 H 0.42195 0.14398 0.8015 0.0
C281 C 0.59793 0.18028 0.63761 0.0
C282 C 0.6214 0.22478 0.60698 0.0
C283 C 0.58985 0.28142 0.61582 0.0
C284 C 0.53956 0.29426 0.65524 0.0
C285 C 0.52007 0.24991 0.6853 0.0
C286 C 0.54646 0.19379 0.67664 0.0
C287 C 0.51602 0.15433 0.71476 0.0
C288 C 0.45561 0.10841 0.70052 0.0
C289 C 0.59092 0.12645 0.73437 0.0
C290 C 0.46975 0.19733 0.74641 0.0
C291 C 0.47384 0.25227 0.7288 0.0
C292 C 0.4393 0.29979 0.75228 0.0
C293 C 0.39758 0.29085 0.79452 0.0
C294 C 0.38956 0.23466 0.81278 0.0
C295 C 0.42671 0.18737 0.78837 0.0
H296 H 0.92855 0.79275 0.21646 0.0
H297 H 0.90683 0.61279 0.18097 0.0
H298 H 0.95872 0.58397 0.25115 0.0
H299 H 0.11659 0.77992 0.26943 0.0
H300 H 0.08063 0.83242 0.31088 0.0
H301 H 0.04569 0.83703 0.25729 0.0
H302 H 0.88984 0.83544 0.29305 0.0
H303 H 0.92429 0.83014 0.34671 0.0
H304 H 0.85398 0.77672 0.32897 0.0
H305 H 0.01278 0.57669 0.32782 0.0
H306 H 0.06408 0.59204 0.40037 0.0
H307 H 0.04179 0.77704 0.38291 0.0
C308 C 0.93529 0.74714 0.22298 0.0
C309 C 0.91406 0.70502 0.19304 0.0
C310 C 0.92333 0.64586 0.20331 0.0
C311 C 0.95244 0.62915 0.24314 0.0
C312 C 0.97149 0.67216 0.27226 0.0
C313 C 0.96323 0.72994 0.26234 0.0
C314 C 0.98544 0.76836 0.29888 0.0
C315 C 0.06162 0.80666 0.28317 0.0
C316 C 0.90882 0.80478 0.31802 0.0
C317 C 0.00791 0.72342 0.33117 0.0
C318 C -8e-05 0.66805 0.3156 0.0
C319 C 0.01896 0.61996 0.34022 0.0
C320 C 0.04775 0.62901 0.38142 0.0
C321 C 0.05673 0.6857 0.39744 0.0
C322 C 0.03553 0.73307 0.3719 0.0
H323 H 0.87679 0.32028 0.26457 0.0
H324 H 0.01785 0.23556 0.35934 0.0
H325 H 0.13784 0.22139 0.3016 0.0
H326 H 0.93585 0.22717 0.17871 0.0
H327 H 0.94369 0.28068 0.13576 0.0
H328 H 0.87392 0.29256 0.1855 0.0
H329 H 0.94821 0.38922 0.19792 0.0
H330 H 0.01786 0.37799 0.14787 0.0
H331 H 0.06106 0.39024 0.19876 0.0
H332 H 0.23402 0.20519 0.23259 0.0
H333 H 0.30293 0.19075 0.15715 0.0
H334 H 0.10117 0.28644 0.10611 0.0
C335 C 0.93383 0.30027 0.27356 0.0
C336 C 0.93808 0.27936 0.31666 0.0
C337 C 0.01323 0.25223 0.3267 0.0
C338 C 0.08177 0.24403 0.2941 0.0
C339 C 0.07438 0.26346 0.25167 0.0
C340 C 0.00269 0.29154 0.24136 0.0
C341 C 0.00823 0.30392 0.19246 0.0
C342 C 0.93616 0.2743 0.17192 0.0
C343 C 0.0089 0.36923 0.18375 0.0
C344 C 0.09308 0.27671 0.17666 0.0
C345 C 0.13035 0.25411 0.21151 0.0
C346 C 0.20601 0.22336 0.20516 0.0
C347 C 0.24428 0.215 0.16214 0.0
C348 C 0.20714 0.23735 0.12587 0.0
C349 C 0.1313 0.2695 0.13331 0.0
H350 H 0.95392 0.1795 0.63756 0.0
H351 H 0.94643 0.36198 0.60614 0.0
H352 H 0.98471 0.38534 0.68003 0.0
H353 H 0.86143 0.19209 0.7487 0.0
H354 H 0.92625 0.1361 0.7684 0.0
H355 H 0.90073 0.134 0.71278 0.0
H356 H 0.06 0.12982 0.68327 0.0
H357 H 0.08598 0.13081 0.73879 0.0
H358 H 0.12989 0.18425 0.70002 0.0
H359 H 0.02333 0.3878 0.75825 0.0
H360 H 0.06803 0.36897 0.83154 0.0
H361 H 0.04427 0.1849 0.81052 0.0
C362 C 0.96099 0.22446 0.6459 0.0
C363 C 0.94744 0.26894 0.61604 0.0
C364 C 0.95694 0.32718 0.62847 0.0
C365 C 0.97815 0.34085 0.67041 0.0
C366 C 0.98912 0.29578 0.6994 0.0
C367 C 0.98132 0.23878 0.68747 0.0
C368 C -0.00381 0.19813 0.72431 0.0
C369 C 0.91639 0.16303 0.73943 0.0
C370 C 0.07256 0.15844 0.71079 0.0
C371 C 0.01459 0.24107 0.75887 0.0
C372 C 0.00984 0.29721 0.74414 0.0
C373 C 0.02691 0.34401 0.77016 0.0
C374 C 0.05181 0.3329 0.81181 0.0
C375 C 0.05944 0.27547 0.82681 0.0
C376 C 0.03857 0.22931 0.80023 0.0
H377 H 0.92856 0.73246 0.68612 0.0
H378 H 0.16931 0.66908 0.7192 0.0
H379 H 0.10317 0.64477 0.79388 0.0
H380 H 0.86165 0.79932 0.78224 0.0
H381 H 0.75191 0.77956 0.78537 0.0
H382 H 0.81485 0.78369 0.73288 0.0
H383 H 0.77679 0.67809 0.71612 0.0
H384 H 0.71295 0.67389 0.76863 0.0
H385 H 0.79593 0.62174 0.75433 0.0
H386 H 0.01785 0.64752 0.86856 0.0
H387 H 0.91484 0.66465 0.93455 0.0
H388 H 0.72636 0.71544 0.85097 0.0
C389 C 0.96641 0.71153 0.70868 0.0
C390 C 0.05362 0.70215 0.69698 0.0
C391 C 0.10196 0.67562 0.72737 0.0
C392 C 0.065 0.6619 0.76991 0.0
C393 C 0.97917 0.67336 0.78099 0.0
C394 C 0.92991 0.69603 0.75081 0.0
C395 C 0.84035 0.70719 0.77157 0.0
C396 C 0.81584 0.77123 0.7678 0.0
C397 C 0.77781 0.66787 0.75147 0.0
C398 C 0.84815 0.69044 0.81863 0.0
C399 C 0.92865 0.67101 0.82353 0.0
C400 C 0.95376 0.66058 0.86495 0.0
C401 C 0.8952 0.67056 0.90221 0.0
C402 C 0.81239 0.68971 0.89759 0.0
C403 C 0.78839 0.6986 0.85526 0.0
loop_
_geom_bond_atom_site_label_1
_geom_bond_atom_site_label_2
_geom_bond_distance
_geom_bond_site_symmetry_2
_ccdc_geom_bond_type
Zn0 O6 1.969 . S
Zn0 O7 1.965 . S
Zn0 O11 2.024 . S
Zn0 O16 1.969 . S
Zn1 O8 1.969 . S
Zn1 O14 1.969 . S
Zn1 O15 1.965 . S
Zn1 O17 2.024 . S
C2 O3 1.229 . S
C2 O11 1.058 . S
O3 C2 1.229 . S
C4 O5 1.229 . S
C4 O17 1.058 . S
O5 C4 1.229 . S
O6 Zn0 1.969 . S
O6 C9 1.267 . S
O7 Zn0 1.965 . S
O7 C18 1.260 1_556 S
O8 Zn1 1.969 . S
O8 C18 1.258 . S
C9 O6 1.267 . S
C9 O10 1.228 . S
O10 C9 1.228 . S
O11 Zn0 2.024 . S
O11 C2 1.058 . S
C12 O13 1.228 . S
C12 O14 1.267 . S
O13 C12 1.228 . S
O14 Zn1 1.969 . S
O14 C12 1.267 . S
O15 Zn1 1.965 . S
O15 C19 1.260 1_554 S
O16 Zn0 1.969 . S
O16 C19 1.258 . S
O17 Zn1 2.024 . S
O17 C4 1.058 . S
C18 O7 1.260 1_554 S
C18 O8 1.258 . S
C19 O15 1.260 1_556 S
C19 O16 1.258 . S
Zn20 O26 1.969 . S
Zn20 O27 1.965 . S
Zn20 O31 2.024 . S
Zn20 O36 1.969 . S
Zn21 O28 1.969 . S
Zn21 O34 1.969 . S
Zn21 O35 1.965 . S
Zn21 O37 2.024 . S
C22 O23 1.229 . S
C22 O31 1.058 . S
O23 C22 1.229 . S
C24 O25 1.229 . S
C24 O37 1.058 . S
O25 C24 1.229 . S
O26 Zn20 1.969 . S
O26 C29 1.267 . S
O27 Zn20 1.965 . S
O27 C38 1.260 1_556 S
O28 Zn21 1.969 . S
O28 C38 1.258 . S
C29 O26 1.267 . S
C29 O30 1.228 . S
O30 C29 1.228 . S
O31 Zn20 2.024 . S
O31 C22 1.058 . S
C32 O33 1.228 . S
C32 O34 1.267 . S
O33 C32 1.228 . S
O34 Zn21 1.969 . S
O34 C32 1.267 . S
O35 Zn21 1.965 . S
O35 C39 1.260 1_554 S
O36 Zn20 1.969 . S
O36 C39 1.258 . S
O37 Zn21 2.024 . S
O37 C24 1.058 . S
C38 O27 1.260 1_554 S
C38 O28 1.258 . S
C39 O35 1.260 1_556 S
C39 O36 1.258 . S
Zn40 O46 1.969 . S
Zn40 O47 1.965 . S
Zn40 O51 2.024 . S
Zn40 O56 1.969 . S
Zn41 O48 1.969 . S
Zn41 O54 1.969 . S
Zn41 O55 1.965 . S
Zn41 O57 2.024 . S
C42 O43 1.229 . S
C42 O51 1.058 . S
O43 C42 1.229 . S
C44 O45 1.229 . S
C44 O57 1.058 . S
O45 C44 1.229 . S
O46 Zn40 1.969 . S
O46 C49 1.267 . S
O47 Zn40 1.965 . S
O47 C58 1.260 . S
O48 Zn41 1.969 . S
O48 C58 1.258 . S
C49 O46 1.267 . S
C49 O50 1.228 . S
O50 C49 1.228 . S
O51 Zn40 2.024 . S
O51 C42 1.058 . S
C52 O53 1.228 . S
C52 O54 1.267 . S
O53 C52 1.228 . S
O54 Zn41 1.969 . S
O54 C52 1.267 . S
O55 Zn41 1.965 . S
O55 C59 1.260 . S
O56 Zn40 1.969 . S
O56 C59 1.258 . S
O57 Zn41 2.024 . S
O57 C44 1.058 . S
C58 O47 1.260 . S
C58 O48 1.258 . S
C59 O55 1.260 . S
C59 O56 1.258 . S
Zn60 O66 1.969 . S
Zn60 O67 1.965 . S
Zn60 O71 2.024 . S
Zn60 O76 1.969 . S
Zn61 O68 1.969 . S
Zn61 O74 1.969 . S
Zn61 O75 1.965 . S
Zn61 O77 2.024 . S
C62 O63 1.229 . S
C62 O71 1.058 . S
O63 C62 1.229 . S
C64 O65 1.229 . S
C64 O77 1.058 . S
O65 C64 1.229 . S
O66 Zn60 1.969 . S
O66 C69 1.267 . S
O67 Zn60 1.965 . S
O67 C78 1.260 . S
O68 Zn61 1.969 . S
O68 C78 1.258 . S
C69 O66 1.267 . S
C69 O70 1.228 . S
O70 C69 1.228 . S
O71 Zn60 2.024 . S
O71 C62 1.058 . S
C72 O73 1.228 . S
C72 O74 1.267 . S
O73 C72 1.228 . S
O74 Zn61 1.969 . S
O74 C72 1.267 . S
O75 Zn61 1.965 . S
O75 C79 1.260 . S
O76 Zn60 1.969 . S
O76 C79 1.258 . S
O77 Zn61 2.024 . S
O77 C64 1.058 . S
C78 O67 1.260 . S
C78 O68 1.258 . S
C79 O75 1.260 . S
C79 O76 1.258 . S
H80 C92 0.930 . S
H81 C94 0.930 . S
H82 C95 0.930 . S
H83 C99 0.959 . S
H84 C99 0.959 . S
H85 C99 0.961 . S
H86 C100 0.960 . S
H87 C100 0.961 . S
H88 C100 0.959 . S
H89 C103 0.929 . S
H90 C104 0.931 . S
H91 C106 0.930 . S
C92 H80 0.930 . S
C92 C93 1.399 1_556 S
C92 C97 1.399 . S
C93 C92 1.399 1_554 S
C93 C94 1.376 . S
C94 H81 0.930 . S
C94 C93 1.376 . S
C94 C95 1.388 . S
C95 H82 0.930 . S
C95 C94 1.388 . S
C95 C96 1.390 . S
C96 C95 1.390 . S
C96 C97 1.394 1_554 S
C96 C102 1.465 . S
C97 C92 1.399 . S
C97 C96 1.394 1_556 S
C97 C98 1.516 . S
C98 C97 1.516 . S
C98 C99 1.502 . S
C98 C100 1.561 . S
C98 C101 1.526 . S
C99 H83 0.959 . S
C99 H84 0.959 . S
C99 H85 0.961 . S
C99 C98 1.502 . S
C100 H86 0.960 . S
C100 H87 0.961 . S
C100 H88 0.959 . S
C100 C98 1.561 . S
C101 C98 1.526 . S
C101 C102 1.396 1_556 S
C101 C106 1.390 . S
C102 C96 1.465 . S
C102 C101 1.396 1_554 S
C102 C103 1.399 . S
C103 H89 0.929 . S
C103 C102 1.399 . S
C103 C104 1.385 . S
C104 H90 0.931 . S
C104 C103 1.385 . S
C104 C105 1.389 . S
C105 C104 1.389 . S
C105 C106 1.387 1_554 S
C106 H91 0.930 . S
C106 C101 1.390 . S
C106 C105 1.387 1_556 S
H107 C119 0.930 . S
H108 C121 0.930 . S
H109 C122 0.930 . S
H110 C126 0.959 . S
H111 C126 0.959 . S
H112 C126 0.961 . S
H113 C127 0.960 . S
H114 C127 0.961 . S
H115 C127 0.959 . S
H116 C130 0.929 . S
H117 C131 0.931 . S
H118 C133 0.930 . S
C119 H107 0.930 . S
C119 C120 1.399 . S
C119 C124 1.399 . S
C120 C119 1.399 . S
C120 C121 1.376 . S
C121 H108 0.930 . S
C121 C120 1.376 . S
C121 C122 1.388 . S
C122 H109 0.930 . S
C122 C121 1.388 . S
C122 C123 1.390 . S
C123 C122 1.390 . S
C123 C124 1.394 . S
C123 C129 1.465 . S
C124 C119 1.399 . S
C124 C123 1.394 . S
C124 C125 1.516 . S
C125 C124 1.516 . S
C125 C126 1.502 . S
C125 C127 1.561 . S
C125 C128 1.526 . S
C126 H110 0.959 . S
C126 H111 0.959 . S
C126 H112 0.961 . S
C126 C125 1.502 . S
C127 H113 0.960 . S
C127 H114 0.961 . S
C127 H115 0.959 . S
C127 C125 1.561 . S
C128 C125 1.526 . S
C128 C129 1.396 . S
C128 C133 1.390 . S
C129 C123 1.465 . S
C129 C128 1.396 . S
C129 C130 1.399 . S
C130 H116 0.929 . S
C130 C129 1.399 . S
C130 C131 1.385 . S
C131 H117 0.931 . S
C131 C130 1.385 . S
C131 C132 1.389 . S
C132 C131 1.389 . S
C132 C133 1.387 . S
C133 H118 0.930 . S
C133 C128 1.390 . S
C133 C132 1.387 . S
H134 C146 0.930 . S
H135 C148 0.930 . S
H136 C149 0.930 . S
H137 C153 0.959 . S
H138 C153 0.959 1_565 S
H139 C153 0.961 1_455 S
H140 C154 0.960 . S
H141 C154 0.961 . S
H142 C154 0.959 . S
H143 C157 0.929 . S
H144 C158 0.931 . S
H145 C160 0.930 . S
C146 H134 0.930 . S
C146 C147 1.399 1_556 S
C146 C151 1.399 . S
C147 C146 1.399 1_554 S
C147 C148 1.376 . S
C148 H135 0.930 . S
C148 C147 1.376 . S
C148 C149 1.388 . S
C149 H136 0.930 . S
C149 C148 1.388 . S
C149 C150 1.390 . S
C150 C149 1.390 . S
C150 C151 1.394 1_554 S
C150 C156 1.465 1_445 S
C151 C146 1.399 . S
C151 C150 1.394 1_556 S
C151 C152 1.516 1_545 S
C152 C151 1.516 1_565 S
C152 C153 1.502 1_465 S
C152 C154 1.561 . S
C152 C155 1.526 1_455 S
C153 H137 0.959 . S
C153 H138 0.959 1_545 S
C153 H139 0.961 1_655 S
C153 C152 1.502 1_645 S
C154 H140 0.960 . S
C154 H141 0.961 . S
C154 H142 0.959 . S
C154 C152 1.561 . S
C155 C152 1.526 1_655 S
C155 C156 1.396 1_556 S
C155 C160 1.390 . S
C156 C150 1.465 1_665 S
C156 C155 1.396 1_554 S
C156 C157 1.399 . S
C157 H143 0.929 . S
C157 C156 1.399 . S
C157 C158 1.385 . S
C158 H144 0.931 . S
C158 C157 1.385 . S
C158 C159 1.389 . S
C159 C158 1.389 . S
C159 C160 1.387 1_554 S
C160 H145 0.930 . S
C160 C155 1.390 . S
C160 C159 1.387 1_556 S
H161 C173 0.930 . S
H162 C175 0.930 . S
H163 C176 0.930 . S
H164 C180 0.959 . S
H165 C180 0.959 . S
H166 C180 0.961 . S
H167 C181 0.960 1_545 S
H168 C181 0.961 1_455 S
H169 C181 0.959 . S
H170 C184 0.929 . S
H171 C185 0.931 . S
H172 C187 0.930 . S
C173 H161 0.930 . S
C173 C174 1.399 . S
C173 C178 1.399 . S
C174 C173 1.399 . S
C174 C175 1.376 . S
C175 H162 0.930 . S
C175 C174 1.376 . S
C175 C176 1.388 . S
C176 H163 0.930 . S
C176 C175 1.388 . S
C176 C177 1.390 . S
C177 C176 1.390 . S
C177 C178 1.394 . S
C177 C183 1.465 1_645 S
C178 C173 1.399 . S
C178 C177 1.394 . S
C178 C179 1.516 1_655 S
C179 C178 1.516 1_455 S
C179 C180 1.502 . S
C179 C181 1.561 1_445 S
C179 C182 1.526 1_545 S
C180 H164 0.959 . S
C180 H165 0.959 . S
C180 H166 0.961 . S
C180 C179 1.502 . S
C181 H167 0.960 1_565 S
C181 H168 0.961 1_655 S
C181 H169 0.959 . S
C181 C179 1.561 1_665 S
C182 C179 1.526 1_565 S
C182 C183 1.396 . S
C182 C187 1.390 . S
C183 C177 1.465 1_465 S
C183 C182 1.396 . S
C183 C184 1.399 . S
C184 H170 0.929 . S
C184 C183 1.399 . S
C184 C185 1.385 . S
C185 H171 0.931 . S
C185 C184 1.385 . S
C185 C186 1.389 . S
C186 C185 1.389 . S
C186 C187 1.387 . S
C187 H172 0.930 . S
C187 C182 1.390 . S
C187 C186 1.387 . S
H188 C200 0.930 . S
H189 C202 0.930 . S
H190 C203 0.930 . S
H191 C207 0.959 . S
H192 C207 0.959 . S
H193 C207 0.961 . S
H194 C208 0.960 . S
H195 C208 0.961 . S
H196 C208 0.959 . S
H197 C211 0.929 . S
H198 C212 0.931 . S
H199 C214 0.930 . S
C200 H188 0.930 . S
C200 C201 1.399 . S
C200 C205 1.399 . S
C201 C200 1.399 . S
C201 C202 1.376 . S
C202 H189 0.930 . S
C202 C201 1.376 . S
C202 C203 1.388 . S
C203 H190 0.930 . S
C203 C202 1.388 . S
C203 C204 1.390 . S
C204 C203 1.390 . S
C204 C205 1.394 . S
C204 C210 1.465 . S
C205 C200 1.399 . S
C205 C204 1.394 . S
C205 C206 1.516 . S
C206 C205 1.516 . S
C206 C207 1.502 . S
C206 C208 1.561 . S
C206 C209 1.526 . S
C207 H191 0.959 . S
C207 H192 0.959 . S
C207 H193 0.961 . S
C207 C206 1.502 . S
C208 H194 0.960 . S
C208 H195 0.961 . S
C208 H196 0.959 . S
C208 C206 1.561 . S
C209 C206 1.526 . S
C209 C210 1.396 . S
C209 C214 1.390 . S
C210 C204 1.465 . S
C210 C209 1.396 . S
C210 C211 1.399 . S
C211 H197 0.929 . S
C211 C210 1.399 . S
C211 C212 1.385 . S
C212 H198 0.931 . S
C212 C211 1.385 . S
C212 C213 1.389 . S
C213 C212 1.389 . S
C213 C214 1.387 . S
C214 H199 0.930 . S
C214 C209 1.390 . S
C214 C213 1.387 . S
H215 C227 0.930 . S
H216 C229 0.930 . S
H217 C230 0.930 . S
H218 C234 0.959 . S
H219 C234 0.959 . S
H220 C234 0.961 . S
H221 C235 0.960 . S
H222 C235 0.961 . S
H223 C235 0.959 . S
H224 C238 0.929 . S
H225 C239 0.931 . S
H226 C241 0.930 . S
C227 H215 0.930 . S
C227 C228 1.399 . S
C227 C232 1.399 . S
C228 C227 1.399 . S
C228 C229 1.376 . S
C229 H216 0.930 . S
C229 C228 1.376 . S
C229 C230 1.388 . S
C230 H217 0.930 . S
C230 C229 1.388 . S
C230 C231 1.390 . S
C231 C230 1.390 . S
C231 C232 1.394 . S
C231 C237 1.465 . S
C232 C227 1.399 . S
C232 C231 1.394 . S
C232 C233 1.516 . S
C233 C232 1.516 . S
C233 C234 1.502 . S
C233 C235 1.561 . S
C233 C236 1.526 . S
C234 H218 0.959 . S
C234 H219 0.959 . S
C234 H220 0.961 . S
C234 C233 1.502 . S
C235 H221 0.960 . S
C235 H222 0.961 . S
C235 H223 0.959 . S
C235 C233 1.561 . S
C236 C233 1.526 . S
C236 C237 1.396 . S
C236 C241 1.390 . S
C237 C231 1.465 . S
C237 C236 1.396 . S
C237 C238 1.399 . S
C238 H224 0.929 . S
C238 C237 1.399 . S
C238 C239 1.385 . S
C239 H225 0.931 . S
C239 C238 1.385 . S
C239 C240 1.389 . S
C240 C239 1.389 . S
C240 C241 1.387 . S
C241 H226 0.930 . S
C241 C236 1.390 . S
C241 C240 1.387 . S
H242 C254 0.930 . S
H243 C256 0.930 . S
H244 C257 0.930 . S
H245 C261 0.959 . S
H246 C261 0.959 . S
H247 C261 0.961 . S
H248 C262 0.960 . S
H249 C262 0.961 . S
H250 C262 0.959 . S
H251 C265 0.929 . S
H252 C266 0.931 . S
H253 C268 0.930 . S
C254 H242 0.930 . S
C254 C255 1.399 . S
C254 C259 1.399 . S
C255 C254 1.399 . S
C255 C256 1.376 . S
C256 H243 0.930 . S
C256 C255 1.376 . S
C256 C257 1.388 . S
C257 H244 0.930 . S
C257 C256 1.388 . S
C257 C258 1.390 . S
C258 C257 1.390 . S
C258 C259 1.394 . S
C258 C264 1.465 . S
C259 C254 1.399 . S
C259 C258 1.394 . S
C259 C260 1.516 . S
C260 C259 1.516 . S
C260 C261 1.502 . S
C260 C262 1.561 . S
C260 C263 1.526 . S
C261 H245 0.959 . S
C261 H246 0.959 . S
C261 H247 0.961 . S
C261 C260 1.502 . S
C262 H248 0.960 . S
C262 H249 0.961 . S
C262 H250 0.959 . S
C262 C260 1.561 . S
C263 C260 1.526 . S
C263 C264 1.396 . S
C263 C268 1.390 . S
C264 C258 1.465 . S
C264 C263 1.396 . S
C264 C265 1.399 . S
C265 H251 0.929 . S
C265 C264 1.399 . S
C265 C266 1.385 . S
C266 H252 0.931 . S
C266 C265 1.385 . S
C266 C267 1.389 . S
C267 C266 1.389 . S
C267 C268 1.387 . S
C268 H253 0.930 . S
C268 C263 1.390 . S
C268 C267 1.387 . S
H269 C281 0.930 . S
H270 C283 0.930 . S
H271 C284 0.930 . S
H272 C288 0.959 . S
H273 C288 0.959 . S
H274 C288 0.961 . S
H275 C289 0.960 . S
H276 C289 0.961 . S
H277 C289 0.959 . S
H278 C292 0.929 . S
H279 C293 0.931 . S
H280 C295 0.930 . S
C281 H269 0.930 . S
C281 C282 1.399 . S
C281 C286 1.399 . S
C282 C281 1.399 . S
C282 C283 1.376 . S
C283 H270 0.930 . S
C283 C282 1.376 . S
C283 C284 1.388 . S
C284 H271 0.930 . S
C284 C283 1.388 . S
C284 C285 1.390 . S
C285 C284 1.390 . S
C285 C286 1.394 . S
C285 C291 1.465 . S
C286 C281 1.399 . S
C286 C285 1.394 . S
C286 C287 1.516 . S
C287 C286 1.516 . S
C287 C288 1.502 . S
C287 C289 1.561 . S
C287 C290 1.526 . S
C288 H272 0.959 . S
C288 H273 0.959 . S
C288 H274 0.961 . S
C288 C287 1.502 . S
C289 H275 0.960 . S
C289 H276 0.961 . S
C289 H277 0.959 . S
C289 C287 1.561 . S
C290 C287 1.526 . S
C290 C291 1.396 . S
C290 C295 1.390 . S
C291 C285 1.465 . S
C291 C290 1.396 . S
C291 C292 1.399 . S
C292 H278 0.929 . S
C292 C291 1.399 . S
C292 C293 1.385 . S
C293 H279 0.931 . S
C293 C292 1.385 . S
C293 C294 1.389 . S
C294 C293 1.389 . S
C294 C295 1.387 . S
C295 H280 0.930 . S
C295 C290 1.390 . S
C295 C294 1.387 . S
H296 C308 0.930 . S
H297 C310 0.930 . S
H298 C311 0.930 . S
H299 C315 0.959 . S
H300 C315 0.959 . S
H301 C315 0.961 . S
H302 C316 0.960 . S
H303 C316 0.961 . S
H304 C316 0.959 . S
H305 C319 0.929 . S
H306 C320 0.931 . S
H307 C322 0.930 . S
C308 H296 0.930 . S
C308 C309 1.399 . S
C308 C313 1.399 . S
C309 C308 1.399 . S
C309 C310 1.376 . S
C310 H297 0.930 . S
C310 C309 1.376 . S
C310 C311 1.388 . S
C311 H298 0.930 . S
C311 C310 1.388 . S
C311 C312 1.390 . S
C312 C311 1.390 . S
C312 C313 1.394 . S
C312 C318 1.465 1_655 S
C313 C308 1.399 . S
C313 C312 1.394 . S
C313 C314 1.516 . S
C314 C313 1.516 . S
C314 C315 1.502 1_655 S
C314 C316 1.561 . S
C314 C317 1.526 1_655 S
C315 H299 0.959 . S
C315 H300 0.959 . S
C315 H301 0.961 . S
C315 C314 1.502 1_455 S
C316 H302 0.960 . S
C316 H303 0.961 . S
C316 H304 0.959 . S
C316 C314 1.561 . S
C317 C314 1.526 1_455 S
C317 C318 1.396 . S
C317 C322 1.390 . S
C318 C312 1.465 1_455 S
C318 C317 1.396 . S
C318 C319 1.399 . S
C319 H305 0.929 . S
C319 C318 1.399 . S
C319 C320 1.385 . S
C320 H306 0.931 . S
C320 C319 1.385 . S
C320 C321 1.389 . S
C321 C320 1.389 . S
C321 C322 1.387 . S
C322 H307 0.930 . S
C322 C317 1.390 . S
C322 C321 1.387 . S
H323 C335 0.930 . S
H324 C337 0.930 . S
H325 C338 0.930 . S
H326 C342 0.959 . S
H327 C342 0.959 . S
H328 C342 0.961 . S
H329 C343 0.960 1_655 S
H330 C343 0.961 . S
H331 C343 0.959 . S
H332 C346 0.929 . S
H333 C347 0.931 . S
H334 C349 0.930 . S
C335 H323 0.930 . S
C335 C336 1.399 . S
C335 C340 1.399 . S
C336 C335 1.399 . S
C336 C337 1.376 . S
C337 H324 0.930 . S
C337 C336 1.376 . S
C337 C338 1.388 1_655 S
C338 H325 0.930 . S
C338 C337 1.388 1_455 S
C338 C339 1.390 . S
C339 C338 1.390 . S
C339 C340 1.394 1_455 S
C339 C345 1.465 . S
C340 C335 1.399 . S
C340 C339 1.394 1_655 S
C340 C341 1.516 . S
C341 C340 1.516 . S
C341 C342 1.502 . S
C341 C343 1.561 1_655 S
C341 C344 1.526 1_655 S
C342 H326 0.959 . S
C342 H327 0.959 . S
C342 H328 0.961 . S
C342 C341 1.502 . S
C343 H329 0.960 1_455 S
C343 H330 0.961 . S
C343 H331 0.959 . S
C343 C341 1.561 1_455 S
C344 C341 1.526 1_455 S
C344 C345 1.396 . S
C344 C349 1.390 . S
C345 C339 1.465 . S
C345 C344 1.396 . S
C345 C346 1.399 . S
C346 H332 0.929 . S
C346 C345 1.399 . S
C346 C347 1.385 . S
C347 H333 0.931 . S
C347 C346 1.385 . S
C347 C348 1.389 . S
C348 C347 1.389 . S
C348 C349 1.387 . S
C349 H334 0.930 . S
C349 C344 1.390 . S
C349 C348 1.387 . S
H350 C362 0.930 . S
H351 C364 0.930 . S
H352 C365 0.930 . S
H353 C369 0.959 . S
H354 C369 0.959 . S
H355 C369 0.961 . S
H356 C370 0.960 . S
H357 C370 0.961 . S
H358 C370 0.959 . S
H359 C373 0.929 . S
H360 C374 0.931 . S
H361 C376 0.930 . S
C362 H350 0.930 . S
C362 C363 1.399 . S
C362 C367 1.399 . S
C363 C362 1.399 . S
C363 C364 1.376 . S
C364 H351 0.930 . S
C364 C363 1.376 . S
C364 C365 1.388 1_655 S
C365 H352 0.930 . S
C365 C364 1.388 1_455 S
C365 C366 1.390 . S
C366 C365 1.390 . S
C366 C367 1.394 1_455 S
C366 C372 1.465 . S
C367 C362 1.399 . S
C367 C366 1.394 1_655 S
C367 C368 1.516 . S
C368 C367 1.516 . S
C368 C369 1.502 . S
C368 C370 1.561 1_655 S
C368 C371 1.526 1_655 S
C369 H353 0.959 . S
C369 H354 0.959 . S
C369 H355 0.961 . S
C369 C368 1.502 . S
C370 H356 0.960 . S
C370 H357 0.961 . S
C370 H358 0.959 . S
C370 C368 1.561 1_455 S
C371 C368 1.526 1_455 S
C371 C372 1.396 . S
C371 C376 1.390 . S
C372 C366 1.465 . S
C372 C371 1.396 . S
C372 C373 1.399 . S
C373 H359 0.929 . S
C373 C372 1.399 . S
C373 C374 1.385 . S
C374 H360 0.931 . S
C374 C373 1.385 . S
C374 C375 1.389 . S
C375 C374 1.389 . S
C375 C376 1.387 . S
C376 H361 0.930 . S
C376 C371 1.390 . S
C376 C375 1.387 . S
H377 C389 0.930 . S
H378 C391 0.930 . S
H379 C392 0.930 . S
H380 C396 0.959 . S
H381 C396 0.959 . S
H382 C396 0.961 . S
H383 C397 0.960 . S
H384 C397 0.961 . S
H385 C397 0.959 . S
H386 C400 0.929 1_455 S
H387 C401 0.931 . S
H388 C403 0.930 . S
C389 H377 0.930 . S
C389 C390 1.399 . S
C389 C394 1.399 . S
C390 C389 1.399 . S
C390 C391 1.376 . S
C391 H378 0.930 . S
C391 C390 1.376 . S
C391 C392 1.388 . S
C392 H379 0.930 . S
C392 C391 1.388 . S
C392 C393 1.390 . S
C393 C392 1.390 . S
C393 C394 1.394 . S
C393 C399 1.465 1_455 S
C394 C389 1.399 . S
C394 C393 1.394 . S
C394 C395 1.516 1_455 S
C395 C394 1.516 1_655 S
C395 C396 1.502 . S
C395 C397 1.561 1_655 S
C395 C398 1.526 . S
C396 H380 0.959 . S
C396 H381 0.959 . S
C396 H382 0.961 . S
C396 C395 1.502 . S
C397 H383 0.960 . S
C397 H384 0.961 . S
C397 H385 0.959 . S
C397 C395 1.561 1_455 S
C398 C395 1.526 . S
C398 C399 1.396 . S
C398 C403 1.390 . S
C399 C393 1.465 1_655 S
C399 C398 1.396 . S
C399 C400 1.399 . S
C400 H386 0.929 1_655 S
C400 C399 1.399 . S
C400 C401 1.385 . S
C401 H387 0.931 . S
C401 C400 1.385 . S
C401 C402 1.389 . S
C402 C401 1.389 . S
C402 C403 1.387 . S
C403 H388 0.930 . S
C403 C398 1.390 . S
C403 C402 1.387 . S
C93 C38 1.462 . S
C105 C19 1.518 1_554 S
C120 C58 1.479 . S
C132 C79 1.483 . S
C147 C18 1.473 . S
C159 C39 1.510 1_554 S
C174 C78 1.492 . S
C186 C59 1.493 . S
C201 C72 1.237 . S
C213 C12 1.293 . S
C228 C24 0.994 . S
C240 C44 1.088 . S
C255 C29 1.299 . S
C267 C49 1.254 . S
C282 C62 0.928 . S
C294 C2 1.004 . S
C309 C32 1.253 . S
C321 C52 1.285 . S
C336 C64 1.040 . S
C348 C4 0.934 . S
C363 C69 1.299 . S
C375 C9 1.256 . S
C390 C42 0.930 . S
C402 C22 0.996 . S
