# Generated by pormake.
# Topology qtz-g, (3)-cn, num edge types: 1
# Building blocks:
#     Node 0, Type 0, BuildingBlock: OLANEW_clean_sbu_2, # of connection points: 3
#     Node 1, Type 0, BuildingBlock: OLANEW_clean_sbu_2, # of connection points: 3
#     Node 2, Type 0, BuildingBlock: OLANEW_clean_sbu_2, # of connection points: 3
#     Node 3, Type 0, BuildingBlock: OLANEW_clean_sbu_2, # of connection points: 3
#     Node 4, Type 0, BuildingBlock: OLANEW_clean_sbu_2, # of connection points: 3
#     Node 5, Type 0, BuildingBlock: OLANEW_clean_sbu_2, # of connection points: 3
#     Node 6, Type 0, BuildingBlock: OLANEW_clean_sbu_2, # of connection points: 3
#     Node 7, Type 0, BuildingBlock: OLANEW_clean_sbu_2, # of connection points: 3
#     Node 8, Type 0, BuildingBlock: OLANEW_clean_sbu_2, # of connection points: 3
#     Node 9, Type 0, BuildingBlock: OLANEW_clean_sbu_2, # of connection points: 3
#     Node 10, Type 0, BuildingBlock: OLANEW_clean_sbu_2, # of connection points: 3
#     Node 11, Type 0, BuildingBlock: OLANEW_clean_sbu_2, # of connection points: 3
#     Edge 12, Type (0, 0), BuildingBlock: TEMPAE_clean_linker_10, # of connection points: 2
#     Edge 13, Type (0, 0), BuildingBlock: TEMPAE_clean_linker_10, # of connection points: 2
#     Edge 14, Type (0, 0), BuildingBlock: TEMPAE_clean_linker_10, # of connection points: 2
#     Edge 15, Type (0, 0), BuildingBlock: TEMPAE_clean_linker_10, # of connection points: 2
#     Edge 16, Type (0, 0), BuildingBlock: TEMPAE_clean_linker_10, # of connection points: 2
#     Edge 17, Type (0, 0), BuildingBlock: TEMPAE_clean_linker_10, # of connection points: 2
#     Edge 18, Type (0, 0), BuildingBlock: TEMPAE_clean_linker_10, # of connection points: 2
#     Edge 19, Type (0, 0), BuildingBlock: TEMPAE_clean_linker_10, # of connection points: 2
#     Edge 20, Type (0, 0), BuildingBlock: TEMPAE_clean_linker_10, # of connection points: 2
#     Edge 21, Type (0, 0), BuildingBlock: TEMPAE_clean_linker_10, # of connection points: 2
#     Edge 22, Type (0, 0), BuildingBlock: TEMPAE_clean_linker_10, # of connection points: 2
#     Edge 23, Type (0, 0), BuildingBlock: TEMPAE_clean_linker_10, # of connection points: 2
#     Edge 24, Type (0, 0), BuildingBlock: TEMPAE_clean_linker_10, # of connection points: 2
#     Edge 25, Type (0, 0), BuildingBlock: TEMPAE_clean_linker_10, # of connection points: 2
#     Edge 26, Type (0, 0), BuildingBlock: TEMPAE_clean_linker_10, # of connection points: 2
#     Edge 27, Type (0, 0), BuildingBlock: TEMPAE_clean_linker_10, # of connection points: 2
#     Edge 28, Type (0, 0), BuildingBlock: TEMPAE_clean_linker_10, # of connection points: 2
#     Edge 29, Type (0, 0), BuildingBlock: TEMPAE_clean_linker_10, # of connection points: 2
# Relax obj value: 0.011
# Max RMSD: 0.025
# Mean RMSD: 0.025
data_MOF--net-qtz-g--node1-OLANEW_clean_sbu_2--edge1-TEMPAE_clean_linker_10
_symmetry_space_group_name_H-M    P1
_symmetry_Int_Tables_number       1
_symmetry_cell_setting            triclinic
loop_
_symmetry_equiv_pos_as_xyz
'x, y, z'
_cell_length_a     44.737126
_cell_length_b     44.743927
_cell_length_c     84.755565
_cell_angle_alpha  90.002312
_cell_angle_beta   90.001498
_cell_angle_gamma 120.00714
loop_
_atom_site_label
_atom_site_type_symbol
_atom_site_fract_x
_atom_site_fract_y
_atom_site_fract_z
_atom_type_partial_charge
O0 O 0.99622 0.37233 0.02408 0.0
Cd1 Cd 0.99365 0.31707 0.01985 0.0
O2 O 0.00494 0.37308 0.04958 0.0
Cd3 Cd 0.01024 0.3915 0.07395 0.0
O4 O 0.01523 0.40063 0.09942 0.0
C5 C 0.99365 0.37698 0.10845 0.0
O6 O 0.96891 0.34852 0.1021 0.0
C7 C 0.0009 0.38723 0.03736 0.0
C8 C 0.05813 0.32334 0.01477 0.0
O9 O 0.04215 0.32881 0.0036 0.0
O10 O 0.04382 0.31524 0.0284 0.0
O11 O 0.61193 0.98526 0.34681 0.0
Cd12 Cd 0.66251 0.9813 0.33922 0.0
O13 O 0.62835 0.99688 0.37153 0.0
Cd14 Cd 0.62087 0.00472 0.39642 0.0
O15 O 0.61529 0.00988 0.42175 0.0
C16 C 0.60721 0.98408 0.43066 0.0
O17 O 0.60202 0.95509 0.42429 0.0
C18 C 0.6066 0.99202 0.36074 0.0
C19 C 0.72172 0.04585 0.33619 0.0
O20 O 0.69976 0.03294 0.32493 0.0
O21 O 0.71563 0.02831 0.34894 0.0
O22 O 0.62749 0.62663 0.69735 0.0
Cd23 Cd 0.68202 0.6811 0.69938 0.0
O24 O 0.62431 0.63083 0.72292 0.0
Cd25 Cd 0.60402 0.61365 0.74674 0.0
O26 O 0.59595 0.60651 0.77219 0.0
C27 C 0.6227 0.62054 0.78086 0.0
O28 O 0.65312 0.6378 0.77408 0.0
C29 C 0.61127 0.61436 0.71019 0.0
C30 C 0.67916 0.73662 0.68609 0.0
O31 O 0.69081 0.72018 0.6782 0.0
O32 O 0.66862 0.72664 0.7002 0.0
O33 O 0.01929 0.62803 0.01332 0.0
Cd34 Cd 0.02166 0.68133 0.00477 0.0
O35 O 0.00374 0.63178 0.03745 0.0
Cd36 Cd 0.99276 0.61651 0.06225 0.0
O37 O 0.98377 0.60495 0.0874 0.0
C38 C 0.00094 0.6291 0.09718 0.0
O39 O 0.02338 0.65981 0.09177 0.0
C40 C 0.01118 0.61578 0.02719 0.0
C41 C 0.95705 0.67632 0.00311 0.0
O42 O 0.9682 0.66551 0.9918 0.0
O43 O 0.97628 0.68918 0.01529 0.0
O44 O 0.37694 0.01009 0.36367 0.0
Cd45 Cd 0.32295 0.01044 0.36734 0.0
O46 O 0.37576 0.00249 0.38919 0.0
Cd47 Cd 0.39565 0.99847 0.41219 0.0
O48 O 0.40511 0.99674 0.43733 0.0
C49 C 0.38435 0.99947 0.44665 0.0
O50 O 0.35924 0.00302 0.44061 0.0
C51 C 0.39052 0.00573 0.37597 0.0
C52 C 0.2667 0.95202 0.35448 0.0
O53 O 0.28224 0.98031 0.34668 0.0
O54 O 0.2778 0.95135 0.36834 0.0
O55 O 0.36849 0.37786 0.69737 0.0
Cd56 Cd 0.31388 0.32364 0.69982 0.0
O57 O 0.37465 0.3706 0.72241 0.0
Cd58 Cd 0.39772 0.38512 0.74593 0.0
O59 O 0.40771 0.39059 0.77129 0.0
C60 C 0.38204 0.38248 0.78028 0.0
O61 O 0.35164 0.37202 0.77387 0.0
C62 C 0.3863 0.3885 0.70992 0.0
C63 C 0.3184 0.26665 0.68987 0.0
O64 O 0.30642 0.28095 0.6807 0.0
O65 O 0.32843 0.27942 0.70369 0.0
O66 O 0.63265 0.00741 0.63188 0.0
Cd67 Cd 0.68542 0.00514 0.62738 0.0
O68 O 0.62452 0.99995 0.60642 0.0
Cd69 Cd 0.60062 0.99675 0.58345 0.0
O70 O 0.59146 0.99497 0.55804 0.0
C71 C 0.61784 0.00557 0.54923 0.0
O72 O 0.64821 0.01713 0.55587 0.0
C73 C 0.61423 0.00388 0.61984 0.0
C74 C 0.68207 0.94637 0.64047 0.0
O75 O 0.6963 0.9751 0.64797 0.0
O76 O 0.66935 0.94544 0.6268 0.0
O77 O 0.6226 0.62951 0.98343 0.0
Cd78 Cd 0.67452 0.68414 0.98967 0.0
O79 O 0.63558 0.63213 0.95832 0.0
Cd80 Cd 0.62529 0.61548 0.93365 0.0
O81 O 0.61932 0.60613 0.90824 0.0
C82 C 0.61388 0.62623 0.89966 0.0
O83 O 0.61146 0.65135 0.90645 0.0
C84 C 0.61516 0.61639 0.96969 0.0
C85 C 0.73363 0.6784 0.99199 0.0
O86 O 0.71269 0.67043 0.00362 0.0
O87 O 0.72648 0.68881 0.9792 0.0
O88 O 1.00003 0.63352 0.29785 0.0
Cd89 Cd 0.00087 0.68826 0.29493 0.0
O90 O 0.99083 0.62756 0.27241 0.0
Cd91 Cd 0.98644 0.60485 0.24908 0.0
O92 O 0.98731 0.59735 0.22368 0.0
C93 C 0.96727 0.60268 0.21501 0.0
O94 O 0.946 0.61105 0.22173 0.0
C95 C 0.99513 0.61591 0.28537 0.0
C96 C 0.05907 0.74354 0.30849 0.0
O97 O 0.03051 0.72772 0.31608 0.0
O98 O 0.06013 0.73309 0.29453 0.0
O99 O 0.37393 0.99361 0.64738 0.0
Cd100 Cd 0.3176 0.99001 0.64768 0.0
O101 O 0.37493 0.00721 0.62252 0.0
Cd102 Cd 0.39465 0.01617 0.59836 0.0
O103 O 0.40499 0.01955 0.57309 0.0
C104 C 0.3931 0.99177 0.5652 0.0
O105 O 0.37594 0.96211 0.57262 0.0
C106 C 0.3894 0.00161 0.63416 0.0
C107 C 0.32094 0.05122 0.65721 0.0
O108 O 0.31253 0.02639 0.66697 0.0
O109 O 0.32801 0.04721 0.64298 0.0
O110 O 0.39038 0.37231 0.98313 0.0
Cd111 Cd 0.33862 0.31764 0.98948 0.0
O112 O 0.37872 0.36896 0.95783 0.0
Cd113 Cd 0.39003 0.38501 0.93312 0.0
O114 O 0.39592 0.39424 0.9077 0.0
C115 C 0.39373 0.37039 0.89878 0.0
O116 O 0.38863 0.34149 0.90522 0.0
C117 C 0.39848 0.3851 0.96935 0.0
C118 C 0.28012 0.32378 0.9938 0.0
O119 O 0.30244 0.3318 0.00483 0.0
O120 O 0.28557 0.31317 0.98064 0.0
O121 O 0.99703 0.38424 0.31167 0.0
Cd122 Cd 0.00397 0.33553 0.31958 0.0
O123 O 0.00506 0.37828 0.28658 0.0
Cd124 Cd 0.00655 0.39049 0.26145 0.0
O125 O 0.00433 0.39626 0.23591 0.0
C126 C 0.02034 0.38628 0.2269 0.0
O127 O 0.03824 0.37338 0.23326 0.0
C128 C 0.99952 0.39443 0.29749 0.0
C129 C 0.94139 0.27401 0.32262 0.0
O130 O 0.95298 0.29626 0.33381 0.0
O131 O 0.95926 0.28093 0.30994 0.0
C132 C 0.98672 0.55947 0.04162 0.0
C133 C 0.01104 0.58351 0.03111 0.0
C134 C 0.98509 0.52775 0.04449 0.0
C135 C 0.00803 0.51981 0.03647 0.0
C136 C 0.0331 0.54435 0.0261 0.0
C137 C 0.0342 0.57583 0.0235 0.0
C138 C 0.95793 0.50221 0.05558 0.0
C139 C 0.05802 0.53689 0.01731 0.0
C140 C 0.02149 0.44583 0.04918 0.0
C141 C 0.00087 0.42023 0.03824 0.0
C142 C 0.0232 0.47807 0.04915 0.0
C143 C 0.00409 0.48486 0.03781 0.0
C144 C 0.98268 0.45881 0.02697 0.0
C145 C 0.98143 0.4269 0.0273 0.0
C146 C 0.04638 0.50526 0.06086 0.0
C147 C 0.96185 0.46497 0.0147 0.0
H148 H 0.96796 0.56471 0.04709 0.0
H149 H 0.05301 0.59437 0.01535 0.0
H150 H 0.93841 0.47967 0.04879 0.0
H151 H 0.96968 0.49247 0.06422 0.0
H152 H 0.94456 0.51366 0.06213 0.0
H153 H 0.07743 0.55958 0.01052 0.0
H154 H 0.07178 0.52888 0.02567 0.0
H155 H 0.04358 0.51518 0.00898 0.0
H156 H 0.03743 0.44128 0.05732 0.0
H157 H 0.96541 0.40716 0.01882 0.0
H158 H 0.03201 0.51605 0.06704 0.0
H159 H 0.06819 0.52688 0.05453 0.0
H160 H 0.05704 0.49494 0.06979 0.0
H161 H 0.9454 0.4739 0.02043 0.0
H162 H 0.94506 0.44142 0.00771 0.0
H163 H 0.97948 0.48562 0.00649 0.0
C164 C 0.54442 0.97172 0.35604 0.0
C165 C 0.57501 0.99349 0.36418 0.0
C166 C 0.51438 0.97351 0.35861 0.0
C167 C 0.51512 0.998 0.36942 0.0
C168 C 0.54594 0.02 0.3777 0.0
C169 C 0.57558 0.01752 0.37495 0.0
C170 C 0.48196 0.94944 0.34962 0.0
C171 C 0.5478 0.04665 0.3892 0.0
C172 C 0.44746 0.02442 0.36328 0.0
C173 C 0.42298 0.00479 0.37481 0.0
C174 C 0.47798 0.02307 0.36165 0.0
C175 C 0.48387 0.00118 0.37165 0.0
C176 C 0.45925 0.98135 0.38334 0.0
C177 C 0.42904 0.98336 0.38475 0.0
C178 C 0.50371 0.04474 0.3491 0.0
C179 C 0.46443 0.95741 0.39409 0.0
H180 H 0.54397 0.95318 0.34767 0.0
H181 H 0.59949 0.0352 0.38084 0.0
H182 H 0.46042 0.93451 0.35796 0.0
H183 H 0.47424 0.9646 0.342 0.0
H184 H 0.48536 0.93104 0.34208 0.0
H185 H 0.57328 0.06079 0.39517 0.0
H186 H 0.54301 0.06559 0.3829 0.0
H187 H 0.52743 0.03415 0.39832 0.0
H188 H 0.44277 0.04095 0.35555 0.0
H189 H 0.40963 0.96723 0.3933 0.0
H190 H 0.50642 0.02776 0.34038 0.0
H191 H 0.52948 0.06128 0.35447 0.0
H192 H 0.49595 0.06152 0.34275 0.0
H193 H 0.46512 0.93692 0.38699 0.0
H194 H 0.4436 0.94497 0.40304 0.0
H195 H 0.48956 0.97179 0.40029 0.0
C196 C 0.42368 0.44871 0.70024 0.0
C197 C 0.41931 0.42153 0.70999 0.0
C198 C 0.45479 0.48036 0.70022 0.0
C199 C 0.4823 0.48466 0.71002 0.0
C200 C 0.47817 0.45708 0.71972 0.0
C201 C 0.44668 0.42582 0.71959 0.0
C202 C 0.45813 0.50925 0.6898 0.0
C203 C 0.50708 0.46051 0.73016 0.0
C204 C 0.57293 0.55538 0.69936 0.0
C205 C 0.57838 0.58121 0.71024 0.0
C206 C 0.54186 0.52371 0.69923 0.0
C207 C 0.51547 0.51799 0.71009 0.0
C208 C 0.5207 0.54419 0.72097 0.0
C209 C 0.55213 0.57551 0.72091 0.0
C210 C 0.53733 0.49631 0.68751 0.0
C211 C 0.49299 0.53924 0.73259 0.0
H212 H 0.40255 0.44539 0.69277 0.0
H213 H 0.44378 0.40447 0.72673 0.0
H214 H 0.46424 0.53222 0.69708 0.0
H215 H 0.47975 0.51699 0.68137 0.0
H216 H 0.43419 0.50183 0.68299 0.0
H217 H 0.49968 0.43664 0.73701 0.0
H218 H 0.53002 0.46654 0.72286 0.0
H219 H 0.51486 0.48222 0.73854 0.0
H220 H 0.59318 0.5598 0.69106 0.0
H221 H 0.5558 0.59586 0.72897 0.0
H222 H 0.51487 0.48969 0.67977 0.0
H223 H 0.5319 0.4724 0.69384 0.0
H224 H 0.56052 0.50468 0.67999 0.0
H225 H 0.46932 0.53421 0.72615 0.0
H226 H 0.50121 0.56209 0.74032 0.0
H227 H 0.48604 0.51641 0.74012 0.0
C228 C 0.57863 0.02454 0.63357 0.0
C229 C 0.58179 0.00471 0.62159 0.0
C230 C 0.54776 0.02503 0.6357 0.0
C231 C 0.51925 0.00479 0.62574 0.0
C232 C 0.52227 0.98459 0.61366 0.0
C233 C 0.55354 0.9848 0.61173 0.0
C234 C 0.54563 0.04711 0.64863 0.0
C235 C 0.4923 0.96235 0.60293 0.0
C236 C 0.42966 0.98 0.64061 0.0
C237 C 0.42284 0.00293 0.63224 0.0
C238 C 0.46093 0.98025 0.63858 0.0
C239 C 0.4861 0.00436 0.6281 0.0
C240 C 0.47958 0.02805 0.61986 0.0
C241 C 0.44801 0.02706 0.62206 0.0
C242 C 0.46689 0.95449 0.64752 0.0
C243 C 0.50596 0.05444 0.60876 0.0
H244 H 0.60044 0.0399 0.64124 0.0
H245 H 0.55548 0.96852 0.60282 0.0
H246 H 0.53841 0.0655 0.64358 0.0
H247 H 0.52519 0.03064 0.65718 0.0
H248 H 0.57039 0.06197 0.65511 0.0
H249 H 0.49905 0.94863 0.59394 0.0
H250 H 0.47025 0.94293 0.61002 0.0
H251 H 0.48345 0.97843 0.59678 0.0
H252 H 0.41024 0.96139 0.64853 0.0
H253 H 0.44328 0.04561 0.616 0.0
H254 H 0.49032 0.96819 0.65497 0.0
H255 H 0.47142 0.93818 0.6391 0.0
H256 H 0.44469 0.93743 0.6552 0.0
H257 H 0.53036 0.0711 0.61519 0.0
H258 H 0.49692 0.07109 0.60329 0.0
H259 H 0.51197 0.04128 0.59922 0.0
C260 C 0.45939 0.42622 0.9767 0.0
C261 C 0.43091 0.41812 0.96703 0.0
C262 C 0.48973 0.45833 0.9756 0.0
C263 C 0.49149 0.48313 0.9647 0.0
C264 C 0.46307 0.47485 0.95466 0.0
C265 C 0.43302 0.44239 0.95598 0.0
C266 C 0.51953 0.46606 0.98646 0.0
C267 C 0.4639 0.50071 0.94298 0.0
C268 C 0.55376 0.57567 0.97646 0.0
C269 C 0.58275 0.58341 0.96724 0.0
C270 C 0.52341 0.5436 0.97525 0.0
C271 C 0.52217 0.51846 0.96471 0.0
C272 C 0.55112 0.52638 0.95511 0.0
C273 C 0.58116 0.5588 0.95652 0.0
C274 C 0.49304 0.53625 0.98563 0.0
C275 C 0.55085 0.50015 0.94382 0.0
H276 H 0.45781 0.40747 0.98525 0.0
H277 H 0.41071 0.43666 0.94883 0.0
H278 H 0.54358 0.47508 0.97954 0.0
H279 H 0.52386 0.48713 0.9947 0.0
H280 H 0.51489 0.4432 0.99351 0.0
H281 H 0.44102 0.48925 0.93508 0.0
H282 H 0.46465 0.52267 0.94942 0.0
H283 H 0.48757 0.51132 0.93564 0.0
H284 H 0.55495 0.59468 0.98475 0.0
H285 H 0.60384 0.56426 0.94974 0.0
H286 H 0.48825 0.51546 0.99414 0.0
H287 H 0.46937 0.52699 0.9784 0.0
H288 H 0.49732 0.55935 0.99238 0.0
H289 H 0.54974 0.47838 0.95059 0.0
H290 H 0.57414 0.51136 0.93618 0.0
H291 H 0.52757 0.48934 0.93621 0.0
C292 C 0.01676 0.57903 0.29687 0.0
C293 C 0.99545 0.58308 0.286 0.0
C294 C 0.01712 0.54791 0.29786 0.0
C295 C 0.99516 0.51999 0.28794 0.0
C296 C 0.97347 0.52391 0.27698 0.0
C297 C 0.97393 0.55548 0.27612 0.0
C298 C 0.04087 0.54487 0.3096 0.0
C299 C 0.94932 0.49455 0.26638 0.0
C300 C 0.01752 0.4491 0.28263 0.0
C301 C 0.99636 0.42506 0.29399 0.0
C302 C 0.0168 0.47979 0.28023 0.0
C303 C 0.99431 0.48644 0.2894 0.0
C304 C 0.97225 0.46179 0.30061 0.0
C305 C 0.97378 0.43153 0.30287 0.0
C306 C 0.04104 0.50565 0.26831 0.0
C307 C 0.94761 0.46775 0.31049 0.0
H308 H 0.03341 0.60036 0.30452 0.0
H309 H 0.95668 0.5582 0.26805 0.0
H310 H 0.02547 0.52442 0.31834 0.0
H311 H 0.0579 0.5372 0.30346 0.0
H312 H 0.05725 0.56941 0.31603 0.0
H313 H 0.93488 0.5021 0.25818 0.0
H314 H 0.96402 0.48531 0.25935 0.0
H315 H 0.93049 0.47252 0.27366 0.0
H316 H 0.03576 0.44467 0.2761 0.0
H317 H 0.95745 0.41296 0.31169 0.0
H318 H 0.05999 0.52962 0.27447 0.0
H319 H 0.0265 0.51275 0.25997 0.0
H320 H 0.05535 0.49566 0.26146 0.0
H321 H 0.9624 0.49027 0.31836 0.0
H322 H 0.93055 0.445 0.31789 0.0
H323 H 0.93128 0.47381 0.3028 0.0
C324 C 0.99816 0.40094 0.20264 0.0
C325 C 0.01775 0.38777 0.20951 0.0
C326 C 0.99441 0.40113 0.18619 0.0
C327 C 0.01059 0.38779 0.17637 0.0
C328 C 0.03089 0.37504 0.18321 0.0
C329 C 0.03424 0.37521 0.19968 0.0
C330 C 0.97265 0.41504 0.17932 0.0
C331 C 0.04857 0.36061 0.17314 0.0
C332 C 0.97389 0.35378 0.13566 0.0
C333 C 0.99716 0.38064 0.12585 0.0
C334 C 0.97765 0.35606 0.15212 0.0
C335 C 0.00534 0.38595 0.15898 0.0
C336 C 0.02856 0.41346 0.14918 0.0
C337 C 0.0242 0.41048 0.13273 0.0
C338 C 0.95233 0.32618 0.16217 0.0
C339 C 0.05834 0.44578 0.15607 0.0
H340 H 0.9854 0.41079 0.21013 0.0
H341 H 0.04948 0.36504 0.20486 0.0
H342 H 0.98785 0.43556 0.17058 0.0
H343 H 0.95019 0.39416 0.173 0.0
H344 H 0.96298 0.4258 0.18851 0.0
H345 H 0.06436 0.35275 0.18025 0.0
H346 H 0.02898 0.33779 0.16651 0.0
H347 H 0.06554 0.38007 0.16434 0.0
H348 H 0.95287 0.33066 0.13047 0.0
H349 H 0.04227 0.4314 0.12525 0.0
H350 H 0.94028 0.33521 0.171 0.0
H351 H 0.96609 0.31528 0.16879 0.0
H352 H 0.93156 0.30525 0.15505 0.0
H353 H 0.04872 0.45737 0.16484 0.0
H354 H 0.07327 0.46538 0.14689 0.0
H355 H 0.07606 0.43923 0.16237 0.0
C356 C 0.59991 0.95958 0.45785 0.0
C357 C 0.60533 0.98707 0.44801 0.0
C358 C 0.59999 0.96261 0.47433 0.0
C359 C 0.60548 0.99383 0.48116 0.0
C360 C 0.60997 0.02133 0.47131 0.0
C361 C 0.60992 0.01766 0.45485 0.0
C362 C 0.5952 0.93272 0.48444 0.0
C363 C 0.61569 0.05494 0.47817 0.0
C364 C 0.58232 0.99158 0.52452 0.0
C365 C 0.61456 0.00383 0.5318 0.0
C366 C 0.57899 0.98878 0.50801 0.0
C367 C 0.60858 0.99833 0.4986 0.0
C368 C 0.64123 0.01122 0.50587 0.0
C369 C 0.64382 0.01386 0.52236 0.0
C370 C 0.54378 0.97513 0.50066 0.0
C371 C 0.67341 0.02167 0.49625 0.0
H372 H 0.59626 0.93582 0.45269 0.0
H373 H 0.61394 0.03897 0.44734 0.0
H374 H 0.61894 0.94045 0.49143 0.0
H375 H 0.57379 0.92551 0.49293 0.0
H376 H 0.58953 0.90964 0.47731 0.0
H377 H 0.61652 0.07296 0.46893 0.0
H378 H 0.59486 0.05004 0.48666 0.0
H379 H 0.64041 0.06774 0.48477 0.0
H380 H 0.55959 0.98388 0.53171 0.0
H381 H 0.66885 0.02343 0.52785 0.0
H382 H 0.53626 0.95063 0.49436 0.0
H383 H 0.54445 0.99371 0.4918 0.0
H384 H 0.52362 0.9703 0.50956 0.0
H385 H 0.6707 0.99907 0.48961 0.0
H386 H 0.69697 0.0321 0.50368 0.0
H387 H 0.67697 0.04156 0.48745 0.0
C388 C 0.58749 0.60011 0.80567 0.0
C389 C 0.61982 0.61857 0.7983 0.0
C390 C 0.58456 0.59914 0.82219 0.0
C391 C 0.61466 0.61713 0.83154 0.0
C392 C 0.64738 0.63536 0.82417 0.0
C393 C 0.64956 0.63582 0.80766 0.0
C394 C 0.54925 0.57928 0.82964 0.0
C395 C 0.68008 0.6549 0.83373 0.0
C396 C 0.60877 0.64657 0.87284 0.0
C397 C 0.61202 0.62256 0.88225 0.0
C398 C 0.60881 0.64461 0.85632 0.0
C399 C 0.61205 0.61793 0.84901 0.0
C400 C 0.61445 0.59307 0.85843 0.0
C401 C 0.61447 0.59572 0.87494 0.0
C402 C 0.60624 0.67163 0.84668 0.0
C403 C 0.61779 0.56415 0.85106 0.0
H404 H 0.56438 0.58662 0.79853 0.0
H405 H 0.67466 0.6501 0.80208 0.0
H406 H 0.54854 0.56011 0.83815 0.0
H407 H 0.54361 0.59719 0.83635 0.0
H408 H 0.52853 0.56556 0.82075 0.0
H409 H 0.70357 0.66703 0.82621 0.0
H410 H 0.67917 0.67541 0.8407 0.0
H411 H 0.68236 0.63727 0.84222 0.0
H412 H 0.60679 0.66735 0.87837 0.0
H413 H 0.61684 0.57696 0.88212 0.0
H414 H 0.58448 0.65911 0.83821 0.0
H415 H 0.63017 0.68665 0.83967 0.0
H416 H 0.60237 0.68983 0.85415 0.0
H417 H 0.59643 0.54963 0.84257 0.0
H418 H 0.61748 0.54585 0.86 0.0
H419 H 0.6423 0.575 0.84433 0.0
C420 C 0.94892 0.61016 0.18811 0.0
C421 C 0.96974 0.60224 0.19758 0.0
C422 C 0.95274 0.61247 0.17165 0.0
C423 C 0.97797 0.60669 0.16448 0.0
C424 C 0.99832 0.59759 0.17391 0.0
C425 C 0.99397 0.59548 0.19035 0.0
C426 C 0.93048 0.62214 0.16198 0.0
C427 C 0.0254 0.5911 0.16667 0.0
C428 C 0.97169 0.59019 0.12026 0.0
C429 C 0.99543 0.62299 0.1144 0.0
C430 C 0.96594 0.58436 0.13655 0.0
C431 C 0.98431 0.61201 0.14721 0.0
C432 C 0.00847 0.64508 0.14136 0.0
C433 C 0.01374 0.65016 0.12504 0.0
C434 C 0.94002 0.54873 0.14236 0.0
C435 C 0.02855 0.67523 0.15236 0.0
H436 H 0.93004 0.6153 0.19357 0.0
H437 H 0.01009 0.58921 0.19757 0.0
H438 H 0.94692 0.64745 0.15619 0.0
H439 H 0.91715 0.60287 0.1525 0.0
H440 H 0.91076 0.6239 0.16926 0.0
H441 H 0.03758 0.5822 0.17551 0.0
H442 H 0.01383 0.57141 0.15721 0.0
H443 H 0.04587 0.61517 0.16115 0.0
H444 H 0.95746 0.56902 0.11213 0.0
H445 H 0.03214 0.67559 0.12063 0.0
H446 H 0.91905 0.5497 0.14891 0.0
H447 H 0.95258 0.53928 0.1507 0.0
H448 H 0.92837 0.52984 0.13257 0.0
H449 H 0.01049 0.6803 0.15928 0.0
H450 H 0.04673 0.69918 0.14594 0.0
H451 H 0.04347 0.66902 0.16089 0.0
C452 C 0.41514 0.99542 0.4706 0.0
C453 C 0.38807 0.99855 0.46398 0.0
C454 C 0.41861 0.9944 0.48704 0.0
C455 C 0.3944 0.9965 0.49705 0.0
C456 C 0.36711 0.99975 0.49044 0.0
C457 C 0.3643 0.00076 0.474 0.0
C458 C 0.44809 0.99101 0.4937 0.0
C459 C 0.34073 0.00201 0.50073 0.0
C460 C 0.37923 0.9622 0.53896 0.0
C461 C 0.39616 0.99279 0.54778 0.0
C462 C 0.37945 0.96295 0.52241 0.0
C463 C 0.39717 0.99504 0.51449 0.0
C464 C 0.41544 0.02591 0.5233 0.0
C465 C 0.41467 0.02442 0.53984 0.0
C466 C 0.35962 0.92948 0.51342 0.0
C467 C 0.43481 0.06061 0.51525 0.0
H468 H 0.43364 0.99373 0.46294 0.0
H469 H 0.34332 0.00319 0.46901 0.0
H470 H 0.46402 0.01307 0.50163 0.0
H471 H 0.43785 0.96717 0.50089 0.0
H472 H 0.46498 0.99011 0.48432 0.0
H473 H 0.32114 0.00458 0.49372 0.0
H474 H 0.32723 0.97859 0.5082 0.0
H475 H 0.35376 0.02452 0.50876 0.0
H476 H 0.36496 0.93763 0.54498 0.0
H477 H 0.42801 0.04817 0.54656 0.0
H478 H 0.37641 0.92728 0.50442 0.0
H479 H 0.33774 0.92912 0.50708 0.0
H480 H 0.34921 0.90657 0.52128 0.0
H481 H 0.45266 0.06037 0.50624 0.0
H482 H 0.44992 0.08186 0.52373 0.0
H483 H 0.41629 0.06616 0.50905 0.0
C484 C 0.40088 0.40523 0.87443 0.0
C485 C 0.3953 0.37438 0.88139 0.0
C486 C 0.40078 0.40862 0.85796 0.0
C487 C 0.39484 0.38046 0.84822 0.0
C488 C 0.38994 0.34954 0.85515 0.0
C489 C 0.39028 0.3469 0.87164 0.0
C490 C 0.40628 0.44206 0.85099 0.0
C491 C 0.3835 0.31893 0.84516 0.0
C492 C 0.35685 0.37279 0.80739 0.0
C493 C 0.38584 0.38346 0.79768 0.0
C494 C 0.35958 0.37221 0.82386 0.0
C495 C 0.3921 0.38264 0.83082 0.0
C496 C 0.4216 0.39404 0.82112 0.0
C497 C 0.41812 0.39428 0.80465 0.0
C498 C 0.3275 0.35986 0.8338 0.0
C499 C 0.45673 0.40548 0.82812 0.0
H500 H 0.40493 0.42665 0.88187 0.0
H501 H 0.38603 0.32299 0.87689 0.0
H502 H 0.42766 0.45218 0.84229 0.0
H503 H 0.3827 0.43741 0.84459 0.0
H504 H 0.41236 0.4621 0.86013 0.0
H505 H 0.38159 0.29727 0.85234 0.0
H506 H 0.35913 0.30952 0.83844 0.0
H507 H 0.40459 0.32666 0.83644 0.0
H508 H 0.33182 0.36444 0.80212 0.0
H509 H 0.44067 0.40266 0.79724 0.0
H510 H 0.3313 0.37992 0.84254 0.0
H511 H 0.32246 0.3365 0.84051 0.0
H512 H 0.30434 0.35355 0.82659 0.0
H513 H 0.46342 0.4264 0.83684 0.0
H514 H 0.47731 0.41489 0.81901 0.0
H515 H 0.45633 0.38365 0.83452 0.0
C516 C 0.2481 0.34856 0.00762 0.0
C517 C 0.24853 0.32585 0.99635 0.0
C518 C 0.21798 0.3501 0.01046 0.0
C519 C 0.18734 0.32763 0.00217 0.0
C520 C 0.18767 0.30466 0.99076 0.0
C521 C 0.21842 0.30441 0.98783 0.0
C522 C 0.2189 0.37562 0.02238 0.0
C523 C 0.15533 0.27973 0.98195 0.0
C524 C 0.10192 0.30614 0.02113 0.0
C525 C 0.09171 0.32545 0.01189 0.0
C526 C 0.13292 0.30649 0.01804 0.0
C527 C 0.15467 0.32747 0.00571 0.0
C528 C 0.1449 0.34775 0.99662 0.0
C529 C 0.11325 0.3461 0.99967 0.0
C530 C 0.14202 0.28385 0.02774 0.0
C531 C 0.16785 0.37116 0.98367 0.0
H532 H 0.27145 0.36537 0.01413 0.0
H533 H 0.21863 0.28665 0.97919 0.0
H534 H 0.20945 0.39191 0.01692 0.0
H535 H 0.20146 0.36166 0.03238 0.0
H536 H 0.24527 0.3927 0.02711 0.0
H537 H 0.15991 0.26345 0.97351 0.0
H538 H 0.1351 0.2626 0.99045 0.0
H539 H 0.14505 0.29404 0.97534 0.0
H540 H 0.08517 0.28995 0.03051 0.0
H541 H 0.10551 0.36125 0.99258 0.0
H542 H 0.16706 0.29986 0.0338 0.0
H543 H 0.14504 0.26566 0.0199 0.0
H544 H 0.12209 0.26871 0.03676 0.0
H545 H 0.19395 0.38906 0.98842 0.0
H546 H 0.15734 0.38661 0.97825 0.0
H547 H 0.17095 0.35563 0.97429 0.0
C548 C 0.8842 0.23783 0.33568 0.0
C549 C 0.90861 0.24103 0.32443 0.0
C550 C 0.85313 0.20657 0.33762 0.0
C551 C 0.84674 0.17763 0.32835 0.0
C552 C 0.87139 0.18069 0.31703 0.0
C553 C 0.90187 0.21249 0.31507 0.0
C554 C 0.82713 0.20452 0.34957 0.0
C555 C 0.86582 0.15023 0.30715 0.0
C556 C 0.78227 0.08861 0.34394 0.0
C557 C 0.7534 0.07981 0.33442 0.0
C558 C 0.8129 0.12029 0.34203 0.0
C559 C 0.81437 0.14405 0.33058 0.0
C560 C 0.78506 0.13557 0.32115 0.0
C561 C 0.75504 0.10336 0.32306 0.0
C562 C 0.84385 0.12812 0.35208 0.0
C563 C 0.78539 0.16053 0.30907 0.0
H564 H 0.88922 0.25991 0.34286 0.0
H565 H 0.92078 0.21479 0.30644 0.0
H566 H 0.8019 0.19589 0.34374 0.0
H567 H 0.82296 0.18514 0.35875 0.0
H568 H 0.83549 0.22969 0.35543 0.0
H569 H 0.88774 0.15677 0.29903 0.0
H570 H 0.86233 0.12877 0.31493 0.0
H571 H 0.84192 0.14063 0.30005 0.0
H572 H 0.78118 0.07038 0.35267 0.0
H573 H 0.73269 0.09675 0.31575 0.0
H574 H 0.85184 0.15189 0.35908 0.0
H575 H 0.86595 0.13298 0.34443 0.0
H576 H 0.83859 0.10671 0.36031 0.0
H577 H 0.79232 0.18547 0.3148 0.0
H578 H 0.76004 0.15052 0.3031 0.0
H579 H 0.80529 0.16588 0.29997 0.0
C580 C 0.6987 0.7836 0.66598 0.0
C581 C 0.67841 0.76662 0.67919 0.0
C582 C 0.69916 0.81281 0.65964 0.0
C583 C 0.6783 0.82489 0.66649 0.0
C584 C 0.65728 0.80747 0.67966 0.0
C585 C 0.65785 0.77873 0.68595 0.0
C586 C 0.72235 0.83104 0.64575 0.0
C587 C 0.6342 0.81919 0.6871 0.0
C588 C 0.70246 0.91829 0.65983 0.0
C589 C 0.68066 0.91526 0.6473 0.0
C590 C 0.70205 0.88909 0.66615 0.0
C591 C 0.67881 0.85602 0.65998 0.0
C592 C 0.65633 0.85275 0.6475 0.0
C593 C 0.65777 0.88246 0.6412 0.0
C594 C 0.7268 0.89367 0.67929 0.0
C595 C 0.63076 0.81787 0.64081 0.0
H596 H 0.7148 0.77447 0.66076 0.0
H597 H 0.64196 0.76557 0.69611 0.0
H598 H 0.70679 0.8315 0.63566 0.0
H599 H 0.74087 0.85826 0.64891 0.0
H600 H 0.73715 0.81849 0.64186 0.0
H601 H 0.61853 0.80211 0.69693 0.0
H602 H 0.65003 0.84582 0.69172 0.0
H603 H 0.6165 0.8198 0.6781 0.0
H604 H 0.72033 0.94361 0.66453 0.0
H605 H 0.64071 0.87995 0.63158 0.0
H606 H 0.74358 0.88321 0.6756 0.0
H607 H 0.71227 0.87895 0.68986 0.0
H608 H 0.74345 0.92117 0.68267 0.0
H609 H 0.64464 0.80535 0.63576 0.0
H610 H 0.61433 0.81966 0.63145 0.0
H611 H 0.61381 0.80081 0.65034 0.0
C612 C 0.91649 0.69671 0.01114 0.0
C613 C 0.92332 0.67479 0.00193 0.0
C614 C 0.88529 0.69678 0.00957 0.0
C615 C 0.86001 0.67379 0.99881 0.0
C616 C 0.86643 0.65098 0.98977 0.0
C617 C 0.8982 0.65205 0.9913 0.0
C618 C 0.87967 0.72196 0.0192 0.0
C619 C 0.8398 0.62556 0.97843 0.0
C620 C 0.76825 0.65554 0.00504 0.0
C621 C 0.7655 0.67635 0.99342 0.0
C622 C 0.79861 0.65388 0.00672 0.0
C623 C 0.82715 0.67416 0.99678 0.0
C624 C 0.82452 0.69525 0.98504 0.0
C625 C 0.79357 0.69577 0.98338 0.0
C626 C 0.80016 0.63048 0.01913 0.0
C627 C 0.85462 0.71777 0.97443 0.0
H628 H 0.93593 0.71449 0.01929 0.0
H629 H 0.9033 0.63489 0.98423 0.0
H630 H 0.87539 0.73914 0.01122 0.0
H631 H 0.85621 0.70786 0.02659 0.0
H632 H 0.90193 0.73819 0.02701 0.0
H633 H 0.84813 0.60844 0.97286 0.0
H634 H 0.81505 0.60931 0.9847 0.0
H635 H 0.83473 0.63961 0.96899 0.0
H636 H 0.74651 0.6403 0.01276 0.0
H637 H 0.79163 0.71207 0.97445 0.0
H638 H 0.82045 0.646 0.02791 0.0
H639 H 0.80725 0.61238 0.01361 0.0
H640 H 0.77521 0.61524 0.02542 0.0
H641 H 0.87711 0.73597 0.98166 0.0
H642 H 0.84846 0.73289 0.96597 0.0
H643 H 0.86254 0.70166 0.96765 0.0
C644 C 0.2257 0.88835 0.35419 0.0
C645 C 0.23665 0.92108 0.34773 0.0
C646 C 0.19722 0.85878 0.34791 0.0
C647 C 0.17888 0.86215 0.33507 0.0
C648 C 0.18971 0.89516 0.32856 0.0
C649 C 0.21868 0.9242 0.33488 0.0
C650 C 0.18684 0.82393 0.35497 0.0
C651 C 0.17046 0.89986 0.31503 0.0
C652 C 0.1227 0.78463 0.30919 0.0
C653 C 0.08979 0.77333 0.31552 0.0
C654 C 0.15202 0.81314 0.31562 0.0
C655 C 0.14822 0.83117 0.32847 0.0
C656 C 0.11504 0.8199 0.3349 0.0
C657 C 0.08626 0.79089 0.32844 0.0
C658 C 0.18705 0.82399 0.30864 0.0
C659 C 0.10988 0.83881 0.34844 0.0
H660 H 0.23964 0.88577 0.36407 0.0
H661 H 0.22693 0.94946 0.3299 0.0
H662 H 0.1602 0.81202 0.35969 0.0
H663 H 0.18687 0.80641 0.34571 0.0
H664 H 0.20438 0.82563 0.36464 0.0
H665 H 0.18192 0.92733 0.31148 0.0
H666 H 0.17049 0.88475 0.30467 0.0
H667 H 0.14312 0.88992 0.3184 0.0
H668 H 0.1256 0.771 0.29927 0.0
H669 H 0.06085 0.78238 0.33332 0.0
H670 H 0.2047 0.82446 0.31797 0.0
H671 H 0.19858 0.85052 0.30382 0.0
H672 H 0.18575 0.80645 0.29905 0.0
H673 H 0.12525 0.83922 0.35879 0.0
H674 H 0.08238 0.82682 0.35203 0.0
H675 H 0.11923 0.86603 0.34505 0.0
C676 C 0.34322 0.22768 0.69199 0.0
C677 C 0.32008 0.23594 0.68477 0.0
C678 C 0.34477 0.19834 0.6874 0.0
C679 C 0.32198 0.17628 0.67562 0.0
C680 C 0.29846 0.18445 0.66833 0.0
C681 C 0.29812 0.21445 0.67286 0.0
C682 C 0.37077 0.19094 0.69516 0.0
C683 C 0.27323 0.16116 0.65597 0.0
C684 C 0.3418 0.11409 0.65372 0.0
C685 C 0.32188 0.08337 0.66212 0.0
C686 C 0.34263 0.14472 0.65818 0.0
C687 C 0.32232 0.14434 0.67107 0.0
C688 C 0.302 0.11332 0.67954 0.0
C689 C 0.30239 0.0833 0.67508 0.0
C690 C 0.36526 0.17747 0.64911 0.0
C691 C 0.27942 0.1117 0.69313 0.0
H692 H 0.36041 0.2444 0.70113 0.0
H693 H 0.28003 0.22064 0.66733 0.0
H694 H 0.35723 0.16605 0.7016 0.0
H695 H 0.38719 0.1884 0.68606 0.0
H696 H 0.38769 0.2115 0.7036 0.0
H697 H 0.25638 0.17101 0.65158 0.0
H698 H 0.28736 0.15849 0.64582 0.0
H699 H 0.25668 0.13497 0.66095 0.0
H700 H 0.35709 0.11428 0.64376 0.0
H701 H 0.28676 0.05952 0.68153 0.0
H702 H 0.38328 0.19796 0.65729 0.0
H703 H 0.34915 0.18692 0.64347 0.0
H704 H 0.38056 0.17372 0.6398 0.0
H705 H 0.29541 0.13003 0.70252 0.0
H706 H 0.26477 0.08544 0.69834 0.0
H707 H 0.26078 0.11958 0.68907 0.0
loop_
_geom_bond_atom_site_label_1
_geom_bond_atom_site_label_2
_geom_bond_distance
_geom_bond_site_symmetry_2
_ccdc_geom_bond_type
O0 Cd1 2.300 . S
O0 C7 1.275 . S
Cd1 O0 2.300 . S
Cd1 O9 2.381 . S
Cd1 O10 2.378 . S
O2 Cd3 2.385 . S
O2 C7 1.255 . S
Cd3 O2 2.385 . S
Cd3 O4 2.317 . S
O4 Cd3 2.317 . S
O4 C5 1.232 . S
C5 O4 1.232 . S
C5 O6 1.218 . S
O6 C5 1.218 . S
C7 O0 1.275 . S
C7 O2 1.255 . S
C8 O9 1.258 . S
C8 O10 1.256 . S
O9 Cd1 2.381 . S
O9 C8 1.258 . S
O10 Cd1 2.378 . S
O10 C8 1.256 . S
O11 Cd12 2.300 . S
O11 C18 1.275 . S
Cd12 O11 2.300 . S
Cd12 O20 2.381 . S
Cd12 O21 2.378 . S
O13 Cd14 2.385 . S
O13 C18 1.255 . S
Cd14 O13 2.385 . S
Cd14 O15 2.317 . S
O15 Cd14 2.317 . S
O15 C16 1.232 . S
C16 O15 1.232 . S
C16 O17 1.218 . S
O17 C16 1.218 . S
C18 O11 1.275 . S
C18 O13 1.255 . S
C19 O20 1.258 . S
C19 O21 1.256 . S
O20 Cd12 2.381 . S
O20 C19 1.258 . S
O21 Cd12 2.378 . S
O21 C19 1.256 . S
O22 Cd23 2.300 . S
O22 C29 1.275 . S
Cd23 O22 2.300 . S
Cd23 O31 2.381 . S
Cd23 O32 2.378 . S
O24 Cd25 2.385 . S
O24 C29 1.255 . S
Cd25 O24 2.385 . S
Cd25 O26 2.317 . S
O26 Cd25 2.317 . S
O26 C27 1.232 . S
C27 O26 1.232 . S
C27 O28 1.218 . S
O28 C27 1.218 . S
C29 O22 1.275 . S
C29 O24 1.255 . S
C30 O31 1.258 . S
C30 O32 1.256 . S
O31 Cd23 2.381 . S
O31 C30 1.258 . S
O32 Cd23 2.378 . S
O32 C30 1.256 . S
O33 Cd34 2.300 . S
O33 C40 1.275 . S
Cd34 O33 2.300 . S
Cd34 O42 2.381 . S
Cd34 O43 2.378 . S
O35 Cd36 2.385 . S
O35 C40 1.255 . S
Cd36 O35 2.385 . S
Cd36 O37 2.317 . S
O37 Cd36 2.317 . S
O37 C38 1.232 . S
C38 O37 1.232 . S
C38 O39 1.218 . S
O39 C38 1.218 . S
C40 O33 1.275 . S
C40 O35 1.255 . S
C41 O42 1.258 . S
C41 O43 1.256 . S
O42 Cd34 2.381 . S
O42 C41 1.258 . S
O43 Cd34 2.378 . S
O43 C41 1.256 . S
O44 Cd45 2.300 . S
O44 C51 1.275 . S
Cd45 O44 2.300 . S
Cd45 O53 2.381 . S
Cd45 O54 2.378 . S
O46 Cd47 2.385 . S
O46 C51 1.255 . S
Cd47 O46 2.385 . S
Cd47 O48 2.317 . S
O48 Cd47 2.317 . S
O48 C49 1.232 . S
C49 O48 1.232 . S
C49 O50 1.218 . S
O50 C49 1.218 . S
C51 O44 1.275 . S
C51 O46 1.255 . S
C52 O53 1.258 . S
C52 O54 1.256 . S
O53 Cd45 2.381 . S
O53 C52 1.258 . S
O54 Cd45 2.378 . S
O54 C52 1.256 . S
O55 Cd56 2.300 . S
O55 C62 1.275 . S
Cd56 O55 2.300 . S
Cd56 O64 2.381 . S
Cd56 O65 2.378 . S
O57 Cd58 2.385 . S
O57 C62 1.255 . S
Cd58 O57 2.385 . S
Cd58 O59 2.317 . S
O59 Cd58 2.317 . S
O59 C60 1.232 . S
C60 O59 1.232 . S
C60 O61 1.218 . S
O61 C60 1.218 . S
C62 O55 1.275 . S
C62 O57 1.255 . S
C63 O64 1.258 . S
C63 O65 1.256 . S
O64 Cd56 2.381 . S
O64 C63 1.258 . S
O65 Cd56 2.378 . S
O65 C63 1.256 . S
O66 Cd67 2.300 . S
O66 C73 1.275 . S
Cd67 O66 2.300 . S
Cd67 O75 2.381 . S
Cd67 O76 2.378 . S
O68 Cd69 2.385 . S
O68 C73 1.255 . S
Cd69 O68 2.385 . S
Cd69 O70 2.317 . S
O70 Cd69 2.317 . S
O70 C71 1.232 . S
C71 O70 1.232 . S
C71 O72 1.218 . S
O72 C71 1.218 . S
C73 O66 1.275 . S
C73 O68 1.255 . S
C74 O75 1.258 . S
C74 O76 1.256 . S
O75 Cd67 2.381 . S
O75 C74 1.258 . S
O76 Cd67 2.378 . S
O76 C74 1.256 . S
O77 Cd78 2.300 . S
O77 C84 1.275 . S
Cd78 O77 2.300 . S
Cd78 O86 2.381 . S
Cd78 O87 2.378 . S
O79 Cd80 2.385 . S
O79 C84 1.255 . S
Cd80 O79 2.385 . S
Cd80 O81 2.317 . S
O81 Cd80 2.317 . S
O81 C82 1.232 . S
C82 O81 1.232 . S
C82 O83 1.218 . S
O83 C82 1.218 . S
C84 O77 1.275 . S
C84 O79 1.255 . S
C85 O86 1.258 . S
C85 O87 1.256 . S
O86 Cd78 2.381 . S
O86 C85 1.258 . S
O87 Cd78 2.378 . S
O87 C85 1.256 . S
O88 Cd89 2.300 . S
O88 C95 1.275 . S
Cd89 O88 2.300 . S
Cd89 O97 2.381 . S
Cd89 O98 2.378 . S
O90 Cd91 2.385 . S
O90 C95 1.255 . S
Cd91 O90 2.385 . S
Cd91 O92 2.317 . S
O92 Cd91 2.317 . S
O92 C93 1.232 . S
C93 O92 1.232 . S
C93 O94 1.218 . S
O94 C93 1.218 . S
C95 O88 1.275 . S
C95 O90 1.255 . S
C96 O97 1.258 . S
C96 O98 1.256 . S
O97 Cd89 2.381 . S
O97 C96 1.258 . S
O98 Cd89 2.378 . S
O98 C96 1.256 . S
O99 Cd100 2.300 . S
O99 C106 1.275 . S
Cd100 O99 2.300 . S
Cd100 O108 2.381 . S
Cd100 O109 2.378 . S
O101 Cd102 2.385 . S
O101 C106 1.255 . S
Cd102 O101 2.385 . S
Cd102 O103 2.317 . S
O103 Cd102 2.317 . S
O103 C104 1.232 . S
C104 O103 1.232 . S
C104 O105 1.218 . S
O105 C104 1.218 . S
C106 O99 1.275 . S
C106 O101 1.255 . S
C107 O108 1.258 . S
C107 O109 1.256 . S
O108 Cd100 2.381 . S
O108 C107 1.258 . S
O109 Cd100 2.378 . S
O109 C107 1.256 . S
O110 Cd111 2.300 . S
O110 C117 1.275 . S
Cd111 O110 2.300 . S
Cd111 O119 2.381 . S
Cd111 O120 2.378 . S
O112 Cd113 2.385 . S
O112 C117 1.255 . S
Cd113 O112 2.385 . S
Cd113 O114 2.317 . S
O114 Cd113 2.317 . S
O114 C115 1.232 . S
C115 O114 1.232 . S
C115 O116 1.218 . S
O116 C115 1.218 . S
C117 O110 1.275 . S
C117 O112 1.255 . S
C118 O119 1.258 . S
C118 O120 1.256 . S
O119 Cd111 2.381 . S
O119 C118 1.258 . S
O120 Cd111 2.378 . S
O120 C118 1.256 . S
O121 Cd122 2.300 . S
O121 C128 1.275 . S
Cd122 O121 2.300 . S
Cd122 O130 2.381 . S
Cd122 O131 2.378 . S
O123 Cd124 2.385 . S
O123 C128 1.255 . S
Cd124 O123 2.385 . S
Cd124 O125 2.317 . S
O125 Cd124 2.317 . S
O125 C126 1.232 . S
C126 O125 1.232 . S
C126 O127 1.218 . S
O127 C126 1.218 . S
C128 O121 1.275 . S
C128 O123 1.255 . S
C129 O130 1.258 . S
C129 O131 1.256 . S
O130 Cd122 2.381 . S
O130 C129 1.258 . S
O131 Cd122 2.378 . S
O131 C129 1.256 . S
C132 C133 1.391 . S
C132 C134 1.394 . S
C132 H148 0.931 . S
C133 C132 1.391 . S
C133 C137 1.376 1_655 S
C134 C132 1.394 . S
C134 C135 1.369 1_655 S
C134 C138 1.531 . S
C135 C134 1.369 1_455 S
C135 C136 1.410 . S
C135 C143 1.503 . S
C136 C135 1.410 . S
C136 C137 1.392 . S
C136 C139 1.511 . S
C137 C133 1.376 1_455 S
C137 C136 1.392 . S
C137 H149 0.929 . S
C138 C134 1.531 . S
C138 H150 0.960 . S
C138 H151 0.962 . S
C138 H152 0.960 . S
C139 C136 1.511 . S
C139 H153 0.961 . S
C139 H154 0.961 . S
C139 H155 0.961 . S
C140 C141 1.370 1_655 S
C140 C142 1.363 . S
C140 H156 0.931 . S
C141 C140 1.370 1_455 S
C141 C145 1.408 . S
C142 C140 1.363 . S
C142 C143 1.370 1_655 S
C142 C146 1.524 . S
C143 C135 1.503 . S
C143 C142 1.370 1_455 S
C143 C144 1.403 . S
C144 C143 1.403 . S
C144 C145 1.404 . S
C144 C147 1.539 . S
C145 C141 1.408 . S
C145 C144 1.404 . S
C145 H157 0.930 . S
C146 C142 1.524 . S
C146 H158 0.956 . S
C146 H159 0.961 . S
C146 H160 0.961 . S
C147 C144 1.539 . S
C147 H161 0.958 . S
C147 H162 0.961 . S
C147 H163 0.960 . S
H148 C132 0.931 . S
H149 C137 0.929 . S
H150 C138 0.960 . S
H151 C138 0.962 . S
H152 C138 0.960 . S
H153 C139 0.961 . S
H154 C139 0.961 . S
H155 C139 0.961 . S
H156 C140 0.931 . S
H157 C145 0.930 . S
H158 C146 0.956 . S
H159 C146 0.961 . S
H160 C146 0.961 . S
H161 C147 0.958 . S
H162 C147 0.961 . S
H163 C147 0.960 . S
C164 C165 1.391 1_565 S
C164 C166 1.394 . S
C164 H180 0.931 . S
C165 C164 1.391 1_545 S
C165 C169 1.376 . S
C166 C164 1.394 . S
C166 C167 1.369 . S
C166 C170 1.531 . S
C167 C166 1.369 . S
C167 C168 1.410 1_565 S
C167 C175 1.503 . S
C168 C167 1.410 1_545 S
C168 C169 1.392 . S
C168 C171 1.511 . S
C169 C165 1.376 . S
C169 C168 1.392 . S
C169 H181 0.929 . S
C170 C166 1.531 . S
C170 H182 0.960 . S
C170 H183 0.962 . S
C170 H184 0.960 . S
C171 C168 1.511 . S
C171 H185 0.961 . S
C171 H186 0.961 . S
C171 H187 0.961 . S
C172 C173 1.370 1_545 S
C172 C174 1.363 . S
C172 H188 0.931 . S
C173 C172 1.370 1_565 S
C173 C177 1.408 . S
C174 C172 1.363 . S
C174 C175 1.370 1_545 S
C174 C178 1.524 . S
C175 C167 1.503 . S
C175 C174 1.370 1_565 S
C175 C176 1.403 . S
C176 C175 1.403 . S
C176 C177 1.404 . S
C176 C179 1.539 . S
C177 C173 1.408 . S
C177 C176 1.404 . S
C177 H189 0.930 . S
C178 C174 1.524 . S
C178 H190 0.945 1_545 S
C178 H191 0.961 . S
C178 H192 0.961 . S
C179 C176 1.539 . S
C179 H193 0.958 . S
C179 H194 0.961 . S
C179 H195 0.960 . S
H180 C164 0.931 . S
H181 C169 0.929 . S
H182 C170 0.960 . S
H183 C170 0.962 . S
H184 C170 0.960 . S
H185 C171 0.961 . S
H186 C171 0.961 . S
H187 C171 0.961 . S
H188 C172 0.931 . S
H189 C177 0.930 . S
H190 C178 0.945 1_565 S
H191 C178 0.961 . S
H192 C178 0.961 . S
H193 C179 0.958 . S
H194 C179 0.961 . S
H195 C179 0.960 . S
C196 C197 1.391 . S
C196 C198 1.394 . S
C196 H212 0.931 . S
C197 C196 1.391 . S
C197 C201 1.376 . S
C198 C196 1.394 . S
C198 C199 1.369 . S
C198 C202 1.531 . S
C199 C198 1.369 . S
C199 C200 1.410 . S
C199 C207 1.503 . S
C200 C199 1.410 . S
C200 C201 1.392 . S
C200 C203 1.511 . S
C201 C197 1.376 . S
C201 C200 1.392 . S
C201 H213 0.929 . S
C202 C198 1.531 . S
C202 H214 0.960 . S
C202 H215 0.962 . S
C202 H216 0.960 . S
C203 C200 1.511 . S
C203 H217 0.961 . S
C203 H218 0.961 . S
C203 H219 0.961 . S
C204 C205 1.370 . S
C204 C206 1.363 . S
C204 H220 0.931 . S
C205 C204 1.370 . S
C205 C209 1.408 . S
C206 C204 1.363 . S
C206 C207 1.370 . S
C206 C210 1.524 . S
C207 C199 1.503 . S
C207 C206 1.370 . S
C207 C208 1.403 . S
C208 C207 1.403 . S
C208 C209 1.404 . S
C208 C211 1.539 . S
C209 C205 1.408 . S
C209 C208 1.404 . S
C209 H221 0.930 . S
C210 C206 1.524 . S
C210 H222 0.956 . S
C210 H223 0.961 . S
C210 H224 0.961 . S
C211 C208 1.539 . S
C211 H225 0.958 . S
C211 H226 0.961 . S
C211 H227 0.960 . S
H212 C196 0.931 . S
H213 C201 0.929 . S
H214 C202 0.960 . S
H215 C202 0.962 . S
H216 C202 0.960 . S
H217 C203 0.961 . S
H218 C203 0.961 . S
H219 C203 0.961 . S
H220 C204 0.931 . S
H221 C209 0.930 . S
H222 C210 0.956 . S
H223 C210 0.961 . S
H224 C210 0.961 . S
H225 C211 0.958 . S
H226 C211 0.961 . S
H227 C211 0.960 . S
C228 C229 1.366 1_545 S
C228 C230 1.394 . S
C228 H244 0.931 . S
C229 C228 1.366 1_565 S
C229 C233 1.385 . S
C230 C228 1.394 . S
C230 C231 1.369 . S
C230 C234 1.531 . S
C231 C230 1.369 . S
C231 C232 1.410 1_545 S
C231 C239 1.503 . S
C232 C231 1.410 1_565 S
C232 C233 1.392 . S
C232 C235 1.511 . S
C233 C229 1.385 . S
C233 C232 1.392 . S
C233 H245 0.929 . S
C234 C230 1.531 . S
C234 H246 0.960 . S
C234 H247 0.962 . S
C234 H248 0.960 . S
C235 C232 1.511 . S
C235 H249 0.961 . S
C235 H250 0.961 . S
C235 H251 0.961 . S
C236 C237 1.370 1_565 S
C236 C238 1.363 . S
C236 H252 0.931 . S
C237 C236 1.370 1_545 S
C237 C241 1.408 . S
C238 C236 1.363 . S
C238 C239 1.370 1_565 S
C238 C242 1.524 . S
C239 C231 1.503 . S
C239 C238 1.370 1_545 S
C239 C240 1.403 . S
C240 C239 1.403 . S
C240 C241 1.404 . S
C240 C243 1.539 . S
C241 C237 1.408 . S
C241 C240 1.404 . S
C241 H253 0.930 . S
C242 C238 1.524 . S
C242 H254 0.956 . S
C242 H255 0.961 . S
C242 H256 0.961 . S
C243 C240 1.539 . S
C243 H257 0.958 . S
C243 H258 0.961 . S
C243 H259 0.960 . S
H244 C228 0.931 . S
H245 C233 0.929 . S
H246 C234 0.960 . S
H247 C234 0.962 . S
H248 C234 0.960 . S
H249 C235 0.961 . S
H250 C235 0.961 . S
H251 C235 0.961 . S
H252 C236 0.931 . S
H253 C241 0.930 . S
H254 C242 0.956 . S
H255 C242 0.961 . S
H256 C242 0.961 . S
H257 C243 0.958 . S
H258 C243 0.961 . S
H259 C243 0.960 . S
C260 C261 1.391 . S
C260 C262 1.394 . S
C260 H276 0.931 . S
C261 C260 1.391 . S
C261 C265 1.376 . S
C262 C260 1.394 . S
C262 C263 1.369 . S
C262 C266 1.531 . S
C263 C262 1.369 . S
C263 C264 1.410 . S
C263 C271 1.503 . S
C264 C263 1.410 . S
C264 C265 1.392 . S
C264 C267 1.511 . S
C265 C261 1.376 . S
C265 C264 1.392 . S
C265 H277 0.929 . S
C266 C262 1.531 . S
C266 H278 0.960 . S
C266 H279 0.962 . S
C266 H280 0.960 . S
C267 C264 1.511 . S
C267 H281 0.961 . S
C267 H282 0.961 . S
C267 H283 0.961 . S
C268 C269 1.370 . S
C268 C270 1.363 . S
C268 H284 0.931 . S
C269 C268 1.370 . S
C269 C273 1.408 . S
C270 C268 1.363 . S
C270 C271 1.370 . S
C270 C274 1.524 . S
C271 C263 1.503 . S
C271 C270 1.370 . S
C271 C272 1.403 . S
C272 C271 1.403 . S
C272 C273 1.404 . S
C272 C275 1.539 . S
C273 C269 1.408 . S
C273 C272 1.404 . S
C273 H285 0.930 . S
C274 C270 1.524 . S
C274 H286 0.956 . S
C274 H287 0.961 . S
C274 H288 0.961 . S
C275 C272 1.539 . S
C275 H289 0.958 . S
C275 H290 0.961 . S
C275 H291 0.960 . S
H276 C260 0.931 . S
H277 C265 0.929 . S
H278 C266 0.960 . S
H279 C266 0.962 . S
H280 C266 0.960 . S
H281 C267 0.961 . S
H282 C267 0.961 . S
H283 C267 0.961 . S
H284 C268 0.931 . S
H285 C273 0.930 . S
H286 C274 0.956 . S
H287 C274 0.961 . S
H288 C274 0.961 . S
H289 C275 0.958 . S
H290 C275 0.961 . S
H291 C275 0.960 . S
C292 C293 1.391 1_455 S
C292 C294 1.394 . S
C292 H308 0.931 . S
C293 C292 1.391 1_655 S
C293 C297 1.376 . S
C294 C292 1.394 . S
C294 C295 1.369 1_455 S
C294 C298 1.531 . S
C295 C294 1.369 1_655 S
C295 C296 1.410 . S
C295 C303 1.503 . S
C296 C295 1.410 . S
C296 C297 1.392 . S
C296 C299 1.511 . S
C297 C293 1.376 . S
C297 C296 1.392 . S
C297 H309 0.929 . S
C298 C294 1.531 . S
C298 H310 0.960 . S
C298 H311 0.962 . S
C298 H312 0.960 . S
C299 C296 1.511 . S
C299 H313 0.961 . S
C299 H314 0.961 . S
C299 H315 0.961 . S
C300 C301 1.370 1_455 S
C300 C302 1.363 . S
C300 H316 0.931 . S
C301 C300 1.370 1_655 S
C301 C305 1.408 . S
C302 C300 1.363 . S
C302 C303 1.370 1_455 S
C302 C306 1.524 . S
C303 C295 1.503 . S
C303 C302 1.370 1_655 S
C303 C304 1.403 . S
C304 C303 1.403 . S
C304 C305 1.404 . S
C304 C307 1.539 . S
C305 C301 1.408 . S
C305 C304 1.404 . S
C305 H317 0.930 . S
C306 C302 1.524 . S
C306 H318 0.956 . S
C306 H319 0.961 . S
C306 H320 0.961 . S
C307 C304 1.539 . S
C307 H321 0.958 . S
C307 H322 0.961 . S
C307 H323 0.960 . S
H308 C292 0.931 . S
H309 C297 0.929 . S
H310 C298 0.960 . S
H311 C298 0.962 . S
H312 C298 0.960 . S
H313 C299 0.961 . S
H314 C299 0.961 . S
H315 C299 0.961 . S
H316 C300 0.931 . S
H317 C305 0.930 . S
H318 C306 0.956 . S
H319 C306 0.961 . S
H320 C306 0.961 . S
H321 C307 0.958 . S
H322 C307 0.961 . S
H323 C307 0.960 . S
C324 C325 1.391 1_655 S
C324 C326 1.394 . S
C324 H340 0.931 . S
C325 C324 1.391 1_455 S
C325 C329 1.376 . S
C326 C324 1.394 . S
C326 C327 1.369 1_655 S
C326 C330 1.531 . S
C327 C326 1.369 1_455 S
C327 C328 1.410 . S
C327 C335 1.503 . S
C328 C327 1.410 . S
C328 C329 1.392 . S
C328 C331 1.511 . S
C329 C325 1.376 . S
C329 C328 1.392 . S
C329 H341 0.929 . S
C330 C326 1.531 . S
C330 H342 0.960 . S
C330 H343 0.962 . S
C330 H344 0.960 . S
C331 C328 1.511 . S
C331 H345 0.961 . S
C331 H346 0.961 . S
C331 H347 0.961 . S
C332 C333 1.365 1_655 S
C332 C334 1.363 . S
C332 H348 0.931 . S
C333 C332 1.365 1_455 S
C333 C337 1.413 . S
C334 C332 1.363 . S
C334 C335 1.370 1_655 S
C334 C338 1.524 . S
C335 C327 1.503 . S
C335 C334 1.370 1_455 S
C335 C336 1.403 . S
C336 C335 1.403 . S
C336 C337 1.404 . S
C336 C339 1.539 . S
C337 C333 1.413 . S
C337 C336 1.404 . S
C337 H349 0.930 . S
C338 C334 1.524 . S
C338 H350 0.956 . S
C338 H351 0.961 . S
C338 H352 0.961 . S
C339 C336 1.539 . S
C339 H353 0.958 . S
C339 H354 0.961 . S
C339 H355 0.960 . S
H340 C324 0.931 . S
H341 C329 0.929 . S
H342 C330 0.960 . S
H343 C330 0.962 . S
H344 C330 0.960 . S
H345 C331 0.961 . S
H346 C331 0.961 . S
H347 C331 0.961 . S
H348 C332 0.931 . S
H349 C337 0.930 . S
H350 C338 0.956 . S
H351 C338 0.961 . S
H352 C338 0.961 . S
H353 C339 0.958 . S
H354 C339 0.961 . S
H355 C339 0.960 . S
C356 C357 1.384 1_565 S
C356 C358 1.394 . S
C356 H372 0.931 . S
C357 C356 1.384 1_545 S
C357 C361 1.382 . S
C358 C356 1.394 . S
C358 C359 1.369 1_565 S
C358 C362 1.531 . S
C359 C358 1.369 1_545 S
C359 C360 1.410 . S
C359 C367 1.503 . S
C360 C359 1.410 . S
C360 C361 1.392 . S
C360 C363 1.511 . S
C361 C357 1.382 . S
C361 C360 1.392 . S
C361 H373 0.929 . S
C362 C358 1.531 . S
C362 H374 0.960 . S
C362 H375 0.962 . S
C362 H376 0.960 . S
C363 C360 1.511 . S
C363 H377 0.961 . S
C363 H378 0.961 . S
C363 H379 0.961 . S
C364 C365 1.370 1_565 S
C364 C366 1.363 . S
C364 H380 0.931 . S
C365 C364 1.370 1_545 S
C365 C369 1.408 . S
C366 C364 1.363 . S
C366 C367 1.370 1_565 S
C366 C370 1.524 . S
C367 C359 1.503 . S
C367 C366 1.370 1_545 S
C367 C368 1.403 . S
C368 C367 1.403 . S
C368 C369 1.404 . S
C368 C371 1.539 . S
C369 C365 1.408 . S
C369 C368 1.404 . S
C369 H381 0.930 . S
C370 C366 1.524 . S
C370 H382 0.956 . S
C370 H383 0.961 1_565 S
C370 H384 0.961 . S
C371 C368 1.539 . S
C371 H385 0.958 . S
C371 H386 0.961 . S
C371 H387 0.960 . S
H372 C356 0.931 . S
H373 C361 0.929 . S
H374 C362 0.960 . S
H375 C362 0.962 . S
H376 C362 0.960 . S
H377 C363 0.961 . S
H378 C363 0.961 . S
H379 C363 0.961 . S
H380 C364 0.931 . S
H381 C369 0.930 . S
H382 C370 0.956 . S
H383 C370 0.961 1_545 S
H384 C370 0.961 . S
H385 C371 0.958 . S
H386 C371 0.961 . S
H387 C371 0.960 . S
C388 C389 1.391 . S
C388 C390 1.394 . S
C388 H404 0.931 . S
C389 C388 1.391 . S
C389 C393 1.376 . S
C390 C388 1.394 . S
C390 C391 1.369 . S
C390 C394 1.531 . S
C391 C390 1.369 . S
C391 C392 1.410 . S
C391 C399 1.503 . S
C392 C391 1.410 . S
C392 C393 1.392 . S
C392 C395 1.511 . S
C393 C389 1.376 . S
C393 C392 1.392 . S
C393 H405 0.929 . S
C394 C390 1.531 . S
C394 H406 0.960 . S
C394 H407 0.962 . S
C394 H408 0.960 . S
C395 C392 1.511 . S
C395 H409 0.961 . S
C395 H410 0.961 . S
C395 H411 0.961 . S
C396 C397 1.370 . S
C396 C398 1.363 . S
C396 H412 0.931 . S
C397 C396 1.370 . S
C397 C401 1.408 . S
C398 C396 1.363 . S
C398 C399 1.370 . S
C398 C402 1.524 . S
C399 C391 1.503 . S
C399 C398 1.370 . S
C399 C400 1.403 . S
C400 C399 1.403 . S
C400 C401 1.404 . S
C400 C403 1.539 . S
C401 C397 1.408 . S
C401 C400 1.404 . S
C401 H413 0.930 . S
C402 C398 1.524 . S
C402 H414 0.956 . S
C402 H415 0.961 . S
C402 H416 0.961 . S
C403 C400 1.539 . S
C403 H417 0.958 . S
C403 H418 0.961 . S
C403 H419 0.960 . S
H404 C388 0.931 . S
H405 C393 0.929 . S
H406 C394 0.960 . S
H407 C394 0.962 . S
H408 C394 0.960 . S
H409 C395 0.961 . S
H410 C395 0.961 . S
H411 C395 0.961 . S
H412 C396 0.931 . S
H413 C401 0.930 . S
H414 C402 0.956 . S
H415 C402 0.961 . S
H416 C402 0.961 . S
H417 C403 0.958 . S
H418 C403 0.961 . S
H419 C403 0.960 . S
C420 C421 1.379 1_655 S
C420 C422 1.394 . S
C420 H436 0.931 . S
C421 C420 1.379 1_455 S
C421 C425 1.388 . S
C422 C420 1.394 . S
C422 C423 1.369 1_655 S
C422 C426 1.531 . S
C423 C422 1.369 1_455 S
C423 C424 1.410 . S
C423 C431 1.503 . S
C424 C423 1.410 . S
C424 C425 1.392 . S
C424 C427 1.511 . S
C425 C421 1.388 . S
C425 C424 1.392 . S
C425 H437 0.929 . S
C426 C422 1.531 . S
C426 H438 0.960 . S
C426 H439 0.962 . S
C426 H440 0.960 . S
C427 C424 1.511 . S
C427 H441 0.961 . S
C427 H442 0.961 . S
C427 H443 0.961 . S
C428 C429 1.370 1_655 S
C428 C430 1.363 . S
C428 H444 0.931 . S
C429 C428 1.370 1_455 S
C429 C433 1.408 . S
C430 C428 1.363 . S
C430 C431 1.370 1_655 S
C430 C434 1.524 . S
C431 C423 1.503 . S
C431 C430 1.370 1_455 S
C431 C432 1.403 . S
C432 C431 1.403 . S
C432 C433 1.404 . S
C432 C435 1.539 . S
C433 C429 1.408 . S
C433 C432 1.404 . S
C433 H445 0.930 . S
C434 C430 1.524 . S
C434 H446 0.956 . S
C434 H447 0.961 . S
C434 H448 0.961 . S
C435 C432 1.539 . S
C435 H449 0.958 . S
C435 H450 0.961 . S
C435 H451 0.960 . S
H436 C420 0.931 . S
H437 C425 0.929 . S
H438 C426 0.960 . S
H439 C426 0.962 . S
H440 C426 0.960 . S
H441 C427 0.961 . S
H442 C427 0.961 . S
H443 C427 0.961 . S
H444 C428 0.931 . S
H445 C433 0.930 . S
H446 C434 0.956 . S
H447 C434 0.961 . S
H448 C434 0.961 . S
H449 C435 0.958 . S
H450 C435 0.961 . S
H451 C435 0.960 . S
C452 C453 1.391 . S
C452 C454 1.394 . S
C452 H468 0.931 . S
C453 C452 1.391 . S
C453 C457 1.376 1_545 S
C454 C452 1.394 . S
C454 C455 1.369 . S
C454 C458 1.531 . S
C455 C454 1.369 . S
C455 C456 1.410 1_545 S
C455 C463 1.503 . S
C456 C455 1.410 1_565 S
C456 C457 1.392 . S
C456 C459 1.511 . S
C457 C453 1.376 1_565 S
C457 C456 1.392 . S
C457 H469 0.929 . S
C458 C454 1.531 . S
C458 H470 0.960 . S
C458 H471 0.962 . S
C458 H472 0.960 . S
C459 C456 1.511 . S
C459 H473 0.961 . S
C459 H474 0.961 . S
C459 H475 0.961 1_565 S
C460 C461 1.355 1_565 S
C460 C462 1.363 . S
C460 H476 0.931 . S
C461 C460 1.355 1_545 S
C461 C465 1.425 . S
C462 C460 1.363 . S
C462 C463 1.370 1_565 S
C462 C466 1.524 . S
C463 C455 1.503 . S
C463 C462 1.370 1_545 S
C463 C464 1.403 . S
C464 C463 1.403 . S
C464 C465 1.404 . S
C464 C467 1.539 . S
C465 C461 1.425 . S
C465 C464 1.404 . S
C465 H477 0.930 . S
C466 C462 1.524 . S
C466 H478 0.956 . S
C466 H479 0.961 . S
C466 H480 0.961 . S
C467 C464 1.539 . S
C467 H481 0.958 . S
C467 H482 0.961 . S
C467 H483 0.960 . S
H468 C452 0.931 . S
H469 C457 0.929 . S
H470 C458 0.960 . S
H471 C458 0.962 . S
H472 C458 0.960 . S
H473 C459 0.961 . S
H474 C459 0.961 . S
H475 C459 0.961 1_545 S
H476 C460 0.931 . S
H477 C465 0.930 . S
H478 C466 0.956 . S
H479 C466 0.961 . S
H480 C466 0.961 . S
H481 C467 0.958 . S
H482 C467 0.961 . S
H483 C467 0.960 . S
C484 C485 1.391 . S
C484 C486 1.394 . S
C484 H500 0.931 . S
C485 C484 1.391 . S
C485 C489 1.376 . S
C486 C484 1.394 . S
C486 C487 1.369 . S
C486 C490 1.531 . S
C487 C486 1.369 . S
C487 C488 1.410 . S
C487 C495 1.503 . S
C488 C487 1.410 . S
C488 C489 1.392 . S
C488 C491 1.511 . S
C489 C485 1.376 . S
C489 C488 1.392 . S
C489 H501 0.929 . S
C490 C486 1.531 . S
C490 H502 0.960 . S
C490 H503 0.962 . S
C490 H504 0.960 . S
C491 C488 1.511 . S
C491 H505 0.961 . S
C491 H506 0.961 . S
C491 H507 0.961 . S
C492 C493 1.370 . S
C492 C494 1.363 . S
C492 H508 0.931 . S
C493 C492 1.370 . S
C493 C497 1.408 . S
C494 C492 1.363 . S
C494 C495 1.370 . S
C494 C498 1.524 . S
C495 C487 1.503 . S
C495 C494 1.370 . S
C495 C496 1.403 . S
C496 C495 1.403 . S
C496 C497 1.404 . S
C496 C499 1.539 . S
C497 C493 1.408 . S
C497 C496 1.404 . S
C497 H509 0.930 . S
C498 C494 1.524 . S
C498 H510 0.956 . S
C498 H511 0.961 . S
C498 H512 0.961 . S
C499 C496 1.539 . S
C499 H513 0.958 . S
C499 H514 0.961 . S
C499 H515 0.960 . S
H500 C484 0.931 . S
H501 C489 0.929 . S
H502 C490 0.960 . S
H503 C490 0.962 . S
H504 C490 0.960 . S
H505 C491 0.961 . S
H506 C491 0.961 . S
H507 C491 0.961 . S
H508 C492 0.931 . S
H509 C497 0.930 . S
H510 C498 0.956 . S
H511 C498 0.961 . S
H512 C498 0.961 . S
H513 C499 0.958 . S
H514 C499 0.961 . S
H515 C499 0.960 . S
C516 C517 1.391 . S
C516 C518 1.394 . S
C516 H532 0.931 . S
C517 C516 1.391 . S
C517 C521 1.376 . S
C518 C516 1.394 . S
C518 C519 1.369 . S
C518 C522 1.522 1_556 S
C519 C518 1.369 . S
C519 C520 1.410 . S
C519 C527 1.503 1_556 S
C520 C519 1.410 . S
C520 C521 1.392 . S
C520 C523 1.511 . S
C521 C517 1.376 . S
C521 C520 1.392 . S
C521 H533 0.929 . S
C522 C518 1.522 1_554 S
C522 H534 0.958 . S
C522 H535 0.978 . S
C522 H536 0.952 1_554 S
C523 C520 1.511 . S
C523 H537 0.961 . S
C523 H538 0.961 . S
C523 H539 0.961 . S
C524 C525 1.370 . S
C524 C526 1.363 . S
C524 H540 0.931 . S
C525 C524 1.370 . S
C525 C529 1.408 . S
C526 C524 1.363 . S
C526 C527 1.370 . S
C526 C530 1.524 . S
C527 C519 1.503 1_554 S
C527 C526 1.370 . S
C527 C528 1.403 1_554 S
C528 C527 1.403 1_556 S
C528 C529 1.404 1_556 S
C528 C531 1.539 . S
C529 C525 1.408 . S
C529 C528 1.404 1_554 S
C529 H541 0.930 . S
C530 C526 1.524 . S
C530 H542 0.956 . S
C530 H543 0.961 . S
C530 H544 0.961 . S
C531 C528 1.539 . S
C531 H545 0.958 . S
C531 H546 0.961 . S
C531 H547 0.960 . S
H532 C516 0.931 . S
H533 C521 0.929 . S
H534 C522 0.958 . S
H535 C522 0.978 . S
H536 C522 0.952 1_556 S
H537 C523 0.961 . S
H538 C523 0.961 . S
H539 C523 0.961 . S
H540 C524 0.931 . S
H541 C529 0.930 . S
H542 C530 0.956 . S
H543 C530 0.961 . S
H544 C530 0.961 . S
H545 C531 0.958 . S
H546 C531 0.961 . S
H547 C531 0.960 . S
C548 C549 1.391 . S
C548 C550 1.394 . S
C548 H564 0.931 . S
C549 C548 1.391 . S
C549 C553 1.376 . S
C550 C548 1.394 . S
C550 C551 1.369 . S
C550 C554 1.531 . S
C551 C550 1.369 . S
C551 C552 1.410 . S
C551 C559 1.503 . S
C552 C551 1.410 . S
C552 C553 1.392 . S
C552 C555 1.511 . S
C553 C549 1.376 . S
C553 C552 1.392 . S
C553 H565 0.929 . S
C554 C550 1.531 . S
C554 H566 0.960 . S
C554 H567 0.962 . S
C554 H568 0.960 . S
C555 C552 1.511 . S
C555 H569 0.961 . S
C555 H570 0.961 . S
C555 H571 0.961 . S
C556 C557 1.370 . S
C556 C558 1.363 . S
C556 H572 0.931 . S
C557 C556 1.370 . S
C557 C561 1.408 . S
C558 C556 1.363 . S
C558 C559 1.370 . S
C558 C562 1.524 . S
C559 C551 1.503 . S
C559 C558 1.370 . S
C559 C560 1.403 . S
C560 C559 1.403 . S
C560 C561 1.404 . S
C560 C563 1.539 . S
C561 C557 1.408 . S
C561 C560 1.404 . S
C561 H573 0.930 . S
C562 C558 1.524 . S
C562 H574 0.956 . S
C562 H575 0.961 . S
C562 H576 0.961 . S
C563 C560 1.539 . S
C563 H577 0.958 . S
C563 H578 0.961 . S
C563 H579 0.960 . S
H564 C548 0.931 . S
H565 C553 0.929 . S
H566 C554 0.960 . S
H567 C554 0.962 . S
H568 C554 0.960 . S
H569 C555 0.961 . S
H570 C555 0.961 . S
H571 C555 0.961 . S
H572 C556 0.931 . S
H573 C561 0.930 . S
H574 C562 0.956 . S
H575 C562 0.961 . S
H576 C562 0.961 . S
H577 C563 0.958 . S
H578 C563 0.961 . S
H579 C563 0.960 . S
C580 C581 1.391 . S
C580 C582 1.394 . S
C580 H596 0.931 . S
C581 C580 1.391 . S
C581 C585 1.376 . S
C582 C580 1.394 . S
C582 C583 1.369 . S
C582 C586 1.531 . S
C583 C582 1.369 . S
C583 C584 1.410 . S
C583 C591 1.503 . S
C584 C583 1.410 . S
C584 C585 1.392 . S
C584 C587 1.511 . S
C585 C581 1.376 . S
C585 C584 1.392 . S
C585 H597 0.929 . S
C586 C582 1.531 . S
C586 H598 0.960 . S
C586 H599 0.962 . S
C586 H600 0.960 . S
C587 C584 1.511 . S
C587 H601 0.961 . S
C587 H602 0.961 . S
C587 H603 0.961 . S
C588 C589 1.370 . S
C588 C590 1.363 . S
C588 H604 0.931 . S
C589 C588 1.370 . S
C589 C593 1.408 . S
C590 C588 1.363 . S
C590 C591 1.370 . S
C590 C594 1.524 . S
C591 C583 1.503 . S
C591 C590 1.370 . S
C591 C592 1.403 . S
C592 C591 1.403 . S
C592 C593 1.404 . S
C592 C595 1.539 . S
C593 C589 1.408 . S
C593 C592 1.404 . S
C593 H605 0.930 . S
C594 C590 1.524 . S
C594 H606 0.956 . S
C594 H607 0.961 . S
C594 H608 0.961 . S
C595 C592 1.539 . S
C595 H609 0.958 . S
C595 H610 0.961 . S
C595 H611 0.960 . S
H596 C580 0.931 . S
H597 C585 0.929 . S
H598 C586 0.960 . S
H599 C586 0.962 . S
H600 C586 0.960 . S
H601 C587 0.961 . S
H602 C587 0.961 . S
H603 C587 0.961 . S
H604 C588 0.931 . S
H605 C593 0.930 . S
H606 C594 0.956 . S
H607 C594 0.961 . S
H608 C594 0.961 . S
H609 C595 0.958 . S
H610 C595 0.961 . S
H611 C595 0.960 . S
C612 C613 1.391 . S
C612 C614 1.394 . S
C612 H628 0.931 . S
C613 C612 1.391 . S
C613 C617 1.376 . S
C614 C612 1.394 . S
C614 C615 1.369 . S
C614 C618 1.531 . S
C615 C614 1.369 . S
C615 C616 1.412 . S
C615 C623 1.503 1_554 S
C616 C615 1.412 . S
C616 C617 1.402 . S
C616 C619 1.499 1_554 S
C617 C613 1.376 . S
C617 C616 1.402 . S
C617 H629 0.929 . S
C618 C614 1.531 . S
C618 H630 0.960 . S
C618 H631 0.962 . S
C618 H632 0.960 . S
C619 C616 1.499 1_556 S
C619 H633 0.961 . S
C619 H634 0.961 . S
C619 H635 0.961 . S
C620 C621 1.370 . S
C620 C622 1.363 . S
C620 H636 0.931 . S
C621 C620 1.370 . S
C621 C625 1.408 . S
C622 C620 1.363 . S
C622 C623 1.370 . S
C622 C626 1.524 1_556 S
C623 C615 1.503 1_556 S
C623 C622 1.370 . S
C623 C624 1.403 . S
C624 C623 1.403 . S
C624 C625 1.404 . S
C624 C627 1.539 . S
C625 C621 1.408 . S
C625 C624 1.404 . S
C625 H637 0.930 . S
C626 C622 1.524 1_554 S
C626 H638 0.956 . S
C626 H639 0.961 . S
C626 H640 0.961 . S
C627 C624 1.539 . S
C627 H641 0.958 . S
C627 H642 0.961 . S
C627 H643 0.960 . S
H628 C612 0.931 . S
H629 C617 0.929 . S
H630 C618 0.960 . S
H631 C618 0.962 . S
H632 C618 0.960 . S
H633 C619 0.961 . S
H634 C619 0.961 . S
H635 C619 0.961 . S
H636 C620 0.931 . S
H637 C625 0.930 . S
H638 C626 0.956 . S
H639 C626 0.961 . S
H640 C626 0.961 . S
H641 C627 0.958 . S
H642 C627 0.961 . S
H643 C627 0.960 . S
C644 C645 1.391 . S
C644 C646 1.394 . S
C644 H660 0.931 . S
C645 C644 1.391 . S
C645 C649 1.376 . S
C646 C644 1.394 . S
C646 C647 1.369 . S
C646 C650 1.531 . S
C647 C646 1.369 . S
C647 C648 1.410 . S
C647 C655 1.503 . S
C648 C647 1.410 . S
C648 C649 1.392 . S
C648 C651 1.511 . S
C649 C645 1.376 . S
C649 C648 1.392 . S
C649 H661 0.929 . S
C650 C646 1.531 . S
C650 H662 0.960 . S
C650 H663 0.962 . S
C650 H664 0.960 . S
C651 C648 1.511 . S
C651 H665 0.961 . S
C651 H666 0.961 . S
C651 H667 0.961 . S
C652 C653 1.370 . S
C652 C654 1.363 . S
C652 H668 0.931 . S
C653 C652 1.370 . S
C653 C657 1.408 . S
C654 C652 1.363 . S
C654 C655 1.370 . S
C654 C658 1.524 . S
C655 C647 1.503 . S
C655 C654 1.370 . S
C655 C656 1.403 . S
C656 C655 1.403 . S
C656 C657 1.404 . S
C656 C659 1.539 . S
C657 C653 1.408 . S
C657 C656 1.404 . S
C657 H669 0.930 . S
C658 C654 1.524 . S
C658 H670 0.956 . S
C658 H671 0.961 . S
C658 H672 0.961 . S
C659 C656 1.539 . S
C659 H673 0.958 . S
C659 H674 0.961 . S
C659 H675 0.960 . S
H660 C644 0.931 . S
H661 C649 0.929 . S
H662 C650 0.960 . S
H663 C650 0.962 . S
H664 C650 0.960 . S
H665 C651 0.961 . S
H666 C651 0.961 . S
H667 C651 0.961 . S
H668 C652 0.931 . S
H669 C657 0.930 . S
H670 C658 0.956 . S
H671 C658 0.961 . S
H672 C658 0.961 . S
H673 C659 0.958 . S
H674 C659 0.961 . S
H675 C659 0.960 . S
C676 C677 1.391 . S
C676 C678 1.394 . S
C676 H692 0.931 . S
C677 C676 1.391 . S
C677 C681 1.376 . S
C678 C676 1.394 . S
C678 C679 1.369 . S
C678 C682 1.531 . S
C679 C678 1.369 . S
C679 C680 1.410 . S
C679 C687 1.503 . S
C680 C679 1.410 . S
C680 C681 1.392 . S
C680 C683 1.511 . S
C681 C677 1.376 . S
C681 C680 1.392 . S
C681 H693 0.929 . S
C682 C678 1.531 . S
C682 H694 0.960 . S
C682 H695 0.962 . S
C682 H696 0.960 . S
C683 C680 1.511 . S
C683 H697 0.961 . S
C683 H698 0.961 . S
C683 H699 0.961 . S
C684 C685 1.370 . S
C684 C686 1.363 . S
C684 H700 0.931 . S
C685 C684 1.370 . S
C685 C689 1.408 . S
C686 C684 1.363 . S
C686 C687 1.370 . S
C686 C690 1.524 . S
C687 C679 1.503 . S
C687 C686 1.370 . S
C687 C688 1.403 . S
C688 C687 1.403 . S
C688 C689 1.404 . S
C688 C691 1.539 . S
C689 C685 1.408 . S
C689 C688 1.404 . S
C689 H701 0.930 . S
C690 C686 1.524 . S
C690 H702 0.956 . S
C690 H703 0.961 . S
C690 H704 0.961 . S
C691 C688 1.539 . S
C691 H705 0.958 . S
C691 H706 0.961 . S
C691 H707 0.960 . S
H692 C676 0.931 . S
H693 C681 0.929 . S
H694 C682 0.960 . S
H695 C682 0.962 . S
H696 C682 0.960 . S
H697 C683 0.961 . S
H698 C683 0.961 . S
H699 C683 0.961 . S
H700 C684 0.931 . S
H701 C689 0.930 . S
H702 C690 0.956 . S
H703 C690 0.961 . S
H704 C690 0.961 . S
H705 C691 0.958 . S
H706 C691 0.961 . S
H707 C691 0.960 . S
C133 C40 1.556 . S
C141 C7 1.534 . S
C165 C18 1.558 . S
C173 C51 1.544 . S
C197 C62 1.532 . S
C205 C29 1.555 . S
C229 C73 1.588 . S
C237 C106 1.541 . S
C261 C117 1.570 . S
C269 C84 1.538 . S
C293 C95 1.571 1_655 S
C301 C128 1.529 . S
C325 C126 1.314 1_455 S
C333 C5 1.273 . S
C357 C16 1.329 . S
C365 C71 1.324 1_545 S
C389 C27 1.332 . S
C397 C82 1.275 . S
C421 C93 1.326 . S
C429 C38 1.325 1_455 S
C453 C49 1.356 1_545 S
C461 C104 1.290 . S
C485 C115 1.295 . S
C493 C60 1.270 . S
C517 C118 1.599 . S
C525 C8 1.628 . S
C549 C129 1.598 . S
C557 C19 1.628 . S
C581 C30 1.629 . S
C589 C74 1.614 . S
C613 C41 1.644 . S
C621 C85 1.622 . S
C645 C52 1.605 . S
C653 C96 1.631 . S
C677 C63 1.604 . S
C685 C107 1.631 . S
