# Generated by pormake.
# Topology mon, (4)-cn, num edge types: 1
# Building blocks:
#     Node 0, Type 0, BuildingBlock: ICAMEG_clean_sbu_1, # of connection points: 4
#     Node 1, Type 0, BuildingBlock: ICAMEG_clean_sbu_1, # of connection points: 4
#     Node 2, Type 0, BuildingBlock: ICAMEG_clean_sbu_1, # of connection points: 4
#     Node 3, Type 0, BuildingBlock: ICAMEG_clean_sbu_1, # of connection points: 4
#     Node 4, Type 0, BuildingBlock: ICAMEG_clean_sbu_1, # of connection points: 4
#     Node 5, Type 0, BuildingBlock: ICAMEG_clean_sbu_1, # of connection points: 4
#     Node 6, Type 0, BuildingBlock: ICAMEG_clean_sbu_1, # of connection points: 4
#     Node 7, Type 0, BuildingBlock: ICAMEG_clean_sbu_1, # of connection points: 4
#     Node 8, Type 0, BuildingBlock: ICAMEG_clean_sbu_1, # of connection points: 4
#     Node 9, Type 0, BuildingBlock: ICAMEG_clean_sbu_1, # of connection points: 4
#     Node 10, Type 0, BuildingBlock: ICAMEG_clean_sbu_1, # of connection points: 4
#     Node 11, Type 0, BuildingBlock: ICAMEG_clean_sbu_1, # of connection points: 4
#     Node 12, Type 0, BuildingBlock: ICAMEG_clean_sbu_1, # of connection points: 4
#     Node 13, Type 0, BuildingBlock: ICAMEG_clean_sbu_1, # of connection points: 4
#     Node 14, Type 0, BuildingBlock: ICAMEG_clean_sbu_1, # of connection points: 4
#     Node 15, Type 0, BuildingBlock: ICAMEG_clean_sbu_1, # of connection points: 4
#     Edge 16, Type (0, 0), BuildingBlock: ZUJKAS_clean_linker_0, # of connection points: 2
#     Edge 17, Type (0, 0), BuildingBlock: ZUJKAS_clean_linker_0, # of connection points: 2
#     Edge 18, Type (0, 0), BuildingBlock: ZUJKAS_clean_linker_0, # of connection points: 2
#     Edge 19, Type (0, 0), BuildingBlock: ZUJKAS_clean_linker_0, # of connection points: 2
#     Edge 20, Type (0, 0), BuildingBlock: ZUJKAS_clean_linker_0, # of connection points: 2
#     Edge 21, Type (0, 0), BuildingBlock: ZUJKAS_clean_linker_0, # of connection points: 2
#     Edge 22, Type (0, 0), BuildingBlock: ZUJKAS_clean_linker_0, # of connection points: 2
#     Edge 23, Type (0, 0), BuildingBlock: ZUJKAS_clean_linker_0, # of connection points: 2
#     Edge 24, Type (0, 0), BuildingBlock: ZUJKAS_clean_linker_0, # of connection points: 2
#     Edge 25, Type (0, 0), BuildingBlock: ZUJKAS_clean_linker_0, # of connection points: 2
#     Edge 26, Type (0, 0), BuildingBlock: ZUJKAS_clean_linker_0, # of connection points: 2
#     Edge 27, Type (0, 0), BuildingBlock: ZUJKAS_clean_linker_0, # of connection points: 2
#     Edge 28, Type (0, 0), BuildingBlock: ZUJKAS_clean_linker_0, # of connection points: 2
#     Edge 29, Type (0, 0), BuildingBlock: ZUJKAS_clean_linker_0, # of connection points: 2
#     Edge 30, Type (0, 0), BuildingBlock: ZUJKAS_clean_linker_0, # of connection points: 2
#     Edge 31, Type (0, 0), BuildingBlock: ZUJKAS_clean_linker_0, # of connection points: 2
#     Edge 32, Type (0, 0), BuildingBlock: ZUJKAS_clean_linker_0, # of connection points: 2
#     Edge 33, Type (0, 0), BuildingBlock: ZUJKAS_clean_linker_0, # of connection points: 2
#     Edge 34, Type (0, 0), BuildingBlock: ZUJKAS_clean_linker_0, # of connection points: 2
#     Edge 35, Type (0, 0), BuildingBlock: ZUJKAS_clean_linker_0, # of connection points: 2
#     Edge 36, Type (0, 0), BuildingBlock: ZUJKAS_clean_linker_0, # of connection points: 2
#     Edge 37, Type (0, 0), BuildingBlock: ZUJKAS_clean_linker_0, # of connection points: 2
#     Edge 38, Type (0, 0), BuildingBlock: ZUJKAS_clean_linker_0, # of connection points: 2
#     Edge 39, Type (0, 0), BuildingBlock: ZUJKAS_clean_linker_0, # of connection points: 2
#     Edge 40, Type (0, 0), BuildingBlock: ZUJKAS_clean_linker_0, # of connection points: 2
#     Edge 41, Type (0, 0), BuildingBlock: ZUJKAS_clean_linker_0, # of connection points: 2
#     Edge 42, Type (0, 0), BuildingBlock: ZUJKAS_clean_linker_0, # of connection points: 2
#     Edge 43, Type (0, 0), BuildingBlock: ZUJKAS_clean_linker_0, # of connection points: 2
#     Edge 44, Type (0, 0), BuildingBlock: ZUJKAS_clean_linker_0, # of connection points: 2
#     Edge 45, Type (0, 0), BuildingBlock: ZUJKAS_clean_linker_0, # of connection points: 2
#     Edge 46, Type (0, 0), BuildingBlock: ZUJKAS_clean_linker_0, # of connection points: 2
#     Edge 47, Type (0, 0), BuildingBlock: ZUJKAS_clean_linker_0, # of connection points: 2
# Relax obj value: 0.220
# Max RMSD: 0.232
# Mean RMSD: 0.232
data_MOF--net-mon--node1-ICAMEG_clean_sbu_1--edge1-ZUJKAS_clean_linker_0
_symmetry_space_group_name_H-M    P1
_symmetry_Int_Tables_number       1
_symmetry_cell_setting            triclinic
loop_
_symmetry_equiv_pos_as_xyz
'x, y, z'
_cell_length_a     44.16133
_cell_length_b     44.181084
_cell_length_c     121.91773
_cell_angle_alpha  89.971599
_cell_angle_beta   89.978043
_cell_angle_gamma 90.020449
loop_
_atom_site_label
_atom_site_type_symbol
_atom_site_fract_x
_atom_site_fract_y
_atom_site_fract_z
_atom_type_partial_charge
Co0 Co 0.99658 0.98357 0.57742 0.0
Co1 Co 0.01703 0.03024 0.59832 0.0
O2 O 0.01317 0.02231 0.58251 0.0
C3 C 0.04571 0.99902 0.56083 0.0
O4 O 0.05846 0.01852 0.56749 0.0
C5 C 0.99239 0.08952 0.58987 0.0
O6 O 0.97043 0.0756 0.58465 0.0
O7 O 0.97253 0.02369 0.60027 0.0
O8 O 0.96922 0.98099 0.59051 0.0
H9 H 0.99744 0.01043 0.6383 0.0
H10 H 0.99563 0.03725 0.56279 0.0
O11 O 0.02245 0.98409 0.56384 0.0
H12 H 0.88908 0.00511 0.56597 0.0
H13 H 0.95649 0.90956 0.54952 0.0
H14 H 0.98287 0.92527 0.5884 0.0
H15 H 0.92941 0.97701 0.57553 0.0
H16 H 0.97627 0.95875 0.55582 0.0
O17 O 0.01113 0.07458 0.59566 0.0
H18 H 0.99394 1.00034 0.61846 0.0
H19 H 0.04698 0.07838 0.61168 0.0
H20 H 0.96289 0.8758 0.58247 0.0
H21 H 0.95606 0.0658 0.55299 0.0
H22 H 0.94955 0.86769 0.5629 0.0
H23 H 0.90231 0.0498 0.55456 0.0
O24 O 0.02914 0.96182 0.58559 0.0
H25 H 0.10983 0.07334 0.5802 0.0
H26 H 0.07221 0.00715 0.60979 0.0
H27 H 0.12718 0.01371 0.60729 0.0
H28 H 0.14635 0.0471 0.59243 0.0
H29 H 0.05501 0.06574 0.58287 0.0
H30 H 0.05087 0.08941 0.63144 0.0
H31 H 0.02608 0.05524 0.64491 0.0
O32 O 0.02439 0.98631 0.60155 0.0
C33 C 0.9588 0.99925 0.59769 0.0
C34 C 0.00839 0.02545 0.63251 0.0
C35 C 0.03835 0.0698 0.62866 0.0
N36 N 0.02035 0.03865 0.6139 0.0
C37 C 0.00654 0.01983 0.62126 0.0
C38 C 0.03599 0.06347 0.61747 0.0
C39 C 0.02444 0.05061 0.63622 0.0
C40 C 0.97237 0.0299 0.56341 0.0
N41 N 0.96495 0.00525 0.56963 0.0
C42 C 0.95002 0.04627 0.55789 0.0
C43 C 0.91987 0.03731 0.55879 0.0
C44 C 0.91243 0.01225 0.56519 0.0
C45 C 0.93538 0.99645 0.57061 0.0
C46 C 0.9622 0.91282 0.55808 0.0
C47 C 0.97702 0.92197 0.57988 0.0
C48 C 0.9735 0.9406 0.56169 0.0
N49 N 0.98061 0.94495 0.57249 0.0
C50 C 0.96576 0.89388 0.57657 0.0
C51 C 0.9583 0.88934 0.56558 0.0
C52 C 0.03395 0.964 0.59588 0.0
C53 C 0.10176 0.05873 0.58671 0.0
C54 C 0.08032 0.02146 0.60323 0.0
C55 C 0.1115 0.02521 0.60189 0.0
C56 C 0.12224 0.04398 0.59356 0.0
N57 N 0.06035 0.03591 0.59644 0.0
C58 C 0.07073 0.05441 0.58828 0.0
Co59 Co 0.28343 0.73551 0.82816 0.0
Co60 Co 0.23277 0.75125 0.84847 0.0
O61 O 0.24252 0.74789 0.83273 0.0
C62 C 0.26484 0.78281 0.81135 0.0
O63 O 0.24425 0.79419 0.81792 0.0
C64 C 0.17573 0.72644 0.83791 0.0
O65 O 0.19133 0.71425 0.8299 0.0
O66 O 0.24406 0.70779 0.85064 0.0
O67 O 0.28783 0.70904 0.84143 0.0
H68 H 0.25206 0.73464 0.88866 0.0
H69 H 0.23285 0.72841 0.81232 0.0
O70 O 0.28134 0.76079 0.81446 0.0
H71 H 0.27478 0.62589 0.81719 0.0
H72 H 0.36391 0.703 0.80131 0.0
H73 H 0.34197 0.72894 0.83983 0.0
H74 H 0.29684 0.66928 0.82705 0.0
H75 H 0.31227 0.7173 0.80696 0.0
O76 O 0.18925 0.73994 0.84574 0.0
H77 H 0.26363 0.73179 0.86891 0.0
H78 H 0.18115 0.77668 0.86139 0.0
H79 H 0.39387 0.71451 0.83454 0.0
H80 H 0.21042 0.68573 0.80216 0.0
H81 H 0.40513 0.70141 0.81515 0.0
H82 H 0.23133 0.63398 0.8046 0.0
O83 O 0.30081 0.77038 0.83637 0.0
H84 H 0.18123 0.83808 0.82941 0.0
H85 H 0.24834 0.80898 0.85995 0.0
H86 H 0.23569 0.86274 0.85717 0.0
H87 H 0.20178 0.87761 0.84183 0.0
H88 H 0.19489 0.78465 0.83237 0.0
H89 H 0.16858 0.77977 0.88106 0.0
H90 H 0.20422 0.75876 0.89485 0.0
O91 O 0.27537 0.76383 0.85205 0.0
C92 C 0.27009 0.6968 0.8484 0.0
C93 C 0.23635 0.74389 0.88273 0.0
C94 C 0.18948 0.76918 0.87846 0.0
N95 N 0.22311 0.75405 0.86398 0.0
C96 C 0.24279 0.74237 0.87153 0.0
C97 C 0.19667 0.76725 0.86733 0.0
C98 C 0.2095 0.75741 0.8862 0.0
C99 C 0.24232 0.70606 0.81334 0.0
N100 N 0.26621 0.70145 0.82025 0.0
C101 C 0.22941 0.68193 0.8076 0.0
C102 C 0.24112 0.65289 0.80899 0.0
C103 C 0.26547 0.64833 0.81606 0.0
C104 C 0.27778 0.673 0.82166 0.0
C105 C 0.35928 0.70861 0.80979 0.0
C106 C 0.34663 0.72314 0.83139 0.0
C107 C 0.33009 0.7168 0.81304 0.0
N108 N 0.32403 0.72378 0.82374 0.0
C109 C 0.37609 0.71504 0.82844 0.0
C110 C 0.3824 0.70772 0.81756 0.0
C111 C 0.29731 0.77519 0.84661 0.0
C112 C 0.19597 0.83189 0.83614 0.0
C113 C 0.2338 0.81524 0.85319 0.0
C114 C 0.2266 0.84573 0.85169 0.0
C115 C 0.20754 0.85406 0.8431 0.0
N116 N 0.22235 0.79359 0.84633 0.0
C117 C 0.20367 0.80161 0.83789 0.0
Co118 Co 0.52794 0.02274 0.07859 0.0
Co119 Co 0.51393 0.96943 0.09817 0.0
O120 O 0.51688 0.98102 0.0826 0.0
C121 C 0.47936 0.00605 0.06219 0.0
O122 O 0.46557 0.98877 0.06938 0.0
C123 C 0.53823 0.91372 0.08648 0.0
O124 O 0.54571 0.92962 0.0778 0.0
O125 O 0.55692 0.98222 0.10049 0.0
O126 O 0.55396 0.02693 0.09196 0.0
H127 H 0.52964 0.98541 0.13858 0.0
H128 H 0.53678 0.97453 0.06198 0.0
O129 O 0.50313 0.0206 0.06484 0.0
H130 H 0.63806 0.01862 0.06783 0.0
H131 H 0.55816 0.10657 0.05276 0.0
H132 H 0.53214 0.08043 0.09094 0.0
H133 H 0.59384 0.03825 0.07789 0.0
H134 H 0.54559 0.05401 0.0578 0.0
O135 O 0.52727 0.92671 0.09493 0.0
H136 H 0.53186 0.99911 0.119 0.0
H137 H 0.49109 0.91532 0.11039 0.0
H138 H 0.54479 0.13323 0.08627 0.0
H139 H 0.58033 0.95451 0.05162 0.0
H140 H 0.55792 0.1466 0.06706 0.0
H141 H 0.63146 0.97652 0.05454 0.0
O142 O 0.49241 0.03811 0.08698 0.0
H143 H 0.4288 0.91734 0.07824 0.0
H144 H 0.45584 0.9808 0.11001 0.0
H145 H 0.40259 0.96622 0.10714 0.0
H146 H 0.38876 0.9341 0.0912 0.0
H147 H 0.48164 0.93291 0.08129 0.0
H148 H 0.48868 0.90062 0.12987 0.0
H149 H 0.50793 0.93584 0.14414 0.0
O150 O 0.49951 0.01107 0.10228 0.0
C151 C 0.56694 0.00885 0.09863 0.0
C152 C 0.52114 0.96988 0.13245 0.0
C153 C 0.49819 0.92229 0.12756 0.0
N154 N 0.51157 0.95809 0.11354 0.0
C155 C 0.52231 0.97753 0.12134 0.0
C156 C 0.49973 0.9307 0.11653 0.0
C157 C 0.50898 0.94206 0.13556 0.0
C158 C 0.5589 0.98437 0.06324 0.0
N159 N 0.5627 0.00748 0.07055 0.0
C160 C 0.5835 0.97288 0.05738 0.0
C161 C 0.61219 0.98521 0.05903 0.0
C162 C 0.61591 0.0088 0.06649 0.0
C163 C 0.59078 0.01972 0.07221 0.0
C164 C 0.55251 0.10103 0.06116 0.0
C165 C 0.53794 0.08601 0.08257 0.0
C166 C 0.54529 0.0713 0.06406 0.0
N167 N 0.53828 0.06408 0.07467 0.0
C168 C 0.54504 0.11598 0.07997 0.0
C169 C 0.55238 0.12347 0.06919 0.0
C170 C 0.48773 0.03338 0.09717 0.0
C171 C 0.43455 0.9312 0.08526 0.0
C172 C 0.45005 0.96697 0.10301 0.0
C173 C 0.41983 0.9587 0.10145 0.0
C174 C 0.4121 0.94066 0.09251 0.0
N175 N 0.47202 0.95748 0.09589 0.0
C176 C 0.46454 0.93992 0.08708 0.0
Co177 Co 0.24894 0.27321 0.32689 0.0
Co178 Co 0.30091 0.26021 0.34704 0.0
O179 O 0.2903 0.26237 0.33137 0.0
C180 C 0.26613 0.22275 0.31147 0.0
O181 O 0.28135 0.20907 0.31927 0.0
C182 C 0.3567 0.28484 0.3356 0.0
O183 O 0.34059 0.29347 0.32713 0.0
O184 O 0.28797 0.30322 0.349 0.0
O185 O 0.24401 0.30033 0.33996 0.0
H186 H 0.28263 0.27786 0.38722 0.0
H187 H 0.29827 0.28055 0.31059 0.0
O188 O 0.25211 0.24732 0.31343 0.0
H189 H 0.25419 0.38234 0.31497 0.0
H190 H 0.16693 0.3013 0.30002 0.0
H191 H 0.19054 0.279 0.33872 0.0
H192 H 0.23373 0.33904 0.32533 0.0
H193 H 0.2191 0.28892 0.30563 0.0
O194 O 0.34384 0.27326 0.34397 0.0
H195 H 0.27006 0.27915 0.36754 0.0
H196 H 0.35434 0.23803 0.35978 0.0
H197 H 0.13811 0.29151 0.33347 0.0
H198 H 0.31912 0.32315 0.29993 0.0
H199 H 0.12602 0.30278 0.314 0.0
H200 H 0.29714 0.37454 0.30212 0.0
O201 O 0.23284 0.23833 0.33548 0.0
H202 H 0.35421 0.17423 0.32807 0.0
H203 H 0.28858 0.20268 0.35912 0.0
H204 H 0.30315 0.1493 0.35665 0.0
H205 H 0.33635 0.13477 0.34107 0.0
H206 H 0.33862 0.22722 0.33071 0.0
H207 H 0.36789 0.23652 0.37939 0.0
H208 H 0.33186 0.25642 0.39327 0.0
O209 O 0.25902 0.24607 0.35094 0.0
C210 C 0.26161 0.31341 0.34677 0.0
C211 C 0.2985 0.26907 0.38126 0.0
C212 C 0.34637 0.24591 0.37686 0.0
N213 N 0.31137 0.2586 0.3625 0.0
C214 C 0.29149 0.26971 0.37009 0.0
C215 C 0.3386 0.24692 0.36576 0.0
C216 C 0.32613 0.25706 0.38464 0.0
C217 C 0.28842 0.30278 0.31153 0.0
N218 N 0.26489 0.30726 0.31862 0.0
C219 C 0.3004 0.32685 0.3055 0.0
C220 C 0.28809 0.35568 0.30674 0.0
C221 C 0.26402 0.36008 0.31396 0.0
C222 C 0.25264 0.33548 0.31986 0.0
C223 C 0.17192 0.29645 0.30854 0.0
C224 C 0.1855 0.28396 0.33023 0.0
C225 C 0.20141 0.28934 0.31176 0.0
N226 N 0.20792 0.28334 0.32251 0.0
C227 C 0.15575 0.29099 0.32731 0.0
C228 C 0.14898 0.29729 0.31638 0.0
C229 C 0.23706 0.234 0.34572 0.0
C230 C 0.33987 0.18029 0.33493 0.0
C231 C 0.30288 0.19657 0.35227 0.0
C232 C 0.31114 0.16629 0.35094 0.0
C233 C 0.32979 0.15816 0.34221 0.0
N234 N 0.31294 0.21821 0.34512 0.0
C235 C 0.33113 0.21036 0.33651 0.0
Co236 Co 0.00592 0.02028 0.42749 0.0
Co237 Co 0.02146 0.97261 0.40626 0.0
O238 O 0.01923 0.98044 0.42216 0.0
C239 C 0.05333 0.99962 0.44403 0.0
O240 O 0.06236 0.97736 0.43771 0.0
C241 C 0.99669 0.91458 0.41583 0.0
O242 O 0.98122 0.9297 0.4232 0.0
O243 O 0.97748 0.98239 0.40479 0.0
O244 O 0.97787 0.02503 0.41466 0.0
H245 H 1.00009 0.99517 0.3666 0.0
H246 H 1.00161 0.96676 0.44226 0.0
O247 O 0.03272 0.01775 0.44081 0.0
H248 H 0.89792 0.00746 0.44001 0.0
H249 H 0.97379 0.09676 0.45586 0.0
H250 H 0.99569 0.07956 0.41669 0.0
H251 H 0.93965 0.03188 0.42992 0.0
H252 H 0.98926 0.0463 0.44932 0.0
O253 O 0.01216 0.92858 0.40862 0.0
H254 H 0.99884 0.00469 0.38651 0.0
H255 H 0.04751 0.92336 0.39236 0.0
H256 H 0.98002 0.13031 0.42288 0.0
H257 H 0.96069 0.94199 0.45264 0.0
H258 H 0.96894 0.13917 0.4426 0.0
H259 H 0.90833 0.96226 0.45153 0.0
O260 O 0.03939 0.03977 0.41906 0.0
H261 H 0.11183 0.9224 0.4235 0.0
H262 H 0.07752 0.99178 0.39436 0.0
H263 H 0.13198 0.98104 0.39637 0.0
H264 H 0.14947 0.94603 0.411 0.0
H265 H 0.0576 0.9341 0.4213 0.0
H266 H 0.04908 0.91285 0.37251 0.0
H267 H 0.02535 0.94896 0.35947 0.0
O268 O 0.03197 0.01598 0.40311 0.0
C269 C 0.96565 0.00762 0.40757 0.0
C270 C 0.01055 0.97928 0.37219 0.0
C271 C 0.038 0.93306 0.37551 0.0
N272 N 0.02312 0.96464 0.39061 0.0
C273 C 0.00994 0.98456 0.38348 0.0
C274 C 0.03694 0.93908 0.38675 0.0
C275 C 0.0247 0.95334 0.3682 0.0
C276 C 0.97907 0.97607 0.44186 0.0
N277 N 0.97323 1.00101 0.43558 0.0
C278 C 0.95589 0.96178 0.4477 0.0
C279 C 0.92651 0.97312 0.44705 0.0
C280 C 0.92066 0.99845 0.44059 0.0
C281 C 0.9444 0.01214 0.43486 0.0
C282 C 0.97852 0.09318 0.44725 0.0
C283 C 0.99081 0.08318 0.42528 0.0
C284 C 0.98739 0.06466 0.44349 0.0
N285 N 0.99326 0.05992 0.43261 0.0
C286 C 0.98199 0.11199 0.42874 0.0
C287 C 0.9758 0.11696 0.4398 0.0
C288 C 0.04331 0.03754 0.40872 0.0
C289 C 0.1045 0.93768 0.41709 0.0
C290 C 0.08492 0.97675 0.40082 0.0
C291 C 0.11581 0.97064 0.40188 0.0
C292 C 0.1256 0.95097 0.41008 0.0
N293 N 0.06434 0.96366 0.40774 0.0
C294 C 0.07379 0.94433 0.41578 0.0
Co295 Co 0.24778 0.73729 0.67791 0.0
Co296 Co 0.29847 0.7529 0.65763 0.0
O297 O 0.28855 0.75016 0.67335 0.0
C298 C 0.26561 0.78522 0.69457 0.0
O299 O 0.28611 0.79674 0.68799 0.0
C300 C 0.35515 0.72755 0.66812 0.0
O301 O 0.33908 0.71215 0.67525 0.0
O302 O 0.28806 0.70908 0.65574 0.0
O303 O 0.24398 0.71035 0.66477 0.0
H304 H 0.28035 0.73399 0.61751 0.0
H305 H 0.29856 0.73155 0.69373 0.0
O306 O 0.24932 0.76301 0.69148 0.0
H307 H 0.25811 0.62823 0.68943 0.0
H308 H 0.16757 0.70408 0.70477 0.0
H309 H 0.18943 0.72955 0.66619 0.0
H310 H 0.23536 0.67091 0.67935 0.0
H311 H 0.21902 0.71916 0.69913 0.0
O312 O 0.34208 0.74286 0.66065 0.0
H313 H 0.26846 0.73179 0.63724 0.0
H314 H 0.34985 0.77874 0.64467 0.0
H315 H 0.13774 0.71431 0.67146 0.0
H316 H 0.32164 0.68961 0.7041 0.0
H317 H 0.12652 0.70143 0.69087 0.0
H318 H 0.30148 0.63745 0.70195 0.0
O319 O 0.22996 0.77153 0.66944 0.0
H320 H 0.34811 0.84164 0.67615 0.0
H321 H 0.28181 0.80975 0.64575 0.0
H322 H 0.29335 0.86388 0.6482 0.0
H323 H 0.32682 0.88016 0.66347 0.0
H324 H 0.33559 0.78777 0.67351 0.0
H325 H 0.36275 0.78121 0.62502 0.0
H326 H 0.3278 0.75884 0.61128 0.0
O327 O 0.2557 0.76434 0.65386 0.0
C328 C 0.26198 0.69805 0.6579 0.0
C329 C 0.29576 0.74383 0.62342 0.0
C330 C 0.34202 0.77029 0.62764 0.0
N331 N 0.30842 0.75511 0.64213 0.0
C332 C 0.28914 0.74267 0.63461 0.0
C333 C 0.33465 0.7687 0.63876 0.0
C334 C 0.32239 0.75776 0.61993 0.0
C335 C 0.28937 0.70903 0.69286 0.0
N336 N 0.26548 0.7038 0.686 0.0
C337 C 0.30266 0.68531 0.69871 0.0
C338 C 0.29138 0.65605 0.69748 0.0
C339 C 0.26707 0.65086 0.69045 0.0
C340 C 0.25435 0.67513 0.68473 0.0
C341 C 0.17219 0.70958 0.69628 0.0
C342 C 0.1848 0.72383 0.67464 0.0
C343 C 0.20127 0.71821 0.69303 0.0
N344 N 0.20732 0.72504 0.68231 0.0
C345 C 0.15545 0.71528 0.67758 0.0
C346 C 0.14917 0.70809 0.68848 0.0
C347 C 0.23347 0.77563 0.65915 0.0
C348 C 0.33352 0.83484 0.66946 0.0
C349 C 0.29616 0.81662 0.65248 0.0
C350 C 0.30273 0.84732 0.65379 0.0
C351 C 0.32154 0.85644 0.66235 0.0
N352 N 0.30797 0.79554 0.65949 0.0
C353 C 0.32645 0.80433 0.66789 0.0
Co354 Co 0.52791 0.98392 0.92966 0.0
Co355 Co 0.51418 0.03314 0.90874 0.0
O356 O 0.515 0.0241 0.92456 0.0
C357 C 0.47896 0.00336 0.94579 0.0
O358 O 0.47083 0.02632 0.93964 0.0
C359 C 0.53824 0.09022 0.91916 0.0
O360 O 0.55392 0.07432 0.92626 0.0
O361 O 0.55831 0.02358 0.90768 0.0
O362 O 0.55713 0.98019 0.91712 0.0
H363 H 0.53902 0.01377 0.86912 0.0
H364 H 0.53079 0.03639 0.94495 0.0
O365 O 0.49982 0.9854 0.94266 0.0
H366 H 0.6347 0.99597 0.94351 0.0
H367 H 0.55748 0.90537 0.95767 0.0
H368 H 0.53925 0.92549 0.91844 0.0
H369 H 0.59392 0.97218 0.93276 0.0
H370 H 0.5425 0.95628 0.95142 0.0
O371 O 0.52302 0.07698 0.9117 0.0
H372 H 0.53859 1.00268 0.88893 0.0
H373 H 0.48935 0.08351 0.89506 0.0
H374 H 0.55446 0.87432 0.92432 0.0
H375 H 0.57075 0.06053 0.95597 0.0
H376 H 0.56369 0.86398 0.94407 0.0
H377 H 0.62322 0.0404 0.95528 0.0
O378 O 0.49527 0.96508 0.92067 0.0
H379 H 0.42204 0.08173 0.92537 0.0
H380 H 0.45934 0.01475 0.89599 0.0
H381 H 0.40468 0.02515 0.89745 0.0
H382 H 0.38568 0.05895 0.9122 0.0
H383 H 0.47649 0.07039 0.9237 0.0
H384 H 0.48946 0.09558 0.87531 0.0
H385 H 0.51433 0.06052 0.86219 0.0
O386 O 0.50411 0.99 0.90503 0.0
C387 C 0.56992 0.99813 0.91034 0.0
C388 C 0.52808 0.02921 0.87476 0.0
C389 C 0.5003 0.07514 0.87823 0.0
N390 N 0.51392 0.04238 0.89316 0.0
C391 C 0.52773 0.02304 0.88599 0.0
C392 C 0.50041 0.06824 0.88941 0.0
C393 C 0.51424 0.05545 0.87087 0.0
C394 C 0.55337 0.02713 0.94473 0.0
N395 N 0.5598 1.00261 0.93832 0.0
C396 C 0.57601 0.04106 0.95093 0.0
C397 C 0.60545 0.0298 0.95052 0.0
C398 C 0.61191 0.0049 0.94392 0.0
C399 C 0.5887 0.99157 0.93782 0.0
C400 C 0.55356 0.9096 0.94904 0.0
C401 C 0.54334 0.92123 0.92704 0.0
C402 C 0.54499 0.93837 0.94545 0.0
N403 N 0.54016 0.94393 0.93456 0.0
C404 C 0.5519 0.89218 0.93032 0.0
C405 C 0.55705 0.88639 0.9414 0.0
C406 C 0.49225 0.96807 0.91032 0.0
C407 C 0.43003 0.06697 0.9189 0.0
C408 C 0.45127 0.02924 0.9025 0.0
C409 C 0.42028 0.03517 0.90325 0.0
C410 C 0.40964 0.05416 0.91152 0.0
N411 N 0.47115 0.04184 0.90979 0.0
C412 C 0.46087 0.06052 0.9179 0.0
Co413 Co 0.27659 0.26635 0.17974 0.0
Co414 Co 0.23307 0.25268 0.15721 0.0
O415 O 0.23858 0.25287 0.17315 0.0
C416 C 0.28921 0.21813 0.19609 0.0
O417 O 0.31538 0.21407 0.19118 0.0
C418 C 0.17508 0.27831 0.16604 0.0
O419 O 0.19057 0.29554 0.17277 0.0
O420 O 0.2431 0.29673 0.15656 0.0
O421 O 0.2834 0.2968 0.16775 0.0
H422 H 0.26096 0.2779 0.11829 0.0
H423 H 0.22098 0.26522 0.19336 0.0
O424 O 0.27004 0.23667 0.19206 0.0
H425 H 0.25549 0.37135 0.19402 0.0
H426 H 0.34474 0.29759 0.21095 0.0
H427 H 0.338 0.27908 0.17114 0.0
H428 H 0.2842 0.33273 0.18381 0.0
H429 H 0.29657 0.28139 0.20258 0.0
O430 O 0.18881 0.2615 0.15917 0.0
H431 H 0.26801 0.27683 0.13834 0.0
H432 H 0.18512 0.22917 0.14218 0.0
H433 H 0.3866 0.29533 0.17917 0.0
H434 H 0.19186 0.30303 0.20384 0.0
H435 H 0.39019 0.30469 0.19922 0.0
H436 H 0.20902 0.35656 0.20418 0.0
O437 O 0.29883 0.23513 0.17101 0.0
H438 H 0.1825 0.15999 0.17262 0.0
H439 H 0.25337 0.19838 0.14461 0.0
H440 H 0.24285 0.14366 0.14565 0.0
H441 H 0.20708 0.12414 0.1597 0.0
H442 H 0.19394 0.21453 0.17138 0.0
H443 H 0.17708 0.22991 0.12217 0.0
H444 H 0.21521 0.25432 0.11008 0.0
O445 O 0.27678 0.2427 0.1547 0.0
C446 C 0.2674 0.3089 0.16019 0.0
C447 C 0.24419 0.26716 0.12347 0.0
C448 C 0.1971 0.24027 0.12566 0.0
N449 N 0.22704 0.25292 0.14144 0.0
C450 C 0.24808 0.26645 0.13484 0.0
C451 C 0.20173 0.24002 0.13699 0.0
C452 C 0.21851 0.25395 0.11887 0.0
C453 C 0.22881 0.28839 0.19357 0.0
N454 N 0.25435 0.29669 0.188 0.0
C455 C 0.21213 0.30974 0.19947 0.0
C456 C 0.22173 0.33978 0.19964 0.0
C457 C 0.24778 0.34809 0.19393 0.0
C458 C 0.26387 0.32614 0.18811 0.0
C459 C 0.34347 0.29359 0.20221 0.0
C460 C 0.33937 0.28312 0.17987 0.0
C461 C 0.31625 0.28441 0.19742 0.0
N462 N 0.31446 0.27929 0.18637 0.0
C463 C 0.36695 0.29232 0.18437 0.0
C464 C 0.36895 0.29757 0.19562 0.0
C465 C 0.29796 0.23178 0.16061 0.0
C466 C 0.19806 0.16823 0.16644 0.0
C467 C 0.23787 0.19007 0.15078 0.0
C468 C 0.23196 0.15906 0.15131 0.0
C469 C 0.21188 0.14812 0.1592 0.0
N470 N 0.22414 0.20968 0.15789 0.0
C471 C 0.20455 0.19911 0.16568 0.0
Co472 Co 0.74501 0.24196 0.17793 0.0
Co473 Co 0.79517 0.25597 0.15724 0.0
O474 O 0.78554 0.25462 0.17303 0.0
C475 C 0.76442 0.29028 0.19429 0.0
O476 O 0.78727 0.29875 0.18814 0.0
C477 C 0.85214 0.23204 0.16796 0.0
O478 O 0.83634 0.21891 0.17574 0.0
O479 O 0.78487 0.21209 0.1559 0.0
O480 O 0.74134 0.21325 0.16527 0.0
H481 H 0.77642 0.23321 0.11743 0.0
H482 H 0.79668 0.23817 0.19358 0.0
O483 O 0.74641 0.26957 0.19106 0.0
H484 H 0.75566 0.13462 0.19134 0.0
H485 H 0.66538 0.2121 0.20553 0.0
H486 H 0.68671 0.2316 0.16646 0.0
H487 H 0.73273 0.17594 0.18062 0.0
H488 H 0.71663 0.22679 0.19953 0.0
O489 O 0.83883 0.24602 0.1602 0.0
H490 H 0.76481 0.23295 0.13721 0.0
H491 H 0.8463 0.28063 0.14387 0.0
H492 H 0.63521 0.21673 0.1721 0.0
H493 H 0.81992 0.19768 0.2046 0.0
H494 H 0.62426 0.20685 0.19176 0.0
H495 H 0.79949 0.14539 0.2035 0.0
O496 O 0.72659 0.27493 0.16897 0.0
H497 H 0.84508 0.34631 0.17462 0.0
H498 H 0.77818 0.31174 0.14478 0.0
H499 H 0.78965 0.36608 0.14659 0.0
H500 H 0.82342 0.3837 0.16158 0.0
H501 H 0.83267 0.29222 0.17259 0.0
H502 H 0.85889 0.28118 0.12417 0.0
H503 H 0.82377 0.25745 0.11079 0.0
O504 O 0.75232 0.267 0.15344 0.0
C505 C 0.75926 0.20062 0.15845 0.0
C506 C 0.79189 0.24366 0.12318 0.0
C507 C 0.83819 0.27055 0.12696 0.0
N508 N 0.80481 0.25681 0.1417 0.0
C509 C 0.78543 0.24361 0.13439 0.0
C510 C 0.83099 0.27006 0.13812 0.0
C511 C 0.81847 0.25724 0.11946 0.0
C512 C 0.78729 0.21567 0.19317 0.0
N513 N 0.76312 0.20963 0.18654 0.0
C514 C 0.80072 0.19273 0.19938 0.0
C515 C 0.78929 0.16339 0.19874 0.0
C516 C 0.76473 0.15733 0.19192 0.0
C517 C 0.7519 0.18084 0.18583 0.0
C518 C 0.66988 0.2163 0.19693 0.0
C519 C 0.68219 0.22724 0.17502 0.0
C520 C 0.69885 0.22471 0.19348 0.0
N521 N 0.70474 0.22991 0.18263 0.0
C522 C 0.65295 0.21887 0.17817 0.0
C523 C 0.64682 0.21335 0.18921 0.0
C524 C 0.72993 0.27826 0.15864 0.0
C525 C 0.83035 0.33892 0.16805 0.0
C526 C 0.79266 0.31921 0.15139 0.0
C527 C 0.79919 0.35002 0.15234 0.0
C528 C 0.81817 0.35989 0.16074 0.0
N529 N 0.80468 0.29875 0.15859 0.0
C530 C 0.82332 0.30828 0.16684 0.0
Co531 Co 0.78544 0.77147 0.68038 0.0
Co532 Co 0.73365 0.75676 0.66037 0.0
O533 O 0.74413 0.75969 0.67605 0.0
C534 C 0.76735 0.7238 0.69707 0.0
O535 O 0.74755 0.71179 0.69034 0.0
C536 C 0.67683 0.78038 0.67154 0.0
O537 O 0.69239 0.7901 0.67999 0.0
O538 O 0.74541 0.80012 0.65828 0.0
O539 O 0.78978 0.79782 0.66707 0.0
H540 H 0.75168 0.77393 0.62014 0.0
H541 H 0.73589 0.77931 0.69658 0.0
O542 O 0.78338 0.74631 0.69409 0.0
H543 H 0.77887 0.88128 0.6913 0.0
H544 H 0.86747 0.80285 0.70677 0.0
H545 H 0.84364 0.77703 0.66839 0.0
H546 H 0.79985 0.83754 0.68133 0.0
H547 H 0.81539 0.7893 0.7014 0.0
O548 O 0.69033 0.76864 0.66333 0.0
H549 H 0.76404 0.77617 0.63983 0.0
H550 H 0.68114 0.73237 0.64765 0.0
H551 H 0.89596 0.79071 0.67339 0.0
H552 H 0.71452 0.82235 0.70684 0.0
H553 H 0.90817 0.80375 0.6927 0.0
H554 H 0.73597 0.87382 0.7042 0.0
O555 O 0.80187 0.73633 0.67207 0.0
H556 H 0.68216 0.66989 0.67951 0.0
H557 H 0.74778 0.69922 0.64856 0.0
H558 H 0.73457 0.64555 0.6512 0.0
H559 H 0.70138 0.63056 0.66674 0.0
H560 H 0.69638 0.72323 0.67669 0.0
H561 H 0.66778 0.72992 0.62805 0.0
H562 H 0.70323 0.75069 0.61412 0.0
O563 O 0.77595 0.74366 0.65654 0.0
C564 C 0.77181 0.81053 0.66029 0.0
C565 C 0.73605 0.76479 0.62612 0.0
C566 C 0.68895 0.74013 0.63056 0.0
N567 N 0.72336 0.75442 0.6449 0.0
C568 C 0.74293 0.76597 0.63729 0.0
C569 C 0.69659 0.7417 0.64166 0.0
C570 C 0.70886 0.75176 0.62275 0.0
C571 C 0.74554 0.80155 0.69546 0.0
N572 N 0.76911 0.80582 0.68837 0.0
C573 C 0.73326 0.82588 0.70126 0.0
C574 C 0.74527 0.85476 0.69976 0.0
C575 C 0.76931 0.85896 0.69252 0.0
C576 C 0.78101 0.83411 0.68685 0.0
C577 C 0.86243 0.79727 0.69832 0.0
C578 C 0.84871 0.78282 0.6768 0.0
C579 C 0.83298 0.7895 0.69523 0.0
N580 N 0.8264 0.78256 0.68457 0.0
C581 C 0.87841 0.79048 0.67958 0.0
C582 C 0.88525 0.79777 0.69042 0.0
C583 C 0.79789 0.7318 0.66184 0.0
C584 C 0.69654 0.67614 0.67269 0.0
C585 C 0.73353 0.69293 0.6554 0.0
C586 C 0.72602 0.66247 0.65682 0.0
C587 C 0.70738 0.65408 0.66553 0.0
N588 N 0.72276 0.71449 0.66244 0.0
C589 C 0.70454 0.70638 0.67101 0.0
Co590 Co 0.78758 0.24108 0.32774 0.0
Co591 Co 0.73213 0.25364 0.34664 0.0
O592 O 0.74511 0.25045 0.33125 0.0
C593 C 0.77036 0.28834 0.31097 0.0
O594 O 0.75341 0.30254 0.31815 0.0
C595 C 0.67763 0.2287 0.33433 0.0
O596 O 0.69362 0.22441 0.3254 0.0
O597 O 0.74676 0.21143 0.34939 0.0
O598 O 0.79208 0.21622 0.3414 0.0
H599 H 0.74596 0.24109 0.38731 0.0
H600 H 0.74093 0.22885 0.31083 0.0
O601 O 0.78509 0.26478 0.31373 0.0
H602 H 0.78917 0.13021 0.31804 0.0
H603 H 0.87449 0.21326 0.30293 0.0
H604 H 0.84455 0.24038 0.34063 0.0
H605 H 0.8062 0.176 0.32779 0.0
H606 H 0.82105 0.22364 0.3074 0.0
O607 O 0.69032 0.23799 0.3431 0.0
H608 H 0.76122 0.23862 0.36788 0.0
H609 H 0.67583 0.27386 0.35817 0.0
H610 H 0.8982 0.22996 0.33653 0.0
H611 H 0.72344 0.18367 0.30079 0.0
H612 H 0.91349 0.21628 0.31756 0.0
H613 H 0.74756 0.13387 0.3044 0.0
O614 O 0.80069 0.27778 0.33595 0.0
H615 H 0.67895 0.33591 0.32544 0.0
H616 H 0.73888 0.31239 0.35845 0.0
H617 H 0.72213 0.36476 0.35518 0.0
H618 H 0.69172 0.37682 0.33862 0.0
H619 H 0.69668 0.28406 0.32889 0.0
H620 H 0.65957 0.27642 0.37749 0.0
H621 H 0.6948 0.26009 0.39223 0.0
O622 O 0.77271 0.27038 0.35102 0.0
C623 C 0.77401 0.20266 0.34792 0.0
C624 C 0.73042 0.24832 0.38097 0.0
C625 C 0.68192 0.2681 0.37545 0.0
N626 N 0.7195 0.25615 0.36188 0.0
C627 C 0.73895 0.24701 0.36994 0.0
C628 C 0.69123 0.26648 0.36452 0.0
C629 C 0.7017 0.25895 0.38372 0.0
C630 C 0.75164 0.2073 0.31241 0.0
N631 N 0.77448 0.20511 0.31992 0.0
C632 C 0.74159 0.18178 0.30672 0.0
C633 C 0.75511 0.15384 0.30875 0.0
C634 C 0.77844 0.15177 0.31641 0.0
C635 C 0.78788 0.17778 0.32195 0.0
C636 C 0.86811 0.21917 0.31123 0.0
C637 C 0.85097 0.23432 0.33236 0.0
C638 C 0.83788 0.22515 0.3138 0.0
N639 N 0.82962 0.23247 0.32428 0.0
C640 C 0.88141 0.2285 0.33009 0.0
C641 C 0.88998 0.22085 0.31944 0.0
C642 C 0.79487 0.2829 0.34603 0.0
C643 C 0.69197 0.33091 0.33274 0.0
C644 C 0.72579 0.31738 0.35119 0.0
C645 C 0.71629 0.34712 0.3494 0.0
C646 C 0.69922 0.35386 0.34011 0.0
N647 N 0.71839 0.29487 0.34397 0.0
C648 C 0.70188 0.30143 0.3348 0.0
Co649 Co 0.74658 0.76668 0.83052 0.0
Co650 Co 0.79712 0.7518 0.8509 0.0
O651 O 0.78741 0.75431 0.83514 0.0
C652 C 0.76544 0.71912 0.81385 0.0
O653 O 0.78635 0.70823 0.82039 0.0
C654 C 0.85371 0.77724 0.84035 0.0
O655 O 0.83757 0.79177 0.83301 0.0
O656 O 0.78634 0.79551 0.85269 0.0
O657 O 0.74237 0.79379 0.84362 0.0
H658 H 0.77832 0.77116 0.89095 0.0
H659 H 0.79749 0.77297 0.81475 0.0
O660 O 0.74855 0.74084 0.81697 0.0
H661 H 0.75548 0.87571 0.81879 0.0
H662 H 0.66616 0.79842 0.80354 0.0
H663 H 0.68812 0.77403 0.8422 0.0
H664 H 0.73327 0.83286 0.82893 0.0
H665 H 0.71775 0.78409 0.80924 0.0
O666 O 0.84069 0.76228 0.84794 0.0
H667 H 0.76664 0.77289 0.87119 0.0
H668 H 0.84856 0.72665 0.86397 0.0
H669 H 0.63627 0.78851 0.83686 0.0
H670 H 0.82004 0.81508 0.80431 0.0
H671 H 0.62501 0.80083 0.8174 0.0
H672 H 0.79909 0.86695 0.80632 0.0
O673 O 0.72912 0.73224 0.83898 0.0
H674 H 0.84775 0.66329 0.83258 0.0
H675 H 0.78083 0.69495 0.86285 0.0
H676 H 0.79286 0.6409 0.8605 0.0
H677 H 0.82665 0.62474 0.8453 0.0
H678 H 0.83475 0.71707 0.83512 0.0
H679 H 0.86125 0.72466 0.88364 0.0
H680 H 0.82594 0.74692 0.89729 0.0
O681 O 0.75438 0.73997 0.85462 0.0
C682 C 0.76029 0.80644 0.85043 0.0
C683 C 0.79389 0.76137 0.88508 0.0
C684 C 0.84044 0.73531 0.88098 0.0
N685 N 0.80687 0.74988 0.86641 0.0
C686 C 0.78738 0.76225 0.87387 0.0
C687 C 0.83319 0.73662 0.86984 0.0
C688 C 0.82061 0.74778 0.88863 0.0
C689 C 0.78797 0.79535 0.81557 0.0
N690 N 0.76394 0.80032 0.82239 0.0
C691 C 0.80096 0.81917 0.80968 0.0
C692 C 0.78924 0.84828 0.81083 0.0
C693 C 0.76479 0.85321 0.81783 0.0
C694 C 0.75238 0.82884 0.82359 0.0
C695 C 0.67079 0.79314 0.81204 0.0
C696 C 0.68345 0.77948 0.83372 0.0
C697 C 0.69996 0.78493 0.81532 0.0
N698 N 0.70602 0.77838 0.82606 0.0
C699 C 0.65402 0.78761 0.83074 0.0
C700 C 0.64771 0.7945 0.81983 0.0
C701 C 0.73254 0.72815 0.84927 0.0
C702 C 0.83303 0.67005 0.83925 0.0
C703 C 0.79531 0.68813 0.85615 0.0
C704 C 0.80217 0.65747 0.85489 0.0
C705 C 0.82116 0.64843 0.84638 0.0
N706 N 0.80703 0.70923 0.84911 0.0
C707 C 0.82568 0.70051 0.84075 0.0
Co708 Co 0.49029 0.48733 0.07754 0.0
Co709 Co 0.51867 0.53235 0.09802 0.0
O710 O 0.51013 0.52453 0.08247 0.0
C711 C 0.54284 0.49159 0.06174 0.0
O712 O 0.56179 0.49749 0.06976 0.0
C713 C 0.49246 0.59112 0.09006 0.0
O714 O 0.47059 0.57636 0.08511 0.0
O715 O 0.47504 0.52608 0.10197 0.0
O716 O 0.46387 0.48687 0.09093 0.0
H717 H 0.51436 0.51173 0.13856 0.0
H718 H 0.49328 0.54159 0.06333 0.0
O719 O 0.51492 0.48705 0.06374 0.0
H720 H 0.38461 0.51723 0.06621 0.0
H721 H 0.44292 0.417 0.04985 0.0
H722 H 0.47218 0.43044 0.08858 0.0
H723 H 0.42286 0.48524 0.07529 0.0
H724 H 0.46692 0.4644 0.05604 0.0
O725 O 0.51218 0.57682 0.09564 0.0
H726 H 0.50373 0.50183 0.11905 0.0
H727 H 0.55276 0.58058 0.10992 0.0
H728 H 0.44785 0.38282 0.08277 0.0
H729 H 0.45593 0.57397 0.05393 0.0
H730 H 0.43308 0.37585 0.06328 0.0
H731 H 0.40112 0.56197 0.0554 0.0
O732 O 0.52161 0.46229 0.08525 0.0
H733 H 0.60511 0.57313 0.07561 0.0
H734 H 0.5769 0.50856 0.107 0.0
H735 H 0.6307 0.51402 0.10198 0.0
H736 H 0.64512 0.54657 0.0862 0.0
H737 H 0.55153 0.56677 0.08082 0.0
H738 H 0.56374 0.5915 0.12933 0.0
H739 H 0.54456 0.55689 0.14382 0.0
O740 O 0.52618 0.48855 0.10089 0.0
C741 C 0.45801 0.504 0.0991 0.0
C742 C 0.52278 0.52703 0.13233 0.0
C743 C 0.55045 0.57181 0.12715 0.0
N744 N 0.52735 0.5407 0.11334 0.0
C745 C 0.5168 0.52154 0.12126 0.0
C746 C 0.54401 0.5656 0.11617 0.0
C747 C 0.53972 0.55237 0.13527 0.0
C748 C 0.46948 0.53618 0.06399 0.0
N749 N 0.4602 0.51183 0.07004 0.0
C750 C 0.44843 0.55462 0.05866 0.0
C751 C 0.41769 0.54789 0.05949 0.0
C752 C 0.40841 0.52285 0.06558 0.0
C753 C 0.43012 0.50497 0.07081 0.0
C754 C 0.44928 0.41976 0.05837 0.0
C755 C 0.4657 0.42764 0.08009 0.0
C756 C 0.46303 0.44649 0.06191 0.0
N757 N 0.47093 0.45022 0.07267 0.0
C758 C 0.45199 0.4006 0.07685 0.0
C759 C 0.44373 0.39669 0.06591 0.0
C760 C 0.53011 0.46468 0.09522 0.0
C761 C 0.59912 0.55897 0.08252 0.0
C762 C 0.58295 0.52269 0.10009 0.0
C763 C 0.61348 0.52575 0.09731 0.0
C764 C 0.62156 0.54403 0.08846 0.0
N765 N 0.56107 0.53747 0.09424 0.0
C766 C 0.56882 0.55539 0.08554 0.0
Co767 Co 0.02908 0.51786 0.58033 0.0
Co768 Co 0.01341 0.4713 0.60184 0.0
O769 O 0.01475 0.47878 0.58595 0.0
C770 C 0.98004 0.49791 0.56435 0.0
O771 O 0.97187 0.47524 0.57063 0.0
C772 C 0.03764 0.41305 0.59256 0.0
O773 O 0.05647 0.42809 0.58624 0.0
O774 O 0.05782 0.47948 0.60287 0.0
O775 O 0.05844 0.52182 0.59281 0.0
H776 H 0.03809 0.49332 0.64128 0.0
H777 H 0.03041 0.46314 0.56604 0.0
O778 O 1.00092 0.51602 0.56736 0.0
H779 H 0.13534 0.50104 0.56657 0.0
H780 H 0.06114 0.59253 0.55128 0.0
H781 H 0.04273 0.57689 0.59078 0.0
H782 H 0.09532 0.52741 0.5769 0.0
H783 H 0.04436 0.54283 0.5582 0.0
O784 O 0.02068 0.42708 0.59929 0.0
H785 H 0.03833 0.50275 0.62136 0.0
H786 H 0.98711 0.4227 0.616 0.0
H787 H 0.05978 0.62687 0.58422 0.0
H788 H 0.06958 0.43639 0.55547 0.0
H789 H 0.0691 0.63494 0.56434 0.0
H790 H 0.12257 0.45525 0.5557 0.0
O791 O 0.99711 0.5387 0.58905 0.0
H792 H 0.91982 0.42429 0.58568 0.0
H793 H 0.95911 0.49271 0.61427 0.0
H794 H 0.90414 0.48407 0.61285 0.0
H795 H 0.88413 0.44958 0.59849 0.0
H796 H 0.97463 0.43387 0.58731 0.0
H797 H 0.9865 0.41232 0.63586 0.0
H798 H 0.01202 0.44783 0.64866 0.0
O799 O 0.00483 0.51508 0.60503 0.0
C800 C 0.07047 0.50413 0.59985 0.0
C801 C 0.02683 0.47771 0.63579 0.0
C802 C 0.99792 0.43223 0.63275 0.0
N803 N 0.01265 0.46338 0.61751 0.0
C804 C 0.02685 0.48295 0.62449 0.0
C805 C 0.99842 0.43819 0.6215 0.0
C806 C 0.01223 0.45217 0.63993 0.0
C807 C 0.0532 0.47188 0.56605 0.0
N808 N 0.06033 0.49718 0.57195 0.0
C809 C 0.0754 0.45646 0.5601 0.0
C810 C 0.10513 0.467 0.56026 0.0
C811 C 0.11231 0.49267 0.56636 0.0
C812 C 0.08953 0.50749 0.57221 0.0
C813 C 0.05719 0.58928 0.55997 0.0
C814 C 0.04687 0.58017 0.58212 0.0
C815 C 0.0476 0.56121 0.56393 0.0
N816 N 0.04273 0.55689 0.5749 0.0
C817 C 0.05646 0.60854 0.57845 0.0
C818 C 0.06166 0.61307 0.56729 0.0
C819 C 0.99373 0.5368 0.59942 0.0
C820 C 0.92825 0.43939 0.59197 0.0
C821 C 0.95061 0.47791 0.60793 0.0
C822 C 0.91944 0.47299 0.6072 0.0
C823 C 0.90824 0.4536 0.59915 0.0
N824 N 0.97012 0.46397 0.60083 0.0
C825 C 0.95928 0.44487 0.59294 0.0
Co826 Co 0.4972 0.51932 0.93065 0.0
Co827 Co 0.51304 0.46884 0.91038 0.0
O828 O 0.50952 0.47848 0.92609 0.0
C829 C 0.54766 0.50439 0.94644 0.0
O830 O 0.56348 0.49164 0.93859 0.0
C831 C 0.48764 0.41206 0.92088 0.0
O832 O 0.47491 0.42783 0.92874 0.0
O833 O 0.46962 0.48024 0.90818 0.0
O834 O 0.47103 0.52411 0.91731 0.0
H835 H 0.49684 0.48821 0.87018 0.0
H836 H 0.48982 0.46897 0.9465 0.0
O837 O 0.52198 0.51617 0.94438 0.0
H838 H 0.38724 0.5106 0.94129 0.0
H839 H 0.46439 0.5993 0.9576 0.0
H840 H 0.49113 0.57808 0.91909 0.0
H841 H 0.43086 0.53276 0.93156 0.0
H842 H 0.47859 0.54774 0.95185 0.0
O843 O 0.50167 0.42538 0.91312 0.0
H844 H 0.49382 0.49974 0.88993 0.0
H845 H 0.5385 0.41721 0.8975 0.0
H846 H 0.47682 0.62992 0.92448 0.0
H847 H 0.44688 0.44643 0.95653 0.0
H848 H 0.46332 0.64081 0.94386 0.0
H849 H 0.39511 0.46718 0.95392 0.0
O850 O 0.5324 0.53667 0.92253 0.0
H851 H 0.59962 0.41821 0.92989 0.0
H852 H 0.57093 0.48397 0.8989 0.0
H853 H 0.62469 0.47149 0.90186 0.0
H854 H 0.63935 0.43827 0.91742 0.0
H855 H 0.54617 0.43165 0.92674 0.0
H856 H 0.54177 0.40467 0.87784 0.0
H857 H 0.52095 0.44036 0.86402 0.0
O858 O 0.52571 0.51137 0.90684 0.0
C859 C 0.45865 0.5063 0.91039 0.0
C860 C 0.50602 0.47248 0.87612 0.0
C861 C 0.5312 0.42558 0.88042 0.0
N862 N 0.51599 0.45921 0.89488 0.0
C863 C 0.5044 0.4789 0.88732 0.0
C864 C 0.52917 0.43276 0.89155 0.0
C865 C 0.51953 0.44563 0.87267 0.0
C866 C 0.46741 0.4783 0.94539 0.0
N867 N 0.4629 0.50212 0.93843 0.0
C868 C 0.44316 0.46536 0.95106 0.0
C869 C 0.41412 0.47699 0.94958 0.0
C870 C 0.40968 0.50132 0.94249 0.0
C871 C 0.43447 0.51367 0.93695 0.0
C872 C 0.47022 0.59484 0.94913 0.0
C873 C 0.48522 0.5826 0.92754 0.0
C874 C 0.47839 0.5657 0.94583 0.0
N875 N 0.48562 0.55985 0.93513 0.0
C876 C 0.47716 0.61202 0.93054 0.0
C877 C 0.46961 0.61812 0.94141 0.0
C878 C 0.53724 0.53317 0.91229 0.0
C879 C 0.59351 0.43261 0.92305 0.0
C880 C 0.5771 0.46963 0.90573 0.0
C881 C 0.60759 0.46257 0.90734 0.0
C882 C 0.61579 0.44391 0.91606 0.0
N883 N 0.55533 0.45839 0.9126 0.0
C884 C 0.56324 0.44016 0.92119 0.0
Co885 Co 0.03086 0.47706 0.4305 0.0
Co886 Co 0.01338 0.53574 0.41353 0.0
O887 O 0.0209 0.51973 0.42824 0.0
C888 C 0.98441 0.48952 0.44781 0.0
O889 O 0.96772 0.50372 0.44054 0.0
C890 C 0.04822 0.59323 0.4133 0.0
O891 O 0.06225 0.58305 0.40454 0.0
O892 O 0.0546 0.52172 0.4088 0.0
O893 O 0.05336 0.47533 0.41627 0.0
H894 H 0.01535 0.53285 0.37233 0.0
H895 H 0.04573 0.522 0.44772 0.0
O896 O 0.00939 0.47747 0.44498 0.0
H897 H 0.14308 0.47457 0.43787 0.0
H898 H 0.06259 0.38649 0.45282 0.0
H899 H 0.03031 0.42243 0.41636 0.0
H900 H 0.09578 0.45861 0.42882 0.0
H901 H 0.05118 0.44046 0.44973 0.0
O902 O 0.03001 0.57593 0.41847 0.0
H903 H 0.02395 0.51309 0.39099 0.0
H904 H 0.98712 0.59341 0.40472 0.0
H905 H 0.04174 0.36833 0.41907 0.0
H906 H 0.09247 0.53842 0.45706 0.0
H907 H 0.05801 0.35003 0.43741 0.0
H908 H 0.1416 0.51467 0.45214 0.0
O909 O 0.99299 0.4648 0.42281 0.0
H910 H 0.93965 0.5853 0.4393 0.0
H911 H 0.95062 0.52953 0.40452 0.0
H912 H 0.8998 0.54483 0.41074 0.0
H913 H 0.89407 0.57307 0.42823 0.0
H914 H 0.99001 0.5691 0.43287 0.0
H915 H 0.97821 0.61405 0.38621 0.0
H916 H 0.99235 0.58369 0.36985 0.0
O917 O 0.99565 0.49632 0.40844 0.0
C918 C 0.06449 0.4946 0.40958 0.0
C919 C 0.00912 0.5463 0.3794 0.0
C920 C 0.98826 0.59187 0.38718 0.0
N921 N 0.00614 0.55207 0.39895 0.0
C922 C 0.01395 0.53524 0.38998 0.0
C923 C 0.99337 0.58005 0.39765 0.0
C924 C 0.9962 0.57482 0.37801 0.0
C925 C 0.06699 0.51142 0.44559 0.0
N926 N 0.06798 0.48925 0.43779 0.0
C927 C 0.0934 0.52087 0.45088 0.0
C928 C 0.12096 0.50755 0.44811 0.0
C929 C 0.12181 0.48506 0.4401 0.0
C930 C 0.09495 0.47617 0.43499 0.0
C931 C 0.05556 0.39419 0.44479 0.0
C932 C 0.03753 0.41469 0.42435 0.0
C933 C 0.04898 0.42472 0.443 0.0
N934 N 0.04025 0.43464 0.43286 0.0
C935 C 0.0439 0.384 0.42584 0.0
C936 C 0.053 0.37375 0.43614 0.0
C937 C 0.98535 0.47255 0.4131 0.0
C938 C 0.94186 0.57311 0.43165 0.0
C939 C 0.94834 0.54156 0.41218 0.0
C940 C 0.91949 0.5503 0.41564 0.0
C941 C 0.91629 0.56618 0.42544 0.0
N942 N 0.97335 0.54848 0.4183 0.0
C943 C 0.97035 0.56401 0.42793 0.0
H944 H 0.95335 0.13258 0.58148 0.0
H945 H 0.96124 0.18763 0.58083 0.0
H946 H 0.04969 0.17632 0.59524 0.0
H947 H 0.04179 0.12195 0.59617 0.0
H948 H 0.01913 0.21949 0.60548 0.0
H949 H 0.0126 0.23924 0.56061 0.0
H950 H 0.97988 0.2207 0.56622 0.0
H951 H 0.01596 0.20185 0.56646 0.0
C952 C 0.97452 0.14186 0.58444 0.0
C953 C 0.99681 0.1228 0.58894 0.0
C954 C 0.97911 0.17333 0.58399 0.0
C955 C 0.00625 0.1862 0.58787 0.0
C956 C 0.02858 0.16706 0.5922 0.0
H957 H 0.07102 0.37301 0.58006 0.0
H958 H 0.06415 0.31789 0.57869 0.0
C959 C 0.02394 0.13585 0.59274 0.0
C960 C 0.01113 0.2196 0.58805 0.0
H961 H 0.01445 0.28303 0.57198 0.0
C962 C 0.01816 0.23331 0.59813 0.0
C963 C 0.01036 0.23768 0.57846 0.0
C964 C 0.00459 0.22414 0.5673 0.0
C965 C 0.02412 0.26445 0.59892 0.0
C966 C 0.02226 0.28274 0.5894 0.0
C967 C 0.01567 0.26906 0.57928 0.0
C968 C 0.02624 0.31619 0.58994 0.0
C969 C 0.03285 0.27736 0.60994 0.0
C970 C 0.007 0.33358 0.59656 0.0
C971 C 0.01102 0.36483 0.59743 0.0
C972 C 0.03422 0.37966 0.59159 0.0
C973 C 0.05312 0.36232 0.58474 0.0
C974 C 0.04913 0.33085 0.58391 0.0
H975 H 0.04208 0.25963 0.61547 0.0
H976 H 0.05 0.29558 0.60906 0.0
H977 H 0.01246 0.28707 0.61392 0.0
H978 H 0.98873 0.32296 0.60107 0.0
H979 H 0.99566 0.37737 0.60265 0.0
H980 H 0.89292 0.7491 0.85434 0.0
H981 H 0.94708 0.74107 0.85209 0.0
H982 H 0.94532 0.79096 0.82171 0.0
H983 H 0.89062 0.79922 0.82389 0.0
H984 H 0.97613 0.71119 0.83424 0.0
H985 H 0.01571 0.82995 0.83941 0.0
H986 H 0.97852 0.81771 0.8437 0.0
H987 H 0.98642 0.8236 0.82942 0.0
C988 C 0.90391 0.75865 0.84719 0.0
C989 C 0.88723 0.77488 0.83929 0.0
C990 C 0.93498 0.75391 0.84591 0.0
C991 C 0.95033 0.76543 0.83675 0.0
C992 C 0.934 0.7821 0.82891 0.0
H993 H 0.13793 0.71015 0.8209 0.0
H994 H 0.0831 0.7187 0.81957 0.0
C995 C 0.90272 0.78682 0.83017 0.0
C996 C 0.98328 0.75926 0.83546 0.0
H997 H 0.05297 0.79287 0.83624 0.0
C998 C 0.99296 0.72906 0.83456 0.0
C999 C 0.00519 0.78258 0.83598 0.0
C1000 C 0.99613 0.81531 0.83725 0.0
C1001 C 0.02391 0.72151 0.83436 0.0
C1002 C 0.04582 0.7448 0.83499 0.0
C1003 C 0.03614 0.77504 0.83569 0.0
C1004 C 0.07882 0.73823 0.83577 0.0
C1005 C 0.03296 0.68861 0.8339 0.0
C1006 C 0.09464 0.74623 0.84531 0.0
C1007 C 0.12581 0.74132 0.84611 0.0
C1008 C 0.14211 0.72845 0.83734 0.0
C1009 C 0.12613 0.71989 0.82784 0.0
C1010 C 0.09477 0.72478 0.82706 0.0
H1011 H 0.01347 0.67327 0.83543 0.0
H1012 H 0.04224 0.68345 0.82565 0.0
H1013 H 0.0509 0.68372 0.84003 0.0
H1014 H 0.08283 0.75652 0.85215 0.0
H1015 H 0.13719 0.74813 0.85357 0.0
H1016 H 0.45794 0.63044 0.07769 0.0
H1017 H 0.46576 0.68512 0.07525 0.0
H1018 H 0.54228 0.68172 0.09716 0.0
H1019 H 0.53496 0.62754 0.09955 0.0
H1020 H 0.46572 0.73166 0.09058 0.0
H1021 H 0.57782 0.72434 0.07047 0.0
H1022 H 0.55315 0.69199 0.07197 0.0
H1023 H 0.57655 0.7041 0.08323 0.0
C1024 C 0.47641 0.64136 0.08199 0.0
C1025 C 0.49586 0.62446 0.08879 0.0
C1026 C 0.48089 0.6726 0.08057 0.0
C1027 C 0.50502 0.68744 0.08584 0.0
C1028 C 0.52401 0.6707 0.09278 0.0
H1029 H 0.52857 0.87424 0.10338 0.0
H1030 H 0.52043 0.81972 0.10234 0.0
C1031 C 0.51958 0.63965 0.0942 0.0
C1032 C 0.51004 0.72056 0.08444 0.0
H1033 H 0.56413 0.77288 0.07776 0.0
C1034 C 0.48711 0.74066 0.08766 0.0
C1035 C 0.53779 0.7324 0.08047 0.0
C1036 C 0.56262 0.71209 0.07622 0.0
C1037 C 0.49165 0.77217 0.08748 0.0
C1038 C 0.52008 0.78393 0.08417 0.0
C1039 C 0.54252 0.7639 0.08047 0.0
C1040 C 0.52711 0.81686 0.08479 0.0
C1041 C 0.4659 0.79259 0.09087 0.0
C1042 C 0.53514 0.8333 0.07535 0.0
C1043 C 0.54012 0.86464 0.07593 0.0
C1044 C 0.53726 0.88009 0.08597 0.0
C1045 C 0.53062 0.86323 0.09548 0.0
C1046 C 0.52572 0.83201 0.09489 0.0
H1047 H 0.44365 0.78109 0.09 0.0
H1048 H 0.46873 0.79892 0.09961 0.0
H1049 H 0.4656 0.81367 0.0859 0.0
H1050 H 0.53668 0.82203 0.06748 0.0
H1051 H 0.54517 0.87686 0.06845 0.0
H1052 H 0.64131 0.22999 0.31603 0.0
H1053 H 0.58678 0.24027 0.31538 0.0
H1054 H 0.58333 0.23971 0.35072 0.0
H1055 H 0.63771 0.23 0.35145 0.0
H1056 H 0.53567 0.21146 0.32332 0.0
H1057 H 0.54957 0.32282 0.34358 0.0
H1058 H 0.58128 0.30134 0.33843 0.0
H1059 H 0.56473 0.29216 0.35151 0.0
C1060 C 0.62887 0.23158 0.32367 0.0
C1061 C 0.644 0.22948 0.3338 0.0
C1062 C 0.59769 0.23761 0.32328 0.0
C1063 C 0.58108 0.24164 0.333 0.0
C1064 C 0.5958 0.23763 0.34311 0.0
H1065 H 0.39689 0.27525 0.35228 0.0
H1066 H 0.45134 0.26626 0.35088 0.0
C1067 C 0.6269 0.23181 0.34351 0.0
C1068 C 0.54861 0.25073 0.33265 0.0
H1069 H 0.49898 0.30454 0.34181 0.0
C1070 C 0.52768 0.23195 0.32727 0.0
C1071 C 0.53817 0.27764 0.33773 0.0
C1072 C 0.55964 0.29982 0.34304 0.0
C1073 C 0.49654 0.23875 0.3272 0.0
C1074 C 0.48608 0.26518 0.33255 0.0
C1075 C 0.50704 0.28425 0.33774 0.0
C1076 C 0.45331 0.27264 0.33331 0.0
C1077 C 0.47487 0.21711 0.32172 0.0
C1078 C 0.43643 0.28014 0.32393 0.0
C1079 C 0.4052 0.28556 0.32471 0.0
C1080 C 0.39028 0.28342 0.33488 0.0
C1081 C 0.40756 0.27697 0.3443 0.0
C1082 C 0.43872 0.27179 0.34352 0.0
H1083 H 0.48584 0.19522 0.31964 0.0
H1084 H 0.45508 0.21261 0.3271 0.0
H1085 H 0.46635 0.22743 0.31402 0.0
H1086 H 0.44733 0.28136 0.31598 0.0
H1087 H 0.39262 0.29039 0.31729 0.0
H1088 H 0.9746 0.87557 0.43162 0.0
H1089 H 0.98203 0.82053 0.43266 0.0
H1090 H 0.03206 0.82289 0.4023 0.0
H1091 H 0.02435 0.87729 0.40108 0.0
H1092 H 0.99106 0.77636 0.40292 0.0
H1093 H 0.06069 0.77733 0.4409 0.0
H1094 H 0.02414 0.79489 0.44204 0.0
H1095 H 0.05238 0.81132 0.43326 0.0
C1096 C 0.987 0.86431 0.42514 0.0
C1097 C 0.99897 0.88099 0.4163 0.0
C1098 C 0.99149 0.83288 0.42579 0.0
C1099 C 0.00811 0.8176 0.41766 0.0
C1100 C 0.01934 0.83413 0.40871 0.0
H1101 H 0.07422 0.63899 0.40136 0.0
H1102 H 0.06491 0.69334 0.40314 0.0
C1103 C 0.01488 0.86536 0.40805 0.0
C1104 C 0.01384 0.7844 0.41825 0.0
H1105 H 0.05006 0.72952 0.4331 0.0
C1106 C 0.0039 0.76614 0.40954 0.0
C1107 C 0.0306 0.77101 0.42689 0.0
C1108 C 0.04283 0.7896 0.43627 0.0
C1109 C 0.01036 0.73502 0.40919 0.0
C1110 C 0.02763 0.72176 0.4177 0.0
C1111 C 0.037 0.73979 0.42655 0.0
C1112 C 0.03618 0.68921 0.41743 0.0
C1113 C 0.99846 0.71649 0.39973 0.0
C1114 C 0.02428 0.66896 0.42518 0.0
C1115 C 0.02965 0.63783 0.42422 0.0
C1116 C 0.04721 0.62633 0.41551 0.0
C1117 C 0.06057 0.64694 0.40815 0.0
C1118 C 0.05509 0.67804 0.40911 0.0
H1119 H 0.97988 0.72829 0.39532 0.0
H1120 H 0.01708 0.71238 0.3938 0.0
H1121 H 0.99001 0.69418 0.40261 0.0
H1122 H 0.00979 0.67712 0.43172 0.0
H1123 H 0.01902 0.62269 0.43006 0.0
H1124 H 0.39386 0.75942 0.65501 0.0
H1125 H 0.44793 0.76759 0.6574 0.0
H1126 H 0.44716 0.71108 0.68622 0.0
H1127 H 0.39248 0.70268 0.68391 0.0
H1128 H 0.47707 0.79352 0.67626 0.0
H1129 H 0.51746 0.67702 0.66688 0.0
H1130 H 0.48022 0.6901 0.66301 0.0
H1131 H 0.48808 0.68062 0.67703 0.0
C1132 C 0.40503 0.74845 0.66184 0.0
C1133 C 0.38863 0.73029 0.66926 0.0
C1134 C 0.43605 0.75328 0.6632 0.0
C1135 C 0.45166 0.73993 0.67196 0.0
C1136 C 0.43562 0.7214 0.67933 0.0
H1137 H 0.63913 0.79209 0.68906 0.0
H1138 H 0.58436 0.78303 0.69016 0.0
C1139 C 0.40437 0.71662 0.678 0.0
C1140 C 0.48459 0.74608 0.67333 0.0
H1141 H 0.55451 0.71358 0.671 0.0
C1142 C 0.49403 0.77601 0.67523 0.0
C1143 C 0.50666 0.72325 0.67188 0.0
C1144 C 0.4978 0.69093 0.66951 0.0
C1145 C 0.52493 0.78379 0.67554 0.0
C1146 C 0.54701 0.76101 0.67397 0.0
C1147 C 0.53756 0.731 0.67225 0.0
C1148 C 0.57994 0.76808 0.67334 0.0
C1149 C 0.53372 0.8165 0.67712 0.0
C1150 C 0.59565 0.76285 0.66352 0.0
C1151 C 0.62682 0.76808 0.66285 0.0
C1152 C 0.64318 0.77844 0.67203 0.0
C1153 C 0.62728 0.78433 0.68181 0.0
C1154 C 0.59595 0.77913 0.68246 0.0
H1155 H 0.51406 0.83197 0.6762 0.0
H1156 H 0.54317 0.81951 0.68548 0.0
H1157 H 0.55146 0.82318 0.67113 0.0
H1158 H 0.58379 0.75445 0.65636 0.0
H1159 H 0.63815 0.76339 0.65517 0.0
H1160 H 0.50929 0.37318 0.90535 0.0
H1161 H 0.51743 0.31884 0.90692 0.0
H1162 H 0.47941 0.31992 0.93949 0.0
H1163 H 0.47102 0.37471 0.93798 0.0
H1164 H 0.55356 0.28923 0.92265 0.0
H1165 H 0.43387 0.25009 0.92415 0.0
H1166 H 0.44425 0.28751 0.91952 0.0
H1167 H 0.44435 0.27877 0.9339 0.0
C1168 C 0.50236 0.36197 0.91283 0.0
C1169 C 0.48948 0.37847 0.92155 0.0
C1170 C 0.50714 0.33081 0.91372 0.0
C1171 C 0.499 0.31523 0.9233 0.0
C1172 C 0.48556 0.33139 0.93196 0.0
H1173 H 0.56128 0.12751 0.93529 0.0
H1174 H 0.55283 0.18217 0.93742 0.0
C1175 C 0.48076 0.36273 0.93108 0.0
C1176 C 0.5055 0.28225 0.92419 0.0
H1177 H 0.47174 0.21272 0.92546 0.0
C1178 C 0.5357 0.27248 0.92337 0.0
C1179 C 0.48217 0.26043 0.92505 0.0
C1180 C 0.44929 0.26955 0.92563 0.0
C1181 C 0.54315 0.24152 0.92316 0.0
C1182 C 0.5198 0.2197 0.92391 0.0
C1183 C 0.48965 0.22948 0.92495 0.0
C1184 C 0.52582 0.18671 0.9227 0.0
C1185 C 0.57582 0.23239 0.92169 0.0
C1186 C 0.51342 0.17108 0.91377 0.0
C1187 C 0.5182 0.14004 0.91252 0.0
C1188 C 0.53542 0.12367 0.92023 0.0
C1189 C 0.54813 0.1394 0.92915 0.0
C1190 C 0.54332 0.17065 0.93038 0.0
H1191 H 0.59031 0.25181 0.91923 0.0
H1192 H 0.58461 0.22326 0.92955 0.0
H1193 H 0.57787 0.21435 0.9154 0.0
H1194 H 0.49991 0.18297 0.90772 0.0
H1195 H 0.508 0.12884 0.90555 0.0
H1196 H 0.13702 0.24548 0.15301 0.0
H1197 H 0.0826 0.23833 0.15499 0.0
H1198 H 0.0823 0.29714 0.18319 0.0
H1199 H 0.13712 0.30474 0.18122 0.0
H1200 H 0.05129 0.21406 0.17281 0.0
H1201 H 0.01421 0.33184 0.16398 0.0
H1202 H 0.05188 0.31853 0.16086 0.0
H1203 H 0.04178 0.32778 0.17472 0.0
C1204 C 0.12548 0.25719 0.1596 0.0
C1205 C 0.14156 0.27585 0.16693 0.0
C1206 C 0.09429 0.25294 0.16074 0.0
C1207 C 0.07826 0.2673 0.16919 0.0
C1208 C 0.09409 0.28615 0.1765 0.0
H1209 H 0.88949 0.2164 0.18518 0.0
H1210 H 0.94443 0.22426 0.1865 0.0
C1211 C 0.12545 0.29046 0.17537 0.0
C1212 C 0.04512 0.26191 0.17033 0.0
H1213 H 0.97613 0.29651 0.1684 0.0
C1214 C 0.03483 0.23211 0.17193 0.0
C1215 C 0.02366 0.28544 0.1691 0.0
C1216 C 0.03328 0.31769 0.16698 0.0
C1217 C 0.00374 0.22513 0.17214 0.0
C1218 C 0.98229 0.24864 0.17085 0.0
C1219 C 0.99258 0.27851 0.16945 0.0
C1220 C 0.94916 0.24261 0.17012 0.0
C1221 C 0.99414 0.19251 0.1733 0.0
C1222 C 0.93351 0.25034 0.16052 0.0
C1223 C 0.90226 0.24596 0.15975 0.0
C1224 C 0.88574 0.23382 0.1686 0.0
C1225 C 0.9015 0.22555 0.17818 0.0
C1226 C 0.93293 0.23001 0.17894 0.0
H1227 H 0.01328 0.17665 0.17191 0.0
H1228 H 0.9854 0.1887 0.18172 0.0
H1229 H 0.97572 0.18701 0.16743 0.0
H1230 H 0.94551 0.25998 0.15359 0.0
H1231 H 0.89101 0.25252 0.15223 0.0
H1232 H 0.08175 0.95585 0.45638 0.0
H1233 H 0.08821 0.95556 0.47639 0.0
H1234 H 0.05196 0.04599 0.47814 0.0
H1235 H 0.04531 0.04649 0.45828 0.0
H1236 H 0.11784 0.99705 0.49243 0.0
H1237 H 0.99254 0.99164 0.49615 0.0
H1238 H 0.01207 0.98378 0.48346 0.0
H1239 H 0.00661 0.0222 0.48786 0.0
C1240 C 0.07577 0.97591 0.461 0.0
C1241 C 0.06262 1.00103 0.45573 0.0
C1242 C 0.07945 0.9757 0.47244 0.0
C1243 C 0.07009 1.00057 0.47876 0.0
C1244 C 0.05892 0.02639 0.47344 0.0
H1245 H 0.08218 0.03782 0.54905 0.0
H1246 H 0.09149 0.03702 0.5292 0.0
C1247 C 0.05515 0.02661 0.46206 0.0
C1248 C 0.06932 0.99874 0.49093 0.0
H1249 H 0.02018 0.99811 0.51255 0.0
C1250 C 0.09654 0.9972 0.49685 0.0
C1251 C 0.04147 0.99858 0.49667 0.0
C1252 C 0.01146 0.99887 0.49074 0.0
C1253 C 0.0966 0.99603 0.50841 0.0
C1254 C 0.06872 0.99666 0.51415 0.0
C1255 C 0.04157 0.9978 0.50817 0.0
C1256 C 0.06671 0.99549 0.52634 0.0
C1257 C 0.1264 0.99363 0.51438 0.0
C1258 C 0.04987 0.97238 0.53136 0.0
C1259 C 0.04433 0.97291 0.54263 0.0
C1260 C 0.05545 0.99664 0.5492 0.0
C1261 C 0.07345 0.01913 0.54425 0.0
C1262 C 0.07889 0.01864 0.5329 0.0
H1263 H 0.14488 0.98593 0.50886 0.0
H1264 H 0.13268 0.01621 0.51765 0.0
H1265 H 0.12468 0.9777 0.5214 0.0
H1266 H 0.04024 0.95428 0.52648 0.0
H1267 H 0.03057 0.95508 0.54615 0.0
H1268 H 0.31093 0.77184 0.79707 0.0
H1269 H 0.31186 0.78083 0.77736 0.0
H1270 H 0.22419 0.82346 0.77927 0.0
H1271 H 0.22326 0.81487 0.79916 0.0
H1272 H 0.27122 0.75571 0.76337 0.0
H1273 H 0.27029 0.8807 0.75878 0.0
H1274 H 0.27987 0.86219 0.77153 0.0
H1275 H 0.24093 0.86591 0.76747 0.0
C1276 C 0.29201 0.78361 0.79336 0.0
C1277 C 0.26691 0.79247 0.79971 0.0
C1278 C 0.29262 0.78877 0.78207 0.0
C1279 C 0.26819 0.80294 0.77681 0.0
C1280 C 0.24357 0.81297 0.78316 0.0
H1281 H 0.22034 0.77293 0.70908 0.0
H1282 H 0.22061 0.78053 0.72889 0.0
C1283 C 0.24301 0.80794 0.79453 0.0
C1284 C 0.26739 0.80418 0.76461 0.0
H1285 H 0.26238 0.85175 0.74251 0.0
C1286 C 0.26941 0.77676 0.75884 0.0
C1287 C 0.26525 0.83164 0.75866 0.0
C1288 C 0.26423 0.86184 0.7644 0.0
C1289 C 0.26901 0.77595 0.74734 0.0
C1290 C 0.266 0.80327 0.74139 0.0
C1291 C 0.26445 0.83082 0.7471 0.0
C1292 C 0.26402 0.80312 0.72922 0.0
C1293 C 0.27205 0.74577 0.74163 0.0
C1294 C 0.28777 0.81455 0.72276 0.0
C1295 C 0.28768 0.81031 0.71135 0.0
C1296 C 0.26384 0.79453 0.70625 0.0
C1297 C 0.23927 0.78482 0.71273 0.0
C1298 C 0.23935 0.78915 0.72407 0.0
H1299 H 0.28123 0.72808 0.74719 0.0
H1300 H 0.24941 0.73824 0.73878 0.0
H1301 H 0.28707 0.74762 0.73435 0.0
H1302 H 0.30701 0.82548 0.72659 0.0
H1303 H 0.30693 0.81806 0.70661 0.0
H1304 H 0.44157 0.96652 0.05127 0.0
H1305 H 0.43284 0.96405 0.03135 0.0
H1306 H 0.48733 0.04404 0.02687 0.0
H1307 H 0.49615 0.04672 0.04657 0.0
H1308 H 0.41096 0.01092 0.01469 0.0
H1309 H 0.53014 0.97342 0.00945 0.0
H1310 H 0.51064 0.97145 0.02245 0.0
H1311 H 0.5253 0.00696 0.01761 0.0
C1312 C 0.4512 0.98388 0.04605 0.0
C1313 C 0.46989 0.00657 0.0505 0.0
C1314 C 0.4462 0.98243 0.03468 0.0
C1315 C 0.4598 0.00365 0.02764 0.0
C1316 C 0.47694 0.02725 0.03215 0.0
H1317 H 0.45106 0.04666 0.95845 0.0
H1318 H 0.442 0.0446 0.97827 0.0
C1319 C 0.48198 0.02869 0.04343 0.0
C1320 C 0.4584 1.00009 0.01554 0.0
H1321 H 0.50358 0.98711 0.99333 0.0
C1322 C 0.43108 0.00544 0.00999 0.0
C1323 C 0.48462 0.99264 0.00946 0.0
C1324 C 0.51432 0.98552 0.01502 0.0
C1325 C 0.42956 0.00441 0.99845 0.0
C1326 C 0.45615 0.99819 0.99234 0.0
C1327 C 0.4832 0.99201 0.99797 0.0
C1328 C 0.45698 0.99821 0.98013 0.0
C1329 C 0.39954 0.0098 0.9929 0.0
C1330 C 0.46816 0.97282 0.97453 0.0
C1331 C 0.47366 0.97405 0.96325 0.0
C1332 C 0.4681 1.00075 0.95728 0.0
C1333 C 0.45536 0.02568 0.96278 0.0
C1334 C 0.45005 0.02448 0.97412 0.0
H1335 H 0.38029 0.0055 0.99856 0.0
H1336 H 0.39827 0.03377 0.99022 0.0
H1337 H 0.39694 0.99518 0.98556 0.0
H1338 H 0.4737 0.9523 0.97897 0.0
H1339 H 0.48332 0.95436 0.95928 0.0
H1340 H 0.32753 0.18296 0.20841 0.0
H1341 H 0.3235 0.1715 0.228 0.0
H1342 H 0.23758 0.2177 0.22926 0.0
H1343 H 0.24107 0.22867 0.20972 0.0
H1344 H 0.32234 0.21316 0.24403 0.0
H1345 H 0.21868 0.14376 0.24724 0.0
H1346 H 0.23757 0.15039 0.23432 0.0
H1347 H 0.21181 0.17812 0.23983 0.0
C1348 C 0.3074 0.19003 0.21279 0.0
C1349 C 0.28463 0.20676 0.20745 0.0
C1350 C 0.30518 0.18352 0.22401 0.0
C1351 C 0.28008 0.19341 0.23012 0.0
C1352 C 0.25682 0.20914 0.22471 0.0
H1353 H 0.22912 0.23921 0.29464 0.0
H1354 H 0.23409 0.22663 0.27527 0.0
C1355 C 0.25896 0.21557 0.21351 0.0
C1356 C 0.27957 0.19025 0.24229 0.0
H1357 H 0.23437 0.16953 0.26379 0.0
C1358 C 0.30341 0.20303 0.24835 0.0
C1359 C 0.25489 0.17703 0.24795 0.0
C1360 C 0.22946 0.16127 0.24199 0.0
C1361 C 0.30242 0.20453 0.25987 0.0
C1362 C 0.27705 0.19261 0.26549 0.0
C1363 C 0.2538 0.1787 0.25947 0.0
C1364 C 0.27281 0.19731 0.27746 0.0
C1365 C 0.32771 0.22037 0.26589 0.0
C1366 C 0.29248 0.18433 0.28522 0.0
C1367 C 0.28966 0.19147 0.2964 0.0
C1368 C 0.26721 0.2118 0.29996 0.0
C1369 C 0.24685 0.22368 0.29219 0.0
C1370 C 0.24957 0.21643 0.2811 0.0
H1371 H 0.34335 0.23236 0.26022 0.0
H1372 H 0.31839 0.237 0.27183 0.0
H1373 H 0.34102 0.20346 0.27059 0.0
H1374 H 0.31036 0.16921 0.2826 0.0
H1375 H 0.30568 0.18193 0.30216 0.0
H1376 H 0.71609 0.28414 0.20804 0.0
H1377 H 0.71467 0.29279 0.22779 0.0
H1378 H 0.80623 0.32664 0.22677 0.0
H1379 H 0.80767 0.31848 0.2069 0.0
H1380 H 0.75085 0.2633 0.2419 0.0
H1381 H 0.76622 0.38685 0.24745 0.0
H1382 H 0.75574 0.37027 0.23445 0.0
H1383 H 0.79457 0.36981 0.23889 0.0
C1384 C 0.73575 0.29404 0.21196 0.0
C1385 C 0.76207 0.30048 0.20587 0.0
C1386 C 0.73488 0.29898 0.22327 0.0
C1387 C 0.76026 0.31052 0.2288 0.0
C1388 C 0.78613 0.31828 0.22269 0.0
H1389 H 0.81019 0.27044 0.29521 0.0
H1390 H 0.80707 0.27887 0.2755 0.0
C1391 C 0.78697 0.3135 0.21131 0.0
C1392 C 0.76066 0.311 0.24102 0.0
H1393 H 0.77274 0.35598 0.26345 0.0
C1394 C 0.75537 0.28367 0.24659 0.0
C1395 C 0.76633 0.33759 0.24718 0.0
C1396 C 0.77075 0.36787 0.2417 0.0
C1397 C 0.7563 0.28199 0.25808 0.0
C1398 C 0.76322 0.30825 0.26422 0.0
C1399 C 0.7677 0.33583 0.25872 0.0
C1400 C 0.76694 0.30678 0.27632 0.0
C1401 C 0.74995 0.25201 0.26356 0.0
C1402 C 0.74608 0.32075 0.2834 0.0
C1403 C 0.74783 0.31603 0.29478 0.0
C1404 C 0.77046 0.29724 0.29922 0.0
C1405 C 0.7922 0.28469 0.2921 0.0
C1406 C 0.79049 0.28948 0.2808 0.0
H1407 H 0.73774 0.23622 0.25801 0.0
H1408 H 0.77171 0.24126 0.26591 0.0
H1409 H 0.73628 0.25516 0.27112 0.0
H1410 H 0.72778 0.33427 0.2801 0.0
H1411 H 0.73076 0.32602 0.30003 0.0
H1412 H 0.81263 0.73556 0.71159 0.0
H1413 H 0.81305 0.72618 0.73128 0.0
H1414 H 0.72636 0.68172 0.72887 0.0
H1415 H 0.72598 0.69068 0.709 0.0
H1416 H 0.77158 0.75008 0.74518 0.0
H1417 H 0.77285 0.62499 0.74938 0.0
H1418 H 0.7824 0.64398 0.73672 0.0
H1419 H 0.74344 0.63942 0.74064 0.0
C1420 C 0.79383 0.72332 0.71519 0.0
C1421 C 0.76916 0.71402 0.70871 0.0
C1422 C 0.79414 0.71794 0.72647 0.0
C1423 C 0.76984 0.70313 0.73159 0.0
C1424 C 0.74566 0.69271 0.7251 0.0
H1425 H 0.71997 0.73046 0.79932 0.0
H1426 H 0.72064 0.72324 0.7795 0.0
C1427 C 0.7454 0.69794 0.71374 0.0
C1428 C 0.76868 0.70158 0.74378 0.0
H1429 H 0.76404 0.65339 0.76571 0.0
C1430 C 0.77005 0.72889 0.74964 0.0
C1431 C 0.7669 0.67394 0.74963 0.0
C1432 C 0.76659 0.64386 0.7438 0.0
C1433 C 0.76936 0.72941 0.76114 0.0
C1434 C 0.76673 0.70189 0.767 0.0
C1435 C 0.76581 0.67446 0.76119 0.0
C1436 C 0.76458 0.70171 0.77916 0.0
C1437 C 0.77172 0.75949 0.76696 0.0
C1438 C 0.78851 0.69074 0.78562 0.0
C1439 C 0.7882 0.69478 0.79705 0.0
C1440 C 0.76394 0.7099 0.80215 0.0
C1441 C 0.73921 0.71909 0.79567 0.0
C1442 C 0.73951 0.71498 0.78432 0.0
H1443 H 0.78057 0.77754 0.76147 0.0
H1444 H 0.7489 0.76645 0.76982 0.0
H1445 H 0.78672 0.75777 0.77424 0.0
H1446 H 0.80805 0.68037 0.78179 0.0
H1447 H 0.80759 0.68743 0.80179 0.0
H1448 H 0.59522 0.4724 0.95553 0.0
H1449 H 0.60852 0.4688 0.97509 0.0
H1450 H 0.53644 0.53088 0.98301 0.0
H1451 H 0.5235 0.53502 0.96371 0.0
H1452 H 0.58895 0.54253 0.99477 0.0
H1453 H 0.55687 0.42072 0.99696 0.0
H1454 H 0.58561 0.43096 0.98719 0.0
H1455 H 0.54748 0.44404 0.9853 0.0
C1456 C 0.58247 0.48553 0.96145 0.0
C1457 C 0.55808 0.50375 0.95804 0.0
C1458 C 0.58997 0.48331 0.97262 0.0
C1459 C 0.5732 0.49926 0.98055 0.0
C1460 C 0.5497 0.51832 0.97708 0.0
H1461 H 0.5087 0.47801 0.04383 0.0
H1462 H 0.52329 0.47852 0.02467 0.0
C1463 C 0.54222 0.52052 0.966 0.0
C1464 C 0.57848 0.49537 0.99253 0.0
H1465 H 0.56719 0.44534 0.01352 0.0
C1466 C 0.58483 0.52115 0.99888 0.0
C1467 C 0.57291 0.46748 0.99788 0.0
C1468 C 0.56514 0.43919 0.99154 0.0
C1469 C 0.58406 0.5202 0.01042 0.0
C1470 C 0.57718 0.49259 0.01576 0.0
C1471 C 0.5726 0.46644 0.00941 0.0
C1472 C 0.56982 0.49131 0.02767 0.0
C1473 C 0.58853 0.54914 0.01678 0.0
C1474 C 0.59123 0.49811 0.03585 0.0
C1475 C 0.58286 0.49792 0.04699 0.0
C1476 C 0.55296 0.49088 0.05009 0.0
C1477 C 0.53191 0.4836 0.04183 0.0
C1478 C 0.54024 0.48377 0.03081 0.0
H1479 H 0.58956 0.56931 0.01134 0.0
H1480 H 0.56985 0.55235 0.02277 0.0
H1481 H 0.61006 0.54783 0.02144 0.0
H1482 H 0.61433 0.50364 0.03363 0.0
H1483 H 0.59966 0.50356 0.05313 0.0
H1484 H 0.98259 0.54675 0.55073 0.0
H1485 H 0.97381 0.54778 0.53098 0.0
H1486 H 0.9468 0.45397 0.53188 0.0
H1487 H 0.95475 0.45304 0.55175 0.0
H1488 H 0.00587 0.5155 0.517 0.0
H1489 H 0.88485 0.48759 0.51087 0.0
H1490 H 0.89989 0.49881 0.52403 0.0
H1491 H 0.904 0.46042 0.51932 0.0
C1492 C 0.97404 0.52652 0.54678 0.0
C1493 C 0.96944 0.49978 0.55282 0.0
C1494 C 0.96905 0.52714 0.53547 0.0
C1495 C 0.95948 0.50102 0.5299 0.0
C1496 C 0.95353 0.47463 0.53598 0.0
H1497 H 0.00883 0.45476 0.46399 0.0
H1498 H 0.99984 0.45803 0.48367 0.0
C1499 C 0.95821 0.47408 0.54736 0.0
C1500 C 0.95945 0.50054 0.51768 0.0
H1501 H 0.91713 0.48274 0.49507 0.0
C1502 C 0.9863 0.50865 0.51223 0.0
C1503 C 0.93391 0.49184 0.5114 0.0
C1504 C 0.90394 0.48447 0.5167 0.0
C1505 C 0.9886 0.50755 0.50077 0.0
C1506 C 0.96359 0.49741 0.49452 0.0
C1507 C 0.93638 0.49018 0.49989 0.0
C1508 C 0.96603 0.49327 0.48246 0.0
C1509 C 0.0179 0.51727 0.49544 0.0
C1510 C 0.94901 0.5111 0.47518 0.0
C1511 C 0.95399 0.50917 0.46382 0.0
C1512 C 0.97607 0.48937 0.45961 0.0
C1513 C 0.99193 0.47055 0.46694 0.0
C1514 C 0.98686 0.47239 0.47822 0.0
H1515 H 0.03147 0.53204 0.50094 0.0
H1516 H 0.03165 0.49693 0.49353 0.0
H1517 H 0.01359 0.52962 0.48766 0.0
H1518 H 0.93271 0.52726 0.4783 0.0
H1519 H 0.94137 0.52395 0.4584 0.0
H1520 H 0.18417 0.8078 0.66676 0.0
H1521 H 0.14772 0.83694 0.65583 0.0
H1522 H 0.19405 0.81058 0.6262 0.0
H1523 H 0.23066 0.78223 0.63693 0.0
H1524 H 0.183 0.87047 0.62659 0.0
H1525 H 0.07802 0.80756 0.63694 0.0
H1526 H 0.09819 0.82158 0.64867 0.0
H1527 H 0.11526 0.79319 0.6401 0.0
C1528 C 0.18648 0.8081 0.65791 0.0
C1529 C 0.21044 0.79267 0.65276 0.0
C1530 C 0.16549 0.82459 0.65167 0.0
C1531 C 0.1679 0.82562 0.64017 0.0
C1532 C 0.19166 0.81008 0.63504 0.0
H1533 H 0.07076 0.91955 0.5873 0.0
H1534 H 0.10253 0.88374 0.59759 0.0
C1535 C 0.21263 0.79384 0.64124 0.0
C1536 C 0.14666 0.84387 0.6334 0.0
H1537 H 0.07202 0.85319 0.62679 0.0
C1538 C 0.15876 0.86652 0.62658 0.0
C1539 C 0.11503 0.83868 0.63336 0.0
C1540 C 0.10081 0.81375 0.64008 0.0
C1541 C 0.14009 0.88448 0.61991 0.0
C1542 C 0.10848 0.87947 0.61995 0.0
C1543 C 0.09632 0.85681 0.62673 0.0
C1544 C 0.08759 0.89898 0.61357 0.0
C1545 C 0.1542 0.90928 0.61309 0.0
C1546 C 0.06812 0.91868 0.61914 0.0
C1547 C 0.05011 0.93906 0.61333 0.0
C1548 C 0.05098 0.94006 0.60178 0.0
C1549 C 0.06958 0.91938 0.59618 0.0
C1550 C 0.08784 0.89904 0.60204 0.0
H1551 H 0.17813 0.91359 0.61542 0.0
H1552 H 0.15364 0.90264 0.60431 0.0
H1553 H 0.14121 0.93066 0.61397 0.0
H1554 H 0.06752 0.91893 0.62803 0.0
H1555 H 0.03589 0.95445 0.61794 0.0
H1556 H 0.30029 0.78402 0.86874 0.0
H1557 H 0.33612 0.81489 0.87898 0.0
H1558 H 0.38168 0.83878 0.84892 0.0
H1559 H 0.34568 0.80773 0.83847 0.0
H1560 H 0.40183 0.81063 0.87953 0.0
H1561 H 0.35936 0.92114 0.86392 0.0
H1562 H 0.33755 0.88667 0.86287 0.0
H1563 H 0.36887 0.89311 0.85378 0.0
C1564 C 0.31788 0.79575 0.86424 0.0
C1565 C 0.31992 0.79348 0.85273 0.0
C1566 C 0.33842 0.81335 0.87014 0.0
C1567 C 0.36135 0.82931 0.86471 0.0
C1568 C 0.36388 0.82687 0.85325 0.0
H1569 H 0.49113 0.96122 0.8881 0.0
H1570 H 0.46104 0.92602 0.87731 0.0
C1571 C 0.34335 0.80906 0.8473 0.0
C1572 C 0.38224 0.84874 0.87113 0.0
H1573 H 0.40062 0.92249 0.87611 0.0
C1574 C 0.4017 0.8351 0.87877 0.0
C1575 C 0.38187 0.8806 0.87014 0.0
C1576 C 0.36068 0.89643 0.86231 0.0
C1577 C 0.42114 0.8525 0.88538 0.0
C1578 C 0.42051 0.88444 0.8845 0.0
C1579 C 0.40109 0.89801 0.8768 0.0
C1580 C 0.4401 0.90438 0.89131 0.0
C1581 C 0.44256 0.83646 0.89307 0.0
C1582 C 0.43854 0.90392 0.90283 0.0
C1583 C 0.45604 0.924 0.9091 0.0
C1584 C 0.47506 0.9452 0.90393 0.0
C1585 C 0.47669 0.94533 0.89239 0.0
C1586 C 0.45945 0.92519 0.88618 0.0
H1587 H 0.44633 0.81258 0.89056 0.0
H1588 H 0.4648 0.84815 0.89343 0.0
H1589 H 0.4327 0.83628 0.90144 0.0
H1590 H 0.42326 0.88854 0.90699 0.0
H1591 H 0.45407 0.92344 0.91795 0.0
H1592 H 0.45721 0.08418 0.09001 0.0
H1593 H 0.42747 0.11965 0.10112 0.0
H1594 H 0.44813 0.06796 0.13018 0.0
H1595 H 0.47706 0.03226 0.11923 0.0
H1596 H 0.38888 0.08201 0.12917 0.0
H1597 H 0.45767 0.18506 0.12169 0.0
H1598 H 0.44421 0.1673 0.10939 0.0
H1599 H 0.47068 0.14767 0.11805 0.0
C1600 C 0.45544 0.0804 0.09876 0.0
C1601 C 0.4696 0.0553 0.10368 0.0
C1602 C 0.43864 0.10084 0.10513 0.0
C1603 C 0.43596 0.09676 0.11653 0.0
C1604 C 0.44994 0.07168 0.12142 0.0
H1605 H 0.33939 0.19184 0.16937 0.0
H1606 H 0.37501 0.1595 0.15923 0.0
C1607 C 0.46654 0.05124 0.1151 0.0
C1608 C 0.41785 0.11788 0.12341 0.0
H1609 H 0.41094 0.19196 0.1311 0.0
C1610 C 0.39386 0.10601 0.12965 0.0
C1611 C 0.42442 0.1492 0.12408 0.0
C1612 C 0.45082 0.16308 0.11803 0.0
C1613 C 0.37588 0.12465 0.13633 0.0
C1614 C 0.38222 0.15598 0.13689 0.0
C1615 C 0.40627 0.16788 0.1307 0.0
C1616 C 0.36277 0.17699 0.14325 0.0
C1617 C 0.34964 0.11088 0.14251 0.0
C1618 C 0.34485 0.19809 0.13766 0.0
C1619 C 0.3246 0.21645 0.14339 0.0
C1620 C 0.32193 0.21432 0.15488 0.0
C1621 C 0.34087 0.19404 0.16054 0.0
C1622 C 0.36108 0.17544 0.15475 0.0
H1623 H 0.34463 0.08746 0.13973 0.0
H1624 H 0.35514 0.11013 0.15138 0.0
H1625 H 0.32895 0.12488 0.14149 0.0
H1626 H 0.34588 0.19974 0.1288 0.0
H1627 H 0.31058 0.23195 0.13874 0.0
H1628 H 0.08078 0.08179 0.4171 0.0
H1629 H 0.1119 0.11795 0.40669 0.0
H1630 H 0.07685 0.08195 0.37639 0.0
H1631 H 0.04597 0.04601 0.38659 0.0
H1632 H 0.15662 0.10062 0.38991 0.0
H1633 H 0.06634 0.17536 0.37341 0.0
H1634 H 0.06077 0.15151 0.38529 0.0
H1635 H 0.05986 0.13545 0.37176 0.0
C1636 C 0.07947 0.08182 0.40823 0.0
C1637 C 0.06087 0.06094 0.40271 0.0
C1638 C 0.09728 0.10244 0.4023 0.0
C1639 C 0.09639 0.10283 0.39078 0.0
C1640 C 0.07753 0.08237 0.38528 0.0
H1641 H 0.18967 0.19905 0.33815 0.0
H1642 H 0.15553 0.16706 0.34906 0.0
C1643 C 0.06 0.06168 0.39115 0.0
C1644 C 0.11634 0.12331 0.38438 0.0
H1645 H 0.11548 0.18119 0.36577 0.0
C1646 C 0.1477 0.11844 0.38471 0.0
C1647 C 0.10455 0.14619 0.37748 0.0
C1648 C 0.07105 0.15271 0.37699 0.0
C1649 C 0.1676 0.13548 0.37817 0.0
C1650 C 0.15587 0.15859 0.37132 0.0
C1651 C 0.12446 0.16347 0.37101 0.0
C1652 C 0.17597 0.17841 0.36466 0.0
C1653 C 0.20094 0.12796 0.37844 0.0
C1654 C 0.1983 0.19589 0.36981 0.0
C1655 C 0.21785 0.21391 0.36363 0.0
C1656 C 0.21535 0.21528 0.35212 0.0
C1657 C 0.19235 0.19843 0.34697 0.0
C1658 C 0.17281 0.18017 0.3532 0.0
H1659 H 0.20494 0.10448 0.38137 0.0
H1660 H 0.21138 0.13052 0.37021 0.0
H1661 H 0.21259 0.14359 0.38418 0.0
H1662 H 0.20065 0.19559 0.37865 0.0
H1663 H 0.23499 0.2268 0.36794 0.0
H1664 H 0.93165 0.98048 0.39118 0.0
H1665 H 0.88922 0.00293 0.38098 0.0
H1666 H 0.89695 0.0843 0.40032 0.0
H1667 H 0.93779 0.06192 0.41073 0.0
H1668 H 0.83943 0.07181 0.39704 0.0
H1669 H 0.9005 0.06418 0.35719 0.0
H1670 H 0.89286 0.02876 0.36385 0.0
H1671 H 0.9186 0.05529 0.37003 0.0
C1672 C 0.92403 0.00301 0.39332 0.0
C1673 C 0.93847 0.0194 0.40173 0.0
C1674 C 0.89991 0.01594 0.38742 0.0
C1675 C 0.89017 0.04563 0.38971 0.0
C1676 C 0.90391 0.06142 0.39835 0.0
H1677 H 0.8333 0.19169 0.35205 0.0
H1678 H 0.85579 0.14972 0.36189 0.0
C1679 C 0.92756 0.04851 0.40429 0.0
C1680 C 0.86692 0.06151 0.38294 0.0
H1681 H 0.85499 0.09101 0.3574 0.0
C1682 C 0.84257 0.0757 0.38833 0.0
C1683 C 0.87099 0.06663 0.37156 0.0
C1684 C 0.89723 0.05316 0.3653 0.0
C1685 C 0.82355 0.09637 0.38287 0.0
C1686 C 0.82838 0.10234 0.3716 0.0
C1687 C 0.85133 0.08649 0.36604 0.0
C1688 C 0.81323 0.12789 0.36578 0.0
C1689 C 0.7999 0.11314 0.38942 0.0
C1690 C 0.78154 0.13006 0.36473 0.0
C1691 C 0.76836 0.15468 0.35916 0.0
C1692 C 0.78673 0.17715 0.3544 0.0
C1693 C 0.81835 0.17476 0.35551 0.0
C1694 C 0.83135 0.15061 0.36114 0.0
H1695 H 0.80303 0.11015 0.3984 0.0
H1696 H 0.8005 0.13772 0.38753 0.0
H1697 H 0.77712 0.10444 0.38723 0.0
H1698 H 0.76703 0.11259 0.36806 0.0
H1699 H 0.74396 0.15575 0.35838 0.0
H1700 H 0.61008 0.97788 0.11076 0.0
H1701 H 0.65355 0.99977 0.12061 0.0
H1702 H 0.62542 0.08919 0.11068 0.0
H1703 H 0.58336 0.06779 0.10064 0.0
H1704 H 0.68443 0.08346 0.10821 0.0
H1705 H 0.65214 0.04205 0.14972 0.0
H1706 H 0.65869 0.0135 0.13951 0.0
H1707 H 0.62707 0.03881 0.13812 0.0
C1708 C 0.61327 1.00219 0.1107 0.0
C1709 C 0.59316 0.02099 0.10489 0.0
C1710 C 0.63804 0.01471 0.11637 0.0
C1711 C 0.64272 0.04625 0.11649 0.0
C1712 C 0.62257 0.06483 0.11068 0.0
H1713 H 0.70307 0.17573 0.1601 0.0
H1714 H 0.68183 0.13401 0.14987 0.0
C1715 C 0.59832 0.05244 0.10495 0.0
C1716 C 0.66796 0.06084 0.12266 0.0
H1717 H 0.69264 0.07597 0.14864 0.0
C1718 C 0.68656 0.08154 0.11704 0.0
C1719 C 0.67083 0.05825 0.13419 0.0
C1720 C 0.65104 0.03715 0.14079 0.0
C1721 C 0.70602 0.10139 0.12266 0.0
C1722 C 0.70791 0.09974 0.13424 0.0
C1723 C 0.69116 0.07732 0.13977 0.0
C1724 C 0.72286 0.12386 0.14088 0.0
C1725 C 0.72248 0.12543 0.11617 0.0
C1726 C 0.75341 0.13215 0.13942 0.0
C1727 C 0.7657 0.15684 0.14518 0.0
C1728 C 0.74781 0.17325 0.15266 0.0
C1729 C 0.71769 0.16391 0.1544 0.0
C1730 C 0.70541 0.13976 0.14857 0.0
H1731 H 0.71389 0.12725 0.10763 0.0
H1732 H 0.72019 0.14791 0.12015 0.0
H1733 H 0.74691 0.11969 0.11576 0.0
H1734 H 0.76764 0.11981 0.13375 0.0
H1735 H 0.78904 0.16321 0.14371 0.0
H1736 H 0.70205 0.82615 0.85104 0.0
H1737 H 0.68098 0.86851 0.86093 0.0
H1738 H 0.76953 0.89114 0.87339 0.0
H1739 H 0.79104 0.84722 0.86369 0.0
H1740 H 0.72992 0.89592 0.88915 0.0
H1741 H 0.68072 0.95582 0.85401 0.0
H1742 H 0.66719 0.91766 0.85372 0.0
H1743 H 0.70721 0.92512 0.85222 0.0
C1744 C 0.71736 0.84013 0.85577 0.0
C1745 C 0.74844 0.83327 0.85645 0.0
C1746 C 0.70518 0.86475 0.86137 0.0
C1747 C 0.7237 0.88386 0.86763 0.0
C1748 C 0.75479 0.87705 0.86847 0.0
H1749 H 0.60618 0.02713 0.89501 0.0
H1750 H 0.65003 0.00587 0.88526 0.0
C1751 C 0.76707 0.85193 0.86293 0.0
C1752 C 0.70957 0.90933 0.87383 0.0
H1753 H 0.65352 0.96221 0.87147 0.0
C1754 C 0.71376 0.91092 0.88523 0.0
C1755 C 0.68922 0.9299 0.86879 0.0
C1756 C 0.68617 0.93224 0.85649 0.0
C1757 C 0.69612 0.93033 0.89177 0.0
C1758 C 0.6728 0.94775 0.88685 0.0
C1759 C 0.6707 0.94834 0.87536 0.0
C1760 C 0.64829 0.96235 0.89344 0.0
C1761 C 0.70237 0.93141 0.90393 0.0
C1762 C 0.6325 0.94511 0.90123 0.0
C1763 C 0.60791 0.95725 0.90687 0.0
C1764 C 0.59771 0.98688 0.90473 0.0
C1765 C 0.61346 0.00432 0.89692 0.0
C1766 C 0.63853 0.99216 0.89133 0.0
H1767 H 0.72694 0.92845 0.90558 0.0
H1768 H 0.69486 0.9531 0.90763 0.0
H1769 H 0.69035 0.91246 0.90803 0.0
H1770 H 0.63855 0.92173 0.90274 0.0
H1771 H 0.59638 0.94287 0.91273 0.0
H1772 H 0.8309 0.82485 0.65718 0.0
H1773 H 0.85234 0.86722 0.64729 0.0
H1774 H 0.76268 0.89904 0.63931 0.0
H1775 H 0.74069 0.85525 0.649 0.0
H1776 H 0.79755 0.90453 0.62214 0.0
H1777 H 0.86171 0.95247 0.65653 0.0
H1778 H 0.87203 0.91349 0.6552 0.0
H1779 H 0.83348 0.92347 0.65857 0.0
C1780 C 0.81552 0.84088 0.65343 0.0
C1781 C 0.78396 0.83676 0.65403 0.0
C1782 C 0.82793 0.86542 0.64784 0.0
C1783 C 0.80924 0.88714 0.64288 0.0
C1784 C 0.77763 0.8829 0.64323 0.0
H1785 H 0.92913 0.02764 0.61491 0.0
H1786 H 0.88646 0.00763 0.62568 0.0
C1787 C 0.76507 0.85785 0.64874 0.0
C1788 C 0.82341 0.91288 0.63682 0.0
H1789 H 0.88366 0.96124 0.63828 0.0
C1790 C 0.8159 0.91745 0.62575 0.0
C1791 C 0.84667 0.9308 0.64153 0.0
C1792 C 0.85361 0.93002 0.65365 0.0
C1793 C 0.83285 0.93716 0.61908 0.0
C1794 C 0.85876 0.9518 0.62346 0.0
C1795 C 0.86439 0.94951 0.63476 0.0
C1796 C 0.88222 0.96616 0.61632 0.0
C1797 C 0.82302 0.94153 0.60734 0.0
C1798 C 0.8942 0.94969 0.60749 0.0
C1799 C 0.91809 0.96118 0.60129 0.0
C1800 C 0.93142 0.98927 0.60386 0.0
C1801 C 0.91936 0.00604 0.61265 0.0
C1802 C 0.89499 0.99457 0.61883 0.0
H1803 H 0.79794 0.9407 0.60667 0.0
H1804 H 0.83106 0.96343 0.60394 0.0
H1805 H 0.83216 0.92281 0.60225 0.0
H1806 H 0.88581 0.92727 0.60559 0.0
H1807 H 0.92667 0.94734 0.59466 0.0
H1808 H 0.67978 0.30944 0.16603 0.0
H1809 H 0.64259 0.33719 0.15493 0.0
H1810 H 0.69038 0.31198 0.12549 0.0
H1811 H 0.72734 0.28436 0.13637 0.0
H1812 H 0.65591 0.38599 0.14007 0.0
H1813 H 0.60167 0.28937 0.11858 0.0
H1814 H 0.62364 0.28472 0.13097 0.0
H1815 H 0.64232 0.2898 0.118 0.0
C1816 C 0.68226 0.30964 0.1572 0.0
C1817 C 0.70662 0.29462 0.15213 0.0
C1818 C 0.66098 0.32548 0.15086 0.0
C1819 C 0.66347 0.32624 0.13937 0.0
C1820 C 0.68764 0.3112 0.13432 0.0
H1821 H 0.57003 0.42306 0.0866 0.0
H1822 H 0.60197 0.38758 0.09708 0.0
C1823 C 0.70892 0.29556 0.1406 0.0
C1824 C 0.64191 0.34412 0.13263 0.0
H1825 H 0.58986 0.33863 0.11195 0.0
C1826 C 0.64128 0.37562 0.13398 0.0
C1827 C 0.62318 0.33057 0.12459 0.0
C1828 C 0.62245 0.29673 0.12297 0.0
C1829 C 0.62275 0.39402 0.12742 0.0
C1830 C 0.60373 0.38047 0.11945 0.0
C1831 C 0.60444 0.34896 0.11805 0.0
C1832 C 0.58228 0.39883 0.11283 0.0
C1833 C 0.6242 0.42791 0.12892 0.0
C1834 C 0.55981 0.41577 0.11813 0.0
C1835 C 0.54186 0.43593 0.11221 0.0
C1836 C 0.54562 0.43934 0.10082 0.0
C1837 C 0.56662 0.42082 0.09536 0.0
C1838 C 0.58491 0.40069 0.10134 0.0
H1839 H 0.64559 0.435 0.13298 0.0
H1840 H 0.62234 0.43986 0.12094 0.0
H1841 H 0.6051 0.43526 0.1342 0.0
H1842 H 0.5568 0.41411 0.12693 0.0
H1843 H 0.52552 0.44953 0.11664 0.0
H1844 H 0.84804 0.31074 0.33966 0.0
H1845 H 0.88141 0.34242 0.35097 0.0
H1846 H 0.82149 0.33071 0.37857 0.0
H1847 H 0.78822 0.29937 0.36748 0.0
H1848 H 0.83872 0.3913 0.37474 0.0
H1849 H 0.93772 0.31364 0.37625 0.0
H1850 H 0.92351 0.32239 0.36279 0.0
H1851 H 0.90043 0.30118 0.37217 0.0
C1852 C 0.84196 0.31494 0.34813 0.0
C1853 C 0.81533 0.30252 0.35261 0.0
C1854 C 0.86116 0.33287 0.35461 0.0
C1855 C 0.85405 0.33866 0.36565 0.0
C1856 C 0.82744 0.32649 0.37008 0.0
H1857 H 0.96354 0.41588 0.41838 0.0
H1858 H 0.93139 0.38305 0.40704 0.0
C1859 C 0.8084 0.30856 0.36368 0.0
C1860 C 0.87374 0.35793 0.37262 0.0
H1861 H 0.94355 0.36161 0.38466 0.0
C1862 C 0.86166 0.38484 0.37689 0.0
C1863 C 0.90348 0.3492 0.37555 0.0
C1864 C 0.91711 0.31992 0.37155 0.0
C1865 C 0.87864 0.40347 0.38391 0.0
C1866 C 0.90859 0.39509 0.38666 0.0
C1867 C 0.92059 0.36799 0.38251 0.0
C1868 C 0.92803 0.41474 0.39357 0.0
C1869 C 0.86427 0.43182 0.38844 0.0
C1870 C 0.93694 0.44325 0.3897 0.0
C1871 C 0.95523 0.46196 0.39611 0.0
C1872 C 0.96509 0.45263 0.40657 0.0
C1873 C 0.95619 0.42392 0.41042 0.0
C1874 C 0.93794 0.40508 0.40394 0.0
H1875 H 0.8392 0.43132 0.38769 0.0
H1876 H 0.87032 0.43499 0.3972 0.0
H1877 H 0.87276 0.45171 0.3838 0.0
H1878 H 0.9299 0.45095 0.38166 0.0
H1879 H 0.96177 0.48374 0.39278 0.0
H1880 H 0.95589 0.5806 0.59105 0.0
H1881 H 0.9248 0.61671 0.60144 0.0
H1882 H 0.96151 0.58222 0.63172 0.0
H1883 H 0.99242 0.5463 0.62152 0.0
H1884 H 0.88099 0.59888 0.61827 0.0
H1885 H 0.96986 0.67577 0.63449 0.0
H1886 H 0.97586 0.65177 0.62269 0.0
H1887 H 0.97711 0.63604 0.63627 0.0
C1888 C 0.95764 0.58101 0.5999 0.0
C1889 C 0.97664 0.56051 0.60543 0.0
C1890 C 0.93983 0.60158 0.60583 0.0
C1891 C 0.94112 0.60233 0.61734 0.0
C1892 C 0.96051 0.58236 0.62284 0.0
H1893 H 0.84572 0.69784 0.6696 0.0
H1894 H 0.88056 0.66626 0.65886 0.0
C1895 C 0.97806 0.56169 0.61697 0.0
C1896 C 0.92084 0.62248 0.62372 0.0
H1897 H 0.92061 0.68085 0.6421 0.0
C1898 C 0.88958 0.61699 0.6234 0.0
C1899 C 0.93221 0.64576 0.63053 0.0
C1900 C 0.96557 0.65295 0.63099 0.0
C1901 C 0.86936 0.63383 0.62987 0.0
C1902 C 0.88066 0.65734 0.63663 0.0
C1903 C 0.91197 0.66282 0.63694 0.0
C1904 C 0.86017 0.67696 0.64318 0.0
C1905 C 0.83616 0.62569 0.62961 0.0
C1906 C 0.83763 0.69394 0.63793 0.0
C1907 C 0.81767 0.71173 0.64402 0.0
C1908 C 0.81997 0.71333 0.65553 0.0
C1909 C 0.84318 0.69701 0.66077 0.0
C1910 C 0.86312 0.67899 0.65464 0.0
H1911 H 0.83258 0.60207 0.62676 0.0
H1912 H 0.82565 0.62825 0.63784 0.0
H1913 H 0.82426 0.64097 0.62382 0.0
H1914 H 0.83541 0.69341 0.62909 0.0
H1915 H 0.80038 0.72422 0.63964 0.0
H1916 H 0.68691 0.69157 0.84137 0.0
H1917 H 0.65161 0.6604 0.85212 0.0
H1918 H 0.69212 0.69278 0.88205 0.0
H1919 H 0.7273 0.72369 0.87151 0.0
H1920 H 0.67034 0.61434 0.86845 0.0
H1921 H 0.59892 0.70536 0.88636 0.0
H1922 H 0.62136 0.71084 0.87412 0.0
H1923 H 0.63918 0.71089 0.88735 0.0
C1924 C 0.68812 0.69224 0.85024 0.0
C1925 C 0.70999 0.71016 0.85555 0.0
C1926 C 0.66798 0.67441 0.85636 0.0
C1927 C 0.66906 0.67459 0.86788 0.0
C1928 C 0.69059 0.69266 0.87318 0.0
H1929 H 0.57307 0.57929 0.92037 0.0
H1930 H 0.60548 0.61387 0.90978 0.0
C1931 C 0.71082 0.71022 0.86711 0.0
C1932 C 0.64885 0.65477 0.87443 0.0
H1933 H 0.59205 0.65588 0.89348 0.0
C1934 C 0.65306 0.62336 0.87386 0.0
C1935 C 0.62669 0.66669 0.88161 0.0
C1936 C 0.62099 0.70028 0.88238 0.0
C1937 C 0.63594 0.6035 0.88039 0.0
C1938 C 0.61341 0.61535 0.88747 0.0
C1939 C 0.60931 0.64682 0.88807 0.0
C1940 C 0.59318 0.59528 0.89397 0.0
C1941 C 0.64268 0.57004 0.87982 0.0
C1942 C 0.57498 0.57396 0.8886 0.0
C1943 C 0.55674 0.55419 0.89458 0.0
C1944 C 0.55586 0.55547 0.90613 0.0
C1945 C 0.5733 0.57759 0.91151 0.0
C1946 C 0.59181 0.59735 0.90547 0.0
H1947 H 0.666 0.56571 0.87678 0.0
H1948 H 0.64008 0.55913 0.88797 0.0
H1949 H 0.62665 0.55913 0.87403 0.0
H1950 H 0.57497 0.57248 0.87973 0.0
H1951 H 0.54336 0.53779 0.8901 0.0
H1952 H 0.43519 0.56319 0.9114 0.0
H1953 H 0.39386 0.5846 0.90102 0.0
H1954 H 0.37905 0.49874 0.88508 0.0
H1955 H 0.42195 0.47703 0.89528 0.0
H1956 H 0.37664 0.54162 0.87055 0.0
H1957 H 0.30515 0.57983 0.90464 0.0
H1958 H 0.34233 0.59491 0.90667 0.0
H1959 H 0.33661 0.55443 0.90677 0.0
C1960 C 0.42314 0.54851 0.90579 0.0
C1961 C 0.432 0.51818 0.90426 0.0
C1962 C 0.39906 0.56084 0.89992 0.0
C1963 C 0.3825 0.54317 0.89249 0.0
C1964 C 0.39115 0.51279 0.89089 0.0
H1965 H 0.23978 0.65722 0.86227 0.0
H1966 H 0.26148 0.61394 0.87229 0.0
C1967 C 0.41568 0.50039 0.89672 0.0
C1968 C 0.3581 0.55768 0.88584 0.0
H1969 H 0.30177 0.61045 0.88782 0.0
C1970 C 0.35979 0.55608 0.87435 0.0
C1971 C 0.33525 0.57587 0.89067 0.0
C1972 C 0.32954 0.57601 0.90287 0.0
C1973 C 0.34128 0.57423 0.86766 0.0
C1974 C 0.32133 0.59543 0.87256 0.0
C1975 C 0.31759 0.59491 0.884 0.0
C1976 C 0.30706 0.62043 0.86613 0.0
C1977 C 0.34388 0.57083 0.85538 0.0
C1978 C 0.32538 0.63888 0.85953 0.0
C1979 C 0.31307 0.66313 0.85375 0.0
C1980 C 0.28208 0.6703 0.85458 0.0
C1981 C 0.26367 0.65227 0.86138 0.0
C1982 C 0.27607 0.62752 0.8671 0.0
H1983 H 0.34908 0.54701 0.85314 0.0
H1984 H 0.32275 0.57774 0.85113 0.0
H1985 H 0.36285 0.58504 0.85235 0.0
H1986 H 0.34952 0.63491 0.85897 0.0
H1987 H 0.32822 0.67662 0.84876 0.0
H1988 H 0.10136 0.55628 0.59571 0.0
H1989 H 0.14384 0.57734 0.60557 0.0
H1990 H 0.14732 0.49815 0.62624 0.0
H1991 H 0.10328 0.47709 0.61656 0.0
H1992 H 0.15077 0.54557 0.63837 0.0
H1993 H 0.23216 0.56488 0.60512 0.0
H1994 H 0.19709 0.58199 0.6012 0.0
H1995 H 0.19904 0.54152 0.60322 0.0
C1996 C 0.11123 0.54291 0.60224 0.0
C1997 C 0.09868 0.51484 0.60531 0.0
C1998 C 0.13601 0.55496 0.60781 0.0
C1999 C 0.14956 0.53912 0.61649 0.0
C2000 C 0.13757 0.51072 0.61948 0.0
H2001 H 0.29328 0.65276 0.64692 0.0
H2002 H 0.27122 0.60829 0.63762 0.0
C2003 C 0.11239 0.49866 0.61393 0.0
C2004 C 0.17377 0.55416 0.62308 0.0
H2005 H 0.2344 0.60177 0.62034 0.0
C2006 C 0.16951 0.55717 0.63444 0.0
C2007 C 0.19897 0.56871 0.61814 0.0
C2008 C 0.20722 0.56374 0.60627 0.0
C2009 C 0.18785 0.57649 0.64073 0.0
C2010 C 0.21038 0.59419 0.63548 0.0
C2011 C 0.21661 0.58894 0.62435 0.0
C2012 C 0.2247 0.62061 0.64105 0.0
C2013 C 0.18217 0.57837 0.65292 0.0
C2014 C 0.20602 0.64277 0.64572 0.0
C2015 C 0.21843 0.66769 0.65105 0.0
C2016 C 0.25 0.67169 0.6517 0.0
C2017 C 0.26891 0.65023 0.64662 0.0
C2018 C 0.25632 0.62481 0.64134 0.0
H2019 H 0.17422 0.55626 0.65618 0.0
H2020 H 0.20285 0.58521 0.65746 0.0
H2021 H 0.16406 0.59521 0.65452 0.0
H2022 H 0.1816 0.64091 0.64521 0.0
H2023 H 0.20304 0.68403 0.65461 0.0
H2024 H 0.1102 0.5271 0.39938 0.0
H2025 H 0.15315 0.50621 0.38891 0.0
H2026 H 0.11655 0.41633 0.39292 0.0
H2027 H 0.07467 0.43665 0.40344 0.0
H2028 H 0.17603 0.41813 0.39801 0.0
H2029 H 0.15597 0.47385 0.3577 0.0
H2030 H 0.16028 0.49829 0.36938 0.0
H2031 H 0.12788 0.47388 0.36845 0.0
C2032 C 0.11126 0.50296 0.3979 0.0
C2033 C 0.0891 0.48356 0.40231 0.0
C2034 C 0.13578 0.49103 0.39191 0.0
C2035 C 0.13814 0.45962 0.39011 0.0
C2036 C 0.1155 0.44056 0.39427 0.0
H2037 H 0.20598 0.33912 0.34425 0.0
H2038 H 0.18279 0.37887 0.355 0.0
C2039 C 0.09143 0.4523 0.40029 0.0
C2040 C 0.16403 0.44568 0.38411 0.0
H2041 H 0.1944 0.43737 0.35852 0.0
C2042 C 0.18044 0.42264 0.3894 0.0
C2043 C 0.16978 0.45162 0.3729 0.0
C2044 C 0.1525 0.47559 0.3667 0.0
C2045 C 0.20074 0.40398 0.38365 0.0
C2046 C 0.20558 0.40907 0.37232 0.0
C2047 C 0.19075 0.43349 0.3672 0.0
C2048 C 0.22187 0.38671 0.36531 0.0
C2049 C 0.21502 0.37762 0.38961 0.0
C2050 C 0.25203 0.37798 0.36733 0.0
C2051 C 0.26549 0.3546 0.3612 0.0
C2052 C 0.24911 0.33982 0.35287 0.0
C2053 C 0.21942 0.34968 0.35061 0.0
C2054 C 0.20604 0.37267 0.35674 0.0
H2055 H 0.20447 0.37362 0.39776 0.0
H2056 H 0.21304 0.35655 0.3847 0.0
H2057 H 0.23942 0.38234 0.39092 0.0
H2058 H 0.265 0.38889 0.37374 0.0
H2059 H 0.28843 0.34778 0.36313 0.0
H2060 H 0.40512 0.47891 0.09219 0.0
H2061 H 0.36637 0.45461 0.10317 0.0
H2062 H 0.41282 0.48201 0.13266 0.0
H2063 H 0.45095 0.50823 0.12156 0.0
H2064 H 0.37706 0.4076 0.11509 0.0
H2065 H 0.32752 0.49474 0.14235 0.0
H2066 H 0.3508 0.50439 0.13069 0.0
H2067 H 0.36798 0.49274 0.1434 0.0
C2068 C 0.40677 0.48065 0.10099 0.0
C2069 C 0.43149 0.49531 0.10594 0.0
C2070 C 0.38451 0.46655 0.1073 0.0
C2071 C 0.38652 0.46622 0.11878 0.0
C2072 C 0.41029 0.48228 0.12383 0.0
H2073 H 0.31425 0.34445 0.16717 0.0
H2074 H 0.3396 0.38502 0.15722 0.0
C2075 C 0.43232 0.49712 0.11746 0.0
C2076 C 0.36585 0.44608 0.12518 0.0
H2077 H 0.31711 0.44299 0.14699 0.0
C2078 C 0.36367 0.41557 0.12197 0.0
C2079 C 0.34844 0.45622 0.13422 0.0
C2080 C 0.34854 0.48888 0.13781 0.0
C2081 C 0.34506 0.39497 0.12758 0.0
C2082 C 0.328 0.40501 0.13668 0.0
C2083 C 0.33007 0.43542 0.13995 0.0
C2084 C 0.30956 0.38349 0.14325 0.0
C2085 C 0.34442 0.36233 0.12392 0.0
C2086 C 0.2836 0.3697 0.13884 0.0
C2087 C 0.26876 0.34645 0.14456 0.0
C2088 C 0.27983 0.33642 0.15476 0.0
C2089 C 0.30503 0.3514 0.15934 0.0
C2090 C 0.3196 0.37473 0.15367 0.0
H2091 H 0.36242 0.35724 0.11783 0.0
H2092 H 0.34721 0.34696 0.13106 0.0
H2093 H 0.32216 0.35733 0.12011 0.0
H2094 H 0.27541 0.37626 0.13081 0.0
H2095 H 0.24945 0.33553 0.14078 0.0
loop_
_geom_bond_atom_site_label_1
_geom_bond_atom_site_label_2
_geom_bond_distance
_geom_bond_site_symmetry_2
_ccdc_geom_bond_type
Co0 O2 2.143 1_565 S
Co0 O8 2.074 1_455 S
Co0 O11 2.093 . S
Co0 O24 2.097 . S
Co0 N41 2.151 1_455 S
Co0 N49 2.214 1_455 S
Co1 O2 2.160 . S
Co1 O7 2.058 1_455 S
Co1 O17 2.057 . S
Co1 O32 2.037 . S
Co1 N36 2.145 . S
Co1 N57 2.257 . S
O2 Co0 2.143 1_545 S
O2 Co1 2.160 . S
C3 O4 1.278 . S
C3 O11 1.224 1_545 S
O4 C3 1.278 . S
C5 O6 1.245 . S
C5 O17 1.232 1_655 S
O6 C5 1.245 . S
O7 Co1 2.058 1_655 S
O7 C33 1.247 1_545 S
O8 Co0 2.074 1_655 S
O8 C33 1.272 . S
H9 C34 0.930 . S
H10 C40 0.930 . S
O11 Co0 2.093 . S
O11 C3 1.224 1_565 S
H12 C44 0.929 . S
H13 C46 0.930 . S
H14 C47 0.930 1_455 S
H15 C45 0.929 . S
H16 C48 0.928 . S
O17 Co1 2.057 . S
O17 C5 1.232 1_455 S
H18 C37 0.929 . S
H19 C38 0.929 . S
H20 C50 0.931 . S
H21 C42 0.929 . S
H22 C51 0.930 . S
H23 C43 0.931 . S
O24 Co0 2.097 . S
O24 C52 1.214 . S
H25 C53 0.929 . S
H26 C54 0.929 . S
H27 C55 0.930 . S
H28 C56 0.929 . S
H29 C58 0.930 . S
H30 C35 0.930 . S
H31 C39 0.930 . S
O32 Co1 2.037 . S
O32 C52 1.234 1_545 S
C33 O7 1.247 1_565 S
C33 O8 1.272 . S
C34 H9 0.930 . S
C34 C37 1.388 . S
C34 C39 1.418 . S
C35 H30 0.930 . S
C35 C38 1.404 . S
C35 C39 1.353 . S
N36 Co1 2.145 . S
N36 C37 1.397 . S
N36 C38 1.334 . S
C37 H18 0.929 . S
C37 C34 1.388 . S
C37 N36 1.397 . S
C38 H19 0.929 . S
C38 C35 1.404 . S
C38 N36 1.334 . S
C39 H31 0.930 . S
C39 C34 1.418 . S
C39 C35 1.353 . S
C40 H10 0.930 . S
C40 N41 1.330 1_545 S
C40 C42 1.446 . S
N41 Co0 2.151 1_655 S
N41 C40 1.330 1_565 S
N41 C45 1.418 . S
C42 H21 0.929 . S
C42 C40 1.446 . S
C42 C43 1.332 . S
C43 H23 0.931 . S
C43 C42 1.332 . S
C43 C44 1.267 1_545 S
C44 H12 0.929 . S
C44 C43 1.267 1_565 S
C44 C45 1.251 . S
C45 H15 0.929 . S
C45 N41 1.418 . S
C45 C44 1.251 . S
C46 H13 0.930 . S
C46 C48 1.406 . S
C46 C51 1.261 . S
C47 H14 0.930 1_655 S
C47 N49 1.325 . S
C47 C50 1.357 . S
C48 H16 0.928 . S
C48 C46 1.406 . S
C48 N49 1.261 . S
N49 Co0 2.214 1_655 S
N49 C47 1.325 . S
N49 C48 1.261 . S
C50 H20 0.931 . S
C50 C47 1.357 . S
C50 C51 1.312 . S
C51 H22 0.930 . S
C51 C46 1.261 . S
C51 C50 1.312 . S
C52 O24 1.214 . S
C52 O32 1.234 1_565 S
C53 H25 0.929 . S
C53 C56 1.391 . S
C53 C58 1.391 . S
C54 H26 0.929 . S
C54 C55 1.390 . S
C54 N57 1.391 . S
C55 H27 0.930 . S
C55 C54 1.390 . S
C55 C56 1.392 . S
C56 H28 0.929 . S
C56 C53 1.391 . S
C56 C55 1.392 . S
N57 Co1 2.257 . S
N57 C54 1.391 . S
N57 C58 1.388 . S
C58 H29 0.930 . S
C58 C53 1.391 . S
C58 N57 1.388 . S
Co59 O61 2.143 . S
Co59 O67 2.074 . S
Co59 O70 2.093 . S
Co59 O83 2.097 . S
Co59 N100 2.151 . S
Co59 N108 2.214 . S
Co60 O61 2.160 . S
Co60 O66 2.058 . S
Co60 O76 2.057 . S
Co60 O91 2.037 . S
Co60 N95 2.145 . S
Co60 N116 2.257 . S
O61 Co59 2.143 . S
O61 Co60 2.160 . S
C62 O63 1.278 . S
C62 O70 1.224 . S
O63 C62 1.278 . S
C64 O65 1.245 . S
C64 O76 1.232 . S
O65 C64 1.245 . S
O66 Co60 2.058 . S
O66 C92 1.269 . S
O67 Co59 2.074 . S
O67 C92 1.257 . S
H68 C93 0.930 . S
H69 C99 0.930 . S
O70 Co59 2.093 . S
O70 C62 1.224 . S
H71 C103 0.929 . S
H72 C105 0.930 . S
H73 C106 0.930 . S
H74 C104 0.929 . S
H75 C107 0.928 . S
O76 Co60 2.057 . S
O76 C64 1.232 . S
H77 C96 0.929 . S
H78 C97 0.929 . S
H79 C109 0.931 . S
H80 C101 0.929 . S
H81 C110 0.930 . S
H82 C102 0.931 . S
O83 Co59 2.097 . S
O83 C111 1.214 . S
H84 C112 0.929 . S
H85 C113 0.929 . S
H86 C114 0.930 . S
H87 C115 0.929 . S
H88 C117 0.930 . S
H89 C94 0.930 . S
H90 C98 0.930 . S
O91 Co60 2.037 . S
O91 C111 1.234 . S
C92 O66 1.269 . S
C92 O67 1.257 . S
C93 H68 0.930 . S
C93 C96 1.388 . S
C93 C98 1.418 . S
C94 H89 0.930 . S
C94 C97 1.404 . S
C94 C98 1.353 . S
N95 Co60 2.145 . S
N95 C96 1.397 . S
N95 C97 1.334 . S
C96 H77 0.929 . S
C96 C93 1.388 . S
C96 N95 1.397 . S
C97 H78 0.929 . S
C97 C94 1.404 . S
C97 N95 1.334 . S
C98 H90 0.930 . S
C98 C93 1.418 . S
C98 C94 1.353 . S
C99 H69 0.930 . S
C99 N100 1.330 . S
C99 C101 1.446 . S
N100 Co59 2.151 . S
N100 C99 1.330 . S
N100 C104 1.418 . S
C101 H80 0.929 . S
C101 C99 1.446 . S
C101 C102 1.332 . S
C102 H82 0.931 . S
C102 C101 1.332 . S
C102 C103 1.267 . S
C103 H71 0.929 . S
C103 C102 1.267 . S
C103 C104 1.251 . S
C104 H74 0.929 . S
C104 N100 1.418 . S
C104 C103 1.251 . S
C105 H72 0.930 . S
C105 C107 1.406 . S
C105 C110 1.261 . S
C106 H73 0.930 . S
C106 N108 1.325 . S
C106 C109 1.357 . S
C107 H75 0.928 . S
C107 C105 1.406 . S
C107 N108 1.261 . S
N108 Co59 2.214 . S
N108 C106 1.325 . S
N108 C107 1.261 . S
C109 H79 0.931 . S
C109 C106 1.357 . S
C109 C110 1.312 . S
C110 H81 0.930 . S
C110 C105 1.261 . S
C110 C109 1.312 . S
C111 O83 1.214 . S
C111 O91 1.234 . S
C112 H84 0.929 . S
C112 C115 1.391 . S
C112 C117 1.391 . S
C113 H85 0.929 . S
C113 C114 1.390 . S
C113 N116 1.391 . S
C114 H86 0.930 . S
C114 C113 1.390 . S
C114 C115 1.392 . S
C115 H87 0.929 . S
C115 C112 1.391 . S
C115 C114 1.392 . S
N116 Co60 2.257 . S
N116 C113 1.391 . S
N116 C117 1.388 . S
C117 H88 0.930 . S
C117 C112 1.391 . S
C117 N116 1.388 . S
Co118 O120 2.143 1_545 S
Co118 O126 2.074 . S
Co118 O129 2.093 . S
Co118 O142 2.097 . S
Co118 N159 2.151 . S
Co118 N167 2.214 . S
Co119 O120 2.160 . S
Co119 O125 2.058 . S
Co119 O135 2.057 . S
Co119 O150 2.037 . S
Co119 N154 2.145 . S
Co119 N175 2.257 . S
O120 Co118 2.143 1_565 S
O120 Co119 2.160 . S
C121 O122 1.278 . S
C121 O129 1.224 1_565 S
O122 C121 1.278 . S
C123 O124 1.245 . S
C123 O135 1.232 . S
O124 C123 1.245 . S
O125 Co119 2.058 . S
O125 C151 1.248 1_565 S
O126 Co118 2.074 . S
O126 C151 1.272 . S
H127 C152 0.930 . S
H128 C158 0.930 . S
O129 Co118 2.093 . S
O129 C121 1.224 1_545 S
H130 C162 0.929 . S
H131 C164 0.930 . S
H132 C165 0.930 . S
H133 C163 0.929 . S
H134 C166 0.928 . S
O135 Co119 2.057 . S
O135 C123 1.232 . S
H136 C155 0.929 . S
H137 C156 0.929 . S
H138 C168 0.931 . S
H139 C160 0.929 . S
H140 C169 0.930 . S
H141 C161 0.931 . S
O142 Co118 2.097 . S
O142 C170 1.214 . S
H143 C171 0.929 . S
H144 C172 0.929 . S
H145 C173 0.930 . S
H146 C174 0.929 . S
H147 C176 0.930 . S
H148 C153 0.930 . S
H149 C157 0.930 . S
O150 Co119 2.037 . S
O150 C170 1.234 1_565 S
C151 O125 1.248 1_545 S
C151 O126 1.272 . S
C152 H127 0.930 . S
C152 C155 1.388 . S
C152 C157 1.418 . S
C153 H148 0.930 . S
C153 C156 1.404 . S
C153 C157 1.353 . S
N154 Co119 2.145 . S
N154 C155 1.397 . S
N154 C156 1.334 . S
C155 H136 0.929 . S
C155 C152 1.388 . S
C155 N154 1.397 . S
C156 H137 0.929 . S
C156 C153 1.404 . S
C156 N154 1.334 . S
C157 H149 0.930 . S
C157 C152 1.418 . S
C157 C153 1.353 . S
C158 H128 0.930 . S
C158 N159 1.330 1_565 S
C158 C160 1.446 . S
N159 Co118 2.151 . S
N159 C158 1.330 1_545 S
N159 C163 1.418 . S
C160 H139 0.929 . S
C160 C158 1.446 . S
C160 C161 1.332 . S
C161 H141 0.931 . S
C161 C160 1.332 . S
C161 C162 1.267 1_565 S
C162 H130 0.929 . S
C162 C161 1.267 1_545 S
C162 C163 1.251 . S
C163 H133 0.929 . S
C163 N159 1.418 . S
C163 C162 1.251 . S
C164 H131 0.930 . S
C164 C166 1.406 . S
C164 C169 1.261 . S
C165 H132 0.930 . S
C165 N167 1.325 . S
C165 C168 1.357 . S
C166 H134 0.928 . S
C166 C164 1.406 . S
C166 N167 1.261 . S
N167 Co118 2.214 . S
N167 C165 1.325 . S
N167 C166 1.261 . S
C168 H138 0.931 . S
C168 C165 1.357 . S
C168 C169 1.312 . S
C169 H140 0.930 . S
C169 C164 1.261 . S
C169 C168 1.312 . S
C170 O142 1.214 . S
C170 O150 1.234 1_545 S
C171 H143 0.929 . S
C171 C174 1.391 . S
C171 C176 1.391 . S
C172 H144 0.929 . S
C172 C173 1.390 . S
C172 N175 1.391 . S
C173 H145 0.930 . S
C173 C172 1.390 . S
C173 C174 1.392 . S
C174 H146 0.929 . S
C174 C171 1.391 . S
C174 C173 1.392 . S
N175 Co119 2.257 . S
N175 C172 1.391 . S
N175 C176 1.388 . S
C176 H147 0.930 . S
C176 C171 1.391 . S
C176 N175 1.388 . S
Co177 O179 2.143 . S
Co177 O185 2.074 . S
Co177 O188 2.093 . S
Co177 O201 2.097 . S
Co177 N218 2.151 . S
Co177 N226 2.214 . S
Co178 O179 2.160 . S
Co178 O184 2.058 . S
Co178 O194 2.057 . S
Co178 O209 2.037 . S
Co178 N213 2.145 . S
Co178 N234 2.257 . S
O179 Co177 2.143 . S
O179 Co178 2.160 . S
C180 O181 1.278 . S
C180 O188 1.224 . S
O181 C180 1.278 . S
C182 O183 1.245 . S
C182 O194 1.232 . S
O183 C182 1.245 . S
O184 Co178 2.058 . S
O184 C210 1.269 . S
O185 Co177 2.074 . S
O185 C210 1.257 . S
H186 C211 0.930 . S
H187 C217 0.930 . S
O188 Co177 2.093 . S
O188 C180 1.224 . S
H189 C221 0.929 . S
H190 C223 0.930 . S
H191 C224 0.930 . S
H192 C222 0.929 . S
H193 C225 0.928 . S
O194 Co178 2.057 . S
O194 C182 1.232 . S
H195 C214 0.929 . S
H196 C215 0.929 . S
H197 C227 0.931 . S
H198 C219 0.929 . S
H199 C228 0.930 . S
H200 C220 0.931 . S
O201 Co177 2.097 . S
O201 C229 1.214 . S
H202 C230 0.929 . S
H203 C231 0.929 . S
H204 C232 0.930 . S
H205 C233 0.929 . S
H206 C235 0.930 . S
H207 C212 0.930 . S
H208 C216 0.930 . S
O209 Co178 2.037 . S
O209 C229 1.234 . S
C210 O184 1.269 . S
C210 O185 1.257 . S
C211 H186 0.930 . S
C211 C214 1.388 . S
C211 C216 1.418 . S
C212 H207 0.930 . S
C212 C215 1.404 . S
C212 C216 1.353 . S
N213 Co178 2.145 . S
N213 C214 1.397 . S
N213 C215 1.334 . S
C214 H195 0.929 . S
C214 C211 1.388 . S
C214 N213 1.397 . S
C215 H196 0.929 . S
C215 C212 1.404 . S
C215 N213 1.334 . S
C216 H208 0.930 . S
C216 C211 1.418 . S
C216 C212 1.353 . S
C217 H187 0.930 . S
C217 N218 1.330 . S
C217 C219 1.446 . S
N218 Co177 2.151 . S
N218 C217 1.330 . S
N218 C222 1.418 . S
C219 H198 0.929 . S
C219 C217 1.446 . S
C219 C220 1.332 . S
C220 H200 0.931 . S
C220 C219 1.332 . S
C220 C221 1.267 . S
C221 H189 0.929 . S
C221 C220 1.267 . S
C221 C222 1.251 . S
C222 H192 0.929 . S
C222 N218 1.418 . S
C222 C221 1.251 . S
C223 H190 0.930 . S
C223 C225 1.406 . S
C223 C228 1.261 . S
C224 H191 0.930 . S
C224 N226 1.325 . S
C224 C227 1.357 . S
C225 H193 0.928 . S
C225 C223 1.406 . S
C225 N226 1.261 . S
N226 Co177 2.214 . S
N226 C224 1.325 . S
N226 C225 1.261 . S
C227 H197 0.931 . S
C227 C224 1.357 . S
C227 C228 1.312 . S
C228 H199 0.930 . S
C228 C223 1.261 . S
C228 C227 1.312 . S
C229 O201 1.214 . S
C229 O209 1.234 . S
C230 H202 0.929 . S
C230 C233 1.391 . S
C230 C235 1.391 . S
C231 H203 0.929 . S
C231 C232 1.390 . S
C231 N234 1.391 . S
C232 H204 0.930 . S
C232 C231 1.390 . S
C232 C233 1.392 . S
C233 H205 0.929 . S
C233 C230 1.391 . S
C233 C232 1.392 . S
N234 Co178 2.257 . S
N234 C231 1.391 . S
N234 C235 1.388 . S
C235 H206 0.930 . S
C235 C230 1.391 . S
C235 N234 1.388 . S
Co236 O238 2.143 1_545 S
Co236 O244 2.074 1_455 S
Co236 O247 2.093 . S
Co236 O260 2.097 . S
Co236 N277 2.151 1_455 S
Co236 N285 2.214 1_455 S
Co237 O238 2.160 . S
Co237 O243 2.058 1_455 S
Co237 O253 2.057 . S
Co237 O268 2.037 . S
Co237 N272 2.145 . S
Co237 N293 2.257 . S
O238 Co236 2.143 1_565 S
O238 Co237 2.160 . S
C239 O240 1.278 . S
C239 O247 1.224 1_565 S
O240 C239 1.278 . S
C241 O242 1.245 . S
C241 O253 1.232 1_655 S
O242 C241 1.245 . S
O243 Co237 2.058 1_655 S
O243 C269 1.247 1_565 S
O244 Co236 2.074 1_655 S
O244 C269 1.272 . S
H245 C270 0.930 . S
H246 C276 0.930 . S
O247 Co236 2.093 . S
O247 C239 1.224 1_545 S
H248 C280 0.929 . S
H249 C282 0.930 . S
H250 C283 0.930 1_455 S
H251 C281 0.929 . S
H252 C284 0.928 . S
O253 Co237 2.057 . S
O253 C241 1.232 1_455 S
H254 C273 0.929 . S
H255 C274 0.929 . S
H256 C286 0.931 . S
H257 C278 0.929 . S
H258 C287 0.930 . S
H259 C279 0.931 . S
O260 Co236 2.097 . S
O260 C288 1.214 . S
H261 C289 0.929 . S
H262 C290 0.929 . S
H263 C291 0.930 . S
H264 C292 0.929 . S
H265 C294 0.930 . S
H266 C271 0.930 . S
H267 C275 0.930 . S
O268 Co237 2.037 . S
O268 C288 1.234 1_565 S
C269 O243 1.247 1_545 S
C269 O244 1.272 . S
C270 H245 0.930 . S
C270 C273 1.388 . S
C270 C275 1.418 . S
C271 H266 0.930 . S
C271 C274 1.404 . S
C271 C275 1.353 . S
N272 Co237 2.145 . S
N272 C273 1.397 . S
N272 C274 1.334 . S
C273 H254 0.929 . S
C273 C270 1.388 . S
C273 N272 1.397 . S
C274 H255 0.929 . S
C274 C271 1.404 . S
C274 N272 1.334 . S
C275 H267 0.930 . S
C275 C270 1.418 . S
C275 C271 1.353 . S
C276 H246 0.930 . S
C276 N277 1.330 1_565 S
C276 C278 1.446 . S
N277 Co236 2.151 1_655 S
N277 C276 1.330 1_545 S
N277 C281 1.418 . S
C278 H257 0.929 . S
C278 C276 1.446 . S
C278 C279 1.332 . S
C279 H259 0.931 . S
C279 C278 1.332 . S
C279 C280 1.267 1_565 S
C280 H248 0.929 . S
C280 C279 1.267 1_545 S
C280 C281 1.251 . S
C281 H251 0.929 . S
C281 N277 1.418 . S
C281 C280 1.251 . S
C282 H249 0.930 . S
C282 C284 1.406 . S
C282 C287 1.261 . S
C283 H250 0.930 1_655 S
C283 N285 1.325 . S
C283 C286 1.357 . S
C284 H252 0.928 . S
C284 C282 1.406 . S
C284 N285 1.261 . S
N285 Co236 2.214 1_655 S
N285 C283 1.325 . S
N285 C284 1.261 . S
C286 H256 0.931 . S
C286 C283 1.357 . S
C286 C287 1.312 . S
C287 H258 0.930 . S
C287 C282 1.261 . S
C287 C286 1.312 . S
C288 O260 1.214 . S
C288 O268 1.234 1_545 S
C289 H261 0.929 . S
C289 C292 1.391 . S
C289 C294 1.391 . S
C290 H262 0.929 . S
C290 C291 1.390 . S
C290 N293 1.391 . S
C291 H263 0.930 . S
C291 C290 1.390 . S
C291 C292 1.392 . S
C292 H264 0.929 . S
C292 C289 1.391 . S
C292 C291 1.392 . S
N293 Co237 2.257 . S
N293 C290 1.391 . S
N293 C294 1.388 . S
C294 H265 0.930 . S
C294 C289 1.391 . S
C294 N293 1.388 . S
Co295 O297 2.143 . S
Co295 O303 2.074 . S
Co295 O306 2.093 . S
Co295 O319 2.097 . S
Co295 N336 2.151 . S
Co295 N344 2.214 . S
Co296 O297 2.160 . S
Co296 O302 2.058 . S
Co296 O312 2.057 . S
Co296 O327 2.037 . S
Co296 N331 2.145 . S
Co296 N352 2.257 . S
O297 Co295 2.143 . S
O297 Co296 2.160 . S
C298 O299 1.278 . S
C298 O306 1.224 . S
O299 C298 1.278 . S
C300 O301 1.245 . S
C300 O312 1.232 . S
O301 C300 1.245 . S
O302 Co296 2.058 . S
O302 C328 1.269 . S
O303 Co295 2.074 . S
O303 C328 1.257 . S
H304 C329 0.930 . S
H305 C335 0.930 . S
O306 Co295 2.093 . S
O306 C298 1.224 . S
H307 C339 0.929 . S
H308 C341 0.930 . S
H309 C342 0.930 . S
H310 C340 0.929 . S
H311 C343 0.928 . S
O312 Co296 2.057 . S
O312 C300 1.232 . S
H313 C332 0.929 . S
H314 C333 0.929 . S
H315 C345 0.931 . S
H316 C337 0.929 . S
H317 C346 0.930 . S
H318 C338 0.931 . S
O319 Co295 2.097 . S
O319 C347 1.214 . S
H320 C348 0.929 . S
H321 C349 0.929 . S
H322 C350 0.930 . S
H323 C351 0.929 . S
H324 C353 0.930 . S
H325 C330 0.930 . S
H326 C334 0.930 . S
O327 Co296 2.037 . S
O327 C347 1.234 . S
C328 O302 1.269 . S
C328 O303 1.257 . S
C329 H304 0.930 . S
C329 C332 1.388 . S
C329 C334 1.418 . S
C330 H325 0.930 . S
C330 C333 1.404 . S
C330 C334 1.353 . S
N331 Co296 2.145 . S
N331 C332 1.397 . S
N331 C333 1.334 . S
C332 H313 0.929 . S
C332 C329 1.388 . S
C332 N331 1.397 . S
C333 H314 0.929 . S
C333 C330 1.404 . S
C333 N331 1.334 . S
C334 H326 0.930 . S
C334 C329 1.418 . S
C334 C330 1.353 . S
C335 H305 0.930 . S
C335 N336 1.330 . S
C335 C337 1.446 . S
N336 Co295 2.151 . S
N336 C335 1.330 . S
N336 C340 1.418 . S
C337 H316 0.929 . S
C337 C335 1.446 . S
C337 C338 1.332 . S
C338 H318 0.931 . S
C338 C337 1.332 . S
C338 C339 1.267 . S
C339 H307 0.929 . S
C339 C338 1.267 . S
C339 C340 1.251 . S
C340 H310 0.929 . S
C340 N336 1.418 . S
C340 C339 1.251 . S
C341 H308 0.930 . S
C341 C343 1.406 . S
C341 C346 1.261 . S
C342 H309 0.930 . S
C342 N344 1.325 . S
C342 C345 1.357 . S
C343 H311 0.928 . S
C343 C341 1.406 . S
C343 N344 1.261 . S
N344 Co295 2.214 . S
N344 C342 1.325 . S
N344 C343 1.261 . S
C345 H315 0.931 . S
C345 C342 1.357 . S
C345 C346 1.312 . S
C346 H317 0.930 . S
C346 C341 1.261 . S
C346 C345 1.312 . S
C347 O319 1.214 . S
C347 O327 1.234 . S
C348 H320 0.929 . S
C348 C351 1.391 . S
C348 C353 1.391 . S
C349 H321 0.929 . S
C349 C350 1.390 . S
C349 N352 1.391 . S
C350 H322 0.930 . S
C350 C349 1.390 . S
C350 C351 1.392 . S
C351 H323 0.929 . S
C351 C348 1.391 . S
C351 C350 1.392 . S
N352 Co296 2.257 . S
N352 C349 1.391 . S
N352 C353 1.388 . S
C353 H324 0.930 . S
C353 C348 1.391 . S
C353 N352 1.388 . S
Co354 O356 2.143 1_565 S
Co354 O362 2.074 . S
Co354 O365 2.093 . S
Co354 O378 2.097 . S
Co354 N395 2.151 . S
Co354 N403 2.214 . S
Co355 O356 2.160 . S
Co355 O361 2.058 . S
Co355 O371 2.057 . S
Co355 O386 2.037 . S
Co355 N390 2.145 . S
Co355 N411 2.257 . S
O356 Co354 2.143 1_545 S
O356 Co355 2.160 . S
C357 O358 1.278 . S
C357 O365 1.224 1_545 S
O358 C357 1.278 . S
C359 O360 1.245 . S
C359 O371 1.232 . S
O360 C359 1.245 . S
O361 Co355 2.058 . S
O361 C387 1.248 1_545 S
O362 Co354 2.074 . S
O362 C387 1.272 . S
H363 C388 0.930 . S
H364 C394 0.930 . S
O365 Co354 2.093 . S
O365 C357 1.224 1_565 S
H366 C398 0.929 . S
H367 C400 0.930 . S
H368 C401 0.930 . S
H369 C399 0.929 . S
H370 C402 0.928 . S
O371 Co355 2.057 . S
O371 C359 1.232 . S
H372 C391 0.929 . S
H373 C392 0.929 . S
H374 C404 0.931 . S
H375 C396 0.929 . S
H376 C405 0.930 . S
H377 C397 0.931 . S
O378 Co354 2.097 . S
O378 C406 1.214 . S
H379 C407 0.929 . S
H380 C408 0.929 . S
H381 C409 0.930 . S
H382 C410 0.929 . S
H383 C412 0.930 . S
H384 C389 0.930 . S
H385 C393 0.930 . S
O386 Co355 2.037 . S
O386 C406 1.234 1_545 S
C387 O361 1.248 1_565 S
C387 O362 1.272 . S
C388 H363 0.930 . S
C388 C391 1.388 . S
C388 C393 1.418 . S
C389 H384 0.930 . S
C389 C392 1.404 . S
C389 C393 1.353 . S
N390 Co355 2.145 . S
N390 C391 1.397 . S
N390 C392 1.334 . S
C391 H372 0.929 . S
C391 C388 1.388 . S
C391 N390 1.397 . S
C392 H373 0.929 . S
C392 C389 1.404 . S
C392 N390 1.334 . S
C393 H385 0.930 . S
C393 C388 1.418 . S
C393 C389 1.353 . S
C394 H364 0.930 . S
C394 N395 1.330 1_545 S
C394 C396 1.446 . S
N395 Co354 2.151 . S
N395 C394 1.330 1_565 S
N395 C399 1.418 . S
C396 H375 0.929 . S
C396 C394 1.446 . S
C396 C397 1.332 . S
C397 H377 0.931 . S
C397 C396 1.332 . S
C397 C398 1.267 1_545 S
C398 H366 0.929 . S
C398 C397 1.267 1_565 S
C398 C399 1.251 . S
C399 H369 0.929 . S
C399 N395 1.418 . S
C399 C398 1.251 . S
C400 H367 0.930 . S
C400 C402 1.406 . S
C400 C405 1.261 . S
C401 H368 0.930 . S
C401 N403 1.325 . S
C401 C404 1.357 . S
C402 H370 0.928 . S
C402 C400 1.406 . S
C402 N403 1.261 . S
N403 Co354 2.214 . S
N403 C401 1.325 . S
N403 C402 1.261 . S
C404 H374 0.931 . S
C404 C401 1.357 . S
C404 C405 1.312 . S
C405 H376 0.930 . S
C405 C400 1.261 . S
C405 C404 1.312 . S
C406 O378 1.214 . S
C406 O386 1.234 1_565 S
C407 H379 0.929 . S
C407 C410 1.391 . S
C407 C412 1.391 . S
C408 H380 0.929 . S
C408 C409 1.390 . S
C408 N411 1.391 . S
C409 H381 0.930 . S
C409 C408 1.390 . S
C409 C410 1.392 . S
C410 H382 0.929 . S
C410 C407 1.391 . S
C410 C409 1.392 . S
N411 Co355 2.257 . S
N411 C408 1.391 . S
N411 C412 1.388 . S
C412 H383 0.930 . S
C412 C407 1.391 . S
C412 N411 1.388 . S
Co413 O415 2.143 . S
Co413 O421 2.074 . S
Co413 O424 2.093 . S
Co413 O437 2.097 . S
Co413 N454 2.151 . S
Co413 N462 2.214 . S
Co414 O415 2.160 . S
Co414 O420 2.058 . S
Co414 O430 2.057 . S
Co414 O445 2.037 . S
Co414 N449 2.145 . S
Co414 N470 2.257 . S
O415 Co413 2.143 . S
O415 Co414 2.160 . S
C416 O417 1.278 . S
C416 O424 1.224 . S
O417 C416 1.278 . S
C418 O419 1.245 . S
C418 O430 1.232 . S
O419 C418 1.245 . S
O420 Co414 2.058 . S
O420 C446 1.269 . S
O421 Co413 2.074 . S
O421 C446 1.257 . S
H422 C447 0.930 . S
H423 C453 0.930 . S
O424 Co413 2.093 . S
O424 C416 1.224 . S
H425 C457 0.929 . S
H426 C459 0.930 . S
H427 C460 0.930 . S
H428 C458 0.929 . S
H429 C461 0.928 . S
O430 Co414 2.057 . S
O430 C418 1.232 . S
H431 C450 0.929 . S
H432 C451 0.929 . S
H433 C463 0.931 . S
H434 C455 0.929 . S
H435 C464 0.930 . S
H436 C456 0.931 . S
O437 Co413 2.097 . S
O437 C465 1.214 . S
H438 C466 0.929 . S
H439 C467 0.929 . S
H440 C468 0.930 . S
H441 C469 0.929 . S
H442 C471 0.930 . S
H443 C448 0.930 . S
H444 C452 0.930 . S
O445 Co414 2.037 . S
O445 C465 1.234 . S
C446 O420 1.269 . S
C446 O421 1.257 . S
C447 H422 0.930 . S
C447 C450 1.388 . S
C447 C452 1.418 . S
C448 H443 0.930 . S
C448 C451 1.404 . S
C448 C452 1.353 . S
N449 Co414 2.145 . S
N449 C450 1.397 . S
N449 C451 1.334 . S
C450 H431 0.929 . S
C450 C447 1.388 . S
C450 N449 1.397 . S
C451 H432 0.929 . S
C451 C448 1.404 . S
C451 N449 1.334 . S
C452 H444 0.930 . S
C452 C447 1.418 . S
C452 C448 1.353 . S
C453 H423 0.930 . S
C453 N454 1.330 . S
C453 C455 1.446 . S
N454 Co413 2.151 . S
N454 C453 1.330 . S
N454 C458 1.418 . S
C455 H434 0.929 . S
C455 C453 1.446 . S
C455 C456 1.332 . S
C456 H436 0.931 . S
C456 C455 1.332 . S
C456 C457 1.267 . S
C457 H425 0.929 . S
C457 C456 1.267 . S
C457 C458 1.251 . S
C458 H428 0.929 . S
C458 N454 1.418 . S
C458 C457 1.251 . S
C459 H426 0.930 . S
C459 C461 1.406 . S
C459 C464 1.261 . S
C460 H427 0.930 . S
C460 N462 1.325 . S
C460 C463 1.357 . S
C461 H429 0.928 . S
C461 C459 1.406 . S
C461 N462 1.261 . S
N462 Co413 2.214 . S
N462 C460 1.325 . S
N462 C461 1.261 . S
C463 H433 0.931 . S
C463 C460 1.357 . S
C463 C464 1.312 . S
C464 H435 0.930 . S
C464 C459 1.261 . S
C464 C463 1.312 . S
C465 O437 1.214 . S
C465 O445 1.234 . S
C466 H438 0.929 . S
C466 C469 1.391 . S
C466 C471 1.391 . S
C467 H439 0.929 . S
C467 C468 1.390 . S
C467 N470 1.391 . S
C468 H440 0.930 . S
C468 C467 1.390 . S
C468 C469 1.392 . S
C469 H441 0.929 . S
C469 C466 1.391 . S
C469 C468 1.392 . S
N470 Co414 2.257 . S
N470 C467 1.391 . S
N470 C471 1.388 . S
C471 H442 0.930 . S
C471 C466 1.391 . S
C471 N470 1.388 . S
Co472 O474 2.143 . S
Co472 O480 2.074 . S
Co472 O483 2.093 . S
Co472 O496 2.097 . S
Co472 N513 2.151 . S
Co472 N521 2.214 . S
Co473 O474 2.160 . S
Co473 O479 2.058 . S
Co473 O489 2.057 . S
Co473 O504 2.037 . S
Co473 N508 2.145 . S
Co473 N529 2.257 . S
O474 Co472 2.143 . S
O474 Co473 2.160 . S
C475 O476 1.278 . S
C475 O483 1.224 . S
O476 C475 1.278 . S
C477 O478 1.245 . S
C477 O489 1.232 . S
O478 C477 1.245 . S
O479 Co473 2.058 . S
O479 C505 1.269 . S
O480 Co472 2.074 . S
O480 C505 1.257 . S
H481 C506 0.930 . S
H482 C512 0.930 . S
O483 Co472 2.093 . S
O483 C475 1.224 . S
H484 C516 0.929 . S
H485 C518 0.930 . S
H486 C519 0.930 . S
H487 C517 0.929 . S
H488 C520 0.928 . S
O489 Co473 2.057 . S
O489 C477 1.232 . S
H490 C509 0.929 . S
H491 C510 0.929 . S
H492 C522 0.931 . S
H493 C514 0.929 . S
H494 C523 0.930 . S
H495 C515 0.931 . S
O496 Co472 2.097 . S
O496 C524 1.214 . S
H497 C525 0.929 . S
H498 C526 0.929 . S
H499 C527 0.930 . S
H500 C528 0.929 . S
H501 C530 0.930 . S
H502 C507 0.930 . S
H503 C511 0.930 . S
O504 Co473 2.037 . S
O504 C524 1.234 . S
C505 O479 1.269 . S
C505 O480 1.257 . S
C506 H481 0.930 . S
C506 C509 1.388 . S
C506 C511 1.418 . S
C507 H502 0.930 . S
C507 C510 1.404 . S
C507 C511 1.353 . S
N508 Co473 2.145 . S
N508 C509 1.397 . S
N508 C510 1.334 . S
C509 H490 0.929 . S
C509 C506 1.388 . S
C509 N508 1.397 . S
C510 H491 0.929 . S
C510 C507 1.404 . S
C510 N508 1.334 . S
C511 H503 0.930 . S
C511 C506 1.418 . S
C511 C507 1.353 . S
C512 H482 0.930 . S
C512 N513 1.330 . S
C512 C514 1.446 . S
N513 Co472 2.151 . S
N513 C512 1.330 . S
N513 C517 1.418 . S
C514 H493 0.929 . S
C514 C512 1.446 . S
C514 C515 1.332 . S
C515 H495 0.931 . S
C515 C514 1.332 . S
C515 C516 1.267 . S
C516 H484 0.929 . S
C516 C515 1.267 . S
C516 C517 1.251 . S
C517 H487 0.929 . S
C517 N513 1.418 . S
C517 C516 1.251 . S
C518 H485 0.930 . S
C518 C520 1.406 . S
C518 C523 1.261 . S
C519 H486 0.930 . S
C519 N521 1.325 . S
C519 C522 1.357 . S
C520 H488 0.928 . S
C520 C518 1.406 . S
C520 N521 1.261 . S
N521 Co472 2.214 . S
N521 C519 1.325 . S
N521 C520 1.261 . S
C522 H492 0.931 . S
C522 C519 1.357 . S
C522 C523 1.312 . S
C523 H494 0.930 . S
C523 C518 1.261 . S
C523 C522 1.312 . S
C524 O496 1.214 . S
C524 O504 1.234 . S
C525 H497 0.929 . S
C525 C528 1.391 . S
C525 C530 1.391 . S
C526 H498 0.929 . S
C526 C527 1.390 . S
C526 N529 1.391 . S
C527 H499 0.930 . S
C527 C526 1.390 . S
C527 C528 1.392 . S
C528 H500 0.929 . S
C528 C525 1.391 . S
C528 C527 1.392 . S
N529 Co473 2.257 . S
N529 C526 1.391 . S
N529 C530 1.388 . S
C530 H501 0.930 . S
C530 C525 1.391 . S
C530 N529 1.388 . S
Co531 O533 2.143 . S
Co531 O539 2.074 . S
Co531 O542 2.093 . S
Co531 O555 2.097 . S
Co531 N572 2.151 . S
Co531 N580 2.214 . S
Co532 O533 2.160 . S
Co532 O538 2.058 . S
Co532 O548 2.057 . S
Co532 O563 2.037 . S
Co532 N567 2.145 . S
Co532 N588 2.257 . S
O533 Co531 2.143 . S
O533 Co532 2.160 . S
C534 O535 1.278 . S
C534 O542 1.224 . S
O535 C534 1.278 . S
C536 O537 1.245 . S
C536 O548 1.232 . S
O537 C536 1.245 . S
O538 Co532 2.058 . S
O538 C564 1.269 . S
O539 Co531 2.074 . S
O539 C564 1.257 . S
H540 C565 0.930 . S
H541 C571 0.930 . S
O542 Co531 2.093 . S
O542 C534 1.224 . S
H543 C575 0.929 . S
H544 C577 0.930 . S
H545 C578 0.930 . S
H546 C576 0.929 . S
H547 C579 0.928 . S
O548 Co532 2.057 . S
O548 C536 1.232 . S
H549 C568 0.929 . S
H550 C569 0.929 . S
H551 C581 0.931 . S
H552 C573 0.929 . S
H553 C582 0.930 . S
H554 C574 0.931 . S
O555 Co531 2.097 . S
O555 C583 1.214 . S
H556 C584 0.929 . S
H557 C585 0.929 . S
H558 C586 0.930 . S
H559 C587 0.929 . S
H560 C589 0.930 . S
H561 C566 0.930 . S
H562 C570 0.930 . S
O563 Co532 2.037 . S
O563 C583 1.234 . S
C564 O538 1.269 . S
C564 O539 1.257 . S
C565 H540 0.930 . S
C565 C568 1.388 . S
C565 C570 1.418 . S
C566 H561 0.930 . S
C566 C569 1.404 . S
C566 C570 1.353 . S
N567 Co532 2.145 . S
N567 C568 1.397 . S
N567 C569 1.334 . S
C568 H549 0.929 . S
C568 C565 1.388 . S
C568 N567 1.397 . S
C569 H550 0.929 . S
C569 C566 1.404 . S
C569 N567 1.334 . S
C570 H562 0.930 . S
C570 C565 1.418 . S
C570 C566 1.353 . S
C571 H541 0.930 . S
C571 N572 1.330 . S
C571 C573 1.446 . S
N572 Co531 2.151 . S
N572 C571 1.330 . S
N572 C576 1.418 . S
C573 H552 0.929 . S
C573 C571 1.446 . S
C573 C574 1.332 . S
C574 H554 0.931 . S
C574 C573 1.332 . S
C574 C575 1.267 . S
C575 H543 0.929 . S
C575 C574 1.267 . S
C575 C576 1.251 . S
C576 H546 0.929 . S
C576 N572 1.418 . S
C576 C575 1.251 . S
C577 H544 0.930 . S
C577 C579 1.406 . S
C577 C582 1.261 . S
C578 H545 0.930 . S
C578 N580 1.325 . S
C578 C581 1.357 . S
C579 H547 0.928 . S
C579 C577 1.406 . S
C579 N580 1.261 . S
N580 Co531 2.214 . S
N580 C578 1.325 . S
N580 C579 1.261 . S
C581 H551 0.931 . S
C581 C578 1.357 . S
C581 C582 1.312 . S
C582 H553 0.930 . S
C582 C577 1.261 . S
C582 C581 1.312 . S
C583 O555 1.214 . S
C583 O563 1.234 . S
C584 H556 0.929 . S
C584 C587 1.391 . S
C584 C589 1.391 . S
C585 H557 0.929 . S
C585 C586 1.390 . S
C585 N588 1.391 . S
C586 H558 0.930 . S
C586 C585 1.390 . S
C586 C587 1.392 . S
C587 H559 0.929 . S
C587 C584 1.391 . S
C587 C586 1.392 . S
N588 Co532 2.257 . S
N588 C585 1.391 . S
N588 C589 1.388 . S
C589 H560 0.930 . S
C589 C584 1.391 . S
C589 N588 1.388 . S
Co590 O592 2.143 . S
Co590 O598 2.074 . S
Co590 O601 2.093 . S
Co590 O614 2.097 . S
Co590 N631 2.151 . S
Co590 N639 2.214 . S
Co591 O592 2.160 . S
Co591 O597 2.058 . S
Co591 O607 2.057 . S
Co591 O622 2.037 . S
Co591 N626 2.145 . S
Co591 N647 2.257 . S
O592 Co590 2.143 . S
O592 Co591 2.160 . S
C593 O594 1.278 . S
C593 O601 1.224 . S
O594 C593 1.278 . S
C595 O596 1.245 . S
C595 O607 1.232 . S
O596 C595 1.245 . S
O597 Co591 2.058 . S
O597 C623 1.269 . S
O598 Co590 2.074 . S
O598 C623 1.257 . S
H599 C624 0.930 . S
H600 C630 0.930 . S
O601 Co590 2.093 . S
O601 C593 1.224 . S
H602 C634 0.929 . S
H603 C636 0.930 . S
H604 C637 0.930 . S
H605 C635 0.929 . S
H606 C638 0.928 . S
O607 Co591 2.057 . S
O607 C595 1.232 . S
H608 C627 0.929 . S
H609 C628 0.929 . S
H610 C640 0.931 . S
H611 C632 0.929 . S
H612 C641 0.930 . S
H613 C633 0.931 . S
O614 Co590 2.097 . S
O614 C642 1.214 . S
H615 C643 0.929 . S
H616 C644 0.929 . S
H617 C645 0.930 . S
H618 C646 0.929 . S
H619 C648 0.930 . S
H620 C625 0.930 . S
H621 C629 0.930 . S
O622 Co591 2.037 . S
O622 C642 1.234 . S
C623 O597 1.269 . S
C623 O598 1.257 . S
C624 H599 0.930 . S
C624 C627 1.388 . S
C624 C629 1.418 . S
C625 H620 0.930 . S
C625 C628 1.404 . S
C625 C629 1.353 . S
N626 Co591 2.145 . S
N626 C627 1.397 . S
N626 C628 1.334 . S
C627 H608 0.929 . S
C627 C624 1.388 . S
C627 N626 1.397 . S
C628 H609 0.929 . S
C628 C625 1.404 . S
C628 N626 1.334 . S
C629 H621 0.930 . S
C629 C624 1.418 . S
C629 C625 1.353 . S
C630 H600 0.930 . S
C630 N631 1.330 . S
C630 C632 1.446 . S
N631 Co590 2.151 . S
N631 C630 1.330 . S
N631 C635 1.418 . S
C632 H611 0.929 . S
C632 C630 1.446 . S
C632 C633 1.332 . S
C633 H613 0.931 . S
C633 C632 1.332 . S
C633 C634 1.267 . S
C634 H602 0.929 . S
C634 C633 1.267 . S
C634 C635 1.251 . S
C635 H605 0.929 . S
C635 N631 1.418 . S
C635 C634 1.251 . S
C636 H603 0.930 . S
C636 C638 1.406 . S
C636 C641 1.261 . S
C637 H604 0.930 . S
C637 N639 1.325 . S
C637 C640 1.357 . S
C638 H606 0.928 . S
C638 C636 1.406 . S
C638 N639 1.261 . S
N639 Co590 2.214 . S
N639 C637 1.325 . S
N639 C638 1.261 . S
C640 H610 0.931 . S
C640 C637 1.357 . S
C640 C641 1.312 . S
C641 H612 0.930 . S
C641 C636 1.261 . S
C641 C640 1.312 . S
C642 O614 1.214 . S
C642 O622 1.234 . S
C643 H615 0.929 . S
C643 C646 1.391 . S
C643 C648 1.391 . S
C644 H616 0.929 . S
C644 C645 1.390 . S
C644 N647 1.391 . S
C645 H617 0.930 . S
C645 C644 1.390 . S
C645 C646 1.392 . S
C646 H618 0.929 . S
C646 C643 1.391 . S
C646 C645 1.392 . S
N647 Co591 2.257 . S
N647 C644 1.391 . S
N647 C648 1.388 . S
C648 H619 0.930 . S
C648 C643 1.391 . S
C648 N647 1.388 . S
Co649 O651 2.143 . S
Co649 O657 2.074 . S
Co649 O660 2.093 . S
Co649 O673 2.097 . S
Co649 N690 2.151 . S
Co649 N698 2.214 . S
Co650 O651 2.160 . S
Co650 O656 2.058 . S
Co650 O666 2.057 . S
Co650 O681 2.037 . S
Co650 N685 2.145 . S
Co650 N706 2.257 . S
O651 Co649 2.143 . S
O651 Co650 2.160 . S
C652 O653 1.278 . S
C652 O660 1.224 . S
O653 C652 1.278 . S
C654 O655 1.245 . S
C654 O666 1.232 . S
O655 C654 1.245 . S
O656 Co650 2.058 . S
O656 C682 1.269 . S
O657 Co649 2.074 . S
O657 C682 1.257 . S
H658 C683 0.930 . S
H659 C689 0.930 . S
O660 Co649 2.093 . S
O660 C652 1.224 . S
H661 C693 0.929 . S
H662 C695 0.930 . S
H663 C696 0.930 . S
H664 C694 0.929 . S
H665 C697 0.928 . S
O666 Co650 2.057 . S
O666 C654 1.232 . S
H667 C686 0.929 . S
H668 C687 0.929 . S
H669 C699 0.931 . S
H670 C691 0.929 . S
H671 C700 0.930 . S
H672 C692 0.931 . S
O673 Co649 2.097 . S
O673 C701 1.214 . S
H674 C702 0.929 . S
H675 C703 0.929 . S
H676 C704 0.930 . S
H677 C705 0.929 . S
H678 C707 0.930 . S
H679 C684 0.930 . S
H680 C688 0.930 . S
O681 Co650 2.037 . S
O681 C701 1.234 . S
C682 O656 1.269 . S
C682 O657 1.257 . S
C683 H658 0.930 . S
C683 C686 1.388 . S
C683 C688 1.418 . S
C684 H679 0.930 . S
C684 C687 1.404 . S
C684 C688 1.353 . S
N685 Co650 2.145 . S
N685 C686 1.397 . S
N685 C687 1.334 . S
C686 H667 0.929 . S
C686 C683 1.388 . S
C686 N685 1.397 . S
C687 H668 0.929 . S
C687 C684 1.404 . S
C687 N685 1.334 . S
C688 H680 0.930 . S
C688 C683 1.418 . S
C688 C684 1.353 . S
C689 H659 0.930 . S
C689 N690 1.330 . S
C689 C691 1.446 . S
N690 Co649 2.151 . S
N690 C689 1.330 . S
N690 C694 1.418 . S
C691 H670 0.929 . S
C691 C689 1.446 . S
C691 C692 1.332 . S
C692 H672 0.931 . S
C692 C691 1.332 . S
C692 C693 1.267 . S
C693 H661 0.929 . S
C693 C692 1.267 . S
C693 C694 1.251 . S
C694 H664 0.929 . S
C694 N690 1.418 . S
C694 C693 1.251 . S
C695 H662 0.930 . S
C695 C697 1.406 . S
C695 C700 1.261 . S
C696 H663 0.930 . S
C696 N698 1.325 . S
C696 C699 1.357 . S
C697 H665 0.928 . S
C697 C695 1.406 . S
C697 N698 1.261 . S
N698 Co649 2.214 . S
N698 C696 1.325 . S
N698 C697 1.261 . S
C699 H669 0.931 . S
C699 C696 1.357 . S
C699 C700 1.312 . S
C700 H671 0.930 . S
C700 C695 1.261 . S
C700 C699 1.312 . S
C701 O673 1.214 . S
C701 O681 1.234 . S
C702 H674 0.929 . S
C702 C705 1.391 . S
C702 C707 1.391 . S
C703 H675 0.929 . S
C703 C704 1.390 . S
C703 N706 1.391 . S
C704 H676 0.930 . S
C704 C703 1.390 . S
C704 C705 1.392 . S
C705 H677 0.929 . S
C705 C702 1.391 . S
C705 C704 1.392 . S
N706 Co650 2.257 . S
N706 C703 1.391 . S
N706 C707 1.388 . S
C707 H678 0.930 . S
C707 C702 1.391 . S
C707 N706 1.388 . S
Co708 O710 2.143 . S
Co708 O716 2.074 . S
Co708 O719 2.093 . S
Co708 O732 2.097 . S
Co708 N749 2.151 . S
Co708 N757 2.214 . S
Co709 O710 2.160 . S
Co709 O715 2.058 . S
Co709 O725 2.057 . S
Co709 O740 2.037 . S
Co709 N744 2.145 . S
Co709 N765 2.257 . S
O710 Co708 2.143 . S
O710 Co709 2.160 . S
C711 O712 1.278 . S
C711 O719 1.224 . S
O712 C711 1.278 . S
C713 O714 1.245 . S
C713 O725 1.232 . S
O714 C713 1.245 . S
O715 Co709 2.058 . S
O715 C741 1.269 . S
O716 Co708 2.074 . S
O716 C741 1.257 . S
H717 C742 0.930 . S
H718 C748 0.930 . S
O719 Co708 2.093 . S
O719 C711 1.224 . S
H720 C752 0.929 . S
H721 C754 0.930 . S
H722 C755 0.930 . S
H723 C753 0.929 . S
H724 C756 0.928 . S
O725 Co709 2.057 . S
O725 C713 1.232 . S
H726 C745 0.929 . S
H727 C746 0.929 . S
H728 C758 0.931 . S
H729 C750 0.929 . S
H730 C759 0.930 . S
H731 C751 0.931 . S
O732 Co708 2.097 . S
O732 C760 1.214 . S
H733 C761 0.929 . S
H734 C762 0.929 . S
H735 C763 0.930 . S
H736 C764 0.929 . S
H737 C766 0.930 . S
H738 C743 0.930 . S
H739 C747 0.930 . S
O740 Co709 2.037 . S
O740 C760 1.234 . S
C741 O715 1.269 . S
C741 O716 1.257 . S
C742 H717 0.930 . S
C742 C745 1.388 . S
C742 C747 1.418 . S
C743 H738 0.930 . S
C743 C746 1.404 . S
C743 C747 1.353 . S
N744 Co709 2.145 . S
N744 C745 1.397 . S
N744 C746 1.334 . S
C745 H726 0.929 . S
C745 C742 1.388 . S
C745 N744 1.397 . S
C746 H727 0.929 . S
C746 C743 1.404 . S
C746 N744 1.334 . S
C747 H739 0.930 . S
C747 C742 1.418 . S
C747 C743 1.353 . S
C748 H718 0.930 . S
C748 N749 1.330 . S
C748 C750 1.446 . S
N749 Co708 2.151 . S
N749 C748 1.330 . S
N749 C753 1.418 . S
C750 H729 0.929 . S
C750 C748 1.446 . S
C750 C751 1.332 . S
C751 H731 0.931 . S
C751 C750 1.332 . S
C751 C752 1.267 . S
C752 H720 0.929 . S
C752 C751 1.267 . S
C752 C753 1.251 . S
C753 H723 0.929 . S
C753 N749 1.418 . S
C753 C752 1.251 . S
C754 H721 0.930 . S
C754 C756 1.406 . S
C754 C759 1.261 . S
C755 H722 0.930 . S
C755 N757 1.325 . S
C755 C758 1.357 . S
C756 H724 0.928 . S
C756 C754 1.406 . S
C756 N757 1.261 . S
N757 Co708 2.214 . S
N757 C755 1.325 . S
N757 C756 1.261 . S
C758 H728 0.931 . S
C758 C755 1.357 . S
C758 C759 1.312 . S
C759 H730 0.930 . S
C759 C754 1.261 . S
C759 C758 1.312 . S
C760 O732 1.214 . S
C760 O740 1.234 . S
C761 H733 0.929 . S
C761 C764 1.391 . S
C761 C766 1.391 . S
C762 H734 0.929 . S
C762 C763 1.390 . S
C762 N765 1.391 . S
C763 H735 0.930 . S
C763 C762 1.390 . S
C763 C764 1.392 . S
C764 H736 0.929 . S
C764 C761 1.391 . S
C764 C763 1.392 . S
N765 Co709 2.257 . S
N765 C762 1.391 . S
N765 C766 1.388 . S
C766 H737 0.930 . S
C766 C761 1.391 . S
C766 N765 1.388 . S
Co767 O769 2.143 . S
Co767 O775 2.074 . S
Co767 O778 2.093 . S
Co767 O791 2.097 1_455 S
Co767 N808 2.151 . S
Co767 N816 2.214 . S
Co768 O769 2.160 1_655 S
Co768 O774 2.058 1_655 S
Co768 O784 2.057 1_655 S
Co768 O799 2.037 . S
Co768 N803 2.145 . S
Co768 N824 2.257 . S
O769 Co767 2.143 . S
O769 Co768 2.160 1_455 S
C770 O771 1.278 . S
C770 O778 1.224 1_655 S
O771 C770 1.278 . S
C772 O773 1.245 . S
C772 O784 1.232 . S
O773 C772 1.245 . S
O774 Co768 2.058 1_455 S
O774 C800 1.269 . S
O775 Co767 2.074 . S
O775 C800 1.257 . S
H776 C801 0.930 . S
H777 C807 0.930 . S
O778 Co767 2.093 . S
O778 C770 1.224 1_455 S
H779 C811 0.929 . S
H780 C813 0.930 . S
H781 C814 0.930 . S
H782 C812 0.929 . S
H783 C815 0.928 . S
O784 Co768 2.057 1_455 S
O784 C772 1.232 . S
H785 C804 0.929 . S
H786 C805 0.929 . S
H787 C817 0.931 . S
H788 C809 0.929 . S
H789 C818 0.930 . S
H790 C810 0.931 . S
O791 Co767 2.097 1_655 S
O791 C819 1.214 . S
H792 C820 0.929 . S
H793 C821 0.929 . S
H794 C822 0.930 . S
H795 C823 0.929 . S
H796 C825 0.930 . S
H797 C802 0.930 . S
H798 C806 0.930 . S
O799 Co768 2.037 . S
O799 C819 1.234 . S
C800 O774 1.269 . S
C800 O775 1.257 . S
C801 H776 0.930 . S
C801 C804 1.388 . S
C801 C806 1.418 . S
C802 H797 0.930 . S
C802 C805 1.404 . S
C802 C806 1.353 . S
N803 Co768 2.145 . S
N803 C804 1.397 . S
N803 C805 1.334 . S
C804 H785 0.929 . S
C804 C801 1.388 . S
C804 N803 1.397 . S
C805 H786 0.929 . S
C805 C802 1.404 . S
C805 N803 1.334 . S
C806 H798 0.930 . S
C806 C801 1.418 . S
C806 C802 1.353 . S
C807 H777 0.930 . S
C807 N808 1.330 . S
C807 C809 1.446 . S
N808 Co767 2.151 . S
N808 C807 1.330 . S
N808 C812 1.418 . S
C809 H788 0.929 . S
C809 C807 1.446 . S
C809 C810 1.332 . S
C810 H790 0.931 . S
C810 C809 1.332 . S
C810 C811 1.267 . S
C811 H779 0.929 . S
C811 C810 1.267 . S
C811 C812 1.251 . S
C812 H782 0.929 . S
C812 N808 1.418 . S
C812 C811 1.251 . S
C813 H780 0.930 . S
C813 C815 1.406 . S
C813 C818 1.261 . S
C814 H781 0.930 . S
C814 N816 1.325 . S
C814 C817 1.357 . S
C815 H783 0.928 . S
C815 C813 1.406 . S
C815 N816 1.261 . S
N816 Co767 2.214 . S
N816 C814 1.325 . S
N816 C815 1.261 . S
C817 H787 0.931 . S
C817 C814 1.357 . S
C817 C818 1.312 . S
C818 H789 0.930 . S
C818 C813 1.261 . S
C818 C817 1.312 . S
C819 O791 1.214 . S
C819 O799 1.234 . S
C820 H792 0.929 . S
C820 C823 1.391 . S
C820 C825 1.391 . S
C821 H793 0.929 . S
C821 C822 1.390 . S
C821 N824 1.391 . S
C822 H794 0.930 . S
C822 C821 1.390 . S
C822 C823 1.392 . S
C823 H795 0.929 . S
C823 C820 1.391 . S
C823 C822 1.392 . S
N824 Co768 2.257 . S
N824 C821 1.391 . S
N824 C825 1.388 . S
C825 H796 0.930 . S
C825 C820 1.391 . S
C825 N824 1.388 . S
Co826 O828 2.143 . S
Co826 O834 2.074 . S
Co826 O837 2.093 . S
Co826 O850 2.097 . S
Co826 N867 2.151 . S
Co826 N875 2.214 . S
Co827 O828 2.160 . S
Co827 O833 2.058 . S
Co827 O843 2.057 . S
Co827 O858 2.037 . S
Co827 N862 2.145 . S
Co827 N883 2.257 . S
O828 Co826 2.143 . S
O828 Co827 2.160 . S
C829 O830 1.278 . S
C829 O837 1.224 . S
O830 C829 1.278 . S
C831 O832 1.245 . S
C831 O843 1.232 . S
O832 C831 1.245 . S
O833 Co827 2.058 . S
O833 C859 1.269 . S
O834 Co826 2.074 . S
O834 C859 1.257 . S
H835 C860 0.930 . S
H836 C866 0.930 . S
O837 Co826 2.093 . S
O837 C829 1.224 . S
H838 C870 0.929 . S
H839 C872 0.930 . S
H840 C873 0.930 . S
H841 C871 0.929 . S
H842 C874 0.928 . S
O843 Co827 2.057 . S
O843 C831 1.232 . S
H844 C863 0.929 . S
H845 C864 0.929 . S
H846 C876 0.931 . S
H847 C868 0.929 . S
H848 C877 0.930 . S
H849 C869 0.931 . S
O850 Co826 2.097 . S
O850 C878 1.214 . S
H851 C879 0.929 . S
H852 C880 0.929 . S
H853 C881 0.930 . S
H854 C882 0.929 . S
H855 C884 0.930 . S
H856 C861 0.930 . S
H857 C865 0.930 . S
O858 Co827 2.037 . S
O858 C878 1.234 . S
C859 O833 1.269 . S
C859 O834 1.257 . S
C860 H835 0.930 . S
C860 C863 1.388 . S
C860 C865 1.418 . S
C861 H856 0.930 . S
C861 C864 1.404 . S
C861 C865 1.353 . S
N862 Co827 2.145 . S
N862 C863 1.397 . S
N862 C864 1.334 . S
C863 H844 0.929 . S
C863 C860 1.388 . S
C863 N862 1.397 . S
C864 H845 0.929 . S
C864 C861 1.404 . S
C864 N862 1.334 . S
C865 H857 0.930 . S
C865 C860 1.418 . S
C865 C861 1.353 . S
C866 H836 0.930 . S
C866 N867 1.330 . S
C866 C868 1.446 . S
N867 Co826 2.151 . S
N867 C866 1.330 . S
N867 C871 1.418 . S
C868 H847 0.929 . S
C868 C866 1.446 . S
C868 C869 1.332 . S
C869 H849 0.931 . S
C869 C868 1.332 . S
C869 C870 1.267 . S
C870 H838 0.929 . S
C870 C869 1.267 . S
C870 C871 1.251 . S
C871 H841 0.929 . S
C871 N867 1.418 . S
C871 C870 1.251 . S
C872 H839 0.930 . S
C872 C874 1.406 . S
C872 C877 1.261 . S
C873 H840 0.930 . S
C873 N875 1.325 . S
C873 C876 1.357 . S
C874 H842 0.928 . S
C874 C872 1.406 . S
C874 N875 1.261 . S
N875 Co826 2.214 . S
N875 C873 1.325 . S
N875 C874 1.261 . S
C876 H846 0.931 . S
C876 C873 1.357 . S
C876 C877 1.312 . S
C877 H848 0.930 . S
C877 C872 1.261 . S
C877 C876 1.312 . S
C878 O850 1.214 . S
C878 O858 1.234 . S
C879 H851 0.929 . S
C879 C882 1.391 . S
C879 C884 1.391 . S
C880 H852 0.929 . S
C880 C881 1.390 . S
C880 N883 1.391 . S
C881 H853 0.930 . S
C881 C880 1.390 . S
C881 C882 1.392 . S
C882 H854 0.929 . S
C882 C879 1.391 . S
C882 C881 1.392 . S
N883 Co827 2.257 . S
N883 C880 1.391 . S
N883 C884 1.388 . S
C884 H855 0.930 . S
C884 C879 1.391 . S
C884 N883 1.388 . S
Co885 O887 2.143 . S
Co885 O893 2.074 . S
Co885 O896 2.093 . S
Co885 O909 2.097 1_455 S
Co885 N926 2.151 . S
Co885 N934 2.214 . S
Co886 O887 2.160 1_655 S
Co886 O892 2.058 1_655 S
Co886 O902 2.057 1_655 S
Co886 O917 2.037 . S
Co886 N921 2.145 . S
Co886 N942 2.257 . S
O887 Co885 2.143 . S
O887 Co886 2.160 1_455 S
C888 O889 1.278 . S
C888 O896 1.224 1_655 S
O889 C888 1.278 . S
C890 O891 1.245 . S
C890 O902 1.232 . S
O891 C890 1.245 . S
O892 Co886 2.058 1_455 S
O892 C918 1.269 . S
O893 Co885 2.074 . S
O893 C918 1.257 . S
H894 C919 0.930 . S
H895 C925 0.930 . S
O896 Co885 2.093 . S
O896 C888 1.224 1_455 S
H897 C929 0.929 . S
H898 C931 0.930 . S
H899 C932 0.930 . S
H900 C930 0.929 . S
H901 C933 0.928 . S
O902 Co886 2.057 1_455 S
O902 C890 1.232 . S
H903 C922 0.929 . S
H904 C923 0.929 . S
H905 C935 0.931 . S
H906 C927 0.929 . S
H907 C936 0.930 . S
H908 C928 0.931 . S
O909 Co885 2.097 1_655 S
O909 C937 1.214 . S
H910 C938 0.929 . S
H911 C939 0.929 . S
H912 C940 0.930 . S
H913 C941 0.929 . S
H914 C943 0.930 . S
H915 C920 0.930 . S
H916 C924 0.930 . S
O917 Co886 2.037 . S
O917 C937 1.234 . S
C918 O892 1.269 . S
C918 O893 1.257 . S
C919 H894 0.930 . S
C919 C922 1.388 . S
C919 C924 1.418 . S
C920 H915 0.930 . S
C920 C923 1.404 . S
C920 C924 1.353 . S
N921 Co886 2.145 . S
N921 C922 1.397 . S
N921 C923 1.334 . S
C922 H903 0.929 . S
C922 C919 1.388 . S
C922 N921 1.397 . S
C923 H904 0.929 . S
C923 C920 1.404 . S
C923 N921 1.334 . S
C924 H916 0.930 . S
C924 C919 1.418 . S
C924 C920 1.353 . S
C925 H895 0.930 . S
C925 N926 1.330 . S
C925 C927 1.446 . S
N926 Co885 2.151 . S
N926 C925 1.330 . S
N926 C930 1.418 . S
C927 H906 0.929 . S
C927 C925 1.446 . S
C927 C928 1.332 . S
C928 H908 0.931 . S
C928 C927 1.332 . S
C928 C929 1.267 . S
C929 H897 0.929 . S
C929 C928 1.267 . S
C929 C930 1.251 . S
C930 H900 0.929 . S
C930 N926 1.418 . S
C930 C929 1.251 . S
C931 H898 0.930 . S
C931 C933 1.406 . S
C931 C936 1.261 . S
C932 H899 0.930 . S
C932 N934 1.325 . S
C932 C935 1.357 . S
C933 H901 0.928 . S
C933 C931 1.406 . S
C933 N934 1.261 . S
N934 Co885 2.214 . S
N934 C932 1.325 . S
N934 C933 1.261 . S
C935 H905 0.931 . S
C935 C932 1.357 . S
C935 C936 1.312 . S
C936 H907 0.930 . S
C936 C931 1.261 . S
C936 C935 1.312 . S
C937 O909 1.214 . S
C937 O917 1.234 . S
C938 H910 0.929 . S
C938 C941 1.391 . S
C938 C943 1.391 . S
C939 H911 0.929 . S
C939 C940 1.390 . S
C939 N942 1.391 . S
C940 H912 0.930 . S
C940 C939 1.390 . S
C940 C941 1.392 . S
C941 H913 0.929 . S
C941 C938 1.391 . S
C941 C940 1.392 . S
N942 Co886 2.257 . S
N942 C939 1.391 . S
N942 C943 1.388 . S
C943 H914 0.930 . S
C943 C938 1.391 . S
C943 N942 1.388 . S
H944 C952 0.929 . S
H945 C954 0.930 . S
H946 C956 0.930 . S
H947 C959 0.929 . S
H948 C962 0.942 . S
H949 C964 0.960 . S
H950 C964 0.960 . S
H951 C964 0.960 . S
C952 H944 0.929 . S
C952 C953 1.377 . S
C952 C954 1.384 . S
C953 C952 1.377 . S
C953 C959 1.390 1_655 S
C954 H945 0.930 . S
C954 C952 1.384 . S
C954 C955 1.372 1_655 S
C955 C954 1.372 1_455 S
C955 C956 1.400 . S
C955 C960 1.490 . S
C956 H946 0.930 . S
C956 C955 1.400 . S
C956 C959 1.386 . S
H957 C973 0.930 . S
H958 C974 0.931 . S
C959 H947 0.929 . S
C959 C953 1.390 1_455 S
C959 C956 1.386 . S
C960 C955 1.490 . S
C960 C962 1.387 1_455 S
C960 C963 1.403 . S
H961 C967 0.930 . S
C962 H948 0.942 . S
C962 C960 1.387 1_655 S
C962 C965 1.400 1_655 S
C963 C960 1.403 . S
C963 C964 1.524 . S
C963 C967 1.400 . S
C964 H949 0.960 . S
C964 H950 0.960 . S
C964 H951 0.960 . S
C964 C963 1.524 . S
C965 C962 1.400 1_455 S
C965 C966 1.392 . S
C965 C969 1.495 1_455 S
C966 C965 1.392 . S
C966 C967 1.385 . S
C966 C968 1.478 . S
C967 H961 0.930 . S
C967 C963 1.400 . S
C967 C966 1.385 . S
C968 C966 1.478 . S
C968 C970 1.381 1_455 S
C968 C974 1.383 . S
C969 C965 1.495 1_655 S
C969 H975 0.959 . S
C969 H976 0.961 1_655 S
C969 H977 0.960 . S
C970 C968 1.381 1_655 S
C970 C971 1.399 . S
C970 H978 0.930 . S
C971 C970 1.399 . S
C971 C972 1.355 1_655 S
C971 H979 0.953 . S
C972 C971 1.355 1_455 S
C972 C973 1.377 . S
C973 H957 0.930 . S
C973 C972 1.377 . S
C973 C974 1.379 . S
C974 H958 0.931 . S
C974 C968 1.383 . S
C974 C973 1.379 . S
H975 C969 0.959 . S
H976 C969 0.961 1_455 S
H977 C969 0.960 . S
H978 C970 0.930 . S
H979 C971 0.953 . S
H980 C988 0.929 . S
H981 C990 0.930 . S
H982 C992 0.930 . S
H983 C995 0.929 . S
H984 C998 0.930 . S
H985 C1000 0.960 1_455 S
H986 C1000 0.960 . S
H987 C1000 0.960 . S
C988 H980 0.929 . S
C988 C989 1.377 . S
C988 C990 1.384 . S
C989 C988 1.377 . S
C989 C995 1.390 . S
C990 H981 0.930 . S
C990 C988 1.384 . S
C990 C991 1.372 . S
C991 C990 1.372 . S
C991 C992 1.400 . S
C991 C996 1.490 . S
C992 H982 0.930 . S
C992 C991 1.400 . S
C992 C995 1.386 . S
H993 C1009 0.930 . S
H994 C1010 0.931 . S
C995 H983 0.929 . S
C995 C989 1.390 . S
C995 C992 1.386 . S
C996 C991 1.490 . S
C996 C998 1.395 . S
C996 C999 1.403 1_655 S
H997 C1003 0.930 . S
C998 H984 0.930 . S
C998 C996 1.395 . S
C998 C1001 1.403 1_655 S
C999 C996 1.403 1_455 S
C999 C1000 1.524 1_455 S
C999 C1003 1.400 . S
C1000 H985 0.960 1_655 S
C1000 H986 0.960 . S
C1000 H987 0.960 . S
C1000 C999 1.524 1_655 S
C1001 C998 1.403 1_455 S
C1001 C1002 1.392 . S
C1001 C1005 1.495 . S
C1002 C1001 1.392 . S
C1002 C1003 1.385 . S
C1002 C1004 1.478 . S
C1003 H997 0.930 . S
C1003 C999 1.400 . S
C1003 C1002 1.385 . S
C1004 C1002 1.478 . S
C1004 C1006 1.381 . S
C1004 C1010 1.383 . S
C1005 C1001 1.495 . S
C1005 H1011 0.959 . S
C1005 H1012 0.961 . S
C1005 H1013 0.960 . S
C1006 C1004 1.381 . S
C1006 C1007 1.394 . S
C1006 H1014 0.930 . S
C1007 C1006 1.394 . S
C1007 C1008 1.383 . S
C1007 H1015 0.929 . S
C1008 C1007 1.383 . S
C1008 C1009 1.377 . S
C1009 H993 0.930 . S
C1009 C1008 1.377 . S
C1009 C1010 1.379 . S
C1010 H994 0.931 . S
C1010 C1004 1.383 . S
C1010 C1009 1.379 . S
H1011 C1005 0.959 . S
H1012 C1005 0.961 . S
H1013 C1005 0.960 . S
H1014 C1006 0.930 . S
H1015 C1007 0.929 . S
H1016 C1024 0.929 . S
H1017 C1026 0.930 . S
H1018 C1028 0.930 . S
H1019 C1031 0.929 . S
H1020 C1034 0.930 . S
H1021 C1036 0.960 . S
H1022 C1036 0.960 . S
H1023 C1036 0.960 . S
C1024 H1016 0.929 . S
C1024 C1025 1.377 . S
C1024 C1026 1.384 . S
C1025 C1024 1.377 . S
C1025 C1031 1.390 . S
C1026 H1017 0.930 . S
C1026 C1024 1.384 . S
C1026 C1027 1.372 . S
C1027 C1026 1.372 . S
C1027 C1028 1.400 . S
C1027 C1032 1.490 . S
C1028 H1018 0.930 . S
C1028 C1027 1.400 . S
C1028 C1031 1.386 . S
H1029 C1045 0.930 . S
H1030 C1046 0.931 . S
C1031 H1019 0.929 . S
C1031 C1025 1.390 . S
C1031 C1028 1.386 . S
C1032 C1027 1.490 . S
C1032 C1034 1.395 . S
C1032 C1035 1.403 . S
H1033 C1039 0.930 . S
C1034 H1020 0.930 . S
C1034 C1032 1.395 . S
C1034 C1037 1.403 . S
C1035 C1032 1.403 . S
C1035 C1036 1.524 . S
C1035 C1039 1.400 . S
C1036 H1021 0.960 . S
C1036 H1022 0.960 . S
C1036 H1023 0.960 . S
C1036 C1035 1.524 . S
C1037 C1034 1.403 . S
C1037 C1038 1.392 . S
C1037 C1041 1.495 . S
C1038 C1037 1.392 . S
C1038 C1039 1.385 . S
C1038 C1040 1.478 . S
C1039 H1033 0.930 . S
C1039 C1035 1.400 . S
C1039 C1038 1.385 . S
C1040 C1038 1.478 . S
C1040 C1042 1.381 . S
C1040 C1046 1.383 . S
C1041 C1037 1.495 . S
C1041 H1047 0.959 . S
C1041 H1048 0.961 . S
C1041 H1049 0.960 . S
C1042 C1040 1.381 . S
C1042 C1043 1.394 . S
C1042 H1050 0.930 . S
C1043 C1042 1.394 . S
C1043 C1044 1.383 . S
C1043 H1051 0.929 . S
C1044 C1043 1.383 . S
C1044 C1045 1.377 . S
C1045 H1029 0.930 . S
C1045 C1044 1.377 . S
C1045 C1046 1.379 . S
C1046 H1030 0.931 . S
C1046 C1040 1.383 . S
C1046 C1045 1.379 . S
H1047 C1041 0.959 . S
H1048 C1041 0.961 . S
H1049 C1041 0.960 . S
H1050 C1042 0.930 . S
H1051 C1043 0.929 . S
H1052 C1060 0.929 . S
H1053 C1062 0.930 . S
H1054 C1064 0.930 . S
H1055 C1067 0.929 . S
H1056 C1070 0.930 . S
H1057 C1072 0.960 . S
H1058 C1072 0.960 . S
H1059 C1072 0.960 . S
C1060 H1052 0.929 . S
C1060 C1061 1.377 . S
C1060 C1062 1.384 . S
C1061 C1060 1.377 . S
C1061 C1067 1.390 . S
C1062 H1053 0.930 . S
C1062 C1060 1.384 . S
C1062 C1063 1.372 . S
C1063 C1062 1.372 . S
C1063 C1064 1.400 . S
C1063 C1068 1.490 . S
C1064 H1054 0.930 . S
C1064 C1063 1.400 . S
C1064 C1067 1.386 . S
H1065 C1081 0.930 . S
H1066 C1082 0.931 . S
C1067 H1055 0.929 . S
C1067 C1061 1.390 . S
C1067 C1064 1.386 . S
C1068 C1063 1.490 . S
C1068 C1070 1.395 . S
C1068 C1071 1.403 . S
H1069 C1075 0.930 . S
C1070 H1056 0.930 . S
C1070 C1068 1.395 . S
C1070 C1073 1.403 . S
C1071 C1068 1.403 . S
C1071 C1072 1.524 . S
C1071 C1075 1.400 . S
C1072 H1057 0.960 . S
C1072 H1058 0.960 . S
C1072 H1059 0.960 . S
C1072 C1071 1.524 . S
C1073 C1070 1.403 . S
C1073 C1074 1.392 . S
C1073 C1077 1.495 . S
C1074 C1073 1.392 . S
C1074 C1075 1.385 . S
C1074 C1076 1.478 . S
C1075 H1069 0.930 . S
C1075 C1071 1.400 . S
C1075 C1074 1.385 . S
C1076 C1074 1.478 . S
C1076 C1078 1.381 . S
C1076 C1082 1.383 . S
C1077 C1073 1.495 . S
C1077 H1083 0.959 . S
C1077 H1084 0.961 . S
C1077 H1085 0.960 . S
C1078 C1076 1.381 . S
C1078 C1079 1.394 . S
C1078 H1086 0.930 . S
C1079 C1078 1.394 . S
C1079 C1080 1.383 . S
C1079 H1087 0.929 . S
C1080 C1079 1.383 . S
C1080 C1081 1.377 . S
C1081 H1065 0.930 . S
C1081 C1080 1.377 . S
C1081 C1082 1.379 . S
C1082 H1066 0.931 . S
C1082 C1076 1.383 . S
C1082 C1081 1.379 . S
H1083 C1077 0.959 . S
H1084 C1077 0.961 . S
H1085 C1077 0.960 . S
H1086 C1078 0.930 . S
H1087 C1079 0.929 . S
H1088 C1096 0.929 . S
H1089 C1098 0.930 . S
H1090 C1100 0.930 . S
H1091 C1103 0.929 . S
H1092 C1106 0.930 . S
H1093 C1108 0.960 . S
H1094 C1108 0.960 . S
H1095 C1108 0.960 . S
C1096 H1088 0.929 . S
C1096 C1097 1.377 . S
C1096 C1098 1.384 . S
C1097 C1096 1.377 . S
C1097 C1103 1.390 1_655 S
C1098 H1089 0.930 . S
C1098 C1096 1.384 . S
C1098 C1099 1.372 1_655 S
C1099 C1098 1.372 1_455 S
C1099 C1100 1.400 . S
C1099 C1104 1.490 . S
C1100 H1090 0.930 . S
C1100 C1099 1.400 . S
C1100 C1103 1.386 . S
H1101 C1117 0.930 . S
H1102 C1118 0.931 . S
C1103 H1091 0.929 . S
C1103 C1097 1.390 1_455 S
C1103 C1100 1.386 . S
C1104 C1099 1.490 . S
C1104 C1106 1.395 1_455 S
C1104 C1107 1.403 . S
H1105 C1111 0.930 . S
C1106 H1092 0.930 . S
C1106 C1104 1.395 1_655 S
C1106 C1109 1.403 . S
C1107 C1104 1.403 . S
C1107 C1108 1.524 . S
C1107 C1111 1.400 . S
C1108 H1093 0.960 . S
C1108 H1094 0.960 . S
C1108 H1095 0.960 . S
C1108 C1107 1.524 . S
C1109 C1106 1.403 . S
C1109 C1110 1.392 1_655 S
C1109 C1113 1.495 . S
C1110 C1109 1.392 1_455 S
C1110 C1111 1.385 . S
C1110 C1112 1.478 . S
C1111 H1105 0.930 . S
C1111 C1107 1.400 . S
C1111 C1110 1.385 . S
C1112 C1110 1.478 . S
C1112 C1114 1.381 1_455 S
C1112 C1118 1.383 . S
C1113 C1109 1.495 . S
C1113 H1119 0.959 . S
C1113 H1120 0.961 . S
C1113 H1121 0.960 . S
C1114 C1112 1.381 1_655 S
C1114 C1115 1.394 . S
C1114 H1122 0.930 . S
C1115 C1114 1.394 . S
C1115 C1116 1.383 1_655 S
C1115 H1123 0.929 . S
C1116 C1115 1.383 1_455 S
C1116 C1117 1.377 . S
C1117 H1101 0.930 . S
C1117 C1116 1.377 . S
C1117 C1118 1.379 . S
C1118 H1102 0.931 . S
C1118 C1112 1.383 . S
C1118 C1117 1.379 . S
H1119 C1113 0.959 . S
H1120 C1113 0.961 . S
H1121 C1113 0.960 . S
H1122 C1114 0.930 . S
H1123 C1115 0.929 . S
H1124 C1132 0.929 . S
H1125 C1134 0.930 . S
H1126 C1136 0.930 . S
H1127 C1139 0.929 . S
H1128 C1142 0.930 . S
H1129 C1144 0.960 . S
H1130 C1144 0.960 . S
H1131 C1144 0.960 . S
C1132 H1124 0.929 . S
C1132 C1133 1.377 . S
C1132 C1134 1.384 . S
C1133 C1132 1.377 . S
C1133 C1139 1.390 . S
C1134 H1125 0.930 . S
C1134 C1132 1.384 . S
C1134 C1135 1.372 . S
C1135 C1134 1.372 . S
C1135 C1136 1.400 . S
C1135 C1140 1.490 . S
C1136 H1126 0.930 . S
C1136 C1135 1.400 . S
C1136 C1139 1.386 . S
H1137 C1153 0.930 . S
H1138 C1154 0.931 . S
C1139 H1127 0.929 . S
C1139 C1133 1.390 . S
C1139 C1136 1.386 . S
C1140 C1135 1.490 . S
C1140 C1142 1.395 . S
C1140 C1143 1.403 . S
H1141 C1147 0.930 . S
C1142 H1128 0.930 . S
C1142 C1140 1.395 . S
C1142 C1145 1.403 . S
C1143 C1140 1.403 . S
C1143 C1144 1.524 . S
C1143 C1147 1.400 . S
C1144 H1129 0.960 . S
C1144 H1130 0.960 . S
C1144 H1131 0.960 . S
C1144 C1143 1.524 . S
C1145 C1142 1.403 . S
C1145 C1146 1.392 . S
C1145 C1149 1.495 . S
C1146 C1145 1.392 . S
C1146 C1147 1.385 . S
C1146 C1148 1.478 . S
C1147 H1141 0.930 . S
C1147 C1143 1.400 . S
C1147 C1146 1.385 . S
C1148 C1146 1.478 . S
C1148 C1150 1.381 . S
C1148 C1154 1.383 . S
C1149 C1145 1.495 . S
C1149 H1155 0.959 . S
C1149 H1156 0.961 . S
C1149 H1157 0.960 . S
C1150 C1148 1.381 . S
C1150 C1151 1.394 . S
C1150 H1158 0.930 . S
C1151 C1150 1.394 . S
C1151 C1152 1.383 . S
C1151 H1159 0.929 . S
C1152 C1151 1.383 . S
C1152 C1153 1.377 . S
C1153 H1137 0.930 . S
C1153 C1152 1.377 . S
C1153 C1154 1.379 . S
C1154 H1138 0.931 . S
C1154 C1148 1.383 . S
C1154 C1153 1.379 . S
H1155 C1149 0.959 . S
H1156 C1149 0.961 . S
H1157 C1149 0.960 . S
H1158 C1150 0.930 . S
H1159 C1151 0.929 . S
H1160 C1168 0.929 . S
H1161 C1170 0.930 . S
H1162 C1172 0.930 . S
H1163 C1175 0.929 . S
H1164 C1178 0.930 . S
H1165 C1180 0.960 . S
H1166 C1180 0.960 . S
H1167 C1180 0.960 . S
C1168 H1160 0.929 . S
C1168 C1169 1.377 . S
C1168 C1170 1.384 . S
C1169 C1168 1.377 . S
C1169 C1175 1.390 . S
C1170 H1161 0.930 . S
C1170 C1168 1.384 . S
C1170 C1171 1.372 . S
C1171 C1170 1.372 . S
C1171 C1172 1.400 . S
C1171 C1176 1.490 . S
C1172 H1162 0.930 . S
C1172 C1171 1.400 . S
C1172 C1175 1.386 . S
H1173 C1189 0.930 . S
H1174 C1190 0.931 . S
C1175 H1163 0.929 . S
C1175 C1169 1.390 . S
C1175 C1172 1.386 . S
C1176 C1171 1.490 . S
C1176 C1178 1.395 . S
C1176 C1179 1.403 . S
H1177 C1183 0.930 . S
C1178 H1164 0.930 . S
C1178 C1176 1.395 . S
C1178 C1181 1.403 . S
C1179 C1176 1.403 . S
C1179 C1180 1.524 . S
C1179 C1183 1.400 . S
C1180 H1165 0.960 . S
C1180 H1166 0.960 . S
C1180 H1167 0.960 . S
C1180 C1179 1.524 . S
C1181 C1178 1.403 . S
C1181 C1182 1.392 . S
C1181 C1185 1.495 . S
C1182 C1181 1.392 . S
C1182 C1183 1.385 . S
C1182 C1184 1.478 . S
C1183 H1177 0.930 . S
C1183 C1179 1.400 . S
C1183 C1182 1.385 . S
C1184 C1182 1.478 . S
C1184 C1186 1.381 . S
C1184 C1190 1.383 . S
C1185 C1181 1.495 . S
C1185 H1191 0.959 . S
C1185 H1192 0.961 . S
C1185 H1193 0.960 . S
C1186 C1184 1.381 . S
C1186 C1187 1.394 . S
C1186 H1194 0.930 . S
C1187 C1186 1.394 . S
C1187 C1188 1.383 . S
C1187 H1195 0.929 . S
C1188 C1187 1.383 . S
C1188 C1189 1.377 . S
C1189 H1173 0.930 . S
C1189 C1188 1.377 . S
C1189 C1190 1.379 . S
C1190 H1174 0.931 . S
C1190 C1184 1.383 . S
C1190 C1189 1.379 . S
H1191 C1185 0.959 . S
H1192 C1185 0.961 . S
H1193 C1185 0.960 . S
H1194 C1186 0.930 . S
H1195 C1187 0.929 . S
H1196 C1204 0.929 . S
H1197 C1206 0.930 . S
H1198 C1208 0.930 . S
H1199 C1211 0.929 . S
H1200 C1214 0.930 . S
H1201 C1216 0.960 . S
H1202 C1216 0.960 . S
H1203 C1216 0.960 . S
C1204 H1196 0.929 . S
C1204 C1205 1.377 . S
C1204 C1206 1.384 . S
C1205 C1204 1.377 . S
C1205 C1211 1.390 . S
C1206 H1197 0.930 . S
C1206 C1204 1.384 . S
C1206 C1207 1.372 . S
C1207 C1206 1.372 . S
C1207 C1208 1.400 . S
C1207 C1212 1.490 . S
C1208 H1198 0.930 . S
C1208 C1207 1.400 . S
C1208 C1211 1.386 . S
H1209 C1225 0.930 . S
H1210 C1226 0.931 . S
C1211 H1199 0.929 . S
C1211 C1205 1.390 . S
C1211 C1208 1.386 . S
C1212 C1207 1.490 . S
C1212 C1214 1.395 . S
C1212 C1215 1.403 . S
H1213 C1219 0.930 . S
C1214 H1200 0.930 . S
C1214 C1212 1.395 . S
C1214 C1217 1.403 . S
C1215 C1212 1.403 . S
C1215 C1216 1.524 . S
C1215 C1219 1.400 1_455 S
C1216 H1201 0.960 . S
C1216 H1202 0.960 . S
C1216 H1203 0.960 . S
C1216 C1215 1.524 . S
C1217 C1214 1.403 . S
C1217 C1218 1.392 1_455 S
C1217 C1221 1.495 1_455 S
C1218 C1217 1.392 1_655 S
C1218 C1219 1.385 . S
C1218 C1220 1.478 . S
C1219 H1213 0.930 . S
C1219 C1215 1.400 1_655 S
C1219 C1218 1.385 . S
C1220 C1218 1.478 . S
C1220 C1222 1.381 . S
C1220 C1226 1.383 . S
C1221 C1217 1.495 1_655 S
C1221 H1227 0.959 1_655 S
C1221 H1228 0.961 . S
C1221 H1229 0.960 . S
C1222 C1220 1.381 . S
C1222 C1223 1.394 . S
C1222 H1230 0.930 . S
C1223 C1222 1.394 . S
C1223 C1224 1.383 . S
C1223 H1231 0.929 . S
C1224 C1223 1.383 . S
C1224 C1225 1.377 . S
C1225 H1209 0.930 . S
C1225 C1224 1.377 . S
C1225 C1226 1.379 . S
C1226 H1210 0.931 . S
C1226 C1220 1.383 . S
C1226 C1225 1.379 . S
H1227 C1221 0.959 1_455 S
H1228 C1221 0.961 . S
H1229 C1221 0.960 . S
H1230 C1222 0.930 . S
H1231 C1223 0.929 . S
H1232 C1240 0.929 . S
H1233 C1242 0.930 . S
H1234 C1244 0.930 . S
H1235 C1247 0.929 . S
H1236 C1250 0.930 . S
H1237 C1252 0.960 . S
H1238 C1252 0.960 . S
H1239 C1252 0.960 . S
C1240 H1232 0.929 . S
C1240 C1241 1.377 . S
C1240 C1242 1.384 . S
C1241 C1240 1.377 . S
C1241 C1247 1.390 1_565 S
C1242 H1233 0.930 . S
C1242 C1240 1.384 . S
C1242 C1243 1.372 . S
C1243 C1242 1.372 . S
C1243 C1244 1.400 1_565 S
C1243 C1248 1.490 . S
C1244 H1234 0.930 . S
C1244 C1243 1.400 1_545 S
C1244 C1247 1.386 . S
H1245 C1261 0.930 . S
H1246 C1262 0.931 . S
C1247 H1235 0.929 . S
C1247 C1241 1.390 1_545 S
C1247 C1244 1.386 . S
C1248 C1243 1.490 . S
C1248 C1250 1.395 . S
C1248 C1251 1.403 1_565 S
H1249 C1255 0.930 . S
C1250 H1236 0.930 . S
C1250 C1248 1.395 . S
C1250 C1253 1.403 . S
C1251 C1248 1.403 1_545 S
C1251 C1252 1.524 1_455 S
C1251 C1255 1.400 . S
C1252 H1237 0.960 . S
C1252 H1238 0.960 . S
C1252 H1239 0.960 . S
C1252 C1251 1.524 1_655 S
C1253 C1250 1.403 . S
C1253 C1254 1.392 . S
C1253 C1257 1.495 . S
C1254 C1253 1.392 . S
C1254 C1255 1.385 1_565 S
C1254 C1256 1.478 1_565 S
C1255 H1249 0.930 . S
C1255 C1251 1.400 . S
C1255 C1254 1.385 1_545 S
C1256 C1254 1.478 1_545 S
C1256 C1258 1.381 1_545 S
C1256 C1262 1.383 . S
C1257 C1253 1.495 . S
C1257 H1263 0.959 . S
C1257 H1264 0.961 . S
C1257 H1265 0.960 . S
C1258 C1256 1.381 1_565 S
C1258 C1259 1.394 . S
C1258 H1266 0.930 . S
C1259 C1258 1.394 . S
C1259 C1260 1.383 1_565 S
C1259 H1267 0.929 . S
C1260 C1259 1.383 1_545 S
C1260 C1261 1.377 . S
C1261 H1245 0.930 . S
C1261 C1260 1.377 . S
C1261 C1262 1.379 . S
C1262 H1246 0.931 . S
C1262 C1256 1.383 . S
C1262 C1261 1.379 . S
H1263 C1257 0.959 . S
H1264 C1257 0.961 . S
H1265 C1257 0.960 . S
H1266 C1258 0.930 . S
H1267 C1259 0.929 . S
H1268 C1276 0.929 . S
H1269 C1278 0.930 . S
H1270 C1280 0.930 . S
H1271 C1283 0.929 . S
H1272 C1286 0.930 . S
H1273 C1288 0.960 . S
H1274 C1288 0.960 . S
H1275 C1288 0.960 . S
C1276 H1268 0.929 . S
C1276 C1277 1.377 . S
C1276 C1278 1.384 . S
C1277 C1276 1.377 . S
C1277 C1283 1.390 . S
C1278 H1269 0.930 . S
C1278 C1276 1.384 . S
C1278 C1279 1.372 . S
C1279 C1278 1.372 . S
C1279 C1280 1.400 . S
C1279 C1284 1.490 . S
C1280 H1270 0.930 . S
C1280 C1279 1.400 . S
C1280 C1283 1.386 . S
H1281 C1297 0.930 . S
H1282 C1298 0.931 . S
C1283 H1271 0.929 . S
C1283 C1277 1.390 . S
C1283 C1280 1.386 . S
C1284 C1279 1.490 . S
C1284 C1286 1.395 . S
C1284 C1287 1.403 . S
H1285 C1291 0.930 . S
C1286 H1272 0.930 . S
C1286 C1284 1.395 . S
C1286 C1289 1.403 . S
C1287 C1284 1.403 . S
C1287 C1288 1.524 . S
C1287 C1291 1.400 . S
C1288 H1273 0.960 . S
C1288 H1274 0.960 . S
C1288 H1275 0.960 . S
C1288 C1287 1.524 . S
C1289 C1286 1.403 . S
C1289 C1290 1.392 . S
C1289 C1293 1.495 . S
C1290 C1289 1.392 . S
C1290 C1291 1.385 . S
C1290 C1292 1.478 . S
C1291 H1285 0.930 . S
C1291 C1287 1.400 . S
C1291 C1290 1.385 . S
C1292 C1290 1.478 . S
C1292 C1294 1.381 . S
C1292 C1298 1.383 . S
C1293 C1289 1.495 . S
C1293 H1299 0.959 . S
C1293 H1300 0.961 . S
C1293 H1301 0.960 . S
C1294 C1292 1.381 . S
C1294 C1295 1.394 . S
C1294 H1302 0.930 . S
C1295 C1294 1.394 . S
C1295 C1296 1.383 . S
C1295 H1303 0.929 . S
C1296 C1295 1.383 . S
C1296 C1297 1.377 . S
C1297 H1281 0.930 . S
C1297 C1296 1.377 . S
C1297 C1298 1.379 . S
C1298 H1282 0.931 . S
C1298 C1292 1.383 . S
C1298 C1297 1.379 . S
H1299 C1293 0.959 . S
H1300 C1293 0.961 . S
H1301 C1293 0.960 . S
H1302 C1294 0.930 . S
H1303 C1295 0.929 . S
H1304 C1312 0.929 . S
H1305 C1314 0.930 . S
H1306 C1316 0.930 . S
H1307 C1319 0.929 . S
H1308 C1322 0.930 . S
H1309 C1324 0.960 . S
H1310 C1324 0.960 . S
H1311 C1324 0.960 1_545 S
C1312 H1304 0.929 . S
C1312 C1313 1.377 . S
C1312 C1314 1.384 . S
C1313 C1312 1.377 . S
C1313 C1319 1.390 1_565 S
C1314 H1305 0.930 . S
C1314 C1312 1.384 . S
C1314 C1315 1.372 . S
C1315 C1314 1.372 . S
C1315 C1316 1.400 1_565 S
C1315 C1320 1.490 . S
C1316 H1306 0.930 . S
C1316 C1315 1.400 1_545 S
C1316 C1319 1.386 . S
H1317 C1333 0.930 . S
H1318 C1334 0.931 . S
C1319 H1307 0.929 . S
C1319 C1313 1.390 1_545 S
C1319 C1316 1.386 . S
C1320 C1315 1.490 . S
C1320 C1322 1.395 . S
C1320 C1323 1.403 . S
H1321 C1327 0.931 . S
C1322 H1308 0.930 . S
C1322 C1320 1.395 . S
C1322 C1325 1.401 1_564 S
C1323 C1320 1.403 . S
C1323 C1324 1.524 . S
C1323 C1327 1.399 1_564 S
C1324 H1309 0.960 . S
C1324 H1310 0.960 . S
C1324 H1311 0.960 1_565 S
C1324 C1323 1.524 . S
C1325 C1322 1.401 1_546 S
C1325 C1326 1.393 . S
C1325 C1329 1.497 . S
C1326 C1325 1.393 . S
C1326 C1327 1.386 . S
C1326 C1328 1.478 . S
C1327 H1321 0.931 . S
C1327 C1323 1.399 1_546 S
C1327 C1326 1.386 . S
C1328 C1326 1.478 . S
C1328 C1330 1.381 1_545 S
C1328 C1334 1.383 . S
C1329 C1325 1.497 . S
C1329 H1335 0.959 . S
C1329 H1336 0.961 . S
C1329 H1337 0.960 1_545 S
C1330 C1328 1.381 1_565 S
C1330 C1331 1.394 . S
C1330 H1338 0.930 . S
C1331 C1330 1.394 . S
C1331 C1332 1.383 1_565 S
C1331 H1339 0.929 . S
C1332 C1331 1.383 1_545 S
C1332 C1333 1.377 . S
C1333 H1317 0.930 . S
C1333 C1332 1.377 . S
C1333 C1334 1.379 . S
C1334 H1318 0.931 . S
C1334 C1328 1.383 . S
C1334 C1333 1.379 . S
H1335 C1329 0.959 . S
H1336 C1329 0.961 . S
H1337 C1329 0.960 1_565 S
H1338 C1330 0.930 . S
H1339 C1331 0.929 . S
H1340 C1348 0.929 . S
H1341 C1350 0.930 . S
H1342 C1352 0.930 . S
H1343 C1355 0.929 . S
H1344 C1358 0.930 . S
H1345 C1360 0.960 . S
H1346 C1360 0.960 . S
H1347 C1360 0.960 . S
C1348 H1340 0.929 . S
C1348 C1349 1.377 . S
C1348 C1350 1.384 . S
C1349 C1348 1.377 . S
C1349 C1355 1.390 . S
C1350 H1341 0.930 . S
C1350 C1348 1.384 . S
C1350 C1351 1.372 . S
C1351 C1350 1.372 . S
C1351 C1352 1.400 . S
C1351 C1356 1.490 . S
C1352 H1342 0.930 . S
C1352 C1351 1.400 . S
C1352 C1355 1.386 . S
H1353 C1369 0.930 . S
H1354 C1370 0.931 . S
C1355 H1343 0.929 . S
C1355 C1349 1.390 . S
C1355 C1352 1.386 . S
C1356 C1351 1.490 . S
C1356 C1358 1.395 . S
C1356 C1359 1.403 . S
H1357 C1363 0.930 . S
C1358 H1344 0.930 . S
C1358 C1356 1.395 . S
C1358 C1361 1.403 . S
C1359 C1356 1.403 . S
C1359 C1360 1.524 . S
C1359 C1363 1.400 . S
C1360 H1345 0.960 . S
C1360 H1346 0.960 . S
C1360 H1347 0.960 . S
C1360 C1359 1.524 . S
C1361 C1358 1.403 . S
C1361 C1362 1.392 . S
C1361 C1365 1.495 . S
C1362 C1361 1.392 . S
C1362 C1363 1.385 . S
C1362 C1364 1.478 . S
C1363 H1357 0.930 . S
C1363 C1359 1.400 . S
C1363 C1362 1.385 . S
C1364 C1362 1.478 . S
C1364 C1366 1.381 . S
C1364 C1370 1.383 . S
C1365 C1361 1.495 . S
C1365 H1371 0.959 . S
C1365 H1372 0.961 . S
C1365 H1373 0.960 . S
C1366 C1364 1.381 . S
C1366 C1367 1.394 . S
C1366 H1374 0.930 . S
C1367 C1366 1.394 . S
C1367 C1368 1.383 . S
C1367 H1375 0.929 . S
C1368 C1367 1.383 . S
C1368 C1369 1.377 . S
C1369 H1353 0.930 . S
C1369 C1368 1.377 . S
C1369 C1370 1.379 . S
C1370 H1354 0.931 . S
C1370 C1364 1.383 . S
C1370 C1369 1.379 . S
H1371 C1365 0.959 . S
H1372 C1365 0.961 . S
H1373 C1365 0.960 . S
H1374 C1366 0.930 . S
H1375 C1367 0.929 . S
H1376 C1384 0.929 . S
H1377 C1386 0.930 . S
H1378 C1388 0.930 . S
H1379 C1391 0.929 . S
H1380 C1394 0.930 . S
H1381 C1396 0.960 . S
H1382 C1396 0.960 . S
H1383 C1396 0.960 . S
C1384 H1376 0.929 . S
C1384 C1385 1.377 . S
C1384 C1386 1.384 . S
C1385 C1384 1.377 . S
C1385 C1391 1.390 . S
C1386 H1377 0.930 . S
C1386 C1384 1.384 . S
C1386 C1387 1.372 . S
C1387 C1386 1.372 . S
C1387 C1388 1.400 . S
C1387 C1392 1.490 . S
C1388 H1378 0.930 . S
C1388 C1387 1.400 . S
C1388 C1391 1.386 . S
H1389 C1405 0.930 . S
H1390 C1406 0.931 . S
C1391 H1379 0.929 . S
C1391 C1385 1.390 . S
C1391 C1388 1.386 . S
C1392 C1387 1.490 . S
C1392 C1394 1.395 . S
C1392 C1395 1.403 . S
H1393 C1399 0.930 . S
C1394 H1380 0.930 . S
C1394 C1392 1.395 . S
C1394 C1397 1.403 . S
C1395 C1392 1.403 . S
C1395 C1396 1.524 . S
C1395 C1399 1.400 . S
C1396 H1381 0.960 . S
C1396 H1382 0.960 . S
C1396 H1383 0.960 . S
C1396 C1395 1.524 . S
C1397 C1394 1.403 . S
C1397 C1398 1.392 . S
C1397 C1401 1.495 . S
C1398 C1397 1.392 . S
C1398 C1399 1.385 . S
C1398 C1400 1.478 . S
C1399 H1393 0.930 . S
C1399 C1395 1.400 . S
C1399 C1398 1.385 . S
C1400 C1398 1.478 . S
C1400 C1402 1.381 . S
C1400 C1406 1.383 . S
C1401 C1397 1.495 . S
C1401 H1407 0.959 . S
C1401 H1408 0.961 . S
C1401 H1409 0.960 . S
C1402 C1400 1.381 . S
C1402 C1403 1.394 . S
C1402 H1410 0.930 . S
C1403 C1402 1.394 . S
C1403 C1404 1.383 . S
C1403 H1411 0.929 . S
C1404 C1403 1.383 . S
C1404 C1405 1.377 . S
C1405 H1389 0.930 . S
C1405 C1404 1.377 . S
C1405 C1406 1.379 . S
C1406 H1390 0.931 . S
C1406 C1400 1.383 . S
C1406 C1405 1.379 . S
H1407 C1401 0.959 . S
H1408 C1401 0.961 . S
H1409 C1401 0.960 . S
H1410 C1402 0.930 . S
H1411 C1403 0.929 . S
H1412 C1420 0.929 . S
H1413 C1422 0.930 . S
H1414 C1424 0.930 . S
H1415 C1427 0.929 . S
H1416 C1430 0.930 . S
H1417 C1432 0.960 . S
H1418 C1432 0.960 . S
H1419 C1432 0.960 . S
C1420 H1412 0.929 . S
C1420 C1421 1.377 . S
C1420 C1422 1.384 . S
C1421 C1420 1.377 . S
C1421 C1427 1.390 . S
C1422 H1413 0.930 . S
C1422 C1420 1.384 . S
C1422 C1423 1.372 . S
C1423 C1422 1.372 . S
C1423 C1424 1.400 . S
C1423 C1428 1.490 . S
C1424 H1414 0.930 . S
C1424 C1423 1.400 . S
C1424 C1427 1.386 . S
H1425 C1441 0.930 . S
H1426 C1442 0.931 . S
C1427 H1415 0.929 . S
C1427 C1421 1.390 . S
C1427 C1424 1.386 . S
C1428 C1423 1.490 . S
C1428 C1430 1.395 . S
C1428 C1431 1.403 . S
H1429 C1435 0.930 . S
C1430 H1416 0.930 . S
C1430 C1428 1.395 . S
C1430 C1433 1.403 . S
C1431 C1428 1.403 . S
C1431 C1432 1.524 . S
C1431 C1435 1.400 . S
C1432 H1417 0.960 . S
C1432 H1418 0.960 . S
C1432 H1419 0.960 . S
C1432 C1431 1.524 . S
C1433 C1430 1.403 . S
C1433 C1434 1.392 . S
C1433 C1437 1.495 . S
C1434 C1433 1.392 . S
C1434 C1435 1.385 . S
C1434 C1436 1.478 . S
C1435 H1429 0.930 . S
C1435 C1431 1.400 . S
C1435 C1434 1.385 . S
C1436 C1434 1.478 . S
C1436 C1438 1.381 . S
C1436 C1442 1.383 . S
C1437 C1433 1.495 . S
C1437 H1443 0.959 . S
C1437 H1444 0.961 . S
C1437 H1445 0.960 . S
C1438 C1436 1.381 . S
C1438 C1439 1.394 . S
C1438 H1446 0.930 . S
C1439 C1438 1.394 . S
C1439 C1440 1.383 . S
C1439 H1447 0.929 . S
C1440 C1439 1.383 . S
C1440 C1441 1.377 . S
C1441 H1425 0.930 . S
C1441 C1440 1.377 . S
C1441 C1442 1.379 . S
C1442 H1426 0.931 . S
C1442 C1436 1.383 . S
C1442 C1441 1.379 . S
H1443 C1437 0.959 . S
H1444 C1437 0.961 . S
H1445 C1437 0.960 . S
H1446 C1438 0.930 . S
H1447 C1439 0.929 . S
H1448 C1456 0.929 . S
H1449 C1458 0.930 . S
H1450 C1460 0.930 . S
H1451 C1463 0.929 . S
H1452 C1466 0.930 . S
H1453 C1468 0.960 . S
H1454 C1468 0.960 . S
H1455 C1468 0.960 . S
C1456 H1448 0.929 . S
C1456 C1457 1.377 . S
C1456 C1458 1.384 . S
C1457 C1456 1.377 . S
C1457 C1463 1.390 . S
C1458 H1449 0.930 . S
C1458 C1456 1.384 . S
C1458 C1459 1.372 . S
C1459 C1458 1.372 . S
C1459 C1460 1.400 . S
C1459 C1464 1.490 . S
C1460 H1450 0.930 . S
C1460 C1459 1.400 . S
C1460 C1463 1.386 . S
H1461 C1477 0.930 . S
H1462 C1478 0.931 . S
C1463 H1451 0.929 . S
C1463 C1457 1.390 . S
C1463 C1460 1.386 . S
C1464 C1459 1.490 . S
C1464 C1466 1.395 . S
C1464 C1467 1.403 . S
H1465 C1471 0.930 . S
C1466 H1452 0.930 . S
C1466 C1464 1.395 . S
C1466 C1469 1.403 1_556 S
C1467 C1464 1.403 . S
C1467 C1468 1.524 . S
C1467 C1471 1.400 1_556 S
C1468 H1453 0.960 . S
C1468 H1454 0.960 . S
C1468 H1455 0.960 . S
C1468 C1467 1.524 . S
C1469 C1466 1.403 1_554 S
C1469 C1470 1.392 . S
C1469 C1473 1.495 . S
C1470 C1469 1.392 . S
C1470 C1471 1.385 . S
C1470 C1472 1.478 . S
C1471 H1465 0.930 . S
C1471 C1467 1.400 1_554 S
C1471 C1470 1.385 . S
C1472 C1470 1.478 . S
C1472 C1474 1.381 . S
C1472 C1478 1.383 . S
C1473 C1469 1.495 . S
C1473 H1479 0.959 . S
C1473 H1480 0.961 . S
C1473 H1481 0.960 . S
C1474 C1472 1.381 . S
C1474 C1475 1.394 . S
C1474 H1482 0.930 . S
C1475 C1474 1.394 . S
C1475 C1476 1.383 . S
C1475 H1483 0.929 . S
C1476 C1475 1.383 . S
C1476 C1477 1.377 . S
C1477 H1461 0.930 . S
C1477 C1476 1.377 . S
C1477 C1478 1.379 . S
C1478 H1462 0.931 . S
C1478 C1472 1.383 . S
C1478 C1477 1.379 . S
H1479 C1473 0.959 . S
H1480 C1473 0.961 . S
H1481 C1473 0.960 . S
H1482 C1474 0.930 . S
H1483 C1475 0.929 . S
H1484 C1492 0.929 . S
H1485 C1494 0.930 . S
H1486 C1496 0.930 . S
H1487 C1499 0.929 . S
H1488 C1502 0.930 . S
H1489 C1504 0.960 . S
H1490 C1504 0.960 . S
H1491 C1504 0.960 . S
C1492 H1484 0.929 . S
C1492 C1493 1.377 . S
C1492 C1494 1.384 . S
C1493 C1492 1.377 . S
C1493 C1499 1.390 1_655 S
C1494 H1485 0.930 . S
C1494 C1492 1.384 . S
C1494 C1495 1.372 . S
C1495 C1494 1.372 . S
C1495 C1496 1.400 1_655 S
C1495 C1500 1.490 . S
C1496 H1486 0.930 . S
C1496 C1495 1.400 1_455 S
C1496 C1499 1.386 . S
H1497 C1513 0.930 . S
H1498 C1514 0.931 . S
C1499 H1487 0.929 . S
C1499 C1493 1.390 1_455 S
C1499 C1496 1.386 . S
C1500 C1495 1.490 . S
C1500 C1502 1.395 . S
C1500 C1503 1.403 . S
H1501 C1507 0.930 . S
C1502 H1488 0.930 . S
C1502 C1500 1.395 . S
C1502 C1505 1.403 . S
C1503 C1500 1.403 . S
C1503 C1504 1.524 . S
C1503 C1507 1.400 . S
C1504 H1489 0.960 . S
C1504 H1490 0.960 . S
C1504 H1491 0.960 . S
C1504 C1503 1.524 . S
C1505 C1502 1.403 . S
C1505 C1506 1.392 . S
C1505 C1509 1.495 1_655 S
C1506 C1505 1.392 . S
C1506 C1507 1.385 . S
C1506 C1508 1.478 . S
C1507 H1501 0.930 . S
C1507 C1503 1.400 . S
C1507 C1506 1.385 . S
C1508 C1506 1.478 . S
C1508 C1510 1.381 . S
C1508 C1514 1.383 1_655 S
C1509 C1505 1.495 1_455 S
C1509 H1515 0.959 . S
C1509 H1516 0.961 . S
C1509 H1517 0.960 1_455 S
C1510 C1508 1.381 . S
C1510 C1511 1.394 . S
C1510 H1518 0.930 . S
C1511 C1510 1.394 . S
C1511 C1512 1.383 . S
C1511 H1519 0.929 . S
C1512 C1511 1.383 . S
C1512 C1513 1.377 1_655 S
C1513 H1497 0.930 . S
C1513 C1512 1.377 1_455 S
C1513 C1514 1.379 . S
C1514 H1498 0.931 . S
C1514 C1508 1.383 1_455 S
C1514 C1513 1.379 . S
H1515 C1509 0.959 . S
H1516 C1509 0.961 . S
H1517 C1509 0.960 1_655 S
H1518 C1510 0.930 . S
H1519 C1511 0.929 . S
H1520 C1528 0.929 . S
H1521 C1530 0.930 . S
H1522 C1532 0.930 . S
H1523 C1535 0.929 . S
H1524 C1538 0.930 . S
H1525 C1540 0.960 . S
H1526 C1540 0.960 . S
H1527 C1540 0.960 . S
C1528 H1520 0.929 . S
C1528 C1529 1.377 . S
C1528 C1530 1.384 . S
C1529 C1528 1.377 . S
C1529 C1535 1.390 . S
C1530 H1521 0.930 . S
C1530 C1528 1.384 . S
C1530 C1531 1.372 . S
C1531 C1530 1.372 . S
C1531 C1532 1.400 . S
C1531 C1536 1.490 . S
C1532 H1522 0.930 . S
C1532 C1531 1.400 . S
C1532 C1535 1.386 . S
H1533 C1549 0.930 . S
H1534 C1550 0.931 . S
C1535 H1523 0.929 . S
C1535 C1529 1.390 . S
C1535 C1532 1.386 . S
C1536 C1531 1.490 . S
C1536 C1538 1.395 . S
C1536 C1539 1.403 . S
H1537 C1543 0.930 . S
C1538 H1524 0.930 . S
C1538 C1536 1.395 . S
C1538 C1541 1.403 . S
C1539 C1536 1.403 . S
C1539 C1540 1.524 . S
C1539 C1543 1.400 . S
C1540 H1525 0.960 . S
C1540 H1526 0.960 . S
C1540 H1527 0.960 . S
C1540 C1539 1.524 . S
C1541 C1538 1.403 . S
C1541 C1542 1.392 . S
C1541 C1545 1.495 . S
C1542 C1541 1.392 . S
C1542 C1543 1.385 . S
C1542 C1544 1.478 . S
C1543 H1537 0.930 . S
C1543 C1539 1.400 . S
C1543 C1542 1.385 . S
C1544 C1542 1.478 . S
C1544 C1546 1.381 . S
C1544 C1550 1.383 . S
C1545 C1541 1.495 . S
C1545 H1551 0.959 . S
C1545 H1552 0.961 . S
C1545 H1553 0.960 . S
C1546 C1544 1.381 . S
C1546 C1547 1.394 . S
C1546 H1554 0.930 . S
C1547 C1546 1.394 . S
C1547 C1548 1.383 . S
C1547 H1555 0.929 . S
C1548 C1547 1.383 . S
C1548 C1549 1.377 . S
C1549 H1533 0.930 . S
C1549 C1548 1.377 . S
C1549 C1550 1.379 . S
C1550 H1534 0.931 . S
C1550 C1544 1.383 . S
C1550 C1549 1.379 . S
H1551 C1545 0.959 . S
H1552 C1545 0.961 . S
H1553 C1545 0.960 . S
H1554 C1546 0.930 . S
H1555 C1547 0.929 . S
H1556 C1564 0.929 . S
H1557 C1566 0.930 . S
H1558 C1568 0.930 . S
H1559 C1571 0.929 . S
H1560 C1574 0.930 . S
H1561 C1576 0.960 . S
H1562 C1576 0.960 . S
H1563 C1576 0.960 . S
C1564 H1556 0.929 . S
C1564 C1565 1.377 . S
C1564 C1566 1.384 . S
C1565 C1564 1.377 . S
C1565 C1571 1.390 . S
C1566 H1557 0.930 . S
C1566 C1564 1.384 . S
C1566 C1567 1.372 . S
C1567 C1566 1.372 . S
C1567 C1568 1.400 . S
C1567 C1572 1.490 . S
C1568 H1558 0.930 . S
C1568 C1567 1.400 . S
C1568 C1571 1.386 . S
H1569 C1585 0.930 . S
H1570 C1586 0.931 . S
C1571 H1559 0.929 . S
C1571 C1565 1.390 . S
C1571 C1568 1.386 . S
C1572 C1567 1.490 . S
C1572 C1574 1.395 . S
C1572 C1575 1.403 . S
H1573 C1579 0.930 . S
C1574 H1560 0.930 . S
C1574 C1572 1.395 . S
C1574 C1577 1.403 . S
C1575 C1572 1.403 . S
C1575 C1576 1.524 . S
C1575 C1579 1.400 . S
C1576 H1561 0.960 . S
C1576 H1562 0.960 . S
C1576 H1563 0.960 . S
C1576 C1575 1.524 . S
C1577 C1574 1.403 . S
C1577 C1578 1.392 . S
C1577 C1581 1.495 . S
C1578 C1577 1.392 . S
C1578 C1579 1.385 . S
C1578 C1580 1.478 . S
C1579 H1573 0.930 . S
C1579 C1575 1.400 . S
C1579 C1578 1.385 . S
C1580 C1578 1.478 . S
C1580 C1582 1.381 . S
C1580 C1586 1.383 . S
C1581 C1577 1.495 . S
C1581 H1587 0.959 . S
C1581 H1588 0.961 . S
C1581 H1589 0.960 . S
C1582 C1580 1.381 . S
C1582 C1583 1.394 . S
C1582 H1590 0.930 . S
C1583 C1582 1.394 . S
C1583 C1584 1.383 . S
C1583 H1591 0.929 . S
C1584 C1583 1.383 . S
C1584 C1585 1.377 . S
C1585 H1569 0.930 . S
C1585 C1584 1.377 . S
C1585 C1586 1.379 . S
C1586 H1570 0.931 . S
C1586 C1580 1.383 . S
C1586 C1585 1.379 . S
H1587 C1581 0.959 . S
H1588 C1581 0.961 . S
H1589 C1581 0.960 . S
H1590 C1582 0.930 . S
H1591 C1583 0.929 . S
H1592 C1600 0.929 . S
H1593 C1602 0.930 . S
H1594 C1604 0.930 . S
H1595 C1607 0.929 . S
H1596 C1610 0.930 . S
H1597 C1612 0.960 . S
H1598 C1612 0.960 . S
H1599 C1612 0.960 . S
C1600 H1592 0.929 . S
C1600 C1601 1.377 . S
C1600 C1602 1.384 . S
C1601 C1600 1.377 . S
C1601 C1607 1.390 . S
C1602 H1593 0.930 . S
C1602 C1600 1.384 . S
C1602 C1603 1.372 . S
C1603 C1602 1.372 . S
C1603 C1604 1.400 . S
C1603 C1608 1.490 . S
C1604 H1594 0.930 . S
C1604 C1603 1.400 . S
C1604 C1607 1.386 . S
H1605 C1621 0.930 . S
H1606 C1622 0.931 . S
C1607 H1595 0.929 . S
C1607 C1601 1.390 . S
C1607 C1604 1.386 . S
C1608 C1603 1.490 . S
C1608 C1610 1.395 . S
C1608 C1611 1.403 . S
H1609 C1615 0.930 . S
C1610 H1596 0.930 . S
C1610 C1608 1.395 . S
C1610 C1613 1.403 . S
C1611 C1608 1.403 . S
C1611 C1612 1.524 . S
C1611 C1615 1.400 . S
C1612 H1597 0.960 . S
C1612 H1598 0.960 . S
C1612 H1599 0.960 . S
C1612 C1611 1.524 . S
C1613 C1610 1.403 . S
C1613 C1614 1.392 . S
C1613 C1617 1.495 . S
C1614 C1613 1.392 . S
C1614 C1615 1.385 . S
C1614 C1616 1.478 . S
C1615 H1609 0.930 . S
C1615 C1611 1.400 . S
C1615 C1614 1.385 . S
C1616 C1614 1.478 . S
C1616 C1618 1.381 . S
C1616 C1622 1.383 . S
C1617 C1613 1.495 . S
C1617 H1623 0.959 . S
C1617 H1624 0.961 . S
C1617 H1625 0.960 . S
C1618 C1616 1.381 . S
C1618 C1619 1.394 . S
C1618 H1626 0.930 . S
C1619 C1618 1.394 . S
C1619 C1620 1.383 . S
C1619 H1627 0.929 . S
C1620 C1619 1.383 . S
C1620 C1621 1.377 . S
C1621 H1605 0.930 . S
C1621 C1620 1.377 . S
C1621 C1622 1.379 . S
C1622 H1606 0.931 . S
C1622 C1616 1.383 . S
C1622 C1621 1.379 . S
H1623 C1617 0.959 . S
H1624 C1617 0.961 . S
H1625 C1617 0.960 . S
H1626 C1618 0.930 . S
H1627 C1619 0.929 . S
H1628 C1636 0.929 . S
H1629 C1638 0.930 . S
H1630 C1640 0.930 . S
H1631 C1643 0.929 . S
H1632 C1646 0.930 . S
H1633 C1648 0.960 . S
H1634 C1648 0.960 . S
H1635 C1648 0.960 . S
C1636 H1628 0.929 . S
C1636 C1637 1.377 . S
C1636 C1638 1.384 . S
C1637 C1636 1.377 . S
C1637 C1643 1.390 . S
C1638 H1629 0.930 . S
C1638 C1636 1.384 . S
C1638 C1639 1.372 . S
C1639 C1638 1.372 . S
C1639 C1640 1.400 . S
C1639 C1644 1.490 . S
C1640 H1630 0.930 . S
C1640 C1639 1.400 . S
C1640 C1643 1.386 . S
H1641 C1657 0.930 . S
H1642 C1658 0.931 . S
C1643 H1631 0.929 . S
C1643 C1637 1.390 . S
C1643 C1640 1.386 . S
C1644 C1639 1.490 . S
C1644 C1646 1.395 . S
C1644 C1647 1.403 . S
H1645 C1651 0.930 . S
C1646 H1632 0.930 . S
C1646 C1644 1.395 . S
C1646 C1649 1.403 . S
C1647 C1644 1.403 . S
C1647 C1648 1.524 . S
C1647 C1651 1.400 . S
C1648 H1633 0.960 . S
C1648 H1634 0.960 . S
C1648 H1635 0.960 . S
C1648 C1647 1.524 . S
C1649 C1646 1.403 . S
C1649 C1650 1.392 . S
C1649 C1653 1.495 . S
C1650 C1649 1.392 . S
C1650 C1651 1.385 . S
C1650 C1652 1.478 . S
C1651 H1645 0.930 . S
C1651 C1647 1.400 . S
C1651 C1650 1.385 . S
C1652 C1650 1.478 . S
C1652 C1654 1.381 . S
C1652 C1658 1.383 . S
C1653 C1649 1.495 . S
C1653 H1659 0.959 . S
C1653 H1660 0.961 . S
C1653 H1661 0.960 . S
C1654 C1652 1.381 . S
C1654 C1655 1.394 . S
C1654 H1662 0.930 . S
C1655 C1654 1.394 . S
C1655 C1656 1.383 . S
C1655 H1663 0.929 . S
C1656 C1655 1.383 . S
C1656 C1657 1.377 . S
C1657 H1641 0.930 . S
C1657 C1656 1.377 . S
C1657 C1658 1.379 . S
C1658 H1642 0.931 . S
C1658 C1652 1.383 . S
C1658 C1657 1.379 . S
H1659 C1653 0.959 . S
H1660 C1653 0.961 . S
H1661 C1653 0.960 . S
H1662 C1654 0.930 . S
H1663 C1655 0.929 . S
H1664 C1672 0.929 1_565 S
H1665 C1674 0.930 . S
H1666 C1676 0.930 . S
H1667 C1679 0.929 . S
H1668 C1682 0.930 . S
H1669 C1684 0.960 . S
H1670 C1684 0.960 . S
H1671 C1684 0.960 . S
C1672 H1664 0.929 1_545 S
C1672 C1673 1.377 . S
C1672 C1674 1.384 . S
C1673 C1672 1.377 . S
C1673 C1679 1.390 . S
C1674 H1665 0.930 . S
C1674 C1672 1.384 . S
C1674 C1675 1.372 . S
C1675 C1674 1.372 . S
C1675 C1676 1.400 . S
C1675 C1680 1.490 . S
C1676 H1666 0.930 . S
C1676 C1675 1.400 . S
C1676 C1679 1.386 . S
H1677 C1693 0.930 . S
H1678 C1694 0.931 . S
C1679 H1667 0.929 . S
C1679 C1673 1.390 . S
C1679 C1676 1.386 . S
C1680 C1675 1.490 . S
C1680 C1682 1.395 . S
C1680 C1683 1.403 . S
H1681 C1687 0.930 . S
C1682 H1668 0.930 . S
C1682 C1680 1.395 . S
C1682 C1685 1.403 . S
C1683 C1680 1.403 . S
C1683 C1684 1.524 . S
C1683 C1687 1.400 . S
C1684 H1669 0.960 . S
C1684 H1670 0.960 . S
C1684 H1671 0.960 . S
C1684 C1683 1.524 . S
C1685 C1682 1.403 . S
C1685 C1686 1.392 . S
C1685 C1689 1.495 . S
C1686 C1685 1.392 . S
C1686 C1687 1.385 . S
C1686 C1688 1.478 . S
C1687 H1681 0.930 . S
C1687 C1683 1.400 . S
C1687 C1686 1.385 . S
C1688 C1686 1.478 . S
C1688 C1690 1.381 . S
C1688 C1694 1.383 . S
C1689 C1685 1.495 . S
C1689 H1695 0.959 . S
C1689 H1696 0.961 . S
C1689 H1697 0.960 . S
C1690 C1688 1.381 . S
C1690 C1691 1.394 . S
C1690 H1698 0.930 . S
C1691 C1690 1.394 . S
C1691 C1692 1.383 . S
C1691 H1699 0.929 . S
C1692 C1691 1.383 . S
C1692 C1693 1.377 . S
C1693 H1677 0.930 . S
C1693 C1692 1.377 . S
C1693 C1694 1.379 . S
C1694 H1678 0.931 . S
C1694 C1688 1.383 . S
C1694 C1693 1.379 . S
H1695 C1689 0.959 . S
H1696 C1689 0.961 . S
H1697 C1689 0.960 . S
H1698 C1690 0.930 . S
H1699 C1691 0.929 . S
H1700 C1708 0.929 1_565 S
H1701 C1710 0.930 . S
H1702 C1712 0.930 . S
H1703 C1715 0.929 . S
H1704 C1718 0.930 . S
H1705 C1720 0.960 . S
H1706 C1720 0.960 . S
H1707 C1720 0.960 . S
C1708 H1700 0.929 1_545 S
C1708 C1709 1.377 . S
C1708 C1710 1.384 . S
C1709 C1708 1.377 . S
C1709 C1715 1.390 . S
C1710 H1701 0.930 . S
C1710 C1708 1.384 . S
C1710 C1711 1.372 . S
C1711 C1710 1.372 . S
C1711 C1712 1.400 . S
C1711 C1716 1.490 . S
C1712 H1702 0.930 . S
C1712 C1711 1.400 . S
C1712 C1715 1.386 . S
H1713 C1729 0.930 . S
H1714 C1730 0.931 . S
C1715 H1703 0.929 . S
C1715 C1709 1.390 . S
C1715 C1712 1.386 . S
C1716 C1711 1.490 . S
C1716 C1718 1.395 . S
C1716 C1719 1.403 . S
H1717 C1723 0.930 . S
C1718 H1704 0.930 . S
C1718 C1716 1.395 . S
C1718 C1721 1.403 . S
C1719 C1716 1.403 . S
C1719 C1720 1.524 . S
C1719 C1723 1.400 . S
C1720 H1705 0.960 . S
C1720 H1706 0.960 . S
C1720 H1707 0.960 . S
C1720 C1719 1.524 . S
C1721 C1718 1.403 . S
C1721 C1722 1.392 . S
C1721 C1725 1.495 . S
C1722 C1721 1.392 . S
C1722 C1723 1.385 . S
C1722 C1724 1.478 . S
C1723 H1717 0.930 . S
C1723 C1719 1.400 . S
C1723 C1722 1.385 . S
C1724 C1722 1.478 . S
C1724 C1726 1.381 . S
C1724 C1730 1.383 . S
C1725 C1721 1.495 . S
C1725 H1731 0.959 . S
C1725 H1732 0.961 . S
C1725 H1733 0.960 . S
C1726 C1724 1.381 . S
C1726 C1727 1.394 . S
C1726 H1734 0.930 . S
C1727 C1726 1.394 . S
C1727 C1728 1.383 . S
C1727 H1735 0.929 . S
C1728 C1727 1.383 . S
C1728 C1729 1.377 . S
C1729 H1713 0.930 . S
C1729 C1728 1.377 . S
C1729 C1730 1.379 . S
C1730 H1714 0.931 . S
C1730 C1724 1.383 . S
C1730 C1729 1.379 . S
H1731 C1725 0.959 . S
H1732 C1725 0.961 . S
H1733 C1725 0.960 . S
H1734 C1726 0.930 . S
H1735 C1727 0.929 . S
H1736 C1744 0.929 . S
H1737 C1746 0.930 . S
H1738 C1748 0.930 . S
H1739 C1751 0.929 . S
H1740 C1754 0.930 . S
H1741 C1756 0.960 . S
H1742 C1756 0.960 . S
H1743 C1756 0.960 . S
C1744 H1736 0.929 . S
C1744 C1745 1.377 . S
C1744 C1746 1.384 . S
C1745 C1744 1.377 . S
C1745 C1751 1.390 . S
C1746 H1737 0.930 . S
C1746 C1744 1.384 . S
C1746 C1747 1.372 . S
C1747 C1746 1.372 . S
C1747 C1748 1.400 . S
C1747 C1752 1.490 . S
C1748 H1738 0.930 . S
C1748 C1747 1.400 . S
C1748 C1751 1.386 . S
H1749 C1765 0.930 . S
H1750 C1766 0.931 . S
C1751 H1739 0.929 . S
C1751 C1745 1.390 . S
C1751 C1748 1.386 . S
C1752 C1747 1.490 . S
C1752 C1754 1.395 . S
C1752 C1755 1.403 . S
H1753 C1759 0.930 . S
C1754 H1740 0.930 . S
C1754 C1752 1.395 . S
C1754 C1757 1.403 . S
C1755 C1752 1.403 . S
C1755 C1756 1.524 . S
C1755 C1759 1.400 . S
C1756 H1741 0.960 . S
C1756 H1742 0.960 . S
C1756 H1743 0.960 . S
C1756 C1755 1.524 . S
C1757 C1754 1.403 . S
C1757 C1758 1.392 . S
C1757 C1761 1.495 . S
C1758 C1757 1.392 . S
C1758 C1759 1.385 . S
C1758 C1760 1.478 . S
C1759 H1753 0.930 . S
C1759 C1755 1.400 . S
C1759 C1758 1.385 . S
C1760 C1758 1.478 . S
C1760 C1762 1.381 . S
C1760 C1766 1.383 . S
C1761 C1757 1.495 . S
C1761 H1767 0.959 . S
C1761 H1768 0.961 . S
C1761 H1769 0.960 . S
C1762 C1760 1.381 . S
C1762 C1763 1.394 . S
C1762 H1770 0.930 . S
C1763 C1762 1.394 . S
C1763 C1764 1.383 . S
C1763 H1771 0.929 . S
C1764 C1763 1.383 . S
C1764 C1765 1.377 . S
C1765 H1749 0.930 . S
C1765 C1764 1.377 . S
C1765 C1766 1.379 . S
C1766 H1750 0.931 . S
C1766 C1760 1.383 . S
C1766 C1765 1.379 . S
H1767 C1761 0.959 . S
H1768 C1761 0.961 . S
H1769 C1761 0.960 . S
H1770 C1762 0.930 . S
H1771 C1763 0.929 . S
H1772 C1780 0.929 . S
H1773 C1782 0.930 . S
H1774 C1784 0.930 . S
H1775 C1787 0.929 . S
H1776 C1790 0.930 . S
H1777 C1792 0.960 . S
H1778 C1792 0.960 . S
H1779 C1792 0.960 . S
C1780 H1772 0.929 . S
C1780 C1781 1.377 . S
C1780 C1782 1.384 . S
C1781 C1780 1.377 . S
C1781 C1787 1.390 . S
C1782 H1773 0.930 . S
C1782 C1780 1.384 . S
C1782 C1783 1.372 . S
C1783 C1782 1.372 . S
C1783 C1784 1.400 . S
C1783 C1788 1.490 . S
C1784 H1774 0.930 . S
C1784 C1783 1.400 . S
C1784 C1787 1.386 . S
H1785 C1801 0.930 . S
H1786 C1802 0.931 . S
C1787 H1775 0.929 . S
C1787 C1781 1.390 . S
C1787 C1784 1.386 . S
C1788 C1783 1.490 . S
C1788 C1790 1.395 . S
C1788 C1791 1.403 . S
H1789 C1795 0.930 . S
C1790 H1776 0.930 . S
C1790 C1788 1.395 . S
C1790 C1793 1.403 . S
C1791 C1788 1.403 . S
C1791 C1792 1.524 . S
C1791 C1795 1.400 . S
C1792 H1777 0.960 . S
C1792 H1778 0.960 . S
C1792 H1779 0.960 . S
C1792 C1791 1.524 . S
C1793 C1790 1.403 . S
C1793 C1794 1.392 . S
C1793 C1797 1.495 . S
C1794 C1793 1.392 . S
C1794 C1795 1.385 . S
C1794 C1796 1.478 . S
C1795 H1789 0.930 . S
C1795 C1791 1.400 . S
C1795 C1794 1.385 . S
C1796 C1794 1.478 . S
C1796 C1798 1.381 . S
C1796 C1802 1.383 . S
C1797 C1793 1.495 . S
C1797 H1803 0.959 . S
C1797 H1804 0.961 . S
C1797 H1805 0.960 . S
C1798 C1796 1.381 . S
C1798 C1799 1.394 . S
C1798 H1806 0.930 . S
C1799 C1798 1.394 . S
C1799 C1800 1.383 . S
C1799 H1807 0.929 . S
C1800 C1799 1.383 . S
C1800 C1801 1.377 . S
C1801 H1785 0.930 . S
C1801 C1800 1.377 . S
C1801 C1802 1.379 . S
C1802 H1786 0.931 . S
C1802 C1796 1.383 . S
C1802 C1801 1.379 . S
H1803 C1797 0.959 . S
H1804 C1797 0.961 . S
H1805 C1797 0.960 . S
H1806 C1798 0.930 . S
H1807 C1799 0.929 . S
H1808 C1816 0.929 . S
H1809 C1818 0.930 . S
H1810 C1820 0.930 . S
H1811 C1823 0.929 . S
H1812 C1826 0.930 . S
H1813 C1828 0.960 . S
H1814 C1828 0.960 . S
H1815 C1828 0.960 . S
C1816 H1808 0.929 . S
C1816 C1817 1.377 . S
C1816 C1818 1.384 . S
C1817 C1816 1.377 . S
C1817 C1823 1.390 . S
C1818 H1809 0.930 . S
C1818 C1816 1.384 . S
C1818 C1819 1.372 . S
C1819 C1818 1.372 . S
C1819 C1820 1.400 . S
C1819 C1824 1.490 . S
C1820 H1810 0.930 . S
C1820 C1819 1.400 . S
C1820 C1823 1.386 . S
H1821 C1837 0.930 . S
H1822 C1838 0.931 . S
C1823 H1811 0.929 . S
C1823 C1817 1.390 . S
C1823 C1820 1.386 . S
C1824 C1819 1.490 . S
C1824 C1826 1.395 . S
C1824 C1827 1.403 . S
H1825 C1831 0.930 . S
C1826 H1812 0.930 . S
C1826 C1824 1.395 . S
C1826 C1829 1.403 . S
C1827 C1824 1.403 . S
C1827 C1828 1.524 . S
C1827 C1831 1.400 . S
C1828 H1813 0.960 . S
C1828 H1814 0.960 . S
C1828 H1815 0.960 . S
C1828 C1827 1.524 . S
C1829 C1826 1.403 . S
C1829 C1830 1.392 . S
C1829 C1833 1.495 . S
C1830 C1829 1.392 . S
C1830 C1831 1.385 . S
C1830 C1832 1.478 . S
C1831 H1825 0.930 . S
C1831 C1827 1.400 . S
C1831 C1830 1.385 . S
C1832 C1830 1.478 . S
C1832 C1834 1.381 . S
C1832 C1838 1.383 . S
C1833 C1829 1.495 . S
C1833 H1839 0.959 . S
C1833 H1840 0.961 . S
C1833 H1841 0.960 . S
C1834 C1832 1.381 . S
C1834 C1835 1.394 . S
C1834 H1842 0.930 . S
C1835 C1834 1.394 . S
C1835 C1836 1.383 . S
C1835 H1843 0.929 . S
C1836 C1835 1.383 . S
C1836 C1837 1.377 . S
C1837 H1821 0.930 . S
C1837 C1836 1.377 . S
C1837 C1838 1.379 . S
C1838 H1822 0.931 . S
C1838 C1832 1.383 . S
C1838 C1837 1.379 . S
H1839 C1833 0.959 . S
H1840 C1833 0.961 . S
H1841 C1833 0.960 . S
H1842 C1834 0.930 . S
H1843 C1835 0.929 . S
H1844 C1852 0.929 . S
H1845 C1854 0.930 . S
H1846 C1856 0.930 . S
H1847 C1859 0.929 . S
H1848 C1862 0.930 . S
H1849 C1864 0.960 . S
H1850 C1864 0.960 . S
H1851 C1864 0.960 . S
C1852 H1844 0.929 . S
C1852 C1853 1.377 . S
C1852 C1854 1.384 . S
C1853 C1852 1.377 . S
C1853 C1859 1.390 . S
C1854 H1845 0.930 . S
C1854 C1852 1.384 . S
C1854 C1855 1.372 . S
C1855 C1854 1.372 . S
C1855 C1856 1.400 . S
C1855 C1860 1.490 . S
C1856 H1846 0.930 . S
C1856 C1855 1.400 . S
C1856 C1859 1.386 . S
H1857 C1873 0.930 . S
H1858 C1874 0.931 . S
C1859 H1847 0.929 . S
C1859 C1853 1.390 . S
C1859 C1856 1.386 . S
C1860 C1855 1.490 . S
C1860 C1862 1.395 . S
C1860 C1863 1.403 . S
H1861 C1867 0.930 . S
C1862 H1848 0.930 . S
C1862 C1860 1.395 . S
C1862 C1865 1.403 . S
C1863 C1860 1.403 . S
C1863 C1864 1.524 . S
C1863 C1867 1.400 . S
C1864 H1849 0.960 . S
C1864 H1850 0.960 . S
C1864 H1851 0.960 . S
C1864 C1863 1.524 . S
C1865 C1862 1.403 . S
C1865 C1866 1.392 . S
C1865 C1869 1.495 . S
C1866 C1865 1.392 . S
C1866 C1867 1.385 . S
C1866 C1868 1.478 . S
C1867 H1861 0.930 . S
C1867 C1863 1.400 . S
C1867 C1866 1.385 . S
C1868 C1866 1.478 . S
C1868 C1870 1.381 . S
C1868 C1874 1.383 . S
C1869 C1865 1.495 . S
C1869 H1875 0.959 . S
C1869 H1876 0.961 . S
C1869 H1877 0.960 . S
C1870 C1868 1.381 . S
C1870 C1871 1.394 . S
C1870 H1878 0.930 . S
C1871 C1870 1.394 . S
C1871 C1872 1.383 . S
C1871 H1879 0.929 . S
C1872 C1871 1.383 . S
C1872 C1873 1.377 . S
C1873 H1857 0.930 . S
C1873 C1872 1.377 . S
C1873 C1874 1.379 . S
C1874 H1858 0.931 . S
C1874 C1868 1.383 . S
C1874 C1873 1.379 . S
H1875 C1869 0.959 . S
H1876 C1869 0.961 . S
H1877 C1869 0.960 . S
H1878 C1870 0.930 . S
H1879 C1871 0.929 . S
H1880 C1888 0.929 . S
H1881 C1890 0.930 . S
H1882 C1892 0.930 . S
H1883 C1895 0.929 . S
H1884 C1898 0.930 . S
H1885 C1900 0.960 . S
H1886 C1900 0.960 . S
H1887 C1900 0.960 . S
C1888 H1880 0.929 . S
C1888 C1889 1.377 . S
C1888 C1890 1.384 . S
C1889 C1888 1.377 . S
C1889 C1895 1.390 . S
C1890 H1881 0.930 . S
C1890 C1888 1.384 . S
C1890 C1891 1.372 . S
C1891 C1890 1.372 . S
C1891 C1892 1.400 . S
C1891 C1896 1.490 . S
C1892 H1882 0.930 . S
C1892 C1891 1.400 . S
C1892 C1895 1.386 . S
H1893 C1909 0.930 . S
H1894 C1910 0.931 . S
C1895 H1883 0.929 . S
C1895 C1889 1.390 . S
C1895 C1892 1.386 . S
C1896 C1891 1.490 . S
C1896 C1898 1.395 . S
C1896 C1899 1.403 . S
H1897 C1903 0.930 . S
C1898 H1884 0.930 . S
C1898 C1896 1.395 . S
C1898 C1901 1.403 . S
C1899 C1896 1.403 . S
C1899 C1900 1.524 . S
C1899 C1903 1.400 . S
C1900 H1885 0.960 . S
C1900 H1886 0.960 . S
C1900 H1887 0.960 . S
C1900 C1899 1.524 . S
C1901 C1898 1.403 . S
C1901 C1902 1.392 . S
C1901 C1905 1.495 . S
C1902 C1901 1.392 . S
C1902 C1903 1.385 . S
C1902 C1904 1.478 . S
C1903 H1897 0.930 . S
C1903 C1899 1.400 . S
C1903 C1902 1.385 . S
C1904 C1902 1.478 . S
C1904 C1906 1.381 . S
C1904 C1910 1.383 . S
C1905 C1901 1.495 . S
C1905 H1911 0.959 . S
C1905 H1912 0.961 . S
C1905 H1913 0.960 . S
C1906 C1904 1.381 . S
C1906 C1907 1.394 . S
C1906 H1914 0.930 . S
C1907 C1906 1.394 . S
C1907 C1908 1.383 . S
C1907 H1915 0.929 . S
C1908 C1907 1.383 . S
C1908 C1909 1.377 . S
C1909 H1893 0.930 . S
C1909 C1908 1.377 . S
C1909 C1910 1.379 . S
C1910 H1894 0.931 . S
C1910 C1904 1.383 . S
C1910 C1909 1.379 . S
H1911 C1905 0.959 . S
H1912 C1905 0.961 . S
H1913 C1905 0.960 . S
H1914 C1906 0.930 . S
H1915 C1907 0.929 . S
H1916 C1924 0.929 . S
H1917 C1926 0.930 . S
H1918 C1928 0.930 . S
H1919 C1931 0.929 . S
H1920 C1934 0.930 . S
H1921 C1936 0.960 . S
H1922 C1936 0.960 . S
H1923 C1936 0.960 . S
C1924 H1916 0.929 . S
C1924 C1925 1.377 . S
C1924 C1926 1.384 . S
C1925 C1924 1.377 . S
C1925 C1931 1.390 . S
C1926 H1917 0.930 . S
C1926 C1924 1.384 . S
C1926 C1927 1.372 . S
C1927 C1926 1.372 . S
C1927 C1928 1.400 . S
C1927 C1932 1.490 . S
C1928 H1918 0.930 . S
C1928 C1927 1.400 . S
C1928 C1931 1.386 . S
H1929 C1945 0.930 . S
H1930 C1946 0.931 . S
C1931 H1919 0.929 . S
C1931 C1925 1.390 . S
C1931 C1928 1.386 . S
C1932 C1927 1.490 . S
C1932 C1934 1.395 . S
C1932 C1935 1.403 . S
H1933 C1939 0.930 . S
C1934 H1920 0.930 . S
C1934 C1932 1.395 . S
C1934 C1937 1.403 . S
C1935 C1932 1.403 . S
C1935 C1936 1.524 . S
C1935 C1939 1.400 . S
C1936 H1921 0.960 . S
C1936 H1922 0.960 . S
C1936 H1923 0.960 . S
C1936 C1935 1.524 . S
C1937 C1934 1.403 . S
C1937 C1938 1.392 . S
C1937 C1941 1.495 . S
C1938 C1937 1.392 . S
C1938 C1939 1.385 . S
C1938 C1940 1.478 . S
C1939 H1933 0.930 . S
C1939 C1935 1.400 . S
C1939 C1938 1.385 . S
C1940 C1938 1.478 . S
C1940 C1942 1.381 . S
C1940 C1946 1.383 . S
C1941 C1937 1.495 . S
C1941 H1947 0.959 . S
C1941 H1948 0.961 . S
C1941 H1949 0.960 . S
C1942 C1940 1.381 . S
C1942 C1943 1.394 . S
C1942 H1950 0.930 . S
C1943 C1942 1.394 . S
C1943 C1944 1.383 . S
C1943 H1951 0.929 . S
C1944 C1943 1.383 . S
C1944 C1945 1.377 . S
C1945 H1929 0.930 . S
C1945 C1944 1.377 . S
C1945 C1946 1.379 . S
C1946 H1930 0.931 . S
C1946 C1940 1.383 . S
C1946 C1945 1.379 . S
H1947 C1941 0.959 . S
H1948 C1941 0.961 . S
H1949 C1941 0.960 . S
H1950 C1942 0.930 . S
H1951 C1943 0.929 . S
H1952 C1960 0.929 . S
H1953 C1962 0.930 . S
H1954 C1964 0.930 . S
H1955 C1967 0.929 . S
H1956 C1970 0.930 . S
H1957 C1972 0.960 . S
H1958 C1972 0.960 . S
H1959 C1972 0.960 . S
C1960 H1952 0.929 . S
C1960 C1961 1.377 . S
C1960 C1962 1.384 . S
C1961 C1960 1.377 . S
C1961 C1967 1.390 . S
C1962 H1953 0.930 . S
C1962 C1960 1.384 . S
C1962 C1963 1.372 . S
C1963 C1962 1.372 . S
C1963 C1964 1.400 . S
C1963 C1968 1.490 . S
C1964 H1954 0.930 . S
C1964 C1963 1.400 . S
C1964 C1967 1.386 . S
H1965 C1981 0.930 . S
H1966 C1982 0.931 . S
C1967 H1955 0.929 . S
C1967 C1961 1.390 . S
C1967 C1964 1.386 . S
C1968 C1963 1.490 . S
C1968 C1970 1.395 . S
C1968 C1971 1.403 . S
H1969 C1975 0.930 . S
C1970 H1956 0.930 . S
C1970 C1968 1.395 . S
C1970 C1973 1.403 . S
C1971 C1968 1.403 . S
C1971 C1972 1.524 . S
C1971 C1975 1.400 . S
C1972 H1957 0.960 . S
C1972 H1958 0.960 . S
C1972 H1959 0.960 . S
C1972 C1971 1.524 . S
C1973 C1970 1.403 . S
C1973 C1974 1.392 . S
C1973 C1977 1.495 . S
C1974 C1973 1.392 . S
C1974 C1975 1.385 . S
C1974 C1976 1.478 . S
C1975 H1969 0.930 . S
C1975 C1971 1.400 . S
C1975 C1974 1.385 . S
C1976 C1974 1.478 . S
C1976 C1978 1.381 . S
C1976 C1982 1.383 . S
C1977 C1973 1.495 . S
C1977 H1983 0.959 . S
C1977 H1984 0.961 . S
C1977 H1985 0.960 . S
C1978 C1976 1.381 . S
C1978 C1979 1.394 . S
C1978 H1986 0.930 . S
C1979 C1978 1.394 . S
C1979 C1980 1.383 . S
C1979 H1987 0.929 . S
C1980 C1979 1.383 . S
C1980 C1981 1.377 . S
C1981 H1965 0.930 . S
C1981 C1980 1.377 . S
C1981 C1982 1.379 . S
C1982 H1966 0.931 . S
C1982 C1976 1.383 . S
C1982 C1981 1.379 . S
H1983 C1977 0.959 . S
H1984 C1977 0.961 . S
H1985 C1977 0.960 . S
H1986 C1978 0.930 . S
H1987 C1979 0.929 . S
H1988 C1996 0.929 . S
H1989 C1998 0.930 . S
H1990 C2000 0.930 . S
H1991 C2003 0.929 . S
H1992 C2006 0.930 . S
H1993 C2008 0.960 . S
H1994 C2008 0.960 . S
H1995 C2008 0.960 . S
C1996 H1988 0.929 . S
C1996 C1997 1.377 . S
C1996 C1998 1.384 . S
C1997 C1996 1.377 . S
C1997 C2003 1.390 . S
C1998 H1989 0.930 . S
C1998 C1996 1.384 . S
C1998 C1999 1.372 . S
C1999 C1998 1.372 . S
C1999 C2000 1.400 . S
C1999 C2004 1.490 . S
C2000 H1990 0.930 . S
C2000 C1999 1.400 . S
C2000 C2003 1.386 . S
H2001 C2017 0.930 . S
H2002 C2018 0.931 . S
C2003 H1991 0.929 . S
C2003 C1997 1.390 . S
C2003 C2000 1.386 . S
C2004 C1999 1.490 . S
C2004 C2006 1.395 . S
C2004 C2007 1.403 . S
H2005 C2011 0.930 . S
C2006 H1992 0.930 . S
C2006 C2004 1.395 . S
C2006 C2009 1.403 . S
C2007 C2004 1.403 . S
C2007 C2008 1.524 . S
C2007 C2011 1.400 . S
C2008 H1993 0.960 . S
C2008 H1994 0.960 . S
C2008 H1995 0.960 . S
C2008 C2007 1.524 . S
C2009 C2006 1.403 . S
C2009 C2010 1.392 . S
C2009 C2013 1.495 . S
C2010 C2009 1.392 . S
C2010 C2011 1.385 . S
C2010 C2012 1.478 . S
C2011 H2005 0.930 . S
C2011 C2007 1.400 . S
C2011 C2010 1.385 . S
C2012 C2010 1.478 . S
C2012 C2014 1.381 . S
C2012 C2018 1.383 . S
C2013 C2009 1.495 . S
C2013 H2019 0.959 . S
C2013 H2020 0.961 . S
C2013 H2021 0.960 . S
C2014 C2012 1.381 . S
C2014 C2015 1.394 . S
C2014 H2022 0.930 . S
C2015 C2014 1.394 . S
C2015 C2016 1.383 . S
C2015 H2023 0.929 . S
C2016 C2015 1.383 . S
C2016 C2017 1.377 . S
C2017 H2001 0.930 . S
C2017 C2016 1.377 . S
C2017 C2018 1.379 . S
C2018 H2002 0.931 . S
C2018 C2012 1.383 . S
C2018 C2017 1.379 . S
H2019 C2013 0.959 . S
H2020 C2013 0.961 . S
H2021 C2013 0.960 . S
H2022 C2014 0.930 . S
H2023 C2015 0.929 . S
H2024 C2032 0.929 . S
H2025 C2034 0.930 . S
H2026 C2036 0.930 . S
H2027 C2039 0.929 . S
H2028 C2042 0.930 . S
H2029 C2044 0.960 . S
H2030 C2044 0.960 . S
H2031 C2044 0.960 . S
C2032 H2024 0.929 . S
C2032 C2033 1.377 . S
C2032 C2034 1.384 . S
C2033 C2032 1.377 . S
C2033 C2039 1.390 . S
C2034 H2025 0.930 . S
C2034 C2032 1.384 . S
C2034 C2035 1.372 . S
C2035 C2034 1.372 . S
C2035 C2036 1.400 . S
C2035 C2040 1.490 . S
C2036 H2026 0.930 . S
C2036 C2035 1.400 . S
C2036 C2039 1.386 . S
H2037 C2053 0.930 . S
H2038 C2054 0.931 . S
C2039 H2027 0.929 . S
C2039 C2033 1.390 . S
C2039 C2036 1.386 . S
C2040 C2035 1.490 . S
C2040 C2042 1.395 . S
C2040 C2043 1.403 . S
H2041 C2047 0.930 . S
C2042 H2028 0.930 . S
C2042 C2040 1.395 . S
C2042 C2045 1.403 . S
C2043 C2040 1.403 . S
C2043 C2044 1.524 . S
C2043 C2047 1.400 . S
C2044 H2029 0.960 . S
C2044 H2030 0.960 . S
C2044 H2031 0.960 . S
C2044 C2043 1.524 . S
C2045 C2042 1.403 . S
C2045 C2046 1.392 . S
C2045 C2049 1.495 . S
C2046 C2045 1.392 . S
C2046 C2047 1.385 . S
C2046 C2048 1.478 . S
C2047 H2041 0.930 . S
C2047 C2043 1.400 . S
C2047 C2046 1.385 . S
C2048 C2046 1.478 . S
C2048 C2050 1.381 . S
C2048 C2054 1.383 . S
C2049 C2045 1.495 . S
C2049 H2055 0.959 . S
C2049 H2056 0.961 . S
C2049 H2057 0.960 . S
C2050 C2048 1.381 . S
C2050 C2051 1.394 . S
C2050 H2058 0.930 . S
C2051 C2050 1.394 . S
C2051 C2052 1.383 . S
C2051 H2059 0.929 . S
C2052 C2051 1.383 . S
C2052 C2053 1.377 . S
C2053 H2037 0.930 . S
C2053 C2052 1.377 . S
C2053 C2054 1.379 . S
C2054 H2038 0.931 . S
C2054 C2048 1.383 . S
C2054 C2053 1.379 . S
H2055 C2049 0.959 . S
H2056 C2049 0.961 . S
H2057 C2049 0.960 . S
H2058 C2050 0.930 . S
H2059 C2051 0.929 . S
H2060 C2068 0.929 . S
H2061 C2070 0.930 . S
H2062 C2072 0.930 . S
H2063 C2075 0.929 . S
H2064 C2078 0.930 . S
H2065 C2080 0.960 . S
H2066 C2080 0.960 . S
H2067 C2080 0.960 . S
C2068 H2060 0.929 . S
C2068 C2069 1.377 . S
C2068 C2070 1.384 . S
C2069 C2068 1.377 . S
C2069 C2075 1.390 . S
C2070 H2061 0.930 . S
C2070 C2068 1.384 . S
C2070 C2071 1.372 . S
C2071 C2070 1.372 . S
C2071 C2072 1.400 . S
C2071 C2076 1.490 . S
C2072 H2062 0.930 . S
C2072 C2071 1.400 . S
C2072 C2075 1.386 . S
H2073 C2089 0.930 . S
H2074 C2090 0.931 . S
C2075 H2063 0.929 . S
C2075 C2069 1.390 . S
C2075 C2072 1.386 . S
C2076 C2071 1.490 . S
C2076 C2078 1.395 . S
C2076 C2079 1.403 . S
H2077 C2083 0.930 . S
C2078 H2064 0.930 . S
C2078 C2076 1.395 . S
C2078 C2081 1.403 . S
C2079 C2076 1.403 . S
C2079 C2080 1.524 . S
C2079 C2083 1.400 . S
C2080 H2065 0.960 . S
C2080 H2066 0.960 . S
C2080 H2067 0.960 . S
C2080 C2079 1.524 . S
C2081 C2078 1.403 . S
C2081 C2082 1.392 . S
C2081 C2085 1.495 . S
C2082 C2081 1.392 . S
C2082 C2083 1.385 . S
C2082 C2084 1.478 . S
C2083 H2077 0.930 . S
C2083 C2079 1.400 . S
C2083 C2082 1.385 . S
C2084 C2082 1.478 . S
C2084 C2086 1.381 . S
C2084 C2090 1.383 . S
C2085 C2081 1.495 . S
C2085 H2091 0.959 . S
C2085 H2092 0.961 . S
C2085 H2093 0.960 . S
C2086 C2084 1.381 . S
C2086 C2087 1.394 . S
C2086 H2094 0.930 . S
C2087 C2086 1.394 . S
C2087 C2088 1.383 . S
C2087 H2095 0.929 . S
C2088 C2087 1.383 . S
C2088 C2089 1.377 . S
C2089 H2073 0.930 . S
C2089 C2088 1.377 . S
C2089 C2090 1.379 . S
C2090 H2074 0.931 . S
C2090 C2084 1.383 . S
C2090 C2089 1.379 . S
H2091 C2085 0.959 . S
H2092 C2085 0.961 . S
H2093 C2085 0.960 . S
H2094 C2086 0.930 . S
H2095 C2087 0.929 . S
C953 C5 1.178 . S
C972 C772 1.172 . S
C989 C654 1.177 . S
C1008 C64 1.189 . S
C1025 C713 1.175 . S
C1044 C123 1.160 . S
C1061 C595 1.172 . S
C1080 C182 1.155 . S
C1097 C241 1.177 . S
C1116 C890 1.168 . S
C1133 C300 1.175 . S
C1152 C536 1.185 . S
C1169 C831 1.175 . S
C1188 C359 1.184 . S
C1205 C418 1.177 . S
C1224 C477 1.189 . S
C1241 C239 1.661 . S
C1260 C3 1.656 . S
C1277 C62 1.659 . S
C1296 C298 1.649 . S
C1313 C121 1.662 . S
C1332 C357 1.661 . S
C1349 C416 1.663 . S
C1368 C180 1.667 . S
C1385 C475 1.659 . S
C1404 C593 1.649 . S
C1421 C534 1.661 . S
C1440 C652 1.662 . S
C1457 C829 1.662 . S
C1476 C711 1.666 . S
C1493 C770 1.662 . S
C1512 C888 1.665 . S
C1529 C347 1.329 . S
C1548 C52 1.328 . S
C1565 C111 1.328 . S
C1584 C406 1.334 . S
C1601 C170 1.329 . S
C1620 C465 1.317 . S
C1637 C288 1.328 . S
C1656 C229 1.313 . S
C1673 C269 1.657 . S
C1692 C623 1.655 . S
C1709 C151 1.657 . S
C1728 C505 1.654 . S
C1745 C682 1.640 . S
C1764 C387 1.649 . S
C1781 C564 1.640 . S
C1800 C33 1.654 . S
C1817 C524 1.326 . S
C1836 C760 1.314 . S
C1853 C642 1.329 . S
C1872 C937 1.319 . S
C1889 C819 1.329 . S
C1908 C583 1.315 . S
C1925 C701 1.329 . S
C1944 C878 1.326 . S
C1961 C859 1.638 . S
C1980 C92 1.622 . S
C1997 C800 1.638 . S
C2016 C328 1.621 . S
C2033 C918 1.641 . S
C2052 C210 1.636 . S
C2069 C741 1.644 . S
C2088 C446 1.650 . S
