# Generated by pormake.
# Topology sxc, (6)-cn, num edge types: 1
# Building blocks:
#     Node 0, Type 0, BuildingBlock: BETGAK_clean_sbu_0, # of connection points: 6
#     Node 1, Type 0, BuildingBlock: BETGAK_clean_sbu_0, # of connection points: 6
#     Node 2, Type 0, BuildingBlock: BETGAK_clean_sbu_0, # of connection points: 6
#     Edge 3, Type (0, 0), BuildingBlock: TEMPAE_clean_linker_10, # of connection points: 2
#     Edge 4, Type (0, 0), BuildingBlock: TEMPAE_clean_linker_10, # of connection points: 2
#     Edge 5, Type (0, 0), BuildingBlock: TEMPAE_clean_linker_10, # of connection points: 2
#     Edge 6, Type (0, 0), BuildingBlock: TEMPAE_clean_linker_10, # of connection points: 2
#     Edge 7, Type (0, 0), BuildingBlock: TEMPAE_clean_linker_10, # of connection points: 2
#     Edge 8, Type (0, 0), BuildingBlock: TEMPAE_clean_linker_10, # of connection points: 2
#     Edge 9, Type (0, 0), BuildingBlock: TEMPAE_clean_linker_10, # of connection points: 2
#     Edge 10, Type (0, 0), BuildingBlock: TEMPAE_clean_linker_10, # of connection points: 2
#     Edge 11, Type (0, 0), BuildingBlock: TEMPAE_clean_linker_10, # of connection points: 2
# Relax obj value: 0.325
# Max RMSD: 0.159
# Mean RMSD: 0.088
data_MOF--net-sxc--node1-BETGAK_clean_sbu_0--edge1-TEMPAE_clean_linker_10
_symmetry_space_group_name_H-M    P1
_symmetry_Int_Tables_number       1
_symmetry_cell_setting            triclinic
loop_
_symmetry_equiv_pos_as_xyz
'x, y, z'
_cell_length_a     17.68184
_cell_length_b     16.18669
_cell_length_c     45.023965
_cell_angle_alpha  90.109717
_cell_angle_beta   94.058211
_cell_angle_gamma 94.632065
loop_
_atom_site_label
_atom_site_type_symbol
_atom_site_fract_x
_atom_site_fract_y
_atom_site_fract_z
_atom_type_partial_charge
La0 La 0.23744 1.0441 0.00322 0.0
La1 La 1.07871 1.03929 0.00484 0.0
C2 C 0.37085 0.07361 0.98777 0.0
C3 C 0.40669 0.14249 0.97144 0.0
C4 C 0.48478 0.16336 0.97644 0.0
C5 C 0.51774 0.23544 0.9642 0.0
C6 C 0.47283 0.28784 0.94686 0.0
C7 C 0.39513 0.26431 0.94062 0.0
C8 C 0.36227 0.192 0.9528 0.0
C9 C 0.19403 1.02534 0.05839 0.0
C10 C 0.15867 0.21702 0.00589 0.0
C11 C 0.94128 1.00953 0.0153 0.0
C12 C 0.88435 0.9407 0.00712 0.0
C13 C 0.81414 0.95767 0.99293 0.0
C14 C 0.76213 0.89292 0.98242 0.0
C15 C 0.77957 0.81035 0.98618 0.0
C16 C 0.84942 0.79347 1.00078 0.0
C17 C 0.90145 0.85805 0.01112 0.0
C18 C 1.12478 1.05833 0.94997 0.0
C19 C 0.15809 0.86351 0.0038 0.0
O20 O 0.34976 0.09284 0.01398 0.0
O21 O 0.31831 1.02683 0.97243 0.0
O22 O 0.24938 0.98995 0.04763 0.0
O23 O 0.1668 0.07273 0.03871 0.0
O24 O 0.21432 0.17754 0.99527 0.0
O25 O 1.1012 0.17176 0.01649 0.0
O26 O 0.96378 1.05426 0.99301 0.0
O27 O 0.99817 0.99302 0.03396 0.0
O28 O 1.07149 0.0969 0.96067 0.0
O29 O 0.14893 1.00943 0.96962 0.0
O30 O 1.09458 0.90236 0.00493 0.0
O31 O 0.22378 0.90791 1.00223 0.0
H32 H 0.51964 0.12586 0.99085 0.0
H33 H 0.57752 0.25264 0.96985 0.0
H34 H 0.35933 0.30332 0.92725 0.0
H35 H 0.30173 0.17642 0.94853 0.0
H36 H 0.80021 1.02109 0.98949 0.0
H37 H 0.70832 0.90729 0.97143 0.0
H38 H 0.86449 0.73026 0.00364 0.0
H39 H 0.95546 0.84307 0.02173 0.0
La40 La 1.06365 1.03107 0.33542 0.0
La41 La 0.22203 1.04803 0.33764 0.0
C42 C 0.93479 0.06303 0.34906 0.0
C43 C 0.91322 0.14754 0.35472 0.0
C44 C 0.85018 0.17619 0.33879 0.0
C45 C 0.8356 0.25932 0.34063 0.0
C46 C 0.88467 0.31699 0.35806 0.0
C47 C 0.94805 0.28762 0.37405 0.0
C48 C 0.96154 0.20383 0.37272 0.0
C49 C 1.11245 1.01393 0.28165 0.0
C50 C 0.14873 0.21765 0.33437 0.0
C51 C 0.36274 1.0595 0.33591 0.0
C52 C 0.41294 0.12762 0.35046 0.0
C53 C 0.43102 0.12649 0.3814 0.0
C54 C 0.4691 0.19536 0.396 0.0
C55 C 0.49065 0.26675 0.38002 0.0
C56 C 0.4718 0.26871 0.34923 0.0
C57 C 0.43348 0.19974 0.33456 0.0
C58 C 0.16831 0.06609 0.39111 0.0
C59 C 1.13773 0.86274 0.33493 0.0
O60 O 0.94965 1.04788 0.32161 0.0
O61 O 0.98561 1.03575 0.3683 0.0
O62 O 1.0544 0.97115 0.29174 0.0
O63 O 0.14018 0.06644 0.30136 0.0
O64 O 1.08495 0.1694 0.33569 0.0
O65 O 0.2133 0.18265 0.33346 0.0
O66 O 0.31733 0.08102 0.3135 0.0
O67 O 0.32725 1.00897 0.35392 0.0
O68 O 0.2235 0.1116 0.38083 0.0
O69 O 0.14554 1.01219 0.37147 0.0
O70 O 0.19856 0.91147 0.32818 0.0
O71 O 1.07591 0.89761 0.34191 0.0
H72 H 0.81245 0.13434 0.32465 0.0
H73 H 0.78403 0.27699 0.32884 0.0
H74 H 0.98744 0.32889 0.38766 0.0
H75 H 1.01145 0.1838 0.38514 0.0
H76 H 0.41514 0.07265 0.39452 0.0
H77 H 0.48381 0.192 0.41972 0.0
H78 H 0.48966 0.32222 0.33627 0.0
H79 H 0.41951 0.20309 0.3108 0.0
La80 La 0.14316 0.95994 0.6729 0.0
La81 La 0.14406 0.12512 0.6681 0.0
C82 C 1.11961 0.81239 0.68965 0.0
C83 C 1.04922 0.7621 0.69474 0.0
C84 C 1.03449 0.68558 0.68003 0.0
C85 C 0.9614 0.64605 0.67833 0.0
C86 C 0.90251 0.68241 0.69154 0.0
C87 C 0.91867 0.75535 0.70842 0.0
C88 C 0.99162 0.79535 0.70989 0.0
C89 C 0.15106 1.00562 0.6166 0.0
C90 C 0.96848 1.04101 0.66943 0.0
C91 C 0.16491 0.27404 0.65236 0.0
C92 C 0.23268 0.32959 0.64801 0.0
C93 C 0.24336 0.40505 0.66362 0.0
C94 C 0.31279 0.45242 0.66381 0.0
C95 C 0.3722 0.42501 0.64818 0.0
C96 C 0.35941 0.35225 0.63089 0.0
C97 C 0.29037 0.30454 0.63095 0.0
C98 C 1.13605 0.07693 0.7241 0.0
C99 C 0.31892 1.04398 0.67113 0.0
O100 O 1.12636 0.83358 0.66198 0.0
O101 O 1.13852 0.87463 0.70794 0.0
O102 O 0.19111 0.95129 0.62979 0.0
O103 O 1.10772 1.03298 0.63499 0.0
O104 O 1.01026 0.97454 0.67493 0.0
O105 O 1.01227 0.11035 0.66376 0.0
O106 O 0.15699 0.25123 0.67981 0.0
O107 O 0.15071 0.2119 0.63369 0.0
O108 O 1.09356 0.12929 0.71105 0.0
O109 O 0.1805 1.05227 0.7057 0.0
O110 O 0.27756 0.11162 0.6676 0.0
O111 O 0.27492 0.97339 0.67488 0.0
H112 H 1.07824 0.6592 0.66821 0.0
H113 H 0.94998 0.58913 0.66551 0.0
H114 H 0.87385 0.78428 0.71873 0.0
H115 H 1.00152 0.85461 0.72131 0.0
H116 H 0.19938 0.4252 0.6769 0.0
H117 H 0.32124 0.50792 0.67751 0.0
H118 H 0.40381 0.33059 0.61819 0.0
H119 H 0.28352 0.24654 0.61864 0.0
C120 C 0.19799 0.36046 0.98445 0.0
C121 C 0.15957 0.3119 0.00556 0.0
C122 C 0.19603 0.44854 0.98325 0.0
C123 C 0.15746 0.49213 0.00445 0.0
C124 C 1.12026 0.44324 0.02627 0.0
C125 C 1.12029 0.35502 0.02611 0.0
C126 C 0.23492 0.49492 0.95887 0.0
C127 C 1.0806 0.48403 0.05025 0.0
C128 C 0.22066 0.7283 0.01508 0.0
C129 C 0.15655 0.76852 0.00416 0.0
C130 C 0.22113 0.64022 0.01594 0.0
C131 C 0.15708 0.58792 0.00416 0.0
C132 C 1.09253 0.62851 0.99249 0.0
C133 C 1.09245 0.71687 0.99332 0.0
C134 C 0.29141 0.60444 0.02981 0.0
C135 C 1.02248 0.57958 0.97877 0.0
H136 H 0.2283 0.32928 0.9682 0.0
H137 H 1.09039 0.31964 0.04271 0.0
H138 H 0.19712 0.53963 0.94824 0.0
H139 H 0.2868 0.53073 0.96858 0.0
H140 H 0.25178 0.45263 0.94147 0.0
H141 H 1.06879 0.44116 0.0689 0.0
H142 H 1.11538 0.53985 0.05928 0.0
H143 H 1.02562 0.50407 0.04068 0.0
H144 H 0.27087 0.76599 0.02375 0.0
H145 H 1.04225 0.74559 0.98463 0.0
H146 H 0.33413 0.60297 0.01297 0.0
H147 H 0.2795 0.54072 0.03825 0.0
H148 H 0.31756 0.64418 0.04856 0.0
H149 H 1.0352 0.51853 0.96998 0.0
H150 H 0.99509 0.61466 0.96034 0.0
H151 H 0.98057 0.56922 0.99585 0.0
C152 C 0.61378 0.30432 0.40738 0.0
C153 C 0.54676 0.33052 0.39378 0.0
C154 C 0.67907 0.35859 0.41141 0.0
C155 C 0.67713 0.4416 0.40071 0.0
C156 C 0.60482 0.47218 0.39439 0.0
C157 C 0.54039 0.4155 0.38955 0.0
C158 C 0.75002 0.32157 0.42415 0.0
C159 C 0.59566 0.56344 0.39094 0.0
C160 C 0.87452 0.44194 0.39105 0.0
C161 C 0.86139 0.40257 0.36299 0.0
C162 C 0.81663 0.48547 0.40223 0.0
C163 C 0.74495 0.48035 0.38608 0.0
C164 C 0.74484 0.46992 0.3547 0.0
C165 C 0.80547 0.43272 0.34328 0.0
C166 C 0.82769 0.52478 0.43273 0.0
C167 C 0.67691 0.48386 0.33368 0.0
H168 H 0.61771 0.239 0.41203 0.0
H169 H 0.48664 0.437 0.38097 0.0
H170 H 0.78511 0.30565 0.40591 0.0
H171 H 0.78335 0.36432 0.44019 0.0
H172 H 0.73639 0.26319 0.43633 0.0
H173 H 0.56384 0.58439 0.40957 0.0
H174 H 0.65101 0.60119 0.39136 0.0
H175 H 0.56088 0.575 0.37007 0.0
H176 H 0.92332 0.42996 0.4058 0.0
H177 H 0.80186 0.41454 0.32001 0.0
H178 H 0.86591 0.49 0.44784 0.0
H179 H 0.77273 0.53011 0.44282 0.0
H180 H 0.85546 0.58826 0.43061 0.0
H181 H 0.63029 0.43522 0.33678 0.0
H182 H 0.69076 0.4815 0.31002 0.0
H183 H 0.65666 0.54548 0.33785 0.0
C184 C 0.79583 0.63606 0.65521 0.0
C185 C 0.82327 0.64946 0.68491 0.0
C186 C 0.72067 0.60523 0.64811 0.0
C187 C 0.67246 0.58682 0.67135 0.0
C188 C 0.69948 0.60167 0.70139 0.0
C189 C 0.77482 0.63367 0.70783 0.0
C190 C 0.69372 0.58935 0.61587 0.0
C191 C 0.64957 0.58138 0.72666 0.0
C192 C 0.45999 0.55413 0.65322 0.0
C193 C 0.44929 0.46744 0.65229 0.0
C194 C 0.53267 0.59411 0.65931 0.0
C195 C 0.59562 0.54607 0.66429 0.0
C196 C 0.58538 0.45867 0.66258 0.0
C197 C 0.51213 0.42038 0.65699 0.0
C198 C 0.54221 0.68749 0.66044 0.0
C199 C 0.65084 0.40468 0.66751 0.0
H200 H 0.83331 0.64997 0.63751 0.0
H201 H 0.79644 0.64459 0.73076 0.0
H202 H 0.68142 0.5217 0.61201 0.0
H203 H 0.64012 0.619 0.61037 0.0
H204 H 0.7366 0.61296 0.60041 0.0
H205 H 0.67791 0.60109 0.74863 0.0
H206 H 0.59571 0.61194 0.72324 0.0
H207 H 0.63446 0.51351 0.7271 0.0
H208 H 0.41153 0.59062 0.6493 0.0
H209 H 0.50401 0.35325 0.65704 0.0
H210 H 0.58172 0.71052 0.64367 0.0
H211 H 0.56796 0.70883 0.68261 0.0
H212 H 0.48737 0.71583 0.65607 0.0
H213 H 0.70452 0.43412 0.65964 0.0
H214 H 0.63793 0.34433 0.65577 0.0
H215 H 0.6603 0.39256 0.69169 0.0
C216 C 0.82209 0.97542 0.6815 0.0
C217 C 0.87291 1.0397 0.66966 0.0
C218 C 0.73771 0.976 0.68245 0.0
C219 C 0.69196 1.04164 0.67038 0.0
C220 C 0.74329 0.10592 0.6579 0.0
C221 C 0.82768 0.10473 0.65822 0.0
C222 C 0.69877 0.90364 0.6978 0.0
C223 C 0.71011 0.1794 0.64314 0.0
C224 C 0.455 0.98165 0.65772 0.0
C225 C 0.41447 1.04538 0.67068 0.0
C226 C 0.53921 0.98112 0.65667 0.0
C227 C 0.59549 1.04315 0.67062 0.0
C228 C 0.55472 0.10685 0.68447 0.0
C229 C 0.47007 0.1082 0.68359 0.0
C230 C 0.56717 0.9116 0.63938 0.0
C231 C 0.59997 0.17602 0.70171 0.0
H232 H 0.84873 0.92271 0.69104 0.0
H233 H 0.8589 0.15719 0.64858 0.0
H234 H 0.64093 0.9156 0.70388 0.0
H235 H 0.69496 0.84842 0.68295 0.0
H236 H 0.73311 0.88812 0.71835 0.0
H237 H 0.73924 0.196 0.62266 0.0
H238 H 0.64819 0.16854 0.63713 0.0
H239 H 0.72048 0.23329 0.65855 0.0
H240 H 0.41985 0.93051 0.6471 0.0
H241 H 0.44738 0.15975 0.69439 0.0
H242 H 0.57388 0.85848 0.65445 0.0
H243 H 0.62277 0.92953 0.63024 0.0
H244 H 0.52542 0.89062 0.62076 0.0
H245 H 0.5733 0.18813 0.72272 0.0
H246 H 0.59894 0.23346 0.68841 0.0
H247 H 0.65988 0.16276 0.70725 0.0
C248 C 0.70913 0.67372 0.99334 0.0
C249 C 0.7255 0.74135 0.97493 0.0
C250 C 0.66146 0.60538 0.98278 0.0
C251 C 0.6298 0.6046 0.95298 0.0
C252 C 0.6446 0.67355 0.93443 0.0
C253 C 0.69237 0.74157 0.94569 0.0
C254 C 0.64571 0.53359 0.00348 0.0
C255 C 0.61065 0.67493 0.90275 0.0
C256 C 0.57978 0.38293 0.93035 0.0
C257 C 0.50536 0.37155 0.93927 0.0
C258 C 0.61906 0.46163 0.93143 0.0
C259 C 0.58269 0.52995 0.94165 0.0
C260 C 0.50457 0.52046 0.94694 0.0
C261 C 0.46675 0.44101 0.9458 0.0
C262 C 0.7019 0.46969 0.92491 0.0
C263 C 0.46262 0.59169 0.95721 0.0
H264 H 0.73386 0.67431 0.01609 0.0
H265 H 0.70537 0.79396 0.93144 0.0
H266 H 0.58354 0.52208 0.00542 0.0
H267 H 0.66607 0.4764 0.99428 0.0
H268 H 0.67384 0.54486 0.02614 0.0
H269 H 0.62632 0.73419 0.89146 0.0
H270 H 0.63027 0.62324 0.88985 0.0
H271 H 0.54772 0.66545 0.90236 0.0
H272 H 0.60907 0.32945 0.92458 0.0
H273 H 0.40905 0.43284 0.95264 0.0
H274 H 0.73766 0.4735 0.94623 0.0
H275 H 0.71571 0.52715 0.91234 0.0
H276 H 0.71735 0.41574 0.91199 0.0
H277 H 0.46194 0.59005 0.98184 0.0
H278 H 0.40271 0.58568 0.94777 0.0
H279 H 0.4892 0.65283 0.9508 0.0
C280 C 0.21021 0.36505 0.34518 0.0
C281 C 0.14713 0.31219 0.33416 0.0
C282 C 0.20851 0.45305 0.34618 0.0
C283 C 0.14324 0.49217 0.33449 0.0
C284 C 1.0799 0.43873 0.32274 0.0
C285 C 1.08203 0.35075 0.32333 0.0
C286 C 0.27759 0.50308 0.3602 0.0
C287 C 1.00934 0.47427 0.30911 0.0
C288 C 1.09667 0.71769 0.35414 0.0
C289 C 1.13873 0.76805 0.33458 0.0
C290 C 1.09869 0.62969 0.35487 0.0
C291 C 0.14107 0.58773 0.33446 0.0
C292 C 0.18185 0.63853 0.31402 0.0
C293 C 0.1818 0.72678 0.31489 0.0
C294 C 1.05521 0.58334 0.37817 0.0
C295 C 0.22583 0.60038 0.29076 0.0
H296 H 0.26099 0.33744 0.3539 0.0
H297 H 1.03259 0.31189 0.31464 0.0
H298 H 0.32008 0.51386 0.34336 0.0
H299 H 0.26383 0.56391 0.36884 0.0
H300 H 0.30483 0.46852 0.3788 0.0
H301 H 0.97672 0.49789 0.32699 0.0
H302 H 1.02467 0.52702 0.29437 0.0
H303 H 0.97159 0.42715 0.29603 0.0
H304 H 1.06327 0.74738 0.36972 0.0
H305 H 0.21442 0.76357 0.29943 0.0
H306 H 1.07007 0.51849 0.38115 0.0
H307 H 0.99333 0.58302 0.37191 0.0
H308 H 1.06577 0.61606 0.39996 0.0
H309 H 0.28428 0.59228 0.30029 0.0
H310 H 0.23066 0.64115 0.27104 0.0
H311 H 0.19895 0.53889 0.2832 0.0
C312 C 0.17972 0.07634 0.23785 0.0
C313 C 1.12625 1.0177 0.24908 0.0
C314 C 0.19068 0.08088 0.20698 0.0
C315 C 0.14727 1.02553 0.18655 0.0
C316 C 1.09338 0.96621 0.19789 0.0
C317 C 1.0837 0.963 0.22877 0.0
C318 C 0.249 0.14495 0.19619 0.0
C319 C 1.0458 0.9056 0.17735 0.0
C320 C 1.12783 0.07549 0.10263 0.0
C321 C 0.18085 1.02634 0.09101 0.0
C322 C 1.1168 0.0766 0.13353 0.0
C323 C 0.1597 1.02743 0.15355 0.0
C324 C 0.21325 0.97783 0.1418 0.0
C325 C 0.22297 0.97782 0.11091 0.0
C326 C 1.05885 0.13021 0.14477 0.0
C327 C 0.26032 0.92416 0.16188 0.0
H328 H 0.21291 0.11902 0.25321 0.0
H329 H 1.04224 0.91733 0.23704 0.0
H330 H 0.29301 0.11392 0.18497 0.0
H331 H 0.22153 0.18544 0.17951 0.0
H332 H 0.27737 0.18432 0.21463 0.0
H333 H 1.00529 0.86433 0.18942 0.0
H334 H 1.0131 0.93962 0.16009 0.0
H335 H 1.08326 0.86662 0.16563 0.0
H336 H 1.0949 0.11321 0.08757 0.0
H337 H 0.26404 0.93944 0.10232 0.0
H338 H 1.08644 0.17422 0.16193 0.0
H339 H 1.01433 0.09102 0.15552 0.0
H340 H 1.03109 0.16605 0.12665 0.0
H341 H 0.29317 0.96278 0.17949 0.0
H342 H 0.30066 0.89046 0.14952 0.0
H343 H 0.22249 0.87812 0.17318 0.0
C344 C 1.10853 0.99711 0.43548 0.0
C345 C 0.15552 1.06125 0.42372 0.0
C346 C 1.10152 0.99002 0.46658 0.0
C347 C 0.14242 1.04832 0.48665 0.0
C348 C 0.18808 0.11449 0.47469 0.0
C349 C 0.19392 0.12012 0.44361 0.0
C350 C 1.0519 0.91861 0.47803 0.0
C351 C 0.233 0.17822 0.49482 0.0
C352 C 1.09297 0.06523 0.56861 0.0
C353 C 0.14726 1.01833 0.58348 0.0
C354 C 1.08981 0.07472 0.53721 0.0
C355 C 0.14242 1.03696 0.52008 0.0
C356 C 0.19738 0.98994 0.53515 0.0
C357 C 0.19898 0.9812 0.56637 0.0
C358 C 1.03014 0.1253 0.52233 0.0
C359 C 0.25524 0.94902 0.51828 0.0
H360 H 1.07844 0.95135 0.42042 0.0
H361 H 0.23014 0.17023 0.43489 0.0
H362 H 1.08772 0.87662 0.49117 0.0
H363 H 1.01127 0.94176 0.49314 0.0
H364 H 1.01935 0.88223 0.45971 0.0
H365 H 0.262 0.22875 0.48212 0.0
H366 H 0.19507 0.20592 0.51001 0.0
H367 H 0.27665 0.14791 0.50889 0.0
H368 H 1.05267 0.09417 0.58149 0.0
H369 H 0.24142 0.94504 0.57748 0.0
H370 H 0.9949 0.08714 0.50523 0.0
H371 H 1.05788 0.17868 0.51071 0.0
H372 H 0.99225 0.1491 0.53846 0.0
H373 H 0.22594 0.90605 0.50114 0.0
H374 H 0.29368 0.91369 0.53309 0.0
H375 H 0.29031 0.99663 0.50649 0.0
C376 C 1.07332 1.0578 0.77212 0.0
C377 C 0.1403 0.06299 0.75703 0.0
C378 C 1.07497 1.05096 0.80343 0.0
C379 C 0.14564 1.0529 0.8206 0.0
C380 C 0.21367 1.05771 0.80538 0.0
C381 C 0.21012 1.06106 0.77383 0.0
C382 C 1.0007 1.04296 0.81818 0.0
C383 C 0.29043 0.06302 0.82247 0.0
C384 C 1.13707 0.12999 0.90097 0.0
C385 C 1.13803 1.05664 0.9175 0.0
C386 C 0.14346 0.13004 0.86986 0.0
C387 C 0.14776 1.05429 0.85433 0.0
C388 C 0.14951 0.97992 0.87106 0.0
C389 C 0.14608 0.9822 0.90242 0.0
C390 C 0.14418 0.21141 0.85354 0.0
C391 C 0.15146 0.89732 0.85569 0.0
H392 H 1.01912 1.05899 0.75932 0.0
H393 H 0.26221 0.06609 0.7624 0.0
H394 H 0.99973 0.99007 0.83384 0.0
H395 H 0.99483 0.09978 0.83133 0.0
H396 H 0.95082 1.03354 0.80173 0.0
H397 H 0.33789 0.06377 0.80755 0.0
H398 H 0.29752 0.12033 0.83631 0.0
H399 H 0.2945 1.0099 0.83786 0.0
H400 H 1.13126 0.18782 0.91247 0.0
H401 H 0.14609 0.9251 0.91496 0.0
H402 H 1.09093 0.21351 0.83908 0.0
H403 H 0.19227 0.21743 0.83892 0.0
H404 H 0.14919 0.26541 0.86902 0.0
H405 H 1.09898 0.88476 0.84081 0.0
H406 H 0.15565 0.84559 0.87175 0.0
H407 H 0.20033 0.89843 0.84153 0.0
loop_
_geom_bond_atom_site_label_1
_geom_bond_atom_site_label_2
_geom_bond_distance
_geom_bond_site_symmetry_2
_ccdc_geom_bond_type
La0 C2 2.928 . S
La0 O20 2.521 . S
La0 O21 2.628 1_554 S
La0 O22 2.554 . S
La0 O23 2.757 1_545 S
La0 O24 2.470 . S
La0 O29 2.482 1_554 S
La0 O31 2.503 1_545 S
La1 C11 2.932 . S
La1 O23 2.482 1_656 S
La1 O25 2.503 1_565 S
La1 O26 2.521 . S
La1 O27 2.628 1_556 S
La1 O28 2.554 . S
La1 O29 2.757 1_665 S
La1 O30 2.470 . S
C2 La0 2.928 . S
C2 C3 1.503 . S
C2 O20 1.261 . S
C2 O21 1.243 1_554 S
C3 C2 1.503 . S
C3 C4 1.394 . S
C3 C8 1.373 1_554 S
C4 C3 1.394 . S
C4 C5 1.380 . S
C4 H32 0.930 . S
C5 C4 1.380 . S
C5 C6 1.376 . S
C5 H33 0.930 . S
C6 C5 1.376 . S
C6 C7 1.370 1_554 S
C7 C6 1.370 1_556 S
C7 C8 1.396 . S
C7 H34 0.929 . S
C8 C3 1.373 1_556 S
C8 C7 1.396 . S
C8 H35 0.929 . S
C9 O22 1.240 . S
C9 O23 1.289 1_545 S
C10 O24 1.258 . S
C10 O25 1.256 1_454 S
C11 La1 2.932 . S
C11 C12 1.503 . S
C11 O26 1.280 . S
C11 O27 1.226 1_556 S
C12 C11 1.503 . S
C12 C13 1.407 . S
C12 C17 1.358 1_556 S
C13 C12 1.407 . S
C13 C14 1.380 . S
C13 H36 0.930 . S
C14 C13 1.380 . S
C14 C15 1.380 1_556 S
C14 H37 0.930 . S
C15 C14 1.380 1_554 S
C15 C16 1.367 . S
C16 C15 1.367 . S
C16 C17 1.396 . S
C16 H38 0.929 . S
C17 C12 1.358 1_554 S
C17 C16 1.396 . S
C17 H39 0.929 . S
C18 O28 1.240 1_445 S
C18 O29 1.289 . S
C19 O30 1.258 1_455 S
C19 O31 1.256 1_556 S
O20 La0 2.521 . S
O20 C2 1.261 . S
O21 La0 2.628 1_556 S
O21 C2 1.243 1_556 S
O22 La0 2.554 . S
O22 C9 1.240 . S
O23 La0 2.757 1_565 S
O23 La1 2.482 1_454 S
O23 C9 1.289 1_565 S
O24 La0 2.470 . S
O24 C10 1.258 . S
O25 La1 2.503 1_545 S
O25 C10 1.256 1_656 S
O26 La1 2.521 . S
O26 C11 1.280 . S
O27 La1 2.628 1_554 S
O27 C11 1.226 1_554 S
O28 La1 2.554 . S
O28 C18 1.240 1_665 S
O29 La0 2.482 1_556 S
O29 La1 2.757 1_445 S
O29 C18 1.289 . S
O30 La1 2.470 . S
O30 C19 1.258 1_655 S
O31 La0 2.503 1_565 S
O31 C19 1.256 1_554 S
H32 C4 0.930 . S
H33 C5 0.930 . S
H34 C7 0.929 . S
H35 C8 0.929 . S
H36 C13 0.930 . S
H37 C14 0.930 . S
H38 C16 0.929 . S
H39 C17 0.929 . S
La40 C42 2.928 1_565 S
La40 O60 2.521 . S
La40 O61 2.628 1_565 S
La40 O62 2.554 . S
La40 O63 2.757 1_665 S
La40 O64 2.470 1_565 S
La40 O69 2.482 1_565 S
La40 O71 2.503 . S
La41 C51 2.928 . S
La41 O63 2.482 . S
La41 O65 2.503 . S
La41 O66 2.521 . S
La41 O67 2.628 1_545 S
La41 O68 2.554 . S
La41 O69 2.757 1_455 S
La41 O70 2.470 1_545 S
C42 La40 2.928 1_545 S
C42 C43 1.503 . S
C42 O60 1.261 1_545 S
C42 O61 1.243 . S
C43 C42 1.503 . S
C43 C44 1.394 . S
C43 C48 1.373 . S
C44 C43 1.394 . S
C44 C45 1.380 . S
C44 H72 0.930 . S
C45 C44 1.380 . S
C45 C46 1.376 . S
C45 H73 0.930 . S
C46 C45 1.376 . S
C46 C47 1.370 . S
C47 C46 1.370 . S
C47 C48 1.396 . S
C47 H74 0.929 . S
C48 C43 1.373 . S
C48 C47 1.396 . S
C48 H75 0.929 . S
C49 O62 1.240 1_545 S
C49 O63 1.289 1_655 S
C50 O64 1.258 . S
C50 O65 1.256 1_655 S
C51 La41 2.928 . S
C51 C52 1.503 1_545 S
C51 O66 1.261 . S
C51 O67 1.243 1_545 S
C52 C51 1.503 1_565 S
C52 C53 1.394 . S
C52 C57 1.373 . S
C53 C52 1.394 . S
C53 C54 1.380 . S
C53 H76 0.930 1_565 S
C54 C53 1.380 . S
C54 C55 1.376 . S
C54 H77 0.930 . S
C55 C54 1.376 . S
C55 C56 1.370 . S
C56 C55 1.370 . S
C56 C57 1.396 . S
C56 H78 0.929 . S
C57 C52 1.373 . S
C57 C56 1.396 . S
C57 H79 0.929 . S
C58 O68 1.240 . S
C58 O69 1.289 1_455 S
C59 O70 1.258 . S
C59 O71 1.256 1_455 S
O60 La40 2.521 . S
O60 C42 1.261 1_565 S
O61 La40 2.628 1_545 S
O61 C42 1.243 . S
O62 La40 2.554 . S
O62 C49 1.240 1_565 S
O63 La40 2.757 1_445 S
O63 La41 2.482 . S
O63 C49 1.289 1_455 S
O64 La40 2.470 1_545 S
O64 C50 1.258 . S
O65 La41 2.503 . S
O65 C50 1.256 1_455 S
O66 La41 2.521 . S
O66 C51 1.261 . S
O67 La41 2.628 1_565 S
O67 C51 1.243 1_565 S
O68 La41 2.554 . S
O68 C58 1.240 . S
O69 La40 2.482 1_545 S
O69 La41 2.757 1_655 S
O69 C58 1.289 1_655 S
O70 La41 2.470 1_565 S
O70 C59 1.258 . S
O71 La40 2.503 . S
O71 C59 1.256 1_655 S
H72 C44 0.930 . S
H73 C45 0.930 . S
H74 C47 0.929 . S
H75 C48 0.929 . S
H76 C53 0.930 1_545 S
H77 C54 0.930 . S
H78 C56 0.929 . S
H79 C57 0.929 . S
La80 C82 2.928 . S
La80 O100 2.521 . S
La80 O101 2.628 . S
La80 O102 2.554 . S
La80 O103 2.757 1_665 S
La80 O104 2.470 1_565 S
La80 O109 2.482 1_565 S
La80 O111 2.503 1_655 S
La81 C91 2.928 . S
La81 O103 2.482 . S
La81 O105 2.503 1_455 S
La81 O106 2.521 . S
La81 O107 2.628 . S
La81 O108 2.554 . S
La81 O109 2.757 1_455 S
La81 O110 2.470 . S
C82 La80 2.928 . S
C82 C83 1.503 . S
C82 O100 1.261 . S
C82 O101 1.243 . S
C83 C82 1.503 . S
C83 C84 1.394 . S
C83 C88 1.373 . S
C84 C83 1.394 . S
C84 C85 1.380 . S
C84 H112 0.930 . S
C85 C84 1.380 . S
C85 C86 1.376 . S
C85 H113 0.930 . S
C86 C85 1.376 . S
C86 C87 1.370 . S
C87 C86 1.370 . S
C87 C88 1.396 . S
C87 H114 0.929 . S
C88 C83 1.373 . S
C88 C87 1.396 . S
C88 H115 0.929 . S
C89 O102 1.240 1_545 S
C89 O103 1.289 1_655 S
C90 O104 1.258 . S
C90 O105 1.256 . S
C91 La81 2.928 . S
C91 C92 1.503 . S
C91 O106 1.261 . S
C91 O107 1.243 . S
C92 C91 1.503 . S
C92 C93 1.394 . S
C92 C97 1.373 . S
C93 C92 1.394 . S
C93 C94 1.380 . S
C93 H116 0.930 . S
C94 C93 1.380 . S
C94 C95 1.376 . S
C94 H117 0.930 . S
C95 C94 1.376 . S
C95 C96 1.370 . S
C96 C95 1.370 . S
C96 C97 1.396 . S
C96 H118 0.929 . S
C97 C92 1.373 . S
C97 C96 1.396 . S
C97 H119 0.929 . S
C98 O108 1.240 . S
C98 O109 1.289 1_455 S
C99 O110 1.258 . S
C99 O111 1.256 1_545 S
O100 La80 2.521 . S
O100 C82 1.261 . S
O101 La80 2.628 . S
O101 C82 1.243 . S
O102 La80 2.554 . S
O102 C89 1.240 1_565 S
O103 La80 2.757 1_445 S
O103 La81 2.482 . S
O103 C89 1.289 1_455 S
O104 La80 2.470 1_545 S
O104 C90 1.258 . S
O105 La81 2.503 1_655 S
O105 C90 1.256 . S
O106 La81 2.521 . S
O106 C91 1.261 . S
O107 La81 2.628 . S
O107 C91 1.243 . S
O108 La81 2.554 . S
O108 C98 1.240 . S
O109 La80 2.482 1_545 S
O109 La81 2.757 1_655 S
O109 C98 1.289 1_655 S
O110 La81 2.470 . S
O110 C99 1.258 . S
O111 La80 2.503 1_455 S
O111 C99 1.256 1_565 S
H112 C84 0.930 . S
H113 C85 0.930 . S
H114 C87 0.929 . S
H115 C88 0.929 . S
H116 C93 0.930 . S
H117 C94 0.930 . S
H118 C96 0.929 . S
H119 C97 0.929 . S
C120 C121 1.391 . S
C120 C122 1.394 . S
C120 H136 0.931 . S
C121 C120 1.391 . S
C121 C125 1.376 1_456 S
C122 C120 1.394 . S
C122 C123 1.369 . S
C122 C126 1.531 . S
C123 C122 1.369 . S
C123 C124 1.416 1_455 S
C123 C131 1.503 . S
C124 C123 1.416 1_655 S
C124 C125 1.391 1_556 S
C124 C127 1.507 1_556 S
C125 C121 1.376 1_654 S
C125 C124 1.391 1_554 S
C125 H137 0.929 . S
C126 C122 1.531 . S
C126 H138 0.960 . S
C126 H139 0.962 1_556 S
C126 H140 0.960 . S
C127 C124 1.507 1_554 S
C127 H141 0.961 . S
C127 H142 0.961 . S
C127 H143 0.961 1_554 S
C128 C129 1.370 . S
C128 C130 1.363 . S
C128 H144 0.931 . S
C129 C128 1.370 . S
C129 C133 1.408 1_554 S
C130 C128 1.363 . S
C130 C131 1.370 1_554 S
C130 C134 1.524 . S
C131 C123 1.503 . S
C131 C130 1.370 1_556 S
C131 C132 1.403 . S
C132 C131 1.403 . S
C132 C133 1.404 . S
C132 C135 1.539 1_455 S
C133 C129 1.408 1_556 S
C133 C132 1.404 . S
C133 H145 0.930 1_455 S
C134 C130 1.524 . S
C134 H146 0.956 . S
C134 H147 0.961 . S
C134 H148 0.961 . S
C135 C132 1.539 1_655 S
C135 H149 0.958 1_655 S
C135 H150 0.961 . S
C135 H151 0.960 . S
H136 C120 0.931 . S
H137 C125 0.929 . S
H138 C126 0.960 . S
H139 C126 0.962 1_554 S
H140 C126 0.960 . S
H141 C127 0.961 . S
H142 C127 0.961 . S
H143 C127 0.961 1_556 S
H144 C128 0.931 . S
H145 C133 0.930 1_655 S
H146 C134 0.956 . S
H147 C134 0.961 . S
H148 C134 0.961 . S
H149 C135 0.958 1_455 S
H150 C135 0.961 . S
H151 C135 0.960 . S
C152 C153 1.391 . S
C152 C154 1.394 . S
C152 H168 0.931 . S
C153 C152 1.391 . S
C153 C157 1.376 . S
C154 C152 1.394 . S
C154 C155 1.369 . S
C154 C158 1.531 . S
C155 C154 1.369 . S
C155 C156 1.410 1_565 S
C155 C163 1.503 1_565 S
C156 C155 1.410 1_545 S
C156 C157 1.392 1_545 S
C156 C159 1.511 . S
C157 C153 1.376 . S
C157 C156 1.392 1_565 S
C157 H169 0.929 . S
C158 C154 1.531 . S
C158 H170 0.960 . S
C158 H171 0.962 . S
C158 H172 0.960 . S
C159 C156 1.511 . S
C159 H173 0.961 . S
C159 H174 0.961 . S
C159 H175 0.961 . S
C160 C161 1.370 . S
C160 C162 1.363 . S
C160 H176 0.931 . S
C161 C160 1.370 . S
C161 C165 1.408 . S
C162 C160 1.363 . S
C162 C163 1.370 . S
C162 C166 1.524 . S
C163 C155 1.503 1_545 S
C163 C162 1.370 . S
C163 C164 1.403 . S
C164 C163 1.403 . S
C164 C165 1.404 . S
C164 C167 1.539 . S
C165 C161 1.408 . S
C165 C164 1.404 . S
C165 H177 0.930 . S
C166 C162 1.524 . S
C166 H178 0.956 1_545 S
C166 H179 0.961 . S
C166 H180 0.961 . S
C167 C164 1.539 . S
C167 H181 0.958 . S
C167 H182 0.961 . S
C167 H183 0.960 . S
H168 C152 0.931 . S
H169 C157 0.929 . S
H170 C158 0.960 . S
H171 C158 0.962 . S
H172 C158 0.960 . S
H173 C159 0.961 . S
H174 C159 0.961 . S
H175 C159 0.961 . S
H176 C160 0.931 . S
H177 C165 0.930 . S
H178 C166 0.956 1_565 S
H179 C166 0.961 . S
H180 C166 0.961 . S
H181 C167 0.958 . S
H182 C167 0.961 . S
H183 C167 0.960 . S
C184 C185 1.391 . S
C184 C186 1.394 . S
C184 H200 0.931 . S
C185 C184 1.391 . S
C185 C189 1.376 . S
C186 C184 1.394 . S
C186 C187 1.369 . S
C186 C190 1.531 . S
C187 C186 1.369 . S
C187 C188 1.410 . S
C187 C195 1.503 . S
C188 C187 1.410 . S
C188 C189 1.392 . S
C188 C191 1.511 . S
C189 C185 1.376 . S
C189 C188 1.392 . S
C189 H201 0.929 . S
C190 C186 1.531 . S
C190 H202 0.960 . S
C190 H203 0.962 . S
C190 H204 0.960 . S
C191 C188 1.511 . S
C191 H205 0.961 . S
C191 H206 0.961 . S
C191 H207 0.961 . S
C192 C193 1.370 . S
C192 C194 1.363 . S
C192 H208 0.931 . S
C193 C192 1.370 . S
C193 C197 1.408 . S
C194 C192 1.363 . S
C194 C195 1.370 . S
C194 C198 1.524 . S
C195 C187 1.503 . S
C195 C194 1.370 . S
C195 C196 1.403 . S
C196 C195 1.403 . S
C196 C197 1.404 . S
C196 C199 1.539 . S
C197 C193 1.408 . S
C197 C196 1.404 . S
C197 H209 0.930 . S
C198 C194 1.524 . S
C198 H210 0.956 . S
C198 H211 0.961 . S
C198 H212 0.961 . S
C199 C196 1.539 . S
C199 H213 0.958 . S
C199 H214 0.961 . S
C199 H215 0.960 . S
H200 C184 0.931 . S
H201 C189 0.929 . S
H202 C190 0.960 . S
H203 C190 0.962 . S
H204 C190 0.960 . S
H205 C191 0.961 . S
H206 C191 0.961 . S
H207 C191 0.961 . S
H208 C192 0.931 . S
H209 C197 0.930 . S
H210 C198 0.956 . S
H211 C198 0.961 . S
H212 C198 0.961 . S
H213 C199 0.958 . S
H214 C199 0.961 . S
H215 C199 0.960 . S
C216 C217 1.391 . S
C216 C218 1.394 . S
C216 H232 0.931 1_545 S
C217 C216 1.391 . S
C217 C221 1.376 . S
C218 C216 1.394 . S
C218 C219 1.369 . S
C218 C222 1.531 1_545 S
C219 C218 1.369 . S
C219 C220 1.410 . S
C219 C227 1.503 . S
C220 C219 1.410 . S
C220 C221 1.392 . S
C220 C223 1.511 . S
C221 C217 1.376 . S
C221 C220 1.392 . S
C221 H233 0.929 . S
C222 C218 1.531 1_565 S
C222 H234 0.960 . S
C222 H235 0.962 . S
C222 H236 0.960 . S
C223 C220 1.511 . S
C223 H237 0.961 . S
C223 H238 0.961 . S
C223 H239 0.961 . S
C224 C225 1.370 1_565 S
C224 C226 1.363 1_565 S
C224 H240 0.931 . S
C225 C224 1.370 1_545 S
C225 C229 1.408 . S
C226 C224 1.363 1_545 S
C226 C227 1.370 . S
C226 C230 1.524 1_545 S
C227 C219 1.503 . S
C227 C226 1.370 . S
C227 C228 1.403 . S
C228 C227 1.403 . S
C228 C229 1.404 . S
C228 C231 1.539 . S
C229 C225 1.408 . S
C229 C228 1.404 . S
C229 H241 0.930 . S
C230 C226 1.524 1_565 S
C230 H242 0.956 . S
C230 H243 0.961 . S
C230 H244 0.961 . S
C231 C228 1.539 . S
C231 H245 0.958 . S
C231 H246 0.961 . S
C231 H247 0.960 . S
H232 C216 0.931 1_565 S
H233 C221 0.929 . S
H234 C222 0.960 . S
H235 C222 0.962 . S
H236 C222 0.960 . S
H237 C223 0.961 . S
H238 C223 0.961 . S
H239 C223 0.961 . S
H240 C224 0.931 . S
H241 C229 0.930 . S
H242 C230 0.956 . S
H243 C230 0.961 . S
H244 C230 0.961 . S
H245 C231 0.958 . S
H246 C231 0.961 . S
H247 C231 0.960 . S
C248 C249 1.414 . S
C248 C250 1.394 . S
C248 H264 0.931 . S
C249 C248 1.414 . S
C249 C253 1.356 1_554 S
C250 C248 1.394 . S
C250 C251 1.369 . S
C250 C254 1.531 . S
C251 C250 1.369 . S
C251 C252 1.410 1_554 S
C251 C259 1.503 . S
C252 C251 1.410 1_556 S
C252 C253 1.392 . S
C252 C255 1.511 . S
C253 C249 1.356 1_556 S
C253 C252 1.392 . S
C253 H265 0.929 . S
C254 C250 1.531 . S
C254 H266 0.960 . S
C254 H267 0.962 . S
C254 H268 0.960 . S
C255 C252 1.511 . S
C255 H269 0.961 . S
C255 H270 0.961 . S
C255 H271 0.961 . S
C256 C257 1.370 1_556 S
C256 C258 1.363 . S
C256 H272 0.931 . S
C257 C256 1.370 1_554 S
C257 C261 1.408 . S
C258 C256 1.363 . S
C258 C259 1.370 1_556 S
C258 C262 1.524 . S
C259 C251 1.503 . S
C259 C258 1.370 1_554 S
C259 C260 1.403 . S
C260 C259 1.403 . S
C260 C261 1.404 . S
C260 C263 1.539 . S
C261 C257 1.408 . S
C261 C260 1.404 . S
C261 H273 0.930 . S
C262 C258 1.524 . S
C262 H274 0.956 1_556 S
C262 H275 0.961 . S
C262 H276 0.961 . S
C263 C260 1.539 . S
C263 H277 0.958 . S
C263 H278 0.961 . S
C263 H279 0.960 . S
H264 C248 0.931 . S
H265 C253 0.929 . S
H266 C254 0.960 . S
H267 C254 0.962 . S
H268 C254 0.960 . S
H269 C255 0.961 . S
H270 C255 0.961 . S
H271 C255 0.961 . S
H272 C256 0.931 . S
H273 C261 0.930 . S
H274 C262 0.956 1_554 S
H275 C262 0.961 . S
H276 C262 0.961 . S
H277 C263 0.958 . S
H278 C263 0.961 . S
H279 C263 0.960 . S
C280 C281 1.391 1_455 S
C280 C282 1.394 . S
C280 H296 0.931 . S
C281 C280 1.391 1_655 S
C281 C285 1.376 . S
C282 C280 1.394 . S
C282 C283 1.369 . S
C282 C286 1.531 . S
C283 C282 1.369 . S
C283 C284 1.410 1_455 S
C283 C291 1.503 . S
C284 C283 1.410 1_655 S
C284 C285 1.392 . S
C284 C287 1.511 . S
C285 C281 1.376 . S
C285 C284 1.392 . S
C285 H297 0.929 . S
C286 C282 1.531 . S
C286 H298 0.960 . S
C286 H299 0.962 . S
C286 H300 0.960 . S
C287 C284 1.511 . S
C287 H301 0.961 . S
C287 H302 0.961 . S
C287 H303 0.961 1_655 S
C288 C289 1.370 1_655 S
C288 C290 1.363 . S
C288 H304 0.931 . S
C289 C288 1.370 1_455 S
C289 C293 1.408 . S
C290 C288 1.363 . S
C290 C291 1.370 1_655 S
C290 C294 1.524 . S
C291 C283 1.503 . S
C291 C290 1.370 1_455 S
C291 C292 1.403 . S
C292 C291 1.403 . S
C292 C293 1.404 . S
C292 C295 1.539 . S
C293 C289 1.408 . S
C293 C292 1.404 . S
C293 H305 0.930 . S
C294 C290 1.524 . S
C294 H306 0.956 . S
C294 H307 0.961 . S
C294 H308 0.961 . S
C295 C292 1.539 . S
C295 H309 0.958 . S
C295 H310 0.961 . S
C295 H311 0.960 . S
H296 C280 0.931 . S
H297 C285 0.929 . S
H298 C286 0.960 . S
H299 C286 0.962 . S
H300 C286 0.960 . S
H301 C287 0.961 . S
H302 C287 0.961 . S
H303 C287 0.961 1_455 S
H304 C288 0.931 . S
H305 C293 0.930 . S
H306 C294 0.956 . S
H307 C294 0.961 . S
H308 C294 0.961 . S
H309 C295 0.958 . S
H310 C295 0.961 . S
H311 C295 0.960 . S
C312 C313 1.391 . S
C312 C314 1.394 . S
C312 H328 0.931 1_455 S
C313 C312 1.391 . S
C313 C317 1.376 1_545 S
C314 C312 1.394 . S
C314 C315 1.369 . S
C314 C318 1.531 . S
C315 C314 1.369 . S
C315 C316 1.410 1_545 S
C315 C323 1.503 . S
C316 C315 1.410 1_565 S
C316 C317 1.392 . S
C316 C319 1.511 . S
C317 C313 1.376 1_565 S
C317 C316 1.392 . S
C317 H329 0.929 . S
C318 C314 1.531 . S
C318 H330 0.960 . S
C318 H331 0.962 1_455 S
C318 H332 0.960 . S
C319 C316 1.511 . S
C319 H333 0.961 . S
C319 H334 0.961 . S
C319 H335 0.961 . S
C320 C321 1.370 1_665 S
C320 C322 1.363 . S
C320 H336 0.931 . S
C321 C320 1.370 1_445 S
C321 C325 1.408 . S
C322 C320 1.363 . S
C322 C323 1.370 1_665 S
C322 C326 1.524 . S
C323 C315 1.503 . S
C323 C322 1.370 1_445 S
C323 C324 1.403 . S
C324 C323 1.403 . S
C324 C325 1.404 . S
C324 C327 1.539 . S
C325 C321 1.408 . S
C325 C324 1.404 . S
C325 H337 0.930 . S
C326 C322 1.524 . S
C326 H338 0.956 . S
C326 H339 0.961 . S
C326 H340 0.961 . S
C327 C324 1.539 . S
C327 H341 0.958 . S
C327 H342 0.961 . S
C327 H343 0.960 . S
H328 C312 0.931 1_655 S
H329 C317 0.929 . S
H330 C318 0.960 . S
H331 C318 0.962 1_655 S
H332 C318 0.960 . S
H333 C319 0.961 . S
H334 C319 0.961 . S
H335 C319 0.961 . S
H336 C320 0.931 . S
H337 C325 0.930 . S
H338 C326 0.956 . S
H339 C326 0.961 . S
H340 C326 0.961 . S
H341 C327 0.958 . S
H342 C327 0.961 . S
H343 C327 0.960 . S
C344 C345 1.391 1_655 S
C344 C346 1.394 1_545 S
C344 H360 0.931 1_545 S
C345 C344 1.391 1_455 S
C345 C349 1.376 . S
C346 C344 1.394 1_565 S
C346 C347 1.369 1_665 S
C346 C350 1.531 . S
C347 C346 1.369 1_445 S
C347 C348 1.410 . S
C347 C355 1.503 . S
C348 C347 1.410 . S
C348 C349 1.392 . S
C348 C351 1.511 . S
C349 C345 1.376 . S
C349 C348 1.392 . S
C349 H361 0.929 . S
C350 C346 1.531 . S
C350 H362 0.960 . S
C350 H363 0.962 1_565 S
C350 H364 0.960 . S
C351 C348 1.511 . S
C351 H365 0.961 . S
C351 H366 0.961 . S
C351 H367 0.961 . S
C352 C353 1.367 1_655 S
C352 C354 1.361 1_655 S
C352 H368 0.937 . S
C353 C352 1.367 1_455 S
C353 C357 1.408 1_545 S
C354 C352 1.361 1_455 S
C354 C355 1.370 . S
C354 C358 1.524 1_455 S
C355 C347 1.503 . S
C355 C354 1.370 . S
C355 C356 1.403 1_545 S
C356 C355 1.403 1_565 S
C356 C357 1.404 . S
C356 C359 1.539 . S
C357 C353 1.408 1_565 S
C357 C356 1.404 . S
C357 H369 0.930 . S
C358 C354 1.524 1_655 S
C358 H370 0.956 . S
C358 H371 0.961 1_655 S
C358 H372 0.961 1_655 S
C359 C356 1.539 . S
C359 H373 0.958 1_455 S
C359 H374 0.961 . S
C359 H375 0.960 . S
H360 C344 0.931 1_565 S
H361 C349 0.929 . S
H362 C350 0.960 . S
H363 C350 0.962 1_545 S
H364 C350 0.960 . S
H365 C351 0.961 . S
H366 C351 0.961 . S
H367 C351 0.961 . S
H368 C352 0.937 . S
H369 C357 0.930 . S
H370 C358 0.956 . S
H371 C358 0.961 1_455 S
H372 C358 0.961 1_455 S
H373 C359 0.958 1_655 S
H374 C359 0.961 . S
H375 C359 0.960 . S
C376 C377 1.391 1_665 S
C376 C378 1.394 . S
C376 H392 0.931 . S
C377 C376 1.391 1_445 S
C377 C381 1.376 . S
C378 C376 1.394 . S
C378 C379 1.369 1_665 S
C378 C382 1.531 . S
C379 C378 1.369 1_445 S
C379 C380 1.410 . S
C379 C387 1.503 . S
C380 C379 1.410 . S
C380 C381 1.392 . S
C380 C383 1.511 . S
C381 C377 1.376 . S
C381 C380 1.392 . S
C381 H393 0.929 . S
C382 C378 1.531 . S
C382 H394 0.960 . S
C382 H395 0.962 . S
C382 H396 0.960 . S
C383 C380 1.511 . S
C383 H397 0.961 . S
C383 H398 0.961 . S
C383 H399 0.961 . S
C384 C385 1.370 1_655 S
C384 C386 1.363 . S
C384 H400 0.931 . S
C385 C384 1.370 1_455 S
C385 C389 1.408 1_545 S
C386 C384 1.363 . S
C386 C387 1.370 1_655 S
C386 C390 1.524 . S
C387 C379 1.503 . S
C387 C386 1.370 1_455 S
C387 C388 1.403 1_545 S
C388 C387 1.403 1_565 S
C388 C389 1.404 . S
C388 C391 1.539 . S
C389 C385 1.408 1_565 S
C389 C388 1.404 . S
C389 H401 0.930 . S
C390 C386 1.524 . S
C390 H402 0.956 . S
C390 H403 0.961 1_655 S
C390 H404 0.961 . S
C391 C388 1.539 . S
C391 H405 0.958 . S
C391 H406 0.961 . S
C391 H407 0.960 . S
H392 C376 0.931 . S
H393 C381 0.929 . S
H394 C382 0.960 . S
H395 C382 0.962 . S
H396 C382 0.960 . S
H397 C383 0.961 . S
H398 C383 0.961 . S
H399 C383 0.961 . S
H400 C384 0.931 . S
H401 C389 0.930 . S
H402 C390 0.956 . S
H403 C390 0.961 1_455 S
H404 C390 0.961 . S
H405 C391 0.958 . S
H406 C391 0.961 . S
H407 C391 0.960 . S
C121 C10 2.985 1_556 S
C129 C19 2.981 1_554 S
C153 C55 0.822 . S
C161 C46 0.858 . S
C185 C86 0.687 . S
C193 C95 0.639 . S
C217 C90 4.912 . S
C225 C99 4.915 . S
C249 C15 0.511 . S
C257 C6 0.551 . S
C281 C50 3.020 . S
C289 C59 3.046 . S
C313 C49 1.487 1_455 S
C321 C9 1.452 . S
C345 C58 1.454 . S
C353 C89 1.430 1_455 S
C377 C98 1.480 . S
C385 C18 1.458 . S
