# Generated by pormake.
# Topology smm, (6)-cn, num edge types: 1
# Building blocks:
#     Node 0, Type 0, BuildingBlock: PAMTUU_clean_sbu_0, # of connection points: 6
#     Node 1, Type 0, BuildingBlock: PAMTUU_clean_sbu_0, # of connection points: 6
#     Node 2, Type 0, BuildingBlock: PAMTUU_clean_sbu_0, # of connection points: 6
#     Node 3, Type 0, BuildingBlock: PAMTUU_clean_sbu_0, # of connection points: 6
#     Node 4, Type 0, BuildingBlock: PAMTUU_clean_sbu_0, # of connection points: 6
#     Node 5, Type 0, BuildingBlock: PAMTUU_clean_sbu_0, # of connection points: 6
#     Node 6, Type 0, BuildingBlock: PAMTUU_clean_sbu_0, # of connection points: 6
#     Node 7, Type 0, BuildingBlock: PAMTUU_clean_sbu_0, # of connection points: 6
#     Node 8, Type 0, BuildingBlock: PAMTUU_clean_sbu_0, # of connection points: 6
#     Edge 9, Type (0, 0), None
#     Edge 10, Type (0, 0), None
#     Edge 11, Type (0, 0), None
#     Edge 12, Type (0, 0), None
#     Edge 13, Type (0, 0), None
#     Edge 14, Type (0, 0), None
#     Edge 15, Type (0, 0), None
#     Edge 16, Type (0, 0), None
#     Edge 17, Type (0, 0), None
#     Edge 18, Type (0, 0), None
#     Edge 19, Type (0, 0), None
#     Edge 20, Type (0, 0), None
#     Edge 21, Type (0, 0), None
#     Edge 22, Type (0, 0), None
#     Edge 23, Type (0, 0), None
#     Edge 24, Type (0, 0), None
#     Edge 25, Type (0, 0), None
#     Edge 26, Type (0, 0), None
#     Edge 27, Type (0, 0), None
#     Edge 28, Type (0, 0), None
#     Edge 29, Type (0, 0), None
#     Edge 30, Type (0, 0), None
#     Edge 31, Type (0, 0), None
#     Edge 32, Type (0, 0), None
#     Edge 33, Type (0, 0), None
#     Edge 34, Type (0, 0), None
#     Edge 35, Type (0, 0), None
# Relax obj value: 0.289
# Max RMSD: 0.270
# Mean RMSD: 0.238
data_MOF--net-smm--node1-PAMTUU_clean_sbu_0--edge1-none
_symmetry_space_group_name_H-M    P1
_symmetry_Int_Tables_number       1
_symmetry_cell_setting            triclinic
loop_
_symmetry_equiv_pos_as_xyz
'x, y, z'
_cell_length_a     31.292199
_cell_length_b     45.863121
_cell_length_c     6.8237048
_cell_angle_alpha  92.796964
_cell_angle_beta   96.815121
_cell_angle_gamma 127.93046
loop_
_atom_site_label
_atom_site_type_symbol
_atom_site_fract_x
_atom_site_fract_y
_atom_site_fract_z
_atom_type_partial_charge
Tb0 Tb 1.09244 0.26656 0.00644 0.0
Tb1 Tb 0.22327 0.33935 0.11365 0.0
C2 C 1.1562 0.30512 0.66622 0.0
C3 C 1.00313 0.1702 0.00273 0.0
C4 C 1.03265 1.12287 0.02496 0.0
C5 C 0.99284 1.11578 0.86488 0.0
C6 C 0.9786 0.13939 0.85316 0.0
C7 C 1.03909 0.17524 0.1711 0.0
C8 C 1.05382 0.15206 0.18162 0.0
C9 C 1.00308 0.2017 0.96314 0.0
O10 O 1.13899 0.24514 -0.02105 0.0
O11 O 0.22712 0.29321 0.13636 0.0
O12 O 0.20428 0.32087 0.39739 0.0
O13 O 1.1103 0.28529 0.32582 0.0
O14 O 0.30457 0.36749 0.07432 0.0
O15 O 0.28508 0.39268 0.28437 0.0
O16 O 0.17735 0.36221 0.07711 0.0
O17 O 1.08412 0.31102 -0.00134 0.0
O18 O 1.10859 0.28698 0.72413 0.0
O19 O 0.20365 0.32364 0.79039 0.0
C20 C 0.18977 0.2582 0.04944 0.0
O21 O 1.02068 0.22674 0.11744 0.0
O22 O 1.0255 0.21753 0.81232 0.0
C23 C 1.1569 0.30396 0.4529 0.0
C24 C 0.3682 0.43316 0.16189 0.0
C25 C 0.46217 0.49999 0.07505 0.0
C26 C 0.46101 0.49155 0.27024 0.0
C27 C 0.41442 0.45831 0.31298 0.0
C28 C 0.36812 0.44213 -0.03151 0.0
C29 C 0.41483 0.47539 0.92552 0.0
C30 C 0.32385 0.39628 0.20645 0.0
C31 C 1.12445 0.34775 0.03607 0.0
H32 H 0.97445 1.093 0.74354 0.0
H33 H 0.95127 0.13503 0.72099 0.0
H34 H 1.05961 0.19902 0.28834 0.0
H35 H 1.08494 0.15894 0.30638 0.0
H36 H 0.4968 0.51002 0.38799 0.0
H37 H 0.41523 0.45156 0.46266 0.0
H38 H 0.33269 0.42302 0.85006 0.0
H39 H 0.4141 0.4818 0.77513 0.0
Tb40 Tb 1.11089 0.99026 -0.02209 0.0
Tb41 Tb 1.10149 0.91512 0.95259 0.0
C42 C 1.10036 0.94969 0.35773 0.0
C43 C 1.11131 1.07151 0.00595 0.0
C44 C 1.05647 1.10286 0.01912 0.0
C45 C 1.07637 1.09669 0.19578 0.0
C46 C 1.10365 1.08136 0.18933 0.0
C47 C 1.09091 1.07725 0.82981 0.0
C48 C 1.06377 1.09252 0.83615 0.0
C49 C 1.14063 1.05562 -0.00568 0.0
O50 O 0.17162 0.98081 -0.02129 0.0
O51 O 0.17044 0.97975 -0.02116 0.0
O52 O 1.11067 0.92926 0.65542 0.0
O53 O 1.08588 0.96763 0.66105 0.0
O54 O 1.05728 0.85884 0.81795 0.0
O55 O 1.13408 0.88541 0.02154 0.0
O56 O 1.01758 0.8981 0.95562 0.0
O57 O 1.02389 0.95177 -0.02711 0.0
O58 O 1.0972 0.9737 0.27263 0.0
O59 O 1.10801 0.92758 0.26811 0.0
C60 C 0.22391 1.00326 0.96216 0.0
O61 O 1.12588 1.03365 0.82893 0.0
O62 O 1.14828 1.04273 0.14981 0.0
C63 C 1.0979 0.94843 0.56762 0.0
C64 C 1.06986 0.81305 0.92908 0.0
C65 C 1.02194 0.73223 0.91309 0.0
C66 C 1.0777 0.7611 0.8966 0.0
C67 C 1.10065 0.80002 0.90355 0.0
C68 C 1.01463 0.78424 0.94877 0.0
C69 C 0.99193 0.74571 0.94216 0.0
C70 C 1.092 0.85415 0.90366 0.0
C71 C 0.99585 0.91564 -0.02929 0.0
H72 H 1.07119 1.10387 0.33971 0.0
H73 H 1.11897 1.07744 0.32801 0.0
H74 H 1.09677 1.07054 0.68607 0.0
H75 H 1.05072 1.09771 0.69725 0.0
H76 H 1.10359 0.75361 0.8721 0.0
H77 H 1.14277 0.82 0.88231 0.0
H78 H 0.98783 0.79129 -0.03461 0.0
H79 H 0.9493 0.72593 0.95766 0.0
Tb80 Tb 0.29997 0.13194 -0.03663 0.0
Tb81 Tb 0.39536 1.11658 0.00653 0.0
C82 C 0.34582 1.12317 0.58989 0.0
C83 C 0.23243 0.18261 -0.02383 0.0
C84 C 0.20513 0.23254 0.02343 0.0
C85 C 0.17476 0.20111 0.87044 0.0
C86 C 0.18858 0.17705 0.84592 0.0
C87 C 0.26317 0.2143 0.12783 0.0
C88 C 0.25031 0.23896 0.14914 0.0
C89 C 0.23937 0.15236 -0.0257 0.0
O90 O 0.24637 1.06815 0.94846 0.0
O91 O 0.31435 1.06131 -0.01173 0.0
O92 O 0.38867 0.12848 0.31047 0.0
O93 O 0.30642 1.11923 0.26144 0.0
O94 O 0.41567 1.08579 0.87006 0.0
O95 O 0.46289 1.12042 0.16117 0.0
O96 O 0.44796 0.17704 -0.0193 0.0
O97 O 0.38483 0.18783 -0.01578 0.0
O98 O 0.3057 1.12027 0.65724 0.0
O99 O 0.38566 0.12616 0.70242 0.0
C100 C 0.26184 1.04658 -0.032 0.0
O101 O 0.27099 0.15461 0.12656 0.0
O102 O 0.24091 0.13706 0.81123 0.0
C103 C 0.34712 1.12365 0.37613 0.0
C104 C 0.49126 1.08574 0.00521 0.0
C105 C 0.56348 1.06827 -0.03025 0.0
C106 C 0.56554 1.08472 0.15416 0.0
C107 C 0.52931 1.09288 0.17231 0.0
C108 C 0.48963 1.06948 0.82116 0.0
C109 C 0.5248 1.0606 0.80418 0.0
C110 C 0.45635 1.09765 0.01534 0.0
C111 C 0.43607 0.20014 -0.02269 0.0
H112 H 1.13999 0.19498 0.76837 0.0
H113 H 1.16372 0.1533 0.72714 0.0
H114 H 0.29671 0.2197 0.23428 0.0
H115 H 0.27495 0.26257 0.26889 0.0
H116 H 0.59428 1.09052 0.28541 0.0
H117 H 0.53188 1.10551 0.31611 0.0
H118 H 0.46148 1.06395 0.6885 0.0
H119 H 0.52188 1.04784 0.66011 0.0
Tb120 Tb 0.97575 0.60931 0.88226 0.0
Tb121 Tb 0.8685 0.60608 0.80112 0.0
C122 C 0.92997 0.61421 0.24224 0.0
C123 C 1.04339 0.5611 0.94529 0.0
C124 C 1.05935 0.50576 0.00287 0.0
C125 C 1.10313 0.54461 0.0576 0.0
C126 C 1.0953 0.57159 0.02938 0.0
C127 C 0.99916 0.52225 0.89498 0.0
C128 C 1.00693 0.4952 0.92389 0.0
C129 C 1.03819 0.59061 0.88637 0.0
O130 O 0.8978 0.55381 0.92855 0.0
O131 O 0.83423 0.54892 0.7031 0.0
O132 O 0.88033 0.5998 0.50378 0.0
O133 O 0.9699 0.62143 0.57907 0.0
O134 O 0.78959 0.58037 0.86562 0.0
O135 O 0.82446 0.62368 0.68014 0.0
O136 O 0.93701 0.66705 0.85417 0.0
O137 O 1.01597 0.67227 0.90182 0.0
O138 O 0.97443 0.62331 0.18406 0.0
O139 O 0.88543 0.60328 0.11829 0.0
C140 C 0.84699 0.53284 0.82098 0.0
O141 O 0.99794 0.57982 0.74115 0.0
O142 O 1.04645 0.61557 0.02275 0.0
C143 C 0.92697 0.61219 0.45243 0.0
C144 C 0.79248 0.63054 0.95235 0.0
C145 C 0.80444 0.67499 0.28156 0.0
C146 C 0.75417 0.65202 0.14254 0.0
C147 C 0.74826 0.62985 -0.02308 0.0
C148 C 0.84232 0.65369 0.0902 0.0
C149 C 0.84868 0.67611 0.25095 0.0
C150 C 0.78873 0.60602 0.7966 0.0
C151 C 0.99144 0.68852 0.88922 0.0
H152 H 1.14419 0.55444 0.11936 0.0
H153 H 1.13064 0.60098 0.06798 0.0
H154 H 0.95853 0.51263 0.82792 0.0
H155 H 0.97184 0.46587 0.87916 0.0
H156 H 0.71911 0.65038 0.16477 0.0
H157 H 0.70935 0.61173 0.87258 0.0
H158 H 0.87644 0.65399 0.07697 0.0
H159 H 0.88829 0.69409 0.35158 0.0
Tb160 Tb 0.61773 0.31791 -0.02767 0.0
Tb161 Tb 0.58233 0.23986 0.93892 0.0
C162 C 0.60662 0.28197 0.35357 0.0
C163 C 0.70681 0.42219 0.94886 0.0
C164 C 0.80042 0.4935 0.85882 0.0
C165 C 0.80479 0.47973 0.03424 0.0
C166 C 0.75907 0.44507 0.07865 0.0
C167 C 0.70281 0.43559 0.77116 0.0
C168 C 0.74846 0.47041 0.72752 0.0
C169 C 0.65705 0.38622 0.00704 0.0
O170 O 0.69494 0.32584 -0.03614 0.0
O171 O 0.66896 0.26838 0.01279 0.0
O172 O 0.60451 0.25623 0.65027 0.0
O173 O 0.6 0.30429 0.65496 0.0
O174 O 0.55353 0.19037 0.75678 0.0
O175 O 0.53901 0.19013 0.05901 0.0
O176 O 0.53184 0.25849 0.94081 0.0
O177 O 0.53273 0.25852 0.94011 0.0
O178 O 0.60069 0.30441 0.26664 0.0
O179 O 0.61227 0.25961 0.25602 0.0
C180 C 0.7071 0.3033 -0.00358 0.0
O181 O 0.61421 0.3598 0.86991 0.0
O182 O 0.66825 0.3716 0.14326 0.0
C183 C 0.604 0.28083 0.56241 0.0
C184 C 0.58894 0.17001 -0.0158 0.0
C185 C 0.68837 0.18189 0.10159 0.0
C186 C 0.66066 0.16842 0.90097 0.0
C187 C 0.61139 0.16258 0.8427 0.0
C188 C 0.61541 0.18163 0.18662 0.0
C189 C 0.6646 0.18758 0.24433 0.0
C190 C 0.5476 0.17502 0.91817 0.0
C191 C 0.48111 0.24244 -0.03036 0.0
H192 H 0.84321 0.49637 0.14161 0.0
H193 H 0.76458 0.43657 0.21849 0.0
H194 H 0.66392 0.41947 0.66667 0.0
H195 H 0.74259 0.47958 0.59086 0.0
H196 H 0.677 0.16234 0.78871 0.0
H197 H 0.5922 0.15389 0.68598 0.0
H198 H 0.59949 0.18772 0.30064 0.0
H199 H 0.68456 0.19735 0.4002 0.0
Tb200 Tb 1.02115 0.39041 -0.01011 0.0
Tb201 Tb 1.15782 0.4612 0.09034 0.0
C202 C 1.08979 0.42549 0.43203 0.0
C203 C 0.86693 0.33371 0.96274 0.0
C204 C 0.76397 0.31589 -0.00087 0.0
C205 C 0.77728 0.29301 0.06055 0.0
C206 C 0.82798 0.30183 0.04264 0.0
C207 C 0.85481 0.35752 0.90804 0.0
C208 C 0.8039 0.34874 0.92661 0.0
C209 C 0.91722 0.3395 0.9228 0.0
O210 O 1.02674 0.44085 -0.01976 0.0
O211 O 1.12021 0.48917 0.07334 0.0
O212 O 1.13323 0.45402 0.76957 0.0
O213 O 1.04649 0.39615 0.70288 0.0
O214 O 0.22242 0.51333 0.25959 0.0
O215 O 0.23824 0.48806 0.03195 0.0
O216 O 1.1531 0.41107 0.06719 0.0
O217 O 1.05889 0.36179 0.00477 0.0
O218 O 1.0429 0.40971 0.30962 0.0
O219 O 1.13704 0.44223 0.37343 0.0
C220 C 1.06908 0.47702 0.02115 0.0
O221 O 0.94439 0.36268 0.80043 0.0
O222 O 0.95041 0.34285 0.07393 0.0
C223 C 1.08975 0.4252 0.64591 0.0
C224 C 0.31571 0.53753 0.28148 0.0
C225 C 0.42209 0.59366 0.50641 0.0
C226 C 0.41122 0.59154 0.29848 0.0
C227 C 0.35863 0.56373 0.18754 0.0
C228 C 0.32738 0.53737 0.48712 0.0
C229 C 0.3808 0.56519 0.59886 0.0
C230 C 0.25917 0.51684 0.16757 0.0
C231 C 1.11107 0.37474 0.03445 0.0
H232 H 0.74789 0.2676 0.11837 0.0
H233 H 0.83616 0.28305 0.08621 0.0
H234 H 0.88399 0.38238 0.84587 0.0
H235 H 0.79508 0.36692 0.87734 0.0
H236 H 0.44244 0.61315 0.22353 0.0
H237 H 0.35024 0.56475 0.03064 0.0
H238 H 0.29467 0.51746 0.56312 0.0
H239 H 0.38863 0.56628 0.75865 0.0
Tb240 Tb 0.58128 0.98246 0.91517 0.0
Tb241 Tb 0.70618 1.06418 0.01782 0.0
C242 C 0.64517 1.02103 0.5696 0.0
C243 C 0.46464 0.89248 0.00335 0.0
C244 C 0.45446 0.83303 0.14569 0.0
C245 C 0.41406 0.8261 -0.01022 0.0
C246 C 0.41968 0.8559 0.91684 0.0
C247 C 0.49845 0.89898 0.18263 0.0
C248 C 0.4931 0.8692 0.25481 0.0
C249 C 0.48499 0.92234 0.88243 0.0
O250 O 0.63689 0.96859 -0.01363 0.0
O251 O 0.72237 1.02492 -0.01908 0.0
O252 O 0.69381 1.04492 0.30318 0.0
O253 O 0.59922 1.00072 0.23342 0.0
O254 O 0.76197 1.1146 0.91571 0.0
O255 O 0.78399 1.10504 0.20202 0.0
O256 O 0.64542 1.07239 0.06727 0.0
O257 O 0.5747 1.02468 0.83078 0.0
O258 O 0.5995 0.99328 0.62078 0.0
O259 O 0.68897 1.04895 0.69582 0.0
C260 C 0.69063 0.98898 -0.0074 0.0
O261 O 0.50141 0.9541 -0.02505 0.0
O262 O 0.52063 0.92671 0.77909 0.0
C263 C 0.64639 1.0218 0.35826 0.0
C264 C 0.80276 0.163 0.17674 0.0
C265 C 0.7387 0.1859 0.16332 0.0
C266 C 0.74205 0.1693 0.32561 0.0
C267 C 0.77506 0.15849 0.33459 0.0
C268 C 0.81084 0.1883 0.04812 0.0
C269 C 0.77758 0.19901 0.03788 0.0
C270 C 0.79555 0.13011 0.08796 0.0
C271 C 0.59697 1.0555 0.9518 0.0
H272 H 0.38347 0.79845 0.90328 0.0
H273 H 0.39313 0.85052 0.77907 0.0
H274 H 0.53325 0.92721 0.25242 0.0
H275 H 0.52419 0.87515 0.37693 0.0
H276 H 0.71367 0.15979 0.42853 0.0
H277 H 0.77013 0.14048 0.44216 0.0
H278 H 0.83367 0.19329 0.92926 0.0
H279 H 0.77736 0.21334 0.9166 0.0
Tb280 Tb 0.53648 0.7141 0.75378 0.0
Tb281 Tb 0.59604 0.67459 0.77588 0.0
C282 C 0.57092 0.69703 0.15855 0.0
C283 C 0.48254 0.76149 0.92125 0.0
C284 C 0.46839 0.80765 0.13544 0.0
C285 C 0.42601 0.76882 0.09714 0.0
C286 C 0.43294 0.74587 -0.0112 0.0
C287 C 0.52759 0.79936 -0.01345 0.0
C288 C 0.52065 0.82227 0.09423 0.0
C289 C 0.48466 0.73897 0.76842 0.0
O290 O 0.62256 0.76036 0.8742 0.0
O291 O 0.66331 0.73413 0.79186 0.0
O292 O 0.59423 0.68514 0.47008 0.0
O293 O 0.55077 0.71196 0.45264 0.0
O294 O 0.65075 0.66688 0.9235 0.0
O295 O 0.59611 0.63216 0.64587 0.0
O296 O 0.507 0.63161 0.75766 0.0
O297 O 0.48149 0.65985 0.57107 0.0
O298 O 0.53495 0.6982 0.04867 0.0
O299 O 0.60239 0.69166 0.08412 0.0
C300 C 0.66602 0.763 0.85585 0.0
O301 O 0.5301 0.75575 0.69633 0.0
O302 O 0.46492 0.70542 0.80249 0.0
C303 C 0.57298 0.69877 0.37241 0.0
C304 C 0.59747 0.60125 0.90436 0.0
C305 C 0.51237 0.53442 0.02692 0.0
C306 C 0.53095 0.53341 0.85089 0.0
C307 C 0.57327 0.56657 0.79032 0.0
C308 C 0.58227 0.602 0.0897 0.0
C309 C 0.54017 0.56887 0.15052 0.0
C310 C 0.62593 0.63509 0.80792 0.0
C311 C 0.47153 0.62952 0.62202 0.0
H312 H 0.38565 0.75692 0.1297 0.0
H313 H 0.39808 0.71646 0.9442 0.0
H314 H 0.56686 0.81202 0.94115 0.0
H315 H 0.5543 0.85213 0.12161 0.0
H316 H 0.51112 0.50705 0.75594 0.0
H317 H 0.58408 0.56528 0.64681 0.0
H318 H 0.59979 0.62827 0.18093 0.0
H319 H 0.52692 0.57047 0.28755 0.0
Tb320 Tb 0.8243 0.88243 0.00427 0.0
Tb321 Tb 0.82981 0.81329 0.00733 0.0
C322 C 0.83168 0.84973 0.6145 0.0
C323 C 0.77766 0.94338 0.02919 0.0
C324 C 0.71835 0.97173 0.01745 0.0
C325 C 0.69114 0.93392 0.94401 0.0
C326 C 0.72065 0.91994 0.94813 0.0
C327 C 0.80368 0.98035 0.1131 0.0
C328 C 0.77458 0.99437 0.1068 0.0
C329 C 0.81291 0.93268 -0.00217 0.0
O330 O 0.74202 0.82955 0.87401 0.0
O331 O 0.75216 0.79516 0.06775 0.0
O332 O 0.85506 0.83774 0.31716 0.0
O333 O 0.81265 0.86465 0.30013 0.0
O334 O 0.77991 0.75528 -0.01453 0.0
O335 O 0.869 0.78919 0.04442 0.0
O336 O 0.91014 0.85681 0.9566 0.0
O337 O 0.91346 0.90812 0.03117 0.0
O338 O 0.84569 0.87977 0.72052 0.0
O339 O 0.81546 0.81915 0.69126 0.0
C340 C 0.72092 0.79793 0.94224 0.0
O341 O 0.84032 0.93108 0.15124 0.0
O342 O 0.79421 0.90645 0.84939 0.0
C343 C 0.83333 0.85076 0.40105 0.0
C344 C 0.81825 0.73551 0.80839 0.0
C345 C 0.81077 0.69693 0.46193 0.0
C346 C 0.84154 0.70093 0.64445 0.0
C347 C 0.84511 0.72012 0.81711 0.0
C348 C 0.79014 0.73344 0.62501 0.0
C349 C 0.78622 0.71411 0.45296 0.0
C350 C 0.82199 0.75581 -0.01322 0.0
C351 C 0.9369 0.8928 -0.0129 0.0
H352 H 0.64789 0.91572 0.87457 0.0
H353 H 0.69941 0.89132 0.88045 0.0
H354 H 0.84748 0.99911 0.17491 0.0
H355 H 0.79674 1.02346 0.16771 0.0
H356 H 0.86251 0.68905 0.65531 0.0
H357 H 0.86873 0.72305 0.95673 0.0
H358 H 0.7708 0.74653 0.61443 0.0
H359 H 0.76416 0.71275 0.31342 0.0
loop_
_geom_bond_atom_site_label_1
_geom_bond_atom_site_label_2
_geom_bond_distance
_geom_bond_site_symmetry_2
_ccdc_geom_bond_type
Tb0 C9 2.764 . S
Tb0 O10 2.325 1_655 S
Tb0 O13 2.303 1_655 S
Tb0 O17 2.322 . S
Tb0 O18 2.349 1_554 S
Tb0 O21 2.415 . S
Tb0 O22 2.399 1_554 S
Tb1 O11 2.322 . S
Tb1 O12 2.349 . S
Tb1 O14 2.415 . S
Tb1 O15 2.399 . S
Tb1 O16 2.325 . S
Tb1 O19 2.303 1_554 S
Tb1 C30 2.764 . S
C2 O18 1.261 1_455 S
C2 O19 1.257 . S
C3 C6 1.358 1_554 S
C3 C7 1.332 . S
C3 C9 1.504 . S
C4 C5 1.373 1_554 S
C4 C8 1.308 . S
C5 C4 1.373 1_556 S
C5 C6 1.429 1_565 S
C5 H32 0.932 . S
C6 C3 1.358 1_556 S
C6 C5 1.429 1_545 S
C6 H33 0.930 . S
C7 C3 1.332 . S
C7 C8 1.394 1_545 S
C7 H34 0.932 . S
C8 C4 1.308 . S
C8 C7 1.394 1_565 S
C8 H35 0.929 . S
C9 Tb0 2.764 . S
C9 C3 1.504 . S
C9 O21 1.239 . S
C9 O22 1.263 1_554 S
O10 Tb0 2.325 1_455 S
O10 C20 1.236 . S
O11 Tb1 2.322 . S
O11 C20 1.257 . S
O12 Tb1 2.349 . S
O12 C23 1.261 . S
O13 Tb0 2.303 1_455 S
O13 C23 1.257 . S
O14 Tb1 2.415 . S
O14 C30 1.239 . S
O15 Tb1 2.399 . S
O15 C30 1.263 . S
O16 Tb1 2.325 . S
O16 C31 1.236 1_455 S
O17 Tb0 2.322 . S
O17 C31 1.257 . S
O18 Tb0 2.349 1_556 S
O18 C2 1.261 1_655 S
O19 Tb1 2.303 1_556 S
O19 C2 1.257 . S
C20 O10 1.236 . S
C20 O11 1.257 . S
O21 Tb0 2.415 . S
O21 C9 1.239 . S
O22 Tb0 2.399 1_556 S
O22 C9 1.263 1_556 S
C23 O12 1.261 . S
C23 O13 1.257 . S
C24 C27 1.358 . S
C24 C28 1.332 . S
C24 C30 1.504 . S
C25 C26 1.373 . S
C25 C29 1.308 . S
C26 C25 1.373 . S
C26 C27 1.429 . S
C26 H36 0.932 . S
C27 C24 1.358 . S
C27 C26 1.429 . S
C27 H37 0.930 . S
C28 C24 1.332 . S
C28 C29 1.394 . S
C28 H38 0.932 1_554 S
C29 C25 1.308 . S
C29 C28 1.394 . S
C29 H39 0.929 1_554 S
C30 Tb1 2.764 . S
C30 O14 1.239 . S
C30 O15 1.263 . S
C30 C24 1.504 . S
C31 O16 1.236 1_655 S
C31 O17 1.257 . S
H32 C5 0.932 . S
H33 C6 0.930 . S
H34 C7 0.932 . S
H35 C8 0.929 . S
H36 C26 0.932 . S
H37 C27 0.930 . S
H38 C28 0.932 1_556 S
H39 C29 0.929 1_556 S
Tb40 C49 2.764 . S
Tb40 O50 2.325 . S
Tb40 O53 2.303 1_554 S
Tb40 O57 2.322 . S
Tb40 O58 2.349 . S
Tb40 O61 2.415 1_554 S
Tb40 O62 2.399 . S
Tb41 O51 2.322 1_556 S
Tb41 O52 2.349 . S
Tb41 O54 2.415 1_556 S
Tb41 O55 2.399 . S
Tb41 O56 2.325 . S
Tb41 O59 2.303 1_556 S
Tb41 C70 2.764 . S
C42 O58 1.261 . S
C42 O59 1.257 . S
C43 C46 1.358 . S
C43 C47 1.332 1_554 S
C43 C49 1.504 . S
C44 C45 1.373 . S
C44 C48 1.308 1_554 S
C45 C44 1.373 . S
C45 C46 1.429 . S
C45 H72 0.932 . S
C46 C43 1.358 . S
C46 C45 1.429 . S
C46 H73 0.930 . S
C47 C43 1.332 1_556 S
C47 C48 1.394 . S
C47 H74 0.932 . S
C48 C44 1.308 1_556 S
C48 C47 1.394 . S
C48 H75 0.929 . S
C49 Tb40 2.764 . S
C49 C43 1.504 . S
C49 O61 1.239 1_554 S
C49 O62 1.263 . S
O50 Tb40 2.325 . S
O50 C60 1.236 . S
O51 Tb41 2.322 1_554 S
O51 C60 1.257 . S
O52 Tb41 2.349 . S
O52 C63 1.261 . S
O53 Tb40 2.303 1_556 S
O53 C63 1.257 . S
O54 Tb41 2.415 1_554 S
O54 C70 1.239 1_554 S
O55 Tb41 2.399 . S
O55 C70 1.263 . S
O56 Tb41 2.325 . S
O56 C71 1.236 . S
O57 Tb40 2.322 . S
O57 C71 1.257 1_554 S
O58 Tb40 2.349 . S
O58 C42 1.261 . S
O59 Tb41 2.303 1_554 S
O59 C42 1.257 . S
C60 O50 1.236 . S
C60 O51 1.257 . S
O61 Tb40 2.415 1_556 S
O61 C49 1.239 1_556 S
O62 Tb40 2.399 . S
O62 C49 1.263 . S
C63 O52 1.261 . S
C63 O53 1.257 . S
C64 C67 1.358 . S
C64 C68 1.332 1_556 S
C64 C70 1.504 . S
C65 C66 1.373 1_554 S
C65 C69 1.308 . S
C66 C65 1.373 1_556 S
C66 C67 1.429 . S
C66 H76 0.932 . S
C67 C64 1.358 . S
C67 C66 1.429 . S
C67 H77 0.930 . S
C68 C64 1.332 1_554 S
C68 C69 1.394 . S
C68 H78 0.932 . S
C69 C65 1.308 . S
C69 C68 1.394 . S
C69 H79 0.929 . S
C70 Tb41 2.764 . S
C70 O54 1.239 1_556 S
C70 O55 1.263 . S
C70 C64 1.504 . S
C71 O56 1.236 . S
C71 O57 1.257 1_556 S
H72 C45 0.932 . S
H73 C46 0.930 . S
H74 C47 0.932 . S
H75 C48 0.929 . S
H76 C66 0.932 . S
H77 C67 0.930 . S
H78 C68 0.932 . S
H79 C69 0.929 . S
Tb80 C89 2.764 1_556 S
Tb80 O90 2.325 1_545 S
Tb80 O93 2.303 1_556 S
Tb80 O97 2.322 . S
Tb80 O98 2.349 . S
Tb80 O101 2.415 1_556 S
Tb80 O102 2.399 . S
Tb81 O91 2.322 . S
Tb81 O92 2.349 . S
Tb81 O94 2.415 1_554 S
Tb81 O95 2.399 . S
Tb81 O96 2.325 1_565 S
Tb81 O99 2.303 1_554 S
Tb81 C110 2.764 1_554 S
C82 O98 1.261 . S
C82 O99 1.257 1_545 S
C83 C86 1.358 1_554 S
C83 C87 1.332 . S
C83 C89 1.504 . S
C84 C85 1.373 1_554 S
C84 C88 1.308 . S
C85 C84 1.373 1_556 S
C85 C86 1.429 . S
C85 H112 0.932 . S
C86 C83 1.358 1_556 S
C86 C85 1.429 . S
C86 H113 0.930 . S
C87 C83 1.332 . S
C87 C88 1.394 . S
C87 H114 0.932 . S
C88 C84 1.308 . S
C88 C87 1.394 . S
C88 H115 0.929 . S
C89 Tb80 2.764 1_554 S
C89 C83 1.504 . S
C89 O101 1.239 . S
C89 O102 1.263 1_554 S
O90 Tb80 2.325 1_565 S
O90 C100 1.236 . S
O91 Tb81 2.322 . S
O91 C100 1.257 1_554 S
O92 Tb81 2.349 . S
O92 C103 1.261 1_565 S
O93 Tb80 2.303 1_554 S
O93 C103 1.257 . S
O94 Tb81 2.415 1_556 S
O94 C110 1.239 . S
O95 Tb81 2.399 . S
O95 C110 1.263 1_554 S
O96 Tb81 2.325 1_545 S
O96 C111 1.236 . S
O97 Tb80 2.322 . S
O97 C111 1.257 1_556 S
O98 Tb80 2.349 . S
O98 C82 1.261 . S
O99 Tb81 2.303 1_556 S
O99 C82 1.257 1_565 S
C100 O90 1.236 . S
C100 O91 1.257 1_556 S
O101 Tb80 2.415 1_554 S
O101 C89 1.239 . S
O102 Tb80 2.399 . S
O102 C89 1.263 1_556 S
C103 O92 1.261 1_545 S
C103 O93 1.257 . S
C104 C107 1.358 1_556 S
C104 C108 1.332 . S
C104 C110 1.504 . S
C105 C106 1.373 1_556 S
C105 C109 1.308 . S
C106 C105 1.373 1_554 S
C106 C107 1.429 . S
C106 H116 0.932 . S
C107 C104 1.358 1_554 S
C107 C106 1.429 . S
C107 H117 0.930 . S
C108 C104 1.332 . S
C108 C109 1.394 . S
C108 H118 0.932 . S
C109 C105 1.308 . S
C109 C108 1.394 . S
C109 H119 0.929 . S
C110 Tb81 2.764 1_556 S
C110 O94 1.239 . S
C110 O95 1.263 1_556 S
C110 C104 1.504 . S
C111 O96 1.236 . S
C111 O97 1.257 1_554 S
H112 C85 0.932 . S
H113 C86 0.930 . S
H114 C87 0.932 . S
H115 C88 0.929 . S
H116 C106 0.932 . S
H117 C107 0.930 . S
H118 C108 0.932 . S
H119 C109 0.929 . S
Tb120 C129 2.764 1_554 S
Tb120 O130 2.325 . S
Tb120 O133 2.303 1_554 S
Tb120 O137 2.322 . S
Tb120 O138 2.349 . S
Tb120 O141 2.415 1_554 S
Tb120 O142 2.399 . S
Tb121 O131 2.322 . S
Tb121 O132 2.349 . S
Tb121 O134 2.415 1_556 S
Tb121 O135 2.399 . S
Tb121 O136 2.325 . S
Tb121 O139 2.303 1_556 S
Tb121 C150 2.764 1_556 S
C122 O138 1.261 . S
C122 O139 1.257 . S
C123 C126 1.358 1_556 S
C123 C127 1.332 . S
C123 C129 1.504 . S
C124 C125 1.373 1_556 S
C124 C128 1.308 . S
C125 C124 1.373 1_554 S
C125 C126 1.429 . S
C125 H152 0.932 . S
C126 C123 1.358 1_554 S
C126 C125 1.429 . S
C126 H153 0.930 . S
C127 C123 1.332 . S
C127 C128 1.394 . S
C127 H154 0.932 . S
C128 C124 1.308 . S
C128 C127 1.394 . S
C128 H155 0.929 . S
C129 Tb120 2.764 1_556 S
C129 C123 1.504 . S
C129 O141 1.239 . S
C129 O142 1.263 1_556 S
O130 Tb120 2.325 . S
O130 C140 1.236 1_554 S
O131 Tb121 2.322 . S
O131 C140 1.257 . S
O132 Tb121 2.349 . S
O132 C143 1.261 . S
O133 Tb120 2.303 1_556 S
O133 C143 1.257 . S
O134 Tb121 2.415 1_554 S
O134 C150 1.239 . S
O135 Tb121 2.399 . S
O135 C150 1.263 1_556 S
O136 Tb121 2.325 . S
O136 C151 1.236 1_556 S
O137 Tb120 2.322 . S
O137 C151 1.257 . S
O138 Tb120 2.349 . S
O138 C122 1.261 . S
O139 Tb121 2.303 1_554 S
O139 C122 1.257 . S
C140 O130 1.236 1_556 S
C140 O131 1.257 . S
O141 Tb120 2.415 1_556 S
O141 C129 1.239 . S
O142 Tb120 2.399 . S
O142 C129 1.263 1_554 S
C143 O132 1.261 . S
C143 O133 1.257 . S
C144 C147 1.358 1_554 S
C144 C148 1.332 . S
C144 C150 1.504 . S
C145 C146 1.373 1_554 S
C145 C149 1.308 . S
C146 C145 1.373 1_556 S
C146 C147 1.429 . S
C146 H156 0.932 . S
C147 C144 1.358 1_556 S
C147 C146 1.429 . S
C147 H157 0.930 . S
C148 C144 1.332 . S
C148 C149 1.394 . S
C148 H158 0.932 . S
C149 C145 1.308 . S
C149 C148 1.394 . S
C149 H159 0.929 . S
C150 Tb121 2.764 1_554 S
C150 O134 1.239 . S
C150 O135 1.263 1_554 S
C150 C144 1.504 . S
C151 O136 1.236 1_554 S
C151 O137 1.257 . S
H152 C125 0.932 . S
H153 C126 0.930 . S
H154 C127 0.932 . S
H155 C128 0.929 . S
H156 C146 0.932 . S
H157 C147 0.930 . S
H158 C148 0.932 . S
H159 C149 0.929 . S
Tb160 C169 2.764 1_554 S
Tb160 O170 2.325 . S
Tb160 O173 2.303 1_554 S
Tb160 O177 2.322 1_554 S
Tb160 O178 2.349 . S
Tb160 O181 2.415 1_554 S
Tb160 O182 2.399 . S
Tb161 O171 2.322 1_556 S
Tb161 O172 2.349 . S
Tb161 O174 2.415 1_556 S
Tb161 O175 2.399 . S
Tb161 O176 2.325 . S
Tb161 O179 2.303 1_556 S
Tb161 C190 2.764 1_556 S
C162 O178 1.261 . S
C162 O179 1.257 . S
C163 C166 1.358 1_556 S
C163 C167 1.332 . S
C163 C169 1.504 . S
C164 C165 1.373 1_556 S
C164 C168 1.308 . S
C165 C164 1.373 1_554 S
C165 C166 1.429 . S
C165 H192 0.932 . S
C166 C163 1.358 1_554 S
C166 C165 1.429 . S
C166 H193 0.930 . S
C167 C163 1.332 . S
C167 C168 1.394 . S
C167 H194 0.932 . S
C168 C164 1.308 . S
C168 C167 1.394 . S
C168 H195 0.929 . S
C169 Tb160 2.764 1_556 S
C169 C163 1.504 . S
C169 O181 1.239 . S
C169 O182 1.263 1_556 S
O170 Tb160 2.325 . S
O170 C180 1.236 . S
O171 Tb161 2.322 1_554 S
O171 C180 1.257 . S
O172 Tb161 2.349 . S
O172 C183 1.261 . S
O173 Tb160 2.303 1_556 S
O173 C183 1.257 . S
O174 Tb161 2.415 1_554 S
O174 C190 1.239 . S
O175 Tb161 2.399 . S
O175 C190 1.263 1_556 S
O176 Tb161 2.325 . S
O176 C191 1.236 . S
O177 Tb160 2.322 1_556 S
O177 C191 1.257 . S
O178 Tb160 2.349 . S
O178 C162 1.261 . S
O179 Tb161 2.303 1_554 S
O179 C162 1.257 . S
C180 O170 1.236 . S
C180 O171 1.257 . S
O181 Tb160 2.415 1_556 S
O181 C169 1.239 . S
O182 Tb160 2.399 . S
O182 C169 1.263 1_554 S
C183 O172 1.261 . S
C183 O173 1.257 . S
C184 C187 1.358 1_554 S
C184 C188 1.332 . S
C184 C190 1.504 . S
C185 C186 1.373 1_554 S
C185 C189 1.308 . S
C186 C185 1.373 1_556 S
C186 C187 1.429 . S
C186 H196 0.932 . S
C187 C184 1.358 1_556 S
C187 C186 1.429 . S
C187 H197 0.930 . S
C188 C184 1.332 . S
C188 C189 1.394 . S
C188 H198 0.932 . S
C189 C185 1.308 . S
C189 C188 1.394 . S
C189 H199 0.929 . S
C190 Tb161 2.764 1_554 S
C190 O174 1.239 . S
C190 O175 1.263 1_554 S
C190 C184 1.504 . S
C191 O176 1.236 . S
C191 O177 1.257 . S
H192 C165 0.932 . S
H193 C166 0.930 . S
H194 C167 0.932 . S
H195 C168 0.929 . S
H196 C186 0.932 . S
H197 C187 0.930 . S
H198 C188 0.932 . S
H199 C189 0.929 . S
Tb200 C209 2.764 1_554 S
Tb200 O210 2.325 . S
Tb200 O213 2.303 1_554 S
Tb200 O217 2.322 . S
Tb200 O218 2.349 . S
Tb200 O221 2.415 1_554 S
Tb200 O222 2.399 . S
Tb201 O211 2.322 1_455 S
Tb201 O212 2.349 1_454 S
Tb201 O214 2.415 . S
Tb201 O215 2.399 . S
Tb201 O216 2.325 . S
Tb201 O219 2.303 1_455 S
Tb201 C230 2.764 . S
C202 O218 1.261 . S
C202 O219 1.257 . S
C203 C206 1.358 . S
C203 C207 1.332 . S
C203 C209 1.504 . S
C204 C205 1.373 . S
C204 C208 1.308 . S
C205 C204 1.373 . S
C205 C206 1.429 . S
C205 H232 0.932 . S
C206 C203 1.358 . S
C206 C205 1.429 . S
C206 H233 0.930 1_556 S
C207 C203 1.332 . S
C207 C208 1.394 . S
C207 H234 0.932 . S
C208 C204 1.308 . S
C208 C207 1.394 . S
C208 H235 0.929 . S
C209 Tb200 2.764 1_556 S
C209 C203 1.504 . S
C209 O221 1.239 . S
C209 O222 1.263 1_556 S
O210 Tb200 2.325 . S
O210 C220 1.236 . S
O211 Tb201 2.322 1_655 S
O211 C220 1.257 . S
O212 Tb201 2.349 1_656 S
O212 C223 1.263 . S
O213 Tb200 2.303 1_556 S
O213 C223 1.257 . S
O214 Tb201 2.415 . S
O214 C230 1.239 . S
O215 Tb201 2.399 . S
O215 C230 1.263 . S
O216 Tb201 2.325 . S
O216 C231 1.236 1_455 S
O217 Tb200 2.322 . S
O217 C231 1.257 . S
O218 Tb200 2.349 . S
O218 C202 1.261 . S
O219 Tb201 2.303 1_655 S
O219 C202 1.257 . S
C220 O210 1.236 . S
C220 O211 1.257 . S
O221 Tb200 2.415 1_556 S
O221 C209 1.239 . S
O222 Tb200 2.399 . S
O222 C209 1.263 1_554 S
C223 O212 1.263 . S
C223 O213 1.257 . S
C224 C227 1.358 . S
C224 C228 1.332 . S
C224 C230 1.504 . S
C225 C226 1.373 . S
C225 C229 1.308 . S
C226 C225 1.373 . S
C226 C227 1.429 . S
C226 H236 0.932 . S
C227 C224 1.358 . S
C227 C226 1.429 . S
C227 H237 0.930 . S
C228 C224 1.332 . S
C228 C229 1.394 . S
C228 H238 0.932 . S
C229 C225 1.308 . S
C229 C228 1.394 . S
C229 H239 0.929 . S
C230 Tb201 2.764 . S
C230 O214 1.239 . S
C230 O215 1.263 . S
C230 C224 1.504 . S
C231 O216 1.236 1_655 S
C231 O217 1.257 . S
H232 C205 0.932 . S
H233 C206 0.930 1_554 S
H234 C207 0.932 . S
H235 C208 0.929 . S
H236 C226 0.932 . S
H237 C227 0.930 . S
H238 C228 0.932 . S
H239 C229 0.929 . S
Tb240 C249 2.764 . S
Tb240 O250 2.325 . S
Tb240 O253 2.303 1_556 S
Tb240 O257 2.322 . S
Tb240 O258 2.349 . S
Tb240 O261 2.415 1_556 S
Tb240 O262 2.399 . S
Tb241 O251 2.322 . S
Tb241 O252 2.349 . S
Tb241 O254 2.415 1_554 S
Tb241 O255 2.399 . S
Tb241 O256 2.325 . S
Tb241 O259 2.303 1_554 S
Tb241 C270 2.764 . S
C242 O258 1.261 . S
C242 O259 1.257 . S
C243 C246 1.358 . S
C243 C247 1.332 1_556 S
C243 C249 1.504 . S
C244 C245 1.373 1_554 S
C244 C248 1.308 . S
C245 C244 1.373 1_556 S
C245 C246 1.429 . S
C245 H272 0.932 . S
C246 C243 1.358 . S
C246 C245 1.429 . S
C246 H273 0.930 . S
C247 C243 1.332 1_554 S
C247 C248 1.394 . S
C247 H274 0.932 . S
C248 C244 1.308 . S
C248 C247 1.394 . S
C248 H275 0.929 . S
C249 Tb240 2.764 . S
C249 C243 1.504 . S
C249 O261 1.239 1_556 S
C249 O262 1.263 . S
O250 Tb240 2.325 . S
O250 C260 1.236 1_556 S
O251 Tb241 2.322 . S
O251 C260 1.257 . S
O252 Tb241 2.349 . S
O252 C263 1.261 . S
O253 Tb240 2.303 1_554 S
O253 C263 1.257 . S
O254 Tb241 2.415 1_556 S
O254 C270 1.239 1_556 S
O255 Tb241 2.399 . S
O255 C270 1.263 . S
O256 Tb241 2.325 . S
O256 C271 1.236 1_554 S
O257 Tb240 2.322 . S
O257 C271 1.257 . S
O258 Tb240 2.349 . S
O258 C242 1.261 . S
O259 Tb241 2.303 1_556 S
O259 C242 1.257 . S
C260 O250 1.236 1_554 S
C260 O251 1.257 . S
O261 Tb240 2.415 1_554 S
O261 C249 1.239 1_554 S
O262 Tb240 2.399 . S
O262 C249 1.263 . S
C263 O252 1.261 . S
C263 O253 1.257 . S
C264 C267 1.358 . S
C264 C268 1.332 1_554 S
C264 C270 1.504 1_545 S
C265 C266 1.373 1_556 S
C265 C269 1.308 . S
C266 C265 1.373 1_554 S
C266 C267 1.429 . S
C266 H276 0.932 . S
C267 C264 1.358 . S
C267 C266 1.429 . S
C267 H277 0.930 . S
C268 C264 1.332 1_556 S
C268 C269 1.394 . S
C268 H278 0.932 . S
C269 C265 1.308 . S
C269 C268 1.394 . S
C269 H279 0.929 . S
C270 Tb241 2.764 . S
C270 O254 1.239 1_554 S
C270 O255 1.263 . S
C270 C264 1.504 1_565 S
C271 O256 1.236 1_556 S
C271 O257 1.257 . S
H272 C245 0.932 . S
H273 C246 0.930 . S
H274 C247 0.932 . S
H275 C248 0.929 . S
H276 C266 0.932 . S
H277 C267 0.930 . S
H278 C268 0.932 . S
H279 C269 0.929 . S
Tb280 C289 2.764 . S
Tb280 O290 2.325 . S
Tb280 O293 2.303 1_554 S
Tb280 O297 2.322 1_554 S
Tb280 O298 2.349 . S
Tb280 O301 2.415 1_554 S
Tb280 O302 2.399 . S
Tb281 O291 2.322 1_556 S
Tb281 O292 2.349 . S
Tb281 O294 2.415 1_556 S
Tb281 O295 2.399 . S
Tb281 O296 2.325 . S
Tb281 O299 2.303 1_556 S
Tb281 C310 2.764 . S
C282 O298 1.261 . S
C282 O299 1.257 . S
C283 C286 1.358 . S
C283 C287 1.332 1_554 S
C283 C289 1.504 . S
C284 C285 1.373 1_556 S
C284 C288 1.308 . S
C285 C284 1.373 1_554 S
C285 C286 1.429 . S
C285 H312 0.932 . S
C286 C283 1.358 . S
C286 C285 1.429 . S
C286 H313 0.930 . S
C287 C283 1.332 1_556 S
C287 C288 1.394 . S
C287 H314 0.932 . S
C288 C284 1.308 . S
C288 C287 1.394 . S
C288 H315 0.929 . S
C289 Tb280 2.764 . S
C289 C283 1.504 . S
C289 O301 1.239 1_554 S
C289 O302 1.263 . S
O290 Tb280 2.325 . S
O290 C300 1.236 . S
O291 Tb281 2.322 1_554 S
O291 C300 1.257 . S
O292 Tb281 2.349 . S
O292 C303 1.261 . S
O293 Tb280 2.303 1_556 S
O293 C303 1.257 . S
O294 Tb281 2.415 1_554 S
O294 C310 1.239 1_554 S
O295 Tb281 2.399 . S
O295 C310 1.263 . S
O296 Tb281 2.325 . S
O296 C311 1.236 . S
O297 Tb280 2.322 1_556 S
O297 C311 1.257 . S
O298 Tb280 2.349 . S
O298 C282 1.261 . S
O299 Tb281 2.303 1_554 S
O299 C282 1.257 . S
C300 O290 1.236 . S
C300 O291 1.257 . S
O301 Tb280 2.415 1_556 S
O301 C289 1.239 1_556 S
O302 Tb280 2.399 . S
O302 C289 1.263 . S
C303 O292 1.261 . S
C303 O293 1.257 . S
C304 C307 1.358 . S
C304 C308 1.332 1_556 S
C304 C310 1.504 . S
C305 C306 1.373 1_554 S
C305 C309 1.308 . S
C306 C305 1.373 1_556 S
C306 C307 1.429 . S
C306 H316 0.932 . S
C307 C304 1.358 . S
C307 C306 1.429 . S
C307 H317 0.930 . S
C308 C304 1.332 1_554 S
C308 C309 1.394 . S
C308 H318 0.932 . S
C309 C305 1.308 . S
C309 C308 1.394 . S
C309 H319 0.929 . S
C310 Tb281 2.764 . S
C310 O294 1.239 1_556 S
C310 O295 1.263 . S
C310 C304 1.504 . S
C311 O296 1.236 . S
C311 O297 1.257 . S
H312 C285 0.932 . S
H313 C286 0.930 . S
H314 C287 0.932 . S
H315 C288 0.929 . S
H316 C306 0.932 . S
H317 C307 0.930 . S
H318 C308 0.932 . S
H319 C309 0.929 . S
Tb320 C329 2.764 1_556 S
Tb320 O330 2.325 . S
Tb320 O333 2.303 1_556 S
Tb320 O337 2.322 . S
Tb320 O338 2.349 . S
Tb320 O341 2.415 1_556 S
Tb320 O342 2.399 . S
Tb321 O331 2.322 . S
Tb321 O332 2.349 1_556 S
Tb321 O334 2.415 . S
Tb321 O335 2.399 1_556 S
Tb321 O336 2.325 . S
Tb321 O339 2.303 . S
Tb321 C350 2.764 . S
C322 O338 1.261 . S
C322 O339 1.257 . S
C323 C326 1.358 1_554 S
C323 C327 1.332 . S
C323 C329 1.504 . S
C324 C325 1.373 . S
C324 C328 1.308 . S
C325 C324 1.373 . S
C325 C326 1.429 1_554 S
C325 H352 0.932 1_554 S
C326 C323 1.358 1_556 S
C326 C325 1.429 1_556 S
C326 H353 0.930 . S
C327 C323 1.332 . S
C327 C328 1.394 . S
C327 H354 0.932 . S
C328 C324 1.308 . S
C328 C327 1.394 . S
C328 H355 0.929 . S
C329 Tb320 2.764 1_554 S
C329 C323 1.504 . S
C329 O341 1.239 . S
C329 O342 1.263 1_554 S
O330 Tb320 2.325 . S
O330 C340 1.236 . S
O331 Tb321 2.322 . S
O331 C340 1.257 . S
O332 Tb321 2.349 1_554 S
O332 C343 1.261 . S
O333 Tb320 2.303 1_554 S
O333 C343 1.257 . S
O334 Tb321 2.415 . S
O334 C350 1.239 . S
O335 Tb321 2.399 1_554 S
O335 C350 1.263 1_554 S
O336 Tb321 2.325 . S
O336 C351 1.236 . S
O337 Tb320 2.322 . S
O337 C351 1.257 . S
O338 Tb320 2.349 . S
O338 C322 1.261 . S
O339 Tb321 2.303 . S
O339 C322 1.257 . S
C340 O330 1.236 . S
C340 O331 1.257 . S
O341 Tb320 2.415 1_554 S
O341 C329 1.239 . S
O342 Tb320 2.399 . S
O342 C329 1.263 1_556 S
C343 O332 1.261 . S
C343 O333 1.257 . S
C344 C347 1.358 . S
C344 C348 1.332 . S
C344 C350 1.504 . S
C345 C346 1.373 . S
C345 C349 1.308 . S
C346 C345 1.373 . S
C346 C347 1.429 . S
C346 H356 0.932 . S
C347 C344 1.358 . S
C347 C346 1.429 . S
C347 H357 0.930 1_556 S
C348 C344 1.332 . S
C348 C349 1.394 . S
C348 H358 0.932 . S
C349 C345 1.308 . S
C349 C348 1.394 . S
C349 H359 0.929 . S
C350 Tb321 2.764 . S
C350 O334 1.239 . S
C350 O335 1.263 1_556 S
C350 C344 1.504 . S
C351 O336 1.236 . S
C351 O337 1.257 . S
H352 C325 0.932 1_556 S
H353 C326 0.930 . S
H354 C327 0.932 . S
H355 C328 0.929 . S
H356 C346 0.932 . S
H357 C347 0.930 1_554 S
H358 C348 0.932 . S
H359 C349 0.929 . S
C25 C305 3.936 . S
C71 C351 4.194 . S
C105 C271 2.253 . S
C191 C111 5.160 1_556 S
C231 C31 4.784 . S
C65 C151 3.563 . S
C311 C225 4.632 . S
C345 C145 3.437 . S
C185 C265 4.977 1_554 S
C84 C20 3.877 . S
C44 C4 3.563 . S
C60 C100 5.887 1_654 S
C124 C220 3.079 1_556 S
C140 C164 3.271 . S
C180 C204 3.399 1_554 S
C324 C260 3.970 . S
C284 C244 2.872 1_556 S
C340 C300 3.857 1_556 S
C2 C23 1.631 . S
C63 C42 1.466 . S
C82 C103 1.442 . S
C122 C143 1.830 . S
C162 C183 1.991 . S
C202 C223 1.303 . S
C242 C263 1.799 . S
C282 C303 1.622 . S
C322 C343 1.608 . S
