# Generated by pormake.
# Topology umq, (4)-cn, num edge types: 1
# Building blocks:
#     Node 0, Type 0, BuildingBlock: CEKHIL_clean_sbu_0, # of connection points: 4
#     Node 1, Type 0, BuildingBlock: CEKHIL_clean_sbu_0, # of connection points: 4
#     Node 2, Type 0, BuildingBlock: CEKHIL_clean_sbu_0, # of connection points: 4
#     Node 3, Type 0, BuildingBlock: CEKHIL_clean_sbu_0, # of connection points: 4
#     Node 4, Type 0, BuildingBlock: CEKHIL_clean_sbu_0, # of connection points: 4
#     Node 5, Type 0, BuildingBlock: CEKHIL_clean_sbu_0, # of connection points: 4
#     Node 6, Type 0, BuildingBlock: CEKHIL_clean_sbu_0, # of connection points: 4
#     Node 7, Type 0, BuildingBlock: CEKHIL_clean_sbu_0, # of connection points: 4
#     Node 8, Type 0, BuildingBlock: CEKHIL_clean_sbu_0, # of connection points: 4
#     Node 9, Type 0, BuildingBlock: CEKHIL_clean_sbu_0, # of connection points: 4
#     Node 10, Type 0, BuildingBlock: CEKHIL_clean_sbu_0, # of connection points: 4
#     Node 11, Type 0, BuildingBlock: CEKHIL_clean_sbu_0, # of connection points: 4
#     Node 12, Type 0, BuildingBlock: CEKHIL_clean_sbu_0, # of connection points: 4
#     Node 13, Type 0, BuildingBlock: CEKHIL_clean_sbu_0, # of connection points: 4
#     Node 14, Type 0, BuildingBlock: CEKHIL_clean_sbu_0, # of connection points: 4
#     Node 15, Type 0, BuildingBlock: CEKHIL_clean_sbu_0, # of connection points: 4
#     Node 16, Type 0, BuildingBlock: CEKHIL_clean_sbu_0, # of connection points: 4
#     Node 17, Type 0, BuildingBlock: CEKHIL_clean_sbu_0, # of connection points: 4
#     Node 18, Type 0, BuildingBlock: CEKHIL_clean_sbu_0, # of connection points: 4
#     Node 19, Type 0, BuildingBlock: CEKHIL_clean_sbu_0, # of connection points: 4
#     Node 20, Type 0, BuildingBlock: CEKHIL_clean_sbu_0, # of connection points: 4
#     Node 21, Type 0, BuildingBlock: CEKHIL_clean_sbu_0, # of connection points: 4
#     Node 22, Type 0, BuildingBlock: CEKHIL_clean_sbu_0, # of connection points: 4
#     Node 23, Type 0, BuildingBlock: CEKHIL_clean_sbu_0, # of connection points: 4
#     Node 24, Type 0, BuildingBlock: CEKHIL_clean_sbu_0, # of connection points: 4
#     Node 25, Type 0, BuildingBlock: CEKHIL_clean_sbu_0, # of connection points: 4
#     Node 26, Type 0, BuildingBlock: CEKHIL_clean_sbu_0, # of connection points: 4
#     Node 27, Type 0, BuildingBlock: CEKHIL_clean_sbu_0, # of connection points: 4
#     Node 28, Type 0, BuildingBlock: CEKHIL_clean_sbu_0, # of connection points: 4
#     Node 29, Type 0, BuildingBlock: CEKHIL_clean_sbu_0, # of connection points: 4
#     Node 30, Type 0, BuildingBlock: CEKHIL_clean_sbu_0, # of connection points: 4
#     Node 31, Type 0, BuildingBlock: CEKHIL_clean_sbu_0, # of connection points: 4
#     Edge 32, Type (0, 0), BuildingBlock: MIFKUJ_clean_linker_0, # of connection points: 2
#     Edge 33, Type (0, 0), BuildingBlock: MIFKUJ_clean_linker_0, # of connection points: 2
#     Edge 34, Type (0, 0), BuildingBlock: MIFKUJ_clean_linker_0, # of connection points: 2
#     Edge 35, Type (0, 0), BuildingBlock: MIFKUJ_clean_linker_0, # of connection points: 2
#     Edge 36, Type (0, 0), BuildingBlock: MIFKUJ_clean_linker_0, # of connection points: 2
#     Edge 37, Type (0, 0), BuildingBlock: MIFKUJ_clean_linker_0, # of connection points: 2
#     Edge 38, Type (0, 0), BuildingBlock: MIFKUJ_clean_linker_0, # of connection points: 2
#     Edge 39, Type (0, 0), BuildingBlock: MIFKUJ_clean_linker_0, # of connection points: 2
#     Edge 40, Type (0, 0), BuildingBlock: MIFKUJ_clean_linker_0, # of connection points: 2
#     Edge 41, Type (0, 0), BuildingBlock: MIFKUJ_clean_linker_0, # of connection points: 2
#     Edge 42, Type (0, 0), BuildingBlock: MIFKUJ_clean_linker_0, # of connection points: 2
#     Edge 43, Type (0, 0), BuildingBlock: MIFKUJ_clean_linker_0, # of connection points: 2
#     Edge 44, Type (0, 0), BuildingBlock: MIFKUJ_clean_linker_0, # of connection points: 2
#     Edge 45, Type (0, 0), BuildingBlock: MIFKUJ_clean_linker_0, # of connection points: 2
#     Edge 46, Type (0, 0), BuildingBlock: MIFKUJ_clean_linker_0, # of connection points: 2
#     Edge 47, Type (0, 0), BuildingBlock: MIFKUJ_clean_linker_0, # of connection points: 2
#     Edge 48, Type (0, 0), BuildingBlock: MIFKUJ_clean_linker_0, # of connection points: 2
#     Edge 49, Type (0, 0), BuildingBlock: MIFKUJ_clean_linker_0, # of connection points: 2
#     Edge 50, Type (0, 0), BuildingBlock: MIFKUJ_clean_linker_0, # of connection points: 2
#     Edge 51, Type (0, 0), BuildingBlock: MIFKUJ_clean_linker_0, # of connection points: 2
#     Edge 52, Type (0, 0), BuildingBlock: MIFKUJ_clean_linker_0, # of connection points: 2
#     Edge 53, Type (0, 0), BuildingBlock: MIFKUJ_clean_linker_0, # of connection points: 2
#     Edge 54, Type (0, 0), BuildingBlock: MIFKUJ_clean_linker_0, # of connection points: 2
#     Edge 55, Type (0, 0), BuildingBlock: MIFKUJ_clean_linker_0, # of connection points: 2
#     Edge 56, Type (0, 0), BuildingBlock: MIFKUJ_clean_linker_0, # of connection points: 2
#     Edge 57, Type (0, 0), BuildingBlock: MIFKUJ_clean_linker_0, # of connection points: 2
#     Edge 58, Type (0, 0), BuildingBlock: MIFKUJ_clean_linker_0, # of connection points: 2
#     Edge 59, Type (0, 0), BuildingBlock: MIFKUJ_clean_linker_0, # of connection points: 2
#     Edge 60, Type (0, 0), BuildingBlock: MIFKUJ_clean_linker_0, # of connection points: 2
#     Edge 61, Type (0, 0), BuildingBlock: MIFKUJ_clean_linker_0, # of connection points: 2
#     Edge 62, Type (0, 0), BuildingBlock: MIFKUJ_clean_linker_0, # of connection points: 2
#     Edge 63, Type (0, 0), BuildingBlock: MIFKUJ_clean_linker_0, # of connection points: 2
#     Edge 64, Type (0, 0), BuildingBlock: MIFKUJ_clean_linker_0, # of connection points: 2
#     Edge 65, Type (0, 0), BuildingBlock: MIFKUJ_clean_linker_0, # of connection points: 2
#     Edge 66, Type (0, 0), BuildingBlock: MIFKUJ_clean_linker_0, # of connection points: 2
#     Edge 67, Type (0, 0), BuildingBlock: MIFKUJ_clean_linker_0, # of connection points: 2
#     Edge 68, Type (0, 0), BuildingBlock: MIFKUJ_clean_linker_0, # of connection points: 2
#     Edge 69, Type (0, 0), BuildingBlock: MIFKUJ_clean_linker_0, # of connection points: 2
#     Edge 70, Type (0, 0), BuildingBlock: MIFKUJ_clean_linker_0, # of connection points: 2
#     Edge 71, Type (0, 0), BuildingBlock: MIFKUJ_clean_linker_0, # of connection points: 2
#     Edge 72, Type (0, 0), BuildingBlock: MIFKUJ_clean_linker_0, # of connection points: 2
#     Edge 73, Type (0, 0), BuildingBlock: MIFKUJ_clean_linker_0, # of connection points: 2
#     Edge 74, Type (0, 0), BuildingBlock: MIFKUJ_clean_linker_0, # of connection points: 2
#     Edge 75, Type (0, 0), BuildingBlock: MIFKUJ_clean_linker_0, # of connection points: 2
#     Edge 76, Type (0, 0), BuildingBlock: MIFKUJ_clean_linker_0, # of connection points: 2
#     Edge 77, Type (0, 0), BuildingBlock: MIFKUJ_clean_linker_0, # of connection points: 2
#     Edge 78, Type (0, 0), BuildingBlock: MIFKUJ_clean_linker_0, # of connection points: 2
#     Edge 79, Type (0, 0), BuildingBlock: MIFKUJ_clean_linker_0, # of connection points: 2
#     Edge 80, Type (0, 0), BuildingBlock: MIFKUJ_clean_linker_0, # of connection points: 2
#     Edge 81, Type (0, 0), BuildingBlock: MIFKUJ_clean_linker_0, # of connection points: 2
#     Edge 82, Type (0, 0), BuildingBlock: MIFKUJ_clean_linker_0, # of connection points: 2
#     Edge 83, Type (0, 0), BuildingBlock: MIFKUJ_clean_linker_0, # of connection points: 2
#     Edge 84, Type (0, 0), BuildingBlock: MIFKUJ_clean_linker_0, # of connection points: 2
#     Edge 85, Type (0, 0), BuildingBlock: MIFKUJ_clean_linker_0, # of connection points: 2
#     Edge 86, Type (0, 0), BuildingBlock: MIFKUJ_clean_linker_0, # of connection points: 2
#     Edge 87, Type (0, 0), BuildingBlock: MIFKUJ_clean_linker_0, # of connection points: 2
#     Edge 88, Type (0, 0), BuildingBlock: MIFKUJ_clean_linker_0, # of connection points: 2
#     Edge 89, Type (0, 0), BuildingBlock: MIFKUJ_clean_linker_0, # of connection points: 2
#     Edge 90, Type (0, 0), BuildingBlock: MIFKUJ_clean_linker_0, # of connection points: 2
#     Edge 91, Type (0, 0), BuildingBlock: MIFKUJ_clean_linker_0, # of connection points: 2
#     Edge 92, Type (0, 0), BuildingBlock: MIFKUJ_clean_linker_0, # of connection points: 2
#     Edge 93, Type (0, 0), BuildingBlock: MIFKUJ_clean_linker_0, # of connection points: 2
#     Edge 94, Type (0, 0), BuildingBlock: MIFKUJ_clean_linker_0, # of connection points: 2
#     Edge 95, Type (0, 0), BuildingBlock: MIFKUJ_clean_linker_0, # of connection points: 2
# Relax obj value: 0.079
# Max RMSD: 0.062
# Mean RMSD: 0.062
data_MOF--net-umq--node1-CEKHIL_clean_sbu_0--edge1-MIFKUJ_clean_linker_0
_symmetry_space_group_name_H-M    P1
_symmetry_Int_Tables_number       1
_symmetry_cell_setting            triclinic
loop_
_symmetry_equiv_pos_as_xyz
'x, y, z'
_cell_length_a     85.326178
_cell_length_b     85.326742
_cell_length_c     57.416865
_cell_angle_alpha  89.996187
_cell_angle_beta   90.002237
_cell_angle_gamma 89.997443
loop_
_atom_site_label
_atom_site_type_symbol
_atom_site_fract_x
_atom_site_fract_y
_atom_site_fract_z
_atom_type_partial_charge
Co0 Co 0.24202 0.09811 0.16486 0.0
O1 O 0.23084 0.07893 0.17182 0.0
O2 O 0.25049 0.08822 0.19268 0.0
C3 C 0.2452 0.09317 0.12628 0.0
O4 O 0.25695 0.117 0.16274 0.0
Co5 Co 0.22858 0.12263 0.12995 0.0
O6 O 0.24933 0.13278 0.13344 0.0
C7 C 0.21446 0.1193 0.17669 0.0
C8 C 0.24029 0.07711 0.18932 0.0
C9 C 0.259 0.12906 0.14946 0.0
O10 O 0.2261 0.11075 0.18356 0.0
O11 O 0.21267 0.12366 0.15551 0.0
O12 O 0.25473 0.08704 0.14141 0.0
O13 O 0.23364 0.10088 0.13502 0.0
Co14 Co 0.90734 0.24123 0.16197 0.0
O15 O 0.92611 0.22924 0.16838 0.0
O16 O 0.9175 0.24865 0.19029 0.0
C17 C 0.9125 0.24502 0.12353 0.0
O18 O 0.88912 0.25699 0.16033 0.0
Co19 Co 0.8824 0.22976 0.12612 0.0
O20 O 0.87464 0.25156 0.1286 0.0
C21 C 0.88315 0.21588 0.17349 0.0
C22 C 0.92831 0.23823 0.1863 0.0
C23 C 0.87814 0.26043 0.1457 0.0
O24 O 0.89389 0.22562 0.18009 0.0
O25 O 0.87812 0.21511 0.1525 0.0
O26 O 0.919 0.25392 0.13914 0.0
O27 O 0.90431 0.23358 0.13168 0.0
Co28 Co 0.76415 0.90632 0.16359 0.0
O29 O 0.7762 0.92467 0.17228 0.0
O30 O 0.75558 0.91588 0.19154 0.0
C31 C 0.76187 0.91249 0.12524 0.0
O32 O 0.7482 0.88841 0.15975 0.0
Co33 Co 0.77627 0.88199 0.12739 0.0
O34 O 0.7545 0.87401 0.12835 0.0
C35 C 0.78899 0.88177 0.17554 0.0
C36 C 0.76638 0.92653 0.18931 0.0
C37 C 0.74514 0.87748 0.14486 0.0
O38 O 0.77895 0.89224 0.18216 0.0
O39 O 0.79033 0.87728 0.15435 0.0
O40 O 0.7525 0.91872 0.14046 0.0
O41 O 0.77287 0.90389 0.13379 0.0
Co42 Co 0.09731 0.76346 0.1643 0.0
O43 O 0.07775 0.77411 0.17041 0.0
O44 O 0.08763 0.75552 0.19274 0.0
C45 C 0.09268 0.7591 0.12591 0.0
O46 O 0.11664 0.7491 0.16275 0.0
Co47 Co 0.1213 0.77724 0.1288 0.0
O48 O 0.13133 0.75638 0.13203 0.0
C49 C 0.11832 0.79153 0.17542 0.0
C50 C 0.07616 0.76518 0.18853 0.0
C51 C 0.12825 0.74694 0.14864 0.0
O52 O 0.10954 0.78007 0.18233 0.0
O53 O 0.12277 0.79318 0.15427 0.0
O54 O 0.08673 0.74981 0.14152 0.0
O55 O 0.09985 0.77119 0.13407 0.0
Co56 Co 0.2411 0.90862 0.33727 0.0
O57 O 0.22928 0.92704 0.32828 0.0
O58 O 0.24981 0.91792 0.30921 0.0
C59 C 0.24328 0.91505 0.37553 0.0
O60 O 0.25684 0.89061 0.34155 0.0
Co61 Co 0.22855 0.88476 0.37387 0.0
O62 O 0.25028 0.87661 0.37324 0.0
C63 C 0.21605 0.88424 0.3256 0.0
C64 C 0.23914 0.92872 0.31127 0.0
C65 C 0.25974 0.87983 0.35675 0.0
O66 O 0.22622 0.89454 0.31883 0.0
O67 O 0.21456 0.88001 0.34688 0.0
O68 O 0.25283 0.92102 0.36032 0.0
O69 O 0.23221 0.90654 0.367 0.0
Co70 Co 0.09606 0.24054 0.33806 0.0
O71 O 0.07732 0.22881 0.33063 0.0
O72 O 0.08652 0.24831 0.30946 0.0
C73 C 0.09017 0.24402 0.37629 0.0
O74 O 0.11443 0.25605 0.34078 0.0
Co75 Co 0.12008 0.22851 0.37494 0.0
O76 O 0.12846 0.25009 0.37274 0.0
C77 C 0.12005 0.21485 0.3274 0.0
C78 C 0.07554 0.23796 0.31279 0.0
C79 C 0.12535 0.25914 0.35569 0.0
O80 O 0.10969 0.22487 0.32032 0.0
O81 O 0.12452 0.21387 0.34864 0.0
O82 O 0.08413 0.25322 0.36064 0.0
O83 O 0.09837 0.23258 0.36824 0.0
Co84 Co 0.76577 0.09528 0.33764 0.0
O85 O 0.77688 0.07622 0.32991 0.0
O86 O 0.75705 0.08574 0.30969 0.0
C87 C 0.76271 0.09004 0.37612 0.0
O88 O 0.75091 0.11411 0.34085 0.0
Co89 Co 0.78004 0.11921 0.37276 0.0
O90 O 0.75902 0.12905 0.37083 0.0
C91 C 0.79301 0.11696 0.32526 0.0
C92 C 0.7673 0.07461 0.31253 0.0
C93 C 0.74904 0.12572 0.35504 0.0
O94 O 0.78138 0.10824 0.31883 0.0
O95 O 0.79531 0.12106 0.34643 0.0
O96 O 0.75318 0.08399 0.36093 0.0
O97 O 0.77438 0.09763 0.36744 0.0
Co98 Co 0.9083 0.76388 0.34074 0.0
O99 O 0.92768 0.77487 0.33449 0.0
O100 O 0.91829 0.75577 0.3127 0.0
C101 C 0.91286 0.76 0.3793 0.0
O102 O 0.88922 0.7492 0.34228 0.0
Co103 Co 0.88383 0.77742 0.37568 0.0
O104 O 0.8737 0.75666 0.37198 0.0
C105 C 0.88701 0.79155 0.32895 0.0
C106 C 0.92953 0.76574 0.31664 0.0
C107 C 0.87725 0.74712 0.35572 0.0
O108 O 0.8959 0.78012 0.32224 0.0
O109 O 0.88245 0.79325 0.35004 0.0
O110 O 0.91901 0.75066 0.36393 0.0
O111 O 0.90547 0.77186 0.37082 0.0
Co112 Co 0.76349 0.90818 0.83722 0.0
O113 O 0.77563 0.92656 0.82873 0.0
O114 O 0.75489 0.91806 0.80952 0.0
C115 C 0.76146 0.914 0.87579 0.0
O116 O 0.74743 0.89034 0.84082 0.0
Co117 Co 0.77541 0.88345 0.87309 0.0
O118 O 0.75339 0.87618 0.87262 0.0
C119 C 0.78751 0.88299 0.82454 0.0
C120 C 0.76574 0.92865 0.81182 0.0
C121 C 0.74415 0.87962 0.85595 0.0
O122 O 0.77803 0.89406 0.81825 0.0
O123 O 0.78874 0.87817 0.84558 0.0
O124 O 0.75207 0.92048 0.8608 0.0
O125 O 0.77232 0.9054 0.8669 0.0
Co126 Co 0.09962 0.76338 0.83939 0.0
O127 O 0.0797 0.77367 0.83445 0.0
O128 O 0.08965 0.75577 0.81098 0.0
C129 C 0.09574 0.75825 0.87779 0.0
O130 O 0.11928 0.74944 0.83956 0.0
Co131 Co 0.12396 0.77704 0.87444 0.0
O132 O 0.13481 0.7568 0.86932 0.0
C133 C 0.11966 0.79219 0.82866 0.0
C134 C 0.07804 0.76508 0.81598 0.0
C135 C 0.13146 0.74751 0.85265 0.0
O136 O 0.1111 0.78062 0.82159 0.0
O137 O 0.12445 0.79354 0.8497 0.0
O138 O 0.08974 0.7491 0.86204 0.0
O139 O 0.10254 0.77062 0.86984 0.0
Co140 Co 0.24058 0.09708 0.83821 0.0
O141 O 0.22906 0.07818 0.83081 0.0
O142 O 0.24883 0.08729 0.81009 0.0
C143 C 0.24354 0.09155 0.8767 0.0
O144 O 0.25593 0.11563 0.84094 0.0
Co145 Co 0.22767 0.12135 0.87398 0.0
O146 O 0.24875 0.13081 0.87116 0.0
C147 C 0.2139 0.11963 0.82668 0.0
C148 C 0.23846 0.0763 0.81328 0.0
C149 C 0.2583 0.12727 0.85491 0.0
O150 O 0.22493 0.11031 0.81976 0.0
O151 O 0.21236 0.12393 0.84792 0.0
O152 O 0.25301 0.08545 0.86145 0.0
O153 O 0.23219 0.09961 0.8681 0.0
Co154 Co 0.90937 0.24122 0.83668 0.0
O155 O 0.92821 0.22957 0.82959 0.0
O156 O 0.91917 0.24911 0.80833 0.0
C157 C 0.91477 0.2447 0.87505 0.0
O158 O 0.8909 0.25662 0.83923 0.0
Co159 Co 0.885 0.22855 0.87249 0.0
O160 O 0.87705 0.25039 0.87128 0.0
C161 C 0.8868 0.21449 0.82551 0.0
C162 C 0.93012 0.23875 0.81182 0.0
C163 C 0.8802 0.25967 0.85451 0.0
O164 O 0.89604 0.22557 0.81854 0.0
O165 O 0.88244 0.21293 0.84672 0.0
O166 O 0.92102 0.25387 0.85955 0.0
O167 O 0.90676 0.23319 0.86675 0.0
Co168 Co 0.76342 0.09772 0.66384 0.0
O169 O 0.77523 0.07897 0.67142 0.0
O170 O 0.75519 0.08782 0.69182 0.0
C171 C 0.76047 0.09229 0.62528 0.0
O172 O 0.74781 0.11599 0.66126 0.0
Co173 Co 0.77548 0.12235 0.6279 0.0
O174 O 0.75411 0.13118 0.63065 0.0
C175 C 0.78862 0.12188 0.67582 0.0
C176 C 0.76573 0.077 0.68883 0.0
C177 C 0.74492 0.1275 0.64728 0.0
O178 O 0.77868 0.1113 0.68241 0.0
O179 O 0.78979 0.12657 0.65471 0.0
O180 O 0.75117 0.08596 0.64054 0.0
O181 O 0.77174 0.10048 0.63387 0.0
Co182 Co 0.90889 0.76228 0.66718 0.0
O183 O 0.9281 0.77356 0.67368 0.0
O184 O 0.91905 0.75399 0.69491 0.0
C185 C 0.91335 0.75893 0.62849 0.0
O186 O 0.89016 0.74722 0.66543 0.0
Co187 Co 0.88391 0.7755 0.63278 0.0
O188 O 0.87505 0.75403 0.63495 0.0
C189 C 0.88725 0.78946 0.67957 0.0
C190 C 0.93012 0.76419 0.69124 0.0
C191 C 0.8787 0.74457 0.65128 0.0
O192 O 0.89621 0.77805 0.68611 0.0
O193 O 0.8826 0.79128 0.65854 0.0
O194 O 0.91978 0.74956 0.64356 0.0
O195 O 0.90574 0.77054 0.63732 0.0
Co196 Co 0.24083 0.9078 0.66326 0.0
O197 O 0.22938 0.92686 0.66992 0.0
O198 O 0.24873 0.91773 0.69147 0.0
C199 C 0.24442 0.91297 0.62478 0.0
O200 O 0.25604 0.88912 0.66144 0.0
Co201 Co 0.22841 0.88328 0.62749 0.0
O202 O 0.24944 0.87379 0.63111 0.0
C203 C 0.21445 0.88478 0.67476 0.0
C204 C 0.23852 0.92879 0.68774 0.0
C205 C 0.25864 0.87738 0.64776 0.0
O206 O 0.22489 0.89482 0.68151 0.0
O207 O 0.21334 0.88002 0.65367 0.0
O208 O 0.25371 0.91909 0.64023 0.0
O209 O 0.23286 0.90506 0.63312 0.0
Co210 Co 0.09936 0.24318 0.66342 0.0
O211 O 0.08015 0.23159 0.66849 0.0
O212 O 0.08888 0.25032 0.69159 0.0
C213 C 0.09514 0.24774 0.62493 0.0
O214 O 0.11792 0.25854 0.66337 0.0
Co215 Co 0.1249 0.2316 0.62872 0.0
O216 O 0.13526 0.25185 0.63549 0.0
C217 C 0.1213 0.21585 0.67425 0.0
C218 C 0.0779 0.24025 0.68677 0.0
C219 C 0.13057 0.261 0.65158 0.0
O220 O 0.11193 0.22678 0.68139 0.0
O221 O 0.12626 0.21504 0.65324 0.0
O222 O 0.08856 0.25659 0.64056 0.0
O223 O 0.10291 0.236 0.63303 0.0
Co224 Co 0.74068 0.59782 0.66595 0.0
O225 O 0.72857 0.57913 0.67242 0.0
O226 O 0.74806 0.58763 0.69428 0.0
C227 C 0.74428 0.59253 0.62751 0.0
O228 O 0.75663 0.61589 0.66424 0.0
Co229 Co 0.72964 0.62285 0.62995 0.0
O230 O 0.75161 0.63015 0.63216 0.0
C231 C 0.71515 0.62186 0.67696 0.0
C232 C 0.7376 0.57686 0.6903 0.0
C233 C 0.76036 0.62663 0.64937 0.0
O234 O 0.72511 0.61142 0.68395 0.0
O235 O 0.7145 0.6267 0.65586 0.0
O236 O 0.75323 0.58601 0.64304 0.0
O237 O 0.73301 0.60089 0.63574 0.0
Co238 Co 0.40805 0.74222 0.6643 0.0
O239 O 0.42719 0.73097 0.67118 0.0
O240 O 0.41763 0.75011 0.69276 0.0
C241 C 0.41339 0.74606 0.62597 0.0
O242 O 0.38923 0.75722 0.66227 0.0
Co243 Co 0.38391 0.72966 0.62808 0.0
O244 O 0.37437 0.7507 0.6314 0.0
C245 C 0.38564 0.71521 0.67495 0.0
C246 C 0.42883 0.74004 0.68914 0.0
C247 C 0.37771 0.75987 0.6482 0.0
O248 O 0.39513 0.72603 0.68213 0.0
O249 O 0.38117 0.71407 0.65374 0.0
O250 O 0.41933 0.75536 0.64158 0.0
O251 O 0.40561 0.73436 0.6341 0.0
Co252 Co 0.26615 0.40894 0.66296 0.0
O253 O 0.27741 0.42805 0.67008 0.0
O254 O 0.25774 0.41877 0.69086 0.0
C255 C 0.2631 0.41396 0.62438 0.0
O256 O 0.25101 0.39028 0.66061 0.0
Co257 Co 0.27925 0.38427 0.62808 0.0
O258 O 0.25797 0.37504 0.63038 0.0
C259 C 0.29313 0.38698 0.67509 0.0
C260 C 0.26796 0.42987 0.68759 0.0
C261 C 0.24846 0.3787 0.64661 0.0
O262 O 0.28184 0.39606 0.68172 0.0
O263 O 0.29484 0.38243 0.654 0.0
O264 O 0.25361 0.42018 0.63949 0.0
O265 O 0.27457 0.40612 0.63314 0.0
Co266 Co 0.597 0.26387 0.66684 0.0
O267 O 0.57794 0.27563 0.67231 0.0
O268 O 0.5866 0.25668 0.69507 0.0
C269 C 0.5924 0.25964 0.62837 0.0
O270 O 0.61546 0.24841 0.66642 0.0
Co271 Co 0.62245 0.27483 0.63153 0.0
O272 O 0.62983 0.25284 0.63424 0.0
C273 C 0.61962 0.29058 0.6774 0.0
C274 C 0.57567 0.26686 0.69048 0.0
C275 C 0.62627 0.24446 0.65183 0.0
O276 O 0.6099 0.28002 0.68468 0.0
O277 O 0.62469 0.29114 0.65641 0.0
O278 O 0.58587 0.25071 0.64395 0.0
O279 O 0.60042 0.27118 0.63653 0.0
Co280 Co 0.74245 0.40782 0.83892 0.0
O281 O 0.73023 0.42634 0.83182 0.0
O282 O 0.75008 0.4179 0.81066 0.0
C283 C 0.74548 0.41342 0.87736 0.0
O284 O 0.7585 0.38986 0.84127 0.0
Co285 Co 0.73135 0.38291 0.87502 0.0
O286 O 0.75357 0.37625 0.87399 0.0
C287 C 0.71734 0.38342 0.82762 0.0
C288 C 0.73942 0.42856 0.81412 0.0
C289 C 0.76236 0.37955 0.85672 0.0
O290 O 0.72718 0.39402 0.82074 0.0
O291 O 0.71663 0.37858 0.84871 0.0
O292 O 0.75462 0.41987 0.862 0.0
O293 O 0.73441 0.40487 0.86894 0.0
Co294 Co 0.59681 0.74171 0.84077 0.0
O295 O 0.57742 0.73068 0.83489 0.0
O296 O 0.58689 0.74938 0.81239 0.0
C297 C 0.59218 0.74607 0.87919 0.0
O298 O 0.61585 0.75647 0.84195 0.0
Co299 Co 0.62129 0.72881 0.87622 0.0
O300 O 0.63033 0.75013 0.8733 0.0
C301 C 0.6184 0.71408 0.82981 0.0
C302 C 0.5756 0.73954 0.81674 0.0
C303 C 0.62713 0.75927 0.85638 0.0
O304 O 0.60925 0.72523 0.82283 0.0
O305 O 0.62311 0.7128 0.8509 0.0
O306 O 0.58604 0.75522 0.86356 0.0
O307 O 0.59963 0.73414 0.87106 0.0
Co308 Co 0.26609 0.59739 0.8396 0.0
O309 O 0.27704 0.5781 0.83259 0.0
O310 O 0.2579 0.58792 0.81126 0.0
C311 C 0.26237 0.59212 0.87798 0.0
O312 O 0.25142 0.61643 0.84175 0.0
Co313 Co 0.27921 0.62134 0.87566 0.0
O314 O 0.25841 0.63141 0.87227 0.0
C315 C 0.29339 0.61932 0.82863 0.0
C316 C 0.26786 0.57659 0.81472 0.0
C317 C 0.24909 0.62813 0.85561 0.0
O318 O 0.28234 0.61008 0.82157 0.0
O319 O 0.29476 0.62373 0.84986 0.0
O320 O 0.25289 0.58634 0.86249 0.0
O321 O 0.27416 0.59971 0.86973 0.0
Co322 Co 0.40717 0.26388 0.84048 0.0
O323 O 0.42619 0.27536 0.83374 0.0
O324 O 0.41689 0.2562 0.81196 0.0
C325 C 0.4126 0.26002 0.87884 0.0
O326 O 0.38851 0.24866 0.8424 0.0
Co327 Co 0.38299 0.27623 0.87686 0.0
O328 O 0.37343 0.25526 0.87303 0.0
C329 C 0.38406 0.29033 0.82969 0.0
C330 C 0.42798 0.26637 0.81572 0.0
C331 C 0.37686 0.24608 0.85627 0.0
O332 O 0.39404 0.27992 0.82265 0.0
O333 O 0.37953 0.2914 0.85089 0.0
O334 O 0.41861 0.25082 0.86317 0.0
O335 O 0.40469 0.27165 0.87078 0.0
Co336 Co 0.2626 0.40658 0.33597 0.0
O337 O 0.27466 0.42496 0.32745 0.0
O338 O 0.25387 0.41647 0.30836 0.0
C339 C 0.26081 0.41245 0.3745 0.0
O340 O 0.24656 0.38875 0.33974 0.0
Co341 Co 0.27479 0.38184 0.37154 0.0
O342 O 0.25286 0.37431 0.37111 0.0
C343 C 0.28661 0.38146 0.32287 0.0
C344 C 0.26471 0.42707 0.31064 0.0
C345 C 0.24346 0.37787 0.35469 0.0
O346 O 0.27708 0.39254 0.31679 0.0
O347 O 0.28794 0.37653 0.34385 0.0
O348 O 0.25128 0.41884 0.35964 0.0
O349 O 0.27163 0.40382 0.36551 0.0
Co350 Co 0.59974 0.26182 0.34073 0.0
O351 O 0.58096 0.27342 0.33305 0.0
O352 O 0.59007 0.25359 0.3125 0.0
C353 C 0.59395 0.25887 0.37913 0.0
O354 O 0.61818 0.24637 0.34384 0.0
Co355 Co 0.62383 0.27457 0.37691 0.0
O356 O 0.63259 0.25315 0.37508 0.0
C357 C 0.62345 0.28758 0.329 0.0
C358 C 0.5791 0.26399 0.31554 0.0
C359 C 0.62936 0.24372 0.35854 0.0
O360 O 0.61322 0.27731 0.32235 0.0
O361 O 0.628 0.28894 0.35015 0.0
O362 O 0.58792 0.24945 0.36377 0.0
O363 O 0.6021 0.27022 0.37068 0.0
Co364 Co 0.74163 0.59772 0.33944 0.0
O365 O 0.73041 0.57848 0.3332 0.0
O366 O 0.74968 0.58759 0.31145 0.0
C367 C 0.74524 0.59308 0.37803 0.0
O368 O 0.75655 0.61662 0.34105 0.0
Co369 Co 0.72825 0.62239 0.37419 0.0
O370 O 0.74918 0.63218 0.37074 0.0
C371 C 0.71416 0.61919 0.32746 0.0
C372 C 0.73956 0.57648 0.31541 0.0
C373 C 0.75875 0.62854 0.35455 0.0
O374 O 0.72559 0.61029 0.32081 0.0
O375 O 0.71242 0.62375 0.34854 0.0
O376 O 0.75459 0.58682 0.36278 0.0
O377 O 0.73356 0.60068 0.36942 0.0
Co378 Co 0.40722 0.74249 0.33884 0.0
O379 O 0.42606 0.73086 0.33153 0.0
O380 O 0.41698 0.75053 0.31059 0.0
C381 C 0.41276 0.74583 0.37723 0.0
O382 O 0.38879 0.75795 0.34151 0.0
Co383 Co 0.38296 0.73003 0.37502 0.0
O384 O 0.37447 0.75157 0.37302 0.0
C385 C 0.38324 0.71697 0.32714 0.0
C386 C 0.42796 0.74018 0.31391 0.0
C387 C 0.37771 0.76083 0.35627 0.0
O388 O 0.3938 0.72691 0.32056 0.0
O389 O 0.37845 0.71582 0.34821 0.0
O390 O 0.4189 0.75509 0.36175 0.0
O391 O 0.40472 0.73434 0.36893 0.0
Co392 Co 0.26387 0.5974 0.16609 0.0
O393 O 0.27442 0.57781 0.17271 0.0
O394 O 0.25503 0.58751 0.1937 0.0
C395 C 0.26048 0.59303 0.1274 0.0
O396 O 0.24963 0.61681 0.16423 0.0
Co397 Co 0.27848 0.62165 0.13188 0.0
O398 O 0.25796 0.63239 0.13515 0.0
C399 C 0.29215 0.61746 0.17865 0.0
C400 C 0.26494 0.57617 0.19021 0.0
C401 C 0.24805 0.62894 0.15097 0.0
O402 O 0.28013 0.60933 0.18514 0.0
O403 O 0.29435 0.62187 0.15759 0.0
O404 O 0.25075 0.58708 0.1424 0.0
O405 O 0.27239 0.60011 0.13632 0.0
Co406 Co 0.40987 0.26303 0.16672 0.0
O407 O 0.4295 0.27361 0.17282 0.0
O408 O 0.41991 0.25458 0.19454 0.0
C409 C 0.41417 0.25936 0.12805 0.0
O410 O 0.39046 0.24879 0.16532 0.0
Co411 Co 0.38552 0.27738 0.13236 0.0
O412 O 0.37455 0.25707 0.13656 0.0
C413 C 0.38968 0.29133 0.17893 0.0
C414 C 0.43129 0.26437 0.19056 0.0
C415 C 0.37813 0.24725 0.15245 0.0
O416 O 0.39794 0.27942 0.18554 0.0
O417 O 0.38526 0.2934 0.15785 0.0
O418 O 0.42014 0.24974 0.14318 0.0
O419 O 0.40705 0.27129 0.1368 0.0
Co420 Co 0.74114 0.40783 0.16538 0.0
O421 O 0.73 0.42714 0.17154 0.0
O422 O 0.74905 0.41783 0.19353 0.0
C423 C 0.74502 0.41248 0.12686 0.0
O424 O 0.75606 0.38894 0.1639 0.0
Co425 Co 0.72806 0.38317 0.1304 0.0
O426 O 0.74933 0.374 0.1332 0.0
C427 C 0.71363 0.38628 0.17693 0.0
C428 C 0.73908 0.42903 0.18944 0.0
C429 C 0.75868 0.37747 0.14975 0.0
O430 O 0.72495 0.39527 0.18376 0.0
O431 O 0.7121 0.38165 0.15584 0.0
O432 O 0.75428 0.41872 0.14226 0.0
O433 O 0.73326 0.4049 0.13527 0.0
Co434 Co 0.59671 0.74131 0.16563 0.0
O435 O 0.57794 0.72979 0.17363 0.0
O436 O 0.58745 0.74944 0.1942 0.0
C437 C 0.59054 0.74467 0.12747 0.0
O438 O 0.61523 0.7566 0.16221 0.0
Co439 Co 0.62022 0.72861 0.12854 0.0
O440 O 0.62901 0.75004 0.13025 0.0
C441 C 0.62047 0.71539 0.17635 0.0
C442 C 0.57635 0.73915 0.19127 0.0
C443 C 0.62613 0.75934 0.1471 0.0
O444 O 0.61035 0.72565 0.18341 0.0
O445 O 0.62468 0.7141 0.15503 0.0
O446 O 0.58471 0.75396 0.14316 0.0
O447 O 0.59864 0.73314 0.13549 0.0
H448 H 0.3486 0.24372 0.13497 0.0
H449 H 0.33039 0.22218 0.14074 0.0
H450 H 0.36409 0.19861 0.18434 0.0
H451 H 0.38263 0.22038 0.17867 0.0
H452 H 0.35 0.17844 0.15229 0.0
H453 H 0.33325 0.21465 0.20957 0.0
H454 H 0.32495 0.23963 0.22729 0.0
H455 H 0.2856 0.24183 0.18082 0.0
H456 H 0.2938 0.21702 0.1625 0.0
H457 H 0.28551 0.12415 0.17636 0.0
H458 H 0.3076 0.14229 0.18226 0.0
H459 H 0.28538 0.17598 0.13711 0.0
H460 H 0.26356 0.15815 0.13103 0.0
H461 H 0.29562 0.18907 0.17844 0.0
H462 H 0.31535 0.15459 0.11774 0.0
H463 H 0.32309 0.12895 0.10161 0.0
H464 H 0.35669 0.12313 0.15661 0.0
H465 H 0.34898 0.14867 0.17326 0.0
C466 C 0.35226 0.23401 0.14583 0.0
C467 C 0.36717 0.23387 0.15636 0.0
C468 C 0.34173 0.22169 0.14922 0.0
C469 C 0.34575 0.20882 0.16319 0.0
C470 C 0.36069 0.20845 0.17357 0.0
C471 C 0.37125 0.22093 0.17035 0.0
C472 C 0.33428 0.1958 0.16631 0.0
C473 C 0.33821 0.18068 0.15852 0.0
C474 C 0.31883 0.19868 0.17427 0.0
C475 C 0.3142 0.21397 0.18459 0.0
C476 C 0.32293 0.22055 0.20293 0.0
C477 C 0.31822 0.23466 0.21313 0.0
C478 C 0.30472 0.24226 0.20525 0.0
C479 C 0.29602 0.23588 0.18696 0.0
C480 C 0.3007 0.2218 0.17666 0.0
C481 C 0.28537 0.13541 0.16766 0.0
C482 C 0.27271 0.13962 0.15319 0.0
C483 C 0.29802 0.14575 0.171 0.0
C484 C 0.29816 0.16052 0.16011 0.0
C485 C 0.28554 0.1647 0.14576 0.0
C486 C 0.27306 0.15439 0.14223 0.0
C487 C 0.31118 0.17194 0.16359 0.0
C488 C 0.30751 0.18677 0.17265 0.0
C489 C 0.32683 0.16875 0.15692 0.0
C490 C 0.33144 0.15343 0.14691 0.0
C491 C 0.32428 0.14777 0.12652 0.0
C492 C 0.32868 0.13327 0.11726 0.0
C493 C 0.34033 0.12439 0.12813 0.0
C494 C 0.34764 0.13001 0.14825 0.0
C495 C 0.34326 0.14449 0.1576 0.0
H496 H 0.34373 0.11317 0.12092 0.0
H497 H 0.30099 0.25309 0.21334 0.0
H498 H 0.87757 0.281 0.18303 0.0
H499 H 0.86037 0.30387 0.18815 0.0
H500 H 0.83966 0.29508 0.12088 0.0
H501 H 0.85673 0.27265 0.1155 0.0
H502 H 0.84501 0.32535 0.12594 0.0
H503 H 0.82181 0.28394 0.17276 0.0
H504 H 0.82178 0.26433 0.20435 0.0
H505 H 0.83061 0.30058 0.25454 0.0
H506 H 0.83087 0.32038 0.22318 0.0
H507 H 0.7692 0.35459 0.12047 0.0
H508 H 0.79218 0.33803 0.12449 0.0
H509 H 0.80388 0.36083 0.18919 0.0
H510 H 0.78057 0.37764 0.18538 0.0
H511 H 0.8068 0.3277 0.19097 0.0
H512 H 0.82508 0.36961 0.14312 0.0
H513 H 0.8239 0.38849 0.11065 0.0
H514 H 0.82361 0.35059 0.06146 0.0
H515 H 0.82456 0.33147 0.09364 0.0
C516 C 0.86943 0.28403 0.16928 0.0
C517 C 0.86853 0.27487 0.1489 0.0
C518 C 0.85954 0.29707 0.17228 0.0
C519 C 0.84859 0.30116 0.15497 0.0
C520 C 0.84799 0.29223 0.13449 0.0
C521 C 0.85778 0.2793 0.1315 0.0
C522 C 0.83743 0.31449 0.15787 0.0
C523 C 0.83667 0.32584 0.14018 0.0
C524 C 0.8268 0.31548 0.17678 0.0
C525 C 0.82656 0.3036 0.19562 0.0
C526 C 0.82386 0.28771 0.19051 0.0
C527 C 0.82378 0.27657 0.20837 0.0
C528 C 0.82624 0.2812 0.23142 0.0
C529 C 0.82874 0.297 0.23667 0.0
C530 C 0.82885 0.30819 0.21887 0.0
C531 C 0.77658 0.35619 0.13562 0.0
C532 C 0.77297 0.36756 0.15258 0.0
C533 C 0.78981 0.34669 0.13784 0.0
C534 C 0.79988 0.34828 0.15699 0.0
C535 C 0.79629 0.35944 0.1742 0.0
C536 C 0.783 0.36908 0.17195 0.0
C537 C 0.81406 0.33814 0.15858 0.0
C538 C 0.81539 0.32742 0.17705 0.0
C539 C 0.82518 0.33762 0.14028 0.0
C540 C 0.82483 0.3491 0.12083 0.0
C541 C 0.82469 0.3653 0.12538 0.0
C542 C 0.82406 0.37604 0.10703 0.0
C543 C 0.82366 0.37074 0.08401 0.0
C544 C 0.82393 0.35468 0.0793 0.0
C545 C 0.82454 0.34388 0.0976 0.0
H546 H 0.82317 0.37908 0.06983 0.0
H547 H 0.82618 0.27256 0.24522 0.0
H548 H 0.62383 0.78403 0.17829 0.0
H549 H 0.64197 0.80629 0.18252 0.0
H550 H 0.66998 0.78835 0.12603 0.0
H551 H 0.65211 0.76643 0.12149 0.0
H552 H 0.68762 0.79584 0.16513 0.0
H553 H 0.64703 0.81857 0.11683 0.0
H554 H 0.61997 0.82666 0.10775 0.0
H555 H 0.6195 0.85652 0.16795 0.0
H556 H 0.64651 0.84842 0.17756 0.0
H557 H 0.73606 0.85276 0.11783 0.0
H558 H 0.71402 0.83515 0.12353 0.0
H559 H 0.69915 0.86195 0.18317 0.0
H560 H 0.72153 0.87979 0.1778 0.0
H561 H 0.67381 0.8515 0.15077 0.0
H562 H 0.71587 0.83098 0.19622 0.0
H563 H 0.74312 0.82307 0.20424 0.0
H564 H 0.74081 0.78894 0.1494 0.0
H565 H 0.71361 0.79683 0.14078 0.0
C566 C 0.63381 0.78488 0.16671 0.0
C567 C 0.63647 0.77333 0.14962 0.0
C568 C 0.64415 0.79762 0.16913 0.0
C569 C 0.65738 0.79895 0.15464 0.0
C570 C 0.65993 0.78754 0.13751 0.0
C571 C 0.6496 0.77498 0.13492 0.0
C572 C 0.66892 0.81193 0.15726 0.0
C573 C 0.68458 0.808 0.162 0.0
C574 C 0.66491 0.82787 0.15384 0.0
C575 C 0.6487 0.83272 0.1481 0.0
C576 C 0.6411 0.82673 0.12827 0.0
C577 C 0.62578 0.83135 0.12299 0.0
C578 C 0.618 0.84205 0.13731 0.0
C579 C 0.62553 0.8482 0.1569 0.0
C580 C 0.64084 0.8436 0.16227 0.0
C581 C 0.72813 0.85508 0.13214 0.0
C582 C 0.73076 0.86769 0.14751 0.0
C583 C 0.71548 0.84495 0.13535 0.0
C584 C 0.70502 0.84713 0.15389 0.0
C585 C 0.70712 0.86004 0.16876 0.0
C586 C 0.71994 0.8702 0.16569 0.0
C587 C 0.69252 0.83529 0.15802 0.0
C588 C 0.67676 0.83939 0.15447 0.0
C589 C 0.69638 0.81945 0.16257 0.0
C590 C 0.71272 0.81458 0.16775 0.0
C591 C 0.72121 0.82188 0.18574 0.0
C592 C 0.73665 0.81738 0.19042 0.0
C593 C 0.74371 0.80553 0.17731 0.0
C594 C 0.73533 0.79813 0.15953 0.0
C595 C 0.71989 0.80259 0.15476 0.0
H596 H 0.75566 0.80206 0.18097 0.0
H597 H 0.60614 0.84562 0.13319 0.0
H598 H 0.24272 0.65678 0.12886 0.0
H599 H 0.22113 0.67495 0.13412 0.0
H600 H 0.20075 0.64445 0.18575 0.0
H601 H 0.22255 0.6259 0.18051 0.0
H602 H 0.17841 0.65613 0.15517 0.0
H603 H 0.2178 0.67774 0.20415 0.0
H604 H 0.24377 0.68735 0.21633 0.0
H605 H 0.24304 0.72162 0.16156 0.0
H606 H 0.21705 0.71218 0.14901 0.0
H607 H 0.12571 0.72203 0.1794 0.0
H608 H 0.1443 0.70025 0.18465 0.0
H609 H 0.17365 0.7194 0.13059 0.0
H610 H 0.15537 0.74089 0.12511 0.0
H611 H 0.19013 0.71212 0.17062 0.0
H612 H 0.15146 0.68829 0.11978 0.0
H613 H 0.12484 0.67944 0.10943 0.0
H614 H 0.12391 0.64954 0.16958 0.0
H615 H 0.15046 0.6584 0.18047 0.0
C616 C 0.23371 0.65381 0.14139 0.0
C617 C 0.2345 0.6398 0.15432 0.0
C618 C 0.22135 0.66433 0.14445 0.0
C619 C 0.20939 0.66123 0.16057 0.0
C620 C 0.20989 0.64715 0.17328 0.0
C621 C 0.22238 0.63657 0.1703 0.0
C622 C 0.19646 0.67283 0.16368 0.0
C623 C 0.18092 0.66832 0.15906 0.0
C624 C 0.19967 0.68878 0.16858 0.0
C625 C 0.21552 0.69418 0.17556 0.0
C626 C 0.22324 0.68722 0.19456 0.0
C627 C 0.23795 0.69267 0.20157 0.0
C628 C 0.24507 0.70507 0.18969 0.0
C629 C 0.23751 0.71202 0.17075 0.0
C630 C 0.22277 0.70665 0.16372 0.0
C631 C 0.1361 0.72156 0.16859 0.0
C632 C 0.13901 0.73332 0.1519 0.0
C633 C 0.14668 0.70908 0.17157 0.0
C634 C 0.16039 0.70821 0.15802 0.0
C635 C 0.16321 0.71985 0.14132 0.0
C636 C 0.15266 0.73216 0.1382 0.0
C637 C 0.17221 0.69554 0.16132 0.0
C638 C 0.18757 0.69989 0.16715 0.0
C639 C 0.16877 0.67949 0.15767 0.0
C640 C 0.15285 0.67415 0.1511 0.0
C641 C 0.14552 0.67994 0.13092 0.0
C642 C 0.13046 0.6749 0.12493 0.0
C643 C 0.12267 0.66398 0.13888 0.0
C644 C 0.12995 0.65803 0.15882 0.0
C645 C 0.145 0.66305 0.1649 0.0
H646 H 0.11101 0.66008 0.13421 0.0
H647 H 0.25642 0.70935 0.1952 0.0
H648 H 0.28348 0.88162 0.32398 0.0
H649 H 0.3067 0.86475 0.32084 0.0
H650 H 0.29175 0.8391 0.38165 0.0
H651 H 0.26899 0.85594 0.38524 0.0
H652 H 0.3218 0.84416 0.38427 0.0
H653 H 0.28634 0.82566 0.32371 0.0
H654 H 0.27054 0.8287 0.288 0.0
H655 H 0.31173 0.84192 0.24978 0.0
H656 H 0.32774 0.83913 0.28536 0.0
H657 H 0.35239 0.76906 0.38253 0.0
H658 H 0.33589 0.79206 0.37917 0.0
H659 H 0.36357 0.8085 0.32131 0.0
H660 H 0.38028 0.78506 0.32429 0.0
H661 H 0.33175 0.81224 0.31359 0.0
H662 H 0.3677 0.82582 0.3739 0.0
H663 H 0.38294 0.82166 0.40986 0.0
H664 H 0.34033 0.81719 0.44907 0.0
H665 H 0.32482 0.82109 0.4133 0.0
C666 C 0.28519 0.87244 0.33674 0.0
C667 C 0.27425 0.87017 0.35481 0.0
C668 C 0.29845 0.86274 0.33486 0.0
C669 C 0.30096 0.8505 0.35088 0.0
C670 C 0.29017 0.84844 0.36907 0.0
C671 C 0.27705 0.85811 0.37104 0.0
C672 C 0.31458 0.83958 0.34899 0.0
C673 C 0.32393 0.83718 0.3688 0.0
C674 C 0.3178 0.83079 0.32858 0.0
C675 C 0.30819 0.83237 0.30722 0.0
C676 C 0.292 0.82932 0.30772 0.0
C677 C 0.28301 0.83098 0.28751 0.0
C678 C 0.29012 0.83555 0.26665 0.0
C679 C 0.30624 0.83842 0.26596 0.0
C680 C 0.31528 0.83679 0.28613 0.0
C681 C 0.35512 0.77751 0.36906 0.0
C682 C 0.36783 0.77516 0.35378 0.0
C683 C 0.34563 0.79075 0.36723 0.0
C684 C 0.34862 0.8022 0.35027 0.0
C685 C 0.3611 0.79987 0.33464 0.0
C686 C 0.37066 0.78649 0.33642 0.0
C687 C 0.33846 0.81642 0.34921 0.0
C688 C 0.32983 0.81946 0.32887 0.0
C689 C 0.3358 0.82578 0.3692 0.0
C690 C 0.3451 0.8237 0.39086 0.0
C691 C 0.36157 0.82388 0.39017 0.0
C692 C 0.37026 0.82157 0.41053 0.0
C693 C 0.3626 0.81915 0.43173 0.0
C694 C 0.34624 0.81908 0.43264 0.0
C695 C 0.3375 0.82137 0.41233 0.0
H696 H 0.36935 0.81734 0.44747 0.0
H697 H 0.28314 0.83683 0.25103 0.0
H698 H 0.23356 0.35426 0.3832 0.0
H699 H 0.21155 0.3366 0.37778 0.0
H700 H 0.19818 0.36134 0.31545 0.0
H701 H 0.2205 0.37929 0.32061 0.0
H702 H 0.172 0.35178 0.34691 0.0
H703 H 0.21558 0.32988 0.30596 0.0
H704 H 0.24314 0.32197 0.3007 0.0
H705 H 0.23923 0.29005 0.35822 0.0
H706 H 0.2117 0.29797 0.36408 0.0
H707 H 0.12313 0.28289 0.32289 0.0
H708 H 0.14104 0.30525 0.31775 0.0
H709 H 0.16834 0.28949 0.37641 0.0
H710 H 0.15074 0.26746 0.38178 0.0
H711 H 0.18656 0.29579 0.33802 0.0
H712 H 0.1447 0.32 0.38218 0.0
H713 H 0.11736 0.32812 0.38911 0.0
H714 H 0.11803 0.35549 0.32634 0.0
H715 H 0.14533 0.34734 0.31888 0.0
C716 C 0.22595 0.35614 0.36836 0.0
C717 C 0.22899 0.36819 0.3522 0.0
C718 C 0.21332 0.34598 0.36533 0.0
C719 C 0.20332 0.34753 0.3461 0.0
C720 C 0.20578 0.35993 0.33041 0.0
C721 C 0.21857 0.37015 0.33336 0.0
C722 C 0.19099 0.33548 0.34213 0.0
C723 C 0.17512 0.33958 0.34439 0.0
C724 C 0.19508 0.31953 0.33914 0.0
C725 C 0.21159 0.3146 0.33554 0.0
C726 C 0.22062 0.32126 0.31759 0.0
C727 C 0.23624 0.31676 0.31449 0.0
C728 C 0.24294 0.30553 0.32914 0.0
C729 C 0.23402 0.29875 0.34689 0.0
C730 C 0.21841 0.30322 0.35009 0.0
C731 C 0.1329 0.28425 0.33476 0.0
C732 C 0.13547 0.27326 0.35268 0.0
C733 C 0.14311 0.29705 0.33181 0.0
C734 C 0.15608 0.29901 0.34665 0.0
C735 C 0.15849 0.28818 0.36465 0.0
C736 C 0.14832 0.27556 0.36772 0.0
C737 C 0.16756 0.31198 0.34348 0.0
C738 C 0.18335 0.30803 0.33993 0.0
C739 C 0.16335 0.32799 0.34533 0.0
C740 C 0.14697 0.33289 0.34981 0.0
C741 C 0.13896 0.32762 0.36973 0.0
C742 C 0.12349 0.33226 0.37379 0.0
C743 C 0.11594 0.34227 0.35813 0.0
C744 C 0.12387 0.34771 0.33842 0.0
C745 C 0.13935 0.34309 0.33428 0.0
H746 H 0.10396 0.34586 0.3613 0.0
H747 H 0.25503 0.30206 0.32671 0.0
H748 H 0.74362 0.15329 0.3777 0.0
H749 H 0.72077 0.17015 0.37552 0.0
H750 H 0.69928 0.13867 0.32622 0.0
H751 H 0.72255 0.12168 0.32786 0.0
H752 H 0.69454 0.16918 0.31388 0.0
H753 H 0.68722 0.13904 0.38305 0.0
H754 H 0.69506 0.12715 0.42044 0.0
H755 H 0.70274 0.17289 0.44945 0.0
H756 H 0.69518 0.18505 0.41214 0.0
H757 H 0.62557 0.21791 0.32967 0.0
H758 H 0.64277 0.19486 0.32672 0.0
H759 H 0.67344 0.21483 0.37856 0.0
H760 H 0.65637 0.23737 0.38203 0.0
H761 H 0.66937 0.18544 0.3879 0.0
H762 H 0.68111 0.21507 0.31739 0.0
H763 H 0.6744 0.22732 0.27976 0.0
H764 H 0.65881 0.18285 0.2535 0.0
H765 H 0.66527 0.17038 0.29109 0.0
C766 C 0.73409 0.14983 0.36634 0.0
C767 C 0.73495 0.13597 0.35308 0.0
C768 C 0.72094 0.15953 0.3652 0.0
C769 C 0.70811 0.15556 0.35109 0.0
C770 C 0.70899 0.14193 0.33737 0.0
C771 C 0.72228 0.13221 0.33837 0.0
C772 C 0.69391 0.16578 0.35104 0.0
C773 C 0.68881 0.17249 0.33001 0.0
C774 C 0.68645 0.17023 0.37207 0.0
C775 C 0.69066 0.16295 0.39475 0.0
C776 C 0.69063 0.14656 0.39738 0.0
C777 C 0.69501 0.13978 0.41857 0.0
C778 C 0.69936 0.14926 0.43732 0.0
C779 C 0.69932 0.16555 0.43493 0.0
C780 C 0.69496 0.1724 0.41378 0.0
C781 C 0.63598 0.21735 0.34044 0.0
C782 C 0.63949 0.22955 0.35611 0.0
C783 C 0.64585 0.20418 0.33868 0.0
C784 C 0.65952 0.20307 0.35235 0.0
C785 C 0.66296 0.21526 0.36792 0.0
C786 C 0.65312 0.22825 0.36982 0.0
C787 C 0.67045 0.18941 0.35088 0.0
C788 C 0.67489 0.18195 0.37169 0.0
C789 C 0.67731 0.18435 0.32968 0.0
C790 C 0.67349 0.19184 0.30711 0.0
C791 C 0.67615 0.20794 0.30364 0.0
C792 C 0.67241 0.21491 0.28231 0.0
C793 C 0.66614 0.20588 0.26428 0.0
C794 C 0.66364 0.18984 0.2675 0.0
C795 C 0.66734 0.18281 0.2888 0.0
H796 H 0.66325 0.2113 0.24778 0.0
H797 H 0.70279 0.14398 0.45369 0.0
H798 H 0.76415 0.65688 0.37498 0.0
H799 H 0.78601 0.67465 0.36912 0.0
H800 H 0.80684 0.64229 0.32051 0.0
H801 H 0.78469 0.62417 0.3262 0.0
H802 H 0.82864 0.65591 0.35379 0.0
H803 H 0.79101 0.6726 0.29794 0.0
H804 H 0.76481 0.6798 0.28333 0.0
H805 H 0.76289 0.7182 0.33157 0.0
H806 H 0.78898 0.71109 0.34674 0.0
H807 H 0.88187 0.7208 0.32834 0.0
H808 H 0.86374 0.69868 0.32273 0.0
H809 H 0.83049 0.72062 0.3689 0.0
H810 H 0.84832 0.74247 0.3747 0.0
H811 H 0.81676 0.71019 0.32829 0.0
H812 H 0.85228 0.69098 0.38771 0.0
H813 H 0.87819 0.68368 0.40333 0.0
H814 H 0.88403 0.6501 0.34831 0.0
H815 H 0.85822 0.65737 0.33217 0.0
C816 C 0.77333 0.65339 0.36304 0.0
C817 C 0.77254 0.63903 0.35099 0.0
C818 C 0.78585 0.66365 0.35968 0.0
C819 C 0.798 0.6599 0.34422 0.0
C820 C 0.79755 0.64545 0.33248 0.0
C821 C 0.78486 0.63514 0.33569 0.0
C822 C 0.81087 0.67142 0.34045 0.0
C823 C 0.82616 0.66767 0.34765 0.0
C824 C 0.80761 0.68684 0.33271 0.0
C825 C 0.79193 0.69125 0.32357 0.0
C826 C 0.78496 0.68251 0.30556 0.0
C827 C 0.77013 0.68659 0.29716 0.0
C828 C 0.76218 0.69944 0.30654 0.0
C829 C 0.76906 0.70825 0.32432 0.0
C830 C 0.78388 0.70422 0.33281 0.0
C831 C 0.8707 0.72089 0.33729 0.0
C832 C 0.86662 0.73347 0.35199 0.0
C833 C 0.86037 0.70822 0.33411 0.0
C834 C 0.84573 0.70799 0.34539 0.0
C835 C 0.84167 0.72054 0.35993 0.0
C836 C 0.85197 0.73304 0.3633 0.0
C837 C 0.83442 0.69484 0.3423 0.0
C838 C 0.81938 0.69833 0.33385 0.0
C839 C 0.83794 0.67923 0.34887 0.0
C840 C 0.85343 0.67487 0.35856 0.0
C841 C 0.85916 0.68215 0.37881 0.0
C842 C 0.87381 0.678 0.38779 0.0
C843 C 0.88278 0.66648 0.37677 0.0
C844 C 0.87709 0.65905 0.35679 0.0
C845 C 0.86245 0.66318 0.34773 0.0
H846 H 0.89412 0.66327 0.38376 0.0
H847 H 0.7507 0.70258 0.30001 0.0
H848 H 0.73121 0.86005 0.88816 0.0
H849 H 0.70983 0.84155 0.88295 0.0
H850 H 0.70284 0.85813 0.8128 0.0
H851 H 0.72442 0.87696 0.8179 0.0
H852 H 0.67416 0.85131 0.83717 0.0
H853 H 0.72232 0.82587 0.81833 0.0
H854 H 0.74994 0.81829 0.82403 0.0
H855 H 0.73781 0.79474 0.88762 0.0
H856 H 0.71014 0.80237 0.88247 0.0
H857 H 0.62862 0.77983 0.81909 0.0
H858 H 0.64687 0.80188 0.81397 0.0
H859 H 0.66672 0.79251 0.88163 0.0
H860 H 0.64889 0.77063 0.88674 0.0
H861 H 0.68924 0.79584 0.85023 0.0
H862 H 0.64162 0.8238 0.87091 0.0
H863 H 0.61405 0.8317 0.86548 0.0
H864 H 0.62514 0.85032 0.79797 0.0
H865 H 0.65275 0.84234 0.8029 0.0
C866 C 0.72509 0.85995 0.87163 0.0
C867 C 0.72974 0.86991 0.85333 0.0
C868 C 0.71283 0.84932 0.86869 0.0
C869 C 0.7049 0.84824 0.84736 0.0
C870 C 0.70885 0.85871 0.82939 0.0
C871 C 0.72119 0.86946 0.83234 0.0
C872 C 0.69326 0.83544 0.84381 0.0
C873 C 0.67748 0.83914 0.83957 0.0
C874 C 0.69755 0.81955 0.84703 0.0
C875 C 0.71416 0.81477 0.85007 0.0
C876 C 0.72555 0.81915 0.8336 0.0
C877 C 0.74122 0.81484 0.83673 0.0
C878 C 0.74563 0.80606 0.8562 0.0
C879 C 0.73437 0.80154 0.87255 0.0
C880 C 0.71869 0.80584 0.86952 0.0
C881 C 0.63681 0.78256 0.83292 0.0
C882 C 0.63731 0.77332 0.85326 0.0
C883 C 0.64722 0.79519 0.82999 0.0
C884 C 0.65823 0.79888 0.84741 0.0
C885 C 0.65846 0.78986 0.86784 0.0
C886 C 0.64818 0.77731 0.87074 0.0
C887 C 0.66998 0.8117 0.84453 0.0
C888 C 0.68589 0.80796 0.84747 0.0
C889 C 0.66576 0.82749 0.84006 0.0
C890 C 0.64919 0.83231 0.83715 0.0
C891 C 0.63815 0.82946 0.85483 0.0
C892 C 0.62252 0.83398 0.85186 0.0
C893 C 0.61783 0.84146 0.83136 0.0
C894 C 0.62878 0.84449 0.81382 0.0
C895 C 0.64441 0.83998 0.81669 0.0
H896 H 0.60573 0.84495 0.82909 0.0
H897 H 0.75777 0.80274 0.85859 0.0
H898 H 0.12685 0.72087 0.82599 0.0
H899 H 0.14516 0.69888 0.82055 0.0
H900 H 0.17905 0.72222 0.86414 0.0
H901 H 0.16107 0.74399 0.86961 0.0
H902 H 0.19275 0.71033 0.82552 0.0
H903 H 0.15669 0.69287 0.88524 0.0
H904 H 0.13067 0.68626 0.90113 0.0
H905 H 0.12441 0.65163 0.84767 0.0
H906 H 0.15033 0.6582 0.83127 0.0
H907 H 0.24379 0.65652 0.87601 0.0
H908 H 0.22232 0.67468 0.86922 0.0
H909 H 0.20179 0.64256 0.81998 0.0
H910 H 0.22354 0.62412 0.82652 0.0
H911 H 0.17981 0.65677 0.85318 0.0
H912 H 0.21849 0.67193 0.79762 0.0
H913 H 0.24516 0.67831 0.7841 0.0
H914 H 0.24689 0.71739 0.83112 0.0
H915 H 0.22032 0.71109 0.84523 0.0
C916 C 0.13824 0.72132 0.8343 0.0
C917 C 0.14241 0.73421 0.84833 0.0
C918 C 0.14867 0.70872 0.83125 0.0
C919 C 0.16349 0.70886 0.84201 0.0
C920 C 0.16773 0.72183 0.8556 0.0
C921 C 0.15734 0.73428 0.85881 0.0
C922 C 0.17469 0.69552 0.83975 0.0
C923 C 0.18989 0.69862 0.83154 0.0
C924 C 0.17091 0.68011 0.84704 0.0
C925 C 0.15534 0.67618 0.85684 0.0
C926 C 0.1497 0.68395 0.87674 0.0
C927 C 0.13498 0.68019 0.88587 0.0
C928 C 0.12586 0.66857 0.87537 0.0
C929 C 0.13146 0.66066 0.85575 0.0
C930 C 0.14617 0.66439 0.84653 0.0
C931 C 0.23474 0.65318 0.86376 0.0
C932 C 0.2355 0.6388 0.85174 0.0
C933 C 0.22246 0.66365 0.85986 0.0
C934 C 0.21052 0.66006 0.84396 0.0
C935 C 0.21092 0.64558 0.8323 0.0
C936 C 0.22338 0.63509 0.836 0.0
C937 C 0.19792 0.67175 0.83955 0.0
C938 C 0.18252 0.66837 0.84657 0.0
C939 C 0.20152 0.68696 0.83127 0.0
C940 C 0.21742 0.69097 0.82259 0.0
C941 C 0.22459 0.68183 0.8052 0.0
C942 C 0.23969 0.68544 0.79741 0.0
C943 C 0.24772 0.69824 0.80678 0.0
C944 C 0.24065 0.70748 0.82389 0.0
C945 C 0.22556 0.7039 0.83177 0.0
H946 H 0.25942 0.70101 0.80074 0.0
H947 H 0.11448 0.66567 0.88247 0.0
H948 H 0.38207 0.21951 0.82954 0.0
H949 H 0.36485 0.19649 0.82581 0.0
H950 H 0.33092 0.2187 0.87065 0.0
H951 H 0.34794 0.24126 0.87482 0.0
H952 H 0.33598 0.18979 0.88445 0.0
H953 H 0.32686 0.21525 0.80924 0.0
H954 H 0.33536 0.22517 0.77091 0.0
H955 H 0.35215 0.17937 0.75254 0.0
H956 H 0.3439 0.16923 0.79088 0.0
H957 H 0.26314 0.15599 0.87425 0.0
H958 H 0.28585 0.17288 0.87104 0.0
H959 H 0.30843 0.13924 0.82616 0.0
H960 H 0.28523 0.12212 0.82888 0.0
H961 H 0.31371 0.16905 0.81085 0.0
H962 H 0.32195 0.14287 0.88304 0.0
H963 H 0.31546 0.13201 0.92155 0.0
H964 H 0.302 0.17775 0.94555 0.0
H965 H 0.30866 0.18893 0.90715 0.0
C966 C 0.3709 0.21947 0.83849 0.0
C967 C 0.3665 0.23222 0.85265 0.0
C968 C 0.36104 0.20633 0.83628 0.0
C969 C 0.34653 0.20581 0.84795 0.0
C970 C 0.34207 0.21869 0.86162 0.0
C971 C 0.35188 0.23165 0.86398 0.0
C972 C 0.336 0.19184 0.84707 0.0
C973 C 0.33108 0.18535 0.86831 0.0
C974 C 0.3301 0.18543 0.82605 0.0
C975 C 0.33492 0.19153 0.80299 0.0
C976 C 0.33246 0.20733 0.79708 0.0
C977 C 0.33722 0.21299 0.77534 0.0
C978 C 0.34434 0.20292 0.75932 0.0
C979 C 0.34666 0.18716 0.76497 0.0
C980 C 0.34194 0.18145 0.78669 0.0
C981 C 0.27289 0.15203 0.8637 0.0
C982 C 0.27235 0.13752 0.85205 0.0
C983 C 0.28597 0.16176 0.86195 0.0
C984 C 0.29908 0.15723 0.84882 0.0
C985 C 0.29851 0.14295 0.83657 0.0
C986 C 0.28526 0.13317 0.83817 0.0
C987 C 0.31316 0.16763 0.84831 0.0
C988 C 0.3188 0.17336 0.82692 0.0
C989 C 0.31992 0.17331 0.86919 0.0
C990 C 0.31572 0.16669 0.89222 0.0
C991 C 0.31753 0.15059 0.8965 0.0
C992 C 0.31386 0.14439 0.91834 0.0
C993 C 0.30822 0.15415 0.936 0.0
C994 C 0.30636 0.17019 0.93187 0.0
C995 C 0.31017 0.17648 0.91011 0.0
H996 H 0.30535 0.14931 0.95289 0.0
H997 H 0.34802 0.20732 0.74251 0.0
H998 H 0.87498 0.27822 0.81581 0.0
H999 H 0.85668 0.30035 0.8125 0.0
H1000 H 0.8455 0.29598 0.8855 0.0
H1001 H 0.86332 0.27384 0.88876 0.0
H1002 H 0.8197 0.2975 0.86141 0.0
H1003 H 0.86829 0.32673 0.86204 0.0
H1004 H 0.89455 0.33398 0.84767 0.0
H1005 H 0.87499 0.34625 0.78122 0.0
H1006 H 0.84863 0.33888 0.79511 0.0
H1007 H 0.77849 0.36442 0.89082 0.0
H1008 H 0.80021 0.34615 0.88658 0.0
H1009 H 0.80114 0.35468 0.81258 0.0
H1010 H 0.77933 0.37337 0.81677 0.0
H1011 H 0.83134 0.35077 0.83143 0.0
H1012 H 0.78257 0.32308 0.8318 0.0
H1013 H 0.75631 0.31613 0.84644 0.0
H1014 H 0.77641 0.30075 0.91108 0.0
H1015 H 0.80278 0.30782 0.89695 0.0
C1016 C 0.86875 0.28212 0.83119 0.0
C1017 C 0.87053 0.27413 0.85249 0.0
C1018 C 0.8583 0.29481 0.8293 0.0
C1019 C 0.84963 0.29989 0.84875 0.0
C1020 C 0.85189 0.29225 0.87016 0.0
C1021 C 0.86214 0.27956 0.872 0.0
C1022 C 0.83753 0.3125 0.84695 0.0
C1023 C 0.82235 0.30918 0.85505 0.0
C1024 C 0.8407 0.32762 0.83784 0.0
C1025 C 0.85653 0.33208 0.82952 0.0
C1026 C 0.86961 0.33085 0.8443 0.0
C1027 C 0.88451 0.33501 0.83626 0.0
C1028 C 0.88645 0.34053 0.81352 0.0
C1029 C 0.87348 0.34195 0.79881 0.0
C1030 C 0.85856 0.33779 0.80676 0.0
C1031 C 0.78338 0.36258 0.87362 0.0
C1032 C 0.77698 0.3702 0.85407 0.0
C1033 C 0.79583 0.3521 0.87123 0.0
C1034 C 0.80211 0.34874 0.84919 0.0
C1035 C 0.79642 0.35701 0.82975 0.0
C1036 C 0.78396 0.36768 0.83216 0.0
C1037 C 0.81378 0.33584 0.84667 0.0
C1038 C 0.82875 0.33905 0.83763 0.0
C1039 C 0.81047 0.32054 0.85491 0.0
C1040 C 0.79464 0.31608 0.86336 0.0
C1041 C 0.78138 0.3183 0.84918 0.0
C1042 C 0.76648 0.31433 0.85739 0.0
C1043 C 0.76469 0.30803 0.87969 0.0
C1044 C 0.77781 0.30564 0.89381 0.0
C1045 C 0.79274 0.30961 0.8857 0.0
H1046 H 0.75314 0.30497 0.88602 0.0
H1047 H 0.89799 0.34374 0.80733 0.0
H1048 H 0.63843 0.22487 0.61917 0.0
H1049 H 0.65604 0.20259 0.62518 0.0
H1050 H 0.65377 0.20968 0.69941 0.0
H1051 H 0.63562 0.23178 0.69355 0.0
H1052 H 0.68607 0.20843 0.67517 0.0
H1053 H 0.63866 0.17987 0.68764 0.0
H1054 H 0.61172 0.17133 0.67879 0.0
H1055 H 0.62732 0.15159 0.61403 0.0
H1056 H 0.65434 0.16024 0.62232 0.0
H1057 H 0.72085 0.12377 0.6791 0.0
H1058 H 0.6987 0.14161 0.68608 0.0
H1059 H 0.71527 0.17196 0.63138 0.0
H1060 H 0.73717 0.1544 0.62419 0.0
H1061 H 0.67452 0.15299 0.65531 0.0
H1062 H 0.7118 0.20946 0.65025 0.0
H1063 H 0.73888 0.21791 0.65845 0.0
H1064 H 0.74341 0.18174 0.71 0.0
H1065 H 0.71627 0.17322 0.70238 0.0
C1066 C 0.64148 0.22155 0.63681 0.0
C1067 C 0.63564 0.23007 0.6559 0.0
C1068 C 0.65153 0.2088 0.6402 0.0
C1069 C 0.6562 0.20449 0.66272 0.0
C1070 C 0.65024 0.21281 0.6819 0.0
C1071 C 0.63984 0.22536 0.67853 0.0
C1072 C 0.66809 0.19193 0.66575 0.0
C1073 C 0.68352 0.19628 0.67112 0.0
C1074 C 0.66472 0.17607 0.66062 0.0
C1075 C 0.64851 0.17082 0.65553 0.0
C1076 C 0.63633 0.17384 0.67141 0.0
C1077 C 0.62104 0.16895 0.66652 0.0
C1078 C 0.6178 0.16095 0.64584 0.0
C1079 C 0.62985 0.1578 0.63003 0.0
C1080 C 0.64515 0.16268 0.63484 0.0
C1081 C 0.71973 0.1342 0.66848 0.0
C1082 C 0.7309 0.13762 0.65114 0.0
C1083 C 0.70704 0.14436 0.67247 0.0
C1084 C 0.70544 0.15821 0.65944 0.0
C1085 C 0.71637 0.16145 0.64185 0.0
C1086 C 0.7289 0.15131 0.63773 0.0
C1087 C 0.69259 0.16958 0.66412 0.0
C1088 C 0.67702 0.16507 0.65992 0.0
C1089 C 0.69582 0.18531 0.67039 0.0
C1090 C 0.71201 0.19065 0.67563 0.0
C1091 C 0.71852 0.20338 0.66346 0.0
C1092 C 0.7339 0.20817 0.66798 0.0
C1093 C 0.74287 0.20035 0.68469 0.0
C1094 C 0.73646 0.18777 0.69702 0.0
C1095 C 0.72108 0.18294 0.69258 0.0
H1096 H 0.75478 0.20405 0.68809 0.0
H1097 H 0.60596 0.15717 0.64209 0.0
H1098 H 0.77958 0.62883 0.68807 0.0
H1099 H 0.80268 0.64577 0.6929 0.0
H1100 H 0.79714 0.6624 0.62245 0.0
H1101 H 0.77441 0.6456 0.61743 0.0
H1102 H 0.82732 0.65683 0.63156 0.0
H1103 H 0.78405 0.68353 0.66967 0.0
H1104 H 0.76285 0.68604 0.69864 0.0
H1105 H 0.79613 0.68022 0.75408 0.0
H1106 H 0.81751 0.67748 0.72539 0.0
H1107 H 0.85826 0.73209 0.61983 0.0
H1108 H 0.84152 0.7092 0.62418 0.0
H1109 H 0.85992 0.70134 0.69313 0.0
H1110 H 0.87691 0.72446 0.68892 0.0
H1111 H 0.82697 0.69911 0.69088 0.0
H1112 H 0.8709 0.67712 0.65181 0.0
H1113 H 0.89176 0.67557 0.62219 0.0
H1114 H 0.85714 0.6729 0.56807 0.0
H1115 H 0.83605 0.67467 0.59733 0.0
C1116 C 0.78339 0.63599 0.67356 0.0
C1117 C 0.77502 0.6359 0.65242 0.0
C1118 C 0.79655 0.64573 0.67638 0.0
C1119 C 0.8016 0.65549 0.65809 0.0
C1120 C 0.79353 0.655 0.63683 0.0
C1121 C 0.78042 0.6454 0.63404 0.0
C1122 C 0.81496 0.66663 0.66083 0.0
C1123 C 0.82723 0.66607 0.64454 0.0
C1124 C 0.81516 0.67844 0.67819 0.0
C1125 C 0.80233 0.68009 0.6954 0.0
C1126 C 0.78682 0.68265 0.68804 0.0
C1127 C 0.77478 0.68414 0.7044 0.0
C1128 C 0.77814 0.68323 0.72819 0.0
C1129 C 0.79355 0.68088 0.73565 0.0
C1130 C 0.80563 0.67936 0.71935 0.0
C1131 C 0.85885 0.72553 0.63596 0.0
C1132 C 0.86899 0.73018 0.65403 0.0
C1133 C 0.84928 0.71235 0.63836 0.0
C1134 C 0.84954 0.70344 0.6589 0.0
C1135 C 0.85956 0.70801 0.67709 0.0
C1136 C 0.86931 0.72119 0.67461 0.0
C1137 C 0.839 0.68959 0.6611 0.0
C1138 C 0.82728 0.68965 0.67827 0.0
C1139 C 0.83925 0.67733 0.64449 0.0
C1140 C 0.85189 0.67612 0.62679 0.0
C1141 C 0.86773 0.67631 0.63358 0.0
C1142 C 0.87959 0.67537 0.61686 0.0
C1143 C 0.87577 0.67416 0.59326 0.0
C1144 C 0.86008 0.67384 0.58635 0.0
C1145 C 0.84816 0.67478 0.60301 0.0
H1146 H 0.88498 0.67344 0.58034 0.0
H1147 H 0.7688 0.68439 0.74083 0.0
H1148 H 0.285 0.88267 0.67483 0.0
H1149 H 0.30737 0.86485 0.68073 0.0
H1150 H 0.28554 0.83075 0.63582 0.0
H1151 H 0.26348 0.84826 0.62975 0.0
H1152 H 0.29641 0.81766 0.67664 0.0
H1153 H 0.31463 0.85272 0.61583 0.0
H1154 H 0.32155 0.87852 0.59942 0.0
H1155 H 0.35563 0.88525 0.65353 0.0
H1156 H 0.34875 0.85955 0.67046 0.0
H1157 H 0.34951 0.76565 0.62755 0.0
H1158 H 0.33177 0.7875 0.63394 0.0
H1159 H 0.36406 0.80761 0.6833 0.0
H1160 H 0.38209 0.78543 0.67721 0.0
H1161 H 0.35022 0.82972 0.64917 0.0
H1162 H 0.3346 0.79237 0.70615 0.0
H1163 H 0.32783 0.7662 0.72129 0.0
H1164 H 0.28881 0.76368 0.67422 0.0
H1165 H 0.2955 0.78974 0.65851 0.0
C1166 C 0.28499 0.87137 0.66623 0.0
C1167 C 0.27241 0.86697 0.65175 0.0
C1168 C 0.2978 0.86122 0.66957 0.0
C1169 C 0.29813 0.84644 0.65871 0.0
C1170 C 0.28554 0.84204 0.64446 0.0
C1171 C 0.27293 0.85217 0.64091 0.0
C1172 C 0.31143 0.83532 0.66185 0.0
C1173 C 0.30818 0.82033 0.67068 0.0
C1174 C 0.32692 0.8389 0.65472 0.0
C1175 C 0.33102 0.85433 0.64459 0.0
C1176 C 0.32349 0.85978 0.62437 0.0
C1177 C 0.32742 0.87436 0.61494 0.0
C1178 C 0.33898 0.88355 0.62548 0.0
C1179 C 0.34665 0.87814 0.64543 0.0
C1180 C 0.34274 0.86357 0.65494 0.0
C1181 C 0.35299 0.77467 0.63976 0.0
C1182 C 0.36728 0.77367 0.65194 0.0
C1183 C 0.34275 0.78719 0.64341 0.0
C1184 C 0.34652 0.79914 0.65921 0.0
C1185 C 0.36092 0.79849 0.67105 0.0
C1186 C 0.37117 0.78578 0.66761 0.0
C1187 C 0.33503 0.81197 0.66331 0.0
C1188 C 0.33857 0.82721 0.65575 0.0
C1189 C 0.31977 0.80865 0.67161 0.0
C1190 C 0.31562 0.79298 0.68106 0.0
C1191 C 0.32465 0.78619 0.69889 0.0
C1192 C 0.32081 0.77137 0.7076 0.0
C1193 C 0.30791 0.76327 0.6987 0.0
C1194 C 0.2988 0.76997 0.68109 0.0
C1195 C 0.3026 0.78477 0.6723 0.0
H1196 H 0.30495 0.7518 0.70546 0.0
H1197 H 0.34202 0.89483 0.61815 0.0
H1198 H 0.16231 0.26231 0.65266 0.0
H1199 H 0.17896 0.28547 0.65727 0.0
H1200 H 0.13792 0.31442 0.66523 0.0
H1201 H 0.12109 0.29104 0.6615 0.0
H1202 H 0.16398 0.32149 0.62649 0.0
H1203 H 0.15362 0.31611 0.70796 0.0
H1204 H 0.15123 0.30183 0.7451 0.0
H1205 H 0.19999 0.28953 0.74203 0.0
H1206 H 0.20261 0.30353 0.70463 0.0
H1207 H 0.22506 0.38114 0.67972 0.0
H1208 H 0.20191 0.3643 0.68423 0.0
H1209 H 0.21663 0.33687 0.62509 0.0
H1210 H 0.23944 0.35359 0.62023 0.0
H1211 H 0.19913 0.33329 0.69307 0.0
H1212 H 0.18585 0.32326 0.59522 0.0
H1213 H 0.18785 0.33739 0.55789 0.0
H1214 H 0.18527 0.3814 0.59392 0.0
H1215 H 0.18301 0.36754 0.63146 0.0
C1216 C 0.15682 0.27357 0.65577 0.0
C1217 C 0.14041 0.27489 0.65674 0.0
C1218 C 0.16635 0.28677 0.65845 0.0
C1219 C 0.15967 0.30162 0.66164 0.0
C1220 C 0.14328 0.30302 0.66293 0.0
C1221 C 0.13371 0.28969 0.66088 0.0
C1222 C 0.17 0.31564 0.66177 0.0
C1223 C 0.17156 0.32423 0.6411 0.0
C1224 C 0.17976 0.31922 0.68093 0.0
C1225 C 0.17826 0.31074 0.70336 0.0
C1226 C 0.16379 0.31021 0.71506 0.0
C1227 C 0.16241 0.3022 0.73619 0.0
C1228 C 0.17544 0.29474 0.74589 0.0
C1229 C 0.18989 0.2953 0.73448 0.0
C1230 C 0.19134 0.30328 0.71332 0.0
C1231 C 0.22331 0.37158 0.66759 0.0
C1232 C 0.23416 0.36883 0.64955 0.0
C1233 C 0.21008 0.36194 0.67023 0.0
C1234 C 0.20736 0.34943 0.6548 0.0
C1235 C 0.21824 0.34662 0.63694 0.0
C1236 C 0.23138 0.3562 0.63427 0.0
C1237 C 0.19346 0.33896 0.65748 0.0
C1238 C 0.19135 0.33087 0.67858 0.0
C1239 C 0.18313 0.33585 0.63868 0.0
C1240 C 0.18433 0.34434 0.61618 0.0
C1241 C 0.18561 0.33595 0.59518 0.0
C1242 C 0.18681 0.34391 0.57398 0.0
C1243 C 0.18668 0.36028 0.57353 0.0
C1244 C 0.18538 0.36872 0.59429 0.0
C1245 C 0.18416 0.36082 0.61555 0.0
H1246 H 0.18758 0.36639 0.55708 0.0
H1247 H 0.17435 0.28855 0.76227 0.0
H1248 H 0.22814 0.10756 0.09257 0.0
H1249 H 0.23021 0.10444 0.05056 0.0
H1250 H 0.26864 0.07219 0.0597 0.0
H1251 H 0.26681 0.07552 0.10219 0.0
H1252 H 0.27385 0.09247 0.02334 0.0
H1253 H 0.23263 0.05814 0.04694 0.0
H1254 H 0.20839 0.05066 0.06752 0.0
H1255 H 0.18252 0.08497 0.02859 0.0
H1256 H 0.20664 0.09281 0.008 0.0
H1257 H 0.26561 0.07434 0.90071 0.0
H1258 H 0.26801 0.07155 0.94319 0.0
H1259 H 0.22855 0.10254 0.95252 0.0
H1260 H 0.22594 0.1051 0.91051 0.0
H1261 H 0.2257 0.0779 0.97999 0.0
H1262 H 0.26702 0.11429 0.9601 0.0
H1263 H 0.29093 0.12232 0.93941 0.0
H1264 H 0.31652 0.08474 0.97154 0.0
H1265 H 0.29254 0.07621 0.992 0.0
C1266 C 0.2371 0.09984 0.08573 0.0
C1267 C 0.24724 0.09169 0.10075 0.0
C1268 C 0.23822 0.09801 0.06165 0.0
C1269 C 0.24937 0.08783 0.05195 0.0
C1270 C 0.25988 0.08002 0.06681 0.0
C1271 C 0.25881 0.08191 0.09106 0.0
C1272 C 0.24971 0.08536 0.02629 0.0
C1273 C 0.26342 0.08897 0.01386 0.0
C1274 C 0.23607 0.08094 0.01387 0.0
C1275 C 0.22147 0.07611 0.026 0.0
C1276 C 0.22179 0.06414 0.04285 0.0
C1277 C 0.20807 0.05984 0.05451 0.0
C1278 C 0.19393 0.06735 0.04939 0.0
C1279 C 0.19348 0.07915 0.03254 0.0
C1280 C 0.20717 0.08352 0.02084 0.0
C1281 C 0.25749 0.08056 0.91187 0.0
C1282 C 0.2456 0.08996 0.90223 0.0
C1283 C 0.25889 0.07898 0.93614 0.0
C1284 C 0.24848 0.08688 0.95112 0.0
C1285 C 0.23667 0.09626 0.9414 0.0
C1286 C 0.23524 0.09778 0.9173 0.0
C1287 C 0.24966 0.08555 0.97694 0.0
C1288 C 0.23622 0.08115 0.98944 0.0
C1289 C 0.26352 0.08928 0.98936 0.0
C1290 C 0.27796 0.0945 0.97733 0.0
C1291 C 0.27771 0.10766 0.96261 0.0
C1292 C 0.2913 0.11232 0.95094 0.0
C1293 C 0.30527 0.10405 0.95414 0.0
C1294 C 0.30568 0.09111 0.96905 0.0
C1295 C 0.29209 0.08635 0.98066 0.0
H1296 H 0.3158 0.10766 0.94511 0.0
H1297 H 0.18332 0.064 0.05845 0.0
H1298 H 0.89968 0.22876 0.90932 0.0
H1299 H 0.9005 0.23344 0.95112 0.0
H1300 H 0.93258 0.27184 0.94061 0.0
H1301 H 0.93176 0.26724 0.89829 0.0
H1302 H 0.94122 0.25142 0.97767 0.0
H1303 H 0.89693 0.28089 0.95351 0.0
H1304 H 0.87238 0.28569 0.93205 0.0
H1305 H 0.84964 0.24909 0.97067 0.0
H1306 H 0.87415 0.24386 0.99208 0.0
H1307 H 0.93024 0.26706 0.10049 0.0
H1308 H 0.93172 0.27141 0.05819 0.0
H1309 H 0.89814 0.23435 0.04725 0.0
H1310 H 0.89666 0.22995 0.0891 0.0
H1311 H 0.89148 0.25997 0.02062 0.0
H1312 H 0.93676 0.22794 0.03945 0.0
H1313 H 0.96157 0.22208 0.0597 0.0
H1314 H 0.9824 0.2635 0.0306 0.0
H1315 H 0.95762 0.26971 0.01041 0.0
C1316 C 0.90691 0.23824 0.91578 0.0
C1317 C 0.91559 0.24769 0.90044 0.0
C1318 C 0.90733 0.24092 0.93973 0.0
C1319 C 0.91647 0.25309 0.94898 0.0
C1320 C 0.92541 0.26241 0.93381 0.0
C1321 C 0.92489 0.25981 0.90967 0.0
C1322 C 0.91647 0.25583 0.97454 0.0
C1323 C 0.93043 0.25368 0.98707 0.0
C1324 C 0.90234 0.25861 0.98678 0.0
C1325 C 0.88743 0.26192 0.97433 0.0
C1326 C 0.88673 0.2738 0.95735 0.0
C1327 C 0.87281 0.2766 0.94518 0.0
C1328 C 0.85946 0.26768 0.94996 0.0
C1329 C 0.85999 0.25598 0.96698 0.0
C1330 C 0.87389 0.25311 0.97916 0.0
C1331 C 0.92316 0.2599 0.08903 0.0
C1332 C 0.91336 0.24815 0.09816 0.0
C1333 C 0.92403 0.26237 0.06488 0.0
C1334 C 0.91506 0.25317 0.04953 0.0
C1335 C 0.90511 0.24164 0.05872 0.0
C1336 C 0.90433 0.2391 0.0827 0.0
C1337 C 0.91615 0.2551 0.02381 0.0
C1338 C 0.90235 0.2581 0.01124 0.0
C1339 C 0.93042 0.25313 0.01156 0.0
C1340 C 0.94529 0.2494 0.02368 0.0
C1341 C 0.94659 0.23587 0.03755 0.0
C1342 C 0.96065 0.23247 0.04897 0.0
C1343 C 0.97354 0.24244 0.04651 0.0
C1344 C 0.9724 0.25581 0.03254 0.0
C1345 C 0.95835 0.25928 0.0211 0.0
H1346 H 0.98442 0.23978 0.05536 0.0
H1347 H 0.84871 0.26985 0.9405 0.0
H1348 H 0.74053 0.93222 0.90031 0.0
H1349 H 0.73714 0.93335 0.94283 0.0
H1350 H 0.77365 0.89887 0.95128 0.0
H1351 H 0.77717 0.89779 0.90922 0.0
H1352 H 0.7479 0.89227 0.97826 0.0
H1353 H 0.78128 0.93657 0.96085 0.0
H1354 H 0.78811 0.96149 0.94163 0.0
H1355 H 0.74785 0.98353 0.97232 0.0
H1356 H 0.74067 0.95865 0.99149 0.0
H1357 H 0.77802 0.89745 0.09107 0.0
H1358 H 0.77421 0.89914 0.0491 0.0
H1359 H 0.73681 0.93244 0.05921 0.0
H1360 H 0.74052 0.93073 0.10165 0.0
H1361 H 0.75804 0.9409 0.0232 0.0
H1362 H 0.72694 0.89709 0.04524 0.0
H1363 H 0.72126 0.87229 0.06556 0.0
H1364 H 0.75743 0.8492 0.0265 0.0
H1365 H 0.76355 0.87395 0.00625 0.0
C1366 C 0.74781 0.92489 0.91127 0.0
C1367 C 0.75911 0.91491 0.90136 0.0
C1368 C 0.74588 0.92556 0.93555 0.0
C1369 C 0.75515 0.91619 0.95026 0.0
C1370 C 0.76631 0.90615 0.94031 0.0
C1371 C 0.76834 0.90559 0.9162 0.0
C1372 C 0.75355 0.91682 0.97605 0.0
C1373 C 0.75014 0.9029 0.98808 0.0
C1374 C 0.75605 0.93077 0.98888 0.0
C1375 C 0.76032 0.94571 0.97733 0.0
C1376 C 0.7738 0.94669 0.96331 0.0
C1377 C 0.77775 0.96082 0.95247 0.0
C1378 C 0.76838 0.97407 0.95568 0.0
C1379 C 0.75507 0.97324 0.9698 0.0
C1380 C 0.75105 0.95913 0.98066 0.0
C1381 C 0.76895 0.90513 0.08447 0.0
C1382 C 0.7595 0.91389 0.09973 0.0
C1383 C 0.76677 0.90606 0.06042 0.0
C1384 C 0.75512 0.91579 0.05101 0.0
C1385 C 0.74584 0.92482 0.06612 0.0
C1386 C 0.74793 0.92379 0.09033 0.0
C1387 C 0.75277 0.91626 0.02535 0.0
C1388 C 0.75546 0.93035 0.01337 0.0
C1389 C 0.74961 0.90245 0.01252 0.0
C1390 C 0.74578 0.88743 0.02432 0.0
C1391 C 0.73376 0.88676 0.04108 0.0
C1392 C 0.73045 0.8727 0.05259 0.0
C1393 C 0.73899 0.85918 0.04735 0.0
C1394 C 0.75083 0.85969 0.03054 0.0
C1395 C 0.75421 0.87373 0.01903 0.0
H1396 H 0.73642 0.84832 0.05629 0.0
H1397 H 0.77147 0.985 0.94728 0.0
H1398 H 0.08107 0.73388 0.90048 0.0
H1399 H 0.0802 0.7291 0.94271 0.0
H1400 H 0.10876 0.7701 0.95418 0.0
H1401 H 0.10973 0.77485 0.9124 0.0
H1402 H 0.11856 0.74598 0.98078 0.0
H1403 H 0.06891 0.77088 0.96142 0.0
H1404 H 0.04356 0.77273 0.94096 0.0
H1405 H 0.02936 0.72864 0.97023 0.0
H1406 H 0.05473 0.72645 0.99064 0.0
H1407 H 0.10607 0.7763 0.09147 0.0
H1408 H 0.1061 0.77114 0.04979 0.0
H1409 H 0.07869 0.72933 0.0608 0.0
H1410 H 0.07858 0.73448 0.103 0.0
H1411 H 0.06796 0.74739 0.02332 0.0
H1412 H 0.11602 0.72512 0.04842 0.0
H1413 H 0.14098 0.72418 0.06999 0.0
H1414 H 0.15825 0.7632 0.03035 0.0
H1415 H 0.13327 0.76458 0.00884 0.0
C1416 C 0.08721 0.74181 0.91205 0.0
C1417 C 0.09543 0.75476 0.90309 0.0
C1418 C 0.08668 0.73909 0.93616 0.0
C1419 C 0.09436 0.74929 0.95166 0.0
C1420 C 0.10279 0.76203 0.94262 0.0
C1421 C 0.10328 0.76476 0.91867 0.0
C1422 C 0.09345 0.74719 0.97737 0.0
C1423 C 0.10749 0.74629 0.99007 0.0
C1424 C 0.079 0.74706 0.98953 0.0
C1425 C 0.06378 0.7484 0.97729 0.0
C1426 C 0.06043 0.76152 0.96333 0.0
C1427 C 0.04605 0.76264 0.95178 0.0
C1428 C 0.03488 0.75078 0.95423 0.0
C1429 C 0.03804 0.7378 0.9683 0.0
C1430 C 0.05241 0.73661 0.97986 0.0
C1431 C 0.10006 0.76596 0.08514 0.0
C1432 C 0.09239 0.75574 0.10059 0.0
C1433 C 0.10013 0.76301 0.06125 0.0
C1434 C 0.09259 0.74973 0.05218 0.0
C1435 C 0.08465 0.7396 0.06746 0.0
C1436 C 0.08463 0.74253 0.09153 0.0
C1437 C 0.09308 0.74676 0.02667 0.0
C1438 C 0.079 0.74669 0.01403 0.0
C1439 C 0.1075 0.74597 0.01453 0.0
C1440 C 0.12271 0.745 0.02707 0.0
C1441 C 0.1251 0.73356 0.04438 0.0
C1442 C 0.13926 0.73295 0.0566 0.0
C1443 C 0.15119 0.74363 0.05155 0.0
C1444 C 0.149 0.75493 0.03423 0.0
C1445 C 0.13484 0.75562 0.022 0.0
H1446 H 0.16214 0.74315 0.06105 0.0
H1447 H 0.02375 0.75168 0.94528 0.0
H1448 H 0.26761 0.92891 0.39939 0.0
H1449 H 0.27063 0.9311 0.44188 0.0
H1450 H 0.22665 0.90702 0.45145 0.0
H1451 H 0.22357 0.90486 0.4094 0.0
H1452 H 0.22859 0.93269 0.47887 0.0
H1453 H 0.26116 0.88833 0.45878 0.0
H1454 H 0.28278 0.87511 0.43815 0.0
H1455 H 0.3159 0.90663 0.46943 0.0
H1456 H 0.29441 0.92021 0.48995 0.0
H1457 H 0.2257 0.90151 0.59058 0.0
H1458 H 0.22852 0.90454 0.54864 0.0
H1459 H 0.27115 0.9308 0.55877 0.0
H1460 H 0.26841 0.92775 0.60125 0.0
H1461 H 0.27285 0.9084 0.5218 0.0
H1462 H 0.23991 0.9507 0.54562 0.0
H1463 H 0.2179 0.96314 0.56642 0.0
H1464 H 0.18519 0.93494 0.52806 0.0
H1465 H 0.20701 0.92215 0.50727 0.0
C1466 C 0.2586 0.92412 0.41061 0.0
C1467 C 0.24536 0.91671 0.40104 0.0
C1468 C 0.26036 0.92533 0.43485 0.0
C1469 C 0.24888 0.91918 0.44987 0.0
C1470 C 0.23563 0.9119 0.44025 0.0
C1471 C 0.23392 0.91063 0.41616 0.0
C1472 C 0.25041 0.9202 0.47564 0.0
C1473 C 0.23826 0.92734 0.48823 0.0
C1474 C 0.26324 0.91363 0.48788 0.0
C1475 C 0.27616 0.90542 0.47566 0.0
C1476 C 0.27303 0.89254 0.46109 0.0
C1477 C 0.28527 0.88496 0.44944 0.0
C1478 C 0.3007 0.89006 0.45242 0.0
C1479 C 0.30393 0.90271 0.4671 0.0
C1480 C 0.29173 0.91036 0.47874 0.0
C1481 C 0.23574 0.90789 0.58399 0.0
C1482 C 0.24679 0.91448 0.59929 0.0
C1483 C 0.2373 0.90964 0.55996 0.0
C1484 C 0.24993 0.91806 0.55056 0.0
C1485 C 0.26128 0.9243 0.56568 0.0
C1486 C 0.25968 0.9226 0.58991 0.0
C1487 C 0.2508 0.92049 0.52495 0.0
C1488 C 0.26336 0.91402 0.51241 0.0
C1489 C 0.23831 0.92764 0.51267 0.0
C1490 C 0.22512 0.9354 0.52498 0.0
C1491 C 0.22803 0.94708 0.54173 0.0
C1492 C 0.21559 0.9542 0.5535 0.0
C1493 C 0.20016 0.94982 0.54859 0.0
C1494 C 0.19714 0.93832 0.53185 0.0
C1495 C 0.20955 0.93115 0.52004 0.0
H1496 H 0.19054 0.95535 0.55773 0.0
H1497 H 0.31016 0.88417 0.4434 0.0
H1498 H 0.07868 0.27084 0.60192 0.0
H1499 H 0.07519 0.27357 0.55952 0.0
H1500 H 0.10503 0.23347 0.5485 0.0
H1501 H 0.1085 0.23065 0.59036 0.0
H1502 H 0.09696 0.27696 0.52126 0.0
H1503 H 0.0881 0.21018 0.50876 0.0
H1504 H 0.07757 0.18764 0.53063 0.0
H1505 H 0.04756 0.2184 0.56953 0.0
H1506 H 0.05773 0.24109 0.54766 0.0
H1507 H 0.10199 0.22585 0.41079 0.0
H1508 H 0.10029 0.2298 0.45264 0.0
H1509 H 0.07363 0.27213 0.44173 0.0
H1510 H 0.07546 0.26829 0.39933 0.0
H1511 H 0.07521 0.23055 0.48042 0.0
H1512 H 0.08263 0.29713 0.48911 0.0
H1513 H 0.09393 0.31934 0.46725 0.0
H1514 H 0.12768 0.28853 0.43591 0.0
H1515 H 0.11675 0.26622 0.45785 0.0
C1516 C 0.08458 0.26271 0.59039 0.0
C1517 C 0.09375 0.25045 0.59951 0.0
C1518 C 0.08261 0.26431 0.56621 0.0
C1519 C 0.08969 0.25359 0.55088 0.0
C1520 C 0.09929 0.24174 0.56 0.0
C1521 C 0.10128 0.24016 0.58399 0.0
C1522 C 0.08666 0.25409 0.5254 0.0
C1523 C 0.09189 0.26697 0.51231 0.0
C1524 C 0.0802 0.24099 0.51372 0.0
C1525 C 0.07376 0.22735 0.52666 0.0
C1526 C 0.07918 0.21213 0.52188 0.0
C1527 C 0.07329 0.19932 0.5343 0.0
C1528 C 0.06193 0.20159 0.55149 0.0
C1529 C 0.05639 0.21666 0.55625 0.0
C1530 C 0.06223 0.2295 0.54387 0.0
C1531 C 0.09577 0.23604 0.41719 0.0
C1532 C 0.08886 0.24677 0.4017 0.0
C1533 C 0.09476 0.23825 0.44119 0.0
C1534 C 0.08686 0.25127 0.4504 0.0
C1535 C 0.0799 0.26206 0.43503 0.0
C1536 C 0.08091 0.25984 0.41083 0.0
C1537 C 0.086 0.25318 0.47613 0.0
C1538 C 0.07999 0.2407 0.48931 0.0
C1539 C 0.09181 0.26661 0.48778 0.0
C1540 C 0.09872 0.27999 0.47489 0.0
C1541 C 0.0925 0.29512 0.47762 0.0
C1542 C 0.09884 0.30772 0.46521 0.0
C1543 C 0.11147 0.30534 0.45013 0.0
C1544 C 0.11785 0.29036 0.44753 0.0
C1545 C 0.11158 0.27773 0.45993 0.0
H1546 H 0.11633 0.3151 0.44049 0.0
H1547 H 0.0574 0.19166 0.56111 0.0
H1548 H 0.73624 0.07814 0.60141 0.0
H1549 H 0.73233 0.07742 0.55898 0.0
H1550 H 0.77496 0.10383 0.54939 0.0
H1551 H 0.77877 0.10477 0.59136 0.0
H1552 H 0.75233 0.11513 0.52216 0.0
H1553 H 0.77287 0.06331 0.54129 0.0
H1554 H 0.77214 0.03772 0.56129 0.0
H1555 H 0.72744 0.02773 0.53027 0.0
H1556 H 0.72784 0.05335 0.5103 0.0
H1557 H 0.78104 0.1023 0.4103 0.0
H1558 H 0.77643 0.10215 0.45218 0.0
H1559 H 0.73336 0.07661 0.44182 0.0
H1560 H 0.73802 0.07658 0.39956 0.0
H1561 H 0.75025 0.06495 0.47861 0.0
H1562 H 0.73184 0.11468 0.45408 0.0
H1563 H 0.73291 0.13979 0.43291 0.0
H1564 H 0.77252 0.15405 0.47385 0.0
H1565 H 0.77202 0.12884 0.49481 0.0
C1566 C 0.74475 0.08378 0.5902 0.0
C1567 C 0.75782 0.09149 0.59977 0.0
C1568 C 0.74253 0.08334 0.56596 0.0
C1569 C 0.75339 0.09052 0.55092 0.0
C1570 C 0.76636 0.09827 0.56056 0.0
C1571 C 0.76856 0.09874 0.58463 0.0
C1572 C 0.75162 0.08997 0.52509 0.0
C1573 C 0.75193 0.10415 0.51265 0.0
C1574 C 0.75048 0.07569 0.51261 0.0
C1575 C 0.7503 0.0603 0.52454 0.0
C1576 C 0.76283 0.0557 0.53888 0.0
C1577 C 0.76249 0.04118 0.55018 0.0
C1578 C 0.74973 0.03113 0.54711 0.0
C1579 C 0.73731 0.03555 0.53267 0.0
C1580 C 0.73759 0.05005 0.52135 0.0
C1581 C 0.77057 0.09664 0.41686 0.0
C1582 C 0.75985 0.08952 0.40158 0.0
C1583 C 0.76792 0.09661 0.44084 0.0
C1584 C 0.75442 0.08958 0.45016 0.0
C1585 C 0.74382 0.08217 0.43502 0.0
C1586 C 0.74648 0.08219 0.41089 0.0
C1587 C 0.75162 0.09008 0.47574 0.0
C1588 C 0.75037 0.07594 0.48811 0.0
C1589 C 0.7518 0.10442 0.48818 0.0
C1590 C 0.75194 0.11979 0.47597 0.0
C1591 C 0.74085 0.12312 0.4585 0.0
C1592 C 0.74134 0.13738 0.44653 0.0
C1593 C 0.75274 0.14852 0.45207 0.0
C1594 C 0.76368 0.14542 0.46959 0.0
C1595 C 0.7633 0.13113 0.48152 0.0
H1596 H 0.7531 0.15955 0.44278 0.0
H1597 H 0.74948 0.0199 0.55587 0.0
H1598 H 0.92768 0.735 0.60434 0.0
H1599 H 0.92797 0.73101 0.56194 0.0
H1600 H 0.9001 0.77275 0.55288 0.0
H1601 H 0.89964 0.77668 0.59488 0.0
H1602 H 0.88925 0.74948 0.52608 0.0
H1603 H 0.94009 0.77239 0.54355 0.0
H1604 H 0.96589 0.7732 0.5629 0.0
H1605 H 0.97797 0.7289 0.53229 0.0
H1606 H 0.95214 0.72774 0.51299 0.0
H1607 H 0.89996 0.77782 0.41349 0.0
H1608 H 0.90054 0.7734 0.45536 0.0
H1609 H 0.92748 0.7312 0.44504 0.0
H1610 H 0.92705 0.73566 0.40271 0.0
H1611 H 0.93896 0.74902 0.48125 0.0
H1612 H 0.88959 0.72819 0.45891 0.0
H1613 H 0.86408 0.72784 0.43876 0.0
H1614 H 0.84911 0.76785 0.47828 0.0
H1615 H 0.87464 0.76862 0.49839 0.0
C1616 C 0.92161 0.74329 0.59327 0.0
C1617 C 0.91367 0.75617 0.60298 0.0
C1618 C 0.92182 0.74102 0.56904 0.0
C1619 C 0.91412 0.75163 0.55416 0.0
C1620 C 0.90607 0.76437 0.56395 0.0
C1621 C 0.90588 0.76664 0.58802 0.0
C1622 C 0.91444 0.74979 0.52836 0.0
C1623 C 0.90013 0.74943 0.51629 0.0
C1624 C 0.92862 0.74916 0.51553 0.0
C1625 C 0.94413 0.74989 0.52707 0.0
C1626 C 0.94821 0.76276 0.54111 0.0
C1627 C 0.96284 0.7633 0.55203 0.0
C1628 C 0.97354 0.75109 0.54889 0.0
C1629 C 0.96965 0.73833 0.53475 0.0
C1630 C 0.95502 0.73774 0.52381 0.0
C1631 C 0.90599 0.76755 0.42003 0.0
C1632 C 0.91339 0.75704 0.40473 0.0
C1633 C 0.90626 0.76501 0.44403 0.0
C1634 C 0.91385 0.75184 0.45338 0.0
C1635 C 0.92149 0.7414 0.43821 0.0
C1636 C 0.9212 0.74394 0.41405 0.0
C1637 C 0.91377 0.74927 0.47902 0.0
C1638 C 0.92809 0.74877 0.49104 0.0
C1639 C 0.89959 0.74907 0.49185 0.0
C1640 C 0.88409 0.7485 0.48008 0.0
C1641 C 0.8809 0.73697 0.46322 0.0
C1642 C 0.86643 0.7367 0.45181 0.0
C1643 C 0.85499 0.74783 0.45722 0.0
C1644 C 0.85799 0.75924 0.47411 0.0
C1645 C 0.87245 0.75958 0.48554 0.0
H1646 H 0.8438 0.74761 0.44835 0.0
H1647 H 0.98487 0.75152 0.55736 0.0
H1648 H 0.72881 0.60818 0.5934 0.0
H1649 H 0.73187 0.60574 0.55149 0.0
H1650 H 0.76849 0.57155 0.56141 0.0
H1651 H 0.76569 0.57421 0.60393 0.0
H1652 H 0.77535 0.59235 0.5256 0.0
H1653 H 0.73258 0.55916 0.54647 0.0
H1654 H 0.7078 0.55216 0.56596 0.0
H1655 H 0.68373 0.58811 0.52776 0.0
H1656 H 0.70841 0.59548 0.50828 0.0
H1657 H 0.76715 0.57569 0.40198 0.0
H1658 H 0.76969 0.57304 0.44446 0.0
H1659 H 0.73136 0.60541 0.45386 0.0
H1660 H 0.72858 0.60782 0.41185 0.0
H1661 H 0.72731 0.58046 0.48025 0.0
H1662 H 0.77056 0.61557 0.46306 0.0
H1663 H 0.79534 0.62302 0.4439 0.0
H1664 H 0.8184 0.58346 0.47496 0.0
H1665 H 0.79369 0.57567 0.49407 0.0
C1666 C 0.7376 0.60018 0.5868 0.0
C1667 C 0.74693 0.59129 0.60205 0.0
C1668 C 0.73929 0.59876 0.56275 0.0
C1669 C 0.7502 0.58824 0.55325 0.0
C1670 C 0.75993 0.57967 0.56836 0.0
C1671 C 0.7583 0.58117 0.59261 0.0
C1672 C 0.75092 0.58613 0.52753 0.0
C1673 C 0.76493 0.58945 0.51567 0.0
C1674 C 0.73731 0.58245 0.51452 0.0
C1675 C 0.72238 0.57792 0.52599 0.0
C1676 C 0.72202 0.56563 0.54231 0.0
C1677 C 0.70799 0.56159 0.55335 0.0
C1678 C 0.6942 0.5697 0.54812 0.0
C1679 C 0.69441 0.58184 0.53179 0.0
C1680 C 0.70842 0.58593 0.52072 0.0
C1681 C 0.75935 0.58229 0.41317 0.0
C1682 C 0.74764 0.59193 0.40355 0.0
C1683 C 0.76084 0.5808 0.43743 0.0
C1684 C 0.75073 0.58905 0.45242 0.0
C1685 C 0.73924 0.59885 0.44272 0.0
C1686 C 0.7377 0.60026 0.41863 0.0
C1687 C 0.75156 0.5873 0.47822 0.0
C1688 C 0.73781 0.58315 0.49013 0.0
C1689 C 0.7654 0.59021 0.49116 0.0
C1690 C 0.78024 0.59494 0.47976 0.0
C1691 C 0.78089 0.60839 0.46565 0.0
C1692 C 0.79493 0.61269 0.45483 0.0
C1693 C 0.80843 0.60369 0.45816 0.0
C1694 C 0.80793 0.5904 0.47237 0.0
C1695 C 0.79391 0.58605 0.4832 0.0
H1696 H 0.81928 0.60703 0.44976 0.0
H1697 H 0.68335 0.56656 0.5567 0.0
H1698 H 0.42603 0.77086 0.40027 0.0
H1699 H 0.42671 0.77535 0.44256 0.0
H1700 H 0.40225 0.73171 0.45356 0.0
H1701 H 0.40132 0.72734 0.41171 0.0
H1702 H 0.38982 0.75412 0.47964 0.0
H1703 H 0.44261 0.73592 0.46187 0.0
H1704 H 0.46824 0.73753 0.4421 0.0
H1705 H 0.476 0.78308 0.47177 0.0
H1706 H 0.45033 0.78179 0.49148 0.0
H1707 H 0.40299 0.72702 0.59152 0.0
H1708 H 0.4037 0.73142 0.5497 0.0
H1709 H 0.42653 0.77592 0.56052 0.0
H1710 H 0.42607 0.77144 0.6029 0.0
H1711 H 0.43952 0.75941 0.52381 0.0
H1712 H 0.38845 0.77543 0.54683 0.0
H1713 H 0.36318 0.77318 0.5674 0.0
H1714 H 0.352 0.73192 0.52795 0.0
H1715 H 0.37733 0.73374 0.50744 0.0
C1716 C 0.42083 0.76224 0.41177 0.0
C1717 C 0.41363 0.74874 0.40264 0.0
C1718 C 0.42125 0.7648 0.43592 0.0
C1719 C 0.41458 0.75383 0.45131 0.0
C1720 C 0.40741 0.74039 0.4421 0.0
C1721 C 0.40693 0.73787 0.41811 0.0
C1722 C 0.41492 0.75607 0.47703 0.0
C1723 C 0.4007 0.75524 0.48927 0.0
C1724 C 0.42905 0.75813 0.48965 0.0
C1725 C 0.44449 0.75884 0.47791 0.0
C1726 C 0.44974 0.74632 0.46403 0.0
C1727 C 0.46428 0.74717 0.45286 0.0
C1728 C 0.47372 0.76042 0.45562 0.0
C1729 C 0.46867 0.77283 0.46961 0.0
C1730 C 0.45413 0.77205 0.48079 0.0
C1731 C 0.40817 0.73777 0.58511 0.0
C1732 C 0.41436 0.74895 0.60056 0.0
C1733 C 0.40853 0.74029 0.56113 0.0
C1734 C 0.4149 0.75413 0.55195 0.0
C1735 C 0.42146 0.7652 0.56724 0.0
C1736 C 0.42116 0.76265 0.59141 0.0
C1737 C 0.41447 0.75679 0.52634 0.0
C1738 C 0.42862 0.75861 0.51415 0.0
C1739 C 0.40027 0.75565 0.5137 0.0
C1740 C 0.38484 0.7547 0.52565 0.0
C1741 C 0.38064 0.76583 0.54261 0.0
C1742 C 0.3663 0.76463 0.55427 0.0
C1743 C 0.356 0.75242 0.54899 0.0
C1744 C 0.35999 0.74139 0.53201 0.0
C1745 C 0.37433 0.74251 0.52034 0.0
H1746 H 0.34491 0.7515 0.55805 0.0
H1747 H 0.48497 0.76106 0.44695 0.0
H1748 H 0.23924 0.42985 0.3991 0.0
H1749 H 0.23746 0.43276 0.44166 0.0
H1750 H 0.27653 0.40118 0.44995 0.0
H1751 H 0.27854 0.39846 0.40787 0.0
H1752 H 0.23259 0.4119 0.47748 0.0
H1753 H 0.29989 0.413 0.49289 0.0
H1754 H 0.32381 0.42191 0.47273 0.0
H1755 H 0.29696 0.45597 0.43478 0.0
H1756 H 0.27292 0.44743 0.45496 0.0
H1757 H 0.28066 0.40011 0.59075 0.0
H1758 H 0.27782 0.40217 0.54869 0.0
H1759 H 0.23804 0.43279 0.55766 0.0
H1760 H 0.24067 0.43052 0.60017 0.0
H1761 H 0.28038 0.42702 0.52127 0.0
H1762 H 0.21372 0.42786 0.50854 0.0
H1763 H 0.18968 0.41929 0.52877 0.0
H1764 H 0.21517 0.38186 0.56141 0.0
H1765 H 0.23926 0.39002 0.54104 0.0
C1766 C 0.24743 0.42355 0.41006 0.0
C1767 C 0.25911 0.41403 0.4001 0.0
C1768 C 0.24637 0.42518 0.43435 0.0
C1769 C 0.25702 0.41739 0.44901 0.0
C1770 C 0.26838 0.40756 0.43903 0.0
C1771 C 0.26947 0.40597 0.4149 0.0
C1772 C 0.25659 0.4195 0.47475 0.0
C1773 C 0.24295 0.41549 0.48706 0.0
C1774 C 0.27012 0.42408 0.4873 0.0
C1775 C 0.28458 0.42949 0.47534 0.0
C1776 C 0.2991 0.42245 0.48035 0.0
C1777 C 0.31268 0.42743 0.46889 0.0
C1778 C 0.31189 0.43947 0.45244 0.0
C1779 C 0.29754 0.44661 0.44747 0.0
C1780 C 0.28393 0.44169 0.45889 0.0
C1781 C 0.27124 0.40723 0.58386 0.0
C1782 C 0.26088 0.41514 0.59884 0.0
C1783 C 0.26967 0.40845 0.55975 0.0
C1784 C 0.25771 0.4176 0.54992 0.0
C1785 C 0.24727 0.42552 0.5648 0.0
C1786 C 0.2488 0.42425 0.58908 0.0
C1787 C 0.25657 0.41888 0.5241 0.0
C1788 C 0.26995 0.42361 0.51173 0.0
C1789 C 0.24279 0.415 0.51158 0.0
C1790 C 0.22832 0.40969 0.52351 0.0
C1791 C 0.21416 0.41776 0.51996 0.0
C1792 C 0.20053 0.41297 0.53144 0.0
C1793 C 0.20091 0.40008 0.54643 0.0
C1794 C 0.21489 0.39187 0.54985 0.0
C1795 C 0.22855 0.39658 0.53835 0.0
H1796 H 0.19035 0.39646 0.55535 0.0
H1797 H 0.32242 0.44329 0.44358 0.0
H1798 H 0.6064 0.27646 0.59412 0.0
H1799 H 0.60397 0.27324 0.5522 0.0
H1800 H 0.57348 0.23354 0.56244 0.0
H1801 H 0.576 0.23662 0.60496 0.0
H1802 H 0.59565 0.22902 0.52629 0.0
H1803 H 0.55717 0.26697 0.54772 0.0
H1804 H 0.54705 0.29054 0.5675 0.0
H1805 H 0.57947 0.31927 0.52946 0.0
H1806 H 0.58996 0.29585 0.50969 0.0
H1807 H 0.57815 0.23559 0.40271 0.0
H1808 H 0.57529 0.23281 0.44515 0.0
H1809 H 0.60334 0.27432 0.45523 0.0
H1810 H 0.60607 0.27723 0.41326 0.0
H1811 H 0.5775 0.27531 0.48145 0.0
H1812 H 0.61808 0.23735 0.46396 0.0
H1813 H 0.62891 0.21399 0.44447 0.0
H1814 H 0.59288 0.18546 0.47495 0.0
H1815 H 0.58169 0.20872 0.49436 0.0
C1816 C 0.59921 0.26697 0.58758 0.0
C1817 C 0.59129 0.25686 0.60292 0.0
C1818 C 0.59781 0.26518 0.56354 0.0
C1819 C 0.58835 0.25331 0.55415 0.0
C1820 C 0.58078 0.24283 0.56933 0.0
C1821 C 0.5822 0.24462 0.59358 0.0
C1822 C 0.58623 0.25239 0.52847 0.0
C1823 C 0.59136 0.239 0.51646 0.0
C1824 C 0.58079 0.26547 0.51562 0.0
C1825 C 0.57441 0.27963 0.5273 0.0
C1826 C 0.56221 0.2783 0.54367 0.0
C1827 C 0.5564 0.29164 0.55487 0.0
C1828 C 0.56262 0.30639 0.54976 0.0
C1829 C 0.57465 0.30784 0.5334 0.0
C1830 C 0.58052 0.29454 0.52216 0.0
C1831 C 0.58372 0.24407 0.41404 0.0
C1832 C 0.59232 0.25663 0.40462 0.0
C1833 C 0.58212 0.24245 0.43826 0.0
C1834 C 0.58914 0.25334 0.45342 0.0
C1835 C 0.59776 0.2658 0.44394 0.0
C1836 C 0.59936 0.26742 0.41988 0.0
C1837 C 0.58744 0.25216 0.47917 0.0
C1838 C 0.58153 0.2652 0.49122 0.0
C1839 C 0.59218 0.23877 0.49196 0.0
C1840 C 0.59894 0.2248 0.48037 0.0
C1841 C 0.61238 0.22612 0.46634 0.0
C1842 C 0.6186 0.21289 0.45534 0.0
C1843 C 0.61156 0.19826 0.4584 0.0
C1844 C 0.5983 0.19681 0.47254 0.0
C1845 C 0.59202 0.21001 0.48356 0.0
H1846 H 0.61639 0.18803 0.44988 0.0
H1847 H 0.55811 0.3167 0.55846 0.0
H1848 H 0.76773 0.43048 0.90136 0.0
H1849 H 0.77043 0.43287 0.9439 0.0
H1850 H 0.73115 0.40165 0.95315 0.0
H1851 H 0.72828 0.39943 0.91118 0.0
H1852 H 0.72814 0.42675 0.98009 0.0
H1853 H 0.76945 0.38982 0.96121 0.0
H1854 H 0.79369 0.38147 0.94137 0.0
H1855 H 0.81893 0.41924 0.97357 0.0
H1856 H 0.79477 0.42796 0.99333 0.0
H1857 H 0.72875 0.39762 0.09274 0.0
H1858 H 0.73176 0.40017 0.05077 0.0
H1859 H 0.77003 0.43248 0.06082 0.0
H1860 H 0.76725 0.42972 0.10329 0.0
H1861 H 0.7757 0.41174 0.02452 0.0
H1862 H 0.73462 0.44669 0.04691 0.0
H1863 H 0.71026 0.45451 0.06688 0.0
H1864 H 0.68443 0.42024 0.02782 0.0
H1865 H 0.70867 0.41206 0.00784 0.0
C1866 C 0.75973 0.42412 0.91253 0.0
C1867 C 0.74778 0.41479 0.90288 0.0
C1868 C 0.7613 0.42545 0.93681 0.0
C1869 C 0.751 0.41741 0.95177 0.0
C1870 C 0.73919 0.40803 0.94204 0.0
C1871 C 0.7376 0.40674 0.91796 0.0
C1872 C 0.75203 0.4188 0.97758 0.0
C1873 C 0.73854 0.4234 0.98977 0.0
C1874 C 0.76574 0.41495 0.99027 0.0
C1875 C 0.78027 0.40965 0.97852 0.0
C1876 C 0.78014 0.39642 0.9639 0.0
C1877 C 0.79387 0.39161 0.9527 0.0
C1878 C 0.80783 0.39985 0.95615 0.0
C1879 C 0.8081 0.41289 0.97087 0.0
C1880 C 0.7944 0.41777 0.98208 0.0
C1881 C 0.73788 0.40522 0.08612 0.0
C1882 C 0.74767 0.41358 0.10138 0.0
C1883 C 0.73956 0.4067 0.06206 0.0
C1884 C 0.75092 0.41675 0.0526 0.0
C1885 C 0.76112 0.42473 0.06773 0.0
C1886 C 0.7595 0.42317 0.09197 0.0
C1887 C 0.75161 0.41911 0.02692 0.0
C1888 C 0.76541 0.41532 0.0148 0.0
C1889 C 0.73815 0.42367 0.01419 0.0
C1890 C 0.72349 0.42871 0.02596 0.0
C1891 C 0.72376 0.44076 0.04266 0.0
C1892 C 0.70997 0.44526 0.05398 0.0
C1893 C 0.69581 0.43786 0.04864 0.0
C1894 C 0.69541 0.42597 0.03194 0.0
C1895 C 0.70916 0.42141 0.02058 0.0
H1896 H 0.68515 0.44136 0.05744 0.0
H1897 H 0.81845 0.39611 0.94747 0.0
H1898 H 0.60296 0.72711 0.09266 0.0
H1899 H 0.60226 0.7321 0.05095 0.0
H1900 H 0.5751 0.77399 0.06264 0.0
H1901 H 0.57571 0.769 0.10487 0.0
H1902 H 0.56407 0.75586 0.02504 0.0
H1903 H 0.61213 0.77828 0.05 0.0
H1904 H 0.6371 0.77914 0.07156 0.0
H1905 H 0.65438 0.74032 0.03151 0.0
H1906 H 0.62939 0.73901 0.01003 0.0
H1907 H 0.577 0.77001 0.90216 0.0
H1908 H 0.57595 0.77449 0.94446 0.0
H1909 H 0.60488 0.73369 0.95549 0.0
H1910 H 0.60603 0.72925 0.91366 0.0
H1911 H 0.61454 0.75772 0.98218 0.0
H1912 H 0.56494 0.73267 0.96286 0.0
H1913 H 0.53954 0.73082 0.94253 0.0
H1914 H 0.52524 0.7747 0.97237 0.0
H1915 H 0.55066 0.77689 0.99265 0.0
C1916 C 0.59681 0.7374 0.08647 0.0
C1917 C 0.58948 0.74773 0.10212 0.0
C1918 C 0.59646 0.74026 0.06257 0.0
C1919 C 0.58883 0.75354 0.05369 0.0
C1920 C 0.58112 0.76371 0.06916 0.0
C1921 C 0.58151 0.76087 0.09324 0.0
C1922 C 0.5892 0.7566 0.02821 0.0
C1923 C 0.57508 0.75665 0.01567 0.0
C1924 C 0.60358 0.75753 0.01599 0.0
C1925 C 0.61882 0.75851 0.02845 0.0
C1926 C 0.62122 0.76987 0.04586 0.0
C1927 C 0.63538 0.77044 0.05808 0.0
C1928 C 0.64731 0.75979 0.05292 0.0
C1929 C 0.64513 0.74857 0.03548 0.0
C1930 C 0.63096 0.74792 0.02326 0.0
C1931 C 0.58316 0.76206 0.91365 0.0
C1932 C 0.59157 0.74927 0.90455 0.0
C1933 C 0.58253 0.7646 0.9378 0.0
C1934 C 0.59029 0.75438 0.95319 0.0
C1935 C 0.59885 0.74177 0.94401 0.0
C1936 C 0.59945 0.73922 0.92003 0.0
C1937 C 0.58943 0.75638 0.97892 0.0
C1938 C 0.6035 0.75731 0.99154 0.0
C1939 C 0.57501 0.75638 0.99117 0.0
C1940 C 0.55976 0.75505 0.97901 0.0
C1941 C 0.55643 0.74199 0.96492 0.0
C1942 C 0.54202 0.74086 0.95344 0.0
C1943 C 0.5308 0.75266 0.95609 0.0
C1944 C 0.53395 0.76559 0.97029 0.0
C1945 C 0.54835 0.76678 0.98178 0.0
H1946 H 0.51966 0.75177 0.9472 0.0
H1947 H 0.65826 0.76023 0.06241 0.0
H1948 H 0.2344 0.58316 0.10325 0.0
H1949 H 0.2307 0.58294 0.0608 0.0
H1950 H 0.27747 0.6012 0.05173 0.0
H1951 H 0.281 0.60185 0.09378 0.0
H1952 H 0.25826 0.61622 0.0244 0.0
H1953 H 0.26694 0.56113 0.04316 0.0
H1954 H 0.26063 0.53623 0.06288 0.0
H1955 H 0.21497 0.53623 0.03144 0.0
H1956 H 0.22096 0.56124 0.01174 0.0
H1957 H 0.2829 0.59953 0.91221 0.0
H1958 H 0.27871 0.59922 0.9541 0.0
H1959 H 0.23145 0.58267 0.9437 0.0
H1960 H 0.23577 0.58256 0.9013 0.0
H1961 H 0.24524 0.56794 0.98033 0.0
H1962 H 0.23819 0.621 0.95695 0.0
H1963 H 0.24485 0.6455 0.93642 0.0
H1964 H 0.28716 0.64951 0.97646 0.0
H1965 H 0.28091 0.62489 0.99696 0.0
C1966 C 0.24386 0.5871 0.09214 0.0
C1967 C 0.25799 0.59251 0.10186 0.0
C1968 C 0.24177 0.58692 0.06788 0.0
C1969 C 0.25385 0.59194 0.05296 0.0
C1970 C 0.26793 0.59733 0.06278 0.0
C1971 C 0.26996 0.59765 0.08689 0.0
C1972 C 0.2521 0.5918 0.02711 0.0
C1973 C 0.25549 0.60562 0.0148 0.0
C1974 C 0.24786 0.57817 0.01447 0.0
C1975 C 0.24433 0.56312 0.02621 0.0
C1976 C 0.25552 0.55587 0.04059 0.0
C1977 C 0.25201 0.54173 0.05173 0.0
C1978 C 0.23739 0.53468 0.04847 0.0
C1979 C 0.22627 0.54172 0.03399 0.0
C1980 C 0.22972 0.55587 0.02282 0.0
C1981 C 0.2716 0.59579 0.91876 0.0
C1982 C 0.25961 0.59121 0.90342 0.0
C1983 C 0.26919 0.59567 0.94277 0.0
C1984 C 0.25464 0.59127 0.9521 0.0
C1985 C 0.24274 0.58623 0.9369 0.0
C1986 C 0.24521 0.5862 0.9127 0.0
C1987 C 0.25209 0.59216 0.97773 0.0
C1988 C 0.24778 0.57857 0.98995 0.0
C1989 C 0.25546 0.60602 0.99036 0.0
C1990 C 0.2591 0.62105 0.97844 0.0
C1991 C 0.24895 0.62707 0.96132 0.0
C1992 C 0.25266 0.64098 0.94968 0.0
C1993 C 0.26642 0.64905 0.95512 0.0
C1994 C 0.2765 0.64325 0.97227 0.0
C1995 C 0.27286 0.62933 0.98393 0.0
H1996 H 0.26928 0.6598 0.94607 0.0
H1997 H 0.23469 0.52373 0.05712 0.0
H1998 H 0.40254 0.2792 0.91341 0.0
H1999 H 0.40535 0.27581 0.95529 0.0
H2000 H 0.42881 0.23167 0.94432 0.0
H2001 H 0.42605 0.23502 0.90188 0.0
H2002 H 0.40584 0.23111 0.98089 0.0
H2003 H 0.45071 0.26087 0.9589 0.0
H2004 H 0.4652 0.28198 0.939 0.0
H2005 H 0.43931 0.31652 0.97744 0.0
H2006 H 0.42449 0.29561 0.99733 0.0
H2007 H 0.42609 0.2341 0.10396 0.0
H2008 H 0.42802 0.23108 0.06144 0.0
H2009 H 0.40655 0.27642 0.05223 0.0
H2010 H 0.40457 0.27948 0.09432 0.0
H2011 H 0.43276 0.27303 0.02548 0.0
H2012 H 0.38588 0.24359 0.04358 0.0
H2013 H 0.37081 0.22278 0.06323 0.0
H2014 H 0.40033 0.18779 0.03215 0.0
H2015 H 0.41573 0.20844 0.01258 0.0
C2016 C 0.40829 0.26873 0.91979 0.0
C2017 C 0.41415 0.25741 0.90428 0.0
C2018 C 0.40991 0.26683 0.9438 0.0
C2019 C 0.41744 0.25358 0.95295 0.0
C2020 C 0.423 0.24201 0.9376 0.0
C2021 C 0.42147 0.24396 0.9134 0.0
C2022 C 0.41957 0.25222 0.97858 0.0
C2023 C 0.41203 0.24006 0.99065 0.0
C2024 C 0.42747 0.26402 0.99132 0.0
C2025 C 0.43642 0.27666 0.97951 0.0
C2026 C 0.44802 0.27296 0.96299 0.0
C2027 C 0.45631 0.28489 0.95173 0.0
C2028 C 0.45316 0.30058 0.95692 0.0
C2029 C 0.44174 0.30436 0.97343 0.0
C2030 C 0.4334 0.29247 0.98473 0.0
C2031 C 0.42175 0.24338 0.09282 0.0
C2032 C 0.41519 0.25703 0.1025 0.0
C2033 C 0.42283 0.24163 0.06855 0.0
C2034 C 0.41742 0.25353 0.05364 0.0
C2035 C 0.41086 0.26711 0.06336 0.0
C2036 C 0.40969 0.26881 0.08747 0.0
C2037 C 0.41865 0.25218 0.02787 0.0
C2038 C 0.42684 0.26387 0.01575 0.0
C2039 C 0.41134 0.23997 0.01516 0.0
C2040 C 0.40208 0.22756 0.02688 0.0
C2041 C 0.38925 0.23147 0.04112 0.0
C2042 C 0.38063 0.2197 0.0522 0.0
C2043 C 0.38464 0.20397 0.04901 0.0
C2044 C 0.39726 0.19998 0.03466 0.0
C2045 C 0.40593 0.21171 0.02356 0.0
H2046 H 0.37795 0.19487 0.05759 0.0
H2047 H 0.45958 0.3098 0.94818 0.0
H2048 H 0.21599 0.05661 0.19497 0.0
H2049 H 0.21604 0.03162 0.21612 0.0
H2050 H 0.26416 0.03917 0.23589 0.0
H2051 H 0.26405 0.06446 0.21539 0.0
H2052 H 0.25393 0.0073 0.21237 0.0
H2053 H 0.24381 0.04312 0.27653 0.0
H2054 H 0.22929 0.06452 0.2957 0.0
H2055 H 0.1867 0.0379 0.29091 0.0
H2056 H 0.20094 0.01644 0.27137 0.0
H2057 H 0.2638 0.9423 0.28851 0.0
H2058 H 0.2642 0.96744 0.26814 0.0
H2059 H 0.21443 0.97243 0.27958 0.0
H2060 H 0.2143 0.94779 0.30136 0.0
H2061 H 0.22572 0.99861 0.28678 0.0
H2062 H 0.23336 0.96326 0.2234 0.0
H2063 H 0.24547 0.94166 0.20126 0.0
H2064 H 0.28932 0.96632 0.20031 0.0
H2065 H 0.27753 0.98799 0.22271 0.0
C2066 C 0.22654 0.05304 0.20404 0.0
C2067 C 0.24 0.06256 0.20358 0.0
C2068 C 0.22654 0.03874 0.21608 0.0
C2069 C 0.24011 0.0335 0.2275 0.0
C2070 C 0.25357 0.04298 0.22716 0.0
C2071 C 0.25346 0.05747 0.21557 0.0
C2072 C 0.24024 0.01801 0.23946 0.0
C2073 C 0.24797 0.00538 0.22882 0.0
C2074 C 0.23194 0.01541 0.26039 0.0
C2075 C 0.22341 0.02826 0.27226 0.0
C2076 C 0.23132 0.0419 0.27935 0.0
C2077 C 0.22315 0.05402 0.29033 0.0
C2078 C 0.20707 0.05259 0.29446 0.0
C2079 C 0.19914 0.03901 0.28767 0.0
C2080 C 0.20726 0.02686 0.27666 0.0
C2081 C 0.25291 0.94868 0.2864 0.0
C2082 C 0.239 0.943 0.29643 0.0
C2083 C 0.25312 0.96308 0.27461 0.0
C2084 C 0.23929 0.97193 0.27182 0.0
C2085 C 0.22531 0.96601 0.28143 0.0
C2086 C 0.2252 0.95182 0.29377 0.0
C2087 C 0.23948 0.98758 0.25979 0.0
C2088 C 0.23175 1.00033 0.27035 0.0
C2089 C 0.24746 0.99018 0.23841 0.0
C2090 C 0.25459 0.97717 0.22494 0.0
C2091 C 0.24561 0.96402 0.21862 0.0
C2092 C 0.25242 0.95177 0.20599 0.0
C2093 C 0.26816 0.9526 0.19944 0.0
C2094 C 0.27713 0.96569 0.20543 0.0
C2095 C 0.27039 0.97797 0.21807 0.0
H2096 H 0.27341 0.9431 0.18966 0.0
H2097 H 0.20076 0.06199 0.30297 0.0
H2098 H 0.93543 0.25298 0.22765 0.0
H2099 H 0.9604 0.25249 0.24879 0.0
H2100 H 0.97983 0.22181 0.1965 0.0
H2101 H 0.95481 0.22173 0.176 0.0
H2102 H 0.99009 0.21245 0.23509 0.0
H2103 H 0.98768 0.2632 0.19991 0.0
H2104 H 0.97633 0.28907 0.19081 0.0
H2105 H 0.97721 0.30129 0.26334 0.0
H2106 H 0.98838 0.27541 0.27291 0.0
H2107 H 0.06855 0.25465 0.27304 0.0
H2108 H 0.04406 0.2542 0.25063 0.0
H2109 H 0.02502 0.21999 0.29817 0.0
H2110 H 0.04951 0.22002 0.32002 0.0
H2111 H 0.01545 0.26201 0.25991 0.0
H2112 H 0.99887 0.19644 0.2724 0.0
H2113 H 0.01203 0.17084 0.27643 0.0
H2114 H 0.05232 0.18866 0.24028 0.0
H2115 H 0.03933 0.2143 0.23577 0.0
C2116 C 0.945 0.24603 0.22079 0.0
C2117 C 0.94308 0.2374 0.20011 0.0
C2118 C 0.95935 0.24586 0.2328 0.0
C2119 C 0.97225 0.23734 0.22412 0.0
C2120 C 0.97018 0.22849 0.20369 0.0
C2121 C 0.95581 0.22847 0.19192 0.0
C2122 C 0.98788 0.2376 0.23611 0.0
C2123 C 0.99557 0.22332 0.24053 0.0
C2124 C 0.9954 0.25173 0.24283 0.0
C2125 C 0.98872 0.26731 0.23714 0.0
C2126 C 0.98535 0.27137 0.21393 0.0
C2127 C 0.97896 0.28604 0.20869 0.0
C2128 C 0.97601 0.2968 0.22649 0.0
C2129 C 0.97948 0.29293 0.24958 0.0
C2130 C 0.98585 0.27827 0.25492 0.0
C2131 C 0.0592 0.24689 0.27853 0.0
C2132 C 0.06109 0.23727 0.29823 0.0
C2133 C 0.04514 0.24671 0.26578 0.0
C2134 C 0.03263 0.23693 0.27245 0.0
C2135 C 0.03452 0.2274 0.29222 0.0
C2136 C 0.04858 0.22746 0.3048 0.0
C2137 C 0.01752 0.23686 0.2591 0.0
C2138 C 0.00993 0.25115 0.25448 0.0
C2139 C 0.01032 0.22277 0.25151 0.0
C2140 C 0.01817 0.20734 0.25396 0.0
C2141 C 0.01051 0.19488 0.26524 0.0
C2142 C 0.01795 0.18036 0.26762 0.0
C2143 C 0.03302 0.17814 0.25868 0.0
C2144 C 0.04067 0.19042 0.24728 0.0
C2145 C 0.03328 0.20495 0.24483 0.0
H2146 H 0.03876 0.1669 0.26056 0.0
H2147 H 0.97107 0.30816 0.2224 0.0
H2148 H 0.74397 0.06302 0.28443 0.0
H2149 H 0.74373 0.03796 0.26333 0.0
H2150 H 0.79089 0.02864 0.28637 0.0
H2151 H 0.7911 0.05345 0.30785 0.0
H2152 H 0.78486 0.02224 0.23725 0.0
H2153 H 0.76336 0.01123 0.3139 0.0
H2154 H 0.74465 0.01537 0.34605 0.0
H2155 H 0.70628 0.005 0.30018 0.0
H2156 H 0.72476 1.00102 0.26766 0.0
H2157 H 0.7919 0.94286 0.2047 0.0
H2158 H 0.79223 0.96761 0.2262 0.0
H2159 H 0.74161 0.96825 0.22599 0.0
H2160 H 0.7414 0.9428 0.20637 0.0
H2161 H 0.74902 0.97994 0.26319 0.0
H2162 H 0.76802 0.99127 0.1866 0.0
H2163 H 0.78495 0.98862 0.15199 0.0
H2164 H 0.82533 1.00024 0.19316 0.0
H2165 H 0.80866 0.00278 0.22807 0.0
C2166 C 0.75435 0.05571 0.2848 0.0
C2167 C 0.76755 0.06023 0.29784 0.0
C2168 C 0.75417 0.04135 0.27282 0.0
C2169 C 0.76727 0.03136 0.27337 0.0
C2170 C 0.78065 0.03613 0.2857 0.0
C2171 C 0.78074 0.05032 0.29799 0.0
C2172 C 0.76694 0.01574 0.26169 0.0
C2173 C 0.77714 0.01291 0.243 0.0
C2174 C 0.75651 0.00374 0.2687 0.0
C2175 C 0.74543 0.00599 0.28831 0.0
C2176 C 0.75093 0.00996 0.31063 0.0
C2177 C 0.74036 0.01225 0.32893 0.0
C2178 C 0.72428 0.01049 0.32515 0.0
C2179 C 0.71873 0.00638 0.30308 0.0
C2180 C 0.72925 0.0041 0.28472 0.0
C2181 C 0.78087 0.94822 0.20956 0.0
C2182 C 0.76663 0.9409 0.20389 0.0
C2183 C 0.78103 0.96253 0.22159 0.0
C2184 C 0.76694 0.97029 0.2272 0.0
C2185 C 0.7527 0.96271 0.22194 0.0
C2186 C 0.75256 0.94811 0.21068 0.0
C2187 C 0.76698 0.98623 0.23841 0.0
C2188 C 0.75673 0.98919 0.25713 0.0
C2189 C 0.77707 0.99852 0.23096 0.0
C2190 C 0.78711 0.99707 0.20998 0.0
C2191 C 0.78052 0.99317 0.18829 0.0
C2192 C 0.79007 0.9917 0.16862 0.0
C2193 C 0.80621 0.99422 0.17039 0.0
C2194 C 0.81283 0.99827 0.19182 0.0
C2195 C 0.80334 0.99975 0.21155 0.0
H2196 H 0.81358 0.99307 0.15514 0.0
H2197 H 0.71612 0.01227 0.33933 0.0
H2198 H 0.04794 0.7775 0.17608 0.0
H2199 H 0.02344 0.77732 0.19785 0.0
H2200 H 0.04645 0.75373 0.25487 0.0
H2201 H 0.07095 0.75316 0.23242 0.0
H2202 H 0.01929 0.74173 0.25081 0.0
H2203 H 0.03651 0.79497 0.25477 0.0
H2204 H 0.04579 0.82036 0.23959 0.0
H2205 H 0.00341 0.82544 0.19997 0.0
H2206 H 0.99396 0.79998 0.21469 0.0
H2207 H 0.95433 0.78571 0.32151 0.0
H2208 H 0.97923 0.7855 0.30058 0.0
H2209 H 0.96316 0.74661 0.25896 0.0
H2210 H 0.9382 0.74662 0.28019 0.0
H2211 H 0.98759 0.79024 0.25766 0.0
H2212 H 0.99441 0.72306 0.24504 0.0
H2213 H 0.98688 0.69854 0.26488 0.0
H2214 H 0.98411 0.72298 0.33012 0.0
H2215 H 0.99183 0.74758 0.31074 0.0
C2216 C 0.04785 0.77233 0.19332 0.0
C2217 C 0.06148 0.76547 0.20259 0.0
C2218 C 0.03378 0.77231 0.20586 0.0
C2219 C 0.03302 0.76584 0.22836 0.0
C2220 C 0.04663 0.75886 0.23762 0.0
C2221 C 0.06068 0.7586 0.22482 0.0
C2222 C 0.018 0.76624 0.24199 0.0
C2223 C 0.0124 0.75236 0.25226 0.0
C2224 C 0.00898 0.78013 0.24444 0.0
C2225 C 0.01458 0.79551 0.23569 0.0
C2226 C 0.02921 0.80146 0.24272 0.0
C2227 C 0.0345 0.81587 0.23421 0.0
C2228 C 0.02521 0.8245 0.21879 0.0
C2229 C 0.0106 0.81875 0.2119 0.0
C2230 C 0.00526 0.80433 0.22034 0.0
C2231 C 0.95602 0.77714 0.30783 0.0
C2232 C 0.94422 0.76616 0.30259 0.0
C2233 C 0.97031 0.77705 0.29582 0.0
C2234 C 0.97326 0.76594 0.27829 0.0
C2235 C 0.96135 0.75516 0.27264 0.0
C2236 C 0.94701 0.75524 0.28469 0.0
C2237 C 0.98879 0.76569 0.26611 0.0
C2238 C 0.99448 0.7796 0.25613 0.0
C2239 C 0.99809 0.75196 0.26454 0.0
C2240 C 0.99351 0.73719 0.27636 0.0
C2241 C 0.99223 0.72319 0.26362 0.0
C2242 C 0.98792 0.70927 0.27479 0.0
C2243 C 0.98496 0.70921 0.29873 0.0
C2244 C 0.98634 0.72306 0.31156 0.0
C2245 C 0.99066 0.73699 0.30049 0.0
H2246 H 0.98162 0.69843 0.30734 0.0
H2247 H 0.02933 0.83565 0.21221 0.0
H2248 H 0.74102 0.94362 0.79144 0.0
H2249 H 0.74105 0.96881 0.77126 0.0
H2250 H 0.79136 0.97134 0.77846 0.0
H2251 H 0.7911 0.9467 0.80032 0.0
H2252 H 0.78202 0.99809 0.78554 0.0
H2253 H 0.76933 0.96288 0.72374 0.0
H2254 H 0.75498 0.94187 0.70335 0.0
H2255 H 0.71258 0.96888 0.70694 0.0
H2256 H 0.72663 0.98997 0.72761 0.0
H2257 H 0.79014 0.0565 0.69431 0.0
H2258 H 0.79027 0.03159 0.71571 0.0
H2259 H 0.74232 0.03926 0.73629 0.0
H2260 H 0.74225 0.06442 0.71551 0.0
H2261 H 0.75057 0.00791 0.71439 0.0
H2262 H 0.76582 0.04356 0.77614 0.0
H2263 H 0.78231 0.06424 0.79343 0.0
H2264 H 0.82305 0.03519 0.78534 0.0
H2265 H 0.80682 0.01442 0.76767 0.0
C2266 C 0.7521 0.94948 0.78848 0.0
C2267 C 0.76607 0.9431 0.79732 0.0
C2268 C 0.75215 0.96391 0.77675 0.0
C2269 C 0.76626 0.97207 0.77269 0.0
C2270 C 0.78027 0.96547 0.78124 0.0
C2271 C 0.78015 0.95129 0.79363 0.0
C2272 C 0.76637 0.98765 0.76038 0.0
C2273 C 0.7753 1.00003 0.76977 0.0
C2274 C 0.75749 0.99059 0.73987 0.0
C2275 C 0.74901 0.97794 0.72742 0.0
C2276 C 0.75692 0.96429 0.72032 0.0
C2277 C 0.74884 0.95238 0.70869 0.0
C2278 C 0.73287 0.95402 0.70391 0.0
C2279 C 0.72495 0.96761 0.71068 0.0
C2280 C 0.73297 0.97956 0.72233 0.0
C2281 C 0.77968 0.05298 0.70362 0.0
C2282 C 0.7662 0.0625 0.70327 0.0
C2283 C 0.77977 0.03872 0.71582 0.0
C2284 C 0.7663 0.03352 0.72756 0.0
C2285 C 0.75285 0.04302 0.72734 0.0
C2286 C 0.75286 0.05745 0.71557 0.0
C2287 C 0.76617 0.01802 0.73963 0.0
C2288 C 0.75727 0.00576 0.73013 0.0
C2289 C 0.7754 0.01506 0.7596 0.0
C2290 C 0.78513 0.02751 0.77035 0.0
C2291 C 0.77832 0.04164 0.77784 0.0
C2292 C 0.78761 0.05337 0.78776 0.0
C2293 C 0.80372 0.05105 0.79042 0.0
C2294 C 0.81057 0.03698 0.78324 0.0
C2295 C 0.80132 0.02522 0.77329 0.0
H2296 H 0.8109 0.06014 0.79811 0.0
H2297 H 0.72664 0.94478 0.6949 0.0
H2298 H 0.93976 0.74356 0.72513 0.0
H2299 H 0.96466 0.74362 0.74653 0.0
H2300 H 0.97874 0.78553 0.71017 0.0
H2301 H 0.95394 0.78557 0.68886 0.0
H2302 H 0.9947 0.74124 0.73207 0.0
H2303 H 1.00063 0.80832 0.74631 0.0
H2304 H 0.98354 0.83131 0.75228 0.0
H2305 H 0.94744 0.80155 0.77984 0.0
H2306 H 0.96438 0.77844 0.77434 0.0
H2307 H 0.07293 0.75579 0.77064 0.0
H2308 H 0.04808 0.75601 0.74916 0.0
H2309 H 0.0245 0.77402 0.81006 0.0
H2310 H 0.04938 0.77474 0.83087 0.0
H2311 H 0.0126 0.78774 0.77653 0.0
H2312 H 0.02343 0.73294 0.78938 0.0
H2313 H 0.03906 0.70865 0.78719 0.0
H2314 H 0.03908 0.71142 0.71251 0.0
H2315 H 0.0236 0.73582 0.71428 0.0
C2316 C 0.94811 0.75286 0.72184 0.0
C2317 C 0.94479 0.76461 0.70534 0.0
C2318 C 0.9624 0.75283 0.73398 0.0
C2319 C 0.97362 0.76462 0.73011 0.0
C2320 C 0.97026 0.77639 0.71372 0.0
C2321 C 0.95604 0.77639 0.7015 0.0
C2322 C 0.98885 0.76464 0.74305 0.0
C2323 C 0.99862 0.75141 0.74181 0.0
C2324 C 0.99394 0.77777 0.75609 0.0
C2325 C 0.98373 0.79164 0.75965 0.0
C2326 C 0.98907 0.8067 0.7537 0.0
C2327 C 0.9794 0.81975 0.757 0.0
C2328 C 0.9644 0.81789 0.76635 0.0
C2329 C 0.95904 0.80298 0.77251 0.0
C2330 C 0.96866 0.7899 0.76927 0.0
C2331 C 0.06244 0.75986 0.77935 0.0
C2332 C 0.06315 0.76526 0.80246 0.0
C2333 C 0.04815 0.75986 0.76712 0.0
C2334 C 0.03416 0.76476 0.77799 0.0
C2335 C 0.03499 0.77022 0.80107 0.0
C2336 C 0.04928 0.7706 0.81304 0.0
C2337 C 0.01864 0.76432 0.76558 0.0
C2338 C 0.00878 0.77753 0.76681 0.0
C2339 C 0.0133 0.75099 0.75306 0.0
C2340 C 0.02249 0.73627 0.75198 0.0
C2341 C 0.02684 0.7284 0.77251 0.0
C2342 C 0.03566 0.71462 0.77133 0.0
C2343 C 0.04009 0.70852 0.74973 0.0
C2344 C 0.03566 0.71617 0.72924 0.0
C2345 C 0.02685 0.72996 0.73031 0.0
H2346 H 0.04693 0.69785 0.74885 0.0
H2347 H 0.95693 0.828 0.76888 0.0
H2348 H 0.25734 0.93737 0.72457 0.0
H2349 H 0.2573 0.96234 0.74574 0.0
H2350 H 0.21848 0.97837 0.70394 0.0
H2351 H 0.21859 0.95361 0.68261 0.0
H2352 H 0.23948 1.00093 0.70724 0.0
H2353 H 0.21363 0.96665 0.76111 0.0
H2354 H 0.21063 0.94313 0.78568 0.0
H2355 H 0.25175 0.95588 0.82441 0.0
H2356 H 0.25512 0.97937 0.79985 0.0
H2357 H 0.21697 0.05261 0.81528 0.0
H2358 H 0.21688 0.02793 0.79375 0.0
H2359 H 0.25905 0.04187 0.75787 0.0
H2360 H 0.259 0.06681 0.77909 0.0
H2361 H 0.23615 0.0043 0.79332 0.0
H2362 H 0.2605 0.02449 0.70431 0.0
H2363 H 0.26074 0.04807 0.67942 0.0
H2364 H 0.21769 0.06367 0.71047 0.0
H2365 H 0.2171 0.04009 0.73532 0.0
C2366 C 0.24871 0.94616 0.72002 0.0
C2367 C 0.23794 0.94342 0.70191 0.0
C2368 C 0.24868 0.96046 0.73217 0.0
C2369 C 0.23784 0.97232 0.72656 0.0
C2370 C 0.22702 0.96951 0.7086 0.0
C2371 C 0.22704 0.95526 0.69648 0.0
C2372 C 0.23782 0.98771 0.73911 0.0
C2373 C 0.2388 1.00163 0.72608 0.0
C2374 C 0.23672 0.98878 0.76368 0.0
C2375 C 0.23472 0.97468 0.77849 0.0
C2376 C 0.2221 0.96437 0.77475 0.0
C2377 C 0.22032 0.95106 0.78869 0.0
C2378 C 0.23101 0.94799 0.80655 0.0
C2379 C 0.24349 0.95825 0.81054 0.0
C2380 C 0.24533 0.97158 0.79663 0.0
C2381 C 0.22616 0.05053 0.80264 0.0
C2382 C 0.23796 0.06177 0.79887 0.0
C2383 C 0.22614 0.03632 0.79041 0.0
C2384 C 0.23791 0.03294 0.77404 0.0
C2385 C 0.24968 0.0442 0.77012 0.0
C2386 C 0.24966 0.05849 0.7823 0.0
C2387 C 0.2379 0.01754 0.76146 0.0
C2388 C 0.23693 0.0036 0.77449 0.0
C2389 C 0.23871 0.01647 0.73685 0.0
C2390 C 0.23886 0.03061 0.72184 0.0
C2391 C 0.25106 0.03294 0.70577 0.0
C2392 C 0.25126 0.0463 0.69168 0.0
C2393 C 0.23927 0.05739 0.69342 0.0
C2394 C 0.22701 0.0551 0.7092 0.0
C2395 C 0.22675 0.04175 0.72332 0.0
H2396 H 0.23945 0.06773 0.68251 0.0
H2397 H 0.22961 0.93768 0.81733 0.0
H2398 H 0.95562 0.21997 0.81856 0.0
H2399 H 0.98046 0.22013 0.79757 0.0
H2400 H 0.96269 0.25589 0.75147 0.0
H2401 H 0.93785 0.25611 0.77299 0.0
H2402 H 0.9897 0.21347 0.75644 0.0
H2403 H 0.99234 0.27948 0.73298 0.0
H2404 H 0.98298 0.30482 0.74837 0.0
H2405 H 0.98123 0.28548 0.81737 0.0
H2406 H 0.99077 0.26011 0.80245 0.0
H2407 H 0.05097 0.22485 0.67504 0.0
H2408 H 0.02605 0.22446 0.69588 0.0
H2409 H 0.04616 0.2529 0.75035 0.0
H2410 H 0.07101 0.25386 0.72895 0.0
H2411 H 0.01848 0.2631 0.74265 0.0
H2412 H 0.03881 0.21176 0.75604 0.0
H2413 H 0.04995 0.18601 0.74568 0.0
H2414 H 0.00883 0.17522 0.70566 0.0
H2415 H 0.99753 0.20099 0.71553 0.0
C2416 C 0.95693 0.22784 0.80389 0.0
C2417 C 0.94471 0.23808 0.79755 0.0
C2418 C 0.97119 0.22789 0.79182 0.0
C2419 C 0.97367 0.23816 0.77303 0.0
C2420 C 0.96128 0.24806 0.76618 0.0
C2421 C 0.94701 0.2481 0.7784 0.0
C2422 C 0.98925 0.23852 0.76097 0.0
C2423 C 0.99594 0.22435 0.75338 0.0
C2424 C 0.99772 0.25262 0.75736 0.0
C2425 C 0.9921 0.26786 0.76654 0.0
C2426 C 0.99 0.28066 0.75144 0.0
C2427 C 0.98466 0.29502 0.76009 0.0
C2428 C 0.98146 0.29674 0.78382 0.0
C2429 C 0.98365 0.28412 0.79898 0.0
C2430 C 0.989 0.26974 0.79043 0.0
C2431 C 0.05015 0.23095 0.69154 0.0
C2432 C 0.06306 0.23931 0.70038 0.0
C2433 C 0.03585 0.23066 0.70354 0.0
C2434 C 0.03415 0.23843 0.72499 0.0
C2435 C 0.04707 0.24678 0.73388 0.0
C2436 C 0.06133 0.24726 0.72169 0.0
C2437 C 0.01886 0.23805 0.7379 0.0
C2438 C 0.01222 0.25222 0.74562 0.0
C2439 C 0.01065 0.22389 0.74228 0.0
C2440 C 0.01739 0.20836 0.73635 0.0
C2441 C 0.03219 0.20394 0.7449 0.0
C2442 C 0.03853 0.18933 0.73913 0.0
C2443 C 0.03012 0.179 0.72498 0.0
C2444 C 0.01534 0.18324 0.7166 0.0
C2445 C 0.00896 0.19784 0.72229 0.0
H2446 H 0.03505 0.1677 0.72053 0.0
H2447 H 0.97732 0.30786 0.79047 0.0
H2448 H 0.75174 0.5699 0.73217 0.0
H2449 H 0.75146 0.54483 0.75305 0.0
H2450 H 0.7222 0.52494 0.69935 0.0
H2451 H 0.72183 0.55008 0.67917 0.0
H2452 H 0.71254 0.51398 0.7371 0.0
H2453 H 0.76399 0.51831 0.70454 0.0
H2454 H 0.78967 0.53058 0.69699 0.0
H2455 H 0.80018 0.52956 0.77011 0.0
H2456 H 0.77448 0.51745 0.77812 0.0
H2457 H 0.75653 0.43658 0.77525 0.0
H2458 H 0.75567 0.46128 0.75343 0.0
H2459 H 0.71988 0.47858 0.79984 0.0
H2460 H 0.72037 0.45386 0.82115 0.0
H2461 H 0.76233 0.49002 0.7639 0.0
H2462 H 0.69596 0.50423 0.77333 0.0
H2463 H 0.67074 0.49017 0.77563 0.0
H2464 H 0.69083 0.45093 0.73956 0.0
H2465 H 0.7161 0.46484 0.73676 0.0
C2466 C 0.74513 0.56021 0.72496 0.0
C2467 C 0.73681 0.56203 0.70398 0.0
C2468 C 0.74509 0.54579 0.73681 0.0
C2469 C 0.73706 0.53273 0.72766 0.0
C2470 C 0.7285 0.53471 0.70693 0.0
C2471 C 0.72832 0.54915 0.69533 0.0
C2472 C 0.73756 0.51701 0.73941 0.0
C2473 C 0.72346 0.50881 0.74297 0.0
C2474 C 0.75178 0.50989 0.74671 0.0
C2475 C 0.76726 0.51712 0.74194 0.0
C2476 C 0.77174 0.52079 0.71902 0.0
C2477 C 0.78631 0.5277 0.71466 0.0
C2478 C 0.79653 0.53088 0.73307 0.0
C2479 C 0.79224 0.52711 0.75587 0.0
C2480 C 0.77768 0.52021 0.76033 0.0
C2481 C 0.74835 0.44558 0.78062 0.0
C2482 C 0.73844 0.44314 0.79987 0.0
C2483 C 0.74793 0.45977 0.7682 0.0
C2484 C 0.7376 0.47186 0.77473 0.0
C2485 C 0.72774 0.46941 0.79402 0.0
C2486 C 0.72806 0.45522 0.80629 0.0
C2487 C 0.7373 0.48713 0.76176 0.0
C2488 C 0.75142 0.49523 0.75804 0.0
C2489 C 0.72316 0.49393 0.75362 0.0
C2490 C 0.70797 0.48552 0.75507 0.0
C2491 C 0.69498 0.49263 0.76582 0.0
C2492 C 0.68068 0.48468 0.76722 0.0
C2493 C 0.6792 0.46965 0.75782 0.0
C2494 C 0.69201 0.46255 0.74692 0.0
C2495 C 0.70633 0.47045 0.74545 0.0
H2496 H 0.66812 0.46351 0.75893 0.0
H2497 H 0.8078 0.53623 0.72965 0.0
H2498 H 0.56971 0.75223 0.77347 0.0
H2499 H 0.5449 0.75201 0.75189 0.0
H2500 H 0.52305 0.72646 0.80806 0.0
H2501 H 0.5479 0.72597 0.82896 0.0
H2502 H 0.51244 0.71512 0.77127 0.0
H2503 H 0.51823 0.76824 0.79736 0.0
H2504 H 0.5314 0.7938 0.8018 0.0
H2505 H 0.53166 0.7998 0.72754 0.0
H2506 H 0.51865 0.77418 0.72266 0.0
H2507 H 0.43662 0.75847 0.72675 0.0
H2508 H 0.46114 0.75824 0.74909 0.0
H2509 H 0.47853 0.72062 0.70609 0.0
H2510 H 0.45406 0.72061 0.68409 0.0
H2511 H 0.49054 0.764 0.73773 0.0
H2512 H 0.50261 0.69695 0.73671 0.0
H2513 H 0.48772 0.67216 0.7369 0.0
H2514 H 0.44876 0.69537 0.76929 0.0
H2515 H 0.46348 0.72023 0.76959 0.0
C2516 C 0.55962 0.74648 0.78111 0.0
C2517 C 0.56082 0.73911 0.80294 0.0
C2518 C 0.54536 0.74647 0.76884 0.0
C2519 C 0.53186 0.73945 0.77841 0.0
C2520 C 0.53318 0.73194 0.80012 0.0
C2521 C 0.54746 0.73169 0.81213 0.0
C2522 C 0.51636 0.73983 0.76603 0.0
C2523 C 0.50773 0.72584 0.76393 0.0
C2524 C 0.50985 0.75381 0.75675 0.0
C2525 C 0.5176 0.76924 0.75964 0.0
C2526 C 0.52118 0.77497 0.78198 0.0
C2527 C 0.52861 0.78947 0.78457 0.0
C2528 C 0.5324 0.7984 0.76496 0.0
C2529 C 0.52874 0.79286 0.74272 0.0
C2530 C 0.52132 0.77836 0.74002 0.0
C2531 C 0.44561 0.75005 0.72221 0.0
C2532 C 0.44329 0.73949 0.7037 0.0
C2533 C 0.45968 0.74999 0.73492 0.0
C2534 C 0.47173 0.73933 0.72948 0.0
C2535 C 0.46939 0.7288 0.71097 0.0
C2536 C 0.45535 0.72883 0.69833 0.0
C2537 C 0.4868 0.73929 0.74287 0.0
C2538 C 0.49532 0.7533 0.74508 0.0
C2539 C 0.49301 0.72543 0.75288 0.0
C2540 C 0.4841 0.71049 0.75293 0.0
C2541 C 0.49089 0.69675 0.74394 0.0
C2542 C 0.48247 0.68269 0.74395 0.0
C2543 C 0.46728 0.68221 0.75303 0.0
C2544 C 0.4605 0.69578 0.76218 0.0
C2545 C 0.46887 0.70986 0.76223 0.0
H2546 H 0.46079 0.67131 0.75301 0.0
H2547 H 0.53816 0.80962 0.76701 0.0
H2548 H 0.24811 0.4383 0.72316 0.0
H2549 H 0.24742 0.46323 0.74441 0.0
H2550 H 0.2877 0.47927 0.70581 0.0
H2551 H 0.28829 0.45456 0.68433 0.0
H2552 H 0.26665 0.4782 0.77274 0.0
H2553 H 0.28521 0.51836 0.69595 0.0
H2554 H 0.28313 0.5191 0.6531 0.0
H2555 H 0.24202 0.49014 0.65603 0.0
H2556 H 0.24373 0.48942 0.69888 0.0
H2557 H 0.28851 0.55216 0.81721 0.0
H2558 H 0.28799 0.52755 0.79552 0.0
H2559 H 0.24709 0.54325 0.75805 0.0
H2560 H 0.24775 0.56812 0.77944 0.0
H2561 H 0.26591 0.52842 0.72917 0.0
H2562 H 0.2444 0.51684 0.8039 0.0
H2563 H 0.24345 0.51609 0.84681 0.0
H2564 H 0.28506 0.48779 0.84812 0.0
H2565 H 0.28638 0.48856 0.80521 0.0
C2566 C 0.25688 0.4471 0.7193 0.0
C2567 C 0.26821 0.44443 0.70194 0.0
C2568 C 0.25648 0.46137 0.73148 0.0
C2569 C 0.26735 0.47331 0.72652 0.0
C2570 C 0.27897 0.47043 0.7097 0.0
C2571 C 0.27936 0.45622 0.6975 0.0
C2572 C 0.26649 0.4888 0.73872 0.0
C2573 C 0.26651 0.48916 0.76318 0.0
C2574 C 0.26594 0.5032 0.72638 0.0
C2575 C 0.2647 0.50371 0.70062 0.0
C2576 C 0.2757 0.5122 0.68745 0.0
C2577 C 0.27459 0.51261 0.66316 0.0
C2578 C 0.26248 0.50463 0.65185 0.0
C2579 C 0.25142 0.49627 0.6648 0.0
C2580 C 0.25247 0.49584 0.68909 0.0
C2581 C 0.27945 0.55046 0.80424 0.0
C2582 C 0.26812 0.56214 0.80016 0.0
C2583 C 0.27911 0.53629 0.79192 0.0
C2584 C 0.26733 0.53332 0.77538 0.0
C2585 C 0.25628 0.54517 0.77075 0.0
C2586 C 0.25666 0.55941 0.78302 0.0
C2587 C 0.26648 0.51783 0.7632 0.0
C2588 C 0.2661 0.51746 0.73874 0.0
C2589 C 0.26634 0.50342 0.77555 0.0
C2590 C 0.26556 0.50288 0.80135 0.0
C2591 C 0.25341 0.51055 0.81334 0.0
C2592 C 0.2528 0.51011 0.83767 0.0
C2593 C 0.26421 0.50193 0.85019 0.0
C2594 C 0.27624 0.49414 0.8384 0.0
C2595 C 0.27691 0.49456 0.81408 0.0
H2596 H 0.26372 0.5016 0.86902 0.0
H2597 H 0.26165 0.50495 0.63304 0.0
H2598 H 0.45421 0.28387 0.82377 0.0
H2599 H 0.47872 0.28407 0.80196 0.0
H2600 H 0.45943 0.25086 0.7531 0.0
H2601 H 0.43492 0.25023 0.77545 0.0
H2602 H 0.48799 0.2427 0.76208 0.0
H2603 H 0.4644 0.29097 0.73982 0.0
H2604 H 0.45154 0.31657 0.74545 0.0
H2605 H 0.49197 0.33351 0.78218 0.0
H2606 H 0.50499 0.30792 0.77706 0.0
H2607 H 0.5493 0.28358 0.67997 0.0
H2608 H 0.52412 0.28347 0.70012 0.0
H2609 H 0.54305 0.25228 0.75216 0.0
H2610 H 0.56818 0.2519 0.73146 0.0
H2611 H 0.51369 0.29251 0.73917 0.0
H2612 H 0.51486 0.22886 0.77462 0.0
H2613 H 0.52589 0.20308 0.76409 0.0
H2614 H 0.52718 0.21667 0.6921 0.0
H2615 H 0.51597 0.24243 0.70216 0.0
C2616 C 0.45509 0.27667 0.80829 0.0
C2617 C 0.44251 0.2671 0.80131 0.0
C2618 C 0.46916 0.27685 0.79573 0.0
C2619 C 0.47098 0.26766 0.77558 0.0
C2620 C 0.4584 0.25809 0.76854 0.0
C2621 C 0.44433 0.2578 0.78126 0.0
C2622 C 0.48609 0.26787 0.76223 0.0
C2623 C 0.49358 0.25361 0.75707 0.0
C2624 C 0.49337 0.28204 0.75517 0.0
C2625 C 0.48561 0.29747 0.75823 0.0
C2626 C 0.4705 0.30011 0.74924 0.0
C2627 C 0.46319 0.31463 0.75232 0.0
C2628 C 0.47092 0.32665 0.76421 0.0
C2629 C 0.48599 0.32418 0.773 0.0
C2630 C 0.49335 0.30968 0.76999 0.0
C2631 C 0.54815 0.27673 0.69576 0.0
C2632 C 0.56079 0.26769 0.70402 0.0
C2633 C 0.53369 0.27669 0.70733 0.0
C2634 C 0.53146 0.26769 0.72757 0.0
C2635 C 0.54425 0.25905 0.7363 0.0
C2636 C 0.55869 0.25893 0.72455 0.0
C2637 C 0.51574 0.26734 0.73932 0.0
C2638 C 0.50813 0.28159 0.74419 0.0
C2639 C 0.50813 0.25314 0.74546 0.0
C2640 C 0.51473 0.23763 0.7392 0.0
C2641 C 0.51745 0.22632 0.75654 0.0
C2642 C 0.52374 0.21172 0.75065 0.0
C2643 C 0.52728 0.20826 0.72745 0.0
C2644 C 0.52449 0.21938 0.71007 0.0
C2645 C 0.51818 0.23399 0.71586 0.0
H2646 H 0.53216 0.19695 0.72293 0.0
H2647 H 0.46524 0.33788 0.76658 0.0
H2648 H 0.24025 0.56229 0.21259 0.0
H2649 H 0.23989 0.53691 0.23242 0.0
H2650 H 0.28964 0.53207 0.22055 0.0
H2651 H 0.28968 0.55686 0.19921 0.0
H2652 H 0.27867 0.50597 0.21341 0.0
H2653 H 0.27052 0.54101 0.27712 0.0
H2654 H 0.25809 0.56237 0.29941 0.0
H2655 H 0.21453 0.53717 0.29984 0.0
H2656 H 0.22665 0.51574 0.2773 0.0
H2657 H 0.2893 0.44708 0.30337 0.0
H2658 H 0.28911 0.47213 0.28235 0.0
H2659 H 0.24033 0.46549 0.2656 0.0
H2660 H 0.24056 0.44018 0.28599 0.0
H2661 H 0.25052 0.49673 0.2877 0.0
H2662 H 0.26132 0.46107 0.22378 0.0
H2663 H 0.27618 0.43993 0.20455 0.0
H2664 H 0.31826 0.46738 0.20888 0.0
H2665 H 0.30368 0.48859 0.22847 0.0
C2666 C 0.25112 0.55586 0.21445 0.0
C2667 C 0.265 0.56161 0.20445 0.0
C2668 C 0.25096 0.54133 0.22595 0.0
C2669 C 0.2648 0.53247 0.22852 0.0
C2670 C 0.27874 0.53848 0.21887 0.0
C2671 C 0.2788 0.55275 0.20677 0.0
C2672 C 0.26474 0.51676 0.24042 0.0
C2673 C 0.27266 0.50414 0.22983 0.0
C2674 C 0.25678 0.51399 0.26177 0.0
C2675 C 0.24945 0.52685 0.27532 0.0
C2676 C 0.25826 0.54008 0.28183 0.0
C2677 C 0.25127 0.55219 0.29453 0.0
C2678 C 0.23552 0.55115 0.30098 0.0
C2679 C 0.22672 0.53797 0.2948 0.0
C2680 C 0.23365 0.52584 0.28208 0.0
C2681 C 0.27858 0.45085 0.29496 0.0
C2682 C 0.26496 0.44159 0.29626 0.0
C2683 C 0.27848 0.46519 0.283 0.0
C2684 C 0.26469 0.47072 0.27248 0.0
C2685 C 0.2511 0.46147 0.27363 0.0
C2686 C 0.25128 0.44696 0.28514 0.0
C2687 C 0.26443 0.48627 0.26065 0.0
C2688 C 0.25648 0.49876 0.27129 0.0
C2689 C 0.27271 0.48904 0.23974 0.0
C2690 C 0.28144 0.47634 0.22781 0.0
C2691 C 0.27377 0.46254 0.22083 0.0
C2692 C 0.28214 0.45055 0.20982 0.0
C2693 C 0.29817 0.45229 0.20555 0.0
C2694 C 0.30585 0.46604 0.21223 0.0
C2695 C 0.29754 0.47805 0.22326 0.0
H2696 H 0.30462 0.443 0.19703 0.0
H2697 H 0.23013 0.56053 0.31082 0.0
H2698 H 0.5702 0.24415 0.28008 0.0
H2699 H 0.54526 0.244 0.25881 0.0
H2700 H 0.53011 0.28466 0.29732 0.0
H2701 H 0.55481 0.28473 0.31876 0.0
H2702 H 0.50708 0.26428 0.29577 0.0
H2703 H 0.54199 0.28691 0.23959 0.0
H2704 H 0.56551 0.28825 0.21472 0.0
H2705 H 0.55155 0.24598 0.17985 0.0
H2706 H 0.52803 0.24428 0.20474 0.0
H2707 H 0.45594 0.2846 0.18649 0.0
H2708 H 0.48074 0.28439 0.20767 0.0
H2709 H 0.46535 0.2441 0.24683 0.0
H2710 H 0.44028 0.24445 0.2259 0.0
H2711 H 0.50367 0.26425 0.20956 0.0
H2712 H 0.4828 0.24414 0.30052 0.0
H2713 H 0.45927 0.24571 0.32542 0.0
H2714 H 0.44517 0.28801 0.29075 0.0
H2715 H 0.46869 0.2868 0.26586 0.0
C2716 C 0.56161 0.25314 0.28385 0.0
C2717 C 0.56457 0.26447 0.30111 0.0
C2718 C 0.54733 0.25305 0.27166 0.0
C2719 C 0.53571 0.26436 0.27633 0.0
C2720 C 0.53877 0.27576 0.29339 0.0
C2721 C 0.55299 0.27584 0.30558 0.0
C2722 C 0.5203 0.26426 0.2638 0.0
C2723 C 0.50637 0.26421 0.27691 0.0
C2724 C 0.51922 0.26439 0.23917 0.0
C2725 C 0.53334 0.26538 0.22419 0.0
C2726 C 0.544 0.27783 0.22674 0.0
C2727 C 0.55732 0.27867 0.21262 0.0
C2728 C 0.56005 0.26718 0.19576 0.0
C2729 C 0.54943 0.25485 0.19294 0.0
C2730 C 0.5361 0.25395 0.20704 0.0
C2731 C 0.45774 0.27575 0.19973 0.0
C2732 C 0.44603 0.26458 0.20453 0.0
C2733 C 0.47202 0.27559 0.21177 0.0
C2734 C 0.47502 0.26428 0.22899 0.0
C2735 C 0.46332 0.25311 0.23389 0.0
C2736 C 0.44896 0.2533 0.22187 0.0
C2737 C 0.49044 0.2642 0.24153 0.0
C2738 C 0.50437 0.26419 0.22842 0.0
C2739 C 0.49153 0.26434 0.26616 0.0
C2740 C 0.47741 0.26527 0.28116 0.0
C2741 C 0.47469 0.2538 0.29826 0.0
C2742 C 0.46136 0.25462 0.31236 0.0
C2743 C 0.4507 0.26692 0.30961 0.0
C2744 C 0.45339 0.27846 0.2928 0.0
C2745 C 0.46672 0.2777 0.27867 0.0
H2746 H 0.44038 0.26754 0.32053 0.0
H2747 H 0.57036 0.26785 0.18484 0.0
H2748 H 0.72113 0.55085 0.32292 0.0
H2749 H 0.72123 0.52591 0.30218 0.0
H2750 H 0.7566 0.5436 0.25535 0.0
H2751 H 0.75685 0.56855 0.27659 0.0
H2752 H 0.71413 0.51683 0.26114 0.0
H2753 H 0.77995 0.51378 0.23637 0.0
H2754 H 0.80547 0.52293 0.25134 0.0
H2755 H 0.78671 0.52474 0.32067 0.0
H2756 H 0.76115 0.51541 0.30618 0.0
H2757 H 0.72412 0.45633 0.17861 0.0
H2758 H 0.72436 0.48104 0.1999 0.0
H2759 H 0.7531 0.46003 0.25328 0.0
H2760 H 0.75344 0.43534 0.23136 0.0
H2761 H 0.76346 0.4878 0.24606 0.0
H2762 H 0.71211 0.46771 0.26012 0.0
H2763 H 0.68622 0.4568 0.25007 0.0
H2764 H 0.67533 0.49825 0.21087 0.0
H2765 H 0.70125 0.50934 0.22045 0.0
C2766 C 0.72891 0.5495 0.30815 0.0
C2767 C 0.73902 0.56174 0.30149 0.0
C2768 C 0.72894 0.53518 0.29624 0.0
C2769 C 0.73905 0.53267 0.27728 0.0
C2770 C 0.74888 0.54504 0.27018 0.0
C2771 C 0.74894 0.55938 0.28224 0.0
C2772 C 0.73923 0.5171 0.26517 0.0
C2773 C 0.72495 0.51054 0.25781 0.0
C2774 C 0.75324 0.50856 0.26121 0.0
C2775 C 0.7686 0.51407 0.27013 0.0
C2776 C 0.78129 0.51609 0.25482 0.0
C2777 C 0.79576 0.52131 0.26322 0.0
C2778 C 0.79769 0.52447 0.28693 0.0
C2779 C 0.78518 0.52236 0.3023 0.0
C2780 C 0.77069 0.51712 0.294 0.0
C2781 C 0.73042 0.4569 0.19497 0.0
C2782 C 0.73866 0.44377 0.20335 0.0
C2783 C 0.7305 0.47108 0.20723 0.0
C2784 C 0.73851 0.47247 0.22853 0.0
C2785 C 0.74679 0.45936 0.23694 0.0
C2786 C 0.74692 0.44519 0.22446 0.0
C2787 C 0.73837 0.48763 0.24179 0.0
C2788 C 0.75265 0.49412 0.24933 0.0
C2789 C 0.7243 0.49589 0.24656 0.0
C2790 C 0.70868 0.48929 0.24084 0.0
C2791 C 0.70423 0.47446 0.24923 0.0
C2792 C 0.68955 0.46825 0.24364 0.0
C2793 C 0.67915 0.47681 0.2298 0.0
C2794 C 0.68341 0.49163 0.22157 0.0
C2795 C 0.69809 0.49788 0.2271 0.0
H2796 H 0.66779 0.47198 0.22548 0.0
H2797 H 0.8089 0.52852 0.29339 0.0
H2798 H 0.45241 0.71964 0.31769 0.0
H2799 H 0.4774 0.72009 0.29698 0.0
H2800 H 0.46205 0.76034 0.25769 0.0
H2801 H 0.43683 0.75982 0.27823 0.0
H2802 H 0.47758 0.74071 0.22998 0.0
H2803 H 0.4873 0.76433 0.30385 0.0
H2804 H 0.48711 0.76636 0.34669 0.0
H2805 H 0.51606 0.72532 0.35165 0.0
H2806 H 0.51623 0.72292 0.30882 0.0
H2807 H 0.56746 0.75967 0.22583 0.0
H2808 H 0.54231 0.76052 0.24655 0.0
H2809 H 0.52736 0.71886 0.21029 0.0
H2810 H 0.55225 0.71811 0.18935 0.0
H2811 H 0.52694 0.74193 0.27568 0.0
H2812 H 0.48856 0.72053 0.19859 0.0
H2813 H 0.48868 0.72122 0.15563 0.0
H2814 H 0.51701 0.7628 0.15689 0.0
H2815 H 0.51688 0.76248 0.19984 0.0
C2816 C 0.45426 0.72853 0.30451 0.0
C2817 C 0.44258 0.73974 0.29971 0.0
C2818 C 0.46864 0.72883 0.29276 0.0
C2819 C 0.47181 0.74042 0.276 0.0
C2820 C 0.45997 0.75131 0.27059 0.0
C2821 C 0.44553 0.75101 0.28236 0.0
C2822 C 0.48752 0.74123 0.26444 0.0
C2823 C 0.48836 0.74095 0.24001 0.0
C2824 C 0.50167 0.74192 0.27738 0.0
C2825 C 0.50166 0.74337 0.30313 0.0
C2826 C 0.49353 0.75567 0.31408 0.0
C2827 C 0.49344 0.7569 0.33836 0.0
C2828 C 0.50154 0.74595 0.35188 0.0
C2829 C 0.50978 0.73378 0.34115 0.0
C2830 C 0.50989 0.73249 0.31687 0.0
C2831 C 0.55887 0.75061 0.22244 0.0
C2832 C 0.56188 0.73887 0.20581 0.0
C2833 C 0.54447 0.75111 0.23429 0.0
C2834 C 0.53274 0.73992 0.22973 0.0
C2835 C 0.53601 0.72784 0.21381 0.0
C2836 C 0.55034 0.72737 0.20193 0.0
C2837 C 0.51702 0.74096 0.24124 0.0
C2838 C 0.51617 0.74163 0.26565 0.0
C2839 C 0.50286 0.74096 0.22827 0.0
C2840 C 0.50283 0.74138 0.20243 0.0
C2841 C 0.49476 0.72985 0.1897 0.0
C2842 C 0.49484 0.73018 0.16535 0.0
C2843 C 0.50289 0.74202 0.15354 0.0
C2844 C 0.51083 0.7536 0.16606 0.0
C2845 C 0.51077 0.75334 0.1904 0.0
H2846 H 0.50295 0.74224 0.13469 0.0
H2847 H 0.50145 0.74692 0.37068 0.0
H2848 H 0.18439 0.12791 0.16788 0.0
H2849 H 0.16648 0.14207 0.19331 0.0
H2850 H 0.20018 0.1395 0.24917 0.0
H2851 H 0.21824 0.12497 0.22368 0.0
H2852 H 0.17009 0.13582 0.265 0.0
H2853 H 0.19739 0.17228 0.21538 0.0
H2854 H 0.20651 0.18283 0.17776 0.0
H2855 H 0.15884 0.1887 0.15543 0.0
H2856 H 0.14944 0.17798 0.19282 0.0
H2857 H 0.14697 0.19856 0.3346 0.0
H2858 H 0.16042 0.1808 0.30859 0.0
H2859 H 0.12518 0.18855 0.25599 0.0
H2860 H 0.11157 0.20697 0.28216 0.0
H2861 H 0.15391 0.18849 0.23719 0.0
H2862 H 0.12646 0.15389 0.28804 0.0
H2863 H 0.11735 0.14341 0.32569 0.0
H2864 H 0.16489 0.1339 0.34574 0.0
H2865 H 0.17432 0.14453 0.30833 0.0
C2866 C 0.18797 0.13016 0.18567 0.0
C2867 C 0.20286 0.12547 0.19366 0.0
C2868 C 0.1777 0.13833 0.20018 0.0
C2869 C 0.18212 0.14223 0.22297 0.0
C2870 C 0.19657 0.13673 0.23155 0.0
C2871 C 0.20686 0.12839 0.21702 0.0
C2872 C 0.17195 0.15267 0.23729 0.0
C2873 C 0.16668 0.1474 0.25905 0.0
C2874 C 0.16708 0.16761 0.22921 0.0
C2875 C 0.17272 0.17419 0.2068 0.0
C2876 C 0.18886 0.17572 0.20239 0.0
C2877 C 0.19408 0.18174 0.18111 0.0
C2878 C 0.18327 0.18639 0.16419 0.0
C2879 C 0.16721 0.18507 0.16854 0.0
C2880 C 0.16192 0.17904 0.18977 0.0
C2881 C 0.14189 0.1965 0.31759 0.0
C2882 C 0.12799 0.20413 0.31065 0.0
C2883 C 0.14964 0.18621 0.30271 0.0
C2884 C 0.14365 0.18295 0.28052 0.0
C2885 C 0.12995 0.19074 0.27317 0.0
C2886 C 0.12218 0.20126 0.28811 0.0
C2887 C 0.15214 0.17173 0.26509 0.0
C2888 C 0.15714 0.17685 0.2431 0.0
C2889 C 0.15673 0.15664 0.27295 0.0
C2890 C 0.1511 0.1501 0.29541 0.0
C2891 C 0.13498 0.14965 0.30053 0.0
C2892 C 0.12976 0.14367 0.32183 0.0
C2893 C 0.14053 0.13802 0.33811 0.0
C2894 C 0.15655 0.13829 0.33311 0.0
C2895 C 0.16184 0.14427 0.31184 0.0
H2896 H 0.13646 0.1334 0.3546 0.0
H2897 H 0.18733 0.19105 0.14773 0.0
H2898 H 0.85535 0.2008 0.16804 0.0
H2899 H 0.84197 0.18349 0.19494 0.0
H2900 H 0.87924 0.18929 0.24487 0.0
H2901 H 0.89297 0.20701 0.21769 0.0
H2902 H 0.86875 0.15708 0.23787 0.0
H2903 H 0.84747 0.20718 0.2563 0.0
H2904 H 0.83594 0.23308 0.24798 0.0
H2905 H 0.79591 0.21101 0.21672 0.0
H2906 H 0.80732 0.18496 0.22449 0.0
H2907 H 0.82351 0.12513 0.33152 0.0
H2908 H 0.84012 0.14049 0.30555 0.0
H2909 H 0.80359 0.1404 0.25364 0.0
H2910 H 0.78681 0.12485 0.27971 0.0
H2911 H 0.81476 0.17022 0.26342 0.0
H2912 H 0.83644 0.12015 0.24418 0.0
H2913 H 0.8482 0.09428 0.25191 0.0
H2914 H 0.88759 0.11635 0.28491 0.0
H2915 H 0.87595 0.14236 0.27767 0.0
C2916 C 0.86086 0.19845 0.18467 0.0
C2917 C 0.87534 0.20534 0.19062 0.0
C2918 C 0.85309 0.18854 0.2001 0.0
C2919 C 0.85953 0.18515 0.22195 0.0
C2920 C 0.87406 0.19179 0.22805 0.0
C2921 C 0.88185 0.20194 0.21258 0.0
C2922 C 0.85074 0.17472 0.23809 0.0
C2923 C 0.85707 0.16006 0.24389 0.0
C2924 C 0.83532 0.17845 0.24536 0.0
C2925 C 0.82833 0.1941 0.24081 0.0
C2926 C 0.83627 0.20784 0.24747 0.0
C2927 C 0.82975 0.22255 0.24288 0.0
C2928 C 0.81522 0.22369 0.23178 0.0
C2929 C 0.80717 0.21011 0.2253 0.0
C2930 C 0.81365 0.19536 0.22981 0.0
C2931 C 0.81909 0.12811 0.31439 0.0
C2932 C 0.80381 0.12378 0.30769 0.0
C2933 C 0.82863 0.13688 0.29954 0.0
C2934 C 0.82312 0.14163 0.27764 0.0
C2935 C 0.80808 0.13687 0.27049 0.0
C2936 C 0.79856 0.12787 0.2853 0.0
C2937 C 0.83269 0.15246 0.26306 0.0
C2938 C 0.82647 0.16724 0.25756 0.0
C2939 C 0.84822 0.14884 0.25615 0.0
C2940 C 0.85523 0.13321 0.2606 0.0
C2941 C 0.84753 0.11948 0.25329 0.0
C2942 C 0.85419 0.10479 0.25753 0.0
C2943 C 0.86861 0.10367 0.26895 0.0
C2944 C 0.87641 0.11724 0.2761 0.0
C2945 C 0.86979 0.13196 0.27191 0.0
H2946 H 0.87375 0.09228 0.27221 0.0
H2947 H 0.8102 0.23509 0.22823 0.0
H2948 H 0.877 0.82129 0.3373 0.0
H2949 H 0.86217 0.83839 0.31146 0.0
H2950 H 0.86673 0.80461 0.25602 0.0
H2951 H 0.88193 0.78739 0.2819 0.0
H2952 H 0.86895 0.83459 0.23971 0.0
H2953 H 0.83359 0.80605 0.28942 0.0
H2954 H 0.82327 0.79668 0.32705 0.0
H2955 H 0.81506 0.84417 0.34861 0.0
H2956 H 0.82554 0.85383 0.31121 0.0
H2957 H 0.8055 0.85484 0.16922 0.0
H2958 H 0.82343 0.84196 0.19569 0.0
H2959 H 0.81474 0.8775 0.2475 0.0
H2960 H 0.79625 0.89056 0.22084 0.0
H2961 H 0.81551 0.84864 0.26681 0.0
H2962 H 0.84918 0.87717 0.21582 0.0
H2963 H 0.85938 0.88643 0.17807 0.0
H2964 H 0.87076 0.83916 0.1588 0.0
H2965 H 0.86043 0.82959 0.19631 0.0
C2966 C 0.87506 0.81754 0.31951 0.0
C2967 C 0.88051 0.80285 0.31175 0.0
C2968 C 0.8665 0.82734 0.30477 0.0
C2969 C 0.86295 0.82264 0.28196 0.0
C2970 C 0.86921 0.80843 0.27362 0.0
C2971 C 0.87794 0.79862 0.28839 0.0
C2972 C 0.85211 0.83221 0.26736 0.0
C2973 C 0.85721 0.83752 0.24552 0.0
C2974 C 0.83692 0.83646 0.27521 0.0
C2975 C 0.83049 0.83066 0.29761 0.0
C2976 C 0.82969 0.8145 0.30225 0.0
C2977 C 0.82379 0.80913 0.32353 0.0
C2978 C 0.81855 0.81982 0.34023 0.0
C2979 C 0.81914 0.8359 0.33567 0.0
C2980 C 0.82505 0.84133 0.31443 0.0
C2981 C 0.80736 0.86008 0.18618 0.0
C2982 C 0.7995 0.87393 0.19272 0.0
C2983 C 0.81774 0.85266 0.20132 0.0
C2984 C 0.8208 0.85892 0.22341 0.0
C2985 C 0.81269 0.87252 0.23042 0.0
C2986 C 0.80212 0.87998 0.21519 0.0
C2987 C 0.83228 0.85093 0.23902 0.0
C2988 C 0.8273 0.84587 0.26106 0.0
C2989 C 0.84758 0.84693 0.23136 0.0
C2990 C 0.85393 0.85265 0.20883 0.0
C2991 C 0.85377 0.86874 0.20347 0.0
C2992 C 0.85958 0.87405 0.18212 0.0
C2993 C 0.86569 0.86339 0.16603 0.0
C2994 C 0.86603 0.8474 0.17128 0.0
C2995 C 0.86021 0.84203 0.1926 0.0
H2996 H 0.87018 0.86752 0.14951 0.0
H2997 H 0.81399 0.81565 0.3567 0.0
H2998 H 0.19917 0.85767 0.33284 0.0
H2999 H 0.1821 0.84387 0.30615 0.0
H3000 H 0.19196 0.87788 0.25262 0.0
H3001 H 0.20941 0.89208 0.27964 0.0
H3002 H 0.15916 0.86968 0.25742 0.0
H3003 H 0.2084 0.84415 0.24718 0.0
H3004 H 0.23297 0.83148 0.25966 0.0
H3005 H 0.20672 0.79511 0.29357 0.0
H3006 H 0.18197 0.80771 0.28162 0.0
H3007 H 0.12792 0.8214 0.16696 0.0
H3008 H 0.14306 0.83849 0.19242 0.0
H3009 H 0.13942 0.80453 0.24779 0.0
H3010 H 0.12421 0.78719 0.22215 0.0
H3011 H 0.16965 0.81364 0.24034 0.0
H3012 H 0.12043 0.83945 0.25132 0.0
H3013 H 0.09583 0.85228 0.23938 0.0
H3014 H 0.12196 0.88813 0.20408 0.0
H3015 H 0.14674 0.87538 0.21552 0.0
C3016 C 0.19779 0.86238 0.31545 0.0
C3017 C 0.20574 0.87609 0.30847 0.0
C3018 C 0.188 0.85436 0.30014 0.0
C3019 C 0.18582 0.85974 0.27734 0.0
C3020 C 0.19352 0.87351 0.27018 0.0
C3021 C 0.20353 0.88157 0.28557 0.0
C3022 C 0.1755 0.85066 0.26137 0.0
C3023 C 0.16159 0.85752 0.25325 0.0
C3024 C 0.17845 0.83465 0.25654 0.0
C3025 C 0.19331 0.82696 0.26365 0.0
C3026 C 0.20785 0.83352 0.25746 0.0
C3027 C 0.22182 0.82634 0.26441 0.0
C3028 C 0.2214 0.81252 0.27744 0.0
C3029 C 0.20702 0.80583 0.28349 0.0
C3030 C 0.19302 0.81298 0.27661 0.0
C3031 C 0.13007 0.81764 0.1847 0.0
C3032 C 0.12488 0.80287 0.19249 0.0
C3033 C 0.13871 0.82749 0.19929 0.0
C3034 C 0.14241 0.82284 0.22206 0.0
C3035 C 0.13672 0.80837 0.23026 0.0
C3036 C 0.12791 0.79852 0.21567 0.0
C3037 C 0.15318 0.83258 0.23651 0.0
C3038 C 0.16722 0.82582 0.24436 0.0
C3039 C 0.15033 0.84867 0.24102 0.0
C3040 C 0.13545 0.85636 0.23408 0.0
C3041 C 0.12094 0.84999 0.24083 0.0
C3042 C 0.10696 0.85727 0.23419 0.0
C3043 C 0.10733 0.87099 0.22092 0.0
C3044 C 0.12169 0.87749 0.21432 0.0
C3045 C 0.13571 0.87025 0.2209 0.0
H3046 H 0.09649 0.87661 0.21581 0.0
H3047 H 0.23223 0.80698 0.28281 0.0
H3048 H 0.88159 0.82049 0.67344 0.0
H3049 H 0.86605 0.83776 0.69832 0.0
H3050 H 0.86156 0.80075 0.749 0.0
H3051 H 0.87741 0.78339 0.72417 0.0
H3052 H 0.83271 0.81371 0.7344 0.0
H3053 H 0.8823 0.83157 0.76286 0.0
H3054 H 0.90923 0.84184 0.75994 0.0
H3055 H 0.89203 0.88342 0.72646 0.0
H3056 H 0.86499 0.87329 0.72886 0.0
H3057 H 0.79795 0.85314 0.82758 0.0
H3058 H 0.81544 0.83916 0.80158 0.0
H3059 H 0.81713 0.87923 0.75589 0.0
H3060 H 0.79934 0.89358 0.78231 0.0
H3061 H 0.84711 0.86597 0.76573 0.0
H3062 H 0.79748 0.84861 0.7382 0.0
H3063 H 0.77049 0.83851 0.74126 0.0
H3064 H 0.78768 0.7961 0.77235 0.0
H3065 H 0.81477 0.80604 0.76981 0.0
C3066 C 0.87763 0.81614 0.69016 0.0
C3067 C 0.88074 0.80058 0.69689 0.0
C3068 C 0.86874 0.82604 0.70436 0.0
C3069 C 0.86259 0.82056 0.72549 0.0
C3070 C 0.8662 0.80522 0.73275 0.0
C3071 C 0.87536 0.79536 0.71868 0.0
C3072 C 0.85136 0.83042 0.73888 0.0
C3073 C 0.83593 0.82503 0.74154 0.0
C3074 C 0.85538 0.84548 0.74736 0.0
C3075 C 0.87163 0.85159 0.7458 0.0
C3076 C 0.88427 0.84283 0.75465 0.0
C3077 C 0.89955 0.84864 0.75314 0.0
C3078 C 0.90234 0.86325 0.74295 0.0
C3079 C 0.88985 0.87209 0.73431 0.0
C3080 C 0.87454 0.86633 0.73575 0.0
C3081 C 0.80195 0.85907 0.81199 0.0
C3082 C 0.79727 0.87456 0.80711 0.0
C3083 C 0.81193 0.85098 0.79705 0.0
C3084 C 0.81756 0.85807 0.77672 0.0
C3085 C 0.8129 0.87352 0.77152 0.0
C3086 C 0.80267 0.88166 0.7865 0.0
C3087 C 0.82852 0.84915 0.76148 0.0
C3088 C 0.84388 0.85469 0.75844 0.0
C3089 C 0.82444 0.83423 0.75251 0.0
C3090 C 0.80816 0.82814 0.75398 0.0
C3091 C 0.7955 0.83718 0.74586 0.0
C3092 C 0.78018 0.83148 0.74747 0.0
C3093 C 0.77737 0.81669 0.75704 0.0
C3094 C 0.78987 0.80756 0.76496 0.0
C3095 C 0.80522 0.81322 0.76341 0.0
H3096 H 0.7655 0.81229 0.75828 0.0
H3097 H 0.91419 0.86773 0.74182 0.0
H3098 H 0.20809 0.89337 0.72046 0.0
H3099 H 0.18975 0.88055 0.7475 0.0
H3100 H 0.17808 0.84665 0.69451 0.0
H3101 H 0.19572 0.85944 0.66761 0.0
H3102 H 0.15258 0.85475 0.715 0.0
H3103 H 0.20423 0.83909 0.74139 0.0
H3104 H 0.23103 0.84365 0.75601 0.0
H3105 H 0.21247 0.86761 0.81572 0.0
H3106 H 0.18555 0.86334 0.80129 0.0
H3107 H 0.12324 0.78964 0.78106 0.0
H3108 H 0.13714 0.80794 0.75534 0.0
H3109 H 0.14339 0.83989 0.81282 0.0
H3110 H 0.12982 0.82169 0.8385 0.0
H3111 H 0.17039 0.83525 0.79189 0.0
H3112 H 0.11834 0.84812 0.76683 0.0
H3113 H 0.09175 0.8427 0.75203 0.0
H3114 H 0.11121 0.82317 0.68947 0.0
H3115 H 0.13793 0.82828 0.70404 0.0
C3116 C 0.20156 0.88322 0.71461 0.0
C3117 C 0.20343 0.87752 0.69178 0.0
C3118 C 0.1911 0.87585 0.7301 0.0
C3119 C 0.18254 0.86251 0.72314 0.0
C3120 C 0.18439 0.85695 0.70035 0.0
C3121 C 0.19461 0.86433 0.68493 0.0
C3122 C 0.17182 0.85395 0.73932 0.0
C3123 C 0.15653 0.85041 0.73176 0.0
C3124 C 0.17675 0.84853 0.76144 0.0
C3125 C 0.19291 0.85106 0.77013 0.0
C3126 C 0.20588 0.84543 0.75755 0.0
C3127 C 0.22108 0.84794 0.76582 0.0
C3128 C 0.22345 0.85596 0.78674 0.0
C3129 C 0.21062 0.86143 0.79949 0.0
C3130 C 0.19539 0.85896 0.79129 0.0
C3131 C 0.12728 0.80071 0.78807 0.0
C3132 C 0.1255 0.80412 0.81188 0.0
C3133 C 0.13525 0.81118 0.77336 0.0
C3134 C 0.14139 0.82533 0.78213 0.0
C3135 C 0.13892 0.82903 0.80564 0.0
C3136 C 0.13109 0.81859 0.8203 0.0
C3137 C 0.15125 0.83583 0.76739 0.0
C3138 C 0.16637 0.83972 0.77524 0.0
C3139 C 0.1462 0.84148 0.74547 0.0
C3140 C 0.13014 0.83847 0.73662 0.0
C3141 C 0.11695 0.84257 0.74999 0.0
C3142 C 0.10186 0.83957 0.74163 0.0
C3143 C 0.0998 0.83256 0.71985 0.0
C3144 C 0.11283 0.82858 0.70635 0.0
C3145 C 0.12795 0.83154 0.71464 0.0
H3146 H 0.0881 0.83025 0.71341 0.0
H3147 H 0.23523 0.8579 0.79312 0.0
H3148 H 0.13734 0.18922 0.66342 0.0
H3149 H 0.15088 0.17144 0.68939 0.0
H3150 H 0.13362 0.19719 0.74872 0.0
H3151 H 0.12021 0.2156 0.72247 0.0
H3152 H 0.16391 0.19194 0.75332 0.0
H3153 H 0.12029 0.15944 0.73487 0.0
H3154 H 0.10106 0.14604 0.70975 0.0
H3155 H 0.13813 0.12024 0.67678 0.0
H3156 H 0.15762 0.13364 0.70148 0.0
H3157 H 0.18805 0.13713 0.83669 0.0
H3158 H 0.17123 0.15145 0.81018 0.0
H3159 H 0.19678 0.13295 0.75158 0.0
H3160 H 0.21413 0.11846 0.77832 0.0
H3161 H 0.16204 0.13395 0.74695 0.0
H3162 H 0.20556 0.16751 0.76574 0.0
H3163 H 0.22412 0.18063 0.79224 0.0
H3164 H 0.18596 0.20422 0.8261 0.0
H3165 H 0.16713 0.19103 0.80002 0.0
C3166 C 0.13621 0.19113 0.68199 0.0
C3167 C 0.12769 0.20399 0.69078 0.0
C3168 C 0.14393 0.18078 0.69689 0.0
C3169 C 0.1432 0.18279 0.72109 0.0
C3170 C 0.13435 0.19535 0.73009 0.0
C3171 C 0.1266 0.20582 0.71508 0.0
C3172 C 0.15258 0.17236 0.73665 0.0
C3173 C 0.16326 0.17926 0.75217 0.0
C3174 C 0.15213 0.15577 0.73478 0.0
C3175 C 0.14044 0.14766 0.71991 0.0
C3176 C 0.12436 0.151 0.72214 0.0
C3177 C 0.11341 0.14339 0.708 0.0
C3178 C 0.11838 0.13232 0.69165 0.0
C3179 C 0.13431 0.12882 0.68944 0.0
C3180 C 0.14531 0.13641 0.70353 0.0
C3181 C 0.19018 0.13592 0.81819 0.0
C3182 C 0.20269 0.12672 0.80973 0.0
C3183 C 0.18046 0.14417 0.80303 0.0
C3184 C 0.18286 0.14345 0.77895 0.0
C3185 C 0.19478 0.1337 0.77017 0.0
C3186 C 0.20468 0.12543 0.78546 0.0
C3187 C 0.17328 0.15359 0.76341 0.0
C3188 C 0.16261 0.14663 0.748 0.0
C3189 C 0.17362 0.17012 0.76547 0.0
C3190 C 0.18493 0.17817 0.78106 0.0
C3191 C 0.20111 0.17539 0.77896 0.0
C3192 C 0.21169 0.18286 0.79388 0.0
C3193 C 0.20622 0.19322 0.81088 0.0
C3194 C 0.19017 0.19617 0.81295 0.0
C3195 C 0.17955 0.18871 0.79808 0.0
H3196 H 0.21443 0.19899 0.82242 0.0
H3197 H 0.10988 0.12644 0.68072 0.0
H3198 H 0.87758 0.1845 0.83364 0.0
H3199 H 0.86218 0.16749 0.80833 0.0
H3200 H 0.86402 0.20229 0.75394 0.0
H3201 H 0.87962 0.21949 0.77935 0.0
H3202 H 0.83379 0.19208 0.76329 0.0
H3203 H 0.88365 0.16878 0.74754 0.0
H3204 H 0.90913 0.15677 0.75707 0.0
H3205 H 0.88569 0.11894 0.79201 0.0
H3206 H 0.86005 0.13085 0.78298 0.0
H3207 H 0.80409 0.14937 0.66963 0.0
H3208 H 0.82102 0.1632 0.69646 0.0
H3209 H 0.81385 0.12726 0.74813 0.0
H3210 H 0.79651 0.11303 0.72095 0.0
H3211 H 0.84616 0.13705 0.74214 0.0
H3212 H 0.79621 0.15995 0.75675 0.0
H3213 H 0.77077 0.1719 0.74682 0.0
H3214 H 0.79437 0.21049 0.71409 0.0
H3215 H 0.81998 0.19865 0.72347 0.0
C3216 C 0.87496 0.18846 0.81613 0.0
C3217 C 0.87981 0.20338 0.80851 0.0
C3218 C 0.86617 0.17867 0.80166 0.0
C3219 C 0.86192 0.18358 0.77922 0.0
C3220 C 0.86717 0.19826 0.77121 0.0
C3221 C 0.87618 0.20802 0.78565 0.0
C3222 C 0.85113 0.17379 0.76492 0.0
C3223 C 0.83661 0.18013 0.75838 0.0
C3224 C 0.85453 0.15798 0.75927 0.0
C3225 C 0.86993 0.1508 0.7648 0.0
C3226 C 0.88393 0.15798 0.75746 0.0
C3227 C 0.8984 0.15117 0.76272 0.0
C3228 C 0.89903 0.13712 0.7752 0.0
C3229 C 0.88519 0.12984 0.78238 0.0
C3230 C 0.87068 0.13661 0.77717 0.0
C3231 C 0.80605 0.14423 0.68663 0.0
C3232 C 0.79889 0.12996 0.69303 0.0
C3233 C 0.81574 0.15227 0.70203 0.0
C3234 C 0.81863 0.14636 0.72435 0.0
C3235 C 0.81173 0.13204 0.73094 0.0
C3236 C 0.80179 0.12396 0.71546 0.0
C3237 C 0.82892 0.15542 0.74037 0.0
C3238 C 0.84333 0.14897 0.74721 0.0
C3239 C 0.82542 0.17114 0.74637 0.0
C3240 C 0.81003 0.17833 0.74067 0.0
C3241 C 0.79599 0.17091 0.74725 0.0
C3242 C 0.78153 0.17768 0.74175 0.0
C3243 C 0.78095 0.19193 0.72981 0.0
C3244 C 0.79484 0.19945 0.72333 0.0
C3245 C 0.80933 0.19272 0.72876 0.0
H3246 H 0.76975 0.19718 0.72566 0.0
H3247 H 0.91025 0.13187 0.77924 0.0
H3248 H 0.70989 0.61527 0.72376 0.0
H3249 H 0.69206 0.62921 0.75043 0.0
H3250 H 0.67792 0.65973 0.69441 0.0
H3251 H 0.69532 0.64614 0.66801 0.0
H3252 H 0.68542 0.67617 0.73338 0.0
H3253 H 0.65405 0.63122 0.71242 0.0
H3254 H 0.64833 0.60298 0.70901 0.0
H3255 H 0.6525 0.59781 0.78314 0.0
H3256 H 0.65847 0.626 0.78696 0.0
H3257 H 0.62107 0.71673 0.78206 0.0
H3258 H 0.63583 0.69936 0.75593 0.0
H3259 H 0.64574 0.66842 0.81348 0.0
H3260 H 0.63092 0.68543 0.83941 0.0
H3261 H 0.64082 0.65163 0.77509 0.0
H3262 H 0.67222 0.69596 0.79661 0.0
H3263 H 0.67844 0.72403 0.8009 0.0
H3264 H 0.67516 0.73015 0.72683 0.0
H3265 H 0.66869 0.70214 0.72213 0.0
C3266 C 0.70292 0.62489 0.71714 0.0
C3267 C 0.70414 0.6295 0.69366 0.0
C3268 C 0.69272 0.63284 0.73238 0.0
C3269 C 0.68365 0.64555 0.7244 0.0
C3270 C 0.68482 0.65004 0.70103 0.0
C3271 C 0.69482 0.64213 0.68589 0.0
C3272 C 0.67312 0.6546 0.74012 0.0
C3273 C 0.67558 0.67081 0.74232 0.0
C3274 C 0.66048 0.6476 0.75221 0.0
C3275 C 0.65689 0.63067 0.74994 0.0
C3276 C 0.65389 0.62403 0.72797 0.0
C3277 C 0.65058 0.60804 0.72597 0.0
C3278 C 0.65011 0.5986 0.74584 0.0
C3279 C 0.65291 0.60513 0.76776 0.0
C3280 C 0.65625 0.62111 0.76986 0.0
C3281 C 0.62611 0.70606 0.78902 0.0
C3282 C 0.62495 0.70261 0.8129 0.0
C3283 C 0.63465 0.69619 0.77411 0.0
C3284 C 0.64217 0.68271 0.78283 0.0
C3285 C 0.64015 0.67876 0.80633 0.0
C3286 C 0.6317 0.68859 0.82117 0.0
C3287 C 0.653 0.67325 0.76805 0.0
C3288 C 0.65065 0.65698 0.76613 0.0
C3289 C 0.66585 0.68017 0.7563 0.0
C3290 C 0.6698 0.697 0.75905 0.0
C3291 C 0.6727 0.70332 0.78126 0.0
C3292 C 0.6763 0.71921 0.78376 0.0
C3293 C 0.67715 0.72888 0.76416 0.0
C3294 C 0.67447 0.72266 0.742 0.0
C3295 C 0.67084 0.70677 0.73941 0.0
H3296 H 0.67994 0.74118 0.76613 0.0
H3297 H 0.64753 0.58622 0.74425 0.0
H3298 H 0.31994 0.63571 0.83876 0.0
H3299 H 0.33675 0.65023 0.81237 0.0
H3300 H 0.30987 0.63367 0.75379 0.0
H3301 H 0.2926 0.619 0.78036 0.0
H3302 H 0.34366 0.63402 0.74694 0.0
H3303 H 0.30231 0.66847 0.77125 0.0
H3304 H 0.28508 0.68148 0.79979 0.0
H3305 H 0.3251 0.70272 0.83233 0.0
H3306 H 0.3426 0.68964 0.80417 0.0
H3307 H 0.3668 0.69036 0.66463 0.0
H3308 H 0.35328 0.67289 0.69101 0.0
H3309 H 0.37481 0.69592 0.74971 0.0
H3310 H 0.38827 0.71406 0.72309 0.0
H3311 H 0.34432 0.69179 0.75724 0.0
H3312 H 0.38575 0.65822 0.73205 0.0
H3313 H 0.40307 0.64501 0.70383 0.0
H3314 H 0.36337 0.62191 0.67328 0.0
H3315 H 0.34577 0.63514 0.70112 0.0
C3316 C 0.31754 0.63497 0.82027 0.0
C3317 C 0.3047 0.62628 0.81177 0.0
C3318 C 0.32723 0.64334 0.80519 0.0
C3319 C 0.32442 0.64325 0.78118 0.0
C3320 C 0.31218 0.63395 0.77233 0.0
C3321 C 0.30234 0.62556 0.78753 0.0
C3322 C 0.33393 0.65352 0.76574 0.0
C3323 C 0.34366 0.64667 0.74891 0.0
C3324 C 0.33428 0.66998 0.76886 0.0
C3325 C 0.32378 0.67795 0.78573 0.0
C3326 C 0.30745 0.67581 0.78461 0.0
C3327 C 0.29763 0.68322 0.80069 0.0
C3328 C 0.30399 0.69289 0.8179 0.0
C3329 C 0.32019 0.69521 0.81901 0.0
C3330 C 0.33006 0.68781 0.80298 0.0
C3331 C 0.36887 0.69176 0.68313 0.0
C3332 C 0.3787 0.70375 0.69165 0.0
C3333 C 0.36114 0.68159 0.69825 0.0
C3334 C 0.36315 0.68286 0.72239 0.0
C3335 C 0.37311 0.69465 0.73111 0.0
C3336 C 0.38086 0.70497 0.71588 0.0
C3337 C 0.35413 0.67234 0.73826 0.0
C3338 C 0.34444 0.67914 0.75524 0.0
C3339 C 0.35386 0.65583 0.73528 0.0
C3340 C 0.36443 0.64777 0.71858 0.0
C3341 C 0.3807 0.65041 0.71922 0.0
C3342 C 0.39057 0.6429 0.7033 0.0
C3343 C 0.38432 0.63265 0.68674 0.0
C3344 C 0.36819 0.62986 0.68611 0.0
C3345 C 0.35827 0.63734 0.70197 0.0
H3346 H 0.39198 0.62686 0.67443 0.0
H3347 H 0.29637 0.69861 0.83033 0.0
H3348 H 0.39157 0.29626 0.7834 0.0
H3349 H 0.3778 0.31408 0.75647 0.0
H3350 H 0.34553 0.32661 0.81114 0.0
H3351 H 0.35897 0.30924 0.83781 0.0
H3352 H 0.33043 0.31902 0.77048 0.0
H3353 H 0.37347 0.35148 0.79623 0.0
H3354 H 0.40136 0.35797 0.80203 0.0
H3355 H 0.40914 0.3555 0.72823 0.0
H3356 H 0.38131 0.34879 0.72203 0.0
H3357 H 0.28929 0.38322 0.72248 0.0
H3358 H 0.30639 0.36841 0.74896 0.0
H3359 H 0.33912 0.36064 0.69291 0.0
H3360 H 0.32234 0.37547 0.66663 0.0
H3361 H 0.35467 0.36539 0.73283 0.0
H3362 H 0.31234 0.33304 0.70644 0.0
H3363 H 0.28472 0.32589 0.69965 0.0
H3364 H 0.27595 0.32705 0.77327 0.0
H3365 H 0.30349 0.33444 0.78048 0.0
C3366 C 0.38159 0.30287 0.78966 0.0
C3367 C 0.37647 0.30127 0.81285 0.0
C3368 C 0.37375 0.31307 0.77429 0.0
C3369 C 0.36062 0.32168 0.78183 0.0
C3370 C 0.35558 0.32008 0.80489 0.0
C3371 C 0.36341 0.31012 0.82019 0.0
C3372 C 0.35172 0.33222 0.76594 0.0
C3373 C 0.33571 0.32924 0.76242 0.0
C3374 C 0.35866 0.34536 0.75501 0.0
C3375 C 0.37536 0.34945 0.75869 0.0
C3376 C 0.38116 0.35218 0.78126 0.0
C3377 C 0.39695 0.35593 0.78461 0.0
C3378 C 0.40703 0.35709 0.76552 0.0
C3379 C 0.40132 0.35456 0.74301 0.0
C3380 C 0.38554 0.3508 0.73957 0.0
C3381 C 0.30028 0.37864 0.71596 0.0
C3382 C 0.30433 0.38038 0.69237 0.0
C3383 C 0.31 0.37008 0.73105 0.0
C3384 C 0.32393 0.36316 0.72282 0.0
C3385 C 0.32843 0.36577 0.69968 0.0
C3386 C 0.31874 0.37422 0.68463 0.0
C3387 C 0.3333 0.35231 0.73768 0.0
C3388 C 0.34939 0.35518 0.7409 0.0
C3389 C 0.32648 0.33895 0.74823 0.0
C3390 C 0.30993 0.33447 0.74398 0.0
C3391 C 0.30449 0.3319 0.72117 0.0
C3392 C 0.28886 0.32778 0.71724 0.0
C3393 C 0.27857 0.32606 0.73601 0.0
C3394 C 0.28392 0.32842 0.75875 0.0
C3395 C 0.29954 0.33256 0.76277 0.0
H3396 H 0.26647 0.32286 0.73294 0.0
H3397 H 0.41925 0.36 0.76815 0.0
H3398 H 0.62342 0.28842 0.72502 0.0
H3399 H 0.63819 0.30646 0.7501 0.0
H3400 H 0.64556 0.33733 0.69161 0.0
H3401 H 0.6312 0.31934 0.66657 0.0
H3402 H 0.67222 0.33252 0.71241 0.0
H3403 H 0.62064 0.34681 0.73792 0.0
H3404 H 0.59403 0.3422 0.75322 0.0
H3405 H 0.61343 0.32282 0.81593 0.0
H3406 H 0.64016 0.32712 0.80087 0.0
H3407 H 0.7106 0.39151 0.78182 0.0
H3408 H 0.69213 0.37832 0.75536 0.0
H3409 H 0.68127 0.3447 0.80909 0.0
H3410 H 0.69912 0.35776 0.8354 0.0
H3411 H 0.65534 0.35317 0.78909 0.0
H3412 H 0.70657 0.33661 0.76226 0.0
H3413 H 0.73329 0.3407 0.74703 0.0
H3414 H 0.71449 0.36401 0.68692 0.0
H3415 H 0.68765 0.36021 0.70194 0.0
C3416 C 0.62793 0.2992 0.71766 0.0
C3417 C 0.6262 0.30237 0.69377 0.0
C3418 C 0.63639 0.30952 0.73199 0.0
C3419 C 0.64305 0.32331 0.72277 0.0
C3420 C 0.6407 0.32676 0.69915 0.0
C3421 C 0.63241 0.31644 0.68485 0.0
C3422 C 0.65326 0.33371 0.73718 0.0
C3423 C 0.6684 0.33724 0.72901 0.0
C3424 C 0.64847 0.3397 0.75903 0.0
C3425 C 0.63241 0.33716 0.76817 0.0
C3426 C 0.61923 0.34146 0.7549 0.0
C3427 C 0.60413 0.33892 0.76354 0.0
C3428 C 0.60204 0.33219 0.78551 0.0
C3429 C 0.61506 0.32802 0.79891 0.0
C3430 C 0.63019 0.33052 0.79034 0.0
C3431 C 0.70425 0.38132 0.78795 0.0
C3432 C 0.7064 0.37579 0.81082 0.0
C3433 C 0.69372 0.37376 0.7728 0.0
C3434 C 0.6853 0.36043 0.78017 0.0
C3435 C 0.68746 0.35499 0.80296 0.0
C3436 C 0.69781 0.36253 0.81803 0.0
C3437 C 0.67435 0.35179 0.76445 0.0
C3438 C 0.65907 0.34858 0.77237 0.0
C3439 C 0.67902 0.34605 0.7424 0.0
C3440 C 0.69513 0.34829 0.73335 0.0
C3441 C 0.70815 0.34271 0.74588 0.0
C3442 C 0.72331 0.34496 0.73727 0.0
C3443 C 0.72559 0.35265 0.71606 0.0
C3444 C 0.71271 0.35808 0.70337 0.0
C3445 C 0.69752 0.35588 0.71191 0.0
H3446 H 0.73734 0.35438 0.70942 0.0
H3447 H 0.59034 0.33023 0.79217 0.0
H3448 H 0.38003 0.28543 0.22363 0.0
H3449 H 0.36385 0.30267 0.24803 0.0
H3450 H 0.36841 0.33965 0.19731 0.0
H3451 H 0.38437 0.32248 0.17282 0.0
H3452 H 0.36826 0.35076 0.24429 0.0
H3453 H 0.33786 0.31914 0.19241 0.0
H3454 H 0.33068 0.29417 0.17365 0.0
H3455 H 0.31745 0.27511 0.24002 0.0
H3456 H 0.32478 0.29996 0.25925 0.0
H3457 H 0.29936 0.39299 0.2819 0.0
H3458 H 0.31793 0.37934 0.25593 0.0
H3459 H 0.31455 0.33793 0.29871 0.0
H3460 H 0.29625 0.35129 0.32433 0.0
H3461 H 0.31408 0.33039 0.25303 0.0
H3462 H 0.34502 0.36299 0.30469 0.0
H3463 H 0.35321 0.38806 0.32229 0.0
H3464 H 0.36546 0.40583 0.25473 0.0
H3465 H 0.35714 0.38092 0.23669 0.0
C3466 C 0.378 0.29739 0.21807 0.0
C3467 C 0.38339 0.30257 0.19627 0.0
C3468 C 0.36868 0.3072 0.23193 0.0
C3469 C 0.36477 0.3224 0.22434 0.0
C3470 C 0.37125 0.328 0.20351 0.0
C3471 C 0.38035 0.31814 0.18952 0.0
C3472 C 0.35255 0.33172 0.23659 0.0
C3473 C 0.35638 0.3464 0.24603 0.0
C3474 C 0.33702 0.32608 0.23874 0.0
C3475 C 0.33201 0.31134 0.22728 0.0
C3476 C 0.33348 0.3096 0.20302 0.0
C3477 C 0.32939 0.29549 0.1923 0.0
C3478 C 0.32367 0.28306 0.20565 0.0
C3479 C 0.32191 0.28476 0.22972 0.0
C3480 C 0.32601 0.29887 0.24054 0.0
C3481 C 0.30245 0.38092 0.2855 0.0
C3482 C 0.29644 0.37329 0.30529 0.0
C3483 C 0.31313 0.37316 0.27078 0.0
C3484 C 0.31778 0.35763 0.27552 0.0
C3485 C 0.31121 0.34988 0.29468 0.0
C3486 C 0.30078 0.35761 0.3094 0.0
C3487 C 0.32982 0.34937 0.26127 0.0
C3488 C 0.32594 0.33484 0.25129 0.0
C3489 C 0.34525 0.35524 0.25851 0.0
C3490 C 0.35029 0.37018 0.26933 0.0
C3491 C 0.34934 0.37229 0.29357 0.0
C3492 C 0.35403 0.38646 0.30363 0.0
C3493 C 0.3598 0.39855 0.28963 0.0
C3494 C 0.36095 0.39647 0.26554 0.0
C3495 C 0.35626 0.38233 0.2554 0.0
H3496 H 0.36343 0.4095 0.29744 0.0
H3497 H 0.32062 0.27212 0.19728 0.0
H3498 H 0.65055 0.30379 0.33489 0.0
H3499 H 0.66319 0.32197 0.30856 0.0
H3500 H 0.62678 0.31433 0.25771 0.0
H3501 H 0.61399 0.29553 0.28422 0.0
H3502 H 0.65518 0.31522 0.23737 0.0
H3503 H 0.62806 0.34845 0.29059 0.0
H3504 H 0.61956 0.35815 0.32902 0.0
H3505 H 0.6673 0.36848 0.34703 0.0
H3506 H 0.67612 0.35863 0.30884 0.0
H3507 H 0.6837 0.37702 0.16837 0.0
H3508 H 0.66629 0.36227 0.19389 0.0
H3509 H 0.70027 0.36539 0.2493 0.0
H3510 H 0.71775 0.38057 0.22379 0.0
H3511 H 0.67068 0.36788 0.26602 0.0
H3512 H 0.69779 0.33265 0.21419 0.0
H3513 H 0.70639 0.32278 0.17589 0.0
H3514 H 0.65844 0.31626 0.15538 0.0
H3515 H 0.64955 0.32629 0.19347 0.0
C3516 C 0.64507 0.30594 0.31818 0.0
C3517 C 0.63106 0.29828 0.31187 0.0
C3518 C 0.65234 0.31647 0.30312 0.0
C3519 C 0.64576 0.31991 0.28136 0.0
C3520 C 0.632 0.312 0.27455 0.0
C3521 C 0.6247 0.30126 0.28969 0.0
C3522 C 0.65364 0.33154 0.26586 0.0
C3523 C 0.65827 0.32685 0.24347 0.0
C3524 C 0.65803 0.34664 0.27394 0.0
C3525 C 0.65276 0.3527 0.29688 0.0
C3526 C 0.63676 0.3527 0.3028 0.0
C3527 C 0.63188 0.35824 0.32453 0.0
C3528 C 0.64288 0.36391 0.34047 0.0
C3529 C 0.65879 0.36408 0.33467 0.0
C3530 C 0.66373 0.35855 0.31296 0.0
C3531 C 0.68742 0.37479 0.18611 0.0
C3532 C 0.70222 0.37983 0.19397 0.0
C3533 C 0.67745 0.36626 0.20065 0.0
C3534 C 0.68212 0.36232 0.22333 0.0
C3535 C 0.69646 0.36817 0.23179 0.0
C3536 C 0.70643 0.37689 0.21724 0.0
C3537 C 0.67237 0.35148 0.23769 0.0
C3538 C 0.66743 0.35631 0.25985 0.0
C3539 C 0.66767 0.33653 0.2294 0.0
C3540 C 0.67301 0.33036 0.20658 0.0
C3541 C 0.68908 0.3292 0.20145 0.0
C3542 C 0.69401 0.32357 0.17979 0.0
C3543 C 0.68297 0.31893 0.16319 0.0
C3544 C 0.66698 0.31987 0.16825 0.0
C3545 C 0.66199 0.32552 0.18987 0.0
H3546 H 0.68681 0.31458 0.14643 0.0
H3547 H 0.63908 0.36818 0.35729 0.0
H3548 H 0.68427 0.62879 0.33562 0.0
H3549 H 0.66707 0.64347 0.30973 0.0
H3550 H 0.70112 0.63946 0.25453 0.0
H3551 H 0.71858 0.62471 0.28063 0.0
H3552 H 0.69164 0.66963 0.26092 0.0
H3553 H 0.66641 0.62009 0.25138 0.0
H3554 H 0.65391 0.59544 0.26387 0.0
H3555 H 0.61776 0.62143 0.2987 0.0
H3556 H 0.63017 0.64627 0.2867 0.0
H3557 H 0.64648 0.69776 0.16836 0.0
H3558 H 0.66052 0.68081 0.19498 0.0
H3559 H 0.6275 0.69163 0.24944 0.0
H3560 H 0.6131 0.70902 0.22256 0.0
H3561 H 0.63562 0.65842 0.2447 0.0
H3562 H 0.66087 0.708 0.25363 0.0
H3563 H 0.67336 0.73252 0.24053 0.0
H3564 H 0.70957 0.70615 0.20647 0.0
H3565 H 0.69716 0.68145 0.21905 0.0
C3566 C 0.68804 0.63078 0.31784 0.0
C3567 C 0.70285 0.62561 0.31022 0.0
C3568 C 0.67812 0.63914 0.30301 0.0
C3569 C 0.68275 0.64258 0.28014 0.0
C3570 C 0.69729 0.63695 0.27213 0.0
C3571 C 0.70721 0.62841 0.28698 0.0
C3572 C 0.67288 0.65303 0.26537 0.0
C3573 C 0.67947 0.66703 0.25708 0.0
C3574 C 0.6568 0.64996 0.26104 0.0
C3575 C 0.64932 0.63505 0.26834 0.0
C3576 C 0.65588 0.62056 0.26189 0.0
C3577 C 0.64879 0.60655 0.26884 0.0
C3578 C 0.63507 0.60687 0.28212 0.0
C3579 C 0.6284 0.6212 0.28843 0.0
C3580 C 0.63545 0.63525 0.28155 0.0
C3581 C 0.64201 0.6966 0.18594 0.0
C3582 C 0.62855 0.70484 0.19324 0.0
C3583 C 0.65017 0.68688 0.20119 0.0
C3584 C 0.64516 0.68502 0.22423 0.0
C3585 C 0.63158 0.69293 0.23169 0.0
C3586 C 0.6234 0.7029 0.21636 0.0
C3587 C 0.65445 0.6749 0.24018 0.0
C3588 C 0.64778 0.661 0.24867 0.0
C3589 C 0.67047 0.67803 0.24471 0.0
C3590 C 0.678 0.69286 0.23711 0.0
C3591 C 0.67142 0.70742 0.24316 0.0
C3592 C 0.6785 0.72136 0.23586 0.0
C3593 C 0.69223 0.72089 0.22262 0.0
C3594 C 0.69892 0.70649 0.2167 0.0
C3595 C 0.69188 0.69252 0.22393 0.0
H3596 H 0.69769 0.7317 0.217 0.0
H3597 H 0.6296 0.59601 0.28747 0.0
H3598 H 0.2868 0.62554 0.22428 0.0
H3599 H 0.30436 0.64072 0.24957 0.0
H3600 H 0.34059 0.63848 0.19732 0.0
H3601 H 0.32314 0.62346 0.17202 0.0
H3602 H 0.35268 0.63677 0.243 0.0
H3603 H 0.31921 0.66922 0.19678 0.0
H3604 H 0.29375 0.67736 0.18051 0.0
H3605 H 0.27672 0.68728 0.24932 0.0
H3606 H 0.30206 0.67895 0.26606 0.0
H3607 H 0.39417 0.70582 0.28471 0.0
H3608 H 0.38062 0.68742 0.25833 0.0
H3609 H 0.34088 0.6866 0.30471 0.0
H3610 H 0.35412 0.70463 0.33078 0.0
H3611 H 0.33198 0.69002 0.25927 0.0
H3612 H 0.36646 0.6571 0.30513 0.0
H3613 H 0.39211 0.64841 0.32011 0.0
H3614 H 0.40793 0.63975 0.25029 0.0
H3615 H 0.38241 0.64861 0.23487 0.0
C3616 C 0.29865 0.62789 0.21849 0.0
C3617 C 0.30353 0.62342 0.19608 0.0
C3618 C 0.30866 0.63664 0.23288 0.0
C3619 C 0.32373 0.64091 0.22519 0.0
C3620 C 0.32903 0.63536 0.20362 0.0
C3621 C 0.319 0.62682 0.18915 0.0
C3622 C 0.33325 0.65257 0.23831 0.0
C3623 C 0.34824 0.64846 0.24639 0.0
C3624 C 0.32753 0.66786 0.2426 0.0
C3625 C 0.31245 0.67331 0.23267 0.0
C3626 C 0.31001 0.67305 0.20845 0.0
C3627 C 0.29561 0.6777 0.19915 0.0
C3628 C 0.28363 0.68277 0.21389 0.0
C3629 C 0.28603 0.68331 0.23795 0.0
C3630 C 0.30041 0.67864 0.24735 0.0
C3631 C 0.38252 0.70175 0.28913 0.0
C3632 C 0.37531 0.70661 0.30995 0.0
C3633 C 0.37482 0.6912 0.27414 0.0
C3634 C 0.35975 0.68555 0.27964 0.0
C3635 C 0.35247 0.69075 0.30008 0.0
C3636 C 0.36015 0.70104 0.31506 0.0
C3637 C 0.35131 0.67415 0.26452 0.0
C3638 C 0.3365 0.67835 0.25588 0.0
C3639 C 0.35729 0.65903 0.2596 0.0
C3640 C 0.37261 0.6537 0.26884 0.0
C3641 C 0.37546 0.65348 0.29296 0.0
C3642 C 0.38996 0.6485 0.30153 0.0
C3643 C 0.40166 0.64358 0.28616 0.0
C3644 C 0.39887 0.6436 0.26217 0.0
C3645 C 0.38439 0.64859 0.25351 0.0
H3646 H 0.41288 0.63972 0.29283 0.0
H3647 H 0.27249 0.68627 0.20663 0.0
loop_
_geom_bond_atom_site_label_1
_geom_bond_atom_site_label_2
_geom_bond_distance
_geom_bond_site_symmetry_2
_ccdc_geom_bond_type
Co0 O1 2.216 . S
Co0 O2 2.091 . S
Co0 O4 2.004 . S
Co0 O10 2.021 . S
Co0 O12 2.137 . S
Co0 O13 2.244 . S
O1 Co0 2.216 . S
O1 C8 1.247 . S
O2 Co0 2.091 . S
O2 C8 1.261 . S
C3 O12 1.247 . S
C3 O13 1.272 . S
O4 Co0 2.004 . S
O4 C9 1.259 . S
Co5 O6 2.061 . S
Co5 O11 2.052 . S
Co5 O13 2.135 . S
O6 Co5 2.061 . S
O6 C9 1.235 . S
C7 O10 1.238 . S
C7 O11 1.241 . S
C8 O1 1.247 . S
C8 O2 1.261 . S
C9 O4 1.259 . S
C9 O6 1.235 . S
O10 Co0 2.021 . S
O10 C7 1.238 . S
O11 Co5 2.052 . S
O11 C7 1.241 . S
O12 Co0 2.137 . S
O12 C3 1.247 . S
O13 Co0 2.244 . S
O13 C3 1.272 . S
O13 Co5 2.135 . S
Co14 O15 2.216 . S
Co14 O16 2.091 . S
Co14 O18 2.004 . S
Co14 O24 2.021 . S
Co14 O26 2.137 . S
Co14 O27 2.244 . S
O15 Co14 2.216 . S
O15 C22 1.247 . S
O16 Co14 2.091 . S
O16 C22 1.261 . S
C17 O26 1.247 . S
C17 O27 1.272 . S
O18 Co14 2.004 . S
O18 C23 1.259 . S
Co19 O20 2.061 . S
Co19 O25 2.052 . S
Co19 O27 2.135 . S
O20 Co19 2.061 . S
O20 C23 1.235 . S
C21 O24 1.238 . S
C21 O25 1.241 . S
C22 O15 1.247 . S
C22 O16 1.261 . S
C23 O18 1.259 . S
C23 O20 1.235 . S
O24 Co14 2.021 . S
O24 C21 1.238 . S
O25 Co19 2.052 . S
O25 C21 1.241 . S
O26 Co14 2.137 . S
O26 C17 1.247 . S
O27 Co14 2.244 . S
O27 C17 1.272 . S
O27 Co19 2.135 . S
Co28 O29 2.216 . S
Co28 O30 2.091 . S
Co28 O32 2.004 . S
Co28 O38 2.021 . S
Co28 O40 2.137 . S
Co28 O41 2.244 . S
O29 Co28 2.216 . S
O29 C36 1.247 . S
O30 Co28 2.091 . S
O30 C36 1.261 . S
C31 O40 1.247 . S
C31 O41 1.272 . S
O32 Co28 2.004 . S
O32 C37 1.259 . S
Co33 O34 2.061 . S
Co33 O39 2.052 . S
Co33 O41 2.135 . S
O34 Co33 2.061 . S
O34 C37 1.235 . S
C35 O38 1.238 . S
C35 O39 1.241 . S
C36 O29 1.247 . S
C36 O30 1.261 . S
C37 O32 1.259 . S
C37 O34 1.235 . S
O38 Co28 2.021 . S
O38 C35 1.238 . S
O39 Co33 2.052 . S
O39 C35 1.241 . S
O40 Co28 2.137 . S
O40 C31 1.247 . S
O41 Co28 2.244 . S
O41 C31 1.272 . S
O41 Co33 2.135 . S
Co42 O43 2.216 . S
Co42 O44 2.091 . S
Co42 O46 2.004 . S
Co42 O52 2.021 . S
Co42 O54 2.137 . S
Co42 O55 2.244 . S
O43 Co42 2.216 . S
O43 C50 1.247 . S
O44 Co42 2.091 . S
O44 C50 1.261 . S
C45 O54 1.247 . S
C45 O55 1.272 . S
O46 Co42 2.004 . S
O46 C51 1.259 . S
Co47 O48 2.061 . S
Co47 O53 2.052 . S
Co47 O55 2.135 . S
O48 Co47 2.061 . S
O48 C51 1.235 . S
C49 O52 1.238 . S
C49 O53 1.241 . S
C50 O43 1.247 . S
C50 O44 1.261 . S
C51 O46 1.259 . S
C51 O48 1.235 . S
O52 Co42 2.021 . S
O52 C49 1.238 . S
O53 Co47 2.052 . S
O53 C49 1.241 . S
O54 Co42 2.137 . S
O54 C45 1.247 . S
O55 Co42 2.244 . S
O55 C45 1.272 . S
O55 Co47 2.135 . S
Co56 O57 2.216 . S
Co56 O58 2.091 . S
Co56 O60 2.004 . S
Co56 O66 2.021 . S
Co56 O68 2.137 . S
Co56 O69 2.244 . S
O57 Co56 2.216 . S
O57 C64 1.247 . S
O58 Co56 2.091 . S
O58 C64 1.261 . S
C59 O68 1.247 . S
C59 O69 1.272 . S
O60 Co56 2.004 . S
O60 C65 1.259 . S
Co61 O62 2.061 . S
Co61 O67 2.052 . S
Co61 O69 2.135 . S
O62 Co61 2.061 . S
O62 C65 1.235 . S
C63 O66 1.238 . S
C63 O67 1.241 . S
C64 O57 1.247 . S
C64 O58 1.261 . S
C65 O60 1.259 . S
C65 O62 1.235 . S
O66 Co56 2.021 . S
O66 C63 1.238 . S
O67 Co61 2.052 . S
O67 C63 1.241 . S
O68 Co56 2.137 . S
O68 C59 1.247 . S
O69 Co56 2.244 . S
O69 C59 1.272 . S
O69 Co61 2.135 . S
Co70 O71 2.216 . S
Co70 O72 2.091 . S
Co70 O74 2.004 . S
Co70 O80 2.021 . S
Co70 O82 2.137 . S
Co70 O83 2.244 . S
O71 Co70 2.216 . S
O71 C78 1.247 . S
O72 Co70 2.091 . S
O72 C78 1.261 . S
C73 O82 1.247 . S
C73 O83 1.272 . S
O74 Co70 2.004 . S
O74 C79 1.259 . S
Co75 O76 2.061 . S
Co75 O81 2.052 . S
Co75 O83 2.135 . S
O76 Co75 2.061 . S
O76 C79 1.235 . S
C77 O80 1.238 . S
C77 O81 1.241 . S
C78 O71 1.247 . S
C78 O72 1.261 . S
C79 O74 1.259 . S
C79 O76 1.235 . S
O80 Co70 2.021 . S
O80 C77 1.238 . S
O81 Co75 2.052 . S
O81 C77 1.241 . S
O82 Co70 2.137 . S
O82 C73 1.247 . S
O83 Co70 2.244 . S
O83 C73 1.272 . S
O83 Co75 2.135 . S
Co84 O85 2.216 . S
Co84 O86 2.091 . S
Co84 O88 2.004 . S
Co84 O94 2.021 . S
Co84 O96 2.137 . S
Co84 O97 2.244 . S
O85 Co84 2.216 . S
O85 C92 1.247 . S
O86 Co84 2.091 . S
O86 C92 1.261 . S
C87 O96 1.247 . S
C87 O97 1.272 . S
O88 Co84 2.004 . S
O88 C93 1.259 . S
Co89 O90 2.061 . S
Co89 O95 2.052 . S
Co89 O97 2.135 . S
O90 Co89 2.061 . S
O90 C93 1.235 . S
C91 O94 1.238 . S
C91 O95 1.241 . S
C92 O85 1.247 . S
C92 O86 1.261 . S
C93 O88 1.259 . S
C93 O90 1.235 . S
O94 Co84 2.021 . S
O94 C91 1.238 . S
O95 Co89 2.052 . S
O95 C91 1.241 . S
O96 Co84 2.137 . S
O96 C87 1.247 . S
O97 Co84 2.244 . S
O97 C87 1.272 . S
O97 Co89 2.135 . S
Co98 O99 2.216 . S
Co98 O100 2.091 . S
Co98 O102 2.004 . S
Co98 O108 2.021 . S
Co98 O110 2.137 . S
Co98 O111 2.244 . S
O99 Co98 2.216 . S
O99 C106 1.247 . S
O100 Co98 2.091 . S
O100 C106 1.261 . S
C101 O110 1.247 . S
C101 O111 1.272 . S
O102 Co98 2.004 . S
O102 C107 1.259 . S
Co103 O104 2.061 . S
Co103 O109 2.052 . S
Co103 O111 2.135 . S
O104 Co103 2.061 . S
O104 C107 1.235 . S
C105 O108 1.238 . S
C105 O109 1.241 . S
C106 O99 1.247 . S
C106 O100 1.261 . S
C107 O102 1.259 . S
C107 O104 1.235 . S
O108 Co98 2.021 . S
O108 C105 1.238 . S
O109 Co103 2.052 . S
O109 C105 1.241 . S
O110 Co98 2.137 . S
O110 C101 1.247 . S
O111 Co98 2.244 . S
O111 C101 1.272 . S
O111 Co103 2.135 . S
Co112 O113 2.216 . S
Co112 O114 2.091 . S
Co112 O116 2.004 . S
Co112 O122 2.021 . S
Co112 O124 2.137 . S
Co112 O125 2.244 . S
O113 Co112 2.216 . S
O113 C120 1.247 . S
O114 Co112 2.091 . S
O114 C120 1.261 . S
C115 O124 1.247 . S
C115 O125 1.272 . S
O116 Co112 2.004 . S
O116 C121 1.259 . S
Co117 O118 2.061 . S
Co117 O123 2.052 . S
Co117 O125 2.135 . S
O118 Co117 2.061 . S
O118 C121 1.235 . S
C119 O122 1.238 . S
C119 O123 1.241 . S
C120 O113 1.247 . S
C120 O114 1.261 . S
C121 O116 1.259 . S
C121 O118 1.235 . S
O122 Co112 2.021 . S
O122 C119 1.238 . S
O123 Co117 2.052 . S
O123 C119 1.241 . S
O124 Co112 2.137 . S
O124 C115 1.247 . S
O125 Co112 2.244 . S
O125 C115 1.272 . S
O125 Co117 2.135 . S
Co126 O127 2.216 . S
Co126 O128 2.091 . S
Co126 O130 2.004 . S
Co126 O136 2.021 . S
Co126 O138 2.137 . S
Co126 O139 2.244 . S
O127 Co126 2.216 . S
O127 C134 1.247 . S
O128 Co126 2.091 . S
O128 C134 1.261 . S
C129 O138 1.247 . S
C129 O139 1.272 . S
O130 Co126 2.004 . S
O130 C135 1.259 . S
Co131 O132 2.061 . S
Co131 O137 2.052 . S
Co131 O139 2.135 . S
O132 Co131 2.061 . S
O132 C135 1.235 . S
C133 O136 1.238 . S
C133 O137 1.241 . S
C134 O127 1.247 . S
C134 O128 1.261 . S
C135 O130 1.259 . S
C135 O132 1.235 . S
O136 Co126 2.021 . S
O136 C133 1.238 . S
O137 Co131 2.052 . S
O137 C133 1.241 . S
O138 Co126 2.137 . S
O138 C129 1.247 . S
O139 Co126 2.244 . S
O139 C129 1.272 . S
O139 Co131 2.135 . S
Co140 O141 2.216 . S
Co140 O142 2.091 . S
Co140 O144 2.004 . S
Co140 O150 2.021 . S
Co140 O152 2.137 . S
Co140 O153 2.244 . S
O141 Co140 2.216 . S
O141 C148 1.247 . S
O142 Co140 2.091 . S
O142 C148 1.261 . S
C143 O152 1.247 . S
C143 O153 1.272 . S
O144 Co140 2.004 . S
O144 C149 1.259 . S
Co145 O146 2.061 . S
Co145 O151 2.052 . S
Co145 O153 2.135 . S
O146 Co145 2.061 . S
O146 C149 1.235 . S
C147 O150 1.238 . S
C147 O151 1.241 . S
C148 O141 1.247 . S
C148 O142 1.261 . S
C149 O144 1.259 . S
C149 O146 1.235 . S
O150 Co140 2.021 . S
O150 C147 1.238 . S
O151 Co145 2.052 . S
O151 C147 1.241 . S
O152 Co140 2.137 . S
O152 C143 1.247 . S
O153 Co140 2.244 . S
O153 C143 1.272 . S
O153 Co145 2.135 . S
Co154 O155 2.216 . S
Co154 O156 2.091 . S
Co154 O158 2.004 . S
Co154 O164 2.021 . S
Co154 O166 2.137 . S
Co154 O167 2.244 . S
O155 Co154 2.216 . S
O155 C162 1.247 . S
O156 Co154 2.091 . S
O156 C162 1.261 . S
C157 O166 1.247 . S
C157 O167 1.272 . S
O158 Co154 2.004 . S
O158 C163 1.259 . S
Co159 O160 2.061 . S
Co159 O165 2.052 . S
Co159 O167 2.135 . S
O160 Co159 2.061 . S
O160 C163 1.235 . S
C161 O164 1.238 . S
C161 O165 1.241 . S
C162 O155 1.247 . S
C162 O156 1.261 . S
C163 O158 1.259 . S
C163 O160 1.235 . S
O164 Co154 2.021 . S
O164 C161 1.238 . S
O165 Co159 2.052 . S
O165 C161 1.241 . S
O166 Co154 2.137 . S
O166 C157 1.247 . S
O167 Co154 2.244 . S
O167 C157 1.272 . S
O167 Co159 2.135 . S
Co168 O169 2.216 . S
Co168 O170 2.091 . S
Co168 O172 2.004 . S
Co168 O178 2.021 . S
Co168 O180 2.137 . S
Co168 O181 2.244 . S
O169 Co168 2.216 . S
O169 C176 1.247 . S
O170 Co168 2.091 . S
O170 C176 1.261 . S
C171 O180 1.247 . S
C171 O181 1.272 . S
O172 Co168 2.004 . S
O172 C177 1.259 . S
Co173 O174 2.061 . S
Co173 O179 2.052 . S
Co173 O181 2.135 . S
O174 Co173 2.061 . S
O174 C177 1.235 . S
C175 O178 1.238 . S
C175 O179 1.241 . S
C176 O169 1.247 . S
C176 O170 1.261 . S
C177 O172 1.259 . S
C177 O174 1.235 . S
O178 Co168 2.021 . S
O178 C175 1.238 . S
O179 Co173 2.052 . S
O179 C175 1.241 . S
O180 Co168 2.137 . S
O180 C171 1.247 . S
O181 Co168 2.244 . S
O181 C171 1.272 . S
O181 Co173 2.135 . S
Co182 O183 2.216 . S
Co182 O184 2.091 . S
Co182 O186 2.004 . S
Co182 O192 2.021 . S
Co182 O194 2.137 . S
Co182 O195 2.244 . S
O183 Co182 2.216 . S
O183 C190 1.247 . S
O184 Co182 2.091 . S
O184 C190 1.261 . S
C185 O194 1.247 . S
C185 O195 1.272 . S
O186 Co182 2.004 . S
O186 C191 1.259 . S
Co187 O188 2.061 . S
Co187 O193 2.052 . S
Co187 O195 2.135 . S
O188 Co187 2.061 . S
O188 C191 1.235 . S
C189 O192 1.238 . S
C189 O193 1.241 . S
C190 O183 1.247 . S
C190 O184 1.261 . S
C191 O186 1.259 . S
C191 O188 1.235 . S
O192 Co182 2.021 . S
O192 C189 1.238 . S
O193 Co187 2.052 . S
O193 C189 1.241 . S
O194 Co182 2.137 . S
O194 C185 1.247 . S
O195 Co182 2.244 . S
O195 C185 1.272 . S
O195 Co187 2.135 . S
Co196 O197 2.216 . S
Co196 O198 2.091 . S
Co196 O200 2.004 . S
Co196 O206 2.021 . S
Co196 O208 2.137 . S
Co196 O209 2.244 . S
O197 Co196 2.216 . S
O197 C204 1.247 . S
O198 Co196 2.091 . S
O198 C204 1.261 . S
C199 O208 1.247 . S
C199 O209 1.272 . S
O200 Co196 2.004 . S
O200 C205 1.259 . S
Co201 O202 2.061 . S
Co201 O207 2.052 . S
Co201 O209 2.135 . S
O202 Co201 2.061 . S
O202 C205 1.235 . S
C203 O206 1.238 . S
C203 O207 1.241 . S
C204 O197 1.247 . S
C204 O198 1.261 . S
C205 O200 1.259 . S
C205 O202 1.235 . S
O206 Co196 2.021 . S
O206 C203 1.238 . S
O207 Co201 2.052 . S
O207 C203 1.241 . S
O208 Co196 2.137 . S
O208 C199 1.247 . S
O209 Co196 2.244 . S
O209 C199 1.272 . S
O209 Co201 2.135 . S
Co210 O211 2.216 . S
Co210 O212 2.091 . S
Co210 O214 2.004 . S
Co210 O220 2.021 . S
Co210 O222 2.137 . S
Co210 O223 2.244 . S
O211 Co210 2.216 . S
O211 C218 1.247 . S
O212 Co210 2.091 . S
O212 C218 1.261 . S
C213 O222 1.247 . S
C213 O223 1.272 . S
O214 Co210 2.004 . S
O214 C219 1.259 . S
Co215 O216 2.061 . S
Co215 O221 2.052 . S
Co215 O223 2.135 . S
O216 Co215 2.061 . S
O216 C219 1.235 . S
C217 O220 1.238 . S
C217 O221 1.241 . S
C218 O211 1.247 . S
C218 O212 1.261 . S
C219 O214 1.259 . S
C219 O216 1.235 . S
O220 Co210 2.021 . S
O220 C217 1.238 . S
O221 Co215 2.052 . S
O221 C217 1.241 . S
O222 Co210 2.137 . S
O222 C213 1.247 . S
O223 Co210 2.244 . S
O223 C213 1.272 . S
O223 Co215 2.135 . S
Co224 O225 2.216 . S
Co224 O226 2.091 . S
Co224 O228 2.004 . S
Co224 O234 2.021 . S
Co224 O236 2.137 . S
Co224 O237 2.244 . S
O225 Co224 2.216 . S
O225 C232 1.247 . S
O226 Co224 2.091 . S
O226 C232 1.261 . S
C227 O236 1.247 . S
C227 O237 1.272 . S
O228 Co224 2.004 . S
O228 C233 1.259 . S
Co229 O230 2.061 . S
Co229 O235 2.052 . S
Co229 O237 2.135 . S
O230 Co229 2.061 . S
O230 C233 1.235 . S
C231 O234 1.238 . S
C231 O235 1.241 . S
C232 O225 1.247 . S
C232 O226 1.261 . S
C233 O228 1.259 . S
C233 O230 1.235 . S
O234 Co224 2.021 . S
O234 C231 1.238 . S
O235 Co229 2.052 . S
O235 C231 1.241 . S
O236 Co224 2.137 . S
O236 C227 1.247 . S
O237 Co224 2.244 . S
O237 C227 1.272 . S
O237 Co229 2.135 . S
Co238 O239 2.216 . S
Co238 O240 2.091 . S
Co238 O242 2.004 . S
Co238 O248 2.021 . S
Co238 O250 2.137 . S
Co238 O251 2.244 . S
O239 Co238 2.216 . S
O239 C246 1.247 . S
O240 Co238 2.091 . S
O240 C246 1.261 . S
C241 O250 1.247 . S
C241 O251 1.272 . S
O242 Co238 2.004 . S
O242 C247 1.259 . S
Co243 O244 2.061 . S
Co243 O249 2.052 . S
Co243 O251 2.135 . S
O244 Co243 2.061 . S
O244 C247 1.235 . S
C245 O248 1.238 . S
C245 O249 1.241 . S
C246 O239 1.247 . S
C246 O240 1.261 . S
C247 O242 1.259 . S
C247 O244 1.235 . S
O248 Co238 2.021 . S
O248 C245 1.238 . S
O249 Co243 2.052 . S
O249 C245 1.241 . S
O250 Co238 2.137 . S
O250 C241 1.247 . S
O251 Co238 2.244 . S
O251 C241 1.272 . S
O251 Co243 2.135 . S
Co252 O253 2.216 . S
Co252 O254 2.091 . S
Co252 O256 2.004 . S
Co252 O262 2.021 . S
Co252 O264 2.137 . S
Co252 O265 2.244 . S
O253 Co252 2.216 . S
O253 C260 1.247 . S
O254 Co252 2.091 . S
O254 C260 1.261 . S
C255 O264 1.247 . S
C255 O265 1.272 . S
O256 Co252 2.004 . S
O256 C261 1.259 . S
Co257 O258 2.061 . S
Co257 O263 2.052 . S
Co257 O265 2.135 . S
O258 Co257 2.061 . S
O258 C261 1.235 . S
C259 O262 1.238 . S
C259 O263 1.241 . S
C260 O253 1.247 . S
C260 O254 1.261 . S
C261 O256 1.259 . S
C261 O258 1.235 . S
O262 Co252 2.021 . S
O262 C259 1.238 . S
O263 Co257 2.052 . S
O263 C259 1.241 . S
O264 Co252 2.137 . S
O264 C255 1.247 . S
O265 Co252 2.244 . S
O265 C255 1.272 . S
O265 Co257 2.135 . S
Co266 O267 2.216 . S
Co266 O268 2.091 . S
Co266 O270 2.004 . S
Co266 O276 2.021 . S
Co266 O278 2.137 . S
Co266 O279 2.244 . S
O267 Co266 2.216 . S
O267 C274 1.247 . S
O268 Co266 2.091 . S
O268 C274 1.261 . S
C269 O278 1.247 . S
C269 O279 1.272 . S
O270 Co266 2.004 . S
O270 C275 1.259 . S
Co271 O272 2.061 . S
Co271 O277 2.052 . S
Co271 O279 2.135 . S
O272 Co271 2.061 . S
O272 C275 1.235 . S
C273 O276 1.238 . S
C273 O277 1.241 . S
C274 O267 1.247 . S
C274 O268 1.261 . S
C275 O270 1.259 . S
C275 O272 1.235 . S
O276 Co266 2.021 . S
O276 C273 1.238 . S
O277 Co271 2.052 . S
O277 C273 1.241 . S
O278 Co266 2.137 . S
O278 C269 1.247 . S
O279 Co266 2.244 . S
O279 C269 1.272 . S
O279 Co271 2.135 . S
Co280 O281 2.216 . S
Co280 O282 2.091 . S
Co280 O284 2.004 . S
Co280 O290 2.021 . S
Co280 O292 2.137 . S
Co280 O293 2.244 . S
O281 Co280 2.216 . S
O281 C288 1.247 . S
O282 Co280 2.091 . S
O282 C288 1.261 . S
C283 O292 1.247 . S
C283 O293 1.272 . S
O284 Co280 2.004 . S
O284 C289 1.259 . S
Co285 O286 2.061 . S
Co285 O291 2.052 . S
Co285 O293 2.135 . S
O286 Co285 2.061 . S
O286 C289 1.235 . S
C287 O290 1.238 . S
C287 O291 1.241 . S
C288 O281 1.247 . S
C288 O282 1.261 . S
C289 O284 1.259 . S
C289 O286 1.235 . S
O290 Co280 2.021 . S
O290 C287 1.238 . S
O291 Co285 2.052 . S
O291 C287 1.241 . S
O292 Co280 2.137 . S
O292 C283 1.247 . S
O293 Co280 2.244 . S
O293 C283 1.272 . S
O293 Co285 2.135 . S
Co294 O295 2.216 . S
Co294 O296 2.091 . S
Co294 O298 2.004 . S
Co294 O304 2.021 . S
Co294 O306 2.137 . S
Co294 O307 2.244 . S
O295 Co294 2.216 . S
O295 C302 1.247 . S
O296 Co294 2.091 . S
O296 C302 1.261 . S
C297 O306 1.247 . S
C297 O307 1.272 . S
O298 Co294 2.004 . S
O298 C303 1.259 . S
Co299 O300 2.061 . S
Co299 O305 2.052 . S
Co299 O307 2.135 . S
O300 Co299 2.061 . S
O300 C303 1.235 . S
C301 O304 1.238 . S
C301 O305 1.241 . S
C302 O295 1.247 . S
C302 O296 1.261 . S
C303 O298 1.259 . S
C303 O300 1.235 . S
O304 Co294 2.021 . S
O304 C301 1.238 . S
O305 Co299 2.052 . S
O305 C301 1.241 . S
O306 Co294 2.137 . S
O306 C297 1.247 . S
O307 Co294 2.244 . S
O307 C297 1.272 . S
O307 Co299 2.135 . S
Co308 O309 2.216 . S
Co308 O310 2.091 . S
Co308 O312 2.004 . S
Co308 O318 2.021 . S
Co308 O320 2.137 . S
Co308 O321 2.244 . S
O309 Co308 2.216 . S
O309 C316 1.247 . S
O310 Co308 2.091 . S
O310 C316 1.261 . S
C311 O320 1.247 . S
C311 O321 1.272 . S
O312 Co308 2.004 . S
O312 C317 1.259 . S
Co313 O314 2.061 . S
Co313 O319 2.052 . S
Co313 O321 2.135 . S
O314 Co313 2.061 . S
O314 C317 1.235 . S
C315 O318 1.238 . S
C315 O319 1.241 . S
C316 O309 1.247 . S
C316 O310 1.261 . S
C317 O312 1.259 . S
C317 O314 1.235 . S
O318 Co308 2.021 . S
O318 C315 1.238 . S
O319 Co313 2.052 . S
O319 C315 1.241 . S
O320 Co308 2.137 . S
O320 C311 1.247 . S
O321 Co308 2.244 . S
O321 C311 1.272 . S
O321 Co313 2.135 . S
Co322 O323 2.216 . S
Co322 O324 2.091 . S
Co322 O326 2.004 . S
Co322 O332 2.021 . S
Co322 O334 2.137 . S
Co322 O335 2.244 . S
O323 Co322 2.216 . S
O323 C330 1.247 . S
O324 Co322 2.091 . S
O324 C330 1.261 . S
C325 O334 1.247 . S
C325 O335 1.272 . S
O326 Co322 2.004 . S
O326 C331 1.259 . S
Co327 O328 2.061 . S
Co327 O333 2.052 . S
Co327 O335 2.135 . S
O328 Co327 2.061 . S
O328 C331 1.235 . S
C329 O332 1.238 . S
C329 O333 1.241 . S
C330 O323 1.247 . S
C330 O324 1.261 . S
C331 O326 1.259 . S
C331 O328 1.235 . S
O332 Co322 2.021 . S
O332 C329 1.238 . S
O333 Co327 2.052 . S
O333 C329 1.241 . S
O334 Co322 2.137 . S
O334 C325 1.247 . S
O335 Co322 2.244 . S
O335 C325 1.272 . S
O335 Co327 2.135 . S
Co336 O337 2.216 . S
Co336 O338 2.091 . S
Co336 O340 2.004 . S
Co336 O346 2.021 . S
Co336 O348 2.137 . S
Co336 O349 2.244 . S
O337 Co336 2.216 . S
O337 C344 1.247 . S
O338 Co336 2.091 . S
O338 C344 1.261 . S
C339 O348 1.247 . S
C339 O349 1.272 . S
O340 Co336 2.004 . S
O340 C345 1.259 . S
Co341 O342 2.061 . S
Co341 O347 2.052 . S
Co341 O349 2.135 . S
O342 Co341 2.061 . S
O342 C345 1.235 . S
C343 O346 1.238 . S
C343 O347 1.241 . S
C344 O337 1.247 . S
C344 O338 1.261 . S
C345 O340 1.259 . S
C345 O342 1.235 . S
O346 Co336 2.021 . S
O346 C343 1.238 . S
O347 Co341 2.052 . S
O347 C343 1.241 . S
O348 Co336 2.137 . S
O348 C339 1.247 . S
O349 Co336 2.244 . S
O349 C339 1.272 . S
O349 Co341 2.135 . S
Co350 O351 2.216 . S
Co350 O352 2.091 . S
Co350 O354 2.004 . S
Co350 O360 2.021 . S
Co350 O362 2.137 . S
Co350 O363 2.244 . S
O351 Co350 2.216 . S
O351 C358 1.247 . S
O352 Co350 2.091 . S
O352 C358 1.261 . S
C353 O362 1.247 . S
C353 O363 1.272 . S
O354 Co350 2.004 . S
O354 C359 1.259 . S
Co355 O356 2.061 . S
Co355 O361 2.052 . S
Co355 O363 2.135 . S
O356 Co355 2.061 . S
O356 C359 1.235 . S
C357 O360 1.238 . S
C357 O361 1.241 . S
C358 O351 1.247 . S
C358 O352 1.261 . S
C359 O354 1.259 . S
C359 O356 1.235 . S
O360 Co350 2.021 . S
O360 C357 1.238 . S
O361 Co355 2.052 . S
O361 C357 1.241 . S
O362 Co350 2.137 . S
O362 C353 1.247 . S
O363 Co350 2.244 . S
O363 C353 1.272 . S
O363 Co355 2.135 . S
Co364 O365 2.216 . S
Co364 O366 2.091 . S
Co364 O368 2.004 . S
Co364 O374 2.021 . S
Co364 O376 2.137 . S
Co364 O377 2.244 . S
O365 Co364 2.216 . S
O365 C372 1.247 . S
O366 Co364 2.091 . S
O366 C372 1.261 . S
C367 O376 1.247 . S
C367 O377 1.272 . S
O368 Co364 2.004 . S
O368 C373 1.259 . S
Co369 O370 2.061 . S
Co369 O375 2.052 . S
Co369 O377 2.135 . S
O370 Co369 2.061 . S
O370 C373 1.235 . S
C371 O374 1.238 . S
C371 O375 1.241 . S
C372 O365 1.247 . S
C372 O366 1.261 . S
C373 O368 1.259 . S
C373 O370 1.235 . S
O374 Co364 2.021 . S
O374 C371 1.238 . S
O375 Co369 2.052 . S
O375 C371 1.241 . S
O376 Co364 2.137 . S
O376 C367 1.247 . S
O377 Co364 2.244 . S
O377 C367 1.272 . S
O377 Co369 2.135 . S
Co378 O379 2.216 . S
Co378 O380 2.091 . S
Co378 O382 2.004 . S
Co378 O388 2.021 . S
Co378 O390 2.137 . S
Co378 O391 2.244 . S
O379 Co378 2.216 . S
O379 C386 1.247 . S
O380 Co378 2.091 . S
O380 C386 1.261 . S
C381 O390 1.247 . S
C381 O391 1.272 . S
O382 Co378 2.004 . S
O382 C387 1.259 . S
Co383 O384 2.061 . S
Co383 O389 2.052 . S
Co383 O391 2.135 . S
O384 Co383 2.061 . S
O384 C387 1.235 . S
C385 O388 1.238 . S
C385 O389 1.241 . S
C386 O379 1.247 . S
C386 O380 1.261 . S
C387 O382 1.259 . S
C387 O384 1.235 . S
O388 Co378 2.021 . S
O388 C385 1.238 . S
O389 Co383 2.052 . S
O389 C385 1.241 . S
O390 Co378 2.137 . S
O390 C381 1.247 . S
O391 Co378 2.244 . S
O391 C381 1.272 . S
O391 Co383 2.135 . S
Co392 O393 2.216 . S
Co392 O394 2.091 . S
Co392 O396 2.004 . S
Co392 O402 2.021 . S
Co392 O404 2.137 . S
Co392 O405 2.244 . S
O393 Co392 2.216 . S
O393 C400 1.247 . S
O394 Co392 2.091 . S
O394 C400 1.261 . S
C395 O404 1.247 . S
C395 O405 1.272 . S
O396 Co392 2.004 . S
O396 C401 1.259 . S
Co397 O398 2.061 . S
Co397 O403 2.052 . S
Co397 O405 2.135 . S
O398 Co397 2.061 . S
O398 C401 1.235 . S
C399 O402 1.238 . S
C399 O403 1.241 . S
C400 O393 1.247 . S
C400 O394 1.261 . S
C401 O396 1.259 . S
C401 O398 1.235 . S
O402 Co392 2.021 . S
O402 C399 1.238 . S
O403 Co397 2.052 . S
O403 C399 1.241 . S
O404 Co392 2.137 . S
O404 C395 1.247 . S
O405 Co392 2.244 . S
O405 C395 1.272 . S
O405 Co397 2.135 . S
Co406 O407 2.216 . S
Co406 O408 2.091 . S
Co406 O410 2.004 . S
Co406 O416 2.021 . S
Co406 O418 2.137 . S
Co406 O419 2.244 . S
O407 Co406 2.216 . S
O407 C414 1.247 . S
O408 Co406 2.091 . S
O408 C414 1.261 . S
C409 O418 1.247 . S
C409 O419 1.272 . S
O410 Co406 2.004 . S
O410 C415 1.259 . S
Co411 O412 2.061 . S
Co411 O417 2.052 . S
Co411 O419 2.135 . S
O412 Co411 2.061 . S
O412 C415 1.235 . S
C413 O416 1.238 . S
C413 O417 1.241 . S
C414 O407 1.247 . S
C414 O408 1.261 . S
C415 O410 1.259 . S
C415 O412 1.235 . S
O416 Co406 2.021 . S
O416 C413 1.238 . S
O417 Co411 2.052 . S
O417 C413 1.241 . S
O418 Co406 2.137 . S
O418 C409 1.247 . S
O419 Co406 2.244 . S
O419 C409 1.272 . S
O419 Co411 2.135 . S
Co420 O421 2.216 . S
Co420 O422 2.091 . S
Co420 O424 2.004 . S
Co420 O430 2.021 . S
Co420 O432 2.137 . S
Co420 O433 2.244 . S
O421 Co420 2.216 . S
O421 C428 1.247 . S
O422 Co420 2.091 . S
O422 C428 1.261 . S
C423 O432 1.247 . S
C423 O433 1.272 . S
O424 Co420 2.004 . S
O424 C429 1.259 . S
Co425 O426 2.061 . S
Co425 O431 2.052 . S
Co425 O433 2.135 . S
O426 Co425 2.061 . S
O426 C429 1.235 . S
C427 O430 1.238 . S
C427 O431 1.241 . S
C428 O421 1.247 . S
C428 O422 1.261 . S
C429 O424 1.259 . S
C429 O426 1.235 . S
O430 Co420 2.021 . S
O430 C427 1.238 . S
O431 Co425 2.052 . S
O431 C427 1.241 . S
O432 Co420 2.137 . S
O432 C423 1.247 . S
O433 Co420 2.244 . S
O433 C423 1.272 . S
O433 Co425 2.135 . S
Co434 O435 2.216 . S
Co434 O436 2.091 . S
Co434 O438 2.004 . S
Co434 O444 2.021 . S
Co434 O446 2.137 . S
Co434 O447 2.244 . S
O435 Co434 2.216 . S
O435 C442 1.247 . S
O436 Co434 2.091 . S
O436 C442 1.261 . S
C437 O446 1.247 . S
C437 O447 1.272 . S
O438 Co434 2.004 . S
O438 C443 1.259 . S
Co439 O440 2.061 . S
Co439 O445 2.052 . S
Co439 O447 2.135 . S
O440 Co439 2.061 . S
O440 C443 1.235 . S
C441 O444 1.238 . S
C441 O445 1.241 . S
C442 O435 1.247 . S
C442 O436 1.261 . S
C443 O438 1.259 . S
C443 O440 1.235 . S
O444 Co434 2.021 . S
O444 C441 1.238 . S
O445 Co439 2.052 . S
O445 C441 1.241 . S
O446 Co434 2.137 . S
O446 C437 1.247 . S
O447 Co434 2.244 . S
O447 C437 1.272 . S
O447 Co439 2.135 . S
H448 C466 0.951 . S
H449 C468 0.951 . S
H450 C470 0.950 . S
H451 C471 0.950 . S
H452 C473 0.950 . S
H453 C476 0.950 . S
H454 C477 0.950 . S
H455 C479 0.950 . S
H456 C480 0.950 . S
H457 C481 0.951 . S
H458 C483 0.951 . S
H459 C485 0.950 . S
H460 C486 0.950 . S
H461 C488 0.950 . S
H462 C491 0.950 . S
H463 C492 0.950 . S
H464 C494 0.950 . S
H465 C495 0.950 . S
C466 H448 0.951 . S
C466 C467 1.366 . S
C466 C468 1.388 . S
C467 C466 1.366 . S
C467 C471 1.385 . S
C468 H449 0.951 . S
C468 C466 1.388 . S
C468 C469 1.366 . S
C469 C468 1.366 . S
C469 C470 1.414 . S
C469 C472 1.499 . S
C470 H450 0.950 . S
C470 C469 1.414 . S
C470 C471 1.374 . S
C471 H451 0.950 . S
C471 C467 1.385 . S
C471 C470 1.374 . S
C472 C469 1.499 . S
C472 C473 1.373 . S
C472 C474 1.389 . S
C473 H452 0.950 . S
C473 C472 1.373 . S
C473 C489 1.377 . S
C474 C472 1.389 . S
C474 C475 1.524 . S
C474 C488 1.377 . S
C475 C474 1.524 . S
C475 C476 1.397 . S
C475 C480 1.363 . S
C476 H453 0.950 . S
C476 C475 1.397 . S
C476 C477 1.334 . S
C477 H454 0.950 . S
C477 C476 1.334 . S
C477 C478 1.287 . S
C478 C477 1.287 . S
C478 C479 1.524 . S
C478 H497 0.913 . S
C479 H455 0.950 . S
C479 C478 1.524 . S
C479 C480 1.415 . S
C480 H456 0.950 . S
C480 C475 1.363 . S
C480 C479 1.415 . S
C481 H457 0.951 . S
C481 C482 1.366 . S
C481 C483 1.388 . S
C482 C481 1.366 . S
C482 C486 1.385 . S
C483 H458 0.951 . S
C483 C481 1.388 . S
C483 C484 1.366 . S
C484 C483 1.366 . S
C484 C485 1.414 . S
C484 C487 1.499 . S
C485 H459 0.950 . S
C485 C484 1.414 . S
C485 C486 1.374 . S
C486 H460 0.950 . S
C486 C482 1.385 . S
C486 C485 1.374 . S
C487 C484 1.499 . S
C487 C488 1.373 . S
C487 C489 1.389 . S
C488 H461 0.950 . S
C488 C474 1.377 . S
C488 C487 1.373 . S
C489 C473 1.377 . S
C489 C487 1.389 . S
C489 C490 1.524 . S
C490 C489 1.524 . S
C490 C491 1.397 . S
C490 C495 1.363 . S
C491 H462 0.950 . S
C491 C490 1.397 . S
C491 C492 1.334 . S
C492 H463 0.950 . S
C492 C491 1.334 . S
C492 C493 1.287 . S
C493 C492 1.287 . S
C493 C494 1.524 . S
C493 H496 0.999 . S
C494 H464 0.950 . S
C494 C493 1.524 . S
C494 C495 1.415 . S
C495 H465 0.950 . S
C495 C490 1.363 . S
C495 C494 1.415 . S
H496 C493 0.999 . S
H497 C478 0.913 . S
H498 C516 0.951 . S
H499 C518 0.951 . S
H500 C520 0.950 . S
H501 C521 0.950 . S
H502 C523 0.950 . S
H503 C526 0.950 . S
H504 C527 0.950 . S
H505 C529 0.950 . S
H506 C530 0.950 . S
H507 C531 0.951 . S
H508 C533 0.951 . S
H509 C535 0.950 . S
H510 C536 0.950 . S
H511 C538 0.950 . S
H512 C541 0.950 . S
H513 C542 0.950 . S
H514 C544 0.950 . S
H515 C545 0.950 . S
C516 H498 0.951 . S
C516 C517 1.366 . S
C516 C518 1.388 . S
C517 C516 1.366 . S
C517 C521 1.385 . S
C518 H499 0.951 . S
C518 C516 1.388 . S
C518 C519 1.366 . S
C519 C518 1.366 . S
C519 C520 1.414 . S
C519 C522 1.499 . S
C520 H500 0.950 . S
C520 C519 1.414 . S
C520 C521 1.374 . S
C521 H501 0.950 . S
C521 C517 1.385 . S
C521 C520 1.374 . S
C522 C519 1.499 . S
C522 C523 1.373 . S
C522 C524 1.389 . S
C523 H502 0.950 . S
C523 C522 1.373 . S
C523 C539 1.377 . S
C524 C522 1.389 . S
C524 C525 1.524 . S
C524 C538 1.377 . S
C525 C524 1.524 . S
C525 C526 1.397 . S
C525 C530 1.363 . S
C526 H503 0.950 . S
C526 C525 1.397 . S
C526 C527 1.334 . S
C527 H504 0.950 . S
C527 C526 1.334 . S
C527 C528 1.287 . S
C528 C527 1.287 . S
C528 C529 1.524 . S
C528 H547 0.913 . S
C529 H505 0.950 . S
C529 C528 1.524 . S
C529 C530 1.415 . S
C530 H506 0.950 . S
C530 C525 1.363 . S
C530 C529 1.415 . S
C531 H507 0.951 . S
C531 C532 1.366 . S
C531 C533 1.388 . S
C532 C531 1.366 . S
C532 C536 1.385 . S
C533 H508 0.951 . S
C533 C531 1.388 . S
C533 C534 1.366 . S
C534 C533 1.366 . S
C534 C535 1.414 . S
C534 C537 1.499 . S
C535 H509 0.950 . S
C535 C534 1.414 . S
C535 C536 1.374 . S
C536 H510 0.950 . S
C536 C532 1.385 . S
C536 C535 1.374 . S
C537 C534 1.499 . S
C537 C538 1.373 . S
C537 C539 1.389 . S
C538 H511 0.950 . S
C538 C524 1.377 . S
C538 C537 1.373 . S
C539 C523 1.377 . S
C539 C537 1.389 . S
C539 C540 1.524 . S
C540 C539 1.524 . S
C540 C541 1.397 . S
C540 C545 1.363 . S
C541 H512 0.950 . S
C541 C540 1.397 . S
C541 C542 1.334 . S
C542 H513 0.950 . S
C542 C541 1.334 . S
C542 C543 1.287 . S
C543 C542 1.287 . S
C543 C544 1.524 . S
C543 H546 0.999 . S
C544 H514 0.950 . S
C544 C543 1.524 . S
C544 C545 1.415 . S
C545 H515 0.950 . S
C545 C540 1.363 . S
C545 C544 1.415 . S
H546 C543 0.999 . S
H547 C528 0.913 . S
H548 C566 0.951 . S
H549 C568 0.951 . S
H550 C570 0.950 . S
H551 C571 0.950 . S
H552 C573 0.950 . S
H553 C576 0.950 . S
H554 C577 0.950 . S
H555 C579 0.950 . S
H556 C580 0.950 . S
H557 C581 0.951 . S
H558 C583 0.951 . S
H559 C585 0.950 . S
H560 C586 0.950 . S
H561 C588 0.950 . S
H562 C591 0.950 . S
H563 C592 0.950 . S
H564 C594 0.950 . S
H565 C595 0.950 . S
C566 H548 0.951 . S
C566 C567 1.366 . S
C566 C568 1.388 . S
C567 C566 1.366 . S
C567 C571 1.385 . S
C568 H549 0.951 . S
C568 C566 1.388 . S
C568 C569 1.366 . S
C569 C568 1.366 . S
C569 C570 1.414 . S
C569 C572 1.499 . S
C570 H550 0.950 . S
C570 C569 1.414 . S
C570 C571 1.374 . S
C571 H551 0.950 . S
C571 C567 1.385 . S
C571 C570 1.374 . S
C572 C569 1.499 . S
C572 C573 1.373 . S
C572 C574 1.389 . S
C573 H552 0.950 . S
C573 C572 1.373 . S
C573 C589 1.377 . S
C574 C572 1.389 . S
C574 C575 1.524 . S
C574 C588 1.377 . S
C575 C574 1.524 . S
C575 C576 1.397 . S
C575 C580 1.363 . S
C576 H553 0.950 . S
C576 C575 1.397 . S
C576 C577 1.334 . S
C577 H554 0.950 . S
C577 C576 1.334 . S
C577 C578 1.287 . S
C578 C577 1.287 . S
C578 C579 1.524 . S
C578 H597 0.913 . S
C579 H555 0.950 . S
C579 C578 1.524 . S
C579 C580 1.415 . S
C580 H556 0.950 . S
C580 C575 1.363 . S
C580 C579 1.415 . S
C581 H557 0.951 . S
C581 C582 1.366 . S
C581 C583 1.388 . S
C582 C581 1.366 . S
C582 C586 1.385 . S
C583 H558 0.951 . S
C583 C581 1.388 . S
C583 C584 1.366 . S
C584 C583 1.366 . S
C584 C585 1.414 . S
C584 C587 1.499 . S
C585 H559 0.950 . S
C585 C584 1.414 . S
C585 C586 1.374 . S
C586 H560 0.950 . S
C586 C582 1.385 . S
C586 C585 1.374 . S
C587 C584 1.499 . S
C587 C588 1.373 . S
C587 C589 1.389 . S
C588 H561 0.950 . S
C588 C574 1.377 . S
C588 C587 1.373 . S
C589 C573 1.377 . S
C589 C587 1.389 . S
C589 C590 1.524 . S
C590 C589 1.524 . S
C590 C591 1.397 . S
C590 C595 1.363 . S
C591 H562 0.950 . S
C591 C590 1.397 . S
C591 C592 1.334 . S
C592 H563 0.950 . S
C592 C591 1.334 . S
C592 C593 1.287 . S
C593 C592 1.287 . S
C593 C594 1.524 . S
C593 H596 0.999 . S
C594 H564 0.950 . S
C594 C593 1.524 . S
C594 C595 1.415 . S
C595 H565 0.950 . S
C595 C590 1.363 . S
C595 C594 1.415 . S
H596 C593 0.999 . S
H597 C578 0.913 . S
H598 C616 0.951 . S
H599 C618 0.951 . S
H600 C620 0.950 . S
H601 C621 0.950 . S
H602 C623 0.950 . S
H603 C626 0.950 . S
H604 C627 0.950 . S
H605 C629 0.950 . S
H606 C630 0.950 . S
H607 C631 0.951 . S
H608 C633 0.951 . S
H609 C635 0.950 . S
H610 C636 0.950 . S
H611 C638 0.950 . S
H612 C641 0.950 . S
H613 C642 0.950 . S
H614 C644 0.950 . S
H615 C645 0.950 . S
C616 H598 0.951 . S
C616 C617 1.366 . S
C616 C618 1.388 . S
C617 C616 1.366 . S
C617 C621 1.385 . S
C618 H599 0.951 . S
C618 C616 1.388 . S
C618 C619 1.366 . S
C619 C618 1.366 . S
C619 C620 1.414 . S
C619 C622 1.499 . S
C620 H600 0.950 . S
C620 C619 1.414 . S
C620 C621 1.374 . S
C621 H601 0.950 . S
C621 C617 1.385 . S
C621 C620 1.374 . S
C622 C619 1.499 . S
C622 C623 1.373 . S
C622 C624 1.389 . S
C623 H602 0.950 . S
C623 C622 1.373 . S
C623 C639 1.377 . S
C624 C622 1.389 . S
C624 C625 1.524 . S
C624 C638 1.377 . S
C625 C624 1.524 . S
C625 C626 1.397 . S
C625 C630 1.363 . S
C626 H603 0.950 . S
C626 C625 1.397 . S
C626 C627 1.334 . S
C627 H604 0.950 . S
C627 C626 1.334 . S
C627 C628 1.287 . S
C628 C627 1.287 . S
C628 C629 1.524 . S
C628 H647 0.913 . S
C629 H605 0.950 . S
C629 C628 1.524 . S
C629 C630 1.415 . S
C630 H606 0.950 . S
C630 C625 1.363 . S
C630 C629 1.415 . S
C631 H607 0.951 . S
C631 C632 1.366 . S
C631 C633 1.388 . S
C632 C631 1.366 . S
C632 C636 1.385 . S
C633 H608 0.951 . S
C633 C631 1.388 . S
C633 C634 1.366 . S
C634 C633 1.366 . S
C634 C635 1.414 . S
C634 C637 1.499 . S
C635 H609 0.950 . S
C635 C634 1.414 . S
C635 C636 1.374 . S
C636 H610 0.950 . S
C636 C632 1.385 . S
C636 C635 1.374 . S
C637 C634 1.499 . S
C637 C638 1.373 . S
C637 C639 1.389 . S
C638 H611 0.950 . S
C638 C624 1.377 . S
C638 C637 1.373 . S
C639 C623 1.377 . S
C639 C637 1.389 . S
C639 C640 1.524 . S
C640 C639 1.524 . S
C640 C641 1.397 . S
C640 C645 1.363 . S
C641 H612 0.950 . S
C641 C640 1.397 . S
C641 C642 1.334 . S
C642 H613 0.950 . S
C642 C641 1.334 . S
C642 C643 1.287 . S
C643 C642 1.287 . S
C643 C644 1.524 . S
C643 H646 0.999 . S
C644 H614 0.950 . S
C644 C643 1.524 . S
C644 C645 1.415 . S
C645 H615 0.950 . S
C645 C640 1.363 . S
C645 C644 1.415 . S
H646 C643 0.999 . S
H647 C628 0.913 . S
H648 C666 0.951 . S
H649 C668 0.951 . S
H650 C670 0.950 . S
H651 C671 0.950 . S
H652 C673 0.950 . S
H653 C676 0.950 . S
H654 C677 0.950 . S
H655 C679 0.950 . S
H656 C680 0.950 . S
H657 C681 0.951 . S
H658 C683 0.951 . S
H659 C685 0.950 . S
H660 C686 0.950 . S
H661 C688 0.950 . S
H662 C691 0.950 . S
H663 C692 0.950 . S
H664 C694 0.950 . S
H665 C695 0.950 . S
C666 H648 0.951 . S
C666 C667 1.366 . S
C666 C668 1.388 . S
C667 C666 1.366 . S
C667 C671 1.385 . S
C668 H649 0.951 . S
C668 C666 1.388 . S
C668 C669 1.366 . S
C669 C668 1.366 . S
C669 C670 1.414 . S
C669 C672 1.499 . S
C670 H650 0.950 . S
C670 C669 1.414 . S
C670 C671 1.374 . S
C671 H651 0.950 . S
C671 C667 1.385 . S
C671 C670 1.374 . S
C672 C669 1.499 . S
C672 C673 1.373 . S
C672 C674 1.389 . S
C673 H652 0.950 . S
C673 C672 1.373 . S
C673 C689 1.377 . S
C674 C672 1.389 . S
C674 C675 1.524 . S
C674 C688 1.377 . S
C675 C674 1.524 . S
C675 C676 1.397 . S
C675 C680 1.363 . S
C676 H653 0.950 . S
C676 C675 1.397 . S
C676 C677 1.334 . S
C677 H654 0.950 . S
C677 C676 1.334 . S
C677 C678 1.287 . S
C678 C677 1.287 . S
C678 C679 1.524 . S
C678 H697 0.913 . S
C679 H655 0.950 . S
C679 C678 1.524 . S
C679 C680 1.415 . S
C680 H656 0.950 . S
C680 C675 1.363 . S
C680 C679 1.415 . S
C681 H657 0.951 . S
C681 C682 1.366 . S
C681 C683 1.388 . S
C682 C681 1.366 . S
C682 C686 1.385 . S
C683 H658 0.951 . S
C683 C681 1.388 . S
C683 C684 1.366 . S
C684 C683 1.366 . S
C684 C685 1.414 . S
C684 C687 1.499 . S
C685 H659 0.950 . S
C685 C684 1.414 . S
C685 C686 1.374 . S
C686 H660 0.950 . S
C686 C682 1.385 . S
C686 C685 1.374 . S
C687 C684 1.499 . S
C687 C688 1.373 . S
C687 C689 1.389 . S
C688 H661 0.950 . S
C688 C674 1.377 . S
C688 C687 1.373 . S
C689 C673 1.377 . S
C689 C687 1.389 . S
C689 C690 1.524 . S
C690 C689 1.524 . S
C690 C691 1.397 . S
C690 C695 1.363 . S
C691 H662 0.950 . S
C691 C690 1.397 . S
C691 C692 1.334 . S
C692 H663 0.950 . S
C692 C691 1.334 . S
C692 C693 1.287 . S
C693 C692 1.287 . S
C693 C694 1.524 . S
C693 H696 0.999 . S
C694 H664 0.950 . S
C694 C693 1.524 . S
C694 C695 1.415 . S
C695 H665 0.950 . S
C695 C690 1.363 . S
C695 C694 1.415 . S
H696 C693 0.999 . S
H697 C678 0.913 . S
H698 C716 0.951 . S
H699 C718 0.951 . S
H700 C720 0.950 . S
H701 C721 0.950 . S
H702 C723 0.950 . S
H703 C726 0.950 . S
H704 C727 0.950 . S
H705 C729 0.950 . S
H706 C730 0.950 . S
H707 C731 0.951 . S
H708 C733 0.951 . S
H709 C735 0.950 . S
H710 C736 0.950 . S
H711 C738 0.950 . S
H712 C741 0.950 . S
H713 C742 0.950 . S
H714 C744 0.950 . S
H715 C745 0.950 . S
C716 H698 0.951 . S
C716 C717 1.366 . S
C716 C718 1.388 . S
C717 C716 1.366 . S
C717 C721 1.385 . S
C718 H699 0.951 . S
C718 C716 1.388 . S
C718 C719 1.366 . S
C719 C718 1.366 . S
C719 C720 1.414 . S
C719 C722 1.499 . S
C720 H700 0.950 . S
C720 C719 1.414 . S
C720 C721 1.374 . S
C721 H701 0.950 . S
C721 C717 1.385 . S
C721 C720 1.374 . S
C722 C719 1.499 . S
C722 C723 1.373 . S
C722 C724 1.389 . S
C723 H702 0.950 . S
C723 C722 1.373 . S
C723 C739 1.377 . S
C724 C722 1.389 . S
C724 C725 1.524 . S
C724 C738 1.377 . S
C725 C724 1.524 . S
C725 C726 1.397 . S
C725 C730 1.363 . S
C726 H703 0.950 . S
C726 C725 1.397 . S
C726 C727 1.334 . S
C727 H704 0.950 . S
C727 C726 1.334 . S
C727 C728 1.287 . S
C728 C727 1.287 . S
C728 C729 1.524 . S
C728 H747 0.913 . S
C729 H705 0.950 . S
C729 C728 1.524 . S
C729 C730 1.415 . S
C730 H706 0.950 . S
C730 C725 1.363 . S
C730 C729 1.415 . S
C731 H707 0.951 . S
C731 C732 1.366 . S
C731 C733 1.388 . S
C732 C731 1.366 . S
C732 C736 1.385 . S
C733 H708 0.951 . S
C733 C731 1.388 . S
C733 C734 1.366 . S
C734 C733 1.366 . S
C734 C735 1.414 . S
C734 C737 1.499 . S
C735 H709 0.950 . S
C735 C734 1.414 . S
C735 C736 1.374 . S
C736 H710 0.950 . S
C736 C732 1.385 . S
C736 C735 1.374 . S
C737 C734 1.499 . S
C737 C738 1.373 . S
C737 C739 1.389 . S
C738 H711 0.950 . S
C738 C724 1.377 . S
C738 C737 1.373 . S
C739 C723 1.377 . S
C739 C737 1.389 . S
C739 C740 1.524 . S
C740 C739 1.524 . S
C740 C741 1.397 . S
C740 C745 1.363 . S
C741 H712 0.950 . S
C741 C740 1.397 . S
C741 C742 1.334 . S
C742 H713 0.950 . S
C742 C741 1.334 . S
C742 C743 1.287 . S
C743 C742 1.287 . S
C743 C744 1.524 . S
C743 H746 0.999 . S
C744 H714 0.950 . S
C744 C743 1.524 . S
C744 C745 1.415 . S
C745 H715 0.950 . S
C745 C740 1.363 . S
C745 C744 1.415 . S
H746 C743 0.999 . S
H747 C728 0.913 . S
H748 C766 0.951 . S
H749 C768 0.951 . S
H750 C770 0.950 . S
H751 C771 0.950 . S
H752 C773 0.950 . S
H753 C776 0.950 . S
H754 C777 0.950 . S
H755 C779 0.950 . S
H756 C780 0.950 . S
H757 C781 0.951 . S
H758 C783 0.951 . S
H759 C785 0.950 . S
H760 C786 0.950 . S
H761 C788 0.950 . S
H762 C791 0.950 . S
H763 C792 0.950 . S
H764 C794 0.950 . S
H765 C795 0.950 . S
C766 H748 0.951 . S
C766 C767 1.366 . S
C766 C768 1.388 . S
C767 C766 1.366 . S
C767 C771 1.385 . S
C768 H749 0.951 . S
C768 C766 1.388 . S
C768 C769 1.366 . S
C769 C768 1.366 . S
C769 C770 1.414 . S
C769 C772 1.499 . S
C770 H750 0.950 . S
C770 C769 1.414 . S
C770 C771 1.374 . S
C771 H751 0.950 . S
C771 C767 1.385 . S
C771 C770 1.374 . S
C772 C769 1.499 . S
C772 C773 1.373 . S
C772 C774 1.389 . S
C773 H752 0.950 . S
C773 C772 1.373 . S
C773 C789 1.377 . S
C774 C772 1.389 . S
C774 C775 1.524 . S
C774 C788 1.377 . S
C775 C774 1.524 . S
C775 C776 1.397 . S
C775 C780 1.363 . S
C776 H753 0.950 . S
C776 C775 1.397 . S
C776 C777 1.334 . S
C777 H754 0.950 . S
C777 C776 1.334 . S
C777 C778 1.287 . S
C778 C777 1.287 . S
C778 C779 1.524 . S
C778 H797 0.913 . S
C779 H755 0.950 . S
C779 C778 1.524 . S
C779 C780 1.415 . S
C780 H756 0.950 . S
C780 C775 1.363 . S
C780 C779 1.415 . S
C781 H757 0.951 . S
C781 C782 1.366 . S
C781 C783 1.388 . S
C782 C781 1.366 . S
C782 C786 1.385 . S
C783 H758 0.951 . S
C783 C781 1.388 . S
C783 C784 1.366 . S
C784 C783 1.366 . S
C784 C785 1.414 . S
C784 C787 1.499 . S
C785 H759 0.950 . S
C785 C784 1.414 . S
C785 C786 1.374 . S
C786 H760 0.950 . S
C786 C782 1.385 . S
C786 C785 1.374 . S
C787 C784 1.499 . S
C787 C788 1.373 . S
C787 C789 1.389 . S
C788 H761 0.950 . S
C788 C774 1.377 . S
C788 C787 1.373 . S
C789 C773 1.377 . S
C789 C787 1.389 . S
C789 C790 1.524 . S
C790 C789 1.524 . S
C790 C791 1.397 . S
C790 C795 1.363 . S
C791 H762 0.950 . S
C791 C790 1.397 . S
C791 C792 1.334 . S
C792 H763 0.950 . S
C792 C791 1.334 . S
C792 C793 1.287 . S
C793 C792 1.287 . S
C793 C794 1.524 . S
C793 H796 0.999 . S
C794 H764 0.950 . S
C794 C793 1.524 . S
C794 C795 1.415 . S
C795 H765 0.950 . S
C795 C790 1.363 . S
C795 C794 1.415 . S
H796 C793 0.999 . S
H797 C778 0.913 . S
H798 C816 0.951 . S
H799 C818 0.951 . S
H800 C820 0.950 . S
H801 C821 0.950 . S
H802 C823 0.950 . S
H803 C826 0.950 . S
H804 C827 0.950 . S
H805 C829 0.950 . S
H806 C830 0.950 . S
H807 C831 0.951 . S
H808 C833 0.951 . S
H809 C835 0.950 . S
H810 C836 0.950 . S
H811 C838 0.950 . S
H812 C841 0.950 . S
H813 C842 0.950 . S
H814 C844 0.950 . S
H815 C845 0.950 . S
C816 H798 0.951 . S
C816 C817 1.366 . S
C816 C818 1.388 . S
C817 C816 1.366 . S
C817 C821 1.385 . S
C818 H799 0.951 . S
C818 C816 1.388 . S
C818 C819 1.366 . S
C819 C818 1.366 . S
C819 C820 1.414 . S
C819 C822 1.499 . S
C820 H800 0.950 . S
C820 C819 1.414 . S
C820 C821 1.374 . S
C821 H801 0.950 . S
C821 C817 1.385 . S
C821 C820 1.374 . S
C822 C819 1.499 . S
C822 C823 1.373 . S
C822 C824 1.389 . S
C823 H802 0.950 . S
C823 C822 1.373 . S
C823 C839 1.377 . S
C824 C822 1.389 . S
C824 C825 1.524 . S
C824 C838 1.377 . S
C825 C824 1.524 . S
C825 C826 1.397 . S
C825 C830 1.363 . S
C826 H803 0.950 . S
C826 C825 1.397 . S
C826 C827 1.334 . S
C827 H804 0.950 . S
C827 C826 1.334 . S
C827 C828 1.287 . S
C828 C827 1.287 . S
C828 C829 1.524 . S
C828 H847 0.913 . S
C829 H805 0.950 . S
C829 C828 1.524 . S
C829 C830 1.415 . S
C830 H806 0.950 . S
C830 C825 1.363 . S
C830 C829 1.415 . S
C831 H807 0.951 . S
C831 C832 1.366 . S
C831 C833 1.388 . S
C832 C831 1.366 . S
C832 C836 1.385 . S
C833 H808 0.951 . S
C833 C831 1.388 . S
C833 C834 1.366 . S
C834 C833 1.366 . S
C834 C835 1.414 . S
C834 C837 1.499 . S
C835 H809 0.950 . S
C835 C834 1.414 . S
C835 C836 1.374 . S
C836 H810 0.950 . S
C836 C832 1.385 . S
C836 C835 1.374 . S
C837 C834 1.499 . S
C837 C838 1.373 . S
C837 C839 1.389 . S
C838 H811 0.950 . S
C838 C824 1.377 . S
C838 C837 1.373 . S
C839 C823 1.377 . S
C839 C837 1.389 . S
C839 C840 1.524 . S
C840 C839 1.524 . S
C840 C841 1.397 . S
C840 C845 1.363 . S
C841 H812 0.950 . S
C841 C840 1.397 . S
C841 C842 1.334 . S
C842 H813 0.950 . S
C842 C841 1.334 . S
C842 C843 1.287 . S
C843 C842 1.287 . S
C843 C844 1.524 . S
C843 H846 0.999 . S
C844 H814 0.950 . S
C844 C843 1.524 . S
C844 C845 1.415 . S
C845 H815 0.950 . S
C845 C840 1.363 . S
C845 C844 1.415 . S
H846 C843 0.999 . S
H847 C828 0.913 . S
H848 C866 0.951 . S
H849 C868 0.951 . S
H850 C870 0.950 . S
H851 C871 0.950 . S
H852 C873 0.950 . S
H853 C876 0.950 . S
H854 C877 0.950 . S
H855 C879 0.950 . S
H856 C880 0.950 . S
H857 C881 0.951 . S
H858 C883 0.951 . S
H859 C885 0.950 . S
H860 C886 0.950 . S
H861 C888 0.950 . S
H862 C891 0.950 . S
H863 C892 0.950 . S
H864 C894 0.950 . S
H865 C895 0.950 . S
C866 H848 0.951 . S
C866 C867 1.366 . S
C866 C868 1.388 . S
C867 C866 1.366 . S
C867 C871 1.385 . S
C868 H849 0.951 . S
C868 C866 1.388 . S
C868 C869 1.366 . S
C869 C868 1.366 . S
C869 C870 1.414 . S
C869 C872 1.499 . S
C870 H850 0.950 . S
C870 C869 1.414 . S
C870 C871 1.374 . S
C871 H851 0.950 . S
C871 C867 1.385 . S
C871 C870 1.374 . S
C872 C869 1.499 . S
C872 C873 1.373 . S
C872 C874 1.389 . S
C873 H852 0.950 . S
C873 C872 1.373 . S
C873 C889 1.377 . S
C874 C872 1.389 . S
C874 C875 1.524 . S
C874 C888 1.377 . S
C875 C874 1.524 . S
C875 C876 1.397 . S
C875 C880 1.363 . S
C876 H853 0.950 . S
C876 C875 1.397 . S
C876 C877 1.334 . S
C877 H854 0.950 . S
C877 C876 1.334 . S
C877 C878 1.287 . S
C878 C877 1.287 . S
C878 C879 1.524 . S
C878 H897 0.913 . S
C879 H855 0.950 . S
C879 C878 1.524 . S
C879 C880 1.415 . S
C880 H856 0.950 . S
C880 C875 1.363 . S
C880 C879 1.415 . S
C881 H857 0.951 . S
C881 C882 1.366 . S
C881 C883 1.388 . S
C882 C881 1.366 . S
C882 C886 1.385 . S
C883 H858 0.951 . S
C883 C881 1.388 . S
C883 C884 1.366 . S
C884 C883 1.366 . S
C884 C885 1.414 . S
C884 C887 1.499 . S
C885 H859 0.950 . S
C885 C884 1.414 . S
C885 C886 1.374 . S
C886 H860 0.950 . S
C886 C882 1.385 . S
C886 C885 1.374 . S
C887 C884 1.499 . S
C887 C888 1.373 . S
C887 C889 1.389 . S
C888 H861 0.950 . S
C888 C874 1.377 . S
C888 C887 1.373 . S
C889 C873 1.377 . S
C889 C887 1.389 . S
C889 C890 1.524 . S
C890 C889 1.524 . S
C890 C891 1.397 . S
C890 C895 1.363 . S
C891 H862 0.950 . S
C891 C890 1.397 . S
C891 C892 1.334 . S
C892 H863 0.950 . S
C892 C891 1.334 . S
C892 C893 1.287 . S
C893 C892 1.287 . S
C893 C894 1.524 . S
C893 H896 0.999 . S
C894 H864 0.950 . S
C894 C893 1.524 . S
C894 C895 1.415 . S
C895 H865 0.950 . S
C895 C890 1.363 . S
C895 C894 1.415 . S
H896 C893 0.999 . S
H897 C878 0.913 . S
H898 C916 0.951 . S
H899 C918 0.951 . S
H900 C920 0.950 . S
H901 C921 0.950 . S
H902 C923 0.950 . S
H903 C926 0.950 . S
H904 C927 0.950 . S
H905 C929 0.950 . S
H906 C930 0.950 . S
H907 C931 0.951 . S
H908 C933 0.951 . S
H909 C935 0.950 . S
H910 C936 0.950 . S
H911 C938 0.950 . S
H912 C941 0.950 . S
H913 C942 0.950 . S
H914 C944 0.950 . S
H915 C945 0.950 . S
C916 H898 0.951 . S
C916 C917 1.366 . S
C916 C918 1.388 . S
C917 C916 1.366 . S
C917 C921 1.385 . S
C918 H899 0.951 . S
C918 C916 1.388 . S
C918 C919 1.366 . S
C919 C918 1.366 . S
C919 C920 1.414 . S
C919 C922 1.499 . S
C920 H900 0.950 . S
C920 C919 1.414 . S
C920 C921 1.374 . S
C921 H901 0.950 . S
C921 C917 1.385 . S
C921 C920 1.374 . S
C922 C919 1.499 . S
C922 C923 1.373 . S
C922 C924 1.389 . S
C923 H902 0.950 . S
C923 C922 1.373 . S
C923 C939 1.377 . S
C924 C922 1.389 . S
C924 C925 1.524 . S
C924 C938 1.377 . S
C925 C924 1.524 . S
C925 C926 1.397 . S
C925 C930 1.363 . S
C926 H903 0.950 . S
C926 C925 1.397 . S
C926 C927 1.334 . S
C927 H904 0.950 . S
C927 C926 1.334 . S
C927 C928 1.287 . S
C928 C927 1.287 . S
C928 C929 1.524 . S
C928 H947 0.913 . S
C929 H905 0.950 . S
C929 C928 1.524 . S
C929 C930 1.415 . S
C930 H906 0.950 . S
C930 C925 1.363 . S
C930 C929 1.415 . S
C931 H907 0.951 . S
C931 C932 1.366 . S
C931 C933 1.388 . S
C932 C931 1.366 . S
C932 C936 1.385 . S
C933 H908 0.951 . S
C933 C931 1.388 . S
C933 C934 1.366 . S
C934 C933 1.366 . S
C934 C935 1.414 . S
C934 C937 1.499 . S
C935 H909 0.950 . S
C935 C934 1.414 . S
C935 C936 1.374 . S
C936 H910 0.950 . S
C936 C932 1.385 . S
C936 C935 1.374 . S
C937 C934 1.499 . S
C937 C938 1.373 . S
C937 C939 1.389 . S
C938 H911 0.950 . S
C938 C924 1.377 . S
C938 C937 1.373 . S
C939 C923 1.377 . S
C939 C937 1.389 . S
C939 C940 1.524 . S
C940 C939 1.524 . S
C940 C941 1.397 . S
C940 C945 1.363 . S
C941 H912 0.950 . S
C941 C940 1.397 . S
C941 C942 1.334 . S
C942 H913 0.950 . S
C942 C941 1.334 . S
C942 C943 1.287 . S
C943 C942 1.287 . S
C943 C944 1.524 . S
C943 H946 0.999 . S
C944 H914 0.950 . S
C944 C943 1.524 . S
C944 C945 1.415 . S
C945 H915 0.950 . S
C945 C940 1.363 . S
C945 C944 1.415 . S
H946 C943 0.999 . S
H947 C928 0.913 . S
H948 C966 0.951 . S
H949 C968 0.951 . S
H950 C970 0.950 . S
H951 C971 0.950 . S
H952 C973 0.950 . S
H953 C976 0.950 . S
H954 C977 0.950 . S
H955 C979 0.950 . S
H956 C980 0.950 . S
H957 C981 0.951 . S
H958 C983 0.951 . S
H959 C985 0.950 . S
H960 C986 0.950 . S
H961 C988 0.950 . S
H962 C991 0.950 . S
H963 C992 0.950 . S
H964 C994 0.950 . S
H965 C995 0.950 . S
C966 H948 0.951 . S
C966 C967 1.366 . S
C966 C968 1.388 . S
C967 C966 1.366 . S
C967 C971 1.385 . S
C968 H949 0.951 . S
C968 C966 1.388 . S
C968 C969 1.366 . S
C969 C968 1.366 . S
C969 C970 1.414 . S
C969 C972 1.499 . S
C970 H950 0.950 . S
C970 C969 1.414 . S
C970 C971 1.374 . S
C971 H951 0.950 . S
C971 C967 1.385 . S
C971 C970 1.374 . S
C972 C969 1.499 . S
C972 C973 1.373 . S
C972 C974 1.389 . S
C973 H952 0.950 . S
C973 C972 1.373 . S
C973 C989 1.377 . S
C974 C972 1.389 . S
C974 C975 1.524 . S
C974 C988 1.377 . S
C975 C974 1.524 . S
C975 C976 1.397 . S
C975 C980 1.363 . S
C976 H953 0.950 . S
C976 C975 1.397 . S
C976 C977 1.334 . S
C977 H954 0.950 . S
C977 C976 1.334 . S
C977 C978 1.287 . S
C978 C977 1.287 . S
C978 C979 1.524 . S
C978 H997 0.913 . S
C979 H955 0.950 . S
C979 C978 1.524 . S
C979 C980 1.415 . S
C980 H956 0.950 . S
C980 C975 1.363 . S
C980 C979 1.415 . S
C981 H957 0.951 . S
C981 C982 1.366 . S
C981 C983 1.388 . S
C982 C981 1.366 . S
C982 C986 1.385 . S
C983 H958 0.951 . S
C983 C981 1.388 . S
C983 C984 1.366 . S
C984 C983 1.366 . S
C984 C985 1.414 . S
C984 C987 1.499 . S
C985 H959 0.950 . S
C985 C984 1.414 . S
C985 C986 1.374 . S
C986 H960 0.950 . S
C986 C982 1.385 . S
C986 C985 1.374 . S
C987 C984 1.499 . S
C987 C988 1.373 . S
C987 C989 1.389 . S
C988 H961 0.950 . S
C988 C974 1.377 . S
C988 C987 1.373 . S
C989 C973 1.377 . S
C989 C987 1.389 . S
C989 C990 1.524 . S
C990 C989 1.524 . S
C990 C991 1.397 . S
C990 C995 1.363 . S
C991 H962 0.950 . S
C991 C990 1.397 . S
C991 C992 1.334 . S
C992 H963 0.950 . S
C992 C991 1.334 . S
C992 C993 1.287 . S
C993 C992 1.287 . S
C993 C994 1.524 . S
C993 H996 0.999 . S
C994 H964 0.950 . S
C994 C993 1.524 . S
C994 C995 1.415 . S
C995 H965 0.950 . S
C995 C990 1.363 . S
C995 C994 1.415 . S
H996 C993 0.999 . S
H997 C978 0.913 . S
H998 C1016 0.951 . S
H999 C1018 0.951 . S
H1000 C1020 0.950 . S
H1001 C1021 0.950 . S
H1002 C1023 0.950 . S
H1003 C1026 0.950 . S
H1004 C1027 0.950 . S
H1005 C1029 0.950 . S
H1006 C1030 0.950 . S
H1007 C1031 0.951 . S
H1008 C1033 0.951 . S
H1009 C1035 0.950 . S
H1010 C1036 0.950 . S
H1011 C1038 0.950 . S
H1012 C1041 0.950 . S
H1013 C1042 0.950 . S
H1014 C1044 0.950 . S
H1015 C1045 0.950 . S
C1016 H998 0.951 . S
C1016 C1017 1.366 . S
C1016 C1018 1.388 . S
C1017 C1016 1.366 . S
C1017 C1021 1.385 . S
C1018 H999 0.951 . S
C1018 C1016 1.388 . S
C1018 C1019 1.366 . S
C1019 C1018 1.366 . S
C1019 C1020 1.414 . S
C1019 C1022 1.499 . S
C1020 H1000 0.950 . S
C1020 C1019 1.414 . S
C1020 C1021 1.374 . S
C1021 H1001 0.950 . S
C1021 C1017 1.385 . S
C1021 C1020 1.374 . S
C1022 C1019 1.499 . S
C1022 C1023 1.373 . S
C1022 C1024 1.389 . S
C1023 H1002 0.950 . S
C1023 C1022 1.373 . S
C1023 C1039 1.377 . S
C1024 C1022 1.389 . S
C1024 C1025 1.524 . S
C1024 C1038 1.377 . S
C1025 C1024 1.524 . S
C1025 C1026 1.397 . S
C1025 C1030 1.363 . S
C1026 H1003 0.950 . S
C1026 C1025 1.397 . S
C1026 C1027 1.334 . S
C1027 H1004 0.950 . S
C1027 C1026 1.334 . S
C1027 C1028 1.287 . S
C1028 C1027 1.287 . S
C1028 C1029 1.524 . S
C1028 H1047 0.913 . S
C1029 H1005 0.950 . S
C1029 C1028 1.524 . S
C1029 C1030 1.415 . S
C1030 H1006 0.950 . S
C1030 C1025 1.363 . S
C1030 C1029 1.415 . S
C1031 H1007 0.951 . S
C1031 C1032 1.366 . S
C1031 C1033 1.388 . S
C1032 C1031 1.366 . S
C1032 C1036 1.385 . S
C1033 H1008 0.951 . S
C1033 C1031 1.388 . S
C1033 C1034 1.366 . S
C1034 C1033 1.366 . S
C1034 C1035 1.414 . S
C1034 C1037 1.499 . S
C1035 H1009 0.950 . S
C1035 C1034 1.414 . S
C1035 C1036 1.374 . S
C1036 H1010 0.950 . S
C1036 C1032 1.385 . S
C1036 C1035 1.374 . S
C1037 C1034 1.499 . S
C1037 C1038 1.373 . S
C1037 C1039 1.389 . S
C1038 H1011 0.950 . S
C1038 C1024 1.377 . S
C1038 C1037 1.373 . S
C1039 C1023 1.377 . S
C1039 C1037 1.389 . S
C1039 C1040 1.524 . S
C1040 C1039 1.524 . S
C1040 C1041 1.397 . S
C1040 C1045 1.363 . S
C1041 H1012 0.950 . S
C1041 C1040 1.397 . S
C1041 C1042 1.334 . S
C1042 H1013 0.950 . S
C1042 C1041 1.334 . S
C1042 C1043 1.287 . S
C1043 C1042 1.287 . S
C1043 C1044 1.524 . S
C1043 H1046 0.999 . S
C1044 H1014 0.950 . S
C1044 C1043 1.524 . S
C1044 C1045 1.415 . S
C1045 H1015 0.950 . S
C1045 C1040 1.363 . S
C1045 C1044 1.415 . S
H1046 C1043 0.999 . S
H1047 C1028 0.913 . S
H1048 C1066 0.951 . S
H1049 C1068 0.951 . S
H1050 C1070 0.950 . S
H1051 C1071 0.950 . S
H1052 C1073 0.950 . S
H1053 C1076 0.950 . S
H1054 C1077 0.950 . S
H1055 C1079 0.950 . S
H1056 C1080 0.950 . S
H1057 C1081 0.951 . S
H1058 C1083 0.951 . S
H1059 C1085 0.950 . S
H1060 C1086 0.950 . S
H1061 C1088 0.950 . S
H1062 C1091 0.950 . S
H1063 C1092 0.950 . S
H1064 C1094 0.950 . S
H1065 C1095 0.950 . S
C1066 H1048 0.951 . S
C1066 C1067 1.366 . S
C1066 C1068 1.388 . S
C1067 C1066 1.366 . S
C1067 C1071 1.385 . S
C1068 H1049 0.951 . S
C1068 C1066 1.388 . S
C1068 C1069 1.366 . S
C1069 C1068 1.366 . S
C1069 C1070 1.414 . S
C1069 C1072 1.499 . S
C1070 H1050 0.950 . S
C1070 C1069 1.414 . S
C1070 C1071 1.374 . S
C1071 H1051 0.950 . S
C1071 C1067 1.385 . S
C1071 C1070 1.374 . S
C1072 C1069 1.499 . S
C1072 C1073 1.373 . S
C1072 C1074 1.389 . S
C1073 H1052 0.950 . S
C1073 C1072 1.373 . S
C1073 C1089 1.377 . S
C1074 C1072 1.389 . S
C1074 C1075 1.524 . S
C1074 C1088 1.377 . S
C1075 C1074 1.524 . S
C1075 C1076 1.397 . S
C1075 C1080 1.363 . S
C1076 H1053 0.950 . S
C1076 C1075 1.397 . S
C1076 C1077 1.334 . S
C1077 H1054 0.950 . S
C1077 C1076 1.334 . S
C1077 C1078 1.287 . S
C1078 C1077 1.287 . S
C1078 C1079 1.524 . S
C1078 H1097 0.913 . S
C1079 H1055 0.950 . S
C1079 C1078 1.524 . S
C1079 C1080 1.415 . S
C1080 H1056 0.950 . S
C1080 C1075 1.363 . S
C1080 C1079 1.415 . S
C1081 H1057 0.951 . S
C1081 C1082 1.366 . S
C1081 C1083 1.388 . S
C1082 C1081 1.366 . S
C1082 C1086 1.385 . S
C1083 H1058 0.951 . S
C1083 C1081 1.388 . S
C1083 C1084 1.366 . S
C1084 C1083 1.366 . S
C1084 C1085 1.414 . S
C1084 C1087 1.499 . S
C1085 H1059 0.950 . S
C1085 C1084 1.414 . S
C1085 C1086 1.374 . S
C1086 H1060 0.950 . S
C1086 C1082 1.385 . S
C1086 C1085 1.374 . S
C1087 C1084 1.499 . S
C1087 C1088 1.373 . S
C1087 C1089 1.389 . S
C1088 H1061 0.950 . S
C1088 C1074 1.377 . S
C1088 C1087 1.373 . S
C1089 C1073 1.377 . S
C1089 C1087 1.389 . S
C1089 C1090 1.524 . S
C1090 C1089 1.524 . S
C1090 C1091 1.397 . S
C1090 C1095 1.363 . S
C1091 H1062 0.950 . S
C1091 C1090 1.397 . S
C1091 C1092 1.334 . S
C1092 H1063 0.950 . S
C1092 C1091 1.334 . S
C1092 C1093 1.287 . S
C1093 C1092 1.287 . S
C1093 C1094 1.524 . S
C1093 H1096 0.999 . S
C1094 H1064 0.950 . S
C1094 C1093 1.524 . S
C1094 C1095 1.415 . S
C1095 H1065 0.950 . S
C1095 C1090 1.363 . S
C1095 C1094 1.415 . S
H1096 C1093 0.999 . S
H1097 C1078 0.913 . S
H1098 C1116 0.951 . S
H1099 C1118 0.951 . S
H1100 C1120 0.950 . S
H1101 C1121 0.950 . S
H1102 C1123 0.950 . S
H1103 C1126 0.950 . S
H1104 C1127 0.950 . S
H1105 C1129 0.950 . S
H1106 C1130 0.950 . S
H1107 C1131 0.951 . S
H1108 C1133 0.951 . S
H1109 C1135 0.950 . S
H1110 C1136 0.950 . S
H1111 C1138 0.950 . S
H1112 C1141 0.950 . S
H1113 C1142 0.950 . S
H1114 C1144 0.950 . S
H1115 C1145 0.950 . S
C1116 H1098 0.951 . S
C1116 C1117 1.366 . S
C1116 C1118 1.388 . S
C1117 C1116 1.366 . S
C1117 C1121 1.385 . S
C1118 H1099 0.951 . S
C1118 C1116 1.388 . S
C1118 C1119 1.366 . S
C1119 C1118 1.366 . S
C1119 C1120 1.414 . S
C1119 C1122 1.499 . S
C1120 H1100 0.950 . S
C1120 C1119 1.414 . S
C1120 C1121 1.374 . S
C1121 H1101 0.950 . S
C1121 C1117 1.385 . S
C1121 C1120 1.374 . S
C1122 C1119 1.499 . S
C1122 C1123 1.373 . S
C1122 C1124 1.389 . S
C1123 H1102 0.950 . S
C1123 C1122 1.373 . S
C1123 C1139 1.377 . S
C1124 C1122 1.389 . S
C1124 C1125 1.524 . S
C1124 C1138 1.377 . S
C1125 C1124 1.524 . S
C1125 C1126 1.397 . S
C1125 C1130 1.363 . S
C1126 H1103 0.950 . S
C1126 C1125 1.397 . S
C1126 C1127 1.334 . S
C1127 H1104 0.950 . S
C1127 C1126 1.334 . S
C1127 C1128 1.287 . S
C1128 C1127 1.287 . S
C1128 C1129 1.524 . S
C1128 H1147 0.913 . S
C1129 H1105 0.950 . S
C1129 C1128 1.524 . S
C1129 C1130 1.415 . S
C1130 H1106 0.950 . S
C1130 C1125 1.363 . S
C1130 C1129 1.415 . S
C1131 H1107 0.951 . S
C1131 C1132 1.366 . S
C1131 C1133 1.388 . S
C1132 C1131 1.366 . S
C1132 C1136 1.385 . S
C1133 H1108 0.951 . S
C1133 C1131 1.388 . S
C1133 C1134 1.366 . S
C1134 C1133 1.366 . S
C1134 C1135 1.414 . S
C1134 C1137 1.499 . S
C1135 H1109 0.950 . S
C1135 C1134 1.414 . S
C1135 C1136 1.374 . S
C1136 H1110 0.950 . S
C1136 C1132 1.385 . S
C1136 C1135 1.374 . S
C1137 C1134 1.499 . S
C1137 C1138 1.373 . S
C1137 C1139 1.389 . S
C1138 H1111 0.950 . S
C1138 C1124 1.377 . S
C1138 C1137 1.373 . S
C1139 C1123 1.377 . S
C1139 C1137 1.389 . S
C1139 C1140 1.524 . S
C1140 C1139 1.524 . S
C1140 C1141 1.397 . S
C1140 C1145 1.363 . S
C1141 H1112 0.950 . S
C1141 C1140 1.397 . S
C1141 C1142 1.334 . S
C1142 H1113 0.950 . S
C1142 C1141 1.334 . S
C1142 C1143 1.287 . S
C1143 C1142 1.287 . S
C1143 C1144 1.524 . S
C1143 H1146 0.999 . S
C1144 H1114 0.950 . S
C1144 C1143 1.524 . S
C1144 C1145 1.415 . S
C1145 H1115 0.950 . S
C1145 C1140 1.363 . S
C1145 C1144 1.415 . S
H1146 C1143 0.999 . S
H1147 C1128 0.913 . S
H1148 C1166 0.951 . S
H1149 C1168 0.951 . S
H1150 C1170 0.950 . S
H1151 C1171 0.950 . S
H1152 C1173 0.950 . S
H1153 C1176 0.950 . S
H1154 C1177 0.950 . S
H1155 C1179 0.950 . S
H1156 C1180 0.950 . S
H1157 C1181 0.951 . S
H1158 C1183 0.951 . S
H1159 C1185 0.950 . S
H1160 C1186 0.950 . S
H1161 C1188 0.950 . S
H1162 C1191 0.950 . S
H1163 C1192 0.950 . S
H1164 C1194 0.950 . S
H1165 C1195 0.950 . S
C1166 H1148 0.951 . S
C1166 C1167 1.366 . S
C1166 C1168 1.388 . S
C1167 C1166 1.366 . S
C1167 C1171 1.385 . S
C1168 H1149 0.951 . S
C1168 C1166 1.388 . S
C1168 C1169 1.366 . S
C1169 C1168 1.366 . S
C1169 C1170 1.414 . S
C1169 C1172 1.499 . S
C1170 H1150 0.950 . S
C1170 C1169 1.414 . S
C1170 C1171 1.374 . S
C1171 H1151 0.950 . S
C1171 C1167 1.385 . S
C1171 C1170 1.374 . S
C1172 C1169 1.499 . S
C1172 C1173 1.373 . S
C1172 C1174 1.389 . S
C1173 H1152 0.950 . S
C1173 C1172 1.373 . S
C1173 C1189 1.377 . S
C1174 C1172 1.389 . S
C1174 C1175 1.524 . S
C1174 C1188 1.377 . S
C1175 C1174 1.524 . S
C1175 C1176 1.397 . S
C1175 C1180 1.363 . S
C1176 H1153 0.950 . S
C1176 C1175 1.397 . S
C1176 C1177 1.334 . S
C1177 H1154 0.950 . S
C1177 C1176 1.334 . S
C1177 C1178 1.287 . S
C1178 C1177 1.287 . S
C1178 C1179 1.524 . S
C1178 H1197 0.913 . S
C1179 H1155 0.950 . S
C1179 C1178 1.524 . S
C1179 C1180 1.415 . S
C1180 H1156 0.950 . S
C1180 C1175 1.363 . S
C1180 C1179 1.415 . S
C1181 H1157 0.951 . S
C1181 C1182 1.366 . S
C1181 C1183 1.388 . S
C1182 C1181 1.366 . S
C1182 C1186 1.385 . S
C1183 H1158 0.951 . S
C1183 C1181 1.388 . S
C1183 C1184 1.366 . S
C1184 C1183 1.366 . S
C1184 C1185 1.414 . S
C1184 C1187 1.499 . S
C1185 H1159 0.950 . S
C1185 C1184 1.414 . S
C1185 C1186 1.374 . S
C1186 H1160 0.950 . S
C1186 C1182 1.385 . S
C1186 C1185 1.374 . S
C1187 C1184 1.499 . S
C1187 C1188 1.373 . S
C1187 C1189 1.389 . S
C1188 H1161 0.950 . S
C1188 C1174 1.377 . S
C1188 C1187 1.373 . S
C1189 C1173 1.377 . S
C1189 C1187 1.389 . S
C1189 C1190 1.524 . S
C1190 C1189 1.524 . S
C1190 C1191 1.397 . S
C1190 C1195 1.363 . S
C1191 H1162 0.950 . S
C1191 C1190 1.397 . S
C1191 C1192 1.334 . S
C1192 H1163 0.950 . S
C1192 C1191 1.334 . S
C1192 C1193 1.287 . S
C1193 C1192 1.287 . S
C1193 C1194 1.524 . S
C1193 H1196 0.999 . S
C1194 H1164 0.950 . S
C1194 C1193 1.524 . S
C1194 C1195 1.415 . S
C1195 H1165 0.950 . S
C1195 C1190 1.363 . S
C1195 C1194 1.415 . S
H1196 C1193 0.999 . S
H1197 C1178 0.913 . S
H1198 C1216 0.951 . S
H1199 C1218 0.951 . S
H1200 C1220 0.950 . S
H1201 C1221 0.950 . S
H1202 C1223 0.950 . S
H1203 C1226 0.950 . S
H1204 C1227 0.950 . S
H1205 C1229 0.950 . S
H1206 C1230 0.950 . S
H1207 C1231 0.951 . S
H1208 C1233 0.951 . S
H1209 C1235 0.950 . S
H1210 C1236 0.950 . S
H1211 C1238 0.950 . S
H1212 C1241 0.950 . S
H1213 C1242 0.950 . S
H1214 C1244 0.950 . S
H1215 C1245 0.950 . S
C1216 H1198 0.951 . S
C1216 C1217 1.366 . S
C1216 C1218 1.388 . S
C1217 C1216 1.366 . S
C1217 C1221 1.385 . S
C1218 H1199 0.951 . S
C1218 C1216 1.388 . S
C1218 C1219 1.366 . S
C1219 C1218 1.366 . S
C1219 C1220 1.414 . S
C1219 C1222 1.499 . S
C1220 H1200 0.950 . S
C1220 C1219 1.414 . S
C1220 C1221 1.374 . S
C1221 H1201 0.950 . S
C1221 C1217 1.385 . S
C1221 C1220 1.374 . S
C1222 C1219 1.499 . S
C1222 C1223 1.373 . S
C1222 C1224 1.389 . S
C1223 H1202 0.950 . S
C1223 C1222 1.373 . S
C1223 C1239 1.377 . S
C1224 C1222 1.389 . S
C1224 C1225 1.524 . S
C1224 C1238 1.377 . S
C1225 C1224 1.524 . S
C1225 C1226 1.397 . S
C1225 C1230 1.363 . S
C1226 H1203 0.950 . S
C1226 C1225 1.397 . S
C1226 C1227 1.334 . S
C1227 H1204 0.950 . S
C1227 C1226 1.334 . S
C1227 C1228 1.287 . S
C1228 C1227 1.287 . S
C1228 C1229 1.524 . S
C1228 H1247 0.913 . S
C1229 H1205 0.950 . S
C1229 C1228 1.524 . S
C1229 C1230 1.415 . S
C1230 H1206 0.950 . S
C1230 C1225 1.363 . S
C1230 C1229 1.415 . S
C1231 H1207 0.951 . S
C1231 C1232 1.366 . S
C1231 C1233 1.388 . S
C1232 C1231 1.366 . S
C1232 C1236 1.385 . S
C1233 H1208 0.951 . S
C1233 C1231 1.388 . S
C1233 C1234 1.366 . S
C1234 C1233 1.366 . S
C1234 C1235 1.414 . S
C1234 C1237 1.499 . S
C1235 H1209 0.950 . S
C1235 C1234 1.414 . S
C1235 C1236 1.374 . S
C1236 H1210 0.950 . S
C1236 C1232 1.385 . S
C1236 C1235 1.374 . S
C1237 C1234 1.499 . S
C1237 C1238 1.373 . S
C1237 C1239 1.389 . S
C1238 H1211 0.950 . S
C1238 C1224 1.377 . S
C1238 C1237 1.373 . S
C1239 C1223 1.377 . S
C1239 C1237 1.389 . S
C1239 C1240 1.524 . S
C1240 C1239 1.524 . S
C1240 C1241 1.397 . S
C1240 C1245 1.363 . S
C1241 H1212 0.950 . S
C1241 C1240 1.397 . S
C1241 C1242 1.334 . S
C1242 H1213 0.950 . S
C1242 C1241 1.334 . S
C1242 C1243 1.287 . S
C1243 C1242 1.287 . S
C1243 C1244 1.524 . S
C1243 H1246 0.999 . S
C1244 H1214 0.950 . S
C1244 C1243 1.524 . S
C1244 C1245 1.415 . S
C1245 H1215 0.950 . S
C1245 C1240 1.363 . S
C1245 C1244 1.415 . S
H1246 C1243 0.999 . S
H1247 C1228 0.913 . S
H1248 C1266 0.951 . S
H1249 C1268 0.951 . S
H1250 C1270 0.950 . S
H1251 C1271 0.950 . S
H1252 C1273 0.950 . S
H1253 C1276 0.950 . S
H1254 C1277 0.950 . S
H1255 C1279 0.950 . S
H1256 C1280 0.950 . S
H1257 C1281 0.951 . S
H1258 C1283 0.951 . S
H1259 C1285 0.950 . S
H1260 C1286 0.950 . S
H1261 C1288 0.950 . S
H1262 C1291 0.950 . S
H1263 C1292 0.950 . S
H1264 C1294 0.950 . S
H1265 C1295 0.950 . S
C1266 H1248 0.951 . S
C1266 C1267 1.366 . S
C1266 C1268 1.388 . S
C1267 C1266 1.366 . S
C1267 C1271 1.385 . S
C1268 H1249 0.951 . S
C1268 C1266 1.388 . S
C1268 C1269 1.366 . S
C1269 C1268 1.366 . S
C1269 C1270 1.414 . S
C1269 C1272 1.499 . S
C1270 H1250 0.950 . S
C1270 C1269 1.414 . S
C1270 C1271 1.374 . S
C1271 H1251 0.950 . S
C1271 C1267 1.385 . S
C1271 C1270 1.374 . S
C1272 C1269 1.499 . S
C1272 C1273 1.373 . S
C1272 C1274 1.389 . S
C1273 H1252 0.950 . S
C1273 C1272 1.373 . S
C1273 C1289 1.377 1_554 S
C1274 C1272 1.389 . S
C1274 C1275 1.524 . S
C1274 C1288 1.377 1_554 S
C1275 C1274 1.524 . S
C1275 C1276 1.397 . S
C1275 C1280 1.363 . S
C1276 H1253 0.950 . S
C1276 C1275 1.397 . S
C1276 C1277 1.334 . S
C1277 H1254 0.950 . S
C1277 C1276 1.334 . S
C1277 C1278 1.287 . S
C1278 C1277 1.287 . S
C1278 C1279 1.524 . S
C1278 H1297 0.913 . S
C1279 H1255 0.950 . S
C1279 C1278 1.524 . S
C1279 C1280 1.415 . S
C1280 H1256 0.950 . S
C1280 C1275 1.363 . S
C1280 C1279 1.415 . S
C1281 H1257 0.951 . S
C1281 C1282 1.366 . S
C1281 C1283 1.388 . S
C1282 C1281 1.366 . S
C1282 C1286 1.385 . S
C1283 H1258 0.951 . S
C1283 C1281 1.388 . S
C1283 C1284 1.366 . S
C1284 C1283 1.366 . S
C1284 C1285 1.414 . S
C1284 C1287 1.499 . S
C1285 H1259 0.950 . S
C1285 C1284 1.414 . S
C1285 C1286 1.374 . S
C1286 H1260 0.950 . S
C1286 C1282 1.385 . S
C1286 C1285 1.374 . S
C1287 C1284 1.499 . S
C1287 C1288 1.373 . S
C1287 C1289 1.389 . S
C1288 H1261 0.950 . S
C1288 C1274 1.377 1_556 S
C1288 C1287 1.373 . S
C1289 C1273 1.377 1_556 S
C1289 C1287 1.389 . S
C1289 C1290 1.524 . S
C1290 C1289 1.524 . S
C1290 C1291 1.397 . S
C1290 C1295 1.363 . S
C1291 H1262 0.950 . S
C1291 C1290 1.397 . S
C1291 C1292 1.334 . S
C1292 H1263 0.950 . S
C1292 C1291 1.334 . S
C1292 C1293 1.287 . S
C1293 C1292 1.287 . S
C1293 C1294 1.524 . S
C1293 H1296 0.999 . S
C1294 H1264 0.950 . S
C1294 C1293 1.524 . S
C1294 C1295 1.415 . S
C1295 H1265 0.950 . S
C1295 C1290 1.363 . S
C1295 C1294 1.415 . S
H1296 C1293 0.999 . S
H1297 C1278 0.913 . S
H1298 C1316 0.951 . S
H1299 C1318 0.951 . S
H1300 C1320 0.950 . S
H1301 C1321 0.950 . S
H1302 C1323 0.950 . S
H1303 C1326 0.950 . S
H1304 C1327 0.950 . S
H1305 C1329 0.950 . S
H1306 C1330 0.950 . S
H1307 C1331 0.951 . S
H1308 C1333 0.951 . S
H1309 C1335 0.950 . S
H1310 C1336 0.950 . S
H1311 C1338 0.950 . S
H1312 C1341 0.950 . S
H1313 C1342 0.950 . S
H1314 C1344 0.950 . S
H1315 C1345 0.950 . S
C1316 H1298 0.951 . S
C1316 C1317 1.366 . S
C1316 C1318 1.388 . S
C1317 C1316 1.366 . S
C1317 C1321 1.385 . S
C1318 H1299 0.951 . S
C1318 C1316 1.388 . S
C1318 C1319 1.366 . S
C1319 C1318 1.366 . S
C1319 C1320 1.414 . S
C1319 C1322 1.499 . S
C1320 H1300 0.950 . S
C1320 C1319 1.414 . S
C1320 C1321 1.374 . S
C1321 H1301 0.950 . S
C1321 C1317 1.385 . S
C1321 C1320 1.374 . S
C1322 C1319 1.499 . S
C1322 C1323 1.373 . S
C1322 C1324 1.389 . S
C1323 H1302 0.950 . S
C1323 C1322 1.373 . S
C1323 C1339 1.377 1_556 S
C1324 C1322 1.389 . S
C1324 C1325 1.524 . S
C1324 C1338 1.377 1_556 S
C1325 C1324 1.524 . S
C1325 C1326 1.397 . S
C1325 C1330 1.363 . S
C1326 H1303 0.950 . S
C1326 C1325 1.397 . S
C1326 C1327 1.334 . S
C1327 H1304 0.950 . S
C1327 C1326 1.334 . S
C1327 C1328 1.287 . S
C1328 C1327 1.287 . S
C1328 C1329 1.524 . S
C1328 H1347 0.913 . S
C1329 H1305 0.950 . S
C1329 C1328 1.524 . S
C1329 C1330 1.415 . S
C1330 H1306 0.950 . S
C1330 C1325 1.363 . S
C1330 C1329 1.415 . S
C1331 H1307 0.951 . S
C1331 C1332 1.366 . S
C1331 C1333 1.388 . S
C1332 C1331 1.366 . S
C1332 C1336 1.385 . S
C1333 H1308 0.951 . S
C1333 C1331 1.388 . S
C1333 C1334 1.366 . S
C1334 C1333 1.366 . S
C1334 C1335 1.414 . S
C1334 C1337 1.499 . S
C1335 H1309 0.950 . S
C1335 C1334 1.414 . S
C1335 C1336 1.374 . S
C1336 H1310 0.950 . S
C1336 C1332 1.385 . S
C1336 C1335 1.374 . S
C1337 C1334 1.499 . S
C1337 C1338 1.373 . S
C1337 C1339 1.389 . S
C1338 H1311 0.950 . S
C1338 C1324 1.377 1_554 S
C1338 C1337 1.373 . S
C1339 C1323 1.377 1_554 S
C1339 C1337 1.389 . S
C1339 C1340 1.524 . S
C1340 C1339 1.524 . S
C1340 C1341 1.397 . S
C1340 C1345 1.363 . S
C1341 H1312 0.950 . S
C1341 C1340 1.397 . S
C1341 C1342 1.334 . S
C1342 H1313 0.950 . S
C1342 C1341 1.334 . S
C1342 C1343 1.287 . S
C1343 C1342 1.287 . S
C1343 C1344 1.524 . S
C1343 H1346 0.999 . S
C1344 H1314 0.950 . S
C1344 C1343 1.524 . S
C1344 C1345 1.415 . S
C1345 H1315 0.950 . S
C1345 C1340 1.363 . S
C1345 C1344 1.415 . S
H1346 C1343 0.999 . S
H1347 C1328 0.913 . S
H1348 C1366 0.951 . S
H1349 C1368 0.951 . S
H1350 C1370 0.950 . S
H1351 C1371 0.950 . S
H1352 C1373 0.950 . S
H1353 C1376 0.950 . S
H1354 C1377 0.950 . S
H1355 C1379 0.950 . S
H1356 C1380 0.950 . S
H1357 C1381 0.951 . S
H1358 C1383 0.951 . S
H1359 C1385 0.950 . S
H1360 C1386 0.950 . S
H1361 C1388 0.950 . S
H1362 C1391 0.950 . S
H1363 C1392 0.950 . S
H1364 C1394 0.950 . S
H1365 C1395 0.950 . S
C1366 H1348 0.951 . S
C1366 C1367 1.366 . S
C1366 C1368 1.388 . S
C1367 C1366 1.366 . S
C1367 C1371 1.385 . S
C1368 H1349 0.951 . S
C1368 C1366 1.388 . S
C1368 C1369 1.366 . S
C1369 C1368 1.366 . S
C1369 C1370 1.414 . S
C1369 C1372 1.499 . S
C1370 H1350 0.950 . S
C1370 C1369 1.414 . S
C1370 C1371 1.374 . S
C1371 H1351 0.950 . S
C1371 C1367 1.385 . S
C1371 C1370 1.374 . S
C1372 C1369 1.499 . S
C1372 C1373 1.373 . S
C1372 C1374 1.389 . S
C1373 H1352 0.950 . S
C1373 C1372 1.373 . S
C1373 C1389 1.377 1_556 S
C1374 C1372 1.389 . S
C1374 C1375 1.524 . S
C1374 C1388 1.377 1_556 S
C1375 C1374 1.524 . S
C1375 C1376 1.397 . S
C1375 C1380 1.363 . S
C1376 H1353 0.950 . S
C1376 C1375 1.397 . S
C1376 C1377 1.334 . S
C1377 H1354 0.950 . S
C1377 C1376 1.334 . S
C1377 C1378 1.287 . S
C1378 C1377 1.287 . S
C1378 C1379 1.524 . S
C1378 H1397 0.913 . S
C1379 H1355 0.950 . S
C1379 C1378 1.524 . S
C1379 C1380 1.415 . S
C1380 H1356 0.950 . S
C1380 C1375 1.363 . S
C1380 C1379 1.415 . S
C1381 H1357 0.951 . S
C1381 C1382 1.366 . S
C1381 C1383 1.388 . S
C1382 C1381 1.366 . S
C1382 C1386 1.385 . S
C1383 H1358 0.951 . S
C1383 C1381 1.388 . S
C1383 C1384 1.366 . S
C1384 C1383 1.366 . S
C1384 C1385 1.414 . S
C1384 C1387 1.499 . S
C1385 H1359 0.950 . S
C1385 C1384 1.414 . S
C1385 C1386 1.374 . S
C1386 H1360 0.950 . S
C1386 C1382 1.385 . S
C1386 C1385 1.374 . S
C1387 C1384 1.499 . S
C1387 C1388 1.373 . S
C1387 C1389 1.389 . S
C1388 H1361 0.950 . S
C1388 C1374 1.377 1_554 S
C1388 C1387 1.373 . S
C1389 C1373 1.377 1_554 S
C1389 C1387 1.389 . S
C1389 C1390 1.524 . S
C1390 C1389 1.524 . S
C1390 C1391 1.397 . S
C1390 C1395 1.363 . S
C1391 H1362 0.950 . S
C1391 C1390 1.397 . S
C1391 C1392 1.334 . S
C1392 H1363 0.950 . S
C1392 C1391 1.334 . S
C1392 C1393 1.287 . S
C1393 C1392 1.287 . S
C1393 C1394 1.524 . S
C1393 H1396 0.999 . S
C1394 H1364 0.950 . S
C1394 C1393 1.524 . S
C1394 C1395 1.415 . S
C1395 H1365 0.950 . S
C1395 C1390 1.363 . S
C1395 C1394 1.415 . S
H1396 C1393 0.999 . S
H1397 C1378 0.913 . S
H1398 C1416 0.951 . S
H1399 C1418 0.951 . S
H1400 C1420 0.950 . S
H1401 C1421 0.950 . S
H1402 C1423 0.950 . S
H1403 C1426 0.950 . S
H1404 C1427 0.950 . S
H1405 C1429 0.950 . S
H1406 C1430 0.950 . S
H1407 C1431 0.951 . S
H1408 C1433 0.951 . S
H1409 C1435 0.950 . S
H1410 C1436 0.950 . S
H1411 C1438 0.950 . S
H1412 C1441 0.950 . S
H1413 C1442 0.950 . S
H1414 C1444 0.950 . S
H1415 C1445 0.950 . S
C1416 H1398 0.951 . S
C1416 C1417 1.366 . S
C1416 C1418 1.388 . S
C1417 C1416 1.366 . S
C1417 C1421 1.385 . S
C1418 H1399 0.951 . S
C1418 C1416 1.388 . S
C1418 C1419 1.366 . S
C1419 C1418 1.366 . S
C1419 C1420 1.414 . S
C1419 C1422 1.499 . S
C1420 H1400 0.950 . S
C1420 C1419 1.414 . S
C1420 C1421 1.374 . S
C1421 H1401 0.950 . S
C1421 C1417 1.385 . S
C1421 C1420 1.374 . S
C1422 C1419 1.499 . S
C1422 C1423 1.373 . S
C1422 C1424 1.389 . S
C1423 H1402 0.950 . S
C1423 C1422 1.373 . S
C1423 C1439 1.377 1_556 S
C1424 C1422 1.389 . S
C1424 C1425 1.524 . S
C1424 C1438 1.377 1_556 S
C1425 C1424 1.524 . S
C1425 C1426 1.397 . S
C1425 C1430 1.363 . S
C1426 H1403 0.950 . S
C1426 C1425 1.397 . S
C1426 C1427 1.334 . S
C1427 H1404 0.950 . S
C1427 C1426 1.334 . S
C1427 C1428 1.287 . S
C1428 C1427 1.287 . S
C1428 C1429 1.524 . S
C1428 H1447 0.913 . S
C1429 H1405 0.950 . S
C1429 C1428 1.524 . S
C1429 C1430 1.415 . S
C1430 H1406 0.950 . S
C1430 C1425 1.363 . S
C1430 C1429 1.415 . S
C1431 H1407 0.951 . S
C1431 C1432 1.366 . S
C1431 C1433 1.388 . S
C1432 C1431 1.366 . S
C1432 C1436 1.385 . S
C1433 H1408 0.951 . S
C1433 C1431 1.388 . S
C1433 C1434 1.366 . S
C1434 C1433 1.366 . S
C1434 C1435 1.414 . S
C1434 C1437 1.499 . S
C1435 H1409 0.950 . S
C1435 C1434 1.414 . S
C1435 C1436 1.374 . S
C1436 H1410 0.950 . S
C1436 C1432 1.385 . S
C1436 C1435 1.374 . S
C1437 C1434 1.499 . S
C1437 C1438 1.373 . S
C1437 C1439 1.389 . S
C1438 H1411 0.950 . S
C1438 C1424 1.377 1_554 S
C1438 C1437 1.373 . S
C1439 C1423 1.377 1_554 S
C1439 C1437 1.389 . S
C1439 C1440 1.524 . S
C1440 C1439 1.524 . S
C1440 C1441 1.397 . S
C1440 C1445 1.363 . S
C1441 H1412 0.950 . S
C1441 C1440 1.397 . S
C1441 C1442 1.334 . S
C1442 H1413 0.950 . S
C1442 C1441 1.334 . S
C1442 C1443 1.287 . S
C1443 C1442 1.287 . S
C1443 C1444 1.524 . S
C1443 H1446 0.999 . S
C1444 H1414 0.950 . S
C1444 C1443 1.524 . S
C1444 C1445 1.415 . S
C1445 H1415 0.950 . S
C1445 C1440 1.363 . S
C1445 C1444 1.415 . S
H1446 C1443 0.999 . S
H1447 C1428 0.913 . S
H1448 C1466 0.951 . S
H1449 C1468 0.951 . S
H1450 C1470 0.950 . S
H1451 C1471 0.950 . S
H1452 C1473 0.950 . S
H1453 C1476 0.950 . S
H1454 C1477 0.950 . S
H1455 C1479 0.950 . S
H1456 C1480 0.950 . S
H1457 C1481 0.951 . S
H1458 C1483 0.951 . S
H1459 C1485 0.950 . S
H1460 C1486 0.950 . S
H1461 C1488 0.950 . S
H1462 C1491 0.950 . S
H1463 C1492 0.950 . S
H1464 C1494 0.950 . S
H1465 C1495 0.950 . S
C1466 H1448 0.951 . S
C1466 C1467 1.366 . S
C1466 C1468 1.388 . S
C1467 C1466 1.366 . S
C1467 C1471 1.385 . S
C1468 H1449 0.951 . S
C1468 C1466 1.388 . S
C1468 C1469 1.366 . S
C1469 C1468 1.366 . S
C1469 C1470 1.414 . S
C1469 C1472 1.499 . S
C1470 H1450 0.950 . S
C1470 C1469 1.414 . S
C1470 C1471 1.374 . S
C1471 H1451 0.950 . S
C1471 C1467 1.385 . S
C1471 C1470 1.374 . S
C1472 C1469 1.499 . S
C1472 C1473 1.373 . S
C1472 C1474 1.389 . S
C1473 H1452 0.950 . S
C1473 C1472 1.373 . S
C1473 C1489 1.377 . S
C1474 C1472 1.389 . S
C1474 C1475 1.524 . S
C1474 C1488 1.377 . S
C1475 C1474 1.524 . S
C1475 C1476 1.397 . S
C1475 C1480 1.363 . S
C1476 H1453 0.950 . S
C1476 C1475 1.397 . S
C1476 C1477 1.334 . S
C1477 H1454 0.950 . S
C1477 C1476 1.334 . S
C1477 C1478 1.287 . S
C1478 C1477 1.287 . S
C1478 C1479 1.524 . S
C1478 H1497 0.913 . S
C1479 H1455 0.950 . S
C1479 C1478 1.524 . S
C1479 C1480 1.415 . S
C1480 H1456 0.950 . S
C1480 C1475 1.363 . S
C1480 C1479 1.415 . S
C1481 H1457 0.951 . S
C1481 C1482 1.366 . S
C1481 C1483 1.388 . S
C1482 C1481 1.366 . S
C1482 C1486 1.385 . S
C1483 H1458 0.951 . S
C1483 C1481 1.388 . S
C1483 C1484 1.366 . S
C1484 C1483 1.366 . S
C1484 C1485 1.414 . S
C1484 C1487 1.499 . S
C1485 H1459 0.950 . S
C1485 C1484 1.414 . S
C1485 C1486 1.374 . S
C1486 H1460 0.950 . S
C1486 C1482 1.385 . S
C1486 C1485 1.374 . S
C1487 C1484 1.499 . S
C1487 C1488 1.373 . S
C1487 C1489 1.389 . S
C1488 H1461 0.950 . S
C1488 C1474 1.377 . S
C1488 C1487 1.373 . S
C1489 C1473 1.377 . S
C1489 C1487 1.389 . S
C1489 C1490 1.524 . S
C1490 C1489 1.524 . S
C1490 C1491 1.397 . S
C1490 C1495 1.363 . S
C1491 H1462 0.950 . S
C1491 C1490 1.397 . S
C1491 C1492 1.334 . S
C1492 H1463 0.950 . S
C1492 C1491 1.334 . S
C1492 C1493 1.287 . S
C1493 C1492 1.287 . S
C1493 C1494 1.524 . S
C1493 H1496 0.999 . S
C1494 H1464 0.950 . S
C1494 C1493 1.524 . S
C1494 C1495 1.415 . S
C1495 H1465 0.950 . S
C1495 C1490 1.363 . S
C1495 C1494 1.415 . S
H1496 C1493 0.999 . S
H1497 C1478 0.913 . S
H1498 C1516 0.951 . S
H1499 C1518 0.951 . S
H1500 C1520 0.950 . S
H1501 C1521 0.950 . S
H1502 C1523 0.950 . S
H1503 C1526 0.950 . S
H1504 C1527 0.950 . S
H1505 C1529 0.950 . S
H1506 C1530 0.950 . S
H1507 C1531 0.951 . S
H1508 C1533 0.951 . S
H1509 C1535 0.950 . S
H1510 C1536 0.950 . S
H1511 C1538 0.950 . S
H1512 C1541 0.950 . S
H1513 C1542 0.950 . S
H1514 C1544 0.950 . S
H1515 C1545 0.950 . S
C1516 H1498 0.951 . S
C1516 C1517 1.366 . S
C1516 C1518 1.388 . S
C1517 C1516 1.366 . S
C1517 C1521 1.385 . S
C1518 H1499 0.951 . S
C1518 C1516 1.388 . S
C1518 C1519 1.366 . S
C1519 C1518 1.366 . S
C1519 C1520 1.414 . S
C1519 C1522 1.499 . S
C1520 H1500 0.950 . S
C1520 C1519 1.414 . S
C1520 C1521 1.374 . S
C1521 H1501 0.950 . S
C1521 C1517 1.385 . S
C1521 C1520 1.374 . S
C1522 C1519 1.499 . S
C1522 C1523 1.373 . S
C1522 C1524 1.389 . S
C1523 H1502 0.950 . S
C1523 C1522 1.373 . S
C1523 C1539 1.377 . S
C1524 C1522 1.389 . S
C1524 C1525 1.524 . S
C1524 C1538 1.377 . S
C1525 C1524 1.524 . S
C1525 C1526 1.397 . S
C1525 C1530 1.363 . S
C1526 H1503 0.950 . S
C1526 C1525 1.397 . S
C1526 C1527 1.334 . S
C1527 H1504 0.950 . S
C1527 C1526 1.334 . S
C1527 C1528 1.287 . S
C1528 C1527 1.287 . S
C1528 C1529 1.524 . S
C1528 H1547 0.913 . S
C1529 H1505 0.950 . S
C1529 C1528 1.524 . S
C1529 C1530 1.415 . S
C1530 H1506 0.950 . S
C1530 C1525 1.363 . S
C1530 C1529 1.415 . S
C1531 H1507 0.951 . S
C1531 C1532 1.366 . S
C1531 C1533 1.388 . S
C1532 C1531 1.366 . S
C1532 C1536 1.385 . S
C1533 H1508 0.951 . S
C1533 C1531 1.388 . S
C1533 C1534 1.366 . S
C1534 C1533 1.366 . S
C1534 C1535 1.414 . S
C1534 C1537 1.499 . S
C1535 H1509 0.950 . S
C1535 C1534 1.414 . S
C1535 C1536 1.374 . S
C1536 H1510 0.950 . S
C1536 C1532 1.385 . S
C1536 C1535 1.374 . S
C1537 C1534 1.499 . S
C1537 C1538 1.373 . S
C1537 C1539 1.389 . S
C1538 H1511 0.950 . S
C1538 C1524 1.377 . S
C1538 C1537 1.373 . S
C1539 C1523 1.377 . S
C1539 C1537 1.389 . S
C1539 C1540 1.524 . S
C1540 C1539 1.524 . S
C1540 C1541 1.397 . S
C1540 C1545 1.363 . S
C1541 H1512 0.950 . S
C1541 C1540 1.397 . S
C1541 C1542 1.334 . S
C1542 H1513 0.950 . S
C1542 C1541 1.334 . S
C1542 C1543 1.287 . S
C1543 C1542 1.287 . S
C1543 C1544 1.524 . S
C1543 H1546 0.999 . S
C1544 H1514 0.950 . S
C1544 C1543 1.524 . S
C1544 C1545 1.415 . S
C1545 H1515 0.950 . S
C1545 C1540 1.363 . S
C1545 C1544 1.415 . S
H1546 C1543 0.999 . S
H1547 C1528 0.913 . S
H1548 C1566 0.951 . S
H1549 C1568 0.951 . S
H1550 C1570 0.950 . S
H1551 C1571 0.950 . S
H1552 C1573 0.950 . S
H1553 C1576 0.950 . S
H1554 C1577 0.950 . S
H1555 C1579 0.950 . S
H1556 C1580 0.950 . S
H1557 C1581 0.951 . S
H1558 C1583 0.951 . S
H1559 C1585 0.950 . S
H1560 C1586 0.950 . S
H1561 C1588 0.950 . S
H1562 C1591 0.950 . S
H1563 C1592 0.950 . S
H1564 C1594 0.950 . S
H1565 C1595 0.950 . S
C1566 H1548 0.951 . S
C1566 C1567 1.366 . S
C1566 C1568 1.388 . S
C1567 C1566 1.366 . S
C1567 C1571 1.385 . S
C1568 H1549 0.951 . S
C1568 C1566 1.388 . S
C1568 C1569 1.366 . S
C1569 C1568 1.366 . S
C1569 C1570 1.414 . S
C1569 C1572 1.499 . S
C1570 H1550 0.950 . S
C1570 C1569 1.414 . S
C1570 C1571 1.374 . S
C1571 H1551 0.950 . S
C1571 C1567 1.385 . S
C1571 C1570 1.374 . S
C1572 C1569 1.499 . S
C1572 C1573 1.373 . S
C1572 C1574 1.389 . S
C1573 H1552 0.950 . S
C1573 C1572 1.373 . S
C1573 C1589 1.377 . S
C1574 C1572 1.389 . S
C1574 C1575 1.524 . S
C1574 C1588 1.377 . S
C1575 C1574 1.524 . S
C1575 C1576 1.397 . S
C1575 C1580 1.363 . S
C1576 H1553 0.950 . S
C1576 C1575 1.397 . S
C1576 C1577 1.334 . S
C1577 H1554 0.950 . S
C1577 C1576 1.334 . S
C1577 C1578 1.287 . S
C1578 C1577 1.287 . S
C1578 C1579 1.524 . S
C1578 H1597 0.913 . S
C1579 H1555 0.950 . S
C1579 C1578 1.524 . S
C1579 C1580 1.415 . S
C1580 H1556 0.950 . S
C1580 C1575 1.363 . S
C1580 C1579 1.415 . S
C1581 H1557 0.951 . S
C1581 C1582 1.366 . S
C1581 C1583 1.388 . S
C1582 C1581 1.366 . S
C1582 C1586 1.385 . S
C1583 H1558 0.951 . S
C1583 C1581 1.388 . S
C1583 C1584 1.366 . S
C1584 C1583 1.366 . S
C1584 C1585 1.414 . S
C1584 C1587 1.499 . S
C1585 H1559 0.950 . S
C1585 C1584 1.414 . S
C1585 C1586 1.374 . S
C1586 H1560 0.950 . S
C1586 C1582 1.385 . S
C1586 C1585 1.374 . S
C1587 C1584 1.499 . S
C1587 C1588 1.373 . S
C1587 C1589 1.389 . S
C1588 H1561 0.950 . S
C1588 C1574 1.377 . S
C1588 C1587 1.373 . S
C1589 C1573 1.377 . S
C1589 C1587 1.389 . S
C1589 C1590 1.524 . S
C1590 C1589 1.524 . S
C1590 C1591 1.397 . S
C1590 C1595 1.363 . S
C1591 H1562 0.950 . S
C1591 C1590 1.397 . S
C1591 C1592 1.334 . S
C1592 H1563 0.950 . S
C1592 C1591 1.334 . S
C1592 C1593 1.287 . S
C1593 C1592 1.287 . S
C1593 C1594 1.524 . S
C1593 H1596 0.999 . S
C1594 H1564 0.950 . S
C1594 C1593 1.524 . S
C1594 C1595 1.415 . S
C1595 H1565 0.950 . S
C1595 C1590 1.363 . S
C1595 C1594 1.415 . S
H1596 C1593 0.999 . S
H1597 C1578 0.913 . S
H1598 C1616 0.951 . S
H1599 C1618 0.951 . S
H1600 C1620 0.950 . S
H1601 C1621 0.950 . S
H1602 C1623 0.950 . S
H1603 C1626 0.950 . S
H1604 C1627 0.950 . S
H1605 C1629 0.950 . S
H1606 C1630 0.950 . S
H1607 C1631 0.951 . S
H1608 C1633 0.951 . S
H1609 C1635 0.950 . S
H1610 C1636 0.950 . S
H1611 C1638 0.950 . S
H1612 C1641 0.950 . S
H1613 C1642 0.950 . S
H1614 C1644 0.950 . S
H1615 C1645 0.950 . S
C1616 H1598 0.951 . S
C1616 C1617 1.366 . S
C1616 C1618 1.388 . S
C1617 C1616 1.366 . S
C1617 C1621 1.385 . S
C1618 H1599 0.951 . S
C1618 C1616 1.388 . S
C1618 C1619 1.366 . S
C1619 C1618 1.366 . S
C1619 C1620 1.414 . S
C1619 C1622 1.499 . S
C1620 H1600 0.950 . S
C1620 C1619 1.414 . S
C1620 C1621 1.374 . S
C1621 H1601 0.950 . S
C1621 C1617 1.385 . S
C1621 C1620 1.374 . S
C1622 C1619 1.499 . S
C1622 C1623 1.373 . S
C1622 C1624 1.389 . S
C1623 H1602 0.950 . S
C1623 C1622 1.373 . S
C1623 C1639 1.377 . S
C1624 C1622 1.389 . S
C1624 C1625 1.524 . S
C1624 C1638 1.377 . S
C1625 C1624 1.524 . S
C1625 C1626 1.397 . S
C1625 C1630 1.363 . S
C1626 H1603 0.950 . S
C1626 C1625 1.397 . S
C1626 C1627 1.334 . S
C1627 H1604 0.950 . S
C1627 C1626 1.334 . S
C1627 C1628 1.287 . S
C1628 C1627 1.287 . S
C1628 C1629 1.524 . S
C1628 H1647 0.913 . S
C1629 H1605 0.950 . S
C1629 C1628 1.524 . S
C1629 C1630 1.415 . S
C1630 H1606 0.950 . S
C1630 C1625 1.363 . S
C1630 C1629 1.415 . S
C1631 H1607 0.951 . S
C1631 C1632 1.366 . S
C1631 C1633 1.388 . S
C1632 C1631 1.366 . S
C1632 C1636 1.385 . S
C1633 H1608 0.951 . S
C1633 C1631 1.388 . S
C1633 C1634 1.366 . S
C1634 C1633 1.366 . S
C1634 C1635 1.414 . S
C1634 C1637 1.499 . S
C1635 H1609 0.950 . S
C1635 C1634 1.414 . S
C1635 C1636 1.374 . S
C1636 H1610 0.950 . S
C1636 C1632 1.385 . S
C1636 C1635 1.374 . S
C1637 C1634 1.499 . S
C1637 C1638 1.373 . S
C1637 C1639 1.389 . S
C1638 H1611 0.950 . S
C1638 C1624 1.377 . S
C1638 C1637 1.373 . S
C1639 C1623 1.377 . S
C1639 C1637 1.389 . S
C1639 C1640 1.524 . S
C1640 C1639 1.524 . S
C1640 C1641 1.397 . S
C1640 C1645 1.363 . S
C1641 H1612 0.950 . S
C1641 C1640 1.397 . S
C1641 C1642 1.334 . S
C1642 H1613 0.950 . S
C1642 C1641 1.334 . S
C1642 C1643 1.287 . S
C1643 C1642 1.287 . S
C1643 C1644 1.524 . S
C1643 H1646 0.999 . S
C1644 H1614 0.950 . S
C1644 C1643 1.524 . S
C1644 C1645 1.415 . S
C1645 H1615 0.950 . S
C1645 C1640 1.363 . S
C1645 C1644 1.415 . S
H1646 C1643 0.999 . S
H1647 C1628 0.913 . S
H1648 C1666 0.951 . S
H1649 C1668 0.951 . S
H1650 C1670 0.950 . S
H1651 C1671 0.950 . S
H1652 C1673 0.950 . S
H1653 C1676 0.950 . S
H1654 C1677 0.950 . S
H1655 C1679 0.950 . S
H1656 C1680 0.950 . S
H1657 C1681 0.951 . S
H1658 C1683 0.951 . S
H1659 C1685 0.950 . S
H1660 C1686 0.950 . S
H1661 C1688 0.950 . S
H1662 C1691 0.950 . S
H1663 C1692 0.950 . S
H1664 C1694 0.950 . S
H1665 C1695 0.950 . S
C1666 H1648 0.951 . S
C1666 C1667 1.366 . S
C1666 C1668 1.388 . S
C1667 C1666 1.366 . S
C1667 C1671 1.385 . S
C1668 H1649 0.951 . S
C1668 C1666 1.388 . S
C1668 C1669 1.366 . S
C1669 C1668 1.366 . S
C1669 C1670 1.414 . S
C1669 C1672 1.499 . S
C1670 H1650 0.950 . S
C1670 C1669 1.414 . S
C1670 C1671 1.374 . S
C1671 H1651 0.950 . S
C1671 C1667 1.385 . S
C1671 C1670 1.374 . S
C1672 C1669 1.499 . S
C1672 C1673 1.373 . S
C1672 C1674 1.389 . S
C1673 H1652 0.950 . S
C1673 C1672 1.373 . S
C1673 C1689 1.377 . S
C1674 C1672 1.389 . S
C1674 C1675 1.524 . S
C1674 C1688 1.377 . S
C1675 C1674 1.524 . S
C1675 C1676 1.397 . S
C1675 C1680 1.363 . S
C1676 H1653 0.950 . S
C1676 C1675 1.397 . S
C1676 C1677 1.334 . S
C1677 H1654 0.950 . S
C1677 C1676 1.334 . S
C1677 C1678 1.287 . S
C1678 C1677 1.287 . S
C1678 C1679 1.524 . S
C1678 H1697 0.913 . S
C1679 H1655 0.950 . S
C1679 C1678 1.524 . S
C1679 C1680 1.415 . S
C1680 H1656 0.950 . S
C1680 C1675 1.363 . S
C1680 C1679 1.415 . S
C1681 H1657 0.951 . S
C1681 C1682 1.366 . S
C1681 C1683 1.388 . S
C1682 C1681 1.366 . S
C1682 C1686 1.385 . S
C1683 H1658 0.951 . S
C1683 C1681 1.388 . S
C1683 C1684 1.366 . S
C1684 C1683 1.366 . S
C1684 C1685 1.414 . S
C1684 C1687 1.499 . S
C1685 H1659 0.950 . S
C1685 C1684 1.414 . S
C1685 C1686 1.374 . S
C1686 H1660 0.950 . S
C1686 C1682 1.385 . S
C1686 C1685 1.374 . S
C1687 C1684 1.499 . S
C1687 C1688 1.373 . S
C1687 C1689 1.389 . S
C1688 H1661 0.950 . S
C1688 C1674 1.377 . S
C1688 C1687 1.373 . S
C1689 C1673 1.377 . S
C1689 C1687 1.389 . S
C1689 C1690 1.524 . S
C1690 C1689 1.524 . S
C1690 C1691 1.397 . S
C1690 C1695 1.363 . S
C1691 H1662 0.950 . S
C1691 C1690 1.397 . S
C1691 C1692 1.334 . S
C1692 H1663 0.950 . S
C1692 C1691 1.334 . S
C1692 C1693 1.287 . S
C1693 C1692 1.287 . S
C1693 C1694 1.524 . S
C1693 H1696 0.999 . S
C1694 H1664 0.950 . S
C1694 C1693 1.524 . S
C1694 C1695 1.415 . S
C1695 H1665 0.950 . S
C1695 C1690 1.363 . S
C1695 C1694 1.415 . S
H1696 C1693 0.999 . S
H1697 C1678 0.913 . S
H1698 C1716 0.951 . S
H1699 C1718 0.951 . S
H1700 C1720 0.950 . S
H1701 C1721 0.950 . S
H1702 C1723 0.950 . S
H1703 C1726 0.950 . S
H1704 C1727 0.950 . S
H1705 C1729 0.950 . S
H1706 C1730 0.950 . S
H1707 C1731 0.951 . S
H1708 C1733 0.951 . S
H1709 C1735 0.950 . S
H1710 C1736 0.950 . S
H1711 C1738 0.950 . S
H1712 C1741 0.950 . S
H1713 C1742 0.950 . S
H1714 C1744 0.950 . S
H1715 C1745 0.950 . S
C1716 H1698 0.951 . S
C1716 C1717 1.366 . S
C1716 C1718 1.388 . S
C1717 C1716 1.366 . S
C1717 C1721 1.385 . S
C1718 H1699 0.951 . S
C1718 C1716 1.388 . S
C1718 C1719 1.366 . S
C1719 C1718 1.366 . S
C1719 C1720 1.414 . S
C1719 C1722 1.499 . S
C1720 H1700 0.950 . S
C1720 C1719 1.414 . S
C1720 C1721 1.374 . S
C1721 H1701 0.950 . S
C1721 C1717 1.385 . S
C1721 C1720 1.374 . S
C1722 C1719 1.499 . S
C1722 C1723 1.373 . S
C1722 C1724 1.389 . S
C1723 H1702 0.950 . S
C1723 C1722 1.373 . S
C1723 C1739 1.377 . S
C1724 C1722 1.389 . S
C1724 C1725 1.524 . S
C1724 C1738 1.377 . S
C1725 C1724 1.524 . S
C1725 C1726 1.397 . S
C1725 C1730 1.363 . S
C1726 H1703 0.950 . S
C1726 C1725 1.397 . S
C1726 C1727 1.334 . S
C1727 H1704 0.950 . S
C1727 C1726 1.334 . S
C1727 C1728 1.287 . S
C1728 C1727 1.287 . S
C1728 C1729 1.524 . S
C1728 H1747 0.913 . S
C1729 H1705 0.950 . S
C1729 C1728 1.524 . S
C1729 C1730 1.415 . S
C1730 H1706 0.950 . S
C1730 C1725 1.363 . S
C1730 C1729 1.415 . S
C1731 H1707 0.951 . S
C1731 C1732 1.366 . S
C1731 C1733 1.388 . S
C1732 C1731 1.366 . S
C1732 C1736 1.385 . S
C1733 H1708 0.951 . S
C1733 C1731 1.388 . S
C1733 C1734 1.366 . S
C1734 C1733 1.366 . S
C1734 C1735 1.414 . S
C1734 C1737 1.499 . S
C1735 H1709 0.950 . S
C1735 C1734 1.414 . S
C1735 C1736 1.374 . S
C1736 H1710 0.950 . S
C1736 C1732 1.385 . S
C1736 C1735 1.374 . S
C1737 C1734 1.499 . S
C1737 C1738 1.373 . S
C1737 C1739 1.389 . S
C1738 H1711 0.950 . S
C1738 C1724 1.377 . S
C1738 C1737 1.373 . S
C1739 C1723 1.377 . S
C1739 C1737 1.389 . S
C1739 C1740 1.524 . S
C1740 C1739 1.524 . S
C1740 C1741 1.397 . S
C1740 C1745 1.363 . S
C1741 H1712 0.950 . S
C1741 C1740 1.397 . S
C1741 C1742 1.334 . S
C1742 H1713 0.950 . S
C1742 C1741 1.334 . S
C1742 C1743 1.287 . S
C1743 C1742 1.287 . S
C1743 C1744 1.524 . S
C1743 H1746 0.999 . S
C1744 H1714 0.950 . S
C1744 C1743 1.524 . S
C1744 C1745 1.415 . S
C1745 H1715 0.950 . S
C1745 C1740 1.363 . S
C1745 C1744 1.415 . S
H1746 C1743 0.999 . S
H1747 C1728 0.913 . S
H1748 C1766 0.951 . S
H1749 C1768 0.951 . S
H1750 C1770 0.950 . S
H1751 C1771 0.950 . S
H1752 C1773 0.950 . S
H1753 C1776 0.950 . S
H1754 C1777 0.950 . S
H1755 C1779 0.950 . S
H1756 C1780 0.950 . S
H1757 C1781 0.951 . S
H1758 C1783 0.951 . S
H1759 C1785 0.950 . S
H1760 C1786 0.950 . S
H1761 C1788 0.950 . S
H1762 C1791 0.950 . S
H1763 C1792 0.950 . S
H1764 C1794 0.950 . S
H1765 C1795 0.950 . S
C1766 H1748 0.951 . S
C1766 C1767 1.366 . S
C1766 C1768 1.388 . S
C1767 C1766 1.366 . S
C1767 C1771 1.385 . S
C1768 H1749 0.951 . S
C1768 C1766 1.388 . S
C1768 C1769 1.366 . S
C1769 C1768 1.366 . S
C1769 C1770 1.414 . S
C1769 C1772 1.499 . S
C1770 H1750 0.950 . S
C1770 C1769 1.414 . S
C1770 C1771 1.374 . S
C1771 H1751 0.950 . S
C1771 C1767 1.385 . S
C1771 C1770 1.374 . S
C1772 C1769 1.499 . S
C1772 C1773 1.373 . S
C1772 C1774 1.389 . S
C1773 H1752 0.950 . S
C1773 C1772 1.373 . S
C1773 C1789 1.377 . S
C1774 C1772 1.389 . S
C1774 C1775 1.524 . S
C1774 C1788 1.377 . S
C1775 C1774 1.524 . S
C1775 C1776 1.397 . S
C1775 C1780 1.363 . S
C1776 H1753 0.950 . S
C1776 C1775 1.397 . S
C1776 C1777 1.334 . S
C1777 H1754 0.950 . S
C1777 C1776 1.334 . S
C1777 C1778 1.287 . S
C1778 C1777 1.287 . S
C1778 C1779 1.524 . S
C1778 H1797 0.913 . S
C1779 H1755 0.950 . S
C1779 C1778 1.524 . S
C1779 C1780 1.415 . S
C1780 H1756 0.950 . S
C1780 C1775 1.363 . S
C1780 C1779 1.415 . S
C1781 H1757 0.951 . S
C1781 C1782 1.366 . S
C1781 C1783 1.388 . S
C1782 C1781 1.366 . S
C1782 C1786 1.385 . S
C1783 H1758 0.951 . S
C1783 C1781 1.388 . S
C1783 C1784 1.366 . S
C1784 C1783 1.366 . S
C1784 C1785 1.414 . S
C1784 C1787 1.499 . S
C1785 H1759 0.950 . S
C1785 C1784 1.414 . S
C1785 C1786 1.374 . S
C1786 H1760 0.950 . S
C1786 C1782 1.385 . S
C1786 C1785 1.374 . S
C1787 C1784 1.499 . S
C1787 C1788 1.373 . S
C1787 C1789 1.389 . S
C1788 H1761 0.950 . S
C1788 C1774 1.377 . S
C1788 C1787 1.373 . S
C1789 C1773 1.377 . S
C1789 C1787 1.389 . S
C1789 C1790 1.524 . S
C1790 C1789 1.524 . S
C1790 C1791 1.397 . S
C1790 C1795 1.363 . S
C1791 H1762 0.950 . S
C1791 C1790 1.397 . S
C1791 C1792 1.334 . S
C1792 H1763 0.950 . S
C1792 C1791 1.334 . S
C1792 C1793 1.287 . S
C1793 C1792 1.287 . S
C1793 C1794 1.524 . S
C1793 H1796 0.999 . S
C1794 H1764 0.950 . S
C1794 C1793 1.524 . S
C1794 C1795 1.415 . S
C1795 H1765 0.950 . S
C1795 C1790 1.363 . S
C1795 C1794 1.415 . S
H1796 C1793 0.999 . S
H1797 C1778 0.913 . S
H1798 C1816 0.951 . S
H1799 C1818 0.951 . S
H1800 C1820 0.950 . S
H1801 C1821 0.950 . S
H1802 C1823 0.950 . S
H1803 C1826 0.950 . S
H1804 C1827 0.950 . S
H1805 C1829 0.950 . S
H1806 C1830 0.950 . S
H1807 C1831 0.951 . S
H1808 C1833 0.951 . S
H1809 C1835 0.950 . S
H1810 C1836 0.950 . S
H1811 C1838 0.950 . S
H1812 C1841 0.950 . S
H1813 C1842 0.950 . S
H1814 C1844 0.950 . S
H1815 C1845 0.950 . S
C1816 H1798 0.951 . S
C1816 C1817 1.366 . S
C1816 C1818 1.388 . S
C1817 C1816 1.366 . S
C1817 C1821 1.385 . S
C1818 H1799 0.951 . S
C1818 C1816 1.388 . S
C1818 C1819 1.366 . S
C1819 C1818 1.366 . S
C1819 C1820 1.414 . S
C1819 C1822 1.499 . S
C1820 H1800 0.950 . S
C1820 C1819 1.414 . S
C1820 C1821 1.374 . S
C1821 H1801 0.950 . S
C1821 C1817 1.385 . S
C1821 C1820 1.374 . S
C1822 C1819 1.499 . S
C1822 C1823 1.373 . S
C1822 C1824 1.389 . S
C1823 H1802 0.950 . S
C1823 C1822 1.373 . S
C1823 C1839 1.377 . S
C1824 C1822 1.389 . S
C1824 C1825 1.524 . S
C1824 C1838 1.377 . S
C1825 C1824 1.524 . S
C1825 C1826 1.397 . S
C1825 C1830 1.363 . S
C1826 H1803 0.950 . S
C1826 C1825 1.397 . S
C1826 C1827 1.334 . S
C1827 H1804 0.950 . S
C1827 C1826 1.334 . S
C1827 C1828 1.287 . S
C1828 C1827 1.287 . S
C1828 C1829 1.524 . S
C1828 H1847 0.913 . S
C1829 H1805 0.950 . S
C1829 C1828 1.524 . S
C1829 C1830 1.415 . S
C1830 H1806 0.950 . S
C1830 C1825 1.363 . S
C1830 C1829 1.415 . S
C1831 H1807 0.951 . S
C1831 C1832 1.366 . S
C1831 C1833 1.388 . S
C1832 C1831 1.366 . S
C1832 C1836 1.385 . S
C1833 H1808 0.951 . S
C1833 C1831 1.388 . S
C1833 C1834 1.366 . S
C1834 C1833 1.366 . S
C1834 C1835 1.414 . S
C1834 C1837 1.499 . S
C1835 H1809 0.950 . S
C1835 C1834 1.414 . S
C1835 C1836 1.374 . S
C1836 H1810 0.950 . S
C1836 C1832 1.385 . S
C1836 C1835 1.374 . S
C1837 C1834 1.499 . S
C1837 C1838 1.373 . S
C1837 C1839 1.389 . S
C1838 H1811 0.950 . S
C1838 C1824 1.377 . S
C1838 C1837 1.373 . S
C1839 C1823 1.377 . S
C1839 C1837 1.389 . S
C1839 C1840 1.524 . S
C1840 C1839 1.524 . S
C1840 C1841 1.397 . S
C1840 C1845 1.363 . S
C1841 H1812 0.950 . S
C1841 C1840 1.397 . S
C1841 C1842 1.334 . S
C1842 H1813 0.950 . S
C1842 C1841 1.334 . S
C1842 C1843 1.287 . S
C1843 C1842 1.287 . S
C1843 C1844 1.524 . S
C1843 H1846 0.999 . S
C1844 H1814 0.950 . S
C1844 C1843 1.524 . S
C1844 C1845 1.415 . S
C1845 H1815 0.950 . S
C1845 C1840 1.363 . S
C1845 C1844 1.415 . S
H1846 C1843 0.999 . S
H1847 C1828 0.913 . S
H1848 C1866 0.951 . S
H1849 C1868 0.951 . S
H1850 C1870 0.950 . S
H1851 C1871 0.950 . S
H1852 C1873 0.950 . S
H1853 C1876 0.950 . S
H1854 C1877 0.950 . S
H1855 C1879 0.950 . S
H1856 C1880 0.950 . S
H1857 C1881 0.951 . S
H1858 C1883 0.951 . S
H1859 C1885 0.950 . S
H1860 C1886 0.950 . S
H1861 C1888 0.950 . S
H1862 C1891 0.950 . S
H1863 C1892 0.950 . S
H1864 C1894 0.950 . S
H1865 C1895 0.950 . S
C1866 H1848 0.951 . S
C1866 C1867 1.366 . S
C1866 C1868 1.388 . S
C1867 C1866 1.366 . S
C1867 C1871 1.385 . S
C1868 H1849 0.951 . S
C1868 C1866 1.388 . S
C1868 C1869 1.366 . S
C1869 C1868 1.366 . S
C1869 C1870 1.414 . S
C1869 C1872 1.499 . S
C1870 H1850 0.950 . S
C1870 C1869 1.414 . S
C1870 C1871 1.374 . S
C1871 H1851 0.950 . S
C1871 C1867 1.385 . S
C1871 C1870 1.374 . S
C1872 C1869 1.499 . S
C1872 C1873 1.373 . S
C1872 C1874 1.389 . S
C1873 H1852 0.950 . S
C1873 C1872 1.373 . S
C1873 C1889 1.377 1_556 S
C1874 C1872 1.389 . S
C1874 C1875 1.524 . S
C1874 C1888 1.377 1_556 S
C1875 C1874 1.524 . S
C1875 C1876 1.397 . S
C1875 C1880 1.363 . S
C1876 H1853 0.950 . S
C1876 C1875 1.397 . S
C1876 C1877 1.334 . S
C1877 H1854 0.950 . S
C1877 C1876 1.334 . S
C1877 C1878 1.287 . S
C1878 C1877 1.287 . S
C1878 C1879 1.524 . S
C1878 H1897 0.913 . S
C1879 H1855 0.950 . S
C1879 C1878 1.524 . S
C1879 C1880 1.415 . S
C1880 H1856 0.950 . S
C1880 C1875 1.363 . S
C1880 C1879 1.415 . S
C1881 H1857 0.951 . S
C1881 C1882 1.366 . S
C1881 C1883 1.388 . S
C1882 C1881 1.366 . S
C1882 C1886 1.385 . S
C1883 H1858 0.951 . S
C1883 C1881 1.388 . S
C1883 C1884 1.366 . S
C1884 C1883 1.366 . S
C1884 C1885 1.414 . S
C1884 C1887 1.499 . S
C1885 H1859 0.950 . S
C1885 C1884 1.414 . S
C1885 C1886 1.374 . S
C1886 H1860 0.950 . S
C1886 C1882 1.385 . S
C1886 C1885 1.374 . S
C1887 C1884 1.499 . S
C1887 C1888 1.373 . S
C1887 C1889 1.389 . S
C1888 H1861 0.950 . S
C1888 C1874 1.377 1_554 S
C1888 C1887 1.373 . S
C1889 C1873 1.377 1_554 S
C1889 C1887 1.389 . S
C1889 C1890 1.524 . S
C1890 C1889 1.524 . S
C1890 C1891 1.397 . S
C1890 C1895 1.363 . S
C1891 H1862 0.950 . S
C1891 C1890 1.397 . S
C1891 C1892 1.334 . S
C1892 H1863 0.950 . S
C1892 C1891 1.334 . S
C1892 C1893 1.287 . S
C1893 C1892 1.287 . S
C1893 C1894 1.524 . S
C1893 H1896 0.999 . S
C1894 H1864 0.950 . S
C1894 C1893 1.524 . S
C1894 C1895 1.415 . S
C1895 H1865 0.950 . S
C1895 C1890 1.363 . S
C1895 C1894 1.415 . S
H1896 C1893 0.999 . S
H1897 C1878 0.913 . S
H1898 C1916 0.951 . S
H1899 C1918 0.951 . S
H1900 C1920 0.950 . S
H1901 C1921 0.950 . S
H1902 C1923 0.950 . S
H1903 C1926 0.950 . S
H1904 C1927 0.950 . S
H1905 C1929 0.950 . S
H1906 C1930 0.950 . S
H1907 C1931 0.951 . S
H1908 C1933 0.951 . S
H1909 C1935 0.950 . S
H1910 C1936 0.950 . S
H1911 C1938 0.950 . S
H1912 C1941 0.950 . S
H1913 C1942 0.950 . S
H1914 C1944 0.950 . S
H1915 C1945 0.950 . S
C1916 H1898 0.951 . S
C1916 C1917 1.366 . S
C1916 C1918 1.388 . S
C1917 C1916 1.366 . S
C1917 C1921 1.385 . S
C1918 H1899 0.951 . S
C1918 C1916 1.388 . S
C1918 C1919 1.366 . S
C1919 C1918 1.366 . S
C1919 C1920 1.414 . S
C1919 C1922 1.499 . S
C1920 H1900 0.950 . S
C1920 C1919 1.414 . S
C1920 C1921 1.374 . S
C1921 H1901 0.950 . S
C1921 C1917 1.385 . S
C1921 C1920 1.374 . S
C1922 C1919 1.499 . S
C1922 C1923 1.373 . S
C1922 C1924 1.389 . S
C1923 H1902 0.950 . S
C1923 C1922 1.373 . S
C1923 C1939 1.377 1_554 S
C1924 C1922 1.389 . S
C1924 C1925 1.524 . S
C1924 C1938 1.377 1_554 S
C1925 C1924 1.524 . S
C1925 C1926 1.397 . S
C1925 C1930 1.363 . S
C1926 H1903 0.950 . S
C1926 C1925 1.397 . S
C1926 C1927 1.334 . S
C1927 H1904 0.950 . S
C1927 C1926 1.334 . S
C1927 C1928 1.287 . S
C1928 C1927 1.287 . S
C1928 C1929 1.524 . S
C1928 H1947 0.913 . S
C1929 H1905 0.950 . S
C1929 C1928 1.524 . S
C1929 C1930 1.415 . S
C1930 H1906 0.950 . S
C1930 C1925 1.363 . S
C1930 C1929 1.415 . S
C1931 H1907 0.951 . S
C1931 C1932 1.366 . S
C1931 C1933 1.388 . S
C1932 C1931 1.366 . S
C1932 C1936 1.385 . S
C1933 H1908 0.951 . S
C1933 C1931 1.388 . S
C1933 C1934 1.366 . S
C1934 C1933 1.366 . S
C1934 C1935 1.414 . S
C1934 C1937 1.499 . S
C1935 H1909 0.950 . S
C1935 C1934 1.414 . S
C1935 C1936 1.374 . S
C1936 H1910 0.950 . S
C1936 C1932 1.385 . S
C1936 C1935 1.374 . S
C1937 C1934 1.499 . S
C1937 C1938 1.373 . S
C1937 C1939 1.389 . S
C1938 H1911 0.950 . S
C1938 C1924 1.377 1_556 S
C1938 C1937 1.373 . S
C1939 C1923 1.377 1_556 S
C1939 C1937 1.389 . S
C1939 C1940 1.524 . S
C1940 C1939 1.524 . S
C1940 C1941 1.397 . S
C1940 C1945 1.363 . S
C1941 H1912 0.950 . S
C1941 C1940 1.397 . S
C1941 C1942 1.334 . S
C1942 H1913 0.950 . S
C1942 C1941 1.334 . S
C1942 C1943 1.287 . S
C1943 C1942 1.287 . S
C1943 C1944 1.524 . S
C1943 H1946 0.999 . S
C1944 H1914 0.950 . S
C1944 C1943 1.524 . S
C1944 C1945 1.415 . S
C1945 H1915 0.950 . S
C1945 C1940 1.363 . S
C1945 C1944 1.415 . S
H1946 C1943 0.999 . S
H1947 C1928 0.913 . S
H1948 C1966 0.951 . S
H1949 C1968 0.951 . S
H1950 C1970 0.950 . S
H1951 C1971 0.950 . S
H1952 C1973 0.950 . S
H1953 C1976 0.950 . S
H1954 C1977 0.950 . S
H1955 C1979 0.950 . S
H1956 C1980 0.950 . S
H1957 C1981 0.951 . S
H1958 C1983 0.951 . S
H1959 C1985 0.950 . S
H1960 C1986 0.950 . S
H1961 C1988 0.950 . S
H1962 C1991 0.950 . S
H1963 C1992 0.950 . S
H1964 C1994 0.950 . S
H1965 C1995 0.950 . S
C1966 H1948 0.951 . S
C1966 C1967 1.366 . S
C1966 C1968 1.388 . S
C1967 C1966 1.366 . S
C1967 C1971 1.385 . S
C1968 H1949 0.951 . S
C1968 C1966 1.388 . S
C1968 C1969 1.366 . S
C1969 C1968 1.366 . S
C1969 C1970 1.414 . S
C1969 C1972 1.499 . S
C1970 H1950 0.950 . S
C1970 C1969 1.414 . S
C1970 C1971 1.374 . S
C1971 H1951 0.950 . S
C1971 C1967 1.385 . S
C1971 C1970 1.374 . S
C1972 C1969 1.499 . S
C1972 C1973 1.373 . S
C1972 C1974 1.389 . S
C1973 H1952 0.950 . S
C1973 C1972 1.373 . S
C1973 C1989 1.377 1_554 S
C1974 C1972 1.389 . S
C1974 C1975 1.524 . S
C1974 C1988 1.377 1_554 S
C1975 C1974 1.524 . S
C1975 C1976 1.397 . S
C1975 C1980 1.363 . S
C1976 H1953 0.950 . S
C1976 C1975 1.397 . S
C1976 C1977 1.334 . S
C1977 H1954 0.950 . S
C1977 C1976 1.334 . S
C1977 C1978 1.287 . S
C1978 C1977 1.287 . S
C1978 C1979 1.524 . S
C1978 H1997 0.913 . S
C1979 H1955 0.950 . S
C1979 C1978 1.524 . S
C1979 C1980 1.415 . S
C1980 H1956 0.950 . S
C1980 C1975 1.363 . S
C1980 C1979 1.415 . S
C1981 H1957 0.951 . S
C1981 C1982 1.366 . S
C1981 C1983 1.388 . S
C1982 C1981 1.366 . S
C1982 C1986 1.385 . S
C1983 H1958 0.951 . S
C1983 C1981 1.388 . S
C1983 C1984 1.366 . S
C1984 C1983 1.366 . S
C1984 C1985 1.414 . S
C1984 C1987 1.499 . S
C1985 H1959 0.950 . S
C1985 C1984 1.414 . S
C1985 C1986 1.374 . S
C1986 H1960 0.950 . S
C1986 C1982 1.385 . S
C1986 C1985 1.374 . S
C1987 C1984 1.499 . S
C1987 C1988 1.373 . S
C1987 C1989 1.389 . S
C1988 H1961 0.950 . S
C1988 C1974 1.377 1_556 S
C1988 C1987 1.373 . S
C1989 C1973 1.377 1_556 S
C1989 C1987 1.389 . S
C1989 C1990 1.524 . S
C1990 C1989 1.524 . S
C1990 C1991 1.397 . S
C1990 C1995 1.363 . S
C1991 H1962 0.950 . S
C1991 C1990 1.397 . S
C1991 C1992 1.334 . S
C1992 H1963 0.950 . S
C1992 C1991 1.334 . S
C1992 C1993 1.287 . S
C1993 C1992 1.287 . S
C1993 C1994 1.524 . S
C1993 H1996 0.999 . S
C1994 H1964 0.950 . S
C1994 C1993 1.524 . S
C1994 C1995 1.415 . S
C1995 H1965 0.950 . S
C1995 C1990 1.363 . S
C1995 C1994 1.415 . S
H1996 C1993 0.999 . S
H1997 C1978 0.913 . S
H1998 C2016 0.951 . S
H1999 C2018 0.951 . S
H2000 C2020 0.950 . S
H2001 C2021 0.950 . S
H2002 C2023 0.950 . S
H2003 C2026 0.950 . S
H2004 C2027 0.950 . S
H2005 C2029 0.950 . S
H2006 C2030 0.950 . S
H2007 C2031 0.951 . S
H2008 C2033 0.951 . S
H2009 C2035 0.950 . S
H2010 C2036 0.950 . S
H2011 C2038 0.950 . S
H2012 C2041 0.950 . S
H2013 C2042 0.950 . S
H2014 C2044 0.950 . S
H2015 C2045 0.950 . S
C2016 H1998 0.951 . S
C2016 C2017 1.366 . S
C2016 C2018 1.388 . S
C2017 C2016 1.366 . S
C2017 C2021 1.385 . S
C2018 H1999 0.951 . S
C2018 C2016 1.388 . S
C2018 C2019 1.366 . S
C2019 C2018 1.366 . S
C2019 C2020 1.414 . S
C2019 C2022 1.499 . S
C2020 H2000 0.950 . S
C2020 C2019 1.414 . S
C2020 C2021 1.374 . S
C2021 H2001 0.950 . S
C2021 C2017 1.385 . S
C2021 C2020 1.374 . S
C2022 C2019 1.499 . S
C2022 C2023 1.373 . S
C2022 C2024 1.389 . S
C2023 H2002 0.950 . S
C2023 C2022 1.373 . S
C2023 C2039 1.377 1_556 S
C2024 C2022 1.389 . S
C2024 C2025 1.524 . S
C2024 C2038 1.377 1_556 S
C2025 C2024 1.524 . S
C2025 C2026 1.397 . S
C2025 C2030 1.363 . S
C2026 H2003 0.950 . S
C2026 C2025 1.397 . S
C2026 C2027 1.334 . S
C2027 H2004 0.950 . S
C2027 C2026 1.334 . S
C2027 C2028 1.287 . S
C2028 C2027 1.287 . S
C2028 C2029 1.524 . S
C2028 H2047 0.913 . S
C2029 H2005 0.950 . S
C2029 C2028 1.524 . S
C2029 C2030 1.415 . S
C2030 H2006 0.950 . S
C2030 C2025 1.363 . S
C2030 C2029 1.415 . S
C2031 H2007 0.951 . S
C2031 C2032 1.366 . S
C2031 C2033 1.388 . S
C2032 C2031 1.366 . S
C2032 C2036 1.385 . S
C2033 H2008 0.951 . S
C2033 C2031 1.388 . S
C2033 C2034 1.366 . S
C2034 C2033 1.366 . S
C2034 C2035 1.414 . S
C2034 C2037 1.499 . S
C2035 H2009 0.950 . S
C2035 C2034 1.414 . S
C2035 C2036 1.374 . S
C2036 H2010 0.950 . S
C2036 C2032 1.385 . S
C2036 C2035 1.374 . S
C2037 C2034 1.499 . S
C2037 C2038 1.373 . S
C2037 C2039 1.389 . S
C2038 H2011 0.950 . S
C2038 C2024 1.377 1_554 S
C2038 C2037 1.373 . S
C2039 C2023 1.377 1_554 S
C2039 C2037 1.389 . S
C2039 C2040 1.524 . S
C2040 C2039 1.524 . S
C2040 C2041 1.397 . S
C2040 C2045 1.363 . S
C2041 H2012 0.950 . S
C2041 C2040 1.397 . S
C2041 C2042 1.334 . S
C2042 H2013 0.950 . S
C2042 C2041 1.334 . S
C2042 C2043 1.287 . S
C2043 C2042 1.287 . S
C2043 C2044 1.524 . S
C2043 H2046 0.999 . S
C2044 H2014 0.950 . S
C2044 C2043 1.524 . S
C2044 C2045 1.415 . S
C2045 H2015 0.950 . S
C2045 C2040 1.363 . S
C2045 C2044 1.415 . S
H2046 C2043 0.999 . S
H2047 C2028 0.913 . S
H2048 C2066 0.951 . S
H2049 C2068 0.951 . S
H2050 C2070 0.950 . S
H2051 C2071 0.950 . S
H2052 C2073 0.950 . S
H2053 C2076 0.950 . S
H2054 C2077 0.950 . S
H2055 C2079 0.950 . S
H2056 C2080 0.950 . S
H2057 C2081 0.951 . S
H2058 C2083 0.951 . S
H2059 C2085 0.950 . S
H2060 C2086 0.950 . S
H2061 C2088 0.950 . S
H2062 C2091 0.950 . S
H2063 C2092 0.950 . S
H2064 C2094 0.950 . S
H2065 C2095 0.950 . S
C2066 H2048 0.951 . S
C2066 C2067 1.366 . S
C2066 C2068 1.388 . S
C2067 C2066 1.366 . S
C2067 C2071 1.385 . S
C2068 H2049 0.951 . S
C2068 C2066 1.388 . S
C2068 C2069 1.366 . S
C2069 C2068 1.366 . S
C2069 C2070 1.414 . S
C2069 C2072 1.499 . S
C2070 H2050 0.950 . S
C2070 C2069 1.414 . S
C2070 C2071 1.374 . S
C2071 H2051 0.950 . S
C2071 C2067 1.385 . S
C2071 C2070 1.374 . S
C2072 C2069 1.499 . S
C2072 C2073 1.373 . S
C2072 C2074 1.389 . S
C2073 H2052 0.950 . S
C2073 C2072 1.373 . S
C2073 C2089 1.377 1_545 S
C2074 C2072 1.389 . S
C2074 C2075 1.524 . S
C2074 C2088 1.377 1_545 S
C2075 C2074 1.524 . S
C2075 C2076 1.397 . S
C2075 C2080 1.363 . S
C2076 H2053 0.950 . S
C2076 C2075 1.397 . S
C2076 C2077 1.334 . S
C2077 H2054 0.950 . S
C2077 C2076 1.334 . S
C2077 C2078 1.287 . S
C2078 C2077 1.287 . S
C2078 C2079 1.524 . S
C2078 H2097 0.913 . S
C2079 H2055 0.950 . S
C2079 C2078 1.524 . S
C2079 C2080 1.415 . S
C2080 H2056 0.950 . S
C2080 C2075 1.363 . S
C2080 C2079 1.415 . S
C2081 H2057 0.951 . S
C2081 C2082 1.366 . S
C2081 C2083 1.388 . S
C2082 C2081 1.366 . S
C2082 C2086 1.385 . S
C2083 H2058 0.951 . S
C2083 C2081 1.388 . S
C2083 C2084 1.366 . S
C2084 C2083 1.366 . S
C2084 C2085 1.414 . S
C2084 C2087 1.499 . S
C2085 H2059 0.950 . S
C2085 C2084 1.414 . S
C2085 C2086 1.374 . S
C2086 H2060 0.950 . S
C2086 C2082 1.385 . S
C2086 C2085 1.374 . S
C2087 C2084 1.499 . S
C2087 C2088 1.373 . S
C2087 C2089 1.389 . S
C2088 H2061 0.950 . S
C2088 C2074 1.377 1_565 S
C2088 C2087 1.373 . S
C2089 C2073 1.377 1_565 S
C2089 C2087 1.389 . S
C2089 C2090 1.524 . S
C2090 C2089 1.524 . S
C2090 C2091 1.397 . S
C2090 C2095 1.363 . S
C2091 H2062 0.950 . S
C2091 C2090 1.397 . S
C2091 C2092 1.334 . S
C2092 H2063 0.950 . S
C2092 C2091 1.334 . S
C2092 C2093 1.287 . S
C2093 C2092 1.287 . S
C2093 C2094 1.524 . S
C2093 H2096 0.999 . S
C2094 H2064 0.950 . S
C2094 C2093 1.524 . S
C2094 C2095 1.415 . S
C2095 H2065 0.950 . S
C2095 C2090 1.363 . S
C2095 C2094 1.415 . S
H2096 C2093 0.999 . S
H2097 C2078 0.913 . S
H2098 C2116 0.951 . S
H2099 C2118 0.951 . S
H2100 C2120 0.950 . S
H2101 C2121 0.950 . S
H2102 C2123 0.950 . S
H2103 C2126 0.950 . S
H2104 C2127 0.950 . S
H2105 C2129 0.950 . S
H2106 C2130 0.950 . S
H2107 C2131 0.951 . S
H2108 C2133 0.951 . S
H2109 C2135 0.950 . S
H2110 C2136 0.950 . S
H2111 C2138 0.950 . S
H2112 C2141 0.950 . S
H2113 C2142 0.950 . S
H2114 C2144 0.950 . S
H2115 C2145 0.950 . S
C2116 H2098 0.951 . S
C2116 C2117 1.366 . S
C2116 C2118 1.388 . S
C2117 C2116 1.366 . S
C2117 C2121 1.385 . S
C2118 H2099 0.951 . S
C2118 C2116 1.388 . S
C2118 C2119 1.366 . S
C2119 C2118 1.366 . S
C2119 C2120 1.414 . S
C2119 C2122 1.499 . S
C2120 H2100 0.950 . S
C2120 C2119 1.414 . S
C2120 C2121 1.374 . S
C2121 H2101 0.950 . S
C2121 C2117 1.385 . S
C2121 C2120 1.374 . S
C2122 C2119 1.499 . S
C2122 C2123 1.373 . S
C2122 C2124 1.389 . S
C2123 H2102 0.950 . S
C2123 C2122 1.373 . S
C2123 C2139 1.377 1_655 S
C2124 C2122 1.389 . S
C2124 C2125 1.524 . S
C2124 C2138 1.377 1_655 S
C2125 C2124 1.524 . S
C2125 C2126 1.397 . S
C2125 C2130 1.363 . S
C2126 H2103 0.950 . S
C2126 C2125 1.397 . S
C2126 C2127 1.334 . S
C2127 H2104 0.950 . S
C2127 C2126 1.334 . S
C2127 C2128 1.287 . S
C2128 C2127 1.287 . S
C2128 C2129 1.524 . S
C2128 H2147 0.913 . S
C2129 H2105 0.950 . S
C2129 C2128 1.524 . S
C2129 C2130 1.415 . S
C2130 H2106 0.950 . S
C2130 C2125 1.363 . S
C2130 C2129 1.415 . S
C2131 H2107 0.951 . S
C2131 C2132 1.366 . S
C2131 C2133 1.388 . S
C2132 C2131 1.366 . S
C2132 C2136 1.385 . S
C2133 H2108 0.951 . S
C2133 C2131 1.388 . S
C2133 C2134 1.366 . S
C2134 C2133 1.366 . S
C2134 C2135 1.414 . S
C2134 C2137 1.499 . S
C2135 H2109 0.950 . S
C2135 C2134 1.414 . S
C2135 C2136 1.374 . S
C2136 H2110 0.950 . S
C2136 C2132 1.385 . S
C2136 C2135 1.374 . S
C2137 C2134 1.499 . S
C2137 C2138 1.373 . S
C2137 C2139 1.389 . S
C2138 H2111 0.950 . S
C2138 C2124 1.377 1_455 S
C2138 C2137 1.373 . S
C2139 C2123 1.377 1_455 S
C2139 C2137 1.389 . S
C2139 C2140 1.524 . S
C2140 C2139 1.524 . S
C2140 C2141 1.397 . S
C2140 C2145 1.363 . S
C2141 H2112 0.950 . S
C2141 C2140 1.397 . S
C2141 C2142 1.334 . S
C2142 H2113 0.950 . S
C2142 C2141 1.334 . S
C2142 C2143 1.287 . S
C2143 C2142 1.287 . S
C2143 C2144 1.524 . S
C2143 H2146 0.999 . S
C2144 H2114 0.950 . S
C2144 C2143 1.524 . S
C2144 C2145 1.415 . S
C2145 H2115 0.950 . S
C2145 C2140 1.363 . S
C2145 C2144 1.415 . S
H2146 C2143 0.999 . S
H2147 C2128 0.913 . S
H2148 C2166 0.951 . S
H2149 C2168 0.951 . S
H2150 C2170 0.950 . S
H2151 C2171 0.950 . S
H2152 C2173 0.950 . S
H2153 C2176 0.950 . S
H2154 C2177 0.950 . S
H2155 C2179 0.950 . S
H2156 C2180 0.950 . S
H2157 C2181 0.951 . S
H2158 C2183 0.951 . S
H2159 C2185 0.950 . S
H2160 C2186 0.950 . S
H2161 C2188 0.950 . S
H2162 C2191 0.950 . S
H2163 C2192 0.950 . S
H2164 C2194 0.950 . S
H2165 C2195 0.950 . S
C2166 H2148 0.951 . S
C2166 C2167 1.366 . S
C2166 C2168 1.388 . S
C2167 C2166 1.366 . S
C2167 C2171 1.385 . S
C2168 H2149 0.951 . S
C2168 C2166 1.388 . S
C2168 C2169 1.366 . S
C2169 C2168 1.366 . S
C2169 C2170 1.414 . S
C2169 C2172 1.499 . S
C2170 H2150 0.950 . S
C2170 C2169 1.414 . S
C2170 C2171 1.374 . S
C2171 H2151 0.950 . S
C2171 C2167 1.385 . S
C2171 C2170 1.374 . S
C2172 C2169 1.499 . S
C2172 C2173 1.373 . S
C2172 C2174 1.389 . S
C2173 H2152 0.950 . S
C2173 C2172 1.373 . S
C2173 C2189 1.377 1_545 S
C2174 C2172 1.389 . S
C2174 C2175 1.524 . S
C2174 C2188 1.377 1_545 S
C2175 C2174 1.524 . S
C2175 C2176 1.397 . S
C2175 C2180 1.363 . S
C2176 H2153 0.950 . S
C2176 C2175 1.397 . S
C2176 C2177 1.334 . S
C2177 H2154 0.950 . S
C2177 C2176 1.334 . S
C2177 C2178 1.287 . S
C2178 C2177 1.287 . S
C2178 C2179 1.524 . S
C2178 H2197 0.913 . S
C2179 H2155 0.950 . S
C2179 C2178 1.524 . S
C2179 C2180 1.415 . S
C2180 H2156 0.950 . S
C2180 C2175 1.363 . S
C2180 C2179 1.415 . S
C2181 H2157 0.951 . S
C2181 C2182 1.366 . S
C2181 C2183 1.388 . S
C2182 C2181 1.366 . S
C2182 C2186 1.385 . S
C2183 H2158 0.951 . S
C2183 C2181 1.388 . S
C2183 C2184 1.366 . S
C2184 C2183 1.366 . S
C2184 C2185 1.414 . S
C2184 C2187 1.499 . S
C2185 H2159 0.950 . S
C2185 C2184 1.414 . S
C2185 C2186 1.374 . S
C2186 H2160 0.950 . S
C2186 C2182 1.385 . S
C2186 C2185 1.374 . S
C2187 C2184 1.499 . S
C2187 C2188 1.373 . S
C2187 C2189 1.389 . S
C2188 H2161 0.950 . S
C2188 C2174 1.377 1_565 S
C2188 C2187 1.373 . S
C2189 C2173 1.377 1_565 S
C2189 C2187 1.389 . S
C2189 C2190 1.524 . S
C2190 C2189 1.524 . S
C2190 C2191 1.397 . S
C2190 C2195 1.363 . S
C2191 H2162 0.950 . S
C2191 C2190 1.397 . S
C2191 C2192 1.334 . S
C2192 H2163 0.950 . S
C2192 C2191 1.334 . S
C2192 C2193 1.287 . S
C2193 C2192 1.287 . S
C2193 C2194 1.524 . S
C2193 H2196 0.999 . S
C2194 H2164 0.950 . S
C2194 C2193 1.524 . S
C2194 C2195 1.415 . S
C2195 H2165 0.950 . S
C2195 C2190 1.363 . S
C2195 C2194 1.415 . S
H2196 C2193 0.999 . S
H2197 C2178 0.913 . S
H2198 C2216 0.951 . S
H2199 C2218 0.951 . S
H2200 C2220 0.950 . S
H2201 C2221 0.950 . S
H2202 C2223 0.950 . S
H2203 C2226 0.950 . S
H2204 C2227 0.950 . S
H2205 C2229 0.950 . S
H2206 C2230 0.950 . S
H2207 C2231 0.951 . S
H2208 C2233 0.951 . S
H2209 C2235 0.950 . S
H2210 C2236 0.950 . S
H2211 C2238 0.950 . S
H2212 C2241 0.950 . S
H2213 C2242 0.950 . S
H2214 C2244 0.950 . S
H2215 C2245 0.950 . S
C2216 H2198 0.951 . S
C2216 C2217 1.366 . S
C2216 C2218 1.388 . S
C2217 C2216 1.366 . S
C2217 C2221 1.385 . S
C2218 H2199 0.951 . S
C2218 C2216 1.388 . S
C2218 C2219 1.366 . S
C2219 C2218 1.366 . S
C2219 C2220 1.414 . S
C2219 C2222 1.499 . S
C2220 H2200 0.950 . S
C2220 C2219 1.414 . S
C2220 C2221 1.374 . S
C2221 H2201 0.950 . S
C2221 C2217 1.385 . S
C2221 C2220 1.374 . S
C2222 C2219 1.499 . S
C2222 C2223 1.373 . S
C2222 C2224 1.437 . S
C2223 H2202 0.950 . S
C2223 C2222 1.373 . S
C2223 C2239 1.328 1_455 S
C2224 C2222 1.437 . S
C2224 C2225 1.524 . S
C2224 C2238 1.327 1_455 S
C2225 C2224 1.524 . S
C2225 C2226 1.448 . S
C2225 C2230 1.312 1_455 S
C2226 H2203 0.950 . S
C2226 C2225 1.448 . S
C2226 C2227 1.334 . S
C2227 H2204 0.950 . S
C2227 C2226 1.334 . S
C2227 C2228 1.287 . S
C2228 C2227 1.287 . S
C2228 C2229 1.524 1_455 S
C2228 H2247 0.913 . S
C2229 H2205 0.950 . S
C2229 C2228 1.524 1_655 S
C2229 C2230 1.415 . S
C2230 H2206 0.950 . S
C2230 C2225 1.312 1_655 S
C2230 C2229 1.415 . S
C2231 H2207 0.951 . S
C2231 C2232 1.366 . S
C2231 C2233 1.388 . S
C2232 C2231 1.366 . S
C2232 C2236 1.385 . S
C2233 H2208 0.951 . S
C2233 C2231 1.388 . S
C2233 C2234 1.366 . S
C2234 C2233 1.366 . S
C2234 C2235 1.414 . S
C2234 C2237 1.499 . S
C2235 H2209 0.950 . S
C2235 C2234 1.414 . S
C2235 C2236 1.374 . S
C2236 H2210 0.950 . S
C2236 C2232 1.385 . S
C2236 C2235 1.374 . S
C2237 C2234 1.499 . S
C2237 C2238 1.373 . S
C2237 C2239 1.436 . S
C2238 H2211 0.950 . S
C2238 C2224 1.327 1_655 S
C2238 C2237 1.373 . S
C2239 C2223 1.328 1_655 S
C2239 C2237 1.436 . S
C2239 C2240 1.524 . S
C2240 C2239 1.524 . S
C2240 C2241 1.448 . S
C2240 C2245 1.312 1_655 S
C2241 H2212 0.950 . S
C2241 C2240 1.448 . S
C2241 C2242 1.334 . S
C2242 H2213 0.950 . S
C2242 C2241 1.334 . S
C2242 C2243 1.287 . S
C2243 C2242 1.287 . S
C2243 C2244 1.524 1_655 S
C2243 H2246 0.999 . S
C2244 H2214 0.950 . S
C2244 C2243 1.524 1_455 S
C2244 C2245 1.415 . S
C2245 H2215 0.950 . S
C2245 C2240 1.312 1_455 S
C2245 C2244 1.415 . S
H2246 C2243 0.999 . S
H2247 C2228 0.913 . S
H2248 C2266 0.951 . S
H2249 C2268 0.951 . S
H2250 C2270 0.950 . S
H2251 C2271 0.950 . S
H2252 C2273 0.950 . S
H2253 C2276 0.950 . S
H2254 C2277 0.950 . S
H2255 C2279 0.950 . S
H2256 C2280 0.950 . S
H2257 C2281 0.951 . S
H2258 C2283 0.951 . S
H2259 C2285 0.950 . S
H2260 C2286 0.950 . S
H2261 C2288 0.950 . S
H2262 C2291 0.950 . S
H2263 C2292 0.950 . S
H2264 C2294 0.950 . S
H2265 C2295 0.950 . S
C2266 H2248 0.951 . S
C2266 C2267 1.366 . S
C2266 C2268 1.388 . S
C2267 C2266 1.366 . S
C2267 C2271 1.385 . S
C2268 H2249 0.951 . S
C2268 C2266 1.388 . S
C2268 C2269 1.366 . S
C2269 C2268 1.366 . S
C2269 C2270 1.414 . S
C2269 C2272 1.499 . S
C2270 H2250 0.950 . S
C2270 C2269 1.414 . S
C2270 C2271 1.374 . S
C2271 H2251 0.950 . S
C2271 C2267 1.385 . S
C2271 C2270 1.374 . S
C2272 C2269 1.499 . S
C2272 C2273 1.373 . S
C2272 C2274 1.389 . S
C2273 H2252 0.950 . S
C2273 C2272 1.373 . S
C2273 C2289 1.377 1_565 S
C2274 C2272 1.389 . S
C2274 C2275 1.524 . S
C2274 C2288 1.377 1_565 S
C2275 C2274 1.524 . S
C2275 C2276 1.397 . S
C2275 C2280 1.363 . S
C2276 H2253 0.950 . S
C2276 C2275 1.397 . S
C2276 C2277 1.334 . S
C2277 H2254 0.950 . S
C2277 C2276 1.334 . S
C2277 C2278 1.287 . S
C2278 C2277 1.287 . S
C2278 C2279 1.524 . S
C2278 H2297 0.913 . S
C2279 H2255 0.950 . S
C2279 C2278 1.524 . S
C2279 C2280 1.415 . S
C2280 H2256 0.950 . S
C2280 C2275 1.363 . S
C2280 C2279 1.415 . S
C2281 H2257 0.951 . S
C2281 C2282 1.366 . S
C2281 C2283 1.388 . S
C2282 C2281 1.366 . S
C2282 C2286 1.385 . S
C2283 H2258 0.951 . S
C2283 C2281 1.388 . S
C2283 C2284 1.366 . S
C2284 C2283 1.366 . S
C2284 C2285 1.414 . S
C2284 C2287 1.499 . S
C2285 H2259 0.950 . S
C2285 C2284 1.414 . S
C2285 C2286 1.374 . S
C2286 H2260 0.950 . S
C2286 C2282 1.385 . S
C2286 C2285 1.374 . S
C2287 C2284 1.499 . S
C2287 C2288 1.373 . S
C2287 C2289 1.389 . S
C2288 H2261 0.950 . S
C2288 C2274 1.377 1_545 S
C2288 C2287 1.373 . S
C2289 C2273 1.377 1_545 S
C2289 C2287 1.389 . S
C2289 C2290 1.524 . S
C2290 C2289 1.524 . S
C2290 C2291 1.397 . S
C2290 C2295 1.363 . S
C2291 H2262 0.950 . S
C2291 C2290 1.397 . S
C2291 C2292 1.334 . S
C2292 H2263 0.950 . S
C2292 C2291 1.334 . S
C2292 C2293 1.287 . S
C2293 C2292 1.287 . S
C2293 C2294 1.524 . S
C2293 H2296 0.999 . S
C2294 H2264 0.950 . S
C2294 C2293 1.524 . S
C2294 C2295 1.415 . S
C2295 H2265 0.950 . S
C2295 C2290 1.363 . S
C2295 C2294 1.415 . S
H2296 C2293 0.999 . S
H2297 C2278 0.913 . S
H2298 C2316 0.951 . S
H2299 C2318 0.951 . S
H2300 C2320 0.950 . S
H2301 C2321 0.950 . S
H2302 C2323 0.954 . S
H2303 C2326 0.950 . S
H2304 C2327 0.950 . S
H2305 C2329 0.950 . S
H2306 C2330 0.950 . S
H2307 C2331 0.951 . S
H2308 C2333 0.951 . S
H2309 C2335 0.950 . S
H2310 C2336 0.950 . S
H2311 C2338 0.954 . S
H2312 C2341 0.950 . S
H2313 C2342 0.950 . S
H2314 C2344 0.950 . S
H2315 C2345 0.950 . S
C2316 H2298 0.951 . S
C2316 C2317 1.366 . S
C2316 C2318 1.388 . S
C2317 C2316 1.366 . S
C2317 C2321 1.385 . S
C2318 H2299 0.951 . S
C2318 C2316 1.388 . S
C2318 C2319 1.366 . S
C2319 C2318 1.366 . S
C2319 C2320 1.414 . S
C2319 C2322 1.499 . S
C2320 H2300 0.950 . S
C2320 C2319 1.414 . S
C2320 C2321 1.374 . S
C2321 H2301 0.950 . S
C2321 C2317 1.385 . S
C2321 C2320 1.374 . S
C2322 C2319 1.499 . S
C2322 C2323 1.422 . S
C2322 C2324 1.389 . S
C2323 H2302 0.954 . S
C2323 C2322 1.422 . S
C2323 C2339 1.326 1_655 S
C2324 C2322 1.389 . S
C2324 C2325 1.524 . S
C2324 C2338 1.326 1_655 S
C2325 C2324 1.524 . S
C2325 C2326 1.397 . S
C2325 C2330 1.363 . S
C2326 H2303 0.950 . S
C2326 C2325 1.397 . S
C2326 C2327 1.334 . S
C2327 H2304 0.950 . S
C2327 C2326 1.334 . S
C2327 C2328 1.287 . S
C2328 C2327 1.287 . S
C2328 C2329 1.524 . S
C2328 H2347 0.913 . S
C2329 H2305 0.950 . S
C2329 C2328 1.524 . S
C2329 C2330 1.415 . S
C2330 H2306 0.950 . S
C2330 C2325 1.363 . S
C2330 C2329 1.415 . S
C2331 H2307 0.951 . S
C2331 C2332 1.366 . S
C2331 C2333 1.388 . S
C2332 C2331 1.366 . S
C2332 C2336 1.385 . S
C2333 H2308 0.951 . S
C2333 C2331 1.388 . S
C2333 C2334 1.366 . S
C2334 C2333 1.366 . S
C2334 C2335 1.414 . S
C2334 C2337 1.499 . S
C2335 H2309 0.950 . S
C2335 C2334 1.414 . S
C2335 C2336 1.374 . S
C2336 H2310 0.950 . S
C2336 C2332 1.385 . S
C2336 C2335 1.374 . S
C2337 C2334 1.499 . S
C2337 C2338 1.422 . S
C2337 C2339 1.389 . S
C2338 H2311 0.954 . S
C2338 C2324 1.326 1_455 S
C2338 C2337 1.422 . S
C2339 C2323 1.326 1_455 S
C2339 C2337 1.389 . S
C2339 C2340 1.524 . S
C2340 C2339 1.524 . S
C2340 C2341 1.397 . S
C2340 C2345 1.363 . S
C2341 H2312 0.950 . S
C2341 C2340 1.397 . S
C2341 C2342 1.334 . S
C2342 H2313 0.950 . S
C2342 C2341 1.334 . S
C2342 C2343 1.287 . S
C2343 C2342 1.287 . S
C2343 C2344 1.524 . S
C2343 H2346 0.999 . S
C2344 H2314 0.950 . S
C2344 C2343 1.524 . S
C2344 C2345 1.415 . S
C2345 H2315 0.950 . S
C2345 C2340 1.363 . S
C2345 C2344 1.415 . S
H2346 C2343 0.999 . S
H2347 C2328 0.913 . S
H2348 C2366 0.951 . S
H2349 C2368 0.951 . S
H2350 C2370 0.950 . S
H2351 C2371 0.950 . S
H2352 C2373 0.950 . S
H2353 C2376 0.950 . S
H2354 C2377 0.950 . S
H2355 C2379 0.950 . S
H2356 C2380 0.950 . S
H2357 C2381 0.951 . S
H2358 C2383 0.951 . S
H2359 C2385 0.950 . S
H2360 C2386 0.950 . S
H2361 C2388 0.950 . S
H2362 C2391 0.950 . S
H2363 C2392 0.950 . S
H2364 C2394 0.950 . S
H2365 C2395 0.950 . S
C2366 H2348 0.951 . S
C2366 C2367 1.366 . S
C2366 C2368 1.388 . S
C2367 C2366 1.366 . S
C2367 C2371 1.385 . S
C2368 H2349 0.951 . S
C2368 C2366 1.388 . S
C2368 C2369 1.366 . S
C2369 C2368 1.366 . S
C2369 C2370 1.414 . S
C2369 C2372 1.499 . S
C2370 H2350 0.950 . S
C2370 C2369 1.414 . S
C2370 C2371 1.374 . S
C2371 H2351 0.950 . S
C2371 C2367 1.385 . S
C2371 C2370 1.374 . S
C2372 C2369 1.499 . S
C2372 C2373 1.362 1_565 S
C2372 C2374 1.389 . S
C2373 H2352 0.950 . S
C2373 C2372 1.362 1_545 S
C2373 C2389 1.387 . S
C2374 C2372 1.389 . S
C2374 C2375 1.524 . S
C2374 C2388 1.387 . S
C2375 C2374 1.524 . S
C2375 C2376 1.397 . S
C2375 C2380 1.363 . S
C2376 H2353 0.950 . S
C2376 C2375 1.397 . S
C2376 C2377 1.334 . S
C2377 H2354 0.950 . S
C2377 C2376 1.334 . S
C2377 C2378 1.287 . S
C2378 C2377 1.287 . S
C2378 C2379 1.524 . S
C2378 H2397 0.913 . S
C2379 H2355 0.950 . S
C2379 C2378 1.524 . S
C2379 C2380 1.415 . S
C2380 H2356 0.950 . S
C2380 C2375 1.363 . S
C2380 C2379 1.415 . S
C2381 H2357 0.951 . S
C2381 C2382 1.366 . S
C2381 C2383 1.388 . S
C2382 C2381 1.366 . S
C2382 C2386 1.385 . S
C2383 H2358 0.951 . S
C2383 C2381 1.388 . S
C2383 C2384 1.366 . S
C2384 C2383 1.366 . S
C2384 C2385 1.414 . S
C2384 C2387 1.499 . S
C2385 H2359 0.950 . S
C2385 C2384 1.414 . S
C2385 C2386 1.374 . S
C2386 H2360 0.950 . S
C2386 C2382 1.385 . S
C2386 C2385 1.374 . S
C2387 C2384 1.499 . S
C2387 C2388 1.362 1_545 S
C2387 C2389 1.389 . S
C2388 H2361 0.950 . S
C2388 C2374 1.387 . S
C2388 C2387 1.362 1_565 S
C2389 C2373 1.387 . S
C2389 C2387 1.389 . S
C2389 C2390 1.524 . S
C2390 C2389 1.524 . S
C2390 C2391 1.397 . S
C2390 C2395 1.363 . S
C2391 H2362 0.950 . S
C2391 C2390 1.397 . S
C2391 C2392 1.334 . S
C2392 H2363 0.950 . S
C2392 C2391 1.334 . S
C2392 C2393 1.287 . S
C2393 C2392 1.287 . S
C2393 C2394 1.524 . S
C2393 H2396 0.999 . S
C2394 H2364 0.950 . S
C2394 C2393 1.524 . S
C2394 C2395 1.415 . S
C2395 H2365 0.950 . S
C2395 C2390 1.363 . S
C2395 C2394 1.415 . S
H2396 C2393 0.999 . S
H2397 C2378 0.913 . S
H2398 C2416 0.951 . S
H2399 C2418 0.951 . S
H2400 C2420 0.950 . S
H2401 C2421 0.950 . S
H2402 C2423 0.950 . S
H2403 C2426 0.950 . S
H2404 C2427 0.950 . S
H2405 C2429 0.950 . S
H2406 C2430 0.950 . S
H2407 C2431 0.951 . S
H2408 C2433 0.951 . S
H2409 C2435 0.950 . S
H2410 C2436 0.950 . S
H2411 C2438 0.950 . S
H2412 C2441 0.950 . S
H2413 C2442 0.950 . S
H2414 C2444 0.950 . S
H2415 C2445 0.950 . S
C2416 H2398 0.951 . S
C2416 C2417 1.366 . S
C2416 C2418 1.388 . S
C2417 C2416 1.366 . S
C2417 C2421 1.385 . S
C2418 H2399 0.951 . S
C2418 C2416 1.388 . S
C2418 C2419 1.366 . S
C2419 C2418 1.366 . S
C2419 C2420 1.414 . S
C2419 C2422 1.499 . S
C2420 H2400 0.950 . S
C2420 C2419 1.414 . S
C2420 C2421 1.374 . S
C2421 H2401 0.950 . S
C2421 C2417 1.385 . S
C2421 C2420 1.374 . S
C2422 C2419 1.499 . S
C2422 C2423 1.373 . S
C2422 C2424 1.389 . S
C2423 H2402 0.950 . S
C2423 C2422 1.373 . S
C2423 C2439 1.377 1_655 S
C2424 C2422 1.389 . S
C2424 C2425 1.524 . S
C2424 C2438 1.377 1_655 S
C2425 C2424 1.524 . S
C2425 C2426 1.397 . S
C2425 C2430 1.363 1_655 S
C2426 H2403 0.950 . S
C2426 C2425 1.397 . S
C2426 C2427 1.334 . S
C2427 H2404 0.950 . S
C2427 C2426 1.334 . S
C2427 C2428 1.287 . S
C2428 C2427 1.287 . S
C2428 C2429 1.524 1_655 S
C2428 H2447 0.913 . S
C2429 H2405 0.950 . S
C2429 C2428 1.524 1_455 S
C2429 C2430 1.415 . S
C2430 H2406 0.950 . S
C2430 C2425 1.363 1_455 S
C2430 C2429 1.415 . S
C2431 H2407 0.951 . S
C2431 C2432 1.366 . S
C2431 C2433 1.388 . S
C2432 C2431 1.366 . S
C2432 C2436 1.385 . S
C2433 H2408 0.951 . S
C2433 C2431 1.388 . S
C2433 C2434 1.366 . S
C2434 C2433 1.366 . S
C2434 C2435 1.414 . S
C2434 C2437 1.499 . S
C2435 H2409 0.950 . S
C2435 C2434 1.414 . S
C2435 C2436 1.374 . S
C2436 H2410 0.950 . S
C2436 C2432 1.385 . S
C2436 C2435 1.374 . S
C2437 C2434 1.499 . S
C2437 C2438 1.373 . S
C2437 C2439 1.389 . S
C2438 H2411 0.950 . S
C2438 C2424 1.377 1_455 S
C2438 C2437 1.373 . S
C2439 C2423 1.377 1_455 S
C2439 C2437 1.389 . S
C2439 C2440 1.524 . S
C2440 C2439 1.524 . S
C2440 C2441 1.397 . S
C2440 C2445 1.363 1_455 S
C2441 H2412 0.950 . S
C2441 C2440 1.397 . S
C2441 C2442 1.334 . S
C2442 H2413 0.950 . S
C2442 C2441 1.334 . S
C2442 C2443 1.287 . S
C2443 C2442 1.287 . S
C2443 C2444 1.524 1_455 S
C2443 H2446 0.999 . S
C2444 H2414 0.950 . S
C2444 C2443 1.524 1_655 S
C2444 C2445 1.415 . S
C2445 H2415 0.950 . S
C2445 C2440 1.363 1_655 S
C2445 C2444 1.415 . S
H2446 C2443 0.999 . S
H2447 C2428 0.913 . S
H2448 C2466 0.951 . S
H2449 C2468 0.951 . S
H2450 C2470 0.950 . S
H2451 C2471 0.950 . S
H2452 C2473 0.950 . S
H2453 C2476 0.950 . S
H2454 C2477 0.950 . S
H2455 C2479 0.950 . S
H2456 C2480 0.950 . S
H2457 C2481 0.951 . S
H2458 C2483 0.951 . S
H2459 C2485 0.950 . S
H2460 C2486 0.950 . S
H2461 C2488 0.950 . S
H2462 C2491 0.950 . S
H2463 C2492 0.950 . S
H2464 C2494 0.950 . S
H2465 C2495 0.950 . S
C2466 H2448 0.951 . S
C2466 C2467 1.366 . S
C2466 C2468 1.388 . S
C2467 C2466 1.366 . S
C2467 C2471 1.385 . S
C2468 H2449 0.951 . S
C2468 C2466 1.388 . S
C2468 C2469 1.366 . S
C2469 C2468 1.366 . S
C2469 C2470 1.414 . S
C2469 C2472 1.499 . S
C2470 H2450 0.950 . S
C2470 C2469 1.414 . S
C2470 C2471 1.374 . S
C2471 H2451 0.950 . S
C2471 C2467 1.385 . S
C2471 C2470 1.374 . S
C2472 C2469 1.499 . S
C2472 C2473 1.373 . S
C2472 C2474 1.389 . S
C2473 H2452 0.950 . S
C2473 C2472 1.373 . S
C2473 C2489 1.377 . S
C2474 C2472 1.389 . S
C2474 C2475 1.524 . S
C2474 C2488 1.377 . S
C2475 C2474 1.524 . S
C2475 C2476 1.397 . S
C2475 C2480 1.363 . S
C2476 H2453 0.950 . S
C2476 C2475 1.397 . S
C2476 C2477 1.334 . S
C2477 H2454 0.950 . S
C2477 C2476 1.334 . S
C2477 C2478 1.287 . S
C2478 C2477 1.287 . S
C2478 C2479 1.524 . S
C2478 H2497 0.913 . S
C2479 H2455 0.950 . S
C2479 C2478 1.524 . S
C2479 C2480 1.415 . S
C2480 H2456 0.950 . S
C2480 C2475 1.363 . S
C2480 C2479 1.415 . S
C2481 H2457 0.951 . S
C2481 C2482 1.366 . S
C2481 C2483 1.388 . S
C2482 C2481 1.366 . S
C2482 C2486 1.385 . S
C2483 H2458 0.951 . S
C2483 C2481 1.388 . S
C2483 C2484 1.366 . S
C2484 C2483 1.366 . S
C2484 C2485 1.414 . S
C2484 C2487 1.499 . S
C2485 H2459 0.950 . S
C2485 C2484 1.414 . S
C2485 C2486 1.374 . S
C2486 H2460 0.950 . S
C2486 C2482 1.385 . S
C2486 C2485 1.374 . S
C2487 C2484 1.499 . S
C2487 C2488 1.373 . S
C2487 C2489 1.389 . S
C2488 H2461 0.950 . S
C2488 C2474 1.377 . S
C2488 C2487 1.373 . S
C2489 C2473 1.377 . S
C2489 C2487 1.389 . S
C2489 C2490 1.524 . S
C2490 C2489 1.524 . S
C2490 C2491 1.397 . S
C2490 C2495 1.363 . S
C2491 H2462 0.950 . S
C2491 C2490 1.397 . S
C2491 C2492 1.334 . S
C2492 H2463 0.950 . S
C2492 C2491 1.334 . S
C2492 C2493 1.287 . S
C2493 C2492 1.287 . S
C2493 C2494 1.524 . S
C2493 H2496 0.999 . S
C2494 H2464 0.950 . S
C2494 C2493 1.524 . S
C2494 C2495 1.415 . S
C2495 H2465 0.950 . S
C2495 C2490 1.363 . S
C2495 C2494 1.415 . S
H2496 C2493 0.999 . S
H2497 C2478 0.913 . S
H2498 C2516 0.951 . S
H2499 C2518 0.951 . S
H2500 C2520 0.950 . S
H2501 C2521 0.950 . S
H2502 C2523 0.950 . S
H2503 C2526 0.950 . S
H2504 C2527 0.950 . S
H2505 C2529 0.950 . S
H2506 C2530 0.950 . S
H2507 C2531 0.951 . S
H2508 C2533 0.951 . S
H2509 C2535 0.950 . S
H2510 C2536 0.950 . S
H2511 C2538 0.950 . S
H2512 C2541 0.950 . S
H2513 C2542 0.950 . S
H2514 C2544 0.950 . S
H2515 C2545 0.950 . S
C2516 H2498 0.951 . S
C2516 C2517 1.366 . S
C2516 C2518 1.388 . S
C2517 C2516 1.366 . S
C2517 C2521 1.385 . S
C2518 H2499 0.951 . S
C2518 C2516 1.388 . S
C2518 C2519 1.366 . S
C2519 C2518 1.366 . S
C2519 C2520 1.414 . S
C2519 C2522 1.499 . S
C2520 H2500 0.950 . S
C2520 C2519 1.414 . S
C2520 C2521 1.374 . S
C2521 H2501 0.950 . S
C2521 C2517 1.385 . S
C2521 C2520 1.374 . S
C2522 C2519 1.499 . S
C2522 C2523 1.373 . S
C2522 C2524 1.389 . S
C2523 H2502 0.950 . S
C2523 C2522 1.373 . S
C2523 C2539 1.377 . S
C2524 C2522 1.389 . S
C2524 C2525 1.524 . S
C2524 C2538 1.377 . S
C2525 C2524 1.524 . S
C2525 C2526 1.397 . S
C2525 C2530 1.363 . S
C2526 H2503 0.950 . S
C2526 C2525 1.397 . S
C2526 C2527 1.334 . S
C2527 H2504 0.950 . S
C2527 C2526 1.334 . S
C2527 C2528 1.287 . S
C2528 C2527 1.287 . S
C2528 C2529 1.524 . S
C2528 H2547 0.913 . S
C2529 H2505 0.950 . S
C2529 C2528 1.524 . S
C2529 C2530 1.415 . S
C2530 H2506 0.950 . S
C2530 C2525 1.363 . S
C2530 C2529 1.415 . S
C2531 H2507 0.951 . S
C2531 C2532 1.366 . S
C2531 C2533 1.388 . S
C2532 C2531 1.366 . S
C2532 C2536 1.385 . S
C2533 H2508 0.951 . S
C2533 C2531 1.388 . S
C2533 C2534 1.366 . S
C2534 C2533 1.366 . S
C2534 C2535 1.414 . S
C2534 C2537 1.499 . S
C2535 H2509 0.950 . S
C2535 C2534 1.414 . S
C2535 C2536 1.374 . S
C2536 H2510 0.950 . S
C2536 C2532 1.385 . S
C2536 C2535 1.374 . S
C2537 C2534 1.499 . S
C2537 C2538 1.373 . S
C2537 C2539 1.389 . S
C2538 H2511 0.950 . S
C2538 C2524 1.377 . S
C2538 C2537 1.373 . S
C2539 C2523 1.377 . S
C2539 C2537 1.389 . S
C2539 C2540 1.524 . S
C2540 C2539 1.524 . S
C2540 C2541 1.397 . S
C2540 C2545 1.363 . S
C2541 H2512 0.950 . S
C2541 C2540 1.397 . S
C2541 C2542 1.334 . S
C2542 H2513 0.950 . S
C2542 C2541 1.334 . S
C2542 C2543 1.287 . S
C2543 C2542 1.287 . S
C2543 C2544 1.524 . S
C2543 H2546 0.999 . S
C2544 H2514 0.950 . S
C2544 C2543 1.524 . S
C2544 C2545 1.415 . S
C2545 H2515 0.950 . S
C2545 C2540 1.363 . S
C2545 C2544 1.415 . S
H2546 C2543 0.999 . S
H2547 C2528 0.913 . S
H2548 C2566 0.951 . S
H2549 C2568 0.951 . S
H2550 C2570 0.950 . S
H2551 C2571 0.950 . S
H2552 C2573 0.950 . S
H2553 C2576 0.950 . S
H2554 C2577 0.950 . S
H2555 C2579 0.950 . S
H2556 C2580 0.950 . S
H2557 C2581 0.951 . S
H2558 C2583 0.951 . S
H2559 C2585 0.950 . S
H2560 C2586 0.950 . S
H2561 C2588 0.950 . S
H2562 C2591 0.950 . S
H2563 C2592 0.950 . S
H2564 C2594 0.950 . S
H2565 C2595 0.950 . S
C2566 H2548 0.951 . S
C2566 C2567 1.366 . S
C2566 C2568 1.388 . S
C2567 C2566 1.366 . S
C2567 C2571 1.385 . S
C2568 H2549 0.951 . S
C2568 C2566 1.388 . S
C2568 C2569 1.366 . S
C2569 C2568 1.366 . S
C2569 C2570 1.414 . S
C2569 C2572 1.499 . S
C2570 H2550 0.950 . S
C2570 C2569 1.414 . S
C2570 C2571 1.374 . S
C2571 H2551 0.950 . S
C2571 C2567 1.385 . S
C2571 C2570 1.374 . S
C2572 C2569 1.499 . S
C2572 C2573 1.373 . S
C2572 C2574 1.389 . S
C2573 H2552 0.950 . S
C2573 C2572 1.373 . S
C2573 C2589 1.377 . S
C2574 C2572 1.389 . S
C2574 C2575 1.524 . S
C2574 C2588 1.377 . S
C2575 C2574 1.524 . S
C2575 C2576 1.397 . S
C2575 C2580 1.363 . S
C2576 H2553 0.950 . S
C2576 C2575 1.397 . S
C2576 C2577 1.334 . S
C2577 H2554 0.950 . S
C2577 C2576 1.334 . S
C2577 C2578 1.287 . S
C2578 C2577 1.287 . S
C2578 C2579 1.524 . S
C2578 H2597 0.913 . S
C2579 H2555 0.950 . S
C2579 C2578 1.524 . S
C2579 C2580 1.415 . S
C2580 H2556 0.950 . S
C2580 C2575 1.363 . S
C2580 C2579 1.415 . S
C2581 H2557 0.951 . S
C2581 C2582 1.366 . S
C2581 C2583 1.388 . S
C2582 C2581 1.366 . S
C2582 C2586 1.385 . S
C2583 H2558 0.951 . S
C2583 C2581 1.388 . S
C2583 C2584 1.366 . S
C2584 C2583 1.366 . S
C2584 C2585 1.414 . S
C2584 C2587 1.499 . S
C2585 H2559 0.950 . S
C2585 C2584 1.414 . S
C2585 C2586 1.374 . S
C2586 H2560 0.950 . S
C2586 C2582 1.385 . S
C2586 C2585 1.374 . S
C2587 C2584 1.499 . S
C2587 C2588 1.373 . S
C2587 C2589 1.389 . S
C2588 H2561 0.950 . S
C2588 C2574 1.377 . S
C2588 C2587 1.373 . S
C2589 C2573 1.377 . S
C2589 C2587 1.389 . S
C2589 C2590 1.524 . S
C2590 C2589 1.524 . S
C2590 C2591 1.397 . S
C2590 C2595 1.363 . S
C2591 H2562 0.950 . S
C2591 C2590 1.397 . S
C2591 C2592 1.334 . S
C2592 H2563 0.950 . S
C2592 C2591 1.334 . S
C2592 C2593 1.287 . S
C2593 C2592 1.287 . S
C2593 C2594 1.524 . S
C2593 H2596 0.999 . S
C2594 H2564 0.950 . S
C2594 C2593 1.524 . S
C2594 C2595 1.415 . S
C2595 H2565 0.950 . S
C2595 C2590 1.363 . S
C2595 C2594 1.415 . S
H2596 C2593 0.999 . S
H2597 C2578 0.913 . S
H2598 C2616 0.951 . S
H2599 C2618 0.951 . S
H2600 C2620 0.950 . S
H2601 C2621 0.950 . S
H2602 C2623 0.950 . S
H2603 C2626 0.950 . S
H2604 C2627 0.950 . S
H2605 C2629 0.950 . S
H2606 C2630 0.950 . S
H2607 C2631 0.951 . S
H2608 C2633 0.951 . S
H2609 C2635 0.950 . S
H2610 C2636 0.950 . S
H2611 C2638 0.950 . S
H2612 C2641 0.950 . S
H2613 C2642 0.950 . S
H2614 C2644 0.950 . S
H2615 C2645 0.950 . S
C2616 H2598 0.951 . S
C2616 C2617 1.366 . S
C2616 C2618 1.388 . S
C2617 C2616 1.366 . S
C2617 C2621 1.385 . S
C2618 H2599 0.951 . S
C2618 C2616 1.388 . S
C2618 C2619 1.366 . S
C2619 C2618 1.366 . S
C2619 C2620 1.414 . S
C2619 C2622 1.499 . S
C2620 H2600 0.950 . S
C2620 C2619 1.414 . S
C2620 C2621 1.374 . S
C2621 H2601 0.950 . S
C2621 C2617 1.385 . S
C2621 C2620 1.374 . S
C2622 C2619 1.499 . S
C2622 C2623 1.373 . S
C2622 C2624 1.389 . S
C2623 H2602 0.950 . S
C2623 C2622 1.373 . S
C2623 C2639 1.377 . S
C2624 C2622 1.389 . S
C2624 C2625 1.524 . S
C2624 C2638 1.377 . S
C2625 C2624 1.524 . S
C2625 C2626 1.397 . S
C2625 C2630 1.363 . S
C2626 H2603 0.950 . S
C2626 C2625 1.397 . S
C2626 C2627 1.334 . S
C2627 H2604 0.950 . S
C2627 C2626 1.334 . S
C2627 C2628 1.287 . S
C2628 C2627 1.287 . S
C2628 C2629 1.524 . S
C2628 H2647 0.913 . S
C2629 H2605 0.950 . S
C2629 C2628 1.524 . S
C2629 C2630 1.415 . S
C2630 H2606 0.950 . S
C2630 C2625 1.363 . S
C2630 C2629 1.415 . S
C2631 H2607 0.951 . S
C2631 C2632 1.366 . S
C2631 C2633 1.388 . S
C2632 C2631 1.366 . S
C2632 C2636 1.385 . S
C2633 H2608 0.951 . S
C2633 C2631 1.388 . S
C2633 C2634 1.366 . S
C2634 C2633 1.366 . S
C2634 C2635 1.414 . S
C2634 C2637 1.499 . S
C2635 H2609 0.950 . S
C2635 C2634 1.414 . S
C2635 C2636 1.374 . S
C2636 H2610 0.950 . S
C2636 C2632 1.385 . S
C2636 C2635 1.374 . S
C2637 C2634 1.499 . S
C2637 C2638 1.373 . S
C2637 C2639 1.389 . S
C2638 H2611 0.950 . S
C2638 C2624 1.377 . S
C2638 C2637 1.373 . S
C2639 C2623 1.377 . S
C2639 C2637 1.389 . S
C2639 C2640 1.524 . S
C2640 C2639 1.524 . S
C2640 C2641 1.397 . S
C2640 C2645 1.363 . S
C2641 H2612 0.950 . S
C2641 C2640 1.397 . S
C2641 C2642 1.334 . S
C2642 H2613 0.950 . S
C2642 C2641 1.334 . S
C2642 C2643 1.287 . S
C2643 C2642 1.287 . S
C2643 C2644 1.524 . S
C2643 H2646 0.999 . S
C2644 H2614 0.950 . S
C2644 C2643 1.524 . S
C2644 C2645 1.415 . S
C2645 H2615 0.950 . S
C2645 C2640 1.363 . S
C2645 C2644 1.415 . S
H2646 C2643 0.999 . S
H2647 C2628 0.913 . S
H2648 C2666 0.951 . S
H2649 C2668 0.951 . S
H2650 C2670 0.950 . S
H2651 C2671 0.950 . S
H2652 C2673 0.950 . S
H2653 C2676 0.950 . S
H2654 C2677 0.950 . S
H2655 C2679 0.950 . S
H2656 C2680 0.950 . S
H2657 C2681 0.951 . S
H2658 C2683 0.951 . S
H2659 C2685 0.950 . S
H2660 C2686 0.950 . S
H2661 C2688 0.950 . S
H2662 C2691 0.950 . S
H2663 C2692 0.950 . S
H2664 C2694 0.950 . S
H2665 C2695 0.950 . S
C2666 H2648 0.951 . S
C2666 C2667 1.366 . S
C2666 C2668 1.388 . S
C2667 C2666 1.366 . S
C2667 C2671 1.385 . S
C2668 H2649 0.951 . S
C2668 C2666 1.388 . S
C2668 C2669 1.366 . S
C2669 C2668 1.366 . S
C2669 C2670 1.414 . S
C2669 C2672 1.499 . S
C2670 H2650 0.950 . S
C2670 C2669 1.414 . S
C2670 C2671 1.374 . S
C2671 H2651 0.950 . S
C2671 C2667 1.385 . S
C2671 C2670 1.374 . S
C2672 C2669 1.499 . S
C2672 C2673 1.373 . S
C2672 C2674 1.389 . S
C2673 H2652 0.950 . S
C2673 C2672 1.373 . S
C2673 C2689 1.377 . S
C2674 C2672 1.389 . S
C2674 C2675 1.524 . S
C2674 C2688 1.377 . S
C2675 C2674 1.524 . S
C2675 C2676 1.397 . S
C2675 C2680 1.363 . S
C2676 H2653 0.950 . S
C2676 C2675 1.397 . S
C2676 C2677 1.334 . S
C2677 H2654 0.950 . S
C2677 C2676 1.334 . S
C2677 C2678 1.287 . S
C2678 C2677 1.287 . S
C2678 C2679 1.524 . S
C2678 H2697 0.913 . S
C2679 H2655 0.950 . S
C2679 C2678 1.524 . S
C2679 C2680 1.415 . S
C2680 H2656 0.950 . S
C2680 C2675 1.363 . S
C2680 C2679 1.415 . S
C2681 H2657 0.951 . S
C2681 C2682 1.366 . S
C2681 C2683 1.388 . S
C2682 C2681 1.366 . S
C2682 C2686 1.385 . S
C2683 H2658 0.951 . S
C2683 C2681 1.388 . S
C2683 C2684 1.366 . S
C2684 C2683 1.366 . S
C2684 C2685 1.414 . S
C2684 C2687 1.499 . S
C2685 H2659 0.950 . S
C2685 C2684 1.414 . S
C2685 C2686 1.374 . S
C2686 H2660 0.950 . S
C2686 C2682 1.385 . S
C2686 C2685 1.374 . S
C2687 C2684 1.499 . S
C2687 C2688 1.373 . S
C2687 C2689 1.389 . S
C2688 H2661 0.950 . S
C2688 C2674 1.377 . S
C2688 C2687 1.373 . S
C2689 C2673 1.377 . S
C2689 C2687 1.389 . S
C2689 C2690 1.524 . S
C2690 C2689 1.524 . S
C2690 C2691 1.397 . S
C2690 C2695 1.363 . S
C2691 H2662 0.950 . S
C2691 C2690 1.397 . S
C2691 C2692 1.334 . S
C2692 H2663 0.950 . S
C2692 C2691 1.334 . S
C2692 C2693 1.287 . S
C2693 C2692 1.287 . S
C2693 C2694 1.524 . S
C2693 H2696 0.999 . S
C2694 H2664 0.950 . S
C2694 C2693 1.524 . S
C2694 C2695 1.415 . S
C2695 H2665 0.950 . S
C2695 C2690 1.363 . S
C2695 C2694 1.415 . S
H2696 C2693 0.999 . S
H2697 C2678 0.913 . S
H2698 C2716 0.951 . S
H2699 C2718 0.951 . S
H2700 C2720 0.950 . S
H2701 C2721 0.950 . S
H2702 C2723 0.950 . S
H2703 C2726 0.950 . S
H2704 C2727 0.950 . S
H2705 C2729 0.950 . S
H2706 C2730 0.950 . S
H2707 C2731 0.951 . S
H2708 C2733 0.951 . S
H2709 C2735 0.950 . S
H2710 C2736 0.950 . S
H2711 C2738 0.950 . S
H2712 C2741 0.950 . S
H2713 C2742 0.950 . S
H2714 C2744 0.950 . S
H2715 C2745 0.950 . S
C2716 H2698 0.951 . S
C2716 C2717 1.366 . S
C2716 C2718 1.388 . S
C2717 C2716 1.366 . S
C2717 C2721 1.385 . S
C2718 H2699 0.951 . S
C2718 C2716 1.388 . S
C2718 C2719 1.366 . S
C2719 C2718 1.366 . S
C2719 C2720 1.414 . S
C2719 C2722 1.499 . S
C2720 H2700 0.950 . S
C2720 C2719 1.414 . S
C2720 C2721 1.374 . S
C2721 H2701 0.950 . S
C2721 C2717 1.385 . S
C2721 C2720 1.374 . S
C2722 C2719 1.499 . S
C2722 C2723 1.373 . S
C2722 C2724 1.389 . S
C2723 H2702 0.950 . S
C2723 C2722 1.373 . S
C2723 C2739 1.377 . S
C2724 C2722 1.389 . S
C2724 C2725 1.524 . S
C2724 C2738 1.377 . S
C2725 C2724 1.524 . S
C2725 C2726 1.397 . S
C2725 C2730 1.363 . S
C2726 H2703 0.950 . S
C2726 C2725 1.397 . S
C2726 C2727 1.334 . S
C2727 H2704 0.950 . S
C2727 C2726 1.334 . S
C2727 C2728 1.287 . S
C2728 C2727 1.287 . S
C2728 C2729 1.524 . S
C2728 H2747 0.913 . S
C2729 H2705 0.950 . S
C2729 C2728 1.524 . S
C2729 C2730 1.415 . S
C2730 H2706 0.950 . S
C2730 C2725 1.363 . S
C2730 C2729 1.415 . S
C2731 H2707 0.951 . S
C2731 C2732 1.366 . S
C2731 C2733 1.388 . S
C2732 C2731 1.366 . S
C2732 C2736 1.385 . S
C2733 H2708 0.951 . S
C2733 C2731 1.388 . S
C2733 C2734 1.366 . S
C2734 C2733 1.366 . S
C2734 C2735 1.414 . S
C2734 C2737 1.499 . S
C2735 H2709 0.950 . S
C2735 C2734 1.414 . S
C2735 C2736 1.374 . S
C2736 H2710 0.950 . S
C2736 C2732 1.385 . S
C2736 C2735 1.374 . S
C2737 C2734 1.499 . S
C2737 C2738 1.373 . S
C2737 C2739 1.389 . S
C2738 H2711 0.950 . S
C2738 C2724 1.377 . S
C2738 C2737 1.373 . S
C2739 C2723 1.377 . S
C2739 C2737 1.389 . S
C2739 C2740 1.524 . S
C2740 C2739 1.524 . S
C2740 C2741 1.397 . S
C2740 C2745 1.363 . S
C2741 H2712 0.950 . S
C2741 C2740 1.397 . S
C2741 C2742 1.334 . S
C2742 H2713 0.950 . S
C2742 C2741 1.334 . S
C2742 C2743 1.287 . S
C2743 C2742 1.287 . S
C2743 C2744 1.524 . S
C2743 H2746 0.999 . S
C2744 H2714 0.950 . S
C2744 C2743 1.524 . S
C2744 C2745 1.415 . S
C2745 H2715 0.950 . S
C2745 C2740 1.363 . S
C2745 C2744 1.415 . S
H2746 C2743 0.999 . S
H2747 C2728 0.913 . S
H2748 C2766 0.951 . S
H2749 C2768 0.951 . S
H2750 C2770 0.950 . S
H2751 C2771 0.950 . S
H2752 C2773 0.950 . S
H2753 C2776 0.950 . S
H2754 C2777 0.950 . S
H2755 C2779 0.950 . S
H2756 C2780 0.950 . S
H2757 C2781 0.951 . S
H2758 C2783 0.951 . S
H2759 C2785 0.950 . S
H2760 C2786 0.950 . S
H2761 C2788 0.950 . S
H2762 C2791 0.950 . S
H2763 C2792 0.950 . S
H2764 C2794 0.950 . S
H2765 C2795 0.950 . S
C2766 H2748 0.951 . S
C2766 C2767 1.366 . S
C2766 C2768 1.388 . S
C2767 C2766 1.366 . S
C2767 C2771 1.385 . S
C2768 H2749 0.951 . S
C2768 C2766 1.388 . S
C2768 C2769 1.366 . S
C2769 C2768 1.366 . S
C2769 C2770 1.414 . S
C2769 C2772 1.499 . S
C2770 H2750 0.950 . S
C2770 C2769 1.414 . S
C2770 C2771 1.374 . S
C2771 H2751 0.950 . S
C2771 C2767 1.385 . S
C2771 C2770 1.374 . S
C2772 C2769 1.499 . S
C2772 C2773 1.373 . S
C2772 C2774 1.389 . S
C2773 H2752 0.950 . S
C2773 C2772 1.373 . S
C2773 C2789 1.377 . S
C2774 C2772 1.389 . S
C2774 C2775 1.524 . S
C2774 C2788 1.377 . S
C2775 C2774 1.524 . S
C2775 C2776 1.397 . S
C2775 C2780 1.363 . S
C2776 H2753 0.950 . S
C2776 C2775 1.397 . S
C2776 C2777 1.334 . S
C2777 H2754 0.950 . S
C2777 C2776 1.334 . S
C2777 C2778 1.287 . S
C2778 C2777 1.287 . S
C2778 C2779 1.524 . S
C2778 H2797 0.913 . S
C2779 H2755 0.950 . S
C2779 C2778 1.524 . S
C2779 C2780 1.415 . S
C2780 H2756 0.950 . S
C2780 C2775 1.363 . S
C2780 C2779 1.415 . S
C2781 H2757 0.951 . S
C2781 C2782 1.366 . S
C2781 C2783 1.388 . S
C2782 C2781 1.366 . S
C2782 C2786 1.385 . S
C2783 H2758 0.951 . S
C2783 C2781 1.388 . S
C2783 C2784 1.366 . S
C2784 C2783 1.366 . S
C2784 C2785 1.414 . S
C2784 C2787 1.499 . S
C2785 H2759 0.950 . S
C2785 C2784 1.414 . S
C2785 C2786 1.374 . S
C2786 H2760 0.950 . S
C2786 C2782 1.385 . S
C2786 C2785 1.374 . S
C2787 C2784 1.499 . S
C2787 C2788 1.373 . S
C2787 C2789 1.389 . S
C2788 H2761 0.950 . S
C2788 C2774 1.377 . S
C2788 C2787 1.373 . S
C2789 C2773 1.377 . S
C2789 C2787 1.389 . S
C2789 C2790 1.524 . S
C2790 C2789 1.524 . S
C2790 C2791 1.397 . S
C2790 C2795 1.363 . S
C2791 H2762 0.950 . S
C2791 C2790 1.397 . S
C2791 C2792 1.334 . S
C2792 H2763 0.950 . S
C2792 C2791 1.334 . S
C2792 C2793 1.287 . S
C2793 C2792 1.287 . S
C2793 C2794 1.524 . S
C2793 H2796 0.999 . S
C2794 H2764 0.950 . S
C2794 C2793 1.524 . S
C2794 C2795 1.415 . S
C2795 H2765 0.950 . S
C2795 C2790 1.363 . S
C2795 C2794 1.415 . S
H2796 C2793 0.999 . S
H2797 C2778 0.913 . S
H2798 C2816 0.951 . S
H2799 C2818 0.951 . S
H2800 C2820 0.950 . S
H2801 C2821 0.950 . S
H2802 C2823 0.950 . S
H2803 C2826 0.950 . S
H2804 C2827 0.950 . S
H2805 C2829 0.950 . S
H2806 C2830 0.950 . S
H2807 C2831 0.951 . S
H2808 C2833 0.951 . S
H2809 C2835 0.950 . S
H2810 C2836 0.950 . S
H2811 C2838 0.950 . S
H2812 C2841 0.950 . S
H2813 C2842 0.950 . S
H2814 C2844 0.950 . S
H2815 C2845 0.950 . S
C2816 H2798 0.951 . S
C2816 C2817 1.366 . S
C2816 C2818 1.388 . S
C2817 C2816 1.366 . S
C2817 C2821 1.385 . S
C2818 H2799 0.951 . S
C2818 C2816 1.388 . S
C2818 C2819 1.366 . S
C2819 C2818 1.366 . S
C2819 C2820 1.414 . S
C2819 C2822 1.499 . S
C2820 H2800 0.950 . S
C2820 C2819 1.414 . S
C2820 C2821 1.374 . S
C2821 H2801 0.950 . S
C2821 C2817 1.385 . S
C2821 C2820 1.374 . S
C2822 C2819 1.499 . S
C2822 C2823 1.373 . S
C2822 C2824 1.389 . S
C2823 H2802 0.950 . S
C2823 C2822 1.373 . S
C2823 C2839 1.377 . S
C2824 C2822 1.389 . S
C2824 C2825 1.524 . S
C2824 C2838 1.377 . S
C2825 C2824 1.524 . S
C2825 C2826 1.397 . S
C2825 C2830 1.363 . S
C2826 H2803 0.950 . S
C2826 C2825 1.397 . S
C2826 C2827 1.334 . S
C2827 H2804 0.950 . S
C2827 C2826 1.334 . S
C2827 C2828 1.287 . S
C2828 C2827 1.287 . S
C2828 C2829 1.524 . S
C2828 H2847 0.913 . S
C2829 H2805 0.950 . S
C2829 C2828 1.524 . S
C2829 C2830 1.415 . S
C2830 H2806 0.950 . S
C2830 C2825 1.363 . S
C2830 C2829 1.415 . S
C2831 H2807 0.951 . S
C2831 C2832 1.366 . S
C2831 C2833 1.388 . S
C2832 C2831 1.366 . S
C2832 C2836 1.385 . S
C2833 H2808 0.951 . S
C2833 C2831 1.388 . S
C2833 C2834 1.366 . S
C2834 C2833 1.366 . S
C2834 C2835 1.414 . S
C2834 C2837 1.499 . S
C2835 H2809 0.950 . S
C2835 C2834 1.414 . S
C2835 C2836 1.374 . S
C2836 H2810 0.950 . S
C2836 C2832 1.385 . S
C2836 C2835 1.374 . S
C2837 C2834 1.499 . S
C2837 C2838 1.373 . S
C2837 C2839 1.389 . S
C2838 H2811 0.950 . S
C2838 C2824 1.377 . S
C2838 C2837 1.373 . S
C2839 C2823 1.377 . S
C2839 C2837 1.389 . S
C2839 C2840 1.524 . S
C2840 C2839 1.524 . S
C2840 C2841 1.397 . S
C2840 C2845 1.363 . S
C2841 H2812 0.950 . S
C2841 C2840 1.397 . S
C2841 C2842 1.334 . S
C2842 H2813 0.950 . S
C2842 C2841 1.334 . S
C2842 C2843 1.287 . S
C2843 C2842 1.287 . S
C2843 C2844 1.524 . S
C2843 H2846 0.999 . S
C2844 H2814 0.950 . S
C2844 C2843 1.524 . S
C2844 C2845 1.415 . S
C2845 H2815 0.950 . S
C2845 C2840 1.363 . S
C2845 C2844 1.415 . S
H2846 C2843 0.999 . S
H2847 C2828 0.913 . S
H2848 C2866 0.951 . S
H2849 C2868 0.951 . S
H2850 C2870 0.950 . S
H2851 C2871 0.950 . S
H2852 C2873 0.950 . S
H2853 C2876 0.950 . S
H2854 C2877 0.950 . S
H2855 C2879 0.950 . S
H2856 C2880 0.950 . S
H2857 C2881 0.951 . S
H2858 C2883 0.951 . S
H2859 C2885 0.950 . S
H2860 C2886 0.950 . S
H2861 C2888 0.950 . S
H2862 C2891 0.950 . S
H2863 C2892 0.950 . S
H2864 C2894 0.950 . S
H2865 C2895 0.950 . S
C2866 H2848 0.951 . S
C2866 C2867 1.366 . S
C2866 C2868 1.388 . S
C2867 C2866 1.366 . S
C2867 C2871 1.385 . S
C2868 H2849 0.951 . S
C2868 C2866 1.388 . S
C2868 C2869 1.366 . S
C2869 C2868 1.366 . S
C2869 C2870 1.414 . S
C2869 C2872 1.499 . S
C2870 H2850 0.950 . S
C2870 C2869 1.414 . S
C2870 C2871 1.374 . S
C2871 H2851 0.950 . S
C2871 C2867 1.385 . S
C2871 C2870 1.374 . S
C2872 C2869 1.499 . S
C2872 C2873 1.373 . S
C2872 C2874 1.389 . S
C2873 H2852 0.950 . S
C2873 C2872 1.373 . S
C2873 C2889 1.377 . S
C2874 C2872 1.389 . S
C2874 C2875 1.524 . S
C2874 C2888 1.377 . S
C2875 C2874 1.524 . S
C2875 C2876 1.397 . S
C2875 C2880 1.363 . S
C2876 H2853 0.950 . S
C2876 C2875 1.397 . S
C2876 C2877 1.334 . S
C2877 H2854 0.950 . S
C2877 C2876 1.334 . S
C2877 C2878 1.287 . S
C2878 C2877 1.287 . S
C2878 C2879 1.524 . S
C2878 H2897 0.913 . S
C2879 H2855 0.950 . S
C2879 C2878 1.524 . S
C2879 C2880 1.415 . S
C2880 H2856 0.950 . S
C2880 C2875 1.363 . S
C2880 C2879 1.415 . S
C2881 H2857 0.951 . S
C2881 C2882 1.366 . S
C2881 C2883 1.388 . S
C2882 C2881 1.366 . S
C2882 C2886 1.385 . S
C2883 H2858 0.951 . S
C2883 C2881 1.388 . S
C2883 C2884 1.366 . S
C2884 C2883 1.366 . S
C2884 C2885 1.414 . S
C2884 C2887 1.499 . S
C2885 H2859 0.950 . S
C2885 C2884 1.414 . S
C2885 C2886 1.374 . S
C2886 H2860 0.950 . S
C2886 C2882 1.385 . S
C2886 C2885 1.374 . S
C2887 C2884 1.499 . S
C2887 C2888 1.373 . S
C2887 C2889 1.389 . S
C2888 H2861 0.950 . S
C2888 C2874 1.377 . S
C2888 C2887 1.373 . S
C2889 C2873 1.377 . S
C2889 C2887 1.389 . S
C2889 C2890 1.524 . S
C2890 C2889 1.524 . S
C2890 C2891 1.397 . S
C2890 C2895 1.363 . S
C2891 H2862 0.950 . S
C2891 C2890 1.397 . S
C2891 C2892 1.334 . S
C2892 H2863 0.950 . S
C2892 C2891 1.334 . S
C2892 C2893 1.287 . S
C2893 C2892 1.287 . S
C2893 C2894 1.524 . S
C2893 H2896 0.999 . S
C2894 H2864 0.950 . S
C2894 C2893 1.524 . S
C2894 C2895 1.415 . S
C2895 H2865 0.950 . S
C2895 C2890 1.363 . S
C2895 C2894 1.415 . S
H2896 C2893 0.999 . S
H2897 C2878 0.913 . S
H2898 C2916 0.951 . S
H2899 C2918 0.951 . S
H2900 C2920 0.950 . S
H2901 C2921 0.950 . S
H2902 C2923 0.950 . S
H2903 C2926 0.950 . S
H2904 C2927 0.950 . S
H2905 C2929 0.950 . S
H2906 C2930 0.950 . S
H2907 C2931 0.951 . S
H2908 C2933 0.951 . S
H2909 C2935 0.950 . S
H2910 C2936 0.950 . S
H2911 C2938 0.950 . S
H2912 C2941 0.950 . S
H2913 C2942 0.950 . S
H2914 C2944 0.950 . S
H2915 C2945 0.950 . S
C2916 H2898 0.951 . S
C2916 C2917 1.366 . S
C2916 C2918 1.388 . S
C2917 C2916 1.366 . S
C2917 C2921 1.385 . S
C2918 H2899 0.951 . S
C2918 C2916 1.388 . S
C2918 C2919 1.366 . S
C2919 C2918 1.366 . S
C2919 C2920 1.414 . S
C2919 C2922 1.499 . S
C2920 H2900 0.950 . S
C2920 C2919 1.414 . S
C2920 C2921 1.374 . S
C2921 H2901 0.950 . S
C2921 C2917 1.385 . S
C2921 C2920 1.374 . S
C2922 C2919 1.499 . S
C2922 C2923 1.373 . S
C2922 C2924 1.389 . S
C2923 H2902 0.950 . S
C2923 C2922 1.373 . S
C2923 C2939 1.377 . S
C2924 C2922 1.389 . S
C2924 C2925 1.524 . S
C2924 C2938 1.377 . S
C2925 C2924 1.524 . S
C2925 C2926 1.397 . S
C2925 C2930 1.363 . S
C2926 H2903 0.950 . S
C2926 C2925 1.397 . S
C2926 C2927 1.334 . S
C2927 H2904 0.950 . S
C2927 C2926 1.334 . S
C2927 C2928 1.287 . S
C2928 C2927 1.287 . S
C2928 C2929 1.524 . S
C2928 H2947 0.913 . S
C2929 H2905 0.950 . S
C2929 C2928 1.524 . S
C2929 C2930 1.415 . S
C2930 H2906 0.950 . S
C2930 C2925 1.363 . S
C2930 C2929 1.415 . S
C2931 H2907 0.951 . S
C2931 C2932 1.366 . S
C2931 C2933 1.388 . S
C2932 C2931 1.366 . S
C2932 C2936 1.385 . S
C2933 H2908 0.951 . S
C2933 C2931 1.388 . S
C2933 C2934 1.366 . S
C2934 C2933 1.366 . S
C2934 C2935 1.414 . S
C2934 C2937 1.499 . S
C2935 H2909 0.950 . S
C2935 C2934 1.414 . S
C2935 C2936 1.374 . S
C2936 H2910 0.950 . S
C2936 C2932 1.385 . S
C2936 C2935 1.374 . S
C2937 C2934 1.499 . S
C2937 C2938 1.373 . S
C2937 C2939 1.389 . S
C2938 H2911 0.950 . S
C2938 C2924 1.377 . S
C2938 C2937 1.373 . S
C2939 C2923 1.377 . S
C2939 C2937 1.389 . S
C2939 C2940 1.524 . S
C2940 C2939 1.524 . S
C2940 C2941 1.397 . S
C2940 C2945 1.363 . S
C2941 H2912 0.950 . S
C2941 C2940 1.397 . S
C2941 C2942 1.334 . S
C2942 H2913 0.950 . S
C2942 C2941 1.334 . S
C2942 C2943 1.287 . S
C2943 C2942 1.287 . S
C2943 C2944 1.524 . S
C2943 H2946 0.999 . S
C2944 H2914 0.950 . S
C2944 C2943 1.524 . S
C2944 C2945 1.415 . S
C2945 H2915 0.950 . S
C2945 C2940 1.363 . S
C2945 C2944 1.415 . S
H2946 C2943 0.999 . S
H2947 C2928 0.913 . S
H2948 C2966 0.951 . S
H2949 C2968 0.951 . S
H2950 C2970 0.950 . S
H2951 C2971 0.950 . S
H2952 C2973 0.950 . S
H2953 C2976 0.950 . S
H2954 C2977 0.950 . S
H2955 C2979 0.950 . S
H2956 C2980 0.950 . S
H2957 C2981 0.951 . S
H2958 C2983 0.951 . S
H2959 C2985 0.950 . S
H2960 C2986 0.950 . S
H2961 C2988 0.950 . S
H2962 C2991 0.950 . S
H2963 C2992 0.950 . S
H2964 C2994 0.950 . S
H2965 C2995 0.950 . S
C2966 H2948 0.951 . S
C2966 C2967 1.366 . S
C2966 C2968 1.388 . S
C2967 C2966 1.366 . S
C2967 C2971 1.385 . S
C2968 H2949 0.951 . S
C2968 C2966 1.388 . S
C2968 C2969 1.366 . S
C2969 C2968 1.366 . S
C2969 C2970 1.414 . S
C2969 C2972 1.499 . S
C2970 H2950 0.950 . S
C2970 C2969 1.414 . S
C2970 C2971 1.374 . S
C2971 H2951 0.950 . S
C2971 C2967 1.385 . S
C2971 C2970 1.374 . S
C2972 C2969 1.499 . S
C2972 C2973 1.373 . S
C2972 C2974 1.389 . S
C2973 H2952 0.950 . S
C2973 C2972 1.373 . S
C2973 C2989 1.377 . S
C2974 C2972 1.389 . S
C2974 C2975 1.524 . S
C2974 C2988 1.377 . S
C2975 C2974 1.524 . S
C2975 C2976 1.397 . S
C2975 C2980 1.363 . S
C2976 H2953 0.950 . S
C2976 C2975 1.397 . S
C2976 C2977 1.334 . S
C2977 H2954 0.950 . S
C2977 C2976 1.334 . S
C2977 C2978 1.287 . S
C2978 C2977 1.287 . S
C2978 C2979 1.524 . S
C2978 H2997 0.913 . S
C2979 H2955 0.950 . S
C2979 C2978 1.524 . S
C2979 C2980 1.415 . S
C2980 H2956 0.950 . S
C2980 C2975 1.363 . S
C2980 C2979 1.415 . S
C2981 H2957 0.951 . S
C2981 C2982 1.366 . S
C2981 C2983 1.388 . S
C2982 C2981 1.366 . S
C2982 C2986 1.385 . S
C2983 H2958 0.951 . S
C2983 C2981 1.388 . S
C2983 C2984 1.366 . S
C2984 C2983 1.366 . S
C2984 C2985 1.414 . S
C2984 C2987 1.499 . S
C2985 H2959 0.950 . S
C2985 C2984 1.414 . S
C2985 C2986 1.374 . S
C2986 H2960 0.950 . S
C2986 C2982 1.385 . S
C2986 C2985 1.374 . S
C2987 C2984 1.499 . S
C2987 C2988 1.373 . S
C2987 C2989 1.389 . S
C2988 H2961 0.950 . S
C2988 C2974 1.377 . S
C2988 C2987 1.373 . S
C2989 C2973 1.377 . S
C2989 C2987 1.389 . S
C2989 C2990 1.524 . S
C2990 C2989 1.524 . S
C2990 C2991 1.397 . S
C2990 C2995 1.363 . S
C2991 H2962 0.950 . S
C2991 C2990 1.397 . S
C2991 C2992 1.334 . S
C2992 H2963 0.950 . S
C2992 C2991 1.334 . S
C2992 C2993 1.287 . S
C2993 C2992 1.287 . S
C2993 C2994 1.524 . S
C2993 H2996 0.999 . S
C2994 H2964 0.950 . S
C2994 C2993 1.524 . S
C2994 C2995 1.415 . S
C2995 H2965 0.950 . S
C2995 C2990 1.363 . S
C2995 C2994 1.415 . S
H2996 C2993 0.999 . S
H2997 C2978 0.913 . S
H2998 C3016 0.951 . S
H2999 C3018 0.951 . S
H3000 C3020 0.950 . S
H3001 C3021 0.950 . S
H3002 C3023 0.950 . S
H3003 C3026 0.950 . S
H3004 C3027 0.950 . S
H3005 C3029 0.950 . S
H3006 C3030 0.950 . S
H3007 C3031 0.951 . S
H3008 C3033 0.951 . S
H3009 C3035 0.950 . S
H3010 C3036 0.950 . S
H3011 C3038 0.950 . S
H3012 C3041 0.950 . S
H3013 C3042 0.950 . S
H3014 C3044 0.950 . S
H3015 C3045 0.950 . S
C3016 H2998 0.951 . S
C3016 C3017 1.366 . S
C3016 C3018 1.388 . S
C3017 C3016 1.366 . S
C3017 C3021 1.385 . S
C3018 H2999 0.951 . S
C3018 C3016 1.388 . S
C3018 C3019 1.366 . S
C3019 C3018 1.366 . S
C3019 C3020 1.414 . S
C3019 C3022 1.499 . S
C3020 H3000 0.950 . S
C3020 C3019 1.414 . S
C3020 C3021 1.374 . S
C3021 H3001 0.950 . S
C3021 C3017 1.385 . S
C3021 C3020 1.374 . S
C3022 C3019 1.499 . S
C3022 C3023 1.373 . S
C3022 C3024 1.389 . S
C3023 H3002 0.950 . S
C3023 C3022 1.373 . S
C3023 C3039 1.377 . S
C3024 C3022 1.389 . S
C3024 C3025 1.524 . S
C3024 C3038 1.377 . S
C3025 C3024 1.524 . S
C3025 C3026 1.397 . S
C3025 C3030 1.363 . S
C3026 H3003 0.950 . S
C3026 C3025 1.397 . S
C3026 C3027 1.334 . S
C3027 H3004 0.950 . S
C3027 C3026 1.334 . S
C3027 C3028 1.287 . S
C3028 C3027 1.287 . S
C3028 C3029 1.524 . S
C3028 H3047 0.913 . S
C3029 H3005 0.950 . S
C3029 C3028 1.524 . S
C3029 C3030 1.415 . S
C3030 H3006 0.950 . S
C3030 C3025 1.363 . S
C3030 C3029 1.415 . S
C3031 H3007 0.951 . S
C3031 C3032 1.366 . S
C3031 C3033 1.388 . S
C3032 C3031 1.366 . S
C3032 C3036 1.385 . S
C3033 H3008 0.951 . S
C3033 C3031 1.388 . S
C3033 C3034 1.366 . S
C3034 C3033 1.366 . S
C3034 C3035 1.414 . S
C3034 C3037 1.499 . S
C3035 H3009 0.950 . S
C3035 C3034 1.414 . S
C3035 C3036 1.374 . S
C3036 H3010 0.950 . S
C3036 C3032 1.385 . S
C3036 C3035 1.374 . S
C3037 C3034 1.499 . S
C3037 C3038 1.373 . S
C3037 C3039 1.389 . S
C3038 H3011 0.950 . S
C3038 C3024 1.377 . S
C3038 C3037 1.373 . S
C3039 C3023 1.377 . S
C3039 C3037 1.389 . S
C3039 C3040 1.524 . S
C3040 C3039 1.524 . S
C3040 C3041 1.397 . S
C3040 C3045 1.363 . S
C3041 H3012 0.950 . S
C3041 C3040 1.397 . S
C3041 C3042 1.334 . S
C3042 H3013 0.950 . S
C3042 C3041 1.334 . S
C3042 C3043 1.287 . S
C3043 C3042 1.287 . S
C3043 C3044 1.524 . S
C3043 H3046 0.999 . S
C3044 H3014 0.950 . S
C3044 C3043 1.524 . S
C3044 C3045 1.415 . S
C3045 H3015 0.950 . S
C3045 C3040 1.363 . S
C3045 C3044 1.415 . S
H3046 C3043 0.999 . S
H3047 C3028 0.913 . S
H3048 C3066 0.951 . S
H3049 C3068 0.951 . S
H3050 C3070 0.950 . S
H3051 C3071 0.950 . S
H3052 C3073 0.950 . S
H3053 C3076 0.950 . S
H3054 C3077 0.950 . S
H3055 C3079 0.950 . S
H3056 C3080 0.950 . S
H3057 C3081 0.951 . S
H3058 C3083 0.951 . S
H3059 C3085 0.950 . S
H3060 C3086 0.950 . S
H3061 C3088 0.950 . S
H3062 C3091 0.950 . S
H3063 C3092 0.950 . S
H3064 C3094 0.950 . S
H3065 C3095 0.950 . S
C3066 H3048 0.951 . S
C3066 C3067 1.366 . S
C3066 C3068 1.388 . S
C3067 C3066 1.366 . S
C3067 C3071 1.385 . S
C3068 H3049 0.951 . S
C3068 C3066 1.388 . S
C3068 C3069 1.366 . S
C3069 C3068 1.366 . S
C3069 C3070 1.414 . S
C3069 C3072 1.499 . S
C3070 H3050 0.950 . S
C3070 C3069 1.414 . S
C3070 C3071 1.374 . S
C3071 H3051 0.950 . S
C3071 C3067 1.385 . S
C3071 C3070 1.374 . S
C3072 C3069 1.499 . S
C3072 C3073 1.373 . S
C3072 C3074 1.389 . S
C3073 H3052 0.950 . S
C3073 C3072 1.373 . S
C3073 C3089 1.377 . S
C3074 C3072 1.389 . S
C3074 C3075 1.524 . S
C3074 C3088 1.377 . S
C3075 C3074 1.524 . S
C3075 C3076 1.397 . S
C3075 C3080 1.363 . S
C3076 H3053 0.950 . S
C3076 C3075 1.397 . S
C3076 C3077 1.334 . S
C3077 H3054 0.950 . S
C3077 C3076 1.334 . S
C3077 C3078 1.287 . S
C3078 C3077 1.287 . S
C3078 C3079 1.524 . S
C3078 H3097 0.913 . S
C3079 H3055 0.950 . S
C3079 C3078 1.524 . S
C3079 C3080 1.415 . S
C3080 H3056 0.950 . S
C3080 C3075 1.363 . S
C3080 C3079 1.415 . S
C3081 H3057 0.951 . S
C3081 C3082 1.366 . S
C3081 C3083 1.388 . S
C3082 C3081 1.366 . S
C3082 C3086 1.385 . S
C3083 H3058 0.951 . S
C3083 C3081 1.388 . S
C3083 C3084 1.366 . S
C3084 C3083 1.366 . S
C3084 C3085 1.414 . S
C3084 C3087 1.499 . S
C3085 H3059 0.950 . S
C3085 C3084 1.414 . S
C3085 C3086 1.374 . S
C3086 H3060 0.950 . S
C3086 C3082 1.385 . S
C3086 C3085 1.374 . S
C3087 C3084 1.499 . S
C3087 C3088 1.373 . S
C3087 C3089 1.389 . S
C3088 H3061 0.950 . S
C3088 C3074 1.377 . S
C3088 C3087 1.373 . S
C3089 C3073 1.377 . S
C3089 C3087 1.389 . S
C3089 C3090 1.524 . S
C3090 C3089 1.524 . S
C3090 C3091 1.397 . S
C3090 C3095 1.363 . S
C3091 H3062 0.950 . S
C3091 C3090 1.397 . S
C3091 C3092 1.334 . S
C3092 H3063 0.950 . S
C3092 C3091 1.334 . S
C3092 C3093 1.287 . S
C3093 C3092 1.287 . S
C3093 C3094 1.524 . S
C3093 H3096 0.999 . S
C3094 H3064 0.950 . S
C3094 C3093 1.524 . S
C3094 C3095 1.415 . S
C3095 H3065 0.950 . S
C3095 C3090 1.363 . S
C3095 C3094 1.415 . S
H3096 C3093 0.999 . S
H3097 C3078 0.913 . S
H3098 C3116 0.951 . S
H3099 C3118 0.951 . S
H3100 C3120 0.950 . S
H3101 C3121 0.950 . S
H3102 C3123 0.950 . S
H3103 C3126 0.950 . S
H3104 C3127 0.950 . S
H3105 C3129 0.950 . S
H3106 C3130 0.950 . S
H3107 C3131 0.951 . S
H3108 C3133 0.951 . S
H3109 C3135 0.950 . S
H3110 C3136 0.950 . S
H3111 C3138 0.950 . S
H3112 C3141 0.950 . S
H3113 C3142 0.950 . S
H3114 C3144 0.950 . S
H3115 C3145 0.950 . S
C3116 H3098 0.951 . S
C3116 C3117 1.366 . S
C3116 C3118 1.388 . S
C3117 C3116 1.366 . S
C3117 C3121 1.385 . S
C3118 H3099 0.951 . S
C3118 C3116 1.388 . S
C3118 C3119 1.366 . S
C3119 C3118 1.366 . S
C3119 C3120 1.414 . S
C3119 C3122 1.499 . S
C3120 H3100 0.950 . S
C3120 C3119 1.414 . S
C3120 C3121 1.374 . S
C3121 H3101 0.950 . S
C3121 C3117 1.385 . S
C3121 C3120 1.374 . S
C3122 C3119 1.499 . S
C3122 C3123 1.373 . S
C3122 C3124 1.389 . S
C3123 H3102 0.950 . S
C3123 C3122 1.373 . S
C3123 C3139 1.377 . S
C3124 C3122 1.389 . S
C3124 C3125 1.524 . S
C3124 C3138 1.377 . S
C3125 C3124 1.524 . S
C3125 C3126 1.397 . S
C3125 C3130 1.363 . S
C3126 H3103 0.950 . S
C3126 C3125 1.397 . S
C3126 C3127 1.334 . S
C3127 H3104 0.950 . S
C3127 C3126 1.334 . S
C3127 C3128 1.287 . S
C3128 C3127 1.287 . S
C3128 C3129 1.524 . S
C3128 H3147 0.913 . S
C3129 H3105 0.950 . S
C3129 C3128 1.524 . S
C3129 C3130 1.415 . S
C3130 H3106 0.950 . S
C3130 C3125 1.363 . S
C3130 C3129 1.415 . S
C3131 H3107 0.951 . S
C3131 C3132 1.366 . S
C3131 C3133 1.388 . S
C3132 C3131 1.366 . S
C3132 C3136 1.385 . S
C3133 H3108 0.951 . S
C3133 C3131 1.388 . S
C3133 C3134 1.366 . S
C3134 C3133 1.366 . S
C3134 C3135 1.414 . S
C3134 C3137 1.499 . S
C3135 H3109 0.950 . S
C3135 C3134 1.414 . S
C3135 C3136 1.374 . S
C3136 H3110 0.950 . S
C3136 C3132 1.385 . S
C3136 C3135 1.374 . S
C3137 C3134 1.499 . S
C3137 C3138 1.373 . S
C3137 C3139 1.389 . S
C3138 H3111 0.950 . S
C3138 C3124 1.377 . S
C3138 C3137 1.373 . S
C3139 C3123 1.377 . S
C3139 C3137 1.389 . S
C3139 C3140 1.524 . S
C3140 C3139 1.524 . S
C3140 C3141 1.397 . S
C3140 C3145 1.363 . S
C3141 H3112 0.950 . S
C3141 C3140 1.397 . S
C3141 C3142 1.334 . S
C3142 H3113 0.950 . S
C3142 C3141 1.334 . S
C3142 C3143 1.287 . S
C3143 C3142 1.287 . S
C3143 C3144 1.524 . S
C3143 H3146 0.999 . S
C3144 H3114 0.950 . S
C3144 C3143 1.524 . S
C3144 C3145 1.415 . S
C3145 H3115 0.950 . S
C3145 C3140 1.363 . S
C3145 C3144 1.415 . S
H3146 C3143 0.999 . S
H3147 C3128 0.913 . S
H3148 C3166 0.951 . S
H3149 C3168 0.951 . S
H3150 C3170 0.950 . S
H3151 C3171 0.950 . S
H3152 C3173 0.950 . S
H3153 C3176 0.950 . S
H3154 C3177 0.950 . S
H3155 C3179 0.950 . S
H3156 C3180 0.950 . S
H3157 C3181 0.951 . S
H3158 C3183 0.951 . S
H3159 C3185 0.950 . S
H3160 C3186 0.950 . S
H3161 C3188 0.950 . S
H3162 C3191 0.950 . S
H3163 C3192 0.950 . S
H3164 C3194 0.950 . S
H3165 C3195 0.950 . S
C3166 H3148 0.951 . S
C3166 C3167 1.366 . S
C3166 C3168 1.388 . S
C3167 C3166 1.366 . S
C3167 C3171 1.385 . S
C3168 H3149 0.951 . S
C3168 C3166 1.388 . S
C3168 C3169 1.366 . S
C3169 C3168 1.366 . S
C3169 C3170 1.414 . S
C3169 C3172 1.499 . S
C3170 H3150 0.950 . S
C3170 C3169 1.414 . S
C3170 C3171 1.374 . S
C3171 H3151 0.950 . S
C3171 C3167 1.385 . S
C3171 C3170 1.374 . S
C3172 C3169 1.499 . S
C3172 C3173 1.373 . S
C3172 C3174 1.389 . S
C3173 H3152 0.950 . S
C3173 C3172 1.373 . S
C3173 C3189 1.377 . S
C3174 C3172 1.389 . S
C3174 C3175 1.524 . S
C3174 C3188 1.377 . S
C3175 C3174 1.524 . S
C3175 C3176 1.397 . S
C3175 C3180 1.363 . S
C3176 H3153 0.950 . S
C3176 C3175 1.397 . S
C3176 C3177 1.334 . S
C3177 H3154 0.950 . S
C3177 C3176 1.334 . S
C3177 C3178 1.287 . S
C3178 C3177 1.287 . S
C3178 C3179 1.524 . S
C3178 H3197 0.913 . S
C3179 H3155 0.950 . S
C3179 C3178 1.524 . S
C3179 C3180 1.415 . S
C3180 H3156 0.950 . S
C3180 C3175 1.363 . S
C3180 C3179 1.415 . S
C3181 H3157 0.951 . S
C3181 C3182 1.366 . S
C3181 C3183 1.388 . S
C3182 C3181 1.366 . S
C3182 C3186 1.385 . S
C3183 H3158 0.951 . S
C3183 C3181 1.388 . S
C3183 C3184 1.366 . S
C3184 C3183 1.366 . S
C3184 C3185 1.414 . S
C3184 C3187 1.499 . S
C3185 H3159 0.950 . S
C3185 C3184 1.414 . S
C3185 C3186 1.374 . S
C3186 H3160 0.950 . S
C3186 C3182 1.385 . S
C3186 C3185 1.374 . S
C3187 C3184 1.499 . S
C3187 C3188 1.373 . S
C3187 C3189 1.389 . S
C3188 H3161 0.950 . S
C3188 C3174 1.377 . S
C3188 C3187 1.373 . S
C3189 C3173 1.377 . S
C3189 C3187 1.389 . S
C3189 C3190 1.524 . S
C3190 C3189 1.524 . S
C3190 C3191 1.397 . S
C3190 C3195 1.363 . S
C3191 H3162 0.950 . S
C3191 C3190 1.397 . S
C3191 C3192 1.334 . S
C3192 H3163 0.950 . S
C3192 C3191 1.334 . S
C3192 C3193 1.287 . S
C3193 C3192 1.287 . S
C3193 C3194 1.524 . S
C3193 H3196 0.999 . S
C3194 H3164 0.950 . S
C3194 C3193 1.524 . S
C3194 C3195 1.415 . S
C3195 H3165 0.950 . S
C3195 C3190 1.363 . S
C3195 C3194 1.415 . S
H3196 C3193 0.999 . S
H3197 C3178 0.913 . S
H3198 C3216 0.951 . S
H3199 C3218 0.951 . S
H3200 C3220 0.950 . S
H3201 C3221 0.950 . S
H3202 C3223 0.950 . S
H3203 C3226 0.950 . S
H3204 C3227 0.950 . S
H3205 C3229 0.950 . S
H3206 C3230 0.950 . S
H3207 C3231 0.951 . S
H3208 C3233 0.951 . S
H3209 C3235 0.950 . S
H3210 C3236 0.950 . S
H3211 C3238 0.950 . S
H3212 C3241 0.950 . S
H3213 C3242 0.950 . S
H3214 C3244 0.950 . S
H3215 C3245 0.950 . S
C3216 H3198 0.951 . S
C3216 C3217 1.366 . S
C3216 C3218 1.388 . S
C3217 C3216 1.366 . S
C3217 C3221 1.385 . S
C3218 H3199 0.951 . S
C3218 C3216 1.388 . S
C3218 C3219 1.366 . S
C3219 C3218 1.366 . S
C3219 C3220 1.414 . S
C3219 C3222 1.499 . S
C3220 H3200 0.950 . S
C3220 C3219 1.414 . S
C3220 C3221 1.374 . S
C3221 H3201 0.950 . S
C3221 C3217 1.385 . S
C3221 C3220 1.374 . S
C3222 C3219 1.499 . S
C3222 C3223 1.373 . S
C3222 C3224 1.389 . S
C3223 H3202 0.950 . S
C3223 C3222 1.373 . S
C3223 C3239 1.377 . S
C3224 C3222 1.389 . S
C3224 C3225 1.524 . S
C3224 C3238 1.377 . S
C3225 C3224 1.524 . S
C3225 C3226 1.397 . S
C3225 C3230 1.363 . S
C3226 H3203 0.950 . S
C3226 C3225 1.397 . S
C3226 C3227 1.334 . S
C3227 H3204 0.950 . S
C3227 C3226 1.334 . S
C3227 C3228 1.287 . S
C3228 C3227 1.287 . S
C3228 C3229 1.524 . S
C3228 H3247 0.913 . S
C3229 H3205 0.950 . S
C3229 C3228 1.524 . S
C3229 C3230 1.415 . S
C3230 H3206 0.950 . S
C3230 C3225 1.363 . S
C3230 C3229 1.415 . S
C3231 H3207 0.951 . S
C3231 C3232 1.366 . S
C3231 C3233 1.388 . S
C3232 C3231 1.366 . S
C3232 C3236 1.385 . S
C3233 H3208 0.951 . S
C3233 C3231 1.388 . S
C3233 C3234 1.366 . S
C3234 C3233 1.366 . S
C3234 C3235 1.414 . S
C3234 C3237 1.499 . S
C3235 H3209 0.950 . S
C3235 C3234 1.414 . S
C3235 C3236 1.374 . S
C3236 H3210 0.950 . S
C3236 C3232 1.385 . S
C3236 C3235 1.374 . S
C3237 C3234 1.499 . S
C3237 C3238 1.373 . S
C3237 C3239 1.389 . S
C3238 H3211 0.950 . S
C3238 C3224 1.377 . S
C3238 C3237 1.373 . S
C3239 C3223 1.377 . S
C3239 C3237 1.389 . S
C3239 C3240 1.524 . S
C3240 C3239 1.524 . S
C3240 C3241 1.397 . S
C3240 C3245 1.363 . S
C3241 H3212 0.950 . S
C3241 C3240 1.397 . S
C3241 C3242 1.334 . S
C3242 H3213 0.950 . S
C3242 C3241 1.334 . S
C3242 C3243 1.287 . S
C3243 C3242 1.287 . S
C3243 C3244 1.524 . S
C3243 H3246 0.999 . S
C3244 H3214 0.950 . S
C3244 C3243 1.524 . S
C3244 C3245 1.415 . S
C3245 H3215 0.950 . S
C3245 C3240 1.363 . S
C3245 C3244 1.415 . S
H3246 C3243 0.999 . S
H3247 C3228 0.913 . S
H3248 C3266 0.951 . S
H3249 C3268 0.951 . S
H3250 C3270 0.950 . S
H3251 C3271 0.950 . S
H3252 C3273 0.950 . S
H3253 C3276 0.950 . S
H3254 C3277 0.950 . S
H3255 C3279 0.950 . S
H3256 C3280 0.950 . S
H3257 C3281 0.951 . S
H3258 C3283 0.951 . S
H3259 C3285 0.950 . S
H3260 C3286 0.950 . S
H3261 C3288 0.950 . S
H3262 C3291 0.950 . S
H3263 C3292 0.950 . S
H3264 C3294 0.950 . S
H3265 C3295 0.950 . S
C3266 H3248 0.951 . S
C3266 C3267 1.366 . S
C3266 C3268 1.388 . S
C3267 C3266 1.366 . S
C3267 C3271 1.385 . S
C3268 H3249 0.951 . S
C3268 C3266 1.388 . S
C3268 C3269 1.366 . S
C3269 C3268 1.366 . S
C3269 C3270 1.414 . S
C3269 C3272 1.499 . S
C3270 H3250 0.950 . S
C3270 C3269 1.414 . S
C3270 C3271 1.374 . S
C3271 H3251 0.950 . S
C3271 C3267 1.385 . S
C3271 C3270 1.374 . S
C3272 C3269 1.499 . S
C3272 C3273 1.373 . S
C3272 C3274 1.389 . S
C3273 H3252 0.950 . S
C3273 C3272 1.373 . S
C3273 C3289 1.377 . S
C3274 C3272 1.389 . S
C3274 C3275 1.524 . S
C3274 C3288 1.377 . S
C3275 C3274 1.524 . S
C3275 C3276 1.397 . S
C3275 C3280 1.363 . S
C3276 H3253 0.950 . S
C3276 C3275 1.397 . S
C3276 C3277 1.334 . S
C3277 H3254 0.950 . S
C3277 C3276 1.334 . S
C3277 C3278 1.287 . S
C3278 C3277 1.287 . S
C3278 C3279 1.524 . S
C3278 H3297 0.913 . S
C3279 H3255 0.950 . S
C3279 C3278 1.524 . S
C3279 C3280 1.415 . S
C3280 H3256 0.950 . S
C3280 C3275 1.363 . S
C3280 C3279 1.415 . S
C3281 H3257 0.951 . S
C3281 C3282 1.366 . S
C3281 C3283 1.388 . S
C3282 C3281 1.366 . S
C3282 C3286 1.385 . S
C3283 H3258 0.951 . S
C3283 C3281 1.388 . S
C3283 C3284 1.366 . S
C3284 C3283 1.366 . S
C3284 C3285 1.414 . S
C3284 C3287 1.499 . S
C3285 H3259 0.950 . S
C3285 C3284 1.414 . S
C3285 C3286 1.374 . S
C3286 H3260 0.950 . S
C3286 C3282 1.385 . S
C3286 C3285 1.374 . S
C3287 C3284 1.499 . S
C3287 C3288 1.373 . S
C3287 C3289 1.389 . S
C3288 H3261 0.950 . S
C3288 C3274 1.377 . S
C3288 C3287 1.373 . S
C3289 C3273 1.377 . S
C3289 C3287 1.389 . S
C3289 C3290 1.524 . S
C3290 C3289 1.524 . S
C3290 C3291 1.397 . S
C3290 C3295 1.363 . S
C3291 H3262 0.950 . S
C3291 C3290 1.397 . S
C3291 C3292 1.334 . S
C3292 H3263 0.950 . S
C3292 C3291 1.334 . S
C3292 C3293 1.287 . S
C3293 C3292 1.287 . S
C3293 C3294 1.524 . S
C3293 H3296 0.999 . S
C3294 H3264 0.950 . S
C3294 C3293 1.524 . S
C3294 C3295 1.415 . S
C3295 H3265 0.950 . S
C3295 C3290 1.363 . S
C3295 C3294 1.415 . S
H3296 C3293 0.999 . S
H3297 C3278 0.913 . S
H3298 C3316 0.951 . S
H3299 C3318 0.951 . S
H3300 C3320 0.950 . S
H3301 C3321 0.950 . S
H3302 C3323 0.950 . S
H3303 C3326 0.950 . S
H3304 C3327 0.950 . S
H3305 C3329 0.950 . S
H3306 C3330 0.950 . S
H3307 C3331 0.951 . S
H3308 C3333 0.951 . S
H3309 C3335 0.950 . S
H3310 C3336 0.950 . S
H3311 C3338 0.950 . S
H3312 C3341 0.950 . S
H3313 C3342 0.950 . S
H3314 C3344 0.950 . S
H3315 C3345 0.950 . S
C3316 H3298 0.951 . S
C3316 C3317 1.366 . S
C3316 C3318 1.388 . S
C3317 C3316 1.366 . S
C3317 C3321 1.385 . S
C3318 H3299 0.951 . S
C3318 C3316 1.388 . S
C3318 C3319 1.366 . S
C3319 C3318 1.366 . S
C3319 C3320 1.414 . S
C3319 C3322 1.499 . S
C3320 H3300 0.950 . S
C3320 C3319 1.414 . S
C3320 C3321 1.374 . S
C3321 H3301 0.950 . S
C3321 C3317 1.385 . S
C3321 C3320 1.374 . S
C3322 C3319 1.499 . S
C3322 C3323 1.373 . S
C3322 C3324 1.389 . S
C3323 H3302 0.950 . S
C3323 C3322 1.373 . S
C3323 C3339 1.377 . S
C3324 C3322 1.389 . S
C3324 C3325 1.524 . S
C3324 C3338 1.377 . S
C3325 C3324 1.524 . S
C3325 C3326 1.397 . S
C3325 C3330 1.363 . S
C3326 H3303 0.950 . S
C3326 C3325 1.397 . S
C3326 C3327 1.334 . S
C3327 H3304 0.950 . S
C3327 C3326 1.334 . S
C3327 C3328 1.287 . S
C3328 C3327 1.287 . S
C3328 C3329 1.524 . S
C3328 H3347 0.913 . S
C3329 H3305 0.950 . S
C3329 C3328 1.524 . S
C3329 C3330 1.415 . S
C3330 H3306 0.950 . S
C3330 C3325 1.363 . S
C3330 C3329 1.415 . S
C3331 H3307 0.951 . S
C3331 C3332 1.366 . S
C3331 C3333 1.388 . S
C3332 C3331 1.366 . S
C3332 C3336 1.385 . S
C3333 H3308 0.951 . S
C3333 C3331 1.388 . S
C3333 C3334 1.366 . S
C3334 C3333 1.366 . S
C3334 C3335 1.414 . S
C3334 C3337 1.499 . S
C3335 H3309 0.950 . S
C3335 C3334 1.414 . S
C3335 C3336 1.374 . S
C3336 H3310 0.950 . S
C3336 C3332 1.385 . S
C3336 C3335 1.374 . S
C3337 C3334 1.499 . S
C3337 C3338 1.373 . S
C3337 C3339 1.389 . S
C3338 H3311 0.950 . S
C3338 C3324 1.377 . S
C3338 C3337 1.373 . S
C3339 C3323 1.377 . S
C3339 C3337 1.389 . S
C3339 C3340 1.524 . S
C3340 C3339 1.524 . S
C3340 C3341 1.397 . S
C3340 C3345 1.363 . S
C3341 H3312 0.950 . S
C3341 C3340 1.397 . S
C3341 C3342 1.334 . S
C3342 H3313 0.950 . S
C3342 C3341 1.334 . S
C3342 C3343 1.287 . S
C3343 C3342 1.287 . S
C3343 C3344 1.524 . S
C3343 H3346 0.999 . S
C3344 H3314 0.950 . S
C3344 C3343 1.524 . S
C3344 C3345 1.415 . S
C3345 H3315 0.950 . S
C3345 C3340 1.363 . S
C3345 C3344 1.415 . S
H3346 C3343 0.999 . S
H3347 C3328 0.913 . S
H3348 C3366 0.951 . S
H3349 C3368 0.951 . S
H3350 C3370 0.950 . S
H3351 C3371 0.950 . S
H3352 C3373 0.950 . S
H3353 C3376 0.950 . S
H3354 C3377 0.950 . S
H3355 C3379 0.950 . S
H3356 C3380 0.950 . S
H3357 C3381 0.951 . S
H3358 C3383 0.951 . S
H3359 C3385 0.950 . S
H3360 C3386 0.950 . S
H3361 C3388 0.950 . S
H3362 C3391 0.950 . S
H3363 C3392 0.950 . S
H3364 C3394 0.950 . S
H3365 C3395 0.950 . S
C3366 H3348 0.951 . S
C3366 C3367 1.366 . S
C3366 C3368 1.388 . S
C3367 C3366 1.366 . S
C3367 C3371 1.385 . S
C3368 H3349 0.951 . S
C3368 C3366 1.388 . S
C3368 C3369 1.366 . S
C3369 C3368 1.366 . S
C3369 C3370 1.414 . S
C3369 C3372 1.499 . S
C3370 H3350 0.950 . S
C3370 C3369 1.414 . S
C3370 C3371 1.374 . S
C3371 H3351 0.950 . S
C3371 C3367 1.385 . S
C3371 C3370 1.374 . S
C3372 C3369 1.499 . S
C3372 C3373 1.373 . S
C3372 C3374 1.389 . S
C3373 H3352 0.950 . S
C3373 C3372 1.373 . S
C3373 C3389 1.377 . S
C3374 C3372 1.389 . S
C3374 C3375 1.524 . S
C3374 C3388 1.377 . S
C3375 C3374 1.524 . S
C3375 C3376 1.397 . S
C3375 C3380 1.363 . S
C3376 H3353 0.950 . S
C3376 C3375 1.397 . S
C3376 C3377 1.334 . S
C3377 H3354 0.950 . S
C3377 C3376 1.334 . S
C3377 C3378 1.287 . S
C3378 C3377 1.287 . S
C3378 C3379 1.524 . S
C3378 H3397 0.913 . S
C3379 H3355 0.950 . S
C3379 C3378 1.524 . S
C3379 C3380 1.415 . S
C3380 H3356 0.950 . S
C3380 C3375 1.363 . S
C3380 C3379 1.415 . S
C3381 H3357 0.951 . S
C3381 C3382 1.366 . S
C3381 C3383 1.388 . S
C3382 C3381 1.366 . S
C3382 C3386 1.385 . S
C3383 H3358 0.951 . S
C3383 C3381 1.388 . S
C3383 C3384 1.366 . S
C3384 C3383 1.366 . S
C3384 C3385 1.414 . S
C3384 C3387 1.499 . S
C3385 H3359 0.950 . S
C3385 C3384 1.414 . S
C3385 C3386 1.374 . S
C3386 H3360 0.950 . S
C3386 C3382 1.385 . S
C3386 C3385 1.374 . S
C3387 C3384 1.499 . S
C3387 C3388 1.373 . S
C3387 C3389 1.389 . S
C3388 H3361 0.950 . S
C3388 C3374 1.377 . S
C3388 C3387 1.373 . S
C3389 C3373 1.377 . S
C3389 C3387 1.389 . S
C3389 C3390 1.524 . S
C3390 C3389 1.524 . S
C3390 C3391 1.397 . S
C3390 C3395 1.363 . S
C3391 H3362 0.950 . S
C3391 C3390 1.397 . S
C3391 C3392 1.334 . S
C3392 H3363 0.950 . S
C3392 C3391 1.334 . S
C3392 C3393 1.287 . S
C3393 C3392 1.287 . S
C3393 C3394 1.524 . S
C3393 H3396 0.999 . S
C3394 H3364 0.950 . S
C3394 C3393 1.524 . S
C3394 C3395 1.415 . S
C3395 H3365 0.950 . S
C3395 C3390 1.363 . S
C3395 C3394 1.415 . S
H3396 C3393 0.999 . S
H3397 C3378 0.913 . S
H3398 C3416 0.951 . S
H3399 C3418 0.951 . S
H3400 C3420 0.950 . S
H3401 C3421 0.950 . S
H3402 C3423 0.950 . S
H3403 C3426 0.950 . S
H3404 C3427 0.950 . S
H3405 C3429 0.950 . S
H3406 C3430 0.950 . S
H3407 C3431 0.951 . S
H3408 C3433 0.951 . S
H3409 C3435 0.950 . S
H3410 C3436 0.950 . S
H3411 C3438 0.950 . S
H3412 C3441 0.950 . S
H3413 C3442 0.950 . S
H3414 C3444 0.950 . S
H3415 C3445 0.950 . S
C3416 H3398 0.951 . S
C3416 C3417 1.366 . S
C3416 C3418 1.388 . S
C3417 C3416 1.366 . S
C3417 C3421 1.385 . S
C3418 H3399 0.951 . S
C3418 C3416 1.388 . S
C3418 C3419 1.366 . S
C3419 C3418 1.366 . S
C3419 C3420 1.414 . S
C3419 C3422 1.499 . S
C3420 H3400 0.950 . S
C3420 C3419 1.414 . S
C3420 C3421 1.374 . S
C3421 H3401 0.950 . S
C3421 C3417 1.385 . S
C3421 C3420 1.374 . S
C3422 C3419 1.499 . S
C3422 C3423 1.373 . S
C3422 C3424 1.389 . S
C3423 H3402 0.950 . S
C3423 C3422 1.373 . S
C3423 C3439 1.377 . S
C3424 C3422 1.389 . S
C3424 C3425 1.524 . S
C3424 C3438 1.377 . S
C3425 C3424 1.524 . S
C3425 C3426 1.397 . S
C3425 C3430 1.363 . S
C3426 H3403 0.950 . S
C3426 C3425 1.397 . S
C3426 C3427 1.334 . S
C3427 H3404 0.950 . S
C3427 C3426 1.334 . S
C3427 C3428 1.287 . S
C3428 C3427 1.287 . S
C3428 C3429 1.524 . S
C3428 H3447 0.913 . S
C3429 H3405 0.950 . S
C3429 C3428 1.524 . S
C3429 C3430 1.415 . S
C3430 H3406 0.950 . S
C3430 C3425 1.363 . S
C3430 C3429 1.415 . S
C3431 H3407 0.951 . S
C3431 C3432 1.366 . S
C3431 C3433 1.388 . S
C3432 C3431 1.366 . S
C3432 C3436 1.385 . S
C3433 H3408 0.951 . S
C3433 C3431 1.388 . S
C3433 C3434 1.366 . S
C3434 C3433 1.366 . S
C3434 C3435 1.414 . S
C3434 C3437 1.499 . S
C3435 H3409 0.950 . S
C3435 C3434 1.414 . S
C3435 C3436 1.374 . S
C3436 H3410 0.950 . S
C3436 C3432 1.385 . S
C3436 C3435 1.374 . S
C3437 C3434 1.499 . S
C3437 C3438 1.373 . S
C3437 C3439 1.389 . S
C3438 H3411 0.950 . S
C3438 C3424 1.377 . S
C3438 C3437 1.373 . S
C3439 C3423 1.377 . S
C3439 C3437 1.389 . S
C3439 C3440 1.524 . S
C3440 C3439 1.524 . S
C3440 C3441 1.397 . S
C3440 C3445 1.363 . S
C3441 H3412 0.950 . S
C3441 C3440 1.397 . S
C3441 C3442 1.334 . S
C3442 H3413 0.950 . S
C3442 C3441 1.334 . S
C3442 C3443 1.287 . S
C3443 C3442 1.287 . S
C3443 C3444 1.524 . S
C3443 H3446 0.999 . S
C3444 H3414 0.950 . S
C3444 C3443 1.524 . S
C3444 C3445 1.415 . S
C3445 H3415 0.950 . S
C3445 C3440 1.363 . S
C3445 C3444 1.415 . S
H3446 C3443 0.999 . S
H3447 C3428 0.913 . S
H3448 C3466 0.951 . S
H3449 C3468 0.951 . S
H3450 C3470 0.950 . S
H3451 C3471 0.950 . S
H3452 C3473 0.950 . S
H3453 C3476 0.950 . S
H3454 C3477 0.950 . S
H3455 C3479 0.950 . S
H3456 C3480 0.950 . S
H3457 C3481 0.951 . S
H3458 C3483 0.951 . S
H3459 C3485 0.950 . S
H3460 C3486 0.950 . S
H3461 C3488 0.950 . S
H3462 C3491 0.950 . S
H3463 C3492 0.950 . S
H3464 C3494 0.950 . S
H3465 C3495 0.950 . S
C3466 H3448 0.951 . S
C3466 C3467 1.366 . S
C3466 C3468 1.388 . S
C3467 C3466 1.366 . S
C3467 C3471 1.385 . S
C3468 H3449 0.951 . S
C3468 C3466 1.388 . S
C3468 C3469 1.366 . S
C3469 C3468 1.366 . S
C3469 C3470 1.414 . S
C3469 C3472 1.499 . S
C3470 H3450 0.950 . S
C3470 C3469 1.414 . S
C3470 C3471 1.374 . S
C3471 H3451 0.950 . S
C3471 C3467 1.385 . S
C3471 C3470 1.374 . S
C3472 C3469 1.499 . S
C3472 C3473 1.373 . S
C3472 C3474 1.389 . S
C3473 H3452 0.950 . S
C3473 C3472 1.373 . S
C3473 C3489 1.377 . S
C3474 C3472 1.389 . S
C3474 C3475 1.524 . S
C3474 C3488 1.377 . S
C3475 C3474 1.524 . S
C3475 C3476 1.397 . S
C3475 C3480 1.363 . S
C3476 H3453 0.950 . S
C3476 C3475 1.397 . S
C3476 C3477 1.334 . S
C3477 H3454 0.950 . S
C3477 C3476 1.334 . S
C3477 C3478 1.287 . S
C3478 C3477 1.287 . S
C3478 C3479 1.524 . S
C3478 H3497 0.913 . S
C3479 H3455 0.950 . S
C3479 C3478 1.524 . S
C3479 C3480 1.415 . S
C3480 H3456 0.950 . S
C3480 C3475 1.363 . S
C3480 C3479 1.415 . S
C3481 H3457 0.951 . S
C3481 C3482 1.366 . S
C3481 C3483 1.388 . S
C3482 C3481 1.366 . S
C3482 C3486 1.385 . S
C3483 H3458 0.951 . S
C3483 C3481 1.388 . S
C3483 C3484 1.366 . S
C3484 C3483 1.366 . S
C3484 C3485 1.414 . S
C3484 C3487 1.499 . S
C3485 H3459 0.950 . S
C3485 C3484 1.414 . S
C3485 C3486 1.374 . S
C3486 H3460 0.950 . S
C3486 C3482 1.385 . S
C3486 C3485 1.374 . S
C3487 C3484 1.499 . S
C3487 C3488 1.373 . S
C3487 C3489 1.389 . S
C3488 H3461 0.950 . S
C3488 C3474 1.377 . S
C3488 C3487 1.373 . S
C3489 C3473 1.377 . S
C3489 C3487 1.389 . S
C3489 C3490 1.524 . S
C3490 C3489 1.524 . S
C3490 C3491 1.397 . S
C3490 C3495 1.363 . S
C3491 H3462 0.950 . S
C3491 C3490 1.397 . S
C3491 C3492 1.334 . S
C3492 H3463 0.950 . S
C3492 C3491 1.334 . S
C3492 C3493 1.287 . S
C3493 C3492 1.287 . S
C3493 C3494 1.524 . S
C3493 H3496 0.999 . S
C3494 H3464 0.950 . S
C3494 C3493 1.524 . S
C3494 C3495 1.415 . S
C3495 H3465 0.950 . S
C3495 C3490 1.363 . S
C3495 C3494 1.415 . S
H3496 C3493 0.999 . S
H3497 C3478 0.913 . S
H3498 C3516 0.951 . S
H3499 C3518 0.951 . S
H3500 C3520 0.950 . S
H3501 C3521 0.950 . S
H3502 C3523 0.950 . S
H3503 C3526 0.950 . S
H3504 C3527 0.950 . S
H3505 C3529 0.950 . S
H3506 C3530 0.950 . S
H3507 C3531 0.951 . S
H3508 C3533 0.951 . S
H3509 C3535 0.950 . S
H3510 C3536 0.950 . S
H3511 C3538 0.950 . S
H3512 C3541 0.950 . S
H3513 C3542 0.950 . S
H3514 C3544 0.950 . S
H3515 C3545 0.950 . S
C3516 H3498 0.951 . S
C3516 C3517 1.366 . S
C3516 C3518 1.388 . S
C3517 C3516 1.366 . S
C3517 C3521 1.385 . S
C3518 H3499 0.951 . S
C3518 C3516 1.388 . S
C3518 C3519 1.366 . S
C3519 C3518 1.366 . S
C3519 C3520 1.414 . S
C3519 C3522 1.499 . S
C3520 H3500 0.950 . S
C3520 C3519 1.414 . S
C3520 C3521 1.374 . S
C3521 H3501 0.950 . S
C3521 C3517 1.385 . S
C3521 C3520 1.374 . S
C3522 C3519 1.499 . S
C3522 C3523 1.373 . S
C3522 C3524 1.389 . S
C3523 H3502 0.950 . S
C3523 C3522 1.373 . S
C3523 C3539 1.377 . S
C3524 C3522 1.389 . S
C3524 C3525 1.524 . S
C3524 C3538 1.377 . S
C3525 C3524 1.524 . S
C3525 C3526 1.397 . S
C3525 C3530 1.363 . S
C3526 H3503 0.950 . S
C3526 C3525 1.397 . S
C3526 C3527 1.334 . S
C3527 H3504 0.950 . S
C3527 C3526 1.334 . S
C3527 C3528 1.287 . S
C3528 C3527 1.287 . S
C3528 C3529 1.524 . S
C3528 H3547 0.913 . S
C3529 H3505 0.950 . S
C3529 C3528 1.524 . S
C3529 C3530 1.415 . S
C3530 H3506 0.950 . S
C3530 C3525 1.363 . S
C3530 C3529 1.415 . S
C3531 H3507 0.951 . S
C3531 C3532 1.366 . S
C3531 C3533 1.388 . S
C3532 C3531 1.366 . S
C3532 C3536 1.385 . S
C3533 H3508 0.951 . S
C3533 C3531 1.388 . S
C3533 C3534 1.366 . S
C3534 C3533 1.366 . S
C3534 C3535 1.414 . S
C3534 C3537 1.499 . S
C3535 H3509 0.950 . S
C3535 C3534 1.414 . S
C3535 C3536 1.374 . S
C3536 H3510 0.950 . S
C3536 C3532 1.385 . S
C3536 C3535 1.374 . S
C3537 C3534 1.499 . S
C3537 C3538 1.373 . S
C3537 C3539 1.389 . S
C3538 H3511 0.950 . S
C3538 C3524 1.377 . S
C3538 C3537 1.373 . S
C3539 C3523 1.377 . S
C3539 C3537 1.389 . S
C3539 C3540 1.524 . S
C3540 C3539 1.524 . S
C3540 C3541 1.397 . S
C3540 C3545 1.363 . S
C3541 H3512 0.950 . S
C3541 C3540 1.397 . S
C3541 C3542 1.334 . S
C3542 H3513 0.950 . S
C3542 C3541 1.334 . S
C3542 C3543 1.287 . S
C3543 C3542 1.287 . S
C3543 C3544 1.524 . S
C3543 H3546 0.999 . S
C3544 H3514 0.950 . S
C3544 C3543 1.524 . S
C3544 C3545 1.415 . S
C3545 H3515 0.950 . S
C3545 C3540 1.363 . S
C3545 C3544 1.415 . S
H3546 C3543 0.999 . S
H3547 C3528 0.913 . S
H3548 C3566 0.951 . S
H3549 C3568 0.951 . S
H3550 C3570 0.950 . S
H3551 C3571 0.950 . S
H3552 C3573 0.950 . S
H3553 C3576 0.950 . S
H3554 C3577 0.950 . S
H3555 C3579 0.950 . S
H3556 C3580 0.950 . S
H3557 C3581 0.951 . S
H3558 C3583 0.951 . S
H3559 C3585 0.950 . S
H3560 C3586 0.950 . S
H3561 C3588 0.950 . S
H3562 C3591 0.950 . S
H3563 C3592 0.950 . S
H3564 C3594 0.950 . S
H3565 C3595 0.950 . S
C3566 H3548 0.951 . S
C3566 C3567 1.366 . S
C3566 C3568 1.388 . S
C3567 C3566 1.366 . S
C3567 C3571 1.385 . S
C3568 H3549 0.951 . S
C3568 C3566 1.388 . S
C3568 C3569 1.366 . S
C3569 C3568 1.366 . S
C3569 C3570 1.414 . S
C3569 C3572 1.499 . S
C3570 H3550 0.950 . S
C3570 C3569 1.414 . S
C3570 C3571 1.374 . S
C3571 H3551 0.950 . S
C3571 C3567 1.385 . S
C3571 C3570 1.374 . S
C3572 C3569 1.499 . S
C3572 C3573 1.373 . S
C3572 C3574 1.389 . S
C3573 H3552 0.950 . S
C3573 C3572 1.373 . S
C3573 C3589 1.377 . S
C3574 C3572 1.389 . S
C3574 C3575 1.524 . S
C3574 C3588 1.377 . S
C3575 C3574 1.524 . S
C3575 C3576 1.397 . S
C3575 C3580 1.363 . S
C3576 H3553 0.950 . S
C3576 C3575 1.397 . S
C3576 C3577 1.334 . S
C3577 H3554 0.950 . S
C3577 C3576 1.334 . S
C3577 C3578 1.287 . S
C3578 C3577 1.287 . S
C3578 C3579 1.524 . S
C3578 H3597 0.913 . S
C3579 H3555 0.950 . S
C3579 C3578 1.524 . S
C3579 C3580 1.415 . S
C3580 H3556 0.950 . S
C3580 C3575 1.363 . S
C3580 C3579 1.415 . S
C3581 H3557 0.951 . S
C3581 C3582 1.366 . S
C3581 C3583 1.388 . S
C3582 C3581 1.366 . S
C3582 C3586 1.385 . S
C3583 H3558 0.951 . S
C3583 C3581 1.388 . S
C3583 C3584 1.366 . S
C3584 C3583 1.366 . S
C3584 C3585 1.414 . S
C3584 C3587 1.499 . S
C3585 H3559 0.950 . S
C3585 C3584 1.414 . S
C3585 C3586 1.374 . S
C3586 H3560 0.950 . S
C3586 C3582 1.385 . S
C3586 C3585 1.374 . S
C3587 C3584 1.499 . S
C3587 C3588 1.373 . S
C3587 C3589 1.389 . S
C3588 H3561 0.950 . S
C3588 C3574 1.377 . S
C3588 C3587 1.373 . S
C3589 C3573 1.377 . S
C3589 C3587 1.389 . S
C3589 C3590 1.524 . S
C3590 C3589 1.524 . S
C3590 C3591 1.397 . S
C3590 C3595 1.363 . S
C3591 H3562 0.950 . S
C3591 C3590 1.397 . S
C3591 C3592 1.334 . S
C3592 H3563 0.950 . S
C3592 C3591 1.334 . S
C3592 C3593 1.287 . S
C3593 C3592 1.287 . S
C3593 C3594 1.524 . S
C3593 H3596 0.999 . S
C3594 H3564 0.950 . S
C3594 C3593 1.524 . S
C3594 C3595 1.415 . S
C3595 H3565 0.950 . S
C3595 C3590 1.363 . S
C3595 C3594 1.415 . S
H3596 C3593 0.999 . S
H3597 C3578 0.913 . S
H3598 C3616 0.951 . S
H3599 C3618 0.951 . S
H3600 C3620 0.950 . S
H3601 C3621 0.950 . S
H3602 C3623 0.950 . S
H3603 C3626 0.950 . S
H3604 C3627 0.950 . S
H3605 C3629 0.950 . S
H3606 C3630 0.950 . S
H3607 C3631 0.951 . S
H3608 C3633 0.951 . S
H3609 C3635 0.950 . S
H3610 C3636 0.950 . S
H3611 C3638 0.950 . S
H3612 C3641 0.950 . S
H3613 C3642 0.950 . S
H3614 C3644 0.950 . S
H3615 C3645 0.950 . S
C3616 H3598 0.951 . S
C3616 C3617 1.366 . S
C3616 C3618 1.388 . S
C3617 C3616 1.366 . S
C3617 C3621 1.385 . S
C3618 H3599 0.951 . S
C3618 C3616 1.388 . S
C3618 C3619 1.366 . S
C3619 C3618 1.366 . S
C3619 C3620 1.414 . S
C3619 C3622 1.499 . S
C3620 H3600 0.950 . S
C3620 C3619 1.414 . S
C3620 C3621 1.374 . S
C3621 H3601 0.950 . S
C3621 C3617 1.385 . S
C3621 C3620 1.374 . S
C3622 C3619 1.499 . S
C3622 C3623 1.373 . S
C3622 C3624 1.389 . S
C3623 H3602 0.950 . S
C3623 C3622 1.373 . S
C3623 C3639 1.377 . S
C3624 C3622 1.389 . S
C3624 C3625 1.524 . S
C3624 C3638 1.377 . S
C3625 C3624 1.524 . S
C3625 C3626 1.397 . S
C3625 C3630 1.363 . S
C3626 H3603 0.950 . S
C3626 C3625 1.397 . S
C3626 C3627 1.334 . S
C3627 H3604 0.950 . S
C3627 C3626 1.334 . S
C3627 C3628 1.287 . S
C3628 C3627 1.287 . S
C3628 C3629 1.524 . S
C3628 H3647 0.913 . S
C3629 H3605 0.950 . S
C3629 C3628 1.524 . S
C3629 C3630 1.415 . S
C3630 H3606 0.950 . S
C3630 C3625 1.363 . S
C3630 C3629 1.415 . S
C3631 H3607 0.951 . S
C3631 C3632 1.366 . S
C3631 C3633 1.388 . S
C3632 C3631 1.366 . S
C3632 C3636 1.385 . S
C3633 H3608 0.951 . S
C3633 C3631 1.388 . S
C3633 C3634 1.366 . S
C3634 C3633 1.366 . S
C3634 C3635 1.414 . S
C3634 C3637 1.499 . S
C3635 H3609 0.950 . S
C3635 C3634 1.414 . S
C3635 C3636 1.374 . S
C3636 H3610 0.950 . S
C3636 C3632 1.385 . S
C3636 C3635 1.374 . S
C3637 C3634 1.499 . S
C3637 C3638 1.373 . S
C3637 C3639 1.389 . S
C3638 H3611 0.950 . S
C3638 C3624 1.377 . S
C3638 C3637 1.373 . S
C3639 C3623 1.377 . S
C3639 C3637 1.389 . S
C3639 C3640 1.524 . S
C3640 C3639 1.524 . S
C3640 C3641 1.397 . S
C3640 C3645 1.363 . S
C3641 H3612 0.950 . S
C3641 C3640 1.397 . S
C3641 C3642 1.334 . S
C3642 H3613 0.950 . S
C3642 C3641 1.334 . S
C3642 C3643 1.287 . S
C3643 C3642 1.287 . S
C3643 C3644 1.524 . S
C3643 H3646 0.999 . S
C3644 H3614 0.950 . S
C3644 C3643 1.524 . S
C3644 C3645 1.415 . S
C3645 H3615 0.950 . S
C3645 C3640 1.363 . S
C3645 C3644 1.415 . S
H3646 C3643 0.999 . S
H3647 C3628 0.913 . S
C467 C415 1.586 . S
C482 C9 1.586 . S
C517 C23 1.586 . S
C532 C429 1.586 . S
C567 C443 1.586 . S
C582 C37 1.586 . S
C617 C401 1.586 . S
C632 C51 1.585 . S
C667 C65 1.585 . S
C682 C387 1.586 . S
C717 C345 1.586 . S
C732 C79 1.585 . S
C767 C93 1.586 . S
C782 C359 1.585 . S
C817 C373 1.586 . S
C832 C107 1.586 . S
C867 C121 1.586 . S
C882 C303 1.585 . S
C917 C135 1.586 . S
C932 C317 1.585 . S
C967 C331 1.585 . S
C982 C149 1.586 . S
C1017 C163 1.585 . S
C1032 C289 1.586 . S
C1067 C275 1.585 . S
C1082 C177 1.586 . S
C1117 C233 1.586 . S
C1132 C191 1.585 . S
C1167 C205 1.586 . S
C1182 C247 1.586 . S
C1217 C219 1.585 . S
C1232 C261 1.586 . S
C1267 C3 1.360 . S
C1282 C143 1.360 . S
C1317 C157 1.360 . S
C1332 C17 1.360 . S
C1367 C115 1.360 . S
C1382 C31 1.360 . S
C1417 C129 1.360 . S
C1432 C45 1.360 . S
C1467 C59 1.360 . S
C1482 C199 1.360 . S
C1517 C213 1.360 . S
C1532 C73 1.360 . S
C1567 C171 1.360 . S
C1582 C87 1.360 . S
C1617 C185 1.360 . S
C1632 C101 1.360 . S
C1667 C227 1.360 . S
C1682 C367 1.360 . S
C1717 C381 1.360 . S
C1732 C241 1.360 . S
C1767 C339 1.360 . S
C1782 C255 1.360 . S
C1817 C269 1.360 . S
C1832 C353 1.360 . S
C1867 C283 1.360 . S
C1882 C423 1.360 . S
C1917 C437 1.360 . S
C1932 C297 1.360 . S
C1967 C395 1.360 . S
C1982 C311 1.360 . S
C2017 C325 1.360 . S
C2032 C409 1.360 . S
C2067 C8 1.510 . S
C2082 C64 1.510 . S
C2117 C22 1.510 . S
C2132 C78 1.509 . S
C2167 C92 1.509 . S
C2182 C36 1.509 . S
C2217 C50 1.509 . S
C2232 C106 1.510 . S
C2267 C120 1.510 . S
C2282 C176 1.509 . S
C2317 C190 1.509 . S
C2332 C134 1.510 . S
C2367 C204 1.509 . S
C2382 C148 1.510 . S
C2417 C162 1.510 . S
C2432 C218 1.509 . S
C2467 C232 1.510 . S
C2482 C288 1.509 . S
C2517 C302 1.510 . S
C2532 C246 1.509 . S
C2567 C260 1.509 . S
C2582 C316 1.509 . S
C2617 C330 1.509 . S
C2632 C274 1.510 . S
C2667 C400 1.510 . S
C2682 C344 1.509 . S
C2717 C358 1.509 . S
C2732 C414 1.510 . S
C2767 C372 1.510 . S
C2782 C428 1.509 . S
C2817 C386 1.509 . S
C2832 C442 1.509 . S
C2867 C7 1.298 . S
C2882 C77 1.298 . S
C2917 C21 1.298 . S
C2932 C91 1.297 . S
C2967 C105 1.298 . S
C2982 C35 1.298 . S
C3017 C63 1.298 . S
C3032 C49 1.297 . S
C3067 C189 1.297 . S
C3082 C119 1.298 . S
C3117 C203 1.298 . S
C3132 C133 1.297 . S
C3167 C217 1.297 . S
C3182 C147 1.298 . S
C3217 C161 1.297 . S
C3232 C175 1.298 . S
C3267 C231 1.298 . S
C3282 C301 1.298 . S
C3317 C315 1.298 . S
C3332 C245 1.298 . S
C3367 C329 1.298 . S
C3382 C259 1.298 . S
C3417 C273 1.297 . S
C3432 C287 1.298 . S
C3467 C413 1.298 . S
C3482 C343 1.298 . S
C3517 C357 1.298 . S
C3532 C427 1.298 . S
C3567 C371 1.297 . S
C3582 C441 1.298 . S
C3617 C399 1.298 . S
C3632 C385 1.298 . S
