# Generated by pormake.
# Topology wmi, (6)-cn, num edge types: 1
# Building blocks:
#     Node 0, Type 0, BuildingBlock: PAMTOO_clean_sbu_0, # of connection points: 6
#     Node 1, Type 0, BuildingBlock: PAMTOO_clean_sbu_0, # of connection points: 6
#     Node 2, Type 0, BuildingBlock: PAMTOO_clean_sbu_0, # of connection points: 6
#     Node 3, Type 0, BuildingBlock: PAMTOO_clean_sbu_0, # of connection points: 6
#     Node 4, Type 0, BuildingBlock: PAMTOO_clean_sbu_0, # of connection points: 6
#     Node 5, Type 0, BuildingBlock: PAMTOO_clean_sbu_0, # of connection points: 6
#     Node 6, Type 0, BuildingBlock: PAMTOO_clean_sbu_0, # of connection points: 6
#     Node 7, Type 0, BuildingBlock: PAMTOO_clean_sbu_0, # of connection points: 6
#     Node 8, Type 0, BuildingBlock: PAMTOO_clean_sbu_0, # of connection points: 6
#     Node 9, Type 0, BuildingBlock: PAMTOO_clean_sbu_0, # of connection points: 6
#     Node 10, Type 0, BuildingBlock: PAMTOO_clean_sbu_0, # of connection points: 6
#     Node 11, Type 0, BuildingBlock: PAMTOO_clean_sbu_0, # of connection points: 6
#     Node 12, Type 0, BuildingBlock: PAMTOO_clean_sbu_0, # of connection points: 6
#     Node 13, Type 0, BuildingBlock: PAMTOO_clean_sbu_0, # of connection points: 6
#     Node 14, Type 0, BuildingBlock: PAMTOO_clean_sbu_0, # of connection points: 6
#     Node 15, Type 0, BuildingBlock: PAMTOO_clean_sbu_0, # of connection points: 6
#     Node 16, Type 0, BuildingBlock: PAMTOO_clean_sbu_0, # of connection points: 6
#     Node 17, Type 0, BuildingBlock: PAMTOO_clean_sbu_0, # of connection points: 6
#     Edge 18, Type (0, 0), BuildingBlock: OJICUG_clean_linker_0, # of connection points: 2
#     Edge 19, Type (0, 0), BuildingBlock: OJICUG_clean_linker_0, # of connection points: 2
#     Edge 20, Type (0, 0), BuildingBlock: OJICUG_clean_linker_0, # of connection points: 2
#     Edge 21, Type (0, 0), BuildingBlock: OJICUG_clean_linker_0, # of connection points: 2
#     Edge 22, Type (0, 0), BuildingBlock: OJICUG_clean_linker_0, # of connection points: 2
#     Edge 23, Type (0, 0), BuildingBlock: OJICUG_clean_linker_0, # of connection points: 2
#     Edge 24, Type (0, 0), BuildingBlock: OJICUG_clean_linker_0, # of connection points: 2
#     Edge 25, Type (0, 0), BuildingBlock: OJICUG_clean_linker_0, # of connection points: 2
#     Edge 26, Type (0, 0), BuildingBlock: OJICUG_clean_linker_0, # of connection points: 2
#     Edge 27, Type (0, 0), BuildingBlock: OJICUG_clean_linker_0, # of connection points: 2
#     Edge 28, Type (0, 0), BuildingBlock: OJICUG_clean_linker_0, # of connection points: 2
#     Edge 29, Type (0, 0), BuildingBlock: OJICUG_clean_linker_0, # of connection points: 2
#     Edge 30, Type (0, 0), BuildingBlock: OJICUG_clean_linker_0, # of connection points: 2
#     Edge 31, Type (0, 0), BuildingBlock: OJICUG_clean_linker_0, # of connection points: 2
#     Edge 32, Type (0, 0), BuildingBlock: OJICUG_clean_linker_0, # of connection points: 2
#     Edge 33, Type (0, 0), BuildingBlock: OJICUG_clean_linker_0, # of connection points: 2
#     Edge 34, Type (0, 0), BuildingBlock: OJICUG_clean_linker_0, # of connection points: 2
#     Edge 35, Type (0, 0), BuildingBlock: OJICUG_clean_linker_0, # of connection points: 2
#     Edge 36, Type (0, 0), BuildingBlock: OJICUG_clean_linker_0, # of connection points: 2
#     Edge 37, Type (0, 0), BuildingBlock: OJICUG_clean_linker_0, # of connection points: 2
#     Edge 38, Type (0, 0), BuildingBlock: OJICUG_clean_linker_0, # of connection points: 2
#     Edge 39, Type (0, 0), BuildingBlock: OJICUG_clean_linker_0, # of connection points: 2
#     Edge 40, Type (0, 0), BuildingBlock: OJICUG_clean_linker_0, # of connection points: 2
#     Edge 41, Type (0, 0), BuildingBlock: OJICUG_clean_linker_0, # of connection points: 2
#     Edge 42, Type (0, 0), BuildingBlock: OJICUG_clean_linker_0, # of connection points: 2
#     Edge 43, Type (0, 0), BuildingBlock: OJICUG_clean_linker_0, # of connection points: 2
#     Edge 44, Type (0, 0), BuildingBlock: OJICUG_clean_linker_0, # of connection points: 2
#     Edge 45, Type (0, 0), BuildingBlock: OJICUG_clean_linker_0, # of connection points: 2
#     Edge 46, Type (0, 0), BuildingBlock: OJICUG_clean_linker_0, # of connection points: 2
#     Edge 47, Type (0, 0), BuildingBlock: OJICUG_clean_linker_0, # of connection points: 2
#     Edge 48, Type (0, 0), BuildingBlock: OJICUG_clean_linker_0, # of connection points: 2
#     Edge 49, Type (0, 0), BuildingBlock: OJICUG_clean_linker_0, # of connection points: 2
#     Edge 50, Type (0, 0), BuildingBlock: OJICUG_clean_linker_0, # of connection points: 2
#     Edge 51, Type (0, 0), BuildingBlock: OJICUG_clean_linker_0, # of connection points: 2
#     Edge 52, Type (0, 0), BuildingBlock: OJICUG_clean_linker_0, # of connection points: 2
#     Edge 53, Type (0, 0), BuildingBlock: OJICUG_clean_linker_0, # of connection points: 2
#     Edge 54, Type (0, 0), BuildingBlock: OJICUG_clean_linker_0, # of connection points: 2
#     Edge 55, Type (0, 0), BuildingBlock: OJICUG_clean_linker_0, # of connection points: 2
#     Edge 56, Type (0, 0), BuildingBlock: OJICUG_clean_linker_0, # of connection points: 2
#     Edge 57, Type (0, 0), BuildingBlock: OJICUG_clean_linker_0, # of connection points: 2
#     Edge 58, Type (0, 0), BuildingBlock: OJICUG_clean_linker_0, # of connection points: 2
#     Edge 59, Type (0, 0), BuildingBlock: OJICUG_clean_linker_0, # of connection points: 2
#     Edge 60, Type (0, 0), BuildingBlock: OJICUG_clean_linker_0, # of connection points: 2
#     Edge 61, Type (0, 0), BuildingBlock: OJICUG_clean_linker_0, # of connection points: 2
#     Edge 62, Type (0, 0), BuildingBlock: OJICUG_clean_linker_0, # of connection points: 2
#     Edge 63, Type (0, 0), BuildingBlock: OJICUG_clean_linker_0, # of connection points: 2
#     Edge 64, Type (0, 0), BuildingBlock: OJICUG_clean_linker_0, # of connection points: 2
#     Edge 65, Type (0, 0), BuildingBlock: OJICUG_clean_linker_0, # of connection points: 2
#     Edge 66, Type (0, 0), BuildingBlock: OJICUG_clean_linker_0, # of connection points: 2
#     Edge 67, Type (0, 0), BuildingBlock: OJICUG_clean_linker_0, # of connection points: 2
#     Edge 68, Type (0, 0), BuildingBlock: OJICUG_clean_linker_0, # of connection points: 2
#     Edge 69, Type (0, 0), BuildingBlock: OJICUG_clean_linker_0, # of connection points: 2
#     Edge 70, Type (0, 0), BuildingBlock: OJICUG_clean_linker_0, # of connection points: 2
#     Edge 71, Type (0, 0), BuildingBlock: OJICUG_clean_linker_0, # of connection points: 2
# Relax obj value: 0.090
# Max RMSD: 0.228
# Mean RMSD: 0.228
data_MOF--net-wmi--node1-PAMTOO_clean_sbu_0--edge1-OJICUG_clean_linker_0
_symmetry_space_group_name_H-M    P1
_symmetry_Int_Tables_number       1
_symmetry_cell_setting            triclinic
loop_
_symmetry_equiv_pos_as_xyz
'x, y, z'
_cell_length_a     31.834474
_cell_length_b     31.77245
_cell_length_c     57.114498
_cell_angle_alpha  89.965173
_cell_angle_beta   89.942417
_cell_angle_gamma 120.27625
loop_
_atom_site_label
_atom_site_type_symbol
_atom_site_fract_x
_atom_site_fract_y
_atom_site_fract_z
_atom_type_partial_charge
Dy0 Dy 0.46983 1.00181 0.08376 0.0
Dy1 Dy 0.56459 0.0782 0.11469 0.0
C2 C 0.45945 1.00607 0.13982 0.0
O3 O 0.48544 0.0794 0.07817 0.0
O4 O 0.50913 0.10052 0.11571 0.0
O5 O 0.39501 0.97333 0.07347 0.0
O6 O 0.43891 0.94877 0.05588 0.0
O7 O 0.57934 0.09415 0.07585 0.0
O8 O 0.53556 1.01567 0.06451 0.0
O9 O 0.5727 1.01337 0.1088 0.0
O10 O 0.49251 0.95527 0.10336 0.0
O11 O 0.6297 0.10047 0.13547 0.0
O12 O 0.6112 0.15389 0.12368 0.0
C13 C 0.49252 0.10798 0.09626 0.0
O14 O 0.43923 0.99126 0.11925 0.0
O15 O 0.50689 0.03664 0.1426 0.0
C16 C 0.35889 0.88982 0.06533 0.0
C17 C 0.2925 0.7916 0.07632 0.0
C18 C 0.32366 0.82355 0.09357 0.0
C19 C 0.3567 0.8721 0.08809 0.0
C20 C 0.3279 0.85826 0.04803 0.0
C21 C 0.29495 0.80943 0.05346 0.0
C22 C 0.39509 0.9406 0.05973 0.0
C23 C 0.57003 0.05992 0.06034 0.0
C24 C 0.538 0.9675 0.10749 0.0
C25 C 0.69532 0.18194 0.12728 0.0
C26 C 0.79225 0.25245 0.11455 0.0
C27 C 0.75984 0.26665 0.1232 0.0
C28 C 0.71225 0.23197 0.1295 0.0
C29 C 0.7277 0.16729 0.11901 0.0
C30 C 0.77578 0.20224 0.11281 0.0
C31 C 0.64388 0.14678 0.13369 0.0
H32 H 0.32313 0.81079 0.11122 0.0
H33 H 0.38094 0.89579 0.10159 0.0
H34 H 0.32938 0.87128 0.03034 0.0
H35 H 0.2711 0.78573 0.03985 0.0
H36 H 0.77136 0.30486 0.12526 0.0
H37 H 0.68838 0.2444 0.13604 0.0
H38 H 0.71584 0.12897 0.11714 0.0
H39 H 0.7997 0.18999 0.10618 0.0
Dy40 Dy 0.1021 0.47503 0.08761 0.0
Dy41 Dy 0.04085 0.52349 0.11072 0.0
C42 C 0.10168 0.48678 0.14017 0.0
O43 O 1.02724 0.41354 0.09831 0.0
O44 O 0.98759 0.45571 0.09245 0.0
O45 O 0.12785 0.42427 0.09183 0.0
O46 O 0.14872 0.47088 0.06118 0.0
O47 O 0.05344 0.54526 0.07259 0.0
O48 O 0.06056 0.48147 0.05829 0.0
O49 O 0.11891 0.58121 0.11377 0.0
O50 O 0.14764 0.55606 0.08311 0.0
O51 O 1.02991 0.5845 0.11715 0.0
O52 O 0.97998 0.51377 0.13182 0.0
C53 C 0.98643 0.41422 0.09534 0.0
O54 O 0.13126 0.50405 0.12252 0.0
O55 O 0.05858 0.48301 0.1384 0.0
C56 C 0.20979 0.45995 0.07876 0.0
C57 C 0.31063 0.50041 0.08735 0.0
C58 C 0.27766 0.48863 0.10602 0.0
C59 C 0.22793 0.46871 0.10178 0.0
C60 C 0.24248 0.47119 0.06009 0.0
C61 C 0.29235 0.49121 0.06432 0.0
C62 C 0.1577 0.44237 0.07406 0.0
C63 C 0.05688 0.52035 0.05499 0.0
C64 C 0.15124 0.59049 0.09723 0.0
C65 C 0.94737 0.5648 0.12121 0.0
C66 C 0.86855 0.57967 0.11015 0.0
C67 C 0.86081 0.53245 0.11417 0.0
C68 C 0.8996 0.52511 0.1196 0.0
C69 C 0.95523 0.61195 0.11724 0.0
C70 C 0.91645 0.61931 0.11172 0.0
C71 C 0.98878 0.55805 0.12809 0.0
H72 H 0.29036 0.49568 0.12395 0.0
H73 H 0.20381 0.46081 0.11656 0.0
H74 H 0.2295 0.46498 0.04219 0.0
H75 H 0.31654 0.49914 0.04953 0.0
H76 H 0.82449 0.50098 0.11362 0.0
H77 H 0.89195 0.48829 0.12277 0.0
H78 H 0.99153 0.64335 0.11854 0.0
H79 H 0.92414 0.65613 0.10854 0.0
Dy80 Dy 0.63078 0.64647 0.09079 0.0
Dy81 Dy 0.58766 0.53468 0.11073 0.0
C82 C 0.62225 0.62854 0.14348 0.0
O83 O 0.69457 0.63652 0.10013 0.0
O84 O 0.65679 0.55504 0.09227 0.0
O85 O 0.6781 0.72379 0.09625 0.0
O86 O 0.63312 0.69764 0.06518 0.0
O87 O 0.56398 0.52976 0.07304 0.0
O88 O 0.62849 0.60199 0.0607 0.0
O89 O 0.52943 0.5525 0.11754 0.0
O90 O 0.54909 0.60796 0.08785 0.0
O91 O 0.5996 0.48105 0.1285 0.0
O92 O 0.52788 0.46142 0.11595 0.0
C93 C 0.69671 0.59678 0.09584 0.0
O94 O 0.60593 0.64424 0.12684 0.0
O95 O 0.62644 0.58968 0.14014 0.0
C96 C 0.64105 0.76761 0.08346 0.0
C97 C 0.60451 0.82991 0.09437 0.0
C98 C 0.57709 0.77982 0.09948 0.0
C99 C 0.59528 0.749 0.09415 0.0
C100 C 0.66844 0.81738 0.07822 0.0
C101 C 0.65036 0.84827 0.08362 0.0
C102 C 0.6605 0.73528 0.07831 0.0
C103 C 0.58942 0.56024 0.05614 0.0
C104 C 0.51685 0.57516 0.1023 0.0
C105 C 0.54664 0.39779 0.11779 0.0
C106 C 0.52215 0.30117 0.10605 0.0
C107 C 0.51944 0.33199 0.08912 0.0
C108 C 0.53138 0.37982 0.09496 0.0
C109 C 0.55103 0.3677 0.13436 0.0
C110 C 0.53906 0.32016 0.12859 0.0
C111 C 0.55484 0.44598 0.12545 0.0
H112 H 0.54192 0.76457 0.10793 0.0
H113 H 0.57374 0.71062 0.09848 0.0
H114 H 0.70382 0.83236 0.07 0.0
H115 H 0.67212 0.88652 0.07912 0.0
H116 H 0.50668 0.31868 0.07161 0.0
H117 H 0.52771 0.40233 0.08181 0.0
H118 H 0.56281 0.38067 0.15203 0.0
H119 H 0.5428 0.29805 0.14194 0.0
Dy120 Dy 1.02336 0.45673 0.92786 0.0
Dy121 Dy 0.08658 0.56386 0.9031 0.0
C122 C 1.02141 0.46523 0.87487 0.0
O123 O 0.09511 0.46451 0.91588 0.0
O124 O 0.14069 0.54758 0.91859 0.0
O125 O 0.99058 0.37863 0.92431 0.0
O126 O 0.98047 0.40965 0.9562 0.0
O127 O 0.08122 0.57514 0.94192 0.0
O128 O 0.07446 0.50373 0.955 0.0
O129 O 1.00917 0.54532 0.90107 0.0
O130 O 0.98282 0.49708 0.93374 0.0
O131 O 0.09758 0.63567 0.89611 0.0
O132 O 0.14754 0.61517 0.88184 0.0
C133 C 0.13787 0.50507 0.91708 0.0
O134 O 0.99311 0.45448 0.89299 0.0
O135 O 0.06536 0.50403 0.8757 0.0
C136 C 0.91276 0.3381 0.94145 0.0
C137 C 0.81206 0.27705 0.93354 0.0
C138 C 0.8319 0.3274 0.93683 0.0
C139 C 0.88182 0.35769 0.94057 0.0
C140 C 0.893 0.28782 0.9385 0.0
C141 C 0.84312 0.25756 0.93454 0.0
C142 C 0.96583 0.37023 0.94371 0.0
C143 C 0.08305 0.54792 0.95885 0.0
C144 C 0.9787 0.52628 0.9187 0.0
C145 C 0.1796 0.6982 0.89238 0.0
C146 C 0.25741 0.79072 0.90618 0.0
C147 C 0.24365 0.74891 0.92 0.0
C148 C 0.20512 0.70318 0.91319 0.0
C149 C 0.19285 0.73967 0.87864 0.0
C150 C 0.23126 0.7854 0.88544 0.0
C151 C 0.13845 0.65047 0.88503 0.0
H152 H 0.80902 0.34355 0.9359 0.0
H153 H 0.89632 0.39655 0.9424 0.0
H154 H 0.91627 0.27206 0.93892 0.0
H155 H 0.82881 0.21882 0.93231 0.0
H156 H 0.26244 0.75154 0.93621 0.0
H157 H 0.1952 0.6717 0.92418 0.0
H158 H 0.17354 0.73668 0.86255 0.0
H159 H 0.2411 0.81641 0.87415 0.0
Dy160 Dy 0.65916 0.62056 0.93094 0.0
Dy161 Dy 0.55172 0.57416 0.90533 0.0
C162 C 0.65172 0.61179 0.8776 0.0
O163 O 0.64935 0.68378 0.91976 0.0
O164 O 0.56611 0.64342 0.92186 0.0
O165 O 0.7367 0.67046 0.92964 0.0
O166 O 0.70535 0.61984 0.95861 0.0
O167 O 0.53993 0.55358 0.94364 0.0
O168 O 0.60918 0.61928 0.95815 0.0
O169 O 0.57373 0.51824 0.90201 0.0
O170 O 0.61968 0.53923 0.93534 0.0
O171 O 0.48054 0.51228 0.89813 0.0
O172 O 0.50103 0.58267 0.88334 0.0
C173 C 0.60804 0.68422 0.92082 0.0
O174 O 0.66396 0.59549 0.89566 0.0
O175 O 0.61175 0.61458 0.87846 0.0
C176 C 0.77954 0.63204 0.94313 0.0
C177 C 0.84238 0.59439 0.93529 0.0
C178 C 0.81362 0.59616 0.91706 0.0
C179 C 0.7825 0.61455 0.92097 0.0
C180 C 0.80796 0.6302 0.96144 0.0
C181 C 0.83904 0.61151 0.95758 0.0
C182 C 0.74515 0.64976 0.94738 0.0
C183 C 0.56566 0.58142 0.96123 0.0
C184 C 0.59222 0.50656 0.91966 0.0
C185 C 0.41762 0.5302 0.89263 0.0
C186 C 0.32417 0.51516 0.90389 0.0
C187 C 0.36394 0.54118 0.91914 0.0
C188 C 0.41014 0.54859 0.91357 0.0
C189 C 0.3781 0.50365 0.87756 0.0
C190 C 0.33189 0.49616 0.88311 0.0
C191 C 0.46605 0.53777 0.88636 0.0
H192 H 0.81461 0.58266 0.89978 0.0
H193 H 0.76042 0.61477 0.90665 0.0
H194 H 0.80599 0.64306 0.97874 0.0
H195 H 0.86093 0.61109 0.97198 0.0
H196 H 0.35938 0.55584 0.93543 0.0
H197 H 0.44007 0.56881 0.92556 0.0
H198 H 0.38306 0.489 0.86134 0.0
H199 H 0.30251 0.47656 0.87079 0.0
Dy200 Dy 0.49328 0.09475 0.93292 0.0
Dy201 Dy 0.53718 0.03139 0.9082 0.0
C202 C 0.49941 0.0935 0.87968 0.0
O203 O 0.43028 1.02086 0.92248 0.0
O204 O 0.47025 0.97891 0.92734 0.0
O205 O 0.44224 0.12048 0.93144 0.0
O206 O 0.49252 0.14088 0.96052 0.0
O207 O 0.56396 0.04655 0.94567 0.0
O208 O 0.5014 0.05316 0.96155 0.0
O209 O 0.59424 0.10878 0.90267 0.0
O210 O 0.57506 0.14088 0.93413 0.0
O211 O 0.59675 1.01906 0.90057 0.0
O212 O 0.52491 0.96932 0.88723 0.0
C213 C 0.42947 0.97917 0.92499 0.0
O214 O 0.51673 0.1232 0.89731 0.0
O215 O 0.49623 0.0504 0.88114 0.0
C216 C 0.47978 0.20148 0.94467 0.0
C217 C 0.51895 0.30185 0.93651 0.0
C218 C 0.52484 0.27269 0.9199 0.0
C219 C 0.50576 0.22309 0.92403 0.0
C220 C 0.4737 0.23033 0.96134 0.0
C221 C 0.49327 0.28027 0.95731 0.0
C222 C 0.46216 0.1497 0.94925 0.0
C223 C 0.54105 0.05089 0.96393 0.0
C224 C 0.60681 0.14267 0.91871 0.0
C225 C 0.57569 0.93578 0.8967 0.0
C226 C 0.59013 0.8562 0.90706 0.0
C227 C 0.62866 0.90465 0.90892 0.0
C228 C 0.62156 0.94384 0.90376 0.0
C229 C 0.53721 0.88741 0.89475 0.0
C230 C 0.54432 0.84827 0.89986 0.0
C231 C 0.56914 0.9776 0.89011 0.0
H232 H 0.54503 0.2884 0.90388 0.0
H233 H 0.51184 0.20168 0.91122 0.0
H234 H 0.45428 0.21435 0.9775 0.0
H235 H 0.48798 0.30193 0.97035 0.0
H236 H 0.66433 0.91242 0.91455 0.0
H237 H 0.65222 0.98059 0.90516 0.0
H238 H 0.50159 0.87961 0.88901 0.0
H239 H 0.5139 0.81162 0.89769 0.0
Dy240 Dy 0.12567 0.33359 0.41477 0.0
Dy241 Dy 0.22446 0.41385 0.44258 0.0
C242 C 0.1231 0.34231 0.47098 0.0
O243 O 0.13828 0.41026 0.40923 0.0
O244 O 0.16928 0.43612 0.44556 0.0
O245 O 0.04796 0.2986 0.40923 0.0
O246 O 0.09208 0.28218 0.38645 0.0
O247 O 0.23421 0.42479 0.40328 0.0
O248 O 0.18829 0.34527 0.39364 0.0
O249 O 0.23246 0.34905 0.43708 0.0
O250 O 0.1523 0.2893 0.43349 0.0
O251 O 0.29118 0.43801 0.46248 0.0
O252 O 0.27443 0.49051 0.44751 0.0
C253 C 0.14816 0.4405 0.42695 0.0
O254 O 0.10093 0.324 0.45116 0.0
O255 O 0.17018 0.37561 0.47236 0.0
C256 C 1.01663 0.21643 0.3992 0.0
C257 C 0.95528 0.12001 0.41509 0.0
C258 C 1.00605 0.14092 0.41576 0.0
C259 C 1.03644 0.1888 0.40803 0.0
C260 C 0.96602 0.19513 0.39785 0.0
C261 C 0.93563 0.1474 0.4057 0.0
C262 C 0.04823 0.26866 0.39372 0.0
C263 C 0.22328 0.38881 0.38861 0.0
C264 C 0.19837 0.30289 0.43681 0.0
C265 C 0.35802 0.51371 0.44868 0.0
C266 C 0.45483 0.57998 0.43376 0.0
C267 C 0.41513 0.56638 0.41862 0.0
C268 C 0.36741 0.53352 0.42592 0.0
C269 C 0.39768 0.52573 0.46351 0.0
C270 C 0.44552 0.55827 0.45612 0.0
C271 C 0.30734 0.48392 0.45771 0.0
H272 H 1.02226 0.12089 0.42299 0.0
H273 H 0.07543 0.20463 0.40953 0.0
H274 H 0.94999 0.21584 0.39126 0.0
H275 H 0.89661 0.13202 0.40461 0.0
H276 H 0.42089 0.58191 0.40122 0.0
H277 H 0.33775 0.52476 0.41395 0.0
H278 H 0.39157 0.51116 0.48113 0.0
H279 H 0.47502 0.5682 0.46836 0.0
Dy280 Dy 0.76426 0.81187 0.42707 0.0
Dy281 Dy 0.6973 0.85664 0.44728 0.0
C282 C 0.73103 0.79663 0.47721 0.0
O283 O 0.68809 0.75368 0.41645 0.0
O284 O 0.64299 0.7809 0.43676 0.0
O285 O 0.80803 0.78263 0.43937 0.0
O286 O 0.80352 0.79297 0.40205 0.0
O287 O 0.69303 0.85728 0.40787 0.0
O288 O 0.76508 0.8602 0.39911 0.0
O289 O 0.76806 0.921 0.43898 0.0
O290 O 0.81552 0.88616 0.44236 0.0
O291 O 0.6874 0.91832 0.45287 0.0
O292 O 0.63521 0.84792 0.46704 0.0
C293 C 0.64612 0.74816 0.42397 0.0
O294 O 0.72064 0.77245 0.45785 0.0
O295 O 0.73479 0.83976 0.47675 0.0
C296 C 0.87929 0.80857 0.41785 0.0
C297 C 0.98053 0.85084 0.42458 0.0
C298 C 0.9576 0.87788 0.42914 0.0
C299 C 0.90733 0.85676 0.42593 0.0
C300 C 0.9025 0.78253 0.41203 0.0
C301 C 0.95265 0.80347 0.41532 0.0
C302 C 0.82574 0.78335 0.41867 0.0
C303 C 0.72916 0.86705 0.39337 0.0
C304 C 0.81069 0.9249 0.44091 0.0
C305 C 0.60598 0.89964 0.4541 0.0
C306 C 0.53183 0.9157 0.43681 0.0
C307 C 0.54308 0.88328 0.42538 0.0
C308 C 0.5799 0.87545 0.43389 0.0
C309 C 0.59549 0.9325 0.46533 0.0
C310 C 0.55885 0.94049 0.4568 0.0
C311 C 0.64546 0.89261 0.46313 0.0
H312 H 0.97795 0.91426 0.43639 0.0
H313 H 0.88996 0.87714 0.43088 0.0
H314 H 0.88155 0.74526 0.40591 0.0
H315 H 0.96945 0.78197 0.41129 0.0
H316 H 0.52333 0.86386 0.40985 0.0
H317 H 0.58794 0.85045 0.42476 0.0
H318 H 0.61549 0.95183 0.48083 0.0
H319 H 0.55076 0.96505 0.4663 0.0
Dy320 Dy 0.29496 0.97929 0.43045 0.0
Dy321 Dy 0.24924 0.86521 0.44856 0.0
C322 C 0.30539 0.95773 0.48047 0.0
O323 O 0.35212 0.96182 0.41851 0.0
O324 O 0.32593 0.88983 0.43912 0.0
O325 O 0.3269 0.05103 0.44512 0.0
O326 O 0.3158 0.04131 0.40752 0.0
O327 O 0.24719 0.86228 0.40899 0.0
O328 O 0.25127 0.93542 0.40037 0.0
O329 O 0.18603 0.87163 0.43872 0.0
O330 O 0.21889 0.95382 0.44405 0.0
O331 O 0.18693 0.7947 0.45702 0.0
O332 O 0.25953 0.80808 0.46324 0.0
C333 C 0.35805 0.92569 0.42599 0.0
O334 O 0.33116 0.97121 0.46153 0.0
O335 O 0.26337 0.9168 0.47926 0.0
C336 C 0.30677 0.10385 0.42637 0.0
C337 C 0.26667 0.16496 0.4318 0.0
C338 C 0.30543 0.17099 0.44597 0.0
C339 C 0.3254 0.14109 0.44315 0.0
C340 C 0.26753 0.09697 0.41234 0.0
C341 C 0.24776 0.12741 0.41499 0.0
C342 C 0.32727 0.07131 0.42522 0.0
C343 C 0.24154 0.89151 0.39444 0.0
C344 C 0.18096 0.90956 0.44173 0.0
C345 C 0.19839 0.72664 0.45282 0.0
C346 C 0.16966 0.63054 0.43759 0.0
C347 C 0.21602 0.6701 0.43198 0.0
C348 C 0.23025 0.71758 0.43951 0.0
C349 C 0.1516 0.68757 0.45768 0.0
C350 C 0.13737 0.64027 0.45014 0.0
C351 C 0.2133 0.77558 0.46268 0.0
H352 H 0.32029 0.19872 0.45944 0.0
H353 H 0.35517 0.14664 0.45441 0.0
H354 H 0.25204 0.06812 0.39944 0.0
H355 H 0.21823 0.12202 0.40364 0.0
H356 H 0.24213 0.66414 0.42259 0.0
H357 H 0.26654 0.74693 0.43536 0.0
H358 H 0.12619 0.69346 0.46779 0.0
H359 H 0.10116 0.61107 0.45453 0.0
Dy360 Dy 0.68222 0.77175 0.26263 0.0
Dy361 Dy 0.75324 0.88067 0.24004 0.0
C362 C 0.68991 0.78445 0.21046 0.0
O363 O 0.75551 0.77928 0.25438 0.0
O364 O 0.80055 0.86136 0.26025 0.0
O365 O 0.64839 0.69444 0.25596 0.0
O366 O 0.63139 0.72035 0.28769 0.0
O367 O 0.74235 0.89171 0.27816 0.0
O368 O 0.72136 0.81605 0.2933 0.0
O369 O 0.67768 0.86755 0.23659 0.0
O370 O 0.64284 0.81312 0.26689 0.0
O371 O 0.76706 0.95253 0.23041 0.0
O372 O 0.82121 0.9323 0.22333 0.0
C373 C 0.7979 0.8191 0.25804 0.0
O374 O 0.65961 0.77786 0.22715 0.0
O375 O 0.73474 0.82137 0.21255 0.0
C376 C 0.56659 0.65471 0.26778 0.0
C377 C 0.46864 0.59986 0.25321 0.0
C378 C 0.49175 0.65085 0.25486 0.0
C379 C 0.54043 0.67807 0.2619 0.0
C380 C 0.54348 0.60389 0.26647 0.0
C381 C 0.49498 0.5767 0.25928 0.0
C382 C 0.61868 0.68342 0.27367 0.0
C383 C 0.73337 0.86177 0.29595 0.0
C384 C 0.64375 0.84618 0.25268 0.0
C385 C 0.84938 1.01531 0.23307 0.0
C386 C 0.92252 0.10762 0.25002 0.0
C387 C 0.91134 0.06431 0.26198 0.0
C388 C 0.87508 1.01869 0.25365 0.0
C389 C 0.85968 0.05833 0.22138 0.0
C390 C 0.89573 0.1039 0.22973 0.0
C391 C 0.8115 0.9676 0.22366 0.0
H392 H 0.47256 0.66972 0.2502 0.0
H393 H 0.55786 0.71744 0.26245 0.0
H394 H 0.5631 0.58524 0.27077 0.0
H395 H 0.47798 0.53739 0.25855 0.0
H396 H 0.93078 0.06563 0.27777 0.0
H397 H 0.86739 0.98605 0.26317 0.0
H398 H 0.84017 0.05666 0.20555 0.0
H399 H 0.90365 0.13615 0.21981 0.0
Dy400 Dy 0.32765 0.94322 0.26414 0.0
Dy401 Dy 0.21581 0.8936 0.24188 0.0
C402 C 0.31284 0.95205 0.21231 0.0
O403 O 0.3018 0.99435 0.27571 0.0
O404 O 0.23831 0.97059 0.24944 0.0
O405 O 0.40395 0.98847 0.25681 0.0
O406 O 0.38083 0.95521 0.29103 0.0
O407 O 0.21063 0.89397 0.28131 0.0
O408 O 0.27743 0.88741 0.28923 0.0
O409 O 0.22974 0.8327 0.24592 0.0
O410 O 0.31352 0.87369 0.24655 0.0
O411 O 0.14289 0.8318 0.23985 0.0
O412 O 0.16244 0.89645 0.21931 0.0
C413 C 0.26872 1.00109 0.26506 0.0
O414 O 0.32611 0.97827 0.23118 0.0
O415 O 0.27077 0.91088 0.21254 0.0
C416 C 0.44853 0.95566 0.27346 0.0
C417 C 0.50984 0.91638 0.26719 0.0
C418 C 0.47632 0.91076 0.2498 0.0
C419 C 0.44575 0.92985 0.25296 0.0
C420 C 0.48149 0.96079 0.29104 0.0
C421 C 0.51181 0.94106 0.28798 0.0
C422 C 0.41697 0.97691 0.27629 0.0
C423 C 0.23569 0.88229 0.29558 0.0
C424 C 0.27106 0.83336 0.24446 0.0
C425 C 0.07944 0.84853 0.23251 0.0
C426 C 0.98625 0.8351 0.24351 0.0
C427 C 1.02615 0.88194 0.23878 0.0
C428 C 0.07214 0.88859 0.23339 0.0
C429 C 0.03974 0.80182 0.23717 0.0
C430 C 0.99386 0.79518 0.24266 0.0
C431 C 0.12726 0.85387 0.22622 0.0
H432 H 0.47358 0.89133 0.23376 0.0
H433 H 0.42013 0.92468 0.23922 0.0
H434 H 0.484 0.98028 0.30702 0.0
H435 H 0.53749 0.946 0.30164 0.0
H436 H 1.02176 0.91358 0.23882 0.0
H437 H 0.1018 0.92506 0.22978 0.0
H438 H 0.0442 0.77021 0.23653 0.0
H439 H 0.96446 0.75868 0.24645 0.0
Dy440 Dy 0.15633 0.41237 0.25326 0.0
Dy441 Dy 0.2046 0.34471 0.23839 0.0
C442 C 0.14641 0.37442 0.20474 0.0
O443 O 0.09974 0.3378 0.26662 0.0
O444 O 0.12895 0.29128 0.24941 0.0
O445 O 0.123 0.4498 0.23766 0.0
O446 O 0.13703 0.45614 0.27506 0.0
O447 O 0.20873 0.35093 0.27774 0.0
O448 O 0.20574 0.42137 0.28233 0.0
O449 O 0.26757 0.41857 0.24138 0.0
O450 O 0.22975 0.46346 0.23698 0.0
O451 O 0.26553 0.33272 0.23736 0.0
O452 O 0.19852 0.28245 0.21976 0.0
C453 C 0.09536 0.29522 0.26103 0.0
O454 O 0.12055 0.36296 0.2236 0.0
O455 O 0.18923 0.37807 0.20664 0.0
C456 C 0.1553 0.52846 0.25394 0.0
C457 C 0.20966 0.63108 0.24848 0.0
C458 C 0.19921 0.60024 0.22908 0.0
C459 C 0.1724 0.54971 0.23174 0.0
C460 C 0.16637 0.55922 0.27344 0.0
C461 C 0.19339 0.61002 0.27075 0.0
C462 C 0.12759 0.47459 0.25665 0.0
C463 C 0.21637 0.38917 0.29023 0.0
C464 C 0.26923 0.45988 0.23762 0.0
C465 C 0.2462 0.25097 0.23578 0.0
C466 C 0.2578 0.17467 0.25414 0.0
C467 C 0.2208 0.18273 0.26258 0.0
C468 C 0.21516 0.22066 0.25355 0.0
C469 C 0.28353 0.24361 0.22761 0.0
C470 C 0.28932 0.20592 0.23667 0.0
C471 C 0.24173 0.29163 0.22615 0.0
H472 H 0.21149 0.61522 0.21172 0.0
H473 H 0.16507 0.5274 0.21626 0.0
H474 H 0.15389 0.54401 0.29075 0.0
H475 H 0.20023 0.6328 0.28601 0.0
H476 H 0.19609 0.1596 0.27613 0.0
H477 H 0.18655 0.22622 0.26036 0.0
H478 H 0.3081 0.26689 0.21404 0.0
H479 H 0.31764 0.20038 0.22945 0.0
Dy480 Dy 0.78361 0.68105 0.75968 0.0
Dy481 Dy 0.89747 0.74689 0.77829 0.0
C482 C 0.80548 0.71404 0.80977 0.0
O483 O 0.80412 0.75736 0.74814 0.0
O484 O 0.87636 0.80151 0.76872 0.0
O485 O 0.71027 0.63985 0.77255 0.0
O486 O 0.72429 0.64212 0.7352 0.0
O487 O 0.89932 0.74833 0.7389 0.0
O488 O 0.82929 0.67565 0.73202 0.0
O489 O 0.88655 0.67323 0.77401 0.0
O490 O 0.8031 0.62808 0.77571 0.0
O491 O 0.97033 0.75909 0.78007 0.0
O492 O 0.95188 0.80633 0.79925 0.0
C493 C 0.84105 0.79911 0.75578 0.0
O494 O 0.7914 0.72536 0.79075 0.0
O495 O 0.84522 0.71123 0.80864 0.0
C496 C 0.66415 0.56728 0.75227 0.0
C497 C 0.61211 0.46635 0.76218 0.0
C498 C 0.66161 0.48956 0.75602 0.0
C499 C 0.68747 0.53971 0.75123 0.0
C500 C 0.61438 0.54381 0.75732 0.0
C501 C 0.58857 0.49387 0.76214 0.0
C502 C 0.69263 0.62093 0.75211 0.0
C503 C 0.87188 0.71097 0.72523 0.0
C504 C 0.84614 0.6316 0.77615 0.0
C505 C 1.03226 0.84212 0.78322 0.0
C506 C 0.12064 0.92352 0.76773 0.0
C507 C 0.10614 0.8765 0.75946 0.0
C508 C 0.06253 0.83629 0.76713 0.0
C509 C 0.0468 0.88909 0.79151 0.0
C510 C 0.09034 0.92925 0.78384 0.0
C511 C 0.98685 0.79929 0.79201 0.0
H512 H 0.68078 0.46947 0.75589 0.0
H513 H 0.72608 0.55737 0.74767 0.0
H514 H 0.59585 0.56448 0.75846 0.0
H515 H 0.55022 0.47692 0.7663 0.0
H516 H 0.12843 0.87074 0.74701 0.0
H517 H 0.05277 0.80056 0.76052 0.0
H518 H 1.02479 0.89482 0.80416 0.0
H519 H 0.10082 0.96474 0.79103 0.0
Dy520 Dy 0.42341 0.15361 0.76163 0.0
Dy521 Dy 0.36089 0.20385 0.78199 0.0
C522 C 0.39509 0.14412 0.8125 0.0
O523 O 0.34732 0.10234 0.74896 0.0
O524 O 0.30566 0.12754 0.77318 0.0
O525 O 0.45614 0.11167 0.77188 0.0
O526 O 0.46271 0.13623 0.7359 0.0
O527 O 0.35703 0.20331 0.74251 0.0
O528 O 0.42964 0.20709 0.7351 0.0
O529 O 0.43547 0.26533 0.77717 0.0
O530 O 0.47917 0.22554 0.7775 0.0
O531 O 0.34973 0.26527 0.78401 0.0
O532 O 0.30357 0.20022 0.80411 0.0
C533 C 0.30665 0.09652 0.75827 0.0
O534 O 0.38179 0.11809 0.79363 0.0
O535 O 0.39782 0.18682 0.81161 0.0
C536 C 0.53188 0.13981 0.75365 0.0
C537 C 0.63314 0.17898 0.75755 0.0
C538 C 0.60684 0.18415 0.77593 0.0
C539 C 0.55684 0.16511 0.77395 0.0
C540 C 0.55815 0.13512 0.73511 0.0
C541 C 0.60851 0.1548 0.73699 0.0
C542 C 0.4787 0.11844 0.75195 0.0
C543 C 0.39381 0.21325 0.72845 0.0
C544 C 0.47665 0.26569 0.77853 0.0
C545 C 0.26941 0.24758 0.7907 0.0
C546 C 0.19212 0.26236 0.77708 0.0
C547 C 0.20874 0.23853 0.76207 0.0
C548 C 0.247 0.23126 0.76881 0.0
C549 C 0.253 0.27119 0.80572 0.0
C550 C 0.2148 0.27849 0.79902 0.0
C551 C 0.31175 0.24312 0.79756 0.0
H552 H 0.62503 0.20318 0.79183 0.0
H553 H 0.53774 0.17001 0.78845 0.0
H554 H 0.5397 0.116 0.71928 0.0
H555 H 0.62802 0.1502 0.7226 0.0
H556 H 0.1926 0.22601 0.74497 0.0
H557 H 0.25946 0.21338 0.75684 0.0
H558 H 0.26997 0.28429 0.82264 0.0
H559 H 0.20258 0.29616 0.81122 0.0
Dy560 Dy 0.95091 0.32243 0.7547 0.0
Dy561 Dy 0.91348 0.21346 0.77694 0.0
C562 C 0.94562 0.30872 0.80752 0.0
O563 O 1.01702 0.31563 0.76286 0.0
O564 O 0.98013 0.23394 0.75637 0.0
O565 O 0.99692 0.40013 0.75928 0.0
O566 O 0.94774 0.37196 0.72969 0.0
O567 O 0.88906 0.20248 0.73922 0.0
O568 O 0.94437 0.27776 0.72394 0.0
O569 O 0.85223 0.22732 0.78256 0.0
O570 O 0.86959 0.28085 0.75216 0.0
O571 O 0.85557 0.14096 0.78602 0.0
O572 O 0.93026 0.16226 0.79348 0.0
C573 C 1.01981 0.27614 0.75904 0.0
O574 O 0.92525 0.31949 0.79071 0.0
O575 O 0.95362 0.2721 0.80475 0.0
C576 C 0.95235 0.43918 0.74958 0.0
C577 C 0.90417 0.49026 0.76207 0.0
C578 C 0.91887 0.46891 0.77938 0.0
C579 C 0.94241 0.4434 0.77321 0.0
C580 C 0.93754 0.46029 0.73227 0.0
C581 C 0.91358 0.48547 0.73843 0.0
C582 C 0.97464 0.40983 0.74277 0.0
C583 C 0.90963 0.23232 0.72136 0.0
C584 C 0.8385 0.24844 0.76701 0.0
C585 C 0.87594 0.07904 0.78348 0.0
C586 C 0.85744 0.9871 0.76659 0.0
C587 C 0.89166 0.03074 0.75541 0.0
C588 C 0.90069 0.07618 0.76371 0.0
C589 C 0.84117 0.0357 0.79437 0.0
C590 C 0.83197 0.99031 0.78604 0.0
C591 C 0.88523 0.12648 0.79289 0.0
H592 H 0.91193 0.47174 0.79772 0.0
H593 H 0.9525 0.42673 0.78698 0.0
H594 H 0.94429 0.45708 0.71394 0.0
H595 H 0.90335 0.50212 0.72472 0.0
H596 H 0.91166 0.0298 0.74026 0.0
H597 H 0.92725 0.10907 0.75479 0.0
H598 H 0.82144 0.03696 0.80957 0.0
H599 H 0.80597 0.95778 0.79536 0.0
Dy600 Dy 0.3459 0.10675 0.59834 0.0
Dy601 Dy 0.4126 0.21546 0.57457 0.0
C602 C 0.35133 0.11658 0.54556 0.0
O603 O 0.41953 0.11611 0.58915 0.0
O604 O 0.46288 0.19863 0.59382 0.0
O605 O 0.31356 0.02899 0.59346 0.0
O606 O 0.29792 0.05715 0.62478 0.0
O607 O 0.40217 0.22704 0.61265 0.0
O608 O 0.38634 0.15344 0.6283 0.0
O609 O 0.33562 0.19748 0.5704 0.0
O610 O 0.30448 0.14622 0.60199 0.0
O611 O 0.42463 0.28725 0.56622 0.0
O612 O 0.47791 0.26761 0.55611 0.0
C613 C 0.46155 0.15695 0.59168 0.0
O614 O 0.32062 0.10694 0.56253 0.0
O615 O 0.39485 0.15598 0.54732 0.0
C616 C 0.2325 0.98949 0.6064 0.0
C617 C 0.13394 0.93311 0.59303 0.0
C618 C 0.15674 0.98414 0.59395 0.0
C619 C 0.20568 1.01209 0.60041 0.0
C620 C 0.20972 0.93862 0.60584 0.0
C621 C 0.16089 0.91066 0.59923 0.0
C622 C 0.28489 1.01911 0.61151 0.0
C623 C 0.39629 0.1986 0.63067 0.0
C624 C 0.3027 0.17661 0.58694 0.0
C625 C 0.50713 0.35027 0.567 0.0
C626 C 0.58218 0.44213 0.58355 0.0
C627 C 0.57162 0.39848 0.595 0.0
C628 C 0.53445 0.35312 0.58687 0.0
C629 C 0.51682 0.39362 0.55582 0.0
C630 C 0.55381 0.43897 0.56398 0.0
C631 C 0.46812 0.30274 0.55789 0.0
H632 H 0.13711 1.00248 0.58913 0.0
H633 H 0.2228 0.05144 0.60038 0.0
H634 H 0.22985 0.92055 0.61022 0.0
H635 H 0.14416 0.87135 0.59903 0.0
H636 H 0.59221 0.39934 0.61025 0.0
H637 H 0.52729 0.32025 0.596 0.0
H638 H 0.49607 0.39239 0.54055 0.0
H639 H 0.56115 0.47147 0.55446 0.0
Dy640 Dy 0.98575 0.27494 0.59393 0.0
Dy641 Dy 0.87575 0.22938 0.57012 0.0
C642 C 0.97478 0.2874 0.5422 0.0
O643 O 0.9621 0.32806 0.60518 0.0
O644 O 0.89935 0.30628 0.57862 0.0
O645 O 0.06236 0.31572 0.58666 0.0
O646 O 0.03756 0.28676 0.62153 0.0
O647 O 0.86828 0.22949 0.60939 0.0
O648 O 0.9329 0.21992 0.61849 0.0
O649 O 0.88548 0.16612 0.5757 0.0
O650 O 0.96892 0.20361 0.57726 0.0
O651 O 0.8027 0.16885 0.56608 0.0
O652 O 0.82458 0.23608 0.54748 0.0
C653 C 0.92981 0.33596 0.59446 0.0
O654 O 0.98718 0.31261 0.56136 0.0
O655 O 0.93262 0.24634 0.54182 0.0
C656 C 0.10388 0.28206 0.60548 0.0
C657 C 0.16483 0.24206 0.60054 0.0
C658 C 0.12799 0.23136 0.58415 0.0
C659 C 0.09759 0.25082 0.58669 0.0
C660 C 0.13984 0.29188 0.62223 0.0
C661 C 0.16997 0.27177 0.61986 0.0
C662 C 0.0741 0.30552 0.60687 0.0
C663 C 0.89139 0.21623 0.62408 0.0
C664 C 0.92559 0.16425 0.57533 0.0
C665 C 0.74169 0.18867 0.55955 0.0
C666 C 0.64941 0.17409 0.57306 0.0
C667 C 0.69065 0.20073 0.58739 0.0
C668 C 0.73626 0.20787 0.58072 0.0
C669 C 0.7009 0.1623 0.54519 0.0
C670 C 0.65531 0.15509 0.55183 0.0
C671 C 0.78859 0.19287 0.55292 0.0
H672 H 0.12287 0.20809 0.56928 0.0
H673 H 0.06977 0.24224 0.57362 0.0
H674 H 0.14517 0.31574 0.63687 0.0
H675 H 0.19824 0.28063 0.6327 0.0
H676 H 0.68758 0.21552 0.60396 0.0
H677 H 0.76717 0.22786 0.59222 0.0
H678 H 0.70421 0.1469 0.52885 0.0
H679 H 0.6248 0.13513 0.54014 0.0
Dy680 Dy 0.82111 0.74753 0.59227 0.0
Dy681 Dy 0.86588 0.67985 0.57287 0.0
C682 C 0.80797 0.71478 0.54205 0.0
O683 O 0.76275 0.67103 0.60285 0.0
O684 O 0.78946 0.62595 0.58219 0.0
O685 O 0.79092 0.79058 0.57998 0.0
O686 O 0.80249 0.78705 0.61723 0.0
O687 O 0.86453 0.67562 0.61227 0.0
O688 O 0.86995 0.7491 0.62013 0.0
O689 O 0.92986 0.75173 0.57955 0.0
O690 O 0.89473 0.79916 0.57633 0.0
O691 O 0.92692 0.66836 0.56953 0.0
O692 O 0.85884 0.61895 0.55257 0.0
C693 C 0.75675 0.62899 0.59501 0.0
O694 O 0.78295 0.70453 0.56117 0.0
O695 O 0.85057 0.7176 0.54293 0.0
C696 C 0.8169 0.86231 0.60095 0.0
C697 C 0.86291 0.96345 0.59196 0.0
C698 C 0.89077 0.94085 0.59515 0.0
C699 C 0.86786 0.89058 0.59948 0.0
C700 C 0.78929 0.88518 0.59899 0.0
C701 C 0.81202 0.93523 0.59463 0.0
C702 C 0.79206 0.80869 0.60061 0.0
C703 C 0.87507 0.71236 0.62647 0.0
C704 C 0.93338 0.79415 0.57683 0.0
C705 C 0.90692 0.58654 0.56699 0.0
C706 C 0.91922 0.50993 0.58439 0.0
C707 C 0.88327 0.51855 0.59379 0.0
C708 C 0.87731 0.55662 0.58524 0.0
C709 C 0.94317 0.57856 0.55781 0.0
C710 C 0.9493 0.54071 0.56639 0.0
C711 C 0.90231 0.62767 0.5581 0.0
H712 H 0.92995 0.9615 0.5932 0.0
H713 H 0.88967 0.87336 0.60069 0.0
H714 H 0.74994 0.86398 0.59986 0.0
H715 H 0.78955 0.95168 0.59278 0.0
H716 H 0.8597 0.49583 0.60776 0.0
H717 H 0.8496 0.56267 0.59284 0.0
H718 H 0.96669 0.60154 0.54388 0.0
H719 H 0.97678 0.53475 0.55846 0.0
C720 C 0.52024 0.88214 0.09934 0.0
C721 C 0.55235 0.9297 0.10728 0.0
H722 H 0.51162 0.81347 0.08874 0.0
C723 C 0.60051 0.94263 0.11267 0.0
H724 H 0.48298 0.87101 0.09493 0.0
C725 C 0.61687 0.90979 0.10911 0.0
C726 C 0.58556 0.86307 0.10006 0.0
H727 H 0.6262 0.97878 0.11902 0.0
H728 H 0.65439 0.9213 0.11312 0.0
C729 C 0.53669 0.84916 0.09577 0.0
C730 C 0.23036 0.7276 0.103 0.0
C731 C 0.25772 0.73986 0.08219 0.0
H732 H 0.17545 0.67087 0.12417 0.0
C733 C 0.25158 0.70237 0.06704 0.0
H734 H 0.23409 0.75573 0.11495 0.0
C735 C 0.21822 0.65373 0.07237 0.0
C736 C 0.18997 0.64151 0.0929 0.0
H737 H 0.27263 0.71063 0.05105 0.0
H738 H 0.21384 0.62585 0.06008 0.0
C739 C 0.19671 0.67897 0.10826 0.0
C740 C 0.39875 0.55886 0.07753 0.0
C741 C 0.36372 0.52177 0.09194 0.0
H742 H 0.4744 0.60539 0.06966 0.0
C743 C 0.37983 0.50475 0.11066 0.0
H744 H 0.38772 0.57343 0.06318 0.0
C745 C 0.42951 0.52336 0.11451 0.0
C746 C 0.46451 0.55956 0.09976 0.0
H747 H 0.35399 0.47593 0.122 0.0
H748 H 0.44036 0.50842 0.12877 0.0
C749 C 0.44853 0.57758 0.0814 0.0
C750 C 0.91358 0.52813 0.9431 0.0
C751 C 0.94159 0.54097 0.92246 0.0
H752 H 0.86035 0.53472 0.96334 0.0
C753 C 0.93588 0.5706 0.90597 0.0
H754 H 0.9171 0.50549 0.95623 0.0
C755 C 0.90356 0.58748 0.91009 0.0
C756 C 0.8761 0.57539 0.93087 0.0
H757 H 0.95691 0.58145 0.88992 0.0
H758 H 0.90092 0.611 0.89717 0.0
C759 C 0.88135 0.54527 0.94728 0.0
C760 C 0.53337 0.37068 0.91001 0.0
C761 C 0.53951 0.35458 0.93197 0.0
H762 H 0.54547 0.43132 0.88883 0.0
C763 C 0.56547 0.38912 0.94946 0.0
H764 H 0.51331 0.34482 0.89624 0.0
C765 C 0.58434 0.43878 0.94515 0.0
C766 C 0.57708 0.45477 0.92337 0.0
H767 H 0.57126 0.37773 0.96644 0.0
H768 H 0.60352 0.46445 0.95911 0.0
C769 C 0.55177 0.42022 0.90578 0.0
C770 C 0.67449 0.21698 0.93814 0.0
C771 C 0.65892 0.18046 0.92095 0.0
H772 H 0.7351 0.27603 0.95567 0.0
C773 C 0.69415 0.17769 0.90721 0.0
H774 H 0.64838 0.22008 0.94909 0.0
C775 C 0.7437 0.20942 0.91112 0.0
C776 C 0.7593 0.24497 0.92874 0.0
H777 H 0.68362 0.15007 0.8938 0.0
H778 H 0.76988 0.20592 0.90041 0.0
C779 C 0.72417 0.24904 0.94192 0.0
C780 C 0.28029 0.24886 0.43825 0.0
C781 C 0.24777 0.19916 0.43412 0.0
H782 H 0.29028 0.31979 0.44283 0.0
C783 C 0.19782 0.1831 0.43207 0.0
H784 H 0.31905 0.26284 0.43953 0.0
C785 C 0.18108 0.21627 0.43376 0.0
C786 C 0.214 0.26611 0.43747 0.0
H787 H 0.17168 0.14495 0.42919 0.0
H788 H 0.14259 0.20298 0.43173 0.0
C789 C 0.26367 0.28173 0.44002 0.0
C790 C 0.9295 0.03103 0.41929 0.0
C791 C 0.92255 0.07036 0.42466 0.0
H792 H 0.89939 0.95349 0.42037 0.0
C793 C 0.88248 0.06166 0.43849 0.0
H794 H 0.96011 0.03665 0.40866 0.0
C795 C 0.84832 1.01443 0.4454 0.0
C796 C 0.85328 0.9746 0.43868 0.0
H797 H 0.87674 0.0913 0.44343 0.0
H798 H 0.81664 1.00882 0.45512 0.0
C799 C 0.89502 0.98344 0.4262 0.0
C800 C 0.09284 0.85383 0.44807 0.0
C801 C 0.13045 0.9001 0.44112 0.0
H802 H 1.01667 0.80252 0.44844 0.0
C803 C 0.1183 0.9325 0.43054 0.0
H804 H 0.10096 0.8282 0.45652 0.0
C805 C 0.06934 0.91739 0.42569 0.0
C806 C 1.03216 0.8697 0.43128 0.0
H807 H 0.14658 0.96823 0.42484 0.0
H808 H 0.0608 0.94212 0.41665 0.0
C809 C 0.04449 0.83887 0.44322 0.0
C810 C 0.56897 0.90666 0.24215 0.0
C811 C 0.54317 0.89723 0.26331 0.0
H812 H 0.62104 0.89799 0.22216 0.0
C813 C 0.54935 0.8694 0.28061 0.0
H814 H 0.56506 0.92827 0.22857 0.0
C815 C 0.58092 0.85151 0.27684 0.0
C816 C 0.60748 0.86176 0.25583 0.0
H817 H 0.52956 0.86127 0.29699 0.0
H818 H 0.58529 0.83059 0.29061 0.0
C819 C 0.60106 0.8894 0.2385 0.0
C820 C 0.23464 0.75306 0.22525 0.0
C821 C 0.26728 0.78552 0.24187 0.0
H822 H 0.1909 0.67909 0.21436 0.0
C823 C 0.28562 0.76786 0.25922 0.0
H824 H 0.21939 0.76581 0.21195 0.0
C825 C 0.26861 0.7177 0.26091 0.0
C826 C 0.2335 0.68476 0.24508 0.0
H827 H 0.31004 0.79216 0.27252 0.0
H828 H 0.28146 0.70451 0.2751 0.0
C829 C 0.21818 0.70332 0.22672 0.0
C830 C 0.38054 0.57798 0.25445 0.0
C831 C 0.41727 0.57031 0.24529 0.0
H832 H 0.30354 0.54884 0.25872 0.0
C833 C 0.40408 0.53136 0.22978 0.0
H834 H 0.38963 0.60782 0.2664 0.0
C835 C 0.35525 0.49814 0.22533 0.0
C836 C 0.31838 0.50315 0.23616 0.0
H837 H 0.43153 0.52519 0.22195 0.0
H838 H 0.34622 0.46657 0.2146 0.0
C839 C 0.3313 0.54454 0.24991 0.0
C840 C 0.82704 0.55065 0.76029 0.0
C841 C 0.85107 0.58794 0.77682 0.0
H842 H 0.82528 0.49027 0.74248 0.0
C843 C 0.88844 0.58906 0.79033 0.0
H844 H 0.79887 0.54967 0.7493 0.0
C845 C 0.90361 0.55538 0.78646 0.0
C846 C 0.88226 0.52031 0.76868 0.0
H847 H 0.90793 0.61791 0.80298 0.0
H848 H 0.93426 0.55892 0.79634 0.0
C849 C 0.84274 0.51725 0.75614 0.0
C850 C 0.55231 0.39969 0.78831 0.0
C851 C 0.5848 0.41411 0.76933 0.0
H852 H 0.49335 0.34058 0.80654 0.0
C853 C 0.58806 0.37797 0.75651 0.0
H854 H 0.54982 0.42655 0.79896 0.0
C855 C 0.55614 0.32833 0.76124 0.0
C856 C 0.5207 0.31437 0.77885 0.0
H857 H 0.61287 0.38794 0.74183 0.0
H858 H 0.55635 0.30117 0.74986 0.0
C859 C 0.5205 0.35045 0.79292 0.0
C860 C 0.70405 0.18816 0.7806 0.0
C861 C 0.68597 0.19802 0.76016 0.0
H862 H 0.76644 0.19637 0.79883 0.0
C863 C 0.7186 0.22608 0.74236 0.0
H864 H 0.67959 0.16633 0.79453 0.0
C865 C 0.76841 0.24375 0.74491 0.0
C866 C 0.78642 0.23311 0.76518 0.0
H867 H 0.7056 0.23453 0.72653 0.0
H868 H 0.79263 0.26484 0.73076 0.0
C869 C 0.75373 0.20528 0.78303 0.0
C870 C 0.2087 0.20015 0.61505 0.0
C871 C 0.19879 0.22362 0.59689 0.0
H872 H 0.24858 0.16589 0.62597 0.0
C873 C 0.22181 0.2298 0.57511 0.0
H874 H 0.19115 0.19467 0.63194 0.0
C875 C 0.25498 0.21379 0.5717 0.0
C876 C 0.26517 0.19055 0.58991 0.0
H877 H 0.21497 0.24805 0.56085 0.0
H878 H 0.27287 0.21992 0.55487 0.0
C879 C 0.24124 0.18336 0.61153 0.0
C880 C 0.9279 0.05243 0.59586 0.0
C881 C 0.88576 1.01558 0.58483 0.0
H882 H 0.97472 0.12961 0.60111 0.0
C883 C 0.86337 0.02901 0.56753 0.0
H884 H 0.94613 0.0432 0.60917 0.0
C885 C 0.87979 0.07796 0.56289 0.0
C886 C 0.91926 0.11487 0.57527 0.0
H887 H 0.83178 1.00157 0.55819 0.0
H888 H 0.85972 0.08696 0.55051 0.0
C889 C 0.94456 0.10185 0.59111 0.0
C890 C 0.06893 0.86334 0.5704 0.0
C891 C 0.08238 0.90293 0.5855 0.0
H892 H 1.01083 0.79875 0.55523 0.0
C893 C 0.04587 0.91124 0.59439 0.0
H894 H 0.0962 0.85665 0.56278 0.0
C895 C 0.9966 0.87814 0.58979 0.0
C896 C 0.98332 0.83645 0.57623 0.0
H897 H 0.05517 0.94155 0.60606 0.0
H898 H 0.9691 0.8832 0.59832 0.0
C899 C 1.02005 0.83051 0.56585 0.0
C900 C 0.58758 0.03566 0.02202 0.0
C901 C 0.58344 0.07058 0.03551 0.0
H902 H 0.57745 1.00192 0.98825 0.0
C903 C 0.5753 0.10487 0.02416 0.0
H904 H 0.59339 1.0085 0.03051 0.0
C905 C 0.56483 0.1001 1.00025 0.0
C906 C 0.56339 0.06169 0.98732 0.0
H907 H 0.57124 0.13161 0.03414 0.0
H908 H 0.55462 0.12452 0.99218 0.0
C909 C 0.57793 0.03145 0.99795 0.0
C910 C 0.12054 0.55814 0.99732 0.0
C911 C 0.08617 0.56164 0.98349 0.0
H912 H 0.13765 0.54245 0.03116 0.0
C913 C 0.04589 0.56064 0.99426 0.0
H914 H 0.15133 0.55798 0.98929 0.0
C915 C 0.03757 0.55101 0.01833 0.0
C916 C 0.0694 0.54208 0.03151 0.0
H917 H 1.0183 0.56199 0.98372 0.0
H918 H 1.00442 0.54634 0.0261 0.0
C919 C 0.11222 0.54845 0.02115 0.0
C920 C 0.55209 0.52364 0.99349 0.0
C921 C 0.55205 0.56555 0.9855 0.0
H922 H 0.56444 0.48875 0.0229 0.0
C923 C 0.5545 0.59967 1.00171 0.0
H924 H 0.55123 0.49741 0.9811 0.0
C925 C 0.56197 0.59472 0.02528 0.0
C926 C 0.56773 0.55594 0.03297 0.0
H927 H 0.55515 0.63245 0.99585 0.0
H928 H 0.56707 0.62336 0.03725 0.0
C929 C 0.56005 0.51886 0.01726 0.0
C930 C 0.24611 0.43792 0.35194 0.0
C931 C 0.23929 0.39661 0.36401 0.0
H932 H 0.2446 0.46806 0.31876 0.0
C933 C 0.23539 0.35688 0.35122 0.0
H934 H 0.2492 0.46897 0.36135 0.0
C935 C 0.23186 0.35579 0.32684 0.0
C936 C 0.23238 0.39456 0.31491 0.0
H937 H 0.23063 0.32469 0.3602 0.0
H938 H 0.22491 0.32309 0.31764 0.0
C939 C 0.24269 0.43691 0.32753 0.0
C940 C 0.68439 0.85446 0.35604 0.0
C941 C 0.72777 0.87957 0.36873 0.0
H942 H 0.65276 0.82937 0.32216 0.0
C943 C 0.77195 0.90796 0.35665 0.0
H944 H 0.65005 0.83206 0.36495 0.0
C945 C 0.77346 0.90676 0.33224 0.0
C946 C 0.73082 0.87698 0.31979 0.0
H947 H 0.80589 0.92775 0.36617 0.0
H948 H 0.80829 0.92528 0.32335 0.0
C949 C 0.68602 0.85278 0.33165 0.0
C950 C 0.20293 0.89608 0.33263 0.0
C951 C 0.22318 0.87211 0.32061 0.0
H952 H 0.19283 0.92079 0.36586 0.0
C953 C 0.24083 0.84642 0.33349 0.0
H954 H 0.18925 0.91624 0.32317 0.0
C955 C 0.24274 0.84878 0.35794 0.0
C956 C 0.22764 0.87745 0.3698 0.0
H957 H 0.25639 0.82734 0.32458 0.0
H958 H 0.25978 0.83167 0.36731 0.0
C959 C 0.20546 0.899 0.35705 0.0
C960 C 0.9121 0.7546 0.68827 0.0
C961 C 0.88477 0.71069 0.70047 0.0
H962 H 0.9308 0.78928 0.65472 0.0
C963 C 0.86296 0.66646 0.68797 0.0
H964 H 0.92944 0.78913 0.69745 0.0
C965 C 0.86408 0.66645 0.66352 0.0
C966 C 0.88652 0.71072 0.6513 0.0
H967 H 0.84221 0.63196 0.69703 0.0
H968 H 0.84375 0.63217 0.65428 0.0
C969 C 0.91269 0.75461 0.66383 0.0
C970 C 0.43736 0.24529 0.66654 0.0
C971 C 0.39443 0.21466 0.65446 0.0
H972 H 0.47043 0.26981 0.70017 0.0
C973 C 0.34987 0.19179 0.66655 0.0
H974 H 0.47202 0.26286 0.65749 0.0
C975 C 0.34869 0.19618 0.69086 0.0
C976 C 0.39227 0.22266 0.70331 0.0
H977 H 0.31639 0.16773 0.65738 0.0
H978 H 0.31443 0.175 0.70001 0.0
C979 C 0.43631 0.24917 0.69088 0.0
C980 C 0.88936 0.17645 0.66176 0.0
C981 C 0.87838 0.20765 0.649 0.0
H982 H 0.90722 0.15931 0.69537 0.0
C983 C 0.86812 0.23979 0.66107 0.0
H984 H 0.89766 0.15154 0.65271 0.0
C985 C 0.87474 0.24491 0.68527 0.0
C986 C 0.89046 0.21714 0.69766 0.0
H987 H 0.86025 0.2646 0.65162 0.0
H988 H 0.87087 0.27297 0.6941 0.0
C989 C 0.89502 0.18092 0.68606 0.0
C990 C 0.39691 1.00691 0.19627 0.0
C991 C 0.35033 0.96498 0.19371 0.0
H992 H 0.46835 0.05219 0.18176 0.0
C993 C 0.34189 0.93489 0.17428 0.0
H994 H 0.40512 0.03093 0.21114 0.0
C995 C 0.37853 0.94716 0.15754 0.0
C996 C 0.42472 0.98967 0.15983 0.0
H997 H 0.30698 0.90206 0.17192 0.0
H998 H 0.37027 0.92361 0.14246 0.0
C999 C 0.43368 1.01896 0.17961 0.0
C1000 C 0.16136 0.46995 0.16048 0.0
C1001 C 0.11312 0.46024 0.15812 0.0
H1002 H 0.20979 0.44964 0.1763 0.0
C1003 C 0.07609 0.42081 0.17045 0.0
H1004 H 0.19085 0.50023 0.15124 0.0
C1005 C 0.08702 0.39156 0.18459 0.0
C1006 C 0.13517 0.40097 0.18675 0.0
H1007 H 0.03857 0.41178 0.16873 0.0
H1008 H 0.05766 0.36168 0.19411 0.0
C1009 C 0.17225 0.44053 0.17451 0.0
C1010 C 0.70788 0.73835 0.17927 0.0
C1011 C 0.67474 0.74338 0.19362 0.0
H1012 H 0.71712 0.69588 0.1525 0.0
C1013 C 0.6255 0.70587 0.19332 0.0
H1014 H 0.74603 0.7661 0.17924 0.0
C1015 C 0.60947 0.66551 0.17866 0.0
C1016 C 0.64209 0.6609 0.16398 0.0
H1017 H 0.59868 0.70798 0.20417 0.0
H1018 H 0.57092 0.63901 0.17792 0.0
C1019 C 0.69158 0.69753 0.16448 0.0
C1020 C 0.95467 0.40131 0.85107 0.0
C1021 C 1.00461 0.42771 0.85622 0.0
H1022 H 0.89707 0.34227 0.83225 0.0
C1023 C 1.03495 0.4117 0.84667 0.0
H1024 H 0.93019 0.41218 0.85845 0.0
C1025 C 1.01539 0.37011 0.83217 0.0
C1026 C 0.96533 0.3442 0.82698 0.0
H1027 H 0.07336 0.43056 0.85084 0.0
H1028 H 0.03954 0.35932 0.82435 0.0
C1029 C 0.93546 0.36057 0.83651 0.0
C1030 C 0.69011 0.67235 0.8449 0.0
C1031 C 0.689 0.63576 0.85903 0.0
H1032 H 0.72889 0.72692 0.81885 0.0
C1033 C 0.72779 0.62637 0.85747 0.0
H1034 H 0.66132 0.68101 0.84592 0.0
C1035 C 0.76717 0.65345 0.84243 0.0
C1036 C 0.76834 0.69013 0.82836 0.0
H1037 H 0.72781 0.59801 0.86796 0.0
H1038 H 0.79587 0.64467 0.84134 0.0
C1039 C 0.72931 0.69918 0.82972 0.0
C1040 C 0.41188 0.08297 0.83166 0.0
C1041 C 0.42005 0.13097 0.83063 0.0
H1042 H 0.43078 0.03334 0.84753 0.0
C1043 C 0.45635 0.16662 0.84484 0.0
H1044 H 0.38448 0.05464 0.82069 0.0
C1045 C 0.48365 0.15455 0.85974 0.0
C1046 C 0.47502 0.1064 0.86109 0.0
H1047 H 0.46452 0.20407 0.84407 0.0
H1048 H 0.5115 0.18319 0.87037 0.0
C1049 C 0.43892 0.07078 0.84674 0.0
C1050 C 0.05755 0.3458 0.5257 0.0
C1051 C 1.01335 0.30078 0.52419 0.0
H1052 H 0.12774 0.39407 0.51052 0.0
C1053 C 1.00869 0.26794 0.50667 0.0
H1054 H 0.06274 0.3719 0.53921 0.0
C1055 C 0.04648 0.28039 0.49063 0.0
C1056 C 0.08992 0.32613 0.49155 0.0
H1057 H 0.97587 0.23267 0.50528 0.0
H1058 H 0.04096 0.25457 0.4769 0.0
C1059 C 0.09539 0.35835 0.50957 0.0
C1060 C 0.79864 0.80677 0.50363 0.0
C1061 C 0.75016 0.77905 0.49599 0.0
H1062 H 0.85637 0.80724 0.52359 0.0
C1063 C 0.72332 0.72944 0.50192 0.0
H1064 H 0.82067 0.84466 0.49855 0.0
C1065 C 0.74385 0.70803 0.51556 0.0
C1066 C 0.79225 0.73526 0.52311 0.0
H1067 H 0.68637 0.70693 0.49567 0.0
H1068 H 0.7215 0.67012 0.5206 0.0
C1069 C 0.81957 0.78498 0.51715 0.0
C1070 C 0.364 0.03867 0.49843 0.0
C1071 C 0.31748 0.99615 0.49855 0.0
H1072 H 0.41106 0.11011 0.51256 0.0
C1073 C 0.28226 0.99429 0.51393 0.0
H1074 H 0.39213 0.04162 0.4867 0.0
C1075 C 0.29311 0.03404 0.52857 0.0
C1076 C 0.33954 0.07679 0.52828 0.0
H1077 H 0.24599 0.96267 0.5143 0.0
H1078 H 0.26488 0.03105 0.54023 0.0
C1079 C 0.37486 0.0784 0.51304 0.0
C1080 C 0.5202 0.23519 0.07999 0.0
C1081 C 0.50672 0.24911 0.10087 0.0
H1082 H 0.52541 0.17852 0.06176 0.0
C1083 C 0.48082 0.21309 0.11786 0.0
H1084 H 0.54012 0.26195 0.06651 0.0
C1085 C 0.47241 0.1658 0.1151 0.0
C1086 C 0.48903 0.15275 0.09514 0.0
H1087 H 0.46863 0.22194 0.13385 0.0
H1088 H 0.45509 0.13995 0.12927 0.0
C1089 C 0.51144 0.18732 0.07715 0.0
C1090 C 0.84943 0.33191 0.09487 0.0
C1091 C 0.8425 0.29056 0.10719 0.0
H1092 H 0.8996 0.40227 0.08117 0.0
C1093 C 0.88392 0.2878 0.1134 0.0
H1094 H 0.81854 0.33491 0.08928 0.0
C1095 C 0.93107 0.32679 0.10856 0.0
C1096 C 0.93768 0.36923 0.09737 0.0
H1097 H 0.87995 0.25651 0.12292 0.0
H1098 H 0.9622 0.32459 0.11451 0.0
C1099 C 0.89615 0.37056 0.09008 0.0
C1100 C 0.78351 0.63237 0.10971 0.0
C1101 C 0.7434 0.59666 0.09712 0.0
H1102 H 0.85387 0.6547 0.12416 0.0
C1103 C 0.74633 0.55741 0.08754 0.0
H1104 H 0.78233 0.66283 0.11749 0.0
C1105 C 0.78734 0.55289 0.09116 0.0
C1106 C 0.82666 0.58721 0.10469 0.0
H1107 H 0.71635 0.52941 0.07755 0.0
H1108 H 0.78788 0.52201 0.0835 0.0
C1109 C 0.82458 0.62762 0.11352 0.0
C1110 C 0.23172 0.46717 0.90369 0.0
C1111 C 0.27569 0.51022 0.90899 0.0
H1112 H 0.15355 0.43118 0.90238 0.0
C1113 C 0.27314 0.54978 0.91834 0.0
H1114 H 0.23218 0.43573 0.8967 0.0
C1115 C 0.22833 0.54706 0.92164 0.0
C1116 C 0.18443 0.50465 0.91577 0.0
H1117 H 0.30597 0.58372 0.92238 0.0
H1118 H 0.22829 0.5789 0.92839 0.0
C1119 C 0.18657 0.46433 0.90714 0.0
C1120 C 0.55998 0.77179 0.92315 0.0
C1121 C 0.59731 0.81396 0.91238 0.0
H1122 H 0.53444 0.69872 0.93448 0.0
C1123 C 0.64055 0.8145 0.90619 0.0
H1124 H 0.5267 0.77018 0.92877 0.0
C1125 C 0.64535 0.7733 0.90985 0.0
C1126 C 0.60694 0.73053 0.91965 0.0
H1127 H 0.67006 0.84611 0.89773 0.0
H1128 H 0.67829 0.77429 0.90413 0.0
C1129 C 0.56463 0.73076 0.92662 0.0
C1130 C 0.38342 0.88772 0.92683 0.0
C1131 C 0.38347 0.93141 0.92253 0.0
H1132 H 0.34451 0.80986 0.92493 0.0
C1133 C 0.3406 0.92839 0.91402 0.0
H1134 H 0.41571 0.88841 0.93335 0.0
C1135 C 0.29938 0.88288 0.90918 0.0
C1136 C 0.29991 0.83923 0.91283 0.0
H1137 H 0.33929 0.96119 0.91044 0.0
H1138 H 0.26719 0.88194 0.90237 0.0
C1139 C 0.34232 0.8424 0.9221 0.0
C1140 C 0.13208 0.5425 0.44937 0.0
C1141 C 0.15661 0.57903 0.4324 0.0
H1142 H 0.10929 0.46974 0.4605 0.0
C1143 C 0.17137 0.56634 0.41153 0.0
H1144 H 0.1207 0.55069 0.46579 0.0
C1145 C 0.1641 0.51912 0.40838 0.0
C1146 C 0.14234 0.48392 0.42614 0.0
H1147 H 0.18998 0.59333 0.39797 0.0
H1148 H 0.17861 0.51131 0.39288 0.0
C1149 C 0.12534 0.49585 0.44633 0.0
C1150 C 0.55807 0.70357 0.41394 0.0
C1151 C 0.59962 0.70176 0.42059 0.0
H1152 H 0.48032 0.66683 0.41264 0.0
C1153 C 0.59358 0.65767 0.42933 0.0
H1154 H 0.56157 0.73737 0.40761 0.0
C1155 C 0.54667 0.61724 0.43275 0.0
C1156 C 0.5049 0.61989 0.42717 0.0
H1157 H 0.62486 0.65558 0.43515 0.0
H1158 H 0.54303 0.58448 0.44053 0.0
C1159 C 0.51142 0.6631 0.41694 0.0
C1160 C 0.44548 0.87913 0.42312 0.0
C1161 C 0.48966 0.92076 0.42922 0.0
H1162 H 0.36933 0.84856 0.41681 0.0
C1163 C 0.49149 0.96604 0.4301 0.0
H1164 H 0.44244 0.84364 0.42241 0.0
C1165 C 0.4493 0.96891 0.42662 0.0
C1166 C 0.40451 0.92647 0.42243 0.0
H1167 H 0.52511 0.99896 0.43444 0.0
H1168 H 0.45106 1.00359 0.42898 0.0
C1169 C 0.40346 0.88194 0.41989 0.0
C1170 C 0.88721 0.85883 0.26588 0.0
C1171 C 0.8445 0.81886 0.25699 0.0
H1172 H 0.96457 0.89471 0.2692 0.0
C1173 C 0.84827 0.78237 0.24492 0.0
H1174 H 0.88569 0.8875 0.27542 0.0
C1175 C 0.89401 0.78701 0.24093 0.0
C1176 C 0.93703 0.82808 0.24906 0.0
H1177 H 0.81619 0.7514 0.23762 0.0
H1178 H 0.8957 0.75925 0.23068 0.0
C1179 C 0.93269 0.86326 0.26209 0.0
C1180 C 0.30928 0.09215 0.2684 0.0
C1181 C 0.26677 0.04622 0.2685 0.0
H1182 H 0.33992 0.16927 0.26383 0.0
C1183 C 0.22146 0.04371 0.26709 0.0
H1184 H 0.34466 0.09509 0.26919 0.0
C1185 C 0.21863 0.0858 0.26395 0.0
C1186 C 0.26112 0.13155 0.2619 0.0
H1187 H 0.18806 1.0087 0.26704 0.0
H1188 H 0.18313 0.08197 0.26152 0.0
C1189 C 0.30649 0.13447 0.26499 0.0
C1190 C 0.96223 0.19923 0.25558 0.0
C1191 C 0.96428 0.15599 0.25748 0.0
H1192 H 1.00198 0.27769 0.25602 0.0
C1193 C 1.00835 0.15983 0.26462 0.0
H1194 H 0.92876 0.19771 0.25044 0.0
C1195 C 0.04996 0.20549 0.26796 0.0
C1196 C 0.04877 0.24873 0.26449 0.0
H1197 H 1.0117 0.12767 0.26613 0.0
H1198 H 0.08401 0.20702 0.27189 0.0
C1199 C 1.00398 0.24512 0.25916 0.0
C1200 C 0.80067 0.84989 0.75642 0.0
C1201 C 0.8422 0.84608 0.7525 0.0
H1202 H 0.77269 0.89747 0.76392 0.0
C1203 C 0.88754 0.8892 0.7504 0.0
H1204 H 0.76537 0.81736 0.75848 0.0
C1205 C 0.89189 0.93488 0.75362 0.0
C1206 C 0.85104 0.93885 0.7593 0.0
H1207 H 0.9203 0.88747 0.74755 0.0
H1208 H 0.92789 0.96687 0.75315 0.0
C1209 C 0.80508 0.89581 0.75991 0.0
C1210 C 0.2561 1.00553 0.75573 0.0
C1211 C 0.25973 0.05136 0.75438 0.0
H1212 H 0.20911 0.92891 0.76147 0.0
C1213 C 0.21694 0.0539 0.75417 0.0
H1214 H 0.2886 1.00268 0.75627 0.0
C1215 C 0.1716 1.01194 0.75703 0.0
C1216 C 0.16795 0.96642 0.76049 0.0
H1217 H 0.21875 0.08883 0.75304 0.0
H1218 H 0.13953 1.01551 0.75752 0.0
C1219 C 0.21054 0.96335 0.75884 0.0
C1220 C 0.14894 0.31114 0.77636 0.0
C1221 C 0.15018 0.26872 0.77032 0.0
H1222 H 0.1073 0.3474 0.77721 0.0
C1223 C 0.10985 0.23122 0.75861 0.0
H1224 H 0.1796 0.34113 0.78508 0.0
C1225 C 0.06878 0.23504 0.75395 0.0
C1226 C 0.06668 0.27651 0.7608 0.0
H1227 H 0.10906 0.19784 0.75385 0.0
H1228 H 0.03792 0.20456 0.74558 0.0
C1229 C 0.10771 0.31505 0.7716 0.0
C1230 C 0.5118 0.11896 0.58004 0.0
C1231 C 0.50888 0.15822 0.58955 0.0
H1232 H 0.55817 0.09288 0.56752 0.0
C1233 C 0.55251 0.20139 0.5949 0.0
H1234 H 0.47903 0.08527 0.57561 0.0
C1235 C 0.59774 0.20593 0.59013 0.0
C1236 C 0.60089 0.16748 0.57978 0.0
H1237 H 0.55187 0.2325 0.60223 0.0
H1238 H 0.63027 0.24042 0.59377 0.0
C1239 C 0.55725 0.12359 0.57516 0.0
C1240 C 0.88331 0.37914 0.59777 0.0
C1241 C 0.92855 0.38138 0.59822 0.0
H1242 H 0.84492 0.41761 0.59313 0.0
C1243 C 0.97118 0.42715 0.59722 0.0
H1244 H 0.84982 0.34424 0.59837 0.0
C1245 C 0.9684 0.46952 0.59393 0.0
C1246 C 0.92293 0.46683 0.59184 0.0
H1247 H 1.00649 0.42984 0.5972 0.0
H1248 H 1.00182 0.50414 0.59208 0.0
C1249 C 0.88051 0.42129 0.59476 0.0
C1250 C 0.62301 0.53378 0.58982 0.0
C1251 C 0.62474 0.49025 0.59079 0.0
H1252 H 0.66331 0.61226 0.5912 0.0
C1253 C 0.66905 0.49351 0.59695 0.0
H1254 H 0.58942 0.53273 0.58542 0.0
C1255 C 0.711 0.53887 0.60038 0.0
C1256 C 0.70999 0.58243 0.59802 0.0
H1257 H 0.67221 0.46116 0.59771 0.0
H1258 H 0.74509 0.53998 0.60363 0.0
C1259 C 0.66515 0.57939 0.59351 0.0
loop_
_geom_bond_atom_site_label_1
_geom_bond_atom_site_label_2
_geom_bond_distance
_geom_bond_site_symmetry_2
_ccdc_geom_bond_type
Dy0 O3 2.307 1_565 S
Dy0 O5 2.395 . S
Dy0 O6 2.379 . S
Dy0 O8 2.339 . S
Dy0 O10 2.298 . S
Dy0 O14 2.275 . S
Dy0 C22 2.738 . S
Dy1 O4 2.298 . S
Dy1 O7 2.275 . S
Dy1 O9 2.307 1_545 S
Dy1 O11 2.395 . S
Dy1 O12 2.379 . S
Dy1 O15 2.339 . S
Dy1 C31 2.738 . S
C2 O14 1.254 1_545 S
C2 O15 1.258 . S
O3 Dy0 2.307 1_545 S
O3 C13 1.266 . S
O4 Dy1 2.298 . S
O4 C13 1.236 . S
O5 Dy0 2.395 . S
O5 C22 1.255 . S
O6 Dy0 2.379 . S
O6 C22 1.249 . S
O7 Dy1 2.275 . S
O7 C23 1.254 . S
O8 Dy0 2.339 . S
O8 C23 1.257 1_565 S
O9 Dy1 2.307 1_565 S
O9 C24 1.266 . S
O10 Dy0 2.298 . S
O10 C24 1.236 . S
O11 Dy1 2.395 . S
O11 C31 1.255 . S
O12 Dy1 2.379 . S
O12 C31 1.249 . S
C13 O3 1.266 . S
C13 O4 1.236 . S
O14 Dy0 2.275 . S
O14 C2 1.254 1_565 S
O15 Dy1 2.339 . S
O15 C2 1.258 . S
C16 C19 1.344 . S
C16 C20 1.328 . S
C16 C22 1.516 . S
C17 C18 1.304 . S
C17 C21 1.323 . S
C18 C17 1.304 . S
C18 C19 1.371 . S
C18 H32 0.930 . S
C19 C16 1.344 . S
C19 C18 1.371 . S
C19 H33 0.931 . S
C20 C16 1.328 . S
C20 C21 1.433 . S
C20 H34 0.931 . S
C21 C17 1.323 . S
C21 C20 1.433 . S
C21 H35 0.933 . S
C22 Dy0 2.738 . S
C22 O5 1.255 . S
C22 O6 1.249 . S
C22 C16 1.516 . S
C23 O7 1.254 . S
C23 O8 1.257 1_545 S
C24 O9 1.266 . S
C24 O10 1.236 . S
C25 C28 1.344 . S
C25 C29 1.328 . S
C25 C31 1.516 . S
C26 C27 1.304 . S
C26 C30 1.323 . S
C27 C26 1.304 . S
C27 C28 1.371 . S
C27 H36 0.930 . S
C28 C25 1.344 . S
C28 C27 1.371 . S
C28 H37 0.931 . S
C29 C25 1.328 . S
C29 C30 1.433 . S
C29 H38 0.931 . S
C30 C26 1.323 . S
C30 C29 1.433 . S
C30 H39 0.933 . S
C31 Dy1 2.738 . S
C31 O11 1.255 . S
C31 O12 1.249 . S
C31 C25 1.516 . S
H32 C18 0.930 . S
H33 C19 0.931 . S
H34 C20 0.931 . S
H35 C21 0.933 . S
H36 C27 0.930 . S
H37 C28 0.931 . S
H38 C29 0.931 . S
H39 C30 0.933 . S
Dy40 O43 2.307 1_455 S
Dy40 O45 2.395 . S
Dy40 O46 2.379 . S
Dy40 O48 2.339 . S
Dy40 O50 2.298 . S
Dy40 O54 2.275 . S
Dy40 C62 2.738 . S
Dy41 O44 2.298 . S
Dy41 O47 2.275 1_655 S
Dy41 O49 2.307 1_655 S
Dy41 O51 2.395 . S
Dy41 O52 2.379 . S
Dy41 O55 2.339 1_655 S
Dy41 C71 2.738 . S
C42 O54 1.254 . S
C42 O55 1.257 . S
O43 Dy40 2.307 1_655 S
O43 C53 1.266 . S
O44 Dy41 2.298 . S
O44 C53 1.236 . S
O45 Dy40 2.395 . S
O45 C62 1.255 . S
O46 Dy40 2.379 . S
O46 C62 1.249 . S
O47 Dy41 2.275 1_455 S
O47 C63 1.254 . S
O48 Dy40 2.339 . S
O48 C63 1.257 . S
O49 Dy41 2.307 1_455 S
O49 C64 1.266 . S
O50 Dy40 2.298 . S
O50 C64 1.236 . S
O51 Dy41 2.395 . S
O51 C71 1.255 . S
O52 Dy41 2.379 . S
O52 C71 1.249 . S
C53 O43 1.266 . S
C53 O44 1.236 . S
O54 Dy40 2.275 . S
O54 C42 1.254 . S
O55 Dy41 2.339 1_455 S
O55 C42 1.257 . S
C56 C59 1.344 . S
C56 C60 1.328 . S
C56 C62 1.516 . S
C57 C58 1.304 . S
C57 C61 1.323 . S
C58 C57 1.304 . S
C58 C59 1.371 . S
C58 H72 0.930 . S
C59 C56 1.344 . S
C59 C58 1.371 . S
C59 H73 0.931 . S
C60 C56 1.328 . S
C60 C61 1.433 . S
C60 H74 0.931 . S
C61 C57 1.323 . S
C61 C60 1.433 . S
C61 H75 0.933 . S
C62 Dy40 2.738 . S
C62 O45 1.255 . S
C62 O46 1.249 . S
C62 C56 1.516 . S
C63 O47 1.254 . S
C63 O48 1.257 . S
C64 O49 1.266 . S
C64 O50 1.236 . S
C65 C68 1.344 . S
C65 C69 1.328 . S
C65 C71 1.516 . S
C66 C67 1.304 . S
C66 C70 1.323 . S
C67 C66 1.304 . S
C67 C68 1.371 . S
C67 H76 0.930 . S
C68 C65 1.344 . S
C68 C67 1.371 . S
C68 H77 0.931 . S
C69 C65 1.328 . S
C69 C70 1.433 . S
C69 H78 0.931 . S
C70 C66 1.323 . S
C70 C69 1.433 . S
C70 H79 0.933 . S
C71 Dy41 2.738 . S
C71 O51 1.255 . S
C71 O52 1.249 . S
C71 C65 1.516 . S
H72 C58 0.930 . S
H73 C59 0.931 . S
H74 C60 0.931 . S
H75 C61 0.933 . S
H76 C67 0.930 . S
H77 C68 0.931 . S
H78 C69 0.931 . S
H79 C70 0.933 . S
Dy80 O83 2.307 . S
Dy80 O85 2.395 . S
Dy80 O86 2.379 . S
Dy80 O88 2.339 . S
Dy80 O90 2.298 . S
Dy80 O94 2.275 . S
Dy80 C102 2.738 . S
Dy81 O84 2.298 . S
Dy81 O87 2.275 . S
Dy81 O89 2.307 . S
Dy81 O91 2.395 . S
Dy81 O92 2.379 . S
Dy81 O95 2.339 . S
Dy81 C111 2.738 . S
C82 O94 1.254 . S
C82 O95 1.257 . S
O83 Dy80 2.307 . S
O83 C93 1.266 . S
O84 Dy81 2.298 . S
O84 C93 1.236 . S
O85 Dy80 2.395 . S
O85 C102 1.255 . S
O86 Dy80 2.379 . S
O86 C102 1.249 . S
O87 Dy81 2.275 . S
O87 C103 1.254 . S
O88 Dy80 2.339 . S
O88 C103 1.257 . S
O89 Dy81 2.307 . S
O89 C104 1.266 . S
O90 Dy80 2.298 . S
O90 C104 1.236 . S
O91 Dy81 2.395 . S
O91 C111 1.255 . S
O92 Dy81 2.379 . S
O92 C111 1.249 . S
C93 O83 1.266 . S
C93 O84 1.236 . S
O94 Dy80 2.275 . S
O94 C82 1.254 . S
O95 Dy81 2.339 . S
O95 C82 1.257 . S
C96 C99 1.344 . S
C96 C100 1.328 . S
C96 C102 1.516 . S
C97 C98 1.304 . S
C97 C101 1.323 . S
C98 C97 1.304 . S
C98 C99 1.371 . S
C98 H112 0.930 . S
C99 C96 1.344 . S
C99 C98 1.371 . S
C99 H113 0.931 . S
C100 C96 1.328 . S
C100 C101 1.433 . S
C100 H114 0.931 . S
C101 C97 1.323 . S
C101 C100 1.433 . S
C101 H115 0.933 . S
C102 Dy80 2.738 . S
C102 O85 1.255 . S
C102 O86 1.249 . S
C102 C96 1.516 . S
C103 O87 1.254 . S
C103 O88 1.257 . S
C104 O89 1.266 . S
C104 O90 1.236 . S
C105 C108 1.344 . S
C105 C109 1.328 . S
C105 C111 1.516 . S
C106 C107 1.304 . S
C106 C110 1.323 . S
C107 C106 1.304 . S
C107 C108 1.371 . S
C107 H116 0.930 . S
C108 C105 1.344 . S
C108 C107 1.371 . S
C108 H117 0.931 . S
C109 C105 1.328 . S
C109 C110 1.433 . S
C109 H118 0.931 . S
C110 C106 1.323 . S
C110 C109 1.433 . S
C110 H119 0.933 . S
C111 Dy81 2.738 . S
C111 O91 1.255 . S
C111 O92 1.249 . S
C111 C105 1.516 . S
H112 C98 0.930 . S
H113 C99 0.931 . S
H114 C100 0.931 . S
H115 C101 0.933 . S
H116 C107 0.930 . S
H117 C108 0.931 . S
H118 C109 0.931 . S
H119 C110 0.933 . S
Dy120 O123 2.307 1_655 S
Dy120 O125 2.395 . S
Dy120 O126 2.379 . S
Dy120 O128 2.339 . S
Dy120 O130 2.298 . S
Dy120 O134 2.275 . S
Dy120 C142 2.738 . S
Dy121 O124 2.298 . S
Dy121 O127 2.275 . S
Dy121 O129 2.307 1_455 S
Dy121 O131 2.395 . S
Dy121 O132 2.379 . S
Dy121 O135 2.339 . S
Dy121 C151 2.738 . S
C122 O134 1.254 1_455 S
C122 O135 1.258 . S
O123 Dy120 2.307 1_455 S
O123 C133 1.266 . S
O124 Dy121 2.298 . S
O124 C133 1.236 . S
O125 Dy120 2.395 . S
O125 C142 1.255 . S
O126 Dy120 2.379 . S
O126 C142 1.249 . S
O127 Dy121 2.275 . S
O127 C143 1.254 . S
O128 Dy120 2.339 . S
O128 C143 1.257 1_655 S
O129 Dy121 2.307 1_655 S
O129 C144 1.266 . S
O130 Dy120 2.298 . S
O130 C144 1.236 . S
O131 Dy121 2.395 . S
O131 C151 1.255 . S
O132 Dy121 2.379 . S
O132 C151 1.249 . S
C133 O123 1.266 . S
C133 O124 1.236 . S
O134 Dy120 2.275 . S
O134 C122 1.254 1_655 S
O135 Dy121 2.339 . S
O135 C122 1.258 . S
C136 C139 1.344 . S
C136 C140 1.328 . S
C136 C142 1.516 . S
C137 C138 1.304 . S
C137 C141 1.323 . S
C138 C137 1.304 . S
C138 C139 1.371 . S
C138 H152 0.930 . S
C139 C136 1.344 . S
C139 C138 1.371 . S
C139 H153 0.931 . S
C140 C136 1.328 . S
C140 C141 1.433 . S
C140 H154 0.931 . S
C141 C137 1.323 . S
C141 C140 1.433 . S
C141 H155 0.933 . S
C142 Dy120 2.738 . S
C142 O125 1.255 . S
C142 O126 1.249 . S
C142 C136 1.516 . S
C143 O127 1.254 . S
C143 O128 1.257 1_455 S
C144 O129 1.266 . S
C144 O130 1.236 . S
C145 C148 1.344 . S
C145 C149 1.328 . S
C145 C151 1.516 . S
C146 C147 1.304 . S
C146 C150 1.323 . S
C147 C146 1.304 . S
C147 C148 1.371 . S
C147 H156 0.930 . S
C148 C145 1.344 . S
C148 C147 1.371 . S
C148 H157 0.931 . S
C149 C145 1.328 . S
C149 C150 1.433 . S
C149 H158 0.931 . S
C150 C146 1.323 . S
C150 C149 1.433 . S
C150 H159 0.933 . S
C151 Dy121 2.738 . S
C151 O131 1.255 . S
C151 O132 1.249 . S
C151 C145 1.516 . S
H152 C138 0.930 . S
H153 C139 0.931 . S
H154 C140 0.931 . S
H155 C141 0.933 . S
H156 C147 0.930 . S
H157 C148 0.931 . S
H158 C149 0.931 . S
H159 C150 0.933 . S
Dy160 O163 2.307 . S
Dy160 O165 2.395 . S
Dy160 O166 2.379 . S
Dy160 O168 2.339 . S
Dy160 O170 2.298 . S
Dy160 O174 2.275 . S
Dy160 C182 2.738 . S
Dy161 O164 2.298 . S
Dy161 O167 2.275 . S
Dy161 O169 2.307 . S
Dy161 O171 2.395 . S
Dy161 O172 2.379 . S
Dy161 O175 2.339 . S
Dy161 C191 2.738 . S
C162 O174 1.254 . S
C162 O175 1.257 . S
O163 Dy160 2.307 . S
O163 C173 1.266 . S
O164 Dy161 2.298 . S
O164 C173 1.236 . S
O165 Dy160 2.395 . S
O165 C182 1.255 . S
O166 Dy160 2.379 . S
O166 C182 1.249 . S
O167 Dy161 2.275 . S
O167 C183 1.254 . S
O168 Dy160 2.339 . S
O168 C183 1.257 . S
O169 Dy161 2.307 . S
O169 C184 1.266 . S
O170 Dy160 2.298 . S
O170 C184 1.236 . S
O171 Dy161 2.395 . S
O171 C191 1.255 . S
O172 Dy161 2.379 . S
O172 C191 1.249 . S
C173 O163 1.266 . S
C173 O164 1.236 . S
O174 Dy160 2.275 . S
O174 C162 1.254 . S
O175 Dy161 2.339 . S
O175 C162 1.257 . S
C176 C179 1.344 . S
C176 C180 1.328 . S
C176 C182 1.516 . S
C177 C178 1.304 . S
C177 C181 1.323 . S
C178 C177 1.304 . S
C178 C179 1.371 . S
C178 H192 0.930 . S
C179 C176 1.344 . S
C179 C178 1.371 . S
C179 H193 0.931 . S
C180 C176 1.328 . S
C180 C181 1.433 . S
C180 H194 0.931 . S
C181 C177 1.323 . S
C181 C180 1.433 . S
C181 H195 0.933 . S
C182 Dy160 2.738 . S
C182 O165 1.255 . S
C182 O166 1.249 . S
C182 C176 1.516 . S
C183 O167 1.254 . S
C183 O168 1.257 . S
C184 O169 1.266 . S
C184 O170 1.236 . S
C185 C188 1.344 . S
C185 C189 1.328 . S
C185 C191 1.516 . S
C186 C187 1.304 . S
C186 C190 1.323 . S
C187 C186 1.304 . S
C187 C188 1.371 . S
C187 H196 0.930 . S
C188 C185 1.344 . S
C188 C187 1.371 . S
C188 H197 0.931 . S
C189 C185 1.328 . S
C189 C190 1.433 . S
C189 H198 0.931 . S
C190 C186 1.323 . S
C190 C189 1.433 . S
C190 H199 0.933 . S
C191 Dy161 2.738 . S
C191 O171 1.255 . S
C191 O172 1.249 . S
C191 C185 1.516 . S
H192 C178 0.930 . S
H193 C179 0.931 . S
H194 C180 0.931 . S
H195 C181 0.933 . S
H196 C187 0.930 . S
H197 C188 0.931 . S
H198 C189 0.931 . S
H199 C190 0.933 . S
Dy200 O203 2.307 1_545 S
Dy200 O205 2.395 . S
Dy200 O206 2.379 . S
Dy200 O208 2.339 . S
Dy200 O210 2.298 . S
Dy200 O214 2.275 . S
Dy200 C222 2.738 . S
Dy201 O204 2.298 . S
Dy201 O207 2.275 1_565 S
Dy201 O209 2.307 1_565 S
Dy201 O211 2.395 . S
Dy201 O212 2.379 . S
Dy201 O215 2.339 1_565 S
Dy201 C231 2.738 . S
C202 O214 1.254 . S
C202 O215 1.257 . S
O203 Dy200 2.307 1_565 S
O203 C213 1.266 . S
O204 Dy201 2.298 . S
O204 C213 1.236 . S
O205 Dy200 2.395 . S
O205 C222 1.255 . S
O206 Dy200 2.379 . S
O206 C222 1.249 . S
O207 Dy201 2.275 1_545 S
O207 C223 1.254 . S
O208 Dy200 2.339 . S
O208 C223 1.257 . S
O209 Dy201 2.307 1_545 S
O209 C224 1.266 . S
O210 Dy200 2.298 . S
O210 C224 1.236 . S
O211 Dy201 2.395 . S
O211 C231 1.255 . S
O212 Dy201 2.379 . S
O212 C231 1.249 . S
C213 O203 1.266 . S
C213 O204 1.236 . S
O214 Dy200 2.275 . S
O214 C202 1.254 . S
O215 Dy201 2.339 1_545 S
O215 C202 1.257 . S
C216 C219 1.344 . S
C216 C220 1.328 . S
C216 C222 1.516 . S
C217 C218 1.304 . S
C217 C221 1.323 . S
C218 C217 1.304 . S
C218 C219 1.371 . S
C218 H232 0.930 . S
C219 C216 1.344 . S
C219 C218 1.371 . S
C219 H233 0.931 . S
C220 C216 1.328 . S
C220 C221 1.433 . S
C220 H234 0.931 . S
C221 C217 1.323 . S
C221 C220 1.433 . S
C221 H235 0.933 . S
C222 Dy200 2.738 . S
C222 O205 1.255 . S
C222 O206 1.249 . S
C222 C216 1.516 . S
C223 O207 1.254 . S
C223 O208 1.257 . S
C224 O209 1.266 . S
C224 O210 1.236 . S
C225 C228 1.344 . S
C225 C229 1.328 . S
C225 C231 1.516 . S
C226 C227 1.304 . S
C226 C230 1.323 . S
C227 C226 1.304 . S
C227 C228 1.371 . S
C227 H236 0.930 . S
C228 C225 1.344 . S
C228 C227 1.371 . S
C228 H237 0.931 . S
C229 C225 1.328 . S
C229 C230 1.433 . S
C229 H238 0.931 . S
C230 C226 1.323 . S
C230 C229 1.433 . S
C230 H239 0.933 . S
C231 Dy201 2.738 . S
C231 O211 1.255 . S
C231 O212 1.249 . S
C231 C225 1.516 . S
H232 C218 0.930 . S
H233 C219 0.931 . S
H234 C220 0.931 . S
H235 C221 0.933 . S
H236 C227 0.930 . S
H237 C228 0.931 . S
H238 C229 0.931 . S
H239 C230 0.933 . S
Dy240 O243 2.307 . S
Dy240 O245 2.395 . S
Dy240 O246 2.379 . S
Dy240 O248 2.339 . S
Dy240 O250 2.298 . S
Dy240 O254 2.275 . S
Dy240 C262 2.738 . S
Dy241 O244 2.298 . S
Dy241 O247 2.275 . S
Dy241 O249 2.307 . S
Dy241 O251 2.395 . S
Dy241 O252 2.379 . S
Dy241 O255 2.339 . S
Dy241 C271 2.738 . S
C242 O254 1.254 . S
C242 O255 1.257 . S
O243 Dy240 2.307 . S
O243 C253 1.266 . S
O244 Dy241 2.298 . S
O244 C253 1.236 . S
O245 Dy240 2.395 . S
O245 C262 1.255 . S
O246 Dy240 2.379 . S
O246 C262 1.249 . S
O247 Dy241 2.275 . S
O247 C263 1.254 . S
O248 Dy240 2.339 . S
O248 C263 1.257 . S
O249 Dy241 2.307 . S
O249 C264 1.266 . S
O250 Dy240 2.298 . S
O250 C264 1.236 . S
O251 Dy241 2.395 . S
O251 C271 1.255 . S
O252 Dy241 2.379 . S
O252 C271 1.249 . S
C253 O243 1.266 . S
C253 O244 1.236 . S
O254 Dy240 2.275 . S
O254 C242 1.254 . S
O255 Dy241 2.339 . S
O255 C242 1.257 . S
C256 C259 1.344 . S
C256 C260 1.328 . S
C256 C262 1.516 1_655 S
C257 C258 1.304 . S
C257 C261 1.323 . S
C258 C257 1.304 . S
C258 C259 1.371 . S
C258 H272 0.930 . S
C259 C256 1.344 . S
C259 C258 1.371 . S
C259 H273 0.931 . S
C260 C256 1.328 . S
C260 C261 1.433 . S
C260 H274 0.931 . S
C261 C257 1.323 . S
C261 C260 1.433 . S
C261 H275 0.933 . S
C262 Dy240 2.738 . S
C262 O245 1.255 . S
C262 O246 1.249 . S
C262 C256 1.516 1_455 S
C263 O247 1.254 . S
C263 O248 1.257 . S
C264 O249 1.266 . S
C264 O250 1.236 . S
C265 C268 1.344 . S
C265 C269 1.328 . S
C265 C271 1.516 . S
C266 C267 1.304 . S
C266 C270 1.323 . S
C267 C266 1.304 . S
C267 C268 1.371 . S
C267 H276 0.930 . S
C268 C265 1.344 . S
C268 C267 1.371 . S
C268 H277 0.931 . S
C269 C265 1.328 . S
C269 C270 1.433 . S
C269 H278 0.931 . S
C270 C266 1.323 . S
C270 C269 1.433 . S
C270 H279 0.933 . S
C271 Dy241 2.738 . S
C271 O251 1.255 . S
C271 O252 1.249 . S
C271 C265 1.516 . S
H272 C258 0.930 . S
H273 C259 0.931 . S
H274 C260 0.931 . S
H275 C261 0.933 . S
H276 C267 0.930 . S
H277 C268 0.931 . S
H278 C269 0.931 . S
H279 C270 0.933 . S
Dy280 O283 2.307 . S
Dy280 O285 2.395 . S
Dy280 O286 2.379 . S
Dy280 O288 2.339 . S
Dy280 O290 2.298 . S
Dy280 O294 2.275 . S
Dy280 C302 2.738 . S
Dy281 O284 2.298 . S
Dy281 O287 2.275 . S
Dy281 O289 2.307 . S
Dy281 O291 2.395 . S
Dy281 O292 2.379 . S
Dy281 O295 2.339 . S
Dy281 C311 2.738 . S
C282 O294 1.254 . S
C282 O295 1.257 . S
O283 Dy280 2.307 . S
O283 C293 1.266 . S
O284 Dy281 2.298 . S
O284 C293 1.236 . S
O285 Dy280 2.395 . S
O285 C302 1.255 . S
O286 Dy280 2.379 . S
O286 C302 1.249 . S
O287 Dy281 2.275 . S
O287 C303 1.254 . S
O288 Dy280 2.339 . S
O288 C303 1.257 . S
O289 Dy281 2.307 . S
O289 C304 1.266 . S
O290 Dy280 2.298 . S
O290 C304 1.236 . S
O291 Dy281 2.395 . S
O291 C311 1.255 . S
O292 Dy281 2.379 . S
O292 C311 1.249 . S
C293 O283 1.266 . S
C293 O284 1.236 . S
O294 Dy280 2.275 . S
O294 C282 1.254 . S
O295 Dy281 2.339 . S
O295 C282 1.257 . S
C296 C299 1.344 . S
C296 C300 1.328 . S
C296 C302 1.516 . S
C297 C298 1.304 . S
C297 C301 1.323 . S
C298 C297 1.304 . S
C298 C299 1.371 . S
C298 H312 0.930 . S
C299 C296 1.344 . S
C299 C298 1.371 . S
C299 H313 0.931 . S
C300 C296 1.328 . S
C300 C301 1.433 . S
C300 H314 0.931 . S
C301 C297 1.323 . S
C301 C300 1.433 . S
C301 H315 0.933 . S
C302 Dy280 2.738 . S
C302 O285 1.255 . S
C302 O286 1.249 . S
C302 C296 1.516 . S
C303 O287 1.254 . S
C303 O288 1.257 . S
C304 O289 1.266 . S
C304 O290 1.236 . S
C305 C308 1.344 . S
C305 C309 1.328 . S
C305 C311 1.516 . S
C306 C307 1.304 . S
C306 C310 1.323 . S
C307 C306 1.304 . S
C307 C308 1.371 . S
C307 H316 0.930 . S
C308 C305 1.344 . S
C308 C307 1.371 . S
C308 H317 0.931 . S
C309 C305 1.328 . S
C309 C310 1.433 . S
C309 H318 0.931 . S
C310 C306 1.323 . S
C310 C309 1.433 . S
C310 H319 0.933 . S
C311 Dy281 2.738 . S
C311 O291 1.255 . S
C311 O292 1.249 . S
C311 C305 1.516 . S
H312 C298 0.930 . S
H313 C299 0.931 . S
H314 C300 0.931 . S
H315 C301 0.933 . S
H316 C307 0.930 . S
H317 C308 0.931 . S
H318 C309 0.931 . S
H319 C310 0.933 . S
Dy320 O323 2.307 . S
Dy320 O325 2.395 1_565 S
Dy320 O326 2.379 1_565 S
Dy320 O328 2.339 . S
Dy320 O330 2.298 . S
Dy320 O334 2.275 . S
Dy320 C342 2.738 1_565 S
Dy321 O324 2.298 . S
Dy321 O327 2.275 . S
Dy321 O329 2.307 . S
Dy321 O331 2.395 . S
Dy321 O332 2.379 . S
Dy321 O335 2.339 . S
Dy321 C351 2.738 . S
C322 O334 1.254 . S
C322 O335 1.257 . S
O323 Dy320 2.307 . S
O323 C333 1.266 . S
O324 Dy321 2.298 . S
O324 C333 1.236 . S
O325 Dy320 2.395 1_545 S
O325 C342 1.255 . S
O326 Dy320 2.379 1_545 S
O326 C342 1.249 . S
O327 Dy321 2.275 . S
O327 C343 1.254 . S
O328 Dy320 2.339 . S
O328 C343 1.257 . S
O329 Dy321 2.307 . S
O329 C344 1.266 . S
O330 Dy320 2.298 . S
O330 C344 1.236 . S
O331 Dy321 2.395 . S
O331 C351 1.255 . S
O332 Dy321 2.379 . S
O332 C351 1.249 . S
C333 O323 1.266 . S
C333 O324 1.236 . S
O334 Dy320 2.275 . S
O334 C322 1.254 . S
O335 Dy321 2.339 . S
O335 C322 1.257 . S
C336 C339 1.344 . S
C336 C340 1.328 . S
C336 C342 1.516 . S
C337 C338 1.304 . S
C337 C341 1.323 . S
C338 C337 1.304 . S
C338 C339 1.371 . S
C338 H352 0.930 . S
C339 C336 1.344 . S
C339 C338 1.371 . S
C339 H353 0.931 . S
C340 C336 1.328 . S
C340 C341 1.433 . S
C340 H354 0.931 . S
C341 C337 1.323 . S
C341 C340 1.433 . S
C341 H355 0.933 . S
C342 Dy320 2.738 1_545 S
C342 O325 1.255 . S
C342 O326 1.249 . S
C342 C336 1.516 . S
C343 O327 1.254 . S
C343 O328 1.257 . S
C344 O329 1.266 . S
C344 O330 1.236 . S
C345 C348 1.344 . S
C345 C349 1.328 . S
C345 C351 1.516 . S
C346 C347 1.304 . S
C346 C350 1.323 . S
C347 C346 1.304 . S
C347 C348 1.371 . S
C347 H356 0.930 . S
C348 C345 1.344 . S
C348 C347 1.371 . S
C348 H357 0.931 . S
C349 C345 1.328 . S
C349 C350 1.433 . S
C349 H358 0.931 . S
C350 C346 1.323 . S
C350 C349 1.433 . S
C350 H359 0.933 . S
C351 Dy321 2.738 . S
C351 O331 1.255 . S
C351 O332 1.249 . S
C351 C345 1.516 . S
H352 C338 0.930 . S
H353 C339 0.931 . S
H354 C340 0.931 . S
H355 C341 0.933 . S
H356 C347 0.930 . S
H357 C348 0.931 . S
H358 C349 0.931 . S
H359 C350 0.933 . S
Dy360 O363 2.307 . S
Dy360 O365 2.395 . S
Dy360 O366 2.379 . S
Dy360 O368 2.339 . S
Dy360 O370 2.298 . S
Dy360 O374 2.275 . S
Dy360 C382 2.738 . S
Dy361 O364 2.298 . S
Dy361 O367 2.275 . S
Dy361 O369 2.307 . S
Dy361 O371 2.395 . S
Dy361 O372 2.379 . S
Dy361 O375 2.339 . S
Dy361 C391 2.738 . S
C362 O374 1.254 . S
C362 O375 1.257 . S
O363 Dy360 2.307 . S
O363 C373 1.266 . S
O364 Dy361 2.298 . S
O364 C373 1.236 . S
O365 Dy360 2.395 . S
O365 C382 1.255 . S
O366 Dy360 2.379 . S
O366 C382 1.249 . S
O367 Dy361 2.275 . S
O367 C383 1.254 . S
O368 Dy360 2.339 . S
O368 C383 1.257 . S
O369 Dy361 2.307 . S
O369 C384 1.266 . S
O370 Dy360 2.298 . S
O370 C384 1.236 . S
O371 Dy361 2.395 . S
O371 C391 1.255 . S
O372 Dy361 2.379 . S
O372 C391 1.249 . S
C373 O363 1.266 . S
C373 O364 1.236 . S
O374 Dy360 2.275 . S
O374 C362 1.254 . S
O375 Dy361 2.339 . S
O375 C362 1.257 . S
C376 C379 1.344 . S
C376 C380 1.328 . S
C376 C382 1.516 . S
C377 C378 1.304 . S
C377 C381 1.323 . S
C378 C377 1.304 . S
C378 C379 1.371 . S
C378 H392 0.930 . S
C379 C376 1.344 . S
C379 C378 1.371 . S
C379 H393 0.931 . S
C380 C376 1.328 . S
C380 C381 1.433 . S
C380 H394 0.931 . S
C381 C377 1.323 . S
C381 C380 1.433 . S
C381 H395 0.933 . S
C382 Dy360 2.738 . S
C382 O365 1.255 . S
C382 O366 1.249 . S
C382 C376 1.516 . S
C383 O367 1.254 . S
C383 O368 1.257 . S
C384 O369 1.266 . S
C384 O370 1.236 . S
C385 C388 1.344 . S
C385 C389 1.328 . S
C385 C391 1.516 1_545 S
C386 C387 1.304 . S
C386 C390 1.323 . S
C387 C386 1.304 . S
C387 C388 1.371 . S
C387 H396 0.930 . S
C388 C385 1.344 . S
C388 C387 1.371 . S
C388 H397 0.931 1_545 S
C389 C385 1.328 . S
C389 C390 1.433 . S
C389 H398 0.931 . S
C390 C386 1.323 . S
C390 C389 1.433 . S
C390 H399 0.933 . S
C391 Dy361 2.738 . S
C391 O371 1.255 . S
C391 O372 1.249 . S
C391 C385 1.516 1_565 S
H392 C378 0.930 . S
H393 C379 0.931 . S
H394 C380 0.931 . S
H395 C381 0.933 . S
H396 C387 0.930 . S
H397 C388 0.931 1_565 S
H398 C389 0.931 . S
H399 C390 0.933 . S
Dy400 O403 2.307 . S
Dy400 O405 2.395 . S
Dy400 O406 2.379 . S
Dy400 O408 2.339 . S
Dy400 O410 2.298 . S
Dy400 O414 2.275 . S
Dy400 C422 2.738 . S
Dy401 O404 2.298 . S
Dy401 O407 2.275 . S
Dy401 O409 2.307 . S
Dy401 O411 2.395 . S
Dy401 O412 2.379 . S
Dy401 O415 2.339 . S
Dy401 C431 2.738 . S
C402 O414 1.254 . S
C402 O415 1.257 . S
O403 Dy400 2.307 . S
O403 C413 1.266 . S
O404 Dy401 2.298 . S
O404 C413 1.236 . S
O405 Dy400 2.395 . S
O405 C422 1.255 . S
O406 Dy400 2.379 . S
O406 C422 1.249 . S
O407 Dy401 2.275 . S
O407 C423 1.254 . S
O408 Dy400 2.339 . S
O408 C423 1.257 . S
O409 Dy401 2.307 . S
O409 C424 1.266 . S
O410 Dy400 2.298 . S
O410 C424 1.236 . S
O411 Dy401 2.395 . S
O411 C431 1.255 . S
O412 Dy401 2.379 . S
O412 C431 1.249 . S
C413 O403 1.266 . S
C413 O404 1.236 . S
O414 Dy400 2.275 . S
O414 C402 1.254 . S
O415 Dy401 2.339 . S
O415 C402 1.257 . S
C416 C419 1.344 . S
C416 C420 1.328 . S
C416 C422 1.516 . S
C417 C418 1.304 . S
C417 C421 1.323 . S
C418 C417 1.304 . S
C418 C419 1.371 . S
C418 H432 0.930 . S
C419 C416 1.344 . S
C419 C418 1.371 . S
C419 H433 0.931 . S
C420 C416 1.328 . S
C420 C421 1.433 . S
C420 H434 0.931 . S
C421 C417 1.323 . S
C421 C420 1.433 . S
C421 H435 0.933 . S
C422 Dy400 2.738 . S
C422 O405 1.255 . S
C422 O406 1.249 . S
C422 C416 1.516 . S
C423 O407 1.254 . S
C423 O408 1.257 . S
C424 O409 1.266 . S
C424 O410 1.236 . S
C425 C428 1.344 . S
C425 C429 1.328 . S
C425 C431 1.516 . S
C426 C427 1.304 . S
C426 C430 1.323 . S
C427 C426 1.304 . S
C427 C428 1.371 1_655 S
C427 H436 0.930 . S
C428 C425 1.344 . S
C428 C427 1.371 1_455 S
C428 H437 0.931 . S
C429 C425 1.328 . S
C429 C430 1.433 1_455 S
C429 H438 0.931 . S
C430 C426 1.323 . S
C430 C429 1.433 1_655 S
C430 H439 0.933 . S
C431 Dy401 2.738 . S
C431 O411 1.255 . S
C431 O412 1.249 . S
C431 C425 1.516 . S
H432 C418 0.930 . S
H433 C419 0.931 . S
H434 C420 0.931 . S
H435 C421 0.933 . S
H436 C427 0.930 . S
H437 C428 0.931 . S
H438 C429 0.931 . S
H439 C430 0.933 . S
Dy440 O443 2.307 . S
Dy440 O445 2.395 . S
Dy440 O446 2.379 . S
Dy440 O448 2.339 . S
Dy440 O450 2.298 . S
Dy440 O454 2.275 . S
Dy440 C462 2.738 . S
Dy441 O444 2.298 . S
Dy441 O447 2.275 . S
Dy441 O449 2.307 . S
Dy441 O451 2.395 . S
Dy441 O452 2.379 . S
Dy441 O455 2.339 . S
Dy441 C471 2.738 . S
C442 O454 1.254 . S
C442 O455 1.257 . S
O443 Dy440 2.307 . S
O443 C453 1.266 . S
O444 Dy441 2.298 . S
O444 C453 1.236 . S
O445 Dy440 2.395 . S
O445 C462 1.255 . S
O446 Dy440 2.379 . S
O446 C462 1.249 . S
O447 Dy441 2.275 . S
O447 C463 1.254 . S
O448 Dy440 2.339 . S
O448 C463 1.257 . S
O449 Dy441 2.307 . S
O449 C464 1.266 . S
O450 Dy440 2.298 . S
O450 C464 1.236 . S
O451 Dy441 2.395 . S
O451 C471 1.255 . S
O452 Dy441 2.379 . S
O452 C471 1.249 . S
C453 O443 1.266 . S
C453 O444 1.236 . S
O454 Dy440 2.275 . S
O454 C442 1.254 . S
O455 Dy441 2.339 . S
O455 C442 1.257 . S
C456 C459 1.344 . S
C456 C460 1.328 . S
C456 C462 1.516 . S
C457 C458 1.304 . S
C457 C461 1.323 . S
C458 C457 1.304 . S
C458 C459 1.371 . S
C458 H472 0.930 . S
C459 C456 1.344 . S
C459 C458 1.371 . S
C459 H473 0.931 . S
C460 C456 1.328 . S
C460 C461 1.433 . S
C460 H474 0.931 . S
C461 C457 1.323 . S
C461 C460 1.433 . S
C461 H475 0.933 . S
C462 Dy440 2.738 . S
C462 O445 1.255 . S
C462 O446 1.249 . S
C462 C456 1.516 . S
C463 O447 1.254 . S
C463 O448 1.257 . S
C464 O449 1.266 . S
C464 O450 1.236 . S
C465 C468 1.344 . S
C465 C469 1.328 . S
C465 C471 1.516 . S
C466 C467 1.304 . S
C466 C470 1.323 . S
C467 C466 1.304 . S
C467 C468 1.371 . S
C467 H476 0.930 . S
C468 C465 1.344 . S
C468 C467 1.371 . S
C468 H477 0.931 . S
C469 C465 1.328 . S
C469 C470 1.433 . S
C469 H478 0.931 . S
C470 C466 1.323 . S
C470 C469 1.433 . S
C470 H479 0.933 . S
C471 Dy441 2.738 . S
C471 O451 1.255 . S
C471 O452 1.249 . S
C471 C465 1.516 . S
H472 C458 0.930 . S
H473 C459 0.931 . S
H474 C460 0.931 . S
H475 C461 0.933 . S
H476 C467 0.930 . S
H477 C468 0.931 . S
H478 C469 0.931 . S
H479 C470 0.933 . S
Dy480 O483 2.307 . S
Dy480 O485 2.395 . S
Dy480 O486 2.379 . S
Dy480 O488 2.339 . S
Dy480 O490 2.298 . S
Dy480 O494 2.275 . S
Dy480 C502 2.738 . S
Dy481 O484 2.298 . S
Dy481 O487 2.275 . S
Dy481 O489 2.307 . S
Dy481 O491 2.395 . S
Dy481 O492 2.379 . S
Dy481 O495 2.339 . S
Dy481 C511 2.738 . S
C482 O494 1.254 . S
C482 O495 1.257 . S
O483 Dy480 2.307 . S
O483 C493 1.266 . S
O484 Dy481 2.298 . S
O484 C493 1.236 . S
O485 Dy480 2.395 . S
O485 C502 1.255 . S
O486 Dy480 2.379 . S
O486 C502 1.249 . S
O487 Dy481 2.275 . S
O487 C503 1.254 . S
O488 Dy480 2.339 . S
O488 C503 1.257 . S
O489 Dy481 2.307 . S
O489 C504 1.266 . S
O490 Dy480 2.298 . S
O490 C504 1.236 . S
O491 Dy481 2.395 . S
O491 C511 1.255 . S
O492 Dy481 2.379 . S
O492 C511 1.249 . S
C493 O483 1.266 . S
C493 O484 1.236 . S
O494 Dy480 2.275 . S
O494 C482 1.254 . S
O495 Dy481 2.339 . S
O495 C482 1.257 . S
C496 C499 1.344 . S
C496 C500 1.328 . S
C496 C502 1.516 . S
C497 C498 1.304 . S
C497 C501 1.323 . S
C498 C497 1.304 . S
C498 C499 1.371 . S
C498 H512 0.930 . S
C499 C496 1.344 . S
C499 C498 1.371 . S
C499 H513 0.931 . S
C500 C496 1.328 . S
C500 C501 1.433 . S
C500 H514 0.931 . S
C501 C497 1.323 . S
C501 C500 1.433 . S
C501 H515 0.933 . S
C502 Dy480 2.738 . S
C502 O485 1.255 . S
C502 O486 1.249 . S
C502 C496 1.516 . S
C503 O487 1.254 . S
C503 O488 1.257 . S
C504 O489 1.266 . S
C504 O490 1.236 . S
C505 C508 1.344 . S
C505 C509 1.328 . S
C505 C511 1.516 1_455 S
C506 C507 1.304 . S
C506 C510 1.323 . S
C507 C506 1.304 . S
C507 C508 1.371 . S
C507 H516 0.930 . S
C508 C505 1.344 . S
C508 C507 1.371 . S
C508 H517 0.931 1_455 S
C509 C505 1.328 . S
C509 C510 1.433 . S
C509 H518 0.931 . S
C510 C506 1.323 . S
C510 C509 1.433 . S
C510 H519 0.933 . S
C511 Dy481 2.738 . S
C511 O491 1.255 . S
C511 O492 1.249 . S
C511 C505 1.516 1_655 S
H512 C498 0.930 . S
H513 C499 0.931 . S
H514 C500 0.931 . S
H515 C501 0.933 . S
H516 C507 0.930 . S
H517 C508 0.931 1_655 S
H518 C509 0.931 . S
H519 C510 0.933 . S
Dy520 O523 2.307 . S
Dy520 O525 2.395 . S
Dy520 O526 2.379 . S
Dy520 O528 2.339 . S
Dy520 O530 2.298 . S
Dy520 O534 2.275 . S
Dy520 C542 2.738 . S
Dy521 O524 2.298 . S
Dy521 O527 2.275 . S
Dy521 O529 2.307 . S
Dy521 O531 2.395 . S
Dy521 O532 2.379 . S
Dy521 O535 2.339 . S
Dy521 C551 2.738 . S
C522 O534 1.254 . S
C522 O535 1.257 . S
O523 Dy520 2.307 . S
O523 C533 1.266 . S
O524 Dy521 2.298 . S
O524 C533 1.236 . S
O525 Dy520 2.395 . S
O525 C542 1.255 . S
O526 Dy520 2.379 . S
O526 C542 1.249 . S
O527 Dy521 2.275 . S
O527 C543 1.254 . S
O528 Dy520 2.339 . S
O528 C543 1.257 . S
O529 Dy521 2.307 . S
O529 C544 1.266 . S
O530 Dy520 2.298 . S
O530 C544 1.236 . S
O531 Dy521 2.395 . S
O531 C551 1.255 . S
O532 Dy521 2.379 . S
O532 C551 1.249 . S
C533 O523 1.266 . S
C533 O524 1.236 . S
O534 Dy520 2.275 . S
O534 C522 1.254 . S
O535 Dy521 2.339 . S
O535 C522 1.257 . S
C536 C539 1.344 . S
C536 C540 1.328 . S
C536 C542 1.516 . S
C537 C538 1.304 . S
C537 C541 1.323 . S
C538 C537 1.304 . S
C538 C539 1.371 . S
C538 H552 0.930 . S
C539 C536 1.344 . S
C539 C538 1.371 . S
C539 H553 0.931 . S
C540 C536 1.328 . S
C540 C541 1.433 . S
C540 H554 0.931 . S
C541 C537 1.323 . S
C541 C540 1.433 . S
C541 H555 0.933 . S
C542 Dy520 2.738 . S
C542 O525 1.255 . S
C542 O526 1.249 . S
C542 C536 1.516 . S
C543 O527 1.254 . S
C543 O528 1.257 . S
C544 O529 1.266 . S
C544 O530 1.236 . S
C545 C548 1.344 . S
C545 C549 1.328 . S
C545 C551 1.516 . S
C546 C547 1.304 . S
C546 C550 1.323 . S
C547 C546 1.304 . S
C547 C548 1.371 . S
C547 H556 0.930 . S
C548 C545 1.344 . S
C548 C547 1.371 . S
C548 H557 0.931 . S
C549 C545 1.328 . S
C549 C550 1.433 . S
C549 H558 0.931 . S
C550 C546 1.323 . S
C550 C549 1.433 . S
C550 H559 0.933 . S
C551 Dy521 2.738 . S
C551 O531 1.255 . S
C551 O532 1.249 . S
C551 C545 1.516 . S
H552 C538 0.930 . S
H553 C539 0.931 . S
H554 C540 0.931 . S
H555 C541 0.933 . S
H556 C547 0.930 . S
H557 C548 0.931 . S
H558 C549 0.931 . S
H559 C550 0.933 . S
Dy560 O563 2.307 . S
Dy560 O565 2.395 . S
Dy560 O566 2.379 . S
Dy560 O568 2.339 . S
Dy560 O570 2.298 . S
Dy560 O574 2.275 . S
Dy560 C582 2.738 . S
Dy561 O564 2.298 . S
Dy561 O567 2.275 . S
Dy561 O569 2.307 . S
Dy561 O571 2.395 . S
Dy561 O572 2.379 . S
Dy561 O575 2.339 . S
Dy561 C591 2.738 . S
C562 O574 1.254 . S
C562 O575 1.257 . S
O563 Dy560 2.307 . S
O563 C573 1.266 . S
O564 Dy561 2.298 . S
O564 C573 1.236 . S
O565 Dy560 2.395 . S
O565 C582 1.255 . S
O566 Dy560 2.379 . S
O566 C582 1.249 . S
O567 Dy561 2.275 . S
O567 C583 1.254 . S
O568 Dy560 2.339 . S
O568 C583 1.257 . S
O569 Dy561 2.307 . S
O569 C584 1.266 . S
O570 Dy560 2.298 . S
O570 C584 1.236 . S
O571 Dy561 2.395 . S
O571 C591 1.255 . S
O572 Dy561 2.379 . S
O572 C591 1.249 . S
C573 O563 1.266 . S
C573 O564 1.236 . S
O574 Dy560 2.275 . S
O574 C562 1.254 . S
O575 Dy561 2.339 . S
O575 C562 1.257 . S
C576 C579 1.344 . S
C576 C580 1.328 . S
C576 C582 1.516 . S
C577 C578 1.304 . S
C577 C581 1.323 . S
C578 C577 1.304 . S
C578 C579 1.371 . S
C578 H592 0.930 . S
C579 C576 1.344 . S
C579 C578 1.371 . S
C579 H593 0.931 . S
C580 C576 1.328 . S
C580 C581 1.433 . S
C580 H594 0.931 . S
C581 C577 1.323 . S
C581 C580 1.433 . S
C581 H595 0.933 . S
C582 Dy560 2.738 . S
C582 O565 1.255 . S
C582 O566 1.249 . S
C582 C576 1.516 . S
C583 O567 1.254 . S
C583 O568 1.257 . S
C584 O569 1.266 . S
C584 O570 1.236 . S
C585 C588 1.344 . S
C585 C589 1.328 . S
C585 C591 1.516 . S
C586 C587 1.304 . S
C586 C590 1.323 . S
C587 C586 1.304 . S
C587 C588 1.371 1_565 S
C587 H596 0.930 . S
C588 C585 1.344 . S
C588 C587 1.371 1_545 S
C588 H597 0.931 . S
C589 C585 1.328 . S
C589 C590 1.433 1_545 S
C589 H598 0.931 . S
C590 C586 1.323 . S
C590 C589 1.433 1_565 S
C590 H599 0.933 . S
C591 Dy561 2.738 . S
C591 O571 1.255 . S
C591 O572 1.249 . S
C591 C585 1.516 . S
H592 C578 0.930 . S
H593 C579 0.931 . S
H594 C580 0.931 . S
H595 C581 0.933 . S
H596 C587 0.930 . S
H597 C588 0.931 . S
H598 C589 0.931 . S
H599 C590 0.933 . S
Dy600 O603 2.307 . S
Dy600 O605 2.395 . S
Dy600 O606 2.379 . S
Dy600 O608 2.339 . S
Dy600 O610 2.298 . S
Dy600 O614 2.275 . S
Dy600 C622 2.738 . S
Dy601 O604 2.298 . S
Dy601 O607 2.275 . S
Dy601 O609 2.307 . S
Dy601 O611 2.395 . S
Dy601 O612 2.379 . S
Dy601 O615 2.339 . S
Dy601 C631 2.738 . S
C602 O614 1.254 . S
C602 O615 1.257 . S
O603 Dy600 2.307 . S
O603 C613 1.266 . S
O604 Dy601 2.298 . S
O604 C613 1.236 . S
O605 Dy600 2.395 . S
O605 C622 1.255 . S
O606 Dy600 2.379 . S
O606 C622 1.249 . S
O607 Dy601 2.275 . S
O607 C623 1.254 . S
O608 Dy600 2.339 . S
O608 C623 1.257 . S
O609 Dy601 2.307 . S
O609 C624 1.266 . S
O610 Dy600 2.298 . S
O610 C624 1.236 . S
O611 Dy601 2.395 . S
O611 C631 1.255 . S
O612 Dy601 2.379 . S
O612 C631 1.249 . S
C613 O603 1.266 . S
C613 O604 1.236 . S
O614 Dy600 2.275 . S
O614 C602 1.254 . S
O615 Dy601 2.339 . S
O615 C602 1.257 . S
C616 C619 1.344 . S
C616 C620 1.328 . S
C616 C622 1.516 1_565 S
C617 C618 1.304 . S
C617 C621 1.323 . S
C618 C617 1.304 . S
C618 C619 1.371 . S
C618 H632 0.930 . S
C619 C616 1.344 . S
C619 C618 1.371 . S
C619 H633 0.931 . S
C620 C616 1.328 . S
C620 C621 1.433 . S
C620 H634 0.931 . S
C621 C617 1.323 . S
C621 C620 1.433 . S
C621 H635 0.933 . S
C622 Dy600 2.738 . S
C622 O605 1.255 . S
C622 O606 1.249 . S
C622 C616 1.516 1_545 S
C623 O607 1.254 . S
C623 O608 1.257 . S
C624 O609 1.266 . S
C624 O610 1.236 . S
C625 C628 1.344 . S
C625 C629 1.328 . S
C625 C631 1.516 . S
C626 C627 1.304 . S
C626 C630 1.323 . S
C627 C626 1.304 . S
C627 C628 1.371 . S
C627 H636 0.930 . S
C628 C625 1.344 . S
C628 C627 1.371 . S
C628 H637 0.931 . S
C629 C625 1.328 . S
C629 C630 1.433 . S
C629 H638 0.931 . S
C630 C626 1.323 . S
C630 C629 1.433 . S
C630 H639 0.933 . S
C631 Dy601 2.738 . S
C631 O611 1.255 . S
C631 O612 1.249 . S
C631 C625 1.516 . S
H632 C618 0.930 . S
H633 C619 0.931 . S
H634 C620 0.931 . S
H635 C621 0.933 . S
H636 C627 0.930 . S
H637 C628 0.931 . S
H638 C629 0.931 . S
H639 C630 0.933 . S
Dy640 O643 2.307 . S
Dy640 O645 2.395 1_655 S
Dy640 O646 2.379 1_655 S
Dy640 O648 2.339 . S
Dy640 O650 2.298 . S
Dy640 O654 2.275 . S
Dy640 C662 2.738 1_655 S
Dy641 O644 2.298 . S
Dy641 O647 2.275 . S
Dy641 O649 2.307 . S
Dy641 O651 2.395 . S
Dy641 O652 2.379 . S
Dy641 O655 2.339 . S
Dy641 C671 2.738 . S
C642 O654 1.254 . S
C642 O655 1.257 . S
O643 Dy640 2.307 . S
O643 C653 1.266 . S
O644 Dy641 2.298 . S
O644 C653 1.236 . S
O645 Dy640 2.395 1_455 S
O645 C662 1.255 . S
O646 Dy640 2.379 1_455 S
O646 C662 1.249 . S
O647 Dy641 2.275 . S
O647 C663 1.254 . S
O648 Dy640 2.339 . S
O648 C663 1.257 . S
O649 Dy641 2.307 . S
O649 C664 1.266 . S
O650 Dy640 2.298 . S
O650 C664 1.236 . S
O651 Dy641 2.395 . S
O651 C671 1.255 . S
O652 Dy641 2.379 . S
O652 C671 1.249 . S
C653 O643 1.266 . S
C653 O644 1.236 . S
O654 Dy640 2.275 . S
O654 C642 1.254 . S
O655 Dy641 2.339 . S
O655 C642 1.257 . S
C656 C659 1.344 . S
C656 C660 1.328 . S
C656 C662 1.516 . S
C657 C658 1.304 . S
C657 C661 1.323 . S
C658 C657 1.304 . S
C658 C659 1.371 . S
C658 H672 0.930 . S
C659 C656 1.344 . S
C659 C658 1.371 . S
C659 H673 0.931 . S
C660 C656 1.328 . S
C660 C661 1.433 . S
C660 H674 0.931 . S
C661 C657 1.323 . S
C661 C660 1.433 . S
C661 H675 0.933 . S
C662 Dy640 2.738 1_455 S
C662 O645 1.255 . S
C662 O646 1.249 . S
C662 C656 1.516 . S
C663 O647 1.254 . S
C663 O648 1.257 . S
C664 O649 1.266 . S
C664 O650 1.236 . S
C665 C668 1.344 . S
C665 C669 1.328 . S
C665 C671 1.516 . S
C666 C667 1.304 . S
C666 C670 1.323 . S
C667 C666 1.304 . S
C667 C668 1.371 . S
C667 H676 0.930 . S
C668 C665 1.344 . S
C668 C667 1.371 . S
C668 H677 0.931 . S
C669 C665 1.328 . S
C669 C670 1.433 . S
C669 H678 0.931 . S
C670 C666 1.323 . S
C670 C669 1.433 . S
C670 H679 0.933 . S
C671 Dy641 2.738 . S
C671 O651 1.255 . S
C671 O652 1.249 . S
C671 C665 1.516 . S
H672 C658 0.930 . S
H673 C659 0.931 . S
H674 C660 0.931 . S
H675 C661 0.933 . S
H676 C667 0.930 . S
H677 C668 0.931 . S
H678 C669 0.931 . S
H679 C670 0.933 . S
Dy680 O683 2.307 . S
Dy680 O685 2.395 . S
Dy680 O686 2.379 . S
Dy680 O688 2.339 . S
Dy680 O690 2.298 . S
Dy680 O694 2.275 . S
Dy680 C702 2.738 . S
Dy681 O684 2.298 . S
Dy681 O687 2.275 . S
Dy681 O689 2.307 . S
Dy681 O691 2.395 . S
Dy681 O692 2.379 . S
Dy681 O695 2.339 . S
Dy681 C711 2.738 . S
C682 O694 1.254 . S
C682 O695 1.257 . S
O683 Dy680 2.307 . S
O683 C693 1.266 . S
O684 Dy681 2.298 . S
O684 C693 1.236 . S
O685 Dy680 2.395 . S
O685 C702 1.255 . S
O686 Dy680 2.379 . S
O686 C702 1.249 . S
O687 Dy681 2.275 . S
O687 C703 1.254 . S
O688 Dy680 2.339 . S
O688 C703 1.257 . S
O689 Dy681 2.307 . S
O689 C704 1.266 . S
O690 Dy680 2.298 . S
O690 C704 1.236 . S
O691 Dy681 2.395 . S
O691 C711 1.255 . S
O692 Dy681 2.379 . S
O692 C711 1.249 . S
C693 O683 1.266 . S
C693 O684 1.236 . S
O694 Dy680 2.275 . S
O694 C682 1.254 . S
O695 Dy681 2.339 . S
O695 C682 1.257 . S
C696 C699 1.344 . S
C696 C700 1.328 . S
C696 C702 1.516 . S
C697 C698 1.304 . S
C697 C701 1.323 . S
C698 C697 1.304 . S
C698 C699 1.371 . S
C698 H712 0.930 . S
C699 C696 1.344 . S
C699 C698 1.371 . S
C699 H713 0.931 . S
C700 C696 1.328 . S
C700 C701 1.433 . S
C700 H714 0.931 . S
C701 C697 1.323 . S
C701 C700 1.433 . S
C701 H715 0.933 . S
C702 Dy680 2.738 . S
C702 O685 1.255 . S
C702 O686 1.249 . S
C702 C696 1.516 . S
C703 O687 1.254 . S
C703 O688 1.257 . S
C704 O689 1.266 . S
C704 O690 1.236 . S
C705 C708 1.344 . S
C705 C709 1.328 . S
C705 C711 1.516 . S
C706 C707 1.304 . S
C706 C710 1.323 . S
C707 C706 1.304 . S
C707 C708 1.371 . S
C707 H716 0.930 . S
C708 C705 1.344 . S
C708 C707 1.371 . S
C708 H717 0.931 . S
C709 C705 1.328 . S
C709 C710 1.433 . S
C709 H718 0.931 . S
C710 C706 1.323 . S
C710 C709 1.433 . S
C710 H719 0.933 . S
C711 Dy681 2.738 . S
C711 O691 1.255 . S
C711 O692 1.249 . S
C711 C705 1.516 . S
H712 C698 0.930 . S
H713 C699 0.931 . S
H714 C700 0.931 . S
H715 C701 0.933 . S
H716 C707 0.930 . S
H717 C708 0.931 . S
H718 C709 0.931 . S
H719 C710 0.933 . S
C720 C721 1.387 . S
C720 H724 0.950 . S
C720 C729 1.390 . S
C721 C720 1.387 . S
C721 C723 1.387 . S
H722 C729 0.950 . S
C723 C721 1.387 . S
C723 C725 1.390 . S
C723 H727 0.950 . S
H724 C720 0.950 . S
C725 C723 1.390 . S
C725 C726 1.387 . S
C725 H728 0.950 . S
C726 C725 1.387 . S
C726 C729 1.387 . S
H727 C723 0.950 . S
H728 C725 0.950 . S
C729 C720 1.390 . S
C729 H722 0.950 . S
C729 C726 1.387 . S
C730 C731 1.387 . S
C730 H734 0.950 . S
C730 C739 1.390 . S
C731 C730 1.387 . S
C731 C733 1.387 . S
H732 C739 0.950 . S
C733 C731 1.387 . S
C733 C735 1.390 . S
C733 H737 0.950 . S
H734 C730 0.950 . S
C735 C733 1.390 . S
C735 C736 1.387 . S
C735 H738 0.950 . S
C736 C735 1.387 . S
C736 C739 1.387 . S
H737 C733 0.950 . S
H738 C735 0.950 . S
C739 C730 1.390 . S
C739 H732 0.950 . S
C739 C736 1.387 . S
C740 C741 1.387 . S
C740 H744 0.950 . S
C740 C749 1.390 . S
C741 C740 1.387 . S
C741 C743 1.387 . S
H742 C749 0.950 . S
C743 C741 1.387 . S
C743 C745 1.390 . S
C743 H747 0.950 . S
H744 C740 0.950 . S
C745 C743 1.390 . S
C745 C746 1.387 . S
C745 H748 0.950 . S
C746 C745 1.387 . S
C746 C749 1.387 . S
H747 C743 0.950 . S
H748 C745 0.950 . S
C749 C740 1.390 . S
C749 H742 0.950 . S
C749 C746 1.387 . S
C750 C751 1.387 . S
C750 H754 0.950 . S
C750 C759 1.390 . S
C751 C750 1.387 . S
C751 C753 1.387 . S
H752 C759 0.950 . S
C753 C751 1.387 . S
C753 C755 1.390 . S
C753 H757 0.950 . S
H754 C750 0.950 . S
C755 C753 1.390 . S
C755 C756 1.387 . S
C755 H758 0.950 . S
C756 C755 1.387 . S
C756 C759 1.387 . S
H757 C753 0.950 . S
H758 C755 0.950 . S
C759 C750 1.390 . S
C759 H752 0.950 . S
C759 C756 1.387 . S
C760 C761 1.387 . S
C760 H764 0.950 . S
C760 C769 1.390 . S
C761 C760 1.387 . S
C761 C763 1.387 . S
H762 C769 0.950 . S
C763 C761 1.387 . S
C763 C765 1.390 . S
C763 H767 0.950 . S
H764 C760 0.950 . S
C765 C763 1.390 . S
C765 C766 1.387 . S
C765 H768 0.950 . S
C766 C765 1.387 . S
C766 C769 1.387 . S
H767 C763 0.950 . S
H768 C765 0.950 . S
C769 C760 1.390 . S
C769 H762 0.950 . S
C769 C766 1.387 . S
C770 C771 1.387 . S
C770 H774 0.950 . S
C770 C779 1.390 . S
C771 C770 1.387 . S
C771 C773 1.387 . S
H772 C779 0.950 . S
C773 C771 1.387 . S
C773 C775 1.390 . S
C773 H777 0.950 . S
H774 C770 0.950 . S
C775 C773 1.390 . S
C775 C776 1.387 . S
C775 H778 0.950 . S
C776 C775 1.387 . S
C776 C779 1.387 . S
H777 C773 0.950 . S
H778 C775 0.950 . S
C779 C770 1.390 . S
C779 H772 0.950 . S
C779 C776 1.387 . S
C780 C781 1.387 . S
C780 H784 0.950 . S
C780 C789 1.390 . S
C781 C780 1.387 . S
C781 C783 1.387 . S
H782 C789 0.950 . S
C783 C781 1.387 . S
C783 C785 1.390 . S
C783 H787 0.950 . S
H784 C780 0.950 . S
C785 C783 1.390 . S
C785 C786 1.387 . S
C785 H788 0.950 . S
C786 C785 1.387 . S
C786 C789 1.387 . S
H787 C783 0.950 . S
H788 C785 0.950 . S
C789 C780 1.390 . S
C789 H782 0.950 . S
C789 C786 1.387 . S
C790 C791 1.387 . S
C790 H794 0.950 . S
C790 C799 1.390 1_545 S
C791 C790 1.387 . S
C791 C793 1.387 . S
H792 C799 0.950 . S
C793 C791 1.387 . S
C793 C795 1.390 1_545 S
C793 H797 0.950 . S
H794 C790 0.950 . S
C795 C793 1.390 1_565 S
C795 C796 1.387 . S
C795 H798 0.950 . S
C796 C795 1.387 . S
C796 C799 1.387 . S
H797 C793 0.950 . S
H798 C795 0.950 . S
C799 C790 1.390 1_565 S
C799 H792 0.950 . S
C799 C796 1.387 . S
C800 C801 1.387 . S
C800 H804 0.950 . S
C800 C809 1.390 . S
C801 C800 1.387 . S
C801 C803 1.387 . S
H802 C809 0.950 1_655 S
C803 C801 1.387 . S
C803 C805 1.390 . S
C803 H807 0.950 . S
H804 C800 0.950 . S
C805 C803 1.390 . S
C805 C806 1.387 1_455 S
C805 H808 0.950 . S
C806 C805 1.387 1_655 S
C806 C809 1.387 1_655 S
H807 C803 0.950 . S
H808 C805 0.950 . S
C809 C800 1.390 . S
C809 H802 0.950 1_455 S
C809 C806 1.387 1_455 S
C810 C811 1.387 . S
C810 H814 0.950 . S
C810 C819 1.390 . S
C811 C810 1.387 . S
C811 C813 1.387 . S
H812 C819 0.950 . S
C813 C811 1.387 . S
C813 C815 1.390 . S
C813 H817 0.950 . S
H814 C810 0.950 . S
C815 C813 1.390 . S
C815 C816 1.387 . S
C815 H818 0.950 . S
C816 C815 1.387 . S
C816 C819 1.387 . S
H817 C813 0.950 . S
H818 C815 0.950 . S
C819 C810 1.390 . S
C819 H812 0.950 . S
C819 C816 1.387 . S
C820 C821 1.387 . S
C820 H824 0.950 . S
C820 C829 1.390 . S
C821 C820 1.387 . S
C821 C823 1.387 . S
H822 C829 0.950 . S
C823 C821 1.387 . S
C823 C825 1.390 . S
C823 H827 0.950 . S
H824 C820 0.950 . S
C825 C823 1.390 . S
C825 C826 1.387 . S
C825 H828 0.950 . S
C826 C825 1.387 . S
C826 C829 1.387 . S
H827 C823 0.950 . S
H828 C825 0.950 . S
C829 C820 1.390 . S
C829 H822 0.950 . S
C829 C826 1.387 . S
C830 C831 1.387 . S
C830 H834 0.950 . S
C830 C839 1.390 . S
C831 C830 1.387 . S
C831 C833 1.387 . S
H832 C839 0.950 . S
C833 C831 1.387 . S
C833 C835 1.390 . S
C833 H837 0.950 . S
H834 C830 0.950 . S
C835 C833 1.390 . S
C835 C836 1.387 . S
C835 H838 0.950 . S
C836 C835 1.387 . S
C836 C839 1.387 . S
H837 C833 0.950 . S
H838 C835 0.950 . S
C839 C830 1.390 . S
C839 H832 0.950 . S
C839 C836 1.387 . S
C840 C841 1.387 . S
C840 H844 0.950 . S
C840 C849 1.390 . S
C841 C840 1.387 . S
C841 C843 1.387 . S
H842 C849 0.950 . S
C843 C841 1.387 . S
C843 C845 1.390 . S
C843 H847 0.950 . S
H844 C840 0.950 . S
C845 C843 1.390 . S
C845 C846 1.387 . S
C845 H848 0.950 . S
C846 C845 1.387 . S
C846 C849 1.387 . S
H847 C843 0.950 . S
H848 C845 0.950 . S
C849 C840 1.390 . S
C849 H842 0.950 . S
C849 C846 1.387 . S
C850 C851 1.387 . S
C850 H854 0.950 . S
C850 C859 1.390 . S
C851 C850 1.387 . S
C851 C853 1.387 . S
H852 C859 0.950 . S
C853 C851 1.387 . S
C853 C855 1.390 . S
C853 H857 0.950 . S
H854 C850 0.950 . S
C855 C853 1.390 . S
C855 C856 1.387 . S
C855 H858 0.950 . S
C856 C855 1.387 . S
C856 C859 1.387 . S
H857 C853 0.950 . S
H858 C855 0.950 . S
C859 C850 1.390 . S
C859 H852 0.950 . S
C859 C856 1.387 . S
C860 C861 1.387 . S
C860 H864 0.950 . S
C860 C869 1.390 . S
C861 C860 1.387 . S
C861 C863 1.387 . S
H862 C869 0.950 . S
C863 C861 1.387 . S
C863 C865 1.390 . S
C863 H867 0.950 . S
H864 C860 0.950 . S
C865 C863 1.390 . S
C865 C866 1.387 . S
C865 H868 0.950 . S
C866 C865 1.387 . S
C866 C869 1.387 . S
H867 C863 0.950 . S
H868 C865 0.950 . S
C869 C860 1.390 . S
C869 H862 0.950 . S
C869 C866 1.387 . S
C870 C871 1.387 . S
C870 H874 0.950 . S
C870 C879 1.390 . S
C871 C870 1.387 . S
C871 C873 1.387 . S
H872 C879 0.950 . S
C873 C871 1.387 . S
C873 C875 1.390 . S
C873 H877 0.950 . S
H874 C870 0.950 . S
C875 C873 1.390 . S
C875 C876 1.387 . S
C875 H878 0.950 . S
C876 C875 1.387 . S
C876 C879 1.387 . S
H877 C873 0.950 . S
H878 C875 0.950 . S
C879 C870 1.390 . S
C879 H872 0.950 . S
C879 C876 1.387 . S
C880 C881 1.387 1_545 S
C880 H884 0.950 . S
C880 C889 1.390 . S
C881 C880 1.387 1_565 S
C881 C883 1.387 1_565 S
H882 C889 0.950 . S
C883 C881 1.387 1_545 S
C883 C885 1.390 . S
C883 H887 0.949 1_545 S
H884 C880 0.950 . S
C885 C883 1.390 . S
C885 C886 1.387 . S
C885 H888 0.950 . S
C886 C885 1.387 . S
C886 C889 1.387 . S
H887 C883 0.949 1_565 S
H888 C885 0.950 . S
C889 C880 1.390 . S
C889 H882 0.950 . S
C889 C886 1.387 . S
C890 C891 1.387 . S
C890 H894 0.950 . S
C890 C899 1.390 1_455 S
C891 C890 1.387 . S
C891 C893 1.387 . S
H892 C899 0.950 . S
C893 C891 1.387 . S
C893 C895 1.390 1_455 S
C893 H897 0.950 . S
H894 C890 0.950 . S
C895 C893 1.390 1_655 S
C895 C896 1.387 . S
C895 H898 0.950 . S
C896 C895 1.387 . S
C896 C899 1.387 . S
H897 C893 0.950 . S
H898 C895 0.950 . S
C899 C890 1.390 1_655 S
C899 H892 0.950 . S
C899 C896 1.387 . S
C900 C901 1.387 . S
C900 H904 0.950 . S
C900 C909 1.390 1_554 S
C901 C900 1.387 . S
C901 C903 1.387 . S
H902 C909 0.950 . S
C903 C901 1.387 . S
C903 C905 1.390 1_554 S
C903 H907 0.950 . S
H904 C900 0.950 . S
C905 C903 1.390 1_556 S
C905 C906 1.387 . S
C905 H908 0.950 . S
C906 C905 1.387 . S
C906 C909 1.387 . S
H907 C903 0.950 . S
H908 C905 0.950 . S
C909 C900 1.390 1_556 S
C909 H902 0.950 . S
C909 C906 1.387 . S
C910 C911 1.387 . S
C910 H914 0.950 . S
C910 C919 1.390 1_556 S
C911 C910 1.387 . S
C911 C913 1.387 . S
H912 C919 0.950 . S
C913 C911 1.387 . S
C913 C915 1.390 1_556 S
C913 H917 0.951 1_455 S
H914 C910 0.950 . S
C915 C913 1.390 1_554 S
C915 C916 1.387 . S
C915 H918 0.950 1_455 S
C916 C915 1.387 . S
C916 C919 1.387 . S
H917 C913 0.951 1_655 S
H918 C915 0.950 1_655 S
C919 C910 1.390 1_554 S
C919 H912 0.950 . S
C919 C916 1.387 . S
C920 C921 1.387 . S
C920 H924 0.950 . S
C920 C929 1.390 1_556 S
C921 C920 1.387 . S
C921 C923 1.387 . S
H922 C929 0.950 . S
C923 C921 1.387 . S
C923 C925 1.390 1_556 S
C923 H927 0.950 . S
H924 C920 0.950 . S
C925 C923 1.390 1_554 S
C925 C926 1.387 . S
C925 H928 0.950 . S
C926 C925 1.387 . S
C926 C929 1.387 . S
H927 C923 0.950 . S
H928 C925 0.950 . S
C929 C920 1.390 1_554 S
C929 H922 0.950 . S
C929 C926 1.387 . S
C930 C931 1.387 . S
C930 H934 0.950 . S
C930 C939 1.390 . S
C931 C930 1.387 . S
C931 C933 1.387 . S
H932 C939 0.950 . S
C933 C931 1.387 . S
C933 C935 1.390 . S
C933 H937 0.950 . S
H934 C930 0.950 . S
C935 C933 1.390 . S
C935 C936 1.387 . S
C935 H938 0.950 . S
C936 C935 1.387 . S
C936 C939 1.387 . S
H937 C933 0.950 . S
H938 C935 0.950 . S
C939 C930 1.390 . S
C939 H932 0.950 . S
C939 C936 1.387 . S
C940 C941 1.387 . S
C940 H944 0.950 . S
C940 C949 1.390 . S
C941 C940 1.387 . S
C941 C943 1.387 . S
H942 C949 0.950 . S
C943 C941 1.387 . S
C943 C945 1.390 . S
C943 H947 0.950 . S
H944 C940 0.950 . S
C945 C943 1.390 . S
C945 C946 1.387 . S
C945 H948 0.950 . S
C946 C945 1.387 . S
C946 C949 1.387 . S
H947 C943 0.950 . S
H948 C945 0.950 . S
C949 C940 1.390 . S
C949 H942 0.950 . S
C949 C946 1.387 . S
C950 C951 1.387 . S
C950 H954 0.950 . S
C950 C959 1.390 . S
C951 C950 1.387 . S
C951 C953 1.387 . S
H952 C959 0.950 . S
C953 C951 1.387 . S
C953 C955 1.390 . S
C953 H957 0.950 . S
H954 C950 0.950 . S
C955 C953 1.390 . S
C955 C956 1.387 . S
C955 H958 0.950 . S
C956 C955 1.387 . S
C956 C959 1.387 . S
H957 C953 0.950 . S
H958 C955 0.950 . S
C959 C950 1.390 . S
C959 H952 0.950 . S
C959 C956 1.387 . S
C960 C961 1.387 . S
C960 H964 0.950 . S
C960 C969 1.390 . S
C961 C960 1.387 . S
C961 C963 1.387 . S
H962 C969 0.950 . S
C963 C961 1.387 . S
C963 C965 1.390 . S
C963 H967 0.950 . S
H964 C960 0.950 . S
C965 C963 1.390 . S
C965 C966 1.387 . S
C965 H968 0.950 . S
C966 C965 1.387 . S
C966 C969 1.387 . S
H967 C963 0.950 . S
H968 C965 0.950 . S
C969 C960 1.390 . S
C969 H962 0.950 . S
C969 C966 1.387 . S
C970 C971 1.387 . S
C970 H974 0.950 . S
C970 C979 1.390 . S
C971 C970 1.387 . S
C971 C973 1.387 . S
H972 C979 0.950 . S
C973 C971 1.387 . S
C973 C975 1.390 . S
C973 H977 0.950 . S
H974 C970 0.950 . S
C975 C973 1.390 . S
C975 C976 1.387 . S
C975 H978 0.950 . S
C976 C975 1.387 . S
C976 C979 1.387 . S
H977 C973 0.950 . S
H978 C975 0.950 . S
C979 C970 1.390 . S
C979 H972 0.950 . S
C979 C976 1.387 . S
C980 C981 1.387 . S
C980 H984 0.950 . S
C980 C989 1.390 . S
C981 C980 1.387 . S
C981 C983 1.387 . S
H982 C989 0.950 . S
C983 C981 1.387 . S
C983 C985 1.390 . S
C983 H987 0.950 . S
H984 C980 0.950 . S
C985 C983 1.390 . S
C985 C986 1.387 . S
C985 H988 0.950 . S
C986 C985 1.387 . S
C986 C989 1.387 . S
H987 C983 0.950 . S
H988 C985 0.950 . S
C989 C980 1.390 . S
C989 H982 0.950 . S
C989 C986 1.387 . S
C990 C991 1.387 . S
C990 H994 0.950 . S
C990 C999 1.390 . S
C991 C990 1.387 . S
C991 C993 1.387 . S
H992 C999 0.950 1_545 S
C993 C991 1.387 . S
C993 C995 1.390 . S
C993 H997 0.950 . S
H994 C990 0.950 . S
C995 C993 1.390 . S
C995 C996 1.387 . S
C995 H998 0.950 . S
C996 C995 1.387 . S
C996 C999 1.387 . S
H997 C993 0.950 . S
H998 C995 0.950 . S
C999 C990 1.390 . S
C999 H992 0.950 1_565 S
C999 C996 1.387 . S
C1000 C1001 1.387 . S
C1000 H1004 0.950 . S
C1000 C1009 1.390 . S
C1001 C1000 1.387 . S
C1001 C1003 1.387 . S
H1002 C1009 0.950 . S
C1003 C1001 1.387 . S
C1003 C1005 1.390 . S
C1003 H1007 0.950 . S
H1004 C1000 0.950 . S
C1005 C1003 1.390 . S
C1005 C1006 1.387 . S
C1005 H1008 0.950 . S
C1006 C1005 1.387 . S
C1006 C1009 1.387 . S
H1007 C1003 0.950 . S
H1008 C1005 0.950 . S
C1009 C1000 1.390 . S
C1009 H1002 0.950 . S
C1009 C1006 1.387 . S
C1010 C1011 1.387 . S
C1010 H1014 0.950 . S
C1010 C1019 1.390 . S
C1011 C1010 1.387 . S
C1011 C1013 1.387 . S
H1012 C1019 0.950 . S
C1013 C1011 1.387 . S
C1013 C1015 1.390 . S
C1013 H1017 0.950 . S
H1014 C1010 0.950 . S
C1015 C1013 1.390 . S
C1015 C1016 1.387 . S
C1015 H1018 0.950 . S
C1016 C1015 1.387 . S
C1016 C1019 1.387 . S
H1017 C1013 0.950 . S
H1018 C1015 0.950 . S
C1019 C1010 1.390 . S
C1019 H1012 0.950 . S
C1019 C1016 1.387 . S
C1020 C1021 1.387 . S
C1020 H1024 0.950 . S
C1020 C1029 1.390 . S
C1021 C1020 1.387 . S
C1021 C1023 1.387 . S
H1022 C1029 0.950 . S
C1023 C1021 1.387 . S
C1023 C1025 1.390 . S
C1023 H1027 0.950 1_655 S
H1024 C1020 0.950 . S
C1025 C1023 1.390 . S
C1025 C1026 1.387 . S
C1025 H1028 0.950 . S
C1026 C1025 1.387 . S
C1026 C1029 1.387 . S
H1027 C1023 0.950 1_455 S
H1028 C1025 0.950 . S
C1029 C1020 1.390 . S
C1029 H1022 0.950 . S
C1029 C1026 1.387 . S
C1030 C1031 1.387 . S
C1030 H1034 0.950 . S
C1030 C1039 1.390 . S
C1031 C1030 1.387 . S
C1031 C1033 1.387 . S
H1032 C1039 0.950 . S
C1033 C1031 1.387 . S
C1033 C1035 1.390 . S
C1033 H1037 0.950 . S
H1034 C1030 0.950 . S
C1035 C1033 1.390 . S
C1035 C1036 1.387 . S
C1035 H1038 0.950 . S
C1036 C1035 1.387 . S
C1036 C1039 1.387 . S
H1037 C1033 0.950 . S
H1038 C1035 0.950 . S
C1039 C1030 1.390 . S
C1039 H1032 0.950 . S
C1039 C1036 1.387 . S
C1040 C1041 1.387 . S
C1040 H1044 0.950 . S
C1040 C1049 1.390 . S
C1041 C1040 1.387 . S
C1041 C1043 1.387 . S
H1042 C1049 0.950 . S
C1043 C1041 1.387 . S
C1043 C1045 1.390 . S
C1043 H1047 0.950 . S
H1044 C1040 0.950 . S
C1045 C1043 1.390 . S
C1045 C1046 1.387 . S
C1045 H1048 0.950 . S
C1046 C1045 1.387 . S
C1046 C1049 1.387 . S
H1047 C1043 0.950 . S
H1048 C1045 0.950 . S
C1049 C1040 1.390 . S
C1049 H1042 0.950 . S
C1049 C1046 1.387 . S
C1050 C1051 1.387 1_455 S
C1050 H1054 0.950 . S
C1050 C1059 1.390 . S
C1051 C1050 1.387 1_655 S
C1051 C1053 1.387 . S
H1052 C1059 0.950 . S
C1053 C1051 1.387 . S
C1053 C1055 1.390 1_655 S
C1053 H1057 0.950 . S
H1054 C1050 0.950 . S
C1055 C1053 1.390 1_455 S
C1055 C1056 1.387 . S
C1055 H1058 0.950 . S
C1056 C1055 1.387 . S
C1056 C1059 1.387 . S
H1057 C1053 0.950 . S
H1058 C1055 0.950 . S
C1059 C1050 1.390 . S
C1059 H1052 0.950 . S
C1059 C1056 1.387 . S
C1060 C1061 1.387 . S
C1060 H1064 0.950 . S
C1060 C1069 1.390 . S
C1061 C1060 1.387 . S
C1061 C1063 1.387 . S
H1062 C1069 0.950 . S
C1063 C1061 1.387 . S
C1063 C1065 1.390 . S
C1063 H1067 0.950 . S
H1064 C1060 0.950 . S
C1065 C1063 1.390 . S
C1065 C1066 1.387 . S
C1065 H1068 0.950 . S
C1066 C1065 1.387 . S
C1066 C1069 1.387 . S
H1067 C1063 0.950 . S
H1068 C1065 0.950 . S
C1069 C1060 1.390 . S
C1069 H1062 0.950 . S
C1069 C1066 1.387 . S
C1070 C1071 1.387 . S
C1070 H1074 0.950 . S
C1070 C1079 1.390 1_565 S
C1071 C1070 1.387 . S
C1071 C1073 1.387 . S
H1072 C1079 0.950 . S
C1073 C1071 1.387 . S
C1073 C1075 1.390 1_565 S
C1073 H1077 0.950 . S
H1074 C1070 0.950 . S
C1075 C1073 1.390 1_545 S
C1075 C1076 1.387 . S
C1075 H1078 0.950 . S
C1076 C1075 1.387 . S
C1076 C1079 1.387 . S
H1077 C1073 0.950 . S
H1078 C1075 0.950 . S
C1079 C1070 1.390 1_545 S
C1079 H1072 0.950 . S
C1079 C1076 1.387 . S
C1080 C1081 1.387 . S
C1080 H1084 0.950 . S
C1080 C1089 1.390 . S
C1081 C1080 1.387 . S
C1081 C1083 1.387 . S
H1082 C1089 0.950 . S
C1083 C1081 1.387 . S
C1083 C1085 1.390 . S
C1083 H1087 0.950 . S
H1084 C1080 0.950 . S
C1085 C1083 1.390 . S
C1085 C1086 1.387 . S
C1085 H1088 0.950 . S
C1086 C1085 1.387 . S
C1086 C1089 1.387 . S
H1087 C1083 0.950 . S
H1088 C1085 0.950 . S
C1089 C1080 1.390 . S
C1089 H1082 0.950 . S
C1089 C1086 1.387 . S
C1090 C1091 1.387 . S
C1090 H1094 0.950 . S
C1090 C1099 1.390 . S
C1091 C1090 1.387 . S
C1091 C1093 1.387 . S
H1092 C1099 0.950 . S
C1093 C1091 1.387 . S
C1093 C1095 1.390 . S
C1093 H1097 0.950 . S
H1094 C1090 0.950 . S
C1095 C1093 1.390 . S
C1095 C1096 1.387 . S
C1095 H1098 0.950 . S
C1096 C1095 1.387 . S
C1096 C1099 1.387 . S
H1097 C1093 0.950 . S
H1098 C1095 0.950 . S
C1099 C1090 1.390 . S
C1099 H1092 0.950 . S
C1099 C1096 1.387 . S
C1100 C1101 1.387 . S
C1100 H1104 0.950 . S
C1100 C1109 1.390 . S
C1101 C1100 1.387 . S
C1101 C1103 1.387 . S
H1102 C1109 0.950 . S
C1103 C1101 1.387 . S
C1103 C1105 1.390 . S
C1103 H1107 0.950 . S
H1104 C1100 0.950 . S
C1105 C1103 1.390 . S
C1105 C1106 1.387 . S
C1105 H1108 0.950 . S
C1106 C1105 1.387 . S
C1106 C1109 1.387 . S
H1107 C1103 0.950 . S
H1108 C1105 0.950 . S
C1109 C1100 1.390 . S
C1109 H1102 0.950 . S
C1109 C1106 1.387 . S
C1110 C1111 1.387 . S
C1110 H1114 0.950 . S
C1110 C1119 1.390 . S
C1111 C1110 1.387 . S
C1111 C1113 1.387 . S
H1112 C1119 0.950 . S
C1113 C1111 1.387 . S
C1113 C1115 1.390 . S
C1113 H1117 0.950 . S
H1114 C1110 0.950 . S
C1115 C1113 1.390 . S
C1115 C1116 1.387 . S
C1115 H1118 0.950 . S
C1116 C1115 1.387 . S
C1116 C1119 1.387 . S
H1117 C1113 0.950 . S
H1118 C1115 0.950 . S
C1119 C1110 1.390 . S
C1119 H1112 0.950 . S
C1119 C1116 1.387 . S
C1120 C1121 1.387 . S
C1120 H1124 0.950 . S
C1120 C1129 1.390 . S
C1121 C1120 1.387 . S
C1121 C1123 1.387 . S
H1122 C1129 0.950 . S
C1123 C1121 1.387 . S
C1123 C1125 1.390 . S
C1123 H1127 0.950 . S
H1124 C1120 0.950 . S
C1125 C1123 1.390 . S
C1125 C1126 1.387 . S
C1125 H1128 0.950 . S
C1126 C1125 1.387 . S
C1126 C1129 1.387 . S
H1127 C1123 0.950 . S
H1128 C1125 0.950 . S
C1129 C1120 1.390 . S
C1129 H1122 0.950 . S
C1129 C1126 1.387 . S
C1130 C1131 1.387 . S
C1130 H1134 0.950 . S
C1130 C1139 1.390 . S
C1131 C1130 1.387 . S
C1131 C1133 1.387 . S
H1132 C1139 0.950 . S
C1133 C1131 1.387 . S
C1133 C1135 1.390 . S
C1133 H1137 0.950 . S
H1134 C1130 0.950 . S
C1135 C1133 1.390 . S
C1135 C1136 1.387 . S
C1135 H1138 0.950 . S
C1136 C1135 1.387 . S
C1136 C1139 1.387 . S
H1137 C1133 0.950 . S
H1138 C1135 0.950 . S
C1139 C1130 1.390 . S
C1139 H1132 0.950 . S
C1139 C1136 1.387 . S
C1140 C1141 1.387 . S
C1140 H1144 0.950 . S
C1140 C1149 1.390 . S
C1141 C1140 1.387 . S
C1141 C1143 1.387 . S
H1142 C1149 0.950 . S
C1143 C1141 1.387 . S
C1143 C1145 1.390 . S
C1143 H1147 0.950 . S
H1144 C1140 0.950 . S
C1145 C1143 1.390 . S
C1145 C1146 1.387 . S
C1145 H1148 0.950 . S
C1146 C1145 1.387 . S
C1146 C1149 1.387 . S
H1147 C1143 0.950 . S
H1148 C1145 0.950 . S
C1149 C1140 1.390 . S
C1149 H1142 0.950 . S
C1149 C1146 1.387 . S
C1150 C1151 1.387 . S
C1150 H1154 0.950 . S
C1150 C1159 1.390 . S
C1151 C1150 1.387 . S
C1151 C1153 1.387 . S
H1152 C1159 0.950 . S
C1153 C1151 1.387 . S
C1153 C1155 1.390 . S
C1153 H1157 0.950 . S
H1154 C1150 0.950 . S
C1155 C1153 1.390 . S
C1155 C1156 1.387 . S
C1155 H1158 0.950 . S
C1156 C1155 1.387 . S
C1156 C1159 1.387 . S
H1157 C1153 0.950 . S
H1158 C1155 0.950 . S
C1159 C1150 1.390 . S
C1159 H1152 0.950 . S
C1159 C1156 1.387 . S
C1160 C1161 1.387 . S
C1160 H1164 0.950 . S
C1160 C1169 1.390 . S
C1161 C1160 1.387 . S
C1161 C1163 1.387 . S
H1162 C1169 0.950 . S
C1163 C1161 1.387 . S
C1163 C1165 1.390 . S
C1163 H1167 0.950 . S
H1164 C1160 0.950 . S
C1165 C1163 1.390 . S
C1165 C1166 1.387 . S
C1165 H1168 0.950 . S
C1166 C1165 1.387 . S
C1166 C1169 1.387 . S
H1167 C1163 0.950 . S
H1168 C1165 0.950 . S
C1169 C1160 1.390 . S
C1169 H1162 0.950 . S
C1169 C1166 1.387 . S
C1170 C1171 1.387 . S
C1170 H1174 0.950 . S
C1170 C1179 1.390 . S
C1171 C1170 1.387 . S
C1171 C1173 1.387 . S
H1172 C1179 0.950 . S
C1173 C1171 1.387 . S
C1173 C1175 1.390 . S
C1173 H1177 0.950 . S
H1174 C1170 0.950 . S
C1175 C1173 1.390 . S
C1175 C1176 1.387 . S
C1175 H1178 0.950 . S
C1176 C1175 1.387 . S
C1176 C1179 1.387 . S
H1177 C1173 0.950 . S
H1178 C1175 0.950 . S
C1179 C1170 1.390 . S
C1179 H1172 0.950 . S
C1179 C1176 1.387 . S
C1180 C1181 1.380 1_545 S
C1180 H1184 0.950 . S
C1180 C1189 1.390 . S
C1181 C1180 1.380 1_565 S
C1181 C1183 1.372 1_565 S
H1182 C1189 0.950 . S
C1183 C1181 1.372 1_545 S
C1183 C1185 1.390 . S
C1183 H1187 0.950 . S
H1184 C1180 0.950 . S
C1185 C1183 1.390 . S
C1185 C1186 1.387 . S
C1185 H1188 0.950 . S
C1186 C1185 1.387 . S
C1186 C1189 1.387 . S
H1187 C1183 0.950 . S
H1188 C1185 0.950 . S
C1189 C1180 1.390 . S
C1189 H1182 0.950 . S
C1189 C1186 1.387 . S
C1190 C1191 1.387 . S
C1190 H1194 0.950 . S
C1190 C1199 1.395 . S
C1191 C1190 1.387 . S
C1191 C1193 1.387 1_655 S
H1192 C1199 0.965 . S
C1193 C1191 1.387 1_455 S
C1193 C1195 1.390 . S
C1193 H1197 0.950 . S
H1194 C1190 0.950 . S
C1195 C1193 1.390 . S
C1195 C1196 1.387 . S
C1195 H1198 0.950 . S
C1196 C1195 1.387 . S
C1196 C1199 1.368 1_455 S
H1197 C1193 0.950 . S
H1198 C1195 0.950 . S
C1199 C1190 1.395 . S
C1199 H1192 0.965 . S
C1199 C1196 1.368 1_655 S
C1200 C1201 1.387 . S
C1200 H1204 0.950 . S
C1200 C1209 1.390 . S
C1201 C1200 1.387 . S
C1201 C1203 1.387 . S
H1202 C1209 0.950 . S
C1203 C1201 1.387 . S
C1203 C1205 1.390 . S
C1203 H1207 0.950 . S
H1204 C1200 0.950 . S
C1205 C1203 1.390 . S
C1205 C1206 1.387 . S
C1205 H1208 0.950 . S
C1206 C1205 1.387 . S
C1206 C1209 1.387 . S
H1207 C1203 0.950 . S
H1208 C1205 0.950 . S
C1209 C1200 1.390 . S
C1209 H1202 0.950 . S
C1209 C1206 1.387 . S
C1210 C1211 1.387 1_565 S
C1210 H1214 0.950 . S
C1210 C1219 1.390 . S
C1211 C1210 1.387 1_545 S
C1211 C1213 1.387 . S
H1212 C1219 0.950 . S
C1213 C1211 1.387 . S
C1213 C1215 1.390 . S
C1213 H1217 0.950 . S
H1214 C1210 0.950 . S
C1215 C1213 1.390 . S
C1215 C1216 1.387 1_545 S
C1215 H1218 0.950 . S
C1216 C1215 1.387 1_565 S
C1216 C1219 1.387 . S
H1217 C1213 0.950 . S
H1218 C1215 0.950 . S
C1219 C1210 1.390 . S
C1219 H1212 0.950 . S
C1219 C1216 1.387 . S
C1220 C1221 1.387 . S
C1220 H1224 0.950 . S
C1220 C1229 1.390 . S
C1221 C1220 1.387 . S
C1221 C1223 1.387 . S
H1222 C1229 0.950 . S
C1223 C1221 1.387 . S
C1223 C1225 1.393 . S
C1223 H1227 0.950 . S
H1224 C1220 0.950 . S
C1225 C1223 1.393 . S
C1225 C1226 1.375 1_455 S
C1225 H1228 0.948 1_455 S
C1226 C1225 1.375 1_655 S
C1226 C1229 1.376 1_655 S
H1227 C1223 0.950 . S
H1228 C1225 0.948 1_655 S
C1229 C1220 1.390 . S
C1229 H1222 0.950 . S
C1229 C1226 1.376 1_455 S
C1230 C1231 1.387 . S
C1230 H1234 0.950 . S
C1230 C1239 1.390 . S
C1231 C1230 1.387 . S
C1231 C1233 1.387 . S
H1232 C1239 0.950 . S
C1233 C1231 1.387 . S
C1233 C1235 1.390 . S
C1233 H1237 0.950 . S
H1234 C1230 0.950 . S
C1235 C1233 1.390 . S
C1235 C1236 1.387 . S
C1235 H1238 0.950 . S
C1236 C1235 1.387 . S
C1236 C1239 1.387 . S
H1237 C1233 0.950 . S
H1238 C1235 0.950 . S
C1239 C1230 1.390 . S
C1239 H1232 0.950 . S
C1239 C1236 1.387 . S
C1240 C1241 1.387 . S
C1240 H1244 0.950 . S
C1240 C1249 1.390 . S
C1241 C1240 1.387 . S
C1241 C1243 1.387 . S
H1242 C1249 0.950 . S
C1243 C1241 1.387 . S
C1243 C1245 1.390 . S
C1243 H1247 0.950 . S
H1244 C1240 0.950 . S
C1245 C1243 1.390 . S
C1245 C1246 1.387 . S
C1245 H1248 0.950 . S
C1246 C1245 1.387 . S
C1246 C1249 1.387 . S
H1247 C1243 0.950 . S
H1248 C1245 0.950 . S
C1249 C1240 1.390 . S
C1249 H1242 0.950 . S
C1249 C1246 1.387 . S
C1250 C1251 1.387 . S
C1250 H1254 0.950 . S
C1250 C1259 1.390 . S
C1251 C1250 1.387 . S
C1251 C1253 1.387 . S
H1252 C1259 0.950 . S
C1253 C1251 1.387 . S
C1253 C1255 1.390 . S
C1253 H1257 0.950 . S
H1254 C1250 0.950 . S
C1255 C1253 1.390 . S
C1255 C1256 1.387 . S
C1255 H1258 0.950 . S
C1256 C1255 1.387 . S
C1256 C1259 1.387 . S
H1257 C1253 0.950 . S
H1258 C1255 0.950 . S
C1259 C1250 1.390 . S
C1259 H1252 0.950 . S
C1259 C1256 1.387 . S
C721 C24 1.243 . S
C726 C97 1.242 . S
C731 C17 1.240 . S
C736 C64 1.241 . S
C741 C57 1.244 . S
C746 C104 1.246 . S
C751 C144 1.246 . S
C756 C177 1.244 . S
C761 C217 1.240 . S
C766 C184 1.241 . S
C771 C224 1.245 . S
C776 C137 1.243 . S
C781 C337 1.241 . S
C786 C264 1.242 . S
C791 C257 1.244 . S
C796 C304 1.246 . S
C801 C344 1.241 . S
C806 C297 1.240 . S
C811 C417 1.241 . S
C816 C384 1.242 . S
C821 C424 1.241 . S
C826 C457 1.240 . S
C831 C377 1.243 . S
C836 C464 1.245 . S
C841 C504 1.245 . S
C846 C577 1.243 . S
C851 C497 1.241 . S
C856 C544 1.243 . S
C861 C537 1.240 . S
C866 C584 1.241 . S
C871 C657 1.244 . S
C876 C624 1.245 . S
C881 C697 1.243 . S
C886 C664 1.245 . S
C891 C617 1.240 . S
C896 C704 1.241 . S
C901 C23 1.689 . S
C906 C223 1.689 . S
C911 C143 1.688 . S
C916 C63 1.689 . S
C921 C183 1.689 . S
C926 C103 1.687 . S
C931 C263 1.686 . S
C936 C463 1.686 . S
C941 C303 1.685 . S
C946 C383 1.687 . S
C951 C423 1.686 . S
C956 C343 1.688 . S
C961 C503 1.689 . S
C966 C703 1.689 . S
C971 C623 1.688 . S
C976 C543 1.689 . S
C981 C663 1.689 . S
C986 C583 1.687 . S
C991 C402 2.464 . S
C996 C2 2.463 1_565 S
C1001 C42 2.463 . S
C1006 C442 2.463 . S
C1011 C362 2.464 . S
C1016 C82 2.464 . S
C1021 C122 2.462 1_655 S
C1026 C562 2.462 . S
C1031 C162 2.464 . S
C1036 C482 2.464 . S
C1041 C522 2.464 . S
C1046 C202 2.464 . S
C1051 C642 2.463 . S
C1056 C242 2.463 . S
C1061 C282 2.463 . S
C1066 C682 2.462 . S
C1071 C322 2.464 . S
C1076 C602 2.464 . S
C1081 C106 1.732 . S
C1086 C13 1.736 . S
C1091 C26 1.733 . S
C1096 C53 1.737 . S
C1101 C93 1.737 . S
C1106 C66 1.733 . S
C1111 C186 1.735 . S
C1116 C133 1.739 . S
C1121 C226 1.733 . S
C1126 C173 1.737 . S
C1131 C213 1.737 . S
C1136 C146 1.733 . S
C1141 C346 1.734 . S
C1146 C253 1.738 . S
C1151 C293 1.736 . S
C1156 C266 1.732 . S
C1161 C306 1.733 . S
C1166 C333 1.737 . S
C1171 C373 1.737 . S
C1176 C426 1.733 . S
C1181 C413 1.764 . S
C1186 C466 1.735 . S
C1191 C386 1.735 . S
C1196 C453 1.739 . S
C1201 C493 1.739 . S
C1206 C586 1.735 . S
C1211 C533 1.738 . S
C1216 C506 1.734 . S
C1221 C546 1.735 . S
C1226 C573 1.765 . S
C1231 C613 1.739 . S
C1236 C666 1.735 . S
C1241 C653 1.737 . S
C1246 C706 1.733 . S
C1251 C626 1.735 . S
C1256 C693 1.739 . S
