# Generated by pormake.
# Topology wkc, (5)-cn, num edge types: 1
# Building blocks:
#     Node 0, Type 0, BuildingBlock: BEQFEK_clean_sbu_0, # of connection points: 5
#     Node 1, Type 0, BuildingBlock: BEQFEK_clean_sbu_0, # of connection points: 5
#     Node 2, Type 0, BuildingBlock: BEQFEK_clean_sbu_0, # of connection points: 5
#     Node 3, Type 0, BuildingBlock: BEQFEK_clean_sbu_0, # of connection points: 5
#     Node 4, Type 0, BuildingBlock: BEQFEK_clean_sbu_0, # of connection points: 5
#     Node 5, Type 0, BuildingBlock: BEQFEK_clean_sbu_0, # of connection points: 5
#     Node 6, Type 0, BuildingBlock: BEQFEK_clean_sbu_0, # of connection points: 5
#     Node 7, Type 0, BuildingBlock: BEQFEK_clean_sbu_0, # of connection points: 5
#     Node 8, Type 0, BuildingBlock: BEQFEK_clean_sbu_0, # of connection points: 5
#     Node 9, Type 0, BuildingBlock: BEQFEK_clean_sbu_0, # of connection points: 5
#     Node 10, Type 0, BuildingBlock: BEQFEK_clean_sbu_0, # of connection points: 5
#     Node 11, Type 0, BuildingBlock: BEQFEK_clean_sbu_0, # of connection points: 5
#     Edge 12, Type (0, 0), BuildingBlock: ZUJKAS_clean_linker_0, # of connection points: 2
#     Edge 13, Type (0, 0), BuildingBlock: ZUJKAS_clean_linker_0, # of connection points: 2
#     Edge 14, Type (0, 0), BuildingBlock: ZUJKAS_clean_linker_0, # of connection points: 2
#     Edge 15, Type (0, 0), BuildingBlock: ZUJKAS_clean_linker_0, # of connection points: 2
#     Edge 16, Type (0, 0), BuildingBlock: ZUJKAS_clean_linker_0, # of connection points: 2
#     Edge 17, Type (0, 0), BuildingBlock: ZUJKAS_clean_linker_0, # of connection points: 2
#     Edge 18, Type (0, 0), BuildingBlock: ZUJKAS_clean_linker_0, # of connection points: 2
#     Edge 19, Type (0, 0), BuildingBlock: ZUJKAS_clean_linker_0, # of connection points: 2
#     Edge 20, Type (0, 0), BuildingBlock: ZUJKAS_clean_linker_0, # of connection points: 2
#     Edge 21, Type (0, 0), BuildingBlock: ZUJKAS_clean_linker_0, # of connection points: 2
#     Edge 22, Type (0, 0), BuildingBlock: ZUJKAS_clean_linker_0, # of connection points: 2
#     Edge 23, Type (0, 0), BuildingBlock: ZUJKAS_clean_linker_0, # of connection points: 2
#     Edge 24, Type (0, 0), BuildingBlock: ZUJKAS_clean_linker_0, # of connection points: 2
#     Edge 25, Type (0, 0), BuildingBlock: ZUJKAS_clean_linker_0, # of connection points: 2
#     Edge 26, Type (0, 0), BuildingBlock: ZUJKAS_clean_linker_0, # of connection points: 2
#     Edge 27, Type (0, 0), BuildingBlock: ZUJKAS_clean_linker_0, # of connection points: 2
#     Edge 28, Type (0, 0), BuildingBlock: ZUJKAS_clean_linker_0, # of connection points: 2
#     Edge 29, Type (0, 0), BuildingBlock: ZUJKAS_clean_linker_0, # of connection points: 2
#     Edge 30, Type (0, 0), BuildingBlock: ZUJKAS_clean_linker_0, # of connection points: 2
#     Edge 31, Type (0, 0), BuildingBlock: ZUJKAS_clean_linker_0, # of connection points: 2
#     Edge 32, Type (0, 0), BuildingBlock: ZUJKAS_clean_linker_0, # of connection points: 2
#     Edge 33, Type (0, 0), BuildingBlock: ZUJKAS_clean_linker_0, # of connection points: 2
#     Edge 34, Type (0, 0), BuildingBlock: ZUJKAS_clean_linker_0, # of connection points: 2
#     Edge 35, Type (0, 0), BuildingBlock: ZUJKAS_clean_linker_0, # of connection points: 2
#     Edge 36, Type (0, 0), BuildingBlock: ZUJKAS_clean_linker_0, # of connection points: 2
#     Edge 37, Type (0, 0), BuildingBlock: ZUJKAS_clean_linker_0, # of connection points: 2
#     Edge 38, Type (0, 0), BuildingBlock: ZUJKAS_clean_linker_0, # of connection points: 2
#     Edge 39, Type (0, 0), BuildingBlock: ZUJKAS_clean_linker_0, # of connection points: 2
#     Edge 40, Type (0, 0), BuildingBlock: ZUJKAS_clean_linker_0, # of connection points: 2
#     Edge 41, Type (0, 0), BuildingBlock: ZUJKAS_clean_linker_0, # of connection points: 2
# Relax obj value: 0.258
# Max RMSD: 0.189
# Mean RMSD: 0.189
data_MOF--net-wkc--node1-BEQFEK_clean_sbu_0--edge1-ZUJKAS_clean_linker_0
_symmetry_space_group_name_H-M    P1
_symmetry_Int_Tables_number       1
_symmetry_cell_setting            triclinic
loop_
_symmetry_equiv_pos_as_xyz
'x, y, z'
_cell_length_a     50.832089
_cell_length_b     50.829338
_cell_length_c     55.640738
_cell_angle_alpha  90.027632
_cell_angle_beta   89.982462
_cell_angle_gamma 120.00477
loop_
_atom_site_label
_atom_site_type_symbol
_atom_site_fract_x
_atom_site_fract_y
_atom_site_fract_z
_atom_type_partial_charge
Co0 Co 0.25375 0.36062 0.00885 0.0
Co1 Co 0.25726 0.4134 0.04017 0.0
C2 C 0.19798 0.36359 0.0216 0.0
O3 O 0.21056 0.35042 0.01114 0.0
O4 O 0.21359 0.38819 0.03322 0.0
C5 C 0.24209 0.32533 0.96565 0.0
O6 O 0.22554 0.3375 0.95957 0.0
C7 C 0.25078 0.46584 0.05273 0.0
C8 C 0.28357 0.48621 0.08259 0.0
C9 C 0.26292 0.48995 0.06885 0.0
N10 N 0.26371 0.44879 0.05682 0.0
N11 N 0.28307 0.46091 0.07482 0.0
C12 C 0.2292 0.4602 0.0325 0.0
H13 H 0.23181 0.44634 0.01829 0.0
H14 H 0.23311 0.48199 0.02475 0.0
H15 H 0.20557 0.44745 0.0394 0.0
C16 C 0.30002 0.4136 0.98063 0.0
N17 N 0.27978 0.40149 0.99875 0.0
N18 N 0.28077 0.42366 0.01171 0.0
C19 C 0.30131 0.45051 0.00206 0.0
C20 C 0.31407 0.44501 0.98205 0.0
C21 C 0.306 0.39546 0.96252 0.0
H22 H 0.3088 0.37768 0.97175 0.0
H23 H 0.28625 0.38412 0.95023 0.0
H24 H 0.3265 0.40995 0.9516 0.0
O25 O 0.26724 0.35356 0.04055 0.0
O26 O 0.26949 0.39119 0.06235 0.0
H27 H 0.31622 0.4808 0.03216 0.0
H28 H 0.33034 0.4995 0.00366 0.0
C29 C 0.31046 0.48083 0.01296 0.0
H30 H 0.29116 0.48511 0.01186 0.0
H31 H 0.29631 0.45217 0.08153 0.0
O32 O 0.25584 0.3322 0.98574 0.0
C33 C 0.27249 0.36789 0.06038 0.0
Co34 Co 0.89207 0.25579 0.17449 0.0
Co35 Co 0.84209 0.25564 0.20773 0.0
C36 C 0.83654 0.19787 0.18851 0.0
O37 O 0.8617 0.21173 0.17727 0.0
O38 O 0.82663 0.21234 0.20063 0.0
C39 C 0.91773 0.24296 0.13262 0.0
O40 O 0.89154 0.2176 0.13106 0.0
C41 C 0.78206 0.24628 0.22247 0.0
C42 C 0.79499 0.27761 0.25343 0.0
C43 C 0.77034 0.2573 0.2398 0.0
N44 N 0.81234 0.25989 0.22555 0.0
N45 N 0.81983 0.27842 0.24418 0.0
C46 C 0.76473 0.22254 0.20383 0.0
H47 H 0.77733 0.21108 0.19821 0.0
H48 H 0.76144 0.23339 0.18771 0.0
H49 H 0.74203 0.20547 0.21079 0.0
C50 C 0.88086 0.29977 0.14775 0.0
N51 N 0.87401 0.27933 0.16552 0.0
N52 N 0.85307 0.27936 0.1794 0.0
C53 C 0.84594 0.29986 0.17094 0.0
C54 C 0.8633 0.31348 0.15059 0.0
C55 C 0.90619 0.30839 0.13017 0.0
H56 H 0.92719 0.3135 0.14001 0.0
H57 H 0.9003 0.28892 0.118 0.0
H58 H 0.91071 0.32851 0.11932 0.0
O59 O 0.91377 0.27059 0.20569 0.0
O60 O 0.87796 0.27027 0.22875 0.0
H61 H 0.83103 0.31539 0.20093 0.0
H62 H 0.82014 0.32341 0.17204 0.0
C63 C 0.82339 0.30667 0.18246 0.0
H64 H 0.80119 0.2855 0.18375 0.0
H65 H 0.842 0.29181 0.25049 0.0
O66 O 0.92238 0.26128 0.1498 0.0
C67 C 0.90489 0.27516 0.22589 0.0
Co68 Co 0.63532 0.8933 0.33973 0.0
Co69 Co 0.58127 0.84365 0.36998 0.0
C70 C 0.62996 0.83299 0.35107 0.0
O71 O 0.64437 0.85949 0.34192 0.0
O72 O 0.60489 0.82367 0.36208 0.0
C73 C 0.67642 0.9184 0.2992 0.0
O74 O 0.67214 0.89088 0.29637 0.0
C75 C 0.52837 0.7856 0.38439 0.0
C76 C 0.50543 0.80118 0.40967 0.0
C77 C 0.50297 0.77543 0.39897 0.0
N78 N 0.54502 0.81598 0.38639 0.0
N79 N 0.53136 0.8251 0.40172 0.0
C80 C 0.53533 0.76738 0.36705 0.0
H81 H 0.5493 0.75925 0.37626 0.0
H82 H 0.54847 0.78166 0.35156 0.0
H83 H 0.51415 0.74738 0.36048 0.0
C84 C 0.58355 0.88871 0.31137 0.0
N85 N 0.5948 0.87961 0.32946 0.0
N86 N 0.5721 0.85841 0.34192 0.0
C87 C 0.54569 0.85303 0.33201 0.0
C88 C 0.55203 0.87218 0.31242 0.0
C89 C 0.60271 0.9145 0.29481 0.0
H90 H 0.61497 0.9074 0.28226 0.0
H91 H 0.58889 0.92176 0.28431 0.0
H92 H 0.61985 0.93411 0.30539 0.0
O93 O 0.64258 0.91328 0.37158 0.0
O94 O 0.60458 0.87739 0.39275 0.0
H95 H 0.51024 0.83673 0.35824 0.0
H96 H 0.4968 0.82542 0.32782 0.0
C97 C 0.51499 0.8294 0.34079 0.0
H98 H 0.51471 0.8077 0.34356 0.0
H99 H 0.53942 0.84777 0.40633 0.0
O100 O 0.66353 0.92384 0.31653 0.0
C101 C 0.62814 0.90361 0.39129 0.0
Co102 Co 0.7435 0.63726 0.50519 0.0
Co103 Co 0.74072 0.58473 0.53645 0.0
C104 C 0.79982 0.63596 0.51843 0.0
O105 O 0.78698 0.64865 0.50768 0.0
O106 O 0.78438 0.61126 0.52995 0.0
C107 C 0.75206 0.67061 0.46127 0.0
O108 O 0.76641 0.65665 0.4538 0.0
C109 C 0.74686 0.53146 0.54829 0.0
C110 C 0.71835 0.51452 0.58091 0.0
C111 C 0.73646 0.50881 0.56566 0.0
N112 N 0.7351 0.54947 0.553 0.0
N113 N 0.71815 0.53923 0.57254 0.0
C114 C 0.76881 0.53694 0.52834 0.0
H115 H 0.75654 0.52191 0.51296 0.0
H116 H 0.78651 0.53172 0.53439 0.0
H117 H 0.7796 0.56069 0.52194 0.0
C118 C 0.69717 0.58375 0.47715 0.0
N119 N 0.71789 0.5962 0.49496 0.0
N120 N 0.71719 0.57421 0.50797 0.0
C121 C 0.69632 0.5472 0.49872 0.0
C122 C 0.68317 0.55237 0.47883 0.0
C123 C 0.69024 0.60148 0.45931 0.0
H124 H 0.68885 0.62009 0.46854 0.0
H125 H 0.70876 0.61157 0.44585 0.0
H126 H 0.66868 0.58693 0.44961 0.0
O127 O 0.72957 0.64373 0.53691 0.0
O128 O 0.72749 0.60615 0.55864 0.0
H129 H 0.68271 0.51827 0.52967 0.0
H130 H 0.66559 0.49865 0.502 0.0
C131 C 0.68668 0.51709 0.51021 0.0
H132 H 0.70498 0.51148 0.50809 0.0
H133 H 0.70647 0.54917 0.5802 0.0
O134 O 0.74092 0.66556 0.48233 0.0
C135 C 0.72418 0.62927 0.55667 0.0
Co136 Co 0.10518 0.74033 0.67641 0.0
Co137 Co 0.15434 0.73914 0.70949 0.0
C138 C 0.16207 0.79738 0.68934 0.0
O139 O 0.13672 0.784 0.67833 0.0
O140 O 0.1713 0.7825 0.70168 0.0
C141 C 0.07969 0.75149 0.63375 0.0
O142 O 0.10777 0.77253 0.62894 0.0
C143 C 0.21395 0.74729 0.72126 0.0
C144 C 0.20442 0.72044 0.75462 0.0
C145 C 0.22751 0.73826 0.73864 0.0
N146 N 0.18444 0.7353 0.72682 0.0
N147 N 0.1789 0.71949 0.74687 0.0
C148 C 0.22774 0.76505 0.69877 0.0
H149 H 0.20978 0.76082 0.68547 0.0
H150 H 0.24398 0.75888 0.69085 0.0
H151 H 0.24012 0.78965 0.70311 0.0
C152 C 0.11491 0.69533 0.64945 0.0
N153 N 0.12178 0.71547 0.66747 0.0
N154 N 0.14235 0.71477 0.68142 0.0
C155 C 0.14919 0.69414 0.6727 0.0
C156 C 0.13215 0.68131 0.65212 0.0
C157 C 0.09216 0.68962 0.63015 0.0
H158 H 0.09962 0.71089 0.61989 0.0
H159 H 0.08962 0.67162 0.61752 0.0
H160 H 0.06985 0.68302 0.63846 0.0
O161 O 0.08421 0.72698 0.70797 0.0
O162 O 0.11925 0.726 0.73113 0.0
H163 H 0.16481 0.68256 0.70462 0.0
H164 H 0.16582 0.66277 0.67801 0.0
C165 C 0.16936 0.68474 0.68504 0.0
H166 H 0.1934 0.70233 0.68206 0.0
H167 H 0.15762 0.70772 0.75507 0.0
O168 O 0.07413 0.73568 0.65274 0.0
C169 C 0.09275 0.72223 0.72825 0.0
Co170 Co 0.3622 0.10988 0.83549 0.0
Co171 Co 0.41285 0.15695 0.86967 0.0
C172 C 0.36073 0.16453 0.85174 0.0
O173 O 0.34905 0.14035 0.83919 0.0
O174 O 0.38477 0.17277 0.864 0.0
C175 C 0.31894 0.08125 0.79626 0.0
O176 O 0.31502 0.1049 0.79697 0.0
C177 C 0.46532 0.21643 0.88109 0.0
C178 C 0.48161 0.20684 0.91498 0.0
C179 C 0.48777 0.22968 0.89854 0.0
N180 N 0.44707 0.18707 0.88685 0.0
N181 N 0.45683 0.18151 0.90718 0.0
C182 C 0.4602 0.23156 0.85995 0.0
H183 H 0.43617 0.2188 0.8541 0.0
H184 H 0.47444 0.23206 0.84468 0.0
H185 H 0.46656 0.2553 0.86444 0.0
C186 C 0.41667 0.12343 0.80652 0.0
N187 N 0.40361 0.12822 0.82584 0.0
N188 N 0.425 0.14705 0.84058 0.0
C189 C 0.45235 0.15416 0.83145 0.0
C190 C 0.44799 0.13968 0.80944 0.0
C191 C 0.39935 0.10377 0.78566 0.0
H192 H 0.38166 0.10916 0.78001 0.0
H193 H 0.41442 0.10714 0.77014 0.0
H194 H 0.38787 0.07959 0.79127 0.0
O195 O 0.35537 0.08751 0.86652 0.0
O196 O 0.39259 0.1206 0.89005 0.0
H197 H 0.49849 0.16473 0.83847 0.0
H198 H 0.49143 0.19579 0.84213 0.0
C199 C 0.48172 0.17106 0.8449 0.0
H200 H 0.47789 0.16607 0.86437 0.0
H201 H 0.44668 0.16037 0.91565 0.0
O202 O 0.33702 0.07939 0.81102 0.0
C203 C 0.36949 0.09451 0.88653 0.0
Co204 Co 0.6343 0.74549 0.81587 0.0
Co205 Co 0.58123 0.74136 0.78464 0.0
C206 C 0.63052 0.80088 0.8028 0.0
O207 O 0.64371 0.7884 0.81333 0.0
O208 O 0.60595 0.78515 0.79119 0.0
C209 C 0.66508 0.75358 0.86094 0.0
O210 O 0.64687 0.76313 0.86867 0.0
C211 C 0.52934 0.748 0.77028 0.0
C212 C 0.50834 0.71304 0.74195 0.0
C213 C 0.50524 0.73516 0.75411 0.0
N214 N 0.54572 0.73406 0.76767 0.0
N215 N 0.5332 0.71336 0.7506 0.0
C216 C 0.53554 0.77118 0.78935 0.0
H217 H 0.5494 0.76942 0.804 0.0
H218 H 0.51398 0.7681 0.79691 0.0
H219 H 0.54848 0.79423 0.7814 0.0
C220 C 0.58144 0.69726 0.84317 0.0
N221 N 0.59347 0.71857 0.82578 0.0
N222 N 0.57123 0.71799 0.81324 0.0
C223 C 0.54442 0.69697 0.82264 0.0
C224 C 0.54998 0.68302 0.84188 0.0
C225 C 0.59946 0.68795 0.85868 0.0
H226 H 0.62 0.69136 0.84902 0.0
H227 H 0.60649 0.70194 0.87526 0.0
H228 H 0.58572 0.66372 0.86399 0.0
O229 O 0.64184 0.7321 0.78441 0.0
O230 O 0.6039 0.72923 0.76266 0.0
H231 H 0.50978 0.67926 0.7957 0.0
H232 H 0.49547 0.67627 0.82597 0.0
C233 C 0.51414 0.69067 0.81344 0.0
H234 H 0.51431 0.71235 0.81106 0.0
H235 H 0.54146 0.69923 0.74504 0.0
O236 O 0.66332 0.74507 0.83923 0.0
C237 C 0.62738 0.72651 0.76463 0.0
Co238 Co 0.88767 0.63715 0.98681 0.0
Co239 Co 0.83707 0.58411 0.95646 0.0
C240 C 0.82819 0.63382 0.97529 0.0
O241 O 0.8547 0.64747 0.98448 0.0
O242 O 0.81817 0.60863 0.96433 0.0
C243 C 0.91133 0.66964 0.03106 0.0
O244 O 0.8829 0.65447 0.03819 0.0
C245 C 0.77847 0.53277 0.94069 0.0
C246 C 0.79364 0.50987 0.91499 0.0
C247 C 0.76798 0.50798 0.92536 0.0
N248 N 0.80897 0.54832 0.93964 0.0
N249 N 0.81787 0.53463 0.92414 0.0
C250 C 0.76018 0.54297 0.95493 0.0
H251 H 0.76554 0.56579 0.94857 0.0
H252 H 0.76676 0.54509 0.97415 0.0
H253 H 0.73541 0.52743 0.95296 0.0
C254 C 0.88206 0.5841 0.01441 0.0
N255 N 0.87313 0.59628 0.9969 0.0
N256 N 0.85107 0.57416 0.98457 0.0
C257 C 0.84468 0.54729 0.99419 0.0
C258 C 0.86426 0.55265 0.01332 0.0
C259 C 0.90915 0.60197 0.03019 0.0
H260 H 0.92711 0.62161 0.02018 0.0
H261 H 0.90231 0.61055 0.04594 0.0
H262 H 0.91853 0.58773 0.03678 0.0
O263 O 0.90786 0.64411 0.95515 0.0
O264 O 0.87123 0.60691 0.93389 0.0
H265 H 0.82671 0.51138 0.96833 0.0
H266 H 0.81449 0.49887 0.9988 0.0
C267 C 0.81979 0.51715 0.98554 0.0
H268 H 0.79895 0.51843 0.98236 0.0
H269 H 0.84053 0.54211 0.91992 0.0
O270 O 0.91805 0.66566 0.00988 0.0
C271 C 0.89786 0.62986 0.93541 0.0
Co272 Co 0.25152 0.88885 0.14553 0.0
Co273 Co 0.25416 0.83881 0.11456 0.0
C274 C 0.19541 0.82979 0.13411 0.0
O275 O 0.20848 0.85569 0.14433 0.0
O276 O 0.21048 0.82052 0.12204 0.0
C277 C 0.242 0.913 0.18929 0.0
O278 O 0.22639 0.88437 0.19586 0.0
C279 C 0.24688 0.77963 0.10114 0.0
C280 C 0.28289 0.79305 0.07377 0.0
C281 C 0.26048 0.76816 0.08601 0.0
N282 N 0.26075 0.80987 0.09799 0.0
N283 N 0.28197 0.81769 0.08139 0.0
C284 C 0.2234 0.76292 0.12006 0.0
H285 H 0.225 0.77871 0.1345 0.0
H286 H 0.22619 0.74438 0.12789 0.0
H287 H 0.2005 0.75277 0.11181 0.0
C288 C 0.29934 0.88359 0.17263 0.0
N289 N 0.27806 0.87449 0.15523 0.0
N290 N 0.27836 0.85269 0.14266 0.0
C291 C 0.29946 0.8469 0.15188 0.0
C292 C 0.31356 0.86638 0.1711 0.0
C293 C 0.308 0.9103 0.18873 0.0
H294 H 0.30727 0.92871 0.17862 0.0
H295 H 0.29155 0.90326 0.2038 0.0
H296 H 0.33113 0.91918 0.19628 0.0
O297 O 0.26368 0.90857 0.11349 0.0
O298 O 0.26652 0.87315 0.09212 0.0
H299 H 0.31638 0.82968 0.12452 0.0
H300 H 0.32092 0.81929 0.1547 0.0
C301 C 0.30576 0.82296 0.14256 0.0
H302 H 0.28413 0.80123 0.14081 0.0
H303 H 0.29635 0.83997 0.07573 0.0
O304 O 0.2542 0.91963 0.16859 0.0
C305 C 0.26912 0.89932 0.09383 0.0
Co306 Co 0.36034 0.24875 0.31907 0.0
Co307 Co 0.41331 0.25286 0.28761 0.0
C308 C 0.36151 0.19302 0.30465 0.0
O309 O 0.34874 0.20539 0.31594 0.0
O310 O 0.38622 0.20894 0.29324 0.0
C311 C 0.3216 0.23508 0.36056 0.0
O312 O 0.32973 0.21486 0.36546 0.0
C313 C 0.4671 0.24719 0.27818 0.0
C314 C 0.48475 0.27385 0.24476 0.0
C315 C 0.49038 0.25699 0.26141 0.0
N316 N 0.44887 0.25813 0.27185 0.0
N317 N 0.45948 0.27394 0.25182 0.0
C318 C 0.46122 0.22653 0.29918 0.0
H319 H 0.43705 0.21522 0.30459 0.0
H320 H 0.47503 0.23997 0.31473 0.0
H321 H 0.46765 0.20919 0.29476 0.0
C322 C 0.41289 0.29298 0.34853 0.0
N323 N 0.40106 0.27345 0.32993 0.0
N324 N 0.42338 0.27559 0.31651 0.0
C325 C 0.45009 0.29676 0.32599 0.0
C326 C 0.44433 0.30826 0.34668 0.0
C327 C 0.39434 0.29717 0.36741 0.0
H328 H 0.38023 0.27529 0.37682 0.0
H329 H 0.40873 0.31451 0.38089 0.0
H330 H 0.37889 0.30388 0.35881 0.0
O331 O 0.35476 0.26378 0.28746 0.0
O332 O 0.39282 0.26714 0.26552 0.0
H333 H 0.49728 0.33123 0.32101 0.0
H334 H 0.48872 0.29265 0.31688 0.0
C335 C 0.48025 0.30866 0.31386 0.0
H336 H 0.47783 0.31068 0.29426 0.0
H337 H 0.4495 0.28485 0.24298 0.0
O338 O 0.33206 0.2515 0.34188 0.0
C339 C 0.36953 0.27013 0.26776 0.0
Co340 Co 0.10748 0.35927 0.48555 0.0
Co341 Co 0.15948 0.41167 0.45544 0.0
C342 C 0.16472 0.35885 0.47233 0.0
O343 O 0.13882 0.34689 0.48252 0.0
O344 O 0.17557 0.38413 0.46137 0.0
C345 C 0.08395 0.32621 0.52934 0.0
O346 O 0.11267 0.34028 0.53576 0.0
C347 C 0.21922 0.46352 0.44046 0.0
C348 C 0.20397 0.48761 0.41614 0.0
C349 C 0.2297 0.48936 0.42625 0.0
N350 N 0.18867 0.44769 0.43916 0.0
N351 N 0.17981 0.4621 0.42437 0.0
C352 C 0.23779 0.45359 0.45459 0.0
H353 H 0.2265 0.42856 0.45506 0.0
H354 H 0.2401 0.46186 0.47335 0.0
H355 H 0.26075 0.46271 0.44663 0.0
C356 C 0.11583 0.41258 0.51412 0.0
N357 N 0.12405 0.40005 0.49637 0.0
N358 N 0.14693 0.42181 0.48442 0.0
C359 C 0.15462 0.44876 0.49463 0.0
C360 C 0.135 0.4439 0.51366 0.0
C361 C 0.08804 0.3953 0.52932 0.0
H362 H 0.06988 0.37634 0.51888 0.0
H363 H 0.09375 0.38577 0.54509 0.0
H364 H 0.07942 0.41021 0.53587 0.0
O365 O 0.08735 0.35415 0.45404 0.0
O366 O 0.12454 0.39128 0.43311 0.0
H367 H 0.17456 0.48558 0.46962 0.0
H368 H 0.18693 0.49651 0.50031 0.0
C369 C 0.1807 0.47852 0.48659 0.0
H370 H 0.20074 0.47595 0.48322 0.0
H371 H 0.15715 0.45477 0.42025 0.0
O372 O 0.07679 0.33108 0.5086 0.0
C373 C 0.0975 0.369 0.43456 0.0
Co374 Co 0.7461 0.11116 0.65084 0.0
Co375 Co 0.74663 0.1604 0.61671 0.0
C376 C 0.80407 0.16644 0.63775 0.0
O377 O 0.79013 0.14136 0.64907 0.0
O378 O 0.78973 0.17593 0.62499 0.0
C379 C 0.75795 0.08261 0.69143 0.0
O380 O 0.78504 0.10697 0.69202 0.0
C381 C 0.75471 0.22028 0.60504 0.0
C382 C 0.73107 0.21139 0.5701 0.0
C383 C 0.74664 0.23388 0.58708 0.0
N384 N 0.74398 0.19103 0.59906 0.0
N385 N 0.73004 0.18591 0.57809 0.0
C386 C 0.77353 0.23496 0.62695 0.0
H387 H 0.75871 0.2347 0.64168 0.0
H388 H 0.79089 0.25893 0.62316 0.0
H389 H 0.78477 0.22236 0.63323 0.0
C390 C 0.7032 0.1241 0.67747 0.0
N391 N 0.72275 0.12961 0.65924 0.0
N392 N 0.72181 0.14929 0.64443 0.0
C393 C 0.701 0.15629 0.65241 0.0
C394 C 0.68872 0.14077 0.67373 0.0
C395 C 0.69876 0.1034 0.69811 0.0
H396 H 0.72121 0.10862 0.70529 0.0
H397 H 0.68544 0.1059 0.71282 0.0
H398 H 0.68684 0.07953 0.69169 0.0
O399 O 0.73224 0.08964 0.61931 0.0
O400 O 0.73285 0.125 0.59552 0.0
H401 H 0.69049 0.16999 0.61891 0.0
H402 H 0.66677 0.16818 0.64366 0.0
C403 C 0.69019 0.17425 0.6384 0.0
H404 H 0.7054 0.19878 0.64194 0.0
H405 H 0.7196 0.16495 0.56933 0.0
O406 O 0.73908 0.08015 0.67535 0.0
C407 C 0.72814 0.09821 0.59879 0.0
H408 H 0.30319 0.14855 0.83678 0.0
H409 H 0.27516 0.17503 0.84573 0.0
H410 H 0.35436 0.24647 0.88091 0.0
H411 H 0.38251 0.22053 0.8719 0.0
H412 H 0.26384 0.18559 0.89179 0.0
H413 H 0.32429 0.29451 0.84296 0.0
H414 H 0.32834 0.26216 0.83525 0.0
H415 H 0.35033 0.2872 0.85937 0.0
C416 C 0.31485 0.17027 0.84591 0.0
C417 C 0.34502 0.18233 0.85379 0.0
C418 C 0.29879 0.18534 0.851 0.0
C419 C 0.31278 0.21288 0.86372 0.0
C420 C 0.3433 0.2256 0.8706 0.0
H421 H 0.26799 0.29078 0.97508 0.0
H422 H 0.27881 0.26077 0.94679 0.0
C423 C 0.35929 0.21055 0.86564 0.0
C424 C 0.29483 0.22647 0.87276 0.0
H425 H 0.29793 0.29469 0.87952 0.0
C426 C 0.27077 0.20924 0.88862 0.0
C427 C 0.30356 0.25718 0.86839 0.0
C428 C 0.32785 0.27621 0.85034 0.0
C429 C 0.25696 0.22261 0.90174 0.0
C430 C 0.26775 0.25403 0.89909 0.0
C431 C 0.28999 0.27066 0.88175 0.0
C432 C 0.25901 0.27066 0.91613 0.0
C433 C 0.23179 0.20332 0.91909 0.0
C434 C 0.24456 0.28643 0.90818 0.0
C435 C 0.23824 0.30363 0.92439 0.0
C436 C 0.24678 0.30567 0.94867 0.0
C437 C 0.26109 0.28966 0.95651 0.0
C438 C 0.26712 0.27233 0.9404 0.0
H439 H 0.21996 0.17899 0.91376 0.0
H440 H 0.24161 0.20517 0.93725 0.0
H441 H 0.21488 0.21103 0.92021 0.0
H442 H 0.23841 0.2856 0.88944 0.0
H443 H 0.22734 0.31586 0.91779 0.0
H444 H 0.16393 0.38538 0.04209 0.0
H445 H 0.10953 0.35773 0.04974 0.0
H446 H 0.10102 0.28061 0.01056 0.0
H447 H 0.15593 0.30795 0.00324 0.0
H448 H 0.05719 0.32936 0.02177 0.0
H449 H 0.07105 0.24598 0.07763 0.0
H450 H 0.10321 0.2807 0.06702 0.0
H451 H 0.08246 0.24957 0.04669 0.0
C452 C 0.15055 0.36268 0.0348 0.0
C453 C 0.16442 0.34867 0.02245 0.0
C454 C 0.11937 0.34693 0.03911 0.0
C455 C 0.10137 0.31691 0.03115 0.0
C456 C 0.11467 0.30355 0.0173 0.0
H457 H 0.92071 0.20623 0.09785 0.0
H458 H 0.96106 0.22011 0.06788 0.0
C459 C 0.14601 0.31928 0.01303 0.0
C460 C 0.06944 0.29929 0.0394 0.0
H461 H 0.02452 0.24462 0.07986 0.0
C462 C 0.04978 0.3104 0.03408 0.0
C463 C 0.05979 0.27446 0.0554 0.0
C464 C 0.08018 0.26198 0.06222 0.0
C465 C 0.02148 0.29857 0.04545 0.0
C466 C 0.01283 0.27527 0.06268 0.0
C467 C 0.03137 0.26256 0.06664 0.0
C468 C 0.98715 0.26699 0.07928 0.0
C469 C 0.00159 0.31195 0.03972 0.0
C470 C 0.9888 0.28867 0.09571 0.0
C471 C 0.96617 0.28079 0.11294 0.0
C472 C 0.94136 0.25103 0.11407 0.0
C473 C 0.93953 0.22935 0.09739 0.0
C474 C 0.96246 0.23722 0.08025 0.0
H475 H 0.00657 0.3224 0.02155 0.0
H476 H 0.97715 0.2944 0.04071 0.0
H477 H 0.00598 0.32999 0.05302 0.0
H478 H 0.00801 0.31161 0.09555 0.0
H479 H 0.96824 0.29806 0.12545 0.0
H480 H 0.85574 0.15834 0.17462 0.0
H481 H 0.82989 0.10344 0.18203 0.0
H482 H 0.75369 0.10703 0.21243 0.0
H483 H 0.77895 0.16136 0.20496 0.0
H484 H 0.81522 0.07913 0.22717 0.0
H485 H 0.71109 0.03065 0.17225 0.0
H486 H 0.74342 0.06776 0.16635 0.0
H487 H 0.71569 0.06301 0.1887 0.0
C488 C 0.83314 0.14726 0.18232 0.0
C489 C 0.81947 0.16426 0.18933 0.0
C490 C 0.81844 0.11592 0.18654 0.0
C491 C 0.7897 0.10107 0.19747 0.0
C492 C 0.77552 0.11782 0.20344 0.0
H493 H 0.68129 0.9741 0.29591 0.0
H494 H 0.71074 0.01424 0.26698 0.0
C495 C 0.79017 0.14902 0.19936 0.0
C496 C 0.77599 0.06921 0.20577 0.0
H497 H 0.70745 0.00391 0.20986 0.0
C498 C 0.79199 0.06225 0.2228 0.0
C499 C 0.74574 0.04716 0.19997 0.0
C500 C 0.72815 0.05245 0.1806 0.0
C501 C 0.77757 0.03495 0.23579 0.0
C502 C 0.74653 0.01426 0.23154 0.0
C503 C 0.73124 0.02005 0.21317 0.0
C504 C 0.72858 0.98916 0.24837 0.0
C505 C 0.79478 0.02932 0.25528 0.0
C506 C 0.72895 0.9618 0.24736 0.0
C507 C 0.71201 0.93862 0.26391 0.0
C508 C 0.69469 0.9427 0.28173 0.0
C509 C 0.6945 0.97025 0.28254 0.0
C510 C 0.7112 0.99318 0.26597 0.0
H511 H 0.81908 0.04732 0.25593 0.0
H512 H 0.78424 0.0283 0.273 0.0
H513 H 0.79338 0.00706 0.25229 0.0
H514 H 0.74232 0.95842 0.23384 0.0
H515 H 0.71259 0.91764 0.26282 0.0
H516 H 0.74005 0.71548 0.47254 0.0
H517 H 0.72145 0.74061 0.44574 0.0
H518 H 0.72747 0.69032 0.38556 0.0
H519 H 0.74728 0.66584 0.41227 0.0
H520 H 0.74354 0.74844 0.37287 0.0
H521 H 0.63477 0.69523 0.4223 0.0
H522 H 0.66601 0.71708 0.44215 0.0
H523 H 0.66312 0.68434 0.42707 0.0
C524 C 0.73779 0.71007 0.45354 0.0
C525 C 0.74476 0.6885 0.4445 0.0
C526 C 0.727 0.72429 0.43828 0.0
C527 C 0.7222 0.71661 0.41381 0.0
C528 C 0.73074 0.69632 0.40444 0.0
H529 H 0.60132 0.77125 0.34944 0.0
H530 H 0.62373 0.73936 0.35758 0.0
C531 C 0.74208 0.68242 0.41969 0.0
C532 C 0.70693 0.72883 0.39854 0.0
H533 H 0.64504 0.73801 0.39764 0.0
C534 C 0.72179 0.74585 0.37801 0.0
C535 C 0.67806 0.72453 0.40475 0.0
C536 C 0.65942 0.70399 0.4251 0.0
C537 C 0.70935 0.76031 0.36441 0.0
C538 C 0.68186 0.75841 0.37206 0.0
C539 C 0.66627 0.73988 0.39179 0.0
C540 C 0.66972 0.77701 0.3614 0.0
C541 C 0.72585 0.77737 0.34207 0.0
C542 C 0.6882 0.80874 0.35976 0.0
C543 C 0.67552 0.8269 0.3544 0.0
C544 C 0.64399 0.8137 0.35138 0.0
C545 C 0.6257 0.78195 0.35182 0.0
C546 C 0.6385 0.76375 0.35649 0.0
H547 H 0.738 0.76671 0.33354 0.0
H548 H 0.71009 0.77821 0.32869 0.0
H549 H 0.74316 0.80095 0.34703 0.0
H550 H 0.71212 0.81973 0.36417 0.0
H551 H 0.69006 0.85137 0.35443 0.0
H552 H 0.01944 0.71106 0.63964 0.0
H553 H 0.97808 0.69962 0.61177 0.0
H554 H 0.04147 0.76558 0.5617 0.0
H555 H 0.08338 0.77733 0.58961 0.0
H556 H 0.96285 0.74454 0.59164 0.0
H557 H 0.99144 0.68231 0.52344 0.0
H558 H 0.00502 0.68698 0.55402 0.0
H559 H 0.02085 0.71884 0.53398 0.0
C560 C 0.02472 0.72322 0.62273 0.0
C561 C 0.05474 0.74511 0.61684 0.0
C562 C 0.00102 0.71665 0.60685 0.0
C563 C 0.00683 0.73164 0.58469 0.0
C564 C 0.03667 0.75362 0.57868 0.0
H565 H 0.84097 0.69507 0.50679 0.0
H566 H 0.89509 0.72293 0.51714 0.0
C567 C 0.0605 0.76035 0.59466 0.0
C568 C 0.98116 0.72398 0.56826 0.0
H569 H 0.94452 0.68047 0.51933 0.0
C570 C 0.95906 0.73112 0.5755 0.0
C571 C 0.97643 0.70638 0.54735 0.0
C572 C -0.00047 0.69796 0.53911 0.0
C573 C 0.9315 0.71975 0.56308 0.0
C574 C 0.92614 0.70099 0.54274 0.0
C575 C 0.94888 0.69508 0.5348 0.0
C576 C 0.8955 0.68381 0.53197 0.0
C577 C 0.90752 0.72619 0.57275 0.0
C578 C 0.87834 0.65239 0.5358 0.0
C579 C 0.84755 0.63644 0.52994 0.0
C580 C 0.83336 0.65164 0.52006 0.0
C581 C 0.85118 0.68272 0.51449 0.0
C582 C 0.88206 0.69871 0.52046 0.0
H583 H 0.91391 0.73787 0.59044 0.0
H584 H 0.90412 0.74092 0.55991 0.0
H585 H 0.88551 0.70473 0.57473 0.0
H586 H 0.88836 0.64048 0.54461 0.0
H587 H 0.83458 0.61246 0.53423 0.0
H588 H 0.21837 0.83304 0.70862 0.0
H589 H 0.24392 0.88755 0.7159 0.0
H590 H 0.17227 0.89286 0.67876 0.0
H591 H 0.14606 0.83791 0.67166 0.0
H592 H 0.26462 0.93987 0.68648 0.0
H593 H 0.16988 0.92234 0.74725 0.0
H594 H 0.17379 0.89102 0.7364 0.0
H595 H 0.16037 0.90971 0.71666 0.0
C596 C 0.20815 0.84576 0.70168 0.0
C597 C 0.17987 0.83099 0.68994 0.0
C598 C 0.22289 0.87698 0.70578 0.0
C599 C 0.20969 0.89409 0.69825 0.0
C600 C 0.18253 0.8799 0.68507 0.0
H601 H 0.27349 0.07328 0.76525 0.0
H602 H 0.24674 0.03189 0.73616 0.0
C603 C 0.16768 0.84854 0.68094 0.0
C604 C 0.22333 0.92602 0.7063 0.0
H605 H 0.21387 0.97001 0.74789 0.0
C606 C 0.25333 0.94671 0.69954 0.0
C607 C 0.20847 0.93491 0.72325 0.0
C608 C 0.17642 0.9134 0.73151 0.0
C609 C 0.26944 0.97547 0.71028 0.0
C610 C 0.25529 0.98347 0.72846 0.0
C611 C 0.22463 0.9637 0.73396 0.0
C612 C 0.27288 0.01003 0.74428 0.0
C613 C 0.30182 0.99664 0.70266 0.0
C614 C 0.29612 0.01119 0.7586 0.0
C615 C 0.31117 0.03448 0.77527 0.0
C616 C 0.30323 0.05713 0.77805 0.0
C617 C 0.28015 0.05618 0.7635 0.0
C618 C 0.26491 0.03264 0.74685 0.0
H619 H 0.30576 0.9921 0.68385 0.0
H620 H 0.30776 0.02078 0.70419 0.0
H621 H 0.31734 0.99302 0.71444 0.0
H622 H 0.30211 0.99355 0.75734 0.0
H623 H 0.32885 0.03451 0.78616 0.0
H624 H 0.76654 0.60741 0.97468 0.0
H625 H 0.73726 0.63176 0.96337 0.0
H626 H 0.81976 0.71873 0.96089 0.0
H627 H 0.849 0.69467 0.97316 0.0
H628 H 0.77023 0.72389 0.97498 0.0
H629 H 0.74489 0.65342 0.89266 0.0
H630 H 0.73142 0.63156 0.91975 0.0
H631 H 0.77159 0.65572 0.915 0.0
C632 C 0.77829 0.63183 0.97233 0.0
C633 C 0.81006 0.6491 0.97432 0.0
C634 C 0.76159 0.64569 0.96582 0.0
C635 C 0.7765 0.67686 0.96054 0.0
C636 C 0.80786 0.69459 0.9647 0.0
H637 H 0.71688 0.75296 0.85045 0.0
H638 H 0.74576 0.73844 0.87693 0.0
C639 C 0.82453 0.68082 0.9717 0.0
C640 C 0.7603 0.6901 0.94772 0.0
H641 H 0.72234 0.68393 0.89562 0.0
C642 C 0.75968 0.7152 0.95765 0.0
C643 C 0.74717 0.67909 0.92485 0.0
C644 C 0.74901 0.65368 0.91229 0.0
C645 C 0.7461 0.7295 0.9453 0.0
C646 C 0.73232 0.71793 0.92271 0.0
C647 C 0.73287 0.69276 0.91295 0.0
C648 C 0.71776 0.73166 0.90826 0.0
C649 C 0.74739 0.75729 0.95622 0.0
C650 C 0.69293 0.73356 0.91723 0.0
C651 C 0.67669 0.74242 0.90217 0.0
C652 C 0.68466 0.74881 0.87781 0.0
C653 C 0.71015 0.74797 0.86912 0.0
C654 C 0.72665 0.73969 0.88424 0.0
H655 H 0.76581 0.76811 0.9698 0.0
H656 H 0.75101 0.77433 0.94222 0.0
H657 H 0.72553 0.75055 0.96538 0.0
H658 H 0.68519 0.72681 0.93552 0.0
H659 H 0.65694 0.74262 0.90924 0.0
H660 H 0.15475 0.84448 0.15349 0.0
H661 H 0.09961 0.81727 0.14797 0.0
H662 H 0.10518 0.74689 0.10892 0.0
H663 H 0.15994 0.77346 0.11465 0.0
H664 H 0.07382 0.80803 0.10453 0.0
H665 H 0.03017 0.69691 0.1488 0.0
H666 H 0.06727 0.72884 0.15545 0.0
H667 H 0.06187 0.70471 0.12997 0.0
C668 C 0.14415 0.82281 0.14425 0.0
C669 C 0.16182 0.81129 0.13431 0.0
C670 C 0.11262 0.8073 0.14114 0.0
C671 C 0.09821 0.77988 0.12827 0.0
C672 C 0.11565 0.76761 0.11942 0.0
H673 H 0.97071 0.70856 0.02046 0.0
H674 H 0.01217 0.73774 0.04839 0.0
C675 C 0.14709 0.78304 0.12251 0.0
C676 C 0.066 0.76627 0.12091 0.0
H677 H 0.00132 0.69777 0.11384 0.0
C678 C 0.05767 0.78408 0.10713 0.0
C679 C 0.04468 0.73518 0.12461 0.0
C680 C 0.05139 0.71544 0.14076 0.0
C681 C 0.02967 0.77103 0.09518 0.0
C682 C 0.00978 0.73934 0.09678 0.0
C683 C 0.01686 0.72202 0.11231 0.0
C684 C 0.98381 0.72331 0.08017 0.0
C685 C 0.02219 0.79108 0.08011 0.0
C686 C 0.95411 0.70521 0.08882 0.0
C687 C 0.93021 0.68838 0.07281 0.0
C688 C 0.93583 0.6891 0.04799 0.0
C689 C 0.96559 0.70754 0.03946 0.0
C690 C 0.98931 0.72442 0.05539 0.0
H691 H 0.03391 0.81479 0.08698 0.0
H692 H 0.03004 0.7916 0.06141 0.0
H693 H 0.99734 0.78241 0.07973 0.0
H694 H 0.94951 0.70385 0.10793 0.0
H695 H 0.90755 0.67424 0.07993 0.0
H696 H 0.38335 0.15923 0.28374 0.0
H697 H 0.35503 0.10539 0.27381 0.0
H698 H 0.27646 0.09657 0.31082 0.0
H699 H 0.30454 0.15087 0.32055 0.0
H700 H 0.32272 0.0507 0.29976 0.0
H701 H 0.24751 0.07349 0.241 0.0
H702 H 0.28211 0.10374 0.2537 0.0
H703 H 0.24912 0.08304 0.27228 0.0
C704 C 0.36019 0.14585 0.29011 0.0
C705 C 0.34603 0.15951 0.30254 0.0
C706 C 0.34407 0.115 0.2845 0.0
C707 C 0.31351 0.09716 0.2912 0.0
C708 C 0.2999 0.11013 0.30513 0.0
H709 H 0.22523 0.9079 0.23674 0.0
H710 H 0.23739 0.9494 0.26517 0.0
C711 C 0.31603 0.14112 0.31075 0.0
C712 C 0.29561 0.06603 0.28136 0.0
H713 H 0.24343 0.02575 0.23786 0.0
C714 C 0.30489 0.04489 0.28661 0.0
C715 C 0.27254 0.05874 0.26407 0.0
C716 C 0.26223 0.08091 0.25721 0.0
C717 C 0.29285 0.01726 0.27409 0.0
C718 C 0.2708 0.01064 0.25606 0.0
C719 C 0.26028 0.03098 0.25178 0.0
C720 C 0.26169 0.9851 0.23912 0.0
C721 C 0.30521 0.9963 0.27906 0.0
C722 C 0.27075 0.99151 0.21503 0.0
C723 C 0.26385 0.96803 0.19882 0.0
C724 C 0.24759 0.93758 0.20635 0.0
C725 C 0.23785 0.93113 0.2304 0.0
C726 C 0.24487 0.95476 0.24669 0.0
H727 H 0.32478 0.00649 0.29166 0.0
H728 H 0.28707 0.97487 0.28708 0.0
H729 H 0.31253 0.99043 0.26205 0.0
H730 H 0.28375 0.01481 0.20886 0.0
H731 H 0.27163 0.97382 0.18043 0.0
H732 H 0.22121 0.37817 0.45378 0.0
H733 H 0.24452 0.34753 0.445 0.0
H734 H 0.16933 0.26998 0.47868 0.0
H735 H 0.14544 0.30052 0.48743 0.0
H736 H 0.26138 0.31069 0.47249 0.0
H737 H 0.16717 0.24432 0.40775 0.0
H738 H 0.17324 0.27943 0.42078 0.0
H739 H 0.15723 0.24547 0.4386 0.0
C740 C 0.20977 0.35478 0.45975 0.0
C741 C 0.18118 0.34171 0.47096 0.0
C742 C 0.22323 0.3373 0.45478 0.0
C743 C 0.20841 0.30641 0.46086 0.0
C744 C 0.1809 0.29372 0.47356 0.0
H745 H 0.30212 0.21092 0.40556 0.0
H746 H 0.27191 0.22229 0.43375 0.0
C747 C 0.16736 0.31125 0.47859 0.0
C748 C 0.22052 0.28738 0.45142 0.0
H749 H 0.20971 0.23822 0.40566 0.0
C750 C 0.24983 0.29421 0.45831 0.0
C751 C 0.20536 0.26609 0.4328 0.0
C752 C 0.17408 0.25837 0.42435 0.0
C753 C 0.26513 0.28166 0.44607 0.0
C754 C 0.2506 0.26177 0.42658 0.0
C755 C 0.22062 0.25343 0.4207 0.0
C756 C 0.26766 0.2534 0.40974 0.0
C757 C 0.29746 0.29138 0.45284 0.0
C758 C 0.27475 0.26681 0.38691 0.0
C759 C 0.29191 0.26048 0.37088 0.0
C760 C 0.3022 0.24043 0.37733 0.0
C761 C 0.29452 0.22647 0.40008 0.0
C762 C 0.27739 0.23298 0.41622 0.0
H763 H 0.30607 0.30842 0.46757 0.0
H764 H 0.29887 0.27127 0.45875 0.0
H765 H 0.31253 0.30121 0.43697 0.0
H766 H 0.2674 0.28264 0.38163 0.0
H767 H 0.29732 0.27155 0.3535 0.0
H768 H 0.84358 0.14844 0.6541 0.0
H769 H 0.8986 0.17432 0.64755 0.0
H770 H 0.89514 0.24886 0.6137 0.0
H771 H 0.84062 0.22358 0.62041 0.0
H772 H 0.92303 0.18604 0.60304 0.0
H773 H 0.97166 0.29382 0.65321 0.0
H774 H 0.93437 0.26211 0.65973 0.0
H775 H 0.93954 0.28841 0.63599 0.0
C776 C 0.85469 0.17071 0.64584 0.0
C777 C 0.83768 0.18383 0.63757 0.0
C778 C 0.88612 0.18545 0.64212 0.0
C779 C 0.90104 0.21368 0.6304 0.0
C780 C 0.88429 0.22746 0.6233 0.0
H781 H 0.02364 0.28997 0.52005 0.0
H782 H 0.98324 0.25976 0.54853 0.0
C783 C 0.85298 0.21277 0.62691 0.0
C784 C 0.93291 0.22684 0.62224 0.0
H785 H -0.00158 0.29483 0.61624 0.0
C786 C 0.93984 0.2096 0.60647 0.0
C787 C 0.95508 0.25739 0.62699 0.0
C788 C 0.94986 0.27635 0.64513 0.0
C789 C 0.96722 0.22292 0.59361 0.0
C790 C 0.98788 0.25432 0.59638 0.0
C791 C 0.98228 0.27085 0.61383 0.0
C792 C 0.01311 0.27109 0.57925 0.0
C793 C 0.97317 0.20358 0.57637 0.0
C794 C 0.04331 0.28786 0.58716 0.0
C795 C 0.06659 0.30528 0.57085 0.0
C796 C 0.05988 0.3065 0.54647 0.0
C797 C 0.0296 0.28949 0.53867 0.0
C798 C 0.00648 0.27201 0.5549 0.0
H799 H 0.96119 0.17939 0.58207 0.0
H800 H 0.96456 0.20473 0.5583 0.0
H801 H -0.00215 0.21167 0.57488 0.0
H802 H 0.04879 0.28766 0.60595 0.0
H803 H 0.08968 0.31827 0.57743 0.0
H804 H 0.609 0.83492 0.78181 0.0
H805 H 0.63706 0.88922 0.77362 0.0
H806 H 0.71389 0.89766 0.81312 0.0
H807 H 0.68614 0.84292 0.82107 0.0
H808 H 0.66656 0.94243 0.80142 0.0
H809 H 0.74779 0.92546 0.74527 0.0
H810 H 0.71278 0.89397 0.7562 0.0
H811 H 0.74427 0.91432 0.77628 0.0
C812 C 0.6317 0.84828 0.7891 0.0
C813 C 0.64552 0.83443 0.80172 0.0
C814 C 0.64768 0.8794 0.78446 0.0
C815 C 0.67775 0.89731 0.79235 0.0
C816 C 0.6909 0.88406 0.80647 0.0
H817 H 0.79373 0.07608 0.72508 0.0
H818 H 0.77794 0.0351 0.75469 0.0
C819 C 0.67493 0.85281 0.81108 0.0
C820 C 0.69571 0.92902 0.78372 0.0
H821 H 0.75081 0.97278 0.74316 0.0
C822 C 0.68537 0.94931 0.78903 0.0
C823 C 0.72033 0.93796 0.76763 0.0
C824 C 0.73195 0.91683 0.7608 0.0
C825 C 0.69797 0.97772 0.77772 0.0
C826 C 0.72117 0.98577 0.76046 0.0
C827 C 0.73295 0.96643 0.75639 0.0
C828 C 0.73064 0.01196 0.74417 0.0
C829 C 0.68565 0.99846 0.78372 0.0
C830 C 0.70932 0.01223 0.72833 0.0
C831 C 0.71825 0.03528 0.71134 0.0
C832 C 0.74874 0.05857 0.7098 0.0
C833 C 0.77007 0.05847 0.72585 0.0
C834 C 0.76111 0.03518 0.7428 0.0
H835 H 0.67574 0.99396 0.80208 0.0
H836 H 0.70364 0.02271 0.78245 0.0
H837 H 0.66735 0.99437 0.7708 0.0
H838 H 0.68584 0.99413 0.72872 0.0
H839 H 0.70122 0.03468 0.6993 0.0
H840 H 0.20632 0.71417 0.08727 0.0
H841 H 0.19918 0.66268 0.08562 0.0
H842 H 0.296 0.70052 0.07914 0.0
H843 H 0.30335 0.75185 0.08092 0.0
H844 H 0.22859 0.64044 0.0449 0.0
H845 H 0.26058 0.63751 0.14008 0.0
H846 H 0.24442 0.6603 0.13023 0.0
H847 H 0.28336 0.67225 0.12371 0.0
C848 C 0.22606 0.71147 0.0858 0.0
C849 C 0.25544 0.73696 0.08465 0.0
C850 C 0.22192 0.68212 0.08465 0.0
C851 C 0.24711 0.67802 0.08249 0.0
C852 C 0.27635 0.70339 0.08098 0.0
H853 H 0.30439 0.54829 0.07933 0.0
H854 H 0.29633 0.59164 0.0828 0.0
C855 C 0.28048 0.73262 0.08193 0.0
C856 C 0.24335 0.64733 0.08173 0.0
H857 H 0.25839 0.59948 0.11411 0.0
C858 C 0.23456 0.63108 0.06008 0.0
C859 C 0.25128 0.63553 0.10162 0.0
C860 C 0.26028 0.6521 0.12534 0.0
C861 C 0.23502 0.60384 0.05741 0.0
C862 C 0.24403 0.59253 0.0771 0.0
C863 C 0.25156 0.60825 0.09905 0.0
C864 C 0.24825 0.56587 0.07481 0.0
C865 C 0.22748 0.58828 0.03324 0.0
C866 C 0.22381 0.53694 0.06939 0.0
C867 C 0.2284 0.5121 0.06728 0.0
C868 C 0.2575 0.51586 0.07065 0.0
C869 C 0.28175 0.54474 0.07653 0.0
C870 C 0.27718 0.56951 0.07851 0.0
H871 H 0.22688 0.60308 0.01881 0.0
H872 H 0.24431 0.58136 0.02826 0.0
H873 H 0.20478 0.56749 0.03414 0.0
H874 H 0.20115 0.53352 0.06708 0.0
H875 H 0.20908 0.48993 0.06357 0.0
H876 H 0.74182 0.25365 0.28195 0.0
H877 H 0.69125 0.24751 0.28765 0.0
H878 H 0.678 0.24216 0.21088 0.0
H879 H 0.72848 0.24871 0.20504 0.0
H880 H 0.67348 0.28732 0.26941 0.0
H881 H 0.59815 0.17029 0.23563 0.0
H882 H 0.63724 0.1841 0.24402 0.0
H883 H 0.62831 0.19411 0.21541 0.0
C884 C 0.72789 0.25069 0.26631 0.0
C885 C 0.73882 0.25088 0.24308 0.0
C886 C 0.69905 0.24713 0.2696 0.0
C887 C 0.68068 0.24375 0.24971 0.0
C888 C 0.69145 0.24377 0.22649 0.0
H889 H 0.51728 0.24946 0.22191 0.0
H890 H 0.56286 0.24469 0.22028 0.0
C891 C 0.72029 0.24734 0.22319 0.0
C892 C 0.65146 0.24299 0.25307 0.0
H893 H 0.57551 0.2012 0.24121 0.0
C894 C 0.65198 0.26836 0.26352 0.0
C895 C 0.62357 0.21827 0.2452 0.0
C896 C 0.62162 0.19001 0.23463 0.0
C897 C 0.62543 0.27011 0.26569 0.0
C898 C 0.59757 0.24553 0.25759 0.0
C899 C 0.59695 0.21996 0.24741 0.0
C900 C 0.56901 0.24649 0.25884 0.0
C901 C 0.62762 0.29869 0.27584 0.0
C902 C 0.5572 0.24861 0.28107 0.0
C903 C 0.53132 0.25153 0.28205 0.0
C904 C 0.51656 0.25188 0.2608 0.0
C905 C 0.52814 0.24916 0.23858 0.0
C906 C 0.55406 0.24631 0.23762 0.0
H907 H 0.65138 0.31795 0.27589 0.0
H908 H 0.61334 0.30545 0.2654 0.0
H909 H 0.61934 0.29448 0.29468 0.0
H910 H 0.56834 0.24858 0.29766 0.0
H911 H 0.52367 0.2546 0.29939 0.0
H912 H 0.50384 0.72221 0.40366 0.0
H913 H 0.46007 0.67104 0.40876 0.0
H914 H 0.39984 0.70782 0.4054 0.0
H915 H 0.4435 0.75893 0.4009 0.0
H916 H 0.38533 0.66906 0.44163 0.0
H917 H 0.39993 0.61665 0.35887 0.0
H918 H 0.43236 0.63257 0.37841 0.0
H919 H 0.42097 0.65707 0.36418 0.0
C920 C 0.48121 0.71923 0.40366 0.0
C921 C 0.47692 0.74437 0.40152 0.0
C922 C 0.45624 0.69002 0.40655 0.0
C923 C 0.42664 0.68553 0.40699 0.0
C924 C 0.42246 0.71073 0.40501 0.0
H925 H 0.25341 0.52472 0.38671 0.0
H926 H 0.30266 0.57114 0.38283 0.0
C927 C 0.44738 0.73989 0.40245 0.0
C928 C 0.39988 0.65485 0.41032 0.0
H929 H 0.36102 0.58392 0.38565 0.0
C930 C 0.38003 0.65041 0.42941 0.0
C931 C 0.3929 0.63066 0.39422 0.0
C932 C 0.41248 0.63446 0.37263 0.0
C933 C 0.35313 0.62266 0.43266 0.0
C934 C 0.3464 0.59828 0.41683 0.0
C935 C 0.36643 0.60255 0.3979 0.0
C936 C 0.31774 0.56882 0.41874 0.0
C937 C 0.33166 0.6202 0.45244 0.0
C938 C 0.31012 0.55177 0.44003 0.0
C939 C 0.28177 0.52553 0.44244 0.0
C940 C 0.26089 0.51535 0.42331 0.0
C941 C 0.26907 0.53191 0.40172 0.0
C942 C 0.29724 0.55835 0.39944 0.0
H943 H 0.33621 0.64291 0.45858 0.0
H944 H 0.30765 0.60697 0.44643 0.0
H945 H 0.33462 0.60843 0.46811 0.0
H946 H 0.32578 0.55921 0.45503 0.0
H947 H 0.27592 0.51411 0.45963 0.0
H948 H 0.74183 0.47432 0.53001 0.0
H949 H 0.74878 0.43044 0.53496 0.0
H950 H 0.74932 0.44027 0.61196 0.0
H951 H 0.74293 0.48464 0.60716 0.0
H952 H 0.79574 0.42444 0.56102 0.0
H953 H 0.67905 0.35257 0.59741 0.0
H954 H 0.69047 0.38761 0.58149 0.0
H955 H 0.7018 0.38847 0.61218 0.0
C956 C 0.74434 0.46779 0.54797 0.0
C957 C 0.74243 0.48331 0.5682 0.0
C958 C 0.74799 0.44249 0.55076 0.0
C959 C 0.74939 0.43212 0.5738 0.0
C960 C 0.748 0.44783 0.59403 0.0
H961 H 0.74514 0.26881 0.62411 0.0
H962 H 0.74982 0.31885 0.62139 0.0
C963 C 0.74438 0.47313 0.59125 0.0
C964 C 0.75108 0.40413 0.57668 0.0
H965 H 0.71069 0.33099 0.59654 0.0
C966 C 0.77721 0.40397 0.56879 0.0
C967 C 0.72681 0.37758 0.58682 0.0
C968 C 0.69781 0.3763 0.59481 0.0
C969 C 0.77984 0.37787 0.57104 0.0
C970 C 0.75544 0.35123 0.58101 0.0
C971 C 0.72941 0.35152 0.589 0.0
C972 C 0.75591 0.32243 0.5828 0.0
C973 C 0.80885 0.37919 0.56307 0.0
C974 C 0.75783 0.30787 0.56201 0.0
C975 C 0.75563 0.27942 0.56357 0.0
C976 C 0.75147 0.26505 0.58594 0.0
C977 C 0.74961 0.27973 0.60674 0.0
C978 C 0.75188 0.3082 0.60518 0.0
H979 H 0.82808 0.40294 0.56234 0.0
H980 H 0.81502 0.36588 0.57531 0.0
H981 H 0.80562 0.36936 0.54477 0.0
H982 H 0.76012 0.31809 0.54449 0.0
H983 H 0.75675 0.26845 0.54721 0.0
H984 H 0.24564 0.70085 0.75773 0.0
H985 H 0.29702 0.70862 0.75992 0.0
H986 H 0.33208 0.7954 0.72491 0.0
H987 H 0.28089 0.78846 0.72348 0.0
H988 H 0.34942 0.75015 0.705 0.0
H989 H 0.36994 0.77438 0.80276 0.0
H990 H 0.33354 0.74261 0.7948 0.0
H991 H 0.34281 0.78027 0.78605 0.0
C992 C 0.26425 0.72171 0.75062 0.0
C993 C 0.25896 0.74369 0.73988 0.0
C994 C 0.29357 0.72609 0.7519 0.0
C995 C 0.31819 0.75256 0.74258 0.0
C996 C 0.31322 0.77474 0.73206 0.0
H997 H 0.50543 0.78935 0.75914 0.0
H998 H 0.46203 0.79744 0.75538 0.0
C999 C 0.28385 0.7705 0.73096 0.0
C1000 C 0.34889 0.7563 0.74325 0.0
H1001 H 0.40351 0.76216 0.78206 0.0
C1002 C 0.36153 0.75324 0.72176 0.0
C1003 C 0.36458 0.76056 0.76514 0.0
C1004 C 0.35223 0.7649 0.78853 0.0
C1005 C 0.3889 0.75279 0.7218 0.0
C1006 C 0.40375 0.75538 0.74388 0.0
C1007 C 0.3919 0.76003 0.76519 0.0
C1008 C 0.43027 0.75098 0.74547 0.0
C1009 C 0.40143 0.74886 0.69836 0.0
C1010 C 0.42661 0.72215 0.74126 0.0
C1011 C 0.45112 0.71729 0.74393 0.0
C1012 C 0.47975 0.74113 0.751 0.0
C1013 C 0.48349 0.7702 0.75466 0.0
C1014 C 0.45883 0.77499 0.75218 0.0
H1015 H 0.39153 0.75439 0.68269 0.0
H1016 H 0.42654 0.76347 0.69783 0.0
H1017 H 0.39588 0.72487 0.69662 0.0
H1018 H 0.40461 0.70328 0.7363 0.0
H1019 H 0.44749 0.69465 0.74089 0.0
H1020 H 0.74181 0.48202 0.88285 0.0
H1021 H 0.6913 0.43768 0.87638 0.0
H1022 H 0.67413 0.4322 0.95266 0.0
H1023 H 0.72458 0.47634 0.95918 0.0
H1024 H 0.67173 0.38075 0.89556 0.0
H1025 H 0.59612 0.42434 0.9245 0.0
H1026 H 0.63575 0.44911 0.9174 0.0
H1027 H 0.62488 0.43034 0.94607 0.0
C1028 C 0.72698 0.47161 0.89815 0.0
C1029 C 0.73665 0.48304 0.92142 0.0
C1030 C 0.69822 0.44637 0.89445 0.0
C1031 C 0.67876 0.4321 0.91398 0.0
C1032 C 0.68841 0.44348 0.93727 0.0
H1033 H 0.51294 0.26361 0.93858 0.0
H1034 H 0.55873 0.31375 0.94125 0.0
C1035 C 0.71716 0.46875 0.94096 0.0
C1036 C 0.6495 0.40376 0.91027 0.0
H1037 H 0.57306 0.37064 0.91956 0.0
C1038 C 0.6501 0.3786 0.90054 0.0
C1039 C 0.62141 0.40107 0.91694 0.0
C1040 C 0.61935 0.42772 0.92661 0.0
C1041 C 0.62342 0.35051 0.89789 0.0
C1042 C 0.59536 0.34772 0.90478 0.0
C1043 C 0.59466 0.37294 0.91429 0.0
C1044 C 0.56662 0.31847 0.90288 0.0
C1045 C 0.62559 0.32381 0.88846 0.0
C1046 C 0.55573 0.30486 0.8804 0.0
C1047 C 0.52971 0.27622 0.87884 0.0
C1048 C 0.51394 0.26094 0.89973 0.0
C1049 C 0.52459 0.27494 0.92218 0.0
C1050 C 0.55062 0.30357 0.92373 0.0
H1051 H 0.64921 0.32797 0.8892 0.0
H1052 H 0.61064 0.30291 0.89886 0.0
H1053 H 0.61806 0.31965 0.86943 0.0
H1054 H 0.56771 0.31613 0.8641 0.0
H1055 H 0.52276 0.26571 0.86135 0.0
H1056 H 0.3962 0.28678 0.22349 0.0
H1057 H 0.379 0.30339 0.18876 0.0
H1058 H 0.30274 0.29423 0.22957 0.0
H1059 H 0.31957 0.27724 0.26451 0.0
H1060 H 0.28767 0.26786 0.18307 0.0
H1061 H 0.3842 0.38638 0.18069 0.0
H1062 H 0.39526 0.3579 0.18118 0.0
H1063 H 0.37585 0.36211 0.20661 0.0
C1064 C 0.37582 0.28838 0.2252 0.0
C1065 C 0.35933 0.28078 0.24687 0.0
C1066 C 0.36612 0.29802 0.20532 0.0
C1067 C 0.33986 0.3004 0.20673 0.0
C1068 C 0.32317 0.29265 0.22821 0.0
H1069 H 0.28432 0.39237 0.10551 0.0
H1070 H 0.29953 0.37492 0.14088 0.0
C1071 C 0.33287 0.28302 0.24815 0.0
C1072 C 0.32957 0.31049 0.18559 0.0
H1073 H 0.35096 0.37 0.14707 0.0
C1074 C 0.30141 0.29022 0.17522 0.0
C1075 C 0.34746 0.33977 0.17559 0.0
C1076 C 0.37726 0.36295 0.18668 0.0
C1077 C 0.29085 0.29831 0.15479 0.0
C1078 C 0.30918 0.32727 0.14435 0.0
C1079 C 0.33712 0.34769 0.15498 0.0
C1080 C 0.29949 0.33723 0.12277 0.0
C1081 C 0.25999 0.27602 0.14479 0.0
C1082 C 0.2947 0.32196 0.10078 0.0
C1083 C 0.28592 0.33183 0.08044 0.0
C1084 C 0.28198 0.3573 0.08174 0.0
C1085 C 0.28709 0.37266 0.10381 0.0
C1086 C 0.2958 0.36274 0.12409 0.0
H1087 H 0.24587 0.25819 0.1581 0.0
H1088 H 0.24759 0.2878 0.1391 0.0
H1089 H 0.26286 0.26463 0.1288 0.0
H1090 H 0.29801 0.30256 0.09929 0.0
H1091 H 0.28233 0.31958 0.06371 0.0
H1092 H 0.111 0.39647 0.39046 0.0
H1093 H 0.07893 0.38119 0.35467 0.0
H1094 H 0.00746 0.30625 0.3937 0.0
H1095 H 0.03945 0.32113 0.42966 0.0
H1096 H 0.02018 0.29069 0.34781 0.0
H1097 H 0.00395 0.39088 0.34369 0.0
H1098 H 0.04284 0.39978 0.34551 0.0
H1099 H 0.01761 0.38116 0.37028 0.0
C1100 C 0.08842 0.37678 0.39153 0.0
C1101 C 0.07777 0.36007 0.413 0.0
C1102 C 0.07009 0.36819 0.37105 0.0
C1103 C 0.04074 0.34284 0.37166 0.0
C1104 C 0.03004 0.32598 0.39295 0.0
H1105 H 0.89397 0.28902 0.27088 0.0
H1106 H 0.92777 0.30534 0.30559 0.0
C1107 C 0.04834 0.33457 0.41348 0.0
C1108 C 0.02138 0.33357 0.34992 0.0
H1109 H 0.98579 0.35702 0.31058 0.0
C1110 C 0.01262 0.30514 0.33965 0.0
C1111 C 0.01142 0.35243 0.33949 0.0
C1112 C 0.01917 0.38267 0.35037 0.0
C1113 C 0.99426 0.29512 0.31904 0.0
C1114 C 0.98479 0.31425 0.30833 0.0
C1115 C 0.99338 0.34258 0.31872 0.0
C1116 C 0.9648 0.3047 0.28696 0.0
C1117 C 0.9846 0.26392 0.30918 0.0
C1118 C 0.97462 0.29933 0.26487 0.0
C1119 C 0.95531 0.28995 0.2449 0.0
C1120 C 0.92589 0.28589 0.2467 0.0
C1121 C 0.9164 0.29178 0.26882 0.0
C1122 C 0.9357 0.30117 0.28871 0.0
H1123 H 0.98822 0.24965 0.32239 0.0
H1124 H 0.96025 0.25204 0.30397 0.0
H1125 H -0.00184 0.26618 0.29289 0.0
H1126 H 0.99722 0.30244 0.26308 0.0
H1127 H 0.96339 0.28575 0.22812 0.0
H1128 H 0.60104 0.89168 0.43549 0.0
H1129 H 0.61839 0.92365 0.47133 0.0
H1130 H 0.69648 0.99126 0.43254 0.0
H1131 H 0.67947 0.95936 0.39648 0.0
H1132 H 0.70898 0.97639 0.47979 0.0
H1133 H 0.61569 0.00345 0.47972 0.0
H1134 H 0.60373 0.9637 0.47807 0.0
H1135 H 0.62493 0.98841 0.45369 0.0
C1136 C 0.62192 0.91335 0.4345 0.0
C1137 C 0.63879 0.92302 0.41303 0.0
C1138 C 0.63172 0.93161 0.45501 0.0
C1139 C 0.6585 0.9599 0.45445 0.0
C1140 C 0.67567 0.9695 0.43324 0.0
H1141 H 0.71849 0.10967 0.55269 0.0
H1142 H 0.70223 0.07524 0.51841 0.0
C1143 C 0.66586 0.95128 0.41266 0.0
C1144 C 0.66849 0.97953 0.47603 0.0
H1145 H 0.64856 0.01997 0.51334 0.0
C1146 C 0.69583 0.98596 0.48717 0.0
C1147 C 0.65133 0.99209 0.48541 0.0
C1148 C 0.6224 0.98684 0.47355 0.0
C1149 C 0.70642 0.00457 0.50764 0.0
C1150 C 0.68898 0.01671 0.51727 0.0
C1151 C 0.66172 0.01037 0.50602 0.0
C1152 C 0.69926 0.03731 0.53831 0.0
C1153 C 0.73647 0.01166 0.51847 0.0
C1154 C 0.70276 0.02728 0.56095 0.0
C1155 C 0.71214 0.04697 0.58071 0.0
C1156 C 0.71801 0.07697 0.57812 0.0
C1157 C 0.71422 0.08676 0.55539 0.0
C1158 C 0.7049 0.06711 0.53573 0.0
H1159 H 0.75008 0.00616 0.50595 0.0
H1160 H 0.75001 0.03603 0.52349 0.0
H1161 H 0.7323 0.99796 0.53502 0.0
H1162 H 0.69798 0.00416 0.56339 0.0
H1163 H 0.7147 0.03867 0.59797 0.0
H1164 H 0.71506 0.678 0.56019 0.0
H1165 H 0.69936 0.69503 0.59576 0.0
H1166 H 0.69567 0.62137 0.63688 0.0
H1167 H 0.71095 0.60393 0.6015 0.0
H1168 H 0.64481 0.62777 0.64284 0.0
H1169 H 0.75165 0.73778 0.65509 0.0
H1170 H 0.73516 0.73206 0.62564 0.0
H1171 H 0.74926 0.70794 0.63598 0.0
C1172 C 0.71095 0.66543 0.5768 0.0
C1173 C 0.71437 0.63965 0.57798 0.0
C1174 C 0.70217 0.67532 0.59714 0.0
C1175 C 0.69682 0.65971 0.61901 0.0
C1176 C 0.69986 0.63381 0.62018 0.0
H1177 H 0.67696 0.71879 0.76118 0.0
H1178 H 0.6937 0.70209 0.726 0.0
C1179 C 0.70861 0.62391 0.59991 0.0
C1180 C 0.68732 0.66984 0.64061 0.0
H1181 H 0.70993 0.729 0.67981 0.0
C1182 C 0.65904 0.64988 0.65096 0.0
C1183 C 0.70617 0.69852 0.65132 0.0
C1184 C 0.73738 0.72026 0.64162 0.0
C1185 C 0.64886 0.65801 0.67156 0.0
C1186 C 0.66729 0.68705 0.68183 0.0
C1187 C 0.69579 0.70684 0.67174 0.0
C1188 C 0.65725 0.69733 0.70302 0.0
C1189 C 0.61865 0.63531 0.68235 0.0
C1190 C 0.63146 0.70053 0.70159 0.0
C1191 C 0.62181 0.71001 0.7216 0.0
C1192 C 0.63789 0.71664 0.74343 0.0
C1193 C 0.66399 0.71377 0.7447 0.0
C1194 C 0.67363 0.70429 0.72462 0.0
H1195 H 0.61113 0.6118 0.67617 0.0
H1196 H 0.6198 0.63585 0.70229 0.0
H1197 H 0.6012 0.64111 0.67681 0.0
H1198 H 0.61885 0.6958 0.68494 0.0
H1199 H 0.60172 0.71212 0.71992 0.0
H1200 H 0.1026 0.708 0.77348 0.0
H1201 H 0.0682 0.69219 0.80784 0.0
H1202 H 0.00093 0.69824 0.76476 0.0
H1203 H 0.0353 0.71436 0.73017 0.0
H1204 H 0.01141 0.72645 0.81087 0.0
H1205 H 0.99075 0.60852 0.81635 0.0
H1206 H 0.03016 0.63739 0.81575 0.0
H1207 H 0.00663 0.632 0.79001 0.0
C1208 C 0.08047 0.70591 0.77121 0.0
C1209 C 0.07167 0.71234 0.74899 0.0
C1210 C 0.0608 0.69674 0.79087 0.0
C1211 C 0.03193 0.69368 0.78871 0.0
C1212 C 0.02311 0.70034 0.7667 0.0
H1213 H 0.88419 0.60426 0.89065 0.0
H1214 H 0.91624 0.62072 0.85486 0.0
C1215 C 0.04276 0.70948 0.74696 0.0
C1216 C 0.01118 0.68401 0.80961 0.0
H1217 H 0.97312 0.62558 0.84907 0.0
C1218 C 0.00289 0.70436 0.81919 0.0
C1219 C -7e-05 0.65506 0.8202 0.0
C1220 C 0.00705 0.63182 0.80997 0.0
C1221 C 0.98405 0.69673 0.83948 0.0
C1222 C 0.97361 0.66816 0.85055 0.0
C1223 C 0.98142 0.64759 0.84065 0.0
C1224 C 0.95418 0.65891 0.87224 0.0
C1225 C 0.97519 0.71913 0.84873 0.0
C1226 C 0.96504 0.67482 0.89393 0.0
C1227 C 0.94677 0.6655 0.91449 0.0
C1228 C 0.91736 0.63998 0.91371 0.0
C1229 C 0.90667 0.62405 0.89192 0.0
C1230 C 0.92495 0.63338 0.87142 0.0
H1231 H 0.97881 0.73649 0.835 0.0
H1232 H 0.95098 0.70733 0.85436 0.0
H1233 H 0.98932 0.73108 0.86463 0.0
H1234 H 0.98777 0.69425 0.89503 0.0
H1235 H 0.95576 0.67821 0.93099 0.0
H1236 H 0.30073 0.89696 0.05516 0.0
H1237 H 0.31733 0.92999 0.01994 0.0
H1238 H 0.2746 0.97852 0.04822 0.0
H1239 H 0.25921 0.94642 0.08412 0.0
H1240 H 0.28736 0.93851 0.9859 0.0
H1241 H 0.35644 0.04804 0.03312 0.0
H1242 H 0.34145 0.01201 0.04824 0.0
H1243 H 0.31774 0.02851 0.04315 0.0
C1244 C 0.29503 0.9148 0.05395 0.0
C1245 C 0.27889 0.91928 0.07249 0.0
C1246 C 0.30449 0.93364 0.03378 0.0
C1247 C 0.29771 0.95713 0.03157 0.0
C1248 C 0.28095 0.96119 0.04982 0.0
H1249 H 0.31182 0.04758 0.89441 0.0
H1250 H 0.29351 0.01359 0.92919 0.0
C1251 C 0.27199 0.94271 0.07027 0.0
C1252 C 0.3078 0.97688 0.00993 0.0
H1253 H 0.34692 0.05083 0.99167 0.0
C1254 C 0.30053 0.96308 0.98716 0.0
C1255 C 0.32535 0.00893 0.01155 0.0
C1256 C 0.33598 0.02523 0.03532 0.0
C1257 C 0.3103 0.98037 0.96599 0.0
C1258 C 0.32682 0.01246 0.96761 0.0
C1259 C 0.33404 0.02624 0.99039 0.0
C1260 C 0.33772 0.03233 0.94604 0.0
C1261 C 0.30359 0.96395 0.94221 0.0
C1262 C 0.36848 0.05473 0.94418 0.0
C1263 C 0.37879 0.07465 0.92468 0.0
C1264 C 0.35863 0.07233 0.90644 0.0
C1265 C 0.32794 0.0496 0.90805 0.0
C1266 C 0.31749 0.03005 0.92786 0.0
H1267 H 0.29961 0.9405 0.94439 0.0
H1268 H 0.28266 0.96217 0.93443 0.0
H1269 H 0.3225 0.97624 0.92926 0.0
H1270 H 0.38454 0.05697 0.95795 0.0
H1271 H 0.4026 0.0919 0.9239 0.0
H1272 H 0.37115 0.45389 0.97728 0.0
H1273 H 0.41343 0.49415 0.95437 0.0
H1274 H 0.35444 0.52698 0.92993 0.0
H1275 H 0.31256 0.48736 0.95349 0.0
H1276 H 0.42154 0.50738 0.90761 0.0
H1277 H 0.42424 0.60343 0.95668 0.0
H1278 H 0.40219 0.56468 0.96692 0.0
H1279 H 0.38766 0.57873 0.94377 0.0
C1280 C 0.36736 0.46972 0.96689 0.0
C1281 C 0.33886 0.46778 0.967 0.0
C1282 C 0.39142 0.49267 0.95389 0.0
C1283 C 0.38727 0.51396 0.94082 0.0
C1284 C 0.35842 0.51136 0.9404 0.0
H1285 H 0.50111 0.63022 0.8264 0.0
H1286 H 0.46278 0.58898 0.85099 0.0
C1287 C 0.33448 0.48863 0.95363 0.0
C1288 C 0.41302 0.53874 0.9275 0.0
H1289 H 0.4524 0.61569 0.92002 0.0
C1290 C 0.42845 0.53109 0.91044 0.0
C1291 C 0.42247 0.56972 0.93156 0.0
C1292 C 0.40849 0.57967 0.95091 0.0
C1293 C 0.45249 0.5535 0.89685 0.0
C1294 C 0.46072 0.58434 0.89992 0.0
C1295 C 0.44585 0.59203 0.91745 0.0
C1296 C 0.48435 0.609 0.88495 0.0
C1297 C 0.46906 0.54388 0.87963 0.0
C1298 C 0.50878 0.63442 0.89584 0.0
C1299 C 0.53022 0.65839 0.88182 0.0
C1300 C 0.52758 0.65736 0.85668 0.0
C1301 C 0.50339 0.63178 0.84578 0.0
C1302 C 0.48177 0.60798 0.8598 0.0
H1303 H 0.46702 0.52191 0.8851 0.0
H1304 H 0.45889 0.54076 0.86147 0.0
H1305 H 0.49354 0.56124 0.87846 0.0
H1306 H 0.51116 0.63578 0.91522 0.0
H1307 H 0.54861 0.67795 0.89064 0.0
H1308 H 0.86718 0.55029 0.06212 0.0
H1309 H 0.87059 0.51167 0.08626 0.0
H1310 H 0.86997 0.46482 0.02139 0.0
H1311 H 0.86776 0.50391 0.99729 0.0
H1312 H 0.82958 0.45074 0.08807 0.0
H1313 H 0.94133 0.4693 0.05733 0.0
H1314 H 0.9288 0.49627 0.05163 0.0
H1315 H 0.91566 0.46306 0.03302 0.0
C1316 C 0.86823 0.53194 0.05309 0.0
C1317 C 0.86709 0.5299 0.02792 0.0
C1318 C 0.87004 0.50989 0.06684 0.0
C1319 C 0.87094 0.4856 0.0556 0.0
C1320 C 0.86994 0.48367 0.03043 0.0
H1321 H 0.85732 0.31676 0.10226 0.0
H1322 H 0.85982 0.35935 0.0794 0.0
C1323 C 0.86827 0.50577 0.0167 0.0
C1324 C 0.87134 0.46141 0.07017 0.0
H1325 H 0.91021 0.42353 0.07916 0.0
C1326 C 0.84736 0.44498 0.0863 0.0
C1327 C 0.89455 0.45392 0.06778 0.0
C1328 C 0.9217 0.47176 0.05168 0.0
C1329 C 0.84557 0.42076 0.09968 0.0
C1330 C 0.8685 0.41299 0.09698 0.0
C1331 C 0.89261 0.42952 0.08103 0.0
C1332 C 0.86779 0.38773 0.11065 0.0
C1333 C 0.81885 0.40317 0.11622 0.0
C1334 C 0.87196 0.38996 0.13563 0.0
C1335 C 0.87075 0.36586 0.14859 0.0
C1336 C 0.86521 0.33917 0.13676 0.0
C1337 C 0.86156 0.33716 0.11171 0.0
C1338 C 0.86295 0.36135 0.09871 0.0
H1339 H 0.80028 0.40821 0.11279 0.0
H1340 H 0.80969 0.37835 0.11416 0.0
H1341 H 0.82639 0.4093 0.13513 0.0
H1342 H 0.8762 0.41036 0.14507 0.0
H1343 H 0.87419 0.36808 0.16787 0.0
H1344 H 0.54856 0.87079 0.26353 0.0
H1345 H 0.51049 0.87406 0.23852 0.0
H1346 H 0.46737 0.88297 0.30238 0.0
H1347 H 0.50592 0.88074 0.32726 0.0
H1348 H 0.44904 0.83494 0.23904 0.0
H1349 H 0.4736 0.95145 0.26101 0.0
H1350 H 0.4996 0.9381 0.2681 0.0
H1351 H 0.46737 0.92835 0.28713 0.0
C1352 C 0.53121 0.87396 0.2721 0.0
C1353 C 0.53003 0.87549 0.29723 0.0
C1354 C 0.50946 0.8757 0.25787 0.0
C1355 C 0.48635 0.87918 0.26858 0.0
C1356 C 0.48536 0.88095 0.29371 0.0
H1357 H 0.31905 0.86765 0.21986 0.0
H1358 H 0.3619 0.87175 0.24334 0.0
C1359 C 0.50714 0.87933 0.3079 0.0
C1360 C 0.46219 0.87908 0.25362 0.0
H1361 H 0.42671 0.91945 0.24084 0.0
C1362 C 0.44435 0.85354 0.23924 0.0
C1363 C 0.45606 0.90335 0.25401 0.0
C1364 C 0.47535 0.93199 0.26821 0.0
C1365 C 0.42008 0.8513 0.22564 0.0
C1366 C 0.41374 0.87538 0.22628 0.0
C1367 C 0.43164 0.90101 0.24051 0.0
C1368 C 0.38856 0.87426 0.21219 0.0
C1369 C 0.40095 0.82292 0.2111 0.0
C1370 C 0.38978 0.87496 0.18701 0.0
C1371 C 0.36553 0.87282 0.17367 0.0
C1372 C 0.33966 0.86982 0.18531 0.0
C1373 C 0.33878 0.8699 0.21053 0.0
C1374 C 0.36313 0.87219 0.22389 0.0
H1375 H 0.40489 0.80409 0.21635 0.0
H1376 H 0.37642 0.81521 0.21324 0.0
H1377 H 0.40674 0.82793 0.19178 0.0
H1378 H 0.40947 0.87708 0.17769 0.0
H1379 H 0.36695 0.87344 0.15423 0.0
H1380 H 0.4927 0.31133 0.36989 0.0
H1381 H 0.53182 0.3543 0.39309 0.0
H1382 H 0.48619 0.40504 0.3795 0.0
H1383 H 0.44694 0.36204 0.35637 0.0
H1384 H 0.55735 0.43233 0.36845 0.0
H1385 H 0.51512 0.38945 0.46077 0.0
H1386 H 0.51439 0.36318 0.43861 0.0
H1387 H 0.48988 0.37881 0.4352 0.0
C1388 C 0.49098 0.3316 0.3721 0.0
C1389 C 0.46682 0.33345 0.36168 0.0
C1390 C 0.51321 0.356 0.38528 0.0
C1391 C 0.51166 0.38262 0.38803 0.0
C1392 C 0.48755 0.38453 0.37764 0.0
H1393 H 0.62594 0.54338 0.4743 0.0
H1394 H 0.58354 0.50302 0.45139 0.0
C1395 C 0.46517 0.36002 0.3646 0.0
C1396 C 0.53583 0.40879 0.40115 0.0
H1397 H 0.56233 0.43494 0.45758 0.0
C1398 C 0.55844 0.43305 0.38792 0.0
C1399 C 0.53694 0.40951 0.42651 0.0
C1400 C 0.51279 0.38398 0.44128 0.0
C1401 C 0.58262 0.45792 0.39952 0.0
C1402 C 0.58406 0.45836 0.42488 0.0
C1403 C 0.56108 0.43439 0.43811 0.0
C1404 C 0.60972 0.48322 0.43797 0.0
C1405 C 0.60655 0.48356 0.38468 0.0
C1406 C 0.63825 0.48519 0.43798 0.0
C1407 C 0.66229 0.50803 0.45107 0.0
C1408 C 0.65814 0.5293 0.46411 0.0
C1409 C 0.62964 0.52741 0.46402 0.0
C1410 C 0.60551 0.5044 0.45109 0.0
H1411 H 0.59967 0.4821 0.36556 0.0
H1412 H 0.61131 0.50581 0.3921 0.0
H1413 H 0.62797 0.48278 0.38544 0.0
H1414 H 0.64177 0.46881 0.42813 0.0
H1415 H 0.68408 0.50901 0.45115 0.0
H1416 H 0.13621 0.49525 0.49807 0.0
H1417 H 0.13542 0.5349 0.52237 0.0
H1418 H 0.1257 0.48322 0.58661 0.0
H1419 H 0.1285 0.44439 0.56237 0.0
H1420 H 0.09367 0.53439 0.55055 0.0
H1421 H 0.19596 0.56406 0.60523 0.0
H1422 H 0.18575 0.53968 0.57925 0.0
H1423 H 0.16735 0.52478 0.60767 0.0
C1424 C 0.13448 0.49265 0.51742 0.0
C1425 C 0.13306 0.46711 0.52842 0.0
C1426 C 0.13372 0.51515 0.53127 0.0
C1427 C 0.13115 0.51239 0.55638 0.0
C1428 C 0.12858 0.4863 0.56734 0.0
H1429 H 0.08368 0.62505 0.64444 0.0
H1430 H 0.08267 0.58336 0.62147 0.0
C1431 C 0.1298 0.46396 0.55348 0.0
C1432 C 0.13086 0.53677 0.57087 0.0
H1433 H 0.16659 0.58637 0.61698 0.0
C1434 C 0.10966 0.54581 0.56505 0.0
C1435 C 0.15204 0.55199 0.58954 0.0
C1436 C 0.17676 0.54488 0.59566 0.0
C1437 C 0.10903 0.5696 0.57734 0.0
C1438 C 0.1295 0.58408 0.59658 0.0
C1439 C 0.15072 0.57507 0.60239 0.0
C1440 C 0.12986 0.60914 0.61056 0.0
C1441 C 0.08704 0.57951 0.56907 0.0
C1442 C 0.15693 0.63714 0.61277 0.0
C1443 C 0.1576 0.66067 0.62624 0.0
C1444 C 0.13118 0.65665 0.6375 0.0
C1445 C 0.10416 0.6287 0.63547 0.0
C1446 C 0.10356 0.605 0.62228 0.0
H1447 H 0.07993 0.57277 0.55013 0.0
H1448 H 0.06634 0.56843 0.58042 0.0
H1449 H 0.09713 0.60451 0.57058 0.0
H1450 H 0.17753 0.64081 0.60401 0.0
H1451 H 0.17871 0.68206 0.62779 0.0
H1452 H 0.68523 0.18931 0.69015 0.0
H1453 H 0.64367 0.18872 0.71307 0.0
H1454 H 0.59479 0.09072 0.71161 0.0
H1455 H 0.63629 0.09128 0.68873 0.0
H1456 H 0.58261 0.16329 0.69987 0.0
H1457 H 0.59471 0.10998 0.78308 0.0
H1458 H 0.6239 0.12596 0.76032 0.0
H1459 H 0.59105 0.08905 0.75608 0.0
C1460 C 0.66562 0.16769 0.69484 0.0
C1461 C 0.664 0.14034 0.688 0.0
C1462 C 0.64197 0.16737 0.7079 0.0
C1463 C 0.61641 0.13967 0.71436 0.0
C1464 C 0.61464 0.11231 0.7073 0.0
H1465 H 0.4495 0.0906 0.79136 0.0
H1466 H 0.48974 0.09066 0.76696 0.0
C1467 C 0.6383 0.11265 0.69426 0.0
C1468 C 0.59124 0.13943 0.72794 0.0
H1469 H 0.55126 0.11569 0.78039 0.0
C1470 C 0.57581 0.153 0.71752 0.0
C1471 C 0.58244 0.12593 0.75092 0.0
C1472 C 0.59903 0.11213 0.76341 0.0
C1473 C 0.55143 0.15304 0.72934 0.0
C1474 C 0.54263 0.13954 0.75232 0.0
C1475 C 0.55803 0.12592 0.76272 0.0
C1476 C 0.51776 0.13964 0.76607 0.0
C1477 C 0.53495 0.16702 0.71698 0.0
C1478 C 0.52031 0.16715 0.77367 0.0
C1479 C 0.49733 0.16714 0.78745 0.0
C1480 C 0.47152 0.13962 0.79388 0.0
C1481 C 0.46897 0.11211 0.78625 0.0
C1482 C 0.49197 0.11212 0.77249 0.0
H1483 H 0.53935 0.16939 0.69732 0.0
H1484 H 0.51006 0.15317 0.72 0.0
H1485 H 0.5429 0.19001 0.72449 0.0
H1486 H 0.5403 0.18861 0.76929 0.0
H1487 H 0.49979 0.18861 0.79323 0.0
loop_
_geom_bond_atom_site_label_1
_geom_bond_atom_site_label_2
_geom_bond_distance
_geom_bond_site_symmetry_2
_ccdc_geom_bond_type
Co0 O3 1.970 . S
Co0 N17 1.989 1_554 S
Co0 O25 1.967 . S
Co0 O32 1.920 1_554 S
Co1 O4 1.966 . S
Co1 N10 2.022 . S
Co1 N18 1.993 . S
Co1 O26 1.941 . S
C2 O3 1.258 . S
C2 O4 1.263 . S
O3 Co0 1.970 . S
O3 C2 1.258 . S
O4 Co1 1.966 . S
O4 C2 1.263 . S
C5 O6 1.235 . S
C5 O32 1.289 . S
O6 C5 1.235 . S
C7 C9 1.400 . S
C7 N10 1.351 . S
C7 C12 1.501 . S
C8 C9 1.387 . S
C8 N11 1.341 . S
C9 C7 1.400 . S
C9 C8 1.387 . S
N10 Co1 2.022 . S
N10 C7 1.351 . S
N10 N11 1.365 . S
N11 C8 1.341 . S
N11 N10 1.365 . S
N11 H31 0.862 . S
C12 C7 1.501 . S
C12 H13 0.961 . S
C12 H14 0.961 . S
C12 H15 0.960 . S
H13 C12 0.961 . S
H14 C12 0.961 . S
H15 C12 0.960 . S
C16 N17 1.342 . S
C16 C20 1.401 . S
C16 C21 1.499 . S
N17 Co0 1.989 1_556 S
N17 C16 1.342 . S
N17 N18 1.388 1_556 S
N18 Co1 1.993 . S
N18 N17 1.388 1_554 S
N18 C19 1.346 1_554 S
C19 N18 1.346 1_556 S
C19 C20 1.396 . S
C19 C29 1.508 1_556 S
C20 C16 1.401 . S
C20 C19 1.396 . S
C21 C16 1.499 . S
C21 H22 0.959 . S
C21 H23 0.960 . S
C21 H24 0.961 . S
H22 C21 0.959 . S
H23 C21 0.960 . S
H24 C21 0.961 . S
O25 Co0 1.967 . S
O25 C33 1.258 . S
O26 Co1 1.941 . S
O26 C33 1.266 . S
H27 C29 0.961 . S
H28 C29 0.954 1_556 S
C29 C19 1.508 1_554 S
C29 H27 0.961 . S
C29 H28 0.954 1_554 S
C29 H30 0.968 . S
H30 C29 0.968 . S
H31 N11 0.862 . S
O32 Co0 1.920 1_556 S
O32 C5 1.289 . S
C33 O25 1.258 . S
C33 O26 1.266 . S
Co34 O37 1.970 . S
Co34 N51 1.989 . S
Co34 O59 1.967 . S
Co34 O66 1.920 . S
Co35 O38 1.966 . S
Co35 N44 2.022 . S
Co35 N52 1.993 . S
Co35 O60 1.941 . S
C36 O37 1.258 . S
C36 O38 1.263 . S
O37 Co34 1.970 . S
O37 C36 1.258 . S
O38 Co35 1.966 . S
O38 C36 1.263 . S
C39 O40 1.235 . S
C39 O66 1.289 . S
O40 C39 1.235 . S
C41 C43 1.400 . S
C41 N44 1.351 . S
C41 C46 1.501 . S
C42 C43 1.387 . S
C42 N45 1.341 . S
C43 C41 1.400 . S
C43 C42 1.387 . S
N44 Co35 2.022 . S
N44 C41 1.351 . S
N44 N45 1.365 . S
N45 C42 1.341 . S
N45 N44 1.365 . S
N45 H65 0.862 . S
C46 C41 1.501 . S
C46 H47 0.961 . S
C46 H48 0.961 . S
C46 H49 0.960 . S
H47 C46 0.961 . S
H48 C46 0.961 . S
H49 C46 0.960 . S
C50 N51 1.342 . S
C50 C54 1.401 . S
C50 C55 1.499 . S
N51 Co34 1.989 . S
N51 C50 1.342 . S
N51 N52 1.388 . S
N52 Co35 1.993 . S
N52 N51 1.388 . S
N52 C53 1.346 . S
C53 N52 1.346 . S
C53 C54 1.396 . S
C53 C63 1.510 . S
C54 C50 1.401 . S
C54 C53 1.396 . S
C55 C50 1.499 . S
C55 H56 0.959 . S
C55 H57 0.960 . S
C55 H58 0.961 . S
H56 C55 0.959 . S
H57 C55 0.960 . S
H58 C55 0.961 . S
O59 Co34 1.967 . S
O59 C67 1.258 . S
O60 Co35 1.941 . S
O60 C67 1.266 . S
H61 C63 0.959 . S
H62 C63 0.961 . S
C63 C53 1.510 . S
C63 H61 0.959 . S
C63 H62 0.961 . S
C63 H64 0.960 . S
H64 C63 0.960 . S
H65 N45 0.862 . S
O66 Co34 1.920 . S
O66 C39 1.289 . S
C67 O59 1.258 . S
C67 O60 1.266 . S
Co68 O71 1.970 . S
Co68 N85 1.989 . S
Co68 O93 1.967 . S
Co68 O100 1.920 . S
Co69 O72 1.966 . S
Co69 N78 2.022 . S
Co69 N86 1.993 . S
Co69 O94 1.941 . S
C70 O71 1.258 . S
C70 O72 1.263 . S
O71 Co68 1.970 . S
O71 C70 1.258 . S
O72 Co69 1.966 . S
O72 C70 1.263 . S
C73 O74 1.235 . S
C73 O100 1.289 . S
O74 C73 1.235 . S
C75 C77 1.400 . S
C75 N78 1.351 . S
C75 C80 1.501 . S
C76 C77 1.387 . S
C76 N79 1.341 . S
C77 C75 1.400 . S
C77 C76 1.387 . S
N78 Co69 2.022 . S
N78 C75 1.351 . S
N78 N79 1.365 . S
N79 C76 1.341 . S
N79 N78 1.365 . S
N79 H99 0.862 . S
C80 C75 1.501 . S
C80 H81 0.961 . S
C80 H82 0.961 . S
C80 H83 0.960 . S
H81 C80 0.961 . S
H82 C80 0.961 . S
H83 C80 0.960 . S
C84 N85 1.342 . S
C84 C88 1.401 . S
C84 C89 1.499 . S
N85 Co68 1.989 . S
N85 C84 1.342 . S
N85 N86 1.388 . S
N86 Co69 1.993 . S
N86 N85 1.388 . S
N86 C87 1.346 . S
C87 N86 1.346 . S
C87 C88 1.396 . S
C87 C97 1.510 . S
C88 C84 1.401 . S
C88 C87 1.396 . S
C89 C84 1.499 . S
C89 H90 0.959 . S
C89 H91 0.960 . S
C89 H92 0.961 . S
H90 C89 0.959 . S
H91 C89 0.960 . S
H92 C89 0.961 . S
O93 Co68 1.967 . S
O93 C101 1.258 . S
O94 Co69 1.941 . S
O94 C101 1.266 . S
H95 C97 0.959 . S
H96 C97 0.961 . S
C97 C87 1.510 . S
C97 H95 0.959 . S
C97 H96 0.961 . S
C97 H98 0.960 . S
H98 C97 0.960 . S
H99 N79 0.862 . S
O100 Co68 1.920 . S
O100 C73 1.289 . S
C101 O93 1.258 . S
C101 O94 1.266 . S
Co102 O105 1.970 . S
Co102 N119 1.989 . S
Co102 O127 1.967 . S
Co102 O134 1.920 . S
Co103 O106 1.966 . S
Co103 N112 2.022 . S
Co103 N120 1.993 . S
Co103 O128 1.941 . S
C104 O105 1.258 . S
C104 O106 1.263 . S
O105 Co102 1.970 . S
O105 C104 1.258 . S
O106 Co103 1.966 . S
O106 C104 1.263 . S
C107 O108 1.235 . S
C107 O134 1.289 . S
O108 C107 1.235 . S
C109 C111 1.400 . S
C109 N112 1.351 . S
C109 C114 1.501 . S
C110 C111 1.387 . S
C110 N113 1.341 . S
C111 C109 1.400 . S
C111 C110 1.387 . S
N112 Co103 2.022 . S
N112 C109 1.351 . S
N112 N113 1.365 . S
N113 C110 1.341 . S
N113 N112 1.365 . S
N113 H133 0.862 . S
C114 C109 1.501 . S
C114 H115 0.961 . S
C114 H116 0.961 . S
C114 H117 0.960 . S
H115 C114 0.961 . S
H116 C114 0.961 . S
H117 C114 0.960 . S
C118 N119 1.342 . S
C118 C122 1.401 . S
C118 C123 1.499 . S
N119 Co102 1.989 . S
N119 C118 1.342 . S
N119 N120 1.388 . S
N120 Co103 1.993 . S
N120 N119 1.388 . S
N120 C121 1.346 . S
C121 N120 1.346 . S
C121 C122 1.396 . S
C121 C131 1.510 . S
C122 C118 1.401 . S
C122 C121 1.396 . S
C123 C118 1.499 . S
C123 H124 0.959 . S
C123 H125 0.960 . S
C123 H126 0.961 . S
H124 C123 0.959 . S
H125 C123 0.960 . S
H126 C123 0.961 . S
O127 Co102 1.967 . S
O127 C135 1.258 . S
O128 Co103 1.941 . S
O128 C135 1.266 . S
H129 C131 0.959 . S
H130 C131 0.961 . S
C131 C121 1.510 . S
C131 H129 0.959 . S
C131 H130 0.961 . S
C131 H132 0.960 . S
H132 C131 0.960 . S
H133 N113 0.862 . S
O134 Co102 1.920 . S
O134 C107 1.289 . S
C135 O127 1.258 . S
C135 O128 1.266 . S
Co136 O139 1.970 . S
Co136 N153 1.989 . S
Co136 O161 1.967 . S
Co136 O168 1.920 . S
Co137 O140 1.966 . S
Co137 N146 2.022 . S
Co137 N154 1.993 . S
Co137 O162 1.941 . S
C138 O139 1.258 . S
C138 O140 1.263 . S
O139 Co136 1.970 . S
O139 C138 1.258 . S
O140 Co137 1.966 . S
O140 C138 1.263 . S
C141 O142 1.235 . S
C141 O168 1.289 . S
O142 C141 1.235 . S
C143 C145 1.400 . S
C143 N146 1.351 . S
C143 C148 1.501 . S
C144 C145 1.387 . S
C144 N147 1.341 . S
C145 C143 1.400 . S
C145 C144 1.387 . S
N146 Co137 2.022 . S
N146 C143 1.351 . S
N146 N147 1.365 . S
N147 C144 1.341 . S
N147 N146 1.365 . S
N147 H167 0.862 . S
C148 C143 1.501 . S
C148 H149 0.961 . S
C148 H150 0.961 . S
C148 H151 0.960 . S
H149 C148 0.961 . S
H150 C148 0.961 . S
H151 C148 0.960 . S
C152 N153 1.342 . S
C152 C156 1.401 . S
C152 C157 1.499 . S
N153 Co136 1.989 . S
N153 C152 1.342 . S
N153 N154 1.388 . S
N154 Co137 1.993 . S
N154 N153 1.388 . S
N154 C155 1.346 . S
C155 N154 1.346 . S
C155 C156 1.396 . S
C155 C165 1.510 . S
C156 C152 1.401 . S
C156 C155 1.396 . S
C157 C152 1.499 . S
C157 H158 0.959 . S
C157 H159 0.960 . S
C157 H160 0.961 . S
H158 C157 0.959 . S
H159 C157 0.960 . S
H160 C157 0.961 . S
O161 Co136 1.967 . S
O161 C169 1.258 . S
O162 Co137 1.941 . S
O162 C169 1.266 . S
H163 C165 0.959 . S
H164 C165 0.961 . S
C165 C155 1.510 . S
C165 H163 0.959 . S
C165 H164 0.961 . S
C165 H166 0.960 . S
H166 C165 0.960 . S
H167 N147 0.862 . S
O168 Co136 1.920 . S
O168 C141 1.289 . S
C169 O161 1.258 . S
C169 O162 1.266 . S
Co170 O173 1.970 . S
Co170 N187 1.989 . S
Co170 O195 1.967 . S
Co170 O202 1.920 . S
Co171 O174 1.966 . S
Co171 N180 2.022 . S
Co171 N188 1.993 . S
Co171 O196 1.941 . S
C172 O173 1.258 . S
C172 O174 1.263 . S
O173 Co170 1.970 . S
O173 C172 1.258 . S
O174 Co171 1.966 . S
O174 C172 1.263 . S
C175 O176 1.235 . S
C175 O202 1.289 . S
O176 C175 1.235 . S
C177 C179 1.400 . S
C177 N180 1.351 . S
C177 C182 1.501 . S
C178 C179 1.387 . S
C178 N181 1.341 . S
C179 C177 1.400 . S
C179 C178 1.387 . S
N180 Co171 2.022 . S
N180 C177 1.351 . S
N180 N181 1.365 . S
N181 C178 1.341 . S
N181 N180 1.365 . S
N181 H201 0.862 . S
C182 C177 1.501 . S
C182 H183 0.961 . S
C182 H184 0.961 . S
C182 H185 0.960 . S
H183 C182 0.961 . S
H184 C182 0.961 . S
H185 C182 0.960 . S
C186 N187 1.342 . S
C186 C190 1.401 . S
C186 C191 1.499 . S
N187 Co170 1.989 . S
N187 C186 1.342 . S
N187 N188 1.388 . S
N188 Co171 1.993 . S
N188 N187 1.388 . S
N188 C189 1.346 . S
C189 N188 1.346 . S
C189 C190 1.396 . S
C189 C199 1.510 . S
C190 C186 1.401 . S
C190 C189 1.396 . S
C191 C186 1.499 . S
C191 H192 0.959 . S
C191 H193 0.960 . S
C191 H194 0.961 . S
H192 C191 0.959 . S
H193 C191 0.960 . S
H194 C191 0.961 . S
O195 Co170 1.967 . S
O195 C203 1.258 . S
O196 Co171 1.941 . S
O196 C203 1.266 . S
H197 C199 0.959 . S
H198 C199 0.961 . S
C199 C189 1.510 . S
C199 H197 0.959 . S
C199 H198 0.961 . S
C199 H200 0.960 . S
H200 C199 0.960 . S
H201 N181 0.862 . S
O202 Co170 1.920 . S
O202 C175 1.289 . S
C203 O195 1.258 . S
C203 O196 1.266 . S
Co204 O207 1.970 . S
Co204 N221 1.989 . S
Co204 O229 1.967 . S
Co204 O236 1.920 . S
Co205 O208 1.966 . S
Co205 N214 2.022 . S
Co205 N222 1.993 . S
Co205 O230 1.941 . S
C206 O207 1.258 . S
C206 O208 1.263 . S
O207 Co204 1.970 . S
O207 C206 1.258 . S
O208 Co205 1.966 . S
O208 C206 1.263 . S
C209 O210 1.235 . S
C209 O236 1.289 . S
O210 C209 1.235 . S
C211 C213 1.400 . S
C211 N214 1.351 . S
C211 C216 1.501 . S
C212 C213 1.387 . S
C212 N215 1.341 . S
C213 C211 1.400 . S
C213 C212 1.387 . S
N214 Co205 2.022 . S
N214 C211 1.351 . S
N214 N215 1.365 . S
N215 C212 1.341 . S
N215 N214 1.365 . S
N215 H235 0.862 . S
C216 C211 1.501 . S
C216 H217 0.961 . S
C216 H218 0.961 . S
C216 H219 0.960 . S
H217 C216 0.961 . S
H218 C216 0.961 . S
H219 C216 0.960 . S
C220 N221 1.342 . S
C220 C224 1.401 . S
C220 C225 1.499 . S
N221 Co204 1.989 . S
N221 C220 1.342 . S
N221 N222 1.388 . S
N222 Co205 1.993 . S
N222 N221 1.388 . S
N222 C223 1.346 . S
C223 N222 1.346 . S
C223 C224 1.396 . S
C223 C233 1.510 . S
C224 C220 1.401 . S
C224 C223 1.396 . S
C225 C220 1.499 . S
C225 H226 0.959 . S
C225 H227 0.960 . S
C225 H228 0.961 . S
H226 C225 0.959 . S
H227 C225 0.960 . S
H228 C225 0.961 . S
O229 Co204 1.967 . S
O229 C237 1.258 . S
O230 Co205 1.941 . S
O230 C237 1.266 . S
H231 C233 0.959 . S
H232 C233 0.961 . S
C233 C223 1.510 . S
C233 H231 0.959 . S
C233 H232 0.961 . S
C233 H234 0.960 . S
H234 C233 0.960 . S
H235 N215 0.862 . S
O236 Co204 1.920 . S
O236 C209 1.289 . S
C237 O229 1.258 . S
C237 O230 1.266 . S
Co238 O241 1.970 . S
Co238 N255 1.989 . S
Co238 O263 1.967 . S
Co238 O270 1.920 . S
Co239 O242 1.966 . S
Co239 N248 2.022 . S
Co239 N256 1.993 . S
Co239 O264 1.941 . S
C240 O241 1.258 . S
C240 O242 1.263 . S
O241 Co238 1.970 . S
O241 C240 1.258 . S
O242 Co239 1.966 . S
O242 C240 1.263 . S
C243 O244 1.235 . S
C243 O270 1.289 1_554 S
O244 C243 1.235 . S
C245 C247 1.400 . S
C245 N248 1.351 . S
C245 C250 1.501 . S
C246 C247 1.387 . S
C246 N249 1.341 . S
C247 C245 1.400 . S
C247 C246 1.387 . S
N248 Co239 2.022 . S
N248 C245 1.351 . S
N248 N249 1.365 . S
N249 C246 1.341 . S
N249 N248 1.365 . S
N249 H269 0.862 . S
C250 C245 1.501 . S
C250 H251 0.961 . S
C250 H252 0.961 . S
C250 H253 0.960 . S
H251 C250 0.961 . S
H252 C250 0.961 . S
H253 C250 0.960 . S
C254 N255 1.342 1_554 S
C254 C258 1.401 . S
C254 C259 1.499 . S
N255 Co238 1.989 . S
N255 C254 1.342 1_556 S
N255 N256 1.388 . S
N256 Co239 1.993 . S
N256 N255 1.388 . S
N256 C257 1.346 . S
C257 N256 1.346 . S
C257 C258 1.396 1_556 S
C257 C267 1.510 . S
C258 C254 1.401 . S
C258 C257 1.396 1_554 S
C259 C254 1.499 . S
C259 H260 0.959 . S
C259 H261 0.960 . S
C259 H262 0.961 . S
H260 C259 0.959 . S
H261 C259 0.960 . S
H262 C259 0.961 . S
O263 Co238 1.967 . S
O263 C271 1.258 . S
O264 Co239 1.941 . S
O264 C271 1.266 . S
H265 C267 0.959 . S
H266 C267 0.961 1_554 S
C267 C257 1.510 . S
C267 H265 0.959 . S
C267 H266 0.961 1_556 S
C267 H268 0.960 . S
H268 C267 0.960 . S
H269 N249 0.862 . S
O270 Co238 1.920 . S
O270 C243 1.289 1_556 S
C271 O263 1.258 . S
C271 O264 1.266 . S
Co272 O275 1.970 . S
Co272 N289 1.989 . S
Co272 O297 1.967 . S
Co272 O304 1.920 . S
Co273 O276 1.966 . S
Co273 N282 2.022 . S
Co273 N290 1.993 . S
Co273 O298 1.941 . S
C274 O275 1.258 . S
C274 O276 1.263 . S
O275 Co272 1.970 . S
O275 C274 1.258 . S
O276 Co273 1.966 . S
O276 C274 1.263 . S
C277 O278 1.235 . S
C277 O304 1.289 . S
O278 C277 1.235 . S
C279 C281 1.400 . S
C279 N282 1.351 . S
C279 C284 1.501 . S
C280 C281 1.387 . S
C280 N283 1.341 . S
C281 C279 1.400 . S
C281 C280 1.387 . S
N282 Co273 2.022 . S
N282 C279 1.351 . S
N282 N283 1.365 . S
N283 C280 1.341 . S
N283 N282 1.365 . S
N283 H303 0.862 . S
C284 C279 1.501 . S
C284 H285 0.961 . S
C284 H286 0.961 . S
C284 H287 0.960 . S
H285 C284 0.961 . S
H286 C284 0.961 . S
H287 C284 0.960 . S
C288 N289 1.342 . S
C288 C292 1.401 . S
C288 C293 1.499 . S
N289 Co272 1.989 . S
N289 C288 1.342 . S
N289 N290 1.388 . S
N290 Co273 1.993 . S
N290 N289 1.388 . S
N290 C291 1.346 . S
C291 N290 1.346 . S
C291 C292 1.396 . S
C291 C301 1.510 . S
C292 C288 1.401 . S
C292 C291 1.396 . S
C293 C288 1.499 . S
C293 H294 0.959 . S
C293 H295 0.960 . S
C293 H296 0.961 . S
H294 C293 0.959 . S
H295 C293 0.960 . S
H296 C293 0.961 . S
O297 Co272 1.967 . S
O297 C305 1.258 . S
O298 Co273 1.941 . S
O298 C305 1.266 . S
H299 C301 0.959 . S
H300 C301 0.961 . S
C301 C291 1.510 . S
C301 H299 0.959 . S
C301 H300 0.961 . S
C301 H302 0.960 . S
H302 C301 0.960 . S
H303 N283 0.862 . S
O304 Co272 1.920 . S
O304 C277 1.289 . S
C305 O297 1.258 . S
C305 O298 1.266 . S
Co306 O309 1.970 . S
Co306 N323 1.989 . S
Co306 O331 1.967 . S
Co306 O338 1.920 . S
Co307 O310 1.966 . S
Co307 N316 2.022 . S
Co307 N324 1.993 . S
Co307 O332 1.941 . S
C308 O309 1.258 . S
C308 O310 1.263 . S
O309 Co306 1.970 . S
O309 C308 1.258 . S
O310 Co307 1.966 . S
O310 C308 1.263 . S
C311 O312 1.235 . S
C311 O338 1.289 . S
O312 C311 1.235 . S
C313 C315 1.400 . S
C313 N316 1.351 . S
C313 C318 1.501 . S
C314 C315 1.387 . S
C314 N317 1.341 . S
C315 C313 1.400 . S
C315 C314 1.387 . S
N316 Co307 2.022 . S
N316 C313 1.351 . S
N316 N317 1.365 . S
N317 C314 1.341 . S
N317 N316 1.365 . S
N317 H337 0.862 . S
C318 C313 1.501 . S
C318 H319 0.961 . S
C318 H320 0.961 . S
C318 H321 0.960 . S
H319 C318 0.961 . S
H320 C318 0.961 . S
H321 C318 0.960 . S
C322 N323 1.342 . S
C322 C326 1.401 . S
C322 C327 1.499 . S
N323 Co306 1.989 . S
N323 C322 1.342 . S
N323 N324 1.388 . S
N324 Co307 1.993 . S
N324 N323 1.388 . S
N324 C325 1.346 . S
C325 N324 1.346 . S
C325 C326 1.396 . S
C325 C335 1.510 . S
C326 C322 1.401 . S
C326 C325 1.396 . S
C327 C322 1.499 . S
C327 H328 0.959 . S
C327 H329 0.960 . S
C327 H330 0.961 . S
H328 C327 0.959 . S
H329 C327 0.960 . S
H330 C327 0.961 . S
O331 Co306 1.967 . S
O331 C339 1.258 . S
O332 Co307 1.941 . S
O332 C339 1.266 . S
H333 C335 0.959 . S
H334 C335 0.961 . S
C335 C325 1.510 . S
C335 H333 0.959 . S
C335 H334 0.961 . S
C335 H336 0.960 . S
H336 C335 0.960 . S
H337 N317 0.862 . S
O338 Co306 1.920 . S
O338 C311 1.289 . S
C339 O331 1.258 . S
C339 O332 1.266 . S
Co340 O343 1.970 . S
Co340 N357 1.989 . S
Co340 O365 1.967 . S
Co340 O372 1.920 . S
Co341 O344 1.966 . S
Co341 N350 2.022 . S
Co341 N358 1.993 . S
Co341 O366 1.941 . S
C342 O343 1.258 . S
C342 O344 1.263 . S
O343 Co340 1.970 . S
O343 C342 1.258 . S
O344 Co341 1.966 . S
O344 C342 1.263 . S
C345 O346 1.235 . S
C345 O372 1.289 . S
O346 C345 1.235 . S
C347 C349 1.400 . S
C347 N350 1.351 . S
C347 C352 1.501 . S
C348 C349 1.387 . S
C348 N351 1.341 . S
C349 C347 1.400 . S
C349 C348 1.387 . S
N350 Co341 2.022 . S
N350 C347 1.351 . S
N350 N351 1.365 . S
N351 C348 1.341 . S
N351 N350 1.365 . S
N351 H371 0.862 . S
C352 C347 1.501 . S
C352 H353 0.961 . S
C352 H354 0.961 . S
C352 H355 0.960 . S
H353 C352 0.961 . S
H354 C352 0.961 . S
H355 C352 0.960 . S
C356 N357 1.342 . S
C356 C360 1.401 . S
C356 C361 1.499 . S
N357 Co340 1.989 . S
N357 C356 1.342 . S
N357 N358 1.388 . S
N358 Co341 1.993 . S
N358 N357 1.388 . S
N358 C359 1.346 . S
C359 N358 1.346 . S
C359 C360 1.396 . S
C359 C369 1.510 . S
C360 C356 1.401 . S
C360 C359 1.396 . S
C361 C356 1.499 . S
C361 H362 0.959 . S
C361 H363 0.960 . S
C361 H364 0.961 . S
H362 C361 0.959 . S
H363 C361 0.960 . S
H364 C361 0.961 . S
O365 Co340 1.967 . S
O365 C373 1.258 . S
O366 Co341 1.941 . S
O366 C373 1.266 . S
H367 C369 0.959 . S
H368 C369 0.961 . S
C369 C359 1.510 . S
C369 H367 0.959 . S
C369 H368 0.961 . S
C369 H370 0.960 . S
H370 C369 0.960 . S
H371 N351 0.862 . S
O372 Co340 1.920 . S
O372 C345 1.289 . S
C373 O365 1.258 . S
C373 O366 1.266 . S
Co374 O377 1.970 . S
Co374 N391 1.989 . S
Co374 O399 1.967 . S
Co374 O406 1.920 . S
Co375 O378 1.966 . S
Co375 N384 2.022 . S
Co375 N392 1.993 . S
Co375 O400 1.941 . S
C376 O377 1.258 . S
C376 O378 1.263 . S
O377 Co374 1.970 . S
O377 C376 1.258 . S
O378 Co375 1.966 . S
O378 C376 1.263 . S
C379 O380 1.235 . S
C379 O406 1.289 . S
O380 C379 1.235 . S
C381 C383 1.400 . S
C381 N384 1.351 . S
C381 C386 1.501 . S
C382 C383 1.387 . S
C382 N385 1.341 . S
C383 C381 1.400 . S
C383 C382 1.387 . S
N384 Co375 2.022 . S
N384 C381 1.351 . S
N384 N385 1.365 . S
N385 C382 1.341 . S
N385 N384 1.365 . S
N385 H405 0.862 . S
C386 C381 1.501 . S
C386 H387 0.961 . S
C386 H388 0.961 . S
C386 H389 0.960 . S
H387 C386 0.961 . S
H388 C386 0.961 . S
H389 C386 0.960 . S
C390 N391 1.342 . S
C390 C394 1.401 . S
C390 C395 1.499 . S
N391 Co374 1.989 . S
N391 C390 1.342 . S
N391 N392 1.388 . S
N392 Co375 1.993 . S
N392 N391 1.388 . S
N392 C393 1.346 . S
C393 N392 1.346 . S
C393 C394 1.396 . S
C393 C403 1.510 . S
C394 C390 1.401 . S
C394 C393 1.396 . S
C395 C390 1.499 . S
C395 H396 0.959 . S
C395 H397 0.960 . S
C395 H398 0.961 . S
H396 C395 0.959 . S
H397 C395 0.960 . S
H398 C395 0.961 . S
O399 Co374 1.967 . S
O399 C407 1.258 . S
O400 Co375 1.941 . S
O400 C407 1.266 . S
H401 C403 0.959 . S
H402 C403 0.961 . S
C403 C393 1.510 . S
C403 H401 0.959 . S
C403 H402 0.961 . S
C403 H404 0.960 . S
H404 C403 0.960 . S
H405 N385 0.862 . S
O406 Co374 1.920 . S
O406 C379 1.289 . S
C407 O399 1.258 . S
C407 O400 1.266 . S
H408 C416 0.929 . S
H409 C418 0.930 . S
H410 C420 0.930 . S
H411 C423 0.929 . S
H412 C426 0.930 . S
H413 C428 0.960 . S
H414 C428 0.960 . S
H415 C428 0.960 . S
C416 H408 0.929 . S
C416 C417 1.377 . S
C416 C418 1.384 . S
C417 C416 1.377 . S
C417 C423 1.390 . S
C418 H409 0.930 . S
C418 C416 1.384 . S
C418 C419 1.372 . S
C419 C418 1.372 . S
C419 C420 1.400 . S
C419 C424 1.490 . S
C420 H410 0.930 . S
C420 C419 1.400 . S
C420 C423 1.386 . S
H421 C437 0.930 . S
H422 C438 0.931 . S
C423 H411 0.929 . S
C423 C417 1.390 . S
C423 C420 1.386 . S
C424 C419 1.490 . S
C424 C426 1.395 . S
C424 C427 1.403 . S
H425 C431 0.930 . S
C426 H412 0.930 . S
C426 C424 1.395 . S
C426 C429 1.403 . S
C427 C424 1.403 . S
C427 C428 1.524 . S
C427 C431 1.400 . S
C428 H413 0.960 . S
C428 H414 0.960 . S
C428 H415 0.960 . S
C428 C427 1.524 . S
C429 C426 1.403 . S
C429 C430 1.392 . S
C429 C433 1.495 . S
C430 C429 1.392 . S
C430 C431 1.385 . S
C430 C432 1.478 . S
C431 H425 0.930 . S
C431 C427 1.400 . S
C431 C430 1.385 . S
C432 C430 1.478 . S
C432 C434 1.381 . S
C432 C438 1.383 . S
C433 C429 1.495 . S
C433 H439 0.959 . S
C433 H440 0.961 . S
C433 H441 0.960 . S
C434 C432 1.381 . S
C434 C435 1.394 . S
C434 H442 0.930 . S
C435 C434 1.394 . S
C435 C436 1.383 . S
C435 H443 0.929 . S
C436 C435 1.383 . S
C436 C437 1.377 . S
C437 H421 0.930 . S
C437 C436 1.377 . S
C437 C438 1.379 . S
C438 H422 0.931 . S
C438 C432 1.383 . S
C438 C437 1.379 . S
H439 C433 0.959 . S
H440 C433 0.961 . S
H441 C433 0.960 . S
H442 C434 0.930 . S
H443 C435 0.929 . S
H444 C452 0.929 . S
H445 C454 0.930 . S
H446 C456 0.930 . S
H447 C459 0.929 . S
H448 C462 0.930 . S
H449 C464 0.960 . S
H450 C464 0.960 . S
H451 C464 0.960 . S
C452 H444 0.929 . S
C452 C453 1.377 . S
C452 C454 1.384 . S
C453 C452 1.377 . S
C453 C459 1.390 . S
C454 H445 0.930 . S
C454 C452 1.384 . S
C454 C455 1.372 . S
C455 C454 1.372 . S
C455 C456 1.400 . S
C455 C460 1.490 . S
C456 H446 0.930 . S
C456 C455 1.400 . S
C456 C459 1.386 . S
H457 C473 0.930 . S
H458 C474 0.931 . S
C459 H447 0.929 . S
C459 C453 1.390 . S
C459 C456 1.386 . S
C460 C455 1.490 . S
C460 C462 1.395 . S
C460 C463 1.403 . S
H461 C467 0.930 . S
C462 H448 0.930 . S
C462 C460 1.395 . S
C462 C465 1.403 . S
C463 C460 1.403 . S
C463 C464 1.524 . S
C463 C467 1.400 . S
C464 H449 0.960 . S
C464 H450 0.960 . S
C464 H451 0.960 . S
C464 C463 1.524 . S
C465 C462 1.403 . S
C465 C466 1.392 . S
C465 C469 1.495 . S
C466 C465 1.392 . S
C466 C467 1.385 . S
C466 C468 1.478 . S
C467 H461 0.930 . S
C467 C463 1.400 . S
C467 C466 1.385 . S
C468 C466 1.478 . S
C468 C470 1.382 . S
C468 C474 1.383 1_455 S
C469 C465 1.495 . S
C469 H475 0.959 . S
C469 H476 0.961 . S
C469 H477 0.960 . S
C470 C468 1.382 . S
C470 C471 1.393 1_455 S
C470 H478 0.930 . S
C471 C470 1.393 1_655 S
C471 C472 1.383 . S
C471 H479 0.929 . S
C472 C471 1.383 . S
C472 C473 1.377 . S
C473 H457 0.930 . S
C473 C472 1.377 . S
C473 C474 1.379 . S
C474 H458 0.931 . S
C474 C468 1.383 1_655 S
C474 C473 1.379 . S
H475 C469 0.959 . S
H476 C469 0.961 . S
H477 C469 0.960 . S
H478 C470 0.930 . S
H479 C471 0.929 . S
H480 C488 0.929 . S
H481 C490 0.930 . S
H482 C492 0.930 . S
H483 C495 0.929 . S
H484 C498 0.930 . S
H485 C500 0.960 . S
H486 C500 0.960 . S
H487 C500 0.960 . S
C488 H480 0.929 . S
C488 C489 1.377 . S
C488 C490 1.384 . S
C489 C488 1.377 . S
C489 C495 1.390 . S
C490 H481 0.930 . S
C490 C488 1.384 . S
C490 C491 1.372 . S
C491 C490 1.372 . S
C491 C492 1.400 . S
C491 C496 1.490 . S
C492 H482 0.930 . S
C492 C491 1.400 . S
C492 C495 1.386 . S
H493 C509 0.930 . S
H494 C510 0.931 1_545 S
C495 H483 0.929 . S
C495 C489 1.390 . S
C495 C492 1.386 . S
C496 C491 1.490 . S
C496 C498 1.395 . S
C496 C499 1.403 . S
H497 C503 0.930 . S
C498 H484 0.930 . S
C498 C496 1.395 . S
C498 C501 1.403 . S
C499 C496 1.403 . S
C499 C500 1.524 . S
C499 C503 1.400 . S
C500 H485 0.960 . S
C500 H486 0.960 . S
C500 H487 0.960 . S
C500 C499 1.524 . S
C501 C498 1.403 . S
C501 C502 1.392 . S
C501 C505 1.495 . S
C502 C501 1.392 . S
C502 C503 1.385 . S
C502 C504 1.478 . S
C503 H497 0.930 . S
C503 C499 1.400 . S
C503 C502 1.385 . S
C504 C502 1.478 . S
C504 C506 1.381 1_545 S
C504 C510 1.383 1_545 S
C505 C501 1.495 . S
C505 H511 0.959 . S
C505 H512 0.961 . S
C505 H513 0.960 . S
C506 C504 1.381 1_565 S
C506 C507 1.394 . S
C506 H514 0.930 1_565 S
C507 C506 1.394 . S
C507 C508 1.383 . S
C507 H515 0.929 . S
C508 C507 1.383 . S
C508 C509 1.377 . S
C509 H493 0.930 . S
C509 C508 1.377 . S
C509 C510 1.379 . S
C510 H494 0.931 1_565 S
C510 C504 1.383 1_565 S
C510 C509 1.379 . S
H511 C505 0.959 . S
H512 C505 0.961 . S
H513 C505 0.960 . S
H514 C506 0.930 1_545 S
H515 C507 0.929 . S
H516 C524 0.929 . S
H517 C526 0.930 . S
H518 C528 0.930 . S
H519 C531 0.929 . S
H520 C534 0.930 . S
H521 C536 0.960 . S
H522 C536 0.960 . S
H523 C536 0.960 . S
C524 H516 0.929 . S
C524 C525 1.377 . S
C524 C526 1.384 . S
C525 C524 1.377 . S
C525 C531 1.390 . S
C526 H517 0.930 . S
C526 C524 1.384 . S
C526 C527 1.372 . S
C527 C526 1.372 . S
C527 C528 1.400 . S
C527 C532 1.490 . S
C528 H518 0.930 . S
C528 C527 1.400 . S
C528 C531 1.386 . S
H529 C545 0.930 . S
H530 C546 0.931 . S
C531 H519 0.929 . S
C531 C525 1.390 . S
C531 C528 1.386 . S
C532 C527 1.490 . S
C532 C534 1.395 . S
C532 C535 1.403 . S
H533 C539 0.930 . S
C534 H520 0.930 . S
C534 C532 1.395 . S
C534 C537 1.403 . S
C535 C532 1.403 . S
C535 C536 1.524 . S
C535 C539 1.400 . S
C536 H521 0.960 . S
C536 H522 0.960 . S
C536 H523 0.960 . S
C536 C535 1.524 . S
C537 C534 1.403 . S
C537 C538 1.392 . S
C537 C541 1.495 . S
C538 C537 1.392 . S
C538 C539 1.385 . S
C538 C540 1.478 . S
C539 H533 0.930 . S
C539 C535 1.400 . S
C539 C538 1.385 . S
C540 C538 1.478 . S
C540 C542 1.381 . S
C540 C546 1.383 . S
C541 C537 1.495 . S
C541 H547 0.959 . S
C541 H548 0.961 . S
C541 H549 0.960 . S
C542 C540 1.381 . S
C542 C543 1.394 . S
C542 H550 0.930 . S
C543 C542 1.394 . S
C543 C544 1.383 . S
C543 H551 0.929 . S
C544 C543 1.383 . S
C544 C545 1.377 . S
C545 H529 0.930 . S
C545 C544 1.377 . S
C545 C546 1.379 . S
C546 H530 0.931 . S
C546 C540 1.383 . S
C546 C545 1.379 . S
H547 C541 0.959 . S
H548 C541 0.961 . S
H549 C541 0.960 . S
H550 C542 0.930 . S
H551 C543 0.929 . S
H552 C560 0.929 . S
H553 C562 0.930 1_655 S
H554 C564 0.930 . S
H555 C567 0.929 . S
H556 C570 0.930 . S
H557 C572 0.960 . S
H558 C572 0.955 1_455 S
H559 C572 0.958 1_455 S
C560 H552 0.929 . S
C560 C561 1.377 . S
C560 C562 1.384 . S
C561 C560 1.377 . S
C561 C567 1.390 . S
C562 H553 0.930 1_455 S
C562 C560 1.384 . S
C562 C563 1.372 1_455 S
C563 C562 1.372 1_655 S
C563 C564 1.400 1_655 S
C563 C568 1.490 . S
C564 H554 0.930 . S
C564 C563 1.400 1_455 S
C564 C567 1.386 . S
H565 C581 0.930 . S
H566 C582 0.931 . S
C567 H555 0.929 . S
C567 C561 1.390 . S
C567 C564 1.386 . S
C568 C563 1.490 . S
C568 C570 1.395 . S
C568 C571 1.403 . S
H569 C575 0.930 . S
C570 H556 0.930 . S
C570 C568 1.395 . S
C570 C573 1.403 . S
C571 C568 1.403 . S
C571 C572 1.524 . S
C571 C575 1.400 . S
C572 H557 0.960 . S
C572 H558 0.955 1_655 S
C572 H559 0.958 1_655 S
C572 C571 1.524 . S
C573 C570 1.403 . S
C573 C574 1.392 . S
C573 C577 1.495 . S
C574 C573 1.392 . S
C574 C575 1.385 . S
C574 C576 1.478 . S
C575 H569 0.930 . S
C575 C571 1.400 . S
C575 C574 1.385 . S
C576 C574 1.478 . S
C576 C578 1.381 . S
C576 C582 1.383 . S
C577 C573 1.495 . S
C577 H583 0.959 . S
C577 H584 0.961 . S
C577 H585 0.960 . S
C578 C576 1.381 . S
C578 C579 1.394 . S
C578 H586 0.930 . S
C579 C578 1.394 . S
C579 C580 1.383 . S
C579 H587 0.929 . S
C580 C579 1.383 . S
C580 C581 1.377 . S
C581 H565 0.930 . S
C581 C580 1.377 . S
C581 C582 1.379 . S
C582 H566 0.931 . S
C582 C576 1.383 . S
C582 C581 1.379 . S
H583 C577 0.959 . S
H584 C577 0.961 . S
H585 C577 0.960 . S
H586 C578 0.930 . S
H587 C579 0.929 . S
H588 C596 0.929 . S
H589 C598 0.930 . S
H590 C600 0.930 . S
H591 C603 0.929 . S
H592 C606 0.930 . S
H593 C608 0.960 . S
H594 C608 0.960 . S
H595 C608 0.960 . S
C596 H588 0.929 . S
C596 C597 1.377 . S
C596 C598 1.384 . S
C597 C596 1.377 . S
C597 C603 1.390 . S
C598 H589 0.930 . S
C598 C596 1.384 . S
C598 C599 1.372 . S
C599 C598 1.372 . S
C599 C600 1.400 . S
C599 C604 1.490 . S
C600 H590 0.930 . S
C600 C599 1.400 . S
C600 C603 1.386 . S
H601 C617 0.930 . S
H602 C618 0.931 . S
C603 H591 0.929 . S
C603 C597 1.390 . S
C603 C600 1.386 . S
C604 C599 1.490 . S
C604 C606 1.395 . S
C604 C607 1.403 . S
H605 C611 0.930 . S
C606 H592 0.930 . S
C606 C604 1.395 . S
C606 C609 1.403 . S
C607 C604 1.403 . S
C607 C608 1.524 . S
C607 C611 1.400 . S
C608 H593 0.960 . S
C608 H594 0.960 . S
C608 H595 0.960 . S
C608 C607 1.524 . S
C609 C606 1.403 . S
C609 C610 1.392 . S
C609 C613 1.495 . S
C610 C609 1.392 . S
C610 C611 1.385 . S
C610 C612 1.478 . S
C611 H605 0.930 . S
C611 C607 1.400 . S
C611 C610 1.385 . S
C612 C610 1.478 . S
C612 C614 1.381 . S
C612 C618 1.383 1_565 S
C613 C609 1.495 . S
C613 H619 0.959 . S
C613 H620 0.961 . S
C613 H621 0.960 . S
C614 C612 1.381 . S
C614 C615 1.394 1_565 S
C614 H622 0.930 . S
C615 C614 1.394 1_545 S
C615 C616 1.383 . S
C615 H623 0.929 . S
C616 C615 1.383 . S
C616 C617 1.377 . S
C617 H601 0.930 . S
C617 C616 1.377 . S
C617 C618 1.379 . S
C618 H602 0.931 . S
C618 C612 1.383 1_545 S
C618 C617 1.379 . S
H619 C613 0.959 . S
H620 C613 0.961 . S
H621 C613 0.960 . S
H622 C614 0.930 . S
H623 C615 0.929 . S
H624 C632 0.929 . S
H625 C634 0.930 . S
H626 C636 0.930 . S
H627 C639 0.929 . S
H628 C642 0.930 . S
H629 C644 0.960 . S
H630 C644 0.960 . S
H631 C644 0.960 . S
C632 H624 0.929 . S
C632 C633 1.377 . S
C632 C634 1.384 . S
C633 C632 1.377 . S
C633 C639 1.390 . S
C634 H625 0.930 . S
C634 C632 1.384 . S
C634 C635 1.372 . S
C635 C634 1.372 . S
C635 C636 1.400 . S
C635 C640 1.490 . S
C636 H626 0.930 . S
C636 C635 1.400 . S
C636 C639 1.386 . S
H637 C653 0.930 . S
H638 C654 0.931 . S
C639 H627 0.929 . S
C639 C633 1.390 . S
C639 C636 1.386 . S
C640 C635 1.490 . S
C640 C642 1.395 . S
C640 C643 1.403 . S
H641 C647 0.930 . S
C642 H628 0.930 . S
C642 C640 1.395 . S
C642 C645 1.403 . S
C643 C640 1.403 . S
C643 C644 1.524 . S
C643 C647 1.400 . S
C644 H629 0.960 . S
C644 H630 0.960 . S
C644 H631 0.960 . S
C644 C643 1.524 . S
C645 C642 1.403 . S
C645 C646 1.392 . S
C645 C649 1.495 . S
C646 C645 1.392 . S
C646 C647 1.385 . S
C646 C648 1.478 . S
C647 H641 0.930 . S
C647 C643 1.400 . S
C647 C646 1.385 . S
C648 C646 1.478 . S
C648 C650 1.381 . S
C648 C654 1.383 . S
C649 C645 1.495 . S
C649 H655 0.959 . S
C649 H656 0.961 . S
C649 H657 0.960 . S
C650 C648 1.381 . S
C650 C651 1.394 . S
C650 H658 0.930 . S
C651 C650 1.394 . S
C651 C652 1.383 . S
C651 H659 0.929 . S
C652 C651 1.383 . S
C652 C653 1.377 . S
C653 H637 0.930 . S
C653 C652 1.377 . S
C653 C654 1.379 . S
C654 H638 0.931 . S
C654 C648 1.383 . S
C654 C653 1.379 . S
H655 C649 0.959 . S
H656 C649 0.961 . S
H657 C649 0.960 . S
H658 C650 0.930 . S
H659 C651 0.929 . S
H660 C668 0.929 . S
H661 C670 0.930 . S
H662 C672 0.930 . S
H663 C675 0.929 . S
H664 C678 0.930 . S
H665 C680 0.960 . S
H666 C680 0.960 . S
H667 C680 0.960 . S
C668 H660 0.929 . S
C668 C669 1.377 . S
C668 C670 1.384 . S
C669 C668 1.377 . S
C669 C675 1.390 . S
C670 H661 0.930 . S
C670 C668 1.384 . S
C670 C671 1.372 . S
C671 C670 1.372 . S
C671 C672 1.400 . S
C671 C676 1.490 . S
C672 H662 0.930 . S
C672 C671 1.400 . S
C672 C675 1.386 . S
H673 C689 0.930 1_556 S
H674 C690 0.931 . S
C675 H663 0.929 . S
C675 C669 1.390 . S
C675 C672 1.386 . S
C676 C671 1.490 . S
C676 C678 1.395 . S
C676 C679 1.403 . S
H677 C683 0.930 . S
C678 H664 0.930 . S
C678 C676 1.395 . S
C678 C681 1.403 . S
C679 C676 1.403 . S
C679 C680 1.524 . S
C679 C683 1.400 . S
C680 H665 0.960 . S
C680 H666 0.960 . S
C680 H667 0.960 . S
C680 C679 1.524 . S
C681 C678 1.403 . S
C681 C682 1.392 . S
C681 C685 1.495 . S
C682 C681 1.392 . S
C682 C683 1.385 . S
C682 C684 1.478 . S
C683 H677 0.930 . S
C683 C679 1.400 . S
C683 C682 1.385 . S
C684 C682 1.478 . S
C684 C686 1.381 1_455 S
C684 C690 1.383 . S
C685 C681 1.495 . S
C685 H691 0.959 . S
C685 H692 0.961 . S
C685 H693 0.960 . S
C686 C684 1.381 1_655 S
C686 C687 1.394 . S
C686 H694 0.930 . S
C687 C686 1.394 . S
C687 C688 1.383 . S
C687 H695 0.929 . S
C688 C687 1.383 . S
C688 C689 1.377 . S
C689 H673 0.930 1_554 S
C689 C688 1.377 . S
C689 C690 1.379 1_655 S
C690 H674 0.931 . S
C690 C684 1.383 . S
C690 C689 1.379 1_455 S
H691 C685 0.959 . S
H692 C685 0.961 . S
H693 C685 0.960 . S
H694 C686 0.930 . S
H695 C687 0.929 . S
H696 C704 0.929 . S
H697 C706 0.930 . S
H698 C708 0.930 . S
H699 C711 0.929 . S
H700 C714 0.930 . S
H701 C716 0.960 . S
H702 C716 0.960 . S
H703 C716 0.960 . S
C704 H696 0.929 . S
C704 C705 1.377 . S
C704 C706 1.384 . S
C705 C704 1.377 . S
C705 C711 1.390 . S
C706 H697 0.930 . S
C706 C704 1.384 . S
C706 C707 1.372 . S
C707 C706 1.372 . S
C707 C708 1.400 . S
C707 C712 1.490 . S
C708 H698 0.930 . S
C708 C707 1.400 . S
C708 C711 1.386 . S
H709 C725 0.930 . S
H710 C726 0.931 . S
C711 H699 0.929 . S
C711 C705 1.390 . S
C711 C708 1.386 . S
C712 C707 1.490 . S
C712 C714 1.395 . S
C712 C715 1.403 . S
H713 C719 0.930 . S
C714 H700 0.930 . S
C714 C712 1.395 . S
C714 C717 1.403 . S
C715 C712 1.403 . S
C715 C716 1.524 . S
C715 C719 1.400 . S
C716 H701 0.960 . S
C716 H702 0.960 . S
C716 H703 0.960 . S
C716 C715 1.524 . S
C717 C714 1.403 . S
C717 C718 1.392 . S
C717 C721 1.495 . S
C718 C717 1.392 . S
C718 C719 1.385 . S
C718 C720 1.478 . S
C719 H713 0.930 . S
C719 C715 1.400 . S
C719 C718 1.385 . S
C720 C718 1.478 . S
C720 C722 1.381 . S
C720 C726 1.383 1_545 S
C721 C717 1.495 . S
C721 H727 0.959 . S
C721 H728 0.961 . S
C721 H729 0.960 . S
C722 C720 1.381 . S
C722 C723 1.394 1_545 S
C722 H730 0.930 . S
C723 C722 1.394 1_565 S
C723 C724 1.383 . S
C723 H731 0.929 . S
C724 C723 1.383 . S
C724 C725 1.377 . S
C725 H709 0.930 . S
C725 C724 1.377 . S
C725 C726 1.379 . S
C726 H710 0.931 . S
C726 C720 1.383 1_565 S
C726 C725 1.379 . S
H727 C721 0.959 . S
H728 C721 0.961 . S
H729 C721 0.960 . S
H730 C722 0.930 . S
H731 C723 0.929 . S
H732 C740 0.929 . S
H733 C742 0.930 . S
H734 C744 0.930 . S
H735 C747 0.929 . S
H736 C750 0.930 . S
H737 C752 0.960 . S
H738 C752 0.960 . S
H739 C752 0.960 . S
C740 H732 0.929 . S
C740 C741 1.377 . S
C740 C742 1.384 . S
C741 C740 1.377 . S
C741 C747 1.390 . S
C742 H733 0.930 . S
C742 C740 1.384 . S
C742 C743 1.372 . S
C743 C742 1.372 . S
C743 C744 1.400 . S
C743 C748 1.490 . S
C744 H734 0.930 . S
C744 C743 1.400 . S
C744 C747 1.386 . S
H745 C761 0.930 . S
H746 C762 0.931 . S
C747 H735 0.929 . S
C747 C741 1.390 . S
C747 C744 1.386 . S
C748 C743 1.490 . S
C748 C750 1.395 . S
C748 C751 1.403 . S
H749 C755 0.930 . S
C750 H736 0.930 . S
C750 C748 1.395 . S
C750 C753 1.403 . S
C751 C748 1.403 . S
C751 C752 1.524 . S
C751 C755 1.400 . S
C752 H737 0.960 . S
C752 H738 0.960 . S
C752 H739 0.960 . S
C752 C751 1.524 . S
C753 C750 1.403 . S
C753 C754 1.392 . S
C753 C757 1.495 . S
C754 C753 1.392 . S
C754 C755 1.385 . S
C754 C756 1.478 . S
C755 H749 0.930 . S
C755 C751 1.400 . S
C755 C754 1.385 . S
C756 C754 1.478 . S
C756 C758 1.381 . S
C756 C762 1.383 . S
C757 C753 1.495 . S
C757 H763 0.959 . S
C757 H764 0.961 . S
C757 H765 0.960 . S
C758 C756 1.381 . S
C758 C759 1.394 . S
C758 H766 0.930 . S
C759 C758 1.394 . S
C759 C760 1.383 . S
C759 H767 0.929 . S
C760 C759 1.383 . S
C760 C761 1.377 . S
C761 H745 0.930 . S
C761 C760 1.377 . S
C761 C762 1.379 . S
C762 H746 0.931 . S
C762 C756 1.383 . S
C762 C761 1.379 . S
H763 C757 0.959 . S
H764 C757 0.961 . S
H765 C757 0.960 . S
H766 C758 0.930 . S
H767 C759 0.929 . S
H768 C776 0.929 . S
H769 C778 0.930 . S
H770 C780 0.930 . S
H771 C783 0.929 . S
H772 C786 0.930 . S
H773 C788 0.960 . S
H774 C788 0.960 . S
H775 C788 0.960 . S
C776 H768 0.929 . S
C776 C777 1.377 . S
C776 C778 1.384 . S
C777 C776 1.377 . S
C777 C783 1.390 . S
C778 H769 0.930 . S
C778 C776 1.384 . S
C778 C779 1.372 . S
C779 C778 1.372 . S
C779 C780 1.400 . S
C779 C784 1.490 . S
C780 H770 0.930 . S
C780 C779 1.400 . S
C780 C783 1.386 . S
H781 C797 0.930 . S
H782 C798 0.931 . S
C783 H771 0.929 . S
C783 C777 1.390 . S
C783 C780 1.386 . S
C784 C779 1.490 . S
C784 C786 1.395 . S
C784 C787 1.403 . S
H785 C791 0.930 . S
C786 H772 0.930 . S
C786 C784 1.395 . S
C786 C789 1.403 . S
C787 C784 1.403 . S
C787 C788 1.524 . S
C787 C791 1.400 . S
C788 H773 0.960 . S
C788 H774 0.960 . S
C788 H775 0.960 . S
C788 C787 1.524 . S
C789 C786 1.403 . S
C789 C790 1.392 . S
C789 C793 1.495 . S
C790 C789 1.392 . S
C790 C791 1.385 . S
C790 C792 1.478 . S
C791 H785 0.930 . S
C791 C787 1.400 . S
C791 C790 1.385 . S
C792 C790 1.478 . S
C792 C794 1.381 1_655 S
C792 C798 1.383 . S
C793 C789 1.495 . S
C793 H799 0.959 . S
C793 H800 0.961 . S
C793 H801 0.960 . S
C794 C792 1.381 1_455 S
C794 C795 1.394 . S
C794 H802 0.930 . S
C795 C794 1.394 . S
C795 C796 1.383 . S
C795 H803 0.929 . S
C796 C795 1.383 . S
C796 C797 1.377 . S
C797 H781 0.930 . S
C797 C796 1.377 . S
C797 C798 1.379 1_455 S
C798 H782 0.931 . S
C798 C792 1.383 . S
C798 C797 1.379 1_655 S
H799 C793 0.959 . S
H800 C793 0.961 . S
H801 C793 0.960 . S
H802 C794 0.930 . S
H803 C795 0.929 . S
H804 C812 0.929 . S
H805 C814 0.930 . S
H806 C816 0.930 . S
H807 C819 0.929 . S
H808 C822 0.930 . S
H809 C824 0.960 . S
H810 C824 0.960 . S
H811 C824 0.960 . S
C812 H804 0.929 . S
C812 C813 1.377 . S
C812 C814 1.384 . S
C813 C812 1.377 . S
C813 C819 1.390 . S
C814 H805 0.930 . S
C814 C812 1.384 . S
C814 C815 1.372 . S
C815 C814 1.372 . S
C815 C816 1.400 . S
C815 C820 1.490 . S
C816 H806 0.930 . S
C816 C815 1.400 . S
C816 C819 1.386 . S
H817 C833 0.930 . S
H818 C834 0.931 . S
C819 H807 0.929 . S
C819 C813 1.390 . S
C819 C816 1.386 . S
C820 C815 1.490 . S
C820 C822 1.395 . S
C820 C823 1.403 . S
H821 C827 0.930 . S
C822 H808 0.930 . S
C822 C820 1.395 . S
C822 C825 1.403 . S
C823 C820 1.403 . S
C823 C824 1.524 . S
C823 C827 1.400 . S
C824 H809 0.960 . S
C824 H810 0.960 . S
C824 H811 0.960 . S
C824 C823 1.524 . S
C825 C822 1.403 . S
C825 C826 1.392 . S
C825 C829 1.495 . S
C826 C825 1.392 . S
C826 C827 1.385 . S
C826 C828 1.478 . S
C827 H821 0.930 . S
C827 C823 1.400 . S
C827 C826 1.385 . S
C828 C826 1.478 . S
C828 C830 1.381 . S
C828 C834 1.383 1_565 S
C829 C825 1.495 . S
C829 H835 0.959 . S
C829 H836 0.961 . S
C829 H837 0.960 . S
C830 C828 1.381 . S
C830 C831 1.394 1_565 S
C830 H838 0.930 . S
C831 C830 1.394 1_545 S
C831 C832 1.383 . S
C831 H839 0.929 . S
C832 C831 1.383 . S
C832 C833 1.377 . S
C833 H817 0.930 . S
C833 C832 1.377 . S
C833 C834 1.379 . S
C834 H818 0.931 . S
C834 C828 1.383 1_545 S
C834 C833 1.379 . S
H835 C829 0.959 . S
H836 C829 0.961 . S
H837 C829 0.960 . S
H838 C830 0.930 . S
H839 C831 0.929 . S
H840 C848 0.929 . S
H841 C850 0.930 . S
H842 C852 0.930 . S
H843 C855 0.929 . S
H844 C858 0.930 . S
H845 C860 0.960 . S
H846 C860 0.960 . S
H847 C860 0.960 . S
C848 H840 0.929 . S
C848 C849 1.377 . S
C848 C850 1.384 . S
C849 C848 1.377 . S
C849 C855 1.390 . S
C850 H841 0.930 . S
C850 C848 1.384 . S
C850 C851 1.372 . S
C851 C850 1.372 . S
C851 C852 1.400 . S
C851 C856 1.490 . S
C852 H842 0.930 . S
C852 C851 1.400 . S
C852 C855 1.386 . S
H853 C869 0.930 . S
H854 C870 0.931 . S
C855 H843 0.929 . S
C855 C849 1.390 . S
C855 C852 1.386 . S
C856 C851 1.490 . S
C856 C858 1.395 . S
C856 C859 1.403 . S
H857 C863 0.930 . S
C858 H844 0.930 . S
C858 C856 1.395 . S
C858 C861 1.403 . S
C859 C856 1.403 . S
C859 C860 1.524 . S
C859 C863 1.400 . S
C860 H845 0.960 . S
C860 H846 0.960 . S
C860 H847 0.960 . S
C860 C859 1.524 . S
C861 C858 1.403 . S
C861 C862 1.392 . S
C861 C865 1.495 . S
C862 C861 1.392 . S
C862 C863 1.385 . S
C862 C864 1.478 . S
C863 H857 0.930 . S
C863 C859 1.400 . S
C863 C862 1.385 . S
C864 C862 1.478 . S
C864 C866 1.381 . S
C864 C870 1.383 . S
C865 C861 1.495 . S
C865 H871 0.959 . S
C865 H872 0.961 . S
C865 H873 0.960 . S
C866 C864 1.381 . S
C866 C867 1.394 . S
C866 H874 0.930 . S
C867 C866 1.394 . S
C867 C868 1.383 . S
C867 H875 0.929 . S
C868 C867 1.383 . S
C868 C869 1.377 . S
C869 H853 0.930 . S
C869 C868 1.377 . S
C869 C870 1.379 . S
C870 H854 0.931 . S
C870 C864 1.383 . S
C870 C869 1.379 . S
H871 C865 0.959 . S
H872 C865 0.961 . S
H873 C865 0.960 . S
H874 C866 0.930 . S
H875 C867 0.929 . S
H876 C884 0.929 . S
H877 C886 0.930 . S
H878 C888 0.930 . S
H879 C891 0.929 . S
H880 C894 0.930 . S
H881 C896 0.960 . S
H882 C896 0.960 . S
H883 C896 0.960 . S
C884 H876 0.929 . S
C884 C885 1.377 . S
C884 C886 1.384 . S
C885 C884 1.377 . S
C885 C891 1.390 . S
C886 H877 0.930 . S
C886 C884 1.384 . S
C886 C887 1.372 . S
C887 C886 1.372 . S
C887 C888 1.400 . S
C887 C892 1.490 . S
C888 H878 0.930 . S
C888 C887 1.400 . S
C888 C891 1.386 . S
H889 C905 0.930 . S
H890 C906 0.931 . S
C891 H879 0.929 . S
C891 C885 1.390 . S
C891 C888 1.386 . S
C892 C887 1.490 . S
C892 C894 1.395 . S
C892 C895 1.403 . S
H893 C899 0.930 . S
C894 H880 0.930 . S
C894 C892 1.395 . S
C894 C897 1.403 . S
C895 C892 1.403 . S
C895 C896 1.524 . S
C895 C899 1.400 . S
C896 H881 0.960 . S
C896 H882 0.960 . S
C896 H883 0.960 . S
C896 C895 1.524 . S
C897 C894 1.403 . S
C897 C898 1.392 . S
C897 C901 1.495 . S
C898 C897 1.392 . S
C898 C899 1.385 . S
C898 C900 1.478 . S
C899 H893 0.930 . S
C899 C895 1.400 . S
C899 C898 1.385 . S
C900 C898 1.478 . S
C900 C902 1.381 . S
C900 C906 1.383 . S
C901 C897 1.495 . S
C901 H907 0.959 . S
C901 H908 0.961 . S
C901 H909 0.960 . S
C902 C900 1.381 . S
C902 C903 1.394 . S
C902 H910 0.930 . S
C903 C902 1.394 . S
C903 C904 1.383 . S
C903 H911 0.929 . S
C904 C903 1.383 . S
C904 C905 1.377 . S
C905 H889 0.930 . S
C905 C904 1.377 . S
C905 C906 1.379 . S
C906 H890 0.931 . S
C906 C900 1.383 . S
C906 C905 1.379 . S
H907 C901 0.959 . S
H908 C901 0.961 . S
H909 C901 0.960 . S
H910 C902 0.930 . S
H911 C903 0.929 . S
H912 C920 0.929 . S
H913 C922 0.930 . S
H914 C924 0.930 . S
H915 C927 0.929 . S
H916 C930 0.930 . S
H917 C932 0.960 . S
H918 C932 0.960 . S
H919 C932 0.960 . S
C920 H912 0.929 . S
C920 C921 1.377 . S
C920 C922 1.384 . S
C921 C920 1.377 . S
C921 C927 1.390 . S
C922 H913 0.930 . S
C922 C920 1.384 . S
C922 C923 1.372 . S
C923 C922 1.372 . S
C923 C924 1.400 . S
C923 C928 1.490 . S
C924 H914 0.930 . S
C924 C923 1.400 . S
C924 C927 1.386 . S
H925 C941 0.930 . S
H926 C942 0.931 . S
C927 H915 0.929 . S
C927 C921 1.390 . S
C927 C924 1.386 . S
C928 C923 1.490 . S
C928 C930 1.395 . S
C928 C931 1.403 . S
H929 C935 0.930 . S
C930 H916 0.930 . S
C930 C928 1.395 . S
C930 C933 1.403 . S
C931 C928 1.403 . S
C931 C932 1.524 . S
C931 C935 1.400 . S
C932 H917 0.960 . S
C932 H918 0.960 . S
C932 H919 0.960 . S
C932 C931 1.524 . S
C933 C930 1.403 . S
C933 C934 1.392 . S
C933 C937 1.495 . S
C934 C933 1.392 . S
C934 C935 1.385 . S
C934 C936 1.478 . S
C935 H929 0.930 . S
C935 C931 1.400 . S
C935 C934 1.385 . S
C936 C934 1.478 . S
C936 C938 1.381 . S
C936 C942 1.383 . S
C937 C933 1.495 . S
C937 H943 0.959 . S
C937 H944 0.961 . S
C937 H945 0.960 . S
C938 C936 1.381 . S
C938 C939 1.394 . S
C938 H946 0.930 . S
C939 C938 1.394 . S
C939 C940 1.383 . S
C939 H947 0.929 . S
C940 C939 1.383 . S
C940 C941 1.377 . S
C941 H925 0.930 . S
C941 C940 1.377 . S
C941 C942 1.379 . S
C942 H926 0.931 . S
C942 C936 1.383 . S
C942 C941 1.379 . S
H943 C937 0.959 . S
H944 C937 0.961 . S
H945 C937 0.960 . S
H946 C938 0.930 . S
H947 C939 0.929 . S
H948 C956 0.929 . S
H949 C958 0.930 . S
H950 C960 0.930 . S
H951 C963 0.929 . S
H952 C966 0.930 . S
H953 C968 0.960 . S
H954 C968 0.960 . S
H955 C968 0.960 . S
C956 H948 0.929 . S
C956 C957 1.377 . S
C956 C958 1.384 . S
C957 C956 1.377 . S
C957 C963 1.390 . S
C958 H949 0.930 . S
C958 C956 1.384 . S
C958 C959 1.372 . S
C959 C958 1.372 . S
C959 C960 1.400 . S
C959 C964 1.490 . S
C960 H950 0.930 . S
C960 C959 1.400 . S
C960 C963 1.386 . S
H961 C977 0.930 . S
H962 C978 0.931 . S
C963 H951 0.929 . S
C963 C957 1.390 . S
C963 C960 1.386 . S
C964 C959 1.490 . S
C964 C966 1.395 . S
C964 C967 1.403 . S
H965 C971 0.930 . S
C966 H952 0.930 . S
C966 C964 1.395 . S
C966 C969 1.403 . S
C967 C964 1.403 . S
C967 C968 1.524 . S
C967 C971 1.400 . S
C968 H953 0.960 . S
C968 H954 0.960 . S
C968 H955 0.960 . S
C968 C967 1.524 . S
C969 C966 1.403 . S
C969 C970 1.392 . S
C969 C973 1.495 . S
C970 C969 1.392 . S
C970 C971 1.385 . S
C970 C972 1.478 . S
C971 H965 0.930 . S
C971 C967 1.400 . S
C971 C970 1.385 . S
C972 C970 1.478 . S
C972 C974 1.381 . S
C972 C978 1.383 . S
C973 C969 1.495 . S
C973 H979 0.959 . S
C973 H980 0.961 . S
C973 H981 0.960 . S
C974 C972 1.381 . S
C974 C975 1.394 . S
C974 H982 0.930 . S
C975 C974 1.394 . S
C975 C976 1.383 . S
C975 H983 0.929 . S
C976 C975 1.383 . S
C976 C977 1.377 . S
C977 H961 0.930 . S
C977 C976 1.377 . S
C977 C978 1.379 . S
C978 H962 0.931 . S
C978 C972 1.383 . S
C978 C977 1.379 . S
H979 C973 0.959 . S
H980 C973 0.961 . S
H981 C973 0.960 . S
H982 C974 0.930 . S
H983 C975 0.929 . S
H984 C992 0.929 . S
H985 C994 0.930 . S
H986 C996 0.930 . S
H987 C999 0.929 . S
H988 C1002 0.930 . S
H989 C1004 0.960 . S
H990 C1004 0.960 . S
H991 C1004 0.960 . S
C992 H984 0.929 . S
C992 C993 1.377 . S
C992 C994 1.384 . S
C993 C992 1.377 . S
C993 C999 1.390 . S
C994 H985 0.930 . S
C994 C992 1.384 . S
C994 C995 1.372 . S
C995 C994 1.372 . S
C995 C996 1.400 . S
C995 C1000 1.490 . S
C996 H986 0.930 . S
C996 C995 1.400 . S
C996 C999 1.386 . S
H997 C1013 0.930 . S
H998 C1014 0.931 . S
C999 H987 0.929 . S
C999 C993 1.390 . S
C999 C996 1.386 . S
C1000 C995 1.490 . S
C1000 C1002 1.395 . S
C1000 C1003 1.403 . S
H1001 C1007 0.930 . S
C1002 H988 0.930 . S
C1002 C1000 1.395 . S
C1002 C1005 1.403 . S
C1003 C1000 1.403 . S
C1003 C1004 1.524 . S
C1003 C1007 1.400 . S
C1004 H989 0.960 . S
C1004 H990 0.960 . S
C1004 H991 0.960 . S
C1004 C1003 1.524 . S
C1005 C1002 1.403 . S
C1005 C1006 1.392 . S
C1005 C1009 1.495 . S
C1006 C1005 1.392 . S
C1006 C1007 1.385 . S
C1006 C1008 1.478 . S
C1007 H1001 0.930 . S
C1007 C1003 1.400 . S
C1007 C1006 1.385 . S
C1008 C1006 1.478 . S
C1008 C1010 1.381 . S
C1008 C1014 1.383 . S
C1009 C1005 1.495 . S
C1009 H1015 0.959 . S
C1009 H1016 0.961 . S
C1009 H1017 0.960 . S
C1010 C1008 1.381 . S
C1010 C1011 1.394 . S
C1010 H1018 0.930 . S
C1011 C1010 1.394 . S
C1011 C1012 1.383 . S
C1011 H1019 0.929 . S
C1012 C1011 1.383 . S
C1012 C1013 1.377 . S
C1013 H997 0.930 . S
C1013 C1012 1.377 . S
C1013 C1014 1.379 . S
C1014 H998 0.931 . S
C1014 C1008 1.383 . S
C1014 C1013 1.379 . S
H1015 C1009 0.959 . S
H1016 C1009 0.961 . S
H1017 C1009 0.960 . S
H1018 C1010 0.930 . S
H1019 C1011 0.929 . S
H1020 C1028 0.929 . S
H1021 C1030 0.930 . S
H1022 C1032 0.930 . S
H1023 C1035 0.929 . S
H1024 C1038 0.930 . S
H1025 C1040 0.960 . S
H1026 C1040 0.960 . S
H1027 C1040 0.960 . S
C1028 H1020 0.929 . S
C1028 C1029 1.377 . S
C1028 C1030 1.384 . S
C1029 C1028 1.377 . S
C1029 C1035 1.390 . S
C1030 H1021 0.930 . S
C1030 C1028 1.384 . S
C1030 C1031 1.372 . S
C1031 C1030 1.372 . S
C1031 C1032 1.400 . S
C1031 C1036 1.490 . S
C1032 H1022 0.930 . S
C1032 C1031 1.400 . S
C1032 C1035 1.386 . S
H1033 C1049 0.930 . S
H1034 C1050 0.931 . S
C1035 H1023 0.929 . S
C1035 C1029 1.390 . S
C1035 C1032 1.386 . S
C1036 C1031 1.490 . S
C1036 C1038 1.395 . S
C1036 C1039 1.403 . S
H1037 C1043 0.930 . S
C1038 H1024 0.930 . S
C1038 C1036 1.395 . S
C1038 C1041 1.403 . S
C1039 C1036 1.403 . S
C1039 C1040 1.524 . S
C1039 C1043 1.400 . S
C1040 H1025 0.960 . S
C1040 H1026 0.960 . S
C1040 H1027 0.960 . S
C1040 C1039 1.524 . S
C1041 C1038 1.403 . S
C1041 C1042 1.392 . S
C1041 C1045 1.495 . S
C1042 C1041 1.392 . S
C1042 C1043 1.385 . S
C1042 C1044 1.478 . S
C1043 H1037 0.930 . S
C1043 C1039 1.400 . S
C1043 C1042 1.385 . S
C1044 C1042 1.478 . S
C1044 C1046 1.381 . S
C1044 C1050 1.383 . S
C1045 C1041 1.495 . S
C1045 H1051 0.959 . S
C1045 H1052 0.961 . S
C1045 H1053 0.960 . S
C1046 C1044 1.381 . S
C1046 C1047 1.394 . S
C1046 H1054 0.930 . S
C1047 C1046 1.394 . S
C1047 C1048 1.383 . S
C1047 H1055 0.929 . S
C1048 C1047 1.383 . S
C1048 C1049 1.377 . S
C1049 H1033 0.930 . S
C1049 C1048 1.377 . S
C1049 C1050 1.379 . S
C1050 H1034 0.931 . S
C1050 C1044 1.383 . S
C1050 C1049 1.379 . S
H1051 C1045 0.959 . S
H1052 C1045 0.961 . S
H1053 C1045 0.960 . S
H1054 C1046 0.930 . S
H1055 C1047 0.929 . S
H1056 C1064 0.929 . S
H1057 C1066 0.930 . S
H1058 C1068 0.930 . S
H1059 C1071 0.929 . S
H1060 C1074 0.930 . S
H1061 C1076 0.960 . S
H1062 C1076 0.960 . S
H1063 C1076 0.960 . S
C1064 H1056 0.929 . S
C1064 C1065 1.377 . S
C1064 C1066 1.384 . S
C1065 C1064 1.377 . S
C1065 C1071 1.390 . S
C1066 H1057 0.930 . S
C1066 C1064 1.384 . S
C1066 C1067 1.372 . S
C1067 C1066 1.372 . S
C1067 C1068 1.400 . S
C1067 C1072 1.490 . S
C1068 H1058 0.930 . S
C1068 C1067 1.400 . S
C1068 C1071 1.386 . S
H1069 C1085 0.930 . S
H1070 C1086 0.931 . S
C1071 H1059 0.929 . S
C1071 C1065 1.390 . S
C1071 C1068 1.386 . S
C1072 C1067 1.490 . S
C1072 C1074 1.395 . S
C1072 C1075 1.403 . S
H1073 C1079 0.930 . S
C1074 H1060 0.930 . S
C1074 C1072 1.395 . S
C1074 C1077 1.403 . S
C1075 C1072 1.403 . S
C1075 C1076 1.524 . S
C1075 C1079 1.400 . S
C1076 H1061 0.960 . S
C1076 H1062 0.960 . S
C1076 H1063 0.960 . S
C1076 C1075 1.524 . S
C1077 C1074 1.403 . S
C1077 C1078 1.392 . S
C1077 C1081 1.495 . S
C1078 C1077 1.392 . S
C1078 C1079 1.385 . S
C1078 C1080 1.478 . S
C1079 H1073 0.930 . S
C1079 C1075 1.400 . S
C1079 C1078 1.385 . S
C1080 C1078 1.478 . S
C1080 C1082 1.381 . S
C1080 C1086 1.383 . S
C1081 C1077 1.495 . S
C1081 H1087 0.959 . S
C1081 H1088 0.961 . S
C1081 H1089 0.960 . S
C1082 C1080 1.381 . S
C1082 C1083 1.394 . S
C1082 H1090 0.930 . S
C1083 C1082 1.394 . S
C1083 C1084 1.383 . S
C1083 H1091 0.929 . S
C1084 C1083 1.383 . S
C1084 C1085 1.377 . S
C1085 H1069 0.930 . S
C1085 C1084 1.377 . S
C1085 C1086 1.379 . S
C1086 H1070 0.931 . S
C1086 C1080 1.383 . S
C1086 C1085 1.379 . S
H1087 C1081 0.959 . S
H1088 C1081 0.961 . S
H1089 C1081 0.960 . S
H1090 C1082 0.930 . S
H1091 C1083 0.929 . S
H1092 C1100 0.929 . S
H1093 C1102 0.930 . S
H1094 C1104 0.930 . S
H1095 C1107 0.929 . S
H1096 C1110 0.930 . S
H1097 C1112 0.960 1_655 S
H1098 C1112 0.960 . S
H1099 C1112 0.960 . S
C1100 H1092 0.929 . S
C1100 C1101 1.377 . S
C1100 C1102 1.384 . S
C1101 C1100 1.377 . S
C1101 C1107 1.390 . S
C1102 H1093 0.930 . S
C1102 C1100 1.384 . S
C1102 C1103 1.372 . S
C1103 C1102 1.372 . S
C1103 C1104 1.400 . S
C1103 C1108 1.490 . S
C1104 H1094 0.930 . S
C1104 C1103 1.400 . S
C1104 C1107 1.386 . S
H1105 C1121 0.930 . S
H1106 C1122 0.931 . S
C1107 H1095 0.929 . S
C1107 C1101 1.390 . S
C1107 C1104 1.386 . S
C1108 C1103 1.490 . S
C1108 C1110 1.395 . S
C1108 C1111 1.403 . S
H1109 C1115 0.930 . S
C1110 H1096 0.930 . S
C1110 C1108 1.395 . S
C1110 C1113 1.403 1_455 S
C1111 C1108 1.403 . S
C1111 C1112 1.524 . S
C1111 C1115 1.400 1_455 S
C1112 H1097 0.960 1_455 S
C1112 H1098 0.960 . S
C1112 H1099 0.960 . S
C1112 C1111 1.524 . S
C1113 C1110 1.403 1_655 S
C1113 C1114 1.392 . S
C1113 C1117 1.495 . S
C1114 C1113 1.392 . S
C1114 C1115 1.385 . S
C1114 C1116 1.478 . S
C1115 H1109 0.930 . S
C1115 C1111 1.400 1_655 S
C1115 C1114 1.385 . S
C1116 C1114 1.478 . S
C1116 C1118 1.381 . S
C1116 C1122 1.383 . S
C1117 C1113 1.495 . S
C1117 H1123 0.959 1_655 S
C1117 H1124 0.961 . S
C1117 H1125 0.960 1_655 S
C1118 C1116 1.381 . S
C1118 C1119 1.394 . S
C1118 H1126 0.930 . S
C1119 C1118 1.394 . S
C1119 C1120 1.383 . S
C1119 H1127 0.929 . S
C1120 C1119 1.383 . S
C1120 C1121 1.377 . S
C1121 H1105 0.930 . S
C1121 C1120 1.377 . S
C1121 C1122 1.379 . S
C1122 H1106 0.931 . S
C1122 C1116 1.383 . S
C1122 C1121 1.379 . S
H1123 C1117 0.959 1_455 S
H1124 C1117 0.961 . S
H1125 C1117 0.960 1_455 S
H1126 C1118 0.930 . S
H1127 C1119 0.929 . S
H1128 C1136 0.929 . S
H1129 C1138 0.930 . S
H1130 C1140 0.930 . S
H1131 C1143 0.929 . S
H1132 C1146 0.930 . S
H1133 C1148 0.960 . S
H1134 C1148 0.960 . S
H1135 C1148 0.960 . S
C1136 H1128 0.929 . S
C1136 C1137 1.377 . S
C1136 C1138 1.384 . S
C1137 C1136 1.377 . S
C1137 C1143 1.390 . S
C1138 H1129 0.930 . S
C1138 C1136 1.384 . S
C1138 C1139 1.372 . S
C1139 C1138 1.372 . S
C1139 C1140 1.400 . S
C1139 C1144 1.490 . S
C1140 H1130 0.930 . S
C1140 C1139 1.400 . S
C1140 C1143 1.386 . S
H1141 C1157 0.930 . S
H1142 C1158 0.931 . S
C1143 H1131 0.929 . S
C1143 C1137 1.390 . S
C1143 C1140 1.386 . S
C1144 C1139 1.490 . S
C1144 C1146 1.395 . S
C1144 C1147 1.403 1_565 S
H1145 C1151 0.930 . S
C1146 H1132 0.930 . S
C1146 C1144 1.395 . S
C1146 C1149 1.403 . S
C1147 C1144 1.403 1_545 S
C1147 C1148 1.524 . S
C1147 C1151 1.400 . S
C1148 H1133 0.960 . S
C1148 H1134 0.960 . S
C1148 H1135 0.960 . S
C1148 C1147 1.524 . S
C1149 C1146 1.403 . S
C1149 C1150 1.392 1_565 S
C1149 C1153 1.495 . S
C1150 C1149 1.392 1_545 S
C1150 C1151 1.385 . S
C1150 C1152 1.478 . S
C1151 H1145 0.930 . S
C1151 C1147 1.400 . S
C1151 C1150 1.385 . S
C1152 C1150 1.478 . S
C1152 C1154 1.381 . S
C1152 C1158 1.383 . S
C1153 C1149 1.495 . S
C1153 H1159 0.959 . S
C1153 H1160 0.961 . S
C1153 H1161 0.960 . S
C1154 C1152 1.381 . S
C1154 C1155 1.394 . S
C1154 H1162 0.930 . S
C1155 C1154 1.394 . S
C1155 C1156 1.383 . S
C1155 H1163 0.929 . S
C1156 C1155 1.383 . S
C1156 C1157 1.377 . S
C1157 H1141 0.930 . S
C1157 C1156 1.377 . S
C1157 C1158 1.379 . S
C1158 H1142 0.931 . S
C1158 C1152 1.383 . S
C1158 C1157 1.379 . S
H1159 C1153 0.959 . S
H1160 C1153 0.961 . S
H1161 C1153 0.960 . S
H1162 C1154 0.930 . S
H1163 C1155 0.929 . S
H1164 C1172 0.929 . S
H1165 C1174 0.930 . S
H1166 C1176 0.930 . S
H1167 C1179 0.929 . S
H1168 C1182 0.930 . S
H1169 C1184 0.960 . S
H1170 C1184 0.960 . S
H1171 C1184 0.960 . S
C1172 H1164 0.929 . S
C1172 C1173 1.377 . S
C1172 C1174 1.384 . S
C1173 C1172 1.377 . S
C1173 C1179 1.390 . S
C1174 H1165 0.930 . S
C1174 C1172 1.384 . S
C1174 C1175 1.372 . S
C1175 C1174 1.372 . S
C1175 C1176 1.400 . S
C1175 C1180 1.490 . S
C1176 H1166 0.930 . S
C1176 C1175 1.400 . S
C1176 C1179 1.386 . S
H1177 C1193 0.930 . S
H1178 C1194 0.931 . S
C1179 H1167 0.929 . S
C1179 C1173 1.390 . S
C1179 C1176 1.386 . S
C1180 C1175 1.490 . S
C1180 C1182 1.395 . S
C1180 C1183 1.403 . S
H1181 C1187 0.930 . S
C1182 H1168 0.930 . S
C1182 C1180 1.395 . S
C1182 C1185 1.403 . S
C1183 C1180 1.403 . S
C1183 C1184 1.524 . S
C1183 C1187 1.400 . S
C1184 H1169 0.960 . S
C1184 H1170 0.960 . S
C1184 H1171 0.960 . S
C1184 C1183 1.524 . S
C1185 C1182 1.403 . S
C1185 C1186 1.392 . S
C1185 C1189 1.495 . S
C1186 C1185 1.392 . S
C1186 C1187 1.385 . S
C1186 C1188 1.478 . S
C1187 H1181 0.930 . S
C1187 C1183 1.400 . S
C1187 C1186 1.385 . S
C1188 C1186 1.478 . S
C1188 C1190 1.381 . S
C1188 C1194 1.383 . S
C1189 C1185 1.495 . S
C1189 H1195 0.959 . S
C1189 H1196 0.961 . S
C1189 H1197 0.960 . S
C1190 C1188 1.381 . S
C1190 C1191 1.394 . S
C1190 H1198 0.930 . S
C1191 C1190 1.394 . S
C1191 C1192 1.383 . S
C1191 H1199 0.929 . S
C1192 C1191 1.383 . S
C1192 C1193 1.377 . S
C1193 H1177 0.930 . S
C1193 C1192 1.377 . S
C1193 C1194 1.379 . S
C1194 H1178 0.931 . S
C1194 C1188 1.383 . S
C1194 C1193 1.379 . S
H1195 C1189 0.959 . S
H1196 C1189 0.961 . S
H1197 C1189 0.960 . S
H1198 C1190 0.930 . S
H1199 C1191 0.929 . S
H1200 C1208 0.929 . S
H1201 C1210 0.930 . S
H1202 C1212 0.930 . S
H1203 C1215 0.929 . S
H1204 C1218 0.930 . S
H1205 C1220 0.960 . S
H1206 C1220 0.960 1_455 S
H1207 C1220 0.960 . S
C1208 H1200 0.929 . S
C1208 C1209 1.377 . S
C1208 C1210 1.384 . S
C1209 C1208 1.377 . S
C1209 C1215 1.390 . S
C1210 H1201 0.930 . S
C1210 C1208 1.384 . S
C1210 C1211 1.372 . S
C1211 C1210 1.372 . S
C1211 C1212 1.400 . S
C1211 C1216 1.490 . S
C1212 H1202 0.930 . S
C1212 C1211 1.400 . S
C1212 C1215 1.386 . S
H1213 C1229 0.930 . S
H1214 C1230 0.931 . S
C1215 H1203 0.929 . S
C1215 C1209 1.390 . S
C1215 C1212 1.386 . S
C1216 C1211 1.490 . S
C1216 C1218 1.395 . S
C1216 C1219 1.403 1_455 S
H1217 C1223 0.930 . S
C1218 H1204 0.930 . S
C1218 C1216 1.395 . S
C1218 C1221 1.403 . S
C1219 C1216 1.403 1_655 S
C1219 C1220 1.524 . S
C1219 C1223 1.400 . S
C1220 H1205 0.960 . S
C1220 H1206 0.960 1_655 S
C1220 H1207 0.960 . S
C1220 C1219 1.524 . S
C1221 C1218 1.403 . S
C1221 C1222 1.392 1_455 S
C1221 C1225 1.495 . S
C1222 C1221 1.392 1_655 S
C1222 C1223 1.385 . S
C1222 C1224 1.478 . S
C1223 H1217 0.930 . S
C1223 C1219 1.400 . S
C1223 C1222 1.385 . S
C1224 C1222 1.478 . S
C1224 C1226 1.381 . S
C1224 C1230 1.383 . S
C1225 C1221 1.495 . S
C1225 H1231 0.959 . S
C1225 H1232 0.961 1_455 S
C1225 H1233 0.960 . S
C1226 C1224 1.381 . S
C1226 C1227 1.394 . S
C1226 H1234 0.930 . S
C1227 C1226 1.394 . S
C1227 C1228 1.383 . S
C1227 H1235 0.929 . S
C1228 C1227 1.383 . S
C1228 C1229 1.377 . S
C1229 H1213 0.930 . S
C1229 C1228 1.377 . S
C1229 C1230 1.379 . S
C1230 H1214 0.931 . S
C1230 C1224 1.383 . S
C1230 C1229 1.379 . S
H1231 C1225 0.959 . S
H1232 C1225 0.961 1_655 S
H1233 C1225 0.960 . S
H1234 C1226 0.930 . S
H1235 C1227 0.929 . S
H1236 C1244 0.929 . S
H1237 C1246 0.930 . S
H1238 C1248 0.930 . S
H1239 C1251 0.929 . S
H1240 C1254 0.930 . S
H1241 C1256 0.960 . S
H1242 C1256 0.960 . S
H1243 C1256 0.960 . S
C1244 H1236 0.929 . S
C1244 C1245 1.377 . S
C1244 C1246 1.384 . S
C1245 C1244 1.377 . S
C1245 C1251 1.390 . S
C1246 H1237 0.930 . S
C1246 C1244 1.384 . S
C1246 C1247 1.372 . S
C1247 C1246 1.372 . S
C1247 C1248 1.400 . S
C1247 C1252 1.490 . S
C1248 H1238 0.930 . S
C1248 C1247 1.400 . S
C1248 C1251 1.386 . S
H1249 C1265 0.930 . S
H1250 C1266 0.931 . S
C1251 H1239 0.929 . S
C1251 C1245 1.390 . S
C1251 C1248 1.386 . S
C1252 C1247 1.490 . S
C1252 C1254 1.395 1_554 S
C1252 C1255 1.403 1_565 S
H1253 C1259 0.930 . S
C1254 H1240 0.930 . S
C1254 C1252 1.395 1_556 S
C1254 C1257 1.403 . S
C1255 C1252 1.403 1_545 S
C1255 C1256 1.524 . S
C1255 C1259 1.400 1_554 S
C1256 H1241 0.960 . S
C1256 H1242 0.960 . S
C1256 H1243 0.960 . S
C1256 C1255 1.524 . S
C1257 C1254 1.403 . S
C1257 C1258 1.392 1_565 S
C1257 C1261 1.495 . S
C1258 C1257 1.392 1_545 S
C1258 C1259 1.385 . S
C1258 C1260 1.478 . S
C1259 H1253 0.930 . S
C1259 C1255 1.400 1_556 S
C1259 C1258 1.385 . S
C1260 C1258 1.478 . S
C1260 C1262 1.381 . S
C1260 C1266 1.383 . S
C1261 C1257 1.495 . S
C1261 H1267 0.959 . S
C1261 H1268 0.961 . S
C1261 H1269 0.960 . S
C1262 C1260 1.381 . S
C1262 C1263 1.394 . S
C1262 H1270 0.930 . S
C1263 C1262 1.394 . S
C1263 C1264 1.383 . S
C1263 H1271 0.929 . S
C1264 C1263 1.383 . S
C1264 C1265 1.377 . S
C1265 H1249 0.930 . S
C1265 C1264 1.377 . S
C1265 C1266 1.379 . S
C1266 H1250 0.931 . S
C1266 C1260 1.383 . S
C1266 C1265 1.379 . S
H1267 C1261 0.959 . S
H1268 C1261 0.961 . S
H1269 C1261 0.960 . S
H1270 C1262 0.930 . S
H1271 C1263 0.929 . S
H1272 C1280 0.929 . S
H1273 C1282 0.930 . S
H1274 C1284 0.930 . S
H1275 C1287 0.929 . S
H1276 C1290 0.930 . S
H1277 C1292 0.960 . S
H1278 C1292 0.960 . S
H1279 C1292 0.960 . S
C1280 H1272 0.929 . S
C1280 C1281 1.377 . S
C1280 C1282 1.384 . S
C1281 C1280 1.377 . S
C1281 C1287 1.390 . S
C1282 H1273 0.930 . S
C1282 C1280 1.384 . S
C1282 C1283 1.372 . S
C1283 C1282 1.372 . S
C1283 C1284 1.400 . S
C1283 C1288 1.490 . S
C1284 H1274 0.930 . S
C1284 C1283 1.400 . S
C1284 C1287 1.386 . S
H1285 C1301 0.930 . S
H1286 C1302 0.931 . S
C1287 H1275 0.929 . S
C1287 C1281 1.390 . S
C1287 C1284 1.386 . S
C1288 C1283 1.490 . S
C1288 C1290 1.395 . S
C1288 C1291 1.403 . S
H1289 C1295 0.930 . S
C1290 H1276 0.930 . S
C1290 C1288 1.395 . S
C1290 C1293 1.403 . S
C1291 C1288 1.403 . S
C1291 C1292 1.524 . S
C1291 C1295 1.400 . S
C1292 H1277 0.960 . S
C1292 H1278 0.960 . S
C1292 H1279 0.960 . S
C1292 C1291 1.524 . S
C1293 C1290 1.403 . S
C1293 C1294 1.392 . S
C1293 C1297 1.495 . S
C1294 C1293 1.392 . S
C1294 C1295 1.385 . S
C1294 C1296 1.478 . S
C1295 H1289 0.930 . S
C1295 C1291 1.400 . S
C1295 C1294 1.385 . S
C1296 C1294 1.478 . S
C1296 C1298 1.381 . S
C1296 C1302 1.383 . S
C1297 C1293 1.495 . S
C1297 H1303 0.959 . S
C1297 H1304 0.961 . S
C1297 H1305 0.960 . S
C1298 C1296 1.381 . S
C1298 C1299 1.394 . S
C1298 H1306 0.930 . S
C1299 C1298 1.394 . S
C1299 C1300 1.383 . S
C1299 H1307 0.929 . S
C1300 C1299 1.383 . S
C1300 C1301 1.377 . S
C1301 H1285 0.930 . S
C1301 C1300 1.377 . S
C1301 C1302 1.379 . S
C1302 H1286 0.931 . S
C1302 C1296 1.383 . S
C1302 C1301 1.379 . S
H1303 C1297 0.959 . S
H1304 C1297 0.961 . S
H1305 C1297 0.960 . S
H1306 C1298 0.930 . S
H1307 C1299 0.929 . S
H1308 C1316 0.929 . S
H1309 C1318 0.930 . S
H1310 C1320 0.930 . S
H1311 C1323 0.929 . S
H1312 C1326 0.930 . S
H1313 C1328 0.960 . S
H1314 C1328 0.960 . S
H1315 C1328 0.960 . S
C1316 H1308 0.929 . S
C1316 C1317 1.377 . S
C1316 C1318 1.384 . S
C1317 C1316 1.377 . S
C1317 C1323 1.390 . S
C1318 H1309 0.930 . S
C1318 C1316 1.384 . S
C1318 C1319 1.372 . S
C1319 C1318 1.372 . S
C1319 C1320 1.400 . S
C1319 C1324 1.490 . S
C1320 H1310 0.930 . S
C1320 C1319 1.400 . S
C1320 C1323 1.386 . S
H1321 C1337 0.930 . S
H1322 C1338 0.931 . S
C1323 H1311 0.929 . S
C1323 C1317 1.390 . S
C1323 C1320 1.386 . S
C1324 C1319 1.490 . S
C1324 C1326 1.395 . S
C1324 C1327 1.403 . S
H1325 C1331 0.930 . S
C1326 H1312 0.930 . S
C1326 C1324 1.395 . S
C1326 C1329 1.403 . S
C1327 C1324 1.403 . S
C1327 C1328 1.524 . S
C1327 C1331 1.400 . S
C1328 H1313 0.960 . S
C1328 H1314 0.960 . S
C1328 H1315 0.960 . S
C1328 C1327 1.524 . S
C1329 C1326 1.403 . S
C1329 C1330 1.392 . S
C1329 C1333 1.495 . S
C1330 C1329 1.392 . S
C1330 C1331 1.385 . S
C1330 C1332 1.478 . S
C1331 H1325 0.930 . S
C1331 C1327 1.400 . S
C1331 C1330 1.385 . S
C1332 C1330 1.478 . S
C1332 C1334 1.381 . S
C1332 C1338 1.383 . S
C1333 C1329 1.495 . S
C1333 H1339 0.959 . S
C1333 H1340 0.961 . S
C1333 H1341 0.960 . S
C1334 C1332 1.381 . S
C1334 C1335 1.394 . S
C1334 H1342 0.930 . S
C1335 C1334 1.394 . S
C1335 C1336 1.383 . S
C1335 H1343 0.929 . S
C1336 C1335 1.383 . S
C1336 C1337 1.377 . S
C1337 H1321 0.930 . S
C1337 C1336 1.377 . S
C1337 C1338 1.379 . S
C1338 H1322 0.931 . S
C1338 C1332 1.383 . S
C1338 C1337 1.379 . S
H1339 C1333 0.959 . S
H1340 C1333 0.961 . S
H1341 C1333 0.960 . S
H1342 C1334 0.930 . S
H1343 C1335 0.929 . S
H1344 C1352 0.929 . S
H1345 C1354 0.930 . S
H1346 C1356 0.930 . S
H1347 C1359 0.929 . S
H1348 C1362 0.930 . S
H1349 C1364 0.960 . S
H1350 C1364 0.960 . S
H1351 C1364 0.960 . S
C1352 H1344 0.929 . S
C1352 C1353 1.377 . S
C1352 C1354 1.384 . S
C1353 C1352 1.377 . S
C1353 C1359 1.390 . S
C1354 H1345 0.930 . S
C1354 C1352 1.384 . S
C1354 C1355 1.372 . S
C1355 C1354 1.372 . S
C1355 C1356 1.400 . S
C1355 C1360 1.490 . S
C1356 H1346 0.930 . S
C1356 C1355 1.400 . S
C1356 C1359 1.386 . S
H1357 C1373 0.930 . S
H1358 C1374 0.931 . S
C1359 H1347 0.929 . S
C1359 C1353 1.390 . S
C1359 C1356 1.386 . S
C1360 C1355 1.490 . S
C1360 C1362 1.395 . S
C1360 C1363 1.403 . S
H1361 C1367 0.930 . S
C1362 H1348 0.930 . S
C1362 C1360 1.395 . S
C1362 C1365 1.403 . S
C1363 C1360 1.403 . S
C1363 C1364 1.524 . S
C1363 C1367 1.400 . S
C1364 H1349 0.960 . S
C1364 H1350 0.960 . S
C1364 H1351 0.960 . S
C1364 C1363 1.524 . S
C1365 C1362 1.403 . S
C1365 C1366 1.392 . S
C1365 C1369 1.495 . S
C1366 C1365 1.392 . S
C1366 C1367 1.385 . S
C1366 C1368 1.478 . S
C1367 H1361 0.930 . S
C1367 C1363 1.400 . S
C1367 C1366 1.385 . S
C1368 C1366 1.478 . S
C1368 C1370 1.381 . S
C1368 C1374 1.383 . S
C1369 C1365 1.495 . S
C1369 H1375 0.959 . S
C1369 H1376 0.961 . S
C1369 H1377 0.960 . S
C1370 C1368 1.381 . S
C1370 C1371 1.394 . S
C1370 H1378 0.930 . S
C1371 C1370 1.394 . S
C1371 C1372 1.383 . S
C1371 H1379 0.929 . S
C1372 C1371 1.383 . S
C1372 C1373 1.377 . S
C1373 H1357 0.930 . S
C1373 C1372 1.377 . S
C1373 C1374 1.379 . S
C1374 H1358 0.931 . S
C1374 C1368 1.383 . S
C1374 C1373 1.379 . S
H1375 C1369 0.959 . S
H1376 C1369 0.961 . S
H1377 C1369 0.960 . S
H1378 C1370 0.930 . S
H1379 C1371 0.929 . S
H1380 C1388 0.929 . S
H1381 C1390 0.930 . S
H1382 C1392 0.930 . S
H1383 C1395 0.929 . S
H1384 C1398 0.930 . S
H1385 C1400 0.960 . S
H1386 C1400 0.960 . S
H1387 C1400 0.960 . S
C1388 H1380 0.929 . S
C1388 C1389 1.377 . S
C1388 C1390 1.384 . S
C1389 C1388 1.377 . S
C1389 C1395 1.390 . S
C1390 H1381 0.930 . S
C1390 C1388 1.384 . S
C1390 C1391 1.372 . S
C1391 C1390 1.372 . S
C1391 C1392 1.400 . S
C1391 C1396 1.490 . S
C1392 H1382 0.930 . S
C1392 C1391 1.400 . S
C1392 C1395 1.386 . S
H1393 C1409 0.930 . S
H1394 C1410 0.931 . S
C1395 H1383 0.929 . S
C1395 C1389 1.390 . S
C1395 C1392 1.386 . S
C1396 C1391 1.490 . S
C1396 C1398 1.395 . S
C1396 C1399 1.403 . S
H1397 C1403 0.930 . S
C1398 H1384 0.930 . S
C1398 C1396 1.395 . S
C1398 C1401 1.403 . S
C1399 C1396 1.403 . S
C1399 C1400 1.524 . S
C1399 C1403 1.400 . S
C1400 H1385 0.960 . S
C1400 H1386 0.960 . S
C1400 H1387 0.960 . S
C1400 C1399 1.524 . S
C1401 C1398 1.403 . S
C1401 C1402 1.392 . S
C1401 C1405 1.495 . S
C1402 C1401 1.392 . S
C1402 C1403 1.385 . S
C1402 C1404 1.478 . S
C1403 H1397 0.930 . S
C1403 C1399 1.400 . S
C1403 C1402 1.385 . S
C1404 C1402 1.478 . S
C1404 C1406 1.381 . S
C1404 C1410 1.383 . S
C1405 C1401 1.495 . S
C1405 H1411 0.959 . S
C1405 H1412 0.961 . S
C1405 H1413 0.960 . S
C1406 C1404 1.381 . S
C1406 C1407 1.394 . S
C1406 H1414 0.930 . S
C1407 C1406 1.394 . S
C1407 C1408 1.383 . S
C1407 H1415 0.929 . S
C1408 C1407 1.383 . S
C1408 C1409 1.377 . S
C1409 H1393 0.930 . S
C1409 C1408 1.377 . S
C1409 C1410 1.379 . S
C1410 H1394 0.931 . S
C1410 C1404 1.383 . S
C1410 C1409 1.379 . S
H1411 C1405 0.959 . S
H1412 C1405 0.961 . S
H1413 C1405 0.960 . S
H1414 C1406 0.930 . S
H1415 C1407 0.929 . S
H1416 C1424 0.929 . S
H1417 C1426 0.930 . S
H1418 C1428 0.930 . S
H1419 C1431 0.929 . S
H1420 C1434 0.930 . S
H1421 C1436 0.960 . S
H1422 C1436 0.960 . S
H1423 C1436 0.960 . S
C1424 H1416 0.929 . S
C1424 C1425 1.377 . S
C1424 C1426 1.384 . S
C1425 C1424 1.377 . S
C1425 C1431 1.390 . S
C1426 H1417 0.930 . S
C1426 C1424 1.384 . S
C1426 C1427 1.372 . S
C1427 C1426 1.372 . S
C1427 C1428 1.400 . S
C1427 C1432 1.490 . S
C1428 H1418 0.930 . S
C1428 C1427 1.400 . S
C1428 C1431 1.386 . S
H1429 C1445 0.930 . S
H1430 C1446 0.931 . S
C1431 H1419 0.929 . S
C1431 C1425 1.390 . S
C1431 C1428 1.386 . S
C1432 C1427 1.490 . S
C1432 C1434 1.395 . S
C1432 C1435 1.403 . S
H1433 C1439 0.930 . S
C1434 H1420 0.930 . S
C1434 C1432 1.395 . S
C1434 C1437 1.403 . S
C1435 C1432 1.403 . S
C1435 C1436 1.524 . S
C1435 C1439 1.400 . S
C1436 H1421 0.960 . S
C1436 H1422 0.960 . S
C1436 H1423 0.960 . S
C1436 C1435 1.524 . S
C1437 C1434 1.403 . S
C1437 C1438 1.392 . S
C1437 C1441 1.495 . S
C1438 C1437 1.392 . S
C1438 C1439 1.385 . S
C1438 C1440 1.478 . S
C1439 H1433 0.930 . S
C1439 C1435 1.400 . S
C1439 C1438 1.385 . S
C1440 C1438 1.478 . S
C1440 C1442 1.381 . S
C1440 C1446 1.383 . S
C1441 C1437 1.495 . S
C1441 H1447 0.959 . S
C1441 H1448 0.961 . S
C1441 H1449 0.960 . S
C1442 C1440 1.381 . S
C1442 C1443 1.394 . S
C1442 H1450 0.930 . S
C1443 C1442 1.394 . S
C1443 C1444 1.383 . S
C1443 H1451 0.929 . S
C1444 C1443 1.383 . S
C1444 C1445 1.377 . S
C1445 H1429 0.930 . S
C1445 C1444 1.377 . S
C1445 C1446 1.379 . S
C1446 H1430 0.931 . S
C1446 C1440 1.383 . S
C1446 C1445 1.379 . S
H1447 C1441 0.959 . S
H1448 C1441 0.961 . S
H1449 C1441 0.960 . S
H1450 C1442 0.930 . S
H1451 C1443 0.929 . S
H1452 C1460 0.929 . S
H1453 C1462 0.930 . S
H1454 C1464 0.930 . S
H1455 C1467 0.929 . S
H1456 C1470 0.930 . S
H1457 C1472 0.960 . S
H1458 C1472 0.960 . S
H1459 C1472 0.960 . S
C1460 H1452 0.929 . S
C1460 C1461 1.377 . S
C1460 C1462 1.384 . S
C1461 C1460 1.377 . S
C1461 C1467 1.390 . S
C1462 H1453 0.930 . S
C1462 C1460 1.384 . S
C1462 C1463 1.372 . S
C1463 C1462 1.372 . S
C1463 C1464 1.400 . S
C1463 C1468 1.490 . S
C1464 H1454 0.930 . S
C1464 C1463 1.400 . S
C1464 C1467 1.386 . S
H1465 C1481 0.930 . S
H1466 C1482 0.931 . S
C1467 H1455 0.929 . S
C1467 C1461 1.390 . S
C1467 C1464 1.386 . S
C1468 C1463 1.490 . S
C1468 C1470 1.395 . S
C1468 C1471 1.403 . S
H1469 C1475 0.930 . S
C1470 H1456 0.930 . S
C1470 C1468 1.395 . S
C1470 C1473 1.403 . S
C1471 C1468 1.403 . S
C1471 C1472 1.524 . S
C1471 C1475 1.400 . S
C1472 H1457 0.960 . S
C1472 H1458 0.960 . S
C1472 H1459 0.960 . S
C1472 C1471 1.524 . S
C1473 C1470 1.403 . S
C1473 C1474 1.392 . S
C1473 C1477 1.495 . S
C1474 C1473 1.392 . S
C1474 C1475 1.385 . S
C1474 C1476 1.478 . S
C1475 H1469 0.930 . S
C1475 C1471 1.400 . S
C1475 C1474 1.385 . S
C1476 C1474 1.478 . S
C1476 C1478 1.381 . S
C1476 C1482 1.383 . S
C1477 C1473 1.495 . S
C1477 H1483 0.959 . S
C1477 H1484 0.961 . S
C1477 H1485 0.960 . S
C1478 C1476 1.381 . S
C1478 C1479 1.394 . S
C1478 H1486 0.930 . S
C1479 C1478 1.394 . S
C1479 C1480 1.383 . S
C1479 H1487 0.929 . S
C1480 C1479 1.383 . S
C1480 C1481 1.377 . S
C1481 H1465 0.930 . S
C1481 C1480 1.377 . S
C1481 C1482 1.379 . S
C1482 H1466 0.931 . S
C1482 C1476 1.383 . S
C1482 C1481 1.379 . S
H1483 C1477 0.959 . S
H1484 C1477 0.961 . S
H1485 C1477 0.960 . S
H1486 C1478 0.930 . S
H1487 C1479 0.929 . S
C417 C172 1.082 . S
C436 C5 1.091 . S
C453 C2 1.076 . S
C472 C39 1.056 . S
C489 C36 1.085 . S
C508 C73 1.093 . S
C525 C107 1.083 . S
C544 C70 1.098 . S
C561 C141 1.076 . S
C580 C104 1.056 . S
C597 C138 1.077 . S
C616 C175 1.056 . S
C633 C240 1.080 . S
C652 C209 1.085 . S
C669 C274 1.083 . S
C688 C243 1.096 . S
C705 C308 1.077 . S
C724 C277 1.056 . S
C741 C342 1.079 . S
C760 C311 1.060 . S
C777 C376 1.084 . S
C796 C345 1.100 . S
C813 C206 1.077 . S
C832 C379 1.056 . S
C849 C281 1.294 . S
C868 C9 1.300 . S
C885 C43 1.290 . S
C904 C315 1.273 . S
C921 C77 1.292 . S
C940 C349 1.286 . S
C957 C111 1.287 . S
C976 C383 1.307 . S
C993 C145 1.281 . S
C1012 C213 1.270 . S
C1029 C247 1.291 . S
C1048 C179 1.277 . S
C1065 C339 1.526 . S
C1084 C33 1.524 . S
C1101 C373 1.525 . S
C1120 C67 1.521 . S
C1137 C101 1.526 . S
C1156 C407 1.524 . S
C1173 C135 1.526 . S
C1192 C237 1.525 . S
C1209 C169 1.525 . S
C1228 C271 1.522 . S
C1245 C305 1.526 . S
C1264 C203 1.524 . S
C1281 C20 1.478 . S
C1300 C224 1.477 . S
C1317 C258 1.481 . S
C1336 C54 1.474 . S
C1353 C88 1.481 . S
C1372 C292 1.472 . S
C1389 C326 1.479 . S
C1408 C122 1.483 . S
C1425 C360 1.479 . S
C1444 C156 1.484 . S
C1461 C394 1.481 . S
C1480 C190 1.480 . S
