# Generated by pormake.
# Topology qtz-e, (6)-cn, num edge types: 1
# Building blocks:
#     Node 0, Type 0, BuildingBlock: BETDIP_clean_sbu_0, # of connection points: 6
#     Node 1, Type 0, BuildingBlock: BETDIP_clean_sbu_0, # of connection points: 6
#     Node 2, Type 0, BuildingBlock: BETDIP_clean_sbu_0, # of connection points: 6
#     Node 3, Type 0, BuildingBlock: BETDIP_clean_sbu_0, # of connection points: 6
#     Node 4, Type 0, BuildingBlock: BETDIP_clean_sbu_0, # of connection points: 6
#     Node 5, Type 0, BuildingBlock: BETDIP_clean_sbu_0, # of connection points: 6
#     Edge 6, Type (0, 0), BuildingBlock: KIFKEQ_clean_linker_1, # of connection points: 2
#     Edge 7, Type (0, 0), BuildingBlock: KIFKEQ_clean_linker_1, # of connection points: 2
#     Edge 8, Type (0, 0), BuildingBlock: KIFKEQ_clean_linker_1, # of connection points: 2
#     Edge 9, Type (0, 0), BuildingBlock: KIFKEQ_clean_linker_1, # of connection points: 2
#     Edge 10, Type (0, 0), BuildingBlock: KIFKEQ_clean_linker_1, # of connection points: 2
#     Edge 11, Type (0, 0), BuildingBlock: KIFKEQ_clean_linker_1, # of connection points: 2
#     Edge 12, Type (0, 0), BuildingBlock: KIFKEQ_clean_linker_1, # of connection points: 2
#     Edge 13, Type (0, 0), BuildingBlock: KIFKEQ_clean_linker_1, # of connection points: 2
#     Edge 14, Type (0, 0), BuildingBlock: KIFKEQ_clean_linker_1, # of connection points: 2
#     Edge 15, Type (0, 0), BuildingBlock: KIFKEQ_clean_linker_1, # of connection points: 2
#     Edge 16, Type (0, 0), BuildingBlock: KIFKEQ_clean_linker_1, # of connection points: 2
#     Edge 17, Type (0, 0), BuildingBlock: KIFKEQ_clean_linker_1, # of connection points: 2
#     Edge 18, Type (0, 0), BuildingBlock: KIFKEQ_clean_linker_1, # of connection points: 2
#     Edge 19, Type (0, 0), BuildingBlock: KIFKEQ_clean_linker_1, # of connection points: 2
#     Edge 20, Type (0, 0), BuildingBlock: KIFKEQ_clean_linker_1, # of connection points: 2
#     Edge 21, Type (0, 0), BuildingBlock: KIFKEQ_clean_linker_1, # of connection points: 2
#     Edge 22, Type (0, 0), BuildingBlock: KIFKEQ_clean_linker_1, # of connection points: 2
#     Edge 23, Type (0, 0), BuildingBlock: KIFKEQ_clean_linker_1, # of connection points: 2
# Relax obj value: 0.119
# Max RMSD: 0.192
# Mean RMSD: 0.192
data_MOF--net-qtz-e--node1-BETDIP_clean_sbu_0--edge1-KIFKEQ_clean_linker_1
_symmetry_space_group_name_H-M    P1
_symmetry_Int_Tables_number       1
_symmetry_cell_setting            triclinic
loop_
_symmetry_equiv_pos_as_xyz
'x, y, z'
_cell_length_a     25.933245
_cell_length_b     25.728822
_cell_length_c     51.877484
_cell_angle_alpha  90.103158
_cell_angle_beta   89.832442
_cell_angle_gamma 119.30417
loop_
_atom_site_label
_atom_site_type_symbol
_atom_site_fract_x
_atom_site_fract_y
_atom_site_fract_z
_atom_type_partial_charge
Tb0 Tb 0.1936 0.47236 0.07245 0.0
Tb1 Tb 0.14229 0.34295 0.05653 0.0
C2 C 0.19892 0.56364 0.09244 0.0
C3 C 0.19416 0.57851 0.11959 0.0
C4 C 0.1502 0.59256 0.12676 0.0
C5 C 0.14261 0.60289 0.15264 0.0
C6 C 0.17904 0.5996 0.17192 0.0
C7 C 0.22318 0.5857 0.16461 0.0
C8 C 0.23048 0.575 0.13879 0.0
C9 C 0.26785 0.43281 0.07462 0.0
C10 C 0.12292 0.36414 0.11349 0.0
C11 C 0.12784 0.24883 0.03523 0.0
C12 C 0.14812 0.23663 1.01031 0.0
C13 C 0.20775 0.26881 1.00273 0.0
C14 C 0.22554 0.25995 0.97839 0.0
C15 C 0.18422 0.21865 0.96096 0.0
C16 C 0.12477 0.18539 0.96883 0.0
C17 C 0.10696 0.19439 0.99322 0.0
C18 C 0.07433 0.39195 0.05217 0.0
C19 C 0.21988 0.44919 1.01678 0.0
O20 O 0.15046 0.52039 0.08259 0.0
O21 O 0.24582 0.55956 0.08614 0.0
O22 O 0.21382 0.40289 0.08054 0.0
O23 O 0.28306 0.48816 0.0706 0.0
O24 O 0.14587 0.42134 0.10717 0.0
O25 O 0.12121 0.32409 0.09698 0.0
O26 O 0.16843 0.27795 0.05269 0.0
O27 O 0.0896 0.268 0.03362 0.0
O28 O 0.12785 0.41411 0.04703 0.0
O29 O 0.05464 0.33792 0.06051 0.0
O30 O 0.2019 0.39392 1.02472 0.0
O31 O 0.21315 0.48788 0.03137 0.0
H32 H 0.12104 0.59463 0.11236 0.0
H33 H 0.10754 0.61253 0.15756 0.0
H34 H 0.25266 0.58362 0.17879 0.0
H35 H 0.26435 0.56354 0.13397 0.0
H36 H 0.24065 0.30176 1.01539 0.0
H37 H 0.27184 0.28572 0.97321 0.0
H38 H 0.09165 0.15354 0.95588 0.0
H39 H 0.0607 0.16908 0.99856 0.0
Tb40 Tb 0.72473 0.2158 0.41354 0.0
Tb41 Tb 0.80377 0.17021 0.39235 0.0
C42 C 0.64665 0.23899 0.42881 0.0
C43 C 0.62862 0.24236 0.45536 0.0
C44 C 0.65147 0.22415 0.47577 0.0
C45 C 0.63381 0.22529 0.50106 0.0
C46 C 0.59293 0.2448 0.50653 0.0
C47 C 0.57098 0.26426 0.48609 0.0
C48 C 0.58863 0.26289 0.46064 0.0
C49 C 0.83421 0.2707 0.43165 0.0
C50 C 0.75105 0.12949 0.44691 0.0
C51 C 0.88168 0.15887 0.36799 0.0
C52 C 0.90993 0.18268 0.34264 0.0
C53 C 0.97024 0.20219 0.33875 0.0
C54 C -0.00335 0.22455 0.31467 0.0
C55 C 0.96326 0.22827 0.29408 0.0
C56 C 0.90289 0.2087 0.29813 0.0
C57 C 0.87655 0.18602 0.32202 0.0
C58 C 0.6888 0.10094 0.38677 0.0
C59 C 0.77972 0.25987 0.35831 0.0
O60 O 0.63539 0.18555 0.42153 0.0
O61 O 0.7003 0.28029 0.42253 0.0
O62 O 0.81813 0.25245 0.40901 0.0
O63 O 0.78709 0.25705 0.44493 0.0
O64 O 0.7099 0.14258 0.43938 0.0
O65 O 0.79918 0.14479 0.43281 0.0
O66 O 0.89419 0.19762 0.38668 0.0
O67 O 0.82529 0.12003 0.36721 0.0
O68 O 0.7179 0.1561 0.38436 0.0
O69 O 0.72431 0.08079 0.39267 0.0
O70 O 0.80866 0.22997 0.3615 0.0
O71 O 0.74156 0.25871 0.37567 0.0
H72 H 0.68268 0.20848 0.47213 0.0
H73 H 0.65222 0.21085 0.51637 0.0
H74 H 0.5391 0.27912 0.4897 0.0
H75 H 0.57065 0.27719 0.4451 0.0
H76 H -0.00309 0.20008 0.35432 0.0
H77 H 0.04335 0.2396 0.31225 0.0
H78 H 0.87559 0.21006 0.28266 0.0
H79 H 0.82982 0.17099 0.32428 0.0
Tb80 Tb 0.49119 0.68455 0.73617 0.0
Tb81 Tb 0.60165 0.79962 0.72514 0.0
C82 C 0.42213 0.5831 0.75368 0.0
C83 C 0.40351 0.56807 0.78073 0.0
C84 C 0.37608 0.50908 0.78955 0.0
C85 C 0.3585 0.49631 0.81544 0.0
C86 C 0.36817 0.54246 0.83279 0.0
C87 C 0.39676 0.60152 0.82382 0.0
C88 C 0.41411 0.61413 0.7981 0.0
C89 C 0.47978 0.77869 0.74352 0.0
C90 C 0.59118 0.74989 0.78024 0.0
C91 C 0.67323 0.89992 0.70658 0.0
C92 C 0.68369 0.92171 0.67967 0.0
C93 C 0.71213 -0.01702 0.67441 0.0
C94 C 0.72067 0.00349 0.64888 0.0
C95 C 0.70046 0.96303 0.62808 0.0
C96 C 0.67204 0.9016 0.63352 0.0
C97 C 0.664 0.88122 0.659 0.0
C98 C 0.6052 0.70098 0.71512 0.0
C99 C 0.4998 0.73577 0.68194 0.0
O100 O 0.4782 0.60163 0.74917 0.0
O101 O 0.40409 0.61706 0.74263 0.0
O102 O 0.52546 0.77513 0.74879 0.0
O103 O 0.43735 0.72722 0.7366 0.0
O104 O 0.54614 0.7008 0.77076 0.0
O105 O 0.61724 0.79972 0.76652 0.0
O106 O 0.62193 0.88746 0.71642 0.0
O107 O 0.68721 0.85866 0.71184 0.0
O108 O 0.56399 0.71151 0.7112 0.0
O109 O 0.64903 0.74728 0.72546 0.0
O110 O 0.54304 0.78582 0.6918 0.0
O111 O 0.47845 0.68493 0.6948 0.0
H112 H 0.36793 0.47302 0.77645 0.0
H113 H 0.33635 0.4503 0.82173 0.0
H114 H 0.40604 0.63821 0.83672 0.0
H115 H 0.43576 0.66012 0.79174 0.0
H116 H 0.72743 0.01498 0.69006 0.0
H117 H 0.74211 0.05105 0.64543 0.0
H118 H 0.65647 0.86916 0.61805 0.0
H119 H 0.64214 0.83368 0.66255 0.0
Tb120 Tb 0.77524 0.50279 0.07557 0.0
Tb121 Tb 0.76539 0.61322 0.06405 0.0
C122 C 0.80891 0.4342 0.09399 0.0
C123 C 0.81724 0.42091 0.12092 0.0
C124 C 0.85303 0.46649 0.13825 0.0
C125 C 0.85313 0.45417 0.16453 0.0
C126 C 0.81744 0.39607 0.17404 0.0
C127 C 0.78411 0.35012 0.15642 0.0
C128 C 0.78405 0.36243 0.13018 0.0
C129 C 0.6676 0.48482 0.07485 0.0
C130 C 0.79006 0.59699 0.1207 0.0
C131 C 0.73323 0.68219 0.04426 0.0
C132 C 0.72167 0.6938 1.01739 0.0
C133 C 0.67331 0.70238 1.01213 0.0
C134 C 0.66108 0.71218 0.98681 0.0
C135 C 0.69693 0.71358 0.96603 0.0
C136 C 0.74569 0.70537 0.97144 0.0
C137 C 0.75791 0.69566 0.99677 0.0
C138 C 0.87155 0.62485 0.06247 0.0
C139 C 0.74941 0.51868 1.01916 0.0
O140 O 0.84529 0.4876 0.08522 0.0
O141 O 0.75412 0.41674 0.08751 0.0
O142 O 0.71154 0.53088 0.0839 0.0
O143 O 0.68277 0.4459 0.06781 0.0
O144 O 0.79823 0.55285 0.11213 0.0
O145 O 0.76986 0.62449 0.10561 0.0
O146 O 0.69618 0.62991 0.0539 0.0
O147 O 0.78813 0.69822 0.05002 0.0
O148 O 0.82449 0.58211 0.05465 0.0
O149 O 0.8618 0.66647 0.07122 0.0
O150 O 0.73933 0.56136 1.02799 0.0
O151 O 0.77249 0.49347 0.03395 0.0
H152 H 0.8791 0.51214 0.13175 0.0
H153 H 0.87915 0.49071 0.17752 0.0
H154 H 0.75726 0.30461 0.16295 0.0
H155 H 0.75637 0.32647 0.11722 0.0
H156 H 0.64479 0.70136 1.02765 0.0
H157 H 0.62365 0.71909 0.98357 0.0
H158 H 0.77379 0.70511 0.95602 0.0
H159 H 0.79529 0.6887 1.00015 0.0
Tb160 Tb 0.224 0.76657 0.41095 0.0
Tb161 Tb 0.13392 0.80079 0.39276 0.0
C162 C 0.31146 0.75514 0.42267 0.0
C163 C 0.33617 0.75076 0.44784 0.0
C164 C 0.38053 0.80222 0.45991 0.0
C165 C 0.4002 0.79916 0.48464 0.0
C166 C 0.37629 0.7445 0.49784 0.0
C167 C 0.33356 0.6927 0.48536 0.0
C168 C 0.3138 0.69576 0.46065 0.0
C169 C 0.11689 0.70054 0.43035 0.0
C170 C 0.18682 0.84077 0.44736 0.0
C171 C 0.04879 0.80484 0.37149 0.0
C172 C 0.01864 0.78279 0.3464 0.0
C173 C 0.95739 0.76017 0.34426 0.0
C174 C 0.92897 0.7397 0.32043 0.0
C175 C 0.9613 0.74107 0.29833 0.0
C176 C 0.02268 0.76403 0.30058 0.0
C177 C 0.051 0.78484 0.32427 0.0
C178 C 0.24661 0.87942 0.38622 0.0
C179 C 0.16848 0.72288 0.35568 0.0
O180 O 0.31513 0.80682 0.41749 0.0
O181 O 0.25991 0.71003 0.41626 0.0
O182 O 0.12971 0.72109 0.40779 0.0
O183 O 0.16583 0.71735 0.44264 0.0
O184 O 0.23141 0.83382 0.43888 0.0
O185 O 0.13777 0.82219 0.43367 0.0
O186 O 0.04165 0.76457 0.38871 0.0
O187 O 0.1037 0.84757 0.37016 0.0
O188 O 0.22174 0.82452 0.38315 0.0
O189 O 0.20778 0.89408 0.39382 0.0
O190 O 0.13511 0.74786 0.35995 0.0
O191 O 0.2082 0.72627 0.3726 0.0
H192 H 0.3991 0.84524 0.45051 0.0
H193 H 0.43288 0.84 0.49371 0.0
H194 H 0.31508 0.64969 0.49475 0.0
H195 H 0.28017 0.65508 0.45182 0.0
H196 H 0.93153 0.75831 0.36102 0.0
H197 H 0.88158 0.72193 0.3194 0.0
H198 H 0.04911 0.76652 0.28394 0.0
H199 H 0.09839 0.80253 0.32521 0.0
Tb200 Tb 0.45042 0.24773 0.74774 0.0
Tb201 Tb 0.33274 0.15621 0.72534 0.0
C202 C 0.54574 0.33674 0.7609 0.0
C203 C 0.5759 0.3575 0.78584 0.0
C204 C 0.59371 0.41585 0.79397 0.0
C205 C 0.6175 0.43469 0.81855 0.0
C206 C 0.62425 0.39555 0.8353 0.0
C207 C 0.60797 0.33768 0.82685 0.0
C208 C 0.58363 0.31865 0.80239 0.0
C209 C 0.42344 0.13641 0.75504 0.0
C210 C 0.3419 0.1912 0.78531 0.0
C211 C 0.24294 0.06819 0.70715 0.0
C212 C 0.23211 0.04586 0.6803 0.0
C213 C 0.19525 -0.01484 0.67499 0.0
C214 C 0.18842 0.9638 0.6496 0.0
C215 C 0.21861 0.00276 0.62901 0.0
C216 C 0.25498 0.06371 0.63449 0.0
C217 C 0.26174 0.08491 0.65979 0.0
C218 C 0.36351 0.26973 0.71903 0.0
C219 C 0.44026 0.21391 0.68836 0.0
O220 O 0.49593 0.33765 0.75869 0.0
O221 O 0.54236 0.28786 0.75152 0.0
O222 O 0.41331 0.15755 0.73503 0.0
O223 O 0.45283 0.17914 0.77125 0.0
O224 O 0.39588 0.23591 0.78114 0.0
O225 O 0.31075 0.15204 0.76692 0.0
O226 O 0.28478 0.06359 0.7193 0.0
O227 O 0.24663 0.12035 0.71076 0.0
O228 O 0.37015 0.24511 0.73843 0.0
O229 O 0.33735 0.22948 0.70144 0.0
O230 O 0.39066 0.16482 0.69371 0.0
O231 O 0.46716 0.2563 0.70586 0.0
H232 H 0.58792 0.44639 0.78153 0.0
H233 H 0.63013 0.4797 0.82455 0.0
H234 H 0.61209 0.30646 0.8395 0.0
H235 H 0.56965 0.27313 0.79673 0.0
H236 H 0.1725 0.95413 0.69053 0.0
H237 H 0.16066 0.91651 0.64621 0.0
H238 H 0.2783 0.09529 0.61922 0.0
H239 H 0.29076 0.13194 0.66333 0.0
H240 H 0.08308 0.69417 0.31918 0.0
H241 H 0.24348 0.68756 0.33433 0.0
H242 H 0.08158 0.65976 0.27532 0.0
H243 H 0.2414 0.6521 0.29039 0.0
H244 H 0.1893 0.54328 0.21503 0.0
H245 H 0.18301 0.56678 0.26015 0.0
H246 H 0.14468 0.70505 0.23648 0.0
H247 H 0.15247 0.68289 0.19146 0.0
C248 C 0.11806 0.68539 0.31319 0.0
C249 C 0.16408 0.69487 0.33015 0.0
C250 C 0.11709 0.66552 0.28803 0.0
C251 C 0.16175 0.65389 0.27929 0.0
C252 C 0.20622 0.66049 0.2966 0.0
C253 C 0.20746 0.68089 0.32177 0.0
C254 C 0.18003 0.57907 0.2194 0.0
C255 C 0.17183 0.61145 0.19949 0.0
C256 C 0.17623 0.59232 0.24528 0.0
C257 C 0.16344 0.63779 0.25188 0.0
C258 C 0.15387 0.66923 0.23203 0.0
C259 C 0.15822 0.65639 0.20618 0.0
H260 H 0.40082 0.13111 0.65002 0.0
H261 H 0.53417 0.31255 0.66672 0.0
H262 H 0.43848 0.14134 0.60643 0.0
H263 H 0.57264 0.32238 0.62271 0.0
H264 H 0.57724 0.32933 0.53237 0.0
H265 H 0.54205 0.32428 0.5767 0.0
H266 H 0.52794 0.15091 0.58563 0.0
H267 H 0.56149 0.15527 0.54144 0.0
C268 C 0.43844 0.17322 0.64447 0.0
C269 C 0.46478 0.22094 0.66199 0.0
C270 C 0.46019 0.17891 0.61944 0.0
C271 C 0.50881 0.23249 0.61119 0.0
C272 C 0.53491 0.28062 0.62853 0.0
C273 C 0.51321 0.27484 0.65375 0.0
C274 C 0.56627 0.29008 0.54381 0.0
C275 C 0.5721 0.24269 0.53341 0.0
C276 C 0.54676 0.28747 0.56924 0.0
C277 C 0.53214 0.23716 0.58461 0.0
C278 C 0.53829 0.19003 0.5742 0.0
C279 C 0.55803 0.19277 0.54894 0.0
H280 H 0.27735 0.56021 0.99421 0.0
H281 H 0.21645 0.37394 0.9791 0.0
H282 H 0.31626 0.58435 0.95019 0.0
H283 H 0.25372 0.39763 0.93541 0.0
H284 H 0.37574 0.46357 0.86599 0.0
H285 H 0.34342 0.44372 0.91085 0.0
H286 H 0.2823 0.5724 0.9061 0.0
H287 H 0.31489 0.59238 0.86139 0.0
C288 C 0.27224 0.52448 0.98155 0.0
C289 C 0.24425 0.46525 0.9903 0.0
C290 C 0.29429 0.53821 0.9563 0.0
C291 C 0.2885 0.49292 0.93926 0.0
C292 C 0.26031 0.4338 0.9481 0.0
C293 C 0.23865 0.4202 0.97324 0.0
C294 C 0.35508 0.48732 0.87449 0.0
C295 C 0.34797 0.52958 0.86009 0.0
C296 C 0.3366 0.47605 0.90023 0.0
C297 C 0.31033 0.50659 0.91217 0.0
C298 C 0.30334 0.54889 0.89774 0.0
C299 C 0.3219 0.56022 0.87204 0.0
H300 H 0.70585 0.29342 0.33456 0.0
H301 H 0.87401 0.29868 0.32603 0.0
H302 H 0.71655 0.33467 0.29111 0.0
H303 H 0.88382 0.33774 0.28272 0.0
H304 H 0.90639 0.44135 0.21008 0.0
H305 H 0.89893 0.41926 0.25608 0.0
H306 H 0.71151 0.29896 0.24769 0.0
H307 H 0.71852 0.32313 0.20206 0.0
C308 C 0.74532 0.30396 0.32354 0.0
C309 C 0.78861 0.29191 0.33358 0.0
C310 C 0.75125 0.32704 0.29856 0.0
C311 C 0.80076 0.33885 0.2832 0.0
C312 C 0.84527 0.3295 0.29389 0.0
C313 C 0.83929 0.30643 0.31871 0.0
C314 C 0.86346 0.41084 0.21812 0.0
C315 C 0.81319 0.38358 0.20226 0.0
C316 C 0.85922 0.39776 0.24448 0.0
C317 C 0.80461 0.3571 0.25567 0.0
C318 C 0.75417 0.33097 0.23989 0.0
C319 C 0.75839 0.34409 0.21357 0.0
H320 H 0.5342 0.83213 0.65036 0.0
H321 H 0.42043 0.64112 0.65304 0.0
H322 H 0.5047 0.83337 0.606 0.0
H323 H 0.39117 0.64239 0.60848 0.0
H324 H 0.30617 0.67908 0.5381 0.0
H325 H 0.33524 0.67636 0.58247 0.0
H326 H 0.51661 0.80174 0.56317 0.0
H327 H 0.48759 0.80426 0.51871 0.0
C328 C 0.503 0.79031 0.64149 0.0
C329 C 0.47987 0.73645 0.65526 0.0
C330 C 0.48628 0.79104 0.61597 0.0
C331 C 0.44575 0.73796 0.60362 0.0
C332 C 0.42205 0.68416 0.6175 0.0
C333 C 0.43896 0.6834 0.64303 0.0
C334 C 0.35239 0.70547 0.54321 0.0
C335 C 0.39454 0.74181 0.52478 0.0
C336 C 0.36904 0.70396 0.56868 0.0
C337 C 0.42823 0.73884 0.5764 0.0
C338 C 0.47047 0.77498 0.55796 0.0
C339 C 0.45383 0.77641 0.53247 0.0
H340 H 0.72764 0.57852 0.98158 0.0
H341 H 0.74046 0.41957 0.99491 0.0
H342 H 0.70153 0.5499 0.93708 0.0
H343 H 0.71151 0.38913 0.95019 0.0
H344 H 0.70785 0.38106 0.86143 0.0
H345 H 0.74149 0.41112 0.90572 0.0
H346 H 0.61899 0.47881 0.9137 0.0
H347 H 0.58697 0.45036 0.86943 0.0
C348 C 0.72473 0.53727 0.97502 0.0
C349 C 0.73593 0.50124 0.99183 0.0
C350 C 0.70924 0.52055 0.94947 0.0
C351 C 0.70355 0.46676 0.94009 0.0
C352 C 0.71593 0.4311 0.95674 0.0
C353 C 0.73226 0.44835 0.98237 0.0
C354 C 0.68834 0.40246 0.87275 0.0
C355 C 0.64531 0.41401 0.86198 0.0
C356 C 0.70734 0.41941 0.89812 0.0
C357 C 0.68326 0.44776 0.91323 0.0
C358 C 0.63958 0.45842 0.90245 0.0
C359 C 0.6211 0.44205 0.87709 0.0
H360 H 0.31303 0.39191 0.03868 0.0
H361 H 0.32521 0.44066 0.11884 0.0
H362 H 0.40909 0.3966 0.04118 0.0
H363 H 0.42185 0.44558 0.12162 0.0
H364 H 0.62218 0.54981 0.09769 0.0
H365 H 0.51742 0.52173 0.10112 0.0
H366 H 0.46954 0.35705 0.06092 0.0
H367 H 0.57348 0.38541 0.05709 0.0
C368 C 0.33512 0.40046 0.05715 0.0
C369 C 0.3119 0.41451 0.07872 0.0
C370 C 0.39023 0.40378 0.05858 0.0
C371 C 0.42302 0.42214 0.08155 0.0
C372 C 0.39758 0.43195 0.10366 0.0
C373 C 0.34218 0.4282 0.10222 0.0
C374 C 0.58908 0.50773 0.08965 0.0
C375 C 0.60557 0.4699 0.07704 0.0
C376 C 0.52932 0.49128 0.09187 0.0
C377 C 0.48557 0.43695 0.08144 0.0
C378 C 0.50238 0.39914 0.06906 0.0
C379 C 0.56183 0.41548 0.06687 0.0
H380 H 0.02732 0.63112 0.39772 0.0
H381 H 0.09521 0.6351 0.47412 0.0
H382 H 0.96404 0.52355 0.40123 0.0
H383 H 0.03256 0.52724 0.47743 0.0
H384 H 0.86305 0.33622 0.47576 0.0
H385 H 0.92931 0.44351 0.4784 0.0
H386 H -0.00905 0.44247 0.40104 0.0
H387 H 0.92399 0.33544 0.3982 0.0
C388 C 0.02758 0.6092 0.4155 0.0
C389 C 0.06681 0.64105 0.43546 0.0
C390 C -0.00783 0.5476 0.41735 0.0
C391 C -0.00477 0.51708 0.43923 0.0
C392 C 0.03005 0.54968 0.46022 0.0
C393 C 0.06556 0.61135 0.45837 0.0
C394 C 0.89214 0.35867 0.45963 0.0
C395 C 0.88749 0.32804 0.43654 0.0
C396 C 0.92976 0.42007 0.46111 0.0
C397 C 0.96339 0.45133 0.43957 0.0
C398 C 0.96377 0.4195 0.41759 0.0
C399 C 0.92622 0.35818 0.41611 0.0
H400 H 0.46598 0.09537 0.7931 0.0
H401 H 0.38812 0.05296 0.71714 0.0
H402 H 0.48037 0.00833 0.79144 0.0
H403 H 0.40287 0.96649 0.71539 0.0
H404 H 0.38193 0.78497 0.73224 0.0
H405 H 0.36562 0.86966 0.73675 0.0
H406 H 0.54279 0.97559 0.76643 0.0
H407 H 0.55887 0.8894 0.76232 0.0
C408 C 0.45144 0.06706 0.77619 0.0
C409 C 0.42581 0.08059 0.75527 0.0
C410 C 0.46021 0.01773 0.77515 0.0
C411 C 0.44308 0.98099 0.75325 0.0
C412 C 0.41604 -0.00621 0.73262 0.0
C413 C 0.40748 0.04317 0.73362 0.0
C414 C 0.41745 0.82625 0.73981 0.0
C415 C 0.47178 0.83093 0.74686 0.0
C416 C 0.40813 0.8748 0.74226 0.0
C417 C 0.453 0.92921 0.75177 0.0
C418 C 0.5073 0.93388 0.7592 0.0
C419 C 0.51669 0.88494 0.75671 0.0
H420 H 0.6245 0.63169 0.7492 0.0
H421 H 0.56387 0.6363 0.67238 0.0
H422 H 0.57223 0.52244 0.74761 0.0
H423 H 0.511 0.52823 0.67079 0.0
H424 H 0.42448 0.32569 0.67528 0.0
H425 H 0.50243 0.43009 0.67201 0.0
H426 H 0.46458 0.46081 0.75006 0.0
H427 H 0.3886 0.35664 0.75341 0.0
C428 C 0.60269 0.60933 0.73152 0.0
C429 C 0.59793 0.64169 0.71091 0.0
C430 C 0.57186 0.54698 0.73073 0.0
C431 C 0.53625 0.51689 0.7093 0.0
C432 C 0.53791 0.54987 0.68753 0.0
C433 C 0.5684 0.61181 0.68839 0.0
C434 C 0.43241 0.35531 0.69147 0.0
C435 C 0.40087 0.33374 0.71457 0.0
C436 C 0.47738 0.41468 0.68976 0.0
C437 C 0.49078 0.4532 0.71105 0.0
C438 C 0.4569 0.43181 0.73366 0.0
C439 C 0.41252 0.37264 0.73539 0.0
H440 H -0.01207 0.38459 0.0855 0.0
H441 H 0.10004 0.48498 1.02189 0.0
H442 H 0.9551 0.45926 0.09008 0.0
H443 H 0.07004 0.55998 1.02708 0.0
H444 H 0.93364 0.61949 0.10368 0.0
H445 H -0.00947 0.5662 0.10227 0.0
H446 H -0.01818 0.56402 1.01901 0.0
H447 H 0.92663 0.61727 1.02067 0.0
C448 C 0.00468 0.42202 0.07233 0.0
C449 C 0.04568 0.42887 0.05314 0.0
C450 C -0.01277 0.46542 0.07532 0.0
C451 C 0.01068 0.51589 0.05911 0.0
C452 C 0.05098 0.52165 0.03977 0.0
C453 C 0.06781 0.47846 0.03669 0.0
C454 C 0.94744 0.61082 0.08518 0.0
C455 C 0.92661 0.62266 0.06224 0.0
C456 C -0.02142 0.57908 0.08435 0.0
C457 C -0.01066 0.55971 0.06056 0.0
C458 C -0.02559 0.57824 0.03766 0.0
C459 C 0.94335 0.60944 0.03854 0.0
H460 H 0.32196 0.84984 0.36399 0.0
H461 H 0.3161 -0.00829 0.40627 0.0
H462 H 0.42927 0.90329 0.36564 0.0
H463 H 0.42504 0.04651 0.40739 0.0
H464 H 0.6169 0.14237 0.3709 0.0
H465 H 0.50925 0.09169 0.37216 0.0
H466 H 0.50652 0.93436 0.40275 0.0
H467 H 0.61517 -0.01409 0.40207 0.0
C468 C 0.34384 0.89283 0.37351 0.0
C469 C 0.31107 0.91665 0.38524 0.0
C470 C 0.40514 0.92304 0.3746 0.0
C471 C 0.43499 0.97826 0.387 0.0
C472 C 0.40255 0.00359 0.39786 0.0
C473 C 0.34064 0.97269 0.3971 0.0
C474 C 0.59333 0.09705 0.37808 0.0
C475 C 0.624 0.06794 0.38658 0.0
C476 C 0.5319 0.06838 0.37893 0.0
C477 C 0.50003 0.00962 0.38777 0.0
C478 C 0.53053 0.97993 0.3959 0.0
C479 C 0.59232 0.00907 0.3954 0.0
H480 H 0.22582 0.12256 0.80154 0.0
H481 H 0.39923 0.25389 0.82808 0.0
H482 H 0.18419 0.12668 0.8436 0.0
H483 H 0.3582 0.25733 0.86956 0.0
H484 H 0.26223 0.3061 0.92878 0.0
H485 H 0.29635 0.29549 0.88645 0.0
H486 H 0.18333 0.10467 0.89042 0.0
H487 H 0.14875 0.11537 0.93303 0.0
C488 C 0.25511 0.15175 0.81633 0.0
C489 C 0.31578 0.18831 0.81122 0.0
C490 C 0.2313 0.15409 0.84044 0.0
C491 C 0.26769 0.19312 0.85986 0.0
C492 C 0.32853 0.22791 0.85491 0.0
C493 C 0.35215 0.22559 0.83103 0.0
C494 C 0.24479 0.26177 0.92078 0.0
C495 C 0.20318 0.21158 0.93455 0.0
C496 C 0.26439 0.25565 0.89643 0.0
C497 C 0.24318 0.19909 0.88509 0.0
C498 C 0.20033 0.1489 0.89849 0.0
C499 C 0.18057 0.15507 0.92294 0.0
H500 H 0.94655 0.30375 0.26239 0.0
H501 H 0.04134 0.20524 0.26731 0.0
H502 H -0.01401 0.33712 0.21919 0.0
H503 H 0.08205 0.23981 0.22423 0.0
H504 H 0.08226 0.25405 0.13552 0.0
H505 H 0.04648 0.22361 0.17943 0.0
H506 H 0.07864 0.40147 0.19623 0.0
H507 H 0.11388 0.43194 0.15226 0.0
C508 C -0.02402 0.28935 0.25429 0.0
C509 C -0.00948 0.25157 0.26833 0.0
C510 C -0.00094 0.30896 0.22958 0.0
C511 C 0.03711 0.29105 0.21816 0.0
C512 C 0.05236 0.25394 0.23233 0.0
C513 C 0.02954 0.23463 0.25714 0.0
C514 C 0.08171 0.28674 0.14853 0.0
C515 C 0.1009 0.34544 0.14024 0.0
C516 C 0.06157 0.26935 0.1738 0.0
C517 C 0.05976 0.31008 0.19141 0.0
C518 C 0.07887 0.36877 0.18312 0.0
C519 C 0.09933 0.38629 0.15789 0.0
H520 H 0.79806 0.05692 0.60617 0.0
H521 H 0.62111 0.91805 0.58824 0.0
H522 H 0.8103 0.09346 0.56191 0.0
H523 H 0.63389 0.95368 0.54387 0.0
H524 H 0.65322 0.08231 0.47792 0.0
H525 H 0.64188 0.04022 0.52084 0.0
H526 H 0.81961 0.06704 0.51696 0.0
H527 H 0.83136 0.10996 0.47383 0.0
C528 C 0.76176 0.03417 0.5928 0.0
C529 C 0.70852 -0.01535 0.60086 0.0
C530 C 0.76904 0.0547 0.56732 0.0
C531 C 0.72312 0.02656 0.54926 0.0
C532 C 0.67002 0.97679 0.55729 0.0
C533 C 0.66288 0.95602 0.5827 0.0
C534 C 0.68989 0.07891 0.48604 0.0
C535 C 0.7433 0.09963 0.47231 0.0
C536 C 0.6832 0.05441 0.51069 0.0
C537 C 0.7298 0.05021 0.52244 0.0
C538 C 0.783 0.07015 0.5086 0.0
C539 C 0.78959 0.09435 0.48378 0.0
H540 H 0.54428 0.65434 0.81277 0.0
H541 H 0.67962 0.83945 0.80938 0.0
H542 H 0.57101 0.64832 0.85687 0.0
H543 H 0.70614 0.83344 0.85423 0.0
H544 H 0.77386 0.7782 0.92682 0.0
H545 H 0.75034 0.78909 0.88225 0.0
H546 H 0.56425 0.68126 0.89926 0.0
H547 H 0.58773 0.66854 0.94335 0.0
C548 C 0.57975 0.69408 0.82141 0.0
C549 C 0.60959 0.74759 0.80732 0.0
C550 C 0.59487 0.69061 0.84695 0.0
C551 C 0.64045 0.74047 0.8594 0.0
C552 C 0.67102 0.79396 0.84528 0.0
C553 C 0.65566 0.79753 0.81957 0.0
C554 C 0.72791 0.75644 0.92103 0.0
C555 C 0.68279 0.72226 0.93886 0.0
C556 C 0.71439 0.76332 0.89547 0.0
C557 C 0.65535 0.73594 0.88696 0.0
C558 C 0.61029 0.70242 0.9049 0.0
C559 C 0.62377 0.69568 0.93039 0.0
H560 H 0.8755 0.7589 0.27564 0.0
H561 H -0.02001 0.67202 0.26355 0.0
H562 H 0.82856 0.72289 0.2336 0.0
H563 H 0.93433 0.63736 0.22152 0.0
H564 H 0.80131 0.53319 0.15986 0.0
H565 H 0.83906 0.56685 0.20306 0.0
H566 H 0.85265 0.73774 0.18688 0.0
H567 H 0.81485 0.70373 0.14327 0.0
C568 C 0.88823 0.7319 0.26409 0.0
C569 C 0.93153 0.71838 0.27299 0.0
C570 C 0.86176 0.71177 0.23989 0.0
C571 C 0.87753 0.67711 0.22417 0.0
C572 C 0.92054 0.66333 0.23321 0.0
C573 C 0.94721 0.68374 0.25724 0.0
C574 C 0.81249 0.57801 0.16543 0.0
C575 C 0.80608 0.61608 0.14791 0.0
C576 C 0.83415 0.59735 0.19026 0.0
C577 C 0.84982 0.65536 0.19838 0.0
C578 C 0.84085 0.6927 0.18129 0.0
C579 C 0.8192 0.67325 0.15629 0.0
H580 H 0.30567 0.03797 0.59222 0.0
H581 H 0.11977 0.91608 0.6044 0.0
H582 H 0.2974 0.00247 0.54815 0.0
H583 H 0.11214 0.87847 0.56056 0.0
H584 H 0.10604 0.86323 0.47241 0.0
H585 H 0.11338 0.90376 0.51571 0.0
H586 H 0.28515 0.91744 0.52473 0.0
H587 H 0.27852 0.87854 0.48145 0.0
C588 C 0.26289 0.00369 0.58552 0.0
C589 C 0.21334 0.98012 0.602 0.0
C590 C 0.25832 -0.01728 0.56025 0.0
C591 C 0.20412 0.93734 0.55067 0.0
C592 C 0.15448 0.91387 0.5671 0.0
C593 C 0.15904 0.93493 0.59241 0.0
C594 C 0.14555 0.87529 0.48356 0.0
C595 C 0.19171 0.8677 0.4733 0.0
C596 C 0.14958 0.89813 0.50852 0.0
C597 C 0.19987 0.91395 0.52386 0.0
C598 C 0.24613 0.90673 0.51344 0.0
C599 C 0.24216 0.88404 0.48855 0.0
loop_
_geom_bond_atom_site_label_1
_geom_bond_atom_site_label_2
_geom_bond_distance
_geom_bond_site_symmetry_2
_ccdc_geom_bond_type
Tb0 C2 2.809 . S
Tb0 O20 2.484 . S
Tb0 O21 2.440 . S
Tb0 O22 2.658 . S
Tb0 O23 2.409 . S
Tb0 O24 2.378 . S
Tb0 O28 2.325 . S
Tb0 O31 2.341 . S
Tb1 C11 2.809 1_554 S
Tb1 O22 2.325 . S
Tb1 O25 2.341 . S
Tb1 O26 2.484 1_554 S
Tb1 O27 2.440 1_554 S
Tb1 O28 2.658 . S
Tb1 O29 2.409 . S
Tb1 O30 2.378 1_554 S
C2 Tb0 2.809 . S
C2 C3 1.514 . S
C2 O20 1.248 . S
C2 O21 1.266 . S
C3 C2 1.514 . S
C3 C4 1.359 . S
C3 C8 1.348 . S
C4 C3 1.359 . S
C4 C5 1.380 . S
C4 H32 0.929 . S
C5 C4 1.380 . S
C5 C6 1.347 . S
C5 H33 0.931 . S
C6 C5 1.347 . S
C6 C7 1.369 . S
C7 C6 1.369 . S
C7 C8 1.408 . S
C7 H34 0.930 . S
C8 C3 1.348 . S
C8 C7 1.408 . S
C8 H35 0.930 . S
C9 O22 1.281 . S
C9 O23 1.254 . S
C10 O24 1.236 . S
C10 O25 1.266 . S
C11 Tb1 2.809 1_556 S
C11 C12 1.514 . S
C11 O26 1.248 . S
C11 O27 1.266 . S
C12 C11 1.514 . S
C12 C13 1.359 . S
C12 C17 1.348 . S
C13 C12 1.359 . S
C13 C14 1.380 . S
C13 H36 0.929 . S
C14 C13 1.380 . S
C14 C15 1.347 . S
C14 H37 0.931 . S
C15 C14 1.347 . S
C15 C16 1.369 . S
C16 C15 1.369 . S
C16 C17 1.408 . S
C16 H38 0.930 . S
C17 C12 1.348 . S
C17 C16 1.408 . S
C17 H39 0.930 . S
C18 O28 1.281 . S
C18 O29 1.254 . S
C19 O30 1.236 . S
C19 O31 1.266 1_556 S
O20 Tb0 2.484 . S
O20 C2 1.248 . S
O21 Tb0 2.440 . S
O21 C2 1.266 . S
O22 Tb0 2.658 . S
O22 Tb1 2.325 . S
O22 C9 1.281 . S
O23 Tb0 2.409 . S
O23 C9 1.254 . S
O24 Tb0 2.378 . S
O24 C10 1.236 . S
O25 Tb1 2.341 . S
O25 C10 1.266 . S
O26 Tb1 2.484 1_556 S
O26 C11 1.248 . S
O27 Tb1 2.440 1_556 S
O27 C11 1.266 . S
O28 Tb0 2.325 . S
O28 Tb1 2.658 . S
O28 C18 1.281 . S
O29 Tb1 2.409 . S
O29 C18 1.254 . S
O30 Tb1 2.378 1_556 S
O30 C19 1.236 . S
O31 Tb0 2.341 . S
O31 C19 1.266 1_554 S
H32 C4 0.929 . S
H33 C5 0.931 . S
H34 C7 0.930 . S
H35 C8 0.930 . S
H36 C13 0.929 . S
H37 C14 0.931 . S
H38 C16 0.930 . S
H39 C17 0.930 . S
Tb40 C42 2.809 . S
Tb40 O60 2.484 . S
Tb40 O61 2.440 . S
Tb40 O62 2.658 . S
Tb40 O63 2.409 . S
Tb40 O64 2.378 . S
Tb40 O68 2.325 . S
Tb40 O71 2.341 . S
Tb41 C51 2.809 . S
Tb41 O62 2.325 . S
Tb41 O65 2.341 . S
Tb41 O66 2.484 . S
Tb41 O67 2.440 . S
Tb41 O68 2.658 . S
Tb41 O69 2.409 . S
Tb41 O70 2.378 . S
C42 Tb40 2.809 . S
C42 C43 1.514 . S
C42 O60 1.248 . S
C42 O61 1.266 . S
C43 C42 1.514 . S
C43 C44 1.359 . S
C43 C48 1.348 . S
C44 C43 1.359 . S
C44 C45 1.380 . S
C44 H72 0.929 . S
C45 C44 1.380 . S
C45 C46 1.347 . S
C45 H73 0.931 . S
C46 C45 1.347 . S
C46 C47 1.369 . S
C47 C46 1.369 . S
C47 C48 1.408 . S
C47 H74 0.930 . S
C48 C43 1.348 . S
C48 C47 1.408 . S
C48 H75 0.930 . S
C49 O62 1.281 . S
C49 O63 1.254 . S
C50 O64 1.236 . S
C50 O65 1.266 . S
C51 Tb41 2.809 . S
C51 C52 1.514 . S
C51 O66 1.248 . S
C51 O67 1.266 . S
C52 C51 1.514 . S
C52 C53 1.359 . S
C52 C57 1.348 . S
C53 C52 1.359 . S
C53 C54 1.380 . S
C53 H76 0.929 . S
C54 C53 1.380 . S
C54 C55 1.347 . S
C54 H77 0.931 1_655 S
C55 C54 1.347 . S
C55 C56 1.369 . S
C56 C55 1.369 . S
C56 C57 1.408 . S
C56 H78 0.930 . S
C57 C52 1.348 . S
C57 C56 1.408 . S
C57 H79 0.930 . S
C58 O68 1.281 . S
C58 O69 1.254 . S
C59 O70 1.236 . S
C59 O71 1.266 . S
O60 Tb40 2.484 . S
O60 C42 1.248 . S
O61 Tb40 2.440 . S
O61 C42 1.266 . S
O62 Tb40 2.658 . S
O62 Tb41 2.325 . S
O62 C49 1.281 . S
O63 Tb40 2.409 . S
O63 C49 1.254 . S
O64 Tb40 2.378 . S
O64 C50 1.236 . S
O65 Tb41 2.341 . S
O65 C50 1.266 . S
O66 Tb41 2.484 . S
O66 C51 1.248 . S
O67 Tb41 2.440 . S
O67 C51 1.266 . S
O68 Tb40 2.325 . S
O68 Tb41 2.658 . S
O68 C58 1.281 . S
O69 Tb41 2.409 . S
O69 C58 1.254 . S
O70 Tb41 2.378 . S
O70 C59 1.236 . S
O71 Tb40 2.341 . S
O71 C59 1.266 . S
H72 C44 0.929 . S
H73 C45 0.931 . S
H74 C47 0.930 . S
H75 C48 0.930 . S
H76 C53 0.929 . S
H77 C54 0.931 1_455 S
H78 C56 0.930 . S
H79 C57 0.930 . S
Tb80 C82 2.809 . S
Tb80 O100 2.484 . S
Tb80 O101 2.440 . S
Tb80 O102 2.658 . S
Tb80 O103 2.409 . S
Tb80 O104 2.378 . S
Tb80 O108 2.325 . S
Tb80 O111 2.341 . S
Tb81 C91 2.809 . S
Tb81 O102 2.325 . S
Tb81 O105 2.341 . S
Tb81 O106 2.484 . S
Tb81 O107 2.440 . S
Tb81 O108 2.658 . S
Tb81 O109 2.409 . S
Tb81 O110 2.378 . S
C82 Tb80 2.809 . S
C82 C83 1.514 . S
C82 O100 1.248 . S
C82 O101 1.266 . S
C83 C82 1.514 . S
C83 C84 1.359 . S
C83 C88 1.348 . S
C84 C83 1.359 . S
C84 C85 1.380 . S
C84 H112 0.929 . S
C85 C84 1.380 . S
C85 C86 1.347 . S
C85 H113 0.931 . S
C86 C85 1.347 . S
C86 C87 1.369 . S
C87 C86 1.369 . S
C87 C88 1.408 . S
C87 H114 0.930 . S
C88 C83 1.348 . S
C88 C87 1.408 . S
C88 H115 0.930 . S
C89 O102 1.281 . S
C89 O103 1.254 . S
C90 O104 1.236 . S
C90 O105 1.266 . S
C91 Tb81 2.809 . S
C91 C92 1.514 . S
C91 O106 1.248 . S
C91 O107 1.266 . S
C92 C91 1.514 . S
C92 C93 1.359 . S
C92 C97 1.348 . S
C93 C92 1.359 . S
C93 C94 1.380 . S
C93 H116 0.929 . S
C94 C93 1.380 . S
C94 C95 1.347 . S
C94 H117 0.931 1_565 S
C95 C94 1.347 . S
C95 C96 1.369 . S
C96 C95 1.369 . S
C96 C97 1.408 . S
C96 H118 0.930 . S
C97 C92 1.348 . S
C97 C96 1.408 . S
C97 H119 0.930 . S
C98 O108 1.281 . S
C98 O109 1.254 . S
C99 O110 1.236 . S
C99 O111 1.266 . S
O100 Tb80 2.484 . S
O100 C82 1.248 . S
O101 Tb80 2.440 . S
O101 C82 1.266 . S
O102 Tb80 2.658 . S
O102 Tb81 2.325 . S
O102 C89 1.281 . S
O103 Tb80 2.409 . S
O103 C89 1.254 . S
O104 Tb80 2.378 . S
O104 C90 1.236 . S
O105 Tb81 2.341 . S
O105 C90 1.266 . S
O106 Tb81 2.484 . S
O106 C91 1.248 . S
O107 Tb81 2.440 . S
O107 C91 1.266 . S
O108 Tb80 2.325 . S
O108 Tb81 2.658 . S
O108 C98 1.281 . S
O109 Tb81 2.409 . S
O109 C98 1.254 . S
O110 Tb81 2.378 . S
O110 C99 1.236 . S
O111 Tb80 2.341 . S
O111 C99 1.266 . S
H112 C84 0.929 . S
H113 C85 0.931 . S
H114 C87 0.930 . S
H115 C88 0.930 . S
H116 C93 0.929 . S
H117 C94 0.931 1_545 S
H118 C96 0.930 . S
H119 C97 0.930 . S
Tb120 C122 2.809 . S
Tb120 O140 2.484 . S
Tb120 O141 2.440 . S
Tb120 O142 2.658 . S
Tb120 O143 2.409 . S
Tb120 O144 2.378 . S
Tb120 O148 2.325 . S
Tb120 O151 2.341 . S
Tb121 C131 2.809 1_554 S
Tb121 O142 2.325 . S
Tb121 O145 2.341 . S
Tb121 O146 2.484 1_554 S
Tb121 O147 2.440 1_554 S
Tb121 O148 2.658 . S
Tb121 O149 2.409 . S
Tb121 O150 2.378 1_554 S
C122 Tb120 2.809 . S
C122 C123 1.514 . S
C122 O140 1.248 . S
C122 O141 1.266 . S
C123 C122 1.514 . S
C123 C124 1.359 . S
C123 C128 1.348 . S
C124 C123 1.359 . S
C124 C125 1.380 . S
C124 H152 0.929 . S
C125 C124 1.380 . S
C125 C126 1.347 . S
C125 H153 0.931 . S
C126 C125 1.347 . S
C126 C127 1.369 . S
C127 C126 1.369 . S
C127 C128 1.408 . S
C127 H154 0.930 . S
C128 C123 1.348 . S
C128 C127 1.408 . S
C128 H155 0.930 . S
C129 O142 1.281 . S
C129 O143 1.254 . S
C130 O144 1.236 . S
C130 O145 1.266 . S
C131 Tb121 2.809 1_556 S
C131 C132 1.514 . S
C131 O146 1.248 . S
C131 O147 1.266 . S
C132 C131 1.514 . S
C132 C133 1.359 . S
C132 C137 1.348 . S
C133 C132 1.359 . S
C133 C134 1.380 . S
C133 H156 0.929 . S
C134 C133 1.380 . S
C134 C135 1.347 . S
C134 H157 0.931 . S
C135 C134 1.347 . S
C135 C136 1.369 . S
C136 C135 1.369 . S
C136 C137 1.408 . S
C136 H158 0.930 . S
C137 C132 1.348 . S
C137 C136 1.408 . S
C137 H159 0.930 . S
C138 O148 1.281 . S
C138 O149 1.254 . S
C139 O150 1.236 . S
C139 O151 1.266 1_556 S
O140 Tb120 2.484 . S
O140 C122 1.248 . S
O141 Tb120 2.440 . S
O141 C122 1.266 . S
O142 Tb120 2.658 . S
O142 Tb121 2.325 . S
O142 C129 1.281 . S
O143 Tb120 2.409 . S
O143 C129 1.254 . S
O144 Tb120 2.378 . S
O144 C130 1.236 . S
O145 Tb121 2.341 . S
O145 C130 1.266 . S
O146 Tb121 2.484 1_556 S
O146 C131 1.248 . S
O147 Tb121 2.440 1_556 S
O147 C131 1.266 . S
O148 Tb120 2.325 . S
O148 Tb121 2.658 . S
O148 C138 1.281 . S
O149 Tb121 2.409 . S
O149 C138 1.254 . S
O150 Tb121 2.378 1_556 S
O150 C139 1.236 . S
O151 Tb120 2.341 . S
O151 C139 1.266 1_554 S
H152 C124 0.929 . S
H153 C125 0.931 . S
H154 C127 0.930 . S
H155 C128 0.930 . S
H156 C133 0.929 . S
H157 C134 0.931 . S
H158 C136 0.930 . S
H159 C137 0.930 . S
Tb160 C162 2.809 . S
Tb160 O180 2.484 . S
Tb160 O181 2.440 . S
Tb160 O182 2.658 . S
Tb160 O183 2.409 . S
Tb160 O184 2.378 . S
Tb160 O188 2.325 . S
Tb160 O191 2.341 . S
Tb161 C171 2.809 . S
Tb161 O182 2.325 . S
Tb161 O185 2.341 . S
Tb161 O186 2.484 . S
Tb161 O187 2.440 . S
Tb161 O188 2.658 . S
Tb161 O189 2.409 . S
Tb161 O190 2.378 . S
C162 Tb160 2.809 . S
C162 C163 1.514 . S
C162 O180 1.248 . S
C162 O181 1.266 . S
C163 C162 1.514 . S
C163 C164 1.359 . S
C163 C168 1.348 . S
C164 C163 1.359 . S
C164 C165 1.380 . S
C164 H192 0.929 . S
C165 C164 1.380 . S
C165 C166 1.347 . S
C165 H193 0.931 . S
C166 C165 1.347 . S
C166 C167 1.369 . S
C167 C166 1.369 . S
C167 C168 1.408 . S
C167 H194 0.930 . S
C168 C163 1.348 . S
C168 C167 1.408 . S
C168 H195 0.930 . S
C169 O182 1.281 . S
C169 O183 1.254 . S
C170 O184 1.236 . S
C170 O185 1.266 . S
C171 Tb161 2.809 . S
C171 C172 1.514 . S
C171 O186 1.248 . S
C171 O187 1.266 . S
C172 C171 1.514 . S
C172 C173 1.359 . S
C172 C177 1.348 . S
C173 C172 1.359 . S
C173 C174 1.380 . S
C173 H196 0.929 . S
C174 C173 1.380 . S
C174 C175 1.347 . S
C174 H197 0.931 1_455 S
C175 C174 1.347 . S
C175 C176 1.369 . S
C176 C175 1.369 . S
C176 C177 1.408 . S
C176 H198 0.930 . S
C177 C172 1.348 . S
C177 C176 1.408 . S
C177 H199 0.930 . S
C178 O188 1.281 . S
C178 O189 1.254 . S
C179 O190 1.236 . S
C179 O191 1.266 . S
O180 Tb160 2.484 . S
O180 C162 1.248 . S
O181 Tb160 2.440 . S
O181 C162 1.266 . S
O182 Tb160 2.658 . S
O182 Tb161 2.325 . S
O182 C169 1.281 . S
O183 Tb160 2.409 . S
O183 C169 1.254 . S
O184 Tb160 2.378 . S
O184 C170 1.236 . S
O185 Tb161 2.341 . S
O185 C170 1.266 . S
O186 Tb161 2.484 . S
O186 C171 1.248 . S
O187 Tb161 2.440 . S
O187 C171 1.266 . S
O188 Tb160 2.325 . S
O188 Tb161 2.658 . S
O188 C178 1.281 . S
O189 Tb161 2.409 . S
O189 C178 1.254 . S
O190 Tb161 2.378 . S
O190 C179 1.236 . S
O191 Tb160 2.341 . S
O191 C179 1.266 . S
H192 C164 0.929 . S
H193 C165 0.931 . S
H194 C167 0.930 . S
H195 C168 0.930 . S
H196 C173 0.929 . S
H197 C174 0.931 1_655 S
H198 C176 0.930 . S
H199 C177 0.930 . S
Tb200 C202 2.809 . S
Tb200 O220 2.484 . S
Tb200 O221 2.440 . S
Tb200 O222 2.658 . S
Tb200 O223 2.409 . S
Tb200 O224 2.378 . S
Tb200 O228 2.325 . S
Tb200 O231 2.341 . S
Tb201 C211 2.809 . S
Tb201 O222 2.325 . S
Tb201 O225 2.341 . S
Tb201 O226 2.484 . S
Tb201 O227 2.440 . S
Tb201 O228 2.658 . S
Tb201 O229 2.409 . S
Tb201 O230 2.378 . S
C202 Tb200 2.809 . S
C202 C203 1.514 . S
C202 O220 1.248 . S
C202 O221 1.266 . S
C203 C202 1.514 . S
C203 C204 1.359 . S
C203 C208 1.348 . S
C204 C203 1.359 . S
C204 C205 1.380 . S
C204 H232 0.929 . S
C205 C204 1.380 . S
C205 C206 1.347 . S
C205 H233 0.931 . S
C206 C205 1.347 . S
C206 C207 1.369 . S
C207 C206 1.369 . S
C207 C208 1.408 . S
C207 H234 0.930 . S
C208 C203 1.348 . S
C208 C207 1.408 . S
C208 H235 0.930 . S
C209 O222 1.281 . S
C209 O223 1.254 . S
C210 O224 1.236 . S
C210 O225 1.266 . S
C211 Tb201 2.809 . S
C211 C212 1.514 . S
C211 O226 1.248 . S
C211 O227 1.266 . S
C212 C211 1.514 . S
C212 C213 1.359 . S
C212 C217 1.348 . S
C213 C212 1.359 . S
C213 C214 1.380 . S
C213 H236 0.929 . S
C214 C213 1.380 . S
C214 C215 1.347 . S
C214 H237 0.931 1_545 S
C215 C214 1.347 . S
C215 C216 1.369 . S
C216 C215 1.369 . S
C216 C217 1.408 . S
C216 H238 0.930 . S
C217 C212 1.348 . S
C217 C216 1.408 . S
C217 H239 0.930 . S
C218 O228 1.281 . S
C218 O229 1.254 . S
C219 O230 1.236 . S
C219 O231 1.266 . S
O220 Tb200 2.484 . S
O220 C202 1.248 . S
O221 Tb200 2.440 . S
O221 C202 1.266 . S
O222 Tb200 2.658 . S
O222 Tb201 2.325 . S
O222 C209 1.281 . S
O223 Tb200 2.409 . S
O223 C209 1.254 . S
O224 Tb200 2.378 . S
O224 C210 1.236 . S
O225 Tb201 2.341 . S
O225 C210 1.266 . S
O226 Tb201 2.484 . S
O226 C211 1.248 . S
O227 Tb201 2.440 . S
O227 C211 1.266 . S
O228 Tb200 2.325 . S
O228 Tb201 2.658 . S
O228 C218 1.281 . S
O229 Tb201 2.409 . S
O229 C218 1.254 . S
O230 Tb201 2.378 . S
O230 C219 1.236 . S
O231 Tb200 2.341 . S
O231 C219 1.266 . S
H232 C204 0.929 . S
H233 C205 0.931 . S
H234 C207 0.930 . S
H235 C208 0.930 . S
H236 C213 0.929 . S
H237 C214 0.931 1_565 S
H238 C216 0.930 . S
H239 C217 0.930 . S
H240 C248 0.950 . S
H241 C253 0.950 . S
H242 C250 0.950 . S
H243 C252 0.950 . S
H244 C254 0.950 . S
H245 C256 0.950 . S
H246 C258 0.950 . S
H247 C259 0.950 . S
C248 H240 0.950 . S
C248 C249 1.386 . S
C248 C250 1.391 . S
C249 C248 1.386 . S
C249 C253 1.393 . S
C250 H242 0.950 . S
C250 C248 1.391 . S
C250 C251 1.400 . S
C251 C250 1.400 . S
C251 C252 1.398 . S
C251 C257 1.491 . S
C252 H243 0.950 . S
C252 C251 1.398 . S
C252 C253 1.391 . S
C253 H241 0.950 . S
C253 C249 1.393 . S
C253 C252 1.391 . S
C254 H244 0.950 . S
C254 C255 1.386 . S
C254 C256 1.391 . S
C255 C254 1.386 . S
C255 C259 1.393 . S
C256 H245 0.950 . S
C256 C254 1.391 . S
C256 C257 1.400 . S
C257 C251 1.491 . S
C257 C256 1.400 . S
C257 C258 1.398 . S
C258 H246 0.950 . S
C258 C257 1.398 . S
C258 C259 1.391 . S
C259 H247 0.950 . S
C259 C255 1.393 . S
C259 C258 1.391 . S
H260 C268 0.950 . S
H261 C273 0.950 . S
H262 C270 0.950 . S
H263 C272 0.950 . S
H264 C274 0.950 . S
H265 C276 0.950 . S
H266 C278 0.950 . S
H267 C279 0.950 . S
C268 H260 0.950 . S
C268 C269 1.386 . S
C268 C270 1.391 . S
C269 C268 1.386 . S
C269 C273 1.393 . S
C270 H262 0.950 . S
C270 C268 1.391 . S
C270 C271 1.400 . S
C271 C270 1.400 . S
C271 C272 1.398 . S
C271 C277 1.491 . S
C272 H263 0.950 . S
C272 C271 1.398 . S
C272 C273 1.391 . S
C273 H261 0.950 . S
C273 C269 1.393 . S
C273 C272 1.391 . S
C274 H264 0.950 . S
C274 C275 1.386 . S
C274 C276 1.391 . S
C275 C274 1.386 . S
C275 C279 1.393 . S
C276 H265 0.950 . S
C276 C274 1.391 . S
C276 C277 1.400 . S
C277 C271 1.491 . S
C277 C276 1.400 . S
C277 C278 1.398 . S
C278 H266 0.950 . S
C278 C277 1.398 . S
C278 C279 1.391 . S
C279 H267 0.950 . S
C279 C275 1.393 . S
C279 C278 1.391 . S
H280 C288 0.950 . S
H281 C293 0.950 . S
H282 C290 0.950 . S
H283 C292 0.950 . S
H284 C294 0.950 . S
H285 C296 0.950 . S
H286 C298 0.950 . S
H287 C299 0.950 . S
C288 H280 0.950 . S
C288 C289 1.386 . S
C288 C290 1.391 . S
C289 C288 1.386 . S
C289 C293 1.393 . S
C290 H282 0.950 . S
C290 C288 1.391 . S
C290 C291 1.400 . S
C291 C290 1.400 . S
C291 C292 1.398 . S
C291 C297 1.491 . S
C292 H283 0.950 . S
C292 C291 1.398 . S
C292 C293 1.391 . S
C293 H281 0.950 . S
C293 C289 1.393 . S
C293 C292 1.391 . S
C294 H284 0.950 . S
C294 C295 1.386 . S
C294 C296 1.391 . S
C295 C294 1.386 . S
C295 C299 1.393 . S
C296 H285 0.950 . S
C296 C294 1.391 . S
C296 C297 1.400 . S
C297 C291 1.491 . S
C297 C296 1.400 . S
C297 C298 1.398 . S
C298 H286 0.950 . S
C298 C297 1.398 . S
C298 C299 1.391 . S
C299 H287 0.950 . S
C299 C295 1.393 . S
C299 C298 1.391 . S
H300 C308 0.950 . S
H301 C313 0.950 . S
H302 C310 0.950 . S
H303 C312 0.950 . S
H304 C314 0.950 . S
H305 C316 0.950 . S
H306 C318 0.950 . S
H307 C319 0.950 . S
C308 H300 0.950 . S
C308 C309 1.386 . S
C308 C310 1.391 . S
C309 C308 1.386 . S
C309 C313 1.393 . S
C310 H302 0.950 . S
C310 C308 1.391 . S
C310 C311 1.400 . S
C311 C310 1.400 . S
C311 C312 1.398 . S
C311 C317 1.491 . S
C312 H303 0.950 . S
C312 C311 1.398 . S
C312 C313 1.391 . S
C313 H301 0.950 . S
C313 C309 1.393 . S
C313 C312 1.391 . S
C314 H304 0.950 . S
C314 C315 1.386 . S
C314 C316 1.391 . S
C315 C314 1.386 . S
C315 C319 1.393 . S
C316 H305 0.950 . S
C316 C314 1.391 . S
C316 C317 1.400 . S
C317 C311 1.491 . S
C317 C316 1.400 . S
C317 C318 1.398 . S
C318 H306 0.950 . S
C318 C317 1.398 . S
C318 C319 1.391 . S
C319 H307 0.950 . S
C319 C315 1.393 . S
C319 C318 1.391 . S
H320 C328 0.950 . S
H321 C333 0.950 . S
H322 C330 0.950 . S
H323 C332 0.950 . S
H324 C334 0.950 . S
H325 C336 0.950 . S
H326 C338 0.950 . S
H327 C339 0.950 . S
C328 H320 0.950 . S
C328 C329 1.386 . S
C328 C330 1.391 . S
C329 C328 1.386 . S
C329 C333 1.393 . S
C330 H322 0.950 . S
C330 C328 1.391 . S
C330 C331 1.400 . S
C331 C330 1.400 . S
C331 C332 1.398 . S
C331 C337 1.491 . S
C332 H323 0.950 . S
C332 C331 1.398 . S
C332 C333 1.391 . S
C333 H321 0.950 . S
C333 C329 1.393 . S
C333 C332 1.391 . S
C334 H324 0.950 . S
C334 C335 1.386 . S
C334 C336 1.391 . S
C335 C334 1.386 . S
C335 C339 1.393 . S
C336 H325 0.950 . S
C336 C334 1.391 . S
C336 C337 1.400 . S
C337 C331 1.491 . S
C337 C336 1.400 . S
C337 C338 1.398 . S
C338 H326 0.950 . S
C338 C337 1.398 . S
C338 C339 1.391 . S
C339 H327 0.950 . S
C339 C335 1.393 . S
C339 C338 1.391 . S
H340 C348 0.950 . S
H341 C353 0.950 . S
H342 C350 0.950 . S
H343 C352 0.950 . S
H344 C354 0.950 . S
H345 C356 0.950 . S
H346 C358 0.950 . S
H347 C359 0.950 . S
C348 H340 0.950 . S
C348 C349 1.386 . S
C348 C350 1.391 . S
C349 C348 1.386 . S
C349 C353 1.393 . S
C350 H342 0.950 . S
C350 C348 1.391 . S
C350 C351 1.400 . S
C351 C350 1.400 . S
C351 C352 1.398 . S
C351 C357 1.491 . S
C352 H343 0.950 . S
C352 C351 1.398 . S
C352 C353 1.391 . S
C353 H341 0.950 . S
C353 C349 1.393 . S
C353 C352 1.391 . S
C354 H344 0.950 . S
C354 C355 1.386 . S
C354 C356 1.391 . S
C355 C354 1.386 . S
C355 C359 1.393 . S
C356 H345 0.950 . S
C356 C354 1.391 . S
C356 C357 1.400 . S
C357 C351 1.491 . S
C357 C356 1.400 . S
C357 C358 1.398 . S
C358 H346 0.950 . S
C358 C357 1.398 . S
C358 C359 1.391 . S
C359 H347 0.950 . S
C359 C355 1.393 . S
C359 C358 1.391 . S
H360 C368 0.950 . S
H361 C373 0.950 . S
H362 C370 0.950 . S
H363 C372 0.950 . S
H364 C374 0.950 . S
H365 C376 0.950 . S
H366 C378 0.950 . S
H367 C379 0.950 . S
C368 H360 0.950 . S
C368 C369 1.386 . S
C368 C370 1.391 . S
C369 C368 1.386 . S
C369 C373 1.393 . S
C370 H362 0.950 . S
C370 C368 1.391 . S
C370 C371 1.400 . S
C371 C370 1.400 . S
C371 C372 1.398 . S
C371 C377 1.491 . S
C372 H363 0.950 . S
C372 C371 1.398 . S
C372 C373 1.391 . S
C373 H361 0.950 . S
C373 C369 1.393 . S
C373 C372 1.391 . S
C374 H364 0.950 . S
C374 C375 1.386 . S
C374 C376 1.391 . S
C375 C374 1.386 . S
C375 C379 1.393 . S
C376 H365 0.950 . S
C376 C374 1.391 . S
C376 C377 1.400 . S
C377 C371 1.491 . S
C377 C376 1.400 . S
C377 C378 1.398 . S
C378 H366 0.950 . S
C378 C377 1.398 . S
C378 C379 1.391 . S
C379 H367 0.950 . S
C379 C375 1.393 . S
C379 C378 1.391 . S
H380 C388 0.950 . S
H381 C393 0.950 1_655 S
H382 C390 0.950 . S
H383 C392 0.950 . S
H384 C394 0.950 . S
H385 C396 0.950 . S
H386 C398 0.950 . S
H387 C399 0.950 1_455 S
C388 H380 0.950 . S
C388 C389 1.386 . S
C388 C390 1.391 . S
C389 C388 1.386 . S
C389 C393 1.393 . S
C390 H382 0.950 . S
C390 C388 1.391 . S
C390 C391 1.400 . S
C391 C390 1.400 . S
C391 C392 1.398 1_455 S
C391 C397 1.491 1_455 S
C392 H383 0.950 . S
C392 C391 1.398 1_655 S
C392 C393 1.391 1_655 S
C393 H381 0.950 1_455 S
C393 C389 1.393 . S
C393 C392 1.391 1_455 S
C394 H384 0.950 . S
C394 C395 1.386 . S
C394 C396 1.391 . S
C395 C394 1.386 . S
C395 C399 1.393 . S
C396 H385 0.950 . S
C396 C394 1.391 . S
C396 C397 1.400 . S
C397 C391 1.491 1_655 S
C397 C396 1.400 . S
C397 C398 1.398 1_655 S
C398 H386 0.950 . S
C398 C397 1.398 1_455 S
C398 C399 1.391 1_455 S
C399 H387 0.950 1_655 S
C399 C395 1.393 . S
C399 C398 1.391 1_655 S
H400 C408 0.950 1_565 S
H401 C413 0.950 . S
H402 C410 0.950 . S
H403 C412 0.950 . S
H404 C414 0.950 1_545 S
H405 C416 0.950 . S
H406 C418 0.950 . S
H407 C419 0.950 . S
C408 H400 0.950 1_545 S
C408 C409 1.386 . S
C408 C410 1.391 1_545 S
C409 C408 1.386 . S
C409 C413 1.393 . S
C410 H402 0.950 . S
C410 C408 1.391 1_565 S
C410 C411 1.400 1_565 S
C411 C410 1.400 1_545 S
C411 C412 1.398 . S
C411 C417 1.491 1_545 S
C412 H403 0.950 . S
C412 C411 1.398 . S
C412 C413 1.391 . S
C413 H401 0.950 . S
C413 C409 1.393 . S
C413 C412 1.391 . S
C414 H404 0.950 1_565 S
C414 C415 1.386 . S
C414 C416 1.391 1_565 S
C415 C414 1.386 . S
C415 C419 1.393 . S
C416 H405 0.950 . S
C416 C414 1.391 1_545 S
C416 C417 1.400 1_545 S
C417 C411 1.491 1_565 S
C417 C416 1.400 1_565 S
C417 C418 1.398 . S
C418 H406 0.950 . S
C418 C417 1.398 . S
C418 C419 1.391 . S
C419 H407 0.950 . S
C419 C415 1.393 . S
C419 C418 1.391 . S
H420 C428 0.950 . S
H421 C433 0.950 . S
H422 C430 0.950 . S
H423 C432 0.950 . S
H424 C434 0.950 . S
H425 C436 0.950 . S
H426 C438 0.950 . S
H427 C439 0.950 . S
C428 H420 0.950 . S
C428 C429 1.386 . S
C428 C430 1.391 . S
C429 C428 1.386 . S
C429 C433 1.393 . S
C430 H422 0.950 . S
C430 C428 1.391 . S
C430 C431 1.400 . S
C431 C430 1.400 . S
C431 C432 1.398 . S
C431 C437 1.491 . S
C432 H423 0.950 . S
C432 C431 1.398 . S
C432 C433 1.391 . S
C433 H421 0.950 . S
C433 C429 1.393 . S
C433 C432 1.391 . S
C434 H424 0.950 . S
C434 C435 1.386 . S
C434 C436 1.391 . S
C435 C434 1.386 . S
C435 C439 1.393 . S
C436 H425 0.950 . S
C436 C434 1.391 . S
C436 C437 1.400 . S
C437 C431 1.491 . S
C437 C436 1.400 . S
C437 C438 1.398 . S
C438 H426 0.950 . S
C438 C437 1.398 . S
C438 C439 1.391 . S
C439 H427 0.950 . S
C439 C435 1.393 . S
C439 C438 1.391 . S
H440 C448 0.950 . S
H441 C453 0.950 . S
H442 C450 0.950 . S
H443 C452 0.950 . S
H444 C454 0.950 . S
H445 C456 0.950 . S
H446 C458 0.950 . S
H447 C459 0.950 . S
C448 H440 0.950 . S
C448 C449 1.386 . S
C448 C450 1.391 1_455 S
C449 C448 1.386 . S
C449 C453 1.393 . S
C450 H442 0.950 . S
C450 C448 1.391 1_655 S
C450 C451 1.400 1_655 S
C451 C450 1.400 1_455 S
C451 C452 1.398 . S
C451 C457 1.491 1_455 S
C452 H443 0.950 . S
C452 C451 1.398 . S
C452 C453 1.391 . S
C453 H441 0.950 . S
C453 C449 1.393 . S
C453 C452 1.391 . S
C454 H444 0.950 . S
C454 C455 1.386 . S
C454 C456 1.391 1_655 S
C455 C454 1.386 . S
C455 C459 1.393 . S
C456 H445 0.950 . S
C456 C454 1.391 1_455 S
C456 C457 1.400 1_455 S
C457 C451 1.491 1_655 S
C457 C456 1.400 1_655 S
C457 C458 1.398 . S
C458 H446 0.950 . S
C458 C457 1.398 . S
C458 C459 1.391 . S
C459 H447 0.950 . S
C459 C455 1.393 . S
C459 C458 1.391 . S
H460 C468 0.950 . S
H461 C473 0.950 1_545 S
H462 C470 0.950 . S
H463 C472 0.950 . S
H464 C474 0.950 . S
H465 C476 0.950 . S
H466 C478 0.950 . S
H467 C479 0.950 1_565 S
C468 H460 0.950 . S
C468 C469 1.386 . S
C468 C470 1.391 . S
C469 C468 1.386 . S
C469 C473 1.393 . S
C470 H462 0.950 . S
C470 C468 1.391 . S
C470 C471 1.400 . S
C471 C470 1.400 . S
C471 C472 1.398 1_565 S
C471 C477 1.491 1_565 S
C472 H463 0.950 . S
C472 C471 1.398 1_545 S
C472 C473 1.391 1_545 S
C473 H461 0.950 1_565 S
C473 C469 1.393 . S
C473 C472 1.391 1_565 S
C474 H464 0.950 . S
C474 C475 1.386 . S
C474 C476 1.391 . S
C475 C474 1.386 . S
C475 C479 1.393 . S
C476 H465 0.950 . S
C476 C474 1.391 . S
C476 C477 1.400 . S
C477 C471 1.491 1_545 S
C477 C476 1.400 . S
C477 C478 1.398 1_545 S
C478 H466 0.950 . S
C478 C477 1.398 1_565 S
C478 C479 1.391 1_565 S
C479 H467 0.950 1_545 S
C479 C475 1.393 . S
C479 C478 1.391 1_545 S
H480 C488 0.950 . S
H481 C493 0.950 . S
H482 C490 0.950 . S
H483 C492 0.950 . S
H484 C494 0.950 . S
H485 C496 0.950 . S
H486 C498 0.950 . S
H487 C499 0.950 . S
C488 H480 0.950 . S
C488 C489 1.386 . S
C488 C490 1.391 . S
C489 C488 1.386 . S
C489 C493 1.393 . S
C490 H482 0.950 . S
C490 C488 1.391 . S
C490 C491 1.400 . S
C491 C490 1.400 . S
C491 C492 1.398 . S
C491 C497 1.491 . S
C492 H483 0.950 . S
C492 C491 1.398 . S
C492 C493 1.391 . S
C493 H481 0.950 . S
C493 C489 1.393 . S
C493 C492 1.391 . S
C494 H484 0.950 . S
C494 C495 1.386 . S
C494 C496 1.391 . S
C495 C494 1.386 . S
C495 C499 1.393 . S
C496 H485 0.950 . S
C496 C494 1.391 . S
C496 C497 1.400 . S
C497 C491 1.491 . S
C497 C496 1.400 . S
C497 C498 1.398 . S
C498 H486 0.950 . S
C498 C497 1.398 . S
C498 C499 1.391 . S
C499 H487 0.950 . S
C499 C495 1.393 . S
C499 C498 1.391 . S
H500 C508 0.950 . S
H501 C513 0.950 . S
H502 C510 0.954 . S
H503 C512 0.950 . S
H504 C514 0.950 . S
H505 C516 0.950 . S
H506 C518 0.950 . S
H507 C519 0.950 . S
C508 H500 0.950 . S
C508 C509 1.386 . S
C508 C510 1.393 . S
C509 C508 1.386 . S
C509 C513 1.393 1_655 S
C510 H502 0.954 . S
C510 C508 1.393 . S
C510 C511 1.394 1_655 S
C511 C510 1.394 1_455 S
C511 C512 1.398 . S
C511 C517 1.491 . S
C512 H503 0.950 . S
C512 C511 1.398 . S
C512 C513 1.391 . S
C513 H501 0.950 . S
C513 C509 1.393 1_455 S
C513 C512 1.391 . S
C514 H504 0.950 . S
C514 C515 1.386 . S
C514 C516 1.391 . S
C515 C514 1.386 . S
C515 C519 1.393 . S
C516 H505 0.950 . S
C516 C514 1.391 . S
C516 C517 1.400 . S
C517 C511 1.491 . S
C517 C516 1.400 . S
C517 C518 1.398 . S
C518 H506 0.950 . S
C518 C517 1.398 . S
C518 C519 1.391 . S
C519 H507 0.950 . S
C519 C515 1.393 . S
C519 C518 1.391 . S
H520 C528 0.950 . S
H521 C533 0.950 . S
H522 C530 0.950 . S
H523 C532 0.950 . S
H524 C534 0.950 . S
H525 C536 0.950 . S
H526 C538 0.950 . S
H527 C539 0.950 . S
C528 H520 0.950 . S
C528 C529 1.386 1_545 S
C528 C530 1.391 . S
C529 C528 1.386 1_565 S
C529 C533 1.393 . S
C530 H522 0.950 . S
C530 C528 1.391 . S
C530 C531 1.400 . S
C531 C530 1.400 . S
C531 C532 1.398 1_545 S
C531 C537 1.491 . S
C532 H523 0.950 . S
C532 C531 1.398 1_565 S
C532 C533 1.391 . S
C533 H521 0.950 . S
C533 C529 1.393 . S
C533 C532 1.391 . S
C534 H524 0.950 . S
C534 C535 1.386 . S
C534 C536 1.391 . S
C535 C534 1.386 . S
C535 C539 1.393 . S
C536 H525 0.950 . S
C536 C534 1.391 . S
C536 C537 1.400 . S
C537 C531 1.491 . S
C537 C536 1.400 . S
C537 C538 1.398 . S
C538 H526 0.950 . S
C538 C537 1.398 . S
C538 C539 1.391 . S
C539 H527 0.950 . S
C539 C535 1.393 . S
C539 C538 1.391 . S
H540 C548 0.950 . S
H541 C553 0.950 . S
H542 C550 0.950 . S
H543 C552 0.950 . S
H544 C554 0.950 . S
H545 C556 0.950 . S
H546 C558 0.950 . S
H547 C559 0.950 . S
C548 H540 0.950 . S
C548 C549 1.386 . S
C548 C550 1.391 . S
C549 C548 1.386 . S
C549 C553 1.393 . S
C550 H542 0.950 . S
C550 C548 1.391 . S
C550 C551 1.400 . S
C551 C550 1.400 . S
C551 C552 1.398 . S
C551 C557 1.491 . S
C552 H543 0.950 . S
C552 C551 1.398 . S
C552 C553 1.391 . S
C553 H541 0.950 . S
C553 C549 1.393 . S
C553 C552 1.391 . S
C554 H544 0.950 . S
C554 C555 1.386 . S
C554 C556 1.391 . S
C555 C554 1.386 . S
C555 C559 1.393 . S
C556 H545 0.950 . S
C556 C554 1.391 . S
C556 C557 1.400 . S
C557 C551 1.491 . S
C557 C556 1.400 . S
C557 C558 1.398 . S
C558 H546 0.950 . S
C558 C557 1.398 . S
C558 C559 1.391 . S
C559 H547 0.950 . S
C559 C555 1.393 . S
C559 C558 1.391 . S
H560 C568 0.950 . S
H561 C573 0.950 . S
H562 C570 0.950 . S
H563 C572 0.950 . S
H564 C574 0.950 . S
H565 C576 0.950 . S
H566 C578 0.950 . S
H567 C579 0.950 . S
C568 H560 0.950 . S
C568 C569 1.386 1_655 S
C568 C570 1.391 . S
C569 C568 1.386 1_455 S
C569 C573 1.393 . S
C570 H562 0.950 . S
C570 C568 1.391 . S
C570 C571 1.400 . S
C571 C570 1.400 . S
C571 C572 1.398 1_655 S
C571 C577 1.491 . S
C572 H563 0.950 . S
C572 C571 1.398 1_455 S
C572 C573 1.391 . S
C573 H561 0.950 . S
C573 C569 1.393 . S
C573 C572 1.391 . S
C574 H564 0.950 . S
C574 C575 1.386 . S
C574 C576 1.391 . S
C575 C574 1.386 . S
C575 C579 1.393 . S
C576 H565 0.950 . S
C576 C574 1.391 . S
C576 C577 1.400 . S
C577 C571 1.491 . S
C577 C576 1.400 . S
C577 C578 1.398 . S
C578 H566 0.950 . S
C578 C577 1.398 . S
C578 C579 1.391 . S
C579 H567 0.950 . S
C579 C575 1.393 . S
C579 C578 1.391 . S
H580 C588 0.950 . S
H581 C593 0.950 . S
H582 C590 0.950 . S
H583 C592 0.950 . S
H584 C594 0.950 . S
H585 C596 0.950 . S
H586 C598 0.950 . S
H587 C599 0.950 . S
C588 H580 0.950 . S
C588 C589 1.386 . S
C588 C590 1.391 . S
C589 C588 1.386 . S
C589 C593 1.393 1_545 S
C590 H582 0.950 . S
C590 C588 1.391 . S
C590 C591 1.400 1_545 S
C591 C590 1.400 1_565 S
C591 C592 1.398 . S
C591 C597 1.491 . S
C592 H583 0.950 . S
C592 C591 1.398 . S
C592 C593 1.391 . S
C593 H581 0.950 . S
C593 C589 1.393 1_565 S
C593 C592 1.391 . S
C594 H584 0.950 . S
C594 C595 1.386 . S
C594 C596 1.391 . S
C595 C594 1.386 . S
C595 C599 1.393 . S
C596 H585 0.950 . S
C596 C594 1.391 . S
C596 C597 1.400 . S
C597 C591 1.491 . S
C597 C596 1.400 . S
C597 C598 1.398 . S
C598 H586 0.950 . S
C598 C597 1.398 . S
C598 C599 1.391 . S
C599 H587 0.950 . S
C599 C595 1.393 . S
C599 C598 1.391 . S
C249 C179 1.183 . S
C255 C6 1.192 . S
C269 C219 1.184 . S
C275 C46 1.193 . S
C289 C19 1.192 . S
C295 C86 1.193 . S
C309 C59 1.191 . S
C315 C126 1.190 . S
C329 C99 1.185 . S
C335 C166 1.193 . S
C349 C139 1.185 . S
C355 C206 1.191 . S
C369 C9 0.770 . S
C375 C129 0.770 . S
C389 C169 0.794 . S
C395 C49 0.796 . S
C409 C209 0.827 . S
C415 C89 0.825 . S
C429 C98 0.922 . S
C435 C218 0.922 . S
C449 C18 0.925 . S
C455 C138 0.923 . S
C469 C178 0.923 . S
C475 C58 0.926 . S
C489 C210 1.256 . S
C495 C15 1.239 . S
C509 C55 1.234 . S
C515 C10 1.261 . S
C529 C95 1.251 . S
C535 C50 1.259 . S
C549 C90 1.261 . S
C555 C135 1.234 . S
C569 C175 1.250 . S
C575 C130 1.259 . S
C589 C215 1.232 . S
C595 C170 1.260 . S
