# Generated by pormake.
# Topology uox, (4)-cn, num edge types: 1
# Building blocks:
#     Node 0, Type 0, BuildingBlock: GALJAG_clean_sbu_0, # of connection points: 4
#     Node 1, Type 0, BuildingBlock: GALJAG_clean_sbu_0, # of connection points: 4
#     Node 2, Type 0, BuildingBlock: GALJAG_clean_sbu_0, # of connection points: 4
#     Node 3, Type 0, BuildingBlock: GALJAG_clean_sbu_0, # of connection points: 4
#     Node 4, Type 0, BuildingBlock: GALJAG_clean_sbu_0, # of connection points: 4
#     Node 5, Type 0, BuildingBlock: GALJAG_clean_sbu_0, # of connection points: 4
#     Node 6, Type 0, BuildingBlock: GALJAG_clean_sbu_0, # of connection points: 4
#     Node 7, Type 0, BuildingBlock: GALJAG_clean_sbu_0, # of connection points: 4
#     Node 8, Type 0, BuildingBlock: GALJAG_clean_sbu_0, # of connection points: 4
#     Node 9, Type 0, BuildingBlock: GALJAG_clean_sbu_0, # of connection points: 4
#     Node 10, Type 0, BuildingBlock: GALJAG_clean_sbu_0, # of connection points: 4
#     Node 11, Type 0, BuildingBlock: GALJAG_clean_sbu_0, # of connection points: 4
#     Node 12, Type 0, BuildingBlock: GALJAG_clean_sbu_0, # of connection points: 4
#     Node 13, Type 0, BuildingBlock: GALJAG_clean_sbu_0, # of connection points: 4
#     Node 14, Type 0, BuildingBlock: GALJAG_clean_sbu_0, # of connection points: 4
#     Node 15, Type 0, BuildingBlock: GALJAG_clean_sbu_0, # of connection points: 4
#     Node 16, Type 0, BuildingBlock: GALJAG_clean_sbu_0, # of connection points: 4
#     Node 17, Type 0, BuildingBlock: GALJAG_clean_sbu_0, # of connection points: 4
#     Node 18, Type 0, BuildingBlock: GALJAG_clean_sbu_0, # of connection points: 4
#     Node 19, Type 0, BuildingBlock: GALJAG_clean_sbu_0, # of connection points: 4
#     Node 20, Type 0, BuildingBlock: GALJAG_clean_sbu_0, # of connection points: 4
#     Node 21, Type 0, BuildingBlock: GALJAG_clean_sbu_0, # of connection points: 4
#     Node 22, Type 0, BuildingBlock: GALJAG_clean_sbu_0, # of connection points: 4
#     Node 23, Type 0, BuildingBlock: GALJAG_clean_sbu_0, # of connection points: 4
#     Node 24, Type 0, BuildingBlock: GALJAG_clean_sbu_0, # of connection points: 4
#     Node 25, Type 0, BuildingBlock: GALJAG_clean_sbu_0, # of connection points: 4
#     Node 26, Type 0, BuildingBlock: GALJAG_clean_sbu_0, # of connection points: 4
#     Node 27, Type 0, BuildingBlock: GALJAG_clean_sbu_0, # of connection points: 4
#     Node 28, Type 0, BuildingBlock: GALJAG_clean_sbu_0, # of connection points: 4
#     Node 29, Type 0, BuildingBlock: GALJAG_clean_sbu_0, # of connection points: 4
#     Node 30, Type 0, BuildingBlock: GALJAG_clean_sbu_0, # of connection points: 4
#     Node 31, Type 0, BuildingBlock: GALJAG_clean_sbu_0, # of connection points: 4
#     Edge 32, Type (0, 0), BuildingBlock: MIFKUJ_clean_linker_0, # of connection points: 2
#     Edge 33, Type (0, 0), BuildingBlock: MIFKUJ_clean_linker_0, # of connection points: 2
#     Edge 34, Type (0, 0), BuildingBlock: MIFKUJ_clean_linker_0, # of connection points: 2
#     Edge 35, Type (0, 0), BuildingBlock: MIFKUJ_clean_linker_0, # of connection points: 2
#     Edge 36, Type (0, 0), BuildingBlock: MIFKUJ_clean_linker_0, # of connection points: 2
#     Edge 37, Type (0, 0), BuildingBlock: MIFKUJ_clean_linker_0, # of connection points: 2
#     Edge 38, Type (0, 0), BuildingBlock: MIFKUJ_clean_linker_0, # of connection points: 2
#     Edge 39, Type (0, 0), BuildingBlock: MIFKUJ_clean_linker_0, # of connection points: 2
#     Edge 40, Type (0, 0), BuildingBlock: MIFKUJ_clean_linker_0, # of connection points: 2
#     Edge 41, Type (0, 0), BuildingBlock: MIFKUJ_clean_linker_0, # of connection points: 2
#     Edge 42, Type (0, 0), BuildingBlock: MIFKUJ_clean_linker_0, # of connection points: 2
#     Edge 43, Type (0, 0), BuildingBlock: MIFKUJ_clean_linker_0, # of connection points: 2
#     Edge 44, Type (0, 0), BuildingBlock: MIFKUJ_clean_linker_0, # of connection points: 2
#     Edge 45, Type (0, 0), BuildingBlock: MIFKUJ_clean_linker_0, # of connection points: 2
#     Edge 46, Type (0, 0), BuildingBlock: MIFKUJ_clean_linker_0, # of connection points: 2
#     Edge 47, Type (0, 0), BuildingBlock: MIFKUJ_clean_linker_0, # of connection points: 2
#     Edge 48, Type (0, 0), BuildingBlock: MIFKUJ_clean_linker_0, # of connection points: 2
#     Edge 49, Type (0, 0), BuildingBlock: MIFKUJ_clean_linker_0, # of connection points: 2
#     Edge 50, Type (0, 0), BuildingBlock: MIFKUJ_clean_linker_0, # of connection points: 2
#     Edge 51, Type (0, 0), BuildingBlock: MIFKUJ_clean_linker_0, # of connection points: 2
#     Edge 52, Type (0, 0), BuildingBlock: MIFKUJ_clean_linker_0, # of connection points: 2
#     Edge 53, Type (0, 0), BuildingBlock: MIFKUJ_clean_linker_0, # of connection points: 2
#     Edge 54, Type (0, 0), BuildingBlock: MIFKUJ_clean_linker_0, # of connection points: 2
#     Edge 55, Type (0, 0), BuildingBlock: MIFKUJ_clean_linker_0, # of connection points: 2
#     Edge 56, Type (0, 0), BuildingBlock: MIFKUJ_clean_linker_0, # of connection points: 2
#     Edge 57, Type (0, 0), BuildingBlock: MIFKUJ_clean_linker_0, # of connection points: 2
#     Edge 58, Type (0, 0), BuildingBlock: MIFKUJ_clean_linker_0, # of connection points: 2
#     Edge 59, Type (0, 0), BuildingBlock: MIFKUJ_clean_linker_0, # of connection points: 2
#     Edge 60, Type (0, 0), BuildingBlock: MIFKUJ_clean_linker_0, # of connection points: 2
#     Edge 61, Type (0, 0), BuildingBlock: MIFKUJ_clean_linker_0, # of connection points: 2
#     Edge 62, Type (0, 0), BuildingBlock: MIFKUJ_clean_linker_0, # of connection points: 2
#     Edge 63, Type (0, 0), BuildingBlock: MIFKUJ_clean_linker_0, # of connection points: 2
#     Edge 64, Type (0, 0), BuildingBlock: MIFKUJ_clean_linker_0, # of connection points: 2
#     Edge 65, Type (0, 0), BuildingBlock: MIFKUJ_clean_linker_0, # of connection points: 2
#     Edge 66, Type (0, 0), BuildingBlock: MIFKUJ_clean_linker_0, # of connection points: 2
#     Edge 67, Type (0, 0), BuildingBlock: MIFKUJ_clean_linker_0, # of connection points: 2
#     Edge 68, Type (0, 0), BuildingBlock: MIFKUJ_clean_linker_0, # of connection points: 2
#     Edge 69, Type (0, 0), BuildingBlock: MIFKUJ_clean_linker_0, # of connection points: 2
#     Edge 70, Type (0, 0), BuildingBlock: MIFKUJ_clean_linker_0, # of connection points: 2
#     Edge 71, Type (0, 0), BuildingBlock: MIFKUJ_clean_linker_0, # of connection points: 2
#     Edge 72, Type (0, 0), BuildingBlock: MIFKUJ_clean_linker_0, # of connection points: 2
#     Edge 73, Type (0, 0), BuildingBlock: MIFKUJ_clean_linker_0, # of connection points: 2
#     Edge 74, Type (0, 0), BuildingBlock: MIFKUJ_clean_linker_0, # of connection points: 2
#     Edge 75, Type (0, 0), BuildingBlock: MIFKUJ_clean_linker_0, # of connection points: 2
#     Edge 76, Type (0, 0), BuildingBlock: MIFKUJ_clean_linker_0, # of connection points: 2
#     Edge 77, Type (0, 0), BuildingBlock: MIFKUJ_clean_linker_0, # of connection points: 2
#     Edge 78, Type (0, 0), BuildingBlock: MIFKUJ_clean_linker_0, # of connection points: 2
#     Edge 79, Type (0, 0), BuildingBlock: MIFKUJ_clean_linker_0, # of connection points: 2
#     Edge 80, Type (0, 0), BuildingBlock: MIFKUJ_clean_linker_0, # of connection points: 2
#     Edge 81, Type (0, 0), BuildingBlock: MIFKUJ_clean_linker_0, # of connection points: 2
#     Edge 82, Type (0, 0), BuildingBlock: MIFKUJ_clean_linker_0, # of connection points: 2
#     Edge 83, Type (0, 0), BuildingBlock: MIFKUJ_clean_linker_0, # of connection points: 2
#     Edge 84, Type (0, 0), BuildingBlock: MIFKUJ_clean_linker_0, # of connection points: 2
#     Edge 85, Type (0, 0), BuildingBlock: MIFKUJ_clean_linker_0, # of connection points: 2
#     Edge 86, Type (0, 0), BuildingBlock: MIFKUJ_clean_linker_0, # of connection points: 2
#     Edge 87, Type (0, 0), BuildingBlock: MIFKUJ_clean_linker_0, # of connection points: 2
#     Edge 88, Type (0, 0), BuildingBlock: MIFKUJ_clean_linker_0, # of connection points: 2
#     Edge 89, Type (0, 0), BuildingBlock: MIFKUJ_clean_linker_0, # of connection points: 2
#     Edge 90, Type (0, 0), BuildingBlock: MIFKUJ_clean_linker_0, # of connection points: 2
#     Edge 91, Type (0, 0), BuildingBlock: MIFKUJ_clean_linker_0, # of connection points: 2
#     Edge 92, Type (0, 0), BuildingBlock: MIFKUJ_clean_linker_0, # of connection points: 2
#     Edge 93, Type (0, 0), BuildingBlock: MIFKUJ_clean_linker_0, # of connection points: 2
#     Edge 94, Type (0, 0), BuildingBlock: MIFKUJ_clean_linker_0, # of connection points: 2
#     Edge 95, Type (0, 0), BuildingBlock: MIFKUJ_clean_linker_0, # of connection points: 2
# Relax obj value: 0.005
# Max RMSD: 0.035
# Mean RMSD: 0.035
data_MOF--net-uox--node1-GALJAG_clean_sbu_0--edge1-MIFKUJ_clean_linker_0
_symmetry_space_group_name_H-M    P1
_symmetry_Int_Tables_number       1
_symmetry_cell_setting            triclinic
loop_
_symmetry_equiv_pos_as_xyz
'x, y, z'
_cell_length_a     62.989851
_cell_length_b     63.004048
_cell_length_c     93.975404
_cell_angle_alpha  89.998468
_cell_angle_beta   90.00692
_cell_angle_gamma 89.994983
loop_
_atom_site_label
_atom_site_type_symbol
_atom_site_fract_x
_atom_site_fract_y
_atom_site_fract_z
_atom_type_partial_charge
In0 In 0.39592 0.06584 0.15568 0.0
O1 O 0.38338 0.04149 0.13976 0.0
O2 O 0.36346 0.05025 0.15709 0.0
C3 C 0.43647 0.07036 0.14682 0.0
C4 C 0.40225 0.04828 0.18148 0.0
C5 C 0.37865 0.10385 0.14897 0.0
O6 O 0.42344 0.05839 0.14051 0.0
O7 O 0.42908 0.0798 0.15755 0.0
O8 O 0.38075 0.09774 0.16168 0.0
O9 O 0.38507 0.09078 0.13978 0.0
C10 C 0.36587 0.039 0.1461 0.0
O11 O 0.39679 0.06746 0.17997 0.0
O12 O 0.40476 0.03817 0.17001 0.0
In13 In 0.18118 0.14226 0.40742 0.0
O14 O 0.18068 0.1402 0.43166 0.0
O15 O 0.20827 0.15295 0.42177 0.0
C16 C 0.14266 0.12523 0.40173 0.0
C17 C 0.20801 0.11212 0.398 0.0
C18 C 0.17687 0.18238 0.39753 0.0
O19 O 0.14732 0.13283 0.41374 0.0
O20 O 0.15745 0.12596 0.39272 0.0
O21 O 0.18888 0.169 0.39161 0.0
O22 O 0.16732 0.17554 0.40837 0.0
C23 C 0.19908 0.14784 0.4332 0.0
O24 O 0.20448 0.12897 0.39108 0.0
O25 O 0.1978 0.11042 0.40951 0.0
In26 In 0.10503 0.93211 0.65661 0.0
O27 O 0.11401 0.96195 0.64415 0.0
O28 O 0.13876 0.94441 0.65413 0.0
C29 C 0.06589 0.92508 0.64569 0.0
C30 C 0.10054 0.94834 0.68308 0.0
C31 C 0.12186 0.8938 0.65067 0.0
O32 O 0.0789 0.93763 0.63989 0.0
O33 O 0.07254 0.91648 0.65694 0.0
O34 O 0.11331 0.898 0.66249 0.0
O35 O 0.12215 0.90898 0.6419 0.0
C36 C 0.13363 0.96037 0.64679 0.0
O37 O 0.11088 0.93158 0.68067 0.0
O38 O 0.09227 0.95665 0.67222 0.0
In39 In 0.31833 0.85784 0.90175 0.0
O40 O 0.31884 0.85634 0.92601 0.0
O41 O 0.28993 0.84883 0.91538 0.0
C42 C 0.35739 0.87415 0.89697 0.0
C43 C 0.29191 0.8887 0.89274 0.0
C44 C 0.32303 0.81811 0.89136 0.0
O45 O 0.35044 0.87079 0.90936 0.0
O46 O 0.34463 0.86944 0.88714 0.0
O47 O 0.31537 0.83301 0.884 0.0
O48 O 0.32798 0.82321 0.90389 0.0
C49 C 0.29955 0.85102 0.92707 0.0
O50 O 0.29205 0.87041 0.88722 0.0
O51 O 0.30532 0.89144 0.90253 0.0
In52 In 0.39245 0.93078 0.34401 0.0
O53 O 0.3935 0.92874 0.31971 0.0
O54 O 0.40598 0.9564 0.32959 0.0
C55 C 0.37267 0.89346 0.34877 0.0
C56 C 0.36237 0.958 0.35327 0.0
C57 C 0.43139 0.92501 0.35555 0.0
O58 O 0.37859 0.89913 0.3365 0.0
O59 O 0.37648 0.90672 0.3585 0.0
O60 O 0.42087 0.94183 0.35737 0.0
O61 O 0.42238 0.91132 0.34787 0.0
C62 C 0.40194 0.94677 0.31814 0.0
O63 O 0.37744 0.95184 0.36111 0.0
O64 O 0.36241 0.95027 0.34089 0.0
In65 In 0.31677 0.14479 0.59678 0.0
O66 O 0.28731 0.13642 0.60984 0.0
O67 O 0.30583 0.11106 0.60158 0.0
C68 C 0.3234 0.1854 0.6049 0.0
C69 C 0.30009 0.14801 0.57036 0.0
C70 C 0.3549 0.1284 0.60374 0.0
O71 O 0.31128 0.17305 0.61168 0.0
O72 O 0.33175 0.17738 0.59396 0.0
O73 O 0.34734 0.12701 0.59131 0.0
O74 O 0.34308 0.1377 0.61262 0.0
C75 C 0.28963 0.11662 0.60853 0.0
O76 O 0.31916 0.14271 0.57244 0.0
O77 O 0.2897 0.15187 0.58151 0.0
In78 In 0.10302 0.06933 0.84515 0.0
O79 O 0.11474 0.04282 0.85975 0.0
O80 O 0.13687 0.05688 0.84547 0.0
C81 C 0.06278 0.07368 0.85484 0.0
C82 C 0.09834 0.05071 0.81955 0.0
C83 C 0.11908 0.10833 0.85042 0.0
O84 O 0.07737 0.06572 0.86233 0.0
O85 O 0.06843 0.07906 0.8425 0.0
O86 O 0.11508 0.10197 0.83797 0.0
O87 O 0.11512 0.09502 0.86007 0.0
C88 C 0.1335 0.04315 0.85499 0.0
O89 O 0.10282 0.07017 0.82086 0.0
O90 O 0.0959 0.04083 0.83111 0.0
In91 In 0.18548 0.8545 0.09103 0.0
O92 O 0.18185 0.85505 0.06682 0.0
O93 O 0.2112 0.84443 0.07554 0.0
C94 C 0.14565 0.87068 0.0929 0.0
C95 C 0.21415 0.88261 0.10105 0.0
C96 C 0.18461 0.81666 0.1047 0.0
O97 O 0.14938 0.85229 0.08828 0.0
O98 O 0.16198 0.88106 0.09622 0.0
O99 O 0.18344 0.8341 0.11124 0.0
O100 O 0.18669 0.81838 0.09142 0.0
C101 C 0.20045 0.84831 0.0645 0.0
O102 O 0.20682 0.86785 0.1087 0.0
O103 O 0.20696 0.88315 0.08854 0.0
In104 In 0.60827 0.92856 0.84374 0.0
O105 O 0.61513 0.96218 0.85171 0.0
O106 O 0.63935 0.93904 0.85398 0.0
C107 C 0.56828 0.92652 0.85384 0.0
C108 C 0.60891 0.94235 0.81651 0.0
C109 C 0.62045 0.88807 0.84874 0.0
O110 O 0.58323 0.93491 0.86082 0.0
O111 O 0.5735 0.9194 0.84178 0.0
O112 O 0.61994 0.89578 0.83635 0.0
O113 O 0.61501 0.90075 0.85844 0.0
C114 C 0.6338 0.95808 0.85569 0.0
O115 O 0.62502 0.93446 0.82248 0.0
O116 O 0.59245 0.94272 0.82413 0.0
In117 In 0.8164 0.85575 0.59351 0.0
O118 O 0.7873 0.8639 0.60689 0.0
O119 O 0.80261 0.88892 0.59562 0.0
C120 C 0.82119 0.81661 0.60491 0.0
C121 C 0.79905 0.8526 0.56733 0.0
C122 C 0.85578 0.87159 0.59789 0.0
O123 O 0.8157 0.83242 0.61228 0.0
O124 O 0.82403 0.82057 0.59191 0.0
O125 O 0.85138 0.85984 0.58743 0.0
O126 O 0.84032 0.87556 0.60597 0.0
C127 C 0.78756 0.88338 0.60368 0.0
O128 O 0.8169 0.8612 0.56939 0.0
O129 O 0.79027 0.84543 0.57838 0.0
In130 In 0.8937 0.06839 0.34123 0.0
O131 O 0.89498 0.0706 0.31697 0.0
O132 O 0.9074 0.04286 0.32681 0.0
C133 C 0.87316 0.10521 0.34625 0.0
C134 C 0.86391 0.04042 0.34973 0.0
C135 C 0.9325 0.0752 0.35275 0.0
O136 O 0.88021 0.10035 0.3341 0.0
O137 O 0.87618 0.09138 0.35575 0.0
O138 O 0.92211 0.05842 0.35507 0.0
O139 O 0.92338 0.08828 0.34467 0.0
C140 C 0.90345 0.05259 0.31539 0.0
O141 O 0.87892 0.04619 0.35777 0.0
O142 O 0.86385 0.04896 0.33759 0.0
In143 In 0.68475 0.14723 0.09818 0.0
O144 O 0.71552 0.13907 0.10983 0.0
O145 O 0.69453 0.11379 0.10473 0.0
C146 C 0.68038 0.18814 0.1064 0.0
C147 C 0.70071 0.1486 0.07152 0.0
C148 C 0.64609 0.13121 0.10427 0.0
O149 O 0.68824 0.17413 0.11442 0.0
O150 O 0.6751 0.18158 0.09423 0.0
O151 O 0.65462 0.12899 0.09219 0.0
O152 O 0.65709 0.14138 0.11318 0.0
C153 C 0.712 0.11935 0.11012 0.0
O154 O 0.68108 0.14656 0.07389 0.0
O155 O 0.71204 0.15013 0.08252 0.0
In156 In 0.60647 0.06738 0.65593 0.0
O157 O 0.62358 0.06172 0.67713 0.0
O158 O 0.59116 0.0529 0.67562 0.0
C159 C 0.62119 0.10661 0.64988 0.0
C160 C 0.63051 0.03698 0.6436 0.0
C161 C 0.56622 0.07251 0.64674 0.0
O162 O 0.61872 0.10024 0.66253 0.0
O163 O 0.61638 0.09319 0.64047 0.0
O164 O 0.57946 0.06108 0.64016 0.0
O165 O 0.57327 0.08106 0.65792 0.0
C166 C 0.60767 0.05354 0.68317 0.0
O167 O 0.61176 0.03352 0.64772 0.0
O168 O 0.63682 0.05576 0.6454 0.0
In169 In 0.68117 0.85785 0.40411 0.0
O170 O 0.67845 0.85699 0.42843 0.0
O171 O 0.70836 0.84997 0.41902 0.0
C172 C 0.64055 0.87214 0.40285 0.0
C173 C 0.70816 0.88701 0.39344 0.0
C174 C 0.68106 0.81993 0.39062 0.0
O175 O 0.64521 0.85334 0.40613 0.0
O176 O 0.65632 0.8839 0.40056 0.0
O177 O 0.67886 0.83723 0.38399 0.0
O178 O 0.68395 0.82193 0.40382 0.0
C179 C 0.69776 0.85227 0.4303 0.0
O180 O 0.70249 0.87096 0.38633 0.0
O181 O 0.69995 0.88838 0.40564 0.0
In182 In 0.89882 0.93472 0.15264 0.0
O183 O 0.89899 0.93276 0.17699 0.0
O184 O 0.90794 0.96188 0.16729 0.0
C185 C 0.88291 0.89617 0.14623 0.0
C186 C 0.86857 0.96135 0.14292 0.0
C187 C 0.93867 0.92932 0.14273 0.0
O188 O 0.88358 0.90311 0.15884 0.0
O189 O 0.88992 0.90881 0.13693 0.0
O190 O 0.92515 0.94062 0.13631 0.0
O191 O 0.93216 0.92113 0.15416 0.0
C192 C 0.90489 0.95175 0.17867 0.0
O193 O 0.88788 0.96322 0.13953 0.0
O194 O 0.8645 0.9458 0.15091 0.0
In195 In 0.81338 0.14556 0.90639 0.0
O196 O 0.78413 0.13608 0.89354 0.0
O197 O 0.80252 0.11147 0.90287 0.0
C198 C 0.81745 0.18621 0.89764 0.0
C199 C 0.7966 0.14805 0.93276 0.0
C200 C 0.85255 0.13107 0.89991 0.0
O201 O 0.80916 0.17203 0.88997 0.0
O202 O 0.82345 0.17993 0.90973 0.0
O203 O 0.84612 0.13276 0.91259 0.0
O204 O 0.83918 0.13648 0.8906 0.0
C205 C 0.78642 0.11642 0.89561 0.0
O206 O 0.81532 0.14163 0.93057 0.0
O207 O 0.78658 0.1534 0.92171 0.0
In208 In 0.89699 0.56971 0.65648 0.0
O209 O 0.88262 0.56312 0.67845 0.0
O210 O 0.91491 0.55515 0.67521 0.0
C211 C 0.88113 0.60857 0.65097 0.0
C212 C 0.87143 0.54043 0.64419 0.0
C213 C 0.93639 0.57636 0.64621 0.0
O214 O 0.88378 0.60188 0.66353 0.0
O215 O 0.88634 0.59562 0.64133 0.0
O216 O 0.92461 0.56168 0.64153 0.0
O217 O 0.92832 0.58739 0.65602 0.0
C218 C 0.89933 0.55521 0.68358 0.0
O219 O 0.89082 0.53692 0.6466 0.0
O220 O 0.86523 0.55872 0.64763 0.0
In221 In 0.68021 0.6389 0.90588 0.0
O222 O 0.68105 0.63028 0.92937 0.0
O223 O 0.69995 0.65637 0.92247 0.0
C224 C 0.64319 0.618 0.9012 0.0
C225 C 0.71263 0.61446 0.89662 0.0
C226 C 0.67401 0.67809 0.89479 0.0
O227 O 0.64596 0.63025 0.91161 0.0
O228 O 0.65917 0.61596 0.89328 0.0
O229 O 0.68726 0.66522 0.88961 0.0
O230 O 0.66418 0.67125 0.90552 0.0
C231 C 0.69418 0.64463 0.93267 0.0
O232 O 0.70207 0.62613 0.88828 0.0
O233 O 0.70668 0.61501 0.9094 0.0
In234 In 0.60509 0.4382 0.15428 0.0
O235 O 0.62256 0.44288 0.17545 0.0
O236 O 0.59079 0.45379 0.17402 0.0
C237 C 0.61954 0.39891 0.14801 0.0
C238 C 0.62862 0.46829 0.14108 0.0
C239 C 0.56448 0.43243 0.14596 0.0
O240 O 0.61821 0.40561 0.16064 0.0
O241 O 0.61372 0.41202 0.13865 0.0
O242 O 0.57731 0.44389 0.13906 0.0
O243 O 0.57207 0.42419 0.1571 0.0
C244 C 0.60721 0.45191 0.18157 0.0
O245 O 0.6096 0.47144 0.14472 0.0
O246 O 0.63553 0.45002 0.14393 0.0
In247 In 0.81313 0.35392 0.40327 0.0
O248 O 0.81498 0.35964 0.42732 0.0
O249 O 0.7882 0.34312 0.41924 0.0
C250 C 0.85157 0.37005 0.39655 0.0
C251 C 0.78456 0.38238 0.3938 0.0
C252 C 0.81826 0.31428 0.39276 0.0
O253 O 0.84786 0.36109 0.40829 0.0
O254 O 0.83585 0.37112 0.38825 0.0
O255 O 0.80725 0.32812 0.38645 0.0
O256 O 0.82633 0.32038 0.40431 0.0
C257 C 0.7975 0.35069 0.42997 0.0
O258 O 0.78346 0.36289 0.39071 0.0
O259 O 0.80029 0.38751 0.40139 0.0
In260 In 0.89512 0.43138 0.84358 0.0
O261 O 0.88557 0.45675 0.86002 0.0
O262 O 0.86622 0.45267 0.84177 0.0
C263 C 0.93468 0.42449 0.85356 0.0
C264 C 0.90071 0.44263 0.8161 0.0
C265 C 0.87578 0.39492 0.8512 0.0
O266 O 0.92619 0.44267 0.85379 0.0
O267 O 0.9234 0.41007 0.84813 0.0
O268 O 0.88166 0.39856 0.83859 0.0
O269 O 0.87934 0.40979 0.85988 0.0
C270 C 0.86935 0.46262 0.85318 0.0
O271 O 0.8854 0.43128 0.8202 0.0
O272 O 0.91369 0.44762 0.82575 0.0
In273 In 0.81835 0.64573 0.09348 0.0
O274 O 0.81783 0.63512 0.07019 0.0
O275 O 0.79753 0.66041 0.0764 0.0
C276 C 0.85674 0.6295 0.10005 0.0
C277 C 0.78719 0.62012 0.10317 0.0
C278 C 0.82534 0.68533 0.10327 0.0
O279 O 0.85183 0.63499 0.08755 0.0
O280 O 0.84219 0.63192 0.10914 0.0
O281 O 0.81572 0.6715 0.11055 0.0
O282 O 0.8312 0.67918 0.09111 0.0
C283 C 0.80374 0.64831 0.06657 0.0
O284 O 0.78609 0.64007 0.104 0.0
O285 O 0.80425 0.61316 0.09793 0.0
In286 In 0.60654 0.57054 0.34461 0.0
O287 O 0.62409 0.56289 0.32389 0.0
O288 O 0.59167 0.55397 0.32553 0.0
C289 C 0.62111 0.61055 0.34828 0.0
C290 C 0.6301 0.5405 0.35768 0.0
C291 C 0.56652 0.57597 0.3542 0.0
O292 O 0.61644 0.60332 0.33615 0.0
O293 O 0.61854 0.59762 0.35836 0.0
O294 O 0.58098 0.56812 0.36187 0.0
O295 O 0.57225 0.58088 0.34177 0.0
C296 C 0.60835 0.55396 0.31812 0.0
O297 O 0.61101 0.53741 0.35418 0.0
O298 O 0.63701 0.55882 0.35494 0.0
In299 In 0.68694 0.35619 0.59571 0.0
O300 O 0.68372 0.35692 0.57144 0.0
O301 O 0.7141 0.35043 0.58029 0.0
C302 C 0.64793 0.3719 0.60143 0.0
C303 C 0.71481 0.38469 0.60628 0.0
C304 C 0.68239 0.31586 0.60517 0.0
O305 O 0.65534 0.37119 0.58895 0.0
O306 O 0.66029 0.36502 0.61093 0.0
O307 O 0.6891 0.33065 0.61301 0.0
O308 O 0.67834 0.32133 0.59256 0.0
C309 C 0.7031 0.35297 0.56921 0.0
O310 O 0.7172 0.36492 0.60772 0.0
O311 O 0.69809 0.39011 0.59984 0.0
In312 In 0.10393 0.42967 0.34387 0.0
O313 O 0.10581 0.42779 0.31945 0.0
O314 O 0.10036 0.45782 0.32896 0.0
C315 C 0.11951 0.39124 0.35093 0.0
C316 C 0.13217 0.45534 0.35687 0.0
C317 C 0.06264 0.42471 0.35093 0.0
O318 O 0.12197 0.39914 0.33867 0.0
O319 O 0.10939 0.40281 0.35956 0.0
O320 O 0.0749 0.43692 0.35769 0.0
O321 O 0.07112 0.4153 0.34054 0.0
C322 C 0.10294 0.44743 0.31765 0.0
O323 O 0.11237 0.45812 0.35782 0.0
O324 O 0.13767 0.43938 0.34966 0.0
In325 In 0.31516 0.35512 0.09813 0.0
O326 O 0.3176 0.35556 0.07375 0.0
O327 O 0.28693 0.35433 0.08311 0.0
C328 C 0.35477 0.36931 0.10371 0.0
C329 C 0.2896 0.38379 0.11082 0.0
C330 C 0.31769 0.31394 0.10611 0.0
O331 O 0.34589 0.37224 0.09181 0.0
O332 O 0.34368 0.35932 0.11265 0.0
O333 O 0.31156 0.3284 0.11444 0.0
O334 O 0.32217 0.32019 0.09372 0.0
C335 C 0.29774 0.35506 0.07185 0.0
O336 O 0.28558 0.36416 0.11078 0.0
O337 O 0.30675 0.38887 0.1048 0.0
In338 In 0.39345 0.56661 0.84565 0.0
O339 O 0.38914 0.53359 0.85545 0.0
O340 O 0.36263 0.55442 0.85511 0.0
C341 C 0.43309 0.56576 0.85688 0.0
C342 C 0.39011 0.55596 0.81791 0.0
C343 C 0.3795 0.60687 0.84932 0.0
O344 O 0.41778 0.57517 0.86274 0.0
O345 O 0.42841 0.55647 0.84543 0.0
O346 O 0.3866 0.60041 0.83753 0.0
O347 O 0.37935 0.59308 0.85901 0.0
C348 C 0.36978 0.53638 0.85838 0.0
O349 O 0.40567 0.5664 0.82271 0.0
O350 O 0.37599 0.55169 0.82698 0.0
In351 In 0.18577 0.64479 0.59323 0.0
O352 O 0.21668 0.63775 0.60504 0.0
O353 O 0.19831 0.61159 0.59774 0.0
C354 C 0.17845 0.68419 0.6035 0.0
C355 C 0.20144 0.64746 0.56649 0.0
C356 C 0.14744 0.62823 0.59945 0.0
O357 O 0.19118 0.67153 0.60945 0.0
O358 O 0.16976 0.67707 0.59242 0.0
O359 O 0.15168 0.63628 0.58748 0.0
O360 O 0.16262 0.62826 0.60824 0.0
C361 C 0.21492 0.61785 0.60397 0.0
O362 O 0.18568 0.636 0.56956 0.0
O363 O 0.20898 0.65775 0.5768 0.0
In364 In 0.10724 0.57129 0.15608 0.0
O365 O 0.11073 0.57175 0.18033 0.0
O366 O 0.09908 0.54362 0.17056 0.0
C367 C 0.1232 0.61052 0.15165 0.0
C368 C 0.13629 0.54396 0.14564 0.0
C369 C 0.06735 0.57627 0.14588 0.0
O370 O 0.1174 0.60426 0.16381 0.0
O371 O 0.12096 0.59702 0.14186 0.0
O372 O 0.08268 0.57071 0.1381 0.0
O373 O 0.07209 0.57913 0.15876 0.0
C374 C 0.10431 0.55289 0.18192 0.0
O375 O 0.11666 0.54197 0.14326 0.0
O376 O 0.14125 0.55996 0.15299 0.0
In377 In 0.18343 0.35624 0.90697 0.0
O378 O 0.21292 0.36269 0.89348 0.0
O379 O 0.19729 0.38894 0.90316 0.0
C380 C 0.17952 0.31714 0.89542 0.0
C381 C 0.19936 0.35553 0.9337 0.0
C382 C 0.14362 0.37118 0.90291 0.0
O383 O 0.18126 0.33362 0.88788 0.0
O384 O 0.18014 0.32041 0.90864 0.0
O385 O 0.1477 0.35632 0.91149 0.0
O386 O 0.1596 0.37871 0.89662 0.0
C387 C 0.21256 0.38248 0.89563 0.0
O388 O 0.18125 0.36309 0.93096 0.0
O389 O 0.20905 0.34813 0.92308 0.0
In390 In 0.3979 0.43445 0.65589 0.0
O391 O 0.38688 0.4351 0.67912 0.0
O392 O 0.41026 0.45737 0.67266 0.0
C393 C 0.38284 0.39504 0.65075 0.0
C394 C 0.37131 0.46375 0.64497 0.0
C395 C 0.43733 0.42919 0.6451 0.0
O396 O 0.39406 0.39926 0.66152 0.0
O397 O 0.37915 0.41063 0.64272 0.0
O398 O 0.4221 0.43597 0.63764 0.0
O399 O 0.43265 0.42539 0.65789 0.0
C400 C 0.39866 0.45048 0.68256 0.0
O401 O 0.39123 0.46524 0.6437 0.0
O402 O 0.36498 0.44744 0.65149 0.0
In403 In 0.31407 0.64349 0.40151 0.0
O404 O 0.28462 0.63264 0.38945 0.0
O405 O 0.30462 0.60888 0.39832 0.0
C406 C 0.31532 0.68382 0.39159 0.0
C407 C 0.2978 0.64607 0.42799 0.0
C408 C 0.35373 0.62946 0.39588 0.0
O409 O 0.31021 0.66828 0.38386 0.0
O410 O 0.3195 0.67906 0.4043 0.0
O411 O 0.34659 0.63077 0.4084 0.0
O412 O 0.34084 0.63501 0.38631 0.0
C413 C 0.28785 0.61311 0.39153 0.0
O414 O 0.31756 0.64519 0.42576 0.0
O415 O 0.28647 0.64592 0.41693 0.0
H416 H 0.39784 0.92832 0.29193 0.0
H417 H 0.40084 0.94571 0.26867 0.0
H418 H 0.41607 0.00489 0.28935 0.0
H419 H 0.41331 0.98762 0.31258 0.0
H420 H 0.38322 0.00794 0.26919 0.0
H421 H 0.45408 0.97965 0.27283 0.0
H422 H 0.48067 0.95142 0.27639 0.0
H423 H 0.45609 0.91768 0.24027 0.0
H424 H 0.42915 0.94557 0.23661 0.0
H425 H 0.40578 0.06757 0.2074 0.0
H426 H 0.40856 0.05044 0.2307 0.0
H427 H 0.40589 0.98892 0.21054 0.0
H428 H 0.40408 0.00599 0.18723 0.0
H429 H 0.43319 0.98723 0.23083 0.0
H430 H 0.36173 0.01276 0.22735 0.0
H431 H 0.3334 0.03918 0.22356 0.0
H432 H 0.35646 0.0757 0.2589 0.0
H433 H 0.38511 0.04962 0.26279 0.0
C434 C 0.40207 0.94498 0.2915 0.0
C435 C 0.40534 0.95662 0.30406 0.0
C436 C 0.40381 0.95486 0.27822 0.0
C437 C 0.40871 0.97656 0.27732 0.0
C438 C 0.41227 0.98813 0.28984 0.0
C439 C 0.41076 0.97822 0.30309 0.0
C440 C 0.40915 0.98746 0.26336 0.0
C441 C 0.39435 0.00366 0.26085 0.0
C442 C 0.42322 0.98135 0.25238 0.0
C443 C 0.43947 0.96461 0.25453 0.0
C444 C 0.45423 0.96612 0.26572 0.0
C445 C 0.46939 0.9502 0.26774 0.0
C446 C 0.47004 0.93274 0.25858 0.0
C447 C 0.45556 0.9312 0.24736 0.0
C448 C 0.44035 0.94707 0.2453 0.0
C449 C 0.4059 0.0504 0.20796 0.0
C450 C 0.40462 0.0381 0.19553 0.0
C451 C 0.40737 0.04061 0.22128 0.0
C452 C 0.40702 0.01836 0.22243 0.0
C453 C 0.40617 0.0061 0.20996 0.0
C454 C 0.40508 0.01587 0.19664 0.0
C455 C 0.40722 0.00781 0.23659 0.0
C456 C 0.42209 0.99162 0.23915 0.0
C457 C 0.39294 0.01367 0.24756 0.0
C458 C 0.37569 0.02935 0.24527 0.0
C459 C 0.36085 0.0265 0.23425 0.0
C460 C 0.34472 0.0414 0.23209 0.0
C461 C 0.34317 0.05914 0.24096 0.0
C462 C 0.35771 0.06197 0.25203 0.0
C463 C 0.37388 0.04713 0.25422 0.0
H464 H 0.33067 0.07065 0.23927 0.0
H465 H 0.48179 0.92043 0.26016 0.0
H466 H 0.31989 0.1458 0.54447 0.0
H467 H 0.30318 0.14698 0.52088 0.0
H468 H 0.24166 0.15347 0.54054 0.0
H469 H 0.2582 0.15249 0.56407 0.0
H470 H 0.24333 0.12221 0.51925 0.0
H471 H 0.26339 0.19551 0.52624 0.0
H472 H 0.28855 0.22453 0.53128 0.0
H473 H 0.32567 0.20693 0.49482 0.0
H474 H 0.30087 0.17759 0.48968 0.0
H475 H 0.18052 0.14617 0.4594 0.0
H476 H 0.19812 0.14758 0.48258 0.0
H477 H 0.25887 0.15386 0.46173 0.0
H478 H 0.2412 0.15346 0.43857 0.0
H479 H 0.25861 0.17826 0.48361 0.0
H480 H 0.24027 0.10545 0.47615 0.0
H481 H 0.21681 0.07514 0.47081 0.0
H482 H 0.17893 0.08959 0.50754 0.0
H483 H 0.202 0.12017 0.51299 0.0
C484 C 0.30282 0.14756 0.54373 0.0
C485 C 0.29034 0.1491 0.55608 0.0
C486 C 0.29332 0.14828 0.53028 0.0
C487 C 0.27121 0.1504 0.529 0.0
C488 C 0.25875 0.15184 0.54132 0.0
C489 C 0.26823 0.15135 0.55474 0.0
C490 C 0.26091 0.15075 0.51484 0.0
C491 C 0.24645 0.13458 0.51149 0.0
C492 C 0.26555 0.16653 0.50461 0.0
C493 C 0.2804 0.18422 0.50766 0.0
C494 C 0.27702 0.19771 0.51937 0.0
C495 C 0.29119 0.21424 0.52223 0.0
C496 C 0.30873 0.21754 0.5134 0.0
C497 C 0.3121 0.20434 0.50166 0.0
C498 C 0.29798 0.18777 0.49877 0.0
C499 C 0.19762 0.14798 0.45979 0.0
C500 C 0.20952 0.14961 0.44721 0.0
C501 C 0.20769 0.14865 0.47303 0.0
C502 C 0.22991 0.15036 0.47393 0.0
C503 C 0.24174 0.15247 0.46134 0.0
C504 C 0.23163 0.1522 0.44811 0.0
C505 C 0.24083 0.14974 0.48795 0.0
C506 C 0.25545 0.16582 0.4913 0.0
C507 C 0.23661 0.13365 0.49812 0.0
C508 C 0.22275 0.11522 0.4949 0.0
C509 C 0.22685 0.10225 0.48303 0.0
C510 C 0.21363 0.08501 0.47999 0.0
C511 C 0.19636 0.08048 0.48881 0.0
C512 C 0.1923 0.09314 0.5007 0.0
C513 C 0.20545 0.11042 0.50378 0.0
H514 H 0.18615 0.06712 0.48643 0.0
H515 H 0.31969 0.23035 0.51563 0.0
H516 H 0.09973 0.00828 0.81428 0.0
H517 H 0.09908 0.99054 0.7911 0.0
H518 H 0.0928 0.05115 0.77021 0.0
H519 H 0.09391 0.0691 0.79339 0.0
H520 H 0.06368 0.0163 0.76079 0.0
H521 H 0.13783 0.03254 0.76883 0.0
H522 H 0.17095 0.03236 0.78282 0.0
H523 H 0.17037 0.96422 0.78349 0.0
H524 H 0.13704 0.964 0.76968 0.0
H525 H 0.08573 0.98769 0.6897 0.0
H526 H 0.08419 0.00435 0.71312 0.0
H527 H 0.10947 0.94735 0.73217 0.0
H528 H 0.1118 0.93089 0.70861 0.0
H529 H 0.12835 0.97981 0.74314 0.0
H530 H 0.0558 0.96203 0.73513 0.0
H531 H 0.02179 0.96041 0.72218 0.0
H532 H 0.01774 0.02844 0.72262 0.0
H533 H 0.05189 0.03049 0.73541 0.0
C534 C 0.0981 0.01782 0.80475 0.0
C535 C 0.0969 0.04006 0.8056 0.0
C536 C 0.09778 0.00767 0.79155 0.0
C537 C 0.09595 0.01958 0.779 0.0
C538 C 0.0942 0.04174 0.77981 0.0
C539 C 0.09491 0.05194 0.79302 0.0
C540 C 0.09639 0.00886 0.76502 0.0
C541 C 0.07785 0.00853 0.7568 0.0
C542 C 0.11471 0.99816 0.76014 0.0
C543 C 0.13482 0.99826 0.76836 0.0
C544 C 0.14465 0.01752 0.77208 0.0
C545 C 0.16349 0.01749 0.77995 0.0
C546 C 0.17273 0.99829 0.78408 0.0
C547 C 0.16318 0.97908 0.7803 0.0
C548 C 0.14433 0.97902 0.77245 0.0
C549 C 0.09085 0.97866 0.69889 0.0
C550 C 0.09881 0.95796 0.69735 0.0
C551 C 0.08986 0.98817 0.71229 0.0
C552 C 0.09639 0.97701 0.72447 0.0
C553 C 0.10431 0.95628 0.72295 0.0
C554 C 0.10557 0.94686 0.7095 0.0
C555 C 0.09557 0.98724 0.73871 0.0
C556 C 0.11408 0.98749 0.74706 0.0
C557 C 0.07707 0.99757 0.7438 0.0
C558 C 0.05651 0.99642 0.73612 0.0
C559 C 0.04774 0.97666 0.73237 0.0
C560 C 0.02843 0.97566 0.72508 0.0
C561 C 0.01764 0.99431 0.72155 0.0
C562 C 0.02613 0.014 0.72535 0.0
C563 C 0.04546 0.01509 0.73263 0.0
H564 H 0.00269 0.9935 0.71591 0.0
H565 H 0.18731 0.9983 0.79017 0.0
H566 H 0.31762 0.84935 0.95348 0.0
H567 H 0.2994 0.84632 0.97643 0.0
H568 H 0.239 0.84411 0.95486 0.0
H569 H 0.2571 0.84693 0.93188 0.0
H570 H 0.24065 0.87342 0.9775 0.0
H571 H 0.25709 0.80017 0.96833 0.0
H572 H 0.28051 0.77007 0.96243 0.0
H573 H 0.31793 0.78243 0.99971 0.0
H574 H 0.29491 0.81282 0.00573 0.0
H575 H 0.17961 0.85085 0.03901 0.0
H576 H 0.19515 0.8488 0.01516 0.0
H577 H 0.25721 0.8397 0.03367 0.0
H578 H 0.24167 0.84097 0.05744 0.0
H579 H 0.2534 0.81493 0.01181 0.0
H580 H 0.23985 0.88878 0.02053 0.0
H581 H 0.21827 0.92013 0.02669 0.0
H582 H 0.17778 0.90841 0.99078 0.0
H583 H 0.19896 0.87682 0.98451 0.0
C584 C 0.30047 0.84808 0.95364 0.0
C585 C 0.28877 0.84834 0.94091 0.0
C586 C 0.2901 0.84629 0.96673 0.0
C587 C 0.26788 0.8449 0.96731 0.0
C588 C 0.25617 0.84514 0.95462 0.0
C589 C 0.26653 0.84668 0.94152 0.0
C590 C 0.25681 0.84383 0.98119 0.0
C591 C 0.24314 0.86048 0.98494 0.0
C592 C 0.26057 0.82722 0.99098 0.0
C593 C 0.27439 0.8089 0.98741 0.0
C594 C 0.27042 0.79659 0.97521 0.0
C595 C 0.2836 0.77945 0.97186 0.0
C596 C 0.30073 0.77438 0.98067 0.0
C597 C 0.30467 0.7864 0.99288 0.0
C598 C 0.29155 0.80357 0.99628 0.0
C599 C 0.19654 0.84827 0.03796 0.0
C600 C 0.20945 0.84616 0.05007 0.0
C601 C 0.20543 0.84721 0.02434 0.0
C602 C 0.22743 0.84445 0.02261 0.0
C603 C 0.24022 0.84185 0.03472 0.0
C604 C 0.23132 0.84263 0.04831 0.0
C605 C 0.23727 0.84465 0.00824 0.0
C606 C 0.25075 0.82784 0.00438 0.0
C607 C 0.23359 0.8613 0.99841 0.0
C608 C 0.22085 0.88031 0.00214 0.0
C609 C 0.22625 0.8928 0.01401 0.0
C610 C 0.2141 0.91062 0.01751 0.0
C611 C 0.19663 0.91622 0.00915 0.0
C612 C 0.19129 0.90403 0.99725 0.0
C613 C 0.20337 0.88618 0.99372 0.0
H614 H 0.18725 0.93003 0.01188 0.0
H615 H 0.31091 0.7611 0.97806 0.0
H616 H 0.64377 0.95024 0.80003 0.0
H617 H 0.64479 0.96878 0.7771 0.0
H618 H 0.57657 0.97454 0.77776 0.0
H619 H 0.57543 0.95613 0.80067 0.0
H620 H 0.5926 0.96238 0.75126 0.0
H621 H 0.60551 0.01559 0.78728 0.0
H622 H 0.62436 0.03088 0.80787 0.0
H623 H 0.68239 0.03203 0.7839 0.0
H624 H 0.66393 0.01644 0.76323 0.0
H625 H 0.57448 0.04019 0.6994 0.0
H626 H 0.57599 0.02131 0.72208 0.0
H627 H 0.64438 0.02538 0.72167 0.0
H628 H 0.6429 0.04493 0.69915 0.0
H629 H 0.6302 0.03142 0.74774 0.0
H630 H 0.61815 0.97953 0.71157 0.0
H631 H 0.60035 0.96342 0.69084 0.0
H632 H 0.54239 0.95842 0.71466 0.0
H633 H 0.55977 0.97479 0.73547 0.0
C634 C 0.62899 0.95528 0.79521 0.0
C635 C 0.60952 0.95181 0.80214 0.0
C636 C 0.6296 0.96594 0.78216 0.0
C637 C 0.61077 0.97319 0.77583 0.0
C638 C 0.59127 0.96909 0.78249 0.0
C639 C 0.59066 0.95861 0.79558 0.0
C640 C 0.61132 0.98558 0.76243 0.0
C641 C 0.60064 0.97757 0.7505 0.0
C642 C 0.62232 0.0051 0.76139 0.0
C643 C 0.63339 0.01464 0.77376 0.0
C644 C 0.62233 0.01894 0.78644 0.0
C645 C 0.63293 0.02769 0.79812 0.0
C646 C 0.65458 0.03237 0.79721 0.0
C647 C 0.66564 0.02837 0.7846 0.0
C648 C 0.6551 0.01959 0.7729 0.0
C649 C 0.58983 0.03725 0.70421 0.0
C650 C 0.60859 0.0439 0.69748 0.0
C651 C 0.59069 0.02633 0.71713 0.0
C652 C 0.61033 0.02148 0.72342 0.0
C653 C 0.62905 0.02884 0.71698 0.0
C654 C 0.62819 0.03999 0.70412 0.0
C655 C 0.61126 0.00834 0.73653 0.0
C656 C 0.62224 0.01618 0.74842 0.0
C657 C 0.6007 0.98853 0.73751 0.0
C658 C 0.59022 0.97855 0.72504 0.0
C659 C 0.60157 0.97513 0.71235 0.0
C660 C 0.59156 0.96593 0.7006 0.0
C661 C 0.57024 0.95994 0.70142 0.0
C662 C 0.5589 0.96309 0.71403 0.0
C663 C 0.56883 0.9723 0.72581 0.0
H664 H 0.56252 0.95283 0.69231 0.0
H665 H 0.66276 0.03914 0.80626 0.0
H666 H 0.67799 0.84926 0.45615 0.0
H667 H 0.69481 0.84774 0.47964 0.0
H668 H 0.75659 0.85116 0.45986 0.0
H669 H 0.73989 0.8517 0.43644 0.0
H670 H 0.75859 0.82443 0.48027 0.0
H671 H 0.73132 0.89521 0.4761 0.0
H672 H 0.70419 0.92278 0.47205 0.0
H673 H 0.66825 0.89955 0.50761 0.0
H674 H 0.69504 0.87165 0.51176 0.0
H675 H 0.81679 0.86058 0.5413 0.0
H676 H 0.79917 0.85909 0.51801 0.0
H677 H 0.74052 0.84111 0.53837 0.0
H678 H 0.75802 0.84228 0.5616 0.0
H679 H 0.73669 0.87471 0.51816 0.0
H680 H 0.76635 0.80434 0.52225 0.0
H681 H 0.79518 0.7785 0.52608 0.0
H682 H 0.82887 0.80365 0.49012 0.0
H683 H 0.80036 0.82987 0.48619 0.0
C684 C 0.69516 0.84956 0.45685 0.0
C685 C 0.70764 0.85065 0.4445 0.0
C686 C 0.70476 0.84883 0.47027 0.0
C687 C 0.72699 0.84973 0.47156 0.0
C688 C 0.73943 0.85046 0.45918 0.0
C689 C 0.72986 0.85081 0.44579 0.0
C690 C 0.7374 0.85005 0.48576 0.0
C691 C 0.75393 0.83562 0.48847 0.0
C692 C 0.73119 0.86443 0.49659 0.0
C693 C 0.71507 0.8812 0.49414 0.0
C694 C 0.71755 0.89588 0.48299 0.0
C695 C 0.70225 0.91158 0.48068 0.0
C696 C 0.68448 0.91287 0.48954 0.0
C697 C 0.682 0.8985 0.50074 0.0
C698 C 0.69725 0.88275 0.50308 0.0
C699 C 0.80016 0.85624 0.54078 0.0
C700 C 0.78877 0.85149 0.55323 0.0
C701 C 0.79015 0.85536 0.5275 0.0
C702 C 0.76858 0.84992 0.52652 0.0
C703 C 0.75717 0.84534 0.53894 0.0
C704 C 0.76721 0.84593 0.55218 0.0
C705 C 0.75781 0.84921 0.51253 0.0
C706 C 0.74125 0.86356 0.50991 0.0
C707 C 0.76422 0.83503 0.50171 0.0
C708 C 0.78132 0.81921 0.50402 0.0
C709 C 0.77999 0.80449 0.51523 0.0
C710 C 0.79625 0.78975 0.51741 0.0
C711 C 0.81387 0.78947 0.50838 0.0
C712 C 0.81523 0.8039 0.49712 0.0
C713 C 0.79901 0.81869 0.49491 0.0
H714 H 0.82645 0.77804 0.51008 0.0
H715 H 0.67265 0.92504 0.48774 0.0
H716 H 0.91192 0.01115 0.30956 0.0
H717 H 0.9146 0.99437 0.28624 0.0
H718 H 0.90605 0.05532 0.26603 0.0
H719 H 0.9024 0.07204 0.28942 0.0
H720 H 0.88225 0.02814 0.25355 0.0
H721 H 0.95539 0.02796 0.26696 0.0
H722 H 0.98638 0.02129 0.28235 0.0
H723 H 0.97372 0.95434 0.28118 0.0
H724 H 0.94246 0.96064 0.26593 0.0
H725 H 0.91107 0.99361 0.18438 0.0
H726 H 0.91312 0.01069 0.2077 0.0
H727 H 0.90621 0.94982 0.22816 0.0
H728 H 0.90393 0.93255 0.20479 0.0
H729 H 0.93876 0.97708 0.24006 0.0
H730 H 0.86474 0.97873 0.22669 0.0
H731 H 0.83484 0.98651 0.21058 0.0
H732 H 0.85109 0.05269 0.21099 0.0
H733 H 0.88131 0.04526 0.22694 0.0
C734 C 0.91085 0.02101 0.30015 0.0
C735 C 0.90699 0.04291 0.30129 0.0
C736 C 0.9125 0.01141 0.2868 0.0
C737 C 0.91083 0.02359 0.27433 0.0
C738 C 0.90739 0.04557 0.27548 0.0
C739 C 0.90539 0.05513 0.28884 0.0
C740 C 0.91149 0.01324 0.26012 0.0
C741 C 0.89484 0.01727 0.25055 0.0
C742 C 0.92764 0.99866 0.25625 0.0
C743 C 0.94647 0.9948 0.2654 0.0
C744 C 0.95912 0.01183 0.27007 0.0
C745 C 0.97675 0.00811 0.27875 0.0
C746 C 0.98199 0.98741 0.28276 0.0
C747 C 0.96963 0.97038 0.27807 0.0
C748 C 0.95197 0.97401 0.26939 0.0
C749 C 0.91011 0.98383 0.19384 0.0
C750 C 0.90725 0.96176 0.19279 0.0
C751 C 0.91125 0.99362 0.20713 0.0
C752 C 0.90968 0.98151 0.2196 0.0
C753 C 0.90745 0.9594 0.21862 0.0
C754 C 0.90608 0.94959 0.2053 0.0
C755 C 0.90963 0.99211 0.23365 0.0
C756 C 0.92631 0.98807 0.24313 0.0
C757 C 0.89369 0.00689 0.23739 0.0
C758 C 0.87541 0.0114 0.22789 0.0
C759 C 0.86205 0.99492 0.22325 0.0
C760 C 0.84502 0.99927 0.21416 0.0
C761 C 0.8411 0.02007 0.20973 0.0
C762 C 0.85416 0.03658 0.21441 0.0
C763 C 0.87123 0.03231 0.22349 0.0
H764 H 0.82791 0.02341 0.20269 0.0
H765 H 0.99564 0.98456 0.28949 0.0
H766 H 0.75548 0.15704 0.93934 0.0
H767 H 0.739 0.15742 0.96284 0.0
H768 H 0.79919 0.14149 0.98201 0.0
H769 H 0.81568 0.14052 0.95841 0.0
H770 H 0.76882 0.11848 0.99341 0.0
H771 H 0.77829 0.19236 0.98367 0.0
H772 H 0.77552 0.22551 0.96985 0.0
H773 H 0.70749 0.22153 0.97121 0.0
H774 H 0.70986 0.18817 0.98488 0.0
H775 H 0.74249 0.14621 0.06445 0.0
H776 H 0.75807 0.14612 0.04064 0.0
H777 H 0.69565 0.15163 0.02215 0.0
H778 H 0.67985 0.15154 0.04604 0.0
H779 H 0.72653 0.17988 0.01048 0.0
H780 H 0.71808 0.10564 0.02087 0.0
H781 H 0.72198 0.07322 0.03533 0.0
H782 H 0.78984 0.07906 0.03345 0.0
H783 H 0.78634 0.11171 0.01914 0.0
C784 C 0.76524 0.1537 0.94856 0.0
C785 C 0.78689 0.14883 0.94705 0.0
C786 C 0.75581 0.15401 0.962 0.0
C787 C 0.76791 0.14978 0.97422 0.0
C788 C 0.78955 0.14484 0.97273 0.0
C789 C 0.79896 0.14436 0.95926 0.0
C790 C 0.75787 0.15007 0.98852 0.0
C791 C 0.75983 0.13204 0.9972 0.0
C792 C 0.74574 0.16757 0.99338 0.0
C793 C 0.74426 0.18765 0.98518 0.0
C794 C 0.76274 0.19846 0.98092 0.0
C795 C 0.76124 0.2173 0.97314 0.0
C796 C 0.74134 0.22559 0.96962 0.0
C797 C 0.7229 0.21507 0.97392 0.0
C798 C 0.72431 0.1962 0.9817 0.0
C799 C 0.73206 0.14742 0.05533 0.0
C800 C 0.70995 0.14884 0.05708 0.0
C801 C 0.74099 0.1473 0.04174 0.0
C802 C 0.72799 0.14873 0.02966 0.0
C803 C 0.70592 0.15049 0.03136 0.0
C804 C 0.69693 0.15037 0.04498 0.0
C805 C 0.73756 0.14836 0.01529 0.0
C806 C 0.73551 0.16635 0.00662 0.0
C807 C 0.74979 0.13094 0.01051 0.0
C808 C 0.75194 0.11124 0.01905 0.0
C809 C 0.73384 0.10011 0.02364 0.0
C810 C 0.73597 0.08167 0.03179 0.0
C811 C 0.75614 0.07411 0.03534 0.0
C812 C 0.77422 0.08495 0.03071 0.0
C813 C 0.77217 0.10341 0.02256 0.0
H814 H 0.75777 0.05984 0.04165 0.0
H815 H 0.74022 0.24019 0.9636 0.0
H816 H 0.86618 0.5456 0.70111 0.0
H817 H 0.86754 0.52637 0.72367 0.0
H818 H 0.93589 0.5236 0.72085 0.0
H819 H 0.93452 0.54214 0.698 0.0
H820 H 0.92201 0.4868 0.72824 0.0
H821 H 0.90926 0.55706 0.74479 0.0
H822 H 0.89156 0.59189 0.74629 0.0
H823 H 0.83361 0.56164 0.7592 0.0
H824 H 0.85088 0.52658 0.7576 0.0
H825 H 0.93509 0.46051 0.80308 0.0
H826 H 0.93578 0.47886 0.78004 0.0
H827 H 0.86956 0.46425 0.77384 0.0
H828 H 0.86887 0.4454 0.79663 0.0
H829 H 0.88345 0.51002 0.77156 0.0
H830 H 0.89831 0.43915 0.75433 0.0
H831 H 0.91818 0.40545 0.75373 0.0
H832 H 0.97534 0.43915 0.7433 0.0
H833 H 0.95585 0.47311 0.74404 0.0
C834 C 0.88151 0.54109 0.70538 0.0
C835 C 0.90025 0.5454 0.69783 0.0
C836 C 0.88228 0.53016 0.71831 0.0
C837 C 0.90185 0.52371 0.72407 0.0
C838 C 0.92061 0.52836 0.71663 0.0
C839 C 0.91982 0.53904 0.70361 0.0
C840 C 0.90266 0.51142 0.73756 0.0
C841 C 0.91382 0.49209 0.73776 0.0
C842 C 0.89179 0.51811 0.74998 0.0
C843 C 0.88132 0.53917 0.75094 0.0
C844 C 0.89269 0.55781 0.74784 0.0
C845 C 0.88275 0.57761 0.74873 0.0
C846 C 0.86146 0.57898 0.7528 0.0
C847 C 0.85009 0.56055 0.75603 0.0
C848 C 0.85995 0.54072 0.75515 0.0
C849 C 0.92079 0.46091 0.79668 0.0
C850 C 0.90194 0.45151 0.8016 0.0
C851 C 0.92121 0.4714 0.78357 0.0
C852 C 0.90269 0.47292 0.77533 0.0
C853 C 0.88397 0.46321 0.78009 0.0
C854 C 0.88366 0.45237 0.79305 0.0
C855 C 0.90259 0.48553 0.76208 0.0
C856 C 0.89163 0.50489 0.76199 0.0
C857 C 0.91395 0.47909 0.74988 0.0
C858 C 0.92567 0.45869 0.74941 0.0
C859 C 0.91516 0.4394 0.75206 0.0
C860 C 0.92634 0.42024 0.75166 0.0
C861 C 0.94803 0.42016 0.74852 0.0
C862 C 0.95856 0.43924 0.74575 0.0
C863 C 0.94744 0.45844 0.74615 0.0
H864 H 0.95666 0.40531 0.74821 0.0
H865 H 0.85379 0.59431 0.75349 0.0
H866 H 0.77429 0.67614 0.05654 0.0
H867 H 0.75597 0.67512 0.03365 0.0
H868 H 0.79247 0.62006 0.02152 0.0
H869 H 0.81116 0.6212 0.04439 0.0
H870 H 0.78839 0.64675 0.99956 0.0
H871 H 0.74244 0.61415 0.03326 0.0
H872 H 0.72229 0.61097 0.05565 0.0
H873 H 0.68523 0.66567 0.04445 0.0
H874 H 0.70539 0.6694 0.02208 0.0
H875 H 0.68827 0.61784 0.95512 0.0
H876 H 0.70704 0.6181 0.9779 0.0
H877 H 0.7401 0.67513 0.96542 0.0
H878 H 0.72176 0.67465 0.94248 0.0
H879 H 0.70962 0.64404 0.99969 0.0
H880 H 0.79063 0.67347 0.97761 0.0
H881 H 0.81099 0.67211 0.95519 0.0
H882 H 0.77819 0.61515 0.94308 0.0
H883 H 0.75789 0.61599 0.96551 0.0
C884 C 0.77856 0.66393 0.04895 0.0
C885 C 0.79407 0.64868 0.05227 0.0
C886 C 0.76801 0.6633 0.03591 0.0
C887 C 0.77261 0.6473 0.02599 0.0
C888 C 0.78864 0.6325 0.02905 0.0
C889 C 0.79928 0.63316 0.04211 0.0
C890 C 0.76028 0.64578 0.01259 0.0
C891 C 0.77118 0.64618 0.99958 0.0
C892 C 0.73784 0.64444 0.01264 0.0
C893 C 0.72556 0.64217 0.02604 0.0
C894 C 0.7301 0.6256 0.03561 0.0
C895 C 0.71866 0.62368 0.0483 0.0
C896 C 0.70252 0.63813 0.05148 0.0
C897 C 0.69775 0.6545 0.04197 0.0
C898 C 0.70917 0.65652 0.02928 0.0
C899 C 0.6994 0.63054 0.95728 0.0
C900 C 0.70369 0.64615 0.94699 0.0
C901 C 0.71009 0.63068 0.97031 0.0
C902 C 0.72523 0.64643 0.97326 0.0
C903 C 0.7288 0.66258 0.96324 0.0
C904 C 0.71823 0.66236 0.95018 0.0
C905 C 0.7377 0.6456 0.98664 0.0
C906 C 0.72684 0.64468 0.99966 0.0
C907 C 0.76019 0.64579 0.9866 0.0
C908 C 0.7726 0.64494 0.97318 0.0
C909 C 0.78784 0.66061 0.97019 0.0
C910 C 0.79936 0.65993 0.95748 0.0
C911 C 0.79583 0.64359 0.9477 0.0
C912 C 0.78085 0.62784 0.95064 0.0
C913 C 0.76933 0.62842 0.96335 0.0
H914 H 0.80474 0.64311 0.93786 0.0
H915 H 0.69369 0.63661 0.0613 0.0
H916 H 0.57546 0.53991 0.30187 0.0
H917 H 0.57733 0.52077 0.27931 0.0
H918 H 0.64577 0.52374 0.28065 0.0
H919 H 0.64392 0.54363 0.30301 0.0
H920 H 0.63333 0.5314 0.25508 0.0
H921 H 0.61784 0.4771 0.28842 0.0
H922 H 0.5991 0.45942 0.30816 0.0
H923 H 0.54163 0.45848 0.28359 0.0
H924 H 0.55995 0.47644 0.26376 0.0
H925 H 0.64251 0.45585 0.1983 0.0
H926 H 0.64471 0.47143 0.22217 0.0
H927 H 0.57712 0.48239 0.22179 0.0
H928 H 0.57483 0.467 0.19793 0.0
H929 H 0.5921 0.46525 0.24755 0.0
H930 H 0.60988 0.52164 0.21447 0.0
H931 H 0.63054 0.53903 0.19555 0.0
H932 H 0.68709 0.53411 0.22088 0.0
H933 H 0.6668 0.51619 0.23984 0.0
C934 C 0.59091 0.53656 0.29732 0.0
C935 C 0.60955 0.54324 0.30418 0.0
C936 C 0.59197 0.52545 0.28448 0.0
C937 C 0.61171 0.52038 0.27841 0.0
C938 C 0.63036 0.52736 0.28515 0.0
C939 C 0.62929 0.53874 0.29791 0.0
C940 C 0.6128 0.50827 0.26485 0.0
C941 C 0.62463 0.51671 0.25354 0.0
C942 C 0.60133 0.48917 0.26277 0.0
C943 C 0.59023 0.47828 0.27464 0.0
C944 C 0.60116 0.47327 0.28726 0.0
C945 C 0.59062 0.46317 0.29846 0.0
C946 C 0.56917 0.45787 0.29714 0.0
C947 C 0.55824 0.46261 0.2846 0.0
C948 C 0.5687 0.47273 0.27337 0.0
C949 C 0.62812 0.46147 0.20335 0.0
C950 C 0.60851 0.46028 0.19624 0.0
C951 C 0.62941 0.47041 0.21695 0.0
C952 C 0.61109 0.47817 0.22369 0.0
C953 C 0.59143 0.47648 0.21677 0.0
C954 C 0.59017 0.46775 0.20313 0.0
C955 C 0.61236 0.4886 0.23781 0.0
C956 C 0.60097 0.4798 0.2492 0.0
C957 C 0.62461 0.50712 0.24007 0.0
C958 C 0.63687 0.51736 0.2285 0.0
C959 C 0.62677 0.52401 0.21592 0.0
C960 C 0.63842 0.53403 0.2052 0.0
C961 C 0.66014 0.53772 0.20701 0.0
C962 C 0.67028 0.53124 0.21949 0.0
C963 C 0.65872 0.52112 0.23022 0.0
H964 H 0.66912 0.5457 0.19879 0.0
H965 H 0.56104 0.45006 0.30583 0.0
H966 H 0.74504 0.35198 0.56233 0.0
H967 H 0.76079 0.35108 0.53855 0.0
H968 H 0.69829 0.35038 0.51983 0.0
H969 H 0.68234 0.35154 0.54365 0.0
H970 H 0.72788 0.31987 0.50819 0.0
H971 H 0.72317 0.39459 0.51907 0.0
H972 H 0.72903 0.42635 0.53389 0.0
H973 H 0.79642 0.41655 0.5318 0.0
H974 H 0.79094 0.38453 0.51713 0.0
H975 H 0.75668 0.34136 0.43699 0.0
H976 H 0.7407 0.34118 0.46064 0.0
H977 H 0.80134 0.35723 0.47916 0.0
H978 H 0.81718 0.35837 0.45537 0.0
H979 H 0.77252 0.37965 0.49125 0.0
H980 H 0.77882 0.30567 0.48095 0.0
H981 H 0.77455 0.27279 0.467 0.0
H982 H 0.70675 0.27931 0.46897 0.0
H983 H 0.71062 0.31239 0.48278 0.0
C984 C 0.73463 0.35159 0.55315 0.0
C985 C 0.71246 0.35188 0.55482 0.0
C986 C 0.74366 0.35113 0.53959 0.0
C987 C 0.73069 0.35079 0.52747 0.0
C988 C 0.70854 0.35065 0.52908 0.0
C989 C 0.69947 0.35138 0.54267 0.0
C990 C 0.74034 0.3508 0.51312 0.0
C991 C 0.73742 0.33303 0.50436 0.0
C992 C 0.75331 0.3677 0.5084 0.0
C993 C 0.75663 0.38705 0.51712 0.0
C994 C 0.73923 0.39911 0.52187 0.0
C995 C 0.74248 0.41718 0.53022 0.0
C996 C 0.76308 0.42343 0.53382 0.0
C997 C 0.78047 0.41167 0.52903 0.0
C998 C 0.7773 0.39357 0.52068 0.0
C999 C 0.76662 0.34474 0.44612 0.0
C1000 C 0.78819 0.34978 0.44437 0.0
C1001 C 0.7575 0.34453 0.45965 0.0
C1002 C 0.76987 0.34881 0.47176 0.0
C1003 C 0.79146 0.35383 0.47001 0.0
C1004 C 0.80052 0.35441 0.45642 0.0
C1005 C 0.76015 0.34864 0.48618 0.0
C1006 C 0.76304 0.3664 0.495 0.0
C1007 C 0.74742 0.33156 0.49104 0.0
C1008 C 0.74502 0.31162 0.48278 0.0
C1009 C 0.763 0.30017 0.47832 0.0
C1010 C 0.76065 0.28149 0.47045 0.0
C1011 C 0.74039 0.274 0.46707 0.0
C1012 C 0.72244 0.28515 0.47158 0.0
C1013 C 0.7247 0.30385 0.47944 0.0
H1014 H 0.73861 0.25953 0.46098 0.0
H1015 H 0.76556 0.43743 0.54029 0.0
H1016 H 0.10185 0.42853 0.29142 0.0
H1017 H 0.1017 0.44614 0.26817 0.0
H1018 H 0.10475 0.50719 0.28892 0.0
H1019 H 0.10416 0.48973 0.31209 0.0
H1020 H 0.07746 0.50914 0.26841 0.0
H1021 H 0.14881 0.48348 0.2726 0.0
H1022 H 0.17699 0.4569 0.27638 0.0
H1023 H 0.15515 0.42176 0.24007 0.0
H1024 H 0.12666 0.448 0.23618 0.0
H1025 H 0.11027 0.57038 0.20827 0.0
H1026 H 0.1096 0.55206 0.23129 0.0
H1027 H 0.09638 0.49285 0.21003 0.0
H1028 H 0.0969 0.51103 0.18704 0.0
H1029 H 0.12861 0.48979 0.23043 0.0
H1030 H 0.05737 0.51701 0.22644 0.0
H1031 H 0.0304 0.54486 0.22281 0.0
H1032 H 0.05392 0.57867 0.25922 0.0
H1033 H 0.08124 0.55115 0.26295 0.0
C1034 C 0.10248 0.4457 0.29099 0.0
C1035 C 0.10301 0.45776 0.30355 0.0
C1036 C 0.10251 0.45575 0.27771 0.0
C1037 C 0.10348 0.47801 0.27677 0.0
C1038 C 0.10395 0.49002 0.28935 0.0
C1039 C 0.10366 0.48001 0.30259 0.0
C1040 C 0.10375 0.48891 0.26275 0.0
C1041 C 0.08884 0.50506 0.26019 0.0
C1042 C 0.11834 0.48339 0.25189 0.0
C1043 C 0.13546 0.46759 0.25419 0.0
C1044 C 0.14992 0.47 0.26549 0.0
C1045 C 0.16596 0.45501 0.26764 0.0
C1046 C 0.16782 0.43762 0.2585 0.0
C1047 C 0.15367 0.43522 0.24716 0.0
C1048 C 0.13758 0.45015 0.24497 0.0
C1049 C 0.10715 0.55348 0.20852 0.0
C1050 C 0.10355 0.54214 0.19588 0.0
C1051 C 0.10674 0.54306 0.22166 0.0
C1052 C 0.10284 0.52113 0.22234 0.0
C1053 C 0.09942 0.50977 0.20972 0.0
C1054 C 0.09962 0.5202 0.19661 0.0
C1055 C 0.10242 0.50997 0.23621 0.0
C1056 C 0.11727 0.4938 0.2387 0.0
C1057 C 0.08797 0.51563 0.24707 0.0
C1058 C 0.07148 0.53213 0.24489 0.0
C1059 C 0.0569 0.53047 0.2336 0.0
C1060 C 0.04153 0.54618 0.23154 0.0
C1061 C 0.04048 0.56355 0.24076 0.0
C1062 C 0.05477 0.56522 0.25208 0.0
C1063 C 0.07019 0.54956 0.25418 0.0
H1064 H 0.02857 0.5757 0.23915 0.0
H1065 H 0.18026 0.42603 0.26018 0.0
H1066 H 0.31685 0.35046 0.04587 0.0
H1067 H 0.29977 0.35106 0.02246 0.0
H1068 H 0.23906 0.36215 0.04243 0.0
H1069 H 0.25592 0.36085 0.0658 0.0
H1070 H 0.23446 0.33406 0.02255 0.0
H1071 H 0.26756 0.40227 0.02516 0.0
H1072 H 0.29683 0.42773 0.02863 0.0
H1073 H 0.33063 0.40008 0.99355 0.0
H1074 H 0.30167 0.37425 0.98999 0.0
H1075 H 0.18045 0.36621 0.95896 0.0
H1076 H 0.19686 0.36665 0.98265 0.0
H1077 H 0.25623 0.34605 0.96441 0.0
H1078 H 0.23997 0.34547 0.94081 0.0
H1079 H 0.26081 0.37978 0.98338 0.0
H1080 H 0.22676 0.3112 0.9814 0.0
H1081 H 0.19649 0.2869 0.97803 0.0
H1082 H 0.16315 0.31727 0.01228 0.0
H1083 H 0.19312 0.34196 0.01573 0.0
C1084 C 0.29987 0.35303 0.04524 0.0
C1085 C 0.28772 0.3556 0.05764 0.0
C1086 C 0.29013 0.35349 0.03186 0.0
C1087 C 0.26814 0.35693 0.03065 0.0
C1088 C 0.25603 0.35945 0.04306 0.0
C1089 C 0.2657 0.35875 0.05642 0.0
C1090 C 0.25764 0.35755 0.01648 0.0
C1091 C 0.24007 0.3443 0.01407 0.0
C1092 C 0.26509 0.37067 0.0053 0.0
C1093 C 0.28253 0.38619 0.0074 0.0
C1094 C 0.28131 0.40151 0.01826 0.0
C1095 C 0.29783 0.41602 0.02023 0.0
C1096 C 0.3156 0.41548 0.01134 0.0
C1097 C 0.31686 0.40046 0.00044 0.0
C1098 C 0.30039 0.38589 0.99843 0.0
C1099 C 0.19698 0.36175 0.96003 0.0
C1100 C 0.20891 0.35572 0.94806 0.0
C1101 C 0.20631 0.36197 0.97354 0.0
C1102 C 0.22773 0.35629 0.97526 0.0
C1103 C 0.23969 0.35051 0.9633 0.0
C1104 C 0.23034 0.35009 0.94984 0.0
C1105 C 0.23776 0.35629 0.98953 0.0
C1106 C 0.25522 0.36964 0.99192 0.0
C1107 C 0.23007 0.34346 0.00074 0.0
C1108 C 0.21209 0.32856 0.99872 0.0
C1109 C 0.2129 0.31281 0.98813 0.0
C1110 C 0.19581 0.29894 0.98622 0.0
C1111 C 0.17788 0.30058 0.99491 0.0
C1112 C 0.17703 0.31605 0.00555 0.0
C1113 C 0.19407 0.32997 0.00749 0.0
H1114 H 0.16466 0.28983 0.99341 0.0
H1115 H 0.32838 0.42674 0.01288 0.0
H1116 H 0.36005 0.53007 0.80638 0.0
H1117 H 0.36078 0.51287 0.78307 0.0
H1118 H 0.4193 0.54514 0.77308 0.0
H1119 H 0.41866 0.5625 0.79643 0.0
H1120 H 0.39088 0.54415 0.75033 0.0
H1121 H 0.42063 0.49559 0.78466 0.0
H1122 H 0.42055 0.47448 0.80675 0.0
H1123 H 0.36589 0.44007 0.79215 0.0
H1124 H 0.36533 0.46134 0.77012 0.0
H1125 H 0.42503 0.48115 0.69278 0.0
H1126 H 0.42293 0.49939 0.71566 0.0
H1127 H 0.36861 0.46133 0.72714 0.0
H1128 H 0.37101 0.44259 0.70435 0.0
H1129 H 0.3941 0.46545 0.74919 0.0
H1130 H 0.36314 0.51301 0.71549 0.0
H1131 H 0.36124 0.53423 0.69348 0.0
H1132 H 0.4156 0.57029 0.70672 0.0
H1133 H 0.41802 0.54907 0.72873 0.0
C1134 C 0.37294 0.53373 0.79916 0.0
C1135 C 0.38937 0.54755 0.80325 0.0
C1136 C 0.37338 0.52381 0.78587 0.0
C1137 C 0.39025 0.52751 0.77645 0.0
C1138 C 0.40618 0.54203 0.78024 0.0
C1139 C 0.4058 0.55191 0.79356 0.0
C1140 C 0.39171 0.5156 0.76289 0.0
C1141 C 0.39185 0.52695 0.75006 0.0
C1142 C 0.39236 0.49313 0.76258 0.0
C1143 C 0.3928 0.48024 0.7758 0.0
C1144 C 0.40847 0.48368 0.78622 0.0
C1145 C 0.40854 0.47167 0.79873 0.0
C1146 C 0.39316 0.45602 0.80089 0.0
C1147 C 0.37774 0.45227 0.7905 0.0
C1148 C 0.37752 0.4643 0.778 0.0
C1149 C 0.41272 0.47657 0.70021 0.0
C1150 C 0.39812 0.46052 0.69676 0.0
C1151 C 0.41145 0.4871 0.71325 0.0
C1152 C 0.39535 0.48203 0.72301 0.0
C1153 C 0.38111 0.46558 0.71975 0.0
C1154 C 0.38248 0.4549 0.70673 0.0
C1155 C 0.39333 0.49398 0.73657 0.0
C1156 C 0.39309 0.48264 0.74942 0.0
C1157 C 0.39233 0.51645 0.73689 0.0
C1158 C 0.39088 0.52931 0.72369 0.0
C1159 C 0.37479 0.52536 0.71366 0.0
C1160 C 0.3736 0.5374 0.70119 0.0
C1161 C 0.38832 0.55357 0.69869 0.0
C1162 C 0.40423 0.55775 0.70867 0.0
C1163 C 0.40551 0.54573 0.72114 0.0
H1164 H 0.38737 0.56288 0.68903 0.0
H1165 H 0.39323 0.44675 0.81059 0.0
H1166 H 0.2391 0.66522 0.55882 0.0
H1167 H 0.25557 0.66537 0.53532 0.0
H1168 H 0.20149 0.63199 0.51813 0.0
H1169 H 0.18528 0.63113 0.54182 0.0
H1170 H 0.23599 0.61525 0.50812 0.0
H1171 H 0.21021 0.68623 0.5122 0.0
H1172 H 0.20505 0.72134 0.52327 0.0
H1173 H 0.27224 0.7326 0.52186 0.0
H1174 H 0.27784 0.69742 0.51095 0.0
H1175 H 0.25679 0.63824 0.43522 0.0
H1176 H 0.24105 0.63874 0.459 0.0
H1177 H 0.30158 0.65619 0.47697 0.0
H1178 H 0.31762 0.65534 0.45314 0.0
H1179 H 0.26432 0.68117 0.48633 0.0
H1180 H 0.28885 0.60893 0.48181 0.0
H1181 H 0.29225 0.57436 0.46973 0.0
H1182 H 0.22455 0.56654 0.47072 0.0
H1183 H 0.22073 0.60122 0.48267 0.0
C1184 C 0.23067 0.65801 0.55002 0.0
C1185 C 0.21087 0.64824 0.55212 0.0
C1186 C 0.24006 0.65819 0.53657 0.0
C1187 C 0.22964 0.64898 0.52488 0.0
C1188 C 0.20982 0.63922 0.52698 0.0
C1189 C 0.20054 0.63881 0.54049 0.0
C1190 C 0.23967 0.64909 0.51058 0.0
C1191 C 0.2419 0.62974 0.5033 0.0
C1192 C 0.24776 0.66792 0.50434 0.0
C1193 C 0.24446 0.6891 0.51089 0.0
C1194 C 0.2239 0.69613 0.51435 0.0
C1195 C 0.2209 0.71605 0.52058 0.0
C1196 C 0.23831 0.72917 0.5233 0.0
C1197 C 0.25877 0.72241 0.51977 0.0
C1198 C 0.26187 0.70249 0.51355 0.0
C1199 C 0.26676 0.64222 0.44423 0.0
C1200 C 0.28843 0.64674 0.44236 0.0
C1201 C 0.25776 0.64244 0.45779 0.0
C1202 C 0.2702 0.64744 0.46969 0.0
C1203 C 0.29177 0.6523 0.46787 0.0
C1204 C 0.30089 0.65174 0.4543 0.0
C1205 C 0.26057 0.64742 0.48403 0.0
C1206 C 0.2584 0.66676 0.49124 0.0
C1207 C 0.25225 0.62867 0.49011 0.0
C1208 C 0.2545 0.60775 0.48302 0.0
C1209 C 0.27468 0.59992 0.47935 0.0
C1210 C 0.27668 0.58029 0.47255 0.0
C1211 C 0.25862 0.56828 0.46944 0.0
C1212 C 0.23852 0.57587 0.47313 0.0
C1213 C 0.23643 0.5955 0.47994 0.0
H1214 H 0.26021 0.55307 0.46421 0.0
H1215 H 0.23595 0.74459 0.52813 0.0
H1216 H 0.33279 0.0234 0.16151 0.0
H1217 H 0.30678 0.99667 0.15413 0.0
H1218 H 0.33628 0.99315 0.1128 0.0
H1219 H 0.3627 0.01958 0.12021 0.0
H1220 H 0.28905 0.9974 0.11372 0.0
H1221 H 0.34726 0.95574 0.13282 0.0
H1222 H 0.37313 0.94607 0.15142 0.0
H1223 H 0.32221 0.93264 0.18043 0.0
H1224 H 0.29603 0.94255 0.16205 0.0
H1225 H 0.24008 0.90724 0.08498 0.0
H1226 H 0.26562 0.93367 0.09312 0.0
H1227 H 0.2486 0.92039 0.13672 0.0
H1228 H 0.2237 0.89303 0.12857 0.0
H1229 H 0.28884 0.92564 0.13553 0.0
H1230 H 0.23043 0.96584 0.11804 0.0
H1231 H 0.20286 0.97713 0.10102 0.0
H1232 H 0.25099 0.99553 0.07111 0.0
H1233 H 0.27886 0.98407 0.08788 0.0
C1234 C 0.33369 0.01699 0.15083 0.0
C1235 C 0.34975 0.02352 0.14142 0.0
C1236 C 0.31887 0.00171 0.14666 0.0
C1237 C 0.31972 0.99296 0.13296 0.0
C1238 C 0.33544 0.99977 0.12342 0.0
C1239 C 0.3505 0.01479 0.12767 0.0
C1240 C 0.30429 0.9765 0.12865 0.0
C1241 C 0.2891 0.9816 0.11832 0.0
C1242 C 0.30397 0.95626 0.13511 0.0
C1243 C 0.3197 0.9501 0.14611 0.0
C1244 C 0.34158 0.95091 0.1432 0.0
C1245 C 0.3563 0.94535 0.1537 0.0
C1246 C 0.34932 0.93881 0.16711 0.0
C1247 C 0.32759 0.93774 0.17004 0.0
C1248 C 0.31281 0.94331 0.15959 0.0
C1249 C 0.24182 0.90993 0.09631 0.0
C1250 C 0.22984 0.89822 0.10616 0.0
C1251 C 0.25632 0.92516 0.10095 0.0
C1252 C 0.25869 0.92945 0.11553 0.0
C1253 C 0.24699 0.91746 0.12542 0.0
C1254 C 0.23275 0.90187 0.12077 0.0
C1255 C 0.27351 0.94634 0.12039 0.0
C1256 C 0.28862 0.94141 0.13088 0.0
C1257 C 0.27345 0.96694 0.11429 0.0
C1258 C 0.25673 0.97392 0.10418 0.0
C1259 C 0.23514 0.97215 0.1078 0.0
C1260 C 0.21945 0.97861 0.0982 0.0
C1261 C 0.22517 0.987 0.08498 0.0
C1262 C 0.24659 0.98901 0.08135 0.0
C1263 C 0.26233 0.98256 0.0909 0.0
H1264 H 0.213 0.99198 0.07756 0.0
H1265 H 0.36074 0.93451 0.17522 0.0
H1266 H 0.22444 0.10656 0.37137 0.0
H1267 H 0.25026 0.07966 0.36377 0.0
H1268 H 0.25241 0.05473 0.40648 0.0
H1269 H 0.22627 0.0812 0.41407 0.0
H1270 H 0.29371 0.06362 0.39245 0.0
H1271 H 0.22682 0.02725 0.38536 0.0
H1272 H 0.19061 0.02366 0.37569 0.0
H1273 H 0.21502 0.02862 0.33316 0.0
H1274 H 0.25137 0.03256 0.3426 0.0
H1275 H 0.35315 0.97012 0.38047 0.0
H1276 H 0.32641 0.99585 0.38814 0.0
H1277 H 0.30912 0.007 0.34431 0.0
H1278 H 0.33512 0.98058 0.33669 0.0
H1279 H 0.27511 0.00565 0.35896 0.0
H1280 H 0.34095 0.04236 0.36448 0.0
H1281 H 0.37763 0.04815 0.37279 0.0
H1282 H 0.3565 0.04562 0.4162 0.0
H1283 H 0.31972 0.03953 0.40814 0.0
C1284 C 0.23038 0.09529 0.3791 0.0
C1285 C 0.22334 0.09589 0.39328 0.0
C1286 C 0.24507 0.07996 0.37476 0.0
C1287 C 0.25315 0.06527 0.38459 0.0
C1288 C 0.24631 0.06597 0.39877 0.0
C1289 C 0.23134 0.08102 0.40306 0.0
C1290 C 0.26886 0.04919 0.38009 0.0
C1291 C 0.28966 0.05076 0.38527 0.0
C1292 C 0.2636 0.03291 0.37038 0.0
C1293 C 0.24178 0.03044 0.3647 0.0
C1294 C 0.22444 0.02778 0.37396 0.0
C1295 C 0.2039 0.02564 0.36851 0.0
C1296 C 0.20051 0.02598 0.35382 0.0
C1297 C 0.21767 0.0284 0.34454 0.0
C1298 C 0.23824 0.03057 0.34993 0.0
C1299 C 0.3436 0.97806 0.3725 0.0
C1300 C 0.34622 0.97342 0.358 0.0
C1301 C 0.32841 0.99286 0.37687 0.0
C1302 C 0.31596 0.0037 0.36679 0.0
C1303 C 0.31849 0.99889 0.3523 0.0
C1304 C 0.33339 0.98382 0.34795 0.0
C1305 C 0.30021 0.01994 0.37131 0.0
C1306 C 0.27932 0.01846 0.36614 0.0
C1307 C 0.30552 0.03659 0.38081 0.0
C1308 C 0.32762 0.04027 0.3857 0.0
C1309 C 0.34415 0.04288 0.3758 0.0
C1310 C 0.36495 0.04624 0.38046 0.0
C1311 C 0.3694 0.0472 0.39502 0.0
C1312 C 0.35304 0.04485 0.40493 0.0
C1313 C 0.33221 0.04145 0.40032 0.0
H1314 H 0.38552 0.04981 0.39861 0.0
H1315 H 0.18459 0.02431 0.34963 0.0
H1316 H 0.17659 0.95607 0.64572 0.0
H1317 H 0.20276 0.98304 0.63935 0.0
H1318 H 0.15235 0.02812 0.63188 0.0
H1319 H 0.12606 0.0008 0.63763 0.0
H1320 H 0.18077 0.03328 0.61261 0.0
H1321 H 0.18347 0.02797 0.66321 0.0
H1322 H 0.18658 0.0102 0.6865 0.0
H1323 H 0.24925 0.98879 0.67568 0.0
H1324 H 0.24641 0.0062 0.65223 0.0
H1325 H 0.24879 0.12425 0.61673 0.0
H1326 H 0.22192 0.09801 0.62361 0.0
H1327 H 0.26817 0.04796 0.61927 0.0
H1328 H 0.29499 0.07403 0.61209 0.0
H1329 H 0.2415 0.04674 0.64503 0.0
H1330 H 0.23688 0.05279 0.5937 0.0
H1331 H 0.23285 0.07271 0.57127 0.0
H1332 H 0.17201 0.09558 0.58504 0.0
H1333 H 0.17585 0.07605 0.60766 0.0
C1334 C 0.1711 0.97171 0.64264 0.0
C1335 C 0.14931 0.9764 0.64223 0.0
C1336 C 0.18607 0.98717 0.6391 0.0
C1337 C 0.17959 0.00782 0.63546 0.0
C1338 C 0.15777 0.01236 0.63472 0.0
C1339 C 0.14276 0.99676 0.63801 0.0
C1340 C 0.19557 0.02463 0.63248 0.0
C1341 C 0.19384 0.03639 0.61983 0.0
C1342 C 0.21283 0.02865 0.6418 0.0
C1343 C 0.21464 0.01823 0.65591 0.0
C1344 C 0.19786 0.01935 0.66576 0.0
C1345 C 0.19958 0.00936 0.67899 0.0
C1346 C 0.21808 0.99833 0.68255 0.0
C1347 C 0.23492 0.99732 0.6729 0.0
C1348 C 0.23327 0.00726 0.65964 0.0
C1349 C 0.25327 0.10767 0.61737 0.0
C1350 C 0.27394 0.10114 0.61385 0.0
C1351 C 0.23791 0.09273 0.62126 0.0
C1352 C 0.2431 0.07109 0.62187 0.0
C1353 C 0.26391 0.06461 0.61885 0.0
C1354 C 0.27917 0.07949 0.61473 0.0
C1355 C 0.22664 0.0551 0.62521 0.0
C1356 C 0.22832 0.04358 0.6379 0.0
C1357 C 0.20916 0.05157 0.61608 0.0
C1358 C 0.20676 0.06315 0.60243 0.0
C1359 C 0.22273 0.06222 0.592 0.0
C1360 C 0.22047 0.07341 0.57924 0.0
C1361 C 0.20222 0.08545 0.57675 0.0
C1362 C 0.18616 0.08628 0.58699 0.0
C1363 C 0.18836 0.07514 0.59978 0.0
H1364 H 0.20049 0.0941 0.56686 0.0
H1365 H 0.21939 0.99061 0.6928 0.0
H1366 H 0.13137 0.01459 0.87683 0.0
H1367 H 0.15868 0.9892 0.8842 0.0
H1368 H 0.19983 0.01182 0.85076 0.0
H1369 H 0.17289 0.03758 0.84364 0.0
H1370 H 0.17583 0.95692 0.87134 0.0
H1371 H 0.2511 0.00783 0.86035 0.0
H1372 H 0.26203 0.04542 0.86105 0.0
H1373 H 0.21323 0.05871 0.89168 0.0
H1374 H 0.2022 0.02117 0.89131 0.0
H1375 H 0.26512 0.88903 0.86983 0.0
H1376 H 0.23861 0.91601 0.86385 0.0
H1377 H 0.25684 0.95223 0.90087 0.0
H1378 H 0.28385 0.92577 0.90656 0.0
H1379 H 0.25053 0.97808 0.88025 0.0
H1380 H 0.21125 0.92033 0.90006 0.0
H1381 H 0.19936 0.88322 0.90253 0.0
H1382 H 0.17434 0.88457 0.86004 0.0
H1383 H 0.18634 0.92162 0.85725 0.0
C1384 C 0.14631 0.01424 0.87114 0.0
C1385 C 0.15006 0.02814 0.85972 0.0
C1386 C 0.16187 0.99968 0.87532 0.0
C1387 C 0.18141 0.99873 0.86814 0.0
C1388 C 0.18507 0.01252 0.85665 0.0
C1389 C 0.16962 0.02719 0.85256 0.0
C1390 C 0.19782 0.98307 0.87245 0.0
C1391 C 0.19216 0.96156 0.87331 0.0
C1392 C 0.21904 0.98913 0.87529 0.0
C1393 C 0.2257 0.01172 0.87568 0.0
C1394 C 0.24275 0.01876 0.86727 0.0
C1395 C 0.24896 0.04006 0.86761 0.0
C1396 C 0.23829 0.05446 0.87637 0.0
C1397 C 0.22143 0.04757 0.88485 0.0
C1398 C 0.21518 0.02628 0.88457 0.0
C1399 C 0.26354 0.90282 0.87663 0.0
C1400 C 0.27649 0.90529 0.88868 0.0
C1401 C 0.2483 0.91817 0.87326 0.0
C1402 C 0.24546 0.93601 0.88204 0.0
C1403 C 0.2587 0.93863 0.89393 0.0
C1404 C 0.27411 0.92347 0.89719 0.0
C1405 C 0.22862 0.95188 0.87896 0.0
C1406 C 0.2342 0.97343 0.87829 0.0
C1407 C 0.20719 0.94593 0.87674 0.0
C1408 C 0.19986 0.92368 0.8784 0.0
C1409 C 0.20334 0.91267 0.89121 0.0
C1410 C 0.19657 0.89165 0.89267 0.0
C1411 C 0.18615 0.88153 0.88144 0.0
C1412 C 0.18243 0.89242 0.86873 0.0
C1413 C 0.1892 0.91344 0.8672 0.0
H1414 H 0.18092 0.86526 0.88259 0.0
H1415 H 0.24311 0.07094 0.87661 0.0
H1416 H 0.79013 0.07334 0.8965 0.0
H1417 H 0.76367 0.04699 0.88933 0.0
H1418 H 0.72119 0.09716 0.87649 0.0
H1419 H 0.74763 0.12365 0.8836 0.0
H1420 H 0.70176 0.06647 0.89345 0.0
H1421 H 0.7453 0.06961 0.85163 0.0
H1422 H 0.77884 0.06867 0.83812 0.0
H1423 H 0.7901 0.00481 0.85219 0.0
H1424 H 0.75675 0.00547 0.86596 0.0
H1425 H 0.62713 0.00085 0.85716 0.0
H1426 H 0.6527 0.02819 0.86408 0.0
H1427 H 0.69924 0.97973 0.87307 0.0
H1428 H 0.6739 0.95238 0.86587 0.0
H1429 H 0.71634 0.01038 0.85771 0.0
H1430 H 0.67368 0.00701 0.89987 0.0
H1431 H 0.6406 0.00761 0.91389 0.0
H1432 H 0.6281 0.07126 0.89986 0.0
H1433 H 0.66099 0.07094 0.8856 0.0
C1434 C 0.77521 0.07875 0.89205 0.0
C1435 C 0.77094 0.10053 0.89058 0.0
C1436 C 0.76015 0.06369 0.88795 0.0
C1437 C 0.74054 0.07016 0.88233 0.0
C1438 C 0.73624 0.09189 0.8808 0.0
C1439 C 0.75139 0.10696 0.8848 0.0
C1440 C 0.72435 0.05418 0.87836 0.0
C1441 C 0.70478 0.05438 0.88548 0.0
C1442 C 0.72859 0.03813 0.86824 0.0
C1443 C 0.74863 0.03767 0.85994 0.0
C1444 C 0.75502 0.05543 0.85195 0.0
C1445 C 0.77397 0.05494 0.84422 0.0
C1446 C 0.78662 0.03671 0.84433 0.0
C1447 C 0.7803 0.01893 0.85213 0.0
C1448 C 0.76136 0.01934 0.85989 0.0
C1449 C 0.64274 0.99603 0.86075 0.0
C1450 C 0.64853 0.97449 0.86099 0.0
C1451 C 0.65732 0.01166 0.86474 0.0
C1452 C 0.67785 0.006 0.86919 0.0
C1453 C 0.68351 0.98446 0.86964 0.0
C1454 C 0.66899 0.96885 0.86559 0.0
C1455 C 0.69371 0.02253 0.87286 0.0
C1456 C 0.71324 0.02246 0.86567 0.0
C1457 C 0.68948 0.03862 0.88299 0.0
C1458 C 0.66969 0.03886 0.89155 0.0
C1459 C 0.66379 0.02107 0.89968 0.0
C1460 C 0.64509 0.02138 0.90769 0.0
C1461 C 0.63223 0.03944 0.90773 0.0
C1462 C 0.63807 0.05727 0.8998 0.0
C1463 C 0.65674 0.05704 0.89176 0.0
H1464 H 0.61776 0.03965 0.91394 0.0
H1465 H 0.80129 0.03636 0.83833 0.0
H1466 H 0.66952 0.04195 0.63164 0.0
H1467 H 0.6941 0.01417 0.62407 0.0
H1468 H 0.64822 0.96633 0.63558 0.0
H1469 H 0.62343 0.99415 0.64319 0.0
H1470 H 0.68853 0.95843 0.64642 0.0
H1471 H 0.65712 0.97547 0.60145 0.0
H1472 H 0.64522 0.99907 0.5821 0.0
H1473 H 0.70933 0.02008 0.57558 0.0
H1474 H 0.72159 0.99682 0.59503 0.0
H1475 H 0.74995 0.87417 0.61676 0.0
H1476 H 0.72154 0.89894 0.62305 0.0
H1477 H 0.75945 0.95117 0.60763 0.0
H1478 H 0.78757 0.9264 0.60091 0.0
H1479 H 0.72069 0.95505 0.59829 0.0
H1480 H 0.75207 0.94071 0.64393 0.0
H1481 H 0.7647 0.91832 0.66373 0.0
H1482 H 0.70177 0.89357 0.66949 0.0
H1483 H 0.68882 0.91563 0.6496 0.0
C1484 C 0.66456 0.02552 0.63242 0.0
C1485 C 0.64455 0.0202 0.63798 0.0
C1486 C 0.6786 0.00968 0.62806 0.0
C1487 C 0.67292 0.98821 0.62919 0.0
C1488 C 0.65286 0.98282 0.6346 0.0
C1489 C 0.63871 0.99871 0.63888 0.0
C1490 C 0.68837 0.97149 0.62525 0.0
C1491 C 0.69531 0.9574 0.63583 0.0
C1492 C 0.69755 0.97058 0.61154 0.0
C1493 C 0.69024 0.98452 0.59978 0.0
C1494 C 0.66866 0.98524 0.59596 0.0
C1495 C 0.66186 0.99854 0.58496 0.0
C1496 C 0.6765 0.0111 0.57763 0.0
C1497 C 0.698 0.01035 0.58127 0.0
C1498 C 0.70489 0.9971 0.59227 0.0
C1499 C 0.75227 0.89096 0.61482 0.0
C1500 C 0.77098 0.89838 0.60837 0.0
C1501 C 0.73605 0.90511 0.61845 0.0
C1502 C 0.73842 0.92697 0.61594 0.0
C1503 C 0.75722 0.93438 0.60964 0.0
C1504 C 0.77332 0.92023 0.60586 0.0
C1505 C 0.72117 0.94212 0.61953 0.0
C1506 C 0.71384 0.95593 0.60887 0.0
C1507 C 0.71178 0.9429 0.63321 0.0
C1508 C 0.71953 0.92964 0.64518 0.0
C1509 C 0.74097 0.93037 0.64935 0.0
C1510 C 0.74817 0.91776 0.6606 0.0
C1511 C 0.73406 0.90448 0.66783 0.0
C1512 C 0.71269 0.90383 0.66386 0.0
C1513 C 0.70541 0.91639 0.65261 0.0
H1514 H 0.73967 0.89474 0.67654 0.0
H1515 H 0.6712 0.02138 0.56912 0.0
H1516 H 0.7224 0.89308 0.36619 0.0
H1517 H 0.7484 0.91935 0.35805 0.0
H1518 H 0.75567 0.94186 0.40118 0.0
H1519 H 0.72911 0.91639 0.40918 0.0
H1520 H 0.75449 0.97401 0.38481 0.0
H1521 H 0.79298 0.90839 0.38392 0.0
H1522 H 0.80008 0.87116 0.37735 0.0
H1523 H 0.80136 0.88838 0.33315 0.0
H1524 H 0.79399 0.92569 0.33944 0.0
H1525 H 0.85475 0.02633 0.37655 0.0
H1526 H 0.82768 0.00023 0.38339 0.0
H1527 H 0.81013 0.99254 0.33933 0.0
H1528 H 0.83682 0.01885 0.33245 0.0
H1529 H 0.8165 0.95336 0.35537 0.0
H1530 H 0.77893 0.02014 0.35766 0.0
H1531 H 0.77369 0.05711 0.36553 0.0
H1532 H 0.77309 0.03673 0.40913 0.0
H1533 H 0.77865 0.99966 0.40152 0.0
C1534 C 0.72955 0.90369 0.37389 0.0
C1535 C 0.72376 0.90271 0.3883 0.0
C1536 C 0.74449 0.91861 0.36926 0.0
C1537 C 0.75427 0.93243 0.37903 0.0
C1538 C 0.74836 0.93145 0.39342 0.0
C1539 C 0.7332 0.91684 0.39799 0.0
C1540 C 0.77053 0.94806 0.37437 0.0
C1541 C 0.76816 0.96937 0.37852 0.0
C1542 C 0.78826 0.94219 0.36596 0.0
C1543 C 0.79271 0.91978 0.36214 0.0
C1544 C 0.79461 0.90421 0.37279 0.0
C1545 C 0.79871 0.8831 0.36912 0.0
C1546 C 0.8011 0.8774 0.35484 0.0
C1547 C 0.79946 0.89281 0.3442 0.0
C1548 C 0.79534 0.91394 0.34782 0.0
C1549 C 0.8451 0.01907 0.36834 0.0
C1550 C 0.8478 0.02464 0.35398 0.0
C1551 C 0.82967 0.00422 0.37225 0.0
C1552 C 0.81694 0.99455 0.36185 0.0
C1553 C 0.81984 0.99984 0.3475 0.0
C1554 C 0.835 0.01493 0.3436 0.0
C1555 C 0.80042 0.97903 0.36594 0.0
C1556 C 0.80277 0.95784 0.36166 0.0
C1557 C 0.78289 0.9849 0.37444 0.0
C1558 C 0.77943 0.00716 0.37902 0.0
C1559 C 0.77787 0.02357 0.36893 0.0
C1560 C 0.7748 0.04453 0.37334 0.0
C1561 C 0.77312 0.04927 0.38782 0.0
C1562 C 0.77443 0.03304 0.39792 0.0
C1563 C 0.77753 0.01205 0.39356 0.0
H1564 H 0.77074 0.06551 0.39122 0.0
H1565 H 0.80428 0.86105 0.35202 0.0
H1566 H 0.70527 0.07797 0.11725 0.0
H1567 H 0.73206 0.05138 0.12363 0.0
H1568 H 0.78116 0.09878 0.12009 0.0
H1569 H 0.7544 0.12558 0.11403 0.0
H1570 H 0.78734 0.05895 0.10395 0.0
H1571 H 0.77107 0.08491 0.15102 0.0
H1572 H 0.74723 0.09412 0.17089 0.0
H1573 H 0.72571 0.02953 0.17305 0.0
H1574 H 0.7492 0.02001 0.15303 0.0
H1575 H 0.87459 0.99995 0.1304 0.0
H1576 H 0.84771 0.02677 0.12508 0.0
H1577 H 0.79875 0.98458 0.14033 0.0
H1578 H 0.82569 0.958 0.14614 0.0
H1579 H 0.79202 0.02208 0.15049 0.0
H1580 H 0.80657 0.99508 0.10411 0.0
H1581 H 0.82837 0.98446 0.08352 0.0
H1582 H 0.85055 0.04853 0.0789 0.0
H1583 H 0.82909 0.0595 0.0996 0.0
C1584 C 0.72174 0.08276 0.11802 0.0
C1585 C 0.72779 0.10381 0.11518 0.0
C1586 C 0.73699 0.06759 0.12166 0.0
C1587 C 0.75852 0.07318 0.12229 0.0
C1588 C 0.76458 0.09423 0.11963 0.0
C1589 C 0.7493 0.1095 0.11626 0.0
C1590 C 0.77478 0.05683 0.12519 0.0
C1591 C 0.78864 0.05106 0.11418 0.0
C1592 C 0.77583 0.04611 0.13837 0.0
C1593 C 0.76172 0.0518 0.15042 0.0
C1594 C 0.7611 0.07272 0.15563 0.0
C1595 C 0.74769 0.07798 0.16694 0.0
C1596 C 0.73492 0.06244 0.1732 0.0
C1597 C 0.73558 0.04157 0.16818 0.0
C1598 C 0.74896 0.03622 0.15686 0.0
C1599 C 0.85807 0.99633 0.13249 0.0
C1600 C 0.85222 0.97688 0.13865 0.0
C1601 C 0.8427 0.01164 0.1294 0.0
C1602 C 0.82114 0.00763 0.13215 0.0
C1603 C 0.81527 0.98807 0.13813 0.0
C1604 C 0.83066 0.97285 0.14138 0.0
C1605 C 0.8048 0.02409 0.12924 0.0
C1606 C 0.79084 0.02989 0.14024 0.0
C1607 C 0.80341 0.03459 0.11594 0.0
C1608 C 0.81639 0.02806 0.1035 0.0
C1609 C 0.81623 0.00688 0.09878 0.0
C1610 C 0.8285 0.0008 0.08708 0.0
C1611 C 0.84088 0.0158 0.07993 0.0
C1612 C 0.84097 0.03693 0.08446 0.0
C1613 C 0.82875 0.04308 0.09617 0.0
H1614 H 0.85036 0.01107 0.07087 0.0
H1615 H 0.72455 0.06654 0.18196 0.0
H1616 H 0.75538 0.37668 0.61485 0.0
H1617 H 0.78293 0.40252 0.62075 0.0
H1618 H 0.73823 0.45354 0.61425 0.0
H1619 H 0.71084 0.42774 0.60781 0.0
H1620 H 0.77379 0.46315 0.60203 0.0
H1621 H 0.75512 0.43677 0.64827 0.0
H1622 H 0.74887 0.40953 0.66665 0.0
H1623 H 0.81375 0.3892 0.66337 0.0
H1624 H 0.82032 0.41614 0.64484 0.0
H1625 H 0.82992 0.54569 0.63698 0.0
H1626 H 0.80459 0.51841 0.62974 0.0
H1627 H 0.85394 0.47105 0.63196 0.0
H1628 H 0.87946 0.49835 0.63931 0.0
H1629 H 0.81753 0.45879 0.64583 0.0
H1630 H 0.83595 0.48726 0.60009 0.0
H1631 H 0.84144 0.51556 0.58235 0.0
H1632 H 0.77577 0.53321 0.5855 0.0
H1633 H 0.76994 0.5052 0.60342 0.0
C1634 C 0.75139 0.3934 0.61481 0.0
C1635 C 0.73096 0.40021 0.61092 0.0
C1636 C 0.76714 0.40817 0.61823 0.0
C1637 C 0.76263 0.43001 0.61812 0.0
C1638 C 0.74211 0.43679 0.6144 0.0
C1639 C 0.72645 0.42204 0.61078 0.0
C1640 C 0.77941 0.44584 0.62145 0.0
C1641 C 0.78315 0.46233 0.61171 0.0
C1642 C 0.79205 0.44451 0.6339 0.0
C1643 C 0.78815 0.42833 0.64507 0.0
C1644 C 0.76801 0.42638 0.65139 0.0
C1645 C 0.76442 0.41102 0.66185 0.0
C1646 C 0.78088 0.3976 0.66615 0.0
C1647 C 0.801 0.39957 0.66002 0.0
C1648 C 0.80467 0.4149 0.64955 0.0
C1649 C 0.83546 0.52951 0.63578 0.0
C1650 C 0.85668 0.52414 0.63869 0.0
C1651 C 0.82097 0.51395 0.63161 0.0
C1652 C 0.82742 0.49273 0.63022 0.0
C1653 C 0.84866 0.48735 0.63295 0.0
C1654 C 0.86322 0.50295 0.63708 0.0
C1655 C 0.8117 0.47612 0.62647 0.0
C1656 C 0.8082 0.45951 0.63614 0.0
C1657 C 0.79912 0.47746 0.61403 0.0
C1658 C 0.80256 0.49423 0.60319 0.0
C1659 C 0.82271 0.49728 0.59708 0.0
C1660 C 0.82588 0.51325 0.58698 0.0
C1661 C 0.80897 0.52621 0.58282 0.0
C1662 C 0.78885 0.52318 0.58874 0.0
C1663 C 0.7856 0.50724 0.59885 0.0
H1664 H 0.81146 0.53857 0.575 0.0
H1665 H 0.77807 0.38572 0.67425 0.0
H1666 H 0.86988 0.48413 0.87854 0.0
H1667 H 0.84526 0.51206 0.88628 0.0
H1668 H 0.8121 0.50763 0.84623 0.0
H1669 H 0.83652 0.47988 0.83845 0.0
H1670 H 0.81915 0.54917 0.85447 0.0
H1671 H 0.79209 0.48391 0.87486 0.0
H1672 H 0.79459 0.45133 0.88932 0.0
H1673 H 0.80904 0.48858 0.92634 0.0
H1674 H 0.8069 0.52137 0.91204 0.0
H1675 H 0.72132 0.60018 0.86978 0.0
H1676 H 0.74993 0.57613 0.86263 0.0
H1677 H 0.77331 0.57534 0.90583 0.0
H1678 H 0.74415 0.59844 0.9131 0.0
H1679 H 0.77332 0.53753 0.89667 0.0
H1680 H 0.79877 0.60299 0.87728 0.0
H1681 H 0.79718 0.636 0.86322 0.0
H1682 H 0.78739 0.5998 0.82507 0.0
H1683 H 0.78864 0.56657 0.83893 0.0
C1684 C 0.85737 0.48919 0.8714 0.0
C1685 C 0.85504 0.47977 0.85794 0.0
C1686 C 0.84333 0.50509 0.87582 0.0
C1687 C 0.82681 0.5118 0.86684 0.0
C1688 C 0.82476 0.5027 0.8533 0.0
C1689 C 0.83866 0.48677 0.84891 0.0
C1690 C 0.81121 0.5279 0.87159 0.0
C1691 C 0.809 0.54663 0.86364 0.0
C1692 C 0.79839 0.52476 0.88375 0.0
C1693 C 0.79956 0.50506 0.89235 0.0
C1694 C 0.79597 0.48513 0.88606 0.0
C1695 C 0.79729 0.46663 0.89423 0.0
C1696 C 0.80203 0.46788 0.90873 0.0
C1697 C 0.8054 0.48763 0.9151 0.0
C1698 C 0.80412 0.50618 0.90697 0.0
C1699 C 0.73267 0.59494 0.8777 0.0
C1700 C 0.73053 0.60108 0.89198 0.0
C1701 C 0.74911 0.58131 0.8736 0.0
C1702 C 0.76402 0.57409 0.88365 0.0
C1703 C 0.76203 0.5806 0.89788 0.0
C1704 C 0.74538 0.59384 0.90202 0.0
C1705 C 0.7811 0.55898 0.87954 0.0
C1706 C 0.78357 0.54034 0.88759 0.0
C1707 C 0.79431 0.56234 0.86755 0.0
C1708 C 0.79362 0.5823 0.85917 0.0
C1709 C 0.79613 0.60208 0.86591 0.0
C1710 C 0.79532 0.62082 0.85797 0.0
C1711 C 0.79214 0.62 0.84326 0.0
C1712 C 0.78983 0.60041 0.83646 0.0
C1713 C 0.79062 0.58162 0.84435 0.0
H1714 H 0.79151 0.63453 0.83714 0.0
H1715 H 0.80305 0.45354 0.91504 0.0
H1716 H 0.78774 0.57702 0.10503 0.0
H1717 H 0.75783 0.55339 0.10968 0.0
H1718 H 0.7163 0.60752 0.1139 0.0
H1719 H 0.74641 0.63131 0.10966 0.0
H1720 H 0.70732 0.57975 0.13355 0.0
H1721 H 0.71611 0.57653 0.08352 0.0
H1722 H 0.73517 0.57251 0.06077 0.0
H1723 H 0.75173 0.50849 0.07178 0.0
H1724 H 0.73304 0.5122 0.09471 0.0
H1725 H 0.61822 0.50957 0.13512 0.0
H1726 H 0.64196 0.53754 0.12637 0.0
H1727 H 0.6934 0.49242 0.12426 0.0
H1728 H 0.66978 0.46446 0.13275 0.0
H1729 H 0.69337 0.51887 0.10138 0.0
H1730 H 0.68531 0.52507 0.15282 0.0
H1731 H 0.66442 0.53049 0.17466 0.0
H1732 H 0.64446 0.59167 0.15959 0.0
H1733 H 0.66465 0.58627 0.13739 0.0
C1734 C 0.77226 0.58389 0.10704 0.0
C1735 C 0.76938 0.60599 0.10696 0.0
C1736 C 0.75513 0.57037 0.10957 0.0
C1737 C 0.7347 0.57865 0.11182 0.0
C1738 C 0.73189 0.60076 0.1121 0.0
C1739 C 0.7491 0.61433 0.10971 0.0
C1740 C 0.71643 0.56415 0.11409 0.0
C1741 C 0.70403 0.56667 0.12636 0.0
C1742 C 0.7121 0.54707 0.10472 0.0
C1743 C 0.72329 0.5447 0.0909 0.0
C1744 C 0.72394 0.56163 0.08115 0.0
C1745 C 0.73465 0.55941 0.06821 0.0
C1746 C 0.74468 0.54028 0.06485 0.0
C1747 C 0.74396 0.5233 0.07441 0.0
C1748 C 0.73329 0.52545 0.08737 0.0
C1749 C 0.63453 0.5056 0.13263 0.0
C1750 C 0.6422 0.48488 0.13472 0.0
C1751 C 0.64807 0.52159 0.12766 0.0
C1752 C 0.66951 0.51711 0.12483 0.0
C1753 C 0.67692 0.49624 0.12638 0.0
C1754 C 0.66342 0.48029 0.1313 0.0
C1755 C 0.6847 0.53418 0.12101 0.0
C1756 C 0.69652 0.53214 0.10843 0.0
C1757 C 0.68823 0.55192 0.12996 0.0
C1758 C 0.67628 0.55516 0.14338 0.0
C1759 C 0.67631 0.53959 0.1541 0.0
C1760 C 0.66459 0.54267 0.16655 0.0
C1761 C 0.65314 0.56145 0.16853 0.0
C1762 C 0.65332 0.57714 0.15803 0.0
C1763 C 0.66484 0.57404 0.1455 0.0
H1764 H 0.64417 0.56392 0.17819 0.0
H1765 H 0.75297 0.53859 0.05482 0.0
H1766 H 0.78651 0.42545 0.3958 0.0
H1767 H 0.75863 0.45104 0.39015 0.0
H1768 H 0.7174 0.39991 0.37708 0.0
H1769 H 0.74558 0.37426 0.38228 0.0
H1770 H 0.71317 0.43192 0.3595 0.0
H1771 H 0.7121 0.42435 0.41001 0.0
H1772 H 0.72698 0.4234 0.43427 0.0
H1773 H 0.7459 0.48863 0.43046 0.0
H1774 H 0.7314 0.48988 0.40609 0.0
H1775 H 0.62135 0.49814 0.35993 0.0
H1776 H 0.64585 0.46984 0.36708 0.0
H1777 H 0.69449 0.51645 0.37529 0.0
H1778 H 0.67015 0.54475 0.36817 0.0
H1779 H 0.69243 0.48486 0.39607 0.0
H1780 H 0.69465 0.4908 0.34465 0.0
H1781 H 0.6783 0.49124 0.3208 0.0
H1782 H 0.65532 0.42777 0.32711 0.0
H1783 H 0.67127 0.42709 0.3511 0.0
C1784 C 0.77155 0.41968 0.39164 0.0
C1785 C 0.76816 0.39787 0.38955 0.0
C1786 C 0.75557 0.4343 0.3885 0.0
C1787 C 0.73573 0.42737 0.38349 0.0
C1788 C 0.73253 0.40562 0.38101 0.0
C1789 C 0.74863 0.39099 0.38398 0.0
C1790 C 0.71834 0.44285 0.38097 0.0
C1791 C 0.70842 0.44326 0.36759 0.0
C1792 C 0.71221 0.45779 0.39147 0.0
C1793 C 0.72081 0.45715 0.40617 0.0
C1794 C 0.71956 0.43845 0.41431 0.0
C1795 C 0.72791 0.43786 0.42809 0.0
C1796 C 0.73741 0.45593 0.43389 0.0
C1797 C 0.73854 0.47464 0.42595 0.0
C1798 C 0.73024 0.47531 0.41215 0.0
C1799 C 0.63717 0.50235 0.36345 0.0
C1800 C 0.6439 0.52362 0.36343 0.0
C1801 C 0.65116 0.48619 0.36747 0.0
C1802 C 0.67203 0.49108 0.37156 0.0
C1803 C 0.67845 0.51237 0.37214 0.0
C1804 C 0.66455 0.5285 0.36804 0.0
C1805 C 0.68758 0.47404 0.3746 0.0
C1806 C 0.69712 0.47336 0.38807 0.0
C1807 C 0.69318 0.45873 0.36425 0.0
C1808 C 0.68396 0.45898 0.34972 0.0
C1809 C 0.68599 0.47699 0.34099 0.0
C1810 C 0.67681 0.47728 0.32744 0.0
C1811 C 0.66572 0.45957 0.32246 0.0
C1812 C 0.66388 0.44149 0.33099 0.0
C1813 C 0.673 0.44114 0.34456 0.0
H1814 H 0.65859 0.45983 0.31198 0.0
H1815 H 0.74387 0.45544 0.44456 0.0
H1816 H 0.1252 0.49639 0.36468 0.0
H1817 H 0.1519 0.52284 0.37145 0.0
H1818 H 0.20086 0.47518 0.3688 0.0
H1819 H 0.17433 0.44874 0.36167 0.0
H1820 H 0.20169 0.5051 0.39407 0.0
H1821 H 0.19876 0.5027 0.34248 0.0
H1822 H 0.17996 0.50366 0.31947 0.0
H1823 H 0.15667 0.56614 0.32894 0.0
H1824 H 0.17506 0.56538 0.35213 0.0
H1825 H 0.29298 0.57012 0.39251 0.0
H1826 H 0.26646 0.54291 0.38718 0.0
H1827 H 0.22105 0.59169 0.37651 0.0
H1828 H 0.24774 0.61892 0.38137 0.0
H1829 H 0.21771 0.5609 0.35836 0.0
H1830 H 0.2203 0.56507 0.40912 0.0
H1831 H 0.23685 0.5649 0.43291 0.0
H1832 H 0.2582 0.50094 0.42629 0.0
H1833 H 0.24203 0.50082 0.40237 0.0
C1834 C 0.1416 0.49149 0.36574 0.0
C1835 C 0.14775 0.47057 0.36261 0.0
C1836 C 0.1568 0.5066 0.36957 0.0
C1837 C 0.17828 0.5009 0.37055 0.0
C1838 C 0.18432 0.4798 0.3681 0.0
C1839 C 0.16919 0.46478 0.36401 0.0
C1840 C 0.19459 0.51728 0.37322 0.0
C1841 C 0.20544 0.51719 0.38624 0.0
C1842 C 0.19892 0.5333 0.36311 0.0
C1843 C 0.18808 0.53388 0.34911 0.0
C1844 C 0.18947 0.51656 0.33971 0.0
C1845 C 0.17892 0.51708 0.32663 0.0
C1846 C 0.16707 0.53492 0.32277 0.0
C1847 C 0.16582 0.55231 0.33196 0.0
C1848 C 0.17631 0.55185 0.34507 0.0
C1849 C 0.27739 0.57502 0.38891 0.0
C1850 C 0.27239 0.59663 0.38738 0.0
C1851 C 0.26219 0.55947 0.38598 0.0
C1852 C 0.24161 0.56525 0.38172 0.0
C1853 C 0.23679 0.58683 0.37983 0.0
C1854 C 0.25205 0.60238 0.38261 0.0
C1855 C 0.22507 0.54885 0.37927 0.0
C1856 C 0.21408 0.5489 0.36626 0.0
C1857 C 0.22039 0.53298 0.3895 0.0
C1858 C 0.23013 0.53301 0.40389 0.0
C1859 C 0.22866 0.55102 0.41269 0.0
C1860 C 0.23795 0.55097 0.4262 0.0
C1861 C 0.24861 0.53294 0.43108 0.0
C1862 C 0.24996 0.5149 0.42248 0.0
C1863 C 0.24073 0.51488 0.40895 0.0
H1864 H 0.2558 0.5329 0.44154 0.0
H1865 H 0.1589 0.53529 0.31263 0.0
H1866 H 0.24777 0.37813 0.11717 0.0
H1867 H 0.22186 0.40554 0.12355 0.0
H1868 H 0.27136 0.4528 0.12305 0.0
H1869 H 0.29733 0.42555 0.11641 0.0
H1870 H 0.24136 0.45483 0.14707 0.0
H1871 H 0.24353 0.45105 0.09565 0.0
H1872 H 0.24188 0.43216 0.07269 0.0
H1873 H 0.17838 0.41167 0.08207 0.0
H1874 H 0.17981 0.43016 0.1052 0.0
H1875 H 0.17937 0.54775 0.14598 0.0
H1876 H 0.2056 0.52053 0.14013 0.0
H1877 H 0.15516 0.47679 0.1298 0.0
H1878 H 0.12888 0.50426 0.13515 0.0
H1879 H 0.18575 0.47226 0.1115 0.0
H1880 H 0.18211 0.47507 0.16223 0.0
H1881 H 0.18282 0.49179 0.18595 0.0
H1882 H 0.24725 0.51155 0.17909 0.0
H1883 H 0.24683 0.49519 0.15524 0.0
C1884 C 0.25318 0.39431 0.1186 0.0
C1885 C 0.27452 0.39976 0.11625 0.0
C1886 C 0.23837 0.40992 0.1222 0.0
C1887 C 0.24474 0.43114 0.12366 0.0
C1888 C 0.2662 0.43648 0.12195 0.0
C1889 C 0.28096 0.42093 0.11814 0.0
C1890 C 0.22883 0.44793 0.12629 0.0
C1891 C 0.22933 0.45888 0.13926 0.0
C1892 C 0.21285 0.45267 0.11621 0.0
C1893 C 0.21186 0.4418 0.10222 0.0
C1894 C 0.22929 0.44237 0.09287 0.0
C1895 C 0.22838 0.43176 0.07982 0.0
C1896 C 0.21006 0.42067 0.07594 0.0
C1897 C 0.19258 0.42024 0.08509 0.0
C1898 C 0.19342 0.43079 0.09817 0.0
C1899 C 0.17389 0.53238 0.14235 0.0
C1900 C 0.1521 0.52807 0.14109 0.0
C1901 C 0.18888 0.51679 0.13909 0.0
C1902 C 0.18236 0.49644 0.13482 0.0
C1903 C 0.16058 0.49233 0.13313 0.0
C1904 C 0.14558 0.50803 0.1362 0.0
C1905 C 0.1982 0.47938 0.13233 0.0
C1906 C 0.19772 0.46831 0.11937 0.0
C1907 C 0.21401 0.4743 0.14253 0.0
C1908 C 0.21436 0.48408 0.15689 0.0
C1909 C 0.19638 0.48311 0.16574 0.0
C1910 C 0.19673 0.49251 0.17922 0.0
C1911 C 0.21505 0.50277 0.18401 0.0
C1912 C 0.23306 0.50362 0.17535 0.0
C1913 C 0.23278 0.49427 0.16186 0.0
H1914 H 0.21529 0.51003 0.19445 0.0
H1915 H 0.20939 0.41246 0.06584 0.0
H1916 H 0.37903 0.4942 0.86136 0.0
H1917 H 0.35463 0.46583 0.8686 0.0
H1918 H 0.30515 0.51212 0.87528 0.0
H1919 H 0.32935 0.54044 0.86807 0.0
H1920 H 0.307 0.48162 0.89666 0.0
H1921 H 0.30642 0.48528 0.84506 0.0
H1922 H 0.32361 0.48467 0.82148 0.0
H1923 H 0.34668 0.42166 0.82952 0.0
H1924 H 0.32986 0.42203 0.85325 0.0
H1925 H 0.21172 0.4256 0.89533 0.0
H1926 H 0.24067 0.44969 0.88929 0.0
H1927 H 0.28077 0.39621 0.87923 0.0
H1928 H 0.2515 0.37196 0.88486 0.0
H1929 H 0.28715 0.42743 0.86069 0.0
H1930 H 0.28528 0.42199 0.91128 0.0
H1931 H 0.26897 0.42239 0.93513 0.0
H1932 H 0.25194 0.48788 0.92967 0.0
H1933 H 0.26788 0.4878 0.90569 0.0
C1934 C 0.36303 0.49832 0.86456 0.0
C1935 C 0.35602 0.51948 0.8641 0.0
C1936 C 0.34911 0.48212 0.86863 0.0
C1937 C 0.32806 0.48691 0.87234 0.0
C1938 C 0.32134 0.50812 0.87245 0.0
C1939 C 0.33516 0.52426 0.86829 0.0
C1940 C 0.3126 0.46987 0.87549 0.0
C1941 C 0.30254 0.46982 0.88879 0.0
C1942 C 0.30731 0.45415 0.86534 0.0
C1943 C 0.31708 0.45377 0.85098 0.0
C1944 C 0.31528 0.47135 0.84184 0.0
C1945 C 0.32494 0.47104 0.82845 0.0
C1946 C 0.33628 0.45316 0.82403 0.0
C1947 C 0.33792 0.43551 0.83297 0.0
C1948 C 0.32831 0.43576 0.84639 0.0
C1949 C 0.22664 0.41897 0.8917 0.0
C1950 C 0.22944 0.39692 0.89067 0.0
C1951 C 0.24322 0.43275 0.88833 0.0
C1952 C 0.26306 0.42474 0.88415 0.0
C1953 C 0.26564 0.40273 0.88254 0.0
C1954 C 0.24893 0.38891 0.88575 0.0
C1955 C 0.28113 0.43942 0.88179 0.0
C1956 C 0.29173 0.43902 0.86865 0.0
C1957 C 0.28707 0.45465 0.89215 0.0
C1958 C 0.27765 0.45484 0.90664 0.0
C1959 C 0.27794 0.43645 0.91513 0.0
C1960 C 0.26878 0.43662 0.92867 0.0
C1961 C 0.25939 0.45514 0.9339 0.0
C1962 C 0.25921 0.47354 0.92561 0.0
C1963 C 0.26833 0.47345 0.91204 0.0
H1964 H 0.2523 0.45524 0.94439 0.0
H1965 H 0.34373 0.45296 0.81366 0.0
H1966 H 0.32836 0.4607 0.64306 0.0
H1967 H 0.30331 0.48804 0.63542 0.0
H1968 H 0.35526 0.53111 0.62772 0.0
H1969 H 0.38056 0.50367 0.63529 0.0
H1970 H 0.32113 0.54874 0.64378 0.0
H1971 H 0.3322 0.5104 0.60016 0.0
H1972 H 0.33416 0.47834 0.58517 0.0
H1973 H 0.26867 0.46475 0.59396 0.0
H1974 H 0.2664 0.49658 0.60918 0.0
H1975 H 0.25635 0.62664 0.61002 0.0
H1976 H 0.28424 0.60144 0.61655 0.0
H1977 H 0.23837 0.55051 0.61613 0.0
H1978 H 0.21074 0.57551 0.60891 0.0
H1979 H 0.27163 0.53776 0.60338 0.0
H1980 H 0.25997 0.57346 0.64784 0.0
H1981 H 0.25698 0.6041 0.66405 0.0
H1982 H 0.32167 0.62117 0.6553 0.0
H1983 H 0.32497 0.59077 0.63889 0.0
C1984 C 0.33448 0.47594 0.63966 0.0
C1985 C 0.3564 0.48006 0.63973 0.0
C1986 C 0.32015 0.49152 0.63528 0.0
C1987 C 0.32747 0.51152 0.63095 0.0
C1988 C 0.34935 0.51574 0.63102 0.0
C1989 C 0.36375 0.50005 0.63527 0.0
C1990 C 0.31209 0.52807 0.62659 0.0
C1991 C 0.3105 0.54658 0.6348 0.0
C1992 C 0.2979 0.52485 0.61515 0.0
C1993 C 0.29918 0.50579 0.6059 0.0
C1994 C 0.31826 0.50049 0.59898 0.0
C1995 C 0.31942 0.48237 0.59043 0.0
C1996 C 0.30157 0.46949 0.58864 0.0
C1997 C 0.28249 0.47473 0.59537 0.0
C1998 C 0.28125 0.49282 0.60394 0.0
C1999 C 0.25223 0.61009 0.61144 0.0
C2000 C 0.23141 0.603 0.60898 0.0
C2001 C 0.26816 0.59569 0.61523 0.0
C2002 C 0.26341 0.57405 0.61702 0.0
C2003 C 0.24248 0.56708 0.61478 0.0
C2004 C 0.22667 0.58139 0.61072 0.0
C2005 C 0.2803 0.55848 0.62071 0.0
C2006 C 0.28224 0.5401 0.61234 0.0
C2007 C 0.29459 0.56169 0.63216 0.0
C2008 C 0.29264 0.57997 0.64202 0.0
C2009 C 0.27351 0.58384 0.64929 0.0
C2010 C 0.27177 0.60115 0.65853 0.0
C2011 C 0.28911 0.61461 0.66067 0.0
C2012 C 0.30824 0.61075 0.65361 0.0
C2013 C 0.31006 0.59348 0.64435 0.0
H2014 H 0.28773 0.62799 0.66783 0.0
H2015 H 0.3025 0.45547 0.58201 0.0
H2016 H 0.36502 0.13558 0.16669 0.0
H2017 H 0.35237 0.17095 0.15987 0.0
H2018 H 0.36014 0.15479 0.11557 0.0
H2019 H 0.37299 0.11963 0.12228 0.0
H2020 H 0.37742 0.19263 0.12144 0.0
H2021 H 0.31093 0.15756 0.13086 0.0
H2022 H 0.2853 0.13726 0.1453 0.0
H2023 H 0.28533 0.18652 0.17688 0.0
H2024 H 0.31119 0.20699 0.16271 0.0
H2025 H 0.32688 0.27971 0.08948 0.0
H2026 H 0.33476 0.24355 0.09726 0.0
H2027 H 0.32405 0.26194 0.1409 0.0
H2028 H 0.31555 0.29806 0.13312 0.0
H2029 H 0.30829 0.22333 0.13617 0.0
H2030 H 0.3745 0.25836 0.1272 0.0
H2031 H 0.40046 0.27891 0.11321 0.0
H2032 H 0.40167 0.22993 0.08145 0.0
H2033 H 0.37548 0.20921 0.09516 0.0
C2034 C 0.36388 0.13955 0.1555 0.0
C2035 C 0.37001 0.12486 0.14502 0.0
C2036 C 0.35658 0.15972 0.15162 0.0
C2037 C 0.35519 0.16547 0.1372 0.0
C2038 C 0.36111 0.15071 0.12675 0.0
C2039 C 0.3684 0.1306 0.13061 0.0
C2040 C 0.34836 0.1871 0.13293 0.0
C2041 C 0.36217 0.19923 0.1245 0.0
C2042 C 0.32876 0.19595 0.13729 0.0
C2043 C 0.31316 0.1837 0.14579 0.0
C2044 C 0.3056 0.16398 0.14094 0.0
C2045 C 0.29101 0.15246 0.14906 0.0
C2046 C 0.28374 0.16057 0.16201 0.0
C2047 C 0.291 0.18024 0.16685 0.0
C2048 C 0.30561 0.19182 0.15878 0.0
C2049 C 0.32601 0.276 0.10072 0.0
C2050 C 0.32077 0.29173 0.11071 0.0
C2051 C 0.33061 0.25535 0.10516 0.0
C2052 C 0.33042 0.25013 0.11969 0.0
C2053 C 0.32439 0.26562 0.12964 0.0
C2054 C 0.31958 0.28625 0.12519 0.0
C2055 C 0.33724 0.22873 0.12452 0.0
C2056 C 0.32351 0.21671 0.13309 0.0
C2057 C 0.357 0.21997 0.12037 0.0
C2058 C 0.37288 0.23233 0.11215 0.0
C2059 C 0.38019 0.25204 0.11719 0.0
C2060 C 0.39496 0.26371 0.10931 0.0
C2061 C 0.40267 0.25576 0.09643 0.0
C2062 C 0.39567 0.23608 0.09142 0.0
C2063 C 0.38087 0.22436 0.09924 0.0
H2064 H 0.4141 0.26482 0.09035 0.0
H2065 H 0.27244 0.15163 0.16829 0.0
H2066 H 0.13113 0.10199 0.37855 0.0
H2067 H 0.09532 0.09143 0.37151 0.0
H2068 H 0.06998 0.12078 0.40937 0.0
H2069 H 0.10594 0.13067 0.41673 0.0
H2070 H 0.04882 0.08608 0.40418 0.0
H2071 H 0.06949 0.14647 0.37674 0.0
H2072 H 0.09247 0.16756 0.36087 0.0
H2073 H 0.0857 0.12064 0.32805 0.0
H2074 H 0.06289 0.09912 0.34379 0.0
H2075 H 0.9534 0.11288 0.35353 0.0
H2076 H 0.98853 0.12016 0.36329 0.0
H2077 H 0.99504 0.05422 0.37501 0.0
H2078 H 0.95939 0.04706 0.36572 0.0
H2079 H 0.02533 0.10797 0.35597 0.0
H2080 H 0.02789 0.04908 0.40348 0.0
H2081 H 0.00333 0.03277 0.42075 0.0
H2082 H 0.9603 0.08513 0.41585 0.0
H2083 H 0.98473 0.10188 0.3987 0.0
C2084 C 0.11794 0.10598 0.38545 0.0
C2085 C 0.12127 0.11731 0.39813 0.0
C2086 C 0.09747 0.10002 0.38138 0.0
C2087 C 0.07989 0.1057 0.38975 0.0
C2088 C 0.08328 0.11627 0.40272 0.0
C2089 C 0.10382 0.12196 0.4069 0.0
C2090 C 0.05795 0.1015 0.38466 0.0
C2091 C 0.04368 0.09081 0.39363 0.0
C2092 C 0.05104 0.10814 0.37103 0.0
C2093 C 0.06465 0.12109 0.36149 0.0
C2094 C 0.07301 0.14058 0.36617 0.0
C2095 C 0.086 0.15262 0.3572 0.0
C2096 C 0.09059 0.14542 0.34348 0.0
C2097 C 0.08216 0.12618 0.33869 0.0
C2098 C 0.06919 0.11407 0.34762 0.0
C2099 C 0.96227 0.09995 0.35826 0.0
C2100 C 0.95367 0.07941 0.35889 0.0
C2101 C 0.98239 0.10412 0.36381 0.0
C2102 C 0.99445 0.08779 0.36999 0.0
C2103 C 0.98591 0.06718 0.37056 0.0
C2104 C 0.96559 0.06307 0.36519 0.0
C2105 C 0.01614 0.09239 0.37545 0.0
C2106 C 0.03043 0.10313 0.36652 0.0
C2107 C 0.02277 0.08647 0.3893 0.0
C2108 C 0.00804 0.0766 0.39968 0.0
C2109 C 0.01322 0.05714 0.40612 0.0
C2110 C 0.99932 0.04781 0.41589 0.0
C2111 C 0.98023 0.05787 0.41936 0.0
C2112 C 0.97505 0.07731 0.41311 0.0
C2113 C 0.9889 0.08671 0.40335 0.0
H2114 H 0.96949 0.05061 0.42692 0.0
H2115 H 0.10064 0.15476 0.33655 0.0
H2116 H 0.15115 0.88344 0.6305 0.0
H2117 H 0.16301 0.84789 0.62369 0.0
H2118 H 0.12156 0.82058 0.65539 0.0
H2119 H 0.1107 0.85618 0.66277 0.0
H2120 H 0.15483 0.79833 0.65484 0.0
H2121 H 0.1084 0.82395 0.61851 0.0
H2122 H 0.0951 0.84886 0.60033 0.0
H2123 H 0.15312 0.84211 0.57677 0.0
H2124 H 0.16688 0.81735 0.59492 0.0
H2125 H 0.14418 0.70857 0.59731 0.0
H2126 H 0.13561 0.74372 0.60652 0.0
H2127 H 0.19375 0.74371 0.63089 0.0
H2128 H 0.20178 0.70791 0.62223 0.0
H2129 H 0.15207 0.77954 0.60363 0.0
H2130 H 0.18935 0.7747 0.6601 0.0
H2131 H 0.19623 0.74796 0.67873 0.0
H2132 H 0.14519 0.70957 0.66275 0.0
H2133 H 0.13785 0.7362 0.64415 0.0
C2134 C 0.14475 0.86982 0.63609 0.0
C2135 C 0.12992 0.87249 0.64708 0.0
C2136 C 0.15143 0.8495 0.63214 0.0
C2137 C 0.14282 0.83145 0.63878 0.0
C2138 C 0.12844 0.83419 0.65007 0.0
C2139 C 0.12218 0.85454 0.65426 0.0
C2140 C 0.1482 0.80974 0.63368 0.0
C2141 C 0.15425 0.79424 0.64364 0.0
C2142 C 0.14698 0.80414 0.6191 0.0
C2143 C 0.13875 0.81897 0.60814 0.0
C2144 C 0.11837 0.82789 0.6095 0.0
C2145 C 0.11075 0.84196 0.59919 0.0
C2146 C 0.12328 0.84711 0.58742 0.0
C2147 C 0.14345 0.83814 0.58591 0.0
C2148 C 0.15116 0.82407 0.59619 0.0
C2149 C 0.15508 0.71603 0.60469 0.0
C2150 C 0.17361 0.70553 0.60909 0.0
C2151 C 0.15021 0.73617 0.60992 0.0
C2152 C 0.16392 0.74641 0.61951 0.0
C2153 C 0.18265 0.73602 0.62376 0.0
C2154 C 0.18731 0.71562 0.61875 0.0
C2155 C 0.15863 0.76805 0.62479 0.0
C2156 C 0.1527 0.7836 0.61484 0.0
C2157 C 0.15902 0.77338 0.63943 0.0
C2158 C 0.16323 0.75734 0.65064 0.0
C2159 C 0.17957 0.76058 0.66059 0.0
C2160 C 0.18355 0.74544 0.67114 0.0
C2161 C 0.17121 0.72704 0.67189 0.0
C2162 C 0.1548 0.72378 0.66212 0.0
C2163 C 0.15074 0.73888 0.65156 0.0
H2164 H 0.17432 0.71534 0.68006 0.0
H2165 H 0.11735 0.85801 0.57946 0.0
H2166 H 0.55474 0.93259 0.88118 0.0
H2167 H 0.51877 0.92721 0.89055 0.0
H2168 H 0.4968 0.91071 0.84852 0.0
H2169 H 0.53266 0.91581 0.83913 0.0
H2170 H 0.46958 0.93893 0.86336 0.0
H2171 H 0.50701 0.87251 0.87059 0.0
H2172 H 0.53616 0.85035 0.87989 0.0
H2173 H 0.52082 0.8694 0.92254 0.0
H2174 H 0.49176 0.89193 0.91346 0.0
H2175 H 0.37533 0.88123 0.8711 0.0
H2176 H 0.41108 0.89393 0.866 0.0
H2177 H 0.42385 0.89887 0.91099 0.0
H2178 H 0.38801 0.88571 0.91619 0.0
H2179 H 0.45623 0.88039 0.89754 0.0
H2180 H 0.41626 0.94348 0.89098 0.0
H2181 H 0.38718 0.96605 0.88206 0.0
H2182 H 0.40719 0.95469 0.83906 0.0
H2183 H 0.43622 0.93178 0.8477 0.0
C2184 C 0.54219 0.92796 0.87394 0.0
C2185 C 0.54648 0.92453 0.85944 0.0
C2186 C 0.52171 0.92486 0.87931 0.0
C2187 C 0.5052 0.91849 0.87022 0.0
C2188 C 0.50934 0.91566 0.85568 0.0
C2189 C 0.52983 0.91849 0.85035 0.0
C2190 C 0.48371 0.91403 0.87585 0.0
C2191 C 0.46659 0.92608 0.87078 0.0
C2192 C 0.48 0.89771 0.88588 0.0
C2193 C 0.4974 0.88411 0.89134 0.0
C2194 C 0.50999 0.87213 0.88194 0.0
C2195 C 0.52646 0.85947 0.88717 0.0
C2196 C 0.53038 0.85852 0.90179 0.0
C2197 C 0.5178 0.87018 0.91121 0.0
C2198 C 0.50132 0.8829 0.90603 0.0
C2199 C 0.38568 0.88512 0.87992 0.0
C2200 C 0.37885 0.88253 0.89405 0.0
C2201 C 0.40609 0.8925 0.87699 0.0
C2202 C 0.42005 0.89767 0.88811 0.0
C2203 C 0.4133 0.89507 0.90225 0.0
C2204 C 0.39283 0.8876 0.9052 0.0
C2205 C 0.44191 0.905 0.88482 0.0
C2206 C 0.45915 0.89349 0.89032 0.0
C2207 C 0.44575 0.92195 0.87526 0.0
C2208 C 0.42834 0.93578 0.86999 0.0
C2209 C 0.41437 0.94566 0.87961 0.0
C2210 C 0.39791 0.95854 0.87461 0.0
C2211 C 0.39532 0.96177 0.86 0.0
C2212 C 0.40922 0.95216 0.85037 0.0
C2213 C 0.4257 0.93925 0.85532 0.0
H2214 H 0.38257 0.97175 0.85615 0.0
H2215 H 0.54314 0.8487 0.90582 0.0
H2216 H 0.31396 0.69692 0.36388 0.0
H2217 H 0.3199 0.73291 0.35479 0.0
H2218 H 0.32716 0.75592 0.39774 0.0
H2219 H 0.32135 0.72003 0.40689 0.0
H2220 H 0.30244 0.78267 0.38059 0.0
H2221 H 0.36989 0.74602 0.37904 0.0
H2222 H 0.39399 0.71698 0.37206 0.0
H2223 H 0.38251 0.73059 0.32795 0.0
H2224 H 0.35808 0.75953 0.33468 0.0
H2225 H 0.36046 0.87774 0.37448 0.0
H2226 H 0.3467 0.84242 0.37973 0.0
H2227 H 0.34917 0.82649 0.3351 0.0
H2228 H 0.36339 0.86184 0.32979 0.0
H2229 H 0.36599 0.79567 0.35064 0.0
H2230 H 0.30144 0.83482 0.35198 0.0
H2231 H 0.27724 0.86384 0.3588 0.0
H2232 H 0.28249 0.84574 0.40271 0.0
H2233 H 0.30698 0.81678 0.39618 0.0
C2234 C 0.31663 0.7097 0.37138 0.0
C2235 C 0.3173 0.70568 0.38609 0.0
C2236 C 0.32006 0.73021 0.36618 0.0
C2237 C 0.32411 0.74701 0.3756 0.0
C2238 C 0.32405 0.74316 0.3903 0.0
C2239 C 0.32081 0.72265 0.3955 0.0
C2240 C 0.32936 0.76846 0.3702 0.0
C2241 C 0.31639 0.78559 0.37411 0.0
C2242 C 0.34723 0.77209 0.36141 0.0
C2243 C 0.36197 0.75476 0.35736 0.0
C2244 C 0.37236 0.74269 0.36785 0.0
C2245 C 0.38611 0.72628 0.36394 0.0
C2246 C 0.38973 0.7219 0.34957 0.0
C2247 C 0.37966 0.73397 0.33908 0.0
C2248 C 0.36587 0.75038 0.34293 0.0
C2249 C 0.3579 0.8668 0.36575 0.0
C2250 C 0.36299 0.87256 0.35172 0.0
C2251 C 0.34991 0.84663 0.36876 0.0
C2252 C 0.34664 0.83187 0.35779 0.0
C2253 C 0.3515 0.83765 0.34373 0.0
C2254 C 0.35957 0.85785 0.34071 0.0
C2255 C 0.33923 0.81007 0.36118 0.0
C2256 C 0.35183 0.79282 0.35692 0.0
C2257 C 0.32096 0.80634 0.3696 0.0
C2258 C 0.30618 0.82371 0.37359 0.0
C2259 C 0.29757 0.83712 0.3631 0.0
C2260 C 0.28377 0.85354 0.36691 0.0
C2261 C 0.27836 0.85666 0.38118 0.0
C2262 C 0.2867 0.84332 0.39166 0.0
C2263 C 0.30052 0.82687 0.38791 0.0
H2264 H 0.26768 0.86938 0.38411 0.0
H2265 H 0.40038 0.70918 0.34657 0.0
H2266 H 0.38219 0.10502 0.58734 0.0
H2267 H 0.41829 0.09362 0.5935 0.0
H2268 H 0.41198 0.12308 0.63472 0.0
H2269 H 0.37599 0.13441 0.62868 0.0
H2270 H 0.44927 0.13397 0.62085 0.0
H2271 H 0.4092 0.07071 0.63203 0.0
H2272 H 0.38469 0.04123 0.62674 0.0
H2273 H 0.42632 0.01938 0.59366 0.0
H2274 H 0.45095 0.04893 0.59862 0.0
H2275 H 0.53508 0.09487 0.66003 0.0
H2276 H 0.49942 0.10258 0.65132 0.0
H2277 H 0.51219 0.06675 0.61315 0.0
H2278 H 0.54795 0.05862 0.62196 0.0
H2279 H 0.47263 0.05881 0.62304 0.0
H2280 H 0.51362 0.12021 0.61224 0.0
H2281 H 0.53842 0.14968 0.61687 0.0
H2282 H 0.49555 0.17539 0.64793 0.0
H2283 H 0.47061 0.14589 0.64364 0.0
C2284 C 0.38847 0.10893 0.59774 0.0
C2285 C 0.37628 0.1206 0.60754 0.0
C2286 C 0.40905 0.10238 0.60125 0.0
C2287 C 0.41776 0.10747 0.61458 0.0
C2288 C 0.40555 0.11901 0.62438 0.0
C2289 C 0.38497 0.12541 0.62093 0.0
C2290 C 0.4398 0.10136 0.61826 0.0
C2291 C 0.45434 0.11753 0.62147 0.0
C2292 C 0.44656 0.07995 0.61856 0.0
C2293 C 0.43179 0.06217 0.61559 0.0
C2294 C 0.41303 0.05974 0.62354 0.0
C2295 C 0.39914 0.04299 0.62062 0.0
C2296 C 0.40391 0.02848 0.60984 0.0
C2297 C 0.42262 0.03065 0.60198 0.0
C2298 C 0.43656 0.04739 0.60485 0.0
C2299 C 0.5303 0.08855 0.6498 0.0
C2300 C 0.54435 0.07626 0.64163 0.0
C2301 C 0.50993 0.09304 0.64481 0.0
C2302 C 0.50327 0.08555 0.63147 0.0
C2303 C 0.51705 0.07276 0.62344 0.0
C2304 C 0.53747 0.06818 0.62847 0.0
C2305 C 0.48199 0.09142 0.62594 0.0
C2306 C 0.46763 0.07525 0.62232 0.0
C2307 C 0.4754 0.11287 0.62513 0.0
C2308 C 0.49031 0.13072 0.6277 0.0
C2309 C 0.50954 0.13206 0.62014 0.0
C2310 C 0.52362 0.14878 0.62269 0.0
C2311 C 0.51859 0.16437 0.63271 0.0
C2312 C 0.49943 0.16329 0.64018 0.0
C2313 C 0.48531 0.14658 0.63768 0.0
H2314 H 0.52951 0.17731 0.63467 0.0
H2315 H 0.39314 0.01552 0.60759 0.0
H2316 H 0.13107 0.1238 0.8762 0.0
H2317 H 0.14255 0.15977 0.88194 0.0
H2318 H 0.13646 0.17764 0.83781 0.0
H2319 H 0.12528 0.14136 0.83192 0.0
H2320 H 0.172 0.19471 0.84978 0.0
H2321 H 0.09816 0.19114 0.86099 0.0
H2322 H 0.06579 0.17614 0.8718 0.0
H2323 H 0.09252 0.18434 0.91347 0.0
H2324 H 0.12519 0.1991 0.90291 0.0
H2325 H 0.17371 0.3062 0.86746 0.0
H2326 H 0.16472 0.27104 0.85802 0.0
H2327 H 0.16796 0.2449 0.90041 0.0
H2328 H 0.17662 0.2799 0.90989 0.0
H2329 H 0.13214 0.23334 0.88723 0.0
H2330 H 0.20684 0.23546 0.87559 0.0
H2331 H 0.23899 0.25049 0.86451 0.0
H2332 H 0.21005 0.24565 0.82327 0.0
H2333 H 0.1776 0.23084 0.83413 0.0
C2334 C 0.13227 0.13533 0.86769 0.0
C2335 C 0.12711 0.12983 0.85362 0.0
C2336 C 0.13877 0.15591 0.87099 0.0
C2337 C 0.14 0.17148 0.86034 0.0
C2338 C 0.13553 0.16587 0.84619 0.0
C2339 C 0.1291 0.14519 0.84286 0.0
C2340 C 0.1454 0.19367 0.86416 0.0
C2341 C 0.16311 0.20332 0.85781 0.0
C2342 C 0.1339 0.20479 0.87473 0.0
C2343 C 0.1142 0.19608 0.88114 0.0
C2344 C 0.0972 0.18961 0.87246 0.0
C2345 C 0.07879 0.18117 0.87854 0.0
C2346 C 0.07712 0.17925 0.89331 0.0
C2347 C 0.09384 0.18582 0.90203 0.0
C2348 C 0.1123 0.19425 0.896 0.0
C2349 C 0.17271 0.29289 0.87473 0.0
C2350 C 0.17581 0.29579 0.88941 0.0
C2351 C 0.16763 0.27282 0.86932 0.0
C2352 C 0.16573 0.25533 0.87851 0.0
C2353 C 0.16927 0.25818 0.89313 0.0
C2354 C 0.17428 0.27818 0.89853 0.0
C2355 C 0.15909 0.23421 0.87314 0.0
C2356 C 0.14101 0.22481 0.87915 0.0
C2357 C 0.1702 0.22342 0.86222 0.0
C2358 C 0.18971 0.23227 0.85569 0.0
C2359 C 0.20726 0.23777 0.86417 0.0
C2360 C 0.22555 0.24621 0.85793 0.0
C2361 C 0.22654 0.24908 0.8432 0.0
C2362 C 0.20925 0.24345 0.83468 0.0
C2363 C 0.19092 0.23502 0.84087 0.0
H2364 H 0.24071 0.25562 0.83839 0.0
H2365 H 0.06286 0.17271 0.898 0.0
H2366 H 0.13416 0.90985 0.10255 0.0
H2367 H 0.09862 0.92176 0.10932 0.0
H2368 H 0.07271 0.86148 0.09618 0.0
H2369 H 0.10819 0.84959 0.08915 0.0
H2370 H 0.04622 0.89327 0.08921 0.0
H2371 H 0.08404 0.87026 0.13069 0.0
H2372 H 0.11384 0.86936 0.1477 0.0
H2373 H 0.10421 0.93534 0.15718 0.0
H2374 H 0.07452 0.93669 0.14007 0.0
H2375 H 0.96802 0.90172 0.15312 0.0
H2376 H 0.00281 0.89329 0.14321 0.0
H2377 H 0.99293 0.93929 0.10982 0.0
H2378 H 0.95771 0.94735 0.1195 0.0
H2379 H 0.03733 0.91486 0.13965 0.0
H2380 H 0.01828 0.92281 0.07966 0.0
H2381 H 0.98768 0.91925 0.06343 0.0
H2382 H 0.9581 0.87565 0.09242 0.0
H2383 H 0.98863 0.87874 0.10872 0.0
C2384 C 0.12085 0.89924 0.10092 0.0
C2385 C 0.12396 0.87872 0.09543 0.0
C2386 C 0.10056 0.90604 0.10483 0.0
C2387 C 0.08307 0.89238 0.10346 0.0
C2388 C 0.08599 0.87226 0.09734 0.0
C2389 C 0.10627 0.86547 0.09337 0.0
C2390 C 0.06203 0.89852 0.10923 0.0
C2391 C 0.04427 0.89811 0.10022 0.0
C2392 C 0.05941 0.90439 0.12366 0.0
C2393 C 0.07721 0.90363 0.13399 0.0
C2394 C 0.08838 0.88461 0.13632 0.0
C2395 C 0.10524 0.88402 0.14599 0.0
C2396 C 0.11095 0.9023 0.15349 0.0
C2397 C 0.09979 0.9212 0.15135 0.0
C2398 C 0.08294 0.92189 0.14167 0.0
C2399 C 0.97326 0.91008 0.14368 0.0
C2400 C 0.96012 0.92514 0.13705 0.0
C2401 C 0.99318 0.90528 0.13804 0.0
C2402 C 0.00043 0.91548 0.12568 0.0
C2403 C 0.98753 0.93093 0.11922 0.0
C2404 C 0.96747 0.9356 0.12479 0.0
C2405 C 0.02144 0.90977 0.11963 0.0
C2406 C 0.03925 0.91026 0.1286 0.0
C2407 C 0.02396 0.90339 0.10527 0.0
C2408 C 0.00563 0.90121 0.09547 0.0
C2409 C 0.00527 0.91242 0.08254 0.0
C2410 C 0.98794 0.91049 0.07333 0.0
C2411 C 0.97092 0.89729 0.07691 0.0
C2412 C 0.97124 0.88593 0.08968 0.0
C2413 C 0.98855 0.88779 0.09892 0.0
H2414 H 0.95751 0.89584 0.06978 0.0
H2415 H 0.124 0.90181 0.16097 0.0
H2416 H 0.65056 0.70979 0.90649 0.0
H2417 H 0.64237 0.7444 0.89629 0.0
H2418 H 0.67919 0.72891 0.85899 0.0
H2419 H 0.68802 0.69428 0.86941 0.0
H2420 H 0.68633 0.76869 0.86648 0.0
H2421 H 0.62449 0.72738 0.85829 0.0
H2422 H 0.59499 0.70318 0.86412 0.0
H2423 H 0.57024 0.74867 0.89382 0.0
H2424 H 0.59977 0.77304 0.88832 0.0
H2425 H 0.63931 0.85934 0.83084 0.0
H2426 H 0.64934 0.82254 0.83636 0.0
H2427 H 0.62501 0.83012 0.87896 0.0
H2428 H 0.61522 0.86677 0.87361 0.0
H2429 H 0.61131 0.79266 0.86511 0.0
H2430 H 0.67617 0.83219 0.87417 0.0
H2431 H 0.70557 0.85598 0.86741 0.0
H2432 H 0.72396 0.81288 0.83423 0.0
H2433 H 0.69446 0.78896 0.84068 0.0
C2434 C 0.65697 0.71375 0.89612 0.0
C2435 C 0.66982 0.69929 0.8887 0.0
C2436 C 0.65217 0.73351 0.89026 0.0
C2437 C 0.65977 0.7391 0.87672 0.0
C2438 C 0.67304 0.72488 0.86941 0.0
C2439 C 0.67805 0.70512 0.87536 0.0
C2440 C 0.65378 0.75983 0.87035 0.0
C2441 C 0.66989 0.77375 0.86592 0.0
C2442 C 0.63233 0.76654 0.86966 0.0
C2443 C 0.61445 0.75198 0.87296 0.0
C2444 C 0.61284 0.73217 0.86613 0.0
C2445 C 0.5961 0.71843 0.86937 0.0
C2446 C 0.58077 0.72437 0.87935 0.0
C2447 C 0.58213 0.74409 0.88609 0.0
C2448 C 0.59885 0.75789 0.88291 0.0
C2449 C 0.63613 0.85311 0.84137 0.0
C2450 C 0.62653 0.8659 0.85181 0.0
C2451 C 0.6419 0.83216 0.84451 0.0
C2452 C 0.63794 0.82368 0.85807 0.0
C2453 C 0.62816 0.83638 0.86842 0.0
C2454 C 0.62266 0.85733 0.86536 0.0
C2455 C 0.64387 0.80158 0.86164 0.0
C2456 C 0.62771 0.78741 0.8655 0.0
C2457 C 0.6652 0.79459 0.86162 0.0
C2458 C 0.68296 0.80893 0.85779 0.0
C2459 C 0.68636 0.82788 0.86535 0.0
C2460 C 0.70307 0.84137 0.86159 0.0
C2461 C 0.71659 0.83598 0.85037 0.0
C2462 C 0.71345 0.81706 0.8429 0.0
C2463 C 0.69675 0.80352 0.84661 0.0
H2464 H 0.72952 0.84644 0.84748 0.0
H2465 H 0.56782 0.71371 0.88184 0.0
H2466 H 0.04031 0.89198 0.65254 0.0
H2467 H 0.00538 0.88357 0.64291 0.0
H2468 H 0.00809 0.93947 0.61638 0.0
H2469 H 0.04366 0.94738 0.62557 0.0
H2470 H 0.96991 0.90154 0.64452 0.0
H2471 H 0.97822 0.93299 0.58666 0.0
H2472 H 0.00595 0.93729 0.56834 0.0
H2473 H 0.04213 0.8869 0.58729 0.0
H2474 H 0.01449 0.88212 0.6056 0.0
H2475 H 0.86743 0.90351 0.61579 0.0
H2476 H 0.90342 0.91424 0.62233 0.0
H2477 H 0.9291 0.86682 0.594 0.0
H2478 H 0.89307 0.8567 0.58695 0.0
H2479 H 0.95327 0.89981 0.59294 0.0
H2480 H 0.92438 0.85821 0.63065 0.0
H2481 H 0.8982 0.84768 0.64885 0.0
H2482 H 0.90628 0.90757 0.66998 0.0
H2483 H 0.93234 0.91856 0.65181 0.0
C2484 C 0.0335 0.90244 0.6446 0.0
C2485 C 0.0447 0.92032 0.63978 0.0
C2486 C 0.01349 0.89765 0.63912 0.0
C2487 C 0.00406 0.91077 0.62882 0.0
C2488 C 0.01515 0.92883 0.6241 0.0
C2489 C 0.03541 0.93342 0.62941 0.0
C2490 C 0.98247 0.90564 0.62335 0.0
C2491 C 0.96633 0.90121 0.63323 0.0
C2492 C 0.97776 0.90473 0.60862 0.0
C2493 C 0.99439 0.90738 0.59759 0.0
C2494 C 0.99206 0.92279 0.58689 0.0
C2495 C 0.00777 0.92532 0.57651 0.0
C2496 C 0.02583 0.91243 0.57669 0.0
C2497 C 0.02818 0.89694 0.5872 0.0
C2498 C 0.01251 0.89433 0.59759 0.0
C2499 C 0.88077 0.89554 0.61085 0.0
C2500 C 0.87749 0.87916 0.60096 0.0
C2501 C 0.90133 0.90161 0.61464 0.0
C2502 C 0.91901 0.89103 0.60891 0.0
C2503 C 0.91574 0.87519 0.59861 0.0
C2504 C 0.89515 0.86938 0.59461 0.0
C2505 C 0.9408 0.89582 0.61412 0.0
C2506 C 0.95691 0.90023 0.60421 0.0
C2507 C 0.94576 0.89584 0.62882 0.0
C2508 C 0.93014 0.88928 0.6398 0.0
C2509 C 0.92046 0.86919 0.63913 0.0
C2510 C 0.90566 0.86313 0.64944 0.0
C2511 C 0.90053 0.87697 0.66054 0.0
C2512 C 0.91024 0.89688 0.66137 0.0
C2513 C 0.92504 0.90302 0.65107 0.0
H2514 H 0.88907 0.87225 0.66852 0.0
H2515 H 0.03797 0.91442 0.56865 0.0
H2516 H 0.79789 0.29472 0.37058 0.0
H2517 H 0.80463 0.25895 0.36119 0.0
H2518 H 0.85397 0.24995 0.39244 0.0
H2519 H 0.84719 0.2854 0.40195 0.0
H2520 H 0.86614 0.23824 0.36487 0.0
H2521 H 0.80881 0.22725 0.39809 0.0
H2522 H 0.77315 0.23348 0.40808 0.0
H2523 H 0.74478 0.2144 0.36855 0.0
H2524 H 0.78032 0.20834 0.35825 0.0
H2525 H 0.85502 0.11803 0.37114 0.0
H2526 H 0.84259 0.15364 0.37727 0.0
H2527 H 0.85721 0.17516 0.33481 0.0
H2528 H 0.86975 0.13952 0.3286 0.0
H2529 H 0.81202 0.18104 0.36676 0.0
H2530 H 0.88019 0.22461 0.33848 0.0
H2531 H 0.9167 0.21771 0.33012 0.0
H2532 H 0.92478 0.17061 0.36271 0.0
H2533 H 0.88846 0.17746 0.37138 0.0
C2534 C 0.81014 0.28507 0.37544 0.0
C2535 C 0.82199 0.29279 0.38701 0.0
C2536 C 0.81394 0.26468 0.37009 0.0
C2537 C 0.82979 0.25186 0.37614 0.0
C2538 C 0.84172 0.25964 0.3876 0.0
C2539 C 0.83776 0.27985 0.39306 0.0
C2540 C 0.83403 0.23025 0.37065 0.0
C2541 C 0.85425 0.22578 0.36516 0.0
C2542 C 0.81857 0.21398 0.37118 0.0
C2543 C 0.79722 0.2176 0.37735 0.0
C2544 C 0.79497 0.22458 0.39149 0.0
C2545 C 0.77478 0.22804 0.39721 0.0
C2546 C 0.75671 0.2244 0.38894 0.0
C2547 C 0.7588 0.21725 0.37493 0.0
C2548 C 0.77895 0.21379 0.36915 0.0
C2549 C 0.85534 0.13027 0.36305 0.0
C2550 C 0.86352 0.12606 0.34942 0.0
C2551 C 0.84814 0.15058 0.36655 0.0
C2552 C 0.84916 0.16706 0.35653 0.0
C2553 C 0.85646 0.16268 0.34272 0.0
C2554 C 0.86358 0.14233 0.33919 0.0
C2555 C 0.8441 0.18907 0.36092 0.0
C2556 C 0.82377 0.19361 0.36623 0.0
C2557 C 0.85954 0.20537 0.3604 0.0
C2558 C 0.88153 0.20138 0.35545 0.0
C2559 C 0.8898 0.21283 0.34388 0.0
C2560 C 0.91045 0.20893 0.33909 0.0
C2561 C 0.92302 0.19368 0.34585 0.0
C2562 C 0.915 0.18237 0.35745 0.0
C2563 C 0.89438 0.18624 0.3623 0.0
H2564 H 0.93899 0.19066 0.34211 0.0
H2565 H 0.74109 0.22708 0.39339 0.0
H2566 H 0.6241 0.13651 0.12892 0.0
H2567 H 0.58908 0.12262 0.13491 0.0
H2568 H 0.58516 0.09243 0.09378 0.0
H2569 H 0.62018 0.10672 0.08759 0.0
H2570 H 0.5486 0.11151 0.10023 0.0
H2571 H 0.59485 0.06314 0.12379 0.0
H2572 H 0.62463 0.05208 0.13911 0.0
H2573 H 0.59499 0.08189 0.17508 0.0
H2574 H 0.56516 0.09341 0.15992 0.0
H2575 H 0.45505 0.05552 0.12241 0.0
H2576 H 0.4913 0.06239 0.11404 0.0
H2577 H 0.50368 0.09946 0.15173 0.0
H2578 H 0.46764 0.09265 0.16014 0.0
H2579 H 0.5365 0.07245 0.14536 0.0
H2580 H 0.49218 0.1236 0.1209 0.0
H2581 H 0.46252 0.13456 0.10542 0.0
H2582 H 0.48883 0.09847 0.0709 0.0
H2583 H 0.51852 0.08707 0.08625 0.0
C2584 C 0.61582 0.12687 0.12115 0.0
C2585 C 0.62491 0.12262 0.10781 0.0
C2586 C 0.59584 0.11884 0.12462 0.0
C2587 C 0.58463 0.10617 0.11489 0.0
C2588 C 0.59357 0.10208 0.10148 0.0
C2589 C 0.61357 0.11021 0.09797 0.0
C2590 C 0.5634 0.09768 0.11871 0.0
C2591 C 0.54602 0.10259 0.10996 0.0
C2592 C 0.55997 0.08627 0.13149 0.0
C2593 C 0.57783 0.07927 0.14068 0.0
C2594 C 0.59475 0.06747 0.13494 0.0
C2595 C 0.61163 0.0611 0.1436 0.0
C2596 C 0.61172 0.06631 0.15805 0.0
C2597 C 0.5949 0.07787 0.16388 0.0
C2598 C 0.57799 0.0843 0.15526 0.0
C2599 C 0.46556 0.06504 0.12893 0.0
C2600 C 0.45851 0.07362 0.14191 0.0
C2601 C 0.48621 0.069 0.12412 0.0
C2602 C 0.50011 0.08156 0.13222 0.0
C2603 C 0.49322 0.08972 0.14532 0.0
C2604 C 0.4726 0.08587 0.15009 0.0
C2605 C 0.52174 0.08668 0.12704 0.0
C2606 C 0.53917 0.0811 0.13554 0.0
C2607 C 0.52521 0.09738 0.114 0.0
C2608 C 0.50742 0.10428 0.10477 0.0
C2609 C 0.49154 0.11786 0.11005 0.0
C2610 C 0.47475 0.12418 0.10129 0.0
C2611 C 0.47376 0.11716 0.0872 0.0
C2612 C 0.4896 0.10386 0.08182 0.0
C2613 C 0.50641 0.09747 0.09055 0.0
H2614 H 0.46074 0.12207 0.08043 0.0
H2615 H 0.62481 0.06137 0.16474 0.0
H2616 H 0.6721 0.28091 0.58959 0.0
H2617 H 0.66302 0.24558 0.59839 0.0
H2618 H 0.6738 0.26653 0.64151 0.0
H2619 H 0.68349 0.30184 0.6327 0.0
H2620 H 0.68885 0.22742 0.63793 0.0
H2621 H 0.62333 0.26266 0.62795 0.0
H2622 H 0.59761 0.28292 0.61356 0.0
H2623 H 0.59577 0.23261 0.58276 0.0
H2624 H 0.62172 0.21217 0.59687 0.0
H2625 H 0.6326 0.13872 0.66803 0.0
H2626 H 0.64415 0.17466 0.66161 0.0
H2627 H 0.63833 0.15886 0.61711 0.0
H2628 H 0.62664 0.12316 0.62342 0.0
H2629 H 0.6199 0.19644 0.62309 0.0
H2630 H 0.68674 0.16189 0.63315 0.0
H2631 H 0.71212 0.14194 0.648 0.0
H2632 H 0.71057 0.19136 0.67946 0.0
H2633 H 0.68495 0.21148 0.66487 0.0
C2634 C 0.67269 0.27795 0.60094 0.0
C2635 C 0.67836 0.29416 0.61047 0.0
C2636 C 0.6674 0.25778 0.60596 0.0
C2637 C 0.6673 0.25352 0.62064 0.0
C2638 C 0.67366 0.26949 0.63015 0.0
C2639 C 0.67916 0.28965 0.62511 0.0
C2640 C 0.6601 0.23255 0.62599 0.0
C2641 C 0.67364 0.22077 0.63486 0.0
C2642 C 0.64033 0.22377 0.62188 0.0
C2643 C 0.62461 0.23596 0.61341 0.0
C2644 C 0.61755 0.25598 0.61806 0.0
C2645 C 0.60292 0.26749 0.60996 0.0
C2646 C 0.5951 0.25908 0.59724 0.0
C2647 C 0.60186 0.23912 0.59261 0.0
C2648 C 0.61651 0.22755 0.60066 0.0
C2649 C 0.63387 0.14292 0.65689 0.0
C2650 C 0.62873 0.12814 0.64623 0.0
C2651 C 0.64053 0.16341 0.65323 0.0
C2652 C 0.64222 0.16939 0.63887 0.0
C2653 C 0.63712 0.1546 0.62825 0.0
C2654 C 0.6305 0.13418 0.63188 0.0
C2655 C 0.64881 0.19115 0.63478 0.0
C2656 C 0.63508 0.20313 0.6262 0.0
C2657 C 0.6683 0.20013 0.63925 0.0
C2658 C 0.68376 0.18808 0.64799 0.0
C2659 C 0.69168 0.16842 0.64329 0.0
C2660 C 0.70613 0.1571 0.65165 0.0
C2661 C 0.7129 0.16535 0.66468 0.0
C2662 C 0.70528 0.18497 0.66937 0.0
C2663 C 0.69081 0.19635 0.66105 0.0
H2664 H 0.72409 0.15656 0.67114 0.0
H2665 H 0.58377 0.26801 0.59098 0.0
H2666 H 0.45196 0.88735 0.35857 0.0
H2667 H 0.48693 0.88111 0.36911 0.0
H2668 H 0.49361 0.94811 0.3773 0.0
H2669 H 0.45832 0.95447 0.367 0.0
H2670 H 0.52948 0.92704 0.36303 0.0
H2671 H 0.48491 0.92055 0.4043 0.0
H2672 H 0.45439 0.90696 0.41796 0.0
H2673 H 0.4776 0.84327 0.41325 0.0
H2674 H 0.50811 0.85644 0.39937 0.0
H2675 H 0.6263 0.91281 0.39982 0.0
H2676 H 0.59015 0.92436 0.39426 0.0
H2677 H 0.56911 0.85916 0.39484 0.0
H2678 H 0.60501 0.84766 0.40097 0.0
H2679 H 0.53988 0.88255 0.40606 0.0
H2680 H 0.58132 0.88663 0.36325 0.0
H2681 H 0.61123 0.89793 0.3481 0.0
H2682 H 0.59349 0.96318 0.35385 0.0
H2683 H 0.56362 0.95227 0.3692 0.0
C2684 C 0.46085 0.90075 0.36264 0.0
C2685 C 0.45246 0.9214 0.36197 0.0
C2686 C 0.48076 0.89715 0.3687 0.0
C2687 C 0.49274 0.91414 0.37402 0.0
C2688 C 0.48453 0.93481 0.37327 0.0
C2689 C 0.4644 0.9384 0.36742 0.0
C2690 C 0.51407 0.91019 0.38005 0.0
C2691 C 0.53182 0.91768 0.3726 0.0
C2692 C 0.51698 0.89744 0.39227 0.0
C2693 C 0.49871 0.88948 0.40069 0.0
C2694 C 0.48342 0.90362 0.40607 0.0
C2695 C 0.46613 0.896 0.41388 0.0
C2696 C 0.46403 0.87426 0.41645 0.0
C2697 C 0.47924 0.8601 0.41125 0.0
C2698 C 0.49654 0.86764 0.40342 0.0
C2699 C 0.61389 0.90099 0.39892 0.0
C2700 C 0.61846 0.87933 0.40074 0.0
C2701 C 0.59326 0.90758 0.39566 0.0
C2702 C 0.57695 0.8926 0.39383 0.0
C2703 C 0.58139 0.87103 0.39616 0.0
C2704 C 0.60193 0.86446 0.39964 0.0
C2705 C 0.55548 0.89921 0.38896 0.0
C2706 C 0.53765 0.89216 0.3966 0.0
C2707 C 0.55248 0.91204 0.37673 0.0
C2708 C 0.5704 0.91865 0.3675 0.0
C2709 C 0.5839 0.9034 0.36137 0.0
C2710 C 0.60082 0.90973 0.35274 0.0
C2711 C 0.6043 0.93126 0.35005 0.0
C2712 C 0.59081 0.94651 0.35597 0.0
C2713 C 0.57388 0.94026 0.36463 0.0
H2714 H 0.61741 0.93614 0.34336 0.0
H2715 H 0.45064 0.86839 0.42249 0.0
H2716 H 0.8438 0.71777 0.08874 0.0
H2717 H 0.85256 0.75312 0.09754 0.0
H2718 H 0.82646 0.73707 0.1386 0.0
H2719 H 0.81724 0.70163 0.12973 0.0
H2720 H 0.8149 0.7765 0.13075 0.0
H2721 H 0.87977 0.73779 0.13368 0.0
H2722 H 0.90873 0.7147 0.1252 0.0
H2723 H 0.92483 0.76049 0.09313 0.0
H2724 H 0.89577 0.78374 0.10129 0.0
H2725 H 0.86463 0.86688 0.1639 0.0
H2726 H 0.85364 0.83062 0.15787 0.0
H2727 H 0.8735 0.84064 0.11446 0.0
H2728 H 0.88445 0.87678 0.12038 0.0
H2729 H 0.88866 0.80316 0.12574 0.0
H2730 H 0.82206 0.84083 0.12245 0.0
H2731 H 0.79316 0.86363 0.13138 0.0
H2732 H 0.78085 0.81927 0.16507 0.0
H2733 H 0.80989 0.79634 0.15645 0.0
C2734 C 0.83987 0.72176 0.09964 0.0
C2735 C 0.82994 0.7069 0.10858 0.0
C2736 C 0.84497 0.74195 0.10467 0.0
C2737 C 0.8405 0.74761 0.11881 0.0
C2738 C 0.83014 0.73298 0.12768 0.0
C2739 C 0.82492 0.71276 0.12261 0.0
C2740 C 0.84678 0.76881 0.12422 0.0
C2741 C 0.8311 0.78221 0.12989 0.0
C2742 C 0.86788 0.77634 0.12294 0.0
C2743 C 0.88547 0.76244 0.11803 0.0
C2744 C 0.88939 0.74287 0.12475 0.0
C2745 C 0.90584 0.72976 0.12001 0.0
C2746 C 0.91858 0.7361 0.10861 0.0
C2747 C 0.91493 0.75559 0.10195 0.0
C2748 C 0.89849 0.76876 0.10664 0.0
C2749 C 0.86652 0.86137 0.15306 0.0
C2750 C 0.87537 0.87464 0.14261 0.0
C2751 C 0.86021 0.8407 0.14963 0.0
C2752 C 0.86272 0.833 0.13571 0.0
C2753 C 0.87147 0.84628 0.12526 0.0
C2754 C 0.87763 0.86694 0.12866 0.0
C2755 C 0.85671 0.81094 0.132 0.0
C2756 C 0.87249 0.79737 0.1267 0.0
C2757 C 0.83578 0.80324 0.13373 0.0
C2758 C 0.81831 0.817 0.13891 0.0
C2759 C 0.81332 0.83604 0.13184 0.0
C2760 C 0.79688 0.84896 0.13683 0.0
C2761 C 0.78522 0.84293 0.14881 0.0
C2762 C 0.78992 0.82393 0.15581 0.0
C2763 C 0.80636 0.81096 0.15087 0.0
H2764 H 0.77249 0.85296 0.15265 0.0
H2765 H 0.93132 0.72595 0.10495 0.0
H2766 H 0.0483 0.07002 0.8822 0.0
H2767 H 0.01279 0.07873 0.8911 0.0
H2768 H 0.99274 0.09415 0.84841 0.0
H2769 H 0.02827 0.08606 0.83956 0.0
H2770 H 0.98063 0.12396 0.86598 0.0
H2771 H 0.97737 0.04747 0.86596 0.0
H2772 H 0.98921 0.01137 0.87229 0.0
H2773 H 0.98151 0.02574 0.91665 0.0
H2774 H 0.96988 0.06204 0.91059 0.0
H2775 H 0.86963 0.12738 0.87342 0.0
H2776 H 0.90569 0.11668 0.86713 0.0
H2777 H 0.92057 0.10795 0.91156 0.0
H2778 H 0.88431 0.11851 0.91794 0.0
H2779 H 0.93611 0.07555 0.895 0.0
H2780 H 0.93779 0.15153 0.89484 0.0
H2781 H 0.92603 0.18763 0.88844 0.0
H2782 H 0.93673 0.17407 0.84424 0.0
H2783 H 0.94829 0.1378 0.85036 0.0
C2784 C 0.03624 0.0751 0.87471 0.0
C2785 C 0.04104 0.07738 0.86019 0.0
C2786 C 0.01594 0.08001 0.8798 0.0
C2787 C 1.00002 0.08696 0.87041 0.0
C2788 C 0.00476 0.08888 0.85587 0.0
C2789 C 0.02506 0.08419 0.85081 0.0
C2790 C 0.97863 0.09305 0.87569 0.0
C2791 C 0.97081 0.11325 0.87217 0.0
C2792 C 0.96606 0.07937 0.88418 0.0
C2793 C 0.97297 0.05753 0.88783 0.0
C2794 C 0.97836 0.04298 0.87707 0.0
C2795 C 0.985 0.02248 0.88061 0.0
C2796 C 0.98617 0.01628 0.89486 0.0
C2797 C 0.98063 0.03057 0.90561 0.0
C2798 C 0.974 0.0511 0.90214 0.0
C2799 C 0.88054 0.12313 0.88186 0.0
C2800 C 0.87418 0.12388 0.89618 0.0
C2801 C 0.90117 0.11709 0.87825 0.0
C2802 C 0.91589 0.1118 0.88889 0.0
C2803 C 0.90947 0.11205 0.90319 0.0
C2804 C 0.88879 0.11812 0.90682 0.0
C2805 C 0.93803 0.10624 0.88499 0.0
C2806 C 0.94599 0.08623 0.88883 0.0
C2807 C 0.95076 0.12007 0.87676 0.0
C2808 C 0.94375 0.14188 0.87305 0.0
C2809 C 0.93747 0.15619 0.88374 0.0
C2810 C 0.93086 0.1767 0.88017 0.0
C2811 C 0.93059 0.18313 0.86594 0.0
C2812 C 0.93693 0.16907 0.85526 0.0
C2813 C 0.94354 0.14854 0.85877 0.0
H2814 H 0.92554 0.19902 0.86318 0.0
H2815 H 0.99131 0.0004 0.89758 0.0
H2816 H 0.81705 0.80399 0.63268 0.0
H2817 H 0.82406 0.76862 0.64252 0.0
H2818 H 0.84046 0.74592 0.60062 0.0
H2819 H 0.83321 0.78098 0.59073 0.0
H2820 H 0.81582 0.71787 0.61437 0.0
H2821 H 0.87855 0.75947 0.62498 0.0
H2822 H 0.89766 0.78989 0.63542 0.0
H2823 H 0.87542 0.77253 0.67702 0.0
H2824 H 0.85593 0.74216 0.66678 0.0
H2825 H 0.87748 0.62682 0.62487 0.0
H2826 H 0.86434 0.6622 0.61916 0.0
H2827 H 0.85275 0.67413 0.66371 0.0
H2828 H 0.86641 0.6387 0.66955 0.0
H2829 H 0.87112 0.70776 0.65136 0.0
H2830 H 0.81149 0.6637 0.64092 0.0
H2831 H 0.79256 0.63329 0.63034 0.0
H2832 H 0.80869 0.6552 0.58845 0.0
H2833 H 0.82798 0.68559 0.59878 0.0
C2834 C 0.82205 0.79141 0.62558 0.0
C2835 C 0.82465 0.79525 0.61095 0.0
C2836 C 0.82612 0.77125 0.63122 0.0
C2837 C 0.83297 0.75468 0.62232 0.0
C2838 C 0.83517 0.75845 0.60768 0.0
C2839 C 0.83109 0.77852 0.60205 0.0
C2840 C 0.83826 0.73345 0.62814 0.0
C2841 C 0.82799 0.71564 0.6224 0.0
C2842 C 0.85368 0.7306 0.63893 0.0
C2843 C 0.86559 0.7487 0.6451 0.0
C2844 C 0.87761 0.76223 0.63634 0.0
C2845 C 0.88853 0.77945 0.64222 0.0
C2846 C 0.8877 0.78318 0.65687 0.0
C2847 C 0.87601 0.76965 0.66567 0.0
C2848 C 0.86504 0.75243 0.65984 0.0
C2849 C 0.87207 0.63692 0.63347 0.0
C2850 C 0.87287 0.62995 0.64765 0.0
C2851 C 0.86447 0.65713 0.63018 0.0
C2852 C 0.85721 0.6707 0.64098 0.0
C2853 C 0.85817 0.66388 0.6552 0.0
C2854 C 0.86592 0.64364 0.65851 0.0
C2855 C 0.84904 0.69212 0.63732 0.0
C2856 C 0.85872 0.70997 0.64348 0.0
C2857 C 0.83306 0.69503 0.6269 0.0
C2858 C 0.8213 0.67686 0.62064 0.0
C2859 C 0.81112 0.66197 0.62945 0.0
C2860 C 0.80031 0.64474 0.6235 0.0
C2861 C 0.79945 0.6423 0.60874 0.0
C2862 C 0.80937 0.65711 0.59989 0.0
C2863 C 0.82021 0.67436 0.60578 0.0
H2864 H 0.79109 0.62894 0.60415 0.0
H2865 H 0.89615 0.79652 0.6614 0.0
H2866 H 0.60556 0.62407 0.91495 0.0
H2867 H 0.57074 0.61021 0.90827 0.0
H2868 H 0.59925 0.57544 0.87362 0.0
H2869 H 0.63409 0.58972 0.88006 0.0
H2870 H 0.56597 0.59649 0.86459 0.0
H2871 H 0.57949 0.55006 0.90373 0.0
H2872 H 0.58935 0.54044 0.92829 0.0
H2873 H 0.53629 0.57588 0.94437 0.0
H2874 H 0.52627 0.58597 0.91991 0.0
H2875 H 0.46876 0.5473 0.84589 0.0
H2876 H 0.50531 0.55123 0.85438 0.0
H2877 H 0.48329 0.59047 0.88899 0.0
H2878 H 0.44673 0.58634 0.8807 0.0
H2879 H 0.51424 0.56354 0.89771 0.0
H2880 H 0.50314 0.61267 0.85894 0.0
H2881 H 0.49329 0.62279 0.83446 0.0
H2882 H 0.5422 0.58228 0.81785 0.0
H2883 H 0.55215 0.5717 0.84224 0.0
C2884 C 0.60444 0.61326 0.90602 0.0
C2885 C 0.62252 0.608 0.89801 0.0
C2886 C 0.58454 0.60525 0.90225 0.0
C2887 C 0.58239 0.5916 0.89052 0.0
C2888 C 0.60053 0.58593 0.88272 0.0
C2889 C 0.62043 0.59405 0.88643 0.0
C2890 C 0.56103 0.5845 0.88581 0.0
C2891 C 0.55484 0.58887 0.87177 0.0
C2892 C 0.54629 0.57501 0.89525 0.0
C2893 C 0.55223 0.56891 0.90998 0.0
C2894 C 0.57001 0.55594 0.91251 0.0
C2895 C 0.57561 0.55038 0.92641 0.0
C2896 C 0.56348 0.55758 0.93788 0.0
C2897 C 0.54569 0.57032 0.93547 0.0
C2898 C 0.54002 0.57594 0.92159 0.0
C2899 C 0.4717 0.55658 0.85539 0.0
C2900 C 0.45493 0.56665 0.86257 0.0
C2901 C 0.49258 0.55885 0.86021 0.0
C2902 C 0.49704 0.57138 0.87221 0.0
C2903 C 0.48021 0.58075 0.8797 0.0
C2904 C 0.45934 0.57844 0.87492 0.0
C2905 C 0.51926 0.57568 0.87655 0.0
C2906 C 0.52555 0.57087 0.89051 0.0
C2907 C 0.53412 0.58479 0.86706 0.0
C2908 C 0.52823 0.59122 0.8524 0.0
C2909 C 0.51169 0.6058 0.85006 0.0
C2910 C 0.5061 0.61164 0.8362 0.0
C2911 C 0.51707 0.60313 0.8246 0.0
C2912 C 0.53369 0.58882 0.82684 0.0
C2913 C 0.53932 0.58291 0.84068 0.0
H2914 H 0.51273 0.60767 0.81388 0.0
H2915 H 0.56785 0.55326 0.94864 0.0
H2916 H 0.63641 0.36895 0.16583 0.0
H2917 H 0.64821 0.33304 0.15958 0.0
H2918 H 0.63114 0.34435 0.11578 0.0
H2919 H 0.61937 0.38015 0.12192 0.0
H2920 H 0.61624 0.30613 0.12573 0.0
H2921 H 0.68203 0.34521 0.12537 0.0
H2922 H 0.7097 0.36835 0.13554 0.0
H2923 H 0.72059 0.32324 0.169 0.0
H2924 H 0.69274 0.29994 0.15914 0.0
H2925 H 0.66476 0.2208 0.09057 0.0
H2926 H 0.65586 0.25657 0.09861 0.0
H2927 H 0.67773 0.24107 0.14086 0.0
H2928 H 0.68703 0.20524 0.1328 0.0
H2929 H 0.68996 0.28066 0.13324 0.0
H2930 H 0.62533 0.24105 0.13355 0.0
H2931 H 0.59754 0.21766 0.12377 0.0
H2932 H 0.58397 0.26347 0.09119 0.0
H2933 H 0.61191 0.28702 0.10065 0.0
C2934 C 0.63524 0.36377 0.15487 0.0
C2935 C 0.62699 0.37735 0.14436 0.0
C2936 C 0.64204 0.34331 0.15131 0.0
C2937 C 0.64064 0.33609 0.1372 0.0
C2938 C 0.63234 0.34961 0.12672 0.0
C2939 C 0.62569 0.37008 0.13025 0.0
C2940 C 0.64744 0.31433 0.13331 0.0
C2941 C 0.63242 0.30063 0.12723 0.0
C2942 C 0.66838 0.30698 0.13567 0.0
C2943 C 0.68513 0.32095 0.1416 0.0
C2944 C 0.69018 0.34031 0.13497 0.0
C2945 C 0.70593 0.35344 0.14066 0.0
C2946 C 0.71685 0.3473 0.15293 0.0
C2947 C 0.71209 0.32799 0.15951 0.0
C2948 C 0.69634 0.31481 0.15387 0.0
C2949 C 0.66782 0.22504 0.10155 0.0
C2950 C 0.67645 0.21018 0.11108 0.0
C2951 C 0.66265 0.24546 0.10615 0.0
C2952 C 0.66579 0.25137 0.1204 0.0
C2953 C 0.6751 0.2368 0.12983 0.0
C2954 C 0.68036 0.21635 0.12522 0.0
C2955 C 0.65883 0.27257 0.12546 0.0
C2956 C 0.67377 0.28613 0.1318 0.0
C2957 C 0.63775 0.27978 0.12342 0.0
C2958 C 0.62085 0.26571 0.11774 0.0
C2959 C 0.61653 0.24607 0.12424 0.0
C2960 C 0.60074 0.23279 0.11876 0.0
C2961 C 0.58903 0.23905 0.10685 0.0
C2962 C 0.59307 0.25863 0.10041 0.0
C2963 C 0.60887 0.27196 0.10583 0.0
H2964 H 0.57681 0.22875 0.10262 0.0
H2965 H 0.72904 0.35748 0.15732 0.0
H2966 H 0.86151 0.39948 0.37635 0.0
H2967 H 0.89693 0.41114 0.36906 0.0
H2968 H 0.92497 0.36869 0.39986 0.0
H2969 H 0.88956 0.358 0.40772 0.0
H2970 H 0.947 0.40194 0.39971 0.0
H2971 H 0.92074 0.35707 0.36261 0.0
H2972 H 0.89556 0.34475 0.34428 0.0
H2973 H 0.90241 0.40376 0.32188 0.0
H2974 H 0.92744 0.41654 0.34018 0.0
H2975 H 0.03728 0.39188 0.34295 0.0
H2976 H 0.00131 0.38411 0.35108 0.0
H2977 H 0.00146 0.44154 0.37615 0.0
H2978 H 0.03795 0.44877 0.36858 0.0
H2979 H 0.96533 0.40102 0.34839 0.0
H2980 H 0.97081 0.43643 0.40528 0.0
H2981 H 0.99773 0.44264 0.42391 0.0
H2982 H 0.03563 0.39172 0.40726 0.0
H2983 H 0.00882 0.38504 0.38866 0.0
C2984 C 0.87527 0.39279 0.38162 0.0
C2985 C 0.87285 0.37778 0.39254 0.0
C2986 C 0.89551 0.39935 0.37739 0.0
C2987 C 0.91373 0.39047 0.38368 0.0
C2988 C 0.91124 0.3758 0.39482 0.0
C2989 C 0.89099 0.36964 0.39929 0.0
C2990 C 0.93536 0.39609 0.3785 0.0
C2991 C 0.95097 0.40176 0.38848 0.0
C2992 C 0.94079 0.39548 0.36387 0.0
C2993 C 0.92578 0.38784 0.35284 0.0
C2994 C 0.91676 0.36747 0.35382 0.0
C2995 C 0.90254 0.3604 0.34343 0.0
C2996 C 0.89735 0.37349 0.33194 0.0
C2997 C 0.90642 0.39366 0.3308 0.0
C2998 C 0.92064 0.40081 0.34117 0.0
C2999 C 0.02962 0.40286 0.35019 0.0
C3000 C 0.04043 0.42085 0.35521 0.0
C3001 C 0.00902 0.39844 0.3548 0.0
C3002 C 0.99869 0.41206 0.3644 0.0
C3003 C 0.00923 0.43048 0.36903 0.0
C3004 C 0.03003 0.43468 0.36463 0.0
C3005 C 0.977 0.40677 0.3696 0.0
C3006 C 0.96134 0.40127 0.35962 0.0
C3007 C 0.97179 0.40664 0.38427 0.0
C3008 C 0.98792 0.41041 0.39549 0.0
C3009 C 0.98487 0.42653 0.40563 0.0
C3010 C 1.00011 0.43013 0.41617 0.0
C3011 C 0.01842 0.41763 0.41673 0.0
C3012 C 0.02149 0.40144 0.40678 0.0
C3013 C 0.00629 0.39776 0.39622 0.0
H3014 H 0.0302 0.42046 0.4249 0.0
H3015 H 0.88633 0.36799 0.32391 0.0
H3016 H 0.86065 0.36304 0.83429 0.0
H3017 H 0.84812 0.32793 0.84186 0.0
H3018 H 0.85899 0.345 0.8857 0.0
H3019 H 0.87115 0.3802 0.87825 0.0
H3020 H 0.87785 0.30542 0.87651 0.0
H3021 H 0.81087 0.34287 0.87571 0.0
H3022 H 0.78285 0.36463 0.86462 0.0
H3023 H 0.7738 0.31711 0.83243 0.0
H3024 H 0.802 0.2952 0.84322 0.0
H3025 H 0.83282 0.21953 0.91295 0.0
H3026 H 0.84041 0.25538 0.90447 0.0
H3027 H 0.8177 0.2384 0.86267 0.0
H3028 H 0.80965 0.20252 0.87119 0.0
H3029 H 0.80484 0.27761 0.86965 0.0
H3030 H 0.87 0.23976 0.86948 0.0
H3031 H 0.8984 0.21712 0.87918 0.0
H3032 H 0.91247 0.26422 0.91082 0.0
H3033 H 0.88376 0.28697 0.90152 0.0
C3034 C 0.86014 0.35936 0.84554 0.0
C3035 C 0.86686 0.37432 0.85569 0.0
C3036 C 0.85297 0.33936 0.84984 0.0
C3037 C 0.85265 0.33395 0.86433 0.0
C3038 C 0.85914 0.34893 0.87447 0.0
C3039 C 0.86599 0.36902 0.8702 0.0
C3040 C 0.84638 0.31238 0.8689 0.0
C3041 C 0.86183 0.2994 0.8752 0.0
C3042 C 0.82569 0.30436 0.86666 0.0
C3043 C 0.80871 0.31751 0.86018 0.0
C3044 C 0.80305 0.33715 0.86619 0.0
C3045 C 0.7871 0.34949 0.85998 0.0
C3046 C 0.77659 0.34229 0.84781 0.0
C3047 C 0.78197 0.32269 0.84185 0.0
C3048 C 0.79793 0.3103 0.84801 0.0
C3049 C 0.8293 0.22347 0.90198 0.0
C3050 C 0.82079 0.2082 0.8927 0.0
C3051 C 0.83371 0.24393 0.89713 0.0
C3052 C 0.82995 0.24946 0.88288 0.0
C3053 C 0.82079 0.23445 0.8737 0.0
C3054 C 0.81625 0.21397 0.87857 0.0
C3055 C 0.83624 0.27069 0.87751 0.0
C3056 C 0.82087 0.28358 0.87098 0.0
C3057 C 0.85714 0.27853 0.87931 0.0
C3058 C 0.87457 0.26499 0.88489 0.0
C3059 C 0.87903 0.24523 0.87858 0.0
C3060 C 0.89521 0.23238 0.884 0.0
C3061 C 0.90724 0.23921 0.89561 0.0
C3062 C 0.90312 0.25894 0.90183 0.0
C3063 C 0.88688 0.27182 0.8965 0.0
H3064 H 0.91978 0.22924 0.89978 0.0
H3065 H 0.76424 0.35186 0.84302 0.0
H3066 H 0.03105 0.58173 0.16119 0.0
H3067 H 0.99526 0.58839 0.1521 0.0
H3068 H 0.01888 0.58563 0.10907 0.0
H3069 H 0.05477 0.57871 0.1181 0.0
H3070 H 0.99266 0.62136 0.11495 0.0
H3071 H 0.99152 0.54555 0.12022 0.0
H3072 H 0.99639 0.51172 0.13299 0.0
H3073 H 0.95045 0.5309 0.16419 0.0
H3074 H 0.94553 0.565 0.15172 0.0
H3075 H 0.89094 0.6239 0.08255 0.0
H3076 H 0.92677 0.61268 0.08929 0.0
H3077 H 0.90667 0.60661 0.13299 0.0
H3078 H 0.87078 0.61751 0.1263 0.0
H3079 H 0.93167 0.57406 0.12554 0.0
H3080 H 0.9339 0.64978 0.12209 0.0
H3081 H 0.92889 0.68459 0.1106 0.0
H3082 H 0.97267 0.66705 0.07761 0.0
H3083 H 0.97766 0.63195 0.08879 0.0
C3084 C 0.0286 0.58243 0.14979 0.0
C3085 C 0.04567 0.57967 0.14034 0.0
C3086 C 0.00816 0.58618 0.14462 0.0
C3087 C 0.00444 0.58739 0.12992 0.0
C3088 C 0.02145 0.58471 0.12045 0.0
C3089 C 0.04189 0.5807 0.12562 0.0
C3090 C 0.98282 0.59191 0.12451 0.0
C3091 C 0.97937 0.61085 0.11702 0.0
C3092 C 0.96545 0.57846 0.12761 0.0
C3093 C 0.9683 0.55792 0.1351 0.0
C3094 C 0.98259 0.54264 0.12987 0.0
C3095 C 0.98533 0.52339 0.13704 0.0
C3096 C 0.97378 0.51918 0.14941 0.0
C3097 C 0.95941 0.53419 0.15462 0.0
C3098 C 0.95662 0.55347 0.14749 0.0
C3099 C 0.89413 0.62003 0.09358 0.0
C3100 C 0.87809 0.62167 0.10391 0.0
C3101 C 0.91462 0.61371 0.09742 0.0
C3102 C 0.91945 0.60905 0.11168 0.0
C3103 C 0.9033 0.61013 0.12194 0.0
C3104 C 0.88282 0.61643 0.1181 0.0
C3105 C 0.94144 0.60357 0.116 0.0
C3106 C 0.94497 0.58449 0.12333 0.0
C3107 C 0.95885 0.61703 0.11292 0.0
C3108 C 0.95596 0.63815 0.10619 0.0
C3109 C 0.94232 0.65328 0.11232 0.0
C3110 C 0.93951 0.67307 0.10588 0.0
C3111 C 0.95041 0.67802 0.09337 0.0
C3112 C 0.9642 0.66318 0.08729 0.0
C3113 C 0.96703 0.64333 0.09368 0.0
H3114 H 0.94822 0.69336 0.0884 0.0
H3115 H 0.97592 0.50427 0.15495 0.0
H3116 H 0.62644 0.64237 0.32865 0.0
H3117 H 0.63763 0.67907 0.33323 0.0
H3118 H 0.64393 0.6647 0.37792 0.0
H3119 H 0.63256 0.62832 0.37347 0.0
H3120 H 0.62242 0.70063 0.37409 0.0
H3121 H 0.68732 0.6698 0.35601 0.0
H3122 H 0.7095 0.65126 0.33832 0.0
H3123 H 0.69683 0.7003 0.30774 0.0
H3124 H 0.67434 0.719 0.32521 0.0
H3125 H 0.68323 0.7814 0.4035 0.0
H3126 H 0.67408 0.74694 0.3934 0.0
H3127 H 0.66319 0.77612 0.35254 0.0
H3128 H 0.67231 0.81095 0.36264 0.0
H3129 H 0.68477 0.73515 0.35158 0.0
H3130 H 0.62201 0.76728 0.37051 0.0
H3131 H 0.60066 0.78597 0.38857 0.0
H3132 H 0.60955 0.73421 0.4177 0.0
H3133 H 0.63127 0.71535 0.39988 0.0
C3134 C 0.63032 0.64707 0.33943 0.0
C3135 C 0.6286 0.6325 0.35071 0.0
C3136 C 0.63677 0.66799 0.34202 0.0
C3137 C 0.64171 0.67461 0.35592 0.0
C3138 C 0.64014 0.65998 0.36713 0.0
C3139 C 0.63369 0.63916 0.36456 0.0
C3140 C 0.64794 0.69686 0.35903 0.0
C3141 C 0.63614 0.70809 0.36922 0.0
C3142 C 0.66543 0.70688 0.35235 0.0
C3143 C 0.67895 0.69566 0.34186 0.0
C3144 C 0.68911 0.67653 0.34548 0.0
C3145 C 0.70177 0.66601 0.3355 0.0
C3146 C 0.70452 0.67456 0.3219 0.0
C3147 C 0.69466 0.69368 0.31827 0.0
C3148 C 0.68196 0.70425 0.32821 0.0
C3149 C 0.67919 0.78051 0.39231 0.0
C3150 C 0.67831 0.79891 0.38389 0.0
C3151 C 0.67395 0.76079 0.38657 0.0
C3152 C 0.66772 0.75906 0.37229 0.0
C3153 C 0.66793 0.77718 0.3636 0.0
C3154 C 0.6731 0.79703 0.36939 0.0
C3155 C 0.6596 0.73851 0.3669 0.0
C3156 C 0.67092 0.72771 0.35629 0.0
C3157 C 0.64166 0.7288 0.37318 0.0
C3158 C 0.62841 0.73998 0.38389 0.0
C3159 C 0.61955 0.75995 0.3808 0.0
C3160 C 0.60736 0.77057 0.39099 0.0
C3161 C 0.60378 0.7613 0.40428 0.0
C3162 C 0.61235 0.74137 0.4074 0.0
C3163 C 0.62458 0.73071 0.39725 0.0
H3164 H 0.59434 0.76955 0.41216 0.0
H3165 H 0.71433 0.6664 0.31419 0.0
H3166 H 0.61798 0.38724 0.58294 0.0
H3167 H 0.58153 0.39812 0.58854 0.0
H3168 H 0.59261 0.38435 0.63289 0.0
H3169 H 0.62884 0.37334 0.62737 0.0
H3170 H 0.55574 0.36728 0.62364 0.0
H3171 H 0.59125 0.43522 0.62066 0.0
H3172 H 0.61256 0.46295 0.60887 0.0
H3173 H 0.56624 0.46745 0.57548 0.0
H3174 H 0.54478 0.43953 0.58698 0.0
H3175 H 0.47214 0.41603 0.65975 0.0
H3176 H 0.50716 0.40741 0.65033 0.0
H3177 H 0.48627 0.42418 0.60808 0.0
H3178 H 0.45104 0.43317 0.61752 0.0
H3179 H 0.5264 0.4388 0.6135 0.0
H3180 H 0.48963 0.37295 0.61705 0.0
H3181 H 0.46798 0.34526 0.62858 0.0
H3182 H 0.51634 0.33626 0.66021 0.0
H3183 H 0.53816 0.36414 0.649 0.0
C3184 C 0.61265 0.38666 0.59388 0.0
C3185 C 0.62625 0.37944 0.60472 0.0
C3186 C 0.59186 0.39293 0.59708 0.0
C3187 C 0.58438 0.39213 0.61115 0.0
C3188 C 0.59802 0.38506 0.62196 0.0
C3189 C 0.61876 0.37884 0.61879 0.0
C3190 C 0.5622 0.39808 0.6147 0.0
C3191 C 0.5494 0.38298 0.62154 0.0
C3192 C 0.55367 0.41831 0.61149 0.0
C3193 C 0.56654 0.43512 0.6046 0.0
C3194 C 0.5857 0.442 0.61074 0.0
C3195 C 0.59779 0.45777 0.60412 0.0
C3196 C 0.59079 0.46691 0.59141 0.0
C3197 C 0.57166 0.46033 0.58531 0.0
C3198 C 0.55952 0.44454 0.59188 0.0
C3199 C 0.47499 0.41799 0.64846 0.0
C3200 C 0.4588 0.42514 0.63935 0.0
C3201 C 0.495 0.41299 0.64308 0.0
C3202 C 0.49923 0.41481 0.62847 0.0
C3203 C 0.48331 0.42257 0.61938 0.0
C3204 C 0.46321 0.42765 0.62478 0.0
C3205 C 0.52019 0.40817 0.62279 0.0
C3206 C 0.5327 0.42305 0.6155 0.0
C3207 C 0.52846 0.38767 0.6255 0.0
C3208 C 0.51546 0.37076 0.63223 0.0
C3209 C 0.49559 0.36518 0.62652 0.0
C3210 C 0.48329 0.34943 0.63299 0.0
C3211 C 0.49076 0.33904 0.64514 0.0
C3212 C 0.51057 0.34434 0.65081 0.0
C3213 C 0.52292 0.3601 0.64439 0.0
H3214 H 0.48122 0.32685 0.65013 0.0
H3215 H 0.60017 0.47912 0.58631 0.0
H3216 H 0.1121 0.36973 0.37553 0.0
H3217 H 0.12512 0.33467 0.38224 0.0
H3218 H 0.1586 0.32985 0.34231 0.0
H3219 H 0.14508 0.36486 0.33535 0.0
H3220 H 0.1392 0.2935 0.34825 0.0
H3221 H 0.18524 0.34017 0.37368 0.0
H3222 H 0.19459 0.37012 0.38937 0.0
H3223 H 0.16122 0.34069 0.42398 0.0
H3224 H 0.15141 0.3107 0.40845 0.0
H3225 H 0.1932 0.20027 0.37329 0.0
H3226 H 0.1868 0.23626 0.36427 0.0
H3227 H 0.147 0.24946 0.40056 0.0
H3228 H 0.1534 0.21374 0.40964 0.0
H3229 H 0.17406 0.28204 0.39497 0.0
H3230 H 0.12542 0.23723 0.36871 0.0
H3231 H 0.1161 0.20728 0.35301 0.0
H3232 H 0.15512 0.23335 0.31987 0.0
H3233 H 0.16491 0.26332 0.33546 0.0
C3234 C 0.12228 0.36125 0.36818 0.0
C3235 C 0.12767 0.37008 0.35494 0.0
C3236 C 0.12981 0.34124 0.37206 0.0
C3237 C 0.14316 0.32977 0.36289 0.0
C3238 C 0.1484 0.33846 0.34959 0.0
C3239 C 0.14072 0.35846 0.34564 0.0
C3240 C 0.15125 0.30856 0.36719 0.0
C3241 C 0.1472 0.29106 0.35834 0.0
C3242 C 0.16146 0.3053 0.38045 0.0
C3243 C 0.16747 0.32324 0.38986 0.0
C3244 C 0.17978 0.34015 0.38461 0.0
C3245 C 0.18518 0.35713 0.39348 0.0
C3246 C 0.17848 0.35733 0.40765 0.0
C3247 C 0.1664 0.34052 0.413 0.0
C3248 C 0.16094 0.32351 0.40417 0.0
C3249 C 0.18316 0.2109 0.37936 0.0
C3250 C 0.17375 0.20419 0.39215 0.0
C3251 C 0.17947 0.23141 0.37417 0.0
C3252 C 0.1663 0.24547 0.3817 0.0
C3253 C 0.15723 0.23888 0.3946 0.0
C3254 C 0.16085 0.21843 0.39975 0.0
C3255 C 0.1616 0.26701 0.37617 0.0
C3256 C 0.16632 0.28456 0.3848 0.0
C3257 C 0.15208 0.27031 0.36271 0.0
C3258 C 0.14609 0.25238 0.35331 0.0
C3259 C 0.13214 0.23649 0.35812 0.0
C3260 C 0.12675 0.21952 0.34923 0.0
C3261 C 0.13506 0.21838 0.33547 0.0
C3262 C 0.14873 0.23424 0.33055 0.0
C3263 C 0.15419 0.25122 0.3394 0.0
H3264 H 0.13087 0.20523 0.32861 0.0
H3265 H 0.18267 0.37049 0.4145 0.0
H3266 H 0.37739 0.36215 0.12788 0.0
H3267 H 0.41264 0.37542 0.13391 0.0
H3268 H 0.41607 0.40773 0.09349 0.0
H3269 H 0.38079 0.39406 0.08725 0.0
H3270 H 0.45296 0.38848 0.09952 0.0
H3271 H 0.40609 0.43534 0.12409 0.0
H3272 H 0.37622 0.44516 0.13971 0.0
H3273 H 0.40653 0.41405 0.17493 0.0
H3274 H 0.43645 0.40377 0.15946 0.0
H3275 H 0.54517 0.4462 0.12156 0.0
H3276 H 0.50912 0.43805 0.11338 0.0
H3277 H 0.4983 0.40107 0.15133 0.0
H3278 H 0.53415 0.40929 0.1596 0.0
H3279 H 0.46462 0.42624 0.14519 0.0
H3280 H 0.51004 0.37719 0.11995 0.0
H3281 H 0.53979 0.36734 0.10423 0.0
H3282 H 0.51203 0.40324 0.07013 0.0
H3283 H 0.48223 0.41354 0.08573 0.0
C3284 C 0.38563 0.37208 0.12026 0.0
C3285 C 0.37629 0.37717 0.10712 0.0
C3286 C 0.40575 0.37974 0.12375 0.0
C3287 C 0.41685 0.39289 0.11426 0.0
C3288 C 0.40774 0.3977 0.101 0.0
C3289 C 0.38759 0.38992 0.09746 0.0
C3290 C 0.43803 0.40139 0.11824 0.0
C3291 C 0.45545 0.39708 0.10938 0.0
C3292 C 0.44135 0.41237 0.13121 0.0
C3293 C 0.42345 0.41865 0.14058 0.0
C3294 C 0.40632 0.43047 0.13514 0.0
C3295 C 0.38939 0.43613 0.14397 0.0
C3296 C 0.38946 0.4302 0.1583 0.0
C3297 C 0.40649 0.41862 0.16383 0.0
C3298 C 0.42345 0.4129 0.15504 0.0
C3299 C 0.53505 0.43642 0.12818 0.0
C3300 C 0.54249 0.42833 0.1412 0.0
C3301 C 0.51451 0.43171 0.12347 0.0
C3302 C 0.5011 0.41878 0.13169 0.0
C3303 C 0.50838 0.41107 0.14482 0.0
C3304 C 0.52889 0.41573 0.14951 0.0
C3305 C 0.47956 0.41298 0.12661 0.0
C3306 C 0.46208 0.41784 0.13526 0.0
C3307 C 0.47619 0.40258 0.11344 0.0
C3308 C 0.49404 0.39633 0.10405 0.0
C3309 C 0.51037 0.38313 0.10914 0.0
C3310 C 0.52722 0.37744 0.10024 0.0
C3311 C 0.52783 0.38471 0.0862 0.0
C3312 C 0.51155 0.39765 0.08102 0.0
C3313 C 0.49467 0.40341 0.08987 0.0
H3314 H 0.5409 0.38029 0.07933 0.0
H3315 H 0.37633 0.43459 0.16512 0.0
H3316 H 0.32329 0.80536 0.86352 0.0
H3317 H 0.33242 0.77014 0.8543 0.0
H3318 H 0.34001 0.74713 0.89727 0.0
H3319 H 0.33173 0.78239 0.90645 0.0
H3320 H 0.37178 0.73462 0.88222 0.0
H3321 H 0.29591 0.73468 0.87526 0.0
H3322 H 0.26182 0.74827 0.86611 0.0
H3323 H 0.28466 0.74241 0.82324 0.0
H3324 H 0.319 0.72903 0.83215 0.0
H3325 H 0.36757 0.62418 0.87454 0.0
H3326 H 0.35757 0.66088 0.87936 0.0
H3327 H 0.36556 0.67633 0.83497 0.0
H3328 H 0.37575 0.63937 0.83003 0.0
H3329 H 0.32783 0.69375 0.84803 0.0
H3330 H 0.40305 0.69075 0.85575 0.0
H3331 H 0.43615 0.67587 0.86559 0.0
H3332 H 0.41322 0.68639 0.90803 0.0
H3333 H 0.37983 0.70103 0.89845 0.0
C3334 C 0.32674 0.7927 0.87097 0.0
C3335 C 0.32684 0.79658 0.8857 0.0
C3336 C 0.33188 0.77256 0.8657 0.0
C3337 C 0.33677 0.75588 0.87508 0.0
C3338 C 0.33641 0.75973 0.8898 0.0
C3339 C 0.3316 0.77987 0.89505 0.0
C3340 C 0.34308 0.73459 0.86971 0.0
C3341 C 0.36201 0.72566 0.87485 0.0
C3342 C 0.33074 0.72307 0.85974 0.0
C3343 C 0.3101 0.73109 0.85438 0.0
C3344 C 0.29372 0.73645 0.86389 0.0
C3345 C 0.27434 0.74408 0.85875 0.0
C3346 C 0.2711 0.74626 0.84411 0.0
C3347 C 0.28721 0.74075 0.83458 0.0
C3348 C 0.30663 0.73313 0.83967 0.0
C3349 C 0.36712 0.63532 0.86577 0.0
C3350 C 0.37256 0.62894 0.85191 0.0
C3351 C 0.36143 0.65629 0.86855 0.0
C3352 C 0.36102 0.67131 0.85754 0.0
C3353 C 0.36583 0.66493 0.8436 0.0
C3354 C 0.37171 0.64388 0.84081 0.0
C3355 C 0.35613 0.69376 0.86087 0.0
C3356 C 0.33759 0.70289 0.85531 0.0
C3357 C 0.3687 0.70543 0.87057 0.0
C3358 C 0.38887 0.69685 0.87637 0.0
C3359 C 0.405 0.68975 0.86718 0.0
C3360 C 0.42383 0.68138 0.87271 0.0
C3361 C 0.42677 0.68015 0.88743 0.0
C3362 C 0.41092 0.68734 0.89664 0.0
C3363 C 0.39205 0.6957 0.89116 0.0
H3364 H 0.44136 0.67366 0.89169 0.0
H3365 H 0.25608 0.75217 0.84015 0.0
H3366 H 0.96035 0.61159 0.65055 0.0
H3367 H 0.99592 0.61895 0.64159 0.0
H3368 H 0.99718 0.55766 0.62105 0.0
H3369 H 0.96107 0.55063 0.62954 0.0
H3370 H 0.03184 0.60247 0.64633 0.0
H3371 H 0.02899 0.55891 0.59192 0.0
H3372 H 0.0029 0.54978 0.57331 0.0
H3373 H 0.96389 0.6024 0.58594 0.0
H3374 H 0.98987 0.612 0.60449 0.0
H3375 H 0.13671 0.60079 0.6207 0.0
H3376 H 0.10103 0.58947 0.62765 0.0
H3377 H 0.07432 0.62776 0.594 0.0
H3378 H 0.11003 0.63811 0.58657 0.0
H3379 H 0.05236 0.59417 0.59568 0.0
H3380 H 0.07684 0.64439 0.63021 0.0
H3381 H 0.10127 0.65937 0.6481 0.0
H3382 H 0.09376 0.60373 0.67401 0.0
H3383 H 0.06949 0.5883 0.65618 0.0
C3384 C 0.96817 0.59972 0.64407 0.0
C3385 C 0.95794 0.58056 0.6407 0.0
C3386 C 0.98855 0.60391 0.63898 0.0
C3387 C 0.99926 0.58895 0.63055 0.0
C3388 C 0.98913 0.56965 0.6273 0.0
C3389 C 0.96854 0.56559 0.63221 0.0
C3390 C 0.02109 0.5936 0.62538 0.0
C3391 C 0.0363 0.60061 0.63525 0.0
C3392 C 0.02692 0.59157 0.61089 0.0
C3393 C 0.01126 0.586 0.5997 0.0
C3394 C 0.01487 0.56855 0.5907 0.0
C3395 C 1.0001 0.5633 0.58016 0.0
C3396 C 0.98172 0.57545 0.57848 0.0
C3397 C 0.9781 0.59294 0.58729 0.0
C3398 C 0.99282 0.59828 0.59783 0.0
C3399 C 0.1232 0.6066 0.61473 0.0
C3400 C 0.12608 0.62042 0.60317 0.0
C3401 C 0.10281 0.60023 0.61874 0.0
C3402 C 0.08488 0.60812 0.61156 0.0
C3403 C 0.08784 0.62145 0.59974 0.0
C3404 C 0.10825 0.62742 0.59552 0.0
C3405 C 0.06306 0.60312 0.61662 0.0
C3406 C 0.0479 0.59595 0.60676 0.0
C3407 C 0.057 0.60584 0.63103 0.0
C3408 C 0.07152 0.6151 0.6418 0.0
C3409 C 0.08051 0.6353 0.63968 0.0
C3410 C 0.09431 0.64388 0.64982 0.0
C3411 C 0.09911 0.63249 0.66216 0.0
C3412 C 0.09006 0.61252 0.66443 0.0
C3413 C 0.07627 0.60385 0.65432 0.0
H3414 H 0.1098 0.63916 0.67 0.0
H3415 H 0.9703 0.57135 0.57032 0.0
H3416 H 0.13846 0.626 0.12664 0.0
H3417 H 0.15216 0.66151 0.12185 0.0
H3418 H 0.14124 0.67914 0.16559 0.0
H3419 H 0.1273 0.64349 0.17048 0.0
H3420 H 0.1269 0.70931 0.14699 0.0
H3421 H 0.19109 0.67089 0.15445 0.0
H3422 H 0.21652 0.64149 0.1514 0.0
H3423 H 0.22205 0.65604 0.10692 0.0
H3424 H 0.1964 0.68534 0.10965 0.0
H3425 H 0.17726 0.80863 0.13293 0.0
H3426 H 0.17027 0.77407 0.14399 0.0
H3427 H 0.17906 0.74336 0.10338 0.0
H3428 H 0.18636 0.77765 0.09236 0.0
H3429 H 0.19707 0.72067 0.12423 0.0
H3430 H 0.12949 0.75536 0.11614 0.0
H3431 H 0.1035 0.78439 0.11869 0.0
H3432 H 0.10407 0.77646 0.16408 0.0
H3433 H 0.13031 0.74756 0.16179 0.0
C3434 C 0.13904 0.63739 0.13527 0.0
C3435 C 0.13184 0.63196 0.14895 0.0
C3436 C 0.14698 0.65765 0.13253 0.0
C3437 C 0.14798 0.67289 0.14341 0.0
C3438 C 0.14069 0.66758 0.15707 0.0
C3439 C 0.13279 0.64722 0.15985 0.0
C3440 C 0.15603 0.69451 0.14025 0.0
C3441 C 0.14243 0.71188 0.1423 0.0
C3442 C 0.17616 0.69779 0.13393 0.0
C3443 C 0.1917 0.68024 0.13224 0.0
C3444 C 0.19761 0.66773 0.14399 0.0
C3445 C 0.21209 0.6511 0.14232 0.0
C3446 C 0.22087 0.64688 0.12897 0.0
C3447 C 0.21523 0.65932 0.11726 0.0
C3448 C 0.20074 0.67597 0.11886 0.0
C3449 C 0.17794 0.79446 0.12642 0.0
C3450 C 0.18224 0.79584 0.11177 0.0
C3451 C 0.17386 0.77476 0.13273 0.0
C3452 C 0.17388 0.75616 0.12447 0.0
C3453 C 0.17896 0.75748 0.10996 0.0
C3454 C 0.18306 0.77711 0.10366 0.0
C3455 C 0.16773 0.73537 0.13066 0.0
C3456 C 0.1817 0.71816 0.12916 0.0
C3457 C 0.1479 0.73222 0.13744 0.0
C3458 C 0.13204 0.74949 0.13881 0.0
C3459 C 0.12419 0.75992 0.12667 0.0
C3460 C 0.1094 0.77633 0.12806 0.0
C3461 C 0.10219 0.78232 0.14154 0.0
C3462 C 0.1097 0.77185 0.15365 0.0
C3463 C 0.12453 0.75545 0.15231 0.0
H3464 H 0.09073 0.79503 0.1426 0.0
H3465 H 0.23207 0.63399 0.1277 0.0
H3466 H 0.13147 0.40789 0.88989 0.0
H3467 H 0.09544 0.41839 0.88295 0.0
H3468 H 0.07069 0.36073 0.90126 0.0
H3469 H 0.10661 0.35036 0.90854 0.0
H3470 H 0.05927 0.37029 0.87124 0.0
H3471 H 0.06012 0.40157 0.91828 0.0
H3472 H 0.07481 0.42437 0.93719 0.0
H3473 H 0.06885 0.47888 0.91005 0.0
H3474 H 0.0544 0.45633 0.89089 0.0
H3475 H 0.95006 0.3866 0.86258 0.0
H3476 H 0.98521 0.37894 0.87217 0.0
H3477 H 0.00293 0.44465 0.86671 0.0
H3478 H 0.96716 0.45258 0.85786 0.0
H3479 H 0.01889 0.43179 0.89008 0.0
H3480 H 0.01922 0.40327 0.84314 0.0
H3481 H 0.00646 0.38222 0.82274 0.0
H3482 H 0.01286 0.32499 0.84718 0.0
H3483 H 0.0254 0.34574 0.8678 0.0
C3484 C 0.11831 0.39759 0.89259 0.0
C3485 C 0.1218 0.37831 0.89975 0.0
C3486 C 0.09777 0.40362 0.88864 0.0
C3487 C 0.08048 0.39032 0.89161 0.0
C3488 C 0.08388 0.3712 0.89891 0.0
C3489 C 0.10436 0.36534 0.9031 0.0
C3490 C 0.05901 0.39583 0.88642 0.0
C3491 C 0.05025 0.38354 0.87547 0.0
C3492 C 0.04778 0.41365 0.89157 0.0
C3493 C 0.05639 0.42722 0.9031 0.0
C3494 C 0.06213 0.41838 0.91629 0.0
C3495 C 0.07037 0.43127 0.92707 0.0
C3496 C 0.07282 0.45305 0.92481 0.0
C3497 C 0.06697 0.462 0.91178 0.0
C3498 C 0.05874 0.44918 0.90097 0.0
C3499 C 0.96146 0.39941 0.86344 0.0
C3500 C 0.956 0.42014 0.85937 0.0
C3501 C 0.98162 0.395 0.86884 0.0
C3502 C 0.997 0.41109 0.86985 0.0
C3503 C 0.99142 0.43193 0.86599 0.0
C3504 C 0.97102 0.43645 0.8609 0.0
C3505 C 0.01883 0.40608 0.87492 0.0
C3506 C 0.02779 0.41851 0.8858 0.0
C3507 C 0.03052 0.38865 0.86945 0.0
C3508 C 0.02307 0.37609 0.85705 0.0
C3509 C 0.01777 0.38621 0.84419 0.0
C3510 C 0.01059 0.37433 0.83259 0.0
C3511 C 0.0088 0.35229 0.83367 0.0
C3512 C 0.01423 0.34207 0.84636 0.0
C3513 C 0.0214 0.35388 0.858 0.0
H3514 H 0.00324 0.34312 0.82468 0.0
H3515 H 0.0792 0.46301 0.93317 0.0
H3516 H 0.35519 0.21098 0.59549 0.0
H3517 H 0.36481 0.24618 0.60417 0.0
H3518 H 0.31206 0.24456 0.63349 0.0
H3519 H 0.30295 0.20883 0.62522 0.0
H3520 H 0.34729 0.28227 0.60372 0.0
H3521 H 0.32288 0.27319 0.66303 0.0
H3522 H 0.32039 0.24512 0.68127 0.0
H3523 H 0.36775 0.20867 0.6593 0.0
H3524 H 0.37072 0.23663 0.64105 0.0
H3525 H 0.34981 0.38413 0.63362 0.0
H3526 H 0.3384 0.34846 0.62691 0.0
H3527 H 0.38804 0.32162 0.65299 0.0
H3528 H 0.39874 0.35735 0.66033 0.0
H3529 H 0.35552 0.29778 0.65518 0.0
H3530 H 0.39252 0.32746 0.61558 0.0
H3531 H 0.40081 0.35404 0.59714 0.0
H3532 H 0.33856 0.34634 0.57924 0.0
H3533 H 0.3298 0.3199 0.5977 0.0
C3534 C 0.34563 0.21813 0.60378 0.0
C3535 C 0.32837 0.20715 0.60972 0.0
C3536 C 0.35112 0.23829 0.60873 0.0
C3537 C 0.33934 0.248 0.61962 0.0
C3538 C 0.32171 0.23725 0.62531 0.0
C3539 C 0.31642 0.2169 0.62051 0.0
C3540 C 0.34557 0.26936 0.62493 0.0
C3541 C 0.34905 0.28562 0.61498 0.0
C3542 C 0.34838 0.27374 0.6396 0.0
C3543 C 0.34683 0.25691 0.65059 0.0
C3544 C 0.3328 0.25922 0.66212 0.0
C3545 C 0.3313 0.24332 0.67246 0.0
C3546 C 0.34385 0.22509 0.67142 0.0
C3547 C 0.35798 0.22275 0.66006 0.0
C3548 C 0.35955 0.23861 0.64971 0.0
C3549 C 0.35816 0.37059 0.63801 0.0
C3550 C 0.37525 0.37346 0.64741 0.0
C3551 C 0.35171 0.35021 0.6341 0.0
C3552 C 0.36266 0.33229 0.63916 0.0
C3553 C 0.37936 0.33515 0.6489 0.0
C3554 C 0.38551 0.35556 0.65307 0.0
C3555 C 0.3571 0.31067 0.63397 0.0
C3556 C 0.3537 0.2944 0.64393 0.0
C3557 C 0.3552 0.30604 0.61927 0.0
C3558 C 0.36044 0.32185 0.6081 0.0
C3559 C 0.38055 0.33154 0.60777 0.0
C3560 C 0.38534 0.34656 0.5973 0.0
C3561 C 0.3702 0.35191 0.58704 0.0
C3562 C 0.35026 0.3422 0.5872 0.0
C3563 C 0.34538 0.32718 0.59766 0.0
H3564 H 0.37394 0.36355 0.57895 0.0
H3565 H 0.34265 0.2128 0.67942 0.0
H3566 H 0.53178 0.58597 0.33839 0.0
H3567 H 0.49601 0.59386 0.34684 0.0
H3568 H 0.51623 0.58311 0.39013 0.0
H3569 H 0.55202 0.57446 0.38163 0.0
H3570 H 0.47796 0.56692 0.3862 0.0
H3571 H 0.51043 0.63391 0.37657 0.0
H3572 H 0.52993 0.66049 0.36242 0.0
H3573 H 0.48049 0.66002 0.33095 0.0
H3574 H 0.46083 0.6332 0.34482 0.0
H3575 H 0.38531 0.61864 0.41456 0.0
H3576 H 0.42193 0.60856 0.40883 0.0
H3577 H 0.40794 0.61444 0.36405 0.0
H3578 H 0.37155 0.62479 0.3697 0.0
H3579 H 0.4442 0.6342 0.37069 0.0
H3580 H 0.41261 0.5657 0.38042 0.0
H3581 H 0.39345 0.53949 0.39509 0.0
H3582 H 0.44164 0.54383 0.42728 0.0
H3583 H 0.46095 0.57028 0.41288 0.0
C3584 C 0.52859 0.5852 0.3497 0.0
C3585 C 0.54471 0.57977 0.35937 0.0
C3586 C 0.50816 0.58981 0.35454 0.0
C3587 C 0.50353 0.58955 0.36915 0.0
C3588 C 0.51946 0.58353 0.37881 0.0
C3589 C 0.53989 0.57864 0.37395 0.0
C3590 C 0.48212 0.59584 0.37428 0.0
C3591 C 0.4707 0.58178 0.38299 0.0
C3592 C 0.47253 0.61515 0.36999 0.0
C3593 C 0.48424 0.63142 0.36168 0.0
C3594 C 0.50378 0.63937 0.36659 0.0
C3595 C 0.51485 0.65449 0.35862 0.0
C3596 C 0.50647 0.6619 0.34578 0.0
C3597 C 0.48697 0.65425 0.3409 0.0
C3598 C 0.47584 0.63911 0.34881 0.0
C3599 C 0.39005 0.61766 0.4035 0.0
C3600 C 0.37559 0.6225 0.39257 0.0
C3601 C 0.41094 0.61184 0.40024 0.0
C3602 C 0.41763 0.61061 0.386 0.0
C3603 C 0.40313 0.61531 0.37511 0.0
C3604 C 0.38232 0.62116 0.37835 0.0
C3605 C 0.43987 0.60508 0.38233 0.0
C3606 C 0.4515 0.61938 0.37395 0.0
C3607 C 0.44966 0.5861 0.38702 0.0
C3608 C 0.4381 0.57013 0.39564 0.0
C3609 C 0.41903 0.56119 0.39068 0.0
C3610 C 0.40817 0.54626 0.39893 0.0
C3611 C 0.41629 0.54004 0.41213 0.0
C3612 C 0.43535 0.54868 0.41707 0.0
C3613 C 0.44627 0.56363 0.40886 0.0
H3614 H 0.40786 0.52849 0.4185 0.0
H3615 H 0.51507 0.67361 0.33963 0.0
loop_
_geom_bond_atom_site_label_1
_geom_bond_atom_site_label_2
_geom_bond_distance
_geom_bond_site_symmetry_2
_ccdc_geom_bond_type
In0 O1 2.294 . S
In0 O2 2.326 . S
In0 O6 2.266 . S
In0 O7 2.326 . S
In0 O8 2.266 . S
In0 O9 2.326 . S
In0 O11 2.294 . S
In0 O12 2.326 . S
O1 In0 2.294 . S
O1 C10 1.240 . S
O2 In0 2.326 . S
O2 C10 1.252 . S
C3 O6 1.252 . S
C3 O7 1.260 . S
C4 O11 1.240 . S
C4 O12 1.252 . S
C5 O8 1.252 . S
C5 O9 1.260 . S
O6 In0 2.266 . S
O6 C3 1.252 . S
O7 In0 2.326 . S
O7 C3 1.260 . S
O8 In0 2.266 . S
O8 C5 1.252 . S
O9 In0 2.326 . S
O9 C5 1.260 . S
C10 O1 1.240 . S
C10 O2 1.252 . S
O11 In0 2.294 . S
O11 C4 1.240 . S
O12 In0 2.326 . S
O12 C4 1.252 . S
In13 O14 2.294 . S
In13 O15 2.326 . S
In13 O19 2.266 . S
In13 O20 2.326 . S
In13 O21 2.266 . S
In13 O22 2.326 . S
In13 O24 2.294 . S
In13 O25 2.326 . S
O14 In13 2.294 . S
O14 C23 1.240 . S
O15 In13 2.326 . S
O15 C23 1.252 . S
C16 O19 1.252 . S
C16 O20 1.260 . S
C17 O24 1.240 . S
C17 O25 1.252 . S
C18 O21 1.252 . S
C18 O22 1.260 . S
O19 In13 2.266 . S
O19 C16 1.252 . S
O20 In13 2.326 . S
O20 C16 1.260 . S
O21 In13 2.266 . S
O21 C18 1.252 . S
O22 In13 2.326 . S
O22 C18 1.260 . S
C23 O14 1.240 . S
C23 O15 1.252 . S
O24 In13 2.294 . S
O24 C17 1.240 . S
O25 In13 2.326 . S
O25 C17 1.252 . S
In26 O27 2.294 . S
In26 O28 2.326 . S
In26 O32 2.266 . S
In26 O33 2.326 . S
In26 O34 2.266 . S
In26 O35 2.326 . S
In26 O37 2.294 . S
In26 O38 2.326 . S
O27 In26 2.294 . S
O27 C36 1.240 . S
O28 In26 2.326 . S
O28 C36 1.252 . S
C29 O32 1.252 . S
C29 O33 1.260 . S
C30 O37 1.240 . S
C30 O38 1.252 . S
C31 O34 1.252 . S
C31 O35 1.260 . S
O32 In26 2.266 . S
O32 C29 1.252 . S
O33 In26 2.326 . S
O33 C29 1.260 . S
O34 In26 2.266 . S
O34 C31 1.252 . S
O35 In26 2.326 . S
O35 C31 1.260 . S
C36 O27 1.240 . S
C36 O28 1.252 . S
O37 In26 2.294 . S
O37 C30 1.240 . S
O38 In26 2.326 . S
O38 C30 1.252 . S
In39 O40 2.294 . S
In39 O41 2.326 . S
In39 O45 2.266 . S
In39 O46 2.326 . S
In39 O47 2.266 . S
In39 O48 2.326 . S
In39 O50 2.294 . S
In39 O51 2.326 . S
O40 In39 2.294 . S
O40 C49 1.240 . S
O41 In39 2.326 . S
O41 C49 1.252 . S
C42 O45 1.252 . S
C42 O46 1.260 . S
C43 O50 1.240 . S
C43 O51 1.252 . S
C44 O47 1.252 . S
C44 O48 1.260 . S
O45 In39 2.266 . S
O45 C42 1.252 . S
O46 In39 2.326 . S
O46 C42 1.260 . S
O47 In39 2.266 . S
O47 C44 1.252 . S
O48 In39 2.326 . S
O48 C44 1.260 . S
C49 O40 1.240 . S
C49 O41 1.252 . S
O50 In39 2.294 . S
O50 C43 1.240 . S
O51 In39 2.326 . S
O51 C43 1.252 . S
In52 O53 2.294 . S
In52 O54 2.326 . S
In52 O58 2.266 . S
In52 O59 2.326 . S
In52 O60 2.266 . S
In52 O61 2.326 . S
In52 O63 2.294 . S
In52 O64 2.326 . S
O53 In52 2.294 . S
O53 C62 1.240 . S
O54 In52 2.326 . S
O54 C62 1.252 . S
C55 O58 1.252 . S
C55 O59 1.260 . S
C56 O63 1.240 . S
C56 O64 1.252 . S
C57 O60 1.252 . S
C57 O61 1.260 . S
O58 In52 2.266 . S
O58 C55 1.252 . S
O59 In52 2.326 . S
O59 C55 1.260 . S
O60 In52 2.266 . S
O60 C57 1.252 . S
O61 In52 2.326 . S
O61 C57 1.260 . S
C62 O53 1.240 . S
C62 O54 1.252 . S
O63 In52 2.294 . S
O63 C56 1.240 . S
O64 In52 2.326 . S
O64 C56 1.252 . S
In65 O66 2.294 . S
In65 O67 2.326 . S
In65 O71 2.266 . S
In65 O72 2.326 . S
In65 O73 2.266 . S
In65 O74 2.326 . S
In65 O76 2.294 . S
In65 O77 2.326 . S
O66 In65 2.294 . S
O66 C75 1.240 . S
O67 In65 2.326 . S
O67 C75 1.252 . S
C68 O71 1.252 . S
C68 O72 1.260 . S
C69 O76 1.240 . S
C69 O77 1.252 . S
C70 O73 1.252 . S
C70 O74 1.260 . S
O71 In65 2.266 . S
O71 C68 1.252 . S
O72 In65 2.326 . S
O72 C68 1.260 . S
O73 In65 2.266 . S
O73 C70 1.252 . S
O74 In65 2.326 . S
O74 C70 1.260 . S
C75 O66 1.240 . S
C75 O67 1.252 . S
O76 In65 2.294 . S
O76 C69 1.240 . S
O77 In65 2.326 . S
O77 C69 1.252 . S
In78 O79 2.294 . S
In78 O80 2.326 . S
In78 O84 2.266 . S
In78 O85 2.326 . S
In78 O86 2.266 . S
In78 O87 2.326 . S
In78 O89 2.294 . S
In78 O90 2.326 . S
O79 In78 2.294 . S
O79 C88 1.240 . S
O80 In78 2.326 . S
O80 C88 1.252 . S
C81 O84 1.252 . S
C81 O85 1.260 . S
C82 O89 1.240 . S
C82 O90 1.252 . S
C83 O86 1.252 . S
C83 O87 1.260 . S
O84 In78 2.266 . S
O84 C81 1.252 . S
O85 In78 2.326 . S
O85 C81 1.260 . S
O86 In78 2.266 . S
O86 C83 1.252 . S
O87 In78 2.326 . S
O87 C83 1.260 . S
C88 O79 1.240 . S
C88 O80 1.252 . S
O89 In78 2.294 . S
O89 C82 1.240 . S
O90 In78 2.326 . S
O90 C82 1.252 . S
In91 O92 2.294 . S
In91 O93 2.326 . S
In91 O97 2.266 . S
In91 O98 2.326 . S
In91 O99 2.266 . S
In91 O100 2.326 . S
In91 O102 2.294 . S
In91 O103 2.326 . S
O92 In91 2.294 . S
O92 C101 1.240 . S
O93 In91 2.326 . S
O93 C101 1.252 . S
C94 O97 1.252 . S
C94 O98 1.260 . S
C95 O102 1.240 . S
C95 O103 1.252 . S
C96 O99 1.252 . S
C96 O100 1.260 . S
O97 In91 2.266 . S
O97 C94 1.252 . S
O98 In91 2.326 . S
O98 C94 1.260 . S
O99 In91 2.266 . S
O99 C96 1.252 . S
O100 In91 2.326 . S
O100 C96 1.260 . S
C101 O92 1.240 . S
C101 O93 1.252 . S
O102 In91 2.294 . S
O102 C95 1.240 . S
O103 In91 2.326 . S
O103 C95 1.252 . S
In104 O105 2.294 . S
In104 O106 2.326 . S
In104 O110 2.266 . S
In104 O111 2.326 . S
In104 O112 2.266 . S
In104 O113 2.326 . S
In104 O115 2.294 . S
In104 O116 2.326 . S
O105 In104 2.294 . S
O105 C114 1.240 . S
O106 In104 2.326 . S
O106 C114 1.252 . S
C107 O110 1.252 . S
C107 O111 1.260 . S
C108 O115 1.240 . S
C108 O116 1.252 . S
C109 O112 1.252 . S
C109 O113 1.260 . S
O110 In104 2.266 . S
O110 C107 1.252 . S
O111 In104 2.326 . S
O111 C107 1.260 . S
O112 In104 2.266 . S
O112 C109 1.252 . S
O113 In104 2.326 . S
O113 C109 1.260 . S
C114 O105 1.240 . S
C114 O106 1.252 . S
O115 In104 2.294 . S
O115 C108 1.240 . S
O116 In104 2.326 . S
O116 C108 1.252 . S
In117 O118 2.294 . S
In117 O119 2.326 . S
In117 O123 2.266 . S
In117 O124 2.326 . S
In117 O125 2.266 . S
In117 O126 2.326 . S
In117 O128 2.294 . S
In117 O129 2.326 . S
O118 In117 2.294 . S
O118 C127 1.240 . S
O119 In117 2.326 . S
O119 C127 1.252 . S
C120 O123 1.252 . S
C120 O124 1.260 . S
C121 O128 1.240 . S
C121 O129 1.252 . S
C122 O125 1.252 . S
C122 O126 1.260 . S
O123 In117 2.266 . S
O123 C120 1.252 . S
O124 In117 2.326 . S
O124 C120 1.260 . S
O125 In117 2.266 . S
O125 C122 1.252 . S
O126 In117 2.326 . S
O126 C122 1.260 . S
C127 O118 1.240 . S
C127 O119 1.252 . S
O128 In117 2.294 . S
O128 C121 1.240 . S
O129 In117 2.326 . S
O129 C121 1.252 . S
In130 O131 2.294 . S
In130 O132 2.326 . S
In130 O136 2.266 . S
In130 O137 2.326 . S
In130 O138 2.266 . S
In130 O139 2.326 . S
In130 O141 2.294 . S
In130 O142 2.326 . S
O131 In130 2.294 . S
O131 C140 1.240 . S
O132 In130 2.326 . S
O132 C140 1.252 . S
C133 O136 1.252 . S
C133 O137 1.260 . S
C134 O141 1.240 . S
C134 O142 1.252 . S
C135 O138 1.252 . S
C135 O139 1.260 . S
O136 In130 2.266 . S
O136 C133 1.252 . S
O137 In130 2.326 . S
O137 C133 1.260 . S
O138 In130 2.266 . S
O138 C135 1.252 . S
O139 In130 2.326 . S
O139 C135 1.260 . S
C140 O131 1.240 . S
C140 O132 1.252 . S
O141 In130 2.294 . S
O141 C134 1.240 . S
O142 In130 2.326 . S
O142 C134 1.252 . S
In143 O144 2.294 . S
In143 O145 2.326 . S
In143 O149 2.266 . S
In143 O150 2.326 . S
In143 O151 2.266 . S
In143 O152 2.326 . S
In143 O154 2.294 . S
In143 O155 2.326 . S
O144 In143 2.294 . S
O144 C153 1.240 . S
O145 In143 2.326 . S
O145 C153 1.252 . S
C146 O149 1.252 . S
C146 O150 1.260 . S
C147 O154 1.240 . S
C147 O155 1.252 . S
C148 O151 1.252 . S
C148 O152 1.260 . S
O149 In143 2.266 . S
O149 C146 1.252 . S
O150 In143 2.326 . S
O150 C146 1.260 . S
O151 In143 2.266 . S
O151 C148 1.252 . S
O152 In143 2.326 . S
O152 C148 1.260 . S
C153 O144 1.240 . S
C153 O145 1.252 . S
O154 In143 2.294 . S
O154 C147 1.240 . S
O155 In143 2.326 . S
O155 C147 1.252 . S
In156 O157 2.294 . S
In156 O158 2.326 . S
In156 O162 2.266 . S
In156 O163 2.326 . S
In156 O164 2.266 . S
In156 O165 2.326 . S
In156 O167 2.294 . S
In156 O168 2.326 . S
O157 In156 2.294 . S
O157 C166 1.240 . S
O158 In156 2.326 . S
O158 C166 1.252 . S
C159 O162 1.252 . S
C159 O163 1.260 . S
C160 O167 1.240 . S
C160 O168 1.252 . S
C161 O164 1.252 . S
C161 O165 1.260 . S
O162 In156 2.266 . S
O162 C159 1.252 . S
O163 In156 2.326 . S
O163 C159 1.260 . S
O164 In156 2.266 . S
O164 C161 1.252 . S
O165 In156 2.326 . S
O165 C161 1.260 . S
C166 O157 1.240 . S
C166 O158 1.252 . S
O167 In156 2.294 . S
O167 C160 1.240 . S
O168 In156 2.326 . S
O168 C160 1.252 . S
In169 O170 2.294 . S
In169 O171 2.326 . S
In169 O175 2.266 . S
In169 O176 2.326 . S
In169 O177 2.266 . S
In169 O178 2.326 . S
In169 O180 2.294 . S
In169 O181 2.326 . S
O170 In169 2.294 . S
O170 C179 1.240 . S
O171 In169 2.326 . S
O171 C179 1.252 . S
C172 O175 1.252 . S
C172 O176 1.260 . S
C173 O180 1.240 . S
C173 O181 1.252 . S
C174 O177 1.252 . S
C174 O178 1.260 . S
O175 In169 2.266 . S
O175 C172 1.252 . S
O176 In169 2.326 . S
O176 C172 1.260 . S
O177 In169 2.266 . S
O177 C174 1.252 . S
O178 In169 2.326 . S
O178 C174 1.260 . S
C179 O170 1.240 . S
C179 O171 1.252 . S
O180 In169 2.294 . S
O180 C173 1.240 . S
O181 In169 2.326 . S
O181 C173 1.252 . S
In182 O183 2.294 . S
In182 O184 2.326 . S
In182 O188 2.266 . S
In182 O189 2.326 . S
In182 O190 2.266 . S
In182 O191 2.326 . S
In182 O193 2.294 . S
In182 O194 2.326 . S
O183 In182 2.294 . S
O183 C192 1.240 . S
O184 In182 2.326 . S
O184 C192 1.252 . S
C185 O188 1.252 . S
C185 O189 1.260 . S
C186 O193 1.240 . S
C186 O194 1.252 . S
C187 O190 1.252 . S
C187 O191 1.260 . S
O188 In182 2.266 . S
O188 C185 1.252 . S
O189 In182 2.326 . S
O189 C185 1.260 . S
O190 In182 2.266 . S
O190 C187 1.252 . S
O191 In182 2.326 . S
O191 C187 1.260 . S
C192 O183 1.240 . S
C192 O184 1.252 . S
O193 In182 2.294 . S
O193 C186 1.240 . S
O194 In182 2.326 . S
O194 C186 1.252 . S
In195 O196 2.294 . S
In195 O197 2.326 . S
In195 O201 2.266 . S
In195 O202 2.326 . S
In195 O203 2.266 . S
In195 O204 2.326 . S
In195 O206 2.294 . S
In195 O207 2.326 . S
O196 In195 2.294 . S
O196 C205 1.240 . S
O197 In195 2.326 . S
O197 C205 1.252 . S
C198 O201 1.252 . S
C198 O202 1.260 . S
C199 O206 1.240 . S
C199 O207 1.252 . S
C200 O203 1.252 . S
C200 O204 1.260 . S
O201 In195 2.266 . S
O201 C198 1.252 . S
O202 In195 2.326 . S
O202 C198 1.260 . S
O203 In195 2.266 . S
O203 C200 1.252 . S
O204 In195 2.326 . S
O204 C200 1.260 . S
C205 O196 1.240 . S
C205 O197 1.252 . S
O206 In195 2.294 . S
O206 C199 1.240 . S
O207 In195 2.326 . S
O207 C199 1.252 . S
In208 O209 2.294 . S
In208 O210 2.326 . S
In208 O214 2.266 . S
In208 O215 2.326 . S
In208 O216 2.266 . S
In208 O217 2.326 . S
In208 O219 2.294 . S
In208 O220 2.326 . S
O209 In208 2.294 . S
O209 C218 1.240 . S
O210 In208 2.326 . S
O210 C218 1.252 . S
C211 O214 1.252 . S
C211 O215 1.260 . S
C212 O219 1.240 . S
C212 O220 1.252 . S
C213 O216 1.252 . S
C213 O217 1.260 . S
O214 In208 2.266 . S
O214 C211 1.252 . S
O215 In208 2.326 . S
O215 C211 1.260 . S
O216 In208 2.266 . S
O216 C213 1.252 . S
O217 In208 2.326 . S
O217 C213 1.260 . S
C218 O209 1.240 . S
C218 O210 1.252 . S
O219 In208 2.294 . S
O219 C212 1.240 . S
O220 In208 2.326 . S
O220 C212 1.252 . S
In221 O222 2.294 . S
In221 O223 2.326 . S
In221 O227 2.266 . S
In221 O228 2.326 . S
In221 O229 2.266 . S
In221 O230 2.326 . S
In221 O232 2.294 . S
In221 O233 2.326 . S
O222 In221 2.294 . S
O222 C231 1.240 . S
O223 In221 2.326 . S
O223 C231 1.252 . S
C224 O227 1.252 . S
C224 O228 1.260 . S
C225 O232 1.240 . S
C225 O233 1.252 . S
C226 O229 1.252 . S
C226 O230 1.260 . S
O227 In221 2.266 . S
O227 C224 1.252 . S
O228 In221 2.326 . S
O228 C224 1.260 . S
O229 In221 2.266 . S
O229 C226 1.252 . S
O230 In221 2.326 . S
O230 C226 1.260 . S
C231 O222 1.240 . S
C231 O223 1.252 . S
O232 In221 2.294 . S
O232 C225 1.240 . S
O233 In221 2.326 . S
O233 C225 1.252 . S
In234 O235 2.294 . S
In234 O236 2.326 . S
In234 O240 2.266 . S
In234 O241 2.326 . S
In234 O242 2.266 . S
In234 O243 2.326 . S
In234 O245 2.294 . S
In234 O246 2.326 . S
O235 In234 2.294 . S
O235 C244 1.240 . S
O236 In234 2.326 . S
O236 C244 1.252 . S
C237 O240 1.252 . S
C237 O241 1.260 . S
C238 O245 1.240 . S
C238 O246 1.252 . S
C239 O242 1.252 . S
C239 O243 1.260 . S
O240 In234 2.266 . S
O240 C237 1.252 . S
O241 In234 2.326 . S
O241 C237 1.260 . S
O242 In234 2.266 . S
O242 C239 1.252 . S
O243 In234 2.326 . S
O243 C239 1.260 . S
C244 O235 1.240 . S
C244 O236 1.252 . S
O245 In234 2.294 . S
O245 C238 1.240 . S
O246 In234 2.326 . S
O246 C238 1.252 . S
In247 O248 2.294 . S
In247 O249 2.326 . S
In247 O253 2.266 . S
In247 O254 2.326 . S
In247 O255 2.266 . S
In247 O256 2.326 . S
In247 O258 2.294 . S
In247 O259 2.326 . S
O248 In247 2.294 . S
O248 C257 1.240 . S
O249 In247 2.326 . S
O249 C257 1.252 . S
C250 O253 1.252 . S
C250 O254 1.260 . S
C251 O258 1.240 . S
C251 O259 1.252 . S
C252 O255 1.252 . S
C252 O256 1.260 . S
O253 In247 2.266 . S
O253 C250 1.252 . S
O254 In247 2.326 . S
O254 C250 1.260 . S
O255 In247 2.266 . S
O255 C252 1.252 . S
O256 In247 2.326 . S
O256 C252 1.260 . S
C257 O248 1.240 . S
C257 O249 1.252 . S
O258 In247 2.294 . S
O258 C251 1.240 . S
O259 In247 2.326 . S
O259 C251 1.252 . S
In260 O261 2.294 . S
In260 O262 2.326 . S
In260 O266 2.266 . S
In260 O267 2.326 . S
In260 O268 2.266 . S
In260 O269 2.326 . S
In260 O271 2.294 . S
In260 O272 2.326 . S
O261 In260 2.294 . S
O261 C270 1.240 . S
O262 In260 2.326 . S
O262 C270 1.252 . S
C263 O266 1.252 . S
C263 O267 1.260 . S
C264 O271 1.240 . S
C264 O272 1.252 . S
C265 O268 1.252 . S
C265 O269 1.260 . S
O266 In260 2.266 . S
O266 C263 1.252 . S
O267 In260 2.326 . S
O267 C263 1.260 . S
O268 In260 2.266 . S
O268 C265 1.252 . S
O269 In260 2.326 . S
O269 C265 1.260 . S
C270 O261 1.240 . S
C270 O262 1.252 . S
O271 In260 2.294 . S
O271 C264 1.240 . S
O272 In260 2.326 . S
O272 C264 1.252 . S
In273 O274 2.294 . S
In273 O275 2.326 . S
In273 O279 2.266 . S
In273 O280 2.326 . S
In273 O281 2.266 . S
In273 O282 2.326 . S
In273 O284 2.294 . S
In273 O285 2.326 . S
O274 In273 2.294 . S
O274 C283 1.240 . S
O275 In273 2.326 . S
O275 C283 1.252 . S
C276 O279 1.252 . S
C276 O280 1.260 . S
C277 O284 1.240 . S
C277 O285 1.252 . S
C278 O281 1.252 . S
C278 O282 1.260 . S
O279 In273 2.266 . S
O279 C276 1.252 . S
O280 In273 2.326 . S
O280 C276 1.260 . S
O281 In273 2.266 . S
O281 C278 1.252 . S
O282 In273 2.326 . S
O282 C278 1.260 . S
C283 O274 1.240 . S
C283 O275 1.252 . S
O284 In273 2.294 . S
O284 C277 1.240 . S
O285 In273 2.326 . S
O285 C277 1.252 . S
In286 O287 2.294 . S
In286 O288 2.326 . S
In286 O292 2.266 . S
In286 O293 2.326 . S
In286 O294 2.266 . S
In286 O295 2.326 . S
In286 O297 2.294 . S
In286 O298 2.326 . S
O287 In286 2.294 . S
O287 C296 1.240 . S
O288 In286 2.326 . S
O288 C296 1.252 . S
C289 O292 1.252 . S
C289 O293 1.260 . S
C290 O297 1.240 . S
C290 O298 1.252 . S
C291 O294 1.252 . S
C291 O295 1.260 . S
O292 In286 2.266 . S
O292 C289 1.252 . S
O293 In286 2.326 . S
O293 C289 1.260 . S
O294 In286 2.266 . S
O294 C291 1.252 . S
O295 In286 2.326 . S
O295 C291 1.260 . S
C296 O287 1.240 . S
C296 O288 1.252 . S
O297 In286 2.294 . S
O297 C290 1.240 . S
O298 In286 2.326 . S
O298 C290 1.252 . S
In299 O300 2.294 . S
In299 O301 2.326 . S
In299 O305 2.266 . S
In299 O306 2.326 . S
In299 O307 2.266 . S
In299 O308 2.326 . S
In299 O310 2.294 . S
In299 O311 2.326 . S
O300 In299 2.294 . S
O300 C309 1.240 . S
O301 In299 2.326 . S
O301 C309 1.252 . S
C302 O305 1.252 . S
C302 O306 1.260 . S
C303 O310 1.240 . S
C303 O311 1.252 . S
C304 O307 1.252 . S
C304 O308 1.260 . S
O305 In299 2.266 . S
O305 C302 1.252 . S
O306 In299 2.326 . S
O306 C302 1.260 . S
O307 In299 2.266 . S
O307 C304 1.252 . S
O308 In299 2.326 . S
O308 C304 1.260 . S
C309 O300 1.240 . S
C309 O301 1.252 . S
O310 In299 2.294 . S
O310 C303 1.240 . S
O311 In299 2.326 . S
O311 C303 1.252 . S
In312 O313 2.294 . S
In312 O314 2.326 . S
In312 O318 2.266 . S
In312 O319 2.326 . S
In312 O320 2.266 . S
In312 O321 2.326 . S
In312 O323 2.294 . S
In312 O324 2.326 . S
O313 In312 2.294 . S
O313 C322 1.240 . S
O314 In312 2.326 . S
O314 C322 1.252 . S
C315 O318 1.252 . S
C315 O319 1.260 . S
C316 O323 1.240 . S
C316 O324 1.252 . S
C317 O320 1.252 . S
C317 O321 1.260 . S
O318 In312 2.266 . S
O318 C315 1.252 . S
O319 In312 2.326 . S
O319 C315 1.260 . S
O320 In312 2.266 . S
O320 C317 1.252 . S
O321 In312 2.326 . S
O321 C317 1.260 . S
C322 O313 1.240 . S
C322 O314 1.252 . S
O323 In312 2.294 . S
O323 C316 1.240 . S
O324 In312 2.326 . S
O324 C316 1.252 . S
In325 O326 2.294 . S
In325 O327 2.326 . S
In325 O331 2.266 . S
In325 O332 2.326 . S
In325 O333 2.266 . S
In325 O334 2.326 . S
In325 O336 2.294 . S
In325 O337 2.326 . S
O326 In325 2.294 . S
O326 C335 1.240 . S
O327 In325 2.326 . S
O327 C335 1.252 . S
C328 O331 1.252 . S
C328 O332 1.260 . S
C329 O336 1.240 . S
C329 O337 1.252 . S
C330 O333 1.252 . S
C330 O334 1.260 . S
O331 In325 2.266 . S
O331 C328 1.252 . S
O332 In325 2.326 . S
O332 C328 1.260 . S
O333 In325 2.266 . S
O333 C330 1.252 . S
O334 In325 2.326 . S
O334 C330 1.260 . S
C335 O326 1.240 . S
C335 O327 1.252 . S
O336 In325 2.294 . S
O336 C329 1.240 . S
O337 In325 2.326 . S
O337 C329 1.252 . S
In338 O339 2.294 . S
In338 O340 2.326 . S
In338 O344 2.266 . S
In338 O345 2.326 . S
In338 O346 2.266 . S
In338 O347 2.326 . S
In338 O349 2.294 . S
In338 O350 2.326 . S
O339 In338 2.294 . S
O339 C348 1.240 . S
O340 In338 2.326 . S
O340 C348 1.252 . S
C341 O344 1.252 . S
C341 O345 1.260 . S
C342 O349 1.240 . S
C342 O350 1.252 . S
C343 O346 1.252 . S
C343 O347 1.260 . S
O344 In338 2.266 . S
O344 C341 1.252 . S
O345 In338 2.326 . S
O345 C341 1.260 . S
O346 In338 2.266 . S
O346 C343 1.252 . S
O347 In338 2.326 . S
O347 C343 1.260 . S
C348 O339 1.240 . S
C348 O340 1.252 . S
O349 In338 2.294 . S
O349 C342 1.240 . S
O350 In338 2.326 . S
O350 C342 1.252 . S
In351 O352 2.294 . S
In351 O353 2.326 . S
In351 O357 2.266 . S
In351 O358 2.326 . S
In351 O359 2.266 . S
In351 O360 2.326 . S
In351 O362 2.294 . S
In351 O363 2.326 . S
O352 In351 2.294 . S
O352 C361 1.240 . S
O353 In351 2.326 . S
O353 C361 1.252 . S
C354 O357 1.252 . S
C354 O358 1.260 . S
C355 O362 1.240 . S
C355 O363 1.252 . S
C356 O359 1.252 . S
C356 O360 1.260 . S
O357 In351 2.266 . S
O357 C354 1.252 . S
O358 In351 2.326 . S
O358 C354 1.260 . S
O359 In351 2.266 . S
O359 C356 1.252 . S
O360 In351 2.326 . S
O360 C356 1.260 . S
C361 O352 1.240 . S
C361 O353 1.252 . S
O362 In351 2.294 . S
O362 C355 1.240 . S
O363 In351 2.326 . S
O363 C355 1.252 . S
In364 O365 2.294 . S
In364 O366 2.326 . S
In364 O370 2.266 . S
In364 O371 2.326 . S
In364 O372 2.266 . S
In364 O373 2.326 . S
In364 O375 2.294 . S
In364 O376 2.326 . S
O365 In364 2.294 . S
O365 C374 1.240 . S
O366 In364 2.326 . S
O366 C374 1.252 . S
C367 O370 1.252 . S
C367 O371 1.260 . S
C368 O375 1.240 . S
C368 O376 1.252 . S
C369 O372 1.252 . S
C369 O373 1.260 . S
O370 In364 2.266 . S
O370 C367 1.252 . S
O371 In364 2.326 . S
O371 C367 1.260 . S
O372 In364 2.266 . S
O372 C369 1.252 . S
O373 In364 2.326 . S
O373 C369 1.260 . S
C374 O365 1.240 . S
C374 O366 1.252 . S
O375 In364 2.294 . S
O375 C368 1.240 . S
O376 In364 2.326 . S
O376 C368 1.252 . S
In377 O378 2.294 . S
In377 O379 2.326 . S
In377 O383 2.266 . S
In377 O384 2.326 . S
In377 O385 2.266 . S
In377 O386 2.326 . S
In377 O388 2.294 . S
In377 O389 2.326 . S
O378 In377 2.294 . S
O378 C387 1.240 . S
O379 In377 2.326 . S
O379 C387 1.252 . S
C380 O383 1.252 . S
C380 O384 1.260 . S
C381 O388 1.240 . S
C381 O389 1.252 . S
C382 O385 1.252 . S
C382 O386 1.260 . S
O383 In377 2.266 . S
O383 C380 1.252 . S
O384 In377 2.326 . S
O384 C380 1.260 . S
O385 In377 2.266 . S
O385 C382 1.252 . S
O386 In377 2.326 . S
O386 C382 1.260 . S
C387 O378 1.240 . S
C387 O379 1.252 . S
O388 In377 2.294 . S
O388 C381 1.240 . S
O389 In377 2.326 . S
O389 C381 1.252 . S
In390 O391 2.294 . S
In390 O392 2.326 . S
In390 O396 2.266 . S
In390 O397 2.326 . S
In390 O398 2.266 . S
In390 O399 2.326 . S
In390 O401 2.294 . S
In390 O402 2.326 . S
O391 In390 2.294 . S
O391 C400 1.240 . S
O392 In390 2.326 . S
O392 C400 1.252 . S
C393 O396 1.252 . S
C393 O397 1.260 . S
C394 O401 1.240 . S
C394 O402 1.252 . S
C395 O398 1.252 . S
C395 O399 1.260 . S
O396 In390 2.266 . S
O396 C393 1.252 . S
O397 In390 2.326 . S
O397 C393 1.260 . S
O398 In390 2.266 . S
O398 C395 1.252 . S
O399 In390 2.326 . S
O399 C395 1.260 . S
C400 O391 1.240 . S
C400 O392 1.252 . S
O401 In390 2.294 . S
O401 C394 1.240 . S
O402 In390 2.326 . S
O402 C394 1.252 . S
In403 O404 2.294 . S
In403 O405 2.326 . S
In403 O409 2.266 . S
In403 O410 2.326 . S
In403 O411 2.266 . S
In403 O412 2.326 . S
In403 O414 2.294 . S
In403 O415 2.326 . S
O404 In403 2.294 . S
O404 C413 1.240 . S
O405 In403 2.326 . S
O405 C413 1.252 . S
C406 O409 1.252 . S
C406 O410 1.260 . S
C407 O414 1.240 . S
C407 O415 1.252 . S
C408 O411 1.252 . S
C408 O412 1.260 . S
O409 In403 2.266 . S
O409 C406 1.252 . S
O410 In403 2.326 . S
O410 C406 1.260 . S
O411 In403 2.266 . S
O411 C408 1.252 . S
O412 In403 2.326 . S
O412 C408 1.260 . S
C413 O404 1.240 . S
C413 O405 1.252 . S
O414 In403 2.294 . S
O414 C407 1.240 . S
O415 In403 2.326 . S
O415 C407 1.252 . S
H416 C434 0.951 . S
H417 C436 0.951 . S
H418 C438 0.950 1_545 S
H419 C439 0.950 . S
H420 C441 0.950 . S
H421 C444 0.950 . S
H422 C445 0.950 . S
H423 C447 0.950 . S
H424 C448 0.950 . S
H425 C449 0.951 . S
H426 C451 0.951 . S
H427 C453 0.950 1_565 S
H428 C454 0.950 . S
H429 C456 0.950 . S
H430 C459 0.950 . S
H431 C460 0.950 . S
H432 C462 0.950 . S
H433 C463 0.950 . S
C434 H416 0.951 . S
C434 C435 1.366 . S
C434 C436 1.388 . S
C435 C434 1.366 . S
C435 C439 1.385 . S
C436 H417 0.951 . S
C436 C434 1.388 . S
C436 C437 1.366 . S
C437 C436 1.366 . S
C437 C438 1.414 . S
C437 C440 1.499 . S
C438 H418 0.950 1_565 S
C438 C437 1.414 . S
C438 C439 1.374 . S
C439 H419 0.950 . S
C439 C435 1.385 . S
C439 C438 1.374 . S
C440 C437 1.499 . S
C440 C441 1.373 1_565 S
C440 C442 1.389 . S
C441 H420 0.950 . S
C441 C440 1.373 1_545 S
C441 C457 1.377 . S
C442 C440 1.389 . S
C442 C443 1.524 . S
C442 C456 1.377 . S
C443 C442 1.524 . S
C443 C444 1.397 . S
C443 C448 1.363 . S
C444 H421 0.950 . S
C444 C443 1.397 . S
C444 C445 1.334 . S
C445 H422 0.950 . S
C445 C444 1.334 . S
C445 C446 1.287 . S
C446 C445 1.287 . S
C446 C447 1.524 . S
C446 H465 0.913 . S
C447 H423 0.950 . S
C447 C446 1.524 . S
C447 C448 1.415 . S
C448 H424 0.950 . S
C448 C443 1.363 . S
C448 C447 1.415 . S
C449 H425 0.951 . S
C449 C450 1.366 . S
C449 C451 1.388 . S
C450 C449 1.366 . S
C450 C454 1.385 . S
C451 H426 0.951 . S
C451 C449 1.388 . S
C451 C452 1.366 . S
C452 C451 1.366 . S
C452 C453 1.414 . S
C452 C455 1.499 . S
C453 H427 0.950 1_545 S
C453 C452 1.414 . S
C453 C454 1.374 . S
C454 H428 0.950 . S
C454 C450 1.385 . S
C454 C453 1.374 . S
C455 C452 1.499 . S
C455 C456 1.373 1_545 S
C455 C457 1.389 . S
C456 H429 0.950 . S
C456 C442 1.377 . S
C456 C455 1.373 1_565 S
C457 C441 1.377 . S
C457 C455 1.389 . S
C457 C458 1.524 . S
C458 C457 1.524 . S
C458 C459 1.397 . S
C458 C463 1.363 . S
C459 H430 0.950 . S
C459 C458 1.397 . S
C459 C460 1.334 . S
C460 H431 0.950 . S
C460 C459 1.334 . S
C460 C461 1.287 . S
C461 C460 1.287 . S
C461 C462 1.524 . S
C461 H464 0.999 . S
C462 H432 0.950 . S
C462 C461 1.524 . S
C462 C463 1.415 . S
C463 H433 0.950 . S
C463 C458 1.363 . S
C463 C462 1.415 . S
H464 C461 0.999 . S
H465 C446 0.913 . S
H466 C484 0.951 . S
H467 C486 0.951 . S
H468 C488 0.950 . S
H469 C489 0.950 . S
H470 C491 0.950 . S
H471 C494 0.950 . S
H472 C495 0.950 . S
H473 C497 0.950 . S
H474 C498 0.950 . S
H475 C499 0.951 . S
H476 C501 0.951 . S
H477 C503 0.950 . S
H478 C504 0.950 . S
H479 C506 0.950 . S
H480 C509 0.950 . S
H481 C510 0.950 . S
H482 C512 0.950 . S
H483 C513 0.950 . S
C484 H466 0.951 . S
C484 C485 1.366 . S
C484 C486 1.388 . S
C485 C484 1.366 . S
C485 C489 1.385 . S
C486 H467 0.951 . S
C486 C484 1.388 . S
C486 C487 1.366 . S
C487 C486 1.366 . S
C487 C488 1.414 . S
C487 C490 1.499 . S
C488 H468 0.950 . S
C488 C487 1.414 . S
C488 C489 1.374 . S
C489 H469 0.950 . S
C489 C485 1.385 . S
C489 C488 1.374 . S
C490 C487 1.499 . S
C490 C491 1.373 . S
C490 C492 1.389 . S
C491 H470 0.950 . S
C491 C490 1.373 . S
C491 C507 1.377 . S
C492 C490 1.389 . S
C492 C493 1.524 . S
C492 C506 1.377 . S
C493 C492 1.524 . S
C493 C494 1.397 . S
C493 C498 1.363 . S
C494 H471 0.950 . S
C494 C493 1.397 . S
C494 C495 1.334 . S
C495 H472 0.950 . S
C495 C494 1.334 . S
C495 C496 1.287 . S
C496 C495 1.287 . S
C496 C497 1.524 . S
C496 H515 0.913 . S
C497 H473 0.950 . S
C497 C496 1.524 . S
C497 C498 1.415 . S
C498 H474 0.950 . S
C498 C493 1.363 . S
C498 C497 1.415 . S
C499 H475 0.951 . S
C499 C500 1.366 . S
C499 C501 1.388 . S
C500 C499 1.366 . S
C500 C504 1.385 . S
C501 H476 0.951 . S
C501 C499 1.388 . S
C501 C502 1.366 . S
C502 C501 1.366 . S
C502 C503 1.414 . S
C502 C505 1.499 . S
C503 H477 0.950 . S
C503 C502 1.414 . S
C503 C504 1.374 . S
C504 H478 0.950 . S
C504 C500 1.385 . S
C504 C503 1.374 . S
C505 C502 1.499 . S
C505 C506 1.373 . S
C505 C507 1.389 . S
C506 H479 0.950 . S
C506 C492 1.377 . S
C506 C505 1.373 . S
C507 C491 1.377 . S
C507 C505 1.389 . S
C507 C508 1.524 . S
C508 C507 1.524 . S
C508 C509 1.397 . S
C508 C513 1.363 . S
C509 H480 0.950 . S
C509 C508 1.397 . S
C509 C510 1.334 . S
C510 H481 0.950 . S
C510 C509 1.334 . S
C510 C511 1.287 . S
C511 C510 1.287 . S
C511 C512 1.524 . S
C511 H514 0.999 . S
C512 H482 0.950 . S
C512 C511 1.524 . S
C512 C513 1.415 . S
C513 H483 0.950 . S
C513 C508 1.363 . S
C513 C512 1.415 . S
H514 C511 0.999 . S
H515 C496 0.913 . S
H516 C534 0.951 . S
H517 C536 0.951 . S
H518 C538 0.950 . S
H519 C539 0.950 . S
H520 C541 0.950 . S
H521 C544 0.950 . S
H522 C545 0.950 . S
H523 C547 0.950 . S
H524 C548 0.950 1_565 S
H525 C549 0.951 . S
H526 C551 0.951 . S
H527 C553 0.950 . S
H528 C554 0.950 . S
H529 C556 0.950 . S
H530 C559 0.950 . S
H531 C560 0.950 . S
H532 C562 0.950 . S
H533 C563 0.950 1_545 S
C534 H516 0.951 . S
C534 C535 1.366 . S
C534 C536 1.388 . S
C535 C534 1.366 . S
C535 C539 1.385 . S
C536 H517 0.951 . S
C536 C534 1.388 . S
C536 C537 1.366 . S
C537 C536 1.366 . S
C537 C538 1.414 . S
C537 C540 1.499 . S
C538 H518 0.950 . S
C538 C537 1.414 . S
C538 C539 1.374 . S
C539 H519 0.950 . S
C539 C535 1.385 . S
C539 C538 1.374 . S
C540 C537 1.499 . S
C540 C541 1.373 . S
C540 C542 1.389 . S
C541 H520 0.950 . S
C541 C540 1.373 . S
C541 C557 1.377 1_545 S
C542 C540 1.389 . S
C542 C543 1.524 . S
C542 C556 1.377 1_545 S
C543 C542 1.524 . S
C543 C544 1.397 . S
C543 C548 1.363 . S
C544 H521 0.950 . S
C544 C543 1.397 . S
C544 C545 1.334 . S
C545 H522 0.950 . S
C545 C544 1.334 . S
C545 C546 1.287 . S
C546 C545 1.287 . S
C546 C547 1.524 . S
C546 H565 0.913 . S
C547 H523 0.950 . S
C547 C546 1.524 . S
C547 C548 1.415 . S
C548 H524 0.950 1_545 S
C548 C543 1.363 . S
C548 C547 1.415 . S
C549 H525 0.951 . S
C549 C550 1.366 . S
C549 C551 1.388 . S
C550 C549 1.366 . S
C550 C554 1.385 . S
C551 H526 0.951 . S
C551 C549 1.388 . S
C551 C552 1.366 . S
C552 C551 1.366 . S
C552 C553 1.414 . S
C552 C555 1.499 . S
C553 H527 0.950 . S
C553 C552 1.414 . S
C553 C554 1.374 . S
C554 H528 0.950 . S
C554 C550 1.385 . S
C554 C553 1.374 . S
C555 C552 1.499 . S
C555 C556 1.373 . S
C555 C557 1.389 . S
C556 H529 0.950 . S
C556 C542 1.377 1_565 S
C556 C555 1.373 . S
C557 C541 1.377 1_565 S
C557 C555 1.389 . S
C557 C558 1.524 . S
C558 C557 1.524 . S
C558 C559 1.397 . S
C558 C563 1.363 . S
C559 H530 0.950 . S
C559 C558 1.397 . S
C559 C560 1.334 . S
C560 H531 0.950 . S
C560 C559 1.334 . S
C560 C561 1.287 . S
C561 C560 1.287 . S
C561 C562 1.524 . S
C561 H564 0.999 . S
C562 H532 0.950 . S
C562 C561 1.524 . S
C562 C563 1.415 . S
C563 H533 0.950 1_565 S
C563 C558 1.363 . S
C563 C562 1.415 . S
H564 C561 0.999 . S
H565 C546 0.913 . S
H566 C584 0.951 . S
H567 C586 0.951 . S
H568 C588 0.950 . S
H569 C589 0.950 . S
H570 C591 0.950 . S
H571 C594 0.950 . S
H572 C595 0.950 . S
H573 C597 0.950 . S
H574 C598 0.950 . S
H575 C599 0.951 . S
H576 C601 0.951 . S
H577 C603 0.950 . S
H578 C604 0.950 . S
H579 C606 0.950 . S
H580 C609 0.950 . S
H581 C610 0.950 . S
H582 C612 0.950 . S
H583 C613 0.950 . S
C584 H566 0.951 . S
C584 C585 1.366 . S
C584 C586 1.388 . S
C585 C584 1.366 . S
C585 C589 1.385 . S
C586 H567 0.951 . S
C586 C584 1.388 . S
C586 C587 1.366 . S
C587 C586 1.366 . S
C587 C588 1.414 . S
C587 C590 1.499 . S
C588 H568 0.950 . S
C588 C587 1.414 . S
C588 C589 1.374 . S
C589 H569 0.950 . S
C589 C585 1.385 . S
C589 C588 1.374 . S
C590 C587 1.499 . S
C590 C591 1.373 . S
C590 C592 1.389 . S
C591 H570 0.950 . S
C591 C590 1.373 . S
C591 C607 1.377 1_556 S
C592 C590 1.389 . S
C592 C593 1.524 . S
C592 C606 1.377 1_556 S
C593 C592 1.524 . S
C593 C594 1.397 . S
C593 C598 1.363 1_556 S
C594 H571 0.950 . S
C594 C593 1.397 . S
C594 C595 1.334 . S
C595 H572 0.950 . S
C595 C594 1.334 . S
C595 C596 1.287 . S
C596 C595 1.287 . S
C596 C597 1.524 1_556 S
C596 H615 0.913 . S
C597 H573 0.950 . S
C597 C596 1.524 1_554 S
C597 C598 1.415 . S
C598 H574 0.950 . S
C598 C593 1.363 1_554 S
C598 C597 1.415 . S
C599 H575 0.951 . S
C599 C600 1.366 . S
C599 C601 1.388 . S
C600 C599 1.366 . S
C600 C604 1.385 . S
C601 H576 0.951 . S
C601 C599 1.388 . S
C601 C602 1.366 . S
C602 C601 1.366 . S
C602 C603 1.414 . S
C602 C605 1.499 . S
C603 H577 0.950 . S
C603 C602 1.414 . S
C603 C604 1.374 . S
C604 H578 0.950 . S
C604 C600 1.385 . S
C604 C603 1.374 . S
C605 C602 1.499 . S
C605 C606 1.373 . S
C605 C607 1.389 . S
C606 H579 0.950 . S
C606 C592 1.377 1_554 S
C606 C605 1.373 . S
C607 C591 1.377 1_554 S
C607 C605 1.389 . S
C607 C608 1.524 . S
C608 C607 1.524 . S
C608 C609 1.397 . S
C608 C613 1.363 1_554 S
C609 H580 0.950 . S
C609 C608 1.397 . S
C609 C610 1.334 . S
C610 H581 0.950 . S
C610 C609 1.334 . S
C610 C611 1.287 . S
C611 C610 1.287 . S
C611 C612 1.524 1_554 S
C611 H614 0.999 . S
C612 H582 0.950 . S
C612 C611 1.524 1_556 S
C612 C613 1.415 . S
C613 H583 0.950 . S
C613 C608 1.363 1_556 S
C613 C612 1.415 . S
H614 C611 0.999 . S
H615 C596 0.913 . S
H616 C634 0.951 . S
H617 C636 0.951 . S
H618 C638 0.950 . S
H619 C639 0.950 . S
H620 C641 0.950 . S
H621 C644 0.950 . S
H622 C645 0.950 . S
H623 C647 0.950 . S
H624 C648 0.950 . S
H625 C649 0.951 . S
H626 C651 0.951 . S
H627 C653 0.950 . S
H628 C654 0.950 . S
H629 C656 0.950 . S
H630 C659 0.950 . S
H631 C660 0.950 . S
H632 C662 0.950 . S
H633 C663 0.950 . S
C634 H616 0.951 . S
C634 C635 1.366 . S
C634 C636 1.388 . S
C635 C634 1.366 . S
C635 C639 1.385 . S
C636 H617 0.951 . S
C636 C634 1.388 . S
C636 C637 1.366 . S
C637 C636 1.366 . S
C637 C638 1.414 . S
C637 C640 1.499 . S
C638 H618 0.950 . S
C638 C637 1.414 . S
C638 C639 1.374 . S
C639 H619 0.950 . S
C639 C635 1.385 . S
C639 C638 1.374 . S
C640 C637 1.499 . S
C640 C641 1.373 . S
C640 C642 1.389 1_565 S
C641 H620 0.950 . S
C641 C640 1.373 . S
C641 C657 1.377 . S
C642 C640 1.389 1_545 S
C642 C643 1.524 . S
C642 C656 1.377 . S
C643 C642 1.524 . S
C643 C644 1.397 . S
C643 C648 1.363 . S
C644 H621 0.950 . S
C644 C643 1.397 . S
C644 C645 1.334 . S
C645 H622 0.950 . S
C645 C644 1.334 . S
C645 C646 1.287 . S
C646 C645 1.287 . S
C646 C647 1.524 . S
C646 H665 0.913 . S
C647 H623 0.950 . S
C647 C646 1.524 . S
C647 C648 1.415 . S
C648 H624 0.950 . S
C648 C643 1.363 . S
C648 C647 1.415 . S
C649 H625 0.951 . S
C649 C650 1.366 . S
C649 C651 1.388 . S
C650 C649 1.366 . S
C650 C654 1.385 . S
C651 H626 0.951 . S
C651 C649 1.388 . S
C651 C652 1.366 . S
C652 C651 1.366 . S
C652 C653 1.414 . S
C652 C655 1.499 . S
C653 H627 0.950 . S
C653 C652 1.414 . S
C653 C654 1.374 . S
C654 H628 0.950 . S
C654 C650 1.385 . S
C654 C653 1.374 . S
C655 C652 1.499 . S
C655 C656 1.373 . S
C655 C657 1.389 1_545 S
C656 H629 0.950 . S
C656 C642 1.377 . S
C656 C655 1.373 . S
C657 C641 1.377 . S
C657 C655 1.389 1_565 S
C657 C658 1.524 . S
C658 C657 1.524 . S
C658 C659 1.397 . S
C658 C663 1.363 . S
C659 H630 0.950 . S
C659 C658 1.397 . S
C659 C660 1.334 . S
C660 H631 0.950 . S
C660 C659 1.334 . S
C660 C661 1.287 . S
C661 C660 1.287 . S
C661 C662 1.524 . S
C661 H664 0.999 . S
C662 H632 0.950 . S
C662 C661 1.524 . S
C662 C663 1.415 . S
C663 H633 0.950 . S
C663 C658 1.363 . S
C663 C662 1.415 . S
H664 C661 0.999 . S
H665 C646 0.913 . S
H666 C684 0.951 . S
H667 C686 0.951 . S
H668 C688 0.950 . S
H669 C689 0.950 . S
H670 C691 0.950 . S
H671 C694 0.950 . S
H672 C695 0.950 . S
H673 C697 0.950 . S
H674 C698 0.950 . S
H675 C699 0.951 . S
H676 C701 0.951 . S
H677 C703 0.950 . S
H678 C704 0.950 . S
H679 C706 0.950 . S
H680 C709 0.950 . S
H681 C710 0.950 . S
H682 C712 0.950 . S
H683 C713 0.950 . S
C684 H666 0.951 . S
C684 C685 1.366 . S
C684 C686 1.388 . S
C685 C684 1.366 . S
C685 C689 1.385 . S
C686 H667 0.951 . S
C686 C684 1.388 . S
C686 C687 1.366 . S
C687 C686 1.366 . S
C687 C688 1.414 . S
C687 C690 1.499 . S
C688 H668 0.950 . S
C688 C687 1.414 . S
C688 C689 1.374 . S
C689 H669 0.950 . S
C689 C685 1.385 . S
C689 C688 1.374 . S
C690 C687 1.499 . S
C690 C691 1.373 . S
C690 C692 1.389 . S
C691 H670 0.950 . S
C691 C690 1.373 . S
C691 C707 1.377 . S
C692 C690 1.389 . S
C692 C693 1.524 . S
C692 C706 1.377 . S
C693 C692 1.524 . S
C693 C694 1.397 . S
C693 C698 1.363 . S
C694 H671 0.950 . S
C694 C693 1.397 . S
C694 C695 1.334 . S
C695 H672 0.950 . S
C695 C694 1.334 . S
C695 C696 1.287 . S
C696 C695 1.287 . S
C696 C697 1.524 . S
C696 H715 0.913 . S
C697 H673 0.950 . S
C697 C696 1.524 . S
C697 C698 1.415 . S
C698 H674 0.950 . S
C698 C693 1.363 . S
C698 C697 1.415 . S
C699 H675 0.951 . S
C699 C700 1.366 . S
C699 C701 1.388 . S
C700 C699 1.366 . S
C700 C704 1.385 . S
C701 H676 0.951 . S
C701 C699 1.388 . S
C701 C702 1.366 . S
C702 C701 1.366 . S
C702 C703 1.414 . S
C702 C705 1.499 . S
C703 H677 0.950 . S
C703 C702 1.414 . S
C703 C704 1.374 . S
C704 H678 0.950 . S
C704 C700 1.385 . S
C704 C703 1.374 . S
C705 C702 1.499 . S
C705 C706 1.373 . S
C705 C707 1.389 . S
C706 H679 0.950 . S
C706 C692 1.377 . S
C706 C705 1.373 . S
C707 C691 1.377 . S
C707 C705 1.389 . S
C707 C708 1.524 . S
C708 C707 1.524 . S
C708 C709 1.397 . S
C708 C713 1.363 . S
C709 H680 0.950 . S
C709 C708 1.397 . S
C709 C710 1.334 . S
C710 H681 0.950 . S
C710 C709 1.334 . S
C710 C711 1.287 . S
C711 C710 1.287 . S
C711 C712 1.524 . S
C711 H714 0.999 . S
C712 H682 0.950 . S
C712 C711 1.524 . S
C712 C713 1.415 . S
C713 H683 0.950 . S
C713 C708 1.363 . S
C713 C712 1.415 . S
H714 C711 0.999 . S
H715 C696 0.913 . S
H716 C734 0.951 . S
H717 C736 0.951 1_565 S
H718 C738 0.950 . S
H719 C739 0.950 . S
H720 C741 0.950 . S
H721 C744 0.950 1_545 S
H722 C745 0.950 . S
H723 C747 0.950 . S
H724 C748 0.950 . S
H725 C749 0.951 . S
H726 C751 0.951 1_545 S
H727 C753 0.950 . S
H728 C754 0.950 . S
H729 C756 0.950 . S
H730 C759 0.950 1_565 S
H731 C760 0.950 . S
H732 C762 0.950 . S
H733 C763 0.950 . S
C734 H716 0.951 . S
C734 C735 1.366 . S
C734 C736 1.388 . S
C735 C734 1.366 . S
C735 C739 1.385 . S
C736 H717 0.951 1_545 S
C736 C734 1.388 . S
C736 C737 1.366 . S
C737 C736 1.366 . S
C737 C738 1.414 . S
C737 C740 1.499 . S
C738 H718 0.950 . S
C738 C737 1.414 . S
C738 C739 1.374 . S
C739 H719 0.950 . S
C739 C735 1.385 . S
C739 C738 1.374 . S
C740 C737 1.499 . S
C740 C741 1.373 . S
C740 C742 1.389 1_545 S
C741 H720 0.950 . S
C741 C740 1.373 . S
C741 C757 1.377 . S
C742 C740 1.389 1_565 S
C742 C743 1.524 . S
C742 C756 1.377 . S
C743 C742 1.524 . S
C743 C744 1.397 . S
C743 C748 1.363 . S
C744 H721 0.950 1_565 S
C744 C743 1.397 . S
C744 C745 1.334 . S
C745 H722 0.950 . S
C745 C744 1.334 . S
C745 C746 1.287 . S
C746 C745 1.287 . S
C746 C747 1.524 . S
C746 H765 0.913 . S
C747 H723 0.950 . S
C747 C746 1.524 . S
C747 C748 1.415 . S
C748 H724 0.950 . S
C748 C743 1.363 . S
C748 C747 1.415 . S
C749 H725 0.951 . S
C749 C750 1.366 . S
C749 C751 1.388 . S
C750 C749 1.366 . S
C750 C754 1.385 . S
C751 H726 0.951 1_565 S
C751 C749 1.388 . S
C751 C752 1.366 . S
C752 C751 1.366 . S
C752 C753 1.414 . S
C752 C755 1.499 . S
C753 H727 0.950 . S
C753 C752 1.414 . S
C753 C754 1.374 . S
C754 H728 0.950 . S
C754 C750 1.385 . S
C754 C753 1.374 . S
C755 C752 1.499 . S
C755 C756 1.373 . S
C755 C757 1.389 1_565 S
C756 H729 0.950 . S
C756 C742 1.377 . S
C756 C755 1.373 . S
C757 C741 1.377 . S
C757 C755 1.389 1_545 S
C757 C758 1.524 . S
C758 C757 1.524 . S
C758 C759 1.397 . S
C758 C763 1.363 . S
C759 H730 0.950 1_545 S
C759 C758 1.397 . S
C759 C760 1.334 . S
C760 H731 0.950 . S
C760 C759 1.334 . S
C760 C761 1.287 . S
C761 C760 1.287 . S
C761 C762 1.524 . S
C761 H764 0.999 . S
C762 H732 0.950 . S
C762 C761 1.524 . S
C762 C763 1.415 . S
C763 H733 0.950 . S
C763 C758 1.363 . S
C763 C762 1.415 . S
H764 C761 0.999 . S
H765 C746 0.913 . S
H766 C784 0.951 . S
H767 C786 0.951 . S
H768 C788 0.950 . S
H769 C789 0.950 . S
H770 C791 0.950 . S
H771 C794 0.950 . S
H772 C795 0.950 . S
H773 C797 0.950 . S
H774 C798 0.950 . S
H775 C799 0.951 . S
H776 C801 0.951 . S
H777 C803 0.950 . S
H778 C804 0.950 . S
H779 C806 0.950 . S
H780 C809 0.950 . S
H781 C810 0.950 . S
H782 C812 0.950 . S
H783 C813 0.950 . S
C784 H766 0.951 . S
C784 C785 1.366 . S
C784 C786 1.388 . S
C785 C784 1.366 . S
C785 C789 1.385 . S
C786 H767 0.951 . S
C786 C784 1.388 . S
C786 C787 1.366 . S
C787 C786 1.366 . S
C787 C788 1.414 . S
C787 C790 1.499 . S
C788 H768 0.950 . S
C788 C787 1.414 . S
C788 C789 1.374 . S
C789 H769 0.950 . S
C789 C785 1.385 . S
C789 C788 1.374 . S
C790 C787 1.499 . S
C790 C791 1.373 . S
C790 C792 1.389 . S
C791 H770 0.950 . S
C791 C790 1.373 . S
C791 C807 1.377 1_556 S
C792 C790 1.389 . S
C792 C793 1.524 . S
C792 C806 1.377 1_556 S
C793 C792 1.524 . S
C793 C794 1.397 . S
C793 C798 1.363 . S
C794 H771 0.950 . S
C794 C793 1.397 . S
C794 C795 1.334 . S
C795 H772 0.950 . S
C795 C794 1.334 . S
C795 C796 1.287 . S
C796 C795 1.287 . S
C796 C797 1.524 . S
C796 H815 0.913 . S
C797 H773 0.950 . S
C797 C796 1.524 . S
C797 C798 1.415 . S
C798 H774 0.950 . S
C798 C793 1.363 . S
C798 C797 1.415 . S
C799 H775 0.951 . S
C799 C800 1.366 . S
C799 C801 1.388 . S
C800 C799 1.366 . S
C800 C804 1.385 . S
C801 H776 0.951 . S
C801 C799 1.388 . S
C801 C802 1.366 . S
C802 C801 1.366 . S
C802 C803 1.414 . S
C802 C805 1.499 . S
C803 H777 0.950 . S
C803 C802 1.414 . S
C803 C804 1.374 . S
C804 H778 0.950 . S
C804 C800 1.385 . S
C804 C803 1.374 . S
C805 C802 1.499 . S
C805 C806 1.373 . S
C805 C807 1.389 . S
C806 H779 0.950 . S
C806 C792 1.377 1_554 S
C806 C805 1.373 . S
C807 C791 1.377 1_554 S
C807 C805 1.389 . S
C807 C808 1.524 . S
C808 C807 1.524 . S
C808 C809 1.397 . S
C808 C813 1.363 . S
C809 H780 0.950 . S
C809 C808 1.397 . S
C809 C810 1.334 . S
C810 H781 0.950 . S
C810 C809 1.334 . S
C810 C811 1.287 . S
C811 C810 1.287 . S
C811 C812 1.524 . S
C811 H814 0.999 . S
C812 H782 0.950 . S
C812 C811 1.524 . S
C812 C813 1.415 . S
C813 H783 0.950 . S
C813 C808 1.363 . S
C813 C812 1.415 . S
H814 C811 0.999 . S
H815 C796 0.913 . S
H816 C834 0.951 . S
H817 C836 0.951 . S
H818 C838 0.950 . S
H819 C839 0.950 . S
H820 C841 0.950 . S
H821 C844 0.950 . S
H822 C845 0.950 . S
H823 C847 0.950 . S
H824 C848 0.950 . S
H825 C849 0.951 . S
H826 C851 0.951 . S
H827 C853 0.950 . S
H828 C854 0.950 . S
H829 C856 0.950 . S
H830 C859 0.950 . S
H831 C860 0.950 . S
H832 C862 0.950 . S
H833 C863 0.950 . S
C834 H816 0.951 . S
C834 C835 1.366 . S
C834 C836 1.388 . S
C835 C834 1.366 . S
C835 C839 1.385 . S
C836 H817 0.951 . S
C836 C834 1.388 . S
C836 C837 1.366 . S
C837 C836 1.366 . S
C837 C838 1.414 . S
C837 C840 1.499 . S
C838 H818 0.950 . S
C838 C837 1.414 . S
C838 C839 1.374 . S
C839 H819 0.950 . S
C839 C835 1.385 . S
C839 C838 1.374 . S
C840 C837 1.499 . S
C840 C841 1.373 . S
C840 C842 1.389 . S
C841 H820 0.950 . S
C841 C840 1.373 . S
C841 C857 1.377 . S
C842 C840 1.389 . S
C842 C843 1.524 . S
C842 C856 1.377 . S
C843 C842 1.524 . S
C843 C844 1.397 . S
C843 C848 1.363 . S
C844 H821 0.950 . S
C844 C843 1.397 . S
C844 C845 1.334 . S
C845 H822 0.950 . S
C845 C844 1.334 . S
C845 C846 1.287 . S
C846 C845 1.287 . S
C846 C847 1.524 . S
C846 H865 0.913 . S
C847 H823 0.950 . S
C847 C846 1.524 . S
C847 C848 1.415 . S
C848 H824 0.950 . S
C848 C843 1.363 . S
C848 C847 1.415 . S
C849 H825 0.951 . S
C849 C850 1.366 . S
C849 C851 1.388 . S
C850 C849 1.366 . S
C850 C854 1.385 . S
C851 H826 0.951 . S
C851 C849 1.388 . S
C851 C852 1.366 . S
C852 C851 1.366 . S
C852 C853 1.414 . S
C852 C855 1.499 . S
C853 H827 0.950 . S
C853 C852 1.414 . S
C853 C854 1.374 . S
C854 H828 0.950 . S
C854 C850 1.385 . S
C854 C853 1.374 . S
C855 C852 1.499 . S
C855 C856 1.373 . S
C855 C857 1.389 . S
C856 H829 0.950 . S
C856 C842 1.377 . S
C856 C855 1.373 . S
C857 C841 1.377 . S
C857 C855 1.389 . S
C857 C858 1.524 . S
C858 C857 1.524 . S
C858 C859 1.397 . S
C858 C863 1.363 . S
C859 H830 0.950 . S
C859 C858 1.397 . S
C859 C860 1.334 . S
C860 H831 0.950 . S
C860 C859 1.334 . S
C860 C861 1.287 . S
C861 C860 1.287 . S
C861 C862 1.524 . S
C861 H864 0.999 . S
C862 H832 0.950 . S
C862 C861 1.524 . S
C862 C863 1.415 . S
C863 H833 0.950 . S
C863 C858 1.363 . S
C863 C862 1.415 . S
H864 C861 0.999 . S
H865 C846 0.913 . S
H866 C884 0.951 . S
H867 C886 0.951 . S
H868 C888 0.950 . S
H869 C889 0.950 . S
H870 C891 0.950 . S
H871 C894 0.950 . S
H872 C895 0.950 . S
H873 C897 0.950 . S
H874 C898 0.950 . S
H875 C899 0.951 . S
H876 C901 0.951 . S
H877 C903 0.950 . S
H878 C904 0.950 . S
H879 C906 0.950 . S
H880 C909 0.950 . S
H881 C910 0.950 . S
H882 C912 0.950 . S
H883 C913 0.950 . S
C884 H866 0.951 . S
C884 C885 1.366 . S
C884 C886 1.388 . S
C885 C884 1.366 . S
C885 C889 1.385 . S
C886 H867 0.951 . S
C886 C884 1.388 . S
C886 C887 1.366 . S
C887 C886 1.366 . S
C887 C888 1.414 . S
C887 C890 1.499 . S
C888 H868 0.950 . S
C888 C887 1.414 . S
C888 C889 1.374 . S
C889 H869 0.950 . S
C889 C885 1.385 . S
C889 C888 1.374 . S
C890 C887 1.499 . S
C890 C891 1.373 . S
C890 C892 1.389 . S
C891 H870 0.950 . S
C891 C890 1.373 . S
C891 C907 1.377 1_554 S
C892 C890 1.389 . S
C892 C893 1.524 . S
C892 C906 1.377 1_554 S
C893 C892 1.524 . S
C893 C894 1.397 . S
C893 C898 1.363 . S
C894 H871 0.950 . S
C894 C893 1.397 . S
C894 C895 1.334 . S
C895 H872 0.950 . S
C895 C894 1.334 . S
C895 C896 1.287 . S
C896 C895 1.287 . S
C896 C897 1.524 . S
C896 H915 0.913 . S
C897 H873 0.950 . S
C897 C896 1.524 . S
C897 C898 1.415 . S
C898 H874 0.950 . S
C898 C893 1.363 . S
C898 C897 1.415 . S
C899 H875 0.951 . S
C899 C900 1.366 . S
C899 C901 1.388 . S
C900 C899 1.366 . S
C900 C904 1.385 . S
C901 H876 0.951 . S
C901 C899 1.388 . S
C901 C902 1.366 . S
C902 C901 1.366 . S
C902 C903 1.414 . S
C902 C905 1.499 . S
C903 H877 0.950 . S
C903 C902 1.414 . S
C903 C904 1.374 . S
C904 H878 0.950 . S
C904 C900 1.385 . S
C904 C903 1.374 . S
C905 C902 1.499 . S
C905 C906 1.373 . S
C905 C907 1.389 . S
C906 H879 0.950 . S
C906 C892 1.377 1_556 S
C906 C905 1.373 . S
C907 C891 1.377 1_556 S
C907 C905 1.389 . S
C907 C908 1.524 . S
C908 C907 1.524 . S
C908 C909 1.397 . S
C908 C913 1.363 . S
C909 H880 0.950 . S
C909 C908 1.397 . S
C909 C910 1.334 . S
C910 H881 0.950 . S
C910 C909 1.334 . S
C910 C911 1.287 . S
C911 C910 1.287 . S
C911 C912 1.524 . S
C911 H914 0.999 . S
C912 H882 0.950 . S
C912 C911 1.524 . S
C912 C913 1.415 . S
C913 H883 0.950 . S
C913 C908 1.363 . S
C913 C912 1.415 . S
H914 C911 0.999 . S
H915 C896 0.913 . S
H916 C934 0.951 . S
H917 C936 0.951 . S
H918 C938 0.950 . S
H919 C939 0.950 . S
H920 C941 0.950 . S
H921 C944 0.950 . S
H922 C945 0.950 . S
H923 C947 0.950 . S
H924 C948 0.950 . S
H925 C949 0.951 . S
H926 C951 0.951 . S
H927 C953 0.950 . S
H928 C954 0.950 . S
H929 C956 0.950 . S
H930 C959 0.950 . S
H931 C960 0.950 . S
H932 C962 0.950 . S
H933 C963 0.950 . S
C934 H916 0.951 . S
C934 C935 1.366 . S
C934 C936 1.388 . S
C935 C934 1.366 . S
C935 C939 1.385 . S
C936 H917 0.951 . S
C936 C934 1.388 . S
C936 C937 1.366 . S
C937 C936 1.366 . S
C937 C938 1.414 . S
C937 C940 1.499 . S
C938 H918 0.950 . S
C938 C937 1.414 . S
C938 C939 1.374 . S
C939 H919 0.950 . S
C939 C935 1.385 . S
C939 C938 1.374 . S
C940 C937 1.499 . S
C940 C941 1.373 . S
C940 C942 1.389 . S
C941 H920 0.950 . S
C941 C940 1.373 . S
C941 C957 1.377 . S
C942 C940 1.389 . S
C942 C943 1.524 . S
C942 C956 1.377 . S
C943 C942 1.524 . S
C943 C944 1.397 . S
C943 C948 1.363 . S
C944 H921 0.950 . S
C944 C943 1.397 . S
C944 C945 1.334 . S
C945 H922 0.950 . S
C945 C944 1.334 . S
C945 C946 1.287 . S
C946 C945 1.287 . S
C946 C947 1.524 . S
C946 H965 0.913 . S
C947 H923 0.950 . S
C947 C946 1.524 . S
C947 C948 1.415 . S
C948 H924 0.950 . S
C948 C943 1.363 . S
C948 C947 1.415 . S
C949 H925 0.951 . S
C949 C950 1.366 . S
C949 C951 1.388 . S
C950 C949 1.366 . S
C950 C954 1.385 . S
C951 H926 0.951 . S
C951 C949 1.388 . S
C951 C952 1.366 . S
C952 C951 1.366 . S
C952 C953 1.414 . S
C952 C955 1.499 . S
C953 H927 0.950 . S
C953 C952 1.414 . S
C953 C954 1.374 . S
C954 H928 0.950 . S
C954 C950 1.385 . S
C954 C953 1.374 . S
C955 C952 1.499 . S
C955 C956 1.373 . S
C955 C957 1.389 . S
C956 H929 0.950 . S
C956 C942 1.377 . S
C956 C955 1.373 . S
C957 C941 1.377 . S
C957 C955 1.389 . S
C957 C958 1.524 . S
C958 C957 1.524 . S
C958 C959 1.397 . S
C958 C963 1.363 . S
C959 H930 0.950 . S
C959 C958 1.397 . S
C959 C960 1.334 . S
C960 H931 0.950 . S
C960 C959 1.334 . S
C960 C961 1.287 . S
C961 C960 1.287 . S
C961 C962 1.524 . S
C961 H964 0.999 . S
C962 H932 0.950 . S
C962 C961 1.524 . S
C962 C963 1.415 . S
C963 H933 0.950 . S
C963 C958 1.363 . S
C963 C962 1.415 . S
H964 C961 0.999 . S
H965 C946 0.913 . S
H966 C984 0.951 . S
H967 C986 0.951 . S
H968 C988 0.950 . S
H969 C989 0.950 . S
H970 C991 0.950 . S
H971 C994 0.950 . S
H972 C995 0.950 . S
H973 C997 0.950 . S
H974 C998 0.950 . S
H975 C999 0.951 . S
H976 C1001 0.951 . S
H977 C1003 0.950 . S
H978 C1004 0.950 . S
H979 C1006 0.950 . S
H980 C1009 0.950 . S
H981 C1010 0.950 . S
H982 C1012 0.950 . S
H983 C1013 0.950 . S
C984 H966 0.951 . S
C984 C985 1.366 . S
C984 C986 1.388 . S
C985 C984 1.366 . S
C985 C989 1.385 . S
C986 H967 0.951 . S
C986 C984 1.388 . S
C986 C987 1.366 . S
C987 C986 1.366 . S
C987 C988 1.414 . S
C987 C990 1.499 . S
C988 H968 0.950 . S
C988 C987 1.414 . S
C988 C989 1.374 . S
C989 H969 0.950 . S
C989 C985 1.385 . S
C989 C988 1.374 . S
C990 C987 1.499 . S
C990 C991 1.373 . S
C990 C992 1.389 . S
C991 H970 0.950 . S
C991 C990 1.373 . S
C991 C1007 1.377 . S
C992 C990 1.389 . S
C992 C993 1.524 . S
C992 C1006 1.377 . S
C993 C992 1.524 . S
C993 C994 1.397 . S
C993 C998 1.363 . S
C994 H971 0.950 . S
C994 C993 1.397 . S
C994 C995 1.334 . S
C995 H972 0.950 . S
C995 C994 1.334 . S
C995 C996 1.287 . S
C996 C995 1.287 . S
C996 C997 1.524 . S
C996 H1015 0.913 . S
C997 H973 0.950 . S
C997 C996 1.524 . S
C997 C998 1.415 . S
C998 H974 0.950 . S
C998 C993 1.363 . S
C998 C997 1.415 . S
C999 H975 0.951 . S
C999 C1000 1.366 . S
C999 C1001 1.388 . S
C1000 C999 1.366 . S
C1000 C1004 1.385 . S
C1001 H976 0.951 . S
C1001 C999 1.388 . S
C1001 C1002 1.366 . S
C1002 C1001 1.366 . S
C1002 C1003 1.414 . S
C1002 C1005 1.499 . S
C1003 H977 0.950 . S
C1003 C1002 1.414 . S
C1003 C1004 1.374 . S
C1004 H978 0.950 . S
C1004 C1000 1.385 . S
C1004 C1003 1.374 . S
C1005 C1002 1.499 . S
C1005 C1006 1.373 . S
C1005 C1007 1.389 . S
C1006 H979 0.950 . S
C1006 C992 1.377 . S
C1006 C1005 1.373 . S
C1007 C991 1.377 . S
C1007 C1005 1.389 . S
C1007 C1008 1.524 . S
C1008 C1007 1.524 . S
C1008 C1009 1.397 . S
C1008 C1013 1.363 . S
C1009 H980 0.950 . S
C1009 C1008 1.397 . S
C1009 C1010 1.334 . S
C1010 H981 0.950 . S
C1010 C1009 1.334 . S
C1010 C1011 1.287 . S
C1011 C1010 1.287 . S
C1011 C1012 1.524 . S
C1011 H1014 0.999 . S
C1012 H982 0.950 . S
C1012 C1011 1.524 . S
C1012 C1013 1.415 . S
C1013 H983 0.950 . S
C1013 C1008 1.363 . S
C1013 C1012 1.415 . S
H1014 C1011 0.999 . S
H1015 C996 0.913 . S
H1016 C1034 0.951 . S
H1017 C1036 0.951 . S
H1018 C1038 0.950 . S
H1019 C1039 0.950 . S
H1020 C1041 0.950 . S
H1021 C1044 0.950 . S
H1022 C1045 0.950 . S
H1023 C1047 0.950 . S
H1024 C1048 0.950 . S
H1025 C1049 0.951 . S
H1026 C1051 0.951 . S
H1027 C1053 0.950 . S
H1028 C1054 0.950 . S
H1029 C1056 0.950 . S
H1030 C1059 0.950 . S
H1031 C1060 0.950 . S
H1032 C1062 0.950 . S
H1033 C1063 0.950 . S
C1034 H1016 0.951 . S
C1034 C1035 1.366 . S
C1034 C1036 1.388 . S
C1035 C1034 1.366 . S
C1035 C1039 1.385 . S
C1036 H1017 0.951 . S
C1036 C1034 1.388 . S
C1036 C1037 1.366 . S
C1037 C1036 1.366 . S
C1037 C1038 1.414 . S
C1037 C1040 1.499 . S
C1038 H1018 0.950 . S
C1038 C1037 1.414 . S
C1038 C1039 1.374 . S
C1039 H1019 0.950 . S
C1039 C1035 1.385 . S
C1039 C1038 1.374 . S
C1040 C1037 1.499 . S
C1040 C1041 1.373 . S
C1040 C1042 1.389 . S
C1041 H1020 0.950 . S
C1041 C1040 1.373 . S
C1041 C1057 1.377 . S
C1042 C1040 1.389 . S
C1042 C1043 1.524 . S
C1042 C1056 1.377 . S
C1043 C1042 1.524 . S
C1043 C1044 1.397 . S
C1043 C1048 1.363 . S
C1044 H1021 0.950 . S
C1044 C1043 1.397 . S
C1044 C1045 1.334 . S
C1045 H1022 0.950 . S
C1045 C1044 1.334 . S
C1045 C1046 1.287 . S
C1046 C1045 1.287 . S
C1046 C1047 1.524 . S
C1046 H1065 0.913 . S
C1047 H1023 0.950 . S
C1047 C1046 1.524 . S
C1047 C1048 1.415 . S
C1048 H1024 0.950 . S
C1048 C1043 1.363 . S
C1048 C1047 1.415 . S
C1049 H1025 0.951 . S
C1049 C1050 1.366 . S
C1049 C1051 1.388 . S
C1050 C1049 1.366 . S
C1050 C1054 1.385 . S
C1051 H1026 0.951 . S
C1051 C1049 1.388 . S
C1051 C1052 1.366 . S
C1052 C1051 1.366 . S
C1052 C1053 1.414 . S
C1052 C1055 1.499 . S
C1053 H1027 0.950 . S
C1053 C1052 1.414 . S
C1053 C1054 1.374 . S
C1054 H1028 0.950 . S
C1054 C1050 1.385 . S
C1054 C1053 1.374 . S
C1055 C1052 1.499 . S
C1055 C1056 1.373 . S
C1055 C1057 1.389 . S
C1056 H1029 0.950 . S
C1056 C1042 1.377 . S
C1056 C1055 1.373 . S
C1057 C1041 1.377 . S
C1057 C1055 1.389 . S
C1057 C1058 1.524 . S
C1058 C1057 1.524 . S
C1058 C1059 1.397 . S
C1058 C1063 1.363 . S
C1059 H1030 0.950 . S
C1059 C1058 1.397 . S
C1059 C1060 1.334 . S
C1060 H1031 0.950 . S
C1060 C1059 1.334 . S
C1060 C1061 1.287 . S
C1061 C1060 1.287 . S
C1061 C1062 1.524 . S
C1061 H1064 0.999 . S
C1062 H1032 0.950 . S
C1062 C1061 1.524 . S
C1062 C1063 1.415 . S
C1063 H1033 0.950 . S
C1063 C1058 1.363 . S
C1063 C1062 1.415 . S
H1064 C1061 0.999 . S
H1065 C1046 0.913 . S
H1066 C1084 0.951 . S
H1067 C1086 0.951 . S
H1068 C1088 0.950 . S
H1069 C1089 0.950 . S
H1070 C1091 0.950 . S
H1071 C1094 0.950 . S
H1072 C1095 0.950 . S
H1073 C1097 0.950 . S
H1074 C1098 0.950 . S
H1075 C1099 0.951 . S
H1076 C1101 0.951 . S
H1077 C1103 0.950 . S
H1078 C1104 0.950 . S
H1079 C1106 0.950 . S
H1080 C1109 0.950 . S
H1081 C1110 0.950 . S
H1082 C1112 0.950 . S
H1083 C1113 0.950 . S
C1084 H1066 0.951 . S
C1084 C1085 1.366 . S
C1084 C1086 1.388 . S
C1085 C1084 1.366 . S
C1085 C1089 1.385 . S
C1086 H1067 0.951 . S
C1086 C1084 1.388 . S
C1086 C1087 1.366 . S
C1087 C1086 1.366 . S
C1087 C1088 1.414 . S
C1087 C1090 1.499 . S
C1088 H1068 0.950 . S
C1088 C1087 1.414 . S
C1088 C1089 1.374 . S
C1089 H1069 0.950 . S
C1089 C1085 1.385 . S
C1089 C1088 1.374 . S
C1090 C1087 1.499 . S
C1090 C1091 1.373 . S
C1090 C1092 1.389 . S
C1091 H1070 0.950 . S
C1091 C1090 1.373 . S
C1091 C1107 1.377 1_554 S
C1092 C1090 1.389 . S
C1092 C1093 1.524 . S
C1092 C1106 1.377 1_554 S
C1093 C1092 1.524 . S
C1093 C1094 1.397 . S
C1093 C1098 1.363 1_554 S
C1094 H1071 0.950 . S
C1094 C1093 1.397 . S
C1094 C1095 1.334 . S
C1095 H1072 0.950 . S
C1095 C1094 1.334 . S
C1095 C1096 1.287 . S
C1096 C1095 1.287 . S
C1096 C1097 1.524 1_554 S
C1096 H1115 0.913 . S
C1097 H1073 0.950 . S
C1097 C1096 1.524 1_556 S
C1097 C1098 1.415 . S
C1098 H1074 0.950 . S
C1098 C1093 1.363 1_556 S
C1098 C1097 1.415 . S
C1099 H1075 0.951 . S
C1099 C1100 1.366 . S
C1099 C1101 1.388 . S
C1100 C1099 1.366 . S
C1100 C1104 1.385 . S
C1101 H1076 0.951 . S
C1101 C1099 1.388 . S
C1101 C1102 1.366 . S
C1102 C1101 1.366 . S
C1102 C1103 1.414 . S
C1102 C1105 1.499 . S
C1103 H1077 0.950 . S
C1103 C1102 1.414 . S
C1103 C1104 1.374 . S
C1104 H1078 0.950 . S
C1104 C1100 1.385 . S
C1104 C1103 1.374 . S
C1105 C1102 1.499 . S
C1105 C1106 1.373 . S
C1105 C1107 1.389 . S
C1106 H1079 0.950 . S
C1106 C1092 1.377 1_556 S
C1106 C1105 1.373 . S
C1107 C1091 1.377 1_556 S
C1107 C1105 1.389 . S
C1107 C1108 1.524 . S
C1108 C1107 1.524 . S
C1108 C1109 1.397 . S
C1108 C1113 1.363 1_556 S
C1109 H1080 0.950 . S
C1109 C1108 1.397 . S
C1109 C1110 1.334 . S
C1110 H1081 0.950 . S
C1110 C1109 1.334 . S
C1110 C1111 1.287 . S
C1111 C1110 1.287 . S
C1111 C1112 1.524 1_556 S
C1111 H1114 0.999 . S
C1112 H1082 0.950 . S
C1112 C1111 1.524 1_554 S
C1112 C1113 1.415 . S
C1113 H1083 0.950 . S
C1113 C1108 1.363 1_554 S
C1113 C1112 1.415 . S
H1114 C1111 0.999 . S
H1115 C1096 0.913 . S
H1116 C1134 0.951 . S
H1117 C1136 0.951 . S
H1118 C1138 0.950 . S
H1119 C1139 0.950 . S
H1120 C1141 0.950 . S
H1121 C1144 0.950 . S
H1122 C1145 0.950 . S
H1123 C1147 0.950 . S
H1124 C1148 0.950 . S
H1125 C1149 0.951 . S
H1126 C1151 0.951 . S
H1127 C1153 0.950 . S
H1128 C1154 0.950 . S
H1129 C1156 0.950 . S
H1130 C1159 0.950 . S
H1131 C1160 0.950 . S
H1132 C1162 0.950 . S
H1133 C1163 0.950 . S
C1134 H1116 0.951 . S
C1134 C1135 1.366 . S
C1134 C1136 1.388 . S
C1135 C1134 1.366 . S
C1135 C1139 1.385 . S
C1136 H1117 0.951 . S
C1136 C1134 1.388 . S
C1136 C1137 1.366 . S
C1137 C1136 1.366 . S
C1137 C1138 1.414 . S
C1137 C1140 1.499 . S
C1138 H1118 0.950 . S
C1138 C1137 1.414 . S
C1138 C1139 1.374 . S
C1139 H1119 0.950 . S
C1139 C1135 1.385 . S
C1139 C1138 1.374 . S
C1140 C1137 1.499 . S
C1140 C1141 1.373 . S
C1140 C1142 1.389 . S
C1141 H1120 0.950 . S
C1141 C1140 1.373 . S
C1141 C1157 1.377 . S
C1142 C1140 1.389 . S
C1142 C1143 1.524 . S
C1142 C1156 1.377 . S
C1143 C1142 1.524 . S
C1143 C1144 1.397 . S
C1143 C1148 1.363 . S
C1144 H1121 0.950 . S
C1144 C1143 1.397 . S
C1144 C1145 1.334 . S
C1145 H1122 0.950 . S
C1145 C1144 1.334 . S
C1145 C1146 1.287 . S
C1146 C1145 1.287 . S
C1146 C1147 1.524 . S
C1146 H1165 0.913 . S
C1147 H1123 0.950 . S
C1147 C1146 1.524 . S
C1147 C1148 1.415 . S
C1148 H1124 0.950 . S
C1148 C1143 1.363 . S
C1148 C1147 1.415 . S
C1149 H1125 0.951 . S
C1149 C1150 1.366 . S
C1149 C1151 1.388 . S
C1150 C1149 1.366 . S
C1150 C1154 1.385 . S
C1151 H1126 0.951 . S
C1151 C1149 1.388 . S
C1151 C1152 1.366 . S
C1152 C1151 1.366 . S
C1152 C1153 1.414 . S
C1152 C1155 1.499 . S
C1153 H1127 0.950 . S
C1153 C1152 1.414 . S
C1153 C1154 1.374 . S
C1154 H1128 0.950 . S
C1154 C1150 1.385 . S
C1154 C1153 1.374 . S
C1155 C1152 1.499 . S
C1155 C1156 1.373 . S
C1155 C1157 1.389 . S
C1156 H1129 0.950 . S
C1156 C1142 1.377 . S
C1156 C1155 1.373 . S
C1157 C1141 1.377 . S
C1157 C1155 1.389 . S
C1157 C1158 1.524 . S
C1158 C1157 1.524 . S
C1158 C1159 1.397 . S
C1158 C1163 1.363 . S
C1159 H1130 0.950 . S
C1159 C1158 1.397 . S
C1159 C1160 1.334 . S
C1160 H1131 0.950 . S
C1160 C1159 1.334 . S
C1160 C1161 1.287 . S
C1161 C1160 1.287 . S
C1161 C1162 1.524 . S
C1161 H1164 0.999 . S
C1162 H1132 0.950 . S
C1162 C1161 1.524 . S
C1162 C1163 1.415 . S
C1163 H1133 0.950 . S
C1163 C1158 1.363 . S
C1163 C1162 1.415 . S
H1164 C1161 0.999 . S
H1165 C1146 0.913 . S
H1166 C1184 0.951 . S
H1167 C1186 0.951 . S
H1168 C1188 0.950 . S
H1169 C1189 0.950 . S
H1170 C1191 0.950 . S
H1171 C1194 0.950 . S
H1172 C1195 0.950 . S
H1173 C1197 0.950 . S
H1174 C1198 0.950 . S
H1175 C1199 0.951 . S
H1176 C1201 0.951 . S
H1177 C1203 0.950 . S
H1178 C1204 0.950 . S
H1179 C1206 0.950 . S
H1180 C1209 0.950 . S
H1181 C1210 0.950 . S
H1182 C1212 0.950 . S
H1183 C1213 0.950 . S
C1184 H1166 0.951 . S
C1184 C1185 1.366 . S
C1184 C1186 1.388 . S
C1185 C1184 1.366 . S
C1185 C1189 1.385 . S
C1186 H1167 0.951 . S
C1186 C1184 1.388 . S
C1186 C1187 1.366 . S
C1187 C1186 1.366 . S
C1187 C1188 1.414 . S
C1187 C1190 1.499 . S
C1188 H1168 0.950 . S
C1188 C1187 1.414 . S
C1188 C1189 1.374 . S
C1189 H1169 0.950 . S
C1189 C1185 1.385 . S
C1189 C1188 1.374 . S
C1190 C1187 1.499 . S
C1190 C1191 1.373 . S
C1190 C1192 1.389 . S
C1191 H1170 0.950 . S
C1191 C1190 1.373 . S
C1191 C1207 1.377 . S
C1192 C1190 1.389 . S
C1192 C1193 1.524 . S
C1192 C1206 1.377 . S
C1193 C1192 1.524 . S
C1193 C1194 1.397 . S
C1193 C1198 1.363 . S
C1194 H1171 0.950 . S
C1194 C1193 1.397 . S
C1194 C1195 1.334 . S
C1195 H1172 0.950 . S
C1195 C1194 1.334 . S
C1195 C1196 1.287 . S
C1196 C1195 1.287 . S
C1196 C1197 1.524 . S
C1196 H1215 0.913 . S
C1197 H1173 0.950 . S
C1197 C1196 1.524 . S
C1197 C1198 1.415 . S
C1198 H1174 0.950 . S
C1198 C1193 1.363 . S
C1198 C1197 1.415 . S
C1199 H1175 0.951 . S
C1199 C1200 1.366 . S
C1199 C1201 1.388 . S
C1200 C1199 1.366 . S
C1200 C1204 1.385 . S
C1201 H1176 0.951 . S
C1201 C1199 1.388 . S
C1201 C1202 1.366 . S
C1202 C1201 1.366 . S
C1202 C1203 1.414 . S
C1202 C1205 1.499 . S
C1203 H1177 0.950 . S
C1203 C1202 1.414 . S
C1203 C1204 1.374 . S
C1204 H1178 0.950 . S
C1204 C1200 1.385 . S
C1204 C1203 1.374 . S
C1205 C1202 1.499 . S
C1205 C1206 1.373 . S
C1205 C1207 1.389 . S
C1206 H1179 0.950 . S
C1206 C1192 1.377 . S
C1206 C1205 1.373 . S
C1207 C1191 1.377 . S
C1207 C1205 1.389 . S
C1207 C1208 1.524 . S
C1208 C1207 1.524 . S
C1208 C1209 1.397 . S
C1208 C1213 1.363 . S
C1209 H1180 0.950 . S
C1209 C1208 1.397 . S
C1209 C1210 1.334 . S
C1210 H1181 0.950 . S
C1210 C1209 1.334 . S
C1210 C1211 1.287 . S
C1211 C1210 1.287 . S
C1211 C1212 1.524 . S
C1211 H1214 0.999 . S
C1212 H1182 0.950 . S
C1212 C1211 1.524 . S
C1212 C1213 1.415 . S
C1213 H1183 0.950 . S
C1213 C1208 1.363 . S
C1213 C1212 1.415 . S
H1214 C1211 0.999 . S
H1215 C1196 0.913 . S
H1216 C1234 0.951 . S
H1217 C1236 0.951 1_565 S
H1218 C1238 0.950 1_565 S
H1219 C1239 0.950 . S
H1220 C1241 0.950 . S
H1221 C1244 0.950 . S
H1222 C1245 0.950 . S
H1223 C1247 0.950 . S
H1224 C1248 0.950 . S
H1225 C1249 0.951 . S
H1226 C1251 0.951 . S
H1227 C1253 0.950 . S
H1228 C1254 0.950 . S
H1229 C1256 0.950 . S
H1230 C1259 0.950 . S
H1231 C1260 0.950 . S
H1232 C1262 0.950 . S
H1233 C1263 0.950 . S
C1234 H1216 0.951 . S
C1234 C1235 1.366 . S
C1234 C1236 1.388 . S
C1235 C1234 1.366 . S
C1235 C1239 1.385 . S
C1236 H1217 0.951 1_545 S
C1236 C1234 1.388 . S
C1236 C1237 1.366 1_545 S
C1237 C1236 1.366 1_565 S
C1237 C1238 1.414 1_565 S
C1237 C1240 1.499 . S
C1238 H1218 0.950 1_545 S
C1238 C1237 1.414 1_545 S
C1238 C1239 1.374 . S
C1239 H1219 0.950 . S
C1239 C1235 1.385 . S
C1239 C1238 1.374 . S
C1240 C1237 1.499 . S
C1240 C1241 1.373 . S
C1240 C1242 1.389 . S
C1241 H1220 0.950 . S
C1241 C1240 1.373 . S
C1241 C1257 1.377 . S
C1242 C1240 1.389 . S
C1242 C1243 1.524 . S
C1242 C1256 1.377 . S
C1243 C1242 1.524 . S
C1243 C1244 1.397 . S
C1243 C1248 1.363 . S
C1244 H1221 0.950 . S
C1244 C1243 1.397 . S
C1244 C1245 1.334 . S
C1245 H1222 0.950 . S
C1245 C1244 1.334 . S
C1245 C1246 1.287 . S
C1246 C1245 1.287 . S
C1246 C1247 1.524 . S
C1246 H1265 0.913 . S
C1247 H1223 0.950 . S
C1247 C1246 1.524 . S
C1247 C1248 1.415 . S
C1248 H1224 0.950 . S
C1248 C1243 1.363 . S
C1248 C1247 1.415 . S
C1249 H1225 0.951 . S
C1249 C1250 1.366 . S
C1249 C1251 1.388 . S
C1250 C1249 1.366 . S
C1250 C1254 1.385 . S
C1251 H1226 0.951 . S
C1251 C1249 1.388 . S
C1251 C1252 1.366 . S
C1252 C1251 1.366 . S
C1252 C1253 1.414 . S
C1252 C1255 1.499 . S
C1253 H1227 0.950 . S
C1253 C1252 1.414 . S
C1253 C1254 1.374 . S
C1254 H1228 0.950 . S
C1254 C1250 1.385 . S
C1254 C1253 1.374 . S
C1255 C1252 1.499 . S
C1255 C1256 1.373 . S
C1255 C1257 1.389 . S
C1256 H1229 0.950 . S
C1256 C1242 1.377 . S
C1256 C1255 1.373 . S
C1257 C1241 1.377 . S
C1257 C1255 1.389 . S
C1257 C1258 1.524 . S
C1258 C1257 1.524 . S
C1258 C1259 1.397 . S
C1258 C1263 1.363 . S
C1259 H1230 0.950 . S
C1259 C1258 1.397 . S
C1259 C1260 1.334 . S
C1260 H1231 0.950 . S
C1260 C1259 1.334 . S
C1260 C1261 1.287 . S
C1261 C1260 1.287 . S
C1261 C1262 1.524 . S
C1261 H1264 0.999 . S
C1262 H1232 0.950 . S
C1262 C1261 1.524 . S
C1262 C1263 1.415 . S
C1263 H1233 0.950 . S
C1263 C1258 1.363 . S
C1263 C1262 1.415 . S
H1264 C1261 0.999 . S
H1265 C1246 0.913 . S
H1266 C1284 0.951 . S
H1267 C1286 0.951 . S
H1268 C1288 0.950 . S
H1269 C1289 0.950 . S
H1270 C1291 0.950 . S
H1271 C1294 0.950 . S
H1272 C1295 0.950 . S
H1273 C1297 0.950 . S
H1274 C1298 0.950 . S
H1275 C1299 0.951 . S
H1276 C1301 0.951 . S
H1277 C1303 0.950 . S
H1278 C1304 0.950 . S
H1279 C1306 0.950 . S
H1280 C1309 0.950 . S
H1281 C1310 0.950 . S
H1282 C1312 0.950 . S
H1283 C1313 0.950 . S
C1284 H1266 0.951 . S
C1284 C1285 1.366 . S
C1284 C1286 1.388 . S
C1285 C1284 1.366 . S
C1285 C1289 1.385 . S
C1286 H1267 0.951 . S
C1286 C1284 1.388 . S
C1286 C1287 1.366 . S
C1287 C1286 1.366 . S
C1287 C1288 1.414 . S
C1287 C1290 1.499 . S
C1288 H1268 0.950 . S
C1288 C1287 1.414 . S
C1288 C1289 1.374 . S
C1289 H1269 0.950 . S
C1289 C1285 1.385 . S
C1289 C1288 1.374 . S
C1290 C1287 1.499 . S
C1290 C1291 1.373 . S
C1290 C1292 1.389 . S
C1291 H1270 0.950 . S
C1291 C1290 1.373 . S
C1291 C1307 1.377 . S
C1292 C1290 1.389 . S
C1292 C1293 1.524 . S
C1292 C1306 1.377 . S
C1293 C1292 1.524 . S
C1293 C1294 1.397 . S
C1293 C1298 1.363 . S
C1294 H1271 0.950 . S
C1294 C1293 1.397 . S
C1294 C1295 1.334 . S
C1295 H1272 0.950 . S
C1295 C1294 1.334 . S
C1295 C1296 1.287 . S
C1296 C1295 1.287 . S
C1296 C1297 1.524 . S
C1296 H1315 0.913 . S
C1297 H1273 0.950 . S
C1297 C1296 1.524 . S
C1297 C1298 1.415 . S
C1298 H1274 0.950 . S
C1298 C1293 1.363 . S
C1298 C1297 1.415 . S
C1299 H1275 0.951 . S
C1299 C1300 1.366 . S
C1299 C1301 1.388 . S
C1300 C1299 1.366 . S
C1300 C1304 1.385 . S
C1301 H1276 0.951 . S
C1301 C1299 1.388 . S
C1301 C1302 1.366 1_565 S
C1302 C1301 1.366 1_545 S
C1302 C1303 1.414 . S
C1302 C1305 1.499 . S
C1303 H1277 0.950 . S
C1303 C1302 1.414 . S
C1303 C1304 1.374 1_545 S
C1304 H1278 0.950 . S
C1304 C1300 1.385 . S
C1304 C1303 1.374 1_565 S
C1305 C1302 1.499 . S
C1305 C1306 1.373 . S
C1305 C1307 1.389 . S
C1306 H1279 0.950 . S
C1306 C1292 1.377 . S
C1306 C1305 1.373 . S
C1307 C1291 1.377 . S
C1307 C1305 1.389 . S
C1307 C1308 1.524 . S
C1308 C1307 1.524 . S
C1308 C1309 1.397 . S
C1308 C1313 1.363 . S
C1309 H1280 0.950 . S
C1309 C1308 1.397 . S
C1309 C1310 1.334 . S
C1310 H1281 0.950 . S
C1310 C1309 1.334 . S
C1310 C1311 1.287 . S
C1311 C1310 1.287 . S
C1311 C1312 1.524 . S
C1311 H1314 0.999 . S
C1312 H1282 0.950 . S
C1312 C1311 1.524 . S
C1312 C1313 1.415 . S
C1313 H1283 0.950 . S
C1313 C1308 1.363 . S
C1313 C1312 1.415 . S
H1314 C1311 0.999 . S
H1315 C1296 0.913 . S
H1316 C1334 0.951 . S
H1317 C1336 0.951 . S
H1318 C1338 0.950 . S
H1319 C1339 0.941 1_545 S
H1320 C1341 0.950 . S
H1321 C1344 0.950 . S
H1322 C1345 0.950 . S
H1323 C1347 0.950 . S
H1324 C1348 0.950 . S
H1325 C1349 0.951 . S
H1326 C1351 0.951 . S
H1327 C1353 0.950 . S
H1328 C1354 0.950 . S
H1329 C1356 0.950 . S
H1330 C1359 0.950 . S
H1331 C1360 0.950 . S
H1332 C1362 0.950 . S
H1333 C1363 0.950 . S
C1334 H1316 0.951 . S
C1334 C1335 1.366 . S
C1334 C1336 1.388 . S
C1335 C1334 1.366 . S
C1335 C1339 1.385 . S
C1336 H1317 0.951 . S
C1336 C1334 1.388 . S
C1336 C1337 1.366 1_565 S
C1337 C1336 1.366 1_545 S
C1337 C1338 1.414 . S
C1337 C1340 1.499 . S
C1338 H1318 0.950 . S
C1338 C1337 1.414 . S
C1338 C1339 1.374 1_545 S
C1339 H1319 0.941 1_565 S
C1339 C1335 1.385 . S
C1339 C1338 1.374 1_565 S
C1340 C1337 1.499 . S
C1340 C1341 1.373 . S
C1340 C1342 1.389 . S
C1341 H1320 0.950 . S
C1341 C1340 1.373 . S
C1341 C1357 1.377 . S
C1342 C1340 1.389 . S
C1342 C1343 1.524 . S
C1342 C1356 1.377 . S
C1343 C1342 1.524 . S
C1343 C1344 1.397 . S
C1343 C1348 1.382 . S
C1344 H1321 0.950 . S
C1344 C1343 1.397 . S
C1344 C1345 1.334 . S
C1345 H1322 0.950 . S
C1345 C1344 1.334 . S
C1345 C1346 1.287 1_545 S
C1346 C1345 1.287 1_565 S
C1346 C1347 1.524 . S
C1346 H1365 0.913 . S
C1347 H1323 0.950 . S
C1347 C1346 1.524 . S
C1347 C1348 1.397 1_565 S
C1348 H1324 0.950 . S
C1348 C1343 1.382 . S
C1348 C1347 1.397 1_545 S
C1349 H1325 0.951 . S
C1349 C1350 1.366 . S
C1349 C1351 1.388 . S
C1350 C1349 1.366 . S
C1350 C1354 1.385 . S
C1351 H1326 0.951 . S
C1351 C1349 1.388 . S
C1351 C1352 1.366 . S
C1352 C1351 1.366 . S
C1352 C1353 1.414 . S
C1352 C1355 1.499 . S
C1353 H1327 0.950 . S
C1353 C1352 1.414 . S
C1353 C1354 1.374 . S
C1354 H1328 0.950 . S
C1354 C1350 1.385 . S
C1354 C1353 1.374 . S
C1355 C1352 1.499 . S
C1355 C1356 1.373 . S
C1355 C1357 1.389 . S
C1356 H1329 0.950 . S
C1356 C1342 1.377 . S
C1356 C1355 1.373 . S
C1357 C1341 1.377 . S
C1357 C1355 1.389 . S
C1357 C1358 1.524 . S
C1358 C1357 1.524 . S
C1358 C1359 1.397 . S
C1358 C1363 1.363 . S
C1359 H1330 0.950 . S
C1359 C1358 1.397 . S
C1359 C1360 1.334 . S
C1360 H1331 0.950 . S
C1360 C1359 1.334 . S
C1360 C1361 1.287 . S
C1361 C1360 1.287 . S
C1361 C1362 1.524 . S
C1361 H1364 0.999 . S
C1362 H1332 0.950 . S
C1362 C1361 1.524 . S
C1362 C1363 1.415 . S
C1363 H1333 0.950 . S
C1363 C1358 1.363 . S
C1363 C1362 1.415 . S
H1364 C1361 0.999 . S
H1365 C1346 0.913 . S
H1366 C1384 0.951 . S
H1367 C1386 0.951 . S
H1368 C1388 0.950 . S
H1369 C1389 0.950 . S
H1370 C1391 0.950 . S
H1371 C1394 0.950 . S
H1372 C1395 0.950 . S
H1373 C1397 0.950 . S
H1374 C1398 0.950 1_565 S
H1375 C1399 0.951 . S
H1376 C1401 0.951 . S
H1377 C1403 0.950 . S
H1378 C1404 0.950 . S
H1379 C1406 0.950 . S
H1380 C1409 0.950 . S
H1381 C1410 0.950 . S
H1382 C1412 0.950 . S
H1383 C1413 0.950 . S
C1384 H1366 0.951 . S
C1384 C1385 1.366 . S
C1384 C1386 1.388 . S
C1385 C1384 1.366 . S
C1385 C1389 1.385 . S
C1386 H1367 0.951 . S
C1386 C1384 1.388 . S
C1386 C1387 1.366 1_545 S
C1387 C1386 1.366 1_565 S
C1387 C1388 1.414 . S
C1387 C1390 1.499 . S
C1388 H1368 0.950 . S
C1388 C1387 1.414 . S
C1388 C1389 1.374 1_565 S
C1389 H1369 0.950 . S
C1389 C1385 1.385 . S
C1389 C1388 1.374 1_545 S
C1390 C1387 1.499 . S
C1390 C1391 1.373 . S
C1390 C1392 1.389 . S
C1391 H1370 0.950 . S
C1391 C1390 1.373 . S
C1391 C1407 1.377 . S
C1392 C1390 1.389 . S
C1392 C1393 1.524 1_565 S
C1392 C1406 1.377 . S
C1393 C1392 1.524 1_545 S
C1393 C1394 1.397 . S
C1393 C1398 1.363 . S
C1394 H1371 0.950 . S
C1394 C1393 1.397 . S
C1394 C1395 1.334 . S
C1395 H1372 0.950 . S
C1395 C1394 1.334 . S
C1395 C1396 1.287 . S
C1396 C1395 1.287 . S
C1396 C1397 1.524 . S
C1396 H1415 0.913 . S
C1397 H1373 0.950 . S
C1397 C1396 1.524 . S
C1397 C1398 1.415 . S
C1398 H1374 0.950 1_545 S
C1398 C1393 1.363 . S
C1398 C1397 1.415 . S
C1399 H1375 0.951 . S
C1399 C1400 1.366 . S
C1399 C1401 1.388 . S
C1400 C1399 1.366 . S
C1400 C1404 1.385 . S
C1401 H1376 0.951 . S
C1401 C1399 1.388 . S
C1401 C1402 1.366 . S
C1402 C1401 1.366 . S
C1402 C1403 1.414 . S
C1402 C1405 1.499 . S
C1403 H1377 0.950 . S
C1403 C1402 1.414 . S
C1403 C1404 1.374 . S
C1404 H1378 0.950 . S
C1404 C1400 1.385 . S
C1404 C1403 1.374 . S
C1405 C1402 1.499 . S
C1405 C1406 1.373 . S
C1405 C1407 1.389 . S
C1406 H1379 0.950 . S
C1406 C1392 1.377 . S
C1406 C1405 1.373 . S
C1407 C1391 1.377 . S
C1407 C1405 1.389 . S
C1407 C1408 1.524 . S
C1408 C1407 1.524 . S
C1408 C1409 1.397 . S
C1408 C1413 1.363 . S
C1409 H1380 0.950 . S
C1409 C1408 1.397 . S
C1409 C1410 1.334 . S
C1410 H1381 0.950 . S
C1410 C1409 1.334 . S
C1410 C1411 1.287 . S
C1411 C1410 1.287 . S
C1411 C1412 1.524 . S
C1411 H1414 0.999 . S
C1412 H1382 0.950 . S
C1412 C1411 1.524 . S
C1412 C1413 1.415 . S
C1413 H1383 0.950 . S
C1413 C1408 1.363 . S
C1413 C1412 1.415 . S
H1414 C1411 0.999 . S
H1415 C1396 0.913 . S
H1416 C1434 0.951 . S
H1417 C1436 0.951 . S
H1418 C1438 0.950 . S
H1419 C1439 0.950 . S
H1420 C1441 0.950 . S
H1421 C1444 0.950 . S
H1422 C1445 0.950 . S
H1423 C1447 0.950 . S
H1424 C1448 0.950 . S
H1425 C1449 0.962 . S
H1426 C1451 0.951 . S
H1427 C1453 0.950 . S
H1428 C1454 0.950 . S
H1429 C1456 0.950 . S
H1430 C1459 0.950 1_565 S
H1431 C1460 0.950 1_565 S
H1432 C1462 0.950 . S
H1433 C1463 0.950 . S
C1434 H1416 0.951 . S
C1434 C1435 1.366 . S
C1434 C1436 1.388 . S
C1435 C1434 1.366 . S
C1435 C1439 1.385 . S
C1436 H1417 0.951 . S
C1436 C1434 1.388 . S
C1436 C1437 1.366 . S
C1437 C1436 1.366 . S
C1437 C1438 1.414 . S
C1437 C1440 1.499 . S
C1438 H1418 0.950 . S
C1438 C1437 1.414 . S
C1438 C1439 1.374 . S
C1439 H1419 0.950 . S
C1439 C1435 1.385 . S
C1439 C1438 1.374 . S
C1440 C1437 1.499 . S
C1440 C1441 1.373 . S
C1440 C1442 1.389 . S
C1441 H1420 0.950 . S
C1441 C1440 1.373 . S
C1441 C1457 1.377 . S
C1442 C1440 1.389 . S
C1442 C1443 1.524 . S
C1442 C1456 1.377 . S
C1443 C1442 1.524 . S
C1443 C1444 1.397 . S
C1443 C1448 1.363 . S
C1444 H1421 0.950 . S
C1444 C1443 1.397 . S
C1444 C1445 1.334 . S
C1445 H1422 0.950 . S
C1445 C1444 1.334 . S
C1445 C1446 1.287 . S
C1446 C1445 1.287 . S
C1446 C1447 1.524 . S
C1446 H1465 0.913 . S
C1447 H1423 0.950 . S
C1447 C1446 1.524 . S
C1447 C1448 1.415 . S
C1448 H1424 0.950 . S
C1448 C1443 1.363 . S
C1448 C1447 1.415 . S
C1449 H1425 0.962 . S
C1449 C1450 1.366 . S
C1449 C1451 1.388 1_565 S
C1450 C1449 1.366 . S
C1450 C1454 1.385 . S
C1451 H1426 0.951 . S
C1451 C1449 1.388 1_545 S
C1451 C1452 1.366 . S
C1452 C1451 1.366 . S
C1452 C1453 1.414 1_545 S
C1452 C1455 1.499 . S
C1453 H1427 0.950 . S
C1453 C1452 1.414 1_565 S
C1453 C1454 1.374 . S
C1454 H1428 0.950 . S
C1454 C1450 1.385 . S
C1454 C1453 1.374 . S
C1455 C1452 1.499 . S
C1455 C1456 1.373 . S
C1455 C1457 1.389 . S
C1456 H1429 0.950 . S
C1456 C1442 1.377 . S
C1456 C1455 1.373 . S
C1457 C1441 1.377 . S
C1457 C1455 1.389 . S
C1457 C1458 1.524 . S
C1458 C1457 1.524 . S
C1458 C1459 1.397 . S
C1458 C1463 1.363 . S
C1459 H1430 0.950 1_545 S
C1459 C1458 1.397 . S
C1459 C1460 1.334 . S
C1460 H1431 0.950 1_545 S
C1460 C1459 1.334 . S
C1460 C1461 1.287 . S
C1461 C1460 1.287 . S
C1461 C1462 1.524 . S
C1461 H1464 0.999 . S
C1462 H1432 0.950 . S
C1462 C1461 1.524 . S
C1462 C1463 1.415 . S
C1463 H1433 0.950 . S
C1463 C1458 1.363 . S
C1463 C1462 1.415 . S
H1464 C1461 0.999 . S
H1465 C1446 0.913 . S
H1466 C1484 0.951 . S
H1467 C1486 0.951 . S
H1468 C1488 0.950 . S
H1469 C1489 0.940 1_565 S
H1470 C1491 0.950 . S
H1471 C1494 0.950 1_565 S
H1472 C1495 0.950 . S
H1473 C1497 0.950 . S
H1474 C1498 0.950 . S
H1475 C1499 0.951 . S
H1476 C1501 0.951 . S
H1477 C1503 0.950 . S
H1478 C1504 0.950 . S
H1479 C1506 0.950 . S
H1480 C1509 0.950 . S
H1481 C1510 0.950 . S
H1482 C1512 0.950 . S
H1483 C1513 0.950 . S
C1484 H1466 0.951 . S
C1484 C1485 1.366 . S
C1484 C1486 1.388 . S
C1485 C1484 1.366 . S
C1485 C1489 1.385 . S
C1486 H1467 0.951 . S
C1486 C1484 1.388 . S
C1486 C1487 1.366 1_545 S
C1487 C1486 1.366 1_565 S
C1487 C1488 1.414 . S
C1487 C1490 1.499 . S
C1488 H1468 0.950 . S
C1488 C1487 1.414 . S
C1488 C1489 1.374 1_565 S
C1489 H1469 0.940 1_545 S
C1489 C1485 1.385 . S
C1489 C1488 1.374 1_545 S
C1490 C1487 1.499 . S
C1490 C1491 1.373 . S
C1490 C1492 1.389 . S
C1491 H1470 0.950 . S
C1491 C1490 1.373 . S
C1491 C1507 1.377 . S
C1492 C1490 1.389 . S
C1492 C1493 1.517 1_565 S
C1492 C1506 1.377 . S
C1493 C1492 1.517 1_545 S
C1493 C1494 1.398 . S
C1493 C1498 1.368 . S
C1494 H1471 0.950 1_545 S
C1494 C1493 1.398 . S
C1494 C1495 1.334 . S
C1495 H1472 0.950 . S
C1495 C1494 1.334 . S
C1495 C1496 1.287 . S
C1496 C1495 1.287 . S
C1496 C1497 1.524 . S
C1496 H1515 0.913 . S
C1497 H1473 0.950 . S
C1497 C1496 1.524 . S
C1497 C1498 1.415 . S
C1498 H1474 0.950 . S
C1498 C1493 1.368 . S
C1498 C1497 1.415 . S
C1499 H1475 0.951 . S
C1499 C1500 1.366 . S
C1499 C1501 1.388 . S
C1500 C1499 1.366 . S
C1500 C1504 1.385 . S
C1501 H1476 0.951 . S
C1501 C1499 1.388 . S
C1501 C1502 1.366 . S
C1502 C1501 1.366 . S
C1502 C1503 1.414 . S
C1502 C1505 1.499 . S
C1503 H1477 0.950 . S
C1503 C1502 1.414 . S
C1503 C1504 1.374 . S
C1504 H1478 0.950 . S
C1504 C1500 1.385 . S
C1504 C1503 1.374 . S
C1505 C1502 1.499 . S
C1505 C1506 1.373 . S
C1505 C1507 1.389 . S
C1506 H1479 0.950 . S
C1506 C1492 1.377 . S
C1506 C1505 1.373 . S
C1507 C1491 1.377 . S
C1507 C1505 1.389 . S
C1507 C1508 1.524 . S
C1508 C1507 1.524 . S
C1508 C1509 1.397 . S
C1508 C1513 1.363 . S
C1509 H1480 0.950 . S
C1509 C1508 1.397 . S
C1509 C1510 1.334 . S
C1510 H1481 0.950 . S
C1510 C1509 1.334 . S
C1510 C1511 1.287 . S
C1511 C1510 1.287 . S
C1511 C1512 1.524 . S
C1511 H1514 0.999 . S
C1512 H1482 0.950 . S
C1512 C1511 1.524 . S
C1512 C1513 1.415 . S
C1513 H1483 0.950 . S
C1513 C1508 1.363 . S
C1513 C1512 1.415 . S
H1514 C1511 0.999 . S
H1515 C1496 0.913 . S
H1516 C1534 0.951 . S
H1517 C1536 0.951 . S
H1518 C1538 0.950 . S
H1519 C1539 0.950 . S
H1520 C1541 0.950 . S
H1521 C1544 0.950 . S
H1522 C1545 0.950 . S
H1523 C1547 0.950 . S
H1524 C1548 0.950 . S
H1525 C1549 0.951 . S
H1526 C1551 0.951 . S
H1527 C1553 0.950 . S
H1528 C1554 0.950 . S
H1529 C1556 0.950 . S
H1530 C1559 0.950 . S
H1531 C1560 0.950 . S
H1532 C1562 0.950 . S
H1533 C1563 0.950 . S
C1534 H1516 0.951 . S
C1534 C1535 1.366 . S
C1534 C1536 1.388 . S
C1535 C1534 1.366 . S
C1535 C1539 1.385 . S
C1536 H1517 0.951 . S
C1536 C1534 1.388 . S
C1536 C1537 1.366 . S
C1537 C1536 1.366 . S
C1537 C1538 1.414 . S
C1537 C1540 1.499 . S
C1538 H1518 0.950 . S
C1538 C1537 1.414 . S
C1538 C1539 1.374 . S
C1539 H1519 0.950 . S
C1539 C1535 1.385 . S
C1539 C1538 1.374 . S
C1540 C1537 1.499 . S
C1540 C1541 1.373 . S
C1540 C1542 1.389 . S
C1541 H1520 0.950 . S
C1541 C1540 1.373 . S
C1541 C1557 1.377 . S
C1542 C1540 1.389 . S
C1542 C1543 1.524 . S
C1542 C1556 1.377 . S
C1543 C1542 1.524 . S
C1543 C1544 1.397 . S
C1543 C1548 1.363 . S
C1544 H1521 0.950 . S
C1544 C1543 1.397 . S
C1544 C1545 1.334 . S
C1545 H1522 0.950 . S
C1545 C1544 1.334 . S
C1545 C1546 1.287 . S
C1546 C1545 1.287 . S
C1546 C1547 1.524 . S
C1546 H1565 0.913 . S
C1547 H1523 0.950 . S
C1547 C1546 1.524 . S
C1547 C1548 1.415 . S
C1548 H1524 0.950 . S
C1548 C1543 1.363 . S
C1548 C1547 1.415 . S
C1549 H1525 0.951 . S
C1549 C1550 1.366 . S
C1549 C1551 1.388 . S
C1550 C1549 1.366 . S
C1550 C1554 1.385 . S
C1551 H1526 0.951 . S
C1551 C1549 1.388 . S
C1551 C1552 1.366 1_545 S
C1552 C1551 1.366 1_565 S
C1552 C1553 1.414 . S
C1552 C1555 1.499 . S
C1553 H1527 0.950 . S
C1553 C1552 1.414 . S
C1553 C1554 1.374 1_565 S
C1554 H1528 0.950 . S
C1554 C1550 1.385 . S
C1554 C1553 1.374 1_545 S
C1555 C1552 1.499 . S
C1555 C1556 1.373 . S
C1555 C1557 1.389 . S
C1556 H1529 0.950 . S
C1556 C1542 1.377 . S
C1556 C1555 1.373 . S
C1557 C1541 1.377 . S
C1557 C1555 1.389 . S
C1557 C1558 1.524 1_565 S
C1558 C1557 1.524 1_545 S
C1558 C1559 1.397 . S
C1558 C1563 1.363 . S
C1559 H1530 0.950 . S
C1559 C1558 1.397 . S
C1559 C1560 1.334 . S
C1560 H1531 0.950 . S
C1560 C1559 1.334 . S
C1560 C1561 1.287 . S
C1561 C1560 1.287 . S
C1561 C1562 1.524 . S
C1561 H1564 0.999 . S
C1562 H1532 0.950 . S
C1562 C1561 1.524 . S
C1562 C1563 1.415 . S
C1563 H1533 0.950 . S
C1563 C1558 1.363 . S
C1563 C1562 1.415 . S
H1564 C1561 0.999 . S
H1565 C1546 0.913 . S
H1566 C1584 0.951 . S
H1567 C1586 0.951 . S
H1568 C1588 0.950 . S
H1569 C1589 0.950 . S
H1570 C1591 0.950 . S
H1571 C1594 0.950 . S
H1572 C1595 0.950 . S
H1573 C1597 0.950 . S
H1574 C1598 0.950 . S
H1575 C1599 0.951 . S
H1576 C1601 0.951 . S
H1577 C1603 0.950 . S
H1578 C1604 0.950 . S
H1579 C1606 0.950 . S
H1580 C1609 0.950 . S
H1581 C1610 0.950 . S
H1582 C1612 0.950 . S
H1583 C1613 0.950 . S
C1584 H1566 0.951 . S
C1584 C1585 1.366 . S
C1584 C1586 1.388 . S
C1585 C1584 1.366 . S
C1585 C1589 1.385 . S
C1586 H1567 0.951 . S
C1586 C1584 1.388 . S
C1586 C1587 1.366 . S
C1587 C1586 1.366 . S
C1587 C1588 1.414 . S
C1587 C1590 1.499 . S
C1588 H1568 0.950 . S
C1588 C1587 1.414 . S
C1588 C1589 1.374 . S
C1589 H1569 0.950 . S
C1589 C1585 1.385 . S
C1589 C1588 1.374 . S
C1590 C1587 1.499 . S
C1590 C1591 1.373 . S
C1590 C1592 1.389 . S
C1591 H1570 0.950 . S
C1591 C1590 1.373 . S
C1591 C1607 1.377 . S
C1592 C1590 1.389 . S
C1592 C1593 1.524 . S
C1592 C1606 1.377 . S
C1593 C1592 1.524 . S
C1593 C1594 1.397 . S
C1593 C1598 1.363 . S
C1594 H1571 0.950 . S
C1594 C1593 1.397 . S
C1594 C1595 1.334 . S
C1595 H1572 0.950 . S
C1595 C1594 1.334 . S
C1595 C1596 1.287 . S
C1596 C1595 1.287 . S
C1596 C1597 1.524 . S
C1596 H1615 0.913 . S
C1597 H1573 0.950 . S
C1597 C1596 1.524 . S
C1597 C1598 1.415 . S
C1598 H1574 0.950 . S
C1598 C1593 1.363 . S
C1598 C1597 1.415 . S
C1599 H1575 0.951 . S
C1599 C1600 1.366 . S
C1599 C1601 1.388 1_565 S
C1600 C1599 1.366 . S
C1600 C1604 1.385 . S
C1601 H1576 0.951 . S
C1601 C1599 1.388 1_545 S
C1601 C1602 1.366 . S
C1602 C1601 1.366 . S
C1602 C1603 1.414 1_545 S
C1602 C1605 1.499 . S
C1603 H1577 0.950 . S
C1603 C1602 1.414 1_565 S
C1603 C1604 1.374 . S
C1604 H1578 0.950 . S
C1604 C1600 1.385 . S
C1604 C1603 1.374 . S
C1605 C1602 1.499 . S
C1605 C1606 1.373 . S
C1605 C1607 1.389 . S
C1606 H1579 0.950 . S
C1606 C1592 1.377 . S
C1606 C1605 1.373 . S
C1607 C1591 1.377 . S
C1607 C1605 1.389 . S
C1607 C1608 1.524 . S
C1608 C1607 1.524 . S
C1608 C1609 1.397 1_545 S
C1608 C1613 1.363 . S
C1609 H1580 0.950 . S
C1609 C1608 1.397 1_565 S
C1609 C1610 1.334 . S
C1610 H1581 0.950 . S
C1610 C1609 1.334 . S
C1610 C1611 1.287 . S
C1611 C1610 1.287 . S
C1611 C1612 1.524 1_565 S
C1611 H1614 0.999 . S
C1612 H1582 0.950 . S
C1612 C1611 1.524 1_545 S
C1612 C1613 1.415 . S
C1613 H1583 0.950 . S
C1613 C1608 1.363 . S
C1613 C1612 1.415 . S
H1614 C1611 0.999 . S
H1615 C1596 0.913 . S
H1616 C1634 0.951 . S
H1617 C1636 0.951 . S
H1618 C1638 0.950 . S
H1619 C1639 0.950 . S
H1620 C1641 0.950 . S
H1621 C1644 0.950 . S
H1622 C1645 0.950 . S
H1623 C1647 0.950 . S
H1624 C1648 0.950 . S
H1625 C1649 0.951 . S
H1626 C1651 0.951 . S
H1627 C1653 0.950 . S
H1628 C1654 0.950 . S
H1629 C1656 0.950 . S
H1630 C1659 0.950 . S
H1631 C1660 0.950 . S
H1632 C1662 0.950 . S
H1633 C1663 0.950 . S
C1634 H1616 0.951 . S
C1634 C1635 1.366 . S
C1634 C1636 1.388 . S
C1635 C1634 1.366 . S
C1635 C1639 1.385 . S
C1636 H1617 0.951 . S
C1636 C1634 1.388 . S
C1636 C1637 1.366 . S
C1637 C1636 1.366 . S
C1637 C1638 1.414 . S
C1637 C1640 1.499 . S
C1638 H1618 0.950 . S
C1638 C1637 1.414 . S
C1638 C1639 1.374 . S
C1639 H1619 0.950 . S
C1639 C1635 1.385 . S
C1639 C1638 1.374 . S
C1640 C1637 1.499 . S
C1640 C1641 1.373 . S
C1640 C1642 1.389 . S
C1641 H1620 0.950 . S
C1641 C1640 1.373 . S
C1641 C1657 1.377 . S
C1642 C1640 1.389 . S
C1642 C1643 1.524 . S
C1642 C1656 1.377 . S
C1643 C1642 1.524 . S
C1643 C1644 1.397 . S
C1643 C1648 1.363 . S
C1644 H1621 0.950 . S
C1644 C1643 1.397 . S
C1644 C1645 1.334 . S
C1645 H1622 0.950 . S
C1645 C1644 1.334 . S
C1645 C1646 1.287 . S
C1646 C1645 1.287 . S
C1646 C1647 1.524 . S
C1646 H1665 0.913 . S
C1647 H1623 0.950 . S
C1647 C1646 1.524 . S
C1647 C1648 1.415 . S
C1648 H1624 0.950 . S
C1648 C1643 1.363 . S
C1648 C1647 1.415 . S
C1649 H1625 0.951 . S
C1649 C1650 1.366 . S
C1649 C1651 1.388 . S
C1650 C1649 1.366 . S
C1650 C1654 1.385 . S
C1651 H1626 0.951 . S
C1651 C1649 1.388 . S
C1651 C1652 1.366 . S
C1652 C1651 1.366 . S
C1652 C1653 1.414 . S
C1652 C1655 1.499 . S
C1653 H1627 0.950 . S
C1653 C1652 1.414 . S
C1653 C1654 1.374 . S
C1654 H1628 0.950 . S
C1654 C1650 1.385 . S
C1654 C1653 1.374 . S
C1655 C1652 1.499 . S
C1655 C1656 1.373 . S
C1655 C1657 1.389 . S
C1656 H1629 0.950 . S
C1656 C1642 1.377 . S
C1656 C1655 1.373 . S
C1657 C1641 1.377 . S
C1657 C1655 1.389 . S
C1657 C1658 1.524 . S
C1658 C1657 1.524 . S
C1658 C1659 1.397 . S
C1658 C1663 1.363 . S
C1659 H1630 0.950 . S
C1659 C1658 1.397 . S
C1659 C1660 1.334 . S
C1660 H1631 0.950 . S
C1660 C1659 1.334 . S
C1660 C1661 1.287 . S
C1661 C1660 1.287 . S
C1661 C1662 1.524 . S
C1661 H1664 0.999 . S
C1662 H1632 0.950 . S
C1662 C1661 1.524 . S
C1662 C1663 1.415 . S
C1663 H1633 0.950 . S
C1663 C1658 1.363 . S
C1663 C1662 1.415 . S
H1664 C1661 0.999 . S
H1665 C1646 0.913 . S
H1666 C1684 0.951 . S
H1667 C1686 0.951 . S
H1668 C1688 0.950 . S
H1669 C1689 0.950 . S
H1670 C1691 0.950 . S
H1671 C1694 0.950 . S
H1672 C1695 0.950 . S
H1673 C1697 0.950 . S
H1674 C1698 0.950 . S
H1675 C1699 0.951 . S
H1676 C1701 0.951 . S
H1677 C1703 0.950 . S
H1678 C1704 0.950 . S
H1679 C1706 0.950 . S
H1680 C1709 0.950 . S
H1681 C1710 0.950 . S
H1682 C1712 0.950 . S
H1683 C1713 0.950 . S
C1684 H1666 0.951 . S
C1684 C1685 1.366 . S
C1684 C1686 1.388 . S
C1685 C1684 1.366 . S
C1685 C1689 1.385 . S
C1686 H1667 0.951 . S
C1686 C1684 1.388 . S
C1686 C1687 1.366 . S
C1687 C1686 1.366 . S
C1687 C1688 1.414 . S
C1687 C1690 1.499 . S
C1688 H1668 0.950 . S
C1688 C1687 1.414 . S
C1688 C1689 1.374 . S
C1689 H1669 0.950 . S
C1689 C1685 1.385 . S
C1689 C1688 1.374 . S
C1690 C1687 1.499 . S
C1690 C1691 1.373 . S
C1690 C1692 1.389 . S
C1691 H1670 0.950 . S
C1691 C1690 1.373 . S
C1691 C1707 1.377 . S
C1692 C1690 1.389 . S
C1692 C1693 1.524 . S
C1692 C1706 1.377 . S
C1693 C1692 1.524 . S
C1693 C1694 1.397 . S
C1693 C1698 1.363 . S
C1694 H1671 0.950 . S
C1694 C1693 1.397 . S
C1694 C1695 1.334 . S
C1695 H1672 0.950 . S
C1695 C1694 1.334 . S
C1695 C1696 1.287 . S
C1696 C1695 1.287 . S
C1696 C1697 1.524 . S
C1696 H1715 0.913 . S
C1697 H1673 0.950 . S
C1697 C1696 1.524 . S
C1697 C1698 1.415 . S
C1698 H1674 0.950 . S
C1698 C1693 1.363 . S
C1698 C1697 1.415 . S
C1699 H1675 0.951 . S
C1699 C1700 1.366 . S
C1699 C1701 1.388 . S
C1700 C1699 1.366 . S
C1700 C1704 1.385 . S
C1701 H1676 0.951 . S
C1701 C1699 1.388 . S
C1701 C1702 1.366 . S
C1702 C1701 1.366 . S
C1702 C1703 1.414 . S
C1702 C1705 1.499 . S
C1703 H1677 0.950 . S
C1703 C1702 1.414 . S
C1703 C1704 1.374 . S
C1704 H1678 0.950 . S
C1704 C1700 1.385 . S
C1704 C1703 1.374 . S
C1705 C1702 1.499 . S
C1705 C1706 1.373 . S
C1705 C1707 1.389 . S
C1706 H1679 0.950 . S
C1706 C1692 1.377 . S
C1706 C1705 1.373 . S
C1707 C1691 1.377 . S
C1707 C1705 1.389 . S
C1707 C1708 1.524 . S
C1708 C1707 1.524 . S
C1708 C1709 1.397 . S
C1708 C1713 1.363 . S
C1709 H1680 0.950 . S
C1709 C1708 1.397 . S
C1709 C1710 1.334 . S
C1710 H1681 0.950 . S
C1710 C1709 1.334 . S
C1710 C1711 1.287 . S
C1711 C1710 1.287 . S
C1711 C1712 1.524 . S
C1711 H1714 0.999 . S
C1712 H1682 0.950 . S
C1712 C1711 1.524 . S
C1712 C1713 1.415 . S
C1713 H1683 0.950 . S
C1713 C1708 1.363 . S
C1713 C1712 1.415 . S
H1714 C1711 0.999 . S
H1715 C1696 0.913 . S
H1716 C1734 0.951 . S
H1717 C1736 0.951 . S
H1718 C1738 0.950 . S
H1719 C1739 0.950 . S
H1720 C1741 0.950 . S
H1721 C1744 0.950 . S
H1722 C1745 0.950 . S
H1723 C1747 0.950 . S
H1724 C1748 0.950 . S
H1725 C1749 0.951 . S
H1726 C1751 0.951 . S
H1727 C1753 0.950 . S
H1728 C1754 0.950 . S
H1729 C1756 0.950 . S
H1730 C1759 0.950 . S
H1731 C1760 0.950 . S
H1732 C1762 0.950 . S
H1733 C1763 0.950 . S
C1734 H1716 0.951 . S
C1734 C1735 1.366 . S
C1734 C1736 1.388 . S
C1735 C1734 1.366 . S
C1735 C1739 1.385 . S
C1736 H1717 0.951 . S
C1736 C1734 1.388 . S
C1736 C1737 1.366 . S
C1737 C1736 1.366 . S
C1737 C1738 1.414 . S
C1737 C1740 1.499 . S
C1738 H1718 0.950 . S
C1738 C1737 1.414 . S
C1738 C1739 1.374 . S
C1739 H1719 0.950 . S
C1739 C1735 1.385 . S
C1739 C1738 1.374 . S
C1740 C1737 1.499 . S
C1740 C1741 1.373 . S
C1740 C1742 1.389 . S
C1741 H1720 0.950 . S
C1741 C1740 1.373 . S
C1741 C1757 1.377 . S
C1742 C1740 1.389 . S
C1742 C1743 1.524 . S
C1742 C1756 1.377 . S
C1743 C1742 1.524 . S
C1743 C1744 1.397 . S
C1743 C1748 1.363 . S
C1744 H1721 0.950 . S
C1744 C1743 1.397 . S
C1744 C1745 1.334 . S
C1745 H1722 0.950 . S
C1745 C1744 1.334 . S
C1745 C1746 1.287 . S
C1746 C1745 1.287 . S
C1746 C1747 1.524 . S
C1746 H1765 0.913 . S
C1747 H1723 0.950 . S
C1747 C1746 1.524 . S
C1747 C1748 1.415 . S
C1748 H1724 0.950 . S
C1748 C1743 1.363 . S
C1748 C1747 1.415 . S
C1749 H1725 0.951 . S
C1749 C1750 1.366 . S
C1749 C1751 1.388 . S
C1750 C1749 1.366 . S
C1750 C1754 1.385 . S
C1751 H1726 0.951 . S
C1751 C1749 1.388 . S
C1751 C1752 1.366 . S
C1752 C1751 1.366 . S
C1752 C1753 1.414 . S
C1752 C1755 1.499 . S
C1753 H1727 0.950 . S
C1753 C1752 1.414 . S
C1753 C1754 1.374 . S
C1754 H1728 0.950 . S
C1754 C1750 1.385 . S
C1754 C1753 1.374 . S
C1755 C1752 1.499 . S
C1755 C1756 1.373 . S
C1755 C1757 1.389 . S
C1756 H1729 0.950 . S
C1756 C1742 1.377 . S
C1756 C1755 1.373 . S
C1757 C1741 1.377 . S
C1757 C1755 1.389 . S
C1757 C1758 1.524 . S
C1758 C1757 1.524 . S
C1758 C1759 1.397 . S
C1758 C1763 1.363 . S
C1759 H1730 0.950 . S
C1759 C1758 1.397 . S
C1759 C1760 1.334 . S
C1760 H1731 0.950 . S
C1760 C1759 1.334 . S
C1760 C1761 1.287 . S
C1761 C1760 1.287 . S
C1761 C1762 1.524 . S
C1761 H1764 0.999 . S
C1762 H1732 0.950 . S
C1762 C1761 1.524 . S
C1762 C1763 1.415 . S
C1763 H1733 0.950 . S
C1763 C1758 1.363 . S
C1763 C1762 1.415 . S
H1764 C1761 0.999 . S
H1765 C1746 0.913 . S
H1766 C1784 0.951 . S
H1767 C1786 0.951 . S
H1768 C1788 0.950 . S
H1769 C1789 0.950 . S
H1770 C1791 0.950 . S
H1771 C1794 0.950 . S
H1772 C1795 0.950 . S
H1773 C1797 0.950 . S
H1774 C1798 0.950 . S
H1775 C1799 0.951 . S
H1776 C1801 0.951 . S
H1777 C1803 0.950 . S
H1778 C1804 0.950 . S
H1779 C1806 0.950 . S
H1780 C1809 0.950 . S
H1781 C1810 0.950 . S
H1782 C1812 0.950 . S
H1783 C1813 0.950 . S
C1784 H1766 0.951 . S
C1784 C1785 1.366 . S
C1784 C1786 1.388 . S
C1785 C1784 1.366 . S
C1785 C1789 1.385 . S
C1786 H1767 0.951 . S
C1786 C1784 1.388 . S
C1786 C1787 1.366 . S
C1787 C1786 1.366 . S
C1787 C1788 1.414 . S
C1787 C1790 1.499 . S
C1788 H1768 0.950 . S
C1788 C1787 1.414 . S
C1788 C1789 1.374 . S
C1789 H1769 0.950 . S
C1789 C1785 1.385 . S
C1789 C1788 1.374 . S
C1790 C1787 1.499 . S
C1790 C1791 1.373 . S
C1790 C1792 1.389 . S
C1791 H1770 0.950 . S
C1791 C1790 1.373 . S
C1791 C1807 1.377 . S
C1792 C1790 1.389 . S
C1792 C1793 1.524 . S
C1792 C1806 1.377 . S
C1793 C1792 1.524 . S
C1793 C1794 1.397 . S
C1793 C1798 1.363 . S
C1794 H1771 0.950 . S
C1794 C1793 1.397 . S
C1794 C1795 1.334 . S
C1795 H1772 0.950 . S
C1795 C1794 1.334 . S
C1795 C1796 1.287 . S
C1796 C1795 1.287 . S
C1796 C1797 1.524 . S
C1796 H1815 0.913 . S
C1797 H1773 0.950 . S
C1797 C1796 1.524 . S
C1797 C1798 1.415 . S
C1798 H1774 0.950 . S
C1798 C1793 1.363 . S
C1798 C1797 1.415 . S
C1799 H1775 0.951 . S
C1799 C1800 1.366 . S
C1799 C1801 1.388 . S
C1800 C1799 1.366 . S
C1800 C1804 1.385 . S
C1801 H1776 0.951 . S
C1801 C1799 1.388 . S
C1801 C1802 1.366 . S
C1802 C1801 1.366 . S
C1802 C1803 1.414 . S
C1802 C1805 1.499 . S
C1803 H1777 0.950 . S
C1803 C1802 1.414 . S
C1803 C1804 1.374 . S
C1804 H1778 0.950 . S
C1804 C1800 1.385 . S
C1804 C1803 1.374 . S
C1805 C1802 1.499 . S
C1805 C1806 1.373 . S
C1805 C1807 1.389 . S
C1806 H1779 0.950 . S
C1806 C1792 1.377 . S
C1806 C1805 1.373 . S
C1807 C1791 1.377 . S
C1807 C1805 1.389 . S
C1807 C1808 1.524 . S
C1808 C1807 1.524 . S
C1808 C1809 1.397 . S
C1808 C1813 1.363 . S
C1809 H1780 0.950 . S
C1809 C1808 1.397 . S
C1809 C1810 1.334 . S
C1810 H1781 0.950 . S
C1810 C1809 1.334 . S
C1810 C1811 1.287 . S
C1811 C1810 1.287 . S
C1811 C1812 1.524 . S
C1811 H1814 0.999 . S
C1812 H1782 0.950 . S
C1812 C1811 1.524 . S
C1812 C1813 1.415 . S
C1813 H1783 0.950 . S
C1813 C1808 1.363 . S
C1813 C1812 1.415 . S
H1814 C1811 0.999 . S
H1815 C1796 0.913 . S
H1816 C1834 0.951 . S
H1817 C1836 0.951 . S
H1818 C1838 0.950 . S
H1819 C1839 0.950 . S
H1820 C1841 0.950 . S
H1821 C1844 0.950 . S
H1822 C1845 0.950 . S
H1823 C1847 0.950 . S
H1824 C1848 0.950 . S
H1825 C1849 0.951 . S
H1826 C1851 0.951 . S
H1827 C1853 0.950 . S
H1828 C1854 0.950 . S
H1829 C1856 0.950 . S
H1830 C1859 0.950 . S
H1831 C1860 0.950 . S
H1832 C1862 0.950 . S
H1833 C1863 0.950 . S
C1834 H1816 0.951 . S
C1834 C1835 1.366 . S
C1834 C1836 1.388 . S
C1835 C1834 1.366 . S
C1835 C1839 1.385 . S
C1836 H1817 0.951 . S
C1836 C1834 1.388 . S
C1836 C1837 1.366 . S
C1837 C1836 1.366 . S
C1837 C1838 1.414 . S
C1837 C1840 1.499 . S
C1838 H1818 0.950 . S
C1838 C1837 1.414 . S
C1838 C1839 1.374 . S
C1839 H1819 0.950 . S
C1839 C1835 1.385 . S
C1839 C1838 1.374 . S
C1840 C1837 1.499 . S
C1840 C1841 1.373 . S
C1840 C1842 1.389 . S
C1841 H1820 0.950 . S
C1841 C1840 1.373 . S
C1841 C1857 1.377 . S
C1842 C1840 1.389 . S
C1842 C1843 1.524 . S
C1842 C1856 1.377 . S
C1843 C1842 1.524 . S
C1843 C1844 1.397 . S
C1843 C1848 1.363 . S
C1844 H1821 0.950 . S
C1844 C1843 1.397 . S
C1844 C1845 1.334 . S
C1845 H1822 0.950 . S
C1845 C1844 1.334 . S
C1845 C1846 1.287 . S
C1846 C1845 1.287 . S
C1846 C1847 1.524 . S
C1846 H1865 0.913 . S
C1847 H1823 0.950 . S
C1847 C1846 1.524 . S
C1847 C1848 1.415 . S
C1848 H1824 0.950 . S
C1848 C1843 1.363 . S
C1848 C1847 1.415 . S
C1849 H1825 0.951 . S
C1849 C1850 1.366 . S
C1849 C1851 1.388 . S
C1850 C1849 1.366 . S
C1850 C1854 1.385 . S
C1851 H1826 0.951 . S
C1851 C1849 1.388 . S
C1851 C1852 1.366 . S
C1852 C1851 1.366 . S
C1852 C1853 1.414 . S
C1852 C1855 1.499 . S
C1853 H1827 0.950 . S
C1853 C1852 1.414 . S
C1853 C1854 1.374 . S
C1854 H1828 0.950 . S
C1854 C1850 1.385 . S
C1854 C1853 1.374 . S
C1855 C1852 1.499 . S
C1855 C1856 1.373 . S
C1855 C1857 1.389 . S
C1856 H1829 0.950 . S
C1856 C1842 1.377 . S
C1856 C1855 1.373 . S
C1857 C1841 1.377 . S
C1857 C1855 1.389 . S
C1857 C1858 1.524 . S
C1858 C1857 1.524 . S
C1858 C1859 1.397 . S
C1858 C1863 1.363 . S
C1859 H1830 0.950 . S
C1859 C1858 1.397 . S
C1859 C1860 1.334 . S
C1860 H1831 0.950 . S
C1860 C1859 1.334 . S
C1860 C1861 1.287 . S
C1861 C1860 1.287 . S
C1861 C1862 1.524 . S
C1861 H1864 0.999 . S
C1862 H1832 0.950 . S
C1862 C1861 1.524 . S
C1862 C1863 1.415 . S
C1863 H1833 0.950 . S
C1863 C1858 1.363 . S
C1863 C1862 1.415 . S
H1864 C1861 0.999 . S
H1865 C1846 0.913 . S
H1866 C1884 0.951 . S
H1867 C1886 0.951 . S
H1868 C1888 0.950 . S
H1869 C1889 0.950 . S
H1870 C1891 0.950 . S
H1871 C1894 0.950 . S
H1872 C1895 0.950 . S
H1873 C1897 0.950 . S
H1874 C1898 0.950 . S
H1875 C1899 0.951 . S
H1876 C1901 0.951 . S
H1877 C1903 0.950 . S
H1878 C1904 0.950 . S
H1879 C1906 0.950 . S
H1880 C1909 0.950 . S
H1881 C1910 0.950 . S
H1882 C1912 0.950 . S
H1883 C1913 0.950 . S
C1884 H1866 0.951 . S
C1884 C1885 1.366 . S
C1884 C1886 1.388 . S
C1885 C1884 1.366 . S
C1885 C1889 1.385 . S
C1886 H1867 0.951 . S
C1886 C1884 1.388 . S
C1886 C1887 1.366 . S
C1887 C1886 1.366 . S
C1887 C1888 1.414 . S
C1887 C1890 1.499 . S
C1888 H1868 0.950 . S
C1888 C1887 1.414 . S
C1888 C1889 1.374 . S
C1889 H1869 0.950 . S
C1889 C1885 1.385 . S
C1889 C1888 1.374 . S
C1890 C1887 1.499 . S
C1890 C1891 1.373 . S
C1890 C1892 1.389 . S
C1891 H1870 0.950 . S
C1891 C1890 1.373 . S
C1891 C1907 1.377 . S
C1892 C1890 1.389 . S
C1892 C1893 1.524 . S
C1892 C1906 1.377 . S
C1893 C1892 1.524 . S
C1893 C1894 1.397 . S
C1893 C1898 1.363 . S
C1894 H1871 0.950 . S
C1894 C1893 1.397 . S
C1894 C1895 1.334 . S
C1895 H1872 0.950 . S
C1895 C1894 1.334 . S
C1895 C1896 1.287 . S
C1896 C1895 1.287 . S
C1896 C1897 1.524 . S
C1896 H1915 0.913 . S
C1897 H1873 0.950 . S
C1897 C1896 1.524 . S
C1897 C1898 1.415 . S
C1898 H1874 0.950 . S
C1898 C1893 1.363 . S
C1898 C1897 1.415 . S
C1899 H1875 0.951 . S
C1899 C1900 1.366 . S
C1899 C1901 1.388 . S
C1900 C1899 1.366 . S
C1900 C1904 1.385 . S
C1901 H1876 0.951 . S
C1901 C1899 1.388 . S
C1901 C1902 1.366 . S
C1902 C1901 1.366 . S
C1902 C1903 1.414 . S
C1902 C1905 1.499 . S
C1903 H1877 0.950 . S
C1903 C1902 1.414 . S
C1903 C1904 1.374 . S
C1904 H1878 0.950 . S
C1904 C1900 1.385 . S
C1904 C1903 1.374 . S
C1905 C1902 1.499 . S
C1905 C1906 1.373 . S
C1905 C1907 1.389 . S
C1906 H1879 0.950 . S
C1906 C1892 1.377 . S
C1906 C1905 1.373 . S
C1907 C1891 1.377 . S
C1907 C1905 1.389 . S
C1907 C1908 1.524 . S
C1908 C1907 1.524 . S
C1908 C1909 1.397 . S
C1908 C1913 1.363 . S
C1909 H1880 0.950 . S
C1909 C1908 1.397 . S
C1909 C1910 1.334 . S
C1910 H1881 0.950 . S
C1910 C1909 1.334 . S
C1910 C1911 1.287 . S
C1911 C1910 1.287 . S
C1911 C1912 1.524 . S
C1911 H1914 0.999 . S
C1912 H1882 0.950 . S
C1912 C1911 1.524 . S
C1912 C1913 1.415 . S
C1913 H1883 0.950 . S
C1913 C1908 1.363 . S
C1913 C1912 1.415 . S
H1914 C1911 0.999 . S
H1915 C1896 0.913 . S
H1916 C1934 0.951 . S
H1917 C1936 0.951 . S
H1918 C1938 0.950 . S
H1919 C1939 0.950 . S
H1920 C1941 0.950 . S
H1921 C1944 0.950 . S
H1922 C1945 0.950 . S
H1923 C1947 0.950 . S
H1924 C1948 0.950 . S
H1925 C1949 0.951 . S
H1926 C1951 0.951 . S
H1927 C1953 0.950 . S
H1928 C1954 0.950 . S
H1929 C1956 0.950 . S
H1930 C1959 0.950 . S
H1931 C1960 0.950 . S
H1932 C1962 0.950 . S
H1933 C1963 0.950 . S
C1934 H1916 0.951 . S
C1934 C1935 1.366 . S
C1934 C1936 1.388 . S
C1935 C1934 1.366 . S
C1935 C1939 1.385 . S
C1936 H1917 0.951 . S
C1936 C1934 1.388 . S
C1936 C1937 1.366 . S
C1937 C1936 1.366 . S
C1937 C1938 1.414 . S
C1937 C1940 1.499 . S
C1938 H1918 0.950 . S
C1938 C1937 1.414 . S
C1938 C1939 1.374 . S
C1939 H1919 0.950 . S
C1939 C1935 1.385 . S
C1939 C1938 1.374 . S
C1940 C1937 1.499 . S
C1940 C1941 1.373 . S
C1940 C1942 1.389 . S
C1941 H1920 0.950 . S
C1941 C1940 1.373 . S
C1941 C1957 1.377 . S
C1942 C1940 1.389 . S
C1942 C1943 1.524 . S
C1942 C1956 1.377 . S
C1943 C1942 1.524 . S
C1943 C1944 1.397 . S
C1943 C1948 1.363 . S
C1944 H1921 0.950 . S
C1944 C1943 1.397 . S
C1944 C1945 1.334 . S
C1945 H1922 0.950 . S
C1945 C1944 1.334 . S
C1945 C1946 1.287 . S
C1946 C1945 1.287 . S
C1946 C1947 1.524 . S
C1946 H1965 0.913 . S
C1947 H1923 0.950 . S
C1947 C1946 1.524 . S
C1947 C1948 1.415 . S
C1948 H1924 0.950 . S
C1948 C1943 1.363 . S
C1948 C1947 1.415 . S
C1949 H1925 0.951 . S
C1949 C1950 1.366 . S
C1949 C1951 1.388 . S
C1950 C1949 1.366 . S
C1950 C1954 1.385 . S
C1951 H1926 0.951 . S
C1951 C1949 1.388 . S
C1951 C1952 1.366 . S
C1952 C1951 1.366 . S
C1952 C1953 1.414 . S
C1952 C1955 1.499 . S
C1953 H1927 0.950 . S
C1953 C1952 1.414 . S
C1953 C1954 1.374 . S
C1954 H1928 0.950 . S
C1954 C1950 1.385 . S
C1954 C1953 1.374 . S
C1955 C1952 1.499 . S
C1955 C1956 1.373 . S
C1955 C1957 1.389 . S
C1956 H1929 0.950 . S
C1956 C1942 1.377 . S
C1956 C1955 1.373 . S
C1957 C1941 1.377 . S
C1957 C1955 1.389 . S
C1957 C1958 1.524 . S
C1958 C1957 1.524 . S
C1958 C1959 1.397 . S
C1958 C1963 1.363 . S
C1959 H1930 0.950 . S
C1959 C1958 1.397 . S
C1959 C1960 1.334 . S
C1960 H1931 0.950 . S
C1960 C1959 1.334 . S
C1960 C1961 1.287 . S
C1961 C1960 1.287 . S
C1961 C1962 1.524 . S
C1961 H1964 0.999 . S
C1962 H1932 0.950 . S
C1962 C1961 1.524 . S
C1962 C1963 1.415 . S
C1963 H1933 0.950 . S
C1963 C1958 1.363 . S
C1963 C1962 1.415 . S
H1964 C1961 0.999 . S
H1965 C1946 0.913 . S
H1966 C1984 0.951 . S
H1967 C1986 0.951 . S
H1968 C1988 0.950 . S
H1969 C1989 0.950 . S
H1970 C1991 0.950 . S
H1971 C1994 0.950 . S
H1972 C1995 0.950 . S
H1973 C1997 0.950 . S
H1974 C1998 0.950 . S
H1975 C1999 0.951 . S
H1976 C2001 0.951 . S
H1977 C2003 0.950 . S
H1978 C2004 0.950 . S
H1979 C2006 0.950 . S
H1980 C2009 0.950 . S
H1981 C2010 0.950 . S
H1982 C2012 0.950 . S
H1983 C2013 0.950 . S
C1984 H1966 0.951 . S
C1984 C1985 1.366 . S
C1984 C1986 1.388 . S
C1985 C1984 1.366 . S
C1985 C1989 1.385 . S
C1986 H1967 0.951 . S
C1986 C1984 1.388 . S
C1986 C1987 1.366 . S
C1987 C1986 1.366 . S
C1987 C1988 1.414 . S
C1987 C1990 1.499 . S
C1988 H1968 0.950 . S
C1988 C1987 1.414 . S
C1988 C1989 1.374 . S
C1989 H1969 0.950 . S
C1989 C1985 1.385 . S
C1989 C1988 1.374 . S
C1990 C1987 1.499 . S
C1990 C1991 1.373 . S
C1990 C1992 1.389 . S
C1991 H1970 0.950 . S
C1991 C1990 1.373 . S
C1991 C2007 1.377 . S
C1992 C1990 1.389 . S
C1992 C1993 1.524 . S
C1992 C2006 1.377 . S
C1993 C1992 1.524 . S
C1993 C1994 1.397 . S
C1993 C1998 1.363 . S
C1994 H1971 0.950 . S
C1994 C1993 1.397 . S
C1994 C1995 1.334 . S
C1995 H1972 0.950 . S
C1995 C1994 1.334 . S
C1995 C1996 1.287 . S
C1996 C1995 1.287 . S
C1996 C1997 1.524 . S
C1996 H2015 0.913 . S
C1997 H1973 0.950 . S
C1997 C1996 1.524 . S
C1997 C1998 1.415 . S
C1998 H1974 0.950 . S
C1998 C1993 1.363 . S
C1998 C1997 1.415 . S
C1999 H1975 0.951 . S
C1999 C2000 1.366 . S
C1999 C2001 1.388 . S
C2000 C1999 1.366 . S
C2000 C2004 1.385 . S
C2001 H1976 0.951 . S
C2001 C1999 1.388 . S
C2001 C2002 1.366 . S
C2002 C2001 1.366 . S
C2002 C2003 1.414 . S
C2002 C2005 1.499 . S
C2003 H1977 0.950 . S
C2003 C2002 1.414 . S
C2003 C2004 1.374 . S
C2004 H1978 0.950 . S
C2004 C2000 1.385 . S
C2004 C2003 1.374 . S
C2005 C2002 1.499 . S
C2005 C2006 1.373 . S
C2005 C2007 1.389 . S
C2006 H1979 0.950 . S
C2006 C1992 1.377 . S
C2006 C2005 1.373 . S
C2007 C1991 1.377 . S
C2007 C2005 1.389 . S
C2007 C2008 1.524 . S
C2008 C2007 1.524 . S
C2008 C2009 1.397 . S
C2008 C2013 1.363 . S
C2009 H1980 0.950 . S
C2009 C2008 1.397 . S
C2009 C2010 1.334 . S
C2010 H1981 0.950 . S
C2010 C2009 1.334 . S
C2010 C2011 1.287 . S
C2011 C2010 1.287 . S
C2011 C2012 1.524 . S
C2011 H2014 0.999 . S
C2012 H1982 0.950 . S
C2012 C2011 1.524 . S
C2012 C2013 1.415 . S
C2013 H1983 0.950 . S
C2013 C2008 1.363 . S
C2013 C2012 1.415 . S
H2014 C2011 0.999 . S
H2015 C1996 0.913 . S
H2016 C2034 0.951 . S
H2017 C2036 0.951 . S
H2018 C2038 0.950 . S
H2019 C2039 0.950 . S
H2020 C2041 0.950 . S
H2021 C2044 0.950 . S
H2022 C2045 0.950 . S
H2023 C2047 0.950 . S
H2024 C2048 0.950 . S
H2025 C2049 0.951 . S
H2026 C2051 0.951 . S
H2027 C2053 0.950 . S
H2028 C2054 0.950 . S
H2029 C2056 0.950 . S
H2030 C2059 0.950 . S
H2031 C2060 0.950 . S
H2032 C2062 0.950 . S
H2033 C2063 0.950 . S
C2034 H2016 0.951 . S
C2034 C2035 1.366 . S
C2034 C2036 1.388 . S
C2035 C2034 1.366 . S
C2035 C2039 1.385 . S
C2036 H2017 0.951 . S
C2036 C2034 1.388 . S
C2036 C2037 1.366 . S
C2037 C2036 1.366 . S
C2037 C2038 1.414 . S
C2037 C2040 1.499 . S
C2038 H2018 0.950 . S
C2038 C2037 1.414 . S
C2038 C2039 1.374 . S
C2039 H2019 0.950 . S
C2039 C2035 1.385 . S
C2039 C2038 1.374 . S
C2040 C2037 1.499 . S
C2040 C2041 1.373 . S
C2040 C2042 1.389 . S
C2041 H2020 0.950 . S
C2041 C2040 1.373 . S
C2041 C2057 1.377 . S
C2042 C2040 1.389 . S
C2042 C2043 1.524 . S
C2042 C2056 1.377 . S
C2043 C2042 1.524 . S
C2043 C2044 1.397 . S
C2043 C2048 1.363 . S
C2044 H2021 0.950 . S
C2044 C2043 1.397 . S
C2044 C2045 1.334 . S
C2045 H2022 0.950 . S
C2045 C2044 1.334 . S
C2045 C2046 1.287 . S
C2046 C2045 1.287 . S
C2046 C2047 1.524 . S
C2046 H2065 0.913 . S
C2047 H2023 0.950 . S
C2047 C2046 1.524 . S
C2047 C2048 1.415 . S
C2048 H2024 0.950 . S
C2048 C2043 1.363 . S
C2048 C2047 1.415 . S
C2049 H2025 0.951 . S
C2049 C2050 1.366 . S
C2049 C2051 1.388 . S
C2050 C2049 1.366 . S
C2050 C2054 1.385 . S
C2051 H2026 0.951 . S
C2051 C2049 1.388 . S
C2051 C2052 1.366 . S
C2052 C2051 1.366 . S
C2052 C2053 1.414 . S
C2052 C2055 1.499 . S
C2053 H2027 0.950 . S
C2053 C2052 1.414 . S
C2053 C2054 1.374 . S
C2054 H2028 0.950 . S
C2054 C2050 1.385 . S
C2054 C2053 1.374 . S
C2055 C2052 1.499 . S
C2055 C2056 1.373 . S
C2055 C2057 1.389 . S
C2056 H2029 0.950 . S
C2056 C2042 1.377 . S
C2056 C2055 1.373 . S
C2057 C2041 1.377 . S
C2057 C2055 1.389 . S
C2057 C2058 1.524 . S
C2058 C2057 1.524 . S
C2058 C2059 1.397 . S
C2058 C2063 1.363 . S
C2059 H2030 0.950 . S
C2059 C2058 1.397 . S
C2059 C2060 1.334 . S
C2060 H2031 0.950 . S
C2060 C2059 1.334 . S
C2060 C2061 1.287 . S
C2061 C2060 1.287 . S
C2061 C2062 1.524 . S
C2061 H2064 0.999 . S
C2062 H2032 0.950 . S
C2062 C2061 1.524 . S
C2062 C2063 1.415 . S
C2063 H2033 0.950 . S
C2063 C2058 1.363 . S
C2063 C2062 1.415 . S
H2064 C2061 0.999 . S
H2065 C2046 0.913 . S
H2066 C2084 0.951 . S
H2067 C2086 0.951 . S
H2068 C2088 0.950 . S
H2069 C2089 0.950 . S
H2070 C2091 0.950 . S
H2071 C2094 0.950 . S
H2072 C2095 0.950 . S
H2073 C2097 0.950 . S
H2074 C2098 0.950 . S
H2075 C2099 0.951 . S
H2076 C2101 0.951 . S
H2077 C2103 0.950 1_455 S
H2078 C2104 0.950 . S
H2079 C2106 0.950 . S
H2080 C2109 0.950 1_455 S
H2081 C2110 0.950 . S
H2082 C2112 0.950 . S
H2083 C2113 0.950 . S
C2084 H2066 0.951 . S
C2084 C2085 1.366 . S
C2084 C2086 1.388 . S
C2085 C2084 1.366 . S
C2085 C2089 1.385 . S
C2086 H2067 0.951 . S
C2086 C2084 1.388 . S
C2086 C2087 1.366 . S
C2087 C2086 1.366 . S
C2087 C2088 1.414 . S
C2087 C2090 1.499 . S
C2088 H2068 0.950 . S
C2088 C2087 1.414 . S
C2088 C2089 1.374 . S
C2089 H2069 0.950 . S
C2089 C2085 1.385 . S
C2089 C2088 1.374 . S
C2090 C2087 1.499 . S
C2090 C2091 1.373 . S
C2090 C2092 1.389 . S
C2091 H2070 0.950 . S
C2091 C2090 1.373 . S
C2091 C2107 1.377 . S
C2092 C2090 1.389 . S
C2092 C2093 1.524 . S
C2092 C2106 1.377 . S
C2093 C2092 1.524 . S
C2093 C2094 1.397 . S
C2093 C2098 1.363 . S
C2094 H2071 0.950 . S
C2094 C2093 1.397 . S
C2094 C2095 1.334 . S
C2095 H2072 0.950 . S
C2095 C2094 1.334 . S
C2095 C2096 1.287 . S
C2096 C2095 1.287 . S
C2096 C2097 1.524 . S
C2096 H2115 0.913 . S
C2097 H2073 0.950 . S
C2097 C2096 1.524 . S
C2097 C2098 1.415 . S
C2098 H2074 0.950 . S
C2098 C2093 1.363 . S
C2098 C2097 1.415 . S
C2099 H2075 0.951 . S
C2099 C2100 1.366 . S
C2099 C2101 1.388 . S
C2100 C2099 1.366 . S
C2100 C2104 1.385 . S
C2101 H2076 0.951 . S
C2101 C2099 1.388 . S
C2101 C2102 1.366 . S
C2102 C2101 1.366 . S
C2102 C2103 1.414 . S
C2102 C2105 1.499 1_655 S
C2103 H2077 0.950 1_655 S
C2103 C2102 1.414 . S
C2103 C2104 1.374 . S
C2104 H2078 0.950 . S
C2104 C2100 1.385 . S
C2104 C2103 1.374 . S
C2105 C2102 1.499 1_455 S
C2105 C2106 1.373 . S
C2105 C2107 1.389 . S
C2106 H2079 0.950 . S
C2106 C2092 1.377 . S
C2106 C2105 1.373 . S
C2107 C2091 1.377 . S
C2107 C2105 1.389 . S
C2107 C2108 1.524 . S
C2108 C2107 1.524 . S
C2108 C2109 1.397 1_455 S
C2108 C2113 1.363 . S
C2109 H2080 0.950 1_655 S
C2109 C2108 1.397 1_655 S
C2109 C2110 1.334 . S
C2110 H2081 0.950 . S
C2110 C2109 1.334 . S
C2110 C2111 1.287 . S
C2111 C2110 1.287 . S
C2111 C2112 1.524 . S
C2111 H2114 0.999 . S
C2112 H2082 0.950 . S
C2112 C2111 1.524 . S
C2112 C2113 1.415 1_655 S
C2113 H2083 0.950 . S
C2113 C2108 1.363 . S
C2113 C2112 1.415 1_455 S
H2114 C2111 0.999 . S
H2115 C2096 0.913 . S
H2116 C2134 0.951 . S
H2117 C2136 0.951 . S
H2118 C2138 0.950 . S
H2119 C2139 0.950 . S
H2120 C2141 0.950 . S
H2121 C2144 0.950 . S
H2122 C2145 0.950 . S
H2123 C2147 0.950 . S
H2124 C2148 0.950 . S
H2125 C2149 0.951 . S
H2126 C2151 0.951 . S
H2127 C2153 0.950 . S
H2128 C2154 0.950 . S
H2129 C2156 0.950 . S
H2130 C2159 0.950 . S
H2131 C2160 0.950 . S
H2132 C2162 0.950 . S
H2133 C2163 0.950 . S
C2134 H2116 0.951 . S
C2134 C2135 1.366 . S
C2134 C2136 1.388 . S
C2135 C2134 1.366 . S
C2135 C2139 1.385 . S
C2136 H2117 0.951 . S
C2136 C2134 1.388 . S
C2136 C2137 1.366 . S
C2137 C2136 1.366 . S
C2137 C2138 1.414 . S
C2137 C2140 1.499 . S
C2138 H2118 0.950 . S
C2138 C2137 1.414 . S
C2138 C2139 1.374 . S
C2139 H2119 0.950 . S
C2139 C2135 1.385 . S
C2139 C2138 1.374 . S
C2140 C2137 1.499 . S
C2140 C2141 1.373 . S
C2140 C2142 1.389 . S
C2141 H2120 0.950 . S
C2141 C2140 1.373 . S
C2141 C2157 1.377 . S
C2142 C2140 1.389 . S
C2142 C2143 1.524 . S
C2142 C2156 1.377 . S
C2143 C2142 1.524 . S
C2143 C2144 1.397 . S
C2143 C2148 1.363 . S
C2144 H2121 0.950 . S
C2144 C2143 1.397 . S
C2144 C2145 1.334 . S
C2145 H2122 0.950 . S
C2145 C2144 1.334 . S
C2145 C2146 1.287 . S
C2146 C2145 1.287 . S
C2146 C2147 1.524 . S
C2146 H2165 0.913 . S
C2147 H2123 0.950 . S
C2147 C2146 1.524 . S
C2147 C2148 1.415 . S
C2148 H2124 0.950 . S
C2148 C2143 1.363 . S
C2148 C2147 1.415 . S
C2149 H2125 0.951 . S
C2149 C2150 1.366 . S
C2149 C2151 1.388 . S
C2150 C2149 1.366 . S
C2150 C2154 1.385 . S
C2151 H2126 0.951 . S
C2151 C2149 1.388 . S
C2151 C2152 1.366 . S
C2152 C2151 1.366 . S
C2152 C2153 1.414 . S
C2152 C2155 1.499 . S
C2153 H2127 0.950 . S
C2153 C2152 1.414 . S
C2153 C2154 1.374 . S
C2154 H2128 0.950 . S
C2154 C2150 1.385 . S
C2154 C2153 1.374 . S
C2155 C2152 1.499 . S
C2155 C2156 1.373 . S
C2155 C2157 1.389 . S
C2156 H2129 0.950 . S
C2156 C2142 1.377 . S
C2156 C2155 1.373 . S
C2157 C2141 1.377 . S
C2157 C2155 1.389 . S
C2157 C2158 1.524 . S
C2158 C2157 1.524 . S
C2158 C2159 1.397 . S
C2158 C2163 1.363 . S
C2159 H2130 0.950 . S
C2159 C2158 1.397 . S
C2159 C2160 1.334 . S
C2160 H2131 0.950 . S
C2160 C2159 1.334 . S
C2160 C2161 1.287 . S
C2161 C2160 1.287 . S
C2161 C2162 1.524 . S
C2161 H2164 0.999 . S
C2162 H2132 0.950 . S
C2162 C2161 1.524 . S
C2162 C2163 1.415 . S
C2163 H2133 0.950 . S
C2163 C2158 1.363 . S
C2163 C2162 1.415 . S
H2164 C2161 0.999 . S
H2165 C2146 0.913 . S
H2166 C2184 0.951 . S
H2167 C2186 0.951 . S
H2168 C2188 0.950 . S
H2169 C2189 0.950 . S
H2170 C2191 0.950 . S
H2171 C2194 0.950 . S
H2172 C2195 0.950 . S
H2173 C2197 0.950 . S
H2174 C2198 0.950 . S
H2175 C2199 0.951 . S
H2176 C2201 0.951 . S
H2177 C2203 0.950 . S
H2178 C2204 0.950 . S
H2179 C2206 0.950 . S
H2180 C2209 0.950 . S
H2181 C2210 0.950 . S
H2182 C2212 0.950 . S
H2183 C2213 0.950 . S
C2184 H2166 0.951 . S
C2184 C2185 1.366 . S
C2184 C2186 1.388 . S
C2185 C2184 1.366 . S
C2185 C2189 1.385 . S
C2186 H2167 0.951 . S
C2186 C2184 1.388 . S
C2186 C2187 1.366 . S
C2187 C2186 1.366 . S
C2187 C2188 1.414 . S
C2187 C2190 1.499 . S
C2188 H2168 0.950 . S
C2188 C2187 1.414 . S
C2188 C2189 1.374 . S
C2189 H2169 0.950 . S
C2189 C2185 1.385 . S
C2189 C2188 1.374 . S
C2190 C2187 1.499 . S
C2190 C2191 1.373 . S
C2190 C2192 1.389 . S
C2191 H2170 0.950 . S
C2191 C2190 1.373 . S
C2191 C2207 1.377 . S
C2192 C2190 1.389 . S
C2192 C2193 1.524 . S
C2192 C2206 1.377 . S
C2193 C2192 1.524 . S
C2193 C2194 1.397 . S
C2193 C2198 1.363 . S
C2194 H2171 0.950 . S
C2194 C2193 1.397 . S
C2194 C2195 1.334 . S
C2195 H2172 0.950 . S
C2195 C2194 1.334 . S
C2195 C2196 1.287 . S
C2196 C2195 1.287 . S
C2196 C2197 1.524 . S
C2196 H2215 0.913 . S
C2197 H2173 0.950 . S
C2197 C2196 1.524 . S
C2197 C2198 1.415 . S
C2198 H2174 0.950 . S
C2198 C2193 1.363 . S
C2198 C2197 1.415 . S
C2199 H2175 0.951 . S
C2199 C2200 1.366 . S
C2199 C2201 1.388 . S
C2200 C2199 1.366 . S
C2200 C2204 1.385 . S
C2201 H2176 0.951 . S
C2201 C2199 1.388 . S
C2201 C2202 1.366 . S
C2202 C2201 1.366 . S
C2202 C2203 1.414 . S
C2202 C2205 1.499 . S
C2203 H2177 0.950 . S
C2203 C2202 1.414 . S
C2203 C2204 1.374 . S
C2204 H2178 0.950 . S
C2204 C2200 1.385 . S
C2204 C2203 1.374 . S
C2205 C2202 1.499 . S
C2205 C2206 1.373 . S
C2205 C2207 1.389 . S
C2206 H2179 0.950 . S
C2206 C2192 1.377 . S
C2206 C2205 1.373 . S
C2207 C2191 1.377 . S
C2207 C2205 1.389 . S
C2207 C2208 1.524 . S
C2208 C2207 1.524 . S
C2208 C2209 1.397 . S
C2208 C2213 1.363 . S
C2209 H2180 0.950 . S
C2209 C2208 1.397 . S
C2209 C2210 1.334 . S
C2210 H2181 0.950 . S
C2210 C2209 1.334 . S
C2210 C2211 1.287 . S
C2211 C2210 1.287 . S
C2211 C2212 1.524 . S
C2211 H2214 0.999 . S
C2212 H2182 0.950 . S
C2212 C2211 1.524 . S
C2212 C2213 1.415 . S
C2213 H2183 0.950 . S
C2213 C2208 1.363 . S
C2213 C2212 1.415 . S
H2214 C2211 0.999 . S
H2215 C2196 0.913 . S
H2216 C2234 0.951 . S
H2217 C2236 0.951 . S
H2218 C2238 0.950 . S
H2219 C2239 0.950 . S
H2220 C2241 0.950 . S
H2221 C2244 0.950 . S
H2222 C2245 0.950 . S
H2223 C2247 0.950 . S
H2224 C2248 0.950 . S
H2225 C2249 0.951 . S
H2226 C2251 0.951 . S
H2227 C2253 0.950 . S
H2228 C2254 0.950 . S
H2229 C2256 0.950 . S
H2230 C2259 0.950 . S
H2231 C2260 0.950 . S
H2232 C2262 0.950 . S
H2233 C2263 0.950 . S
C2234 H2216 0.951 . S
C2234 C2235 1.366 . S
C2234 C2236 1.388 . S
C2235 C2234 1.366 . S
C2235 C2239 1.385 . S
C2236 H2217 0.951 . S
C2236 C2234 1.388 . S
C2236 C2237 1.366 . S
C2237 C2236 1.366 . S
C2237 C2238 1.414 . S
C2237 C2240 1.499 . S
C2238 H2218 0.950 . S
C2238 C2237 1.414 . S
C2238 C2239 1.374 . S
C2239 H2219 0.950 . S
C2239 C2235 1.385 . S
C2239 C2238 1.374 . S
C2240 C2237 1.499 . S
C2240 C2241 1.373 . S
C2240 C2242 1.389 . S
C2241 H2220 0.950 . S
C2241 C2240 1.373 . S
C2241 C2257 1.377 . S
C2242 C2240 1.389 . S
C2242 C2243 1.524 . S
C2242 C2256 1.377 . S
C2243 C2242 1.524 . S
C2243 C2244 1.397 . S
C2243 C2248 1.363 . S
C2244 H2221 0.950 . S
C2244 C2243 1.397 . S
C2244 C2245 1.334 . S
C2245 H2222 0.950 . S
C2245 C2244 1.334 . S
C2245 C2246 1.287 . S
C2246 C2245 1.287 . S
C2246 C2247 1.524 . S
C2246 H2265 0.913 . S
C2247 H2223 0.950 . S
C2247 C2246 1.524 . S
C2247 C2248 1.415 . S
C2248 H2224 0.950 . S
C2248 C2243 1.363 . S
C2248 C2247 1.415 . S
C2249 H2225 0.951 . S
C2249 C2250 1.366 . S
C2249 C2251 1.388 . S
C2250 C2249 1.366 . S
C2250 C2254 1.385 . S
C2251 H2226 0.951 . S
C2251 C2249 1.388 . S
C2251 C2252 1.366 . S
C2252 C2251 1.366 . S
C2252 C2253 1.414 . S
C2252 C2255 1.499 . S
C2253 H2227 0.950 . S
C2253 C2252 1.414 . S
C2253 C2254 1.374 . S
C2254 H2228 0.950 . S
C2254 C2250 1.385 . S
C2254 C2253 1.374 . S
C2255 C2252 1.499 . S
C2255 C2256 1.373 . S
C2255 C2257 1.389 . S
C2256 H2229 0.950 . S
C2256 C2242 1.377 . S
C2256 C2255 1.373 . S
C2257 C2241 1.377 . S
C2257 C2255 1.389 . S
C2257 C2258 1.524 . S
C2258 C2257 1.524 . S
C2258 C2259 1.397 . S
C2258 C2263 1.363 . S
C2259 H2230 0.950 . S
C2259 C2258 1.397 . S
C2259 C2260 1.334 . S
C2260 H2231 0.950 . S
C2260 C2259 1.334 . S
C2260 C2261 1.287 . S
C2261 C2260 1.287 . S
C2261 C2262 1.524 . S
C2261 H2264 0.999 . S
C2262 H2232 0.950 . S
C2262 C2261 1.524 . S
C2262 C2263 1.415 . S
C2263 H2233 0.950 . S
C2263 C2258 1.363 . S
C2263 C2262 1.415 . S
H2264 C2261 0.999 . S
H2265 C2246 0.913 . S
H2266 C2284 0.951 . S
H2267 C2286 0.951 . S
H2268 C2288 0.950 . S
H2269 C2289 0.950 . S
H2270 C2291 0.950 . S
H2271 C2294 0.950 . S
H2272 C2295 0.950 . S
H2273 C2297 0.950 . S
H2274 C2298 0.950 . S
H2275 C2299 0.951 . S
H2276 C2301 0.951 . S
H2277 C2303 0.950 . S
H2278 C2304 0.950 . S
H2279 C2306 0.950 . S
H2280 C2309 0.950 . S
H2281 C2310 0.950 . S
H2282 C2312 0.950 . S
H2283 C2313 0.950 . S
C2284 H2266 0.951 . S
C2284 C2285 1.366 . S
C2284 C2286 1.388 . S
C2285 C2284 1.366 . S
C2285 C2289 1.385 . S
C2286 H2267 0.951 . S
C2286 C2284 1.388 . S
C2286 C2287 1.366 . S
C2287 C2286 1.366 . S
C2287 C2288 1.414 . S
C2287 C2290 1.499 . S
C2288 H2268 0.950 . S
C2288 C2287 1.414 . S
C2288 C2289 1.374 . S
C2289 H2269 0.950 . S
C2289 C2285 1.385 . S
C2289 C2288 1.374 . S
C2290 C2287 1.499 . S
C2290 C2291 1.373 . S
C2290 C2292 1.389 . S
C2291 H2270 0.950 . S
C2291 C2290 1.373 . S
C2291 C2307 1.377 . S
C2292 C2290 1.389 . S
C2292 C2293 1.524 . S
C2292 C2306 1.377 . S
C2293 C2292 1.524 . S
C2293 C2294 1.397 . S
C2293 C2298 1.363 . S
C2294 H2271 0.950 . S
C2294 C2293 1.397 . S
C2294 C2295 1.334 . S
C2295 H2272 0.950 . S
C2295 C2294 1.334 . S
C2295 C2296 1.287 . S
C2296 C2295 1.287 . S
C2296 C2297 1.524 . S
C2296 H2315 0.913 . S
C2297 H2273 0.950 . S
C2297 C2296 1.524 . S
C2297 C2298 1.415 . S
C2298 H2274 0.950 . S
C2298 C2293 1.363 . S
C2298 C2297 1.415 . S
C2299 H2275 0.951 . S
C2299 C2300 1.366 . S
C2299 C2301 1.388 . S
C2300 C2299 1.366 . S
C2300 C2304 1.385 . S
C2301 H2276 0.951 . S
C2301 C2299 1.388 . S
C2301 C2302 1.366 . S
C2302 C2301 1.366 . S
C2302 C2303 1.414 . S
C2302 C2305 1.499 . S
C2303 H2277 0.950 . S
C2303 C2302 1.414 . S
C2303 C2304 1.374 . S
C2304 H2278 0.950 . S
C2304 C2300 1.385 . S
C2304 C2303 1.374 . S
C2305 C2302 1.499 . S
C2305 C2306 1.373 . S
C2305 C2307 1.389 . S
C2306 H2279 0.950 . S
C2306 C2292 1.377 . S
C2306 C2305 1.373 . S
C2307 C2291 1.377 . S
C2307 C2305 1.389 . S
C2307 C2308 1.524 . S
C2308 C2307 1.524 . S
C2308 C2309 1.397 . S
C2308 C2313 1.363 . S
C2309 H2280 0.950 . S
C2309 C2308 1.397 . S
C2309 C2310 1.334 . S
C2310 H2281 0.950 . S
C2310 C2309 1.334 . S
C2310 C2311 1.287 . S
C2311 C2310 1.287 . S
C2311 C2312 1.524 . S
C2311 H2314 0.999 . S
C2312 H2282 0.950 . S
C2312 C2311 1.524 . S
C2312 C2313 1.415 . S
C2313 H2283 0.950 . S
C2313 C2308 1.363 . S
C2313 C2312 1.415 . S
H2314 C2311 0.999 . S
H2315 C2296 0.913 . S
H2316 C2334 0.951 . S
H2317 C2336 0.951 . S
H2318 C2338 0.950 . S
H2319 C2339 0.950 . S
H2320 C2341 0.950 . S
H2321 C2344 0.950 . S
H2322 C2345 0.950 . S
H2323 C2347 0.950 . S
H2324 C2348 0.950 . S
H2325 C2349 0.951 . S
H2326 C2351 0.951 . S
H2327 C2353 0.950 . S
H2328 C2354 0.950 . S
H2329 C2356 0.950 . S
H2330 C2359 0.950 . S
H2331 C2360 0.950 . S
H2332 C2362 0.950 . S
H2333 C2363 0.950 . S
C2334 H2316 0.951 . S
C2334 C2335 1.366 . S
C2334 C2336 1.388 . S
C2335 C2334 1.366 . S
C2335 C2339 1.385 . S
C2336 H2317 0.951 . S
C2336 C2334 1.388 . S
C2336 C2337 1.366 . S
C2337 C2336 1.366 . S
C2337 C2338 1.414 . S
C2337 C2340 1.499 . S
C2338 H2318 0.950 . S
C2338 C2337 1.414 . S
C2338 C2339 1.374 . S
C2339 H2319 0.950 . S
C2339 C2335 1.385 . S
C2339 C2338 1.374 . S
C2340 C2337 1.499 . S
C2340 C2341 1.373 . S
C2340 C2342 1.389 . S
C2341 H2320 0.950 . S
C2341 C2340 1.373 . S
C2341 C2357 1.377 . S
C2342 C2340 1.389 . S
C2342 C2343 1.524 . S
C2342 C2356 1.377 . S
C2343 C2342 1.524 . S
C2343 C2344 1.397 . S
C2343 C2348 1.363 . S
C2344 H2321 0.950 . S
C2344 C2343 1.397 . S
C2344 C2345 1.334 . S
C2345 H2322 0.950 . S
C2345 C2344 1.334 . S
C2345 C2346 1.287 . S
C2346 C2345 1.287 . S
C2346 C2347 1.524 . S
C2346 H2365 0.913 . S
C2347 H2323 0.950 . S
C2347 C2346 1.524 . S
C2347 C2348 1.415 . S
C2348 H2324 0.950 . S
C2348 C2343 1.363 . S
C2348 C2347 1.415 . S
C2349 H2325 0.951 . S
C2349 C2350 1.366 . S
C2349 C2351 1.388 . S
C2350 C2349 1.366 . S
C2350 C2354 1.385 . S
C2351 H2326 0.951 . S
C2351 C2349 1.388 . S
C2351 C2352 1.366 . S
C2352 C2351 1.366 . S
C2352 C2353 1.414 . S
C2352 C2355 1.499 . S
C2353 H2327 0.950 . S
C2353 C2352 1.414 . S
C2353 C2354 1.374 . S
C2354 H2328 0.950 . S
C2354 C2350 1.385 . S
C2354 C2353 1.374 . S
C2355 C2352 1.499 . S
C2355 C2356 1.373 . S
C2355 C2357 1.389 . S
C2356 H2329 0.950 . S
C2356 C2342 1.377 . S
C2356 C2355 1.373 . S
C2357 C2341 1.377 . S
C2357 C2355 1.389 . S
C2357 C2358 1.524 . S
C2358 C2357 1.524 . S
C2358 C2359 1.397 . S
C2358 C2363 1.363 . S
C2359 H2330 0.950 . S
C2359 C2358 1.397 . S
C2359 C2360 1.334 . S
C2360 H2331 0.950 . S
C2360 C2359 1.334 . S
C2360 C2361 1.287 . S
C2361 C2360 1.287 . S
C2361 C2362 1.524 . S
C2361 H2364 0.999 . S
C2362 H2332 0.950 . S
C2362 C2361 1.524 . S
C2362 C2363 1.415 . S
C2363 H2333 0.950 . S
C2363 C2358 1.363 . S
C2363 C2362 1.415 . S
H2364 C2361 0.999 . S
H2365 C2346 0.913 . S
H2366 C2384 0.951 . S
H2367 C2386 0.951 . S
H2368 C2388 0.950 . S
H2369 C2389 0.950 . S
H2370 C2391 0.950 . S
H2371 C2394 0.950 . S
H2372 C2395 0.950 . S
H2373 C2397 0.950 . S
H2374 C2398 0.950 . S
H2375 C2399 0.951 . S
H2376 C2401 0.951 . S
H2377 C2403 0.950 1_455 S
H2378 C2404 0.950 . S
H2379 C2406 0.950 . S
H2380 C2409 0.949 . S
H2381 C2410 0.950 . S
H2382 C2412 0.950 . S
H2383 C2413 0.950 . S
C2384 H2366 0.951 . S
C2384 C2385 1.366 . S
C2384 C2386 1.388 . S
C2385 C2384 1.366 . S
C2385 C2389 1.385 . S
C2386 H2367 0.951 . S
C2386 C2384 1.388 . S
C2386 C2387 1.366 . S
C2387 C2386 1.366 . S
C2387 C2388 1.414 . S
C2387 C2390 1.499 . S
C2388 H2368 0.950 . S
C2388 C2387 1.414 . S
C2388 C2389 1.374 . S
C2389 H2369 0.950 . S
C2389 C2385 1.385 . S
C2389 C2388 1.374 . S
C2390 C2387 1.499 . S
C2390 C2391 1.373 . S
C2390 C2392 1.389 . S
C2391 H2370 0.950 . S
C2391 C2390 1.373 . S
C2391 C2407 1.377 . S
C2392 C2390 1.389 . S
C2392 C2393 1.524 . S
C2392 C2406 1.377 . S
C2393 C2392 1.524 . S
C2393 C2394 1.397 . S
C2393 C2398 1.363 . S
C2394 H2371 0.950 . S
C2394 C2393 1.397 . S
C2394 C2395 1.334 . S
C2395 H2372 0.950 . S
C2395 C2394 1.334 . S
C2395 C2396 1.287 . S
C2396 C2395 1.287 . S
C2396 C2397 1.524 . S
C2396 H2415 0.913 . S
C2397 H2373 0.950 . S
C2397 C2396 1.524 . S
C2397 C2398 1.415 . S
C2398 H2374 0.950 . S
C2398 C2393 1.363 . S
C2398 C2397 1.415 . S
C2399 H2375 0.951 . S
C2399 C2400 1.366 . S
C2399 C2401 1.388 . S
C2400 C2399 1.366 . S
C2400 C2404 1.385 . S
C2401 H2376 0.951 . S
C2401 C2399 1.388 . S
C2401 C2402 1.366 . S
C2402 C2401 1.366 . S
C2402 C2403 1.414 . S
C2402 C2405 1.499 1_655 S
C2403 H2377 0.950 1_655 S
C2403 C2402 1.414 . S
C2403 C2404 1.374 . S
C2404 H2378 0.950 . S
C2404 C2400 1.385 . S
C2404 C2403 1.374 . S
C2405 C2402 1.499 1_455 S
C2405 C2406 1.373 . S
C2405 C2407 1.389 . S
C2406 H2379 0.950 . S
C2406 C2392 1.377 . S
C2406 C2405 1.373 . S
C2407 C2391 1.377 . S
C2407 C2405 1.389 . S
C2407 C2408 1.524 . S
C2408 C2407 1.524 . S
C2408 C2409 1.397 1_455 S
C2408 C2413 1.363 . S
C2409 H2380 0.949 . S
C2409 C2408 1.397 1_655 S
C2409 C2410 1.334 . S
C2410 H2381 0.950 . S
C2410 C2409 1.334 . S
C2410 C2411 1.287 . S
C2411 C2410 1.287 . S
C2411 C2412 1.524 . S
C2411 H2414 0.999 . S
C2412 H2382 0.950 . S
C2412 C2411 1.524 . S
C2412 C2413 1.415 1_655 S
C2413 H2383 0.950 . S
C2413 C2408 1.363 . S
C2413 C2412 1.415 1_455 S
H2414 C2411 0.999 . S
H2415 C2396 0.913 . S
H2416 C2434 0.951 . S
H2417 C2436 0.951 . S
H2418 C2438 0.950 . S
H2419 C2439 0.950 . S
H2420 C2441 0.950 . S
H2421 C2444 0.950 . S
H2422 C2445 0.950 . S
H2423 C2447 0.950 . S
H2424 C2448 0.950 . S
H2425 C2449 0.951 . S
H2426 C2451 0.951 . S
H2427 C2453 0.950 . S
H2428 C2454 0.950 . S
H2429 C2456 0.950 . S
H2430 C2459 0.950 . S
H2431 C2460 0.950 . S
H2432 C2462 0.950 . S
H2433 C2463 0.950 . S
C2434 H2416 0.951 . S
C2434 C2435 1.366 . S
C2434 C2436 1.388 . S
C2435 C2434 1.366 . S
C2435 C2439 1.385 . S
C2436 H2417 0.951 . S
C2436 C2434 1.388 . S
C2436 C2437 1.366 . S
C2437 C2436 1.366 . S
C2437 C2438 1.414 . S
C2437 C2440 1.499 . S
C2438 H2418 0.950 . S
C2438 C2437 1.414 . S
C2438 C2439 1.374 . S
C2439 H2419 0.950 . S
C2439 C2435 1.385 . S
C2439 C2438 1.374 . S
C2440 C2437 1.499 . S
C2440 C2441 1.373 . S
C2440 C2442 1.389 . S
C2441 H2420 0.950 . S
C2441 C2440 1.373 . S
C2441 C2457 1.377 . S
C2442 C2440 1.389 . S
C2442 C2443 1.524 . S
C2442 C2456 1.377 . S
C2443 C2442 1.524 . S
C2443 C2444 1.397 . S
C2443 C2448 1.363 . S
C2444 H2421 0.950 . S
C2444 C2443 1.397 . S
C2444 C2445 1.334 . S
C2445 H2422 0.950 . S
C2445 C2444 1.334 . S
C2445 C2446 1.287 . S
C2446 C2445 1.287 . S
C2446 C2447 1.524 . S
C2446 H2465 0.913 . S
C2447 H2423 0.950 . S
C2447 C2446 1.524 . S
C2447 C2448 1.415 . S
C2448 H2424 0.950 . S
C2448 C2443 1.363 . S
C2448 C2447 1.415 . S
C2449 H2425 0.951 . S
C2449 C2450 1.366 . S
C2449 C2451 1.388 . S
C2450 C2449 1.366 . S
C2450 C2454 1.385 . S
C2451 H2426 0.951 . S
C2451 C2449 1.388 . S
C2451 C2452 1.366 . S
C2452 C2451 1.366 . S
C2452 C2453 1.414 . S
C2452 C2455 1.499 . S
C2453 H2427 0.950 . S
C2453 C2452 1.414 . S
C2453 C2454 1.374 . S
C2454 H2428 0.950 . S
C2454 C2450 1.385 . S
C2454 C2453 1.374 . S
C2455 C2452 1.499 . S
C2455 C2456 1.373 . S
C2455 C2457 1.389 . S
C2456 H2429 0.950 . S
C2456 C2442 1.377 . S
C2456 C2455 1.373 . S
C2457 C2441 1.377 . S
C2457 C2455 1.389 . S
C2457 C2458 1.524 . S
C2458 C2457 1.524 . S
C2458 C2459 1.397 . S
C2458 C2463 1.363 . S
C2459 H2430 0.950 . S
C2459 C2458 1.397 . S
C2459 C2460 1.334 . S
C2460 H2431 0.950 . S
C2460 C2459 1.334 . S
C2460 C2461 1.287 . S
C2461 C2460 1.287 . S
C2461 C2462 1.524 . S
C2461 H2464 0.999 . S
C2462 H2432 0.950 . S
C2462 C2461 1.524 . S
C2462 C2463 1.415 . S
C2463 H2433 0.950 . S
C2463 C2458 1.363 . S
C2463 C2462 1.415 . S
H2464 C2461 0.999 . S
H2465 C2446 0.913 . S
H2466 C2484 0.951 . S
H2467 C2486 0.951 . S
H2468 C2488 0.919 1_655 S
H2469 C2489 0.950 . S
H2470 C2491 0.950 . S
H2471 C2494 0.950 . S
H2472 C2495 0.950 . S
H2473 C2497 0.950 . S
H2474 C2498 0.950 . S
H2475 C2499 0.951 . S
H2476 C2501 0.951 . S
H2477 C2503 0.950 . S
H2478 C2504 0.950 . S
H2479 C2506 0.950 . S
H2480 C2509 0.950 . S
H2481 C2510 0.950 . S
H2482 C2512 0.950 . S
H2483 C2513 0.950 . S
C2484 H2466 0.951 . S
C2484 C2485 1.366 . S
C2484 C2486 1.388 . S
C2485 C2484 1.366 . S
C2485 C2489 1.385 . S
C2486 H2467 0.951 . S
C2486 C2484 1.388 . S
C2486 C2487 1.366 . S
C2487 C2486 1.366 . S
C2487 C2488 1.414 . S
C2487 C2490 1.499 1_455 S
C2488 H2468 0.919 1_455 S
C2488 C2487 1.414 . S
C2488 C2489 1.374 . S
C2489 H2469 0.950 . S
C2489 C2485 1.385 . S
C2489 C2488 1.374 . S
C2490 C2487 1.499 1_655 S
C2490 C2491 1.373 . S
C2490 C2492 1.389 . S
C2491 H2470 0.950 . S
C2491 C2490 1.373 . S
C2491 C2507 1.377 . S
C2492 C2490 1.389 . S
C2492 C2493 1.524 . S
C2492 C2506 1.377 . S
C2493 C2492 1.524 . S
C2493 C2494 1.397 1_655 S
C2493 C2498 1.363 . S
C2494 H2471 0.950 . S
C2494 C2493 1.397 1_455 S
C2494 C2495 1.334 . S
C2495 H2472 0.950 . S
C2495 C2494 1.334 . S
C2495 C2496 1.287 . S
C2496 C2495 1.287 . S
C2496 C2497 1.524 . S
C2496 H2515 0.913 . S
C2497 H2473 0.950 . S
C2497 C2496 1.524 . S
C2497 C2498 1.415 1_455 S
C2498 H2474 0.950 . S
C2498 C2493 1.363 . S
C2498 C2497 1.415 1_655 S
C2499 H2475 0.951 . S
C2499 C2500 1.366 . S
C2499 C2501 1.388 . S
C2500 C2499 1.366 . S
C2500 C2504 1.385 . S
C2501 H2476 0.951 . S
C2501 C2499 1.388 . S
C2501 C2502 1.366 . S
C2502 C2501 1.366 . S
C2502 C2503 1.414 . S
C2502 C2505 1.499 . S
C2503 H2477 0.950 . S
C2503 C2502 1.414 . S
C2503 C2504 1.374 . S
C2504 H2478 0.950 . S
C2504 C2500 1.385 . S
C2504 C2503 1.374 . S
C2505 C2502 1.499 . S
C2505 C2506 1.373 . S
C2505 C2507 1.389 . S
C2506 H2479 0.950 . S
C2506 C2492 1.377 . S
C2506 C2505 1.373 . S
C2507 C2491 1.377 . S
C2507 C2505 1.389 . S
C2507 C2508 1.524 . S
C2508 C2507 1.524 . S
C2508 C2509 1.397 . S
C2508 C2513 1.363 . S
C2509 H2480 0.950 . S
C2509 C2508 1.397 . S
C2509 C2510 1.334 . S
C2510 H2481 0.950 . S
C2510 C2509 1.334 . S
C2510 C2511 1.287 . S
C2511 C2510 1.287 . S
C2511 C2512 1.524 . S
C2511 H2514 0.999 . S
C2512 H2482 0.950 . S
C2512 C2511 1.524 . S
C2512 C2513 1.415 . S
C2513 H2483 0.950 . S
C2513 C2508 1.363 . S
C2513 C2512 1.415 . S
H2514 C2511 0.999 . S
H2515 C2496 0.913 . S
H2516 C2534 0.951 . S
H2517 C2536 0.951 . S
H2518 C2538 0.950 . S
H2519 C2539 0.950 . S
H2520 C2541 0.950 . S
H2521 C2544 0.950 . S
H2522 C2545 0.950 . S
H2523 C2547 0.950 . S
H2524 C2548 0.950 . S
H2525 C2549 0.951 . S
H2526 C2551 0.951 . S
H2527 C2553 0.950 . S
H2528 C2554 0.950 . S
H2529 C2556 0.950 . S
H2530 C2559 0.950 . S
H2531 C2560 0.950 . S
H2532 C2562 0.950 . S
H2533 C2563 0.950 . S
C2534 H2516 0.951 . S
C2534 C2535 1.366 . S
C2534 C2536 1.388 . S
C2535 C2534 1.366 . S
C2535 C2539 1.385 . S
C2536 H2517 0.951 . S
C2536 C2534 1.388 . S
C2536 C2537 1.366 . S
C2537 C2536 1.366 . S
C2537 C2538 1.414 . S
C2537 C2540 1.499 . S
C2538 H2518 0.950 . S
C2538 C2537 1.414 . S
C2538 C2539 1.374 . S
C2539 H2519 0.950 . S
C2539 C2535 1.385 . S
C2539 C2538 1.374 . S
C2540 C2537 1.499 . S
C2540 C2541 1.373 . S
C2540 C2542 1.389 . S
C2541 H2520 0.950 . S
C2541 C2540 1.373 . S
C2541 C2557 1.377 . S
C2542 C2540 1.389 . S
C2542 C2543 1.524 . S
C2542 C2556 1.377 . S
C2543 C2542 1.524 . S
C2543 C2544 1.397 . S
C2543 C2548 1.363 . S
C2544 H2521 0.950 . S
C2544 C2543 1.397 . S
C2544 C2545 1.334 . S
C2545 H2522 0.950 . S
C2545 C2544 1.334 . S
C2545 C2546 1.287 . S
C2546 C2545 1.287 . S
C2546 C2547 1.524 . S
C2546 H2565 0.913 . S
C2547 H2523 0.950 . S
C2547 C2546 1.524 . S
C2547 C2548 1.415 . S
C2548 H2524 0.950 . S
C2548 C2543 1.363 . S
C2548 C2547 1.415 . S
C2549 H2525 0.951 . S
C2549 C2550 1.366 . S
C2549 C2551 1.388 . S
C2550 C2549 1.366 . S
C2550 C2554 1.385 . S
C2551 H2526 0.951 . S
C2551 C2549 1.388 . S
C2551 C2552 1.366 . S
C2552 C2551 1.366 . S
C2552 C2553 1.414 . S
C2552 C2555 1.499 . S
C2553 H2527 0.950 . S
C2553 C2552 1.414 . S
C2553 C2554 1.374 . S
C2554 H2528 0.950 . S
C2554 C2550 1.385 . S
C2554 C2553 1.374 . S
C2555 C2552 1.499 . S
C2555 C2556 1.373 . S
C2555 C2557 1.389 . S
C2556 H2529 0.950 . S
C2556 C2542 1.377 . S
C2556 C2555 1.373 . S
C2557 C2541 1.377 . S
C2557 C2555 1.389 . S
C2557 C2558 1.524 . S
C2558 C2557 1.524 . S
C2558 C2559 1.397 . S
C2558 C2563 1.363 . S
C2559 H2530 0.950 . S
C2559 C2558 1.397 . S
C2559 C2560 1.334 . S
C2560 H2531 0.950 . S
C2560 C2559 1.334 . S
C2560 C2561 1.287 . S
C2561 C2560 1.287 . S
C2561 C2562 1.524 . S
C2561 H2564 0.999 . S
C2562 H2532 0.950 . S
C2562 C2561 1.524 . S
C2562 C2563 1.415 . S
C2563 H2533 0.950 . S
C2563 C2558 1.363 . S
C2563 C2562 1.415 . S
H2564 C2561 0.999 . S
H2565 C2546 0.913 . S
H2566 C2584 0.951 . S
H2567 C2586 0.951 . S
H2568 C2588 0.950 . S
H2569 C2589 0.950 . S
H2570 C2591 0.950 . S
H2571 C2594 0.950 . S
H2572 C2595 0.950 . S
H2573 C2597 0.950 . S
H2574 C2598 0.950 . S
H2575 C2599 0.951 . S
H2576 C2601 0.951 . S
H2577 C2603 0.950 . S
H2578 C2604 0.950 . S
H2579 C2606 0.950 . S
H2580 C2609 0.950 . S
H2581 C2610 0.950 . S
H2582 C2612 0.950 . S
H2583 C2613 0.950 . S
C2584 H2566 0.951 . S
C2584 C2585 1.366 . S
C2584 C2586 1.388 . S
C2585 C2584 1.366 . S
C2585 C2589 1.385 . S
C2586 H2567 0.951 . S
C2586 C2584 1.388 . S
C2586 C2587 1.366 . S
C2587 C2586 1.366 . S
C2587 C2588 1.414 . S
C2587 C2590 1.499 . S
C2588 H2568 0.950 . S
C2588 C2587 1.414 . S
C2588 C2589 1.374 . S
C2589 H2569 0.950 . S
C2589 C2585 1.385 . S
C2589 C2588 1.374 . S
C2590 C2587 1.499 . S
C2590 C2591 1.373 . S
C2590 C2592 1.389 . S
C2591 H2570 0.950 . S
C2591 C2590 1.373 . S
C2591 C2607 1.377 . S
C2592 C2590 1.389 . S
C2592 C2593 1.524 . S
C2592 C2606 1.377 . S
C2593 C2592 1.524 . S
C2593 C2594 1.397 . S
C2593 C2598 1.363 . S
C2594 H2571 0.950 . S
C2594 C2593 1.397 . S
C2594 C2595 1.334 . S
C2595 H2572 0.950 . S
C2595 C2594 1.334 . S
C2595 C2596 1.287 . S
C2596 C2595 1.287 . S
C2596 C2597 1.524 . S
C2596 H2615 0.913 . S
C2597 H2573 0.950 . S
C2597 C2596 1.524 . S
C2597 C2598 1.415 . S
C2598 H2574 0.950 . S
C2598 C2593 1.363 . S
C2598 C2597 1.415 . S
C2599 H2575 0.951 . S
C2599 C2600 1.366 . S
C2599 C2601 1.388 . S
C2600 C2599 1.366 . S
C2600 C2604 1.385 . S
C2601 H2576 0.951 . S
C2601 C2599 1.388 . S
C2601 C2602 1.366 . S
C2602 C2601 1.366 . S
C2602 C2603 1.414 . S
C2602 C2605 1.499 . S
C2603 H2577 0.950 . S
C2603 C2602 1.414 . S
C2603 C2604 1.374 . S
C2604 H2578 0.950 . S
C2604 C2600 1.385 . S
C2604 C2603 1.374 . S
C2605 C2602 1.499 . S
C2605 C2606 1.373 . S
C2605 C2607 1.389 . S
C2606 H2579 0.950 . S
C2606 C2592 1.377 . S
C2606 C2605 1.373 . S
C2607 C2591 1.377 . S
C2607 C2605 1.389 . S
C2607 C2608 1.524 . S
C2608 C2607 1.524 . S
C2608 C2609 1.397 . S
C2608 C2613 1.363 . S
C2609 H2580 0.950 . S
C2609 C2608 1.397 . S
C2609 C2610 1.334 . S
C2610 H2581 0.950 . S
C2610 C2609 1.334 . S
C2610 C2611 1.287 . S
C2611 C2610 1.287 . S
C2611 C2612 1.524 . S
C2611 H2614 0.999 . S
C2612 H2582 0.950 . S
C2612 C2611 1.524 . S
C2612 C2613 1.415 . S
C2613 H2583 0.950 . S
C2613 C2608 1.363 . S
C2613 C2612 1.415 . S
H2614 C2611 0.999 . S
H2615 C2596 0.913 . S
H2616 C2634 0.951 . S
H2617 C2636 0.951 . S
H2618 C2638 0.950 . S
H2619 C2639 0.950 . S
H2620 C2641 0.950 . S
H2621 C2644 0.950 . S
H2622 C2645 0.950 . S
H2623 C2647 0.950 . S
H2624 C2648 0.950 . S
H2625 C2649 0.951 . S
H2626 C2651 0.951 . S
H2627 C2653 0.950 . S
H2628 C2654 0.950 . S
H2629 C2656 0.950 . S
H2630 C2659 0.950 . S
H2631 C2660 0.950 . S
H2632 C2662 0.950 . S
H2633 C2663 0.950 . S
C2634 H2616 0.951 . S
C2634 C2635 1.366 . S
C2634 C2636 1.388 . S
C2635 C2634 1.366 . S
C2635 C2639 1.385 . S
C2636 H2617 0.951 . S
C2636 C2634 1.388 . S
C2636 C2637 1.366 . S
C2637 C2636 1.366 . S
C2637 C2638 1.414 . S
C2637 C2640 1.499 . S
C2638 H2618 0.950 . S
C2638 C2637 1.414 . S
C2638 C2639 1.374 . S
C2639 H2619 0.950 . S
C2639 C2635 1.385 . S
C2639 C2638 1.374 . S
C2640 C2637 1.499 . S
C2640 C2641 1.373 . S
C2640 C2642 1.389 . S
C2641 H2620 0.950 . S
C2641 C2640 1.373 . S
C2641 C2657 1.377 . S
C2642 C2640 1.389 . S
C2642 C2643 1.524 . S
C2642 C2656 1.377 . S
C2643 C2642 1.524 . S
C2643 C2644 1.397 . S
C2643 C2648 1.363 . S
C2644 H2621 0.950 . S
C2644 C2643 1.397 . S
C2644 C2645 1.334 . S
C2645 H2622 0.950 . S
C2645 C2644 1.334 . S
C2645 C2646 1.287 . S
C2646 C2645 1.287 . S
C2646 C2647 1.524 . S
C2646 H2665 0.913 . S
C2647 H2623 0.950 . S
C2647 C2646 1.524 . S
C2647 C2648 1.415 . S
C2648 H2624 0.950 . S
C2648 C2643 1.363 . S
C2648 C2647 1.415 . S
C2649 H2625 0.951 . S
C2649 C2650 1.366 . S
C2649 C2651 1.388 . S
C2650 C2649 1.366 . S
C2650 C2654 1.385 . S
C2651 H2626 0.951 . S
C2651 C2649 1.388 . S
C2651 C2652 1.366 . S
C2652 C2651 1.366 . S
C2652 C2653 1.414 . S
C2652 C2655 1.499 . S
C2653 H2627 0.950 . S
C2653 C2652 1.414 . S
C2653 C2654 1.374 . S
C2654 H2628 0.950 . S
C2654 C2650 1.385 . S
C2654 C2653 1.374 . S
C2655 C2652 1.499 . S
C2655 C2656 1.373 . S
C2655 C2657 1.389 . S
C2656 H2629 0.950 . S
C2656 C2642 1.377 . S
C2656 C2655 1.373 . S
C2657 C2641 1.377 . S
C2657 C2655 1.389 . S
C2657 C2658 1.524 . S
C2658 C2657 1.524 . S
C2658 C2659 1.397 . S
C2658 C2663 1.363 . S
C2659 H2630 0.950 . S
C2659 C2658 1.397 . S
C2659 C2660 1.334 . S
C2660 H2631 0.950 . S
C2660 C2659 1.334 . S
C2660 C2661 1.287 . S
C2661 C2660 1.287 . S
C2661 C2662 1.524 . S
C2661 H2664 0.999 . S
C2662 H2632 0.950 . S
C2662 C2661 1.524 . S
C2662 C2663 1.415 . S
C2663 H2633 0.950 . S
C2663 C2658 1.363 . S
C2663 C2662 1.415 . S
H2664 C2661 0.999 . S
H2665 C2646 0.913 . S
H2666 C2684 0.951 . S
H2667 C2686 0.951 . S
H2668 C2688 0.950 . S
H2669 C2689 0.950 . S
H2670 C2691 0.950 . S
H2671 C2694 0.950 . S
H2672 C2695 0.950 . S
H2673 C2697 0.950 . S
H2674 C2698 0.950 . S
H2675 C2699 0.951 . S
H2676 C2701 0.951 . S
H2677 C2703 0.950 . S
H2678 C2704 0.950 . S
H2679 C2706 0.950 . S
H2680 C2709 0.950 . S
H2681 C2710 0.950 . S
H2682 C2712 0.950 . S
H2683 C2713 0.950 . S
C2684 H2666 0.951 . S
C2684 C2685 1.366 . S
C2684 C2686 1.388 . S
C2685 C2684 1.366 . S
C2685 C2689 1.385 . S
C2686 H2667 0.951 . S
C2686 C2684 1.388 . S
C2686 C2687 1.366 . S
C2687 C2686 1.366 . S
C2687 C2688 1.414 . S
C2687 C2690 1.499 . S
C2688 H2668 0.950 . S
C2688 C2687 1.414 . S
C2688 C2689 1.374 . S
C2689 H2669 0.950 . S
C2689 C2685 1.385 . S
C2689 C2688 1.374 . S
C2690 C2687 1.499 . S
C2690 C2691 1.373 . S
C2690 C2692 1.389 . S
C2691 H2670 0.950 . S
C2691 C2690 1.373 . S
C2691 C2707 1.377 . S
C2692 C2690 1.389 . S
C2692 C2693 1.524 . S
C2692 C2706 1.377 . S
C2693 C2692 1.524 . S
C2693 C2694 1.397 . S
C2693 C2698 1.363 . S
C2694 H2671 0.950 . S
C2694 C2693 1.397 . S
C2694 C2695 1.334 . S
C2695 H2672 0.950 . S
C2695 C2694 1.334 . S
C2695 C2696 1.287 . S
C2696 C2695 1.287 . S
C2696 C2697 1.524 . S
C2696 H2715 0.913 . S
C2697 H2673 0.950 . S
C2697 C2696 1.524 . S
C2697 C2698 1.415 . S
C2698 H2674 0.950 . S
C2698 C2693 1.363 . S
C2698 C2697 1.415 . S
C2699 H2675 0.951 . S
C2699 C2700 1.366 . S
C2699 C2701 1.388 . S
C2700 C2699 1.366 . S
C2700 C2704 1.385 . S
C2701 H2676 0.951 . S
C2701 C2699 1.388 . S
C2701 C2702 1.366 . S
C2702 C2701 1.366 . S
C2702 C2703 1.414 . S
C2702 C2705 1.499 . S
C2703 H2677 0.950 . S
C2703 C2702 1.414 . S
C2703 C2704 1.374 . S
C2704 H2678 0.950 . S
C2704 C2700 1.385 . S
C2704 C2703 1.374 . S
C2705 C2702 1.499 . S
C2705 C2706 1.373 . S
C2705 C2707 1.389 . S
C2706 H2679 0.950 . S
C2706 C2692 1.377 . S
C2706 C2705 1.373 . S
C2707 C2691 1.377 . S
C2707 C2705 1.389 . S
C2707 C2708 1.524 . S
C2708 C2707 1.524 . S
C2708 C2709 1.397 . S
C2708 C2713 1.363 . S
C2709 H2680 0.950 . S
C2709 C2708 1.397 . S
C2709 C2710 1.334 . S
C2710 H2681 0.950 . S
C2710 C2709 1.334 . S
C2710 C2711 1.287 . S
C2711 C2710 1.287 . S
C2711 C2712 1.524 . S
C2711 H2714 0.999 . S
C2712 H2682 0.950 . S
C2712 C2711 1.524 . S
C2712 C2713 1.415 . S
C2713 H2683 0.950 . S
C2713 C2708 1.363 . S
C2713 C2712 1.415 . S
H2714 C2711 0.999 . S
H2715 C2696 0.913 . S
H2716 C2734 0.951 . S
H2717 C2736 0.951 . S
H2718 C2738 0.950 . S
H2719 C2739 0.950 . S
H2720 C2741 0.950 . S
H2721 C2744 0.950 . S
H2722 C2745 0.950 . S
H2723 C2747 0.950 . S
H2724 C2748 0.950 . S
H2725 C2749 0.951 . S
H2726 C2751 0.951 . S
H2727 C2753 0.950 . S
H2728 C2754 0.950 . S
H2729 C2756 0.950 . S
H2730 C2759 0.950 . S
H2731 C2760 0.950 . S
H2732 C2762 0.950 . S
H2733 C2763 0.950 . S
C2734 H2716 0.951 . S
C2734 C2735 1.366 . S
C2734 C2736 1.388 . S
C2735 C2734 1.366 . S
C2735 C2739 1.385 . S
C2736 H2717 0.951 . S
C2736 C2734 1.388 . S
C2736 C2737 1.366 . S
C2737 C2736 1.366 . S
C2737 C2738 1.414 . S
C2737 C2740 1.499 . S
C2738 H2718 0.950 . S
C2738 C2737 1.414 . S
C2738 C2739 1.374 . S
C2739 H2719 0.950 . S
C2739 C2735 1.385 . S
C2739 C2738 1.374 . S
C2740 C2737 1.499 . S
C2740 C2741 1.373 . S
C2740 C2742 1.389 . S
C2741 H2720 0.950 . S
C2741 C2740 1.373 . S
C2741 C2757 1.377 . S
C2742 C2740 1.389 . S
C2742 C2743 1.524 . S
C2742 C2756 1.377 . S
C2743 C2742 1.524 . S
C2743 C2744 1.397 . S
C2743 C2748 1.363 . S
C2744 H2721 0.950 . S
C2744 C2743 1.397 . S
C2744 C2745 1.334 . S
C2745 H2722 0.950 . S
C2745 C2744 1.334 . S
C2745 C2746 1.287 . S
C2746 C2745 1.287 . S
C2746 C2747 1.524 . S
C2746 H2765 0.913 . S
C2747 H2723 0.950 . S
C2747 C2746 1.524 . S
C2747 C2748 1.415 . S
C2748 H2724 0.950 . S
C2748 C2743 1.363 . S
C2748 C2747 1.415 . S
C2749 H2725 0.951 . S
C2749 C2750 1.366 . S
C2749 C2751 1.388 . S
C2750 C2749 1.366 . S
C2750 C2754 1.385 . S
C2751 H2726 0.951 . S
C2751 C2749 1.388 . S
C2751 C2752 1.366 . S
C2752 C2751 1.366 . S
C2752 C2753 1.414 . S
C2752 C2755 1.499 . S
C2753 H2727 0.950 . S
C2753 C2752 1.414 . S
C2753 C2754 1.374 . S
C2754 H2728 0.950 . S
C2754 C2750 1.385 . S
C2754 C2753 1.374 . S
C2755 C2752 1.499 . S
C2755 C2756 1.373 . S
C2755 C2757 1.389 . S
C2756 H2729 0.950 . S
C2756 C2742 1.377 . S
C2756 C2755 1.373 . S
C2757 C2741 1.377 . S
C2757 C2755 1.389 . S
C2757 C2758 1.524 . S
C2758 C2757 1.524 . S
C2758 C2759 1.397 . S
C2758 C2763 1.363 . S
C2759 H2730 0.950 . S
C2759 C2758 1.397 . S
C2759 C2760 1.334 . S
C2760 H2731 0.950 . S
C2760 C2759 1.334 . S
C2760 C2761 1.287 . S
C2761 C2760 1.287 . S
C2761 C2762 1.524 . S
C2761 H2764 0.999 . S
C2762 H2732 0.950 . S
C2762 C2761 1.524 . S
C2762 C2763 1.415 . S
C2763 H2733 0.950 . S
C2763 C2758 1.363 . S
C2763 C2762 1.415 . S
H2764 C2761 0.999 . S
H2765 C2746 0.913 . S
H2766 C2784 0.951 . S
H2767 C2786 0.951 . S
H2768 C2788 0.950 1_655 S
H2769 C2789 0.950 . S
H2770 C2791 0.950 . S
H2771 C2794 0.950 . S
H2772 C2795 0.950 . S
H2773 C2797 0.950 . S
H2774 C2798 0.950 . S
H2775 C2799 0.951 . S
H2776 C2801 0.951 . S
H2777 C2803 0.950 . S
H2778 C2804 0.950 . S
H2779 C2806 0.950 . S
H2780 C2809 0.950 . S
H2781 C2810 0.950 . S
H2782 C2812 0.950 . S
H2783 C2813 0.950 . S
C2784 H2766 0.951 . S
C2784 C2785 1.366 . S
C2784 C2786 1.388 . S
C2785 C2784 1.366 . S
C2785 C2789 1.385 . S
C2786 H2767 0.951 . S
C2786 C2784 1.388 . S
C2786 C2787 1.366 . S
C2787 C2786 1.366 . S
C2787 C2788 1.414 . S
C2787 C2790 1.499 1_455 S
C2788 H2768 0.950 1_455 S
C2788 C2787 1.414 . S
C2788 C2789 1.374 . S
C2789 H2769 0.950 . S
C2789 C2785 1.385 . S
C2789 C2788 1.374 . S
C2790 C2787 1.499 1_655 S
C2790 C2791 1.373 . S
C2790 C2792 1.389 . S
C2791 H2770 0.950 . S
C2791 C2790 1.373 . S
C2791 C2807 1.377 . S
C2792 C2790 1.389 . S
C2792 C2793 1.524 . S
C2792 C2806 1.377 . S
C2793 C2792 1.524 . S
C2793 C2794 1.397 . S
C2793 C2798 1.363 . S
C2794 H2771 0.950 . S
C2794 C2793 1.397 . S
C2794 C2795 1.334 1_655 S
C2795 H2772 0.950 . S
C2795 C2794 1.334 1_455 S
C2795 C2796 1.287 . S
C2796 C2795 1.287 . S
C2796 C2797 1.524 . S
C2796 H2815 0.913 . S
C2797 H2773 0.950 . S
C2797 C2796 1.524 . S
C2797 C2798 1.415 1_455 S
C2798 H2774 0.950 . S
C2798 C2793 1.363 . S
C2798 C2797 1.415 1_655 S
C2799 H2775 0.951 . S
C2799 C2800 1.366 . S
C2799 C2801 1.388 . S
C2800 C2799 1.366 . S
C2800 C2804 1.385 . S
C2801 H2776 0.951 . S
C2801 C2799 1.388 . S
C2801 C2802 1.366 . S
C2802 C2801 1.366 . S
C2802 C2803 1.414 . S
C2802 C2805 1.499 . S
C2803 H2777 0.950 . S
C2803 C2802 1.414 . S
C2803 C2804 1.374 . S
C2804 H2778 0.950 . S
C2804 C2800 1.385 . S
C2804 C2803 1.374 . S
C2805 C2802 1.499 . S
C2805 C2806 1.373 . S
C2805 C2807 1.389 . S
C2806 H2779 0.950 . S
C2806 C2792 1.377 . S
C2806 C2805 1.373 . S
C2807 C2791 1.377 . S
C2807 C2805 1.389 . S
C2807 C2808 1.524 . S
C2808 C2807 1.524 . S
C2808 C2809 1.397 . S
C2808 C2813 1.363 . S
C2809 H2780 0.950 . S
C2809 C2808 1.397 . S
C2809 C2810 1.334 . S
C2810 H2781 0.950 . S
C2810 C2809 1.334 . S
C2810 C2811 1.287 . S
C2811 C2810 1.287 . S
C2811 C2812 1.524 . S
C2811 H2814 0.999 . S
C2812 H2782 0.950 . S
C2812 C2811 1.524 . S
C2812 C2813 1.415 . S
C2813 H2783 0.950 . S
C2813 C2808 1.363 . S
C2813 C2812 1.415 . S
H2814 C2811 0.999 . S
H2815 C2796 0.913 . S
H2816 C2834 0.951 . S
H2817 C2836 0.951 . S
H2818 C2838 0.950 . S
H2819 C2839 0.950 . S
H2820 C2841 0.950 . S
H2821 C2844 0.950 . S
H2822 C2845 0.950 . S
H2823 C2847 0.950 . S
H2824 C2848 0.950 . S
H2825 C2849 0.951 . S
H2826 C2851 0.951 . S
H2827 C2853 0.950 . S
H2828 C2854 0.950 . S
H2829 C2856 0.950 . S
H2830 C2859 0.950 . S
H2831 C2860 0.950 . S
H2832 C2862 0.950 . S
H2833 C2863 0.950 . S
C2834 H2816 0.951 . S
C2834 C2835 1.366 . S
C2834 C2836 1.388 . S
C2835 C2834 1.366 . S
C2835 C2839 1.385 . S
C2836 H2817 0.951 . S
C2836 C2834 1.388 . S
C2836 C2837 1.366 . S
C2837 C2836 1.366 . S
C2837 C2838 1.414 . S
C2837 C2840 1.499 . S
C2838 H2818 0.950 . S
C2838 C2837 1.414 . S
C2838 C2839 1.374 . S
C2839 H2819 0.950 . S
C2839 C2835 1.385 . S
C2839 C2838 1.374 . S
C2840 C2837 1.499 . S
C2840 C2841 1.373 . S
C2840 C2842 1.389 . S
C2841 H2820 0.950 . S
C2841 C2840 1.373 . S
C2841 C2857 1.377 . S
C2842 C2840 1.389 . S
C2842 C2843 1.524 . S
C2842 C2856 1.377 . S
C2843 C2842 1.524 . S
C2843 C2844 1.397 . S
C2843 C2848 1.363 . S
C2844 H2821 0.950 . S
C2844 C2843 1.397 . S
C2844 C2845 1.334 . S
C2845 H2822 0.950 . S
C2845 C2844 1.334 . S
C2845 C2846 1.287 . S
C2846 C2845 1.287 . S
C2846 C2847 1.524 . S
C2846 H2865 0.913 . S
C2847 H2823 0.950 . S
C2847 C2846 1.524 . S
C2847 C2848 1.415 . S
C2848 H2824 0.950 . S
C2848 C2843 1.363 . S
C2848 C2847 1.415 . S
C2849 H2825 0.951 . S
C2849 C2850 1.366 . S
C2849 C2851 1.388 . S
C2850 C2849 1.366 . S
C2850 C2854 1.385 . S
C2851 H2826 0.951 . S
C2851 C2849 1.388 . S
C2851 C2852 1.366 . S
C2852 C2851 1.366 . S
C2852 C2853 1.414 . S
C2852 C2855 1.499 . S
C2853 H2827 0.950 . S
C2853 C2852 1.414 . S
C2853 C2854 1.374 . S
C2854 H2828 0.950 . S
C2854 C2850 1.385 . S
C2854 C2853 1.374 . S
C2855 C2852 1.499 . S
C2855 C2856 1.373 . S
C2855 C2857 1.389 . S
C2856 H2829 0.950 . S
C2856 C2842 1.377 . S
C2856 C2855 1.373 . S
C2857 C2841 1.377 . S
C2857 C2855 1.389 . S
C2857 C2858 1.524 . S
C2858 C2857 1.524 . S
C2858 C2859 1.397 . S
C2858 C2863 1.363 . S
C2859 H2830 0.950 . S
C2859 C2858 1.397 . S
C2859 C2860 1.334 . S
C2860 H2831 0.950 . S
C2860 C2859 1.334 . S
C2860 C2861 1.287 . S
C2861 C2860 1.287 . S
C2861 C2862 1.524 . S
C2861 H2864 0.999 . S
C2862 H2832 0.950 . S
C2862 C2861 1.524 . S
C2862 C2863 1.415 . S
C2863 H2833 0.950 . S
C2863 C2858 1.363 . S
C2863 C2862 1.415 . S
H2864 C2861 0.999 . S
H2865 C2846 0.913 . S
H2866 C2884 0.951 . S
H2867 C2886 0.951 . S
H2868 C2888 0.950 . S
H2869 C2889 0.950 . S
H2870 C2891 0.950 . S
H2871 C2894 0.950 . S
H2872 C2895 0.950 . S
H2873 C2897 0.950 . S
H2874 C2898 0.950 . S
H2875 C2899 0.951 . S
H2876 C2901 0.951 . S
H2877 C2903 0.950 . S
H2878 C2904 0.950 . S
H2879 C2906 0.950 . S
H2880 C2909 0.950 . S
H2881 C2910 0.950 . S
H2882 C2912 0.950 . S
H2883 C2913 0.950 . S
C2884 H2866 0.951 . S
C2884 C2885 1.366 . S
C2884 C2886 1.388 . S
C2885 C2884 1.366 . S
C2885 C2889 1.385 . S
C2886 H2867 0.951 . S
C2886 C2884 1.388 . S
C2886 C2887 1.366 . S
C2887 C2886 1.366 . S
C2887 C2888 1.414 . S
C2887 C2890 1.499 . S
C2888 H2868 0.950 . S
C2888 C2887 1.414 . S
C2888 C2889 1.374 . S
C2889 H2869 0.950 . S
C2889 C2885 1.385 . S
C2889 C2888 1.374 . S
C2890 C2887 1.499 . S
C2890 C2891 1.373 . S
C2890 C2892 1.389 . S
C2891 H2870 0.950 . S
C2891 C2890 1.373 . S
C2891 C2907 1.377 . S
C2892 C2890 1.389 . S
C2892 C2893 1.524 . S
C2892 C2906 1.377 . S
C2893 C2892 1.524 . S
C2893 C2894 1.397 . S
C2893 C2898 1.363 . S
C2894 H2871 0.950 . S
C2894 C2893 1.397 . S
C2894 C2895 1.334 . S
C2895 H2872 0.950 . S
C2895 C2894 1.334 . S
C2895 C2896 1.287 . S
C2896 C2895 1.287 . S
C2896 C2897 1.524 . S
C2896 H2915 0.913 . S
C2897 H2873 0.950 . S
C2897 C2896 1.524 . S
C2897 C2898 1.415 . S
C2898 H2874 0.950 . S
C2898 C2893 1.363 . S
C2898 C2897 1.415 . S
C2899 H2875 0.951 . S
C2899 C2900 1.366 . S
C2899 C2901 1.388 . S
C2900 C2899 1.366 . S
C2900 C2904 1.385 . S
C2901 H2876 0.951 . S
C2901 C2899 1.388 . S
C2901 C2902 1.366 . S
C2902 C2901 1.366 . S
C2902 C2903 1.414 . S
C2902 C2905 1.499 . S
C2903 H2877 0.950 . S
C2903 C2902 1.414 . S
C2903 C2904 1.374 . S
C2904 H2878 0.950 . S
C2904 C2900 1.385 . S
C2904 C2903 1.374 . S
C2905 C2902 1.499 . S
C2905 C2906 1.373 . S
C2905 C2907 1.389 . S
C2906 H2879 0.950 . S
C2906 C2892 1.377 . S
C2906 C2905 1.373 . S
C2907 C2891 1.377 . S
C2907 C2905 1.389 . S
C2907 C2908 1.524 . S
C2908 C2907 1.524 . S
C2908 C2909 1.397 . S
C2908 C2913 1.363 . S
C2909 H2880 0.950 . S
C2909 C2908 1.397 . S
C2909 C2910 1.334 . S
C2910 H2881 0.950 . S
C2910 C2909 1.334 . S
C2910 C2911 1.287 . S
C2911 C2910 1.287 . S
C2911 C2912 1.524 . S
C2911 H2914 0.999 . S
C2912 H2882 0.950 . S
C2912 C2911 1.524 . S
C2912 C2913 1.415 . S
C2913 H2883 0.950 . S
C2913 C2908 1.363 . S
C2913 C2912 1.415 . S
H2914 C2911 0.999 . S
H2915 C2896 0.913 . S
H2916 C2934 0.951 . S
H2917 C2936 0.951 . S
H2918 C2938 0.950 . S
H2919 C2939 0.950 . S
H2920 C2941 0.950 . S
H2921 C2944 0.950 . S
H2922 C2945 0.950 . S
H2923 C2947 0.950 . S
H2924 C2948 0.950 . S
H2925 C2949 0.951 . S
H2926 C2951 0.951 . S
H2927 C2953 0.950 . S
H2928 C2954 0.950 . S
H2929 C2956 0.950 . S
H2930 C2959 0.950 . S
H2931 C2960 0.950 . S
H2932 C2962 0.950 . S
H2933 C2963 0.950 . S
C2934 H2916 0.951 . S
C2934 C2935 1.366 . S
C2934 C2936 1.388 . S
C2935 C2934 1.366 . S
C2935 C2939 1.385 . S
C2936 H2917 0.951 . S
C2936 C2934 1.388 . S
C2936 C2937 1.366 . S
C2937 C2936 1.366 . S
C2937 C2938 1.414 . S
C2937 C2940 1.499 . S
C2938 H2918 0.950 . S
C2938 C2937 1.414 . S
C2938 C2939 1.374 . S
C2939 H2919 0.950 . S
C2939 C2935 1.385 . S
C2939 C2938 1.374 . S
C2940 C2937 1.499 . S
C2940 C2941 1.373 . S
C2940 C2942 1.389 . S
C2941 H2920 0.950 . S
C2941 C2940 1.373 . S
C2941 C2957 1.377 . S
C2942 C2940 1.389 . S
C2942 C2943 1.524 . S
C2942 C2956 1.377 . S
C2943 C2942 1.524 . S
C2943 C2944 1.397 . S
C2943 C2948 1.363 . S
C2944 H2921 0.950 . S
C2944 C2943 1.397 . S
C2944 C2945 1.334 . S
C2945 H2922 0.950 . S
C2945 C2944 1.334 . S
C2945 C2946 1.287 . S
C2946 C2945 1.287 . S
C2946 C2947 1.524 . S
C2946 H2965 0.913 . S
C2947 H2923 0.950 . S
C2947 C2946 1.524 . S
C2947 C2948 1.415 . S
C2948 H2924 0.950 . S
C2948 C2943 1.363 . S
C2948 C2947 1.415 . S
C2949 H2925 0.951 . S
C2949 C2950 1.366 . S
C2949 C2951 1.388 . S
C2950 C2949 1.366 . S
C2950 C2954 1.385 . S
C2951 H2926 0.951 . S
C2951 C2949 1.388 . S
C2951 C2952 1.366 . S
C2952 C2951 1.366 . S
C2952 C2953 1.414 . S
C2952 C2955 1.499 . S
C2953 H2927 0.950 . S
C2953 C2952 1.414 . S
C2953 C2954 1.374 . S
C2954 H2928 0.950 . S
C2954 C2950 1.385 . S
C2954 C2953 1.374 . S
C2955 C2952 1.499 . S
C2955 C2956 1.373 . S
C2955 C2957 1.389 . S
C2956 H2929 0.950 . S
C2956 C2942 1.377 . S
C2956 C2955 1.373 . S
C2957 C2941 1.377 . S
C2957 C2955 1.389 . S
C2957 C2958 1.524 . S
C2958 C2957 1.524 . S
C2958 C2959 1.397 . S
C2958 C2963 1.363 . S
C2959 H2930 0.950 . S
C2959 C2958 1.397 . S
C2959 C2960 1.334 . S
C2960 H2931 0.950 . S
C2960 C2959 1.334 . S
C2960 C2961 1.287 . S
C2961 C2960 1.287 . S
C2961 C2962 1.524 . S
C2961 H2964 0.999 . S
C2962 H2932 0.950 . S
C2962 C2961 1.524 . S
C2962 C2963 1.415 . S
C2963 H2933 0.950 . S
C2963 C2958 1.363 . S
C2963 C2962 1.415 . S
H2964 C2961 0.999 . S
H2965 C2946 0.913 . S
H2966 C2984 0.951 . S
H2967 C2986 0.951 . S
H2968 C2988 0.950 . S
H2969 C2989 0.950 . S
H2970 C2991 0.950 . S
H2971 C2994 0.950 . S
H2972 C2995 0.950 . S
H2973 C2997 0.950 . S
H2974 C2998 0.950 . S
H2975 C2999 0.951 . S
H2976 C3001 0.951 . S
H2977 C3003 0.950 1_655 S
H2978 C3004 0.950 . S
H2979 C3006 0.950 . S
H2980 C3009 0.950 . S
H2981 C3010 0.950 . S
H2982 C3012 0.950 . S
H2983 C3013 0.950 . S
C2984 H2966 0.951 . S
C2984 C2985 1.366 . S
C2984 C2986 1.388 . S
C2985 C2984 1.366 . S
C2985 C2989 1.385 . S
C2986 H2967 0.951 . S
C2986 C2984 1.388 . S
C2986 C2987 1.366 . S
C2987 C2986 1.366 . S
C2987 C2988 1.414 . S
C2987 C2990 1.499 . S
C2988 H2968 0.950 . S
C2988 C2987 1.414 . S
C2988 C2989 1.374 . S
C2989 H2969 0.950 . S
C2989 C2985 1.385 . S
C2989 C2988 1.374 . S
C2990 C2987 1.499 . S
C2990 C2991 1.373 . S
C2990 C2992 1.389 . S
C2991 H2970 0.950 . S
C2991 C2990 1.373 . S
C2991 C3007 1.377 . S
C2992 C2990 1.389 . S
C2992 C2993 1.524 . S
C2992 C3006 1.377 . S
C2993 C2992 1.524 . S
C2993 C2994 1.397 . S
C2993 C2998 1.363 . S
C2994 H2971 0.950 . S
C2994 C2993 1.397 . S
C2994 C2995 1.334 . S
C2995 H2972 0.950 . S
C2995 C2994 1.334 . S
C2995 C2996 1.287 . S
C2996 C2995 1.287 . S
C2996 C2997 1.524 . S
C2996 H3015 0.913 . S
C2997 H2973 0.950 . S
C2997 C2996 1.524 . S
C2997 C2998 1.415 . S
C2998 H2974 0.950 . S
C2998 C2993 1.363 . S
C2998 C2997 1.415 . S
C2999 H2975 0.951 . S
C2999 C3000 1.366 . S
C2999 C3001 1.388 . S
C3000 C2999 1.366 . S
C3000 C3004 1.385 . S
C3001 H2976 0.951 . S
C3001 C2999 1.388 . S
C3001 C3002 1.366 . S
C3002 C3001 1.366 . S
C3002 C3003 1.414 . S
C3002 C3005 1.499 1_455 S
C3003 H2977 0.950 1_455 S
C3003 C3002 1.414 . S
C3003 C3004 1.374 . S
C3004 H2978 0.950 . S
C3004 C3000 1.385 . S
C3004 C3003 1.374 . S
C3005 C3002 1.499 1_655 S
C3005 C3006 1.373 . S
C3005 C3007 1.389 . S
C3006 H2979 0.950 . S
C3006 C2992 1.377 . S
C3006 C3005 1.373 . S
C3007 C2991 1.377 . S
C3007 C3005 1.389 . S
C3007 C3008 1.524 . S
C3008 C3007 1.524 . S
C3008 C3009 1.397 1_655 S
C3008 C3013 1.363 . S
C3009 H2980 0.950 . S
C3009 C3008 1.397 1_455 S
C3009 C3010 1.334 . S
C3010 H2981 0.950 . S
C3010 C3009 1.334 . S
C3010 C3011 1.287 . S
C3011 C3010 1.287 . S
C3011 C3012 1.524 . S
C3011 H3014 0.999 . S
C3012 H2982 0.950 . S
C3012 C3011 1.524 . S
C3012 C3013 1.415 1_455 S
C3013 H2983 0.950 . S
C3013 C3008 1.363 . S
C3013 C3012 1.415 1_655 S
H3014 C3011 0.999 . S
H3015 C2996 0.913 . S
H3016 C3034 0.951 . S
H3017 C3036 0.951 . S
H3018 C3038 0.950 . S
H3019 C3039 0.950 . S
H3020 C3041 0.950 . S
H3021 C3044 0.950 . S
H3022 C3045 0.950 . S
H3023 C3047 0.950 . S
H3024 C3048 0.950 . S
H3025 C3049 0.951 . S
H3026 C3051 0.951 . S
H3027 C3053 0.950 . S
H3028 C3054 0.950 . S
H3029 C3056 0.950 . S
H3030 C3059 0.950 . S
H3031 C3060 0.950 . S
H3032 C3062 0.950 . S
H3033 C3063 0.950 . S
C3034 H3016 0.951 . S
C3034 C3035 1.366 . S
C3034 C3036 1.388 . S
C3035 C3034 1.366 . S
C3035 C3039 1.385 . S
C3036 H3017 0.951 . S
C3036 C3034 1.388 . S
C3036 C3037 1.366 . S
C3037 C3036 1.366 . S
C3037 C3038 1.414 . S
C3037 C3040 1.499 . S
C3038 H3018 0.950 . S
C3038 C3037 1.414 . S
C3038 C3039 1.374 . S
C3039 H3019 0.950 . S
C3039 C3035 1.385 . S
C3039 C3038 1.374 . S
C3040 C3037 1.499 . S
C3040 C3041 1.373 . S
C3040 C3042 1.389 . S
C3041 H3020 0.950 . S
C3041 C3040 1.373 . S
C3041 C3057 1.377 . S
C3042 C3040 1.389 . S
C3042 C3043 1.524 . S
C3042 C3056 1.377 . S
C3043 C3042 1.524 . S
C3043 C3044 1.397 . S
C3043 C3048 1.363 . S
C3044 H3021 0.950 . S
C3044 C3043 1.397 . S
C3044 C3045 1.334 . S
C3045 H3022 0.950 . S
C3045 C3044 1.334 . S
C3045 C3046 1.287 . S
C3046 C3045 1.287 . S
C3046 C3047 1.524 . S
C3046 H3065 0.913 . S
C3047 H3023 0.950 . S
C3047 C3046 1.524 . S
C3047 C3048 1.415 . S
C3048 H3024 0.950 . S
C3048 C3043 1.363 . S
C3048 C3047 1.415 . S
C3049 H3025 0.951 . S
C3049 C3050 1.366 . S
C3049 C3051 1.388 . S
C3050 C3049 1.366 . S
C3050 C3054 1.385 . S
C3051 H3026 0.951 . S
C3051 C3049 1.388 . S
C3051 C3052 1.366 . S
C3052 C3051 1.366 . S
C3052 C3053 1.414 . S
C3052 C3055 1.499 . S
C3053 H3027 0.950 . S
C3053 C3052 1.414 . S
C3053 C3054 1.374 . S
C3054 H3028 0.950 . S
C3054 C3050 1.385 . S
C3054 C3053 1.374 . S
C3055 C3052 1.499 . S
C3055 C3056 1.373 . S
C3055 C3057 1.389 . S
C3056 H3029 0.950 . S
C3056 C3042 1.377 . S
C3056 C3055 1.373 . S
C3057 C3041 1.377 . S
C3057 C3055 1.389 . S
C3057 C3058 1.524 . S
C3058 C3057 1.524 . S
C3058 C3059 1.397 . S
C3058 C3063 1.363 . S
C3059 H3030 0.950 . S
C3059 C3058 1.397 . S
C3059 C3060 1.334 . S
C3060 H3031 0.950 . S
C3060 C3059 1.334 . S
C3060 C3061 1.287 . S
C3061 C3060 1.287 . S
C3061 C3062 1.524 . S
C3061 H3064 0.999 . S
C3062 H3032 0.950 . S
C3062 C3061 1.524 . S
C3062 C3063 1.415 . S
C3063 H3033 0.950 . S
C3063 C3058 1.363 . S
C3063 C3062 1.415 . S
H3064 C3061 0.999 . S
H3065 C3046 0.913 . S
H3066 C3084 0.951 . S
H3067 C3086 0.951 1_655 S
H3068 C3088 0.950 . S
H3069 C3089 0.950 . S
H3070 C3091 0.950 . S
H3071 C3094 0.950 . S
H3072 C3095 0.950 . S
H3073 C3097 0.950 . S
H3074 C3098 0.950 . S
H3075 C3099 0.951 . S
H3076 C3101 0.951 . S
H3077 C3103 0.950 . S
H3078 C3104 0.950 . S
H3079 C3106 0.950 . S
H3080 C3109 0.950 . S
H3081 C3110 0.950 . S
H3082 C3112 0.950 . S
H3083 C3113 0.950 . S
C3084 H3066 0.951 . S
C3084 C3085 1.366 . S
C3084 C3086 1.388 . S
C3085 C3084 1.366 . S
C3085 C3089 1.385 . S
C3086 H3067 0.951 1_455 S
C3086 C3084 1.388 . S
C3086 C3087 1.366 . S
C3087 C3086 1.366 . S
C3087 C3088 1.414 . S
C3087 C3090 1.499 1_455 S
C3088 H3068 0.950 . S
C3088 C3087 1.414 . S
C3088 C3089 1.374 . S
C3089 H3069 0.950 . S
C3089 C3085 1.385 . S
C3089 C3088 1.374 . S
C3090 C3087 1.499 1_655 S
C3090 C3091 1.373 . S
C3090 C3092 1.389 . S
C3091 H3070 0.950 . S
C3091 C3090 1.373 . S
C3091 C3107 1.377 . S
C3092 C3090 1.389 . S
C3092 C3093 1.524 . S
C3092 C3106 1.377 . S
C3093 C3092 1.524 . S
C3093 C3094 1.397 . S
C3093 C3098 1.363 . S
C3094 H3071 0.950 . S
C3094 C3093 1.397 . S
C3094 C3095 1.334 . S
C3095 H3072 0.950 . S
C3095 C3094 1.334 . S
C3095 C3096 1.287 . S
C3096 C3095 1.287 . S
C3096 C3097 1.524 . S
C3096 H3115 0.913 . S
C3097 H3073 0.950 . S
C3097 C3096 1.524 . S
C3097 C3098 1.415 . S
C3098 H3074 0.950 . S
C3098 C3093 1.363 . S
C3098 C3097 1.415 . S
C3099 H3075 0.951 . S
C3099 C3100 1.366 . S
C3099 C3101 1.388 . S
C3100 C3099 1.366 . S
C3100 C3104 1.385 . S
C3101 H3076 0.951 . S
C3101 C3099 1.388 . S
C3101 C3102 1.366 . S
C3102 C3101 1.366 . S
C3102 C3103 1.414 . S
C3102 C3105 1.499 . S
C3103 H3077 0.950 . S
C3103 C3102 1.414 . S
C3103 C3104 1.374 . S
C3104 H3078 0.950 . S
C3104 C3100 1.385 . S
C3104 C3103 1.374 . S
C3105 C3102 1.499 . S
C3105 C3106 1.373 . S
C3105 C3107 1.389 . S
C3106 H3079 0.950 . S
C3106 C3092 1.377 . S
C3106 C3105 1.373 . S
C3107 C3091 1.377 . S
C3107 C3105 1.389 . S
C3107 C3108 1.524 . S
C3108 C3107 1.524 . S
C3108 C3109 1.397 . S
C3108 C3113 1.363 . S
C3109 H3080 0.950 . S
C3109 C3108 1.397 . S
C3109 C3110 1.334 . S
C3110 H3081 0.950 . S
C3110 C3109 1.334 . S
C3110 C3111 1.287 . S
C3111 C3110 1.287 . S
C3111 C3112 1.524 . S
C3111 H3114 0.999 . S
C3112 H3082 0.950 . S
C3112 C3111 1.524 . S
C3112 C3113 1.415 . S
C3113 H3083 0.950 . S
C3113 C3108 1.363 . S
C3113 C3112 1.415 . S
H3114 C3111 0.999 . S
H3115 C3096 0.913 . S
H3116 C3134 0.951 . S
H3117 C3136 0.951 . S
H3118 C3138 0.950 . S
H3119 C3139 0.950 . S
H3120 C3141 0.950 . S
H3121 C3144 0.950 . S
H3122 C3145 0.950 . S
H3123 C3147 0.950 . S
H3124 C3148 0.950 . S
H3125 C3149 0.951 . S
H3126 C3151 0.951 . S
H3127 C3153 0.950 . S
H3128 C3154 0.950 . S
H3129 C3156 0.950 . S
H3130 C3159 0.950 . S
H3131 C3160 0.950 . S
H3132 C3162 0.950 . S
H3133 C3163 0.950 . S
C3134 H3116 0.951 . S
C3134 C3135 1.366 . S
C3134 C3136 1.388 . S
C3135 C3134 1.366 . S
C3135 C3139 1.385 . S
C3136 H3117 0.951 . S
C3136 C3134 1.388 . S
C3136 C3137 1.366 . S
C3137 C3136 1.366 . S
C3137 C3138 1.414 . S
C3137 C3140 1.499 . S
C3138 H3118 0.950 . S
C3138 C3137 1.414 . S
C3138 C3139 1.374 . S
C3139 H3119 0.950 . S
C3139 C3135 1.385 . S
C3139 C3138 1.374 . S
C3140 C3137 1.499 . S
C3140 C3141 1.373 . S
C3140 C3142 1.389 . S
C3141 H3120 0.950 . S
C3141 C3140 1.373 . S
C3141 C3157 1.377 . S
C3142 C3140 1.389 . S
C3142 C3143 1.524 . S
C3142 C3156 1.377 . S
C3143 C3142 1.524 . S
C3143 C3144 1.397 . S
C3143 C3148 1.363 . S
C3144 H3121 0.950 . S
C3144 C3143 1.397 . S
C3144 C3145 1.334 . S
C3145 H3122 0.950 . S
C3145 C3144 1.334 . S
C3145 C3146 1.287 . S
C3146 C3145 1.287 . S
C3146 C3147 1.524 . S
C3146 H3165 0.913 . S
C3147 H3123 0.950 . S
C3147 C3146 1.524 . S
C3147 C3148 1.415 . S
C3148 H3124 0.950 . S
C3148 C3143 1.363 . S
C3148 C3147 1.415 . S
C3149 H3125 0.951 . S
C3149 C3150 1.366 . S
C3149 C3151 1.388 . S
C3150 C3149 1.366 . S
C3150 C3154 1.385 . S
C3151 H3126 0.951 . S
C3151 C3149 1.388 . S
C3151 C3152 1.366 . S
C3152 C3151 1.366 . S
C3152 C3153 1.414 . S
C3152 C3155 1.499 . S
C3153 H3127 0.950 . S
C3153 C3152 1.414 . S
C3153 C3154 1.374 . S
C3154 H3128 0.950 . S
C3154 C3150 1.385 . S
C3154 C3153 1.374 . S
C3155 C3152 1.499 . S
C3155 C3156 1.373 . S
C3155 C3157 1.389 . S
C3156 H3129 0.950 . S
C3156 C3142 1.377 . S
C3156 C3155 1.373 . S
C3157 C3141 1.377 . S
C3157 C3155 1.389 . S
C3157 C3158 1.524 . S
C3158 C3157 1.524 . S
C3158 C3159 1.397 . S
C3158 C3163 1.363 . S
C3159 H3130 0.950 . S
C3159 C3158 1.397 . S
C3159 C3160 1.334 . S
C3160 H3131 0.950 . S
C3160 C3159 1.334 . S
C3160 C3161 1.287 . S
C3161 C3160 1.287 . S
C3161 C3162 1.524 . S
C3161 H3164 0.999 . S
C3162 H3132 0.950 . S
C3162 C3161 1.524 . S
C3162 C3163 1.415 . S
C3163 H3133 0.950 . S
C3163 C3158 1.363 . S
C3163 C3162 1.415 . S
H3164 C3161 0.999 . S
H3165 C3146 0.913 . S
H3166 C3184 0.951 . S
H3167 C3186 0.951 . S
H3168 C3188 0.950 . S
H3169 C3189 0.950 . S
H3170 C3191 0.950 . S
H3171 C3194 0.950 . S
H3172 C3195 0.950 . S
H3173 C3197 0.950 . S
H3174 C3198 0.950 . S
H3175 C3199 0.951 . S
H3176 C3201 0.951 . S
H3177 C3203 0.950 . S
H3178 C3204 0.950 . S
H3179 C3206 0.950 . S
H3180 C3209 0.950 . S
H3181 C3210 0.950 . S
H3182 C3212 0.950 . S
H3183 C3213 0.950 . S
C3184 H3166 0.951 . S
C3184 C3185 1.366 . S
C3184 C3186 1.388 . S
C3185 C3184 1.366 . S
C3185 C3189 1.385 . S
C3186 H3167 0.951 . S
C3186 C3184 1.388 . S
C3186 C3187 1.366 . S
C3187 C3186 1.366 . S
C3187 C3188 1.414 . S
C3187 C3190 1.499 . S
C3188 H3168 0.950 . S
C3188 C3187 1.414 . S
C3188 C3189 1.374 . S
C3189 H3169 0.950 . S
C3189 C3185 1.385 . S
C3189 C3188 1.374 . S
C3190 C3187 1.499 . S
C3190 C3191 1.373 . S
C3190 C3192 1.389 . S
C3191 H3170 0.950 . S
C3191 C3190 1.373 . S
C3191 C3207 1.377 . S
C3192 C3190 1.389 . S
C3192 C3193 1.524 . S
C3192 C3206 1.377 . S
C3193 C3192 1.524 . S
C3193 C3194 1.397 . S
C3193 C3198 1.363 . S
C3194 H3171 0.950 . S
C3194 C3193 1.397 . S
C3194 C3195 1.334 . S
C3195 H3172 0.950 . S
C3195 C3194 1.334 . S
C3195 C3196 1.287 . S
C3196 C3195 1.287 . S
C3196 C3197 1.524 . S
C3196 H3215 0.913 . S
C3197 H3173 0.950 . S
C3197 C3196 1.524 . S
C3197 C3198 1.415 . S
C3198 H3174 0.950 . S
C3198 C3193 1.363 . S
C3198 C3197 1.415 . S
C3199 H3175 0.951 . S
C3199 C3200 1.366 . S
C3199 C3201 1.388 . S
C3200 C3199 1.366 . S
C3200 C3204 1.385 . S
C3201 H3176 0.951 . S
C3201 C3199 1.388 . S
C3201 C3202 1.366 . S
C3202 C3201 1.366 . S
C3202 C3203 1.414 . S
C3202 C3205 1.499 . S
C3203 H3177 0.950 . S
C3203 C3202 1.414 . S
C3203 C3204 1.374 . S
C3204 H3178 0.950 . S
C3204 C3200 1.385 . S
C3204 C3203 1.374 . S
C3205 C3202 1.499 . S
C3205 C3206 1.373 . S
C3205 C3207 1.389 . S
C3206 H3179 0.950 . S
C3206 C3192 1.377 . S
C3206 C3205 1.373 . S
C3207 C3191 1.377 . S
C3207 C3205 1.389 . S
C3207 C3208 1.524 . S
C3208 C3207 1.524 . S
C3208 C3209 1.397 . S
C3208 C3213 1.363 . S
C3209 H3180 0.950 . S
C3209 C3208 1.397 . S
C3209 C3210 1.334 . S
C3210 H3181 0.950 . S
C3210 C3209 1.334 . S
C3210 C3211 1.287 . S
C3211 C3210 1.287 . S
C3211 C3212 1.524 . S
C3211 H3214 0.999 . S
C3212 H3182 0.950 . S
C3212 C3211 1.524 . S
C3212 C3213 1.415 . S
C3213 H3183 0.950 . S
C3213 C3208 1.363 . S
C3213 C3212 1.415 . S
H3214 C3211 0.999 . S
H3215 C3196 0.913 . S
H3216 C3234 0.951 . S
H3217 C3236 0.951 . S
H3218 C3238 0.950 . S
H3219 C3239 0.950 . S
H3220 C3241 0.950 . S
H3221 C3244 0.950 . S
H3222 C3245 0.950 . S
H3223 C3247 0.950 . S
H3224 C3248 0.950 . S
H3225 C3249 0.951 . S
H3226 C3251 0.951 . S
H3227 C3253 0.950 . S
H3228 C3254 0.950 . S
H3229 C3256 0.950 . S
H3230 C3259 0.950 . S
H3231 C3260 0.950 . S
H3232 C3262 0.950 . S
H3233 C3263 0.950 . S
C3234 H3216 0.951 . S
C3234 C3235 1.366 . S
C3234 C3236 1.388 . S
C3235 C3234 1.366 . S
C3235 C3239 1.385 . S
C3236 H3217 0.951 . S
C3236 C3234 1.388 . S
C3236 C3237 1.366 . S
C3237 C3236 1.366 . S
C3237 C3238 1.414 . S
C3237 C3240 1.499 . S
C3238 H3218 0.950 . S
C3238 C3237 1.414 . S
C3238 C3239 1.374 . S
C3239 H3219 0.950 . S
C3239 C3235 1.385 . S
C3239 C3238 1.374 . S
C3240 C3237 1.499 . S
C3240 C3241 1.373 . S
C3240 C3242 1.389 . S
C3241 H3220 0.950 . S
C3241 C3240 1.373 . S
C3241 C3257 1.377 . S
C3242 C3240 1.389 . S
C3242 C3243 1.524 . S
C3242 C3256 1.377 . S
C3243 C3242 1.524 . S
C3243 C3244 1.397 . S
C3243 C3248 1.363 . S
C3244 H3221 0.950 . S
C3244 C3243 1.397 . S
C3244 C3245 1.334 . S
C3245 H3222 0.950 . S
C3245 C3244 1.334 . S
C3245 C3246 1.287 . S
C3246 C3245 1.287 . S
C3246 C3247 1.524 . S
C3246 H3265 0.913 . S
C3247 H3223 0.950 . S
C3247 C3246 1.524 . S
C3247 C3248 1.415 . S
C3248 H3224 0.950 . S
C3248 C3243 1.363 . S
C3248 C3247 1.415 . S
C3249 H3225 0.951 . S
C3249 C3250 1.366 . S
C3249 C3251 1.388 . S
C3250 C3249 1.366 . S
C3250 C3254 1.385 . S
C3251 H3226 0.951 . S
C3251 C3249 1.388 . S
C3251 C3252 1.366 . S
C3252 C3251 1.366 . S
C3252 C3253 1.414 . S
C3252 C3255 1.499 . S
C3253 H3227 0.950 . S
C3253 C3252 1.414 . S
C3253 C3254 1.374 . S
C3254 H3228 0.950 . S
C3254 C3250 1.385 . S
C3254 C3253 1.374 . S
C3255 C3252 1.499 . S
C3255 C3256 1.373 . S
C3255 C3257 1.389 . S
C3256 H3229 0.950 . S
C3256 C3242 1.377 . S
C3256 C3255 1.373 . S
C3257 C3241 1.377 . S
C3257 C3255 1.389 . S
C3257 C3258 1.524 . S
C3258 C3257 1.524 . S
C3258 C3259 1.397 . S
C3258 C3263 1.363 . S
C3259 H3230 0.950 . S
C3259 C3258 1.397 . S
C3259 C3260 1.334 . S
C3260 H3231 0.950 . S
C3260 C3259 1.334 . S
C3260 C3261 1.287 . S
C3261 C3260 1.287 . S
C3261 C3262 1.524 . S
C3261 H3264 0.999 . S
C3262 H3232 0.950 . S
C3262 C3261 1.524 . S
C3262 C3263 1.415 . S
C3263 H3233 0.950 . S
C3263 C3258 1.363 . S
C3263 C3262 1.415 . S
H3264 C3261 0.999 . S
H3265 C3246 0.913 . S
H3266 C3284 0.951 . S
H3267 C3286 0.951 . S
H3268 C3288 0.950 . S
H3269 C3289 0.950 . S
H3270 C3291 0.950 . S
H3271 C3294 0.950 . S
H3272 C3295 0.950 . S
H3273 C3297 0.950 . S
H3274 C3298 0.950 . S
H3275 C3299 0.951 . S
H3276 C3301 0.951 . S
H3277 C3303 0.950 . S
H3278 C3304 0.950 . S
H3279 C3306 0.950 . S
H3280 C3309 0.950 . S
H3281 C3310 0.950 . S
H3282 C3312 0.950 . S
H3283 C3313 0.950 . S
C3284 H3266 0.951 . S
C3284 C3285 1.366 . S
C3284 C3286 1.388 . S
C3285 C3284 1.366 . S
C3285 C3289 1.385 . S
C3286 H3267 0.951 . S
C3286 C3284 1.388 . S
C3286 C3287 1.366 . S
C3287 C3286 1.366 . S
C3287 C3288 1.414 . S
C3287 C3290 1.499 . S
C3288 H3268 0.950 . S
C3288 C3287 1.414 . S
C3288 C3289 1.374 . S
C3289 H3269 0.950 . S
C3289 C3285 1.385 . S
C3289 C3288 1.374 . S
C3290 C3287 1.499 . S
C3290 C3291 1.373 . S
C3290 C3292 1.389 . S
C3291 H3270 0.950 . S
C3291 C3290 1.373 . S
C3291 C3307 1.377 . S
C3292 C3290 1.389 . S
C3292 C3293 1.524 . S
C3292 C3306 1.377 . S
C3293 C3292 1.524 . S
C3293 C3294 1.397 . S
C3293 C3298 1.363 . S
C3294 H3271 0.950 . S
C3294 C3293 1.397 . S
C3294 C3295 1.334 . S
C3295 H3272 0.950 . S
C3295 C3294 1.334 . S
C3295 C3296 1.287 . S
C3296 C3295 1.287 . S
C3296 C3297 1.524 . S
C3296 H3315 0.913 . S
C3297 H3273 0.950 . S
C3297 C3296 1.524 . S
C3297 C3298 1.415 . S
C3298 H3274 0.950 . S
C3298 C3293 1.363 . S
C3298 C3297 1.415 . S
C3299 H3275 0.951 . S
C3299 C3300 1.366 . S
C3299 C3301 1.388 . S
C3300 C3299 1.366 . S
C3300 C3304 1.385 . S
C3301 H3276 0.951 . S
C3301 C3299 1.388 . S
C3301 C3302 1.366 . S
C3302 C3301 1.366 . S
C3302 C3303 1.414 . S
C3302 C3305 1.499 . S
C3303 H3277 0.950 . S
C3303 C3302 1.414 . S
C3303 C3304 1.374 . S
C3304 H3278 0.950 . S
C3304 C3300 1.385 . S
C3304 C3303 1.374 . S
C3305 C3302 1.499 . S
C3305 C3306 1.373 . S
C3305 C3307 1.389 . S
C3306 H3279 0.950 . S
C3306 C3292 1.377 . S
C3306 C3305 1.373 . S
C3307 C3291 1.377 . S
C3307 C3305 1.389 . S
C3307 C3308 1.524 . S
C3308 C3307 1.524 . S
C3308 C3309 1.397 . S
C3308 C3313 1.363 . S
C3309 H3280 0.950 . S
C3309 C3308 1.397 . S
C3309 C3310 1.334 . S
C3310 H3281 0.950 . S
C3310 C3309 1.334 . S
C3310 C3311 1.287 . S
C3311 C3310 1.287 . S
C3311 C3312 1.524 . S
C3311 H3314 0.999 . S
C3312 H3282 0.950 . S
C3312 C3311 1.524 . S
C3312 C3313 1.415 . S
C3313 H3283 0.950 . S
C3313 C3308 1.363 . S
C3313 C3312 1.415 . S
H3314 C3311 0.999 . S
H3315 C3296 0.913 . S
H3316 C3334 0.951 . S
H3317 C3336 0.951 . S
H3318 C3338 0.950 . S
H3319 C3339 0.950 . S
H3320 C3341 0.950 . S
H3321 C3344 0.950 . S
H3322 C3345 0.950 . S
H3323 C3347 0.950 . S
H3324 C3348 0.950 . S
H3325 C3349 0.951 . S
H3326 C3351 0.951 . S
H3327 C3353 0.950 . S
H3328 C3354 0.950 . S
H3329 C3356 0.950 . S
H3330 C3359 0.950 . S
H3331 C3360 0.950 . S
H3332 C3362 0.950 . S
H3333 C3363 0.950 . S
C3334 H3316 0.951 . S
C3334 C3335 1.366 . S
C3334 C3336 1.388 . S
C3335 C3334 1.366 . S
C3335 C3339 1.385 . S
C3336 H3317 0.951 . S
C3336 C3334 1.388 . S
C3336 C3337 1.366 . S
C3337 C3336 1.366 . S
C3337 C3338 1.414 . S
C3337 C3340 1.499 . S
C3338 H3318 0.950 . S
C3338 C3337 1.414 . S
C3338 C3339 1.374 . S
C3339 H3319 0.950 . S
C3339 C3335 1.385 . S
C3339 C3338 1.374 . S
C3340 C3337 1.499 . S
C3340 C3341 1.373 . S
C3340 C3342 1.389 . S
C3341 H3320 0.950 . S
C3341 C3340 1.373 . S
C3341 C3357 1.377 . S
C3342 C3340 1.389 . S
C3342 C3343 1.524 . S
C3342 C3356 1.377 . S
C3343 C3342 1.524 . S
C3343 C3344 1.397 . S
C3343 C3348 1.363 . S
C3344 H3321 0.950 . S
C3344 C3343 1.397 . S
C3344 C3345 1.334 . S
C3345 H3322 0.950 . S
C3345 C3344 1.334 . S
C3345 C3346 1.287 . S
C3346 C3345 1.287 . S
C3346 C3347 1.524 . S
C3346 H3365 0.913 . S
C3347 H3323 0.950 . S
C3347 C3346 1.524 . S
C3347 C3348 1.415 . S
C3348 H3324 0.950 . S
C3348 C3343 1.363 . S
C3348 C3347 1.415 . S
C3349 H3325 0.951 . S
C3349 C3350 1.366 . S
C3349 C3351 1.388 . S
C3350 C3349 1.366 . S
C3350 C3354 1.385 . S
C3351 H3326 0.951 . S
C3351 C3349 1.388 . S
C3351 C3352 1.366 . S
C3352 C3351 1.366 . S
C3352 C3353 1.414 . S
C3352 C3355 1.499 . S
C3353 H3327 0.950 . S
C3353 C3352 1.414 . S
C3353 C3354 1.374 . S
C3354 H3328 0.950 . S
C3354 C3350 1.385 . S
C3354 C3353 1.374 . S
C3355 C3352 1.499 . S
C3355 C3356 1.373 . S
C3355 C3357 1.389 . S
C3356 H3329 0.950 . S
C3356 C3342 1.377 . S
C3356 C3355 1.373 . S
C3357 C3341 1.377 . S
C3357 C3355 1.389 . S
C3357 C3358 1.524 . S
C3358 C3357 1.524 . S
C3358 C3359 1.397 . S
C3358 C3363 1.363 . S
C3359 H3330 0.950 . S
C3359 C3358 1.397 . S
C3359 C3360 1.334 . S
C3360 H3331 0.950 . S
C3360 C3359 1.334 . S
C3360 C3361 1.287 . S
C3361 C3360 1.287 . S
C3361 C3362 1.524 . S
C3361 H3364 0.999 . S
C3362 H3332 0.950 . S
C3362 C3361 1.524 . S
C3362 C3363 1.415 . S
C3363 H3333 0.950 . S
C3363 C3358 1.363 . S
C3363 C3362 1.415 . S
H3364 C3361 0.999 . S
H3365 C3346 0.913 . S
H3366 C3384 0.951 . S
H3367 C3386 0.951 . S
H3368 C3388 0.919 1_455 S
H3369 C3389 0.950 . S
H3370 C3391 0.950 . S
H3371 C3394 0.950 . S
H3372 C3395 0.950 . S
H3373 C3397 0.950 . S
H3374 C3398 0.950 . S
H3375 C3399 0.951 . S
H3376 C3401 0.951 . S
H3377 C3403 0.950 . S
H3378 C3404 0.950 . S
H3379 C3406 0.950 . S
H3380 C3409 0.950 . S
H3381 C3410 0.950 . S
H3382 C3412 0.950 . S
H3383 C3413 0.950 . S
C3384 H3366 0.951 . S
C3384 C3385 1.366 . S
C3384 C3386 1.388 . S
C3385 C3384 1.366 . S
C3385 C3389 1.385 . S
C3386 H3367 0.951 . S
C3386 C3384 1.388 . S
C3386 C3387 1.366 . S
C3387 C3386 1.366 . S
C3387 C3388 1.414 . S
C3387 C3390 1.499 1_655 S
C3388 H3368 0.919 1_655 S
C3388 C3387 1.414 . S
C3388 C3389 1.374 . S
C3389 H3369 0.950 . S
C3389 C3385 1.385 . S
C3389 C3388 1.374 . S
C3390 C3387 1.499 1_455 S
C3390 C3391 1.373 . S
C3390 C3392 1.389 . S
C3391 H3370 0.950 . S
C3391 C3390 1.373 . S
C3391 C3407 1.377 . S
C3392 C3390 1.389 . S
C3392 C3393 1.524 . S
C3392 C3406 1.377 . S
C3393 C3392 1.524 . S
C3393 C3394 1.397 1_455 S
C3393 C3398 1.363 . S
C3394 H3371 0.950 . S
C3394 C3393 1.397 1_655 S
C3394 C3395 1.334 . S
C3395 H3372 0.950 . S
C3395 C3394 1.334 . S
C3395 C3396 1.287 . S
C3396 C3395 1.287 . S
C3396 C3397 1.524 . S
C3396 H3415 0.913 . S
C3397 H3373 0.950 . S
C3397 C3396 1.524 . S
C3397 C3398 1.415 1_655 S
C3398 H3374 0.950 . S
C3398 C3393 1.363 . S
C3398 C3397 1.415 1_455 S
C3399 H3375 0.951 . S
C3399 C3400 1.366 . S
C3399 C3401 1.388 . S
C3400 C3399 1.366 . S
C3400 C3404 1.385 . S
C3401 H3376 0.951 . S
C3401 C3399 1.388 . S
C3401 C3402 1.366 . S
C3402 C3401 1.366 . S
C3402 C3403 1.414 . S
C3402 C3405 1.499 . S
C3403 H3377 0.950 . S
C3403 C3402 1.414 . S
C3403 C3404 1.374 . S
C3404 H3378 0.950 . S
C3404 C3400 1.385 . S
C3404 C3403 1.374 . S
C3405 C3402 1.499 . S
C3405 C3406 1.373 . S
C3405 C3407 1.389 . S
C3406 H3379 0.950 . S
C3406 C3392 1.377 . S
C3406 C3405 1.373 . S
C3407 C3391 1.377 . S
C3407 C3405 1.389 . S
C3407 C3408 1.524 . S
C3408 C3407 1.524 . S
C3408 C3409 1.397 . S
C3408 C3413 1.363 . S
C3409 H3380 0.950 . S
C3409 C3408 1.397 . S
C3409 C3410 1.334 . S
C3410 H3381 0.950 . S
C3410 C3409 1.334 . S
C3410 C3411 1.287 . S
C3411 C3410 1.287 . S
C3411 C3412 1.524 . S
C3411 H3414 0.999 . S
C3412 H3382 0.950 . S
C3412 C3411 1.524 . S
C3412 C3413 1.415 . S
C3413 H3383 0.950 . S
C3413 C3408 1.363 . S
C3413 C3412 1.415 . S
H3414 C3411 0.999 . S
H3415 C3396 0.913 . S
H3416 C3434 0.951 . S
H3417 C3436 0.951 . S
H3418 C3438 0.950 . S
H3419 C3439 0.950 . S
H3420 C3441 0.950 . S
H3421 C3444 0.950 . S
H3422 C3445 0.950 . S
H3423 C3447 0.950 . S
H3424 C3448 0.950 . S
H3425 C3449 0.951 . S
H3426 C3451 0.951 . S
H3427 C3453 0.950 . S
H3428 C3454 0.950 . S
H3429 C3456 0.950 . S
H3430 C3459 0.950 . S
H3431 C3460 0.950 . S
H3432 C3462 0.950 . S
H3433 C3463 0.950 . S
C3434 H3416 0.951 . S
C3434 C3435 1.366 . S
C3434 C3436 1.388 . S
C3435 C3434 1.366 . S
C3435 C3439 1.385 . S
C3436 H3417 0.951 . S
C3436 C3434 1.388 . S
C3436 C3437 1.366 . S
C3437 C3436 1.366 . S
C3437 C3438 1.414 . S
C3437 C3440 1.499 . S
C3438 H3418 0.950 . S
C3438 C3437 1.414 . S
C3438 C3439 1.374 . S
C3439 H3419 0.950 . S
C3439 C3435 1.385 . S
C3439 C3438 1.374 . S
C3440 C3437 1.499 . S
C3440 C3441 1.373 . S
C3440 C3442 1.389 . S
C3441 H3420 0.950 . S
C3441 C3440 1.373 . S
C3441 C3457 1.377 . S
C3442 C3440 1.389 . S
C3442 C3443 1.524 . S
C3442 C3456 1.377 . S
C3443 C3442 1.524 . S
C3443 C3444 1.397 . S
C3443 C3448 1.363 . S
C3444 H3421 0.950 . S
C3444 C3443 1.397 . S
C3444 C3445 1.334 . S
C3445 H3422 0.950 . S
C3445 C3444 1.334 . S
C3445 C3446 1.287 . S
C3446 C3445 1.287 . S
C3446 C3447 1.524 . S
C3446 H3465 0.913 . S
C3447 H3423 0.950 . S
C3447 C3446 1.524 . S
C3447 C3448 1.415 . S
C3448 H3424 0.950 . S
C3448 C3443 1.363 . S
C3448 C3447 1.415 . S
C3449 H3425 0.951 . S
C3449 C3450 1.366 . S
C3449 C3451 1.388 . S
C3450 C3449 1.366 . S
C3450 C3454 1.385 . S
C3451 H3426 0.951 . S
C3451 C3449 1.388 . S
C3451 C3452 1.366 . S
C3452 C3451 1.366 . S
C3452 C3453 1.414 . S
C3452 C3455 1.499 . S
C3453 H3427 0.950 . S
C3453 C3452 1.414 . S
C3453 C3454 1.374 . S
C3454 H3428 0.950 . S
C3454 C3450 1.385 . S
C3454 C3453 1.374 . S
C3455 C3452 1.499 . S
C3455 C3456 1.373 . S
C3455 C3457 1.389 . S
C3456 H3429 0.950 . S
C3456 C3442 1.377 . S
C3456 C3455 1.373 . S
C3457 C3441 1.377 . S
C3457 C3455 1.389 . S
C3457 C3458 1.524 . S
C3458 C3457 1.524 . S
C3458 C3459 1.397 . S
C3458 C3463 1.363 . S
C3459 H3430 0.950 . S
C3459 C3458 1.397 . S
C3459 C3460 1.334 . S
C3460 H3431 0.950 . S
C3460 C3459 1.334 . S
C3460 C3461 1.287 . S
C3461 C3460 1.287 . S
C3461 C3462 1.524 . S
C3461 H3464 0.999 . S
C3462 H3432 0.950 . S
C3462 C3461 1.524 . S
C3462 C3463 1.415 . S
C3463 H3433 0.950 . S
C3463 C3458 1.363 . S
C3463 C3462 1.415 . S
H3464 C3461 0.999 . S
H3465 C3446 0.913 . S
H3466 C3484 0.951 . S
H3467 C3486 0.951 . S
H3468 C3488 0.950 . S
H3469 C3489 0.950 . S
H3470 C3491 0.950 . S
H3471 C3494 0.950 . S
H3472 C3495 0.950 . S
H3473 C3497 0.950 . S
H3474 C3498 0.950 . S
H3475 C3499 0.951 . S
H3476 C3501 0.951 . S
H3477 C3503 0.950 1_455 S
H3478 C3504 0.950 . S
H3479 C3506 0.950 . S
H3480 C3509 0.950 . S
H3481 C3510 0.937 1_655 S
H3482 C3512 0.950 . S
H3483 C3513 0.950 . S
C3484 H3466 0.951 . S
C3484 C3485 1.366 . S
C3484 C3486 1.388 . S
C3485 C3484 1.366 . S
C3485 C3489 1.385 . S
C3486 H3467 0.951 . S
C3486 C3484 1.388 . S
C3486 C3487 1.366 . S
C3487 C3486 1.366 . S
C3487 C3488 1.414 . S
C3487 C3490 1.499 . S
C3488 H3468 0.950 . S
C3488 C3487 1.414 . S
C3488 C3489 1.374 . S
C3489 H3469 0.950 . S
C3489 C3485 1.385 . S
C3489 C3488 1.374 . S
C3490 C3487 1.499 . S
C3490 C3491 1.373 . S
C3490 C3492 1.389 . S
C3491 H3470 0.950 . S
C3491 C3490 1.373 . S
C3491 C3507 1.377 . S
C3492 C3490 1.389 . S
C3492 C3493 1.524 . S
C3492 C3506 1.377 . S
C3493 C3492 1.524 . S
C3493 C3494 1.397 . S
C3493 C3498 1.363 . S
C3494 H3471 0.950 . S
C3494 C3493 1.397 . S
C3494 C3495 1.334 . S
C3495 H3472 0.950 . S
C3495 C3494 1.334 . S
C3495 C3496 1.287 . S
C3496 C3495 1.287 . S
C3496 C3497 1.524 . S
C3496 H3515 0.913 . S
C3497 H3473 0.950 . S
C3497 C3496 1.524 . S
C3497 C3498 1.415 . S
C3498 H3474 0.950 . S
C3498 C3493 1.363 . S
C3498 C3497 1.415 . S
C3499 H3475 0.951 . S
C3499 C3500 1.366 . S
C3499 C3501 1.388 . S
C3500 C3499 1.366 . S
C3500 C3504 1.385 . S
C3501 H3476 0.951 . S
C3501 C3499 1.388 . S
C3501 C3502 1.366 . S
C3502 C3501 1.366 . S
C3502 C3503 1.414 . S
C3502 C3505 1.499 1_655 S
C3503 H3477 0.950 1_655 S
C3503 C3502 1.414 . S
C3503 C3504 1.374 . S
C3504 H3478 0.950 . S
C3504 C3500 1.385 . S
C3504 C3503 1.374 . S
C3505 C3502 1.499 1_455 S
C3505 C3506 1.373 . S
C3505 C3507 1.389 . S
C3506 H3479 0.950 . S
C3506 C3492 1.377 . S
C3506 C3505 1.373 . S
C3507 C3491 1.377 . S
C3507 C3505 1.389 . S
C3507 C3508 1.524 . S
C3508 C3507 1.524 . S
C3508 C3509 1.397 . S
C3508 C3513 1.363 . S
C3509 H3480 0.950 . S
C3509 C3508 1.397 . S
C3509 C3510 1.353 . S
C3510 H3481 0.937 1_455 S
C3510 C3509 1.353 . S
C3510 C3511 1.282 1_455 S
C3511 C3510 1.282 1_655 S
C3511 C3512 1.512 1_655 S
C3511 H3514 1.024 . S
C3512 H3482 0.950 . S
C3512 C3511 1.512 1_455 S
C3512 C3513 1.415 . S
C3513 H3483 0.950 . S
C3513 C3508 1.363 . S
C3513 C3512 1.415 . S
H3514 C3511 1.024 . S
H3515 C3496 0.913 . S
H3516 C3534 0.951 . S
H3517 C3536 0.951 . S
H3518 C3538 0.950 . S
H3519 C3539 0.950 . S
H3520 C3541 0.950 . S
H3521 C3544 0.950 . S
H3522 C3545 0.950 . S
H3523 C3547 0.950 . S
H3524 C3548 0.950 . S
H3525 C3549 0.951 . S
H3526 C3551 0.951 . S
H3527 C3553 0.950 . S
H3528 C3554 0.950 . S
H3529 C3556 0.950 . S
H3530 C3559 0.950 . S
H3531 C3560 0.950 . S
H3532 C3562 0.950 . S
H3533 C3563 0.950 . S
C3534 H3516 0.951 . S
C3534 C3535 1.366 . S
C3534 C3536 1.388 . S
C3535 C3534 1.366 . S
C3535 C3539 1.385 . S
C3536 H3517 0.951 . S
C3536 C3534 1.388 . S
C3536 C3537 1.366 . S
C3537 C3536 1.366 . S
C3537 C3538 1.414 . S
C3537 C3540 1.499 . S
C3538 H3518 0.950 . S
C3538 C3537 1.414 . S
C3538 C3539 1.374 . S
C3539 H3519 0.950 . S
C3539 C3535 1.385 . S
C3539 C3538 1.374 . S
C3540 C3537 1.499 . S
C3540 C3541 1.373 . S
C3540 C3542 1.389 . S
C3541 H3520 0.950 . S
C3541 C3540 1.373 . S
C3541 C3557 1.377 . S
C3542 C3540 1.389 . S
C3542 C3543 1.524 . S
C3542 C3556 1.377 . S
C3543 C3542 1.524 . S
C3543 C3544 1.397 . S
C3543 C3548 1.363 . S
C3544 H3521 0.950 . S
C3544 C3543 1.397 . S
C3544 C3545 1.334 . S
C3545 H3522 0.950 . S
C3545 C3544 1.334 . S
C3545 C3546 1.287 . S
C3546 C3545 1.287 . S
C3546 C3547 1.524 . S
C3546 H3565 0.913 . S
C3547 H3523 0.950 . S
C3547 C3546 1.524 . S
C3547 C3548 1.415 . S
C3548 H3524 0.950 . S
C3548 C3543 1.363 . S
C3548 C3547 1.415 . S
C3549 H3525 0.951 . S
C3549 C3550 1.366 . S
C3549 C3551 1.388 . S
C3550 C3549 1.366 . S
C3550 C3554 1.385 . S
C3551 H3526 0.951 . S
C3551 C3549 1.388 . S
C3551 C3552 1.366 . S
C3552 C3551 1.366 . S
C3552 C3553 1.414 . S
C3552 C3555 1.499 . S
C3553 H3527 0.950 . S
C3553 C3552 1.414 . S
C3553 C3554 1.374 . S
C3554 H3528 0.950 . S
C3554 C3550 1.385 . S
C3554 C3553 1.374 . S
C3555 C3552 1.499 . S
C3555 C3556 1.373 . S
C3555 C3557 1.389 . S
C3556 H3529 0.950 . S
C3556 C3542 1.377 . S
C3556 C3555 1.373 . S
C3557 C3541 1.377 . S
C3557 C3555 1.389 . S
C3557 C3558 1.524 . S
C3558 C3557 1.524 . S
C3558 C3559 1.397 . S
C3558 C3563 1.363 . S
C3559 H3530 0.950 . S
C3559 C3558 1.397 . S
C3559 C3560 1.334 . S
C3560 H3531 0.950 . S
C3560 C3559 1.334 . S
C3560 C3561 1.287 . S
C3561 C3560 1.287 . S
C3561 C3562 1.524 . S
C3561 H3564 0.999 . S
C3562 H3532 0.950 . S
C3562 C3561 1.524 . S
C3562 C3563 1.415 . S
C3563 H3533 0.950 . S
C3563 C3558 1.363 . S
C3563 C3562 1.415 . S
H3564 C3561 0.999 . S
H3565 C3546 0.913 . S
H3566 C3584 0.951 . S
H3567 C3586 0.951 . S
H3568 C3588 0.950 . S
H3569 C3589 0.950 . S
H3570 C3591 0.950 . S
H3571 C3594 0.950 . S
H3572 C3595 0.950 . S
H3573 C3597 0.950 . S
H3574 C3598 0.950 . S
H3575 C3599 0.951 . S
H3576 C3601 0.951 . S
H3577 C3603 0.950 . S
H3578 C3604 0.950 . S
H3579 C3606 0.950 . S
H3580 C3609 0.950 . S
H3581 C3610 0.950 . S
H3582 C3612 0.950 . S
H3583 C3613 0.950 . S
C3584 H3566 0.951 . S
C3584 C3585 1.366 . S
C3584 C3586 1.388 . S
C3585 C3584 1.366 . S
C3585 C3589 1.385 . S
C3586 H3567 0.951 . S
C3586 C3584 1.388 . S
C3586 C3587 1.366 . S
C3587 C3586 1.366 . S
C3587 C3588 1.414 . S
C3587 C3590 1.499 . S
C3588 H3568 0.950 . S
C3588 C3587 1.414 . S
C3588 C3589 1.374 . S
C3589 H3569 0.950 . S
C3589 C3585 1.385 . S
C3589 C3588 1.374 . S
C3590 C3587 1.499 . S
C3590 C3591 1.373 . S
C3590 C3592 1.389 . S
C3591 H3570 0.950 . S
C3591 C3590 1.373 . S
C3591 C3607 1.377 . S
C3592 C3590 1.389 . S
C3592 C3593 1.524 . S
C3592 C3606 1.377 . S
C3593 C3592 1.524 . S
C3593 C3594 1.397 . S
C3593 C3598 1.363 . S
C3594 H3571 0.950 . S
C3594 C3593 1.397 . S
C3594 C3595 1.334 . S
C3595 H3572 0.950 . S
C3595 C3594 1.334 . S
C3595 C3596 1.287 . S
C3596 C3595 1.287 . S
C3596 C3597 1.524 . S
C3596 H3615 0.913 . S
C3597 H3573 0.950 . S
C3597 C3596 1.524 . S
C3597 C3598 1.415 . S
C3598 H3574 0.950 . S
C3598 C3593 1.363 . S
C3598 C3597 1.415 . S
C3599 H3575 0.951 . S
C3599 C3600 1.366 . S
C3599 C3601 1.388 . S
C3600 C3599 1.366 . S
C3600 C3604 1.385 . S
C3601 H3576 0.951 . S
C3601 C3599 1.388 . S
C3601 C3602 1.366 . S
C3602 C3601 1.366 . S
C3602 C3603 1.414 . S
C3602 C3605 1.499 . S
C3603 H3577 0.950 . S
C3603 C3602 1.414 . S
C3603 C3604 1.374 . S
C3604 H3578 0.950 . S
C3604 C3600 1.385 . S
C3604 C3603 1.374 . S
C3605 C3602 1.499 . S
C3605 C3606 1.373 . S
C3605 C3607 1.389 . S
C3606 H3579 0.950 . S
C3606 C3592 1.377 . S
C3606 C3605 1.373 . S
C3607 C3591 1.377 . S
C3607 C3605 1.389 . S
C3607 C3608 1.524 . S
C3608 C3607 1.524 . S
C3608 C3609 1.397 . S
C3608 C3613 1.363 . S
C3609 H3580 0.950 . S
C3609 C3608 1.397 . S
C3609 C3610 1.334 . S
C3610 H3581 0.950 . S
C3610 C3609 1.334 . S
C3610 C3611 1.287 . S
C3611 C3610 1.287 . S
C3611 C3612 1.524 . S
C3611 H3614 0.999 . S
C3612 H3582 0.950 . S
C3612 C3611 1.524 . S
C3612 C3613 1.415 . S
C3613 H3583 0.950 . S
C3613 C3608 1.363 . S
C3613 C3612 1.415 . S
H3614 C3611 0.999 . S
H3615 C3596 0.913 . S
C435 C62 1.503 . S
C450 C4 1.503 . S
C485 C69 1.503 . S
C500 C23 1.503 . S
C535 C82 1.503 . S
C550 C30 1.503 . S
C585 C49 1.503 . S
C600 C101 1.503 . S
C635 C108 1.503 . S
C650 C166 1.503 . S
C685 C179 1.503 . S
C700 C121 1.503 . S
C735 C140 1.503 . S
C750 C192 1.503 . S
C785 C199 1.503 . S
C800 C147 1.503 . S
C835 C218 1.503 . S
C850 C264 1.503 . S
C885 C283 1.503 . S
C900 C231 1.503 . S
C935 C296 1.503 . S
C950 C244 1.503 . S
C985 C309 1.503 . S
C1000 C257 1.503 . S
C1035 C322 1.503 . S
C1050 C374 1.503 . S
C1085 C335 1.503 . S
C1100 C381 1.503 . S
C1135 C342 1.503 . S
C1150 C400 1.503 . S
C1185 C355 1.503 . S
C1200 C407 1.503 . S
C1235 C10 1.519 . S
C1250 C95 1.519 . S
C1285 C17 1.519 . S
C1300 C56 1.519 . S
C1335 C36 1.519 . S
C1350 C75 1.519 . S
C1385 C88 1.519 . S
C1400 C43 1.519 . S
C1435 C205 1.519 . S
C1450 C114 1.519 . S
C1485 C160 1.519 . S
C1500 C127 1.519 . S
C1535 C173 1.519 . S
C1550 C134 1.519 . S
C1585 C153 1.519 . S
C1600 C186 1.519 . S
C1635 C303 1.519 . S
C1650 C212 1.519 . S
C1685 C270 1.519 . S
C1700 C225 1.519 . S
C1735 C277 1.519 . S
C1750 C238 1.519 . S
C1785 C251 1.519 . S
C1800 C290 1.519 . S
C1835 C316 1.519 . S
C1850 C413 1.519 . S
C1885 C329 1.519 . S
C1900 C368 1.519 . S
C1935 C348 1.519 . S
C1950 C387 1.519 . S
C1985 C394 1.519 . S
C2000 C361 1.519 . S
C2035 C5 1.493 . S
C2050 C330 1.493 . S
C2085 C16 1.493 . S
C2100 C135 1.493 . S
C2135 C31 1.493 . S
C2150 C354 1.493 . S
C2185 C107 1.493 . S
C2200 C42 1.493 . S
C2235 C406 1.493 . S
C2250 C55 1.493 . S
C2285 C70 1.493 . S
C2300 C161 1.493 . S
C2335 C83 1.493 . S
C2350 C380 1.493 . S
C2385 C94 1.493 . S
C2400 C187 1.493 . S
C2435 C226 1.493 . S
C2450 C109 1.493 . S
C2485 C29 1.493 . S
C2500 C122 1.493 . S
C2535 C252 1.493 . S
C2550 C133 1.493 . S
C2585 C148 1.493 . S
C2600 C3 1.493 . S
C2635 C304 1.493 . S
C2650 C159 1.493 . S
C2685 C57 1.493 . S
C2700 C172 1.493 . S
C2735 C278 1.493 . S
C2750 C185 1.493 . S
C2785 C81 1.493 . S
C2800 C200 1.493 . S
C2835 C120 1.493 . S
C2850 C211 1.493 . S
C2885 C224 1.493 . S
C2900 C341 1.493 . S
C2935 C237 1.493 . S
C2950 C146 1.493 . S
C2985 C250 1.493 . S
C3000 C317 1.493 . S
C3035 C265 1.493 . S
C3050 C198 1.493 . S
C3085 C369 1.493 . S
C3100 C276 1.493 . S
C3135 C289 1.493 . S
C3150 C174 1.493 . S
C3185 C302 1.493 . S
C3200 C395 1.493 . S
C3235 C315 1.493 . S
C3250 C18 1.493 . S
C3285 C328 1.493 . S
C3300 C239 1.493 . S
C3335 C44 1.493 . S
C3350 C343 1.493 . S
C3385 C213 1.493 . S
C3400 C356 1.493 . S
C3435 C367 1.493 . S
C3450 C96 1.493 . S
C3485 C382 1.493 . S
C3500 C263 1.493 . S
C3535 C68 1.493 . S
C3550 C393 1.493 . S
C3585 C291 1.493 . S
C3600 C408 1.493 . S
