# Generated by pormake.
# Topology uto, (3)-cn, num edge types: 1
# Building blocks:
#     Node 0, Type 0, BuildingBlock: OLANEW_clean_sbu_2, # of connection points: 3
#     Node 1, Type 0, BuildingBlock: OLANEW_clean_sbu_2, # of connection points: 3
#     Node 2, Type 0, BuildingBlock: OLANEW_clean_sbu_2, # of connection points: 3
#     Node 3, Type 0, BuildingBlock: OLANEW_clean_sbu_2, # of connection points: 3
#     Node 4, Type 0, BuildingBlock: OLANEW_clean_sbu_2, # of connection points: 3
#     Node 5, Type 0, BuildingBlock: OLANEW_clean_sbu_2, # of connection points: 3
#     Node 6, Type 0, BuildingBlock: OLANEW_clean_sbu_2, # of connection points: 3
#     Node 7, Type 0, BuildingBlock: OLANEW_clean_sbu_2, # of connection points: 3
#     Node 8, Type 0, BuildingBlock: OLANEW_clean_sbu_2, # of connection points: 3
#     Node 9, Type 0, BuildingBlock: OLANEW_clean_sbu_2, # of connection points: 3
#     Node 10, Type 0, BuildingBlock: OLANEW_clean_sbu_2, # of connection points: 3
#     Node 11, Type 0, BuildingBlock: OLANEW_clean_sbu_2, # of connection points: 3
#     Node 12, Type 0, BuildingBlock: OLANEW_clean_sbu_2, # of connection points: 3
#     Node 13, Type 0, BuildingBlock: OLANEW_clean_sbu_2, # of connection points: 3
#     Node 14, Type 0, BuildingBlock: OLANEW_clean_sbu_2, # of connection points: 3
#     Node 15, Type 0, BuildingBlock: OLANEW_clean_sbu_2, # of connection points: 3
#     Node 16, Type 0, BuildingBlock: OLANEW_clean_sbu_2, # of connection points: 3
#     Node 17, Type 0, BuildingBlock: OLANEW_clean_sbu_2, # of connection points: 3
#     Node 18, Type 0, BuildingBlock: OLANEW_clean_sbu_2, # of connection points: 3
#     Node 19, Type 0, BuildingBlock: OLANEW_clean_sbu_2, # of connection points: 3
#     Node 20, Type 0, BuildingBlock: OLANEW_clean_sbu_2, # of connection points: 3
#     Node 21, Type 0, BuildingBlock: OLANEW_clean_sbu_2, # of connection points: 3
#     Node 22, Type 0, BuildingBlock: OLANEW_clean_sbu_2, # of connection points: 3
#     Node 23, Type 0, BuildingBlock: OLANEW_clean_sbu_2, # of connection points: 3
#     Node 24, Type 0, BuildingBlock: OLANEW_clean_sbu_2, # of connection points: 3
#     Node 25, Type 0, BuildingBlock: OLANEW_clean_sbu_2, # of connection points: 3
#     Node 26, Type 0, BuildingBlock: OLANEW_clean_sbu_2, # of connection points: 3
#     Node 27, Type 0, BuildingBlock: OLANEW_clean_sbu_2, # of connection points: 3
#     Node 28, Type 0, BuildingBlock: OLANEW_clean_sbu_2, # of connection points: 3
#     Node 29, Type 0, BuildingBlock: OLANEW_clean_sbu_2, # of connection points: 3
#     Node 30, Type 0, BuildingBlock: OLANEW_clean_sbu_2, # of connection points: 3
#     Node 31, Type 0, BuildingBlock: OLANEW_clean_sbu_2, # of connection points: 3
#     Edge 32, Type (0, 0), BuildingBlock: OJICUG_clean_linker_0, # of connection points: 2
#     Edge 33, Type (0, 0), BuildingBlock: OJICUG_clean_linker_0, # of connection points: 2
#     Edge 34, Type (0, 0), BuildingBlock: OJICUG_clean_linker_0, # of connection points: 2
#     Edge 35, Type (0, 0), BuildingBlock: OJICUG_clean_linker_0, # of connection points: 2
#     Edge 36, Type (0, 0), BuildingBlock: OJICUG_clean_linker_0, # of connection points: 2
#     Edge 37, Type (0, 0), BuildingBlock: OJICUG_clean_linker_0, # of connection points: 2
#     Edge 38, Type (0, 0), BuildingBlock: OJICUG_clean_linker_0, # of connection points: 2
#     Edge 39, Type (0, 0), BuildingBlock: OJICUG_clean_linker_0, # of connection points: 2
#     Edge 40, Type (0, 0), BuildingBlock: OJICUG_clean_linker_0, # of connection points: 2
#     Edge 41, Type (0, 0), BuildingBlock: OJICUG_clean_linker_0, # of connection points: 2
#     Edge 42, Type (0, 0), BuildingBlock: OJICUG_clean_linker_0, # of connection points: 2
#     Edge 43, Type (0, 0), BuildingBlock: OJICUG_clean_linker_0, # of connection points: 2
#     Edge 44, Type (0, 0), BuildingBlock: OJICUG_clean_linker_0, # of connection points: 2
#     Edge 45, Type (0, 0), BuildingBlock: OJICUG_clean_linker_0, # of connection points: 2
#     Edge 46, Type (0, 0), BuildingBlock: OJICUG_clean_linker_0, # of connection points: 2
#     Edge 47, Type (0, 0), BuildingBlock: OJICUG_clean_linker_0, # of connection points: 2
#     Edge 48, Type (0, 0), BuildingBlock: OJICUG_clean_linker_0, # of connection points: 2
#     Edge 49, Type (0, 0), BuildingBlock: OJICUG_clean_linker_0, # of connection points: 2
#     Edge 50, Type (0, 0), BuildingBlock: OJICUG_clean_linker_0, # of connection points: 2
#     Edge 51, Type (0, 0), BuildingBlock: OJICUG_clean_linker_0, # of connection points: 2
#     Edge 52, Type (0, 0), BuildingBlock: OJICUG_clean_linker_0, # of connection points: 2
#     Edge 53, Type (0, 0), BuildingBlock: OJICUG_clean_linker_0, # of connection points: 2
#     Edge 54, Type (0, 0), BuildingBlock: OJICUG_clean_linker_0, # of connection points: 2
#     Edge 55, Type (0, 0), BuildingBlock: OJICUG_clean_linker_0, # of connection points: 2
#     Edge 56, Type (0, 0), BuildingBlock: OJICUG_clean_linker_0, # of connection points: 2
#     Edge 57, Type (0, 0), BuildingBlock: OJICUG_clean_linker_0, # of connection points: 2
#     Edge 58, Type (0, 0), BuildingBlock: OJICUG_clean_linker_0, # of connection points: 2
#     Edge 59, Type (0, 0), BuildingBlock: OJICUG_clean_linker_0, # of connection points: 2
#     Edge 60, Type (0, 0), BuildingBlock: OJICUG_clean_linker_0, # of connection points: 2
#     Edge 61, Type (0, 0), BuildingBlock: OJICUG_clean_linker_0, # of connection points: 2
#     Edge 62, Type (0, 0), BuildingBlock: OJICUG_clean_linker_0, # of connection points: 2
#     Edge 63, Type (0, 0), BuildingBlock: OJICUG_clean_linker_0, # of connection points: 2
#     Edge 64, Type (0, 0), BuildingBlock: OJICUG_clean_linker_0, # of connection points: 2
#     Edge 65, Type (0, 0), BuildingBlock: OJICUG_clean_linker_0, # of connection points: 2
#     Edge 66, Type (0, 0), BuildingBlock: OJICUG_clean_linker_0, # of connection points: 2
#     Edge 67, Type (0, 0), BuildingBlock: OJICUG_clean_linker_0, # of connection points: 2
#     Edge 68, Type (0, 0), BuildingBlock: OJICUG_clean_linker_0, # of connection points: 2
#     Edge 69, Type (0, 0), BuildingBlock: OJICUG_clean_linker_0, # of connection points: 2
#     Edge 70, Type (0, 0), BuildingBlock: OJICUG_clean_linker_0, # of connection points: 2
#     Edge 71, Type (0, 0), BuildingBlock: OJICUG_clean_linker_0, # of connection points: 2
#     Edge 72, Type (0, 0), BuildingBlock: OJICUG_clean_linker_0, # of connection points: 2
#     Edge 73, Type (0, 0), BuildingBlock: OJICUG_clean_linker_0, # of connection points: 2
#     Edge 74, Type (0, 0), BuildingBlock: OJICUG_clean_linker_0, # of connection points: 2
#     Edge 75, Type (0, 0), BuildingBlock: OJICUG_clean_linker_0, # of connection points: 2
#     Edge 76, Type (0, 0), BuildingBlock: OJICUG_clean_linker_0, # of connection points: 2
#     Edge 77, Type (0, 0), BuildingBlock: OJICUG_clean_linker_0, # of connection points: 2
#     Edge 78, Type (0, 0), BuildingBlock: OJICUG_clean_linker_0, # of connection points: 2
#     Edge 79, Type (0, 0), BuildingBlock: OJICUG_clean_linker_0, # of connection points: 2
# Relax obj value: 0.007
# Max RMSD: 0.057
# Mean RMSD: 0.054
data_MOF--net-uto--node1-OLANEW_clean_sbu_2--edge1-OJICUG_clean_linker_0
_symmetry_space_group_name_H-M    P1
_symmetry_Int_Tables_number       1
_symmetry_cell_setting            triclinic
loop_
_symmetry_equiv_pos_as_xyz
'x, y, z'
_cell_length_a     41.277704
_cell_length_b     41.340524
_cell_length_c     65.740217
_cell_angle_alpha  90.011419
_cell_angle_beta   90.057056
_cell_angle_gamma 89.945792
loop_
_atom_site_label
_atom_site_type_symbol
_atom_site_fract_x
_atom_site_fract_y
_atom_site_fract_z
_atom_type_partial_charge
O0 O 0.24211 0.08063 0.28378 0.0
Cd1 Cd 0.22786 0.12983 0.30303 0.0
O2 O 0.19141 0.06497 0.28038 0.0
Cd3 Cd 0.17682 0.09878 0.30405 0.0
O4 O 0.19232 0.09686 0.33574 0.0
C5 C 0.20571 0.06997 0.33994 0.0
O6 O 0.20718 0.0477 0.3257 0.0
C7 C 0.22134 0.06091 0.27654 0.0
C8 C 0.25579 0.18792 0.28979 0.0
O9 O 0.22948 0.17731 0.28184 0.0
O10 O 0.26929 0.17072 0.30364 0.0
O11 O 0.16279 1.00209 0.47359 0.0
Cd12 Cd 0.1059 0.98347 0.47318 0.0
O13 O 0.16324 0.00746 0.50673 0.0
Cd14 Cd 0.18661 0.01229 0.5364 0.0
O15 O 0.21383 0.02145 0.56421 0.0
C16 C 0.22701 0.04881 0.56721 0.0
O17 O 0.22396 0.07151 0.55336 0.0
C18 C 0.17833 0.00814 0.48987 0.0
C19 C 0.05449 0.02413 0.48421 0.0
O20 O 0.06921 0.00684 0.49753 0.0
O21 O 0.06509 0.02339 0.46588 0.0
O22 O 0.22178 0.93887 0.75973 0.0
Cd23 Cd 0.20553 0.89502 0.78303 0.0
O24 O 0.27295 0.93824 0.76912 0.0
Cd25 Cd 0.26201 0.90533 0.79391 0.0
O26 O 0.23994 0.90892 0.82384 0.0
C27 C 0.21897 0.93129 0.82563 0.0
O28 O 0.21147 0.94862 0.80954 0.0
C29 C 0.25048 0.94982 0.75804 0.0
C30 C 0.20055 0.83248 0.76701 0.0
O31 O 0.17611 0.85165 0.76726 0.0
O32 O 0.22763 0.8432 0.77381 0.0
O33 O 0.33328 0.98104 0.02413 0.0
Cd34 Cd 0.38152 0.97936 0.04615 0.0
O35 O 0.32119 0.03132 0.03215 0.0
Cd36 Cd 0.35598 0.03022 0.05699 0.0
O37 O 0.36015 0.00666 0.0865 0.0
C38 C 0.34429 0.98041 0.08798 0.0
O39 O 0.32865 0.96966 0.07193 0.0
C40 C 0.31535 0.0059 0.02189 0.0
C41 C 0.43991 0.96271 0.0274 0.0
O42 O 0.42158 0.94106 0.03529 0.0
O43 O 0.43026 0.99218 0.02797 0.0
O44 O 0.29181 0.93549 0.23522 0.0
Cd45 Cd 0.3179 0.89123 0.21586 0.0
O46 O 0.24508 0.93504 0.21913 0.0
Cd47 Cd 0.26469 0.90286 0.19621 0.0
O48 O 0.28969 0.90604 0.16725 0.0
C49 C 0.31145 0.92771 0.16615 0.0
O50 O 0.31886 0.9441 0.18265 0.0
C51 C 0.26322 0.94651 0.23298 0.0
C52 C 0.29711 0.82748 0.22271 0.0
O53 O 0.31836 0.84067 0.23427 0.0
O54 O 0.28509 0.84462 0.20833 0.0
O55 O 0.33101 0.00444 0.50986 0.0
Cd56 Cd 0.38777 0.98684 0.51469 0.0
O57 O 0.3361 0.00622 0.47667 0.0
Cd58 Cd 0.31595 0.01424 0.44639 0.0
O59 O 0.28925 0.02277 0.41833 0.0
C60 C 0.27094 0.04733 0.41647 0.0
O61 O 0.26843 0.0678 0.43168 0.0
C62 C 0.31828 0.00807 0.49239 0.0
C63 C 0.44044 0.02606 0.50406 0.0
O64 O 0.4275 0.00687 0.49106 0.0
O65 O 0.42748 0.02787 0.52175 0.0
O66 O 0.25335 0.08158 0.70323 0.0
Cd67 Cd 0.26017 0.1302 0.68197 0.0
O68 O 0.30553 0.07073 0.70469 0.0
Cd69 Cd 0.31493 0.10533 0.68049 0.0
O70 O 0.29985 0.10283 0.64879 0.0
C71 C 0.29032 0.07464 0.64393 0.0
O72 O 0.29189 0.05157 0.65766 0.0
C73 C 0.2766 0.0642 0.70988 0.0
C74 C 0.23541 0.18796 0.69806 0.0
O75 O 0.21801 0.16969 0.6867 0.0
O76 O 0.26432 0.17863 0.70217 0.0
O77 O 0.1867 0.97279 0.96802 0.0
Cd78 Cd 0.14045 0.96505 0.94485 0.0
O79 O 0.19092 0.02507 0.96228 0.0
Cd80 Cd 0.15759 0.02098 0.93681 0.0
O81 O 0.159 0.9997 0.90653 0.0
C82 C 0.17936 0.97681 0.90457 0.0
O83 O 0.19617 0.96766 0.92055 0.0
C84 C 0.20036 0.99982 0.97162 0.0
C85 C 0.08004 0.95612 0.96315 0.0
O86 O 0.09838 0.93199 0.95895 0.0
O87 O 0.09057 0.98457 0.95909 0.0
O88 O 0.80764 0.91959 0.73208 0.0
Cd89 Cd 0.78841 0.86909 0.71636 0.0
O90 O 0.77602 0.94132 0.70913 0.0
Cd91 Cd 0.75747 0.98042 0.69002 0.0
O92 O 0.74228 0.00376 0.6617 0.0
C93 C 0.76363 0.0121 0.6488 0.0
O94 O 0.79437 0.00793 0.65332 0.0
C95 C 0.7959 0.94476 0.72374 0.0
C96 C 0.7977 0.81062 0.73696 0.0
O97 O 0.81944 0.82187 0.72498 0.0
O98 O 0.7721 0.82763 0.73979 0.0
O99 O 0.83189 0.12692 0.51246 0.0
Cd100 Cd 0.88984 0.13998 0.51701 0.0
O101 O 0.83652 0.09468 0.48605 0.0
Cd102 Cd 0.81635 0.06962 0.45963 0.0
O103 O 0.80431 0.05263 0.42905 0.0
C104 C 0.77577 0.0552 0.42194 0.0
O105 O 0.75292 0.06761 0.43346 0.0
C106 C 0.81881 0.10931 0.49889 0.0
C107 C 0.9395 0.09777 0.50516 0.0
O108 O 0.92737 0.09649 0.5231 0.0
O109 O 0.92699 0.11781 0.4925 0.0
O110 O 0.65597 0.08699 0.25494 0.0
Cd111 Cd 0.63365 0.13856 0.24261 0.0
O112 O 0.68438 0.08608 0.22685 0.0
Cd113 Cd 0.71398 0.06316 0.20339 0.0
O114 O 0.73171 0.04778 0.1736 0.0
C115 C 0.7224 0.02103 0.16608 0.0
O116 O 0.70313 1.00238 0.17681 0.0
C117 C 0.67594 0.07255 0.24337 0.0
C118 C 0.66235 0.19568 0.25664 0.0
O119 O 0.63799 0.18322 0.26583 0.0
O120 O 0.67379 0.18061 0.24118 0.0
O121 O 0.67145 0.91575 0.98808 0.0
Cd122 Cd 0.61926 0.9099 0.97045 0.0
O123 O 0.68287 0.95046 0.96405 0.0
Cd124 Cd 0.71462 0.97954 0.94482 0.0
O125 O 0.73391 0.99817 0.91618 0.0
C126 C 0.748 0.97855 0.9042 0.0
O127 O 0.75174 0.94831 0.90991 0.0
C128 C 0.69159 0.93484 0.97977 0.0
C129 C 0.56318 0.92822 0.99128 0.0
O130 O 0.57401 0.89919 0.9923 0.0
O131 O 0.57945 0.94887 0.98094 0.0
O132 O 0.85632 0.088 0.73676 0.0
Cd133 Cd 0.87683 0.14002 0.74953 0.0
O134 O 0.82612 0.08566 0.76408 0.0
Cd135 Cd 0.79586 0.06132 0.7866 0.0
O136 O 0.77736 0.04483 0.81597 0.0
C137 C 0.78748 0.01838 0.82352 0.0
O138 O 0.80802 1.00071 0.81304 0.0
C139 C 0.83606 0.07276 0.74769 0.0
C140 C 0.84411 0.1961 0.73738 0.0
O141 O 0.86821 0.18517 0.72718 0.0
O142 O 0.83486 0.17998 0.75299 0.0
O143 O 0.66603 0.12584 0.47917 0.0
Cd144 Cd 0.60817 0.13878 0.47376 0.0
O145 O 0.66179 0.09368 0.50566 0.0
Cd146 Cd 0.68287 0.0691 0.532 0.0
O147 O 0.69773 0.05235 0.56216 0.0
C148 C 0.72679 0.05547 0.56826 0.0
O149 O 0.74831 0.06833 0.55597 0.0
C150 C 0.67929 0.10847 0.4928 0.0
C151 C 0.55767 0.09728 0.48503 0.0
O152 O 0.57083 0.09527 0.46741 0.0
O153 O 0.56959 0.11764 0.49772 0.0
O154 O 0.71212 0.92017 0.25521 0.0
Cd155 Cd 0.73513 0.86979 0.26901 0.0
O156 O 0.7423 0.94192 0.2789 0.0
Cd157 Cd 0.75805 0.98093 0.29902 0.0
O158 O 0.77003 0.00419 0.32794 0.0
C159 C 0.74733 0.01187 0.34008 0.0
O160 O 0.71717 0.00709 0.33444 0.0
C161 C 0.72226 0.94529 0.26438 0.0
C162 C 0.71941 0.81106 0.25035 0.0
O163 O 0.70142 0.82305 0.26434 0.0
O164 O 0.74417 0.82741 0.24466 0.0
O165 O 0.84484 0.92529 0.00235 0.0
Cd166 Cd 0.89633 0.92707 0.02112 0.0
O167 O 0.82914 0.95978 0.02553 0.0
Cd168 Cd 0.79417 0.98622 0.04408 0.0
O169 O 0.77394 0.00376 0.07275 0.0
C170 C 0.76114 0.98345 0.08482 0.0
O171 O 0.75904 0.95303 0.07917 0.0
C172 C 0.82252 0.94254 0.01008 0.0
C173 C 0.95361 0.93677 -0.00065 0.0
O174 O 0.94264 0.90821 0.00254 0.0
O175 O 0.93687 0.9608 0.00581 0.0
O176 O 0.79803 0.57458 0.76911 0.0
Cd177 Cd 0.81668 0.62113 0.78942 0.0
O178 O 0.74647 0.57938 0.777 0.0
Cd179 Cd 0.7591 0.61357 0.80078 0.0
O180 O 0.78144 0.60619 0.8304 0.0
C181 C 0.80105 0.58248 0.83115 0.0
O182 O 0.80725 0.56639 0.81436 0.0
C183 C 0.76885 0.56505 0.76724 0.0
C184 C 0.80995 0.6823 0.77165 0.0
O185 O 0.78723 0.67011 0.78249 0.0
O186 O 0.83552 0.66526 0.76882 0.0
O187 O 0.67789 0.51605 0.02116 0.0
Cd188 Cd 0.62844 0.51772 0.04212 0.0
O189 O 0.68952 0.46593 0.02987 0.0
Cd190 Cd 0.6539 0.46781 0.05415 0.0
O191 O 0.65031 0.49401 0.08279 0.0
C192 C 0.66685 0.51993 0.08342 0.0
O193 O 0.68288 0.52884 0.0671 0.0
C194 C 0.6959 0.49112 0.01953 0.0
C195 C 0.57194 0.54112 0.02382 0.0
O196 O 0.59126 0.56012 0.03334 0.0
O197 O 0.5798 0.51118 0.02247 0.0
O198 O 0.73287 0.42646 0.27316 0.0
Cd199 Cd 0.74039 0.37844 0.29488 0.0
O200 O 0.78267 0.4436 0.27838 0.0
Cd201 Cd 0.78796 0.41034 0.30374 0.0
O202 O 0.76499 0.41328 0.33349 0.0
C203 C 0.74014 0.43149 0.33383 0.0
O204 O 0.73039 0.44487 0.31676 0.0
C205 C 0.75539 0.44676 0.26959 0.0
C206 C 0.71413 0.32002 0.28114 0.0
O207 O 0.74235 0.32922 0.27544 0.0
O208 O 0.69799 0.33885 0.29287 0.0
O209 O 0.82741 0.44042 0.52493 0.0
Cd210 Cd 0.87212 0.42466 0.54776 0.0
O211 O 0.83014 0.49254 0.53143 0.0
Cd212 Cd 0.86284 0.48268 0.55657 0.0
O213 O 0.85187 0.46219 0.58625 0.0
C214 C 0.82649 0.44478 0.58645 0.0
O215 O 0.81109 0.43967 0.56925 0.0
C216 C 0.81728 0.46913 0.52185 0.0
C217 C 0.93482 0.42754 0.53164 0.0
O218 O 0.91749 0.40197 0.52987 0.0
O219 O 0.92223 0.45205 0.54061 0.0
O220 O 0.76084 0.42404 0.72275 0.0
Cd221 Cd 0.75101 0.37393 0.70335 0.0
O222 O 0.71335 0.44439 0.71433 0.0
Cd223 Cd 0.70794 0.40846 0.69046 0.0
O224 O 0.7337 0.40313 0.66177 0.0
C225 C 0.76194 0.41542 0.66176 0.0
O226 O 0.77313 0.4281 0.67868 0.0
C227 C 0.73976 0.44649 0.72423 0.0
C228 C 0.78284 0.31762 0.71589 0.0
O229 O 0.75563 0.32592 0.72371 0.0
O230 O 0.79548 0.33648 0.7026 0.0
O231 O 0.82924 0.52231 0.96997 0.0
Cd232 Cd 0.87646 0.5292 0.94748 0.0
O233 O 0.82235 0.47096 0.96218 0.0
Cd234 Cd 0.85665 0.47542 0.93731 0.0
O235 O 0.85666 0.50075 0.90829 0.0
C236 C 0.83728 0.52465 0.90746 0.0
O237 O 0.82045 0.53218 0.92374 0.0
C238 C 0.81399 0.49578 0.97233 0.0
C239 C 0.93596 0.54385 0.96554 0.0
O240 O 0.91644 0.56631 0.95995 0.0
O241 O 0.92693 0.51443 0.96314 0.0
O242 O 0.70059 0.57443 0.22255 0.0
Cd243 Cd 0.68275 0.62124 0.20216 0.0
O244 O 0.75206 0.57714 0.21409 0.0
Cd245 Cd 0.73997 0.61124 0.19016 0.0
O246 O 0.71804 0.6038 0.16045 0.0
C247 C 0.69796 0.58052 0.15973 0.0
O248 O 0.69087 0.56515 0.17664 0.0
C249 C 0.72946 0.56386 0.22419 0.0
C250 C 0.69521 0.68253 0.21856 0.0
O251 O 0.66926 0.66709 0.22304 0.0
O252 O 0.7156 0.66871 0.2067 0.0
O253 O 0.68145 0.46823 0.47084 0.0
Cd254 Cd 0.6331 0.47437 0.44913 0.0
O255 O 0.69712 0.51846 0.46575 0.0
Cd256 Cd 0.66379 0.52287 0.44032 0.0
O257 O 0.66887 0.50127 0.4103 0.0
C258 C 0.68817 0.47727 0.40988 0.0
O259 O 0.70117 0.46735 0.42703 0.0
C260 C 0.70109 0.49129 0.47449 0.0
C261 C 0.5756 0.44622 0.46306 0.0
O262 O 0.58391 0.4747 0.46873 0.0
O263 O 0.59485 0.43076 0.45123 0.0
O264 O 0.32065 0.41905 0.2568 0.0
Cd265 Cd 0.34401 0.36517 0.2502 0.0
O266 O 0.31926 0.42317 0.22369 0.0
Cd267 Cd 0.31288 0.44632 0.19406 0.0
O268 O 0.30163 0.46328 0.16344 0.0
C269 C 0.2924 0.49223 0.16053 0.0
O270 O 0.29028 0.51191 0.17618 0.0
C271 C 0.31431 0.4358 0.24106 0.0
C272 C 0.31167 0.3102 0.26463 0.0
O273 O 0.33366 0.32411 0.27528 0.0
O274 O 0.30409 0.32297 0.2475 0.0
O275 O 0.34386 0.60637 0.98625 0.0
Cd276 Cd 0.39695 0.61401 0.97004 0.0
O277 O 0.33476 0.57068 0.96237 0.0
Cd278 Cd 0.30446 0.54004 0.94316 0.0
O279 O 0.28508 0.51924 0.91516 0.0
C280 C 0.26063 0.53202 0.90657 0.0
O281 O 0.24634 0.55679 0.91532 0.0
C282 C 0.32475 0.58647 0.9777 0.0
C283 C 0.45156 0.58879 0.98964 0.0
O284 O 0.44191 0.61777 0.99309 0.0
O285 O 0.43476 0.57136 0.97743 0.0
O286 O 0.17695 0.59129 0.73372 0.0
Cd287 Cd 0.18352 0.64283 0.71532 0.0
O288 O 0.21569 0.57675 0.71303 0.0
Cd289 Cd 0.24401 0.54146 0.69601 0.0
O290 O 0.26205 0.51764 0.6687 0.0
C291 C 0.24141 0.5061 0.65632 0.0
O292 O 0.21049 0.50765 0.66097 0.0
C293 C 0.19547 0.56931 0.72679 0.0
C294 C 0.18838 0.70171 0.73608 0.0
O295 O 0.16078 0.69049 0.73057 0.0
O296 O 0.21356 0.68434 0.73265 0.0
O297 O 0.17576 0.41898 0.4956 0.0
Cd298 Cd 0.12504 0.43801 0.47977 0.0
O299 O 0.19526 0.45702 0.4761 0.0
Cd300 Cd 0.23366 0.48082 0.45899 0.0
O301 O 0.25468 0.4974 0.43045 0.0
C302 C 0.26148 0.47631 0.41705 0.0
O303 O 0.25762 0.44555 0.42149 0.0
C304 C 0.20012 0.43421 0.48867 0.0
C305 C 0.06578 0.43214 0.50001 0.0
O306 O 0.07688 0.40902 0.48903 0.0
O307 O 0.0834 0.45744 0.50219 0.0
O308 O 0.25882 0.58372 0.23397 0.0
Cd309 Cd 0.22899 0.63386 0.24185 0.0
O310 O 0.26405 0.58013 0.26691 0.0
Cd311 Cd 0.27321 0.55829 0.29661 0.0
O312 O 0.27552 0.54369 0.32841 0.0
C313 C 0.28072 0.5145 0.33349 0.0
O314 O 0.28547 0.49276 0.31921 0.0
C315 C 0.2682 0.56768 0.2494 0.0
C316 C 0.25649 0.69447 0.23405 0.0
O317 O 0.26219 0.67954 0.25078 0.0
O318 O 0.23904 0.6801 0.22067 0.0
O319 O 0.17061 0.5927 -0.00059 0.0
Cd320 Cd 0.11986 0.59032 0.01895 0.0
O321 O 0.18727 0.55672 0.02144 0.0
Cd322 Cd 0.22413 0.53026 0.03846 0.0
O323 O 0.24851 0.5137 0.06603 0.0
C324 C 0.24873 0.5332 0.08098 0.0
O325 O 0.23557 0.56193 0.07868 0.0
C326 C 0.19326 0.57505 0.0064 0.0
C327 C 0.06226 0.57472 -0.00116 0.0
O328 O 0.07175 0.60415 0.00035 0.0
O329 O 0.08063 0.55255 0.00616 0.0
O330 O 0.16478 0.41612 0.73713 0.0
Cd331 Cd 0.15543 0.36097 0.75008 0.0
O332 O 0.1943 0.42327 0.76442 0.0
Cd333 Cd 0.2198 0.452 0.78722 0.0
O334 O 0.2374 0.47058 0.81629 0.0
C335 C 0.21934 0.48891 0.82689 0.0
O336 O 0.19082 0.49727 0.81971 0.0
C337 C 0.18176 0.43467 0.74829 0.0
C338 C 0.18408 0.30804 0.73044 0.0
O339 O 0.15594 0.31829 0.72522 0.0
O340 O 0.19926 0.32362 0.74436 0.0
O341 O 0.34592 0.37558 0.49394 0.0
Cd342 Cd 0.39999 0.3569 0.50451 0.0
O343 O 0.34762 0.40769 0.52037 0.0
Cd344 Cd 0.32611 0.43939 0.54318 0.0
O345 O 0.3101 0.46103 0.57168 0.0
C346 C 0.28139 0.45646 0.57798 0.0
O347 O 0.26125 0.43955 0.56673 0.0
C348 C 0.33216 0.39641 0.50524 0.0
C349 C 0.4544 0.38903 0.48916 0.0
O350 O 0.44277 0.36405 0.48018 0.0
O351 O 0.43963 0.39953 0.50499 0.0
C352 C 0.23603 0.08192 0.39394 0.0
C353 C 0.25317 0.05297 0.39724 0.0
H354 H 0.20754 0.11015 0.37319 0.0
C355 C 0.2536 0.02944 0.38183 0.0
H356 H 0.23521 0.10052 0.40554 0.0
C357 C 0.23768 0.03488 0.36343 0.0
C358 C 0.22105 0.06404 0.35993 0.0
H359 H 0.26641 0.0068 0.38391 0.0
H360 H 0.23881 0.01628 0.35184 0.0
C361 C 0.22018 0.08745 0.37542 0.0
C362 C 0.24881 0.03055 0.6008 0.0
C363 C 0.24465 0.05528 0.58638 0.0
H364 H 0.26665 0.01724 0.63012 0.0
C365 C 0.25688 0.08628 0.59067 0.0
H366 H 0.23985 0.00635 0.59794 0.0
C367 C 0.27229 0.09258 0.60922 0.0
C368 C 0.27582 0.06796 0.62379 0.0
H369 H 0.25414 0.10584 0.57985 0.0
H370 H 0.281 0.11682 0.61225 0.0
C371 C 0.26425 0.03681 0.61927 0.0
C372 C 0.21806 0.9257 0.86353 0.0
C373 C 0.20593 0.94024 0.84578 0.0
H374 H 0.21905 0.92582 0.89604 0.0
C375 C 0.18281 0.96509 0.84754 0.0
H376 H 0.23579 0.90641 0.8627 0.0
C377 C 0.17313 0.97618 0.86667 0.0
C378 C 0.18649 0.96272 0.88441 0.0
H379 H 0.17283 0.97665 0.83414 0.0
H380 H 0.15602 0.99601 0.86752 0.0
C381 C 0.20849 0.93689 0.88265 0.0
C382 C 0.32119 0.93604 0.10927 0.0
C383 C 0.34007 0.96423 0.10784 0.0
H384 H 0.29762 0.90211 0.12882 0.0
C385 C 0.3526 0.97803 0.12572 0.0
H386 H 0.31143 0.9246 0.09577 0.0
C387 C 0.34471 0.96505 0.14471 0.0
C388 C 0.32413 0.93806 0.14617 0.0
H389 H 0.36743 0.99961 0.12512 0.0
H390 H 0.35365 0.97704 0.15824 0.0
C391 C 0.31331 0.92308 0.12823 0.0
C392 C 0.76876 0.04554 0.59517 0.0
C393 C 0.73615 0.04499 0.58901 0.0
H394 H 0.803 0.03566 0.61885 0.0
C395 C 0.71254 0.03436 0.60289 0.0
H396 H 0.78754 0.05364 0.58488 0.0
C397 C 0.72138 0.02426 0.62243 0.0
C398 C 0.75405 0.02436 0.62849 0.0
H399 H 0.68718 0.03376 0.59867 0.0
H400 H 0.70261 0.01596 0.63267 0.0
C401 C 0.77762 0.03524 0.61467 0.0
C402 C 0.73653 0.04455 0.39357 0.0
C403 C 0.76854 0.04468 0.40087 0.0
H404 H 0.70473 0.03415 0.36868 0.0
C405 C 0.79362 0.03473 0.38782 0.0
H406 H 0.71665 0.05211 0.40321 0.0
C407 C 0.78681 0.02466 0.36797 0.0
C408 C 0.75475 0.02409 0.36076 0.0
H409 H 0.81858 0.03468 0.39293 0.0
H410 H 0.80668 0.01691 0.35838 0.0
C411 C 0.7297 0.03427 0.37375 0.0
C412 C 0.74882 0.03335 0.13262 0.0
C413 C 0.73226 0.01149 0.14527 0.0
H414 H 0.7706 0.04181 0.10356 0.0
C415 C 0.72478 0.98058 0.13772 0.0
H416 H 0.75483 0.05741 0.13793 0.0
C417 C 0.73392 0.9716 0.11804 0.0
C418 C 0.75052 0.99342 0.1054 0.0
H419 H 0.71202 0.96317 0.14705 0.0
H420 H 0.72799 0.9475 0.11276 0.0
C421 C 0.75773 0.02446 0.11288 0.0
C422 C 0.78591 0.97761 0.8517 0.0
C423 C 0.77723 0.00821 0.84414 0.0
H424 H 0.78352 0.94427 0.87655 0.0
C425 C 0.7592 0.02918 0.8566 0.0
H426 H 0.79982 0.96088 0.84251 0.0
C427 C 0.75008 0.01976 0.87621 0.0
C428 C 0.75858 0.98906 0.88372 0.0
H429 H 0.75223 0.05298 0.85127 0.0
H430 H 0.73611 0.03645 0.8854 0.0
C431 C 0.77658 0.9681 0.87124 0.0
C432 C 0.83546 0.54441 0.85132 0.0
C433 C 0.81356 0.57047 0.85081 0.0
H434 H 0.86041 0.5096 0.86965 0.0
C435 C 0.80187 0.58312 0.86922 0.0
H436 H 0.84509 0.53424 0.83739 0.0
C437 C 0.81056 0.56889 0.8877 0.0
C438 C 0.83124 0.54185 0.88814 0.0
H439 H 0.78505 0.60325 0.86934 0.0
H440 H 0.80031 0.57856 0.90159 0.0
C441 C 0.84429 0.53029 0.86981 0.0
C442 C 0.6978 0.58084 0.12165 0.0
C443 C 0.6863 0.56787 0.14001 0.0
H444 H 0.70047 0.57593 0.08934 0.0
C445 C 0.66565 0.54085 0.13942 0.0
H446 H 0.7136 0.60174 0.12159 0.0
C447 C 0.65811 0.52601 0.12092 0.0
C448 C 0.67112 0.5379 0.10267 0.0
H449 H 0.65619 0.5304 0.1533 0.0
H450 H 0.64308 0.50455 0.12103 0.0
C451 C 0.6903 0.56598 0.10317 0.0
C452 C 0.72299 0.43898 0.39015 0.0
C453 C 0.69879 0.46297 0.39039 0.0
H454 H 0.75501 0.41009 0.3721 0.0
C455 C 0.68652 0.4745 0.37184 0.0
H456 H 0.73287 0.42945 0.4042 0.0
C457 C 0.69917 0.4633 0.35344 0.0
C458 C 0.72442 0.44043 0.35322 0.0
H459 H 0.66776 0.49284 0.3715 0.0
H460 H 0.68977 0.47334 0.33941 0.0
C461 C 0.73572 0.42786 0.37176 0.0
C462 C 0.78284 0.41637 0.60577 0.0
C463 C 0.81218 0.43365 0.60581 0.0
H464 H 0.74398 0.39683 0.62343 0.0
C465 C 0.8263 0.44212 0.6245 0.0
H466 H 0.77142 0.40929 0.59162 0.0
C467 C 0.81056 0.43493 0.64274 0.0
C468 C 0.78039 0.41914 0.64265 0.0
H469 H 0.84897 0.45527 0.62505 0.0
H470 H 0.82158 0.44272 0.65687 0.0
C471 C 0.76709 0.40919 0.62401 0.0
C472 C 0.26089 0.54468 0.11759 0.0
C473 C 0.26166 0.52318 0.10103 0.0
H474 H 0.27003 0.55185 0.14931 0.0
C475 C 0.27378 0.49176 0.10403 0.0
H476 H 0.25176 0.56909 0.1158 0.0
C477 C 0.28424 0.48186 0.12328 0.0
C478 C 0.28283 0.50317 0.13994 0.0
H479 H 0.27474 0.47462 0.09159 0.0
H480 H 0.29304 0.45735 0.12514 0.0
C481 C 0.27136 0.53479 0.13683 0.0
C482 C 0.2114 0.52259 0.85821 0.0
C483 C 0.22985 0.49986 0.8473 0.0
H484 H 0.20661 0.55055 0.88546 0.0
C485 C 0.25819 0.48738 0.85621 0.0
H486 H 0.18941 0.53265 0.8518 0.0
C487 C 0.2679 0.49743 0.87558 0.0
C488 C 0.24962 0.52039 0.88641 0.0
H489 H 0.27288 0.46972 0.84826 0.0
H490 H 0.28994 0.48743 0.88196 0.0
C491 C 0.22124 0.53283 0.87752 0.0
C492 C 0.28421 0.49536 0.63017 0.0
C493 C 0.2518 0.49274 0.63649 0.0
H494 H 0.3189 0.48624 0.6067 0.0
C495 C 0.22921 0.47806 0.62342 0.0
H496 H 0.3022 0.50664 0.63984 0.0
C497 C 0.2388 0.46628 0.60442 0.0
C498 C 0.27115 0.46912 0.59803 0.0
H499 H 0.20405 0.47568 0.62783 0.0
H500 H 0.2208 0.45509 0.59471 0.0
C501 C 0.29375 0.48378 0.61112 0.0
C502 C 0.27413 0.52831 0.37035 0.0
C503 C 0.27893 0.50488 0.35514 0.0
H504 H 0.26521 0.53774 0.40184 0.0
C505 C 0.28044 0.47211 0.36075 0.0
H506 H 0.27307 0.55379 0.36657 0.0
C507 C 0.27589 0.4629 0.38101 0.0
C508 C 0.26985 0.48626 0.39608 0.0
H509 H 0.28424 0.45346 0.34942 0.0
H510 H 0.2763 0.43738 0.38474 0.0
C511 C 0.2697 0.51911 0.3906 0.0
C512 C 0.30887 0.26286 0.28845 0.0
C513 C 0.29654 0.27952 0.27148 0.0
H514 H 0.30596 0.22082 0.3074 0.0
C515 C 0.27053 0.26589 0.26064 0.0
H516 H 0.32898 0.27259 0.29709 0.0
C517 C 0.25723 0.23622 0.26661 0.0
C518 C 0.26984 0.21937 0.28343 0.0
H519 H 0.26048 0.27806 0.24748 0.0
H520 H 0.23722 0.22639 0.25793 0.0
C521 C 0.29577 0.23307 0.2943 0.0
C522 C 0.98118 0.07937 0.47984 0.0
C523 C 0.96826 0.07806 0.49961 0.0
H524 H 0.01852 0.0636 0.45951 0.0
C525 C 0.9841 0.05901 0.5143 0.0
H526 H 0.96968 0.09387 0.46817 0.0
C527 C 0.01229 0.04186 0.50938 0.0
C528 C 0.02526 0.04325 0.48963 0.0
H529 H 0.97493 0.05759 0.52971 0.0
H530 H 0.02383 0.02742 0.52107 0.0
C531 C 0.0093 0.06212 0.4749 0.0
C532 C 0.22164 0.74671 0.75102 0.0
C533 C 0.1913 0.73455 0.745 0.0
H534 H 0.24841 0.78709 0.76262 0.0
C535 C 0.16399 0.75477 0.74656 0.0
H536 H 0.24319 0.73182 0.74998 0.0
C537 C 0.16703 0.78653 0.75365 0.0
C538 C 0.19742 0.79881 0.75945 0.0
H539 H 0.14027 0.74624 0.742 0.0
H540 H 0.14552 0.80148 0.75453 0.0
C541 C 0.22466 0.77845 0.7582 0.0
C542 C 0.483 0.92198 0.01915 0.0
C543 C 0.47154 0.95398 0.01825 0.0
H544 H 0.52095 0.88882 0.01153 0.0
C545 C 0.49083 0.97761 0.0088 0.0
H546 H 0.46882 0.90321 0.02639 0.0
C547 C 0.52076 0.96935 0.00026 0.0
C548 C 0.53213 0.9373 0.00107 0.0
H549 H 0.48277 1.00251 0.0079 0.0
H550 H 0.53489 0.98808 0.99294 0.0
C551 C 0.51297 0.91375 0.01069 0.0
C552 C 0.26702 0.77807 0.2112 0.0
C553 C 0.28718 0.79329 0.22555 0.0
H554 H 0.24192 0.73495 0.20247 0.0
C555 C 0.29804 0.77537 0.24241 0.0
H556 H 0.25836 0.79109 0.19797 0.0
C557 C 0.28854 0.74312 0.24502 0.0
C558 C 0.26818 0.72799 0.23074 0.0
H559 H 0.31368 0.78633 0.25372 0.0
H560 H 0.29699 0.73013 0.25832 0.0
C561 C 0.25773 0.74579 0.21373 0.0
C562 C 0.51364 0.08111 0.50934 0.0
C563 C 0.52838 0.07809 0.49015 0.0
H564 H 0.47432 0.06733 0.52872 0.0
C565 C 0.51382 0.05792 0.47554 0.0
H566 H 0.52411 0.09652 0.52093 0.0
C567 C 0.48512 0.04133 0.47997 0.0
C568 C 0.47029 0.04449 0.49912 0.0
H569 H 0.52441 0.05517 0.46057 0.0
H570 H 0.47459 0.02599 0.46836 0.0
C571 C 0.48496 0.06449 0.51377 0.0
C572 C 0.24117 0.23808 0.71939 0.0
C573 C 0.22261 0.21905 0.70602 0.0
H574 H 0.24369 0.2811 0.7375 0.0
C575 C 0.19173 0.23012 0.70022 0.0
H576 H 0.26509 0.23033 0.72412 0.0
C577 C 0.17955 0.25935 0.70779 0.0
C578 C 0.1979 0.27815 0.7214 0.0
H579 H 0.17685 0.21616 0.68988 0.0
H580 H 0.15553 0.26695 0.70317 0.0
C581 C 0.22893 0.26725 0.72703 0.0
C582 C 0.99728 0.97317 0.98591 0.0
C583 C 0.98537 0.94178 0.98932 0.0
H584 H 0.03645 1.00234 0.97504 0.0
C585 C 0.00473 0.91518 0.98384 0.0
H586 H 0.98301 0.99419 0.98999 0.0
C587 C 0.03545 0.91985 0.97538 0.0
C588 C 0.04748 0.95123 0.97214 0.0
H589 H 0.99635 0.89067 0.9863 0.0
H590 H 0.04978 0.89882 0.97142 0.0
C591 C 0.02797 0.97784 0.97739 0.0
C592 C 0.77646 0.76528 0.75853 0.0
C593 C 0.80138 0.7783 0.74649 0.0
H594 H 0.75952 0.72479 0.77581 0.0
C595 C 0.82925 0.75956 0.74293 0.0
H596 H 0.75462 0.77901 0.76153 0.0
C597 C 0.83202 0.72842 0.75108 0.0
C598 C 0.80697 0.71527 0.76296 0.0
H599 H 0.84887 0.76882 0.73369 0.0
H600 H 0.85378 0.71461 0.748 0.0
C601 C 0.77922 0.73412 0.76666 0.0
C602 C 0.67234 0.2762 0.28362 0.0
C603 C 0.70089 0.28824 0.27479 0.0
H604 H 0.63804 0.23746 0.28503 0.0
C605 C 0.71699 0.26932 0.26017 0.0
H606 H 0.65944 0.29007 0.29501 0.0
C607 C 0.70463 0.23917 0.25438 0.0
C608 C 0.67608 0.22713 0.26322 0.0
H609 H 0.73907 0.27786 0.2531 0.0
H610 H 0.71747 0.22531 0.24296 0.0
C611 C 0.66016 0.24594 0.27797 0.0
C612 C 0.82647 0.276 0.71118 0.0
C613 C 0.79871 0.28671 0.72157 0.0
H614 H 0.86235 0.23894 0.70785 0.0
C615 C 0.78579 0.26718 0.73707 0.0
H616 H 0.83697 0.29038 0.6991 0.0
C617 C 0.80038 0.23768 0.74212 0.0
C618 C 0.82811 0.22694 0.73169 0.0
H619 H 0.76438 0.27467 0.74535 0.0
H620 H 0.7899 0.22329 0.7542 0.0
C621 C 0.84094 0.24641 0.71613 0.0
C622 C 0.68508 0.76113 0.24775 0.0
C623 C 0.71259 0.77865 0.24165 0.0
H624 H 0.65803 0.71711 0.2453 0.0
C625 C 0.73421 0.76435 0.22779 0.0
H626 H 0.66796 0.7714 0.25844 0.0
C627 C 0.72862 0.73313 0.22036 0.0
C628 C 0.70122 0.71553 0.22656 0.0
H629 H 0.75569 0.77712 0.22283 0.0
H630 H 0.74584 0.7228 0.20976 0.0
C631 C 0.67943 0.72996 0.24026 0.0
C632 C 0.5313 0.58541 0.01833 0.0
C633 C 0.54112 0.55325 0.01507 0.0
H634 H 0.49525 0.62172 0.01306 0.0
C635 C 0.52091 0.53268 0.00371 0.0
H636 H 0.54621 0.60186 0.02709 0.0
C637 C 0.49166 0.54409 -0.00435 0.0
C638 C 0.48189 0.57628 -0.00115 0.0
H639 H 0.5277 0.50775 0.00097 0.0
H640 H 0.47678 0.52768 0.98683 0.0
C641 C 0.50199 0.59676 0.01036 0.0
C642 C 0.01964 0.4571 0.51932 0.0
C643 C 0.03285 0.4304 0.50898 0.0
H644 H 0.97836 0.47725 0.53445 0.0
C645 C 0.01366 0.40262 0.50637 0.0
H646 H 0.0337 0.47893 0.52153 0.0
C647 C 0.98189 0.40169 0.51375 0.0
C648 C 0.96853 0.42854 0.52386 0.0
H649 H 0.02304 0.38165 0.49844 0.0
H650 H 0.96774 0.37995 0.5114 0.0
C651 C 0.98783 0.45619 0.52665 0.0
C652 C 0.98936 0.52697 0.98049 0.0
C653 C 0.9683 0.55169 0.97405 0.0
H654 H 0.03554 0.51478 0.99325 0.0
C655 C 0.97873 0.58399 0.97541 0.0
H656 H 0.98214 0.50182 0.97958 0.0
C657 C 0.00942 0.5914 0.98314 0.0
C658 C 0.03039 0.56671 0.98972 0.0
H659 H 0.96318 0.60362 0.9705 0.0
H660 H 0.01657 0.61656 0.98411 0.0
C661 C 0.02003 0.53439 0.98826 0.0
C662 C 0.49582 0.43345 0.49064 0.0
C663 C 0.48479 0.40436 0.48199 0.0
H664 H 0.53304 0.46953 0.49144 0.0
C665 C 0.50378 0.38932 0.46696 0.0
H666 H 0.48178 0.44565 0.50226 0.0
C667 C 0.53332 0.40281 0.46093 0.0
C668 C 0.54442 0.43182 0.46964 0.0
H669 H 0.49608 0.36683 0.46004 0.0
H670 H 0.5474 0.3905 0.44939 0.0
C671 C 0.52523 0.44712 0.48447 0.0
C672 C 0.27461 0.99377 0.2558 0.0
C673 C 0.25216 0.97479 0.245 0.0
H674 H 0.28264 0.03616 0.27383 0.0
C675 C 0.21955 0.98458 0.2445 0.0
H676 H 0.29996 0.98711 0.25633 0.0
C677 C 0.20958 0.0127 0.25456 0.0
C678 C 0.23211 0.03191 0.26512 0.0
H679 H 0.20165 0.97059 0.23624 0.0
H680 H 0.18426 0.01945 0.25396 0.0
C681 C 0.26472 0.02211 0.26563 0.0
C682 C 0.23208 0.99481 0.47454 0.0
C683 C 0.21411 0.01175 0.48924 0.0
H684 H 0.2789 0.97966 0.4644 0.0
C685 C 0.23087 0.03004 0.5039 0.0
H686 H 0.21996 0.98039 0.46307 0.0
C687 C 0.26483 0.02959 0.50469 0.0
C688 C 0.28268 0.01163 0.49043 0.0
H689 H 0.2178 0.04459 0.5148 0.0
H690 H 0.27711 0.04307 0.51654 0.0
C691 C 0.26594 0.99461 0.4752 0.0
C692 C 0.29541 0.01719 0.73095 0.0
C693 C 0.26983 0.03513 0.72239 0.0
H694 H 0.30943 0.9761 0.7487 0.0
C695 C 0.23793 0.02403 0.72501 0.0
H696 H 0.32028 0.02491 0.72912 0.0
C697 C 0.2317 0.99575 0.73602 0.0
C698 C 0.25725 0.97805 0.74479 0.0
H699 H 0.21766 0.03708 0.71845 0.0
H700 H 0.20682 0.98812 0.73794 0.0
C701 C 0.28916 0.98907 0.74208 0.0
C702 C 0.24567 0.97299 0.99057 0.0
C703 C 0.229 1.00139 0.98516 0.0
H704 H 0.28633 0.95219 0.006 0.0
C705 C 0.24128 0.03137 0.99168 0.0
H706 H 0.23705 0.94953 0.98563 0.0
C707 C 0.26951 0.03289 0.00342 0.0
C708 C 0.28634 0.00449 0.00865 0.0
H709 H 0.22909 0.05371 0.98769 0.0
H710 H 0.2782 0.05634 0.00834 0.0
C711 C 0.27413 0.97454 0.00206 0.0
C712 C 0.8392 0.98488 0.73188 0.0
C713 C 0.80617 0.97731 0.73023 0.0
H714 H 0.87452 0.02168 0.73814 0.0
C715 C 0.78297 1.00119 0.73459 0.0
H716 H 0.85747 0.96682 0.72851 0.0
C717 C 0.79269 0.0321 0.7408 0.0
C718 C 0.82572 0.0399 0.74194 0.0
H719 H 0.75736 0.99579 0.73345 0.0
H720 H 0.77444 0.05012 0.74428 0.0
C721 C 0.8489 0.01615 0.7373 0.0
C722 C 0.73195 0.1375 0.49516 0.0
C723 C 0.71493 0.10814 0.49459 0.0
H724 H 0.77826 0.16068 0.49752 0.0
C725 C 0.73228 0.0789 0.4953 0.0
H726 H 0.71906 0.16033 0.49464 0.0
C727 C 0.76626 0.07911 0.49619 0.0
C728 C 0.78317 0.10855 0.49714 0.0
H729 H 0.7196 0.05599 0.49478 0.0
H730 H 0.77927 0.05635 0.49652 0.0
C731 C 0.76571 0.1377 0.49681 0.0
C732 C 0.72108 0.03307 0.24833 0.0
C733 C 0.68778 0.03994 0.24856 0.0
H734 H 0.75814 0.99761 0.25387 0.0
C735 C 0.66582 0.01542 0.25386 0.0
H736 H 0.73841 0.05167 0.24432 0.0
C737 C 0.67698 0.98431 0.25855 0.0
C738 C 0.71032 0.97766 0.25877 0.0
H739 H 0.64002 0.02022 0.25406 0.0
H740 H 0.65966 0.96563 0.26241 0.0
C741 C 0.73231 1.00231 0.25379 0.0
C742 C 0.77475 0.91059 -0.00155 0.0
C743 C 0.78913 0.94077 0.00217 0.0
H744 H 0.73199 0.88516 0.98899 0.0
C745 C 0.77128 0.9691 -0.00156 0.0
H746 H 0.78805 0.88844 0.00131 0.0
C747 C 0.73969 0.96724 0.99073 0.0
C748 C 0.7251 0.93702 0.98742 0.0
H749 H 0.78197 0.99262 0.00119 0.0
H750 H 0.72643 0.98936 0.98771 0.0
C751 C 0.74276 0.90872 0.99151 0.0
C752 C 0.78627 0.51349 0.75052 0.0
C753 C 0.76143 0.53538 0.75552 0.0
H754 H 0.79883 0.46792 0.7372 0.0
C755 C 0.72929 0.52743 0.75055 0.0
H756 H 0.81126 0.5187 0.75435 0.0
C757 C 0.72218 0.49834 0.74065 0.0
C758 C 0.747 0.47632 0.73582 0.0
H759 H 0.70959 0.5437 0.7543 0.0
H760 H 0.6972 0.49306 0.73683 0.0
C761 C 0.77911 0.48418 0.74092 0.0
C762 C 0.73914 0.52206 0.00127 0.0
C763 C 0.7257 0.49222 0.00704 0.0
H764 H 0.77799 0.5466 0.98626 0.0
C765 C 0.7421 0.46357 0.00186 0.0
H766 H 0.7273 0.54458 0.00524 0.0
C767 C 0.77111 0.46472 0.99092 0.0
C768 C 0.78462 0.49456 0.98522 0.0
H769 H 0.73245 0.4402 0.00619 0.0
H770 H 0.78292 0.4422 0.98689 0.0
C771 C 0.76842 0.52322 0.99062 0.0
C772 C 0.71063 0.51419 0.24249 0.0
C773 C 0.73618 0.53435 0.23626 0.0
H774 H 0.69667 0.47038 0.25743 0.0
C775 C 0.7682 0.52486 0.24048 0.0
H776 H 0.6857 0.52059 0.23927 0.0
C777 C 0.77449 0.49605 0.25092 0.0
C778 C 0.74893 0.47588 0.25711 0.0
H779 H 0.78844 0.53974 0.23577 0.0
H780 H 0.79941 0.48966 0.25419 0.0
C781 C 0.71694 0.48519 0.25268 0.0
C782 C 0.77865 0.50642 0.50397 0.0
C783 C 0.78835 0.4748 0.50897 0.0
H784 H 0.74338 0.53647 0.48931 0.0
C785 C 0.76871 0.44874 0.50292 0.0
H786 H 0.7931 0.52704 0.50851 0.0
C787 C 0.73991 0.45416 0.49224 0.0
C788 C 0.73026 0.48576 0.48717 0.0
H789 H 0.77528 0.42409 0.50671 0.0
H790 H 0.72545 0.43353 0.48773 0.0
C791 C 0.75002 0.51182 0.49309 0.0
C792 C 0.28195 0.48328 0.22844 0.0
C793 C 0.30269 0.46961 0.24306 0.0
H794 H 0.25502 0.52498 0.21894 0.0
C795 C 0.3125 0.48866 0.25967 0.0
H796 H 0.27309 0.469 0.21582 0.0
C797 C 0.30202 0.52075 0.26151 0.0
C798 C 0.28105 0.53435 0.24699 0.0
H799 H 0.32873 0.4789 0.27109 0.0
H800 H 0.31085 0.53499 0.27414 0.0
C801 C 0.27141 0.51533 0.23031 0.0
C802 C 0.2726 0.61116 0.98898 0.0
C803 C 0.29095 0.58338 0.98469 0.0
H804 H 0.22669 0.63018 -0.00141 0.0
C805 C 0.27678 0.55277 0.98717 0.0
H806 H 0.28302 0.63502 0.98708 0.0
C807 C 0.24496 0.55 0.99435 0.0
C808 C 0.22651 0.57782 -0.00158 0.0
H809 H 0.29054 0.53103 0.984 0.0
H810 H 0.23467 0.52617 -0.00344 0.0
C811 C 0.24043 0.60841 -0.00457 0.0
C812 C 0.16117 0.52063 0.7332 0.0
C813 C 0.19182 0.5353 0.73319 0.0
H814 H 0.13418 0.47674 0.73738 0.0
C815 C 0.21915 0.51677 0.73838 0.0
H816 H 0.13981 0.5344 0.72908 0.0
C817 C 0.21582 0.48415 0.74373 0.0
C818 C 0.18527 0.46926 0.74319 0.0
H819 H 0.24304 0.52761 0.73842 0.0
H820 H 0.23718 0.47036 0.74782 0.0
C821 C 0.158 0.48771 0.73779 0.0
C822 C 0.27478 0.38257 0.49673 0.0
C823 C 0.29824 0.40602 0.50144 0.0
H824 H 0.22485 0.37313 0.48967 0.0
C825 C 0.289 0.43867 0.5025 0.0
H826 H 0.28134 0.35723 0.49592 0.0
C827 C 0.257 0.4478 0.4984 0.0
C828 C 0.2335 0.42434 0.49383 0.0
H829 H 0.3067 0.45718 0.50602 0.0
H830 H 0.25056 0.4732 0.49889 0.0
C831 C 0.24253 0.39161 0.4933 0.0
loop_
_geom_bond_atom_site_label_1
_geom_bond_atom_site_label_2
_geom_bond_distance
_geom_bond_site_symmetry_2
_ccdc_geom_bond_type
O0 Cd1 2.300 . S
O0 C7 1.275 . S
Cd1 O0 2.300 . S
Cd1 O9 2.381 . S
Cd1 O10 2.378 . S
O2 Cd3 2.385 . S
O2 C7 1.255 . S
Cd3 O2 2.385 . S
Cd3 O4 2.317 . S
O4 Cd3 2.317 . S
O4 C5 1.232 . S
C5 O4 1.232 . S
C5 O6 1.218 . S
O6 C5 1.218 . S
C7 O0 1.275 . S
C7 O2 1.255 . S
C8 O9 1.258 . S
C8 O10 1.256 . S
O9 Cd1 2.381 . S
O9 C8 1.258 . S
O10 Cd1 2.378 . S
O10 C8 1.256 . S
O11 Cd12 2.300 . S
O11 C18 1.275 . S
Cd12 O11 2.300 . S
Cd12 O20 2.381 . S
Cd12 O21 2.378 . S
O13 Cd14 2.385 . S
O13 C18 1.255 . S
Cd14 O13 2.385 . S
Cd14 O15 2.317 . S
O15 Cd14 2.317 . S
O15 C16 1.232 1_565 S
C16 O15 1.232 1_545 S
C16 O17 1.218 1_545 S
O17 C16 1.218 1_565 S
C18 O11 1.275 . S
C18 O13 1.255 . S
C19 O20 1.258 . S
C19 O21 1.256 . S
O20 Cd12 2.381 . S
O20 C19 1.258 . S
O21 Cd12 2.378 . S
O21 C19 1.256 . S
O22 Cd23 2.300 . S
O22 C29 1.275 . S
Cd23 O22 2.300 . S
Cd23 O31 2.381 . S
Cd23 O32 2.378 . S
O24 Cd25 2.385 . S
O24 C29 1.255 . S
Cd25 O24 2.385 . S
Cd25 O26 2.317 . S
O26 Cd25 2.317 . S
O26 C27 1.232 . S
C27 O26 1.232 . S
C27 O28 1.218 . S
O28 C27 1.218 . S
C29 O22 1.275 . S
C29 O24 1.255 . S
C30 O31 1.258 . S
C30 O32 1.256 . S
O31 Cd23 2.381 . S
O31 C30 1.258 . S
O32 Cd23 2.378 . S
O32 C30 1.256 . S
O33 Cd34 2.300 . S
O33 C40 1.275 . S
Cd34 O33 2.300 . S
Cd34 O42 2.381 . S
Cd34 O43 2.378 . S
O35 Cd36 2.385 . S
O35 C40 1.255 . S
Cd36 O35 2.385 . S
Cd36 O37 2.317 . S
O37 Cd36 2.317 . S
O37 C38 1.232 1_545 S
C38 O37 1.232 1_565 S
C38 O39 1.218 1_565 S
O39 C38 1.218 1_545 S
C40 O33 1.275 . S
C40 O35 1.255 . S
C41 O42 1.258 . S
C41 O43 1.256 . S
O42 Cd34 2.381 . S
O42 C41 1.258 . S
O43 Cd34 2.378 . S
O43 C41 1.256 . S
O44 Cd45 2.300 . S
O44 C51 1.275 . S
Cd45 O44 2.300 . S
Cd45 O53 2.381 . S
Cd45 O54 2.378 . S
O46 Cd47 2.385 . S
O46 C51 1.255 . S
Cd47 O46 2.385 . S
Cd47 O48 2.317 . S
O48 Cd47 2.317 . S
O48 C49 1.232 . S
C49 O48 1.232 . S
C49 O50 1.218 . S
O50 C49 1.218 . S
C51 O44 1.275 . S
C51 O46 1.255 . S
C52 O53 1.258 . S
C52 O54 1.256 . S
O53 Cd45 2.381 . S
O53 C52 1.258 . S
O54 Cd45 2.378 . S
O54 C52 1.256 . S
O55 Cd56 2.300 . S
O55 C62 1.275 . S
Cd56 O55 2.300 . S
Cd56 O64 2.381 . S
Cd56 O65 2.378 . S
O57 Cd58 2.385 . S
O57 C62 1.255 . S
Cd58 O57 2.385 . S
Cd58 O59 2.317 . S
O59 Cd58 2.317 . S
O59 C60 1.232 1_565 S
C60 O59 1.232 1_545 S
C60 O61 1.218 1_545 S
O61 C60 1.218 1_565 S
C62 O55 1.275 . S
C62 O57 1.255 . S
C63 O64 1.258 . S
C63 O65 1.256 . S
O64 Cd56 2.381 . S
O64 C63 1.258 . S
O65 Cd56 2.378 . S
O65 C63 1.256 . S
O66 Cd67 2.300 . S
O66 C73 1.275 . S
Cd67 O66 2.300 . S
Cd67 O75 2.381 . S
Cd67 O76 2.378 . S
O68 Cd69 2.385 . S
O68 C73 1.255 . S
Cd69 O68 2.385 . S
Cd69 O70 2.317 . S
O70 Cd69 2.317 . S
O70 C71 1.232 . S
C71 O70 1.232 . S
C71 O72 1.218 . S
O72 C71 1.218 . S
C73 O66 1.275 . S
C73 O68 1.255 . S
C74 O75 1.258 . S
C74 O76 1.256 . S
O75 Cd67 2.381 . S
O75 C74 1.258 . S
O76 Cd67 2.378 . S
O76 C74 1.256 . S
O77 Cd78 2.300 . S
O77 C84 1.275 . S
Cd78 O77 2.300 . S
Cd78 O86 2.381 . S
Cd78 O87 2.378 . S
O79 Cd80 2.385 . S
O79 C84 1.255 . S
Cd80 O79 2.385 . S
Cd80 O81 2.317 . S
O81 Cd80 2.317 . S
O81 C82 1.232 1_545 S
C82 O81 1.232 1_565 S
C82 O83 1.218 1_565 S
O83 C82 1.218 1_545 S
C84 O77 1.275 . S
C84 O79 1.255 . S
C85 O86 1.258 . S
C85 O87 1.256 . S
O86 Cd78 2.381 . S
O86 C85 1.258 . S
O87 Cd78 2.378 . S
O87 C85 1.256 . S
O88 Cd89 2.300 . S
O88 C95 1.275 . S
Cd89 O88 2.300 . S
Cd89 O97 2.381 . S
Cd89 O98 2.378 . S
O90 Cd91 2.385 . S
O90 C95 1.255 . S
Cd91 O90 2.385 . S
Cd91 O92 2.317 . S
O92 Cd91 2.317 . S
O92 C93 1.232 . S
C93 O92 1.232 . S
C93 O94 1.218 . S
O94 C93 1.218 . S
C95 O88 1.275 . S
C95 O90 1.255 . S
C96 O97 1.258 . S
C96 O98 1.256 . S
O97 Cd89 2.381 . S
O97 C96 1.258 . S
O98 Cd89 2.378 . S
O98 C96 1.256 . S
O99 Cd100 2.300 1_545 S
O99 C106 1.275 . S
Cd100 O99 2.300 1_565 S
Cd100 O108 2.381 1_565 S
Cd100 O109 2.378 . S
O101 Cd102 2.385 . S
O101 C106 1.255 1_565 S
Cd102 O101 2.385 . S
Cd102 O103 2.317 . S
O103 Cd102 2.317 . S
O103 C104 1.232 . S
C104 O103 1.232 . S
C104 O105 1.218 . S
O105 C104 1.218 . S
C106 O99 1.275 . S
C106 O101 1.255 1_545 S
C107 O108 1.258 . S
C107 O109 1.256 1_545 S
O108 Cd100 2.381 1_545 S
O108 C107 1.258 . S
O109 Cd100 2.378 . S
O109 C107 1.256 1_565 S
O110 Cd111 2.300 . S
O110 C117 1.275 . S
Cd111 O110 2.300 . S
Cd111 O119 2.381 . S
Cd111 O120 2.378 . S
O112 Cd113 2.385 . S
O112 C117 1.255 . S
Cd113 O112 2.385 . S
Cd113 O114 2.317 . S
O114 Cd113 2.317 . S
O114 C115 1.232 . S
C115 O114 1.232 . S
C115 O116 1.218 . S
O116 C115 1.218 . S
C117 O110 1.275 . S
C117 O112 1.255 . S
C118 O119 1.258 . S
C118 O120 1.256 . S
O119 Cd111 2.381 . S
O119 C118 1.258 . S
O120 Cd111 2.378 . S
O120 C118 1.256 . S
O121 Cd122 2.300 1_565 S
O121 C128 1.275 . S
Cd122 O121 2.300 1_545 S
Cd122 O130 2.381 1_545 S
Cd122 O131 2.378 . S
O123 Cd124 2.385 . S
O123 C128 1.255 1_545 S
Cd124 O123 2.385 . S
Cd124 O125 2.317 . S
O125 Cd124 2.317 . S
O125 C126 1.232 . S
C126 O125 1.232 . S
C126 O127 1.218 . S
O127 C126 1.218 . S
C128 O121 1.275 . S
C128 O123 1.255 1_565 S
C129 O130 1.258 . S
C129 O131 1.256 1_565 S
O130 Cd122 2.381 1_565 S
O130 C129 1.258 . S
O131 Cd122 2.378 . S
O131 C129 1.256 1_545 S
O132 Cd133 2.300 . S
O132 C139 1.275 . S
Cd133 O132 2.300 . S
Cd133 O141 2.381 . S
Cd133 O142 2.378 . S
O134 Cd135 2.385 . S
O134 C139 1.255 . S
Cd135 O134 2.385 . S
Cd135 O136 2.317 . S
O136 Cd135 2.317 . S
O136 C137 1.232 . S
C137 O136 1.232 . S
C137 O138 1.218 . S
O138 C137 1.218 . S
C139 O132 1.275 . S
C139 O134 1.255 . S
C140 O141 1.258 . S
C140 O142 1.256 . S
O141 Cd133 2.381 . S
O141 C140 1.258 . S
O142 Cd133 2.378 . S
O142 C140 1.256 . S
O143 Cd144 2.300 1_545 S
O143 C150 1.275 . S
Cd144 O143 2.300 1_565 S
Cd144 O152 2.381 1_565 S
Cd144 O153 2.378 . S
O145 Cd146 2.385 . S
O145 C150 1.255 1_565 S
Cd146 O145 2.385 . S
Cd146 O147 2.317 . S
O147 Cd146 2.317 . S
O147 C148 1.232 . S
C148 O147 1.232 . S
C148 O149 1.218 . S
O149 C148 1.218 . S
C150 O143 1.275 . S
C150 O145 1.255 1_545 S
C151 O152 1.258 . S
C151 O153 1.256 1_545 S
O152 Cd144 2.381 1_545 S
O152 C151 1.258 . S
O153 Cd144 2.378 . S
O153 C151 1.256 1_565 S
O154 Cd155 2.300 . S
O154 C161 1.275 . S
Cd155 O154 2.300 . S
Cd155 O163 2.381 . S
Cd155 O164 2.378 . S
O156 Cd157 2.385 . S
O156 C161 1.255 . S
Cd157 O156 2.385 . S
Cd157 O158 2.317 . S
O158 Cd157 2.317 . S
O158 C159 1.232 . S
C159 O158 1.232 . S
C159 O160 1.218 . S
O160 C159 1.218 . S
C161 O154 1.275 . S
C161 O156 1.255 . S
C162 O163 1.258 . S
C162 O164 1.256 . S
O163 Cd155 2.381 . S
O163 C162 1.258 . S
O164 Cd155 2.378 . S
O164 C162 1.256 . S
O165 Cd166 2.300 1_565 S
O165 C172 1.275 . S
Cd166 O165 2.300 1_545 S
Cd166 O174 2.381 1_545 S
Cd166 O175 2.378 . S
O167 Cd168 2.385 . S
O167 C172 1.255 1_545 S
Cd168 O167 2.385 . S
Cd168 O169 2.317 . S
O169 Cd168 2.317 . S
O169 C170 1.232 . S
C170 O169 1.232 . S
C170 O171 1.218 . S
O171 C170 1.218 . S
C172 O165 1.275 . S
C172 O167 1.255 1_565 S
C173 O174 1.258 . S
C173 O175 1.256 1_565 S
O174 Cd166 2.381 1_565 S
O174 C173 1.258 . S
O175 Cd166 2.378 . S
O175 C173 1.256 1_545 S
O176 Cd177 2.300 . S
O176 C183 1.275 . S
Cd177 O176 2.300 . S
Cd177 O185 2.381 . S
Cd177 O186 2.378 . S
O178 Cd179 2.385 . S
O178 C183 1.255 . S
Cd179 O178 2.385 . S
Cd179 O180 2.317 . S
O180 Cd179 2.317 . S
O180 C181 1.232 . S
C181 O180 1.232 . S
C181 O182 1.218 . S
O182 C181 1.218 . S
C183 O176 1.275 . S
C183 O178 1.255 . S
C184 O185 1.258 . S
C184 O186 1.256 . S
O185 Cd177 2.381 . S
O185 C184 1.258 . S
O186 Cd177 2.378 . S
O186 C184 1.256 . S
O187 Cd188 2.300 . S
O187 C194 1.275 . S
Cd188 O187 2.300 . S
Cd188 O196 2.381 . S
Cd188 O197 2.378 . S
O189 Cd190 2.385 . S
O189 C194 1.255 . S
Cd190 O189 2.385 . S
Cd190 O191 2.317 . S
O191 Cd190 2.317 . S
O191 C192 1.232 . S
C192 O191 1.232 . S
C192 O193 1.218 . S
O193 C192 1.218 . S
C194 O187 1.275 . S
C194 O189 1.255 . S
C195 O196 1.258 . S
C195 O197 1.256 . S
O196 Cd188 2.381 . S
O196 C195 1.258 . S
O197 Cd188 2.378 . S
O197 C195 1.256 . S
O198 Cd199 2.300 . S
O198 C205 1.275 . S
Cd199 O198 2.300 . S
Cd199 O207 2.381 . S
Cd199 O208 2.378 . S
O200 Cd201 2.385 . S
O200 C205 1.255 . S
Cd201 O200 2.385 . S
Cd201 O202 2.317 . S
O202 Cd201 2.317 . S
O202 C203 1.232 . S
C203 O202 1.232 . S
C203 O204 1.218 . S
O204 C203 1.218 . S
C205 O198 1.275 . S
C205 O200 1.255 . S
C206 O207 1.258 . S
C206 O208 1.256 . S
O207 Cd199 2.381 . S
O207 C206 1.258 . S
O208 Cd199 2.378 . S
O208 C206 1.256 . S
O209 Cd210 2.300 . S
O209 C216 1.275 . S
Cd210 O209 2.300 . S
Cd210 O218 2.381 . S
Cd210 O219 2.378 . S
O211 Cd212 2.385 . S
O211 C216 1.255 . S
Cd212 O211 2.385 . S
Cd212 O213 2.317 . S
O213 Cd212 2.317 . S
O213 C214 1.232 . S
C214 O213 1.232 . S
C214 O215 1.218 . S
O215 C214 1.218 . S
C216 O209 1.275 . S
C216 O211 1.255 . S
C217 O218 1.258 . S
C217 O219 1.256 . S
O218 Cd210 2.381 . S
O218 C217 1.258 . S
O219 Cd210 2.378 . S
O219 C217 1.256 . S
O220 Cd221 2.300 . S
O220 C227 1.275 . S
Cd221 O220 2.300 . S
Cd221 O229 2.381 . S
Cd221 O230 2.378 . S
O222 Cd223 2.385 . S
O222 C227 1.255 . S
Cd223 O222 2.385 . S
Cd223 O224 2.317 . S
O224 Cd223 2.317 . S
O224 C225 1.232 . S
C225 O224 1.232 . S
C225 O226 1.218 . S
O226 C225 1.218 . S
C227 O220 1.275 . S
C227 O222 1.255 . S
C228 O229 1.258 . S
C228 O230 1.256 . S
O229 Cd221 2.381 . S
O229 C228 1.258 . S
O230 Cd221 2.378 . S
O230 C228 1.256 . S
O231 Cd232 2.300 . S
O231 C238 1.275 . S
Cd232 O231 2.300 . S
Cd232 O240 2.381 . S
Cd232 O241 2.378 . S
O233 Cd234 2.385 . S
O233 C238 1.255 . S
Cd234 O233 2.385 . S
Cd234 O235 2.317 . S
O235 Cd234 2.317 . S
O235 C236 1.232 . S
C236 O235 1.232 . S
C236 O237 1.218 . S
O237 C236 1.218 . S
C238 O231 1.275 . S
C238 O233 1.255 . S
C239 O240 1.258 . S
C239 O241 1.256 . S
O240 Cd232 2.381 . S
O240 C239 1.258 . S
O241 Cd232 2.378 . S
O241 C239 1.256 . S
O242 Cd243 2.300 . S
O242 C249 1.275 . S
Cd243 O242 2.300 . S
Cd243 O251 2.381 . S
Cd243 O252 2.378 . S
O244 Cd245 2.385 . S
O244 C249 1.255 . S
Cd245 O244 2.385 . S
Cd245 O246 2.317 . S
O246 Cd245 2.317 . S
O246 C247 1.232 . S
C247 O246 1.232 . S
C247 O248 1.218 . S
O248 C247 1.218 . S
C249 O242 1.275 . S
C249 O244 1.255 . S
C250 O251 1.258 . S
C250 O252 1.256 . S
O251 Cd243 2.381 . S
O251 C250 1.258 . S
O252 Cd243 2.378 . S
O252 C250 1.256 . S
O253 Cd254 2.300 . S
O253 C260 1.275 . S
Cd254 O253 2.300 . S
Cd254 O262 2.381 . S
Cd254 O263 2.378 . S
O255 Cd256 2.385 . S
O255 C260 1.255 . S
Cd256 O255 2.385 . S
Cd256 O257 2.317 . S
O257 Cd256 2.317 . S
O257 C258 1.232 . S
C258 O257 1.232 . S
C258 O259 1.218 . S
O259 C258 1.218 . S
C260 O253 1.275 . S
C260 O255 1.255 . S
C261 O262 1.258 . S
C261 O263 1.256 . S
O262 Cd254 2.381 . S
O262 C261 1.258 . S
O263 Cd254 2.378 . S
O263 C261 1.256 . S
O264 Cd265 2.300 . S
O264 C271 1.275 . S
Cd265 O264 2.300 . S
Cd265 O273 2.381 . S
Cd265 O274 2.378 . S
O266 Cd267 2.385 . S
O266 C271 1.255 . S
Cd267 O266 2.385 . S
Cd267 O268 2.317 . S
O268 Cd267 2.317 . S
O268 C269 1.232 . S
C269 O268 1.232 . S
C269 O270 1.218 . S
O270 C269 1.218 . S
C271 O264 1.275 . S
C271 O266 1.255 . S
C272 O273 1.258 . S
C272 O274 1.256 . S
O273 Cd265 2.381 . S
O273 C272 1.258 . S
O274 Cd265 2.378 . S
O274 C272 1.256 . S
O275 Cd276 2.300 . S
O275 C282 1.275 . S
Cd276 O275 2.300 . S
Cd276 O284 2.381 . S
Cd276 O285 2.378 . S
O277 Cd278 2.385 . S
O277 C282 1.255 . S
Cd278 O277 2.385 . S
Cd278 O279 2.317 . S
O279 Cd278 2.317 . S
O279 C280 1.232 . S
C280 O279 1.232 . S
C280 O281 1.218 . S
O281 C280 1.218 . S
C282 O275 1.275 . S
C282 O277 1.255 . S
C283 O284 1.258 . S
C283 O285 1.256 . S
O284 Cd276 2.381 . S
O284 C283 1.258 . S
O285 Cd276 2.378 . S
O285 C283 1.256 . S
O286 Cd287 2.300 . S
O286 C293 1.275 . S
Cd287 O286 2.300 . S
Cd287 O295 2.381 . S
Cd287 O296 2.378 . S
O288 Cd289 2.385 . S
O288 C293 1.255 . S
Cd289 O288 2.385 . S
Cd289 O290 2.317 . S
O290 Cd289 2.317 . S
O290 C291 1.232 . S
C291 O290 1.232 . S
C291 O292 1.218 . S
O292 C291 1.218 . S
C293 O286 1.275 . S
C293 O288 1.255 . S
C294 O295 1.258 . S
C294 O296 1.256 . S
O295 Cd287 2.381 . S
O295 C294 1.258 . S
O296 Cd287 2.378 . S
O296 C294 1.256 . S
O297 Cd298 2.300 . S
O297 C304 1.275 . S
Cd298 O297 2.300 . S
Cd298 O306 2.381 . S
Cd298 O307 2.378 . S
O299 Cd300 2.385 . S
O299 C304 1.255 . S
Cd300 O299 2.385 . S
Cd300 O301 2.317 . S
O301 Cd300 2.317 . S
O301 C302 1.232 . S
C302 O301 1.232 . S
C302 O303 1.218 . S
O303 C302 1.218 . S
C304 O297 1.275 . S
C304 O299 1.255 . S
C305 O306 1.258 . S
C305 O307 1.256 . S
O306 Cd298 2.381 . S
O306 C305 1.258 . S
O307 Cd298 2.378 . S
O307 C305 1.256 . S
O308 Cd309 2.300 . S
O308 C315 1.275 . S
Cd309 O308 2.300 . S
Cd309 O317 2.381 . S
Cd309 O318 2.378 . S
O310 Cd311 2.385 . S
O310 C315 1.255 . S
Cd311 O310 2.385 . S
Cd311 O312 2.317 . S
O312 Cd311 2.317 . S
O312 C313 1.232 . S
C313 O312 1.232 . S
C313 O314 1.218 . S
O314 C313 1.218 . S
C315 O308 1.275 . S
C315 O310 1.255 . S
C316 O317 1.258 . S
C316 O318 1.256 . S
O317 Cd309 2.381 . S
O317 C316 1.258 . S
O318 Cd309 2.378 . S
O318 C316 1.256 . S
O319 Cd320 2.300 . S
O319 C326 1.275 . S
Cd320 O319 2.300 . S
Cd320 O328 2.381 . S
Cd320 O329 2.378 . S
O321 Cd322 2.385 . S
O321 C326 1.255 . S
Cd322 O321 2.385 . S
Cd322 O323 2.317 . S
O323 Cd322 2.317 . S
O323 C324 1.232 . S
C324 O323 1.232 . S
C324 O325 1.218 . S
O325 C324 1.218 . S
C326 O319 1.275 . S
C326 O321 1.255 . S
C327 O328 1.258 . S
C327 O329 1.256 . S
O328 Cd320 2.381 . S
O328 C327 1.258 . S
O329 Cd320 2.378 . S
O329 C327 1.256 . S
O330 Cd331 2.300 . S
O330 C337 1.275 . S
Cd331 O330 2.300 . S
Cd331 O339 2.381 . S
Cd331 O340 2.378 . S
O332 Cd333 2.385 . S
O332 C337 1.255 . S
Cd333 O332 2.385 . S
Cd333 O334 2.317 . S
O334 Cd333 2.317 . S
O334 C335 1.232 . S
C335 O334 1.232 . S
C335 O336 1.218 . S
O336 C335 1.218 . S
C337 O330 1.275 . S
C337 O332 1.255 . S
C338 O339 1.258 . S
C338 O340 1.256 . S
O339 Cd331 2.381 . S
O339 C338 1.258 . S
O340 Cd331 2.378 . S
O340 C338 1.256 . S
O341 Cd342 2.300 . S
O341 C348 1.275 . S
Cd342 O341 2.300 . S
Cd342 O350 2.381 . S
Cd342 O351 2.378 . S
O343 Cd344 2.385 . S
O343 C348 1.255 . S
Cd344 O343 2.385 . S
Cd344 O345 2.317 . S
O345 Cd344 2.317 . S
O345 C346 1.232 . S
C346 O345 1.232 . S
C346 O347 1.218 . S
O347 C346 1.218 . S
C348 O341 1.275 . S
C348 O343 1.255 . S
C349 O350 1.258 . S
C349 O351 1.256 . S
O350 Cd342 2.381 . S
O350 C349 1.258 . S
O351 Cd342 2.378 . S
O351 C349 1.256 . S
C352 C353 1.387 . S
C352 H356 0.950 . S
C352 C361 1.390 . S
C353 C352 1.387 . S
C353 C355 1.387 . S
H354 C361 0.950 . S
C355 C353 1.387 . S
C355 C357 1.390 . S
C355 H359 0.950 1_545 S
H356 C352 0.950 . S
C357 C355 1.390 . S
C357 C358 1.387 . S
C357 H360 0.950 . S
C358 C357 1.387 . S
C358 C361 1.387 . S
H359 C355 0.950 1_565 S
H360 C357 0.950 . S
C361 C352 1.390 . S
C361 H354 0.950 . S
C361 C358 1.387 . S
C362 C363 1.387 . S
C362 H366 0.950 . S
C362 C371 1.390 . S
C363 C362 1.387 . S
C363 C365 1.387 . S
H364 C371 0.950 . S
C365 C363 1.387 . S
C365 C367 1.390 . S
C365 H369 0.950 . S
H366 C362 0.950 . S
C367 C365 1.390 . S
C367 C368 1.387 . S
C367 H370 0.950 . S
C368 C367 1.387 . S
C368 C371 1.387 . S
H369 C365 0.950 . S
H370 C367 0.950 . S
C371 C362 1.390 . S
C371 H364 0.950 . S
C371 C368 1.387 . S
C372 C373 1.387 . S
C372 H376 0.950 . S
C372 C381 1.390 . S
C373 C372 1.387 . S
C373 C375 1.387 . S
H374 C381 0.950 . S
C375 C373 1.387 . S
C375 C377 1.390 . S
C375 H379 0.950 . S
H376 C372 0.950 . S
C377 C375 1.390 . S
C377 C378 1.387 . S
C377 H380 0.950 1_565 S
C378 C377 1.387 . S
C378 C381 1.387 . S
H379 C375 0.950 . S
H380 C377 0.950 1_545 S
C381 C372 1.390 . S
C381 H374 0.950 . S
C381 C378 1.387 . S
C382 C383 1.387 . S
C382 H386 0.950 . S
C382 C391 1.390 . S
C383 C382 1.387 . S
C383 C385 1.387 . S
H384 C391 0.950 . S
C385 C383 1.387 . S
C385 C387 1.390 . S
C385 H389 0.950 1_565 S
H386 C382 0.950 . S
C387 C385 1.390 . S
C387 C388 1.387 . S
C387 H390 0.950 . S
C388 C387 1.387 . S
C388 C391 1.387 . S
H389 C385 0.950 1_545 S
H390 C387 0.950 . S
C391 C382 1.390 . S
C391 H384 0.950 . S
C391 C388 1.387 . S
C392 C393 1.387 . S
C392 H396 0.950 1_565 S
C392 C401 1.390 . S
C393 C392 1.387 . S
C393 C395 1.387 . S
H394 C401 0.950 . S
C395 C393 1.387 . S
C395 C397 1.390 . S
C395 H399 0.950 . S
H396 C392 0.950 1_545 S
C397 C395 1.390 . S
C397 C398 1.387 . S
C397 H400 0.950 . S
C398 C397 1.387 . S
C398 C401 1.387 . S
H399 C395 0.950 . S
H400 C397 0.950 . S
C401 C392 1.390 . S
C401 H394 0.950 . S
C401 C398 1.387 . S
C402 C403 1.387 . S
C402 H406 0.950 1_565 S
C402 C411 1.390 . S
C403 C402 1.387 . S
C403 C405 1.387 . S
H404 C411 0.950 . S
C405 C403 1.387 . S
C405 C407 1.390 . S
C405 H409 0.950 . S
H406 C402 0.950 1_545 S
C407 C405 1.390 . S
C407 C408 1.387 . S
C407 H410 0.950 . S
C408 C407 1.387 . S
C408 C411 1.387 . S
H409 C405 0.950 . S
H410 C407 0.950 . S
C411 C402 1.390 . S
C411 H404 0.950 . S
C411 C408 1.387 . S
C412 C413 1.387 . S
C412 H416 0.950 . S
C412 C421 1.390 . S
C413 C412 1.387 . S
C413 C415 1.387 . S
H414 C421 0.950 . S
C415 C413 1.387 . S
C415 C417 1.390 . S
C415 H419 0.950 . S
H416 C412 0.950 . S
C417 C415 1.390 . S
C417 C418 1.387 . S
C417 H420 0.950 1_545 S
C418 C417 1.387 . S
C418 C421 1.387 . S
H419 C415 0.950 . S
H420 C417 0.950 1_565 S
C421 C412 1.390 . S
C421 H414 0.950 . S
C421 C418 1.387 . S
C422 C423 1.387 . S
C422 H426 0.950 . S
C422 C431 1.390 . S
C423 C422 1.387 . S
C423 C425 1.387 . S
H424 C431 0.950 1_565 S
C425 C423 1.387 . S
C425 C427 1.390 . S
C425 H429 0.950 . S
H426 C422 0.950 . S
C427 C425 1.390 . S
C427 C428 1.387 . S
C427 H430 0.950 . S
C428 C427 1.387 . S
C428 C431 1.387 . S
H429 C425 0.950 . S
H430 C427 0.950 . S
C431 C422 1.390 . S
C431 H424 0.950 1_545 S
C431 C428 1.387 . S
C432 C433 1.387 . S
C432 H436 0.950 . S
C432 C441 1.390 . S
C433 C432 1.387 . S
C433 C435 1.387 . S
H434 C441 0.950 . S
C435 C433 1.387 . S
C435 C437 1.390 . S
C435 H439 0.950 . S
H436 C432 0.950 . S
C437 C435 1.390 . S
C437 C438 1.387 . S
C437 H440 0.950 . S
C438 C437 1.387 . S
C438 C441 1.387 . S
H439 C435 0.950 . S
H440 C437 0.950 . S
C441 C432 1.390 . S
C441 H434 0.950 . S
C441 C438 1.387 . S
C442 C443 1.387 . S
C442 H446 0.950 . S
C442 C451 1.390 . S
C443 C442 1.387 . S
C443 C445 1.387 . S
H444 C451 0.950 . S
C445 C443 1.387 . S
C445 C447 1.390 . S
C445 H449 0.950 . S
H446 C442 0.950 . S
C447 C445 1.390 . S
C447 C448 1.387 . S
C447 H450 0.950 . S
C448 C447 1.387 . S
C448 C451 1.387 . S
H449 C445 0.950 . S
H450 C447 0.950 . S
C451 C442 1.390 . S
C451 H444 0.950 . S
C451 C448 1.387 . S
C452 C453 1.387 . S
C452 H456 0.950 . S
C452 C461 1.390 . S
C453 C452 1.387 . S
C453 C455 1.387 . S
H454 C461 0.950 . S
C455 C453 1.387 . S
C455 C457 1.390 . S
C455 H459 0.950 . S
H456 C452 0.950 . S
C457 C455 1.390 . S
C457 C458 1.387 . S
C457 H460 0.950 . S
C458 C457 1.387 . S
C458 C461 1.387 . S
H459 C455 0.950 . S
H460 C457 0.950 . S
C461 C452 1.390 . S
C461 H454 0.950 . S
C461 C458 1.387 . S
C462 C463 1.387 . S
C462 H466 0.950 . S
C462 C471 1.390 . S
C463 C462 1.387 . S
C463 C465 1.387 . S
H464 C471 0.950 . S
C465 C463 1.387 . S
C465 C467 1.390 . S
C465 H469 0.950 . S
H466 C462 0.950 . S
C467 C465 1.390 . S
C467 C468 1.387 . S
C467 H470 0.950 . S
C468 C467 1.387 . S
C468 C471 1.387 . S
H469 C465 0.950 . S
H470 C467 0.950 . S
C471 C462 1.390 . S
C471 H464 0.950 . S
C471 C468 1.387 . S
C472 C473 1.387 . S
C472 H476 0.950 . S
C472 C481 1.390 . S
C473 C472 1.387 . S
C473 C475 1.387 . S
H474 C481 0.950 . S
C475 C473 1.387 . S
C475 C477 1.390 . S
C475 H479 0.950 . S
H476 C472 0.950 . S
C477 C475 1.390 . S
C477 C478 1.387 . S
C477 H480 0.950 . S
C478 C477 1.387 . S
C478 C481 1.387 . S
H479 C475 0.950 . S
H480 C477 0.950 . S
C481 C472 1.390 . S
C481 H474 0.950 . S
C481 C478 1.387 . S
C482 C483 1.387 . S
C482 H486 0.950 . S
C482 C491 1.390 . S
C483 C482 1.387 . S
C483 C485 1.387 . S
H484 C491 0.950 . S
C485 C483 1.387 . S
C485 C487 1.390 . S
C485 H489 0.950 . S
H486 C482 0.950 . S
C487 C485 1.390 . S
C487 C488 1.387 . S
C487 H490 0.950 . S
C488 C487 1.387 . S
C488 C491 1.387 . S
H489 C485 0.950 . S
H490 C487 0.950 . S
C491 C482 1.390 . S
C491 H484 0.950 . S
C491 C488 1.387 . S
C492 C493 1.387 . S
C492 H496 0.950 . S
C492 C501 1.390 . S
C493 C492 1.387 . S
C493 C495 1.387 . S
H494 C501 0.950 . S
C495 C493 1.387 . S
C495 C497 1.390 . S
C495 H499 0.950 . S
H496 C492 0.950 . S
C497 C495 1.390 . S
C497 C498 1.387 . S
C497 H500 0.950 . S
C498 C497 1.387 . S
C498 C501 1.387 . S
H499 C495 0.950 . S
H500 C497 0.950 . S
C501 C492 1.390 . S
C501 H494 0.950 . S
C501 C498 1.387 . S
C502 C503 1.387 . S
C502 H506 0.950 . S
C502 C511 1.390 . S
C503 C502 1.387 . S
C503 C505 1.387 . S
H504 C511 0.950 . S
C505 C503 1.387 . S
C505 C507 1.390 . S
C505 H509 0.950 . S
H506 C502 0.950 . S
C507 C505 1.390 . S
C507 C508 1.387 . S
C507 H510 0.950 . S
C508 C507 1.387 . S
C508 C511 1.387 . S
H509 C505 0.950 . S
H510 C507 0.950 . S
C511 C502 1.390 . S
C511 H504 0.950 . S
C511 C508 1.387 . S
C512 C513 1.387 . S
C512 H516 0.950 . S
C512 C521 1.390 . S
C513 C512 1.387 . S
C513 C515 1.387 . S
H514 C521 0.950 . S
C515 C513 1.387 . S
C515 C517 1.390 . S
C515 H519 0.950 . S
H516 C512 0.950 . S
C517 C515 1.390 . S
C517 C518 1.387 . S
C517 H520 0.950 . S
C518 C517 1.387 . S
C518 C521 1.387 . S
H519 C515 0.950 . S
H520 C517 0.950 . S
C521 C512 1.390 . S
C521 H514 0.950 . S
C521 C518 1.387 . S
C522 C523 1.387 1_565 S
C522 H526 0.950 . S
C522 C531 1.390 1_655 S
C523 C522 1.387 1_545 S
C523 C525 1.387 . S
H524 C531 0.950 . S
C525 C523 1.387 . S
C525 C527 1.390 1_655 S
C525 H529 0.950 . S
H526 C522 0.950 . S
C527 C525 1.390 1_455 S
C527 C528 1.387 1_545 S
C527 H530 0.950 . S
C528 C527 1.387 1_565 S
C528 C531 1.387 . S
H529 C525 0.950 . S
H530 C527 0.950 . S
C531 C522 1.390 1_455 S
C531 H524 0.950 . S
C531 C528 1.387 . S
C532 C533 1.387 . S
C532 H536 0.950 . S
C532 C541 1.390 . S
C533 C532 1.387 . S
C533 C535 1.387 . S
H534 C541 0.950 . S
C535 C533 1.387 . S
C535 C537 1.390 . S
C535 H539 0.950 . S
H536 C532 0.950 . S
C537 C535 1.390 . S
C537 C538 1.387 . S
C537 H540 0.950 . S
C538 C537 1.387 . S
C538 C541 1.387 . S
H539 C535 0.950 . S
H540 C537 0.950 . S
C541 C532 1.390 . S
C541 H534 0.950 . S
C541 C538 1.387 . S
C542 C543 1.387 1_565 S
C542 H546 0.950 . S
C542 C551 1.390 . S
C543 C542 1.387 1_545 S
C543 C545 1.387 1_554 S
H544 C551 0.950 . S
C545 C543 1.387 1_556 S
C545 C547 1.390 . S
C545 H549 0.950 . S
H546 C542 0.950 . S
C547 C545 1.390 . S
C547 C548 1.387 1_545 S
C547 H550 0.950 . S
C548 C547 1.387 1_565 S
C548 C551 1.387 1_556 S
H549 C545 0.950 . S
H550 C547 0.950 . S
C551 C542 1.390 . S
C551 H544 0.950 . S
C551 C548 1.387 1_554 S
C552 C553 1.387 . S
C552 H556 0.950 . S
C552 C561 1.390 . S
C553 C552 1.387 . S
C553 C555 1.387 . S
H554 C561 0.950 . S
C555 C553 1.387 . S
C555 C557 1.390 . S
C555 H559 0.950 . S
H556 C552 0.950 . S
C557 C555 1.390 . S
C557 C558 1.387 . S
C557 H560 0.950 . S
C558 C557 1.387 . S
C558 C561 1.387 . S
H559 C555 0.950 . S
H560 C557 0.950 . S
C561 C552 1.390 . S
C561 H554 0.950 . S
C561 C558 1.387 . S
C562 C563 1.387 1_565 S
C562 H566 0.950 . S
C562 C571 1.390 . S
C563 C562 1.387 1_545 S
C563 C565 1.387 . S
H564 C571 0.950 . S
C565 C563 1.387 . S
C565 C567 1.390 . S
C565 H569 0.950 . S
H566 C562 0.950 . S
C567 C565 1.390 . S
C567 C568 1.387 1_545 S
C567 H570 0.950 . S
C568 C567 1.387 1_565 S
C568 C571 1.387 . S
H569 C565 0.950 . S
H570 C567 0.950 . S
C571 C562 1.390 . S
C571 H564 0.950 . S
C571 C568 1.387 . S
C572 C573 1.387 . S
C572 H576 0.950 . S
C572 C581 1.390 . S
C573 C572 1.387 . S
C573 C575 1.387 . S
H574 C581 0.950 . S
C575 C573 1.387 . S
C575 C577 1.390 . S
C575 H579 0.950 . S
H576 C572 0.950 . S
C577 C575 1.390 . S
C577 C578 1.387 . S
C577 H580 0.950 . S
C578 C577 1.387 . S
C578 C581 1.387 . S
H579 C575 0.950 . S
H580 C577 0.950 . S
C581 C572 1.390 . S
C581 H574 0.950 . S
C581 C578 1.387 . S
C582 C583 1.387 1_545 S
C582 H586 0.950 . S
C582 C591 1.390 1_655 S
C583 C582 1.387 1_565 S
C583 C585 1.387 1_554 S
H584 C591 0.950 . S
C585 C583 1.387 1_556 S
C585 C587 1.390 1_655 S
C585 H589 0.950 . S
H586 C582 0.950 . S
C587 C585 1.390 1_455 S
C587 C588 1.387 1_565 S
C587 H590 0.950 . S
C588 C587 1.387 1_545 S
C588 C591 1.387 1_556 S
H589 C585 0.950 . S
H590 C587 0.950 . S
C591 C582 1.390 1_455 S
C591 H584 0.950 . S
C591 C588 1.387 1_554 S
C592 C593 1.387 . S
C592 H596 0.950 . S
C592 C601 1.390 . S
C593 C592 1.387 . S
C593 C595 1.387 . S
H594 C601 0.950 . S
C595 C593 1.387 . S
C595 C597 1.390 . S
C595 H599 0.950 . S
H596 C592 0.950 . S
C597 C595 1.390 . S
C597 C598 1.387 . S
C597 H600 0.950 . S
C598 C597 1.387 . S
C598 C601 1.387 . S
H599 C595 0.950 . S
H600 C597 0.950 . S
C601 C592 1.390 . S
C601 H594 0.950 . S
C601 C598 1.387 . S
C602 C603 1.387 . S
C602 H606 0.950 . S
C602 C611 1.390 . S
C603 C602 1.387 . S
C603 C605 1.387 . S
H604 C611 0.950 . S
C605 C603 1.387 . S
C605 C607 1.390 . S
C605 H609 0.950 . S
H606 C602 0.950 . S
C607 C605 1.390 . S
C607 C608 1.387 . S
C607 H610 0.950 . S
C608 C607 1.387 . S
C608 C611 1.387 . S
H609 C605 0.950 . S
H610 C607 0.950 . S
C611 C602 1.390 . S
C611 H604 0.950 . S
C611 C608 1.387 . S
C612 C613 1.387 . S
C612 H616 0.950 . S
C612 C621 1.390 . S
C613 C612 1.387 . S
C613 C615 1.387 . S
H614 C621 0.950 . S
C615 C613 1.387 . S
C615 C617 1.390 . S
C615 H619 0.950 . S
H616 C612 0.950 . S
C617 C615 1.390 . S
C617 C618 1.387 . S
C617 H620 0.950 . S
C618 C617 1.387 . S
C618 C621 1.387 . S
H619 C615 0.950 . S
H620 C617 0.950 . S
C621 C612 1.390 . S
C621 H614 0.950 . S
C621 C618 1.387 . S
C622 C623 1.387 . S
C622 H626 0.950 . S
C622 C631 1.390 . S
C623 C622 1.387 . S
C623 C625 1.387 . S
H624 C631 0.950 . S
C625 C623 1.387 . S
C625 C627 1.390 . S
C625 H629 0.950 . S
H626 C622 0.950 . S
C627 C625 1.390 . S
C627 C628 1.387 . S
C627 H630 0.950 . S
C628 C627 1.387 . S
C628 C631 1.387 . S
H629 C625 0.950 . S
H630 C627 0.950 . S
C631 C622 1.390 . S
C631 H624 0.950 . S
C631 C628 1.387 . S
C632 C633 1.387 1_556 S
C632 H636 0.950 . S
C632 C641 1.390 . S
C633 C632 1.387 1_554 S
C633 C635 1.387 . S
H634 C641 0.950 . S
C635 C633 1.387 . S
C635 C637 1.390 . S
C635 H639 0.950 . S
H636 C632 0.950 . S
C637 C635 1.390 . S
C637 C638 1.387 1_554 S
C637 H640 0.950 . S
C638 C637 1.387 1_556 S
C638 C641 1.387 . S
H639 C635 0.950 . S
H640 C637 0.950 . S
C641 C632 1.390 . S
C641 H634 0.950 . S
C641 C638 1.387 . S
C642 C643 1.387 . S
C642 H646 0.950 . S
C642 C651 1.390 1_455 S
C643 C642 1.387 . S
C643 C645 1.387 . S
H644 C651 0.950 . S
C645 C643 1.387 . S
C645 C647 1.390 1_455 S
C645 H649 0.950 . S
H646 C642 0.950 . S
C647 C645 1.390 1_655 S
C647 C648 1.387 . S
C647 H650 0.950 . S
C648 C647 1.387 . S
C648 C651 1.387 . S
H649 C645 0.950 . S
H650 C647 0.950 . S
C651 C642 1.390 1_655 S
C651 H644 0.950 . S
C651 C648 1.387 . S
C652 C653 1.387 1_554 S
C652 H656 0.950 . S
C652 C661 1.390 1_655 S
C653 C652 1.387 1_556 S
C653 C655 1.387 . S
H654 C661 0.950 . S
C655 C653 1.387 . S
C655 C657 1.390 1_655 S
C655 H659 0.950 . S
H656 C652 0.950 . S
C657 C655 1.390 1_455 S
C657 C658 1.387 1_556 S
C657 H660 0.950 . S
C658 C657 1.387 1_554 S
C658 C661 1.387 . S
H659 C655 0.950 . S
H660 C657 0.950 . S
C661 C652 1.390 1_455 S
C661 H654 0.950 . S
C661 C658 1.387 . S
C662 C663 1.387 . S
C662 H666 0.950 . S
C662 C671 1.390 . S
C663 C662 1.387 . S
C663 C665 1.387 . S
H664 C671 0.950 . S
C665 C663 1.387 . S
C665 C667 1.390 . S
C665 H669 0.950 . S
H666 C662 0.950 . S
C667 C665 1.390 . S
C667 C668 1.387 . S
C667 H670 0.950 . S
C668 C667 1.387 . S
C668 C671 1.387 . S
H669 C665 0.950 . S
H670 C667 0.950 . S
C671 C662 1.390 . S
C671 H664 0.950 . S
C671 C668 1.387 . S
C672 C673 1.387 . S
C672 H676 0.950 . S
C672 C681 1.390 1_565 S
C673 C672 1.387 . S
C673 C675 1.387 . S
H674 C681 0.950 . S
C675 C673 1.387 . S
C675 C677 1.390 1_565 S
C675 H679 0.950 . S
H676 C672 0.950 . S
C677 C675 1.390 1_545 S
C677 C678 1.387 . S
C677 H680 0.950 . S
C678 C677 1.387 . S
C678 C681 1.387 . S
H679 C675 0.950 . S
H680 C677 0.950 . S
C681 C672 1.390 1_545 S
C681 H674 0.950 . S
C681 C678 1.387 . S
C682 C683 1.387 . S
C682 H686 0.950 . S
C682 C691 1.390 . S
C683 C682 1.387 . S
C683 C685 1.387 1_565 S
H684 C691 0.950 . S
C685 C683 1.387 1_545 S
C685 C687 1.390 . S
C685 H689 0.950 . S
H686 C682 0.950 . S
C687 C685 1.390 . S
C687 C688 1.387 1_545 S
C687 H690 0.950 . S
C688 C687 1.387 1_565 S
C688 C691 1.387 . S
H689 C685 0.950 . S
H690 C687 0.950 . S
C691 C682 1.390 . S
C691 H684 0.950 . S
C691 C688 1.387 . S
C692 C693 1.387 . S
C692 H696 0.950 . S
C692 C701 1.390 1_545 S
C693 C692 1.387 . S
C693 C695 1.387 . S
H694 C701 0.950 . S
C695 C693 1.387 . S
C695 C697 1.390 1_545 S
C695 H699 0.950 . S
H696 C692 0.950 . S
C697 C695 1.390 1_565 S
C697 C698 1.387 . S
C697 H700 0.950 . S
C698 C697 1.387 . S
C698 C701 1.387 . S
H699 C695 0.950 . S
H700 C697 0.950 . S
C701 C692 1.390 1_565 S
C701 H694 0.950 . S
C701 C698 1.387 . S
C702 C703 1.387 1_565 S
C702 H706 0.950 . S
C702 C711 1.390 1_556 S
C703 C702 1.387 1_545 S
C703 C705 1.387 . S
H704 C711 0.950 . S
C705 C703 1.387 . S
C705 C707 1.390 1_556 S
C705 H709 0.950 . S
H706 C702 0.950 . S
C707 C705 1.390 1_554 S
C707 C708 1.387 . S
C707 H710 0.950 . S
C708 C707 1.387 . S
C708 C711 1.387 1_545 S
H709 C705 0.950 . S
H710 C707 0.950 . S
C711 C702 1.390 1_554 S
C711 H704 0.950 . S
C711 C708 1.387 1_565 S
C712 C713 1.387 . S
C712 H716 0.950 . S
C712 C721 1.390 1_565 S
C713 C712 1.387 . S
C713 C715 1.387 . S
H714 C721 0.950 . S
C715 C713 1.387 . S
C715 C717 1.390 1_565 S
C715 H719 0.950 . S
H716 C712 0.950 . S
C717 C715 1.390 1_545 S
C717 C718 1.387 . S
C717 H720 0.950 . S
C718 C717 1.387 . S
C718 C721 1.387 . S
H719 C715 0.950 . S
H720 C717 0.950 . S
C721 C712 1.390 1_545 S
C721 H714 0.950 . S
C721 C718 1.387 . S
C722 C723 1.387 . S
C722 H726 0.950 . S
C722 C731 1.390 . S
C723 C722 1.387 . S
C723 C725 1.387 1_545 S
H724 C731 0.950 . S
C725 C723 1.387 1_565 S
C725 C727 1.390 . S
C725 H729 0.950 . S
H726 C722 0.950 . S
C727 C725 1.390 . S
C727 C728 1.387 1_565 S
C727 H730 0.950 . S
C728 C727 1.387 1_545 S
C728 C731 1.387 . S
H729 C725 0.950 . S
H730 C727 0.950 . S
C731 C722 1.390 . S
C731 H724 0.950 . S
C731 C728 1.387 . S
C732 C733 1.387 . S
C732 H736 0.950 . S
C732 C741 1.390 1_545 S
C733 C732 1.387 . S
C733 C735 1.387 . S
H734 C741 0.950 . S
C735 C733 1.387 . S
C735 C737 1.390 1_545 S
C735 H739 0.950 . S
H736 C732 0.950 . S
C737 C735 1.390 1_565 S
C737 C738 1.387 . S
C737 H740 0.950 . S
C738 C737 1.387 . S
C738 C741 1.387 . S
H739 C735 0.950 . S
H740 C737 0.950 . S
C741 C732 1.390 1_565 S
C741 H734 0.950 . S
C741 C738 1.387 . S
C742 C743 1.387 . S
C742 H746 0.950 . S
C742 C751 1.390 1_554 S
C743 C742 1.387 . S
C743 C745 1.387 1_565 S
H744 C751 0.950 . S
C745 C743 1.387 1_545 S
C745 C747 1.390 1_554 S
C745 H749 0.950 . S
H746 C742 0.950 . S
C747 C745 1.390 1_556 S
C747 C748 1.387 1_545 S
C747 H750 0.950 . S
C748 C747 1.387 1_565 S
C748 C751 1.387 . S
H749 C745 0.950 . S
H750 C747 0.950 . S
C751 C742 1.390 1_556 S
C751 H744 0.950 . S
C751 C748 1.387 . S
C752 C753 1.387 . S
C752 H756 0.950 . S
C752 C761 1.390 . S
C753 C752 1.387 . S
C753 C755 1.387 . S
H754 C761 0.950 . S
C755 C753 1.387 . S
C755 C757 1.390 . S
C755 H759 0.950 . S
H756 C752 0.950 . S
C757 C755 1.390 . S
C757 C758 1.387 . S
C757 H760 0.950 . S
C758 C757 1.387 . S
C758 C761 1.387 . S
H759 C755 0.950 . S
H760 C757 0.950 . S
C761 C752 1.390 . S
C761 H754 0.950 . S
C761 C758 1.387 . S
C762 C763 1.387 . S
C762 H766 0.950 . S
C762 C771 1.390 1_554 S
C763 C762 1.387 . S
C763 C765 1.387 . S
H764 C771 0.950 . S
C765 C763 1.387 . S
C765 C767 1.390 1_554 S
C765 H769 0.950 . S
H766 C762 0.950 . S
C767 C765 1.390 1_556 S
C767 C768 1.387 . S
C767 H770 0.950 . S
C768 C767 1.387 . S
C768 C771 1.387 . S
H769 C765 0.950 . S
H770 C767 0.950 . S
C771 C762 1.390 1_556 S
C771 H764 0.950 . S
C771 C768 1.387 . S
C772 C773 1.387 . S
C772 H776 0.950 . S
C772 C781 1.390 . S
C773 C772 1.387 . S
C773 C775 1.387 . S
H774 C781 0.950 . S
C775 C773 1.387 . S
C775 C777 1.390 . S
C775 H779 0.950 . S
H776 C772 0.950 . S
C777 C775 1.390 . S
C777 C778 1.387 . S
C777 H780 0.950 . S
C778 C777 1.387 . S
C778 C781 1.387 . S
H779 C775 0.950 . S
H780 C777 0.950 . S
C781 C772 1.390 . S
C781 H774 0.950 . S
C781 C778 1.387 . S
C782 C783 1.387 . S
C782 H786 0.950 . S
C782 C791 1.390 . S
C783 C782 1.387 . S
C783 C785 1.387 . S
H784 C791 0.950 . S
C785 C783 1.387 . S
C785 C787 1.390 . S
C785 H789 0.950 . S
H786 C782 0.950 . S
C787 C785 1.390 . S
C787 C788 1.387 . S
C787 H790 0.950 . S
C788 C787 1.387 . S
C788 C791 1.387 . S
H789 C785 0.950 . S
H790 C787 0.950 . S
C791 C782 1.390 . S
C791 H784 0.950 . S
C791 C788 1.387 . S
C792 C793 1.387 . S
C792 H796 0.950 . S
C792 C801 1.390 . S
C793 C792 1.387 . S
C793 C795 1.387 . S
H794 C801 0.950 . S
C795 C793 1.387 . S
C795 C797 1.390 . S
C795 H799 0.950 . S
H796 C792 0.950 . S
C797 C795 1.390 . S
C797 C798 1.387 . S
C797 H800 0.950 . S
C798 C797 1.387 . S
C798 C801 1.387 . S
H799 C795 0.950 . S
H800 C797 0.950 . S
C801 C792 1.390 . S
C801 H794 0.950 . S
C801 C798 1.387 . S
C802 C803 1.387 . S
C802 H806 0.950 . S
C802 C811 1.390 1_556 S
C803 C802 1.387 . S
C803 C805 1.387 . S
H804 C811 0.950 . S
C805 C803 1.387 . S
C805 C807 1.390 1_556 S
C805 H809 0.950 . S
H806 C802 0.950 . S
C807 C805 1.390 1_554 S
C807 C808 1.387 . S
C807 H810 0.950 . S
C808 C807 1.387 . S
C808 C811 1.387 . S
H809 C805 0.950 . S
H810 C807 0.950 . S
C811 C802 1.390 1_554 S
C811 H804 0.950 . S
C811 C808 1.387 . S
C812 C813 1.387 . S
C812 H816 0.950 . S
C812 C821 1.390 . S
C813 C812 1.387 . S
C813 C815 1.387 . S
H814 C821 0.950 . S
C815 C813 1.387 . S
C815 C817 1.390 . S
C815 H819 0.950 . S
H816 C812 0.950 . S
C817 C815 1.390 . S
C817 C818 1.387 . S
C817 H820 0.950 . S
C818 C817 1.387 . S
C818 C821 1.387 . S
H819 C815 0.950 . S
H820 C817 0.950 . S
C821 C812 1.390 . S
C821 H814 0.950 . S
C821 C818 1.387 . S
C822 C823 1.387 . S
C822 H826 0.950 . S
C822 C831 1.390 . S
C823 C822 1.387 . S
C823 C825 1.387 . S
H824 C831 0.950 . S
C825 C823 1.387 . S
C825 C827 1.390 . S
C825 H829 0.950 . S
H826 C822 0.950 . S
C827 C825 1.390 . S
C827 C828 1.387 . S
C827 H830 0.950 . S
C828 C827 1.387 . S
C828 C831 1.387 . S
H829 C825 0.950 . S
H830 C827 0.950 . S
C831 C822 1.390 . S
C831 H824 0.950 . S
C831 C828 1.387 . S
C353 C60 1.435 . S
C358 C5 1.463 . S
C363 C16 1.438 . S
C368 C71 1.459 . S
C373 C27 1.464 . S
C378 C82 1.433 . S
C383 C38 1.436 . S
C388 C49 1.463 . S
C393 C148 1.302 . S
C398 C93 1.281 . S
C403 C104 1.301 . S
C408 C159 1.281 . S
C413 C115 1.288 . S
C418 C170 1.307 . S
C423 C137 1.282 . S
C428 C126 1.303 . S
C433 C181 1.496 . S
C438 C236 1.500 . S
C443 C247 1.499 . S
C448 C192 1.500 . S
C453 C258 1.499 . S
C458 C203 1.500 . S
C463 C214 1.499 . S
C468 C225 1.497 . S
C473 C324 1.297 . S
C478 C269 1.299 . S
C483 C335 1.302 . S
C488 C280 1.296 . S
C493 C291 1.306 . S
C498 C346 1.302 . S
C503 C313 1.306 . S
C508 C302 1.301 . S
C513 C272 1.609 . S
C518 C8 1.680 . S
C523 C107 1.559 . S
C528 C19 1.615 . S
C533 C294 1.608 . S
C538 C30 1.680 . S
C543 C41 1.617 . S
C548 C129 1.561 . S
C553 C52 1.680 . S
C558 C316 1.609 . S
C563 C151 1.560 . S
C568 C63 1.615 . S
C573 C74 1.680 . S
C578 C338 1.609 . S
C583 C173 1.559 . S
C588 C85 1.615 . S
C593 C96 1.607 . S
C598 C184 1.678 . S
C603 C206 1.679 . S
C608 C118 1.610 . S
C613 C228 1.679 . S
C618 C140 1.610 . S
C623 C162 1.608 . S
C628 C250 1.679 . S
C633 C195 1.701 . S
C638 C283 1.624 . S
C643 C305 1.624 . S
C648 C217 1.701 . S
C653 C239 1.701 . S
C658 C327 1.624 . S
C663 C349 1.624 . S
C668 C261 1.701 . S
C673 C51 1.669 . S
C678 C7 1.669 . S
C683 C18 1.611 . S
C688 C62 1.611 . S
C693 C73 1.671 . S
C698 C29 1.671 . S
C703 C84 1.609 . S
C708 C40 1.609 . S
C713 C95 1.617 . S
C718 C139 1.617 . S
C723 C150 1.566 . S
C728 C106 1.566 . S
C733 C117 1.619 . S
C738 C161 1.619 . S
C743 C172 1.566 . S
C748 C128 1.566 . S
C753 C183 1.677 . S
C758 C227 1.677 . S
C763 C194 1.672 . S
C768 C238 1.672 . S
C773 C249 1.677 . S
C778 C205 1.677 . S
C783 C216 1.674 . S
C788 C260 1.674 . S
C793 C271 1.624 . S
C798 C315 1.624 . S
C803 C282 1.615 . S
C808 C326 1.615 . S
C813 C293 1.621 . S
C818 C337 1.621 . S
C823 C348 1.615 . S
C828 C304 1.615 . S
