# Generated by pormake.
# Topology unm, (4)-cn, num edge types: 1
# Building blocks:
#     Node 0, Type 0, BuildingBlock: KUFVIS_clean_sbu_0, # of connection points: 4
#     Node 1, Type 0, BuildingBlock: KUFVIS_clean_sbu_0, # of connection points: 4
#     Node 2, Type 0, BuildingBlock: KUFVIS_clean_sbu_0, # of connection points: 4
#     Node 3, Type 0, BuildingBlock: KUFVIS_clean_sbu_0, # of connection points: 4
#     Node 4, Type 0, BuildingBlock: KUFVIS_clean_sbu_0, # of connection points: 4
#     Node 5, Type 0, BuildingBlock: KUFVIS_clean_sbu_0, # of connection points: 4
#     Node 6, Type 0, BuildingBlock: KUFVIS_clean_sbu_0, # of connection points: 4
#     Node 7, Type 0, BuildingBlock: KUFVIS_clean_sbu_0, # of connection points: 4
#     Edge 8, Type (0, 0), BuildingBlock: XUDNAN_clean_linker_2, # of connection points: 2
#     Edge 9, Type (0, 0), BuildingBlock: XUDNAN_clean_linker_2, # of connection points: 2
#     Edge 10, Type (0, 0), BuildingBlock: XUDNAN_clean_linker_2, # of connection points: 2
#     Edge 11, Type (0, 0), BuildingBlock: XUDNAN_clean_linker_2, # of connection points: 2
#     Edge 12, Type (0, 0), BuildingBlock: XUDNAN_clean_linker_2, # of connection points: 2
#     Edge 13, Type (0, 0), BuildingBlock: XUDNAN_clean_linker_2, # of connection points: 2
#     Edge 14, Type (0, 0), BuildingBlock: XUDNAN_clean_linker_2, # of connection points: 2
#     Edge 15, Type (0, 0), BuildingBlock: XUDNAN_clean_linker_2, # of connection points: 2
#     Edge 16, Type (0, 0), BuildingBlock: XUDNAN_clean_linker_2, # of connection points: 2
#     Edge 17, Type (0, 0), BuildingBlock: XUDNAN_clean_linker_2, # of connection points: 2
#     Edge 18, Type (0, 0), BuildingBlock: XUDNAN_clean_linker_2, # of connection points: 2
#     Edge 19, Type (0, 0), BuildingBlock: XUDNAN_clean_linker_2, # of connection points: 2
#     Edge 20, Type (0, 0), BuildingBlock: XUDNAN_clean_linker_2, # of connection points: 2
#     Edge 21, Type (0, 0), BuildingBlock: XUDNAN_clean_linker_2, # of connection points: 2
#     Edge 22, Type (0, 0), BuildingBlock: XUDNAN_clean_linker_2, # of connection points: 2
#     Edge 23, Type (0, 0), BuildingBlock: XUDNAN_clean_linker_2, # of connection points: 2
# Relax obj value: 0.139
# Max RMSD: 0.133
# Mean RMSD: 0.133
data_MOF--net-unm--node1-KUFVIS_clean_sbu_0--edge1-XUDNAN_clean_linker_2
_symmetry_space_group_name_H-M    P1
_symmetry_Int_Tables_number       1
_symmetry_cell_setting            triclinic
loop_
_symmetry_equiv_pos_as_xyz
'x, y, z'
_cell_length_a     25.270167
_cell_length_b     25.202577
_cell_length_c     44.147716
_cell_angle_alpha  90.008047
_cell_angle_beta   89.87519
_cell_angle_gamma 90.061403
loop_
_atom_site_label
_atom_site_type_symbol
_atom_site_fract_x
_atom_site_fract_y
_atom_site_fract_z
_atom_type_partial_charge
Mn0 Mn 0.16309 0.29114 0.16641 0.0
Mn1 Mn 0.25026 0.37846 0.1376 0.0
C2 C 0.13496 0.36071 0.13634 0.0
C3 C 0.10039 0.27519 0.20505 0.0
C4 C 0.22956 0.26996 0.10953 0.0
O5 O 0.22925 0.27756 0.19244 0.0
O6 O 0.28338 0.33926 0.17182 0.0
C7 C 0.25529 0.44964 0.19094 0.0
N8 N 0.24494 0.44223 0.16097 0.0
C9 C 0.21448 0.53226 0.15579 0.0
C10 C 0.22514 0.54087 0.18655 0.0
C11 C 0.24565 0.49937 0.20419 0.0
C12 C 0.22504 0.4819 0.14381 0.0
H13 H 0.2704 0.41776 0.20472 0.0
C14 C 0.27352 0.30236 0.19097 0.0
O15 O 0.11665 0.23654 0.18781 0.0
O16 O 0.12485 0.31967 0.20193 0.0
N17 N 0.22276 0.41982 0.1048 0.0
C18 C 0.21455 0.40507 0.07548 0.0
C19 C 0.19495 0.44234 0.0547 0.0
C20 C 0.18392 0.49432 0.06428 0.0
C21 C 0.19342 0.5088 0.09445 0.0
C22 C 0.21402 0.47024 0.11398 0.0
H23 H 0.22272 0.36516 0.06796 0.0
O24 O 0.10569 0.31908 0.1398 0.0
O25 O 0.17959 0.35998 0.15067 0.0
O26 O 0.19526 0.25331 0.12887 0.0
O27 O 0.25405 0.31433 0.11207 0.0
C28 C 0.18279 0.55982 0.10598 0.0
C29 C 0.19313 0.57148 0.13665 0.0
H30 H 0.2174 0.57906 0.1969 0.0
H31 H 0.25368 0.5056 0.22799 0.0
H32 H 0.18796 0.43089 0.03142 0.0
H33 H 0.16812 0.52276 0.04829 0.0
H34 H 0.16639 0.59031 0.09149 0.0
H35 H 0.18439 0.61073 0.14532 0.0
Mn36 Mn 0.20306 0.67072 0.67299 0.0
Mn37 Mn 0.08922 0.73831 0.66409 0.0
C38 C 0.12616 0.62544 0.66239 0.0
C39 C 0.25747 0.62402 0.70659 0.0
C40 C 0.17027 0.72446 0.61323 0.0
O41 O 0.22284 0.74462 0.68886 0.0
O42 O 0.14453 0.78533 0.6823 0.0
C43 C 0.06753 0.75022 0.72972 0.0
N44 N 0.05215 0.73297 0.70184 0.0
C45 C 0.97192 0.69584 0.72236 0.0
C46 C 0.98667 0.71373 0.7512 0.0
C47 C 0.03476 0.74092 0.75489 0.0
C48 C 0.00635 0.70601 0.69813 0.0
H49 H 0.10469 0.77061 0.73281 0.0
C50 C 0.19299 0.78545 0.69076 0.0
O51 O 0.27561 0.63964 0.68044 0.0
O52 O 0.21048 0.63926 0.71384 0.0
N53 N 0.03086 0.69941 0.64743 0.0
C54 C 0.02036 0.68832 0.61785 0.0
C55 C 0.97309 0.66229 0.61015 0.0
C56 C 0.93661 0.64871 0.63289 0.0
C57 C 0.94714 0.66255 0.66302 0.0
C58 C 0.99475 0.68886 0.66928 0.0
H59 H 0.04837 0.69801 0.60034 0.0
O60 O 0.17163 0.60325 0.65845 0.0
O61 O 0.12665 0.67309 0.67389 0.0
O62 O 0.20488 0.69868 0.62869 0.0
O63 O 0.1264 0.74148 0.62444 0.0
C64 C 0.91181 0.65208 0.68701 0.0
C65 C 0.92435 0.66839 0.7167 0.0
H66 H 0.96146 0.70671 0.77067 0.0
H67 H 0.04661 0.75458 0.77711 0.0
H68 H 0.96502 0.65231 0.58676 0.0
H69 H 0.90038 0.62828 0.62691 0.0
H70 H 0.87484 0.63154 0.68288 0.0
H71 H 0.89696 0.65991 0.73498 0.0
Mn72 Mn 0.85989 0.73088 0.17825 0.0
Mn73 Mn 0.78722 0.62351 0.15981 0.0
C74 C 0.89917 0.66019 0.15464 0.0
C75 C 0.91567 0.77357 0.21287 0.0
C76 C 0.79494 0.72113 0.11967 0.0
O77 O 0.79162 0.74298 0.2022 0.0
O78 O 0.74586 0.67111 0.18726 0.0
C79 C 0.78621 0.57714 0.22153 0.0
N80 N 0.79836 0.57295 0.19154 0.0
C81 C 0.8376 0.48698 0.19919 0.0
C82 C 0.8253 0.49034 0.23011 0.0
C83 C 0.79955 0.53565 0.24132 0.0
C84 C 0.82373 0.52978 0.1806 0.0
H85 H 0.76669 0.61195 0.23036 0.0
C86 C 0.74988 0.71422 0.20245 0.0
O87 O 0.89218 0.80001 0.19143 0.0
O88 O 0.90233 0.72432 0.21584 0.0
N89 N 0.82079 0.5726 0.13393 0.0
C90 C 0.82471 0.57304 0.10313 0.0
C91 C 0.84768 0.52963 0.08812 0.0
C92 C 0.86548 0.48578 0.10486 0.0
C93 C 0.85863 0.48508 0.13638 0.0
C94 C 0.83497 0.52928 0.15005 0.0
H95 H 0.81104 0.60651 0.09012 0.0
O96 O 0.92179 0.70619 0.15464 0.0
O97 O 0.85513 0.65599 0.1699 0.0
O98 O 0.82272 0.74929 0.13795 0.0
O99 O 0.77824 0.67428 0.12599 0.0
C100 C 0.8732 0.44171 0.15468 0.0
C101 C 0.86284 0.44274 0.18609 0.0
H102 H 0.83538 0.45834 0.24543 0.0
H103 H 0.79002 0.53861 0.26517 0.0
H104 H 0.85191 0.5301 0.06372 0.0
H105 H 0.88351 0.45252 0.09324 0.0
H106 H 0.89204 0.4072 0.14479 0.0
H107 H 0.87416 0.40912 0.19992 0.0
Mn108 Mn 0.76713 0.32218 0.68602 0.0
Mn109 Mn 0.87473 0.25215 0.6645 0.0
C110 C 0.84159 0.36606 0.66944 0.0
C111 C 0.72054 0.36771 0.7237 0.0
C112 C 0.78074 0.27156 0.62305 0.0
O113 O 0.75044 0.24746 0.70203 0.0
O114 O 0.8254 0.20567 0.68807 0.0
C115 C 0.91805 0.23744 0.72623 0.0
N116 N 0.92389 0.25555 0.69734 0.0
C117 C 0.00987 0.29152 0.70874 0.0
C118 C 0.00495 0.27279 0.73851 0.0
C119 C 0.95879 0.24572 0.7473 0.0
C120 C 0.96785 0.28233 0.68879 0.0
H121 H 0.88242 0.21718 0.73323 0.0
C122 C 0.77985 0.20615 0.70089 0.0
O123 O 0.69718 0.35241 0.69899 0.0
O124 O 0.76894 0.35259 0.72758 0.0
N125 N 0.92683 0.29072 0.6419 0.0
C126 C 0.92736 0.302 0.6117 0.0
C127 C 0.97143 0.32781 0.59901 0.0
C128 C 0.0149 0.34079 0.61736 0.0
C129 C 0.01453 0.32643 0.64804 0.0
C130 C 0.9697 0.30031 0.65933 0.0
H131 H 0.89421 0.29189 0.59742 0.0
O132 O 0.79632 0.38978 0.67019 0.0
O133 O 0.84272 0.31759 0.67973 0.0
O134 O 0.75312 0.29789 0.64224 0.0
O135 O 0.82571 0.2507 0.62934 0.0
C136 C 0.05726 0.33616 0.66771 0.0
C137 C 0.05484 0.31894 0.69808 0.0
H138 H 0.03631 0.27905 0.75483 0.0
H139 H 0.95455 0.23139 0.77029 0.0
H140 H 0.97179 0.33788 0.57518 0.0
H141 H 0.04867 0.36102 0.60755 0.0
H142 H 0.09227 0.35668 0.65969 0.0
H143 H 0.08791 0.32674 0.71301 0.0
Mn144 Mn 0.65907 0.23252 0.34593 0.0
Mn145 Mn 0.73994 0.1316 0.36548 0.0
C146 C 0.62631 0.15976 0.37111 0.0
C147 C 0.59902 0.26968 0.31122 0.0
C148 C 0.72805 0.23145 0.40337 0.0
O149 O 0.72582 0.24844 0.32103 0.0
O150 O 0.77554 0.17891 0.33567 0.0
C151 C 0.73985 0.07893 0.30545 0.0
N152 N 0.73042 0.07703 0.33583 0.0
C153 C 0.69886 0.9871 0.33228 0.0
C154 C 0.70859 0.98799 0.30101 0.0
C155 C 0.72905 0.03417 0.28754 0.0
C156 C 0.71 0.03305 0.34894 0.0
H157 H 0.75524 0.11438 0.29491 0.0
C158 C 0.7685 0.22112 0.32006 0.0
O159 O 0.62086 0.2983 0.33232 0.0
O160 O 0.61584 0.22145 0.30865 0.0
N161 N 0.71127 0.08161 0.39378 0.0
C162 C 0.70709 0.08609 0.42447 0.0
C163 C 0.68801 0.04299 0.44147 0.0
C164 C 0.67424 0.99549 0.42681 0.0
C165 C 0.68083 0.99112 0.39537 0.0
C166 C 0.70044 0.03526 0.37966 0.0
H167 H 0.71781 0.12237 0.43592 0.0
O168 O 0.6 0.2037 0.3707 0.0
O169 O 0.66992 0.15869 0.35545 0.0
O170 O 0.69615 0.25559 0.38548 0.0
O171 O 0.74835 0.18601 0.39747 0.0
C172 C 0.66944 0.94444 0.37907 0.0
C173 C 0.67848 0.94243 0.34755 0.0
H174 H 0.70038 0.95352 0.28713 0.0
H175 H 0.73645 0.03527 0.26339 0.0
H176 H 0.68376 0.04646 0.46578 0.0
H177 H 0.65923 0.96244 0.43997 0.0
H178 H 0.6539 0.90979 0.39057 0.0
H179 H 0.66949 0.90634 0.33525 0.0
Mn180 Mn 0.31238 0.17808 0.82839 0.0
Mn181 Mn 0.40553 0.2524 0.86403 0.0
C182 C 0.38373 0.13663 0.85126 0.0
C183 C 0.28409 0.12901 0.7857 0.0
C184 C 0.30141 0.22156 0.89348 0.0
O185 O 0.29748 0.25265 0.81098 0.0
O186 O 0.35998 0.29597 0.83751 0.0
C187 C 0.468 0.28474 0.81024 0.0
N188 N 0.46574 0.26373 0.83862 0.0
C189 C 0.5607 0.25934 0.84163 0.0
C190 C 0.56411 0.28128 0.81249 0.0
C191 C 0.51754 0.29383 0.79669 0.0
C192 C 0.51027 0.25159 0.85405 0.0
H193 H 0.43228 0.29472 0.79812 0.0
C194 C 0.32195 0.29518 0.8185 0.0
O195 O 0.25097 0.14258 0.80691 0.0
O196 O 0.33089 0.14951 0.78763 0.0
N197 N 0.45351 0.21772 0.8909 0.0
C198 C 0.44311 0.19223 0.91749 0.0
C199 C 0.48535 0.17458 0.93546 0.0
C200 C 0.53774 0.18396 0.92615 0.0
C201 C 0.54745 0.21073 0.89883 0.0
C202 C 0.50378 0.22775 0.88197 0.0
H203 H 0.40292 0.18529 0.92485 0.0
O204 O 0.33971 0.11215 0.84615 0.0
O205 O 0.38606 0.18627 0.84261 0.0
O206 O 0.28026 0.19782 0.87077 0.0
O207 O 0.34707 0.24282 0.89226 0.0
C208 C 0.59866 0.21956 0.88716 0.0
C209 C 0.60527 0.24381 0.85858 0.0
H210 H 0.60223 0.28814 0.8019 0.0
H211 H 0.51986 0.31058 0.77415 0.0
H212 H 0.47754 0.15388 0.95648 0.0
H213 H 0.57019 0.16981 0.93994 0.0
H214 H 0.6332 0.20686 0.89969 0.0
H215 H 0.64481 0.24949 0.84961 0.0
Mn216 Mn 0.35042 0.79833 0.35152 0.0
Mn217 Mn 0.27808 0.89894 0.37921 0.0
C218 C 0.38794 0.86071 0.3839 0.0
C219 C 0.41354 0.77713 0.31343 0.0
C220 C 0.27184 0.78569 0.40337 0.0
O221 O 0.28409 0.79688 0.3243 0.0
O222 O 0.24482 0.87171 0.34156 0.0
C223 C 0.29816 0.97638 0.33009 0.0
N224 N 0.30008 0.96331 0.35998 0.0
C225 C 0.34157 0.04651 0.37236 0.0
C226 C 0.33849 0.06147 0.34183 0.0
C227 C 0.31707 0.02606 0.32057 0.0
C228 C 0.32161 0.99667 0.38054 0.0
H229 H 0.2828 0.94889 0.31362 0.0
C230 C 0.24761 0.83226 0.32329 0.0
O231 O 0.39101 0.73957 0.32908 0.0
O232 O 0.39453 0.82379 0.31748 0.0
N233 N 0.30679 0.92911 0.41548 0.0
C234 C 0.30773 0.90827 0.44397 0.0
C235 C 0.3289 0.93831 0.46785 0.0
C236 C 0.34879 0.98945 0.46222 0.0
C237 C 0.34693 0.01027 0.43279 0.0
C238 C 0.32469 0.97877 0.40998 0.0
H239 H 0.29249 0.86903 0.44848 0.0
O240 O 0.41008 0.81508 0.38 0.0
O241 O 0.34495 0.86768 0.3687 0.0
O242 O 0.3085 0.76459 0.38712 0.0
O243 O 0.25611 0.83377 0.40059 0.0
C244 C 0.36697 0.06071 0.42511 0.0
C245 C 0.36443 0.07876 0.3949 0.0
H246 H 0.35331 0.09965 0.33438 0.0
H247 H 0.3155 0.0369 0.29687 0.0
H248 H 0.33011 0.92198 0.4905 0.0
H249 H 0.36562 0.01227 0.48064 0.0
H250 H 0.38482 0.08577 0.44221 0.0
H251 H 0.38045 0.11738 0.38921 0.0
Mn252 Mn 0.69072 0.81317 0.84413 0.0
Mn253 Mn 0.60221 0.75327 0.88982 0.0
C254 C 0.63946 0.86436 0.87666 0.0
C255 C 0.7075 0.8613 0.79898 0.0
C256 C 0.71757 0.7645 0.90603 0.0
O257 O 0.68705 0.73911 0.8247 0.0
O258 O 0.63195 0.70396 0.85915 0.0
C259 C 0.52049 0.73355 0.84316 0.0
N260 N 0.53439 0.75251 0.87091 0.0
C261 C 0.44345 0.76838 0.88421 0.0
C262 C 0.42803 0.74891 0.85579 0.0
C263 C 0.46677 0.7318 0.83509 0.0
C264 C 0.49757 0.76994 0.89075 0.0
H265 H 0.55014 0.71955 0.82744 0.0
C266 C 0.66173 0.69975 0.83583 0.0
O267 O 0.74621 0.84184 0.81486 0.0
O268 O 0.66064 0.84729 0.8074 0.0
N269 N 0.56895 0.79365 0.92111 0.0
C270 C 0.59084 0.81536 0.94641 0.0
C271 C 0.55766 0.83635 0.96898 0.0
C272 C 0.50242 0.83357 0.96561 0.0
C273 C 0.48085 0.8105 0.93948 0.0
C274 C 0.51587 0.79103 0.91759 0.0
H275 H 0.63326 0.81624 0.94941 0.0
O276 O 0.68422 0.88005 0.8658 0.0
O277 O 0.62363 0.81746 0.86748 0.0
O278 O 0.73384 0.78482 0.88099 0.0
O279 O 0.66942 0.75263 0.91129 0.0
C280 C 0.42599 0.80682 0.93404 0.0
C281 C 0.40732 0.78644 0.90626 0.0
H282 H 0.38662 0.74711 0.84959 0.0
H283 H 0.4552 0.71678 0.81311 0.0
H284 H 0.57459 0.85396 0.98911 0.0
H285 H 0.47696 0.84957 0.98313 0.0
H286 H 0.39786 0.82116 0.95068 0.0
H287 H 0.36514 0.78522 0.902 0.0
H288 H 0.3089 0.28433 0.06872 0.0
H289 H 0.16268 0.19711 0.08179 0.0
H290 H 0.16351 0.17208 0.02735 0.0
H291 H 0.27161 0.3425 1.00185 0.0
H292 H 0.3367 0.34179 0.98506 0.0
H293 H 0.32955 0.34396 0.02557 0.0
H294 H 0.38653 0.25892 0.03117 0.0
H295 H 0.39524 0.25722 0.99069 0.0
H296 H 0.36892 0.20016 1.01018 0.0
H297 H 0.17926 0.1634 0.96799 0.0
H298 H 0.20989 0.16961 0.91435 0.0
H299 H 0.33843 0.27188 0.94353 0.0
C300 C 0.27768 0.25859 0.06054 0.0
C301 C 0.23599 0.24241 0.07981 0.0
C302 C 0.19569 0.20933 0.06774 0.0
C303 C 0.19555 0.19539 0.03668 0.0
C304 C 0.23587 0.21497 0.01798 0.0
C305 C 0.27637 0.24552 0.02984 0.0
C306 C 0.31281 0.26607 1.00543 0.0
C307 C 0.31261 0.32717 1.00443 0.0
C308 C 0.3692 0.24428 1.00962 0.0
C309 C 0.2867 0.24278 0.97777 0.0
C310 C 0.24276 0.21277 0.985 0.0
C311 C 0.21371 0.18696 0.9623 0.0
C312 C 0.23104 0.19104 0.9318 0.0
C313 C 0.27654 0.22138 0.9243 0.0
C314 C 0.30344 0.24823 0.9479 0.0
H315 H 0.26224 0.71212 0.57841 0.0
H316 H 0.09605 0.75469 0.5718 0.0
H317 H 0.10294 0.75631 0.51668 0.0
H318 H 0.30072 0.80466 0.51977 0.0
H319 H 0.35339 0.76369 0.50525 0.0
H320 H 0.3343 0.75876 0.54445 0.0
H321 H 0.31935 0.6577 0.53737 0.0
H322 H 0.33717 0.66285 0.49791 0.0
H323 H 0.27423 0.63474 0.50862 0.0
H324 H 0.12556 0.75487 0.46271 0.0
H325 H 0.16773 0.77222 0.41336 0.0
H326 H 0.32168 0.74077 0.45244 0.0
C327 C 0.22724 0.72132 0.56533 0.0
C328 C 0.17794 0.73095 0.57984 0.0
C329 C 0.13377 0.74489 0.5617 0.0
C330 C 0.13719 0.74597 0.53011 0.0
C331 C 0.18555 0.73475 0.51656 0.0
C332 C 0.23036 0.72457 0.53345 0.0
C333 C 0.27876 0.72127 0.51291 0.0
C334 C 0.31916 0.76468 0.52108 0.0
C335 C 0.30386 0.66583 0.5143 0.0
C336 C 0.25388 0.73145 0.48204 0.0
C337 C 0.19976 0.7376 0.48483 0.0
C338 C 0.16784 0.74981 0.46013 0.0
C339 C 0.19205 0.75904 0.43209 0.0
C340 C 0.24768 0.75653 0.42891 0.0
C341 C 0.2789 0.74082 0.45398 0.0
H342 H 0.74324 0.6703 0.07349 0.0
H343 H 0.83329 0.81301 0.09306 0.0
H344 H 0.83376 0.83522 0.03842 0.0
H345 H 0.81212 0.63669 1.00548 0.0
H346 H 0.75382 0.61162 0.98685 0.0
H347 H 0.75898 0.60845 0.02751 0.0
H348 H 0.67089 0.66056 0.03337 0.0
H349 H 0.66478 0.6622 0.99282 0.0
H350 H 0.66326 0.72318 0.01413 0.0
H351 H 0.82223 0.84167 0.98027 0.0
H352 H 0.79134 0.83598 0.92699 0.0
H353 H 0.71689 0.68511 0.94686 0.0
C354 C 0.76289 0.70651 0.06655 0.0
C355 C 0.78827 0.73978 0.08785 0.0
C356 C 0.8132 0.78687 0.07737 0.0
C357 C 0.81419 0.79955 0.04627 0.0
C358 C 0.79061 0.76451 0.02584 0.0
C359 C 0.76509 0.71918 0.03576 0.0
C360 C 0.7423 0.68787 1.00969 0.0
C361 C 0.76837 0.63291 1.00725 0.0
C362 C 0.68173 0.68322 1.01268 0.0
C363 C 0.758 0.72301 0.98341 0.0
C364 C 0.78612 0.76701 0.99293 0.0
C365 C 0.80094 0.80693 0.97257 0.0
C366 C 0.78402 0.80305 0.9422 0.0
C367 C 0.75262 0.75962 0.93267 0.0
C368 C 0.7419 0.71815 0.95333 0.0
H369 H 0.79678 0.19575 0.44722 0.0
H370 H 0.67402 0.31284 0.43111 0.0
H371 H 0.67341 0.33488 0.48556 0.0
H372 H 0.74648 0.14715 0.5155 0.0
H373 H 0.80976 0.13798 0.53353 0.0
H374 H 0.80463 0.13465 0.4929 0.0
H375 H 0.87565 0.20828 0.48727 0.0
H376 H 0.88186 0.2111 0.52789 0.0
H377 H 0.8669 0.27047 0.50684 0.0
H378 H 0.6799 0.33777 0.54273 0.0
H379 H 0.70148 0.33028 0.59699 0.0
H380 H 0.82092 0.21208 0.57575 0.0
C381 C 0.77059 0.22697 0.45491 0.0
C382 C 0.7355 0.25258 0.43461 0.0
C383 C 0.70166 0.29287 0.44594 0.0
C384 C 0.7007 0.30541 0.47696 0.0
C385 C 0.73415 0.27772 0.49644 0.0
C386 C 0.76924 0.24011 0.48575 0.0
C387 C 0.80023 0.21524 0.51149 0.0
C388 C 0.78962 0.1552 0.51346 0.0
C389 C 0.85968 0.22699 0.50817 0.0
C390 C 0.77666 0.24428 0.53839 0.0
C391 C 0.73838 0.27991 0.52924 0.0
C392 C 0.71019 0.31036 0.55009 0.0
C393 C 0.72248 0.30543 0.58098 0.0
C394 C 0.76294 0.27052 0.59089 0.0
C395 C 0.78977 0.23913 0.56911 0.0
H396 H 0.36628 0.24517 0.18826 0.0
H397 H 0.27292 0.34706 0.24649 0.0
H398 H 0.34803 0.35402 0.28218 0.0
H399 H 0.43275 0.17356 0.25149 0.0
H400 H 0.49402 0.16756 0.2308 0.0
H401 H 0.43204 0.16934 0.21073 0.0
H402 H 0.46686 0.24846 0.17895 0.0
H403 H 0.52838 0.24783 0.19946 0.0
H404 H 0.4894 0.30762 0.19795 0.0
H405 H 0.43678 0.35769 0.30861 0.0
H406 H 0.52612 0.34287 0.32972 0.0
H407 H 0.56005 0.23208 0.25706 0.0
C408 C 0.36129 0.26748 0.20904 0.0
C409 C 0.31359 0.29493 0.21498 0.0
C410 C 0.30881 0.32495 0.24192 0.0
C411 C 0.35146 0.32956 0.26212 0.0
C412 C 0.39853 0.30323 0.2553 0.0
C413 C 0.40319 0.27141 0.22991 0.0
C414 C 0.45783 0.24639 0.22833 0.0
C415 C 0.45392 0.18561 0.23047 0.0
C416 C 0.48734 0.26362 0.19945 0.0
C417 C 0.48339 0.26986 0.25644 0.0
C418 C 0.44877 0.30328 0.27138 0.0
C419 C 0.46397 0.33106 0.2973 0.0
C420 C 0.51509 0.32289 0.30894 0.0
C421 C 0.55025 0.28652 0.29504 0.0
C422 C 0.53419 0.26031 0.26817 0.0
H423 H 0.14311 0.86264 0.72486 0.0
H424 H 0.29325 0.824 0.68253 0.0
H425 H 0.32894 0.91116 0.69836 0.0
H426 H 0.14156 1.00313 0.70875 0.0
H427 H 0.11474 0.02179 0.74509 0.0
H428 H 0.09962 0.95763 0.72925 0.0
H429 H 0.13529 0.91172 0.77751 0.0
H430 H 0.14979 0.97572 0.79366 0.0
H431 H 0.20131 0.92663 0.79039 0.0
H432 H 0.34725 1.0037 0.71702 0.0
H433 H 0.35343 0.08811 0.74465 0.0
H434 H 0.19422 0.0652 0.77951 0.0
C435 C 0.18353 0.87255 0.71894 0.0
C436 C 0.21535 0.83646 0.70222 0.0
C437 C 0.26821 0.85074 0.69533 0.0
C438 C 0.28865 0.9004 0.70403 0.0
C439 C 0.25613 0.9352 0.72017 0.0
C440 C 0.20508 0.92149 0.72818 0.0
C441 C 0.17986 0.96477 0.7475 0.0
C442 C 0.13105 0.98821 0.7317 0.0
C443 C 0.16574 0.94344 0.77914 0.0
C444 C 0.22466 1.00509 0.74901 0.0
C445 C 0.26781 0.98749 0.73253 0.0
C446 C 0.31383 0.01761 0.73016 0.0
C447 C 0.31677 0.06592 0.74589 0.0
C448 C 0.27437 0.08381 0.7644 0.0
C449 C 0.22721 0.05318 0.76542 0.0
H450 H 0.46162 0.69076 0.28252 0.0
H451 H 0.48583 0.85443 0.3101 0.0
H452 H 0.57316 0.85472 0.28639 0.0
H453 H 0.5993 0.64855 0.29219 0.0
H454 H 0.6004 0.60715 0.2589 0.0
H455 H 0.53917 0.61774 0.27903 0.0
H456 H 0.49541 0.65153 0.22971 0.0
H457 H 0.55648 0.64095 0.20946 0.0
H458 H 0.52566 0.70541 0.2091 0.0
H459 H 0.65784 0.83969 0.26028 0.0
H460 H 0.73486 0.81007 0.23051 0.0
H461 H 0.65922 0.65698 0.21686 0.0
C462 C 0.48542 0.72644 0.28351 0.0
C463 C 0.4661 0.77281 0.29802 0.0
C464 C 0.49882 0.81868 0.29875 0.0
C465 C 0.54898 0.81928 0.28548 0.0
C466 C 0.56669 0.7737 0.2711 0.0
C467 C 0.53616 0.7281 0.26974 0.0
C468 C 0.56527 0.68549 0.25174 0.0
C469 C 0.57671 0.63685 0.27166 0.0
C470 C 0.53383 0.66993 0.22331 0.0
C471 C 0.61626 0.71462 0.24339 0.0
C472 C 0.61614 0.7653 0.25513 0.0
C473 C 0.65849 0.80005 0.25084 0.0
C474 C 0.70223 0.7828 0.23389 0.0
C475 C 0.70346 0.73128 0.22109 0.0
C476 C 0.65965 0.69676 0.22611 0.0
H477 H 0.83669 0.12746 0.72979 0.0
H478 H 0.67821 0.16894 0.7007 0.0
H479 H 0.64584 0.08135 0.71805 0.0
H480 H 0.83301 0.98769 0.71181 0.0
H481 H 0.86802 0.96719 0.74536 0.0
H482 H 0.8799 0.03194 0.72938 0.0
H483 H 0.85651 0.07596 0.78067 0.0
H484 H 0.8454 0.01135 0.79692 0.0
H485 H 0.79406 0.06088 0.79854 0.0
H486 H 0.63129 0.98839 0.73654 0.0
H487 H 0.63048 0.90329 0.76359 0.0
H488 H 0.7967 0.92308 0.78568 0.0
C489 C 0.79515 0.11808 0.72711 0.0
C490 C 0.75995 0.15508 0.71366 0.0
C491 C 0.70581 0.14149 0.71097 0.0
C492 C 0.6872 0.09159 0.72054 0.0
C493 C 0.72298 0.05585 0.73331 0.0
C494 C 0.77557 0.06887 0.73732 0.0
C495 C 0.8047 0.02454 0.75381 0.0
C496 C 0.84904 1.00149 0.7339 0.0
C497 C 0.82644 0.04437 0.7843 0.0
C498 C 0.76028 0.98444 0.75835 0.0
C499 C 0.71385 1.00312 0.74571 0.0
C500 C 0.66732 0.97363 0.74671 0.0
C501 C 0.66744 0.92494 0.76207 0.0
C502 C 0.71349 0.906 0.77692 0.0
C503 C 0.76097 0.93583 0.77433 0.0
H504 H 0.84978 0.16024 0.29741 0.0
H505 H 0.78896 0.32132 0.29841 0.0
H506 H 0.86716 0.35105 0.26918 0.0
H507 H 0.98588 0.19113 0.30579 0.0
H508 H 0.00923 0.14063 0.28013 0.0
H509 H 0.94791 0.13129 0.30031 0.0
H510 H 0.89853 0.11673 0.24967 0.0
H511 H 0.9598 0.12548 0.22931 0.0
H512 H 0.90337 0.16617 0.22029 0.0
H513 H 0.95437 0.3644 0.24378 0.0
H514 H 0.04062 0.3604 0.21851 0.0
H515 H 0.04442 0.18934 0.2302 0.0
C516 C 0.85268 0.20178 0.29135 0.0
C517 C 0.8132 0.23861 0.30043 0.0
C518 C 0.81843 0.29241 0.29173 0.0
C519 C 0.86286 0.30965 0.27523 0.0
C520 C 0.90136 0.27247 0.26718 0.0
C521 C 0.89635 0.2195 0.27446 0.0
C522 C 0.94323 0.18768 0.26262 0.0
C523 C 0.97334 0.16112 0.28878 0.0
C524 C 0.92515 0.14658 0.23907 0.0
C525 C 0.97608 0.23129 0.24804 0.0
C526 C 0.95108 0.27985 0.25125 0.0
C527 C 0.97402 0.32657 0.24095 0.0
C528 C 0.02347 0.32377 0.22678 0.0
C529 C 0.04978 0.27454 0.22242 0.0
C530 C 0.02546 0.2275 0.23313 0.0
H531 H 0.27801 0.52078 0.69171 0.0
H532 H 0.28629 0.63434 0.76516 0.0
H533 H 0.30224 0.56137 0.80138 0.0
H534 H 0.20562 0.42552 0.73135 0.0
H535 H 0.23759 0.3679 0.71554 0.0
H536 H 0.23499 0.42868 0.69414 0.0
H537 H 0.33705 0.42932 0.68879 0.0
H538 H 0.33992 0.36767 0.70941 0.0
H539 H 0.37753 0.42414 0.72224 0.0
H540 H 0.30794 0.47728 0.83009 0.0
H541 H 0.31419 0.38628 0.84984 0.0
H542 H 0.29999 0.32363 0.75866 0.0
C543 C 0.28591 0.53024 0.7152 0.0
C544 C 0.28312 0.58337 0.72559 0.0
C545 C 0.29024 0.59416 0.75672 0.0
C546 C 0.29864 0.55288 0.77745 0.0
C547 C 0.29903 0.5008 0.76675 0.0
C548 C 0.29368 0.48916 0.73634 0.0
C549 C 0.29235 0.42932 0.73134 0.0
C550 C 0.2395 0.41185 0.71726 0.0
C551 C 0.33953 0.41156 0.71179 0.0
C552 C 0.29744 0.40927 0.76372 0.0
C553 C 0.30102 0.4515 0.78364 0.0
C554 C 0.30562 0.44393 0.8147 0.0
C555 C 0.30877 0.392 0.82572 0.0
C556 C 0.30721 0.34777 0.80588 0.0
C557 C 0.30033 0.35654 0.77443 0.0
H558 H 0.18043 0.7485 0.31142 0.0
H559 H 0.21567 0.91061 0.28556 0.0
H560 H 0.13409 0.91405 0.25524 0.0
H561 H 0.11816 0.70812 0.23869 0.0
H562 H 0.06866 0.66827 0.25738 0.0
H563 H 0.13283 0.67682 0.27441 0.0
H564 H 0.08775 0.71136 0.32336 0.0
H565 H 0.02353 0.70404 0.30624 0.0
H566 H 0.04366 0.76742 0.32125 0.0
H567 H 0.04547 0.90244 0.23038 0.0
H568 H 0.95958 0.87328 0.20925 0.0
H569 H 0.97968 0.71986 0.2524 0.0
C570 C 0.17174 0.78395 0.2985 0.0
C571 C 0.20489 0.82904 0.30043 0.0
C572 C 0.19122 0.87547 0.28416 0.0
C573 C 0.14476 0.8779 0.26695 0.0
C574 C 0.11185 0.83362 0.26635 0.0
C575 C 0.12492 0.78724 0.28137 0.0
C576 C 0.08119 0.74632 0.27805 0.0
C577 C 0.10142 0.69697 0.26112 0.0
C578 C 0.05766 0.73143 0.30907 0.0
C579 C 0.04164 0.77714 0.25909 0.0
C580 C 0.0601 0.8274 0.25257 0.0
C581 C 0.03061 0.86307 0.23527 0.0
C582 C 0.98164 0.84635 0.22356 0.0
C583 C 0.9625 0.79452 0.22931 0.0
C584 C 0.99274 0.76 0.2478 0.0
H585 H 0.7124 0.47246 0.71047 0.0
H586 H 0.6855 0.35777 0.78189 0.0
H587 H 0.66478 0.43093 0.81757 0.0
H588 H 0.78004 0.56487 0.75582 0.0
H589 H 0.75369 0.6233 0.73782 0.0
H590 H 0.75943 0.56237 0.71678 0.0
H591 H 0.65951 0.56537 0.704 0.0
H592 H 0.65355 0.6268 0.72463 0.0
H593 H 0.61179 0.57125 0.73423 0.0
H594 H 0.65217 0.51586 0.84579 0.0
H595 H 0.64765 0.60672 0.86562 0.0
H596 H 0.68786 0.669 0.77676 0.0
C597 C 0.70028 0.46293 0.73339 0.0
C598 C 0.69857 0.40958 0.74336 0.0
C599 C 0.68535 0.39833 0.77377 0.0
C600 C 0.67391 0.43965 0.79413 0.0
C601 C 0.67692 0.49199 0.78379 0.0
C602 C 0.68971 0.50385 0.75413 0.0
C603 C 0.69396 0.56357 0.74947 0.0
C604 C 0.75011 0.57944 0.73938 0.0
C605 C 0.65221 0.58288 0.72673 0.0
C606 C 0.68198 0.58351 0.78123 0.0
C607 C 0.67183 0.54136 0.80049 0.0
C608 C 0.65975 0.54911 0.83088 0.0
C609 C 0.65726 0.60113 0.84191 0.0
C610 C 0.66723 0.64539 0.8228 0.0
C611 C 0.68029 0.63621 0.79201 0.0
H612 H 0.95243 0.5931 0.1904 0.0
H613 H 0.92258 0.63261 0.09667 0.0
H614 H 0.98342 0.56076 0.08018 0.0
H615 H 0.09261 0.57852 0.17613 0.0
H616 H 0.10183 0.52811 0.20454 0.0
H617 H 0.05091 0.57745 0.20929 0.0
H618 H 0.97672 0.50426 0.21368 0.0
H619 H 0.03013 0.45723 0.21249 0.0
H620 H 0.97642 0.45153 0.18603 0.0
H621 H 0.03751 0.47528 0.07552 0.0
H622 H 0.09556 0.39665 0.08242 0.0
H623 H 0.10761 0.43168 0.17809 0.0
C624 C 0.95772 0.5853 0.16644 0.0
C625 C 0.93025 0.61487 0.14459 0.0
C626 C 0.94123 0.60757 0.11348 0.0
C627 C 0.97594 0.56746 0.10402 0.0
C628 C 1.00185 0.53801 0.12618 0.0
C629 C 0.9946 0.54789 0.15673 0.0
C630 C 0.03219 0.51588 0.17591 0.0
C631 C 0.07172 0.55216 0.19244 0.0
C632 C 1.00199 0.48015 0.19833 0.0
C633 C 0.05933 0.48389 0.15151 0.0
C634 C 0.04079 0.4965 0.12297 0.0
C635 C 0.05421 0.46652 0.09751 0.0
C636 C 0.08718 0.42229 0.10151 0.0
C637 C 0.10801 0.41065 0.13038 0.0
C638 C 0.09437 0.44204 0.15552 0.0
H639 H 0.91308 0.40799 0.70828 0.0
H640 H 0.86802 0.40196 0.61386 0.0
H641 H 0.93787 0.46738 0.60132 0.0
H642 H 0.92218 0.54514 0.7081 0.0
H643 H 0.9767 0.55239 0.73407 0.0
H644 H 0.93329 0.49581 0.73683 0.0
H645 H 0.00966 0.42817 0.73018 0.0
H646 H 0.05408 0.48415 0.7313 0.0
H647 H 0.05702 0.43831 0.7001 0.0
H648 H 0.01732 0.52767 0.5992 0.0
H649 H 0.08816 0.59367 0.60837 0.0
H650 H 0.06525 0.57769 0.70509 0.0
C651 C 0.9197 0.41901 0.68486 0.0
C652 C 0.8883 0.39744 0.66155 0.0
C653 C 0.89419 0.41599 0.63156 0.0
C654 C 0.93336 0.45326 0.62433 0.0
C655 C 0.96405 0.47369 0.64775 0.0
C656 C 0.95683 0.45823 0.67752 0.0
C657 C 0.98917 0.49239 0.69886 0.0
C658 C 0.95322 0.5233 0.72076 0.0
C659 C 0.02986 0.45871 0.71613 0.0
C660 C 0.01603 0.52904 0.67636 0.0
C661 C 1.00227 0.51625 0.64696 0.0
C662 C 0.02694 0.5396 0.62208 0.0
C663 C 0.06665 0.5772 0.62744 0.0
C664 C 0.0788 0.59334 0.65727 0.0
C665 C 0.05361 0.56863 0.68206 0.0
H666 H 0.58605 0.08565 0.33476 0.0
H667 H 0.59886 0.13215 0.42873 0.0
H668 H 0.5424 0.0557 0.44377 0.0
H669 H 0.45193 0.06707 0.3418 0.0
H670 H 0.44504 0.01347 0.31498 0.0
H671 H 0.49733 0.06142 0.31051 0.0
H672 H 0.57312 0.99027 0.31321 0.0
H673 H 0.51932 0.94366 0.31152 0.0
H674 H 0.56731 0.93866 0.3414 0.0
H675 H 0.48869 0.96896 0.44742 0.0
H676 H 0.42594 0.89412 0.43901 0.0
H677 H 0.4313 0.92361 0.34248 0.0
C678 C 0.57855 0.07821 0.35857 0.0
C679 C 0.59913 0.11186 0.38093 0.0
C680 C 0.5852 0.10453 0.41164 0.0
C681 C 0.55327 0.06152 0.42028 0.0
C682 C 0.53356 0.02855 0.39759 0.0
C683 C 0.54455 0.03756 0.36729 0.0
C684 C 0.51066 1.0038 0.34691 0.0
C685 C 0.47403 0.03847 0.3274 0.0
C686 C 0.54472 0.96694 0.32713 0.0
C687 C 0.47998 0.97315 0.37043 0.0
C688 C 0.49479 0.98655 0.39955 0.0
C689 C 0.47553 0.9592 0.42478 0.0
C690 C 0.43991 0.91722 0.41993 0.0
C691 C 0.4223 0.90566 0.39035 0.0
C692 C 0.4427 0.93369 0.36542 0.0
H693 H 0.37967 0.03822 0.87616 0.0
H694 H 0.48964 0.15295 0.84085 0.0
H695 H 0.56435 0.10285 0.86305 0.0
H696 H 0.45361 0.97537 0.9375 0.0
H697 H 0.43928 0.9095 0.92461 0.0
H698 H 0.39258 0.96178 0.91781 0.0
H699 H 0.39427 0.94338 0.86011 0.0
H700 H 0.43866 0.88905 0.86671 0.0
H701 H 0.457 0.94101 0.8406 0.0
H702 H 0.62364 0.04144 0.89503 0.0
H703 H 0.67358 0.95848 0.89788 0.0
H704 H 0.52913 0.87047 0.88073 0.0
C705 C 0.41938 0.05411 0.87431 0.0
C706 C 0.429 0.10484 0.86181 0.0
C707 C 0.48157 0.11985 0.85558 0.0
C708 C 0.52395 0.09067 0.86741 0.0
C709 C 0.51277 0.04316 0.88227 0.0
C710 C 0.46223 0.02258 0.88259 0.0
C711 C 0.4626 0.96347 0.88852 0.0
C712 C 0.43538 0.95188 0.91891 0.0
C713 C 0.43664 0.93243 0.86241 0.0
C714 C 0.52169 0.95366 0.89037 0.0
C715 C 0.54886 1.00121 0.89008 0.0
C716 C 0.60311 1.00375 0.8941 0.0
C717 C 0.63096 0.95612 0.89559 0.0
C718 C 0.60549 0.90698 0.88927 0.0
C719 C 0.54972 0.90581 0.8875 0.0
loop_
_geom_bond_atom_site_label_1
_geom_bond_atom_site_label_2
_geom_bond_distance
_geom_bond_site_symmetry_2
_ccdc_geom_bond_type
Mn0 O5 2.095 . S
Mn0 O15 2.162 . S
Mn0 O16 2.297 . S
Mn0 O24 2.385 . S
Mn0 O25 2.209 . S
Mn0 O26 2.094 . S
Mn1 O6 2.121 . S
Mn1 N8 2.257 . S
Mn1 N17 2.282 . S
Mn1 O25 2.215 . S
Mn1 O27 2.117 . S
C2 O24 1.234 . S
C2 O25 1.283 . S
C3 O15 1.281 . S
C3 O16 1.236 . S
C4 O26 1.240 . S
C4 O27 1.264 . S
O5 Mn0 2.095 . S
O5 C14 1.250 . S
O6 Mn1 2.121 . S
O6 C14 1.258 . S
C7 N8 1.326 . S
C7 C11 1.460 . S
C7 H13 0.929 . S
N8 Mn1 2.257 . S
N8 C7 1.326 . S
N8 C12 1.362 . S
C9 C10 1.258 . S
C9 C12 1.431 . S
C9 C29 1.449 . S
C10 C9 1.258 . S
C10 C11 1.477 . S
C10 H30 0.931 . S
C11 C7 1.460 . S
C11 C10 1.477 . S
C11 H31 0.930 . S
C12 N8 1.362 . S
C12 C9 1.431 . S
C12 C22 1.476 . S
H13 C7 0.929 . S
C14 O5 1.250 . S
C14 O6 1.258 . S
O15 Mn0 2.162 . S
O15 C3 1.281 . S
O16 Mn0 2.297 . S
O16 C3 1.236 . S
N17 Mn1 2.282 . S
N17 C18 1.328 . S
N17 C22 1.318 . S
C18 N17 1.328 . S
C18 C19 1.457 . S
C18 H23 0.929 . S
C19 C18 1.457 . S
C19 C20 1.291 . S
C19 H32 0.931 . S
C20 C19 1.291 . S
C20 C21 1.373 . S
C20 H33 0.929 . S
C21 C20 1.373 . S
C21 C22 1.396 . S
C21 C28 1.403 . S
C22 C12 1.476 . S
C22 N17 1.318 . S
C22 C21 1.396 . S
H23 C18 0.929 . S
O24 Mn0 2.385 . S
O24 C2 1.234 . S
O25 Mn0 2.209 . S
O25 Mn1 2.215 . S
O25 C2 1.283 . S
O26 Mn0 2.094 . S
O26 C4 1.240 . S
O27 Mn1 2.117 . S
O27 C4 1.264 . S
C28 C21 1.403 . S
C28 C29 1.399 . S
C28 H34 0.929 . S
C29 C9 1.449 . S
C29 C28 1.399 . S
C29 H35 0.930 . S
H30 C10 0.931 . S
H31 C11 0.930 . S
H32 C19 0.931 . S
H33 C20 0.929 . S
H34 C28 0.929 . S
H35 C29 0.930 . S
Mn36 O41 2.095 . S
Mn36 O51 2.162 . S
Mn36 O52 2.297 . S
Mn36 O60 2.385 . S
Mn36 O61 2.209 . S
Mn36 O62 2.094 . S
Mn37 O42 2.121 . S
Mn37 N44 2.257 . S
Mn37 N53 2.282 . S
Mn37 O61 2.215 . S
Mn37 O63 2.117 . S
C38 O60 1.234 . S
C38 O61 1.283 . S
C39 O51 1.281 . S
C39 O52 1.236 . S
C40 O62 1.240 . S
C40 O63 1.264 . S
O41 Mn36 2.095 . S
O41 C50 1.250 . S
O42 Mn37 2.121 . S
O42 C50 1.258 . S
C43 N44 1.326 . S
C43 C47 1.460 . S
C43 H49 0.929 . S
N44 Mn37 2.257 . S
N44 C43 1.326 . S
N44 C48 1.362 . S
C45 C46 1.258 . S
C45 C48 1.431 1_655 S
C45 C65 1.449 . S
C46 C45 1.258 . S
C46 C47 1.477 1_655 S
C46 H66 0.931 . S
C47 C43 1.460 . S
C47 C46 1.477 1_455 S
C47 H67 0.930 . S
C48 N44 1.362 . S
C48 C45 1.431 1_455 S
C48 C58 1.476 . S
H49 C43 0.929 . S
C50 O41 1.250 . S
C50 O42 1.258 . S
O51 Mn36 2.162 . S
O51 C39 1.281 . S
O52 Mn36 2.297 . S
O52 C39 1.236 . S
N53 Mn37 2.282 . S
N53 C54 1.328 . S
N53 C58 1.318 . S
C54 N53 1.328 . S
C54 C55 1.457 . S
C54 H59 0.929 . S
C55 C54 1.457 . S
C55 C56 1.291 . S
C55 H68 0.931 . S
C56 C55 1.291 . S
C56 C57 1.373 1_455 S
C56 H69 0.929 1_455 S
C57 C56 1.373 1_655 S
C57 C58 1.396 1_655 S
C57 C64 1.403 . S
C58 C48 1.476 . S
C58 N53 1.318 . S
C58 C57 1.396 1_455 S
H59 C54 0.929 . S
O60 Mn36 2.385 . S
O60 C38 1.234 . S
O61 Mn36 2.209 . S
O61 Mn37 2.215 . S
O61 C38 1.283 . S
O62 Mn36 2.094 . S
O62 C40 1.240 . S
O63 Mn37 2.117 . S
O63 C40 1.264 . S
C64 C57 1.403 . S
C64 C65 1.399 . S
C64 H70 0.929 . S
C65 C45 1.449 . S
C65 C64 1.399 . S
C65 H71 0.930 . S
H66 C46 0.931 . S
H67 C47 0.930 . S
H68 C55 0.931 . S
H69 C56 0.929 1_655 S
H70 C64 0.929 . S
H71 C65 0.930 . S
Mn72 O77 2.095 . S
Mn72 O87 2.162 . S
Mn72 O88 2.297 . S
Mn72 O96 2.385 . S
Mn72 O97 2.209 . S
Mn72 O98 2.094 . S
Mn73 O78 2.121 . S
Mn73 N80 2.257 . S
Mn73 N89 2.282 . S
Mn73 O97 2.215 . S
Mn73 O99 2.117 . S
C74 O96 1.234 . S
C74 O97 1.283 . S
C75 O87 1.281 . S
C75 O88 1.236 . S
C76 O98 1.240 . S
C76 O99 1.264 . S
O77 Mn72 2.095 . S
O77 C86 1.250 . S
O78 Mn73 2.121 . S
O78 C86 1.258 . S
C79 N80 1.326 . S
C79 C83 1.460 . S
C79 H85 0.929 . S
N80 Mn73 2.257 . S
N80 C79 1.326 . S
N80 C84 1.362 . S
C81 C82 1.258 . S
C81 C84 1.431 . S
C81 C101 1.449 . S
C82 C81 1.258 . S
C82 C83 1.477 . S
C82 H102 0.931 . S
C83 C79 1.460 . S
C83 C82 1.477 . S
C83 H103 0.930 . S
C84 N80 1.362 . S
C84 C81 1.431 . S
C84 C94 1.476 . S
H85 C79 0.929 . S
C86 O77 1.250 . S
C86 O78 1.258 . S
O87 Mn72 2.162 . S
O87 C75 1.281 . S
O88 Mn72 2.297 . S
O88 C75 1.236 . S
N89 Mn73 2.282 . S
N89 C90 1.328 . S
N89 C94 1.318 . S
C90 N89 1.328 . S
C90 C91 1.457 . S
C90 H95 0.929 . S
C91 C90 1.457 . S
C91 C92 1.291 . S
C91 H104 0.931 . S
C92 C91 1.291 . S
C92 C93 1.373 . S
C92 H105 0.929 . S
C93 C92 1.373 . S
C93 C94 1.396 . S
C93 C100 1.403 . S
C94 C84 1.476 . S
C94 N89 1.318 . S
C94 C93 1.396 . S
H95 C90 0.929 . S
O96 Mn72 2.385 . S
O96 C74 1.234 . S
O97 Mn72 2.209 . S
O97 Mn73 2.215 . S
O97 C74 1.283 . S
O98 Mn72 2.094 . S
O98 C76 1.240 . S
O99 Mn73 2.117 . S
O99 C76 1.264 . S
C100 C93 1.403 . S
C100 C101 1.399 . S
C100 H106 0.929 . S
C101 C81 1.449 . S
C101 C100 1.399 . S
C101 H107 0.930 . S
H102 C82 0.931 . S
H103 C83 0.930 . S
H104 C91 0.931 . S
H105 C92 0.929 . S
H106 C100 0.929 . S
H107 C101 0.930 . S
Mn108 O113 2.095 . S
Mn108 O123 2.162 . S
Mn108 O124 2.297 . S
Mn108 O132 2.385 . S
Mn108 O133 2.209 . S
Mn108 O134 2.094 . S
Mn109 O114 2.121 . S
Mn109 N116 2.257 . S
Mn109 N125 2.282 . S
Mn109 O133 2.215 . S
Mn109 O135 2.117 . S
C110 O132 1.234 . S
C110 O133 1.283 . S
C111 O123 1.281 . S
C111 O124 1.236 . S
C112 O134 1.240 . S
C112 O135 1.264 . S
O113 Mn108 2.095 . S
O113 C122 1.250 . S
O114 Mn109 2.121 . S
O114 C122 1.258 . S
C115 N116 1.326 . S
C115 C119 1.460 . S
C115 H121 0.929 . S
N116 Mn109 2.257 . S
N116 C115 1.326 . S
N116 C120 1.362 . S
C117 C118 1.258 . S
C117 C120 1.431 1_455 S
C117 C137 1.449 . S
C118 C117 1.258 . S
C118 C119 1.477 1_455 S
C118 H138 0.931 . S
C119 C115 1.460 . S
C119 C118 1.477 1_655 S
C119 H139 0.930 . S
C120 N116 1.362 . S
C120 C117 1.431 1_655 S
C120 C130 1.476 . S
H121 C115 0.929 . S
C122 O113 1.250 . S
C122 O114 1.258 . S
O123 Mn108 2.162 . S
O123 C111 1.281 . S
O124 Mn108 2.297 . S
O124 C111 1.236 . S
N125 Mn109 2.282 . S
N125 C126 1.328 . S
N125 C130 1.318 . S
C126 N125 1.328 . S
C126 C127 1.457 . S
C126 H131 0.929 . S
C127 C126 1.457 . S
C127 C128 1.291 . S
C127 H140 0.931 . S
C128 C127 1.291 . S
C128 C129 1.373 1_655 S
C128 H141 0.929 1_655 S
C129 C128 1.373 1_455 S
C129 C130 1.396 1_455 S
C129 C136 1.403 . S
C130 C120 1.476 . S
C130 N125 1.318 . S
C130 C129 1.396 1_655 S
H131 C126 0.929 . S
O132 Mn108 2.385 . S
O132 C110 1.234 . S
O133 Mn108 2.209 . S
O133 Mn109 2.215 . S
O133 C110 1.283 . S
O134 Mn108 2.094 . S
O134 C112 1.240 . S
O135 Mn109 2.117 . S
O135 C112 1.264 . S
C136 C129 1.403 . S
C136 C137 1.399 . S
C136 H142 0.929 . S
C137 C117 1.449 . S
C137 C136 1.399 . S
C137 H143 0.930 . S
H138 C118 0.931 . S
H139 C119 0.930 . S
H140 C127 0.931 . S
H141 C128 0.929 1_455 S
H142 C136 0.929 . S
H143 C137 0.930 . S
Mn144 O149 2.095 . S
Mn144 O159 2.162 . S
Mn144 O160 2.297 . S
Mn144 O168 2.385 . S
Mn144 O169 2.209 . S
Mn144 O170 2.094 . S
Mn145 O150 2.121 . S
Mn145 N152 2.257 . S
Mn145 N161 2.282 . S
Mn145 O169 2.215 . S
Mn145 O171 2.117 . S
C146 O168 1.234 . S
C146 O169 1.283 . S
C147 O159 1.281 . S
C147 O160 1.236 . S
C148 O170 1.240 . S
C148 O171 1.264 . S
O149 Mn144 2.095 . S
O149 C158 1.250 . S
O150 Mn145 2.121 . S
O150 C158 1.258 . S
C151 N152 1.326 . S
C151 C155 1.460 . S
C151 H157 0.929 . S
N152 Mn145 2.257 . S
N152 C151 1.326 . S
N152 C156 1.362 . S
C153 C154 1.258 . S
C153 C156 1.431 1_565 S
C153 C173 1.449 . S
C154 C153 1.258 . S
C154 C155 1.477 1_565 S
C154 H174 0.931 . S
C155 C151 1.460 . S
C155 C154 1.477 1_545 S
C155 H175 0.930 . S
C156 N152 1.362 . S
C156 C153 1.431 1_545 S
C156 C166 1.476 . S
H157 C151 0.929 . S
C158 O149 1.250 . S
C158 O150 1.258 . S
O159 Mn144 2.162 . S
O159 C147 1.281 . S
O160 Mn144 2.297 . S
O160 C147 1.236 . S
N161 Mn145 2.282 . S
N161 C162 1.328 . S
N161 C166 1.318 . S
C162 N161 1.328 . S
C162 C163 1.457 . S
C162 H167 0.929 . S
C163 C162 1.457 . S
C163 C164 1.291 . S
C163 H176 0.931 . S
C164 C163 1.291 . S
C164 C165 1.373 1_545 S
C164 H177 0.929 1_545 S
C165 C164 1.373 1_565 S
C165 C166 1.396 1_565 S
C165 C172 1.403 . S
C166 C156 1.476 . S
C166 N161 1.318 . S
C166 C165 1.396 1_545 S
H167 C162 0.929 . S
O168 Mn144 2.385 . S
O168 C146 1.234 . S
O169 Mn144 2.209 . S
O169 Mn145 2.215 . S
O169 C146 1.283 . S
O170 Mn144 2.094 . S
O170 C148 1.240 . S
O171 Mn145 2.117 . S
O171 C148 1.264 . S
C172 C165 1.403 . S
C172 C173 1.399 . S
C172 H178 0.929 . S
C173 C153 1.449 . S
C173 C172 1.399 . S
C173 H179 0.930 . S
H174 C154 0.931 . S
H175 C155 0.930 . S
H176 C163 0.931 . S
H177 C164 0.929 1_565 S
H178 C172 0.929 . S
H179 C173 0.930 . S
Mn180 O185 2.095 . S
Mn180 O195 2.162 . S
Mn180 O196 2.297 . S
Mn180 O204 2.385 . S
Mn180 O205 2.209 . S
Mn180 O206 2.094 . S
Mn181 O186 2.121 . S
Mn181 N188 2.257 . S
Mn181 N197 2.282 . S
Mn181 O205 2.215 . S
Mn181 O207 2.117 . S
C182 O204 1.234 . S
C182 O205 1.283 . S
C183 O195 1.281 . S
C183 O196 1.236 . S
C184 O206 1.240 . S
C184 O207 1.264 . S
O185 Mn180 2.095 . S
O185 C194 1.250 . S
O186 Mn181 2.121 . S
O186 C194 1.258 . S
C187 N188 1.326 . S
C187 C191 1.460 . S
C187 H193 0.929 . S
N188 Mn181 2.257 . S
N188 C187 1.326 . S
N188 C192 1.362 . S
C189 C190 1.258 . S
C189 C192 1.431 . S
C189 C209 1.449 . S
C190 C189 1.258 . S
C190 C191 1.477 . S
C190 H210 0.931 . S
C191 C187 1.460 . S
C191 C190 1.477 . S
C191 H211 0.930 . S
C192 N188 1.362 . S
C192 C189 1.431 . S
C192 C202 1.476 . S
H193 C187 0.929 . S
C194 O185 1.250 . S
C194 O186 1.258 . S
O195 Mn180 2.162 . S
O195 C183 1.281 . S
O196 Mn180 2.297 . S
O196 C183 1.236 . S
N197 Mn181 2.282 . S
N197 C198 1.328 . S
N197 C202 1.318 . S
C198 N197 1.328 . S
C198 C199 1.457 . S
C198 H203 0.929 . S
C199 C198 1.457 . S
C199 C200 1.291 . S
C199 H212 0.931 . S
C200 C199 1.291 . S
C200 C201 1.373 . S
C200 H213 0.929 . S
C201 C200 1.373 . S
C201 C202 1.396 . S
C201 C208 1.403 . S
C202 C192 1.476 . S
C202 N197 1.318 . S
C202 C201 1.396 . S
H203 C198 0.929 . S
O204 Mn180 2.385 . S
O204 C182 1.234 . S
O205 Mn180 2.209 . S
O205 Mn181 2.215 . S
O205 C182 1.283 . S
O206 Mn180 2.094 . S
O206 C184 1.240 . S
O207 Mn181 2.117 . S
O207 C184 1.264 . S
C208 C201 1.403 . S
C208 C209 1.399 . S
C208 H214 0.929 . S
C209 C189 1.449 . S
C209 C208 1.399 . S
C209 H215 0.930 . S
H210 C190 0.931 . S
H211 C191 0.930 . S
H212 C199 0.931 . S
H213 C200 0.929 . S
H214 C208 0.929 . S
H215 C209 0.930 . S
Mn216 O221 2.095 . S
Mn216 O231 2.162 . S
Mn216 O232 2.297 . S
Mn216 O240 2.385 . S
Mn216 O241 2.209 . S
Mn216 O242 2.094 . S
Mn217 O222 2.121 . S
Mn217 N224 2.257 . S
Mn217 N233 2.282 . S
Mn217 O241 2.215 . S
Mn217 O243 2.117 . S
C218 O240 1.234 . S
C218 O241 1.283 . S
C219 O231 1.281 . S
C219 O232 1.236 . S
C220 O242 1.240 . S
C220 O243 1.264 . S
O221 Mn216 2.095 . S
O221 C230 1.250 . S
O222 Mn217 2.121 . S
O222 C230 1.258 . S
C223 N224 1.326 . S
C223 C227 1.460 . S
C223 H229 0.929 . S
N224 Mn217 2.257 . S
N224 C223 1.326 . S
N224 C228 1.362 . S
C225 C226 1.258 . S
C225 C228 1.431 1_545 S
C225 C245 1.449 . S
C226 C225 1.258 . S
C226 C227 1.477 1_545 S
C226 H246 0.931 . S
C227 C223 1.460 . S
C227 C226 1.477 1_565 S
C227 H247 0.930 . S
C228 N224 1.362 . S
C228 C225 1.431 1_565 S
C228 C238 1.476 . S
H229 C223 0.929 . S
C230 O221 1.250 . S
C230 O222 1.258 . S
O231 Mn216 2.162 . S
O231 C219 1.281 . S
O232 Mn216 2.297 . S
O232 C219 1.236 . S
N233 Mn217 2.282 . S
N233 C234 1.328 . S
N233 C238 1.318 . S
C234 N233 1.328 . S
C234 C235 1.457 . S
C234 H239 0.929 . S
C235 C234 1.457 . S
C235 C236 1.291 . S
C235 H248 0.931 . S
C236 C235 1.291 . S
C236 C237 1.373 1_565 S
C236 H249 0.929 1_565 S
C237 C236 1.373 1_545 S
C237 C238 1.396 1_545 S
C237 C244 1.403 . S
C238 C228 1.476 . S
C238 N233 1.318 . S
C238 C237 1.396 1_565 S
H239 C234 0.929 . S
O240 Mn216 2.385 . S
O240 C218 1.234 . S
O241 Mn216 2.209 . S
O241 Mn217 2.215 . S
O241 C218 1.283 . S
O242 Mn216 2.094 . S
O242 C220 1.240 . S
O243 Mn217 2.117 . S
O243 C220 1.264 . S
C244 C237 1.403 . S
C244 C245 1.399 . S
C244 H250 0.929 . S
C245 C225 1.449 . S
C245 C244 1.399 . S
C245 H251 0.930 . S
H246 C226 0.931 . S
H247 C227 0.930 . S
H248 C235 0.931 . S
H249 C236 0.929 1_545 S
H250 C244 0.929 . S
H251 C245 0.930 . S
Mn252 O257 2.095 . S
Mn252 O267 2.162 . S
Mn252 O268 2.297 . S
Mn252 O276 2.385 . S
Mn252 O277 2.209 . S
Mn252 O278 2.094 . S
Mn253 O258 2.121 . S
Mn253 N260 2.257 . S
Mn253 N269 2.282 . S
Mn253 O277 2.215 . S
Mn253 O279 2.117 . S
C254 O276 1.234 . S
C254 O277 1.283 . S
C255 O267 1.281 . S
C255 O268 1.236 . S
C256 O278 1.240 . S
C256 O279 1.264 . S
O257 Mn252 2.095 . S
O257 C266 1.250 . S
O258 Mn253 2.121 . S
O258 C266 1.258 . S
C259 N260 1.326 . S
C259 C263 1.460 . S
C259 H265 0.929 . S
N260 Mn253 2.257 . S
N260 C259 1.326 . S
N260 C264 1.362 . S
C261 C262 1.258 . S
C261 C264 1.431 . S
C261 C281 1.449 . S
C262 C261 1.258 . S
C262 C263 1.477 . S
C262 H282 0.931 . S
C263 C259 1.460 . S
C263 C262 1.477 . S
C263 H283 0.930 . S
C264 N260 1.362 . S
C264 C261 1.431 . S
C264 C274 1.476 . S
H265 C259 0.929 . S
C266 O257 1.250 . S
C266 O258 1.258 . S
O267 Mn252 2.162 . S
O267 C255 1.281 . S
O268 Mn252 2.297 . S
O268 C255 1.236 . S
N269 Mn253 2.282 . S
N269 C270 1.328 . S
N269 C274 1.318 . S
C270 N269 1.328 . S
C270 C271 1.457 . S
C270 H275 0.929 . S
C271 C270 1.457 . S
C271 C272 1.291 . S
C271 H284 0.931 . S
C272 C271 1.291 . S
C272 C273 1.373 . S
C272 H285 0.929 . S
C273 C272 1.373 . S
C273 C274 1.396 . S
C273 C280 1.403 . S
C274 C264 1.476 . S
C274 N269 1.318 . S
C274 C273 1.396 . S
H275 C270 0.929 . S
O276 Mn252 2.385 . S
O276 C254 1.234 . S
O277 Mn252 2.209 . S
O277 Mn253 2.215 . S
O277 C254 1.283 . S
O278 Mn252 2.094 . S
O278 C256 1.240 . S
O279 Mn253 2.117 . S
O279 C256 1.264 . S
C280 C273 1.403 . S
C280 C281 1.399 . S
C280 H286 0.929 . S
C281 C261 1.449 . S
C281 C280 1.399 . S
C281 H287 0.930 . S
H282 C262 0.931 . S
H283 C263 0.930 . S
H284 C271 0.931 . S
H285 C272 0.929 . S
H286 C280 0.929 . S
H287 C281 0.930 . S
H288 C300 0.930 . S
H289 C302 0.930 . S
H290 C303 0.930 . S
H291 C307 0.959 . S
H292 C307 0.959 . S
H293 C307 0.961 . S
H294 C308 0.960 . S
H295 C308 0.961 1_556 S
H296 C308 0.954 1_556 S
H297 C311 0.929 . S
H298 C312 0.931 . S
H299 C314 0.930 . S
C300 H288 0.930 . S
C300 C301 1.399 . S
C300 C305 1.399 . S
C301 C300 1.399 . S
C301 C302 1.376 . S
C302 H289 0.930 . S
C302 C301 1.376 . S
C302 C303 1.388 . S
C303 H290 0.930 . S
C303 C302 1.388 . S
C303 C304 1.390 . S
C304 C303 1.390 . S
C304 C305 1.394 . S
C304 C310 1.465 1_554 S
C305 C300 1.399 . S
C305 C304 1.394 . S
C305 C306 1.516 . S
C306 C305 1.516 . S
C306 C307 1.502 . S
C306 C308 1.561 . S
C306 C309 1.526 1_554 S
C307 H291 0.959 . S
C307 H292 0.959 . S
C307 H293 0.961 . S
C307 C306 1.502 . S
C308 H294 0.960 . S
C308 H295 0.961 1_554 S
C308 H296 0.954 1_554 S
C308 C306 1.561 . S
C309 C306 1.526 1_556 S
C309 C310 1.396 . S
C309 C314 1.390 . S
C310 C304 1.465 1_556 S
C310 C309 1.396 . S
C310 C311 1.399 . S
C311 H297 0.929 . S
C311 C310 1.399 . S
C311 C312 1.385 . S
C312 H298 0.931 . S
C312 C311 1.385 . S
C312 C313 1.389 . S
C313 C312 1.389 . S
C313 C314 1.387 . S
C314 H299 0.930 . S
C314 C309 1.390 . S
C314 C313 1.387 . S
H315 C327 0.930 . S
H316 C329 0.930 . S
H317 C330 0.930 . S
H318 C334 0.959 . S
H319 C334 0.959 . S
H320 C334 0.961 . S
H321 C335 0.960 . S
H322 C335 0.961 . S
H323 C335 0.959 . S
H324 C338 0.929 . S
H325 C339 0.931 . S
H326 C341 0.930 . S
C327 H315 0.930 . S
C327 C328 1.399 . S
C327 C332 1.399 . S
C328 C327 1.399 . S
C328 C329 1.376 . S
C329 H316 0.930 . S
C329 C328 1.376 . S
C329 C330 1.388 . S
C330 H317 0.930 . S
C330 C329 1.388 . S
C330 C331 1.390 . S
C331 C330 1.390 . S
C331 C332 1.394 . S
C331 C337 1.465 . S
C332 C327 1.399 . S
C332 C331 1.394 . S
C332 C333 1.516 . S
C333 C332 1.516 . S
C333 C334 1.502 . S
C333 C335 1.561 . S
C333 C336 1.526 . S
C334 H318 0.959 . S
C334 H319 0.959 . S
C334 H320 0.961 . S
C334 C333 1.502 . S
C335 H321 0.960 . S
C335 H322 0.961 . S
C335 H323 0.959 . S
C335 C333 1.561 . S
C336 C333 1.526 . S
C336 C337 1.396 . S
C336 C341 1.390 . S
C337 C331 1.465 . S
C337 C336 1.396 . S
C337 C338 1.399 . S
C338 H324 0.929 . S
C338 C337 1.399 . S
C338 C339 1.385 . S
C339 H325 0.931 . S
C339 C338 1.385 . S
C339 C340 1.389 . S
C340 C339 1.389 . S
C340 C341 1.387 . S
C341 H326 0.930 . S
C341 C336 1.390 . S
C341 C340 1.387 . S
H342 C354 0.930 . S
H343 C356 0.930 . S
H344 C357 0.930 . S
H345 C361 0.959 . S
H346 C361 0.959 . S
H347 C361 0.961 . S
H348 C362 0.960 1_554 S
H349 C362 0.961 . S
H350 C362 0.955 1_554 S
H351 C365 0.929 . S
H352 C366 0.931 . S
H353 C368 0.930 . S
C354 H342 0.930 . S
C354 C355 1.399 . S
C354 C359 1.399 . S
C355 C354 1.399 . S
C355 C356 1.376 . S
C356 H343 0.930 . S
C356 C355 1.376 . S
C356 C357 1.388 . S
C357 H344 0.930 . S
C357 C356 1.388 . S
C357 C358 1.390 . S
C358 C357 1.390 . S
C358 C359 1.394 . S
C358 C364 1.465 1_554 S
C359 C354 1.399 . S
C359 C358 1.394 . S
C359 C360 1.516 1_554 S
C360 C359 1.516 1_556 S
C360 C361 1.502 . S
C360 C362 1.561 . S
C360 C363 1.526 . S
C361 H345 0.959 . S
C361 H346 0.959 . S
C361 H347 0.961 . S
C361 C360 1.502 . S
C362 H348 0.960 1_556 S
C362 H349 0.961 . S
C362 H350 0.955 1_556 S
C362 C360 1.561 . S
C363 C360 1.526 . S
C363 C364 1.396 . S
C363 C368 1.390 . S
C364 C358 1.465 1_556 S
C364 C363 1.396 . S
C364 C365 1.399 . S
C365 H351 0.929 . S
C365 C364 1.399 . S
C365 C366 1.385 . S
C366 H352 0.931 . S
C366 C365 1.385 . S
C366 C367 1.389 . S
C367 C366 1.389 . S
C367 C368 1.387 . S
C368 H353 0.930 . S
C368 C363 1.390 . S
C368 C367 1.387 . S
H369 C381 0.930 . S
H370 C383 0.930 . S
H371 C384 0.930 . S
H372 C388 0.959 . S
H373 C388 0.959 . S
H374 C388 0.961 . S
H375 C389 0.960 . S
H376 C389 0.961 . S
H377 C389 0.959 . S
H378 C392 0.929 . S
H379 C393 0.931 . S
H380 C395 0.930 . S
C381 H369 0.930 . S
C381 C382 1.399 . S
C381 C386 1.399 . S
C382 C381 1.399 . S
C382 C383 1.376 . S
C383 H370 0.930 . S
C383 C382 1.376 . S
C383 C384 1.388 . S
C384 H371 0.930 . S
C384 C383 1.388 . S
C384 C385 1.390 . S
C385 C384 1.390 . S
C385 C386 1.394 . S
C385 C391 1.465 . S
C386 C381 1.399 . S
C386 C385 1.394 . S
C386 C387 1.516 . S
C387 C386 1.516 . S
C387 C388 1.502 . S
C387 C389 1.561 . S
C387 C390 1.526 . S
C388 H372 0.959 . S
C388 H373 0.959 . S
C388 H374 0.961 . S
C388 C387 1.502 . S
C389 H375 0.960 . S
C389 H376 0.961 . S
C389 H377 0.959 . S
C389 C387 1.561 . S
C390 C387 1.526 . S
C390 C391 1.396 . S
C390 C395 1.390 . S
C391 C385 1.465 . S
C391 C390 1.396 . S
C391 C392 1.399 . S
C392 H378 0.929 . S
C392 C391 1.399 . S
C392 C393 1.385 . S
C393 H379 0.931 . S
C393 C392 1.385 . S
C393 C394 1.389 . S
C394 C393 1.389 . S
C394 C395 1.387 . S
C395 H380 0.930 . S
C395 C390 1.390 . S
C395 C394 1.387 . S
H396 C408 0.930 . S
H397 C410 0.930 . S
H398 C411 0.930 . S
H399 C415 0.959 . S
H400 C415 0.959 . S
H401 C415 0.961 . S
H402 C416 0.960 . S
H403 C416 0.961 . S
H404 C416 0.959 . S
H405 C419 0.929 . S
H406 C420 0.931 . S
H407 C422 0.930 . S
C408 H396 0.930 . S
C408 C409 1.399 . S
C408 C413 1.399 . S
C409 C408 1.399 . S
C409 C410 1.376 . S
C410 H397 0.930 . S
C410 C409 1.376 . S
C410 C411 1.388 . S
C411 H398 0.930 . S
C411 C410 1.388 . S
C411 C412 1.390 . S
C412 C411 1.390 . S
C412 C413 1.394 . S
C412 C418 1.465 . S
C413 C408 1.399 . S
C413 C412 1.394 . S
C413 C414 1.516 . S
C414 C413 1.516 . S
C414 C415 1.502 . S
C414 C416 1.561 . S
C414 C417 1.526 . S
C415 H399 0.959 . S
C415 H400 0.959 . S
C415 H401 0.961 . S
C415 C414 1.502 . S
C416 H402 0.960 . S
C416 H403 0.961 . S
C416 H404 0.959 . S
C416 C414 1.561 . S
C417 C414 1.526 . S
C417 C418 1.396 . S
C417 C422 1.390 . S
C418 C412 1.465 . S
C418 C417 1.396 . S
C418 C419 1.399 . S
C419 H405 0.929 . S
C419 C418 1.399 . S
C419 C420 1.385 . S
C420 H406 0.931 . S
C420 C419 1.385 . S
C420 C421 1.389 . S
C421 C420 1.389 . S
C421 C422 1.387 . S
C422 H407 0.930 . S
C422 C417 1.390 . S
C422 C421 1.387 . S
H423 C435 0.930 . S
H424 C437 0.930 . S
H425 C438 0.930 . S
H426 C442 0.959 . S
H427 C442 0.959 . S
H428 C442 0.961 . S
H429 C443 0.960 . S
H430 C443 0.961 . S
H431 C443 0.959 . S
H432 C446 0.929 . S
H433 C447 0.931 1_545 S
H434 C449 0.930 . S
C435 H423 0.930 . S
C435 C436 1.399 . S
C435 C440 1.399 . S
C436 C435 1.399 . S
C436 C437 1.376 . S
C437 H424 0.930 . S
C437 C436 1.376 . S
C437 C438 1.388 . S
C438 H425 0.930 . S
C438 C437 1.388 . S
C438 C439 1.390 . S
C439 C438 1.390 . S
C439 C440 1.394 . S
C439 C445 1.465 . S
C440 C435 1.399 . S
C440 C439 1.394 . S
C440 C441 1.516 . S
C441 C440 1.516 . S
C441 C442 1.502 . S
C441 C443 1.561 . S
C441 C444 1.526 . S
C442 H426 0.959 . S
C442 H427 0.959 . S
C442 H428 0.961 . S
C442 C441 1.502 . S
C443 H429 0.960 . S
C443 H430 0.961 . S
C443 H431 0.959 . S
C443 C441 1.561 . S
C444 C441 1.526 . S
C444 C445 1.396 . S
C444 C449 1.390 . S
C445 C439 1.465 . S
C445 C444 1.396 . S
C445 C446 1.399 . S
C446 H432 0.929 . S
C446 C445 1.399 . S
C446 C447 1.385 . S
C447 H433 0.931 1_565 S
C447 C446 1.385 . S
C447 C448 1.389 . S
C448 C447 1.389 . S
C448 C449 1.387 . S
C449 H434 0.930 . S
C449 C444 1.390 . S
C449 C448 1.387 . S
H450 C462 0.930 . S
H451 C464 0.930 . S
H452 C465 0.930 . S
H453 C469 0.959 . S
H454 C469 0.959 . S
H455 C469 0.961 . S
H456 C470 0.960 . S
H457 C470 0.961 . S
H458 C470 0.959 . S
H459 C473 0.929 . S
H460 C474 0.931 . S
H461 C476 0.930 . S
C462 H450 0.930 . S
C462 C463 1.399 . S
C462 C467 1.399 . S
C463 C462 1.399 . S
C463 C464 1.376 . S
C464 H451 0.930 . S
C464 C463 1.376 . S
C464 C465 1.388 . S
C465 H452 0.930 . S
C465 C464 1.388 . S
C465 C466 1.390 . S
C466 C465 1.390 . S
C466 C467 1.394 . S
C466 C472 1.465 . S
C467 C462 1.399 . S
C467 C466 1.394 . S
C467 C468 1.516 . S
C468 C467 1.516 . S
C468 C469 1.502 . S
C468 C470 1.561 . S
C468 C471 1.526 . S
C469 H453 0.959 . S
C469 H454 0.959 . S
C469 H455 0.961 . S
C469 C468 1.502 . S
C470 H456 0.960 . S
C470 H457 0.961 . S
C470 H458 0.959 . S
C470 C468 1.561 . S
C471 C468 1.526 . S
C471 C472 1.396 . S
C471 C476 1.390 . S
C472 C466 1.465 . S
C472 C471 1.396 . S
C472 C473 1.399 . S
C473 H459 0.929 . S
C473 C472 1.399 . S
C473 C474 1.385 . S
C474 H460 0.931 . S
C474 C473 1.385 . S
C474 C475 1.389 . S
C475 C474 1.389 . S
C475 C476 1.387 . S
C476 H461 0.930 . S
C476 C471 1.390 . S
C476 C475 1.387 . S
H477 C489 0.930 . S
H478 C491 0.930 . S
H479 C492 0.930 . S
H480 C496 0.959 . S
H481 C496 0.959 . S
H482 C496 0.961 . S
H483 C497 0.960 . S
H484 C497 0.961 . S
H485 C497 0.959 . S
H486 C500 0.929 . S
H487 C501 0.931 . S
H488 C503 0.930 . S
C489 H477 0.930 . S
C489 C490 1.399 . S
C489 C494 1.399 . S
C490 C489 1.399 . S
C490 C491 1.376 . S
C491 H478 0.930 . S
C491 C490 1.376 . S
C491 C492 1.388 . S
C492 H479 0.930 . S
C492 C491 1.388 . S
C492 C493 1.390 . S
C493 C492 1.390 . S
C493 C494 1.394 . S
C493 C499 1.465 . S
C494 C489 1.399 . S
C494 C493 1.394 . S
C494 C495 1.516 . S
C495 C494 1.516 . S
C495 C496 1.502 . S
C495 C497 1.561 . S
C495 C498 1.526 . S
C496 H480 0.959 . S
C496 H481 0.959 . S
C496 H482 0.961 . S
C496 C495 1.502 . S
C497 H483 0.960 . S
C497 H484 0.961 . S
C497 H485 0.959 . S
C497 C495 1.561 . S
C498 C495 1.526 . S
C498 C499 1.396 . S
C498 C503 1.390 . S
C499 C493 1.465 . S
C499 C498 1.396 . S
C499 C500 1.399 . S
C500 H486 0.929 . S
C500 C499 1.399 . S
C500 C501 1.385 . S
C501 H487 0.931 . S
C501 C500 1.385 . S
C501 C502 1.389 . S
C502 C501 1.389 . S
C502 C503 1.387 . S
C503 H488 0.930 . S
C503 C498 1.390 . S
C503 C502 1.387 . S
H504 C516 0.930 . S
H505 C518 0.930 . S
H506 C519 0.930 . S
H507 C523 0.959 . S
H508 C523 0.959 . S
H509 C523 0.961 . S
H510 C524 0.960 . S
H511 C524 0.961 . S
H512 C524 0.959 . S
H513 C527 0.929 . S
H514 C528 0.931 . S
H515 C530 0.930 . S
C516 H504 0.930 . S
C516 C517 1.399 . S
C516 C521 1.399 . S
C517 C516 1.399 . S
C517 C518 1.376 . S
C518 H505 0.930 . S
C518 C517 1.376 . S
C518 C519 1.388 . S
C519 H506 0.930 . S
C519 C518 1.388 . S
C519 C520 1.390 . S
C520 C519 1.390 . S
C520 C521 1.394 . S
C520 C526 1.465 . S
C521 C516 1.399 . S
C521 C520 1.394 . S
C521 C522 1.516 . S
C522 C521 1.516 . S
C522 C523 1.502 . S
C522 C524 1.561 . S
C522 C525 1.526 . S
C523 H507 0.959 . S
C523 H508 0.959 . S
C523 H509 0.961 . S
C523 C522 1.502 . S
C524 H510 0.960 . S
C524 H511 0.961 . S
C524 H512 0.959 . S
C524 C522 1.561 . S
C525 C522 1.526 . S
C525 C526 1.396 . S
C525 C530 1.390 . S
C526 C520 1.465 . S
C526 C525 1.396 . S
C526 C527 1.399 . S
C527 H513 0.929 . S
C527 C526 1.399 . S
C527 C528 1.385 . S
C528 H514 0.931 . S
C528 C527 1.385 . S
C528 C529 1.389 . S
C529 C528 1.389 . S
C529 C530 1.387 . S
C530 H515 0.930 . S
C530 C525 1.390 . S
C530 C529 1.387 . S
H531 C543 0.930 . S
H532 C545 0.930 . S
H533 C546 0.930 . S
H534 C550 0.959 . S
H535 C550 0.959 . S
H536 C550 0.961 . S
H537 C551 0.960 . S
H538 C551 0.961 . S
H539 C551 0.959 . S
H540 C554 0.929 . S
H541 C555 0.931 . S
H542 C557 0.930 . S
C543 H531 0.930 . S
C543 C544 1.399 . S
C543 C548 1.399 . S
C544 C543 1.399 . S
C544 C545 1.376 . S
C545 H532 0.930 . S
C545 C544 1.376 . S
C545 C546 1.388 . S
C546 H533 0.930 . S
C546 C545 1.388 . S
C546 C547 1.390 . S
C547 C546 1.390 . S
C547 C548 1.394 . S
C547 C553 1.465 . S
C548 C543 1.399 . S
C548 C547 1.394 . S
C548 C549 1.516 . S
C549 C548 1.516 . S
C549 C550 1.502 . S
C549 C551 1.561 . S
C549 C552 1.526 . S
C550 H534 0.959 . S
C550 H535 0.959 . S
C550 H536 0.961 . S
C550 C549 1.502 . S
C551 H537 0.960 . S
C551 H538 0.961 . S
C551 H539 0.959 . S
C551 C549 1.561 . S
C552 C549 1.526 . S
C552 C553 1.396 . S
C552 C557 1.390 . S
C553 C547 1.465 . S
C553 C552 1.396 . S
C553 C554 1.399 . S
C554 H540 0.929 . S
C554 C553 1.399 . S
C554 C555 1.385 . S
C555 H541 0.931 . S
C555 C554 1.385 . S
C555 C556 1.389 . S
C556 C555 1.389 . S
C556 C557 1.387 . S
C557 H542 0.930 . S
C557 C552 1.390 . S
C557 C556 1.387 . S
H558 C570 0.930 . S
H559 C572 0.930 . S
H560 C573 0.930 . S
H561 C577 0.959 . S
H562 C577 0.959 . S
H563 C577 0.961 . S
H564 C578 0.960 . S
H565 C578 0.961 . S
H566 C578 0.959 . S
H567 C581 0.929 . S
H568 C582 0.931 . S
H569 C584 0.930 . S
C570 H558 0.930 . S
C570 C571 1.399 . S
C570 C575 1.399 . S
C571 C570 1.399 . S
C571 C572 1.376 . S
C572 H559 0.930 . S
C572 C571 1.376 . S
C572 C573 1.388 . S
C573 H560 0.930 . S
C573 C572 1.388 . S
C573 C574 1.390 . S
C574 C573 1.390 . S
C574 C575 1.394 . S
C574 C580 1.465 . S
C575 C570 1.399 . S
C575 C574 1.394 . S
C575 C576 1.516 . S
C576 C575 1.516 . S
C576 C577 1.502 . S
C576 C578 1.561 . S
C576 C579 1.526 . S
C577 H561 0.959 . S
C577 H562 0.959 . S
C577 H563 0.961 . S
C577 C576 1.502 . S
C578 H564 0.960 . S
C578 H565 0.961 . S
C578 H566 0.959 . S
C578 C576 1.561 . S
C579 C576 1.526 . S
C579 C580 1.396 . S
C579 C584 1.390 . S
C580 C574 1.465 . S
C580 C579 1.396 . S
C580 C581 1.399 . S
C581 H567 0.929 . S
C581 C580 1.399 . S
C581 C582 1.385 . S
C582 H568 0.931 . S
C582 C581 1.385 . S
C582 C583 1.389 . S
C583 C582 1.389 . S
C583 C584 1.387 . S
C584 H569 0.930 . S
C584 C579 1.390 . S
C584 C583 1.387 . S
H585 C597 0.930 . S
H586 C599 0.930 . S
H587 C600 0.930 . S
H588 C604 0.959 . S
H589 C604 0.959 . S
H590 C604 0.961 . S
H591 C605 0.960 . S
H592 C605 0.961 . S
H593 C605 0.959 . S
H594 C608 0.929 . S
H595 C609 0.931 . S
H596 C611 0.930 . S
C597 H585 0.930 . S
C597 C598 1.399 . S
C597 C602 1.399 . S
C598 C597 1.399 . S
C598 C599 1.376 . S
C599 H586 0.930 . S
C599 C598 1.376 . S
C599 C600 1.388 . S
C600 H587 0.930 . S
C600 C599 1.388 . S
C600 C601 1.390 . S
C601 C600 1.390 . S
C601 C602 1.394 . S
C601 C607 1.465 . S
C602 C597 1.399 . S
C602 C601 1.394 . S
C602 C603 1.516 . S
C603 C602 1.516 . S
C603 C604 1.502 . S
C603 C605 1.561 . S
C603 C606 1.526 . S
C604 H588 0.959 . S
C604 H589 0.959 . S
C604 H590 0.961 . S
C604 C603 1.502 . S
C605 H591 0.960 . S
C605 H592 0.961 . S
C605 H593 0.959 . S
C605 C603 1.561 . S
C606 C603 1.526 . S
C606 C607 1.396 . S
C606 C611 1.390 . S
C607 C601 1.465 . S
C607 C606 1.396 . S
C607 C608 1.399 . S
C608 H594 0.929 . S
C608 C607 1.399 . S
C608 C609 1.385 . S
C609 H595 0.931 . S
C609 C608 1.385 . S
C609 C610 1.389 . S
C610 C609 1.389 . S
C610 C611 1.387 . S
C611 H596 0.930 . S
C611 C606 1.390 . S
C611 C610 1.387 . S
H612 C624 0.930 . S
H613 C626 0.930 . S
H614 C627 0.930 . S
H615 C631 0.959 . S
H616 C631 0.959 . S
H617 C631 0.961 . S
H618 C632 0.960 . S
H619 C632 0.961 . S
H620 C632 0.959 . S
H621 C635 0.929 . S
H622 C636 0.931 . S
H623 C638 0.930 . S
C624 H612 0.930 . S
C624 C625 1.399 . S
C624 C629 1.399 . S
C625 C624 1.399 . S
C625 C626 1.376 . S
C626 H613 0.930 . S
C626 C625 1.376 . S
C626 C627 1.388 . S
C627 H614 0.930 . S
C627 C626 1.388 . S
C627 C628 1.390 . S
C628 C627 1.390 . S
C628 C629 1.394 . S
C628 C634 1.465 1_655 S
C629 C624 1.399 . S
C629 C628 1.394 . S
C629 C630 1.516 1_655 S
C630 C629 1.516 1_455 S
C630 C631 1.502 . S
C630 C632 1.561 1_455 S
C630 C633 1.526 . S
C631 H615 0.959 . S
C631 H616 0.959 . S
C631 H617 0.961 . S
C631 C630 1.502 . S
C632 H618 0.960 . S
C632 H619 0.961 . S
C632 H620 0.959 . S
C632 C630 1.561 1_655 S
C633 C630 1.526 . S
C633 C634 1.396 . S
C633 C638 1.390 . S
C634 C628 1.465 1_455 S
C634 C633 1.396 . S
C634 C635 1.399 . S
C635 H621 0.929 . S
C635 C634 1.399 . S
C635 C636 1.385 . S
C636 H622 0.931 . S
C636 C635 1.385 . S
C636 C637 1.389 . S
C637 C636 1.389 . S
C637 C638 1.387 . S
C638 H623 0.930 . S
C638 C633 1.390 . S
C638 C637 1.387 . S
H639 C651 0.930 . S
H640 C653 0.930 . S
H641 C654 0.930 . S
H642 C658 0.959 . S
H643 C658 0.959 . S
H644 C658 0.961 . S
H645 C659 0.960 1_655 S
H646 C659 0.961 . S
H647 C659 0.959 . S
H648 C662 0.929 . S
H649 C663 0.931 . S
H650 C665 0.930 . S
C651 H639 0.930 . S
C651 C652 1.399 . S
C651 C656 1.399 . S
C652 C651 1.399 . S
C652 C653 1.376 . S
C653 H640 0.930 . S
C653 C652 1.376 . S
C653 C654 1.388 . S
C654 H641 0.930 . S
C654 C653 1.388 . S
C654 C655 1.390 . S
C655 C654 1.390 . S
C655 C656 1.394 . S
C655 C661 1.465 1_655 S
C656 C651 1.399 . S
C656 C655 1.394 . S
C656 C657 1.516 . S
C657 C656 1.516 . S
C657 C658 1.502 . S
C657 C659 1.561 1_655 S
C657 C660 1.526 1_655 S
C658 H642 0.959 . S
C658 H643 0.959 . S
C658 H644 0.961 . S
C658 C657 1.502 . S
C659 H645 0.960 1_455 S
C659 H646 0.961 . S
C659 H647 0.959 . S
C659 C657 1.561 1_455 S
C660 C657 1.526 1_455 S
C660 C661 1.396 . S
C660 C665 1.390 . S
C661 C655 1.465 1_455 S
C661 C660 1.396 . S
C661 C662 1.399 . S
C662 H648 0.929 . S
C662 C661 1.399 . S
C662 C663 1.385 . S
C663 H649 0.931 . S
C663 C662 1.385 . S
C663 C664 1.389 . S
C664 C663 1.389 . S
C664 C665 1.387 . S
C665 H650 0.930 . S
C665 C660 1.390 . S
C665 C664 1.387 . S
H666 C678 0.930 . S
H667 C680 0.930 . S
H668 C681 0.930 . S
H669 C685 0.959 . S
H670 C685 0.959 1_565 S
H671 C685 0.961 . S
H672 C686 0.960 . S
H673 C686 0.961 . S
H674 C686 0.959 . S
H675 C689 0.929 . S
H676 C690 0.931 . S
H677 C692 0.930 . S
C678 H666 0.930 . S
C678 C679 1.399 . S
C678 C683 1.399 . S
C679 C678 1.399 . S
C679 C680 1.376 . S
C680 H667 0.930 . S
C680 C679 1.376 . S
C680 C681 1.388 . S
C681 H668 0.930 . S
C681 C680 1.388 . S
C681 C682 1.390 . S
C682 C681 1.390 . S
C682 C683 1.394 . S
C682 C688 1.465 1_545 S
C683 C678 1.399 . S
C683 C682 1.394 . S
C683 C684 1.516 1_545 S
C684 C683 1.516 1_565 S
C684 C685 1.502 1_565 S
C684 C686 1.561 . S
C684 C687 1.526 . S
C685 H669 0.959 . S
C685 H670 0.959 1_545 S
C685 H671 0.961 . S
C685 C684 1.502 1_545 S
C686 H672 0.960 . S
C686 H673 0.961 . S
C686 H674 0.959 . S
C686 C684 1.561 . S
C687 C684 1.526 . S
C687 C688 1.396 . S
C687 C692 1.390 . S
C688 C682 1.465 1_565 S
C688 C687 1.396 . S
C688 C689 1.399 . S
C689 H675 0.929 . S
C689 C688 1.399 . S
C689 C690 1.385 . S
C690 H676 0.931 . S
C690 C689 1.385 . S
C690 C691 1.389 . S
C691 C690 1.389 . S
C691 C692 1.387 . S
C692 H677 0.930 . S
C692 C687 1.390 . S
C692 C691 1.387 . S
H693 C705 0.930 . S
H694 C707 0.930 . S
H695 C708 0.930 . S
H696 C712 0.959 . S
H697 C712 0.959 . S
H698 C712 0.961 . S
H699 C713 0.960 . S
H700 C713 0.961 . S
H701 C713 0.959 . S
H702 C716 0.929 . S
H703 C717 0.931 . S
H704 C719 0.930 . S
C705 H693 0.930 . S
C705 C706 1.399 . S
C705 C710 1.399 . S
C706 C705 1.399 . S
C706 C707 1.376 . S
C707 H694 0.930 . S
C707 C706 1.376 . S
C707 C708 1.388 . S
C708 H695 0.930 . S
C708 C707 1.388 . S
C708 C709 1.390 . S
C709 C708 1.390 . S
C709 C710 1.394 . S
C709 C715 1.465 . S
C710 C705 1.399 . S
C710 C709 1.394 . S
C710 C711 1.516 1_545 S
C711 C710 1.516 1_565 S
C711 C712 1.502 . S
C711 C713 1.561 . S
C711 C714 1.526 . S
C712 H696 0.959 . S
C712 H697 0.959 . S
C712 H698 0.961 . S
C712 C711 1.502 . S
C713 H699 0.960 . S
C713 H700 0.961 . S
C713 H701 0.959 . S
C713 C711 1.561 . S
C714 C711 1.526 . S
C714 C715 1.396 1_565 S
C714 C719 1.390 . S
C715 C709 1.465 . S
C715 C714 1.396 1_545 S
C715 C716 1.399 . S
C716 H702 0.929 . S
C716 C715 1.399 . S
C716 C717 1.385 1_545 S
C717 H703 0.931 . S
C717 C716 1.385 1_565 S
C717 C718 1.389 . S
C718 C717 1.389 . S
C718 C719 1.387 . S
C719 H704 0.930 . S
C719 C714 1.390 . S
C719 C718 1.387 . S
C301 C4 1.342 . S
C313 C184 1.351 . S
C328 C40 1.335 . S
C340 C220 1.334 . S
C355 C76 1.363 . S
C367 C256 1.355 . S
C382 C148 1.360 . S
C394 C112 1.352 . S
C409 C14 1.579 . S
C421 C147 1.631 . S
C436 C50 1.572 . S
C448 C183 1.625 1_565 S
C463 C219 1.616 . S
C475 C86 1.594 . S
C490 C122 1.603 . S
C502 C255 1.618 1_545 S
C517 C158 1.609 . S
C529 C3 1.612 1_655 S
C544 C39 1.651 . S
C556 C194 1.526 . S
C571 C230 1.529 . S
C583 C75 1.651 1_455 S
C598 C111 1.643 . S
C610 C266 1.537 . S
C625 C74 0.583 . S
C637 C2 0.515 . S
C652 C110 0.600 . S
C664 C38 0.484 . S
C679 C146 0.573 . S
C691 C218 0.529 . S
C706 C182 0.603 . S
C718 C254 0.438 . S
