# Generated by pormake.
# Topology soi, (5)-cn, num edge types: 1
# Building blocks:
#     Node 0, Type 0, BuildingBlock: XOMCOT_clean_sbu_1, # of connection points: 5
#     Node 1, Type 0, BuildingBlock: XOMCOT_clean_sbu_1, # of connection points: 5
#     Node 2, Type 0, BuildingBlock: XOMCOT_clean_sbu_1, # of connection points: 5
#     Node 3, Type 0, BuildingBlock: XOMCOT_clean_sbu_1, # of connection points: 5
#     Node 4, Type 0, BuildingBlock: XOMCOT_clean_sbu_1, # of connection points: 5
#     Node 5, Type 0, BuildingBlock: XOMCOT_clean_sbu_1, # of connection points: 5
#     Node 6, Type 0, BuildingBlock: XOMCOT_clean_sbu_1, # of connection points: 5
#     Node 7, Type 0, BuildingBlock: XOMCOT_clean_sbu_1, # of connection points: 5
#     Node 8, Type 0, BuildingBlock: XOMCOT_clean_sbu_1, # of connection points: 5
#     Node 9, Type 0, BuildingBlock: XOMCOT_clean_sbu_1, # of connection points: 5
#     Node 10, Type 0, BuildingBlock: XOMCOT_clean_sbu_1, # of connection points: 5
#     Node 11, Type 0, BuildingBlock: XOMCOT_clean_sbu_1, # of connection points: 5
#     Node 12, Type 0, BuildingBlock: XOMCOT_clean_sbu_1, # of connection points: 5
#     Node 13, Type 0, BuildingBlock: XOMCOT_clean_sbu_1, # of connection points: 5
#     Node 14, Type 0, BuildingBlock: XOMCOT_clean_sbu_1, # of connection points: 5
#     Node 15, Type 0, BuildingBlock: XOMCOT_clean_sbu_1, # of connection points: 5
#     Edge 16, Type (0, 0), BuildingBlock: MIFKUJ_clean_linker_0, # of connection points: 2
#     Edge 17, Type (0, 0), BuildingBlock: MIFKUJ_clean_linker_0, # of connection points: 2
#     Edge 18, Type (0, 0), BuildingBlock: MIFKUJ_clean_linker_0, # of connection points: 2
#     Edge 19, Type (0, 0), BuildingBlock: MIFKUJ_clean_linker_0, # of connection points: 2
#     Edge 20, Type (0, 0), BuildingBlock: MIFKUJ_clean_linker_0, # of connection points: 2
#     Edge 21, Type (0, 0), BuildingBlock: MIFKUJ_clean_linker_0, # of connection points: 2
#     Edge 22, Type (0, 0), BuildingBlock: MIFKUJ_clean_linker_0, # of connection points: 2
#     Edge 23, Type (0, 0), BuildingBlock: MIFKUJ_clean_linker_0, # of connection points: 2
#     Edge 24, Type (0, 0), BuildingBlock: MIFKUJ_clean_linker_0, # of connection points: 2
#     Edge 25, Type (0, 0), BuildingBlock: MIFKUJ_clean_linker_0, # of connection points: 2
#     Edge 26, Type (0, 0), BuildingBlock: MIFKUJ_clean_linker_0, # of connection points: 2
#     Edge 27, Type (0, 0), BuildingBlock: MIFKUJ_clean_linker_0, # of connection points: 2
#     Edge 28, Type (0, 0), BuildingBlock: MIFKUJ_clean_linker_0, # of connection points: 2
#     Edge 29, Type (0, 0), BuildingBlock: MIFKUJ_clean_linker_0, # of connection points: 2
#     Edge 30, Type (0, 0), BuildingBlock: MIFKUJ_clean_linker_0, # of connection points: 2
#     Edge 31, Type (0, 0), BuildingBlock: MIFKUJ_clean_linker_0, # of connection points: 2
#     Edge 32, Type (0, 0), BuildingBlock: MIFKUJ_clean_linker_0, # of connection points: 2
#     Edge 33, Type (0, 0), BuildingBlock: MIFKUJ_clean_linker_0, # of connection points: 2
#     Edge 34, Type (0, 0), BuildingBlock: MIFKUJ_clean_linker_0, # of connection points: 2
#     Edge 35, Type (0, 0), BuildingBlock: MIFKUJ_clean_linker_0, # of connection points: 2
#     Edge 36, Type (0, 0), BuildingBlock: MIFKUJ_clean_linker_0, # of connection points: 2
#     Edge 37, Type (0, 0), BuildingBlock: MIFKUJ_clean_linker_0, # of connection points: 2
#     Edge 38, Type (0, 0), BuildingBlock: MIFKUJ_clean_linker_0, # of connection points: 2
#     Edge 39, Type (0, 0), BuildingBlock: MIFKUJ_clean_linker_0, # of connection points: 2
#     Edge 40, Type (0, 0), BuildingBlock: MIFKUJ_clean_linker_0, # of connection points: 2
#     Edge 41, Type (0, 0), BuildingBlock: MIFKUJ_clean_linker_0, # of connection points: 2
#     Edge 42, Type (0, 0), BuildingBlock: MIFKUJ_clean_linker_0, # of connection points: 2
#     Edge 43, Type (0, 0), BuildingBlock: MIFKUJ_clean_linker_0, # of connection points: 2
#     Edge 44, Type (0, 0), BuildingBlock: MIFKUJ_clean_linker_0, # of connection points: 2
#     Edge 45, Type (0, 0), BuildingBlock: MIFKUJ_clean_linker_0, # of connection points: 2
#     Edge 46, Type (0, 0), BuildingBlock: MIFKUJ_clean_linker_0, # of connection points: 2
#     Edge 47, Type (0, 0), BuildingBlock: MIFKUJ_clean_linker_0, # of connection points: 2
#     Edge 48, Type (0, 0), BuildingBlock: MIFKUJ_clean_linker_0, # of connection points: 2
#     Edge 49, Type (0, 0), BuildingBlock: MIFKUJ_clean_linker_0, # of connection points: 2
#     Edge 50, Type (0, 0), BuildingBlock: MIFKUJ_clean_linker_0, # of connection points: 2
#     Edge 51, Type (0, 0), BuildingBlock: MIFKUJ_clean_linker_0, # of connection points: 2
#     Edge 52, Type (0, 0), BuildingBlock: MIFKUJ_clean_linker_0, # of connection points: 2
#     Edge 53, Type (0, 0), BuildingBlock: MIFKUJ_clean_linker_0, # of connection points: 2
#     Edge 54, Type (0, 0), BuildingBlock: MIFKUJ_clean_linker_0, # of connection points: 2
#     Edge 55, Type (0, 0), BuildingBlock: MIFKUJ_clean_linker_0, # of connection points: 2
# Relax obj value: 0.128
# Max RMSD: 0.170
# Mean RMSD: 0.170
data_MOF--net-soi--node1-XOMCOT_clean_sbu_1--edge1-MIFKUJ_clean_linker_0
_symmetry_space_group_name_H-M    P1
_symmetry_Int_Tables_number       1
_symmetry_cell_setting            triclinic
loop_
_symmetry_equiv_pos_as_xyz
'x, y, z'
_cell_length_a     59.261465
_cell_length_b     33.239539
_cell_length_c     83.018518
_cell_angle_alpha  90.075465
_cell_angle_beta   90.009029
_cell_angle_gamma 89.978406
loop_
_atom_site_label
_atom_site_type_symbol
_atom_site_fract_x
_atom_site_fract_y
_atom_site_fract_z
_atom_type_partial_charge
C0 C 0.34576 0.01861 0.0957 0.0
C1 C 0.33617 0.02197 0.08075 0.0
N2 N 0.31889 0.04814 0.0817 0.0
N3 N 0.33482 0.04274 0.10614 0.0
C4 C 0.31824 0.06021 0.09731 0.0
H5 H 0.36007 -4e-05 0.09881 0.0
Co6 Co 0.34533 0.04598 0.12722 0.0
C7 C 0.32758 0.12046 0.14183 0.0
O8 O 0.34723 0.1242 0.14899 0.0
N9 N 0.35677 0.04678 0.14884 0.0
C10 C 0.37945 0.04796 0.17029 0.0
C11 C 0.37842 0.05042 0.15385 0.0
C12 C 0.34505 0.04123 0.16276 0.0
N13 N 0.35849 0.04222 0.17597 0.0
O14 O 0.32336 0.00683 0.13352 0.0
H15 H 0.39304 0.05403 0.14636 0.0
H16 H 0.32697 0.03684 0.1632 0.0
O17 O 0.32414 0.09047 0.13237 0.0
C18 C 0.33189 0.97173 0.1346 0.0
O19 O 0.35367 0.9675 0.13213 0.0
N20 N 0.3679 0.08171 0.11988 0.0
C21 C 0.40499 0.12667 0.1098 0.0
C22 C 0.38351 0.14429 0.1107 0.0
C23 C 0.36501 0.12094 0.11538 0.0
C24 C 0.38795 0.06308 0.11689 0.0
C25 C 0.4069 0.08513 0.1123 0.0
H26 H 0.34854 0.13468 0.1153 0.0
H27 H 0.38952 0.03106 0.11894 0.0
H28 H 0.30633 0.08185 0.10208 0.0
H29 H 0.34137 0.00604 0.06999 0.0
H30 H 0.39467 0.04908 0.17749 0.0
H31 H 0.38109 0.17599 0.10826 0.0
H32 H 0.42296 0.06991 0.11099 0.0
C33 C 0.65865 0.47663 0.09687 0.0
C34 C 0.66802 0.47631 0.08179 0.0
N35 N 0.68774 0.45619 0.08246 0.0
N36 N 0.67222 0.4567 0.10713 0.0
C37 C 0.69002 0.44479 0.09806 0.0
H38 H 0.64293 0.49089 0.10022 0.0
Co39 Co 0.66458 0.45178 0.12882 0.0
C40 C 0.68173 0.37263 0.13934 0.0
O41 O 0.66241 0.36738 0.14674 0.0
N42 N 0.65632 0.44852 0.15125 0.0
C43 C 0.63859 0.43525 0.17441 0.0
C44 C 0.63752 0.43239 0.15799 0.0
C45 C 0.66836 0.46164 0.16422 0.0
N46 N 0.65793 0.45367 0.17834 0.0
O47 O 0.68841 0.48832 0.13413 0.0
H48 H 0.62412 0.41705 0.15176 0.0
H49 H 0.68477 0.47575 0.16346 0.0
O50 O 0.68523 0.40514 0.13141 0.0
C51 C 0.68195 0.5246 0.13223 0.0
O52 O 0.66095 0.53116 0.12787 0.0
N53 N 0.64009 0.41924 0.12244 0.0
C54 C 0.60109 0.37874 0.11296 0.0
C55 C 0.62242 0.36133 0.1106 0.0
C56 C 0.6418 0.38255 0.11509 0.0
C57 C 0.61974 0.43836 0.12303 0.0
C58 C 0.59995 0.41829 0.11879 0.0
H59 H 0.65808 0.36942 0.11256 0.0
H60 H 0.61884 0.46887 0.12755 0.0
H61 H 0.70424 0.42806 0.10275 0.0
H62 H 0.66107 0.49073 0.07122 0.0
H63 H 0.62616 0.42419 0.18289 0.0
H64 H 0.62412 0.33133 0.10565 0.0
H65 H 0.58389 0.43348 0.12016 0.0
C66 C 0.34494 0.93462 0.42378 0.0
C67 C 0.33855 0.93097 0.43971 0.0
N68 N 0.31603 0.92492 0.4403 0.0
N69 N 0.32658 0.93063 0.41435 0.0
C70 C 0.30936 0.92435 0.42472 0.0
H71 H 0.36164 0.94205 0.41945 0.0
Co72 Co 0.32331 0.94117 0.39228 0.0
C73 C 0.3002 0.86991 0.37936 0.0
O74 O 0.31338 0.87186 0.36665 0.0
N75 N 0.31866 0.95265 0.36996 0.0
C76 C 0.29745 0.96309 0.34815 0.0
C77 C 0.29733 0.9575 0.36444 0.0
C78 C 0.3316 0.95637 0.35648 0.0
N79 N 0.31894 0.96222 0.34307 0.0
O80 O 0.29924 0.97743 0.39731 0.0
H81 H 0.28227 0.95545 0.37174 0.0
H82 H 0.34973 0.95346 0.35623 0.0
O83 O 0.30227 0.89593 0.39064 0.0
C84 C 0.30526 0.00992 0.40421 0.0
O85 O 0.32667 0.0153 0.40772 0.0
N86 N 0.34847 0.90809 0.38804 0.0
C87 C 0.38972 0.86779 0.38567 0.0
C88 C 0.37017 0.84728 0.39042 0.0
C89 C 0.34984 0.86822 0.39199 0.0
C90 C 0.36748 0.92869 0.38388 0.0
C91 C 0.38825 0.90909 0.38247 0.0
H92 H 0.33558 0.85263 0.3971 0.0
H93 H 0.36662 0.96089 0.38213 0.0
H94 H 0.29202 0.92139 0.42084 0.0
H95 H 0.34947 0.935 0.45002 0.0
H96 H 0.28278 0.96711 0.34054 0.0
H97 H 0.37084 0.81574 0.39366 0.0
H98 H 0.40307 0.92618 0.3791 0.0
C99 C 0.64444 0.56972 0.42658 0.0
C100 C 0.65352 0.57481 0.44166 0.0
N101 N 0.67619 0.57174 0.4406 0.0
N102 N 0.66119 0.56433 0.41583 0.0
C103 C 0.68035 0.56571 0.42472 0.0
H104 H 0.62663 0.56846 0.42375 0.0
Co105 Co 0.65739 0.54893 0.39428 0.0
C106 C 0.67894 0.61712 0.37719 0.0
O107 O 0.66135 0.61933 0.36757 0.0
N108 N 0.65353 0.53036 0.3729 0.0
C109 C 0.64143 0.48716 0.35425 0.0
C110 C 0.63964 0.49898 0.37002 0.0
C111 C 0.66448 0.53569 0.35867 0.0
N112 N 0.65702 0.51035 0.34707 0.0
O113 O 0.68037 0.50903 0.39683 0.0
H114 H 0.62939 0.48439 0.37906 0.0
H115 H 0.67861 0.5557 0.35693 0.0
O116 O 0.67991 0.5893 0.38784 0.0
C117 C 0.67343 0.47718 0.40377 0.0
O118 O 0.65243 0.47599 0.40885 0.0
N119 N 0.63333 0.58688 0.39218 0.0
C120 C 0.59598 0.63859 0.3902 0.0
C121 C 0.61714 0.653 0.39518 0.0
C122 C 0.63541 0.62651 0.39648 0.0
C123 C 0.61259 0.57208 0.38824 0.0
C124 C 0.59385 0.5973 0.38702 0.0
H125 H 0.65122 0.63793 0.40108 0.0
H126 H 0.61015 0.54031 0.38656 0.0
H127 H 0.69688 0.55989 0.4197 0.0
H128 H 0.6439 0.57925 0.45258 0.0
H129 H 0.6321 0.46304 0.34854 0.0
H130 H 0.61968 0.68444 0.39808 0.0
H131 H 0.57768 0.58414 0.38402 0.0
C132 C 0.65732 0.94682 0.94383 0.0
C133 C 0.66629 0.93933 0.95873 0.0
N134 N 0.68817 0.92929 0.95693 0.0
N135 N 0.67326 0.94104 0.93249 0.0
C136 C 0.69207 0.93084 0.94084 0.0
H137 H 0.64031 0.95691 0.94138 0.0
Co138 Co 0.66753 0.95267 0.91082 0.0
C139 C 0.68366 0.87972 0.89418 0.0
O140 O 0.66429 0.8785 0.88647 0.0
N141 N 0.66143 0.96833 0.88937 0.0
C142 C 0.6478 0.01149 0.87134 0.0
C143 C 0.64858 0.00141 0.8873 0.0
C144 C 0.66931 0.96009 0.87433 0.0
N145 N 0.66087 0.98557 0.86309 0.0
O146 O 0.69213 0.99 0.9107 0.0
H147 H 0.64054 0.01781 0.89698 0.0
H148 H 0.68193 0.93759 0.87168 0.0
O149 O 0.6877 0.90872 0.90395 0.0
C150 C 0.68775 0.02363 0.91738 0.0
O151 O 0.66813 0.02814 0.92455 0.0
N152 N 0.64218 0.91688 0.9114 0.0
C153 C 0.60408 0.86744 0.91513 0.0
C154 C 0.62546 0.85466 0.92031 0.0
C155 C 0.64418 0.87971 0.91837 0.0
C156 C 0.62139 0.93017 0.90673 0.0
C157 C 0.60233 0.90574 0.90813 0.0
H158 H 0.66031 0.86948 0.92287 0.0
H159 H 0.61908 0.96019 0.90227 0.0
H160 H 0.70831 0.92555 0.93526 0.0
H161 H 0.65757 0.94287 0.9701 0.0
H162 H 0.63832 0.03625 0.86627 0.0
H163 H 0.62775 0.82599 0.92625 0.0
H164 H 0.58632 0.91719 0.90386 0.0
C165 C 0.34545 0.52636 0.94463 0.0
C166 C 0.33573 0.52735 0.95959 0.0
N167 N 0.31587 0.54688 0.95849 0.0
N168 N 0.332 0.54539 0.93401 0.0
C169 C 0.31387 0.55731 0.94276 0.0
H170 H 0.3614 0.51245 0.94161 0.0
Co171 Co 0.34037 0.54972 0.9124 0.0
C172 C 0.32326 0.62833 0.90115 0.0
O173 O 0.34286 0.63344 0.89413 0.0
N174 N 0.34947 0.55236 0.89004 0.0
C175 C 0.36821 0.56487 0.8672 0.0
C176 C 0.36826 0.56925 0.88357 0.0
C177 C 0.33846 0.5374 0.87693 0.0
N178 N 0.34949 0.54488 0.86297 0.0
O179 O 0.31689 0.5125 0.90686 0.0
H180 H 0.38098 0.58607 0.8899 0.0
H181 H 0.32241 0.52198 0.87747 0.0
O182 O 0.31958 0.59608 0.90922 0.0
C183 C 0.32384 0.47646 0.90867 0.0
O184 O 0.34487 0.47087 0.91316 0.0
N185 N 0.36452 0.58282 0.91899 0.0
C186 C 0.40334 0.62566 0.92731 0.0
C187 C 0.38178 0.64204 0.93001 0.0
C188 C 0.36254 0.61978 0.92604 0.0
C189 C 0.38503 0.56431 0.91847 0.0
C190 C 0.40471 0.58555 0.92202 0.0
H191 H 0.34614 0.63243 0.92859 0.0
H192 H 0.3862 0.53366 0.91414 0.0
H193 H 0.29967 0.57355 0.93778 0.0
H194 H 0.34257 0.51398 0.97042 0.0
H195 H 0.38105 0.57568 0.859 0.0
H196 H 0.37972 0.67186 0.93505 0.0
H197 H 0.42078 0.57098 0.91992 0.0
C198 C 0.64008 0.02862 0.61469 0.0
C199 C 0.64651 0.02459 0.59882 0.0
N200 N 0.66842 0.03511 0.59753 0.0
N201 N 0.65778 0.04191 0.62337 0.0
C202 C 0.67484 0.04525 0.61263 0.0
H203 H 0.62354 0.02243 0.6196 0.0
Co204 Co 0.65793 0.05275 0.64543 0.0
C205 C 0.69904 0.1005 0.64961 0.0
O206 O 0.70513 0.07818 0.66191 0.0
N207 N 0.65806 0.06382 0.66773 0.0
C208 C 0.65765 0.09814 0.69072 0.0
C209 C 0.65761 0.10104 0.67425 0.0
C210 C 0.65825 0.03868 0.68058 0.0
N211 N 0.65799 0.0589 0.69478 0.0
O212 O 0.68014 0.01231 0.64816 0.0
H213 H 0.65743 0.12873 0.66742 0.0
H214 H 0.65826 0.00625 0.67955 0.0
O215 O 0.6808 0.09307 0.64209 0.0
C216 C 0.67148 0.9773 0.64814 0.0
O217 O 0.64938 0.97407 0.64766 0.0
N218 N 0.63505 0.0905 0.64252 0.0
C219 C 0.59799 0.14145 0.6396 0.0
C220 C 0.61866 0.15135 0.63236 0.0
C221 C 0.63702 0.1252 0.63384 0.0
C222 C 0.61503 0.08001 0.64934 0.0
C223 C 0.59631 0.10516 0.64812 0.0
H224 H 0.65267 0.13272 0.62789 0.0
H225 H 0.6137 0.05199 0.65589 0.0
H226 H 0.69157 0.05555 0.61581 0.0
H227 H 0.63588 0.01435 0.58904 0.0
H228 H 0.65778 0.1232 0.69905 0.0
H229 H 0.62053 0.17872 0.62542 0.0
H230 H 0.58074 0.09648 0.654 0.0
C231 C 0.34273 0.4761 0.61843 0.0
C232 C 0.33618 0.48109 0.6026 0.0
N233 N 0.31573 0.46393 0.60058 0.0
N234 N 0.3266 0.45552 0.62633 0.0
C235 C 0.31037 0.44878 0.6152 0.0
H236 H 0.35807 0.48724 0.6239 0.0
Co237 Co 0.32522 0.44245 0.64819 0.0
C238 C 0.31188 0.3577 0.64804 0.0
O239 O 0.32828 0.35096 0.65837 0.0
N240 N 0.32232 0.43021 0.67067 0.0
C241 C 0.30409 0.41216 0.69307 0.0
C242 C 0.30337 0.41297 0.67662 0.0
C243 C 0.33368 0.44189 0.68413 0.0
N244 N 0.32313 0.43042 0.69787 0.0
O245 O 0.29834 0.47307 0.64967 0.0
H246 H 0.28903 0.4036 0.66951 0.0
H247 H 0.34857 0.46053 0.68407 0.0
O248 O 0.30825 0.39341 0.64289 0.0
C249 C 0.30286 0.50732 0.65569 0.0
O250 O 0.32353 0.51424 0.66073 0.0
N251 N 0.35311 0.41499 0.64624 0.0
C252 C 0.39524 0.37808 0.64312 0.0
C253 C 0.37732 0.36737 0.63297 0.0
C254 C 0.35658 0.38678 0.63448 0.0
C255 C 0.37093 0.4284 0.65513 0.0
C256 C 0.39201 0.40977 0.65405 0.0
H257 H 0.34326 0.37904 0.62614 0.0
H258 H 0.36909 0.4544 0.66274 0.0
H259 H 0.2948 0.43321 0.61786 0.0
H260 H 0.34553 0.49711 0.59344 0.0
H261 H 0.29082 0.4015 0.70095 0.0
H262 H 0.37936 0.34451 0.62377 0.0
H263 H 0.40557 0.42003 0.66178 0.0
C264 C 0.84722 0.53487 0.59708 0.0
C265 C 0.84157 0.53665 0.58098 0.0
N266 N 0.82005 0.54962 0.57972 0.0
N267 N 0.82941 0.54693 0.60595 0.0
C268 C 0.81318 0.55571 0.59507 0.0
H269 H 0.86304 0.52437 0.60203 0.0
Co270 Co 0.82623 0.54678 0.6284 0.0
C271 C 0.81011 0.6278 0.63589 0.0
O272 O 0.82539 0.62881 0.64738 0.0
N273 N 0.82158 0.54584 0.6512 0.0
C274 C 0.80007 0.54866 0.67322 0.0
C275 C 0.80064 0.55354 0.65692 0.0
C276 C 0.83336 0.53496 0.6646 0.0
N277 N 0.82057 0.53659 0.67817 0.0
O278 O 0.79997 0.51375 0.62627 0.0
H279 H 0.78626 0.56168 0.64959 0.0
H280 H 0.85052 0.52423 0.66451 0.0
O281 O 0.80804 0.59633 0.62709 0.0
C282 C 0.80426 0.4779 0.62182 0.0
O283 O 0.82518 0.46796 0.61839 0.0
N284 N 0.85333 0.57648 0.63003 0.0
C285 C 0.89562 0.61375 0.63006 0.0
C286 C 0.8774 0.63073 0.62171 0.0
C287 C 0.85658 0.6113 0.62158 0.0
C288 C 0.87123 0.55809 0.63723 0.0
C289 C 0.89239 0.57662 0.63775 0.0
H290 H 0.84326 0.62372 0.61423 0.0
H291 H 0.86942 0.52807 0.64197 0.0
H292 H 0.79646 0.56562 0.59845 0.0
H293 H 0.85224 0.52751 0.57106 0.0
H294 H 0.78546 0.55341 0.6808 0.0
H295 H 0.87935 0.65815 0.61482 0.0
H296 H 0.90612 0.56168 0.64394 0.0
C297 C 0.14433 0.95926 0.59675 0.0
C298 C 0.1522 0.96192 0.58117 0.0
N299 N 0.17361 0.94797 0.58069 0.0
N300 N 0.16061 0.94364 0.60615 0.0
C301 C 0.17823 0.93723 0.59609 0.0
H302 H 0.12787 0.96847 0.60101 0.0
Co303 Co 0.15893 0.9352 0.6284 0.0
C304 C 0.19984 0.88939 0.6345 0.0
O305 O 0.20645 0.91739 0.64464 0.0
N306 N 0.15765 0.9262 0.65094 0.0
C307 C 0.15727 0.89268 0.67412 0.0
C308 C 0.15556 0.88945 0.65771 0.0
C309 C 0.1605 0.95144 0.66365 0.0
N310 N 0.16055 0.93163 0.67793 0.0
O311 O 0.18117 0.97533 0.63132 0.0
H312 H 0.15357 0.86165 0.65108 0.0
H313 H 0.16338 0.98342 0.66245 0.0
O314 O 0.18137 0.89356 0.62685 0.0
C315 C 0.17276 0.01049 0.6308 0.0
O316 O 0.15079 0.01424 0.62917 0.0
N317 N 0.13582 0.89802 0.62521 0.0
C318 C 0.09885 0.8468 0.62234 0.0
C319 C 0.11952 0.83713 0.61501 0.0
C320 C 0.13783 0.86336 0.6165 0.0
C321 C 0.11573 0.90864 0.63191 0.0
C322 C 0.0971 0.88328 0.6308 0.0
H323 H 0.15352 0.85596 0.61058 0.0
H324 H 0.11434 0.93671 0.63845 0.0
H325 H 0.19415 0.9249 0.60007 0.0
H326 H 0.14284 0.97396 0.57108 0.0
H327 H 0.15631 0.86803 0.6826 0.0
H328 H 0.12147 0.80979 0.60804 0.0
H329 H 0.0816 0.89192 0.63678 0.0
C330 C 0.85469 0.47812 0.92443 0.0
C331 C 0.84809 0.48113 0.94028 0.0
N332 N 0.82673 0.46753 0.94153 0.0
N333 N 0.83765 0.46249 0.9157 0.0
C334 C 0.82077 0.45666 0.92641 0.0
H335 H 0.871 0.48626 0.91957 0.0
Co336 Co 0.83895 0.45044 0.89376 0.0
C337 C 0.79833 0.40123 0.889 0.0
O338 O 0.792 0.42468 0.87709 0.0
N339 N 0.8405 0.4381 0.87166 0.0
C340 C 0.84389 0.4023 0.84918 0.0
C341 C 0.84126 0.40046 0.86556 0.0
C342 C 0.84274 0.46243 0.85868 0.0
N343 N 0.84493 0.44126 0.8448 0.0
O344 O 0.81621 0.49021 0.88982 0.0
H345 H 0.84027 0.37321 0.87264 0.0
H346 H 0.84334 0.49491 0.85943 0.0
O347 O 0.81645 0.40888 0.89667 0.0
C348 C 0.82388 0.52599 0.89039 0.0
O349 O 0.84567 0.53109 0.89254 0.0
N350 N 0.86219 0.41373 0.89783 0.0
C351 C 0.89972 0.36489 0.9034 0.0
C352 C 0.87883 0.35626 0.91064 0.0
C353 C 0.86025 0.38116 0.90774 0.0
C354 C 0.88234 0.423 0.89091 0.0
C355 C 0.90122 0.39874 0.89334 0.0
H356 H 0.84448 0.37473 0.91373 0.0
H357 H 0.88372 0.44943 0.88338 0.0
H358 H 0.8046 0.44375 0.92325 0.0
H359 H 0.85824 0.49259 0.9501 0.0
H360 H 0.84479 0.37678 0.84109 0.0
H361 H 0.87693 0.33104 0.91877 0.0
H362 H 0.9168 0.40644 0.88729 0.0
C363 C 0.15772 0.02064 0.92402 0.0
C364 C 0.16564 0.02206 0.93953 0.0
N365 N 0.18385 0.04629 0.93994 0.0
N366 N 0.17074 0.04387 0.91455 0.0
C367 C 0.18672 0.05899 0.92455 0.0
H368 H 0.1432 0.00387 0.91987 0.0
Co369 Co 0.16406 0.04998 0.89272 0.0
C370 C 0.18541 0.12628 0.88217 0.0
O371 O 0.1681 0.13226 0.87263 0.0
N372 N 0.15654 0.05446 0.87012 0.0
C373 C 0.13888 0.06932 0.84709 0.0
C374 C 0.13795 0.07168 0.86351 0.0
C375 C 0.16834 0.04126 0.85705 0.0
N376 N 0.15797 0.0503 0.84294 0.0
O377 O 0.18695 0.01116 0.88781 0.0
H378 H 0.12469 0.08712 0.86983 0.0
H379 H 0.18445 0.02606 0.85776 0.0
O380 O 0.18614 0.0945 0.8909 0.0
C381 C 0.17884 0.97565 0.88832 0.0
O382 O 0.15694 0.97159 0.89024 0.0
N383 N 0.14047 0.08478 0.89874 0.0
C384 C 0.10202 0.12818 0.9076 0.0
C385 C 0.12367 0.1449 0.90939 0.0
C386 C 0.14272 0.12244 0.90514 0.0
C387 C 0.11988 0.06654 0.89861 0.0
C388 C 0.10039 0.08798 0.90249 0.0
H389 H 0.15915 0.13528 0.90731 0.0
H390 H 0.11852 0.03567 0.89458 0.0
H391 H 0.1999 0.0794 0.92074 0.0
H392 H 0.15864 0.00605 0.94971 0.0
H393 H 0.12636 0.0808 0.83877 0.0
H394 H 0.12594 0.17495 0.91416 0.0
H395 H 0.08421 0.07335 0.90097 0.0
C396 C 0.14298 0.4663 0.44503 0.0
C397 C 0.15163 0.47074 0.46033 0.0
N398 N 0.17336 0.45862 0.46024 0.0
N399 N 0.15909 0.45115 0.43532 0.0
C400 C 0.17746 0.4471 0.44487 0.0
H401 H 0.126 0.47347 0.44121 0.0
Co402 Co 0.15556 0.43908 0.41348 0.0
C403 C 0.19464 0.38977 0.40608 0.0
O404 O 0.19912 0.4138 0.39394 0.0
N405 N 0.15211 0.42669 0.39128 0.0
C406 C 0.1489 0.39052 0.36883 0.0
C407 C 0.14866 0.38934 0.38534 0.0
C408 C 0.15421 0.45017 0.378 0.0
N409 N 0.15256 0.42875 0.36415 0.0
O410 O 0.17806 0.47782 0.40855 0.0
H411 H 0.14677 0.36253 0.39258 0.0
H412 H 0.15778 0.48204 0.37845 0.0
O413 O 0.17788 0.39693 0.41524 0.0
C414 C 0.1701 0.51335 0.40814 0.0
O415 O 0.14838 0.51844 0.41061 0.0
N416 N 0.13237 0.40325 0.4186 0.0
C417 C 0.095 0.3548 0.42511 0.0
C418 C 0.11626 0.3458 0.43174 0.0
C419 C 0.13478 0.37049 0.42835 0.0
C420 C 0.11181 0.41323 0.41249 0.0
C421 C 0.093 0.38915 0.41537 0.0
H422 H 0.15093 0.36357 0.43372 0.0
H423 H 0.11012 0.43984 0.40509 0.0
H424 H 0.19345 0.43536 0.44068 0.0
H425 H 0.14264 0.48245 0.47066 0.0
H426 H 0.14671 0.36496 0.36089 0.0
H427 H 0.11857 0.32024 0.43964 0.0
H428 H 0.07714 0.39721 0.40978 0.0
C429 C 0.83668 0.01638 0.44133 0.0
C430 C 0.82776 0.01639 0.45657 0.0
N431 N 0.80814 0.03694 0.45635 0.0
N432 N 0.82292 0.03692 0.4314 0.0
C433 C 0.80551 0.04891 0.44084 0.0
H434 H 0.85222 0.00202 0.43765 0.0
Co435 Co 0.82962 0.04285 0.40955 0.0
C436 C 0.81131 0.12189 0.3999 0.0
O437 O 0.82981 0.12746 0.39155 0.0
N438 N 0.83683 0.04719 0.38689 0.0
C439 C 0.85328 0.06142 0.36332 0.0
C440 C 0.85506 0.06427 0.37972 0.0
C441 C 0.82444 0.03353 0.37419 0.0
N442 N 0.83407 0.04202 0.35982 0.0
O443 O 0.80571 0.00636 0.40449 0.0
H444 H 0.86853 0.08007 0.38569 0.0
H445 H 0.80839 0.01835 0.3753 0.0
O446 O 0.80879 0.08926 0.40792 0.0
C447 C 0.81276 0.9702 0.40533 0.0
O448 O 0.83405 0.96407 0.40906 0.0
N449 N 0.85423 0.07544 0.41554 0.0
C450 C 0.8935 0.11603 0.42468 0.0
C451 C 0.87211 0.13276 0.42766 0.0
C452 C 0.85266 0.11165 0.42326 0.0
C453 C 0.87466 0.05689 0.41416 0.0
C454 C 0.89453 0.07704 0.41818 0.0
H455 H 0.83643 0.12424 0.42631 0.0
H456 H 0.87554 0.02683 0.40918 0.0
H457 H 0.7913 0.06619 0.43647 0.0
H458 H 0.83498 0.0015 0.46695 0.0
H459 H 0.86524 0.07279 0.35458 0.0
H460 H 0.87035 0.16173 0.43349 0.0
H461 H 0.9105 0.06243 0.41576 0.0
C462 C 0.15471 0.52045 0.11934 0.0
C463 C 0.16037 0.51838 0.10327 0.0
N464 N 0.18106 0.53463 0.10129 0.0
N465 N 0.17168 0.53796 0.12754 0.0
C466 C 0.18754 0.54603 0.11626 0.0
H467 H 0.13915 0.51011 0.12473 0.0
Co468 Co 0.17178 0.54859 0.14967 0.0
C469 C 0.21357 0.59621 0.15225 0.0
O470 O 0.22255 0.56868 0.16161 0.0
N471 N 0.17191 0.55966 0.17196 0.0
C472 C 0.17146 0.59488 0.19472 0.0
C473 C 0.17302 0.59703 0.17829 0.0
C474 C 0.16953 0.53517 0.1849 0.0
N475 N 0.16912 0.556 0.19898 0.0
O476 O 0.19472 0.50839 0.15237 0.0
H477 H 0.17445 0.62442 0.17134 0.0
H478 H 0.16749 0.50291 0.18397 0.0
O479 O 0.19382 0.59098 0.14652 0.0
C480 C 0.1866 0.47289 0.15193 0.0
O481 O 0.16459 0.46869 0.15088 0.0
N482 N 0.14811 0.58525 0.14683 0.0
C483 C 0.10981 0.63314 0.14255 0.0
C484 C 0.12996 0.64169 0.13429 0.0
C485 C 0.14893 0.61727 0.13656 0.0
C486 C 0.12868 0.57611 0.15477 0.0
C487 C 0.10946 0.59992 0.15299 0.0
H488 H 0.16404 0.6234 0.12972 0.0
H489 H 0.12809 0.55 0.16252 0.0
H490 H 0.20338 0.56069 0.11896 0.0
H491 H 0.15003 0.50557 0.09384 0.0
H492 H 0.17206 0.62023 0.2029 0.0
H493 H 0.13094 0.66638 0.12583 0.0
H494 H 0.09449 0.59228 0.1598 0.0
C495 C 0.85257 0.97421 0.11392 0.0
C496 C 0.84533 0.97195 0.09824 0.0
N497 N 0.82655 0.94907 0.0977 0.0
N498 N 0.83855 0.95289 0.12336 0.0
C499 C 0.82274 0.938 0.11319 0.0
H500 H 0.86706 0.99078 0.11825 0.0
Co501 Co 0.84261 0.94991 0.14557 0.0
C502 C 0.82115 0.87437 0.15636 0.0
O503 O 0.8379 0.86995 0.16654 0.0
N504 N 0.84702 0.94861 0.16854 0.0
C505 C 0.8608 0.93871 0.19331 0.0
C506 C 0.86514 0.93576 0.17714 0.0
C507 C 0.83198 0.95982 0.1801 0.0
N508 N 0.84003 0.95389 0.19514 0.0
O509 O 0.81898 0.98876 0.1482 0.0
H510 H 0.88044 0.92313 0.17236 0.0
H511 H 0.81523 0.97117 0.17763 0.0
O512 O 0.82069 0.90516 0.14707 0.0
C513 C 0.82673 0.02454 0.14792 0.0
O514 O 0.84871 0.02937 0.14703 0.0
N515 N 0.86708 0.91477 0.14184 0.0
C516 C 0.90638 0.87044 0.13602 0.0
C517 C 0.88499 0.85379 0.13301 0.0
C518 C 0.86556 0.87671 0.1357 0.0
C519 C 0.88765 0.93286 0.14306 0.0
C520 C 0.9075 0.911 0.14072 0.0
H521 H 0.84945 0.86391 0.13251 0.0
H522 H 0.88861 0.9641 0.14668 0.0
H523 H 0.80878 0.91943 0.11706 0.0
H524 H 0.85308 0.98698 0.0881 0.0
H525 H 0.87197 0.93008 0.20303 0.0
H526 H 0.88322 0.82345 0.12842 0.0
H527 H 0.92349 0.92564 0.14303 0.0
H528 H 0.28595 0.96277 0.13139 0.0
H529 H 0.2642 0.90033 0.13419 0.0
H530 H 0.32482 0.83716 0.148 0.0
H531 H 0.34656 0.89877 0.14478 0.0
H532 H 0.30359 0.79474 0.12678 0.0
H533 H 0.2821 0.86345 0.17537 0.0
H534 H 0.26697 0.91949 0.1916 0.0
H535 H 0.20323 0.90946 0.16732 0.0
H536 H 0.2181 0.85368 0.15078 0.0
H537 H 0.25705 0.61603 0.16009 0.0
H538 H 0.27554 0.68142 0.15701 0.0
H539 H 0.21476 0.7303 0.13621 0.0
H540 H 0.19616 0.66515 0.13923 0.0
H541 H 0.23418 0.78054 0.15966 0.0
H542 H 0.25639 0.70502 0.11303 0.0
H543 H 0.27225 0.64569 0.0993 0.0
H544 H 0.33661 0.66761 0.12133 0.0
H545 H 0.32085 0.7259 0.13589 0.0
C546 C 0.29453 0.93562 0.1352 0.0
C547 C 0.31796 0.93565 0.13781 0.0
C548 C 0.2821 0.89994 0.13681 0.0
C549 C 0.29285 0.8639 0.14134 0.0
C550 C 0.31614 0.86436 0.14436 0.0
C551 C 0.32855 0.89973 0.14257 0.0
C552 C 0.28021 0.82527 0.1425 0.0
C553 C 0.28855 0.79161 0.13412 0.0
C554 C 0.26028 0.82122 0.15178 0.0
C555 C 0.25129 0.8547 0.16171 0.0
C556 C 0.26492 0.87341 0.1734 0.0
C557 C 0.25638 0.90509 0.18267 0.0
C558 C 0.23417 0.91811 0.18046 0.0
C559 C 0.22044 0.8994 0.169 0.0
C560 C 0.22891 0.86774 0.15968 0.0
C561 C 0.24764 0.64062 0.1548 0.0
C562 C 0.22517 0.63523 0.14981 0.0
C563 C 0.25822 0.67798 0.15306 0.0
C564 C 0.24653 0.71067 0.14634 0.0
C565 C 0.22407 0.70548 0.14145 0.0
C566 C 0.21353 0.66809 0.14307 0.0
C567 C 0.25786 0.75012 0.1442 0.0
C568 C 0.24919 0.78385 0.1523 0.0
C569 C 0.27768 0.75413 0.13484 0.0
C570 C 0.28735 0.71971 0.1257 0.0
C571 C 0.27386 0.69702 0.11509 0.0
C572 C 0.28284 0.66355 0.10715 0.0
C573 C 0.30544 0.65302 0.10936 0.0
C574 C 0.3191 0.67582 0.11961 0.0
C575 C 0.31012 0.70899 0.12777 0.0
H576 H 0.31237 0.62717 0.10315 0.0
H577 H 0.22759 0.94263 0.18765 0.0
H578 H 0.67663 0.59958 0.12002 0.0
H579 H 0.70087 0.6581 0.12374 0.0
H580 H 0.74626 0.58739 0.15282 0.0
H581 H 0.72201 0.528 0.14897 0.0
H582 H 0.73314 0.66324 0.16656 0.0
H583 H 0.76276 0.61067 0.11706 0.0
H584 H 0.76091 0.58522 0.08919 0.0
H585 H 0.73298 0.69768 0.07343 0.0
H586 H 0.73431 0.72362 0.10127 0.0
H587 H 0.82175 0.80256 0.172 0.0
H588 H 0.79793 0.74434 0.16754 0.0
H589 H 0.76029 0.80966 0.13158 0.0
H590 H 0.78486 0.86836 0.13562 0.0
H591 H 0.76893 0.73635 0.12118 0.0
H592 H 0.73858 0.78955 0.16994 0.0
H593 H 0.73906 0.81599 0.1977 0.0
H594 H 0.76614 0.70408 0.21481 0.0
H595 H 0.76616 0.67716 0.18711 0.0
C596 C 0.69181 0.59631 0.12717 0.0
C597 C 0.69741 0.55917 0.13424 0.0
C598 C 0.7057 0.62979 0.12921 0.0
C599 C 0.7254 0.62704 0.13847 0.0
C600 C 0.73112 0.59004 0.14558 0.0
C601 C 0.71734 0.55618 0.14334 0.0
C602 C 0.73948 0.66336 0.14105 0.0
C603 C 0.74132 0.67892 0.1567 0.0
C604 C 0.74934 0.68454 0.12806 0.0
C605 C 0.74844 0.66896 0.1113 0.0
C606 C 0.75601 0.62985 0.10769 0.0
C607 C 0.75509 0.61536 0.09189 0.0
C608 C 0.7468 0.6398 0.07955 0.0
C609 C 0.73939 0.67878 0.083 0.0
C610 C 0.74023 0.6934 0.09879 0.0
C611 C 0.80833 0.80493 0.16319 0.0
C612 C 0.8052 0.84036 0.1542 0.0
C613 C 0.79459 0.77146 0.16072 0.0
C614 C 0.77702 0.77266 0.14942 0.0
C615 C 0.77369 0.80805 0.14043 0.0
C616 C 0.78766 0.84164 0.1428 0.0
C617 C 0.76276 0.73636 0.14676 0.0
C618 C 0.7608 0.7208 0.13108 0.0
C619 C 0.75255 0.71537 0.15971 0.0
C620 C 0.75256 0.73147 0.17641 0.0
C621 C 0.74481 0.77068 0.1796 0.0
C622 C 0.74497 0.78574 0.19533 0.0
C623 C 0.75268 0.76177 0.208 0.0
C624 C 0.7602 0.72264 0.20497 0.0
C625 C 0.76012 0.70745 0.18926 0.0
H626 H 0.75278 0.77348 0.22017 0.0
H627 H 0.7462 0.62859 0.06732 0.0
H628 H 0.30687 0.06534 0.42815 0.0
H629 H 0.28396 0.12643 0.43059 0.0
H630 H 0.24545 0.091 0.38887 0.0
H631 H 0.26789 0.02907 0.38663 0.0
H632 H 0.27471 0.17262 0.39082 0.0
H633 H 0.21589 0.09105 0.41581 0.0
H634 H 0.2023 0.04359 0.43644 0.0
H635 H 0.2212 0.12647 0.47378 0.0
H636 H 0.23527 0.1742 0.45336 0.0
H637 H 0.20555 0.34084 0.3813 0.0
H638 H 0.22129 0.2732 0.38269 0.0
H639 H 0.22532 0.28283 0.43452 0.0
H640 H 0.2077 0.3496 0.43313 0.0
H641 H 0.21373 0.21238 0.42856 0.0
H642 H 0.27328 0.29202 0.40756 0.0
H643 H 0.29229 0.34088 0.38983 0.0
H644 H 0.27938 0.2652 0.3489 0.0
H645 H 0.26004 0.2161 0.36636 0.0
C646 C 0.29314 0.07013 0.41975 0.0
C647 C 0.28914 0.04275 0.40716 0.0
C648 C 0.28007 0.10486 0.4212 0.0
C649 C 0.26308 0.11293 0.40993 0.0
C650 C 0.25842 0.08489 0.39773 0.0
C651 C 0.27117 0.04963 0.39649 0.0
C652 C 0.25242 0.15298 0.40966 0.0
C653 C 0.26108 0.1813 0.39884 0.0
C654 C 0.23564 0.16447 0.4208 0.0
C655 C 0.22688 0.13601 0.43305 0.0
C656 C 0.21737 0.099 0.42842 0.0
C657 C 0.20953 0.07208 0.44008 0.0
C658 C 0.21096 0.08195 0.45642 0.0
C659 C 0.22014 0.11884 0.46112 0.0
C660 C 0.22803 0.14585 0.44951 0.0
C661 C 0.21003 0.3286 0.39296 0.0
C662 C 0.20588 0.35048 0.4071 0.0
C663 C 0.2191 0.28997 0.39377 0.0
C664 C 0.22516 0.27311 0.40868 0.0
C665 C 0.22092 0.2951 0.42286 0.0
C666 C 0.21106 0.33331 0.42208 0.0
C667 C 0.23565 0.23245 0.40938 0.0
C668 C 0.22723 0.20399 0.4204 0.0
C669 C 0.25336 0.22113 0.39881 0.0
C670 C 0.26503 0.25055 0.38826 0.0
C671 C 0.27436 0.28592 0.39476 0.0
C672 C 0.28521 0.31364 0.38476 0.0
C673 C 0.28699 0.30619 0.36824 0.0
C674 C 0.27797 0.27095 0.3617 0.0
C675 C 0.26708 0.24314 0.37164 0.0
H676 H 0.2954 0.32769 0.36052 0.0
H677 H 0.2049 0.06106 0.46542 0.0
H678 H 0.77194 0.12656 0.4177 0.0
H679 H 0.74725 0.18566 0.42078 0.0
H680 H 0.79033 0.25322 0.38888 0.0
H681 H 0.81472 0.19512 0.38567 0.0
H682 H 0.78004 0.2954 0.4164 0.0
H683 H 0.74152 0.21712 0.37545 0.0
H684 H 0.7228 0.15641 0.3648 0.0
H685 H 0.67367 0.16239 0.40275 0.0
H686 H 0.69231 0.22289 0.41375 0.0
H687 H 0.7159 0.46451 0.3915 0.0
H688 H 0.73844 0.40286 0.39321 0.0
H689 H 0.68631 0.34698 0.42172 0.0
H690 H 0.66361 0.40799 0.41984 0.0
H691 H 0.69994 0.29687 0.39908 0.0
H692 H 0.73592 0.37826 0.43881 0.0
H693 H 0.75429 0.43892 0.44979 0.0
H694 H 0.80793 0.42685 0.41535 0.0
H695 H 0.78969 0.36644 0.40399 0.0
C696 C 0.77602 0.15396 0.41129 0.0
C697 C 0.79532 0.15602 0.40146 0.0
C698 C 0.76195 0.18767 0.41307 0.0
C699 C 0.76704 0.22388 0.40509 0.0
C700 C 0.78617 0.22575 0.39524 0.0
C701 C 0.80006 0.19227 0.39338 0.0
C702 C 0.75265 0.2602 0.40679 0.0
C703 C 0.76255 0.29582 0.41254 0.0
C704 C 0.72969 0.26046 0.40217 0.0
C705 C 0.71846 0.22421 0.39553 0.0
C706 C 0.72684 0.20528 0.38161 0.0
C707 C 0.71622 0.17095 0.37549 0.0
C708 C 0.6971 0.15547 0.38313 0.0
C709 C 0.68852 0.17437 0.39687 0.0
C710 C 0.69909 0.20868 0.40305 0.0
C711 C 0.70934 0.4392 0.39824 0.0
C712 C 0.68796 0.44118 0.40552 0.0
C713 C 0.72225 0.40399 0.39925 0.0
C714 C 0.71413 0.3703 0.4077 0.0
C715 C 0.69291 0.37247 0.41511 0.0
C716 C 0.67999 0.4075 0.41406 0.0
C717 C 0.72745 0.3324 0.40843 0.0
C718 C 0.71735 0.29647 0.40314 0.0
C719 C 0.75021 0.33181 0.41359 0.0
C720 C 0.76133 0.36799 0.42045 0.0
C721 C 0.75155 0.3887 0.43349 0.0
C722 C 0.76195 0.42302 0.4398 0.0
C723 C 0.78224 0.43677 0.43325 0.0
C724 C 0.7922 0.41617 0.42041 0.0
C725 C 0.78185 0.38187 0.41403 0.0
H726 H 0.79026 0.46335 0.43815 0.0
H727 H 0.6889 0.1289 0.37837 0.0
H728 H 0.68428 0.09569 0.93268 0.0
H729 H 0.70541 0.15704 0.92729 0.0
H730 H 0.74627 0.09381 0.89253 0.0
H731 H 0.72512 0.03168 0.89793 0.0
H732 H 0.7712 0.14922 0.91074 0.0
H733 H 0.70467 0.14679 0.87878 0.0
H734 H 0.66407 0.13818 0.87331 0.0
H735 H 0.64877 0.23678 0.90495 0.0
H736 H 0.68929 0.24551 0.91084 0.0
H737 H 0.76943 0.36118 0.86895 0.0
H738 H 0.75287 0.29461 0.873 0.0
H739 H 0.78329 0.28849 0.92018 0.0
H740 H 0.80059 0.35434 0.91592 0.0
H741 H 0.72417 0.26403 0.89242 0.0
H742 H 0.79685 0.19362 0.93002 0.0
H743 H 0.83806 0.20123 0.93299 0.0
H744 H 0.84272 0.24543 0.88453 0.0
H745 H 0.80161 0.23747 0.88118 0.0
C746 C 0.69794 0.09453 0.92402 0.0
C747 C 0.70285 0.05886 0.9156 0.0
C748 C 0.70999 0.12972 0.92095 0.0
C749 C 0.72715 0.13016 0.90932 0.0
C750 C 0.73303 0.09411 0.90152 0.0
C751 C 0.72093 0.05868 0.90461 0.0
C752 C 0.73768 0.16899 0.90467 0.0
C753 C 0.76098 0.17434 0.90671 0.0
C754 C 0.72441 0.20142 0.89897 0.0
C755 C 0.70002 0.19659 0.89535 0.0
C756 C 0.69264 0.16645 0.88466 0.0
C757 C 0.66964 0.16156 0.88148 0.0
C758 C 0.65385 0.18687 0.8888 0.0
C759 C 0.66103 0.21717 0.8993 0.0
C760 C 0.68401 0.22212 0.90256 0.0
C761 C 0.77247 0.34575 0.88023 0.0
C762 C 0.78643 0.36289 0.89208 0.0
C763 C 0.76301 0.30763 0.88253 0.0
C764 C 0.76717 0.28604 0.89677 0.0
C765 C 0.78033 0.30395 0.9089 0.0
C766 C 0.79008 0.34176 0.9065 0.0
C767 C 0.7577 0.2449 0.89893 0.0
C768 C 0.73452 0.23901 0.89639 0.0
C769 C 0.77124 0.21176 0.90371 0.0
C770 C 0.79611 0.21525 0.90541 0.0
C771 C 0.80669 0.20467 0.91996 0.0
C772 C 0.83003 0.20911 0.92171 0.0
C773 C 0.84299 0.22393 0.90897 0.0
C774 C 0.83266 0.23407 0.89441 0.0
C775 C 0.80934 0.2296 0.89257 0.0
H776 H 0.86104 0.22751 0.91038 0.0
H777 H 0.63605 0.18306 0.88632 0.0
H778 H 0.33215 0.39958 0.91785 0.0
H779 H 0.309 0.3402 0.91354 0.0
H780 H 0.25899 0.41257 0.88933 0.0
H781 H 0.28207 0.47296 0.89404 0.0
H782 H 0.23902 0.35942 0.90847 0.0
H783 H 0.29612 0.35196 0.86816 0.0
H784 H 0.33478 0.35267 0.85721 0.0
H785 H 0.35172 0.24935 0.88576 0.0
H786 H 0.31323 0.24837 0.89707 0.0
H787 H 0.1839 0.20032 0.86831 0.0
H788 H 0.20805 0.25797 0.87349 0.0
H789 H 0.24798 0.18732 0.90637 0.0
H790 H 0.22345 0.12881 0.90142 0.0
H791 H 0.27306 0.23841 0.88311 0.0
H792 H 0.21388 0.24676 0.92266 0.0
H793 H 0.1742 0.24623 0.93158 0.0
H794 H 0.16027 0.34914 0.90199 0.0
H795 H 0.1998 0.34984 0.89266 0.0
C796 C 0.31624 0.40306 0.91158 0.0
C797 C 0.30904 0.44103 0.90616 0.0
C798 C 0.30304 0.36891 0.90907 0.0
C799 C 0.28245 0.37162 0.90081 0.0
C800 C 0.27489 0.40966 0.89566 0.0
C801 C 0.28808 0.44413 0.89833 0.0
C802 C 0.26899 0.33459 0.89763 0.0
C803 C 0.24642 0.3332 0.90274 0.0
C804 C 0.27869 0.29995 0.8904 0.0
C805 C 0.30184 0.30033 0.88358 0.0
C806 C 0.30814 0.32957 0.8722 0.0
C807 C 0.33002 0.32999 0.86591 0.0
C808 C 0.34572 0.30113 0.87082 0.0
C809 C 0.33955 0.27172 0.88199 0.0
C810 C 0.31769 0.27119 0.88833 0.0
C811 C 0.19786 0.19665 0.8766 0.0
C812 C 0.20163 0.15982 0.88453 0.0
C813 C 0.21163 0.22983 0.87955 0.0
C814 C 0.22963 0.22704 0.89041 0.0
C815 C 0.23408 0.19004 0.89796 0.0
C816 C 0.22007 0.1567 0.89514 0.0
C817 C 0.24327 0.26338 0.89402 0.0
C818 C 0.2658 0.26464 0.88893 0.0
C819 C 0.23346 0.29805 0.90104 0.0
C820 C 0.20977 0.29813 0.90685 0.0
C821 C 0.20232 0.26909 0.91796 0.0
C822 C 0.17986 0.26878 0.9231 0.0
C823 C 0.16471 0.29757 0.91733 0.0
C824 C 0.17202 0.32682 0.90644 0.0
C825 C 0.19445 0.32721 0.90123 0.0
H826 H 0.14732 0.29727 0.92132 0.0
H827 H 0.36265 0.3015 0.86593 0.0
H828 H 0.71763 0.97202 0.64921 0.0
H829 H 0.74066 0.91178 0.64489 0.0
H830 H 0.68025 0.84085 0.63885 0.0
H831 H 0.65724 0.90036 0.64363 0.0
H832 H 0.70904 0.80102 0.65613 0.0
H833 H 0.7119 0.87245 0.60648 0.0
H834 H 0.71778 0.93154 0.58905 0.0
H835 H 0.78767 0.93518 0.60261 0.0
H836 H 0.78212 0.87656 0.62038 0.0
H837 H 0.76717 0.63132 0.62379 0.0
H838 H 0.74268 0.69105 0.62269 0.0
H839 H 0.79726 0.76442 0.64055 0.0
H840 H 0.82151 0.70511 0.64199 0.0
H841 H 0.76983 0.80094 0.61499 0.0
H842 H 0.76407 0.73254 0.66685 0.0
H843 H 0.75699 0.67289 0.68374 0.0
H844 H 0.69022 0.66256 0.66406 0.0
H845 H 0.69708 0.72183 0.64684 0.0
C846 C 0.70929 0.94351 0.6471 0.0
C847 C 0.68564 0.94096 0.64671 0.0
C848 C 0.72245 0.90918 0.64451 0.0
C849 C 0.71216 0.87195 0.64125 0.0
C850 C 0.68855 0.86925 0.64129 0.0
C851 C 0.67543 0.90337 0.64402 0.0
C852 C 0.72591 0.8357 0.63779 0.0
C853 C 0.72206 0.80091 0.64694 0.0
C854 C 0.74298 0.83553 0.62584 0.0
C855 C 0.74654 0.87027 0.61488 0.0
C856 C 0.7285 0.88598 0.60582 0.0
C857 C 0.73177 0.9194 0.59588 0.0
C858 C 0.75307 0.93715 0.59475 0.0
C859 C 0.77117 0.92142 0.60352 0.0
C860 C 0.76797 0.88808 0.61352 0.0
C861 C 0.77397 0.66034 0.62721 0.0
C862 C 0.79606 0.66367 0.63317 0.0
C863 C 0.76004 0.69432 0.62657 0.0
C864 C 0.76823 0.73197 0.63159 0.0
C865 C 0.7907 0.73563 0.63658 0.0
C866 C 0.80444 0.7017 0.63752 0.0
C867 C 0.75292 0.76675 0.63339 0.0
C868 C 0.75655 0.80118 0.62399 0.0
C869 C 0.7354 0.76651 0.64493 0.0
C870 C 0.73118 0.73127 0.65543 0.0
C871 C 0.74796 0.71733 0.66603 0.0
C872 C 0.74397 0.68364 0.67567 0.0
C873 C 0.72319 0.66387 0.67494 0.0
C874 C 0.70632 0.67785 0.66459 0.0
C875 C 0.71025 0.71149 0.65489 0.0
H876 H 0.72014 0.63778 0.68241 0.0
H877 H 0.75556 0.96304 0.58706 0.0
H878 H 0.23404 0.86362 0.65394 0.0
H879 H 0.24981 0.79597 0.65547 0.0
H880 H 0.20773 0.75852 0.61577 0.0
H881 H 0.19162 0.82611 0.61427 0.0
H882 H 0.20526 0.70593 0.64016 0.0
H883 H 0.26412 0.76937 0.61053 0.0
H884 H 0.29231 0.82154 0.60419 0.0
H885 H 0.32668 0.79733 0.64867 0.0
H886 H 0.29852 0.74538 0.65539 0.0
H887 H 0.26744 0.51731 0.63485 0.0
H888 H 0.24692 0.5803 0.62991 0.0
H889 H 0.2823 0.6363 0.66945 0.0
H890 H 0.3029 0.574 0.67429 0.0
H891 H 0.28737 0.67732 0.64154 0.0
H892 H 0.22641 0.61669 0.67172 0.0
H893 H 0.1981 0.56439 0.67761 0.0
H894 H 0.16789 0.58262 0.63117 0.0
H895 H 0.19623 0.63468 0.62492 0.0
C896 C 0.22838 0.84122 0.64536 0.0
C897 C 0.21152 0.85019 0.63403 0.0
C898 C 0.23742 0.80255 0.64624 0.0
C899 C 0.22999 0.77229 0.63568 0.0
C900 C 0.21362 0.78143 0.62406 0.0
C901 C 0.20451 0.8201 0.62319 0.0
C902 C 0.23865 0.73075 0.63734 0.0
C903 C 0.22321 0.69947 0.64018 0.0
C904 C 0.26204 0.72251 0.63753 0.0
C905 C 0.2791 0.75366 0.63351 0.0
C906 C 0.27759 0.77536 0.61901 0.0
C907 C 0.29359 0.80487 0.61535 0.0
C908 C 0.31125 0.8128 0.62604 0.0
C909 C 0.31299 0.79117 0.64041 0.0
C910 C 0.29703 0.76165 0.64414 0.0
C911 C 0.2703 0.54276 0.64276 0.0
C912 C 0.28686 0.54106 0.65485 0.0
C913 C 0.25865 0.57869 0.6399 0.0
C914 C 0.2633 0.61299 0.64923 0.0
C915 C 0.27866 0.61027 0.66202 0.0
C916 C 0.29035 0.57465 0.6648 0.0
C917 C 0.25404 0.6528 0.64487 0.0
C918 C 0.26941 0.68371 0.6414 0.0
C919 C 0.23063 0.66054 0.64402 0.0
C920 C 0.21361 0.62924 0.64778 0.0
C921 C 0.21387 0.60928 0.6627 0.0
C922 C 0.19779 0.57974 0.66612 0.0
C923 C 0.18126 0.57009 0.65475 0.0
C924 C 0.18073 0.59006 0.63996 0.0
C925 C 0.19679 0.61961 0.63647 0.0
H926 H 0.16882 0.54722 0.65743 0.0
H927 H 0.32361 0.83565 0.62318 0.0
H928 H 0.79954 0.41581 0.60103 0.0
H929 H 0.77676 0.35513 0.60499 0.0
H930 H 0.74909 0.40589 0.64854 0.0
H931 H 0.77134 0.46743 0.64433 0.0
H932 H 0.77617 0.32607 0.64937 0.0
H933 H 0.71323 0.39372 0.62396 0.0
H934 H 0.69516 0.43197 0.60204 0.0
H935 H 0.70996 0.3366 0.56875 0.0
H936 H 0.72841 0.29797 0.59043 0.0
H937 H 0.71277 0.15558 0.67153 0.0
H938 H 0.72722 0.22304 0.66623 0.0
H939 H 0.72613 0.19855 0.61509 0.0
H940 H 0.70978 0.13219 0.62046 0.0
H941 H 0.71234 0.26832 0.61839 0.0
H942 H 0.77697 0.20232 0.64015 0.0
H943 H 0.79927 0.16244 0.65948 0.0
H944 H 0.78738 0.25106 0.69619 0.0
H945 H 0.76477 0.29124 0.67713 0.0
C946 C 0.78803 0.41448 0.61116 0.0
C947 C 0.78708 0.44609 0.62237 0.0
C948 C 0.77508 0.37991 0.6134 0.0
C949 C 0.76136 0.37619 0.62706 0.0
C950 C 0.75954 0.40849 0.63789 0.0
C951 C 0.7721 0.44358 0.63543 0.0
C952 C 0.75137 0.33672 0.63095 0.0
C953 C 0.76191 0.31356 0.64286 0.0
C954 C 0.7336 0.32005 0.62183 0.0
C955 C 0.72237 0.3431 0.60881 0.0
C956 C 0.71281 0.38105 0.61194 0.0
C957 C 0.70246 0.40276 0.59956 0.0
C958 C 0.70144 0.38674 0.58401 0.0
C959 C 0.71075 0.34895 0.58081 0.0
C960 C 0.72114 0.32712 0.59314 0.0
C961 C 0.71597 0.16452 0.65919 0.0
C962 C 0.71057 0.13873 0.64639 0.0
C963 C 0.72429 0.20305 0.65614 0.0
C964 C 0.72829 0.21588 0.64025 0.0
C965 C 0.72322 0.18958 0.62746 0.0
C966 C 0.71411 0.15156 0.6305 0.0
C967 C 0.73708 0.25706 0.63697 0.0
C968 C 0.72648 0.28059 0.62508 0.0
C969 C 0.75539 0.27367 0.64575 0.0
C970 C 0.76898 0.24958 0.65725 0.0
C971 C 0.77898 0.21316 0.65237 0.0
C972 C 0.79169 0.19053 0.66328 0.0
C973 C 0.79469 0.20415 0.67906 0.0
C974 C 0.78502 0.24051 0.68397 0.0
C975 C 0.77227 0.26325 0.67312 0.0
H976 H 0.80454 0.18658 0.68749 0.0
H977 H 0.69336 0.40355 0.57447 0.0
H978 H 0.32268 0.27856 0.64865 0.0
H979 H 0.2982 0.22154 0.64255 0.0
H980 H 0.24421 0.30292 0.6302 0.0
H981 H 0.26884 0.36055 0.63612 0.0
H982 H 0.23319 0.24222 0.65346 0.0
H983 H 0.26629 0.25351 0.60107 0.0
H984 H 0.29744 0.25969 0.58156 0.0
H985 H 0.32435 0.14631 0.59719 0.0
H986 H 0.29354 0.13972 0.61698 0.0
H987 H 0.15933 0.08842 0.62825 0.0
H988 H 0.18281 0.1485 0.62898 0.0
H989 H 0.24206 0.07492 0.6357 0.0
H990 H 0.21862 0.01422 0.6347 0.0
H991 H 0.24928 0.13405 0.61381 0.0
H992 H 0.21931 0.12386 0.66712 0.0
H993 H 0.18967 0.1165 0.68773 0.0
H994 H 0.15877 0.22638 0.67184 0.0
H995 H 0.18806 0.23408 0.65095 0.0
C996 C 0.30566 0.28437 0.64448 0.0
C997 C 0.29756 0.32389 0.64295 0.0
C998 C 0.29177 0.25179 0.64092 0.0
C999 C 0.2695 0.25816 0.63589 0.0
C1000 C 0.26143 0.29758 0.63403 0.0
C1001 C 0.27548 0.33034 0.63736 0.0
C1002 C 0.25436 0.22336 0.63377 0.0
C1003 C 0.23636 0.21894 0.64456 0.0
C1004 C 0.25916 0.1925 0.62255 0.0
C1005 C 0.27769 0.19629 0.61061 0.0
C1006 C 0.27895 0.23005 0.60045 0.0
C1007 C 0.29653 0.2336 0.58932 0.0
C1008 C 0.31289 0.20345 0.58816 0.0
C1009 C 0.31167 0.16965 0.59811 0.0
C1010 C 0.29414 0.16597 0.60927 0.0
C1011 C 0.17735 0.08491 0.62991 0.0
C1012 C 0.18713 0.0466 0.63151 0.0
C1013 C 0.19073 0.11932 0.63035 0.0
C1014 C 0.2141 0.11613 0.63257 0.0
C1015 C 0.22401 0.07794 0.63399 0.0
C1016 C 0.21061 0.04337 0.63349 0.0
C1017 C 0.2281 0.15284 0.63353 0.0
C1018 C 0.24594 0.15753 0.62258 0.0
C1019 C 0.22335 0.18377 0.64476 0.0
C1020 C 0.20575 0.17932 0.65735 0.0
C1021 C 0.20609 0.14628 0.66792 0.0
C1022 C 0.18937 0.14207 0.67968 0.0
C1023 C 0.17231 0.1709 0.68107 0.0
C1024 C 0.17197 0.20404 0.67073 0.0
C1025 C 0.18864 0.20836 0.65894 0.0
H1026 H 0.15938 0.1676 0.69018 0.0
H1027 H 0.32648 0.20625 0.57952 0.0
H1028 H 0.8339 0.60186 0.90016 0.0
H1029 H 0.80941 0.66081 0.90035 0.0
H1030 H 0.75542 0.5905 0.87987 0.0
H1031 H 0.77988 0.53059 0.87991 0.0
H1032 H 0.76468 0.67021 0.86484 0.0
H1033 H 0.74986 0.60908 0.91616 0.0
H1034 H 0.76046 0.57874 0.94217 0.0
H1035 H 0.79314 0.68855 0.95627 0.0
H1036 H 0.78309 0.71934 0.93021 0.0
H1037 H 0.67724 0.81104 0.87686 0.0
H1038 H 0.70107 0.7516 0.87585 0.0
H1039 H 0.74944 0.80944 0.90707 0.0
H1040 H 0.72511 0.8691 0.90858 0.0
H1041 H 0.74295 0.73479 0.9165 0.0
H1042 H 0.75902 0.79635 0.86586 0.0
H1043 H 0.75043 0.82764 0.83966 0.0
H1044 H 0.71775 0.71917 0.82398 0.0
H1045 H 0.72587 0.68738 0.85019 0.0
C1046 C 0.81685 0.59879 0.89564 0.0
C1047 C 0.80881 0.56151 0.89 0.0
C1048 C 0.80286 0.63255 0.89581 0.0
C1049 C 0.78062 0.62995 0.89019 0.0
C1050 C 0.77257 0.59302 0.88427 0.0
C1051 C 0.7865 0.55888 0.88434 0.0
C1052 C 0.76595 0.66605 0.89067 0.0
C1053 C 0.75956 0.68404 0.87611 0.0
C1054 C 0.76002 0.68469 0.9054 0.0
C1055 C 0.76592 0.66639 0.92116 0.0
C1056 C 0.75949 0.62665 0.92474 0.0
C1057 C 0.76537 0.60939 0.93951 0.0
C1058 C 0.77752 0.63167 0.95085 0.0
C1059 C 0.78376 0.67131 0.94747 0.0
C1060 C 0.77796 0.68869 0.9327 0.0
C1061 C 0.69303 0.81144 0.88344 0.0
C1062 C 0.6993 0.84503 0.89275 0.0
C1063 C 0.70672 0.77733 0.88278 0.0
C1064 C 0.72726 0.77611 0.89118 0.0
C1065 C 0.73369 0.80968 0.90043 0.0
C1066 C 0.71985 0.84385 0.90122 0.0
C1067 C 0.74154 0.73924 0.89062 0.0
C1068 C 0.74795 0.72107 0.90519 0.0
C1069 C 0.7477 0.72066 0.87587 0.0
C1070 C 0.74288 0.73961 0.86006 0.0
C1071 C 0.74985 0.77926 0.85688 0.0
C1072 C 0.74509 0.79707 0.84201 0.0
C1073 C 0.73351 0.77544 0.83018 0.0
C1074 C 0.72671 0.7359 0.83317 0.0
C1075 C 0.7314 0.71796 0.84802 0.0
H1076 H 0.72983 0.78929 0.81868 0.0
H1077 H 0.78205 0.61826 0.96228 0.0
H1078 H 0.16603 0.89891 0.89496 0.0
H1079 H 0.1897 0.83932 0.89739 0.0
H1080 H 0.24833 0.90959 0.88508 0.0
H1081 H 0.22462 0.97009 0.88277 0.0
H1082 H 0.24474 0.83361 0.86864 0.0
H1083 H 0.2412 0.88688 0.92253 0.0
H1084 H 0.2218 0.91228 0.94677 0.0
H1085 H 0.18773 0.7991 0.95214 0.0
H1086 H 0.20665 0.77324 0.92776 0.0
H1087 H 0.33138 0.70433 0.8909 0.0
H1088 H 0.30546 0.76044 0.88906 0.0
H1089 H 0.25196 0.68677 0.90824 0.0
H1090 H 0.27837 0.62971 0.91052 0.0
H1091 H 0.25085 0.76214 0.92094 0.0
H1092 H 0.25424 0.70748 0.86799 0.0
H1093 H 0.2723 0.68108 0.84341 0.0
H1094 H 0.30472 0.79493 0.83568 0.0
H1095 H 0.28712 0.82186 0.86036 0.0
C1096 C 0.18394 0.90187 0.89267 0.0
C1097 C 0.19344 0.93939 0.88868 0.0
C1098 C 0.19746 0.86769 0.89415 0.0
C1099 C 0.22078 0.87009 0.89159 0.0
C1100 C 0.23033 0.90718 0.88717 0.0
C1101 C 0.2168 0.94168 0.88586 0.0
C1102 C 0.23505 0.8337 0.8936 0.0
C1103 C 0.24635 0.81828 0.88011 0.0
C1104 C 0.2364 0.81287 0.90845 0.0
C1105 C 0.22517 0.82826 0.92321 0.0
C1106 C 0.22942 0.86752 0.9288 0.0
C1107 C 0.21854 0.88198 0.94258 0.0
C1108 C 0.20349 0.85735 0.95097 0.0
C1109 C 0.19936 0.81816 0.94562 0.0
C1110 C 0.21017 0.80358 0.93182 0.0
C1111 C 0.31411 0.69968 0.89474 0.0
C1112 C 0.3069 0.66218 0.90068 0.0
C1113 C 0.29925 0.73199 0.89362 0.0
C1114 C 0.2766 0.7277 0.89814 0.0
C1115 C 0.26934 0.69068 0.90454 0.0
C1116 C 0.2844 0.6581 0.90581 0.0
C1117 C 0.26085 0.76223 0.896 0.0
C1118 C 0.2492 0.77731 0.90944 0.0
C1119 C 0.25897 0.78257 0.88105 0.0
C1120 C 0.26948 0.7666 0.86611 0.0
C1121 C 0.26534 0.72682 0.86112 0.0
C1122 C 0.27548 0.71176 0.84715 0.0
C1123 C 0.28968 0.73629 0.838 0.0
C1124 C 0.29373 0.77596 0.84278 0.0
C1125 C 0.28365 0.79115 0.85675 0.0
H1126 H 0.29752 0.72457 0.8272 0.0
H1127 H 0.19506 0.86859 0.96163 0.0
H1128 H 0.15655 0.59033 0.40293 0.0
H1129 H 0.18 0.64883 0.39732 0.0
H1130 H 0.23973 0.57496 0.39995 0.0
H1131 H 0.21625 0.51578 0.40563 0.0
H1132 H 0.2439 0.64759 0.41663 0.0
H1133 H 0.22232 0.60152 0.36452 0.0
H1134 H 0.19583 0.578 0.34363 0.0
H1135 H 0.16106 0.69128 0.34533 0.0
H1136 H 0.1871 0.71523 0.36646 0.0
H1137 H 0.29495 0.80681 0.35874 0.0
H1138 H 0.27382 0.74503 0.36321 0.0
H1139 H 0.25085 0.79043 0.40908 0.0
H1140 H 0.27253 0.85224 0.40489 0.0
H1141 H 0.23114 0.72765 0.36702 0.0
H1142 H 0.24688 0.71164 0.43567 0.0
H1143 H 0.27517 0.73174 0.45593 0.0
H1144 H 0.32614 0.73691 0.41924 0.0
H1145 H 0.29829 0.71596 0.39882 0.0
C1146 C 0.17467 0.58639 0.40232 0.0
C1147 C 0.18457 0.54841 0.40467 0.0
C1148 C 0.18803 0.61987 0.39908 0.0
C1149 C 0.21154 0.61609 0.39811 0.0
C1150 C 0.22158 0.57837 0.40064 0.0
C1151 C 0.20817 0.54465 0.40381 0.0
C1152 C 0.22544 0.6518 0.39436 0.0
C1153 C 0.2412 0.66509 0.40577 0.0
C1154 C 0.22209 0.67411 0.38006 0.0
C1155 C 0.20657 0.66006 0.36718 0.0
C1156 C 0.20893 0.62133 0.36053 0.0
C1157 C 0.194 0.60792 0.34863 0.0
C1158 C 0.17675 0.6331 0.34318 0.0
C1159 C 0.17443 0.67179 0.34958 0.0
C1160 C 0.18928 0.68531 0.36151 0.0
C1161 C 0.28532 0.80386 0.36976 0.0
C1162 C 0.28556 0.83434 0.38152 0.0
C1163 C 0.2732 0.76849 0.37227 0.0
C1164 C 0.26103 0.76285 0.38657 0.0
C1165 C 0.26049 0.79386 0.39808 0.0
C1166 C 0.27276 0.82925 0.39563 0.0
C1167 C 0.24933 0.72412 0.38947 0.0
C1168 C 0.23393 0.7102 0.37788 0.0
C1169 C 0.25337 0.70083 0.40346 0.0
C1170 C 0.27041 0.71266 0.41569 0.0
C1171 C 0.26415 0.71688 0.43194 0.0
C1172 C 0.28011 0.72845 0.44345 0.0
C1173 C 0.30241 0.73583 0.43887 0.0
C1174 C 0.30884 0.73136 0.42277 0.0
C1175 C 0.29297 0.71962 0.41122 0.0
H1176 H 0.31472 0.74489 0.4478 0.0
H1177 H 0.1652 0.62266 0.33397 0.0
H1178 H 0.82174 0.89189 0.41181 0.0
H1179 H 0.79885 0.8332 0.40565 0.0
H1180 H 0.74758 0.90958 0.38504 0.0
H1181 H 0.77044 0.96919 0.39155 0.0
H1182 H 0.72878 0.85071 0.40263 0.0
H1183 H 0.78323 0.8568 0.36082 0.0
H1184 H 0.82102 0.86322 0.34869 0.0
H1185 H 0.84213 0.75458 0.37224 0.0
H1186 H 0.80455 0.74783 0.38472 0.0
H1187 H 0.6753 0.68893 0.36161 0.0
H1188 H 0.69855 0.74876 0.36525 0.0
H1189 H 0.74201 0.68356 0.39764 0.0
H1190 H 0.71846 0.6233 0.39437 0.0
H1191 H 0.76386 0.73779 0.37243 0.0
H1192 H 0.70782 0.73578 0.41504 0.0
H1193 H 0.66874 0.72967 0.4249 0.0
H1194 H 0.64941 0.83275 0.39698 0.0
H1195 H 0.68833 0.83896 0.38669 0.0
C1196 C 0.80559 0.8964 0.40597 0.0
C1197 C 0.79798 0.93524 0.40204 0.0
C1198 C 0.79254 0.86269 0.4024 0.0
C1199 C 0.7717 0.86683 0.39457 0.0
C1200 C 0.76369 0.90565 0.391 0.0
C1201 C 0.77674 0.93965 0.3947 0.0
C1202 C 0.75858 0.83033 0.39015 0.0
C1203 C 0.73637 0.82634 0.39582 0.0
C1204 C 0.76849 0.79824 0.38137 0.0
C1205 C 0.79111 0.80199 0.37382 0.0
C1206 C 0.79598 0.83443 0.36351 0.0
C1207 C 0.81736 0.8381 0.35656 0.0
C1208 C 0.83398 0.80936 0.35972 0.0
C1209 C 0.82924 0.77683 0.36981 0.0
C1210 C 0.80789 0.77305 0.37682 0.0
C1211 C 0.68998 0.68694 0.36934 0.0
C1212 C 0.69497 0.65129 0.37776 0.0
C1213 C 0.7032 0.72128 0.37141 0.0
C1214 C 0.72185 0.72056 0.38177 0.0
C1215 C 0.72764 0.68458 0.38958 0.0
C1216 C 0.71418 0.65025 0.38771 0.0
C1217 C 0.73439 0.75816 0.38514 0.0
C1218 C 0.75638 0.76231 0.37921 0.0
C1219 C 0.72417 0.7906 0.39344 0.0
C1220 C 0.70093 0.78757 0.39996 0.0
C1221 C 0.6952 0.75695 0.4109 0.0
C1222 C 0.67308 0.75348 0.41658 0.0
C1223 C 0.65658 0.78073 0.41154 0.0
C1224 C 0.6622 0.81162 0.40086 0.0
C1225 C 0.68429 0.81514 0.3951 0.0
H1226 H 0.63946 0.77798 0.41593 0.0
H1227 H 0.85053 0.81226 0.35432 0.0
H1228 H 0.33334 0.19038 0.15829 0.0
H1229 H 0.30828 0.24782 0.15983 0.0
H1230 H 0.25948 0.18581 0.1303 0.0
H1231 H 0.28516 0.12784 0.12822 0.0
H1232 H 0.26297 0.26157 0.12092 0.0
H1233 H 0.25166 0.19849 0.17157 0.0
H1234 H 0.26216 0.16649 0.19727 0.0
H1235 H 0.29457 0.27548 0.21265 0.0
H1236 H 0.28456 0.30798 0.18693 0.0
H1237 H 0.17463 0.39814 0.14187 0.0
H1238 H 0.1981 0.33804 0.14005 0.0
H1239 H 0.2549 0.40458 0.15856 0.0
H1240 H 0.23146 0.46566 0.16015 0.0
H1241 H 0.24553 0.32525 0.17358 0.0
H1242 H 0.25617 0.38685 0.12158 0.0
H1243 H 0.24316 0.41727 0.09615 0.0
H1244 H 0.20868 0.3079 0.0838 0.0
H1245 H 0.22115 0.27704 0.10931 0.0
C1246 C 0.31724 0.18855 0.15215 0.0
C1247 C 0.31124 0.15421 0.14318 0.0
C1248 C 0.30282 0.22157 0.15314 0.0
C1249 C 0.28175 0.22104 0.14546 0.0
C1250 C 0.27561 0.18687 0.13642 0.0
C1251 C 0.29023 0.15369 0.1353 0.0
C1252 C 0.26664 0.25681 0.14667 0.0
C1253 C 0.25886 0.27503 0.13246 0.0
C1254 C 0.2615 0.27495 0.16172 0.0
C1255 C 0.26751 0.25557 0.17725 0.0
C1256 C 0.26117 0.21555 0.18038 0.0
C1257 C 0.26701 0.19734 0.19496 0.0
C1258 C 0.27907 0.21891 0.20657 0.0
C1259 C 0.28526 0.25879 0.20364 0.0
C1260 C 0.27948 0.27714 0.18906 0.0
C1261 C 0.1921 0.40015 0.1456 0.0
C1262 C 0.20119 0.43671 0.15119 0.0
C1263 C 0.2055 0.36572 0.14448 0.0
C1264 C 0.22822 0.3669 0.1491 0.0
C1265 C 0.23737 0.40314 0.15492 0.0
C1266 C 0.22401 0.43796 0.15579 0.0
C1267 C 0.24224 0.33002 0.14787 0.0
C1268 C 0.24968 0.3116 0.16208 0.0
C1269 C 0.24674 0.3114 0.13287 0.0
C1270 C 0.2394 0.32977 0.11745 0.0
C1271 C 0.24564 0.3694 0.11352 0.0
C1272 C 0.23839 0.3867 0.09907 0.0
C1273 C 0.22505 0.36457 0.08839 0.0
C1274 C 0.21898 0.32503 0.0921 0.0
C1275 C 0.22615 0.30761 0.10655 0.0
H1276 H 0.21946 0.37802 0.07721 0.0
H1277 H 0.28357 0.20475 0.21786 0.0
H1278 H 0.72778 0.37346 0.13422 0.0
H1279 H 0.75361 0.31558 0.13552 0.0
H1280 H 0.69701 0.23671 0.14404 0.0
H1281 H 0.6716 0.29398 0.1434 0.0
H1282 H 0.7281 0.21788 0.16382 0.0
H1283 H 0.72648 0.2437 0.10667 0.0
H1284 H 0.73091 0.28494 0.0822 0.0
H1285 H 0.80092 0.30337 0.09333 0.0
H1286 H 0.79682 0.26266 0.118 0.0
H1287 H 0.78026 0.02745 0.14874 0.0
H1288 H 0.75628 0.08753 0.1469 0.0
H1289 H 0.81555 0.16246 0.14419 0.0
H1290 H 0.83947 0.10302 0.14593 0.0
H1291 H 0.78458 0.1844 0.12184 0.0
H1292 H 0.78575 0.1563 0.17871 0.0
H1293 H 0.78085 0.11403 0.20285 0.0
H1294 H 0.71066 0.09865 0.19157 0.0
H1295 H 0.71523 0.14036 0.16723 0.0
C1296 C 0.72095 0.34369 0.13628 0.0
C1297 C 0.69771 0.33835 0.13884 0.0
C1298 C 0.73567 0.31058 0.13697 0.0
C1299 C 0.72729 0.27154 0.13984 0.0
C1300 C 0.704 0.26638 0.14198 0.0
C1301 C 0.68945 0.29929 0.14157 0.0
C1302 C 0.74249 0.23585 0.14107 0.0
C1303 C 0.74024 0.2104 0.1545 0.0
C1304 C 0.75875 0.22631 0.12916 0.0
C1305 C 0.76128 0.25049 0.11426 0.0
C1306 C 0.74278 0.25677 0.10395 0.0
C1307 C 0.74524 0.28002 0.09004 0.0
C1308 C 0.76617 0.29686 0.08624 0.0
C1309 C 0.7847 0.29036 0.09631 0.0
C1310 C 0.78233 0.26718 0.11025 0.0
C1311 C 0.78815 0.05674 0.14783 0.0
C1312 C 0.81178 0.06037 0.14752 0.0
C1313 C 0.77445 0.09106 0.14679 0.0
C1314 C 0.78413 0.12957 0.14545 0.0
C1315 C 0.80769 0.13313 0.14514 0.0
C1316 C 0.82134 0.09901 0.14623 0.0
C1317 C 0.76985 0.16632 0.14441 0.0
C1318 C 0.77237 0.19198 0.13109 0.0
C1319 C 0.7537 0.17593 0.15635 0.0
C1320 C 0.75089 0.15114 0.17106 0.0
C1321 C 0.76931 0.14366 0.18132 0.0
C1322 C 0.76659 0.11984 0.19505 0.0
C1323 C 0.74547 0.10358 0.19872 0.0
C1324 C 0.72702 0.11122 0.1887 0.0
C1325 C 0.72966 0.13497 0.17494 0.0
H1326 H 0.74339 0.08514 0.20936 0.0
H1327 H 0.76803 0.31488 0.07547 0.0
H1328 H 0.33189 0.0621 0.05116 0.0
H1329 H 0.30757 0.0712 0.02768 0.0
H1330 H 0.2489 0.0677 0.05838 0.0
H1331 H 0.27346 0.05854 0.08206 0.0
H1332 H 0.24636 0.01464 0.03245 0.0
H1333 H 0.26319 0.15414 0.04043 0.0
H1334 H 0.28775 0.21305 0.04468 0.0
H1335 H 0.3206 0.19057 0.99946 0.0
H1336 H 0.29645 0.13114 0.99504 0.0
H1337 H 0.16871 0.05187 0.97055 0.0
H1338 H 0.19114 0.06045 0.99492 0.0
H1339 H 0.25146 0.07082 0.96618 0.0
H1340 H 0.22885 0.06232 0.94155 0.0
H1341 H 0.25227 0.12305 0.99162 0.0
H1342 H 0.23909 0.98265 0.98415 0.0
H1343 H 0.21648 0.92165 0.97926 0.0
H1344 H 0.17922 0.94309 0.02279 0.0
H1345 H 0.20148 0.00458 0.02786 0.0
C1346 C 0.31382 0.06387 0.05293 0.0
C1347 C 0.30454 0.05948 0.06842 0.0
C1348 C 0.29993 0.06927 0.03951 0.0
C1349 C 0.27639 0.07026 0.04123 0.0
C1350 C 0.26704 0.06713 0.05676 0.0
C1351 C 0.28102 0.0622 0.07029 0.0
C1352 C 0.26174 0.07145 0.02664 0.0
C1353 C 0.2473 0.0388 0.0237 0.0
C1354 C 0.26362 0.10215 1.01488 0.0
C1355 C 0.27812 0.13797 1.01747 0.0
C1356 C 0.27577 0.16155 0.03145 0.0
C1357 C 0.2896 0.19508 0.03388 0.0
C1358 C 0.30576 0.2055 0.02237 0.0
C1359 C 0.30809 0.18245 1.00838 0.0
C1360 C 0.29431 0.14887 1.00589 0.0
C1361 C 0.18674 0.05599 0.96937 0.0
C1362 C 0.19704 0.05572 0.9541 0.0
C1363 C 0.19956 0.06098 0.98334 0.0
C1364 C 0.22308 0.06545 0.98245 0.0
C1365 C 0.23335 0.06723 0.96719 0.0
C1366 C 0.22044 0.06243 0.95312 0.0
C1367 C 0.23682 0.06636 0.99751 0.0
C1368 C 0.25117 0.09916 1.00047 0.0
C1369 C 0.23514 0.03552 1.00923 0.0
C1370 C 0.22179 -0.00156 1.0063 0.0
C1371 C 0.22596 0.97453 0.99262 0.0
C1372 C 0.21323 0.93984 0.98982 0.0
C1373 C 0.19636 0.92856 1.00067 0.0
C1374 C 0.19226 0.9519 1.01438 0.0
C1375 C 0.20495 0.98665 1.01723 0.0
H1376 H 0.18652 0.90169 0.99848 0.0
H1377 H 0.31645 0.23147 0.02427 0.0
H1378 H 0.84216 0.45747 0.97205 0.0
H1379 H 0.81975 0.45254 0.99666 0.0
H1380 H 0.75868 0.46399 0.96878 0.0
H1381 H 0.78106 0.4699 0.94411 0.0
H1382 H 0.75743 0.51125 0.9951 0.0
H1383 H 0.77517 0.37345 0.98382 0.0
H1384 H 0.7999 0.31557 0.97802 0.0
H1385 H 0.83366 0.3324 0.0233 0.0
H1386 H 0.80933 0.39081 0.02926 0.0
H1387 H 0.67655 0.44938 0.05104 0.0
H1388 H 0.70206 0.44838 0.02804 0.0
H1389 H 0.75924 0.44773 0.06014 0.0
H1390 H 0.73357 0.44932 0.08344 0.0
H1391 H 0.7642 0.3961 0.03281 0.0
H1392 H 0.74476 0.53308 0.04431 0.0
H1393 H 0.71879 0.58933 0.04993 0.0
H1394 H 0.6875 0.57304 1.00374 0.0
H1395 H 0.71293 0.51606 0.99797 0.0
C1396 C 0.82398 0.45923 0.97114 0.0
C1397 C 0.81343 0.46412 0.95606 0.0
C1398 C 0.81116 0.45599 0.98523 0.0
C1399 C 0.7875 0.45747 0.98459 0.0
C1400 C 0.77691 0.46261 0.96958 0.0
C1401 C 0.78972 0.46569 0.95547 0.0
C1402 C 0.77381 0.45453 0.99959 0.0
C1403 C 0.75875 0.48583 1.00323 0.0
C1404 C 0.77593 0.42188 1.01046 0.0
C1405 C 0.79059 0.3868 1.0069 0.0
C1406 C 0.788 0.36505 0.99247 0.0
C1407 C 0.80192 0.3321 0.98917 0.0
C1408 C 0.81839 0.32039 1.00026 0.0
C1409 C 0.82093 0.34156 1.0147 0.0
C1410 C 0.80707 0.37457 1.01806 0.0
C1411 C 0.69454 0.44904 0.05327 0.0
C1412 C 0.70302 0.45024 0.0691 0.0
C1413 C 0.70911 0.44829 0.04008 0.0
C1414 C 0.73255 0.44877 0.04236 0.0
C1415 C 0.74118 0.44758 0.05813 0.0
C1416 C 0.72652 0.44839 0.07142 0.0
C1417 C 0.74772 0.4526 0.02817 0.0
C1418 C 0.76303 0.42158 0.0247 0.0
C1419 C 0.7458 0.48545 1.0174 0.0
C1420 C 0.73064 0.52004 0.02076 0.0
C1421 C 0.73223 0.54127 0.03539 0.0
C1422 C 0.71762 0.57332 0.0386 0.0
C1423 C 0.70151 0.58474 0.02721 0.0
C1424 C 0.69998 0.56415 1.01256 0.0
C1425 C 0.71449 0.53196 1.00932 0.0
H1426 H 0.69022 0.60958 0.02971 0.0
H1427 H 0.82915 0.29486 0.99768 0.0
H1428 H 0.32831 0.90751 0.47114 0.0
H1429 H 0.30469 0.91095 0.49522 0.0
H1430 H 0.24753 0.9443 0.46598 0.0
H1431 H 0.27115 0.94275 0.44203 0.0
H1432 H 0.24868 0.99007 0.4914 0.0
H1433 H 0.25403 0.84817 0.48252 0.0
H1434 H 0.27331 0.78338 0.47815 0.0
H1435 H 0.30612 0.79438 0.52406 0.0
H1436 H 0.28728 0.85964 0.52861 0.0
H1437 H 0.16192 0.95455 0.54894 0.0
H1438 H 0.1867 0.95091 0.52563 0.0
H1439 H 0.24376 0.93067 0.55674 0.0
H1440 H 0.21928 0.93516 0.58026 0.0
H1441 H 0.24333 0.87866 0.53089 0.0
H1442 H 0.23571 0.02056 0.53976 0.0
H1443 H 0.21591 0.08518 0.54335 0.0
H1444 H 0.18623 0.07325 0.4964 0.0
H1445 H 0.20547 0.00812 0.49265 0.0
C1446 C 0.31075 0.91571 0.4698 0.0
C1447 C 0.30178 0.92469 0.4545 0.0
C1448 C 0.29716 0.91728 0.48361 0.0
C1449 C 0.27418 0.92745 0.48247 0.0
C1450 C 0.26516 0.93626 0.46723 0.0
C1451 C 0.27873 0.9349 0.45345 0.0
C1452 C 0.25962 0.92999 0.49713 0.0
C1453 C 0.24728 0.96544 0.4999 0.0
C1454 C 0.25812 0.89829 0.50849 0.0
C1455 C 0.26943 0.85901 0.50583 0.0
C1456 C 0.2655 0.83695 0.49163 0.0
C1457 C 0.27633 0.8001 0.48913 0.0
C1458 C 0.29098 0.78481 0.5008 0.0
C1459 C 0.29479 0.8063 0.51502 0.0
C1460 C 0.28403 0.84321 0.51757 0.0
C1461 C 0.17972 0.9498 0.551 0.0
C1462 C 0.18837 0.94539 0.56673 0.0
C1463 C 0.19393 0.94761 0.53754 0.0
C1464 C 0.21716 0.94085 0.53939 0.0
C1465 C 0.22588 0.93588 0.55499 0.0
C1466 C 0.21173 0.93836 0.56849 0.0
C1467 C 0.23229 0.9386 0.52505 0.0
C1468 C 0.24475 0.90325 0.52237 0.0
C1469 C 0.23371 0.97024 0.51367 0.0
C1470 C 0.22181 0.00913 0.51602 0.0
C1471 C 0.22473 0.03143 0.53028 0.0
C1472 C 0.21364 0.06822 0.53233 0.0
C1473 C 0.19975 0.08324 0.52014 0.0
C1474 C 0.19693 0.06152 0.50586 0.0
C1475 C 0.20791 0.02465 0.50377 0.0
H1476 H 0.19122 0.11177 0.52173 0.0
H1477 H 0.29935 0.75626 0.49884 0.0
H1478 H 0.77423 0.54837 0.57711 0.0
H1479 H 0.75192 0.55295 0.55257 0.0
H1480 H 0.81281 0.56208 0.52439 0.0
H1481 H 0.83536 0.55921 0.54903 0.0
H1482 H 0.78138 0.61348 0.51344 0.0
H1483 H 0.78337 0.47329 0.52699 0.0
H1484 H 0.77893 0.4144 0.54475 0.0
H1485 H 0.70832 0.4403 0.54993 0.0
H1486 H 0.71241 0.49974 0.53245 0.0
H1487 H 0.72216 0.5787 0.4393 0.0
H1488 H 0.74866 0.57403 0.46178 0.0
H1489 H 0.6931 0.55872 0.49473 0.0
H1490 H 0.66674 0.56126 0.4725 0.0
H1491 H 0.72467 0.50757 0.50192 0.0
H1492 H 0.72282 0.64987 0.49037 0.0
H1493 H 0.72672 0.70988 0.47315 0.0
H1494 H 0.79627 0.68074 0.46449 0.0
H1495 H 0.79269 0.62023 0.4815 0.0
C1496 C 0.78299 0.55191 0.56578 0.0
C1497 C 0.80673 0.55325 0.56516 0.0
C1498 C 0.77014 0.55408 0.55167 0.0
C1499 C 0.78066 0.55715 0.53656 0.0
C1500 C 0.80429 0.55944 0.53589 0.0
C1501 C 0.81719 0.55743 0.55001 0.0
C1502 C 0.76693 0.55759 0.52151 0.0
C1503 C 0.76922 0.59 0.51079 0.0
C1504 C 0.75079 0.52729 0.51813 0.0
C1505 C 0.74825 0.49119 0.5285 0.0
C1506 C 0.76693 0.46658 0.53201 0.0
C1507 C 0.76447 0.43309 0.54203 0.0
C1508 C 0.74337 0.42367 0.54851 0.0
C1509 C 0.72467 0.44766 0.54494 0.0
C1510 C 0.72704 0.48124 0.53496 0.0
C1511 C 0.71551 0.57408 0.45128 0.0
C1512 C 0.69209 0.57055 0.45389 0.0
C1513 C 0.73075 0.57179 0.46419 0.0
C1514 C 0.72292 0.56642 0.48004 0.0
C1515 C 0.69963 0.5629 0.48266 0.0
C1516 C 0.68446 0.56485 0.46981 0.0
C1517 C 0.73874 0.56393 0.49399 0.0
C1518 C 0.73691 0.53097 0.50449 0.0
C1519 C 0.7552 0.59381 0.49719 0.0
C1520 C 0.75742 0.6303 0.48706 0.0
C1521 C 0.7389 0.65611 0.4847 0.0
C1522 C 0.74106 0.69023 0.47499 0.0
C1523 C 0.76171 0.69905 0.46769 0.0
C1524 C 0.78027 0.67383 0.47013 0.0
C1525 C 0.77819 0.63963 0.47981 0.0
H1526 H 0.76335 0.72547 0.46018 0.0
H1527 H 0.74151 0.39774 0.55627 0.0
H1528 H 0.67868 0.89823 0.98622 0.0
H1529 H 0.70347 0.89581 1.00964 0.0
H1530 H 0.75836 0.94167 0.98098 0.0
H1531 H 0.73335 0.94486 0.95738 0.0
H1532 H 0.77116 0.87948 1.00319 0.0
H1533 H 0.73102 0.00548 1.00324 0.0
H1534 H 0.69711 0.04835 1.00188 0.0
H1535 H 0.67041 0.99081 0.04405 0.0
H1536 H 0.70403 0.94713 0.04551 0.0
H1537 H 0.84054 0.95049 0.06653 0.0
H1538 H 0.8177 0.94108 0.04252 0.0
H1539 H 0.75958 0.91586 0.07209 0.0
H1540 H 0.7822 0.92724 0.09634 0.0
H1541 H 0.74825 0.96578 0.04921 0.0
H1542 H 0.78801 0.841 0.0501 0.0
H1543 H 0.8211 0.7962 0.05161 0.0
H1544 H 0.84772 0.84832 1.0083 0.0
H1545 H 0.81492 0.89385 1.00664 0.0
C1546 C 0.69603 0.90774 0.98484 0.0
C1547 C 0.70389 0.92244 0.96996 0.0
C1548 C 0.71021 0.90617 0.99824 0.0
C1549 C 0.73265 0.9192 0.99714 0.0
C1550 C 0.74105 0.9316 0.9821 0.0
C1551 C 0.72677 0.9333 0.96862 0.0
C1552 C 0.74673 0.92207 1.01194 0.0
C1553 C 0.76636 0.89872 1.01319 0.0
C1554 C 0.74008 0.9463 0.02516 0.0
C1555 C 0.71995 0.97278 0.02439 0.0
C1556 C 0.71784 0.00175 1.01215 0.0
C1557 C 0.69869 0.02623 1.01137 0.0
C1558 C 0.68159 0.02224 0.02285 0.0
C1559 C 0.68365 0.99383 0.03515 0.0
C1560 C 0.70276 0.96922 0.03597 0.0
C1561 C 0.82289 0.94316 0.06803 0.0
C1562 C 0.81325 0.94007 0.0835 0.0
C1563 C 0.80987 0.9372 0.0542 0.0
C1564 C 0.78691 0.92728 0.05541 0.0
C1565 C 0.77728 0.9234 0.07081 0.0
C1566 C 0.7903 0.92962 0.0847 0.0
C1567 C 0.77282 0.92307 0.04059 0.0
C1568 C 0.75312 0.94633 0.0393 0.0
C1569 C 0.77935 0.89849 0.0274 0.0
C1570 C 0.79909 0.8711 0.02833 0.0
C1571 C 0.801 0.84313 0.04096 0.0
C1572 C 0.81969 0.81756 0.04183 0.0
C1573 C 0.83653 0.81948 0.03008 0.0
C1574 C 0.83467 0.8469 1.0174 0.0
C1575 C 0.81602 0.87257 1.01648 0.0
H1576 H 0.85099 0.79965 0.03077 0.0
H1577 H 0.66678 0.04122 0.02223 0.0
H1578 H 0.22636 0.54541 0.09737 0.0
H1579 H 0.24678 0.55382 0.07207 0.0
H1580 H 0.18444 0.54296 0.04566 0.0
H1581 H 0.16381 0.53515 0.07087 0.0
H1582 H 0.21674 0.49803 0.03205 0.0
H1583 H 0.21001 0.63299 0.05075 0.0
H1584 H 0.21337 0.69035 0.06943 0.0
H1585 H 0.28547 0.67766 0.06951 0.0
H1586 H 0.28253 0.61942 0.05122 0.0
H1587 H 0.26997 0.54911 0.95734 0.0
H1588 H 0.24414 0.55327 0.98049 0.0
H1589 H 0.30116 0.56316 1.01256 0.0
H1590 H 0.32674 0.5599 0.98961 0.0
H1591 H 0.26823 0.61281 0.02189 0.0
H1592 H 0.27428 0.47297 1.00616 0.0
H1593 H 0.27125 0.41591 0.98727 0.0
H1594 H 0.20046 0.43931 0.98134 0.0
H1595 H 0.20316 0.49688 1.00006 0.0
C1596 C 0.21688 0.54525 0.08624 0.0
C1597 C 0.19332 0.53958 0.08631 0.0
C1598 C 0.22864 0.55003 0.07173 0.0
C1599 C 0.21715 0.5494 0.05692 0.0
C1600 C 0.1937 0.54351 0.05691 0.0
C1601 C 0.18192 0.53884 0.07141 0.0
C1602 C 0.22965 0.55395 0.04142 0.0
C1603 C 0.2277 0.52351 0.02974 0.0
C1604 C 0.24423 0.5869 0.03843 0.0
C1605 C 0.24602 0.62148 0.04972 0.0
C1606 C 0.22657 0.64204 0.05491 0.0
C1607 C 0.2284 0.67477 0.06543 0.0
C1608 C 0.24961 0.68759 0.07068 0.0
C1609 C 0.26904 0.66767 0.06544 0.0
C1610 C 0.2673 0.63472 0.05504 0.0
C1611 C 0.2769 0.55287 0.96931 0.0
C1612 C 0.30039 0.55369 0.97166 0.0
C1613 C 0.26217 0.5549 0.98255 0.0
C1614 C 0.27071 0.55792 0.99834 0.0
C1615 C 0.29412 0.56066 1.00056 0.0
C1616 C 0.30875 0.55847 0.98741 0.0
C1617 C 0.25562 0.55657 1.01271 0.0
C1618 C 0.25708 0.58758 0.02418 0.0
C1619 C 0.24063 0.52417 1.01554 0.0
C1620 C 0.23898 0.4895 1.00435 0.0
C1621 C 0.25811 0.46613 1.00073 0.0
C1622 C 0.25645 0.43367 0.99007 0.0
C1623 C 0.23569 0.42407 0.98307 0.0
C1624 C 0.21654 0.44684 0.98675 0.0
C1625 C 0.21812 0.47937 0.99739 0.0
H1626 H 0.23443 0.39893 0.97482 0.0
H1627 H 0.251 0.71297 0.07881 0.0
H1628 H 0.71403 0.0281 0.59505 0.0
H1629 H 0.7367 0.03212 0.57049 0.0
H1630 H 0.67623 0.04873 0.54237 0.0
H1631 H 0.65348 0.04501 0.56685 0.0
H1632 H 0.70451 0.99592 0.52801 0.0
H1633 H 0.71021 0.12798 0.55104 0.0
H1634 H 0.71777 0.17674 0.57279 0.0
H1635 H 0.78655 0.13659 0.57537 0.0
H1636 H 0.7793 0.08712 0.5538 0.0
H1637 H 0.76258 0.04849 0.45592 0.0
H1638 H 0.73746 0.05316 0.47933 0.0
H1639 H 0.79481 0.04273 0.51105 0.0
H1640 H 0.81988 0.03963 0.48787 0.0
H1641 H 0.76639 0.0956 0.52299 0.0
H1642 H 0.76046 0.96105 0.50168 0.0
H1643 H 0.75317 0.90999 0.48073 0.0
H1644 H 0.68528 0.95328 0.47552 0.0
H1645 H 0.69228 0.00496 0.49631 0.0
C1646 C 0.70554 0.03297 0.58368 0.0
C1647 C 0.68189 0.03648 0.583 0.0
C1648 C 0.71854 0.03517 0.56961 0.0
C1649 C 0.70821 0.04125 0.55456 0.0
C1650 C 0.6846 0.04403 0.55382 0.0
C1651 C 0.67159 0.04177 0.56786 0.0
C1652 C 0.72198 0.04479 0.53961 0.0
C1653 C 0.71781 0.01814 0.52682 0.0
C1654 C 0.73962 0.0733 0.53813 0.0
C1655 C 0.74416 0.1036 0.55088 0.0
C1656 C 0.72691 0.12938 0.5563 0.0
C1657 C 0.73114 0.15716 0.5686 0.0
C1658 C 0.75261 0.1597 0.57549 0.0
C1659 C 0.76992 0.13456 0.57004 0.0
C1660 C 0.76577 0.10667 0.55776 0.0
C1661 C 0.76985 0.04782 0.46787 0.0
C1662 C 0.79327 0.04306 0.46996 0.0
C1663 C 0.75545 0.05013 0.48127 0.0
C1664 C 0.76416 0.04754 0.49702 0.0
C1665 C 0.78759 0.04454 0.49908 0.0
C1666 C 0.80194 0.04234 0.48576 0.0
C1667 C 0.74904 0.04649 0.5114 0.0
C1668 C 0.75297 0.07359 0.52412 0.0
C1669 C 0.73124 0.01826 0.51285 0.0
C1670 C 0.72697 0.98714 0.50041 0.0
C1671 C 0.74404 0.95986 0.49598 0.0
C1672 C 0.73995 0.93079 0.48415 0.0
C1673 C 0.7188 0.92848 0.47676 0.0
C1674 C 0.70167 0.95516 0.48123 0.0
C1675 C 0.70568 0.98433 0.49304 0.0
H1676 H 0.71567 0.90594 0.46761 0.0
H1677 H 0.75583 0.18118 0.58503 0.0
H1678 H 0.3302 0.47104 0.56957 0.0
H1679 H 0.30719 0.46949 0.54515 0.0
H1680 H 0.24738 0.4526 0.5739 0.0
H1681 H 0.27015 0.45453 0.59836 0.0
H1682 H 0.24733 0.40246 0.54854 0.0
H1683 H 0.25975 0.54372 0.55694 0.0
H1684 H 0.28236 0.6051 0.56113 0.0
H1685 H 0.31551 0.58627 0.51575 0.0
H1686 H 0.29329 0.52442 0.51139 0.0
H1687 H 0.16244 0.45061 0.4918 0.0
H1688 H 0.18806 0.45036 0.51482 0.0
H1689 H 0.24484 0.46364 0.4828 0.0
H1690 H 0.21915 0.46468 0.45964 0.0
H1691 H 0.24808 0.51393 0.50886 0.0
H1692 H 0.23432 0.37403 0.49997 0.0
H1693 H 0.21133 0.31312 0.49578 0.0
H1694 H 0.18047 0.3296 0.54211 0.0
H1695 H 0.20305 0.39099 0.54649 0.0
C1696 C 0.31214 0.46738 0.57076 0.0
C1697 C 0.30214 0.46294 0.58605 0.0
C1698 C 0.29898 0.46642 0.55673 0.0
C1699 C 0.27548 0.46123 0.55764 0.0
C1700 C 0.26547 0.45649 0.57285 0.0
C1701 C 0.2786 0.45747 0.58687 0.0
C1702 C 0.26128 0.46049 0.54278 0.0
C1703 C 0.24732 0.42707 0.53997 0.0
C1704 C 0.26165 0.49206 0.53132 0.0
C1705 C 0.27504 0.5292 0.53392 0.0
C1706 C 0.272 0.55247 0.54792 0.0
C1707 C 0.28472 0.58738 0.55031 0.0
C1708 C 0.30041 0.59951 0.53874 0.0
C1709 C 0.30337 0.57679 0.52472 0.0
C1710 C 0.29072 0.54182 0.52228 0.0
C1711 C 0.18034 0.45374 0.48961 0.0
C1712 C 0.18868 0.45771 0.47382 0.0
C1713 C 0.19503 0.45323 0.50281 0.0
C1714 C 0.21844 0.4566 0.50057 0.0
C1715 C 0.22686 0.46086 0.48484 0.0
C1716 C 0.21216 0.46114 0.47159 0.0
C1717 C 0.23398 0.45608 0.51471 0.0
C1718 C 0.24819 0.48924 0.51739 0.0
C1719 C 0.23383 0.42429 0.52607 0.0
C1720 C 0.22024 0.38734 0.52349 0.0
C1721 C 0.2225 0.36486 0.50921 0.0
C1722 C 0.20956 0.33021 0.50681 0.0
C1723 C 0.19441 0.31755 0.51866 0.0
C1724 C 0.19219 0.33947 0.53294 0.0
C1725 C 0.20508 0.37418 0.5354 0.0
H1726 H 0.18441 0.29071 0.51678 0.0
H1727 H 0.31023 0.62656 0.54061 0.0
H1728 H 0.37896 0.07607 0.20167 0.0
H1729 H 0.37246 0.06111 0.23004 0.0
H1730 H 0.31835 0.98072 0.21695 0.0
H1731 H 0.32488 0.99572 0.18832 0.0
H1732 H 0.30779 0.026 0.24343 0.0
H1733 H 0.37004 0.94371 0.22669 0.0
H1734 H 0.40714 0.93007 0.21438 0.0
H1735 H 0.43902 0.00754 0.24899 0.0
H1736 H 0.40205 0.02211 0.26137 0.0
H1737 H 0.29878 0.92752 0.31761 0.0
H1738 H 0.3064 0.94009 0.28917 0.0
H1739 H 0.3619 0.01748 0.30225 0.0
H1740 H 0.35444 0.00409 0.33097 0.0
H1741 H 0.37191 0.97376 0.27574 0.0
H1742 H 0.31001 0.05662 0.2924 0.0
H1743 H 0.27304 0.07103 0.30475 0.0
H1744 H 0.24062 0.99377 0.27032 0.0
H1745 H 0.27745 0.97842 0.25791 0.0
C1746 C 0.36566 0.05518 0.2048 0.0
C1747 C 0.35265 0.03663 0.19271 0.0
C1748 C 0.36197 0.04663 0.22105 0.0
C1749 C 0.34527 0.01906 0.22565 0.0
C1750 C 0.33146 0.00188 0.21368 0.0
C1751 C 0.33512 0.01057 0.19734 0.0
C1752 C 0.34263 0.00786 0.24292 0.0
C1753 C 0.32171 0.01401 0.25043 0.0
C1754 C 0.36098 0.99323 0.25221 0.0
C1755 C 0.38325 0.98427 0.24486 0.0
C1756 C 0.38494 0.95806 0.2316 0.0
C1757 C 0.40595 0.95013 0.22462 0.0
C1758 C 0.42541 0.968 0.23087 0.0
C1759 C 0.42392 0.99375 0.24415 0.0
C1760 C 0.40295 0.00183 0.25116 0.0
C1761 C 0.31275 0.94691 0.31441 0.0
C1762 C 0.32586 0.96526 0.32647 0.0
C1763 C 0.31704 0.95422 0.29815 0.0
C1764 C 0.33431 0.98065 0.29353 0.0
C1765 C 0.34833 -0.00274 0.30552 0.0
C1766 C 0.34416 0.98953 0.32189 0.0
C1767 C 0.33704 0.99181 0.27625 0.0
C1768 C 0.35798 0.98572 0.26874 0.0
C1769 C 0.31873 0.00664 0.26696 0.0
C1770 C 0.29652 0.0161 0.27431 0.0
C1771 C 0.29502 0.04249 0.28753 0.0
C1772 C 0.27408 0.05085 0.29453 0.0
C1773 C 0.2545 0.03325 0.28835 0.0
C1774 C 0.2558 0.00734 0.27511 0.0
C1775 C 0.2767 -0.00117 0.26808 0.0
H1776 H 0.2383 0.03976 0.29379 0.0
H1777 H 0.44166 0.96182 0.22545 0.0
H1778 H 0.67377 0.52391 0.19051 0.0
H1779 H 0.6791 0.53962 0.21929 0.0
H1780 H 0.664 0.41618 0.23125 0.0
H1781 H 0.65806 0.40119 0.20276 0.0
H1782 H 0.63829 0.46432 0.24786 0.0
H1783 H 0.71824 0.46036 0.23523 0.0
H1784 H 0.75239 0.48162 0.22055 0.0
H1785 H 0.74297 0.60294 0.23706 0.0
H1786 H 0.7086 0.58248 0.2517 0.0
H1787 H 0.6604 0.44315 0.32897 0.0
H1788 H 0.66622 0.43944 0.29991 0.0
H1789 H 0.67461 0.56822 0.29805 0.0
H1790 H 0.66898 0.57197 0.3274 0.0
H1791 H 0.70303 0.52746 0.27611 0.0
H1792 H 0.62463 0.53171 0.28954 0.0
H1793 H 0.59021 0.5118 0.30419 0.0
H1794 H 0.59606 0.39173 0.2855 0.0
H1795 H 0.63073 0.41076 0.27094 0.0
C1796 C 0.67218 0.50013 0.19934 0.0
C1797 C 0.66541 0.46143 0.19453 0.0
C1798 C 0.6752 0.50904 0.21575 0.0
C1799 C 0.67185 0.47911 0.22751 0.0
C1800 C 0.66647 0.43991 0.22249 0.0
C1801 C 0.66316 0.43127 0.20622 0.0
C1802 C 0.67177 0.48864 0.24508 0.0
C1803 C 0.65262 0.47769 0.25401 0.0
C1804 C 0.68997 0.50779 0.25308 0.0
C1805 C 0.71073 0.51997 0.24442 0.0
C1806 C 0.72336 0.49163 0.23564 0.0
C1807 C 0.74277 0.50352 0.22734 0.0
C1808 C 0.74981 0.54363 0.22783 0.0
C1809 C 0.73748 0.5719 0.23667 0.0
C1810 C 0.71806 0.56016 0.24498 0.0
C1811 C 0.66372 0.47064 0.32241 0.0
C1812 C 0.66386 0.50792 0.33041 0.0
C1813 C 0.66711 0.4685 0.30581 0.0
C1814 C 0.67039 0.50364 0.29674 0.0
C1815 C 0.67202 0.54074 0.30479 0.0
C1816 C 0.66881 0.54286 0.32154 0.0
C1817 C 0.66998 0.5014 0.27883 0.0
C1818 C 0.68878 0.51414 0.26987 0.0
C1819 C 0.6514 0.48405 0.27067 0.0
C1820 C 0.63037 0.47261 0.27924 0.0
C1821 C 0.61865 0.50099 0.28864 0.0
C1822 C 0.59909 0.48987 0.29692 0.0
C1823 C 0.59098 0.45051 0.2958 0.0
C1824 C 0.60238 0.42221 0.28636 0.0
C1825 C 0.62197 0.43316 0.27808 0.0
H1826 H 0.57583 0.44195 0.30222 0.0
H1827 H 0.76483 0.55278 0.22139 0.0
H1828 H 0.65817 0.05002 0.84321 0.0
H1829 H 0.65904 0.04977 0.81393 0.0
H1830 H 0.6737 0.9228 0.81398 0.0
H1831 H 0.67211 0.92241 0.84363 0.0
H1832 H 0.69963 0.9773 0.79017 0.0
H1833 H 0.62487 0.93791 0.80608 0.0
H1834 H 0.59005 0.94313 0.8222 0.0
H1835 H 0.57871 0.06241 0.80412 0.0
H1836 H 0.61368 0.05816 0.78808 0.0
H1837 H 0.67472 0.98679 0.70503 0.0
H1838 H 0.67632 0.96231 0.73292 0.0
H1839 H 0.6437 0.0711 0.74915 0.0
H1840 H 0.64127 0.09472 0.72154 0.0
H1841 H 0.62642 0.01009 0.76429 0.0
H1842 H 0.70228 0.05477 0.75187 0.0
H1843 H 0.73805 0.05443 0.73669 0.0
H1844 H 0.74809 0.93002 0.74859 0.0
H1845 H 0.7122 0.92952 0.76369 0.0
C1846 C 0.66153 0.02188 0.83711 0.0
C1847 C 0.66459 0.98602 0.84585 0.0
C1848 C 0.6622 0.02191 0.82032 0.0
C1849 C 0.66617 0.98622 0.81178 0.0
C1850 C 0.67058 0.95068 0.82037 0.0
C1851 C 0.66971 0.95053 0.8373 0.0
C1852 C 0.66409 0.98647 0.79394 0.0
C1853 C 0.68357 0.98347 0.78441 0.0
C1854 C 0.64319 0.9953 0.7865 0.0
C1855 C 0.62198 -0.00221 0.79596 0.0
C1856 C 0.61504 0.96537 0.80563 0.0
C1857 C 0.59526 0.96813 0.81474 0.0
C1858 C 0.58219 0.0031 0.8142 0.0
C1859 C 0.58885 0.03534 0.80452 0.0
C1860 C 0.60864 0.03275 0.79541 0.0
C1861 C 0.66764 0.0052 0.71453 0.0
C1862 C 0.65808 0.04298 0.711 0.0
C1863 C 0.66876 0.99135 0.7305 0.0
C1864 C 0.66039 0.01506 0.74323 0.0
C1865 C 0.65035 0.05221 0.73962 0.0
C1866 C 0.64918 0.06593 0.72376 0.0
C1867 C 0.66209 0.00212 0.76041 0.0
C1868 C 0.64246 0.00289 0.76989 0.0
C1869 C 0.6829 0.99167 0.76777 0.0
C1870 C 0.70444 0.99197 0.75871 0.0
C1871 C 0.71203 0.02726 0.75113 0.0
C1872 C 0.73234 0.02724 0.74257 0.0
C1873 C 0.7453 0.99218 0.74163 0.0
C1874 C 0.73801 0.95712 0.7493 0.0
C1875 C 0.71769 0.95697 0.75786 0.0
H1876 H 0.76102 0.99223 0.735 0.0
H1877 H 0.56689 0.00519 0.82127 0.0
H1878 H 0.31545 0.38373 0.72376 0.0
H1879 H 0.31999 0.4022 0.75206 0.0
H1880 H 0.34746 0.51698 0.73788 0.0
H1881 H 0.34308 0.49828 0.70941 0.0
H1882 H 0.36984 0.4866 0.76347 0.0
H1883 H 0.29215 0.50772 0.7494 0.0
H1884 H 0.25488 0.48871 0.73859 0.0
H1885 H 0.24924 0.39543 0.7741 0.0
H1886 H 0.28664 0.41352 0.78498 0.0
H1887 H 0.35595 0.58958 0.83636 0.0
H1888 H 0.35092 0.56848 0.80843 0.0
H1889 H 0.32459 0.45444 0.82455 0.0
H1890 H 0.32946 0.4759 0.85274 0.0
H1891 H 0.30175 0.48256 0.79826 0.0
H1892 H 0.3792 0.46227 0.81262 0.0
H1893 H 0.4164 0.48157 0.82347 0.0
H1894 H 0.42246 0.57338 0.78739 0.0
H1895 H 0.38514 0.55501 0.77647 0.0
C1896 C 0.3226 0.4128 0.72668 0.0
C1897 C 0.32871 0.43971 0.71437 0.0
C1898 C 0.32512 0.42338 0.74286 0.0
C1899 C 0.33356 0.46136 0.74713 0.0
C1900 C 0.34076 0.48759 0.73488 0.0
C1901 C 0.33837 0.47685 0.71862 0.0
C1902 C 0.33426 0.47392 0.76435 0.0
C1903 C 0.35489 0.48622 0.77101 0.0
C1904 C 0.31486 0.47247 0.77435 0.0
C1905 C 0.29229 0.46174 0.76791 0.0
C1906 C 0.28303 0.48297 0.75483 0.0
C1907 C 0.26188 0.47238 0.7487 0.0
C1908 C 0.24973 0.44082 0.75563 0.0
C1909 C 0.25868 0.41984 0.76873 0.0
C1910 C 0.27985 0.43027 0.7749 0.0
C1911 C 0.34895 0.56009 0.83396 0.0
C1912 C 0.34339 0.53414 0.84671 0.0
C1913 C 0.34612 0.54803 0.81799 0.0
C1914 C 0.33794 0.50947 0.81436 0.0
C1915 C 0.33113 0.48422 0.82706 0.0
C1916 C 0.33382 0.49649 0.84314 0.0
C1917 C 0.33731 0.49542 0.79733 0.0
C1918 C 0.3167 0.48284 0.79072 0.0
C1919 C 0.35673 0.49661 0.78737 0.0
C1920 C 0.37929 0.50747 0.79381 0.0
C1921 C 0.3884 0.48675 0.80707 0.0
C1922 C 0.40952 0.4975 0.81322 0.0
C1923 C 0.42176 0.52874 0.80615 0.0
C1924 C 0.41295 0.54922 0.79287 0.0
C1925 C 0.39182 0.53862 0.78668 0.0
H1926 H 0.43811 0.53703 0.81093 0.0
H1927 H 0.23335 0.43266 0.75087 0.0
H1928 H 0.82901 0.51133 0.8322 0.0
H1929 H 0.82953 0.53106 0.80367 0.0
H1930 H 0.86742 0.42411 0.79212 0.0
H1931 H 0.86714 0.40457 0.82041 0.0
H1932 H 0.86262 0.54375 0.77926 0.0
H1933 H 0.84233 0.38108 0.75952 0.0
H1934 H 0.82434 0.32004 0.77051 0.0
H1935 H 0.78382 0.39274 0.80205 0.0
H1936 H 0.8013 0.45416 0.79107 0.0
H1937 H 0.86225 0.53789 0.69227 0.0
H1938 H 0.87104 0.52308 0.72061 0.0
H1939 H 0.80069 0.49812 0.7295 0.0
H1940 H 0.79217 0.51042 0.70144 0.0
H1941 H 0.8238 0.44513 0.74392 0.0
H1942 H 0.82794 0.59027 0.74013 0.0
H1943 H 0.84264 0.65449 0.7296 0.0
H1944 H 0.90926 0.62322 0.74566 0.0
H1945 H 0.89498 0.55858 0.75612 0.0
C1946 C 0.83784 0.49252 0.82362 0.0
C1947 C 0.84764 0.45597 0.82854 0.0
C1948 C 0.83816 0.50382 0.80733 0.0
C1949 C 0.84825 0.47875 0.79573 0.0
C1950 C 0.85926 0.44364 0.8008 0.0
C1951 C 0.85893 0.43236 0.81699 0.0
C1952 C 0.84541 0.48679 0.77822 0.0
C1953 C 0.85419 0.52222 0.77149 0.0
C1954 C 0.83421 0.4589 0.7681 0.0
C1955 C 0.82334 0.42214 0.7746 0.0
C1956 C 0.82953 0.38401 0.76876 0.0
C1957 C 0.81942 0.34936 0.77499 0.0
C1958 C 0.80301 0.3525 0.78701 0.0
C1959 C 0.7966 0.39032 0.79278 0.0
C1960 C 0.80662 0.42505 0.78657 0.0
C1961 C 0.84877 0.52873 0.70025 0.0
C1962 C 0.82645 0.52595 0.69454 0.0
C1963 C 0.85375 0.52072 0.7165 0.0
C1964 C 0.83646 0.51005 0.72734 0.0
C1965 C 0.81436 0.5064 0.72149 0.0
C1966 C 0.80945 0.51397 0.70537 0.0
C1967 C 0.84089 0.50234 0.74477 0.0
C1968 C 0.83244 0.4667 0.75156 0.0
C1969 C 0.8519 0.53053 0.75492 0.0
C1970 C 0.86044 0.56946 0.74875 0.0
C1971 C 0.84575 0.59699 0.74132 0.0
C1972 C 0.854 0.63347 0.73538 0.0
C1973 C 0.87688 0.64288 0.73692 0.0
C1974 C 0.89154 0.61587 0.74446 0.0
C1975 C 0.88338 0.57933 0.7504 0.0
H1976 H 0.88324 0.67112 0.73231 0.0
H1977 H 0.79522 0.32564 0.79183 0.0
H1978 H 0.15333 0.09933 0.81741 0.0
H1979 H 0.15825 0.08179 0.78907 0.0
H1980 H 0.18248 0.96434 0.80275 0.0
H1981 H 0.17767 0.98219 0.83138 0.0
H1982 H 0.20524 0.99519 0.77595 0.0
H1983 H 0.12847 0.97542 0.7925 0.0
H1984 H 0.09223 0.99485 0.80485 0.0
H1985 H 0.08499 0.09066 0.77059 0.0
H1986 H 0.12139 0.07217 0.75818 0.0
H1987 H 0.17911 0.89255 0.70331 0.0
H1988 H 0.18267 0.91664 0.73089 0.0
H1989 H 0.15471 0.03116 0.71687 0.0
H1990 H 0.15051 0.00661 0.68909 0.0
H1991 H 0.13482 0.00335 0.74374 0.0
H1992 H 0.21093 0.02101 0.72628 0.0
H1993 H 0.24715 0.00133 0.71398 0.0
H1994 H 0.25567 0.90916 0.74966 0.0
H1995 H 0.21932 0.9279 0.76205 0.0
C1996 C 0.15999 0.06993 0.81439 0.0
C1997 C 0.16482 0.04191 0.8266 0.0
C1998 C 0.16277 0.05992 0.79818 0.0
C1999 C 0.17023 0.02142 0.79373 0.0
C2000 C 0.17656 0.99417 0.80589 0.0
C2001 C 0.17389 0.00436 0.82223 0.0
C2002 C 0.1698 0.00914 0.77644 0.0
C2003 C 0.18981 0.99648 0.76894 0.0
C2004 C 0.14976 0.01169 0.76716 0.0
C2005 C 0.12776 0.02265 0.77451 0.0
C2006 C 0.11923 0.00082 0.78767 0.0
C2007 C 0.09866 0.01164 0.79468 0.0
C2008 C 0.08635 0.04403 0.78854 0.0
C2009 C 0.09456 0.06561 0.77535 0.0
C2010 C 0.11516 0.05496 0.76832 0.0
C2011 C 0.17364 0.92286 0.70604 0.0
C2012 C 0.16427 0.94748 0.69396 0.0
C2013 C 0.17596 0.9368 0.72184 0.0
C2014 C 0.16915 0.97587 0.72601 0.0
C2015 C 0.16015 0.0009 0.71395 0.0
C2016 C 0.15787 0.98695 0.69805 0.0
C2017 C 0.1703 0.98949 0.74314 0.0
C2018 C 0.15033 0.00227 0.75066 0.0
C2019 C 0.19037 0.98693 0.7524 0.0
C2020 C 0.21229 0.97565 0.74501 0.0
C2021 C 0.22043 0.99633 0.73143 0.0
C2022 C 0.24101 0.98538 0.72446 0.0
C2023 C 0.25368 0.95395 0.73101 0.0
C2024 C 0.24583 0.93347 0.74458 0.0
C2025 C 0.22525 0.94428 0.7516 0.0
H2026 H 0.26961 0.94552 0.72559 0.0
H2027 H 0.07042 0.05237 0.79398 0.0
H2028 H 0.14443 0.50384 0.35233 0.0
H2029 H 0.14771 0.52573 0.32421 0.0
H2030 H 0.16996 0.40693 0.3106 0.0
H2031 H 0.16733 0.3853 0.33856 0.0
H2032 H 0.19457 0.46345 0.29553 0.0
H2033 H 0.1156 0.4366 0.30419 0.0
H2034 H 0.07889 0.44399 0.31786 0.0
H2035 H 0.0784 0.57022 0.30693 0.0
H2036 H 0.11527 0.56366 0.29337 0.0
H2037 H 0.17956 0.48146 0.21053 0.0
H2038 H 0.17651 0.45846 0.23852 0.0
H2039 H 0.14989 0.57424 0.25237 0.0
H2040 H 0.15195 0.59659 0.22456 0.0
H2041 H 0.12754 0.51861 0.26739 0.0
H2042 H 0.20623 0.54658 0.259 0.0
H2043 H 0.24319 0.54041 0.24557 0.0
H2044 H 0.24467 0.41407 0.25626 0.0
H2045 H 0.20756 0.4194 0.26958 0.0
C2046 C 0.15021 0.48251 0.34338 0.0
C2047 C 0.15529 0.44262 0.34774 0.0
C2048 C 0.15193 0.49497 0.32727 0.0
C2049 C 0.15877 0.46779 0.3152 0.0
C2050 C 0.16452 0.4284 0.31963 0.0
C2051 C 0.16277 0.41595 0.33565 0.0
C2052 C 0.15956 0.47985 0.29791 0.0
C2053 C 0.17984 0.47512 0.28934 0.0
C2054 C 0.1405 0.49575 0.28984 0.0
C2055 C 0.11829 0.49971 0.29791 0.0
C2056 C 0.10774 0.46598 0.30481 0.0
C2057 C 0.08689 0.47001 0.31252 0.0
C2058 C 0.07634 0.50757 0.3133 0.0
C2059 C 0.0866 0.54116 0.30633 0.0
C2060 C 0.10747 0.5373 0.29862 0.0
C2061 C 0.17281 0.50181 0.21951 0.0
C2062 C 0.16632 0.54111 0.21525 0.0
C2063 C 0.17128 0.48878 0.23556 0.0
C2064 C 0.16334 0.51485 0.2477 0.0
C2065 C 0.15621 0.55357 0.24333 0.0
C2066 C 0.15764 0.56649 0.22736 0.0
C2067 C 0.16259 0.50237 0.26497 0.0
C2068 C 0.1423 0.50698 0.27356 0.0
C2069 C 0.18168 0.48657 0.27307 0.0
C2070 C 0.20402 0.48331 0.26513 0.0
C2071 C 0.21437 0.51743 0.25838 0.0
C2072 C 0.23535 0.51409 0.25081 0.0
C2073 C 0.24624 0.47685 0.25002 0.0
C2074 C 0.2362 0.44289 0.25685 0.0
C2075 C 0.2152 0.44605 0.26442 0.0
H2076 H 0.26249 0.47433 0.24415 0.0
H2077 H 0.0602 0.51063 0.31928 0.0
H2078 H 0.83457 0.09092 0.33406 0.0
H2079 H 0.82655 0.07254 0.30607 0.0
H2080 H 0.80882 0.95258 0.32122 0.0
H2081 H 0.81656 0.97133 0.34942 0.0
H2082 H 0.84222 0.95644 0.29664 0.0
H2083 H 0.76856 0.00884 0.30693 0.0
H2084 H 0.74082 0.05873 0.31648 0.0
H2085 H 0.76575 0.14466 0.28226 0.0
H2086 H 0.79389 0.09549 0.27266 0.0
H2087 H 0.82676 0.8984 0.21649 0.0
H2088 H 0.81664 0.91042 0.24474 0.0
H2089 H 0.82176 0.03845 0.23684 0.0
H2090 H 0.83079 0.026 0.20834 0.0
H2091 H 0.79046 0.02517 0.25858 0.0
H2092 H 0.8668 0.98052 0.25116 0.0
H2093 H 0.89697 0.935 0.24183 0.0
H2094 H 0.87005 0.83988 0.27102 0.0
H2095 H 0.83949 0.8847 0.28034 0.0
C2096 C 0.82855 0.06086 0.33142 0.0
C2097 C 0.8262 0.0325 0.34385 0.0
C2098 C 0.82388 0.05043 0.31546 0.0
C2099 C 0.81701 0.01123 0.31154 0.0
C2100 C 0.814 0.98307 0.32399 0.0
C2101 C 0.81829 0.99379 0.34007 0.0
C2102 C 0.81514 -0.00087 0.29433 0.0
C2103 C 0.83051 0.97071 0.28838 0.0
C2104 C 0.80044 0.01889 0.28346 0.0
C2105 C 0.78346 0.04852 0.28915 0.0
C2106 C 0.76826 0.03848 0.30152 0.0
C2107 C 0.75244 0.06662 0.30693 0.0
C2108 C 0.75155 0.10486 0.3 0.0
C2109 C 0.76646 0.11502 0.28762 0.0
C2110 C 0.78234 0.087 0.28218 0.0
C2111 C 0.82493 0.92903 0.22075 0.0
C2112 C 0.82936 0.96132 0.21037 0.0
C2113 C 0.81941 0.93596 0.23689 0.0
C2114 C 0.81903 0.97535 0.2431 0.0
C2115 C 0.82201 0.00778 0.23242 0.0
C2116 C 0.8271 0.00078 0.21615 0.0
C2117 C 0.81765 0.98253 0.26084 0.0
C2118 C 0.80185 0.01027 0.26687 0.0
C2119 C 0.83229 0.96274 0.27181 0.0
C2120 C 0.85071 0.93581 0.2663 0.0
C2121 C 0.86722 0.94981 0.2555 0.0
C2122 C 0.8844 0.92415 0.25022 0.0
C2123 C 0.88538 0.88454 0.25579 0.0
C2124 C 0.86923 0.87054 0.26669 0.0
C2125 C 0.85198 0.89606 0.27198 0.0
H2126 H 0.8987 0.86472 0.2517 0.0
H2127 H 0.73929 0.12661 0.3042 0.0
H2128 H 0.56381 0.37467 0.13203 0.0
H2129 H 0.53029 0.33314 0.12826 0.0
H2130 H 0.5573 0.2886 0.08338 0.0
H2131 H 0.59116 0.32982 0.08724 0.0
H2132 H 0.49783 0.32871 0.10708 0.0
H2133 H 0.54145 0.19057 0.0786 0.0
H2134 H 0.57892 0.15814 0.07795 0.0
H2135 H 0.59454 0.20842 0.1243 0.0
H2136 H 0.55707 0.24067 0.12531 0.0
H2137 H 0.41109 0.18814 0.08809 0.0
H2138 H 0.44434 0.23144 0.08523 0.0
H2139 H 0.47787 0.16529 0.123 0.0
H2140 H 0.44499 0.12181 0.12572 0.0
H2141 H 0.50685 0.18125 0.10035 0.0
H2142 H 0.45109 0.25665 0.12993 0.0
H2143 H 0.41384 0.28788 0.13438 0.0
H2144 H 0.423 0.36142 0.0924 0.0
H2145 H 0.4602 0.3302 0.08758 0.0
C2146 C 0.56249 0.35644 0.12124 0.0
C2147 C 0.58016 0.35539 0.10996 0.0
C2148 C 0.54331 0.33268 0.1191 0.0
C2149 C 0.54134 0.30742 0.10562 0.0
C2150 C 0.55862 0.30732 0.09402 0.0
C2151 C 0.57795 0.33084 0.09624 0.0
C2152 C 0.52158 0.28014 0.10417 0.0
C2153 C 0.49981 0.29651 0.10547 0.0
C2154 C 0.52411 0.23802 0.10231 0.0
C2155 C 0.54658 0.21841 0.10192 0.0
C2156 C 0.55287 0.1946 0.08866 0.0
C2157 C 0.5741 0.17626 0.08823 0.0
C2158 C 0.58913 0.18135 0.10105 0.0
C2159 C 0.58292 0.20464 0.11435 0.0
C2160 C 0.5617 0.22298 0.11485 0.0
C2161 C 0.42561 0.18281 0.09573 0.0
C2162 C 0.42543 0.15159 0.10714 0.0
C2163 C 0.44459 0.20754 0.09408 0.0
C2164 C 0.46354 0.20189 0.10401 0.0
C2165 C 0.46353 0.17013 0.11513 0.0
C2166 C 0.44471 0.14524 0.11667 0.0
C2167 C 0.48311 0.22978 0.10341 0.0
C2168 C 0.50485 0.21353 0.10168 0.0
C2169 C 0.48058 0.27186 0.10538 0.0
C2170 C 0.45829 0.29077 0.10829 0.0
C2171 C 0.44508 0.27927 0.12158 0.0
C2172 C 0.42399 0.29699 0.12418 0.0
C2173 C 0.41603 0.32653 0.11365 0.0
C2174 C 0.42917 0.33848 0.10053 0.0
C2175 C 0.45025 0.3208 0.09786 0.0
H2176 H 0.3997 0.34022 0.11568 0.0
H2177 H 0.60557 0.16716 0.10068 0.0
H2178 H 0.42944 0.89076 0.3995 0.0
H2179 H 0.46527 0.85424 0.39963 0.0
H2180 H 0.43557 0.76094 0.37026 0.0
H2181 H 0.39945 0.79673 0.37071 0.0
H2182 H 0.45862 0.72735 0.39227 0.0
H2183 H 0.47472 0.83408 0.35549 0.0
H2184 H 0.47735 0.90422 0.34604 0.0
H2185 H 0.52396 0.93149 0.38412 0.0
H2186 H 0.52137 0.86162 0.39394 0.0
H2187 H 0.56139 0.63481 0.36825 0.0
H2188 H 0.52732 0.67593 0.36724 0.0
H2189 H 0.55131 0.74645 0.40731 0.0
H2190 H 0.58508 0.70432 0.409 0.0
H2191 H 0.53209 0.79187 0.37992 0.0
H2192 H 0.51491 0.68225 0.41608 0.0
H2193 H 0.51265 0.61072 0.42374 0.0
H2194 H 0.46801 0.58789 0.38403 0.0
H2195 H 0.47029 0.65922 0.37598 0.0
C2196 C 0.43067 0.86264 0.39295 0.0
C2197 C 0.41173 0.84663 0.38503 0.0
C2198 C 0.45118 0.84182 0.39297 0.0
C2199 C 0.45333 0.80503 0.38473 0.0
C2200 C 0.4344 0.78921 0.37671 0.0
C2201 C 0.41378 0.80967 0.37694 0.0
C2202 C 0.47502 0.7823 0.38496 0.0
C2203 C 0.47459 0.74148 0.38932 0.0
C2204 C 0.49606 0.80067 0.38143 0.0
C2205 C 0.49767 0.84271 0.37555 0.0
C2206 C 0.4854 0.85511 0.36193 0.0
C2207 C 0.4869 0.89481 0.35649 0.0
C2208 C 0.50077 0.92232 0.3645 0.0
C2209 C 0.5132 0.91016 0.37794 0.0
C2210 C 0.51174 0.8705 0.38344 0.0
C2211 C 0.55943 0.65875 0.37699 0.0
C2212 C 0.576 0.66577 0.38884 0.0
C2213 C 0.53999 0.68245 0.37628 0.0
C2214 C 0.53678 0.71402 0.38725 0.0
C2215 C 0.55356 0.72224 0.3987 0.0
C2216 C 0.57291 0.69818 0.39958 0.0
C2217 C 0.51545 0.7373 0.38712 0.0
C2218 C 0.51602 0.77805 0.38281 0.0
C2219 C 0.4945 0.71879 0.39043 0.0
C2220 C 0.49296 0.67598 0.39534 0.0
C2221 C 0.50477 0.66191 0.4089 0.0
C2222 C 0.50346 0.62141 0.41333 0.0
C2223 C 0.49024 0.59475 0.40435 0.0
C2224 C 0.47826 0.60857 0.39096 0.0
C2225 C 0.47955 0.64903 0.38646 0.0
H2226 H 0.48925 0.56341 0.4078 0.0
H2227 H 0.50191 0.95304 0.36027 0.0
H2228 H 0.60124 0.78471 0.91424 0.0
H2229 H 0.56814 0.7429 0.91868 0.0
H2230 H 0.52716 0.84926 0.92451 0.0
H2231 H 0.56049 0.89123 0.9216 0.0
H2232 H 0.5139 0.79855 0.94501 0.0
H2233 H 0.52877 0.78947 0.8885 0.0
H2234 H 0.55123 0.77703 0.86398 0.0
H2235 H 0.56117 0.65415 0.87822 0.0
H2236 H 0.539 0.666 0.90294 0.0
H2237 H 0.40828 0.70667 0.92174 0.0
H2238 H 0.44289 0.74628 0.92239 0.0
H2239 H 0.48065 0.64123 0.93636 0.0
H2240 H 0.44596 0.60161 0.9368 0.0
H2241 H 0.49566 0.68855 0.90672 0.0
H2242 H 0.4773 0.70129 0.96325 0.0
H2243 H 0.45215 0.71727 0.98603 0.0
H2244 H 0.44553 0.8387 0.96908 0.0
H2245 H 0.47039 0.82326 0.94604 0.0
C2246 C 0.5853 0.79937 0.91673 0.0
C2247 C 0.58371 0.84162 0.91744 0.0
C2248 C 0.56624 0.77529 0.91902 0.0
C2249 C 0.54496 0.79281 0.92159 0.0
C2250 C 0.54332 0.8349 0.92245 0.0
C2251 C 0.56244 0.85897 0.92052 0.0
C2252 C 0.5244 0.76744 0.92344 0.0
C2253 C 0.50987 0.77482 0.9365 0.0
C2254 C 0.51911 0.736 0.9125 0.0
C2255 C 0.53243 0.72875 0.89765 0.0
C2256 C 0.53589 0.75988 0.88646 0.0
C2257 C 0.54854 0.75292 0.87252 0.0
C2258 C 0.55767 0.71486 0.86957 0.0
C2259 C 0.55411 0.68364 0.88053 0.0
C2260 C 0.54149 0.69045 0.8945 0.0
C2261 C 0.42374 0.692 0.92542 0.0
C2262 C 0.42414 0.65064 0.92914 0.0
C2263 C 0.44357 0.71474 0.92563 0.0
C2264 C 0.46425 0.69655 0.92934 0.0
C2265 C 0.4648 0.65565 0.93337 0.0
C2266 C 0.44492 0.63302 0.93348 0.0
C2267 C 0.48541 0.71992 0.92818 0.0
C2268 C 0.49993 0.71219 0.91522 0.0
C2269 C 0.49038 0.75161 0.93895 0.0
C2270 C 0.47552 0.76099 0.95283 0.0
C2271 C 0.47031 0.73129 0.96429 0.0
C2272 C 0.45614 0.74028 0.97727 0.0
C2273 C 0.4472 0.77895 0.97898 0.0
C2274 C 0.45245 0.80874 0.96773 0.0
C2275 C 0.46659 0.7999 0.95472 0.0
H2276 H 0.43624 0.78585 0.98904 0.0
H2277 H 0.56746 0.70953 0.85877 0.0
H2278 H 0.43813 0.40925 0.64502 0.0
H2279 H 0.47385 0.37233 0.64414 0.0
H2280 H 0.43745 0.26103 0.63783 0.0
H2281 H 0.40176 0.29739 0.63932 0.0
H2282 H 0.46961 0.25304 0.6599 0.0
H2283 H 0.4644 0.3078 0.60626 0.0
H2284 H 0.46045 0.3618 0.58611 0.0
H2285 H 0.52075 0.41805 0.60389 0.0
H2286 H 0.52489 0.36464 0.62429 0.0
H2287 H 0.55414 0.12087 0.63385 0.0
H2288 H 0.52114 0.16485 0.63404 0.0
H2289 H 0.56396 0.26753 0.6427 0.0
H2290 H 0.59718 0.22354 0.64261 0.0
H2291 H 0.53031 0.28372 0.62062 0.0
H2292 H 0.53637 0.22732 0.67346 0.0
H2293 H 0.5405 0.17289 0.69339 0.0
H2294 H 0.47852 0.1198 0.67708 0.0
H2295 H 0.47418 0.17362 0.65687 0.0
C2296 C 0.43774 0.37688 0.64357 0.0
C2297 C 0.41708 0.35626 0.64222 0.0
C2298 C 0.45817 0.35589 0.6429 0.0
C2299 C 0.45831 0.31398 0.64076 0.0
C2300 C 0.43774 0.29338 0.63944 0.0
C2301 C 0.41735 0.31427 0.64016 0.0
C2302 C 0.4798 0.29118 0.64024 0.0
C2303 C 0.48277 0.2595 0.65119 0.0
C2304 C 0.49726 0.3004 0.6292 0.0
C2305 C 0.49481 0.33247 0.61692 0.0
C2306 C 0.47671 0.33187 0.60596 0.0
C2307 C 0.47446 0.36233 0.59448 0.0
C2308 C 0.4903 0.3934 0.59375 0.0
C2309 C 0.50847 0.394 0.60448 0.0
C2310 C 0.51078 0.36363 0.616 0.0
C2311 C 0.55655 0.1528 0.63583 0.0
C2312 C 0.57823 0.16868 0.63842 0.0
C2313 C 0.53769 0.17789 0.63589 0.0
C2314 C 0.5401 0.21931 0.63865 0.0
C2315 C 0.56177 0.23559 0.64059 0.0
C2316 C 0.58071 0.21046 0.6405 0.0
C2317 C 0.51984 0.24517 0.64005 0.0
C2318 C 0.51717 0.27746 0.62935 0.0
C2319 C 0.5026 0.23657 0.65132 0.0
C2320 C 0.50505 0.20434 0.66356 0.0
C2321 C 0.5237 0.20389 0.67405 0.0
C2322 C 0.52607 0.17316 0.6854 0.0
C2323 C 0.50981 0.14286 0.68648 0.0
C2324 C 0.49111 0.14328 0.67622 0.0
C2325 C 0.48868 0.17391 0.66483 0.0
H2326 H 0.51167 0.11909 0.69528 0.0
H2327 H 0.48853 0.41695 0.58485 0.0
H2328 H 0.90434 0.69436 0.63207 0.0
H2329 H 0.94071 0.72814 0.62958 0.0
H2330 H 0.97414 0.61331 0.62579 0.0
H2331 H 0.93767 0.57904 0.62771 0.0
H2332 H 0.99571 0.6708 0.64696 0.0
H2333 H 0.96754 0.6604 0.59296 0.0
H2334 H 0.939 0.66711 0.57152 0.0
H2335 H 0.9367 0.79483 0.57917 0.0
H2336 H 0.96498 0.7888 0.60084 0.0
H2337 H 0.09884 0.76433 0.62407 0.0
H2338 H 0.06618 0.71938 0.62396 0.0
H2339 H 0.02184 0.82168 0.6192 0.0
H2340 H 0.05435 0.86648 0.61843 0.0
H2341 H 0.00754 0.76324 0.60082 0.0
H2342 H 0.03208 0.77447 0.65606 0.0
H2343 H 0.05929 0.76972 0.67846 0.0
H2344 H 0.06727 0.64324 0.66953 0.0
H2345 H 0.04031 0.64736 0.64692 0.0
C2346 C 0.91937 0.67618 0.63061 0.0
C2347 C 0.91801 0.63395 0.62993 0.0
C2348 C 0.94015 0.69556 0.62927 0.0
C2349 C 0.96001 0.67316 0.62733 0.0
C2350 C 0.95893 0.63104 0.62728 0.0
C2351 C 0.93808 0.61155 0.62846 0.0
C2352 C 0.98174 0.69415 0.62494 0.0
C2353 C 0.99854 0.69048 0.63674 0.0
C2354 C 0.98513 0.7203 0.61175 0.0
C2355 C 0.96826 0.72409 0.59861 0.0
C2356 C 0.96082 0.68988 0.59016 0.0
C2357 C 0.94471 0.69356 0.57795 0.0
C2358 C 0.93601 0.73136 0.57401 0.0
C2359 C 0.94344 0.76557 0.58224 0.0
C2360 C 0.95954 0.76204 0.59448 0.0
C2361 C 0.08216 0.7772 0.62271 0.0
C2362 C 0.07922 0.81908 0.62141 0.0
C2363 C 0.06349 0.75149 0.62284 0.0
C2364 C 0.04153 0.76722 0.62187 0.0
C2365 C 0.03861 0.80886 0.62006 0.0
C2366 C 0.05723 0.83449 0.6198 0.0
C2367 C 0.02146 0.7407 0.62304 0.0
C2368 C 0.00492 0.74326 0.61098 0.0
C2369 C 0.01824 0.71386 0.63609 0.0
C2370 C 0.03439 0.71132 0.64969 0.0
C2371 C 0.03977 0.74571 0.6588 0.0
C2372 C 0.05513 0.74312 0.67154 0.0
C2373 C 0.06506 0.70623 0.67538 0.0
C2374 C 0.0596 0.67181 0.66652 0.0
C2375 C 0.04428 0.67425 0.65374 0.0
H2376 H 0.07694 0.70428 0.68526 0.0
H2377 H 0.92353 0.73416 0.56455 0.0
H2378 H 0.06102 0.10327 0.91974 0.0
H2379 H 0.02609 0.14203 0.92149 0.0
H2380 H 0.06098 0.24765 0.9047 0.0
H2381 H 0.09574 0.20887 0.902 0.0
H2382 H 0.02962 0.25841 0.93255 0.0
H2383 H 0.03396 0.20345 0.87836 0.0
H2384 H 0.03822 0.14813 0.85878 0.0
H2385 H 0.97993 0.08942 0.87852 0.0
H2386 H 0.97555 0.14415 0.8984 0.0
H2387 H 0.94381 0.38879 0.9065 0.0
H2388 H 0.97706 0.34676 0.90975 0.0
H2389 H 0.93495 0.24097 0.91147 0.0
H2390 H 0.90157 0.2827 0.90707 0.0
H2391 H 0.96905 0.22617 0.89332 0.0
H2392 H 0.96174 0.28146 0.94587 0.0
H2393 H 0.95696 0.33412 0.96653 0.0
H2394 H 0.01938 0.38866 0.95199 0.0
H2395 H 0.02438 0.33664 0.93108 0.0
C2396 C 0.06135 0.13465 0.91629 0.0
C2397 C 0.0813 0.15266 0.91052 0.0
C2398 C 0.04137 0.15681 0.91746 0.0
C2399 C 0.04101 0.19756 0.91315 0.0
C2400 C 0.061 0.21622 0.90814 0.0
C2401 C 0.08091 0.19395 0.9067 0.0
C2402 C 0.0195 0.22015 0.91294 0.0
C2403 C 0.01639 0.25171 0.92392 0.0
C2404 C 0.00206 0.21035 0.90201 0.0
C2405 C 0.0046 0.17762 0.88999 0.0
C2406 C 0.02218 0.17855 0.87863 0.0
C2407 C 0.0246 0.14735 0.86745 0.0
C2408 C 0.0094 0.11521 0.86744 0.0
C2409 C 0.99172 0.11429 0.87857 0.0
C2410 C 0.98926 0.14539 0.88979 0.0
C2411 C 0.94154 0.35656 0.90739 0.0
C2412 C 0.91991 0.33923 0.9064 0.0
C2413 C 0.96062 0.33255 0.90953 0.0
C2414 C 0.95856 0.29067 0.91114 0.0
C2415 C 0.937 0.27323 0.91035 0.0
C2416 C 0.91788 0.29722 0.90798 0.0
C2417 C 0.97903 0.26511 0.91287 0.0
C2418 C 0.98204 0.23286 0.90213 0.0
C2419 C 0.99623 0.27396 0.92422 0.0
C2420 C 0.99334 0.30529 0.93681 0.0
C2421 C 0.97437 0.30484 0.94699 0.0
C2422 C 0.97163 0.33456 0.95876 0.0
C2423 C 0.98783 0.36477 0.96055 0.0
C2424 C 0.00683 0.36526 0.95058 0.0
C2425 C 0.00964 0.33563 0.93878 0.0
H2426 H 0.98569 0.38775 0.96967 0.0
H2427 H 0.01129 0.09109 0.85877 0.0
H2428 H 0.09386 0.2724 0.42827 0.0
H2429 H 0.06084 0.22953 0.43176 0.0
H2430 H 0.01776 0.33419 0.43115 0.0
H2431 H 0.05074 0.37743 0.42892 0.0
H2432 H 0.00197 0.28461 0.45188 0.0
H2433 H 0.02693 0.27184 0.39705 0.0
H2434 H 0.054 0.25783 0.37518 0.0
H2435 H 0.06191 0.13669 0.39218 0.0
H2436 H 0.03509 0.15016 0.41429 0.0
H2437 H 0.90023 0.19734 0.42149 0.0
H2438 H 0.93518 0.23492 0.42525 0.0
H2439 H 0.96987 0.12556 0.43803 0.0
H2440 H 0.93475 0.08777 0.43512 0.0
H2441 H 0.99082 0.17295 0.41296 0.0
H2442 H 0.96138 0.18737 0.46658 0.0
H2443 H 0.93243 0.20414 0.48683 0.0
H2444 H 0.93074 0.3261 0.4699 0.0
H2445 H 0.95945 0.30992 0.44937 0.0
C2446 C 0.07743 0.28646 0.42922 0.0
C2447 C 0.07505 0.32851 0.4281 0.0
C2448 C 0.05849 0.26178 0.431 0.0
C2449 C 0.03671 0.27849 0.43133 0.0
C2450 C 0.03434 0.32047 0.43079 0.0
C2451 C 0.05326 0.34519 0.42928 0.0
C2452 C 0.01631 0.25242 0.43176 0.0
C2453 C -0.0005 0.26041 0.44327 0.0
C2454 C 0.01313 0.22035 0.42072 0.0
C2455 C 0.02921 0.21215 0.40742 0.0
C2456 C 0.03458 0.24231 0.39619 0.0
C2457 C 0.04985 0.23445 0.38375 0.0
C2458 C 0.05972 0.19643 0.38232 0.0
C2459 C 0.05428 0.16615 0.39332 0.0
C2460 C 0.03904 0.17387 0.4058 0.0
C2461 C 0.91509 0.18125 0.42549 0.0
C2462 C 0.91454 0.13933 0.42794 0.0
C2463 C 0.93511 0.20283 0.42753 0.0
C2464 C 0.95506 0.18297 0.43191 0.0
C2465 C 0.95463 0.14135 0.43457 0.0
C2466 C 0.93453 0.11979 0.43278 0.0
C2467 C 0.97655 0.20552 0.43293 0.0
C2468 C 0.99349 0.19689 0.42166 0.0
C2469 C 0.97963 0.23747 0.44396 0.0
C2470 C 0.96243 0.24733 0.45634 0.0
C2471 C 0.9547 0.21768 0.46708 0.0
C2472 C 0.93836 0.2271 0.47863 0.0
C2473 C 0.92971 0.26614 0.47963 0.0
C2474 C 0.93743 0.29587 0.4691 0.0
C2475 C 0.95376 0.2866 0.45752 0.0
H2476 H 0.91706 0.27337 0.48858 0.0
H2477 H 0.07154 0.1904 0.37268 0.0
H2478 H 0.94875 0.89395 0.12597 0.0
H2479 H 0.98333 0.85433 0.12593 0.0
H2480 H 0.94602 0.75022 0.1418 0.0
H2481 H 0.91168 0.79033 0.14305 0.0
H2482 H 0.9822 0.75474 0.15832 0.0
H2483 H 0.96676 0.76278 0.10185 0.0
H2484 H 0.95844 0.79594 0.07597 0.0
H2485 H 0.02113 0.86035 0.07866 0.0
H2486 H 0.02969 0.82796 0.10468 0.0
H2487 H 0.06573 0.60797 0.14147 0.0
H2488 H 0.03182 0.64918 0.13915 0.0
H2489 H 0.07276 0.75582 0.13514 0.0
H2490 H 0.10693 0.71504 0.13808 0.0
H2491 H 0.0357 0.75058 0.11238 0.0
H2492 H 0.05026 0.73992 0.1694 0.0
H2493 H 0.058 0.70318 0.19459 0.0
H2494 H 0.99544 0.63918 0.18969 0.0
H2495 H 0.98749 0.67513 0.16433 0.0
C2496 C 0.94785 0.86273 0.1296 0.0
C2497 C 0.92728 0.84555 0.13458 0.0
C2498 C 0.96766 0.83987 0.12932 0.0
C2499 C 0.96733 0.79904 0.13367 0.0
C2500 C 0.94677 0.78162 0.13836 0.0
C2501 C 0.92703 0.80458 0.13887 0.0
C2502 C 0.9885 0.77488 0.13405 0.0
C2503 C 0.99367 0.75345 0.14815 0.0
C2504 C 0.00384 0.77374 0.12095 0.0
C2505 C 0.99876 0.79324 0.10529 0.0
C2506 C 0.97869 0.78425 0.09698 0.0
C2507 C 0.97395 0.80287 0.08228 0.0
C2508 C 0.98922 0.83032 0.0757 0.0
C2509 C 0.0093 0.83913 0.08379 0.0
C2510 C 0.01412 0.82062 0.09851 0.0
C2511 C 0.06763 0.64022 0.14029 0.0
C2512 C 0.08917 0.65814 0.14018 0.0
C2513 C 0.04819 0.66368 0.13882 0.0
C2514 C 0.04981 0.70552 0.13709 0.0
C2515 C 0.07119 0.72352 0.13643 0.0
C2516 C 0.0907 0.7001 0.13806 0.0
C2517 C 0.02909 0.73047 0.13654 0.0
C2518 C 0.0241 0.75202 0.12247 0.0
C2519 C 0.01373 0.73131 0.14957 0.0
C2520 C 0.01839 0.70994 0.16489 0.0
C2521 C 0.03824 0.71777 0.17363 0.0
C2522 C 0.04266 0.69714 0.18795 0.0
C2523 C 0.02725 0.66879 0.19372 0.0
C2524 C 0.00737 0.66111 0.1852 0.0
C2525 C 0.0029 0.68163 0.17086 0.0
H2526 H 0.0307 0.65284 0.20481 0.0
H2527 H 0.98551 0.8447 0.06431 0.0
loop_
_geom_bond_atom_site_label_1
_geom_bond_atom_site_label_2
_geom_bond_distance
_geom_bond_site_symmetry_2
_ccdc_geom_bond_type
C0 C1 1.351 . S
C0 N3 1.368 . S
C0 H5 0.931 . S
C1 C0 1.351 . S
C1 N2 1.373 . S
C1 H29 0.930 . S
N2 C1 1.373 . S
N2 C4 1.340 . S
N3 C0 1.368 . S
N3 C4 1.321 . S
N3 Co6 2.135 . S
C4 N2 1.340 . S
C4 N3 1.321 . S
C4 H28 0.930 . S
H5 C0 0.931 . S
Co6 N3 2.135 . S
Co6 N9 2.121 . S
Co6 O14 2.055 . S
Co6 O17 2.039 . S
Co6 N20 2.140 . S
C7 O8 1.227 . S
C7 O17 1.265 . S
O8 C7 1.227 . S
N9 Co6 2.121 . S
N9 C11 1.375 . S
N9 C12 1.313 . S
C10 C11 1.338 . S
C10 N13 1.377 . S
C10 H30 0.930 . S
C11 N9 1.375 . S
C11 C10 1.338 . S
C11 H15 0.931 . S
C12 N9 1.313 . S
C12 N13 1.344 . S
C12 H16 0.930 . S
N13 C10 1.377 . S
N13 C12 1.344 . S
O14 Co6 2.055 . S
O14 C18 1.253 . S
H15 C11 0.931 . S
H16 C12 0.930 . S
O17 Co6 2.039 . S
O17 C7 1.265 . S
C18 O14 1.253 . S
C18 O19 1.227 . S
O19 C18 1.227 . S
N20 Co6 2.140 . S
N20 C23 1.346 . S
N20 C24 1.345 . S
C21 C22 1.387 . S
C21 C25 1.391 . S
C22 C21 1.387 . S
C22 C23 1.369 . S
C22 H31 0.929 . S
C23 N20 1.346 . S
C23 C22 1.369 . S
C23 H26 0.928 . S
C24 N20 1.345 . S
C24 C25 1.371 . S
C24 H27 0.931 . S
C25 C21 1.391 . S
C25 C24 1.371 . S
C25 H32 0.930 . S
H26 C23 0.928 . S
H27 C24 0.931 . S
H28 C4 0.930 . S
H29 C1 0.930 . S
H30 C10 0.930 . S
H31 C22 0.929 . S
H32 C25 0.930 . S
C33 C34 1.351 . S
C33 N36 1.368 . S
C33 H38 0.931 . S
C34 C33 1.351 . S
C34 N35 1.373 . S
C34 H62 0.930 . S
N35 C34 1.373 . S
N35 C37 1.340 . S
N36 C33 1.368 . S
N36 C37 1.321 . S
N36 Co39 2.135 . S
C37 N35 1.340 . S
C37 N36 1.321 . S
C37 H61 0.930 . S
H38 C33 0.931 . S
Co39 N36 2.135 . S
Co39 N42 2.121 . S
Co39 O47 2.055 . S
Co39 O50 2.039 . S
Co39 N53 2.140 . S
C40 O41 1.227 . S
C40 O50 1.265 . S
O41 C40 1.227 . S
N42 Co39 2.121 . S
N42 C44 1.375 . S
N42 C45 1.313 . S
C43 C44 1.338 . S
C43 N46 1.377 . S
C43 H63 0.930 . S
C44 N42 1.375 . S
C44 C43 1.338 . S
C44 H48 0.931 . S
C45 N42 1.313 . S
C45 N46 1.344 . S
C45 H49 0.930 . S
N46 C43 1.377 . S
N46 C45 1.344 . S
O47 Co39 2.055 . S
O47 C51 1.253 . S
H48 C44 0.931 . S
H49 C45 0.930 . S
O50 Co39 2.039 . S
O50 C40 1.265 . S
C51 O47 1.253 . S
C51 O52 1.227 . S
O52 C51 1.227 . S
N53 Co39 2.140 . S
N53 C56 1.346 . S
N53 C57 1.345 . S
C54 C55 1.387 . S
C54 C58 1.391 . S
C55 C54 1.387 . S
C55 C56 1.369 . S
C55 H64 0.929 . S
C56 N53 1.346 . S
C56 C55 1.369 . S
C56 H59 0.928 . S
C57 N53 1.345 . S
C57 C58 1.371 . S
C57 H60 0.931 . S
C58 C54 1.391 . S
C58 C57 1.371 . S
C58 H65 0.930 . S
H59 C56 0.928 . S
H60 C57 0.931 . S
H61 C37 0.930 . S
H62 C34 0.930 . S
H63 C43 0.930 . S
H64 C55 0.929 . S
H65 C58 0.930 . S
C66 C67 1.351 . S
C66 N69 1.368 . S
C66 H71 0.931 . S
C67 C66 1.351 . S
C67 N68 1.373 . S
C67 H95 0.930 . S
N68 C67 1.373 . S
N68 C70 1.340 . S
N69 C66 1.368 . S
N69 C70 1.321 . S
N69 Co72 2.135 . S
C70 N68 1.340 . S
C70 N69 1.321 . S
C70 H94 0.930 . S
H71 C66 0.931 . S
Co72 N69 2.135 . S
Co72 N75 2.121 . S
Co72 O80 2.055 . S
Co72 O83 2.039 . S
Co72 N86 2.140 . S
C73 O74 1.227 . S
C73 O83 1.265 . S
O74 C73 1.227 . S
N75 Co72 2.121 . S
N75 C77 1.375 . S
N75 C78 1.313 . S
C76 C77 1.338 . S
C76 N79 1.377 . S
C76 H96 0.930 . S
C77 N75 1.375 . S
C77 C76 1.338 . S
C77 H81 0.931 . S
C78 N75 1.313 . S
C78 N79 1.344 . S
C78 H82 0.930 . S
N79 C76 1.377 . S
N79 C78 1.344 . S
O80 Co72 2.055 . S
O80 C84 1.253 . S
H81 C77 0.931 . S
H82 C78 0.930 . S
O83 Co72 2.039 . S
O83 C73 1.265 . S
C84 O80 1.253 . S
C84 O85 1.227 . S
O85 C84 1.227 . S
N86 Co72 2.140 . S
N86 C89 1.346 . S
N86 C90 1.345 . S
C87 C88 1.387 . S
C87 C91 1.391 . S
C88 C87 1.387 . S
C88 C89 1.369 . S
C88 H97 0.929 . S
C89 N86 1.346 . S
C89 C88 1.369 . S
C89 H92 0.928 . S
C90 N86 1.345 . S
C90 C91 1.371 . S
C90 H93 0.931 . S
C91 C87 1.391 . S
C91 C90 1.371 . S
C91 H98 0.930 . S
H92 C89 0.928 . S
H93 C90 0.931 . S
H94 C70 0.930 . S
H95 C67 0.930 . S
H96 C76 0.930 . S
H97 C88 0.929 . S
H98 C91 0.930 . S
C99 C100 1.351 . S
C99 N102 1.368 . S
C99 H104 0.931 . S
C100 C99 1.351 . S
C100 N101 1.373 . S
C100 H128 0.930 . S
N101 C100 1.373 . S
N101 C103 1.340 . S
N102 C99 1.368 . S
N102 C103 1.321 . S
N102 Co105 2.135 . S
C103 N101 1.340 . S
C103 N102 1.321 . S
C103 H127 0.930 . S
H104 C99 0.931 . S
Co105 N102 2.135 . S
Co105 N108 2.121 . S
Co105 O113 2.055 . S
Co105 O116 2.039 . S
Co105 N119 2.140 . S
C106 O107 1.227 . S
C106 O116 1.265 . S
O107 C106 1.227 . S
N108 Co105 2.121 . S
N108 C110 1.375 . S
N108 C111 1.313 . S
C109 C110 1.338 . S
C109 N112 1.377 . S
C109 H129 0.930 . S
C110 N108 1.375 . S
C110 C109 1.338 . S
C110 H114 0.931 . S
C111 N108 1.313 . S
C111 N112 1.344 . S
C111 H115 0.930 . S
N112 C109 1.377 . S
N112 C111 1.344 . S
O113 Co105 2.055 . S
O113 C117 1.253 . S
H114 C110 0.931 . S
H115 C111 0.930 . S
O116 Co105 2.039 . S
O116 C106 1.265 . S
C117 O113 1.253 . S
C117 O118 1.227 . S
O118 C117 1.227 . S
N119 Co105 2.140 . S
N119 C122 1.346 . S
N119 C123 1.345 . S
C120 C121 1.387 . S
C120 C124 1.391 . S
C121 C120 1.387 . S
C121 C122 1.369 . S
C121 H130 0.929 . S
C122 N119 1.346 . S
C122 C121 1.369 . S
C122 H125 0.928 . S
C123 N119 1.345 . S
C123 C124 1.371 . S
C123 H126 0.931 . S
C124 C120 1.391 . S
C124 C123 1.371 . S
C124 H131 0.930 . S
H125 C122 0.928 . S
H126 C123 0.931 . S
H127 C103 0.930 . S
H128 C100 0.930 . S
H129 C109 0.930 . S
H130 C121 0.929 . S
H131 C124 0.930 . S
C132 C133 1.351 . S
C132 N135 1.368 . S
C132 H137 0.931 . S
C133 C132 1.351 . S
C133 N134 1.373 . S
C133 H161 0.930 . S
N134 C133 1.373 . S
N134 C136 1.340 . S
N135 C132 1.368 . S
N135 C136 1.321 . S
N135 Co138 2.135 . S
C136 N134 1.340 . S
C136 N135 1.321 . S
C136 H160 0.930 . S
H137 C132 0.931 . S
Co138 N135 2.135 . S
Co138 N141 2.121 . S
Co138 O146 2.055 . S
Co138 O149 2.039 . S
Co138 N152 2.140 . S
C139 O140 1.227 . S
C139 O149 1.265 . S
O140 C139 1.227 . S
N141 Co138 2.121 . S
N141 C143 1.375 . S
N141 C144 1.313 . S
C142 C143 1.338 . S
C142 N145 1.377 . S
C142 H162 0.930 . S
C143 N141 1.375 . S
C143 C142 1.338 . S
C143 H147 0.931 . S
C144 N141 1.313 . S
C144 N145 1.344 . S
C144 H148 0.930 . S
N145 C142 1.377 . S
N145 C144 1.344 . S
O146 Co138 2.055 . S
O146 C150 1.253 . S
H147 C143 0.931 . S
H148 C144 0.930 . S
O149 Co138 2.039 . S
O149 C139 1.265 . S
C150 O146 1.253 . S
C150 O151 1.227 . S
O151 C150 1.227 . S
N152 Co138 2.140 . S
N152 C155 1.346 . S
N152 C156 1.345 . S
C153 C154 1.387 . S
C153 C157 1.391 . S
C154 C153 1.387 . S
C154 C155 1.369 . S
C154 H163 0.929 . S
C155 N152 1.346 . S
C155 C154 1.369 . S
C155 H158 0.928 . S
C156 N152 1.345 . S
C156 C157 1.371 . S
C156 H159 0.931 . S
C157 C153 1.391 . S
C157 C156 1.371 . S
C157 H164 0.930 . S
H158 C155 0.928 . S
H159 C156 0.931 . S
H160 C136 0.930 . S
H161 C133 0.930 . S
H162 C142 0.930 . S
H163 C154 0.929 . S
H164 C157 0.930 . S
C165 C166 1.351 . S
C165 N168 1.368 . S
C165 H170 0.931 . S
C166 C165 1.351 . S
C166 N167 1.373 . S
C166 H194 0.930 . S
N167 C166 1.373 . S
N167 C169 1.340 . S
N168 C165 1.368 . S
N168 C169 1.321 . S
N168 Co171 2.135 . S
C169 N167 1.340 . S
C169 N168 1.321 . S
C169 H193 0.930 . S
H170 C165 0.931 . S
Co171 N168 2.135 . S
Co171 N174 2.121 . S
Co171 O179 2.055 . S
Co171 O182 2.039 . S
Co171 N185 2.140 . S
C172 O173 1.227 . S
C172 O182 1.265 . S
O173 C172 1.227 . S
N174 Co171 2.121 . S
N174 C176 1.375 . S
N174 C177 1.313 . S
C175 C176 1.338 . S
C175 N178 1.377 . S
C175 H195 0.930 . S
C176 N174 1.375 . S
C176 C175 1.338 . S
C176 H180 0.931 . S
C177 N174 1.313 . S
C177 N178 1.344 . S
C177 H181 0.930 . S
N178 C175 1.377 . S
N178 C177 1.344 . S
O179 Co171 2.055 . S
O179 C183 1.253 . S
H180 C176 0.931 . S
H181 C177 0.930 . S
O182 Co171 2.039 . S
O182 C172 1.265 . S
C183 O179 1.253 . S
C183 O184 1.227 . S
O184 C183 1.227 . S
N185 Co171 2.140 . S
N185 C188 1.346 . S
N185 C189 1.345 . S
C186 C187 1.387 . S
C186 C190 1.391 . S
C187 C186 1.387 . S
C187 C188 1.369 . S
C187 H196 0.929 . S
C188 N185 1.346 . S
C188 C187 1.369 . S
C188 H191 0.928 . S
C189 N185 1.345 . S
C189 C190 1.371 . S
C189 H192 0.931 . S
C190 C186 1.391 . S
C190 C189 1.371 . S
C190 H197 0.930 . S
H191 C188 0.928 . S
H192 C189 0.931 . S
H193 C169 0.930 . S
H194 C166 0.930 . S
H195 C175 0.930 . S
H196 C187 0.929 . S
H197 C190 0.930 . S
C198 C199 1.351 . S
C198 N201 1.368 . S
C198 H203 0.931 . S
C199 C198 1.351 . S
C199 N200 1.373 . S
C199 H227 0.930 . S
N200 C199 1.373 . S
N200 C202 1.340 . S
N201 C198 1.368 . S
N201 C202 1.321 . S
N201 Co204 2.135 . S
C202 N200 1.340 . S
C202 N201 1.321 . S
C202 H226 0.930 . S
H203 C198 0.931 . S
Co204 N201 2.135 . S
Co204 N207 2.121 . S
Co204 O212 2.055 . S
Co204 O215 2.039 . S
Co204 N218 2.140 . S
C205 O206 1.227 . S
C205 O215 1.265 . S
O206 C205 1.227 . S
N207 Co204 2.121 . S
N207 C209 1.375 . S
N207 C210 1.313 . S
C208 C209 1.338 . S
C208 N211 1.377 . S
C208 H228 0.930 . S
C209 N207 1.375 . S
C209 C208 1.338 . S
C209 H213 0.931 . S
C210 N207 1.313 . S
C210 N211 1.344 . S
C210 H214 0.930 . S
N211 C208 1.377 . S
N211 C210 1.344 . S
O212 Co204 2.055 . S
O212 C216 1.253 . S
H213 C209 0.931 . S
H214 C210 0.930 . S
O215 Co204 2.039 . S
O215 C205 1.265 . S
C216 O212 1.253 . S
C216 O217 1.227 . S
O217 C216 1.227 . S
N218 Co204 2.140 . S
N218 C221 1.346 . S
N218 C222 1.345 . S
C219 C220 1.387 . S
C219 C223 1.391 . S
C220 C219 1.387 . S
C220 C221 1.369 . S
C220 H229 0.929 . S
C221 N218 1.346 . S
C221 C220 1.369 . S
C221 H224 0.928 . S
C222 N218 1.345 . S
C222 C223 1.371 . S
C222 H225 0.931 . S
C223 C219 1.391 . S
C223 C222 1.371 . S
C223 H230 0.930 . S
H224 C221 0.928 . S
H225 C222 0.931 . S
H226 C202 0.930 . S
H227 C199 0.930 . S
H228 C208 0.930 . S
H229 C220 0.929 . S
H230 C223 0.930 . S
C231 C232 1.351 . S
C231 N234 1.368 . S
C231 H236 0.931 . S
C232 C231 1.351 . S
C232 N233 1.373 . S
C232 H260 0.930 . S
N233 C232 1.373 . S
N233 C235 1.340 . S
N234 C231 1.368 . S
N234 C235 1.321 . S
N234 Co237 2.135 . S
C235 N233 1.340 . S
C235 N234 1.321 . S
C235 H259 0.930 . S
H236 C231 0.931 . S
Co237 N234 2.135 . S
Co237 N240 2.121 . S
Co237 O245 2.055 . S
Co237 O248 2.039 . S
Co237 N251 2.140 . S
C238 O239 1.227 . S
C238 O248 1.265 . S
O239 C238 1.227 . S
N240 Co237 2.121 . S
N240 C242 1.375 . S
N240 C243 1.313 . S
C241 C242 1.338 . S
C241 N244 1.377 . S
C241 H261 0.930 . S
C242 N240 1.375 . S
C242 C241 1.338 . S
C242 H246 0.931 . S
C243 N240 1.313 . S
C243 N244 1.344 . S
C243 H247 0.930 . S
N244 C241 1.377 . S
N244 C243 1.344 . S
O245 Co237 2.055 . S
O245 C249 1.253 . S
H246 C242 0.931 . S
H247 C243 0.930 . S
O248 Co237 2.039 . S
O248 C238 1.265 . S
C249 O245 1.253 . S
C249 O250 1.227 . S
O250 C249 1.227 . S
N251 Co237 2.140 . S
N251 C254 1.346 . S
N251 C255 1.345 . S
C252 C253 1.387 . S
C252 C256 1.391 . S
C253 C252 1.387 . S
C253 C254 1.369 . S
C253 H262 0.929 . S
C254 N251 1.346 . S
C254 C253 1.369 . S
C254 H257 0.928 . S
C255 N251 1.345 . S
C255 C256 1.371 . S
C255 H258 0.931 . S
C256 C252 1.391 . S
C256 C255 1.371 . S
C256 H263 0.930 . S
H257 C254 0.928 . S
H258 C255 0.931 . S
H259 C235 0.930 . S
H260 C232 0.930 . S
H261 C241 0.930 . S
H262 C253 0.929 . S
H263 C256 0.930 . S
C264 C265 1.351 . S
C264 N267 1.368 . S
C264 H269 0.931 . S
C265 C264 1.351 . S
C265 N266 1.373 . S
C265 H293 0.930 . S
N266 C265 1.373 . S
N266 C268 1.340 . S
N267 C264 1.368 . S
N267 C268 1.321 . S
N267 Co270 2.135 . S
C268 N266 1.340 . S
C268 N267 1.321 . S
C268 H292 0.930 . S
H269 C264 0.931 . S
Co270 N267 2.135 . S
Co270 N273 2.121 . S
Co270 O278 2.055 . S
Co270 O281 2.039 . S
Co270 N284 2.140 . S
C271 O272 1.227 . S
C271 O281 1.265 . S
O272 C271 1.227 . S
N273 Co270 2.121 . S
N273 C275 1.375 . S
N273 C276 1.313 . S
C274 C275 1.338 . S
C274 N277 1.377 . S
C274 H294 0.930 . S
C275 N273 1.375 . S
C275 C274 1.338 . S
C275 H279 0.931 . S
C276 N273 1.313 . S
C276 N277 1.344 . S
C276 H280 0.930 . S
N277 C274 1.377 . S
N277 C276 1.344 . S
O278 Co270 2.055 . S
O278 C282 1.253 . S
H279 C275 0.931 . S
H280 C276 0.930 . S
O281 Co270 2.039 . S
O281 C271 1.265 . S
C282 O278 1.253 . S
C282 O283 1.227 . S
O283 C282 1.227 . S
N284 Co270 2.140 . S
N284 C287 1.346 . S
N284 C288 1.345 . S
C285 C286 1.387 . S
C285 C289 1.391 . S
C286 C285 1.387 . S
C286 C287 1.369 . S
C286 H295 0.929 . S
C287 N284 1.346 . S
C287 C286 1.369 . S
C287 H290 0.928 . S
C288 N284 1.345 . S
C288 C289 1.371 . S
C288 H291 0.931 . S
C289 C285 1.391 . S
C289 C288 1.371 . S
C289 H296 0.930 . S
H290 C287 0.928 . S
H291 C288 0.931 . S
H292 C268 0.930 . S
H293 C265 0.930 . S
H294 C274 0.930 . S
H295 C286 0.929 . S
H296 C289 0.930 . S
C297 C298 1.351 . S
C297 N300 1.368 . S
C297 H302 0.931 . S
C298 C297 1.351 . S
C298 N299 1.373 . S
C298 H326 0.930 . S
N299 C298 1.373 . S
N299 C301 1.340 . S
N300 C297 1.368 . S
N300 C301 1.321 . S
N300 Co303 2.135 . S
C301 N299 1.340 . S
C301 N300 1.321 . S
C301 H325 0.930 . S
H302 C297 0.931 . S
Co303 N300 2.135 . S
Co303 N306 2.121 . S
Co303 O311 2.055 . S
Co303 O314 2.039 . S
Co303 N317 2.140 . S
C304 O305 1.227 . S
C304 O314 1.265 . S
O305 C304 1.227 . S
N306 Co303 2.121 . S
N306 C308 1.375 . S
N306 C309 1.313 . S
C307 C308 1.338 . S
C307 N310 1.377 . S
C307 H327 0.930 . S
C308 N306 1.375 . S
C308 C307 1.338 . S
C308 H312 0.931 . S
C309 N306 1.313 . S
C309 N310 1.344 . S
C309 H313 0.930 . S
N310 C307 1.377 . S
N310 C309 1.344 . S
O311 Co303 2.055 . S
O311 C315 1.253 . S
H312 C308 0.931 . S
H313 C309 0.930 . S
O314 Co303 2.039 . S
O314 C304 1.265 . S
C315 O311 1.253 . S
C315 O316 1.227 . S
O316 C315 1.227 . S
N317 Co303 2.140 . S
N317 C320 1.346 . S
N317 C321 1.345 . S
C318 C319 1.387 . S
C318 C322 1.391 . S
C319 C318 1.387 . S
C319 C320 1.369 . S
C319 H328 0.929 . S
C320 N317 1.346 . S
C320 C319 1.369 . S
C320 H323 0.928 . S
C321 N317 1.345 . S
C321 C322 1.371 . S
C321 H324 0.931 . S
C322 C318 1.391 . S
C322 C321 1.371 . S
C322 H329 0.930 . S
H323 C320 0.928 . S
H324 C321 0.931 . S
H325 C301 0.930 . S
H326 C298 0.930 . S
H327 C307 0.930 . S
H328 C319 0.929 . S
H329 C322 0.930 . S
C330 C331 1.351 . S
C330 N333 1.368 . S
C330 H335 0.931 . S
C331 C330 1.351 . S
C331 N332 1.373 . S
C331 H359 0.930 . S
N332 C331 1.373 . S
N332 C334 1.340 . S
N333 C330 1.368 . S
N333 C334 1.321 . S
N333 Co336 2.135 . S
C334 N332 1.340 . S
C334 N333 1.321 . S
C334 H358 0.930 . S
H335 C330 0.931 . S
Co336 N333 2.135 . S
Co336 N339 2.121 . S
Co336 O344 2.055 . S
Co336 O347 2.039 . S
Co336 N350 2.140 . S
C337 O338 1.227 . S
C337 O347 1.265 . S
O338 C337 1.227 . S
N339 Co336 2.121 . S
N339 C341 1.375 . S
N339 C342 1.313 . S
C340 C341 1.338 . S
C340 N343 1.377 . S
C340 H360 0.930 . S
C341 N339 1.375 . S
C341 C340 1.338 . S
C341 H345 0.931 . S
C342 N339 1.313 . S
C342 N343 1.344 . S
C342 H346 0.930 . S
N343 C340 1.377 . S
N343 C342 1.344 . S
O344 Co336 2.055 . S
O344 C348 1.253 . S
H345 C341 0.931 . S
H346 C342 0.930 . S
O347 Co336 2.039 . S
O347 C337 1.265 . S
C348 O344 1.253 . S
C348 O349 1.227 . S
O349 C348 1.227 . S
N350 Co336 2.140 . S
N350 C353 1.346 . S
N350 C354 1.345 . S
C351 C352 1.387 . S
C351 C355 1.391 . S
C352 C351 1.387 . S
C352 C353 1.369 . S
C352 H361 0.929 . S
C353 N350 1.346 . S
C353 C352 1.369 . S
C353 H356 0.928 . S
C354 N350 1.345 . S
C354 C355 1.371 . S
C354 H357 0.931 . S
C355 C351 1.391 . S
C355 C354 1.371 . S
C355 H362 0.930 . S
H356 C353 0.928 . S
H357 C354 0.931 . S
H358 C334 0.930 . S
H359 C331 0.930 . S
H360 C340 0.930 . S
H361 C352 0.929 . S
H362 C355 0.930 . S
C363 C364 1.351 . S
C363 N366 1.368 . S
C363 H368 0.931 . S
C364 C363 1.351 . S
C364 N365 1.373 . S
C364 H392 0.930 . S
N365 C364 1.373 . S
N365 C367 1.340 . S
N366 C363 1.368 . S
N366 C367 1.321 . S
N366 Co369 2.135 . S
C367 N365 1.340 . S
C367 N366 1.321 . S
C367 H391 0.930 . S
H368 C363 0.931 . S
Co369 N366 2.135 . S
Co369 N372 2.121 . S
Co369 O377 2.055 . S
Co369 O380 2.039 . S
Co369 N383 2.140 . S
C370 O371 1.227 . S
C370 O380 1.265 . S
O371 C370 1.227 . S
N372 Co369 2.121 . S
N372 C374 1.375 . S
N372 C375 1.313 . S
C373 C374 1.338 . S
C373 N376 1.377 . S
C373 H393 0.930 . S
C374 N372 1.375 . S
C374 C373 1.338 . S
C374 H378 0.931 . S
C375 N372 1.313 . S
C375 N376 1.344 . S
C375 H379 0.930 . S
N376 C373 1.377 . S
N376 C375 1.344 . S
O377 Co369 2.055 . S
O377 C381 1.253 . S
H378 C374 0.931 . S
H379 C375 0.930 . S
O380 Co369 2.039 . S
O380 C370 1.265 . S
C381 O377 1.253 . S
C381 O382 1.227 . S
O382 C381 1.227 . S
N383 Co369 2.140 . S
N383 C386 1.346 . S
N383 C387 1.345 . S
C384 C385 1.387 . S
C384 C388 1.391 . S
C385 C384 1.387 . S
C385 C386 1.369 . S
C385 H394 0.929 . S
C386 N383 1.346 . S
C386 C385 1.369 . S
C386 H389 0.928 . S
C387 N383 1.345 . S
C387 C388 1.371 . S
C387 H390 0.931 . S
C388 C384 1.391 . S
C388 C387 1.371 . S
C388 H395 0.930 . S
H389 C386 0.928 . S
H390 C387 0.931 . S
H391 C367 0.930 . S
H392 C364 0.930 . S
H393 C373 0.930 . S
H394 C385 0.929 . S
H395 C388 0.930 . S
C396 C397 1.351 . S
C396 N399 1.368 . S
C396 H401 0.931 . S
C397 C396 1.351 . S
C397 N398 1.373 . S
C397 H425 0.930 . S
N398 C397 1.373 . S
N398 C400 1.340 . S
N399 C396 1.368 . S
N399 C400 1.321 . S
N399 Co402 2.135 . S
C400 N398 1.340 . S
C400 N399 1.321 . S
C400 H424 0.930 . S
H401 C396 0.931 . S
Co402 N399 2.135 . S
Co402 N405 2.121 . S
Co402 O410 2.055 . S
Co402 O413 2.039 . S
Co402 N416 2.140 . S
C403 O404 1.227 . S
C403 O413 1.265 . S
O404 C403 1.227 . S
N405 Co402 2.121 . S
N405 C407 1.375 . S
N405 C408 1.313 . S
C406 C407 1.338 . S
C406 N409 1.377 . S
C406 H426 0.930 . S
C407 N405 1.375 . S
C407 C406 1.338 . S
C407 H411 0.931 . S
C408 N405 1.313 . S
C408 N409 1.344 . S
C408 H412 0.930 . S
N409 C406 1.377 . S
N409 C408 1.344 . S
O410 Co402 2.055 . S
O410 C414 1.253 . S
H411 C407 0.931 . S
H412 C408 0.930 . S
O413 Co402 2.039 . S
O413 C403 1.265 . S
C414 O410 1.253 . S
C414 O415 1.227 . S
O415 C414 1.227 . S
N416 Co402 2.140 . S
N416 C419 1.346 . S
N416 C420 1.345 . S
C417 C418 1.387 . S
C417 C421 1.391 . S
C418 C417 1.387 . S
C418 C419 1.369 . S
C418 H427 0.929 . S
C419 N416 1.346 . S
C419 C418 1.369 . S
C419 H422 0.928 . S
C420 N416 1.345 . S
C420 C421 1.371 . S
C420 H423 0.931 . S
C421 C417 1.391 . S
C421 C420 1.371 . S
C421 H428 0.930 . S
H422 C419 0.928 . S
H423 C420 0.931 . S
H424 C400 0.930 . S
H425 C397 0.930 . S
H426 C406 0.930 . S
H427 C418 0.929 . S
H428 C421 0.930 . S
C429 C430 1.351 . S
C429 N432 1.368 . S
C429 H434 0.931 . S
C430 C429 1.351 . S
C430 N431 1.373 . S
C430 H458 0.930 . S
N431 C430 1.373 . S
N431 C433 1.340 . S
N432 C429 1.368 . S
N432 C433 1.321 . S
N432 Co435 2.135 . S
C433 N431 1.340 . S
C433 N432 1.321 . S
C433 H457 0.930 . S
H434 C429 0.931 . S
Co435 N432 2.135 . S
Co435 N438 2.121 . S
Co435 O443 2.055 . S
Co435 O446 2.039 . S
Co435 N449 2.140 . S
C436 O437 1.227 . S
C436 O446 1.265 . S
O437 C436 1.227 . S
N438 Co435 2.121 . S
N438 C440 1.375 . S
N438 C441 1.313 . S
C439 C440 1.338 . S
C439 N442 1.377 . S
C439 H459 0.930 . S
C440 N438 1.375 . S
C440 C439 1.338 . S
C440 H444 0.931 . S
C441 N438 1.313 . S
C441 N442 1.344 . S
C441 H445 0.930 . S
N442 C439 1.377 . S
N442 C441 1.344 . S
O443 Co435 2.055 . S
O443 C447 1.253 . S
H444 C440 0.931 . S
H445 C441 0.930 . S
O446 Co435 2.039 . S
O446 C436 1.265 . S
C447 O443 1.253 . S
C447 O448 1.227 . S
O448 C447 1.227 . S
N449 Co435 2.140 . S
N449 C452 1.346 . S
N449 C453 1.345 . S
C450 C451 1.387 . S
C450 C454 1.391 . S
C451 C450 1.387 . S
C451 C452 1.369 . S
C451 H460 0.929 . S
C452 N449 1.346 . S
C452 C451 1.369 . S
C452 H455 0.928 . S
C453 N449 1.345 . S
C453 C454 1.371 . S
C453 H456 0.931 . S
C454 C450 1.391 . S
C454 C453 1.371 . S
C454 H461 0.930 . S
H455 C452 0.928 . S
H456 C453 0.931 . S
H457 C433 0.930 . S
H458 C430 0.930 . S
H459 C439 0.930 . S
H460 C451 0.929 . S
H461 C454 0.930 . S
C462 C463 1.351 . S
C462 N465 1.368 . S
C462 H467 0.931 . S
C463 C462 1.351 . S
C463 N464 1.373 . S
C463 H491 0.930 . S
N464 C463 1.373 . S
N464 C466 1.340 . S
N465 C462 1.368 . S
N465 C466 1.321 . S
N465 Co468 2.135 . S
C466 N464 1.340 . S
C466 N465 1.321 . S
C466 H490 0.930 . S
H467 C462 0.931 . S
Co468 N465 2.135 . S
Co468 N471 2.121 . S
Co468 O476 2.055 . S
Co468 O479 2.039 . S
Co468 N482 2.140 . S
C469 O470 1.227 . S
C469 O479 1.265 . S
O470 C469 1.227 . S
N471 Co468 2.121 . S
N471 C473 1.375 . S
N471 C474 1.313 . S
C472 C473 1.338 . S
C472 N475 1.377 . S
C472 H492 0.930 . S
C473 N471 1.375 . S
C473 C472 1.338 . S
C473 H477 0.931 . S
C474 N471 1.313 . S
C474 N475 1.344 . S
C474 H478 0.930 . S
N475 C472 1.377 . S
N475 C474 1.344 . S
O476 Co468 2.055 . S
O476 C480 1.253 . S
H477 C473 0.931 . S
H478 C474 0.930 . S
O479 Co468 2.039 . S
O479 C469 1.265 . S
C480 O476 1.253 . S
C480 O481 1.227 . S
O481 C480 1.227 . S
N482 Co468 2.140 . S
N482 C485 1.346 . S
N482 C486 1.345 . S
C483 C484 1.387 . S
C483 C487 1.391 . S
C484 C483 1.387 . S
C484 C485 1.369 . S
C484 H493 0.929 . S
C485 N482 1.346 . S
C485 C484 1.369 . S
C485 H488 0.928 . S
C486 N482 1.345 . S
C486 C487 1.371 . S
C486 H489 0.931 . S
C487 C483 1.391 . S
C487 C486 1.371 . S
C487 H494 0.930 . S
H488 C485 0.928 . S
H489 C486 0.931 . S
H490 C466 0.930 . S
H491 C463 0.930 . S
H492 C472 0.930 . S
H493 C484 0.929 . S
H494 C487 0.930 . S
C495 C496 1.351 . S
C495 N498 1.368 . S
C495 H500 0.931 . S
C496 C495 1.351 . S
C496 N497 1.373 . S
C496 H524 0.930 . S
N497 C496 1.373 . S
N497 C499 1.340 . S
N498 C495 1.368 . S
N498 C499 1.321 . S
N498 Co501 2.135 . S
C499 N497 1.340 . S
C499 N498 1.321 . S
C499 H523 0.930 . S
H500 C495 0.931 . S
Co501 N498 2.135 . S
Co501 N504 2.121 . S
Co501 O509 2.055 . S
Co501 O512 2.039 . S
Co501 N515 2.140 . S
C502 O503 1.227 . S
C502 O512 1.265 . S
O503 C502 1.227 . S
N504 Co501 2.121 . S
N504 C506 1.375 . S
N504 C507 1.313 . S
C505 C506 1.338 . S
C505 N508 1.377 . S
C505 H525 0.930 . S
C506 N504 1.375 . S
C506 C505 1.338 . S
C506 H510 0.931 . S
C507 N504 1.313 . S
C507 N508 1.344 . S
C507 H511 0.930 . S
N508 C505 1.377 . S
N508 C507 1.344 . S
O509 Co501 2.055 . S
O509 C513 1.253 . S
H510 C506 0.931 . S
H511 C507 0.930 . S
O512 Co501 2.039 . S
O512 C502 1.265 . S
C513 O509 1.253 . S
C513 O514 1.227 . S
O514 C513 1.227 . S
N515 Co501 2.140 . S
N515 C518 1.346 . S
N515 C519 1.345 . S
C516 C517 1.387 . S
C516 C520 1.391 . S
C517 C516 1.387 . S
C517 C518 1.369 . S
C517 H526 0.929 . S
C518 N515 1.346 . S
C518 C517 1.369 . S
C518 H521 0.928 . S
C519 N515 1.345 . S
C519 C520 1.371 . S
C519 H522 0.931 . S
C520 C516 1.391 . S
C520 C519 1.371 . S
C520 H527 0.930 . S
H521 C518 0.928 . S
H522 C519 0.931 . S
H523 C499 0.930 . S
H524 C496 0.930 . S
H525 C505 0.930 . S
H526 C517 0.929 . S
H527 C520 0.930 . S
H528 C546 0.951 . S
H529 C548 0.951 . S
H530 C550 0.950 . S
H531 C551 0.950 . S
H532 C553 0.950 . S
H533 C556 0.950 . S
H534 C557 0.950 . S
H535 C559 0.950 . S
H536 C560 0.950 . S
H537 C561 0.951 . S
H538 C563 0.951 . S
H539 C565 0.950 . S
H540 C566 0.950 . S
H541 C568 0.950 . S
H542 C571 0.950 . S
H543 C572 0.950 . S
H544 C574 0.950 . S
H545 C575 0.950 . S
C546 H528 0.951 . S
C546 C547 1.366 . S
C546 C548 1.388 1_545 S
C547 C546 1.366 . S
C547 C551 1.385 . S
C548 H529 0.951 . S
C548 C546 1.388 1_565 S
C548 C549 1.366 . S
C549 C548 1.366 . S
C549 C550 1.414 . S
C549 C552 1.499 . S
C550 H530 0.950 . S
C550 C549 1.414 . S
C550 C551 1.374 1_565 S
C551 H531 0.950 . S
C551 C547 1.385 . S
C551 C550 1.374 1_545 S
C552 C549 1.499 . S
C552 C553 1.373 . S
C552 C554 1.389 . S
C553 H532 0.950 . S
C553 C552 1.373 . S
C553 C569 1.377 . S
C554 C552 1.389 . S
C554 C555 1.524 . S
C554 C568 1.377 . S
C555 C554 1.524 . S
C555 C556 1.397 . S
C555 C560 1.363 . S
C556 H533 0.950 . S
C556 C555 1.397 . S
C556 C557 1.334 1_565 S
C557 H534 0.950 . S
C557 C556 1.334 1_545 S
C557 C558 1.287 . S
C558 C557 1.287 . S
C558 C559 1.524 1_545 S
C558 H577 0.913 . S
C559 H535 0.950 . S
C559 C558 1.524 1_565 S
C559 C560 1.415 . S
C560 H536 0.950 . S
C560 C555 1.363 . S
C560 C559 1.415 . S
C561 H537 0.951 . S
C561 C562 1.366 . S
C561 C563 1.388 . S
C562 C561 1.366 . S
C562 C566 1.385 . S
C563 H538 0.951 . S
C563 C561 1.388 . S
C563 C564 1.366 . S
C564 C563 1.366 . S
C564 C565 1.414 . S
C564 C567 1.499 . S
C565 H539 0.950 . S
C565 C564 1.414 . S
C565 C566 1.374 . S
C566 H540 0.950 . S
C566 C562 1.385 . S
C566 C565 1.374 . S
C567 C564 1.499 . S
C567 C568 1.373 . S
C567 C569 1.389 . S
C568 H541 0.950 . S
C568 C554 1.377 . S
C568 C567 1.373 . S
C569 C553 1.377 . S
C569 C567 1.389 . S
C569 C570 1.524 . S
C570 C569 1.524 . S
C570 C571 1.397 . S
C570 C575 1.363 . S
C571 H542 0.950 . S
C571 C570 1.397 . S
C571 C572 1.334 . S
C572 H543 0.950 . S
C572 C571 1.334 . S
C572 C573 1.287 . S
C573 C572 1.287 . S
C573 C574 1.524 . S
C573 H576 0.999 . S
C574 H544 0.950 . S
C574 C573 1.524 . S
C574 C575 1.415 . S
C575 H545 0.950 . S
C575 C570 1.363 . S
C575 C574 1.415 . S
H576 C573 0.999 . S
H577 C558 0.913 . S
H578 C596 0.951 . S
H579 C598 0.951 . S
H580 C600 0.950 . S
H581 C601 0.950 . S
H582 C603 0.950 . S
H583 C606 0.950 . S
H584 C607 0.950 . S
H585 C609 0.950 . S
H586 C610 0.950 . S
H587 C611 0.951 . S
H588 C613 0.951 . S
H589 C615 0.950 . S
H590 C616 0.950 . S
H591 C618 0.950 . S
H592 C621 0.950 . S
H593 C622 0.950 . S
H594 C624 0.950 . S
H595 C625 0.950 . S
C596 H578 0.951 . S
C596 C597 1.366 . S
C596 C598 1.388 . S
C597 C596 1.366 . S
C597 C601 1.385 . S
C598 H579 0.951 . S
C598 C596 1.388 . S
C598 C599 1.366 . S
C599 C598 1.366 . S
C599 C600 1.414 . S
C599 C602 1.499 . S
C600 H580 0.950 . S
C600 C599 1.414 . S
C600 C601 1.374 . S
C601 H581 0.950 . S
C601 C597 1.385 . S
C601 C600 1.374 . S
C602 C599 1.499 . S
C602 C603 1.373 . S
C602 C604 1.389 . S
C603 H582 0.950 . S
C603 C602 1.373 . S
C603 C619 1.377 . S
C604 C602 1.389 . S
C604 C605 1.524 . S
C604 C618 1.377 . S
C605 C604 1.524 . S
C605 C606 1.397 . S
C605 C610 1.363 . S
C606 H583 0.950 . S
C606 C605 1.397 . S
C606 C607 1.334 . S
C607 H584 0.950 . S
C607 C606 1.334 . S
C607 C608 1.287 . S
C608 C607 1.287 . S
C608 C609 1.524 . S
C608 H627 0.913 . S
C609 H585 0.950 . S
C609 C608 1.524 . S
C609 C610 1.415 . S
C610 H586 0.950 . S
C610 C605 1.363 . S
C610 C609 1.415 . S
C611 H587 0.951 . S
C611 C612 1.366 . S
C611 C613 1.388 . S
C612 C611 1.366 . S
C612 C616 1.385 . S
C613 H588 0.951 . S
C613 C611 1.388 . S
C613 C614 1.366 . S
C614 C613 1.366 . S
C614 C615 1.414 . S
C614 C617 1.499 . S
C615 H589 0.950 . S
C615 C614 1.414 . S
C615 C616 1.374 . S
C616 H590 0.950 . S
C616 C612 1.385 . S
C616 C615 1.374 . S
C617 C614 1.499 . S
C617 C618 1.373 . S
C617 C619 1.389 . S
C618 H591 0.950 . S
C618 C604 1.377 . S
C618 C617 1.373 . S
C619 C603 1.377 . S
C619 C617 1.389 . S
C619 C620 1.524 . S
C620 C619 1.524 . S
C620 C621 1.397 . S
C620 C625 1.363 . S
C621 H592 0.950 . S
C621 C620 1.397 . S
C621 C622 1.334 . S
C622 H593 0.950 . S
C622 C621 1.334 . S
C622 C623 1.287 . S
C623 C622 1.287 . S
C623 C624 1.524 . S
C623 H626 0.999 . S
C624 H594 0.950 . S
C624 C623 1.524 . S
C624 C625 1.415 . S
C625 H595 0.950 . S
C625 C620 1.363 . S
C625 C624 1.415 . S
H626 C623 0.999 . S
H627 C608 0.913 . S
H628 C646 0.951 . S
H629 C648 0.951 . S
H630 C650 0.950 . S
H631 C651 0.950 . S
H632 C653 0.950 . S
H633 C656 0.950 . S
H634 C657 0.950 1_565 S
H635 C659 0.950 . S
H636 C660 0.950 . S
H637 C661 0.951 . S
H638 C663 0.951 . S
H639 C665 0.950 . S
H640 C666 0.950 . S
H641 C668 0.950 . S
H642 C671 0.950 . S
H643 C672 0.950 . S
H644 C674 0.950 . S
H645 C675 0.950 . S
C646 H628 0.951 . S
C646 C647 1.366 . S
C646 C648 1.388 1_565 S
C647 C646 1.366 . S
C647 C651 1.385 . S
C648 H629 0.951 . S
C648 C646 1.388 1_545 S
C648 C649 1.366 . S
C649 C648 1.366 . S
C649 C650 1.414 . S
C649 C652 1.499 . S
C650 H630 0.950 . S
C650 C649 1.414 . S
C650 C651 1.374 1_545 S
C651 H631 0.950 . S
C651 C647 1.385 . S
C651 C650 1.374 1_565 S
C652 C649 1.499 . S
C652 C653 1.373 . S
C652 C654 1.389 . S
C653 H632 0.950 . S
C653 C652 1.373 . S
C653 C669 1.377 . S
C654 C652 1.389 . S
C654 C655 1.524 . S
C654 C668 1.377 . S
C655 C654 1.524 . S
C655 C656 1.397 . S
C655 C660 1.363 . S
C656 H633 0.950 . S
C656 C655 1.397 . S
C656 C657 1.334 . S
C657 H634 0.950 1_545 S
C657 C656 1.334 . S
C657 C658 1.287 . S
C658 C657 1.287 . S
C658 C659 1.524 . S
C658 H677 0.913 . S
C659 H635 0.950 . S
C659 C658 1.524 . S
C659 C660 1.415 . S
C660 H636 0.950 . S
C660 C655 1.363 . S
C660 C659 1.415 . S
C661 H637 0.951 . S
C661 C662 1.366 . S
C661 C663 1.388 . S
C662 C661 1.366 . S
C662 C666 1.385 . S
C663 H638 0.951 . S
C663 C661 1.388 . S
C663 C664 1.366 . S
C664 C663 1.366 . S
C664 C665 1.414 . S
C664 C667 1.499 . S
C665 H639 0.950 . S
C665 C664 1.414 . S
C665 C666 1.374 . S
C666 H640 0.950 . S
C666 C662 1.385 . S
C666 C665 1.374 . S
C667 C664 1.499 . S
C667 C668 1.373 . S
C667 C669 1.389 . S
C668 H641 0.950 . S
C668 C654 1.377 . S
C668 C667 1.373 . S
C669 C653 1.377 . S
C669 C667 1.389 . S
C669 C670 1.524 . S
C670 C669 1.524 . S
C670 C671 1.397 . S
C670 C675 1.363 . S
C671 H642 0.950 . S
C671 C670 1.397 . S
C671 C672 1.334 . S
C672 H643 0.950 . S
C672 C671 1.334 . S
C672 C673 1.287 . S
C673 C672 1.287 . S
C673 C674 1.524 . S
C673 H676 0.999 . S
C674 H644 0.950 . S
C674 C673 1.524 . S
C674 C675 1.415 . S
C675 H645 0.950 . S
C675 C670 1.363 . S
C675 C674 1.415 . S
H676 C673 0.999 . S
H677 C658 0.913 . S
H678 C696 0.951 . S
H679 C698 0.951 . S
H680 C700 0.950 . S
H681 C701 0.950 . S
H682 C703 0.950 . S
H683 C706 0.950 . S
H684 C707 0.950 . S
H685 C709 0.950 . S
H686 C710 0.950 . S
H687 C711 0.951 . S
H688 C713 0.951 . S
H689 C715 0.950 . S
H690 C716 0.950 . S
H691 C718 0.950 . S
H692 C721 0.950 . S
H693 C722 0.950 . S
H694 C724 0.950 . S
H695 C725 0.950 . S
C696 H678 0.951 . S
C696 C697 1.366 . S
C696 C698 1.388 . S
C697 C696 1.366 . S
C697 C701 1.385 . S
C698 H679 0.951 . S
C698 C696 1.388 . S
C698 C699 1.366 . S
C699 C698 1.366 . S
C699 C700 1.414 . S
C699 C702 1.499 . S
C700 H680 0.950 . S
C700 C699 1.414 . S
C700 C701 1.374 . S
C701 H681 0.950 . S
C701 C697 1.385 . S
C701 C700 1.374 . S
C702 C699 1.499 . S
C702 C703 1.373 . S
C702 C704 1.389 . S
C703 H682 0.950 . S
C703 C702 1.373 . S
C703 C719 1.377 . S
C704 C702 1.389 . S
C704 C705 1.524 . S
C704 C718 1.377 . S
C705 C704 1.524 . S
C705 C706 1.397 . S
C705 C710 1.363 . S
C706 H683 0.950 . S
C706 C705 1.397 . S
C706 C707 1.334 . S
C707 H684 0.950 . S
C707 C706 1.334 . S
C707 C708 1.287 . S
C708 C707 1.287 . S
C708 C709 1.524 . S
C708 H727 0.913 . S
C709 H685 0.950 . S
C709 C708 1.524 . S
C709 C710 1.415 . S
C710 H686 0.950 . S
C710 C705 1.363 . S
C710 C709 1.415 . S
C711 H687 0.951 . S
C711 C712 1.366 . S
C711 C713 1.388 . S
C712 C711 1.366 . S
C712 C716 1.385 . S
C713 H688 0.951 . S
C713 C711 1.388 . S
C713 C714 1.366 . S
C714 C713 1.366 . S
C714 C715 1.414 . S
C714 C717 1.499 . S
C715 H689 0.950 . S
C715 C714 1.414 . S
C715 C716 1.374 . S
C716 H690 0.950 . S
C716 C712 1.385 . S
C716 C715 1.374 . S
C717 C714 1.499 . S
C717 C718 1.373 . S
C717 C719 1.389 . S
C718 H691 0.950 . S
C718 C704 1.377 . S
C718 C717 1.373 . S
C719 C703 1.377 . S
C719 C717 1.389 . S
C719 C720 1.524 . S
C720 C719 1.524 . S
C720 C721 1.397 . S
C720 C725 1.363 . S
C721 H692 0.950 . S
C721 C720 1.397 . S
C721 C722 1.334 . S
C722 H693 0.950 . S
C722 C721 1.334 . S
C722 C723 1.287 . S
C723 C722 1.287 . S
C723 C724 1.524 . S
C723 H726 0.999 . S
C724 H694 0.950 . S
C724 C723 1.524 . S
C724 C725 1.415 . S
C725 H695 0.950 . S
C725 C720 1.363 . S
C725 C724 1.415 . S
H726 C723 0.999 . S
H727 C708 0.913 . S
H728 C746 0.951 . S
H729 C748 0.951 . S
H730 C750 0.950 1_545 S
H731 C751 0.950 . S
H732 C753 0.950 . S
H733 C756 0.950 . S
H734 C757 0.950 . S
H735 C759 0.950 . S
H736 C760 0.950 . S
H737 C761 0.951 . S
H738 C763 0.951 . S
H739 C765 0.950 . S
H740 C766 0.950 . S
H741 C768 0.950 . S
H742 C771 0.950 . S
H743 C772 0.950 . S
H744 C774 0.950 . S
H745 C775 0.950 . S
C746 H728 0.951 . S
C746 C747 1.366 . S
C746 C748 1.388 1_565 S
C747 C746 1.366 . S
C747 C751 1.385 . S
C748 H729 0.951 . S
C748 C746 1.388 1_545 S
C748 C749 1.366 . S
C749 C748 1.366 . S
C749 C750 1.414 1_545 S
C749 C752 1.499 . S
C750 H730 0.950 1_565 S
C750 C749 1.414 1_565 S
C750 C751 1.374 . S
C751 H731 0.950 . S
C751 C747 1.385 . S
C751 C750 1.374 . S
C752 C749 1.499 . S
C752 C753 1.373 . S
C752 C754 1.389 . S
C753 H732 0.950 . S
C753 C752 1.373 . S
C753 C769 1.377 . S
C754 C752 1.389 . S
C754 C755 1.524 . S
C754 C768 1.377 . S
C755 C754 1.524 . S
C755 C756 1.397 . S
C755 C760 1.363 . S
C756 H733 0.950 . S
C756 C755 1.397 . S
C756 C757 1.334 . S
C757 H734 0.950 . S
C757 C756 1.334 . S
C757 C758 1.287 . S
C758 C757 1.287 . S
C758 C759 1.524 . S
C758 H777 0.913 . S
C759 H735 0.950 . S
C759 C758 1.524 . S
C759 C760 1.415 . S
C760 H736 0.950 . S
C760 C755 1.363 . S
C760 C759 1.415 . S
C761 H737 0.951 . S
C761 C762 1.366 . S
C761 C763 1.388 . S
C762 C761 1.366 . S
C762 C766 1.385 . S
C763 H738 0.951 . S
C763 C761 1.388 . S
C763 C764 1.366 . S
C764 C763 1.366 . S
C764 C765 1.414 . S
C764 C767 1.499 . S
C765 H739 0.950 . S
C765 C764 1.414 . S
C765 C766 1.374 . S
C766 H740 0.950 . S
C766 C762 1.385 . S
C766 C765 1.374 . S
C767 C764 1.499 . S
C767 C768 1.373 . S
C767 C769 1.389 . S
C768 H741 0.950 . S
C768 C754 1.377 . S
C768 C767 1.373 . S
C769 C753 1.377 . S
C769 C767 1.389 . S
C769 C770 1.524 . S
C770 C769 1.524 . S
C770 C771 1.397 . S
C770 C775 1.363 . S
C771 H742 0.950 . S
C771 C770 1.397 . S
C771 C772 1.334 . S
C772 H743 0.950 . S
C772 C771 1.334 . S
C772 C773 1.287 . S
C773 C772 1.287 . S
C773 C774 1.524 . S
C773 H776 0.999 . S
C774 H744 0.950 . S
C774 C773 1.524 . S
C774 C775 1.415 . S
C775 H745 0.950 . S
C775 C770 1.363 . S
C775 C774 1.415 . S
H776 C773 0.999 . S
H777 C758 0.913 . S
H778 C796 0.951 . S
H779 C798 0.951 . S
H780 C800 0.950 . S
H781 C801 0.950 . S
H782 C803 0.950 . S
H783 C806 0.950 . S
H784 C807 0.950 . S
H785 C809 0.950 . S
H786 C810 0.950 . S
H787 C811 0.951 . S
H788 C813 0.951 . S
H789 C815 0.950 . S
H790 C816 0.950 . S
H791 C818 0.950 . S
H792 C821 0.950 . S
H793 C822 0.950 . S
H794 C824 0.950 . S
H795 C825 0.950 . S
C796 H778 0.951 . S
C796 C797 1.366 . S
C796 C798 1.388 . S
C797 C796 1.366 . S
C797 C801 1.385 . S
C798 H779 0.951 . S
C798 C796 1.388 . S
C798 C799 1.366 . S
C799 C798 1.366 . S
C799 C800 1.414 . S
C799 C802 1.499 . S
C800 H780 0.950 . S
C800 C799 1.414 . S
C800 C801 1.374 . S
C801 H781 0.950 . S
C801 C797 1.385 . S
C801 C800 1.374 . S
C802 C799 1.499 . S
C802 C803 1.373 . S
C802 C804 1.389 . S
C803 H782 0.950 . S
C803 C802 1.373 . S
C803 C819 1.377 . S
C804 C802 1.389 . S
C804 C805 1.524 . S
C804 C818 1.377 . S
C805 C804 1.524 . S
C805 C806 1.397 . S
C805 C810 1.363 . S
C806 H783 0.950 . S
C806 C805 1.397 . S
C806 C807 1.334 . S
C807 H784 0.950 . S
C807 C806 1.334 . S
C807 C808 1.287 . S
C808 C807 1.287 . S
C808 C809 1.524 . S
C808 H827 0.913 . S
C809 H785 0.950 . S
C809 C808 1.524 . S
C809 C810 1.415 . S
C810 H786 0.950 . S
C810 C805 1.363 . S
C810 C809 1.415 . S
C811 H787 0.951 . S
C811 C812 1.366 . S
C811 C813 1.388 . S
C812 C811 1.366 . S
C812 C816 1.385 . S
C813 H788 0.951 . S
C813 C811 1.388 . S
C813 C814 1.366 . S
C814 C813 1.366 . S
C814 C815 1.414 . S
C814 C817 1.499 . S
C815 H789 0.950 . S
C815 C814 1.414 . S
C815 C816 1.374 . S
C816 H790 0.950 . S
C816 C812 1.385 . S
C816 C815 1.374 . S
C817 C814 1.499 . S
C817 C818 1.373 . S
C817 C819 1.389 . S
C818 H791 0.950 . S
C818 C804 1.377 . S
C818 C817 1.373 . S
C819 C803 1.377 . S
C819 C817 1.389 . S
C819 C820 1.524 . S
C820 C819 1.524 . S
C820 C821 1.397 . S
C820 C825 1.363 . S
C821 H792 0.950 . S
C821 C820 1.397 . S
C821 C822 1.334 . S
C822 H793 0.950 . S
C822 C821 1.334 . S
C822 C823 1.287 . S
C823 C822 1.287 . S
C823 C824 1.524 . S
C823 H826 0.999 . S
C824 H794 0.950 . S
C824 C823 1.524 . S
C824 C825 1.415 . S
C825 H795 0.950 . S
C825 C820 1.363 . S
C825 C824 1.415 . S
H826 C823 0.999 . S
H827 C808 0.913 . S
H828 C846 0.951 . S
H829 C848 0.951 . S
H830 C850 0.950 . S
H831 C851 0.950 . S
H832 C853 0.950 . S
H833 C856 0.950 . S
H834 C857 0.950 1_545 S
H835 C859 0.950 . S
H836 C860 0.950 . S
H837 C861 0.951 . S
H838 C863 0.951 . S
H839 C865 0.950 . S
H840 C866 0.950 . S
H841 C868 0.950 . S
H842 C871 0.950 . S
H843 C872 0.950 . S
H844 C874 0.950 . S
H845 C875 0.950 . S
C846 H828 0.951 . S
C846 C847 1.366 . S
C846 C848 1.383 1_545 S
C847 C846 1.366 . S
C847 C851 1.385 . S
C848 H829 0.951 . S
C848 C846 1.383 1_565 S
C848 C849 1.370 . S
C849 C848 1.370 . S
C849 C850 1.414 . S
C849 C852 1.499 . S
C850 H830 0.950 . S
C850 C849 1.414 . S
C850 C851 1.374 1_565 S
C851 H831 0.950 . S
C851 C847 1.385 . S
C851 C850 1.374 1_545 S
C852 C849 1.499 . S
C852 C853 1.373 . S
C852 C854 1.389 . S
C853 H832 0.950 . S
C853 C852 1.373 . S
C853 C869 1.377 . S
C854 C852 1.389 . S
C854 C855 1.524 . S
C854 C868 1.377 . S
C855 C854 1.524 . S
C855 C856 1.397 . S
C855 C860 1.363 . S
C856 H833 0.950 . S
C856 C855 1.397 . S
C856 C857 1.334 . S
C857 H834 0.950 1_565 S
C857 C856 1.334 . S
C857 C858 1.287 1_565 S
C858 C857 1.287 1_545 S
C858 C859 1.524 1_545 S
C858 H877 0.913 . S
C859 H835 0.950 . S
C859 C858 1.524 1_565 S
C859 C860 1.415 . S
C860 H836 0.950 . S
C860 C855 1.363 . S
C860 C859 1.415 . S
C861 H837 0.951 . S
C861 C862 1.366 . S
C861 C863 1.388 . S
C862 C861 1.366 . S
C862 C866 1.385 . S
C863 H838 0.951 . S
C863 C861 1.388 . S
C863 C864 1.366 . S
C864 C863 1.366 . S
C864 C865 1.414 . S
C864 C867 1.499 . S
C865 H839 0.950 . S
C865 C864 1.414 . S
C865 C866 1.374 . S
C866 H840 0.950 . S
C866 C862 1.385 . S
C866 C865 1.374 . S
C867 C864 1.499 . S
C867 C868 1.373 . S
C867 C869 1.389 . S
C868 H841 0.950 . S
C868 C854 1.377 . S
C868 C867 1.373 . S
C869 C853 1.377 . S
C869 C867 1.389 . S
C869 C870 1.524 . S
C870 C869 1.524 . S
C870 C871 1.397 . S
C870 C875 1.363 . S
C871 H842 0.950 . S
C871 C870 1.397 . S
C871 C872 1.334 . S
C872 H843 0.950 . S
C872 C871 1.334 . S
C872 C873 1.287 . S
C873 C872 1.287 . S
C873 C874 1.524 . S
C873 H876 0.999 . S
C874 H844 0.950 . S
C874 C873 1.524 . S
C874 C875 1.415 . S
C875 H845 0.950 . S
C875 C870 1.363 . S
C875 C874 1.415 . S
H876 C873 0.999 . S
H877 C858 0.913 . S
H878 C896 0.951 . S
H879 C898 0.951 . S
H880 C900 0.950 . S
H881 C901 0.950 . S
H882 C903 0.950 . S
H883 C906 0.950 . S
H884 C907 0.950 . S
H885 C909 0.950 . S
H886 C910 0.950 . S
H887 C911 0.951 . S
H888 C913 0.951 . S
H889 C915 0.950 . S
H890 C916 0.950 . S
H891 C918 0.950 . S
H892 C921 0.950 . S
H893 C922 0.950 . S
H894 C924 0.950 . S
H895 C925 0.950 . S
C896 H878 0.951 . S
C896 C897 1.366 . S
C896 C898 1.388 . S
C897 C896 1.366 . S
C897 C901 1.385 . S
C898 H879 0.951 . S
C898 C896 1.388 . S
C898 C899 1.366 . S
C899 C898 1.366 . S
C899 C900 1.414 . S
C899 C902 1.499 . S
C900 H880 0.950 . S
C900 C899 1.414 . S
C900 C901 1.374 . S
C901 H881 0.950 . S
C901 C897 1.385 . S
C901 C900 1.374 . S
C902 C899 1.499 . S
C902 C903 1.373 . S
C902 C904 1.389 . S
C903 H882 0.950 . S
C903 C902 1.373 . S
C903 C919 1.377 . S
C904 C902 1.389 . S
C904 C905 1.524 . S
C904 C918 1.377 . S
C905 C904 1.524 . S
C905 C906 1.397 . S
C905 C910 1.363 . S
C906 H883 0.950 . S
C906 C905 1.397 . S
C906 C907 1.334 . S
C907 H884 0.950 . S
C907 C906 1.334 . S
C907 C908 1.287 . S
C908 C907 1.287 . S
C908 C909 1.524 . S
C908 H927 0.913 . S
C909 H885 0.950 . S
C909 C908 1.524 . S
C909 C910 1.415 . S
C910 H886 0.950 . S
C910 C905 1.363 . S
C910 C909 1.415 . S
C911 H887 0.951 . S
C911 C912 1.366 . S
C911 C913 1.388 . S
C912 C911 1.366 . S
C912 C916 1.385 . S
C913 H888 0.951 . S
C913 C911 1.388 . S
C913 C914 1.366 . S
C914 C913 1.366 . S
C914 C915 1.414 . S
C914 C917 1.499 . S
C915 H889 0.950 . S
C915 C914 1.414 . S
C915 C916 1.374 . S
C916 H890 0.950 . S
C916 C912 1.385 . S
C916 C915 1.374 . S
C917 C914 1.499 . S
C917 C918 1.373 . S
C917 C919 1.389 . S
C918 H891 0.950 . S
C918 C904 1.377 . S
C918 C917 1.373 . S
C919 C903 1.377 . S
C919 C917 1.389 . S
C919 C920 1.524 . S
C920 C919 1.524 . S
C920 C921 1.397 . S
C920 C925 1.363 . S
C921 H892 0.950 . S
C921 C920 1.397 . S
C921 C922 1.334 . S
C922 H893 0.950 . S
C922 C921 1.334 . S
C922 C923 1.287 . S
C923 C922 1.287 . S
C923 C924 1.524 . S
C923 H926 0.999 . S
C924 H894 0.950 . S
C924 C923 1.524 . S
C924 C925 1.415 . S
C925 H895 0.950 . S
C925 C920 1.363 . S
C925 C924 1.415 . S
H926 C923 0.999 . S
H927 C908 0.913 . S
H928 C946 0.951 . S
H929 C948 0.951 . S
H930 C950 0.950 . S
H931 C951 0.950 . S
H932 C953 0.950 . S
H933 C956 0.950 . S
H934 C957 0.950 . S
H935 C959 0.950 . S
H936 C960 0.950 . S
H937 C961 0.951 . S
H938 C963 0.951 . S
H939 C965 0.950 . S
H940 C966 0.950 . S
H941 C968 0.950 . S
H942 C971 0.950 . S
H943 C972 0.950 . S
H944 C974 0.950 . S
H945 C975 0.950 . S
C946 H928 0.951 . S
C946 C947 1.366 . S
C946 C948 1.388 . S
C947 C946 1.366 . S
C947 C951 1.385 . S
C948 H929 0.951 . S
C948 C946 1.388 . S
C948 C949 1.366 . S
C949 C948 1.366 . S
C949 C950 1.414 . S
C949 C952 1.499 . S
C950 H930 0.950 . S
C950 C949 1.414 . S
C950 C951 1.374 . S
C951 H931 0.950 . S
C951 C947 1.385 . S
C951 C950 1.374 . S
C952 C949 1.499 . S
C952 C953 1.373 . S
C952 C954 1.389 . S
C953 H932 0.950 . S
C953 C952 1.373 . S
C953 C969 1.377 . S
C954 C952 1.389 . S
C954 C955 1.524 . S
C954 C968 1.377 . S
C955 C954 1.524 . S
C955 C956 1.397 . S
C955 C960 1.363 . S
C956 H933 0.950 . S
C956 C955 1.397 . S
C956 C957 1.334 . S
C957 H934 0.950 . S
C957 C956 1.334 . S
C957 C958 1.287 . S
C958 C957 1.287 . S
C958 C959 1.524 . S
C958 H977 0.913 . S
C959 H935 0.950 . S
C959 C958 1.524 . S
C959 C960 1.415 . S
C960 H936 0.950 . S
C960 C955 1.363 . S
C960 C959 1.415 . S
C961 H937 0.951 . S
C961 C962 1.366 . S
C961 C963 1.388 . S
C962 C961 1.366 . S
C962 C966 1.385 . S
C963 H938 0.951 . S
C963 C961 1.388 . S
C963 C964 1.366 . S
C964 C963 1.366 . S
C964 C965 1.414 . S
C964 C967 1.499 . S
C965 H939 0.950 . S
C965 C964 1.414 . S
C965 C966 1.374 . S
C966 H940 0.950 . S
C966 C962 1.385 . S
C966 C965 1.374 . S
C967 C964 1.499 . S
C967 C968 1.373 . S
C967 C969 1.389 . S
C968 H941 0.950 . S
C968 C954 1.377 . S
C968 C967 1.373 . S
C969 C953 1.377 . S
C969 C967 1.389 . S
C969 C970 1.524 . S
C970 C969 1.524 . S
C970 C971 1.397 . S
C970 C975 1.363 . S
C971 H942 0.950 . S
C971 C970 1.397 . S
C971 C972 1.334 . S
C972 H943 0.950 . S
C972 C971 1.334 . S
C972 C973 1.287 . S
C973 C972 1.287 . S
C973 C974 1.524 . S
C973 H976 0.999 . S
C974 H944 0.950 . S
C974 C973 1.524 . S
C974 C975 1.415 . S
C975 H945 0.950 . S
C975 C970 1.363 . S
C975 C974 1.415 . S
H976 C973 0.999 . S
H977 C958 0.913 . S
H978 C996 0.951 . S
H979 C998 0.951 . S
H980 C1000 0.950 . S
H981 C1001 0.950 . S
H982 C1003 0.950 . S
H983 C1006 0.950 . S
H984 C1007 0.950 . S
H985 C1009 0.950 . S
H986 C1010 0.950 . S
H987 C1011 0.951 . S
H988 C1013 0.951 . S
H989 C1015 0.949 1_545 S
H990 C1016 0.950 . S
H991 C1018 0.950 . S
H992 C1021 0.950 . S
H993 C1022 0.950 . S
H994 C1024 0.950 . S
H995 C1025 0.950 . S
C996 H978 0.951 . S
C996 C997 1.366 . S
C996 C998 1.388 . S
C997 C996 1.366 . S
C997 C1001 1.385 . S
C998 H979 0.951 . S
C998 C996 1.388 . S
C998 C999 1.366 . S
C999 C998 1.366 . S
C999 C1000 1.414 . S
C999 C1002 1.499 . S
C1000 H980 0.950 . S
C1000 C999 1.414 . S
C1000 C1001 1.374 . S
C1001 H981 0.950 . S
C1001 C997 1.385 . S
C1001 C1000 1.374 . S
C1002 C999 1.499 . S
C1002 C1003 1.373 . S
C1002 C1004 1.389 . S
C1003 H982 0.950 . S
C1003 C1002 1.373 . S
C1003 C1019 1.377 . S
C1004 C1002 1.389 . S
C1004 C1005 1.524 . S
C1004 C1018 1.377 . S
C1005 C1004 1.524 . S
C1005 C1006 1.397 . S
C1005 C1010 1.363 . S
C1006 H983 0.950 . S
C1006 C1005 1.397 . S
C1006 C1007 1.334 . S
C1007 H984 0.950 . S
C1007 C1006 1.334 . S
C1007 C1008 1.287 . S
C1008 C1007 1.287 . S
C1008 C1009 1.524 . S
C1008 H1027 0.913 . S
C1009 H985 0.950 . S
C1009 C1008 1.524 . S
C1009 C1010 1.415 . S
C1010 H986 0.950 . S
C1010 C1005 1.363 . S
C1010 C1009 1.415 . S
C1011 H987 0.951 . S
C1011 C1012 1.366 . S
C1011 C1013 1.388 1_565 S
C1012 C1011 1.366 . S
C1012 C1016 1.385 . S
C1013 H988 0.951 . S
C1013 C1011 1.388 1_545 S
C1013 C1014 1.366 . S
C1014 C1013 1.366 . S
C1014 C1015 1.407 1_545 S
C1014 C1017 1.499 . S
C1015 H989 0.949 1_565 S
C1015 C1014 1.407 1_565 S
C1015 C1016 1.382 . S
C1016 H990 0.950 . S
C1016 C1012 1.385 . S
C1016 C1015 1.382 . S
C1017 C1014 1.499 . S
C1017 C1018 1.373 . S
C1017 C1019 1.389 . S
C1018 H991 0.950 . S
C1018 C1004 1.377 . S
C1018 C1017 1.373 . S
C1019 C1003 1.377 . S
C1019 C1017 1.389 . S
C1019 C1020 1.524 . S
C1020 C1019 1.524 . S
C1020 C1021 1.397 . S
C1020 C1025 1.363 . S
C1021 H992 0.950 . S
C1021 C1020 1.397 . S
C1021 C1022 1.334 . S
C1022 H993 0.950 . S
C1022 C1021 1.334 . S
C1022 C1023 1.287 . S
C1023 C1022 1.287 . S
C1023 C1024 1.524 . S
C1023 H1026 0.999 . S
C1024 H994 0.950 . S
C1024 C1023 1.524 . S
C1024 C1025 1.415 . S
C1025 H995 0.950 . S
C1025 C1020 1.363 . S
C1025 C1024 1.415 . S
H1026 C1023 0.999 . S
H1027 C1008 0.913 . S
H1028 C1046 0.951 . S
H1029 C1048 0.951 . S
H1030 C1050 0.950 . S
H1031 C1051 0.950 . S
H1032 C1053 0.950 . S
H1033 C1056 0.950 . S
H1034 C1057 0.950 . S
H1035 C1059 0.950 . S
H1036 C1060 0.950 . S
H1037 C1061 0.951 . S
H1038 C1063 0.951 . S
H1039 C1065 0.950 . S
H1040 C1066 0.950 . S
H1041 C1068 0.950 . S
H1042 C1071 0.950 . S
H1043 C1072 0.950 . S
H1044 C1074 0.950 . S
H1045 C1075 0.950 . S
C1046 H1028 0.951 . S
C1046 C1047 1.366 . S
C1046 C1048 1.388 . S
C1047 C1046 1.366 . S
C1047 C1051 1.385 . S
C1048 H1029 0.951 . S
C1048 C1046 1.388 . S
C1048 C1049 1.366 . S
C1049 C1048 1.366 . S
C1049 C1050 1.414 . S
C1049 C1052 1.499 . S
C1050 H1030 0.950 . S
C1050 C1049 1.414 . S
C1050 C1051 1.374 . S
C1051 H1031 0.950 . S
C1051 C1047 1.385 . S
C1051 C1050 1.374 . S
C1052 C1049 1.499 . S
C1052 C1053 1.373 . S
C1052 C1054 1.389 . S
C1053 H1032 0.950 . S
C1053 C1052 1.373 . S
C1053 C1069 1.377 . S
C1054 C1052 1.389 . S
C1054 C1055 1.524 . S
C1054 C1068 1.377 . S
C1055 C1054 1.524 . S
C1055 C1056 1.397 . S
C1055 C1060 1.363 . S
C1056 H1033 0.950 . S
C1056 C1055 1.397 . S
C1056 C1057 1.334 . S
C1057 H1034 0.950 . S
C1057 C1056 1.334 . S
C1057 C1058 1.287 . S
C1058 C1057 1.287 . S
C1058 C1059 1.524 . S
C1058 H1077 0.913 . S
C1059 H1035 0.950 . S
C1059 C1058 1.524 . S
C1059 C1060 1.415 . S
C1060 H1036 0.950 . S
C1060 C1055 1.363 . S
C1060 C1059 1.415 . S
C1061 H1037 0.951 . S
C1061 C1062 1.366 . S
C1061 C1063 1.388 . S
C1062 C1061 1.366 . S
C1062 C1066 1.385 . S
C1063 H1038 0.951 . S
C1063 C1061 1.388 . S
C1063 C1064 1.366 . S
C1064 C1063 1.366 . S
C1064 C1065 1.414 . S
C1064 C1067 1.499 . S
C1065 H1039 0.950 . S
C1065 C1064 1.414 . S
C1065 C1066 1.374 . S
C1066 H1040 0.950 . S
C1066 C1062 1.385 . S
C1066 C1065 1.374 . S
C1067 C1064 1.499 . S
C1067 C1068 1.373 . S
C1067 C1069 1.389 . S
C1068 H1041 0.950 . S
C1068 C1054 1.377 . S
C1068 C1067 1.373 . S
C1069 C1053 1.377 . S
C1069 C1067 1.389 . S
C1069 C1070 1.524 . S
C1070 C1069 1.524 . S
C1070 C1071 1.397 . S
C1070 C1075 1.363 . S
C1071 H1042 0.950 . S
C1071 C1070 1.397 . S
C1071 C1072 1.334 . S
C1072 H1043 0.950 . S
C1072 C1071 1.334 . S
C1072 C1073 1.287 . S
C1073 C1072 1.287 . S
C1073 C1074 1.524 . S
C1073 H1076 0.999 . S
C1074 H1044 0.950 . S
C1074 C1073 1.524 . S
C1074 C1075 1.415 . S
C1075 H1045 0.950 . S
C1075 C1070 1.363 . S
C1075 C1074 1.415 . S
H1076 C1073 0.999 . S
H1077 C1058 0.913 . S
H1078 C1096 0.951 . S
H1079 C1098 0.951 . S
H1080 C1100 0.950 . S
H1081 C1101 0.950 . S
H1082 C1103 0.950 . S
H1083 C1106 0.950 . S
H1084 C1107 0.950 . S
H1085 C1109 0.950 . S
H1086 C1110 0.950 . S
H1087 C1111 0.951 . S
H1088 C1113 0.951 . S
H1089 C1115 0.950 . S
H1090 C1116 0.950 . S
H1091 C1118 0.950 . S
H1092 C1121 0.950 . S
H1093 C1122 0.950 . S
H1094 C1124 0.950 . S
H1095 C1125 0.950 . S
C1096 H1078 0.951 . S
C1096 C1097 1.366 . S
C1096 C1098 1.388 1_545 S
C1097 C1096 1.366 . S
C1097 C1101 1.385 . S
C1098 H1079 0.951 . S
C1098 C1096 1.388 1_565 S
C1098 C1099 1.366 . S
C1099 C1098 1.366 . S
C1099 C1100 1.414 . S
C1099 C1102 1.499 . S
C1100 H1080 0.950 . S
C1100 C1099 1.414 . S
C1100 C1101 1.374 1_565 S
C1101 H1081 0.950 . S
C1101 C1097 1.385 . S
C1101 C1100 1.374 1_545 S
C1102 C1099 1.499 . S
C1102 C1103 1.373 . S
C1102 C1104 1.389 . S
C1103 H1082 0.950 . S
C1103 C1102 1.373 . S
C1103 C1119 1.377 . S
C1104 C1102 1.389 . S
C1104 C1105 1.524 . S
C1104 C1118 1.377 . S
C1105 C1104 1.524 . S
C1105 C1106 1.397 . S
C1105 C1110 1.363 . S
C1106 H1083 0.950 . S
C1106 C1105 1.397 . S
C1106 C1107 1.334 . S
C1107 H1084 0.950 . S
C1107 C1106 1.334 . S
C1107 C1108 1.287 . S
C1108 C1107 1.287 . S
C1108 C1109 1.524 . S
C1108 H1127 0.913 . S
C1109 H1085 0.950 . S
C1109 C1108 1.524 . S
C1109 C1110 1.415 . S
C1110 H1086 0.950 . S
C1110 C1105 1.363 . S
C1110 C1109 1.415 . S
C1111 H1087 0.951 . S
C1111 C1112 1.366 . S
C1111 C1113 1.388 . S
C1112 C1111 1.366 . S
C1112 C1116 1.385 . S
C1113 H1088 0.951 . S
C1113 C1111 1.388 . S
C1113 C1114 1.366 . S
C1114 C1113 1.366 . S
C1114 C1115 1.414 . S
C1114 C1117 1.499 . S
C1115 H1089 0.950 . S
C1115 C1114 1.414 . S
C1115 C1116 1.374 . S
C1116 H1090 0.950 . S
C1116 C1112 1.385 . S
C1116 C1115 1.374 . S
C1117 C1114 1.499 . S
C1117 C1118 1.373 . S
C1117 C1119 1.389 . S
C1118 H1091 0.950 . S
C1118 C1104 1.377 . S
C1118 C1117 1.373 . S
C1119 C1103 1.377 . S
C1119 C1117 1.389 . S
C1119 C1120 1.524 . S
C1120 C1119 1.524 . S
C1120 C1121 1.397 . S
C1120 C1125 1.363 . S
C1121 H1092 0.950 . S
C1121 C1120 1.397 . S
C1121 C1122 1.334 . S
C1122 H1093 0.950 . S
C1122 C1121 1.334 . S
C1122 C1123 1.287 . S
C1123 C1122 1.287 . S
C1123 C1124 1.524 . S
C1123 H1126 0.999 . S
C1124 H1094 0.950 . S
C1124 C1123 1.524 . S
C1124 C1125 1.415 . S
C1125 H1095 0.950 . S
C1125 C1120 1.363 . S
C1125 C1124 1.415 . S
H1126 C1123 0.999 . S
H1127 C1108 0.913 . S
H1128 C1146 0.951 . S
H1129 C1148 0.951 . S
H1130 C1150 0.950 . S
H1131 C1151 0.950 . S
H1132 C1153 0.950 . S
H1133 C1156 0.950 . S
H1134 C1157 0.950 . S
H1135 C1159 0.950 . S
H1136 C1160 0.950 . S
H1137 C1161 0.951 . S
H1138 C1163 0.951 . S
H1139 C1165 0.950 . S
H1140 C1166 0.950 . S
H1141 C1168 0.950 . S
H1142 C1171 0.950 . S
H1143 C1172 0.950 . S
H1144 C1174 0.950 . S
H1145 C1175 0.950 . S
C1146 H1128 0.951 . S
C1146 C1147 1.366 . S
C1146 C1148 1.388 . S
C1147 C1146 1.366 . S
C1147 C1151 1.385 . S
C1148 H1129 0.951 . S
C1148 C1146 1.388 . S
C1148 C1149 1.366 . S
C1149 C1148 1.366 . S
C1149 C1150 1.414 . S
C1149 C1152 1.499 . S
C1150 H1130 0.950 . S
C1150 C1149 1.414 . S
C1150 C1151 1.374 . S
C1151 H1131 0.950 . S
C1151 C1147 1.385 . S
C1151 C1150 1.374 . S
C1152 C1149 1.499 . S
C1152 C1153 1.373 . S
C1152 C1154 1.389 . S
C1153 H1132 0.950 . S
C1153 C1152 1.373 . S
C1153 C1169 1.377 . S
C1154 C1152 1.389 . S
C1154 C1155 1.524 . S
C1154 C1168 1.377 . S
C1155 C1154 1.524 . S
C1155 C1156 1.397 . S
C1155 C1160 1.363 . S
C1156 H1133 0.950 . S
C1156 C1155 1.397 . S
C1156 C1157 1.334 . S
C1157 H1134 0.950 . S
C1157 C1156 1.334 . S
C1157 C1158 1.287 . S
C1158 C1157 1.287 . S
C1158 C1159 1.524 . S
C1158 H1177 0.913 . S
C1159 H1135 0.950 . S
C1159 C1158 1.524 . S
C1159 C1160 1.415 . S
C1160 H1136 0.950 . S
C1160 C1155 1.363 . S
C1160 C1159 1.415 . S
C1161 H1137 0.951 . S
C1161 C1162 1.366 . S
C1161 C1163 1.388 . S
C1162 C1161 1.366 . S
C1162 C1166 1.385 . S
C1163 H1138 0.951 . S
C1163 C1161 1.388 . S
C1163 C1164 1.366 . S
C1164 C1163 1.366 . S
C1164 C1165 1.414 . S
C1164 C1167 1.499 . S
C1165 H1139 0.950 . S
C1165 C1164 1.414 . S
C1165 C1166 1.374 . S
C1166 H1140 0.950 . S
C1166 C1162 1.385 . S
C1166 C1165 1.374 . S
C1167 C1164 1.499 . S
C1167 C1168 1.373 . S
C1167 C1169 1.389 . S
C1168 H1141 0.950 . S
C1168 C1154 1.377 . S
C1168 C1167 1.373 . S
C1169 C1153 1.377 . S
C1169 C1167 1.389 . S
C1169 C1170 1.524 . S
C1170 C1169 1.524 . S
C1170 C1171 1.397 . S
C1170 C1175 1.363 . S
C1171 H1142 0.950 . S
C1171 C1170 1.397 . S
C1171 C1172 1.334 . S
C1172 H1143 0.950 . S
C1172 C1171 1.334 . S
C1172 C1173 1.287 . S
C1173 C1172 1.287 . S
C1173 C1174 1.524 . S
C1173 H1176 0.999 . S
C1174 H1144 0.950 . S
C1174 C1173 1.524 . S
C1174 C1175 1.415 . S
C1175 H1145 0.950 . S
C1175 C1170 1.363 . S
C1175 C1174 1.415 . S
H1176 C1173 0.999 . S
H1177 C1158 0.913 . S
H1178 C1196 0.951 . S
H1179 C1198 0.951 . S
H1180 C1200 0.954 . S
H1181 C1201 0.950 . S
H1182 C1203 0.950 . S
H1183 C1206 0.950 . S
H1184 C1207 0.950 . S
H1185 C1209 0.950 . S
H1186 C1210 0.950 . S
H1187 C1211 0.951 . S
H1188 C1213 0.951 . S
H1189 C1215 0.950 . S
H1190 C1216 0.950 . S
H1191 C1218 0.950 . S
H1192 C1221 0.950 . S
H1193 C1222 0.950 . S
H1194 C1224 0.950 . S
H1195 C1225 0.950 . S
C1196 H1178 0.951 . S
C1196 C1197 1.366 . S
C1196 C1198 1.388 1_545 S
C1197 C1196 1.366 . S
C1197 C1201 1.385 . S
C1198 H1179 0.951 . S
C1198 C1196 1.388 1_565 S
C1198 C1199 1.366 . S
C1199 C1198 1.366 . S
C1199 C1200 1.431 . S
C1199 C1202 1.499 . S
C1200 H1180 0.954 . S
C1200 C1199 1.431 . S
C1200 C1201 1.354 1_565 S
C1201 H1181 0.950 . S
C1201 C1197 1.385 . S
C1201 C1200 1.354 1_545 S
C1202 C1199 1.499 . S
C1202 C1203 1.373 . S
C1202 C1204 1.389 . S
C1203 H1182 0.950 . S
C1203 C1202 1.373 . S
C1203 C1219 1.377 . S
C1204 C1202 1.389 . S
C1204 C1205 1.524 . S
C1204 C1218 1.377 . S
C1205 C1204 1.524 . S
C1205 C1206 1.397 . S
C1205 C1210 1.363 . S
C1206 H1183 0.950 . S
C1206 C1205 1.397 . S
C1206 C1207 1.334 . S
C1207 H1184 0.950 . S
C1207 C1206 1.334 . S
C1207 C1208 1.287 . S
C1208 C1207 1.287 . S
C1208 C1209 1.524 . S
C1208 H1227 0.913 . S
C1209 H1185 0.950 . S
C1209 C1208 1.524 . S
C1209 C1210 1.415 . S
C1210 H1186 0.950 . S
C1210 C1205 1.363 . S
C1210 C1209 1.415 . S
C1211 H1187 0.951 . S
C1211 C1212 1.366 . S
C1211 C1213 1.388 . S
C1212 C1211 1.366 . S
C1212 C1216 1.385 . S
C1213 H1188 0.951 . S
C1213 C1211 1.388 . S
C1213 C1214 1.366 . S
C1214 C1213 1.366 . S
C1214 C1215 1.414 . S
C1214 C1217 1.499 . S
C1215 H1189 0.950 . S
C1215 C1214 1.414 . S
C1215 C1216 1.374 . S
C1216 H1190 0.950 . S
C1216 C1212 1.385 . S
C1216 C1215 1.374 . S
C1217 C1214 1.499 . S
C1217 C1218 1.373 . S
C1217 C1219 1.389 . S
C1218 H1191 0.950 . S
C1218 C1204 1.377 . S
C1218 C1217 1.373 . S
C1219 C1203 1.377 . S
C1219 C1217 1.389 . S
C1219 C1220 1.524 . S
C1220 C1219 1.524 . S
C1220 C1221 1.397 . S
C1220 C1225 1.363 . S
C1221 H1192 0.950 . S
C1221 C1220 1.397 . S
C1221 C1222 1.334 . S
C1222 H1193 0.950 . S
C1222 C1221 1.334 . S
C1222 C1223 1.287 . S
C1223 C1222 1.287 . S
C1223 C1224 1.524 . S
C1223 H1226 0.999 . S
C1224 H1194 0.950 . S
C1224 C1223 1.524 . S
C1224 C1225 1.415 . S
C1225 H1195 0.950 . S
C1225 C1220 1.363 . S
C1225 C1224 1.415 . S
H1226 C1223 0.999 . S
H1227 C1208 0.913 . S
H1228 C1246 0.951 . S
H1229 C1248 0.951 . S
H1230 C1250 0.950 . S
H1231 C1251 0.950 . S
H1232 C1253 0.950 . S
H1233 C1256 0.950 . S
H1234 C1257 0.950 . S
H1235 C1259 0.950 . S
H1236 C1260 0.950 . S
H1237 C1261 0.951 . S
H1238 C1263 0.951 . S
H1239 C1265 0.950 . S
H1240 C1266 0.950 . S
H1241 C1268 0.950 . S
H1242 C1271 0.950 . S
H1243 C1272 0.950 . S
H1244 C1274 0.950 . S
H1245 C1275 0.950 . S
C1246 H1228 0.951 . S
C1246 C1247 1.366 . S
C1246 C1248 1.388 . S
C1247 C1246 1.366 . S
C1247 C1251 1.385 . S
C1248 H1229 0.951 . S
C1248 C1246 1.388 . S
C1248 C1249 1.366 . S
C1249 C1248 1.366 . S
C1249 C1250 1.414 . S
C1249 C1252 1.499 . S
C1250 H1230 0.950 . S
C1250 C1249 1.414 . S
C1250 C1251 1.374 . S
C1251 H1231 0.950 . S
C1251 C1247 1.385 . S
C1251 C1250 1.374 . S
C1252 C1249 1.499 . S
C1252 C1253 1.373 . S
C1252 C1254 1.389 . S
C1253 H1232 0.950 . S
C1253 C1252 1.373 . S
C1253 C1269 1.377 . S
C1254 C1252 1.389 . S
C1254 C1255 1.524 . S
C1254 C1268 1.377 . S
C1255 C1254 1.524 . S
C1255 C1256 1.397 . S
C1255 C1260 1.363 . S
C1256 H1233 0.950 . S
C1256 C1255 1.397 . S
C1256 C1257 1.334 . S
C1257 H1234 0.950 . S
C1257 C1256 1.334 . S
C1257 C1258 1.287 . S
C1258 C1257 1.287 . S
C1258 C1259 1.524 . S
C1258 H1277 0.913 . S
C1259 H1235 0.950 . S
C1259 C1258 1.524 . S
C1259 C1260 1.415 . S
C1260 H1236 0.950 . S
C1260 C1255 1.363 . S
C1260 C1259 1.415 . S
C1261 H1237 0.951 . S
C1261 C1262 1.366 . S
C1261 C1263 1.388 . S
C1262 C1261 1.366 . S
C1262 C1266 1.385 . S
C1263 H1238 0.951 . S
C1263 C1261 1.388 . S
C1263 C1264 1.366 . S
C1264 C1263 1.366 . S
C1264 C1265 1.414 . S
C1264 C1267 1.499 . S
C1265 H1239 0.950 . S
C1265 C1264 1.414 . S
C1265 C1266 1.374 . S
C1266 H1240 0.950 . S
C1266 C1262 1.385 . S
C1266 C1265 1.374 . S
C1267 C1264 1.499 . S
C1267 C1268 1.373 . S
C1267 C1269 1.389 . S
C1268 H1241 0.950 . S
C1268 C1254 1.377 . S
C1268 C1267 1.373 . S
C1269 C1253 1.377 . S
C1269 C1267 1.389 . S
C1269 C1270 1.524 . S
C1270 C1269 1.524 . S
C1270 C1271 1.397 . S
C1270 C1275 1.363 . S
C1271 H1242 0.950 . S
C1271 C1270 1.397 . S
C1271 C1272 1.334 . S
C1272 H1243 0.950 . S
C1272 C1271 1.334 . S
C1272 C1273 1.287 . S
C1273 C1272 1.287 . S
C1273 C1274 1.524 . S
C1273 H1276 0.999 . S
C1274 H1244 0.950 . S
C1274 C1273 1.524 . S
C1274 C1275 1.415 . S
C1275 H1245 0.950 . S
C1275 C1270 1.363 . S
C1275 C1274 1.415 . S
H1276 C1273 0.999 . S
H1277 C1258 0.913 . S
H1278 C1296 0.951 . S
H1279 C1298 0.951 . S
H1280 C1300 0.950 . S
H1281 C1301 0.950 . S
H1282 C1303 0.950 . S
H1283 C1306 0.950 . S
H1284 C1307 0.950 . S
H1285 C1309 0.950 . S
H1286 C1310 0.950 . S
H1287 C1311 0.951 . S
H1288 C1313 0.951 . S
H1289 C1315 0.950 . S
H1290 C1316 0.950 . S
H1291 C1318 0.950 . S
H1292 C1321 0.950 . S
H1293 C1322 0.950 . S
H1294 C1324 0.950 . S
H1295 C1325 0.950 . S
C1296 H1278 0.951 . S
C1296 C1297 1.366 . S
C1296 C1298 1.388 . S
C1297 C1296 1.366 . S
C1297 C1301 1.385 . S
C1298 H1279 0.951 . S
C1298 C1296 1.388 . S
C1298 C1299 1.366 . S
C1299 C1298 1.366 . S
C1299 C1300 1.414 . S
C1299 C1302 1.499 . S
C1300 H1280 0.950 . S
C1300 C1299 1.414 . S
C1300 C1301 1.374 . S
C1301 H1281 0.950 . S
C1301 C1297 1.385 . S
C1301 C1300 1.374 . S
C1302 C1299 1.499 . S
C1302 C1303 1.373 . S
C1302 C1304 1.389 . S
C1303 H1282 0.950 . S
C1303 C1302 1.373 . S
C1303 C1319 1.377 . S
C1304 C1302 1.389 . S
C1304 C1305 1.524 . S
C1304 C1318 1.377 . S
C1305 C1304 1.524 . S
C1305 C1306 1.397 . S
C1305 C1310 1.363 . S
C1306 H1283 0.950 . S
C1306 C1305 1.397 . S
C1306 C1307 1.334 . S
C1307 H1284 0.950 . S
C1307 C1306 1.334 . S
C1307 C1308 1.287 . S
C1308 C1307 1.287 . S
C1308 C1309 1.524 . S
C1308 H1327 0.913 . S
C1309 H1285 0.950 . S
C1309 C1308 1.524 . S
C1309 C1310 1.415 . S
C1310 H1286 0.950 . S
C1310 C1305 1.363 . S
C1310 C1309 1.415 . S
C1311 H1287 0.951 . S
C1311 C1312 1.366 . S
C1311 C1313 1.388 1_565 S
C1312 C1311 1.366 . S
C1312 C1316 1.385 . S
C1313 H1288 0.951 . S
C1313 C1311 1.388 1_545 S
C1313 C1314 1.366 . S
C1314 C1313 1.366 . S
C1314 C1315 1.414 . S
C1314 C1317 1.499 . S
C1315 H1289 0.950 . S
C1315 C1314 1.414 . S
C1315 C1316 1.374 1_545 S
C1316 H1290 0.950 . S
C1316 C1312 1.385 . S
C1316 C1315 1.374 1_565 S
C1317 C1314 1.499 . S
C1317 C1318 1.373 . S
C1317 C1319 1.389 . S
C1318 H1291 0.950 . S
C1318 C1304 1.377 . S
C1318 C1317 1.373 . S
C1319 C1303 1.377 . S
C1319 C1317 1.389 . S
C1319 C1320 1.524 . S
C1320 C1319 1.524 . S
C1320 C1321 1.397 . S
C1320 C1325 1.363 . S
C1321 H1292 0.950 . S
C1321 C1320 1.397 . S
C1321 C1322 1.334 1_545 S
C1322 H1293 0.950 . S
C1322 C1321 1.334 1_565 S
C1322 C1323 1.287 . S
C1323 C1322 1.287 . S
C1323 C1324 1.524 1_565 S
C1323 H1326 0.999 . S
C1324 H1294 0.950 . S
C1324 C1323 1.524 1_545 S
C1324 C1325 1.415 . S
C1325 H1295 0.950 . S
C1325 C1320 1.363 . S
C1325 C1324 1.415 . S
H1326 C1323 0.999 . S
H1327 C1308 0.913 . S
H1328 C1346 0.951 . S
H1329 C1348 0.951 . S
H1330 C1350 0.950 . S
H1331 C1351 0.950 . S
H1332 C1353 0.950 . S
H1333 C1356 0.950 . S
H1334 C1357 0.950 . S
H1335 C1359 0.950 . S
H1336 C1360 0.950 . S
H1337 C1361 0.951 . S
H1338 C1363 0.951 . S
H1339 C1365 0.950 . S
H1340 C1366 0.950 . S
H1341 C1368 0.950 . S
H1342 C1371 0.950 . S
H1343 C1372 0.950 . S
H1344 C1374 0.950 . S
H1345 C1375 0.950 . S
C1346 H1328 0.951 . S
C1346 C1347 1.366 . S
C1346 C1348 1.388 . S
C1347 C1346 1.366 . S
C1347 C1351 1.385 . S
C1348 H1329 0.951 . S
C1348 C1346 1.388 . S
C1348 C1349 1.366 . S
C1349 C1348 1.366 . S
C1349 C1350 1.414 . S
C1349 C1352 1.499 . S
C1350 H1330 0.950 . S
C1350 C1349 1.414 . S
C1350 C1351 1.374 . S
C1351 H1331 0.950 . S
C1351 C1347 1.385 . S
C1351 C1350 1.374 . S
C1352 C1349 1.499 . S
C1352 C1353 1.373 . S
C1352 C1354 1.389 . S
C1353 H1332 0.950 . S
C1353 C1352 1.373 . S
C1353 C1369 1.377 1_554 S
C1354 C1352 1.389 . S
C1354 C1355 1.524 . S
C1354 C1368 1.377 1_554 S
C1355 C1354 1.524 . S
C1355 C1356 1.397 . S
C1355 C1360 1.363 1_554 S
C1356 H1333 0.950 . S
C1356 C1355 1.397 . S
C1356 C1357 1.334 . S
C1357 H1334 0.950 . S
C1357 C1356 1.334 . S
C1357 C1358 1.287 . S
C1358 C1357 1.287 . S
C1358 C1359 1.524 1_554 S
C1358 H1377 0.913 . S
C1359 H1335 0.950 . S
C1359 C1358 1.524 1_556 S
C1359 C1360 1.415 . S
C1360 H1336 0.950 . S
C1360 C1355 1.363 1_556 S
C1360 C1359 1.415 . S
C1361 H1337 0.951 . S
C1361 C1362 1.366 . S
C1361 C1363 1.388 . S
C1362 C1361 1.366 . S
C1362 C1366 1.385 . S
C1363 H1338 0.951 . S
C1363 C1361 1.388 . S
C1363 C1364 1.366 . S
C1364 C1363 1.366 . S
C1364 C1365 1.414 . S
C1364 C1367 1.499 . S
C1365 H1339 0.950 . S
C1365 C1364 1.414 . S
C1365 C1366 1.374 . S
C1366 H1340 0.950 . S
C1366 C1362 1.385 . S
C1366 C1365 1.374 . S
C1367 C1364 1.499 . S
C1367 C1368 1.373 . S
C1367 C1369 1.389 . S
C1368 H1341 0.950 . S
C1368 C1354 1.377 1_556 S
C1368 C1367 1.373 . S
C1369 C1353 1.377 1_556 S
C1369 C1367 1.389 . S
C1369 C1370 1.524 . S
C1370 C1369 1.524 . S
C1370 C1371 1.397 . S
C1370 C1375 1.363 1_556 S
C1371 H1342 0.950 . S
C1371 C1370 1.397 . S
C1371 C1372 1.334 . S
C1372 H1343 0.950 . S
C1372 C1371 1.334 . S
C1372 C1373 1.287 . S
C1373 C1372 1.287 . S
C1373 C1374 1.524 1_556 S
C1373 H1376 0.999 . S
C1374 H1344 0.950 . S
C1374 C1373 1.524 1_554 S
C1374 C1375 1.415 . S
C1375 H1345 0.950 . S
C1375 C1370 1.363 1_554 S
C1375 C1374 1.415 . S
H1376 C1373 0.999 . S
H1377 C1358 0.913 . S
H1378 C1396 0.951 . S
H1379 C1398 0.951 . S
H1380 C1400 0.950 . S
H1381 C1401 0.950 . S
H1382 C1403 0.950 . S
H1383 C1406 0.950 . S
H1384 C1407 0.950 . S
H1385 C1409 0.950 1_554 S
H1386 C1410 0.998 . S
H1387 C1411 0.951 . S
H1388 C1413 0.951 . S
H1389 C1415 0.950 . S
H1390 C1416 0.950 . S
H1391 C1418 0.950 . S
H1392 C1421 0.950 . S
H1393 C1422 0.950 . S
H1394 C1424 0.950 1_556 S
H1395 C1425 0.998 . S
C1396 H1378 0.951 . S
C1396 C1397 1.366 . S
C1396 C1398 1.388 . S
C1397 C1396 1.366 . S
C1397 C1401 1.385 . S
C1398 H1379 0.951 . S
C1398 C1396 1.388 . S
C1398 C1399 1.366 . S
C1399 C1398 1.366 . S
C1399 C1400 1.414 . S
C1399 C1402 1.499 . S
C1400 H1380 0.950 . S
C1400 C1399 1.414 . S
C1400 C1401 1.374 . S
C1401 H1381 0.950 . S
C1401 C1397 1.385 . S
C1401 C1400 1.374 . S
C1402 C1399 1.499 . S
C1402 C1403 1.373 . S
C1402 C1404 1.389 . S
C1403 H1382 0.950 . S
C1403 C1402 1.373 . S
C1403 C1419 1.377 1_556 S
C1404 C1402 1.389 . S
C1404 C1405 1.524 . S
C1404 C1418 1.377 1_556 S
C1405 C1404 1.524 . S
C1405 C1406 1.397 . S
C1405 C1410 1.329 1_556 S
C1406 H1383 0.950 . S
C1406 C1405 1.397 . S
C1406 C1407 1.334 . S
C1407 H1384 0.950 . S
C1407 C1406 1.334 . S
C1407 C1408 1.287 . S
C1408 C1407 1.287 . S
C1408 C1409 1.524 . S
C1408 H1427 0.913 . S
C1409 H1385 0.950 1_556 S
C1409 C1408 1.524 . S
C1409 C1410 1.403 1_556 S
C1410 H1386 0.998 . S
C1410 C1405 1.329 1_554 S
C1410 C1409 1.403 1_554 S
C1411 H1387 0.951 . S
C1411 C1412 1.366 . S
C1411 C1413 1.388 . S
C1412 C1411 1.366 . S
C1412 C1416 1.385 . S
C1413 H1388 0.951 . S
C1413 C1411 1.388 . S
C1413 C1414 1.366 . S
C1414 C1413 1.366 . S
C1414 C1415 1.414 . S
C1414 C1417 1.499 . S
C1415 H1389 0.950 . S
C1415 C1414 1.414 . S
C1415 C1416 1.374 . S
C1416 H1390 0.950 . S
C1416 C1412 1.385 . S
C1416 C1415 1.374 . S
C1417 C1414 1.499 . S
C1417 C1418 1.373 . S
C1417 C1419 1.389 . S
C1418 H1391 0.950 . S
C1418 C1404 1.377 1_554 S
C1418 C1417 1.373 . S
C1419 C1403 1.377 1_554 S
C1419 C1417 1.389 . S
C1419 C1420 1.524 . S
C1420 C1419 1.524 . S
C1420 C1421 1.397 . S
C1420 C1425 1.329 1_554 S
C1421 H1392 0.950 . S
C1421 C1420 1.397 . S
C1421 C1422 1.334 . S
C1422 H1393 0.950 . S
C1422 C1421 1.334 . S
C1422 C1423 1.287 . S
C1423 C1422 1.287 . S
C1423 C1424 1.524 . S
C1423 H1426 0.999 . S
C1424 H1394 0.950 1_554 S
C1424 C1423 1.524 . S
C1424 C1425 1.403 1_554 S
C1425 H1395 0.998 . S
C1425 C1420 1.329 1_556 S
C1425 C1424 1.403 1_556 S
H1426 C1423 0.999 . S
H1427 C1408 0.913 . S
H1428 C1446 0.951 . S
H1429 C1448 0.951 . S
H1430 C1450 0.950 . S
H1431 C1451 0.950 . S
H1432 C1453 0.950 . S
H1433 C1456 0.950 . S
H1434 C1457 0.950 . S
H1435 C1459 0.950 . S
H1436 C1460 0.950 . S
H1437 C1461 0.951 . S
H1438 C1463 0.951 . S
H1439 C1465 0.950 . S
H1440 C1466 0.950 . S
H1441 C1468 0.950 . S
H1442 C1471 0.950 . S
H1443 C1472 0.950 . S
H1444 C1474 0.950 . S
H1445 C1475 0.950 . S
C1446 H1428 0.951 . S
C1446 C1447 1.366 . S
C1446 C1448 1.388 . S
C1447 C1446 1.366 . S
C1447 C1451 1.385 . S
C1448 H1429 0.951 . S
C1448 C1446 1.388 . S
C1448 C1449 1.366 . S
C1449 C1448 1.366 . S
C1449 C1450 1.414 . S
C1449 C1452 1.499 . S
C1450 H1430 0.950 . S
C1450 C1449 1.414 . S
C1450 C1451 1.374 . S
C1451 H1431 0.950 . S
C1451 C1447 1.385 . S
C1451 C1450 1.374 . S
C1452 C1449 1.499 . S
C1452 C1453 1.373 . S
C1452 C1454 1.389 . S
C1453 H1432 0.950 . S
C1453 C1452 1.373 . S
C1453 C1469 1.377 . S
C1454 C1452 1.389 . S
C1454 C1455 1.524 . S
C1454 C1468 1.377 . S
C1455 C1454 1.524 . S
C1455 C1456 1.397 . S
C1455 C1460 1.363 . S
C1456 H1433 0.950 . S
C1456 C1455 1.397 . S
C1456 C1457 1.334 . S
C1457 H1434 0.950 . S
C1457 C1456 1.334 . S
C1457 C1458 1.287 . S
C1458 C1457 1.287 . S
C1458 C1459 1.524 . S
C1458 H1477 0.913 . S
C1459 H1435 0.950 . S
C1459 C1458 1.524 . S
C1459 C1460 1.415 . S
C1460 H1436 0.950 . S
C1460 C1455 1.363 . S
C1460 C1459 1.415 . S
C1461 H1437 0.951 . S
C1461 C1462 1.366 . S
C1461 C1463 1.388 . S
C1462 C1461 1.366 . S
C1462 C1466 1.385 . S
C1463 H1438 0.951 . S
C1463 C1461 1.388 . S
C1463 C1464 1.366 . S
C1464 C1463 1.366 . S
C1464 C1465 1.414 . S
C1464 C1467 1.499 . S
C1465 H1439 0.950 . S
C1465 C1464 1.414 . S
C1465 C1466 1.374 . S
C1466 H1440 0.950 . S
C1466 C1462 1.385 . S
C1466 C1465 1.374 . S
C1467 C1464 1.499 . S
C1467 C1468 1.373 . S
C1467 C1469 1.389 . S
C1468 H1441 0.950 . S
C1468 C1454 1.377 . S
C1468 C1467 1.373 . S
C1469 C1453 1.377 . S
C1469 C1467 1.389 . S
C1469 C1470 1.524 . S
C1470 C1469 1.524 . S
C1470 C1471 1.397 . S
C1470 C1475 1.363 . S
C1471 H1442 0.950 . S
C1471 C1470 1.397 . S
C1471 C1472 1.334 . S
C1472 H1443 0.950 . S
C1472 C1471 1.334 . S
C1472 C1473 1.287 . S
C1473 C1472 1.287 . S
C1473 C1474 1.524 . S
C1473 H1476 0.999 . S
C1474 H1444 0.950 . S
C1474 C1473 1.524 . S
C1474 C1475 1.415 . S
C1475 H1445 0.950 . S
C1475 C1470 1.363 . S
C1475 C1474 1.415 . S
H1476 C1473 0.999 . S
H1477 C1458 0.913 . S
H1478 C1496 0.951 . S
H1479 C1498 0.951 . S
H1480 C1500 0.950 . S
H1481 C1501 0.950 . S
H1482 C1503 0.950 . S
H1483 C1506 0.950 . S
H1484 C1507 0.950 . S
H1485 C1509 0.950 . S
H1486 C1510 0.950 . S
H1487 C1511 0.951 . S
H1488 C1513 0.951 . S
H1489 C1515 0.950 . S
H1490 C1516 0.950 . S
H1491 C1518 0.950 . S
H1492 C1521 0.950 . S
H1493 C1522 0.950 . S
H1494 C1524 0.950 . S
H1495 C1525 0.950 . S
C1496 H1478 0.951 . S
C1496 C1497 1.366 . S
C1496 C1498 1.388 . S
C1497 C1496 1.366 . S
C1497 C1501 1.385 . S
C1498 H1479 0.951 . S
C1498 C1496 1.388 . S
C1498 C1499 1.366 . S
C1499 C1498 1.366 . S
C1499 C1500 1.414 . S
C1499 C1502 1.499 . S
C1500 H1480 0.950 . S
C1500 C1499 1.414 . S
C1500 C1501 1.374 . S
C1501 H1481 0.950 . S
C1501 C1497 1.385 . S
C1501 C1500 1.374 . S
C1502 C1499 1.499 . S
C1502 C1503 1.373 . S
C1502 C1504 1.389 . S
C1503 H1482 0.950 . S
C1503 C1502 1.373 . S
C1503 C1519 1.377 . S
C1504 C1502 1.389 . S
C1504 C1505 1.524 . S
C1504 C1518 1.377 . S
C1505 C1504 1.524 . S
C1505 C1506 1.397 . S
C1505 C1510 1.363 . S
C1506 H1483 0.950 . S
C1506 C1505 1.397 . S
C1506 C1507 1.334 . S
C1507 H1484 0.950 . S
C1507 C1506 1.334 . S
C1507 C1508 1.287 . S
C1508 C1507 1.287 . S
C1508 C1509 1.524 . S
C1508 H1527 0.913 . S
C1509 H1485 0.950 . S
C1509 C1508 1.524 . S
C1509 C1510 1.415 . S
C1510 H1486 0.950 . S
C1510 C1505 1.363 . S
C1510 C1509 1.415 . S
C1511 H1487 0.951 . S
C1511 C1512 1.366 . S
C1511 C1513 1.388 . S
C1512 C1511 1.366 . S
C1512 C1516 1.385 . S
C1513 H1488 0.951 . S
C1513 C1511 1.388 . S
C1513 C1514 1.366 . S
C1514 C1513 1.366 . S
C1514 C1515 1.414 . S
C1514 C1517 1.499 . S
C1515 H1489 0.950 . S
C1515 C1514 1.414 . S
C1515 C1516 1.374 . S
C1516 H1490 0.950 . S
C1516 C1512 1.385 . S
C1516 C1515 1.374 . S
C1517 C1514 1.499 . S
C1517 C1518 1.373 . S
C1517 C1519 1.389 . S
C1518 H1491 0.950 . S
C1518 C1504 1.377 . S
C1518 C1517 1.373 . S
C1519 C1503 1.377 . S
C1519 C1517 1.389 . S
C1519 C1520 1.524 . S
C1520 C1519 1.524 . S
C1520 C1521 1.397 . S
C1520 C1525 1.363 . S
C1521 H1492 0.950 . S
C1521 C1520 1.397 . S
C1521 C1522 1.334 . S
C1522 H1493 0.950 . S
C1522 C1521 1.334 . S
C1522 C1523 1.287 . S
C1523 C1522 1.287 . S
C1523 C1524 1.524 . S
C1523 H1526 0.999 . S
C1524 H1494 0.950 . S
C1524 C1523 1.524 . S
C1524 C1525 1.415 . S
C1525 H1495 0.950 . S
C1525 C1520 1.363 . S
C1525 C1524 1.415 . S
H1526 C1523 0.999 . S
H1527 C1508 0.913 . S
H1528 C1546 0.951 . S
H1529 C1548 0.951 . S
H1530 C1550 0.950 . S
H1531 C1551 0.950 . S
H1532 C1553 0.950 . S
H1533 C1556 0.950 . S
H1534 C1557 0.950 . S
H1535 C1559 0.950 . S
H1536 C1560 0.950 . S
H1537 C1561 0.951 . S
H1538 C1563 0.951 . S
H1539 C1565 0.950 . S
H1540 C1566 0.950 . S
H1541 C1568 0.950 . S
H1542 C1571 0.950 . S
H1543 C1572 0.950 . S
H1544 C1574 0.950 . S
H1545 C1575 0.950 . S
C1546 H1528 0.951 . S
C1546 C1547 1.366 . S
C1546 C1548 1.388 . S
C1547 C1546 1.366 . S
C1547 C1551 1.385 . S
C1548 H1529 0.951 . S
C1548 C1546 1.388 . S
C1548 C1549 1.366 . S
C1549 C1548 1.366 . S
C1549 C1550 1.414 . S
C1549 C1552 1.499 . S
C1550 H1530 0.950 . S
C1550 C1549 1.414 . S
C1550 C1551 1.374 . S
C1551 H1531 0.950 . S
C1551 C1547 1.385 . S
C1551 C1550 1.374 . S
C1552 C1549 1.499 . S
C1552 C1553 1.373 . S
C1552 C1554 1.389 . S
C1553 H1532 0.950 . S
C1553 C1552 1.373 . S
C1553 C1569 1.377 1_556 S
C1554 C1552 1.389 . S
C1554 C1555 1.524 . S
C1554 C1568 1.377 1_556 S
C1555 C1554 1.524 . S
C1555 C1556 1.397 . S
C1555 C1560 1.363 1_556 S
C1556 H1533 0.950 . S
C1556 C1555 1.397 . S
C1556 C1557 1.334 . S
C1557 H1534 0.950 . S
C1557 C1556 1.334 . S
C1557 C1558 1.287 . S
C1558 C1557 1.287 . S
C1558 C1559 1.524 1_556 S
C1558 H1577 0.913 . S
C1559 H1535 0.950 . S
C1559 C1558 1.524 1_554 S
C1559 C1560 1.415 . S
C1560 H1536 0.950 . S
C1560 C1555 1.363 1_554 S
C1560 C1559 1.415 . S
C1561 H1537 0.951 . S
C1561 C1562 1.366 . S
C1561 C1563 1.388 . S
C1562 C1561 1.366 . S
C1562 C1566 1.385 . S
C1563 H1538 0.951 . S
C1563 C1561 1.388 . S
C1563 C1564 1.366 . S
C1564 C1563 1.366 . S
C1564 C1565 1.414 . S
C1564 C1567 1.499 . S
C1565 H1539 0.950 . S
C1565 C1564 1.414 . S
C1565 C1566 1.374 . S
C1566 H1540 0.950 . S
C1566 C1562 1.385 . S
C1566 C1565 1.374 . S
C1567 C1564 1.499 . S
C1567 C1568 1.373 . S
C1567 C1569 1.389 . S
C1568 H1541 0.950 . S
C1568 C1554 1.377 1_554 S
C1568 C1567 1.373 . S
C1569 C1553 1.377 1_554 S
C1569 C1567 1.389 . S
C1569 C1570 1.524 . S
C1570 C1569 1.524 . S
C1570 C1571 1.397 . S
C1570 C1575 1.363 1_554 S
C1571 H1542 0.950 . S
C1571 C1570 1.397 . S
C1571 C1572 1.334 . S
C1572 H1543 0.950 . S
C1572 C1571 1.334 . S
C1572 C1573 1.287 . S
C1573 C1572 1.287 . S
C1573 C1574 1.524 1_554 S
C1573 H1576 0.999 . S
C1574 H1544 0.950 . S
C1574 C1573 1.524 1_556 S
C1574 C1575 1.415 . S
C1575 H1545 0.950 . S
C1575 C1570 1.363 1_556 S
C1575 C1574 1.415 . S
H1576 C1573 0.999 . S
H1577 C1558 0.913 . S
H1578 C1596 0.951 . S
H1579 C1598 0.951 . S
H1580 C1600 0.950 . S
H1581 C1601 0.950 . S
H1582 C1603 0.950 . S
H1583 C1606 0.950 . S
H1584 C1607 0.950 . S
H1585 C1609 0.950 . S
H1586 C1610 0.950 . S
H1587 C1611 0.951 . S
H1588 C1613 0.951 . S
H1589 C1615 0.950 . S
H1590 C1616 0.950 . S
H1591 C1618 0.950 . S
H1592 C1621 0.950 . S
H1593 C1622 0.950 . S
H1594 C1624 0.950 . S
H1595 C1625 0.950 . S
C1596 H1578 0.951 . S
C1596 C1597 1.366 . S
C1596 C1598 1.388 . S
C1597 C1596 1.366 . S
C1597 C1601 1.385 . S
C1598 H1579 0.951 . S
C1598 C1596 1.388 . S
C1598 C1599 1.366 . S
C1599 C1598 1.366 . S
C1599 C1600 1.414 . S
C1599 C1602 1.499 . S
C1600 H1580 0.950 . S
C1600 C1599 1.414 . S
C1600 C1601 1.374 . S
C1601 H1581 0.950 . S
C1601 C1597 1.385 . S
C1601 C1600 1.374 . S
C1602 C1599 1.499 . S
C1602 C1603 1.373 . S
C1602 C1604 1.389 . S
C1603 H1582 0.950 . S
C1603 C1602 1.373 . S
C1603 C1619 1.377 1_554 S
C1604 C1602 1.389 . S
C1604 C1605 1.524 . S
C1604 C1618 1.377 1_554 S
C1605 C1604 1.524 . S
C1605 C1606 1.397 . S
C1605 C1610 1.363 . S
C1606 H1583 0.950 . S
C1606 C1605 1.397 . S
C1606 C1607 1.334 . S
C1607 H1584 0.950 . S
C1607 C1606 1.334 . S
C1607 C1608 1.287 . S
C1608 C1607 1.287 . S
C1608 C1609 1.524 . S
C1608 H1627 0.913 . S
C1609 H1585 0.950 . S
C1609 C1608 1.524 . S
C1609 C1610 1.415 . S
C1610 H1586 0.950 . S
C1610 C1605 1.363 . S
C1610 C1609 1.415 . S
C1611 H1587 0.951 . S
C1611 C1612 1.366 . S
C1611 C1613 1.388 . S
C1612 C1611 1.366 . S
C1612 C1616 1.385 . S
C1613 H1588 0.951 . S
C1613 C1611 1.388 . S
C1613 C1614 1.366 . S
C1614 C1613 1.366 . S
C1614 C1615 1.414 . S
C1614 C1617 1.499 . S
C1615 H1589 0.950 . S
C1615 C1614 1.414 . S
C1615 C1616 1.374 . S
C1616 H1590 0.950 . S
C1616 C1612 1.385 . S
C1616 C1615 1.374 . S
C1617 C1614 1.499 . S
C1617 C1618 1.373 . S
C1617 C1619 1.389 . S
C1618 H1591 0.950 . S
C1618 C1604 1.377 1_556 S
C1618 C1617 1.373 . S
C1619 C1603 1.377 1_556 S
C1619 C1617 1.389 . S
C1619 C1620 1.524 . S
C1620 C1619 1.524 . S
C1620 C1621 1.397 . S
C1620 C1625 1.363 . S
C1621 H1592 0.950 . S
C1621 C1620 1.397 . S
C1621 C1622 1.334 . S
C1622 H1593 0.950 . S
C1622 C1621 1.334 . S
C1622 C1623 1.287 . S
C1623 C1622 1.287 . S
C1623 C1624 1.524 . S
C1623 H1626 0.999 . S
C1624 H1594 0.950 . S
C1624 C1623 1.524 . S
C1624 C1625 1.415 . S
C1625 H1595 0.950 . S
C1625 C1620 1.363 . S
C1625 C1624 1.415 . S
H1626 C1623 0.999 . S
H1627 C1608 0.913 . S
H1628 C1646 0.951 . S
H1629 C1648 0.951 . S
H1630 C1650 0.950 . S
H1631 C1651 0.950 . S
H1632 C1653 0.950 . S
H1633 C1656 0.950 . S
H1634 C1657 0.950 . S
H1635 C1659 0.950 . S
H1636 C1660 0.950 . S
H1637 C1661 0.951 . S
H1638 C1663 0.951 . S
H1639 C1665 0.950 . S
H1640 C1666 0.950 . S
H1641 C1668 0.950 . S
H1642 C1671 0.950 . S
H1643 C1672 0.950 . S
H1644 C1674 0.950 . S
H1645 C1675 0.950 . S
C1646 H1628 0.951 . S
C1646 C1647 1.366 . S
C1646 C1648 1.388 . S
C1647 C1646 1.366 . S
C1647 C1651 1.385 . S
C1648 H1629 0.951 . S
C1648 C1646 1.388 . S
C1648 C1649 1.366 . S
C1649 C1648 1.366 . S
C1649 C1650 1.414 . S
C1649 C1652 1.499 . S
C1650 H1630 0.950 . S
C1650 C1649 1.414 . S
C1650 C1651 1.374 . S
C1651 H1631 0.950 . S
C1651 C1647 1.385 . S
C1651 C1650 1.374 . S
C1652 C1649 1.499 . S
C1652 C1653 1.373 . S
C1652 C1654 1.389 . S
C1653 H1632 0.950 . S
C1653 C1652 1.373 . S
C1653 C1669 1.377 . S
C1654 C1652 1.389 . S
C1654 C1655 1.524 . S
C1654 C1668 1.377 . S
C1655 C1654 1.524 . S
C1655 C1656 1.397 . S
C1655 C1660 1.363 . S
C1656 H1633 0.950 . S
C1656 C1655 1.397 . S
C1656 C1657 1.334 . S
C1657 H1634 0.950 . S
C1657 C1656 1.334 . S
C1657 C1658 1.287 . S
C1658 C1657 1.287 . S
C1658 C1659 1.524 . S
C1658 H1677 0.913 . S
C1659 H1635 0.950 . S
C1659 C1658 1.524 . S
C1659 C1660 1.415 . S
C1660 H1636 0.950 . S
C1660 C1655 1.363 . S
C1660 C1659 1.415 . S
C1661 H1637 0.951 . S
C1661 C1662 1.366 . S
C1661 C1663 1.388 . S
C1662 C1661 1.366 . S
C1662 C1666 1.385 . S
C1663 H1638 0.951 . S
C1663 C1661 1.388 . S
C1663 C1664 1.366 . S
C1664 C1663 1.366 . S
C1664 C1665 1.414 . S
C1664 C1667 1.499 . S
C1665 H1639 0.950 . S
C1665 C1664 1.414 . S
C1665 C1666 1.374 . S
C1666 H1640 0.950 . S
C1666 C1662 1.385 . S
C1666 C1665 1.374 . S
C1667 C1664 1.499 . S
C1667 C1668 1.373 . S
C1667 C1669 1.389 . S
C1668 H1641 0.950 . S
C1668 C1654 1.377 . S
C1668 C1667 1.373 . S
C1669 C1653 1.377 . S
C1669 C1667 1.389 . S
C1669 C1670 1.524 . S
C1670 C1669 1.524 . S
C1670 C1671 1.397 . S
C1670 C1675 1.363 . S
C1671 H1642 0.950 . S
C1671 C1670 1.397 . S
C1671 C1672 1.334 . S
C1672 H1643 0.950 . S
C1672 C1671 1.334 . S
C1672 C1673 1.287 . S
C1673 C1672 1.287 . S
C1673 C1674 1.524 . S
C1673 H1676 0.999 . S
C1674 H1644 0.950 . S
C1674 C1673 1.524 . S
C1674 C1675 1.415 . S
C1675 H1645 0.950 . S
C1675 C1670 1.363 . S
C1675 C1674 1.415 . S
H1676 C1673 0.999 . S
H1677 C1658 0.913 . S
H1678 C1696 0.951 . S
H1679 C1698 0.951 . S
H1680 C1700 0.950 . S
H1681 C1701 0.950 . S
H1682 C1703 0.950 . S
H1683 C1706 0.950 . S
H1684 C1707 0.950 . S
H1685 C1709 0.950 . S
H1686 C1710 0.950 . S
H1687 C1711 0.951 . S
H1688 C1713 0.951 . S
H1689 C1715 0.950 . S
H1690 C1716 0.950 . S
H1691 C1718 0.950 . S
H1692 C1721 0.950 . S
H1693 C1722 0.950 . S
H1694 C1724 0.950 . S
H1695 C1725 0.950 . S
C1696 H1678 0.951 . S
C1696 C1697 1.366 . S
C1696 C1698 1.388 . S
C1697 C1696 1.366 . S
C1697 C1701 1.385 . S
C1698 H1679 0.951 . S
C1698 C1696 1.388 . S
C1698 C1699 1.366 . S
C1699 C1698 1.366 . S
C1699 C1700 1.414 . S
C1699 C1702 1.499 . S
C1700 H1680 0.950 . S
C1700 C1699 1.414 . S
C1700 C1701 1.374 . S
C1701 H1681 0.950 . S
C1701 C1697 1.385 . S
C1701 C1700 1.374 . S
C1702 C1699 1.499 . S
C1702 C1703 1.373 . S
C1702 C1704 1.389 . S
C1703 H1682 0.950 . S
C1703 C1702 1.373 . S
C1703 C1719 1.377 . S
C1704 C1702 1.389 . S
C1704 C1705 1.524 . S
C1704 C1718 1.377 . S
C1705 C1704 1.524 . S
C1705 C1706 1.397 . S
C1705 C1710 1.363 . S
C1706 H1683 0.950 . S
C1706 C1705 1.397 . S
C1706 C1707 1.334 . S
C1707 H1684 0.950 . S
C1707 C1706 1.334 . S
C1707 C1708 1.287 . S
C1708 C1707 1.287 . S
C1708 C1709 1.524 . S
C1708 H1727 0.913 . S
C1709 H1685 0.950 . S
C1709 C1708 1.524 . S
C1709 C1710 1.415 . S
C1710 H1686 0.950 . S
C1710 C1705 1.363 . S
C1710 C1709 1.415 . S
C1711 H1687 0.951 . S
C1711 C1712 1.366 . S
C1711 C1713 1.388 . S
C1712 C1711 1.366 . S
C1712 C1716 1.385 . S
C1713 H1688 0.951 . S
C1713 C1711 1.388 . S
C1713 C1714 1.366 . S
C1714 C1713 1.366 . S
C1714 C1715 1.414 . S
C1714 C1717 1.499 . S
C1715 H1689 0.950 . S
C1715 C1714 1.414 . S
C1715 C1716 1.374 . S
C1716 H1690 0.950 . S
C1716 C1712 1.385 . S
C1716 C1715 1.374 . S
C1717 C1714 1.499 . S
C1717 C1718 1.373 . S
C1717 C1719 1.389 . S
C1718 H1691 0.950 . S
C1718 C1704 1.377 . S
C1718 C1717 1.373 . S
C1719 C1703 1.377 . S
C1719 C1717 1.389 . S
C1719 C1720 1.524 . S
C1720 C1719 1.524 . S
C1720 C1721 1.397 . S
C1720 C1725 1.363 . S
C1721 H1692 0.950 . S
C1721 C1720 1.397 . S
C1721 C1722 1.334 . S
C1722 H1693 0.950 . S
C1722 C1721 1.334 . S
C1722 C1723 1.287 . S
C1723 C1722 1.287 . S
C1723 C1724 1.524 . S
C1723 H1726 0.999 . S
C1724 H1694 0.950 . S
C1724 C1723 1.524 . S
C1724 C1725 1.415 . S
C1725 H1695 0.950 . S
C1725 C1720 1.363 . S
C1725 C1724 1.415 . S
H1726 C1723 0.999 . S
H1727 C1708 0.913 . S
H1728 C1746 0.951 . S
H1729 C1748 0.951 . S
H1730 C1750 0.950 . S
H1731 C1751 0.950 . S
H1732 C1753 0.950 . S
H1733 C1756 0.950 . S
H1734 C1757 0.950 . S
H1735 C1759 0.950 . S
H1736 C1760 0.950 . S
H1737 C1761 0.951 . S
H1738 C1763 0.951 . S
H1739 C1765 0.950 . S
H1740 C1766 0.950 . S
H1741 C1768 0.950 . S
H1742 C1771 0.950 . S
H1743 C1772 0.950 . S
H1744 C1774 0.950 . S
H1745 C1775 0.950 . S
C1746 H1728 0.951 . S
C1746 C1747 1.366 . S
C1746 C1748 1.388 . S
C1747 C1746 1.366 . S
C1747 C1751 1.385 . S
C1748 H1729 0.951 . S
C1748 C1746 1.388 . S
C1748 C1749 1.366 . S
C1749 C1748 1.366 . S
C1749 C1750 1.414 . S
C1749 C1752 1.499 . S
C1750 H1730 0.950 . S
C1750 C1749 1.414 . S
C1750 C1751 1.374 . S
C1751 H1731 0.950 . S
C1751 C1747 1.385 . S
C1751 C1750 1.374 . S
C1752 C1749 1.499 . S
C1752 C1753 1.373 . S
C1752 C1754 1.389 . S
C1753 H1732 0.950 . S
C1753 C1752 1.373 . S
C1753 C1769 1.377 1_545 S
C1754 C1752 1.389 . S
C1754 C1755 1.524 1_545 S
C1754 C1768 1.377 1_545 S
C1755 C1754 1.524 1_565 S
C1755 C1756 1.404 . S
C1755 C1760 1.358 1_565 S
C1756 H1733 0.950 . S
C1756 C1755 1.404 . S
C1756 C1757 1.334 . S
C1757 H1734 0.950 . S
C1757 C1756 1.334 . S
C1757 C1758 1.287 . S
C1758 C1757 1.287 . S
C1758 C1759 1.524 1_565 S
C1758 H1777 0.913 . S
C1759 H1735 0.950 . S
C1759 C1758 1.524 1_545 S
C1759 C1760 1.415 . S
C1760 H1736 0.950 . S
C1760 C1755 1.358 1_545 S
C1760 C1759 1.415 . S
C1761 H1737 0.951 . S
C1761 C1762 1.366 . S
C1761 C1763 1.388 . S
C1762 C1761 1.366 . S
C1762 C1766 1.385 . S
C1763 H1738 0.951 . S
C1763 C1761 1.388 . S
C1763 C1764 1.366 . S
C1764 C1763 1.366 . S
C1764 C1765 1.414 . S
C1764 C1767 1.499 . S
C1765 H1739 0.950 . S
C1765 C1764 1.414 . S
C1765 C1766 1.374 . S
C1766 H1740 0.950 . S
C1766 C1762 1.385 . S
C1766 C1765 1.374 . S
C1767 C1764 1.499 . S
C1767 C1768 1.373 . S
C1767 C1769 1.389 . S
C1768 H1741 0.950 . S
C1768 C1754 1.377 1_565 S
C1768 C1767 1.373 . S
C1769 C1753 1.377 1_565 S
C1769 C1767 1.389 . S
C1769 C1770 1.524 1_565 S
C1770 C1769 1.524 1_545 S
C1770 C1771 1.404 . S
C1770 C1775 1.358 1_545 S
C1771 H1742 0.950 . S
C1771 C1770 1.404 . S
C1771 C1772 1.334 . S
C1772 H1743 0.950 . S
C1772 C1771 1.334 . S
C1772 C1773 1.287 . S
C1773 C1772 1.287 . S
C1773 C1774 1.524 1_545 S
C1773 H1776 0.999 . S
C1774 H1744 0.950 . S
C1774 C1773 1.524 1_565 S
C1774 C1775 1.415 . S
C1775 H1745 0.950 . S
C1775 C1770 1.358 1_565 S
C1775 C1774 1.415 . S
H1776 C1773 0.999 . S
H1777 C1758 0.913 . S
H1778 C1796 0.951 . S
H1779 C1798 0.951 . S
H1780 C1800 0.950 . S
H1781 C1801 0.950 . S
H1782 C1803 0.950 . S
H1783 C1806 0.950 . S
H1784 C1807 0.950 . S
H1785 C1809 0.950 . S
H1786 C1810 0.950 . S
H1787 C1811 0.951 . S
H1788 C1813 0.951 . S
H1789 C1815 0.950 . S
H1790 C1816 0.950 . S
H1791 C1818 0.950 . S
H1792 C1821 0.950 . S
H1793 C1822 0.950 . S
H1794 C1824 0.950 . S
H1795 C1825 0.950 . S
C1796 H1778 0.951 . S
C1796 C1797 1.366 . S
C1796 C1798 1.388 . S
C1797 C1796 1.366 . S
C1797 C1801 1.385 . S
C1798 H1779 0.951 . S
C1798 C1796 1.388 . S
C1798 C1799 1.366 . S
C1799 C1798 1.366 . S
C1799 C1800 1.414 . S
C1799 C1802 1.499 . S
C1800 H1780 0.950 . S
C1800 C1799 1.414 . S
C1800 C1801 1.374 . S
C1801 H1781 0.950 . S
C1801 C1797 1.385 . S
C1801 C1800 1.374 . S
C1802 C1799 1.499 . S
C1802 C1803 1.373 . S
C1802 C1804 1.389 . S
C1803 H1782 0.950 . S
C1803 C1802 1.373 . S
C1803 C1819 1.377 . S
C1804 C1802 1.389 . S
C1804 C1805 1.524 . S
C1804 C1818 1.377 . S
C1805 C1804 1.524 . S
C1805 C1806 1.397 . S
C1805 C1810 1.363 . S
C1806 H1783 0.950 . S
C1806 C1805 1.397 . S
C1806 C1807 1.334 . S
C1807 H1784 0.950 . S
C1807 C1806 1.334 . S
C1807 C1808 1.287 . S
C1808 C1807 1.287 . S
C1808 C1809 1.524 . S
C1808 H1827 0.913 . S
C1809 H1785 0.950 . S
C1809 C1808 1.524 . S
C1809 C1810 1.415 . S
C1810 H1786 0.950 . S
C1810 C1805 1.363 . S
C1810 C1809 1.415 . S
C1811 H1787 0.951 . S
C1811 C1812 1.366 . S
C1811 C1813 1.388 . S
C1812 C1811 1.366 . S
C1812 C1816 1.385 . S
C1813 H1788 0.951 . S
C1813 C1811 1.388 . S
C1813 C1814 1.366 . S
C1814 C1813 1.366 . S
C1814 C1815 1.414 . S
C1814 C1817 1.499 . S
C1815 H1789 0.950 . S
C1815 C1814 1.414 . S
C1815 C1816 1.374 . S
C1816 H1790 0.950 . S
C1816 C1812 1.385 . S
C1816 C1815 1.374 . S
C1817 C1814 1.499 . S
C1817 C1818 1.373 . S
C1817 C1819 1.389 . S
C1818 H1791 0.950 . S
C1818 C1804 1.377 . S
C1818 C1817 1.373 . S
C1819 C1803 1.377 . S
C1819 C1817 1.389 . S
C1819 C1820 1.524 . S
C1820 C1819 1.524 . S
C1820 C1821 1.397 . S
C1820 C1825 1.363 . S
C1821 H1792 0.950 . S
C1821 C1820 1.397 . S
C1821 C1822 1.334 . S
C1822 H1793 0.950 . S
C1822 C1821 1.334 . S
C1822 C1823 1.287 . S
C1823 C1822 1.287 . S
C1823 C1824 1.524 . S
C1823 H1826 0.999 . S
C1824 H1794 0.950 . S
C1824 C1823 1.524 . S
C1824 C1825 1.415 . S
C1825 H1795 0.950 . S
C1825 C1820 1.363 . S
C1825 C1824 1.415 . S
H1826 C1823 0.999 . S
H1827 C1808 0.913 . S
H1828 C1846 0.951 . S
H1829 C1848 0.951 . S
H1830 C1850 0.950 . S
H1831 C1851 0.950 . S
H1832 C1853 0.950 . S
H1833 C1856 0.950 . S
H1834 C1857 0.950 . S
H1835 C1859 0.950 . S
H1836 C1860 0.950 . S
H1837 C1861 0.951 . S
H1838 C1863 0.951 . S
H1839 C1865 0.950 . S
H1840 C1866 0.950 . S
H1841 C1868 0.950 . S
H1842 C1871 0.950 . S
H1843 C1872 0.950 . S
H1844 C1874 0.950 . S
H1845 C1875 0.950 . S
C1846 H1828 0.951 . S
C1846 C1847 1.366 . S
C1846 C1848 1.388 . S
C1847 C1846 1.366 . S
C1847 C1851 1.385 . S
C1848 H1829 0.951 . S
C1848 C1846 1.388 . S
C1848 C1849 1.366 . S
C1849 C1848 1.366 . S
C1849 C1850 1.414 . S
C1849 C1852 1.499 . S
C1850 H1830 0.950 . S
C1850 C1849 1.414 . S
C1850 C1851 1.374 . S
C1851 H1831 0.950 . S
C1851 C1847 1.385 . S
C1851 C1850 1.374 . S
C1852 C1849 1.499 . S
C1852 C1853 1.373 . S
C1852 C1854 1.389 . S
C1853 H1832 0.950 . S
C1853 C1852 1.373 . S
C1853 C1869 1.377 1_565 S
C1854 C1852 1.389 . S
C1854 C1855 1.524 . S
C1854 C1868 1.377 1_565 S
C1855 C1854 1.524 . S
C1855 C1856 1.397 . S
C1855 C1860 1.363 1_565 S
C1856 H1833 0.950 . S
C1856 C1855 1.397 . S
C1856 C1857 1.334 . S
C1857 H1834 0.950 . S
C1857 C1856 1.334 . S
C1857 C1858 1.287 . S
C1858 C1857 1.287 . S
C1858 C1859 1.524 1_565 S
C1858 H1877 0.913 . S
C1859 H1835 0.950 . S
C1859 C1858 1.524 1_545 S
C1859 C1860 1.415 . S
C1860 H1836 0.950 . S
C1860 C1855 1.363 1_545 S
C1860 C1859 1.415 . S
C1861 H1837 0.951 . S
C1861 C1862 1.366 . S
C1861 C1863 1.388 . S
C1862 C1861 1.366 . S
C1862 C1866 1.385 . S
C1863 H1838 0.951 . S
C1863 C1861 1.388 . S
C1863 C1864 1.366 . S
C1864 C1863 1.366 . S
C1864 C1865 1.414 . S
C1864 C1867 1.499 . S
C1865 H1839 0.950 . S
C1865 C1864 1.414 . S
C1865 C1866 1.374 . S
C1866 H1840 0.950 . S
C1866 C1862 1.385 . S
C1866 C1865 1.374 . S
C1867 C1864 1.499 . S
C1867 C1868 1.373 . S
C1867 C1869 1.389 . S
C1868 H1841 0.950 . S
C1868 C1854 1.377 1_545 S
C1868 C1867 1.373 . S
C1869 C1853 1.377 1_545 S
C1869 C1867 1.389 . S
C1869 C1870 1.524 . S
C1870 C1869 1.524 . S
C1870 C1871 1.397 . S
C1870 C1875 1.363 1_545 S
C1871 H1842 0.950 . S
C1871 C1870 1.397 . S
C1871 C1872 1.334 . S
C1872 H1843 0.950 . S
C1872 C1871 1.334 . S
C1872 C1873 1.287 . S
C1873 C1872 1.287 . S
C1873 C1874 1.524 1_545 S
C1873 H1876 0.999 . S
C1874 H1844 0.950 . S
C1874 C1873 1.524 1_565 S
C1874 C1875 1.415 . S
C1875 H1845 0.950 . S
C1875 C1870 1.363 1_565 S
C1875 C1874 1.415 . S
H1876 C1873 0.999 . S
H1877 C1858 0.913 . S
H1878 C1896 0.951 . S
H1879 C1898 0.951 . S
H1880 C1900 0.950 . S
H1881 C1901 0.950 . S
H1882 C1903 0.950 . S
H1883 C1906 0.950 . S
H1884 C1907 0.950 . S
H1885 C1909 0.950 . S
H1886 C1910 0.950 . S
H1887 C1911 0.951 . S
H1888 C1913 0.951 . S
H1889 C1915 0.950 . S
H1890 C1916 0.950 . S
H1891 C1918 0.950 . S
H1892 C1921 0.950 . S
H1893 C1922 0.950 . S
H1894 C1924 0.950 . S
H1895 C1925 0.950 . S
C1896 H1878 0.951 . S
C1896 C1897 1.366 . S
C1896 C1898 1.388 . S
C1897 C1896 1.366 . S
C1897 C1901 1.385 . S
C1898 H1879 0.951 . S
C1898 C1896 1.388 . S
C1898 C1899 1.366 . S
C1899 C1898 1.366 . S
C1899 C1900 1.414 . S
C1899 C1902 1.499 . S
C1900 H1880 0.950 . S
C1900 C1899 1.414 . S
C1900 C1901 1.374 . S
C1901 H1881 0.950 . S
C1901 C1897 1.385 . S
C1901 C1900 1.374 . S
C1902 C1899 1.499 . S
C1902 C1903 1.373 . S
C1902 C1904 1.389 . S
C1903 H1882 0.950 . S
C1903 C1902 1.373 . S
C1903 C1919 1.377 . S
C1904 C1902 1.389 . S
C1904 C1905 1.524 . S
C1904 C1918 1.377 . S
C1905 C1904 1.524 . S
C1905 C1906 1.397 . S
C1905 C1910 1.363 . S
C1906 H1883 0.950 . S
C1906 C1905 1.397 . S
C1906 C1907 1.334 . S
C1907 H1884 0.950 . S
C1907 C1906 1.334 . S
C1907 C1908 1.287 . S
C1908 C1907 1.287 . S
C1908 C1909 1.524 . S
C1908 H1927 0.913 . S
C1909 H1885 0.950 . S
C1909 C1908 1.524 . S
C1909 C1910 1.415 . S
C1910 H1886 0.950 . S
C1910 C1905 1.363 . S
C1910 C1909 1.415 . S
C1911 H1887 0.951 . S
C1911 C1912 1.366 . S
C1911 C1913 1.388 . S
C1912 C1911 1.366 . S
C1912 C1916 1.385 . S
C1913 H1888 0.951 . S
C1913 C1911 1.388 . S
C1913 C1914 1.366 . S
C1914 C1913 1.366 . S
C1914 C1915 1.414 . S
C1914 C1917 1.499 . S
C1915 H1889 0.950 . S
C1915 C1914 1.414 . S
C1915 C1916 1.374 . S
C1916 H1890 0.950 . S
C1916 C1912 1.385 . S
C1916 C1915 1.374 . S
C1917 C1914 1.499 . S
C1917 C1918 1.373 . S
C1917 C1919 1.389 . S
C1918 H1891 0.950 . S
C1918 C1904 1.377 . S
C1918 C1917 1.373 . S
C1919 C1903 1.377 . S
C1919 C1917 1.389 . S
C1919 C1920 1.524 . S
C1920 C1919 1.524 . S
C1920 C1921 1.397 . S
C1920 C1925 1.363 . S
C1921 H1892 0.950 . S
C1921 C1920 1.397 . S
C1921 C1922 1.334 . S
C1922 H1893 0.950 . S
C1922 C1921 1.334 . S
C1922 C1923 1.287 . S
C1923 C1922 1.287 . S
C1923 C1924 1.524 . S
C1923 H1926 0.999 . S
C1924 H1894 0.950 . S
C1924 C1923 1.524 . S
C1924 C1925 1.415 . S
C1925 H1895 0.950 . S
C1925 C1920 1.363 . S
C1925 C1924 1.415 . S
H1926 C1923 0.999 . S
H1927 C1908 0.913 . S
H1928 C1946 0.951 . S
H1929 C1948 0.951 . S
H1930 C1950 0.950 . S
H1931 C1951 0.950 . S
H1932 C1953 0.950 . S
H1933 C1956 0.950 . S
H1934 C1957 0.950 . S
H1935 C1959 0.950 . S
H1936 C1960 0.950 . S
H1937 C1961 0.951 . S
H1938 C1963 0.951 . S
H1939 C1965 0.950 . S
H1940 C1966 0.950 . S
H1941 C1968 0.950 . S
H1942 C1971 0.950 . S
H1943 C1972 0.950 . S
H1944 C1974 0.950 . S
H1945 C1975 0.950 . S
C1946 H1928 0.951 . S
C1946 C1947 1.366 . S
C1946 C1948 1.388 . S
C1947 C1946 1.366 . S
C1947 C1951 1.385 . S
C1948 H1929 0.951 . S
C1948 C1946 1.388 . S
C1948 C1949 1.366 . S
C1949 C1948 1.366 . S
C1949 C1950 1.414 . S
C1949 C1952 1.499 . S
C1950 H1930 0.950 . S
C1950 C1949 1.414 . S
C1950 C1951 1.374 . S
C1951 H1931 0.950 . S
C1951 C1947 1.385 . S
C1951 C1950 1.374 . S
C1952 C1949 1.499 . S
C1952 C1953 1.373 . S
C1952 C1954 1.389 . S
C1953 H1932 0.950 . S
C1953 C1952 1.373 . S
C1953 C1969 1.377 . S
C1954 C1952 1.389 . S
C1954 C1955 1.524 . S
C1954 C1968 1.377 . S
C1955 C1954 1.524 . S
C1955 C1956 1.397 . S
C1955 C1960 1.363 . S
C1956 H1933 0.950 . S
C1956 C1955 1.397 . S
C1956 C1957 1.334 . S
C1957 H1934 0.950 . S
C1957 C1956 1.334 . S
C1957 C1958 1.287 . S
C1958 C1957 1.287 . S
C1958 C1959 1.524 . S
C1958 H1977 0.913 . S
C1959 H1935 0.950 . S
C1959 C1958 1.524 . S
C1959 C1960 1.415 . S
C1960 H1936 0.950 . S
C1960 C1955 1.363 . S
C1960 C1959 1.415 . S
C1961 H1937 0.951 . S
C1961 C1962 1.366 . S
C1961 C1963 1.388 . S
C1962 C1961 1.366 . S
C1962 C1966 1.385 . S
C1963 H1938 0.951 . S
C1963 C1961 1.388 . S
C1963 C1964 1.366 . S
C1964 C1963 1.366 . S
C1964 C1965 1.414 . S
C1964 C1967 1.499 . S
C1965 H1939 0.950 . S
C1965 C1964 1.414 . S
C1965 C1966 1.374 . S
C1966 H1940 0.950 . S
C1966 C1962 1.385 . S
C1966 C1965 1.374 . S
C1967 C1964 1.499 . S
C1967 C1968 1.373 . S
C1967 C1969 1.389 . S
C1968 H1941 0.950 . S
C1968 C1954 1.377 . S
C1968 C1967 1.373 . S
C1969 C1953 1.377 . S
C1969 C1967 1.389 . S
C1969 C1970 1.524 . S
C1970 C1969 1.524 . S
C1970 C1971 1.397 . S
C1970 C1975 1.363 . S
C1971 H1942 0.950 . S
C1971 C1970 1.397 . S
C1971 C1972 1.334 . S
C1972 H1943 0.950 . S
C1972 C1971 1.334 . S
C1972 C1973 1.287 . S
C1973 C1972 1.287 . S
C1973 C1974 1.524 . S
C1973 H1976 0.999 . S
C1974 H1944 0.950 . S
C1974 C1973 1.524 . S
C1974 C1975 1.415 . S
C1975 H1945 0.950 . S
C1975 C1970 1.363 . S
C1975 C1974 1.415 . S
H1976 C1973 0.999 . S
H1977 C1958 0.913 . S
H1978 C1996 0.951 . S
H1979 C1998 0.951 . S
H1980 C2000 0.950 . S
H1981 C2001 0.950 . S
H1982 C2003 0.950 . S
H1983 C2006 0.950 . S
H1984 C2007 0.950 . S
H1985 C2009 0.950 . S
H1986 C2010 0.950 1_545 S
H1987 C2011 0.951 . S
H1988 C2013 0.951 . S
H1989 C2015 0.950 . S
H1990 C2016 0.950 . S
H1991 C2018 0.950 . S
H1992 C2021 0.950 . S
H1993 C2022 0.950 . S
H1994 C2024 0.950 . S
H1995 C2025 0.950 1_565 S
C1996 H1978 0.951 . S
C1996 C1997 1.366 . S
C1996 C1998 1.388 . S
C1997 C1996 1.366 . S
C1997 C2001 1.385 . S
C1998 H1979 0.951 . S
C1998 C1996 1.388 . S
C1998 C1999 1.366 . S
C1999 C1998 1.366 . S
C1999 C2000 1.414 . S
C1999 C2002 1.499 . S
C2000 H1980 0.950 . S
C2000 C1999 1.414 . S
C2000 C2001 1.374 . S
C2001 H1981 0.950 . S
C2001 C1997 1.385 . S
C2001 C2000 1.374 . S
C2002 C1999 1.499 . S
C2002 C2003 1.373 . S
C2002 C2004 1.389 1_545 S
C2003 H1982 0.950 . S
C2003 C2002 1.373 . S
C2003 C2019 1.377 . S
C2004 C2002 1.389 1_565 S
C2004 C2005 1.524 . S
C2004 C2018 1.377 . S
C2005 C2004 1.524 . S
C2005 C2006 1.397 . S
C2005 C2010 1.363 . S
C2006 H1983 0.950 . S
C2006 C2005 1.397 . S
C2006 C2007 1.334 . S
C2007 H1984 0.950 . S
C2007 C2006 1.334 . S
C2007 C2008 1.287 . S
C2008 C2007 1.287 . S
C2008 C2009 1.524 . S
C2008 H2027 0.913 . S
C2009 H1985 0.950 . S
C2009 C2008 1.524 . S
C2009 C2010 1.415 . S
C2010 H1986 0.950 1_565 S
C2010 C2005 1.363 . S
C2010 C2009 1.415 . S
C2011 H1987 0.951 . S
C2011 C2012 1.366 . S
C2011 C2013 1.388 . S
C2012 C2011 1.366 . S
C2012 C2016 1.385 . S
C2013 H1988 0.951 . S
C2013 C2011 1.388 . S
C2013 C2014 1.366 . S
C2014 C2013 1.366 . S
C2014 C2015 1.414 . S
C2014 C2017 1.499 . S
C2015 H1989 0.950 . S
C2015 C2014 1.414 . S
C2015 C2016 1.374 . S
C2016 H1990 0.950 . S
C2016 C2012 1.385 . S
C2016 C2015 1.374 . S
C2017 C2014 1.499 . S
C2017 C2018 1.373 . S
C2017 C2019 1.389 1_565 S
C2018 H1991 0.950 . S
C2018 C2004 1.377 . S
C2018 C2017 1.373 . S
C2019 C2003 1.377 . S
C2019 C2017 1.389 1_545 S
C2019 C2020 1.524 . S
C2020 C2019 1.524 . S
C2020 C2021 1.397 . S
C2020 C2025 1.363 . S
C2021 H1992 0.950 . S
C2021 C2020 1.397 . S
C2021 C2022 1.334 . S
C2022 H1993 0.950 . S
C2022 C2021 1.334 . S
C2022 C2023 1.287 . S
C2023 C2022 1.287 . S
C2023 C2024 1.524 . S
C2023 H2026 0.999 . S
C2024 H1994 0.950 . S
C2024 C2023 1.524 . S
C2024 C2025 1.415 . S
C2025 H1995 0.950 1_545 S
C2025 C2020 1.363 . S
C2025 C2024 1.415 . S
H2026 C2023 0.999 . S
H2027 C2008 0.913 . S
H2028 C2046 0.951 . S
H2029 C2048 0.951 . S
H2030 C2050 0.950 . S
H2031 C2051 0.950 . S
H2032 C2053 0.950 . S
H2033 C2056 0.950 . S
H2034 C2057 0.950 . S
H2035 C2059 0.950 . S
H2036 C2060 0.950 . S
H2037 C2061 0.951 . S
H2038 C2063 0.951 . S
H2039 C2065 0.950 . S
H2040 C2066 0.950 . S
H2041 C2068 0.950 . S
H2042 C2071 0.950 . S
H2043 C2072 0.950 . S
H2044 C2074 0.950 . S
H2045 C2075 0.950 . S
C2046 H2028 0.951 . S
C2046 C2047 1.366 . S
C2046 C2048 1.388 . S
C2047 C2046 1.366 . S
C2047 C2051 1.385 . S
C2048 H2029 0.951 . S
C2048 C2046 1.388 . S
C2048 C2049 1.366 . S
C2049 C2048 1.366 . S
C2049 C2050 1.414 . S
C2049 C2052 1.499 . S
C2050 H2030 0.950 . S
C2050 C2049 1.414 . S
C2050 C2051 1.374 . S
C2051 H2031 0.950 . S
C2051 C2047 1.385 . S
C2051 C2050 1.374 . S
C2052 C2049 1.499 . S
C2052 C2053 1.373 . S
C2052 C2054 1.389 . S
C2053 H2032 0.950 . S
C2053 C2052 1.373 . S
C2053 C2069 1.377 . S
C2054 C2052 1.389 . S
C2054 C2055 1.524 . S
C2054 C2068 1.377 . S
C2055 C2054 1.524 . S
C2055 C2056 1.397 . S
C2055 C2060 1.363 . S
C2056 H2033 0.950 . S
C2056 C2055 1.397 . S
C2056 C2057 1.334 . S
C2057 H2034 0.950 . S
C2057 C2056 1.334 . S
C2057 C2058 1.287 . S
C2058 C2057 1.287 . S
C2058 C2059 1.524 . S
C2058 H2077 0.913 . S
C2059 H2035 0.950 . S
C2059 C2058 1.524 . S
C2059 C2060 1.415 . S
C2060 H2036 0.950 . S
C2060 C2055 1.363 . S
C2060 C2059 1.415 . S
C2061 H2037 0.951 . S
C2061 C2062 1.366 . S
C2061 C2063 1.388 . S
C2062 C2061 1.366 . S
C2062 C2066 1.385 . S
C2063 H2038 0.951 . S
C2063 C2061 1.388 . S
C2063 C2064 1.366 . S
C2064 C2063 1.366 . S
C2064 C2065 1.414 . S
C2064 C2067 1.499 . S
C2065 H2039 0.950 . S
C2065 C2064 1.414 . S
C2065 C2066 1.374 . S
C2066 H2040 0.950 . S
C2066 C2062 1.385 . S
C2066 C2065 1.374 . S
C2067 C2064 1.499 . S
C2067 C2068 1.373 . S
C2067 C2069 1.389 . S
C2068 H2041 0.950 . S
C2068 C2054 1.377 . S
C2068 C2067 1.373 . S
C2069 C2053 1.377 . S
C2069 C2067 1.389 . S
C2069 C2070 1.524 . S
C2070 C2069 1.524 . S
C2070 C2071 1.397 . S
C2070 C2075 1.363 . S
C2071 H2042 0.950 . S
C2071 C2070 1.397 . S
C2071 C2072 1.334 . S
C2072 H2043 0.950 . S
C2072 C2071 1.334 . S
C2072 C2073 1.287 . S
C2073 C2072 1.287 . S
C2073 C2074 1.524 . S
C2073 H2076 0.999 . S
C2074 H2044 0.950 . S
C2074 C2073 1.524 . S
C2074 C2075 1.415 . S
C2075 H2045 0.950 . S
C2075 C2070 1.363 . S
C2075 C2074 1.415 . S
H2076 C2073 0.999 . S
H2077 C2058 0.913 . S
H2078 C2096 0.951 . S
H2079 C2098 0.951 . S
H2080 C2100 0.950 1_565 S
H2081 C2101 0.950 . S
H2082 C2103 0.950 . S
H2083 C2106 0.950 . S
H2084 C2107 0.950 . S
H2085 C2109 0.950 . S
H2086 C2110 0.950 . S
H2087 C2111 0.951 . S
H2088 C2113 0.951 . S
H2089 C2115 0.950 1_545 S
H2090 C2116 0.950 . S
H2091 C2118 0.950 . S
H2092 C2121 0.950 . S
H2093 C2122 0.950 . S
H2094 C2124 0.950 . S
H2095 C2125 0.950 . S
C2096 H2078 0.951 . S
C2096 C2097 1.366 . S
C2096 C2098 1.388 . S
C2097 C2096 1.366 . S
C2097 C2101 1.385 . S
C2098 H2079 0.951 . S
C2098 C2096 1.388 . S
C2098 C2099 1.366 . S
C2099 C2098 1.366 . S
C2099 C2100 1.414 . S
C2099 C2102 1.499 . S
C2100 H2080 0.950 1_545 S
C2100 C2099 1.414 . S
C2100 C2101 1.374 . S
C2101 H2081 0.950 . S
C2101 C2097 1.385 . S
C2101 C2100 1.374 . S
C2102 C2099 1.499 . S
C2102 C2103 1.373 1_545 S
C2102 C2104 1.389 . S
C2103 H2082 0.950 . S
C2103 C2102 1.373 1_565 S
C2103 C2119 1.377 . S
C2104 C2102 1.389 . S
C2104 C2105 1.524 . S
C2104 C2118 1.377 . S
C2105 C2104 1.524 . S
C2105 C2106 1.397 . S
C2105 C2110 1.363 . S
C2106 H2083 0.950 . S
C2106 C2105 1.397 . S
C2106 C2107 1.334 . S
C2107 H2084 0.950 . S
C2107 C2106 1.334 . S
C2107 C2108 1.287 . S
C2108 C2107 1.287 . S
C2108 C2109 1.524 . S
C2108 H2127 0.913 . S
C2109 H2085 0.950 . S
C2109 C2108 1.524 . S
C2109 C2110 1.415 . S
C2110 H2086 0.950 . S
C2110 C2105 1.363 . S
C2110 C2109 1.415 . S
C2111 H2087 0.951 . S
C2111 C2112 1.366 . S
C2111 C2113 1.388 . S
C2112 C2111 1.366 . S
C2112 C2116 1.385 . S
C2113 H2088 0.951 . S
C2113 C2111 1.388 . S
C2113 C2114 1.366 . S
C2114 C2113 1.366 . S
C2114 C2115 1.414 . S
C2114 C2117 1.499 . S
C2115 H2089 0.950 1_565 S
C2115 C2114 1.414 . S
C2115 C2116 1.374 . S
C2116 H2090 0.950 . S
C2116 C2112 1.385 . S
C2116 C2115 1.374 . S
C2117 C2114 1.499 . S
C2117 C2118 1.373 1_565 S
C2117 C2119 1.389 . S
C2118 H2091 0.950 . S
C2118 C2104 1.377 . S
C2118 C2117 1.373 1_545 S
C2119 C2103 1.377 . S
C2119 C2117 1.389 . S
C2119 C2120 1.524 . S
C2120 C2119 1.524 . S
C2120 C2121 1.397 . S
C2120 C2125 1.363 . S
C2121 H2092 0.950 . S
C2121 C2120 1.397 . S
C2121 C2122 1.334 . S
C2122 H2093 0.950 . S
C2122 C2121 1.334 . S
C2122 C2123 1.287 . S
C2123 C2122 1.287 . S
C2123 C2124 1.524 . S
C2123 H2126 0.999 . S
C2124 H2094 0.950 . S
C2124 C2123 1.524 . S
C2124 C2125 1.415 . S
C2125 H2095 0.950 . S
C2125 C2120 1.363 . S
C2125 C2124 1.415 . S
H2126 C2123 0.999 . S
H2127 C2108 0.913 . S
H2128 C2146 0.951 . S
H2129 C2148 0.951 . S
H2130 C2150 0.950 . S
H2131 C2151 0.950 . S
H2132 C2153 0.950 . S
H2133 C2156 0.950 . S
H2134 C2157 0.950 . S
H2135 C2159 0.950 . S
H2136 C2160 0.950 . S
H2137 C2161 0.951 . S
H2138 C2163 0.951 . S
H2139 C2165 0.950 . S
H2140 C2166 0.950 . S
H2141 C2168 0.950 . S
H2142 C2171 0.950 . S
H2143 C2172 0.950 . S
H2144 C2174 0.950 . S
H2145 C2175 0.950 . S
C2146 H2128 0.951 . S
C2146 C2147 1.366 . S
C2146 C2148 1.388 . S
C2147 C2146 1.366 . S
C2147 C2151 1.385 . S
C2148 H2129 0.951 . S
C2148 C2146 1.388 . S
C2148 C2149 1.366 . S
C2149 C2148 1.366 . S
C2149 C2150 1.414 . S
C2149 C2152 1.499 . S
C2150 H2130 0.950 . S
C2150 C2149 1.414 . S
C2150 C2151 1.374 . S
C2151 H2131 0.950 . S
C2151 C2147 1.385 . S
C2151 C2150 1.374 . S
C2152 C2149 1.499 . S
C2152 C2153 1.373 . S
C2152 C2154 1.389 . S
C2153 H2132 0.950 . S
C2153 C2152 1.373 . S
C2153 C2169 1.377 . S
C2154 C2152 1.389 . S
C2154 C2155 1.524 . S
C2154 C2168 1.377 . S
C2155 C2154 1.524 . S
C2155 C2156 1.397 . S
C2155 C2160 1.363 . S
C2156 H2133 0.950 . S
C2156 C2155 1.397 . S
C2156 C2157 1.334 . S
C2157 H2134 0.950 . S
C2157 C2156 1.334 . S
C2157 C2158 1.287 . S
C2158 C2157 1.287 . S
C2158 C2159 1.524 . S
C2158 H2177 0.913 . S
C2159 H2135 0.950 . S
C2159 C2158 1.524 . S
C2159 C2160 1.415 . S
C2160 H2136 0.950 . S
C2160 C2155 1.363 . S
C2160 C2159 1.415 . S
C2161 H2137 0.951 . S
C2161 C2162 1.366 . S
C2161 C2163 1.388 . S
C2162 C2161 1.366 . S
C2162 C2166 1.385 . S
C2163 H2138 0.951 . S
C2163 C2161 1.388 . S
C2163 C2164 1.366 . S
C2164 C2163 1.366 . S
C2164 C2165 1.414 . S
C2164 C2167 1.499 . S
C2165 H2139 0.950 . S
C2165 C2164 1.414 . S
C2165 C2166 1.374 . S
C2166 H2140 0.950 . S
C2166 C2162 1.385 . S
C2166 C2165 1.374 . S
C2167 C2164 1.499 . S
C2167 C2168 1.373 . S
C2167 C2169 1.389 . S
C2168 H2141 0.950 . S
C2168 C2154 1.377 . S
C2168 C2167 1.373 . S
C2169 C2153 1.377 . S
C2169 C2167 1.389 . S
C2169 C2170 1.524 . S
C2170 C2169 1.524 . S
C2170 C2171 1.397 . S
C2170 C2175 1.363 . S
C2171 H2142 0.950 . S
C2171 C2170 1.397 . S
C2171 C2172 1.334 . S
C2172 H2143 0.950 . S
C2172 C2171 1.334 . S
C2172 C2173 1.287 . S
C2173 C2172 1.287 . S
C2173 C2174 1.524 . S
C2173 H2176 0.999 . S
C2174 H2144 0.950 . S
C2174 C2173 1.524 . S
C2174 C2175 1.415 . S
C2175 H2145 0.950 . S
C2175 C2170 1.363 . S
C2175 C2174 1.415 . S
H2176 C2173 0.999 . S
H2177 C2158 0.913 . S
H2178 C2196 0.951 . S
H2179 C2198 0.951 . S
H2180 C2200 0.950 . S
H2181 C2201 0.950 . S
H2182 C2203 0.950 . S
H2183 C2206 0.950 . S
H2184 C2207 0.950 . S
H2185 C2209 0.950 . S
H2186 C2210 0.950 . S
H2187 C2211 0.951 . S
H2188 C2213 0.951 . S
H2189 C2215 0.950 . S
H2190 C2216 0.950 . S
H2191 C2218 0.950 . S
H2192 C2221 0.950 . S
H2193 C2222 0.950 . S
H2194 C2224 0.950 . S
H2195 C2225 0.950 . S
C2196 H2178 0.951 . S
C2196 C2197 1.366 . S
C2196 C2198 1.388 . S
C2197 C2196 1.366 . S
C2197 C2201 1.385 . S
C2198 H2179 0.951 . S
C2198 C2196 1.388 . S
C2198 C2199 1.366 . S
C2199 C2198 1.366 . S
C2199 C2200 1.414 . S
C2199 C2202 1.499 . S
C2200 H2180 0.950 . S
C2200 C2199 1.414 . S
C2200 C2201 1.374 . S
C2201 H2181 0.950 . S
C2201 C2197 1.385 . S
C2201 C2200 1.374 . S
C2202 C2199 1.499 . S
C2202 C2203 1.373 . S
C2202 C2204 1.389 . S
C2203 H2182 0.950 . S
C2203 C2202 1.373 . S
C2203 C2219 1.377 . S
C2204 C2202 1.389 . S
C2204 C2205 1.524 . S
C2204 C2218 1.377 . S
C2205 C2204 1.524 . S
C2205 C2206 1.397 . S
C2205 C2210 1.363 . S
C2206 H2183 0.950 . S
C2206 C2205 1.397 . S
C2206 C2207 1.334 . S
C2207 H2184 0.950 . S
C2207 C2206 1.334 . S
C2207 C2208 1.287 . S
C2208 C2207 1.287 . S
C2208 C2209 1.524 . S
C2208 H2227 0.913 . S
C2209 H2185 0.950 . S
C2209 C2208 1.524 . S
C2209 C2210 1.415 . S
C2210 H2186 0.950 . S
C2210 C2205 1.363 . S
C2210 C2209 1.415 . S
C2211 H2187 0.951 . S
C2211 C2212 1.366 . S
C2211 C2213 1.388 . S
C2212 C2211 1.366 . S
C2212 C2216 1.385 . S
C2213 H2188 0.951 . S
C2213 C2211 1.388 . S
C2213 C2214 1.366 . S
C2214 C2213 1.366 . S
C2214 C2215 1.414 . S
C2214 C2217 1.499 . S
C2215 H2189 0.950 . S
C2215 C2214 1.414 . S
C2215 C2216 1.374 . S
C2216 H2190 0.950 . S
C2216 C2212 1.385 . S
C2216 C2215 1.374 . S
C2217 C2214 1.499 . S
C2217 C2218 1.373 . S
C2217 C2219 1.389 . S
C2218 H2191 0.950 . S
C2218 C2204 1.377 . S
C2218 C2217 1.373 . S
C2219 C2203 1.377 . S
C2219 C2217 1.389 . S
C2219 C2220 1.524 . S
C2220 C2219 1.524 . S
C2220 C2221 1.397 . S
C2220 C2225 1.363 . S
C2221 H2192 0.950 . S
C2221 C2220 1.397 . S
C2221 C2222 1.334 . S
C2222 H2193 0.950 . S
C2222 C2221 1.334 . S
C2222 C2223 1.287 . S
C2223 C2222 1.287 . S
C2223 C2224 1.524 . S
C2223 H2226 0.999 . S
C2224 H2194 0.950 . S
C2224 C2223 1.524 . S
C2224 C2225 1.415 . S
C2225 H2195 0.950 . S
C2225 C2220 1.363 . S
C2225 C2224 1.415 . S
H2226 C2223 0.999 . S
H2227 C2208 0.913 . S
H2228 C2246 0.951 . S
H2229 C2248 0.951 . S
H2230 C2250 0.950 . S
H2231 C2251 0.950 . S
H2232 C2253 0.950 . S
H2233 C2256 0.950 . S
H2234 C2257 0.950 . S
H2235 C2259 0.950 . S
H2236 C2260 0.950 . S
H2237 C2261 0.951 . S
H2238 C2263 0.951 . S
H2239 C2265 0.950 . S
H2240 C2266 0.950 . S
H2241 C2268 0.950 . S
H2242 C2271 0.950 . S
H2243 C2272 0.950 . S
H2244 C2274 0.950 . S
H2245 C2275 0.950 . S
C2246 H2228 0.951 . S
C2246 C2247 1.366 . S
C2246 C2248 1.388 . S
C2247 C2246 1.366 . S
C2247 C2251 1.385 . S
C2248 H2229 0.951 . S
C2248 C2246 1.388 . S
C2248 C2249 1.366 . S
C2249 C2248 1.366 . S
C2249 C2250 1.414 . S
C2249 C2252 1.499 . S
C2250 H2230 0.950 . S
C2250 C2249 1.414 . S
C2250 C2251 1.374 . S
C2251 H2231 0.950 . S
C2251 C2247 1.385 . S
C2251 C2250 1.374 . S
C2252 C2249 1.499 . S
C2252 C2253 1.373 . S
C2252 C2254 1.389 . S
C2253 H2232 0.950 . S
C2253 C2252 1.373 . S
C2253 C2269 1.377 . S
C2254 C2252 1.389 . S
C2254 C2255 1.524 . S
C2254 C2268 1.377 . S
C2255 C2254 1.524 . S
C2255 C2256 1.397 . S
C2255 C2260 1.363 . S
C2256 H2233 0.950 . S
C2256 C2255 1.397 . S
C2256 C2257 1.334 . S
C2257 H2234 0.950 . S
C2257 C2256 1.334 . S
C2257 C2258 1.287 . S
C2258 C2257 1.287 . S
C2258 C2259 1.524 . S
C2258 H2277 0.913 . S
C2259 H2235 0.950 . S
C2259 C2258 1.524 . S
C2259 C2260 1.415 . S
C2260 H2236 0.950 . S
C2260 C2255 1.363 . S
C2260 C2259 1.415 . S
C2261 H2237 0.951 . S
C2261 C2262 1.366 . S
C2261 C2263 1.388 . S
C2262 C2261 1.366 . S
C2262 C2266 1.385 . S
C2263 H2238 0.951 . S
C2263 C2261 1.388 . S
C2263 C2264 1.366 . S
C2264 C2263 1.366 . S
C2264 C2265 1.414 . S
C2264 C2267 1.499 . S
C2265 H2239 0.950 . S
C2265 C2264 1.414 . S
C2265 C2266 1.374 . S
C2266 H2240 0.950 . S
C2266 C2262 1.385 . S
C2266 C2265 1.374 . S
C2267 C2264 1.499 . S
C2267 C2268 1.373 . S
C2267 C2269 1.389 . S
C2268 H2241 0.950 . S
C2268 C2254 1.377 . S
C2268 C2267 1.373 . S
C2269 C2253 1.377 . S
C2269 C2267 1.389 . S
C2269 C2270 1.524 . S
C2270 C2269 1.524 . S
C2270 C2271 1.397 . S
C2270 C2275 1.363 . S
C2271 H2242 0.950 . S
C2271 C2270 1.397 . S
C2271 C2272 1.334 . S
C2272 H2243 0.950 . S
C2272 C2271 1.334 . S
C2272 C2273 1.287 . S
C2273 C2272 1.287 . S
C2273 C2274 1.524 . S
C2273 H2276 0.999 . S
C2274 H2244 0.950 . S
C2274 C2273 1.524 . S
C2274 C2275 1.415 . S
C2275 H2245 0.950 . S
C2275 C2270 1.363 . S
C2275 C2274 1.415 . S
H2276 C2273 0.999 . S
H2277 C2258 0.913 . S
H2278 C2296 0.951 . S
H2279 C2298 0.951 . S
H2280 C2300 0.950 . S
H2281 C2301 0.950 . S
H2282 C2303 0.950 . S
H2283 C2306 0.950 . S
H2284 C2307 0.950 . S
H2285 C2309 0.950 . S
H2286 C2310 0.950 . S
H2287 C2311 0.951 . S
H2288 C2313 0.951 . S
H2289 C2315 0.950 . S
H2290 C2316 0.950 . S
H2291 C2318 0.950 . S
H2292 C2321 0.950 . S
H2293 C2322 0.950 . S
H2294 C2324 0.950 . S
H2295 C2325 0.950 . S
C2296 H2278 0.951 . S
C2296 C2297 1.366 . S
C2296 C2298 1.388 . S
C2297 C2296 1.366 . S
C2297 C2301 1.385 . S
C2298 H2279 0.951 . S
C2298 C2296 1.388 . S
C2298 C2299 1.366 . S
C2299 C2298 1.366 . S
C2299 C2300 1.414 . S
C2299 C2302 1.499 . S
C2300 H2280 0.950 . S
C2300 C2299 1.414 . S
C2300 C2301 1.374 . S
C2301 H2281 0.950 . S
C2301 C2297 1.385 . S
C2301 C2300 1.374 . S
C2302 C2299 1.499 . S
C2302 C2303 1.373 . S
C2302 C2304 1.389 . S
C2303 H2282 0.950 . S
C2303 C2302 1.373 . S
C2303 C2319 1.377 . S
C2304 C2302 1.389 . S
C2304 C2305 1.524 . S
C2304 C2318 1.377 . S
C2305 C2304 1.524 . S
C2305 C2306 1.397 . S
C2305 C2310 1.363 . S
C2306 H2283 0.950 . S
C2306 C2305 1.397 . S
C2306 C2307 1.334 . S
C2307 H2284 0.950 . S
C2307 C2306 1.334 . S
C2307 C2308 1.287 . S
C2308 C2307 1.287 . S
C2308 C2309 1.524 . S
C2308 H2327 0.913 . S
C2309 H2285 0.950 . S
C2309 C2308 1.524 . S
C2309 C2310 1.415 . S
C2310 H2286 0.950 . S
C2310 C2305 1.363 . S
C2310 C2309 1.415 . S
C2311 H2287 0.951 . S
C2311 C2312 1.366 . S
C2311 C2313 1.388 . S
C2312 C2311 1.366 . S
C2312 C2316 1.385 . S
C2313 H2288 0.951 . S
C2313 C2311 1.388 . S
C2313 C2314 1.366 . S
C2314 C2313 1.366 . S
C2314 C2315 1.414 . S
C2314 C2317 1.499 . S
C2315 H2289 0.950 . S
C2315 C2314 1.414 . S
C2315 C2316 1.374 . S
C2316 H2290 0.950 . S
C2316 C2312 1.385 . S
C2316 C2315 1.374 . S
C2317 C2314 1.499 . S
C2317 C2318 1.373 . S
C2317 C2319 1.389 . S
C2318 H2291 0.950 . S
C2318 C2304 1.377 . S
C2318 C2317 1.373 . S
C2319 C2303 1.377 . S
C2319 C2317 1.389 . S
C2319 C2320 1.524 . S
C2320 C2319 1.524 . S
C2320 C2321 1.397 . S
C2320 C2325 1.363 . S
C2321 H2292 0.950 . S
C2321 C2320 1.397 . S
C2321 C2322 1.334 . S
C2322 H2293 0.950 . S
C2322 C2321 1.334 . S
C2322 C2323 1.287 . S
C2323 C2322 1.287 . S
C2323 C2324 1.524 . S
C2323 H2326 0.999 . S
C2324 H2294 0.950 . S
C2324 C2323 1.524 . S
C2324 C2325 1.415 . S
C2325 H2295 0.950 . S
C2325 C2320 1.363 . S
C2325 C2324 1.415 . S
H2326 C2323 0.999 . S
H2327 C2308 0.913 . S
H2328 C2346 0.951 . S
H2329 C2348 0.951 . S
H2330 C2350 0.950 . S
H2331 C2351 0.950 . S
H2332 C2353 0.950 . S
H2333 C2356 0.950 . S
H2334 C2357 0.950 . S
H2335 C2359 0.950 . S
H2336 C2360 0.950 . S
H2337 C2361 0.951 . S
H2338 C2363 0.951 . S
H2339 C2365 0.950 . S
H2340 C2366 0.950 . S
H2341 C2368 0.950 . S
H2342 C2371 0.950 . S
H2343 C2372 0.950 . S
H2344 C2374 0.950 . S
H2345 C2375 0.950 . S
C2346 H2328 0.951 . S
C2346 C2347 1.366 . S
C2346 C2348 1.388 . S
C2347 C2346 1.366 . S
C2347 C2351 1.385 . S
C2348 H2329 0.951 . S
C2348 C2346 1.388 . S
C2348 C2349 1.366 . S
C2349 C2348 1.366 . S
C2349 C2350 1.414 . S
C2349 C2352 1.499 . S
C2350 H2330 0.950 . S
C2350 C2349 1.414 . S
C2350 C2351 1.374 . S
C2351 H2331 0.950 . S
C2351 C2347 1.385 . S
C2351 C2350 1.374 . S
C2352 C2349 1.499 . S
C2352 C2353 1.373 . S
C2352 C2354 1.389 . S
C2353 H2332 0.950 . S
C2353 C2352 1.373 . S
C2353 C2369 1.377 1_655 S
C2354 C2352 1.389 . S
C2354 C2355 1.524 . S
C2354 C2368 1.377 1_655 S
C2355 C2354 1.524 . S
C2355 C2356 1.397 . S
C2355 C2360 1.363 . S
C2356 H2333 0.950 . S
C2356 C2355 1.397 . S
C2356 C2357 1.334 . S
C2357 H2334 0.950 . S
C2357 C2356 1.334 . S
C2357 C2358 1.287 . S
C2358 C2357 1.287 . S
C2358 C2359 1.524 . S
C2358 H2377 0.913 . S
C2359 H2335 0.950 . S
C2359 C2358 1.524 . S
C2359 C2360 1.415 . S
C2360 H2336 0.950 . S
C2360 C2355 1.363 . S
C2360 C2359 1.415 . S
C2361 H2337 0.951 . S
C2361 C2362 1.366 . S
C2361 C2363 1.388 . S
C2362 C2361 1.366 . S
C2362 C2366 1.385 . S
C2363 H2338 0.951 . S
C2363 C2361 1.388 . S
C2363 C2364 1.366 . S
C2364 C2363 1.366 . S
C2364 C2365 1.414 . S
C2364 C2367 1.499 . S
C2365 H2339 0.950 . S
C2365 C2364 1.414 . S
C2365 C2366 1.374 . S
C2366 H2340 0.950 . S
C2366 C2362 1.385 . S
C2366 C2365 1.374 . S
C2367 C2364 1.499 . S
C2367 C2368 1.373 . S
C2367 C2369 1.389 . S
C2368 H2341 0.950 . S
C2368 C2354 1.377 1_455 S
C2368 C2367 1.373 . S
C2369 C2353 1.377 1_455 S
C2369 C2367 1.389 . S
C2369 C2370 1.524 . S
C2370 C2369 1.524 . S
C2370 C2371 1.397 . S
C2370 C2375 1.363 . S
C2371 H2342 0.950 . S
C2371 C2370 1.397 . S
C2371 C2372 1.334 . S
C2372 H2343 0.950 . S
C2372 C2371 1.334 . S
C2372 C2373 1.287 . S
C2373 C2372 1.287 . S
C2373 C2374 1.524 . S
C2373 H2376 0.999 . S
C2374 H2344 0.950 . S
C2374 C2373 1.524 . S
C2374 C2375 1.415 . S
C2375 H2345 0.950 . S
C2375 C2370 1.363 . S
C2375 C2374 1.415 . S
H2376 C2373 0.999 . S
H2377 C2358 0.913 . S
H2378 C2396 0.951 . S
H2379 C2398 0.951 . S
H2380 C2400 0.950 . S
H2381 C2401 0.950 . S
H2382 C2403 0.950 . S
H2383 C2406 0.950 . S
H2384 C2407 0.950 . S
H2385 C2409 0.950 . S
H2386 C2410 0.950 . S
H2387 C2411 0.951 . S
H2388 C2413 0.951 . S
H2389 C2415 0.950 . S
H2390 C2416 0.950 . S
H2391 C2418 0.950 . S
H2392 C2421 0.950 . S
H2393 C2422 0.950 . S
H2394 C2424 0.950 . S
H2395 C2425 0.950 . S
C2396 H2378 0.951 . S
C2396 C2397 1.366 . S
C2396 C2398 1.388 . S
C2397 C2396 1.366 . S
C2397 C2401 1.385 . S
C2398 H2379 0.951 . S
C2398 C2396 1.388 . S
C2398 C2399 1.366 . S
C2399 C2398 1.366 . S
C2399 C2400 1.414 . S
C2399 C2402 1.499 . S
C2400 H2380 0.950 . S
C2400 C2399 1.414 . S
C2400 C2401 1.374 . S
C2401 H2381 0.950 . S
C2401 C2397 1.385 . S
C2401 C2400 1.374 . S
C2402 C2399 1.499 . S
C2402 C2403 1.373 . S
C2402 C2404 1.389 . S
C2403 H2382 0.950 . S
C2403 C2402 1.373 . S
C2403 C2419 1.377 1_455 S
C2404 C2402 1.389 . S
C2404 C2405 1.524 . S
C2404 C2418 1.377 1_455 S
C2405 C2404 1.524 . S
C2405 C2406 1.397 . S
C2405 C2410 1.363 1_455 S
C2406 H2383 0.950 . S
C2406 C2405 1.397 . S
C2406 C2407 1.334 . S
C2407 H2384 0.950 . S
C2407 C2406 1.334 . S
C2407 C2408 1.287 . S
C2408 C2407 1.287 . S
C2408 C2409 1.524 1_455 S
C2408 H2427 0.913 . S
C2409 H2385 0.950 . S
C2409 C2408 1.524 1_655 S
C2409 C2410 1.415 . S
C2410 H2386 0.950 . S
C2410 C2405 1.363 1_655 S
C2410 C2409 1.415 . S
C2411 H2387 0.951 . S
C2411 C2412 1.366 . S
C2411 C2413 1.388 . S
C2412 C2411 1.366 . S
C2412 C2416 1.385 . S
C2413 H2388 0.951 . S
C2413 C2411 1.388 . S
C2413 C2414 1.366 . S
C2414 C2413 1.366 . S
C2414 C2415 1.414 . S
C2414 C2417 1.499 . S
C2415 H2389 0.950 . S
C2415 C2414 1.414 . S
C2415 C2416 1.374 . S
C2416 H2390 0.950 . S
C2416 C2412 1.385 . S
C2416 C2415 1.374 . S
C2417 C2414 1.499 . S
C2417 C2418 1.373 . S
C2417 C2419 1.389 . S
C2418 H2391 0.950 . S
C2418 C2404 1.377 1_655 S
C2418 C2417 1.373 . S
C2419 C2403 1.377 1_655 S
C2419 C2417 1.389 . S
C2419 C2420 1.524 . S
C2420 C2419 1.524 . S
C2420 C2421 1.397 . S
C2420 C2425 1.363 1_655 S
C2421 H2392 0.950 . S
C2421 C2420 1.397 . S
C2421 C2422 1.334 . S
C2422 H2393 0.950 . S
C2422 C2421 1.334 . S
C2422 C2423 1.287 . S
C2423 C2422 1.287 . S
C2423 C2424 1.524 1_655 S
C2423 H2426 0.999 . S
C2424 H2394 0.950 . S
C2424 C2423 1.524 1_455 S
C2424 C2425 1.415 . S
C2425 H2395 0.950 . S
C2425 C2420 1.363 1_455 S
C2425 C2424 1.415 . S
H2426 C2423 0.999 . S
H2427 C2408 0.913 . S
H2428 C2446 0.951 . S
H2429 C2448 0.951 . S
H2430 C2450 0.950 . S
H2431 C2451 0.950 . S
H2432 C2453 0.950 . S
H2433 C2456 0.950 . S
H2434 C2457 0.950 . S
H2435 C2459 0.950 . S
H2436 C2460 0.950 . S
H2437 C2461 0.951 . S
H2438 C2463 0.951 . S
H2439 C2465 0.950 . S
H2440 C2466 0.950 . S
H2441 C2468 0.950 . S
H2442 C2471 0.950 . S
H2443 C2472 0.950 . S
H2444 C2474 0.950 . S
H2445 C2475 0.950 . S
C2446 H2428 0.951 . S
C2446 C2447 1.366 . S
C2446 C2448 1.388 . S
C2447 C2446 1.366 . S
C2447 C2451 1.385 . S
C2448 H2429 0.951 . S
C2448 C2446 1.388 . S
C2448 C2449 1.366 . S
C2449 C2448 1.366 . S
C2449 C2450 1.414 . S
C2449 C2452 1.499 . S
C2450 H2430 0.950 . S
C2450 C2449 1.414 . S
C2450 C2451 1.374 . S
C2451 H2431 0.950 . S
C2451 C2447 1.385 . S
C2451 C2450 1.374 . S
C2452 C2449 1.499 . S
C2452 C2453 1.373 . S
C2452 C2454 1.389 . S
C2453 H2432 0.950 . S
C2453 C2452 1.373 . S
C2453 C2469 1.377 1_455 S
C2454 C2452 1.389 . S
C2454 C2455 1.524 . S
C2454 C2468 1.377 1_455 S
C2455 C2454 1.524 . S
C2455 C2456 1.397 . S
C2455 C2460 1.363 . S
C2456 H2433 0.950 . S
C2456 C2455 1.397 . S
C2456 C2457 1.334 . S
C2457 H2434 0.950 . S
C2457 C2456 1.334 . S
C2457 C2458 1.287 . S
C2458 C2457 1.287 . S
C2458 C2459 1.524 . S
C2458 H2477 0.913 . S
C2459 H2435 0.950 . S
C2459 C2458 1.524 . S
C2459 C2460 1.415 . S
C2460 H2436 0.950 . S
C2460 C2455 1.363 . S
C2460 C2459 1.415 . S
C2461 H2437 0.951 . S
C2461 C2462 1.366 . S
C2461 C2463 1.388 . S
C2462 C2461 1.366 . S
C2462 C2466 1.385 . S
C2463 H2438 0.951 . S
C2463 C2461 1.388 . S
C2463 C2464 1.366 . S
C2464 C2463 1.366 . S
C2464 C2465 1.414 . S
C2464 C2467 1.499 . S
C2465 H2439 0.950 . S
C2465 C2464 1.414 . S
C2465 C2466 1.374 . S
C2466 H2440 0.950 . S
C2466 C2462 1.385 . S
C2466 C2465 1.374 . S
C2467 C2464 1.499 . S
C2467 C2468 1.373 . S
C2467 C2469 1.389 . S
C2468 H2441 0.950 . S
C2468 C2454 1.377 1_655 S
C2468 C2467 1.373 . S
C2469 C2453 1.377 1_655 S
C2469 C2467 1.389 . S
C2469 C2470 1.524 . S
C2470 C2469 1.524 . S
C2470 C2471 1.397 . S
C2470 C2475 1.363 . S
C2471 H2442 0.950 . S
C2471 C2470 1.397 . S
C2471 C2472 1.334 . S
C2472 H2443 0.950 . S
C2472 C2471 1.334 . S
C2472 C2473 1.287 . S
C2473 C2472 1.287 . S
C2473 C2474 1.524 . S
C2473 H2476 0.999 . S
C2474 H2444 0.950 . S
C2474 C2473 1.524 . S
C2474 C2475 1.415 . S
C2475 H2445 0.950 . S
C2475 C2470 1.363 . S
C2475 C2474 1.415 . S
H2476 C2473 0.999 . S
H2477 C2458 0.913 . S
H2478 C2496 0.951 . S
H2479 C2498 0.951 . S
H2480 C2500 0.950 . S
H2481 C2501 0.950 . S
H2482 C2503 0.950 . S
H2483 C2506 0.950 . S
H2484 C2507 0.950 . S
H2485 C2509 0.950 . S
H2486 C2510 0.950 . S
H2487 C2511 0.951 . S
H2488 C2513 0.951 . S
H2489 C2515 0.950 . S
H2490 C2516 0.950 . S
H2491 C2518 0.950 . S
H2492 C2521 0.950 . S
H2493 C2522 0.950 . S
H2494 C2524 0.950 . S
H2495 C2525 0.950 . S
C2496 H2478 0.951 . S
C2496 C2497 1.366 . S
C2496 C2498 1.388 . S
C2497 C2496 1.366 . S
C2497 C2501 1.385 . S
C2498 H2479 0.951 . S
C2498 C2496 1.388 . S
C2498 C2499 1.366 . S
C2499 C2498 1.366 . S
C2499 C2500 1.414 . S
C2499 C2502 1.499 . S
C2500 H2480 0.950 . S
C2500 C2499 1.414 . S
C2500 C2501 1.374 . S
C2501 H2481 0.950 . S
C2501 C2497 1.385 . S
C2501 C2500 1.374 . S
C2502 C2499 1.499 . S
C2502 C2503 1.373 . S
C2502 C2504 1.389 . S
C2503 H2482 0.950 . S
C2503 C2502 1.373 . S
C2503 C2519 1.377 1_655 S
C2504 C2502 1.389 . S
C2504 C2505 1.524 . S
C2504 C2518 1.377 1_655 S
C2505 C2504 1.524 . S
C2505 C2506 1.397 . S
C2505 C2510 1.363 1_655 S
C2506 H2483 0.950 . S
C2506 C2505 1.397 . S
C2506 C2507 1.334 . S
C2507 H2484 0.950 . S
C2507 C2506 1.334 . S
C2507 C2508 1.287 . S
C2508 C2507 1.287 . S
C2508 C2509 1.524 1_655 S
C2508 H2527 0.913 . S
C2509 H2485 0.950 . S
C2509 C2508 1.524 1_455 S
C2509 C2510 1.415 . S
C2510 H2486 0.950 . S
C2510 C2505 1.363 1_455 S
C2510 C2509 1.415 . S
C2511 H2487 0.951 . S
C2511 C2512 1.366 . S
C2511 C2513 1.388 . S
C2512 C2511 1.366 . S
C2512 C2516 1.385 . S
C2513 H2488 0.951 . S
C2513 C2511 1.388 . S
C2513 C2514 1.366 . S
C2514 C2513 1.366 . S
C2514 C2515 1.414 . S
C2514 C2517 1.499 . S
C2515 H2489 0.950 . S
C2515 C2514 1.414 . S
C2515 C2516 1.374 . S
C2516 H2490 0.950 . S
C2516 C2512 1.385 . S
C2516 C2515 1.374 . S
C2517 C2514 1.499 . S
C2517 C2518 1.373 . S
C2517 C2519 1.389 . S
C2518 H2491 0.950 . S
C2518 C2504 1.377 1_455 S
C2518 C2517 1.373 . S
C2519 C2503 1.377 1_455 S
C2519 C2517 1.389 . S
C2519 C2520 1.524 . S
C2520 C2519 1.524 . S
C2520 C2521 1.397 . S
C2520 C2525 1.363 1_455 S
C2521 H2492 0.950 . S
C2521 C2520 1.397 . S
C2521 C2522 1.334 . S
C2522 H2493 0.950 . S
C2522 C2521 1.334 . S
C2522 C2523 1.287 . S
C2523 C2522 1.287 . S
C2523 C2524 1.524 1_455 S
C2523 H2526 0.999 . S
C2524 H2494 0.950 . S
C2524 C2523 1.524 1_655 S
C2524 C2525 1.415 . S
C2525 H2495 0.950 . S
C2525 C2520 1.363 1_655 S
C2525 C2524 1.415 . S
H2526 C2523 0.999 . S
H2527 C2508 0.913 . S
C547 C18 0.534 . S
C562 C469 0.553 . S
C597 C51 0.534 . S
C612 C502 0.553 . S
C647 C84 0.534 . S
C662 C403 0.553 . S
C697 C436 0.553 . S
C712 C117 0.534 . S
C747 C150 0.534 . S
C762 C337 0.555 . S
C797 C183 0.534 . S
C812 C370 0.555 . S
C847 C216 0.534 . S
C862 C271 0.553 . S
C897 C304 0.553 . S
C912 C249 0.534 . S
C947 C282 0.534 . S
C962 C205 0.553 . S
C997 C238 0.554 . S
C1012 C315 0.534 . S
C1047 C348 0.534 . S
C1062 C139 0.553 . S
C1097 C381 0.534 . S
C1112 C172 0.554 . S
C1147 C414 0.534 . S
C1162 C73 0.555 . S
C1197 C447 0.534 . S
C1212 C106 0.555 . S
C1247 C7 0.553 . S
C1262 C480 0.534 . S
C1297 C40 0.553 . S
C1312 C513 0.534 . S
C1347 N2 1.727 . S
C1362 N365 1.728 . S
C1397 N332 1.727 . S
C1412 N35 1.728 . S
C1447 N68 1.727 . S
C1462 N299 1.728 . S
C1497 N266 1.728 . S
C1512 N101 1.727 . S
C1547 N134 1.728 . S
C1562 N497 1.727 . S
C1597 N464 1.727 . S
C1612 N167 1.728 . S
C1647 N200 1.727 . S
C1662 N431 1.728 . S
C1697 N233 1.728 . S
C1712 N398 1.727 . S
C1747 N13 1.868 . S
C1762 N79 1.868 . S
C1797 N46 1.868 . S
C1812 N112 1.868 . S
C1847 N145 1.868 . S
C1862 N211 1.868 . S
C1897 N244 1.868 . S
C1912 N178 1.868 . S
C1947 N343 1.868 . S
C1962 N277 1.868 . S
C1997 N376 1.868 . S
C2012 N310 1.868 . S
C2047 N409 1.868 . S
C2062 N475 1.868 . S
C2097 N442 1.868 . S
C2112 N508 1.868 . S
C2147 C54 1.560 . S
C2162 C21 1.560 . S
C2197 C87 1.560 . S
C2212 C120 1.560 . S
C2247 C153 1.560 . S
C2262 C186 1.560 . S
C2297 C252 1.560 . S
C2312 C219 1.560 . S
C2347 C285 1.560 . S
C2362 C318 1.560 . S
C2397 C384 1.560 . S
C2412 C351 1.560 . S
C2447 C417 1.560 . S
C2462 C450 1.560 . S
C2497 C516 1.560 . S
C2512 C483 1.560 . S
