# Generated by pormake.
# Topology wip, (6)-cn, num edge types: 1
# Building blocks:
#     Node 0, Type 0, BuildingBlock: BETFEN_clean_sbu_0, # of connection points: 6
#     Node 1, Type 0, BuildingBlock: BETFEN_clean_sbu_0, # of connection points: 6
#     Node 2, Type 0, BuildingBlock: BETFEN_clean_sbu_0, # of connection points: 6
#     Node 3, Type 0, BuildingBlock: BETFEN_clean_sbu_0, # of connection points: 6
#     Node 4, Type 0, BuildingBlock: BETFEN_clean_sbu_0, # of connection points: 6
#     Node 5, Type 0, BuildingBlock: BETFEN_clean_sbu_0, # of connection points: 6
#     Node 6, Type 0, BuildingBlock: BETFEN_clean_sbu_0, # of connection points: 6
#     Node 7, Type 0, BuildingBlock: BETFEN_clean_sbu_0, # of connection points: 6
#     Node 8, Type 0, BuildingBlock: BETFEN_clean_sbu_0, # of connection points: 6
#     Node 9, Type 0, BuildingBlock: BETFEN_clean_sbu_0, # of connection points: 6
#     Node 10, Type 0, BuildingBlock: BETFEN_clean_sbu_0, # of connection points: 6
#     Node 11, Type 0, BuildingBlock: BETFEN_clean_sbu_0, # of connection points: 6
#     Node 12, Type 0, BuildingBlock: BETFEN_clean_sbu_0, # of connection points: 6
#     Node 13, Type 0, BuildingBlock: BETFEN_clean_sbu_0, # of connection points: 6
#     Node 14, Type 0, BuildingBlock: BETFEN_clean_sbu_0, # of connection points: 6
#     Node 15, Type 0, BuildingBlock: BETFEN_clean_sbu_0, # of connection points: 6
#     Node 16, Type 0, BuildingBlock: BETFEN_clean_sbu_0, # of connection points: 6
#     Node 17, Type 0, BuildingBlock: BETFEN_clean_sbu_0, # of connection points: 6
#     Node 18, Type 0, BuildingBlock: BETFEN_clean_sbu_0, # of connection points: 6
#     Node 19, Type 0, BuildingBlock: BETFEN_clean_sbu_0, # of connection points: 6
#     Node 20, Type 0, BuildingBlock: BETFEN_clean_sbu_0, # of connection points: 6
#     Node 21, Type 0, BuildingBlock: BETFEN_clean_sbu_0, # of connection points: 6
#     Node 22, Type 0, BuildingBlock: BETFEN_clean_sbu_0, # of connection points: 6
#     Node 23, Type 0, BuildingBlock: BETFEN_clean_sbu_0, # of connection points: 6
#     Node 24, Type 0, BuildingBlock: BETFEN_clean_sbu_0, # of connection points: 6
#     Node 25, Type 0, BuildingBlock: BETFEN_clean_sbu_0, # of connection points: 6
#     Node 26, Type 0, BuildingBlock: BETFEN_clean_sbu_0, # of connection points: 6
#     Node 27, Type 0, BuildingBlock: BETFEN_clean_sbu_0, # of connection points: 6
#     Node 28, Type 0, BuildingBlock: BETFEN_clean_sbu_0, # of connection points: 6
#     Node 29, Type 0, BuildingBlock: BETFEN_clean_sbu_0, # of connection points: 6
#     Node 30, Type 0, BuildingBlock: BETFEN_clean_sbu_0, # of connection points: 6
#     Node 31, Type 0, BuildingBlock: BETFEN_clean_sbu_0, # of connection points: 6
#     Edge 32, Type (0, 0), BuildingBlock: TEMPAE_clean_linker_10, # of connection points: 2
#     Edge 33, Type (0, 0), BuildingBlock: TEMPAE_clean_linker_10, # of connection points: 2
#     Edge 34, Type (0, 0), BuildingBlock: TEMPAE_clean_linker_10, # of connection points: 2
#     Edge 35, Type (0, 0), BuildingBlock: TEMPAE_clean_linker_10, # of connection points: 2
#     Edge 36, Type (0, 0), BuildingBlock: TEMPAE_clean_linker_10, # of connection points: 2
#     Edge 37, Type (0, 0), BuildingBlock: TEMPAE_clean_linker_10, # of connection points: 2
#     Edge 38, Type (0, 0), BuildingBlock: TEMPAE_clean_linker_10, # of connection points: 2
#     Edge 39, Type (0, 0), BuildingBlock: TEMPAE_clean_linker_10, # of connection points: 2
#     Edge 40, Type (0, 0), BuildingBlock: TEMPAE_clean_linker_10, # of connection points: 2
#     Edge 41, Type (0, 0), BuildingBlock: TEMPAE_clean_linker_10, # of connection points: 2
#     Edge 42, Type (0, 0), BuildingBlock: TEMPAE_clean_linker_10, # of connection points: 2
#     Edge 43, Type (0, 0), BuildingBlock: TEMPAE_clean_linker_10, # of connection points: 2
#     Edge 44, Type (0, 0), BuildingBlock: TEMPAE_clean_linker_10, # of connection points: 2
#     Edge 45, Type (0, 0), BuildingBlock: TEMPAE_clean_linker_10, # of connection points: 2
#     Edge 46, Type (0, 0), BuildingBlock: TEMPAE_clean_linker_10, # of connection points: 2
#     Edge 47, Type (0, 0), BuildingBlock: TEMPAE_clean_linker_10, # of connection points: 2
#     Edge 48, Type (0, 0), BuildingBlock: TEMPAE_clean_linker_10, # of connection points: 2
#     Edge 49, Type (0, 0), BuildingBlock: TEMPAE_clean_linker_10, # of connection points: 2
#     Edge 50, Type (0, 0), BuildingBlock: TEMPAE_clean_linker_10, # of connection points: 2
#     Edge 51, Type (0, 0), BuildingBlock: TEMPAE_clean_linker_10, # of connection points: 2
#     Edge 52, Type (0, 0), BuildingBlock: TEMPAE_clean_linker_10, # of connection points: 2
#     Edge 53, Type (0, 0), BuildingBlock: TEMPAE_clean_linker_10, # of connection points: 2
#     Edge 54, Type (0, 0), BuildingBlock: TEMPAE_clean_linker_10, # of connection points: 2
#     Edge 55, Type (0, 0), BuildingBlock: TEMPAE_clean_linker_10, # of connection points: 2
#     Edge 56, Type (0, 0), BuildingBlock: TEMPAE_clean_linker_10, # of connection points: 2
#     Edge 57, Type (0, 0), BuildingBlock: TEMPAE_clean_linker_10, # of connection points: 2
#     Edge 58, Type (0, 0), BuildingBlock: TEMPAE_clean_linker_10, # of connection points: 2
#     Edge 59, Type (0, 0), BuildingBlock: TEMPAE_clean_linker_10, # of connection points: 2
#     Edge 60, Type (0, 0), BuildingBlock: TEMPAE_clean_linker_10, # of connection points: 2
#     Edge 61, Type (0, 0), BuildingBlock: TEMPAE_clean_linker_10, # of connection points: 2
#     Edge 62, Type (0, 0), BuildingBlock: TEMPAE_clean_linker_10, # of connection points: 2
#     Edge 63, Type (0, 0), BuildingBlock: TEMPAE_clean_linker_10, # of connection points: 2
#     Edge 64, Type (0, 0), BuildingBlock: TEMPAE_clean_linker_10, # of connection points: 2
#     Edge 65, Type (0, 0), BuildingBlock: TEMPAE_clean_linker_10, # of connection points: 2
#     Edge 66, Type (0, 0), BuildingBlock: TEMPAE_clean_linker_10, # of connection points: 2
#     Edge 67, Type (0, 0), BuildingBlock: TEMPAE_clean_linker_10, # of connection points: 2
#     Edge 68, Type (0, 0), BuildingBlock: TEMPAE_clean_linker_10, # of connection points: 2
#     Edge 69, Type (0, 0), BuildingBlock: TEMPAE_clean_linker_10, # of connection points: 2
#     Edge 70, Type (0, 0), BuildingBlock: TEMPAE_clean_linker_10, # of connection points: 2
#     Edge 71, Type (0, 0), BuildingBlock: TEMPAE_clean_linker_10, # of connection points: 2
#     Edge 72, Type (0, 0), BuildingBlock: TEMPAE_clean_linker_10, # of connection points: 2
#     Edge 73, Type (0, 0), BuildingBlock: TEMPAE_clean_linker_10, # of connection points: 2
#     Edge 74, Type (0, 0), BuildingBlock: TEMPAE_clean_linker_10, # of connection points: 2
#     Edge 75, Type (0, 0), BuildingBlock: TEMPAE_clean_linker_10, # of connection points: 2
#     Edge 76, Type (0, 0), BuildingBlock: TEMPAE_clean_linker_10, # of connection points: 2
#     Edge 77, Type (0, 0), BuildingBlock: TEMPAE_clean_linker_10, # of connection points: 2
#     Edge 78, Type (0, 0), BuildingBlock: TEMPAE_clean_linker_10, # of connection points: 2
#     Edge 79, Type (0, 0), BuildingBlock: TEMPAE_clean_linker_10, # of connection points: 2
#     Edge 80, Type (0, 0), BuildingBlock: TEMPAE_clean_linker_10, # of connection points: 2
#     Edge 81, Type (0, 0), BuildingBlock: TEMPAE_clean_linker_10, # of connection points: 2
#     Edge 82, Type (0, 0), BuildingBlock: TEMPAE_clean_linker_10, # of connection points: 2
#     Edge 83, Type (0, 0), BuildingBlock: TEMPAE_clean_linker_10, # of connection points: 2
#     Edge 84, Type (0, 0), BuildingBlock: TEMPAE_clean_linker_10, # of connection points: 2
#     Edge 85, Type (0, 0), BuildingBlock: TEMPAE_clean_linker_10, # of connection points: 2
#     Edge 86, Type (0, 0), BuildingBlock: TEMPAE_clean_linker_10, # of connection points: 2
#     Edge 87, Type (0, 0), BuildingBlock: TEMPAE_clean_linker_10, # of connection points: 2
#     Edge 88, Type (0, 0), BuildingBlock: TEMPAE_clean_linker_10, # of connection points: 2
#     Edge 89, Type (0, 0), BuildingBlock: TEMPAE_clean_linker_10, # of connection points: 2
#     Edge 90, Type (0, 0), BuildingBlock: TEMPAE_clean_linker_10, # of connection points: 2
#     Edge 91, Type (0, 0), BuildingBlock: TEMPAE_clean_linker_10, # of connection points: 2
#     Edge 92, Type (0, 0), BuildingBlock: TEMPAE_clean_linker_10, # of connection points: 2
#     Edge 93, Type (0, 0), BuildingBlock: TEMPAE_clean_linker_10, # of connection points: 2
#     Edge 94, Type (0, 0), BuildingBlock: TEMPAE_clean_linker_10, # of connection points: 2
#     Edge 95, Type (0, 0), BuildingBlock: TEMPAE_clean_linker_10, # of connection points: 2
#     Edge 96, Type (0, 0), BuildingBlock: TEMPAE_clean_linker_10, # of connection points: 2
#     Edge 97, Type (0, 0), BuildingBlock: TEMPAE_clean_linker_10, # of connection points: 2
#     Edge 98, Type (0, 0), BuildingBlock: TEMPAE_clean_linker_10, # of connection points: 2
#     Edge 99, Type (0, 0), BuildingBlock: TEMPAE_clean_linker_10, # of connection points: 2
#     Edge 100, Type (0, 0), BuildingBlock: TEMPAE_clean_linker_10, # of connection points: 2
#     Edge 101, Type (0, 0), BuildingBlock: TEMPAE_clean_linker_10, # of connection points: 2
#     Edge 102, Type (0, 0), BuildingBlock: TEMPAE_clean_linker_10, # of connection points: 2
#     Edge 103, Type (0, 0), BuildingBlock: TEMPAE_clean_linker_10, # of connection points: 2
#     Edge 104, Type (0, 0), BuildingBlock: TEMPAE_clean_linker_10, # of connection points: 2
#     Edge 105, Type (0, 0), BuildingBlock: TEMPAE_clean_linker_10, # of connection points: 2
#     Edge 106, Type (0, 0), BuildingBlock: TEMPAE_clean_linker_10, # of connection points: 2
#     Edge 107, Type (0, 0), BuildingBlock: TEMPAE_clean_linker_10, # of connection points: 2
#     Edge 108, Type (0, 0), BuildingBlock: TEMPAE_clean_linker_10, # of connection points: 2
#     Edge 109, Type (0, 0), BuildingBlock: TEMPAE_clean_linker_10, # of connection points: 2
#     Edge 110, Type (0, 0), BuildingBlock: TEMPAE_clean_linker_10, # of connection points: 2
#     Edge 111, Type (0, 0), BuildingBlock: TEMPAE_clean_linker_10, # of connection points: 2
#     Edge 112, Type (0, 0), BuildingBlock: TEMPAE_clean_linker_10, # of connection points: 2
#     Edge 113, Type (0, 0), BuildingBlock: TEMPAE_clean_linker_10, # of connection points: 2
#     Edge 114, Type (0, 0), BuildingBlock: TEMPAE_clean_linker_10, # of connection points: 2
#     Edge 115, Type (0, 0), BuildingBlock: TEMPAE_clean_linker_10, # of connection points: 2
#     Edge 116, Type (0, 0), BuildingBlock: TEMPAE_clean_linker_10, # of connection points: 2
#     Edge 117, Type (0, 0), BuildingBlock: TEMPAE_clean_linker_10, # of connection points: 2
#     Edge 118, Type (0, 0), BuildingBlock: TEMPAE_clean_linker_10, # of connection points: 2
#     Edge 119, Type (0, 0), BuildingBlock: TEMPAE_clean_linker_10, # of connection points: 2
#     Edge 120, Type (0, 0), BuildingBlock: TEMPAE_clean_linker_10, # of connection points: 2
#     Edge 121, Type (0, 0), BuildingBlock: TEMPAE_clean_linker_10, # of connection points: 2
#     Edge 122, Type (0, 0), BuildingBlock: TEMPAE_clean_linker_10, # of connection points: 2
#     Edge 123, Type (0, 0), BuildingBlock: TEMPAE_clean_linker_10, # of connection points: 2
#     Edge 124, Type (0, 0), BuildingBlock: TEMPAE_clean_linker_10, # of connection points: 2
#     Edge 125, Type (0, 0), BuildingBlock: TEMPAE_clean_linker_10, # of connection points: 2
#     Edge 126, Type (0, 0), BuildingBlock: TEMPAE_clean_linker_10, # of connection points: 2
#     Edge 127, Type (0, 0), BuildingBlock: TEMPAE_clean_linker_10, # of connection points: 2
# Relax obj value: 0.351
# Max RMSD: 0.295
# Mean RMSD: 0.232
data_MOF--net-wip--node1-BETFEN_clean_sbu_0--edge1-TEMPAE_clean_linker_10
_symmetry_space_group_name_H-M    P1
_symmetry_Int_Tables_number       1
_symmetry_cell_setting            triclinic
loop_
_symmetry_equiv_pos_as_xyz
'x, y, z'
_cell_length_a     66.977978
_cell_length_b     63.262156
_cell_length_c     35.985015
_cell_angle_alpha  85.745293
_cell_angle_beta   93.987798
_cell_angle_gamma 89.192842
loop_
_atom_site_label
_atom_site_type_symbol
_atom_site_fract_x
_atom_site_fract_y
_atom_site_fract_z
_atom_type_partial_charge
Pr0 Pr 0.06307 0.40684 0.15648 0.0
Pr1 Pr 0.08857 0.43746 0.11292 0.0
C2 C 0.04829 0.38024 0.20959 0.0
C3 C 0.04493 0.38161 0.24932 0.0
C4 C 0.0283 0.37185 0.26422 0.0
C5 C 0.02371 0.37487 0.30082 0.0
C6 C 0.0356 0.38789 0.32309 0.0
C7 C 0.0523 0.39758 0.30796 0.0
C8 C 0.05701 0.39432 0.27156 0.0
C9 C 0.04027 0.44202 0.12568 0.0
C10 C 0.08257 0.4496 0.19679 0.0
C11 C 0.10528 0.46187 0.05838 0.0
C12 C 0.10179 0.47096 1.01862 0.0
C13 C 0.09952 0.45802 0.9884 0.0
C14 C 0.0978 0.46694 0.95118 0.0
C15 C 0.09832 0.4891 0.94284 0.0
C16 C 0.1002 0.50196 0.97328 0.0
C17 C 0.10197 0.49304 1.01042 0.0
C18 C 0.11058 0.40935 0.16647 0.0
C19 C 0.05707 0.40577 0.06702 0.0
O20 O 0.06685 0.37923 0.20061 0.0
O21 O 0.03714 0.39302 0.18656 0.0
O22 O 0.05826 0.44243 0.13869 0.0
O23 O 0.03481 0.4225 0.12388 0.0
O24 O 0.08684 0.45797 0.16358 0.0
O25 O 0.07494 0.43038 0.20113 0.0
O26 O 0.09484 0.46974 0.08379 0.0
O27 O 0.10864 0.4414 0.06463 0.0
O28 O 0.09594 0.40415 0.14449 0.0
O29 O 0.11577 0.42847 0.15618 0.0
O30 O 0.05682 0.39296 0.09776 0.0
O31 O 0.0663 0.42395 0.06791 0.0
H32 H 0.01861 0.36224 0.24727 0.0
H33 H 0.01054 0.36744 0.31131 0.0
H34 H 0.06181 0.40758 0.32438 0.0
H35 H 0.06994 0.40193 0.26057 0.0
H36 H 0.09937 0.44093 0.99342 0.0
H37 H 0.09657 0.45633 0.92891 0.0
H38 H 0.10024 0.51906 0.96855 0.0
H39 H 0.10373 0.50351 0.03287 0.0
Pr40 Pr 0.79676 0.8006 0.35604 0.0
Pr41 Pr 0.79217 0.8468 0.37997 0.0
C42 C 0.79279 0.76293 0.32644 0.0
C43 C 0.79381 0.75475 0.28926 0.0
C44 C 0.78324 0.76474 0.25746 0.0
C45 C 0.78508 0.75716 0.2223 0.0
C46 C 0.79766 0.7396 0.21824 0.0
C47 C 0.8082 0.72967 0.25009 0.0
C48 C 0.80623 0.73714 0.28526 0.0
C49 C 0.83258 0.82182 0.36835 0.0
C50 C 0.78149 0.83959 0.29056 0.0
C51 C 0.79722 0.88251 0.41467 0.0
C52 C 0.79095 0.88575 0.45209 0.0
C53 C 0.77553 0.87332 0.46588 0.0
C54 C 0.77104 0.87363 0.50295 0.0
C55 C 0.78203 0.8862 0.52727 0.0
C56 C 0.79722 0.89907 0.51325 0.0
C57 C 0.80168 0.8988 0.47581 0.0
C58 C 0.75694 0.82386 0.3827 0.0
C59 C 0.80059 0.80552 0.44704 0.0
O60 O 0.7775 0.77529 0.33153 0.0
O61 O 0.80971 0.76919 0.34198 0.0
O62 O 0.81663 0.83008 0.35214 0.0
O63 O 0.83101 0.80136 0.37177 0.0
O64 O 0.78566 0.85412 0.31461 0.0
O65 O 0.78388 0.81913 0.30039 0.0
O66 O 0.81154 0.86832 0.41414 0.0
O67 O 0.78264 0.88036 0.38913 0.0
O68 O 0.77454 0.8169 0.39053 0.0
O69 O 0.75716 0.84418 0.37454 0.0
O70 O 0.79699 0.79218 0.42078 0.0
O71 O 0.80087 0.82636 0.43824 0.0
H72 H 0.7737 0.7785 0.25964 0.0
H73 H 0.77691 0.76523 0.19819 0.0
H74 H 0.8178 0.71597 0.24785 0.0
H75 H 0.81453 0.72924 0.3094 0.0
H76 H 0.76726 0.86288 0.44816 0.0
H77 H 0.75902 0.86384 0.51264 0.0
H78 H 0.80603 0.9088 0.53146 0.0
H79 H 0.81386 0.9082 0.46575 0.0
Pr80 Pr 0.43903 0.58552 0.60196 0.0
Pr81 Pr 0.4135 0.55388 0.55879 0.0
C82 C 0.45299 0.61248 0.65207 0.0
C83 C 0.45548 0.61169 0.69317 0.0
C84 C 0.45521 0.59224 0.71462 0.0
C85 C 0.45885 0.59137 0.75347 0.0
C86 C 0.46293 0.60996 0.77161 0.0
C87 C 0.46266 0.62948 0.75001 0.0
C88 C 0.45894 0.63032 0.71115 0.0
C89 C 0.46064 0.5487 0.59054 0.0
C90 C 0.41603 0.54538 0.64919 0.0
C91 C 0.3974 0.52785 0.50846 0.0
C92 C 0.40015 0.5187 0.47196 0.0
C93 C 0.39717 0.49696 0.46866 0.0
C94 C 0.39803 0.48815 0.43407 0.0
C95 C 0.40182 0.50082 0.40147 0.0
C96 C 0.40522 0.52259 0.40503 0.0
C97 C 0.40438 0.5314 0.43974 0.0
C98 C 0.39159 0.58515 0.59135 0.0
C99 C 0.44573 0.58548 0.51411 0.0
O100 O 0.43466 0.61345 0.63702 0.0
O101 O 0.46443 0.59945 0.63628 0.0
O102 O 0.44245 0.54959 0.59752 0.0
O103 O 0.46742 0.56774 0.58549 0.0
O104 O 0.41219 0.53604 0.61779 0.0
O105 O 0.42443 0.56424 0.64932 0.0
O106 O 0.40912 0.52097 0.53769 0.0
O107 O 0.39294 0.54811 0.508 0.0
O108 O 0.40745 0.58831 0.57434 0.0
O109 O 0.38526 0.56625 0.58592 0.0
O110 O 0.44602 0.59845 0.54135 0.0
O111 O 0.43641 0.56729 0.51715 0.0
H112 H 0.45265 0.57766 0.70125 0.0
H113 H 0.4591 0.57607 0.76914 0.0
H114 H 0.46541 0.64411 0.76316 0.0
H115 H 0.4591 0.64549 0.69508 0.0
H116 H 0.39386 0.48676 0.4929 0.0
H117 H 0.39576 0.47129 0.43301 0.0
H118 H 0.40804 0.53301 0.38081 0.0
H119 H 0.40672 0.54823 0.44117 0.0
Pr120 Pr 0.67782 0.18066 0.8733 0.0
Pr121 Pr 0.69563 0.14888 0.82237 0.0
C122 C 0.65903 0.20535 0.91901 0.0
C123 C 0.66082 0.21118 0.95838 0.0
C124 C 0.6574 0.23227 0.96622 0.0
C125 C 0.65794 0.23797 1.00323 0.0
C126 C 0.66191 0.22268 0.03348 0.0
C127 C 0.66565 0.20155 0.02546 0.0
C128 C 0.66514 0.19588 0.9884 0.0
C129 C 0.71798 0.1873 0.85966 0.0
C130 C 0.70601 0.14163 0.91229 0.0
C131 C 0.71358 0.128 0.77038 0.0
C132 C 0.72314 0.13069 0.73414 0.0
C133 C 0.71249 0.13869 0.70084 0.0
C134 C 0.72152 0.1395 0.66663 0.0
C135 C 0.74144 0.13231 0.66476 0.0
C136 C 0.75214 0.12477 0.69836 0.0
C137 C 0.7431 0.1239 0.73243 0.0
C138 C 0.66119 0.13538 0.85747 0.0
C139 C 0.67259 0.19288 0.78203 0.0
O140 O 0.65401 0.1859 0.91338 0.0
O141 O 0.67242 0.21261 0.89678 0.0
O142 O 0.70442 0.18277 0.83568 0.0
O143 O 0.71109 0.18627 0.89254 0.0
O144 O 0.71397 0.14064 0.87981 0.0
O145 O 0.68916 0.15232 0.91479 0.0
O146 O 0.72333 0.13467 0.80003 0.0
O147 O 0.69413 0.13071 0.77028 0.0
O148 O 0.66395 0.15364 0.84246 0.0
O149 O 0.67617 0.12289 0.85258 0.0
O150 O 0.6667 0.19772 0.81481 0.0
O151 O 0.68375 0.17587 0.77865 0.0
H152 H 0.65397 0.24435 0.94365 0.0
H153 H 0.65473 0.25431 1.00811 0.0
H154 H 0.66905 0.18936 0.04785 0.0
H155 H 0.66796 0.17948 0.98329 0.0
H156 H 0.69706 0.14402 0.70104 0.0
H157 H 0.71268 0.14527 0.6415 0.0
H158 H 0.76759 0.1195 0.69844 0.0
H159 H 0.75171 0.11763 0.75753 0.0
Pr160 Pr 0.05022 0.5915 0.61656 0.0
Pr161 Pr 0.08005 0.56101 0.58466 0.0
C162 C 0.02392 0.61114 0.65634 0.0
C163 C 0.01683 0.60884 0.69427 0.0
C164 C 0.03018 0.60384 0.72564 0.0
C165 C 0.02322 0.602 0.76145 0.0
C166 C 0.00278 0.60509 0.76659 0.0
C167 C 0.98943 0.60976 0.73501 0.0
C168 C 0.99641 0.61161 0.6992 0.0
C169 C 0.0827 0.61101 0.58407 0.0
C170 C 0.08084 0.56028 0.67638 0.0
C171 C 0.10694 0.54286 0.544 0.0
C172 C 0.10723 0.53779 0.50497 0.0
C173 C 0.11823 0.5201 0.49618 0.0
C174 C 0.11693 0.51375 0.45978 0.0
C175 C 0.10454 0.525 0.43167 0.0
C176 C 0.09404 0.54318 0.44035 0.0
C177 C 0.09537 0.54953 0.47675 0.0
C178 C 0.04804 0.54114 0.61401 0.0
C179 C 0.04137 0.58409 0.52784 0.0
O180 O 0.01876 0.59631 0.63428 0.0
O181 O 0.04236 0.61732 0.65339 0.0
O182 O 0.08367 0.59407 0.60515 0.0
O183 O 0.06464 0.619 0.58096 0.0
O184 O 0.09219 0.55674 0.64852 0.0
O185 O 0.06383 0.57122 0.67004 0.0
O186 O 0.10678 0.56295 0.54989 0.0
O187 O 0.09455 0.53194 0.56391 0.0
O188 O 0.04685 0.55858 0.5945 0.0
O189 O 0.06593 0.53273 0.61696 0.0
O190 O 0.03403 0.59188 0.55719 0.0
O191 O 0.05855 0.57305 0.53087 0.0
H192 H 0.04602 0.6016 0.72255 0.0
H193 H 0.03394 0.59868 0.78519 0.0
H194 H 0.97357 0.61196 0.73799 0.0
H195 H 0.98585 0.6153 0.67532 0.0
H196 H 0.12734 0.51082 0.51772 0.0
H197 H 0.125 0.49954 0.45401 0.0
H198 H 0.08454 0.55227 0.41917 0.0
H199 H 0.08678 0.56328 0.48301 0.0
Pr200 Pr 0.67233 0.82004 0.9871 0.0
Pr201 Pr 0.70078 0.85245 0.94673 0.0
C202 C 0.65732 0.79252 0.03908 0.0
C203 C 0.66215 0.78395 0.07874 0.0
C204 C 0.64669 0.77679 0.10067 0.0
C205 C 0.6508 0.76815 0.13767 0.0
C206 C 0.67058 0.76628 0.15414 0.0
C207 C 0.68606 0.77384 0.13215 0.0
C208 C 0.68191 0.78253 0.09506 0.0
C209 C 0.65238 0.85107 0.93681 0.0
C210 C 0.70358 0.85098 0.03732 0.0
C211 C 0.71495 0.88171 0.89777 0.0
C212 C 0.72211 0.88175 0.86006 0.0
C213 C 0.73557 0.86601 0.85102 0.0
C214 C 0.74234 0.86633 0.8152 0.0
C215 C 0.73561 0.88224 0.78771 0.0
C216 C 0.72177 0.89767 0.79654 0.0
C217 C 0.71511 0.89745 0.83251 0.0
C218 C 0.71955 0.81356 0.97308 0.0
C219 C 0.67963 0.81276 0.89931 0.0
O220 O 0.66904 0.7867 1.01375 0.0
O221 O 0.65142 0.81245 0.03343 0.0
O222 O 0.66768 0.85438 0.95898 0.0
O223 O 0.6451 0.83267 0.94674 0.0
O224 O 0.70589 0.8639 1.00738 0.0
O225 O 0.69333 0.83344 0.03482 0.0
O226 O 0.69584 0.87862 0.90034 0.0
O227 O 0.72616 0.87167 0.92487 0.0
O228 O 0.70182 0.81693 0.96045 0.0
O229 O 0.72906 0.83136 0.97065 0.0
O230 O 0.67314 0.80359 0.93062 0.0
O231 O 0.68922 0.83105 0.89872 0.0
H232 H 0.63131 0.7778 0.08909 0.0
H233 H 0.63831 0.76309 0.15345 0.0
H234 H 0.70151 0.77266 0.14325 0.0
H235 H 0.69419 0.788 0.07903 0.0
H236 H 0.74089 0.85346 0.8716 0.0
H237 H 0.75274 0.85404 0.8089 0.0
H238 H 0.71636 0.91011 0.77583 0.0
H239 H 0.70454 0.90957 0.83886 0.0
Pr240 Pr 0.45088 0.39744 0.12215 0.0
Pr241 Pr 0.42089 0.42667 0.06975 0.0
C242 C 0.47485 0.37748 0.17763 0.0
C243 C 0.48154 0.37959 0.21725 0.0
C244 C 0.46777 0.38315 0.24398 0.0
C245 C 0.47421 0.38349 0.28178 0.0
C246 C 0.49456 0.38029 0.29373 0.0
C247 C 0.50838 0.37738 0.26673 0.0
C248 C 0.50192 0.377 0.22892 0.0
C249 C 0.41979 0.37743 0.08321 0.0
C250 C 0.41867 0.42912 0.16032 0.0
C251 C 0.39453 0.44074 1.01302 0.0
C252 C 0.39646 0.45031 0.97494 0.0
C253 C 0.41406 0.46063 0.9658 0.0
C254 C 0.4158 0.46998 0.92978 0.0
C255 C 0.40002 0.46903 0.90202 0.0
C256 C 0.38255 0.45826 0.9112 0.0
C257 C 0.38079 0.449 0.94736 0.0
C258 C 0.45179 0.44863 0.10145 0.0
C259 C 0.46162 0.40398 0.03453 0.0
O260 O 0.48158 0.39113 0.15257 0.0
O261 O 0.45609 0.37268 0.17037 0.0
O262 O 0.41802 0.3942 0.0997 0.0
O263 O 0.43791 0.36976 0.08885 0.0
O264 O 0.4075 0.43117 0.12816 0.0
O265 O 0.43628 0.41928 0.1629 0.0
O266 O 0.40016 0.42084 1.01912 0.0
O267 O 0.40048 0.45229 0.04023 0.0
O268 O 0.45363 0.43013 0.09086 0.0
O269 O 0.43447 0.45738 0.09077 0.0
O270 O 0.46846 0.39668 0.06851 0.0
O271 O 0.4444 0.41485 0.02843 0.0
H272 H 0.45197 0.38528 0.23582 0.0
H273 H 0.46321 0.3861 0.30171 0.0
H274 H 0.52413 0.37472 0.27494 0.0
H275 H 0.51281 0.37421 0.20884 0.0
H276 H 0.42643 0.46162 0.98666 0.0
H277 H 0.42938 0.47831 0.92393 0.0
H278 H 0.37026 0.45687 0.89038 0.0
H279 H 0.36719 0.44085 0.95381 0.0
Pr280 Pr 0.83633 0.18002 0.37182 0.0
Pr281 Pr 0.80623 0.15165 0.33014 0.0
C282 C 0.85505 0.20331 0.42331 0.0
C283 C 0.85149 0.20958 0.46128 0.0
C284 C 0.86719 0.2178 0.4833 0.0
C285 C 0.86417 0.22386 0.51924 0.0
C286 C 0.84531 0.2219 0.53417 0.0
C287 C 0.8296 0.21343 0.512 0.0
C288 C 0.83266 0.20734 0.476 0.0
C289 C 0.85441 0.15178 0.32679 0.0
C290 C 0.8098 0.1442 0.42098 0.0
C291 C 0.78719 0.12676 0.28208 0.0
C292 C 0.78526 0.12511 0.24132 0.0
C293 C 0.78111 0.14322 0.21685 0.0
C294 C 0.77742 0.1414 0.17863 0.0
C295 C 0.77802 0.12145 0.16376 0.0
C296 C 0.78308 0.10344 0.18817 0.0
C297 C 0.78658 0.10526 0.22663 0.0
C298 C 0.78785 0.18252 0.36759 0.0
C299 C 0.82493 0.19494 0.28447 0.0
O300 O 0.8429 0.21153 0.39575 0.0
O301 O 0.85935 0.18326 0.42035 0.0
O302 O 0.83974 0.14748 0.34652 0.0
O303 O 0.86166 0.17008 0.33398 0.0
O304 O 0.80479 0.13458 0.39035 0.0
O305 O 0.82007 0.16178 0.41958 0.0
O306 O 0.80439 0.1212 0.29993 0.0
O307 O 0.77909 0.14367 0.29404 0.0
O308 O 0.8034 0.18539 0.34993 0.0
O309 O 0.7806 0.16381 0.3639 0.0
O310 O 0.83212 0.20164 0.31659 0.0
O311 O 0.81611 0.17637 0.28256 0.0
H312 H 0.88188 0.21952 0.4727 0.0
H313 H 0.87677 0.22985 0.53551 0.0
H314 H 0.81482 0.21179 0.5222 0.0
H315 H 0.8203 0.20094 0.45962 0.0
H316 H 0.78018 0.15881 0.22731 0.0
H317 H 0.77328 0.15563 0.16104 0.0
H318 H 0.78403 0.08788 0.17769 0.0
H319 H 0.78993 0.09111 0.24499 0.0
Pr320 Pr 0.91008 0.55961 0.25012 0.0
Pr321 Pr 0.94103 0.58366 0.20492 0.0
C322 C 0.89127 0.53809 0.30571 0.0
C323 C 0.8942 0.52902 0.34555 0.0
C324 C 0.87754 0.52197 0.36437 0.0
C325 C 0.87971 0.51284 0.40139 0.0
C326 C 0.89868 0.51041 0.42112 0.0
C327 C 0.91539 0.51779 0.40225 0.0
C328 C 0.91319 0.52688 0.36502 0.0
C329 C 0.89259 0.59047 0.19584 0.0
C330 C 0.94642 0.58777 0.29362 0.0
C331 C 0.96186 0.60447 0.15263 0.0
C332 C 0.96196 0.60558 0.11161 0.0
C333 C 0.95815 0.58747 0.09206 0.0
C334 C 0.96011 0.58803 0.05362 0.0
C335 C 0.96583 0.60673 0.03386 0.0
C336 C 0.96884 0.62507 0.05336 0.0
C337 C 0.967 0.62445 0.09192 0.0
C338 C 0.95634 0.54579 0.24214 0.0
C339 C 0.91301 0.54636 0.16516 0.0
O340 O 0.90072 0.52885 0.28045 0.0
O341 O 0.8903 0.55878 0.29936 0.0
O342 O 0.90883 0.59278 0.21595 0.0
O343 O 0.8836 0.57363 0.2085 0.0
O344 O 0.94922 0.59854 0.26164 0.0
O345 O 0.93392 0.57183 0.29469 0.0
O346 O 0.94669 0.61326 0.16709 0.0
O347 O 0.96748 0.58627 0.16986 0.0
O348 O 0.93908 0.5486 0.22607 0.0
O349 O 0.96565 0.56366 0.24171 0.0
O350 O 0.90765 0.53915 0.19847 0.0
O351 O 0.92374 0.56369 0.16073 0.0
H352 H 0.8627 0.52344 0.3503 0.0
H353 H 0.86637 0.50785 0.41467 0.0
H354 H 0.9303 0.51614 0.41594 0.0
H355 H 0.92636 0.53208 0.35134 0.0
H356 H 0.95426 0.57269 0.10668 0.0
H357 H 0.95791 0.57355 0.03971 0.0
H358 H 0.9729 0.63984 0.03889 0.0
H359 H 0.96989 0.63861 0.10647 0.0
Pr360 Pr 0.20604 0.15954 0.98549 0.0
Pr361 Pr 0.17502 0.19069 1.01432 0.0
C362 C 0.22321 0.12931 0.949 0.0
C363 C 0.22979 0.12631 0.91148 0.0
C364 C 0.24649 0.13692 0.89821 0.0
C365 C 0.25249 0.1339 0.86262 0.0
C366 C 0.24191 0.12028 0.83961 0.0
C367 C 0.22528 0.10962 0.85292 0.0
C368 C 0.21933 0.11255 0.8886 0.0
C369 C 0.22223 0.19589 1.01324 0.0
C370 C 0.18548 0.19952 0.92556 0.0
C371 C 0.15389 0.21639 0.05392 0.0
C372 C 0.15709 0.22552 0.09021 0.0
C373 C 0.14066 0.23283 0.10792 0.0
C374 C 0.1434 0.24082 0.14308 0.0
C375 C 0.16268 0.24169 0.16116 0.0
C376 C 0.17914 0.23421 0.14324 0.0
C377 C 0.17635 0.22613 0.10813 0.0
C378 C 0.15827 0.15715 0.97785 0.0
C379 C 0.20577 0.1598 0.0753 0.0
O380 O 0.20387 0.13068 0.95202 0.0
O381 O 0.23343 0.14231 0.96928 0.0
O382 O 0.20596 0.19466 0.99411 0.0
O383 O 0.23247 0.17817 1.01463 0.0
O384 O 0.17722 0.2078 0.95393 0.0
O385 O 0.1958 0.18126 0.93037 0.0
O386 O 0.16516 0.22348 0.02757 0.0
O387 O 0.15171 0.19583 0.05542 0.0
O388 O 0.1736 0.15561 1.00075 0.0
O389 O 0.15038 0.17605 0.97613 0.0
O390 O 0.20848 0.14711 0.04848 0.0
O391 O 0.19554 0.1779 0.06816 0.0
H392 H 0.25489 0.14764 0.91516 0.0
H393 H 0.26522 0.14251 0.85283 0.0
H394 H 0.21697 0.09889 0.83583 0.0
H395 H 0.2065 0.10407 0.8983 0.0
H396 H 0.12566 0.2322 0.0947 0.0
H397 H 0.13036 0.24606 0.15629 0.0
H398 H 0.1942 0.23481 0.1561 0.0
H399 H 0.18921 0.22032 0.09503 0.0
Pr400 Pr 0.58546 0.43065 0.77826 0.0
Pr401 Pr 0.56165 0.39781 0.73291 0.0
C402 C 0.60137 0.45612 0.82941 0.0
C403 C 0.59894 0.46426 0.8667 0.0
C404 C 0.61604 0.46675 0.8907 0.0
C405 C 0.61458 0.47502 0.92555 0.0
C406 C 0.59591 0.48116 0.93754 0.0
C407 C 0.57867 0.47825 0.91365 0.0
C408 C 0.58016 0.46991 0.87867 0.0
C409 C 0.60884 0.40156 0.74284 0.0
C410 C 0.55332 0.39826 0.82234 0.0
C411 C 0.54954 0.36674 0.68997 0.0
C412 C 0.54526 0.36767 0.64912 0.0
C413 C 0.54625 0.38714 0.62798 0.0
C414 C 0.54209 0.38846 0.5893 0.0
C415 C 0.5368 0.37032 0.57082 0.0
C416 C 0.53623 0.35071 0.59202 0.0
C417 C 0.54042 0.34941 0.63089 0.0
C418 C 0.54266 0.43687 0.72998 0.0
C419 C 0.58229 0.43922 0.68793 0.0
O420 O 0.58892 0.46302 0.80113 0.0
O421 O 0.60651 0.43609 0.82872 0.0
O422 O 0.59335 0.39711 0.76013 0.0
O423 O 0.61359 0.42102 0.7475 0.0
O424 O 0.54952 0.38815 0.79176 0.0
O425 O 0.56637 0.41368 0.82337 0.0
O426 O 0.5683 0.36927 0.70112 0.0
O427 O 0.53718 0.37759 0.70824 0.0
O428 O 0.55189 0.42837 0.75939 0.0
O429 O 0.5419 0.42464 0.70258 0.0
O430 O 0.5836 0.44907 0.71922 0.0
O431 O 0.57743 0.419 0.68764 0.0
H432 H 0.63069 0.4624 0.88235 0.0
H433 H 0.62818 0.47651 0.94318 0.0
H434 H 0.56402 0.48286 0.92155 0.0
H435 H 0.56668 0.46807 0.86087 0.0
H436 H 0.55014 0.4014 0.64145 0.0
H437 H 0.54307 0.40373 0.57382 0.0
H438 H 0.53211 0.33645 0.57869 0.0
H439 H 0.53971 0.33422 0.6467 0.0
Pr440 Pr 0.30544 0.82921 0.5122 0.0
Pr441 Pr 0.33309 0.80015 0.47165 0.0
C442 C 0.2803 0.84637 0.55843 0.0
C443 C 0.27356 0.84596 0.5972 0.0
C444 C 0.27348 0.86481 0.61556 0.0
C445 C 0.26549 0.86554 0.65051 0.0
C446 C 0.25721 0.84742 0.66823 0.0
C447 C 0.25777 0.82836 0.6502 0.0
C448 C 0.2658 0.82765 0.61516 0.0
C449 C 0.34085 0.84756 0.48955 0.0
C450 C 0.33493 0.79233 0.56096 0.0
C451 C 0.35583 0.78227 0.42251 0.0
C452 C 0.35363 0.77525 0.38383 0.0
C453 C 0.35874 0.7543 0.37738 0.0
C454 C 0.35756 0.74753 0.34106 0.0
C455 C 0.35129 0.76155 0.31004 0.0
C456 C 0.34585 0.78249 0.31666 0.0
C457 C 0.34703 0.78925 0.35304 0.0
C458 C 0.29587 0.78253 0.48263 0.0
C459 C 0.29974 0.83364 0.42139 0.0
O460 O 0.27551 0.83065 0.53801 0.0
O461 O 0.29793 0.85397 0.55226 0.0
O462 O 0.33941 0.82896 0.50443 0.0
O463 O 0.32383 0.85781 0.48861 0.0
O464 O 0.34646 0.79148 0.53271 0.0
O465 O 0.31774 0.80298 0.55733 0.0
O466 O 0.35498 0.80262 0.42637 0.0
O467 O 0.34686 0.77121 0.44836 0.0
O468 O 0.299 0.80184 0.47416 0.0
O469 O 0.31279 0.77259 0.4913 0.0
O470 O 0.29076 0.83734 0.45192 0.0
O471 O 0.31664 0.82239 0.42297 0.0
H472 H 0.27929 0.87921 0.60246 0.0
H473 H 0.26574 0.88042 0.66357 0.0
H474 H 0.25142 0.81409 0.66256 0.0
H475 H 0.26554 0.81285 0.60183 0.0
H476 H 0.36384 0.74315 0.40051 0.0
H477 H 0.36154 0.73121 0.33733 0.0
H478 H 0.34116 0.79386 0.29363 0.0
H479 H 0.34299 0.80554 0.35692 0.0
Pr480 Pr 0.92077 0.43239 0.77901 0.0
Pr481 Pr 0.95431 0.40829 0.7424 0.0
C482 C 0.89202 0.44242 0.82391 0.0
C483 C 0.89265 0.4511 0.86072 0.0
C484 C 0.91099 0.45683 0.87793 0.0
C485 C 0.91172 0.46547 0.91258 0.0
C486 C 0.89411 0.46835 0.93103 0.0
C487 C 0.87575 0.46234 0.91366 0.0
C488 C 0.87503 0.45397 0.87865 0.0
C489 C 0.94952 0.45892 0.75384 0.0
C490 C 0.963 0.41371 0.83187 0.0
C491 C 0.98163 0.3921 0.70024 0.0
C492 C 0.98892 0.39584 0.66279 0.0
C493 C 0.00224 0.38114 0.6503 0.0
C494 C 0.00835 0.38356 0.61392 0.0
C495 C 0.00118 0.40073 0.58928 0.0
C496 C 0.98805 0.41569 0.60219 0.0
C497 C 0.982 0.41327 0.63872 0.0
C498 C 0.92557 0.38322 0.77684 0.0
C499 C 0.92051 0.43735 0.68649 0.0
O500 O 0.89934 0.42319 0.82329 0.0
O501 O 0.89766 0.45529 0.7967 0.0
O502 O 0.95315 0.44033 0.76837 0.0
O503 O 0.93121 0.46527 0.75661 0.0
O504 O 0.97099 0.40831 0.8013 0.0
O505 O 0.94468 0.42241 0.83062 0.0
O506 O 0.98592 0.40633 0.72406 0.0
O507 O 0.96336 0.38516 0.70147 0.0
O508 O 0.922 0.39999 0.75594 0.0
O509 O 0.94447 0.37827 0.77797 0.0
O510 O 0.90865 0.43766 0.71473 0.0
O511 O 0.93878 0.42913 0.69174 0.0
H512 H 0.92475 0.45488 0.86429 0.0
H513 H 0.92608 0.47028 0.92448 0.0
H514 H 0.86192 0.46398 0.92716 0.0
H515 H 0.86074 0.44958 0.86573 0.0
H516 H 0.00763 0.36753 0.66847 0.0
H517 H 0.01822 0.37159 0.60473 0.0
H518 H 0.98242 0.4292 0.58403 0.0
H519 H 0.97177 0.42485 0.64804 0.0
Pr520 Pr 0.29672 0.14883 0.40886 0.0
Pr521 Pr 0.32826 0.17622 0.37011 0.0
C522 C 0.27648 0.12318 0.45539 0.0
C523 C 0.27767 0.11805 0.49577 0.0
C524 C 0.2636 0.1047 0.51173 0.0
C525 C 0.26291 0.10227 0.55053 0.0
C526 C 0.27621 0.11334 0.5737 0.0
C527 C 0.29079 0.12604 0.5575 0.0
C528 C 0.29154 0.1283 0.51884 0.0
C529 C 0.28165 0.18814 0.37619 0.0
C530 C 0.32126 0.18538 0.45637 0.0
C531 C 0.34688 0.20146 0.3196 0.0
C532 C 0.34255 0.21183 0.281 0.0
C533 C 0.34654 0.23344 0.27355 0.0
C534 C 0.34282 0.24346 0.23742 0.0
C535 C 0.33484 0.2322 0.20761 0.0
C536 C 0.3308 0.21055 0.21517 0.0
C537 C 0.33468 0.20049 0.25126 0.0
C538 C 0.34571 0.1448 0.42292 0.0
C539 C 0.29357 0.14931 0.31901 0.0
O540 O 0.29125 0.11638 0.43721 0.0
O541 O 0.27101 0.14274 0.44503 0.0
O542 O 0.29854 0.18428 0.39274 0.0
O543 O 0.27147 0.17079 0.37603 0.0
O544 O 0.32727 0.1944 0.42467 0.0
O545 O 0.31203 0.16699 0.45746 0.0
O546 O 0.33719 0.20886 0.34644 0.0
O547 O 0.34916 0.18074 0.32324 0.0
O548 O 0.33014 0.1421 0.40098 0.0
O549 O 0.35421 0.16235 0.41227 0.0
O550 O 0.28986 0.13732 0.34917 0.0
O551 O 0.30612 0.16517 0.32116 0.0
H552 H 0.25268 0.09683 0.4942 0.0
H553 H 0.25136 0.09257 0.56226 0.0
H554 H 0.30142 0.13449 0.5747 0.0
H555 H 0.30268 0.1384 0.50692 0.0
H556 H 0.35263 0.24263 0.29576 0.0
H557 H 0.346 0.26016 0.23295 0.0
H558 H 0.325 0.20122 0.19295 0.0
H559 H 0.33165 0.18378 0.25579 0.0
Pr560 Pr 0.57751 0.55598 0.27058 0.0
Pr561 Pr 0.55028 0.58696 0.21811 0.0
C562 C 0.60524 0.53647 0.31935 0.0
C563 C 0.6042 0.52664 0.35767 0.0
C564 C 0.58764 0.51455 0.36729 0.0
C565 C 0.58599 0.5065 0.40413 0.0
C566 C 0.60075 0.51054 0.43235 0.0
C567 C 0.61737 0.52263 0.4226 0.0
C568 C 0.61905 0.53062 0.3856 0.0
C569 C 0.54094 0.5391 0.24881 0.0
C570 C 0.53896 0.58025 0.30492 0.0
C571 C 0.52741 0.60847 0.16299 0.0
C572 C 0.52021 0.60654 0.12356 0.0
C573 C 0.53348 0.60255 0.09618 0.0
C574 C 0.52638 0.60149 0.05884 0.0
C575 C 0.50585 0.60435 0.04801 0.0
C576 C 0.49259 0.608 0.07566 0.0
C577 C 0.49971 0.60911 0.11296 0.0
C578 C 0.58123 0.60494 0.26107 0.0
C579 C 0.58062 0.55359 0.17862 0.0
O580 O 0.60274 0.55711 0.31564 0.0
O581 O 0.59586 0.52684 0.2924 0.0
O582 O 0.55143 0.55079 0.22847 0.0
O583 O 0.54933 0.53584 0.28245 0.0
O584 O 0.53123 0.58395 0.2702 0.0
O585 O 0.55752 0.57271 0.31219 0.0
O586 O 0.51997 0.59537 0.18819 0.0
O587 O 0.5465 0.61202 0.16998 0.0
O588 O 0.58268 0.58873 0.24327 0.0
O589 O 0.56322 0.61296 0.25631 0.0
O590 O 0.58864 0.54678 0.21231 0.0
O591 O 0.5662 0.56822 0.17441 0.0
H592 H 0.5758 0.51149 0.3464 0.0
H593 H 0.57315 0.49701 0.41045 0.0
H594 H 0.62887 0.52628 0.44368 0.0
H595 H 0.63177 0.54021 0.37891 0.0
H596 H 0.54938 0.60051 0.10347 0.0
H597 H 0.53707 0.59892 0.03831 0.0
H598 H 0.47667 0.60995 0.06852 0.0
H599 H 0.48918 0.61213 0.13356 0.0
Pr600 Pr 0.18881 0.83029 0.99869 0.0
Pr601 Pr 0.1573 0.80647 0.95419 0.0
C602 C 0.21126 0.85218 0.04749 0.0
C603 C 0.21794 0.85343 0.08733 0.0
C604 C 0.23805 0.8486 0.09897 0.0
C605 C 0.24496 0.84949 0.13628 0.0
C606 C 0.23187 0.85504 0.1629 0.0
C607 C 0.21179 0.86014 0.15139 0.0
C608 C 0.20497 0.85972 0.11369 0.0
C609 C 0.20572 0.80073 0.95653 0.0
C610 C 0.16751 0.78692 0.03912 0.0
C611 C 0.13545 0.78706 0.90099 0.0
C612 C 0.1367 0.78197 0.86163 0.0
C613 C 0.11949 0.77558 0.84131 0.0
C614 C 0.1203 0.77042 0.80422 0.0
C615 C 0.13839 0.77149 0.78642 0.0
C616 C 0.15565 0.77804 0.8069 0.0
C617 C 0.1548 0.78326 0.84408 0.0
C618 C 0.14114 0.83379 1.00334 0.0
C619 C 0.18547 0.84154 0.90821 0.0
O620 O 0.19288 0.85789 0.03566 0.0
O621 O 0.21783 0.83581 0.03163 0.0
O622 O 0.19015 0.79737 0.97416 0.0
O623 O 0.21295 0.81929 0.96146 0.0
O624 O 0.15951 0.78247 1.00616 0.0
O625 O 0.17825 0.80414 0.04346 0.0
O626 O 0.14794 0.77694 0.92601 0.0
O627 O 0.13294 0.80707 0.90692 0.0
O628 O 0.15571 0.83816 0.98342 0.0
O629 O 0.13334 0.81595 0.99508 0.0
O630 O 0.19094 0.84962 0.94021 0.0
O631 O 0.17423 0.82471 0.9076 0.0
H632 H 0.24848 0.84407 0.07912 0.0
H633 H 0.2605 0.84547 0.14451 0.0
H634 H 0.2015 0.8647 0.17144 0.0
H635 H 0.18964 0.86431 0.10512 0.0
H636 H 0.10538 0.77445 0.85426 0.0
H637 H 0.10677 0.76519 0.78967 0.0
H638 H 0.16979 0.77932 0.79409 0.0
H639 H 0.16828 0.78826 0.85914 0.0
Pr640 Pr 0.56508 0.91831 0.65583 0.0
Pr641 Pr 0.5961 0.93996 0.60926 0.0
C642 C 0.54276 0.90054 0.70902 0.0
C643 C 0.54278 0.90033 0.74987 0.0
C644 C 0.53105 0.88579 0.76936 0.0
C645 C 0.52904 0.88713 0.80753 0.0
C646 C 0.53883 0.90302 0.82694 0.0
C647 C 0.55109 0.91718 0.80735 0.0
C648 C 0.55293 0.91593 0.76914 0.0
C649 C 0.55075 0.95725 0.62196 0.0
C650 C 0.59546 0.95404 0.69337 0.0
C651 C 0.61472 0.95997 0.55187 0.0
C652 C 0.61067 0.96925 0.51236 0.0
C653 C 0.62674 0.9756 0.49127 0.0
C654 C 0.62347 0.98485 0.45445 0.0
C655 C 0.60396 0.98807 0.43724 0.0
C656 C 0.58783 0.98143 0.4584 0.0
C657 C 0.59114 0.97225 0.49543 0.0
C658 C 0.6132 0.90882 0.66397 0.0
C659 C 0.55811 0.91344 0.56792 0.0
O660 O 0.55705 0.89006 0.69495 0.0
O661 O 0.53881 0.91899 0.69132 0.0
O662 O 0.56847 0.95327 0.63511 0.0
O663 O 0.54142 0.93958 0.61906 0.0
O664 O 0.59959 0.9613 0.65938 0.0
O665 O 0.58497 0.93667 0.69902 0.0
O666 O 0.60703 0.96985 0.57841 0.0
O667 O 0.61436 0.9393 0.55807 0.0
O668 O 0.59666 0.90704 0.64442 0.0
O669 O 0.6226 0.92516 0.65037 0.0
O670 O 0.55559 0.90288 0.60018 0.0
O671 O 0.5709 0.92906 0.56623 0.0
H672 H 0.5229 0.87384 0.75481 0.0
H673 H 0.51921 0.87618 0.82146 0.0
H674 H 0.55913 0.92938 0.82141 0.0
H675 H 0.56194 0.92742 0.75452 0.0
H676 H 0.64197 0.97348 0.50338 0.0
H677 H 0.63637 0.98932 0.43933 0.0
H678 H 0.57257 0.98373 0.44667 0.0
H679 H 0.57841 0.96768 0.51095 0.0
Pr680 Pr 0.30655 0.30067 0.8505 0.0
Pr681 Pr 0.29623 0.34444 0.88049 0.0
C682 C 0.30677 0.26496 0.81443 0.0
C683 C 0.3103 0.25951 0.77604 0.0
C684 C 0.32975 0.25898 0.76363 0.0
C685 C 0.33287 0.25406 0.72722 0.0
C686 C 0.31663 0.24954 0.70238 0.0
C687 C 0.29719 0.25008 0.71479 0.0
C688 C 0.29407 0.25495 0.75124 0.0
C689 C 0.33919 0.32684 0.86237 0.0
C690 C 0.2854 0.33964 0.79047 0.0
C691 C 0.29713 0.37997 0.91728 0.0
C692 C 0.29348 0.38388 0.95606 0.0
C693 C 0.28287 0.40212 0.96369 0.0
C694 C 0.2769 0.40446 0.99969 0.0
C695 C 0.28128 0.38846 0.0286 0.0
C696 C 0.29259 0.37058 0.02098 0.0
C697 C 0.29867 0.36837 0.98516 0.0
C698 C 0.26469 0.31602 0.88209 0.0
C699 C 0.31054 0.30215 0.94226 0.0
O700 O 0.29034 0.27579 0.8185 0.0
O701 O 0.32222 0.27108 0.83499 0.0
O702 O 0.32195 0.33303 0.84886 0.0
O703 O 0.34061 0.30637 0.86202 0.0
O704 O 0.28795 0.35355 0.81616 0.0
O705 O 0.29053 0.31946 0.79782 0.0
O706 O 0.3132 0.36879 0.91244 0.0
O707 O 0.28142 0.37445 0.89686 0.0
O708 O 0.28303 0.31162 0.88835 0.0
O709 O 0.26222 0.33634 0.87477 0.0
O710 O 0.30856 0.28948 0.91452 0.0
O711 O 0.30786 0.32305 0.93596 0.0
H712 H 0.34263 0.2624 0.78197 0.0
H713 H 0.34801 0.25392 0.71844 0.0
H714 H 0.28438 0.24632 0.69656 0.0
H715 H 0.27893 0.25508 0.76004 0.0
H716 H 0.27869 0.41426 0.94157 0.0
H717 H 0.26855 0.41863 1.0047 0.0
H718 H 0.29611 0.35783 0.04228 0.0
H719 H 0.3069 0.35418 0.98 0.0
Pr720 Pr 0.94092 0.08938 0.10077 0.0
Pr721 Pr 0.91502 0.05465 0.05529 0.0
C722 C 0.94936 0.11957 0.14828 0.0
C723 C 0.95565 0.11831 0.18849 0.0
C724 C 0.95724 0.09854 0.20904 0.0
C725 C 0.96252 0.09719 0.24745 0.0
C726 C 0.9665 0.11562 0.26611 0.0
C727 C 0.96491 0.13542 0.24533 0.0
C728 C 0.95946 0.13675 0.20688 0.0
C729 C 0.96437 0.05316 0.09591 0.0
C730 C 0.92283 0.04507 0.14547 0.0
C731 C 0.89869 0.02937 1.00414 0.0
C732 C 0.90094 0.01993 0.96775 0.0
C733 C 0.9077 0.03172 0.93649 0.0
C734 C 0.90797 0.02291 0.90168 0.0
C735 C 0.90134 0.00212 0.89705 0.0
C736 C 0.89495 0.99029 0.92869 0.0
C737 C 0.89477 -0.00093 0.96342 0.0
C738 C 0.89354 0.0846 0.09195 0.0
C739 C 0.94756 0.0876 1.01177 0.0
O740 O 0.93126 0.11311 0.14014 0.0
O741 O 0.96237 0.11278 0.12613 0.0
O742 O 0.94666 0.05633 0.08207 0.0
O743 O 0.97081 0.06982 0.11173 0.0
O744 O 0.91847 0.03615 0.11376 0.0
O745 O 0.92915 0.06485 0.14663 0.0
O746 O 0.91004 0.02197 0.03364 0.0
O747 O 0.89502 0.04984 1.00342 0.0
O748 O 0.90899 0.08832 0.07403 0.0
O749 O 0.88755 0.06554 0.08665 0.0
O750 O 0.94901 0.10025 0.03966 0.0
O751 O 0.93692 0.07013 1.01339 0.0
H752 H 0.95439 0.0841 0.19534 0.0
H753 H 0.96379 0.08168 0.26243 0.0
H754 H 0.96762 0.14993 0.25891 0.0
H755 H 0.95813 0.15216 0.19157 0.0
H756 H 0.91243 0.0479 0.93875 0.0
H757 H 0.91289 0.03264 0.87813 0.0
H758 H 0.89008 0.97414 0.92669 0.0
H759 H 0.88943 0.9896 0.9869 0.0
Pr760 Pr 0.16099 0.6904 0.36219 0.0
Pr761 Pr 0.19538 0.66222 0.32362 0.0
C762 C 0.13402 0.70009 0.4109 0.0
C763 C 0.13504 0.70802 0.44916 0.0
C764 C 0.13155 0.72957 0.45431 0.0
C765 C 0.13257 0.73691 0.49033 0.0
C766 C 0.13694 0.72287 0.52224 0.0
C767 C 0.14038 0.70134 0.517 0.0
C768 C 0.13945 0.69407 0.48108 0.0
C769 C 0.19209 0.71577 0.33878 0.0
C770 C 0.20576 0.67566 0.4088 0.0
C771 C 0.22029 0.64427 0.2784 0.0
C772 C 0.2289 0.64505 0.24132 0.0
C773 C 0.21794 0.65275 0.2082 0.0
C774 C 0.22612 0.65175 0.17334 0.0
C775 C 0.24539 0.64287 0.1708 0.0
C776 C 0.25638 0.6356 0.20423 0.0
C777 C 0.24824 0.63669 0.23892 0.0
C778 C 0.16839 0.6403 0.36781 0.0
C779 C 0.15883 0.69153 0.27134 0.0
O780 O 0.14073 0.68075 0.40801 0.0
O781 O 0.13854 0.71331 0.38302 0.0
O782 O 0.18997 0.69632 0.33506 0.0
O783 O 0.17674 0.7232 0.35428 0.0
O784 O 0.21352 0.6692 0.37863 0.0
O785 O 0.1868 0.68207 0.40927 0.0
O786 O 0.22626 0.65814 0.30201 0.0
O787 O 0.20139 0.63934 0.28008 0.0
O788 O 0.16423 0.65627 0.3452 0.0
O789 O 0.18693 0.63436 0.36613 0.0
O790 O 0.14785 0.69431 0.30003 0.0
O791 O 0.17654 0.68164 0.27495 0.0
H792 H 0.12798 0.74079 0.43048 0.0
H793 H 0.12959 0.75356 0.49319 0.0
H794 H 0.14401 0.69004 0.54069 0.0
H795 H 0.14215 0.67744 0.47838 0.0
H796 H 0.20296 0.65923 0.2092 0.0
H797 H 0.21715 0.65744 0.14832 0.0
H798 H 0.27137 0.62905 0.20366 0.0
H799 H 0.25702 0.63065 0.26399 0.0
Pr800 Pr 0.5457 0.09205 0.1147 0.0
Pr801 Pr 0.57687 0.06343 0.0797 0.0
C802 C 0.5196 0.1115 0.15543 0.0
C803 C 0.51129 0.10866 0.19224 0.0
C804 C 0.49621 0.12256 0.20119 0.0
C805 C 0.48873 0.12074 0.23659 0.0
C806 C 0.49628 0.105 0.2639 0.0
C807 C 0.51113 0.09075 0.25442 0.0
C808 C 0.51854 0.09257 0.21888 0.0
C809 C 0.57628 0.11309 0.078 0.0
C810 C 0.57768 0.06071 0.17207 0.0
C811 C 0.60568 0.05006 0.03796 0.0
C812 C 0.60714 0.04506 0.99912 0.0
C813 C 0.62107 0.02968 0.99104 0.0
C814 C 0.6215 0.02327 0.95484 0.0
C815 C 0.60805 0.03224 0.92597 0.0
C816 C 0.59449 0.04821 0.93403 0.0
C817 C 0.59395 0.05446 0.9704 0.0
C818 C 0.54617 0.04115 0.10854 0.0
C819 C 0.53571 0.08377 0.02587 0.0
O820 O 0.51414 0.09792 0.13111 0.0
O821 O 0.53859 0.11616 0.15541 0.0
O822 O 0.57837 0.09657 0.1 0.0
O823 O 0.55787 0.11997 0.07649 0.0
O824 O 0.58892 0.05814 0.1436 0.0
O825 O 0.56034 0.07116 0.16692 0.0
O826 O 0.60282 0.07001 0.0438 0.0
O827 O 0.5949 0.03715 0.05794 0.0
O828 O 0.54421 0.05935 0.09172 0.0
O829 O 0.56389 0.03273 0.10704 0.0
O830 O 0.52858 0.09107 0.05597 0.0
O831 O 0.55343 0.07368 0.02751 0.0
H832 H 0.49033 0.135 0.18087 0.0
H833 H 0.47705 0.13172 0.24259 0.0
H834 H 0.5174 0.07852 0.27471 0.0
H835 H 0.53003 0.08154 0.21228 0.0
H836 H 0.63124 0.02218 1.013 0.0
H837 H 0.63189 0.01069 0.94987 0.0
H838 H 0.58411 0.05566 0.9124 0.0
H839 H 0.58302 0.06633 0.97621 0.0
Pr840 Pr 0.17176 0.32093 0.49078 0.0
Pr841 Pr 0.20198 0.34977 0.45149 0.0
C842 C 0.15402 0.29613 0.54329 0.0
C843 C 0.15809 0.28767 0.58313 0.0
C844 C 0.14206 0.28221 0.60489 0.0
C845 C 0.14543 0.27369 0.6421 0.0
C846 C 0.16502 0.27024 0.65889 0.0
C847 C 0.18109 0.27611 0.63706 0.0
C848 C 0.17768 0.2847 0.59977 0.0
C849 C 0.15333 0.35135 0.43714 0.0
C850 C 0.20385 0.3509 0.54125 0.0
C851 C 0.22048 0.37586 0.40289 0.0
C852 C 0.22234 0.37778 0.36219 0.0
C853 C 0.22794 0.36017 0.34338 0.0
C854 C 0.23124 0.36247 0.30545 0.0
C855 C 0.2288 0.38238 0.28531 0.0
C856 C 0.22232 0.39978 0.3039 0.0
C857 C 0.21921 0.3975 0.34202 0.0
C858 C 0.21954 0.31145 0.4835 0.0
C859 C 0.18007 0.31009 0.40586 0.0
O860 O 0.16505 0.2886 0.5184 0.0
O861 O 0.15024 0.31653 0.53697 0.0
O862 O 0.16858 0.35464 0.45933 0.0
O863 O 0.14543 0.33339 0.44748 0.0
O864 O 0.20738 0.36273 0.51073 0.0
O865 O 0.19259 0.33404 0.53924 0.0
O866 O 0.2031 0.38066 0.41484 0.0
O867 O 0.22913 0.35926 0.42128 0.0
O868 O 0.20213 0.31421 0.4683 0.0
O869 O 0.2278 0.32985 0.48571 0.0
O870 O 0.173 0.302 0.43731 0.0
O871 O 0.18998 0.32811 0.40439 0.0
H872 H 0.12679 0.28446 0.59302 0.0
H873 H 0.13256 0.26995 0.65777 0.0
H874 H 0.19641 0.27368 0.64843 0.0
H875 H 0.19038 0.28884 0.58384 0.0
H876 H 0.23026 0.34468 0.35811 0.0
H877 H 0.23641 0.34874 0.29233 0.0
H878 H 0.21988 0.41524 0.2891 0.0
H879 H 0.21467 0.41123 0.35589 0.0
Pr880 Pr 0.94723 0.90245 0.61639 0.0
Pr881 Pr 0.91586 0.92928 0.56389 0.0
C882 C 0.97368 0.8852 0.67041 0.0
C883 C 0.98029 0.88724 0.70989 0.0
C884 C 0.96656 0.89127 0.73639 0.0
C885 C 0.97304 0.89195 0.77407 0.0
C886 C 0.99339 0.88866 0.78595 0.0
C887 C 0.00715 0.88521 0.75913 0.0
C888 C 0.00064 0.88449 0.72147 0.0
C889 C 0.91772 0.87989 0.57805 0.0
C890 C 0.91247 0.93102 0.65448 0.0
C891 C 0.89007 0.94215 0.50563 0.0
C892 C 0.89347 0.9507 0.46746 0.0
C893 C 0.9116 0.9605 0.46014 0.0
C894 C 0.91494 0.96885 0.42414 0.0
C895 C 0.9003 0.96738 0.39449 0.0
C896 C 0.8823 0.95707 0.40183 0.0
C897 C 0.87893 0.9488 0.43803 0.0
C898 C 0.94459 0.95332 0.5975 0.0
C899 C 0.95757 0.90866 0.52902 0.0
O900 O 0.97822 0.90061 0.64632 0.0
O901 O 0.95577 0.87772 0.66346 0.0
O902 O 0.91471 0.89661 0.59409 0.0
O903 O 0.9363 0.87364 0.58367 0.0
O904 O 0.90169 0.93312 0.62186 0.0
O905 O 0.93038 0.92184 0.65775 0.0
O906 O 0.89523 0.92225 0.51375 0.0
O907 O 0.89552 0.95427 0.5323 0.0
O908 O 0.94806 0.93544 0.58544 0.0
O909 O 0.92657 0.96041 0.58755 0.0
O910 O 0.96473 0.90214 0.56307 0.0
O911 O 0.93995 0.91865 0.52268 0.0
H912 H 0.9508 0.89356 0.72805 0.0
H913 H 0.96212 0.89495 0.79396 0.0
H914 H 0.02289 0.88244 0.76738 0.0
H915 H 0.01147 0.88138 0.70144 0.0
H916 H 0.92315 0.96188 0.48242 0.0
H917 H 0.92886 0.97686 0.41978 0.0
H918 H 0.87085 0.95529 0.37958 0.0
H919 H 0.86498 0.94098 0.44305 0.0
Pr920 Pr 0.34276 0.67793 0.88 0.0
Pr921 Pr 0.30969 0.65465 0.83728 0.0
C922 C 0.3642 0.6978 0.93303 0.0
C923 C 0.36158 0.7038 0.97148 0.0
C924 C 0.37762 0.7124 0.99209 0.0
C925 C 0.37536 0.71851 0.02825 0.0
C926 C 0.35696 0.71617 0.04479 0.0
C927 C 0.34093 0.7073 0.02408 0.0
C928 C 0.34321 0.70124 0.98779 0.0
C929 C 0.3576 0.6489 0.83265 0.0
C930 C 0.31317 0.64428 0.92721 0.0
C931 C 0.2871 0.63571 0.78503 0.0
C932 C 0.28363 0.63964 0.74411 0.0
C933 C 0.28123 0.62268 0.72136 0.0
C934 C 0.27638 0.62652 0.68291 0.0
C935 C 0.27367 0.64742 0.66658 0.0
C936 C 0.27685 0.66433 0.68941 0.0
C937 C 0.28188 0.66049 0.72763 0.0
C938 C 0.29534 0.6867 0.8774 0.0
C939 C 0.33318 0.69596 0.79431 0.0
O940 O 0.35276 0.70784 0.9062 0.0
O941 O 0.36626 0.67753 0.92868 0.0
O942 O 0.34267 0.64577 0.85231 0.0
O943 O 0.36666 0.66609 0.84106 0.0
O944 O 0.3071 0.63589 0.89582 0.0
O945 O 0.32503 0.6607 0.92678 0.0
O946 O 0.30467 0.62812 0.79813 0.0
O947 O 0.28033 0.65046 0.80461 0.0
O948 O 0.31054 0.68822 0.85847 0.0
O949 O 0.28653 0.66873 0.87423 0.0
O950 O 0.34162 0.70088 0.82665 0.0
O951 O 0.32169 0.67919 0.79157 0.0
H952 H 0.39194 0.71444 0.98016 0.0
H953 H 0.38814 0.72491 0.04342 0.0
H954 H 0.3265 0.70538 0.03563 0.0
H955 H 0.33058 0.69471 0.97237 0.0
H956 H 0.28274 0.60648 0.73342 0.0
H957 H 0.27446 0.6131 0.6661 0.0
H958 H 0.27469 0.68061 0.67813 0.0
H959 H 0.2838 0.6739 0.7445 0.0
Pr960 Pr 0.40977 0.05426 0.74692 0.0
Pr961 Pr 0.43507 0.08443 0.70196 0.0
C962 C 0.39286 0.03062 0.80237 0.0
C963 C 0.39631 0.02161 0.84226 0.0
C964 C 0.40024 0.03447 0.87219 0.0
C965 C 0.40212 0.02564 0.90953 0.0
C966 C 0.40006 0.00365 0.9183 0.0
C967 C 0.39643 0.99085 0.88811 0.0
C968 C 0.39455 -0.00032 0.85088 0.0
C969 C 0.3878 0.08152 0.69109 0.0
C970 C 0.44048 0.08763 0.79153 0.0
C971 C 0.44799 0.11065 0.64633 0.0
C972 C 0.44995 0.11006 0.60592 0.0
C973 C 0.46399 0.12299 0.58883 0.0
C974 C 0.46759 0.12128 0.55138 0.0
C975 C 0.45719 0.10657 0.53024 0.0
C976 C 0.4427 0.09396 0.54719 0.0
C977 C 0.43918 0.09562 0.58482 0.0
C978 C 0.45875 0.05223 0.73988 0.0
C979 C 0.41875 0.03887 0.66631 0.0
O980 O 0.40306 0.02238 0.77702 0.0
O981 O 0.38986 0.05113 0.79572 0.0
O982 O 0.4021 0.08696 0.71347 0.0
O983 O 0.38346 0.06199 0.70036 0.0
O984 O 0.4414 0.0995 0.75979 0.0
O985 O 0.43089 0.06959 0.7919 0.0
O986 O 0.42989 0.11178 0.65762 0.0
O987 O 0.45974 0.09753 0.66765 0.0
O988 O 0.44126 0.04979 0.72511 0.0
O989 O 0.46361 0.07209 0.73718 0.0
O990 O 0.41275 0.03198 0.69916 0.0
O991 O 0.42649 0.05794 0.66061 0.0
H992 H 0.40164 0.05144 0.86686 0.0
H993 H 0.40473 0.03623 0.93158 0.0
H994 H 0.39513 0.97386 0.89309 0.0
H995 H 0.39149 0.98926 0.82867 0.0
H996 H 0.4725 0.13414 0.6047 0.0
H997 H 0.47863 0.1314 0.53898 0.0
H998 H 0.43453 0.08241 0.53169 0.0
H999 H 0.42838 0.08536 0.5976 0.0
Pr1000 Pr 0.71448 0.6531 0.47569 0.0
Pr1001 Pr 0.68782 0.68768 0.50956 0.0
C1002 C 0.72745 0.61877 0.44397 0.0
C1003 C 0.73317 0.61427 0.40644 0.0
C1004 C 0.74494 0.62837 0.3858 0.0
C1005 C 0.74925 0.62446 0.34943 0.0
C1006 C 0.74169 0.60651 0.33272 0.0
C1007 C 0.72992 0.59242 0.35359 0.0
C1008 C 0.72575 0.59626 0.39007 0.0
C1009 C 0.73322 0.69124 0.48664 0.0
C1010 C 0.69629 0.69487 0.41965 0.0
C1011 C 0.66813 0.71404 0.55041 0.0
C1012 C 0.67051 0.72394 0.58624 0.0
C1013 C 0.68032 0.71318 0.61802 0.0
C1014 C 0.68157 0.72238 0.65227 0.0
C1015 C 0.67295 0.74254 0.6554 0.0
C1016 C 0.66348 0.75342 0.62326 0.0
C1017 C 0.6623 0.74421 0.58903 0.0
C1018 C 0.66693 0.65833 0.46849 0.0
C1019 C 0.71761 0.65382 0.56846 0.0
O1020 O 0.70844 0.62317 0.44644 0.0
O1021 O 0.73941 0.63069 0.46349 0.0
O1022 O 0.72135 0.68212 0.50793 0.0
O1023 O 0.73703 0.67962 0.45942 0.0
O1024 O 0.69257 0.70477 0.44991 0.0
O1025 O 0.70211 0.6746 0.42208 0.0
O1026 O 0.67961 0.72083 0.52419 0.0
O1027 O 0.66557 0.69348 0.55211 0.0
O1028 O 0.68192 0.6539 0.49125 0.0
O1029 O 0.66172 0.67805 0.46874 0.0
O1030 O 0.72231 0.64311 0.53982 0.0
O1031 O 0.70554 0.67079 0.56356 0.0
H1032 H 0.75067 0.64253 0.3976 0.0
H1033 H 0.75858 0.63551 0.33446 0.0
H1034 H 0.72357 0.57863 0.34148 0.0
H1035 H 0.71641 0.58533 0.40533 0.0
H1036 H 0.68671 0.69751 0.61646 0.0
H1037 H 0.68884 0.7135 0.67648 0.0
H1038 H 0.65698 0.7691 0.62456 0.0
H1039 H 0.65476 0.75283 0.56477 0.0
Pr1040 Pr 0.08353 0.92848 0.27579 0.0
Pr1041 Pr 0.05686 0.8979 0.2329 0.0
C1042 C 0.10064 0.9538 0.32614 0.0
C1043 C 0.09844 0.96209 0.36338 0.0
C1044 C 0.11564 0.96456 0.38716 0.0
C1045 C 0.11432 0.973 0.42191 0.0
C1046 C 0.09573 0.97932 0.434 0.0
C1047 C 0.07841 0.97643 0.41031 0.0
C1048 C 0.07975 0.96792 0.37546 0.0
C1049 C 0.1044 0.89633 0.24368 0.0
C1050 C 0.05031 0.89822 0.32053 0.0
C1051 C 0.04183 0.872 0.18205 0.0
C1052 C 0.04034 0.87379 0.14094 0.0
C1053 C 0.04208 0.89364 0.12137 0.0
C1054 C 0.03951 0.89574 0.08245 0.0
C1055 C 0.03504 0.87801 0.06225 0.0
C1056 C 0.03387 0.85801 0.08191 0.0
C1057 C 0.03652 0.85593 0.12098 0.0
C1058 C 0.03663 0.93561 0.24439 0.0
C1059 C 0.08168 0.93665 0.18573 0.0
O1060 O 0.08818 0.96085 0.29809 0.0
O1061 O 0.10528 0.93366 0.3255 0.0
O1062 O 0.08837 0.89377 0.26044 0.0
O1063 O 0.11136 0.91498 0.24913 0.0
O1064 O 0.04937 0.88529 0.29325 0.0
O1065 O 0.06044 0.9159 0.31764 0.0
O1066 O 0.05983 0.86952 0.19835 0.0
O1067 O 0.03094 0.88563 0.19765 0.0
O1068 O 0.05471 0.93392 0.23693 0.0
O1069 O 0.02925 0.91687 0.24987 0.0
O1070 O 0.08557 0.94617 0.21691 0.0
O1071 O 0.07275 0.91808 0.18588 0.0
H1072 H 0.13022 0.96007 0.37871 0.0
H1073 H 0.12798 0.97446 0.4394 0.0
H1074 H 0.06381 0.98119 0.41826 0.0
H1075 H 0.06619 0.9661 0.35783 0.0
H1076 H 0.04503 0.90764 0.13621 0.0
H1077 H 0.04082 0.9113 0.06821 0.0
H1078 H 0.0303 0.84407 0.06721 0.0
H1079 H 0.03517 0.84048 0.13561 0.0
Pr1080 Pr 0.7997 0.33811 1.00729 0.0
Pr1081 Pr 0.82138 0.30664 0.96325 0.0
C1082 C 0.77729 0.35788 0.05473 0.0
C1083 C 0.76857 0.35552 0.09169 0.0
C1084 C 0.78008 0.34854 0.12462 0.0
C1085 C 0.77168 0.34786 0.15941 0.0
C1086 C 0.75155 0.35411 0.16215 0.0
C1087 C 0.74003 0.36065 0.12892 0.0
C1088 C 0.74845 0.36138 0.09426 0.0
C1089 C 0.83801 0.35033 0.98886 0.0
C1090 C 0.8213 0.2946 0.0511 0.0
C1091 C 0.84023 0.28493 0.91307 0.0
C1092 C 0.8373 0.27836 0.87417 0.0
C1093 C 0.84033 0.25702 0.86737 0.0
C1094 C 0.83915 0.2506 0.8308 0.0
C1095 C 0.83492 0.26537 0.79987 0.0
C1096 C 0.83127 0.28668 0.80682 0.0
C1097 C 0.83249 0.2931 0.84347 0.0
C1098 C 0.78089 0.29763 0.96903 0.0
C1099 C 0.79748 0.34892 0.91747 0.0
O1100 O 0.76956 0.34684 0.02814 0.0
O1101 O 0.79669 0.35978 0.05409 0.0
O1102 O 0.83336 0.33179 1.00045 0.0
O1103 O 0.823 0.36348 0.98989 0.0
O1104 O 0.83321 0.29373 0.02346 0.0
O1105 O 0.80567 0.30769 0.04803 0.0
O1106 O 0.84287 0.30502 0.91752 0.0
O1107 O 0.8294 0.27581 0.93825 0.0
O1108 O 0.78794 0.31577 0.96304 0.0
O1109 O 0.79545 0.28429 0.97901 0.0
O1110 O 0.7882 0.35221 0.9478 0.0
O1111 O 0.81214 0.33463 0.91823 0.0
H1112 H 0.79564 0.34389 0.1236 0.0
H1113 H 0.78112 0.34288 0.18425 0.0
H1114 H 0.72442 0.36515 0.12958 0.0
H1115 H 0.73922 0.36679 0.06934 0.0
H1116 H 0.84398 0.24529 0.89042 0.0
H1117 H 0.84168 0.23401 0.82677 0.0
H1118 H 0.82809 0.29858 0.78387 0.0
H1119 H 0.83008 0.30968 0.84767 0.0
Pr1120 Pr 0.42062 0.93206 0.27868 0.0
Pr1121 Pr 0.45675 0.91062 0.24548 0.0
C1122 C 0.39093 0.94072 0.32243 0.0
C1123 C 0.39114 0.94626 0.36138 0.0
C1124 C 0.37468 0.95665 0.37432 0.0
C1125 C 0.37588 0.96393 0.41022 0.0
C1126 C 0.39371 0.96123 0.43349 0.0
C1127 C 0.40989 0.95014 0.42059 0.0
C1128 C 0.40852 0.94262 0.38512 0.0
C1129 C 0.4475 0.96029 0.25177 0.0
C1130 C 0.46375 0.91793 0.33374 0.0
C1131 C 0.48675 0.89812 0.20563 0.0
C1132 C 0.49369 0.90272 0.16814 0.0
C1133 C 0.50903 0.8902 0.15615 0.0
C1134 C 0.51512 0.89363 0.11989 0.0
C1135 C 0.50583 0.90955 0.09495 0.0
C1136 C 0.49068 0.92237 0.10733 0.0
C1137 C 0.48473 0.91904 0.14378 0.0
C1138 C 0.42973 0.88331 0.28024 0.0
C1139 C 0.42099 0.93517 0.18651 0.0
O1140 O 0.39673 0.92138 0.31723 0.0
O1141 O 0.3985 0.95495 0.29957 0.0
O1142 O 0.45228 0.94281 0.26956 0.0
O1143 O 0.42839 0.96443 0.24969 0.0
O1144 O 0.47265 0.91277 0.3041 0.0
O1145 O 0.44482 0.925 0.33113 0.0
O1146 O 0.48846 0.91339 0.22821 0.0
O1147 O 0.46981 0.8881 0.20725 0.0
O1148 O 0.42514 0.89937 0.25814 0.0
O1149 O 0.44899 0.88017 0.28257 0.0
O1150 O 0.40883 0.93541 0.21427 0.0
O1151 O 0.43972 0.92835 0.19279 0.0
H1152 H 0.36108 0.9595 0.35643 0.0
H1153 H 0.36294 0.97196 0.41945 0.0
H1154 H 0.42397 0.94793 0.43719 0.0
H1155 H 0.42128 0.93441 0.37598 0.0
H1156 H 0.51608 0.87754 0.17465 0.0
H1157 H 0.52667 0.88337 0.11098 0.0
H1158 H 0.48341 0.93488 0.08881 0.0
H1159 H 0.47301 0.92903 0.15278 0.0
Pr1160 Pr 0.79793 0.63803 0.91594 0.0
Pr1161 Pr 0.81742 0.67935 0.87941 0.0
C1162 C 0.79043 0.60087 0.95297 0.0
C1163 C 0.78664 0.59648 0.99262 0.0
C1164 C 0.77367 0.58038 1.00395 0.0
C1165 C 0.76867 0.57784 0.04125 0.0
C1166 C 0.77652 0.59146 0.06759 0.0
C1167 C 0.78943 0.60753 0.05589 0.0
C1168 C 0.79458 0.6099 1.019 0.0
C1169 C 0.77247 0.67316 0.90745 0.0
C1170 C 0.80794 0.67923 0.96752 0.0
C1171 C 0.82775 0.71245 0.83261 0.0
C1172 C 0.82378 0.72217 0.79345 0.0
C1173 C 0.83745 0.73658 0.77863 0.0
C1174 C 0.83439 0.74592 0.74189 0.0
C1175 C 0.81751 0.74115 0.71851 0.0
C1176 C 0.80372 0.7267 0.73357 0.0
C1177 C 0.80683 0.71731 0.77047 0.0
C1178 C 0.8434 0.65385 0.93106 0.0
C1179 C 0.79528 0.64427 0.82312 0.0
O1180 O 0.80857 0.6069 0.94633 0.0
O1181 O 0.77653 0.61219 0.93295 0.0
O1182 O 0.78505 0.6687 0.88423 0.0
O1183 O 0.77147 0.65787 0.93346 0.0
O1184 O 0.80945 0.69176 0.93654 0.0
O1185 O 0.80631 0.65834 0.96699 0.0
O1186 O 0.81351 0.71365 0.85577 0.0
O1187 O 0.83775 0.69434 0.83714 0.0
O1188 O 0.83049 0.6469 0.90725 0.0
O1189 O 0.84492 0.67417 0.92374 0.0
O1190 O 0.7908 0.63175 0.85242 0.0
O1191 O 0.80607 0.66138 0.82709 0.0
H1192 H 0.76718 0.57003 0.98388 0.0
H1193 H 0.75862 0.56534 0.04946 0.0
H1194 H 0.79515 0.61868 0.07515 0.0
H1195 H 0.80442 0.62259 1.01092 0.0
H1196 H 0.85062 0.74071 0.7956 0.0
H1197 H 0.84525 0.75713 0.73199 0.0
H1198 H 0.79065 0.72232 0.71662 0.0
H1199 H 0.79604 0.70618 0.78096 0.0
Pr1200 Pr 0.07704 0.0529 0.76758 0.0
Pr1201 Pr 0.05191 0.08622 0.71482 0.0
C1202 C 0.10376 0.03106 0.81541 0.0
C1203 C 0.10335 0.02299 0.8548 0.0
C1204 C 0.1139 0.00434 0.86794 0.0
C1205 C 0.11265 -0.00398 0.90483 0.0
C1206 C 0.10079 0.00622 0.92922 0.0
C1207 C 0.09045 0.0251 0.91596 0.0
C1208 C 0.09166 0.03336 0.8791 0.0
C1209 C 0.03921 0.0397 0.7446 0.0
C1210 C 0.04002 0.07962 0.80178 0.0
C1211 C 0.03036 0.10884 0.6592 0.0
C1212 C 0.02366 0.1074 0.61932 0.0
C1213 C 0.03733 0.10404 0.59229 0.0
C1214 C 0.03072 0.10369 0.55453 0.0
C1215 C 0.01029 0.10663 0.54288 0.0
C1216 C 0.99663 0.10954 0.57019 0.0
C1217 C 0.00325 0.10997 0.60789 0.0
C1218 C 0.08261 0.10222 0.76106 0.0
C1219 C 0.08099 0.05147 0.67558 0.0
O1220 O 0.10395 0.05171 0.80913 0.0
O1221 O 0.09172 0.02188 0.79159 0.0
O1222 O 0.05079 0.0502 0.72457 0.0
O1223 O 0.04739 0.03495 0.7781 0.0
O1224 O 0.03266 0.08417 0.76694 0.0
O1225 O 0.05806 0.07071 0.80927 0.0
O1226 O 0.02217 0.09588 0.6837 0.0
O1227 O 0.04949 0.11173 0.66731 0.0
O1228 O 0.08391 0.08598 0.74305 0.0
O1229 O 0.06523 0.11148 0.75379 0.0
O1230 O 0.08785 0.04346 0.70932 0.0
O1231 O 0.06787 0.0674 0.67128 0.0
H1232 H 0.12286 -0.00396 0.8495 0.0
H1233 H 0.12058 0.9813 0.91395 0.0
H1234 H 0.0814 0.03352 0.93406 0.0
H1235 H 0.0833 0.04774 0.86949 0.0
H1236 H 0.05317 0.10199 0.60018 0.0
H1237 H 0.04173 0.10164 0.53436 0.0
H1238 H 0.98076 0.11148 0.56246 0.0
H1239 H 0.9924 0.1125 0.62817 0.0
Pr1240 Pr 0.69269 0.33273 0.50041 0.0
Pr1241 Pr 0.6609 0.30541 0.46149 0.0
C1242 C 0.71403 0.35705 0.54625 0.0
C1243 C 0.71748 0.35902 0.58674 0.0
C1244 C 0.72242 0.34111 0.61128 0.0
C1245 C 0.72778 0.34334 0.64891 0.0
C1246 C 0.72807 0.3635 0.66306 0.0
C1247 C 0.72208 0.38129 0.63877 0.0
C1248 C 0.71693 0.37906 0.60091 0.0
C1249 C 0.70851 0.30015 0.46337 0.0
C1250 C 0.67213 0.29161 0.54925 0.0
C1251 C 0.64131 0.28212 0.41118 0.0
C1252 C 0.6445 0.27645 0.37273 0.0
C1253 C 0.62853 0.26902 0.35033 0.0
C1254 C 0.63126 0.26373 0.31383 0.0
C1255 C 0.65008 0.26574 0.29876 0.0
C1256 C 0.66609 0.27324 0.32139 0.0
C1257 C 0.66333 0.27856 0.35793 0.0
C1258 C 0.64462 0.33514 0.50569 0.0
C1259 C 0.68731 0.34037 0.41001 0.0
O1260 O 0.6965 0.36309 0.53033 0.0
O1261 O 0.72113 0.33983 0.53363 0.0
O1262 O 0.69363 0.29844 0.48299 0.0
O1263 O 0.71628 0.31882 0.4636 0.0
O1264 O 0.66373 0.28497 0.518 0.0
O1265 O 0.68259 0.30924 0.54967 0.0
O1266 O 0.65404 0.27391 0.43785 0.0
O1267 O 0.63673 0.30201 0.41497 0.0
O1268 O 0.65921 0.33846 0.4853 0.0
O1269 O 0.63641 0.31715 0.49938 0.0
O1270 O 0.69318 0.34987 0.44028 0.0
O1271 O 0.67671 0.32302 0.41228 0.0
H1272 H 0.72276 0.3254 0.60123 0.0
H1273 H 0.73251 0.32928 0.66647 0.0
H1274 H 0.72172 0.39699 0.64882 0.0
H1275 H 0.71296 0.39305 0.58253 0.0
H1276 H 0.61389 0.26726 0.36112 0.0
H1277 H 0.61864 0.25776 0.29757 0.0
H1278 H 0.68072 0.27528 0.31071 0.0
H1279 H 0.67589 0.28438 0.37459 0.0
C1280 C 0.08871 0.48392 0.22547 0.0
C1281 C 0.08574 0.46202 0.22974 0.0
C1282 C 0.09176 0.49578 0.25673 0.0
C1283 C 0.09194 0.4854 0.29297 0.0
C1284 C 0.089 0.46329 0.29743 0.0
C1285 C 0.08589 0.45188 0.26574 0.0
C1286 C 0.09479 0.51937 0.25104 0.0
C1287 C 0.08912 0.45165 0.33566 0.0
C1288 C 0.11789 0.5091 0.37658 0.0
C1289 C 0.10157 0.51688 0.39417 0.0
C1290 C 0.11502 0.49945 0.34284 0.0
C1291 C 0.09536 0.49754 0.32644 0.0
C1292 C 0.07889 0.50603 0.34337 0.0
C1293 C 0.0822 0.51562 0.37707 0.0
C1294 C 0.13294 0.49057 0.32553 0.0
C1295 C 0.05771 0.5042 0.32671 0.0
H1296 H 0.08853 0.49186 0.19769 0.0
H1297 H 0.08388 0.43494 0.26926 0.0
H1298 H 0.08301 0.52802 0.26437 0.0
H1299 H 0.10942 0.52354 0.2647 0.0
H1300 H 0.09435 0.525 0.22101 0.0
H1301 H 0.08789 0.43424 0.33422 0.0
H1302 H 0.10312 0.45482 0.35251 0.0
H1303 H 0.07643 0.45741 0.35066 0.0
H1304 H 0.13289 0.51027 0.38954 0.0
H1305 H 0.06951 0.52138 0.39081 0.0
H1306 H 0.13284 0.49628 0.29561 0.0
H1307 H 0.13222 0.47302 0.32687 0.0
H1308 H 0.14731 0.49499 0.33997 0.0
H1309 H 0.05666 0.50988 0.29673 0.0
H1310 H 0.0468 0.51339 0.3413 0.0
H1311 H 0.05336 0.48731 0.32846 0.0
C1312 C 0.76383 0.88051 0.74608 0.0
C1313 C 0.74325 0.88283 0.75005 0.0
C1314 C 0.77133 0.88112 0.71061 0.0
C1315 C 0.75789 0.88398 0.67846 0.0
C1316 C 0.73709 0.88625 0.68231 0.0
C1317 C 0.73002 0.88575 0.71812 0.0
C1318 C 0.79362 0.87882 0.70755 0.0
C1319 C 0.72229 0.88905 0.64861 0.0
C1320 C 0.77629 0.90433 0.5853 0.0
C1321 C 0.77752 0.88558 0.56708 0.0
C1322 C 0.77039 0.90398 0.62199 0.0
C1323 C 0.76553 0.88444 0.64069 0.0
C1324 C 0.76734 0.86539 0.62284 0.0
C1325 C 0.77344 0.86618 0.58634 0.0
C1326 C 0.76882 0.92458 0.64037 0.0
C1327 C 0.76237 0.84422 0.64192 0.0
H1328 H 0.77409 0.87849 0.77078 0.0
H1329 H 0.71409 0.88732 0.72119 0.0
H1330 H 0.79689 0.86492 0.69175 0.0
H1331 H 0.79922 0.893 0.6918 0.0
H1332 H 0.80204 0.87681 0.73532 0.0
H1333 H 0.7066 0.89056 0.65645 0.0
H1334 H 0.72585 0.90342 0.63089 0.0
H1335 H 0.72341 0.87531 0.63137 0.0
H1336 H 0.77931 0.91935 0.57046 0.0
H1337 H 0.77478 0.85159 0.57263 0.0
H1338 H 0.77757 0.92341 0.66781 0.0
H1339 H 0.75299 0.92782 0.64569 0.0
H1340 H 0.77429 0.93822 0.62292 0.0
H1341 H 0.7719 0.84117 0.66829 0.0
H1342 H 0.76456 0.83089 0.62407 0.0
H1343 H 0.74658 0.84442 0.64937 0.0
C1344 C 0.41533 0.54457 0.71864 0.0
C1345 C 0.41225 0.53419 0.68561 0.0
C1346 C 0.41301 0.53398 0.75366 0.0
C1347 C 0.40723 0.51252 0.75577 0.0
C1348 C 0.40364 0.50207 0.72253 0.0
C1349 C 0.40623 0.51303 0.68783 0.0
C1350 C 0.41703 0.54571 0.78841 0.0
C1351 C 0.39731 0.47924 0.72366 0.0
C1352 C 0.41989 0.47912 0.84681 0.0
C1353 C 0.40169 0.47961 0.86396 0.0
C1354 C 0.42188 0.48972 0.81159 0.0
C1355 C 0.40523 0.50092 0.79282 0.0
C1356 C 0.38676 0.50126 0.80967 0.0
C1357 C 0.38523 0.49068 0.84505 0.0
C1358 C 0.44188 0.48911 0.79462 0.0
C1359 C 0.36866 0.51301 0.79045 0.0
H1360 H 0.41971 0.56102 0.71728 0.0
H1361 H 0.40379 0.50489 0.66249 0.0
H1362 H 0.40346 0.54588 0.80438 0.0
H1363 H 0.42913 0.53745 0.80683 0.0
H1364 H 0.42152 0.56234 0.78193 0.0
H1365 H 0.39441 0.47364 0.69528 0.0
H1366 H 0.40915 0.46895 0.73906 0.0
H1367 H 0.38353 0.47726 0.73891 0.0
H1368 H 0.43262 0.47037 0.86088 0.0
H1369 H 0.37121 0.49144 0.85823 0.0
H1370 H 0.44741 0.50547 0.78973 0.0
H1371 H 0.44023 0.48228 0.76708 0.0
H1372 H 0.45334 0.47962 0.81274 0.0
H1373 H 0.37189 0.53012 0.78585 0.0
H1374 H 0.35525 0.51131 0.80686 0.0
H1375 H 0.36511 0.50702 0.76258 0.0
C1376 C 0.77588 0.13575 0.09655 0.0
C1377 C 0.77173 0.11955 0.12358 0.0
C1378 C 0.76674 0.1364 0.0602 0.0
C1379 C 0.75358 0.12011 0.05023 0.0
C1380 C 0.75085 0.10266 0.07621 0.0
C1381 C 0.75976 0.1027 0.11271 0.0
C1382 C 0.76998 0.15539 0.03345 0.0
C1383 C 0.7374 0.08467 0.06632 0.0
C1384 C 0.71022 0.13829 0.98179 0.0
C1385 C 0.71716 0.13334 0.9475 0.0
C1386 C 0.72172 0.13352 1.0154 0.0
C1387 C 0.74051 0.12304 1.01499 0.0
C1388 C 0.7471 0.11678 0.98081 0.0
C1389 C 0.73543 0.12222 0.94732 0.0
C1390 C 0.71415 0.14069 0.05112 0.0
C1391 C 0.76676 0.10502 0.97946 0.0
H1392 H 0.7856 0.1485 0.10425 0.0
H1393 H 0.75636 0.09009 0.13321 0.0
H1394 H 0.77384 0.15027 1.00599 0.0
H1395 H 0.75591 0.16499 0.02871 0.0
H1396 H 0.78204 0.16567 0.04422 0.0
H1397 H 0.73984 0.07063 0.08665 0.0
H1398 H 0.72153 0.08994 0.06619 0.0
H1399 H 0.73992 0.07986 0.03795 0.0
H1400 H 0.69609 0.14679 0.9824 0.0
H1401 H 0.74085 0.11821 0.92099 0.0
H1402 H 0.72462 0.15226 0.06309 0.0
H1403 H 0.71353 0.12701 0.07212 0.0
H1404 H 0.69901 0.14825 0.0467 0.0
H1405 H 0.7793 0.11592 0.98469 0.0
H1406 H 0.76828 0.09851 0.95193 0.0
H1407 H 0.76828 0.09181 1.00161 0.0
C1408 C 0.9133 0.54279 0.09659 0.0
C1409 C 0.90795 0.53457 0.13177 0.0
C1410 C 0.90994 0.53149 0.0648 0.0
C1411 C 0.90067 0.51154 0.06798 0.0
C1412 C 0.89455 0.50344 0.10309 0.0
C1413 C 0.89839 0.51499 0.13468 0.0
C1414 C 0.91687 0.54068 0.02801 0.0
C1415 C 0.88419 0.48245 0.10735 0.0
C1416 C 0.87972 0.49217 0.97596 0.0
C1417 C 0.89495 0.47813 0.96762 0.0
C1418 C 0.88096 0.50246 1.00931 0.0
C1419 C 0.89802 0.499 0.03465 0.0
C1420 C 0.91324 0.48455 0.02687 0.0
C1421 C 0.9114 0.47412 0.99374 0.0
C1422 C 0.86431 0.51757 1.01684 0.0
C1423 C 0.93182 0.48066 0.05294 0.0
H1424 H 0.92043 0.55804 0.0938 0.0
H1425 H 0.8941 0.50856 0.16166 0.0
H1426 H 0.92889 0.53038 1.019 0.0
H1427 H 0.9044 0.54123 1.00599 0.0
H1428 H 0.9227 0.55696 0.02982 0.0
H1429 H 0.87921 0.47902 0.13595 0.0
H1430 H 0.87097 0.48234 0.08699 0.0
H1431 H 0.89448 0.46948 0.10118 0.0
H1432 H 0.86706 0.49566 0.95594 0.0
H1433 H 0.92304 0.46296 0.98814 0.0
H1434 H 0.86984 0.53404 1.0156 0.0
H1435 H 0.85932 0.51388 0.04533 0.0
H1436 H 0.85119 0.5169 0.99632 0.0
H1437 H 0.94016 0.49562 0.05488 0.0
H1438 H 0.94197 0.46842 0.04347 0.0
H1439 H 0.92767 0.47553 0.08148 0.0
C1440 C 0.23358 0.11865 0.77127 0.0
C1441 C 0.24799 0.11758 0.80151 0.0
C1442 C 0.23915 0.11699 0.7348 0.0
C1443 C 0.25961 0.11412 0.72856 0.0
C1444 C 0.27421 0.11266 0.75904 0.0
C1445 C 0.26821 0.11447 0.79524 0.0
C1446 C 0.22319 0.11879 0.70287 0.0
C1447 C 0.29614 0.1095 0.75334 0.0
C1448 C 0.27011 0.09409 0.63507 0.0
C1449 C 0.27378 0.11307 0.61426 0.0
C1450 C 0.26612 0.09407 0.67281 0.0
C1451 C 0.26571 0.11351 0.68987 0.0
C1452 C 0.27002 0.13263 0.66929 0.0
C1453 C 0.27399 0.13217 0.6317 0.0
C1454 C 0.26178 0.07338 0.69411 0.0
C1455 C 0.26967 0.15369 0.6865 0.0
H1456 H 0.21797 0.12131 0.77605 0.0
H1457 H 0.27934 0.11341 0.81869 0.0
H1458 H 0.22594 0.13284 0.68368 0.0
H1459 H 0.22378 0.10464 0.6865 0.0
H1460 H 0.2079 0.12035 0.71263 0.0
H1461 H 0.30549 0.10779 0.78018 0.0
H1462 H 0.29838 0.09517 0.73801 0.0
H1463 H 0.30154 0.12321 0.73602 0.0
H1464 H 0.27015 0.07929 0.62169 0.0
H1465 H 0.27652 0.14691 0.61556 0.0
H1466 H 0.24606 0.07355 0.70199 0.0
H1467 H 0.27154 0.07131 0.72037 0.0
H1468 H 0.26406 0.05952 0.67753 0.0
H1469 H 0.25424 0.15741 0.69379 0.0
H1470 H 0.27466 0.16687 0.66738 0.0
H1471 H 0.27945 0.15293 0.71275 0.0
C1472 C 0.57995 0.502 0.48683 0.0
C1473 C 0.59873 0.50206 0.47168 0.0
C1474 C 0.57754 0.49291 0.523 0.0
C1475 C 0.59433 0.4838 0.54477 0.0
C1476 C 0.61343 0.48439 0.53018 0.0
C1477 C 0.61539 0.49345 0.49379 0.0
C1478 C 0.55689 0.4925 0.53748 0.0
C1479 C 0.63171 0.47489 0.55261 0.0
C1480 C 0.58995 0.47254 0.64938 0.0
C1481 C 0.58591 0.45081 0.65174 0.0
C1482 C 0.59292 0.4835 0.61479 0.0
C1483 C 0.59168 0.47248 0.58185 0.0
C1484 C 0.58765 0.45054 0.58413 0.0
C1485 C 0.58492 0.43999 0.61897 0.0
C1486 C 0.5973 0.50687 0.61346 0.0
C1487 C 0.58605 0.43818 0.54972 0.0
H1488 H 0.56706 0.50899 0.47028 0.0
H1489 H 0.62991 0.49324 0.48227 0.0
H1490 H 0.55215 0.47584 0.54229 0.0
H1491 H 0.55709 0.49966 0.56472 0.0
H1492 H 0.54555 0.50113 0.51778 0.0
H1493 H 0.64569 0.4781 0.53848 0.0
H1494 H 0.63313 0.4813 0.58053 0.0
H1495 H 0.63012 0.45747 0.55716 0.0
H1496 H 0.59069 0.48103 0.67449 0.0
H1497 H 0.5819 0.42317 0.62037 0.0
H1498 H 0.58541 0.51593 0.59575 0.0
H1499 H 0.61165 0.50991 0.60054 0.0
H1500 H 0.59822 0.51301 0.64164 0.0
H1501 H 0.57444 0.44554 0.52908 0.0
H1502 H 0.5822 0.42135 0.55618 0.0
H1503 H 0.60047 0.43861 0.53628 0.0
C1504 C 0.29446 0.82824 0.35353 0.0
C1505 C 0.2894 0.83925 0.38412 0.0
C1506 C 0.28397 0.83184 0.31852 0.0
C1507 C 0.26819 0.84713 0.31362 0.0
C1508 C 0.26317 0.85856 0.34419 0.0
C1509 C 0.27372 0.85433 0.37924 0.0
C1510 C 0.28962 0.81901 0.2869 0.0
C1511 C 0.24661 0.87517 0.33988 0.0
C1512 C 0.25601 0.86722 0.21246 0.0
C1513 C 0.23941 0.85507 0.20257 0.0
C1514 C 0.26486 0.86563 0.2491 0.0
C1515 C 0.2572 0.85116 0.27625 0.0
C1516 C 0.24004 0.8393 0.26663 0.0
C1517 C 0.23122 0.84157 0.22989 0.0
C1518 C 0.28292 0.87879 0.25834 0.0
C1519 C 0.2317 0.82333 0.29446 0.0
H1520 H 0.3063 0.81627 0.35712 0.0
H1521 H 0.26969 0.86283 0.40278 0.0
H1522 H 0.27647 0.81021 0.27627 0.0
H1523 H 0.29429 0.82971 0.26338 0.0
H1524 H 0.30202 0.80745 0.29556 0.0
H1525 H 0.24484 0.883 0.36611 0.0
H1526 H 0.24972 0.88745 0.31748 0.0
H1527 H 0.23223 0.86784 0.33133 0.0
H1528 H 0.26228 0.8777 0.19125 0.0
H1529 H 0.21851 0.83201 0.22205 0.0
H1530 H 0.29637 0.86831 0.26398 0.0
H1531 H 0.28089 0.88706 0.28399 0.0
H1532 H 0.28576 0.89078 0.23525 0.0
H1533 H 0.24243 0.80978 0.30043 0.0
H1534 H 0.2171 0.81713 0.28396 0.0
H1535 H 0.22975 0.83043 0.32127 0.0
C1536 C 0.62506 0.01765 0.87313 0.0
C1537 C 0.60736 0.02386 0.88839 0.0
C1538 C 0.62448 0.00735 0.83989 0.0
C1539 C 0.60578 0.00349 0.82115 0.0
C1540 C 0.58789 0.01064 0.83533 0.0
C1541 C 0.58889 0.02061 0.86892 0.0
C1542 C 0.64385 -0.00012 0.82561 0.0
C1543 C 0.56765 0.00692 0.8159 0.0
C1544 C 0.60309 0.9884 0.72077 0.0
C1545 C 0.60042 0.96647 0.72568 0.0
C1546 C 0.6052 0.00068 0.75168 0.0
C1547 C 0.60478 0.9907 0.78815 0.0
C1548 C 0.60273 0.96845 0.79322 0.0
C1549 C 0.6006 0.95661 0.7619 0.0
C1550 C 0.60707 0.0244 0.74526 0.0
C1551 C 0.60232 0.95719 0.83168 0.0
H1552 H 0.6394 0.02047 0.88759 0.0
H1553 H 0.57511 0.02509 0.88065 0.0
H1554 H 0.64432 0.9823 0.82681 0.0
H1555 H 0.64476 0.00574 0.79596 0.0
H1556 H 0.65719 0.00528 0.84215 0.0
H1557 H 0.55535 0.01514 0.82861 0.0
H1558 H 0.56743 0.01246 0.78589 0.0
H1559 H 0.56464 0.98968 0.81744 0.0
H1560 H 0.60273 -0.00392 0.69278 0.0
H1561 H 0.59872 0.93961 0.76579 0.0
H1562 H 0.62028 0.02989 0.76197 0.0
H1563 H 0.59367 0.03239 0.75469 0.0
H1564 H 0.6085 0.02953 0.71538 0.0
H1565 H 0.61651 0.95988 0.84833 0.0
H1566 H 0.60028 0.93984 0.83067 0.0
H1567 H 0.58995 0.96371 0.84661 0.0
C1568 C 0.25381 0.39776 0.06903 0.0
C1569 C 0.27325 0.38976 0.06597 0.0
C1570 C 0.24558 0.39785 0.10385 0.0
C1571 C 0.25692 0.38943 0.13635 0.0
C1572 C 0.27661 0.38156 0.13358 0.0
C1573 C 0.28459 0.382 0.09852 0.0
C1574 C 0.22461 0.40661 0.10577 0.0
C1575 C 0.28913 0.37231 0.1676 0.0
C1576 C 0.24437 0.40321 0.23305 0.0
C1577 C 0.23423 0.3851 0.24582 0.0
C1578 C 0.25121 0.40517 0.19699 0.0
C1579 C 0.24814 0.38847 0.17328 0.0
C1580 C 0.23747 0.3704 0.18553 0.0
C1581 C 0.23048 0.36903 0.2215 0.0
C1582 C 0.26227 0.42483 0.1847 0.0
C1583 C 0.23398 0.3522 0.16112 0.0
H1584 H 0.24477 0.40347 0.04407 0.0
H1585 H 0.29973 0.37612 0.09661 0.0
H1586 H 0.2147 0.39381 0.11572 0.0
H1587 H 0.22459 0.41894 0.12614 0.0
H1588 H 0.21819 0.41364 0.07823 0.0
H1589 H 0.30417 0.36683 0.16068 0.0
H1590 H 0.29106 0.3843 0.18848 0.0
H1591 H 0.28138 0.35867 0.18095 0.0
H1592 H 0.24761 0.41561 0.25168 0.0
H1593 H 0.22233 0.35516 0.23077 0.0
H1594 H 0.25563 0.43176 0.15731 0.0
H1595 H 0.27811 0.42061 0.18102 0.0
H1596 H 0.26197 0.43709 0.20522 0.0
H1597 H 0.22628 0.35799 0.13391 0.0
H1598 H 0.22486 0.33958 0.17434 0.0
H1599 H 0.24857 0.34512 0.15519 0.0
C1600 C 0.92223 0.04266 0.21511 0.0
C1601 C 0.92021 0.03274 0.18144 0.0
C1602 C 0.91945 0.03145 0.2494 0.0
C1603 C 0.91435 0.00978 0.25014 0.0
C1604 C 0.91245 -0.00039 0.21634 0.0
C1605 C 0.91547 0.01119 0.18241 0.0
C1606 C 0.92179 0.04289 0.28479 0.0
C1607 C 0.90693 0.97657 0.21596 0.0
C1608 C 0.92272 0.97649 0.34251 0.0
C1609 C 0.90365 0.97716 0.35645 0.0
C1610 C 0.92639 0.98686 0.30783 0.0
C1611 C 0.91056 -0.00205 0.28624 0.0
C1612 C 0.89117 -0.00178 0.2996 0.0
C1613 C 0.88798 0.98794 0.33458 0.0
C1614 C 0.94731 0.98633 0.29465 0.0
C1615 C 0.87386 0.00975 0.27727 0.0
H1616 H 0.92578 0.05933 0.21477 0.0
H1617 H 0.91399 0.00334 0.15661 0.0
H1618 H 0.90732 0.04322 0.29801 0.0
H1619 H 0.93285 0.03432 0.3051 0.0
H1620 H 0.92675 0.05947 0.27957 0.0
H1621 H 0.90642 0.97089 0.18743 0.0
H1622 H 0.91789 0.96657 0.23426 0.0
H1623 H 0.89205 0.97423 0.22725 0.0
H1624 H 0.93487 0.96791 0.35881 0.0
H1625 H 0.87327 0.98884 0.34522 0.0
H1626 H 0.95299 0.0027 0.29118 0.0
H1627 H 0.94715 0.97969 0.26696 0.0
H1628 H 0.95791 0.97672 0.31445 0.0
H1629 H 0.87678 0.027 0.27447 0.0
H1630 H 0.85947 0.00735 0.29045 0.0
H1631 H 0.87229 0.00426 0.24865 0.0
C1632 C 0.23659 0.66305 0.44822 0.0
C1633 C 0.21826 0.67428 0.44458 0.0
C1634 C 0.24732 0.65948 0.48312 0.0
C1635 C 0.23965 0.66754 0.51505 0.0
C1636 C 0.22172 0.67987 0.51117 0.0
C1637 C 0.21121 0.68301 0.47605 0.0
C1638 C 0.26634 0.64618 0.48614 0.0
C1639 C 0.21317 0.68903 0.54438 0.0
C1640 C 0.25157 0.63883 0.61064 0.0
C1641 C 0.26627 0.65167 0.62658 0.0
C1642 C 0.2432 0.64355 0.57406 0.0
C1643 C 0.24947 0.66172 0.55291 0.0
C1644 C 0.26453 0.67457 0.56845 0.0
C1645 C 0.27286 0.6693 0.60496 0.0
C1646 C 0.22723 0.62938 0.55842 0.0
C1647 C 0.27146 0.69419 0.54688 0.0
H1648 H 0.24221 0.6563 0.42408 0.0
H1649 H 0.19718 0.69193 0.47351 0.0
H1650 H 0.27861 0.65437 0.50123 0.0
H1651 H 0.26394 0.63098 0.50252 0.0
H1652 H 0.2712 0.64262 0.45834 0.0
H1653 H 0.20828 0.676 0.56383 0.0
H1654 H 0.22478 0.69791 0.55991 0.0
H1655 H 0.20013 0.69983 0.5361 0.0
H1656 H 0.24607 0.62541 0.62715 0.0
H1657 H 0.28441 0.67915 0.6167 0.0
H1658 H 0.23134 0.62404 0.53123 0.0
H1659 H 0.21284 0.63838 0.5532 0.0
H1660 H 0.22486 0.61519 0.57759 0.0
H1661 H 0.27666 0.6901 0.51967 0.0
H1662 H 0.28378 0.70211 0.56244 0.0
H1663 H 0.25875 0.70565 0.54073 0.0
C1664 C 0.40073 0.01064 0.63356 0.0
C1665 C 0.41601 0.02552 0.63452 0.0
C1666 C 0.39658 -0.00061 0.60186 0.0
C1667 C 0.40832 0.00277 0.57081 0.0
C1668 C 0.42419 0.01731 0.57214 0.0
C1669 C 0.4277 0.02871 0.60385 0.0
C1670 C 0.37917 0.98448 0.60103 0.0
C1671 C 0.43727 0.02112 0.53986 0.0
C1672 C 0.40813 0.96118 0.49999 0.0
C1673 C 0.39606 0.97104 0.46993 0.0
C1674 C 0.41227 0.97133 0.53295 0.0
C1675 C 0.40363 0.99154 0.53651 0.0
C1676 C 0.39077 0.00122 0.50704 0.0
C1677 C 0.38737 0.991 0.47396 0.0
C1678 C 0.42632 0.96067 0.56355 0.0
C1679 C 0.38107 0.02268 0.50989 0.0
H1680 H 0.39148 0.00839 0.65703 0.0
H1681 H 0.43955 0.04021 0.60455 0.0
H1682 H 0.3679 0.9901 0.57823 0.0
H1683 H 0.38427 0.96841 0.59504 0.0
H1684 H 0.37178 0.98328 0.62779 0.0
H1685 H 0.45002 0.03155 0.54665 0.0
H1686 H 0.44327 0.00583 0.53168 0.0
H1687 H 0.42824 0.02867 0.51529 0.0
H1688 H 0.4146 0.94559 0.49763 0.0
H1689 H 0.37835 -0.00098 0.45084 0.0
H1690 H 0.41866 0.95844 0.58987 0.0
H1691 H 0.43936 0.97091 0.56907 0.0
H1692 H 0.43192 0.94498 0.55631 0.0
H1693 H 0.37452 0.02349 0.53725 0.0
H1694 H 0.36912 0.02644 0.4873 0.0
H1695 H 0.39257 0.03508 0.50784 0.0
C1696 C 0.78575 0.59169 0.13608 0.0
C1697 C 0.771 0.58972 0.107 0.0
C1698 C 0.78071 0.59307 0.17299 0.0
C1699 C 0.76037 0.59209 0.18123 0.0
C1700 C 0.74546 0.58894 0.15233 0.0
C1701 C 0.75095 0.58786 0.11548 0.0
C1702 C 0.7971 0.59643 0.20286 0.0
C1703 C 0.72364 0.58757 0.16009 0.0
C1704 C 0.74987 0.58204 0.28357 0.0
C1705 C 0.74591 0.60264 0.2936 0.0
C1706 C 0.75416 0.57828 0.24692 0.0
C1707 C 0.7547 0.59555 0.21966 0.0
C1708 C 0.75055 0.61635 0.22946 0.0
C1709 C 0.74609 0.61962 0.26618 0.0
C1710 C 0.75842 0.55587 0.23751 0.0
C1711 C 0.75108 0.63522 0.20127 0.0
H1712 H 0.8013 0.59256 0.12979 0.0
H1713 H 0.73947 0.58641 0.0931 0.0
H1714 H 0.79491 0.61212 0.21402 0.0
H1715 H 0.79643 0.58424 0.22652 0.0
H1716 H 0.81225 0.59579 0.19216 0.0
H1717 H 0.71414 0.58328 0.13534 0.0
H1718 H 0.72165 0.57564 0.18367 0.0
H1719 H 0.71826 0.60307 0.16845 0.0
H1720 H 0.75001 0.56883 0.30457 0.0
H1721 H 0.74266 0.63554 0.27336 0.0
H1722 H 0.77405 0.55444 0.22947 0.0
H1723 H 0.74845 0.55187 0.21321 0.0
H1724 H 0.75634 0.54407 0.2613 0.0
H1725 H 0.76624 0.63655 0.1908 0.0
H1726 H 0.7472 0.65033 0.2132 0.0
H1727 H 0.74044 0.63305 0.17687 0.0
C1728 C 0.08453 0.93585 0.11707 0.0
C1729 C 0.08612 0.9472 0.1492 0.0
C1730 C 0.08737 0.94574 0.08173 0.0
C1731 C 0.09216 0.96747 0.07839 0.0
C1732 C 0.0942 0.97894 0.11075 0.0
C1733 C 0.09116 0.96866 0.14583 0.0
C1734 C 0.08511 0.93291 0.04795 0.0
C1735 C 0.09923 0.00216 0.10822 0.0
C1736 C 0.11542 0.98779 0.98951 0.0
C1737 C 0.09878 -0.00308 0.96801 0.0
C1738 C 0.11356 0.97842 0.0257 0.0
C1739 C 0.09461 0.97824 0.04084 0.0
C1740 C 0.07779 0.98764 0.01953 0.0
C1741 C 0.08007 -0.00318 0.98338 0.0
C1742 C 0.13182 0.96852 0.04761 0.0
C1743 C 0.05728 0.98755 0.03459 0.0
H1744 H 0.08094 0.91918 0.11942 0.0
H1745 H 0.09236 0.97754 0.17048 0.0
H1746 H 0.07456 0.94101 0.02613 0.0
H1747 H 0.09978 0.93144 0.03577 0.0
H1748 H 0.07954 0.91676 0.05487 0.0
H1749 H 0.10104 0.00861 0.13612 0.0
H1750 H 0.11327 0.00464 0.09399 0.0
H1751 H 0.08719 0.01138 0.09118 0.0
H1752 H 0.12998 0.98805 0.97808 0.0
H1753 H 0.06705 0.00352 0.96681 0.0
H1754 H 0.12948 0.95135 0.05405 0.0
H1755 H 0.13422 0.97578 0.07466 0.0
H1756 H 0.14557 0.97044 0.03222 0.0
H1757 H 0.05236 0.97097 0.03973 0.0
H1758 H 0.04589 -0.00373 1.01511 0.0
H1759 H 0.05782 0.99482 0.06176 0.0
C1760 C 0.74843 0.3829 0.71054 0.0
C1761 C 0.73604 0.3659 0.7022 0.0
C1762 C 0.75811 0.38391 0.74623 0.0
C1763 C 0.75568 0.36731 0.77401 0.0
C1764 C 0.74254 0.35059 0.76634 0.0
C1765 C 0.73269 0.35025 0.73071 0.0
C1766 C 0.77172 0.40218 0.7536 0.0
C1767 C 0.73965 0.33247 0.79517 0.0
C1768 C 0.79721 0.35179 0.84803 0.0
C1769 C 0.78894 0.35787 0.88048 0.0
C1770 C 0.78691 0.3556 0.81292 0.0
C1771 C 0.7681 0.36629 0.81 0.0
C1772 C 0.76051 0.37418 0.84213 0.0
C1773 C 0.77096 0.36974 0.87713 0.0
C1774 C 0.79551 0.34673 0.77947 0.0
C1775 C 0.74077 0.38617 0.83992 0.0
H1776 H 0.75133 0.39499 0.68875 0.0
H1777 H 0.72276 0.33733 0.7249 0.0
H1778 H 0.76876 0.40868 0.78054 0.0
H1779 H 0.78754 0.39652 0.75579 0.0
H1780 H 0.76988 0.41517 0.73102 0.0
H1781 H 0.7283 0.32113 0.78529 0.0
H1782 H 0.75405 0.32372 0.80212 0.0
H1783 H 0.73494 0.33863 0.82133 0.0
H1784 H 0.81123 0.3429 0.85019 0.0
H1785 H 0.76452 0.37466 0.90199 0.0
H1786 H 0.79538 0.359 0.7558 0.0
H1787 H 0.78613 0.33352 0.77018 0.0
H1788 H 0.81111 0.34061 0.78581 0.0
H1789 H 0.73984 0.39838 0.81605 0.0
H1790 H 0.73849 0.394 0.86597 0.0
H1791 H 0.72835 0.37504 0.83518 0.0
C1792 C 0.16118 0.36602 0.37152 0.0
C1793 C 0.14739 0.3625 0.39901 0.0
C1794 C 0.15501 0.37248 0.33372 0.0
C1795 C 0.13444 0.37664 0.32264 0.0
C1796 C 0.1205 0.37382 0.35059 0.0
C1797 C 0.12702 0.36632 0.38773 0.0
C1798 C 0.17068 0.37449 0.30557 0.0
C1799 C 0.09858 0.37874 0.34128 0.0
C1800 C 0.12264 0.41391 0.23353 0.0
C1801 C 0.11591 0.4002 0.20628 0.0
C1802 C 0.12808 0.40659 0.27106 0.0
C1803 C 0.12764 0.38466 0.28244 0.0
C1804 C 0.12096 0.3706 0.2551 0.0
C1805 C 0.11492 0.37851 0.21775 0.0
C1806 C 0.13433 0.42252 0.29864 0.0
C1807 C 0.12056 0.34707 0.26517 0.0
H1808 H 0.17681 0.36273 0.37886 0.0
H1809 H 0.11604 0.36337 0.40817 0.0
H1810 H 0.16514 0.36858 0.27854 0.0
H1811 H 0.17441 0.39143 0.30036 0.0
H1812 H 0.18463 0.36556 0.3157 0.0
H1813 H 0.0899 0.37811 0.36653 0.0
H1814 H 0.09667 0.39477 0.32661 0.0
H1815 H 0.09222 0.36725 0.32209 0.0
H1816 H 0.12348 0.43072 0.22563 0.0
H1817 H 0.1099 0.36763 0.19733 0.0
H1818 H 0.15036 0.41995 0.30799 0.0
H1819 H 0.12563 0.42037 0.32375 0.0
H1820 H 0.13214 0.43913 0.28653 0.0
H1821 H 0.1354 0.34139 0.27805 0.0
H1822 H 0.11663 0.33801 0.24049 0.0
H1823 H 0.10946 0.34362 0.28615 0.0
C1824 C 0.9127 0.86217 0.51869 0.0
C1825 C 0.90444 0.87284 0.54694 0.0
C1826 C 0.9007 0.85592 0.48808 0.0
C1827 C 0.87982 0.8601 0.48586 0.0
C1828 C 0.87137 0.87104 0.51417 0.0
C1829 C 0.88382 0.87738 0.54435 0.0
C1830 C 0.91036 0.84441 0.45846 0.0
C1831 C 0.84914 0.87554 0.51312 0.0
C1832 C 0.85107 0.85317 0.39211 0.0
C1833 C 0.84478 0.83221 0.3975 0.0
C1834 C 0.86219 0.86275 0.42089 0.0
C1835 C 0.86679 0.85113 0.45582 0.0
C1836 C 0.86 0.83016 0.46148 0.0
C1837 C 0.84943 0.8209 0.43217 0.0
C1838 C 0.86914 0.8852 0.41395 0.0
C1839 C 0.86403 0.81735 0.49847 0.0
H1840 H 0.92868 0.85887 0.52027 0.0
H1841 H 0.87742 0.88573 0.56609 0.0
H1842 H 0.90495 0.82791 0.45874 0.0
H1843 H 0.90608 0.85224 0.43037 0.0
H1844 H 0.92696 0.84387 0.46275 0.0
H1845 H 0.8453 0.88678 0.53394 0.0
H1846 H 0.84347 0.88216 0.48492 0.0
H1847 H 0.84119 0.86052 0.51907 0.0
H1848 H 0.84737 0.86198 0.36547 0.0
H1849 H 0.84445 0.80476 0.43681 0.0
H1850 H 0.88574 0.88549 0.41677 0.0
H1851 H 0.86361 0.89525 0.4352 0.0
H1852 H 0.86389 0.89229 0.38574 0.0
H1853 H 0.88038 0.81463 0.50434 0.0
H1854 H 0.85664 0.80172 0.49898 0.0
H1855 H 0.85862 0.82618 0.52143 0.0
C1856 C 0.38169 0.63032 0.79473 0.0
C1857 C 0.36218 0.63783 0.79878 0.0
C1858 C 0.38702 0.62211 0.76117 0.0
C1859 C 0.37268 0.62199 0.73017 0.0
C1860 C 0.35307 0.62995 0.73398 0.0
C1861 C 0.34811 0.63766 0.76808 0.0
C1862 C 0.40809 0.61381 0.75876 0.0
C1863 C 0.33725 0.63052 0.70189 0.0
C1864 C 0.39011 0.61679 0.63119 0.0
C1865 C 0.3866 0.59535 0.62606 0.0
C1866 C 0.38576 0.6257 0.66483 0.0
C1867 C 0.37789 0.61287 0.69432 0.0
C1868 C 0.37449 0.5912 0.68923 0.0
C1869 C 0.37854 0.58289 0.65525 0.0
C1870 C 0.38957 0.64889 0.66881 0.0
C1871 C 0.36672 0.57663 0.7199 0.0
H1872 H 0.39286 0.63097 0.81789 0.0
H1873 H 0.33342 0.64446 0.76999 0.0
H1874 H 0.40788 0.59762 0.74882 0.0
H1875 H 0.41577 0.62407 0.73812 0.0
H1876 H 0.41698 0.61334 0.78606 0.0
H1877 H 0.34323 0.63761 0.6759 0.0
H1878 H 0.33279 0.61411 0.69679 0.0
H1879 H 0.32369 0.63974 0.70748 0.0
H1880 H 0.39619 0.6266 0.60888 0.0
H1881 H 0.37576 0.56628 0.65194 0.0
H1882 H 0.40074 0.65067 0.69255 0.0
H1883 H 0.37558 0.65708 0.67514 0.0
H1884 H 0.39519 0.6569 0.64316 0.0
H1885 H 0.37685 0.57674 0.74563 0.0
H1886 H 0.36546 0.56001 0.71208 0.0
H1887 H 0.35177 0.58233 0.72674 0.0
C1888 C 0.64819 0.11163 0.90881 0.0
C1889 C 0.64701 0.1309 0.88682 0.0
C1890 C 0.63656 0.10819 0.93968 0.0
C1891 C 0.62391 0.12474 0.94962 0.0
C1892 C 0.62254 0.14415 0.92714 0.0
C1893 C 0.63348 0.14663 0.89522 0.0
C1894 C 0.63853 0.08688 0.96157 0.0
C1895 C 0.61043 0.16278 0.93795 0.0
C1896 C 0.57982 0.11545 1.00947 0.0
C1897 C 0.58859 0.11694 0.04567 0.0
C1898 C 0.59134 0.11685 0.97833 0.0
C1899 C 0.61185 0.12186 0.98299 0.0
C1900 C 0.62068 0.12421 0.01945 0.0
C1901 C 0.60905 0.12107 0.05054 0.0
C1902 C 0.58162 0.11235 0.94063 0.0
C1903 C 0.6424 0.1299 0.02559 0.0
H1904 H 0.65848 0.09925 0.90234 0.0
H1905 H 0.63208 0.1613 0.87761 0.0
H1906 H 0.65387 0.085 0.97533 0.0
H1907 H 0.62764 0.08464 0.98322 0.0
H1908 H 0.63662 0.07405 0.94223 0.0
H1909 H 0.61137 0.17696 0.91805 0.0
H1910 H 0.59447 0.15861 0.93932 0.0
H1911 H 0.61594 0.16701 0.96621 0.0
H1912 H 0.56399 0.11249 1.00552 0.0
H1913 H 0.61585 0.1222 0.07854 0.0
H1914 H 0.59117 0.10122 0.92686 0.0
H1915 H 0.57995 0.12721 0.92225 0.0
H1916 H 0.56658 0.10537 0.94286 0.0
H1917 H 0.65202 0.11647 1.01894 0.0
H1918 H 0.64639 0.13356 0.05487 0.0
H1919 H 0.64581 0.14383 1.00661 0.0
C1920 C 0.11618 0.60635 0.55826 0.0
C1921 C 0.09803 0.61758 0.55792 0.0
C1922 C 0.12861 0.60918 0.52839 0.0
C1923 C 0.12374 0.62525 0.49927 0.0
C1924 C 0.10654 0.63841 0.5015 0.0
C1925 C 0.09371 0.63406 0.53023 0.0
C1926 C 0.14647 0.59435 0.52809 0.0
C1927 C 0.1009 0.65692 0.47359 0.0
C1928 C 0.16637 0.63838 0.43673 0.0
C1929 C 0.15741 0.63511 0.40135 0.0
C1930 C 0.15565 0.63569 0.46883 0.0
C1931 C 0.13592 0.6277 0.46589 0.0
C1932 C 0.12759 0.62242 0.43036 0.0
C1933 C 0.13809 0.6271 0.39832 0.0
C1934 C 0.16574 0.64188 0.50521 0.0
C1935 C 0.10755 0.6119 0.42577 0.0
H1936 H 0.12016 0.59443 0.58086 0.0
H1937 H 0.08001 0.64337 0.5304 0.0
H1938 H 0.15114 0.59249 0.49953 0.0
H1939 H 0.15919 0.60056 0.54516 0.0
H1940 H 0.14329 0.57839 0.54107 0.0
H1941 H 0.09888 0.67141 0.48866 0.0
H1942 H 0.11203 0.6602 0.45267 0.0
H1943 H 0.08624 0.65393 0.45875 0.0
H1944 H 0.1816 0.64384 0.4393 0.0
H1945 H 0.13138 0.62403 0.371 0.0
H1946 H 0.17675 0.62928 0.51619 0.0
H1947 H 0.15507 0.64448 0.52671 0.0
H1948 H 0.17434 0.65661 0.50047 0.0
H1949 H 0.10669 0.60235 0.40101 0.0
H1950 H 0.09553 0.62423 0.42134 0.0
H1951 H 0.1046 0.60136 0.45078 0.0
C1952 C 0.60538 0.89372 0.72945 0.0
C1953 C 0.61933 0.89839 0.70274 0.0
C1954 C 0.61127 0.8868 0.76718 0.0
C1955 C 0.63189 0.88405 0.77937 0.0
C1956 C 0.64612 0.88825 0.75232 0.0
C1957 C 0.63975 0.8957 0.71499 0.0
C1958 C 0.59521 0.88345 0.79429 0.0
C1959 C 0.66821 0.88496 0.76279 0.0
C1960 C 0.64925 0.88209 0.88553 0.0
C1961 C 0.64834 0.86033 0.89662 0.0
C1962 C 0.64392 0.89011 0.8479 0.0
C1963 C 0.63837 0.87606 0.81978 0.0
C1964 C 0.63824 0.85406 0.83079 0.0
C1965 C 0.64249 0.8467 0.86867 0.0
C1966 C 0.6442 0.91372 0.83851 0.0
C1967 C 0.63341 0.8381 0.80244 0.0
H1968 H 0.58976 0.89654 0.72148 0.0
H1969 H 0.65088 0.89949 0.69519 0.0
H1970 H 0.59897 0.87018 0.81557 0.0
H1971 H 0.59356 0.89806 0.80917 0.0
H1972 H 0.58059 0.88015 0.77964 0.0
H1973 H 0.67721 0.88623 0.73797 0.0
H1974 H 0.67338 0.89705 0.78187 0.0
H1975 H 0.67113 0.86915 0.77789 0.0
H1976 H 0.65352 0.89296 0.90645 0.0
H1977 H 0.64138 0.8299 0.87633 0.0
H1978 H 0.6319 0.91899 0.81745 0.0
H1979 H 0.65859 0.91791 0.82663 0.0
H1980 H 0.64288 0.92263 0.86373 0.0
H1981 H 0.61766 0.84038 0.79096 0.0
H1982 H 0.6355 0.82149 0.81459 0.0
H1983 H 0.64311 0.84054 0.77876 0.0
C1984 C 0.41538 0.3648 0.01949 0.0
C1985 C 0.40674 0.37257 0.05024 0.0
C1986 C 0.40362 0.36032 0.98741 0.0
C1987 C 0.38257 0.36319 0.98629 0.0
C1988 C 0.37375 0.3715 1.01697 0.0
C1989 C 0.38601 0.37629 0.04856 0.0
C1990 C 0.4137 0.35179 0.95521 0.0
C1991 C 0.35135 0.37448 1.01709 0.0
C1992 C 0.35428 0.35861 0.89138 0.0
C1993 C 0.34997 0.33697 0.8935 0.0
C1994 C 0.36442 0.36771 0.92183 0.0
C1995 C 0.36994 0.35487 0.95511 0.0
C1996 C 0.36499 0.33319 0.95757 0.0
C1997 C 0.3555 0.32448 0.92659 0.0
C1998 C 0.36954 0.39089 0.91824 0.0
C1999 C 0.37007 0.31897 0.99272 0.0
H2000 H 0.43146 0.36233 0.02035 0.0
H2001 H 0.37936 0.38251 0.07222 0.0
H2002 H 0.4097 0.33495 0.95288 0.0
H2003 H 0.40842 0.3607 0.92854 0.0
H2004 H 0.43027 0.35273 0.95873 0.0
H2005 H 0.34706 0.38362 0.0406 0.0
H2006 H 0.34517 0.38277 0.99043 0.0
H2007 H 0.34425 0.35875 0.01963 0.0
H2008 H 0.34994 0.3683 0.8659 0.0
H2009 H 0.35215 0.30774 0.92862 0.0
H2010 H 0.38604 0.39258 0.92033 0.0
H2011 H 0.36364 0.3991 0.94149 0.0
H2012 H 0.36337 0.39895 0.89132 0.0
H2013 H 0.38656 0.31719 0.99771 0.0
H2014 H 0.36363 0.30294 0.9911 0.0
H2015 H 0.36438 0.32614 1.01724 0.0
C2016 C 0.84622 0.1362 0.26511 0.0
C2017 C 0.86036 0.14038 0.2941 0.0
C2018 C 0.85195 0.12792 0.23195 0.0
C2019 C 0.87242 0.12325 0.22758 0.0
C2020 C 0.88682 0.12739 0.25689 0.0
C2021 C 0.88066 0.1362 0.28938 0.0
C2022 C 0.83592 0.12422 0.20166 0.0
C2023 C 0.90878 0.12264 0.25381 0.0
C2024 C 0.88335 0.0824 0.15787 0.0
C2025 C 0.8884 0.09505 0.1262 0.0
C2026 C 0.8787 0.09129 0.19105 0.0
C2027 C 0.87857 0.11359 0.19283 0.0
C2028 C 0.88345 0.12653 0.1608 0.0
C2029 C 0.8883 0.11713 0.12794 0.0
C2030 C 0.87381 0.07672 0.22421 0.0
C2031 C 0.88322 0.15035 0.16109 0.0
H2032 H 0.83071 0.1403 0.26747 0.0
H2033 H 0.89177 0.13984 0.31122 0.0
H2034 H 0.83151 0.10737 0.20438 0.0
H2035 H 0.82244 0.13429 0.20394 0.0
H2036 H 0.84125 0.12758 0.17336 0.0
H2037 H 0.9111 0.10558 0.24974 0.0
H2038 H 0.91411 0.13176 0.229 0.0
H2039 H 0.91813 0.12661 0.27896 0.0
H2040 H 0.88328 0.06531 0.15696 0.0
H2041 H 0.89199 0.12704 0.10359 0.0
H2042 H 0.85827 0.07998 0.23139 0.0
H2043 H 0.88394 0.07973 0.24892 0.0
H2044 H 0.87526 0.05971 0.21887 0.0
H2045 H 0.86796 0.15609 0.16603 0.0
H2046 H 0.88774 0.15823 0.13443 0.0
H2047 H 0.89349 0.15523 0.18431 0.0
C2048 C 0.86542 0.60484 0.1477 0.0
C2049 C 0.88597 0.60172 0.1581 0.0
C2050 C 0.8583 0.61296 0.11124 0.0
C2051 C 0.87183 0.61746 0.08308 0.0
C2052 C 0.89263 0.61428 0.09336 0.0
C2053 C 0.89935 0.60654 0.13036 0.0
C2054 C 0.83609 0.61605 0.10283 0.0
C2055 C 0.90788 0.6184 0.06491 0.0
C2056 C 0.85215 0.62153 0.97809 0.0
C2057 C 0.85046 0.64358 0.96945 0.0
C2058 C 0.85907 0.61279 1.01455 0.0
C2059 C 0.86434 0.62626 0.04364 0.0
C2060 C 0.86225 0.64847 0.03504 0.0
C2061 C 0.85568 0.65671 0.99852 0.0
C2062 C 0.86069 0.58905 0.02203 0.0
C2063 C 0.86679 0.6637 0.06475 0.0
H2064 H 0.85473 0.60077 0.16823 0.0
H2065 H 0.91507 0.6033 0.13688 0.0
H2066 H 0.83248 0.63015 0.08321 0.0
H2067 H 0.8302 0.60191 0.08957 0.0
H2068 H 0.82828 0.61785 0.12868 0.0
H2069 H 0.92325 0.61902 0.07826 0.0
H2070 H 0.90743 0.6055 0.0456 0.0
H2071 H 0.90452 0.63357 0.04796 0.0
H2072 H 0.84839 0.61108 0.95624 0.0
H2073 H 0.85433 0.67376 0.99291 0.0
H2074 H 0.85079 0.58385 0.0443 0.0
H2075 H 0.87625 0.58432 0.03229 0.0
H2076 H 0.85648 0.5806 0.99674 0.0
H2077 H 0.8571 0.66035 0.08822 0.0
H2078 H 0.86433 0.68052 0.05399 0.0
H2079 H 0.88256 0.66147 0.07616 0.0
C2080 C 0.11606 0.09866 0.79746 0.0
C2081 C 0.09642 0.10691 0.7932 0.0
C2082 C 0.12906 0.10316 0.82825 0.0
C2083 C 0.12217 0.11617 0.85531 0.0
C2084 C 0.10216 0.12406 0.85145 0.0
C2085 C 0.08961 0.11943 0.82041 0.0
C2086 C 0.15027 0.09453 0.83127 0.0
C2087 C 0.09411 0.13792 0.87963 0.0
C2088 C 0.14667 0.12327 0.95214 0.0
C2089 C 0.15416 0.14371 0.94649 0.0
C2090 C 0.13752 0.11307 0.92195 0.0
C2091 C 0.13613 0.1236 0.88557 0.0
C2092 C 0.14544 0.14337 0.87951 0.0
C2093 C 0.15399 0.15326 0.91008 0.0
C2094 C 0.12783 0.09196 0.92957 0.0
C2095 C 0.14467 0.15514 0.84131 0.0
H2096 H 0.12134 0.08893 0.77646 0.0
H2097 H 0.07437 0.12564 0.8175 0.0
H2098 H 0.16078 0.10776 0.82703 0.0
H2099 H 0.1541 0.0868 0.85961 0.0
H2100 H 0.15268 0.0829 0.81029 0.0
H2101 H 0.07783 0.14145 0.87406 0.0
H2102 H 0.09669 0.13012 0.90824 0.0
H2103 H 0.10215 0.15315 0.87904 0.0
H2104 H 0.14654 0.11598 0.98036 0.0
H2105 H 0.15939 0.1692 0.90564 0.0
H2106 H 0.13054 0.08124 0.90733 0.0
H2107 H 0.1114 0.09442 0.92973 0.0
H2108 H 0.13341 0.08408 0.95701 0.0
H2109 H 0.14825 0.1443 0.81973 0.0
H2110 H 0.15526 0.16851 0.84029 0.0
H2111 H 0.12932 0.16165 0.83394 0.0
C2112 C 0.65456 0.34998 0.56724 0.0
C2113 C 0.63985 0.34692 0.53858 0.0
C2114 C 0.64969 0.358 0.60111 0.0
C2115 C 0.62958 0.36379 0.60634 0.0
C2116 C 0.61466 0.36113 0.57711 0.0
C2117 C 0.61991 0.35231 0.54407 0.0
C2118 C 0.66615 0.36003 0.63143 0.0
C2119 C 0.5931 0.36743 0.58083 0.0
C2120 C 0.61307 0.36933 0.70563 0.0
C2121 C 0.61481 0.39118 0.70903 0.0
C2122 C 0.61794 0.36014 0.67261 0.0
C2123 C 0.62431 0.37314 0.64185 0.0
C2124 C 0.62605 0.3952 0.64529 0.0
C2125 C 0.62173 0.4038 0.67887 0.0
C2126 C 0.61641 0.33648 0.67071 0.0
C2127 C 0.6322 0.40987 0.61321 0.0
H2128 H 0.6698 0.34512 0.56408 0.0
H2129 H 0.60836 0.34959 0.52241 0.0
H2130 H 0.67036 0.3769 0.63212 0.0
H2131 H 0.6611 0.35472 0.65927 0.0
H2132 H 0.67972 0.35061 0.62663 0.0
H2133 H 0.58681 0.35704 0.60312 0.0
H2134 H 0.5921 0.38394 0.58914 0.0
H2135 H 0.58367 0.36625 0.55445 0.0
H2136 H 0.60796 0.35942 0.72882 0.0
H2137 H 0.62319 0.42071 0.68098 0.0
H2138 H 0.63098 0.32971 0.66393 0.0
H2139 H 0.60516 0.33293 0.64804 0.0
H2140 H 0.61206 0.32843 0.69735 0.0
H2141 H 0.64762 0.40574 0.6065 0.0
H2142 H 0.63172 0.4268 0.6195 0.0
H2143 H 0.62215 0.40795 0.58787 0.0
C2144 C 0.37192 0.83972 0.45783 0.0
C2145 C 0.35664 0.85402 0.46441 0.0
C2146 C 0.38426 0.84385 0.42817 0.0
C2147 C 0.38222 0.86346 0.40641 0.0
C2148 C 0.36809 0.87879 0.41545 0.0
C2149 C 0.35522 0.87375 0.44385 0.0
C2150 C 0.39854 0.82668 0.41869 0.0
C2151 C 0.36661 0.90054 0.39519 0.0
C2152 C 0.42588 0.87889 0.34862 0.0
C2153 C 0.41779 0.87689 0.31209 0.0
C2154 C 0.41428 0.87537 0.37938 0.0
C2155 C 0.39459 0.86782 0.37384 0.0
C2156 C 0.38669 0.8646 0.33708 0.0
C2157 C 0.39817 0.86987 0.30646 0.0
C2158 C 0.42292 0.8804 0.41756 0.0
C2159 C 0.36612 0.85561 0.33011 0.0
H2160 H 0.37344 0.82471 0.47446 0.0
H2161 H 0.34376 0.88513 0.44947 0.0
H2162 H 0.39392 0.82153 0.39058 0.0
H2163 H 0.41393 0.83277 0.41753 0.0
H2164 H 0.39885 0.81263 0.43917 0.0
H2165 H 0.35496 0.91076 0.40572 0.0
H2166 H 0.38126 0.90827 0.39892 0.0
H2167 H 0.36327 0.89938 0.36481 0.0
H2168 H 0.44114 0.88396 0.35315 0.0
H2169 H 0.39195 0.86819 0.27823 0.0
H2170 H 0.42398 0.86585 0.43679 0.0
H2171 H 0.41289 0.8918 0.42959 0.0
H2172 H 0.43804 0.88735 0.41666 0.0
H2173 H 0.36466 0.84078 0.34816 0.0
H2174 H 0.36295 0.85213 0.30049 0.0
H2175 H 0.35456 0.86701 0.33746 0.0
C2176 C 0.92311 0.37529 0.84503 0.0
C2177 C 0.91369 0.37698 0.80885 0.0
C2178 C 0.91216 0.37109 0.87648 0.0
C2179 C 0.89143 0.36719 0.87158 0.0
C2180 C 0.88196 0.36798 0.83493 0.0
C2181 C 0.89313 0.37343 0.80397 0.0
C2182 C 0.92269 0.37149 0.91493 0.0
C2183 C 0.86002 0.36315 0.82848 0.0
C2184 C 0.86618 0.33869 0.9523 0.0
C2185 C 0.85428 0.35502 0.96381 0.0
C2186 C 0.87832 0.34232 0.92217 0.0
C2187 C 0.87952 0.36308 0.90481 0.0
C2188 C 0.86902 0.37997 0.9189 0.0
C2189 C 0.85626 0.37569 0.94776 0.0
C2190 C 0.88885 0.32373 0.9075 0.0
C2191 C 0.87085 0.40252 0.9029 0.0
H2192 H 0.93902 0.37801 0.8489 0.0
H2193 H 0.88589 0.37464 0.77598 0.0
H2194 H 0.9153 0.38337 0.93087 0.0
H2195 H 0.92162 0.35585 0.93068 0.0
H2196 H 0.93876 0.37548 0.91385 0.0
H2197 H 0.85532 0.36268 0.79833 0.0
H2198 H 0.85675 0.34764 0.84312 0.0
H2199 H 0.8508 0.37537 0.84023 0.0
H2200 H 0.86516 0.32283 0.96551 0.0
H2201 H 0.84741 0.38851 0.95708 0.0
H2202 H 0.90491 0.32703 0.90478 0.0
H2203 H 0.88212 0.32109 0.87919 0.0
H2204 H 0.88762 0.30891 0.92574 0.0
H2205 H 0.88686 0.4068 0.90275 0.0
H2206 H 0.86298 0.41398 0.91902 0.0
H2207 H 0.86446 0.40416 0.87354 0.0
C2208 C 0.37051 0.13835 0.47906 0.0
C2209 C 0.35213 0.13319 0.46059 0.0
C2210 C 0.37668 0.12991 0.51572 0.0
C2211 C 0.36406 0.11614 0.53594 0.0
C2212 C 0.34572 0.1103 0.51719 0.0
C2213 C 0.34008 0.11871 0.47996 0.0
C2214 C 0.39691 0.13571 0.53273 0.0
C2215 C 0.33188 0.09531 0.53677 0.0
C2216 C 0.38506 0.07936 0.62082 0.0
C2217 C 0.38259 0.09135 0.65169 0.0
C2218 C 0.38004 0.08747 0.58354 0.0
C2219 C 0.37033 0.1076 0.5761 0.0
C2220 C 0.36704 0.11959 0.60727 0.0
C2221 C 0.37368 0.11164 0.64431 0.0
C2222 C 0.38537 0.07435 0.55215 0.0
C2223 C 0.35607 0.14069 0.60157 0.0
H2224 H 0.38024 0.14929 0.46477 0.0
H2225 H 0.32606 0.11428 0.46642 0.0
H2226 H 0.39498 0.14617 0.55567 0.0
H2227 H 0.40524 0.12128 0.54496 0.0
H2228 H 0.40613 0.14406 0.51195 0.0
H2229 H 0.318 0.09255 0.51921 0.0
H2230 H 0.33953 0.07979 0.54431 0.0
H2231 H 0.32786 0.10168 0.56324 0.0
H2232 H 0.39112 0.06344 0.62562 0.0
H2233 H 0.37114 0.12098 0.66765 0.0
H2234 H 0.39177 0.08439 0.52949 0.0
H2235 H 0.37173 0.06699 0.54006 0.0
H2236 H 0.39637 0.06147 0.56194 0.0
H2237 H 0.36515 0.15233 0.58587 0.0
H2238 H 0.35282 0.14713 0.62845 0.0
H2239 H 0.34174 0.13909 0.58464 0.0
C2240 C 0.58994 0.62174 0.32031 0.0
C2241 C 0.59599 0.61023 0.29117 0.0
C2242 C 0.60357 0.62633 0.34984 0.0
C2243 C 0.62384 0.61956 0.34989 0.0
C2244 C 0.62998 0.60767 0.32074 0.0
C2245 C 0.61592 0.60306 0.29175 0.0
C2246 C 0.59635 0.6389 0.38057 0.0
C2247 C 0.65147 0.60039 0.31959 0.0
C2248 C 0.65698 0.6568 0.40156 0.0
C2249 C 0.66006 0.64603 0.43699 0.0
C2250 C 0.64681 0.64748 0.37196 0.0
C2251 C 0.63877 0.62709 0.3783 0.0
C2252 C 0.64288 0.61553 0.41342 0.0
C2253 C 0.65374 0.62512 0.44246 0.0
C2254 C 0.64334 0.66024 0.33479 0.0
C2255 C 0.63447 0.59377 0.42125 0.0
H2256 H 0.57447 0.62704 0.3202 0.0
H2257 H 0.62057 0.59403 0.26927 0.0
H2258 H 0.60082 0.6307 0.40829 0.0
H2259 H 0.60341 0.65467 0.37952 0.0
H2260 H 0.57983 0.64129 0.37818 0.0
H2261 H 0.65346 0.58972 0.2969 0.0
H2262 H 0.66108 0.61437 0.31513 0.0
H2263 H 0.65686 0.59198 0.34664 0.0
H2264 H 0.66173 0.67304 0.39729 0.0
H2265 H 0.65598 0.61689 0.46998 0.0
H2266 H 0.62752 0.66588 0.33103 0.0
H2267 H 0.6461 0.65031 0.31146 0.0
H2268 H 0.65312 0.67427 0.33282 0.0
H2269 H 0.6182 0.59531 0.42474 0.0
H2270 H 0.64175 0.58549 0.44709 0.0
H2271 H 0.63627 0.58383 0.39753 0.0
C2272 C 0.14883 0.84304 0.06968 0.0
C2273 C 0.13583 0.8444 0.03724 0.0
C2274 C 0.14265 0.84951 0.10392 0.0
C2275 C 0.12333 0.85871 0.10566 0.0
C2276 C 0.11014 0.86023 0.07286 0.0
C2277 C 0.11638 0.85259 0.03946 0.0
C2278 C 0.15666 0.84607 0.13861 0.0
C2279 C 0.08918 0.86922 0.07316 0.0
C2280 C 0.10405 0.86492 0.20301 0.0
C2281 C 0.10926 0.88584 0.20919 0.0
C2282 C 0.10814 0.8559 0.16932 0.0
C2283 C 0.11772 0.86805 0.14106 0.0
C2284 C 0.12281 0.88921 0.14721 0.0
C2285 C 0.11879 0.89766 0.18105 0.0
C2286 C 0.102 0.83345 0.1638 0.0
C2287 C 0.13236 0.90312 0.11771 0.0
H2288 H 0.16361 0.83614 0.06883 0.0
H2289 H 0.10595 0.85297 1.01496 0.0
H2290 H 0.16197 0.86162 0.14732 0.0
H2291 H 0.14874 0.83849 0.16202 0.0
H2292 H 0.16977 0.83586 0.13418 0.0
H2293 H 0.08276 0.87427 0.04452 0.0
H2294 H 0.07947 0.85683 0.08526 0.0
H2295 H 0.08872 0.88291 0.09064 0.0
H2296 H 0.09679 0.8556 0.22448 0.0
H2297 H 0.12282 0.91391 0.18506 0.0
H2298 H 0.1148 0.82403 0.15533 0.0
H2299 H 0.08999 0.83355 0.14095 0.0
H2300 H 0.09637 0.82545 0.18944 0.0
H2301 H 0.14713 0.89624 0.11236 0.0
H2302 H 0.13453 0.91956 0.12591 0.0
H2303 H 0.12286 0.90379 0.09108 0.0
C2304 C 0.98878 0.52611 0.24198 0.0
C2305 C 0.96785 0.52638 0.23645 0.0
C2306 C 0.00039 0.51118 0.22568 0.0
C2307 C 0.99075 0.49622 0.20355 0.0
C2308 C 0.96962 0.49524 0.20067 0.0
C2309 C 0.9584 0.51021 0.21758 0.0
C2310 C 0.02294 0.5123 0.23012 0.0
C2311 C 0.95882 0.47937 0.17756 0.0
C2312 C 0.01978 0.47535 0.12638 0.0
C2313 C 0.0263 0.45561 0.14302 0.0
C2314 C 0.00782 0.48869 0.14563 0.0
C2315 C 0.00275 0.48209 0.18234 0.0
C2316 C 0.00939 0.4621 0.19904 0.0
C2317 C 0.02107 0.44912 0.17912 0.0
C2318 C 0.00086 0.50994 0.12704 0.0
C2319 C 0.00453 0.45458 0.23817 0.0
H2320 H 0.99613 0.53846 0.25686 0.0
H2321 H 0.94221 0.5102 0.21348 0.0
H2322 H 0.02954 0.49663 0.24064 0.0
H2323 H 0.02888 0.51647 0.20255 0.0
H2324 H 0.02805 0.52427 0.24959 0.0
H2325 H 0.94242 0.47962 0.1806 0.0
H2326 H 0.96138 0.48297 0.14763 0.0
H2327 H 0.96479 0.46311 0.18566 0.0
H2328 H 0.02418 0.48038 0.09872 0.0
H2329 H 0.02662 0.43399 0.19223 0.0
H2330 H 0.00687 0.52282 0.14366 0.0
H2331 H 0.98428 0.51125 0.12597 0.0
H2332 H 0.0057 0.51249 0.09816 0.0
H2333 H 0.01095 0.4655 0.25838 0.0
H2334 H 0.01047 0.43831 0.24662 0.0
H2335 H 0.98808 0.45473 0.24028 0.0
C2336 C 0.72784 0.80113 0.39093 0.0
C2337 C 0.74176 0.81488 0.40594 0.0
C2338 C 0.72117 0.78407 0.41353 0.0
C2339 C 0.73006 0.78015 0.45036 0.0
C2340 C 0.7413 0.7961 0.46713 0.0
C2341 C 0.74637 0.81389 0.44465 0.0
C2342 C 0.70725 0.76846 0.39626 0.0
C2343 C 0.7506 0.79298 0.50673 0.0
C2344 C 0.72439 0.72717 0.50447 0.0
C2345 C 0.73608 0.7142 0.48433 0.0
C2346 C 0.72208 0.7489 0.49412 0.0
C2347 C 0.73325 0.75788 0.46523 0.0
C2348 C 0.7474 0.74516 0.44881 0.0
C2349 C 0.74818 0.72333 0.45781 0.0
C2350 C 0.7063 0.76136 0.51165 0.0
C2351 C 0.76087 0.75415 0.41983 0.0
H2352 H 0.72398 0.80221 0.36106 0.0
H2353 H 0.75685 0.82505 0.45608 0.0
H2354 H 0.71607 0.75636 0.3833 0.0
H2355 H 0.69834 0.76026 0.41769 0.0
H2356 H 0.69693 0.77656 0.37402 0.0
H2357 H 0.7608 0.80599 0.51388 0.0
H2358 H 0.73875 0.79236 0.52673 0.0
H2359 H 0.75916 0.77774 0.51102 0.0
H2360 H 0.71593 0.72005 0.52647 0.0
H2361 H 0.75768 0.71333 0.44297 0.0
H2362 H 0.6915 0.75837 0.49737 0.0
H2363 H 0.7085 0.77869 0.5089 0.0
H2364 H 0.70569 0.75605 0.54168 0.0
H2365 H 0.75283 0.75451 0.39177 0.0
H2366 H 0.77467 0.74425 0.41929 0.0
H2367 H 0.76527 0.77051 0.42511 0.0
C2368 C 0.50971 0.45381 0.7181 0.0
C2369 C 0.53013 0.45598 0.72754 0.0
C2370 C 0.49834 0.4707 0.69997 0.0
C2371 C 0.50782 0.49008 0.69103 0.0
C2372 C 0.52798 0.49298 0.70398 0.0
C2373 C 0.53899 0.47574 0.72223 0.0
C2374 C 0.47679 0.46707 0.68709 0.0
C2375 C 0.53845 0.51357 0.69558 0.0
C2376 C 0.48641 0.51957 0.60115 0.0
C2377 C 0.47345 0.53398 0.61512 0.0
C2378 C 0.49829 0.50553 0.6258 0.0
C2379 C 0.49712 0.50629 0.66498 0.0
C2380 C 0.48453 0.52143 0.67898 0.0
C2381 C 0.4728 0.53506 0.65381 0.0
C2382 C 0.51163 0.4895 0.61 0.0
C2383 C 0.48305 0.52294 0.72042 0.0
H2384 H 0.50306 0.43832 0.72188 0.0
H2385 H 0.55489 0.47723 0.72912 0.0
H2386 H 0.46699 0.48019 0.6944 0.0
H2387 H 0.47543 0.46674 0.65622 0.0
H2388 H 0.47119 0.45189 0.69956 0.0
H2389 H 0.55256 0.51461 0.71345 0.0
H2390 H 0.5422 0.51474 0.66595 0.0
H2391 H 0.52859 0.52733 0.69961 0.0
H2392 H 0.48698 0.51907 0.57119 0.0
H2393 H 0.46299 0.54663 0.66439 0.0
H2394 H 0.50672 0.47323 0.61818 0.0
H2395 H 0.52729 0.49085 0.62167 0.0
H2396 H 0.51139 0.49154 0.57903 0.0
H2397 H 0.47604 0.50848 0.73259 0.0
H2398 H 0.47399 0.53695 0.72657 0.0
H2399 H 0.4982 0.52387 0.7347 0.0
C2400 C 0.72236 0.2238 0.83404 0.0
C2401 C 0.7311 0.20503 0.85159 0.0
C2402 C 0.73004 0.24351 0.84228 0.0
C2403 C 0.74712 0.24408 0.8675 0.0
C2404 C 0.75802 0.22511 0.87933 0.0
C2405 C 0.74956 0.20564 0.87192 0.0
C2406 C 0.71813 0.26333 0.82857 0.0
C2407 C 0.77707 0.22521 0.90433 0.0
C2408 C 0.77227 0.29198 0.9033 0.0
C2409 C 0.76675 0.29022 0.94034 0.0
C2410 C 0.7647 0.27817 0.87746 0.0
C2411 C 0.75078 0.26288 0.88888 0.0
C2412 C 0.74304 0.26321 0.92463 0.0
C2413 C 0.75158 0.27658 0.95044 0.0
C2414 C 0.77362 0.27826 0.84005 0.0
C2415 C 0.72741 0.24779 0.93718 0.0
H2416 H 0.708 0.22327 0.8182 0.0
H2417 H 0.75629 0.19105 0.88524 0.0
H2418 H 0.70739 0.26684 0.84955 0.0
H2419 H 0.72788 0.27723 0.8248 0.0
H2420 H 0.70941 0.26118 0.80174 0.0
H2421 H 0.78565 0.21004 0.90459 0.0
H2422 H 0.78674 0.23843 0.89517 0.0
H2423 H 0.77332 0.22751 0.93334 0.0
H2424 H 0.78429 0.30242 0.89571 0.0
H2425 H 0.74749 0.27523 0.97914 0.0
H2426 H 0.76265 0.2734 0.81793 0.0
H2427 H 0.78647 0.26685 0.84226 0.0
H2428 H 0.77931 0.29416 0.8314 0.0
H2429 H 0.71536 0.24651 0.91471 0.0
H2430 H 0.72056 0.25258 0.9626 0.0
H2431 H 0.73443 0.23182 0.94366 0.0
C2432 C 0.97817 0.46354 0.71497 0.0
C2433 C 0.96417 0.47237 0.73653 0.0
C2434 C 0.99094 0.47656 0.69495 0.0
C2435 C 0.98983 0.49875 0.69767 0.0
C2436 C 0.97601 0.50768 0.72025 0.0
C2437 C 0.96302 0.4943 0.73904 0.0
C2438 C 0.0053 0.46662 0.67041 0.0
C2439 C 0.97508 0.53123 0.72472 0.0
C2440 C 0.03743 0.52476 0.67294 0.0
C2441 C 0.0323 0.5329 0.63634 0.0
C2442 C 0.02317 0.51505 0.69437 0.0
C2443 C 0.00372 0.51243 0.67777 0.0
C2444 C 0.99828 0.52118 0.64103 0.0
C2445 C 0.01269 0.53184 0.62083 0.0
C2446 C 0.02929 0.50663 0.73398 0.0
C2447 C 0.97772 0.51814 0.62235 0.0
H2448 H 0.97856 0.4466 0.71261 0.0
H2449 H 0.95203 0.50094 0.75588 0.0
H2450 H 0.00203 0.47289 0.64095 0.0
H2451 H 0.0209 0.47082 0.67879 0.0
H2452 H 0.00434 0.44907 0.67187 0.0
H2453 H 0.98987 0.53662 0.73582 0.0
H2454 H 0.97161 0.54004 0.69717 0.0
H2455 H 0.96361 0.53551 0.74387 0.0
H2456 H 0.0527 0.52572 0.68467 0.0
H2457 H 0.009 0.53819 0.59231 0.0
H2458 H 0.03122 0.48914 0.7351 0.0
H2459 H 0.01758 0.51024 0.75304 0.0
H2460 H 0.04361 0.51345 0.74445 0.0
H2461 H 0.9756 0.50108 0.61827 0.0
H2462 H 0.9755 0.52725 0.59472 0.0
H2463 H 0.96596 0.52306 0.64031 0.0
C2464 C 0.76445 0.7114 0.8861 0.0
C2465 C 0.76569 0.69474 0.91409 0.0
C2466 C 0.75824 0.73185 0.8942 0.0
C2467 C 0.75411 0.73562 0.93131 0.0
C2468 C 0.75619 0.71895 0.95965 0.0
C2469 C 0.76135 0.69869 0.95051 0.0
C2470 C 0.75566 0.74922 0.86312 0.0
C2471 C 0.75273 0.72238 0.99977 0.0
C2472 C 0.74994 0.79104 0.96501 0.0
C2473 C 0.72918 0.79308 0.96696 0.0
C2474 C 0.75842 0.77255 0.9527 0.0
C2475 C 0.74574 0.75623 0.94073 0.0
C2476 C 0.72481 0.75835 0.94256 0.0
C2477 C 0.71692 0.77634 0.95685 0.0
C2478 C 0.78087 0.77071 0.95199 0.0
C2479 C 0.71067 0.74161 0.92925 0.0
H2480 H 0.76792 0.70836 0.85798 0.0
H2481 H 0.76252 0.68596 0.9725 0.0
H2482 H 0.74 0.75542 0.8608 0.0
H2483 H 0.76552 0.7626 0.8696 0.0
H2484 H 0.75923 0.74366 0.83573 0.0
H2485 H 0.75772 0.70846 1.01891 0.0
H2486 H 0.7609 0.73651 1.00859 0.0
H2487 H 0.73657 0.72533 1.00268 0.0
H2488 H 0.75949 0.80399 0.97244 0.0
H2489 H 0.70089 0.77761 0.95871 0.0
H2490 H 0.78512 0.77463 0.92307 0.0
H2491 H 0.78633 0.75433 0.96065 0.0
H2492 H 0.78861 0.78179 0.97048 0.0
H2493 H 0.71384 0.7378 0.9006 0.0
H2494 H 0.69472 0.74671 0.92902 0.0
H2495 H 0.71291 0.72681 0.94771 0.0
C2496 C 0.48005 0.44789 0.14995 0.0
C2497 C 0.46688 0.45937 0.12389 0.0
C2498 C 0.49293 0.45842 0.17442 0.0
C2499 C 0.49267 0.48084 0.17184 0.0
C2500 C 0.47958 0.49245 0.14497 0.0
C2501 C 0.46669 0.48151 0.1215 0.0
C2502 C 0.50655 0.44564 0.20317 0.0
C2503 C 0.47921 0.51642 0.14095 0.0
C2504 C 0.51196 0.51504 0.24735 0.0
C2505 C 0.52934 0.52249 0.23211 0.0
C2506 C 0.50031 0.50013 0.22923 0.0
C2507 C 0.5066 0.49254 0.19577 0.0
C2508 C 0.52498 0.49892 0.18201 0.0
C2509 C 0.53606 0.51399 0.20025 0.0
C2510 C 0.48069 0.49367 0.24438 0.0
C2511 C 0.53232 0.49097 0.14667 0.0
H2512 H 0.47976 0.43078 0.15208 0.0
H2513 H 0.45638 0.4903 0.10123 0.0
H2514 H 0.52239 0.44969 0.19945 0.0
H2515 H 0.50325 0.44966 0.23164 0.0
H2516 H 0.50485 0.42829 0.2014 0.0
H2517 H 0.46791 0.52294 0.11885 0.0
H2518 H 0.47582 0.52278 0.16778 0.0
H2519 H 0.49413 0.52228 0.13395 0.0
H2520 H 0.50707 0.52153 0.27234 0.0
H2521 H 0.54991 0.51938 0.18917 0.0
H2522 H 0.47871 0.47631 0.24388 0.0
H2523 H 0.4682 0.50156 0.22642 0.0
H2524 H 0.47955 0.49821 0.2734 0.0
H2525 H 0.53103 0.47351 0.14688 0.0
H2526 H 0.54814 0.4952 0.14289 0.0
H2527 H 0.52292 0.49805 0.12216 0.0
C2528 C 0.78585 0.21717 0.39618 0.0
C2529 C 0.77629 0.19962 0.38215 0.0
C2530 C 0.77473 0.23329 0.41057 0.0
C2531 C 0.75359 0.23206 0.40957 0.0
C2532 C 0.7439 0.21449 0.39479 0.0
C2533 C 0.75542 0.19827 0.38191 0.0
C2534 C 0.78559 0.25161 0.42677 0.0
C2535 C 0.72136 0.2131 0.39162 0.0
C2536 C 0.72383 0.26403 0.47259 0.0
C2537 C 0.71876 0.28219 0.44908 0.0
C2538 C 0.73552 0.24771 0.46029 0.0
C2539 C 0.74147 0.24935 0.42316 0.0
C2540 C 0.73558 0.26737 0.39892 0.0
C2541 C 0.72474 0.28388 0.41257 0.0
C2542 C 0.74194 0.229 0.48722 0.0
C2543 C 0.7409 0.26956 0.35875 0.0
H2544 H 0.80199 0.21811 0.39644 0.0
H2545 H 0.74801 0.18476 0.37071 0.0
H2546 H 0.78089 0.25373 0.45526 0.0
H2547 H 0.80211 0.24929 0.42833 0.0
H2548 H 0.78159 0.26645 0.40928 0.0
H2549 H 0.71616 0.1985 0.37887 0.0
H2550 H 0.71544 0.21336 0.41961 0.0
H2551 H 0.71481 0.22709 0.3743 0.0
H2552 H 0.71933 0.26302 0.50104 0.0
H2553 H 0.72076 0.29805 0.39457 0.0
H2554 H 0.75853 0.22752 0.48986 0.0
H2555 H 0.73618 0.21411 0.47644 0.0
H2556 H 0.73653 0.23045 0.51543 0.0
H2557 H 0.75601 0.27641 0.3574 0.0
H2558 H 0.7301 0.2803 0.34147 0.0
H2559 H 0.7411 0.25404 0.34629 0.0
C2560 C 0.25443 0.30961 0.94554 0.0
C2561 C 0.25175 0.30522 0.90788 0.0
C2562 C 0.2494 0.29473 0.97385 0.0
C2563 C 0.24093 0.2755 0.96382 0.0
C2564 C 0.23598 0.2722 0.92566 0.0
C2565 C 0.24193 0.28701 0.89794 0.0
C2566 C 0.25488 0.29871 1.01413 0.0
C2567 C 0.22607 0.25218 0.91398 0.0
C2568 C 0.25003 0.22106 1.00913 0.0
C2569 C 0.23062 0.21669 1.01883 0.0
C2570 C 0.25473 0.24166 0.99596 0.0
C2571 C 0.23946 0.25761 0.99216 0.0
C2572 C 0.22113 0.25392 1.00836 0.0
C2573 C 0.21709 0.23337 0.02224 0.0
C2574 C 0.27496 0.24554 0.98102 0.0
C2575 C 0.20451 0.27042 1.00558 0.0
H2576 H 0.26243 0.32368 0.9529 0.0
H2577 H 0.24021 0.28365 0.86878 0.0
H2578 H 0.24178 0.29626 0.03105 0.0
H2579 H 0.2667 0.2872 0.02599 0.0
H2580 H 0.26044 0.315 1.0172 0.0
H2581 H 0.22096 0.25337 0.88383 0.0
H2582 H 0.23682 0.23861 0.91939 0.0
H2583 H 0.21297 0.24862 0.93049 0.0
H2584 H 0.26064 0.20814 1.00727 0.0
H2585 H 0.2023 0.22987 0.03101 0.0
H2586 H 0.28051 0.26129 0.98803 0.0
H2587 H 0.27363 0.24541 0.95012 0.0
H2588 H 0.28617 0.23318 0.99235 0.0
H2589 H 0.21032 0.28674 1.00547 0.0
H2590 H 0.19463 0.26781 0.029 0.0
H2591 H 0.19522 0.26913 0.97909 0.0
C2592 C 0.2291 0.71532 0.34468 0.0
C2593 C 0.21106 0.72688 0.33896 0.0
C2594 C 0.24585 0.72421 0.36259 0.0
C2595 C 0.24429 0.74513 0.37364 0.0
C2596 C 0.22719 0.75789 0.36183 0.0
C2597 C 0.21068 0.74853 0.34443 0.0
C2598 C 0.2642 0.71043 0.37345 0.0
C2599 C 0.22526 0.78055 0.37197 0.0
C2600 C 0.26749 0.75892 0.46726 0.0
C2601 C 0.28271 0.77216 0.45592 0.0
C2602 C 0.25532 0.74912 0.44054 0.0
C2603 C 0.2588 0.75271 0.40207 0.0
C2604 C 0.2749 0.7652 0.39092 0.0
C2605 C 0.28664 0.77484 0.41807 0.0
C2606 C 0.23842 0.73542 0.45332 0.0
C2607 C 0.27937 0.76909 0.35041 0.0
H2608 H 0.22955 0.69875 0.33906 0.0
H2609 H 0.19676 0.75756 0.33896 0.0
H2610 H 0.27807 0.71971 0.37152 0.0
H2611 H 0.26364 0.70389 0.40284 0.0
H2612 H 0.26499 0.6969 0.35555 0.0
H2613 H 0.22266 0.78063 0.40209 0.0
H2614 H 0.23918 0.78931 0.36726 0.0
H2615 H 0.21257 0.78915 0.35561 0.0
H2616 H 0.26497 0.75652 0.4967 0.0
H2617 H 0.29899 0.78457 0.40967 0.0
H2618 H 0.23967 0.71948 0.44266 0.0
H2619 H 0.22386 0.74256 0.44175 0.0
H2620 H 0.23833 0.7335 0.48425 0.0
H2621 H 0.2773 0.75453 0.3353 0.0
H2622 H 0.29488 0.77468 0.3475 0.0
H2623 H 0.26889 0.78146 0.33659 0.0
C2624 C 0.28427 0.22562 0.39071 0.0
C2625 C 0.27207 0.20896 0.37997 0.0
C2626 C 0.27627 0.24318 0.40632 0.0
C2627 C 0.25541 0.24455 0.40977 0.0
C2628 C 0.24273 0.22893 0.39523 0.0
C2629 C 0.25126 0.2111 0.38079 0.0
C2630 C 0.29031 0.2595 0.42142 0.0
C2631 C 0.2203 0.23043 0.39693 0.0
C2632 C 0.23671 0.27587 0.48721 0.0
C2633 C 0.23128 0.29512 0.4674 0.0
C2634 C 0.24494 0.25927 0.46882 0.0
C2635 C 0.24707 0.26199 0.42974 0.0
C2636 C 0.24167 0.28155 0.40987 0.0
C2637 C 0.23413 0.29795 0.42909 0.0
C2638 C 0.25104 0.23872 0.49097 0.0
C2639 C 0.24322 0.28498 0.36815 0.0
H2640 H 0.30036 0.2242 0.38956 0.0
H2641 H 0.24175 0.19835 0.37226 0.0
H2642 H 0.28544 0.27567 0.41004 0.0
H2643 H 0.28994 0.25903 0.45227 0.0
H2644 H 0.30601 0.25672 0.4146 0.0
H2645 H 0.21247 0.21807 0.38141 0.0
H2646 H 0.21647 0.2286 0.42649 0.0
H2647 H 0.21456 0.24624 0.38517 0.0
H2648 H 0.23416 0.27367 0.51666 0.0
H2649 H 0.22955 0.31284 0.41375 0.0
H2650 H 0.26714 0.23522 0.48826 0.0
H2651 H 0.24245 0.22546 0.47968 0.0
H2652 H 0.2485 0.23918 0.52108 0.0
H2653 H 0.25862 0.28119 0.36084 0.0
H2654 H 0.23929 0.30153 0.35731 0.0
H2655 H 0.23297 0.27416 0.35359 0.0
C2656 C 0.27372 0.71835 0.86055 0.0
C2657 C 0.28412 0.70493 0.88815 0.0
C2658 C 0.26014 0.73374 0.87023 0.0
C2659 C 0.25736 0.7359 0.90844 0.0
C2660 C 0.26835 0.72268 0.93641 0.0
C2661 C 0.28136 0.707 0.92582 0.0
C2662 C 0.24844 0.74729 0.83965 0.0
C2663 C 0.26622 0.72486 0.97746 0.0
C2664 C 0.23783 0.78878 0.93421 0.0
C2665 C 0.21808 0.78414 0.94214 0.0
C2666 C 0.25072 0.7732 0.92329 0.0
C2667 C 0.24353 0.75257 0.91916 0.0
C2668 C 0.22338 0.74791 0.92578 0.0
C2669 C 0.21087 0.76377 0.93763 0.0
C2670 C 0.27221 0.77869 0.91726 0.0
C2671 C 0.21511 0.72617 0.92064 0.0
H2672 H 0.27562 0.7162 0.83137 0.0
H2673 H 0.28921 0.6962 0.94692 0.0
H2674 H 0.23215 0.7453 0.8423 0.0
H2675 H 0.25162 0.76429 0.84237 0.0
H2676 H 0.25203 0.74323 0.81132 0.0
H2677 H 0.2778 0.71542 0.99538 0.0
H2678 H 0.26735 0.74171 0.98387 0.0
H2679 H 0.25126 0.71936 0.9849 0.0
H2680 H 0.2435 0.80455 0.93753 0.0
H2681 H 0.19556 0.76023 0.94348 0.0
H2682 H 0.27568 0.77583 0.88835 0.0
H2683 H 0.28244 0.76833 0.93648 0.0
H2684 H 0.27546 0.79549 0.92206 0.0
H2685 H 0.21778 0.7214 0.89231 0.0
H2686 H 0.1988 0.72554 0.92444 0.0
H2687 H 0.22298 0.71437 0.94109 0.0
C2688 C 0.49421 0.04285 0.73141 0.0
C2689 C 0.47449 0.03627 0.73539 0.0
C2690 C 0.50783 0.0303 0.71455 0.0
C2691 C 0.50179 0.01039 0.70282 0.0
C2692 C 0.48268 0.00265 0.71065 0.0
C2693 C 0.46914 0.0158 0.72659 0.0
C2694 C 0.52816 0.039 0.70687 0.0
C2695 C 0.47611 0.981 0.70023 0.0
C2696 C 0.52546 0.98683 0.62179 0.0
C2697 C 0.53978 0.97307 0.64093 0.0
C2698 C 0.51331 -0.00034 0.64166 0.0
C2699 C 0.51524 -0.00203 0.68136 0.0
C2700 C 0.5298 0.98413 0.70062 0.0
C2701 C 0.54194 0.97201 0.68014 0.0
C2702 C 0.4982 0.01473 0.62031 0.0
C2703 C 0.53188 0.98114 0.74281 0.0
H2704 H 0.49855 0.05856 0.73857 0.0
H2705 H 0.45397 0.01057 0.72996 0.0
H2706 H 0.54019 0.02766 0.71844 0.0
H2707 H 0.52944 0.04118 0.67624 0.0
H2708 H 0.53079 0.05446 0.71897 0.0
H2709 H 0.46194 0.9763 0.71262 0.0
H2710 H 0.47375 0.98103 0.66941 0.0
H2711 H 0.48787 0.96887 0.70959 0.0
H2712 H 0.52359 0.98731 0.59157 0.0
H2713 H 0.55253 0.9608 0.6951 0.0
H2714 H 0.50006 0.03095 0.62973 0.0
H2715 H 0.48282 0.00976 0.62598 0.0
H2716 H 0.49963 0.01533 0.58967 0.0
H2717 H 0.53213 -0.0034 0.75541 0.0
H2718 H 0.54566 0.97195 0.75329 0.0
H2719 H 0.51875 0.97247 0.75281 0.0
C2720 C 0.02439 0.94928 0.18125 0.0
C2721 C 0.02412 0.95068 0.21991 0.0
C2722 C 0.01323 0.96342 0.15609 0.0
C2723 C 0.00164 0.97946 0.17008 0.0
C2724 C 0.00063 0.98039 0.20924 0.0
C2725 C 0.01191 0.9658 0.2339 0.0
C2726 C 0.01455 0.96172 0.11466 0.0
C2727 C 0.98831 -0.00268 0.22499 0.0
C2728 C 0.99502 0.03253 0.11574 0.0
C2729 C 0.97465 0.03256 0.10409 0.0
C2730 C 0.00424 0.01484 0.13566 0.0
C2731 C 0.99271 -0.00322 0.14406 0.0
C2732 C 0.97261 -0.00405 0.12921 0.0
C2733 C 0.96381 0.01392 0.10888 0.0
C2734 C 0.02587 0.01616 0.15024 0.0
C2735 C 0.95997 0.97679 0.13708 0.0
H2736 H 0.03362 0.93719 0.17067 0.0
H2737 H 0.01157 0.96652 0.26386 0.0
H2738 H 0.99941 0.96277 0.09997 0.0
H2739 H 0.02328 0.97509 0.10293 0.0
H2740 H 0.02196 0.94666 0.10854 0.0
H2741 H 0.98832 0.9952 0.25592 0.0
H2742 H 0.99434 0.01317 0.2172 0.0
H2743 H 0.97261 -0.00282 0.21293 0.0
H2744 H 0.00344 0.04694 0.11157 0.0
H2745 H 0.94815 0.01382 0.09931 0.0
H2746 H 0.03465 0.00234 0.14255 0.0
H2747 H 0.02678 0.01578 0.1812 0.0
H2748 H 0.033 0.03087 0.13925 0.0
H2749 H 0.96854 0.96194 0.13418 0.0
H2750 H 0.94612 0.97712 0.11816 0.0
H2751 H 0.95555 0.97645 0.16627 0.0
C2752 C 0.45456 0.98411 0.19762 0.0
C2753 C 0.4614 0.97313 0.2313 0.0
C2754 C 0.46774 0.99582 0.17642 0.0
C2755 C 0.48794 -0.00309 0.19009 0.0
C2756 C 0.49479 0.98631 0.22472 0.0
C2757 C 0.4814 0.97409 0.24474 0.0
C2758 C 0.46014 0.00671 0.13928 0.0
C2759 C 0.51618 0.98789 0.24048 0.0
C2760 C 0.52784 0.00864 0.12363 0.0
C2761 C 0.53026 0.03031 0.12692 0.0
C2762 C 0.51349 -0.00236 0.1432 0.0
C2763 C 0.50208 0.00863 0.1675 0.0
C2764 C 0.5044 0.03063 0.17059 0.0
C2765 C 0.51843 0.04131 0.14974 0.0
C2766 C 0.51066 0.97433 0.1382 0.0
C2767 C 0.49287 0.04274 0.19705 0.0
H2768 H 0.43902 0.98303 0.18733 0.0
H2769 H 0.48643 0.96554 0.27104 0.0
H2770 H 0.46316 0.02392 0.1387 0.0
H2771 H 0.46818 0.00022 0.11656 0.0
H2772 H 0.44382 0.00462 0.13343 0.0
H2773 H 0.51872 0.97968 0.26884 0.0
H2774 H 0.52649 0.98082 0.22179 0.0
H2775 H 0.52018 0.00479 0.24198 0.0
H2776 H 0.53713 0.00035 0.10567 0.0
H2777 H 0.5208 0.05802 0.15259 0.0
H2778 H 0.49469 0.97128 0.13041 0.0
H2779 H 0.51477 0.96487 0.1649 0.0
H2780 H 0.51987 0.96857 0.11636 0.0
H2781 H 0.47721 0.03737 0.19795 0.0
H2782 H 0.49259 0.06005 0.18914 0.0
H2783 H 0.5002 0.04001 0.22566 0.0
C2784 C 0.94999 0.98057 0.64243 0.0
C2785 C 0.95785 0.96396 0.62389 0.0
C2786 C 0.96222 0.99191 0.66643 0.0
C2787 C 0.9828 0.98655 0.67172 0.0
C2788 C 0.99066 0.9691 0.65454 0.0
C2789 C 0.97798 0.95788 0.63073 0.0
C2790 C 0.95331 0.01038 0.68435 0.0
C2791 C 0.0126 0.96299 0.65982 0.0
C2792 C 0.01751 0.03153 0.68955 0.0
C2793 C 0.0229 0.02764 0.72776 0.0
C2794 C 0.00443 0.0182 0.67106 0.0
C2795 C 0.99637 0.00078 0.6915 0.0
C2796 C 0.00098 -0.00267 0.73047 0.0
C2797 C 0.01434 0.01085 0.74825 0.0
C2798 C 0.9997 0.02245 0.62945 0.0
C2799 C 0.99231 0.97905 0.75305 0.0
H2800 H 0.93426 0.98499 0.63772 0.0
H2801 H 0.98392 0.94486 0.61664 0.0
H2802 H 0.95874 0.01029 0.71419 0.0
H2803 H 0.95809 0.02544 0.67015 0.0
H2804 H 0.93668 0.01024 0.68237 0.0
H2805 H 0.01588 0.94776 0.64776 0.0
H2806 H 0.02153 0.97558 0.64611 0.0
H2807 H 0.01761 0.96158 0.68995 0.0
H2808 H 0.02407 0.04461 0.67375 0.0
H2809 H 0.01855 0.00787 0.77783 0.0
H2810 H 0.98332 0.02457 0.62322 0.0
H2811 H 0.00457 0.00866 0.61474 0.0
H2812 H 0.00718 0.0368 0.61787 0.0
H2813 H 0.97587 0.97852 0.7469 0.0
H2814 H 0.99548 0.98007 0.78358 0.0
H2815 H 0.99876 0.9639 0.7452 0.0
C2816 C 0.02788 0.38866 0.032 0.0
C2817 C 0.04405 0.40259 0.03225 0.0
C2818 C 0.01379 0.38868 1.00067 0.0
C2819 C 0.01572 0.40311 0.96893 0.0
C2820 C 0.03235 0.41669 0.96875 0.0
C2821 C 0.04625 0.41613 0.99999 0.0
C2822 C 0.99657 0.37361 1.00187 0.0
C2823 C 0.03522 0.43238 0.93587 0.0
C2824 C 0.99164 0.39556 0.87138 0.0
C2825 C 0.97527 0.40992 0.86831 0.0
C2826 C 0.00419 0.39239 0.90449 0.0
C2827 C 0.00068 0.4041 0.93555 0.0
C2828 C 0.98383 0.41818 0.93308 0.0
C2829 C 0.97124 0.42076 0.89972 0.0
C2830 C 0.02163 0.3769 0.90577 0.0
C2831 C 0.97953 0.43121 0.96516 0.0
H2832 H 0.02582 0.37827 0.0567 0.0
H2833 H 0.05865 0.42696 0.99948 0.0
H2834 H 0.98226 0.38271 1.00127 0.0
H2835 H 0.99587 0.36431 0.97686 0.0
H2836 H 0.99781 0.36246 0.0273 0.0
H2837 H 0.04888 0.44194 0.94008 0.0
H2838 H 0.03634 0.42392 0.91015 0.0
H2839 H 0.02205 0.44333 0.93107 0.0
H2840 H 0.99479 0.38679 0.84763 0.0
H2841 H 0.95864 0.43182 0.89786 0.0
H2842 H 0.02181 0.36592 0.93131 0.0
H2843 H 0.03588 0.38564 0.90699 0.0
H2844 H 0.02114 0.36741 0.88096 0.0
H2845 H 0.97903 0.42084 0.99131 0.0
H2846 H 0.96515 0.44027 0.96005 0.0
H2847 H 0.99179 0.44257 0.96966 0.0
C2848 C 0.80754 0.71069 1.0064 0.0
C2849 C 0.80739 0.68864 1.0041 0.0
C2850 C 0.80633 0.71959 0.04088 0.0
C2851 C 0.8047 0.70616 0.07378 0.0
C2852 C 0.80469 0.68392 0.07167 0.0
C2853 C 0.80615 0.67544 0.037 0.0
C2854 C 0.80652 0.74339 0.04197 0.0
C2855 C 0.80291 0.66906 0.10609 0.0
C2856 C 0.81843 0.72639 0.16904 0.0
C2857 C 0.79957 0.73146 0.18098 0.0
C2858 C 0.82033 0.71844 0.13398 0.0
C2859 C 0.80293 0.71525 0.11051 0.0
C2860 C 0.78385 0.72022 0.12266 0.0
C2861 C 0.78244 0.72848 0.15751 0.0
C2862 C 0.84094 0.71345 0.12203 0.0
C2863 C 0.76485 0.71701 0.09896 0.0
H2864 H 0.80842 0.72104 0.98121 0.0
H2865 H 0.80615 0.65839 0.03577 0.0
H2866 H 0.79126 0.74927 0.04647 0.0
H2867 H 0.81669 0.74808 0.0655 0.0
H2868 H 0.81134 0.75136 1.01563 0.0
H2869 H 0.80197 0.65224 0.09949 0.0
H2870 H 0.81607 0.67067 0.12609 0.0
H2871 H 0.78938 0.67323 0.12033 0.0
H2872 H 0.83174 0.72886 0.187 0.0
H2873 H 0.76782 0.73222 0.16678 0.0
H2874 H 0.84334 0.72244 0.09509 0.0
H2875 H 0.84227 0.69635 0.11746 0.0
H2876 H 0.85299 0.71738 0.14305 0.0
H2877 H 0.76312 0.73004 0.0766 0.0
H2878 H 0.75142 0.71727 0.11541 0.0
H2879 H 0.76538 0.70174 0.08576 0.0
C2880 C 0.5307 0.57424 0.37217 0.0
C2881 C 0.52628 0.58424 0.33634 0.0
C2882 C 0.51795 0.57666 0.40124 0.0
C2883 C 0.50049 0.58977 0.39471 0.0
C2884 C 0.49646 0.60065 0.35904 0.0
C2885 C 0.50923 0.59758 0.33029 0.0
C2886 C 0.52273 0.56444 0.43851 0.0
C2887 C 0.47829 0.61507 0.35086 0.0
C2888 C 0.4564 0.57526 0.45248 0.0
C2889 C 0.45823 0.58909 0.48137 0.0
C2890 C 0.46981 0.57559 0.42412 0.0
C2891 C 0.48548 0.59037 0.42384 0.0
C2892 C 0.48691 0.60511 0.4518 0.0
C2893 C 0.47336 0.60424 0.48035 0.0
C2894 C 0.46758 0.55948 0.39518 0.0
C2895 C 0.50312 0.62142 0.45215 0.0
H2896 H 0.54378 0.56387 0.3772 0.0
H2897 H 0.50575 0.60559 0.30287 0.0
H2898 H 0.52289 0.57531 0.46134 0.0
H2899 H 0.5109 0.55268 0.44367 0.0
H2900 H 0.53741 0.55592 0.43991 0.0
H2901 H 0.47843 0.62417 0.32326 0.0
H2902 H 0.46452 0.60553 0.35108 0.0
H2903 H 0.47744 0.6264 0.37283 0.0
H2904 H 0.44476 0.56354 0.45256 0.0
H2905 H 0.47503 0.61495 0.50246 0.0
H2906 H 0.4812 0.54916 0.39689 0.0
H2907 H 0.46607 0.5676 0.36671 0.0
H2908 H 0.45438 0.54929 0.39886 0.0
H2909 H 0.51795 0.61339 0.458 0.0
H2910 H 0.50121 0.63292 0.47358 0.0
H2911 H 0.50321 0.63026 0.42434 0.0
C2912 C 0.67818 0.20364 0.7155 0.0
C2913 C 0.66904 0.20788 0.74825 0.0
C2914 C 0.67731 0.21831 0.68432 0.0
C2915 C 0.66664 0.23769 0.68523 0.0
C2916 C 0.65672 0.24186 0.71755 0.0
C2917 C 0.65819 0.22698 0.74889 0.0
C2918 C 0.68836 0.21325 0.65071 0.0
C2919 C 0.64485 0.26218 0.71923 0.0
C2920 C 0.68306 0.28141 0.61631 0.0
C2921 C 0.6698 0.27897 0.58505 0.0
C2922 C 0.68167 0.26872 0.64976 0.0
C2923 C 0.66639 0.25351 0.65228 0.0
C2924 C 0.65233 0.25178 0.62145 0.0
C2925 C 0.65433 0.26435 0.58809 0.0
C2926 C 0.69718 0.27087 0.6817 0.0
C2927 C 0.63556 0.23611 0.62323 0.0
H2928 H 0.68666 0.189 0.71442 0.0
H2929 H 0.65111 0.23045 0.77397 0.0
H2930 H 0.67779 0.21348 0.62556 0.0
H2931 H 0.69969 0.22551 0.64515 0.0
H2932 H 0.69608 0.1975 0.65458 0.0
H2933 H 0.63678 0.26235 0.74515 0.0
H2934 H 0.65502 0.27586 0.71799 0.0
H2935 H 0.63381 0.26446 0.69474 0.0
H2936 H 0.69499 0.29275 0.61428 0.0
H2937 H 0.64379 0.26264 0.5643 0.0
H2938 H 0.70675 0.2563 0.68576 0.0
H2939 H 0.68989 0.27254 0.70808 0.0
H2940 H 0.70694 0.2847 0.67661 0.0
H2941 H 0.64181 0.21974 0.62395 0.0
H2942 H 0.62445 0.23858 0.59883 0.0
H2943 H 0.62773 0.23737 0.64918 0.0
C2944 C 0.98632 0.61736 0.98004 0.0
C2945 C 0.96975 0.60673 0.99362 0.0
C2946 C 0.99087 0.61673 0.94267 0.0
C2947 C 0.97867 0.60503 0.91821 0.0
C2948 C 0.96186 0.59435 0.93158 0.0
C2949 C 0.95756 0.59539 0.96908 0.0
C2950 C 0.00892 0.62838 0.92949 0.0
C2951 C 0.94851 0.5817 0.90634 0.0
C2952 C 0.98192 0.61952 0.81448 0.0
C2953 C 0.99558 0.60417 0.80485 0.0
C2954 C 0.97587 0.61964 0.85103 0.0
C2955 C 0.98365 0.60403 0.87867 0.0
C2956 C 0.99704 0.58815 0.86892 0.0
C2957 C 0.00286 0.58843 0.83214 0.0
C2958 C 0.96163 0.63688 0.86034 0.0
C2959 C 0.00556 0.57115 0.89753 0.0
H2960 H 0.99606 0.62582 0.99889 0.0
H2961 H 0.9446 0.58732 0.97918 0.0
H2962 H 0.01977 0.61698 0.91969 0.0
H2963 H 0.00435 0.63983 0.90544 0.0
H2964 H 0.01662 0.63713 0.95181 0.0
H2965 H 0.93606 0.57424 0.92108 0.0
H2966 H 0.94206 0.59211 0.88218 0.0
H2967 H 0.95742 0.56906 0.89501 0.0
H2968 H 0.97642 0.63188 0.79367 0.0
H2969 H 0.01319 0.57634 0.82476 0.0
H2970 H 0.9693 0.64702 0.88055 0.0
H2971 H 0.94863 0.62983 0.87384 0.0
H2972 H 0.95601 0.64708 0.83521 0.0
H2973 H 0.0148 0.57849 0.91972 0.0
H2974 H 0.015 0.55935 0.88504 0.0
H2975 H 0.99327 0.56272 0.91115 0.0
C2976 C 0.68092 0.72451 0.3747 0.0
C2977 C 0.69341 0.7064 0.38146 0.0
C2978 C 0.67749 0.73479 0.33843 0.0
C2979 C 0.68685 0.727 0.30779 0.0
C2980 C 0.69968 0.70887 0.31461 0.0
C2981 C 0.70266 0.69878 0.35103 0.0
C2982 C 0.66344 0.75379 0.33276 0.0
C2983 C 0.7102 0.69996 0.28329 0.0
C2984 C 0.66326 0.73953 0.20782 0.0
C2985 C 0.6749 0.75628 0.19368 0.0
C2986 C 0.66687 0.73011 0.24462 0.0
C2987 C 0.68271 0.73727 0.2685 0.0
C2988 C 0.69465 0.75404 0.2545 0.0
C2989 C 0.69059 0.76332 0.2176 0.0
C2990 C 0.65371 0.71231 0.25791 0.0
C2991 C 0.71174 0.76227 0.27861 0.0
H2992 H 0.67348 0.73046 0.39771 0.0
H2993 H 0.71237 0.68484 0.35566 0.0
H2994 H 0.67082 0.76731 0.31823 0.0
H2995 H 0.65008 0.74993 0.31471 0.0
H2996 H 0.65841 0.75884 0.35957 0.0
H2997 H 0.72023 0.68626 0.29322 0.0
H2998 H 0.699 0.69475 0.26186 0.0
H2999 H 0.7192 0.71242 0.26943 0.0
H3000 H 0.65136 0.73346 0.18988 0.0
H3001 H 0.69963 0.77636 0.20773 0.0
H3002 H 0.64681 0.71631 0.28371 0.0
H3003 H 0.66287 0.69763 0.265 0.0
H3004 H 0.6416 0.70896 0.23659 0.0
H3005 H 0.70594 0.76875 0.30366 0.0
H3006 H 0.72005 0.77488 0.26348 0.0
H3007 H 0.72235 0.74911 0.28861 0.0
C3008 C 0.51925 0.38896 0.51338 0.0
C3009 C 0.53142 0.37205 0.52977 0.0
C3010 C 0.5137 0.39072 0.47488 0.0
C3011 C 0.52045 0.37519 0.45203 0.0
C3012 C 0.53292 0.3582 0.46828 0.0
C3013 C 0.53823 0.35681 0.50693 0.0
C3014 C 0.50034 0.40906 0.45876 0.0
C3015 C 0.54054 0.34138 0.44488 0.0
C3016 C 0.48996 0.36812 0.36061 0.0
C3017 C 0.50121 0.37921 0.33431 0.0
C3018 C 0.49611 0.36661 0.39887 0.0
C3019 C 0.51396 0.37644 0.41133 0.0
C3020 C 0.52541 0.38767 0.38498 0.0
C3021 C 0.51892 0.3889 0.34682 0.0
C3022 C 0.48349 0.35444 0.42598 0.0
C3023 C 0.54446 0.39849 0.39713 0.0
H3024 H 0.5137 0.40066 0.53084 0.0
H3025 H 0.54786 0.34387 0.51926 0.0
H3026 H 0.50758 0.418 0.43582 0.0
H3027 H 0.48605 0.403 0.44661 0.0
H3028 H 0.4969 0.42016 0.48006 0.0
H3029 H 0.55048 0.32948 0.46157 0.0
H3030 H 0.52773 0.33305 0.43172 0.0
H3031 H 0.54893 0.34882 0.42198 0.0
H3032 H 0.47644 0.36029 0.35119 0.0
H3033 H 0.5276 0.39768 0.32678 0.0
H3034 H 0.47853 0.365 0.44697 0.0
H3035 H 0.49252 0.34133 0.44136 0.0
H3036 H 0.47005 0.34765 0.41181 0.0
H3037 H 0.54118 0.41059 0.41677 0.0
H3038 H 0.55179 0.40634 0.37316 0.0
H3039 H 0.55516 0.38677 0.41228 0.0
C3040 C 0.84966 0.2441 0.75136 0.0
C3041 C 0.8351 0.25867 0.76066 0.0
C3042 C 0.85045 0.23796 0.71463 0.0
C3043 C 0.83635 0.24652 0.68606 0.0
C3044 C 0.82148 0.26106 0.69525 0.0
C3045 C 0.82106 0.26698 0.73227 0.0
C3046 C 0.86666 0.22254 0.70627 0.0
C3047 C 0.80608 0.27052 0.66587 0.0
C3048 C 0.8517 0.24666 0.5856 0.0
C3049 C 0.8422 0.22865 0.57263 0.0
C3050 C 0.84967 0.25278 0.62204 0.0
C3051 C 0.8377 0.24076 0.64646 0.0
C3052 C 0.82769 0.22284 0.63336 0.0
C3053 C 0.83008 0.217 0.59679 0.0
C3054 C 0.8606 0.27201 0.63458 0.0
C3055 C 0.81473 0.20957 0.65825 0.0
H3056 H 0.86081 0.23779 0.77272 0.0
H3057 H 0.80959 0.27803 0.73905 0.0
H3058 H 0.8599 0.20866 0.69345 0.0
H3059 H 0.87642 0.23024 0.68579 0.0
H3060 H 0.87611 0.21679 0.73171 0.0
H3061 H 0.79515 0.28112 0.67759 0.0
H3062 H 0.81362 0.27975 0.64365 0.0
H3063 H 0.79779 0.25771 0.65244 0.0
H3064 H 0.86077 0.25611 0.56716 0.0
H3065 H 0.82279 0.20295 0.58747 0.0
H3066 H 0.87135 0.26729 0.65872 0.0
H3067 H 0.84984 0.2836 0.64405 0.0
H3068 H 0.86894 0.27997 0.61205 0.0
H3069 H 0.82402 0.20218 0.68263 0.0
H3070 H 0.80711 0.19682 0.64338 0.0
H3071 H 0.8032 0.21973 0.66923 0.0
C3072 C 0.03285 0.57458 0.46139 0.0
C3073 C 0.02917 0.58692 0.49117 0.0
C3074 C 0.02015 0.57599 0.42816 0.0
C3075 C 0.00342 0.59027 0.42424 0.0
C3076 C 0.00017 0.60335 0.45363 0.0
C3077 C 0.01293 0.60145 0.48659 0.0
C3078 C 0.02421 0.56161 0.3978 0.0
C3079 C 0.9828 0.61899 0.45077 0.0
C3080 C 0.97656 0.60383 0.32716 0.0
C3081 C 0.95999 0.59044 0.32791 0.0
C3082 C 0.99073 0.60408 0.3582 0.0
C3083 C 0.98849 0.59049 0.39083 0.0
C3084 C 0.97161 0.57726 0.39193 0.0
C3085 C 0.95762 0.57751 0.3608 0.0
C3086 C 0.0083 0.61867 0.35588 0.0
C3087 C 0.96847 0.56245 0.42584 0.0
H3088 H 0.04529 0.5633 0.46444 0.0
H3089 H 0.00996 0.61126 0.5091 0.0
H3090 H 0.0119 0.55017 0.39492 0.0
H3091 H 0.02464 0.57097 0.37056 0.0
H3092 H 0.03858 0.55258 0.40372 0.0
H3093 H 0.98323 0.62923 0.47459 0.0
H3094 H 0.98278 0.62926 0.4244 0.0
H3095 H 0.9685 0.61033 0.45011 0.0
H3096 H 0.97874 0.61378 0.30199 0.0
H3097 H 0.94499 0.56703 0.36205 0.0
H3098 H 0.02246 0.60921 0.35844 0.0
H3099 H 0.00881 0.62907 0.37943 0.0
H3100 H 0.00762 0.62878 0.32921 0.0
H3101 H 0.98151 0.5514 0.43167 0.0
H3102 H 0.95471 0.55299 0.42221 0.0
H3103 H 0.96736 0.57164 0.45072 0.0
C3104 C 0.1898 0.30443 0.34165 0.0
C3105 C 0.17826 0.29841 0.37166 0.0
C3106 C 0.18805 0.29417 0.30843 0.0
C3107 C 0.17424 0.27761 0.30483 0.0
C3108 C 0.16281 0.27115 0.33524 0.0
C3109 C 0.16504 0.28157 0.36843 0.0
C3110 C 0.20075 0.30137 0.27694 0.0
C3111 C 0.14782 0.25366 0.3323 0.0
C3112 C 0.1544 0.2685 0.20603 0.0
C3113 C 0.16557 0.25061 0.19832 0.0
C3114 C 0.15686 0.27718 0.24078 0.0
C3115 C 0.17101 0.26791 0.2685 0.0
C3116 C 0.18241 0.24989 0.26101 0.0
C3117 C 0.17949 0.2414 0.22607 0.0
C3118 C 0.14451 0.2965 0.24758 0.0
C3119 C 0.19777 0.23969 0.28981 0.0
H3120 H 0.20025 0.31727 0.34397 0.0
H3121 H 0.1561 0.27683 0.3915 0.0
H3122 H 0.20913 0.28768 0.26773 0.0
H3123 H 0.191 0.30807 0.25259 0.0
H3124 H 0.21162 0.31361 0.28508 0.0
H3125 H 0.14076 0.24987 0.35897 0.0
H3126 H 0.13589 0.25843 0.31021 0.0
H3127 H 0.15518 0.23907 0.32406 0.0
H3128 H 0.1439 0.276 0.18462 0.0
H3129 H 0.18802 0.22741 0.2206 0.0
H3130 H 0.15448 0.31012 0.25161 0.0
H3131 H 0.13656 0.29359 0.27347 0.0
H3132 H 0.13329 0.30099 0.22402 0.0
H3133 H 0.20912 0.25145 0.29785 0.0
H3134 H 0.20555 0.22589 0.27951 0.0
H3135 H 0.19045 0.23432 0.31549 0.0
C3136 C 0.47057 0.41263 0.96817 0.0
C3137 C 0.47405 0.40057 1.00245 0.0
C3138 C 0.48301 0.41041 0.93856 0.0
C3139 C 0.4992 0.39551 0.94291 0.0
C3140 C 0.50229 0.38273 0.97695 0.0
C3141 C 0.48984 0.38552 1.00628 0.0
C3142 C 0.47924 0.42459 0.90307 0.0
C3143 C 0.5191 0.36642 0.98275 0.0
C3144 C 0.52411 0.38172 0.85453 0.0
C3145 C 0.54079 0.39495 0.85516 0.0
C3146 C 0.51071 0.38126 0.88329 0.0
C3147 C 0.51385 0.39456 0.9132 0.0
C3148 C 0.53096 0.40745 0.91447 0.0
C3149 C 0.5442 0.40734 0.88584 0.0
C3150 C 0.49289 0.36699 0.88114 0.0
C3151 C 0.53496 0.42202 0.94547 0.0
H3152 H 0.45845 0.4243 0.96477 0.0
H3153 H 0.49258 0.37592 0.0324 0.0
H3154 H 0.49214 0.43517 0.8994 0.0
H3155 H 0.47787 0.41494 0.87855 0.0
H3156 H 0.46545 0.43455 0.9032 0.0
H3157 H 0.51841 0.3564 1.00932 0.0
H3158 H 0.51863 0.35599 0.95925 0.0
H3159 H 0.53371 0.37448 0.98322 0.0
H3160 H 0.52118 0.37215 0.83105 0.0
H3161 H 0.55696 0.41768 0.88699 0.0
H3162 H 0.4789 0.37674 0.87703 0.0
H3163 H 0.4922 0.35707 0.90776 0.0
H3164 H 0.49334 0.35643 0.85787 0.0
H3165 H 0.54898 0.431 0.94256 0.0
H3166 H 0.53607 0.41275 0.97295 0.0
H3167 H 0.52232 0.43353 0.94561 0.0
C3168 C 0.35347 0.76256 0.60007 0.0
C3169 C 0.33964 0.77956 0.59684 0.0
C3170 C 0.35528 0.74857 0.63255 0.0
C3171 C 0.34284 0.75164 0.66211 0.0
C3172 C 0.32962 0.76939 0.65963 0.0
C3173 C 0.32832 0.78316 0.62728 0.0
C3174 C 0.3698 0.73001 0.63456 0.0
C3175 C 0.31601 0.77327 0.69035 0.0
C3176 C 0.32605 0.70594 0.726 0.0
C3177 C 0.33671 0.70938 0.7599 0.0
C3178 C 0.32863 0.71896 0.69347 0.0
C3179 C 0.3424 0.73573 0.69468 0.0
C3180 C 0.35391 0.73867 0.72834 0.0
C3181 C 0.35083 0.72556 0.76062 0.0
C3182 C 0.31589 0.71537 0.65827 0.0
C3183 C 0.36898 0.75613 0.73059 0.0
H3184 H 0.36227 0.75967 0.57673 0.0
H3185 H 0.31776 0.79641 0.62537 0.0
H3186 H 0.37883 0.72878 0.66171 0.0
H3187 H 0.3614 0.7151 0.6327 0.0
H3188 H 0.38009 0.7313 0.6116 0.0
H3189 H 0.30714 0.78828 0.68467 0.0
H3190 H 0.30548 0.75998 0.69349 0.0
H3191 H 0.3249 0.77389 0.7174 0.0
H3192 H 0.31528 0.69334 0.72496 0.0
H3193 H 0.3594 0.72814 0.78651 0.0
H3194 H 0.32527 0.71497 0.63412 0.0
H3195 H 0.30493 0.7287 0.65204 0.0
H3196 H 0.30754 0.70035 0.66084 0.0
H3197 H 0.37879 0.75604 0.70699 0.0
H3198 H 0.37849 0.75464 0.75724 0.0
H3199 H 0.36105 0.77174 0.72836 0.0
C3200 C 0.02396 0.37454 0.38522 0.0
C3201 C 0.0306 0.39137 0.36191 0.0
C3202 C 0.01917 0.37752 0.42185 0.0
C3203 C 0.02119 0.39781 0.43574 0.0
C3204 C 0.02791 0.41488 0.41244 0.0
C3205 C 0.03248 0.41148 0.3758 0.0
C3206 C 0.01209 0.35887 0.44582 0.0
C3207 C 0.0303 0.43673 0.42623 0.0
C3208 C 0.99213 0.40696 0.52043 0.0
C3209 C 0.00675 0.4023 0.54986 0.0
C3210 C 0.99677 0.40631 0.48304 0.0
C3211 C 0.01651 0.40091 0.47488 0.0
C3212 C 0.03151 0.39707 0.50442 0.0
C3213 C 0.02645 0.39779 0.54152 0.0
C3214 C 0.98035 0.41051 0.45235 0.0
C3215 C 0.05278 0.39147 0.49691 0.0
H3216 H 0.02276 0.35889 0.375 0.0
H3217 H 0.03733 0.42466 0.35786 0.0
H3218 H 0.02259 0.35567 0.4709 0.0
H3219 H 0.99721 0.36259 0.45572 0.0
H3220 H 0.01094 0.34424 0.43059 0.0
H3221 H 0.03591 0.44827 0.40477 0.0
H3222 H 0.01571 0.4427 0.43446 0.0
H3223 H 0.04087 0.43603 0.45144 0.0
H3224 H 0.97685 0.41029 0.52664 0.0
H3225 H 0.03789 0.39451 0.56411 0.0
H3226 H 0.97726 0.39573 0.43838 0.0
H3227 H 0.98513 0.42249 0.43082 0.0
H3228 H 0.96624 0.41622 0.46309 0.0
H3229 H 0.05317 0.37598 0.48438 0.0
H3230 H 0.06296 0.39043 0.52273 0.0
H3231 H 0.05857 0.40346 0.4765 0.0
C3232 C 0.30849 0.30303 1.01203 0.0
C3233 C 0.31439 0.2925 0.98144 0.0
C3234 C 0.31118 0.29356 0.0489 0.0
C3235 C 0.32048 0.2732 0.05578 0.0
C3236 C 0.32672 0.26266 0.02499 0.0
C3237 C 0.32346 0.2723 0.98837 0.0
C3238 C 0.30381 0.30527 0.08048 0.0
C3239 C 0.33689 0.24111 0.03069 0.0
C3240 C 0.34488 0.25699 0.15369 0.0
C3241 C 0.33098 0.24291 0.16883 0.0
C3242 C 0.34164 0.26691 0.11722 0.0
C3243 C 0.3239 0.26301 0.09508 0.0
C3244 C 0.30966 0.24904 0.11034 0.0
C3245 C 0.31344 0.23907 0.1467 0.0
C3246 C 0.35741 0.28136 0.10213 0.0
C3247 C 0.2904 0.24454 0.08821 0.0
H3248 H 0.30119 0.31846 1.00709 0.0
H3249 H 0.32813 0.26401 0.96505 0.0
H3250 H 0.29396 0.29497 0.09722 0.0
H3251 H 0.31671 0.30943 0.0994 0.0
H3252 H 0.29536 0.32005 0.07033 0.0
H3253 H 0.3415 0.23531 1.00412 0.0
H3254 H 0.35034 0.24172 0.05038 0.0
H3255 H 0.32664 0.22946 0.04333 0.0
H3256 H 0.35859 0.25995 0.17015 0.0
H3257 H 0.30246 0.22843 0.15803 0.0
H3258 H 0.35089 0.29742 0.09434 0.0
H3259 H 0.36282 0.27529 0.0764 0.0
H3260 H 0.37042 0.28274 0.12264 0.0
H3261 H 0.2827 0.25959 0.07719 0.0
H3262 H 0.28001 0.23504 0.10515 0.0
H3263 H 0.29376 0.23568 0.06386 0.0
C3264 C 0.48358 0.61875 0.9924 0.0
C3265 C 0.49838 0.60411 1.00794 0.0
C3266 C 0.47688 0.61925 0.95444 0.0
C3267 C 0.48523 0.60484 0.93123 0.0
C3268 C 0.49994 0.5898 0.9468 0.0
C3269 C 0.5063 0.58959 0.98491 0.0
C3270 C 0.46118 0.63554 0.93899 0.0
C3271 C 0.50921 0.57414 0.92305 0.0
C3272 C 0.45783 0.59569 0.83742 0.0
C3273 C 0.46824 0.60889 0.81264 0.0
C3274 C 0.46312 0.59423 0.87607 0.0
C3275 C 0.47927 0.60619 0.89033 0.0
C3276 C 0.4898 0.61955 0.86544 0.0
C3277 C 0.48416 0.62075 0.82701 0.0
C3278 C 0.45143 0.57991 0.90165 0.0
C3279 C 0.50716 0.63249 0.8794 0.0
H3280 H 0.47754 0.63024 1.00972 0.0
H3281 H 0.5175 0.578 0.9967 0.0
H3282 H 0.46761 0.64669 0.91794 0.0
H3283 H 0.44844 0.62769 0.9246 0.0
H3284 H 0.45537 0.64482 0.96109 0.0
H3285 H 0.51997 0.56301 0.93962 0.0
H3286 H 0.49736 0.56481 0.90913 0.0
H3287 H 0.51719 0.58276 0.90073 0.0
H3288 H 0.44539 0.58664 0.82661 0.0
H3289 H 0.4925 0.63071 0.80804 0.0
H3290 H 0.44461 0.5893 0.92249 0.0
H3291 H 0.46162 0.56789 0.91735 0.0
H3292 H 0.43936 0.57158 0.88616 0.0
H3293 H 0.50219 0.64324 0.90009 0.0
H3294 H 0.51374 0.64218 0.85646 0.0
H3295 H 0.51904 0.62185 0.89382 0.0
C3296 C 0.15521 0.75338 0.73617 0.0
C3297 C 0.13914 0.76552 0.74691 0.0
C3298 C 0.15555 0.7468 0.6996 0.0
C3299 C 0.13948 0.75252 0.67279 0.0
C3300 C 0.12344 0.76513 0.68323 0.0
C3301 C 0.12345 0.77143 0.71999 0.0
C3302 C 0.17295 0.73334 0.68985 0.0
C3303 C 0.10607 0.77178 0.65564 0.0
C3304 C 0.14669 0.74981 0.56854 0.0
C3305 C 0.13771 0.73052 0.56083 0.0
C3306 C 0.14755 0.75706 0.60476 0.0
C3307 C 0.13913 0.74484 0.6342 0.0
C3308 C 0.13006 0.72536 0.6266 0.0
C3309 C 0.12948 0.71846 0.5902 0.0
C3310 C 0.15747 0.77783 0.61152 0.0
C3311 C 0.12078 0.71184 0.65693 0.0
H3312 H 0.16732 0.74851 0.7567 0.0
H3313 H 0.11112 0.78109 0.72764 0.0
H3314 H 0.16755 0.71762 0.6823 0.0
H3315 H 0.17985 0.74085 0.66514 0.0
H3316 H 0.18464 0.73092 0.71329 0.0
H3317 H 0.09501 0.78205 0.66774 0.0
H3318 H 0.11159 0.78048 0.63059 0.0
H3319 H 0.09833 0.75754 0.64614 0.0
H3320 H 0.15334 0.75914 0.5463 0.0
H3321 H 0.12224 0.7037 0.58461 0.0
H3322 H 0.16996 0.77526 0.63338 0.0
H3323 H 0.1466 0.78897 0.62195 0.0
H3324 H 0.16345 0.7854 0.58585 0.0
H3325 H 0.13212 0.70768 0.6804 0.0
H3326 H 0.11459 0.69696 0.64672 0.0
H3327 H 0.10855 0.72088 0.66822 0.0
C3328 C 0.49205 0.90106 0.37528 0.0
C3329 C 0.47555 0.91522 0.37066 0.0
C3330 C 0.50433 0.89884 0.40873 0.0
C3331 C 0.50037 0.91136 0.43852 0.0
C3332 C 0.48334 0.92523 0.43456 0.0
C3333 C 0.47104 0.92685 0.40085 0.0
C3334 C 0.52197 0.88354 0.41167 0.0
C3335 C 0.4786 0.93904 0.46534 0.0
C3336 C 0.52764 0.89751 0.5351 0.0
C3337 C 0.54407 0.91108 0.5342 0.0
C3338 C 0.51328 0.89736 0.50432 0.0
C3339 C 0.51517 0.91131 0.472 0.0
C3340 C 0.53182 0.92483 0.47089 0.0
C3341 C 0.54604 0.92439 0.5016 0.0
C3342 C 0.49602 0.88237 0.50645 0.0
C3343 C 0.53455 0.94007 0.43733 0.0
H3344 H 0.49551 0.89168 0.35247 0.0
H3345 H 0.45834 0.9378 0.39767 0.0
H3346 H 0.53611 0.89248 0.41258 0.0
H3347 H 0.52207 0.87316 0.43793 0.0
H3348 H 0.52183 0.87341 0.38773 0.0
H3349 H 0.46402 0.94765 0.45935 0.0
H3350 H 0.47824 0.92935 0.49225 0.0
H3351 H 0.49056 0.95084 0.4689 0.0
H3352 H 0.52581 0.88725 0.56006 0.0
H3353 H 0.55858 0.93498 0.50021 0.0
H3354 H 0.49582 0.87201 0.48286 0.0
H3355 H 0.48165 0.89148 0.50378 0.0
H3356 H 0.49683 0.87222 0.53308 0.0
H3357 H 0.53608 0.93116 0.41223 0.0
H3358 H 0.54796 0.95003 0.44126 0.0
H3359 H 0.52116 0.95065 0.43162 0.0
C3360 C 0.33394 0.21503 0.49422 0.0
C3361 C 0.32276 0.19659 0.49116 0.0
C3362 C 0.33463 0.22571 0.52726 0.0
C3363 C 0.32371 0.21785 0.55753 0.0
C3364 C 0.31234 0.19934 0.55438 0.0
C3365 C 0.31207 0.18896 0.52142 0.0
C3366 C 0.347 0.24536 0.52983 0.0
C3367 C 0.30032 0.19044 0.5858 0.0
C3368 C 0.33547 0.22915 0.65849 0.0
C3369 C 0.31997 0.24346 0.66413 0.0
C3370 C 0.33766 0.22169 0.62321 0.0
C3371 C 0.32399 0.22867 0.59286 0.0
C3372 C 0.30891 0.24388 0.59792 0.0
C3373 C 0.30708 0.25111 0.63352 0.0
C3374 C 0.35388 0.2054 0.61895 0.0
C3375 C 0.2939 0.25154 0.56635 0.0
H3376 H 0.34215 0.22108 0.47092 0.0
H3377 H 0.30308 0.17497 0.5193 0.0
H3378 H 0.33729 0.25904 0.53502 0.0
H3379 H 0.35836 0.2431 0.5538 0.0
H3380 H 0.35476 0.24933 0.50399 0.0
H3381 H 0.29132 0.17666 0.57785 0.0
H3382 H 0.31053 0.1853 0.61052 0.0
H3383 H 0.29003 0.2028 0.59434 0.0
H3384 H 0.34538 0.22303 0.68204 0.0
H3385 H 0.29528 0.26244 0.63756 0.0
H3386 H 0.36218 0.20985 0.59399 0.0
H3387 H 0.34701 0.18982 0.61474 0.0
H3388 H 0.3647 0.20351 0.64386 0.0
H3389 H 0.30155 0.25607 0.54065 0.0
H3390 H 0.28481 0.26531 0.57344 0.0
H3391 H 0.28363 0.23849 0.5599 0.0
C3392 C 0.95752 0.07742 0.94951 0.0
C3393 C 0.95998 0.09095 0.97879 0.0
C3394 C 0.97081 0.07738 0.92098 0.0
C3395 C 0.98702 0.09149 0.92089 0.0
C3396 C 0.98912 0.10597 0.94922 0.0
C3397 C 0.97568 0.10545 0.97794 0.0
C3398 C 0.96789 0.06156 0.8917 0.0
C3399 C 0.00593 0.12158 0.9498 0.0
C3400 C 0.03153 0.07371 0.86889 0.0
C3401 C 0.02746 0.08403 0.83319 0.0
C3402 C 0.01892 0.07655 0.898 0.0
C3403 C 0.00195 0.09038 0.89168 0.0
C3404 C 0.9983 0.10155 0.85616 0.0
C3405 C 0.01092 0.09809 0.82734 0.0
C3406 C 0.02329 0.064 0.93509 0.0
C3407 C 0.98067 0.11674 0.84823 0.0
H3408 H 0.94549 0.06616 0.94942 0.0
H3409 H 0.97787 0.11592 1.00032 0.0
H3410 H 0.96662 0.06986 0.86337 0.0
H3411 H 0.9811 0.05067 0.89316 0.0
H3412 H 0.9543 0.05193 0.89522 0.0
H3413 H 0.00449 0.13305 0.97142 0.0
H3414 H 0.02047 0.11293 0.95552 0.0
H3415 H 0.0063 0.13048 0.92211 0.0
H3416 H 0.04422 0.06279 0.8738 0.0
H3417 H 0.00772 0.10634 0.80005 0.0
H3418 H 0.01105 0.05271 0.94 0.0
H3419 H 0.02387 0.07473 0.95814 0.0
H3420 H 0.03767 0.0549 0.93636 0.0
H3421 H 0.96654 0.1078 0.8483 0.0
H3422 H 0.98111 0.12592 0.82077 0.0
H3423 H 0.9803 0.12799 0.87041 0.0
C3424 C 0.14771 0.75847 0.07093 0.0
C3425 C 0.16363 0.77267 0.0724 0.0
C3426 C 0.14357 0.7451 0.10231 0.0
C3427 C 0.15587 0.74561 0.13581 0.0
C3428 C 0.17182 0.76009 0.13761 0.0
C3429 C 0.17538 0.77359 0.10602 0.0
C3430 C 0.12617 0.73026 0.09948 0.0
C3431 C 0.18549 0.76096 0.17263 0.0
C3432 C 0.14207 0.7217 0.23081 0.0
C3433 C 0.15346 0.70278 0.23422 0.0
C3434 C 0.14169 0.73533 0.19793 0.0
C3435 C 0.15313 0.72998 0.16813 0.0
C3436 C 0.1634 0.71018 0.17048 0.0
C3437 C 0.16321 0.69676 0.20323 0.0
C3438 C 0.13012 0.75606 0.19609 0.0
C3439 C 0.17587 0.70379 0.13958 0.0
H3440 H 0.13831 0.7579 0.04526 0.0
H3441 H 0.18762 0.78458 0.10748 0.0
H3442 H 0.13176 0.71359 0.10223 0.0
H3443 H 0.11635 0.7322 0.12264 0.0
H3444 H 0.11706 0.733 0.0725 0.0
H3445 H 0.19686 0.77349 0.16984 0.0
H3446 H 0.17662 0.76398 0.19666 0.0
H3447 H 0.19336 0.74544 0.17925 0.0
H3448 H 0.13455 0.72654 0.25459 0.0
H3449 H 0.17183 0.68204 0.20539 0.0
H3450 H 0.12149 0.75898 0.16869 0.0
H3451 H 0.14071 0.76927 0.19893 0.0
H3452 H 0.11963 0.75642 0.21865 0.0
H3453 H 0.16688 0.70514 0.11242 0.0
H3454 H 0.18192 0.68731 0.14477 0.0
H3455 H 0.18864 0.71467 0.13702 0.0
C3456 C 0.48571 0.12274 0.31976 0.0
C3457 C 0.48916 0.104 0.3024 0.0
C3458 C 0.4795 0.12222 0.35628 0.0
C3459 C 0.47677 0.10246 0.37627 0.0
C3460 C 0.48 0.08346 0.35887 0.0
C3461 C 0.48613 0.08445 0.32217 0.0
C3462 C 0.47628 0.14287 0.37378 0.0
C3463 C 0.47729 0.06208 0.37925 0.0
C3464 C 0.48201 0.10319 0.482 0.0
C3465 C 0.46199 0.10415 0.49099 0.0
C3466 C 0.48698 0.10198 0.44496 0.0
C3467 C 0.47156 0.10183 0.416 0.0
C3468 C 0.45128 0.10225 0.42498 0.0
C3469 C 0.44673 0.10331 0.46242 0.0
C3470 C 0.50878 0.10134 0.43673 0.0
C3471 C 0.4344 0.10223 0.39493 0.0
H3472 H 0.48833 0.13793 0.30509 0.0
H3473 H 0.48849 0.06988 0.30889 0.0
H3474 H 0.46109 0.14351 0.38415 0.0
H3475 H 0.4872 0.14393 0.39819 0.0
H3476 H 0.47803 0.15689 0.35387 0.0
H3477 H 0.47963 0.04881 0.36136 0.0
H3478 H 0.48803 0.06004 0.4042 0.0
H3479 H 0.46202 0.06105 0.38929 0.0
H3480 H 0.49386 0.10345 0.50407 0.0
H3481 H 0.43123 0.10414 0.4692 0.0
H3482 H 0.51232 0.11576 0.41913 0.0
H3483 H 0.51191 0.08747 0.42075 0.0
H3484 H 0.51895 0.10043 0.46257 0.0
H3485 H 0.4348 0.11689 0.37607 0.0
H3486 H 0.4195 0.10136 0.40667 0.0
H3487 H 0.43623 0.08861 0.37766 0.0
C3488 C 0.15563 0.24479 0.71282 0.0
C3489 C 0.16852 0.26035 0.6986 0.0
C3490 C 0.15852 0.23544 0.74977 0.0
C3491 C 0.17484 0.24148 0.77369 0.0
C3492 C 0.18801 0.25707 0.75963 0.0
C3493 C 0.18468 0.2663 0.72257 0.0
C3494 C 0.14404 0.21896 0.76321 0.0
C3495 C 0.2057 0.26398 0.78377 0.0
C3496 C 0.17207 0.22982 0.87983 0.0
C3497 C 0.18321 0.21077 0.88704 0.0
C3498 C 0.16945 0.24007 0.84344 0.0
C3499 C 0.17822 0.23125 0.8131 0.0
C3500 C 0.18973 0.2122 0.82034 0.0
C3501 C 0.19202 0.20224 0.8569 0.0
C3502 C 0.15698 0.26023 0.83733 0.0
C3503 C 0.19952 0.20214 0.7893 0.0
H3504 H 0.14332 0.23957 0.69483 0.0
H3505 H 0.19468 0.27842 0.71259 0.0
H3506 H 0.15211 0.2037 0.77124 0.0
H3507 H 0.13723 0.22397 0.78848 0.0
H3508 H 0.13185 0.21625 0.74163 0.0
H3509 H 0.2146 0.2762 0.76892 0.0
H3510 H 0.20051 0.27049 0.8093 0.0
H3511 H 0.21563 0.25012 0.79301 0.0
H3512 H 0.16519 0.23669 0.90263 0.0
H3513 H 0.20069 0.18758 0.86175 0.0
H3514 H 0.14388 0.25788 0.81754 0.0
H3515 H 0.16587 0.27316 0.82457 0.0
H3516 H 0.1515 0.26538 0.86373 0.0
H3517 H 0.18791 0.19754 0.76806 0.0
H3518 H 0.20866 0.18783 0.79958 0.0
H3519 H 0.2093 0.21372 0.77508 0.0
C3520 C 0.01854 0.89764 1.00494 0.0
C3521 C 0.03061 0.88059 0.02105 0.0
C3522 C 0.01325 0.89976 0.9664 0.0
C3523 C 0.02013 0.88442 0.94334 0.0
C3524 C 0.0327 0.86744 0.95925 0.0
C3525 C 0.03779 0.86572 0.99792 0.0
C3526 C -0.00016 0.91811 0.95055 0.0
C3527 C 0.04043 0.85083 0.93554 0.0
C3528 C 0.9891 0.87694 0.85293 0.0
C3529 C 0.00014 0.888 0.82631 0.0
C3530 C 0.9955 0.8756 0.89103 0.0
C3531 C 0.01336 0.88561 0.90289 0.0
C3532 C 0.02453 0.8969 0.87622 0.0
C3533 C 0.01781 0.89793 0.83823 0.0
C3534 C 0.98318 0.86335 0.91857 0.0
C3535 C 0.04356 0.90793 0.88783 0.0
H3536 H 0.01272 0.90906 0.02265 0.0
H3537 H 0.04737 0.8527 1.0101 0.0
H3538 H 0.0068 0.92691 0.92711 0.0
H3539 H 0.98538 0.91205 0.93918 0.0
H3540 H 0.99675 0.92935 0.97185 0.0
H3541 H 0.05081 0.8392 0.95187 0.0
H3542 H 0.02769 0.84214 0.92301 0.0
H3543 H 0.04836 0.85847 0.91219 0.0
H3544 H 0.9756 0.86895 0.84388 0.0
H3545 H 0.0263 0.90668 0.81785 0.0
H3546 H 0.97833 0.87389 0.93969 0.0
H3547 H 0.9924 0.85031 0.93374 0.0
H3548 H 0.96968 0.85645 0.90481 0.0
H3549 H 0.04035 0.91995 0.90767 0.0
H3550 H 0.05059 0.91593 0.86363 0.0
H3551 H 0.05449 0.89632 0.90259 0.0
C3552 C 0.36612 0.74099 0.26067 0.0
C3553 C 0.35095 0.7545 0.27102 0.0
C3554 C 0.36629 0.73448 0.22409 0.0
C3555 C 0.35097 0.74168 0.19673 0.0
C3556 C 0.33553 0.75519 0.20695 0.0
C3557 C 0.33569 0.76141 0.24383 0.0
C3558 C 0.38309 0.72012 0.21458 0.0
C3559 C 0.31888 0.76324 0.17881 0.0
C3560 C 0.36351 0.74175 0.09469 0.0
C3561 C 0.35463 0.72306 0.08334 0.0
C3562 C 0.36212 0.74813 0.13111 0.0
C3563 C 0.35157 0.73558 0.15722 0.0
C3564 C 0.34225 0.7169 0.14581 0.0
C3565 C 0.34387 0.71089 0.10913 0.0
C3566 C 0.37217 0.76824 0.1418 0.0
C3567 C 0.33089 0.703 0.1726 0.0
H3568 H 0.37819 0.73578 0.28105 0.0
H3569 H 0.32372 0.7716 0.25143 0.0
H3570 H 0.3769 0.70565 0.20289 0.0
H3571 H 0.39178 0.72832 0.19284 0.0
H3572 H 0.39348 0.71528 0.23927 0.0
H3573 H 0.30776 0.77329 0.19125 0.0
H3574 H 0.32521 0.77267 0.15535 0.0
H3575 H 0.31103 0.7497 0.16688 0.0
H3576 H 0.37153 0.75154 0.07494 0.0
H3577 H 0.33708 0.69634 0.10094 0.0
H3578 H 0.38383 0.7645 0.16488 0.0
H3579 H 0.36109 0.77918 0.15214 0.0
H3580 H 0.3793 0.77657 0.11803 0.0
H3581 H 0.34123 0.69651 0.19625 0.0
H3582 H 0.32368 0.68956 0.15902 0.0
H3583 H 0.31916 0.71247 0.1845 0.0
C3584 C 0.45131 0.07842 0.85912 0.0
C3585 C 0.45352 0.09138 0.82614 0.0
C3586 C 0.46526 0.07832 0.89029 0.0
C3587 C 0.48196 0.0918 0.88936 0.0
C3588 C 0.4839 0.10564 0.85685 0.0
C3589 C 0.46978 0.10519 0.82562 0.0
C3590 C 0.46238 0.0632 0.92393 0.0
C3591 C 0.5012 0.12059 0.85472 0.0
C3592 C 0.50666 0.10116 0.98596 0.0
C3593 C 0.52306 0.08682 0.98958 0.0
C3594 C 0.49385 0.10365 0.95302 0.0
C3595 C 0.49712 0.09128 0.92265 0.0
C3596 C 0.51397 0.07716 0.92568 0.0
C3597 C 0.52678 0.07524 0.95883 0.0
C3598 C 0.47643 0.11919 0.95117 0.0
C3599 C 0.51806 0.06345 0.89439 0.0
H3600 H 0.4389 0.06764 0.86026 0.0
H3601 H 0.47189 0.11512 0.8004 0.0
H3602 H 0.47548 0.05218 0.92915 0.0
H3603 H 0.4614 0.07212 0.94916 0.0
H3604 H 0.44865 0.05369 0.92035 0.0
H3605 H 0.49996 0.13132 0.82875 0.0
H3606 H 0.50199 0.13034 0.87915 0.0
H3607 H 0.51546 0.11137 0.8557 0.0
H3608 H 0.50368 0.11047 1.00912 0.0
H3609 H 0.53939 0.06418 0.96103 0.0
H3610 H 0.46217 0.11048 0.95047 0.0
H3611 H 0.47622 0.12979 0.92515 0.0
H3612 H 0.47699 0.12909 0.97546 0.0
H3613 H 0.50578 0.05202 0.89088 0.0
H3614 H 0.53246 0.05444 0.89974 0.0
H3615 H 0.51841 0.07332 0.86766 0.0
C3616 C 0.65647 0.76234 0.70328 0.0
C3617 C 0.67351 0.75204 0.69212 0.0
C3618 C 0.65677 0.77159 0.73761 0.0
C3619 C 0.67457 0.77061 0.76137 0.0
C3620 C 0.69177 0.76003 0.7505 0.0
C3621 C 0.69102 0.75084 0.71606 0.0
C3622 C 0.63809 0.78263 0.74825 0.0
C3623 C 0.71109 0.75881 0.77494 0.0
C3624 C 0.68197 0.81288 0.83036 0.0
C3625 C 0.67754 0.80196 0.86411 0.0
C3626 C 0.68098 0.80289 0.79681 0.0
C3627 C 0.67542 0.78139 0.79686 0.0
C3628 C 0.6707 0.77031 0.83073 0.0
C3629 C 0.67177 0.78074 0.86397 0.0
C3630 C 0.68601 0.81536 0.76135 0.0
C3631 C 0.66466 0.74739 0.83187 0.0
H3632 H 0.64279 0.76303 0.68524 0.0
H3633 H 0.7043 0.74309 0.7075 0.0
H3634 H 0.63412 0.77629 0.7763 0.0
H3635 H 0.64086 0.7998 0.74984 0.0
H3636 H 0.62511 0.78078 0.72789 0.0
H3637 H 0.72291 0.7494 0.7631 0.0
H3638 H 0.71667 0.77502 0.77846 0.0
H3639 H 0.70848 0.75156 0.80318 0.0
H3640 H 0.68623 0.82936 0.83003 0.0
H3641 H 0.66836 0.77219 0.8899 0.0
H3642 H 0.67288 0.81611 0.74071 0.0
H3643 H 0.6984 0.80732 0.74867 0.0
H3644 H 0.69051 0.83182 0.76626 0.0
H3645 H 0.65129 0.74564 0.81242 0.0
H3646 H 0.66121 0.74111 0.86032 0.0
H3647 H 0.67688 0.73752 0.82241 0.0
C3648 C 0.04042 0.90878 0.38232 0.0
C3649 C 0.03751 0.89546 0.35286 0.0
C3650 C 0.0268 0.90965 0.4101 0.0
C3651 C 0.00979 0.89662 0.40914 0.0
C3652 C 0.00715 0.8824 0.38052 0.0
C3653 C 0.02099 0.88204 0.3526 0.0
C3654 C 0.03034 0.92507 0.43991 0.0
C3655 C 0.98941 0.868 0.37881 0.0
C3656 C 0.9857 0.88965 0.50205 0.0
C3657 C 0.96992 0.9047 0.49719 0.0
C3658 C 0.99811 0.88611 0.47306 0.0
C3659 C 0.99496 0.89812 0.43828 0.0
C3660 C 0.97872 0.91296 0.43281 0.0
C3661 C 0.96632 0.91595 0.46219 0.0
C3662 C 0.015 0.86993 0.48009 0.0
C3663 C 0.97491 0.9263 0.39639 0.0
H3664 H 0.05314 0.91918 0.38312 0.0
H3665 H 0.01846 0.87183 0.32992 0.0
H3666 H 0.01753 0.93648 0.43884 0.0
H3667 H 0.03134 0.91646 0.46799 0.0
H3668 H 0.04427 0.93416 0.43669 0.0
H3669 H 0.99016 0.85687 0.35646 0.0
H3670 H 0.98849 0.85868 0.40599 0.0
H3671 H 0.9754 0.87764 0.37355 0.0
H3672 H 0.98848 0.88061 0.52874 0.0
H3673 H 0.95416 0.92756 0.45805 0.0
H3674 H 0.02956 0.87808 0.48021 0.0
H3675 H 0.01468 0.85899 0.45736 0.0
H3676 H 0.01426 0.86045 0.50719 0.0
H3677 H 0.98765 0.93704 0.39219 0.0
H3678 H 0.96094 0.93606 0.3956 0.0
H3679 H 0.97386 0.91604 0.37265 0.0
C3680 C 0.81053 0.28076 0.11325 0.0
C3681 C 0.82414 0.27986 0.08535 0.0
C3682 C 0.8119 0.26647 0.14504 0.0
C3683 C 0.82738 0.25087 0.14955 0.0
C3684 C 0.84145 0.25004 0.12195 0.0
C3685 C 0.83962 0.26451 0.09007 0.0
C3686 C 0.79651 0.26793 0.17361 0.0
C3687 C 0.8583 0.23377 0.126 0.0
C3688 C 0.83759 0.22736 0.24961 0.0
C3689 C 0.82661 0.20862 0.24943 0.0
C3690 C 0.83875 0.24076 0.21689 0.0
C3691 C 0.82854 0.23544 0.18316 0.0
C3692 C 0.81789 0.21626 0.18254 0.0
C3693 C 0.81713 0.20306 0.21558 0.0
C3694 C 0.85043 0.26094 0.2187 0.0
C3695 C 0.80664 0.21005 0.14729 0.0
H3696 H 0.79851 0.29254 0.11014 0.0
H3697 H 0.85021 0.26367 0.06875 0.0
H3698 H 0.80402 0.2704 0.20136 0.0
H3699 H 0.78546 0.28107 0.16605 0.0
H3700 H 0.78833 0.25283 0.17645 0.0
H3701 H 0.86834 0.23557 0.10271 0.0
H3702 H 0.86731 0.23512 0.15275 0.0
H3703 H 0.85211 0.21758 0.12687 0.0
H3704 H 0.84516 0.23172 0.27545 0.0
H3705 H 0.80871 0.18857 0.21497 0.0
H3706 H 0.84001 0.27483 0.21417 0.0
H3707 H 0.86097 0.26222 0.19621 0.0
H3708 H 0.85906 0.26182 0.24604 0.0
H3709 H 0.79417 0.22157 0.13918 0.0
H3710 H 0.80033 0.19392 0.15074 0.0
H3711 H 0.81663 0.21053 0.12394 0.0
C3712 C 0.53352 0.92554 0.88026 0.0
C3713 C 0.53551 0.90534 0.86697 0.0
C3714 C 0.52941 0.92795 0.91747 0.0
C3715 C 0.52692 0.90973 0.94187 0.0
C3716 C 0.52916 0.88932 0.92883 0.0
C3717 C 0.53358 0.88737 0.89168 0.0
C3718 C 0.52737 0.94998 0.93047 0.0
C3719 C 0.52656 0.86949 0.95398 0.0
C3720 C 0.53143 0.91162 0.04734 0.0
C3721 C 0.51128 0.91187 0.05562 0.0
C3722 C 0.53677 0.91176 1.01029 0.0
C3723 C 0.52157 0.91189 0.98088 0.0
C3724 C 0.5012 0.91284 0.98902 0.0
C3725 C 0.4963 0.91293 0.0263 0.0
C3726 C 0.55865 0.91115 1.00269 0.0
C3727 C 0.48455 0.91284 0.95848 0.0
H3728 H 0.53468 0.93955 0.86135 0.0
H3729 H 0.53546 0.87171 0.88195 0.0
H3730 H 0.51182 0.95278 0.93801 0.0
H3731 H 0.5374 0.9516 0.95592 0.0
H3732 H 0.53101 0.96246 0.90874 0.0
H3733 H 0.52883 0.8548 0.93956 0.0
H3734 H 0.53734 0.86922 0.97885 0.0
H3735 H 0.51129 0.86941 0.96415 0.0
H3736 H 0.54304 0.91107 0.06996 0.0
H3737 H 0.48071 0.91294 0.03263 0.0
H3738 H 0.56188 0.92404 0.98145 0.0
H3739 H 0.56238 0.89591 0.99116 0.0
H3740 H 0.56858 0.9128 0.0283 0.0
H3741 H 0.48664 0.92573 0.93655 0.0
H3742 H 0.46954 0.9149 0.96924 0.0
H3743 H 0.48494 0.89764 0.94501 0.0
C3744 C 0.80165 0.77492 0.49656 0.0
C3745 C 0.80299 0.79684 0.48727 0.0
C3746 C 0.80341 0.76629 0.53401 0.0
C3747 C 0.80675 0.77974 0.56359 0.0
C3748 C 0.80807 0.80192 0.55447 0.0
C3749 C 0.8062 0.81016 0.51664 0.0
C3750 C 0.8017 0.74264 0.54187 0.0
C3751 C 0.81146 0.81702 0.58473 0.0
C3752 C 0.79547 0.75751 0.66257 0.0
C3753 C 0.81457 0.75113 0.67877 0.0
C3754 C 0.79273 0.76714 0.62566 0.0
C3755 C 0.80942 0.77044 0.60376 0.0
C3756 C 0.8287 0.76404 0.6199 0.0
C3757 C 0.83102 0.75458 0.65686 0.0
C3758 C 0.77189 0.77372 0.61 0.0
C3759 C 0.84696 0.76696 0.59786 0.0
H3760 H 0.79908 0.76434 0.47444 0.0
H3761 H 0.80721 0.8271 0.51012 0.0
H3762 H 0.81574 0.73603 0.55673 0.0
H3763 H 0.78941 0.73916 0.5604 0.0
H3764 H 0.79873 0.73434 0.51596 0.0
H3765 H 0.812 0.83379 0.57328 0.0
H3766 H 0.79932 0.81555 0.60415 0.0
H3767 H 0.82575 0.81288 0.60133 0.0
H3768 H 0.7826 0.75527 0.67897 0.0
H3769 H 0.84584 0.74951 0.66838 0.0
H3770 H 0.76748 0.76435 0.58597 0.0
H3771 H 0.77155 0.79065 0.5994 0.0
H3772 H 0.76063 0.77137 0.6311 0.0
H3773 H 0.84547 0.75768 0.57287 0.0
H3774 H 0.861 0.76185 0.61457 0.0
H3775 H 0.84823 0.78386 0.58777 0.0
C3776 C 0.01177 0.09347 0.47858 0.0
C3777 C 0.00332 0.10721 0.50239 0.0
C3778 C 0.00568 0.09432 0.44025 0.0
C3779 C 0.99068 0.10918 0.42523 0.0
C3780 C 0.98192 0.1229 0.44914 0.0
C3781 C 0.98837 0.12181 0.48728 0.0
C3782 C 0.01542 0.07939 0.41577 0.0
C3783 C 0.96587 0.13897 0.43433 0.0
C3784 C 0.98822 0.12631 0.32115 0.0
C3785 C 0.97252 0.11411 0.30695 0.0
C3786 C 0.99433 0.12477 0.35946 0.0
C3787 C 0.98446 0.11074 0.38437 0.0
C3788 C 0.96855 0.09843 0.37024 0.0
C3789 C 0.9628 0.10023 0.33176 0.0
C3790 C 0.01143 0.13809 0.37327 0.0
C3791 C 0.95752 0.08341 0.3958 0.0
H3792 H 0.02311 0.08192 0.48994 0.0
H3793 H 0.98194 0.13275 0.50515 0.0
H3794 H 0.00388 0.06965 0.40192 0.0
H3795 H 0.02287 0.0886 0.3934 0.0
H3796 H 0.02671 0.06862 0.43177 0.0
H3797 H 0.96005 0.14797 0.45677 0.0
H3798 H 0.97195 0.15037 0.41327 0.0
H3799 H 0.9532 0.13092 0.42012 0.0
H3800 H 0.996 0.13685 0.30216 0.0
H3801 H 0.95049 0.09093 0.32111 0.0
H3802 H 0.02364 0.12771 0.38722 0.0
H3803 H 0.00633 0.14852 0.39434 0.0
H3804 H 0.01761 0.14814 0.35033 0.0
H3805 H 0.96817 0.07166 0.41097 0.0
H3806 H 0.94565 0.07476 0.38039 0.0
H3807 H 0.95053 0.09234 0.41708 0.0
C3808 C 0.65302 0.21534 0.10032 0.0
C3809 C 0.66161 0.2287 0.07306 0.0
C3810 C 0.65188 0.22117 0.13719 0.0
C3811 C 0.65949 0.24089 0.14739 0.0
C3812 C 0.66848 0.25429 0.12024 0.0
C3813 C 0.66943 0.24806 0.08357 0.0
C3814 C 0.64216 0.20635 0.16509 0.0
C3815 C 0.6769 0.27539 0.1298 0.0
C3816 C 0.63805 0.26509 0.23076 0.0
C3817 C 0.65288 0.25993 0.25973 0.0
C3818 C 0.64012 0.25919 0.19422 0.0
C3819 C 0.65744 0.24776 0.18607 0.0
C3820 C 0.67259 0.24271 0.21503 0.0
C3821 C 0.67016 0.24887 0.25136 0.0
C3822 C 0.62366 0.26511 0.16429 0.0
C3823 C 0.69128 0.23052 0.20776 0.0
H3824 H 0.64668 0.20048 0.09261 0.0
H3825 H 0.6764 0.2584 0.06307 0.0
H3826 H 0.65257 0.20268 0.19017 0.0
H3827 H 0.62864 0.21414 0.17447 0.0
H3828 H 0.6377 0.19124 0.1533 0.0
H3829 H 0.6839 0.28374 0.10591 0.0
H3830 H 0.6648 0.28571 0.1385 0.0
H3831 H 0.68828 0.27309 0.15373 0.0
H3832 H 0.6248 0.27393 0.23661 0.0
H3833 H 0.68164 0.24458 0.27347 0.0
H3834 H 0.61744 0.25057 0.15285 0.0
H3835 H 0.62978 0.27473 0.14082 0.0
H3836 H 0.61126 0.27426 0.17492 0.0
H3837 H 0.68721 0.21471 0.19847 0.0
H3838 H 0.70189 0.22828 0.23293 0.0
H3839 H 0.69902 0.23894 0.18491 0.0
C3840 C 0.10126 0.53529 0.7242 0.0
C3841 C 0.08555 0.55018 0.71541 0.0
C3842 C 0.10425 0.52463 0.76035 0.0
C3843 C 0.09131 0.5289 0.78873 0.0
C3844 C 0.07552 0.54396 0.77996 0.0
C3845 C 0.07288 0.55431 0.74384 0.0
C3846 C 0.12098 0.50837 0.76797 0.0
C3847 C 0.06108 0.54894 0.80868 0.0
C3848 C 0.08532 0.48978 0.87438 0.0
C3849 C 0.0971 0.49878 0.90286 0.0
C3850 C 0.08384 0.49889 0.83713 0.0
C3851 C 0.09414 0.51779 0.82759 0.0
C3852 C 0.10624 0.52682 0.85603 0.0
C3853 C 0.10765 0.51723 0.89292 0.0
C3854 C 0.0705 0.48852 0.80852 0.0
C3855 C 0.11745 0.54694 0.84763 0.0
H3856 H 0.11099 0.5316 0.70264 0.0
H3857 H 0.06048 0.56547 0.73777 0.0
H3858 H 0.13109 0.51261 0.79191 0.0
H3859 H 0.11466 0.49267 0.77585 0.0
H3860 H 0.12993 0.50693 0.74339 0.0
H3861 H 0.0497 0.56119 0.79776 0.0
H3862 H 0.0532 0.53435 0.81782 0.0
H3863 H 0.06938 0.55458 0.83372 0.0
H3864 H 0.07678 0.47579 0.88125 0.0
H3865 H 0.11717 0.52426 0.91404 0.0
H3866 H 0.07612 0.49057 0.78022 0.0
H3867 H 0.05533 0.49589 0.80736 0.0
H3868 H 0.06907 0.4713 0.81623 0.0
H3869 H 0.12726 0.54493 0.82449 0.0
H3870 H 0.12679 0.55164 0.87229 0.0
H3871 H 0.10666 0.56006 0.83828 0.0
C3872 C 0.73193 0.86597 0.07755 0.0
C3873 C 0.71424 0.85434 0.07453 0.0
C3874 C 0.74362 0.86608 0.11193 0.0
C3875 C 0.73744 0.85454 0.14444 0.0
C3876 C 0.71912 0.84358 0.1418 0.0
C3877 C 0.70791 0.84352 0.10713 0.0
C3878 C 0.76315 0.87768 0.11302 0.0
C3879 C 0.71163 0.83118 0.17538 0.0
C3880 C 0.7746 0.8316 0.22348 0.0
C3881 C 0.77253 0.84556 0.25169 0.0
C3882 C 0.76406 0.83491 0.18815 0.0
C3883 C 0.75063 0.85248 0.18049 0.0
C3884 C 0.74891 0.86704 0.20843 0.0
C3885 C 0.75998 0.86353 0.24346 0.0
C3886 C 0.76677 0.81904 0.15947 0.0
C3887 C 0.73459 0.88578 0.20202 0.0
H3888 H 0.73718 0.87415 0.05264 0.0
H3889 H 0.6943 0.83446 0.1054 0.0
H3890 H 0.76401 0.88826 0.13629 0.0
H3891 H 0.77577 0.86604 0.11825 0.0
H3892 H 0.76515 0.88729 0.08647 0.0
H3893 H 0.69633 0.82509 0.16964 0.0
H3894 H 0.72186 0.81747 0.18394 0.0
H3895 H 0.7115 0.84124 0.19934 0.0
H3896 H 0.78425 0.81767 0.2293 0.0
H3897 H 0.75799 0.87428 0.26506 0.0
H3898 H 0.7698 0.82731 0.13222 0.0
H3899 H 0.7528 0.81006 0.15512 0.0
H3900 H 0.77922 0.80754 0.16814 0.0
H3901 H 0.73713 0.89492 0.17531 0.0
H3902 H 0.73607 0.89656 0.22501 0.0
H3903 H 0.719 0.88006 0.19978 0.0
C3904 C 0.389 0.47502 0.35482 0.0
C3905 C 0.40212 0.49133 0.36416 0.0
C3906 C 0.38963 0.46537 0.32074 0.0
C3907 C 0.40365 0.47212 0.29477 0.0
C3908 C 0.41654 0.48894 0.30349 0.0
C3909 C 0.41566 0.49827 0.33785 0.0
C3910 C 0.3756 0.44752 0.31295 0.0
C3911 C 0.43174 0.49669 0.27688 0.0
C3912 C 0.42295 0.43274 0.22937 0.0
C3913 C 0.41276 0.43906 0.1947 0.0
C3914 C 0.41981 0.44305 0.26186 0.0
C3915 C 0.4061 0.46039 0.26025 0.0
C3916 C 0.39533 0.46661 0.2256 0.0
C3917 C 0.39873 0.45587 0.1933 0.0
C3918 C 0.43166 0.43563 0.29785 0.0
C3919 C 0.38062 0.48503 0.22241 0.0
H3920 H 0.37814 0.46972 0.37424 0.0
H3921 H 0.42604 0.51064 0.34449 0.0
H3922 H 0.36725 0.45081 0.28536 0.0
H3923 H 0.38436 0.43259 0.31177 0.0
H3924 H 0.36468 0.44501 0.33465 0.0
H3925 H 0.44059 0.51002 0.28732 0.0
H3926 H 0.44215 0.48348 0.2724 0.0
H3927 H 0.42413 0.50194 0.24931 0.0
H3928 H 0.43381 0.4198 0.23116 0.0
H3929 H 0.3909 0.4611 0.16678 0.0
H3930 H 0.42138 0.4318 0.32019 0.0
H3931 H 0.44146 0.44849 0.30719 0.0
H3932 H 0.44116 0.42141 0.29487 0.0
H3933 H 0.36949 0.48268 0.2437 0.0
H3934 H 0.37256 0.48718 0.19431 0.0
H3935 H 0.38865 0.49982 0.22798 0.0
C3936 C 0.78333 0.12662 0.45883 0.0
C3937 C 0.80118 0.13792 0.45729 0.0
C3938 C 0.77321 0.12442 0.49205 0.0
C3939 C 0.78112 0.13366 0.5246 0.0
C3940 C 0.79954 0.14434 0.52351 0.0
C3941 C 0.80928 0.1463 0.49008 0.0
C3942 C 0.75358 0.11301 0.49186 0.0
C3943 C 0.80867 0.15441 0.55732 0.0
C3944 C 0.74723 0.14893 0.60015 0.0
C3945 C 0.751 0.13235 0.62812 0.0
C3946 C 0.75651 0.14929 0.56608 0.0
C3947 C 0.77004 0.13272 0.55959 0.0
C3948 C 0.77373 0.11583 0.58744 0.0
C3949 C 0.76415 0.11579 0.6211 0.0
C3950 C 0.75211 0.16767 0.53727 0.0
C3951 C 0.7881 0.09791 0.58195 0.0
H3952 H 0.77676 0.12037 0.43364 0.0
H3953 H 0.82303 0.1551 0.48936 0.0
H3954 H 0.75394 0.10052 0.51524 0.0
H3955 H 0.74132 0.12436 0.49613 0.0
H3956 H 0.75002 0.10559 0.46522 0.0
H3957 H 0.82352 0.1613 0.55245 0.0
H3958 H 0.79858 0.16723 0.5649 0.0
H3959 H 0.81043 0.14252 0.58163 0.0
H3960 H 0.73733 0.16196 0.60517 0.0
H3961 H 0.76695 0.10265 0.64196 0.0
H3962 H 0.74715 0.16173 0.50995 0.0
H3963 H 0.76593 0.17676 0.53319 0.0
H3964 H 0.74038 0.17864 0.54549 0.0
H3965 H 0.78353 0.09034 0.55593 0.0
H3966 H 0.7889 0.08559 0.6057 0.0
H3967 H 0.80331 0.10422 0.57879 0.0
C3968 C 0.9003 0.46387 0.64075 0.0
C3969 C 0.91451 0.44722 0.6477 0.0
C3970 C 0.89691 0.47462 0.60465 0.0
C3971 C 0.90784 0.46861 0.57438 0.0
C3972 C 0.92178 0.45145 0.58119 0.0
C3973 C 0.92492 0.44114 0.61734 0.0
C3974 C 0.88196 0.49281 0.59907 0.0
C3975 C 0.93378 0.44412 0.55034 0.0
C3976 C 0.88872 0.48301 0.47187 0.0
C3977 C 0.90088 0.50002 0.46077 0.0
C3978 C 0.89053 0.47305 0.50856 0.0
C3979 C 0.90487 0.48008 0.53564 0.0
C3980 C 0.91713 0.49732 0.52482 0.0
C3981 C 0.91505 0.50696 0.48783 0.0
C3982 C 0.8773 0.45461 0.51813 0.0
C3983 C 0.93265 0.50551 0.55235 0.0
H3984 H 0.8923 0.46898 0.66377 0.0
H3985 H 0.93586 0.42827 0.62188 0.0
H3986 H 0.88967 0.50761 0.59045 0.0
H3987 H 0.87054 0.48989 0.57629 0.0
H3988 H 0.87427 0.49529 0.62481 0.0
H3989 H 0.94313 0.42979 0.55946 0.0
H3990 H 0.92364 0.44054 0.526 0.0
H3991 H 0.94375 0.45696 0.54073 0.0
H3992 H 0.87794 0.47706 0.45153 0.0
H3993 H 0.92444 0.52018 0.48026 0.0
H3994 H 0.86904 0.45765 0.54294 0.0
H3995 H 0.88664 0.44007 0.52543 0.0
H3996 H 0.86629 0.45154 0.49469 0.0
H3997 H 0.92553 0.50983 0.57774 0.0
H3998 H 0.94041 0.51958 0.54042 0.0
H3999 H 0.94401 0.49289 0.56128 0.0
C4000 C 0.23118 0.13876 0.11914 0.0
C4001 C 0.21675 0.15524 0.11296 0.0
C4002 C 0.24339 0.13597 0.15284 0.0
C4003 C 0.24115 0.14987 0.18153 0.0
C4004 C 0.22612 0.16606 0.176 0.0
C4005 C 0.21422 0.16858 0.14194 0.0
C4006 C 0.25924 0.11861 0.15714 0.0
C4007 C 0.22298 0.1812 0.20568 0.0
C4008 C 0.26398 0.13503 0.2813 0.0
C4009 C 0.28131 0.14733 0.28285 0.0
C4010 C 0.25094 0.13544 0.24855 0.0
C4011 C 0.25529 0.14833 0.21622 0.0
C4012 C 0.27307 0.16024 0.2173 0.0
C4013 C 0.28571 0.15967 0.2504 0.0
C4014 C 0.23216 0.12257 0.24894 0.0
C4015 C 0.27853 0.1741 0.18365 0.0
H4016 H 0.23345 0.12839 0.0971 0.0
H4017 H 0.20319 0.1814 0.13774 0.0
H4018 H 0.27429 0.12573 0.15887 0.0
H4019 H 0.25786 0.10863 0.18348 0.0
H4020 H 0.2583 0.10828 0.13345 0.0
H4021 H 0.20983 0.19197 0.1983 0.0
H4022 H 0.22085 0.17224 0.23277 0.0
H4023 H 0.23646 0.19098 0.20976 0.0
H4024 H 0.26019 0.1256 0.30611 0.0
H4025 H 0.2989 0.16934 0.25101 0.0
H4026 H 0.23141 0.11213 0.22547 0.0
H4027 H 0.21884 0.13334 0.24493 0.0
H4028 H 0.23129 0.11263 0.27553 0.0
H4029 H 0.27876 0.16466 0.15889 0.0
H4030 H 0.29336 0.18146 0.1882 0.0
H4031 H 0.26708 0.18691 0.17703 0.0
C4032 C 0.60945 0.50479 0.98692 0.0
C4033 C 0.59463 0.49092 0.97433 0.0
C4034 C 0.6085 0.51426 0.02105 0.0
C4035 C 0.59226 0.51 0.04352 0.0
C4036 C 0.5773 0.49591 0.03124 0.0
C4037 C 0.57867 0.48656 0.99701 0.0
C4038 C 0.62475 0.52922 0.03269 0.0
C4039 C 0.5597 0.49084 0.05417 0.0
C4040 C 0.59612 0.52361 0.14626 0.0
C4041 C 0.58561 0.54309 0.14427 0.0
C4042 C 0.59854 0.51271 0.11384 0.0
C4043 C 0.59025 0.5214 0.07846 0.0
C4044 C 0.57996 0.54121 0.07631 0.0
C4045 C 0.57785 0.55174 0.10895 0.0
C4046 C 0.60966 0.49168 0.11753 0.0
C4047 C 0.57076 0.55117 0.0395 0.0
H4048 H 0.6217 0.50868 0.96964 0.0
H4049 H 0.56725 0.47568 0.98814 0.0
H4050 H 0.61828 0.54541 0.03344 0.0
H4051 H 0.63121 0.52425 0.06128 0.0
H4052 H 0.637 0.52992 1.01339 0.0
H4053 H 0.54927 0.47969 0.04084 0.0
H4054 H 0.56511 0.48372 0.08222 0.0
H4055 H 0.55129 0.50562 0.05835 0.0
H4056 H 0.60199 0.51659 0.17326 0.0
H4057 H 0.56968 0.56672 0.10672 0.0
H4058 H 0.62205 0.49207 0.09858 0.0
H4059 H 0.59941 0.47901 0.10901 0.0
H4060 H 0.61596 0.48745 0.14655 0.0
H4061 H 0.58238 0.55331 1.01911 0.0
H4062 H 0.56352 0.56681 0.04237 0.0
H4063 H 0.55934 0.54053 0.02766 0.0
C4064 C 0.21399 0.85696 0.87292 0.0
C4065 C 0.19493 0.84801 0.87274 0.0
C4066 C 0.22471 0.85848 0.84031 0.0
C4067 C 0.21623 0.85085 0.80667 0.0
C4068 C 0.19662 0.84271 0.80604 0.0
C4069 C 0.18628 0.84147 0.83882 0.0
C4070 C 0.24551 0.86734 0.84232 0.0
C4071 C 0.18684 0.83434 0.77112 0.0
C4072 C 0.23611 0.86662 0.71142 0.0
C4073 C 0.24749 0.84862 0.70462 0.0
C4074 C 0.2264 0.86782 0.74479 0.0
C4075 C 0.22791 0.85058 0.77239 0.0
C4076 C 0.2396 0.83247 0.76605 0.0
C4077 C 0.2492 0.83172 0.73242 0.0
C4078 C 0.21408 0.88739 0.75009 0.0
C4079 C 0.24169 0.81367 0.79457 0.0
H4080 H 0.221 0.86173 0.89897 0.0
H4081 H 0.17158 0.83447 0.83821 0.0
H4082 H 0.25659 0.85453 0.83899 0.0
H4083 H 0.24699 0.8797 0.81918 0.0
H4084 H 0.24933 0.87431 0.86929 0.0
H4085 H 0.17116 0.82949 0.77465 0.0
H4086 H 0.18687 0.84656 0.74737 0.0
H4087 H 0.19549 0.82039 0.76356 0.0
H4088 H 0.23431 0.87969 0.69016 0.0
H4089 H 0.25813 0.81783 0.728 0.0
H4090 H 0.21878 0.89384 0.7771 0.0
H4091 H 0.19808 0.8832 0.75106 0.0
H4092 H 0.21542 0.9 0.72727 0.0
H4093 H 0.24733 0.81883 0.82211 0.0
H4094 H 0.252 0.8012 0.78636 0.0
H4095 H 0.22681 0.8066 0.7982 0.0
C4096 C 0.6127 0.01522 0.38516 0.0
C4097 C 0.6006 -0.0015 0.39778 0.0
C4098 C 0.60986 0.02517 0.34856 0.0
C4099 C 0.59454 0.01838 0.32311 0.0
C4100 C 0.58229 0.00146 0.33551 0.0
C4101 C 0.58539 0.99186 0.37241 0.0
C4102 C 0.62314 0.04327 0.33728 0.0
C4103 C 0.56581 0.99348 0.3097 0.0
C4104 C 0.57372 0.05718 0.24164 0.0
C4105 C 0.58342 0.05061 0.21083 0.0
C4106 C 0.57725 0.04701 0.27787 0.0
C4107 C 0.59086 0.02951 0.28423 0.0
C4108 C 0.60093 0.0229 0.25338 0.0
C4109 C 0.59718 0.03351 0.2173 0.0
C4110 C 0.56619 0.05496 0.3094 0.0
C4111 C 0.61544 0.0043 0.25839 0.0
H4112 H 0.62429 0.02091 0.40425 0.0
H4113 H 0.576 0.97888 0.38122 0.0
H4114 H 0.63077 0.03975 0.31199 0.0
H4115 H 0.61391 0.0579 0.33006 0.0
H4116 H 0.63467 0.04644 0.35978 0.0
H4117 H 0.55795 0.97984 0.32288 0.0
H4118 H 0.55467 0.0064 0.30123 0.0
H4119 H 0.57207 0.98857 0.28385 0.0
H4120 H 0.56317 0.07041 0.23749 0.0
H4121 H 0.60466 0.02802 0.19395 0.0
H4122 H 0.57701 0.05911 0.33236 0.0
H4123 H 0.55663 0.04227 0.32099 0.0
H4124 H 0.55656 0.0691 0.30029 0.0
H4125 H 0.6276 0.00726 0.2798 0.0
H4126 H 0.62222 0.00112 0.232 0.0
H4127 H 0.60763 0.98988 0.26862 0.0
C4128 C 0.23193 0.36665 0.58097 0.0
C4129 C 0.21467 0.3543 0.57829 0.0
C4130 C 0.24383 0.36703 0.61503 0.0
C4131 C 0.23838 0.3549 0.64748 0.0
C4132 C 0.22048 0.3432 0.64524 0.0
C4133 C 0.20897 0.34301 0.61093 0.0
C4134 C 0.26279 0.37962 0.6158 0.0
C4135 C 0.21386 0.33004 0.67879 0.0
C4136 C 0.27765 0.33264 0.72317 0.0
C4137 C 0.27533 0.34579 0.75251 0.0
C4138 C 0.26637 0.33598 0.68863 0.0
C4139 C 0.25208 0.35286 0.68282 0.0
C4140 C 0.25013 0.3667 0.7118 0.0
C4141 C 0.26182 0.36309 0.74613 0.0
C4142 C 0.26928 0.32087 0.65878 0.0
C4143 C 0.23503 0.38477 0.70716 0.0
H4144 H 0.23666 0.37529 0.55607 0.0
H4145 H 0.19569 0.33342 0.60951 0.0
H4146 H 0.26351 0.38976 0.63969 0.0
H4147 H 0.27593 0.3686 0.61976 0.0
H4148 H 0.26401 0.38981 0.58959 0.0
H4149 H 0.19882 0.32324 0.67342 0.0
H4150 H 0.22474 0.3168 0.68658 0.0
H4151 H 0.21352 0.3398 0.70312 0.0
H4152 H 0.28807 0.31926 0.72747 0.0
H4153 H 0.2597 0.37325 0.76855 0.0
H4154 H 0.2721 0.32982 0.63202 0.0
H4155 H 0.25545 0.31173 0.65387 0.0
H4156 H 0.28193 0.30948 0.66652 0.0
H4157 H 0.2368 0.3945 0.68068 0.0
H4158 H 0.23644 0.39518 0.73071 0.0
H4159 H 0.21969 0.37835 0.70549 0.0
C4160 C 0.91629 -0.0035 0.83542 0.0
C4161 C 0.90086 0.99278 0.85957 0.0
C4162 C 0.91633 0.98714 0.80095 0.0
C4163 C 0.90054 0.97374 0.7898 0.0
C4164 C 0.88469 0.97034 0.81359 0.0
C4165 C 0.88505 0.97982 0.84796 0.0
C4166 C 0.93359 0.99123 0.77676 0.0
C4167 C 0.86751 0.95627 0.80308 0.0
C4168 C 0.89558 0.96006 0.68689 0.0
C4169 C 0.90602 0.94056 0.6887 0.0
C4170 C 0.89322 0.97085 0.71952 0.0
C4171 C 0.90146 0.96198 0.75488 0.0
C4172 C 0.91128 0.94192 0.75681 0.0
C4173 C 0.91339 0.93156 0.72398 0.0
C4174 C 0.88265 0.99218 0.71593 0.0
C4175 C 0.92036 0.93166 0.79349 0.0
H4176 H 0.92869 0.00629 0.84392 0.0
H4177 H 0.87282 0.97707 0.86578 0.0
H4178 H 0.94163 0.9761 0.77347 0.0
H4179 H 0.92784 -0.00233 0.7485 0.0
H4180 H 0.94442 0.00254 0.78852 0.0
H4181 H 0.85573 0.9562 0.82333 0.0
H4182 H 0.86067 0.96158 0.7749 0.0
H4183 H 0.87313 0.93978 0.8018 0.0
H4184 H 0.89015 0.96738 0.65982 0.0
H4185 H 0.92145 0.91652 0.72583 0.0
H4186 H 0.89363 0.00469 0.72171 0.0
H4187 H 0.87124 0.99277 0.73678 0.0
H4188 H 0.87523 0.9959 0.68757 0.0
H4189 H 0.92643 0.91547 0.79069 0.0
H4190 H 0.90901 0.93066 0.81455 0.0
H4191 H 0.9327 0.94151 0.80438 0.0
C4192 C 0.26516 0.62271 0.12707 0.0
C4193 C 0.25407 0.64093 0.13372 0.0
C4194 C 0.27423 0.62095 0.09321 0.0
C4195 C 0.27229 0.63783 0.06493 0.0
C4196 C 0.26074 0.65607 0.07104 0.0
C4197 C 0.25176 0.65738 0.10518 0.0
C4198 C 0.28632 0.6012 0.08805 0.0
C4199 C 0.25839 0.67454 0.04192 0.0
C4200 C 0.31305 0.64571 0.99645 0.0
C4201 C 0.30398 0.63866 0.96325 0.0
C4202 C 0.30309 0.64512 0.02963 0.0
C4203 C 0.28349 0.63706 0.03019 0.0
C4204 C 0.27456 0.62894 0.99733 0.0
C4205 C 0.28489 0.62986 0.96425 0.0
C4206 C 0.31331 0.65402 0.06368 0.0
C4207 C 0.25373 0.62016 0.99663 0.0
H4208 H 0.26678 0.6097 0.14849 0.0
H4209 H 0.24341 0.67161 0.10993 0.0
H4210 H 0.28103 0.59431 0.06174 0.0
H4211 H 0.30226 0.60529 0.08568 0.0
H4212 H 0.28541 0.58896 0.11162 0.0
H4213 H 0.24803 0.68705 0.04985 0.0
H4214 H 0.27319 0.68166 0.03786 0.0
H4215 H 0.25268 0.66905 1.01466 0.0
H4216 H 0.32779 0.65256 0.99618 0.0
H4217 H 0.27758 0.62467 0.93878 0.0
H4218 H 0.31345 0.64222 0.08808 0.0
H4219 H 0.30487 0.66822 0.07079 0.0
H4220 H 0.32896 0.65866 0.05932 0.0
H4221 H 0.25254 0.60805 0.02027 0.0
H4222 H 0.2495 0.6129 0.9701 0.0
H4223 H 0.24279 0.63308 1.00008 0.0
C4224 C 0.39995 0.95991 0.13914 0.0
C4225 C 0.41487 0.94406 0.14721 0.0
C4226 C 0.39644 0.97005 0.10261 0.0
C4227 C 0.408 0.96423 0.07308 0.0
C4228 C 0.42271 0.94787 0.08103 0.0
C4229 C 0.42593 0.93815 0.11758 0.0
C4230 C 0.38071 0.98745 0.09584 0.0
C4231 C 0.43548 0.94089 0.05102 0.0
C4232 C 0.3899 0.97664 0.96956 0.0
C4233 C 0.40157 0.99407 0.95845 0.0
C4234 C 0.39151 0.96717 1.0066 0.0
C4235 C 0.40505 0.9752 0.03399 0.0
C4236 C 0.41665 0.99297 0.02319 0.0
C4237 C 0.41479 0.00211 0.98592 0.0
C4238 C 0.37888 0.94825 1.01628 0.0
C4239 C 0.43122 0.00228 0.05104 0.0
H4240 H 0.39149 0.96493 0.16164 0.0
H4241 H 0.43749 0.92594 0.12307 0.0
H4242 H 0.3879 0.00265 0.08784 0.0
H4243 H 0.36998 0.984 0.07228 0.0
H4244 H 0.37229 0.98948 0.1209 0.0
H4245 H 0.44537 0.92708 0.06096 0.0
H4246 H 0.42588 0.93662 0.02643 0.0
H4247 H 0.445 0.95415 0.04148 0.0
H4248 H 0.37931 0.97036 0.94928 0.0
H4249 H 0.42411 0.01534 0.97817 0.0
H4250 H 0.36995 0.95132 0.04021 0.0
H4251 H 0.38872 0.93424 0.025 0.0
H4252 H 0.36853 0.9443 0.99242 0.0
H4253 H 0.42297 0.00815 0.07401 0.0
H4254 H 0.43966 0.01562 0.03828 0.0
H4255 H 0.44206 0.9899 0.06356 0.0
C4256 C 0.79067 0.65475 0.75392 0.0
C4257 C 0.78582 0.64119 0.7847 0.0
C4258 C 0.77983 0.65482 0.71883 0.0
C4259 C 0.7636 0.64092 0.71371 0.0
C4260 C 0.75914 0.62654 0.74412 0.0
C4261 C 0.77023 0.62685 0.77909 0.0
C4262 C 0.78528 0.67051 0.68763 0.0
C4263 C 0.74206 0.61139 0.7402 0.0
C4264 C 0.72307 0.65966 0.63723 0.0
C4265 C 0.72802 0.64851 0.60663 0.0
C4266 C 0.73408 0.65688 0.67221 0.0
C4267 C 0.75065 0.6425 0.67736 0.0
C4268 C 0.75537 0.63063 0.64702 0.0
C4269 C 0.74407 0.63375 0.61221 0.0
C4270 C 0.72831 0.66995 0.70339 0.0
C4271 C 0.77283 0.61511 0.65094 0.0
H4272 H 0.8026 0.66597 0.75748 0.0
H4273 H 0.76612 0.61639 0.80244 0.0
H4274 H 0.78744 0.66227 0.66201 0.0
H4275 H 0.77286 0.68226 0.68084 0.0
H4276 H 0.79912 0.67919 0.69508 0.0
H4277 H 0.74154 0.59997 0.76508 0.0
H4278 H 0.72767 0.62046 0.73628 0.0
H4279 H 0.74335 0.6024 0.71512 0.0
H4280 H 0.71076 0.67104 0.63371 0.0
H4281 H 0.74823 0.62503 0.58903 0.0
H4282 H 0.74059 0.68084 0.71059 0.0
H4283 H 0.72608 0.65949 0.72884 0.0
H4284 H 0.71441 0.67953 0.69577 0.0
H4285 H 0.78699 0.62378 0.65526 0.0
H4286 H 0.77373 0.60594 0.62593 0.0
H4287 H 0.77167 0.60386 0.67582 0.0
C4288 C 0.10955 0.00293 0.48322 0.0
C4289 C 0.09458 0.9892 0.47071 0.0
C4290 C 0.1087 0.01249 0.51728 0.0
C4291 C 0.0924 0.00848 0.53974 0.0
C4292 C 0.0773 0.99455 0.52752 0.0
C4293 C 0.07857 0.9851 0.49337 0.0
C4294 C 0.12511 0.02727 0.52888 0.0
C4295 C 0.0596 0.98982 0.55035 0.0
C4296 C 0.09627 0.02158 0.6427 0.0
C4297 C 0.08588 0.04112 0.641 0.0
C4298 C 0.09873 0.01088 0.61007 0.0
C4299 C 0.09057 0.01982 0.57478 0.0
C4300 C 0.08045 0.03972 0.57289 0.0
C4301 C 0.07831 0.05006 0.60574 0.0
C4302 C 0.10972 0.98978 0.61346 0.0
C4303 C 0.07143 0.04997 0.53616 0.0
H4304 H 0.12184 0.00663 0.46594 0.0
H4305 H 0.06703 0.97434 0.48457 0.0
H4306 H 0.11882 0.04353 0.52969 0.0
H4307 H 0.13156 0.02222 0.55745 0.0
H4308 H 0.13735 0.02783 0.50954 0.0
H4309 H 0.04945 0.97812 0.53779 0.0
H4310 H 0.06483 0.98356 0.57904 0.0
H4311 H 0.0509 0.00464 0.55288 0.0
H4312 H 0.10208 0.01437 0.66961 0.0
H4313 H 0.07023 0.0651 0.6037 0.0
H4314 H 0.12223 0.99025 0.59476 0.0
H4315 H 0.09944 0.97725 0.6044 0.0
H4316 H 0.11584 0.98528 0.6425 0.0
H4317 H 0.08313 0.05207 0.51591 0.0
H4318 H 0.06435 0.06567 0.53923 0.0
H4319 H 0.05992 0.03954 0.52401 0.0
C4320 C 0.68711 0.33765 0.3409 0.0
C4321 C 0.69529 0.34658 0.37309 0.0
C4322 C 0.6962 0.34005 0.30681 0.0
C4323 C 0.71402 0.35172 0.30445 0.0
C4324 C 0.722 0.36144 0.33643 0.0
C4325 C 0.71253 0.3588 0.37032 0.0
C4326 C 0.68704 0.32941 0.27365 0.0
C4327 C 0.74104 0.37385 0.33529 0.0
C4328 C 0.74745 0.33775 0.22748 0.0
C4329 C 0.74258 0.35396 0.19932 0.0
C4330 C 0.73871 0.33716 0.26205 0.0
C4331 C 0.72455 0.35306 0.26885 0.0
C4332 C 0.71977 0.36962 0.24081 0.0
C4333 C 0.72886 0.36992 0.20661 0.0
C4334 C 0.74413 0.31906 0.29084 0.0
C4335 C 0.70474 0.38685 0.24667 0.0
H4336 H 0.67381 0.32816 0.34254 0.0
H4337 H 0.71916 0.36553 0.39501 0.0
H4338 H 0.6847 0.34106 0.24905 0.0
H4339 H 0.6974 0.31684 0.26608 0.0
H4340 H 0.67248 0.32208 0.27932 0.0
H4341 H 0.7447 0.38149 0.36168 0.0
H4342 H 0.75366 0.36312 0.33033 0.0
H4343 H 0.73975 0.3863 0.3118 0.0
H4344 H 0.75776 0.32514 0.22221 0.0
H4345 H 0.7252 0.38277 0.18553 0.0
H4346 H 0.73114 0.3085 0.2931 0.0
H4347 H 0.74765 0.32503 0.31873 0.0
H4348 H 0.75713 0.30952 0.28343 0.0
H4349 H 0.6899 0.37979 0.25068 0.0
H4350 H 0.70313 0.39902 0.22272 0.0
H4351 H 0.70927 0.39476 0.27235 0.0
loop_
_geom_bond_atom_site_label_1
_geom_bond_atom_site_label_2
_geom_bond_distance
_geom_bond_site_symmetry_2
_ccdc_geom_bond_type
Pr0 C2 2.880 . S
Pr0 O20 2.562 . S
Pr0 O21 2.490 . S
Pr0 O22 2.695 . S
Pr0 O23 2.512 . S
Pr0 O25 2.437 . S
Pr0 O28 2.436 . S
Pr0 O30 2.438 . S
Pr1 C11 2.880 . S
Pr1 O22 2.436 . S
Pr1 O24 2.438 . S
Pr1 O26 2.562 . S
Pr1 O27 2.490 . S
Pr1 O28 2.695 . S
Pr1 O29 2.512 . S
Pr1 O31 2.437 . S
C2 Pr0 2.880 . S
C2 C3 1.491 . S
C2 O20 1.254 . S
C2 O21 1.225 . S
C3 C2 1.491 . S
C3 C4 1.398 . S
C3 C8 1.356 . S
C4 C3 1.398 . S
C4 C5 1.366 1_455 S
C4 H32 0.925 1_455 S
C5 C4 1.366 1_655 S
C5 C6 1.386 1_655 S
C5 H33 0.929 . S
C6 C5 1.386 1_455 S
C6 C7 1.373 . S
C7 C6 1.373 . S
C7 C8 1.409 . S
C7 H34 0.931 . S
C8 C3 1.356 . S
C8 C7 1.409 . S
C8 H35 0.930 . S
C9 O22 1.270 . S
C9 O23 1.248 . S
C10 O24 1.267 . S
C10 O25 1.278 . S
C11 Pr1 2.880 . S
C11 C12 1.491 1_554 S
C11 O26 1.254 . S
C11 O27 1.225 . S
C12 C11 1.491 1_556 S
C12 C13 1.392 . S
C12 C17 1.356 . S
C13 C12 1.392 . S
C13 C14 1.368 . S
C13 H36 0.929 1_556 S
C14 C13 1.368 . S
C14 C15 1.386 . S
C14 H37 0.929 . S
C15 C14 1.386 . S
C15 C16 1.373 . S
C16 C15 1.373 . S
C16 C17 1.409 . S
C16 H38 0.931 . S
C17 C12 1.356 . S
C17 C16 1.409 . S
C17 H39 0.930 . S
C18 O28 1.270 . S
C18 O29 1.248 . S
C19 O30 1.267 . S
C19 O31 1.278 . S
O20 Pr0 2.562 . S
O20 C2 1.254 . S
O21 Pr0 2.490 . S
O21 C2 1.225 . S
O22 Pr0 2.695 . S
O22 Pr1 2.436 . S
O22 C9 1.270 . S
O23 Pr0 2.512 . S
O23 C9 1.248 . S
O24 Pr1 2.438 . S
O24 C10 1.267 . S
O25 Pr0 2.437 . S
O25 C10 1.278 . S
O26 Pr1 2.562 . S
O26 C11 1.254 . S
O27 Pr1 2.490 . S
O27 C11 1.225 . S
O28 Pr0 2.436 . S
O28 Pr1 2.695 . S
O28 C18 1.270 . S
O29 Pr1 2.512 . S
O29 C18 1.248 . S
O30 Pr0 2.438 . S
O30 C19 1.267 . S
O31 Pr1 2.437 . S
O31 C19 1.278 . S
H32 C4 0.925 1_655 S
H33 C5 0.929 . S
H34 C7 0.931 . S
H35 C8 0.930 . S
H36 C13 0.929 1_554 S
H37 C14 0.929 . S
H38 C16 0.931 . S
H39 C17 0.930 . S
Pr40 C42 2.880 . S
Pr40 O60 2.562 . S
Pr40 O61 2.490 . S
Pr40 O62 2.695 . S
Pr40 O63 2.512 . S
Pr40 O65 2.437 . S
Pr40 O68 2.436 . S
Pr40 O70 2.438 . S
Pr41 C51 2.880 . S
Pr41 O62 2.436 . S
Pr41 O64 2.438 . S
Pr41 O66 2.562 . S
Pr41 O67 2.490 . S
Pr41 O68 2.695 . S
Pr41 O69 2.512 . S
Pr41 O71 2.437 . S
C42 Pr40 2.880 . S
C42 C43 1.491 . S
C42 O60 1.254 . S
C42 O61 1.225 . S
C43 C42 1.491 . S
C43 C44 1.392 . S
C43 C48 1.356 . S
C44 C43 1.392 . S
C44 C45 1.368 . S
C44 H72 0.929 . S
C45 C44 1.368 . S
C45 C46 1.386 . S
C45 H73 0.929 . S
C46 C45 1.386 . S
C46 C47 1.373 . S
C47 C46 1.373 . S
C47 C48 1.409 . S
C47 H74 0.931 . S
C48 C43 1.356 . S
C48 C47 1.409 . S
C48 H75 0.930 . S
C49 O62 1.270 . S
C49 O63 1.248 . S
C50 O64 1.267 . S
C50 O65 1.278 . S
C51 Pr41 2.880 . S
C51 C52 1.491 . S
C51 O66 1.254 . S
C51 O67 1.225 . S
C52 C51 1.491 . S
C52 C53 1.392 . S
C52 C57 1.356 . S
C53 C52 1.392 . S
C53 C54 1.368 . S
C53 H76 0.929 . S
C54 C53 1.368 . S
C54 C55 1.386 . S
C54 H77 0.929 . S
C55 C54 1.386 . S
C55 C56 1.373 . S
C56 C55 1.373 . S
C56 C57 1.409 . S
C56 H78 0.931 . S
C57 C52 1.356 . S
C57 C56 1.409 . S
C57 H79 0.930 . S
C58 O68 1.270 . S
C58 O69 1.248 . S
C59 O70 1.267 . S
C59 O71 1.278 . S
O60 Pr40 2.562 . S
O60 C42 1.254 . S
O61 Pr40 2.490 . S
O61 C42 1.225 . S
O62 Pr40 2.695 . S
O62 Pr41 2.436 . S
O62 C49 1.270 . S
O63 Pr40 2.512 . S
O63 C49 1.248 . S
O64 Pr41 2.438 . S
O64 C50 1.267 . S
O65 Pr40 2.437 . S
O65 C50 1.278 . S
O66 Pr41 2.562 . S
O66 C51 1.254 . S
O67 Pr41 2.490 . S
O67 C51 1.225 . S
O68 Pr40 2.436 . S
O68 Pr41 2.695 . S
O68 C58 1.270 . S
O69 Pr41 2.512 . S
O69 C58 1.248 . S
O70 Pr40 2.438 . S
O70 C59 1.267 . S
O71 Pr41 2.437 . S
O71 C59 1.278 . S
H72 C44 0.929 . S
H73 C45 0.929 . S
H74 C47 0.931 . S
H75 C48 0.930 . S
H76 C53 0.929 . S
H77 C54 0.929 . S
H78 C56 0.931 . S
H79 C57 0.930 . S
Pr80 C82 2.880 . S
Pr80 O100 2.562 . S
Pr80 O101 2.490 . S
Pr80 O102 2.695 . S
Pr80 O103 2.512 . S
Pr80 O105 2.437 . S
Pr80 O108 2.436 . S
Pr80 O110 2.438 . S
Pr81 C91 2.880 . S
Pr81 O102 2.436 . S
Pr81 O104 2.438 . S
Pr81 O106 2.562 . S
Pr81 O107 2.490 . S
Pr81 O108 2.695 . S
Pr81 O109 2.512 . S
Pr81 O111 2.437 . S
C82 Pr80 2.880 . S
C82 C83 1.491 . S
C82 O100 1.254 . S
C82 O101 1.225 . S
C83 C82 1.491 . S
C83 C84 1.392 . S
C83 C88 1.356 . S
C84 C83 1.392 . S
C84 C85 1.368 . S
C84 H112 0.929 . S
C85 C84 1.368 . S
C85 C86 1.386 . S
C85 H113 0.929 . S
C86 C85 1.386 . S
C86 C87 1.373 . S
C87 C86 1.373 . S
C87 C88 1.409 . S
C87 H114 0.931 . S
C88 C83 1.356 . S
C88 C87 1.409 . S
C88 H115 0.930 . S
C89 O102 1.270 . S
C89 O103 1.248 . S
C90 O104 1.267 . S
C90 O105 1.278 . S
C91 Pr81 2.880 . S
C91 C92 1.491 . S
C91 O106 1.254 . S
C91 O107 1.225 . S
C92 C91 1.491 . S
C92 C93 1.392 . S
C92 C97 1.356 . S
C93 C92 1.392 . S
C93 C94 1.368 . S
C93 H116 0.929 . S
C94 C93 1.368 . S
C94 C95 1.386 . S
C94 H117 0.929 . S
C95 C94 1.386 . S
C95 C96 1.373 . S
C96 C95 1.373 . S
C96 C97 1.409 . S
C96 H118 0.931 . S
C97 C92 1.356 . S
C97 C96 1.409 . S
C97 H119 0.930 . S
C98 O108 1.270 . S
C98 O109 1.248 . S
C99 O110 1.267 . S
C99 O111 1.278 . S
O100 Pr80 2.562 . S
O100 C82 1.254 . S
O101 Pr80 2.490 . S
O101 C82 1.225 . S
O102 Pr80 2.695 . S
O102 Pr81 2.436 . S
O102 C89 1.270 . S
O103 Pr80 2.512 . S
O103 C89 1.248 . S
O104 Pr81 2.438 . S
O104 C90 1.267 . S
O105 Pr80 2.437 . S
O105 C90 1.278 . S
O106 Pr81 2.562 . S
O106 C91 1.254 . S
O107 Pr81 2.490 . S
O107 C91 1.225 . S
O108 Pr80 2.436 . S
O108 Pr81 2.695 . S
O108 C98 1.270 . S
O109 Pr81 2.512 . S
O109 C98 1.248 . S
O110 Pr80 2.438 . S
O110 C99 1.267 . S
O111 Pr81 2.437 . S
O111 C99 1.278 . S
H112 C84 0.929 . S
H113 C85 0.929 . S
H114 C87 0.931 . S
H115 C88 0.930 . S
H116 C93 0.929 . S
H117 C94 0.929 . S
H118 C96 0.931 . S
H119 C97 0.930 . S
Pr120 C122 2.880 . S
Pr120 O140 2.562 . S
Pr120 O141 2.490 . S
Pr120 O142 2.695 . S
Pr120 O143 2.512 . S
Pr120 O145 2.437 . S
Pr120 O148 2.436 . S
Pr120 O150 2.438 . S
Pr121 C131 2.880 . S
Pr121 O142 2.436 . S
Pr121 O144 2.438 . S
Pr121 O146 2.562 . S
Pr121 O147 2.490 . S
Pr121 O148 2.695 . S
Pr121 O149 2.512 . S
Pr121 O151 2.437 . S
C122 Pr120 2.880 . S
C122 C123 1.491 . S
C122 O140 1.254 . S
C122 O141 1.225 . S
C123 C122 1.491 . S
C123 C124 1.392 1_556 S
C123 C128 1.356 1_556 S
C124 C123 1.392 1_554 S
C124 C125 1.368 . S
C124 H152 0.929 1_554 S
C125 C124 1.368 . S
C125 C126 1.386 . S
C125 H153 0.929 . S
C126 C125 1.386 . S
C126 C127 1.373 . S
C127 C126 1.373 . S
C127 C128 1.409 . S
C127 H154 0.931 . S
C128 C123 1.356 1_554 S
C128 C127 1.409 . S
C128 H155 0.930 . S
C129 O142 1.270 . S
C129 O143 1.248 . S
C130 O144 1.267 . S
C130 O145 1.278 . S
C131 Pr121 2.880 . S
C131 C132 1.491 . S
C131 O146 1.254 . S
C131 O147 1.225 . S
C132 C131 1.491 . S
C132 C133 1.392 . S
C132 C137 1.356 . S
C133 C132 1.392 . S
C133 C134 1.368 . S
C133 H156 0.929 . S
C134 C133 1.368 . S
C134 C135 1.386 . S
C134 H157 0.929 . S
C135 C134 1.386 . S
C135 C136 1.373 . S
C136 C135 1.373 . S
C136 C137 1.409 . S
C136 H158 0.931 . S
C137 C132 1.356 . S
C137 C136 1.409 . S
C137 H159 0.930 . S
C138 O148 1.270 . S
C138 O149 1.248 . S
C139 O150 1.267 . S
C139 O151 1.278 . S
O140 Pr120 2.562 . S
O140 C122 1.254 . S
O141 Pr120 2.490 . S
O141 C122 1.225 . S
O142 Pr120 2.695 . S
O142 Pr121 2.436 . S
O142 C129 1.270 . S
O143 Pr120 2.512 . S
O143 C129 1.248 . S
O144 Pr121 2.438 . S
O144 C130 1.267 . S
O145 Pr120 2.437 . S
O145 C130 1.278 . S
O146 Pr121 2.562 . S
O146 C131 1.254 . S
O147 Pr121 2.490 . S
O147 C131 1.225 . S
O148 Pr120 2.436 . S
O148 Pr121 2.695 . S
O148 C138 1.270 . S
O149 Pr121 2.512 . S
O149 C138 1.248 . S
O150 Pr120 2.438 . S
O150 C139 1.267 . S
O151 Pr121 2.437 . S
O151 C139 1.278 . S
H152 C124 0.929 1_556 S
H153 C125 0.929 . S
H154 C127 0.931 . S
H155 C128 0.930 . S
H156 C133 0.929 . S
H157 C134 0.929 . S
H158 C136 0.931 . S
H159 C137 0.930 . S
Pr160 C162 2.880 . S
Pr160 O180 2.562 . S
Pr160 O181 2.490 . S
Pr160 O182 2.695 . S
Pr160 O183 2.512 . S
Pr160 O185 2.437 . S
Pr160 O188 2.436 . S
Pr160 O190 2.438 . S
Pr161 C171 2.880 . S
Pr161 O182 2.436 . S
Pr161 O184 2.438 . S
Pr161 O186 2.562 . S
Pr161 O187 2.490 . S
Pr161 O188 2.695 . S
Pr161 O189 2.512 . S
Pr161 O191 2.437 . S
C162 Pr160 2.880 . S
C162 C163 1.491 . S
C162 O180 1.254 . S
C162 O181 1.225 . S
C163 C162 1.491 . S
C163 C164 1.392 . S
C163 C168 1.356 . S
C164 C163 1.392 . S
C164 C165 1.368 . S
C164 H192 0.929 . S
C165 C164 1.368 . S
C165 C166 1.386 . S
C165 H193 0.929 . S
C166 C165 1.386 . S
C166 C167 1.373 . S
C167 C166 1.373 . S
C167 C168 1.409 . S
C167 H194 0.931 . S
C168 C163 1.356 . S
C168 C167 1.409 . S
C168 H195 0.930 . S
C169 O182 1.270 . S
C169 O183 1.248 . S
C170 O184 1.267 . S
C170 O185 1.278 . S
C171 Pr161 2.880 . S
C171 C172 1.491 . S
C171 O186 1.254 . S
C171 O187 1.225 . S
C172 C171 1.491 . S
C172 C173 1.392 . S
C172 C177 1.356 . S
C173 C172 1.392 . S
C173 C174 1.368 . S
C173 H196 0.929 . S
C174 C173 1.368 . S
C174 C175 1.386 . S
C174 H197 0.929 . S
C175 C174 1.386 . S
C175 C176 1.373 . S
C176 C175 1.373 . S
C176 C177 1.409 . S
C176 H198 0.931 . S
C177 C172 1.356 . S
C177 C176 1.409 . S
C177 H199 0.930 . S
C178 O188 1.270 . S
C178 O189 1.248 . S
C179 O190 1.267 . S
C179 O191 1.278 . S
O180 Pr160 2.562 . S
O180 C162 1.254 . S
O181 Pr160 2.490 . S
O181 C162 1.225 . S
O182 Pr160 2.695 . S
O182 Pr161 2.436 . S
O182 C169 1.270 . S
O183 Pr160 2.512 . S
O183 C169 1.248 . S
O184 Pr161 2.438 . S
O184 C170 1.267 . S
O185 Pr160 2.437 . S
O185 C170 1.278 . S
O186 Pr161 2.562 . S
O186 C171 1.254 . S
O187 Pr161 2.490 . S
O187 C171 1.225 . S
O188 Pr160 2.436 . S
O188 Pr161 2.695 . S
O188 C178 1.270 . S
O189 Pr161 2.512 . S
O189 C178 1.248 . S
O190 Pr160 2.438 . S
O190 C179 1.267 . S
O191 Pr161 2.437 . S
O191 C179 1.278 . S
H192 C164 0.929 . S
H193 C165 0.929 . S
H194 C167 0.931 . S
H195 C168 0.930 . S
H196 C173 0.929 . S
H197 C174 0.929 . S
H198 C176 0.931 . S
H199 C177 0.930 . S
Pr200 C202 2.880 1_556 S
Pr200 O220 2.562 1_556 S
Pr200 O221 2.490 1_556 S
Pr200 O222 2.695 . S
Pr200 O223 2.512 . S
Pr200 O225 2.437 . S
Pr200 O228 2.436 . S
Pr200 O230 2.438 . S
Pr201 C211 2.880 . S
Pr201 O222 2.436 . S
Pr201 O224 2.438 . S
Pr201 O226 2.562 . S
Pr201 O227 2.490 . S
Pr201 O228 2.695 . S
Pr201 O229 2.512 . S
Pr201 O231 2.437 . S
C202 Pr200 2.880 1_554 S
C202 C203 1.491 . S
C202 O220 1.254 . S
C202 O221 1.225 . S
C203 C202 1.491 . S
C203 C204 1.392 . S
C203 C208 1.356 . S
C204 C203 1.392 . S
C204 C205 1.368 . S
C204 H232 0.929 . S
C205 C204 1.368 . S
C205 C206 1.386 . S
C205 H233 0.929 . S
C206 C205 1.386 . S
C206 C207 1.373 . S
C207 C206 1.373 . S
C207 C208 1.409 . S
C207 H234 0.931 . S
C208 C203 1.356 . S
C208 C207 1.409 . S
C208 H235 0.930 . S
C209 O222 1.270 . S
C209 O223 1.248 . S
C210 O224 1.267 . S
C210 O225 1.278 . S
C211 Pr201 2.880 . S
C211 C212 1.491 . S
C211 O226 1.254 . S
C211 O227 1.225 . S
C212 C211 1.491 . S
C212 C213 1.392 . S
C212 C217 1.356 . S
C213 C212 1.392 . S
C213 C214 1.368 . S
C213 H236 0.929 . S
C214 C213 1.368 . S
C214 C215 1.386 . S
C214 H237 0.929 . S
C215 C214 1.386 . S
C215 C216 1.373 . S
C216 C215 1.373 . S
C216 C217 1.409 . S
C216 H238 0.931 . S
C217 C212 1.356 . S
C217 C216 1.409 . S
C217 H239 0.930 . S
C218 O228 1.270 . S
C218 O229 1.248 . S
C219 O230 1.267 . S
C219 O231 1.278 . S
O220 Pr200 2.562 1_554 S
O220 C202 1.254 . S
O221 Pr200 2.490 1_554 S
O221 C202 1.225 . S
O222 Pr200 2.695 . S
O222 Pr201 2.436 . S
O222 C209 1.270 . S
O223 Pr200 2.512 . S
O223 C209 1.248 . S
O224 Pr201 2.438 . S
O224 C210 1.267 . S
O225 Pr200 2.437 . S
O225 C210 1.278 . S
O226 Pr201 2.562 . S
O226 C211 1.254 . S
O227 Pr201 2.490 . S
O227 C211 1.225 . S
O228 Pr200 2.436 . S
O228 Pr201 2.695 . S
O228 C218 1.270 . S
O229 Pr201 2.512 . S
O229 C218 1.248 . S
O230 Pr200 2.438 . S
O230 C219 1.267 . S
O231 Pr201 2.437 . S
O231 C219 1.278 . S
H232 C204 0.929 . S
H233 C205 0.929 . S
H234 C207 0.931 . S
H235 C208 0.930 . S
H236 C213 0.929 . S
H237 C214 0.929 . S
H238 C216 0.931 . S
H239 C217 0.930 . S
Pr240 C242 2.880 . S
Pr240 O260 2.562 . S
Pr240 O261 2.490 . S
Pr240 O262 2.695 . S
Pr240 O263 2.512 . S
Pr240 O265 2.437 . S
Pr240 O268 2.436 . S
Pr240 O270 2.438 . S
Pr241 C251 2.880 1_554 S
Pr241 O262 2.436 . S
Pr241 O264 2.438 . S
Pr241 O266 2.562 1_554 S
Pr241 O267 2.490 1_554 S
Pr241 O268 2.695 . S
Pr241 O269 2.512 . S
Pr241 O271 2.437 . S
C242 Pr240 2.880 . S
C242 C243 1.491 . S
C242 O260 1.254 . S
C242 O261 1.225 . S
C243 C242 1.491 . S
C243 C244 1.392 . S
C243 C248 1.356 . S
C244 C243 1.392 . S
C244 C245 1.368 . S
C244 H272 0.929 . S
C245 C244 1.368 . S
C245 C246 1.386 . S
C245 H273 0.929 . S
C246 C245 1.386 . S
C246 C247 1.373 . S
C247 C246 1.373 . S
C247 C248 1.409 . S
C247 H274 0.931 . S
C248 C243 1.356 . S
C248 C247 1.409 . S
C248 H275 0.930 . S
C249 O262 1.270 . S
C249 O263 1.248 . S
C250 O264 1.267 . S
C250 O265 1.278 . S
C251 Pr241 2.880 1_556 S
C251 C252 1.491 . S
C251 O266 1.254 . S
C251 O267 1.225 . S
C252 C251 1.491 . S
C252 C253 1.392 . S
C252 C257 1.356 . S
C253 C252 1.392 . S
C253 C254 1.368 . S
C253 H276 0.929 . S
C254 C253 1.368 . S
C254 C255 1.386 . S
C254 H277 0.929 . S
C255 C254 1.386 . S
C255 C256 1.373 . S
C256 C255 1.373 . S
C256 C257 1.409 . S
C256 H278 0.931 . S
C257 C252 1.356 . S
C257 C256 1.409 . S
C257 H279 0.930 . S
C258 O268 1.270 . S
C258 O269 1.248 . S
C259 O270 1.267 . S
C259 O271 1.278 . S
O260 Pr240 2.562 . S
O260 C242 1.254 . S
O261 Pr240 2.490 . S
O261 C242 1.225 . S
O262 Pr240 2.695 . S
O262 Pr241 2.436 . S
O262 C249 1.270 . S
O263 Pr240 2.512 . S
O263 C249 1.248 . S
O264 Pr241 2.438 . S
O264 C250 1.267 . S
O265 Pr240 2.437 . S
O265 C250 1.278 . S
O266 Pr241 2.562 1_556 S
O266 C251 1.254 . S
O267 Pr241 2.490 1_556 S
O267 C251 1.225 . S
O268 Pr240 2.436 . S
O268 Pr241 2.695 . S
O268 C258 1.270 . S
O269 Pr241 2.512 . S
O269 C258 1.248 . S
O270 Pr240 2.438 . S
O270 C259 1.267 . S
O271 Pr241 2.437 . S
O271 C259 1.278 . S
H272 C244 0.929 . S
H273 C245 0.929 . S
H274 C247 0.931 . S
H275 C248 0.930 . S
H276 C253 0.929 . S
H277 C254 0.929 . S
H278 C256 0.931 . S
H279 C257 0.930 . S
Pr280 C282 2.880 . S
Pr280 O300 2.562 . S
Pr280 O301 2.490 . S
Pr280 O302 2.695 . S
Pr280 O303 2.512 . S
Pr280 O305 2.437 . S
Pr280 O308 2.436 . S
Pr280 O310 2.438 . S
Pr281 C291 2.880 . S
Pr281 O302 2.436 . S
Pr281 O304 2.438 . S
Pr281 O306 2.562 . S
Pr281 O307 2.490 . S
Pr281 O308 2.695 . S
Pr281 O309 2.512 . S
Pr281 O311 2.437 . S
C282 Pr280 2.880 . S
C282 C283 1.491 . S
C282 O300 1.254 . S
C282 O301 1.225 . S
C283 C282 1.491 . S
C283 C284 1.392 . S
C283 C288 1.356 . S
C284 C283 1.392 . S
C284 C285 1.368 . S
C284 H312 0.929 . S
C285 C284 1.368 . S
C285 C286 1.386 . S
C285 H313 0.929 . S
C286 C285 1.386 . S
C286 C287 1.373 . S
C287 C286 1.373 . S
C287 C288 1.409 . S
C287 H314 0.931 . S
C288 C283 1.356 . S
C288 C287 1.409 . S
C288 H315 0.930 . S
C289 O302 1.270 . S
C289 O303 1.248 . S
C290 O304 1.267 . S
C290 O305 1.278 . S
C291 Pr281 2.880 . S
C291 C292 1.491 . S
C291 O306 1.254 . S
C291 O307 1.225 . S
C292 C291 1.491 . S
C292 C293 1.392 . S
C292 C297 1.356 . S
C293 C292 1.392 . S
C293 C294 1.368 . S
C293 H316 0.929 . S
C294 C293 1.368 . S
C294 C295 1.386 . S
C294 H317 0.929 . S
C295 C294 1.386 . S
C295 C296 1.373 . S
C296 C295 1.373 . S
C296 C297 1.409 . S
C296 H318 0.931 . S
C297 C292 1.356 . S
C297 C296 1.409 . S
C297 H319 0.930 . S
C298 O308 1.270 . S
C298 O309 1.248 . S
C299 O310 1.267 . S
C299 O311 1.278 . S
O300 Pr280 2.562 . S
O300 C282 1.254 . S
O301 Pr280 2.490 . S
O301 C282 1.225 . S
O302 Pr280 2.695 . S
O302 Pr281 2.436 . S
O302 C289 1.270 . S
O303 Pr280 2.512 . S
O303 C289 1.248 . S
O304 Pr281 2.438 . S
O304 C290 1.267 . S
O305 Pr280 2.437 . S
O305 C290 1.278 . S
O306 Pr281 2.562 . S
O306 C291 1.254 . S
O307 Pr281 2.490 . S
O307 C291 1.225 . S
O308 Pr280 2.436 . S
O308 Pr281 2.695 . S
O308 C298 1.270 . S
O309 Pr281 2.512 . S
O309 C298 1.248 . S
O310 Pr280 2.438 . S
O310 C299 1.267 . S
O311 Pr281 2.437 . S
O311 C299 1.278 . S
H312 C284 0.929 . S
H313 C285 0.929 . S
H314 C287 0.931 . S
H315 C288 0.930 . S
H316 C293 0.929 . S
H317 C294 0.929 . S
H318 C296 0.931 . S
H319 C297 0.930 . S
Pr320 C322 2.880 . S
Pr320 O340 2.562 . S
Pr320 O341 2.490 . S
Pr320 O342 2.695 . S
Pr320 O343 2.512 . S
Pr320 O345 2.437 . S
Pr320 O348 2.436 . S
Pr320 O350 2.438 . S
Pr321 C331 2.880 . S
Pr321 O342 2.436 . S
Pr321 O344 2.438 . S
Pr321 O346 2.562 . S
Pr321 O347 2.490 . S
Pr321 O348 2.695 . S
Pr321 O349 2.512 . S
Pr321 O351 2.437 . S
C322 Pr320 2.880 . S
C322 C323 1.491 . S
C322 O340 1.254 . S
C322 O341 1.225 . S
C323 C322 1.491 . S
C323 C324 1.392 . S
C323 C328 1.356 . S
C324 C323 1.392 . S
C324 C325 1.368 . S
C324 H352 0.929 . S
C325 C324 1.368 . S
C325 C326 1.386 . S
C325 H353 0.929 . S
C326 C325 1.386 . S
C326 C327 1.373 . S
C327 C326 1.373 . S
C327 C328 1.409 . S
C327 H354 0.931 . S
C328 C323 1.356 . S
C328 C327 1.409 . S
C328 H355 0.930 . S
C329 O342 1.270 . S
C329 O343 1.248 . S
C330 O344 1.267 . S
C330 O345 1.278 . S
C331 Pr321 2.880 . S
C331 C332 1.491 . S
C331 O346 1.254 . S
C331 O347 1.225 . S
C332 C331 1.491 . S
C332 C333 1.390 . S
C332 C337 1.356 . S
C333 C332 1.390 . S
C333 C334 1.369 1_654 S
C333 H356 0.931 1_655 S
C334 C333 1.369 1_456 S
C334 C335 1.386 1_455 S
C334 H357 0.929 . S
C335 C334 1.386 1_655 S
C335 C336 1.373 . S
C336 C335 1.373 . S
C336 C337 1.409 1_556 S
C336 H358 0.931 . S
C337 C332 1.356 . S
C337 C336 1.409 1_554 S
C337 H359 0.930 . S
C338 O348 1.270 . S
C338 O349 1.248 . S
C339 O350 1.267 . S
C339 O351 1.278 . S
O340 Pr320 2.562 . S
O340 C322 1.254 . S
O341 Pr320 2.490 . S
O341 C322 1.225 . S
O342 Pr320 2.695 . S
O342 Pr321 2.436 . S
O342 C329 1.270 . S
O343 Pr320 2.512 . S
O343 C329 1.248 . S
O344 Pr321 2.438 . S
O344 C330 1.267 . S
O345 Pr320 2.437 . S
O345 C330 1.278 . S
O346 Pr321 2.562 . S
O346 C331 1.254 . S
O347 Pr321 2.490 . S
O347 C331 1.225 . S
O348 Pr320 2.436 . S
O348 Pr321 2.695 . S
O348 C338 1.270 . S
O349 Pr321 2.512 . S
O349 C338 1.248 . S
O350 Pr320 2.438 . S
O350 C339 1.267 . S
O351 Pr321 2.437 . S
O351 C339 1.278 . S
H352 C324 0.929 . S
H353 C325 0.929 . S
H354 C327 0.931 . S
H355 C328 0.930 . S
H356 C333 0.931 1_455 S
H357 C334 0.929 . S
H358 C336 0.931 . S
H359 C337 0.930 . S
Pr360 C362 2.880 . S
Pr360 O380 2.562 . S
Pr360 O381 2.490 . S
Pr360 O382 2.695 . S
Pr360 O383 2.512 . S
Pr360 O385 2.437 . S
Pr360 O388 2.436 . S
Pr360 O390 2.438 . S
Pr361 C371 2.880 1_556 S
Pr361 O382 2.436 . S
Pr361 O384 2.438 . S
Pr361 O386 2.562 1_556 S
Pr361 O387 2.490 1_556 S
Pr361 O388 2.695 . S
Pr361 O389 2.512 . S
Pr361 O391 2.437 1_556 S
C362 Pr360 2.880 . S
C362 C363 1.491 . S
C362 O380 1.254 . S
C362 O381 1.225 . S
C363 C362 1.491 . S
C363 C364 1.392 . S
C363 C368 1.356 . S
C364 C363 1.392 . S
C364 C365 1.368 . S
C364 H392 0.929 . S
C365 C364 1.368 . S
C365 C366 1.386 . S
C365 H393 0.929 . S
C366 C365 1.386 . S
C366 C367 1.373 . S
C367 C366 1.373 . S
C367 C368 1.409 . S
C367 H394 0.931 . S
C368 C363 1.356 . S
C368 C367 1.409 . S
C368 H395 0.930 . S
C369 O382 1.270 . S
C369 O383 1.248 . S
C370 O384 1.267 . S
C370 O385 1.278 . S
C371 Pr361 2.880 1_554 S
C371 C372 1.491 . S
C371 O386 1.254 . S
C371 O387 1.225 . S
C372 C371 1.491 . S
C372 C373 1.392 . S
C372 C377 1.356 . S
C373 C372 1.392 . S
C373 C374 1.368 . S
C373 H396 0.929 . S
C374 C373 1.368 . S
C374 C375 1.386 . S
C374 H397 0.929 . S
C375 C374 1.386 . S
C375 C376 1.373 . S
C376 C375 1.373 . S
C376 C377 1.409 . S
C376 H398 0.931 . S
C377 C372 1.356 . S
C377 C376 1.409 . S
C377 H399 0.930 . S
C378 O388 1.270 . S
C378 O389 1.248 . S
C379 O390 1.267 1_554 S
C379 O391 1.278 . S
O380 Pr360 2.562 . S
O380 C362 1.254 . S
O381 Pr360 2.490 . S
O381 C362 1.225 . S
O382 Pr360 2.695 . S
O382 Pr361 2.436 . S
O382 C369 1.270 . S
O383 Pr360 2.512 . S
O383 C369 1.248 . S
O384 Pr361 2.438 . S
O384 C370 1.267 . S
O385 Pr360 2.437 . S
O385 C370 1.278 . S
O386 Pr361 2.562 1_554 S
O386 C371 1.254 . S
O387 Pr361 2.490 1_554 S
O387 C371 1.225 . S
O388 Pr360 2.436 . S
O388 Pr361 2.695 . S
O388 C378 1.270 . S
O389 Pr361 2.512 . S
O389 C378 1.248 . S
O390 Pr360 2.438 . S
O390 C379 1.267 1_556 S
O391 Pr361 2.437 1_554 S
O391 C379 1.278 . S
H392 C364 0.929 . S
H393 C365 0.929 . S
H394 C367 0.931 . S
H395 C368 0.930 . S
H396 C373 0.929 . S
H397 C374 0.929 . S
H398 C376 0.931 . S
H399 C377 0.930 . S
Pr400 C402 2.880 . S
Pr400 O420 2.562 . S
Pr400 O421 2.490 . S
Pr400 O422 2.695 . S
Pr400 O423 2.512 . S
Pr400 O425 2.437 . S
Pr400 O428 2.436 . S
Pr400 O430 2.438 . S
Pr401 C411 2.880 . S
Pr401 O422 2.436 . S
Pr401 O424 2.438 . S
Pr401 O426 2.562 . S
Pr401 O427 2.490 . S
Pr401 O428 2.695 . S
Pr401 O429 2.512 . S
Pr401 O431 2.437 . S
C402 Pr400 2.880 . S
C402 C403 1.491 . S
C402 O420 1.254 . S
C402 O421 1.225 . S
C403 C402 1.491 . S
C403 C404 1.392 . S
C403 C408 1.356 . S
C404 C403 1.392 . S
C404 C405 1.368 . S
C404 H432 0.929 . S
C405 C404 1.368 . S
C405 C406 1.386 . S
C405 H433 0.929 . S
C406 C405 1.386 . S
C406 C407 1.373 . S
C407 C406 1.373 . S
C407 C408 1.409 . S
C407 H434 0.931 . S
C408 C403 1.356 . S
C408 C407 1.409 . S
C408 H435 0.930 . S
C409 O422 1.270 . S
C409 O423 1.248 . S
C410 O424 1.267 . S
C410 O425 1.278 . S
C411 Pr401 2.880 . S
C411 C412 1.491 . S
C411 O426 1.254 . S
C411 O427 1.225 . S
C412 C411 1.491 . S
C412 C413 1.392 . S
C412 C417 1.356 . S
C413 C412 1.392 . S
C413 C414 1.368 . S
C413 H436 0.929 . S
C414 C413 1.368 . S
C414 C415 1.386 . S
C414 H437 0.929 . S
C415 C414 1.386 . S
C415 C416 1.373 . S
C416 C415 1.373 . S
C416 C417 1.409 . S
C416 H438 0.931 . S
C417 C412 1.356 . S
C417 C416 1.409 . S
C417 H439 0.930 . S
C418 O428 1.270 . S
C418 O429 1.248 . S
C419 O430 1.267 . S
C419 O431 1.278 . S
O420 Pr400 2.562 . S
O420 C402 1.254 . S
O421 Pr400 2.490 . S
O421 C402 1.225 . S
O422 Pr400 2.695 . S
O422 Pr401 2.436 . S
O422 C409 1.270 . S
O423 Pr400 2.512 . S
O423 C409 1.248 . S
O424 Pr401 2.438 . S
O424 C410 1.267 . S
O425 Pr400 2.437 . S
O425 C410 1.278 . S
O426 Pr401 2.562 . S
O426 C411 1.254 . S
O427 Pr401 2.490 . S
O427 C411 1.225 . S
O428 Pr400 2.436 . S
O428 Pr401 2.695 . S
O428 C418 1.270 . S
O429 Pr401 2.512 . S
O429 C418 1.248 . S
O430 Pr400 2.438 . S
O430 C419 1.267 . S
O431 Pr401 2.437 . S
O431 C419 1.278 . S
H432 C404 0.929 . S
H433 C405 0.929 . S
H434 C407 0.931 . S
H435 C408 0.930 . S
H436 C413 0.929 . S
H437 C414 0.929 . S
H438 C416 0.931 . S
H439 C417 0.930 . S
Pr440 C442 2.880 . S
Pr440 O460 2.562 . S
Pr440 O461 2.490 . S
Pr440 O462 2.695 . S
Pr440 O463 2.512 . S
Pr440 O465 2.437 . S
Pr440 O468 2.436 . S
Pr440 O470 2.438 . S
Pr441 C451 2.880 . S
Pr441 O462 2.436 . S
Pr441 O464 2.438 . S
Pr441 O466 2.562 . S
Pr441 O467 2.490 . S
Pr441 O468 2.695 . S
Pr441 O469 2.512 . S
Pr441 O471 2.437 . S
C442 Pr440 2.880 . S
C442 C443 1.491 . S
C442 O460 1.254 . S
C442 O461 1.225 . S
C443 C442 1.491 . S
C443 C444 1.392 . S
C443 C448 1.356 . S
C444 C443 1.392 . S
C444 C445 1.368 . S
C444 H472 0.929 . S
C445 C444 1.368 . S
C445 C446 1.386 . S
C445 H473 0.929 . S
C446 C445 1.386 . S
C446 C447 1.373 . S
C447 C446 1.373 . S
C447 C448 1.409 . S
C447 H474 0.931 . S
C448 C443 1.356 . S
C448 C447 1.409 . S
C448 H475 0.930 . S
C449 O462 1.270 . S
C449 O463 1.248 . S
C450 O464 1.267 . S
C450 O465 1.278 . S
C451 Pr441 2.880 . S
C451 C452 1.491 . S
C451 O466 1.254 . S
C451 O467 1.225 . S
C452 C451 1.491 . S
C452 C453 1.392 . S
C452 C457 1.356 . S
C453 C452 1.392 . S
C453 C454 1.368 . S
C453 H476 0.929 . S
C454 C453 1.368 . S
C454 C455 1.386 . S
C454 H477 0.929 . S
C455 C454 1.386 . S
C455 C456 1.373 . S
C456 C455 1.373 . S
C456 C457 1.409 . S
C456 H478 0.931 . S
C457 C452 1.356 . S
C457 C456 1.409 . S
C457 H479 0.930 . S
C458 O468 1.270 . S
C458 O469 1.248 . S
C459 O470 1.267 . S
C459 O471 1.278 . S
O460 Pr440 2.562 . S
O460 C442 1.254 . S
O461 Pr440 2.490 . S
O461 C442 1.225 . S
O462 Pr440 2.695 . S
O462 Pr441 2.436 . S
O462 C449 1.270 . S
O463 Pr440 2.512 . S
O463 C449 1.248 . S
O464 Pr441 2.438 . S
O464 C450 1.267 . S
O465 Pr440 2.437 . S
O465 C450 1.278 . S
O466 Pr441 2.562 . S
O466 C451 1.254 . S
O467 Pr441 2.490 . S
O467 C451 1.225 . S
O468 Pr440 2.436 . S
O468 Pr441 2.695 . S
O468 C458 1.270 . S
O469 Pr441 2.512 . S
O469 C458 1.248 . S
O470 Pr440 2.438 . S
O470 C459 1.267 . S
O471 Pr441 2.437 . S
O471 C459 1.278 . S
H472 C444 0.929 . S
H473 C445 0.929 . S
H474 C447 0.931 . S
H475 C448 0.930 . S
H476 C453 0.929 . S
H477 C454 0.929 . S
H478 C456 0.931 . S
H479 C457 0.930 . S
Pr480 C482 2.880 . S
Pr480 O500 2.562 . S
Pr480 O501 2.490 . S
Pr480 O502 2.695 . S
Pr480 O503 2.512 . S
Pr480 O505 2.437 . S
Pr480 O508 2.436 . S
Pr480 O510 2.438 . S
Pr481 C491 2.880 . S
Pr481 O502 2.436 . S
Pr481 O504 2.438 . S
Pr481 O506 2.562 . S
Pr481 O507 2.490 . S
Pr481 O508 2.695 . S
Pr481 O509 2.512 . S
Pr481 O511 2.437 . S
C482 Pr480 2.880 . S
C482 C483 1.491 . S
C482 O500 1.254 . S
C482 O501 1.225 . S
C483 C482 1.491 . S
C483 C484 1.392 . S
C483 C488 1.356 . S
C484 C483 1.392 . S
C484 C485 1.368 . S
C484 H512 0.929 . S
C485 C484 1.368 . S
C485 C486 1.386 . S
C485 H513 0.929 . S
C486 C485 1.386 . S
C486 C487 1.373 . S
C487 C486 1.373 . S
C487 C488 1.409 . S
C487 H514 0.931 . S
C488 C483 1.356 . S
C488 C487 1.409 . S
C488 H515 0.930 . S
C489 O502 1.270 . S
C489 O503 1.248 . S
C490 O504 1.267 . S
C490 O505 1.278 . S
C491 Pr481 2.880 . S
C491 C492 1.491 . S
C491 O506 1.254 . S
C491 O507 1.225 . S
C492 C491 1.491 . S
C492 C493 1.392 . S
C492 C497 1.356 . S
C493 C492 1.392 . S
C493 C494 1.368 . S
C493 H516 0.929 . S
C494 C493 1.368 . S
C494 C495 1.386 . S
C494 H517 0.929 . S
C495 C494 1.386 . S
C495 C496 1.373 . S
C496 C495 1.373 . S
C496 C497 1.409 . S
C496 H518 0.931 . S
C497 C492 1.356 . S
C497 C496 1.409 . S
C497 H519 0.930 . S
C498 O508 1.270 . S
C498 O509 1.248 . S
C499 O510 1.267 . S
C499 O511 1.278 . S
O500 Pr480 2.562 . S
O500 C482 1.254 . S
O501 Pr480 2.490 . S
O501 C482 1.225 . S
O502 Pr480 2.695 . S
O502 Pr481 2.436 . S
O502 C489 1.270 . S
O503 Pr480 2.512 . S
O503 C489 1.248 . S
O504 Pr481 2.438 . S
O504 C490 1.267 . S
O505 Pr480 2.437 . S
O505 C490 1.278 . S
O506 Pr481 2.562 . S
O506 C491 1.254 . S
O507 Pr481 2.490 . S
O507 C491 1.225 . S
O508 Pr480 2.436 . S
O508 Pr481 2.695 . S
O508 C498 1.270 . S
O509 Pr481 2.512 . S
O509 C498 1.248 . S
O510 Pr480 2.438 . S
O510 C499 1.267 . S
O511 Pr481 2.437 . S
O511 C499 1.278 . S
H512 C484 0.929 . S
H513 C485 0.929 . S
H514 C487 0.931 . S
H515 C488 0.930 . S
H516 C493 0.929 . S
H517 C494 0.929 . S
H518 C496 0.931 . S
H519 C497 0.930 . S
Pr520 C522 2.880 . S
Pr520 O540 2.562 . S
Pr520 O541 2.490 . S
Pr520 O542 2.695 . S
Pr520 O543 2.512 . S
Pr520 O545 2.437 . S
Pr520 O548 2.436 . S
Pr520 O550 2.438 . S
Pr521 C531 2.880 . S
Pr521 O542 2.436 . S
Pr521 O544 2.438 . S
Pr521 O546 2.562 . S
Pr521 O547 2.490 . S
Pr521 O548 2.695 . S
Pr521 O549 2.512 . S
Pr521 O551 2.437 . S
C522 Pr520 2.880 . S
C522 C523 1.491 . S
C522 O540 1.254 . S
C522 O541 1.225 . S
C523 C522 1.491 . S
C523 C524 1.392 . S
C523 C528 1.356 . S
C524 C523 1.392 . S
C524 C525 1.368 . S
C524 H552 0.929 . S
C525 C524 1.368 . S
C525 C526 1.386 . S
C525 H553 0.929 . S
C526 C525 1.386 . S
C526 C527 1.373 . S
C527 C526 1.373 . S
C527 C528 1.409 . S
C527 H554 0.931 . S
C528 C523 1.356 . S
C528 C527 1.409 . S
C528 H555 0.930 . S
C529 O542 1.270 . S
C529 O543 1.248 . S
C530 O544 1.267 . S
C530 O545 1.278 . S
C531 Pr521 2.880 . S
C531 C532 1.491 . S
C531 O546 1.254 . S
C531 O547 1.225 . S
C532 C531 1.491 . S
C532 C533 1.392 . S
C532 C537 1.356 . S
C533 C532 1.392 . S
C533 C534 1.368 . S
C533 H556 0.929 . S
C534 C533 1.368 . S
C534 C535 1.386 . S
C534 H557 0.929 . S
C535 C534 1.386 . S
C535 C536 1.373 . S
C536 C535 1.373 . S
C536 C537 1.409 . S
C536 H558 0.931 . S
C537 C532 1.356 . S
C537 C536 1.409 . S
C537 H559 0.930 . S
C538 O548 1.270 . S
C538 O549 1.248 . S
C539 O550 1.267 . S
C539 O551 1.278 . S
O540 Pr520 2.562 . S
O540 C522 1.254 . S
O541 Pr520 2.490 . S
O541 C522 1.225 . S
O542 Pr520 2.695 . S
O542 Pr521 2.436 . S
O542 C529 1.270 . S
O543 Pr520 2.512 . S
O543 C529 1.248 . S
O544 Pr521 2.438 . S
O544 C530 1.267 . S
O545 Pr520 2.437 . S
O545 C530 1.278 . S
O546 Pr521 2.562 . S
O546 C531 1.254 . S
O547 Pr521 2.490 . S
O547 C531 1.225 . S
O548 Pr520 2.436 . S
O548 Pr521 2.695 . S
O548 C538 1.270 . S
O549 Pr521 2.512 . S
O549 C538 1.248 . S
O550 Pr520 2.438 . S
O550 C539 1.267 . S
O551 Pr521 2.437 . S
O551 C539 1.278 . S
H552 C524 0.929 . S
H553 C525 0.929 . S
H554 C527 0.931 . S
H555 C528 0.930 . S
H556 C533 0.929 . S
H557 C534 0.929 . S
H558 C536 0.931 . S
H559 C537 0.930 . S
Pr560 C562 2.880 . S
Pr560 O580 2.562 . S
Pr560 O581 2.490 . S
Pr560 O582 2.695 . S
Pr560 O583 2.512 . S
Pr560 O585 2.437 . S
Pr560 O588 2.436 . S
Pr560 O590 2.438 . S
Pr561 C571 2.880 . S
Pr561 O582 2.436 . S
Pr561 O584 2.438 . S
Pr561 O586 2.562 . S
Pr561 O587 2.490 . S
Pr561 O588 2.695 . S
Pr561 O589 2.512 . S
Pr561 O591 2.437 . S
C562 Pr560 2.880 . S
C562 C563 1.491 . S
C562 O580 1.254 . S
C562 O581 1.225 . S
C563 C562 1.491 . S
C563 C564 1.392 . S
C563 C568 1.356 . S
C564 C563 1.392 . S
C564 C565 1.368 . S
C564 H592 0.929 . S
C565 C564 1.368 . S
C565 C566 1.386 . S
C565 H593 0.929 . S
C566 C565 1.386 . S
C566 C567 1.373 . S
C567 C566 1.373 . S
C567 C568 1.409 . S
C567 H594 0.931 . S
C568 C563 1.356 . S
C568 C567 1.409 . S
C568 H595 0.930 . S
C569 O582 1.270 . S
C569 O583 1.248 . S
C570 O584 1.267 . S
C570 O585 1.278 . S
C571 Pr561 2.880 . S
C571 C572 1.491 . S
C571 O586 1.254 . S
C571 O587 1.225 . S
C572 C571 1.491 . S
C572 C573 1.392 . S
C572 C577 1.356 . S
C573 C572 1.392 . S
C573 C574 1.368 . S
C573 H596 0.929 . S
C574 C573 1.368 . S
C574 C575 1.386 . S
C574 H597 0.929 . S
C575 C574 1.386 . S
C575 C576 1.373 . S
C576 C575 1.373 . S
C576 C577 1.409 . S
C576 H598 0.931 . S
C577 C572 1.356 . S
C577 C576 1.409 . S
C577 H599 0.930 . S
C578 O588 1.270 . S
C578 O589 1.248 . S
C579 O590 1.267 . S
C579 O591 1.278 . S
O580 Pr560 2.562 . S
O580 C562 1.254 . S
O581 Pr560 2.490 . S
O581 C562 1.225 . S
O582 Pr560 2.695 . S
O582 Pr561 2.436 . S
O582 C569 1.270 . S
O583 Pr560 2.512 . S
O583 C569 1.248 . S
O584 Pr561 2.438 . S
O584 C570 1.267 . S
O585 Pr560 2.437 . S
O585 C570 1.278 . S
O586 Pr561 2.562 . S
O586 C571 1.254 . S
O587 Pr561 2.490 . S
O587 C571 1.225 . S
O588 Pr560 2.436 . S
O588 Pr561 2.695 . S
O588 C578 1.270 . S
O589 Pr561 2.512 . S
O589 C578 1.248 . S
O590 Pr560 2.438 . S
O590 C579 1.267 . S
O591 Pr561 2.437 . S
O591 C579 1.278 . S
H592 C564 0.929 . S
H593 C565 0.929 . S
H594 C567 0.931 . S
H595 C568 0.930 . S
H596 C573 0.929 . S
H597 C574 0.929 . S
H598 C576 0.931 . S
H599 C577 0.930 . S
Pr600 C602 2.880 . S
Pr600 O620 2.562 . S
Pr600 O621 2.490 . S
Pr600 O622 2.695 1_554 S
Pr600 O623 2.512 1_554 S
Pr600 O625 2.437 . S
Pr600 O628 2.436 . S
Pr600 O630 2.438 1_554 S
Pr601 C611 2.880 . S
Pr601 O622 2.436 . S
Pr601 O624 2.438 1_556 S
Pr601 O626 2.562 . S
Pr601 O627 2.490 . S
Pr601 O628 2.695 1_556 S
Pr601 O629 2.512 . S
Pr601 O631 2.437 . S
C602 Pr600 2.880 . S
C602 C603 1.491 . S
C602 O620 1.254 . S
C602 O621 1.225 . S
C603 C602 1.491 . S
C603 C604 1.392 . S
C603 C608 1.356 . S
C604 C603 1.392 . S
C604 C605 1.368 . S
C604 H632 0.929 . S
C605 C604 1.368 . S
C605 C606 1.386 . S
C605 H633 0.929 . S
C606 C605 1.386 . S
C606 C607 1.373 . S
C607 C606 1.373 . S
C607 C608 1.409 . S
C607 H634 0.931 . S
C608 C603 1.356 . S
C608 C607 1.409 . S
C608 H635 0.930 . S
C609 O622 1.270 . S
C609 O623 1.248 . S
C610 O624 1.267 . S
C610 O625 1.278 . S
C611 Pr601 2.880 . S
C611 C612 1.491 . S
C611 O626 1.254 . S
C611 O627 1.225 . S
C612 C611 1.491 . S
C612 C613 1.392 . S
C612 C617 1.356 . S
C613 C612 1.392 . S
C613 C614 1.368 . S
C613 H636 0.929 . S
C614 C613 1.368 . S
C614 C615 1.386 . S
C614 H637 0.929 . S
C615 C614 1.386 . S
C615 C616 1.373 . S
C616 C615 1.373 . S
C616 C617 1.409 . S
C616 H638 0.931 . S
C617 C612 1.356 . S
C617 C616 1.409 . S
C617 H639 0.930 . S
C618 O628 1.270 1_556 S
C618 O629 1.248 . S
C619 O630 1.267 . S
C619 O631 1.278 . S
O620 Pr600 2.562 . S
O620 C602 1.254 . S
O621 Pr600 2.490 . S
O621 C602 1.225 . S
O622 Pr600 2.695 1_556 S
O622 Pr601 2.436 . S
O622 C609 1.270 . S
O623 Pr600 2.512 1_556 S
O623 C609 1.248 . S
O624 Pr601 2.438 1_554 S
O624 C610 1.267 . S
O625 Pr600 2.437 . S
O625 C610 1.278 . S
O626 Pr601 2.562 . S
O626 C611 1.254 . S
O627 Pr601 2.490 . S
O627 C611 1.225 . S
O628 Pr600 2.436 . S
O628 Pr601 2.695 1_554 S
O628 C618 1.270 1_554 S
O629 Pr601 2.512 . S
O629 C618 1.248 . S
O630 Pr600 2.438 1_556 S
O630 C619 1.267 . S
O631 Pr601 2.437 . S
O631 C619 1.278 . S
H632 C604 0.929 . S
H633 C605 0.929 . S
H634 C607 0.931 . S
H635 C608 0.930 . S
H636 C613 0.929 . S
H637 C614 0.929 . S
H638 C616 0.931 . S
H639 C617 0.930 . S
Pr640 C642 2.880 . S
Pr640 O660 2.562 . S
Pr640 O661 2.490 . S
Pr640 O662 2.695 . S
Pr640 O663 2.512 . S
Pr640 O665 2.437 . S
Pr640 O668 2.436 . S
Pr640 O670 2.438 . S
Pr641 C651 2.880 . S
Pr641 O662 2.436 . S
Pr641 O664 2.438 . S
Pr641 O666 2.562 . S
Pr641 O667 2.490 . S
Pr641 O668 2.695 . S
Pr641 O669 2.512 . S
Pr641 O671 2.437 . S
C642 Pr640 2.880 . S
C642 C643 1.491 . S
C642 O660 1.254 . S
C642 O661 1.225 . S
C643 C642 1.491 . S
C643 C644 1.392 . S
C643 C648 1.356 . S
C644 C643 1.392 . S
C644 C645 1.368 . S
C644 H672 0.929 . S
C645 C644 1.368 . S
C645 C646 1.386 . S
C645 H673 0.929 . S
C646 C645 1.386 . S
C646 C647 1.373 . S
C647 C646 1.373 . S
C647 C648 1.409 . S
C647 H674 0.931 . S
C648 C643 1.356 . S
C648 C647 1.409 . S
C648 H675 0.930 . S
C649 O662 1.270 . S
C649 O663 1.248 . S
C650 O664 1.267 . S
C650 O665 1.278 . S
C651 Pr641 2.880 . S
C651 C652 1.491 . S
C651 O666 1.254 . S
C651 O667 1.225 . S
C652 C651 1.491 . S
C652 C653 1.392 . S
C652 C657 1.356 . S
C653 C652 1.392 . S
C653 C654 1.368 . S
C653 H676 0.929 . S
C654 C653 1.368 . S
C654 C655 1.386 . S
C654 H677 0.929 . S
C655 C654 1.386 . S
C655 C656 1.373 . S
C656 C655 1.373 . S
C656 C657 1.409 . S
C656 H678 0.931 . S
C657 C652 1.356 . S
C657 C656 1.409 . S
C657 H679 0.930 . S
C658 O668 1.270 . S
C658 O669 1.248 . S
C659 O670 1.267 . S
C659 O671 1.278 . S
O660 Pr640 2.562 . S
O660 C642 1.254 . S
O661 Pr640 2.490 . S
O661 C642 1.225 . S
O662 Pr640 2.695 . S
O662 Pr641 2.436 . S
O662 C649 1.270 . S
O663 Pr640 2.512 . S
O663 C649 1.248 . S
O664 Pr641 2.438 . S
O664 C650 1.267 . S
O665 Pr640 2.437 . S
O665 C650 1.278 . S
O666 Pr641 2.562 . S
O666 C651 1.254 . S
O667 Pr641 2.490 . S
O667 C651 1.225 . S
O668 Pr640 2.436 . S
O668 Pr641 2.695 . S
O668 C658 1.270 . S
O669 Pr641 2.512 . S
O669 C658 1.248 . S
O670 Pr640 2.438 . S
O670 C659 1.267 . S
O671 Pr641 2.437 . S
O671 C659 1.278 . S
H672 C644 0.929 . S
H673 C645 0.929 . S
H674 C647 0.931 . S
H675 C648 0.930 . S
H676 C653 0.929 . S
H677 C654 0.929 . S
H678 C656 0.931 . S
H679 C657 0.930 . S
Pr680 C682 2.880 . S
Pr680 O700 2.562 . S
Pr680 O701 2.490 . S
Pr680 O702 2.695 . S
Pr680 O703 2.512 . S
Pr680 O705 2.437 . S
Pr680 O708 2.436 . S
Pr680 O710 2.438 . S
Pr681 C691 2.880 . S
Pr681 O702 2.436 . S
Pr681 O704 2.438 . S
Pr681 O706 2.562 . S
Pr681 O707 2.490 . S
Pr681 O708 2.695 . S
Pr681 O709 2.512 . S
Pr681 O711 2.437 . S
C682 Pr680 2.880 . S
C682 C683 1.491 . S
C682 O700 1.254 . S
C682 O701 1.225 . S
C683 C682 1.491 . S
C683 C684 1.392 . S
C683 C688 1.356 . S
C684 C683 1.392 . S
C684 C685 1.368 . S
C684 H712 0.929 . S
C685 C684 1.368 . S
C685 C686 1.386 . S
C685 H713 0.929 . S
C686 C685 1.386 . S
C686 C687 1.373 . S
C687 C686 1.373 . S
C687 C688 1.409 . S
C687 H714 0.931 . S
C688 C683 1.356 . S
C688 C687 1.409 . S
C688 H715 0.930 . S
C689 O702 1.270 . S
C689 O703 1.248 . S
C690 O704 1.267 . S
C690 O705 1.278 . S
C691 Pr681 2.880 . S
C691 C692 1.491 . S
C691 O706 1.254 . S
C691 O707 1.225 . S
C692 C691 1.491 . S
C692 C693 1.392 1_556 S
C692 C697 1.356 1_556 S
C693 C692 1.392 1_554 S
C693 C694 1.368 . S
C693 H716 0.929 1_554 S
C694 C693 1.368 . S
C694 C695 1.386 . S
C694 H717 0.929 . S
C695 C694 1.386 . S
C695 C696 1.373 . S
C696 C695 1.373 . S
C696 C697 1.409 . S
C696 H718 0.931 . S
C697 C692 1.356 1_554 S
C697 C696 1.409 . S
C697 H719 0.930 . S
C698 O708 1.270 . S
C698 O709 1.248 . S
C699 O710 1.267 . S
C699 O711 1.278 . S
O700 Pr680 2.562 . S
O700 C682 1.254 . S
O701 Pr680 2.490 . S
O701 C682 1.225 . S
O702 Pr680 2.695 . S
O702 Pr681 2.436 . S
O702 C689 1.270 . S
O703 Pr680 2.512 . S
O703 C689 1.248 . S
O704 Pr681 2.438 . S
O704 C690 1.267 . S
O705 Pr680 2.437 . S
O705 C690 1.278 . S
O706 Pr681 2.562 . S
O706 C691 1.254 . S
O707 Pr681 2.490 . S
O707 C691 1.225 . S
O708 Pr680 2.436 . S
O708 Pr681 2.695 . S
O708 C698 1.270 . S
O709 Pr681 2.512 . S
O709 C698 1.248 . S
O710 Pr680 2.438 . S
O710 C699 1.267 . S
O711 Pr681 2.437 . S
O711 C699 1.278 . S
H712 C684 0.929 . S
H713 C685 0.929 . S
H714 C687 0.931 . S
H715 C688 0.930 . S
H716 C693 0.929 1_556 S
H717 C694 0.929 . S
H718 C696 0.931 . S
H719 C697 0.930 . S
Pr720 C722 2.880 . S
Pr720 O740 2.562 . S
Pr720 O741 2.490 . S
Pr720 O742 2.695 . S
Pr720 O743 2.512 . S
Pr720 O745 2.437 . S
Pr720 O748 2.436 . S
Pr720 O750 2.438 . S
Pr721 C731 2.880 . S
Pr721 O742 2.436 . S
Pr721 O744 2.438 . S
Pr721 O746 2.562 . S
Pr721 O747 2.490 . S
Pr721 O748 2.695 . S
Pr721 O749 2.512 . S
Pr721 O751 2.437 . S
C722 Pr720 2.880 . S
C722 C723 1.491 . S
C722 O740 1.254 . S
C722 O741 1.225 . S
C723 C722 1.491 . S
C723 C724 1.392 . S
C723 C728 1.356 . S
C724 C723 1.392 . S
C724 C725 1.368 . S
C724 H752 0.905 1_655 S
C725 C724 1.368 . S
C725 C726 1.386 . S
C725 H753 0.929 1_655 S
C726 C725 1.386 . S
C726 C727 1.373 . S
C727 C726 1.373 . S
C727 C728 1.409 . S
C727 H754 0.931 . S
C728 C723 1.356 . S
C728 C727 1.409 . S
C728 H755 0.930 . S
C729 O742 1.270 . S
C729 O743 1.248 . S
C730 O744 1.267 . S
C730 O745 1.278 . S
C731 Pr721 2.880 . S
C731 C732 1.491 1_554 S
C731 O746 1.254 . S
C731 O747 1.225 . S
C732 C731 1.491 1_556 S
C732 C733 1.392 . S
C732 C737 1.356 . S
C733 C732 1.392 . S
C733 C734 1.368 . S
C733 H756 0.929 . S
C734 C733 1.368 . S
C734 C735 1.386 . S
C734 H757 0.929 . S
C735 C734 1.386 . S
C735 C736 1.373 . S
C736 C735 1.373 . S
C736 C737 1.409 . S
C736 H758 0.931 . S
C737 C732 1.356 . S
C737 C736 1.409 . S
C737 H759 0.930 . S
C738 O748 1.270 . S
C738 O749 1.248 . S
C739 O750 1.267 . S
C739 O751 1.278 . S
O740 Pr720 2.562 . S
O740 C722 1.254 . S
O741 Pr720 2.490 . S
O741 C722 1.225 . S
O742 Pr720 2.695 . S
O742 Pr721 2.436 . S
O742 C729 1.270 . S
O743 Pr720 2.512 . S
O743 C729 1.248 . S
O744 Pr721 2.438 . S
O744 C730 1.267 . S
O745 Pr720 2.437 . S
O745 C730 1.278 . S
O746 Pr721 2.562 . S
O746 C731 1.254 . S
O747 Pr721 2.490 . S
O747 C731 1.225 . S
O748 Pr720 2.436 . S
O748 Pr721 2.695 . S
O748 C738 1.270 . S
O749 Pr721 2.512 . S
O749 C738 1.248 . S
O750 Pr720 2.438 . S
O750 C739 1.267 . S
O751 Pr721 2.437 . S
O751 C739 1.278 . S
H752 C724 0.905 1_455 S
H753 C725 0.929 1_455 S
H754 C727 0.931 . S
H755 C728 0.930 . S
H756 C733 0.929 . S
H757 C734 0.929 . S
H758 C736 0.931 . S
H759 C737 0.930 . S
Pr760 C762 2.880 . S
Pr760 O780 2.562 . S
Pr760 O781 2.490 . S
Pr760 O782 2.695 . S
Pr760 O783 2.512 . S
Pr760 O785 2.437 . S
Pr760 O788 2.436 . S
Pr760 O790 2.438 . S
Pr761 C771 2.880 . S
Pr761 O782 2.436 . S
Pr761 O784 2.438 . S
Pr761 O786 2.562 . S
Pr761 O787 2.490 . S
Pr761 O788 2.695 . S
Pr761 O789 2.512 . S
Pr761 O791 2.437 . S
C762 Pr760 2.880 . S
C762 C763 1.491 . S
C762 O780 1.254 . S
C762 O781 1.225 . S
C763 C762 1.491 . S
C763 C764 1.392 . S
C763 C768 1.356 . S
C764 C763 1.392 . S
C764 C765 1.368 . S
C764 H792 0.929 . S
C765 C764 1.368 . S
C765 C766 1.386 . S
C765 H793 0.929 . S
C766 C765 1.386 . S
C766 C767 1.373 . S
C767 C766 1.373 . S
C767 C768 1.409 . S
C767 H794 0.931 . S
C768 C763 1.356 . S
C768 C767 1.409 . S
C768 H795 0.930 . S
C769 O782 1.270 . S
C769 O783 1.248 . S
C770 O784 1.267 . S
C770 O785 1.278 . S
C771 Pr761 2.880 . S
C771 C772 1.491 . S
C771 O786 1.254 . S
C771 O787 1.225 . S
C772 C771 1.491 . S
C772 C773 1.392 . S
C772 C777 1.356 . S
C773 C772 1.392 . S
C773 C774 1.368 . S
C773 H796 0.929 . S
C774 C773 1.368 . S
C774 C775 1.386 . S
C774 H797 0.929 . S
C775 C774 1.386 . S
C775 C776 1.373 . S
C776 C775 1.373 . S
C776 C777 1.409 . S
C776 H798 0.931 . S
C777 C772 1.356 . S
C777 C776 1.409 . S
C777 H799 0.930 . S
C778 O788 1.270 . S
C778 O789 1.248 . S
C779 O790 1.267 . S
C779 O791 1.278 . S
O780 Pr760 2.562 . S
O780 C762 1.254 . S
O781 Pr760 2.490 . S
O781 C762 1.225 . S
O782 Pr760 2.695 . S
O782 Pr761 2.436 . S
O782 C769 1.270 . S
O783 Pr760 2.512 . S
O783 C769 1.248 . S
O784 Pr761 2.438 . S
O784 C770 1.267 . S
O785 Pr760 2.437 . S
O785 C770 1.278 . S
O786 Pr761 2.562 . S
O786 C771 1.254 . S
O787 Pr761 2.490 . S
O787 C771 1.225 . S
O788 Pr760 2.436 . S
O788 Pr761 2.695 . S
O788 C778 1.270 . S
O789 Pr761 2.512 . S
O789 C778 1.248 . S
O790 Pr760 2.438 . S
O790 C779 1.267 . S
O791 Pr761 2.437 . S
O791 C779 1.278 . S
H792 C764 0.929 . S
H793 C765 0.929 . S
H794 C767 0.931 . S
H795 C768 0.930 . S
H796 C773 0.929 . S
H797 C774 0.929 . S
H798 C776 0.931 . S
H799 C777 0.930 . S
Pr800 C802 2.880 . S
Pr800 O820 2.562 . S
Pr800 O821 2.490 . S
Pr800 O822 2.695 . S
Pr800 O823 2.512 . S
Pr800 O825 2.437 . S
Pr800 O828 2.436 . S
Pr800 O830 2.438 . S
Pr801 C811 2.880 1_554 S
Pr801 O822 2.436 . S
Pr801 O824 2.438 . S
Pr801 O826 2.562 1_554 S
Pr801 O827 2.483 1_544 S
Pr801 O828 2.695 . S
Pr801 O829 2.512 1_545 S
Pr801 O831 2.437 . S
C802 Pr800 2.880 . S
C802 C803 1.491 . S
C802 O820 1.254 . S
C802 O821 1.225 . S
C803 C802 1.491 . S
C803 C804 1.392 . S
C803 C808 1.356 . S
C804 C803 1.392 . S
C804 C805 1.368 . S
C804 H832 0.929 . S
C805 C804 1.368 . S
C805 C806 1.386 . S
C805 H833 0.929 . S
C806 C805 1.386 . S
C806 C807 1.373 . S
C807 C806 1.373 . S
C807 C808 1.409 . S
C807 H834 0.931 . S
C808 C803 1.356 . S
C808 C807 1.409 . S
C808 H835 0.930 . S
C809 O822 1.270 . S
C809 O823 1.248 . S
C810 O824 1.267 . S
C810 O825 1.278 . S
C811 Pr801 2.880 1_556 S
C811 C812 1.491 1_545 S
C811 O826 1.254 . S
C811 O827 1.231 1_545 S
C812 C811 1.491 1_565 S
C812 C813 1.392 . S
C812 C817 1.356 1_565 S
C813 C812 1.392 . S
C813 C814 1.368 . S
C813 H836 0.929 . S
C814 C813 1.368 . S
C814 C815 1.386 . S
C814 H837 0.929 . S
C815 C814 1.386 . S
C815 C816 1.373 1_565 S
C816 C815 1.373 1_545 S
C816 C817 1.409 . S
C816 H838 0.931 . S
C817 C812 1.356 1_545 S
C817 C816 1.409 . S
C817 H839 0.930 . S
C818 O828 1.270 . S
C818 O829 1.248 1_545 S
C819 O830 1.267 . S
C819 O831 1.278 . S
O820 Pr800 2.562 . S
O820 C802 1.254 . S
O821 Pr800 2.490 . S
O821 C802 1.225 . S
O822 Pr800 2.695 . S
O822 Pr801 2.436 . S
O822 C809 1.270 . S
O823 Pr800 2.512 . S
O823 C809 1.248 . S
O824 Pr801 2.438 . S
O824 C810 1.267 . S
O825 Pr800 2.437 . S
O825 C810 1.278 . S
O826 Pr801 2.562 1_556 S
O826 C811 1.254 . S
O827 Pr801 2.483 1_566 S
O827 C811 1.231 1_565 S
O828 Pr800 2.436 . S
O828 Pr801 2.695 . S
O828 C818 1.270 . S
O829 Pr801 2.512 1_565 S
O829 C818 1.248 1_565 S
O830 Pr800 2.438 . S
O830 C819 1.267 . S
O831 Pr801 2.437 . S
O831 C819 1.278 . S
H832 C804 0.929 . S
H833 C805 0.929 . S
H834 C807 0.931 . S
H835 C808 0.930 . S
H836 C813 0.929 . S
H837 C814 0.929 . S
H838 C816 0.931 . S
H839 C817 0.930 . S
Pr840 C842 2.880 . S
Pr840 O860 2.562 . S
Pr840 O861 2.490 . S
Pr840 O862 2.695 . S
Pr840 O863 2.512 . S
Pr840 O865 2.437 . S
Pr840 O868 2.436 . S
Pr840 O870 2.438 . S
Pr841 C851 2.880 . S
Pr841 O862 2.436 . S
Pr841 O864 2.438 . S
Pr841 O866 2.562 . S
Pr841 O867 2.490 . S
Pr841 O868 2.695 . S
Pr841 O869 2.512 . S
Pr841 O871 2.437 . S
C842 Pr840 2.880 . S
C842 C843 1.491 . S
C842 O860 1.254 . S
C842 O861 1.225 . S
C843 C842 1.491 . S
C843 C844 1.392 . S
C843 C848 1.356 . S
C844 C843 1.392 . S
C844 C845 1.368 . S
C844 H872 0.929 . S
C845 C844 1.368 . S
C845 C846 1.386 . S
C845 H873 0.929 . S
C846 C845 1.386 . S
C846 C847 1.373 . S
C847 C846 1.373 . S
C847 C848 1.409 . S
C847 H874 0.931 . S
C848 C843 1.356 . S
C848 C847 1.409 . S
C848 H875 0.930 . S
C849 O862 1.270 . S
C849 O863 1.248 . S
C850 O864 1.267 . S
C850 O865 1.278 . S
C851 Pr841 2.880 . S
C851 C852 1.491 . S
C851 O866 1.254 . S
C851 O867 1.225 . S
C852 C851 1.491 . S
C852 C853 1.392 . S
C852 C857 1.356 . S
C853 C852 1.392 . S
C853 C854 1.368 . S
C853 H876 0.929 . S
C854 C853 1.368 . S
C854 C855 1.386 . S
C854 H877 0.929 . S
C855 C854 1.386 . S
C855 C856 1.373 . S
C856 C855 1.373 . S
C856 C857 1.409 . S
C856 H878 0.931 . S
C857 C852 1.356 . S
C857 C856 1.409 . S
C857 H879 0.930 . S
C858 O868 1.270 . S
C858 O869 1.248 . S
C859 O870 1.267 . S
C859 O871 1.278 . S
O860 Pr840 2.562 . S
O860 C842 1.254 . S
O861 Pr840 2.490 . S
O861 C842 1.225 . S
O862 Pr840 2.695 . S
O862 Pr841 2.436 . S
O862 C849 1.270 . S
O863 Pr840 2.512 . S
O863 C849 1.248 . S
O864 Pr841 2.438 . S
O864 C850 1.267 . S
O865 Pr840 2.437 . S
O865 C850 1.278 . S
O866 Pr841 2.562 . S
O866 C851 1.254 . S
O867 Pr841 2.490 . S
O867 C851 1.225 . S
O868 Pr840 2.436 . S
O868 Pr841 2.695 . S
O868 C858 1.270 . S
O869 Pr841 2.512 . S
O869 C858 1.248 . S
O870 Pr840 2.438 . S
O870 C859 1.267 . S
O871 Pr841 2.437 . S
O871 C859 1.278 . S
H872 C844 0.929 . S
H873 C845 0.929 . S
H874 C847 0.931 . S
H875 C848 0.930 . S
H876 C853 0.929 . S
H877 C854 0.929 . S
H878 C856 0.931 . S
H879 C857 0.930 . S
Pr880 C882 2.880 . S
Pr880 O900 2.562 . S
Pr880 O901 2.490 . S
Pr880 O902 2.695 . S
Pr880 O903 2.512 . S
Pr880 O905 2.437 . S
Pr880 O908 2.436 . S
Pr880 O910 2.438 . S
Pr881 C891 2.880 . S
Pr881 O902 2.436 . S
Pr881 O904 2.438 . S
Pr881 O906 2.562 . S
Pr881 O907 2.490 1_565 S
Pr881 O908 2.695 . S
Pr881 O909 2.512 . S
Pr881 O911 2.437 . S
C882 Pr880 2.880 . S
C882 C883 1.491 . S
C882 O900 1.254 . S
C882 O901 1.225 . S
C883 C882 1.491 . S
C883 C884 1.392 . S
C883 C888 1.356 . S
C884 C883 1.392 . S
C884 C885 1.368 . S
C884 H912 0.929 . S
C885 C884 1.368 . S
C885 C886 1.386 . S
C885 H913 0.929 . S
C886 C885 1.386 . S
C886 C887 1.373 . S
C887 C886 1.373 . S
C887 C888 1.409 . S
C887 H914 0.931 . S
C888 C883 1.356 . S
C888 C887 1.409 . S
C888 H915 0.930 . S
C889 O902 1.270 . S
C889 O903 1.248 . S
C890 O904 1.267 . S
C890 O905 1.278 . S
C891 Pr881 2.880 . S
C891 C892 1.491 . S
C891 O906 1.254 . S
C891 O907 1.225 1_565 S
C892 C891 1.491 . S
C892 C893 1.392 1_565 S
C892 C897 1.356 . S
C893 C892 1.392 1_545 S
C893 C894 1.368 . S
C893 H916 0.929 . S
C894 C893 1.368 . S
C894 C895 1.386 . S
C894 H917 0.929 . S
C895 C894 1.386 . S
C895 C896 1.373 1_545 S
C896 C895 1.373 1_565 S
C896 C897 1.409 . S
C896 H918 0.931 . S
C897 C892 1.356 . S
C897 C896 1.409 . S
C897 H919 0.930 . S
C898 O908 1.270 . S
C898 O909 1.248 . S
C899 O910 1.267 . S
C899 O911 1.278 . S
O900 Pr880 2.562 . S
O900 C882 1.254 . S
O901 Pr880 2.490 . S
O901 C882 1.225 . S
O902 Pr880 2.695 . S
O902 Pr881 2.436 . S
O902 C889 1.270 . S
O903 Pr880 2.512 . S
O903 C889 1.248 . S
O904 Pr881 2.438 . S
O904 C890 1.267 . S
O905 Pr880 2.437 . S
O905 C890 1.278 . S
O906 Pr881 2.562 . S
O906 C891 1.254 . S
O907 Pr881 2.490 1_545 S
O907 C891 1.225 1_545 S
O908 Pr880 2.436 . S
O908 Pr881 2.695 . S
O908 C898 1.270 . S
O909 Pr881 2.512 . S
O909 C898 1.248 . S
O910 Pr880 2.438 . S
O910 C899 1.267 . S
O911 Pr881 2.437 . S
O911 C899 1.278 . S
H912 C884 0.929 . S
H913 C885 0.929 . S
H914 C887 0.931 . S
H915 C888 0.930 . S
H916 C893 0.929 . S
H917 C894 0.929 . S
H918 C896 0.931 . S
H919 C897 0.930 . S
Pr920 C922 2.880 . S
Pr920 O940 2.562 . S
Pr920 O941 2.490 . S
Pr920 O942 2.695 . S
Pr920 O943 2.512 . S
Pr920 O945 2.437 . S
Pr920 O948 2.436 . S
Pr920 O950 2.438 . S
Pr921 C931 2.880 . S
Pr921 O942 2.436 . S
Pr921 O944 2.438 . S
Pr921 O946 2.562 . S
Pr921 O947 2.490 . S
Pr921 O948 2.695 . S
Pr921 O949 2.512 . S
Pr921 O951 2.437 . S
C922 Pr920 2.880 . S
C922 C923 1.491 . S
C922 O940 1.254 . S
C922 O941 1.225 . S
C923 C922 1.491 . S
C923 C924 1.392 . S
C923 C928 1.356 . S
C924 C923 1.392 . S
C924 C925 1.368 1_556 S
C924 H952 0.929 . S
C925 C924 1.368 1_554 S
C925 C926 1.386 . S
C925 H953 0.929 . S
C926 C925 1.386 . S
C926 C927 1.373 . S
C927 C926 1.373 . S
C927 C928 1.409 1_554 S
C927 H954 0.931 . S
C928 C923 1.356 . S
C928 C927 1.409 1_556 S
C928 H955 0.930 . S
C929 O942 1.270 . S
C929 O943 1.248 . S
C930 O944 1.267 . S
C930 O945 1.278 . S
C931 Pr921 2.880 . S
C931 C932 1.491 . S
C931 O946 1.254 . S
C931 O947 1.225 . S
C932 C931 1.491 . S
C932 C933 1.392 . S
C932 C937 1.356 . S
C933 C932 1.392 . S
C933 C934 1.368 . S
C933 H956 0.929 . S
C934 C933 1.368 . S
C934 C935 1.386 . S
C934 H957 0.929 . S
C935 C934 1.386 . S
C935 C936 1.373 . S
C936 C935 1.373 . S
C936 C937 1.409 . S
C936 H958 0.931 . S
C937 C932 1.356 . S
C937 C936 1.409 . S
C937 H959 0.930 . S
C938 O948 1.270 . S
C938 O949 1.248 . S
C939 O950 1.267 . S
C939 O951 1.278 . S
O940 Pr920 2.562 . S
O940 C922 1.254 . S
O941 Pr920 2.490 . S
O941 C922 1.225 . S
O942 Pr920 2.695 . S
O942 Pr921 2.436 . S
O942 C929 1.270 . S
O943 Pr920 2.512 . S
O943 C929 1.248 . S
O944 Pr921 2.438 . S
O944 C930 1.267 . S
O945 Pr920 2.437 . S
O945 C930 1.278 . S
O946 Pr921 2.562 . S
O946 C931 1.254 . S
O947 Pr921 2.490 . S
O947 C931 1.225 . S
O948 Pr920 2.436 . S
O948 Pr921 2.695 . S
O948 C938 1.270 . S
O949 Pr921 2.512 . S
O949 C938 1.248 . S
O950 Pr920 2.438 . S
O950 C939 1.267 . S
O951 Pr921 2.437 . S
O951 C939 1.278 . S
H952 C924 0.929 . S
H953 C925 0.929 . S
H954 C927 0.931 . S
H955 C928 0.930 . S
H956 C933 0.929 . S
H957 C934 0.929 . S
H958 C936 0.931 . S
H959 C937 0.930 . S
Pr960 C962 2.880 . S
Pr960 O980 2.562 . S
Pr960 O981 2.490 . S
Pr960 O982 2.695 . S
Pr960 O983 2.512 . S
Pr960 O985 2.437 . S
Pr960 O988 2.436 . S
Pr960 O990 2.438 . S
Pr961 C971 2.880 . S
Pr961 O982 2.436 . S
Pr961 O984 2.438 . S
Pr961 O986 2.562 . S
Pr961 O987 2.490 . S
Pr961 O988 2.695 . S
Pr961 O989 2.512 . S
Pr961 O991 2.437 . S
C962 Pr960 2.880 . S
C962 C963 1.491 . S
C962 O980 1.254 . S
C962 O981 1.225 . S
C963 C962 1.491 . S
C963 C964 1.392 . S
C963 C968 1.356 . S
C964 C963 1.392 . S
C964 C965 1.368 . S
C964 H992 0.929 . S
C965 C964 1.368 . S
C965 C966 1.386 . S
C965 H993 0.929 . S
C966 C965 1.386 . S
C966 C967 1.373 . S
C967 C966 1.373 . S
C967 C968 1.409 . S
C967 H994 0.931 . S
C968 C963 1.356 . S
C968 C967 1.409 . S
C968 H995 0.930 . S
C969 O982 1.270 . S
C969 O983 1.248 . S
C970 O984 1.267 . S
C970 O985 1.278 . S
C971 Pr961 2.880 . S
C971 C972 1.491 . S
C971 O986 1.254 . S
C971 O987 1.225 . S
C972 C971 1.491 . S
C972 C973 1.392 . S
C972 C977 1.356 . S
C973 C972 1.392 . S
C973 C974 1.368 . S
C973 H996 0.929 . S
C974 C973 1.368 . S
C974 C975 1.386 . S
C974 H997 0.929 . S
C975 C974 1.386 . S
C975 C976 1.373 . S
C976 C975 1.373 . S
C976 C977 1.409 . S
C976 H998 0.931 . S
C977 C972 1.356 . S
C977 C976 1.409 . S
C977 H999 0.930 . S
C978 O988 1.270 . S
C978 O989 1.248 . S
C979 O990 1.267 . S
C979 O991 1.278 . S
O980 Pr960 2.562 . S
O980 C962 1.254 . S
O981 Pr960 2.490 . S
O981 C962 1.225 . S
O982 Pr960 2.695 . S
O982 Pr961 2.436 . S
O982 C969 1.270 . S
O983 Pr960 2.512 . S
O983 C969 1.248 . S
O984 Pr961 2.438 . S
O984 C970 1.267 . S
O985 Pr960 2.437 . S
O985 C970 1.278 . S
O986 Pr961 2.562 . S
O986 C971 1.254 . S
O987 Pr961 2.490 . S
O987 C971 1.225 . S
O988 Pr960 2.436 . S
O988 Pr961 2.695 . S
O988 C978 1.270 . S
O989 Pr961 2.512 . S
O989 C978 1.248 . S
O990 Pr960 2.438 . S
O990 C979 1.267 . S
O991 Pr961 2.437 . S
O991 C979 1.278 . S
H992 C964 0.929 . S
H993 C965 0.929 . S
H994 C967 0.931 . S
H995 C968 0.930 . S
H996 C973 0.929 . S
H997 C974 0.929 . S
H998 C976 0.931 . S
H999 C977 0.930 . S
Pr1000 C1002 2.880 . S
Pr1000 O1020 2.562 . S
Pr1000 O1021 2.490 . S
Pr1000 O1022 2.695 . S
Pr1000 O1023 2.512 . S
Pr1000 O1025 2.437 . S
Pr1000 O1028 2.436 . S
Pr1000 O1030 2.438 . S
Pr1001 C1011 2.880 . S
Pr1001 O1022 2.436 . S
Pr1001 O1024 2.438 . S
Pr1001 O1026 2.562 . S
Pr1001 O1027 2.490 . S
Pr1001 O1028 2.695 . S
Pr1001 O1029 2.512 . S
Pr1001 O1031 2.437 . S
C1002 Pr1000 2.880 . S
C1002 C1003 1.491 . S
C1002 O1020 1.254 . S
C1002 O1021 1.225 . S
C1003 C1002 1.491 . S
C1003 C1004 1.392 . S
C1003 C1008 1.356 . S
C1004 C1003 1.392 . S
C1004 C1005 1.368 . S
C1004 H1032 0.929 . S
C1005 C1004 1.368 . S
C1005 C1006 1.386 . S
C1005 H1033 0.929 . S
C1006 C1005 1.386 . S
C1006 C1007 1.373 . S
C1007 C1006 1.373 . S
C1007 C1008 1.409 . S
C1007 H1034 0.931 . S
C1008 C1003 1.356 . S
C1008 C1007 1.409 . S
C1008 H1035 0.930 . S
C1009 O1022 1.270 . S
C1009 O1023 1.248 . S
C1010 O1024 1.267 . S
C1010 O1025 1.278 . S
C1011 Pr1001 2.880 . S
C1011 C1012 1.491 . S
C1011 O1026 1.254 . S
C1011 O1027 1.225 . S
C1012 C1011 1.491 . S
C1012 C1013 1.392 . S
C1012 C1017 1.356 . S
C1013 C1012 1.392 . S
C1013 C1014 1.368 . S
C1013 H1036 0.929 . S
C1014 C1013 1.368 . S
C1014 C1015 1.386 . S
C1014 H1037 0.929 . S
C1015 C1014 1.386 . S
C1015 C1016 1.373 . S
C1016 C1015 1.373 . S
C1016 C1017 1.409 . S
C1016 H1038 0.931 . S
C1017 C1012 1.356 . S
C1017 C1016 1.409 . S
C1017 H1039 0.930 . S
C1018 O1028 1.270 . S
C1018 O1029 1.248 . S
C1019 O1030 1.267 . S
C1019 O1031 1.278 . S
O1020 Pr1000 2.562 . S
O1020 C1002 1.254 . S
O1021 Pr1000 2.490 . S
O1021 C1002 1.225 . S
O1022 Pr1000 2.695 . S
O1022 Pr1001 2.436 . S
O1022 C1009 1.270 . S
O1023 Pr1000 2.512 . S
O1023 C1009 1.248 . S
O1024 Pr1001 2.438 . S
O1024 C1010 1.267 . S
O1025 Pr1000 2.437 . S
O1025 C1010 1.278 . S
O1026 Pr1001 2.562 . S
O1026 C1011 1.254 . S
O1027 Pr1001 2.490 . S
O1027 C1011 1.225 . S
O1028 Pr1000 2.436 . S
O1028 Pr1001 2.695 . S
O1028 C1018 1.270 . S
O1029 Pr1001 2.512 . S
O1029 C1018 1.248 . S
O1030 Pr1000 2.438 . S
O1030 C1019 1.267 . S
O1031 Pr1001 2.437 . S
O1031 C1019 1.278 . S
H1032 C1004 0.929 . S
H1033 C1005 0.929 . S
H1034 C1007 0.931 . S
H1035 C1008 0.930 . S
H1036 C1013 0.929 . S
H1037 C1014 0.929 . S
H1038 C1016 0.931 . S
H1039 C1017 0.930 . S
Pr1040 C1042 2.880 . S
Pr1040 O1060 2.562 . S
Pr1040 O1061 2.490 . S
Pr1040 O1062 2.695 . S
Pr1040 O1063 2.512 . S
Pr1040 O1065 2.437 . S
Pr1040 O1068 2.436 . S
Pr1040 O1070 2.438 . S
Pr1041 C1051 2.880 . S
Pr1041 O1062 2.436 . S
Pr1041 O1064 2.438 . S
Pr1041 O1066 2.562 . S
Pr1041 O1067 2.490 . S
Pr1041 O1068 2.695 . S
Pr1041 O1069 2.512 . S
Pr1041 O1071 2.437 . S
C1042 Pr1040 2.880 . S
C1042 C1043 1.491 . S
C1042 O1060 1.254 . S
C1042 O1061 1.225 . S
C1043 C1042 1.491 . S
C1043 C1044 1.392 . S
C1043 C1048 1.356 . S
C1044 C1043 1.392 . S
C1044 C1045 1.368 . S
C1044 H1072 0.929 . S
C1045 C1044 1.368 . S
C1045 C1046 1.386 . S
C1045 H1073 0.929 . S
C1046 C1045 1.386 . S
C1046 C1047 1.373 . S
C1047 C1046 1.373 . S
C1047 C1048 1.409 . S
C1047 H1074 0.931 . S
C1048 C1043 1.356 . S
C1048 C1047 1.409 . S
C1048 H1075 0.930 . S
C1049 O1062 1.270 . S
C1049 O1063 1.248 . S
C1050 O1064 1.267 . S
C1050 O1065 1.278 . S
C1051 Pr1041 2.880 . S
C1051 C1052 1.491 . S
C1051 O1066 1.254 . S
C1051 O1067 1.225 . S
C1052 C1051 1.491 . S
C1052 C1053 1.392 . S
C1052 C1057 1.356 . S
C1053 C1052 1.392 . S
C1053 C1054 1.368 . S
C1053 H1076 0.900 1_455 S
C1054 C1053 1.368 . S
C1054 C1055 1.386 1_554 S
C1054 H1077 0.929 1_455 S
C1055 C1054 1.386 1_556 S
C1055 C1056 1.373 1_556 S
C1056 C1055 1.373 1_554 S
C1056 C1057 1.409 . S
C1056 H1078 0.931 1_554 S
C1057 C1052 1.356 . S
C1057 C1056 1.409 . S
C1057 H1079 0.930 . S
C1058 O1068 1.270 . S
C1058 O1069 1.248 . S
C1059 O1070 1.267 . S
C1059 O1071 1.278 . S
O1060 Pr1040 2.562 . S
O1060 C1042 1.254 . S
O1061 Pr1040 2.490 . S
O1061 C1042 1.225 . S
O1062 Pr1040 2.695 . S
O1062 Pr1041 2.436 . S
O1062 C1049 1.270 . S
O1063 Pr1040 2.512 . S
O1063 C1049 1.248 . S
O1064 Pr1041 2.438 . S
O1064 C1050 1.267 . S
O1065 Pr1040 2.437 . S
O1065 C1050 1.278 . S
O1066 Pr1041 2.562 . S
O1066 C1051 1.254 . S
O1067 Pr1041 2.490 . S
O1067 C1051 1.225 . S
O1068 Pr1040 2.436 . S
O1068 Pr1041 2.695 . S
O1068 C1058 1.270 . S
O1069 Pr1041 2.512 . S
O1069 C1058 1.248 . S
O1070 Pr1040 2.438 . S
O1070 C1059 1.267 . S
O1071 Pr1041 2.437 . S
O1071 C1059 1.278 . S
H1072 C1044 0.929 . S
H1073 C1045 0.929 . S
H1074 C1047 0.931 . S
H1075 C1048 0.930 . S
H1076 C1053 0.900 1_655 S
H1077 C1054 0.929 1_655 S
H1078 C1056 0.931 1_556 S
H1079 C1057 0.930 . S
Pr1080 C1082 2.880 1_556 S
Pr1080 O1100 2.562 1_556 S
Pr1080 O1101 2.490 1_556 S
Pr1080 O1102 2.695 . S
Pr1080 O1103 2.512 . S
Pr1080 O1105 2.437 1_556 S
Pr1080 O1108 2.436 . S
Pr1080 O1110 2.438 . S
Pr1081 C1091 2.880 . S
Pr1081 O1102 2.436 . S
Pr1081 O1104 2.438 . S
Pr1081 O1106 2.562 . S
Pr1081 O1107 2.490 . S
Pr1081 O1108 2.695 . S
Pr1081 O1109 2.512 . S
Pr1081 O1111 2.437 . S
C1082 Pr1080 2.880 1_554 S
C1082 C1083 1.491 . S
C1082 O1100 1.254 . S
C1082 O1101 1.225 . S
C1083 C1082 1.491 . S
C1083 C1084 1.392 . S
C1083 C1088 1.356 . S
C1084 C1083 1.392 . S
C1084 C1085 1.368 . S
C1084 H1112 0.929 . S
C1085 C1084 1.368 . S
C1085 C1086 1.386 . S
C1085 H1113 0.929 . S
C1086 C1085 1.386 . S
C1086 C1087 1.373 . S
C1087 C1086 1.373 . S
C1087 C1088 1.409 . S
C1087 H1114 0.931 . S
C1088 C1083 1.356 . S
C1088 C1087 1.409 . S
C1088 H1115 0.930 . S
C1089 O1102 1.270 . S
C1089 O1103 1.248 . S
C1090 O1104 1.267 1_554 S
C1090 O1105 1.278 . S
C1091 Pr1081 2.880 . S
C1091 C1092 1.491 . S
C1091 O1106 1.254 . S
C1091 O1107 1.225 . S
C1092 C1091 1.491 . S
C1092 C1093 1.392 . S
C1092 C1097 1.356 . S
C1093 C1092 1.392 . S
C1093 C1094 1.368 . S
C1093 H1116 0.929 . S
C1094 C1093 1.368 . S
C1094 C1095 1.386 . S
C1094 H1117 0.929 . S
C1095 C1094 1.386 . S
C1095 C1096 1.373 . S
C1096 C1095 1.373 . S
C1096 C1097 1.409 . S
C1096 H1118 0.931 . S
C1097 C1092 1.356 . S
C1097 C1096 1.409 . S
C1097 H1119 0.930 . S
C1098 O1108 1.270 . S
C1098 O1109 1.248 . S
C1099 O1110 1.267 . S
C1099 O1111 1.278 . S
O1100 Pr1080 2.562 1_554 S
O1100 C1082 1.254 . S
O1101 Pr1080 2.490 1_554 S
O1101 C1082 1.225 . S
O1102 Pr1080 2.695 . S
O1102 Pr1081 2.436 . S
O1102 C1089 1.270 . S
O1103 Pr1080 2.512 . S
O1103 C1089 1.248 . S
O1104 Pr1081 2.438 . S
O1104 C1090 1.267 1_556 S
O1105 Pr1080 2.437 1_554 S
O1105 C1090 1.278 . S
O1106 Pr1081 2.562 . S
O1106 C1091 1.254 . S
O1107 Pr1081 2.490 . S
O1107 C1091 1.225 . S
O1108 Pr1080 2.436 . S
O1108 Pr1081 2.695 . S
O1108 C1098 1.270 . S
O1109 Pr1081 2.512 . S
O1109 C1098 1.248 . S
O1110 Pr1080 2.438 . S
O1110 C1099 1.267 . S
O1111 Pr1081 2.437 . S
O1111 C1099 1.278 . S
H1112 C1084 0.929 . S
H1113 C1085 0.929 . S
H1114 C1087 0.931 . S
H1115 C1088 0.930 . S
H1116 C1093 0.929 . S
H1117 C1094 0.929 . S
H1118 C1096 0.931 . S
H1119 C1097 0.930 . S
Pr1120 C1122 2.880 . S
Pr1120 O1140 2.562 . S
Pr1120 O1141 2.490 1_565 S
Pr1120 O1142 2.695 . S
Pr1120 O1143 2.512 1_565 S
Pr1120 O1145 2.437 . S
Pr1120 O1148 2.436 . S
Pr1120 O1150 2.438 . S
Pr1121 C1131 2.880 . S
Pr1121 O1142 2.436 . S
Pr1121 O1144 2.438 . S
Pr1121 O1146 2.562 . S
Pr1121 O1147 2.490 . S
Pr1121 O1148 2.695 . S
Pr1121 O1149 2.512 . S
Pr1121 O1151 2.437 . S
C1122 Pr1120 2.880 . S
C1122 C1123 1.491 1_565 S
C1122 O1140 1.254 . S
C1122 O1141 1.225 1_565 S
C1123 C1122 1.491 1_545 S
C1123 C1124 1.392 . S
C1123 C1128 1.356 1_545 S
C1124 C1123 1.392 . S
C1124 C1125 1.368 . S
C1124 H1152 0.929 . S
C1125 C1124 1.368 . S
C1125 C1126 1.386 . S
C1125 H1153 0.929 . S
C1126 C1125 1.386 . S
C1126 C1127 1.373 1_545 S
C1127 C1126 1.373 1_565 S
C1127 C1128 1.409 . S
C1127 H1154 0.931 . S
C1128 C1123 1.356 1_565 S
C1128 C1127 1.409 . S
C1128 H1155 0.930 . S
C1129 O1142 1.270 . S
C1129 O1143 1.248 1_565 S
C1130 O1144 1.267 . S
C1130 O1145 1.278 . S
C1131 Pr1121 2.880 . S
C1131 C1132 1.491 . S
C1131 O1146 1.254 . S
C1131 O1147 1.225 . S
C1132 C1131 1.491 . S
C1132 C1133 1.392 . S
C1132 C1137 1.356 . S
C1133 C1132 1.392 . S
C1133 C1134 1.368 . S
C1133 H1156 0.929 . S
C1134 C1133 1.368 . S
C1134 C1135 1.386 . S
C1134 H1157 0.929 . S
C1135 C1134 1.386 . S
C1135 C1136 1.373 . S
C1136 C1135 1.373 . S
C1136 C1137 1.409 . S
C1136 H1158 0.931 . S
C1137 C1132 1.356 . S
C1137 C1136 1.409 . S
C1137 H1159 0.930 . S
C1138 O1148 1.270 . S
C1138 O1149 1.248 . S
C1139 O1150 1.267 . S
C1139 O1151 1.278 . S
O1140 Pr1120 2.562 . S
O1140 C1122 1.254 . S
O1141 Pr1120 2.490 1_545 S
O1141 C1122 1.225 1_545 S
O1142 Pr1120 2.695 . S
O1142 Pr1121 2.436 . S
O1142 C1129 1.270 . S
O1143 Pr1120 2.512 1_545 S
O1143 C1129 1.248 1_545 S
O1144 Pr1121 2.438 . S
O1144 C1130 1.267 . S
O1145 Pr1120 2.437 . S
O1145 C1130 1.278 . S
O1146 Pr1121 2.562 . S
O1146 C1131 1.254 . S
O1147 Pr1121 2.490 . S
O1147 C1131 1.225 . S
O1148 Pr1120 2.436 . S
O1148 Pr1121 2.695 . S
O1148 C1138 1.270 . S
O1149 Pr1121 2.512 . S
O1149 C1138 1.248 . S
O1150 Pr1120 2.438 . S
O1150 C1139 1.267 . S
O1151 Pr1121 2.437 . S
O1151 C1139 1.278 . S
H1152 C1124 0.929 . S
H1153 C1125 0.929 . S
H1154 C1127 0.931 . S
H1155 C1128 0.930 . S
H1156 C1133 0.929 . S
H1157 C1134 0.929 . S
H1158 C1136 0.931 . S
H1159 C1137 0.930 . S
Pr1160 C1162 2.880 . S
Pr1160 O1180 2.562 . S
Pr1160 O1181 2.490 . S
Pr1160 O1182 2.695 . S
Pr1160 O1183 2.512 . S
Pr1160 O1185 2.437 . S
Pr1160 O1188 2.436 . S
Pr1160 O1190 2.438 . S
Pr1161 C1171 2.880 . S
Pr1161 O1182 2.436 . S
Pr1161 O1184 2.438 . S
Pr1161 O1186 2.562 . S
Pr1161 O1187 2.490 . S
Pr1161 O1188 2.695 . S
Pr1161 O1189 2.512 . S
Pr1161 O1191 2.437 . S
C1162 Pr1160 2.880 . S
C1162 C1163 1.491 1_556 S
C1162 O1180 1.254 . S
C1162 O1181 1.225 . S
C1163 C1162 1.491 1_554 S
C1163 C1164 1.392 . S
C1163 C1168 1.356 . S
C1164 C1163 1.392 . S
C1164 C1165 1.368 . S
C1164 H1192 0.929 . S
C1165 C1164 1.368 . S
C1165 C1166 1.386 . S
C1165 H1193 0.929 . S
C1166 C1165 1.386 . S
C1166 C1167 1.373 . S
C1167 C1166 1.373 . S
C1167 C1168 1.409 . S
C1167 H1194 0.931 . S
C1168 C1163 1.356 . S
C1168 C1167 1.409 . S
C1168 H1195 0.930 . S
C1169 O1182 1.270 . S
C1169 O1183 1.248 . S
C1170 O1184 1.267 . S
C1170 O1185 1.278 . S
C1171 Pr1161 2.880 . S
C1171 C1172 1.491 . S
C1171 O1186 1.254 . S
C1171 O1187 1.225 . S
C1172 C1171 1.491 . S
C1172 C1173 1.392 . S
C1172 C1177 1.356 . S
C1173 C1172 1.392 . S
C1173 C1174 1.368 . S
C1173 H1196 0.929 . S
C1174 C1173 1.368 . S
C1174 C1175 1.386 . S
C1174 H1197 0.929 . S
C1175 C1174 1.386 . S
C1175 C1176 1.373 . S
C1176 C1175 1.373 . S
C1176 C1177 1.409 . S
C1176 H1198 0.931 . S
C1177 C1172 1.356 . S
C1177 C1176 1.409 . S
C1177 H1199 0.930 . S
C1178 O1188 1.270 . S
C1178 O1189 1.248 . S
C1179 O1190 1.267 . S
C1179 O1191 1.278 . S
O1180 Pr1160 2.562 . S
O1180 C1162 1.254 . S
O1181 Pr1160 2.490 . S
O1181 C1162 1.225 . S
O1182 Pr1160 2.695 . S
O1182 Pr1161 2.436 . S
O1182 C1169 1.270 . S
O1183 Pr1160 2.512 . S
O1183 C1169 1.248 . S
O1184 Pr1161 2.438 . S
O1184 C1170 1.267 . S
O1185 Pr1160 2.437 . S
O1185 C1170 1.278 . S
O1186 Pr1161 2.562 . S
O1186 C1171 1.254 . S
O1187 Pr1161 2.490 . S
O1187 C1171 1.225 . S
O1188 Pr1160 2.436 . S
O1188 Pr1161 2.695 . S
O1188 C1178 1.270 . S
O1189 Pr1161 2.512 . S
O1189 C1178 1.248 . S
O1190 Pr1160 2.438 . S
O1190 C1179 1.267 . S
O1191 Pr1161 2.437 . S
O1191 C1179 1.278 . S
H1192 C1164 0.929 . S
H1193 C1165 0.929 . S
H1194 C1167 0.931 . S
H1195 C1168 0.930 . S
H1196 C1173 0.929 . S
H1197 C1174 0.929 . S
H1198 C1176 0.931 . S
H1199 C1177 0.930 . S
Pr1200 C1202 2.880 . S
Pr1200 O1220 2.562 . S
Pr1200 O1221 2.490 1_545 S
Pr1200 O1222 2.695 . S
Pr1200 O1223 2.512 . S
Pr1200 O1225 2.437 . S
Pr1200 O1228 2.436 . S
Pr1200 O1230 2.438 . S
Pr1201 C1211 2.880 . S
Pr1201 O1222 2.436 . S
Pr1201 O1224 2.438 . S
Pr1201 O1226 2.562 . S
Pr1201 O1227 2.490 . S
Pr1201 O1228 2.695 . S
Pr1201 O1229 2.512 . S
Pr1201 O1231 2.437 . S
C1202 Pr1200 2.880 . S
C1202 C1203 1.491 . S
C1202 O1220 1.254 . S
C1202 O1221 1.225 1_545 S
C1203 C1202 1.491 . S
C1203 C1204 1.392 1_545 S
C1203 C1208 1.356 . S
C1204 C1203 1.392 1_565 S
C1204 C1205 1.368 . S
C1204 H1232 0.929 . S
C1205 C1204 1.368 . S
C1205 C1206 1.386 . S
C1205 H1233 0.929 . S
C1206 C1205 1.386 . S
C1206 C1207 1.373 1_565 S
C1207 C1206 1.373 1_545 S
C1207 C1208 1.409 . S
C1207 H1234 0.931 . S
C1208 C1203 1.356 . S
C1208 C1207 1.409 . S
C1208 H1235 0.930 . S
C1209 O1222 1.270 . S
C1209 O1223 1.248 . S
C1210 O1224 1.267 . S
C1210 O1225 1.278 . S
C1211 Pr1201 2.880 . S
C1211 C1212 1.491 . S
C1211 O1226 1.254 . S
C1211 O1227 1.225 . S
C1212 C1211 1.491 . S
C1212 C1213 1.392 . S
C1212 C1217 1.356 . S
C1213 C1212 1.392 . S
C1213 C1214 1.368 . S
C1213 H1236 0.929 . S
C1214 C1213 1.368 . S
C1214 C1215 1.386 . S
C1214 H1237 0.929 . S
C1215 C1214 1.386 . S
C1215 C1216 1.373 . S
C1216 C1215 1.373 . S
C1216 C1217 1.409 . S
C1216 H1238 0.931 . S
C1217 C1212 1.356 . S
C1217 C1216 1.409 . S
C1217 H1239 0.930 . S
C1218 O1228 1.270 . S
C1218 O1229 1.248 . S
C1219 O1230 1.267 . S
C1219 O1231 1.278 . S
O1220 Pr1200 2.562 . S
O1220 C1202 1.254 . S
O1221 Pr1200 2.490 1_565 S
O1221 C1202 1.225 1_565 S
O1222 Pr1200 2.695 . S
O1222 Pr1201 2.436 . S
O1222 C1209 1.270 . S
O1223 Pr1200 2.512 . S
O1223 C1209 1.248 . S
O1224 Pr1201 2.438 . S
O1224 C1210 1.267 . S
O1225 Pr1200 2.437 . S
O1225 C1210 1.278 . S
O1226 Pr1201 2.562 . S
O1226 C1211 1.254 . S
O1227 Pr1201 2.490 . S
O1227 C1211 1.225 . S
O1228 Pr1200 2.436 . S
O1228 Pr1201 2.695 . S
O1228 C1218 1.270 . S
O1229 Pr1201 2.512 . S
O1229 C1218 1.248 . S
O1230 Pr1200 2.438 . S
O1230 C1219 1.267 . S
O1231 Pr1201 2.437 . S
O1231 C1219 1.278 . S
H1232 C1204 0.929 . S
H1233 C1205 0.929 . S
H1234 C1207 0.931 . S
H1235 C1208 0.930 . S
H1236 C1213 0.929 . S
H1237 C1214 0.929 . S
H1238 C1216 0.931 . S
H1239 C1217 0.930 . S
Pr1240 C1242 2.880 . S
Pr1240 O1260 2.562 . S
Pr1240 O1261 2.490 . S
Pr1240 O1262 2.695 . S
Pr1240 O1263 2.512 . S
Pr1240 O1265 2.437 . S
Pr1240 O1268 2.436 . S
Pr1240 O1270 2.438 . S
Pr1241 C1251 2.880 . S
Pr1241 O1262 2.436 . S
Pr1241 O1264 2.438 . S
Pr1241 O1266 2.562 . S
Pr1241 O1267 2.490 . S
Pr1241 O1268 2.695 . S
Pr1241 O1269 2.512 . S
Pr1241 O1271 2.437 . S
C1242 Pr1240 2.880 . S
C1242 C1243 1.491 . S
C1242 O1260 1.254 . S
C1242 O1261 1.225 . S
C1243 C1242 1.491 . S
C1243 C1244 1.392 . S
C1243 C1248 1.356 . S
C1244 C1243 1.392 . S
C1244 C1245 1.368 . S
C1244 H1272 0.929 . S
C1245 C1244 1.368 . S
C1245 C1246 1.386 . S
C1245 H1273 0.929 . S
C1246 C1245 1.386 . S
C1246 C1247 1.373 . S
C1247 C1246 1.373 . S
C1247 C1248 1.409 . S
C1247 H1274 0.931 . S
C1248 C1243 1.356 . S
C1248 C1247 1.409 . S
C1248 H1275 0.930 . S
C1249 O1262 1.270 . S
C1249 O1263 1.248 . S
C1250 O1264 1.267 . S
C1250 O1265 1.278 . S
C1251 Pr1241 2.880 . S
C1251 C1252 1.491 . S
C1251 O1266 1.254 . S
C1251 O1267 1.225 . S
C1252 C1251 1.491 . S
C1252 C1253 1.392 . S
C1252 C1257 1.356 . S
C1253 C1252 1.392 . S
C1253 C1254 1.368 . S
C1253 H1276 0.929 . S
C1254 C1253 1.368 . S
C1254 C1255 1.386 . S
C1254 H1277 0.929 . S
C1255 C1254 1.386 . S
C1255 C1256 1.373 . S
C1256 C1255 1.373 . S
C1256 C1257 1.409 . S
C1256 H1278 0.931 . S
C1257 C1252 1.356 . S
C1257 C1256 1.409 . S
C1257 H1279 0.930 . S
C1258 O1268 1.270 . S
C1258 O1269 1.248 . S
C1259 O1270 1.267 . S
C1259 O1271 1.278 . S
O1260 Pr1240 2.562 . S
O1260 C1242 1.254 . S
O1261 Pr1240 2.490 . S
O1261 C1242 1.225 . S
O1262 Pr1240 2.695 . S
O1262 Pr1241 2.436 . S
O1262 C1249 1.270 . S
O1263 Pr1240 2.512 . S
O1263 C1249 1.248 . S
O1264 Pr1241 2.438 . S
O1264 C1250 1.267 . S
O1265 Pr1240 2.437 . S
O1265 C1250 1.278 . S
O1266 Pr1241 2.562 . S
O1266 C1251 1.254 . S
O1267 Pr1241 2.490 . S
O1267 C1251 1.225 . S
O1268 Pr1240 2.436 . S
O1268 Pr1241 2.695 . S
O1268 C1258 1.270 . S
O1269 Pr1241 2.512 . S
O1269 C1258 1.248 . S
O1270 Pr1240 2.438 . S
O1270 C1259 1.267 . S
O1271 Pr1241 2.437 . S
O1271 C1259 1.278 . S
H1272 C1244 0.929 . S
H1273 C1245 0.929 . S
H1274 C1247 0.931 . S
H1275 C1248 0.930 . S
H1276 C1253 0.929 . S
H1277 C1254 0.929 . S
H1278 C1256 0.931 . S
H1279 C1257 0.930 . S
C1280 C1281 1.391 . S
C1280 C1282 1.394 . S
C1280 H1296 0.931 . S
C1281 C1280 1.391 . S
C1281 C1285 1.376 . S
C1282 C1280 1.394 . S
C1282 C1283 1.369 . S
C1282 C1286 1.531 . S
C1283 C1282 1.369 . S
C1283 C1284 1.410 . S
C1283 C1291 1.503 . S
C1284 C1283 1.410 . S
C1284 C1285 1.392 . S
C1284 C1287 1.511 . S
C1285 C1281 1.376 . S
C1285 C1284 1.392 . S
C1285 H1297 0.929 . S
C1286 C1282 1.531 . S
C1286 H1298 0.960 . S
C1286 H1299 0.962 . S
C1286 H1300 0.960 . S
C1287 C1284 1.511 . S
C1287 H1301 0.961 . S
C1287 H1302 0.961 . S
C1287 H1303 0.961 . S
C1288 C1289 1.370 . S
C1288 C1290 1.363 . S
C1288 H1304 0.931 . S
C1289 C1288 1.370 . S
C1289 C1293 1.408 . S
C1290 C1288 1.363 . S
C1290 C1291 1.370 . S
C1290 C1294 1.524 . S
C1291 C1283 1.503 . S
C1291 C1290 1.370 . S
C1291 C1292 1.403 . S
C1292 C1291 1.403 . S
C1292 C1293 1.404 . S
C1292 C1295 1.539 . S
C1293 C1289 1.408 . S
C1293 C1292 1.404 . S
C1293 H1305 0.930 . S
C1294 C1290 1.524 . S
C1294 H1306 0.956 . S
C1294 H1307 0.961 . S
C1294 H1308 0.961 . S
C1295 C1292 1.539 . S
C1295 H1309 0.958 . S
C1295 H1310 0.961 . S
C1295 H1311 0.960 . S
H1296 C1280 0.931 . S
H1297 C1285 0.929 . S
H1298 C1286 0.960 . S
H1299 C1286 0.962 . S
H1300 C1286 0.960 . S
H1301 C1287 0.961 . S
H1302 C1287 0.961 . S
H1303 C1287 0.961 . S
H1304 C1288 0.931 . S
H1305 C1293 0.930 . S
H1306 C1294 0.956 . S
H1307 C1294 0.961 . S
H1308 C1294 0.961 . S
H1309 C1295 0.958 . S
H1310 C1295 0.961 . S
H1311 C1295 0.960 . S
C1312 C1313 1.391 . S
C1312 C1314 1.394 . S
C1312 H1328 0.931 . S
C1313 C1312 1.391 . S
C1313 C1317 1.376 . S
C1314 C1312 1.394 . S
C1314 C1315 1.369 . S
C1314 C1318 1.531 . S
C1315 C1314 1.369 . S
C1315 C1316 1.410 . S
C1315 C1323 1.503 . S
C1316 C1315 1.410 . S
C1316 C1317 1.392 . S
C1316 C1319 1.511 . S
C1317 C1313 1.376 . S
C1317 C1316 1.392 . S
C1317 H1329 0.929 . S
C1318 C1314 1.531 . S
C1318 H1330 0.960 . S
C1318 H1331 0.962 . S
C1318 H1332 0.960 . S
C1319 C1316 1.511 . S
C1319 H1333 0.961 . S
C1319 H1334 0.961 . S
C1319 H1335 0.961 . S
C1320 C1321 1.370 . S
C1320 C1322 1.363 . S
C1320 H1336 0.931 . S
C1321 C1320 1.370 . S
C1321 C1325 1.408 . S
C1322 C1320 1.363 . S
C1322 C1323 1.370 . S
C1322 C1326 1.524 . S
C1323 C1315 1.503 . S
C1323 C1322 1.370 . S
C1323 C1324 1.403 . S
C1324 C1323 1.403 . S
C1324 C1325 1.404 . S
C1324 C1327 1.539 . S
C1325 C1321 1.408 . S
C1325 C1324 1.404 . S
C1325 H1337 0.930 . S
C1326 C1322 1.524 . S
C1326 H1338 0.956 . S
C1326 H1339 0.961 . S
C1326 H1340 0.961 . S
C1327 C1324 1.539 . S
C1327 H1341 0.958 . S
C1327 H1342 0.961 . S
C1327 H1343 0.960 . S
H1328 C1312 0.931 . S
H1329 C1317 0.929 . S
H1330 C1318 0.960 . S
H1331 C1318 0.962 . S
H1332 C1318 0.960 . S
H1333 C1319 0.961 . S
H1334 C1319 0.961 . S
H1335 C1319 0.961 . S
H1336 C1320 0.931 . S
H1337 C1325 0.930 . S
H1338 C1326 0.956 . S
H1339 C1326 0.961 . S
H1340 C1326 0.961 . S
H1341 C1327 0.958 . S
H1342 C1327 0.961 . S
H1343 C1327 0.960 . S
C1344 C1345 1.391 . S
C1344 C1346 1.394 . S
C1344 H1360 0.931 . S
C1345 C1344 1.391 . S
C1345 C1349 1.376 . S
C1346 C1344 1.394 . S
C1346 C1347 1.369 . S
C1346 C1350 1.531 . S
C1347 C1346 1.369 . S
C1347 C1348 1.410 . S
C1347 C1355 1.503 . S
C1348 C1347 1.410 . S
C1348 C1349 1.392 . S
C1348 C1351 1.511 . S
C1349 C1345 1.376 . S
C1349 C1348 1.392 . S
C1349 H1361 0.929 . S
C1350 C1346 1.531 . S
C1350 H1362 0.960 . S
C1350 H1363 0.962 . S
C1350 H1364 0.960 . S
C1351 C1348 1.511 . S
C1351 H1365 0.961 . S
C1351 H1366 0.961 . S
C1351 H1367 0.961 . S
C1352 C1353 1.370 . S
C1352 C1354 1.363 . S
C1352 H1368 0.931 . S
C1353 C1352 1.370 . S
C1353 C1357 1.408 . S
C1354 C1352 1.363 . S
C1354 C1355 1.370 . S
C1354 C1358 1.524 . S
C1355 C1347 1.503 . S
C1355 C1354 1.370 . S
C1355 C1356 1.403 . S
C1356 C1355 1.403 . S
C1356 C1357 1.404 . S
C1356 C1359 1.539 . S
C1357 C1353 1.408 . S
C1357 C1356 1.404 . S
C1357 H1369 0.930 . S
C1358 C1354 1.524 . S
C1358 H1370 0.956 . S
C1358 H1371 0.961 . S
C1358 H1372 0.961 . S
C1359 C1356 1.539 . S
C1359 H1373 0.958 . S
C1359 H1374 0.961 . S
C1359 H1375 0.960 . S
H1360 C1344 0.931 . S
H1361 C1349 0.929 . S
H1362 C1350 0.960 . S
H1363 C1350 0.962 . S
H1364 C1350 0.960 . S
H1365 C1351 0.961 . S
H1366 C1351 0.961 . S
H1367 C1351 0.961 . S
H1368 C1352 0.931 . S
H1369 C1357 0.930 . S
H1370 C1358 0.956 . S
H1371 C1358 0.961 . S
H1372 C1358 0.961 . S
H1373 C1359 0.958 . S
H1374 C1359 0.961 . S
H1375 C1359 0.960 . S
C1376 C1377 1.391 . S
C1376 C1378 1.394 . S
C1376 H1392 0.931 . S
C1377 C1376 1.391 . S
C1377 C1381 1.376 . S
C1378 C1376 1.394 . S
C1378 C1379 1.369 . S
C1378 C1382 1.531 . S
C1379 C1378 1.369 . S
C1379 C1380 1.410 . S
C1379 C1387 1.503 . S
C1380 C1379 1.410 . S
C1380 C1381 1.392 . S
C1380 C1383 1.511 . S
C1381 C1377 1.376 . S
C1381 C1380 1.392 . S
C1381 H1393 0.929 . S
C1382 C1378 1.531 . S
C1382 H1394 0.960 . S
C1382 H1395 0.962 . S
C1382 H1396 0.960 . S
C1383 C1380 1.511 . S
C1383 H1397 0.961 . S
C1383 H1398 0.961 . S
C1383 H1399 0.961 . S
C1384 C1385 1.370 . S
C1384 C1386 1.363 . S
C1384 H1400 0.931 . S
C1385 C1384 1.370 . S
C1385 C1389 1.408 . S
C1386 C1384 1.363 . S
C1386 C1387 1.370 1_556 S
C1386 C1390 1.524 1_556 S
C1387 C1379 1.503 . S
C1387 C1386 1.370 1_554 S
C1387 C1388 1.403 1_554 S
C1388 C1387 1.403 1_556 S
C1388 C1389 1.404 . S
C1388 C1391 1.539 . S
C1389 C1385 1.408 . S
C1389 C1388 1.404 . S
C1389 H1401 0.930 . S
C1390 C1386 1.524 1_554 S
C1390 H1402 0.956 . S
C1390 H1403 0.961 . S
C1390 H1404 0.961 . S
C1391 C1388 1.539 . S
C1391 H1405 0.958 . S
C1391 H1406 0.961 . S
C1391 H1407 0.960 . S
H1392 C1376 0.931 . S
H1393 C1381 0.929 . S
H1394 C1382 0.960 . S
H1395 C1382 0.962 . S
H1396 C1382 0.960 . S
H1397 C1383 0.961 . S
H1398 C1383 0.961 . S
H1399 C1383 0.961 . S
H1400 C1384 0.931 . S
H1401 C1389 0.930 . S
H1402 C1390 0.956 . S
H1403 C1390 0.961 . S
H1404 C1390 0.961 . S
H1405 C1391 0.958 . S
H1406 C1391 0.961 . S
H1407 C1391 0.960 . S
C1408 C1409 1.391 . S
C1408 C1410 1.394 . S
C1408 H1424 0.931 . S
C1409 C1408 1.391 . S
C1409 C1413 1.376 . S
C1410 C1408 1.394 . S
C1410 C1411 1.369 . S
C1410 C1414 1.531 . S
C1411 C1410 1.369 . S
C1411 C1412 1.410 . S
C1411 C1419 1.503 . S
C1412 C1411 1.410 . S
C1412 C1413 1.392 . S
C1412 C1415 1.511 . S
C1413 C1409 1.376 . S
C1413 C1412 1.392 . S
C1413 H1425 0.929 . S
C1414 C1410 1.531 . S
C1414 H1426 0.960 1_554 S
C1414 H1427 0.962 . S
C1414 H1428 0.960 . S
C1415 C1412 1.511 . S
C1415 H1429 0.961 . S
C1415 H1430 0.961 . S
C1415 H1431 0.961 . S
C1416 C1417 1.370 . S
C1416 C1418 1.363 . S
C1416 H1432 0.931 . S
C1417 C1416 1.370 . S
C1417 C1421 1.408 . S
C1418 C1416 1.363 . S
C1418 C1419 1.370 1_556 S
C1418 C1422 1.524 1_556 S
C1419 C1411 1.503 . S
C1419 C1418 1.370 1_554 S
C1419 C1420 1.403 1_554 S
C1420 C1419 1.403 1_556 S
C1420 C1421 1.404 . S
C1420 C1423 1.539 . S
C1421 C1417 1.408 . S
C1421 C1420 1.404 . S
C1421 H1433 0.930 . S
C1422 C1418 1.524 1_554 S
C1422 H1434 0.956 . S
C1422 H1435 0.961 . S
C1422 H1436 0.961 . S
C1423 C1420 1.539 . S
C1423 H1437 0.958 . S
C1423 H1438 0.961 . S
C1423 H1439 0.960 1_556 S
H1424 C1408 0.931 . S
H1425 C1413 0.929 . S
H1426 C1414 0.960 1_556 S
H1427 C1414 0.962 . S
H1428 C1414 0.960 . S
H1429 C1415 0.961 . S
H1430 C1415 0.961 . S
H1431 C1415 0.961 . S
H1432 C1416 0.931 . S
H1433 C1421 0.930 . S
H1434 C1422 0.956 . S
H1435 C1422 0.961 . S
H1436 C1422 0.961 . S
H1437 C1423 0.958 . S
H1438 C1423 0.961 . S
H1439 C1423 0.960 1_554 S
C1440 C1441 1.391 . S
C1440 C1442 1.394 . S
C1440 H1456 0.931 . S
C1441 C1440 1.391 . S
C1441 C1445 1.376 . S
C1442 C1440 1.394 . S
C1442 C1443 1.369 . S
C1442 C1446 1.531 . S
C1443 C1442 1.369 . S
C1443 C1444 1.410 . S
C1443 C1451 1.503 . S
C1444 C1443 1.410 . S
C1444 C1445 1.392 . S
C1444 C1447 1.511 . S
C1445 C1441 1.376 . S
C1445 C1444 1.392 . S
C1445 H1457 0.929 . S
C1446 C1442 1.531 . S
C1446 H1458 0.960 . S
C1446 H1459 0.962 . S
C1446 H1460 0.960 . S
C1447 C1444 1.511 . S
C1447 H1461 0.961 . S
C1447 H1462 0.961 . S
C1447 H1463 0.961 . S
C1448 C1449 1.370 . S
C1448 C1450 1.363 . S
C1448 H1464 0.931 . S
C1449 C1448 1.370 . S
C1449 C1453 1.408 . S
C1450 C1448 1.363 . S
C1450 C1451 1.370 . S
C1450 C1454 1.524 . S
C1451 C1443 1.503 . S
C1451 C1450 1.370 . S
C1451 C1452 1.403 . S
C1452 C1451 1.403 . S
C1452 C1453 1.404 . S
C1452 C1455 1.539 . S
C1453 C1449 1.408 . S
C1453 C1452 1.404 . S
C1453 H1465 0.930 . S
C1454 C1450 1.524 . S
C1454 H1466 0.956 . S
C1454 H1467 0.961 . S
C1454 H1468 0.961 . S
C1455 C1452 1.539 . S
C1455 H1469 0.958 . S
C1455 H1470 0.961 . S
C1455 H1471 0.960 . S
H1456 C1440 0.931 . S
H1457 C1445 0.929 . S
H1458 C1446 0.960 . S
H1459 C1446 0.962 . S
H1460 C1446 0.960 . S
H1461 C1447 0.961 . S
H1462 C1447 0.961 . S
H1463 C1447 0.961 . S
H1464 C1448 0.931 . S
H1465 C1453 0.930 . S
H1466 C1454 0.956 . S
H1467 C1454 0.961 . S
H1468 C1454 0.961 . S
H1469 C1455 0.958 . S
H1470 C1455 0.961 . S
H1471 C1455 0.960 . S
C1472 C1473 1.391 . S
C1472 C1474 1.394 . S
C1472 H1488 0.931 . S
C1473 C1472 1.391 . S
C1473 C1477 1.376 . S
C1474 C1472 1.394 . S
C1474 C1475 1.369 . S
C1474 C1478 1.531 . S
C1475 C1474 1.369 . S
C1475 C1476 1.410 . S
C1475 C1483 1.503 . S
C1476 C1475 1.410 . S
C1476 C1477 1.392 . S
C1476 C1479 1.511 . S
C1477 C1473 1.376 . S
C1477 C1476 1.392 . S
C1477 H1489 0.929 . S
C1478 C1474 1.531 . S
C1478 H1490 0.960 . S
C1478 H1491 0.962 . S
C1478 H1492 0.960 . S
C1479 C1476 1.511 . S
C1479 H1493 0.961 . S
C1479 H1494 0.961 . S
C1479 H1495 0.961 . S
C1480 C1481 1.370 . S
C1480 C1482 1.363 . S
C1480 H1496 0.931 . S
C1481 C1480 1.370 . S
C1481 C1485 1.408 . S
C1482 C1480 1.363 . S
C1482 C1483 1.370 . S
C1482 C1486 1.524 . S
C1483 C1475 1.503 . S
C1483 C1482 1.370 . S
C1483 C1484 1.403 . S
C1484 C1483 1.403 . S
C1484 C1485 1.404 . S
C1484 C1487 1.539 . S
C1485 C1481 1.408 . S
C1485 C1484 1.404 . S
C1485 H1497 0.930 . S
C1486 C1482 1.524 . S
C1486 H1498 0.956 . S
C1486 H1499 0.961 . S
C1486 H1500 0.961 . S
C1487 C1484 1.539 . S
C1487 H1501 0.958 . S
C1487 H1502 0.961 . S
C1487 H1503 0.960 . S
H1488 C1472 0.931 . S
H1489 C1477 0.929 . S
H1490 C1478 0.960 . S
H1491 C1478 0.962 . S
H1492 C1478 0.960 . S
H1493 C1479 0.961 . S
H1494 C1479 0.961 . S
H1495 C1479 0.961 . S
H1496 C1480 0.931 . S
H1497 C1485 0.930 . S
H1498 C1486 0.956 . S
H1499 C1486 0.961 . S
H1500 C1486 0.961 . S
H1501 C1487 0.958 . S
H1502 C1487 0.961 . S
H1503 C1487 0.960 . S
C1504 C1505 1.391 . S
C1504 C1506 1.394 . S
C1504 H1520 0.931 . S
C1505 C1504 1.391 . S
C1505 C1509 1.376 . S
C1506 C1504 1.394 . S
C1506 C1507 1.369 . S
C1506 C1510 1.531 . S
C1507 C1506 1.369 . S
C1507 C1508 1.410 . S
C1507 C1515 1.503 . S
C1508 C1507 1.410 . S
C1508 C1509 1.392 . S
C1508 C1511 1.511 . S
C1509 C1505 1.376 . S
C1509 C1508 1.392 . S
C1509 H1521 0.929 . S
C1510 C1506 1.531 . S
C1510 H1522 0.960 . S
C1510 H1523 0.962 . S
C1510 H1524 0.960 . S
C1511 C1508 1.511 . S
C1511 H1525 0.961 . S
C1511 H1526 0.961 . S
C1511 H1527 0.961 . S
C1512 C1513 1.370 . S
C1512 C1514 1.363 . S
C1512 H1528 0.931 . S
C1513 C1512 1.370 . S
C1513 C1517 1.408 . S
C1514 C1512 1.363 . S
C1514 C1515 1.370 . S
C1514 C1518 1.524 . S
C1515 C1507 1.503 . S
C1515 C1514 1.370 . S
C1515 C1516 1.403 . S
C1516 C1515 1.403 . S
C1516 C1517 1.404 . S
C1516 C1519 1.539 . S
C1517 C1513 1.408 . S
C1517 C1516 1.404 . S
C1517 H1529 0.930 . S
C1518 C1514 1.524 . S
C1518 H1530 0.956 . S
C1518 H1531 0.961 . S
C1518 H1532 0.961 . S
C1519 C1516 1.539 . S
C1519 H1533 0.958 . S
C1519 H1534 0.961 . S
C1519 H1535 0.960 . S
H1520 C1504 0.931 . S
H1521 C1509 0.929 . S
H1522 C1510 0.960 . S
H1523 C1510 0.962 . S
H1524 C1510 0.960 . S
H1525 C1511 0.961 . S
H1526 C1511 0.961 . S
H1527 C1511 0.961 . S
H1528 C1512 0.931 . S
H1529 C1517 0.930 . S
H1530 C1518 0.956 . S
H1531 C1518 0.961 . S
H1532 C1518 0.961 . S
H1533 C1519 0.958 . S
H1534 C1519 0.961 . S
H1535 C1519 0.960 . S
C1536 C1537 1.391 . S
C1536 C1538 1.394 . S
C1536 H1552 0.931 . S
C1537 C1536 1.391 . S
C1537 C1541 1.376 . S
C1538 C1536 1.394 . S
C1538 C1539 1.369 . S
C1538 C1542 1.531 . S
C1539 C1538 1.369 . S
C1539 C1540 1.410 . S
C1539 C1547 1.503 . S
C1540 C1539 1.410 . S
C1540 C1541 1.392 . S
C1540 C1543 1.511 . S
C1541 C1537 1.376 . S
C1541 C1540 1.392 . S
C1541 H1553 0.956 . S
C1542 C1538 1.531 . S
C1542 H1554 0.960 . S
C1542 H1555 0.962 . S
C1542 H1556 0.960 . S
C1543 C1540 1.511 . S
C1543 H1557 0.961 1_565 S
C1543 H1558 0.961 . S
C1543 H1559 0.961 . S
C1544 C1545 1.370 . S
C1544 C1546 1.363 . S
C1544 H1560 0.931 . S
C1545 C1544 1.370 . S
C1545 C1549 1.408 . S
C1546 C1544 1.363 . S
C1546 C1547 1.370 . S
C1546 C1550 1.524 . S
C1547 C1539 1.503 . S
C1547 C1546 1.370 . S
C1547 C1548 1.403 . S
C1548 C1547 1.403 . S
C1548 C1549 1.404 . S
C1548 C1551 1.539 . S
C1549 C1545 1.408 . S
C1549 C1548 1.404 . S
C1549 H1561 0.930 . S
C1550 C1546 1.524 . S
C1550 H1562 0.956 . S
C1550 H1563 0.961 . S
C1550 H1564 0.961 . S
C1551 C1548 1.539 . S
C1551 H1565 0.958 . S
C1551 H1566 0.961 . S
C1551 H1567 0.960 . S
H1552 C1536 0.931 . S
H1553 C1541 0.956 . S
H1554 C1542 0.960 . S
H1555 C1542 0.962 . S
H1556 C1542 0.960 . S
H1557 C1543 0.961 1_545 S
H1558 C1543 0.961 . S
H1559 C1543 0.961 . S
H1560 C1544 0.931 . S
H1561 C1549 0.930 . S
H1562 C1550 0.956 . S
H1563 C1550 0.961 . S
H1564 C1550 0.961 . S
H1565 C1551 0.958 . S
H1566 C1551 0.961 . S
H1567 C1551 0.960 . S
C1568 C1569 1.391 . S
C1568 C1570 1.394 . S
C1568 H1584 0.931 . S
C1569 C1568 1.391 . S
C1569 C1573 1.376 . S
C1570 C1568 1.394 . S
C1570 C1571 1.369 . S
C1570 C1574 1.531 . S
C1571 C1570 1.369 . S
C1571 C1572 1.410 . S
C1571 C1579 1.503 . S
C1572 C1571 1.410 . S
C1572 C1573 1.392 . S
C1572 C1575 1.511 . S
C1573 C1569 1.376 . S
C1573 C1572 1.392 . S
C1573 H1585 0.929 . S
C1574 C1570 1.531 . S
C1574 H1586 0.960 . S
C1574 H1587 0.962 . S
C1574 H1588 0.960 . S
C1575 C1572 1.511 . S
C1575 H1589 0.961 . S
C1575 H1590 0.961 . S
C1575 H1591 0.961 . S
C1576 C1577 1.370 . S
C1576 C1578 1.363 . S
C1576 H1592 0.931 . S
C1577 C1576 1.370 . S
C1577 C1581 1.408 . S
C1578 C1576 1.363 . S
C1578 C1579 1.370 . S
C1578 C1582 1.524 . S
C1579 C1571 1.503 . S
C1579 C1578 1.370 . S
C1579 C1580 1.403 . S
C1580 C1579 1.403 . S
C1580 C1581 1.404 . S
C1580 C1583 1.539 . S
C1581 C1577 1.408 . S
C1581 C1580 1.404 . S
C1581 H1593 0.930 . S
C1582 C1578 1.524 . S
C1582 H1594 0.956 . S
C1582 H1595 0.961 . S
C1582 H1596 0.961 . S
C1583 C1580 1.539 . S
C1583 H1597 0.958 . S
C1583 H1598 0.961 . S
C1583 H1599 0.960 . S
H1584 C1568 0.931 . S
H1585 C1573 0.929 . S
H1586 C1574 0.960 . S
H1587 C1574 0.962 . S
H1588 C1574 0.960 . S
H1589 C1575 0.961 . S
H1590 C1575 0.961 . S
H1591 C1575 0.961 . S
H1592 C1576 0.931 . S
H1593 C1581 0.930 . S
H1594 C1582 0.956 . S
H1595 C1582 0.961 . S
H1596 C1582 0.961 . S
H1597 C1583 0.958 . S
H1598 C1583 0.961 . S
H1599 C1583 0.960 . S
C1600 C1601 1.391 . S
C1600 C1602 1.394 . S
C1600 H1616 0.931 . S
C1601 C1600 1.391 . S
C1601 C1605 1.376 . S
C1602 C1600 1.394 . S
C1602 C1603 1.369 . S
C1602 C1606 1.531 . S
C1603 C1602 1.369 . S
C1603 C1604 1.410 . S
C1603 C1611 1.503 . S
C1604 C1603 1.410 . S
C1604 C1605 1.392 . S
C1604 C1607 1.511 . S
C1605 C1601 1.376 . S
C1605 C1604 1.392 . S
C1605 H1617 0.929 . S
C1606 C1602 1.531 . S
C1606 H1618 0.960 . S
C1606 H1619 0.962 . S
C1606 H1620 0.960 . S
C1607 C1604 1.511 . S
C1607 H1621 0.966 . S
C1607 H1622 0.961 . S
C1607 H1623 0.961 . S
C1608 C1609 1.370 . S
C1608 C1610 1.363 . S
C1608 H1624 0.931 . S
C1609 C1608 1.370 . S
C1609 C1613 1.408 . S
C1610 C1608 1.363 . S
C1610 C1611 1.370 . S
C1610 C1614 1.524 . S
C1611 C1603 1.503 . S
C1611 C1610 1.370 . S
C1611 C1612 1.403 . S
C1612 C1611 1.403 . S
C1612 C1613 1.404 . S
C1612 C1615 1.539 . S
C1613 C1609 1.408 . S
C1613 C1612 1.404 . S
C1613 H1625 0.930 . S
C1614 C1610 1.524 . S
C1614 H1626 0.956 . S
C1614 H1627 0.961 . S
C1614 H1628 0.961 . S
C1615 C1612 1.539 . S
C1615 H1629 0.958 . S
C1615 H1630 0.961 . S
C1615 H1631 0.960 . S
H1616 C1600 0.931 . S
H1617 C1605 0.929 . S
H1618 C1606 0.960 . S
H1619 C1606 0.962 . S
H1620 C1606 0.960 . S
H1621 C1607 0.966 . S
H1622 C1607 0.961 . S
H1623 C1607 0.961 . S
H1624 C1608 0.931 . S
H1625 C1613 0.930 . S
H1626 C1614 0.956 . S
H1627 C1614 0.961 . S
H1628 C1614 0.961 . S
H1629 C1615 0.958 . S
H1630 C1615 0.961 . S
H1631 C1615 0.960 . S
C1632 C1633 1.391 . S
C1632 C1634 1.394 . S
C1632 H1648 0.931 . S
C1633 C1632 1.391 . S
C1633 C1637 1.376 . S
C1634 C1632 1.394 . S
C1634 C1635 1.369 . S
C1634 C1638 1.531 . S
C1635 C1634 1.369 . S
C1635 C1636 1.410 . S
C1635 C1643 1.503 . S
C1636 C1635 1.410 . S
C1636 C1637 1.392 . S
C1636 C1639 1.511 . S
C1637 C1633 1.376 . S
C1637 C1636 1.392 . S
C1637 H1649 0.929 . S
C1638 C1634 1.531 . S
C1638 H1650 0.960 . S
C1638 H1651 0.962 . S
C1638 H1652 0.960 . S
C1639 C1636 1.511 . S
C1639 H1653 0.961 . S
C1639 H1654 0.961 . S
C1639 H1655 0.961 . S
C1640 C1641 1.370 . S
C1640 C1642 1.363 . S
C1640 H1656 0.931 . S
C1641 C1640 1.370 . S
C1641 C1645 1.408 . S
C1642 C1640 1.363 . S
C1642 C1643 1.370 . S
C1642 C1646 1.524 . S
C1643 C1635 1.503 . S
C1643 C1642 1.370 . S
C1643 C1644 1.403 . S
C1644 C1643 1.403 . S
C1644 C1645 1.404 . S
C1644 C1647 1.539 . S
C1645 C1641 1.408 . S
C1645 C1644 1.404 . S
C1645 H1657 0.930 . S
C1646 C1642 1.524 . S
C1646 H1658 0.956 . S
C1646 H1659 0.961 . S
C1646 H1660 0.961 . S
C1647 C1644 1.539 . S
C1647 H1661 0.958 . S
C1647 H1662 0.961 . S
C1647 H1663 0.960 . S
H1648 C1632 0.931 . S
H1649 C1637 0.929 . S
H1650 C1638 0.960 . S
H1651 C1638 0.962 . S
H1652 C1638 0.960 . S
H1653 C1639 0.961 . S
H1654 C1639 0.961 . S
H1655 C1639 0.961 . S
H1656 C1640 0.931 . S
H1657 C1645 0.930 . S
H1658 C1646 0.956 . S
H1659 C1646 0.961 . S
H1660 C1646 0.961 . S
H1661 C1647 0.958 . S
H1662 C1647 0.961 . S
H1663 C1647 0.960 . S
C1664 C1665 1.391 . S
C1664 C1666 1.394 . S
C1664 H1680 0.931 . S
C1665 C1664 1.391 . S
C1665 C1669 1.376 . S
C1666 C1664 1.394 . S
C1666 C1667 1.369 . S
C1666 C1670 1.531 . S
C1667 C1666 1.369 . S
C1667 C1668 1.410 . S
C1667 C1675 1.503 . S
C1668 C1667 1.410 . S
C1668 C1669 1.392 . S
C1668 C1671 1.511 . S
C1669 C1665 1.376 . S
C1669 C1668 1.392 . S
C1669 H1681 0.929 . S
C1670 C1666 1.531 . S
C1670 H1682 0.960 . S
C1670 H1683 0.962 . S
C1670 H1684 0.960 . S
C1671 C1668 1.511 . S
C1671 H1685 0.961 . S
C1671 H1686 0.961 . S
C1671 H1687 0.961 . S
C1672 C1673 1.370 . S
C1672 C1674 1.363 . S
C1672 H1688 0.931 . S
C1673 C1672 1.370 . S
C1673 C1677 1.408 . S
C1674 C1672 1.363 . S
C1674 C1675 1.370 . S
C1674 C1678 1.524 . S
C1675 C1667 1.503 . S
C1675 C1674 1.370 . S
C1675 C1676 1.403 . S
C1676 C1675 1.403 . S
C1676 C1677 1.404 . S
C1676 C1679 1.539 . S
C1677 C1673 1.408 . S
C1677 C1676 1.404 . S
C1677 H1689 0.930 . S
C1678 C1674 1.524 . S
C1678 H1690 0.956 . S
C1678 H1691 0.961 . S
C1678 H1692 0.961 . S
C1679 C1676 1.539 . S
C1679 H1693 0.958 . S
C1679 H1694 0.961 . S
C1679 H1695 0.960 . S
H1680 C1664 0.931 . S
H1681 C1669 0.929 . S
H1682 C1670 0.960 . S
H1683 C1670 0.962 . S
H1684 C1670 0.960 . S
H1685 C1671 0.961 . S
H1686 C1671 0.961 . S
H1687 C1671 0.961 . S
H1688 C1672 0.931 . S
H1689 C1677 0.930 . S
H1690 C1678 0.956 . S
H1691 C1678 0.961 . S
H1692 C1678 0.961 . S
H1693 C1679 0.958 . S
H1694 C1679 0.961 . S
H1695 C1679 0.960 . S
C1696 C1697 1.391 . S
C1696 C1698 1.394 . S
C1696 H1712 0.931 . S
C1697 C1696 1.391 . S
C1697 C1701 1.376 . S
C1698 C1696 1.394 . S
C1698 C1699 1.369 . S
C1698 C1702 1.531 . S
C1699 C1698 1.369 . S
C1699 C1700 1.410 . S
C1699 C1707 1.503 . S
C1700 C1699 1.410 . S
C1700 C1701 1.392 . S
C1700 C1703 1.511 . S
C1701 C1697 1.376 . S
C1701 C1700 1.392 . S
C1701 H1713 0.929 . S
C1702 C1698 1.531 . S
C1702 H1714 0.960 . S
C1702 H1715 0.962 . S
C1702 H1716 0.960 . S
C1703 C1700 1.511 . S
C1703 H1717 0.961 . S
C1703 H1718 0.961 . S
C1703 H1719 0.961 . S
C1704 C1705 1.370 . S
C1704 C1706 1.363 . S
C1704 H1720 0.931 . S
C1705 C1704 1.370 . S
C1705 C1709 1.408 . S
C1706 C1704 1.363 . S
C1706 C1707 1.370 . S
C1706 C1710 1.524 . S
C1707 C1699 1.503 . S
C1707 C1706 1.370 . S
C1707 C1708 1.403 . S
C1708 C1707 1.403 . S
C1708 C1709 1.404 . S
C1708 C1711 1.539 . S
C1709 C1705 1.408 . S
C1709 C1708 1.404 . S
C1709 H1721 0.930 . S
C1710 C1706 1.524 . S
C1710 H1722 0.956 . S
C1710 H1723 0.961 . S
C1710 H1724 0.961 . S
C1711 C1708 1.539 . S
C1711 H1725 0.958 . S
C1711 H1726 0.961 . S
C1711 H1727 0.960 . S
H1712 C1696 0.931 . S
H1713 C1701 0.929 . S
H1714 C1702 0.960 . S
H1715 C1702 0.962 . S
H1716 C1702 0.960 . S
H1717 C1703 0.961 . S
H1718 C1703 0.961 . S
H1719 C1703 0.961 . S
H1720 C1704 0.931 . S
H1721 C1709 0.930 . S
H1722 C1710 0.956 . S
H1723 C1710 0.961 . S
H1724 C1710 0.961 . S
H1725 C1711 0.958 . S
H1726 C1711 0.961 . S
H1727 C1711 0.960 . S
C1728 C1729 1.391 . S
C1728 C1730 1.394 . S
C1728 H1744 0.931 . S
C1729 C1728 1.391 . S
C1729 C1733 1.376 . S
C1730 C1728 1.394 . S
C1730 C1731 1.369 . S
C1730 C1734 1.531 . S
C1731 C1730 1.369 . S
C1731 C1732 1.410 . S
C1731 C1739 1.503 . S
C1732 C1731 1.410 . S
C1732 C1733 1.392 . S
C1732 C1735 1.511 . S
C1733 C1729 1.376 . S
C1733 C1732 1.392 . S
C1733 H1745 0.929 . S
C1734 C1730 1.531 . S
C1734 H1746 0.960 . S
C1734 H1747 0.962 . S
C1734 H1748 0.960 . S
C1735 C1732 1.511 . S
C1735 H1749 0.961 . S
C1735 H1750 0.961 . S
C1735 H1751 0.961 . S
C1736 C1737 1.370 . S
C1736 C1738 1.363 1_556 S
C1736 H1752 0.931 . S
C1737 C1736 1.370 . S
C1737 C1741 1.408 1_565 S
C1738 C1736 1.363 1_554 S
C1738 C1739 1.370 . S
C1738 C1742 1.524 . S
C1739 C1731 1.503 . S
C1739 C1738 1.370 . S
C1739 C1740 1.403 . S
C1740 C1739 1.403 . S
C1740 C1741 1.404 1_564 S
C1740 C1743 1.539 1_565 S
C1741 C1737 1.408 1_545 S
C1741 C1740 1.404 1_546 S
C1741 H1753 0.930 . S
C1742 C1738 1.524 . S
C1742 H1754 0.956 . S
C1742 H1755 0.961 . S
C1742 H1756 0.961 1_554 S
C1743 C1740 1.539 1_545 S
C1743 H1757 0.958 . S
C1743 H1758 0.961 . S
C1743 H1759 0.960 . S
H1744 C1728 0.931 . S
H1745 C1733 0.929 . S
H1746 C1734 0.960 . S
H1747 C1734 0.962 . S
H1748 C1734 0.960 . S
H1749 C1735 0.961 . S
H1750 C1735 0.961 . S
H1751 C1735 0.961 . S
H1752 C1736 0.931 . S
H1753 C1741 0.930 . S
H1754 C1742 0.956 . S
H1755 C1742 0.961 . S
H1756 C1742 0.961 1_556 S
H1757 C1743 0.958 . S
H1758 C1743 0.961 . S
H1759 C1743 0.960 . S
C1760 C1761 1.391 . S
C1760 C1762 1.394 . S
C1760 H1776 0.931 . S
C1761 C1760 1.391 . S
C1761 C1765 1.376 . S
C1762 C1760 1.394 . S
C1762 C1763 1.369 . S
C1762 C1766 1.531 . S
C1763 C1762 1.369 . S
C1763 C1764 1.410 . S
C1763 C1771 1.503 . S
C1764 C1763 1.410 . S
C1764 C1765 1.392 . S
C1764 C1767 1.511 . S
C1765 C1761 1.376 . S
C1765 C1764 1.392 . S
C1765 H1777 0.929 . S
C1766 C1762 1.531 . S
C1766 H1778 0.960 . S
C1766 H1779 0.962 . S
C1766 H1780 0.960 . S
C1767 C1764 1.511 . S
C1767 H1781 0.961 . S
C1767 H1782 0.961 . S
C1767 H1783 0.961 . S
C1768 C1769 1.370 . S
C1768 C1770 1.363 . S
C1768 H1784 0.931 . S
C1769 C1768 1.370 . S
C1769 C1773 1.408 . S
C1770 C1768 1.363 . S
C1770 C1771 1.370 . S
C1770 C1774 1.524 . S
C1771 C1763 1.503 . S
C1771 C1770 1.370 . S
C1771 C1772 1.403 . S
C1772 C1771 1.403 . S
C1772 C1773 1.404 . S
C1772 C1775 1.539 . S
C1773 C1769 1.408 . S
C1773 C1772 1.404 . S
C1773 H1785 0.930 . S
C1774 C1770 1.524 . S
C1774 H1786 0.956 . S
C1774 H1787 0.961 . S
C1774 H1788 0.961 . S
C1775 C1772 1.539 . S
C1775 H1789 0.958 . S
C1775 H1790 0.961 . S
C1775 H1791 0.960 . S
H1776 C1760 0.931 . S
H1777 C1765 0.929 . S
H1778 C1766 0.960 . S
H1779 C1766 0.962 . S
H1780 C1766 0.960 . S
H1781 C1767 0.961 . S
H1782 C1767 0.961 . S
H1783 C1767 0.961 . S
H1784 C1768 0.931 . S
H1785 C1773 0.930 . S
H1786 C1774 0.956 . S
H1787 C1774 0.961 . S
H1788 C1774 0.961 . S
H1789 C1775 0.958 . S
H1790 C1775 0.961 . S
H1791 C1775 0.960 . S
C1792 C1793 1.391 . S
C1792 C1794 1.394 . S
C1792 H1808 0.931 . S
C1793 C1792 1.391 . S
C1793 C1797 1.376 . S
C1794 C1792 1.394 . S
C1794 C1795 1.369 . S
C1794 C1798 1.531 . S
C1795 C1794 1.369 . S
C1795 C1796 1.410 . S
C1795 C1803 1.503 . S
C1796 C1795 1.410 . S
C1796 C1797 1.392 . S
C1796 C1799 1.511 . S
C1797 C1793 1.376 . S
C1797 C1796 1.392 . S
C1797 H1809 0.929 . S
C1798 C1794 1.531 . S
C1798 H1810 0.960 . S
C1798 H1811 0.962 . S
C1798 H1812 0.960 . S
C1799 C1796 1.511 . S
C1799 H1813 0.961 . S
C1799 H1814 0.961 . S
C1799 H1815 0.961 . S
C1800 C1801 1.370 . S
C1800 C1802 1.363 . S
C1800 H1816 0.931 . S
C1801 C1800 1.370 . S
C1801 C1805 1.408 . S
C1802 C1800 1.363 . S
C1802 C1803 1.370 . S
C1802 C1806 1.524 . S
C1803 C1795 1.503 . S
C1803 C1802 1.370 . S
C1803 C1804 1.403 . S
C1804 C1803 1.403 . S
C1804 C1805 1.404 . S
C1804 C1807 1.539 . S
C1805 C1801 1.408 . S
C1805 C1804 1.404 . S
C1805 H1817 0.930 . S
C1806 C1802 1.524 . S
C1806 H1818 0.956 . S
C1806 H1819 0.961 . S
C1806 H1820 0.961 . S
C1807 C1804 1.539 . S
C1807 H1821 0.958 . S
C1807 H1822 0.961 . S
C1807 H1823 0.960 . S
H1808 C1792 0.931 . S
H1809 C1797 0.929 . S
H1810 C1798 0.960 . S
H1811 C1798 0.962 . S
H1812 C1798 0.960 . S
H1813 C1799 0.961 . S
H1814 C1799 0.961 . S
H1815 C1799 0.961 . S
H1816 C1800 0.931 . S
H1817 C1805 0.930 . S
H1818 C1806 0.956 . S
H1819 C1806 0.961 . S
H1820 C1806 0.961 . S
H1821 C1807 0.958 . S
H1822 C1807 0.961 . S
H1823 C1807 0.960 . S
C1824 C1825 1.391 . S
C1824 C1826 1.394 . S
C1824 H1840 0.931 . S
C1825 C1824 1.391 . S
C1825 C1829 1.376 . S
C1826 C1824 1.394 . S
C1826 C1827 1.369 . S
C1826 C1830 1.531 . S
C1827 C1826 1.369 . S
C1827 C1828 1.410 . S
C1827 C1835 1.503 . S
C1828 C1827 1.410 . S
C1828 C1829 1.392 . S
C1828 C1831 1.511 . S
C1829 C1825 1.376 . S
C1829 C1828 1.392 . S
C1829 H1841 0.929 . S
C1830 C1826 1.531 . S
C1830 H1842 0.960 . S
C1830 H1843 0.962 . S
C1830 H1844 0.960 . S
C1831 C1828 1.511 . S
C1831 H1845 0.961 . S
C1831 H1846 0.961 . S
C1831 H1847 0.961 . S
C1832 C1833 1.370 . S
C1832 C1834 1.363 . S
C1832 H1848 0.931 . S
C1833 C1832 1.370 . S
C1833 C1837 1.408 . S
C1834 C1832 1.363 . S
C1834 C1835 1.370 . S
C1834 C1838 1.524 . S
C1835 C1827 1.503 . S
C1835 C1834 1.370 . S
C1835 C1836 1.403 . S
C1836 C1835 1.403 . S
C1836 C1837 1.404 . S
C1836 C1839 1.539 . S
C1837 C1833 1.408 . S
C1837 C1836 1.404 . S
C1837 H1849 0.930 . S
C1838 C1834 1.524 . S
C1838 H1850 0.956 . S
C1838 H1851 0.961 . S
C1838 H1852 0.961 . S
C1839 C1836 1.539 . S
C1839 H1853 0.958 . S
C1839 H1854 0.961 . S
C1839 H1855 0.960 . S
H1840 C1824 0.931 . S
H1841 C1829 0.929 . S
H1842 C1830 0.960 . S
H1843 C1830 0.962 . S
H1844 C1830 0.960 . S
H1845 C1831 0.961 . S
H1846 C1831 0.961 . S
H1847 C1831 0.961 . S
H1848 C1832 0.931 . S
H1849 C1837 0.930 . S
H1850 C1838 0.956 . S
H1851 C1838 0.961 . S
H1852 C1838 0.961 . S
H1853 C1839 0.958 . S
H1854 C1839 0.961 . S
H1855 C1839 0.960 . S
C1856 C1857 1.391 . S
C1856 C1858 1.394 . S
C1856 H1872 0.931 . S
C1857 C1856 1.391 . S
C1857 C1861 1.376 . S
C1858 C1856 1.394 . S
C1858 C1859 1.369 . S
C1858 C1862 1.531 . S
C1859 C1858 1.369 . S
C1859 C1860 1.410 . S
C1859 C1867 1.503 . S
C1860 C1859 1.410 . S
C1860 C1861 1.392 . S
C1860 C1863 1.511 . S
C1861 C1857 1.376 . S
C1861 C1860 1.392 . S
C1861 H1873 0.929 . S
C1862 C1858 1.531 . S
C1862 H1874 0.960 . S
C1862 H1875 0.962 . S
C1862 H1876 0.960 . S
C1863 C1860 1.511 . S
C1863 H1877 0.961 . S
C1863 H1878 0.961 . S
C1863 H1879 0.961 . S
C1864 C1865 1.370 . S
C1864 C1866 1.363 . S
C1864 H1880 0.931 . S
C1865 C1864 1.370 . S
C1865 C1869 1.408 . S
C1866 C1864 1.363 . S
C1866 C1867 1.370 . S
C1866 C1870 1.524 . S
C1867 C1859 1.503 . S
C1867 C1866 1.370 . S
C1867 C1868 1.403 . S
C1868 C1867 1.403 . S
C1868 C1869 1.404 . S
C1868 C1871 1.539 . S
C1869 C1865 1.408 . S
C1869 C1868 1.404 . S
C1869 H1881 0.930 . S
C1870 C1866 1.524 . S
C1870 H1882 0.956 . S
C1870 H1883 0.961 . S
C1870 H1884 0.961 . S
C1871 C1868 1.539 . S
C1871 H1885 0.958 . S
C1871 H1886 0.961 . S
C1871 H1887 0.960 . S
H1872 C1856 0.931 . S
H1873 C1861 0.929 . S
H1874 C1862 0.960 . S
H1875 C1862 0.962 . S
H1876 C1862 0.960 . S
H1877 C1863 0.961 . S
H1878 C1863 0.961 . S
H1879 C1863 0.961 . S
H1880 C1864 0.931 . S
H1881 C1869 0.930 . S
H1882 C1870 0.956 . S
H1883 C1870 0.961 . S
H1884 C1870 0.961 . S
H1885 C1871 0.958 . S
H1886 C1871 0.961 . S
H1887 C1871 0.960 . S
C1888 C1889 1.391 . S
C1888 C1890 1.394 . S
C1888 H1904 0.931 . S
C1889 C1888 1.391 . S
C1889 C1893 1.376 . S
C1890 C1888 1.394 . S
C1890 C1891 1.369 . S
C1890 C1894 1.531 . S
C1891 C1890 1.369 . S
C1891 C1892 1.410 . S
C1891 C1899 1.503 . S
C1892 C1891 1.410 . S
C1892 C1893 1.392 . S
C1892 C1895 1.511 . S
C1893 C1889 1.376 . S
C1893 C1892 1.392 . S
C1893 H1905 0.929 . S
C1894 C1890 1.531 . S
C1894 H1906 0.960 . S
C1894 H1907 0.962 . S
C1894 H1908 0.960 . S
C1895 C1892 1.511 . S
C1895 H1909 0.961 . S
C1895 H1910 0.961 . S
C1895 H1911 0.961 . S
C1896 C1897 1.370 . S
C1896 C1898 1.363 1_554 S
C1896 H1912 0.930 1_554 S
C1897 C1896 1.370 . S
C1897 C1901 1.408 . S
C1898 C1896 1.363 1_556 S
C1898 C1899 1.370 . S
C1898 C1902 1.524 . S
C1899 C1891 1.503 . S
C1899 C1898 1.370 . S
C1899 C1900 1.403 1_556 S
C1900 C1899 1.403 1_554 S
C1900 C1901 1.404 . S
C1900 C1903 1.539 . S
C1901 C1897 1.408 . S
C1901 C1900 1.404 . S
C1901 H1913 0.930 . S
C1902 C1898 1.524 . S
C1902 H1914 0.956 . S
C1902 H1915 0.961 . S
C1902 H1916 0.961 . S
C1903 C1900 1.539 . S
C1903 H1917 0.958 . S
C1903 H1918 0.961 . S
C1903 H1919 0.959 . S
H1904 C1888 0.931 . S
H1905 C1893 0.929 . S
H1906 C1894 0.960 . S
H1907 C1894 0.962 . S
H1908 C1894 0.960 . S
H1909 C1895 0.961 . S
H1910 C1895 0.961 . S
H1911 C1895 0.961 . S
H1912 C1896 0.930 1_556 S
H1913 C1901 0.930 . S
H1914 C1902 0.956 . S
H1915 C1902 0.961 . S
H1916 C1902 0.961 . S
H1917 C1903 0.958 . S
H1918 C1903 0.961 . S
H1919 C1903 0.959 . S
C1920 C1921 1.391 . S
C1920 C1922 1.394 . S
C1920 H1936 0.931 . S
C1921 C1920 1.391 . S
C1921 C1925 1.376 . S
C1922 C1920 1.394 . S
C1922 C1923 1.369 . S
C1922 C1926 1.531 . S
C1923 C1922 1.369 . S
C1923 C1924 1.410 . S
C1923 C1931 1.503 . S
C1924 C1923 1.410 . S
C1924 C1925 1.392 . S
C1924 C1927 1.511 . S
C1925 C1921 1.376 . S
C1925 C1924 1.392 . S
C1925 H1937 0.929 . S
C1926 C1922 1.531 . S
C1926 H1938 0.960 . S
C1926 H1939 0.962 . S
C1926 H1940 0.960 . S
C1927 C1924 1.511 . S
C1927 H1941 0.961 . S
C1927 H1942 0.961 . S
C1927 H1943 0.961 . S
C1928 C1929 1.370 . S
C1928 C1930 1.363 . S
C1928 H1944 0.931 . S
C1929 C1928 1.370 . S
C1929 C1933 1.408 . S
C1930 C1928 1.363 . S
C1930 C1931 1.370 . S
C1930 C1934 1.524 . S
C1931 C1923 1.503 . S
C1931 C1930 1.370 . S
C1931 C1932 1.403 . S
C1932 C1931 1.403 . S
C1932 C1933 1.404 . S
C1932 C1935 1.539 . S
C1933 C1929 1.408 . S
C1933 C1932 1.404 . S
C1933 H1945 0.930 . S
C1934 C1930 1.524 . S
C1934 H1946 0.956 . S
C1934 H1947 0.961 . S
C1934 H1948 0.961 . S
C1935 C1932 1.539 . S
C1935 H1949 0.958 . S
C1935 H1950 0.961 . S
C1935 H1951 0.960 . S
H1936 C1920 0.931 . S
H1937 C1925 0.929 . S
H1938 C1926 0.960 . S
H1939 C1926 0.962 . S
H1940 C1926 0.960 . S
H1941 C1927 0.961 . S
H1942 C1927 0.961 . S
H1943 C1927 0.961 . S
H1944 C1928 0.931 . S
H1945 C1933 0.930 . S
H1946 C1934 0.956 . S
H1947 C1934 0.961 . S
H1948 C1934 0.961 . S
H1949 C1935 0.958 . S
H1950 C1935 0.961 . S
H1951 C1935 0.960 . S
C1952 C1953 1.391 . S
C1952 C1954 1.394 . S
C1952 H1968 0.931 . S
C1953 C1952 1.391 . S
C1953 C1957 1.376 . S
C1954 C1952 1.394 . S
C1954 C1955 1.369 . S
C1954 C1958 1.531 . S
C1955 C1954 1.369 . S
C1955 C1956 1.410 . S
C1955 C1963 1.503 . S
C1956 C1955 1.410 . S
C1956 C1957 1.392 . S
C1956 C1959 1.511 . S
C1957 C1953 1.376 . S
C1957 C1956 1.392 . S
C1957 H1969 0.929 . S
C1958 C1954 1.531 . S
C1958 H1970 0.960 . S
C1958 H1971 0.962 . S
C1958 H1972 0.960 . S
C1959 C1956 1.511 . S
C1959 H1973 0.961 . S
C1959 H1974 0.961 . S
C1959 H1975 0.961 . S
C1960 C1961 1.370 . S
C1960 C1962 1.363 . S
C1960 H1976 0.931 . S
C1961 C1960 1.370 . S
C1961 C1965 1.408 . S
C1962 C1960 1.363 . S
C1962 C1963 1.370 . S
C1962 C1966 1.524 . S
C1963 C1955 1.503 . S
C1963 C1962 1.370 . S
C1963 C1964 1.403 . S
C1964 C1963 1.403 . S
C1964 C1965 1.404 . S
C1964 C1967 1.539 . S
C1965 C1961 1.408 . S
C1965 C1964 1.404 . S
C1965 H1977 0.930 . S
C1966 C1962 1.524 . S
C1966 H1978 0.956 . S
C1966 H1979 0.961 . S
C1966 H1980 0.961 . S
C1967 C1964 1.539 . S
C1967 H1981 0.958 . S
C1967 H1982 0.961 . S
C1967 H1983 0.960 . S
H1968 C1952 0.931 . S
H1969 C1957 0.929 . S
H1970 C1958 0.960 . S
H1971 C1958 0.962 . S
H1972 C1958 0.960 . S
H1973 C1959 0.961 . S
H1974 C1959 0.961 . S
H1975 C1959 0.961 . S
H1976 C1960 0.931 . S
H1977 C1965 0.930 . S
H1978 C1966 0.956 . S
H1979 C1966 0.961 . S
H1980 C1966 0.961 . S
H1981 C1967 0.958 . S
H1982 C1967 0.961 . S
H1983 C1967 0.960 . S
C1984 C1985 1.391 . S
C1984 C1986 1.375 1_554 S
C1984 H2000 0.931 . S
C1985 C1984 1.391 . S
C1985 C1989 1.376 . S
C1986 C1984 1.375 1_556 S
C1986 C1987 1.382 . S
C1986 C1990 1.536 . S
C1987 C1986 1.382 . S
C1987 C1988 1.410 . S
C1987 C1995 1.503 . S
C1988 C1987 1.410 . S
C1988 C1989 1.392 1_556 S
C1988 C1991 1.511 . S
C1989 C1985 1.376 . S
C1989 C1988 1.392 1_554 S
C1989 H2001 0.929 . S
C1990 C1986 1.536 . S
C1990 H2002 0.960 . S
C1990 H2003 0.962 . S
C1990 H2004 0.960 1_556 S
C1991 C1988 1.511 . S
C1991 H2005 0.961 . S
C1991 H2006 0.961 . S
C1991 H2007 0.961 . S
C1992 C1993 1.370 . S
C1992 C1994 1.363 . S
C1992 H2008 0.931 . S
C1993 C1992 1.370 . S
C1993 C1997 1.408 . S
C1994 C1992 1.363 . S
C1994 C1995 1.370 . S
C1994 C1998 1.524 . S
C1995 C1987 1.503 . S
C1995 C1994 1.370 . S
C1995 C1996 1.403 . S
C1996 C1995 1.403 . S
C1996 C1997 1.404 . S
C1996 C1999 1.539 . S
C1997 C1993 1.408 . S
C1997 C1996 1.404 . S
C1997 H2009 0.930 . S
C1998 C1994 1.524 . S
C1998 H2010 0.956 . S
C1998 H2011 0.961 . S
C1998 H2012 0.961 . S
C1999 C1996 1.539 . S
C1999 H2013 0.962 . S
C1999 H2014 0.961 . S
C1999 H2015 0.960 . S
H2000 C1984 0.931 . S
H2001 C1989 0.929 . S
H2002 C1990 0.960 . S
H2003 C1990 0.962 . S
H2004 C1990 0.960 1_554 S
H2005 C1991 0.961 . S
H2006 C1991 0.961 . S
H2007 C1991 0.961 . S
H2008 C1992 0.931 . S
H2009 C1997 0.930 . S
H2010 C1998 0.956 . S
H2011 C1998 0.961 . S
H2012 C1998 0.961 . S
H2013 C1999 0.962 . S
H2014 C1999 0.961 . S
H2015 C1999 0.960 . S
C2016 C2017 1.391 . S
C2016 C2018 1.394 . S
C2016 H2032 0.931 . S
C2017 C2016 1.391 . S
C2017 C2021 1.376 . S
C2018 C2016 1.394 . S
C2018 C2019 1.369 . S
C2018 C2022 1.531 . S
C2019 C2018 1.369 . S
C2019 C2020 1.410 . S
C2019 C2027 1.503 . S
C2020 C2019 1.410 . S
C2020 C2021 1.392 . S
C2020 C2023 1.511 . S
C2021 C2017 1.376 . S
C2021 C2020 1.392 . S
C2021 H2033 0.929 . S
C2022 C2018 1.531 . S
C2022 H2034 0.960 . S
C2022 H2035 0.962 . S
C2022 H2036 0.960 . S
C2023 C2020 1.511 . S
C2023 H2037 0.961 . S
C2023 H2038 0.961 . S
C2023 H2039 0.961 . S
C2024 C2025 1.370 . S
C2024 C2026 1.363 . S
C2024 H2040 0.931 . S
C2025 C2024 1.370 . S
C2025 C2029 1.408 . S
C2026 C2024 1.363 . S
C2026 C2027 1.370 . S
C2026 C2030 1.524 . S
C2027 C2019 1.503 . S
C2027 C2026 1.370 . S
C2027 C2028 1.403 . S
C2028 C2027 1.403 . S
C2028 C2029 1.404 . S
C2028 C2031 1.539 . S
C2029 C2025 1.408 . S
C2029 C2028 1.404 . S
C2029 H2041 0.930 . S
C2030 C2026 1.524 . S
C2030 H2042 0.956 . S
C2030 H2043 0.961 . S
C2030 H2044 0.961 . S
C2031 C2028 1.539 . S
C2031 H2045 0.958 . S
C2031 H2046 0.961 . S
C2031 H2047 0.960 . S
H2032 C2016 0.931 . S
H2033 C2021 0.929 . S
H2034 C2022 0.960 . S
H2035 C2022 0.962 . S
H2036 C2022 0.960 . S
H2037 C2023 0.961 . S
H2038 C2023 0.961 . S
H2039 C2023 0.961 . S
H2040 C2024 0.931 . S
H2041 C2029 0.930 . S
H2042 C2030 0.956 . S
H2043 C2030 0.961 . S
H2044 C2030 0.961 . S
H2045 C2031 0.958 . S
H2046 C2031 0.961 . S
H2047 C2031 0.960 . S
C2048 C2049 1.391 . S
C2048 C2050 1.394 . S
C2048 H2064 0.931 . S
C2049 C2048 1.391 . S
C2049 C2053 1.376 . S
C2050 C2048 1.394 . S
C2050 C2051 1.369 . S
C2050 C2054 1.531 . S
C2051 C2050 1.369 . S
C2051 C2052 1.410 . S
C2051 C2059 1.503 . S
C2052 C2051 1.410 . S
C2052 C2053 1.392 . S
C2052 C2055 1.511 . S
C2053 C2049 1.376 . S
C2053 C2052 1.392 . S
C2053 H2065 0.929 . S
C2054 C2050 1.531 . S
C2054 H2066 0.960 . S
C2054 H2067 0.962 . S
C2054 H2068 0.960 . S
C2055 C2052 1.511 . S
C2055 H2069 0.961 . S
C2055 H2070 0.961 . S
C2055 H2071 0.961 . S
C2056 C2057 1.370 . S
C2056 C2058 1.363 . S
C2056 H2072 0.931 . S
C2057 C2056 1.370 . S
C2057 C2061 1.408 . S
C2058 C2056 1.363 . S
C2058 C2059 1.370 1_556 S
C2058 C2062 1.524 1_556 S
C2059 C2051 1.503 . S
C2059 C2058 1.370 1_554 S
C2059 C2060 1.403 1_554 S
C2060 C2059 1.403 1_556 S
C2060 C2061 1.404 . S
C2060 C2063 1.534 1_556 S
C2061 C2057 1.408 . S
C2061 C2060 1.404 . S
C2061 H2073 0.930 . S
C2062 C2058 1.524 1_554 S
C2062 H2074 0.956 . S
C2062 H2075 0.961 . S
C2062 H2076 0.961 . S
C2063 C2060 1.534 1_554 S
C2063 H2077 0.968 . S
C2063 H2078 0.946 1_554 S
C2063 H2079 0.971 . S
H2064 C2048 0.931 . S
H2065 C2053 0.929 . S
H2066 C2054 0.960 . S
H2067 C2054 0.962 . S
H2068 C2054 0.960 . S
H2069 C2055 0.961 . S
H2070 C2055 0.961 . S
H2071 C2055 0.961 . S
H2072 C2056 0.931 . S
H2073 C2061 0.930 . S
H2074 C2062 0.956 . S
H2075 C2062 0.961 . S
H2076 C2062 0.961 . S
H2077 C2063 0.968 . S
H2078 C2063 0.946 1_556 S
H2079 C2063 0.971 . S
C2080 C2081 1.391 . S
C2080 C2082 1.394 . S
C2080 H2096 0.931 . S
C2081 C2080 1.391 . S
C2081 C2085 1.376 . S
C2082 C2080 1.394 . S
C2082 C2083 1.369 . S
C2082 C2086 1.531 . S
C2083 C2082 1.369 . S
C2083 C2084 1.410 . S
C2083 C2091 1.503 . S
C2084 C2083 1.410 . S
C2084 C2085 1.392 . S
C2084 C2087 1.511 . S
C2085 C2081 1.376 . S
C2085 C2084 1.392 . S
C2085 H2097 0.929 . S
C2086 C2082 1.531 . S
C2086 H2098 0.960 . S
C2086 H2099 0.962 . S
C2086 H2100 0.960 . S
C2087 C2084 1.511 . S
C2087 H2101 0.961 . S
C2087 H2102 0.961 . S
C2087 H2103 0.961 . S
C2088 C2089 1.370 . S
C2088 C2090 1.363 . S
C2088 H2104 0.931 . S
C2089 C2088 1.370 . S
C2089 C2093 1.408 . S
C2090 C2088 1.363 . S
C2090 C2091 1.370 . S
C2090 C2094 1.524 . S
C2091 C2083 1.503 . S
C2091 C2090 1.370 . S
C2091 C2092 1.403 . S
C2092 C2091 1.403 . S
C2092 C2093 1.404 . S
C2092 C2095 1.539 . S
C2093 C2089 1.408 . S
C2093 C2092 1.404 . S
C2093 H2105 0.930 . S
C2094 C2090 1.524 . S
C2094 H2106 0.956 . S
C2094 H2107 0.961 . S
C2094 H2108 0.961 . S
C2095 C2092 1.539 . S
C2095 H2109 0.958 . S
C2095 H2110 0.961 . S
C2095 H2111 0.960 . S
H2096 C2080 0.931 . S
H2097 C2085 0.929 . S
H2098 C2086 0.960 . S
H2099 C2086 0.962 . S
H2100 C2086 0.960 . S
H2101 C2087 0.961 . S
H2102 C2087 0.961 . S
H2103 C2087 0.961 . S
H2104 C2088 0.931 . S
H2105 C2093 0.930 . S
H2106 C2094 0.956 . S
H2107 C2094 0.961 . S
H2108 C2094 0.961 . S
H2109 C2095 0.958 . S
H2110 C2095 0.961 . S
H2111 C2095 0.960 . S
C2112 C2113 1.391 . S
C2112 C2114 1.394 . S
C2112 H2128 0.931 . S
C2113 C2112 1.391 . S
C2113 C2117 1.376 . S
C2114 C2112 1.394 . S
C2114 C2115 1.369 . S
C2114 C2118 1.531 . S
C2115 C2114 1.369 . S
C2115 C2116 1.410 . S
C2115 C2123 1.503 . S
C2116 C2115 1.410 . S
C2116 C2117 1.392 . S
C2116 C2119 1.511 . S
C2117 C2113 1.376 . S
C2117 C2116 1.392 . S
C2117 H2129 0.929 . S
C2118 C2114 1.531 . S
C2118 H2130 0.960 . S
C2118 H2131 0.962 . S
C2118 H2132 0.960 . S
C2119 C2116 1.511 . S
C2119 H2133 0.961 . S
C2119 H2134 0.961 . S
C2119 H2135 0.961 . S
C2120 C2121 1.370 . S
C2120 C2122 1.363 . S
C2120 H2136 0.931 . S
C2121 C2120 1.370 . S
C2121 C2125 1.408 . S
C2122 C2120 1.363 . S
C2122 C2123 1.370 . S
C2122 C2126 1.524 . S
C2123 C2115 1.503 . S
C2123 C2122 1.370 . S
C2123 C2124 1.403 . S
C2124 C2123 1.403 . S
C2124 C2125 1.404 . S
C2124 C2127 1.539 . S
C2125 C2121 1.408 . S
C2125 C2124 1.404 . S
C2125 H2137 0.930 . S
C2126 C2122 1.524 . S
C2126 H2138 0.956 . S
C2126 H2139 0.961 . S
C2126 H2140 0.961 . S
C2127 C2124 1.539 . S
C2127 H2141 0.958 . S
C2127 H2142 0.961 . S
C2127 H2143 0.960 . S
H2128 C2112 0.931 . S
H2129 C2117 0.929 . S
H2130 C2118 0.960 . S
H2131 C2118 0.962 . S
H2132 C2118 0.960 . S
H2133 C2119 0.961 . S
H2134 C2119 0.961 . S
H2135 C2119 0.961 . S
H2136 C2120 0.931 . S
H2137 C2125 0.930 . S
H2138 C2126 0.956 . S
H2139 C2126 0.961 . S
H2140 C2126 0.961 . S
H2141 C2127 0.958 . S
H2142 C2127 0.961 . S
H2143 C2127 0.960 . S
C2144 C2145 1.391 . S
C2144 C2146 1.394 . S
C2144 H2160 0.931 . S
C2145 C2144 1.391 . S
C2145 C2149 1.376 . S
C2146 C2144 1.394 . S
C2146 C2147 1.369 . S
C2146 C2150 1.531 . S
C2147 C2146 1.369 . S
C2147 C2148 1.410 . S
C2147 C2155 1.503 . S
C2148 C2147 1.410 . S
C2148 C2149 1.392 . S
C2148 C2151 1.511 . S
C2149 C2145 1.376 . S
C2149 C2148 1.392 . S
C2149 H2161 0.929 . S
C2150 C2146 1.531 . S
C2150 H2162 0.960 . S
C2150 H2163 0.962 . S
C2150 H2164 0.960 . S
C2151 C2148 1.511 . S
C2151 H2165 0.961 . S
C2151 H2166 0.961 . S
C2151 H2167 0.961 . S
C2152 C2153 1.370 . S
C2152 C2154 1.363 . S
C2152 H2168 0.931 . S
C2153 C2152 1.370 . S
C2153 C2157 1.408 . S
C2154 C2152 1.363 . S
C2154 C2155 1.370 . S
C2154 C2158 1.524 . S
C2155 C2147 1.503 . S
C2155 C2154 1.370 . S
C2155 C2156 1.403 . S
C2156 C2155 1.403 . S
C2156 C2157 1.404 . S
C2156 C2159 1.539 . S
C2157 C2153 1.408 . S
C2157 C2156 1.404 . S
C2157 H2169 0.930 . S
C2158 C2154 1.524 . S
C2158 H2170 0.956 . S
C2158 H2171 0.961 . S
C2158 H2172 0.961 . S
C2159 C2156 1.539 . S
C2159 H2173 0.958 . S
C2159 H2174 0.961 . S
C2159 H2175 0.960 . S
H2160 C2144 0.931 . S
H2161 C2149 0.929 . S
H2162 C2150 0.960 . S
H2163 C2150 0.962 . S
H2164 C2150 0.960 . S
H2165 C2151 0.961 . S
H2166 C2151 0.961 . S
H2167 C2151 0.961 . S
H2168 C2152 0.931 . S
H2169 C2157 0.930 . S
H2170 C2158 0.956 . S
H2171 C2158 0.961 . S
H2172 C2158 0.961 . S
H2173 C2159 0.958 . S
H2174 C2159 0.961 . S
H2175 C2159 0.960 . S
C2176 C2177 1.391 . S
C2176 C2178 1.394 . S
C2176 H2192 0.931 . S
C2177 C2176 1.391 . S
C2177 C2181 1.376 . S
C2178 C2176 1.394 . S
C2178 C2179 1.369 . S
C2178 C2182 1.531 . S
C2179 C2178 1.369 . S
C2179 C2180 1.410 . S
C2179 C2187 1.503 . S
C2180 C2179 1.410 . S
C2180 C2181 1.392 . S
C2180 C2183 1.511 . S
C2181 C2177 1.376 . S
C2181 C2180 1.392 . S
C2181 H2193 0.929 . S
C2182 C2178 1.531 . S
C2182 H2194 0.960 . S
C2182 H2195 0.962 . S
C2182 H2196 0.960 . S
C2183 C2180 1.511 . S
C2183 H2197 0.961 . S
C2183 H2198 0.961 . S
C2183 H2199 0.961 . S
C2184 C2185 1.370 . S
C2184 C2186 1.363 . S
C2184 H2200 0.931 . S
C2185 C2184 1.370 . S
C2185 C2189 1.408 . S
C2186 C2184 1.363 . S
C2186 C2187 1.370 . S
C2186 C2190 1.524 . S
C2187 C2179 1.503 . S
C2187 C2186 1.370 . S
C2187 C2188 1.403 . S
C2188 C2187 1.403 . S
C2188 C2189 1.404 . S
C2188 C2191 1.539 . S
C2189 C2185 1.408 . S
C2189 C2188 1.404 . S
C2189 H2201 0.930 . S
C2190 C2186 1.524 . S
C2190 H2202 0.956 . S
C2190 H2203 0.961 . S
C2190 H2204 0.961 . S
C2191 C2188 1.539 . S
C2191 H2205 0.958 . S
C2191 H2206 0.961 . S
C2191 H2207 0.960 . S
H2192 C2176 0.931 . S
H2193 C2181 0.929 . S
H2194 C2182 0.960 . S
H2195 C2182 0.962 . S
H2196 C2182 0.960 . S
H2197 C2183 0.961 . S
H2198 C2183 0.961 . S
H2199 C2183 0.961 . S
H2200 C2184 0.931 . S
H2201 C2189 0.930 . S
H2202 C2190 0.956 . S
H2203 C2190 0.961 . S
H2204 C2190 0.961 . S
H2205 C2191 0.958 . S
H2206 C2191 0.961 . S
H2207 C2191 0.960 . S
C2208 C2209 1.391 . S
C2208 C2210 1.394 . S
C2208 H2224 0.931 . S
C2209 C2208 1.391 . S
C2209 C2213 1.376 . S
C2210 C2208 1.394 . S
C2210 C2211 1.369 . S
C2210 C2214 1.531 . S
C2211 C2210 1.369 . S
C2211 C2212 1.410 . S
C2211 C2219 1.503 . S
C2212 C2211 1.410 . S
C2212 C2213 1.392 . S
C2212 C2215 1.511 . S
C2213 C2209 1.376 . S
C2213 C2212 1.392 . S
C2213 H2225 0.929 . S
C2214 C2210 1.531 . S
C2214 H2226 0.960 . S
C2214 H2227 0.962 . S
C2214 H2228 0.960 . S
C2215 C2212 1.511 . S
C2215 H2229 0.961 . S
C2215 H2230 0.961 . S
C2215 H2231 0.961 . S
C2216 C2217 1.370 . S
C2216 C2218 1.363 . S
C2216 H2232 0.931 . S
C2217 C2216 1.370 . S
C2217 C2221 1.408 . S
C2218 C2216 1.363 . S
C2218 C2219 1.370 . S
C2218 C2222 1.524 . S
C2219 C2211 1.503 . S
C2219 C2218 1.370 . S
C2219 C2220 1.403 . S
C2220 C2219 1.403 . S
C2220 C2221 1.404 . S
C2220 C2223 1.539 . S
C2221 C2217 1.408 . S
C2221 C2220 1.404 . S
C2221 H2233 0.930 . S
C2222 C2218 1.524 . S
C2222 H2234 0.956 . S
C2222 H2235 0.961 . S
C2222 H2236 0.961 . S
C2223 C2220 1.539 . S
C2223 H2237 0.958 . S
C2223 H2238 0.961 . S
C2223 H2239 0.960 . S
H2224 C2208 0.931 . S
H2225 C2213 0.929 . S
H2226 C2214 0.960 . S
H2227 C2214 0.962 . S
H2228 C2214 0.960 . S
H2229 C2215 0.961 . S
H2230 C2215 0.961 . S
H2231 C2215 0.961 . S
H2232 C2216 0.931 . S
H2233 C2221 0.930 . S
H2234 C2222 0.956 . S
H2235 C2222 0.961 . S
H2236 C2222 0.961 . S
H2237 C2223 0.958 . S
H2238 C2223 0.961 . S
H2239 C2223 0.960 . S
C2240 C2241 1.391 . S
C2240 C2242 1.394 . S
C2240 H2256 0.931 . S
C2241 C2240 1.391 . S
C2241 C2245 1.376 . S
C2242 C2240 1.394 . S
C2242 C2243 1.369 . S
C2242 C2246 1.531 . S
C2243 C2242 1.369 . S
C2243 C2244 1.410 . S
C2243 C2251 1.503 . S
C2244 C2243 1.410 . S
C2244 C2245 1.392 . S
C2244 C2247 1.511 . S
C2245 C2241 1.376 . S
C2245 C2244 1.392 . S
C2245 H2257 0.929 . S
C2246 C2242 1.531 . S
C2246 H2258 0.960 . S
C2246 H2259 0.962 . S
C2246 H2260 0.960 . S
C2247 C2244 1.511 . S
C2247 H2261 0.961 . S
C2247 H2262 0.961 . S
C2247 H2263 0.961 . S
C2248 C2249 1.370 . S
C2248 C2250 1.363 . S
C2248 H2264 0.931 . S
C2249 C2248 1.370 . S
C2249 C2253 1.408 . S
C2250 C2248 1.363 . S
C2250 C2251 1.370 . S
C2250 C2254 1.524 . S
C2251 C2243 1.503 . S
C2251 C2250 1.370 . S
C2251 C2252 1.403 . S
C2252 C2251 1.403 . S
C2252 C2253 1.404 . S
C2252 C2255 1.539 . S
C2253 C2249 1.408 . S
C2253 C2252 1.404 . S
C2253 H2265 0.930 . S
C2254 C2250 1.524 . S
C2254 H2266 0.956 . S
C2254 H2267 0.961 . S
C2254 H2268 0.961 . S
C2255 C2252 1.539 . S
C2255 H2269 0.958 . S
C2255 H2270 0.961 . S
C2255 H2271 0.960 . S
H2256 C2240 0.931 . S
H2257 C2245 0.929 . S
H2258 C2246 0.960 . S
H2259 C2246 0.962 . S
H2260 C2246 0.960 . S
H2261 C2247 0.961 . S
H2262 C2247 0.961 . S
H2263 C2247 0.961 . S
H2264 C2248 0.931 . S
H2265 C2253 0.930 . S
H2266 C2254 0.956 . S
H2267 C2254 0.961 . S
H2268 C2254 0.961 . S
H2269 C2255 0.958 . S
H2270 C2255 0.961 . S
H2271 C2255 0.960 . S
C2272 C2273 1.391 . S
C2272 C2274 1.394 . S
C2272 H2288 0.931 . S
C2273 C2272 1.391 . S
C2273 C2277 1.376 . S
C2274 C2272 1.394 . S
C2274 C2275 1.369 . S
C2274 C2278 1.531 . S
C2275 C2274 1.369 . S
C2275 C2276 1.410 . S
C2275 C2283 1.503 . S
C2276 C2275 1.410 . S
C2276 C2277 1.392 . S
C2276 C2279 1.511 . S
C2277 C2273 1.376 . S
C2277 C2276 1.392 . S
C2277 H2289 0.929 . S
C2278 C2274 1.531 . S
C2278 H2290 0.960 . S
C2278 H2291 0.962 . S
C2278 H2292 0.960 . S
C2279 C2276 1.511 . S
C2279 H2293 0.961 . S
C2279 H2294 0.961 . S
C2279 H2295 0.961 . S
C2280 C2281 1.370 . S
C2280 C2282 1.363 . S
C2280 H2296 0.931 . S
C2281 C2280 1.370 . S
C2281 C2285 1.408 . S
C2282 C2280 1.363 . S
C2282 C2283 1.370 . S
C2282 C2286 1.524 . S
C2283 C2275 1.503 . S
C2283 C2282 1.370 . S
C2283 C2284 1.403 . S
C2284 C2283 1.403 . S
C2284 C2285 1.404 . S
C2284 C2287 1.539 . S
C2285 C2281 1.408 . S
C2285 C2284 1.404 . S
C2285 H2297 0.930 . S
C2286 C2282 1.524 . S
C2286 H2298 0.956 . S
C2286 H2299 0.961 . S
C2286 H2300 0.961 . S
C2287 C2284 1.539 . S
C2287 H2301 0.958 . S
C2287 H2302 0.961 . S
C2287 H2303 0.960 . S
H2288 C2272 0.931 . S
H2289 C2277 0.929 . S
H2290 C2278 0.960 . S
H2291 C2278 0.962 . S
H2292 C2278 0.960 . S
H2293 C2279 0.961 . S
H2294 C2279 0.961 . S
H2295 C2279 0.961 . S
H2296 C2280 0.931 . S
H2297 C2285 0.930 . S
H2298 C2286 0.956 . S
H2299 C2286 0.961 . S
H2300 C2286 0.961 . S
H2301 C2287 0.958 . S
H2302 C2287 0.961 . S
H2303 C2287 0.960 . S
C2304 C2305 1.391 . S
C2304 C2306 1.394 1_655 S
C2304 H2320 0.931 1_655 S
C2305 C2304 1.391 . S
C2305 C2309 1.376 . S
C2306 C2304 1.394 1_455 S
C2306 C2307 1.369 1_455 S
C2306 C2310 1.531 . S
C2307 C2306 1.369 1_655 S
C2307 C2308 1.410 . S
C2307 C2315 1.503 1_655 S
C2308 C2307 1.410 . S
C2308 C2309 1.392 . S
C2308 C2311 1.511 . S
C2309 C2305 1.376 . S
C2309 C2308 1.392 . S
C2309 H2321 0.929 . S
C2310 C2306 1.531 . S
C2310 H2322 0.960 . S
C2310 H2323 0.962 . S
C2310 H2324 0.960 . S
C2311 C2308 1.511 . S
C2311 H2325 0.961 . S
C2311 H2326 0.961 . S
C2311 H2327 0.961 . S
C2312 C2313 1.370 . S
C2312 C2314 1.363 . S
C2312 H2328 0.931 . S
C2313 C2312 1.370 . S
C2313 C2317 1.408 . S
C2314 C2312 1.363 . S
C2314 C2315 1.370 . S
C2314 C2318 1.524 . S
C2315 C2307 1.503 1_455 S
C2315 C2314 1.370 . S
C2315 C2316 1.403 . S
C2316 C2315 1.403 . S
C2316 C2317 1.404 . S
C2316 C2319 1.539 1_455 S
C2317 C2313 1.408 . S
C2317 C2316 1.404 . S
C2317 H2329 0.930 . S
C2318 C2314 1.524 . S
C2318 H2330 0.956 . S
C2318 H2331 0.961 1_455 S
C2318 H2332 0.961 . S
C2319 C2316 1.539 1_655 S
C2319 H2333 0.958 1_655 S
C2319 H2334 0.961 . S
C2319 H2335 0.960 . S
H2320 C2304 0.931 1_455 S
H2321 C2309 0.929 . S
H2322 C2310 0.960 . S
H2323 C2310 0.962 . S
H2324 C2310 0.960 . S
H2325 C2311 0.961 . S
H2326 C2311 0.961 . S
H2327 C2311 0.961 . S
H2328 C2312 0.931 . S
H2329 C2317 0.930 . S
H2330 C2318 0.956 . S
H2331 C2318 0.961 1_655 S
H2332 C2318 0.961 . S
H2333 C2319 0.958 1_455 S
H2334 C2319 0.961 . S
H2335 C2319 0.960 . S
C2336 C2337 1.391 . S
C2336 C2338 1.394 . S
C2336 H2352 0.931 . S
C2337 C2336 1.391 . S
C2337 C2341 1.376 . S
C2338 C2336 1.394 . S
C2338 C2339 1.369 . S
C2338 C2342 1.531 . S
C2339 C2338 1.369 . S
C2339 C2340 1.410 . S
C2339 C2347 1.503 . S
C2340 C2339 1.410 . S
C2340 C2341 1.392 . S
C2340 C2343 1.511 . S
C2341 C2337 1.376 . S
C2341 C2340 1.392 . S
C2341 H2353 0.929 . S
C2342 C2338 1.531 . S
C2342 H2354 0.960 . S
C2342 H2355 0.962 . S
C2342 H2356 0.960 . S
C2343 C2340 1.511 . S
C2343 H2357 0.961 . S
C2343 H2358 0.961 . S
C2343 H2359 0.961 . S
C2344 C2345 1.370 . S
C2344 C2346 1.363 . S
C2344 H2360 0.931 . S
C2345 C2344 1.370 . S
C2345 C2349 1.408 . S
C2346 C2344 1.363 . S
C2346 C2347 1.370 . S
C2346 C2350 1.524 . S
C2347 C2339 1.503 . S
C2347 C2346 1.370 . S
C2347 C2348 1.403 . S
C2348 C2347 1.403 . S
C2348 C2349 1.404 . S
C2348 C2351 1.539 . S
C2349 C2345 1.408 . S
C2349 C2348 1.404 . S
C2349 H2361 0.930 . S
C2350 C2346 1.524 . S
C2350 H2362 0.956 . S
C2350 H2363 0.961 . S
C2350 H2364 0.961 . S
C2351 C2348 1.539 . S
C2351 H2365 0.958 . S
C2351 H2366 0.961 . S
C2351 H2367 0.960 . S
H2352 C2336 0.931 . S
H2353 C2341 0.929 . S
H2354 C2342 0.960 . S
H2355 C2342 0.962 . S
H2356 C2342 0.960 . S
H2357 C2343 0.961 . S
H2358 C2343 0.961 . S
H2359 C2343 0.961 . S
H2360 C2344 0.931 . S
H2361 C2349 0.930 . S
H2362 C2350 0.956 . S
H2363 C2350 0.961 . S
H2364 C2350 0.961 . S
H2365 C2351 0.958 . S
H2366 C2351 0.961 . S
H2367 C2351 0.960 . S
C2368 C2369 1.391 . S
C2368 C2370 1.394 . S
C2368 H2384 0.931 . S
C2369 C2368 1.391 . S
C2369 C2373 1.376 . S
C2370 C2368 1.394 . S
C2370 C2371 1.369 . S
C2370 C2374 1.531 . S
C2371 C2370 1.369 . S
C2371 C2372 1.410 . S
C2371 C2379 1.503 . S
C2372 C2371 1.410 . S
C2372 C2373 1.392 . S
C2372 C2375 1.511 . S
C2373 C2369 1.376 . S
C2373 C2372 1.392 . S
C2373 H2385 0.929 . S
C2374 C2370 1.531 . S
C2374 H2386 0.960 . S
C2374 H2387 0.962 . S
C2374 H2388 0.960 . S
C2375 C2372 1.511 . S
C2375 H2389 0.961 . S
C2375 H2390 0.961 . S
C2375 H2391 0.961 . S
C2376 C2377 1.370 . S
C2376 C2378 1.363 . S
C2376 H2392 0.931 . S
C2377 C2376 1.370 . S
C2377 C2381 1.408 . S
C2378 C2376 1.363 . S
C2378 C2379 1.370 . S
C2378 C2382 1.524 . S
C2379 C2371 1.503 . S
C2379 C2378 1.370 . S
C2379 C2380 1.403 . S
C2380 C2379 1.403 . S
C2380 C2381 1.404 . S
C2380 C2383 1.539 . S
C2381 C2377 1.408 . S
C2381 C2380 1.404 . S
C2381 H2393 0.930 . S
C2382 C2378 1.524 . S
C2382 H2394 0.956 . S
C2382 H2395 0.961 . S
C2382 H2396 0.961 . S
C2383 C2380 1.539 . S
C2383 H2397 0.958 . S
C2383 H2398 0.961 . S
C2383 H2399 0.960 . S
H2384 C2368 0.931 . S
H2385 C2373 0.929 . S
H2386 C2374 0.960 . S
H2387 C2374 0.962 . S
H2388 C2374 0.960 . S
H2389 C2375 0.961 . S
H2390 C2375 0.961 . S
H2391 C2375 0.961 . S
H2392 C2376 0.931 . S
H2393 C2381 0.930 . S
H2394 C2382 0.956 . S
H2395 C2382 0.961 . S
H2396 C2382 0.961 . S
H2397 C2383 0.958 . S
H2398 C2383 0.961 . S
H2399 C2383 0.960 . S
C2400 C2401 1.391 . S
C2400 C2402 1.394 . S
C2400 H2416 0.931 . S
C2401 C2400 1.391 . S
C2401 C2405 1.376 . S
C2402 C2400 1.394 . S
C2402 C2403 1.369 . S
C2402 C2406 1.531 . S
C2403 C2402 1.369 . S
C2403 C2404 1.410 . S
C2403 C2411 1.503 . S
C2404 C2403 1.410 . S
C2404 C2405 1.392 . S
C2404 C2407 1.511 . S
C2405 C2401 1.376 . S
C2405 C2404 1.392 . S
C2405 H2417 0.929 . S
C2406 C2402 1.531 . S
C2406 H2418 0.960 . S
C2406 H2419 0.962 . S
C2406 H2420 0.960 . S
C2407 C2404 1.511 . S
C2407 H2421 0.961 . S
C2407 H2422 0.961 . S
C2407 H2423 0.961 . S
C2408 C2409 1.370 . S
C2408 C2410 1.363 . S
C2408 H2424 0.931 . S
C2409 C2408 1.370 . S
C2409 C2413 1.408 . S
C2410 C2408 1.363 . S
C2410 C2411 1.370 . S
C2410 C2414 1.524 . S
C2411 C2403 1.503 . S
C2411 C2410 1.370 . S
C2411 C2412 1.403 . S
C2412 C2411 1.403 . S
C2412 C2413 1.404 . S
C2412 C2415 1.539 . S
C2413 C2409 1.408 . S
C2413 C2412 1.404 . S
C2413 H2425 0.930 1_556 S
C2414 C2410 1.524 . S
C2414 H2426 0.956 . S
C2414 H2427 0.961 . S
C2414 H2428 0.961 . S
C2415 C2412 1.539 . S
C2415 H2429 0.958 . S
C2415 H2430 0.983 . S
C2415 H2431 0.960 . S
H2416 C2400 0.931 . S
H2417 C2405 0.929 . S
H2418 C2406 0.960 . S
H2419 C2406 0.962 . S
H2420 C2406 0.960 . S
H2421 C2407 0.961 . S
H2422 C2407 0.961 . S
H2423 C2407 0.961 . S
H2424 C2408 0.931 . S
H2425 C2413 0.930 1_554 S
H2426 C2414 0.956 . S
H2427 C2414 0.961 . S
H2428 C2414 0.961 . S
H2429 C2415 0.958 . S
H2430 C2415 0.983 . S
H2431 C2415 0.960 . S
C2432 C2433 1.391 . S
C2432 C2434 1.394 . S
C2432 H2448 0.931 . S
C2433 C2432 1.391 . S
C2433 C2437 1.376 . S
C2434 C2432 1.394 . S
C2434 C2435 1.369 . S
C2434 C2438 1.531 . S
C2435 C2434 1.369 . S
C2435 C2436 1.410 . S
C2435 C2443 1.503 1_655 S
C2436 C2435 1.410 . S
C2436 C2437 1.392 . S
C2436 C2439 1.511 . S
C2437 C2433 1.376 . S
C2437 C2436 1.392 . S
C2437 H2449 0.929 . S
C2438 C2434 1.531 . S
C2438 H2450 0.960 . S
C2438 H2451 0.962 1_655 S
C2438 H2452 0.960 . S
C2439 C2436 1.511 . S
C2439 H2453 0.961 . S
C2439 H2454 0.961 . S
C2439 H2455 0.961 . S
C2440 C2441 1.370 . S
C2440 C2442 1.363 . S
C2440 H2456 0.931 . S
C2441 C2440 1.370 . S
C2441 C2445 1.408 . S
C2442 C2440 1.363 . S
C2442 C2443 1.370 . S
C2442 C2446 1.524 . S
C2443 C2435 1.503 1_455 S
C2443 C2442 1.370 . S
C2443 C2444 1.403 1_455 S
C2444 C2443 1.403 1_655 S
C2444 C2445 1.404 1_655 S
C2444 C2447 1.539 . S
C2445 C2441 1.408 . S
C2445 C2444 1.404 1_455 S
C2445 H2457 0.930 . S
C2446 C2442 1.524 . S
C2446 H2458 0.956 . S
C2446 H2459 0.961 . S
C2446 H2460 0.961 . S
C2447 C2444 1.539 . S
C2447 H2461 0.958 . S
C2447 H2462 0.961 . S
C2447 H2463 0.960 . S
H2448 C2432 0.931 . S
H2449 C2437 0.929 . S
H2450 C2438 0.960 . S
H2451 C2438 0.962 1_455 S
H2452 C2438 0.960 . S
H2453 C2439 0.961 . S
H2454 C2439 0.961 . S
H2455 C2439 0.961 . S
H2456 C2440 0.931 . S
H2457 C2445 0.930 . S
H2458 C2446 0.956 . S
H2459 C2446 0.961 . S
H2460 C2446 0.961 . S
H2461 C2447 0.958 . S
H2462 C2447 0.961 . S
H2463 C2447 0.960 . S
C2464 C2465 1.391 . S
C2464 C2466 1.394 . S
C2464 H2480 0.931 . S
C2465 C2464 1.391 . S
C2465 C2469 1.376 . S
C2466 C2464 1.394 . S
C2466 C2467 1.369 . S
C2466 C2470 1.531 . S
C2467 C2466 1.369 . S
C2467 C2468 1.410 . S
C2467 C2475 1.503 . S
C2468 C2467 1.410 . S
C2468 C2469 1.392 . S
C2468 C2471 1.511 . S
C2469 C2465 1.376 . S
C2469 C2468 1.392 . S
C2469 H2481 0.929 . S
C2470 C2466 1.531 . S
C2470 H2482 0.960 . S
C2470 H2483 0.962 . S
C2470 H2484 0.960 . S
C2471 C2468 1.511 . S
C2471 H2485 0.961 . S
C2471 H2486 0.961 . S
C2471 H2487 0.961 . S
C2472 C2473 1.370 . S
C2472 C2474 1.363 . S
C2472 H2488 0.931 . S
C2473 C2472 1.370 . S
C2473 C2477 1.408 . S
C2474 C2472 1.363 . S
C2474 C2475 1.370 . S
C2474 C2478 1.524 . S
C2475 C2467 1.503 . S
C2475 C2474 1.370 . S
C2475 C2476 1.403 . S
C2476 C2475 1.403 . S
C2476 C2477 1.404 . S
C2476 C2479 1.539 . S
C2477 C2473 1.408 . S
C2477 C2476 1.404 . S
C2477 H2489 0.930 . S
C2478 C2474 1.524 . S
C2478 H2490 0.956 . S
C2478 H2491 0.961 . S
C2478 H2492 0.961 . S
C2479 C2476 1.539 . S
C2479 H2493 0.958 . S
C2479 H2494 0.961 . S
C2479 H2495 0.960 . S
H2480 C2464 0.931 . S
H2481 C2469 0.929 . S
H2482 C2470 0.960 . S
H2483 C2470 0.962 . S
H2484 C2470 0.960 . S
H2485 C2471 0.961 . S
H2486 C2471 0.961 . S
H2487 C2471 0.961 . S
H2488 C2472 0.931 . S
H2489 C2477 0.930 . S
H2490 C2478 0.956 . S
H2491 C2478 0.961 . S
H2492 C2478 0.961 . S
H2493 C2479 0.958 . S
H2494 C2479 0.961 . S
H2495 C2479 0.960 . S
C2496 C2497 1.391 . S
C2496 C2498 1.394 . S
C2496 H2512 0.931 . S
C2497 C2496 1.391 . S
C2497 C2501 1.376 . S
C2498 C2496 1.394 . S
C2498 C2499 1.369 . S
C2498 C2502 1.531 . S
C2499 C2498 1.369 . S
C2499 C2500 1.410 . S
C2499 C2507 1.503 . S
C2500 C2499 1.410 . S
C2500 C2501 1.392 . S
C2500 C2503 1.511 . S
C2501 C2497 1.376 . S
C2501 C2500 1.392 . S
C2501 H2513 0.929 . S
C2502 C2498 1.531 . S
C2502 H2514 0.960 . S
C2502 H2515 0.962 . S
C2502 H2516 0.960 . S
C2503 C2500 1.511 . S
C2503 H2517 0.961 . S
C2503 H2518 0.961 . S
C2503 H2519 0.961 . S
C2504 C2505 1.370 . S
C2504 C2506 1.363 . S
C2504 H2520 0.931 . S
C2505 C2504 1.370 . S
C2505 C2509 1.408 . S
C2506 C2504 1.363 . S
C2506 C2507 1.370 . S
C2506 C2510 1.524 . S
C2507 C2499 1.503 . S
C2507 C2506 1.370 . S
C2507 C2508 1.403 . S
C2508 C2507 1.403 . S
C2508 C2509 1.404 . S
C2508 C2511 1.539 . S
C2509 C2505 1.408 . S
C2509 C2508 1.404 . S
C2509 H2521 0.930 . S
C2510 C2506 1.524 . S
C2510 H2522 0.956 . S
C2510 H2523 0.961 . S
C2510 H2524 0.961 . S
C2511 C2508 1.539 . S
C2511 H2525 0.958 . S
C2511 H2526 0.961 . S
C2511 H2527 0.960 . S
H2512 C2496 0.931 . S
H2513 C2501 0.929 . S
H2514 C2502 0.960 . S
H2515 C2502 0.962 . S
H2516 C2502 0.960 . S
H2517 C2503 0.961 . S
H2518 C2503 0.961 . S
H2519 C2503 0.961 . S
H2520 C2504 0.931 . S
H2521 C2509 0.930 . S
H2522 C2510 0.956 . S
H2523 C2510 0.961 . S
H2524 C2510 0.961 . S
H2525 C2511 0.958 . S
H2526 C2511 0.961 . S
H2527 C2511 0.960 . S
C2528 C2529 1.391 . S
C2528 C2530 1.394 . S
C2528 H2544 0.931 . S
C2529 C2528 1.391 . S
C2529 C2533 1.376 . S
C2530 C2528 1.394 . S
C2530 C2531 1.369 . S
C2530 C2534 1.531 . S
C2531 C2530 1.369 . S
C2531 C2532 1.410 . S
C2531 C2539 1.503 . S
C2532 C2531 1.410 . S
C2532 C2533 1.392 . S
C2532 C2535 1.511 . S
C2533 C2529 1.376 . S
C2533 C2532 1.392 . S
C2533 H2545 0.929 . S
C2534 C2530 1.531 . S
C2534 H2546 0.960 . S
C2534 H2547 0.962 . S
C2534 H2548 0.960 . S
C2535 C2532 1.511 . S
C2535 H2549 0.961 . S
C2535 H2550 0.961 . S
C2535 H2551 0.961 . S
C2536 C2537 1.370 . S
C2536 C2538 1.363 . S
C2536 H2552 0.931 . S
C2537 C2536 1.370 . S
C2537 C2541 1.408 . S
C2538 C2536 1.363 . S
C2538 C2539 1.370 . S
C2538 C2542 1.524 . S
C2539 C2531 1.503 . S
C2539 C2538 1.370 . S
C2539 C2540 1.403 . S
C2540 C2539 1.403 . S
C2540 C2541 1.404 . S
C2540 C2543 1.539 . S
C2541 C2537 1.408 . S
C2541 C2540 1.404 . S
C2541 H2553 0.930 . S
C2542 C2538 1.524 . S
C2542 H2554 0.956 . S
C2542 H2555 0.961 . S
C2542 H2556 0.961 . S
C2543 C2540 1.539 . S
C2543 H2557 0.958 . S
C2543 H2558 0.961 . S
C2543 H2559 0.960 . S
H2544 C2528 0.931 . S
H2545 C2533 0.929 . S
H2546 C2534 0.960 . S
H2547 C2534 0.962 . S
H2548 C2534 0.960 . S
H2549 C2535 0.961 . S
H2550 C2535 0.961 . S
H2551 C2535 0.961 . S
H2552 C2536 0.931 . S
H2553 C2541 0.930 . S
H2554 C2542 0.956 . S
H2555 C2542 0.961 . S
H2556 C2542 0.961 . S
H2557 C2543 0.958 . S
H2558 C2543 0.961 . S
H2559 C2543 0.960 . S
C2560 C2561 1.391 . S
C2560 C2562 1.394 . S
C2560 H2576 0.931 . S
C2561 C2560 1.391 . S
C2561 C2565 1.376 . S
C2562 C2560 1.394 . S
C2562 C2563 1.369 . S
C2562 C2566 1.531 . S
C2563 C2562 1.369 . S
C2563 C2564 1.410 . S
C2563 C2571 1.503 . S
C2564 C2563 1.410 . S
C2564 C2565 1.392 . S
C2564 C2567 1.511 . S
C2565 C2561 1.376 . S
C2565 C2564 1.392 . S
C2565 H2577 0.929 . S
C2566 C2562 1.531 . S
C2566 H2578 0.960 . S
C2566 H2579 0.962 . S
C2566 H2580 0.960 . S
C2567 C2564 1.511 . S
C2567 H2581 0.961 . S
C2567 H2582 0.961 . S
C2567 H2583 0.961 . S
C2568 C2569 1.370 . S
C2568 C2570 1.363 . S
C2568 H2584 0.931 . S
C2569 C2568 1.370 . S
C2569 C2573 1.408 . S
C2570 C2568 1.363 . S
C2570 C2571 1.370 . S
C2570 C2574 1.524 . S
C2571 C2563 1.503 . S
C2571 C2570 1.370 . S
C2571 C2572 1.403 . S
C2572 C2571 1.403 . S
C2572 C2573 1.404 . S
C2572 C2575 1.539 . S
C2573 C2569 1.408 . S
C2573 C2572 1.404 . S
C2573 H2585 0.930 . S
C2574 C2570 1.524 . S
C2574 H2586 0.956 . S
C2574 H2587 0.961 . S
C2574 H2588 0.961 . S
C2575 C2572 1.539 . S
C2575 H2589 0.958 . S
C2575 H2590 0.961 . S
C2575 H2591 0.960 . S
H2576 C2560 0.931 . S
H2577 C2565 0.929 . S
H2578 C2566 0.960 . S
H2579 C2566 0.962 . S
H2580 C2566 0.960 . S
H2581 C2567 0.961 . S
H2582 C2567 0.961 . S
H2583 C2567 0.961 . S
H2584 C2568 0.931 . S
H2585 C2573 0.930 . S
H2586 C2574 0.956 . S
H2587 C2574 0.961 . S
H2588 C2574 0.961 . S
H2589 C2575 0.958 . S
H2590 C2575 0.961 . S
H2591 C2575 0.960 . S
C2592 C2593 1.391 . S
C2592 C2594 1.394 . S
C2592 H2608 0.931 . S
C2593 C2592 1.391 . S
C2593 C2597 1.376 . S
C2594 C2592 1.394 . S
C2594 C2595 1.369 . S
C2594 C2598 1.531 . S
C2595 C2594 1.369 . S
C2595 C2596 1.410 . S
C2595 C2603 1.503 . S
C2596 C2595 1.410 . S
C2596 C2597 1.392 . S
C2596 C2599 1.511 . S
C2597 C2593 1.376 . S
C2597 C2596 1.392 . S
C2597 H2609 0.929 . S
C2598 C2594 1.531 . S
C2598 H2610 0.960 . S
C2598 H2611 0.962 . S
C2598 H2612 0.960 . S
C2599 C2596 1.511 . S
C2599 H2613 0.961 . S
C2599 H2614 0.961 . S
C2599 H2615 0.961 . S
C2600 C2601 1.370 . S
C2600 C2602 1.363 . S
C2600 H2616 0.931 . S
C2601 C2600 1.370 . S
C2601 C2605 1.408 . S
C2602 C2600 1.363 . S
C2602 C2603 1.370 . S
C2602 C2606 1.524 . S
C2603 C2595 1.503 . S
C2603 C2602 1.370 . S
C2603 C2604 1.403 . S
C2604 C2603 1.403 . S
C2604 C2605 1.404 . S
C2604 C2607 1.539 . S
C2605 C2601 1.408 . S
C2605 C2604 1.404 . S
C2605 H2617 0.930 . S
C2606 C2602 1.524 . S
C2606 H2618 0.956 . S
C2606 H2619 0.961 . S
C2606 H2620 0.961 . S
C2607 C2604 1.539 . S
C2607 H2621 0.958 . S
C2607 H2622 0.961 . S
C2607 H2623 0.960 . S
H2608 C2592 0.931 . S
H2609 C2597 0.929 . S
H2610 C2598 0.960 . S
H2611 C2598 0.962 . S
H2612 C2598 0.960 . S
H2613 C2599 0.961 . S
H2614 C2599 0.961 . S
H2615 C2599 0.961 . S
H2616 C2600 0.931 . S
H2617 C2605 0.930 . S
H2618 C2606 0.956 . S
H2619 C2606 0.961 . S
H2620 C2606 0.961 . S
H2621 C2607 0.958 . S
H2622 C2607 0.961 . S
H2623 C2607 0.960 . S
C2624 C2625 1.391 . S
C2624 C2626 1.394 . S
C2624 H2640 0.931 . S
C2625 C2624 1.391 . S
C2625 C2629 1.376 . S
C2626 C2624 1.394 . S
C2626 C2627 1.369 . S
C2626 C2630 1.531 . S
C2627 C2626 1.369 . S
C2627 C2628 1.410 . S
C2627 C2635 1.503 . S
C2628 C2627 1.410 . S
C2628 C2629 1.392 . S
C2628 C2631 1.511 . S
C2629 C2625 1.376 . S
C2629 C2628 1.392 . S
C2629 H2641 0.929 . S
C2630 C2626 1.531 . S
C2630 H2642 0.960 . S
C2630 H2643 0.962 . S
C2630 H2644 0.960 . S
C2631 C2628 1.511 . S
C2631 H2645 0.961 . S
C2631 H2646 0.961 . S
C2631 H2647 0.961 . S
C2632 C2633 1.370 . S
C2632 C2634 1.363 . S
C2632 H2648 0.931 . S
C2633 C2632 1.370 . S
C2633 C2637 1.408 . S
C2634 C2632 1.363 . S
C2634 C2635 1.370 . S
C2634 C2638 1.524 . S
C2635 C2627 1.503 . S
C2635 C2634 1.370 . S
C2635 C2636 1.403 . S
C2636 C2635 1.403 . S
C2636 C2637 1.404 . S
C2636 C2639 1.539 . S
C2637 C2633 1.408 . S
C2637 C2636 1.404 . S
C2637 H2649 0.930 . S
C2638 C2634 1.524 . S
C2638 H2650 0.956 . S
C2638 H2651 0.961 . S
C2638 H2652 0.961 . S
C2639 C2636 1.539 . S
C2639 H2653 0.958 . S
C2639 H2654 0.961 . S
C2639 H2655 0.960 . S
H2640 C2624 0.931 . S
H2641 C2629 0.929 . S
H2642 C2630 0.960 . S
H2643 C2630 0.962 . S
H2644 C2630 0.960 . S
H2645 C2631 0.961 . S
H2646 C2631 0.961 . S
H2647 C2631 0.961 . S
H2648 C2632 0.931 . S
H2649 C2637 0.930 . S
H2650 C2638 0.956 . S
H2651 C2638 0.961 . S
H2652 C2638 0.961 . S
H2653 C2639 0.958 . S
H2654 C2639 0.961 . S
H2655 C2639 0.960 . S
C2656 C2657 1.391 . S
C2656 C2658 1.394 . S
C2656 H2672 0.931 . S
C2657 C2656 1.391 . S
C2657 C2661 1.376 . S
C2658 C2656 1.394 . S
C2658 C2659 1.369 . S
C2658 C2662 1.531 . S
C2659 C2658 1.369 . S
C2659 C2660 1.410 . S
C2659 C2667 1.503 . S
C2660 C2659 1.410 . S
C2660 C2661 1.392 . S
C2660 C2663 1.511 . S
C2661 C2657 1.376 . S
C2661 C2660 1.392 . S
C2661 H2673 0.929 . S
C2662 C2658 1.531 . S
C2662 H2674 0.960 . S
C2662 H2675 0.962 . S
C2662 H2676 0.960 . S
C2663 C2660 1.511 . S
C2663 H2677 0.961 . S
C2663 H2678 0.961 . S
C2663 H2679 0.961 . S
C2664 C2665 1.370 . S
C2664 C2666 1.363 . S
C2664 H2680 0.931 . S
C2665 C2664 1.370 . S
C2665 C2669 1.408 . S
C2666 C2664 1.363 . S
C2666 C2667 1.370 . S
C2666 C2670 1.524 . S
C2667 C2659 1.503 . S
C2667 C2666 1.370 . S
C2667 C2668 1.403 . S
C2668 C2667 1.403 . S
C2668 C2669 1.404 . S
C2668 C2671 1.539 . S
C2669 C2665 1.408 . S
C2669 C2668 1.404 . S
C2669 H2681 0.930 . S
C2670 C2666 1.524 . S
C2670 H2682 0.956 . S
C2670 H2683 0.961 . S
C2670 H2684 0.961 . S
C2671 C2668 1.539 . S
C2671 H2685 0.958 . S
C2671 H2686 0.961 . S
C2671 H2687 0.960 . S
H2672 C2656 0.931 . S
H2673 C2661 0.929 . S
H2674 C2662 0.960 . S
H2675 C2662 0.962 . S
H2676 C2662 0.960 . S
H2677 C2663 0.961 . S
H2678 C2663 0.961 . S
H2679 C2663 0.961 . S
H2680 C2664 0.931 . S
H2681 C2669 0.930 . S
H2682 C2670 0.956 . S
H2683 C2670 0.961 . S
H2684 C2670 0.961 . S
H2685 C2671 0.958 . S
H2686 C2671 0.961 . S
H2687 C2671 0.960 . S
C2688 C2689 1.391 . S
C2688 C2690 1.394 . S
C2688 H2704 0.931 . S
C2689 C2688 1.391 . S
C2689 C2693 1.376 . S
C2690 C2688 1.394 . S
C2690 C2691 1.369 . S
C2690 C2694 1.531 . S
C2691 C2690 1.369 . S
C2691 C2692 1.410 . S
C2691 C2699 1.503 1_545 S
C2692 C2691 1.410 . S
C2692 C2693 1.392 . S
C2692 C2695 1.511 1_545 S
C2693 C2689 1.376 . S
C2693 C2692 1.392 . S
C2693 H2705 0.929 . S
C2694 C2690 1.531 . S
C2694 H2706 0.960 1_545 S
C2694 H2707 0.962 . S
C2694 H2708 0.960 . S
C2695 C2692 1.511 1_565 S
C2695 H2709 0.961 1_565 S
C2695 H2710 0.961 . S
C2695 H2711 0.961 . S
C2696 C2697 1.370 . S
C2696 C2698 1.363 . S
C2696 H2712 0.931 . S
C2697 C2696 1.370 . S
C2697 C2701 1.408 . S
C2698 C2696 1.363 . S
C2698 C2699 1.370 . S
C2698 C2702 1.524 1_565 S
C2699 C2691 1.503 1_565 S
C2699 C2698 1.370 . S
C2699 C2700 1.403 . S
C2700 C2699 1.403 . S
C2700 C2701 1.404 . S
C2700 C2703 1.539 . S
C2701 C2697 1.408 . S
C2701 C2700 1.404 . S
C2701 H2713 0.930 . S
C2702 C2698 1.524 1_545 S
C2702 H2714 0.956 . S
C2702 H2715 0.961 . S
C2702 H2716 0.961 . S
C2703 C2700 1.539 . S
C2703 H2717 0.958 . S
C2703 H2718 0.961 . S
C2703 H2719 0.960 . S
H2704 C2688 0.931 . S
H2705 C2693 0.929 . S
H2706 C2694 0.960 1_565 S
H2707 C2694 0.962 . S
H2708 C2694 0.960 . S
H2709 C2695 0.961 1_545 S
H2710 C2695 0.961 . S
H2711 C2695 0.961 . S
H2712 C2696 0.931 . S
H2713 C2701 0.930 . S
H2714 C2702 0.956 . S
H2715 C2702 0.961 . S
H2716 C2702 0.961 . S
H2717 C2703 0.958 . S
H2718 C2703 0.961 . S
H2719 C2703 0.960 . S
C2720 C2721 1.391 . S
C2720 C2722 1.394 . S
C2720 H2736 0.931 . S
C2721 C2720 1.391 . S
C2721 C2725 1.376 . S
C2722 C2720 1.394 . S
C2722 C2723 1.369 . S
C2722 C2726 1.531 . S
C2723 C2722 1.369 . S
C2723 C2724 1.410 . S
C2723 C2731 1.503 1_465 S
C2724 C2723 1.410 . S
C2724 C2725 1.392 . S
C2724 C2727 1.511 1_465 S
C2725 C2721 1.376 . S
C2725 C2724 1.392 . S
C2725 H2737 0.929 . S
C2726 C2722 1.531 . S
C2726 H2738 0.931 1_455 S
C2726 H2739 0.962 . S
C2726 H2740 0.960 . S
C2727 C2724 1.511 1_645 S
C2727 H2741 0.961 . S
C2727 H2742 0.961 . S
C2727 H2743 0.961 1_545 S
C2728 C2729 1.370 . S
C2728 C2730 1.363 1_655 S
C2728 H2744 0.935 . S
C2729 C2728 1.370 . S
C2729 C2733 1.408 . S
C2730 C2728 1.363 1_455 S
C2730 C2731 1.370 1_455 S
C2730 C2734 1.524 . S
C2731 C2723 1.503 1_645 S
C2731 C2730 1.370 1_655 S
C2731 C2732 1.403 . S
C2732 C2731 1.403 . S
C2732 C2733 1.404 . S
C2732 C2735 1.539 1_545 S
C2733 C2729 1.408 . S
C2733 C2732 1.404 . S
C2733 H2745 0.930 . S
C2734 C2730 1.524 . S
C2734 H2746 0.956 . S
C2734 H2747 0.961 . S
C2734 H2748 0.961 . S
C2735 C2732 1.539 1_565 S
C2735 H2749 0.958 . S
C2735 H2750 0.961 . S
C2735 H2751 0.960 . S
H2736 C2720 0.931 . S
H2737 C2725 0.929 . S
H2738 C2726 0.931 1_655 S
H2739 C2726 0.962 . S
H2740 C2726 0.960 . S
H2741 C2727 0.961 . S
H2742 C2727 0.961 . S
H2743 C2727 0.961 1_565 S
H2744 C2728 0.935 . S
H2745 C2733 0.930 . S
H2746 C2734 0.956 . S
H2747 C2734 0.961 . S
H2748 C2734 0.961 . S
H2749 C2735 0.958 . S
H2750 C2735 0.961 . S
H2751 C2735 0.960 . S
C2752 C2753 1.391 . S
C2752 C2754 1.394 1_565 S
C2752 H2768 0.929 1_565 S
C2753 C2752 1.391 . S
C2753 C2757 1.376 . S
C2754 C2752 1.394 1_545 S
C2754 C2755 1.369 . S
C2754 C2758 1.531 . S
C2755 C2754 1.369 . S
C2755 C2756 1.410 1_545 S
C2755 C2763 1.503 . S
C2756 C2755 1.410 1_565 S
C2756 C2757 1.392 . S
C2756 C2759 1.511 . S
C2757 C2753 1.376 . S
C2757 C2756 1.392 . S
C2757 H2769 0.929 . S
C2758 C2754 1.531 . S
C2758 H2770 0.960 . S
C2758 H2771 0.962 . S
C2758 H2772 0.960 . S
C2759 C2756 1.511 . S
C2759 H2773 0.961 . S
C2759 H2774 0.961 . S
C2759 H2775 0.961 1_565 S
C2760 C2761 1.370 1_565 S
C2760 C2762 1.363 . S
C2760 H2776 0.931 . S
C2761 C2760 1.370 1_545 S
C2761 C2765 1.408 . S
C2762 C2760 1.363 . S
C2762 C2763 1.370 1_565 S
C2762 C2766 1.524 . S
C2763 C2755 1.503 . S
C2763 C2762 1.370 1_545 S
C2763 C2764 1.403 . S
C2764 C2763 1.403 . S
C2764 C2765 1.404 . S
C2764 C2767 1.539 . S
C2765 C2761 1.408 . S
C2765 C2764 1.404 . S
C2765 H2777 0.930 . S
C2766 C2762 1.524 . S
C2766 H2778 0.956 . S
C2766 H2779 0.961 . S
C2766 H2780 0.961 . S
C2767 C2764 1.539 . S
C2767 H2781 0.958 . S
C2767 H2782 0.961 . S
C2767 H2783 0.960 . S
H2768 C2752 0.929 1_545 S
H2769 C2757 0.929 . S
H2770 C2758 0.960 . S
H2771 C2758 0.962 . S
H2772 C2758 0.960 . S
H2773 C2759 0.961 . S
H2774 C2759 0.961 . S
H2775 C2759 0.961 1_545 S
H2776 C2760 0.931 . S
H2777 C2765 0.930 . S
H2778 C2766 0.956 . S
H2779 C2766 0.961 . S
H2780 C2766 0.961 . S
H2781 C2767 0.958 . S
H2782 C2767 0.961 . S
H2783 C2767 0.960 . S
C2784 C2785 1.391 . S
C2784 C2786 1.394 1_565 S
C2784 H2800 0.931 1_565 S
C2785 C2784 1.391 . S
C2785 C2789 1.376 . S
C2786 C2784 1.394 1_545 S
C2786 C2787 1.370 1_545 S
C2786 C2790 1.531 1_655 S
C2787 C2786 1.370 1_565 S
C2787 C2788 1.406 . S
C2787 C2795 1.505 1_665 S
C2788 C2787 1.406 . S
C2788 C2789 1.392 . S
C2788 C2791 1.511 . S
C2789 C2785 1.376 . S
C2789 C2788 1.392 . S
C2789 H2801 0.929 . S
C2790 C2786 1.531 1_455 S
C2790 H2802 0.960 . S
C2790 H2803 0.962 . S
C2790 H2804 0.960 . S
C2791 C2788 1.511 . S
C2791 H2805 0.961 . S
C2791 H2806 0.961 . S
C2791 H2807 0.961 . S
C2792 C2793 1.370 . S
C2792 C2794 1.363 1_545 S
C2792 H2808 0.931 1_545 S
C2793 C2792 1.370 . S
C2793 C2797 1.408 . S
C2794 C2792 1.363 1_565 S
C2794 C2795 1.370 1_565 S
C2794 C2798 1.524 . S
C2795 C2787 1.505 1_445 S
C2795 C2794 1.370 1_545 S
C2795 C2796 1.403 1_455 S
C2796 C2795 1.403 1_655 S
C2796 C2797 1.404 1_655 S
C2796 C2799 1.539 . S
C2797 C2793 1.408 . S
C2797 C2796 1.404 1_455 S
C2797 H2809 0.930 . S
C2798 C2794 1.524 . S
C2798 H2810 0.956 . S
C2798 H2811 0.961 . S
C2798 H2812 0.961 . S
C2799 C2796 1.539 . S
C2799 H2813 0.958 . S
C2799 H2814 0.961 . S
C2799 H2815 0.960 . S
H2800 C2784 0.931 1_545 S
H2801 C2789 0.929 . S
H2802 C2790 0.960 . S
H2803 C2790 0.962 . S
H2804 C2790 0.960 . S
H2805 C2791 0.961 . S
H2806 C2791 0.961 . S
H2807 C2791 0.961 . S
H2808 C2792 0.931 1_565 S
H2809 C2797 0.930 . S
H2810 C2798 0.956 . S
H2811 C2798 0.961 . S
H2812 C2798 0.961 . S
H2813 C2799 0.958 . S
H2814 C2799 0.961 . S
H2815 C2799 0.960 . S
C2816 C2817 1.391 . S
C2816 C2818 1.394 1_454 S
C2816 H2832 0.931 1_455 S
C2817 C2816 1.391 . S
C2817 C2821 1.376 1_554 S
C2818 C2816 1.394 1_656 S
C2818 C2819 1.369 1_655 S
C2818 C2822 1.531 . S
C2819 C2818 1.369 1_455 S
C2819 C2820 1.410 . S
C2819 C2827 1.503 1_455 S
C2820 C2819 1.410 . S
C2820 C2821 1.392 . S
C2820 C2823 1.511 . S
C2821 C2817 1.376 1_556 S
C2821 C2820 1.392 . S
C2821 H2833 0.929 . S
C2822 C2818 1.531 . S
C2822 H2834 0.960 . S
C2822 H2835 0.962 . S
C2822 H2836 0.960 1_556 S
C2823 C2820 1.511 . S
C2823 H2837 0.961 . S
C2823 H2838 0.961 . S
C2823 H2839 0.961 . S
C2824 C2825 1.370 . S
C2824 C2826 1.363 . S
C2824 H2840 0.931 . S
C2825 C2824 1.370 . S
C2825 C2829 1.408 . S
C2826 C2824 1.363 . S
C2826 C2827 1.370 . S
C2826 C2830 1.524 . S
C2827 C2819 1.503 1_655 S
C2827 C2826 1.370 . S
C2827 C2828 1.403 . S
C2828 C2827 1.403 . S
C2828 C2829 1.404 . S
C2828 C2831 1.539 . S
C2829 C2825 1.408 . S
C2829 C2828 1.404 . S
C2829 H2841 0.930 . S
C2830 C2826 1.524 . S
C2830 H2842 0.956 . S
C2830 H2843 0.961 1_655 S
C2830 H2844 0.961 . S
C2831 C2828 1.539 . S
C2831 H2845 0.958 . S
C2831 H2846 0.961 . S
C2831 H2847 0.960 . S
H2832 C2816 0.931 1_655 S
H2833 C2821 0.929 . S
H2834 C2822 0.960 . S
H2835 C2822 0.962 . S
H2836 C2822 0.960 1_554 S
H2837 C2823 0.961 . S
H2838 C2823 0.961 . S
H2839 C2823 0.961 . S
H2840 C2824 0.931 . S
H2841 C2829 0.930 . S
H2842 C2830 0.956 . S
H2843 C2830 0.961 1_455 S
H2844 C2830 0.961 . S
H2845 C2831 0.958 . S
H2846 C2831 0.961 . S
H2847 C2831 0.960 . S
C2848 C2849 1.391 . S
C2848 C2850 1.394 1_556 S
C2848 H2864 0.931 . S
C2849 C2848 1.391 . S
C2849 C2853 1.384 . S
C2850 C2848 1.394 1_554 S
C2850 C2851 1.369 . S
C2850 C2854 1.531 . S
C2851 C2850 1.369 . S
C2851 C2852 1.410 . S
C2851 C2859 1.503 . S
C2852 C2851 1.410 . S
C2852 C2853 1.381 1_554 S
C2852 C2855 1.511 . S
C2853 C2849 1.384 . S
C2853 C2852 1.381 1_556 S
C2853 H2865 0.932 . S
C2854 C2850 1.531 . S
C2854 H2866 0.960 . S
C2854 H2867 0.962 . S
C2854 H2868 0.960 . S
C2855 C2852 1.511 . S
C2855 H2869 0.961 . S
C2855 H2870 0.961 . S
C2855 H2871 0.961 . S
C2856 C2857 1.370 . S
C2856 C2858 1.363 . S
C2856 H2872 0.931 . S
C2857 C2856 1.370 . S
C2857 C2861 1.408 . S
C2858 C2856 1.363 . S
C2858 C2859 1.370 . S
C2858 C2862 1.524 . S
C2859 C2851 1.503 . S
C2859 C2858 1.370 . S
C2859 C2860 1.403 . S
C2860 C2859 1.403 . S
C2860 C2861 1.404 . S
C2860 C2863 1.539 . S
C2861 C2857 1.408 . S
C2861 C2860 1.404 . S
C2861 H2873 0.930 . S
C2862 C2858 1.524 . S
C2862 H2874 0.956 . S
C2862 H2875 0.961 . S
C2862 H2876 0.961 . S
C2863 C2860 1.539 . S
C2863 H2877 0.958 . S
C2863 H2878 0.961 . S
C2863 H2879 0.960 . S
H2864 C2848 0.931 . S
H2865 C2853 0.932 . S
H2866 C2854 0.960 . S
H2867 C2854 0.962 . S
H2868 C2854 0.960 . S
H2869 C2855 0.961 . S
H2870 C2855 0.961 . S
H2871 C2855 0.961 . S
H2872 C2856 0.931 . S
H2873 C2861 0.930 . S
H2874 C2862 0.956 . S
H2875 C2862 0.961 . S
H2876 C2862 0.961 . S
H2877 C2863 0.958 . S
H2878 C2863 0.961 . S
H2879 C2863 0.960 . S
C2880 C2881 1.391 . S
C2880 C2882 1.394 . S
C2880 H2896 0.931 . S
C2881 C2880 1.391 . S
C2881 C2885 1.376 . S
C2882 C2880 1.394 . S
C2882 C2883 1.369 . S
C2882 C2886 1.531 . S
C2883 C2882 1.369 . S
C2883 C2884 1.410 . S
C2883 C2891 1.503 . S
C2884 C2883 1.410 . S
C2884 C2885 1.392 . S
C2884 C2887 1.511 . S
C2885 C2881 1.376 . S
C2885 C2884 1.392 . S
C2885 H2897 0.929 . S
C2886 C2882 1.531 . S
C2886 H2898 0.960 . S
C2886 H2899 0.962 . S
C2886 H2900 0.960 . S
C2887 C2884 1.511 . S
C2887 H2901 0.961 . S
C2887 H2902 0.961 . S
C2887 H2903 0.961 . S
C2888 C2889 1.370 . S
C2888 C2890 1.363 . S
C2888 H2904 0.931 . S
C2889 C2888 1.370 . S
C2889 C2893 1.408 . S
C2890 C2888 1.363 . S
C2890 C2891 1.370 . S
C2890 C2894 1.524 . S
C2891 C2883 1.503 . S
C2891 C2890 1.370 . S
C2891 C2892 1.403 . S
C2892 C2891 1.403 . S
C2892 C2893 1.404 . S
C2892 C2895 1.539 . S
C2893 C2889 1.408 . S
C2893 C2892 1.404 . S
C2893 H2905 0.930 . S
C2894 C2890 1.524 . S
C2894 H2906 0.956 . S
C2894 H2907 0.961 . S
C2894 H2908 0.961 . S
C2895 C2892 1.539 . S
C2895 H2909 0.958 . S
C2895 H2910 0.961 . S
C2895 H2911 0.960 . S
H2896 C2880 0.931 . S
H2897 C2885 0.929 . S
H2898 C2886 0.960 . S
H2899 C2886 0.962 . S
H2900 C2886 0.960 . S
H2901 C2887 0.961 . S
H2902 C2887 0.961 . S
H2903 C2887 0.961 . S
H2904 C2888 0.931 . S
H2905 C2893 0.930 . S
H2906 C2894 0.956 . S
H2907 C2894 0.961 . S
H2908 C2894 0.961 . S
H2909 C2895 0.958 . S
H2910 C2895 0.961 . S
H2911 C2895 0.960 . S
C2912 C2913 1.391 . S
C2912 C2914 1.394 . S
C2912 H2928 0.931 . S
C2913 C2912 1.391 . S
C2913 C2917 1.376 . S
C2914 C2912 1.394 . S
C2914 C2915 1.369 . S
C2914 C2918 1.531 . S
C2915 C2914 1.369 . S
C2915 C2916 1.410 . S
C2915 C2923 1.503 . S
C2916 C2915 1.410 . S
C2916 C2917 1.392 . S
C2916 C2919 1.511 . S
C2917 C2913 1.376 . S
C2917 C2916 1.392 . S
C2917 H2929 0.929 . S
C2918 C2914 1.531 . S
C2918 H2930 0.960 . S
C2918 H2931 0.962 . S
C2918 H2932 0.960 . S
C2919 C2916 1.511 . S
C2919 H2933 0.961 . S
C2919 H2934 0.961 . S
C2919 H2935 0.961 . S
C2920 C2921 1.370 . S
C2920 C2922 1.363 . S
C2920 H2936 0.931 . S
C2921 C2920 1.370 . S
C2921 C2925 1.408 . S
C2922 C2920 1.363 . S
C2922 C2923 1.370 . S
C2922 C2926 1.524 . S
C2923 C2915 1.503 . S
C2923 C2922 1.370 . S
C2923 C2924 1.403 . S
C2924 C2923 1.403 . S
C2924 C2925 1.404 . S
C2924 C2927 1.539 . S
C2925 C2921 1.408 . S
C2925 C2924 1.404 . S
C2925 H2937 0.930 . S
C2926 C2922 1.524 . S
C2926 H2938 0.956 . S
C2926 H2939 0.961 . S
C2926 H2940 0.961 . S
C2927 C2924 1.539 . S
C2927 H2941 0.958 . S
C2927 H2942 0.961 . S
C2927 H2943 0.960 . S
H2928 C2912 0.931 . S
H2929 C2917 0.929 . S
H2930 C2918 0.960 . S
H2931 C2918 0.962 . S
H2932 C2918 0.960 . S
H2933 C2919 0.961 . S
H2934 C2919 0.961 . S
H2935 C2919 0.961 . S
H2936 C2920 0.931 . S
H2937 C2925 0.930 . S
H2938 C2926 0.956 . S
H2939 C2926 0.961 . S
H2940 C2926 0.961 . S
H2941 C2927 0.958 . S
H2942 C2927 0.961 . S
H2943 C2927 0.960 . S
C2944 C2945 1.391 . S
C2944 C2946 1.394 1_655 S
C2944 H2960 0.931 . S
C2945 C2944 1.391 . S
C2945 C2949 1.376 1_655 S
C2946 C2944 1.394 1_455 S
C2946 C2947 1.369 . S
C2946 C2950 1.531 1_455 S
C2947 C2946 1.369 . S
C2947 C2948 1.410 . S
C2947 C2955 1.503 . S
C2948 C2947 1.410 . S
C2948 C2949 1.392 . S
C2948 C2951 1.511 . S
C2949 C2945 1.376 1_455 S
C2949 C2948 1.392 . S
C2949 H2961 0.929 . S
C2950 C2946 1.531 1_655 S
C2950 H2962 0.960 1_655 S
C2950 H2963 0.962 . S
C2950 H2964 0.960 . S
C2951 C2948 1.511 . S
C2951 H2965 0.961 . S
C2951 H2966 0.961 . S
C2951 H2967 0.961 . S
C2952 C2953 1.370 . S
C2952 C2954 1.363 . S
C2952 H2968 0.931 . S
C2953 C2952 1.370 . S
C2953 C2957 1.408 . S
C2954 C2952 1.363 . S
C2954 C2955 1.370 . S
C2954 C2958 1.564 . S
C2955 C2947 1.503 . S
C2955 C2954 1.370 . S
C2955 C2956 1.403 . S
C2956 C2955 1.403 . S
C2956 C2957 1.404 . S
C2956 C2959 1.539 . S
C2957 C2953 1.408 . S
C2957 C2956 1.404 . S
C2957 H2969 0.930 . S
C2958 C2954 1.564 . S
C2958 H2970 0.918 1_455 S
C2958 H2971 0.967 . S
C2958 H2972 0.956 1_455 S
C2959 C2956 1.539 . S
C2959 H2973 0.958 . S
C2959 H2974 0.961 . S
C2959 H2975 0.960 . S
H2960 C2944 0.931 . S
H2961 C2949 0.929 . S
H2962 C2950 0.960 1_455 S
H2963 C2950 0.962 . S
H2964 C2950 0.960 . S
H2965 C2951 0.961 . S
H2966 C2951 0.961 . S
H2967 C2951 0.961 . S
H2968 C2952 0.931 . S
H2969 C2957 0.930 . S
H2970 C2958 0.918 1_655 S
H2971 C2958 0.967 . S
H2972 C2958 0.956 1_655 S
H2973 C2959 0.958 . S
H2974 C2959 0.961 . S
H2975 C2959 0.960 . S
C2976 C2977 1.391 . S
C2976 C2978 1.394 . S
C2976 H2992 0.931 . S
C2977 C2976 1.391 . S
C2977 C2981 1.376 . S
C2978 C2976 1.394 . S
C2978 C2979 1.369 . S
C2978 C2982 1.531 . S
C2979 C2978 1.369 . S
C2979 C2980 1.410 . S
C2979 C2987 1.503 . S
C2980 C2979 1.410 . S
C2980 C2981 1.392 . S
C2980 C2983 1.511 . S
C2981 C2977 1.376 . S
C2981 C2980 1.392 . S
C2981 H2993 0.929 . S
C2982 C2978 1.531 . S
C2982 H2994 0.960 . S
C2982 H2995 0.962 . S
C2982 H2996 0.960 . S
C2983 C2980 1.511 . S
C2983 H2997 0.961 . S
C2983 H2998 0.961 . S
C2983 H2999 0.961 . S
C2984 C2985 1.370 . S
C2984 C2986 1.363 . S
C2984 H3000 0.931 . S
C2985 C2984 1.370 . S
C2985 C2989 1.408 . S
C2986 C2984 1.363 . S
C2986 C2987 1.370 . S
C2986 C2990 1.524 . S
C2987 C2979 1.503 . S
C2987 C2986 1.370 . S
C2987 C2988 1.403 . S
C2988 C2987 1.403 . S
C2988 C2989 1.404 . S
C2988 C2991 1.539 . S
C2989 C2985 1.408 . S
C2989 C2988 1.404 . S
C2989 H3001 0.930 . S
C2990 C2986 1.524 . S
C2990 H3002 0.956 . S
C2990 H3003 0.961 . S
C2990 H3004 0.961 . S
C2991 C2988 1.539 . S
C2991 H3005 0.958 . S
C2991 H3006 0.961 . S
C2991 H3007 0.960 . S
H2992 C2976 0.931 . S
H2993 C2981 0.929 . S
H2994 C2982 0.960 . S
H2995 C2982 0.962 . S
H2996 C2982 0.960 . S
H2997 C2983 0.961 . S
H2998 C2983 0.961 . S
H2999 C2983 0.961 . S
H3000 C2984 0.931 . S
H3001 C2989 0.930 . S
H3002 C2990 0.956 . S
H3003 C2990 0.961 . S
H3004 C2990 0.961 . S
H3005 C2991 0.958 . S
H3006 C2991 0.961 . S
H3007 C2991 0.960 . S
C3008 C3009 1.391 . S
C3008 C3010 1.394 . S
C3008 H3024 0.931 . S
C3009 C3008 1.391 . S
C3009 C3013 1.376 . S
C3010 C3008 1.394 . S
C3010 C3011 1.369 . S
C3010 C3014 1.531 . S
C3011 C3010 1.369 . S
C3011 C3012 1.410 . S
C3011 C3019 1.503 . S
C3012 C3011 1.410 . S
C3012 C3013 1.392 . S
C3012 C3015 1.511 . S
C3013 C3009 1.376 . S
C3013 C3012 1.392 . S
C3013 H3025 0.929 . S
C3014 C3010 1.531 . S
C3014 H3026 0.960 . S
C3014 H3027 0.962 . S
C3014 H3028 0.960 . S
C3015 C3012 1.511 . S
C3015 H3029 0.961 . S
C3015 H3030 0.961 . S
C3015 H3031 0.961 . S
C3016 C3017 1.370 . S
C3016 C3018 1.363 . S
C3016 H3032 0.931 . S
C3017 C3016 1.370 . S
C3017 C3021 1.408 . S
C3018 C3016 1.363 . S
C3018 C3019 1.370 . S
C3018 C3022 1.524 . S
C3019 C3011 1.503 . S
C3019 C3018 1.370 . S
C3019 C3020 1.403 . S
C3020 C3019 1.403 . S
C3020 C3021 1.404 . S
C3020 C3023 1.539 . S
C3021 C3017 1.408 . S
C3021 C3020 1.404 . S
C3021 H3033 0.930 . S
C3022 C3018 1.524 . S
C3022 H3034 0.956 . S
C3022 H3035 0.961 . S
C3022 H3036 0.961 . S
C3023 C3020 1.539 . S
C3023 H3037 0.958 . S
C3023 H3038 0.961 . S
C3023 H3039 0.960 . S
H3024 C3008 0.931 . S
H3025 C3013 0.929 . S
H3026 C3014 0.960 . S
H3027 C3014 0.962 . S
H3028 C3014 0.960 . S
H3029 C3015 0.961 . S
H3030 C3015 0.961 . S
H3031 C3015 0.961 . S
H3032 C3016 0.931 . S
H3033 C3021 0.930 . S
H3034 C3022 0.956 . S
H3035 C3022 0.961 . S
H3036 C3022 0.961 . S
H3037 C3023 0.958 . S
H3038 C3023 0.961 . S
H3039 C3023 0.960 . S
C3040 C3041 1.391 . S
C3040 C3042 1.394 . S
C3040 H3056 0.931 . S
C3041 C3040 1.391 . S
C3041 C3045 1.376 . S
C3042 C3040 1.394 . S
C3042 C3043 1.369 . S
C3042 C3046 1.531 . S
C3043 C3042 1.369 . S
C3043 C3044 1.410 . S
C3043 C3051 1.503 . S
C3044 C3043 1.410 . S
C3044 C3045 1.392 . S
C3044 C3047 1.511 . S
C3045 C3041 1.376 . S
C3045 C3044 1.392 . S
C3045 H3057 0.929 . S
C3046 C3042 1.531 . S
C3046 H3058 0.960 . S
C3046 H3059 0.962 . S
C3046 H3060 0.960 . S
C3047 C3044 1.511 . S
C3047 H3061 0.961 . S
C3047 H3062 0.961 . S
C3047 H3063 0.961 . S
C3048 C3049 1.370 . S
C3048 C3050 1.363 . S
C3048 H3064 0.931 . S
C3049 C3048 1.370 . S
C3049 C3053 1.408 . S
C3050 C3048 1.363 . S
C3050 C3051 1.370 . S
C3050 C3054 1.524 . S
C3051 C3043 1.503 . S
C3051 C3050 1.370 . S
C3051 C3052 1.403 . S
C3052 C3051 1.403 . S
C3052 C3053 1.404 . S
C3052 C3055 1.539 . S
C3053 C3049 1.408 . S
C3053 C3052 1.404 . S
C3053 H3065 0.930 . S
C3054 C3050 1.524 . S
C3054 H3066 0.956 . S
C3054 H3067 0.961 . S
C3054 H3068 0.961 . S
C3055 C3052 1.539 . S
C3055 H3069 0.958 . S
C3055 H3070 0.961 . S
C3055 H3071 0.960 . S
H3056 C3040 0.931 . S
H3057 C3045 0.929 . S
H3058 C3046 0.960 . S
H3059 C3046 0.962 . S
H3060 C3046 0.960 . S
H3061 C3047 0.961 . S
H3062 C3047 0.961 . S
H3063 C3047 0.961 . S
H3064 C3048 0.931 . S
H3065 C3053 0.930 . S
H3066 C3054 0.956 . S
H3067 C3054 0.961 . S
H3068 C3054 0.961 . S
H3069 C3055 0.958 . S
H3070 C3055 0.961 . S
H3071 C3055 0.960 . S
C3072 C3073 1.391 . S
C3072 C3074 1.394 . S
C3072 H3088 0.931 . S
C3073 C3072 1.391 . S
C3073 C3077 1.376 . S
C3074 C3072 1.394 . S
C3074 C3075 1.369 . S
C3074 C3078 1.531 . S
C3075 C3074 1.369 . S
C3075 C3076 1.397 1_455 S
C3075 C3083 1.503 1_455 S
C3076 C3075 1.397 1_655 S
C3076 C3077 1.381 1_655 S
C3076 C3079 1.534 . S
C3077 C3073 1.376 . S
C3077 C3076 1.381 1_455 S
C3077 H3089 0.929 . S
C3078 C3074 1.531 . S
C3078 H3090 0.960 . S
C3078 H3091 0.962 . S
C3078 H3092 0.960 . S
C3079 C3076 1.534 . S
C3079 H3093 0.961 . S
C3079 H3094 0.961 . S
C3079 H3095 0.961 . S
C3080 C3081 1.370 . S
C3080 C3082 1.363 . S
C3080 H3096 0.931 . S
C3081 C3080 1.370 . S
C3081 C3085 1.408 . S
C3082 C3080 1.363 . S
C3082 C3083 1.370 . S
C3082 C3086 1.524 1_655 S
C3083 C3075 1.503 1_655 S
C3083 C3082 1.370 . S
C3083 C3084 1.403 . S
C3084 C3083 1.403 . S
C3084 C3085 1.404 . S
C3084 C3087 1.539 . S
C3085 C3081 1.408 . S
C3085 C3084 1.404 . S
C3085 H3097 0.930 . S
C3086 C3082 1.524 1_455 S
C3086 H3098 0.956 . S
C3086 H3099 0.961 1_455 S
C3086 H3100 0.961 1_455 S
C3087 C3084 1.539 . S
C3087 H3101 0.958 1_655 S
C3087 H3102 0.961 . S
C3087 H3103 0.960 . S
H3088 C3072 0.931 . S
H3089 C3077 0.929 . S
H3090 C3078 0.960 . S
H3091 C3078 0.962 . S
H3092 C3078 0.960 . S
H3093 C3079 0.961 . S
H3094 C3079 0.961 . S
H3095 C3079 0.961 . S
H3096 C3080 0.931 . S
H3097 C3085 0.930 . S
H3098 C3086 0.956 . S
H3099 C3086 0.961 1_655 S
H3100 C3086 0.961 1_655 S
H3101 C3087 0.958 1_455 S
H3102 C3087 0.961 . S
H3103 C3087 0.960 . S
C3104 C3105 1.391 . S
C3104 C3106 1.394 . S
C3104 H3120 0.931 . S
C3105 C3104 1.391 . S
C3105 C3109 1.376 . S
C3106 C3104 1.394 . S
C3106 C3107 1.369 . S
C3106 C3110 1.531 . S
C3107 C3106 1.369 . S
C3107 C3108 1.410 . S
C3107 C3115 1.503 . S
C3108 C3107 1.410 . S
C3108 C3109 1.392 . S
C3108 C3111 1.511 . S
C3109 C3105 1.376 . S
C3109 C3108 1.392 . S
C3109 H3121 0.929 . S
C3110 C3106 1.531 . S
C3110 H3122 0.960 . S
C3110 H3123 0.962 . S
C3110 H3124 0.960 . S
C3111 C3108 1.511 . S
C3111 H3125 0.961 . S
C3111 H3126 0.961 . S
C3111 H3127 0.961 . S
C3112 C3113 1.370 . S
C3112 C3114 1.363 . S
C3112 H3128 0.931 . S
C3113 C3112 1.370 . S
C3113 C3117 1.408 . S
C3114 C3112 1.363 . S
C3114 C3115 1.370 . S
C3114 C3118 1.524 . S
C3115 C3107 1.503 . S
C3115 C3114 1.370 . S
C3115 C3116 1.403 . S
C3116 C3115 1.403 . S
C3116 C3117 1.404 . S
C3116 C3119 1.539 . S
C3117 C3113 1.408 . S
C3117 C3116 1.404 . S
C3117 H3129 0.930 . S
C3118 C3114 1.524 . S
C3118 H3130 0.956 . S
C3118 H3131 0.961 . S
C3118 H3132 0.961 . S
C3119 C3116 1.539 . S
C3119 H3133 0.958 . S
C3119 H3134 0.961 . S
C3119 H3135 0.960 . S
H3120 C3104 0.931 . S
H3121 C3109 0.929 . S
H3122 C3110 0.960 . S
H3123 C3110 0.962 . S
H3124 C3110 0.960 . S
H3125 C3111 0.961 . S
H3126 C3111 0.961 . S
H3127 C3111 0.961 . S
H3128 C3112 0.931 . S
H3129 C3117 0.930 . S
H3130 C3118 0.956 . S
H3131 C3118 0.961 . S
H3132 C3118 0.961 . S
H3133 C3119 0.958 . S
H3134 C3119 0.961 . S
H3135 C3119 0.960 . S
C3136 C3137 1.391 . S
C3136 C3138 1.394 . S
C3136 H3152 0.931 . S
C3137 C3136 1.391 . S
C3137 C3141 1.376 . S
C3138 C3136 1.394 . S
C3138 C3139 1.369 . S
C3138 C3142 1.531 . S
C3139 C3138 1.369 . S
C3139 C3140 1.410 . S
C3139 C3147 1.503 . S
C3140 C3139 1.410 . S
C3140 C3141 1.392 . S
C3140 C3143 1.511 . S
C3141 C3137 1.376 . S
C3141 C3140 1.392 . S
C3141 H3153 0.929 . S
C3142 C3138 1.531 . S
C3142 H3154 0.960 . S
C3142 H3155 0.962 . S
C3142 H3156 0.960 . S
C3143 C3140 1.511 . S
C3143 H3157 0.961 . S
C3143 H3158 0.961 . S
C3143 H3159 0.961 . S
C3144 C3145 1.370 . S
C3144 C3146 1.363 . S
C3144 H3160 0.931 . S
C3145 C3144 1.370 . S
C3145 C3149 1.408 . S
C3146 C3144 1.363 . S
C3146 C3147 1.370 . S
C3146 C3150 1.524 . S
C3147 C3139 1.503 . S
C3147 C3146 1.370 . S
C3147 C3148 1.403 . S
C3148 C3147 1.403 . S
C3148 C3149 1.404 . S
C3148 C3151 1.539 . S
C3149 C3145 1.408 . S
C3149 C3148 1.404 . S
C3149 H3161 0.930 . S
C3150 C3146 1.524 . S
C3150 H3162 0.956 . S
C3150 H3163 0.961 . S
C3150 H3164 0.961 . S
C3151 C3148 1.539 . S
C3151 H3165 0.958 . S
C3151 H3166 0.961 . S
C3151 H3167 0.960 . S
H3152 C3136 0.931 . S
H3153 C3141 0.929 . S
H3154 C3142 0.960 . S
H3155 C3142 0.962 . S
H3156 C3142 0.960 . S
H3157 C3143 0.961 . S
H3158 C3143 0.961 . S
H3159 C3143 0.961 . S
H3160 C3144 0.931 . S
H3161 C3149 0.930 . S
H3162 C3150 0.956 . S
H3163 C3150 0.961 . S
H3164 C3150 0.961 . S
H3165 C3151 0.958 . S
H3166 C3151 0.961 . S
H3167 C3151 0.960 . S
C3168 C3169 1.391 . S
C3168 C3170 1.394 . S
C3168 H3184 0.931 . S
C3169 C3168 1.391 . S
C3169 C3173 1.376 . S
C3170 C3168 1.394 . S
C3170 C3171 1.369 . S
C3170 C3174 1.531 . S
C3171 C3170 1.369 . S
C3171 C3172 1.410 . S
C3171 C3179 1.503 . S
C3172 C3171 1.410 . S
C3172 C3173 1.392 . S
C3172 C3175 1.511 . S
C3173 C3169 1.376 . S
C3173 C3172 1.392 . S
C3173 H3185 0.929 . S
C3174 C3170 1.531 . S
C3174 H3186 0.960 . S
C3174 H3187 0.962 . S
C3174 H3188 0.960 . S
C3175 C3172 1.511 . S
C3175 H3189 0.961 . S
C3175 H3190 0.961 . S
C3175 H3191 0.961 . S
C3176 C3177 1.370 . S
C3176 C3178 1.363 . S
C3176 H3192 0.931 . S
C3177 C3176 1.370 . S
C3177 C3181 1.408 . S
C3178 C3176 1.363 . S
C3178 C3179 1.370 . S
C3178 C3182 1.524 . S
C3179 C3171 1.503 . S
C3179 C3178 1.370 . S
C3179 C3180 1.403 . S
C3180 C3179 1.403 . S
C3180 C3181 1.404 . S
C3180 C3183 1.539 . S
C3181 C3177 1.408 . S
C3181 C3180 1.404 . S
C3181 H3193 0.930 . S
C3182 C3178 1.524 . S
C3182 H3194 0.956 . S
C3182 H3195 0.961 . S
C3182 H3196 0.961 . S
C3183 C3180 1.539 . S
C3183 H3197 0.958 . S
C3183 H3198 0.961 . S
C3183 H3199 0.960 . S
H3184 C3168 0.931 . S
H3185 C3173 0.929 . S
H3186 C3174 0.960 . S
H3187 C3174 0.962 . S
H3188 C3174 0.960 . S
H3189 C3175 0.961 . S
H3190 C3175 0.961 . S
H3191 C3175 0.961 . S
H3192 C3176 0.931 . S
H3193 C3181 0.930 . S
H3194 C3182 0.956 . S
H3195 C3182 0.961 . S
H3196 C3182 0.961 . S
H3197 C3183 0.958 . S
H3198 C3183 0.961 . S
H3199 C3183 0.960 . S
C3200 C3201 1.391 1_655 S
C3200 C3202 1.394 . S
C3200 H3216 0.931 . S
C3201 C3200 1.391 1_455 S
C3201 C3205 1.376 . S
C3202 C3200 1.394 . S
C3202 C3203 1.369 . S
C3202 C3206 1.531 . S
C3203 C3202 1.369 . S
C3203 C3204 1.410 1_655 S
C3203 C3211 1.503 . S
C3204 C3203 1.410 1_455 S
C3204 C3205 1.392 . S
C3204 C3207 1.511 . S
C3205 C3201 1.376 . S
C3205 C3204 1.392 . S
C3205 H3217 0.929 . S
C3206 C3202 1.531 . S
C3206 H3218 0.960 . S
C3206 H3219 0.962 . S
C3206 H3220 0.960 . S
C3207 C3204 1.511 . S
C3207 H3221 0.961 . S
C3207 H3222 0.961 . S
C3207 H3223 0.961 . S
C3208 C3209 1.370 . S
C3208 C3210 1.363 . S
C3208 H3224 0.931 . S
C3209 C3208 1.370 . S
C3209 C3213 1.408 . S
C3210 C3208 1.363 . S
C3210 C3211 1.370 . S
C3210 C3214 1.524 . S
C3211 C3203 1.503 . S
C3211 C3210 1.370 . S
C3211 C3212 1.403 . S
C3212 C3211 1.403 . S
C3212 C3213 1.404 . S
C3212 C3215 1.539 . S
C3213 C3209 1.408 . S
C3213 C3212 1.404 . S
C3213 H3225 0.930 . S
C3214 C3210 1.524 . S
C3214 H3226 0.956 . S
C3214 H3227 0.961 . S
C3214 H3228 0.961 . S
C3215 C3212 1.539 . S
C3215 H3229 0.958 . S
C3215 H3230 0.961 . S
C3215 H3231 0.960 . S
H3216 C3200 0.931 . S
H3217 C3205 0.929 . S
H3218 C3206 0.960 . S
H3219 C3206 0.962 . S
H3220 C3206 0.960 . S
H3221 C3207 0.961 . S
H3222 C3207 0.961 . S
H3223 C3207 0.961 . S
H3224 C3208 0.931 . S
H3225 C3213 0.930 . S
H3226 C3214 0.956 . S
H3227 C3214 0.961 . S
H3228 C3214 0.961 . S
H3229 C3215 0.958 . S
H3230 C3215 0.961 . S
H3231 C3215 0.960 . S
C3232 C3233 1.391 1_554 S
C3232 C3234 1.394 . S
C3232 H3248 0.931 1_554 S
C3233 C3232 1.391 1_556 S
C3233 C3237 1.376 . S
C3234 C3232 1.394 . S
C3234 C3235 1.369 . S
C3234 C3238 1.531 . S
C3235 C3234 1.369 . S
C3235 C3236 1.410 . S
C3235 C3243 1.503 . S
C3236 C3235 1.410 . S
C3236 C3237 1.392 1_554 S
C3236 C3239 1.511 . S
C3237 C3233 1.376 . S
C3237 C3236 1.392 1_556 S
C3237 H3249 0.929 . S
C3238 C3234 1.531 . S
C3238 H3250 0.960 . S
C3238 H3251 0.962 . S
C3238 H3252 0.960 . S
C3239 C3236 1.511 . S
C3239 H3253 0.947 1_554 S
C3239 H3254 0.961 . S
C3239 H3255 0.961 . S
C3240 C3241 1.370 . S
C3240 C3242 1.363 . S
C3240 H3256 0.931 . S
C3241 C3240 1.370 . S
C3241 C3245 1.408 . S
C3242 C3240 1.363 . S
C3242 C3243 1.370 . S
C3242 C3246 1.524 . S
C3243 C3235 1.503 . S
C3243 C3242 1.370 . S
C3243 C3244 1.403 . S
C3244 C3243 1.403 . S
C3244 C3245 1.404 . S
C3244 C3247 1.539 . S
C3245 C3241 1.408 . S
C3245 C3244 1.404 . S
C3245 H3257 0.930 . S
C3246 C3242 1.524 . S
C3246 H3258 0.956 . S
C3246 H3259 0.961 . S
C3246 H3260 0.961 . S
C3247 C3244 1.539 . S
C3247 H3261 0.958 . S
C3247 H3262 0.961 . S
C3247 H3263 0.960 . S
H3248 C3232 0.931 1_556 S
H3249 C3237 0.929 . S
H3250 C3238 0.960 . S
H3251 C3238 0.962 . S
H3252 C3238 0.960 . S
H3253 C3239 0.947 1_556 S
H3254 C3239 0.961 . S
H3255 C3239 0.961 . S
H3256 C3240 0.931 . S
H3257 C3245 0.930 . S
H3258 C3246 0.956 . S
H3259 C3246 0.961 . S
H3260 C3246 0.961 . S
H3261 C3247 0.958 . S
H3262 C3247 0.961 . S
H3263 C3247 0.960 . S
C3264 C3265 1.391 . S
C3264 C3266 1.394 1_554 S
C3264 H3280 0.931 . S
C3265 C3264 1.391 . S
C3265 C3269 1.376 1_554 S
C3266 C3264 1.394 1_556 S
C3266 C3267 1.369 . S
C3266 C3270 1.531 . S
C3267 C3266 1.369 . S
C3267 C3268 1.410 . S
C3267 C3275 1.503 . S
C3268 C3267 1.410 . S
C3268 C3269 1.392 . S
C3268 C3271 1.511 . S
C3269 C3265 1.376 1_556 S
C3269 C3268 1.392 . S
C3269 H3281 0.929 . S
C3270 C3266 1.531 . S
C3270 H3282 0.960 . S
C3270 H3283 0.962 . S
C3270 H3284 0.960 . S
C3271 C3268 1.511 . S
C3271 H3285 0.961 . S
C3271 H3286 0.961 . S
C3271 H3287 0.961 . S
C3272 C3273 1.370 . S
C3272 C3274 1.363 . S
C3272 H3288 0.931 . S
C3273 C3272 1.370 . S
C3273 C3277 1.408 . S
C3274 C3272 1.363 . S
C3274 C3275 1.370 . S
C3274 C3278 1.524 . S
C3275 C3267 1.503 . S
C3275 C3274 1.370 . S
C3275 C3276 1.403 . S
C3276 C3275 1.403 . S
C3276 C3277 1.404 . S
C3276 C3279 1.539 . S
C3277 C3273 1.408 . S
C3277 C3276 1.404 . S
C3277 H3289 0.930 . S
C3278 C3274 1.524 . S
C3278 H3290 0.956 . S
C3278 H3291 0.961 . S
C3278 H3292 0.961 . S
C3279 C3276 1.539 . S
C3279 H3293 0.958 . S
C3279 H3294 0.961 . S
C3279 H3295 0.960 . S
H3280 C3264 0.931 . S
H3281 C3269 0.929 . S
H3282 C3270 0.960 . S
H3283 C3270 0.962 . S
H3284 C3270 0.960 . S
H3285 C3271 0.961 . S
H3286 C3271 0.961 . S
H3287 C3271 0.961 . S
H3288 C3272 0.931 . S
H3289 C3277 0.930 . S
H3290 C3278 0.956 . S
H3291 C3278 0.961 . S
H3292 C3278 0.961 . S
H3293 C3279 0.958 . S
H3294 C3279 0.961 . S
H3295 C3279 0.960 . S
C3296 C3297 1.391 . S
C3296 C3298 1.394 . S
C3296 H3312 0.931 . S
C3297 C3296 1.391 . S
C3297 C3301 1.376 . S
C3298 C3296 1.394 . S
C3298 C3299 1.369 . S
C3298 C3302 1.531 . S
C3299 C3298 1.369 . S
C3299 C3300 1.410 . S
C3299 C3307 1.503 . S
C3300 C3299 1.410 . S
C3300 C3301 1.392 . S
C3300 C3303 1.511 . S
C3301 C3297 1.376 . S
C3301 C3300 1.392 . S
C3301 H3313 0.929 . S
C3302 C3298 1.531 . S
C3302 H3314 0.960 . S
C3302 H3315 0.962 . S
C3302 H3316 0.960 . S
C3303 C3300 1.511 . S
C3303 H3317 0.961 . S
C3303 H3318 0.961 . S
C3303 H3319 0.961 . S
C3304 C3305 1.370 . S
C3304 C3306 1.363 . S
C3304 H3320 0.931 . S
C3305 C3304 1.370 . S
C3305 C3309 1.408 . S
C3306 C3304 1.363 . S
C3306 C3307 1.370 . S
C3306 C3310 1.524 . S
C3307 C3299 1.503 . S
C3307 C3306 1.370 . S
C3307 C3308 1.403 . S
C3308 C3307 1.403 . S
C3308 C3309 1.404 . S
C3308 C3311 1.539 . S
C3309 C3305 1.408 . S
C3309 C3308 1.404 . S
C3309 H3321 0.930 . S
C3310 C3306 1.524 . S
C3310 H3322 0.956 . S
C3310 H3323 0.961 . S
C3310 H3324 0.961 . S
C3311 C3308 1.539 . S
C3311 H3325 0.958 . S
C3311 H3326 0.961 . S
C3311 H3327 0.960 . S
H3312 C3296 0.931 . S
H3313 C3301 0.929 . S
H3314 C3302 0.960 . S
H3315 C3302 0.962 . S
H3316 C3302 0.960 . S
H3317 C3303 0.961 . S
H3318 C3303 0.961 . S
H3319 C3303 0.961 . S
H3320 C3304 0.931 . S
H3321 C3309 0.930 . S
H3322 C3310 0.956 . S
H3323 C3310 0.961 . S
H3324 C3310 0.961 . S
H3325 C3311 0.958 . S
H3326 C3311 0.961 . S
H3327 C3311 0.960 . S
C3328 C3329 1.391 . S
C3328 C3330 1.394 . S
C3328 H3344 0.931 . S
C3329 C3328 1.391 . S
C3329 C3333 1.376 . S
C3330 C3328 1.394 . S
C3330 C3331 1.369 . S
C3330 C3334 1.531 . S
C3331 C3330 1.369 . S
C3331 C3332 1.410 . S
C3331 C3339 1.503 . S
C3332 C3331 1.410 . S
C3332 C3333 1.392 . S
C3332 C3335 1.511 . S
C3333 C3329 1.376 . S
C3333 C3332 1.392 . S
C3333 H3345 0.929 . S
C3334 C3330 1.531 . S
C3334 H3346 0.960 . S
C3334 H3347 0.962 . S
C3334 H3348 0.960 . S
C3335 C3332 1.511 . S
C3335 H3349 0.961 . S
C3335 H3350 0.961 . S
C3335 H3351 0.961 . S
C3336 C3337 1.370 . S
C3336 C3338 1.363 . S
C3336 H3352 0.931 . S
C3337 C3336 1.370 . S
C3337 C3341 1.408 . S
C3338 C3336 1.363 . S
C3338 C3339 1.370 . S
C3338 C3342 1.524 . S
C3339 C3331 1.503 . S
C3339 C3338 1.370 . S
C3339 C3340 1.403 . S
C3340 C3339 1.403 . S
C3340 C3341 1.404 . S
C3340 C3343 1.539 . S
C3341 C3337 1.408 . S
C3341 C3340 1.404 . S
C3341 H3353 0.930 . S
C3342 C3338 1.524 . S
C3342 H3354 0.956 . S
C3342 H3355 0.961 . S
C3342 H3356 0.961 . S
C3343 C3340 1.539 . S
C3343 H3357 0.958 . S
C3343 H3358 0.961 . S
C3343 H3359 0.960 . S
H3344 C3328 0.931 . S
H3345 C3333 0.929 . S
H3346 C3334 0.960 . S
H3347 C3334 0.962 . S
H3348 C3334 0.960 . S
H3349 C3335 0.961 . S
H3350 C3335 0.961 . S
H3351 C3335 0.961 . S
H3352 C3336 0.931 . S
H3353 C3341 0.930 . S
H3354 C3342 0.956 . S
H3355 C3342 0.961 . S
H3356 C3342 0.961 . S
H3357 C3343 0.958 . S
H3358 C3343 0.961 . S
H3359 C3343 0.960 . S
C3360 C3361 1.391 . S
C3360 C3362 1.394 . S
C3360 H3376 0.931 . S
C3361 C3360 1.391 . S
C3361 C3365 1.376 . S
C3362 C3360 1.394 . S
C3362 C3363 1.369 . S
C3362 C3366 1.531 . S
C3363 C3362 1.369 . S
C3363 C3364 1.410 . S
C3363 C3371 1.503 . S
C3364 C3363 1.410 . S
C3364 C3365 1.392 . S
C3364 C3367 1.511 . S
C3365 C3361 1.376 . S
C3365 C3364 1.392 . S
C3365 H3377 0.929 . S
C3366 C3362 1.531 . S
C3366 H3378 0.960 . S
C3366 H3379 0.962 . S
C3366 H3380 0.960 . S
C3367 C3364 1.511 . S
C3367 H3381 0.961 . S
C3367 H3382 0.961 . S
C3367 H3383 0.961 . S
C3368 C3369 1.370 . S
C3368 C3370 1.363 . S
C3368 H3384 0.931 . S
C3369 C3368 1.370 . S
C3369 C3373 1.408 . S
C3370 C3368 1.363 . S
C3370 C3371 1.370 . S
C3370 C3374 1.524 . S
C3371 C3363 1.503 . S
C3371 C3370 1.370 . S
C3371 C3372 1.403 . S
C3372 C3371 1.403 . S
C3372 C3373 1.404 . S
C3372 C3375 1.539 . S
C3373 C3369 1.408 . S
C3373 C3372 1.404 . S
C3373 H3385 0.930 . S
C3374 C3370 1.524 . S
C3374 H3386 0.956 . S
C3374 H3387 0.961 . S
C3374 H3388 0.961 . S
C3375 C3372 1.539 . S
C3375 H3389 0.958 . S
C3375 H3390 0.961 . S
C3375 H3391 0.960 . S
H3376 C3360 0.931 . S
H3377 C3365 0.929 . S
H3378 C3366 0.960 . S
H3379 C3366 0.962 . S
H3380 C3366 0.960 . S
H3381 C3367 0.961 . S
H3382 C3367 0.961 . S
H3383 C3367 0.961 . S
H3384 C3368 0.931 . S
H3385 C3373 0.930 . S
H3386 C3374 0.956 . S
H3387 C3374 0.961 . S
H3388 C3374 0.961 . S
H3389 C3375 0.958 . S
H3390 C3375 0.961 . S
H3391 C3375 0.960 . S
C3392 C3393 1.391 . S
C3392 C3394 1.394 . S
C3392 H3408 0.931 . S
C3393 C3392 1.391 . S
C3393 C3397 1.376 1_556 S
C3394 C3392 1.394 . S
C3394 C3395 1.369 . S
C3394 C3398 1.531 . S
C3395 C3394 1.369 . S
C3395 C3396 1.399 1_655 S
C3395 C3403 1.503 1_655 S
C3396 C3395 1.399 1_455 S
C3396 C3397 1.370 1_456 S
C3396 C3399 1.544 . S
C3397 C3393 1.376 1_554 S
C3397 C3396 1.370 1_654 S
C3397 H3409 0.929 . S
C3398 C3394 1.531 . S
C3398 H3410 0.960 . S
C3398 H3411 0.962 . S
C3398 H3412 0.960 . S
C3399 C3396 1.544 . S
C3399 H3413 0.961 1_556 S
C3399 H3414 0.961 . S
C3399 H3415 0.961 . S
C3400 C3401 1.370 . S
C3400 C3402 1.363 . S
C3400 H3416 0.931 . S
C3401 C3400 1.370 . S
C3401 C3405 1.408 . S
C3402 C3400 1.363 . S
C3402 C3403 1.370 . S
C3402 C3406 1.524 1_455 S
C3403 C3395 1.503 1_455 S
C3403 C3402 1.370 . S
C3403 C3404 1.403 . S
C3404 C3403 1.403 . S
C3404 C3405 1.404 . S
C3404 C3407 1.539 . S
C3405 C3401 1.408 . S
C3405 C3404 1.404 . S
C3405 H3417 0.930 . S
C3406 C3402 1.524 1_655 S
C3406 H3418 0.956 . S
C3406 H3419 0.961 . S
C3406 H3420 0.961 . S
C3407 C3404 1.539 . S
C3407 H3421 0.958 . S
C3407 H3422 0.961 . S
C3407 H3423 0.960 . S
H3408 C3392 0.931 . S
H3409 C3397 0.929 . S
H3410 C3398 0.960 . S
H3411 C3398 0.962 . S
H3412 C3398 0.960 . S
H3413 C3399 0.961 1_554 S
H3414 C3399 0.961 . S
H3415 C3399 0.961 . S
H3416 C3400 0.931 . S
H3417 C3405 0.930 . S
H3418 C3406 0.956 . S
H3419 C3406 0.961 . S
H3420 C3406 0.961 . S
H3421 C3407 0.958 . S
H3422 C3407 0.961 . S
H3423 C3407 0.960 . S
C3424 C3425 1.391 . S
C3424 C3426 1.394 . S
C3424 H3440 0.931 . S
C3425 C3424 1.391 . S
C3425 C3429 1.376 . S
C3426 C3424 1.394 . S
C3426 C3427 1.369 . S
C3426 C3430 1.531 . S
C3427 C3426 1.369 . S
C3427 C3428 1.410 . S
C3427 C3435 1.503 . S
C3428 C3427 1.410 . S
C3428 C3429 1.392 . S
C3428 C3431 1.511 . S
C3429 C3425 1.376 . S
C3429 C3428 1.392 . S
C3429 H3441 0.929 . S
C3430 C3426 1.531 . S
C3430 H3442 0.960 . S
C3430 H3443 0.962 . S
C3430 H3444 0.960 . S
C3431 C3428 1.511 . S
C3431 H3445 0.961 . S
C3431 H3446 0.961 . S
C3431 H3447 0.961 . S
C3432 C3433 1.370 . S
C3432 C3434 1.363 . S
C3432 H3448 0.931 . S
C3433 C3432 1.370 . S
C3433 C3437 1.408 . S
C3434 C3432 1.363 . S
C3434 C3435 1.370 . S
C3434 C3438 1.524 . S
C3435 C3427 1.503 . S
C3435 C3434 1.370 . S
C3435 C3436 1.403 . S
C3436 C3435 1.403 . S
C3436 C3437 1.404 . S
C3436 C3439 1.539 . S
C3437 C3433 1.408 . S
C3437 C3436 1.404 . S
C3437 H3449 0.930 . S
C3438 C3434 1.524 . S
C3438 H3450 0.956 . S
C3438 H3451 0.961 . S
C3438 H3452 0.961 . S
C3439 C3436 1.539 . S
C3439 H3453 0.958 . S
C3439 H3454 0.961 . S
C3439 H3455 0.960 . S
H3440 C3424 0.931 . S
H3441 C3429 0.929 . S
H3442 C3430 0.960 . S
H3443 C3430 0.962 . S
H3444 C3430 0.960 . S
H3445 C3431 0.961 . S
H3446 C3431 0.961 . S
H3447 C3431 0.961 . S
H3448 C3432 0.931 . S
H3449 C3437 0.930 . S
H3450 C3438 0.956 . S
H3451 C3438 0.961 . S
H3452 C3438 0.961 . S
H3453 C3439 0.958 . S
H3454 C3439 0.961 . S
H3455 C3439 0.960 . S
C3456 C3457 1.391 . S
C3456 C3458 1.394 . S
C3456 H3472 0.931 . S
C3457 C3456 1.391 . S
C3457 C3461 1.376 . S
C3458 C3456 1.394 . S
C3458 C3459 1.369 . S
C3458 C3462 1.531 . S
C3459 C3458 1.369 . S
C3459 C3460 1.410 . S
C3459 C3467 1.503 . S
C3460 C3459 1.410 . S
C3460 C3461 1.392 . S
C3460 C3463 1.511 . S
C3461 C3457 1.376 . S
C3461 C3460 1.392 . S
C3461 H3473 0.929 . S
C3462 C3458 1.531 . S
C3462 H3474 0.960 . S
C3462 H3475 0.962 . S
C3462 H3476 0.960 . S
C3463 C3460 1.511 . S
C3463 H3477 0.961 . S
C3463 H3478 0.961 . S
C3463 H3479 0.961 . S
C3464 C3465 1.370 . S
C3464 C3466 1.363 . S
C3464 H3480 0.931 . S
C3465 C3464 1.370 . S
C3465 C3469 1.408 . S
C3466 C3464 1.363 . S
C3466 C3467 1.370 . S
C3466 C3470 1.524 . S
C3467 C3459 1.503 . S
C3467 C3466 1.370 . S
C3467 C3468 1.403 . S
C3468 C3467 1.403 . S
C3468 C3469 1.404 . S
C3468 C3471 1.539 . S
C3469 C3465 1.408 . S
C3469 C3468 1.404 . S
C3469 H3481 0.930 . S
C3470 C3466 1.524 . S
C3470 H3482 0.956 . S
C3470 H3483 0.961 . S
C3470 H3484 0.961 . S
C3471 C3468 1.539 . S
C3471 H3485 0.958 . S
C3471 H3486 0.961 . S
C3471 H3487 0.960 . S
H3472 C3456 0.931 . S
H3473 C3461 0.929 . S
H3474 C3462 0.960 . S
H3475 C3462 0.962 . S
H3476 C3462 0.960 . S
H3477 C3463 0.961 . S
H3478 C3463 0.961 . S
H3479 C3463 0.961 . S
H3480 C3464 0.931 . S
H3481 C3469 0.930 . S
H3482 C3470 0.956 . S
H3483 C3470 0.961 . S
H3484 C3470 0.961 . S
H3485 C3471 0.958 . S
H3486 C3471 0.961 . S
H3487 C3471 0.960 . S
C3488 C3489 1.391 . S
C3488 C3490 1.394 . S
C3488 H3504 0.931 . S
C3489 C3488 1.391 . S
C3489 C3493 1.376 . S
C3490 C3488 1.394 . S
C3490 C3491 1.369 . S
C3490 C3494 1.531 . S
C3491 C3490 1.369 . S
C3491 C3492 1.410 . S
C3491 C3499 1.503 . S
C3492 C3491 1.410 . S
C3492 C3493 1.392 . S
C3492 C3495 1.511 . S
C3493 C3489 1.376 . S
C3493 C3492 1.392 . S
C3493 H3505 0.929 . S
C3494 C3490 1.531 . S
C3494 H3506 0.960 . S
C3494 H3507 0.962 . S
C3494 H3508 0.960 . S
C3495 C3492 1.511 . S
C3495 H3509 0.961 . S
C3495 H3510 0.961 . S
C3495 H3511 0.961 . S
C3496 C3497 1.370 . S
C3496 C3498 1.363 . S
C3496 H3512 0.931 . S
C3497 C3496 1.370 . S
C3497 C3501 1.408 . S
C3498 C3496 1.363 . S
C3498 C3499 1.370 . S
C3498 C3502 1.524 . S
C3499 C3491 1.503 . S
C3499 C3498 1.370 . S
C3499 C3500 1.403 . S
C3500 C3499 1.403 . S
C3500 C3501 1.404 . S
C3500 C3503 1.539 . S
C3501 C3497 1.408 . S
C3501 C3500 1.404 . S
C3501 H3513 0.930 . S
C3502 C3498 1.524 . S
C3502 H3514 0.956 . S
C3502 H3515 0.961 . S
C3502 H3516 0.961 . S
C3503 C3500 1.539 . S
C3503 H3517 0.958 . S
C3503 H3518 0.961 . S
C3503 H3519 0.960 . S
H3504 C3488 0.931 . S
H3505 C3493 0.929 . S
H3506 C3494 0.960 . S
H3507 C3494 0.962 . S
H3508 C3494 0.960 . S
H3509 C3495 0.961 . S
H3510 C3495 0.961 . S
H3511 C3495 0.961 . S
H3512 C3496 0.931 . S
H3513 C3501 0.930 . S
H3514 C3502 0.956 . S
H3515 C3502 0.961 . S
H3516 C3502 0.961 . S
H3517 C3503 0.958 . S
H3518 C3503 0.961 . S
H3519 C3503 0.960 . S
C3520 C3521 1.391 1_655 S
C3520 C3522 1.394 . S
C3520 H3536 0.931 . S
C3521 C3520 1.391 1_455 S
C3521 C3525 1.376 . S
C3522 C3520 1.394 . S
C3522 C3523 1.369 . S
C3522 C3526 1.531 . S
C3523 C3522 1.369 . S
C3523 C3524 1.410 1_655 S
C3523 C3531 1.503 . S
C3524 C3523 1.410 1_455 S
C3524 C3525 1.392 . S
C3524 C3527 1.511 . S
C3525 C3521 1.376 . S
C3525 C3524 1.392 . S
C3525 H3537 0.929 . S
C3526 C3522 1.531 . S
C3526 H3538 0.960 . S
C3526 H3539 0.962 . S
C3526 H3540 0.960 . S
C3527 C3524 1.511 . S
C3527 H3541 0.961 . S
C3527 H3542 0.961 . S
C3527 H3543 0.961 . S
C3528 C3529 1.370 . S
C3528 C3530 1.363 . S
C3528 H3544 0.931 . S
C3529 C3528 1.370 . S
C3529 C3533 1.408 . S
C3530 C3528 1.363 . S
C3530 C3531 1.370 . S
C3530 C3534 1.524 . S
C3531 C3523 1.503 . S
C3531 C3530 1.370 . S
C3531 C3532 1.403 . S
C3532 C3531 1.403 . S
C3532 C3533 1.404 . S
C3532 C3535 1.539 . S
C3533 C3529 1.408 . S
C3533 C3532 1.404 . S
C3533 H3545 0.930 . S
C3534 C3530 1.524 . S
C3534 H3546 0.956 . S
C3534 H3547 0.961 . S
C3534 H3548 0.961 . S
C3535 C3532 1.539 . S
C3535 H3549 0.958 . S
C3535 H3550 0.961 . S
C3535 H3551 0.960 1_655 S
H3536 C3520 0.931 . S
H3537 C3525 0.929 . S
H3538 C3526 0.960 . S
H3539 C3526 0.962 . S
H3540 C3526 0.960 . S
H3541 C3527 0.961 . S
H3542 C3527 0.961 . S
H3543 C3527 0.961 . S
H3544 C3528 0.931 . S
H3545 C3533 0.930 . S
H3546 C3534 0.956 . S
H3547 C3534 0.961 . S
H3548 C3534 0.961 . S
H3549 C3535 0.958 . S
H3550 C3535 0.961 . S
H3551 C3535 0.960 1_455 S
C3552 C3553 1.391 . S
C3552 C3554 1.394 . S
C3552 H3568 0.931 . S
C3553 C3552 1.391 . S
C3553 C3557 1.376 . S
C3554 C3552 1.394 . S
C3554 C3555 1.369 . S
C3554 C3558 1.531 . S
C3555 C3554 1.369 . S
C3555 C3556 1.410 . S
C3555 C3563 1.503 . S
C3556 C3555 1.410 . S
C3556 C3557 1.392 . S
C3556 C3559 1.511 . S
C3557 C3553 1.376 . S
C3557 C3556 1.392 . S
C3557 H3569 0.929 . S
C3558 C3554 1.531 . S
C3558 H3570 0.960 . S
C3558 H3571 0.962 . S
C3558 H3572 0.960 . S
C3559 C3556 1.511 . S
C3559 H3573 0.961 . S
C3559 H3574 0.961 . S
C3559 H3575 0.961 . S
C3560 C3561 1.370 . S
C3560 C3562 1.363 . S
C3560 H3576 0.931 . S
C3561 C3560 1.370 . S
C3561 C3565 1.408 . S
C3562 C3560 1.363 . S
C3562 C3563 1.370 . S
C3562 C3566 1.524 . S
C3563 C3555 1.503 . S
C3563 C3562 1.370 . S
C3563 C3564 1.403 . S
C3564 C3563 1.403 . S
C3564 C3565 1.404 . S
C3564 C3567 1.539 . S
C3565 C3561 1.408 . S
C3565 C3564 1.404 . S
C3565 H3577 0.930 . S
C3566 C3562 1.524 . S
C3566 H3578 0.956 . S
C3566 H3579 0.961 . S
C3566 H3580 0.961 . S
C3567 C3564 1.539 . S
C3567 H3581 0.958 . S
C3567 H3582 0.961 . S
C3567 H3583 0.960 . S
H3568 C3552 0.931 . S
H3569 C3557 0.929 . S
H3570 C3558 0.960 . S
H3571 C3558 0.962 . S
H3572 C3558 0.960 . S
H3573 C3559 0.961 . S
H3574 C3559 0.961 . S
H3575 C3559 0.961 . S
H3576 C3560 0.931 . S
H3577 C3565 0.930 . S
H3578 C3566 0.956 . S
H3579 C3566 0.961 . S
H3580 C3566 0.961 . S
H3581 C3567 0.958 . S
H3582 C3567 0.961 . S
H3583 C3567 0.960 . S
C3584 C3585 1.391 . S
C3584 C3586 1.394 . S
C3584 H3600 0.931 . S
C3585 C3584 1.391 . S
C3585 C3589 1.376 . S
C3586 C3584 1.394 . S
C3586 C3587 1.369 . S
C3586 C3590 1.531 . S
C3587 C3586 1.369 . S
C3587 C3588 1.410 . S
C3587 C3595 1.503 . S
C3588 C3587 1.410 . S
C3588 C3589 1.392 . S
C3588 C3591 1.511 . S
C3589 C3585 1.376 . S
C3589 C3588 1.392 . S
C3589 H3601 0.929 . S
C3590 C3586 1.531 . S
C3590 H3602 0.960 . S
C3590 H3603 0.962 . S
C3590 H3604 0.960 . S
C3591 C3588 1.511 . S
C3591 H3605 0.961 . S
C3591 H3606 0.961 . S
C3591 H3607 0.961 . S
C3592 C3593 1.370 . S
C3592 C3594 1.363 . S
C3592 H3608 0.931 . S
C3593 C3592 1.370 . S
C3593 C3597 1.408 . S
C3594 C3592 1.363 . S
C3594 C3595 1.370 . S
C3594 C3598 1.524 . S
C3595 C3587 1.503 . S
C3595 C3594 1.370 . S
C3595 C3596 1.403 . S
C3596 C3595 1.403 . S
C3596 C3597 1.404 . S
C3596 C3599 1.539 . S
C3597 C3593 1.408 . S
C3597 C3596 1.404 . S
C3597 H3609 0.930 . S
C3598 C3594 1.524 . S
C3598 H3610 0.956 . S
C3598 H3611 0.961 . S
C3598 H3612 0.961 . S
C3599 C3596 1.539 . S
C3599 H3613 0.958 . S
C3599 H3614 0.961 . S
C3599 H3615 0.960 . S
H3600 C3584 0.931 . S
H3601 C3589 0.929 . S
H3602 C3590 0.960 . S
H3603 C3590 0.962 . S
H3604 C3590 0.960 . S
H3605 C3591 0.961 . S
H3606 C3591 0.961 . S
H3607 C3591 0.961 . S
H3608 C3592 0.931 . S
H3609 C3597 0.930 . S
H3610 C3598 0.956 . S
H3611 C3598 0.961 . S
H3612 C3598 0.961 . S
H3613 C3599 0.958 . S
H3614 C3599 0.961 . S
H3615 C3599 0.960 . S
C3616 C3617 1.391 . S
C3616 C3618 1.394 . S
C3616 H3632 0.931 . S
C3617 C3616 1.391 . S
C3617 C3621 1.376 . S
C3618 C3616 1.394 . S
C3618 C3619 1.369 . S
C3618 C3622 1.531 . S
C3619 C3618 1.369 . S
C3619 C3620 1.410 . S
C3619 C3627 1.503 . S
C3620 C3619 1.410 . S
C3620 C3621 1.392 . S
C3620 C3623 1.511 . S
C3621 C3617 1.376 . S
C3621 C3620 1.392 . S
C3621 H3633 0.929 . S
C3622 C3618 1.531 . S
C3622 H3634 0.960 . S
C3622 H3635 0.962 . S
C3622 H3636 0.960 . S
C3623 C3620 1.511 . S
C3623 H3637 0.961 . S
C3623 H3638 0.961 . S
C3623 H3639 0.961 . S
C3624 C3625 1.370 . S
C3624 C3626 1.363 . S
C3624 H3640 0.931 . S
C3625 C3624 1.370 . S
C3625 C3629 1.408 . S
C3626 C3624 1.363 . S
C3626 C3627 1.370 . S
C3626 C3630 1.524 . S
C3627 C3619 1.503 . S
C3627 C3626 1.370 . S
C3627 C3628 1.403 . S
C3628 C3627 1.403 . S
C3628 C3629 1.404 . S
C3628 C3631 1.539 . S
C3629 C3625 1.408 . S
C3629 C3628 1.404 . S
C3629 H3641 0.930 . S
C3630 C3626 1.524 . S
C3630 H3642 0.956 . S
C3630 H3643 0.961 . S
C3630 H3644 0.961 . S
C3631 C3628 1.539 . S
C3631 H3645 0.958 . S
C3631 H3646 0.961 . S
C3631 H3647 0.960 . S
H3632 C3616 0.931 . S
H3633 C3621 0.929 . S
H3634 C3622 0.960 . S
H3635 C3622 0.962 . S
H3636 C3622 0.960 . S
H3637 C3623 0.961 . S
H3638 C3623 0.961 . S
H3639 C3623 0.961 . S
H3640 C3624 0.931 . S
H3641 C3629 0.930 . S
H3642 C3630 0.956 . S
H3643 C3630 0.961 . S
H3644 C3630 0.961 . S
H3645 C3631 0.958 . S
H3646 C3631 0.961 . S
H3647 C3631 0.960 . S
C3648 C3649 1.391 . S
C3648 C3650 1.394 . S
C3648 H3664 0.931 . S
C3649 C3648 1.391 . S
C3649 C3653 1.376 . S
C3650 C3648 1.394 . S
C3650 C3651 1.369 . S
C3650 C3654 1.531 . S
C3651 C3650 1.369 . S
C3651 C3652 1.410 1_455 S
C3651 C3659 1.503 1_455 S
C3652 C3651 1.410 1_655 S
C3652 C3653 1.392 1_655 S
C3652 C3655 1.511 . S
C3653 C3649 1.376 . S
C3653 C3652 1.392 1_455 S
C3653 H3665 0.929 . S
C3654 C3650 1.531 . S
C3654 H3666 0.960 . S
C3654 H3667 0.962 . S
C3654 H3668 0.960 . S
C3655 C3652 1.511 . S
C3655 H3669 0.961 . S
C3655 H3670 0.961 . S
C3655 H3671 0.961 . S
C3656 C3657 1.370 . S
C3656 C3658 1.363 . S
C3656 H3672 0.931 . S
C3657 C3656 1.370 . S
C3657 C3661 1.408 . S
C3658 C3656 1.363 . S
C3658 C3659 1.370 . S
C3658 C3662 1.524 1_655 S
C3659 C3651 1.503 1_655 S
C3659 C3658 1.370 . S
C3659 C3660 1.403 . S
C3660 C3659 1.403 . S
C3660 C3661 1.404 . S
C3660 C3663 1.539 . S
C3661 C3657 1.408 . S
C3661 C3660 1.404 . S
C3661 H3673 0.930 . S
C3662 C3658 1.524 1_455 S
C3662 H3674 0.956 . S
C3662 H3675 0.961 . S
C3662 H3676 0.961 . S
C3663 C3660 1.539 . S
C3663 H3677 0.958 . S
C3663 H3678 0.961 . S
C3663 H3679 0.960 . S
H3664 C3648 0.931 . S
H3665 C3653 0.929 . S
H3666 C3654 0.960 . S
H3667 C3654 0.962 . S
H3668 C3654 0.960 . S
H3669 C3655 0.961 . S
H3670 C3655 0.961 . S
H3671 C3655 0.961 . S
H3672 C3656 0.931 . S
H3673 C3661 0.930 . S
H3674 C3662 0.956 . S
H3675 C3662 0.961 . S
H3676 C3662 0.961 . S
H3677 C3663 0.958 . S
H3678 C3663 0.961 . S
H3679 C3663 0.960 . S
C3680 C3681 1.391 . S
C3680 C3682 1.394 . S
C3680 H3696 0.931 . S
C3681 C3680 1.391 . S
C3681 C3685 1.376 . S
C3682 C3680 1.394 . S
C3682 C3683 1.369 . S
C3682 C3686 1.531 . S
C3683 C3682 1.369 . S
C3683 C3684 1.410 . S
C3683 C3691 1.503 . S
C3684 C3683 1.410 . S
C3684 C3685 1.392 . S
C3684 C3687 1.511 . S
C3685 C3681 1.376 . S
C3685 C3684 1.392 . S
C3685 H3697 0.929 . S
C3686 C3682 1.531 . S
C3686 H3698 0.960 . S
C3686 H3699 0.962 . S
C3686 H3700 0.960 . S
C3687 C3684 1.511 . S
C3687 H3701 0.961 . S
C3687 H3702 0.961 . S
C3687 H3703 0.961 . S
C3688 C3689 1.370 . S
C3688 C3690 1.363 . S
C3688 H3704 0.931 . S
C3689 C3688 1.370 . S
C3689 C3693 1.408 . S
C3690 C3688 1.363 . S
C3690 C3691 1.370 . S
C3690 C3694 1.524 . S
C3691 C3683 1.503 . S
C3691 C3690 1.370 . S
C3691 C3692 1.403 . S
C3692 C3691 1.403 . S
C3692 C3693 1.404 . S
C3692 C3695 1.539 . S
C3693 C3689 1.408 . S
C3693 C3692 1.404 . S
C3693 H3705 0.930 . S
C3694 C3690 1.524 . S
C3694 H3706 0.956 . S
C3694 H3707 0.961 . S
C3694 H3708 0.961 . S
C3695 C3692 1.539 . S
C3695 H3709 0.958 . S
C3695 H3710 0.961 . S
C3695 H3711 0.960 . S
H3696 C3680 0.931 . S
H3697 C3685 0.929 . S
H3698 C3686 0.960 . S
H3699 C3686 0.962 . S
H3700 C3686 0.960 . S
H3701 C3687 0.961 . S
H3702 C3687 0.961 . S
H3703 C3687 0.961 . S
H3704 C3688 0.931 . S
H3705 C3693 0.930 . S
H3706 C3694 0.956 . S
H3707 C3694 0.961 . S
H3708 C3694 0.961 . S
H3709 C3695 0.958 . S
H3710 C3695 0.961 . S
H3711 C3695 0.960 . S
C3712 C3713 1.391 . S
C3712 C3714 1.394 . S
C3712 H3728 0.931 . S
C3713 C3712 1.391 . S
C3713 C3717 1.376 . S
C3714 C3712 1.394 . S
C3714 C3715 1.369 . S
C3714 C3718 1.531 . S
C3715 C3714 1.369 . S
C3715 C3716 1.410 . S
C3715 C3723 1.503 . S
C3716 C3715 1.410 . S
C3716 C3717 1.392 . S
C3716 C3719 1.511 . S
C3717 C3713 1.376 . S
C3717 C3716 1.392 . S
C3717 H3729 0.929 . S
C3718 C3714 1.531 . S
C3718 H3730 0.960 . S
C3718 H3731 0.962 . S
C3718 H3732 0.960 . S
C3719 C3716 1.511 . S
C3719 H3733 0.961 . S
C3719 H3734 0.961 . S
C3719 H3735 0.961 . S
C3720 C3721 1.370 . S
C3720 C3722 1.363 1_554 S
C3720 H3736 0.931 . S
C3721 C3720 1.370 . S
C3721 C3725 1.402 1_554 S
C3722 C3720 1.363 1_556 S
C3722 C3723 1.370 . S
C3722 C3726 1.524 . S
C3723 C3715 1.503 . S
C3723 C3722 1.370 . S
C3723 C3724 1.403 . S
C3724 C3723 1.403 . S
C3724 C3725 1.413 . S
C3724 C3727 1.539 . S
C3725 C3721 1.402 1_556 S
C3725 C3724 1.413 . S
C3725 H3737 0.927 1_556 S
C3726 C3722 1.524 . S
C3726 H3738 0.956 . S
C3726 H3739 0.961 . S
C3726 H3740 0.961 1_556 S
C3727 C3724 1.539 . S
C3727 H3741 0.958 . S
C3727 H3742 0.961 . S
C3727 H3743 0.960 . S
H3728 C3712 0.931 . S
H3729 C3717 0.929 . S
H3730 C3718 0.960 . S
H3731 C3718 0.962 . S
H3732 C3718 0.960 . S
H3733 C3719 0.961 . S
H3734 C3719 0.961 . S
H3735 C3719 0.961 . S
H3736 C3720 0.931 . S
H3737 C3725 0.927 1_554 S
H3738 C3726 0.956 . S
H3739 C3726 0.961 . S
H3740 C3726 0.961 1_554 S
H3741 C3727 0.958 . S
H3742 C3727 0.961 . S
H3743 C3727 0.960 . S
C3744 C3745 1.391 . S
C3744 C3746 1.394 . S
C3744 H3760 0.931 . S
C3745 C3744 1.391 . S
C3745 C3749 1.376 . S
C3746 C3744 1.394 . S
C3746 C3747 1.369 . S
C3746 C3750 1.531 . S
C3747 C3746 1.369 . S
C3747 C3748 1.410 . S
C3747 C3755 1.503 . S
C3748 C3747 1.410 . S
C3748 C3749 1.392 . S
C3748 C3751 1.511 . S
C3749 C3745 1.376 . S
C3749 C3748 1.392 . S
C3749 H3761 0.929 . S
C3750 C3746 1.531 . S
C3750 H3762 0.960 . S
C3750 H3763 0.962 . S
C3750 H3764 0.960 . S
C3751 C3748 1.511 . S
C3751 H3765 0.961 . S
C3751 H3766 0.961 . S
C3751 H3767 0.961 . S
C3752 C3753 1.370 . S
C3752 C3754 1.363 . S
C3752 H3768 0.931 . S
C3753 C3752 1.370 . S
C3753 C3757 1.408 . S
C3754 C3752 1.363 . S
C3754 C3755 1.370 . S
C3754 C3758 1.524 . S
C3755 C3747 1.503 . S
C3755 C3754 1.370 . S
C3755 C3756 1.403 . S
C3756 C3755 1.403 . S
C3756 C3757 1.404 . S
C3756 C3759 1.539 . S
C3757 C3753 1.408 . S
C3757 C3756 1.404 . S
C3757 H3769 0.930 . S
C3758 C3754 1.524 . S
C3758 H3770 0.956 . S
C3758 H3771 0.961 . S
C3758 H3772 0.961 . S
C3759 C3756 1.539 . S
C3759 H3773 0.958 . S
C3759 H3774 0.961 . S
C3759 H3775 0.960 . S
H3760 C3744 0.931 . S
H3761 C3749 0.929 . S
H3762 C3750 0.960 . S
H3763 C3750 0.962 . S
H3764 C3750 0.960 . S
H3765 C3751 0.961 . S
H3766 C3751 0.961 . S
H3767 C3751 0.961 . S
H3768 C3752 0.931 . S
H3769 C3757 0.930 . S
H3770 C3758 0.956 . S
H3771 C3758 0.961 . S
H3772 C3758 0.961 . S
H3773 C3759 0.958 . S
H3774 C3759 0.961 . S
H3775 C3759 0.960 . S
C3776 C3777 1.391 . S
C3776 C3778 1.394 . S
C3776 H3792 0.931 . S
C3777 C3776 1.391 . S
C3777 C3781 1.376 . S
C3778 C3776 1.394 . S
C3778 C3779 1.369 . S
C3778 C3782 1.531 . S
C3779 C3778 1.369 . S
C3779 C3780 1.410 . S
C3779 C3787 1.503 . S
C3780 C3779 1.410 . S
C3780 C3781 1.392 . S
C3780 C3783 1.511 1_455 S
C3781 C3777 1.376 . S
C3781 C3780 1.392 . S
C3781 H3793 0.929 . S
C3782 C3778 1.531 . S
C3782 H3794 0.960 . S
C3782 H3795 0.962 . S
C3782 H3796 0.960 . S
C3783 C3780 1.511 1_655 S
C3783 H3797 0.961 . S
C3783 H3798 0.961 . S
C3783 H3799 0.961 . S
C3784 C3785 1.370 . S
C3784 C3786 1.367 . S
C3784 H3800 0.931 . S
C3785 C3784 1.370 . S
C3785 C3789 1.408 . S
C3786 C3784 1.367 . S
C3786 C3787 1.368 1_655 S
C3786 C3790 1.523 1_655 S
C3787 C3779 1.503 . S
C3787 C3786 1.368 1_455 S
C3787 C3788 1.403 . S
C3788 C3787 1.403 . S
C3788 C3789 1.404 1_455 S
C3788 C3791 1.539 . S
C3789 C3785 1.408 . S
C3789 C3788 1.404 1_655 S
C3789 H3801 0.930 . S
C3790 C3786 1.523 1_455 S
C3790 H3802 0.956 . S
C3790 H3803 0.961 1_455 S
C3790 H3804 0.961 1_455 S
C3791 C3788 1.539 . S
C3791 H3805 0.958 . S
C3791 H3806 0.961 1_455 S
C3791 H3807 0.960 . S
H3792 C3776 0.931 . S
H3793 C3781 0.929 . S
H3794 C3782 0.960 . S
H3795 C3782 0.962 . S
H3796 C3782 0.960 . S
H3797 C3783 0.961 . S
H3798 C3783 0.961 . S
H3799 C3783 0.961 . S
H3800 C3784 0.931 . S
H3801 C3789 0.930 . S
H3802 C3790 0.956 . S
H3803 C3790 0.961 1_655 S
H3804 C3790 0.961 1_655 S
H3805 C3791 0.958 . S
H3806 C3791 0.961 1_655 S
H3807 C3791 0.960 . S
C3808 C3809 1.391 . S
C3808 C3810 1.394 . S
C3808 H3824 0.931 . S
C3809 C3808 1.391 . S
C3809 C3813 1.376 . S
C3810 C3808 1.394 . S
C3810 C3811 1.369 . S
C3810 C3814 1.531 . S
C3811 C3810 1.369 . S
C3811 C3812 1.410 . S
C3811 C3819 1.503 . S
C3812 C3811 1.410 . S
C3812 C3813 1.392 . S
C3812 C3815 1.511 . S
C3813 C3809 1.376 . S
C3813 C3812 1.392 . S
C3813 H3825 0.929 . S
C3814 C3810 1.531 . S
C3814 H3826 0.960 . S
C3814 H3827 0.962 . S
C3814 H3828 0.960 . S
C3815 C3812 1.511 . S
C3815 H3829 0.961 . S
C3815 H3830 0.961 . S
C3815 H3831 0.961 . S
C3816 C3817 1.370 . S
C3816 C3818 1.363 . S
C3816 H3832 0.931 . S
C3817 C3816 1.370 . S
C3817 C3821 1.408 . S
C3818 C3816 1.363 . S
C3818 C3819 1.370 . S
C3818 C3822 1.524 . S
C3819 C3811 1.503 . S
C3819 C3818 1.370 . S
C3819 C3820 1.403 . S
C3820 C3819 1.403 . S
C3820 C3821 1.404 . S
C3820 C3823 1.539 . S
C3821 C3817 1.408 . S
C3821 C3820 1.404 . S
C3821 H3833 0.930 . S
C3822 C3818 1.524 . S
C3822 H3834 0.956 . S
C3822 H3835 0.961 . S
C3822 H3836 0.961 . S
C3823 C3820 1.539 . S
C3823 H3837 0.958 . S
C3823 H3838 0.961 . S
C3823 H3839 0.960 . S
H3824 C3808 0.931 . S
H3825 C3813 0.929 . S
H3826 C3814 0.960 . S
H3827 C3814 0.962 . S
H3828 C3814 0.960 . S
H3829 C3815 0.961 . S
H3830 C3815 0.961 . S
H3831 C3815 0.961 . S
H3832 C3816 0.931 . S
H3833 C3821 0.930 . S
H3834 C3822 0.956 . S
H3835 C3822 0.961 . S
H3836 C3822 0.961 . S
H3837 C3823 0.958 . S
H3838 C3823 0.961 . S
H3839 C3823 0.960 . S
C3840 C3841 1.391 . S
C3840 C3842 1.394 . S
C3840 H3856 0.931 . S
C3841 C3840 1.391 . S
C3841 C3845 1.376 . S
C3842 C3840 1.394 . S
C3842 C3843 1.369 . S
C3842 C3846 1.531 . S
C3843 C3842 1.369 . S
C3843 C3844 1.410 . S
C3843 C3851 1.503 . S
C3844 C3843 1.410 . S
C3844 C3845 1.392 . S
C3844 C3847 1.511 . S
C3845 C3841 1.376 . S
C3845 C3844 1.392 . S
C3845 H3857 0.929 . S
C3846 C3842 1.531 . S
C3846 H3858 0.960 . S
C3846 H3859 0.962 . S
C3846 H3860 0.960 . S
C3847 C3844 1.511 . S
C3847 H3861 0.961 . S
C3847 H3862 0.961 . S
C3847 H3863 0.961 . S
C3848 C3849 1.370 . S
C3848 C3850 1.363 . S
C3848 H3864 0.931 . S
C3849 C3848 1.370 . S
C3849 C3853 1.408 . S
C3850 C3848 1.363 . S
C3850 C3851 1.370 . S
C3850 C3854 1.524 . S
C3851 C3843 1.503 . S
C3851 C3850 1.370 . S
C3851 C3852 1.403 . S
C3852 C3851 1.403 . S
C3852 C3853 1.404 . S
C3852 C3855 1.539 . S
C3853 C3849 1.408 . S
C3853 C3852 1.404 . S
C3853 H3865 0.930 . S
C3854 C3850 1.524 . S
C3854 H3866 0.956 . S
C3854 H3867 0.961 . S
C3854 H3868 0.961 . S
C3855 C3852 1.539 . S
C3855 H3869 0.958 . S
C3855 H3870 0.961 . S
C3855 H3871 0.960 . S
H3856 C3840 0.931 . S
H3857 C3845 0.929 . S
H3858 C3846 0.960 . S
H3859 C3846 0.962 . S
H3860 C3846 0.960 . S
H3861 C3847 0.961 . S
H3862 C3847 0.961 . S
H3863 C3847 0.961 . S
H3864 C3848 0.931 . S
H3865 C3853 0.930 . S
H3866 C3854 0.956 . S
H3867 C3854 0.961 . S
H3868 C3854 0.961 . S
H3869 C3855 0.958 . S
H3870 C3855 0.961 . S
H3871 C3855 0.960 . S
C3872 C3873 1.391 . S
C3872 C3874 1.394 . S
C3872 H3888 0.931 . S
C3873 C3872 1.391 . S
C3873 C3877 1.376 . S
C3874 C3872 1.394 . S
C3874 C3875 1.369 . S
C3874 C3878 1.531 . S
C3875 C3874 1.369 . S
C3875 C3876 1.410 . S
C3875 C3883 1.503 . S
C3876 C3875 1.410 . S
C3876 C3877 1.392 . S
C3876 C3879 1.511 . S
C3877 C3873 1.376 . S
C3877 C3876 1.392 . S
C3877 H3889 0.929 . S
C3878 C3874 1.531 . S
C3878 H3890 0.960 . S
C3878 H3891 0.962 . S
C3878 H3892 0.960 . S
C3879 C3876 1.511 . S
C3879 H3893 0.961 . S
C3879 H3894 0.961 . S
C3879 H3895 0.961 . S
C3880 C3881 1.370 . S
C3880 C3882 1.363 . S
C3880 H3896 0.931 . S
C3881 C3880 1.370 . S
C3881 C3885 1.408 . S
C3882 C3880 1.363 . S
C3882 C3883 1.370 . S
C3882 C3886 1.524 . S
C3883 C3875 1.503 . S
C3883 C3882 1.370 . S
C3883 C3884 1.403 . S
C3884 C3883 1.403 . S
C3884 C3885 1.404 . S
C3884 C3887 1.539 . S
C3885 C3881 1.408 . S
C3885 C3884 1.404 . S
C3885 H3897 0.930 . S
C3886 C3882 1.524 . S
C3886 H3898 0.956 . S
C3886 H3899 0.961 . S
C3886 H3900 0.961 . S
C3887 C3884 1.539 . S
C3887 H3901 0.958 . S
C3887 H3902 0.961 . S
C3887 H3903 0.960 . S
H3888 C3872 0.931 . S
H3889 C3877 0.929 . S
H3890 C3878 0.960 . S
H3891 C3878 0.962 . S
H3892 C3878 0.960 . S
H3893 C3879 0.961 . S
H3894 C3879 0.961 . S
H3895 C3879 0.961 . S
H3896 C3880 0.931 . S
H3897 C3885 0.930 . S
H3898 C3886 0.956 . S
H3899 C3886 0.961 . S
H3900 C3886 0.961 . S
H3901 C3887 0.958 . S
H3902 C3887 0.961 . S
H3903 C3887 0.960 . S
C3904 C3905 1.391 . S
C3904 C3906 1.394 . S
C3904 H3920 0.931 . S
C3905 C3904 1.391 . S
C3905 C3909 1.376 . S
C3906 C3904 1.394 . S
C3906 C3907 1.369 . S
C3906 C3910 1.531 . S
C3907 C3906 1.369 . S
C3907 C3908 1.410 . S
C3907 C3915 1.503 . S
C3908 C3907 1.410 . S
C3908 C3909 1.392 . S
C3908 C3911 1.511 . S
C3909 C3905 1.376 . S
C3909 C3908 1.392 . S
C3909 H3921 0.929 . S
C3910 C3906 1.531 . S
C3910 H3922 0.960 . S
C3910 H3923 0.962 . S
C3910 H3924 0.960 . S
C3911 C3908 1.511 . S
C3911 H3925 0.961 . S
C3911 H3926 0.961 . S
C3911 H3927 0.961 . S
C3912 C3913 1.370 . S
C3912 C3914 1.363 . S
C3912 H3928 0.931 . S
C3913 C3912 1.370 . S
C3913 C3917 1.408 . S
C3914 C3912 1.363 . S
C3914 C3915 1.370 . S
C3914 C3918 1.524 . S
C3915 C3907 1.503 . S
C3915 C3914 1.370 . S
C3915 C3916 1.403 . S
C3916 C3915 1.403 . S
C3916 C3917 1.404 . S
C3916 C3919 1.539 . S
C3917 C3913 1.408 . S
C3917 C3916 1.404 . S
C3917 H3929 0.930 . S
C3918 C3914 1.524 . S
C3918 H3930 0.956 . S
C3918 H3931 0.961 . S
C3918 H3932 0.961 . S
C3919 C3916 1.539 . S
C3919 H3933 0.958 . S
C3919 H3934 0.961 . S
C3919 H3935 0.960 . S
H3920 C3904 0.931 . S
H3921 C3909 0.929 . S
H3922 C3910 0.960 . S
H3923 C3910 0.962 . S
H3924 C3910 0.960 . S
H3925 C3911 0.961 . S
H3926 C3911 0.961 . S
H3927 C3911 0.961 . S
H3928 C3912 0.931 . S
H3929 C3917 0.930 . S
H3930 C3918 0.956 . S
H3931 C3918 0.961 . S
H3932 C3918 0.961 . S
H3933 C3919 0.958 . S
H3934 C3919 0.961 . S
H3935 C3919 0.960 . S
C3936 C3937 1.391 . S
C3936 C3938 1.394 . S
C3936 H3952 0.931 . S
C3937 C3936 1.391 . S
C3937 C3941 1.376 . S
C3938 C3936 1.394 . S
C3938 C3939 1.369 . S
C3938 C3942 1.531 . S
C3939 C3938 1.369 . S
C3939 C3940 1.410 . S
C3939 C3947 1.503 . S
C3940 C3939 1.410 . S
C3940 C3941 1.392 . S
C3940 C3943 1.511 . S
C3941 C3937 1.376 . S
C3941 C3940 1.392 . S
C3941 H3953 0.929 . S
C3942 C3938 1.531 . S
C3942 H3954 0.960 . S
C3942 H3955 0.962 . S
C3942 H3956 0.960 . S
C3943 C3940 1.511 . S
C3943 H3957 0.961 . S
C3943 H3958 0.961 . S
C3943 H3959 0.961 . S
C3944 C3945 1.370 . S
C3944 C3946 1.363 . S
C3944 H3960 0.931 . S
C3945 C3944 1.370 . S
C3945 C3949 1.408 . S
C3946 C3944 1.363 . S
C3946 C3947 1.370 . S
C3946 C3950 1.524 . S
C3947 C3939 1.503 . S
C3947 C3946 1.370 . S
C3947 C3948 1.403 . S
C3948 C3947 1.403 . S
C3948 C3949 1.404 . S
C3948 C3951 1.539 . S
C3949 C3945 1.408 . S
C3949 C3948 1.404 . S
C3949 H3961 0.930 . S
C3950 C3946 1.524 . S
C3950 H3962 0.956 . S
C3950 H3963 0.961 . S
C3950 H3964 0.961 . S
C3951 C3948 1.539 . S
C3951 H3965 0.958 . S
C3951 H3966 0.961 . S
C3951 H3967 0.960 . S
H3952 C3936 0.931 . S
H3953 C3941 0.929 . S
H3954 C3942 0.960 . S
H3955 C3942 0.962 . S
H3956 C3942 0.960 . S
H3957 C3943 0.961 . S
H3958 C3943 0.961 . S
H3959 C3943 0.961 . S
H3960 C3944 0.931 . S
H3961 C3949 0.930 . S
H3962 C3950 0.956 . S
H3963 C3950 0.961 . S
H3964 C3950 0.961 . S
H3965 C3951 0.958 . S
H3966 C3951 0.961 . S
H3967 C3951 0.960 . S
C3968 C3969 1.391 . S
C3968 C3970 1.394 . S
C3968 H3984 0.931 . S
C3969 C3968 1.391 . S
C3969 C3973 1.376 . S
C3970 C3968 1.394 . S
C3970 C3971 1.369 . S
C3970 C3974 1.531 . S
C3971 C3970 1.369 . S
C3971 C3972 1.410 . S
C3971 C3979 1.503 . S
C3972 C3971 1.410 . S
C3972 C3973 1.392 . S
C3972 C3975 1.511 . S
C3973 C3969 1.376 . S
C3973 C3972 1.392 . S
C3973 H3985 0.929 . S
C3974 C3970 1.531 . S
C3974 H3986 0.960 . S
C3974 H3987 0.962 . S
C3974 H3988 0.960 . S
C3975 C3972 1.511 . S
C3975 H3989 0.961 . S
C3975 H3990 0.961 . S
C3975 H3991 0.961 . S
C3976 C3977 1.370 . S
C3976 C3978 1.363 . S
C3976 H3992 0.931 . S
C3977 C3976 1.370 . S
C3977 C3981 1.408 . S
C3978 C3976 1.363 . S
C3978 C3979 1.370 . S
C3978 C3982 1.524 . S
C3979 C3971 1.503 . S
C3979 C3978 1.370 . S
C3979 C3980 1.403 . S
C3980 C3979 1.403 . S
C3980 C3981 1.404 . S
C3980 C3983 1.539 . S
C3981 C3977 1.408 . S
C3981 C3980 1.404 . S
C3981 H3993 0.930 . S
C3982 C3978 1.524 . S
C3982 H3994 0.956 . S
C3982 H3995 0.961 . S
C3982 H3996 0.961 . S
C3983 C3980 1.539 . S
C3983 H3997 0.958 . S
C3983 H3998 0.961 . S
C3983 H3999 0.960 . S
H3984 C3968 0.931 . S
H3985 C3973 0.929 . S
H3986 C3974 0.960 . S
H3987 C3974 0.962 . S
H3988 C3974 0.960 . S
H3989 C3975 0.961 . S
H3990 C3975 0.961 . S
H3991 C3975 0.961 . S
H3992 C3976 0.931 . S
H3993 C3981 0.930 . S
H3994 C3982 0.956 . S
H3995 C3982 0.961 . S
H3996 C3982 0.961 . S
H3997 C3983 0.958 . S
H3998 C3983 0.961 . S
H3999 C3983 0.960 . S
C4000 C4001 1.391 . S
C4000 C4002 1.394 . S
C4000 H4016 0.931 . S
C4001 C4000 1.391 . S
C4001 C4005 1.376 . S
C4002 C4000 1.394 . S
C4002 C4003 1.369 . S
C4002 C4006 1.531 . S
C4003 C4002 1.369 . S
C4003 C4004 1.410 . S
C4003 C4011 1.503 . S
C4004 C4003 1.410 . S
C4004 C4005 1.392 . S
C4004 C4007 1.511 . S
C4005 C4001 1.376 . S
C4005 C4004 1.392 . S
C4005 H4017 0.929 . S
C4006 C4002 1.531 . S
C4006 H4018 0.960 . S
C4006 H4019 0.962 . S
C4006 H4020 0.960 . S
C4007 C4004 1.511 . S
C4007 H4021 0.961 . S
C4007 H4022 0.961 . S
C4007 H4023 0.961 . S
C4008 C4009 1.370 . S
C4008 C4010 1.363 . S
C4008 H4024 0.931 . S
C4009 C4008 1.370 . S
C4009 C4013 1.408 . S
C4010 C4008 1.363 . S
C4010 C4011 1.370 . S
C4010 C4014 1.524 . S
C4011 C4003 1.503 . S
C4011 C4010 1.370 . S
C4011 C4012 1.403 . S
C4012 C4011 1.403 . S
C4012 C4013 1.404 . S
C4012 C4015 1.539 . S
C4013 C4009 1.408 . S
C4013 C4012 1.404 . S
C4013 H4025 0.930 . S
C4014 C4010 1.524 . S
C4014 H4026 0.956 . S
C4014 H4027 0.961 . S
C4014 H4028 0.961 . S
C4015 C4012 1.539 . S
C4015 H4029 0.958 . S
C4015 H4030 0.961 . S
C4015 H4031 0.960 . S
H4016 C4000 0.931 . S
H4017 C4005 0.929 . S
H4018 C4006 0.960 . S
H4019 C4006 0.962 . S
H4020 C4006 0.960 . S
H4021 C4007 0.961 . S
H4022 C4007 0.961 . S
H4023 C4007 0.961 . S
H4024 C4008 0.931 . S
H4025 C4013 0.930 . S
H4026 C4014 0.956 . S
H4027 C4014 0.961 . S
H4028 C4014 0.961 . S
H4029 C4015 0.958 . S
H4030 C4015 0.961 . S
H4031 C4015 0.960 . S
C4032 C4033 1.391 . S
C4032 C4034 1.394 1_556 S
C4032 H4048 0.931 . S
C4033 C4032 1.391 . S
C4033 C4037 1.376 . S
C4034 C4032 1.394 1_554 S
C4034 C4035 1.369 . S
C4034 C4038 1.531 . S
C4035 C4034 1.369 . S
C4035 C4036 1.410 . S
C4035 C4043 1.503 . S
C4036 C4035 1.410 . S
C4036 C4037 1.392 1_554 S
C4036 C4039 1.511 . S
C4037 C4033 1.376 . S
C4037 C4036 1.392 1_556 S
C4037 H4049 0.929 . S
C4038 C4034 1.531 . S
C4038 H4050 0.960 . S
C4038 H4051 0.962 . S
C4038 H4052 0.960 1_554 S
C4039 C4036 1.511 . S
C4039 H4053 0.961 . S
C4039 H4054 0.961 . S
C4039 H4055 0.961 . S
C4040 C4041 1.370 . S
C4040 C4042 1.363 . S
C4040 H4056 0.931 . S
C4041 C4040 1.370 . S
C4041 C4045 1.408 . S
C4042 C4040 1.363 . S
C4042 C4043 1.370 . S
C4042 C4046 1.524 . S
C4043 C4035 1.503 . S
C4043 C4042 1.370 . S
C4043 C4044 1.403 . S
C4044 C4043 1.403 . S
C4044 C4045 1.404 . S
C4044 C4047 1.539 . S
C4045 C4041 1.408 . S
C4045 C4044 1.404 . S
C4045 H4057 0.930 . S
C4046 C4042 1.524 . S
C4046 H4058 0.956 . S
C4046 H4059 0.961 . S
C4046 H4060 0.961 . S
C4047 C4044 1.539 . S
C4047 H4061 0.958 . S
C4047 H4062 0.961 . S
C4047 H4063 0.960 . S
H4048 C4032 0.931 . S
H4049 C4037 0.929 . S
H4050 C4038 0.960 . S
H4051 C4038 0.962 . S
H4052 C4038 0.960 1_556 S
H4053 C4039 0.961 . S
H4054 C4039 0.961 . S
H4055 C4039 0.961 . S
H4056 C4040 0.931 . S
H4057 C4045 0.930 . S
H4058 C4046 0.956 . S
H4059 C4046 0.961 . S
H4060 C4046 0.961 . S
H4061 C4047 0.958 . S
H4062 C4047 0.961 . S
H4063 C4047 0.960 . S
C4064 C4065 1.391 . S
C4064 C4066 1.394 . S
C4064 H4080 0.931 . S
C4065 C4064 1.391 . S
C4065 C4069 1.376 . S
C4066 C4064 1.394 . S
C4066 C4067 1.369 . S
C4066 C4070 1.531 . S
C4067 C4066 1.369 . S
C4067 C4068 1.410 . S
C4067 C4075 1.503 . S
C4068 C4067 1.410 . S
C4068 C4069 1.392 . S
C4068 C4071 1.511 . S
C4069 C4065 1.376 . S
C4069 C4068 1.392 . S
C4069 H4081 0.929 . S
C4070 C4066 1.531 . S
C4070 H4082 0.960 . S
C4070 H4083 0.962 . S
C4070 H4084 0.960 . S
C4071 C4068 1.511 . S
C4071 H4085 0.961 . S
C4071 H4086 0.961 . S
C4071 H4087 0.961 . S
C4072 C4073 1.370 . S
C4072 C4074 1.363 . S
C4072 H4088 0.931 . S
C4073 C4072 1.370 . S
C4073 C4077 1.408 . S
C4074 C4072 1.363 . S
C4074 C4075 1.370 . S
C4074 C4078 1.524 . S
C4075 C4067 1.503 . S
C4075 C4074 1.370 . S
C4075 C4076 1.403 . S
C4076 C4075 1.403 . S
C4076 C4077 1.404 . S
C4076 C4079 1.539 . S
C4077 C4073 1.408 . S
C4077 C4076 1.404 . S
C4077 H4089 0.930 . S
C4078 C4074 1.524 . S
C4078 H4090 0.956 . S
C4078 H4091 0.961 . S
C4078 H4092 0.961 . S
C4079 C4076 1.539 . S
C4079 H4093 0.958 . S
C4079 H4094 0.961 . S
C4079 H4095 0.960 . S
H4080 C4064 0.931 . S
H4081 C4069 0.929 . S
H4082 C4070 0.960 . S
H4083 C4070 0.962 . S
H4084 C4070 0.960 . S
H4085 C4071 0.961 . S
H4086 C4071 0.961 . S
H4087 C4071 0.961 . S
H4088 C4072 0.931 . S
H4089 C4077 0.930 . S
H4090 C4078 0.956 . S
H4091 C4078 0.961 . S
H4092 C4078 0.961 . S
H4093 C4079 0.958 . S
H4094 C4079 0.961 . S
H4095 C4079 0.960 . S
C4096 C4097 1.391 . S
C4096 C4098 1.394 . S
C4096 H4112 0.931 . S
C4097 C4096 1.391 . S
C4097 C4101 1.376 . S
C4098 C4096 1.394 . S
C4098 C4099 1.369 . S
C4098 C4102 1.531 . S
C4099 C4098 1.369 . S
C4099 C4100 1.410 . S
C4099 C4107 1.503 . S
C4100 C4099 1.410 . S
C4100 C4101 1.392 . S
C4100 C4103 1.511 . S
C4101 C4097 1.376 . S
C4101 C4100 1.392 . S
C4101 H4113 0.929 . S
C4102 C4098 1.531 . S
C4102 H4114 0.960 . S
C4102 H4115 0.962 . S
C4102 H4116 0.960 . S
C4103 C4100 1.511 . S
C4103 H4117 0.961 . S
C4103 H4118 0.961 . S
C4103 H4119 0.961 . S
C4104 C4105 1.370 . S
C4104 C4106 1.363 . S
C4104 H4120 0.931 . S
C4105 C4104 1.370 . S
C4105 C4109 1.408 1_545 S
C4106 C4104 1.363 . S
C4106 C4107 1.370 1_545 S
C4106 C4110 1.524 . S
C4107 C4099 1.503 . S
C4107 C4106 1.370 1_565 S
C4107 C4108 1.403 . S
C4108 C4107 1.403 . S
C4108 C4109 1.404 . S
C4108 C4111 1.539 . S
C4109 C4105 1.408 1_565 S
C4109 C4108 1.404 . S
C4109 H4121 0.930 . S
C4110 C4106 1.524 . S
C4110 H4122 0.956 . S
C4110 H4123 0.961 . S
C4110 H4124 0.961 . S
C4111 C4108 1.539 . S
C4111 H4125 0.958 . S
C4111 H4126 0.961 . S
C4111 H4127 0.960 . S
H4112 C4096 0.931 . S
H4113 C4101 0.929 . S
H4114 C4102 0.960 . S
H4115 C4102 0.962 . S
H4116 C4102 0.960 . S
H4117 C4103 0.961 . S
H4118 C4103 0.961 . S
H4119 C4103 0.961 . S
H4120 C4104 0.931 . S
H4121 C4109 0.930 . S
H4122 C4110 0.956 . S
H4123 C4110 0.961 . S
H4124 C4110 0.961 . S
H4125 C4111 0.958 . S
H4126 C4111 0.961 . S
H4127 C4111 0.960 . S
C4128 C4129 1.391 . S
C4128 C4130 1.394 . S
C4128 H4144 0.931 . S
C4129 C4128 1.391 . S
C4129 C4133 1.376 . S
C4130 C4128 1.394 . S
C4130 C4131 1.369 . S
C4130 C4134 1.531 . S
C4131 C4130 1.369 . S
C4131 C4132 1.410 . S
C4131 C4139 1.503 . S
C4132 C4131 1.410 . S
C4132 C4133 1.392 . S
C4132 C4135 1.511 . S
C4133 C4129 1.376 . S
C4133 C4132 1.392 . S
C4133 H4145 0.929 . S
C4134 C4130 1.531 . S
C4134 H4146 0.960 . S
C4134 H4147 0.962 . S
C4134 H4148 0.960 . S
C4135 C4132 1.511 . S
C4135 H4149 0.961 . S
C4135 H4150 0.961 . S
C4135 H4151 0.961 . S
C4136 C4137 1.370 . S
C4136 C4138 1.363 . S
C4136 H4152 0.931 . S
C4137 C4136 1.370 . S
C4137 C4141 1.408 . S
C4138 C4136 1.363 . S
C4138 C4139 1.370 . S
C4138 C4142 1.524 . S
C4139 C4131 1.503 . S
C4139 C4138 1.370 . S
C4139 C4140 1.403 . S
C4140 C4139 1.403 . S
C4140 C4141 1.404 . S
C4140 C4143 1.539 . S
C4141 C4137 1.408 . S
C4141 C4140 1.404 . S
C4141 H4153 0.930 . S
C4142 C4138 1.524 . S
C4142 H4154 0.956 . S
C4142 H4155 0.961 . S
C4142 H4156 0.961 . S
C4143 C4140 1.539 . S
C4143 H4157 0.958 . S
C4143 H4158 0.961 . S
C4143 H4159 0.960 . S
H4144 C4128 0.931 . S
H4145 C4133 0.929 . S
H4146 C4134 0.960 . S
H4147 C4134 0.962 . S
H4148 C4134 0.960 . S
H4149 C4135 0.961 . S
H4150 C4135 0.961 . S
H4151 C4135 0.961 . S
H4152 C4136 0.931 . S
H4153 C4141 0.930 . S
H4154 C4142 0.956 . S
H4155 C4142 0.961 . S
H4156 C4142 0.961 . S
H4157 C4143 0.958 . S
H4158 C4143 0.961 . S
H4159 C4143 0.960 . S
C4160 C4161 1.391 . S
C4160 C4162 1.394 . S
C4160 H4176 0.931 . S
C4161 C4160 1.391 . S
C4161 C4165 1.376 . S
C4162 C4160 1.394 . S
C4162 C4163 1.369 . S
C4162 C4166 1.531 . S
C4163 C4162 1.369 . S
C4163 C4164 1.410 1_545 S
C4163 C4171 1.503 1_545 S
C4164 C4163 1.410 1_565 S
C4164 C4165 1.392 1_565 S
C4164 C4167 1.511 . S
C4165 C4161 1.376 . S
C4165 C4164 1.392 1_545 S
C4165 H4177 0.926 1_545 S
C4166 C4162 1.531 . S
C4166 H4178 0.960 . S
C4166 H4179 0.962 . S
C4166 H4180 0.960 . S
C4167 C4164 1.511 . S
C4167 H4181 0.961 . S
C4167 H4182 0.961 . S
C4167 H4183 0.961 . S
C4168 C4169 1.370 . S
C4168 C4170 1.363 . S
C4168 H4184 0.931 . S
C4169 C4168 1.370 . S
C4169 C4173 1.408 . S
C4170 C4168 1.363 . S
C4170 C4171 1.370 . S
C4170 C4174 1.524 . S
C4171 C4163 1.503 1_565 S
C4171 C4170 1.370 . S
C4171 C4172 1.403 . S
C4172 C4171 1.403 . S
C4172 C4173 1.404 . S
C4172 C4175 1.539 1_565 S
C4173 C4169 1.408 . S
C4173 C4172 1.404 . S
C4173 H4185 0.930 . S
C4174 C4170 1.524 . S
C4174 H4186 0.956 1_565 S
C4174 H4187 0.961 . S
C4174 H4188 0.961 . S
C4175 C4172 1.539 1_545 S
C4175 H4189 0.958 . S
C4175 H4190 0.961 1_545 S
C4175 H4191 0.960 . S
H4176 C4160 0.931 . S
H4177 C4165 0.926 1_565 S
H4178 C4166 0.960 . S
H4179 C4166 0.962 . S
H4180 C4166 0.960 . S
H4181 C4167 0.961 . S
H4182 C4167 0.961 . S
H4183 C4167 0.961 . S
H4184 C4168 0.931 . S
H4185 C4173 0.930 . S
H4186 C4174 0.956 1_545 S
H4187 C4174 0.961 . S
H4188 C4174 0.961 . S
H4189 C4175 0.958 . S
H4190 C4175 0.961 1_565 S
H4191 C4175 0.960 . S
C4192 C4193 1.391 . S
C4192 C4194 1.394 . S
C4192 H4208 0.931 . S
C4193 C4192 1.391 . S
C4193 C4197 1.376 . S
C4194 C4192 1.394 . S
C4194 C4195 1.369 . S
C4194 C4198 1.531 . S
C4195 C4194 1.369 . S
C4195 C4196 1.410 . S
C4195 C4203 1.503 . S
C4196 C4195 1.410 . S
C4196 C4197 1.392 . S
C4196 C4199 1.511 . S
C4197 C4193 1.376 . S
C4197 C4196 1.392 . S
C4197 H4209 0.929 . S
C4198 C4194 1.531 . S
C4198 H4210 0.960 . S
C4198 H4211 0.962 . S
C4198 H4212 0.960 . S
C4199 C4196 1.511 . S
C4199 H4213 0.961 . S
C4199 H4214 0.961 1_554 S
C4199 H4215 0.961 1_554 S
C4200 C4201 1.370 . S
C4200 C4202 1.363 . S
C4200 H4216 0.931 . S
C4201 C4200 1.370 . S
C4201 C4205 1.408 . S
C4202 C4200 1.363 . S
C4202 C4203 1.370 1_556 S
C4202 C4206 1.524 1_556 S
C4203 C4195 1.503 . S
C4203 C4202 1.370 1_554 S
C4203 C4204 1.403 1_554 S
C4204 C4203 1.403 1_556 S
C4204 C4205 1.404 . S
C4204 C4207 1.539 . S
C4205 C4201 1.408 . S
C4205 C4204 1.404 . S
C4205 H4217 0.930 . S
C4206 C4202 1.524 1_554 S
C4206 H4218 0.956 . S
C4206 H4219 0.961 . S
C4206 H4220 0.961 . S
C4207 C4204 1.539 . S
C4207 H4221 0.958 1_556 S
C4207 H4222 0.961 . S
C4207 H4223 0.960 1_556 S
H4208 C4192 0.931 . S
H4209 C4197 0.929 . S
H4210 C4198 0.960 . S
H4211 C4198 0.962 . S
H4212 C4198 0.960 . S
H4213 C4199 0.961 . S
H4214 C4199 0.961 1_556 S
H4215 C4199 0.961 1_556 S
H4216 C4200 0.931 . S
H4217 C4205 0.930 . S
H4218 C4206 0.956 . S
H4219 C4206 0.961 . S
H4220 C4206 0.961 . S
H4221 C4207 0.958 1_554 S
H4222 C4207 0.961 . S
H4223 C4207 0.960 1_554 S
C4224 C4225 1.391 . S
C4224 C4226 1.394 1_565 S
C4224 H4240 0.931 . S
C4225 C4224 1.391 . S
C4225 C4229 1.376 . S
C4226 C4224 1.394 1_545 S
C4226 C4227 1.369 . S
C4226 C4230 1.531 . S
C4227 C4226 1.369 . S
C4227 C4228 1.410 1_545 S
C4227 C4235 1.503 . S
C4228 C4227 1.410 1_565 S
C4228 C4229 1.392 . S
C4228 C4231 1.511 . S
C4229 C4225 1.376 . S
C4229 C4228 1.392 . S
C4229 H4241 0.929 . S
C4230 C4226 1.531 . S
C4230 H4242 0.960 . S
C4230 H4243 0.962 . S
C4230 H4244 0.960 . S
C4231 C4228 1.511 . S
C4231 H4245 0.961 . S
C4231 H4246 0.961 . S
C4231 H4247 0.961 1_565 S
C4232 C4233 1.370 . S
C4232 C4234 1.363 . S
C4232 H4248 0.931 . S
C4233 C4232 1.370 . S
C4233 C4237 1.408 . S
C4234 C4232 1.363 . S
C4234 C4235 1.370 1_556 S
C4234 C4238 1.524 1_545 S
C4235 C4227 1.503 . S
C4235 C4234 1.370 1_554 S
C4235 C4236 1.403 . S
C4236 C4235 1.403 . S
C4236 C4237 1.404 1_554 S
C4236 C4239 1.539 . S
C4237 C4233 1.408 . S
C4237 C4236 1.404 1_556 S
C4237 H4249 0.930 . S
C4238 C4234 1.524 1_565 S
C4238 H4250 0.956 1_556 S
C4238 H4251 0.961 1_556 S
C4238 H4252 0.961 . S
C4239 C4236 1.539 . S
C4239 H4253 0.958 . S
C4239 H4254 0.961 . S
C4239 H4255 0.960 . S
H4240 C4224 0.931 . S
H4241 C4229 0.929 . S
H4242 C4230 0.960 . S
H4243 C4230 0.962 . S
H4244 C4230 0.960 . S
H4245 C4231 0.961 . S
H4246 C4231 0.961 . S
H4247 C4231 0.961 1_545 S
H4248 C4232 0.931 . S
H4249 C4237 0.930 . S
H4250 C4238 0.956 1_554 S
H4251 C4238 0.961 1_554 S
H4252 C4238 0.961 . S
H4253 C4239 0.958 . S
H4254 C4239 0.961 . S
H4255 C4239 0.960 . S
C4256 C4257 1.391 . S
C4256 C4258 1.394 . S
C4256 H4272 0.931 . S
C4257 C4256 1.391 . S
C4257 C4261 1.376 . S
C4258 C4256 1.394 . S
C4258 C4259 1.369 . S
C4258 C4262 1.531 . S
C4259 C4258 1.369 . S
C4259 C4260 1.410 . S
C4259 C4267 1.503 . S
C4260 C4259 1.410 . S
C4260 C4261 1.392 . S
C4260 C4263 1.511 . S
C4261 C4257 1.376 . S
C4261 C4260 1.392 . S
C4261 H4273 0.929 . S
C4262 C4258 1.531 . S
C4262 H4274 0.960 . S
C4262 H4275 0.962 . S
C4262 H4276 0.960 . S
C4263 C4260 1.511 . S
C4263 H4277 0.961 . S
C4263 H4278 0.961 . S
C4263 H4279 0.961 . S
C4264 C4265 1.370 . S
C4264 C4266 1.363 . S
C4264 H4280 0.931 . S
C4265 C4264 1.370 . S
C4265 C4269 1.408 . S
C4266 C4264 1.363 . S
C4266 C4267 1.370 . S
C4266 C4270 1.524 . S
C4267 C4259 1.503 . S
C4267 C4266 1.370 . S
C4267 C4268 1.403 . S
C4268 C4267 1.403 . S
C4268 C4269 1.404 . S
C4268 C4271 1.539 . S
C4269 C4265 1.408 . S
C4269 C4268 1.404 . S
C4269 H4281 0.930 . S
C4270 C4266 1.524 . S
C4270 H4282 0.956 . S
C4270 H4283 0.961 . S
C4270 H4284 0.961 . S
C4271 C4268 1.539 . S
C4271 H4285 0.958 . S
C4271 H4286 0.961 . S
C4271 H4287 0.960 . S
H4272 C4256 0.931 . S
H4273 C4261 0.929 . S
H4274 C4262 0.960 . S
H4275 C4262 0.962 . S
H4276 C4262 0.960 . S
H4277 C4263 0.961 . S
H4278 C4263 0.961 . S
H4279 C4263 0.961 . S
H4280 C4264 0.931 . S
H4281 C4269 0.930 . S
H4282 C4270 0.956 . S
H4283 C4270 0.961 . S
H4284 C4270 0.961 . S
H4285 C4271 0.958 . S
H4286 C4271 0.961 . S
H4287 C4271 0.960 . S
C4288 C4289 1.391 . S
C4288 C4290 1.394 . S
C4288 H4304 0.931 . S
C4289 C4288 1.391 . S
C4289 C4293 1.376 . S
C4290 C4288 1.394 . S
C4290 C4291 1.369 . S
C4290 C4294 1.531 1_565 S
C4291 C4290 1.369 . S
C4291 C4292 1.410 . S
C4291 C4299 1.503 1_565 S
C4292 C4291 1.410 . S
C4292 C4293 1.392 . S
C4292 C4295 1.511 . S
C4293 C4289 1.376 . S
C4293 C4292 1.392 . S
C4293 H4305 0.929 . S
C4294 C4290 1.531 1_545 S
C4294 H4306 0.960 . S
C4294 H4307 0.962 1_545 S
C4294 H4308 0.960 . S
C4295 C4292 1.511 . S
C4295 H4309 0.961 . S
C4295 H4310 0.961 . S
C4295 H4311 0.961 . S
C4296 C4297 1.370 . S
C4296 C4298 1.363 1_545 S
C4296 H4312 0.931 1_545 S
C4297 C4296 1.370 . S
C4297 C4301 1.408 . S
C4298 C4296 1.363 1_565 S
C4298 C4299 1.370 1_565 S
C4298 C4302 1.524 . S
C4299 C4291 1.503 1_545 S
C4299 C4298 1.370 1_545 S
C4299 C4300 1.403 . S
C4300 C4299 1.403 . S
C4300 C4301 1.404 . S
C4300 C4303 1.539 . S
C4301 C4297 1.408 . S
C4301 C4300 1.404 . S
C4301 H4313 0.930 . S
C4302 C4298 1.524 . S
C4302 H4314 0.956 . S
C4302 H4315 0.961 . S
C4302 H4316 0.961 . S
C4303 C4300 1.539 . S
C4303 H4317 0.958 . S
C4303 H4318 0.961 . S
C4303 H4319 0.960 . S
H4304 C4288 0.931 . S
H4305 C4293 0.929 . S
H4306 C4294 0.960 . S
H4307 C4294 0.962 1_565 S
H4308 C4294 0.960 . S
H4309 C4295 0.961 . S
H4310 C4295 0.961 . S
H4311 C4295 0.961 . S
H4312 C4296 0.931 1_565 S
H4313 C4301 0.930 . S
H4314 C4302 0.956 . S
H4315 C4302 0.961 . S
H4316 C4302 0.961 . S
H4317 C4303 0.958 . S
H4318 C4303 0.961 . S
H4319 C4303 0.960 . S
C4320 C4321 1.391 . S
C4320 C4322 1.394 . S
C4320 H4336 0.931 . S
C4321 C4320 1.391 . S
C4321 C4325 1.376 . S
C4322 C4320 1.394 . S
C4322 C4323 1.369 . S
C4322 C4326 1.531 . S
C4323 C4322 1.369 . S
C4323 C4324 1.410 . S
C4323 C4331 1.503 . S
C4324 C4323 1.410 . S
C4324 C4325 1.392 . S
C4324 C4327 1.511 . S
C4325 C4321 1.376 . S
C4325 C4324 1.392 . S
C4325 H4337 0.929 . S
C4326 C4322 1.531 . S
C4326 H4338 0.960 . S
C4326 H4339 0.962 . S
C4326 H4340 0.960 . S
C4327 C4324 1.511 . S
C4327 H4341 0.961 . S
C4327 H4342 0.961 . S
C4327 H4343 0.961 . S
C4328 C4329 1.370 . S
C4328 C4330 1.363 . S
C4328 H4344 0.931 . S
C4329 C4328 1.370 . S
C4329 C4333 1.408 . S
C4330 C4328 1.363 . S
C4330 C4331 1.370 . S
C4330 C4334 1.524 . S
C4331 C4323 1.503 . S
C4331 C4330 1.370 . S
C4331 C4332 1.403 . S
C4332 C4331 1.403 . S
C4332 C4333 1.404 . S
C4332 C4335 1.539 . S
C4333 C4329 1.408 . S
C4333 C4332 1.404 . S
C4333 H4345 0.930 . S
C4334 C4330 1.524 . S
C4334 H4346 0.956 . S
C4334 H4347 0.961 . S
C4334 H4348 0.961 . S
C4335 C4332 1.539 . S
C4335 H4349 0.958 . S
C4335 H4350 0.961 . S
C4335 H4351 0.960 . S
H4336 C4320 0.931 . S
H4337 C4325 0.929 . S
H4338 C4326 0.960 . S
H4339 C4326 0.962 . S
H4340 C4326 0.960 . S
H4341 C4327 0.961 . S
H4342 C4327 0.961 . S
H4343 C4327 0.961 . S
H4344 C4328 0.931 . S
H4345 C4333 0.930 . S
H4346 C4334 0.956 . S
H4347 C4334 0.961 . S
H4348 C4334 0.961 . S
H4349 C4335 0.958 . S
H4350 C4335 0.961 . S
H4351 C4335 0.960 . S
C1281 C10 0.133 . S
C1289 C175 0.227 . S
C1313 C215 0.336 . S
C1321 C55 0.366 . S
C1345 C90 0.404 . S
C1353 C255 0.241 . S
C1377 C295 0.268 . S
C1385 C130 0.287 . S
C1409 C339 0.235 . S
C1417 C486 0.212 . S
C1441 C366 0.359 . S
C1449 C526 0.331 . S
C1473 C566 0.269 . S
C1481 C419 0.348 . S
C1505 C459 0.276 . S
C1513 C606 0.273 . S
C1537 C815 0.192 . S
C1545 C650 0.247 . S
C1569 C695 0.379 . S
C1577 C855 0.317 . S
C1601 C730 0.400 . S
C1609 C895 0.241 . S
C1633 C770 0.307 . S
C1641 C935 0.270 . S
C1665 C979 0.268 . S
C1673 C1126 0.217 . S
C1697 C1166 0.363 . S
C1705 C1006 0.366 . S
C1729 C1059 0.238 . S
C1737 C1206 0.219 . S
C1761 C1246 0.247 . S
C1769 C1099 0.272 . S
C1793 C849 1.900 . S
C1801 C18 1.911 . S
C1825 C889 1.328 . S
C1833 C49 1.321 . S
C1857 C929 1.895 . S
C1865 C98 1.824 . S
C1889 C138 1.352 . S
C1897 C809 1.423 . S
C1921 C169 1.406 . S
C1929 C778 1.406 . S
C1953 C658 1.935 . S
C1961 C209 1.909 . S
C1985 C249 1.361 . S
C1993 C689 1.331 . S
C2017 C289 1.838 . S
C2025 C738 1.847 . S
C2049 C329 1.931 . S
C2057 C1178 1.915 . S
C2081 C1218 1.306 . S
C2089 C378 1.325 . S
C2113 C1258 1.899 . S
C2121 C409 1.826 . S
C2145 C449 1.363 . S
C2153 C1138 1.421 . S
C2177 C498 1.435 . S
C2185 C1089 1.388 . S
C2209 C538 1.890 . S
C2217 C969 1.912 . S
C2241 C578 1.360 . S
C2249 C1018 1.351 . S
C2273 C618 1.895 1_554 S
C2281 C1049 1.828 . S
C2305 C338 0.790 . S
C2313 C9 0.645 . S
C2337 C58 0.782 . S
C2345 C1009 0.687 . S
C2369 C418 0.833 . S
C2377 C89 0.766 . S
C2401 C129 0.629 . S
C2409 C1098 0.738 . S
C2433 C489 0.432 . S
C2441 C178 0.528 . S
C2465 C1169 0.742 . S
C2473 C218 0.673 . S
C2497 C258 0.537 . S
C2505 C569 0.427 . S
C2529 C298 0.636 . S
C2537 C1249 0.547 . S
C2561 C698 0.708 . S
C2569 C369 0.707 . S
C2593 C769 0.801 . S
C2601 C458 0.673 . S
C2625 C529 0.785 . S
C2633 C858 0.649 . S
C2657 C938 0.580 . S
C2665 C609 0.576 . S
C2689 C978 0.789 . S
C2697 C649 0.646 . S
C2721 C1058 0.757 . S
C2729 C729 0.798 . S
C2753 C1129 0.516 . S
C2761 C818 0.491 . S
C2785 C898 0.391 . S
C2793 C1209 0.495 . S
C2817 C19 2.169 . S
C2825 C490 2.217 . S
C2849 C1170 1.332 . S
C2857 C46 1.331 . S
C2881 C570 2.223 . S
C2889 C99 2.193 . S
C2913 C139 1.918 . S
C2921 C1250 1.923 . S
C2945 C335 0.755 . S
C2953 C166 0.771 . S
C2977 C1010 1.610 . S
C2985 C206 1.601 . S
C3009 C415 0.781 . S
C3017 C246 0.798 . S
C3041 C1095 0.949 . S
C3049 C286 0.971 . S
C3073 C179 2.212 . S
C3081 C330 2.186 . S
C3105 C859 1.332 . S
C3113 C375 1.326 . S
C3137 C259 2.199 1_556 S
C3145 C410 2.192 . S
C3169 C450 1.907 . S
C3177 C939 1.921 . S
C3201 C6 0.781 . S
C3209 C495 0.762 . S
C3233 C699 1.634 . S
C3241 C535 1.590 . S
C3265 C575 0.839 . S
C3273 C86 0.830 . S
C3297 C615 0.995 . S
C3305 C766 0.992 . S
C3329 C1130 2.218 . S
C3337 C659 2.185 . S
C3361 C530 1.332 . S
C3369 C686 1.322 . S
C3393 C739 2.201 1_556 S
C3401 C1210 2.218 . S
C3425 C610 1.909 . S
C3433 C779 1.910 . S
C3457 C806 0.753 . S
C3465 C975 0.764 . S
C3489 C846 1.570 . S
C3497 C370 1.638 . S
C3521 C1055 0.795 . S
C3529 C886 0.792 . S
C3553 C455 0.947 . S
C3561 C926 0.963 . S
C3585 C970 2.169 . S
C3593 C819 2.219 1_556 S
C3617 C1015 1.342 . S
C3625 C219 1.364 . S
C3649 C1050 2.171 . S
C3657 C899 2.217 . S
C3681 C1090 1.899 . S
C3689 C299 1.932 . S
C3713 C646 0.709 . S
C3721 C1135 0.746 . S
C3745 C59 1.632 . S
C3753 C1175 1.615 . S
C3777 C1215 0.779 . S
C3785 C726 0.804 . S
C3809 C126 0.991 . S
C3817 C1255 0.955 . S
C3841 C170 2.338 . S
C3849 C15 2.295 . S
C3873 C210 3.136 1_554 S
C3881 C50 3.149 . S
C3905 C95 2.327 . S
C3913 C250 2.375 . S
C3937 C290 2.300 . S
C3945 C135 2.271 . S
C3969 C499 2.324 . S
C3977 C326 2.294 . S
C4001 C379 3.137 . S
C4009 C539 3.141 . S
C4033 C406 2.312 . S
C4041 C579 2.378 . S
C4065 C619 2.284 . S
C4073 C446 2.270 . S
C4097 C655 2.302 . S
C4105 C810 2.334 . S
C4129 C850 3.140 . S
C4137 C690 3.147 . S
C4161 C735 2.314 . S
C4169 C890 2.376 . S
C4193 C775 2.284 . S
C4201 C930 2.300 . S
C4225 C1139 2.323 . S
C4233 C966 2.298 . S
C4257 C1179 3.134 . S
C4265 C1019 3.150 . S
C4289 C1046 2.316 . S
C4297 C1219 2.379 . S
C4321 C1259 2.296 . S
C4329 C1086 2.271 . S
