# Generated by pormake.
# Topology sml, (6)-cn, num edge types: 1
# Building blocks:
#     Node 0, Type 0, BuildingBlock: FUNLAD_clean_sbu_0, # of connection points: 6
#     Node 1, Type 0, BuildingBlock: FUNLAD_clean_sbu_0, # of connection points: 6
#     Node 2, Type 0, BuildingBlock: FUNLAD_clean_sbu_0, # of connection points: 6
#     Node 3, Type 0, BuildingBlock: FUNLAD_clean_sbu_0, # of connection points: 6
#     Node 4, Type 0, BuildingBlock: FUNLAD_clean_sbu_0, # of connection points: 6
#     Node 5, Type 0, BuildingBlock: FUNLAD_clean_sbu_0, # of connection points: 6
#     Edge 6, Type (0, 0), BuildingBlock: UVAHIK_clean_linker_0, # of connection points: 2
#     Edge 7, Type (0, 0), BuildingBlock: UVAHIK_clean_linker_0, # of connection points: 2
#     Edge 8, Type (0, 0), BuildingBlock: UVAHIK_clean_linker_0, # of connection points: 2
#     Edge 9, Type (0, 0), BuildingBlock: UVAHIK_clean_linker_0, # of connection points: 2
#     Edge 10, Type (0, 0), BuildingBlock: UVAHIK_clean_linker_0, # of connection points: 2
#     Edge 11, Type (0, 0), BuildingBlock: UVAHIK_clean_linker_0, # of connection points: 2
#     Edge 12, Type (0, 0), BuildingBlock: UVAHIK_clean_linker_0, # of connection points: 2
#     Edge 13, Type (0, 0), BuildingBlock: UVAHIK_clean_linker_0, # of connection points: 2
#     Edge 14, Type (0, 0), BuildingBlock: UVAHIK_clean_linker_0, # of connection points: 2
#     Edge 15, Type (0, 0), BuildingBlock: UVAHIK_clean_linker_0, # of connection points: 2
#     Edge 16, Type (0, 0), BuildingBlock: UVAHIK_clean_linker_0, # of connection points: 2
#     Edge 17, Type (0, 0), BuildingBlock: UVAHIK_clean_linker_0, # of connection points: 2
#     Edge 18, Type (0, 0), BuildingBlock: UVAHIK_clean_linker_0, # of connection points: 2
#     Edge 19, Type (0, 0), BuildingBlock: UVAHIK_clean_linker_0, # of connection points: 2
#     Edge 20, Type (0, 0), BuildingBlock: UVAHIK_clean_linker_0, # of connection points: 2
#     Edge 21, Type (0, 0), BuildingBlock: UVAHIK_clean_linker_0, # of connection points: 2
#     Edge 22, Type (0, 0), BuildingBlock: UVAHIK_clean_linker_0, # of connection points: 2
#     Edge 23, Type (0, 0), BuildingBlock: UVAHIK_clean_linker_0, # of connection points: 2
# Relax obj value: 0.365
# Max RMSD: 0.208
# Mean RMSD: 0.208
data_MOF--net-sml--node1-FUNLAD_clean_sbu_0--edge1-UVAHIK_clean_linker_0
_symmetry_space_group_name_H-M    P1
_symmetry_Int_Tables_number       1
_symmetry_cell_setting            triclinic
loop_
_symmetry_equiv_pos_as_xyz
'x, y, z'
_cell_length_a     58.983893
_cell_length_b     58.933037
_cell_length_c     18.834158
_cell_angle_alpha  89.779456
_cell_angle_beta   90.10927
_cell_angle_gamma 120.02036
loop_
_atom_site_label
_atom_site_type_symbol
_atom_site_fract_x
_atom_site_fract_y
_atom_site_fract_z
_atom_type_partial_charge
C0 C 0.13698 0.38454 0.87906 0.0
N1 N 0.1652 0.34475 0.00264 0.0
C2 C 0.14908 0.32333 0.96316 0.0
C3 C 0.1558 0.30411 0.94939 0.0
C4 C 0.17922 0.30689 -0.02291 0.0
C5 C 0.1946 0.32847 0.02098 0.0
C6 C 0.18741 0.34734 0.03231 0.0
Zn7 Zn 0.15901 0.37588 0.01164 0.0
C8 C 0.20586 0.42521 0.96046 0.0
N9 N 0.1487 0.44254 0.02506 0.0
C10 C 0.12613 0.44189 0.00571 0.0
C11 C 0.16924 0.46466 0.05216 0.0
C12 C 0.16768 0.48729 0.06041 0.0
C13 C 0.14476 0.48736 0.04057 0.0
C14 C 0.1237 0.46422 0.01324 0.0
Zn15 Zn 0.15326 0.41047 0.01584 0.0
O16 O 0.14484 0.37018 0.90783 0.0
C17 C 0.10609 0.36141 0.06473 0.0
O18 O 0.13801 0.40352 0.9134 0.0
H19 H 0.18694 0.46477 0.06777 0.0
H20 H 0.1315 0.32162 0.93999 0.0
H21 H 0.11002 0.42408 -0.01564 0.0
O22 O 0.12011 0.35123 0.04973 0.0
O23 O 0.11553 0.38595 0.05672 0.0
H24 H 0.20015 0.36457 0.06294 0.0
O25 O 0.16863 0.41707 0.11858 0.0
O26 O 0.17285 0.38219 0.11574 0.0
O27 O 0.19087 0.43433 -0.02643 0.0
O28 O 0.19786 0.40115 -0.02712 0.0
C29 C 0.17521 0.40195 0.14876 0.0
H30 H 0.14338 0.28792 0.91493 0.0
H31 H 0.21248 0.33118 0.04502 0.0
H32 H 0.1842 0.50451 0.08304 0.0
H33 H 0.10572 0.46348 -0.00298 0.0
C34 C 0.80724 0.22282 0.47286 0.0
N35 N 0.78067 0.15281 0.36136 0.0
C36 C 0.80017 0.15011 0.39173 0.0
C37 C 0.79563 0.12533 0.41218 0.0
C38 C 0.77072 0.10343 0.40217 0.0
C39 C 0.75127 0.10662 0.36875 0.0
C40 C 0.75676 0.13159 0.34801 0.0
Zn41 Zn 0.78536 0.18918 0.34359 0.0
C42 C 0.73788 0.19112 0.39229 0.0
N43 N 0.79345 0.2649 0.31562 0.0
C44 C 0.81639 0.28774 0.32542 0.0
C45 C 0.77203 0.26488 0.28867 0.0
C46 C 0.77319 0.28826 0.26953 0.0
C47 C 0.79675 0.31212 0.27685 0.0
C48 C 0.81849 0.31172 0.30624 0.0
Zn49 Zn 0.78996 0.229 0.33435 0.0
O50 O 0.80023 0.20049 0.44621 0.0
C51 C 0.83753 0.22741 0.28655 0.0
O52 O 0.80542 0.24001 0.43636 0.0
H53 H 0.75402 0.24659 0.28068 0.0
H54 H 0.81896 0.16726 0.40235 0.0
H55 H 0.83323 0.28733 0.34669 0.0
O56 O 0.82392 0.2034 0.30432 0.0
O57 O 0.82784 0.24232 0.29315 0.0
H58 H 0.74157 0.1341 0.32346 0.0
O59 O 0.77429 0.21733 0.23238 0.0
O60 O 0.77076 0.17855 0.24058 0.0
O61 O 0.75221 0.21516 0.37654 0.0
O62 O 0.74668 0.1756 0.38302 0.0
C63 C 0.76807 0.19535 0.20487 0.0
H64 H 0.81099 0.12343 0.43823 0.0
H65 H 0.73186 0.09001 0.36017 0.0
H66 H 0.75571 0.28755 0.2488 0.0
H67 H 0.83709 0.32961 0.31258 0.0
C68 C 0.55299 0.71812 0.52963 0.0
N69 N 0.59712 0.78802 0.64101 0.0
C70 C 0.60005 0.79905 0.57558 0.0
C71 C 0.62104 0.82401 0.56153 0.0
C72 C 0.6389 0.83803 0.61569 0.0
C73 C 0.63555 0.82629 0.68273 0.0
C74 C 0.61452 0.80098 0.69412 0.0
Zn75 Zn 0.56504 0.75183 0.65827 0.0
C76 C 0.51559 0.75006 0.61299 0.0
N77 N 0.4975 0.67611 0.68627 0.0
C78 C 0.49663 0.65344 0.66707 0.0
C79 C 0.47668 0.67584 0.71807 0.0
C80 C 0.45382 0.65223 0.7313 0.0
C81 C 0.45217 0.6285 0.71158 0.0
C82 C 0.47402 0.62925 0.67946 0.0
Zn83 Zn 0.53007 0.71192 0.66911 0.0
O84 O 0.56889 0.74014 0.55673 0.0
C85 C 0.57896 0.713 0.71375 0.0
O86 O 0.53353 0.70142 0.56552 0.0
H87 H 0.47777 0.69402 0.73342 0.0
H88 H 0.58584 0.78866 0.53433 0.0
H89 H 0.51343 0.65411 0.64194 0.0
O90 O 0.58915 0.73725 0.69868 0.0
O91 O 0.55444 0.69795 0.70608 0.0
H92 H 0.6119 0.79184 0.74567 0.0
O93 O 0.52696 0.72297 0.77198 0.0
O94 O 0.5607 0.76268 0.76089 0.0
O95 O 0.50634 0.72637 0.6319 0.0
O96 O 0.54014 0.76577 0.61721 0.0
C97 C 0.54204 0.74544 0.79794 0.0
H98 H 0.6228 0.83263 0.50948 0.0
H99 H 0.649 0.83659 0.72572 0.0
H100 H 0.43766 0.65258 0.75744 0.0
H101 H 0.47352 0.61141 0.66309 0.0
C102 C 0.71954 0.55284 0.11893 0.0
N103 N 0.78893 0.59807 0.00676 0.0
C104 C 0.79061 0.6187 0.04349 0.0
C105 C 0.81503 0.63972 0.06232 0.0
C106 C 0.83788 0.63959 0.04243 0.0
C107 C 0.83558 0.61855 0.00211 0.0
C108 C 0.8108 0.59783 -0.01489 0.0
Zn109 Zn 0.75321 0.56561 -0.01017 0.0
C110 C 0.75237 0.51657 0.03463 0.0
N111 N 0.67818 0.49735 0.96228 0.0
C112 C 0.65514 0.49561 -0.01825 0.0
C113 C 0.67867 0.47703 0.92983 0.0
C114 C 0.65553 0.45387 0.91586 0.0
C115 C 0.63142 0.45128 0.9358 0.0
C116 C 0.63135 0.4726 0.96885 0.0
Zn117 Zn 0.71356 0.53038 -0.0207 0.0
O118 O 0.7417 0.56864 0.09222 0.0
C119 C 0.71378 0.57882 0.93455 0.0
O120 O 0.70274 0.53365 0.08263 0.0
H121 H 0.69712 0.47878 0.91436 0.0
H122 H 0.77297 0.61853 0.05999 0.0
H123 H 0.6552 0.51203 0.00739 0.0
O124 O 0.73791 0.58926 0.95077 0.0
O125 O 0.69898 0.5542 0.94149 0.0
H126 H 0.80903 0.58114 0.95649 0.0
O127 O 0.72496 0.52751 0.87658 0.0
O128 O 0.76405 0.56218 0.8865 0.0
O129 O 0.72857 0.50712 0.01707 0.0
O130 O 0.76789 0.54115 0.02948 0.0
C131 C 0.74718 0.54313 0.85001 0.0
H132 H 0.81602 0.65569 0.09306 0.0
H133 H 0.85273 0.61754 -0.01344 0.0
H134 H 0.65655 0.43822 0.8888 0.0
H135 H 0.61321 0.47141 -0.01468 0.0
C136 C 0.21891 0.80356 0.19062 0.0
N137 N 0.15006 0.77757 0.30821 0.0
C138 C 0.1474 0.79588 0.27061 0.0
C139 C 0.12254 0.79216 0.25599 0.0
C140 C 0.1003 0.7696 0.28138 0.0
C141 C 0.10364 0.75148 0.322 0.0
C142 C 0.1288 0.75576 0.33437 0.0
Zn143 Zn 0.18621 0.78142 0.32135 0.0
C144 C 0.18716 0.7341 0.27005 0.0
N145 N 0.26184 0.78907 0.34278 0.0
C146 C 0.28466 0.81206 0.33324 0.0
C147 C 0.26183 0.76727 0.36668 0.0
C148 C 0.28524 0.76808 0.38301 0.0
C149 C 0.3091 0.79169 0.37616 0.0
C150 C 0.30867 0.81383 0.34981 0.0
Zn151 Zn 0.22604 0.78614 0.32824 0.0
O152 O 0.19656 0.79601 0.21789 0.0
C153 C 0.22527 0.83358 0.37821 0.0
O154 O 0.23641 0.80217 0.22656 0.0
H155 H 0.24355 0.74921 0.37453 0.0
H156 H 0.16456 0.81313 0.25055 0.0
H157 H 0.28425 0.8292 0.31435 0.0
O158 O 0.20132 0.82015 0.36029 0.0
O159 O 0.24008 0.82381 0.37126 0.0
H160 H 0.13129 0.7413 0.3634 0.0
O161 O 0.21524 0.76994 0.43014 0.0
O162 O 0.17677 0.7671 0.42505 0.0
O163 O 0.21131 0.7486 0.28403 0.0
O164 O 0.17149 0.74254 0.28218 0.0
C165 C 0.19358 0.76402 0.45924 0.0
H166 H 0.12068 0.80659 0.22466 0.0
H167 H 0.08692 0.73367 0.34165 0.0
H168 H 0.28454 0.75031 0.40138 0.0
H169 H 0.32655 0.83248 0.34397 0.0
C170 C 0.38735 0.13292 0.78784 0.0
N171 N 0.34487 0.16045 0.67519 0.0
C172 C 0.32383 0.14313 0.71427 0.0
C173 C 0.30509 0.14957 0.73613 0.0
C174 C 0.30816 0.17407 0.71759 0.0
C175 C 0.32921 0.1908 0.67364 0.0
C176 C 0.34745 0.18364 0.65324 0.0
Zn177 Zn 0.37564 0.1544 0.65749 0.0
C178 C 0.42635 0.20146 0.70103 0.0
N179 N 0.44159 0.14367 0.63048 0.0
C180 C 0.44219 0.12209 0.65392 0.0
C181 C 0.46198 0.1629 0.59338 0.0
C182 C 0.48379 0.16065 0.57719 0.0
C183 C 0.48492 0.1386 0.60029 0.0
C184 C 0.46394 0.11925 0.63983 0.0
Zn185 Zn 0.40994 0.14837 0.64809 0.0
O186 O 0.37236 0.14031 0.76089 0.0
C187 C 0.35988 0.10105 0.60601 0.0
O188 O 0.40602 0.13416 0.75145 0.0
H189 H 0.46134 0.18007 0.57597 0.0
H190 H 0.32219 0.12481 0.73128 0.0
H191 H 0.42576 0.10701 0.68322 0.0
O192 O 0.35011 0.1154 0.62148 0.0
O193 O 0.38443 0.1103 0.61179 0.0
H194 H 0.36432 0.19716 0.62236 0.0
O195 O 0.41334 0.16281 0.54484 0.0
O196 O 0.37925 0.16817 0.55367 0.0
O197 O 0.43493 0.18622 0.68528 0.0
O198 O 0.40207 0.1935 0.69393 0.0
C199 C 0.39813 0.16982 0.51756 0.0
H200 H 0.28922 0.13616 0.77027 0.0
H201 H 0.33207 0.20968 0.65713 0.0
H202 H 0.49979 0.17618 0.54753 0.0
H203 H 0.46419 0.10196 0.65846 0.0
C204 C 0.30245 0.20896 0.77516 0.0
C205 C 0.29112 0.18329 0.7489 0.0
C206 C 0.28701 0.21791 0.80636 0.0
C207 C 0.22056 0.20764 0.81356 0.0
H208 H 0.24856 0.2529 -0.02216 0.0
C209 C 0.17126 0.26162 0.94753 0.0
C210 C 0.18867 0.28862 0.95692 0.0
C211 C 0.18066 0.24488 0.92792 0.0
C212 C 0.24044 0.24022 0.93213 0.0
H213 H 0.25459 0.14682 0.7348 0.0
H214 H 0.22737 0.16261 0.78986 0.0
H215 H 0.2706 0.2302 0.93336 0.0
H216 H 0.22952 0.31918 0.9499 0.0
H217 H 0.24572 0.29007 0.91804 0.0
H218 H 0.1907 0.21834 0.81177 0.0
C219 C 0.2483 0.17575 0.78582 0.0
C220 C 0.25308 0.22728 0.90655 0.0
C221 C 0.26387 0.16669 0.75473 0.0
C222 C 0.21556 0.29844 0.94555 0.0
C223 C 0.2249 0.28176 0.92691 0.0
C224 C 0.2078 0.22058 0.83948 0.0
C225 C 0.25979 0.20143 0.8124 0.0
C226 C 0.24383 0.21159 0.84553 0.0
C227 C 0.20762 0.25482 0.91815 0.0
C228 C 0.21818 0.23767 0.89756 0.0
H229 H 0.32342 0.22212 0.77258 0.0
H230 H 0.29644 0.23792 0.82526 0.0
H231 H 0.21301 0.19571 0.76637 0.0
H232 H 0.15045 0.25336 0.95615 0.0
H233 H 0.16694 0.22416 0.92142 0.0
C234 C 0.06743 0.31783 0.09872 0.0
C235 C 0.07859 0.34499 0.08816 0.0
C236 C 0.04098 0.30245 0.11742 0.0
C237 C 0.97873 0.30246 0.10618 0.0
H238 H 0.95568 0.2524 0.26142 0.0
C239 C 0.87899 0.26467 0.23869 0.0
C240 C 0.8645 0.23821 0.25915 0.0
C241 C 0.90456 0.27524 0.21377 0.0
C242 C 0.96175 0.26599 0.21718 0.0
H243 H 0.07083 0.37733 0.09035 0.0
H244 H 0.02504 0.35064 0.12279 0.0
H245 H 1.00179 0.27535 0.22594 0.0
H246 H 0.86552 0.20204 0.26929 0.0
H247 H 0.91036 0.2206 0.22516 0.0
H248 H 0.93896 0.29346 0.09755 0.0
C249 C 0.03657 0.34115 0.11589 0.0
C250 C 0.98814 0.27913 0.19697 0.0
C251 C 0.0629 0.35647 0.09777 0.0
C252 C 0.87618 0.22251 0.25392 0.0
C253 C 0.90189 0.23315 0.22901 0.0
C254 C 0.95245 0.28931 0.12612 0.0
C255 C 0.02523 0.31396 0.12517 0.0
C256 C 0.99697 0.29795 0.14236 0.0
C257 C 0.91633 0.25964 0.20856 0.0
C258 C 0.94374 0.27139 0.18293 0.0
H259 H 0.07902 0.3084 0.09176 0.0
H260 H 0.03272 0.28152 0.12419 0.0
H261 H 0.98488 0.31644 0.06284 0.0
H262 H 0.87067 0.27737 0.24227 0.0
H263 H 0.91529 0.29583 0.19969 0.0
C264 C 0.77519 0.06338 0.40177 0.0
C265 C 0.7642 0.07758 0.43088 0.0
C266 C 0.76716 0.03797 0.42596 0.0
C267 C 0.73647 0.99254 0.57492 0.0
H268 H 0.70572 0.93804 0.43253 0.0
C269 C 0.66244 0.88555 0.64688 0.0
C270 C 0.65993 0.86532 0.60271 0.0
C271 C 0.67996 0.9117 0.62958 0.0
C272 C 0.71477 0.95289 0.47311 0.0
H273 H 0.7372 0.07724 0.50904 0.0
H274 H 0.72364 0.03309 0.55271 0.0
H275 H 0.72864 0.9838 0.39595 0.0
H276 H 0.67472 0.85622 0.50843 0.0
H277 H 0.70622 0.90178 0.47965 0.0
H278 H 0.72278 0.96186 0.65229 0.0
C279 C 0.73826 0.04142 0.51113 0.0
C280 C 0.72783 0.97916 0.45193 0.0
C281 C 0.74587 0.06653 0.486 0.0
C282 C 0.67616 0.87156 0.54291 0.0
C283 C 0.69404 0.89768 0.52626 0.0
C284 C 0.72382 0.96627 0.59614 0.0
C285 C 0.74851 0.02675 0.4806 0.0
C286 C 0.73819 0.99919 0.50272 0.0
C287 C 0.69568 0.91817 0.56826 0.0
C288 C 0.71214 0.94606 0.54563 0.0
H289 H 0.78932 0.07164 0.35903 0.0
H290 H 0.7753 0.02698 0.40165 0.0
H291 H 0.74453 0.00771 0.61503 0.0
H292 H 0.64991 0.88122 0.69289 0.0
H293 H 0.68023 0.9268 0.66271 0.0
C294 C 0.58388 0.6747 0.74734 0.0
C295 C 0.59536 0.70189 0.73719 0.0
C296 C 0.59919 0.66369 0.76575 0.0
C297 C 0.66127 0.67741 0.84631 0.0
H298 H 0.64687 0.61375 0.7485 0.0
C299 C 0.71836 0.62235 0.90216 0.0
C300 C 0.70276 0.59496 0.90819 0.0
C301 C 0.70754 0.63736 0.87772 0.0
C302 C 0.65103 0.63143 0.77661 0.0
H303 H 0.6319 0.73893 0.74014 0.0
H304 H 0.65877 0.71951 0.77292 0.0
H305 H 0.62376 0.63658 0.71356 0.0
H306 H 0.66356 0.56188 0.8935 0.0
H307 H 0.64479 0.58793 0.85172 0.0
H308 H 0.68819 0.67184 0.91045 0.0
C309 C 0.63785 0.70683 0.76641 0.0
C310 C 0.63782 0.64451 0.75655 0.0
C311 C 0.62249 0.71791 0.74747 0.0
C312 C 0.67619 0.58292 0.88923 0.0
C313 C 0.66544 0.59785 0.86478 0.0
C314 C 0.6745 0.66423 0.8666 0.0
C315 C 0.62636 0.67955 0.77474 0.0
C316 C 0.64236 0.66731 0.79215 0.0
C317 C 0.68096 0.62522 0.85855 0.0
C318 C 0.66907 0.64078 0.83292 0.0
H319 H 0.56303 0.66177 0.74019 0.0
H320 H 0.5897 0.64265 0.77311 0.0
H321 H 0.66509 0.6949 0.87482 0.0
H322 H 0.73891 0.63222 0.91639 0.0
H323 H 0.72002 0.65839 0.8731 0.0
C324 C 0.0539 0.75538 0.31348 0.0
C325 C 0.07366 0.76393 0.2619 0.0
C326 C 0.02811 0.74729 0.2938 0.0
C327 C 0.98634 0.74523 0.14124 0.0
H328 H 0.93394 0.68236 0.23685 0.0
C329 C 0.88565 0.67102 0.02225 0.0
C330 C 0.86391 0.66013 0.06796 0.0
C331 C 0.9107 0.68813 0.04847 0.0
C332 C 0.94826 0.70016 0.21035 0.0
H333 H 0.08223 0.77139 0.1497 0.0
H334 H 0.03718 0.75653 0.11479 0.0
H335 H 0.97889 0.70417 0.27878 0.0
H336 H 0.85118 0.65919 0.1764 0.0
H337 H 0.89499 0.68899 0.22224 0.0
H338 H 0.95559 0.74015 0.07052 0.0
C339 C 0.04153 0.75668 0.17072 0.0
C340 C 0.97408 0.71277 0.23453 0.0
C341 C 0.06737 0.76513 0.19059 0.0
C342 C 0.86755 0.66744 0.13983 0.0
C343 C 0.89261 0.68431 0.16617 0.0
C344 C 0.96051 0.73238 0.11651 0.0
C345 C 0.02146 0.74715 0.22191 0.0
C346 C 0.99356 0.7353 0.19979 0.0
C347 C 0.91448 0.69441 0.12102 0.0
C348 C 0.94131 0.70955 0.1504 0.0
H349 H 0.05834 0.75458 0.36896 0.0
H350 H 0.01332 0.74067 0.33489 0.0
H351 H 1.00069 0.76278 0.11391 0.0
H352 H 0.88336 0.66584 0.96653 0.0
H353 H 0.92723 0.69549 0.01258 0.0
C354 C 0.35423 0.0575 0.57412 0.0
C355 C 0.34307 0.07347 0.58396 0.0
C356 C 0.33865 0.03119 0.55629 0.0
C357 C 0.27672 0.98358 0.47488 0.0
H358 H 0.29053 0.93354 0.57177 0.0
C359 C 0.22032 0.87203 0.41272 0.0
C360 C 0.23605 0.86041 0.40654 0.0
C361 C 0.23086 0.89754 0.43891 0.0
C362 C 0.28652 0.94727 0.54396 0.0
H363 H 0.30676 0.07438 0.58148 0.0
H364 H 0.27939 0.02807 0.54951 0.0
H365 H 0.31345 0.97923 0.6086 0.0
H366 H 0.27514 0.86649 0.42293 0.0
H367 H 0.29344 0.91082 0.46778 0.0
H368 H 0.25023 0.95161 0.40898 0.0
C369 C 0.30029 0.03613 0.55588 0.0
C370 C 0.29961 0.97342 0.56512 0.0
C371 C 0.31593 0.06257 0.57431 0.0
C372 C 0.26243 0.87478 0.42725 0.0
C373 C 0.2729 0.90016 0.45346 0.0
C374 C 0.26362 0.95733 0.45347 0.0
C375 C 0.31151 0.02014 0.54756 0.0
C376 C 0.29532 0.99197 0.52976 0.0
C377 C 0.25726 0.91185 0.4597 0.0
C378 C 0.26887 0.93904 0.48677 0.0
H379 H 0.37506 0.06522 0.58087 0.0
H380 H 0.34793 0.01947 0.54895 0.0
H381 H 0.27312 0.9975 0.44652 0.0
H382 H 0.1999 0.86146 0.39722 0.0
H383 H 0.21829 0.90597 0.44352 0.0
C384 C 0.13006 0.40199 0.76591 0.0
C385 C 0.13095 0.38175 0.80304 0.0
C386 C 0.13231 0.40332 0.69229 0.0
C387 C 0.1347 0.36897 0.53197 0.0
H388 H 0.19343 0.43721 0.48243 0.0
C389 C 0.18195 0.38471 0.26252 0.0
C390 C 0.18117 0.40491 0.22485 0.0
C391 C 0.17963 0.38354 0.33611 0.0
C392 C 0.17703 0.41811 0.49568 0.0
H393 H 0.13094 0.34506 0.79262 0.0
H394 H 0.13502 0.34751 0.66424 0.0
H395 H 0.17472 0.42969 0.60141 0.0
H396 H 0.18132 0.4417 0.23437 0.0
H397 H 0.17706 0.43949 0.36273 0.0
H398 H 0.13702 0.35737 0.42628 0.0
C399 C 0.13288 0.36246 0.6917 0.0
C400 C 0.16611 0.41389 0.56319 0.0
C401 C 0.13069 0.36114 0.76523 0.0
C402 C 0.18149 0.42565 0.26215 0.0
C403 C 0.17918 0.42447 0.33568 0.0
C404 C 0.14562 0.37318 0.46447 0.0
C405 C 0.13528 0.38436 0.65529 0.0
C406 C 0.14486 0.38929 0.58178 0.0
C407 C 0.17664 0.4026 0.37256 0.0
C408 C 0.16691 0.39777 0.44592 0.0
H409 H 0.12986 0.41794 0.79377 0.0
H410 H 0.13352 0.42008 0.6648 0.0
H411 H 0.11831 0.34986 0.54522 0.0
H412 H 0.18217 0.3687 0.23507 0.0
H413 H 0.17834 0.36681 0.36399 0.0
C414 C 0.75867 0.21012 0.09077 0.0
C415 C 0.76241 0.19166 0.12857 0.0
C416 C 0.7613 0.21181 0.01729 0.0
C417 C 0.80053 0.20193 0.88812 0.0
H418 H 0.7643 0.22182 0.75151 0.0
C419 C 0.81662 0.20822 0.58716 0.0
C420 C 0.81292 0.22665 0.54908 0.0
C421 C 0.81399 0.20664 0.66063 0.0
C422 C 0.77486 0.21676 0.78958 0.0
H423 H 0.76831 0.15828 0.1191 0.0
H424 H 0.77266 0.16114 -0.00984 0.0
H425 H 0.74638 0.20836 0.87077 0.0
H426 H 0.80704 0.26005 0.55795 0.0
H427 H 0.80268 0.25739 0.68692 0.0
H428 H 0.82901 0.21033 0.80695 0.0
C429 C 0.76835 0.17465 0.01766 0.0
C430 C 0.76443 0.20877 0.85735 0.0
C431 C 0.76564 0.1729 0.09126 0.0
C432 C 0.80971 0.24548 0.58606 0.0
C433 C 0.80699 0.24383 0.65966 0.0
C434 C 0.81096 0.20993 0.82038 0.0
C435 C 0.76766 0.19504 -0.01925 0.0
C436 C 0.77716 0.20125 0.9071 0.0
C437 C 0.80767 0.22349 0.69687 0.0
C438 C 0.79822 0.21742 0.77059 0.0
H439 H 0.75579 0.22459 0.11828 0.0
H440 H 0.76056 0.22765 -0.00996 0.0
H441 H 0.81109 0.19686 0.92618 0.0
H442 H 0.81947 0.19368 0.55986 0.0
H443 H 0.8147 0.19083 0.6881 0.0
C444 C 0.57785 0.73175 0.41686 0.0
C445 C 0.55494 0.71428 0.4536 0.0
C446 C 0.57743 0.73382 0.34341 0.0
C447 C 0.5382 0.70574 0.18171 0.0
H448 H 0.56465 0.77884 0.13263 0.0
C449 C 0.51732 0.73208 0.91083 0.0
C450 C 0.54017 0.74948 0.87383 0.0
C451 C 0.51783 0.73019 -0.01569 0.0
C452 C 0.55727 0.7584 0.14566 0.0
H453 H 0.51467 0.68296 0.44254 0.0
H454 H 0.51387 0.68674 0.31395 0.0
H455 H 0.57094 0.76721 0.25254 0.0
H456 H 0.58044 0.78085 0.88424 0.0
H457 H 0.58141 0.77736 0.01296 0.0
H458 H 0.52452 0.69693 0.07487 0.0
C459 C 0.53209 0.69888 0.3418 0.0
C460 C 0.56107 0.75174 0.21383 0.0
C461 C 0.53255 0.69671 0.41539 0.0
C462 C 0.5626 0.76718 0.91169 0.0
C463 C 0.56316 0.76517 -0.01468 0.0
C464 C 0.53439 0.7124 0.11356 0.0
C465 C 0.55409 0.71849 0.30594 0.0
C466 C 0.5516 0.72536 0.23232 0.0
C467 C 0.54122 0.7456 0.0215 0.0
C468 C 0.54383 0.73878 0.09508 0.0
H469 H 0.59554 0.7452 0.44518 0.0
H470 H 0.59484 0.74859 0.31646 0.0
H471 H 0.53081 0.6853 0.19472 0.0
H472 H 0.49962 0.71856 0.88267 0.0
H473 H 0.50046 0.71545 0.0115 0.0
C474 C 0.73421 0.51817 0.7377 0.0
C475 C 0.75126 0.54126 0.77416 0.0
C476 C 0.7323 0.51848 0.66422 0.0
C477 C 0.75983 0.55788 0.50209 0.0
H478 H 0.68657 0.53024 0.45406 0.0
C479 C 0.73256 0.57776 0.23132 0.0
C480 C 0.71549 0.55469 0.19482 0.0
C481 C 0.73453 0.57741 0.30478 0.0
C482 C 0.70705 0.53796 0.46681 0.0
H483 H 0.78204 0.58178 0.76284 0.0
H484 H 0.77848 0.58242 0.63412 0.0
H485 H 0.69851 0.52429 0.57383 0.0
H486 H 0.68474 0.51414 0.20611 0.0
H487 H 0.68838 0.51345 0.33478 0.0
H488 H 0.76836 0.57157 0.39506 0.0
C489 C 0.76659 0.56413 0.66218 0.0
C490 C 0.71389 0.53434 0.53489 0.0
C491 C 0.76863 0.56378 0.73581 0.0
C492 C 0.69816 0.53214 0.23315 0.0
C493 C 0.70026 0.53175 0.30676 0.0
C494 C 0.75298 0.5615 0.43401 0.0
C495 C 0.74732 0.54191 0.62652 0.0
C496 C 0.74033 0.54423 0.55298 0.0
C497 C 0.71954 0.55396 0.34242 0.0
C498 C 0.72654 0.55162 0.41593 0.0
H499 H 0.72097 0.5004 0.76625 0.0
H500 H 0.71781 0.50092 0.63741 0.0
H501 H 0.78031 0.56561 0.51485 0.0
H502 H 0.74578 0.59555 0.20281 0.0
H503 H 0.74903 0.59496 0.33161 0.0
C504 C 0.20964 0.75597 0.5731 0.0
C505 C 0.19031 0.75833 0.53563 0.0
C506 C 0.21132 0.75868 0.64654 0.0
C507 C 0.19856 0.79599 0.77538 0.0
H508 H 0.22158 0.76253 0.91243 0.0
C509 C 0.20332 0.81163 0.07613 0.0
C510 C 0.22255 0.80936 0.11437 0.0
C511 C 0.20207 0.80912 0.00265 0.0
C512 C 0.21564 0.77234 0.87421 0.0
H513 H 0.15542 0.76164 0.54578 0.0
H514 H 0.15826 0.76611 0.67457 0.0
H515 H 0.20902 0.74428 0.79337 0.0
H516 H 0.25758 0.80623 0.10574 0.0
H517 H 0.25546 0.80207 -0.02319 0.0
H518 H 0.20515 0.82404 0.85621 0.0
C519 C 0.17248 0.76289 0.64683 0.0
C520 C 0.20817 0.76171 0.80658 0.0
C521 C 0.17076 0.76014 0.5733 0.0
C522 C 0.24236 0.80774 0.07754 0.0
C523 C 0.24105 0.80515 0.00395 0.0
C524 C 0.20604 0.80663 0.84299 0.0
C525 C 0.19364 0.76369 0.68333 0.0
C526 C 0.19949 0.7734 0.75673 0.0
C527 C 0.22005 0.80436 0.96658 0.0
C528 C 0.21462 0.79488 0.89293 0.0
H529 H 0.22474 0.75417 0.54538 0.0
H530 H 0.22776 0.75909 0.67352 0.0
H531 H 0.19259 0.80579 0.73721 0.0
H532 H 0.18802 0.81326 0.10327 0.0
H533 H 0.18572 0.80868 -0.02497 0.0
C534 C 0.42239 0.17953 0.40411 0.0
C535 C 0.40022 0.1758 0.44156 0.0
C536 C 0.42159 0.17743 0.33061 0.0
C537 C 0.37254 0.13868 0.20181 0.0
H538 H 0.42866 0.17478 0.06546 0.0
C539 C 0.36314 0.12326 0.9013 0.0
C540 C 0.38529 0.12697 0.86383 0.0
C541 C 0.36397 0.12543 -0.02522 0.0
C542 C 0.41305 0.16426 0.10351 0.0
H543 H 0.36122 0.17058 0.43188 0.0
H544 H 0.35991 0.16704 0.30276 0.0
H545 H 0.43309 0.19294 0.18415 0.0
H546 H 0.42431 0.13225 0.87345 0.0
H547 H 0.42568 0.13591 0.00256 0.0
H548 H 0.35249 0.10999 0.12119 0.0
C549 C 0.37762 0.17099 0.33052 0.0
C550 C 0.41546 0.17484 0.17085 0.0
C551 C 0.37845 0.17319 0.40417 0.0
C552 C 0.40709 0.12963 0.90119 0.0
C553 C 0.40796 0.13191 -0.02518 0.0
C554 C 0.37013 0.1281 0.13448 0.0
C555 C 0.39861 0.17159 0.29386 0.0
C556 C 0.3952 0.16214 0.22043 0.0
C557 C 0.38697 0.13132 0.01149 0.0
C558 C 0.39038 0.14079 0.0849 0.0
H559 H 0.4396 0.182 0.43183 0.0
H560 H 0.43807 0.17807 0.30346 0.0
H561 H 0.35693 0.12816 0.23986 0.0
H562 H 0.34592 0.12076 0.87358 0.0
H563 H 0.34749 0.12481 0.00192 0.0
C564 C 0.12063 0.5106 0.07736 0.0
C565 C 0.14316 0.51156 0.04918 0.0
C566 C 0.12033 0.53377 0.09143 0.0
C567 C 0.157 0.60576 0.05583 0.0
H568 H 0.13046 0.6106 0.24005 0.0
C569 C 0.19584 0.70213 0.20693 0.0
C570 C 0.1778 0.708 0.23831 0.0
C571 C 0.18741 0.67766 0.17649 0.0
C572 C 0.13755 0.60941 0.18795 0.0
H573 H 0.18243 0.53749 0.00997 0.0
H574 H 0.18221 0.57763 0.03606 0.0
H575 H 0.1229 0.56819 0.19803 0.0
H576 H 0.13677 0.6928 0.2627 0.0
H577 H 0.12207 0.64947 0.21071 0.0
H578 H 0.17286 0.64725 0.04768 0.0
C579 C 0.16463 0.55913 0.0468 0.0
C580 C 0.13317 0.58512 0.16371 0.0
C581 C 0.16491 0.53608 0.03272 0.0
C582 C 0.15109 0.68882 0.23877 0.0
C583 C 0.1427 0.66407 0.20925 0.0
C584 C 0.1616 0.63002 0.08039 0.0
C585 C 0.1425 0.55834 0.07731 0.0
C586 C 0.14352 0.58316 0.09822 0.0
C587 C 0.16081 0.65836 0.17755 0.0
C588 C 0.15253 0.63218 0.14746 0.0
H589 H 0.10358 0.49201 0.09085 0.0
H590 H 0.10287 0.53245 0.11426 0.0
H591 H 0.1647 0.60487 0.0044 0.0
H592 H 0.21653 0.7165 0.20549 0.0
H593 H 0.20183 0.67366 0.15323 0.0
C594 C 0.69305 0.15447 0.42416 0.0
C595 C 0.71128 0.18145 0.42099 0.0
C596 C 0.66767 0.14558 0.44954 0.0
C597 C 0.62875 0.16482 0.55985 0.0
H598 H 0.57004 0.11741 0.44221 0.0
C599 C 0.51778 0.1406 0.51337 0.0
C600 C 0.50814 0.13628 0.58318 0.0
C601 C 0.54117 0.14114 0.49789 0.0
C602 C 0.58625 0.13048 0.47585 0.0
H603 H 0.71738 0.22022 0.44324 0.0
H604 H 0.67329 0.20468 0.48817 0.0
H605 H 0.61451 0.12855 0.40859 0.0
H606 H 0.51486 0.12833 0.69119 0.0
H607 H 0.55618 0.12966 0.66425 0.0
H608 H 0.60063 0.16736 0.62602 0.0
C609 C 0.6786 0.19042 0.47107 0.0
C610 C 0.61163 0.13672 0.45688 0.0
C611 C 0.70379 0.19931 0.44486 0.0
C612 C 0.52186 0.1316 0.6369 0.0
C613 C 0.54551 0.13251 0.62158 0.0
C614 C 0.60336 0.15834 0.57928 0.0
C615 C 0.66024 0.1635 0.47325 0.0
C616 C 0.63317 0.15444 0.49779 0.0
C617 C 0.55557 0.13767 0.55208 0.0
C618 C 0.58192 0.14158 0.53658 0.0
H619 H 0.69825 0.14024 0.40608 0.0
H620 H 0.65389 0.12471 0.45087 0.0
H621 H 0.64501 0.17837 0.59262 0.0
H622 H 0.50746 0.14411 0.47096 0.0
H623 H 0.54856 0.1454 0.44399 0.0
C624 C 0.23769 0.46666 0.89931 0.0
C625 C 0.23195 0.44244 0.92894 0.0
C626 C 0.26199 0.483 0.86826 0.0
C627 C 0.33032 0.50096 0.87283 0.0
H628 H 0.33314 0.53381 0.69167 0.0
C629 C 0.42827 0.58135 0.75165 0.0
C630 C 0.42764 0.60331 0.72474 0.0
C631 C 0.40498 0.55837 0.76885 0.0
C632 C 0.33273 0.52491 0.74243 0.0
H633 H 0.24731 0.41645 0.94983 0.0
H634 H 0.29033 0.44557 0.89655 0.0
H635 H 0.29114 0.49982 0.73798 0.0
H636 H 0.40205 0.61793 0.69156 0.0
H637 H 0.36174 0.57841 0.72305 0.0
H638 H 0.37175 0.52693 0.87906 0.0
C639 C 0.27576 0.45162 0.89705 0.0
C640 C 0.30868 0.50539 0.76874 0.0
C641 C 0.25118 0.43499 0.92731 0.0
C642 C 0.40325 0.60151 0.7132 0.0
C643 C 0.38008 0.57866 0.73037 0.0
C644 C 0.35443 0.52073 0.8468 0.0
C645 C 0.28127 0.47569 0.8668 0.0
C646 C 0.30716 0.4937 0.83498 0.0
C647 C 0.38061 0.55688 0.75915 0.0
C648 C 0.35579 0.53343 0.78216 0.0
H649 H 0.2233 0.47297 0.89954 0.0
H650 H 0.26585 0.50161 0.8462 0.0
H651 H 0.32965 0.49233 0.92423 0.0
H652 H 0.44676 0.58217 0.76144 0.0
H653 H 0.40608 0.54187 0.7903 0.0
C654 C 0.81224 0.36033 0.29167 0.0
C655 C 0.79829 0.33694 0.25272 0.0
C656 C 0.81139 0.38284 0.27164 0.0
C657 C 0.76674 0.40025 0.19803 0.0
H658 H 0.82389 0.4664 0.12966 0.0
C659 C 0.74565 0.47165 0.04902 0.0
C660 C 0.76134 0.49869 0.06082 0.0
C661 C 0.75281 0.45415 0.07622 0.0
C662 C 0.80782 0.44822 0.14985 0.0
H663 H 0.7743 0.31965 0.15897 0.0
H664 H 0.77204 0.35846 0.12626 0.0
H665 H 0.83273 0.43203 0.17179 0.0
H666 H 0.79729 0.52868 0.10899 0.0
H667 H 0.80963 0.49778 0.15838 0.0
H668 H 0.74175 0.41596 0.1773 0.0
C669 C 0.78347 0.35926 0.1723 0.0
C670 C 0.81291 0.42862 0.1737 0.0
C671 C 0.78459 0.337 0.19154 0.0
C672 C 0.7848 0.50792 0.09915 0.0
C673 C 0.79188 0.49024 0.12721 0.0
C674 C 0.76172 0.41982 0.17529 0.0
C675 C 0.79641 0.38216 0.21287 0.0
C676 C 0.79224 0.40428 0.19616 0.0
C677 C 0.77569 0.46309 0.11696 0.0
C678 C 0.78202 0.44375 0.14878 0.0
H679 H 0.82293 0.36096 0.33912 0.0
H680 H 0.82145 0.40036 0.30369 0.0
H681 H 0.75058 0.3817 0.21599 0.0
H682 H 0.72767 0.4639 0.01872 0.0
H683 H 0.74027 0.43348 0.06526 0.0
C684 C 0.3573 0.80761 0.35922 0.0
C685 C 0.33396 0.79293 0.39806 0.0
C686 C 0.37995 0.80683 0.37758 0.0
C687 C 0.39841 0.76214 0.44805 0.0
H688 H 0.46408 0.82007 0.51532 0.0
C689 C 0.47053 0.74276 0.59839 0.0
C690 C 0.49751 0.75865 0.58617 0.0
C691 C 0.45284 0.74953 0.57056 0.0
C692 C 0.44605 0.80379 0.49538 0.0
H693 H 0.31688 0.76754 0.48988 0.0
H694 H 0.35592 0.76542 0.51957 0.0
H695 H 0.4292 0.82815 0.47388 0.0
H696 H 0.52721 0.79454 0.53654 0.0
H697 H 0.49597 0.80623 0.48624 0.0
H698 H 0.41477 0.73768 0.46866 0.0
C699 C 0.35657 0.77736 0.47483 0.0
C700 C 0.42615 0.80844 0.4719 0.0
C701 C 0.33418 0.77842 0.45731 0.0
C702 C 0.5065 0.78191 0.54676 0.0
C703 C 0.48863 0.78862 0.51815 0.0
C704 C 0.41827 0.75755 0.47045 0.0
C705 C 0.37947 0.79116 0.43449 0.0
C706 C 0.40195 0.78748 0.45001 0.0
C707 C 0.46154 0.77221 0.52885 0.0
C708 C 0.44202 0.77814 0.49666 0.0
H709 H 0.35782 0.81894 0.31321 0.0
H710 H 0.39748 0.81758 0.34576 0.0
H711 H 0.37998 0.74575 0.43047 0.0
H712 H 0.46296 0.72492 0.62948 0.0
H713 H 0.43222 0.73685 0.58182 0.0
C714 C 0.60602 0.40235 0.92873 0.0
C715 C 0.60675 0.42644 0.92095 0.0
C716 C 0.58425 0.37913 0.9066 0.0
C717 C 0.51486 0.3453 0.86643 0.0
H718 H 0.53291 0.30607 0.73582 0.0
C719 C 0.43754 0.24738 0.73296 0.0
C720 C 0.44478 0.22806 0.72751 0.0
C721 C 0.45575 0.27273 0.75575 0.0
C722 C 0.5275 0.31659 0.77277 0.0
H723 H 0.5844 0.44476 0.88776 0.0
H724 H 0.54584 0.4037 0.85032 0.0
H725 H 0.56704 0.34798 0.78083 0.0
H726 H 0.47641 0.21986 0.7443 0.0
H727 H 0.50762 0.26341 0.78532 0.0
H728 H 0.47533 0.31333 0.86013 0.0
C729 C 0.56242 0.4031 0.87304 0.0
C730 C 0.54706 0.34065 0.79824 0.0
C731 C 0.58443 0.42652 0.89462 0.0
C732 C 0.47027 0.23436 0.74689 0.0
C733 C 0.48827 0.25945 0.77004 0.0
C734 C 0.49519 0.32092 0.84146 0.0
C735 C 0.56253 0.37936 0.877 0.0
C736 C 0.54104 0.35498 0.84633 0.0
C737 C 0.48144 0.2791 0.7737 0.0
C738 C 0.50144 0.30604 0.79554 0.0
H739 H 0.62257 0.40147 0.95061 0.0
H740 H 0.58458 0.36097 0.91139 0.0
H741 H 0.5098 0.35608 0.90345 0.0
H742 H 0.418 0.24307 0.71845 0.0
H743 H 0.44989 0.28744 0.7578 0.0
loop_
_geom_bond_atom_site_label_1
_geom_bond_atom_site_label_2
_geom_bond_distance
_geom_bond_site_symmetry_2
_ccdc_geom_bond_type
C0 O16 1.251 . S
C0 O18 1.254 . S
N1 C2 1.333 1_554 S
N1 C6 1.307 . S
N1 Zn7 2.020 . S
C2 N1 1.333 1_556 S
C2 C3 1.379 . S
C2 H20 0.952 . S
C3 C2 1.379 . S
C3 C4 1.390 . S
C3 H30 0.949 . S
C4 C3 1.390 . S
C4 C5 1.357 1_556 S
C5 C4 1.357 1_554 S
C5 C6 1.370 . S
C5 H31 0.950 . S
C6 N1 1.307 . S
C6 C5 1.370 . S
C6 H24 0.948 . S
Zn7 N1 2.020 . S
Zn7 O16 2.039 1_554 S
Zn7 O22 2.034 . S
Zn7 O26 2.025 . S
Zn7 O28 2.024 . S
C8 O27 1.246 . S
C8 O28 1.249 . S
N9 C10 1.307 . S
N9 C11 1.333 . S
N9 Zn15 2.020 . S
C10 N9 1.307 . S
C10 C14 1.370 . S
C10 H21 0.948 1_554 S
C11 N9 1.333 . S
C11 C12 1.379 . S
C11 H19 0.952 . S
C12 C11 1.379 . S
C12 C13 1.390 . S
C12 H32 0.949 . S
C13 C12 1.390 . S
C13 C14 1.357 . S
C14 C10 1.370 . S
C14 C13 1.357 . S
C14 H33 0.950 . S
Zn15 N9 2.020 . S
Zn15 O18 2.025 1_554 S
Zn15 O23 2.024 . S
Zn15 O25 2.039 . S
Zn15 O27 2.034 . S
O16 C0 1.251 . S
O16 Zn7 2.039 1_556 S
C17 O22 1.246 . S
C17 O23 1.249 . S
O18 C0 1.254 . S
O18 Zn15 2.025 1_556 S
H19 C11 0.952 . S
H20 C2 0.952 . S
H21 C10 0.948 1_556 S
O22 Zn7 2.034 . S
O22 C17 1.246 . S
O23 Zn15 2.024 . S
O23 C17 1.249 . S
H24 C6 0.948 . S
O25 Zn15 2.039 . S
O25 C29 1.251 . S
O26 Zn7 2.025 . S
O26 C29 1.254 . S
O27 C8 1.246 . S
O27 Zn15 2.034 . S
O28 Zn7 2.024 . S
O28 C8 1.249 . S
C29 O25 1.251 . S
C29 O26 1.254 . S
H30 C3 0.949 . S
H31 C5 0.950 . S
H32 C12 0.949 . S
H33 C14 0.950 . S
C34 O50 1.251 . S
C34 O52 1.254 . S
N35 C36 1.333 . S
N35 C40 1.307 . S
N35 Zn41 2.020 . S
C36 N35 1.333 . S
C36 C37 1.379 . S
C36 H54 0.952 . S
C37 C36 1.379 . S
C37 C38 1.390 . S
C37 H64 0.949 . S
C38 C37 1.390 . S
C38 C39 1.357 . S
C39 C38 1.357 . S
C39 C40 1.370 . S
C39 H65 0.950 . S
C40 N35 1.307 . S
C40 C39 1.370 . S
C40 H58 0.948 . S
Zn41 N35 2.020 . S
Zn41 O50 2.039 . S
Zn41 O56 2.034 . S
Zn41 O60 2.025 . S
Zn41 O62 2.024 . S
C42 O61 1.246 . S
C42 O62 1.249 . S
N43 C44 1.307 . S
N43 C45 1.333 . S
N43 Zn49 2.020 . S
C44 N43 1.307 . S
C44 C48 1.370 . S
C44 H55 0.948 . S
C45 N43 1.333 . S
C45 C46 1.379 . S
C45 H53 0.952 . S
C46 C45 1.379 . S
C46 C47 1.390 . S
C46 H66 0.949 . S
C47 C46 1.390 . S
C47 C48 1.357 . S
C48 C44 1.370 . S
C48 C47 1.357 . S
C48 H67 0.950 . S
Zn49 N43 2.020 . S
Zn49 O52 2.025 . S
Zn49 O57 2.024 . S
Zn49 O59 2.039 . S
Zn49 O61 2.034 . S
O50 C34 1.251 . S
O50 Zn41 2.039 . S
C51 O56 1.246 . S
C51 O57 1.249 . S
O52 C34 1.254 . S
O52 Zn49 2.025 . S
H53 C45 0.952 . S
H54 C36 0.952 . S
H55 C44 0.948 . S
O56 Zn41 2.034 . S
O56 C51 1.246 . S
O57 Zn49 2.024 . S
O57 C51 1.249 . S
H58 C40 0.948 . S
O59 Zn49 2.039 . S
O59 C63 1.251 . S
O60 Zn41 2.025 . S
O60 C63 1.254 . S
O61 C42 1.246 . S
O61 Zn49 2.034 . S
O62 Zn41 2.024 . S
O62 C42 1.249 . S
C63 O59 1.251 . S
C63 O60 1.254 . S
H64 C37 0.949 . S
H65 C39 0.950 . S
H66 C46 0.949 . S
H67 C48 0.950 . S
C68 O84 1.251 . S
C68 O86 1.254 . S
N69 C70 1.333 . S
N69 C74 1.307 . S
N69 Zn75 2.020 . S
C70 N69 1.333 . S
C70 C71 1.379 . S
C70 H88 0.952 . S
C71 C70 1.379 . S
C71 C72 1.390 . S
C71 H98 0.949 . S
C72 C71 1.390 . S
C72 C73 1.357 . S
C73 C72 1.357 . S
C73 C74 1.370 . S
C73 H99 0.950 . S
C74 N69 1.307 . S
C74 C73 1.370 . S
C74 H92 0.948 . S
Zn75 N69 2.020 . S
Zn75 O84 2.039 . S
Zn75 O90 2.034 . S
Zn75 O94 2.025 . S
Zn75 O96 2.024 . S
C76 O95 1.246 . S
C76 O96 1.249 . S
N77 C78 1.307 . S
N77 C79 1.333 . S
N77 Zn83 2.020 . S
C78 N77 1.307 . S
C78 C82 1.370 . S
C78 H89 0.948 . S
C79 N77 1.333 . S
C79 C80 1.379 . S
C79 H87 0.952 . S
C80 C79 1.379 . S
C80 C81 1.390 . S
C80 H100 0.949 . S
C81 C80 1.390 . S
C81 C82 1.357 . S
C82 C78 1.370 . S
C82 C81 1.357 . S
C82 H101 0.950 . S
Zn83 N77 2.020 . S
Zn83 O86 2.025 . S
Zn83 O91 2.024 . S
Zn83 O93 2.039 . S
Zn83 O95 2.034 . S
O84 C68 1.251 . S
O84 Zn75 2.039 . S
C85 O90 1.246 . S
C85 O91 1.249 . S
O86 C68 1.254 . S
O86 Zn83 2.025 . S
H87 C79 0.952 . S
H88 C70 0.952 . S
H89 C78 0.948 . S
O90 Zn75 2.034 . S
O90 C85 1.246 . S
O91 Zn83 2.024 . S
O91 C85 1.249 . S
H92 C74 0.948 . S
O93 Zn83 2.039 . S
O93 C97 1.251 . S
O94 Zn75 2.025 . S
O94 C97 1.254 . S
O95 C76 1.246 . S
O95 Zn83 2.034 . S
O96 Zn75 2.024 . S
O96 C76 1.249 . S
C97 O93 1.251 . S
C97 O94 1.254 . S
H98 C71 0.949 . S
H99 C73 0.950 . S
H100 C80 0.949 . S
H101 C82 0.950 . S
C102 O118 1.251 . S
C102 O120 1.254 . S
N103 C104 1.333 . S
N103 C108 1.307 1_554 S
N103 Zn109 2.020 . S
C104 N103 1.333 . S
C104 C105 1.379 . S
C104 H122 0.952 . S
C105 C104 1.379 . S
C105 C106 1.390 . S
C105 H132 0.949 . S
C106 C105 1.390 . S
C106 C107 1.357 1_554 S
C107 C106 1.357 1_556 S
C107 C108 1.370 . S
C107 H133 0.950 . S
C108 N103 1.307 1_556 S
C108 C107 1.370 . S
C108 H126 0.948 . S
Zn109 N103 2.020 . S
Zn109 O118 2.039 . S
Zn109 O124 2.034 1_554 S
Zn109 O128 2.025 1_554 S
Zn109 O130 2.024 . S
C110 O129 1.246 . S
C110 O130 1.249 . S
N111 C112 1.307 1_556 S
N111 C113 1.333 . S
N111 Zn117 2.020 . S
C112 N111 1.307 1_554 S
C112 C116 1.370 . S
C112 H123 0.948 . S
C113 N111 1.333 . S
C113 C114 1.379 . S
C113 H121 0.952 . S
C114 C113 1.379 . S
C114 C115 1.390 . S
C114 H134 0.949 . S
C115 C114 1.390 . S
C115 C116 1.357 1_556 S
C116 C112 1.370 . S
C116 C115 1.357 1_554 S
C116 H135 0.950 . S
Zn117 N111 2.020 . S
Zn117 O120 2.025 1_556 S
Zn117 O125 2.024 . S
Zn117 O127 2.039 . S
Zn117 O129 2.034 1_556 S
O118 C102 1.251 . S
O118 Zn109 2.039 . S
C119 O124 1.246 . S
C119 O125 1.249 . S
O120 C102 1.254 . S
O120 Zn117 2.025 1_554 S
H121 C113 0.952 . S
H122 C104 0.952 . S
H123 C112 0.948 . S
O124 Zn109 2.034 1_556 S
O124 C119 1.246 . S
O125 Zn117 2.024 . S
O125 C119 1.249 . S
H126 C108 0.948 . S
O127 Zn117 2.039 . S
O127 C131 1.251 . S
O128 Zn109 2.025 1_556 S
O128 C131 1.254 . S
O129 C110 1.246 . S
O129 Zn117 2.034 1_554 S
O130 Zn109 2.024 . S
O130 C110 1.249 . S
C131 O127 1.251 . S
C131 O128 1.254 . S
H132 C105 0.949 . S
H133 C107 0.950 . S
H134 C114 0.949 . S
H135 C116 0.950 . S
C136 O152 1.251 . S
C136 O154 1.254 . S
N137 C138 1.333 . S
N137 C142 1.307 . S
N137 Zn143 2.020 . S
C138 N137 1.333 . S
C138 C139 1.379 . S
C138 H156 0.952 . S
C139 C138 1.379 . S
C139 C140 1.390 . S
C139 H166 0.949 . S
C140 C139 1.390 . S
C140 C141 1.357 . S
C141 C140 1.357 . S
C141 C142 1.370 . S
C141 H167 0.950 . S
C142 N137 1.307 . S
C142 C141 1.370 . S
C142 H160 0.948 . S
Zn143 N137 2.020 . S
Zn143 O152 2.039 . S
Zn143 O158 2.034 . S
Zn143 O162 2.025 . S
Zn143 O164 2.024 . S
C144 O163 1.246 . S
C144 O164 1.249 . S
N145 C146 1.307 . S
N145 C147 1.333 . S
N145 Zn151 2.020 . S
C146 N145 1.307 . S
C146 C150 1.370 . S
C146 H157 0.948 . S
C147 N145 1.333 . S
C147 C148 1.379 . S
C147 H155 0.952 . S
C148 C147 1.379 . S
C148 C149 1.390 . S
C148 H168 0.949 . S
C149 C148 1.390 . S
C149 C150 1.357 . S
C150 C146 1.370 . S
C150 C149 1.357 . S
C150 H169 0.950 . S
Zn151 N145 2.020 . S
Zn151 O154 2.025 . S
Zn151 O159 2.024 . S
Zn151 O161 2.039 . S
Zn151 O163 2.034 . S
O152 C136 1.251 . S
O152 Zn143 2.039 . S
C153 O158 1.246 . S
C153 O159 1.249 . S
O154 C136 1.254 . S
O154 Zn151 2.025 . S
H155 C147 0.952 . S
H156 C138 0.952 . S
H157 C146 0.948 . S
O158 Zn143 2.034 . S
O158 C153 1.246 . S
O159 Zn151 2.024 . S
O159 C153 1.249 . S
H160 C142 0.948 . S
O161 Zn151 2.039 . S
O161 C165 1.251 . S
O162 Zn143 2.025 . S
O162 C165 1.254 . S
O163 C144 1.246 . S
O163 Zn151 2.034 . S
O164 Zn143 2.024 . S
O164 C144 1.249 . S
C165 O161 1.251 . S
C165 O162 1.254 . S
H166 C139 0.949 . S
H167 C141 0.950 . S
H168 C148 0.949 . S
H169 C150 0.950 . S
C170 O186 1.251 . S
C170 O188 1.254 . S
N171 C172 1.333 . S
N171 C176 1.307 . S
N171 Zn177 2.020 . S
C172 N171 1.333 . S
C172 C173 1.379 . S
C172 H190 0.952 . S
C173 C172 1.379 . S
C173 C174 1.390 . S
C173 H200 0.949 . S
C174 C173 1.390 . S
C174 C175 1.357 . S
C175 C174 1.357 . S
C175 C176 1.370 . S
C175 H201 0.950 . S
C176 N171 1.307 . S
C176 C175 1.370 . S
C176 H194 0.948 . S
Zn177 N171 2.020 . S
Zn177 O186 2.039 . S
Zn177 O192 2.034 . S
Zn177 O196 2.025 . S
Zn177 O198 2.024 . S
C178 O197 1.246 . S
C178 O198 1.249 . S
N179 C180 1.307 . S
N179 C181 1.333 . S
N179 Zn185 2.020 . S
C180 N179 1.307 . S
C180 C184 1.370 . S
C180 H191 0.948 . S
C181 N179 1.333 . S
C181 C182 1.379 . S
C181 H189 0.952 . S
C182 C181 1.379 . S
C182 C183 1.390 . S
C182 H202 0.949 . S
C183 C182 1.390 . S
C183 C184 1.357 . S
C184 C180 1.370 . S
C184 C183 1.357 . S
C184 H203 0.950 . S
Zn185 N179 2.020 . S
Zn185 O188 2.025 . S
Zn185 O193 2.024 . S
Zn185 O195 2.039 . S
Zn185 O197 2.034 . S
O186 C170 1.251 . S
O186 Zn177 2.039 . S
C187 O192 1.246 . S
C187 O193 1.249 . S
O188 C170 1.254 . S
O188 Zn185 2.025 . S
H189 C181 0.952 . S
H190 C172 0.952 . S
H191 C180 0.948 . S
O192 Zn177 2.034 . S
O192 C187 1.246 . S
O193 Zn185 2.024 . S
O193 C187 1.249 . S
H194 C176 0.948 . S
O195 Zn185 2.039 . S
O195 C199 1.251 . S
O196 Zn177 2.025 . S
O196 C199 1.254 . S
O197 C178 1.246 . S
O197 Zn185 2.034 . S
O198 Zn177 2.024 . S
O198 C178 1.249 . S
C199 O195 1.251 . S
C199 O196 1.254 . S
H200 C173 0.949 . S
H201 C175 0.950 . S
H202 C182 0.949 . S
H203 C184 0.950 . S
C204 C205 1.349 . S
C204 C206 1.327 . S
C204 H229 0.950 . S
C205 C204 1.349 . S
C205 C221 1.349 . S
C206 C204 1.327 . S
C206 C225 1.429 . S
C206 H230 0.950 . S
C207 C224 1.574 . S
C207 C226 1.368 . S
C207 H231 0.949 . S
H208 C212 0.949 . S
C209 C210 1.349 . S
C209 C211 1.327 . S
C209 H232 0.950 . S
C210 C209 1.349 . S
C210 C222 1.349 . S
C211 C209 1.327 . S
C211 C227 1.429 . S
C211 H233 0.950 . S
C212 H208 0.949 . S
C212 C220 1.574 . S
C212 C228 1.368 . S
H213 C221 0.950 . S
H214 C219 0.950 . S
H215 C220 0.949 . S
H216 C222 0.950 1_554 S
H217 C223 0.950 . S
H218 C224 0.949 . S
C219 H214 0.950 . S
C219 C221 1.327 . S
C219 C225 1.429 . S
C220 C212 1.574 . S
C220 H215 0.949 . S
C220 C226 1.368 . S
C221 C205 1.349 . S
C221 H213 0.950 . S
C221 C219 1.327 . S
C222 C210 1.349 . S
C222 H216 0.950 1_556 S
C222 C223 1.327 . S
C223 H217 0.950 . S
C223 C222 1.327 . S
C223 C227 1.429 . S
C224 C207 1.574 . S
C224 H218 0.949 . S
C224 C228 1.368 . S
C225 C206 1.429 . S
C225 C219 1.429 . S
C225 C226 1.523 . S
C226 C207 1.368 . S
C226 C220 1.368 . S
C226 C225 1.523 . S
C227 C211 1.429 . S
C227 C223 1.429 . S
C227 C228 1.523 . S
C228 C212 1.368 . S
C228 C224 1.368 . S
C228 C227 1.523 . S
H229 C204 0.950 . S
H230 C206 0.950 . S
H231 C207 0.949 . S
H232 C209 0.950 . S
H233 C211 0.950 . S
C234 C235 1.349 . S
C234 C236 1.327 . S
C234 H259 0.950 . S
C235 C234 1.349 . S
C235 C251 1.349 . S
C236 C234 1.327 . S
C236 C255 1.429 . S
C236 H260 0.950 . S
C237 C254 1.574 . S
C237 C256 1.368 . S
C237 H261 0.949 . S
H238 C242 0.949 . S
C239 C240 1.349 . S
C239 C241 1.327 . S
C239 H262 0.950 . S
C240 C239 1.349 . S
C240 C252 1.349 . S
C241 C239 1.327 . S
C241 C257 1.429 . S
C241 H263 0.950 . S
C242 H238 0.949 . S
C242 C250 1.574 . S
C242 C258 1.368 . S
H243 C251 0.950 . S
H244 C249 0.950 . S
H245 C250 0.949 . S
H246 C252 0.950 . S
H247 C253 0.950 . S
H248 C254 0.949 . S
C249 H244 0.950 . S
C249 C251 1.327 . S
C249 C255 1.429 . S
C250 C242 1.574 . S
C250 H245 0.949 . S
C250 C256 1.368 . S
C251 C235 1.349 . S
C251 H243 0.950 . S
C251 C249 1.327 . S
C252 C240 1.349 . S
C252 H246 0.950 . S
C252 C253 1.327 . S
C253 H247 0.950 . S
C253 C252 1.327 . S
C253 C257 1.429 . S
C254 C237 1.574 . S
C254 H248 0.949 . S
C254 C258 1.368 . S
C255 C236 1.429 . S
C255 C249 1.429 . S
C255 C256 1.523 1_455 S
C256 C237 1.368 . S
C256 C250 1.368 . S
C256 C255 1.523 1_655 S
C257 C241 1.429 . S
C257 C253 1.429 . S
C257 C258 1.523 . S
C258 C242 1.368 . S
C258 C254 1.368 . S
C258 C257 1.523 . S
H259 C234 0.950 . S
H260 C236 0.950 . S
H261 C237 0.949 . S
H262 C239 0.950 . S
H263 C241 0.950 . S
C264 C265 1.349 . S
C264 C266 1.327 . S
C264 H289 0.950 . S
C265 C264 1.349 . S
C265 C281 1.349 . S
C266 C264 1.327 . S
C266 C285 1.429 . S
C266 H290 0.950 . S
C267 C284 1.574 . S
C267 C286 1.368 . S
C267 H291 0.949 . S
H268 C272 0.949 . S
C269 C270 1.349 . S
C269 C271 1.327 . S
C269 H292 0.950 . S
C270 C269 1.349 . S
C270 C282 1.349 . S
C271 C269 1.327 . S
C271 C287 1.429 . S
C271 H293 0.950 . S
C272 H268 0.949 . S
C272 C280 1.574 . S
C272 C288 1.368 . S
H273 C281 0.950 . S
H274 C279 0.950 . S
H275 C280 0.949 . S
H276 C282 0.950 . S
H277 C283 0.950 . S
H278 C284 0.949 . S
C279 H274 0.950 . S
C279 C281 1.327 . S
C279 C285 1.429 . S
C280 C272 1.574 . S
C280 H275 0.949 . S
C280 C286 1.368 . S
C281 C265 1.349 . S
C281 H273 0.950 . S
C281 C279 1.327 . S
C282 C270 1.349 . S
C282 H276 0.950 . S
C282 C283 1.327 . S
C283 H277 0.950 . S
C283 C282 1.327 . S
C283 C287 1.429 . S
C284 C267 1.574 . S
C284 H278 0.949 . S
C284 C288 1.368 . S
C285 C266 1.429 . S
C285 C279 1.429 . S
C285 C286 1.523 1_545 S
C286 C267 1.368 . S
C286 C280 1.368 . S
C286 C285 1.523 1_565 S
C287 C271 1.429 . S
C287 C283 1.429 . S
C287 C288 1.523 . S
C288 C272 1.368 . S
C288 C284 1.368 . S
C288 C287 1.523 . S
H289 C264 0.950 . S
H290 C266 0.950 . S
H291 C267 0.949 . S
H292 C269 0.950 . S
H293 C271 0.950 . S
C294 C295 1.349 . S
C294 C296 1.327 . S
C294 H319 0.950 . S
C295 C294 1.349 . S
C295 C311 1.349 . S
C296 C294 1.327 . S
C296 C315 1.429 . S
C296 H320 0.950 . S
C297 C314 1.574 . S
C297 C316 1.368 . S
C297 H321 0.949 . S
H298 C302 0.949 . S
C299 C300 1.349 . S
C299 C301 1.327 . S
C299 H322 0.950 1_556 S
C300 C299 1.349 . S
C300 C312 1.349 . S
C301 C299 1.327 . S
C301 C317 1.429 . S
C301 H323 0.950 1_556 S
C302 H298 0.949 . S
C302 C310 1.574 . S
C302 C318 1.368 . S
H303 C311 0.950 . S
H304 C309 0.950 . S
H305 C310 0.949 . S
H306 C312 0.950 . S
H307 C313 0.950 . S
H308 C314 0.949 . S
C309 H304 0.950 . S
C309 C311 1.327 . S
C309 C315 1.429 . S
C310 C302 1.574 . S
C310 H305 0.949 . S
C310 C316 1.368 . S
C311 C295 1.349 . S
C311 H303 0.950 . S
C311 C309 1.327 . S
C312 C300 1.349 . S
C312 H306 0.950 . S
C312 C313 1.327 . S
C313 H307 0.950 . S
C313 C312 1.327 . S
C313 C317 1.429 . S
C314 C297 1.574 . S
C314 H308 0.949 . S
C314 C318 1.368 . S
C315 C296 1.429 . S
C315 C309 1.429 . S
C315 C316 1.523 . S
C316 C297 1.368 . S
C316 C310 1.368 . S
C316 C315 1.523 . S
C317 C301 1.429 . S
C317 C313 1.429 . S
C317 C318 1.523 . S
C318 C302 1.368 . S
C318 C314 1.368 . S
C318 C317 1.523 . S
H319 C294 0.950 . S
H320 C296 0.950 . S
H321 C297 0.949 . S
H322 C299 0.950 1_554 S
H323 C301 0.950 1_554 S
C324 C325 1.349 . S
C324 C326 1.327 . S
C324 H349 0.950 . S
C325 C324 1.349 . S
C325 C341 1.349 . S
C326 C324 1.327 . S
C326 C345 1.429 . S
C326 H350 0.950 . S
C327 C344 1.574 . S
C327 C346 1.368 . S
C327 H351 0.949 1_655 S
H328 C332 0.949 . S
C329 C330 1.349 . S
C329 C331 1.327 . S
C329 H352 0.950 1_554 S
C330 C329 1.349 . S
C330 C342 1.349 . S
C331 C329 1.327 . S
C331 C347 1.429 . S
C331 H353 0.950 . S
C332 H328 0.949 . S
C332 C340 1.574 . S
C332 C348 1.368 . S
H333 C341 0.950 . S
H334 C339 0.950 . S
H335 C340 0.949 . S
H336 C342 0.950 . S
H337 C343 0.950 . S
H338 C344 0.949 . S
C339 H334 0.950 . S
C339 C341 1.327 . S
C339 C345 1.429 . S
C340 C332 1.574 . S
C340 H335 0.949 . S
C340 C346 1.368 . S
C341 C325 1.349 . S
C341 H333 0.950 . S
C341 C339 1.327 . S
C342 C330 1.349 . S
C342 H336 0.950 . S
C342 C343 1.327 . S
C343 H337 0.950 . S
C343 C342 1.327 . S
C343 C347 1.429 . S
C344 C327 1.574 . S
C344 H338 0.949 . S
C344 C348 1.368 . S
C345 C326 1.429 . S
C345 C339 1.429 . S
C345 C346 1.523 1_455 S
C346 C327 1.368 . S
C346 C340 1.368 . S
C346 C345 1.523 1_655 S
C347 C331 1.429 . S
C347 C343 1.429 . S
C347 C348 1.523 . S
C348 C332 1.368 . S
C348 C344 1.368 . S
C348 C347 1.523 . S
H349 C324 0.950 . S
H350 C326 0.950 . S
H351 C327 0.949 1_455 S
H352 C329 0.950 1_556 S
H353 C331 0.950 . S
C354 C355 1.349 . S
C354 C356 1.327 . S
C354 H379 0.950 . S
C355 C354 1.349 . S
C355 C371 1.349 . S
C356 C354 1.327 . S
C356 C375 1.429 . S
C356 H380 0.950 . S
C357 C374 1.574 . S
C357 C376 1.368 . S
C357 H381 0.949 . S
H358 C362 0.949 . S
C359 C360 1.349 . S
C359 C361 1.327 . S
C359 H382 0.950 . S
C360 C359 1.349 . S
C360 C372 1.349 . S
C361 C359 1.327 . S
C361 C377 1.429 . S
C361 H383 0.950 . S
C362 H358 0.949 . S
C362 C370 1.574 . S
C362 C378 1.368 . S
H363 C371 0.950 . S
H364 C369 0.950 . S
H365 C370 0.963 . S
H366 C372 0.950 . S
H367 C373 0.950 . S
H368 C374 0.949 . S
C369 H364 0.950 . S
C369 C371 1.327 . S
C369 C375 1.429 . S
C370 C362 1.574 . S
C370 H365 0.963 . S
C370 C376 1.368 . S
C371 C355 1.349 . S
C371 H363 0.950 . S
C371 C369 1.327 . S
C372 C360 1.349 . S
C372 H366 0.950 . S
C372 C373 1.327 . S
C373 H367 0.950 . S
C373 C372 1.327 . S
C373 C377 1.429 . S
C374 C357 1.574 . S
C374 H368 0.949 . S
C374 C378 1.368 . S
C375 C356 1.429 . S
C375 C369 1.429 . S
C375 C376 1.523 1_545 S
C376 C357 1.368 . S
C376 C370 1.368 . S
C376 C375 1.523 1_565 S
C377 C361 1.429 . S
C377 C373 1.429 . S
C377 C378 1.523 . S
C378 C362 1.368 . S
C378 C374 1.368 . S
C378 C377 1.523 . S
H379 C354 0.950 . S
H380 C356 0.950 . S
H381 C357 0.949 . S
H382 C359 0.950 . S
H383 C361 0.950 . S
C384 C385 1.349 . S
C384 C386 1.327 . S
C384 H409 0.950 . S
C385 C384 1.349 . S
C385 C401 1.349 . S
C386 C384 1.327 . S
C386 C405 1.429 . S
C386 H410 0.950 . S
C387 C404 1.574 . S
C387 C406 1.368 . S
C387 H411 0.949 . S
H388 C392 0.949 . S
C389 C390 1.349 . S
C389 C391 1.327 . S
C389 H412 0.950 . S
C390 C389 1.349 . S
C390 C402 1.349 . S
C391 C389 1.327 . S
C391 C407 1.429 . S
C391 H413 0.950 . S
C392 H388 0.949 . S
C392 C400 1.574 . S
C392 C408 1.368 . S
H393 C401 0.950 . S
H394 C399 0.950 . S
H395 C400 0.949 . S
H396 C402 0.950 . S
H397 C403 0.950 . S
H398 C404 0.949 . S
C399 H394 0.950 . S
C399 C401 1.327 . S
C399 C405 1.429 . S
C400 C392 1.574 . S
C400 H395 0.949 . S
C400 C406 1.368 . S
C401 C385 1.349 . S
C401 H393 0.950 . S
C401 C399 1.327 . S
C402 C390 1.349 . S
C402 H396 0.950 . S
C402 C403 1.327 . S
C403 H397 0.950 . S
C403 C402 1.327 . S
C403 C407 1.429 . S
C404 C387 1.574 . S
C404 H398 0.949 . S
C404 C408 1.368 . S
C405 C386 1.429 . S
C405 C399 1.429 . S
C405 C406 1.523 . S
C406 C387 1.368 . S
C406 C400 1.368 . S
C406 C405 1.523 . S
C407 C391 1.429 . S
C407 C403 1.429 . S
C407 C408 1.523 . S
C408 C392 1.368 . S
C408 C404 1.368 . S
C408 C407 1.523 . S
H409 C384 0.950 . S
H410 C386 0.950 . S
H411 C387 0.949 . S
H412 C389 0.950 . S
H413 C391 0.950 . S
C414 C415 1.349 . S
C414 C416 1.327 . S
C414 H439 0.950 . S
C415 C414 1.349 . S
C415 C431 1.349 . S
C416 C414 1.327 . S
C416 C435 1.429 1_554 S
C416 H440 0.950 . S
C417 C434 1.574 . S
C417 C436 1.368 . S
C417 H441 0.949 . S
H418 C422 0.949 . S
C419 C420 1.349 . S
C419 C421 1.327 . S
C419 H442 0.950 . S
C420 C419 1.349 . S
C420 C432 1.349 . S
C421 C419 1.327 . S
C421 C437 1.429 . S
C421 H443 0.950 . S
C422 H418 0.949 . S
C422 C430 1.574 . S
C422 C438 1.368 . S
H423 C431 0.950 . S
H424 C429 0.950 . S
H425 C430 0.949 . S
H426 C432 0.950 . S
H427 C433 0.950 . S
H428 C434 0.949 . S
C429 H424 0.950 . S
C429 C431 1.327 . S
C429 C435 1.429 1_554 S
C430 C422 1.574 . S
C430 H425 0.949 . S
C430 C436 1.368 . S
C431 C415 1.349 . S
C431 H423 0.950 . S
C431 C429 1.327 . S
C432 C420 1.349 . S
C432 H426 0.950 . S
C432 C433 1.327 . S
C433 H427 0.950 . S
C433 C432 1.327 . S
C433 C437 1.429 . S
C434 C417 1.574 . S
C434 H428 0.949 . S
C434 C438 1.368 . S
C435 C416 1.429 1_556 S
C435 C429 1.429 1_556 S
C435 C436 1.523 . S
C436 C417 1.368 . S
C436 C430 1.368 . S
C436 C435 1.523 . S
C437 C421 1.429 . S
C437 C433 1.429 . S
C437 C438 1.523 . S
C438 C422 1.368 . S
C438 C434 1.368 . S
C438 C437 1.523 . S
H439 C414 0.950 . S
H440 C416 0.950 . S
H441 C417 0.949 . S
H442 C419 0.950 . S
H443 C421 0.950 . S
C444 C445 1.349 . S
C444 C446 1.327 . S
C444 H469 0.950 . S
C445 C444 1.349 . S
C445 C461 1.349 . S
C446 C444 1.327 . S
C446 C465 1.429 . S
C446 H470 0.950 . S
C447 C464 1.574 . S
C447 C466 1.368 . S
C447 H471 0.949 . S
H448 C452 0.949 . S
C449 C450 1.349 . S
C449 C451 1.327 1_556 S
C449 H472 0.950 . S
C450 C449 1.349 . S
C450 C462 1.349 . S
C451 C449 1.327 1_554 S
C451 C467 1.429 . S
C451 H473 0.950 . S
C452 H448 0.949 . S
C452 C460 1.574 . S
C452 C468 1.368 . S
H453 C461 0.950 . S
H454 C459 0.950 . S
H455 C460 0.949 . S
H456 C462 0.950 . S
H457 C463 0.950 . S
H458 C464 0.949 . S
C459 H454 0.950 . S
C459 C461 1.327 . S
C459 C465 1.429 . S
C460 C452 1.574 . S
C460 H455 0.949 . S
C460 C466 1.368 . S
C461 C445 1.349 . S
C461 H453 0.950 . S
C461 C459 1.327 . S
C462 C450 1.349 . S
C462 H456 0.950 . S
C462 C463 1.327 1_556 S
C463 H457 0.950 . S
C463 C462 1.327 1_554 S
C463 C467 1.429 . S
C464 C447 1.574 . S
C464 H458 0.949 . S
C464 C468 1.368 . S
C465 C446 1.429 . S
C465 C459 1.429 . S
C465 C466 1.523 . S
C466 C447 1.368 . S
C466 C460 1.368 . S
C466 C465 1.523 . S
C467 C451 1.429 . S
C467 C463 1.429 . S
C467 C468 1.523 . S
C468 C452 1.368 . S
C468 C464 1.368 . S
C468 C467 1.523 . S
H469 C444 0.950 . S
H470 C446 0.950 . S
H471 C447 0.949 . S
H472 C449 0.950 . S
H473 C451 0.950 . S
C474 C475 1.349 . S
C474 C476 1.327 . S
C474 H499 0.950 . S
C475 C474 1.349 . S
C475 C491 1.349 . S
C476 C474 1.327 . S
C476 C495 1.429 . S
C476 H500 0.950 . S
C477 C494 1.574 . S
C477 C496 1.368 . S
C477 H501 0.949 . S
H478 C482 0.949 . S
C479 C480 1.349 . S
C479 C481 1.327 . S
C479 H502 0.950 . S
C480 C479 1.349 . S
C480 C492 1.349 . S
C481 C479 1.327 . S
C481 C497 1.429 . S
C481 H503 0.950 . S
C482 H478 0.949 . S
C482 C490 1.574 . S
C482 C498 1.368 . S
H483 C491 0.950 . S
H484 C489 0.950 . S
H485 C490 0.949 . S
H486 C492 0.950 . S
H487 C493 0.950 . S
H488 C494 0.949 . S
C489 H484 0.950 . S
C489 C491 1.327 . S
C489 C495 1.429 . S
C490 C482 1.574 . S
C490 H485 0.949 . S
C490 C496 1.368 . S
C491 C475 1.349 . S
C491 H483 0.950 . S
C491 C489 1.327 . S
C492 C480 1.349 . S
C492 H486 0.950 . S
C492 C493 1.327 . S
C493 H487 0.950 . S
C493 C492 1.327 . S
C493 C497 1.429 . S
C494 C477 1.574 . S
C494 H488 0.949 . S
C494 C498 1.368 . S
C495 C476 1.429 . S
C495 C489 1.429 . S
C495 C496 1.523 . S
C496 C477 1.368 . S
C496 C490 1.368 . S
C496 C495 1.523 . S
C497 C481 1.429 . S
C497 C493 1.429 . S
C497 C498 1.523 . S
C498 C482 1.368 . S
C498 C494 1.368 . S
C498 C497 1.523 . S
H499 C474 0.950 . S
H500 C476 0.950 . S
H501 C477 0.949 . S
H502 C479 0.950 . S
H503 C481 0.950 . S
C504 C505 1.349 . S
C504 C506 1.327 . S
C504 H529 0.950 . S
C505 C504 1.349 . S
C505 C521 1.349 . S
C506 C504 1.327 . S
C506 C525 1.429 . S
C506 H530 0.950 . S
C507 C524 1.574 . S
C507 C526 1.368 . S
C507 H531 0.949 . S
H508 C512 0.949 . S
C509 C510 1.349 . S
C509 C511 1.327 . S
C509 H532 0.950 . S
C510 C509 1.349 . S
C510 C522 1.349 . S
C511 C509 1.327 . S
C511 C527 1.429 . S
C511 H533 0.950 . S
C512 H508 0.949 . S
C512 C520 1.574 . S
C512 C528 1.368 . S
H513 C521 0.950 . S
H514 C519 0.950 . S
H515 C520 0.949 . S
H516 C522 0.950 . S
H517 C523 0.950 . S
H518 C524 0.949 . S
C519 H514 0.950 . S
C519 C521 1.327 . S
C519 C525 1.429 . S
C520 C512 1.574 . S
C520 H515 0.949 . S
C520 C526 1.368 . S
C521 C505 1.349 . S
C521 H513 0.950 . S
C521 C519 1.327 . S
C522 C510 1.349 . S
C522 H516 0.950 . S
C522 C523 1.327 . S
C523 H517 0.950 . S
C523 C522 1.327 . S
C523 C527 1.429 . S
C524 C507 1.574 . S
C524 H518 0.949 . S
C524 C528 1.368 . S
C525 C506 1.429 . S
C525 C519 1.429 . S
C525 C526 1.523 . S
C526 C507 1.368 . S
C526 C520 1.368 . S
C526 C525 1.523 . S
C527 C511 1.429 . S
C527 C523 1.429 . S
C527 C528 1.523 1_554 S
C528 C512 1.368 . S
C528 C524 1.368 . S
C528 C527 1.523 1_556 S
H529 C504 0.950 . S
H530 C506 0.950 . S
H531 C507 0.949 . S
H532 C509 0.950 . S
H533 C511 0.950 . S
C534 C535 1.349 . S
C534 C536 1.327 . S
C534 H559 0.950 . S
C535 C534 1.349 . S
C535 C551 1.349 . S
C536 C534 1.327 . S
C536 C555 1.429 . S
C536 H560 0.950 . S
C537 C554 1.574 . S
C537 C556 1.368 . S
C537 H561 0.949 . S
H538 C542 0.949 . S
C539 C540 1.349 . S
C539 C541 1.327 . S
C539 H562 0.950 . S
C540 C539 1.349 . S
C540 C552 1.349 . S
C541 C539 1.327 . S
C541 C557 1.429 1_556 S
C541 H563 0.950 . S
C542 H538 0.949 . S
C542 C550 1.574 . S
C542 C558 1.368 . S
H543 C551 0.950 . S
H544 C549 0.950 . S
H545 C550 0.949 . S
H546 C552 0.950 . S
H547 C553 0.950 . S
H548 C554 0.949 . S
C549 H544 0.950 . S
C549 C551 1.327 . S
C549 C555 1.429 . S
C550 C542 1.574 . S
C550 H545 0.949 . S
C550 C556 1.368 . S
C551 C535 1.349 . S
C551 H543 0.950 . S
C551 C549 1.327 . S
C552 C540 1.349 . S
C552 H546 0.950 . S
C552 C553 1.327 . S
C553 H547 0.950 . S
C553 C552 1.327 . S
C553 C557 1.429 1_556 S
C554 C537 1.574 . S
C554 H548 0.949 . S
C554 C558 1.368 . S
C555 C536 1.429 . S
C555 C549 1.429 . S
C555 C556 1.523 . S
C556 C537 1.368 . S
C556 C550 1.368 . S
C556 C555 1.523 . S
C557 C541 1.429 1_554 S
C557 C553 1.429 1_554 S
C557 C558 1.523 . S
C558 C542 1.368 . S
C558 C554 1.368 . S
C558 C557 1.523 . S
H559 C534 0.950 . S
H560 C536 0.950 . S
H561 C537 0.949 . S
H562 C539 0.950 . S
H563 C541 0.950 . S
C564 C565 1.349 . S
C564 C566 1.327 . S
C564 H589 0.950 . S
C565 C564 1.349 . S
C565 C581 1.349 . S
C566 C564 1.327 . S
C566 C585 1.429 . S
C566 H590 0.950 . S
C567 C584 1.574 . S
C567 C586 1.368 . S
C567 H591 0.949 . S
H568 C572 0.949 . S
C569 C570 1.349 . S
C569 C571 1.327 . S
C569 H592 0.950 . S
C570 C569 1.349 . S
C570 C582 1.349 . S
C571 C569 1.327 . S
C571 C587 1.429 . S
C571 H593 0.950 . S
C572 H568 0.949 . S
C572 C580 1.574 . S
C572 C588 1.368 . S
H573 C581 0.950 . S
H574 C579 0.950 . S
H575 C580 0.949 . S
H576 C582 0.950 . S
H577 C583 0.950 . S
H578 C584 0.949 . S
C579 H574 0.950 . S
C579 C581 1.327 . S
C579 C585 1.429 . S
C580 C572 1.574 . S
C580 H575 0.949 . S
C580 C586 1.368 . S
C581 C565 1.349 . S
C581 H573 0.950 . S
C581 C579 1.327 . S
C582 C570 1.349 . S
C582 H576 0.950 . S
C582 C583 1.327 . S
C583 H577 0.950 . S
C583 C582 1.327 . S
C583 C587 1.429 . S
C584 C567 1.574 . S
C584 H578 0.949 . S
C584 C588 1.368 . S
C585 C566 1.429 . S
C585 C579 1.429 . S
C585 C586 1.523 . S
C586 C567 1.368 . S
C586 C580 1.368 . S
C586 C585 1.523 . S
C587 C571 1.429 . S
C587 C583 1.429 . S
C587 C588 1.523 . S
C588 C572 1.368 . S
C588 C584 1.368 . S
C588 C587 1.523 . S
H589 C564 0.950 . S
H590 C566 0.950 . S
H591 C567 0.949 . S
H592 C569 0.950 . S
H593 C571 0.950 . S
C594 C595 1.349 . S
C594 C596 1.327 . S
C594 H619 0.950 . S
C595 C594 1.349 . S
C595 C611 1.349 . S
C596 C594 1.327 . S
C596 C615 1.429 . S
C596 H620 0.950 . S
C597 C614 1.574 . S
C597 C616 1.368 . S
C597 H621 0.949 . S
H598 C602 0.949 . S
C599 C600 1.349 . S
C599 C601 1.327 . S
C599 H622 0.950 . S
C600 C599 1.349 . S
C600 C612 1.349 . S
C601 C599 1.327 . S
C601 C617 1.429 . S
C601 H623 0.950 . S
C602 H598 0.949 . S
C602 C610 1.574 . S
C602 C618 1.368 . S
H603 C611 0.950 . S
H604 C609 0.950 . S
H605 C610 0.949 . S
H606 C612 0.950 . S
H607 C613 0.950 . S
H608 C614 0.949 . S
C609 H604 0.950 . S
C609 C611 1.327 . S
C609 C615 1.429 . S
C610 C602 1.574 . S
C610 H605 0.949 . S
C610 C616 1.368 . S
C611 C595 1.349 . S
C611 H603 0.950 . S
C611 C609 1.327 . S
C612 C600 1.349 . S
C612 H606 0.950 . S
C612 C613 1.327 . S
C613 H607 0.950 . S
C613 C612 1.327 . S
C613 C617 1.429 . S
C614 C597 1.574 . S
C614 H608 0.949 . S
C614 C618 1.368 . S
C615 C596 1.429 . S
C615 C609 1.429 . S
C615 C616 1.523 . S
C616 C597 1.368 . S
C616 C610 1.368 . S
C616 C615 1.523 . S
C617 C601 1.429 . S
C617 C613 1.429 . S
C617 C618 1.523 . S
C618 C602 1.368 . S
C618 C614 1.368 . S
C618 C617 1.523 . S
H619 C594 0.950 . S
H620 C596 0.950 . S
H621 C597 0.949 . S
H622 C599 0.950 . S
H623 C601 0.950 . S
C624 C625 1.339 1_556 S
C624 C626 1.327 . S
C624 H649 0.950 . S
C625 C624 1.339 1_554 S
C625 C641 1.355 . S
C626 C624 1.327 . S
C626 C645 1.429 . S
C626 H650 0.950 . S
C627 C644 1.574 . S
C627 C646 1.368 . S
C627 H651 0.949 1_556 S
H628 C632 0.949 . S
C629 C630 1.349 . S
C629 C631 1.327 . S
C629 H652 0.950 . S
C630 C629 1.349 . S
C630 C642 1.349 . S
C631 C629 1.327 . S
C631 C647 1.429 . S
C631 H653 0.950 . S
C632 H628 0.949 . S
C632 C640 1.574 . S
C632 C648 1.368 . S
H633 C641 0.950 . S
H634 C639 0.950 . S
H635 C640 0.949 . S
H636 C642 0.950 . S
H637 C643 0.950 . S
H638 C644 0.949 . S
C639 H634 0.950 . S
C639 C641 1.327 . S
C639 C645 1.429 1_554 S
C640 C632 1.574 . S
C640 H635 0.949 . S
C640 C646 1.368 . S
C641 C625 1.355 . S
C641 H633 0.950 . S
C641 C639 1.327 . S
C642 C630 1.349 . S
C642 H636 0.950 . S
C642 C643 1.327 . S
C643 H637 0.950 . S
C643 C642 1.327 . S
C643 C647 1.429 . S
C644 C627 1.574 . S
C644 H638 0.949 . S
C644 C648 1.368 . S
C645 C626 1.429 . S
C645 C639 1.429 1_556 S
C645 C646 1.523 . S
C646 C627 1.368 . S
C646 C640 1.368 . S
C646 C645 1.523 . S
C647 C631 1.429 . S
C647 C643 1.429 . S
C647 C648 1.523 . S
C648 C632 1.368 . S
C648 C644 1.368 . S
C648 C647 1.523 . S
H649 C624 0.950 . S
H650 C626 0.950 . S
H651 C627 0.949 1_554 S
H652 C629 0.950 . S
H653 C631 0.950 . S
C654 C655 1.349 . S
C654 C656 1.327 . S
C654 H679 0.950 . S
C655 C654 1.349 . S
C655 C671 1.349 . S
C656 C654 1.327 . S
C656 C675 1.429 . S
C656 H680 0.950 . S
C657 C674 1.574 . S
C657 C676 1.368 . S
C657 H681 0.949 . S
H658 C662 0.949 . S
C659 C660 1.349 . S
C659 C661 1.327 . S
C659 H682 0.950 1_554 S
C660 C659 1.349 . S
C660 C672 1.349 . S
C661 C659 1.327 . S
C661 C677 1.429 . S
C661 H683 0.957 . S
C662 H658 0.949 . S
C662 C670 1.574 . S
C662 C678 1.368 . S
H663 C671 0.950 . S
H664 C669 0.950 . S
H665 C670 0.949 . S
H666 C672 0.950 . S
H667 C673 0.950 . S
H668 C674 0.949 . S
C669 H664 0.950 . S
C669 C671 1.327 . S
C669 C675 1.429 . S
C670 C662 1.574 . S
C670 H665 0.949 . S
C670 C676 1.368 . S
C671 C655 1.349 . S
C671 H663 0.950 . S
C671 C669 1.327 . S
C672 C660 1.349 . S
C672 H666 0.950 . S
C672 C673 1.327 . S
C673 H667 0.950 . S
C673 C672 1.327 . S
C673 C677 1.429 . S
C674 C657 1.574 . S
C674 H668 0.949 . S
C674 C678 1.368 . S
C675 C656 1.429 . S
C675 C669 1.429 . S
C675 C676 1.523 . S
C676 C657 1.368 . S
C676 C670 1.368 . S
C676 C675 1.523 . S
C677 C661 1.429 . S
C677 C673 1.429 . S
C677 C678 1.523 . S
C678 C662 1.368 . S
C678 C674 1.368 . S
C678 C677 1.523 . S
H679 C654 0.950 . S
H680 C656 0.950 . S
H681 C657 0.949 . S
H682 C659 0.950 1_556 S
H683 C661 0.957 . S
C684 C685 1.349 . S
C684 C686 1.327 . S
C684 H709 0.950 . S
C685 C684 1.349 . S
C685 C701 1.349 . S
C686 C684 1.327 . S
C686 C705 1.429 . S
C686 H710 0.950 . S
C687 C704 1.574 . S
C687 C706 1.368 . S
C687 H711 0.949 . S
H688 C692 0.949 . S
C689 C690 1.349 . S
C689 C691 1.327 . S
C689 H712 0.950 . S
C690 C689 1.349 . S
C690 C702 1.349 . S
C691 C689 1.327 . S
C691 C707 1.429 . S
C691 H713 0.950 . S
C692 H688 0.949 . S
C692 C700 1.574 . S
C692 C708 1.368 . S
H693 C701 0.950 . S
H694 C699 0.950 . S
H695 C700 0.949 . S
H696 C702 0.950 . S
H697 C703 0.950 . S
H698 C704 0.949 . S
C699 H694 0.950 . S
C699 C701 1.327 . S
C699 C705 1.429 . S
C700 C692 1.574 . S
C700 H695 0.949 . S
C700 C706 1.368 . S
C701 C685 1.349 . S
C701 H693 0.950 . S
C701 C699 1.327 . S
C702 C690 1.349 . S
C702 H696 0.950 . S
C702 C703 1.327 . S
C703 H697 0.950 . S
C703 C702 1.327 . S
C703 C707 1.429 . S
C704 C687 1.574 . S
C704 H698 0.949 . S
C704 C708 1.368 . S
C705 C686 1.429 . S
C705 C699 1.429 . S
C705 C706 1.523 . S
C706 C687 1.368 . S
C706 C700 1.368 . S
C706 C705 1.523 . S
C707 C691 1.429 . S
C707 C703 1.429 . S
C707 C708 1.523 . S
C708 C692 1.368 . S
C708 C704 1.368 . S
C708 C707 1.523 . S
H709 C684 0.950 . S
H710 C686 0.950 . S
H711 C687 0.949 . S
H712 C689 0.950 . S
H713 C691 0.950 . S
C714 C715 1.349 . S
C714 C716 1.327 . S
C714 H739 0.950 . S
C715 C714 1.349 . S
C715 C731 1.349 . S
C716 C714 1.327 . S
C716 C735 1.429 . S
C716 H740 0.950 . S
C717 C734 1.574 . S
C717 C736 1.368 . S
C717 H741 0.949 . S
H718 C722 0.949 . S
C719 C720 1.349 . S
C719 C721 1.327 . S
C719 H742 0.950 . S
C720 C719 1.349 . S
C720 C732 1.349 . S
C721 C719 1.327 . S
C721 C737 1.429 . S
C721 H743 0.950 . S
C722 H718 0.949 . S
C722 C730 1.574 . S
C722 C738 1.368 . S
H723 C731 0.950 . S
H724 C729 0.950 . S
H725 C730 0.949 . S
H726 C732 0.950 . S
H727 C733 0.950 . S
H728 C734 0.949 . S
C729 H724 0.950 . S
C729 C731 1.327 . S
C729 C735 1.429 . S
C730 C722 1.574 . S
C730 H725 0.949 . S
C730 C736 1.368 . S
C731 C715 1.349 . S
C731 H723 0.950 . S
C731 C729 1.327 . S
C732 C720 1.349 . S
C732 H726 0.950 . S
C732 C733 1.327 . S
C733 H727 0.950 . S
C733 C732 1.327 . S
C733 C737 1.429 . S
C734 C717 1.574 . S
C734 H728 0.949 . S
C734 C738 1.368 . S
C735 C716 1.429 . S
C735 C729 1.429 . S
C735 C736 1.523 . S
C736 C717 1.368 . S
C736 C730 1.368 . S
C736 C735 1.523 . S
C737 C721 1.429 . S
C737 C733 1.429 . S
C737 C738 1.523 . S
C738 C722 1.368 . S
C738 C734 1.368 . S
C738 C737 1.523 . S
H739 C714 0.950 . S
H740 C716 0.950 . S
H741 C717 0.949 . S
H742 C719 0.950 . S
H743 C721 0.950 . S
C205 C174 1.331 . S
C210 C4 1.331 . S
C235 C17 1.576 . S
C240 C51 1.576 . S
C265 C38 1.331 . S
C270 C72 1.331 . S
C295 C85 1.576 . S
C300 C119 1.576 . S
C325 C140 1.330 . S
C330 C106 1.330 . S
C355 C187 1.576 . S
C360 C153 1.576 . S
C385 C0 0.740 . S
C390 C29 0.740 . S
C415 C63 0.740 . S
C420 C34 0.740 . S
C445 C68 0.740 . S
C450 C97 0.740 . S
C475 C131 0.740 . S
C480 C102 0.740 . S
C505 C165 0.740 . S
C510 C136 0.740 . S
C535 C199 0.740 . S
C540 C170 0.740 . S
C565 C13 1.648 . S
C570 C144 1.685 . S
C595 C42 1.686 . S
C600 C183 1.648 . S
C625 C8 1.688 . S
C630 C81 1.648 . S
C655 C47 1.648 . S
C660 C110 1.686 . S
C685 C149 1.648 . S
C690 C76 1.686 . S
C715 C115 1.647 . S
C720 C178 1.685 . S
