# Generated by pormake.
# Topology vby, (6)-cn, num edge types: 1
# Building blocks:
#     Node 0, Type 0, BuildingBlock: UKALOJ_clean_sbu_0, # of connection points: 6
#     Node 1, Type 0, BuildingBlock: UKALOJ_clean_sbu_0, # of connection points: 6
#     Node 2, Type 0, BuildingBlock: UKALOJ_clean_sbu_0, # of connection points: 6
#     Node 3, Type 0, BuildingBlock: UKALOJ_clean_sbu_0, # of connection points: 6
#     Node 4, Type 0, BuildingBlock: UKALOJ_clean_sbu_0, # of connection points: 6
#     Node 5, Type 0, BuildingBlock: UKALOJ_clean_sbu_0, # of connection points: 6
#     Node 6, Type 0, BuildingBlock: UKALOJ_clean_sbu_0, # of connection points: 6
#     Node 7, Type 0, BuildingBlock: UKALOJ_clean_sbu_0, # of connection points: 6
#     Edge 8, Type (0, 0), BuildingBlock: XUDNAN_clean_linker_2, # of connection points: 2
#     Edge 9, Type (0, 0), BuildingBlock: XUDNAN_clean_linker_2, # of connection points: 2
#     Edge 10, Type (0, 0), BuildingBlock: XUDNAN_clean_linker_2, # of connection points: 2
#     Edge 11, Type (0, 0), BuildingBlock: XUDNAN_clean_linker_2, # of connection points: 2
#     Edge 12, Type (0, 0), BuildingBlock: XUDNAN_clean_linker_2, # of connection points: 2
#     Edge 13, Type (0, 0), BuildingBlock: XUDNAN_clean_linker_2, # of connection points: 2
#     Edge 14, Type (0, 0), BuildingBlock: XUDNAN_clean_linker_2, # of connection points: 2
#     Edge 15, Type (0, 0), BuildingBlock: XUDNAN_clean_linker_2, # of connection points: 2
#     Edge 16, Type (0, 0), BuildingBlock: XUDNAN_clean_linker_2, # of connection points: 2
#     Edge 17, Type (0, 0), BuildingBlock: XUDNAN_clean_linker_2, # of connection points: 2
#     Edge 18, Type (0, 0), BuildingBlock: XUDNAN_clean_linker_2, # of connection points: 2
#     Edge 19, Type (0, 0), BuildingBlock: XUDNAN_clean_linker_2, # of connection points: 2
#     Edge 20, Type (0, 0), BuildingBlock: XUDNAN_clean_linker_2, # of connection points: 2
#     Edge 21, Type (0, 0), BuildingBlock: XUDNAN_clean_linker_2, # of connection points: 2
#     Edge 22, Type (0, 0), BuildingBlock: XUDNAN_clean_linker_2, # of connection points: 2
#     Edge 23, Type (0, 0), BuildingBlock: XUDNAN_clean_linker_2, # of connection points: 2
#     Edge 24, Type (0, 0), BuildingBlock: XUDNAN_clean_linker_2, # of connection points: 2
#     Edge 25, Type (0, 0), BuildingBlock: XUDNAN_clean_linker_2, # of connection points: 2
#     Edge 26, Type (0, 0), BuildingBlock: XUDNAN_clean_linker_2, # of connection points: 2
#     Edge 27, Type (0, 0), BuildingBlock: XUDNAN_clean_linker_2, # of connection points: 2
#     Edge 28, Type (0, 0), BuildingBlock: XUDNAN_clean_linker_2, # of connection points: 2
#     Edge 29, Type (0, 0), BuildingBlock: XUDNAN_clean_linker_2, # of connection points: 2
#     Edge 30, Type (0, 0), BuildingBlock: XUDNAN_clean_linker_2, # of connection points: 2
#     Edge 31, Type (0, 0), BuildingBlock: XUDNAN_clean_linker_2, # of connection points: 2
# Relax obj value: 0.068
# Max RMSD: 0.108
# Mean RMSD: 0.108
data_MOF--net-vby--node1-UKALOJ_clean_sbu_0--edge1-XUDNAN_clean_linker_2
_symmetry_space_group_name_H-M    P1
_symmetry_Int_Tables_number       1
_symmetry_cell_setting            triclinic
loop_
_symmetry_equiv_pos_as_xyz
'x, y, z'
_cell_length_a     15.165605
_cell_length_b     58.002907
_cell_length_c     40.363109
_cell_angle_alpha  89.709006
_cell_angle_beta   90.109617
_cell_angle_gamma 90.01194
loop_
_atom_site_label
_atom_site_type_symbol
_atom_site_fract_x
_atom_site_fract_y
_atom_site_fract_z
_atom_type_partial_charge
Zn0 Zn 0.06277 0.37917 0.98612 0.0
O1 O 0.20339 0.38382 0.9847 0.0
C2 C 0.09353 0.32972 0.99943 0.0
Zn3 Zn 0.06489 0.37178 0.04066 0.0
C4 C 0.24202 0.38249 1.01272 0.0
O5 O 0.19762 0.37802 0.03856 0.0
C6 C 0.88497 0.36925 1.0166 0.0
O7 O 0.04319 0.40688 0.05112 0.0
O8 O 0.04637 0.41451 0.99786 0.0
N9 N 0.07645 0.36391 0.09046 0.0
C10 C 0.03796 0.3726 0.11785 0.0
C11 C 0.12512 0.34595 0.13382 0.0
N12 N 0.13045 0.34734 0.10053 0.0
N13 N 0.06786 0.36171 0.14538 0.0
C14 C 0.08342 0.38128 0.90763 0.0
C15 C -0.01968 0.40511 0.89679 0.0
N16 N 0.04786 0.38779 0.93684 0.0
N17 N -0.01556 0.40271 0.92986 0.0
N18 N 0.04152 0.39187 0.88195 0.0
H19 H 0.21819 0.37334 0.89757 0.0
H20 H 0.14119 0.35146 0.88486 0.0
H21 H 0.16964 0.35514 0.92819 0.0
C22 C 0.15678 0.36415 0.9045 0.0
C23 C 0.96755 0.39071 0.1175 0.0
H24 H -0.00172 0.40775 0.12191 0.0
H25 H 0.91895 0.38743 0.1375 0.0
H26 H 0.93304 0.3913 0.09336 0.0
O27 O 0.93186 0.36581 0.04216 0.0
O28 O 0.92193 0.37464 0.98934 0.0
C29 C 0.03864 0.42142 0.02753 0.0
O30 O 0.08028 0.3437 0.97555 0.0
O31 O 0.08882 0.33696 0.02904 0.0
Zn32 Zn 0.9208 0.63747 0.05135 0.0
O33 O 0.929 0.60174 0.05611 0.0
C34 C 0.09877 0.64099 0.02247 0.0
Zn35 Zn 0.91974 0.63384 0.99626 0.0
C36 C 0.93803 0.58869 0.03116 0.0
O37 O 0.9387 0.59745 1.00212 0.0
C38 C 0.89984 0.68249 1.01775 0.0
O39 O 0.78647 0.62927 0.99682 0.0
O40 O 0.77948 0.63558 0.05036 0.0
N41 N 0.91771 0.63169 0.9454 0.0
C42 C 0.97456 0.6236 0.92249 0.0
C43 C 0.86594 0.63841 0.89651 0.0
N44 N 0.85042 0.64086 0.9291 0.0
N45 N 0.94369 0.62774 0.89147 0.0
C46 C 0.95896 0.63089 0.12744 0.0
C47 C 0.87798 0.65719 0.148 0.0
N48 N 0.91766 0.64156 0.10196 0.0
N49 N 0.86743 0.65786 0.11488 0.0
N50 N 0.93484 0.64036 0.15665 0.0
H51 H -0.0063 0.59522 0.12687 0.0
H52 H 0.07885 0.61384 0.14247 0.0
H53 H 0.05601 0.6126 0.0985 0.0
C54 C 0.02622 0.61219 0.12349 0.0
C55 C 0.05743 0.61074 0.93081 0.0
H56 H 0.05214 0.60234 0.95543 0.0
H57 H 0.11334 0.62306 0.93166 0.0
H58 H 0.07152 0.59751 0.91179 0.0
O59 O 0.89807 0.67016 0.99183 0.0
O60 O 0.91228 0.67307 0.04579 0.0
C61 C 0.74108 0.63217 0.02274 0.0
O62 O 0.06102 0.64006 0.05057 0.0
O63 O 0.05353 0.63911 0.99618 0.0
Zn64 Zn 0.07578 0.62699 0.49697 0.0
O65 O 0.06021 0.59166 0.48585 0.0
C66 C 0.89566 0.62918 0.52336 0.0
Zn67 Zn 0.0728 0.61857 0.55125 0.0
C68 C 0.05324 0.57686 0.509 0.0
O69 O 0.05629 0.58347 0.53894 0.0
C70 C 0.09977 0.66855 0.53916 0.0
O71 O 0.2068 0.61427 0.55332 0.0
O72 O 0.21604 0.6226 0.50014 0.0
N73 N 0.05819 0.60981 0.60055 0.0
C74 C 0.09365 0.61658 0.62972 0.0
C75 C -0.00959 0.59288 0.64082 0.0
N76 N -0.00527 0.59495 0.6077 0.0
N77 N 0.05159 0.60625 0.65549 0.0
C78 C 0.04742 0.62602 0.42011 0.0
C79 C 0.13509 0.65237 0.40361 0.0
N80 N 0.08622 0.63498 0.44731 0.0
N81 N 0.14053 0.65137 0.43693 0.0
N82 N 0.07752 0.63652 0.39236 0.0
H83 H 0.94143 0.60791 0.44485 0.0
H84 H 0.00703 0.59081 0.4174 0.0
H85 H 0.92852 0.6109 0.40054 0.0
C86 C 0.97661 0.60799 0.42089 0.0
C87 C 0.16686 0.63379 0.63278 0.0
H88 H 0.22791 0.62476 0.6406 0.0
H89 H 0.15031 0.64682 0.65182 0.0
H90 H 0.18103 0.64237 0.60889 0.0
O91 O 0.08989 0.65378 0.56225 0.0
O92 O 0.09398 0.66215 0.50914 0.0
C93 C 0.25328 0.61783 0.52768 0.0
O94 O 0.93521 0.63184 0.49583 0.0
O95 O 0.93918 0.62351 0.54891 0.0
Zn96 Zn 0.91163 0.36732 0.54055 0.0
O97 O 0.77019 0.3726 0.53835 0.0
C98 C 0.87103 0.31839 0.52412 0.0
Zn99 Zn 0.90951 0.36076 0.48609 0.0
C100 C 0.73237 0.37185 0.51016 0.0
O101 O 0.77804 0.36807 0.48453 0.0
C102 C 0.08876 0.35607 0.51358 0.0
O103 O 0.93828 0.39628 0.47921 0.0
O104 O 0.93311 0.40275 0.53281 0.0
N105 N 0.90748 0.35525 0.43563 0.0
C106 C 0.95277 0.36471 0.41017 0.0
C107 C 0.86348 0.34029 0.38957 0.0
N108 N 0.85225 0.34005 0.42268 0.0
N109 N 0.92591 0.35571 0.38098 0.0
C110 C 0.96654 0.37864 0.61404 0.0
C111 C 0.85437 0.3658 0.6399 0.0
N112 N 0.90852 0.37104 0.59112 0.0
N113 N 0.83899 0.36313 0.60734 0.0
N114 N 0.93423 0.37538 0.64503 0.0
H115 H 0.04809 0.39861 0.58099 0.0
H116 H 0.10515 0.37711 0.60494 0.0
H117 H 0.06902 0.40333 0.62458 0.0
C118 C 0.05198 0.39023 0.60568 0.0
C119 C 0.02652 0.38169 0.41408 0.0
H120 H 0.05702 0.38036 0.43893 0.0
H121 H 9e-05 0.39937 0.41096 0.0
H122 H 0.07764 0.37888 0.39489 0.0
O123 O 0.04148 0.35339 0.48796 0.0
O124 O 0.05244 0.36181 0.54077 0.0
C125 C 0.94347 0.41022 0.50339 0.0
O126 O 0.88797 0.33208 0.54771 0.0
O127 O 0.8773 0.32557 0.49441 0.0
Zn128 Zn 0.53409 0.87373 1.01491 0.0
O129 O 0.67488 0.87916 1.0145 0.0
C130 C 0.57917 0.82664 0.03356 0.0
Zn131 Zn 0.53209 0.8699 0.0699 0.0
C132 C 0.71173 0.87943 0.04292 0.0
O133 O 0.66449 0.87795 0.06875 0.0
C134 C 0.35525 0.86253 0.0436 0.0
O135 O 0.50078 0.90444 0.07781 0.0
O136 O 0.51129 0.90961 0.02407 0.0
N137 N 0.54308 0.86387 0.12 0.0
C138 C 0.48626 0.86594 0.14549 0.0
C139 C 0.60587 0.8522 0.16515 0.0
N140 N 0.61737 0.8554 0.13236 0.0
N141 N 0.52394 0.85857 0.17405 0.0
C142 C 0.5436 0.86888 0.93692 0.0
C143 C 0.46673 0.89805 0.92268 0.0
N144 N 0.52159 0.88015 0.96493 0.0
N145 N 0.47413 0.89827 0.95586 0.0
N146 N 0.50913 0.87971 0.91001 0.0
H147 H 0.65299 0.84936 0.95603 0.0
H148 H 0.63677 0.84697 0.91178 0.0
H149 H 0.56305 0.83244 0.94006 0.0
C150 C 0.60288 0.84825 0.93604 0.0
C151 C 0.39613 0.87635 0.14266 0.0
H152 H 0.37783 0.88515 0.166 0.0
H153 H 0.34748 0.86249 0.13796 0.0
H154 H 0.39305 0.88884 0.12184 0.0
O155 O 0.39991 0.86133 0.07015 0.0
O156 O 0.39377 0.86769 1.01657 0.0
C157 C 0.49809 0.9178 0.05284 0.0
O158 O 0.56062 0.83803 1.00746 0.0
O159 O 0.56725 0.83577 0.06171 0.0
Zn160 Zn 0.39717 0.13586 0.05157 0.0
O161 O 0.41505 0.10062 0.06314 0.0
C162 C 0.57802 0.13745 0.02844 0.0
Zn163 Zn 0.40078 0.12749 0.99786 0.0
C164 C 0.42 0.08566 0.04038 0.0
O165 O 0.41583 0.09215 1.01033 0.0
C166 C 0.37175 0.17746 1.00902 0.0
O167 O 0.25988 0.12288 0.99574 0.0
O168 O 0.26445 0.13022 0.0491 0.0
N169 N 0.41771 0.11911 0.94932 0.0
C170 C 0.39095 0.12858 0.92045 0.0
C171 C 0.48164 0.10176 0.90886 0.0
N172 N 0.47368 0.1024 0.942 0.0
N173 N 0.43099 0.11814 0.89464 0.0
C174 C 0.42082 0.13377 0.12809 0.0
C175 C 0.33159 0.15965 0.14459 0.0
N176 N 0.38444 0.14345 0.10086 0.0
N177 N 0.32921 0.15958 0.11119 0.0
N178 N 0.38807 0.14346 0.15579 0.0
H179 H 0.46142 0.0985 0.13037 0.0
H180 H 0.53828 0.11832 0.14855 0.0
H181 H 0.52881 0.11616 0.10409 0.0
C182 C 0.49179 0.11577 0.12762 0.0
C183 C 0.32241 0.14707 0.91772 0.0
H184 H 0.27718 0.14645 0.93925 0.0
H185 H 0.28398 0.14515 0.89447 0.0
H186 H 0.35533 0.1641 0.91732 0.0
O187 O 0.38424 0.16288 0.98608 0.0
O188 O 0.37565 0.17086 0.03909 0.0
C189 C 0.22062 0.12502 0.02345 0.0
O190 O 0.53113 0.14127 0.05377 0.0
O191 O 0.541 0.13186 1.00136 0.0
Zn192 Zn 0.51616 0.12958 0.496 0.0
O193 O 0.50497 0.0931 0.48875 0.0
C194 C 0.33538 0.13305 0.52057 0.0
Zn195 Zn 0.51238 0.127 0.55092 0.0
C196 C 0.50596 0.08139 0.51543 0.0
O197 O 0.50743 0.09164 0.54306 0.0
C198 C 0.53364 0.1749 0.53292 0.0
O199 O 0.64699 0.12491 0.55482 0.0
O200 O 0.65607 0.12616 0.50043 0.0
N201 N 0.49478 0.12049 0.60012 0.0
C202 C 0.51852 0.13091 0.62857 0.0
C203 C 0.4366 0.10237 0.64138 0.0
N204 N 0.44409 0.10277 0.60824 0.0
N205 N 0.48224 0.1199 0.65486 0.0
C206 C 0.49151 0.12586 0.41952 0.0
C207 C 0.57761 0.15239 0.40234 0.0
N208 N 0.52961 0.13539 0.44637 0.0
N209 N 0.58315 0.15182 0.43562 0.0
N210 N 0.52085 0.13621 0.39154 0.0
H211 H 0.3877 0.10739 0.44499 0.0
H212 H 0.45472 0.09032 0.41811 0.0
H213 H 0.3738 0.10962 0.40064 0.0
C214 C 0.42249 0.10736 0.42095 0.0
C215 C 0.58028 0.151 0.63038 0.0
H216 H 0.62537 0.15118 0.6088 0.0
H217 H 0.61941 0.15036 0.65363 0.0
H218 H 0.54138 0.16717 0.63004 0.0
O219 O 0.52098 0.16236 0.55833 0.0
O220 O 0.53191 0.16576 0.50431 0.0
C221 C 0.69339 0.12532 0.52871 0.0
O222 O 0.37565 0.13374 0.49299 0.0
O223 O 0.37838 0.1297 0.54702 0.0
Zn224 Zn 0.40249 0.87029 0.56598 0.0
O225 O 0.26821 0.87663 0.57214 0.0
C226 C 0.36601 0.82251 0.54734 0.0
Zn227 Zn 0.39542 0.86735 0.51087 0.0
C228 C 0.2203 0.8756 0.54632 0.0
O229 O 0.25642 0.87268 0.51823 0.0
C230 C 0.57731 0.86074 0.53314 0.0
O231 O 0.41622 0.90334 0.50426 0.0
O232 O 0.42785 0.90541 0.55833 0.0
N233 N 0.37014 0.86472 0.461 0.0
C234 C 0.41101 0.8556 0.4344 0.0
C235 C 0.29036 0.87039 0.41735 0.0
N236 N 0.29545 0.8739 0.45016 0.0
N237 N 0.36205 0.85898 0.40673 0.0
C238 C 0.40426 0.86553 0.64438 0.0
C239 C 0.50113 0.89098 0.65547 0.0
N240 N 0.4294 0.87517 0.61536 0.0
N241 N 0.48955 0.89093 0.62249 0.0
N242 N 0.44881 0.87515 0.67 0.0
H243 H 0.28737 0.84873 0.62613 0.0
H244 H 0.29676 0.84977 0.67092 0.0
H245 H 0.36446 0.83032 0.64741 0.0
C246 C 0.33359 0.84764 0.6474 0.0
C247 C 0.49561 0.84237 0.43604 0.0
H248 H 0.55155 0.8547 0.43656 0.0
H249 H 0.50304 0.83097 0.41424 0.0
H250 H 0.49782 0.83186 0.45907 0.0
O251 O 0.53658 0.86188 0.50551 0.0
O252 O 0.53469 0.86337 0.5598 0.0
C253 C 0.43086 0.9151 0.53012 0.0
O254 O 0.37781 0.83524 0.57251 0.0
O255 O 0.37283 0.83118 0.51833 0.0
H256 H 0.37368 0.37883 0.96511 0.0
H257 H 0.32731 0.39141 0.06978 0.0
H258 H 0.48542 0.38897 0.08071 0.0
H259 H 0.54422 0.33844 0.97488 0.0
H260 H 0.6124 0.34859 0.9413 0.0
H261 H 0.49486 0.35296 0.93986 0.0
H262 H 0.51758 0.39693 0.93247 0.0
H263 H 0.6353 0.39267 0.93323 0.0
H264 H 0.58467 0.41239 0.96185 0.0
H265 H 0.64004 0.37992 0.0828 0.0
H266 H 0.79688 0.37255 0.07451 0.0
H267 H 0.75498 0.36912 0.96798 0.0
C268 C 0.39737 0.38163 0.99009 0.0
C269 C 0.33806 0.385 1.01664 0.0
C270 C 0.37123 0.38847 0.04909 0.0
C271 C 0.46105 0.38712 0.05565 0.0
C272 C 0.51736 0.38271 0.02944 0.0
C273 C 0.48804 0.38064 0.99716 0.0
C274 C 0.56481 0.37587 0.97402 0.0
C275 C 0.55335 0.35258 0.95648 0.0
C276 C 0.57627 0.39565 0.94891 0.0
C277 C 0.64065 0.3751 0.99868 0.0
C278 C 0.61058 0.3788 0.03046 0.0
C279 C 0.66526 0.37753 0.05799 0.0
C280 C 0.75436 0.37314 0.05295 0.0
C281 C 0.78856 0.37053 0.02054 0.0
C282 C 0.73071 0.37127 0.99299 0.0
H283 H 0.22788 0.63309 0.06954 0.0
H284 H 0.18493 0.65582 0.96797 0.0
H285 H 0.3444 0.65756 0.95911 0.0
H286 H 0.43033 0.66836 0.08365 0.0
H287 H 0.48298 0.64613 0.10797 0.0
H288 H 0.36452 0.64874 0.10801 0.0
H289 H 0.35103 0.60607 0.09005 0.0
H290 H 0.4693 0.60339 0.08956 0.0
H291 H 0.4062 0.59662 0.05299 0.0
H292 H 0.50187 0.65301 0.95828 0.0
H293 H 0.65877 0.64545 0.96675 0.0
H294 H 0.60869 0.62677 0.0695 0.0
C295 C 0.25246 0.63889 0.04574 0.0
C296 C 0.19434 0.64419 0.01938 0.0
C297 C 0.22836 0.65146 0.9884 0.0
C298 C 0.31882 0.65262 0.98312 0.0
C299 C 0.37437 0.64663 1.00913 0.0
C300 C 0.34337 0.64018 0.03996 0.0
C301 C 0.41897 0.63363 0.06286 0.0
C302 C 0.42452 0.65021 0.09237 0.0
C303 C 0.41085 0.60843 0.07454 0.0
C304 C 0.4965 0.63682 0.03959 0.0
C305 C 0.46834 0.64437 1.00882 0.0
C306 C 0.52532 0.6474 0.98234 0.0
C307 C 0.61425 0.6428 0.98739 0.0
C308 C 0.64568 0.6354 1.01878 0.0
C309 C 0.58618 0.63249 0.04535 0.0
H310 H 0.76366 0.62473 0.47609 0.0
H311 H 0.81239 0.6404 0.57972 0.0
H312 H 0.6538 0.63988 0.59062 0.0
H313 H 0.55467 0.65923 0.46979 0.0
H314 H 0.50275 0.63855 0.44286 0.0
H315 H 0.6207 0.64236 0.44182 0.0
H316 H 0.64117 0.59867 0.45291 0.0
H317 H 0.52344 0.59478 0.45459 0.0
H318 H 0.59121 0.58577 0.48903 0.0
H319 H 0.49742 0.63273 0.593 0.0
H320 H 0.34017 0.62511 0.58511 0.0
H321 H 0.38296 0.61597 0.47948 0.0
C322 C 0.74038 0.62865 0.50077 0.0
C323 C 0.80012 0.63242 0.52711 0.0
C324 C 0.76775 0.63721 0.55925 0.0
C325 C 0.67777 0.63701 0.56575 0.0
C326 C 0.62073 0.63224 0.53978 0.0
C327 C 0.64973 0.62863 0.50778 0.0
C328 C 0.57267 0.62318 0.48502 0.0
C329 C 0.56207 0.64196 0.45829 0.0
C330 C 0.58277 0.59917 0.46948 0.0
C331 C 0.49701 0.62371 0.5096 0.0
C332 C 0.52717 0.62886 0.541 0.0
C333 C 0.47228 0.62908 0.56847 0.0
C334 C 0.38311 0.62447 0.56372 0.0
C335 C 0.34933 0.61996 0.53166 0.0
C336 C 0.40711 0.61948 0.50421 0.0
H337 H 0.60229 0.37287 0.5589 0.0
H338 H 0.64314 0.37219 0.45219 0.0
H339 H 0.4856 0.36645 0.44344 0.0
H340 H 0.43483 0.33043 0.56226 0.0
H341 H 0.36693 0.34455 0.59263 0.0
H342 H 0.48417 0.3496 0.59203 0.0
H343 H 0.45799 0.39358 0.58665 0.0
H344 H 0.34066 0.3887 0.58788 0.0
H345 H 0.38863 0.40444 0.55377 0.0
H346 H 0.33242 0.35602 0.44504 0.0
H347 H 0.17603 0.35027 0.45588 0.0
H348 H 0.22088 0.36143 0.56117 0.0
C349 C 0.57757 0.37198 0.53375 0.0
C350 C 0.63559 0.37266 0.50629 0.0
C351 C 0.60069 0.37145 0.47372 0.0
C352 C 0.51107 0.3681 0.46838 0.0
C353 C 0.4564 0.36647 0.49577 0.0
C354 C 0.48689 0.36907 0.52778 0.0
C355 C 0.41119 0.36712 0.55234 0.0
C356 C 0.42515 0.34671 0.57623 0.0
C357 C 0.39889 0.38981 0.57128 0.0
C358 C 0.33451 0.36266 0.52888 0.0
C359 C 0.36354 0.36196 0.49651 0.0
C360 C 0.30803 0.35702 0.47017 0.0
C361 C 0.21903 0.35365 0.47675 0.0
C362 C 0.18547 0.35574 0.50938 0.0
C363 C 0.24442 0.35988 0.53597 0.0
H364 H 0.84777 0.88705 0.99739 0.0
H365 H 0.79379 0.86439 0.09829 0.0
H366 H 0.94847 0.85447 0.10595 0.0
H367 H 0.01598 0.84455 0.97887 0.0
H368 H 0.08699 0.86423 0.9568 0.0
H369 H 0.96956 0.86904 0.95739 0.0
H370 H -0.00617 0.91004 0.98087 0.0
H371 H 0.11126 0.90548 0.97984 0.0
H372 H 0.05853 0.91362 1.01802 0.0
H373 H 0.10365 0.84536 0.10355 0.0
H374 H 0.26322 0.84399 0.09455 0.0
H375 H 0.22852 0.87518 0.99725 0.0
C376 C 0.86898 0.88019 0.0211 0.0
C377 C 0.80805 0.87655 0.04715 0.0
C378 C 0.83853 0.86757 0.0779 0.0
C379 C 0.92649 0.86159 0.08252 0.0
C380 C -0.01566 0.86497 0.05641 0.0
C381 C 0.95814 0.87455 0.02657 0.0
C382 C 0.03703 0.87762 1.00375 0.0
C383 C 0.02674 0.86299 0.97234 0.0
C384 C 0.05099 0.90321 0.99512 0.0
C385 C 0.11077 0.86842 0.02576 0.0
C386 C 0.07763 0.86077 0.05568 0.0
C387 C 0.13097 0.85151 0.08039 0.0
C388 C 0.22166 0.85086 0.07504 0.0
C389 C 0.25857 0.85982 0.04547 0.0
C390 C 0.20212 0.86816 0.02008 0.0
H391 H 0.08795 0.12897 0.97602 0.0
H392 H 0.13711 0.115 0.08039 0.0
H393 H 0.97914 0.11692 0.09167 0.0
H394 H 0.91707 0.16889 0.98674 0.0
H395 H 0.84817 0.15917 0.95316 0.0
H396 H 0.96573 0.15493 0.9514 0.0
H397 H 0.94345 0.11104 0.94338 0.0
H398 H 0.82569 0.11519 0.94444 0.0
H399 H 0.87729 0.0951 0.97265 0.0
H400 H 0.82421 0.12576 0.09421 0.0
H401 H 0.66701 0.13327 0.08626 0.0
H402 H 0.70682 0.13823 0.97978 0.0
C403 C 0.06487 0.12573 1.00099 0.0
C404 C 0.12483 0.12215 0.02738 0.0
C405 C 0.09254 0.11813 0.05984 0.0
C406 C 0.00285 0.11916 0.06659 0.0
C407 C 0.9458 0.12383 0.04055 0.0
C408 C 0.97433 0.12642 1.00825 0.0
C409 C 0.89696 0.13146 0.98534 0.0
C410 C 0.90767 0.15501 0.96815 0.0
C411 C 0.88515 0.11203 0.95995 0.0
C412 C 0.82175 0.13179 1.01016 0.0
C413 C 0.85254 0.12763 0.04183 0.0
C414 C 0.79843 0.1285 0.06948 0.0
C415 C 0.70917 0.13297 0.06466 0.0
C416 C 0.67438 0.13606 0.03236 0.0
C417 C 0.73162 0.1357 1.00471 0.0
H418 H 0.20241 0.12323 0.47552 0.0
H419 H 0.2544 0.15161 0.57306 0.0
H420 H 0.09597 0.15376 0.58394 0.0
H421 H -0.00375 0.15756 0.46009 0.0
H422 H 0.94214 0.13399 0.43941 0.0
H423 H 0.06034 0.13689 0.43721 0.0
H424 H 0.07754 0.09531 0.46006 0.0
H425 H 0.95957 0.09241 0.46285 0.0
H426 H 0.02716 0.08773 0.49905 0.0
H427 H 0.93884 0.14841 0.58814 0.0
H428 H 0.78093 0.14043 0.58273 0.0
H429 H 0.8218 0.11692 0.4818 0.0
C430 C 0.17986 0.13043 0.49871 0.0
C431 C 0.24027 0.1371 0.52355 0.0
C432 C 0.20903 0.14617 0.55385 0.0
C433 C 0.11921 0.14754 0.56029 0.0
C434 C 0.06129 0.13997 0.53606 0.0
C435 C 0.08941 0.13198 0.50564 0.0
C436 C 0.0116 0.12406 0.48488 0.0
C437 C 0.00202 0.13902 0.45354 0.0
C438 C 0.01948 0.09835 0.47621 0.0
C439 C 0.93654 0.12829 0.50892 0.0
C440 C 0.96752 0.13743 0.53823 0.0
C441 C 0.91308 0.14163 0.56515 0.0
C442 C 0.82359 0.1368 0.56191 0.0
C443 C 0.78927 0.12807 0.53184 0.0
C444 C 0.84647 0.12372 0.50497 0.0
H445 H 0.71167 0.87248 0.48888 0.0
H446 H 0.6605 0.84174 0.58535 0.0
H447 H 0.81799 0.84302 0.5985 0.0
H448 H 0.92783 0.84175 0.47653 0.0
H449 H 0.97733 0.86622 0.45607 0.0
H450 H 0.86033 0.86127 0.45258 0.0
H451 H 0.83147 0.90247 0.47446 0.0
H452 H 0.94822 0.90735 0.47874 0.0
H453 H 0.87663 0.91086 0.51396 0.0
H454 H 0.9735 0.85242 0.60533 0.0
H455 H 0.13088 0.86191 0.60098 0.0
H456 H 0.09166 0.88379 0.49889 0.0
C457 C 0.73427 0.86539 0.51227 0.0
C458 C 0.67357 0.85722 0.53621 0.0
C459 C 0.70551 0.84832 0.56675 0.0
C460 C 0.79496 0.849 0.57456 0.0
C461 C 0.85253 0.85825 0.55138 0.0
C462 C 0.82466 0.86566 0.52047 0.0
C463 C 0.90227 0.87489 0.50059 0.0
C464 C 0.91787 0.86015 0.4696 0.0
C465 C 0.88879 0.90041 0.4914 0.0
C466 C 0.9767 0.87196 0.5256 0.0
C467 C 0.94558 0.8626 0.55481 0.0
C468 C -0.00061 0.85936 0.5824 0.0
C469 C 0.08859 0.86507 0.57979 0.0
C470 C 0.12362 0.87356 0.54962 0.0
C471 C 0.06662 0.87727 0.52224 0.0
H472 H 0.96904 0.55498 0.98456 0.0
H473 H 0.9313 0.56564 0.09007 0.0
H474 H 0.95386 0.52428 0.10028 0.0
H475 H 0.85619 0.49994 0.98103 0.0
H476 H 0.93113 0.48787 0.95116 0.0
H477 H 0.91179 0.5185 0.95183 0.0
H478 H 0.0796 0.52571 0.95821 0.0
H479 H 0.09942 0.4951 0.95766 0.0
H480 H 0.13864 0.51215 0.99187 0.0
H481 H -0.01694 0.48225 0.0997 0.0
H482 H 0.01273 0.44138 0.08793 0.0
H483 H 0.02887 0.45725 0.98283 0.0
C484 C 0.9652 0.54859 1.00977 0.0
C485 C 0.9489 0.56363 0.03652 0.0
C486 C 0.94437 0.55456 0.06917 0.0
C487 C 0.95694 0.53105 0.07527 0.0
C488 C 0.97357 0.51675 0.04848 0.0
C489 C 0.97731 0.52506 1.01636 0.0
C490 C -0.00396 0.50581 0.99213 0.0
C491 C 0.9192 0.50286 0.96759 0.0
C492 C 0.08364 0.50995 0.9739 0.0
C493 C 0.00254 0.48548 1.01574 0.0
C494 C -0.01051 0.49223 0.04811 0.0
C495 C -0.00693 0.47667 0.07444 0.0
C496 C 0.01002 0.45348 0.0675 0.0
C497 C 0.02286 0.44606 0.03449 0.0
C498 C 0.0192 0.46236 1.00833 0.0
H499 H 0.96441 0.44428 0.5496 0.0
H500 H 0.96256 0.43209 0.44354 0.0
H501 H -0.0064 0.47325 0.43345 0.0
H502 H 0.8564 0.49917 0.54629 0.0
H503 H 0.92078 0.51131 0.5795 0.0
H504 H 0.90052 0.48073 0.57837 0.0
H505 H 0.06876 0.47298 0.5806 0.0
H506 H 0.08956 0.50354 0.58172 0.0
H507 H 0.13963 0.48611 0.55006 0.0
H508 H 0.02431 0.51571 0.43488 0.0
H509 H 0.04959 0.55671 0.44775 0.0
H510 H 0.02832 0.54122 0.55282 0.0
C511 C 0.97062 0.45022 0.52423 0.0
C512 C 0.96159 0.4349 0.49734 0.0
C513 C 0.96995 0.44343 0.46454 0.0
C514 C -0.01257 0.4668 0.45854 0.0
C515 C -0.00391 0.48141 0.48561 0.0
C516 C -0.01226 0.47349 0.5178 0.0
C517 C -0.00135 0.49284 0.54247 0.0
C518 C 0.91404 0.49621 0.56285 0.0
C519 C 0.07894 0.48861 0.56504 0.0
C520 C 0.01423 0.51289 0.5191 0.0
C521 C 0.01277 0.50593 0.48643 0.0
C522 C 0.02542 0.5214 0.46037 0.0
C523 C 0.03953 0.54466 0.46793 0.0
C524 C 0.04046 0.55222 0.50126 0.0
C525 C 0.02798 0.53602 0.52708 0.0
H526 H 0.49643 0.95183 1.00524 0.0
H527 H 0.4624 0.94005 0.11083 0.0
H528 H 0.43823 0.98167 0.11895 0.0
H529 H 0.61404 0.0051 1.01218 0.0
H530 H 0.56247 0.01813 0.97644 0.0
H531 H 0.5754 0.9873 0.97867 0.0
H532 H 0.40735 0.98203 0.96969 0.0
H533 H 0.39394 0.01285 0.96732 0.0
H534 H 0.33111 0.99633 0.99695 0.0
H535 H 0.41959 0.02443 0.11586 0.0
H536 H 0.40572 0.06563 0.10162 0.0
H537 H 0.45289 0.04974 0.99813 0.0
C538 C 0.48355 0.95798 0.03006 0.0
C539 C 0.48136 0.94268 0.05741 0.0
C540 C 0.46449 0.95143 0.08949 0.0
C541 C 0.45066 0.97505 0.09438 0.0
C542 C 0.45385 0.98966 0.06694 0.0
C543 C 0.46967 0.9815 0.03541 0.0
C544 C 0.47034 0.00094 1.01021 0.0
C545 C 0.56096 0.00298 0.99339 0.0
C546 C 0.39626 0.99785 0.98453 0.0
C547 C 0.45259 0.02129 0.03256 0.0
C548 C 0.44333 0.01439 0.06518 0.0
C549 C 0.42688 0.03007 0.09042 0.0
C550 C 0.41957 0.05346 0.08209 0.0
C551 C 0.42887 0.06096 0.04882 0.0
C552 C 0.44547 0.04457 0.0238 0.0
H553 H 0.4232 0.04829 0.47676 0.0
H554 H 0.61395 0.05806 0.55577 0.0
H555 H 0.62526 0.0162 0.56343 0.0
H556 H 0.30783 0.00383 0.5152 0.0
H557 H 0.28697 0.98689 0.4787 0.0
H558 H 0.30255 0.01756 0.47507 0.0
H559 H 0.42934 0.0112 0.43323 0.0
H560 H 0.41365 0.98045 0.43649 0.0
H561 H 0.5206 0.99282 0.44447 0.0
H562 H 0.60231 0.9752 0.56882 0.0
H563 H 0.5516 0.93498 0.56949 0.0
H564 H 0.37742 0.94928 0.4864 0.0
C565 C 0.46897 0.04143 0.49492 0.0
C566 C 0.51782 0.05626 0.51569 0.0
C567 C 0.57573 0.0469 0.53976 0.0
C568 C 0.58303 0.02317 0.5442 0.0
C569 C 0.53209 0.00894 0.5243 0.0
C570 C 0.47667 0.0175 0.49991 0.0
C571 C 0.42421 0.99809 0.48413 0.0
C572 C 0.32449 0.00183 0.48856 0.0
C573 C 0.44842 0.99549 0.44739 0.0
C574 C 0.45668 0.97762 0.50443 0.0
C575 C 0.51943 0.98446 0.52721 0.0
C576 C 0.55456 0.96944 0.5507 0.0
C577 C 0.5248 0.94671 0.55106 0.0
C578 C 0.46102 0.93914 0.52795 0.0
C579 C 0.42729 0.95467 0.50398 0.0
H580 H 0.12947 0.29617 0.04531 0.0
H581 H 0.13524 0.31025 0.93956 0.0
H582 H 0.21143 0.27315 0.93046 0.0
H583 H 0.34091 0.27174 0.05127 0.0
H584 H 0.31088 0.25013 0.08146 0.0
H585 H 0.25134 0.27696 0.07956 0.0
H586 H 0.10397 0.25492 0.07201 0.0
H587 H 0.16281 0.22801 0.07459 0.0
H588 H 0.0938 0.2341 0.03921 0.0
H589 H 0.2954 0.23549 0.93356 0.0
H590 H 0.36681 0.1985 0.94794 0.0
H591 H 0.30534 0.2096 0.05162 0.0
C592 C 0.14524 0.29133 0.02013 0.0
C593 C 0.12618 0.30612 0.99313 0.0
C594 C 0.14864 0.29915 0.96062 0.0
C595 C 0.19243 0.27817 0.95523 0.0
C596 C 0.21285 0.26439 0.98258 0.0
C597 C 0.18884 0.27054 1.01432 0.0
C598 C 0.21939 0.25289 0.03957 0.0
C599 C 0.2845 0.26358 0.06442 0.0
C600 C 0.14028 0.24182 0.05738 0.0
C601 C 0.26498 0.23588 1.01711 0.0
C602 C 0.2608 0.24282 0.98435 0.0
C603 C 0.29841 0.22981 0.95912 0.0
C604 C 0.33897 0.20883 0.96753 0.0
C605 C 0.3413 0.20105 1.00085 0.0
C606 C 0.30524 0.21507 0.02593 0.0
H607 H 0.57849 0.78928 0.9903 0.0
H608 H 0.71854 0.81993 0.07311 0.0
H609 H 0.82869 0.78916 0.07118 0.0
H610 H 0.60607 0.73142 1.0186 0.0
H611 H 0.61996 0.71912 0.97802 0.0
H612 H 0.55659 0.7451 0.98292 0.0
H613 H 0.65672 0.76572 0.94004 0.0
H614 H 0.72118 0.73981 0.93541 0.0
H615 H 0.77428 0.76646 0.94668 0.0
H616 H 0.91735 0.75488 0.06413 0.0
H617 H 0.97217 0.71538 0.05611 0.0
H618 H 0.77761 0.70465 0.97878 0.0
C619 C 0.63261 0.7894 1.00784 0.0
C620 C 0.63951 0.80681 0.03206 0.0
C621 C 0.71097 0.8065 0.05474 0.0
C622 C 0.77477 0.78928 0.05358 0.0
C623 C 0.76624 0.77228 0.02974 0.0
C624 C 0.69661 0.77184 1.00755 0.0
C625 C 0.69956 0.75006 0.98684 0.0
C626 C 0.61558 0.73557 0.99192 0.0
C627 C 0.71379 0.75587 0.95006 0.0
C628 C 0.78013 0.73824 1.00163 0.0
C629 C 0.81831 0.75176 0.02582 0.0
C630 C 0.88911 0.74419 0.04495 0.0
C631 C 0.91984 0.72178 0.04022 0.0
C632 C 0.87982 0.70724 1.01659 0.0
C633 C 0.81088 0.71576 0.99631 0.0
H634 H 0.14129 0.70346 0.49566 0.0
H635 H 0.12888 0.68675 0.60061 0.0
H636 H 0.19934 0.72391 0.61368 0.0
H637 H 0.35065 0.72985 0.49694 0.0
H638 H 0.32379 0.75218 0.46739 0.0
H639 H 0.26716 0.72491 0.46592 0.0
H640 H 0.1164 0.74565 0.4707 0.0
H641 H 0.17247 0.77302 0.47154 0.0
H642 H 0.09776 0.76529 0.50445 0.0
H643 H 0.27933 0.76147 0.61531 0.0
H644 H 0.34959 0.79917 0.60592 0.0
H645 H 0.30915 0.7919 0.49991 0.0
C646 C 0.15184 0.70777 0.52144 0.0
C647 C 0.12941 0.69217 0.54712 0.0
C648 C 0.14515 0.69843 0.58051 0.0
C649 C 0.18556 0.71945 0.58819 0.0
C650 C 0.20937 0.73408 0.56225 0.0
C651 C 0.19197 0.72872 0.52958 0.0
C652 C 0.22518 0.74742 0.5064 0.0
C653 C 0.2959 0.73802 0.48278 0.0
C654 C 0.14837 0.7585 0.48714 0.0
C655 C 0.26461 0.76404 0.53116 0.0
C656 C 0.25508 0.75592 0.5632 0.0
C657 C 0.28661 0.7681 0.59036 0.0
C658 C 0.32677 0.78949 0.58472 0.0
C659 C 0.33479 0.79857 0.55218 0.0
C660 C 0.30449 0.78542 0.52505 0.0
H661 H 0.8126 0.28546 0.48025 0.0
H662 H 0.83185 0.301 0.58524 0.0
H663 H 0.73793 0.26758 0.59807 0.0
H664 H 0.58964 0.26778 0.47993 0.0
H665 H 0.60443 0.24443 0.45117 0.0
H666 H 0.67663 0.26907 0.44959 0.0
H667 H 0.81329 0.2426 0.45639 0.0
H668 H 0.74162 0.21784 0.45706 0.0
H669 H 0.81793 0.22255 0.49064 0.0
H670 H 0.63401 0.23448 0.5996 0.0
H671 H 0.54774 0.19911 0.59058 0.0
H672 H 0.5989 0.20397 0.48492 0.0
C673 C 0.79854 0.28157 0.50597 0.0
C674 C 0.8295 0.29592 0.5317 0.0
C675 C 0.80916 0.29028 0.56505 0.0
C676 C 0.75518 0.27143 0.57263 0.0
C677 C 0.72276 0.25824 0.54664 0.0
C678 C 0.74523 0.26266 0.51406 0.0
C679 C 0.70263 0.2454 0.49096 0.0
C680 C 0.63959 0.2574 0.46647 0.0
C681 C 0.77306 0.23126 0.4727 0.0
C682 C 0.65245 0.23071 0.51571 0.0
C683 C 0.66418 0.23864 0.54761 0.0
C684 C 0.62488 0.22795 0.57476 0.0
C685 C 0.57557 0.20792 0.56935 0.0
C686 C 0.56689 0.19865 0.53709 0.0
C687 C 0.60369 0.21067 0.50985 0.0
H688 H 0.03574 0.32925 0.19216 0.0
H689 H 0.05764 0.40296 0.1766 0.0
H690 H 0.02483 0.40956 0.23579 0.0
H691 H 0.85641 0.3311 0.25061 0.0
H692 H 0.89824 0.30768 0.2756 0.0
H693 H 0.92293 0.30892 0.232 0.0
H694 H 0.08998 0.307 0.24533 0.0
H695 H 0.06581 0.30586 0.28899 0.0
H696 H 0.13779 0.32795 0.2729 0.0
H697 H -0.01076 0.408 0.29684 0.0
H698 H 0.95071 0.39845 0.35478 0.0
H699 H 0.9549 0.3257 0.33111 0.0
C700 C 0.03329 0.34675 0.20132 0.0
C701 C 0.04708 0.36564 0.17971 0.0
C702 C 0.04427 0.38831 0.19249 0.0
C703 C 0.02668 0.39219 0.22614 0.0
C704 C 0.01255 0.37318 0.24675 0.0
C705 C 0.01551 0.3509 0.23482 0.0
C706 C -0.00247 0.33349 0.26213 0.0
C707 C 0.91379 0.31948 0.25463 0.0
C708 C 0.07756 0.31764 0.26766 0.0
C709 C -0.0161 0.34946 0.29128 0.0
C710 C -0.00674 0.37228 0.28193 0.0
C711 C -0.01725 0.39017 0.30451 0.0
C712 C 0.96191 0.3846 0.33747 0.0
C713 C 0.95224 0.36133 0.34761 0.0
C714 C 0.96293 0.34361 0.32405 0.0
H715 H 0.96971 0.6706 0.20557 0.0
H716 H 0.95412 0.59763 0.18401 0.0
H717 H -0.00736 0.58854 0.24217 0.0
H718 H 0.15248 0.66752 0.26367 0.0
H719 H 0.10776 0.68938 0.2904 0.0
H720 H 0.08325 0.68994 0.24672 0.0
H721 H 0.91605 0.68988 0.25983 0.0
H722 H 0.94001 0.68919 0.30354 0.0
H723 H 0.87082 0.66729 0.28553 0.0
H724 H 0.02973 0.58758 0.30336 0.0
H725 H 0.06343 0.59483 0.36235 0.0
H726 H 0.04972 0.66844 0.34444 0.0
C727 C 0.97527 0.65272 0.21311 0.0
C728 C 0.96135 0.63481 0.19007 0.0
C729 C 0.96785 0.6116 0.20086 0.0
C730 C -0.01132 0.6063 0.23397 0.0
C731 C 0.00228 0.6244 0.25601 0.0
C732 C -0.00404 0.64716 0.246 0.0
C733 C 0.01171 0.66343 0.27466 0.0
C734 C 0.09369 0.67845 0.26848 0.0
C735 C 0.92975 0.67832 0.28127 0.0
C736 C 0.02733 0.64628 0.30247 0.0
C737 C 0.02163 0.62386 0.29124 0.0
C738 C 0.03357 0.60507 0.31246 0.0
C739 C 0.05163 0.60934 0.34601 0.0
C740 C 0.05679 0.63218 0.35809 0.0
C741 C 0.04535 0.65082 0.33585 0.0
H742 H 0.85331 0.61684 0.83624 0.0
H743 H 0.11732 0.62996 0.87281 0.0
H744 H 0.17639 0.62463 0.81633 0.0
H745 H 0.9092 0.57433 0.7742 0.0
H746 H 0.8291 0.58514 0.74496 0.0
H747 H 0.81005 0.58807 0.78876 0.0
H748 H 0.79106 0.63219 0.78111 0.0
H749 H 0.81072 0.62943 0.73735 0.0
H750 H 0.87775 0.64866 0.76169 0.0
H751 H 0.20523 0.61851 0.7542 0.0
H752 H 0.20011 0.61274 0.69357 0.0
H753 H 0.91543 0.60698 0.69817 0.0
C754 C 0.92376 0.61828 0.83246 0.0
C755 C -0.01916 0.62304 0.85927 0.0
C756 C 0.0725 0.62528 0.85313 0.0
C757 C 0.10655 0.62259 0.82094 0.0
C758 C 0.04801 0.61798 0.79508 0.0
C759 C 0.95844 0.6159 0.80061 0.0
C760 C 0.90849 0.61198 0.76867 0.0
C761 C 0.86146 0.58848 0.76919 0.0
C762 C 0.84317 0.63175 0.76181 0.0
C763 C -0.01626 0.61223 0.74416 0.0
C764 C 0.06389 0.6156 0.7597 0.0
C765 C 0.14257 0.61616 0.74179 0.0
C766 C 0.13897 0.6132 0.70719 0.0
C767 C 0.05712 0.61006 0.69081 0.0
C768 C 0.97901 0.60949 0.70985 0.0
H769 H 0.84552 0.38694 0.70018 0.0
H770 H 0.10744 0.37113 0.66408 0.0
H771 H 0.16661 0.37508 0.72085 0.0
H772 H 0.90738 0.4277 0.7641 0.0
H773 H 0.82499 0.4172 0.79255 0.0
H774 H 0.80636 0.41539 0.74856 0.0
H775 H 0.77989 0.37139 0.75429 0.0
H776 H 0.7992 0.37303 0.79822 0.0
H777 H 0.86343 0.35358 0.77331 0.0
H778 H 0.19549 0.37997 0.78336 0.0
H779 H 0.19007 0.38461 0.84415 0.0
H780 H 0.9065 0.39336 0.83863 0.0
C781 C 0.91563 0.38467 0.7041 0.0
C782 C 0.9721 0.37954 0.67734 0.0
C783 C 0.06321 0.37616 0.6837 0.0
C784 C 0.09729 0.37804 0.71606 0.0
C785 C 0.03925 0.38297 0.74187 0.0
C786 C 0.95022 0.38617 0.73612 0.0
C787 C 0.90034 0.39 0.76801 0.0
C788 C 0.85726 0.414 0.76831 0.0
C789 C 0.83169 0.37085 0.77379 0.0
C790 C 0.97501 0.3884 0.79277 0.0
C791 C 0.05485 0.38449 0.7774 0.0
C792 C 0.13299 0.38273 0.79561 0.0
C793 C 0.12914 0.38503 0.83032 0.0
C794 C 0.04746 0.38867 0.84651 0.0
C795 C 0.96995 0.39044 0.82715 0.0
H796 H 0.60156 0.86916 0.23244 0.0
H797 H 0.36374 0.84078 0.18919 0.0
H798 H 0.30104 0.8352 0.2451 0.0
H799 H 0.60896 0.83103 0.30443 0.0
H800 H 0.64785 0.85312 0.33211 0.0
H801 H 0.67538 0.85442 0.28871 0.0
H802 H 0.6083 0.89541 0.28448 0.0
H803 H 0.58155 0.89433 0.32789 0.0
H804 H 0.49634 0.90011 0.29778 0.0
H805 H 0.26223 0.834 0.30511 0.0
H806 H 0.24682 0.83881 0.36566 0.0
H807 H 0.5104 0.86725 0.37085 0.0
C808 C 0.53632 0.86178 0.23491 0.0
C809 C 0.48645 0.8559 0.20656 0.0
C810 C 0.40163 0.84612 0.21054 0.0
C811 C 0.36612 0.84259 0.24221 0.0
C812 C 0.41668 0.84873 0.26965 0.0
C813 C 0.49985 0.85818 0.26639 0.0
C814 C 0.53901 0.86399 0.29995 0.0
C815 C 0.62277 0.84979 0.30669 0.0
C816 C 0.55734 0.89001 0.30268 0.0
C817 C 0.46434 0.8566 0.32257 0.0
C818 C 0.39479 0.84766 0.30451 0.0
C819 C 0.31659 0.84071 0.31955 0.0
C820 C 0.30843 0.84345 0.35386 0.0
C821 C 0.37801 0.85292 0.3728 0.0
C822 C 0.45746 0.85927 0.357 0.0
H823 H 0.41663 0.17323 0.20588 0.0
H824 H 0.39258 0.10064 0.18292 0.0
H825 H 0.42385 0.09066 0.24136 0.0
H826 H 0.59337 0.16804 0.26446 0.0
H827 H 0.55135 0.18992 0.29176 0.0
H828 H 0.52702 0.19125 0.24811 0.0
H829 H 0.35973 0.19235 0.26108 0.0
H830 H 0.38357 0.19102 0.30479 0.0
H831 H 0.31177 0.1699 0.28631 0.0
H832 H 0.46162 0.08867 0.30204 0.0
H833 H 0.50001 0.09491 0.36088 0.0
H834 H 0.49308 0.16881 0.34486 0.0
C835 C 0.41797 0.15527 0.21331 0.0
C836 C 0.4048 0.13766 0.18987 0.0
C837 C 0.40593 0.11432 0.20032 0.0
C838 C 0.42262 0.10852 0.2335 0.0
C839 C 0.437 0.1263 0.25593 0.0
C840 C 0.43443 0.14921 0.24634 0.0
C841 C 0.45213 0.165 0.27534 0.0
C842 C 0.53596 0.1794 0.26957 0.0
C843 C 0.37201 0.18048 0.28228 0.0
C844 C 0.46547 0.14738 0.30268 0.0
C845 C 0.45633 0.12516 0.29102 0.0
C846 C 0.46762 0.106 0.31159 0.0
C847 C 0.48849 0.10969 0.34502 0.0
C848 C 0.49699 0.13233 0.35753 0.0
C849 C 0.48596 0.15134 0.33593 0.0
H850 H 0.4404 0.08781 0.84465 0.0
H851 H 0.42925 0.16088 0.86599 0.0
H852 H 0.44299 0.16972 0.80631 0.0
H853 H 0.60576 0.09213 0.78259 0.0
H854 H 0.56006 0.06963 0.75713 0.0
H855 H 0.54296 0.0691 0.80126 0.0
H856 H 0.37367 0.06757 0.79237 0.0
H857 H 0.3903 0.06775 0.74821 0.0
H858 H 0.32109 0.08927 0.76703 0.0
H859 H 0.45987 0.17026 0.74359 0.0
H860 H 0.47411 0.16234 0.68371 0.0
H861 H 0.4855 0.08906 0.70469 0.0
C862 C 0.43959 0.10565 0.83665 0.0
C863 C 0.4307 0.12361 0.85983 0.0
C864 C 0.4318 0.1468 0.84861 0.0
C865 C 0.44106 0.15199 0.81477 0.0
C866 C 0.45033 0.1338 0.79261 0.0
C867 C 0.44953 0.1111 0.80315 0.0
C868 C 0.46289 0.09467 0.77467 0.0
C869 C 0.54798 0.08056 0.7792 0.0
C870 C 0.38217 0.07889 0.77031 0.0
C871 C 0.47116 0.11166 0.74635 0.0
C872 C 0.46385 0.13415 0.75707 0.0
C873 C 0.46693 0.15272 0.73499 0.0
C874 C 0.47638 0.14809 0.70104 0.0
C875 C 0.4836 0.1251 0.68966 0.0
C876 C 0.48145 0.1068 0.71279 0.0
H877 H 0.46575 0.9065 0.71838 0.0
H878 H 0.43604 0.83325 0.70119 0.0
H879 H 0.45019 0.82588 0.76146 0.0
H880 H 0.6317 0.90151 0.78 0.0
H881 H 0.59211 0.92541 0.80415 0.0
H882 H 0.57334 0.92486 0.7601 0.0
H883 H 0.40507 0.92921 0.76942 0.0
H884 H 0.42343 0.93013 0.81347 0.0
H885 H 0.34881 0.90914 0.79629 0.0
H886 H 0.47127 0.82699 0.82464 0.0
H887 H 0.49092 0.83658 0.8839 0.0
H888 H 0.51588 0.90885 0.85804 0.0
C889 C 0.46102 0.88892 0.72736 0.0
C890 C 0.44745 0.87052 0.70514 0.0
C891 C 0.44299 0.84771 0.71777 0.0
C892 C 0.45227 0.84335 0.75196 0.0
C893 C 0.46676 0.86197 0.77309 0.0
C894 C 0.47071 0.88432 0.76115 0.0
C895 C 0.48885 0.90136 0.78855 0.0
C896 C 0.57672 0.91402 0.78285 0.0
C897 C 0.41195 0.91846 0.79215 0.0
C898 C 0.49454 0.88519 0.81794 0.0
C899 C 0.48179 0.86252 0.80869 0.0
C900 C 0.48233 0.84467 0.83202 0.0
C901 C 0.49485 0.85022 0.86561 0.0
C902 C 0.50752 0.87341 0.8755 0.0
C903 C 0.50769 0.89096 0.85114 0.0
loop_
_geom_bond_atom_site_label_1
_geom_bond_atom_site_label_2
_geom_bond_distance
_geom_bond_site_symmetry_2
_ccdc_geom_bond_type
Zn0 O1 2.055 . S
Zn0 O8 2.046 . S
Zn0 N16 2.036 . S
Zn0 O28 2.053 1_455 S
Zn0 O30 2.066 . S
O1 Zn0 2.055 . S
O1 C4 1.259 1_556 S
C2 O30 1.283 . S
C2 O31 1.217 1_556 S
Zn3 O5 2.046 . S
Zn3 O7 2.055 . S
Zn3 N9 2.036 . S
Zn3 O27 2.066 1_455 S
Zn3 O31 2.053 . S
C4 O1 1.259 1_554 S
C4 O5 1.254 . S
O5 Zn3 2.046 . S
O5 C4 1.254 . S
C6 O27 1.256 . S
C6 O28 1.244 1_554 S
O7 Zn3 2.055 . S
O7 C29 1.259 . S
O8 Zn0 2.046 . S
O8 C29 1.254 1_556 S
N9 Zn3 2.036 . S
N9 C10 1.298 . S
N9 N12 1.398 . S
C10 N9 1.298 . S
C10 N13 1.367 . S
C10 C23 1.481 1_455 S
C11 N12 1.299 . S
C11 N13 1.379 . S
N12 N9 1.398 . S
N12 C11 1.299 . S
N13 C10 1.367 . S
N13 C11 1.379 . S
C14 N16 1.298 . S
C14 N18 1.367 . S
C14 C22 1.481 . S
C15 N17 1.299 . S
C15 N18 1.379 1_655 S
N16 Zn0 2.036 . S
N16 C14 1.298 . S
N16 N17 1.398 1_455 S
N17 C15 1.299 . S
N17 N16 1.398 1_655 S
N18 C14 1.367 . S
N18 C15 1.379 1_455 S
H19 C22 0.980 . S
H20 C22 0.981 . S
H21 C22 0.981 . S
C22 C14 1.481 . S
C22 H19 0.980 . S
C22 H20 0.981 . S
C22 H21 0.981 . S
C23 C10 1.481 1_655 S
C23 H24 0.980 1_655 S
C23 H25 0.981 . S
C23 H26 0.981 . S
H24 C23 0.980 1_455 S
H25 C23 0.981 . S
H26 C23 0.981 . S
O27 Zn3 2.066 1_655 S
O27 C6 1.256 . S
O28 Zn0 2.053 1_655 S
O28 C6 1.244 1_556 S
C29 O7 1.259 . S
C29 O8 1.254 1_554 S
O30 Zn0 2.066 . S
O30 C2 1.283 . S
O31 C2 1.217 1_554 S
O31 Zn3 2.053 . S
Zn32 O33 2.055 . S
Zn32 O40 2.046 . S
Zn32 N48 2.036 . S
Zn32 O60 2.053 . S
Zn32 O62 2.066 1_655 S
O33 Zn32 2.055 . S
O33 C36 1.259 . S
C34 O62 1.256 . S
C34 O63 1.244 1_554 S
Zn35 O37 2.046 . S
Zn35 O39 2.055 . S
Zn35 N41 2.036 . S
Zn35 O59 2.066 . S
Zn35 O63 2.053 1_655 S
C36 O33 1.259 . S
C36 O37 1.254 1_554 S
O37 Zn35 2.046 . S
O37 C36 1.254 1_556 S
C38 O59 1.283 . S
C38 O60 1.217 1_556 S
O39 Zn35 2.055 . S
O39 C61 1.259 1_556 S
O40 Zn32 2.046 . S
O40 C61 1.254 . S
N41 Zn35 2.036 . S
N41 C42 1.298 . S
N41 N44 1.398 1_655 S
C42 N41 1.298 . S
C42 N45 1.367 . S
C42 C55 1.481 . S
C43 N44 1.299 . S
C43 N45 1.379 1_455 S
N44 N41 1.398 1_455 S
N44 C43 1.299 . S
N45 C42 1.367 . S
N45 C43 1.379 1_655 S
C46 N48 1.298 . S
C46 N50 1.367 . S
C46 C54 1.481 1_655 S
C47 N49 1.299 . S
C47 N50 1.379 . S
N48 Zn32 2.036 . S
N48 C46 1.298 . S
N48 N49 1.398 . S
N49 C47 1.299 . S
N49 N48 1.398 . S
N50 C46 1.367 . S
N50 C47 1.379 . S
H51 C54 0.980 1_655 S
H52 C54 0.981 . S
H53 C54 0.981 . S
C54 C46 1.481 1_455 S
C54 H51 0.980 1_455 S
C54 H52 0.981 . S
C54 H53 0.981 . S
C55 C42 1.481 . S
C55 H56 0.980 . S
C55 H57 0.981 . S
C55 H58 0.981 . S
H56 C55 0.980 . S
H57 C55 0.981 . S
H58 C55 0.981 . S
O59 Zn35 2.066 . S
O59 C38 1.283 . S
O60 Zn32 2.053 . S
O60 C38 1.217 1_554 S
C61 O39 1.259 1_554 S
C61 O40 1.254 . S
O62 Zn32 2.066 1_455 S
O62 C34 1.256 . S
O63 C34 1.244 1_556 S
O63 Zn35 2.053 1_455 S
Zn64 O65 2.055 . S
Zn64 O72 2.046 . S
Zn64 N80 2.036 . S
Zn64 O92 2.053 . S
Zn64 O94 2.066 1_455 S
O65 Zn64 2.055 . S
O65 C68 1.259 . S
C66 O94 1.256 . S
C66 O95 1.244 . S
Zn67 O69 2.046 . S
Zn67 O71 2.055 . S
Zn67 N73 2.036 . S
Zn67 O91 2.066 . S
Zn67 O95 2.053 1_455 S
C68 O65 1.259 . S
C68 O69 1.254 . S
O69 Zn67 2.046 . S
O69 C68 1.254 . S
C70 O91 1.256 . S
C70 O92 1.244 . S
O71 Zn67 2.055 . S
O71 C93 1.259 . S
O72 Zn64 2.046 . S
O72 C93 1.254 . S
N73 Zn67 2.036 . S
N73 C74 1.298 . S
N73 N76 1.398 1_455 S
C74 N73 1.298 . S
C74 N77 1.367 . S
C74 C87 1.481 . S
C75 N76 1.299 . S
C75 N77 1.379 1_655 S
N76 N73 1.398 1_655 S
N76 C75 1.299 . S
N77 C74 1.367 . S
N77 C75 1.379 1_455 S
C78 N80 1.298 . S
C78 N82 1.367 . S
C78 C86 1.481 1_455 S
C79 N81 1.299 . S
C79 N82 1.379 . S
N80 Zn64 2.036 . S
N80 C78 1.298 . S
N80 N81 1.398 . S
N81 C79 1.299 . S
N81 N80 1.398 . S
N82 C78 1.367 . S
N82 C79 1.379 . S
H83 C86 0.980 1_455 S
H84 C86 0.981 . S
H85 C86 0.981 . S
C86 C78 1.481 1_655 S
C86 H83 0.980 1_655 S
C86 H84 0.981 . S
C86 H85 0.981 . S
C87 C74 1.481 . S
C87 H88 0.980 . S
C87 H89 0.981 . S
C87 H90 0.981 . S
H88 C87 0.980 . S
H89 C87 0.981 . S
H90 C87 0.981 . S
O91 Zn67 2.066 . S
O91 C70 1.256 . S
O92 Zn64 2.053 . S
O92 C70 1.244 . S
C93 O71 1.259 . S
C93 O72 1.254 . S
O94 Zn64 2.066 1_655 S
O94 C66 1.256 . S
O95 C66 1.244 . S
O95 Zn67 2.053 1_655 S
Zn96 O97 2.055 . S
Zn96 O104 2.046 . S
Zn96 N112 2.036 . S
Zn96 O124 2.053 1_655 S
Zn96 O126 2.066 . S
O97 Zn96 2.055 . S
O97 C100 1.259 . S
C98 O126 1.256 . S
C98 O127 1.244 . S
Zn99 O101 2.046 . S
Zn99 O103 2.055 . S
Zn99 N105 2.036 . S
Zn99 O123 2.066 1_655 S
Zn99 O127 2.053 . S
C100 O97 1.259 . S
C100 O101 1.254 . S
O101 Zn99 2.046 . S
O101 C100 1.254 . S
C102 O123 1.256 . S
C102 O124 1.244 . S
O103 Zn99 2.055 . S
O103 C125 1.259 . S
O104 Zn96 2.046 . S
O104 C125 1.254 . S
N105 Zn99 2.036 . S
N105 C106 1.298 . S
N105 N108 1.398 . S
C106 N105 1.298 . S
C106 N109 1.367 . S
C106 C119 1.481 1_655 S
C107 N108 1.299 . S
C107 N109 1.379 . S
N108 N105 1.398 . S
N108 C107 1.299 . S
N109 C106 1.367 . S
N109 C107 1.379 . S
C110 N112 1.298 . S
C110 N114 1.367 . S
C110 C118 1.481 . S
C111 N113 1.299 . S
C111 N114 1.379 1_455 S
N112 Zn96 2.036 . S
N112 C110 1.298 . S
N112 N113 1.398 1_655 S
N113 C111 1.299 . S
N113 N112 1.398 1_455 S
N114 C110 1.367 . S
N114 C111 1.379 1_655 S
H115 C118 0.980 . S
H116 C118 0.981 . S
H117 C118 0.981 . S
C118 C110 1.481 . S
C118 H115 0.980 . S
C118 H116 0.981 . S
C118 H117 0.981 . S
C119 C106 1.481 1_455 S
C119 H120 0.980 1_455 S
C119 H121 0.981 . S
C119 H122 0.981 . S
H120 C119 0.980 1_655 S
H121 C119 0.981 . S
H122 C119 0.981 . S
O123 Zn99 2.066 1_455 S
O123 C102 1.256 . S
O124 Zn96 2.053 1_455 S
O124 C102 1.244 . S
C125 O103 1.259 . S
C125 O104 1.254 . S
O126 Zn96 2.066 . S
O126 C98 1.256 . S
O127 C98 1.244 . S
O127 Zn99 2.053 . S
Zn128 O129 2.055 . S
Zn128 O136 2.046 . S
Zn128 N144 2.036 . S
Zn128 O156 2.053 . S
Zn128 O158 2.066 . S
O129 Zn128 2.055 . S
O129 C132 1.259 1_556 S
C130 O158 1.283 . S
C130 O159 1.217 1_556 S
Zn131 O133 2.046 . S
Zn131 O135 2.055 . S
Zn131 N137 2.036 . S
Zn131 O155 2.066 . S
Zn131 O159 2.053 . S
C132 O129 1.259 1_554 S
C132 O133 1.254 . S
O133 Zn131 2.046 . S
O133 C132 1.254 . S
C134 O155 1.256 . S
C134 O156 1.244 1_554 S
O135 Zn131 2.055 . S
O135 C157 1.259 . S
O136 Zn128 2.046 . S
O136 C157 1.254 1_556 S
N137 Zn131 2.036 . S
N137 C138 1.298 . S
N137 N140 1.398 . S
C138 N137 1.298 . S
C138 N141 1.367 . S
C138 C151 1.481 . S
C139 N140 1.299 . S
C139 N141 1.379 . S
N140 N137 1.398 . S
N140 C139 1.299 . S
N141 C138 1.367 . S
N141 C139 1.379 . S
C142 N144 1.298 . S
C142 N146 1.367 . S
C142 C150 1.481 . S
C143 N145 1.299 . S
C143 N146 1.379 . S
N144 Zn128 2.036 . S
N144 C142 1.298 . S
N144 N145 1.398 . S
N145 C143 1.299 . S
N145 N144 1.398 . S
N146 C142 1.367 . S
N146 C143 1.379 . S
H147 C150 0.980 . S
H148 C150 0.981 . S
H149 C150 0.981 . S
C150 C142 1.481 . S
C150 H147 0.980 . S
C150 H148 0.981 . S
C150 H149 0.981 . S
C151 C138 1.481 . S
C151 H152 0.980 . S
C151 H153 0.981 . S
C151 H154 0.981 . S
H152 C151 0.980 . S
H153 C151 0.981 . S
H154 C151 0.981 . S
O155 Zn131 2.066 . S
O155 C134 1.256 . S
O156 Zn128 2.053 . S
O156 C134 1.244 1_556 S
C157 O135 1.259 . S
C157 O136 1.254 1_554 S
O158 Zn128 2.066 . S
O158 C130 1.283 . S
O159 C130 1.217 1_554 S
O159 Zn131 2.053 . S
Zn160 O161 2.055 . S
Zn160 O168 2.046 . S
Zn160 N176 2.036 . S
Zn160 O188 2.053 . S
Zn160 O190 2.066 . S
O161 Zn160 2.055 . S
O161 C164 1.259 . S
C162 O190 1.256 . S
C162 O191 1.244 1_554 S
Zn163 O165 2.046 . S
Zn163 O167 2.055 . S
Zn163 N169 2.036 . S
Zn163 O187 2.066 . S
Zn163 O191 2.053 . S
C164 O161 1.259 . S
C164 O165 1.254 1_554 S
O165 Zn163 2.046 . S
O165 C164 1.254 1_556 S
C166 O187 1.283 . S
C166 O188 1.217 1_556 S
O167 Zn163 2.055 . S
O167 C189 1.259 1_556 S
O168 Zn160 2.046 . S
O168 C189 1.254 . S
N169 Zn163 2.036 . S
N169 C170 1.298 . S
N169 N172 1.398 . S
C170 N169 1.298 . S
C170 N173 1.367 . S
C170 C183 1.481 . S
C171 N172 1.299 . S
C171 N173 1.379 . S
N172 N169 1.398 . S
N172 C171 1.299 . S
N173 C170 1.367 . S
N173 C171 1.379 . S
C174 N176 1.298 . S
C174 N178 1.367 . S
C174 C182 1.481 . S
C175 N177 1.299 . S
C175 N178 1.379 . S
N176 Zn160 2.036 . S
N176 C174 1.298 . S
N176 N177 1.398 . S
N177 C175 1.299 . S
N177 N176 1.398 . S
N178 C174 1.367 . S
N178 C175 1.379 . S
H179 C182 0.980 . S
H180 C182 0.981 . S
H181 C182 0.981 . S
C182 C174 1.481 . S
C182 H179 0.980 . S
C182 H180 0.981 . S
C182 H181 0.981 . S
C183 C170 1.481 . S
C183 H184 0.980 . S
C183 H185 0.981 . S
C183 H186 0.981 . S
H184 C183 0.980 . S
H185 C183 0.981 . S
H186 C183 0.981 . S
O187 Zn163 2.066 . S
O187 C166 1.283 . S
O188 Zn160 2.053 . S
O188 C166 1.217 1_554 S
C189 O167 1.259 1_554 S
C189 O168 1.254 . S
O190 Zn160 2.066 . S
O190 C162 1.256 . S
O191 C162 1.244 1_556 S
O191 Zn163 2.053 . S
Zn192 O193 2.055 . S
Zn192 O200 2.046 . S
Zn192 N208 2.036 . S
Zn192 O220 2.053 . S
Zn192 O222 2.066 . S
O193 Zn192 2.055 . S
O193 C196 1.259 . S
C194 O222 1.256 . S
C194 O223 1.244 . S
Zn195 O197 2.046 . S
Zn195 O199 2.055 . S
Zn195 N201 2.036 . S
Zn195 O219 2.066 . S
Zn195 O223 2.053 . S
C196 O193 1.259 . S
C196 O197 1.254 . S
O197 Zn195 2.046 . S
O197 C196 1.254 . S
C198 O219 1.256 . S
C198 O220 1.244 . S
O199 Zn195 2.055 . S
O199 C221 1.259 . S
O200 Zn192 2.046 . S
O200 C221 1.254 . S
N201 Zn195 2.036 . S
N201 C202 1.298 . S
N201 N204 1.398 . S
C202 N201 1.298 . S
C202 N205 1.367 . S
C202 C215 1.481 . S
C203 N204 1.299 . S
C203 N205 1.379 . S
N204 N201 1.398 . S
N204 C203 1.299 . S
N205 C202 1.367 . S
N205 C203 1.379 . S
C206 N208 1.298 . S
C206 N210 1.367 . S
C206 C214 1.481 . S
C207 N209 1.299 . S
C207 N210 1.379 . S
N208 Zn192 2.036 . S
N208 C206 1.298 . S
N208 N209 1.398 . S
N209 C207 1.299 . S
N209 N208 1.398 . S
N210 C206 1.367 . S
N210 C207 1.379 . S
H211 C214 0.980 . S
H212 C214 0.981 . S
H213 C214 0.981 . S
C214 C206 1.481 . S
C214 H211 0.980 . S
C214 H212 0.981 . S
C214 H213 0.981 . S
C215 C202 1.481 . S
C215 H216 0.980 . S
C215 H217 0.981 . S
C215 H218 0.981 . S
H216 C215 0.980 . S
H217 C215 0.981 . S
H218 C215 0.981 . S
O219 Zn195 2.066 . S
O219 C198 1.256 . S
O220 Zn192 2.053 . S
O220 C198 1.244 . S
C221 O199 1.259 . S
C221 O200 1.254 . S
O222 Zn192 2.066 . S
O222 C194 1.256 . S
O223 C194 1.244 . S
O223 Zn195 2.053 . S
Zn224 O225 2.055 . S
Zn224 O232 2.046 . S
Zn224 N240 2.036 . S
Zn224 O252 2.053 . S
Zn224 O254 2.066 . S
O225 Zn224 2.055 . S
O225 C228 1.259 . S
C226 O254 1.256 . S
C226 O255 1.244 . S
Zn227 O229 2.046 . S
Zn227 O231 2.055 . S
Zn227 N233 2.036 . S
Zn227 O251 2.066 . S
Zn227 O255 2.053 . S
C228 O225 1.259 . S
C228 O229 1.254 . S
O229 Zn227 2.046 . S
O229 C228 1.254 . S
C230 O251 1.256 . S
C230 O252 1.244 . S
O231 Zn227 2.055 . S
O231 C253 1.259 . S
O232 Zn224 2.046 . S
O232 C253 1.254 . S
N233 Zn227 2.036 . S
N233 C234 1.298 . S
N233 N236 1.398 . S
C234 N233 1.298 . S
C234 N237 1.367 . S
C234 C247 1.481 . S
C235 N236 1.299 . S
C235 N237 1.379 . S
N236 N233 1.398 . S
N236 C235 1.299 . S
N237 C234 1.367 . S
N237 C235 1.379 . S
C238 N240 1.298 . S
C238 N242 1.367 . S
C238 C246 1.481 . S
C239 N241 1.299 . S
C239 N242 1.379 . S
N240 Zn224 2.036 . S
N240 C238 1.298 . S
N240 N241 1.398 . S
N241 C239 1.299 . S
N241 N240 1.398 . S
N242 C238 1.367 . S
N242 C239 1.379 . S
H243 C246 0.980 . S
H244 C246 0.981 . S
H245 C246 0.981 . S
C246 C238 1.481 . S
C246 H243 0.980 . S
C246 H244 0.981 . S
C246 H245 0.981 . S
C247 C234 1.481 . S
C247 H248 0.980 . S
C247 H249 0.981 . S
C247 H250 0.981 . S
H248 C247 0.980 . S
H249 C247 0.981 . S
H250 C247 0.981 . S
O251 Zn227 2.066 . S
O251 C230 1.256 . S
O252 Zn224 2.053 . S
O252 C230 1.244 . S
C253 O231 1.259 . S
C253 O232 1.254 . S
O254 Zn224 2.066 . S
O254 C226 1.256 . S
O255 C226 1.244 . S
O255 Zn227 2.053 . S
H256 C268 0.930 . S
H257 C270 0.930 . S
H258 C271 0.930 . S
H259 C275 0.955 1_554 S
H260 C275 0.961 . S
H261 C275 0.962 . S
H262 C276 0.960 . S
H263 C276 0.961 . S
H264 C276 0.959 . S
H265 C279 0.929 . S
H266 C280 0.931 . S
H267 C282 0.930 . S
C268 H256 0.930 . S
C268 C269 1.399 1_556 S
C268 C273 1.399 . S
C269 C268 1.399 1_554 S
C269 C270 1.376 . S
C270 H257 0.930 . S
C270 C269 1.376 . S
C270 C271 1.388 . S
C271 H258 0.930 . S
C271 C270 1.388 . S
C271 C272 1.390 . S
C272 C271 1.390 . S
C272 C273 1.394 1_554 S
C272 C278 1.465 . S
C273 C268 1.399 . S
C273 C272 1.394 1_556 S
C273 C274 1.516 . S
C274 C273 1.516 . S
C274 C275 1.503 . S
C274 C276 1.561 . S
C274 C277 1.524 1_556 S
C275 H259 0.955 1_556 S
C275 H260 0.961 . S
C275 H261 0.962 . S
C275 C274 1.503 . S
C276 H262 0.960 . S
C276 H263 0.961 . S
C276 H264 0.959 . S
C276 C274 1.561 . S
C277 C274 1.524 1_554 S
C277 C278 1.398 . S
C277 C282 1.389 1_554 S
C278 C272 1.465 . S
C278 C277 1.398 . S
C278 C279 1.399 . S
C279 H265 0.929 . S
C279 C278 1.399 . S
C279 C280 1.385 . S
C280 H266 0.931 . S
C280 C279 1.385 . S
C280 C281 1.389 . S
C281 C280 1.389 . S
C281 C282 1.387 1_554 S
C282 H267 0.930 . S
C282 C277 1.389 1_556 S
C282 C281 1.387 1_556 S
H283 C295 0.930 . S
H284 C297 0.930 . S
H285 C298 0.930 . S
H286 C302 0.959 . S
H287 C302 0.959 . S
H288 C302 0.961 . S
H289 C303 0.960 . S
H290 C303 0.961 . S
H291 C303 0.959 . S
H292 C306 0.929 . S
H293 C307 0.931 . S
H294 C309 0.930 . S
C295 H283 0.930 . S
C295 C296 1.399 . S
C295 C300 1.399 . S
C296 C295 1.399 . S
C296 C297 1.376 1_554 S
C297 H284 0.930 . S
C297 C296 1.376 1_556 S
C297 C298 1.388 . S
C298 H285 0.930 . S
C298 C297 1.388 . S
C298 C299 1.390 . S
C299 C298 1.390 . S
C299 C300 1.394 1_556 S
C299 C305 1.465 . S
C300 C295 1.399 . S
C300 C299 1.394 1_554 S
C300 C301 1.516 . S
C301 C300 1.516 . S
C301 C302 1.502 . S
C301 C303 1.561 . S
C301 C304 1.526 . S
C302 H286 0.959 . S
C302 H287 0.959 . S
C302 H288 0.961 . S
C302 C301 1.502 . S
C303 H289 0.960 . S
C303 H290 0.961 . S
C303 H291 0.959 . S
C303 C301 1.561 . S
C304 C301 1.526 . S
C304 C305 1.396 1_554 S
C304 C309 1.390 . S
C305 C299 1.465 . S
C305 C304 1.396 1_556 S
C305 C306 1.399 . S
C306 H292 0.929 . S
C306 C305 1.399 . S
C306 C307 1.385 . S
C307 H293 0.931 . S
C307 C306 1.385 . S
C307 C308 1.358 1_556 S
C308 C307 1.358 1_554 S
C308 C309 1.413 . S
C309 H294 0.930 . S
C309 C304 1.390 . S
C309 C308 1.413 . S
H310 C322 0.930 . S
H311 C324 0.930 . S
H312 C325 0.930 . S
H313 C329 0.959 . S
H314 C329 0.959 . S
H315 C329 0.961 . S
H316 C330 0.960 . S
H317 C330 0.961 . S
H318 C330 0.959 . S
H319 C333 0.929 . S
H320 C334 0.931 . S
H321 C336 0.930 . S
C322 H310 0.930 . S
C322 C323 1.399 . S
C322 C327 1.399 . S
C323 C322 1.399 . S
C323 C324 1.376 . S
C324 H311 0.930 . S
C324 C323 1.376 . S
C324 C325 1.388 . S
C325 H312 0.930 . S
C325 C324 1.388 . S
C325 C326 1.390 . S
C326 C325 1.390 . S
C326 C327 1.394 . S
C326 C332 1.465 . S
C327 C322 1.399 . S
C327 C326 1.394 . S
C327 C328 1.516 . S
C328 C327 1.516 . S
C328 C329 1.502 . S
C328 C330 1.561 . S
C328 C331 1.526 . S
C329 H313 0.959 . S
C329 H314 0.959 . S
C329 H315 0.961 . S
C329 C328 1.502 . S
C330 H316 0.960 . S
C330 H317 0.961 . S
C330 H318 0.959 . S
C330 C328 1.561 . S
C331 C328 1.526 . S
C331 C332 1.396 . S
C331 C336 1.390 . S
C332 C326 1.465 . S
C332 C331 1.396 . S
C332 C333 1.399 . S
C333 H319 0.929 . S
C333 C332 1.399 . S
C333 C334 1.385 . S
C334 H320 0.931 . S
C334 C333 1.385 . S
C334 C335 1.389 . S
C335 C334 1.389 . S
C335 C336 1.387 . S
C336 H321 0.930 . S
C336 C331 1.390 . S
C336 C335 1.387 . S
H337 C349 0.930 . S
H338 C351 0.930 . S
H339 C352 0.930 . S
H340 C356 0.959 . S
H341 C356 0.959 . S
H342 C356 0.961 . S
H343 C357 0.960 . S
H344 C357 0.961 . S
H345 C357 0.959 . S
H346 C360 0.929 . S
H347 C361 0.931 . S
H348 C363 0.930 . S
C349 H337 0.930 . S
C349 C350 1.399 . S
C349 C354 1.399 . S
C350 C349 1.399 . S
C350 C351 1.376 . S
C351 H338 0.930 . S
C351 C350 1.376 . S
C351 C352 1.388 . S
C352 H339 0.930 . S
C352 C351 1.388 . S
C352 C353 1.390 . S
C353 C352 1.390 . S
C353 C354 1.394 . S
C353 C359 1.465 . S
C354 C349 1.399 . S
C354 C353 1.394 . S
C354 C355 1.516 . S
C355 C354 1.516 . S
C355 C356 1.502 . S
C355 C357 1.561 . S
C355 C358 1.526 . S
C356 H340 0.959 . S
C356 H341 0.959 . S
C356 H342 0.961 . S
C356 C355 1.502 . S
C357 H343 0.960 . S
C357 H344 0.961 . S
C357 H345 0.959 . S
C357 C355 1.561 . S
C358 C355 1.526 . S
C358 C359 1.396 . S
C358 C363 1.390 . S
C359 C353 1.465 . S
C359 C358 1.396 . S
C359 C360 1.399 . S
C360 H346 0.929 . S
C360 C359 1.399 . S
C360 C361 1.385 . S
C361 H347 0.931 . S
C361 C360 1.385 . S
C361 C362 1.389 . S
C362 C361 1.389 . S
C362 C363 1.387 . S
C363 H348 0.930 . S
C363 C358 1.390 . S
C363 C362 1.387 . S
H364 C376 0.930 . S
H365 C378 0.930 . S
H366 C379 0.930 . S
H367 C383 0.959 . S
H368 C383 0.959 . S
H369 C383 0.961 . S
H370 C384 0.960 . S
H371 C384 0.961 . S
H372 C384 0.959 . S
H373 C387 0.929 . S
H374 C388 0.931 . S
H375 C390 0.930 . S
C376 H364 0.930 . S
C376 C377 1.399 1_556 S
C376 C381 1.399 . S
C377 C376 1.399 1_554 S
C377 C378 1.376 . S
C378 H365 0.930 . S
C378 C377 1.376 . S
C378 C379 1.388 . S
C379 H366 0.930 . S
C379 C378 1.388 . S
C379 C380 1.390 1_655 S
C380 C379 1.390 1_455 S
C380 C381 1.394 1_454 S
C380 C386 1.465 . S
C381 C376 1.399 . S
C381 C380 1.394 1_656 S
C381 C382 1.516 1_655 S
C382 C381 1.516 1_455 S
C382 C383 1.502 . S
C382 C384 1.561 . S
C382 C385 1.526 . S
C383 H367 0.959 . S
C383 H368 0.959 . S
C383 H369 0.961 . S
C383 C382 1.502 . S
C384 H370 0.960 . S
C384 H371 0.961 . S
C384 H372 0.959 . S
C384 C382 1.561 . S
C385 C382 1.526 . S
C385 C386 1.396 1_556 S
C385 C390 1.390 . S
C386 C380 1.465 . S
C386 C385 1.396 1_554 S
C386 C387 1.399 . S
C387 H373 0.929 . S
C387 C386 1.399 . S
C387 C388 1.385 . S
C388 H374 0.931 . S
C388 C387 1.385 . S
C388 C389 1.389 . S
C389 C388 1.389 . S
C389 C390 1.387 1_554 S
C390 H375 0.930 . S
C390 C385 1.390 . S
C390 C389 1.387 1_556 S
H391 C403 0.930 . S
H392 C405 0.930 . S
H393 C406 0.930 . S
H394 C410 0.959 . S
H395 C410 0.959 . S
H396 C410 0.961 . S
H397 C411 0.960 . S
H398 C411 0.961 . S
H399 C411 0.959 . S
H400 C414 0.929 1_556 S
H401 C415 0.931 . S
H402 C417 0.930 . S
C403 H391 0.930 . S
C403 C404 1.399 . S
C403 C408 1.399 . S
C404 C403 1.399 . S
C404 C405 1.376 1_554 S
C405 H392 0.930 . S
C405 C404 1.376 1_556 S
C405 C406 1.388 . S
C406 H393 0.930 . S
C406 C405 1.388 . S
C406 C407 1.390 1_456 S
C407 C406 1.390 1_654 S
C407 C408 1.394 1_655 S
C407 C413 1.465 . S
C408 C403 1.399 . S
C408 C407 1.394 1_455 S
C408 C409 1.516 1_455 S
C409 C408 1.516 1_655 S
C409 C410 1.502 . S
C409 C411 1.561 1_554 S
C409 C412 1.526 . S
C410 H394 0.959 . S
C410 H395 0.959 . S
C410 H396 0.961 . S
C410 C409 1.502 . S
C411 H397 0.960 . S
C411 H398 0.961 . S
C411 H399 0.959 . S
C411 C409 1.561 1_556 S
C412 C409 1.526 . S
C412 C413 1.396 . S
C412 C417 1.390 . S
C413 C407 1.465 . S
C413 C412 1.396 . S
C413 C414 1.399 . S
C414 H400 0.929 1_554 S
C414 C413 1.399 . S
C414 C415 1.385 . S
C415 H401 0.931 . S
C415 C414 1.385 . S
C415 C416 1.389 . S
C416 C415 1.389 . S
C416 C417 1.387 . S
C417 H402 0.930 . S
C417 C412 1.390 . S
C417 C416 1.387 . S
H418 C430 0.930 . S
H419 C432 0.930 . S
H420 C433 0.930 . S
H421 C437 0.959 . S
H422 C437 0.959 . S
H423 C437 0.961 . S
H424 C438 0.960 . S
H425 C438 0.961 . S
H426 C438 0.959 . S
H427 C441 0.929 . S
H428 C442 0.931 . S
H429 C444 0.930 . S
C430 H418 0.930 . S
C430 C431 1.399 . S
C430 C435 1.399 . S
C431 C430 1.399 . S
C431 C432 1.376 . S
C432 H419 0.930 . S
C432 C431 1.376 . S
C432 C433 1.388 . S
C433 H420 0.930 . S
C433 C432 1.388 . S
C433 C434 1.390 . S
C434 C433 1.390 . S
C434 C435 1.394 . S
C434 C440 1.465 . S
C435 C430 1.399 . S
C435 C434 1.394 . S
C435 C436 1.516 . S
C436 C435 1.516 . S
C436 C437 1.502 . S
C436 C438 1.561 . S
C436 C439 1.526 1_455 S
C437 H421 0.959 . S
C437 H422 0.959 . S
C437 H423 0.961 . S
C437 C436 1.502 . S
C438 H424 0.960 . S
C438 H425 0.961 . S
C438 H426 0.959 . S
C438 C436 1.561 . S
C439 C436 1.526 1_655 S
C439 C440 1.396 1_655 S
C439 C444 1.390 . S
C440 C434 1.465 . S
C440 C439 1.396 1_455 S
C440 C441 1.399 1_455 S
C441 H427 0.929 . S
C441 C440 1.399 1_655 S
C441 C442 1.385 . S
C442 H428 0.931 . S
C442 C441 1.385 . S
C442 C443 1.389 . S
C443 C442 1.389 . S
C443 C444 1.387 . S
C444 H429 0.930 . S
C444 C439 1.390 . S
C444 C443 1.387 . S
H445 C457 0.930 . S
H446 C459 0.930 . S
H447 C460 0.930 . S
H448 C464 0.959 . S
H449 C464 0.959 . S
H450 C464 0.961 . S
H451 C465 0.960 . S
H452 C465 0.961 . S
H453 C465 0.959 . S
H454 C468 0.929 . S
H455 C469 0.931 . S
H456 C471 0.930 . S
C457 H445 0.930 . S
C457 C458 1.399 . S
C457 C462 1.399 . S
C458 C457 1.399 . S
C458 C459 1.376 . S
C459 H446 0.930 . S
C459 C458 1.376 . S
C459 C460 1.388 . S
C460 H447 0.930 . S
C460 C459 1.388 . S
C460 C461 1.390 . S
C461 C460 1.390 . S
C461 C462 1.394 . S
C461 C467 1.465 . S
C462 C457 1.399 . S
C462 C461 1.394 . S
C462 C463 1.516 . S
C463 C462 1.516 . S
C463 C464 1.502 . S
C463 C465 1.561 . S
C463 C466 1.526 1_655 S
C464 H448 0.959 . S
C464 H449 0.959 . S
C464 H450 0.961 . S
C464 C463 1.502 . S
C465 H451 0.960 . S
C465 H452 0.961 . S
C465 H453 0.959 . S
C465 C463 1.561 . S
C466 C463 1.526 1_455 S
C466 C467 1.396 1_455 S
C466 C471 1.390 . S
C467 C461 1.465 . S
C467 C466 1.396 1_655 S
C467 C468 1.399 1_655 S
C468 H454 0.929 . S
C468 C467 1.399 1_455 S
C468 C469 1.385 . S
C469 H455 0.931 . S
C469 C468 1.385 . S
C469 C470 1.389 . S
C470 C469 1.389 . S
C470 C471 1.387 . S
C471 H456 0.930 . S
C471 C466 1.390 . S
C471 C470 1.387 . S
H472 C484 0.930 . S
H473 C486 0.930 . S
H474 C487 0.930 . S
H475 C491 0.959 . S
H476 C491 0.959 . S
H477 C491 0.961 . S
H478 C492 0.960 . S
H479 C492 0.961 . S
H480 C492 0.959 1_455 S
H481 C495 0.929 . S
H482 C496 0.931 . S
H483 C498 0.930 . S
C484 H472 0.930 . S
C484 C485 1.399 1_556 S
C484 C489 1.399 . S
C485 C484 1.399 1_554 S
C485 C486 1.376 1_655 S
C486 H473 0.930 . S
C486 C485 1.376 1_455 S
C486 C487 1.388 . S
C487 H474 0.930 . S
C487 C486 1.388 . S
C487 C488 1.390 . S
C488 C487 1.390 . S
C488 C489 1.394 1_454 S
C488 C494 1.465 . S
C489 C484 1.399 . S
C489 C488 1.394 1_656 S
C489 C490 1.516 . S
C490 C489 1.516 . S
C490 C491 1.502 . S
C490 C492 1.561 . S
C490 C493 1.526 . S
C491 H475 0.959 . S
C491 H476 0.959 . S
C491 H477 0.961 . S
C491 C490 1.502 . S
C492 H478 0.960 . S
C492 H479 0.961 . S
C492 H480 0.959 1_655 S
C492 C490 1.561 . S
C493 C490 1.526 . S
C493 C494 1.396 1_656 S
C493 C498 1.390 . S
C494 C488 1.465 . S
C494 C493 1.396 1_454 S
C494 C495 1.399 . S
C495 H481 0.929 . S
C495 C494 1.399 . S
C495 C496 1.385 . S
C496 H482 0.931 . S
C496 C495 1.385 . S
C496 C497 1.389 . S
C497 C496 1.389 . S
C497 C498 1.387 1_454 S
C498 H483 0.930 . S
C498 C493 1.390 . S
C498 C497 1.387 1_656 S
H499 C511 0.930 . S
H500 C513 0.930 . S
H501 C514 0.930 . S
H502 C518 0.959 . S
H503 C518 0.959 . S
H504 C518 0.961 . S
H505 C519 0.960 1_655 S
H506 C519 0.961 1_655 S
H507 C519 0.959 . S
H508 C522 0.929 . S
H509 C523 0.931 . S
H510 C525 0.930 . S
C511 H499 0.930 . S
C511 C512 1.399 . S
C511 C516 1.399 . S
C512 C511 1.399 . S
C512 C513 1.376 1_655 S
C513 H500 0.930 . S
C513 C512 1.376 1_455 S
C513 C514 1.388 . S
C514 H501 0.930 . S
C514 C513 1.388 . S
C514 C515 1.390 . S
C515 C514 1.390 . S
C515 C516 1.394 1_455 S
C515 C521 1.465 . S
C516 C511 1.399 . S
C516 C515 1.394 1_655 S
C516 C517 1.516 . S
C517 C516 1.516 . S
C517 C518 1.502 . S
C517 C519 1.561 1_655 S
C517 C520 1.526 . S
C518 H502 0.959 . S
C518 H503 0.959 . S
C518 H504 0.961 . S
C518 C517 1.502 . S
C519 H505 0.960 1_455 S
C519 H506 0.961 1_455 S
C519 H507 0.959 . S
C519 C517 1.561 1_455 S
C520 C517 1.526 . S
C520 C521 1.396 1_655 S
C520 C525 1.390 . S
C521 C515 1.465 . S
C521 C520 1.396 1_455 S
C521 C522 1.399 . S
C522 H508 0.929 . S
C522 C521 1.399 . S
C522 C523 1.385 . S
C523 H509 0.931 . S
C523 C522 1.385 . S
C523 C524 1.389 . S
C524 C523 1.389 . S
C524 C525 1.387 1_455 S
C525 H510 0.930 . S
C525 C520 1.390 . S
C525 C524 1.387 1_655 S
H526 C538 0.930 . S
H527 C540 0.930 . S
H528 C541 0.930 . S
H529 C545 0.959 . S
H530 C545 0.959 . S
H531 C545 0.961 1_565 S
H532 C546 0.992 . S
H533 C546 0.932 1_545 S
H534 C546 0.959 . S
H535 C549 0.929 . S
H536 C550 0.931 . S
H537 C552 0.930 . S
C538 H526 0.930 . S
C538 C539 1.399 1_556 S
C538 C543 1.399 . S
C539 C538 1.399 1_554 S
C539 C540 1.376 . S
C540 H527 0.930 . S
C540 C539 1.376 . S
C540 C541 1.388 . S
C541 H528 0.930 . S
C541 C540 1.388 . S
C541 C542 1.390 . S
C542 C541 1.390 . S
C542 C543 1.394 1_554 S
C542 C548 1.465 1_565 S
C543 C538 1.399 . S
C543 C542 1.394 1_556 S
C543 C544 1.490 1_565 S
C544 C543 1.490 1_545 S
C544 C545 1.505 . S
C544 C546 1.559 1_545 S
C544 C547 1.551 . S
C545 H529 0.959 . S
C545 H530 0.959 . S
C545 H531 0.961 1_545 S
C545 C544 1.505 . S
C546 H532 0.992 . S
C546 H533 0.932 1_565 S
C546 H534 0.959 . S
C546 C544 1.559 1_565 S
C547 C544 1.551 . S
C547 C548 1.396 1_556 S
C547 C552 1.390 . S
C548 C542 1.465 1_545 S
C548 C547 1.396 1_554 S
C548 C549 1.399 . S
C549 H535 0.929 . S
C549 C548 1.399 . S
C549 C550 1.385 . S
C550 H536 0.931 . S
C550 C549 1.385 . S
C550 C551 1.389 . S
C551 C550 1.389 . S
C551 C552 1.387 1_554 S
C552 H537 0.930 . S
C552 C547 1.390 . S
C552 C551 1.387 1_556 S
H553 C565 0.930 . S
H554 C567 0.930 . S
H555 C568 0.930 . S
H556 C572 0.959 . S
H557 C572 0.959 1_565 S
H558 C572 0.961 . S
H559 C573 0.944 1_545 S
H560 C573 0.975 . S
H561 C573 0.962 . S
H562 C576 0.929 . S
H563 C577 0.931 . S
H564 C579 0.930 . S
C565 H553 0.930 . S
C565 C566 1.399 . S
C565 C570 1.399 . S
C566 C565 1.399 . S
C566 C567 1.376 . S
C567 H554 0.930 . S
C567 C566 1.376 . S
C567 C568 1.388 . S
C568 H555 0.930 . S
C568 C567 1.388 . S
C568 C569 1.390 . S
C569 C568 1.390 . S
C569 C570 1.394 . S
C569 C575 1.465 1_545 S
C570 C565 1.399 . S
C570 C569 1.394 . S
C570 C571 1.550 . S
C571 C570 1.550 . S
C571 C572 1.505 . S
C571 C573 1.559 1_545 S
C571 C574 1.491 1_545 S
C572 H556 0.959 . S
C572 H557 0.959 1_545 S
C572 H558 0.961 . S
C572 C571 1.505 . S
C573 H559 0.944 1_565 S
C573 H560 0.975 . S
C573 H561 0.962 . S
C573 C571 1.559 1_565 S
C574 C571 1.491 1_565 S
C574 C575 1.396 . S
C574 C579 1.390 . S
C575 C569 1.465 1_565 S
C575 C574 1.396 . S
C575 C576 1.399 . S
C576 H562 0.929 . S
C576 C575 1.399 . S
C576 C577 1.385 . S
C577 H563 0.931 . S
C577 C576 1.385 . S
C577 C578 1.389 . S
C578 C577 1.389 . S
C578 C579 1.387 . S
C579 H564 0.930 . S
C579 C574 1.390 . S
C579 C578 1.387 . S
H580 C592 0.930 . S
H581 C594 0.930 . S
H582 C595 0.930 . S
H583 C599 0.959 . S
H584 C599 0.959 . S
H585 C599 0.961 . S
H586 C600 0.960 . S
H587 C600 0.961 . S
H588 C600 0.959 . S
H589 C603 0.929 . S
H590 C604 0.931 . S
H591 C606 0.930 . S
C592 H580 0.930 . S
C592 C593 1.399 1_554 S
C592 C597 1.399 . S
C593 C592 1.399 1_556 S
C593 C594 1.376 . S
C594 H581 0.930 . S
C594 C593 1.376 . S
C594 C595 1.388 . S
C595 H582 0.930 . S
C595 C594 1.388 . S
C595 C596 1.390 . S
C596 C595 1.390 . S
C596 C597 1.394 1_556 S
C596 C602 1.465 . S
C597 C592 1.399 . S
C597 C596 1.394 1_554 S
C597 C598 1.516 . S
C598 C597 1.516 . S
C598 C599 1.502 . S
C598 C600 1.561 . S
C598 C601 1.526 . S
C599 H583 0.959 . S
C599 H584 0.959 . S
C599 H585 0.961 . S
C599 C598 1.502 . S
C600 H586 0.960 . S
C600 H587 0.961 . S
C600 H588 0.959 . S
C600 C598 1.561 . S
C601 C598 1.526 . S
C601 C602 1.396 1_554 S
C601 C606 1.390 . S
C602 C596 1.465 . S
C602 C601 1.396 1_556 S
C602 C603 1.399 . S
C603 H589 0.929 . S
C603 C602 1.399 . S
C603 C604 1.385 . S
C604 H590 0.931 . S
C604 C603 1.385 . S
C604 C605 1.389 . S
C605 C604 1.389 . S
C605 C606 1.387 1_556 S
C606 H591 0.930 . S
C606 C601 1.390 . S
C606 C605 1.387 1_554 S
H607 C619 0.930 . S
H608 C621 0.930 . S
H609 C622 0.930 . S
H610 C626 0.959 . S
H611 C626 0.959 . S
H612 C626 0.961 . S
H613 C627 0.960 . S
H614 C627 0.961 . S
H615 C627 0.959 . S
H616 C630 0.929 . S
H617 C631 0.931 . S
H618 C633 0.930 . S
C619 H607 0.930 . S
C619 C620 1.388 1_556 S
C619 C624 1.399 . S
C620 C619 1.388 1_554 S
C620 C621 1.390 . S
C621 H608 0.930 . S
C621 C620 1.390 . S
C621 C622 1.388 . S
C622 H609 0.930 . S
C622 C621 1.388 . S
C622 C623 1.390 . S
C623 C622 1.390 . S
C623 C624 1.394 1_554 S
C623 C629 1.465 . S
C624 C619 1.399 . S
C624 C623 1.394 1_556 S
C624 C625 1.516 . S
C625 C624 1.516 . S
C625 C626 1.502 . S
C625 C627 1.561 . S
C625 C628 1.526 . S
C626 H610 0.959 . S
C626 H611 0.959 . S
C626 H612 0.961 . S
C626 C625 1.502 . S
C627 H613 0.960 . S
C627 H614 0.961 . S
C627 H615 0.959 . S
C627 C625 1.561 . S
C628 C625 1.526 . S
C628 C629 1.396 1_556 S
C628 C633 1.390 . S
C629 C623 1.465 . S
C629 C628 1.396 1_554 S
C629 C630 1.399 . S
C630 H616 0.929 . S
C630 C629 1.399 . S
C630 C631 1.385 . S
C631 H617 0.931 . S
C631 C630 1.385 . S
C631 C632 1.389 . S
C632 C631 1.389 . S
C632 C633 1.387 1_554 S
C633 H618 0.930 . S
C633 C628 1.390 . S
C633 C632 1.387 1_556 S
H634 C646 0.930 . S
H635 C648 0.930 . S
H636 C649 0.930 . S
H637 C653 0.959 . S
H638 C653 0.959 . S
H639 C653 0.961 . S
H640 C654 0.960 . S
H641 C654 0.961 . S
H642 C654 0.959 . S
H643 C657 0.929 . S
H644 C658 0.931 . S
H645 C660 0.930 . S
C646 H634 0.930 . S
C646 C647 1.399 . S
C646 C651 1.399 . S
C647 C646 1.399 . S
C647 C648 1.376 . S
C648 H635 0.930 . S
C648 C647 1.376 . S
C648 C649 1.388 . S
C649 H636 0.930 . S
C649 C648 1.388 . S
C649 C650 1.390 . S
C650 C649 1.390 . S
C650 C651 1.394 . S
C650 C656 1.465 . S
C651 C646 1.399 . S
C651 C650 1.394 . S
C651 C652 1.516 . S
C652 C651 1.516 . S
C652 C653 1.502 . S
C652 C654 1.561 . S
C652 C655 1.526 . S
C653 H637 0.959 . S
C653 H638 0.959 . S
C653 H639 0.961 . S
C653 C652 1.502 . S
C654 H640 0.960 . S
C654 H641 0.961 . S
C654 H642 0.959 . S
C654 C652 1.561 . S
C655 C652 1.526 . S
C655 C656 1.396 . S
C655 C660 1.390 . S
C656 C650 1.465 . S
C656 C655 1.396 . S
C656 C657 1.399 . S
C657 H643 0.929 . S
C657 C656 1.399 . S
C657 C658 1.385 . S
C658 H644 0.931 . S
C658 C657 1.385 . S
C658 C659 1.389 . S
C659 C658 1.389 . S
C659 C660 1.387 . S
C660 H645 0.930 . S
C660 C655 1.390 . S
C660 C659 1.387 . S
H661 C673 0.930 . S
H662 C675 0.930 . S
H663 C676 0.930 . S
H664 C680 0.959 . S
H665 C680 0.959 . S
H666 C680 0.961 . S
H667 C681 0.960 . S
H668 C681 0.961 . S
H669 C681 0.959 . S
H670 C684 0.929 . S
H671 C685 0.931 . S
H672 C687 0.930 . S
C673 H661 0.930 . S
C673 C674 1.399 . S
C673 C678 1.399 . S
C674 C673 1.399 . S
C674 C675 1.376 . S
C675 H662 0.930 . S
C675 C674 1.376 . S
C675 C676 1.388 . S
C676 H663 0.930 . S
C676 C675 1.388 . S
C676 C677 1.390 . S
C677 C676 1.390 . S
C677 C678 1.394 . S
C677 C683 1.465 . S
C678 C673 1.399 . S
C678 C677 1.394 . S
C678 C679 1.516 . S
C679 C678 1.516 . S
C679 C680 1.502 . S
C679 C681 1.561 . S
C679 C682 1.526 . S
C680 H664 0.959 . S
C680 H665 0.959 . S
C680 H666 0.961 . S
C680 C679 1.502 . S
C681 H667 0.960 . S
C681 H668 0.961 . S
C681 H669 0.959 . S
C681 C679 1.561 . S
C682 C679 1.526 . S
C682 C683 1.396 . S
C682 C687 1.390 . S
C683 C677 1.465 . S
C683 C682 1.396 . S
C683 C684 1.399 . S
C684 H670 0.929 . S
C684 C683 1.399 . S
C684 C685 1.385 . S
C685 H671 0.931 . S
C685 C684 1.385 . S
C685 C686 1.389 . S
C686 C685 1.389 . S
C686 C687 1.387 . S
C687 H672 0.930 . S
C687 C682 1.390 . S
C687 C686 1.387 . S
H688 C700 0.930 . S
H689 C702 0.930 . S
H690 C703 0.930 . S
H691 C707 0.959 . S
H692 C707 0.959 . S
H693 C707 0.961 . S
H694 C708 0.960 . S
H695 C708 0.961 1_655 S
H696 C708 0.959 . S
H697 C711 0.929 . S
H698 C712 0.931 . S
H699 C714 0.930 . S
C700 H688 0.930 . S
C700 C701 1.399 1_655 S
C700 C705 1.399 . S
C701 C700 1.399 1_455 S
C701 C702 1.376 . S
C702 H689 0.930 . S
C702 C701 1.376 . S
C702 C703 1.388 . S
C703 H690 0.930 . S
C703 C702 1.388 . S
C703 C704 1.390 . S
C704 C703 1.390 . S
C704 C705 1.394 1_455 S
C704 C710 1.465 . S
C705 C700 1.399 . S
C705 C704 1.394 1_655 S
C705 C706 1.516 . S
C706 C705 1.516 . S
C706 C707 1.502 . S
C706 C708 1.561 1_655 S
C706 C709 1.526 . S
C707 H691 0.959 . S
C707 H692 0.959 . S
C707 H693 0.961 . S
C707 C706 1.502 . S
C708 H694 0.960 . S
C708 H695 0.961 1_455 S
C708 H696 0.959 . S
C708 C706 1.561 1_455 S
C709 C706 1.526 . S
C709 C710 1.396 1_655 S
C709 C714 1.390 . S
C710 C704 1.465 . S
C710 C709 1.396 1_455 S
C710 C711 1.399 . S
C711 H697 0.929 . S
C711 C710 1.399 . S
C711 C712 1.385 . S
C712 H698 0.931 . S
C712 C711 1.385 . S
C712 C713 1.389 1_455 S
C713 C712 1.389 1_655 S
C713 C714 1.387 . S
C714 H699 0.930 . S
C714 C709 1.390 . S
C714 C713 1.387 . S
H715 C727 0.928 1_455 S
H716 C729 0.930 . S
H717 C730 0.930 . S
H718 C734 0.959 . S
H719 C734 0.959 . S
H720 C734 0.961 . S
H721 C735 0.960 . S
H722 C735 0.961 . S
H723 C735 0.959 . S
H724 C738 0.929 . S
H725 C739 0.931 . S
H726 C741 0.930 . S
C727 H715 0.928 1_655 S
C727 C728 1.401 . S
C727 C732 1.399 . S
C728 C727 1.401 . S
C728 C729 1.376 . S
C729 H716 0.930 . S
C729 C728 1.376 . S
C729 C730 1.388 . S
C730 H717 0.930 . S
C730 C729 1.388 . S
C730 C731 1.390 . S
C731 C730 1.390 . S
C731 C732 1.394 . S
C731 C737 1.465 . S
C732 C727 1.399 . S
C732 C731 1.394 . S
C732 C733 1.516 1_655 S
C733 C732 1.516 1_455 S
C733 C734 1.502 . S
C733 C735 1.561 1_455 S
C733 C736 1.526 . S
C734 H718 0.959 . S
C734 H719 0.959 . S
C734 H720 0.961 . S
C734 C733 1.502 . S
C735 H721 0.960 . S
C735 H722 0.961 . S
C735 H723 0.959 . S
C735 C733 1.561 1_655 S
C736 C733 1.526 . S
C736 C737 1.396 1_455 S
C736 C741 1.390 . S
C737 C731 1.465 . S
C737 C736 1.396 1_655 S
C737 C738 1.399 . S
C738 H724 0.929 . S
C738 C737 1.399 . S
C738 C739 1.385 . S
C739 H725 0.931 . S
C739 C738 1.385 . S
C739 C740 1.389 1_655 S
C740 C739 1.389 1_455 S
C740 C741 1.387 . S
C741 H726 0.930 . S
C741 C736 1.390 . S
C741 C740 1.387 . S
H742 C754 0.930 . S
H743 C756 0.930 . S
H744 C757 0.930 . S
H745 C761 0.959 . S
H746 C761 0.959 . S
H747 C761 0.961 . S
H748 C762 0.960 . S
H749 C762 0.961 . S
H750 C762 0.959 1_455 S
H751 C765 0.929 . S
H752 C766 0.931 . S
H753 C768 0.930 1_655 S
C754 H742 0.930 . S
C754 C755 1.399 . S
C754 C759 1.399 . S
C755 C754 1.399 . S
C755 C756 1.376 1_655 S
C756 H743 0.930 . S
C756 C755 1.376 1_455 S
C756 C757 1.388 . S
C757 H744 0.930 . S
C757 C756 1.388 . S
C757 C758 1.390 . S
C758 C757 1.390 . S
C758 C759 1.394 1_455 S
C758 C764 1.465 . S
C759 C754 1.399 . S
C759 C758 1.394 1_655 S
C759 C760 1.516 . S
C760 C759 1.516 . S
C760 C761 1.502 . S
C760 C762 1.561 . S
C760 C763 1.526 . S
C761 H745 0.959 . S
C761 H746 0.959 . S
C761 H747 0.961 . S
C761 C760 1.502 . S
C762 H748 0.960 . S
C762 H749 0.961 . S
C762 H750 0.959 1_655 S
C762 C760 1.561 . S
C763 C760 1.526 . S
C763 C764 1.396 1_655 S
C763 C768 1.390 1_655 S
C764 C758 1.465 . S
C764 C763 1.396 1_455 S
C764 C765 1.399 . S
C765 H751 0.929 . S
C765 C764 1.399 . S
C765 C766 1.385 . S
C766 H752 0.931 . S
C766 C765 1.385 . S
C766 C767 1.389 . S
C767 C766 1.389 . S
C767 C768 1.387 . S
C768 H753 0.930 1_455 S
C768 C763 1.390 1_455 S
C768 C767 1.387 . S
H769 C781 0.930 . S
H770 C783 0.930 . S
H771 C784 0.930 . S
H772 C788 0.959 . S
H773 C788 0.959 . S
H774 C788 0.961 . S
H775 C789 0.960 . S
H776 C789 0.961 . S
H777 C789 0.959 1_455 S
H778 C792 0.929 . S
H779 C793 0.931 . S
H780 C795 0.930 1_655 S
C781 H769 0.930 . S
C781 C782 1.399 . S
C781 C786 1.399 . S
C782 C781 1.399 . S
C782 C783 1.376 1_655 S
C783 H770 0.930 . S
C783 C782 1.376 1_455 S
C783 C784 1.388 . S
C784 H771 0.930 . S
C784 C783 1.388 . S
C784 C785 1.390 . S
C785 C784 1.390 . S
C785 C786 1.394 1_455 S
C785 C791 1.465 . S
C786 C781 1.399 . S
C786 C785 1.394 1_655 S
C786 C787 1.516 . S
C787 C786 1.516 . S
C787 C788 1.502 . S
C787 C789 1.561 . S
C787 C790 1.526 . S
C788 H772 0.959 . S
C788 H773 0.959 . S
C788 H774 0.961 . S
C788 C787 1.502 . S
C789 H775 0.960 . S
C789 H776 0.961 . S
C789 H777 0.959 1_655 S
C789 C787 1.561 . S
C790 C787 1.526 . S
C790 C791 1.396 1_655 S
C790 C795 1.390 1_655 S
C791 C785 1.465 . S
C791 C790 1.396 1_455 S
C791 C792 1.399 . S
C792 H778 0.929 . S
C792 C791 1.399 . S
C792 C793 1.385 . S
C793 H779 0.931 . S
C793 C792 1.385 . S
C793 C794 1.389 . S
C794 C793 1.389 . S
C794 C795 1.387 . S
C795 H780 0.930 1_455 S
C795 C790 1.390 1_455 S
C795 C794 1.387 . S
H796 C808 0.930 . S
H797 C810 0.930 . S
H798 C811 0.930 . S
H799 C815 0.959 . S
H800 C815 0.959 . S
H801 C815 0.961 . S
H802 C816 0.960 . S
H803 C816 0.961 . S
H804 C816 0.959 . S
H805 C819 0.929 . S
H806 C820 0.931 . S
H807 C822 0.930 . S
C808 H796 0.930 . S
C808 C809 1.399 . S
C808 C813 1.399 . S
C809 C808 1.399 . S
C809 C810 1.376 . S
C810 H797 0.930 . S
C810 C809 1.376 . S
C810 C811 1.388 . S
C811 H798 0.930 . S
C811 C810 1.388 . S
C811 C812 1.390 . S
C812 C811 1.390 . S
C812 C813 1.394 . S
C812 C818 1.465 . S
C813 C808 1.399 . S
C813 C812 1.394 . S
C813 C814 1.516 . S
C814 C813 1.516 . S
C814 C815 1.502 . S
C814 C816 1.561 . S
C814 C817 1.526 . S
C815 H799 0.959 . S
C815 H800 0.959 . S
C815 H801 0.961 . S
C815 C814 1.502 . S
C816 H802 0.960 . S
C816 H803 0.961 . S
C816 H804 0.959 . S
C816 C814 1.561 . S
C817 C814 1.526 . S
C817 C818 1.396 . S
C817 C822 1.390 . S
C818 C812 1.465 . S
C818 C817 1.396 . S
C818 C819 1.399 . S
C819 H805 0.929 . S
C819 C818 1.399 . S
C819 C820 1.385 . S
C820 H806 0.931 . S
C820 C819 1.385 . S
C820 C821 1.389 . S
C821 C820 1.389 . S
C821 C822 1.387 . S
C822 H807 0.930 . S
C822 C817 1.390 . S
C822 C821 1.387 . S
H823 C835 0.930 . S
H824 C837 0.930 . S
H825 C838 0.930 . S
H826 C842 0.959 . S
H827 C842 0.959 . S
H828 C842 0.961 . S
H829 C843 0.960 . S
H830 C843 0.961 . S
H831 C843 0.959 . S
H832 C846 0.929 . S
H833 C847 0.931 . S
H834 C849 0.930 . S
C835 H823 0.930 . S
C835 C836 1.399 . S
C835 C840 1.399 . S
C836 C835 1.399 . S
C836 C837 1.376 . S
C837 H824 0.930 . S
C837 C836 1.376 . S
C837 C838 1.388 . S
C838 H825 0.930 . S
C838 C837 1.388 . S
C838 C839 1.390 . S
C839 C838 1.390 . S
C839 C840 1.394 . S
C839 C845 1.465 . S
C840 C835 1.399 . S
C840 C839 1.394 . S
C840 C841 1.516 . S
C841 C840 1.516 . S
C841 C842 1.502 . S
C841 C843 1.561 . S
C841 C844 1.526 . S
C842 H826 0.959 . S
C842 H827 0.959 . S
C842 H828 0.961 . S
C842 C841 1.502 . S
C843 H829 0.960 . S
C843 H830 0.961 . S
C843 H831 0.959 . S
C843 C841 1.561 . S
C844 C841 1.526 . S
C844 C845 1.396 . S
C844 C849 1.390 . S
C845 C839 1.465 . S
C845 C844 1.396 . S
C845 C846 1.399 . S
C846 H832 0.929 . S
C846 C845 1.399 . S
C846 C847 1.385 . S
C847 H833 0.931 . S
C847 C846 1.385 . S
C847 C848 1.389 . S
C848 C847 1.389 . S
C848 C849 1.387 . S
C849 H834 0.930 . S
C849 C844 1.390 . S
C849 C848 1.387 . S
H850 C862 0.930 . S
H851 C864 0.930 . S
H852 C865 0.930 . S
H853 C869 0.959 . S
H854 C869 0.959 . S
H855 C869 0.961 . S
H856 C870 0.960 . S
H857 C870 0.961 . S
H858 C870 0.959 . S
H859 C873 0.929 . S
H860 C874 0.931 . S
H861 C876 0.930 . S
C862 H850 0.930 . S
C862 C863 1.399 . S
C862 C867 1.399 . S
C863 C862 1.399 . S
C863 C864 1.376 . S
C864 H851 0.930 . S
C864 C863 1.376 . S
C864 C865 1.388 . S
C865 H852 0.930 . S
C865 C864 1.388 . S
C865 C866 1.390 . S
C866 C865 1.390 . S
C866 C867 1.394 . S
C866 C872 1.465 . S
C867 C862 1.399 . S
C867 C866 1.394 . S
C867 C868 1.516 . S
C868 C867 1.516 . S
C868 C869 1.502 . S
C868 C870 1.561 . S
C868 C871 1.526 . S
C869 H853 0.959 . S
C869 H854 0.959 . S
C869 H855 0.961 . S
C869 C868 1.502 . S
C870 H856 0.960 . S
C870 H857 0.961 . S
C870 H858 0.959 . S
C870 C868 1.561 . S
C871 C868 1.526 . S
C871 C872 1.396 . S
C871 C876 1.390 . S
C872 C866 1.465 . S
C872 C871 1.396 . S
C872 C873 1.399 . S
C873 H859 0.929 . S
C873 C872 1.399 . S
C873 C874 1.385 . S
C874 H860 0.931 . S
C874 C873 1.385 . S
C874 C875 1.389 . S
C875 C874 1.389 . S
C875 C876 1.387 . S
C876 H861 0.930 . S
C876 C871 1.390 . S
C876 C875 1.387 . S
H877 C889 0.930 . S
H878 C891 0.930 . S
H879 C892 0.930 . S
H880 C896 0.959 . S
H881 C896 0.959 . S
H882 C896 0.961 . S
H883 C897 0.960 . S
H884 C897 0.961 . S
H885 C897 0.959 . S
H886 C900 0.929 . S
H887 C901 0.931 . S
H888 C903 0.930 . S
C889 H877 0.930 . S
C889 C890 1.399 . S
C889 C894 1.399 . S
C890 C889 1.399 . S
C890 C891 1.376 . S
C891 H878 0.930 . S
C891 C890 1.376 . S
C891 C892 1.388 . S
C892 H879 0.930 . S
C892 C891 1.388 . S
C892 C893 1.390 . S
C893 C892 1.390 . S
C893 C894 1.394 . S
C893 C899 1.465 . S
C894 C889 1.399 . S
C894 C893 1.394 . S
C894 C895 1.516 . S
C895 C894 1.516 . S
C895 C896 1.502 . S
C895 C897 1.561 . S
C895 C898 1.526 . S
C896 H880 0.959 . S
C896 H881 0.959 . S
C896 H882 0.961 . S
C896 C895 1.502 . S
C897 H883 0.960 . S
C897 H884 0.961 . S
C897 H885 0.959 . S
C897 C895 1.561 . S
C898 C895 1.526 . S
C898 C899 1.396 . S
C898 C903 1.390 . S
C899 C893 1.465 . S
C899 C898 1.396 . S
C899 C900 1.399 . S
C900 H886 0.929 . S
C900 C899 1.399 . S
C900 C901 1.385 . S
C901 H887 0.931 . S
C901 C900 1.385 . S
C901 C902 1.389 . S
C902 C901 1.389 . S
C902 C903 1.387 . S
C903 H888 0.930 . S
C903 C898 1.390 . S
C903 C902 1.387 . S
C269 C4 1.292 . S
C281 C6 1.299 . S
C296 C34 1.294 . S
C308 C61 1.310 . S
C323 C66 1.295 . S
C335 C93 1.300 . S
C350 C100 1.299 . S
C362 C102 1.296 . S
C377 C132 1.288 . S
C389 C134 1.304 . S
C404 C189 1.297 . S
C416 C162 1.296 . S
C431 C194 1.299 . S
C443 C221 1.305 . S
C458 C230 1.296 . S
C470 C228 1.308 . S
C485 C36 1.536 . S
C497 C29 1.506 . S
C512 C125 1.535 . S
C524 C68 1.508 . S
C539 C157 1.533 . S
C551 C164 1.512 . S
C566 C196 1.499 . S
C578 C253 1.525 . S
C593 C2 1.603 . S
C605 C166 1.586 . S
C620 C130 1.573 1_554 S
C632 C38 1.596 1_554 S
C647 C70 1.576 . S
C659 C226 1.604 . S
C674 C98 1.594 . S
C686 C198 1.591 . S
C701 N13 1.449 . S
C713 N109 1.495 . S
C728 N50 1.459 . S
C740 N82 1.490 . S
C755 N45 1.493 . S
C767 N77 1.552 . S
C782 N114 1.496 . S
C794 N18 1.561 . S
C809 N141 1.476 . S
C821 N237 1.432 . S
C836 N178 1.450 . S
C848 N210 1.495 . S
C863 N173 1.588 . S
C875 N205 1.530 . S
C890 N242 1.588 . S
C902 N146 1.550 . S
