# Generated by pormake.
# Topology sxb, (6)-cn, num edge types: 1
# Building blocks:
#     Node 0, Type 0, BuildingBlock: GEDQOX_clean_sbu_0, # of connection points: 6
#     Node 1, Type 0, BuildingBlock: GEDQOX_clean_sbu_0, # of connection points: 6
#     Node 2, Type 0, BuildingBlock: GEDQOX_clean_sbu_0, # of connection points: 6
#     Node 3, Type 0, BuildingBlock: GEDQOX_clean_sbu_0, # of connection points: 6
#     Edge 4, Type (0, 0), BuildingBlock: XIVTED_clean_linker_0, # of connection points: 2
#     Edge 5, Type (0, 0), BuildingBlock: XIVTED_clean_linker_0, # of connection points: 2
#     Edge 6, Type (0, 0), BuildingBlock: XIVTED_clean_linker_0, # of connection points: 2
#     Edge 7, Type (0, 0), BuildingBlock: XIVTED_clean_linker_0, # of connection points: 2
#     Edge 8, Type (0, 0), BuildingBlock: XIVTED_clean_linker_0, # of connection points: 2
#     Edge 9, Type (0, 0), BuildingBlock: XIVTED_clean_linker_0, # of connection points: 2
#     Edge 10, Type (0, 0), BuildingBlock: XIVTED_clean_linker_0, # of connection points: 2
#     Edge 11, Type (0, 0), BuildingBlock: XIVTED_clean_linker_0, # of connection points: 2
#     Edge 12, Type (0, 0), BuildingBlock: XIVTED_clean_linker_0, # of connection points: 2
#     Edge 13, Type (0, 0), BuildingBlock: XIVTED_clean_linker_0, # of connection points: 2
#     Edge 14, Type (0, 0), BuildingBlock: XIVTED_clean_linker_0, # of connection points: 2
#     Edge 15, Type (0, 0), BuildingBlock: XIVTED_clean_linker_0, # of connection points: 2
# Relax obj value: 0.399
# Max RMSD: 0.132
# Mean RMSD: 0.082
data_MOF--net-sxb--node1-GEDQOX_clean_sbu_0--edge1-XIVTED_clean_linker_0
_symmetry_space_group_name_H-M    P1
_symmetry_Int_Tables_number       1
_symmetry_cell_setting            triclinic
loop_
_symmetry_equiv_pos_as_xyz
'x, y, z'
_cell_length_a     16.369554
_cell_length_b     35.459087
_cell_length_c     30.357751
_cell_angle_alpha  87.606321
_cell_angle_beta   94.747679
_cell_angle_gamma 115.18587
loop_
_atom_site_label
_atom_site_type_symbol
_atom_site_fract_x
_atom_site_fract_y
_atom_site_fract_z
_atom_type_partial_charge
Nd0 Nd 0.30333 0.11425 0.03385 0.0
Nd1 Nd 1.21167 1.02706 0.01769 0.0
C2 C 0.36266 0.19068 0.06458 0.0
C3 C 0.31732 0.21715 0.07282 0.0
C4 C 1.22999 0.19947 0.08794 0.0
C5 C 1.17919 0.22256 0.08677 0.0
C6 C 1.21481 0.26356 0.07024 0.0
C7 C 0.30465 0.28214 0.05814 0.0
C8 C 0.35561 0.259 0.0594 0.0
C9 C 0.29402 0.09657 0.94494 0.0
C10 C 1.07431 1.07116 0.0238 0.0
C11 C 1.15492 0.95144 0.98561 0.0
C12 C 1.20011 0.93433 0.95814 0.0
C13 C 0.26808 0.96118 0.93167 0.0
C14 C 0.32449 0.94708 0.91273 0.0
C15 C 0.31438 0.90606 0.92039 0.0
C16 C 1.24172 0.87842 0.94413 0.0
C17 C 1.18502 0.89255 0.96297 0.0
C18 C 1.21899 1.04484 0.1062 0.0
C19 C 0.43953 1.07045 0.02615 0.0
O20 O 0.3441 0.15786 0.09005 0.0
O21 O 0.36216 0.18255 0.023 0.0
O22 O 0.3648 0.1241 0.9663 0.0
O23 O 1.22999 0.07993 0.97022 0.0
O24 O 1.1504 0.10414 0.036 0.0
O25 O 1.07964 1.03692 0.01179 0.0
O26 O 1.13326 0.98001 0.96672 0.0
O27 O 1.1925 0.96144 0.02564 0.0
O28 O 1.14846 1.01769 0.08433 0.0
O29 O 0.28431 1.06118 0.08153 0.0
O30 O 0.36426 1.03953 0.0094 0.0
O31 O 0.43304 0.10261 0.04333 0.0
H32 H 1.19889 0.1671 0.09823 0.0
H33 H 1.10987 0.20729 0.09588 0.0
H34 H 0.33396 0.3139 0.0458 0.0
H35 H 0.42291 0.27302 0.04755 0.0
H36 H 0.28109 0.99371 0.92779 0.0
H37 H 0.37929 0.96891 0.89428 0.0
H38 H 1.23284 0.84676 0.95113 0.0
H39 H 1.1332 0.87158 0.98355 0.0
Nd40 Nd 1.17605 0.08492 0.52014 0.0
Nd41 Nd 0.33752 0.08268 0.52782 0.0
C42 C 1.02633 0.09497 0.50444 0.0
C43 C 0.97355 0.08785 0.46142 0.0
C44 C 0.95651 1.05248 0.43622 0.0
C45 C 0.92692 1.05063 0.39145 0.0
C46 C 0.91418 0.08419 0.37102 0.0
C47 C 0.92857 0.11891 0.39675 0.0
C48 C 0.95794 0.1207 0.44139 0.0
C49 C 1.21914 1.06735 0.43836 0.0
C50 C 1.1643 0.99452 0.53413 0.0
C51 C 0.49016 0.08328 0.50675 0.0
C52 C 0.52397 0.09282 0.46228 0.0
C53 C 0.52238 0.12728 0.43803 0.0
C54 C 0.5336 0.13076 0.3926 0.0
C55 C 0.54402 0.09931 0.37044 0.0
C56 C 0.54837 1.0656 0.39513 0.0
C57 C 0.53879 1.0625 0.44051 0.0
C58 C 0.27736 1.07443 0.61258 0.0
C59 C 0.34828 0.17632 0.52684 0.0
O60 O 1.02777 1.06243 0.52582 0.0
O61 O 1.10643 0.12569 0.5037 0.0
O62 O 1.1453 1.04571 0.45672 0.0
O63 O 0.27086 0.09569 0.46443 0.0
O64 O 1.12992 1.01837 0.5496 0.0
O65 O 1.24047 1.01318 0.51448 0.0
O66 O 0.4158 1.04917 0.50841 0.0
O67 O 0.48789 0.11378 0.52865 0.0
O68 O 0.31888 1.05412 0.59797 0.0
O69 O 0.26996 0.09937 0.58316 0.0
O70 O 0.39588 0.15468 0.52365 0.0
O71 O 0.26015 0.15623 0.5296 0.0
H72 H 0.96898 1.0268 0.45062 0.0
H73 H 0.91517 1.02324 0.37271 0.0
H74 H 0.91621 0.14469 0.38249 0.0
H75 H 0.97192 0.14854 0.45989 0.0
H76 H 0.50893 0.15074 0.4537 0.0
H77 H 0.53163 0.15743 0.37461 0.0
H78 H 0.56012 1.04164 0.37945 0.0
H79 H 0.53898 1.03539 0.4583 0.0
Nd80 Nd 0.79564 0.63042 0.03255 0.0
Nd81 Nd 0.70458 0.54362 0.01884 0.0
C82 C 0.85224 0.70872 0.0565 0.0
C83 C 0.81511 0.73906 0.04366 0.0
C84 C 0.72316 0.72866 0.04774 0.0
C85 C 0.68227 0.75201 0.02572 0.0
C86 C 0.73257 0.78631 -0.00055 0.0
C87 C 0.82607 0.7989 -0.00174 0.0
C88 C 0.86708 0.77526 0.02017 0.0
C89 C 0.77538 0.61166 0.94351 0.0
C90 C 0.567 0.58756 0.0237 0.0
C91 C 0.64368 0.46616 -0.00927 0.0
C92 C 0.68599 0.43808 0.98421 0.0
C93 C 0.77343 0.45375 0.96942 0.0
C94 C 0.81972 0.42866 0.97056 0.0
C95 C 0.77942 0.38759 0.9867 0.0
C96 C 0.68983 0.3712 -0.00099 0.0
C97 C 0.64337 0.39637 -0.00224 0.0
C98 C 0.72497 0.5631 0.10763 0.0
C99 C 0.93192 0.58594 0.02896 0.0
O100 O 0.80342 0.67715 0.08102 0.0
O101 O 0.88494 0.69743 0.02433 0.0
O102 O 0.84792 0.6393 0.96327 0.0
O103 O 0.71438 0.59512 0.97045 0.0
O104 O 0.6431 0.6204 0.03604 0.0
O105 O 0.57268 0.55362 0.01107 0.0
O106 O 0.66538 0.49844 0.96428 0.0
O107 O 0.64344 0.47556 0.0318 0.0
O108 O 0.65118 0.53606 0.08788 0.0
O109 O 0.78621 0.57908 0.08073 0.0
O110 O 0.85681 0.55453 0.01288 0.0
O111 O 0.92478 0.61834 0.04523 0.0
H112 H 0.68145 0.70118 0.06592 0.0
H113 H 0.61041 0.74237 0.028 0.0
H114 H 0.8662 0.82549 0.97844 0.0
H115 H 0.9381 0.78377 0.01654 0.0
H116 H 0.80779 0.48596 0.959 0.0
H117 H 0.8891 0.4423 0.96143 0.0
H118 H 0.65708 0.33949 0.01119 0.0
H119 H 0.57588 0.38388 0.00932 0.0
Nd120 Nd 0.68193 0.59052 0.51773 0.0
Nd121 Nd 0.83047 0.58059 0.5333 0.0
C122 C 0.51847 0.58399 0.49519 0.0
C123 C 0.46707 0.56272 0.45468 0.0
C124 C 0.48978 0.5334 0.43526 0.0
C125 C 0.44562 0.51442 0.39541 0.0
C126 C 0.37924 0.52507 0.37383 0.0
C127 C 0.35901 0.55558 0.39261 0.0
C128 C 0.40268 0.57427 0.43272 0.0
C129 C 0.75974 0.5929 0.43872 0.0
C130 C 0.65856 0.49476 0.52336 0.0
C131 C 0.98328 0.57594 0.52412 0.0
C132 C 0.99239 0.54905 0.49085 0.0
C133 C 1.04839 0.56749 0.45628 0.0
C134 C 1.04065 0.54464 0.41861 0.0
C135 C 0.97661 0.50279 0.41463 0.0
C136 C 0.92342 0.48374 0.45009 0.0
C137 C 0.93111 0.50666 0.4878 0.0
C138 C 0.75789 0.57652 0.61407 0.0
C139 C 0.84748 0.67654 0.53644 0.0
O140 O 0.53403 0.56021 0.52559 0.0
O141 O 0.59053 0.61788 0.48819 0.0
O142 O 0.74174 0.62223 0.45231 0.0
O143 O 0.74524 0.56548 0.46852 0.0
O144 O 0.62164 0.51906 0.53504 0.0
O145 O 0.74198 0.51305 0.51187 0.0
O146 O 0.93268 0.55705 0.55651 0.0
O147 O 0.96641 0.60662 0.50726 0.0
O148 O 0.78879 0.55099 0.6015 0.0
O149 O 0.76407 0.60333 0.5841 0.0
O150 O 0.88885 0.65351 0.52615 0.0
O151 O 0.76119 0.65729 0.5437 0.0
H152 H 0.54159 0.525 0.45104 0.0
H153 H 0.46198 0.49088 0.3819 0.0
H154 H 0.30644 0.5637 0.37727 0.0
H155 H 0.38584 0.59748 0.44667 0.0
H156 H 1.09536 0.60015 0.45755 0.0
H157 H 1.08523 0.55986 0.39257 0.0
H158 H 0.87456 0.45144 0.44831 0.0
H159 H 0.88627 0.49152 0.51372 0.0
H160 H 0.58127 0.74973 0.94449 0.0
H161 H 0.49668 0.95287 0.93252 0.0
H162 H 0.77761 0.86994 -0.00881 0.0
H163 H 0.29869 0.83187 0.88823 0.0
H164 H 0.61337 0.92738 0.93546 0.0
H165 H 0.49129 0.7829 0.90685 0.0
C166 C 0.60563 0.78326 0.94644 0.0
C167 C 0.68546 0.80714 0.97182 0.0
C168 C 0.54485 0.90662 0.92412 0.0
C169 C 0.58313 0.8453 0.929 0.0
C170 C 0.47809 0.92127 0.92201 0.0
C171 C 0.38736 0.89414 0.9109 0.0
C172 C 0.52046 0.86448 0.91554 0.0
C173 C 0.36745 0.85347 0.89803 0.0
C174 C 0.55464 0.80221 0.92475 0.0
C175 C 0.71568 0.85048 0.97236 0.0
N176 N 0.43325 0.83962 0.90153 0.0
N177 N 0.66346 0.86817 0.95193 0.0
H178 H 0.89975 0.38048 0.9339 0.0
H179 H 1.08775 0.26668 0.12154 0.0
H180 H 0.78759 0.34289 0.06076 0.0
H181 H 1.20221 0.3064 -0.00457 0.0
H182 H 0.97553 0.29366 0.09963 0.0
H183 H 1.00759 0.35082 0.9548 0.0
C184 C 0.89732 0.36558 0.96596 0.0
C185 C 0.83501 0.36419 -0.0043 0.0
C186 C 1.02558 0.29669 0.07688 0.0
C187 C 0.95824 0.33063 0.02 0.0
C188 C 1.08965 0.28141 0.08942 0.0
C189 C 1.1544 0.28447 0.06031 0.0
C190 C 1.02625 0.31497 0.03489 0.0
C191 C 1.15437 0.30401 0.01917 0.0
C192 C 0.9589 0.34876 0.97793 0.0
C193 C 0.83393 0.34421 0.03665 0.0
N194 N 1.09093 0.31836 0.0076 0.0
N195 N 0.89521 0.32846 0.04774 0.0
H196 H 0.5273 0.22846 0.51559 0.0
H197 H 0.48099 0.44425 0.54202 0.0
H198 H 0.27443 0.23242 0.53802 0.0
H199 H 0.72316 0.43733 0.50554 0.0
H200 H 0.40482 0.3675 0.54316 0.0
H201 H 0.60027 0.3048 0.51462 0.0
C202 C 0.48686 0.24524 0.52046 0.0
C203 C 0.39403 0.22339 0.52696 0.0
C204 C 0.47465 0.38278 0.5349 0.0
C205 C 0.47833 0.31201 0.52587 0.0
C206 C 0.51835 0.42676 0.53426 0.0
C207 C 0.6092 0.44781 0.52377 0.0
C208 C 0.52186 0.35922 0.5252 0.0
C209 C 0.65341 0.42297 0.51393 0.0
C210 C 0.5288 0.2891 0.5198 0.0
C211 C 0.34596 0.24751 0.5329 0.0
N212 N 0.60975 0.38043 0.51501 0.0
N213 N 0.38841 0.29019 0.53229 0.0
H214 H 0.99687 0.94423 0.56493 0.0
H215 H 1.02275 0.72737 0.51654 0.0
H216 H 1.22322 0.93705 0.50881 0.0
H217 H 0.78461 0.73349 0.56002 0.0
H218 H 1.09937 0.80377 0.51711 0.0
H219 H 0.9209 0.86764 0.56685 0.0
C220 C 1.03094 0.92669 0.55313 0.0
C221 C 1.11705 0.94761 0.53666 0.0
C222 C 1.0304 0.78849 0.52664 0.0
C223 C 1.02973 0.85911 0.53884 0.0
C224 C 0.98645 0.74464 0.52643 0.0
C225 C 0.89657 0.72344 0.53827 0.0
C226 C 0.98487 0.81194 0.53895 0.0
C227 C 0.85369 0.74809 0.55061 0.0
C228 C 0.98726 0.88278 0.55417 0.0
C229 C 1.15707 0.9227 0.52178 0.0
N230 N 0.89794 0.79069 0.55064 0.0
N231 N 1.11344 0.88015 0.52327 0.0
H232 H 0.4852 1.00925 -0.00551 0.0
H233 H 1.02918 0.1343 0.05022 0.0
H234 H 0.60991 0.13014 0.05543 0.0
H235 H 0.90325 1.00987 -0.00215 0.0
H236 H 0.87845 0.13406 0.05067 0.0
H237 H 0.63593 1.00947 -0.00628 0.0
C238 C 0.54378 1.03593 0.00778 0.0
C239 C 0.53264 1.0697 0.02516 0.0
C240 C 0.88345 0.10672 0.03902 0.0
C241 C 0.70916 1.07023 0.0242 0.0
C242 C 0.97035 0.10685 0.03872 0.0
C243 C 0.98117 1.07206 0.02398 0.0
C244 C 0.80457 1.07158 0.02432 0.0
C245 C 0.90021 1.03761 0.0096 0.0
C246 C 0.63064 1.03602 0.00732 0.0
C247 C 0.61322 0.1032 0.04168 0.0
N248 N 0.81681 1.03831 0.0101 0.0
N249 N 0.6966 0.10258 0.04073 0.0
H250 H 0.65379 0.16909 0.32562 0.0
H251 H 0.96138 0.14467 0.30566 0.0
H252 H 0.47464 1.03972 0.30491 0.0
H253 H 0.77755 1.01699 0.32918 0.0
H254 H 0.85263 0.14978 0.24845 0.0
H255 H 0.74177 0.16581 0.26716 0.0
C256 C 0.63104 0.14015 0.30778 0.0
C257 C 0.56249 0.10345 0.32306 0.0
C258 C 0.83646 0.1203 0.26546 0.0
C259 C 0.66844 0.09837 0.25946 0.0
C260 C 0.89888 0.11736 0.29807 0.0
C261 C 0.87458 0.08151 0.32487 0.0
C262 C 0.74809 0.0882 0.2624 0.0
C263 C 0.79649 1.04625 0.31141 0.0
C264 C 0.68209 0.138 0.27417 0.0
C265 C 0.5328 1.06783 0.2967 0.0
N266 N 0.73432 1.05084 0.28195 0.0
N267 N 0.58791 1.06562 0.26682 0.0
H268 H 0.9771 0.52346 0.00083 0.0
H269 H 0.52222 0.65124 0.04879 0.0
H270 H 1.10301 0.64704 0.05535 0.0
H271 H 0.39542 0.52548 0.00013 0.0
H272 H 0.37159 0.65079 0.05023 0.0
H273 H 1.12782 0.52393 -0.00063 0.0
C274 C 1.03596 0.55079 0.01258 0.0
C275 C 1.02513 0.58524 0.02832 0.0
C276 C 0.37636 0.62321 0.0392 0.0
C277 C 1.20177 0.58607 0.02652 0.0
C278 C 0.46324 0.62345 0.03831 0.0
C279 C 0.47383 0.58836 0.02431 0.0
C280 C 0.2972 0.5876 0.02592 0.0
C281 C 0.3926 0.55348 0.01124 0.0
C282 C 1.12284 0.55103 0.01171 0.0
C283 C 1.10608 0.61954 0.04295 0.0
N284 N 0.30917 0.55404 0.01235 0.0
N285 N 1.18955 0.61905 0.04163 0.0
H286 H 0.32429 0.55153 0.295 0.0
H287 H 0.96335 0.42299 0.41152 0.0
H288 H 0.29593 0.44005 0.36722 0.0
H289 H 0.97931 0.52619 0.32696 0.0
H290 H 1.02663 0.39887 0.35527 0.0
H291 H 1.172 0.51433 0.26078 0.0
C292 C 0.28718 0.51869 0.30239 0.0
C293 C 0.31912 0.49974 0.33677 0.0
C294 C 1.01377 0.42613 0.34809 0.0
C295 C 1.14345 0.4585 0.30102 0.0
C296 C 0.97732 0.43993 0.38048 0.0
C297 C 0.9736 0.47866 0.37531 0.0
C298 C 1.0523 0.45296 0.31251 0.0
C299 C 0.98839 0.49792 0.3336 0.0
C300 C 1.19982 0.49725 0.28286 0.0
C301 C 0.27097 0.45669 0.34308 0.0
N302 N 1.03025 0.48572 0.30418 0.0
N303 N 1.1835 0.43766 0.32664 0.0
H304 H 0.35262 0.12089 0.38583 0.0
H305 H 1.08807 1.00206 0.16204 0.0
H306 H 1.10343 1.00926 0.37996 0.0
H307 H 0.36105 0.09789 0.16282 0.0
H308 H 1.09311 1.00786 0.24192 0.0
H309 H 0.35948 0.11606 0.30532 0.0
C310 C 0.30016 0.09512 0.36777 0.0
C311 C 1.22809 1.06516 0.38996 0.0
C312 C 1.15233 1.02767 0.22492 0.0
C313 C 1.23351 1.06011 0.29755 0.0
C314 C 1.14943 1.02441 0.17902 0.0
C315 C 1.22433 1.04938 0.15535 0.0
C316 C 1.23061 1.05645 0.24813 0.0
C317 C 0.30172 0.07788 0.1796 0.0
C318 C 0.30362 0.09253 0.32175 0.0
C319 C 1.16055 1.03303 0.36457 0.0
N320 N 0.30283 0.08073 0.22459 0.0
N321 N 1.16477 1.03153 0.3201 0.0
H322 H 1.17684 1.03011 0.89366 0.0
H323 H 0.29844 0.14329 0.65964 0.0
H324 H 0.38942 0.15404 0.88365 0.0
H325 H 1.24183 1.01343 0.67592 0.0
H326 H 0.29898 0.14871 0.7404 0.0
H327 H 1.16756 1.02406 0.81256 0.0
C328 C 1.22111 1.05612 0.87448 0.0
C329 C 0.28439 0.09254 0.89568 0.0
C330 C 0.28575 0.11898 0.72618 0.0
C331 C 0.27223 0.08628 0.80268 0.0
C332 C 0.28488 0.1158 0.68009 0.0
C333 C 0.27021 0.07784 0.66092 0.0
C334 C 0.26916 0.08369 0.75334 0.0
C335 C 0.25373 1.04332 0.68926 0.0
C336 C 1.21591 1.0526 0.82821 0.0
C337 C 0.34 0.12527 0.86888 0.0
N338 N 0.25292 1.04694 0.73385 0.0
N339 N 0.33204 0.12155 0.82395 0.0
H340 H 0.71029 0.51981 0.39316 0.0
H341 H 0.85476 0.62766 0.15697 0.0
H342 H 0.82361 0.65311 0.37526 0.0
H343 H 0.62767 0.50852 0.17037 0.0
H344 H 0.87148 0.63458 0.23814 0.0
H345 H 0.70783 0.51198 0.3127 0.0
C346 C 0.73597 0.54743 0.37243 0.0
C347 C 0.76703 0.5872 0.39099 0.0
C348 C 0.81834 0.60685 0.22322 0.0
C349 C 0.76516 0.57848 0.29894 0.0
C350 C 0.80894 0.60285 0.17694 0.0
C351 C 0.73945 0.56755 0.15674 0.0
C352 C 0.75931 0.57486 0.24964 0.0
C353 C 0.68188 0.53639 0.1844 0.0
C354 C 0.73397 0.54294 0.3265 0.0
C355 C 0.79883 0.62187 0.36237 0.0
N356 N 0.69339 0.54063 0.22924 0.0
N357 N 0.79741 0.61676 0.31795 0.0
H358 H 0.70331 0.51565 0.67749 0.0
H359 H 0.87088 0.66758 0.88171 0.0
H360 H 0.78983 0.64791 0.65937 0.0
H361 H 0.65206 0.54549 0.89297 0.0
H362 H 0.85694 0.65954 0.8013 0.0
H363 H 0.69747 0.52387 0.75708 0.0
C364 C 0.72042 0.54639 0.69022 0.0
C365 C 0.74685 0.58112 0.66162 0.0
C366 C 0.81159 0.63458 0.82129 0.0
C367 C 0.74258 0.59088 0.75303 0.0
C368 C 0.81963 0.63904 0.86729 0.0
C369 C 0.76259 0.60712 0.89436 0.0
C370 C 0.7477 0.59739 0.80185 0.0
C371 C 0.69744 0.57089 0.87353 0.0
C372 C 0.71688 0.55102 0.73563 0.0
C373 C 0.76854 0.62024 0.68006 0.0
N374 N 0.69264 0.56674 0.82865 0.0
N375 N 0.76731 0.62414 0.72458 0.0
loop_
_geom_bond_atom_site_label_1
_geom_bond_atom_site_label_2
_geom_bond_distance
_geom_bond_site_symmetry_2
_ccdc_geom_bond_type
Nd0 C2 2.838 1_455 S
Nd0 O20 2.500 1_456 S
Nd0 O21 2.492 1_455 S
Nd0 O22 2.487 . S
Nd0 O23 2.682 1_545 S
Nd0 O24 2.410 1_455 S
Nd0 O29 2.414 1_456 S
Nd0 O31 2.424 . S
Nd1 C11 2.839 1_655 S
Nd1 O23 2.414 1_654 S
Nd1 O25 2.424 . S
Nd1 O26 2.500 1_654 S
Nd1 O27 2.492 1_655 S
Nd1 O28 2.487 . S
Nd1 O29 2.682 1_565 S
Nd1 O30 2.410 1_655 S
C2 Nd0 2.838 1_655 S
C2 C3 1.496 1_556 S
C2 O20 1.246 1_556 S
C2 O21 1.252 . S
C3 C2 1.496 1_554 S
C3 C4 1.366 . S
C3 C8 1.407 1_554 S
C4 C3 1.366 . S
C4 C5 1.392 . S
C4 H32 0.930 . S
C5 C4 1.392 . S
C5 C6 1.398 . S
C5 H33 0.929 . S
C6 C5 1.398 . S
C6 C7 1.352 1_554 S
C7 C6 1.352 1_556 S
C7 C8 1.384 . S
C7 H34 0.930 . S
C8 C3 1.407 1_556 S
C8 C7 1.384 . S
C8 H35 0.929 . S
C9 O22 1.241 . S
C9 O23 1.273 1_545 S
C10 O24 1.251 1_565 S
C10 O25 1.268 1_556 S
C11 Nd1 2.839 1_455 S
C11 C12 1.495 1_554 S
C11 O26 1.242 1_554 S
C11 O27 1.258 . S
C12 C11 1.495 1_556 S
C12 C13 1.366 . S
C12 C17 1.407 1_556 S
C13 C12 1.366 . S
C13 C14 1.392 . S
C13 H36 0.930 . S
C14 C13 1.392 . S
C14 C15 1.398 . S
C14 H37 0.929 . S
C15 C14 1.398 . S
C15 C16 1.352 1_556 S
C16 C15 1.352 1_554 S
C16 C17 1.384 . S
C16 H38 0.930 . S
C17 C12 1.407 1_554 S
C17 C16 1.384 . S
C17 H39 0.929 . S
C18 O28 1.241 . S
C18 O29 1.273 1_565 S
C19 O30 1.251 1_545 S
C19 O31 1.268 1_554 S
O20 Nd0 2.500 1_654 S
O20 C2 1.246 1_554 S
O21 Nd0 2.492 1_655 S
O21 C2 1.252 . S
O22 Nd0 2.487 . S
O22 C9 1.241 . S
O23 Nd0 2.682 1_565 S
O23 Nd1 2.414 1_456 S
O23 C9 1.273 1_565 S
O24 Nd0 2.410 1_655 S
O24 C10 1.251 1_545 S
O25 Nd1 2.424 . S
O25 C10 1.268 1_554 S
O26 Nd1 2.500 1_456 S
O26 C11 1.242 1_556 S
O27 Nd1 2.492 1_455 S
O27 C11 1.258 . S
O28 Nd1 2.487 . S
O28 C18 1.241 . S
O29 Nd0 2.414 1_654 S
O29 Nd1 2.682 1_545 S
O29 C18 1.273 1_545 S
O30 Nd1 2.410 1_455 S
O30 C19 1.251 1_565 S
O31 Nd0 2.424 . S
O31 C19 1.268 1_556 S
H32 C4 0.930 . S
H33 C5 0.929 . S
H34 C7 0.930 . S
H35 C8 0.929 . S
H36 C13 0.930 . S
H37 C14 0.929 . S
H38 C16 0.930 . S
H39 C17 0.929 . S
Nd40 C42 2.836 . S
Nd40 O60 2.500 . S
Nd40 O61 2.492 . S
Nd40 O62 2.487 . S
Nd40 O63 2.699 1_655 S
Nd40 O64 2.410 1_545 S
Nd40 O69 2.401 1_545 S
Nd40 O71 2.424 1_655 S
Nd41 C51 2.838 . S
Nd41 O63 2.398 1_565 S
Nd41 O65 2.424 1_455 S
Nd41 O66 2.500 . S
Nd41 O67 2.492 . S
Nd41 O68 2.487 . S
Nd41 O69 2.695 1_455 S
Nd41 O70 2.410 1_565 S
C42 Nd40 2.836 . S
C42 C43 1.498 1_545 S
C42 O60 1.258 . S
C42 O61 1.239 . S
C43 C42 1.498 1_565 S
C43 C44 1.366 . S
C43 C48 1.407 . S
C44 C43 1.366 . S
C44 C45 1.392 . S
C44 H72 0.930 . S
C45 C44 1.392 . S
C45 C46 1.398 . S
C45 H73 0.929 . S
C46 C45 1.398 . S
C46 C47 1.352 . S
C47 C46 1.352 . S
C47 C48 1.384 . S
C47 H74 0.930 . S
C48 C43 1.407 . S
C48 C47 1.384 . S
C48 H75 0.929 1_565 S
C49 O62 1.241 . S
C49 O63 1.282 1_655 S
C50 O64 1.251 . S
C50 O65 1.268 . S
C51 Nd41 2.838 . S
C51 C52 1.495 1_565 S
C51 O66 1.255 . S
C51 O67 1.246 . S
C52 C51 1.495 1_545 S
C52 C53 1.366 . S
C52 C57 1.407 . S
C53 C52 1.366 . S
C53 C54 1.392 . S
C53 H76 0.930 . S
C54 C53 1.392 . S
C54 C55 1.398 . S
C54 H77 0.929 . S
C55 C54 1.398 . S
C55 C56 1.352 . S
C56 C55 1.352 . S
C56 C57 1.384 . S
C56 H78 0.930 . S
C57 C52 1.407 . S
C57 C56 1.384 . S
C57 H79 0.929 1_545 S
C58 O68 1.241 . S
C58 O69 1.279 1_455 S
C59 O70 1.251 . S
C59 O71 1.268 . S
O60 Nd40 2.500 . S
O60 C42 1.258 . S
O61 Nd40 2.492 . S
O61 C42 1.239 . S
O62 Nd40 2.487 . S
O62 C49 1.241 . S
O63 Nd40 2.699 1_455 S
O63 Nd41 2.398 1_545 S
O63 C49 1.282 1_455 S
O64 Nd40 2.410 1_565 S
O64 C50 1.251 . S
O65 Nd41 2.424 1_655 S
O65 C50 1.268 . S
O66 Nd41 2.500 . S
O66 C51 1.255 . S
O67 Nd41 2.492 . S
O67 C51 1.246 . S
O68 Nd41 2.487 . S
O68 C58 1.241 . S
O69 Nd40 2.401 1_565 S
O69 Nd41 2.695 1_655 S
O69 C58 1.279 1_655 S
O70 Nd41 2.410 1_545 S
O70 C59 1.251 . S
O71 Nd40 2.424 1_455 S
O71 C59 1.268 . S
H72 C44 0.930 . S
H73 C45 0.929 . S
H74 C47 0.930 . S
H75 C48 0.929 1_545 S
H76 C53 0.930 . S
H77 C54 0.929 . S
H78 C56 0.930 . S
H79 C57 0.929 1_565 S
Nd80 C82 2.838 . S
Nd80 O100 2.500 1_556 S
Nd80 O101 2.492 . S
Nd80 O102 2.487 . S
Nd80 O103 2.682 . S
Nd80 O104 2.410 . S
Nd80 O109 2.414 1_556 S
Nd80 O111 2.424 . S
Nd81 C91 2.839 . S
Nd81 O103 2.414 1_554 S
Nd81 O105 2.424 . S
Nd81 O106 2.500 1_554 S
Nd81 O107 2.492 . S
Nd81 O108 2.487 . S
Nd81 O109 2.682 . S
Nd81 O110 2.410 . S
C82 Nd80 2.838 . S
C82 C83 1.496 1_556 S
C82 O100 1.246 1_556 S
C82 O101 1.252 . S
C83 C82 1.496 1_554 S
C83 C84 1.366 . S
C83 C88 1.407 1_554 S
C84 C83 1.366 . S
C84 C85 1.392 . S
C84 H112 0.930 . S
C85 C84 1.392 . S
C85 C86 1.398 . S
C85 H113 0.929 . S
C86 C85 1.398 . S
C86 C87 1.352 1_554 S
C87 C86 1.352 1_556 S
C87 C88 1.384 . S
C87 H114 0.930 . S
C88 C83 1.407 1_556 S
C88 C87 1.384 . S
C88 H115 0.929 . S
C89 O102 1.241 . S
C89 O103 1.273 . S
C90 O104 1.251 . S
C90 O105 1.268 1_556 S
C91 Nd81 2.839 . S
C91 C92 1.495 1_554 S
C91 O106 1.242 1_554 S
C91 O107 1.258 . S
C92 C91 1.495 1_556 S
C92 C93 1.366 . S
C92 C97 1.407 1_556 S
C93 C92 1.366 . S
C93 C94 1.392 . S
C93 H116 0.930 . S
C94 C93 1.392 . S
C94 C95 1.398 . S
C94 H117 0.929 . S
C95 C94 1.398 . S
C95 C96 1.352 1_556 S
C96 C95 1.352 1_554 S
C96 C97 1.384 . S
C96 H118 0.930 . S
C97 C92 1.407 1_554 S
C97 C96 1.384 . S
C97 H119 0.929 . S
C98 O108 1.241 . S
C98 O109 1.273 . S
C99 O110 1.251 . S
C99 O111 1.268 1_554 S
O100 Nd80 2.500 1_554 S
O100 C82 1.246 1_554 S
O101 Nd80 2.492 . S
O101 C82 1.252 . S
O102 Nd80 2.487 . S
O102 C89 1.241 . S
O103 Nd80 2.682 . S
O103 Nd81 2.414 1_556 S
O103 C89 1.273 . S
O104 Nd80 2.410 . S
O104 C90 1.251 . S
O105 Nd81 2.424 . S
O105 C90 1.268 1_554 S
O106 Nd81 2.500 1_556 S
O106 C91 1.242 1_556 S
O107 Nd81 2.492 . S
O107 C91 1.258 . S
O108 Nd81 2.487 . S
O108 C98 1.241 . S
O109 Nd80 2.414 1_554 S
O109 Nd81 2.682 . S
O109 C98 1.273 . S
O110 Nd81 2.410 . S
O110 C99 1.251 . S
O111 Nd80 2.424 . S
O111 C99 1.268 1_556 S
H112 C84 0.930 . S
H113 C85 0.929 . S
H114 C87 0.930 . S
H115 C88 0.929 . S
H116 C93 0.930 . S
H117 C94 0.929 . S
H118 C96 0.930 . S
H119 C97 0.929 . S
Nd120 C122 2.836 . S
Nd120 O140 2.500 . S
Nd120 O141 2.492 . S
Nd120 O142 2.487 . S
Nd120 O143 2.682 . S
Nd120 O144 2.410 . S
Nd120 O149 2.414 . S
Nd120 O151 2.424 . S
Nd121 C131 2.836 . S
Nd121 O143 2.414 . S
Nd121 O145 2.424 . S
Nd121 O146 2.500 . S
Nd121 O147 2.492 . S
Nd121 O148 2.487 . S
Nd121 O149 2.682 . S
Nd121 O150 2.410 . S
C122 Nd120 2.836 . S
C122 C123 1.498 . S
C122 O140 1.258 . S
C122 O141 1.239 . S
C123 C122 1.498 . S
C123 C124 1.366 . S
C123 C128 1.407 . S
C124 C123 1.366 . S
C124 C125 1.392 . S
C124 H152 0.930 . S
C125 C124 1.392 . S
C125 C126 1.398 . S
C125 H153 0.929 . S
C126 C125 1.398 . S
C126 C127 1.352 . S
C127 C126 1.352 . S
C127 C128 1.384 . S
C127 H154 0.930 . S
C128 C123 1.407 . S
C128 C127 1.384 . S
C128 H155 0.929 . S
C129 O142 1.241 . S
C129 O143 1.273 . S
C130 O144 1.251 . S
C130 O145 1.268 . S
C131 Nd121 2.836 . S
C131 C132 1.498 . S
C131 O146 1.258 . S
C131 O147 1.239 . S
C132 C131 1.498 . S
C132 C133 1.366 . S
C132 C137 1.407 . S
C133 C132 1.366 . S
C133 C134 1.392 . S
C133 H156 0.930 . S
C134 C133 1.392 . S
C134 C135 1.398 . S
C134 H157 0.929 . S
C135 C134 1.398 . S
C135 C136 1.352 . S
C136 C135 1.352 . S
C136 C137 1.384 . S
C136 H158 0.930 . S
C137 C132 1.407 . S
C137 C136 1.384 . S
C137 H159 0.929 . S
C138 O148 1.241 . S
C138 O149 1.273 . S
C139 O150 1.251 . S
C139 O151 1.268 . S
O140 Nd120 2.500 . S
O140 C122 1.258 . S
O141 Nd120 2.492 . S
O141 C122 1.239 . S
O142 Nd120 2.487 . S
O142 C129 1.241 . S
O143 Nd120 2.682 . S
O143 Nd121 2.414 . S
O143 C129 1.273 . S
O144 Nd120 2.410 . S
O144 C130 1.251 . S
O145 Nd121 2.424 . S
O145 C130 1.268 . S
O146 Nd121 2.500 . S
O146 C131 1.258 . S
O147 Nd121 2.492 . S
O147 C131 1.239 . S
O148 Nd121 2.487 . S
O148 C138 1.241 . S
O149 Nd120 2.414 . S
O149 Nd121 2.682 . S
O149 C138 1.273 . S
O150 Nd121 2.410 . S
O150 C139 1.251 . S
O151 Nd120 2.424 . S
O151 C139 1.268 . S
H152 C124 0.930 . S
H153 C125 0.929 . S
H154 C127 0.930 . S
H155 C128 0.929 . S
H156 C133 0.930 . S
H157 C134 0.929 . S
H158 C136 0.930 . S
H159 C137 0.929 . S
H160 C166 0.930 . S
H161 C170 0.930 . S
H162 C175 0.929 . S
H163 C173 0.929 . S
H164 C168 0.929 . S
H165 C174 0.929 . S
C166 H160 0.930 . S
C166 C167 1.367 . S
C166 C174 1.378 . S
C167 C166 1.367 . S
C167 C175 1.433 1_554 S
C168 H164 0.929 . S
C168 C170 1.378 . S
C168 C172 1.350 . S
C169 C172 1.463 1_554 S
C169 C174 1.350 . S
C169 N177 1.427 1_554 S
C170 H161 0.930 . S
C170 C168 1.378 . S
C170 C171 1.367 . S
C171 C170 1.367 . S
C171 C173 1.433 1_556 S
C172 C168 1.350 . S
C172 C169 1.463 1_556 S
C172 N176 1.427 1_556 S
C173 H163 0.929 . S
C173 C171 1.433 1_554 S
C173 N176 1.384 . S
C174 H165 0.929 . S
C174 C166 1.378 . S
C174 C169 1.350 . S
C175 H162 0.929 . S
C175 C167 1.433 1_556 S
C175 N177 1.384 . S
N176 C172 1.427 1_554 S
N176 C173 1.384 . S
N177 C169 1.427 1_556 S
N177 C175 1.384 . S
H178 C184 0.930 . S
H179 C188 0.930 . S
H180 C193 0.929 . S
H181 C191 0.929 . S
H182 C186 0.929 . S
H183 C192 0.929 . S
C184 H178 0.930 . S
C184 C185 1.367 . S
C184 C192 1.378 . S
C185 C184 1.367 . S
C185 C193 1.433 1_556 S
C186 H182 0.929 . S
C186 C188 1.378 . S
C186 C190 1.350 . S
C187 C190 1.463 1_556 S
C187 C192 1.350 . S
C187 N195 1.427 1_556 S
C188 H179 0.930 . S
C188 C186 1.378 . S
C188 C189 1.367 . S
C189 C188 1.367 . S
C189 C191 1.433 1_554 S
C190 C186 1.350 . S
C190 C187 1.463 1_554 S
C190 N194 1.427 1_554 S
C191 H181 0.929 . S
C191 C189 1.433 1_556 S
C191 N194 1.384 . S
C192 H183 0.929 . S
C192 C184 1.378 . S
C192 C187 1.350 . S
C193 H180 0.929 . S
C193 C185 1.433 1_554 S
C193 N195 1.384 . S
N194 C190 1.427 1_556 S
N194 C191 1.384 . S
N195 C187 1.427 1_554 S
N195 C193 1.384 . S
H196 C202 0.930 . S
H197 C206 0.930 . S
H198 C211 0.929 . S
H199 C209 0.929 . S
H200 C204 0.929 . S
H201 C210 0.929 . S
C202 H196 0.930 . S
C202 C203 1.367 . S
C202 C210 1.378 . S
C203 C202 1.367 . S
C203 C211 1.433 . S
C204 H200 0.929 . S
C204 C206 1.378 . S
C204 C208 1.350 . S
C205 C208 1.463 . S
C205 C210 1.350 . S
C205 N213 1.427 . S
C206 H197 0.930 . S
C206 C204 1.378 . S
C206 C207 1.367 . S
C207 C206 1.367 . S
C207 C209 1.433 . S
C208 C204 1.350 . S
C208 C205 1.463 . S
C208 N212 1.427 . S
C209 H199 0.929 . S
C209 C207 1.433 . S
C209 N212 1.384 . S
C210 H201 0.929 . S
C210 C202 1.378 . S
C210 C205 1.350 . S
C211 H198 0.929 . S
C211 C203 1.433 . S
C211 N213 1.384 . S
N212 C208 1.427 . S
N212 C209 1.384 . S
N213 C205 1.427 . S
N213 C211 1.384 . S
H214 C220 0.930 . S
H215 C224 0.930 . S
H216 C229 0.929 . S
H217 C227 0.929 . S
H218 C222 0.929 . S
H219 C228 0.929 . S
C220 H214 0.930 . S
C220 C221 1.367 . S
C220 C228 1.378 . S
C221 C220 1.367 . S
C221 C229 1.433 . S
C222 H218 0.929 . S
C222 C224 1.378 . S
C222 C226 1.350 . S
C223 C226 1.463 . S
C223 C228 1.350 . S
C223 N231 1.427 . S
C224 H215 0.930 . S
C224 C222 1.378 . S
C224 C225 1.367 . S
C225 C224 1.367 . S
C225 C227 1.433 . S
C226 C222 1.350 . S
C226 C223 1.463 . S
C226 N230 1.427 . S
C227 H217 0.929 . S
C227 C225 1.433 . S
C227 N230 1.384 . S
C228 H219 0.929 . S
C228 C220 1.378 . S
C228 C223 1.350 . S
C229 H216 0.929 . S
C229 C221 1.433 . S
C229 N231 1.384 . S
N230 C226 1.427 . S
N230 C227 1.384 . S
N231 C223 1.427 . S
N231 C229 1.384 . S
H232 C238 0.930 . S
H233 C242 0.930 . S
H234 C247 0.929 . S
H235 C245 0.929 . S
H236 C240 0.929 . S
H237 C246 0.929 . S
C238 H232 0.930 . S
C238 C239 1.369 1_565 S
C238 C246 1.378 . S
C239 C238 1.369 1_545 S
C239 C247 1.431 1_556 S
C240 H236 0.929 . S
C240 C242 1.378 . S
C240 C244 1.373 . S
C241 C244 1.474 1_566 S
C241 C246 1.366 . S
C241 N249 1.406 1_566 S
C242 H233 0.930 . S
C242 C240 1.378 . S
C242 C243 1.350 1_545 S
C243 C242 1.350 1_565 S
C243 C245 1.444 1_554 S
C244 C240 1.373 . S
C244 C241 1.474 1_544 S
C244 N248 1.396 1_544 S
C245 H235 0.929 . S
C245 C243 1.444 1_556 S
C245 N248 1.384 . S
C246 H237 0.929 . S
C246 C238 1.378 . S
C246 C241 1.366 . S
C247 H234 0.929 . S
C247 C239 1.431 1_554 S
C247 N249 1.384 . S
N248 C244 1.396 1_566 S
N248 C245 1.384 . S
N249 C241 1.406 1_544 S
N249 C247 1.384 . S
H250 C256 0.930 . S
H251 C260 0.930 . S
H252 C265 0.929 . S
H253 C263 0.929 . S
H254 C258 0.929 . S
H255 C264 0.929 . S
C256 H250 0.930 . S
C256 C257 1.367 . S
C256 C264 1.378 . S
C257 C256 1.367 . S
C257 C265 1.433 . S
C258 H254 0.929 . S
C258 C260 1.378 . S
C258 C262 1.350 . S
C259 C262 1.463 1_545 S
C259 C264 1.350 . S
C259 N267 1.427 1_545 S
C260 H251 0.930 . S
C260 C258 1.378 . S
C260 C261 1.367 . S
C261 C260 1.367 . S
C261 C263 1.433 . S
C262 C258 1.350 . S
C262 C259 1.463 1_565 S
C262 N266 1.427 1_565 S
C263 H253 0.929 . S
C263 C261 1.433 . S
C263 N266 1.384 1_565 S
C264 H255 0.929 . S
C264 C256 1.378 . S
C264 C259 1.350 . S
C265 H252 0.929 . S
C265 C257 1.433 . S
C265 N267 1.384 1_545 S
N266 C262 1.427 1_545 S
N266 C263 1.384 1_545 S
N267 C259 1.427 1_565 S
N267 C265 1.384 1_565 S
H268 C274 0.930 . S
H269 C278 0.930 . S
H270 C283 0.929 . S
H271 C281 0.929 . S
H272 C276 0.929 . S
H273 C282 0.929 . S
C274 H268 0.930 . S
C274 C275 1.373 . S
C274 C282 1.378 . S
C275 C274 1.373 . S
C275 C283 1.425 1_554 S
C276 H272 0.929 . S
C276 C278 1.378 . S
C276 C280 1.355 . S
C277 C280 1.458 1_654 S
C277 C282 1.357 . S
C277 N285 1.422 1_554 S
C278 H269 0.930 . S
C278 C276 1.378 . S
C278 C279 1.371 . S
C279 C278 1.371 . S
C279 C281 1.427 1_556 S
C280 C276 1.355 . S
C280 C277 1.458 1_456 S
C280 N284 1.424 1_556 S
C281 H271 0.929 . S
C281 C279 1.427 1_554 S
C281 N284 1.384 . S
C282 H273 0.929 . S
C282 C274 1.378 . S
C282 C277 1.357 . S
C283 H270 0.929 . S
C283 C275 1.425 1_556 S
C283 N285 1.384 . S
N284 C280 1.424 1_554 S
N284 C281 1.384 . S
N285 C277 1.422 1_556 S
N285 C283 1.384 . S
H286 C292 0.930 . S
H287 C296 0.930 . S
H288 C301 0.929 . S
H289 C299 0.929 . S
H290 C294 0.929 . S
H291 C300 0.929 . S
C292 H286 0.930 . S
C292 C293 1.367 . S
C292 C300 1.378 . S
C293 C292 1.367 . S
C293 C301 1.433 . S
C294 H290 0.929 . S
C294 C296 1.378 . S
C294 C298 1.350 . S
C295 C298 1.463 1_455 S
C295 C300 1.350 . S
C295 N303 1.427 . S
C296 H287 0.930 . S
C296 C294 1.378 . S
C296 C297 1.367 . S
C297 C296 1.367 . S
C297 C299 1.433 . S
C298 C294 1.350 . S
C298 C295 1.463 1_655 S
C298 N302 1.427 . S
C299 H289 0.929 . S
C299 C297 1.433 . S
C299 N302 1.384 . S
C300 H291 0.929 . S
C300 C292 1.378 . S
C300 C295 1.350 . S
C301 H288 0.929 . S
C301 C293 1.433 . S
C301 N303 1.384 . S
N302 C298 1.427 . S
N302 C299 1.384 . S
N303 C295 1.427 . S
N303 C301 1.384 . S
H304 C310 0.930 . S
H305 C314 0.930 . S
H306 C319 0.929 . S
H307 C317 0.929 . S
H308 C312 0.929 . S
H309 C318 0.929 . S
C310 H304 0.930 . S
C310 C311 1.374 1_565 S
C310 C318 1.378 . S
C311 C310 1.374 1_545 S
C311 C319 1.428 1_455 S
C312 H308 0.929 . S
C312 C314 1.378 . S
C312 C316 1.350 . S
C313 C316 1.464 1_455 S
C313 C318 1.360 1_545 S
C313 N321 1.415 1_455 S
C314 H305 0.930 . S
C314 C312 1.378 . S
C314 C315 1.377 . S
C315 C314 1.377 . S
C315 C317 1.425 1_645 S
C316 C312 1.350 . S
C316 C313 1.464 1_655 S
C316 N320 1.427 1_645 S
C317 H307 0.929 . S
C317 C315 1.425 1_465 S
C317 N320 1.384 . S
C318 H309 0.929 . S
C318 C310 1.378 . S
C318 C313 1.360 1_565 S
C319 H306 0.929 . S
C319 C311 1.428 1_655 S
C319 N321 1.384 . S
N320 C316 1.427 1_465 S
N320 C317 1.384 . S
N321 C313 1.415 1_655 S
N321 C319 1.384 . S
H322 C328 0.930 . S
H323 C332 0.930 . S
H324 C337 0.929 . S
H325 C335 0.929 . S
H326 C330 0.929 . S
H327 C336 0.929 . S
C328 H322 0.930 . S
C328 C329 1.368 . S
C328 C336 1.378 . S
C329 C328 1.368 . S
C329 C337 1.431 1_665 S
C330 H326 0.929 . S
C330 C332 1.378 . S
C330 C334 1.327 1_545 S
C331 C334 1.462 1_655 S
C331 C336 1.354 . S
C331 N339 1.425 1_665 S
C332 H323 0.930 . S
C332 C330 1.378 . S
C332 C333 1.367 1_545 S
C333 C332 1.367 1_565 S
C333 C335 1.433 1_455 S
C334 C330 1.327 1_565 S
C334 C331 1.462 1_455 S
C334 N338 1.451 1_455 S
C335 H325 0.929 . S
C335 C333 1.433 1_655 S
C335 N338 1.384 . S
C336 H327 0.929 . S
C336 C328 1.378 . S
C336 C331 1.354 . S
C337 H324 0.929 . S
C337 C329 1.431 1_445 S
C337 N339 1.384 . S
N338 C334 1.451 1_655 S
N338 C335 1.384 . S
N339 C331 1.425 1_445 S
N339 C337 1.384 . S
H340 C346 0.930 . S
H341 C350 0.930 . S
H342 C355 0.929 . S
H343 C353 0.929 . S
H344 C348 0.929 . S
H345 C354 0.929 . S
C346 H340 0.930 . S
C346 C347 1.367 . S
C346 C354 1.378 . S
C347 C346 1.367 . S
C347 C355 1.433 . S
C348 H344 0.929 . S
C348 C350 1.378 . S
C348 C352 1.350 . S
C349 C352 1.463 . S
C349 C354 1.350 . S
C349 N357 1.427 . S
C350 H341 0.930 . S
C350 C348 1.378 . S
C350 C351 1.367 . S
C351 C350 1.367 . S
C351 C353 1.433 . S
C352 C348 1.350 . S
C352 C349 1.463 . S
C352 N356 1.427 . S
C353 H343 0.929 . S
C353 C351 1.433 . S
C353 N356 1.384 . S
C354 H345 0.929 . S
C354 C346 1.378 . S
C354 C349 1.350 . S
C355 H342 0.929 . S
C355 C347 1.433 . S
C355 N357 1.384 . S
N356 C352 1.427 . S
N356 C353 1.384 . S
N357 C349 1.427 . S
N357 C355 1.384 . S
H358 C364 0.930 . S
H359 C368 0.930 . S
H360 C373 0.929 . S
H361 C371 0.929 . S
H362 C366 0.929 . S
H363 C372 0.929 . S
C364 H358 0.930 . S
C364 C365 1.367 . S
C364 C372 1.378 . S
C365 C364 1.367 . S
C365 C373 1.433 . S
C366 H362 0.929 . S
C366 C368 1.378 . S
C366 C370 1.350 . S
C367 C370 1.463 . S
C367 C372 1.350 . S
C367 N375 1.427 . S
C368 H359 0.930 . S
C368 C366 1.378 . S
C368 C369 1.367 . S
C369 C368 1.367 . S
C369 C371 1.433 . S
C370 C366 1.350 . S
C370 C367 1.463 . S
C370 N374 1.427 . S
C371 H361 0.929 . S
C371 C369 1.433 . S
C371 N374 1.384 . S
C372 H363 0.929 . S
C372 C364 1.378 . S
C372 C367 1.350 . S
C373 H360 0.929 . S
C373 C365 1.433 . S
C373 N375 1.384 . S
N374 C370 1.427 . S
N374 C371 1.384 . S
N375 C367 1.427 . S
N375 C373 1.384 . S
C167 C86 0.163 . S
C171 C15 0.164 . S
C185 C95 0.175 . S
C189 C6 0.174 . S
C203 C59 3.573 . S
C207 C130 3.572 . S
C221 C50 3.577 . S
C225 C139 3.577 . S
C239 C19 4.875 1_556 S
C243 C10 4.883 1_554 S
C257 C55 0.924 . S
C261 C46 0.924 . S
C275 C99 4.878 . S
C279 C90 4.877 . S
C293 C126 0.908 . S
C297 C135 0.908 . S
C311 C49 1.460 1_455 S
C315 C18 1.454 1_545 S
C329 C9 1.460 1_665 S
C333 C58 1.460 . S
C347 C129 1.461 . S
C351 C98 1.458 . S
C365 C138 1.453 . S
C369 C89 1.447 . S
