# Generated by pormake.
# Topology wjq, (5)-cn, num edge types: 1
# Building blocks:
#     Node 0, Type 0, BuildingBlock: XOMCOT_clean_sbu_1, # of connection points: 5
#     Node 1, Type 0, BuildingBlock: XOMCOT_clean_sbu_1, # of connection points: 5
#     Node 2, Type 0, BuildingBlock: XOMCOT_clean_sbu_1, # of connection points: 5
#     Node 3, Type 0, BuildingBlock: XOMCOT_clean_sbu_1, # of connection points: 5
#     Node 4, Type 0, BuildingBlock: XOMCOT_clean_sbu_1, # of connection points: 5
#     Node 5, Type 0, BuildingBlock: XOMCOT_clean_sbu_1, # of connection points: 5
#     Node 6, Type 0, BuildingBlock: XOMCOT_clean_sbu_1, # of connection points: 5
#     Node 7, Type 0, BuildingBlock: XOMCOT_clean_sbu_1, # of connection points: 5
#     Node 8, Type 0, BuildingBlock: XOMCOT_clean_sbu_1, # of connection points: 5
#     Node 9, Type 0, BuildingBlock: XOMCOT_clean_sbu_1, # of connection points: 5
#     Node 10, Type 0, BuildingBlock: XOMCOT_clean_sbu_1, # of connection points: 5
#     Node 11, Type 0, BuildingBlock: XOMCOT_clean_sbu_1, # of connection points: 5
#     Edge 12, Type (0, 0), BuildingBlock: TEMPAE_clean_linker_10, # of connection points: 2
#     Edge 13, Type (0, 0), BuildingBlock: TEMPAE_clean_linker_10, # of connection points: 2
#     Edge 14, Type (0, 0), BuildingBlock: TEMPAE_clean_linker_10, # of connection points: 2
#     Edge 15, Type (0, 0), BuildingBlock: TEMPAE_clean_linker_10, # of connection points: 2
#     Edge 16, Type (0, 0), BuildingBlock: TEMPAE_clean_linker_10, # of connection points: 2
#     Edge 17, Type (0, 0), BuildingBlock: TEMPAE_clean_linker_10, # of connection points: 2
#     Edge 18, Type (0, 0), BuildingBlock: TEMPAE_clean_linker_10, # of connection points: 2
#     Edge 19, Type (0, 0), BuildingBlock: TEMPAE_clean_linker_10, # of connection points: 2
#     Edge 20, Type (0, 0), BuildingBlock: TEMPAE_clean_linker_10, # of connection points: 2
#     Edge 21, Type (0, 0), BuildingBlock: TEMPAE_clean_linker_10, # of connection points: 2
#     Edge 22, Type (0, 0), BuildingBlock: TEMPAE_clean_linker_10, # of connection points: 2
#     Edge 23, Type (0, 0), BuildingBlock: TEMPAE_clean_linker_10, # of connection points: 2
#     Edge 24, Type (0, 0), BuildingBlock: TEMPAE_clean_linker_10, # of connection points: 2
#     Edge 25, Type (0, 0), BuildingBlock: TEMPAE_clean_linker_10, # of connection points: 2
#     Edge 26, Type (0, 0), BuildingBlock: TEMPAE_clean_linker_10, # of connection points: 2
#     Edge 27, Type (0, 0), BuildingBlock: TEMPAE_clean_linker_10, # of connection points: 2
#     Edge 28, Type (0, 0), BuildingBlock: TEMPAE_clean_linker_10, # of connection points: 2
#     Edge 29, Type (0, 0), BuildingBlock: TEMPAE_clean_linker_10, # of connection points: 2
#     Edge 30, Type (0, 0), BuildingBlock: TEMPAE_clean_linker_10, # of connection points: 2
#     Edge 31, Type (0, 0), BuildingBlock: TEMPAE_clean_linker_10, # of connection points: 2
#     Edge 32, Type (0, 0), BuildingBlock: TEMPAE_clean_linker_10, # of connection points: 2
#     Edge 33, Type (0, 0), BuildingBlock: TEMPAE_clean_linker_10, # of connection points: 2
#     Edge 34, Type (0, 0), BuildingBlock: TEMPAE_clean_linker_10, # of connection points: 2
#     Edge 35, Type (0, 0), BuildingBlock: TEMPAE_clean_linker_10, # of connection points: 2
#     Edge 36, Type (0, 0), BuildingBlock: TEMPAE_clean_linker_10, # of connection points: 2
#     Edge 37, Type (0, 0), BuildingBlock: TEMPAE_clean_linker_10, # of connection points: 2
#     Edge 38, Type (0, 0), BuildingBlock: TEMPAE_clean_linker_10, # of connection points: 2
#     Edge 39, Type (0, 0), BuildingBlock: TEMPAE_clean_linker_10, # of connection points: 2
#     Edge 40, Type (0, 0), BuildingBlock: TEMPAE_clean_linker_10, # of connection points: 2
#     Edge 41, Type (0, 0), BuildingBlock: TEMPAE_clean_linker_10, # of connection points: 2
# Relax obj value: 0.554
# Max RMSD: 0.290
# Mean RMSD: 0.290
data_MOF--net-wjq--node1-XOMCOT_clean_sbu_1--edge1-TEMPAE_clean_linker_10
_symmetry_space_group_name_H-M    P1
_symmetry_Int_Tables_number       1
_symmetry_cell_setting            triclinic
loop_
_symmetry_equiv_pos_as_xyz
'x, y, z'
_cell_length_a     27.80224
_cell_length_b     27.835448
_cell_length_c     90.80073
_cell_angle_alpha  89.961811
_cell_angle_beta   90.049992
_cell_angle_gamma 119.9725
loop_
_atom_site_label
_atom_site_type_symbol
_atom_site_fract_x
_atom_site_fract_y
_atom_site_fract_z
_atom_type_partial_charge
C0 C 0.32937 0.19868 0.04118 0.0
C1 C 0.30902 0.21058 0.02874 0.0
N2 N 0.25708 0.20032 0.03153 0.0
N3 N 0.29063 0.18071 0.05185 0.0
C4 C 0.24702 0.18231 0.04568 0.0
H5 H 0.36979 0.20235 0.04236 0.0
Co6 Co 0.30145 0.15912 0.07054 0.0
C7 C 0.18861 0.07553 0.08104 0.0
O8 O 0.21008 0.04773 0.08706 0.0
N9 N 0.31429 0.13791 0.08982 0.0
C10 C 0.33224 0.09561 0.10816 0.0
C11 C 0.32007 0.0938 0.09354 0.0
C12 C 0.32296 0.16551 0.10278 0.0
N13 N 0.33481 0.14111 0.11399 0.0
O14 O 0.31308 0.22787 0.0782 0.0
H15 H 0.31333 0.06 0.08643 0.0
H16 H 0.32168 0.20344 0.10402 0.0
O17 O 0.22017 0.12108 0.07424 0.0
C18 C 0.36588 0.2586 0.0784 0.0
O19 O 0.39654 0.23712 0.07438 0.0
N20 N 0.2978 0.09698 0.06205 0.0
C21 C 0.30987 0.01514 0.04779 0.0
C22 C 0.25846 0.01382 0.04785 0.0
C23 C 0.25334 0.05531 0.05499 0.0
C24 C 0.34868 0.10109 0.06129 0.0
C25 C 0.35515 0.05943 0.05484 0.0
H26 H 0.21459 0.0553 0.0542 0.0
H27 H 0.38423 0.13634 0.0662 0.0
H28 H 0.20897 0.17127 0.05149 0.0
H29 H 0.33064 0.22477 0.01835 0.0
H30 H 0.33758 0.06484 0.11408 0.0
H31 H 0.22296 0.98284 0.04178 0.0
H32 H 0.39568 0.06296 0.05513 0.0
C33 C 0.12884 0.41997 0.35788 0.0
C34 C 0.09613 0.38963 0.34625 0.0
N35 N 0.06453 0.33633 0.35054 0.0
N36 N 0.11812 0.38639 0.36958 0.0
C37 C 0.07838 0.33574 0.36483 0.0
H38 H 0.15928 0.46372 0.35778 0.0
Co39 Co 0.15602 0.41054 0.38753 0.0
C40 C 0.15309 0.31055 0.39967 0.0
O41 O 0.20616 0.34299 0.40258 0.0
N42 N 0.19273 0.43659 0.40586 0.0
C43 C 0.24136 0.48927 0.42495 0.0
C44 C 0.23339 0.4878 0.40992 0.0
C45 C 0.17438 0.40946 0.4188 0.0
N46 N 0.20445 0.4394 0.4304 0.0
O47 O 0.09597 0.41629 0.3957 0.0
H48 H 0.25366 0.52335 0.40275 0.0
H49 H 0.13768 0.36909 0.41992 0.0
O50 O 0.12505 0.3316 0.39414 0.0
C51 C 0.10888 0.46661 0.39349 0.0
O52 O 0.15332 0.49844 0.38565 0.0
N53 N 0.21777 0.41047 0.37889 0.0
C54 C 0.31127 0.41059 0.368 0.0
C55 C 0.25845 0.36355 0.36657 0.0
C56 C 0.21219 0.36474 0.37178 0.0
C57 C 0.26771 0.45856 0.37868 0.0
C58 C 0.3155 0.45934 0.37359 0.0
H59 H 0.172 0.32803 0.3705 0.0
H60 H 0.27078 0.49681 0.38219 0.0
H61 H 0.0614 0.29883 0.37158 0.0
H62 H 0.0959 0.40597 0.33545 0.0
H63 H 0.27107 0.52441 0.43137 0.0
H64 H 0.25274 0.32607 0.36134 0.0
H65 H 0.35509 0.49748 0.37406 0.0
C66 C 0.72347 0.07245 0.70795 0.0
C67 C 0.70813 0.03596 0.69634 0.0
N68 N 0.73664 0.00858 0.69724 0.0
N69 N 0.76145 0.0683 0.71622 0.0
C70 C 0.76842 0.02878 0.70948 0.0
H71 H 0.70854 0.10094 0.71013 0.0
Co72 Co 0.79649 0.11402 0.73244 0.0
C73 C 0.88581 0.09268 0.74152 0.0
O74 O 0.91662 0.14641 0.74347 0.0
N75 N 0.83103 0.16089 0.74918 0.0
C76 C 0.8802 0.23151 0.76446 0.0
C77 C 0.86949 0.2155 0.75 0.0
C78 C 0.8197 0.14503 0.76347 0.0
N79 N 0.84849 0.18727 0.77299 0.0
O80 O 0.7325 0.06624 0.74406 0.0
H81 H 0.89024 0.24268 0.74085 0.0
H82 H 0.78997 0.10328 0.76684 0.0
O83 O 0.83548 0.07226 0.73705 0.0
C84 C 0.70545 0.09222 0.74488 0.0
O85 O 0.72935 0.14339 0.73991 0.0
N86 N 0.85219 0.16256 0.71982 0.0
C87 C 0.89354 0.21996 0.69351 0.0
C88 C 0.90437 0.17753 0.69766 0.0
C89 C 0.88327 0.14922 0.7109 0.0
C90 C 0.84345 0.20512 0.71622 0.0
C91 C 0.86566 0.23583 0.70347 0.0
H92 H 0.88647 0.11275 0.71296 0.0
H93 H 0.81574 0.21291 0.72283 0.0
H94 H 0.79766 0.01647 0.71314 0.0
H95 H 0.67814 0.03009 0.68791 0.0
H96 H 0.90984 0.27264 0.76832 0.0
H97 H 0.92423 0.16248 0.6902 0.0
H98 H 0.85706 0.26881 0.70094 0.0
C99 C 0.6459 0.69794 0.0359 0.0
C100 C 0.67174 0.69373 0.02346 0.0
N101 N 0.72632 0.73143 0.02431 0.0
N102 N 0.68374 0.73804 0.04466 0.0
C103 C 0.73249 0.75775 0.03732 0.0
H104 H 0.6021 0.67348 0.0384 0.0
Co105 Co 0.66521 0.75872 0.06243 0.0
C106 C 0.7699 0.85191 0.07438 0.0
O107 O 0.74125 0.87449 0.07925 0.0
N108 N 0.64537 0.77855 0.08056 0.0
C109 C 0.61331 0.81062 0.09825 0.0
C110 C 0.61457 0.80287 0.08335 0.0
C111 C 0.66105 0.77082 0.09407 0.0
N112 N 0.64247 0.79031 0.10493 0.0
O113 O 0.66075 0.69496 0.07172 0.0
H114 H 0.59475 0.81552 0.07527 0.0
H115 H 0.68764 0.75328 0.09589 0.0
O116 O 0.74498 0.80565 0.06741 0.0
C117 C 0.60895 0.66072 0.07324 0.0
O118 O 0.57302 0.67513 0.06873 0.0
N119 N 0.66201 0.81535 0.05253 0.0
C120 C 0.63754 0.88476 0.03621 0.0
C121 C 0.69279 0.90065 0.03967 0.0
C122 C 0.70433 0.86465 0.04755 0.0
C123 C 0.60853 0.79814 0.04855 0.0
C124 C 0.59513 0.83258 0.04061 0.0
H125 H 0.74709 0.87573 0.04903 0.0
H126 H 0.57588 0.75735 0.05177 0.0
H127 H 0.77151 0.79154 0.04124 0.0
H128 H 0.65185 0.66455 0.01455 0.0
H129 H 0.59284 0.82999 0.10376 0.0
H130 H 0.72697 0.93925 0.03559 0.0
H131 H 0.55226 0.81812 0.03769 0.0
C132 C 0.94301 0.73859 0.3835 0.0
C133 C 0.97095 0.74963 0.3703 0.0
N134 N 0.01598 0.8009 0.37095 0.0
N135 N 0.97003 0.78261 0.39249 0.0
C136 C 0.01443 0.81974 0.38459 0.0
H137 H 0.90528 0.70089 0.38637 0.0
Co138 Co 0.9482 0.78827 0.41162 0.0
C139 C 0.02396 0.90635 0.41912 0.0
O140 O 0.03648 0.8926 0.43181 0.0
N141 N 0.9257 0.79415 0.43078 0.0
C142 C 0.88819 0.81756 0.44908 0.0
C143 C 0.90643 0.82827 0.43476 0.0
C144 C 0.91895 0.7633 0.44294 0.0
N145 N 0.89609 0.77665 0.45417 0.0
O146 O 0.00882 0.78132 0.41904 0.0
H147 H 0.90431 0.85811 0.42755 0.0
H148 H 0.92816 0.72997 0.44349 0.0
O149 O 0.99126 0.86855 0.41027 0.0
C150 C 0.98724 0.72875 0.42018 0.0
O151 O 0.93388 0.69727 0.4175 0.0
N152 N 0.88608 0.78737 0.40407 0.0
C153 C 0.79192 0.75897 0.38762 0.0
C154 C 0.83885 0.81205 0.38632 0.0
C155 C 0.88618 0.82537 0.39458 0.0
C156 C 0.83909 0.73789 0.40652 0.0
C157 C 0.79127 0.72267 0.39835 0.0
H158 H 0.92389 0.86385 0.39235 0.0
H159 H 0.84035 0.70811 0.41393 0.0
H160 H 0.04465 0.8602 0.38871 0.0
H161 H 0.95916 0.72159 0.36103 0.0
H162 H 0.86986 0.83773 0.45521 0.0
H163 H 0.84113 0.84057 0.37785 0.0
H164 H 0.75601 0.68117 0.39945 0.0
C165 C 0.19576 0.88486 0.69251 0.0
C166 C 0.19095 0.91241 0.68053 0.0
N167 N 0.19289 0.95913 0.68532 0.0
N168 N 0.19988 0.91358 0.70485 0.0
C169 C 0.19893 0.9592 0.7001 0.0
H170 H 0.19512 0.84569 0.6923 0.0
Co171 Co 0.20334 0.88978 0.72392 0.0
C172 C 0.11725 0.90526 0.73915 0.0
O173 O 0.09683 0.85535 0.74483 0.0
N174 N 0.21057 0.86715 0.74285 0.0
C175 C 0.24246 0.83406 0.76029 0.0
C176 C 0.23703 0.83843 0.74541 0.0
C177 C 0.20424 0.88336 0.75641 0.0
N178 N 0.22154 0.86228 0.76725 0.0
O179 O 0.27297 0.95487 0.72727 0.0
H180 H 0.2536 0.8235 0.73694 0.0
H181 H 0.19076 0.91303 0.75835 0.0
O182 O 0.16153 0.92549 0.73131 0.0
C183 C 0.31284 0.95216 0.72119 0.0
O184 O 0.30125 0.9129 0.71148 0.0
N185 N 0.13611 0.82246 0.72038 0.0
C186 C 0.04133 0.72253 0.71283 0.0
C187 C 0.04394 0.77365 0.7104 0.0
C188 C 0.09155 0.82286 0.71416 0.0
C189 C 0.13472 0.77318 0.72247 0.0
C190 C 0.08739 0.72282 0.71915 0.0
H191 H 0.09324 0.86157 0.71156 0.0
H192 H 0.17089 0.77206 0.72606 0.0
H193 H 0.20124 0.99112 0.70735 0.0
H194 H 0.18645 0.89917 0.66916 0.0
H195 H 0.26109 0.81233 0.76549 0.0
H196 H 0.01079 0.77623 0.70487 0.0
H197 H 0.08795 0.68468 0.72099 0.0
C198 C 0.6559 0.62093 0.61889 0.0
C199 C 0.64961 0.65096 0.63 0.0
N200 N 0.6864 0.70519 0.62786 0.0
N201 N 0.69637 0.65582 0.60971 0.0
C202 C 0.71399 0.70694 0.6154 0.0
H203 H 0.6335 0.57628 0.61778 0.0
Co204 Co 0.72218 0.63216 0.59386 0.0
C205 C 0.82769 0.72921 0.58485 0.0
O206 O 0.84756 0.69513 0.58459 0.0
N207 N 0.74689 0.60774 0.57746 0.0
C208 C 0.77431 0.56717 0.56087 0.0
C209 C 0.75708 0.56552 0.5752 0.0
C210 C 0.75643 0.63283 0.56417 0.0
N211 N 0.77448 0.61014 0.5541 0.0
O212 O 0.66477 0.62969 0.58171 0.0
H213 H 0.75281 0.53519 0.58325 0.0
H214 H 0.75121 0.66819 0.56197 0.0
O215 O 0.77657 0.71051 0.58839 0.0
C216 C 0.6284 0.57817 0.58125 0.0
O217 O 0.63805 0.54269 0.58834 0.0
N218 N 0.77225 0.62754 0.60671 0.0
C219 C 0.82813 0.6078 0.62931 0.0
C220 C 0.83995 0.66195 0.626 0.0
C221 C 0.81111 0.67086 0.61483 0.0
C222 C 0.75779 0.57453 0.61039 0.0
C223 C 0.78634 0.56368 0.62131 0.0
H224 H 0.81823 0.71233 0.6133 0.0
H225 H 0.72202 0.54019 0.6053 0.0
H226 H 0.74706 0.74468 0.61066 0.0
H227 H 0.62147 0.63382 0.63923 0.0
H228 H 0.78729 0.54005 0.55596 0.0
H229 H 0.86926 0.69719 0.63247 0.0
H230 H 0.7745 0.52109 0.62372 0.0
C231 C 0.0544 0.71898 0.93784 0.0
C232 C 0.01752 0.70546 0.94932 0.0
N233 N 0.99945 0.74236 0.94972 0.0
N234 N 0.05993 0.76424 0.93094 0.0
C235 C 0.02584 0.77744 0.93837 0.0
H236 H 0.07696 0.69803 0.93492 0.0
Co237 Co 0.11014 0.80008 0.91554 0.0
C238 C 0.10879 0.90315 0.90967 0.0
O239 O 0.16313 0.92829 0.90875 0.0
N240 N 0.16121 0.83628 0.89967 0.0
C241 C 0.23515 0.88486 0.88527 0.0
C242 C 0.21744 0.86753 0.89939 0.0
C243 C 0.14628 0.83565 0.88543 0.0
N244 N 0.19031 0.86447 0.87653 0.0
O245 O 0.05758 0.74635 0.90219 0.0
H246 H 0.24491 0.87865 0.90871 0.0
H247 H 0.10373 0.8147 0.8816 0.0
O248 O 0.081 0.8512 0.91265 0.0
C249 C 0.07651 0.71447 0.89869 0.0
O250 O 0.12616 0.7269 0.90335 0.0
N251 N 0.1618 0.8448 0.92938 0.0
C252 C 0.23179 0.88271 0.95374 0.0
C253 C 0.19215 0.89937 0.95129 0.0
C254 C 0.1574 0.87984 0.93903 0.0
C255 C 0.19838 0.82667 0.93187 0.0
C256 C 0.23544 0.84696 0.94355 0.0
H257 H 0.12458 0.88965 0.93798 0.0
H258 H 0.19833 0.79559 0.92472 0.0
H259 H 0.02109 0.8126 0.93562 0.0
H260 H 1.00646 0.67193 0.95704 0.0
H261 H 0.2778 0.90945 0.88164 0.0
H262 H 0.18541 0.92451 0.95919 0.0
H263 H 0.26519 0.83296 0.94478 0.0
C264 C 0.38655 0.04205 0.2815 0.0
C265 C 0.356 0.00584 0.29261 0.0
N266 N 0.3047 0.99963 0.29254 0.0
N267 N 0.35472 0.05851 0.27438 0.0
C268 C 0.30495 0.0316 0.28129 0.0
H269 H 0.42979 0.05686 0.27906 0.0
Co270 Co 0.37979 0.11221 0.25953 0.0
C271 C 0.28181 0.11891 0.24993 0.0
O272 O 0.31436 0.17305 0.24984 0.0
N273 N 0.40545 0.16618 0.2442 0.0
C274 C 0.44398 0.24099 0.22976 0.0
C275 C 0.44225 0.22128 0.24377 0.0
C276 C 0.38673 0.1536 0.2302 0.0
N277 N 0.40857 0.19829 0.22126 0.0
O278 O 0.38471 0.06118 0.24628 0.0
H279 H 0.46643 0.24662 0.25288 0.0
H280 H 0.35691 0.112 0.2267 0.0
O281 O 0.30188 0.08793 0.25369 0.0
C282 C 0.43652 0.07778 0.24526 0.0
O283 O 0.47192 0.12196 0.25268 0.0
N284 N 0.38232 0.16294 0.27331 0.0
C285 C 0.40358 0.24216 0.29489 0.0
C286 C 0.34876 0.20161 0.29132 0.0
C287 C 0.339 0.16219 0.28055 0.0
C288 C 0.43541 0.19794 0.27776 0.0
C289 C 0.44724 0.23926 0.28809 0.0
H290 H 0.2967 0.1307 0.27835 0.0
H291 H 0.46911 0.19456 0.27291 0.0
H292 H 0.26969 0.03601 0.27831 0.0
H293 H 0.37122 0.98749 0.30052 0.0
H294 H 0.4687 0.28368 0.22624 0.0
H295 H 0.31347 0.19949 0.29696 0.0
H296 H 0.49022 0.26866 0.29055 0.0
C297 C 0.143 0.27958 0.60407 0.0
C298 C 0.15245 0.26327 0.6176 0.0
N299 N 0.16393 0.22217 0.61542 0.0
N300 N 0.14762 0.24823 0.59346 0.0
C301 C 0.16128 0.21428 0.60071 0.0
H302 H 0.13084 0.31039 0.60214 0.0
Co303 Co 0.12939 0.24644 0.57355 0.0
C304 C 0.10359 0.1326 0.56427 0.0
O305 O 0.13014 0.14917 0.55167 0.0
N306 N 0.1105 0.24433 0.55364 0.0
C307 C 0.06201 0.22166 0.53278 0.0
C308 C 0.06229 0.20688 0.54721 0.0
C309 C 0.13863 0.28151 0.54291 0.0
N310 N 0.11014 0.26863 0.53014 0.0
O311 O 0.2038 0.26645 0.56843 0.0
H312 H 0.02895 0.17149 0.55275 0.0
H313 H 0.17841 0.3185 0.54445 0.0
O314 O 0.10335 0.16779 0.57316 0.0
C315 C 0.23105 0.31936 0.5689 0.0
O316 O 0.20437 0.34586 0.57215 0.0
N317 N 0.05917 0.23253 0.57886 0.0
C318 C 0.97001 0.23419 0.59203 0.0
C319 C 0.97936 0.18952 0.59437 0.0
C320 C 0.0243 0.18951 0.58768 0.0
C321 C 0.04814 0.27369 0.57541 0.0
C322 C 1.00303 0.27483 0.58169 0.0
H323 H 0.03389 0.15776 0.59077 0.0
H324 H 0.07671 0.30783 0.56853 0.0
H325 H 0.1662 0.18221 0.59539 0.0
H326 H 0.14974 0.27941 0.62822 0.0
H327 H 0.02904 0.19959 0.52486 0.0
H328 H 0.95601 0.15768 0.60246 0.0
H329 H 0.99695 0.30961 0.5794 0.0
C330 C 0.99463 0.31193 0.94449 0.0
C331 C 0.02712 0.31503 0.95629 0.0
N332 N 0.02566 0.26604 0.95767 0.0
N333 N 0.97283 0.26138 0.93827 0.0
C334 C 0.99242 0.2343 0.94656 0.0
H335 H 0.98687 0.34437 0.9408 0.0
Co336 Co 0.92248 0.23572 0.92251 0.0
C337 C 0.93832 0.14865 0.90736 0.0
O338 O 0.88779 0.12496 0.90195 0.0
N339 N 0.87145 0.21061 0.90662 0.0
C340 C 0.79588 0.17292 0.89249 0.0
C341 C 0.81534 0.18292 0.90675 0.0
C342 C 0.88483 0.21813 0.89216 0.0
N343 N 0.83977 0.1948 0.88331 0.0
O344 O 0.97261 0.29875 0.91099 0.0
H345 H 0.78971 0.16986 0.9165 0.0
H346 H 0.92719 0.23935 0.88822 0.0
O347 O 0.95599 0.19175 0.91555 0.0
C348 C 0.9518 0.33054 0.91065 0.0
O349 O 0.90571 0.31602 0.91793 0.0
N350 N 0.87157 0.17931 0.93445 0.0
C351 C 0.78936 0.11062 0.9541 0.0
C352 C 0.81871 0.09076 0.94594 0.0
C353 C 0.86048 0.12612 0.93632 0.0
C354 C 0.8439 0.19936 0.94238 0.0
C355 C 0.80248 0.16574 0.95224 0.0
H356 H 0.88393 0.11048 0.93079 0.0
H357 H 0.85423 0.24204 0.94095 0.0
H358 H 0.98106 0.19152 0.94473 0.0
H359 H 0.05024 0.35092 0.96327 0.0
H360 H 0.75272 0.1499 0.88921 0.0
H361 H 0.81007 0.04846 0.94713 0.0
H362 H 0.78205 0.18327 0.95861 0.0
C363 C 0.72239 0.97294 0.2709 0.0
C364 C 0.74169 0.01052 0.28233 0.0
N365 N 0.79674 0.03056 0.28376 0.0
N366 N 0.76506 0.96955 0.26499 0.0
C367 C 0.80968 1.00481 0.27316 0.0
H368 H 0.67979 0.94939 0.26722 0.0
Co369 Co 0.76121 0.92407 0.24921 0.0
C370 C 0.87301 0.98578 0.23597 0.0
O371 O 0.8514 0.98155 0.22282 0.0
N372 N 0.75823 0.87789 0.2334 0.0
C373 C 0.78212 0.82932 0.21857 0.0
C374 C 0.79093 0.85487 0.23202 0.0
C375 C 0.72922 0.8646 0.22062 0.0
N376 N 0.74325 0.83552 0.21144 0.0
O377 O 0.74944 0.97134 0.23612 0.0
H378 H 0.82181 0.85892 0.2399 0.0
H379 H 0.70064 0.87839 0.21752 0.0
O380 O 0.84127 0.96662 0.24714 0.0
C381 C 0.69678 0.94934 0.23501 0.0
O382 O 0.66508 0.90064 0.24111 0.0
N383 N 0.76542 0.87626 0.26252 0.0
C384 C 0.7528 0.80824 0.28637 0.0
C385 C 0.80551 0.84253 0.28008 0.0
C386 C 0.81119 0.87749 0.26837 0.0
C387 C 0.71376 0.84028 0.26763 0.0
C388 C 0.70644 0.80644 0.27964 0.0
H389 H 0.85226 0.90611 0.26432 0.0
H390 H 0.67822 0.84062 0.26291 0.0
H391 H 0.85112 0.01198 0.27133 0.0
H392 H 0.71687 0.02157 0.28919 0.0
H393 H 0.80392 0.80939 0.21416 0.0
H394 H 0.84249 0.8443 0.28452 0.0
H395 H 0.66503 0.78198 0.2841 0.0
C396 C 0.59232 0.56517 0.07083 0.0
C397 C 0.58687 0.60454 0.07907 0.0
C398 C 0.55609 0.50827 0.07316 0.0
C399 C 0.51425 0.49089 0.08411 0.0
C400 C 0.51212 0.53076 0.09331 0.0
C401 C 0.54805 0.58726 0.09053 0.0
C402 C 0.55964 0.46703 0.06308 0.0
C403 C 0.46932 0.51402 0.10536 0.0
C404 C 0.38354 0.35478 0.07541 0.0
C405 C 0.39442 0.31716 0.08278 0.0
C406 C 0.42118 0.41206 0.07629 0.0
C407 C 0.46997 0.43163 0.08496 0.0
C408 C 0.47835 0.39376 0.09341 0.0
C409 C 0.44078 0.33683 0.09205 0.0
C410 C 0.41085 0.45118 0.06708 0.0
C411 C 0.52879 0.41294 0.10311 0.0
H412 H 0.62152 0.57882 0.06175 0.0
H413 H 0.54356 0.61808 0.09674 0.0
H414 H 0.56073 0.43387 0.0696 0.0
H415 H 0.52213 0.44693 0.05599 0.0
H416 H 0.59693 0.48687 0.05589 0.0
H417 H 0.47909 0.54889 0.113 0.0
H418 H 0.42798 0.50025 0.10039 0.0
H419 H 0.46628 0.4787 0.11179 0.0
H420 H 0.34814 0.33929 0.06805 0.0
H421 H 0.44908 0.30737 0.0977 0.0
H422 H 0.44303 0.46988 0.05837 0.0
H423 H 0.41408 0.48557 0.07396 0.0
H424 H 0.36934 0.42991 0.06174 0.0
H425 H 0.56608 0.42612 0.09614 0.0
H426 H 0.52474 0.3796 0.11063 0.0
H427 H 0.5359 0.44926 0.1098 0.0
C428 C 0.11418 0.52637 0.41414 0.0
C429 C 0.08464 0.49403 0.40199 0.0
C430 C 0.10321 0.56676 0.41987 0.0
C431 C 0.06191 0.57504 0.41319 0.0
C432 C 0.02986 0.54014 0.40141 0.0
C433 C 0.04198 0.50025 0.39587 0.0
C434 C 0.13824 0.60283 0.43242 0.0
C435 C 0.9849 0.54708 0.3941 0.0
C436 C 0.99603 0.65169 0.43051 0.0
C437 C 0.01963 0.70058 0.42215 0.0
C438 C 0.01262 0.61212 0.42859 0.0
C439 C 0.05347 0.62158 0.41793 0.0
C440 C 0.08122 0.67335 0.41049 0.0
C441 C 0.06397 0.7125 0.41273 0.0
C442 C 0.98256 0.55806 0.43692 0.0
C443 C 0.12553 0.68533 0.39917 0.0
H444 H 0.14824 0.52239 0.41858 0.0
H445 H 0.02035 0.47622 0.38621 0.0
H446 H 0.16695 0.64519 0.42825 0.0
H447 H 0.11182 0.60656 0.44097 0.0
H448 H 0.1633 0.5864 0.43762 0.0
H449 H 0.96153 0.51444 0.38574 0.0
H450 H 0.9552 0.54579 0.40247 0.0
H451 H 1.00365 0.58817 0.38862 0.0
H452 H 0.96142 0.64244 0.43775 0.0
H453 H 0.0815 0.74983 0.40607 0.0
H454 H 0.0122 0.54552 0.44108 0.0
H455 H 0.95322 0.52493 0.42939 0.0
H456 H 0.95862 0.56069 0.44637 0.0
H457 H 0.15602 0.67419 0.40349 0.0
H458 H 0.14797 0.72966 0.39583 0.0
H459 H 0.10612 0.65964 0.38923 0.0
C460 C 0.62289 0.09863 0.75176 0.0
C461 C 0.6454 0.06488 0.74814 0.0
C462 C 0.56618 0.07983 0.75001 0.0
C463 C 0.53078 0.02539 0.74481 0.0
C464 C 0.55213 0.98893 0.74287 0.0
C465 C 0.60954 0.00927 0.74445 0.0
C466 C 0.54564 0.12038 0.75213 0.0
C467 C 0.5153 0.92993 0.73783 0.0
C468 C 0.37544 0.97368 0.74277 0.0
C469 C 0.36876 0.97995 0.72772 0.0
C470 C 0.42781 0.98776 0.74857 0.0
C471 C 0.47461 0.01017 0.73913 0.0
C472 C 0.4682 0.01902 0.72404 0.0
C473 C 0.41514 1.00271 0.71847 0.0
C474 C 0.43247 0.97598 0.76457 0.0
C475 C 0.5172 0.04447 0.71366 0.0
H476 H 0.65048 0.14157 0.75479 0.0
H477 H 0.62668 0.98302 0.74162 0.0
H478 H 0.53819 0.13328 0.74118 0.0
H479 H 0.50571 0.10091 0.75819 0.0
H480 H 0.57611 0.1581 0.75819 0.0
H481 H 0.53513 0.90427 0.73964 0.0
H482 H 0.47491 0.91062 0.74369 0.0
H483 H 0.50666 0.92962 0.72589 0.0
H484 H 0.33917 0.95453 0.74983 0.0
H485 H 0.40962 0.00658 0.70679 0.0
H486 H 0.46552 0.01355 0.7701 0.0
H487 H 0.44441 0.94351 0.76537 0.0
H488 H 0.39285 0.9615 0.77062 0.0
H489 H 0.55024 0.08468 0.71811 0.0
H490 H 0.50564 0.05164 0.7025 0.0
H491 H 0.53505 0.0168 0.71262 0.0
C492 C 0.53138 0.55769 0.58168 0.0
C493 C 0.57424 0.55617 0.57406 0.0
C494 C 0.4756 0.51952 0.57844 0.0
C495 C 0.46277 0.47939 0.56723 0.0
C496 C 0.50609 0.48108 0.55867 0.0
C497 C 0.56146 0.51903 0.56234 0.0
C498 C 0.43068 0.5191 0.58787 0.0
C499 C 0.49427 0.4401 0.5464 0.0
C500 C 0.32875 0.34344 0.57379 0.0
C501 C 0.29088 0.35242 0.56585 0.0
C502 C 0.38557 0.38356 0.57382 0.0
C503 C 0.40462 0.43297 0.56547 0.0
C504 C 0.36684 0.43975 0.55649 0.0
C505 C 0.31027 0.39975 0.55697 0.0
C506 C 0.42449 0.37486 0.5836 0.0
C507 C 0.38552 0.49079 0.54709 0.0
H508 H 0.54148 0.58532 0.59104 0.0
H509 H 0.59486 0.5171 0.55671 0.0
H510 H 0.39784 0.51878 0.58086 0.0
H511 H 0.41091 0.4808 0.59465 0.0
H512 H 0.44715 0.55551 0.59535 0.0
H513 H 0.53122 0.4527 0.5393 0.0
H514 H 0.48179 0.39879 0.55116 0.0
H515 H 0.45941 0.43557 0.53944 0.0
H516 H 0.31347 0.3072 0.58081 0.0
H517 H 0.28069 0.40657 0.55084 0.0
H518 H 0.43996 0.40612 0.59257 0.0
H519 H 0.4611 0.38079 0.57724 0.0
H520 H 0.404 0.33284 0.58863 0.0
H521 H 0.39533 0.52684 0.55425 0.0
H522 H 0.35304 0.4857 0.53909 0.0
H523 H 0.42385 0.5006 0.54096 0.0
C524 C 0.94421 0.38879 0.89142 0.0
C525 C 0.97628 0.38255 0.90235 0.0
C526 C 0.95633 0.44162 0.88665 0.0
C527 C 1.00049 0.48902 0.89334 0.0
C528 C 0.03547 0.48264 0.90361 0.0
C529 C 0.02303 0.42921 0.90794 0.0
C530 C 0.9191 0.44645 0.87536 0.0
C531 C 0.08307 0.53214 0.91103 0.0
C532 C 0.06364 0.63902 0.88217 0.0
C533 C 0.04136 0.65829 0.89295 0.0
C534 C 0.04617 0.58239 0.881 0.0
C535 C 1.00664 0.5448 0.89112 0.0
C536 C 0.97951 0.56343 0.90087 0.0
C537 C 0.99695 0.62021 0.90157 0.0
C538 C 0.07448 0.56399 0.87004 0.0
C539 C 0.9369 0.52467 0.91182 0.0
H540 H 0.90747 0.35236 0.88728 0.0
H541 H 0.04688 0.42408 0.91663 0.0
H542 H 0.88884 0.45501 0.88102 0.0
H543 H 0.94347 0.48124 0.86765 0.0
H544 H 0.89551 0.40757 0.86891 0.0
H545 H 0.10843 0.52028 0.91797 0.0
H546 H 0.11048 0.56267 0.90269 0.0
H547 H 0.06657 0.55307 0.91812 0.0
H548 H 0.09837 0.66878 0.87559 0.0
H549 H 0.98049 0.63534 0.91007 0.0
H550 H 0.04462 0.5231 0.86524 0.0
H551 H 0.10741 0.55957 0.87572 0.0
H552 H 0.09408 0.5946 0.86099 0.0
H553 H 0.9056 0.486 0.90633 0.0
H554 H 0.91515 0.54401 0.91736 0.0
H555 H 0.95779 0.51299 0.92037 0.0
C556 C 0.62399 0.95066 0.21977 0.0
C557 C 0.66925 0.97887 0.22933 0.0
C558 C 0.58335 0.9663 0.21845 0.0
C559 C 0.58736 0.01 0.22728 0.0
C560 C 0.63564 0.04165 0.23596 0.0
C561 C 0.67641 0.02594 0.23677 0.0
C562 C 0.53375 0.93274 0.20866 0.0
C563 C 0.64158 0.08847 0.24561 0.0
C564 C 0.49472 0.07382 0.22538 0.0
C565 C 0.45894 0.04756 0.23727 0.0
C566 C 0.5339 0.05872 0.22107 0.0
C567 C 0.53834 0.01769 0.22918 0.0
C568 C 0.49922 0.98813 0.24046 0.0
C569 C 0.45969 1.00331 0.24431 0.0
C570 C 0.57345 0.09 0.20868 0.0
C571 C 0.50245 0.94414 0.24944 0.0
H572 H 0.61822 0.91376 0.21415 0.0
H573 H 0.71077 0.04688 0.24441 0.0
H574 H 0.49808 0.90315 0.21549 0.0
H575 H 0.52129 0.95994 0.20287 0.0
H576 H 0.54228 0.90863 0.20036 0.0
H577 H 0.68363 0.11216 0.25058 0.0
H578 H 0.6333 0.11747 0.23919 0.0
H579 H 0.61055 0.07137 0.25463 0.0
H580 H 0.49482 0.10894 0.22016 0.0
H581 H 0.43301 0.9842 0.25377 0.0
H582 H 0.58104 0.06167 0.20174 0.0
H583 H 0.61394 0.12162 0.21335 0.0
H584 H 0.55747 0.11153 0.20161 0.0
H585 H 0.50412 0.91316 0.24212 0.0
H586 H 0.46649 0.92219 0.257 0.0
H587 H 0.5411 0.96361 0.25611 0.0
C588 C 0.27842 0.86078 0.97437 0.0
C589 C 0.26463 0.89783 0.96759 0.0
C590 C 0.30161 0.87108 0.98851 0.0
C591 C 0.30805 0.9177 -0.00366 0.0
C592 C 0.29765 0.95706 0.98921 0.0
C593 C 0.278 0.94744 0.97476 0.0
C594 C 0.31619 0.83018 -0.00491 0.0
C595 C 0.30329 0.00756 -0.00291 0.0
C596 C 0.27169 0.92385 0.03496 0.0
C597 C 0.31756 0.97568 0.03842 0.0
C598 C 0.27041 0.89753 0.02175 0.0
C599 C 0.31738 0.92249 0.01242 0.0
C600 C 0.36812 0.96567 0.01786 0.0
C601 C 0.36747 0.99338 0.03064 0.0
C602 C 0.21634 0.84836 0.01681 0.0
C603 C 0.42094 0.98791 0.00905 0.0
H604 H 0.26884 0.8222 0.96906 0.0
H605 H 0.27037 0.97771 0.96936 0.0
H606 H 0.34077 0.8454 0.00539 0.0
H607 H 0.27753 0.79052 -0.00262 0.0
H608 H 0.34034 0.82083 0.987 0.0
H609 H 0.28918 0.03125 0.99023 0.0
H610 H 0.27851 0.99507 0.00739 0.0
H611 H 0.34727 0.03587 0.00011 0.0
H612 H 0.23448 0.90719 0.04164 0.0
H613 H 0.40457 0.03185 0.03341 0.0
H614 H 0.22337 0.81438 0.01317 0.0
H615 H 0.1994 0.86032 0.0073 0.0
H616 H 0.18469 0.83235 0.02571 0.0
H617 H 0.42117 0.95459 0.00238 0.0
H618 H 0.45785 0.00658 0.0164 0.0
H619 H 0.42449 0.02073 0.00144 0.0
C620 C 0.39728 0.44887 0.35262 0.0
C621 C 0.35994 0.40838 0.36239 0.0
C622 C 0.42972 0.4367 0.34319 0.0
C623 C 0.42177 0.38242 0.3432 0.0
C624 C 0.39266 0.34597 0.35495 0.0
C625 C 0.36261 0.35998 0.36461 0.0
C626 C 0.46638 0.47898 0.33193 0.0
C627 C 0.38584 0.28874 0.35594 0.0
C628 C 0.37675 0.30502 0.30738 0.0
C629 C 0.41445 0.28586 0.30592 0.0
C630 C 0.38055 0.33913 0.3191 0.0
C631 C 0.42549 0.35765 0.32915 0.0
C632 C 0.46742 0.34394 0.32674 0.0
C633 C 0.4607 0.30699 0.31537 0.0
C634 C 0.33398 0.35178 0.32121 0.0
C635 C 0.51816 0.36564 0.33643 0.0
H636 H 0.39714 0.48748 0.35124 0.0
H637 H 0.33597 0.33008 0.37279 0.0
H638 H 0.50165 0.47294 0.32885 0.0
H639 H 0.44198 0.47461 0.32185 0.0
H640 H 0.48283 0.52179 0.33619 0.0
H641 H 0.36463 0.26697 0.36625 0.0
H642 H 0.36103 0.26329 0.34644 0.0
H643 H 0.42695 0.29148 0.35551 0.0
H644 H 0.3426 0.29149 0.29968 0.0
H645 H 0.49076 0.29326 0.31436 0.0
H646 H 0.35037 0.39707 0.32046 0.0
H647 H 0.31501 0.33786 0.33226 0.0
H648 H 0.30063 0.33119 0.31284 0.0
H649 H 0.52372 0.40018 0.34366 0.0
H650 H 0.55582 0.38035 0.32949 0.0
H651 H 0.5152 0.33141 0.34336 0.0
C652 C 0.95762 0.29757 0.609 0.0
C653 C 0.93615 0.24437 0.60286 0.0
C654 C 0.94151 0.30429 0.62309 0.0
C655 C 0.90475 0.25668 0.6312 0.0
C656 C 0.87573 0.20462 0.62408 0.0
C657 C 0.89103 0.19935 0.60975 0.0
C658 C 0.96957 0.3612 0.62999 0.0
C659 C 0.83453 0.15303 0.63223 0.0
C660 C 0.9467 0.24361 0.66983 0.0
C661 C 0.90275 0.24057 0.67808 0.0
C662 C 0.94899 0.25123 0.65457 0.0
C663 C 0.90747 0.25834 0.64747 0.0
C664 C 0.86631 0.2611 0.65589 0.0
C665 C 0.86367 0.25096 0.67105 0.0
C666 C 0.99396 0.24818 0.64596 0.0
C667 C 0.82286 0.27129 0.64894 0.0
H668 H 0.99156 0.33325 0.60369 0.0
H669 H 0.87232 0.15865 0.60471 0.0
H670 H 0.9409 0.36596 0.63756 0.0
H671 H 1.00597 0.36718 0.63649 0.0
H672 H 0.98447 0.39422 0.62146 0.0
H673 H 0.81105 0.11735 0.62469 0.0
H674 H 0.85695 0.14155 0.64036 0.0
H675 H 0.80459 0.16066 0.63838 0.0
H676 H 0.97804 0.23746 0.6752 0.0
H677 H 0.82896 0.24829 0.67715 0.0
H678 H 0.0187 0.28691 0.63958 0.0
H679 H 0.97494 0.21338 0.63797 0.0
H680 H 0.02266 0.24194 0.65318 0.0
H681 H 0.8375 0.295 0.6385 0.0
H682 H 0.81051 0.2943 0.65662 0.0
H683 H 0.78519 0.23092 0.64655 0.0
C684 C 0.654 0.97663 0.02775 0.0
C685 C 0.62622 0.91898 0.02599 0.0
C686 C 0.66215 0.01099 0.01565 0.0
C687 C 0.64304 0.98646 0.00166 0.0
C688 C 0.60549 0.92889 0.00057 0.0
C689 C 0.5976 0.89538 0.01285 0.0
C690 C 0.69933 0.07275 0.01736 0.0
C691 C 0.58186 0.90169 0.98594 0.0
C692 C 0.69995 0.07783 0.96782 0.0
C693 C 0.74873 0.07564 0.96542 0.0
C694 C 0.66382 0.04804 0.97939 0.0
C695 C 0.67714 0.01558 0.98867 0.0
C696 C 0.72553 0.01201 0.98598 0.0
C697 C 0.76077 0.04237 0.97447 0.0
C698 C 0.61305 0.05339 0.98191 0.0
C699 C 0.74136 0.97745 -0.00446 0.0
H700 H 0.67438 0.99477 0.03812 0.0
H701 H 0.57494 0.85068 0.01156 0.0
H702 H 0.74245 0.08422 0.01433 0.0
H703 H 0.6859 0.09557 0.00996 0.0
H704 H 0.69958 0.0861 0.0289 0.0
H705 H 0.54353 0.86087 0.9874 0.0
H706 H 0.57232 0.92847 0.9789 0.0
H707 H 0.61293 0.89477 0.98009 0.0
H708 H 0.69028 0.10329 0.96076 0.0
H709 H 0.79895 0.04147 0.97288 0.0
H710 H 0.62398 0.08856 0.98952 0.0
H711 H 0.57851 0.0155 0.98693 0.0
H712 H 0.59827 0.06231 0.97144 0.0
H713 H 0.74951 0.99373 0.00696 0.0
H714 H 0.77908 0.97753 0.99147 0.0
H715 H 0.70691 0.93385 -0.00408 0.0
C716 C 0.78885 0.80592 0.31144 0.0
C717 C 0.74666 0.78068 0.30087 0.0
C718 C 0.78101 0.78607 0.32586 0.0
C719 C 0.72865 0.74132 0.3301 0.0
C720 C 0.6864 0.71408 0.31947 0.0
C721 C 0.69656 0.73311 0.30486 0.0
C722 C 0.82826 0.81516 0.33674 0.0
C723 C 0.63013 0.66572 0.32337 0.0
C724 C 0.75116 0.69541 0.36657 0.0
C725 C 0.75234 0.73756 0.37529 0.0
C726 C 0.73494 0.68982 0.3518 0.0
C727 C 0.71894 0.72671 0.34591 0.0
C728 C 0.70988 0.76167 0.35544 0.0
C729 C 0.72802 0.76773 0.37006 0.0
C730 C 0.74343 0.6508 0.34207 0.0
C731 C 0.68877 0.79856 0.34967 0.0
H732 H 0.82741 0.84309 0.30876 0.0
H733 H 0.66425 0.7117 0.29672 0.0
H734 H 0.81822 0.83897 0.34474 0.0
H735 H 0.83453 0.78453 0.34302 0.0
H736 H 0.868 0.84444 0.33124 0.0
H737 H 0.59726 0.66472 0.31619 0.0
H738 H 0.63055 0.62653 0.32153 0.0
H739 H 0.6188 0.6668 0.33502 0.0
H740 H 0.76964 0.67172 0.37069 0.0
H741 H 0.72808 0.79962 0.37693 0.0
H742 H 0.78222 0.67484 0.33562 0.0
H743 H 0.70863 0.62972 0.33415 0.0
H744 H 0.74695 0.6189 0.34858 0.0
H745 H 0.72353 0.83586 0.34448 0.0
H746 H 0.67153 0.81248 0.35868 0.0
H747 H 0.65622 0.77662 0.34119 0.0
C748 C 1.00478 0.63275 0.69909 0.0
C749 C 0.9946 0.67112 0.70651 0.0
C750 C 0.96724 0.59712 0.68849 0.0
C751 C 0.921 0.60276 0.6848 0.0
C752 C 0.90531 0.63309 0.69421 0.0
C753 C 0.94203 0.66613 0.70525 0.0
C754 C 0.98116 0.55947 0.67984 0.0
C755 C 0.85424 0.63753 0.69123 0.0
C756 C 0.91077 0.63769 0.6454 0.0
C757 C 0.85586 0.59814 0.64201 0.0
C758 C 0.93371 0.63766 0.65906 0.0
C759 C 0.90198 0.59477 0.6693 0.0
C760 C 0.84941 0.55044 0.66515 0.0
C761 C 0.82631 0.55324 0.65165 0.0
C762 C 0.99012 0.68634 0.66289 0.0
C763 C 0.8157 0.50157 0.67512 0.0
H764 H 0.04424 0.63421 0.70029 0.0
H765 H 0.93229 0.6929 0.71171 0.0
H766 H 0.94289 0.52253 0.67575 0.0
H767 H 1.00705 0.58212 0.67019 0.0
H768 H 1.00514 0.54564 0.68668 0.0
H769 H 0.84609 0.65979 0.70016 0.0
H770 H 0.85952 0.66017 0.68074 0.0
H771 H 0.81738 0.59564 0.69006 0.0
H772 H 0.93479 0.67094 0.63769 0.0
H773 H 0.78402 0.52176 0.64912 0.0
H774 H 0.01985 0.67174 0.66521 0.0
H775 H 0.98721 0.70751 0.67292 0.0
H776 H 1.00761 0.71743 0.65388 0.0
H777 H 0.79758 0.46251 0.66866 0.0
H778 H 0.78043 0.5047 0.67975 0.0
H779 H 0.8405 0.49867 0.6843 0.0
C780 C 0.0952 1.00401 0.08993 0.0
C781 C 0.12716 0.04835 0.08036 0.0
C782 C 0.03729 0.97264 0.08862 0.0
C783 C 0.01022 0.98575 0.07746 0.0
C784 C 0.04196 0.03133 0.06796 0.0
C785 C 0.10015 0.06217 0.06953 0.0
C786 C 1.00514 0.92492 0.09911 0.0
C787 C 0.01465 0.0467 0.05592 0.0
C788 C 0.86503 0.87005 0.06712 0.0
C789 C 0.83145 0.88475 0.07525 0.0
C790 C 0.9233 0.90337 0.06737 0.0
C791 C 0.94855 0.95219 0.07608 0.0
C792 C 0.91481 0.96707 0.08432 0.0
C793 C 0.85688 0.93331 0.08379 0.0
C794 C 0.95785 0.88616 0.0584 0.0
C795 C 0.93994 0.01848 0.09382 0.0
H796 H 0.11562 0.99312 0.09839 0.0
H797 H 0.12448 0.09589 0.062 0.0
H798 H 0.974 0.93107 0.10518 0.0
H799 H 0.98214 0.88561 0.09285 0.0
H800 H 0.03245 0.92036 0.10725 0.0
H801 H 0.0444 0.08603 0.05035 0.0
H802 H 0.99672 0.01312 0.04758 0.0
H803 H 0.98 0.05108 0.06046 0.0
H804 H 0.84585 0.83283 0.06044 0.0
H805 H 0.83143 0.94513 0.09014 0.0
H806 H 0.98415 0.87726 0.06583 0.0
H807 H 0.98614 0.92051 0.05102 0.0
H808 H 0.93191 0.84875 0.0516 0.0
H809 H 0.96591 0.01497 0.10257 0.0
H810 H 0.90791 0.02538 0.09913 0.0
H811 H 0.96749 0.05548 0.08711 0.0
C812 C 0.07267 0.21392 0.40404 0.0
C813 C 0.12936 0.24991 0.40151 0.0
C814 C 0.05213 0.15693 0.40664 0.0
C815 C 0.08905 0.13557 0.40641 0.0
C816 C 0.14592 0.17164 0.40334 0.0
C817 C 0.16531 0.22817 0.40106 0.0
C818 C 0.9913 0.11984 0.41 0.0
C819 C 0.18664 0.15071 0.40267 0.0
C820 C 0.05942 1.00464 0.42716 0.0
C821 C 0.04129 0.96511 0.41584 0.0
C822 C 0.07303 0.0597 0.42432 0.0
C823 C 0.06929 0.076 0.40977 0.0
C824 C 0.05102 0.03627 0.39829 0.0
C825 C 0.03694 0.98131 0.40147 0.0
C826 C 0.09198 0.10064 0.4369 0.0
C827 C 0.04747 0.05207 0.38258 0.0
H828 H 0.04476 0.23053 0.40439 0.0
H829 H 0.2091 0.25553 0.39886 0.0
H830 H 0.97273 0.08436 0.40223 0.0
H831 H 0.98644 0.10241 0.42125 0.0
H832 H 0.96771 0.14229 0.4093 0.0
H833 H 0.22892 0.18364 0.39938 0.0
H834 H 0.18941 0.1344 0.41359 0.0
H835 H 0.17207 0.11603 0.39468 0.0
H836 H 0.06225 0.99239 0.43831 0.0
H837 H 0.02303 0.95108 0.39265 0.0
H838 H 0.06666 0.12128 0.4373 0.0
H839 H 0.13576 0.13346 0.43515 0.0
H840 H 0.08894 0.08062 0.44772 0.0
H841 H 0.0213 0.07173 0.38196 0.0
H842 H 0.02998 0.01578 0.37505 0.0
H843 H 0.08949 0.08301 0.37861 0.0
C844 C 0.9623 0.07917 0.75094 0.0
C845 C 0.91352 0.05898 0.74256 0.0
C846 C 0.99445 0.05322 0.75071 0.0
C847 C 0.97785 0.0059 0.74176 0.0
C848 C 0.92771 0.98415 0.73359 0.0
C849 C 0.89588 0.01076 0.73417 0.0
C850 C 0.04703 0.07739 0.75977 0.0
C851 C 0.90865 0.93386 0.72388 0.0
C852 C 0.0924 0.97591 0.73041 0.0
C853 C 0.08417 0.93367 0.74028 0.0
C854 C 0.05745 0.99901 0.73057 0.0
C855 C 0.01356 0.97989 0.74095 0.0
C856 C 1.0056 0.93779 0.75105 0.0
C857 C 0.04078 0.91512 0.75056 0.0
C858 C 0.0673 0.04371 0.71956 0.0
C859 C 0.95991 0.91671 0.76242 0.0
H860 H 0.97607 0.11624 0.75754 0.0
H861 H 0.85851 0.99512 0.72759 0.0
H862 H 0.04628 0.04519 0.76713 0.0
H863 H 0.08347 0.09163 0.7524 0.0
H864 H 0.05293 0.11301 0.76661 0.0
H865 H 0.86805 0.92118 0.71854 0.0
H866 H 0.93998 0.94278 0.71517 0.0
H867 H 0.90492 0.8985 0.73043 0.0
H868 H 0.12533 0.99005 0.72232 0.0
H869 H 0.03405 0.8825 0.75823 0.0
H870 H 0.07725 0.08254 0.72543 0.0
H871 H 0.02904 0.03112 0.71304 0.0
H872 H 0.10183 0.05257 0.71187 0.0
H873 H 0.96576 0.95125 0.76969 0.0
H874 H 0.95873 0.88327 0.76937 0.0
H875 H 0.91906 0.90055 0.75692 0.0
C876 C 0.92369 0.80824 0.5812 0.0
C877 C 0.86639 0.7889 0.58187 0.0
C878 C 0.96207 0.86405 0.57838 0.0
C879 C 0.94295 0.90186 0.57596 0.0
C880 C 0.88516 0.88284 0.57656 0.0
C881 C 0.84749 0.82654 0.57961 0.0
C882 C 0.02326 0.88257 0.57806 0.0
C883 C 0.86321 0.92192 0.57392 0.0
C884 C 0.04744 0.05481 0.58168 0.0
C885 C 0.06543 0.07287 0.56724 0.0
C886 C 1.0073 0.9995 0.58466 0.0
C887 C 0.98393 0.96128 0.57289 0.0
C888 C 1.00208 0.97917 0.55829 0.0
C889 C 0.04293 0.03466 0.55565 0.0
C890 C 0.99011 0.98195 0.60042 0.0
C891 C 0.97799 0.93973 0.54543 0.0
H892 H 0.93897 0.77972 0.58303 0.0
H893 H 0.80335 0.81193 0.58008 0.0
H894 H 0.0409 0.90026 0.56711 0.0
H895 H 0.04577 0.91574 0.58634 0.0
H896 H 0.03137 0.84806 0.58038 0.0
H897 H 0.8172 0.90062 0.57459 0.0
H898 H 0.88095 0.95591 0.58215 0.0
H899 H 0.87635 0.94127 0.56288 0.0
H900 H 0.06475 0.0841 0.59071 0.0
H901 H 0.05606 0.04847 0.54445 0.0
H902 H 0.99913 0.94865 0.60348 0.0
H903 H 0.94471 0.9647 0.60163 0.0
H904 H 0.0119 0.01687 0.60829 0.0
H905 H 0.98685 0.90525 0.54668 0.0
H906 H 0.99503 0.96053 0.53471 0.0
H907 H 0.93218 0.92106 0.54523 0.0
C908 C 0.10841 0.98688 0.90035 0.0
C909 C 0.08182 0.9372 0.90837 0.0
C910 C 0.08671 0.02272 0.89978 0.0
C911 C 0.03762 0.00906 0.90764 0.0
C912 C 0.01026 0.95872 0.9157 0.0
C913 C 0.03241 0.92299 0.91584 0.0
C914 C 0.11666 0.0755 0.89087 0.0
C915 C 0.95817 0.94311 0.92437 0.0
C916 C 0.00908 0.12579 0.91706 0.0
C917 C 0.96867 0.11762 0.90656 0.0
C918 C 0.03209 0.09088 0.91753 0.0
C919 C 0.01458 0.04717 0.90718 0.0
C920 C 0.9754 0.04016 0.89622 0.0
C921 C 0.95281 0.07531 0.89608 0.0
C922 C 0.0737 0.09966 0.92942 0.0
C923 C 0.95657 0.9949 0.88478 0.0
H924 H 0.14652 0.99789 0.89449 0.0
H925 H 0.01204 0.88492 0.92216 0.0
H926 H 0.08817 0.07687 0.88254 0.0
H927 H 0.13015 0.11197 0.89818 0.0
H928 H 0.15372 0.07941 0.88513 0.0
H929 H 0.94248 0.90305 0.93027 0.0
H930 H 0.96642 0.97596 0.93255 0.0
H931 H 0.92513 0.93994 0.91689 0.0
H932 H 0.0213 0.15814 0.92525 0.0
H933 H 0.92184 0.06897 0.88787 0.0
H934 H 0.11078 0.10042 0.92464 0.0
H935 H 0.05477 0.06461 0.93733 0.0
H936 H 0.0874 0.1389 0.93556 0.0
H937 H 0.99293 0.99871 0.87871 0.0
H938 H 0.92715 0.99616 0.87672 0.0
H939 H 0.93596 0.95374 0.89024 0.0
C940 C 0.18347 0.03887 0.24799 0.0
C941 C 0.22155 0.09589 0.24709 0.0
C942 C 0.12618 0.01829 0.24588 0.0
C943 C 0.10664 0.05565 0.24291 0.0
C944 C 0.14503 0.11308 0.24185 0.0
C945 C 0.20176 0.13235 0.24387 0.0
C946 C 0.08651 0.95669 0.24696 0.0
C947 C 0.12611 0.15448 0.23884 0.0
C948 C 0.96546 0.00872 0.22539 0.0
C949 C 0.93309 1.00494 0.23766 0.0
C950 C 0.02151 0.02343 0.22699 0.0
C951 C 0.04609 0.03546 0.24117 0.0
C952 C 0.01364 0.03185 0.25359 0.0
C953 C 0.95756 0.0163 0.25169 0.0
C954 C 0.05452 0.02636 0.21348 0.0
C955 C 0.03837 0.04522 0.26887 0.0
H956 H 0.1983 0.0104 0.25048 0.0
H957 H 0.23062 0.17651 0.24311 0.0
H958 H 0.05718 0.94793 0.2562 0.0
H959 H 0.06143 0.94151 0.23674 0.0
H960 H 0.10837 0.93294 0.24876 0.0
H961 H 0.16132 0.19776 0.23828 0.0
H962 H 0.10303 0.14451 0.22828 0.0
H963 H 0.09728 0.15204 0.24763 0.0
H964 H 0.9468 0.99931 0.21452 0.0
H965 H 0.93293 0.01331 0.26125 0.0
H966 H 0.0736 0.99992 0.21501 0.0
H967 H 0.08887 0.0695 0.21184 0.0
H968 H 0.02859 0.01278 0.20336 0.0
H969 H 0.0564 0.01865 0.27162 0.0
H970 H 1.00724 0.03919 0.27742 0.0
H971 H 0.07263 0.08893 0.26931 0.0
C972 C 0.06842 0.27927 0.98241 0.0
C973 C 0.05347 0.25131 0.96883 0.0
C974 C 0.09832 0.26807 -0.00696 0.0
C975 C 0.11374 0.22759 0.99015 0.0
C976 C 0.09713 0.19771 0.97671 0.0
C977 C 0.0674 0.21 0.96621 0.0
C978 C 0.1147 0.3007 0.00723 0.0
C979 C 0.11247 0.15411 0.97313 0.0
C980 C 0.24304 0.24557 0.00976 0.0
C981 C 0.22068 0.20714 0.02135 0.0
C982 C 0.20876 0.25203 -0.00049 0.0
C983 C 0.15031 0.21939 0.0008 0.0
C984 C 0.12727 0.18043 0.01245 0.0
C985 C 0.16266 0.17492 0.02261 0.0
C986 C 0.23526 0.29421 0.98732 0.0
C987 C 0.06522 0.14456 0.01419 0.0
H988 H 0.0569 0.31031 0.98476 0.0
H989 H 0.0565 0.18828 0.95578 0.0
H990 H 0.10049 0.2721 0.01681 0.0
H991 H 0.1606 0.32613 0.00793 0.0
H992 H 0.09709 0.32868 0.00815 0.0
H993 H 0.08824 0.12786 0.96368 0.0
H994 H 0.15724 0.17467 0.97031 0.0
H995 H 0.10557 0.12692 0.98278 0.0
H996 H 0.28764 0.27133 0.00877 0.0
H997 H 0.14484 0.1447 0.0314 0.0
H998 H 0.2222 0.32582 0.98816 0.0
H999 H 0.22107 0.27367 0.97645 0.0
H1000 H 0.28133 0.31565 0.98767 0.0
H1001 H 0.04686 0.17098 0.01674 0.0
H1002 H 0.05383 0.11338 0.0231 0.0
H1003 H 0.04631 0.12256 0.00373 0.0
C1004 C 0.98398 0.24083 0.34783 0.0
C1005 C 0.02612 0.28996 0.34147 0.0
C1006 C 0.94614 0.19606 0.33904 0.0
C1007 C 0.95005 0.20048 0.32348 0.0
C1008 C 0.99271 0.2496 0.317 0.0
C1009 C 0.03022 0.29337 0.32602 0.0
C1010 C 0.90152 0.14425 0.3464 0.0
C1011 C 0.99848 0.2562 0.30047 0.0
C1012 C 0.88258 0.07231 0.29885 0.0
C1013 C 0.83411 0.07169 0.29418 0.0
C1014 C 0.91995 0.11304 0.30867 0.0
C1015 C 0.90891 0.15452 0.3139 0.0
C1016 C 0.85971 0.15369 0.30938 0.0
C1017 C 0.82295 0.11231 0.29963 0.0
C1018 C 0.97163 0.11206 0.31329 0.0
C1019 C 0.84655 0.1974 0.31454 0.0
H1020 H 0.97987 0.23752 0.35969 0.0
H1021 H 0.06309 0.33025 0.32088 0.0
H1022 H 0.86002 0.13793 0.34345 0.0
H1023 H 0.90326 0.10747 0.34242 0.0
H1024 H 0.90558 0.14621 0.35859 0.0
H1025 H 0.03407 0.2969 0.29714 0.0
H1026 H 1.00423 0.22282 0.29564 0.0
H1027 H 0.95995 0.25223 0.29566 0.0
H1028 H 0.8912 0.04068 0.2949 0.0
H1029 H 0.78607 0.11268 0.29596 0.0
H1030 H 0.9738 0.11096 0.32548 0.0
H1031 H 0.00903 0.15048 0.30953 0.0
H1032 H 0.9731 0.0758 0.30872 0.0
H1033 H 0.84664 0.19889 0.32675 0.0
H1034 H 0.80559 0.18972 0.31049 0.0
H1035 H 0.87906 0.23879 0.31061 0.0
C1036 C 0.65334 0.74685 0.64652 0.0
C1037 C 0.69604 0.75075 0.63745 0.0
C1038 C 0.66225 0.78977 0.65625 0.0
C1039 C 0.71521 0.8382 0.65699 0.0
C1040 C 0.7585 0.84268 0.64782 0.0
C1041 C 0.74843 0.79899 0.63818 0.0
C1042 C 0.61478 0.78332 0.66574 0.0
C1043 C 0.81557 0.89354 0.64825 0.0
C1044 C 0.71868 0.9673 0.67228 0.0
C1045 C 0.7343 0.96754 0.68701 0.0
C1046 C 0.71371 0.92638 0.66234 0.0
C1047 C 0.72462 0.88437 0.66717 0.0
C1048 C 0.74189 0.88516 0.68191 0.0
C1049 C 0.74654 0.92667 0.69164 0.0
C1050 C 0.69573 0.92754 0.6467 0.0
C1051 C 0.75406 0.84127 0.68752 0.0
H1052 H 0.61255 0.71028 0.64592 0.0
H1053 H 0.78197 0.80225 0.63141 0.0
H1054 H 0.62653 0.78705 0.67754 0.0
H1055 H 0.60561 0.81697 0.66326 0.0
H1056 H 0.57635 0.7428 0.66403 0.0
H1057 H 0.8447 0.89082 0.64038 0.0
H1058 H 0.81279 0.93098 0.6456 0.0
H1059 H 0.83314 0.89931 0.65951 0.0
H1060 H 0.71036 0.99929 0.66847 0.0
H1061 H 0.75835 0.9262 0.70298 0.0
H1062 H 0.65527 0.88968 0.64451 0.0
H1063 H 0.72624 0.92756 0.63883 0.0
H1064 H 0.69134 0.96442 0.64448 0.0
H1065 H 0.71547 0.80024 0.68733 0.0
H1066 H 0.77068 0.84979 0.69894 0.0
H1067 H 0.78453 0.83838 0.68024 0.0
C1068 C 0.82347 0.75866 0.01783 0.0
C1069 C 0.76847 0.74043 0.01354 0.0
C1070 C 0.86351 0.76316 0.00754 0.0
C1071 C 0.84842 0.74951 -0.00745 0.0
C1072 C 0.79353 0.7332 0.98808 0.0
C1073 C 0.75439 0.72876 -0.00141 0.0
C1074 C 0.92144 0.7806 0.01282 0.0
C1075 C 0.77564 0.71897 0.97222 0.0
C1076 C 0.96013 0.79376 0.96279 0.0
C1077 C 0.96173 0.74462 0.96042 0.0
C1078 C 0.92395 0.79623 0.97325 0.0
C1079 C 0.88861 0.74861 0.9817 0.0
C1080 C 0.89019 0.69909 0.97943 0.0
C1081 C 0.92626 0.69761 0.96882 0.0
C1082 C 0.92339 0.84979 0.97522 0.0
C1083 C 0.85327 0.64724 0.98814 0.0
H1084 H 0.83477 0.76754 0.02934 0.0
H1085 H 0.71241 0.71581 -0.00491 0.0
H1086 H 0.9293 0.74544 0.01163 0.0
H1087 H 0.95261 0.81517 0.00598 0.0
H1088 H 0.92786 0.79392 0.02454 0.0
H1089 H 0.73263 0.71058 0.97034 0.0
H1090 H 0.80418 0.7534 0.96489 0.0
H1091 H 0.77778 0.68169 0.96895 0.0
H1092 H 0.98753 0.83066 0.95659 0.0
H1093 H 0.92604 0.65909 0.96702 0.0
H1094 H 0.93409 0.86436 0.98676 0.0
H1095 H 0.8811 0.84288 0.97308 0.0
H1096 H 0.95306 0.88303 0.96774 0.0
H1097 H 0.86011 0.65604 0.00011 0.0
H1098 H 0.86088 0.61265 0.98548 0.0
H1099 H 0.80904 0.63347 0.98585 0.0
C1100 C 0.25608 0.92243 0.31025 0.0
C1101 C 0.26098 0.9695 0.30317 0.0
C1102 C 0.21539 0.89413 0.32109 0.0
C1103 C 0.17876 0.9135 0.32507 0.0
C1104 C 0.18309 0.96067 0.31786 0.0
C1105 C 0.22395 0.98794 0.30698 0.0
C1106 C 0.21183 0.84364 0.32835 0.0
C1107 C 0.14519 0.98297 0.32182 0.0
C1108 C 0.04347 0.81424 0.34461 0.0
C1109 C 0.05668 0.82949 0.35946 0.0
C1110 C 0.08264 0.84114 0.33334 0.0
C1111 C 0.13646 0.88483 0.33691 0.0
C1112 C 0.15003 0.90083 0.35183 0.0
C1113 C 0.11017 0.87294 0.36289 0.0
C1114 C 0.0664 0.8227 0.31759 0.0
C1115 C 0.20686 0.94731 0.35613 0.0
H1116 H 0.28404 0.90752 0.30726 0.0
H1117 H 0.22785 0.02469 0.30175 0.0
H1118 H 0.21912 0.85085 0.34037 0.0
H1119 H 0.16958 0.8074 0.32689 0.0
H1120 H 0.24254 0.83316 0.3238 0.0
H1121 H 0.15306 0.01929 0.31497 0.0
H1122 H 0.10118 0.95017 0.32041 0.0
H1123 H 0.15097 0.9955 0.33357 0.0
H1124 H 1.00221 0.78151 0.34171 0.0
H1125 H 0.12136 0.88479 0.37427 0.0
H1126 H 0.09464 0.80937 0.31285 0.0
H1127 H 0.07077 0.85786 0.31083 0.0
H1128 H 0.023 0.78787 0.31663 0.0
H1129 H 0.23894 0.93681 0.35284 0.0
H1130 H 0.21051 0.95569 0.36815 0.0
H1131 H 0.2161 0.98589 0.35021 0.0
C1132 C 0.15145 0.98145 0.66428 0.0
C1133 C 0.1877 0.99913 0.67637 0.0
C1134 C 0.14743 0.01967 0.65501 0.0
C1135 C 0.18134 0.07723 0.6577 0.0
C1136 C 0.21759 0.09538 0.67001 0.0
C1137 C 0.21989 0.05604 0.6793 0.0
C1138 C 0.10727 0.9984 0.64223 0.0
C1139 C 0.25503 0.15632 0.67313 0.0
C1140 C 0.20788 0.16927 0.62415 0.0
C1141 C 0.17091 0.18892 0.62648 0.0
C1142 C 0.21318 0.1346 0.63449 0.0
C1143 C 0.17974 0.1181 0.64733 0.0
C1144 C 0.14271 0.13833 0.64981 0.0
C1145 C 0.13914 0.17392 0.63942 0.0
C1146 C 0.25391 0.11483 0.63154 0.0
C1147 C 0.10543 0.12084 0.66317 0.0
H1148 H 0.12592 0.93744 0.66214 0.0
H1149 H 0.24818 0.06975 0.68858 0.0
H1150 H 0.07907 0.01582 0.6427 0.0
H1151 H 0.1304 0.01221 0.63169 0.0
H1152 H 0.08175 0.95242 0.64212 0.0
H1153 H 0.27996 0.16365 0.68331 0.0
H1154 H 0.28378 0.1762 0.66373 0.0
H1155 H 0.23005 0.17712 0.67428 0.0
H1156 H 0.23277 0.18124 0.61422 0.0
H1157 H 0.10997 0.18844 0.64115 0.0
H1158 H 0.23115 0.06925 0.6299 0.0
H1159 H 0.28174 0.12376 0.64117 0.0
H1160 H 0.27973 0.1347 0.62164 0.0
H1161 H 0.07634 0.07543 0.6628 0.0
H1162 H 0.08081 0.14224 0.66384 0.0
H1163 H 0.13039 0.12962 0.67338 0.0
C1164 C 0.38018 0.14267 0.13741 0.0
C1165 C 0.3486 0.15935 0.12905 0.0
C1166 C 0.39029 0.15551 0.15238 0.0
C1167 C 0.3693 0.18695 0.15918 0.0
C1168 C 0.33989 0.20658 0.15069 0.0
C1169 C 0.32953 0.19223 0.13571 0.0
C1170 C 0.42181 0.13364 0.16102 0.0
C1171 C 0.31789 0.24117 0.15754 0.0
C1172 C 0.34575 0.15791 0.19996 0.0
C1173 C 0.39611 0.19949 0.20588 0.0
C1174 C 0.33512 0.15519 0.18482 0.0
C1175 C 0.37545 0.19561 0.17535 0.0
C1176 C 0.42468 0.2399 0.18134 0.0
C1177 C 0.43465 0.24109 0.19653 0.0
C1178 C 0.28212 0.10714 0.17887 0.0
C1179 C 0.46818 0.28437 0.17161 0.0
H1180 H 0.39666 0.11883 0.13228 0.0
H1181 H 0.30515 0.20535 0.12936 0.0
H1182 H 0.45829 0.16827 0.16652 0.0
H1183 H 0.39475 0.1051 0.16978 0.0
H1184 H 0.43649 0.11094 0.15398 0.0
H1185 H 0.30229 0.25906 0.14912 0.0
H1186 H 0.28335 0.21515 0.16515 0.0
H1187 H 0.35074 0.27545 0.16412 0.0
H1188 H 0.31485 0.12666 0.20712 0.0
H1189 H 0.4736 0.27348 0.20095 0.0
H1190 H 0.29214 0.07971 0.17228 0.0
H1191 H 0.26085 0.12229 0.17145 0.0
H1192 H 0.25293 0.08207 0.18777 0.0
H1193 H 0.49009 0.26694 0.16531 0.0
H1194 H 0.49942 0.32034 0.17809 0.0
H1195 H 0.44862 0.29924 0.16351 0.0
C1196 C 0.20327 0.45535 0.4571 0.0
C1197 C 0.19741 0.42026 0.44535 0.0
C1198 C 0.19237 0.43517 0.47161 0.0
C1199 C 0.17603 0.37891 0.47434 0.0
C1200 C 0.1721 0.344 0.46253 0.0
C1201 C 0.1826 0.36509 0.44819 0.0
C1202 C 0.19653 0.47338 0.48395 0.0
C1203 C 0.15552 0.28398 0.46499 0.0
C1204 C 0.1834 0.32719 0.51246 0.0
C1205 C 0.12731 0.29931 0.51657 0.0
C1206 C 0.20033 0.35499 0.49892 0.0
C1207 C 0.16017 0.35526 0.48938 0.0
C1208 C 0.10377 0.32886 0.49373 0.0
C1209 C 0.08799 0.30089 0.50724 0.0
C1210 C 0.26073 0.38209 0.49457 0.0
C1211 C 0.05984 0.32884 0.48392 0.0
H1212 H 0.21445 0.49792 0.45486 0.0
H1213 H 0.17907 0.33829 0.4391 0.0
H1214 H 0.15488 0.45837 0.48885 0.0
H1215 H 0.22392 0.47323 0.49281 0.0
H1216 H 0.21289 0.51671 0.48011 0.0
H1217 H 0.15736 0.26335 0.4547 0.0
H1218 H 0.18312 0.28091 0.4733 0.0
H1219 H 0.11255 0.2609 0.46935 0.0
H1220 H 0.21379 0.32566 0.51962 0.0
H1221 H 0.04478 0.2802 0.51054 0.0
H1222 H 0.27613 0.42546 0.49099 0.0
H1223 H 0.26532 0.35955 0.4851 0.0
H1224 H 0.28733 0.38223 0.50373 0.0
H1225 H 0.0723 0.37181 0.48054 0.0
H1226 H 0.01872 0.31027 0.48943 0.0
H1227 H 0.05546 0.30491 0.47375 0.0
C1228 C 0.88481 0.19531 0.8598 0.0
C1229 C 0.83905 0.19132 0.86743 0.0
C1230 C 0.88512 0.19272 0.84438 0.0
C1231 C 0.83823 0.18524 0.83635 0.0
C1232 C 0.79144 0.18008 0.84395 0.0
C1233 C 0.79253 0.18347 0.85939 0.0
C1234 C 0.93596 0.19871 0.83667 0.0
C1235 C 0.74052 0.17168 0.83576 0.0
C1236 C 0.86139 0.23541 0.79677 0.0
C1237 C 0.84497 0.18622 0.78888 0.0
C1238 C 0.85915 0.23554 0.81219 0.0
C1239 C 0.83923 0.18512 0.81998 0.0
C1240 C 0.82164 0.13511 0.81214 0.0
C1241 C 0.82504 0.13629 0.7967 0.0
C1242 C 0.87863 0.28983 0.82016 0.0
C1243 C 0.7997 0.08044 0.82009 0.0
H1244 H 0.92045 0.20004 0.86586 0.0
H1245 H 0.75717 0.1808 0.86513 0.0
H1246 H 0.9245 0.16193 0.82965 0.0
H1247 H 0.9536 0.23548 0.82933 0.0
H1248 H 0.96868 0.20342 0.84454 0.0
H1249 H 0.7065 0.1655 0.84332 0.0
H1250 H 0.75132 0.20823 0.8287 0.0
H1251 H 0.72501 0.13511 0.82839 0.0
H1252 H 0.87572 0.27406 0.79092 0.0
H1253 H 0.81277 0.09813 0.79079 0.0
H1254 H 0.91334 0.29796 0.8277 0.0
H1255 H 0.84454 0.28754 0.82702 0.0
H1256 H 0.89292 0.32545 0.81247 0.0
H1257 H 0.83252 0.08159 0.82728 0.0
H1258 H 0.7855 0.04495 0.81237 0.0
H1259 H 0.76445 0.07311 0.82729 0.0
C1260 C 0.67123 0.80308 0.19223 0.0
C1261 C 0.72635 0.82185 0.19635 0.0
C1262 C 0.65501 0.79308 0.17739 0.0
C1263 C 0.6953 0.80354 0.16643 0.0
C1264 C 0.75089 0.82166 0.17058 0.0
C1265 C 0.7656 0.83005 0.18552 0.0
C1266 C 0.59511 0.7726 0.17343 0.0
C1267 C 0.79532 0.83451 0.1592 0.0
C1268 C 0.65276 0.74746 0.12755 0.0
C1269 C 0.65486 0.79298 0.12036 0.0
C1270 C 0.66456 0.74971 0.14266 0.0
C1271 C 0.68028 0.79922 0.15058 0.0
C1272 C 0.6829 0.84545 0.14328 0.0
C1273 C 0.66946 0.84147 0.12829 0.0
C1274 C 0.66003 0.69918 0.15015 0.0
C1275 C 0.70077 0.89942 0.15125 0.0
H1276 H 0.64093 0.79642 0.20066 0.0
H1277 H 0.80838 0.84532 0.1887 0.0
H1278 H 0.59185 0.80515 0.1672 0.0
H1279 H 0.57917 0.73564 0.16619 0.0
H1280 H 0.56811 0.76163 0.18331 0.0
H1281 H 0.83607 0.84611 0.16428 0.0
H1282 H 0.78292 0.79818 0.15193 0.0
H1283 H 0.80044 0.86929 0.15213 0.0
H1284 H 0.64095 0.70988 0.12136 0.0
H1285 H 0.67165 0.87678 0.12262 0.0
H1286 H 0.63113 0.68718 0.15963 0.0
H1287 H 0.7011 0.70879 0.15456 0.0
H1288 H 0.64502 0.66323 0.14255 0.0
H1289 H 0.67226 0.89257 0.16056 0.0
H1290 H 0.70136 0.93165 0.1439 0.0
H1291 H 0.74293 0.91543 0.15594 0.0
C1292 C 0.91273 0.73285 0.47569 0.0
C1293 C 0.87957 0.74994 0.4683 0.0
C1294 C 0.89767 0.70816 0.48968 0.0
C1295 C 0.84771 0.69943 0.49623 0.0
C1296 C 0.81345 0.7154 0.48862 0.0
C1297 C 0.83008 0.74093 0.47481 0.0
C1298 C 0.93578 0.69266 0.49758 0.0
C1299 C 0.75938 0.7059 0.49512 0.0
C1300 C 0.78175 0.59618 0.52758 0.0
C1301 C 0.79513 0.63175 0.53968 0.0
C1302 C 0.79933 0.61752 0.51334 0.0
C1303 C 0.83204 0.67566 0.51129 0.0
C1304 C 0.84737 0.71152 0.52361 0.0
C1305 C 0.82822 0.6891 0.53763 0.0
C1306 C 0.7814 0.57809 0.50044 0.0
C1307 C 0.88315 0.77364 0.52197 0.0
H1308 H 0.95116 0.74018 0.47066 0.0
H1309 H 0.80403 0.75334 0.46897 0.0
H1310 H 0.95067 0.71662 0.50798 0.0
H1311 H 0.91293 0.64809 0.50059 0.0
H1312 H 0.97236 0.70087 0.4908 0.0
H1313 H 0.73616 0.71802 0.48744 0.0
H1314 H 0.73264 0.66152 0.49804 0.0
H1315 H 0.76762 0.73024 0.50542 0.0
H1316 H 0.75602 0.55186 0.52924 0.0
H1317 H 0.83929 0.71642 0.54708 0.0
H1318 H 0.8181 0.58481 0.49399 0.0
H1319 H 0.75471 0.58631 0.49297 0.0
H1320 H 0.75794 0.53399 0.50396 0.0
H1321 H 0.92175 0.78399 0.51589 0.0
H1322 H 0.89462 0.79527 0.53277 0.0
H1323 H 0.86068 0.78997 0.51544 0.0
C1324 C 0.1793 0.88171 0.78873 0.0
C1325 C 0.21799 0.86834 0.78293 0.0
C1326 C 0.17335 0.88479 0.80399 0.0
C1327 C 0.20612 0.87325 0.81368 0.0
C1328 C 0.24578 0.86057 0.80794 0.0
C1329 C 0.2516 0.85881 0.79266 0.0
C1330 C 0.13125 0.89935 0.80972 0.0
C1331 C 0.2813 0.84767 0.81796 0.0
C1332 C 0.22784 0.91779 0.8537 0.0
C1333 C 0.19029 0.86834 0.86077 0.0
C1334 C 0.23171 0.92076 0.8383 0.0
C1335 C 0.19805 0.87271 0.82985 0.0
C1336 C 0.15903 0.82301 0.83694 0.0
C1337 C 0.15526 0.82161 0.85235 0.0
C1338 C 0.27287 0.97481 0.8311 0.0
C1339 C 0.12307 0.77065 0.82832 0.0
H1340 H 0.1526 0.8885 0.78139 0.0
H1341 H 0.28238 0.8496 0.78837 0.0
H1342 H 0.098 0.86346 0.81576 0.0
H1343 H 0.15119 0.93432 0.81763 0.0
H1344 H 0.11186 0.91102 0.80075 0.0
H1345 H 0.3103 0.83869 0.81173 0.0
H1346 H 0.30592 0.88311 0.82545 0.0
H1347 H 0.25442 0.81123 0.82494 0.0
H1348 H 0.25446 0.95398 0.86028 0.0
H1349 H 0.12672 0.78326 0.85787 0.0
H1350 H 0.25217 0.98589 0.82237 0.0
H1351 H 0.30624 0.97028 0.82575 0.0
H1352 H 0.29222 0.00946 0.83914 0.0
H1353 H 0.09957 0.77851 0.8197 0.0
H1354 H 0.09311 0.73623 0.83546 0.0
H1355 H 0.14969 0.75716 0.82266 0.0
loop_
_geom_bond_atom_site_label_1
_geom_bond_atom_site_label_2
_geom_bond_distance
_geom_bond_site_symmetry_2
_ccdc_geom_bond_type
C0 C1 1.351 . S
C0 N3 1.368 . S
C0 H5 0.931 . S
C1 C0 1.351 . S
C1 N2 1.373 . S
C1 H29 0.930 . S
N2 C1 1.373 . S
N2 C4 1.340 . S
N3 C0 1.368 . S
N3 C4 1.321 . S
N3 Co6 2.135 . S
C4 N2 1.340 . S
C4 N3 1.321 . S
C4 H28 0.930 . S
H5 C0 0.931 . S
Co6 N3 2.135 . S
Co6 N9 2.121 . S
Co6 O14 2.055 . S
Co6 O17 2.039 . S
Co6 N20 2.140 . S
C7 O8 1.227 . S
C7 O17 1.265 . S
O8 C7 1.227 . S
N9 Co6 2.121 . S
N9 C11 1.375 . S
N9 C12 1.313 . S
C10 C11 1.338 . S
C10 N13 1.377 . S
C10 H30 0.930 . S
C11 N9 1.375 . S
C11 C10 1.338 . S
C11 H15 0.931 . S
C12 N9 1.313 . S
C12 N13 1.344 . S
C12 H16 0.930 . S
N13 C10 1.377 . S
N13 C12 1.344 . S
O14 Co6 2.055 . S
O14 C18 1.253 . S
H15 C11 0.931 . S
H16 C12 0.930 . S
O17 Co6 2.039 . S
O17 C7 1.265 . S
C18 O14 1.253 . S
C18 O19 1.227 . S
O19 C18 1.227 . S
N20 Co6 2.140 . S
N20 C23 1.346 . S
N20 C24 1.345 . S
C21 C22 1.387 . S
C21 C25 1.391 . S
C22 C21 1.387 . S
C22 C23 1.369 . S
C22 H31 0.929 . S
C23 N20 1.346 . S
C23 C22 1.369 . S
C23 H26 0.928 . S
C24 N20 1.345 . S
C24 C25 1.371 . S
C24 H27 0.931 . S
C25 C21 1.391 . S
C25 C24 1.371 . S
C25 H32 0.930 . S
H26 C23 0.928 . S
H27 C24 0.931 . S
H28 C4 0.930 . S
H29 C1 0.930 . S
H30 C10 0.930 . S
H31 C22 0.929 . S
H32 C25 0.930 . S
C33 C34 1.351 . S
C33 N36 1.368 . S
C33 H38 0.931 . S
C34 C33 1.351 . S
C34 N35 1.373 . S
C34 H62 0.930 . S
N35 C34 1.373 . S
N35 C37 1.340 . S
N36 C33 1.368 . S
N36 C37 1.321 . S
N36 Co39 2.135 . S
C37 N35 1.340 . S
C37 N36 1.321 . S
C37 H61 0.930 . S
H38 C33 0.931 . S
Co39 N36 2.135 . S
Co39 N42 2.121 . S
Co39 O47 2.055 . S
Co39 O50 2.039 . S
Co39 N53 2.140 . S
C40 O41 1.227 . S
C40 O50 1.265 . S
O41 C40 1.227 . S
N42 Co39 2.121 . S
N42 C44 1.375 . S
N42 C45 1.313 . S
C43 C44 1.338 . S
C43 N46 1.377 . S
C43 H63 0.930 . S
C44 N42 1.375 . S
C44 C43 1.338 . S
C44 H48 0.931 . S
C45 N42 1.313 . S
C45 N46 1.344 . S
C45 H49 0.930 . S
N46 C43 1.377 . S
N46 C45 1.344 . S
O47 Co39 2.055 . S
O47 C51 1.253 . S
H48 C44 0.931 . S
H49 C45 0.930 . S
O50 Co39 2.039 . S
O50 C40 1.265 . S
C51 O47 1.253 . S
C51 O52 1.227 . S
O52 C51 1.227 . S
N53 Co39 2.140 . S
N53 C56 1.346 . S
N53 C57 1.345 . S
C54 C55 1.387 . S
C54 C58 1.391 . S
C55 C54 1.387 . S
C55 C56 1.369 . S
C55 H64 0.929 . S
C56 N53 1.346 . S
C56 C55 1.369 . S
C56 H59 0.928 . S
C57 N53 1.345 . S
C57 C58 1.371 . S
C57 H60 0.931 . S
C58 C54 1.391 . S
C58 C57 1.371 . S
C58 H65 0.930 . S
H59 C56 0.928 . S
H60 C57 0.931 . S
H61 C37 0.930 . S
H62 C34 0.930 . S
H63 C43 0.930 . S
H64 C55 0.929 . S
H65 C58 0.930 . S
C66 C67 1.351 . S
C66 N69 1.368 . S
C66 H71 0.931 . S
C67 C66 1.351 . S
C67 N68 1.373 . S
C67 H95 0.930 . S
N68 C67 1.373 . S
N68 C70 1.340 . S
N69 C66 1.368 . S
N69 C70 1.321 . S
N69 Co72 2.135 . S
C70 N68 1.340 . S
C70 N69 1.321 . S
C70 H94 0.930 . S
H71 C66 0.931 . S
Co72 N69 2.135 . S
Co72 N75 2.121 . S
Co72 O80 2.055 . S
Co72 O83 2.039 . S
Co72 N86 2.140 . S
C73 O74 1.227 . S
C73 O83 1.265 . S
O74 C73 1.227 . S
N75 Co72 2.121 . S
N75 C77 1.375 . S
N75 C78 1.313 . S
C76 C77 1.338 . S
C76 N79 1.377 . S
C76 H96 0.930 . S
C77 N75 1.375 . S
C77 C76 1.338 . S
C77 H81 0.931 . S
C78 N75 1.313 . S
C78 N79 1.344 . S
C78 H82 0.930 . S
N79 C76 1.377 . S
N79 C78 1.344 . S
O80 Co72 2.055 . S
O80 C84 1.253 . S
H81 C77 0.931 . S
H82 C78 0.930 . S
O83 Co72 2.039 . S
O83 C73 1.265 . S
C84 O80 1.253 . S
C84 O85 1.227 . S
O85 C84 1.227 . S
N86 Co72 2.140 . S
N86 C89 1.346 . S
N86 C90 1.345 . S
C87 C88 1.387 . S
C87 C91 1.391 . S
C88 C87 1.387 . S
C88 C89 1.369 . S
C88 H97 0.929 . S
C89 N86 1.346 . S
C89 C88 1.369 . S
C89 H92 0.928 . S
C90 N86 1.345 . S
C90 C91 1.371 . S
C90 H93 0.931 . S
C91 C87 1.391 . S
C91 C90 1.371 . S
C91 H98 0.930 . S
H92 C89 0.928 . S
H93 C90 0.931 . S
H94 C70 0.930 . S
H95 C67 0.930 . S
H96 C76 0.930 . S
H97 C88 0.929 . S
H98 C91 0.930 . S
C99 C100 1.351 . S
C99 N102 1.368 . S
C99 H104 0.931 . S
C100 C99 1.351 . S
C100 N101 1.373 . S
C100 H128 0.930 . S
N101 C100 1.373 . S
N101 C103 1.340 . S
N102 C99 1.368 . S
N102 C103 1.321 . S
N102 Co105 2.135 . S
C103 N101 1.340 . S
C103 N102 1.321 . S
C103 H127 0.930 . S
H104 C99 0.931 . S
Co105 N102 2.135 . S
Co105 N108 2.121 . S
Co105 O113 2.055 . S
Co105 O116 2.039 . S
Co105 N119 2.140 . S
C106 O107 1.227 . S
C106 O116 1.265 . S
O107 C106 1.227 . S
N108 Co105 2.121 . S
N108 C110 1.375 . S
N108 C111 1.313 . S
C109 C110 1.338 . S
C109 N112 1.377 . S
C109 H129 0.930 . S
C110 N108 1.375 . S
C110 C109 1.338 . S
C110 H114 0.931 . S
C111 N108 1.313 . S
C111 N112 1.344 . S
C111 H115 0.930 . S
N112 C109 1.377 . S
N112 C111 1.344 . S
O113 Co105 2.055 . S
O113 C117 1.253 . S
H114 C110 0.931 . S
H115 C111 0.930 . S
O116 Co105 2.039 . S
O116 C106 1.265 . S
C117 O113 1.253 . S
C117 O118 1.227 . S
O118 C117 1.227 . S
N119 Co105 2.140 . S
N119 C122 1.346 . S
N119 C123 1.345 . S
C120 C121 1.387 . S
C120 C124 1.391 . S
C121 C120 1.387 . S
C121 C122 1.369 . S
C121 H130 0.929 . S
C122 N119 1.346 . S
C122 C121 1.369 . S
C122 H125 0.928 . S
C123 N119 1.345 . S
C123 C124 1.371 . S
C123 H126 0.931 . S
C124 C120 1.391 . S
C124 C123 1.371 . S
C124 H131 0.930 . S
H125 C122 0.928 . S
H126 C123 0.931 . S
H127 C103 0.930 . S
H128 C100 0.930 . S
H129 C109 0.930 . S
H130 C121 0.929 . S
H131 C124 0.930 . S
C132 C133 1.351 . S
C132 N135 1.368 . S
C132 H137 0.931 . S
C133 C132 1.351 . S
C133 N134 1.373 . S
C133 H161 0.930 . S
N134 C133 1.373 . S
N134 C136 1.340 . S
N135 C132 1.368 . S
N135 C136 1.321 . S
N135 Co138 2.135 . S
C136 N134 1.340 . S
C136 N135 1.321 . S
C136 H160 0.930 . S
H137 C132 0.931 . S
Co138 N135 2.135 . S
Co138 N141 2.121 . S
Co138 O146 2.055 . S
Co138 O149 2.039 . S
Co138 N152 2.140 . S
C139 O140 1.227 . S
C139 O149 1.265 . S
O140 C139 1.227 . S
N141 Co138 2.121 . S
N141 C143 1.375 . S
N141 C144 1.313 . S
C142 C143 1.338 . S
C142 N145 1.377 . S
C142 H162 0.930 . S
C143 N141 1.375 . S
C143 C142 1.338 . S
C143 H147 0.931 . S
C144 N141 1.313 . S
C144 N145 1.344 . S
C144 H148 0.930 . S
N145 C142 1.377 . S
N145 C144 1.344 . S
O146 Co138 2.055 . S
O146 C150 1.253 . S
H147 C143 0.931 . S
H148 C144 0.930 . S
O149 Co138 2.039 . S
O149 C139 1.265 . S
C150 O146 1.253 . S
C150 O151 1.227 . S
O151 C150 1.227 . S
N152 Co138 2.140 . S
N152 C155 1.346 . S
N152 C156 1.345 . S
C153 C154 1.387 . S
C153 C157 1.391 . S
C154 C153 1.387 . S
C154 C155 1.369 . S
C154 H163 0.929 . S
C155 N152 1.346 . S
C155 C154 1.369 . S
C155 H158 0.928 . S
C156 N152 1.345 . S
C156 C157 1.371 . S
C156 H159 0.931 . S
C157 C153 1.391 . S
C157 C156 1.371 . S
C157 H164 0.930 . S
H158 C155 0.928 . S
H159 C156 0.931 . S
H160 C136 0.930 . S
H161 C133 0.930 . S
H162 C142 0.930 . S
H163 C154 0.929 . S
H164 C157 0.930 . S
C165 C166 1.351 . S
C165 N168 1.368 . S
C165 H170 0.931 . S
C166 C165 1.351 . S
C166 N167 1.373 . S
C166 H194 0.930 . S
N167 C166 1.373 . S
N167 C169 1.340 . S
N168 C165 1.368 . S
N168 C169 1.321 . S
N168 Co171 2.135 . S
C169 N167 1.340 . S
C169 N168 1.321 . S
C169 H193 0.930 . S
H170 C165 0.931 . S
Co171 N168 2.135 . S
Co171 N174 2.121 . S
Co171 O179 2.055 . S
Co171 O182 2.039 . S
Co171 N185 2.140 . S
C172 O173 1.227 . S
C172 O182 1.265 . S
O173 C172 1.227 . S
N174 Co171 2.121 . S
N174 C176 1.375 . S
N174 C177 1.313 . S
C175 C176 1.338 . S
C175 N178 1.377 . S
C175 H195 0.930 . S
C176 N174 1.375 . S
C176 C175 1.338 . S
C176 H180 0.931 . S
C177 N174 1.313 . S
C177 N178 1.344 . S
C177 H181 0.930 . S
N178 C175 1.377 . S
N178 C177 1.344 . S
O179 Co171 2.055 . S
O179 C183 1.253 . S
H180 C176 0.931 . S
H181 C177 0.930 . S
O182 Co171 2.039 . S
O182 C172 1.265 . S
C183 O179 1.253 . S
C183 O184 1.227 . S
O184 C183 1.227 . S
N185 Co171 2.140 . S
N185 C188 1.346 . S
N185 C189 1.345 . S
C186 C187 1.387 . S
C186 C190 1.391 . S
C187 C186 1.387 . S
C187 C188 1.369 . S
C187 H196 0.929 . S
C188 N185 1.346 . S
C188 C187 1.369 . S
C188 H191 0.928 . S
C189 N185 1.345 . S
C189 C190 1.371 . S
C189 H192 0.931 . S
C190 C186 1.391 . S
C190 C189 1.371 . S
C190 H197 0.930 . S
H191 C188 0.928 . S
H192 C189 0.931 . S
H193 C169 0.930 . S
H194 C166 0.930 . S
H195 C175 0.930 . S
H196 C187 0.929 . S
H197 C190 0.930 . S
C198 C199 1.351 . S
C198 N201 1.368 . S
C198 H203 0.931 . S
C199 C198 1.351 . S
C199 N200 1.373 . S
C199 H227 0.930 . S
N200 C199 1.373 . S
N200 C202 1.340 . S
N201 C198 1.368 . S
N201 C202 1.321 . S
N201 Co204 2.135 . S
C202 N200 1.340 . S
C202 N201 1.321 . S
C202 H226 0.930 . S
H203 C198 0.931 . S
Co204 N201 2.135 . S
Co204 N207 2.121 . S
Co204 O212 2.055 . S
Co204 O215 2.039 . S
Co204 N218 2.140 . S
C205 O206 1.227 . S
C205 O215 1.265 . S
O206 C205 1.227 . S
N207 Co204 2.121 . S
N207 C209 1.375 . S
N207 C210 1.313 . S
C208 C209 1.338 . S
C208 N211 1.377 . S
C208 H228 0.930 . S
C209 N207 1.375 . S
C209 C208 1.338 . S
C209 H213 0.931 . S
C210 N207 1.313 . S
C210 N211 1.344 . S
C210 H214 0.930 . S
N211 C208 1.377 . S
N211 C210 1.344 . S
O212 Co204 2.055 . S
O212 C216 1.253 . S
H213 C209 0.931 . S
H214 C210 0.930 . S
O215 Co204 2.039 . S
O215 C205 1.265 . S
C216 O212 1.253 . S
C216 O217 1.227 . S
O217 C216 1.227 . S
N218 Co204 2.140 . S
N218 C221 1.346 . S
N218 C222 1.345 . S
C219 C220 1.387 . S
C219 C223 1.391 . S
C220 C219 1.387 . S
C220 C221 1.369 . S
C220 H229 0.929 . S
C221 N218 1.346 . S
C221 C220 1.369 . S
C221 H224 0.928 . S
C222 N218 1.345 . S
C222 C223 1.371 . S
C222 H225 0.931 . S
C223 C219 1.391 . S
C223 C222 1.371 . S
C223 H230 0.930 . S
H224 C221 0.928 . S
H225 C222 0.931 . S
H226 C202 0.930 . S
H227 C199 0.930 . S
H228 C208 0.930 . S
H229 C220 0.929 . S
H230 C223 0.930 . S
C231 C232 1.351 . S
C231 N234 1.368 . S
C231 H236 0.931 . S
C232 C231 1.351 . S
C232 N233 1.373 . S
C232 H260 0.930 . S
N233 C232 1.373 . S
N233 C235 1.340 . S
N234 C231 1.368 . S
N234 C235 1.321 . S
N234 Co237 2.135 . S
C235 N233 1.340 . S
C235 N234 1.321 . S
C235 H259 0.930 . S
H236 C231 0.931 . S
Co237 N234 2.135 . S
Co237 N240 2.121 . S
Co237 O245 2.055 . S
Co237 O248 2.039 . S
Co237 N251 2.140 . S
C238 O239 1.227 . S
C238 O248 1.265 . S
O239 C238 1.227 . S
N240 Co237 2.121 . S
N240 C242 1.375 . S
N240 C243 1.313 . S
C241 C242 1.338 . S
C241 N244 1.377 . S
C241 H261 0.930 . S
C242 N240 1.375 . S
C242 C241 1.338 . S
C242 H246 0.931 . S
C243 N240 1.313 . S
C243 N244 1.344 . S
C243 H247 0.930 . S
N244 C241 1.377 . S
N244 C243 1.344 . S
O245 Co237 2.055 . S
O245 C249 1.253 . S
H246 C242 0.931 . S
H247 C243 0.930 . S
O248 Co237 2.039 . S
O248 C238 1.265 . S
C249 O245 1.253 . S
C249 O250 1.227 . S
O250 C249 1.227 . S
N251 Co237 2.140 . S
N251 C254 1.346 . S
N251 C255 1.345 . S
C252 C253 1.387 . S
C252 C256 1.391 . S
C253 C252 1.387 . S
C253 C254 1.369 . S
C253 H262 0.929 . S
C254 N251 1.346 . S
C254 C253 1.369 . S
C254 H257 0.928 . S
C255 N251 1.345 . S
C255 C256 1.371 . S
C255 H258 0.931 . S
C256 C252 1.391 . S
C256 C255 1.371 . S
C256 H263 0.930 . S
H257 C254 0.928 . S
H258 C255 0.931 . S
H259 C235 0.930 . S
H260 C232 0.930 . S
H261 C241 0.930 . S
H262 C253 0.929 . S
H263 C256 0.930 . S
C264 C265 1.351 . S
C264 N267 1.368 . S
C264 H269 0.931 . S
C265 C264 1.351 . S
C265 N266 1.373 . S
C265 H293 0.930 . S
N266 C265 1.373 . S
N266 C268 1.340 . S
N267 C264 1.368 . S
N267 C268 1.321 . S
N267 Co270 2.135 . S
C268 N266 1.340 . S
C268 N267 1.321 . S
C268 H292 0.930 . S
H269 C264 0.931 . S
Co270 N267 2.135 . S
Co270 N273 2.121 . S
Co270 O278 2.055 . S
Co270 O281 2.039 . S
Co270 N284 2.140 . S
C271 O272 1.227 . S
C271 O281 1.265 . S
O272 C271 1.227 . S
N273 Co270 2.121 . S
N273 C275 1.375 . S
N273 C276 1.313 . S
C274 C275 1.338 . S
C274 N277 1.377 . S
C274 H294 0.930 . S
C275 N273 1.375 . S
C275 C274 1.338 . S
C275 H279 0.931 . S
C276 N273 1.313 . S
C276 N277 1.344 . S
C276 H280 0.930 . S
N277 C274 1.377 . S
N277 C276 1.344 . S
O278 Co270 2.055 . S
O278 C282 1.253 . S
H279 C275 0.931 . S
H280 C276 0.930 . S
O281 Co270 2.039 . S
O281 C271 1.265 . S
C282 O278 1.253 . S
C282 O283 1.227 . S
O283 C282 1.227 . S
N284 Co270 2.140 . S
N284 C287 1.346 . S
N284 C288 1.345 . S
C285 C286 1.387 . S
C285 C289 1.391 . S
C286 C285 1.387 . S
C286 C287 1.369 . S
C286 H295 0.929 . S
C287 N284 1.346 . S
C287 C286 1.369 . S
C287 H290 0.928 . S
C288 N284 1.345 . S
C288 C289 1.371 . S
C288 H291 0.931 . S
C289 C285 1.391 . S
C289 C288 1.371 . S
C289 H296 0.930 . S
H290 C287 0.928 . S
H291 C288 0.931 . S
H292 C268 0.930 . S
H293 C265 0.930 . S
H294 C274 0.930 . S
H295 C286 0.929 . S
H296 C289 0.930 . S
C297 C298 1.351 . S
C297 N300 1.368 . S
C297 H302 0.931 . S
C298 C297 1.351 . S
C298 N299 1.373 . S
C298 H326 0.930 . S
N299 C298 1.373 . S
N299 C301 1.340 . S
N300 C297 1.368 . S
N300 C301 1.321 . S
N300 Co303 2.135 . S
C301 N299 1.340 . S
C301 N300 1.321 . S
C301 H325 0.930 . S
H302 C297 0.931 . S
Co303 N300 2.135 . S
Co303 N306 2.121 . S
Co303 O311 2.055 . S
Co303 O314 2.039 . S
Co303 N317 2.140 . S
C304 O305 1.227 . S
C304 O314 1.265 . S
O305 C304 1.227 . S
N306 Co303 2.121 . S
N306 C308 1.375 . S
N306 C309 1.313 . S
C307 C308 1.338 . S
C307 N310 1.377 . S
C307 H327 0.930 . S
C308 N306 1.375 . S
C308 C307 1.338 . S
C308 H312 0.931 . S
C309 N306 1.313 . S
C309 N310 1.344 . S
C309 H313 0.930 . S
N310 C307 1.377 . S
N310 C309 1.344 . S
O311 Co303 2.055 . S
O311 C315 1.253 . S
H312 C308 0.931 . S
H313 C309 0.930 . S
O314 Co303 2.039 . S
O314 C304 1.265 . S
C315 O311 1.253 . S
C315 O316 1.227 . S
O316 C315 1.227 . S
N317 Co303 2.140 . S
N317 C320 1.346 . S
N317 C321 1.345 . S
C318 C319 1.387 . S
C318 C322 1.391 . S
C319 C318 1.387 . S
C319 C320 1.369 . S
C319 H328 0.929 . S
C320 N317 1.346 . S
C320 C319 1.369 . S
C320 H323 0.928 . S
C321 N317 1.345 . S
C321 C322 1.371 . S
C321 H324 0.931 . S
C322 C318 1.391 . S
C322 C321 1.371 . S
C322 H329 0.930 . S
H323 C320 0.928 . S
H324 C321 0.931 . S
H325 C301 0.930 . S
H326 C298 0.930 . S
H327 C307 0.930 . S
H328 C319 0.929 . S
H329 C322 0.930 . S
C330 C331 1.351 . S
C330 N333 1.368 . S
C330 H335 0.931 . S
C331 C330 1.351 . S
C331 N332 1.373 . S
C331 H359 0.930 . S
N332 C331 1.373 . S
N332 C334 1.340 . S
N333 C330 1.368 . S
N333 C334 1.321 . S
N333 Co336 2.135 . S
C334 N332 1.340 . S
C334 N333 1.321 . S
C334 H358 0.930 . S
H335 C330 0.931 . S
Co336 N333 2.135 . S
Co336 N339 2.121 . S
Co336 O344 2.055 . S
Co336 O347 2.039 . S
Co336 N350 2.140 . S
C337 O338 1.227 . S
C337 O347 1.265 . S
O338 C337 1.227 . S
N339 Co336 2.121 . S
N339 C341 1.375 . S
N339 C342 1.313 . S
C340 C341 1.338 . S
C340 N343 1.377 . S
C340 H360 0.930 . S
C341 N339 1.375 . S
C341 C340 1.338 . S
C341 H345 0.931 . S
C342 N339 1.313 . S
C342 N343 1.344 . S
C342 H346 0.930 . S
N343 C340 1.377 . S
N343 C342 1.344 . S
O344 Co336 2.055 . S
O344 C348 1.253 . S
H345 C341 0.931 . S
H346 C342 0.930 . S
O347 Co336 2.039 . S
O347 C337 1.265 . S
C348 O344 1.253 . S
C348 O349 1.227 . S
O349 C348 1.227 . S
N350 Co336 2.140 . S
N350 C353 1.346 . S
N350 C354 1.345 . S
C351 C352 1.387 . S
C351 C355 1.391 . S
C352 C351 1.387 . S
C352 C353 1.369 . S
C352 H361 0.929 . S
C353 N350 1.346 . S
C353 C352 1.369 . S
C353 H356 0.928 . S
C354 N350 1.345 . S
C354 C355 1.371 . S
C354 H357 0.931 . S
C355 C351 1.391 . S
C355 C354 1.371 . S
C355 H362 0.930 . S
H356 C353 0.928 . S
H357 C354 0.931 . S
H358 C334 0.930 . S
H359 C331 0.930 . S
H360 C340 0.930 . S
H361 C352 0.929 . S
H362 C355 0.930 . S
C363 C364 1.351 . S
C363 N366 1.368 . S
C363 H368 0.931 . S
C364 C363 1.351 . S
C364 N365 1.373 . S
C364 H392 0.930 . S
N365 C364 1.373 . S
N365 C367 1.340 . S
N366 C363 1.368 . S
N366 C367 1.321 . S
N366 Co369 2.135 . S
C367 N365 1.340 . S
C367 N366 1.321 . S
C367 H391 0.930 . S
H368 C363 0.931 . S
Co369 N366 2.135 . S
Co369 N372 2.121 . S
Co369 O377 2.055 . S
Co369 O380 2.039 . S
Co369 N383 2.140 . S
C370 O371 1.227 . S
C370 O380 1.265 . S
O371 C370 1.227 . S
N372 Co369 2.121 . S
N372 C374 1.375 . S
N372 C375 1.313 . S
C373 C374 1.338 . S
C373 N376 1.377 . S
C373 H393 0.930 . S
C374 N372 1.375 . S
C374 C373 1.338 . S
C374 H378 0.931 . S
C375 N372 1.313 . S
C375 N376 1.344 . S
C375 H379 0.930 . S
N376 C373 1.377 . S
N376 C375 1.344 . S
O377 Co369 2.055 . S
O377 C381 1.253 . S
H378 C374 0.931 . S
H379 C375 0.930 . S
O380 Co369 2.039 . S
O380 C370 1.265 . S
C381 O377 1.253 . S
C381 O382 1.227 . S
O382 C381 1.227 . S
N383 Co369 2.140 . S
N383 C386 1.346 . S
N383 C387 1.345 . S
C384 C385 1.387 . S
C384 C388 1.391 . S
C385 C384 1.387 . S
C385 C386 1.369 . S
C385 H394 0.929 . S
C386 N383 1.346 . S
C386 C385 1.369 . S
C386 H389 0.928 . S
C387 N383 1.345 . S
C387 C388 1.371 . S
C387 H390 0.931 . S
C388 C384 1.391 . S
C388 C387 1.371 . S
C388 H395 0.930 . S
H389 C386 0.928 . S
H390 C387 0.931 . S
H391 C367 0.930 . S
H392 C364 0.930 . S
H393 C373 0.930 . S
H394 C385 0.929 . S
H395 C388 0.930 . S
C396 C397 1.391 . S
C396 C398 1.394 . S
C396 H412 0.931 . S
C397 C396 1.391 . S
C397 C401 1.376 . S
C398 C396 1.394 . S
C398 C399 1.369 . S
C398 C402 1.531 . S
C399 C398 1.369 . S
C399 C400 1.410 . S
C399 C407 1.503 . S
C400 C399 1.410 . S
C400 C401 1.392 . S
C400 C403 1.511 . S
C401 C397 1.376 . S
C401 C400 1.392 . S
C401 H413 0.929 . S
C402 C398 1.531 . S
C402 H414 0.960 . S
C402 H415 0.962 . S
C402 H416 0.960 . S
C403 C400 1.511 . S
C403 H417 0.961 . S
C403 H418 0.961 . S
C403 H419 0.961 . S
C404 C405 1.370 . S
C404 C406 1.363 . S
C404 H420 0.931 . S
C405 C404 1.370 . S
C405 C409 1.408 . S
C406 C404 1.363 . S
C406 C407 1.370 . S
C406 C410 1.524 . S
C407 C399 1.503 . S
C407 C406 1.370 . S
C407 C408 1.403 . S
C408 C407 1.403 . S
C408 C409 1.404 . S
C408 C411 1.539 . S
C409 C405 1.408 . S
C409 C408 1.404 . S
C409 H421 0.930 . S
C410 C406 1.524 . S
C410 H422 0.956 . S
C410 H423 0.961 . S
C410 H424 0.961 . S
C411 C408 1.539 . S
C411 H425 0.958 . S
C411 H426 0.961 . S
C411 H427 0.960 . S
H412 C396 0.931 . S
H413 C401 0.929 . S
H414 C402 0.960 . S
H415 C402 0.962 . S
H416 C402 0.960 . S
H417 C403 0.961 . S
H418 C403 0.961 . S
H419 C403 0.961 . S
H420 C404 0.931 . S
H421 C409 0.930 . S
H422 C410 0.956 . S
H423 C410 0.961 . S
H424 C410 0.961 . S
H425 C411 0.958 . S
H426 C411 0.961 . S
H427 C411 0.960 . S
C428 C429 1.391 . S
C428 C430 1.394 . S
C428 H444 0.931 . S
C429 C428 1.391 . S
C429 C433 1.376 . S
C430 C428 1.394 . S
C430 C431 1.369 . S
C430 C434 1.531 . S
C431 C430 1.369 . S
C431 C432 1.410 1_455 S
C431 C439 1.503 1_455 S
C432 C431 1.410 1_655 S
C432 C433 1.392 1_655 S
C432 C435 1.511 . S
C433 C429 1.376 . S
C433 C432 1.392 1_455 S
C433 H445 0.929 1_455 S
C434 C430 1.531 . S
C434 H446 0.960 . S
C434 H447 0.962 . S
C434 H448 0.960 . S
C435 C432 1.511 . S
C435 H449 0.961 . S
C435 H450 0.961 . S
C435 H451 0.961 . S
C436 C437 1.370 . S
C436 C438 1.363 . S
C436 H452 0.931 . S
C437 C436 1.370 . S
C437 C441 1.408 . S
C438 C436 1.363 . S
C438 C439 1.370 . S
C438 C442 1.524 . S
C439 C431 1.503 1_655 S
C439 C438 1.370 . S
C439 C440 1.403 . S
C440 C439 1.403 . S
C440 C441 1.404 . S
C440 C443 1.539 1_655 S
C441 C437 1.408 . S
C441 C440 1.404 . S
C441 H453 0.930 . S
C442 C438 1.524 . S
C442 H454 0.956 . S
C442 H455 0.961 . S
C442 H456 0.961 . S
C443 C440 1.539 1_455 S
C443 H457 0.958 . S
C443 H458 0.961 . S
C443 H459 0.960 . S
H444 C428 0.931 . S
H445 C433 0.929 1_655 S
H446 C434 0.960 . S
H447 C434 0.962 . S
H448 C434 0.960 . S
H449 C435 0.961 . S
H450 C435 0.961 . S
H451 C435 0.961 . S
H452 C436 0.931 . S
H453 C441 0.930 . S
H454 C442 0.956 . S
H455 C442 0.961 . S
H456 C442 0.961 . S
H457 C443 0.958 . S
H458 C443 0.961 . S
H459 C443 0.960 . S
C460 C461 1.391 . S
C460 C462 1.394 . S
C460 H476 0.931 . S
C461 C460 1.391 . S
C461 C465 1.376 . S
C462 C460 1.394 . S
C462 C463 1.369 . S
C462 C466 1.531 . S
C463 C462 1.369 . S
C463 C464 1.410 1_545 S
C463 C471 1.503 1_545 S
C464 C463 1.410 1_565 S
C464 C465 1.392 1_565 S
C464 C467 1.511 . S
C465 C461 1.376 . S
C465 C464 1.392 1_545 S
C465 H477 0.929 1_545 S
C466 C462 1.531 . S
C466 H478 0.960 . S
C466 H479 0.962 . S
C466 H480 0.960 . S
C467 C464 1.511 . S
C467 H481 0.961 . S
C467 H482 0.961 . S
C467 H483 0.961 . S
C468 C469 1.370 . S
C468 C470 1.363 . S
C468 H484 0.931 . S
C469 C468 1.370 . S
C469 C473 1.408 . S
C470 C468 1.363 . S
C470 C471 1.370 . S
C470 C474 1.524 1_565 S
C471 C463 1.503 1_565 S
C471 C470 1.370 . S
C471 C472 1.403 . S
C472 C471 1.403 . S
C472 C473 1.404 . S
C472 C475 1.539 . S
C473 C469 1.408 . S
C473 C472 1.404 . S
C473 H485 0.930 . S
C474 C470 1.524 1_545 S
C474 H486 0.956 . S
C474 H487 0.961 1_545 S
C474 H488 0.961 . S
C475 C472 1.539 . S
C475 H489 0.958 . S
C475 H490 0.961 . S
C475 H491 0.960 . S
H476 C460 0.931 . S
H477 C465 0.929 1_565 S
H478 C466 0.960 . S
H479 C466 0.962 . S
H480 C466 0.960 . S
H481 C467 0.961 . S
H482 C467 0.961 . S
H483 C467 0.961 . S
H484 C468 0.931 . S
H485 C473 0.930 . S
H486 C474 0.956 . S
H487 C474 0.961 1_565 S
H488 C474 0.961 . S
H489 C475 0.958 . S
H490 C475 0.961 . S
H491 C475 0.960 . S
C492 C493 1.391 . S
C492 C494 1.394 . S
C492 H508 0.931 . S
C493 C492 1.391 . S
C493 C497 1.376 . S
C494 C492 1.394 . S
C494 C495 1.369 . S
C494 C498 1.531 . S
C495 C494 1.369 . S
C495 C496 1.410 . S
C495 C503 1.503 . S
C496 C495 1.410 . S
C496 C497 1.392 . S
C496 C499 1.511 . S
C497 C493 1.376 . S
C497 C496 1.392 . S
C497 H509 0.929 . S
C498 C494 1.531 . S
C498 H510 0.960 . S
C498 H511 0.962 . S
C498 H512 0.960 . S
C499 C496 1.511 . S
C499 H513 0.961 . S
C499 H514 0.961 . S
C499 H515 0.961 . S
C500 C501 1.370 . S
C500 C502 1.363 . S
C500 H516 0.931 . S
C501 C500 1.370 . S
C501 C505 1.408 . S
C502 C500 1.363 . S
C502 C503 1.370 . S
C502 C506 1.524 . S
C503 C495 1.503 . S
C503 C502 1.370 . S
C503 C504 1.403 . S
C504 C503 1.403 . S
C504 C505 1.404 . S
C504 C507 1.539 . S
C505 C501 1.408 . S
C505 C504 1.404 . S
C505 H517 0.930 . S
C506 C502 1.524 . S
C506 H518 0.956 . S
C506 H519 0.961 . S
C506 H520 0.961 . S
C507 C504 1.539 . S
C507 H521 0.958 . S
C507 H522 0.961 . S
C507 H523 0.960 . S
H508 C492 0.931 . S
H509 C497 0.929 . S
H510 C498 0.960 . S
H511 C498 0.962 . S
H512 C498 0.960 . S
H513 C499 0.961 . S
H514 C499 0.961 . S
H515 C499 0.961 . S
H516 C500 0.931 . S
H517 C505 0.930 . S
H518 C506 0.956 . S
H519 C506 0.961 . S
H520 C506 0.961 . S
H521 C507 0.958 . S
H522 C507 0.961 . S
H523 C507 0.960 . S
C524 C525 1.391 . S
C524 C526 1.394 . S
C524 H540 0.931 . S
C525 C524 1.391 . S
C525 C529 1.376 . S
C526 C524 1.394 . S
C526 C527 1.369 . S
C526 C530 1.531 . S
C527 C526 1.369 . S
C527 C528 1.410 1_655 S
C527 C535 1.503 1_655 S
C528 C527 1.410 1_455 S
C528 C529 1.392 1_455 S
C528 C531 1.511 . S
C529 C525 1.376 . S
C529 C528 1.392 1_655 S
C529 H541 0.929 1_655 S
C530 C526 1.531 . S
C530 H542 0.960 . S
C530 H543 0.962 . S
C530 H544 0.960 . S
C531 C528 1.511 . S
C531 H545 0.961 . S
C531 H546 0.961 . S
C531 H547 0.961 . S
C532 C533 1.370 . S
C532 C534 1.363 . S
C532 H548 0.931 . S
C533 C532 1.370 . S
C533 C537 1.408 . S
C534 C532 1.363 . S
C534 C535 1.370 . S
C534 C538 1.524 1_455 S
C535 C527 1.503 1_455 S
C535 C534 1.370 . S
C535 C536 1.403 . S
C536 C535 1.403 . S
C536 C537 1.404 . S
C536 C539 1.539 . S
C537 C533 1.408 . S
C537 C536 1.404 . S
C537 H549 0.930 . S
C538 C534 1.524 1_655 S
C538 H550 0.956 . S
C538 H551 0.961 . S
C538 H552 0.961 . S
C539 C536 1.539 . S
C539 H553 0.958 . S
C539 H554 0.961 . S
C539 H555 0.960 . S
H540 C524 0.931 . S
H541 C529 0.929 1_455 S
H542 C530 0.960 . S
H543 C530 0.962 . S
H544 C530 0.960 . S
H545 C531 0.961 . S
H546 C531 0.961 . S
H547 C531 0.961 . S
H548 C532 0.931 . S
H549 C537 0.930 . S
H550 C538 0.956 . S
H551 C538 0.961 . S
H552 C538 0.961 . S
H553 C539 0.958 . S
H554 C539 0.961 . S
H555 C539 0.960 . S
C556 C557 1.391 . S
C556 C558 1.394 . S
C556 H572 0.931 . S
C557 C556 1.391 . S
C557 C561 1.376 . S
C558 C556 1.394 . S
C558 C559 1.369 . S
C558 C562 1.531 . S
C559 C558 1.369 . S
C559 C560 1.410 . S
C559 C567 1.503 1_565 S
C560 C559 1.410 . S
C560 C561 1.392 . S
C560 C563 1.511 1_565 S
C561 C557 1.376 . S
C561 C560 1.392 . S
C561 H573 0.929 . S
C562 C558 1.531 . S
C562 H574 0.960 . S
C562 H575 0.962 . S
C562 H576 0.960 . S
C563 C560 1.511 1_545 S
C563 H577 0.961 . S
C563 H578 0.961 . S
C563 H579 0.961 . S
C564 C565 1.370 . S
C564 C566 1.363 . S
C564 H580 0.931 . S
C565 C564 1.370 . S
C565 C569 1.408 . S
C566 C564 1.363 . S
C566 C567 1.370 . S
C566 C570 1.524 . S
C567 C559 1.503 1_545 S
C567 C566 1.370 . S
C567 C568 1.403 1_545 S
C568 C567 1.403 1_565 S
C568 C569 1.404 1_565 S
C568 C571 1.539 . S
C569 C565 1.408 . S
C569 C568 1.404 1_545 S
C569 H581 0.930 . S
C570 C566 1.524 . S
C570 H582 0.956 . S
C570 H583 0.961 . S
C570 H584 0.961 . S
C571 C568 1.539 . S
C571 H585 0.958 . S
C571 H586 0.961 . S
C571 H587 0.960 . S
H572 C556 0.931 . S
H573 C561 0.929 . S
H574 C562 0.960 . S
H575 C562 0.962 . S
H576 C562 0.960 . S
H577 C563 0.961 . S
H578 C563 0.961 . S
H579 C563 0.961 . S
H580 C564 0.931 . S
H581 C569 0.930 . S
H582 C570 0.956 . S
H583 C570 0.961 . S
H584 C570 0.961 . S
H585 C571 0.958 . S
H586 C571 0.961 . S
H587 C571 0.960 . S
C588 C589 1.391 . S
C588 C590 1.394 . S
C588 H604 0.931 . S
C589 C588 1.391 . S
C589 C593 1.376 . S
C590 C588 1.394 . S
C590 C591 1.369 . S
C590 C594 1.531 1_556 S
C591 C590 1.369 . S
C591 C592 1.410 1_565 S
C591 C599 1.503 1_566 S
C592 C591 1.410 1_545 S
C592 C593 1.392 1_545 S
C592 C595 1.511 . S
C593 C589 1.376 . S
C593 C592 1.392 1_565 S
C593 H605 0.929 1_565 S
C594 C590 1.531 1_554 S
C594 H606 0.960 . S
C594 H607 0.962 . S
C594 H608 0.960 . S
C595 C592 1.511 . S
C595 H609 0.961 . S
C595 H610 0.961 . S
C595 H611 0.961 . S
C596 C597 1.370 . S
C596 C598 1.363 . S
C596 H612 0.931 . S
C597 C596 1.370 . S
C597 C601 1.408 . S
C598 C596 1.363 . S
C598 C599 1.370 . S
C598 C602 1.524 . S
C599 C591 1.503 1_544 S
C599 C598 1.370 . S
C599 C600 1.403 . S
C600 C599 1.403 . S
C600 C601 1.404 . S
C600 C603 1.539 . S
C601 C597 1.408 . S
C601 C600 1.404 . S
C601 H613 0.930 . S
C602 C598 1.524 . S
C602 H614 0.956 1_545 S
C602 H615 0.961 1_554 S
C602 H616 0.961 . S
C603 C600 1.539 . S
C603 H617 0.958 1_545 S
C603 H618 0.961 . S
C603 H619 0.960 1_554 S
H604 C588 0.931 . S
H605 C593 0.929 1_545 S
H606 C594 0.960 . S
H607 C594 0.962 . S
H608 C594 0.960 . S
H609 C595 0.961 . S
H610 C595 0.961 . S
H611 C595 0.961 . S
H612 C596 0.931 . S
H613 C601 0.930 . S
H614 C602 0.956 1_565 S
H615 C602 0.961 1_556 S
H616 C602 0.961 . S
H617 C603 0.958 1_565 S
H618 C603 0.961 . S
H619 C603 0.960 1_556 S
C620 C621 1.391 . S
C620 C622 1.394 . S
C620 H636 0.931 . S
C621 C620 1.391 . S
C621 C625 1.376 . S
C622 C620 1.394 . S
C622 C623 1.369 . S
C622 C626 1.531 . S
C623 C622 1.369 . S
C623 C624 1.410 . S
C623 C631 1.503 . S
C624 C623 1.410 . S
C624 C625 1.392 . S
C624 C627 1.511 . S
C625 C621 1.376 . S
C625 C624 1.392 . S
C625 H637 0.929 . S
C626 C622 1.531 . S
C626 H638 0.960 . S
C626 H639 0.962 . S
C626 H640 0.960 . S
C627 C624 1.511 . S
C627 H641 0.961 . S
C627 H642 0.961 . S
C627 H643 0.961 . S
C628 C629 1.370 . S
C628 C630 1.363 . S
C628 H644 0.931 . S
C629 C628 1.370 . S
C629 C633 1.408 . S
C630 C628 1.363 . S
C630 C631 1.370 . S
C630 C634 1.524 . S
C631 C623 1.503 . S
C631 C630 1.370 . S
C631 C632 1.403 . S
C632 C631 1.403 . S
C632 C633 1.404 . S
C632 C635 1.539 . S
C633 C629 1.408 . S
C633 C632 1.404 . S
C633 H645 0.930 . S
C634 C630 1.524 . S
C634 H646 0.956 . S
C634 H647 0.961 . S
C634 H648 0.961 . S
C635 C632 1.539 . S
C635 H649 0.958 . S
C635 H650 0.961 . S
C635 H651 0.960 . S
H636 C620 0.931 . S
H637 C625 0.929 . S
H638 C626 0.960 . S
H639 C626 0.962 . S
H640 C626 0.960 . S
H641 C627 0.961 . S
H642 C627 0.961 . S
H643 C627 0.961 . S
H644 C628 0.931 . S
H645 C633 0.930 . S
H646 C634 0.956 . S
H647 C634 0.961 . S
H648 C634 0.961 . S
H649 C635 0.958 . S
H650 C635 0.961 . S
H651 C635 0.960 . S
C652 C653 1.391 . S
C652 C654 1.394 . S
C652 H668 0.931 . S
C653 C652 1.391 . S
C653 C657 1.376 . S
C654 C652 1.394 . S
C654 C655 1.369 . S
C654 C658 1.531 . S
C655 C654 1.369 . S
C655 C656 1.410 1_455 S
C655 C663 1.503 1_455 S
C656 C655 1.410 1_655 S
C656 C657 1.392 1_655 S
C656 C659 1.511 . S
C657 C653 1.376 . S
C657 C656 1.392 1_455 S
C657 H669 0.929 1_455 S
C658 C654 1.531 . S
C658 H670 0.960 . S
C658 H671 0.962 . S
C658 H672 0.960 . S
C659 C656 1.511 . S
C659 H673 0.961 . S
C659 H674 0.961 . S
C659 H675 0.961 . S
C660 C661 1.370 . S
C660 C662 1.363 . S
C660 H676 0.931 . S
C661 C660 1.370 . S
C661 C665 1.408 . S
C662 C660 1.363 . S
C662 C663 1.370 . S
C662 C666 1.524 . S
C663 C655 1.503 1_655 S
C663 C662 1.370 . S
C663 C664 1.403 . S
C664 C663 1.403 . S
C664 C665 1.404 . S
C664 C667 1.539 . S
C665 C661 1.408 . S
C665 C664 1.404 . S
C665 H677 0.930 . S
C666 C662 1.524 . S
C666 H678 0.956 1_655 S
C666 H679 0.961 . S
C666 H680 0.961 . S
C667 C664 1.539 . S
C667 H681 0.958 1_655 S
C667 H682 0.961 . S
C667 H683 0.960 . S
H668 C652 0.931 . S
H669 C657 0.929 1_655 S
H670 C658 0.960 . S
H671 C658 0.962 . S
H672 C658 0.960 . S
H673 C659 0.961 . S
H674 C659 0.961 . S
H675 C659 0.961 . S
H676 C660 0.931 . S
H677 C665 0.930 . S
H678 C666 0.956 1_455 S
H679 C666 0.961 . S
H680 C666 0.961 . S
H681 C667 0.958 1_455 S
H682 C667 0.961 . S
H683 C667 0.960 . S
C684 C685 1.391 . S
C684 C686 1.394 1_565 S
C684 H700 0.931 1_565 S
C685 C684 1.391 . S
C685 C689 1.376 . S
C686 C684 1.394 1_545 S
C686 C687 1.369 1_545 S
C686 C690 1.531 . S
C687 C686 1.369 1_565 S
C687 C688 1.410 . S
C687 C695 1.503 1_564 S
C688 C687 1.410 . S
C688 C689 1.392 . S
C688 C691 1.511 1_554 S
C689 C685 1.376 . S
C689 C688 1.392 . S
C689 H701 0.929 . S
C690 C686 1.531 . S
C690 H702 0.960 . S
C690 H703 0.962 . S
C690 H704 0.960 . S
C691 C688 1.511 1_556 S
C691 H705 0.961 . S
C691 H706 0.961 . S
C691 H707 0.961 . S
C692 C693 1.370 . S
C692 C694 1.363 . S
C692 H708 0.931 . S
C693 C692 1.370 . S
C693 C697 1.408 . S
C694 C692 1.363 . S
C694 C695 1.370 . S
C694 C698 1.523 . S
C695 C687 1.503 1_546 S
C695 C694 1.370 . S
C695 C696 1.403 . S
C696 C695 1.403 . S
C696 C697 1.404 . S
C696 C699 1.539 . S
C697 C693 1.408 . S
C697 C696 1.404 . S
C697 H709 0.930 . S
C698 C694 1.523 . S
C698 H710 0.960 1_556 S
C698 H711 0.954 1_545 S
C698 H712 0.964 . S
C699 C696 1.539 . S
C699 H713 0.958 . S
C699 H714 0.961 . S
C699 H715 0.960 1_545 S
H700 C684 0.931 1_545 S
H701 C689 0.929 . S
H702 C690 0.960 . S
H703 C690 0.962 . S
H704 C690 0.960 . S
H705 C691 0.961 . S
H706 C691 0.961 . S
H707 C691 0.961 . S
H708 C692 0.931 . S
H709 C697 0.930 . S
H710 C698 0.960 1_554 S
H711 C698 0.954 1_565 S
H712 C698 0.964 . S
H713 C699 0.958 . S
H714 C699 0.961 . S
H715 C699 0.960 1_565 S
C716 C717 1.391 . S
C716 C718 1.394 . S
C716 H732 0.931 . S
C717 C716 1.391 . S
C717 C721 1.376 . S
C718 C716 1.394 . S
C718 C719 1.369 . S
C718 C722 1.531 . S
C719 C718 1.369 . S
C719 C720 1.410 . S
C719 C727 1.503 . S
C720 C719 1.410 . S
C720 C721 1.392 . S
C720 C723 1.511 . S
C721 C717 1.376 . S
C721 C720 1.392 . S
C721 H733 0.929 . S
C722 C718 1.531 . S
C722 H734 0.960 . S
C722 H735 0.962 . S
C722 H736 0.960 . S
C723 C720 1.511 . S
C723 H737 0.961 . S
C723 H738 0.961 . S
C723 H739 0.961 . S
C724 C725 1.370 . S
C724 C726 1.363 . S
C724 H740 0.931 . S
C725 C724 1.370 . S
C725 C729 1.408 . S
C726 C724 1.363 . S
C726 C727 1.370 . S
C726 C730 1.524 . S
C727 C719 1.503 . S
C727 C726 1.370 . S
C727 C728 1.403 . S
C728 C727 1.403 . S
C728 C729 1.404 . S
C728 C731 1.539 . S
C729 C725 1.408 . S
C729 C728 1.404 . S
C729 H741 0.930 . S
C730 C726 1.524 . S
C730 H742 0.956 . S
C730 H743 0.961 . S
C730 H744 0.961 . S
C731 C728 1.539 . S
C731 H745 0.958 . S
C731 H746 0.961 . S
C731 H747 0.960 . S
H732 C716 0.931 . S
H733 C721 0.929 . S
H734 C722 0.960 . S
H735 C722 0.962 . S
H736 C722 0.960 . S
H737 C723 0.961 . S
H738 C723 0.961 . S
H739 C723 0.961 . S
H740 C724 0.931 . S
H741 C729 0.930 . S
H742 C730 0.956 . S
H743 C730 0.961 . S
H744 C730 0.961 . S
H745 C731 0.958 . S
H746 C731 0.961 . S
H747 C731 0.960 . S
C748 C749 1.391 . S
C748 C750 1.394 . S
C748 H764 0.931 . S
C749 C748 1.391 . S
C749 C753 1.376 . S
C750 C748 1.394 . S
C750 C751 1.369 . S
C750 C754 1.531 . S
C751 C750 1.369 . S
C751 C752 1.410 1_455 S
C751 C759 1.503 1_455 S
C752 C751 1.410 1_655 S
C752 C753 1.392 1_655 S
C752 C755 1.511 . S
C753 C749 1.376 . S
C753 C752 1.392 1_455 S
C753 H765 0.929 1_455 S
C754 C750 1.531 . S
C754 H766 0.960 . S
C754 H767 0.962 . S
C754 H768 0.960 . S
C755 C752 1.511 . S
C755 H769 0.961 . S
C755 H770 0.961 . S
C755 H771 0.961 . S
C756 C757 1.370 . S
C756 C758 1.363 . S
C756 H772 0.931 . S
C757 C756 1.370 . S
C757 C761 1.408 . S
C758 C756 1.363 . S
C758 C759 1.370 . S
C758 C762 1.524 1_655 S
C759 C751 1.503 1_655 S
C759 C758 1.370 . S
C759 C760 1.403 . S
C760 C759 1.403 . S
C760 C761 1.404 . S
C760 C763 1.539 . S
C761 C757 1.408 . S
C761 C760 1.404 . S
C761 H773 0.930 . S
C762 C758 1.524 1_455 S
C762 H774 0.956 . S
C762 H775 0.961 . S
C762 H776 0.961 . S
C763 C760 1.539 . S
C763 H777 0.958 . S
C763 H778 0.961 . S
C763 H779 0.960 . S
H764 C748 0.931 . S
H765 C753 0.929 1_655 S
H766 C754 0.960 . S
H767 C754 0.962 . S
H768 C754 0.960 . S
H769 C755 0.961 . S
H770 C755 0.961 . S
H771 C755 0.961 . S
H772 C756 0.931 . S
H773 C761 0.930 . S
H774 C762 0.956 . S
H775 C762 0.961 . S
H776 C762 0.961 . S
H777 C763 0.958 . S
H778 C763 0.961 . S
H779 C763 0.960 . S
C780 C781 1.391 . S
C780 C782 1.394 . S
C780 H796 0.931 . S
C781 C780 1.391 . S
C781 C785 1.376 . S
C782 C780 1.394 . S
C782 C783 1.369 . S
C782 C786 1.531 1_545 S
C783 C782 1.369 . S
C783 C784 1.410 . S
C783 C791 1.503 1_445 S
C784 C783 1.410 . S
C784 C785 1.392 . S
C784 C787 1.511 . S
C785 C781 1.376 . S
C785 C784 1.392 . S
C785 H797 0.929 . S
C786 C782 1.531 1_565 S
C786 H798 0.960 . S
C786 H799 0.962 . S
C786 H800 0.960 . S
C787 C784 1.511 . S
C787 H801 0.961 . S
C787 H802 0.961 1_455 S
C787 H803 0.961 . S
C788 C789 1.370 . S
C788 C790 1.363 . S
C788 H804 0.931 . S
C789 C788 1.370 . S
C789 C793 1.408 . S
C790 C788 1.363 . S
C790 C791 1.370 . S
C790 C794 1.524 . S
C791 C783 1.503 1_665 S
C791 C790 1.370 . S
C791 C792 1.403 . S
C792 C791 1.403 . S
C792 C793 1.404 . S
C792 C795 1.540 . S
C793 C789 1.408 . S
C793 C792 1.404 . S
C793 H805 0.930 . S
C794 C790 1.524 . S
C794 H806 0.956 1_655 S
C794 H807 0.961 1_665 S
C794 H808 0.961 . S
C795 C792 1.540 . S
C795 H809 0.960 . S
C795 H810 0.960 1_565 S
C795 H811 0.958 1_565 S
H796 C780 0.931 . S
H797 C785 0.929 . S
H798 C786 0.960 . S
H799 C786 0.962 . S
H800 C786 0.960 . S
H801 C787 0.961 . S
H802 C787 0.961 1_655 S
H803 C787 0.961 . S
H804 C788 0.931 . S
H805 C793 0.930 . S
H806 C794 0.956 1_455 S
H807 C794 0.961 1_445 S
H808 C794 0.961 . S
H809 C795 0.960 . S
H810 C795 0.960 1_545 S
H811 C795 0.958 1_545 S
C812 C813 1.391 1_655 S
C812 C814 1.394 . S
C812 H828 0.931 . S
C813 C812 1.391 1_455 S
C813 C817 1.376 . S
C814 C812 1.394 . S
C814 C815 1.369 1_655 S
C814 C818 1.531 . S
C815 C814 1.369 1_455 S
C815 C816 1.410 . S
C815 C823 1.503 1_445 S
C816 C815 1.410 . S
C816 C817 1.392 . S
C816 C819 1.511 . S
C817 C813 1.376 . S
C817 C816 1.392 . S
C817 H829 0.929 . S
C818 C814 1.531 . S
C818 H830 0.960 1_545 S
C818 H831 0.962 1_545 S
C818 H832 0.960 . S
C819 C816 1.511 . S
C819 H833 0.961 . S
C819 H834 0.961 . S
C819 H835 0.961 . S
C820 C821 1.370 . S
C820 C822 1.363 . S
C820 H836 0.931 . S
C821 C820 1.370 . S
C821 C825 1.408 . S
C822 C820 1.363 . S
C822 C823 1.370 . S
C822 C826 1.524 1_655 S
C823 C815 1.503 1_665 S
C823 C822 1.370 . S
C823 C824 1.403 . S
C824 C823 1.403 . S
C824 C825 1.404 . S
C824 C827 1.539 . S
C825 C821 1.408 . S
C825 C824 1.404 . S
C825 H837 0.930 . S
C826 C822 1.524 1_455 S
C826 H838 0.956 1_455 S
C826 H839 0.961 1_565 S
C826 H840 0.958 . S
C827 C824 1.539 . S
C827 H841 0.958 . S
C827 H842 0.961 . S
C827 H843 0.944 1_665 S
H828 C812 0.931 . S
H829 C817 0.929 . S
H830 C818 0.960 1_565 S
H831 C818 0.962 1_565 S
H832 C818 0.960 . S
H833 C819 0.961 . S
H834 C819 0.961 . S
H835 C819 0.961 . S
H836 C820 0.931 . S
H837 C825 0.930 . S
H838 C826 0.956 1_655 S
H839 C826 0.961 1_545 S
H840 C826 0.958 . S
H841 C827 0.958 . S
H842 C827 0.961 . S
H843 C827 0.944 1_445 S
C844 C845 1.391 . S
C844 C846 1.394 . S
C844 H860 0.931 . S
C845 C844 1.391 . S
C845 C849 1.391 . S
C846 C844 1.394 . S
C846 C847 1.369 . S
C846 C850 1.531 1_655 S
C847 C846 1.369 . S
C847 C848 1.410 1_545 S
C847 C855 1.503 1_645 S
C848 C847 1.410 1_565 S
C848 C849 1.378 1_565 S
C848 C851 1.511 . S
C849 C845 1.391 . S
C849 C848 1.378 1_545 S
C849 H861 0.929 1_545 S
C850 C846 1.531 1_455 S
C850 H862 0.960 . S
C850 H863 0.962 . S
C850 H864 0.960 . S
C851 C848 1.511 . S
C851 H865 0.961 . S
C851 H866 0.961 . S
C851 H867 0.961 . S
C852 C853 1.370 . S
C852 C854 1.363 1_565 S
C852 H868 0.931 1_565 S
C853 C852 1.370 . S
C853 C857 1.408 . S
C854 C852 1.363 1_545 S
C854 C855 1.370 1_545 S
C854 C858 1.524 . S
C855 C847 1.503 1_465 S
C855 C854 1.370 1_565 S
C855 C856 1.403 . S
C856 C855 1.403 . S
C856 C857 1.404 . S
C856 C859 1.539 1_455 S
C857 C853 1.408 . S
C857 C856 1.404 . S
C857 H869 0.930 . S
C858 C854 1.524 . S
C858 H870 0.956 . S
C858 H871 0.961 . S
C858 H872 0.961 . S
C859 C856 1.539 1_655 S
C859 H873 0.958 . S
C859 H874 0.961 . S
C859 H875 0.960 . S
H860 C844 0.931 . S
H861 C849 0.929 1_565 S
H862 C850 0.960 . S
H863 C850 0.962 . S
H864 C850 0.960 . S
H865 C851 0.961 . S
H866 C851 0.961 . S
H867 C851 0.961 . S
H868 C852 0.931 1_545 S
H869 C857 0.930 . S
H870 C858 0.956 . S
H871 C858 0.961 . S
H872 C858 0.961 . S
H873 C859 0.958 . S
H874 C859 0.961 . S
H875 C859 0.960 . S
C876 C877 1.391 . S
C876 C878 1.394 . S
C876 H892 0.931 . S
C877 C876 1.391 . S
C877 C881 1.376 . S
C878 C876 1.394 . S
C878 C879 1.369 . S
C878 C882 1.531 1_655 S
C879 C878 1.369 . S
C879 C880 1.410 . S
C879 C887 1.503 1_665 S
C880 C879 1.410 . S
C880 C881 1.392 . S
C880 C883 1.511 . S
C881 C877 1.376 . S
C881 C880 1.392 . S
C881 H893 0.929 . S
C882 C878 1.531 1_455 S
C882 H894 0.960 . S
C882 H895 0.962 . S
C882 H896 0.960 . S
C883 C880 1.511 . S
C883 H897 0.961 . S
C883 H898 0.961 1_565 S
C883 H899 0.974 . S
C884 C885 1.370 . S
C884 C886 1.363 . S
C884 H900 0.931 . S
C885 C884 1.370 . S
C885 C889 1.408 . S
C886 C884 1.363 . S
C886 C887 1.370 . S
C886 C890 1.524 . S
C887 C879 1.503 1_445 S
C887 C886 1.370 . S
C887 C888 1.403 . S
C888 C887 1.403 . S
C888 C889 1.404 . S
C888 C891 1.539 1_455 S
C889 C885 1.408 . S
C889 C888 1.404 . S
C889 H901 0.930 . S
C890 C886 1.524 . S
C890 H902 0.956 1_545 S
C890 H903 0.961 1_545 S
C890 H904 0.961 . S
C891 C888 1.539 1_655 S
C891 H905 0.958 . S
C891 H906 0.961 . S
C891 H907 0.960 . S
H892 C876 0.931 . S
H893 C881 0.929 . S
H894 C882 0.960 . S
H895 C882 0.962 . S
H896 C882 0.960 . S
H897 C883 0.961 . S
H898 C883 0.961 1_545 S
H899 C883 0.974 . S
H900 C884 0.931 . S
H901 C889 0.930 . S
H902 C890 0.956 1_565 S
H903 C890 0.961 1_565 S
H904 C890 0.961 . S
H905 C891 0.958 . S
H906 C891 0.961 . S
H907 C891 0.960 . S
C908 C909 1.391 . S
C908 C910 1.394 . S
C908 H924 0.931 . S
C909 C908 1.391 . S
C909 C913 1.376 1_455 S
C910 C908 1.394 . S
C910 C911 1.369 . S
C910 C914 1.531 1_565 S
C911 C910 1.369 . S
C911 C912 1.410 1_455 S
C911 C919 1.503 1_465 S
C912 C911 1.410 1_655 S
C912 C913 1.392 . S
C912 C915 1.511 . S
C913 C909 1.376 1_655 S
C913 C912 1.392 . S
C913 H925 0.929 . S
C914 C910 1.531 1_545 S
C914 H926 0.960 . S
C914 H927 0.962 . S
C914 H928 0.960 . S
C915 C912 1.511 . S
C915 H929 0.961 . S
C915 H930 0.961 . S
C915 H931 0.961 . S
C916 C917 1.370 . S
C916 C918 1.363 1_655 S
C916 H932 0.931 . S
C917 C916 1.370 . S
C917 C921 1.408 . S
C918 C916 1.363 1_455 S
C918 C919 1.370 1_455 S
C918 C922 1.524 . S
C919 C911 1.503 1_645 S
C919 C918 1.370 1_655 S
C919 C920 1.403 . S
C920 C919 1.403 . S
C920 C921 1.404 . S
C920 C923 1.539 1_545 S
C921 C917 1.408 . S
C921 C920 1.404 . S
C921 H933 0.930 . S
C922 C918 1.524 . S
C922 H934 0.956 . S
C922 H935 0.961 . S
C922 H936 0.961 . S
C923 C920 1.539 1_565 S
C923 H937 0.958 . S
C923 H938 0.961 . S
C923 H939 0.960 . S
H924 C908 0.931 . S
H925 C913 0.929 . S
H926 C914 0.960 . S
H927 C914 0.962 . S
H928 C914 0.960 . S
H929 C915 0.961 . S
H930 C915 0.961 . S
H931 C915 0.961 . S
H932 C916 0.931 . S
H933 C921 0.930 . S
H934 C922 0.956 . S
H935 C922 0.961 . S
H936 C922 0.961 . S
H937 C923 0.958 . S
H938 C923 0.961 . S
H939 C923 0.960 . S
C940 C941 1.391 1_565 S
C940 C942 1.394 . S
C940 H956 0.931 . S
C941 C940 1.391 1_545 S
C941 C945 1.376 . S
C942 C940 1.394 . S
C942 C943 1.369 1_565 S
C942 C946 1.531 . S
C943 C942 1.369 1_545 S
C943 C944 1.410 . S
C943 C951 1.503 1_445 S
C944 C943 1.410 . S
C944 C945 1.392 . S
C944 C947 1.511 . S
C945 C941 1.376 . S
C945 C944 1.392 . S
C945 H957 0.929 . S
C946 C942 1.531 . S
C946 H958 0.960 1_455 S
C946 H959 0.959 1_455 S
C946 H960 0.960 . S
C947 C944 1.511 . S
C947 H961 0.961 . S
C947 H962 0.961 . S
C947 H963 0.961 . S
C948 C949 1.370 . S
C948 C950 1.363 . S
C948 H964 0.931 . S
C949 C948 1.370 . S
C949 C953 1.408 . S
C950 C948 1.363 . S
C950 C951 1.370 . S
C950 C954 1.524 1_565 S
C951 C943 1.503 1_665 S
C951 C950 1.370 . S
C951 C952 1.403 . S
C952 C951 1.403 . S
C952 C953 1.404 . S
C952 C955 1.539 . S
C953 C949 1.408 . S
C953 C952 1.404 . S
C953 H965 0.930 . S
C954 C950 1.524 1_545 S
C954 H966 0.956 1_545 S
C954 H967 0.961 1_655 S
C954 H968 0.961 . S
C955 C952 1.539 . S
C955 H969 0.958 . S
C955 H970 0.961 . S
C955 H971 0.946 1_665 S
H956 C940 0.931 . S
H957 C945 0.929 . S
H958 C946 0.960 1_655 S
H959 C946 0.959 1_655 S
H960 C946 0.960 . S
H961 C947 0.961 . S
H962 C947 0.961 . S
H963 C947 0.961 . S
H964 C948 0.931 . S
H965 C953 0.930 . S
H966 C954 0.956 1_565 S
H967 C954 0.961 1_455 S
H968 C954 0.961 . S
H969 C955 0.958 . S
H970 C955 0.961 . S
H971 C955 0.946 1_445 S
C972 C973 1.393 . S
C972 C974 1.423 . S
C972 H988 0.931 . S
C973 C972 1.393 . S
C973 C977 1.388 . S
C974 C972 1.423 . S
C974 C975 1.374 . S
C974 C978 1.497 1_556 S
C975 C974 1.374 . S
C975 C976 1.410 . S
C975 C983 1.503 1_556 S
C976 C975 1.410 . S
C976 C977 1.392 . S
C976 C979 1.511 . S
C977 C973 1.388 . S
C977 C976 1.392 . S
C977 H989 0.929 1_455 S
C978 C974 1.497 1_554 S
C978 H990 0.960 . S
C978 H991 0.962 . S
C978 H992 0.960 . S
C979 C976 1.511 . S
C979 H993 0.961 . S
C979 H994 0.961 . S
C979 H995 0.961 . S
C980 C981 1.370 . S
C980 C982 1.389 . S
C980 H996 0.931 . S
C981 C980 1.370 . S
C981 C985 1.408 . S
C982 C980 1.389 . S
C982 C983 1.390 . S
C982 C986 1.481 1_554 S
C983 C975 1.503 1_554 S
C983 C982 1.390 . S
C983 C984 1.403 . S
C984 C983 1.403 . S
C984 C985 1.404 . S
C984 C987 1.539 . S
C985 C981 1.408 . S
C985 C984 1.404 . S
C985 H997 0.930 . S
C986 C982 1.481 1_556 S
C986 H998 0.956 . S
C986 H999 0.961 . S
C986 H1000 0.961 . S
C987 C984 1.539 . S
C987 H1001 0.958 . S
C987 H1002 0.961 . S
C987 H1003 0.960 . S
H988 C972 0.931 . S
H989 C977 0.929 1_655 S
H990 C978 0.960 . S
H991 C978 0.962 . S
H992 C978 0.960 . S
H993 C979 0.961 . S
H994 C979 0.961 . S
H995 C979 0.961 . S
H996 C980 0.931 . S
H997 C985 0.930 . S
H998 C986 0.956 . S
H999 C986 0.961 . S
H1000 C986 0.961 . S
H1001 C987 0.958 . S
H1002 C987 0.961 . S
H1003 C987 0.960 . S
C1004 C1005 1.391 . S
C1004 C1006 1.394 . S
C1004 H1020 0.931 . S
C1005 C1004 1.391 . S
C1005 C1009 1.376 . S
C1006 C1004 1.394 . S
C1006 C1007 1.369 . S
C1006 C1010 1.531 . S
C1007 C1006 1.369 . S
C1007 C1008 1.410 . S
C1007 C1015 1.503 . S
C1008 C1007 1.410 . S
C1008 C1009 1.392 . S
C1008 C1011 1.511 . S
C1009 C1005 1.376 . S
C1009 C1008 1.392 . S
C1009 H1021 0.929 1_655 S
C1010 C1006 1.531 . S
C1010 H1022 0.960 . S
C1010 H1023 0.962 . S
C1010 H1024 0.960 . S
C1011 C1008 1.511 . S
C1011 H1025 0.961 . S
C1011 H1026 0.961 . S
C1011 H1027 0.961 . S
C1012 C1013 1.370 . S
C1012 C1014 1.363 . S
C1012 H1028 0.931 1_545 S
C1013 C1012 1.370 . S
C1013 C1017 1.408 . S
C1014 C1012 1.363 . S
C1014 C1015 1.370 . S
C1014 C1018 1.524 . S
C1015 C1007 1.503 . S
C1015 C1014 1.370 . S
C1015 C1016 1.403 . S
C1016 C1015 1.403 . S
C1016 C1017 1.404 . S
C1016 C1019 1.539 . S
C1017 C1013 1.408 . S
C1017 C1016 1.404 . S
C1017 H1029 0.930 . S
C1018 C1014 1.524 . S
C1018 H1030 0.956 . S
C1018 H1031 0.961 . S
C1018 H1032 0.961 . S
C1019 C1016 1.539 . S
C1019 H1033 0.958 . S
C1019 H1034 0.961 . S
C1019 H1035 0.960 . S
H1020 C1004 0.931 . S
H1021 C1009 0.929 1_455 S
H1022 C1010 0.960 . S
H1023 C1010 0.962 . S
H1024 C1010 0.960 . S
H1025 C1011 0.961 . S
H1026 C1011 0.961 . S
H1027 C1011 0.961 . S
H1028 C1012 0.931 1_565 S
H1029 C1017 0.930 . S
H1030 C1018 0.956 . S
H1031 C1018 0.961 . S
H1032 C1018 0.961 . S
H1033 C1019 0.958 . S
H1034 C1019 0.961 . S
H1035 C1019 0.960 . S
C1036 C1037 1.391 . S
C1036 C1038 1.394 . S
C1036 H1052 0.931 . S
C1037 C1036 1.391 . S
C1037 C1041 1.376 . S
C1038 C1036 1.394 . S
C1038 C1039 1.369 . S
C1038 C1042 1.531 . S
C1039 C1038 1.369 . S
C1039 C1040 1.410 . S
C1039 C1047 1.503 . S
C1040 C1039 1.410 . S
C1040 C1041 1.392 . S
C1040 C1043 1.511 . S
C1041 C1037 1.376 . S
C1041 C1040 1.392 . S
C1041 H1053 0.929 . S
C1042 C1038 1.531 . S
C1042 H1054 0.960 . S
C1042 H1055 0.962 . S
C1042 H1056 0.960 . S
C1043 C1040 1.511 . S
C1043 H1057 0.961 . S
C1043 H1058 0.961 . S
C1043 H1059 0.961 . S
C1044 C1045 1.371 1_545 S
C1044 C1046 1.358 1_545 S
C1044 H1060 0.936 . S
C1045 C1044 1.371 1_565 S
C1045 C1049 1.408 . S
C1046 C1044 1.358 1_565 S
C1046 C1047 1.370 . S
C1046 C1050 1.524 . S
C1047 C1039 1.503 . S
C1047 C1046 1.370 . S
C1047 C1048 1.403 . S
C1048 C1047 1.403 . S
C1048 C1049 1.404 . S
C1048 C1051 1.539 . S
C1049 C1045 1.408 . S
C1049 C1048 1.404 . S
C1049 H1061 0.930 . S
C1050 C1046 1.524 . S
C1050 H1062 0.956 . S
C1050 H1063 0.961 . S
C1050 H1064 0.961 1_565 S
C1051 C1048 1.539 . S
C1051 H1065 0.958 . S
C1051 H1066 0.961 . S
C1051 H1067 0.960 . S
H1052 C1036 0.931 . S
H1053 C1041 0.929 . S
H1054 C1042 0.960 . S
H1055 C1042 0.962 . S
H1056 C1042 0.960 . S
H1057 C1043 0.961 . S
H1058 C1043 0.961 . S
H1059 C1043 0.961 . S
H1060 C1044 0.936 . S
H1061 C1049 0.930 . S
H1062 C1050 0.956 . S
H1063 C1050 0.961 . S
H1064 C1050 0.961 1_545 S
H1065 C1051 0.958 . S
H1066 C1051 0.961 . S
H1067 C1051 0.960 . S
C1068 C1069 1.391 . S
C1068 C1070 1.394 . S
C1068 H1084 0.931 . S
C1069 C1068 1.391 . S
C1069 C1073 1.376 . S
C1070 C1068 1.394 . S
C1070 C1071 1.369 . S
C1070 C1074 1.531 . S
C1071 C1070 1.369 . S
C1071 C1072 1.410 1_554 S
C1071 C1079 1.503 1_554 S
C1072 C1071 1.410 1_556 S
C1072 C1073 1.392 1_556 S
C1072 C1075 1.511 . S
C1073 C1069 1.376 . S
C1073 C1072 1.392 1_554 S
C1073 H1085 0.929 . S
C1074 C1070 1.531 . S
C1074 H1086 0.960 . S
C1074 H1087 0.962 . S
C1074 H1088 0.960 . S
C1075 C1072 1.511 . S
C1075 H1089 0.961 . S
C1075 H1090 0.961 . S
C1075 H1091 0.961 . S
C1076 C1077 1.370 . S
C1076 C1078 1.363 . S
C1076 H1092 0.931 1_655 S
C1077 C1076 1.370 . S
C1077 C1081 1.408 . S
C1078 C1076 1.363 . S
C1078 C1079 1.370 . S
C1078 C1082 1.524 1_556 S
C1079 C1071 1.503 1_556 S
C1079 C1078 1.370 . S
C1079 C1080 1.403 . S
C1080 C1079 1.403 . S
C1080 C1081 1.404 . S
C1080 C1083 1.539 . S
C1081 C1077 1.408 . S
C1081 C1080 1.404 . S
C1081 H1093 0.930 . S
C1082 C1078 1.524 1_554 S
C1082 H1094 0.956 . S
C1082 H1095 0.958 1_554 S
C1082 H1096 0.958 1_655 S
C1083 C1080 1.539 . S
C1083 H1097 0.958 . S
C1083 H1098 0.961 . S
C1083 H1099 0.960 . S
H1084 C1068 0.931 . S
H1085 C1073 0.929 . S
H1086 C1074 0.960 . S
H1087 C1074 0.962 . S
H1088 C1074 0.960 . S
H1089 C1075 0.961 . S
H1090 C1075 0.961 . S
H1091 C1075 0.961 . S
H1092 C1076 0.931 1_455 S
H1093 C1081 0.930 . S
H1094 C1082 0.956 . S
H1095 C1082 0.958 1_556 S
H1096 C1082 0.958 1_455 S
H1097 C1083 0.958 . S
H1098 C1083 0.961 . S
H1099 C1083 0.960 . S
C1100 C1101 1.391 . S
C1100 C1102 1.394 . S
C1100 H1116 0.931 . S
C1101 C1100 1.391 . S
C1101 C1105 1.376 1_565 S
C1102 C1100 1.394 . S
C1102 C1103 1.369 . S
C1102 C1106 1.531 . S
C1103 C1102 1.369 . S
C1103 C1104 1.410 . S
C1103 C1111 1.503 . S
C1104 C1103 1.410 . S
C1104 C1105 1.392 1_565 S
C1104 C1107 1.511 . S
C1105 C1101 1.376 1_545 S
C1105 C1104 1.392 1_545 S
C1105 H1117 0.929 . S
C1106 C1102 1.531 . S
C1106 H1118 0.960 . S
C1106 H1119 0.962 . S
C1106 H1120 0.960 . S
C1107 C1104 1.511 . S
C1107 H1121 0.961 . S
C1107 H1122 0.961 . S
C1107 H1123 0.961 . S
C1108 C1109 1.370 . S
C1108 C1110 1.363 . S
C1108 H1124 0.931 1_455 S
C1109 C1108 1.370 . S
C1109 C1113 1.408 . S
C1110 C1108 1.363 . S
C1110 C1111 1.370 . S
C1110 C1114 1.524 . S
C1111 C1103 1.503 . S
C1111 C1110 1.370 . S
C1111 C1112 1.403 . S
C1112 C1111 1.403 . S
C1112 C1113 1.404 . S
C1112 C1115 1.539 . S
C1113 C1109 1.408 . S
C1113 C1112 1.404 . S
C1113 H1125 0.930 . S
C1114 C1110 1.524 . S
C1114 H1126 0.956 . S
C1114 H1127 0.961 . S
C1114 H1128 0.961 . S
C1115 C1112 1.539 . S
C1115 H1129 0.958 . S
C1115 H1130 0.961 . S
C1115 H1131 0.960 . S
H1116 C1100 0.931 . S
H1117 C1105 0.929 . S
H1118 C1106 0.960 . S
H1119 C1106 0.962 . S
H1120 C1106 0.960 . S
H1121 C1107 0.961 . S
H1122 C1107 0.961 . S
H1123 C1107 0.961 . S
H1124 C1108 0.931 1_655 S
H1125 C1113 0.930 . S
H1126 C1114 0.956 . S
H1127 C1114 0.961 . S
H1128 C1114 0.961 . S
H1129 C1115 0.958 . S
H1130 C1115 0.961 . S
H1131 C1115 0.960 . S
C1132 C1133 1.391 1_565 S
C1132 C1134 1.394 1_565 S
C1132 H1148 0.931 . S
C1133 C1132 1.391 1_545 S
C1133 C1137 1.376 . S
C1134 C1132 1.394 1_545 S
C1134 C1135 1.369 . S
C1134 C1138 1.531 . S
C1135 C1134 1.369 . S
C1135 C1136 1.410 . S
C1135 C1143 1.503 . S
C1136 C1135 1.410 . S
C1136 C1137 1.392 . S
C1136 C1139 1.511 . S
C1137 C1133 1.376 . S
C1137 C1136 1.392 . S
C1137 H1149 0.929 . S
C1138 C1134 1.531 . S
C1138 H1150 0.960 . S
C1138 H1151 0.962 . S
C1138 H1152 0.960 1_545 S
C1139 C1136 1.511 . S
C1139 H1153 0.961 . S
C1139 H1154 0.961 . S
C1139 H1155 0.961 . S
C1140 C1141 1.370 . S
C1140 C1142 1.363 . S
C1140 H1156 0.931 . S
C1141 C1140 1.370 . S
C1141 C1145 1.408 . S
C1142 C1140 1.363 . S
C1142 C1143 1.370 . S
C1142 C1146 1.524 . S
C1143 C1135 1.503 . S
C1143 C1142 1.370 . S
C1143 C1144 1.403 . S
C1144 C1143 1.403 . S
C1144 C1145 1.404 . S
C1144 C1147 1.539 . S
C1145 C1141 1.408 . S
C1145 C1144 1.404 . S
C1145 H1157 0.930 . S
C1146 C1142 1.524 . S
C1146 H1158 0.956 . S
C1146 H1159 0.961 . S
C1146 H1160 0.961 . S
C1147 C1144 1.539 . S
C1147 H1161 0.958 . S
C1147 H1162 0.961 . S
C1147 H1163 0.960 . S
H1148 C1132 0.931 . S
H1149 C1137 0.929 . S
H1150 C1138 0.960 . S
H1151 C1138 0.962 . S
H1152 C1138 0.960 1_565 S
H1153 C1139 0.961 . S
H1154 C1139 0.961 . S
H1155 C1139 0.961 . S
H1156 C1140 0.931 . S
H1157 C1145 0.930 . S
H1158 C1146 0.956 . S
H1159 C1146 0.961 . S
H1160 C1146 0.961 . S
H1161 C1147 0.958 . S
H1162 C1147 0.961 . S
H1163 C1147 0.960 . S
C1164 C1165 1.391 . S
C1164 C1166 1.394 . S
C1164 H1180 0.931 . S
C1165 C1164 1.391 . S
C1165 C1169 1.376 . S
C1166 C1164 1.394 . S
C1166 C1167 1.369 . S
C1166 C1170 1.531 . S
C1167 C1166 1.369 . S
C1167 C1168 1.410 . S
C1167 C1175 1.503 . S
C1168 C1167 1.410 . S
C1168 C1169 1.392 . S
C1168 C1171 1.511 . S
C1169 C1165 1.376 . S
C1169 C1168 1.392 . S
C1169 H1181 0.929 . S
C1170 C1166 1.531 . S
C1170 H1182 0.960 . S
C1170 H1183 0.962 . S
C1170 H1184 0.960 . S
C1171 C1168 1.511 . S
C1171 H1185 0.961 . S
C1171 H1186 0.961 . S
C1171 H1187 0.961 . S
C1172 C1173 1.370 . S
C1172 C1174 1.363 . S
C1172 H1188 0.931 . S
C1173 C1172 1.370 . S
C1173 C1177 1.408 . S
C1174 C1172 1.363 . S
C1174 C1175 1.370 . S
C1174 C1178 1.524 . S
C1175 C1167 1.503 . S
C1175 C1174 1.370 . S
C1175 C1176 1.403 . S
C1176 C1175 1.403 . S
C1176 C1177 1.404 . S
C1176 C1179 1.539 . S
C1177 C1173 1.408 . S
C1177 C1176 1.404 . S
C1177 H1189 0.930 . S
C1178 C1174 1.524 . S
C1178 H1190 0.956 . S
C1178 H1191 0.961 . S
C1178 H1192 0.961 . S
C1179 C1176 1.539 . S
C1179 H1193 0.958 . S
C1179 H1194 0.961 . S
C1179 H1195 0.960 . S
H1180 C1164 0.931 . S
H1181 C1169 0.929 . S
H1182 C1170 0.960 . S
H1183 C1170 0.962 . S
H1184 C1170 0.960 . S
H1185 C1171 0.961 . S
H1186 C1171 0.961 . S
H1187 C1171 0.961 . S
H1188 C1172 0.931 . S
H1189 C1177 0.930 . S
H1190 C1178 0.956 . S
H1191 C1178 0.961 . S
H1192 C1178 0.961 . S
H1193 C1179 0.958 . S
H1194 C1179 0.961 . S
H1195 C1179 0.960 . S
C1196 C1197 1.391 . S
C1196 C1198 1.394 . S
C1196 H1212 0.931 . S
C1197 C1196 1.391 . S
C1197 C1201 1.376 . S
C1198 C1196 1.394 . S
C1198 C1199 1.369 . S
C1198 C1202 1.531 . S
C1199 C1198 1.369 . S
C1199 C1200 1.410 . S
C1199 C1207 1.503 . S
C1200 C1199 1.410 . S
C1200 C1201 1.392 . S
C1200 C1203 1.511 . S
C1201 C1197 1.376 . S
C1201 C1200 1.392 . S
C1201 H1213 0.929 . S
C1202 C1198 1.531 . S
C1202 H1214 0.960 . S
C1202 H1215 0.962 . S
C1202 H1216 0.960 . S
C1203 C1200 1.511 . S
C1203 H1217 0.961 . S
C1203 H1218 0.961 . S
C1203 H1219 0.961 . S
C1204 C1205 1.370 . S
C1204 C1206 1.363 . S
C1204 H1220 0.931 . S
C1205 C1204 1.370 . S
C1205 C1209 1.408 . S
C1206 C1204 1.363 . S
C1206 C1207 1.370 . S
C1206 C1210 1.524 . S
C1207 C1199 1.503 . S
C1207 C1206 1.370 . S
C1207 C1208 1.403 . S
C1208 C1207 1.403 . S
C1208 C1209 1.404 . S
C1208 C1211 1.539 . S
C1209 C1205 1.408 . S
C1209 C1208 1.404 . S
C1209 H1221 0.930 . S
C1210 C1206 1.524 . S
C1210 H1222 0.956 . S
C1210 H1223 0.961 . S
C1210 H1224 0.961 . S
C1211 C1208 1.539 . S
C1211 H1225 0.958 . S
C1211 H1226 0.961 . S
C1211 H1227 0.960 . S
H1212 C1196 0.931 . S
H1213 C1201 0.929 . S
H1214 C1202 0.960 . S
H1215 C1202 0.962 . S
H1216 C1202 0.960 . S
H1217 C1203 0.961 . S
H1218 C1203 0.961 . S
H1219 C1203 0.961 . S
H1220 C1204 0.931 . S
H1221 C1209 0.930 . S
H1222 C1210 0.956 . S
H1223 C1210 0.961 . S
H1224 C1210 0.961 . S
H1225 C1211 0.958 . S
H1226 C1211 0.961 . S
H1227 C1211 0.960 . S
C1228 C1229 1.391 . S
C1228 C1230 1.394 . S
C1228 H1244 0.931 . S
C1229 C1228 1.391 . S
C1229 C1233 1.376 . S
C1230 C1228 1.394 . S
C1230 C1231 1.369 . S
C1230 C1234 1.531 . S
C1231 C1230 1.369 . S
C1231 C1232 1.410 . S
C1231 C1239 1.503 . S
C1232 C1231 1.410 . S
C1232 C1233 1.392 . S
C1232 C1235 1.511 . S
C1233 C1229 1.376 . S
C1233 C1232 1.392 . S
C1233 H1245 0.929 . S
C1234 C1230 1.531 . S
C1234 H1246 0.960 . S
C1234 H1247 0.962 . S
C1234 H1248 0.960 . S
C1235 C1232 1.511 . S
C1235 H1249 0.961 . S
C1235 H1250 0.961 . S
C1235 H1251 0.961 . S
C1236 C1237 1.370 . S
C1236 C1238 1.363 . S
C1236 H1252 0.931 . S
C1237 C1236 1.370 . S
C1237 C1241 1.408 . S
C1238 C1236 1.363 . S
C1238 C1239 1.370 . S
C1238 C1242 1.524 . S
C1239 C1231 1.503 . S
C1239 C1238 1.370 . S
C1239 C1240 1.403 . S
C1240 C1239 1.403 . S
C1240 C1241 1.404 . S
C1240 C1243 1.539 . S
C1241 C1237 1.408 . S
C1241 C1240 1.404 . S
C1241 H1253 0.930 . S
C1242 C1238 1.524 . S
C1242 H1254 0.956 . S
C1242 H1255 0.961 . S
C1242 H1256 0.961 . S
C1243 C1240 1.539 . S
C1243 H1257 0.958 . S
C1243 H1258 0.961 . S
C1243 H1259 0.960 . S
H1244 C1228 0.931 . S
H1245 C1233 0.929 . S
H1246 C1234 0.960 . S
H1247 C1234 0.962 . S
H1248 C1234 0.960 . S
H1249 C1235 0.961 . S
H1250 C1235 0.961 . S
H1251 C1235 0.961 . S
H1252 C1236 0.931 . S
H1253 C1241 0.930 . S
H1254 C1242 0.956 . S
H1255 C1242 0.961 . S
H1256 C1242 0.961 . S
H1257 C1243 0.958 . S
H1258 C1243 0.961 . S
H1259 C1243 0.960 . S
C1260 C1261 1.391 . S
C1260 C1262 1.394 . S
C1260 H1276 0.931 . S
C1261 C1260 1.391 . S
C1261 C1265 1.376 . S
C1262 C1260 1.394 . S
C1262 C1263 1.369 . S
C1262 C1266 1.531 . S
C1263 C1262 1.369 . S
C1263 C1264 1.410 . S
C1263 C1271 1.503 . S
C1264 C1263 1.410 . S
C1264 C1265 1.392 . S
C1264 C1267 1.511 . S
C1265 C1261 1.376 . S
C1265 C1264 1.392 . S
C1265 H1277 0.929 . S
C1266 C1262 1.531 . S
C1266 H1278 0.960 . S
C1266 H1279 0.962 . S
C1266 H1280 0.960 . S
C1267 C1264 1.511 . S
C1267 H1281 0.961 . S
C1267 H1282 0.961 . S
C1267 H1283 0.961 . S
C1268 C1269 1.370 . S
C1268 C1270 1.363 . S
C1268 H1284 0.931 . S
C1269 C1268 1.370 . S
C1269 C1273 1.408 . S
C1270 C1268 1.363 . S
C1270 C1271 1.370 . S
C1270 C1274 1.524 . S
C1271 C1263 1.503 . S
C1271 C1270 1.370 . S
C1271 C1272 1.403 . S
C1272 C1271 1.403 . S
C1272 C1273 1.404 . S
C1272 C1275 1.539 . S
C1273 C1269 1.408 . S
C1273 C1272 1.404 . S
C1273 H1285 0.930 . S
C1274 C1270 1.524 . S
C1274 H1286 0.956 . S
C1274 H1287 0.961 . S
C1274 H1288 0.961 . S
C1275 C1272 1.539 . S
C1275 H1289 0.958 . S
C1275 H1290 0.961 . S
C1275 H1291 0.960 . S
H1276 C1260 0.931 . S
H1277 C1265 0.929 . S
H1278 C1266 0.960 . S
H1279 C1266 0.962 . S
H1280 C1266 0.960 . S
H1281 C1267 0.961 . S
H1282 C1267 0.961 . S
H1283 C1267 0.961 . S
H1284 C1268 0.931 . S
H1285 C1273 0.930 . S
H1286 C1274 0.956 . S
H1287 C1274 0.961 . S
H1288 C1274 0.961 . S
H1289 C1275 0.958 . S
H1290 C1275 0.961 . S
H1291 C1275 0.960 . S
C1292 C1293 1.391 . S
C1292 C1294 1.394 . S
C1292 H1308 0.931 . S
C1293 C1292 1.391 . S
C1293 C1297 1.376 . S
C1294 C1292 1.394 . S
C1294 C1295 1.369 . S
C1294 C1298 1.531 . S
C1295 C1294 1.369 . S
C1295 C1296 1.410 . S
C1295 C1303 1.503 . S
C1296 C1295 1.410 . S
C1296 C1297 1.392 . S
C1296 C1299 1.511 . S
C1297 C1293 1.376 . S
C1297 C1296 1.392 . S
C1297 H1309 0.929 . S
C1298 C1294 1.531 . S
C1298 H1310 0.960 . S
C1298 H1311 0.962 . S
C1298 H1312 0.960 . S
C1299 C1296 1.511 . S
C1299 H1313 0.961 . S
C1299 H1314 0.961 . S
C1299 H1315 0.961 . S
C1300 C1301 1.370 . S
C1300 C1302 1.363 . S
C1300 H1316 0.931 . S
C1301 C1300 1.370 . S
C1301 C1305 1.408 . S
C1302 C1300 1.363 . S
C1302 C1303 1.370 . S
C1302 C1306 1.524 . S
C1303 C1295 1.503 . S
C1303 C1302 1.370 . S
C1303 C1304 1.403 . S
C1304 C1303 1.403 . S
C1304 C1305 1.404 . S
C1304 C1307 1.539 . S
C1305 C1301 1.408 . S
C1305 C1304 1.404 . S
C1305 H1317 0.930 . S
C1306 C1302 1.524 . S
C1306 H1318 0.956 . S
C1306 H1319 0.961 . S
C1306 H1320 0.961 . S
C1307 C1304 1.539 . S
C1307 H1321 0.958 . S
C1307 H1322 0.961 . S
C1307 H1323 0.960 . S
H1308 C1292 0.931 . S
H1309 C1297 0.929 . S
H1310 C1298 0.960 . S
H1311 C1298 0.962 . S
H1312 C1298 0.960 . S
H1313 C1299 0.961 . S
H1314 C1299 0.961 . S
H1315 C1299 0.961 . S
H1316 C1300 0.931 . S
H1317 C1305 0.930 . S
H1318 C1306 0.956 . S
H1319 C1306 0.961 . S
H1320 C1306 0.961 . S
H1321 C1307 0.958 . S
H1322 C1307 0.961 . S
H1323 C1307 0.960 . S
C1324 C1325 1.391 . S
C1324 C1326 1.394 . S
C1324 H1340 0.931 . S
C1325 C1324 1.391 . S
C1325 C1329 1.376 . S
C1326 C1324 1.394 . S
C1326 C1327 1.369 . S
C1326 C1330 1.531 . S
C1327 C1326 1.369 . S
C1327 C1328 1.410 . S
C1327 C1335 1.503 . S
C1328 C1327 1.410 . S
C1328 C1329 1.392 . S
C1328 C1331 1.511 . S
C1329 C1325 1.376 . S
C1329 C1328 1.392 . S
C1329 H1341 0.929 . S
C1330 C1326 1.531 . S
C1330 H1342 0.960 . S
C1330 H1343 0.962 . S
C1330 H1344 0.960 . S
C1331 C1328 1.511 . S
C1331 H1345 0.961 . S
C1331 H1346 0.961 . S
C1331 H1347 0.961 . S
C1332 C1333 1.370 . S
C1332 C1334 1.363 . S
C1332 H1348 0.931 . S
C1333 C1332 1.370 . S
C1333 C1337 1.408 . S
C1334 C1332 1.363 . S
C1334 C1335 1.370 . S
C1334 C1338 1.524 . S
C1335 C1327 1.503 . S
C1335 C1334 1.370 . S
C1335 C1336 1.403 . S
C1336 C1335 1.403 . S
C1336 C1337 1.404 . S
C1336 C1339 1.539 . S
C1337 C1333 1.408 . S
C1337 C1336 1.404 . S
C1337 H1349 0.930 . S
C1338 C1334 1.524 . S
C1338 H1350 0.956 . S
C1338 H1351 0.961 . S
C1338 H1352 0.961 . S
C1339 C1336 1.539 . S
C1339 H1353 0.958 . S
C1339 H1354 0.961 . S
C1339 H1355 0.960 . S
H1340 C1324 0.931 . S
H1341 C1329 0.929 . S
H1342 C1330 0.960 . S
H1343 C1330 0.962 . S
H1344 C1330 0.960 . S
H1345 C1331 0.961 . S
H1346 C1331 0.961 . S
H1347 C1331 0.961 . S
H1348 C1332 0.931 . S
H1349 C1337 0.930 . S
H1350 C1338 0.956 . S
H1351 C1338 0.961 . S
H1352 C1338 0.961 . S
H1353 C1339 0.958 . S
H1354 C1339 0.961 . S
H1355 C1339 0.960 . S
C397 C117 1.525 . S
C405 C18 1.518 . S
C429 C51 1.506 . S
C437 C150 1.512 . S
C461 C84 1.501 . S
C469 C183 1.514 . S
C493 C216 1.525 . S
C501 C315 1.518 . S
C525 C348 1.500 . S
C533 C249 1.515 . S
C557 C381 1.511 . S
C565 C282 1.512 . S
C589 C252 0.831 . S
C597 C21 0.783 . S
C621 C54 0.834 . S
C629 C285 0.780 . S
C653 C318 0.828 . S
C661 C87 0.785 . S
C685 C120 0.682 . S
C693 C351 0.724 . S
C717 C384 0.783 . S
C725 C153 0.788 . S
C749 C186 0.835 . S
C757 C219 0.772 . S
C781 C7 1.143 . S
C789 C106 1.118 . S
C813 C40 1.068 . S
C821 C139 1.091 . S
C845 C73 1.140 . S
C853 C172 1.110 . S
C877 C205 1.143 . S
C885 C304 1.114 . S
C909 C238 1.142 . S
C917 C337 1.114 . S
C941 C271 1.068 . S
C949 C370 1.091 . S
C973 N332 0.848 1_455 S
C981 N2 0.824 . S
C1005 N35 0.787 1_655 S
C1013 N365 0.812 1_545 S
C1037 N200 0.834 . S
C1045 N68 0.810 1_565 S
C1069 N101 0.801 . S
C1077 N233 0.807 1_655 S
C1101 N266 0.848 1_565 S
C1109 N134 0.815 1_455 S
C1133 N167 0.832 1_545 S
C1141 N299 0.839 . S
C1165 N13 1.768 . S
C1173 N277 1.776 . S
C1197 N46 1.792 . S
C1205 N310 1.784 . S
C1229 N343 1.778 . S
C1237 N79 1.769 . S
C1261 N376 1.730 . S
C1269 N112 1.757 . S
C1293 N145 1.771 . S
C1301 N211 1.766 . S
C1325 N178 1.799 . S
C1333 N244 1.781 . S
