# Generated by pormake.
# Topology wjh, (4)-cn, num edge types: 1
# Building blocks:
#     Node 0, Type 0, BuildingBlock: AZAVOO_clean_sbu_0, # of connection points: 4
#     Node 1, Type 0, BuildingBlock: AZAVOO_clean_sbu_0, # of connection points: 4
#     Node 2, Type 0, BuildingBlock: AZAVOO_clean_sbu_0, # of connection points: 4
#     Node 3, Type 0, BuildingBlock: AZAVOO_clean_sbu_0, # of connection points: 4
#     Node 4, Type 0, BuildingBlock: AZAVOO_clean_sbu_0, # of connection points: 4
#     Node 5, Type 0, BuildingBlock: AZAVOO_clean_sbu_0, # of connection points: 4
#     Node 6, Type 0, BuildingBlock: AZAVOO_clean_sbu_0, # of connection points: 4
#     Node 7, Type 0, BuildingBlock: AZAVOO_clean_sbu_0, # of connection points: 4
#     Node 8, Type 0, BuildingBlock: AZAVOO_clean_sbu_0, # of connection points: 4
#     Node 9, Type 0, BuildingBlock: AZAVOO_clean_sbu_0, # of connection points: 4
#     Node 10, Type 0, BuildingBlock: AZAVOO_clean_sbu_0, # of connection points: 4
#     Node 11, Type 0, BuildingBlock: AZAVOO_clean_sbu_0, # of connection points: 4
#     Edge 12, Type (0, 0), BuildingBlock: CIFDUS_clean_linker_0, # of connection points: 2
#     Edge 13, Type (0, 0), BuildingBlock: CIFDUS_clean_linker_0, # of connection points: 2
#     Edge 14, Type (0, 0), BuildingBlock: CIFDUS_clean_linker_0, # of connection points: 2
#     Edge 15, Type (0, 0), BuildingBlock: CIFDUS_clean_linker_0, # of connection points: 2
#     Edge 16, Type (0, 0), BuildingBlock: CIFDUS_clean_linker_0, # of connection points: 2
#     Edge 17, Type (0, 0), BuildingBlock: CIFDUS_clean_linker_0, # of connection points: 2
#     Edge 18, Type (0, 0), BuildingBlock: CIFDUS_clean_linker_0, # of connection points: 2
#     Edge 19, Type (0, 0), BuildingBlock: CIFDUS_clean_linker_0, # of connection points: 2
#     Edge 20, Type (0, 0), BuildingBlock: CIFDUS_clean_linker_0, # of connection points: 2
#     Edge 21, Type (0, 0), BuildingBlock: CIFDUS_clean_linker_0, # of connection points: 2
#     Edge 22, Type (0, 0), BuildingBlock: CIFDUS_clean_linker_0, # of connection points: 2
#     Edge 23, Type (0, 0), BuildingBlock: CIFDUS_clean_linker_0, # of connection points: 2
#     Edge 24, Type (0, 0), BuildingBlock: CIFDUS_clean_linker_0, # of connection points: 2
#     Edge 25, Type (0, 0), BuildingBlock: CIFDUS_clean_linker_0, # of connection points: 2
#     Edge 26, Type (0, 0), BuildingBlock: CIFDUS_clean_linker_0, # of connection points: 2
#     Edge 27, Type (0, 0), BuildingBlock: CIFDUS_clean_linker_0, # of connection points: 2
#     Edge 28, Type (0, 0), BuildingBlock: CIFDUS_clean_linker_0, # of connection points: 2
#     Edge 29, Type (0, 0), BuildingBlock: CIFDUS_clean_linker_0, # of connection points: 2
#     Edge 30, Type (0, 0), BuildingBlock: CIFDUS_clean_linker_0, # of connection points: 2
#     Edge 31, Type (0, 0), BuildingBlock: CIFDUS_clean_linker_0, # of connection points: 2
#     Edge 32, Type (0, 0), BuildingBlock: CIFDUS_clean_linker_0, # of connection points: 2
#     Edge 33, Type (0, 0), BuildingBlock: CIFDUS_clean_linker_0, # of connection points: 2
#     Edge 34, Type (0, 0), BuildingBlock: CIFDUS_clean_linker_0, # of connection points: 2
#     Edge 35, Type (0, 0), BuildingBlock: CIFDUS_clean_linker_0, # of connection points: 2
# Relax obj value: 0.171
# Max RMSD: 0.151
# Mean RMSD: 0.150
data_MOF--net-wjh--node1-AZAVOO_clean_sbu_0--edge1-CIFDUS_clean_linker_0
_symmetry_space_group_name_H-M    P1
_symmetry_Int_Tables_number       1
_symmetry_cell_setting            triclinic
loop_
_symmetry_equiv_pos_as_xyz
'x, y, z'
_cell_length_a     55.903525
_cell_length_b     55.904922
_cell_length_c     21.179898
_cell_angle_alpha  90.294355
_cell_angle_beta   89.776738
_cell_angle_gamma 119.96466
loop_
_atom_site_label
_atom_site_type_symbol
_atom_site_fract_x
_atom_site_fract_y
_atom_site_fract_z
_atom_type_partial_charge
Mg0 Mg 0.46488 0.11328 0.10195 0.0
O1 O 0.4947 0.11764 0.18178 0.0
O2 O 0.51807 0.09693 0.14942 0.0
Mg3 Mg 0.50184 0.07738 0.05332 0.0
C4 C 0.51306 0.11072 0.19025 0.0
C5 C 0.45768 0.16378 0.10747 0.0
O6 O 0.45756 0.15939 0.04643 0.0
O7 O 0.5005 0.14494 0.04235 0.0
O8 O 0.52059 0.12081 0.01185 0.0
O9 O 0.4316 0.07365 0.14222 0.0
O10 O 0.46313 0.07707 0.07354 0.0
C11 C 0.51905 0.14285 0.01187 0.0
C12 C 0.44263 0.06192 0.10981 0.0
O13 O 0.45938 0.1472 0.14543 0.0
Mg14 Mg 0.35679 0.49558 0.24339 0.0
O15 O 0.37866 0.51912 0.33379 0.0
O16 O 0.42411 0.53993 0.31604 0.0
Mg17 Mg 0.43123 0.52697 0.21891 0.0
C18 C 0.40359 0.53478 0.3514 0.0
C19 C 0.30035 0.49299 0.23899 0.0
O20 O 0.30603 0.49476 0.17835 0.0
O21 O 0.36826 0.5352 0.19027 0.0
O22 O 0.41312 0.55116 0.17215 0.0
O23 O 0.35579 0.4576 0.27834 0.0
O24 O 0.38978 0.48984 0.22153 0.0
C25 C 0.39127 0.55279 0.16583 0.0
C26 C 0.37969 0.46688 0.25171 0.0
O27 O 0.3173 0.49268 0.27818 0.0
Mg28 Mg 0.84786 0.34587 0.37192 0.0
O29 O 0.84985 0.3724 0.45728 0.0
O30 O 0.87205 0.41671 0.4274 0.0
Mg31 Mg 0.88555 0.41868 0.32552 0.0
C32 C 0.85925 0.39803 0.46872 0.0
C33 C 0.81845 0.28874 0.44155 0.0
O34 O 0.84287 0.2909 0.4362 0.0
O35 O 0.81496 0.35243 0.32623 0.0
O36 O 0.83984 0.39666 0.29756 0.0
O37 O 0.88747 0.3489 0.40001 0.0
O38 O 0.88418 0.37894 0.3381 0.0
C39 C 0.81693 0.37397 0.301 0.0
C40 C 0.89946 0.37188 0.36902 0.0
O41 O 0.81469 0.30779 0.42018 0.0
Mg42 Mg 0.51004 0.86549 0.54731 0.0
O43 O 0.48657 0.86403 0.63809 0.0
O44 O 0.46677 0.88981 0.62252 0.0
Mg45 Mg 0.47943 0.90943 0.52538 0.0
C46 C 0.47147 0.87389 0.65673 0.0
C47 C 0.53131 0.82989 0.61383 0.0
O48 O 0.55158 0.85437 0.63007 0.0
O49 O 0.46993 0.83779 0.4957 0.0
O50 O 0.45333 0.86639 0.48161 0.0
O51 O 0.54819 0.90163 0.58408 0.0
O52 O 0.51629 0.90464 0.5287 0.0
C53 C 0.45157 0.84285 0.47497 0.0
C54 C 0.53892 0.91675 0.5606 0.0
O55 O 0.5118 0.82805 0.57987 0.0
Mg56 Mg 0.64085 0.5068 0.65673 0.0
O57 O 0.61069 0.48361 0.73777 0.0
O58 O 0.56793 0.47192 0.70707 0.0
Mg59 Mg 0.57102 0.48888 0.60836 0.0
C60 C 0.58471 0.47199 0.74779 0.0
C61 C 0.69038 0.49682 0.67407 0.0
O62 O 0.68959 0.49652 0.61207 0.0
O63 O 0.62569 0.46665 0.6032 0.0
O64 O 0.58354 0.45756 0.57421 0.0
O65 O 0.6476 0.54669 0.69387 0.0
O66 O 0.61437 0.52032 0.62653 0.0
C67 C 0.60269 0.45141 0.57595 0.0
C68 C 0.62575 0.54179 0.66262 0.0
O69 O 0.67322 0.50083 0.70501 0.0
Mg70 Mg 0.10475 0.62993 0.9042 0.0
O71 O 0.10779 0.60157 0.97834 0.0
O72 O 0.08101 0.55786 0.94618 0.0
Mg73 Mg 0.05946 0.55805 0.85545 0.0
C74 C 0.09789 0.57561 0.9854 0.0
C75 C 0.14145 0.68547 0.97471 0.0
O76 O 0.11728 0.68361 0.98301 0.0
O77 O 0.13106 0.62196 0.83424 0.0
O78 O 0.10132 0.57844 0.80558 0.0
O79 O 0.06928 0.62853 0.95608 0.0
O80 O 0.06524 0.59871 0.88192 0.0
C81 C 0.12489 0.60033 0.80198 0.0
C82 C 0.05374 0.6063 0.92411 0.0
O83 O 0.14289 0.66657 0.94445 0.0
Mg84 Mg 0.84156 0.47071 0.92842 0.0
O85 O 0.84749 0.44869 0.84309 0.0
O86 O 0.87275 0.42995 0.87379 0.0
Mg87 Mg 0.88443 0.44146 0.97652 0.0
C88 C 0.85916 0.43445 0.8319 0.0
C89 C 0.79 0.4763 0.90734 0.0
O90 O 0.79117 0.47744 0.96931 0.0
O91 O 0.81052 0.42955 0.97106 0.0
O92 O 0.83862 0.41415 0.00171 0.0
O93 O 0.87934 0.50979 0.90409 0.0
O94 O 0.87885 0.47749 0.96518 0.0
C95 C 0.81456 0.41131 -0.0033 0.0
C96 C 0.89277 0.50069 0.93622 0.0
O97 O 0.80783 0.47322 0.87679 0.0
Mg98 Mg 0.35144 0.8477 0.09716 0.0
O99 O 0.37485 0.85176 0.00443 0.0
O100 O 0.41939 0.88224 0.02217 0.0
Mg101 Mg 0.42395 0.89972 0.12128 0.0
C102 C 0.40001 0.86515 0.9864 0.0
C103 C 0.29115 0.80561 0.07511 0.0
O104 O 0.28998 0.82501 0.10794 0.0
O105 O 0.36944 0.82358 0.14369 0.0
O106 O 0.4128 0.85738 0.1607 0.0
O107 O 0.3431 0.88095 0.0678 0.0
O108 O 0.38003 0.88819 0.12128 0.0
C109 C 0.39371 0.83219 0.16496 0.0
C110 C 0.36641 0.89818 0.09384 0.0
O111 O 0.31461 0.8085 0.06181 0.0
Mg112 Mg 0.50095 0.37449 0.19905 0.0
O113 O 0.52497 0.40099 0.1134 0.0
O114 O 0.54744 0.44501 0.14635 0.0
Mg115 Mg 0.5357 0.4472 0.24791 0.0
C116 C 0.54156 0.42668 0.10381 0.0
C117 C 0.48435 0.31444 0.18608 0.0
O118 O 0.47941 0.31702 0.24571 0.0
O119 O 0.54075 0.38105 0.24371 0.0
O120 O 0.55899 0.42491 0.27567 0.0
O121 O 0.46371 0.37724 0.17495 0.0
O122 O 0.49793 0.40731 0.23518 0.0
C123 C 0.55974 0.40251 0.27092 0.0
C124 C 0.47482 0.3999 0.20754 0.0
O125 O 0.49423 0.33557 0.15086 0.0
Mg126 Mg 0.11297 0.47945 0.414 0.0
O127 O 0.11274 0.5082 0.33664 0.0
O128 O 0.08239 0.52116 0.36654 0.0
Mg129 Mg 0.06165 0.49905 0.45763 0.0
C130 C 0.10043 0.522 0.32811 0.0
C131 C 0.16939 0.48279 0.41506 0.0
O132 O 0.16264 0.4785 0.47512 0.0
O133 O 0.13617 0.5156 0.48149 0.0
O134 O 0.10297 0.52499 0.50811 0.0
O135 O 0.08038 0.44262 0.36372 0.0
O136 O 0.07215 0.46695 0.43445 0.0
C137 C 0.12768 0.52955 0.51231 0.0
C138 C 0.06278 0.44709 0.39382 0.0
O139 O 0.153 0.48451 0.37652 0.0
Mg140 Mg 0.6183 0.12831 0.62725 0.0
O141 O 0.58938 0.12804 0.54971 0.0
O142 O 0.54587 0.10049 0.58197 0.0
Mg143 Mg 0.54687 0.08211 0.67665 0.0
C144 C 0.56331 0.11681 0.54161 0.0
C145 C 0.67772 0.16768 0.58283 0.0
O146 O 0.68051 0.14757 0.60675 0.0
O147 O 0.60894 0.15546 0.69064 0.0
O148 O 0.5658 0.12533 0.7205 0.0
O149 O 0.61897 0.09287 0.58159 0.0
O150 O 0.58813 0.08878 0.6531 0.0
C151 C 0.58712 0.14942 0.72173 0.0
C152 C 0.59677 0.07722 0.61344 0.0
O153 O 0.65417 0.16587 0.58395 0.0
Mg154 Mg 0.51832 0.64337 0.78287 0.0
O155 O 0.4894 0.62266 0.69843 0.0
O156 O 0.466 0.57712 0.71512 0.0
Mg157 Mg 0.48079 0.56883 0.80807 0.0
C158 C 0.47159 0.59816 0.68152 0.0
C159 C 0.54556 0.70712 0.76318 0.0
O160 O 0.56588 0.7074 0.79478 0.0
O161 O 0.48289 0.6366 0.84669 0.0
O162 O 0.46176 0.59106 0.8624 0.0
O163 O 0.55112 0.64004 0.73279 0.0
O164 O 0.52061 0.60765 0.79624 0.0
C165 C 0.46388 0.61463 0.87186 0.0
C166 C 0.54076 0.61554 0.75662 0.0
O167 O 0.52385 0.68427 0.7521 0.0
H168 H 0.49479 0.11562 0.30576 0.0
H169 H 0.56522 0.12047 0.20955 0.0
H170 H 0.58867 0.12647 0.31038 0.0
H171 H 0.58723 0.12569 0.42619 0.0
H172 H 0.515 0.1164 0.52264 0.0
H173 H 0.4943 0.1171 0.42172 0.0
C174 C 0.51546 0.11846 0.30694 0.0
C175 C 0.52825 0.11753 0.25052 0.0
C176 C 0.52841 0.12092 0.3652 0.0
C177 C 0.5549 0.12092 0.25256 0.0
C178 C 0.56831 0.12435 0.31014 0.0
C179 C 0.5672 0.12435 0.42507 0.0
C180 C 0.55263 0.12098 0.48157 0.0
C181 C 0.555 0.12371 0.36683 0.0
C182 C 0.52652 0.11887 0.47957 0.0
C183 C 0.51467 0.11923 0.42194 0.0
H184 H 0.44619 0.58354 0.39133 0.0
H185 H 0.37367 0.51024 0.45726 0.0
H186 H 0.38708 0.52473 0.56678 0.0
H187 H 0.42217 0.55571 0.64313 0.0
H188 H 0.49376 0.62991 0.57696 0.0
H189 H 0.47775 0.61784 0.46815 0.0
C190 C 0.43316 0.57097 0.42976 0.0
C191 C 0.40923 0.5457 0.4165 0.0
C192 C 0.44089 0.57953 0.49242 0.0
C193 C 0.39222 0.52977 0.46645 0.0
C194 C 0.39996 0.53797 0.52901 0.0
C195 C 0.43402 0.56944 0.60491 0.0
C196 C 0.45929 0.59345 0.61789 0.0
C197 C 0.42465 0.56242 0.5425 0.0
C198 C 0.47425 0.61129 0.56816 0.0
C199 C 0.46521 0.60432 0.50589 0.0
H200 H 0.85302 0.45475 0.72098 0.0
H201 H 0.861 0.38816 0.80043 0.0
H202 H 0.85942 0.36963 0.69486 0.0
H203 H 0.85801 0.37362 0.5797 0.0
H204 H 0.85386 0.44231 0.50005 0.0
H205 H 0.8515 0.45867 0.60585 0.0
C206 C 0.85417 0.43606 0.7151 0.0
C207 C 0.85712 0.42283 0.76821 0.0
C208 C 0.854 0.42595 0.65425 0.0
C209 C 0.85891 0.3988 0.76007 0.0
C210 C 0.85795 0.38816 0.69981 0.0
C211 C 0.85627 0.39198 0.58565 0.0
C212 C 0.85603 0.40672 0.53244 0.0
C213 C 0.85581 0.40174 0.64653 0.0
C214 C 0.85419 0.43071 0.54054 0.0
C215 C 0.85283 0.44006 0.60092 0.0
H216 H 0.42187 0.8662 0.6948 0.0
H217 H 0.49554 0.86838 0.76279 0.0
H218 H 0.47915 0.86442 0.87167 0.0
H219 H 0.44557 0.86418 0.94753 0.0
H220 H 0.37055 0.85905 0.87954 0.0
H221 H 0.38557 0.86002 0.77028 0.0
C222 C 0.43415 0.86552 0.73354 0.0
C223 C 0.45999 0.86794 0.7212 0.0
C224 C 0.4244 0.86282 0.79573 0.0
C225 C 0.47559 0.86657 0.77138 0.0
C226 C 0.46629 0.86444 0.83354 0.0
C227 C 0.43242 0.86297 0.90865 0.0
C228 C 0.4072 0.8619 0.92116 0.0
C229 C 0.44101 0.86314 0.84627 0.0
C230 C 0.39006 0.85988 0.87077 0.0
C231 C 0.3987 0.86059 0.80844 0.0
H232 H 0.5183 0.40692 0.98939 0.0
H233 H 0.59362 0.46765 0.07919 0.0
H234 H 0.61456 0.48568 0.97618 0.0
H235 H 0.61049 0.48596 0.86101 0.0
H236 H 0.53375 0.4281 0.77147 0.0
H237 H 0.51429 0.40711 0.87366 0.0
C238 C 0.53939 0.42387 0.98611 0.0
C239 C 0.55447 0.43594 0.04139 0.0
C240 C 0.55094 0.43475 0.92686 0.0
C241 C 0.58164 0.45816 0.03698 0.0
C242 C 0.5936 0.46846 0.97822 0.0
C243 C 0.58962 0.46858 0.86391 0.0
C244 C 0.57357 0.45855 0.80903 0.0
C245 C 0.57831 0.45719 0.92291 0.0
C246 C 0.54642 0.43626 0.81333 0.0
C247 C 0.53531 0.42423 0.87164 0.0
H248 H 0.10815 0.50827 0.21013 0.0
H249 H 0.10365 0.57183 0.31659 0.0
H250 H 0.10643 0.59633 0.21904 0.0
H251 H 0.10512 0.59702 0.10319 0.0
H252 H 0.10414 0.53063 -0.00336 0.0
H253 H 0.10879 0.50999 0.09406 0.0
C254 C 0.10833 0.52776 0.21181 0.0
C255 C 0.10577 0.53834 0.27011 0.0
C256 C 0.10871 0.54107 0.15543 0.0
C257 C 0.10553 0.56334 0.27198 0.0
C258 C 0.10708 0.5773 0.21631 0.0
C259 C 0.10648 0.57834 0.10138 0.0
C260 C 0.10436 0.56535 0.0431 0.0
C261 C 0.10794 0.56599 0.15769 0.0
C262 C 0.10566 0.5409 0.0412 0.0
C263 C 0.10827 0.52909 0.09681 0.0
H264 H 0.46846 0.26737 0.25183 0.0
H265 H 0.48758 0.30104 0.06339 0.0
H266 H 0.47915 0.25666 0.02199 0.0
H267 H 0.46807 0.20897 0.03987 0.0
H268 H 0.45068 0.17582 0.22881 0.0
H269 H 0.45647 0.21938 0.26941 0.0
C270 C 0.47068 0.26499 0.20165 0.0
C271 C 0.47871 0.28748 0.1608 0.0
C272 C 0.46607 0.23954 0.17827 0.0
C273 C 0.48153 0.28407 0.09591 0.0
C274 C 0.47668 0.2587 0.07217 0.0
C275 C 0.46526 0.21116 0.08984 0.0
C276 C 0.45897 0.18923 0.13128 0.0
C277 C 0.46915 0.23638 0.11299 0.0
C278 C 0.4556 0.19245 0.19598 0.0
C279 C 0.45895 0.21734 0.21923 0.0
H280 H 0.28293 0.48856 0.36024 0.0
H281 H 0.26015 0.49428 0.16863 0.0
H282 H 0.21776 0.492 0.20653 0.0
H283 H 0.18718 0.48815 0.29381 0.0
H284 H 0.20987 0.48209 0.4853 0.0
H285 H 0.25245 0.48482 0.44744 0.0
C286 C 0.26872 0.48932 0.32668 0.0
C287 C 0.27468 0.49157 0.2617 0.0
C288 C 0.24442 0.48797 0.34872 0.0
C289 C 0.25604 0.49252 0.2189 0.0
C290 C 0.23181 0.49124 0.24051 0.0
C291 C 0.20145 0.48748 0.32734 0.0
C292 C 0.19536 0.48491 0.39227 0.0
C293 C 0.2258 0.48894 0.30529 0.0
C294 C 0.21405 0.48403 0.43505 0.0
C295 C 0.2384 0.48559 0.41347 0.0
H296 H 0.73043 0.17767 0.57091 0.0
H297 H 0.67849 0.21274 0.53219 0.0
H298 H 0.71758 0.25324 0.48588 0.0
H299 H 0.7661 0.27853 0.45592 0.0
H300 H 0.81852 0.24396 0.49335 0.0
H301 H 0.77951 0.20335 0.54085 0.0
C302 C 0.72767 0.19418 0.55237 0.0
C303 C 0.70158 0.19216 0.555 0.0
C304 C 0.75025 0.21746 0.52564 0.0
C305 C 0.69834 0.21373 0.53075 0.0
C306 C 0.72067 0.23692 0.50425 0.0
C307 C 0.76908 0.26216 0.47449 0.0
C308 C 0.79518 0.26427 0.47107 0.0
C309 C 0.74666 0.23897 0.50141 0.0
C310 C 0.79863 0.24284 0.49538 0.0
C311 C 0.77634 0.21962 0.52251 0.0
H312 H 0.56983 0.82596 0.68452 0.0
H313 H 0.4909 0.7768 0.59303 0.0
H314 H 0.48865 0.73476 0.63118 0.0
H315 H 0.50852 0.71194 0.69093 0.0
H316 H 0.58744 0.76024 0.78263 0.0
H317 H 0.59023 0.80272 0.74377 0.0
C318 C 0.55217 0.80605 0.67287 0.0
C319 C 0.53056 0.80456 0.63609 0.0
C320 C 0.55095 0.78184 0.69499 0.0
C321 C 0.50784 0.77858 0.62126 0.0
C322 C 0.50649 0.75449 0.64309 0.0
C323 C 0.52637 0.73173 0.70257 0.0
C324 C 0.5477 0.73294 0.7398 0.0
C325 C 0.52785 0.7559 0.6801 0.0
C326 C 0.57072 0.75876 0.7541 0.0
C327 C 0.57232 0.78304 0.73192 0.0
H328 H 0.69564 0.49487 0.80073 0.0
H329 H 0.73072 0.48842 0.62379 0.0
H330 H 0.76434 0.48095 0.68077 0.0
H331 H 0.78389 0.47674 0.78049 0.0
H332 H 0.74886 0.48342 0.95733 0.0
H333 H 0.71487 0.49024 0.90029 0.0
C334 C 0.71062 0.49184 0.7745 0.0
C335 C 0.71073 0.49226 0.7081 0.0
C336 C 0.72982 0.48757 0.80745 0.0
C337 C 0.73024 0.48822 0.67492 0.0
C338 C 0.74944 0.48394 0.70744 0.0
C339 C 0.76879 0.47962 0.80666 0.0
C340 C 0.76892 0.47961 0.87308 0.0
C341 C 0.74942 0.48363 0.77366 0.0
C342 C 0.74921 0.48336 0.9062 0.0
C343 C 0.7298 0.48728 0.87365 0.0
H344 H 0.19399 0.69568 0.96164 0.0
H345 H 0.14591 0.7292 0.04273 0.0
H346 H 0.18806 0.76919 0.08168 0.0
H347 H 0.2385 0.79479 0.09152 0.0
H348 H 0.28646 0.76131 0.00947 0.0
H349 H 0.24426 0.72103 0.97207 0.0
C350 C 0.19268 0.71169 0.98792 0.0
C351 C 0.16684 0.70947 -0.00081 0.0
C352 C 0.21694 0.73461 0.00993 0.0
C353 C 0.16554 0.73041 0.03333 0.0
C354 C 0.18963 0.75328 0.05561 0.0
C355 C 0.23974 0.77867 0.06557 0.0
C356 C 0.26558 0.78106 0.05327 0.0
C357 C 0.21543 0.75562 0.04401 0.0
C358 C 0.26682 0.75999 0.01952 0.0
C359 C 0.24271 0.73695 -0.00189 0.0
H360 H 0.55042 0.16666 0.74222 0.0
H361 H 0.62491 0.1722 0.81453 0.0
H362 H 0.61319 0.17983 0.92095 0.0
H363 H 0.57412 0.16792 -0.00706 0.0
H364 H 0.49941 0.16187 0.92064 0.0
H365 H 0.51915 0.1726 0.81466 0.0
C366 C 0.5648 0.1712 0.78082 0.0
C367 C 0.58798 0.16811 0.77157 0.0
C368 C 0.55753 0.17485 0.84202 0.0
C369 C 0.60679 0.17428 0.8211 0.0
C370 C 0.59989 0.17824 0.88213 0.0
C371 C 0.5629 0.17062 0.95454 0.0
C372 C 0.53521 0.16333 0.96351 0.0
C373 C 0.57415 0.17606 0.89354 0.0
C374 C 0.52074 0.16716 0.91426 0.0
C375 C 0.53188 0.17289 0.85345 0.0
H376 H 0.40897 0.5825 0.89313 0.0
H377 H 0.4832 0.65103 0.96868 0.0
H378 H 0.46245 0.64228 0.07365 0.0
H379 H 0.42933 0.60634 0.14539 0.0
H380 H 0.35489 0.53817 0.06983 0.0
H381 H 0.36889 0.55622 0.96329 0.0
C382 C 0.42 0.59628 0.93209 0.0
C383 C 0.4477 0.61684 0.92406 0.0
C384 C 0.40802 0.59095 -0.00758 0.0
C385 C 0.46186 0.63491 0.97419 0.0
C386 C 0.45011 0.62974 0.03437 0.0
C387 C 0.41549 0.59639 0.10589 0.0
C388 C 0.39163 0.57063 0.11474 0.0
C389 C 0.42405 0.60653 0.04462 0.0
C390 C 0.37354 0.55795 0.06384 0.0
C391 C 0.38177 0.56802 0.0027 0.0
H392 H 0.7863 0.41976 0.08719 0.0
H393 H 0.79645 0.35615 -0.00241 0.0
H394 H 0.78472 0.33023 0.09607 0.0
H395 H 0.79156 0.33659 0.20995 0.0
H396 H 0.7942 0.40715 0.29938 0.0
H397 H 0.77982 0.41891 0.20123 0.0
C398 C 0.78426 0.39941 0.0886 0.0
C399 C 0.7929 0.39009 0.0364 0.0
C400 C 0.78068 0.38637 0.147 0.0
C401 C 0.7902 0.36377 0.03789 0.0
C402 C 0.78395 0.34921 0.09454 0.0
C403 C 0.78735 0.35355 0.20861 0.0
C404 C 0.79454 0.37146 0.26064 0.0
C405 C 0.78214 0.36183 0.15038 0.0
C406 C 0.78908 0.39337 0.2592 0.0
C407 C 0.78128 0.4003 0.20277 0.0
H408 H 0.46085 0.82127 0.37118 0.0
H409 H 0.39628 0.82328 0.47831 0.0
H410 H 0.36635 0.80832 0.38549 0.0
H411 H 0.36526 0.8101 0.27045 0.0
H412 H 0.43453 0.81918 0.1619 0.0
H413 H 0.45548 0.81314 0.25713 0.0
C414 C 0.43972 0.81705 0.37466 0.0
C415 C 0.43067 0.82346 0.43076 0.0
C416 C 0.4237 0.81091 0.31981 0.0
C417 C 0.40351 0.81846 0.43518 0.0
C418 C 0.38657 0.81019 0.38196 0.0
C419 C 0.38418 0.80919 0.26744 0.0
C420 C 0.39853 0.81522 0.20992 0.0
C421 C 0.3973 0.80856 0.32315 0.0
C422 C 0.42322 0.81451 0.20603 0.0
C423 C 0.43537 0.81151 0.26065 0.0
H424 H 0.63619 0.45522 0.48142 0.0
H425 H 0.56109 0.39811 0.57699 0.0
H426 H 0.54557 0.36827 0.48378 0.0
H427 H 0.54612 0.36866 0.3688 0.0
H428 H 0.61592 0.43283 0.27016 0.0
H429 H 0.64159 0.44874 0.36897 0.0
C430 C 0.61712 0.43549 0.48257 0.0
C431 C 0.59952 0.42885 0.53493 0.0
C432 C 0.60726 0.41995 0.42691 0.0
C433 C 0.57474 0.40353 0.53655 0.0
C434 C 0.5658 0.38666 0.48306 0.0
C435 C 0.56757 0.38503 0.36878 0.0
C436 C 0.57903 0.40003 0.31322 0.0
C437 C 0.58075 0.39601 0.42652 0.0
C438 C 0.60674 0.4212 0.31288 0.0
C439 C 0.62115 0.43063 0.36963 0.0
H440 H 0.14231 0.58297 0.52935 0.0
H441 H 0.14893 0.51614 0.61096 0.0
H442 H 0.15669 0.53771 0.71513 0.0
H443 H 0.14694 0.56761 0.7837 0.0
H444 H 0.14045 0.6345 0.70205 0.0
H445 H 0.14831 0.62165 0.59684 0.0
C446 C 0.14694 0.574 0.56951 0.0
C447 C 0.14457 0.54791 0.56341 0.0
C448 C 0.15091 0.58632 0.62925 0.0
C449 C 0.15065 0.53627 0.61508 0.0
C450 C 0.15472 0.54843 0.67473 0.0
C451 C 0.14884 0.58023 0.74314 0.0
C452 C 0.14271 0.60157 0.74979 0.0
C453 C 0.15279 0.57232 0.68283 0.0
C454 C 0.14516 0.61796 0.69755 0.0
C455 C 0.14924 0.61036 0.63733 0.0
H456 H 0.39015 0.02102 0.0953 0.0
H457 H 0.47262 0.03693 0.13149 0.0
H458 H 0.45625 0.98732 0.1302 0.0
H459 H 0.41867 0.93977 0.11641 0.0
H460 H 0.33675 0.9238 0.07166 0.0
H461 H 0.35269 0.97317 0.07783 0.0
C462 C 0.40435 0.01345 0.10359 0.0
C463 C 0.43238 0.03224 0.1141 0.0
C464 C 0.39496 0.98505 0.10041 0.0
C465 C 0.45091 0.02259 0.12342 0.0
C466 C 0.44158 -0.00568 0.12256 0.0
C467 C 0.40431 0.94702 0.10782 0.0
C468 C 0.37659 0.92814 0.09365 0.0
C469 C 0.4137 0.9754 0.11051 0.0
C470 C 0.35827 0.93797 0.08225 0.0
C471 C 0.36731 0.96616 0.08614 0.0
H472 H 0.4211 0.38108 0.23124 0.0
H473 H 0.49863 0.45566 0.19959 0.0
H474 H 0.47614 0.48333 0.21334 0.0
H475 H 0.43429 0.48594 0.23246 0.0
H476 H 0.35718 0.41166 0.2706 0.0
H477 H 0.37974 0.38409 0.25758 0.0
C478 C 0.43292 0.40339 0.22705 0.0
C479 C 0.46127 0.41646 0.21379 0.0
C480 C 0.42003 0.41911 0.23687 0.0
C481 C 0.47672 0.44532 0.20977 0.0
C482 C 0.46389 0.46108 0.21763 0.0
C483 C 0.42244 0.46378 0.23828 0.0
C484 C 0.39409 0.45085 0.25195 0.0
C485 C 0.43556 0.44816 0.23113 0.0
C486 C 0.37909 0.4221 0.2603 0.0
C487 C 0.3919 0.40631 0.25238 0.0
H488 H 0.02439 0.46315 0.39503 0.0
H489 H 0.03466 0.39239 0.36673 0.0
H490 H 0.98461 0.36252 0.35726 0.0
H491 H 0.93787 0.35644 0.36133 0.0
H492 H 0.92795 0.42767 0.3836 0.0
H493 H 0.97799 0.45761 0.39166 0.0
C494 C 0.01564 0.4412 0.38699 0.0
C495 C 0.03298 0.42983 0.38255 0.0
C496 C 0.98699 0.42433 0.38074 0.0
C497 C 0.02155 0.4015 0.37029 0.0
C498 C -0.007 0.38444 0.36522 0.0
C499 C 0.94679 0.37854 0.36786 0.0
C500 C 0.92949 0.38996 0.37204 0.0
C501 C 0.97552 0.39559 0.37113 0.0
C502 C 0.94102 0.41857 0.37965 0.0
C503 C 0.96957 0.43563 0.38455 0.0
H504 H 0.51658 0.94968 0.57671 0.0
H505 H 0.5942 0.95082 0.56921 0.0
H506 H 0.61917 0.00103 0.58244 0.0
H507 H 0.61876 0.04456 0.5953 0.0
H508 H 0.54105 0.04295 0.60973 0.0
H509 H 0.51609 -0.00711 0.59407 0.0
C510 C 0.53892 0.96096 0.57745 0.0
C511 C 0.5536 0.94677 0.57113 0.0
C512 C 0.55303 0.98965 0.58629 0.0
C513 C 0.58255 0.96145 0.57401 0.0
C514 C 0.5968 0.9901 0.58131 0.0
C515 C 0.59636 0.03316 0.59475 0.0
C516 C 0.58167 0.04721 0.60351 0.0
C517 C 0.58224 0.0044 0.58725 0.0
C518 C 0.55271 0.03241 0.60369 0.0
C519 C 0.53847 0.00385 0.59448 0.0
H520 H 0.57258 0.52459 0.69233 0.0
H521 H 0.65129 0.59738 0.65817 0.0
H522 H 0.63127 0.62675 0.68061 0.0
H523 H 0.59193 0.63157 0.71398 0.0
H524 H 0.51424 0.55899 0.75795 0.0
H525 H 0.53322 0.52952 0.72802 0.0
C526 C 0.58513 0.54686 0.68909 0.0
C527 C 0.61315 0.559 0.67294 0.0
C528 C 0.57374 0.56353 0.7044 0.0
C529 C 0.6296 0.58781 0.67035 0.0
C530 C 0.61819 0.60452 0.68322 0.0
C531 C 0.57911 0.60929 0.71661 0.0
C532 C 0.55173 0.59744 0.73796 0.0
C533 C 0.59037 0.5926 0.7009 0.0
C534 C 0.53542 0.5686 0.74202 0.0
C535 C 0.54624 0.55174 0.72468 0.0
H536 H 0.02144 0.55069 0.92447 0.0
H537 H 0.01932 0.6262 0.94873 0.0
H538 H 0.96883 0.59996 0.95474 0.0
H539 H 0.92534 0.55564 0.94698 0.0
H540 H 0.92766 0.48002 0.92838 0.0
H541 H 0.97817 0.50614 0.9257 0.0
C542 C 0.00988 0.56134 0.93094 0.0
C543 C 0.02383 0.59025 0.93499 0.0
C544 C 0.98102 0.54611 0.93502 0.0
C545 C 0.00883 0.60388 0.94543 0.0
C546 C 0.98004 0.58893 0.94848 0.0
C547 C 0.93702 0.54498 0.94251 0.0
C548 C 0.92305 0.5161 0.93746 0.0
C549 C 0.96593 0.56009 0.94227 0.0
C550 C 0.93813 0.50228 0.93271 0.0
C551 C 0.96694 0.5172 0.93091 0.0
loop_
_geom_bond_atom_site_label_1
_geom_bond_atom_site_label_2
_geom_bond_distance
_geom_bond_site_symmetry_2
_ccdc_geom_bond_type
Mg0 O1 2.028 . S
Mg0 O7 1.986 . S
Mg0 O9 2.114 . S
Mg0 O10 2.251 . S
Mg0 O13 2.010 . S
O1 Mg0 2.028 . S
O1 C4 1.250 . S
O2 Mg3 2.028 . S
O2 C4 1.248 . S
Mg3 O2 2.028 . S
Mg3 O8 2.032 . S
Mg3 O10 2.079 . S
C4 O1 1.250 . S
C4 O2 1.248 . S
C5 O6 1.264 . S
C5 O13 1.249 . S
O6 C5 1.264 . S
O7 Mg0 1.986 . S
O7 C11 1.246 1_554 S
O8 Mg3 2.032 . S
O8 C11 1.259 1_554 S
O9 Mg0 2.114 . S
O9 C12 1.252 . S
O10 Mg0 2.251 . S
O10 Mg3 2.079 . S
O10 C12 1.273 . S
C11 O7 1.246 1_556 S
C11 O8 1.259 1_556 S
C12 O9 1.252 . S
C12 O10 1.273 . S
O13 Mg0 2.010 . S
O13 C5 1.249 . S
Mg14 O15 2.028 . S
Mg14 O21 1.986 . S
Mg14 O23 2.114 . S
Mg14 O24 2.251 . S
Mg14 O27 2.010 . S
O15 Mg14 2.028 . S
O15 C18 1.250 . S
O16 Mg17 2.028 . S
O16 C18 1.248 . S
Mg17 O16 2.028 . S
Mg17 O22 2.032 . S
Mg17 O24 2.079 . S
C18 O15 1.250 . S
C18 O16 1.248 . S
C19 O20 1.264 . S
C19 O27 1.249 . S
O20 C19 1.264 . S
O21 Mg14 1.986 . S
O21 C25 1.246 . S
O22 Mg17 2.032 . S
O22 C25 1.259 . S
O23 Mg14 2.114 . S
O23 C26 1.252 . S
O24 Mg14 2.251 . S
O24 Mg17 2.079 . S
O24 C26 1.273 . S
C25 O21 1.246 . S
C25 O22 1.259 . S
C26 O23 1.252 . S
C26 O24 1.273 . S
O27 Mg14 2.010 . S
O27 C19 1.249 . S
Mg28 O29 2.028 . S
Mg28 O35 1.986 . S
Mg28 O37 2.114 . S
Mg28 O38 2.251 . S
Mg28 O41 2.010 . S
O29 Mg28 2.028 . S
O29 C32 1.250 . S
O30 Mg31 2.028 . S
O30 C32 1.248 . S
Mg31 O30 2.028 . S
Mg31 O36 2.032 . S
Mg31 O38 2.079 . S
C32 O29 1.250 . S
C32 O30 1.248 . S
C33 O34 1.264 . S
C33 O41 1.249 . S
O34 C33 1.264 . S
O35 Mg28 1.986 . S
O35 C39 1.246 . S
O36 Mg31 2.032 . S
O36 C39 1.259 . S
O37 Mg28 2.114 . S
O37 C40 1.252 . S
O38 Mg28 2.251 . S
O38 Mg31 2.079 . S
O38 C40 1.273 . S
C39 O35 1.246 . S
C39 O36 1.259 . S
C40 O37 1.252 . S
C40 O38 1.273 . S
O41 Mg28 2.010 . S
O41 C33 1.249 . S
Mg42 O43 2.028 . S
Mg42 O49 1.986 . S
Mg42 O51 2.114 . S
Mg42 O52 2.251 . S
Mg42 O55 2.010 . S
O43 Mg42 2.028 . S
O43 C46 1.250 . S
O44 Mg45 2.028 . S
O44 C46 1.248 . S
Mg45 O44 2.028 . S
Mg45 O50 2.032 . S
Mg45 O52 2.079 . S
C46 O43 1.250 . S
C46 O44 1.248 . S
C47 O48 1.264 . S
C47 O55 1.249 . S
O48 C47 1.264 . S
O49 Mg42 1.986 . S
O49 C53 1.246 . S
O50 Mg45 2.032 . S
O50 C53 1.259 . S
O51 Mg42 2.114 . S
O51 C54 1.252 . S
O52 Mg42 2.251 . S
O52 Mg45 2.079 . S
O52 C54 1.273 . S
C53 O49 1.246 . S
C53 O50 1.259 . S
C54 O51 1.252 . S
C54 O52 1.273 . S
O55 Mg42 2.010 . S
O55 C47 1.249 . S
Mg56 O57 2.028 . S
Mg56 O63 1.986 . S
Mg56 O65 2.114 . S
Mg56 O66 2.251 . S
Mg56 O69 2.010 . S
O57 Mg56 2.028 . S
O57 C60 1.250 . S
O58 Mg59 2.028 . S
O58 C60 1.248 . S
Mg59 O58 2.028 . S
Mg59 O64 2.032 . S
Mg59 O66 2.079 . S
C60 O57 1.250 . S
C60 O58 1.248 . S
C61 O62 1.264 . S
C61 O69 1.249 . S
O62 C61 1.264 . S
O63 Mg56 1.986 . S
O63 C67 1.246 . S
O64 Mg59 2.032 . S
O64 C67 1.259 . S
O65 Mg56 2.114 . S
O65 C68 1.252 . S
O66 Mg56 2.251 . S
O66 Mg59 2.079 . S
O66 C68 1.273 . S
C67 O63 1.246 . S
C67 O64 1.259 . S
C68 O65 1.252 . S
C68 O66 1.273 . S
O69 Mg56 2.010 . S
O69 C61 1.249 . S
Mg70 O71 2.028 . S
Mg70 O77 1.986 . S
Mg70 O79 2.114 . S
Mg70 O80 2.251 . S
Mg70 O83 2.010 . S
O71 Mg70 2.028 . S
O71 C74 1.250 1_556 S
O72 Mg73 2.028 . S
O72 C74 1.248 1_556 S
Mg73 O72 2.028 . S
Mg73 O78 2.032 . S
Mg73 O80 2.079 . S
C74 O71 1.250 1_554 S
C74 O72 1.248 1_554 S
C75 O76 1.264 . S
C75 O83 1.249 . S
O76 C75 1.264 . S
O77 Mg70 1.986 . S
O77 C81 1.246 . S
O78 Mg73 2.032 . S
O78 C81 1.259 . S
O79 Mg70 2.114 . S
O79 C82 1.252 . S
O80 Mg70 2.251 . S
O80 Mg73 2.079 . S
O80 C82 1.273 . S
C81 O77 1.246 . S
C81 O78 1.259 . S
C82 O79 1.252 . S
C82 O80 1.273 . S
O83 Mg70 2.010 . S
O83 C75 1.249 . S
Mg84 O85 2.028 . S
Mg84 O91 1.986 . S
Mg84 O93 2.114 . S
Mg84 O94 2.251 . S
Mg84 O97 2.010 . S
O85 Mg84 2.028 . S
O85 C88 1.250 . S
O86 Mg87 2.028 . S
O86 C88 1.248 . S
Mg87 O86 2.028 . S
Mg87 O92 2.032 . S
Mg87 O94 2.079 . S
C88 O85 1.250 . S
C88 O86 1.248 . S
C89 O90 1.264 . S
C89 O97 1.249 . S
O90 C89 1.264 . S
O91 Mg84 1.986 . S
O91 C95 1.246 1_556 S
O92 Mg87 2.032 . S
O92 C95 1.259 1_556 S
O93 Mg84 2.114 . S
O93 C96 1.252 . S
O94 Mg84 2.251 . S
O94 Mg87 2.079 . S
O94 C96 1.273 . S
C95 O91 1.246 1_554 S
C95 O92 1.259 1_554 S
C96 O93 1.252 . S
C96 O94 1.273 . S
O97 Mg84 2.010 . S
O97 C89 1.249 . S
Mg98 O99 2.028 . S
Mg98 O105 1.986 . S
Mg98 O107 2.114 . S
Mg98 O108 2.251 . S
Mg98 O111 2.010 . S
O99 Mg98 2.028 . S
O99 C102 1.250 1_554 S
O100 Mg101 2.028 . S
O100 C102 1.248 1_554 S
Mg101 O100 2.028 . S
Mg101 O106 2.032 . S
Mg101 O108 2.079 . S
C102 O99 1.250 1_556 S
C102 O100 1.248 1_556 S
C103 O104 1.264 . S
C103 O111 1.249 . S
O104 C103 1.264 . S
O105 Mg98 1.986 . S
O105 C109 1.246 . S
O106 Mg101 2.032 . S
O106 C109 1.259 . S
O107 Mg98 2.114 . S
O107 C110 1.252 . S
O108 Mg98 2.251 . S
O108 Mg101 2.079 . S
O108 C110 1.273 . S
C109 O105 1.246 . S
C109 O106 1.259 . S
C110 O107 1.252 . S
C110 O108 1.273 . S
O111 Mg98 2.010 . S
O111 C103 1.249 . S
Mg112 O113 2.028 . S
Mg112 O119 1.986 . S
Mg112 O121 2.114 . S
Mg112 O122 2.251 . S
Mg112 O125 2.010 . S
O113 Mg112 2.028 . S
O113 C116 1.250 . S
O114 Mg115 2.028 . S
O114 C116 1.248 . S
Mg115 O114 2.028 . S
Mg115 O120 2.032 . S
Mg115 O122 2.079 . S
C116 O113 1.250 . S
C116 O114 1.248 . S
C117 O118 1.264 . S
C117 O125 1.249 . S
O118 C117 1.264 . S
O119 Mg112 1.986 . S
O119 C123 1.246 . S
O120 Mg115 2.032 . S
O120 C123 1.259 . S
O121 Mg112 2.114 . S
O121 C124 1.252 . S
O122 Mg112 2.251 . S
O122 Mg115 2.079 . S
O122 C124 1.273 . S
C123 O119 1.246 . S
C123 O120 1.259 . S
C124 O121 1.252 . S
C124 O122 1.273 . S
O125 Mg112 2.010 . S
O125 C117 1.249 . S
Mg126 O127 2.028 . S
Mg126 O133 1.986 . S
Mg126 O135 2.114 . S
Mg126 O136 2.251 . S
Mg126 O139 2.010 . S
O127 Mg126 2.028 . S
O127 C130 1.250 . S
O128 Mg129 2.028 . S
O128 C130 1.248 . S
Mg129 O128 2.028 . S
Mg129 O134 2.032 . S
Mg129 O136 2.079 . S
C130 O127 1.250 . S
C130 O128 1.248 . S
C131 O132 1.264 . S
C131 O139 1.249 . S
O132 C131 1.264 . S
O133 Mg126 1.986 . S
O133 C137 1.246 . S
O134 Mg129 2.032 . S
O134 C137 1.259 . S
O135 Mg126 2.114 . S
O135 C138 1.252 . S
O136 Mg126 2.251 . S
O136 Mg129 2.079 . S
O136 C138 1.273 . S
C137 O133 1.246 . S
C137 O134 1.259 . S
C138 O135 1.252 . S
C138 O136 1.273 . S
O139 Mg126 2.010 . S
O139 C131 1.249 . S
Mg140 O141 2.028 . S
Mg140 O147 1.986 . S
Mg140 O149 2.114 . S
Mg140 O150 2.251 . S
Mg140 O153 2.010 . S
O141 Mg140 2.028 . S
O141 C144 1.250 . S
O142 Mg143 2.028 . S
O142 C144 1.248 . S
Mg143 O142 2.028 . S
Mg143 O148 2.032 . S
Mg143 O150 2.079 . S
C144 O141 1.250 . S
C144 O142 1.248 . S
C145 O146 1.264 . S
C145 O153 1.249 . S
O146 C145 1.264 . S
O147 Mg140 1.986 . S
O147 C151 1.246 . S
O148 Mg143 2.032 . S
O148 C151 1.259 . S
O149 Mg140 2.114 . S
O149 C152 1.252 . S
O150 Mg140 2.251 . S
O150 Mg143 2.079 . S
O150 C152 1.273 . S
C151 O147 1.246 . S
C151 O148 1.259 . S
C152 O149 1.252 . S
C152 O150 1.273 . S
O153 Mg140 2.010 . S
O153 C145 1.249 . S
Mg154 O155 2.028 . S
Mg154 O161 1.986 . S
Mg154 O163 2.114 . S
Mg154 O164 2.251 . S
Mg154 O167 2.010 . S
O155 Mg154 2.028 . S
O155 C158 1.250 . S
O156 Mg157 2.028 . S
O156 C158 1.248 . S
Mg157 O156 2.028 . S
Mg157 O162 2.032 . S
Mg157 O164 2.079 . S
C158 O155 1.250 . S
C158 O156 1.248 . S
C159 O160 1.264 . S
C159 O167 1.249 . S
O160 C159 1.264 . S
O161 Mg154 1.986 . S
O161 C165 1.246 . S
O162 Mg157 2.032 . S
O162 C165 1.259 . S
O163 Mg154 2.114 . S
O163 C166 1.252 . S
O164 Mg154 2.251 . S
O164 Mg157 2.079 . S
O164 C166 1.273 . S
C165 O161 1.246 . S
C165 O162 1.259 . S
C166 O163 1.252 . S
C166 O164 1.273 . S
O167 Mg154 2.010 . S
O167 C159 1.249 . S
H168 C174 0.930 . S
H169 C177 0.930 . S
H170 C178 0.930 . S
H171 C179 0.930 . S
H172 C182 0.930 . S
H173 C183 0.930 . S
C174 H168 0.930 . S
C174 C175 1.355 . S
C174 C176 1.415 . S
C175 C174 1.355 . S
C175 C177 1.419 . S
C176 C174 1.415 . S
C176 C181 1.425 . S
C176 C183 1.409 . S
C177 H169 0.930 . S
C177 C175 1.419 . S
C177 C178 1.362 . S
C178 H170 0.930 . S
C178 C177 1.362 . S
C178 C181 1.409 . S
C179 H171 0.930 . S
C179 C180 1.355 . S
C179 C181 1.415 . S
C180 C179 1.355 . S
C180 C182 1.419 . S
C181 C176 1.425 . S
C181 C178 1.409 . S
C181 C179 1.415 . S
C182 H172 0.930 . S
C182 C180 1.419 . S
C182 C183 1.362 . S
C183 H173 0.930 . S
C183 C176 1.409 . S
C183 C182 1.362 . S
H184 C190 0.930 . S
H185 C193 0.930 . S
H186 C194 0.930 . S
H187 C195 0.930 . S
H188 C198 0.930 . S
H189 C199 0.930 . S
C190 H184 0.930 . S
C190 C191 1.355 . S
C190 C192 1.415 . S
C191 C190 1.355 . S
C191 C193 1.419 . S
C192 C190 1.415 . S
C192 C197 1.425 . S
C192 C199 1.409 . S
C193 H185 0.930 . S
C193 C191 1.419 . S
C193 C194 1.362 . S
C194 H186 0.930 . S
C194 C193 1.362 . S
C194 C197 1.409 . S
C195 H187 0.930 . S
C195 C196 1.355 . S
C195 C197 1.415 . S
C196 C195 1.355 . S
C196 C198 1.419 . S
C197 C192 1.425 . S
C197 C194 1.409 . S
C197 C195 1.415 . S
C198 H188 0.930 . S
C198 C196 1.419 . S
C198 C199 1.362 . S
C199 H189 0.930 . S
C199 C192 1.409 . S
C199 C198 1.362 . S
H200 C206 0.930 . S
H201 C209 0.930 . S
H202 C210 0.930 . S
H203 C211 0.930 . S
H204 C214 0.930 . S
H205 C215 0.930 . S
C206 H200 0.930 . S
C206 C207 1.355 . S
C206 C208 1.415 . S
C207 C206 1.355 . S
C207 C209 1.419 . S
C208 C206 1.415 . S
C208 C213 1.425 . S
C208 C215 1.409 . S
C209 H201 0.930 . S
C209 C207 1.419 . S
C209 C210 1.362 . S
C210 H202 0.930 . S
C210 C209 1.362 . S
C210 C213 1.409 . S
C211 H203 0.930 . S
C211 C212 1.355 . S
C211 C213 1.415 . S
C212 C211 1.355 . S
C212 C214 1.419 . S
C213 C208 1.425 . S
C213 C210 1.409 . S
C213 C211 1.415 . S
C214 H204 0.930 . S
C214 C212 1.419 . S
C214 C215 1.362 . S
C215 H205 0.930 . S
C215 C208 1.409 . S
C215 C214 1.362 . S
H216 C222 0.930 . S
H217 C225 0.930 . S
H218 C226 0.930 . S
H219 C227 0.930 . S
H220 C230 0.930 . S
H221 C231 0.930 . S
C222 H216 0.930 . S
C222 C223 1.355 . S
C222 C224 1.415 . S
C223 C222 1.355 . S
C223 C225 1.419 . S
C224 C222 1.415 . S
C224 C229 1.425 . S
C224 C231 1.409 . S
C225 H217 0.930 . S
C225 C223 1.419 . S
C225 C226 1.362 . S
C226 H218 0.930 . S
C226 C225 1.362 . S
C226 C229 1.409 . S
C227 H219 0.930 . S
C227 C228 1.355 . S
C227 C229 1.415 . S
C228 C227 1.355 . S
C228 C230 1.419 . S
C229 C224 1.425 . S
C229 C226 1.409 . S
C229 C227 1.415 . S
C230 H220 0.930 . S
C230 C228 1.419 . S
C230 C231 1.362 . S
C231 H221 0.930 . S
C231 C224 1.409 . S
C231 C230 1.362 . S
H232 C238 0.930 . S
H233 C241 0.930 . S
H234 C242 0.930 . S
H235 C243 0.930 . S
H236 C246 0.930 . S
H237 C247 0.930 . S
C238 H232 0.930 . S
C238 C239 1.355 . S
C238 C240 1.415 1_554 S
C239 C238 1.355 . S
C239 C241 1.419 . S
C240 C238 1.415 1_556 S
C240 C245 1.425 1_556 S
C240 C247 1.409 . S
C241 H233 0.930 . S
C241 C239 1.419 . S
C241 C242 1.362 . S
C242 H234 0.930 . S
C242 C241 1.362 . S
C242 C245 1.409 . S
C243 H235 0.930 . S
C243 C244 1.355 . S
C243 C245 1.415 1_556 S
C244 C243 1.355 . S
C244 C246 1.419 . S
C245 C240 1.425 1_554 S
C245 C242 1.409 . S
C245 C243 1.415 1_554 S
C246 H236 0.930 . S
C246 C244 1.419 . S
C246 C247 1.362 . S
C247 H237 0.930 . S
C247 C240 1.409 . S
C247 C246 1.362 . S
H248 C254 0.930 . S
H249 C257 0.930 . S
H250 C258 0.930 . S
H251 C259 0.930 . S
H252 C262 0.930 . S
H253 C263 0.930 . S
C254 H248 0.930 . S
C254 C255 1.355 . S
C254 C256 1.415 . S
C255 C254 1.355 . S
C255 C257 1.419 . S
C256 C254 1.415 . S
C256 C261 1.425 . S
C256 C263 1.409 . S
C257 H249 0.930 . S
C257 C255 1.419 . S
C257 C258 1.362 . S
C258 H250 0.930 . S
C258 C257 1.362 . S
C258 C261 1.409 . S
C259 H251 0.930 . S
C259 C260 1.355 . S
C259 C261 1.415 . S
C260 C259 1.355 . S
C260 C262 1.419 . S
C261 C256 1.425 . S
C261 C258 1.409 . S
C261 C259 1.415 . S
C262 H252 0.930 . S
C262 C260 1.419 . S
C262 C263 1.362 . S
C263 H253 0.930 . S
C263 C256 1.409 . S
C263 C262 1.362 . S
H264 C270 0.930 . S
H265 C273 0.930 . S
H266 C274 0.930 . S
H267 C275 0.930 . S
H268 C278 0.930 . S
H269 C279 0.930 . S
C270 H264 0.930 . S
C270 C271 1.355 . S
C270 C272 1.415 . S
C271 C270 1.355 . S
C271 C273 1.419 . S
C272 C270 1.415 . S
C272 C277 1.425 . S
C272 C279 1.409 . S
C273 H265 0.930 . S
C273 C271 1.419 . S
C273 C274 1.362 . S
C274 H266 0.930 . S
C274 C273 1.362 . S
C274 C277 1.409 . S
C275 H267 0.930 . S
C275 C276 1.355 . S
C275 C277 1.415 . S
C276 C275 1.355 . S
C276 C278 1.419 . S
C277 C272 1.425 . S
C277 C274 1.409 . S
C277 C275 1.415 . S
C278 H268 0.930 . S
C278 C276 1.419 . S
C278 C279 1.362 . S
C279 H269 0.930 . S
C279 C272 1.409 . S
C279 C278 1.362 . S
H280 C286 0.930 . S
H281 C289 0.930 . S
H282 C290 0.930 . S
H283 C291 0.930 . S
H284 C294 0.930 . S
H285 C295 0.930 . S
C286 H280 0.930 . S
C286 C287 1.355 . S
C286 C288 1.415 . S
C287 C286 1.355 . S
C287 C289 1.419 . S
C288 C286 1.415 . S
C288 C293 1.425 . S
C288 C295 1.409 . S
C289 H281 0.930 . S
C289 C287 1.419 . S
C289 C290 1.362 . S
C290 H282 0.930 . S
C290 C289 1.362 . S
C290 C293 1.409 . S
C291 H283 0.930 . S
C291 C292 1.355 . S
C291 C293 1.415 . S
C292 C291 1.355 . S
C292 C294 1.419 . S
C293 C288 1.425 . S
C293 C290 1.409 . S
C293 C291 1.415 . S
C294 H284 0.930 . S
C294 C292 1.419 . S
C294 C295 1.362 . S
C295 H285 0.930 . S
C295 C288 1.409 . S
C295 C294 1.362 . S
H296 C302 0.930 . S
H297 C305 0.930 . S
H298 C306 0.930 . S
H299 C307 0.930 . S
H300 C310 0.930 . S
H301 C311 0.930 . S
C302 H296 0.930 . S
C302 C303 1.355 . S
C302 C304 1.415 . S
C303 C302 1.355 . S
C303 C305 1.419 . S
C304 C302 1.415 . S
C304 C309 1.425 . S
C304 C311 1.409 . S
C305 H297 0.930 . S
C305 C303 1.419 . S
C305 C306 1.362 . S
C306 H298 0.930 . S
C306 C305 1.362 . S
C306 C309 1.409 . S
C307 H299 0.930 . S
C307 C308 1.355 . S
C307 C309 1.415 . S
C308 C307 1.355 . S
C308 C310 1.419 . S
C309 C304 1.425 . S
C309 C306 1.409 . S
C309 C307 1.415 . S
C310 H300 0.930 . S
C310 C308 1.419 . S
C310 C311 1.362 . S
C311 H301 0.930 . S
C311 C304 1.409 . S
C311 C310 1.362 . S
H312 C318 0.930 . S
H313 C321 0.930 . S
H314 C322 0.930 . S
H315 C323 0.930 . S
H316 C326 0.930 . S
H317 C327 0.930 . S
C318 H312 0.930 . S
C318 C319 1.355 . S
C318 C320 1.415 . S
C319 C318 1.355 . S
C319 C321 1.419 . S
C320 C318 1.415 . S
C320 C325 1.425 . S
C320 C327 1.409 . S
C321 H313 0.930 . S
C321 C319 1.419 . S
C321 C322 1.362 . S
C322 H314 0.930 . S
C322 C321 1.362 . S
C322 C325 1.409 . S
C323 H315 0.930 . S
C323 C324 1.355 . S
C323 C325 1.415 . S
C324 C323 1.355 . S
C324 C326 1.419 . S
C325 C320 1.425 . S
C325 C322 1.409 . S
C325 C323 1.415 . S
C326 H316 0.930 . S
C326 C324 1.419 . S
C326 C327 1.362 . S
C327 H317 0.930 . S
C327 C320 1.409 . S
C327 C326 1.362 . S
H328 C334 0.930 . S
H329 C337 0.930 . S
H330 C338 0.930 . S
H331 C339 0.930 . S
H332 C342 0.930 . S
H333 C343 0.930 . S
C334 H328 0.930 . S
C334 C335 1.355 . S
C334 C336 1.415 . S
C335 C334 1.355 . S
C335 C337 1.419 . S
C336 C334 1.415 . S
C336 C341 1.425 . S
C336 C343 1.409 . S
C337 H329 0.930 . S
C337 C335 1.419 . S
C337 C338 1.362 . S
C338 H330 0.930 . S
C338 C337 1.362 . S
C338 C341 1.409 . S
C339 H331 0.930 . S
C339 C340 1.355 . S
C339 C341 1.415 . S
C340 C339 1.355 . S
C340 C342 1.419 . S
C341 C336 1.425 . S
C341 C338 1.409 . S
C341 C339 1.415 . S
C342 H332 0.930 . S
C342 C340 1.419 . S
C342 C343 1.362 . S
C343 H333 0.930 . S
C343 C336 1.409 . S
C343 C342 1.362 . S
H344 C350 0.930 . S
H345 C353 0.930 . S
H346 C354 0.930 . S
H347 C355 0.930 . S
H348 C358 0.930 . S
H349 C359 0.930 . S
C350 H344 0.930 . S
C350 C351 1.355 . S
C350 C352 1.415 . S
C351 C350 1.355 . S
C351 C353 1.419 1_556 S
C352 C350 1.415 . S
C352 C357 1.425 1_556 S
C352 C359 1.409 . S
C353 H345 0.930 . S
C353 C351 1.419 1_554 S
C353 C354 1.362 . S
C354 H346 0.930 . S
C354 C353 1.362 . S
C354 C357 1.409 . S
C355 H347 0.930 . S
C355 C356 1.355 . S
C355 C357 1.415 . S
C356 C355 1.355 . S
C356 C358 1.419 1_554 S
C357 C352 1.425 1_554 S
C357 C354 1.409 . S
C357 C355 1.415 . S
C358 H348 0.930 . S
C358 C356 1.419 1_556 S
C358 C359 1.362 . S
C359 H349 0.930 . S
C359 C352 1.409 . S
C359 C358 1.362 . S
H360 C366 0.930 . S
H361 C369 0.930 . S
H362 C370 0.930 . S
H363 C371 0.930 . S
H364 C374 0.930 . S
H365 C375 0.930 . S
C366 H360 0.930 . S
C366 C367 1.355 . S
C366 C368 1.415 . S
C367 C366 1.355 . S
C367 C369 1.419 . S
C368 C366 1.415 . S
C368 C373 1.425 . S
C368 C375 1.409 . S
C369 H361 0.930 . S
C369 C367 1.419 . S
C369 C370 1.362 . S
C370 H362 0.930 . S
C370 C369 1.362 . S
C370 C373 1.409 . S
C371 H363 0.930 . S
C371 C372 1.355 . S
C371 C373 1.415 . S
C372 C371 1.355 . S
C372 C374 1.419 . S
C373 C368 1.425 . S
C373 C370 1.409 . S
C373 C371 1.415 . S
C374 H364 0.930 . S
C374 C372 1.419 . S
C374 C375 1.362 . S
C375 H365 0.930 . S
C375 C368 1.409 . S
C375 C374 1.362 . S
H376 C382 0.930 . S
H377 C385 0.930 . S
H378 C386 0.930 . S
H379 C387 0.930 . S
H380 C390 0.930 . S
H381 C391 0.930 . S
C382 H376 0.930 . S
C382 C383 1.355 . S
C382 C384 1.415 . S
C383 C382 1.355 . S
C383 C385 1.419 . S
C384 C382 1.415 . S
C384 C389 1.425 1_556 S
C384 C391 1.409 . S
C385 H377 0.930 . S
C385 C383 1.419 . S
C385 C386 1.362 1_556 S
C386 H378 0.930 . S
C386 C385 1.362 1_554 S
C386 C389 1.409 . S
C387 H379 0.930 . S
C387 C388 1.355 . S
C387 C389 1.415 . S
C388 C387 1.355 . S
C388 C390 1.419 . S
C389 C384 1.425 1_554 S
C389 C386 1.409 . S
C389 C387 1.415 . S
C390 H380 0.930 . S
C390 C388 1.419 . S
C390 C391 1.362 1_554 S
C391 H381 0.930 . S
C391 C384 1.409 . S
C391 C390 1.362 1_556 S
H392 C398 0.930 . S
H393 C401 0.930 . S
H394 C402 0.930 . S
H395 C403 0.930 . S
H396 C406 0.930 . S
H397 C407 0.930 . S
C398 H392 0.930 . S
C398 C399 1.355 . S
C398 C400 1.415 . S
C399 C398 1.355 . S
C399 C401 1.419 . S
C400 C398 1.415 . S
C400 C405 1.425 . S
C400 C407 1.409 . S
C401 H393 0.930 . S
C401 C399 1.419 . S
C401 C402 1.362 . S
C402 H394 0.930 . S
C402 C401 1.362 . S
C402 C405 1.409 . S
C403 H395 0.930 . S
C403 C404 1.355 . S
C403 C405 1.415 . S
C404 C403 1.355 . S
C404 C406 1.419 . S
C405 C400 1.425 . S
C405 C402 1.409 . S
C405 C403 1.415 . S
C406 H396 0.930 . S
C406 C404 1.419 . S
C406 C407 1.362 . S
C407 H397 0.930 . S
C407 C400 1.409 . S
C407 C406 1.362 . S
H408 C414 0.930 . S
H409 C417 0.930 . S
H410 C418 0.930 . S
H411 C419 0.930 . S
H412 C422 0.930 . S
H413 C423 0.930 . S
C414 H408 0.930 . S
C414 C415 1.355 . S
C414 C416 1.415 . S
C415 C414 1.355 . S
C415 C417 1.419 . S
C416 C414 1.415 . S
C416 C421 1.425 . S
C416 C423 1.409 . S
C417 H409 0.930 . S
C417 C415 1.419 . S
C417 C418 1.362 . S
C418 H410 0.930 . S
C418 C417 1.362 . S
C418 C421 1.409 . S
C419 H411 0.930 . S
C419 C420 1.355 . S
C419 C421 1.415 . S
C420 C419 1.355 . S
C420 C422 1.419 . S
C421 C416 1.425 . S
C421 C418 1.409 . S
C421 C419 1.415 . S
C422 H412 0.930 . S
C422 C420 1.419 . S
C422 C423 1.362 . S
C423 H413 0.930 . S
C423 C416 1.409 . S
C423 C422 1.362 . S
H424 C430 0.930 . S
H425 C433 0.930 . S
H426 C434 0.930 . S
H427 C435 0.930 . S
H428 C438 0.930 . S
H429 C439 0.930 . S
C430 H424 0.930 . S
C430 C431 1.355 . S
C430 C432 1.415 . S
C431 C430 1.355 . S
C431 C433 1.419 . S
C432 C430 1.415 . S
C432 C437 1.425 . S
C432 C439 1.409 . S
C433 H425 0.930 . S
C433 C431 1.419 . S
C433 C434 1.362 . S
C434 H426 0.930 . S
C434 C433 1.362 . S
C434 C437 1.409 . S
C435 H427 0.930 . S
C435 C436 1.355 . S
C435 C437 1.415 . S
C436 C435 1.355 . S
C436 C438 1.419 . S
C437 C432 1.425 . S
C437 C434 1.409 . S
C437 C435 1.415 . S
C438 H428 0.930 . S
C438 C436 1.419 . S
C438 C439 1.362 . S
C439 H429 0.930 . S
C439 C432 1.409 . S
C439 C438 1.362 . S
H440 C446 0.930 . S
H441 C449 0.930 . S
H442 C450 0.930 . S
H443 C451 0.930 . S
H444 C454 0.930 . S
H445 C455 0.930 . S
C446 H440 0.930 . S
C446 C447 1.355 . S
C446 C448 1.415 . S
C447 C446 1.355 . S
C447 C449 1.419 . S
C448 C446 1.415 . S
C448 C453 1.425 . S
C448 C455 1.409 . S
C449 H441 0.930 . S
C449 C447 1.419 . S
C449 C450 1.362 . S
C450 H442 0.930 . S
C450 C449 1.362 . S
C450 C453 1.409 . S
C451 H443 0.930 . S
C451 C452 1.355 . S
C451 C453 1.415 . S
C452 C451 1.355 . S
C452 C454 1.419 . S
C453 C448 1.425 . S
C453 C450 1.409 . S
C453 C451 1.415 . S
C454 H444 0.930 . S
C454 C452 1.419 . S
C454 C455 1.362 . S
C455 H445 0.930 . S
C455 C448 1.409 . S
C455 C454 1.362 . S
H456 C462 0.930 . S
H457 C465 0.930 . S
H458 C466 0.930 . S
H459 C467 0.930 . S
H460 C470 0.930 . S
H461 C471 0.930 . S
C462 H456 0.930 . S
C462 C463 1.355 . S
C462 C464 1.415 . S
C463 C462 1.355 . S
C463 C465 1.419 . S
C464 C462 1.415 . S
C464 C469 1.425 1_545 S
C464 C471 1.409 1_545 S
C465 H457 0.930 . S
C465 C463 1.419 . S
C465 C466 1.362 . S
C466 H458 0.930 . S
C466 C465 1.362 . S
C466 C469 1.409 1_545 S
C467 H459 0.930 . S
C467 C468 1.355 . S
C467 C469 1.415 . S
C468 C467 1.355 . S
C468 C470 1.419 . S
C469 C464 1.425 1_565 S
C469 C466 1.409 1_565 S
C469 C467 1.415 . S
C470 H460 0.930 . S
C470 C468 1.419 . S
C470 C471 1.362 . S
C471 H461 0.930 . S
C471 C464 1.409 1_565 S
C471 C470 1.362 . S
H472 C478 0.930 . S
H473 C481 0.930 . S
H474 C482 0.930 . S
H475 C483 0.930 . S
H476 C486 0.930 . S
H477 C487 0.930 . S
C478 H472 0.930 . S
C478 C479 1.355 . S
C478 C480 1.415 . S
C479 C478 1.355 . S
C479 C481 1.419 . S
C480 C478 1.415 . S
C480 C485 1.425 . S
C480 C487 1.409 . S
C481 H473 0.930 . S
C481 C479 1.419 . S
C481 C482 1.362 . S
C482 H474 0.930 . S
C482 C481 1.362 . S
C482 C485 1.409 . S
C483 H475 0.930 . S
C483 C484 1.355 . S
C483 C485 1.415 . S
C484 C483 1.355 . S
C484 C486 1.419 . S
C485 C480 1.425 . S
C485 C482 1.409 . S
C485 C483 1.415 . S
C486 H476 0.930 . S
C486 C484 1.419 . S
C486 C487 1.362 . S
C487 H477 0.930 . S
C487 C480 1.409 . S
C487 C486 1.362 . S
H488 C494 0.930 . S
H489 C497 0.930 . S
H490 C498 0.930 . S
H491 C499 0.930 . S
H492 C502 0.930 . S
H493 C503 0.930 . S
C494 H488 0.930 . S
C494 C495 1.355 . S
C494 C496 1.415 . S
C495 C494 1.355 . S
C495 C497 1.419 . S
C496 C494 1.415 . S
C496 C501 1.425 1_455 S
C496 C503 1.409 1_455 S
C497 H489 0.930 . S
C497 C495 1.419 . S
C497 C498 1.362 . S
C498 H490 0.930 . S
C498 C497 1.362 . S
C498 C501 1.409 1_455 S
C499 H491 0.930 . S
C499 C500 1.355 . S
C499 C501 1.415 . S
C500 C499 1.355 . S
C500 C502 1.419 . S
C501 C496 1.425 1_655 S
C501 C498 1.409 1_655 S
C501 C499 1.415 . S
C502 H492 0.930 . S
C502 C500 1.419 . S
C502 C503 1.362 . S
C503 H493 0.930 . S
C503 C496 1.409 1_655 S
C503 C502 1.362 . S
H504 C510 0.930 . S
H505 C513 0.930 . S
H506 C514 0.930 . S
H507 C515 0.930 . S
H508 C518 0.930 . S
H509 C519 0.930 . S
C510 H504 0.930 . S
C510 C511 1.355 . S
C510 C512 1.415 . S
C511 C510 1.355 . S
C511 C513 1.419 . S
C512 C510 1.415 . S
C512 C517 1.425 1_565 S
C512 C519 1.409 1_565 S
C513 H505 0.930 . S
C513 C511 1.419 . S
C513 C514 1.362 . S
C514 H506 0.930 . S
C514 C513 1.362 . S
C514 C517 1.409 1_565 S
C515 H507 0.930 . S
C515 C516 1.355 . S
C515 C517 1.415 . S
C516 C515 1.355 . S
C516 C518 1.419 . S
C517 C512 1.425 1_545 S
C517 C514 1.409 1_545 S
C517 C515 1.415 . S
C518 H508 0.930 . S
C518 C516 1.419 . S
C518 C519 1.362 . S
C519 H509 0.930 . S
C519 C512 1.409 1_545 S
C519 C518 1.362 . S
H520 C526 0.930 . S
H521 C529 0.930 . S
H522 C530 0.930 . S
H523 C531 0.930 . S
H524 C534 0.930 . S
H525 C535 0.930 . S
C526 H520 0.930 . S
C526 C527 1.355 . S
C526 C528 1.415 . S
C527 C526 1.355 . S
C527 C529 1.419 . S
C528 C526 1.415 . S
C528 C533 1.425 . S
C528 C535 1.409 . S
C529 H521 0.930 . S
C529 C527 1.419 . S
C529 C530 1.362 . S
C530 H522 0.930 . S
C530 C529 1.362 . S
C530 C533 1.409 . S
C531 H523 0.930 . S
C531 C532 1.355 . S
C531 C533 1.415 . S
C532 C531 1.355 . S
C532 C534 1.419 . S
C533 C528 1.425 . S
C533 C530 1.409 . S
C533 C531 1.415 . S
C534 H524 0.930 . S
C534 C532 1.419 . S
C534 C535 1.362 . S
C535 H525 0.930 . S
C535 C528 1.409 . S
C535 C534 1.362 . S
H536 C542 0.930 . S
H537 C545 0.930 . S
H538 C546 0.930 . S
H539 C547 0.930 . S
H540 C550 0.930 . S
H541 C551 0.930 . S
C542 H536 0.930 . S
C542 C543 1.355 . S
C542 C544 1.415 . S
C543 C542 1.355 . S
C543 C545 1.419 . S
C544 C542 1.415 . S
C544 C549 1.425 1_455 S
C544 C551 1.409 1_455 S
C545 H537 0.930 . S
C545 C543 1.419 . S
C545 C546 1.362 . S
C546 H538 0.930 . S
C546 C545 1.362 . S
C546 C549 1.409 1_455 S
C547 H539 0.930 . S
C547 C548 1.355 . S
C547 C549 1.415 . S
C548 C547 1.355 . S
C548 C550 1.419 . S
C549 C544 1.425 1_655 S
C549 C546 1.409 1_655 S
C549 C547 1.415 . S
C550 H540 0.930 . S
C550 C548 1.419 . S
C550 C551 1.362 . S
C551 H541 0.930 . S
C551 C544 1.409 1_655 S
C551 C550 1.362 . S
C175 C4 1.570 . S
C180 C144 1.603 . S
C191 C18 1.623 . S
C196 C158 1.618 . S
C207 C88 1.576 . S
C212 C32 1.588 . S
C223 C46 1.589 . S
C228 C102 1.632 . S
C239 C116 1.612 . S
C244 C60 1.570 . S
C255 C130 1.571 . S
C260 C74 1.598 . S
C271 C117 1.187 . S
C276 C5 1.152 . S
C287 C19 1.050 . S
C292 C131 1.066 . S
C303 C145 1.146 . S
C308 C33 1.073 . S
C319 C47 1.091 . S
C324 C159 1.047 . S
C335 C61 1.055 . S
C340 C89 1.060 . S
C351 C75 1.140 . S
C356 C103 1.186 . S
C367 C151 1.361 . S
C372 C11 1.393 . S
C383 C165 1.364 . S
C388 C25 1.392 . S
C399 C95 1.335 . S
C404 C39 1.339 . S
C415 C53 1.342 . S
C420 C109 1.332 . S
C431 C67 1.326 . S
C436 C123 1.386 . S
C447 C137 1.385 . S
C452 C81 1.377 . S
C463 C12 1.144 . S
C468 C110 1.197 . S
C479 C124 1.145 . S
C484 C26 1.202 . S
C495 C138 1.173 . S
C500 C40 1.159 . S
C511 C54 1.183 . S
C516 C152 1.151 . S
C527 C68 1.159 . S
C532 C166 1.173 . S
C543 C82 1.196 . S
C548 C96 1.145 . S
