# Generated by pormake.
# Topology wji, (4)-cn, num edge types: 1
# Building blocks:
#     Node 0, Type 0, BuildingBlock: KUFVIS_clean_sbu_0, # of connection points: 4
#     Node 1, Type 0, BuildingBlock: KUFVIS_clean_sbu_0, # of connection points: 4
#     Node 2, Type 0, BuildingBlock: KUFVIS_clean_sbu_0, # of connection points: 4
#     Node 3, Type 0, BuildingBlock: KUFVIS_clean_sbu_0, # of connection points: 4
#     Node 4, Type 0, BuildingBlock: KUFVIS_clean_sbu_0, # of connection points: 4
#     Node 5, Type 0, BuildingBlock: KUFVIS_clean_sbu_0, # of connection points: 4
#     Node 6, Type 0, BuildingBlock: KUFVIS_clean_sbu_0, # of connection points: 4
#     Node 7, Type 0, BuildingBlock: KUFVIS_clean_sbu_0, # of connection points: 4
#     Node 8, Type 0, BuildingBlock: KUFVIS_clean_sbu_0, # of connection points: 4
#     Node 9, Type 0, BuildingBlock: KUFVIS_clean_sbu_0, # of connection points: 4
#     Node 10, Type 0, BuildingBlock: KUFVIS_clean_sbu_0, # of connection points: 4
#     Node 11, Type 0, BuildingBlock: KUFVIS_clean_sbu_0, # of connection points: 4
#     Edge 12, Type (0, 0), BuildingBlock: EYOCIG_clean_linker_4, # of connection points: 2
#     Edge 13, Type (0, 0), BuildingBlock: EYOCIG_clean_linker_4, # of connection points: 2
#     Edge 14, Type (0, 0), BuildingBlock: EYOCIG_clean_linker_4, # of connection points: 2
#     Edge 15, Type (0, 0), BuildingBlock: EYOCIG_clean_linker_4, # of connection points: 2
#     Edge 16, Type (0, 0), BuildingBlock: EYOCIG_clean_linker_4, # of connection points: 2
#     Edge 17, Type (0, 0), BuildingBlock: EYOCIG_clean_linker_4, # of connection points: 2
#     Edge 18, Type (0, 0), BuildingBlock: EYOCIG_clean_linker_4, # of connection points: 2
#     Edge 19, Type (0, 0), BuildingBlock: EYOCIG_clean_linker_4, # of connection points: 2
#     Edge 20, Type (0, 0), BuildingBlock: EYOCIG_clean_linker_4, # of connection points: 2
#     Edge 21, Type (0, 0), BuildingBlock: EYOCIG_clean_linker_4, # of connection points: 2
#     Edge 22, Type (0, 0), BuildingBlock: EYOCIG_clean_linker_4, # of connection points: 2
#     Edge 23, Type (0, 0), BuildingBlock: EYOCIG_clean_linker_4, # of connection points: 2
#     Edge 24, Type (0, 0), BuildingBlock: EYOCIG_clean_linker_4, # of connection points: 2
#     Edge 25, Type (0, 0), BuildingBlock: EYOCIG_clean_linker_4, # of connection points: 2
#     Edge 26, Type (0, 0), BuildingBlock: EYOCIG_clean_linker_4, # of connection points: 2
#     Edge 27, Type (0, 0), BuildingBlock: EYOCIG_clean_linker_4, # of connection points: 2
#     Edge 28, Type (0, 0), BuildingBlock: EYOCIG_clean_linker_4, # of connection points: 2
#     Edge 29, Type (0, 0), BuildingBlock: EYOCIG_clean_linker_4, # of connection points: 2
#     Edge 30, Type (0, 0), BuildingBlock: EYOCIG_clean_linker_4, # of connection points: 2
#     Edge 31, Type (0, 0), BuildingBlock: EYOCIG_clean_linker_4, # of connection points: 2
#     Edge 32, Type (0, 0), BuildingBlock: EYOCIG_clean_linker_4, # of connection points: 2
#     Edge 33, Type (0, 0), BuildingBlock: EYOCIG_clean_linker_4, # of connection points: 2
#     Edge 34, Type (0, 0), BuildingBlock: EYOCIG_clean_linker_4, # of connection points: 2
#     Edge 35, Type (0, 0), BuildingBlock: EYOCIG_clean_linker_4, # of connection points: 2
# Relax obj value: 0.179
# Max RMSD: 0.116
# Mean RMSD: 0.116
data_MOF--net-wji--node1-KUFVIS_clean_sbu_0--edge1-EYOCIG_clean_linker_4
_symmetry_space_group_name_H-M    P1
_symmetry_Int_Tables_number       1
_symmetry_cell_setting            triclinic
loop_
_symmetry_equiv_pos_as_xyz
'x, y, z'
_cell_length_a     44.896958
_cell_length_b     44.897245
_cell_length_c     18.4481
_cell_angle_alpha  89.997545
_cell_angle_beta   90.000517
_cell_angle_gamma 120.00787
loop_
_atom_site_label
_atom_site_type_symbol
_atom_site_fract_x
_atom_site_fract_y
_atom_site_fract_z
_atom_type_partial_charge
Mn0 Mn 0.42308 0.32602 0.44585 0.0
Mn1 Mn 0.4285 0.40396 0.43778 0.0
C2 C 0.38775 0.3378 0.51646 0.0
C3 C 0.43631 0.28619 0.49802 0.0
C4 C 0.3987 0.35171 0.31718 0.0
O5 O 0.47183 0.3575 0.4076 0.0
O6 O 0.47409 0.4092 0.4149 0.0
C7 C 0.48015 0.4555 0.5333 0.0
N8 N 0.44624 0.43247 0.52153 0.0
C9 C 0.42932 0.46534 0.59708 0.0
C10 C 0.46396 0.48974 0.60754 0.0
C11 C 0.48949 0.48495 0.57504 0.0
C12 C 0.42152 0.43797 0.54986 0.0
H13 H 0.50011 0.45289 0.5066 0.0
C14 C 0.48798 0.39048 0.40571 0.0
O15 O 0.42511 0.28273 0.43204 0.0
O16 O 0.44176 0.31361 0.53246 0.0
N17 N 0.38516 0.39932 0.46342 0.0
C18 C 0.35387 0.37956 0.43169 0.0
C19 C 0.32519 0.38068 0.45835 0.0
C20 C 0.32912 0.40261 0.51631 0.0
C21 C 0.36163 0.42281 0.54772 0.0
C22 C 0.38893 0.4193 0.52116 0.0
H23 H 0.35069 0.3629 0.38668 0.0
O24 O 0.37805 0.30641 0.49747 0.0
O25 O 0.4169 0.3616 0.49089 0.0
O26 O 0.40048 0.32721 0.34798 0.0
O27 O 0.41007 0.38094 0.3457 0.0
C28 C 0.36828 0.44722 0.60238 0.0
C29 C 0.40233 0.46918 0.62562 0.0
H30 H 0.47125 0.51271 0.63914 0.0
H31 H 0.51635 0.50401 0.5821 0.0
H32 H 0.30023 0.36506 0.43356 0.0
H33 H 0.30713 0.40414 0.53548 0.0
H34 H 0.34773 0.45061 0.62395 0.0
H35 H 0.40762 0.48964 0.66363 0.0
Mn36 Mn 0.10376 0.4198 0.61214 0.0
Mn37 Mn 0.03136 0.4254 0.60381 0.0
C38 C 0.05664 0.38465 0.68293 0.0
C39 C 0.15682 0.433 0.66426 0.0
C40 C 0.05373 0.39542 0.48345 0.0
O41 O 0.12111 0.46851 0.57349 0.0
O42 O 0.07177 0.47095 0.58094 0.0
C43 C 0.0315 0.4771 0.69925 0.0
N44 N 0.02058 0.44318 0.68749 0.0
C45 C 0.9708 0.4263 0.76309 0.0
C46 C 0.98108 0.46095 0.77354 0.0
C47 C 0.01141 0.48646 0.74104 0.0
C48 C 0.99034 0.41849 0.71584 0.0
H49 H 0.05407 0.49704 0.6725 0.0
C50 C 0.10436 0.48473 0.57157 0.0
O51 O 0.14903 0.42171 0.59836 0.0
O52 O 0.13492 0.43858 0.69863 0.0
N53 N 0.99261 0.38209 0.62944 0.0
C54 C 0.98105 0.35078 0.59778 0.0
C55 C 0.95126 0.32212 0.62449 0.0
C56 C 0.93327 0.32608 0.68244 0.0
C57 C 0.94559 0.3586 0.71378 0.0
C58 C 0.9764 0.38589 0.68716 0.0
H59 H 0.99453 0.34758 0.5528 0.0
O60 O 0.07828 0.37487 0.66412 0.0
O61 O 0.06206 0.41378 0.65711 0.0
O62 O 0.07992 0.39708 0.51442 0.0
O63 O 0.03596 0.40694 0.51178 0.0
C64 C 0.92785 0.36527 0.76847 0.0
C65 C 0.93996 0.39932 0.79167 0.0
H66 H 0.96542 0.46826 0.80515 0.0
H67 H 0.01925 0.51333 0.74809 0.0
H68 H 0.94191 0.29715 0.59976 0.0
H69 H 0.90975 0.30409 0.70167 0.0
H70 H 0.90392 0.34473 0.79009 0.0
H71 H 0.92482 0.40463 0.82972 0.0
Mn72 Mn 0.69045 0.10033 0.7783 0.0
Mn73 Mn 0.61247 0.02782 0.77003 0.0
C74 C 0.6786 0.05312 0.8487 0.0
C75 C 0.73032 0.15336 0.83083 0.0
C76 C 0.66471 0.05034 0.64939 0.0
O77 O 0.65901 0.11765 0.74013 0.0
O78 O 0.60728 0.06821 0.74726 0.0
C79 C 0.56098 0.02791 0.86577 0.0
N80 N 0.584 0.01704 0.85386 0.0
C81 C 0.55135 0.96737 0.92989 0.0
C82 C 0.52696 0.97759 0.94055 0.0
C83 C 0.53163 0.00784 0.90787 0.0
C84 C 0.57858 0.98687 0.88231 0.0
H85 H 0.5635 0.05041 0.83893 0.0
C86 C 0.62603 0.10083 0.7381 0.0
O87 O 0.7338 0.1457 0.76479 0.0
O88 O 0.70286 0.13134 0.8651 0.0
N89 N 0.61707 0.98908 0.79554 0.0
C90 C 0.63676 0.97751 0.76366 0.0
C91 C 0.63571 0.94776 0.79039 0.0
C92 C 0.61393 0.92984 0.84861 0.0
C93 C 0.59378 0.94217 0.88016 0.0
C94 C 0.5972 0.97293 0.85346 0.0
H95 H 0.65333 0.99094 0.71849 0.0
O96 O 0.71001 0.07482 0.82981 0.0
O97 O 0.65484 0.05853 0.82315 0.0
O98 O 0.68923 0.0766 0.68026 0.0
O99 O 0.63548 0.03246 0.67791 0.0
C100 C 0.56953 0.9245 0.93516 0.0
C101 C 0.54762 0.93661 0.95859 0.0
H102 H 0.50407 0.96195 0.9724 0.0
H103 H 0.51257 0.01563 0.91504 0.0
H104 H 0.65128 0.93839 0.76549 0.0
H105 H 0.61246 0.90636 0.86787 0.0
H106 H 0.56623 0.90062 0.95687 0.0
H107 H 0.52728 0.92151 0.99691 0.0
Mn108 Mn 0.5962 0.68721 0.94538 0.0
Mn109 Mn 0.59094 0.60934 0.93724 0.0
C110 C 0.63138 0.67539 0.01655 0.0
C111 C 0.58258 0.72684 0.99719 0.0
C112 C 0.62095 0.66176 0.81696 0.0
O113 O 0.54764 0.65572 0.90622 0.0
O114 O 0.54536 0.60403 0.91403 0.0
C115 C 0.53921 0.55772 0.03257 0.0
N116 N 0.57313 0.58075 0.02087 0.0
C117 C 0.59002 0.54786 0.09646 0.0
C118 C 0.55537 0.52345 0.10683 0.0
C119 C 0.52986 0.52826 0.07431 0.0
C120 C 0.59784 0.57525 0.04929 0.0
H121 H 0.51927 0.56035 0.00582 0.0
C122 C 0.5315 0.62275 0.90434 0.0
O123 O 0.59407 0.73044 0.93144 0.0
O124 O 0.5771 0.6994 0.03161 0.0
N125 N 0.63428 0.61404 0.96313 0.0
C126 C 0.66561 0.63385 0.93157 0.0
C127 C 0.69426 0.63271 0.95828 0.0
C128 C 0.69028 0.61071 0.01615 0.0
C129 C 0.65774 0.59046 0.0474 0.0
C130 C 0.63046 0.59398 0.02076 0.0
H131 H 0.66882 0.65055 0.88662 0.0
O132 O 0.64104 0.70681 0.99784 0.0
O133 O 0.60234 0.65161 0.9905 0.0
O134 O 0.61919 0.68624 0.84789 0.0
O135 O 0.60947 0.63247 0.84527 0.0
C136 C 0.65105 0.56599 0.10197 0.0
C137 C 0.61699 0.544 0.12507 0.0
H138 H 0.54806 0.50046 0.13839 0.0
H139 H 0.50299 0.50921 0.08132 0.0
H140 H 0.71925 0.64835 0.93361 0.0
H141 H 0.71226 0.60916 0.03537 0.0
H142 H 0.67159 0.5626 0.12359 0.0
H143 H 0.61168 0.52353 0.16304 0.0
Mn144 Mn 0.916 0.59332 0.1124 0.0
Mn145 Mn 0.98843 0.58773 0.10425 0.0
C146 C 0.96321 0.62865 0.18278 0.0
C147 C 0.86297 0.58026 0.16478 0.0
C148 C 0.96602 0.61751 0.98356 0.0
O149 O 0.89859 0.5445 0.07442 0.0
O150 O 0.948 0.54216 0.08156 0.0
C151 C 0.98826 0.53609 0.19996 0.0
N152 N 0.9992 0.57001 0.18806 0.0
C153 C 0.04899 0.58692 0.26364 0.0
C154 C 0.03869 0.55228 0.27424 0.0
C155 C 1.00835 0.52675 0.24178 0.0
C156 C 0.02945 0.59472 0.21633 0.0
H157 H 0.96568 0.51614 0.17329 0.0
C158 C 0.91538 0.52831 0.0725 0.0
O159 O 0.87068 0.59137 0.09874 0.0
O160 O 0.88494 0.5748 0.19917 0.0
N161 N 0.02721 0.63104 0.12972 0.0
C162 C 0.0388 0.66232 0.09789 0.0
C163 C 0.06862 0.69099 0.12447 0.0
C164 C 0.08661 0.68707 0.18248 0.0
C165 C 0.07425 0.65458 0.21399 0.0
C166 C 0.04341 0.62728 0.18749 0.0
H167 H 0.02532 0.66549 0.05286 0.0
O168 O 0.94156 0.6384 0.1638 0.0
O169 O 0.95776 0.59945 0.15734 0.0
O170 O 0.93975 0.61578 0.01436 0.0
O171 O 0.98385 0.60612 0.01212 0.0
C172 C 0.09199 0.64793 0.26874 0.0
C173 C 0.07985 0.6139 0.29211 0.0
H174 H 0.05434 0.54497 0.3059 0.0
H175 H 1.0005 0.49988 0.24892 0.0
H176 H 0.078 0.71594 0.0996 0.0
H177 H 0.11015 0.70905 0.2016 0.0
H178 H 0.11595 0.66848 0.29026 0.0
H179 H 0.09499 0.60861 0.3302 0.0
Mn180 Mn 0.32899 0.91272 0.27845 0.0
Mn181 Mn 0.40707 0.9851 0.27048 0.0
C182 C 0.34095 0.95984 0.34926 0.0
C183 C 0.28908 0.85961 0.33036 0.0
C184 C 0.35482 0.96285 0.14992 0.0
O185 O 0.36034 0.89537 0.23989 0.0
O186 O 0.41215 0.94467 0.24758 0.0
C187 C 0.45849 0.9848 0.3661 0.0
N188 N 0.43555 0.99579 0.35427 0.0
C189 C 0.46851 0.04554 0.4299 0.0
C190 C 0.49283 0.03521 0.44039 0.0
C191 C 0.48795 1.00485 0.40791 0.0
C192 C 0.44115 0.02604 0.38261 0.0
H193 H 0.45582 0.96221 0.33938 0.0
C194 C 0.39331 0.91209 0.23811 0.0
O195 O 0.28562 0.86746 0.26447 0.0
O196 O 0.31651 0.88151 0.36486 0.0
N197 N 0.40257 0.02388 0.29614 0.0
C198 C 0.38287 0.0355 0.26443 0.0
C199 C 0.38407 0.06532 0.29112 0.0
C200 C 0.40601 0.08327 0.34911 0.0
C201 C 0.42615 0.07088 0.3805 0.0
C202 C 0.42256 0.04004 0.35389 0.0
H203 H 0.3662 0.02205 0.21941 0.0
O204 O 0.30952 0.9382 0.33036 0.0
O205 O 0.36467 0.9544 0.32357 0.0
O206 O 0.33024 0.93664 0.18075 0.0
O207 O 0.38409 0.98059 0.17837 0.0
C208 C 0.45056 0.08858 0.43521 0.0
C209 C 0.47244 0.07641 0.45846 0.0
H210 H 0.51581 0.05083 0.47202 0.0
H211 H 0.50693 0.99695 0.415 0.0
H212 H 0.3685 0.07472 0.26635 0.0
H213 H 0.4076 0.10681 0.36832 0.0
H214 H 0.454 0.11254 0.45682 0.0
H215 H 0.49289 0.09152 0.49653 0.0
Mn216 Mn 0.69053 0.59357 0.38872 0.0
Mn217 Mn 0.6125 0.58798 0.39671 0.0
C218 C 0.67858 0.62872 0.31779 0.0
C219 C 0.73046 0.58036 0.33678 0.0
C220 C 0.66479 0.61803 0.5172 0.0
O221 O 0.65913 0.54486 0.42739 0.0
O222 O 0.60737 0.54247 0.4199 0.0
C223 C 0.56109 0.53617 0.30115 0.0
N224 N 0.58399 0.57011 0.31297 0.0
C225 C 0.55104 0.58683 0.23716 0.0
C226 C 0.52675 0.55216 0.22668 0.0
C227 C 0.53166 0.52671 0.25924 0.0
C228 C 0.57839 0.59474 0.28451 0.0
H229 H 0.56378 0.51627 0.32793 0.0
C230 C 0.62615 0.52867 0.42937 0.0
O231 O 0.73391 0.59166 0.40266 0.0
O232 O 0.703 0.57479 0.30232 0.0
N233 N 0.61701 0.63124 0.37083 0.0
C234 C 0.63671 0.66259 0.40242 0.0
C235 C 0.6355 0.69118 0.37561 0.0
C236 C 0.61353 0.68713 0.31763 0.0
C237 C 0.59338 0.65458 0.28637 0.0
C238 C 0.59698 0.62736 0.3131 0.0
H239 H 0.6534 0.66585 0.44743 0.0
O240 O 0.71001 0.6385 0.33665 0.0
O241 O 0.65486 0.59959 0.3436 0.0
O242 O 0.68932 0.61629 0.48641 0.0
O243 O 0.63553 0.60655 0.48874 0.0
C244 C 0.56896 0.64782 0.23165 0.0
C245 C 0.5471 0.61374 0.20849 0.0
H246 H 0.50378 0.54477 0.19501 0.0
H247 H 0.5127 0.49982 0.25215 0.0
H248 H 0.65108 0.71618 0.40027 0.0
H249 H 0.61193 0.70907 0.29832 0.0
H250 H 0.56552 0.66831 0.20995 0.0
H251 H 0.52665 0.60837 0.17038 0.0
Mn252 Mn 0.10378 0.68715 0.55503 0.0
Mn253 Mn 0.03134 0.60916 0.56338 0.0
C254 C 0.05662 0.67524 0.48447 0.0
C255 C 0.15679 0.727 0.5026 0.0
C256 C 0.05379 0.66146 0.68387 0.0
O257 O 0.12114 0.65577 0.5934 0.0
O258 O 0.07175 0.604 0.58616 0.0
C259 C 0.03141 0.55758 0.46792 0.0
N260 N 0.02054 0.58061 0.47968 0.0
C261 C 0.97075 0.54776 0.40408 0.0
C262 C 0.98097 0.52335 0.39363 0.0
C263 C 0.01128 0.52813 0.42615 0.0
C264 C 0.99032 0.57511 0.45134 0.0
H265 H 0.05396 0.56017 0.49467 0.0
C266 C 0.10436 0.62279 0.59537 0.0
O267 O 0.1491 0.73051 0.56859 0.0
O268 O 0.13483 0.69952 0.46833 0.0
N269 N 0.99261 0.61374 0.53782 0.0
C270 C 0.98108 0.63351 0.56953 0.0
C271 C 0.9513 0.63242 0.54284 0.0
C272 C 0.93331 0.6105 0.48484 0.0
C273 C 0.94561 0.59029 0.45345 0.0
C274 C 0.9764 0.59378 0.48006 0.0
H275 H 0.99457 0.65017 0.61454 0.0
O276 O 0.07829 0.70666 0.50335 0.0
O277 O 0.06203 0.6515 0.51013 0.0
O278 O 0.08002 0.68599 0.65295 0.0
O279 O 0.03597 0.6322 0.65543 0.0
C280 C 0.92786 0.56591 0.39872 0.0
C281 C 0.93993 0.54394 0.37549 0.0
H282 H 0.96529 0.50039 0.36201 0.0
H283 H 0.01909 0.50907 0.4191 0.0
H284 H 0.94197 0.64804 0.5676 0.0
H285 H 0.9098 0.609 0.46562 0.0
H286 H 0.90394 0.56255 0.37711 0.0
H287 H 0.92478 0.52351 0.33743 0.0
Mn288 Mn 0.42305 0.10052 0.72153 0.0
Mn289 Mn 0.4285 0.02802 0.72959 0.0
C290 C 0.38779 0.05342 0.65077 0.0
C291 C 0.43629 0.15362 0.66957 0.0
C292 C 0.39866 0.05043 0.85014 0.0
O293 O 0.47178 0.11779 0.75994 0.0
O294 O 0.47408 0.06837 0.75248 0.0
C295 C 0.48016 0.02813 0.63412 0.0
N296 N 0.44625 0.01724 0.64586 0.0
C297 C 0.42933 0.96741 0.57039 0.0
C298 C 0.46398 0.97765 0.55999 0.0
C299 C 0.4895 0.00799 0.59246 0.0
C300 C 0.42153 0.987 0.61755 0.0
H301 H 0.50012 0.0507 0.66082 0.0
C302 C 0.48794 0.10098 0.76179 0.0
O303 O 0.42504 0.14582 0.7355 0.0
O304 O 0.44178 0.13169 0.63506 0.0
N305 N 0.38517 0.98931 0.70395 0.0
C306 C 0.35387 0.97777 0.73566 0.0
C307 C 0.3252 0.94796 0.70903 0.0
C308 C 0.32913 0.92995 0.65111 0.0
C309 C 0.36165 0.94225 0.61971 0.0
C310 C 0.38894 0.97308 0.64624 0.0
H311 H 0.35069 0.99127 0.78064 0.0
O312 O 0.37806 0.07509 0.66972 0.0
O313 O 0.41693 0.05879 0.67644 0.0
O314 O 0.4004 0.07668 0.8193 0.0
O315 O 0.41007 0.0326 0.82167 0.0
C316 C 0.3683 0.92448 0.5651 0.0
C317 C 0.40235 0.93656 0.54189 0.0
H318 H 0.47128 0.96196 0.52846 0.0
H319 H 0.51637 0.0158 0.58545 0.0
H320 H 0.30023 0.93861 0.73381 0.0
H321 H 0.30715 0.90641 0.63196 0.0
H322 H 0.34775 0.90053 0.54356 0.0
H323 H 0.40765 0.92139 0.50392 0.0
Mn324 Mn 0.32907 0.41965 0.88857 0.0
Mn325 Mn 0.4071 0.42528 0.89681 0.0
C326 C 0.34096 0.38434 0.81819 0.0
C327 C 0.28919 0.43277 0.83622 0.0
C328 C 0.35485 0.39546 0.01741 0.0
O329 O 0.36045 0.46844 0.92665 0.0
O330 O 0.41221 0.47083 0.91951 0.0
C331 C 0.45858 0.47695 0.80117 0.0
N332 N 0.4356 0.44302 0.81304 0.0
C333 C 0.46848 0.42615 0.7374 0.0
C334 C 0.49283 0.4608 0.72682 0.0
C335 C 0.48801 0.48631 0.75932 0.0
C336 C 0.44115 0.41833 0.78473 0.0
H337 H 0.45594 0.49689 0.82787 0.0
C338 C 0.39343 0.48465 0.92856 0.0
O339 O 0.28572 0.42161 0.90224 0.0
O340 O 0.31662 0.43822 0.80183 0.0
N341 N 0.40258 0.38198 0.87131 0.0
C342 C 0.38288 0.35068 0.9031 0.0
C343 C 0.38403 0.32203 0.87645 0.0
C344 C 0.40593 0.32597 0.81842 0.0
C345 C 0.42608 0.35847 0.78696 0.0
C346 C 0.42255 0.38576 0.81353 0.0
H347 H 0.36623 0.3475 0.94814 0.0
O348 O 0.30955 0.37459 0.83712 0.0
O349 O 0.36471 0.41354 0.84367 0.0
O350 O 0.33032 0.39717 0.98656 0.0
O351 O 0.38409 0.40686 0.98891 0.0
C352 C 0.45046 0.36514 0.73219 0.0
C353 C 0.47236 0.39918 0.70886 0.0
H354 H 0.51578 0.46812 0.69514 0.0
H355 H 0.50702 0.51318 0.75219 0.0
H356 H 0.36845 0.29707 0.90127 0.0
H357 H 0.40748 0.30399 0.79923 0.0
H358 H 0.45386 0.3446 0.7106 0.0
H359 H 0.49278 0.40449 0.67075 0.0
Mn360 Mn 0.9159 0.32578 0.05534 0.0
Mn361 Mn 0.98836 0.40381 0.06336 0.0
C362 C 0.963 0.33773 0.98445 0.0
C363 C 0.86277 0.28584 0.00334 0.0
C364 C 0.96608 0.35151 0.18383 0.0
O365 O 0.8986 0.35718 0.09401 0.0
O366 O 0.94797 0.40895 0.08651 0.0
C367 C 0.98802 0.45526 0.96784 0.0
N368 N 0.99902 0.43233 0.97963 0.0
C369 C 0.04874 0.46528 0.90389 0.0
C370 C 0.03839 0.48959 0.89343 0.0
C371 C 1.00804 0.4847 0.92597 0.0
C372 C 0.02926 0.43792 0.9512 0.0
H373 H 0.96544 0.45258 0.99461 0.0
C374 C 0.91538 0.39016 0.09599 0.0
O375 O 0.87061 0.28239 0.06924 0.0
O376 O 0.88466 0.31331 0.96892 0.0
N377 N 0.0271 0.39929 0.03754 0.0
C378 C 0.03872 0.37958 0.06916 0.0
C379 C 0.06854 0.38078 0.04239 0.0
C380 C 0.08647 0.40275 0.98441 0.0
C381 C 0.07409 0.4229 0.95312 0.0
C382 C 0.04326 0.41931 0.97981 0.0
H383 H 0.02528 0.36289 0.11417 0.0
O384 O 0.94135 0.30631 0.00332 0.0
O385 O 0.95759 0.36145 0.01024 0.0
O386 O 0.93982 0.32698 0.15302 0.0
O387 O 0.98386 0.38078 0.15539 0.0
C388 C 0.09177 0.44732 0.89842 0.0
C389 C 0.07959 0.46921 0.87524 0.0
H390 H 0.054 0.51257 0.86178 0.0
H391 H 1.00013 0.50368 0.91889 0.0
H392 H 0.07794 0.3652 0.06709 0.0
H393 H 0.11001 0.40434 0.96514 0.0
H394 H 0.11571 0.45076 0.87675 0.0
H395 H 0.09468 0.48966 0.83716 0.0
Mn396 Mn 0.59613 0.91248 0.22113 0.0
Mn397 Mn 0.59079 0.98505 0.22915 0.0
C398 C 0.63137 0.9595 0.15014 0.0
C399 C 0.58259 0.85927 0.1692 0.0
C400 C 0.62071 0.96265 0.34962 0.0
O401 O 0.54751 0.89534 0.25996 0.0
O402 O 0.54519 0.94473 0.25213 0.0
C403 C 0.53915 0.98505 0.13378 0.0
N404 N 0.57306 0.99587 0.14545 0.0
C405 C 0.59003 0.0457 0.06994 0.0
C406 C 0.5554 0.03552 0.05956 0.0
C407 C 0.52985 1.00521 0.09209 0.0
C408 C 0.5978 0.02608 0.1171 0.0
H409 H 0.51918 0.9625 0.16052 0.0
C410 C 0.53135 0.91215 0.26173 0.0
O411 O 0.59399 0.8671 0.23504 0.0
O412 O 0.57716 0.88125 0.13479 0.0
N413 N 0.63415 0.02371 0.20344 0.0
C414 C 0.66545 0.03521 0.23513 0.0
C415 C 0.69414 0.065 0.20849 0.0
C416 C 0.69023 0.08303 0.15057 0.0
C417 C 0.65772 0.07076 0.11919 0.0
C418 C 0.63039 0.03995 0.14575 0.0
H419 H 0.66862 0.02171 0.28011 0.0
O420 O 0.64103 0.93776 0.16897 0.0
O421 O 0.60229 0.95422 0.17598 0.0
O422 O 0.61899 0.93641 0.31874 0.0
O423 O 0.60922 0.98043 0.32121 0.0
C424 C 0.65109 0.08856 0.06458 0.0
C425 C 0.61705 0.07652 0.0414 0.0
H426 H 0.54813 0.05121 0.02796 0.0
H427 H 0.50299 0.99744 0.08507 0.0
H428 H 0.7191 0.07432 0.23326 0.0
H429 H 0.71223 0.10655 0.13141 0.0
H430 H 0.67166 0.1125 0.04302 0.0
H431 H 0.61178 0.09172 0.00342 0.0
C432 C 0.35569 0.36453 0.13799 0.0
C433 C 0.3503 0.37737 0.08519 0.0
C434 C 0.3677 0.35253 0.19669 0.0
C435 C 0.38058 0.34715 0.24945 0.0
C436 C 0.02193 0.36437 0.36299 0.0
C437 C 0.04015 0.37725 0.41578 0.0
C438 C 0.99794 0.35235 0.30427 0.0
C439 C 0.97969 0.34696 0.25151 0.0
C440 C 0.65179 0.99456 0.47002 0.0
C441 C 0.6389 0.97628 0.41729 0.0
C442 C 0.66383 0.01859 0.52872 0.0
C443 C 0.66925 0.03682 0.58154 0.0
C444 C 0.66399 0.64905 0.6377 0.0
C445 C 0.66934 0.63618 0.58491 0.0
C446 C 0.65201 0.66105 0.69647 0.0
C447 C 0.63913 0.66639 0.74927 0.0
C448 C 0.02195 0.66056 0.8044 0.0
C449 C 0.04022 0.666 0.75163 0.0
C450 C 0.9979 0.6485 0.86306 0.0
C451 C 0.97962 0.63563 0.9158 0.0
C452 C 0.36769 0.01868 0.9707 0.0
C453 C 0.38055 0.03689 0.91789 0.0
C454 C 0.35569 0.9947 0.02944 0.0
C455 C 0.3503 0.97647 0.08222 0.0
C456 C 0.58564 0.46209 0.42379 0.0
C457 C 0.60795 0.49179 0.42858 0.0
C458 C 0.55455 0.43101 0.41202 0.0
C459 C 0.52485 0.40872 0.40696 0.0
C460 C 0.13053 0.55131 0.5775 0.0
C461 C 0.12309 0.52161 0.57256 0.0
C462 C 0.13052 0.58238 0.58929 0.0
C463 C 0.12307 0.60463 0.59426 0.0
C464 C 0.5545 0.12699 0.75566 0.0
C465 C 0.52482 0.11963 0.76067 0.0
C466 C 0.58555 0.12693 0.74393 0.0
C467 C 0.60781 0.11948 0.73909 0.0
C468 C 0.46493 0.58225 0.9099 0.0
C469 C 0.49463 0.60453 0.90509 0.0
C470 C 0.43385 0.5512 0.92183 0.0
C471 C 0.41158 0.52151 0.92709 0.0
C472 C 0.88929 0.43065 0.09058 0.0
C473 C 0.8967 0.40835 0.09529 0.0
C474 C 0.88929 0.46173 0.07889 0.0
C475 C 0.8967 0.49143 0.07381 0.0
C476 C 0.43367 0.8859 0.24416 0.0
C477 C 0.41141 0.89333 0.23914 0.0
C478 C 0.46477 0.88596 0.25597 0.0
C479 C 0.49449 0.89345 0.26084 0.0
C480 C 0.35365 0.35954 0.7002 0.0
C481 C 0.34717 0.37035 0.754 0.0
C482 C 0.36293 0.35034 0.6346 0.0
C483 C 0.37377 0.34395 0.58073 0.0
C484 C 1.00055 0.35057 0.86647 0.0
C485 C 0.98323 0.34403 0.92025 0.0
C486 C 0.01911 0.3599 0.80095 0.0
C487 C 0.03642 0.37074 0.74715 0.0
C488 C 0.65633 0.99702 0.03218 0.0
C489 C 0.64538 0.97972 0.08597 0.0
C490 C 0.66579 0.01557 0.96666 0.0
C491 C 0.67237 0.03291 0.91289 0.0
C492 C 0.65625 0.66266 0.13446 0.0
C493 C 0.64535 0.6691 0.08071 0.0
C494 C 0.66567 0.65345 0.1999 0.0
C495 C 0.67226 0.64267 0.25364 0.0
C496 C 0.01921 0.66262 0.36635 0.0
C497 C 0.03646 0.66902 0.42021 0.0
C498 C 1.00072 0.65345 0.30076 0.0
C499 C 0.98341 0.64265 0.24697 0.0
C500 C 0.35372 0.9974 0.46719 0.0
C501 C 0.34722 0.98007 0.41343 0.0
C502 C 0.36299 0.01595 0.53272 0.0
C503 C 0.37382 0.03324 0.58654 0.0
C504 C 0.44127 0.23633 0.56528 0.0
C505 C 0.43896 0.25897 0.53434 0.0
C506 C 0.44127 0.20851 0.6026 0.0
C507 C 0.43896 0.18353 0.63339 0.0
C508 C 0.23937 0.43778 0.76889 0.0
C509 C 0.26199 0.43545 0.79987 0.0
C510 C 0.2116 0.43784 0.7315 0.0
C511 C 0.18667 0.4356 0.7006 0.0
C512 C 0.80794 0.2359 0.93608 0.0
C513 C 0.83288 0.25856 0.96706 0.0
C514 C 0.78016 0.2081 0.8985 0.0
C515 C 0.75754 0.1832 0.86735 0.0
C516 C 0.57727 0.8043 0.10189 0.0
C517 C 0.57975 0.8293 0.13291 0.0
C518 C 0.57725 0.77652 0.06432 0.0
C519 C 0.57973 0.75397 0.03341 0.0
C520 C 0.7804 0.57543 0.26965 0.0
C521 C 0.75773 0.57773 0.30055 0.0
C522 C 0.8082 0.57541 0.2322 0.0
C523 C 0.83312 0.57767 0.20117 0.0
C524 C 0.21148 0.77687 0.43495 0.0
C525 C 0.1866 0.75423 0.46608 0.0
C526 C 0.23922 0.80469 0.39742 0.0
C527 C 0.26184 0.82967 0.36652 0.0
loop_
_geom_bond_atom_site_label_1
_geom_bond_atom_site_label_2
_geom_bond_distance
_geom_bond_site_symmetry_2
_ccdc_geom_bond_type
Mn0 O5 2.095 . S
Mn0 O15 2.162 . S
Mn0 O16 2.297 . S
Mn0 O24 2.385 . S
Mn0 O25 2.209 . S
Mn0 O26 2.094 . S
Mn1 O6 2.121 . S
Mn1 N8 2.257 . S
Mn1 N17 2.282 . S
Mn1 O25 2.215 . S
Mn1 O27 2.117 . S
C2 O24 1.234 . S
C2 O25 1.283 . S
C3 O15 1.281 . S
C3 O16 1.236 . S
C4 O26 1.240 . S
C4 O27 1.264 . S
O5 Mn0 2.095 . S
O5 C14 1.250 . S
O6 Mn1 2.121 . S
O6 C14 1.258 . S
C7 N8 1.326 . S
C7 C11 1.460 . S
C7 H13 0.929 . S
N8 Mn1 2.257 . S
N8 C7 1.326 . S
N8 C12 1.362 . S
C9 C10 1.258 . S
C9 C12 1.431 . S
C9 C29 1.449 . S
C10 C9 1.258 . S
C10 C11 1.477 . S
C10 H30 0.931 . S
C11 C7 1.460 . S
C11 C10 1.477 . S
C11 H31 0.930 . S
C12 N8 1.362 . S
C12 C9 1.431 . S
C12 C22 1.476 . S
H13 C7 0.929 . S
C14 O5 1.250 . S
C14 O6 1.258 . S
O15 Mn0 2.162 . S
O15 C3 1.281 . S
O16 Mn0 2.297 . S
O16 C3 1.236 . S
N17 Mn1 2.282 . S
N17 C18 1.328 . S
N17 C22 1.318 . S
C18 N17 1.328 . S
C18 C19 1.457 . S
C18 H23 0.929 . S
C19 C18 1.457 . S
C19 C20 1.291 . S
C19 H32 0.931 . S
C20 C19 1.291 . S
C20 C21 1.373 . S
C20 H33 0.929 . S
C21 C20 1.373 . S
C21 C22 1.396 . S
C21 C28 1.403 . S
C22 C12 1.476 . S
C22 N17 1.318 . S
C22 C21 1.396 . S
H23 C18 0.929 . S
O24 Mn0 2.385 . S
O24 C2 1.234 . S
O25 Mn0 2.209 . S
O25 Mn1 2.215 . S
O25 C2 1.283 . S
O26 Mn0 2.094 . S
O26 C4 1.240 . S
O27 Mn1 2.117 . S
O27 C4 1.264 . S
C28 C21 1.403 . S
C28 C29 1.399 . S
C28 H34 0.929 . S
C29 C9 1.449 . S
C29 C28 1.399 . S
C29 H35 0.930 . S
H30 C10 0.931 . S
H31 C11 0.930 . S
H32 C19 0.931 . S
H33 C20 0.929 . S
H34 C28 0.929 . S
H35 C29 0.930 . S
Mn36 O41 2.095 . S
Mn36 O51 2.162 . S
Mn36 O52 2.297 . S
Mn36 O60 2.385 . S
Mn36 O61 2.209 . S
Mn36 O62 2.094 . S
Mn37 O42 2.121 . S
Mn37 N44 2.257 . S
Mn37 N53 2.282 1_455 S
Mn37 O61 2.215 . S
Mn37 O63 2.117 . S
C38 O60 1.234 . S
C38 O61 1.283 . S
C39 O51 1.281 . S
C39 O52 1.236 . S
C40 O62 1.240 . S
C40 O63 1.264 . S
O41 Mn36 2.095 . S
O41 C50 1.250 . S
O42 Mn37 2.121 . S
O42 C50 1.258 . S
C43 N44 1.326 . S
C43 C47 1.460 . S
C43 H49 0.929 . S
N44 Mn37 2.257 . S
N44 C43 1.326 . S
N44 C48 1.362 1_455 S
C45 C46 1.258 . S
C45 C48 1.431 . S
C45 C65 1.449 . S
C46 C45 1.258 . S
C46 C47 1.477 1_655 S
C46 H66 0.931 . S
C47 C43 1.460 . S
C47 C46 1.477 1_455 S
C47 H67 0.930 . S
C48 N44 1.362 1_655 S
C48 C45 1.431 . S
C48 C58 1.476 . S
H49 C43 0.929 . S
C50 O41 1.250 . S
C50 O42 1.258 . S
O51 Mn36 2.162 . S
O51 C39 1.281 . S
O52 Mn36 2.297 . S
O52 C39 1.236 . S
N53 Mn37 2.282 1_655 S
N53 C54 1.328 . S
N53 C58 1.318 . S
C54 N53 1.328 . S
C54 C55 1.457 . S
C54 H59 0.929 . S
C55 C54 1.457 . S
C55 C56 1.291 . S
C55 H68 0.931 . S
C56 C55 1.291 . S
C56 C57 1.373 . S
C56 H69 0.929 . S
C57 C56 1.373 . S
C57 C58 1.396 . S
C57 C64 1.403 . S
C58 C48 1.476 . S
C58 N53 1.318 . S
C58 C57 1.396 . S
H59 C54 0.929 . S
O60 Mn36 2.385 . S
O60 C38 1.234 . S
O61 Mn36 2.209 . S
O61 Mn37 2.215 . S
O61 C38 1.283 . S
O62 Mn36 2.094 . S
O62 C40 1.240 . S
O63 Mn37 2.117 . S
O63 C40 1.264 . S
C64 C57 1.403 . S
C64 C65 1.399 . S
C64 H70 0.929 . S
C65 C45 1.449 . S
C65 C64 1.399 . S
C65 H71 0.930 . S
H66 C46 0.931 . S
H67 C47 0.930 . S
H68 C55 0.931 . S
H69 C56 0.929 . S
H70 C64 0.929 . S
H71 C65 0.930 . S
Mn72 O77 2.095 . S
Mn72 O87 2.162 . S
Mn72 O88 2.297 . S
Mn72 O96 2.385 . S
Mn72 O97 2.209 . S
Mn72 O98 2.094 . S
Mn73 O78 2.121 . S
Mn73 N80 2.257 . S
Mn73 N89 2.282 1_545 S
Mn73 O97 2.215 . S
Mn73 O99 2.117 . S
C74 O96 1.234 . S
C74 O97 1.283 . S
C75 O87 1.281 . S
C75 O88 1.236 . S
C76 O98 1.240 . S
C76 O99 1.264 . S
O77 Mn72 2.095 . S
O77 C86 1.250 . S
O78 Mn73 2.121 . S
O78 C86 1.258 . S
C79 N80 1.326 . S
C79 C83 1.460 . S
C79 H85 0.929 . S
N80 Mn73 2.257 . S
N80 C79 1.326 . S
N80 C84 1.362 1_545 S
C81 C82 1.258 . S
C81 C84 1.431 . S
C81 C101 1.449 . S
C82 C81 1.258 . S
C82 C83 1.477 1_565 S
C82 H102 0.931 1_556 S
C83 C79 1.460 . S
C83 C82 1.477 1_545 S
C83 H103 0.930 . S
C84 N80 1.362 1_565 S
C84 C81 1.431 . S
C84 C94 1.476 . S
H85 C79 0.929 . S
C86 O77 1.250 . S
C86 O78 1.258 . S
O87 Mn72 2.162 . S
O87 C75 1.281 . S
O88 Mn72 2.297 . S
O88 C75 1.236 . S
N89 Mn73 2.282 1_565 S
N89 C90 1.328 . S
N89 C94 1.318 . S
C90 N89 1.328 . S
C90 C91 1.457 . S
C90 H95 0.929 . S
C91 C90 1.457 . S
C91 C92 1.291 . S
C91 H104 0.931 . S
C92 C91 1.291 . S
C92 C93 1.373 . S
C92 H105 0.929 . S
C93 C92 1.373 . S
C93 C94 1.396 . S
C93 C100 1.403 . S
C94 C84 1.476 . S
C94 N89 1.318 . S
C94 C93 1.396 . S
H95 C90 0.929 . S
O96 Mn72 2.385 . S
O96 C74 1.234 . S
O97 Mn72 2.209 . S
O97 Mn73 2.215 . S
O97 C74 1.283 . S
O98 Mn72 2.094 . S
O98 C76 1.240 . S
O99 Mn73 2.117 . S
O99 C76 1.264 . S
C100 C93 1.403 . S
C100 C101 1.399 . S
C100 H106 0.929 . S
C101 C81 1.449 . S
C101 C100 1.399 . S
C101 H107 0.930 1_556 S
H102 C82 0.931 1_554 S
H103 C83 0.930 . S
H104 C91 0.931 . S
H105 C92 0.929 . S
H106 C100 0.929 . S
H107 C101 0.930 1_554 S
Mn108 O113 2.095 . S
Mn108 O123 2.162 . S
Mn108 O124 2.297 1_556 S
Mn108 O132 2.385 1_556 S
Mn108 O133 2.209 1_556 S
Mn108 O134 2.094 . S
Mn109 O114 2.121 . S
Mn109 N116 2.257 1_556 S
Mn109 N125 2.282 . S
Mn109 O133 2.215 1_556 S
Mn109 O135 2.117 . S
C110 O132 1.234 . S
C110 O133 1.283 . S
C111 O123 1.281 . S
C111 O124 1.236 1_556 S
C112 O134 1.240 . S
C112 O135 1.264 . S
O113 Mn108 2.095 . S
O113 C122 1.250 . S
O114 Mn109 2.121 . S
O114 C122 1.258 . S
C115 N116 1.326 . S
C115 C119 1.460 . S
C115 H121 0.929 . S
N116 Mn109 2.257 1_554 S
N116 C115 1.326 . S
N116 C120 1.362 . S
C117 C118 1.258 . S
C117 C120 1.431 . S
C117 C137 1.449 . S
C118 C117 1.258 . S
C118 C119 1.477 . S
C118 H138 0.931 . S
C119 C115 1.460 . S
C119 C118 1.477 . S
C119 H139 0.930 . S
C120 N116 1.362 . S
C120 C117 1.431 . S
C120 C130 1.476 . S
H121 C115 0.929 . S
C122 O113 1.250 . S
C122 O114 1.258 . S
O123 Mn108 2.162 . S
O123 C111 1.281 . S
O124 Mn108 2.297 1_554 S
O124 C111 1.236 1_554 S
N125 Mn109 2.282 . S
N125 C126 1.328 . S
N125 C130 1.318 1_556 S
C126 N125 1.328 . S
C126 C127 1.457 . S
C126 H131 0.929 . S
C127 C126 1.457 . S
C127 C128 1.291 1_556 S
C127 H140 0.931 . S
C128 C127 1.291 1_554 S
C128 C129 1.373 . S
C128 H141 0.929 . S
C129 C128 1.373 . S
C129 C130 1.396 . S
C129 C136 1.403 . S
C130 C120 1.476 . S
C130 N125 1.318 1_554 S
C130 C129 1.396 . S
H131 C126 0.929 . S
O132 Mn108 2.385 1_554 S
O132 C110 1.234 . S
O133 Mn108 2.209 1_554 S
O133 Mn109 2.215 1_554 S
O133 C110 1.283 . S
O134 Mn108 2.094 . S
O134 C112 1.240 . S
O135 Mn109 2.117 . S
O135 C112 1.264 . S
C136 C129 1.403 . S
C136 C137 1.399 . S
C136 H142 0.929 . S
C137 C117 1.449 . S
C137 C136 1.399 . S
C137 H143 0.930 . S
H138 C118 0.931 . S
H139 C119 0.930 . S
H140 C127 0.931 . S
H141 C128 0.929 . S
H142 C136 0.929 . S
H143 C137 0.930 . S
Mn144 O149 2.095 . S
Mn144 O159 2.162 . S
Mn144 O160 2.297 . S
Mn144 O168 2.385 . S
Mn144 O169 2.209 . S
Mn144 O170 2.094 1_554 S
Mn145 O150 2.121 . S
Mn145 N152 2.257 . S
Mn145 N161 2.282 1_655 S
Mn145 O169 2.215 . S
Mn145 O171 2.117 . S
C146 O168 1.234 . S
C146 O169 1.283 . S
C147 O159 1.281 . S
C147 O160 1.236 . S
C148 O170 1.240 . S
C148 O171 1.264 1_556 S
O149 Mn144 2.095 . S
O149 C158 1.250 . S
O150 Mn145 2.121 . S
O150 C158 1.258 . S
C151 N152 1.326 . S
C151 C155 1.460 . S
C151 H157 0.929 . S
N152 Mn145 2.257 . S
N152 C151 1.326 . S
N152 C156 1.362 1_655 S
C153 C154 1.258 . S
C153 C156 1.431 . S
C153 C173 1.449 . S
C154 C153 1.258 . S
C154 C155 1.477 1_455 S
C154 H174 0.931 . S
C155 C151 1.460 . S
C155 C154 1.477 1_655 S
C155 H175 0.930 . S
C156 N152 1.362 1_455 S
C156 C153 1.431 . S
C156 C166 1.476 . S
H157 C151 0.929 . S
C158 O149 1.250 . S
C158 O150 1.258 . S
O159 Mn144 2.162 . S
O159 C147 1.281 . S
O160 Mn144 2.297 . S
O160 C147 1.236 . S
N161 Mn145 2.282 1_455 S
N161 C162 1.328 . S
N161 C166 1.318 . S
C162 N161 1.328 . S
C162 C163 1.457 . S
C162 H167 0.929 . S
C163 C162 1.457 . S
C163 C164 1.291 . S
C163 H176 0.931 . S
C164 C163 1.291 . S
C164 C165 1.373 . S
C164 H177 0.929 . S
C165 C164 1.373 . S
C165 C166 1.396 . S
C165 C172 1.403 . S
C166 C156 1.476 . S
C166 N161 1.318 . S
C166 C165 1.396 . S
H167 C162 0.929 . S
O168 Mn144 2.385 . S
O168 C146 1.234 . S
O169 Mn144 2.209 . S
O169 Mn145 2.215 . S
O169 C146 1.283 . S
O170 Mn144 2.094 1_556 S
O170 C148 1.240 . S
O171 Mn145 2.117 . S
O171 C148 1.264 1_554 S
C172 C165 1.403 . S
C172 C173 1.399 . S
C172 H178 0.929 . S
C173 C153 1.449 . S
C173 C172 1.399 . S
C173 H179 0.930 . S
H174 C154 0.931 . S
H175 C155 0.930 . S
H176 C163 0.931 . S
H177 C164 0.929 . S
H178 C172 0.929 . S
H179 C173 0.930 . S
Mn180 O185 2.095 . S
Mn180 O195 2.162 . S
Mn180 O196 2.297 . S
Mn180 O204 2.385 . S
Mn180 O205 2.209 . S
Mn180 O206 2.094 . S
Mn181 O186 2.121 . S
Mn181 N188 2.257 . S
Mn181 N197 2.282 1_565 S
Mn181 O205 2.215 . S
Mn181 O207 2.117 . S
C182 O204 1.234 . S
C182 O205 1.283 . S
C183 O195 1.281 . S
C183 O196 1.236 . S
C184 O206 1.240 . S
C184 O207 1.264 . S
O185 Mn180 2.095 . S
O185 C194 1.250 . S
O186 Mn181 2.121 . S
O186 C194 1.258 . S
C187 N188 1.326 . S
C187 C191 1.460 . S
C187 H193 0.929 . S
N188 Mn181 2.257 . S
N188 C187 1.326 . S
N188 C192 1.362 1_565 S
C189 C190 1.258 . S
C189 C192 1.431 . S
C189 C209 1.449 . S
C190 C189 1.258 . S
C190 C191 1.477 1_545 S
C190 H210 0.931 . S
C191 C187 1.460 . S
C191 C190 1.477 1_565 S
C191 H211 0.930 . S
C192 N188 1.362 1_545 S
C192 C189 1.431 . S
C192 C202 1.476 . S
H193 C187 0.929 . S
C194 O185 1.250 . S
C194 O186 1.258 . S
O195 Mn180 2.162 . S
O195 C183 1.281 . S
O196 Mn180 2.297 . S
O196 C183 1.236 . S
N197 Mn181 2.282 1_545 S
N197 C198 1.328 . S
N197 C202 1.318 . S
C198 N197 1.328 . S
C198 C199 1.457 . S
C198 H203 0.929 . S
C199 C198 1.457 . S
C199 C200 1.291 . S
C199 H212 0.931 . S
C200 C199 1.291 . S
C200 C201 1.373 . S
C200 H213 0.929 . S
C201 C200 1.373 . S
C201 C202 1.396 . S
C201 C208 1.403 . S
C202 C192 1.476 . S
C202 N197 1.318 . S
C202 C201 1.396 . S
H203 C198 0.929 . S
O204 Mn180 2.385 . S
O204 C182 1.234 . S
O205 Mn180 2.209 . S
O205 Mn181 2.215 . S
O205 C182 1.283 . S
O206 Mn180 2.094 . S
O206 C184 1.240 . S
O207 Mn181 2.117 . S
O207 C184 1.264 . S
C208 C201 1.403 . S
C208 C209 1.399 . S
C208 H214 0.929 . S
C209 C189 1.449 . S
C209 C208 1.399 . S
C209 H215 0.930 . S
H210 C190 0.931 . S
H211 C191 0.930 . S
H212 C199 0.931 . S
H213 C200 0.929 . S
H214 C208 0.929 . S
H215 C209 0.930 . S
Mn216 O221 2.095 . S
Mn216 O231 2.162 . S
Mn216 O232 2.297 . S
Mn216 O240 2.385 . S
Mn216 O241 2.209 . S
Mn216 O242 2.094 . S
Mn217 O222 2.121 . S
Mn217 N224 2.257 . S
Mn217 N233 2.282 . S
Mn217 O241 2.215 . S
Mn217 O243 2.117 . S
C218 O240 1.234 . S
C218 O241 1.283 . S
C219 O231 1.281 . S
C219 O232 1.236 . S
C220 O242 1.240 . S
C220 O243 1.264 . S
O221 Mn216 2.095 . S
O221 C230 1.250 . S
O222 Mn217 2.121 . S
O222 C230 1.258 . S
C223 N224 1.326 . S
C223 C227 1.460 . S
C223 H229 0.929 . S
N224 Mn217 2.257 . S
N224 C223 1.326 . S
N224 C228 1.362 . S
C225 C226 1.258 . S
C225 C228 1.431 . S
C225 C245 1.449 . S
C226 C225 1.258 . S
C226 C227 1.477 . S
C226 H246 0.931 . S
C227 C223 1.460 . S
C227 C226 1.477 . S
C227 H247 0.930 . S
C228 N224 1.362 . S
C228 C225 1.431 . S
C228 C238 1.476 . S
H229 C223 0.929 . S
C230 O221 1.250 . S
C230 O222 1.258 . S
O231 Mn216 2.162 . S
O231 C219 1.281 . S
O232 Mn216 2.297 . S
O232 C219 1.236 . S
N233 Mn217 2.282 . S
N233 C234 1.328 . S
N233 C238 1.318 . S
C234 N233 1.328 . S
C234 C235 1.457 . S
C234 H239 0.929 . S
C235 C234 1.457 . S
C235 C236 1.291 . S
C235 H248 0.931 . S
C236 C235 1.291 . S
C236 C237 1.373 . S
C236 H249 0.929 . S
C237 C236 1.373 . S
C237 C238 1.396 . S
C237 C244 1.403 . S
C238 C228 1.476 . S
C238 N233 1.318 . S
C238 C237 1.396 . S
H239 C234 0.929 . S
O240 Mn216 2.385 . S
O240 C218 1.234 . S
O241 Mn216 2.209 . S
O241 Mn217 2.215 . S
O241 C218 1.283 . S
O242 Mn216 2.094 . S
O242 C220 1.240 . S
O243 Mn217 2.117 . S
O243 C220 1.264 . S
C244 C237 1.403 . S
C244 C245 1.399 . S
C244 H250 0.929 . S
C245 C225 1.449 . S
C245 C244 1.399 . S
C245 H251 0.930 . S
H246 C226 0.931 . S
H247 C227 0.930 . S
H248 C235 0.931 . S
H249 C236 0.929 . S
H250 C244 0.929 . S
H251 C245 0.930 . S
Mn252 O257 2.095 . S
Mn252 O267 2.162 . S
Mn252 O268 2.297 . S
Mn252 O276 2.385 . S
Mn252 O277 2.209 . S
Mn252 O278 2.094 . S
Mn253 O258 2.121 . S
Mn253 N260 2.257 . S
Mn253 N269 2.282 1_455 S
Mn253 O277 2.215 . S
Mn253 O279 2.117 . S
C254 O276 1.234 . S
C254 O277 1.283 . S
C255 O267 1.281 . S
C255 O268 1.236 . S
C256 O278 1.240 . S
C256 O279 1.264 . S
O257 Mn252 2.095 . S
O257 C266 1.250 . S
O258 Mn253 2.121 . S
O258 C266 1.258 . S
C259 N260 1.326 . S
C259 C263 1.460 . S
C259 H265 0.929 . S
N260 Mn253 2.257 . S
N260 C259 1.326 . S
N260 C264 1.362 1_455 S
C261 C262 1.258 . S
C261 C264 1.431 . S
C261 C281 1.449 . S
C262 C261 1.258 . S
C262 C263 1.477 1_655 S
C262 H282 0.931 . S
C263 C259 1.460 . S
C263 C262 1.477 1_455 S
C263 H283 0.930 . S
C264 N260 1.362 1_655 S
C264 C261 1.431 . S
C264 C274 1.476 . S
H265 C259 0.929 . S
C266 O257 1.250 . S
C266 O258 1.258 . S
O267 Mn252 2.162 . S
O267 C255 1.281 . S
O268 Mn252 2.297 . S
O268 C255 1.236 . S
N269 Mn253 2.282 1_655 S
N269 C270 1.328 . S
N269 C274 1.318 . S
C270 N269 1.328 . S
C270 C271 1.457 . S
C270 H275 0.929 . S
C271 C270 1.457 . S
C271 C272 1.291 . S
C271 H284 0.931 . S
C272 C271 1.291 . S
C272 C273 1.373 . S
C272 H285 0.929 . S
C273 C272 1.373 . S
C273 C274 1.396 . S
C273 C280 1.403 . S
C274 C264 1.476 . S
C274 N269 1.318 . S
C274 C273 1.396 . S
H275 C270 0.929 . S
O276 Mn252 2.385 . S
O276 C254 1.234 . S
O277 Mn252 2.209 . S
O277 Mn253 2.215 . S
O277 C254 1.283 . S
O278 Mn252 2.094 . S
O278 C256 1.240 . S
O279 Mn253 2.117 . S
O279 C256 1.264 . S
C280 C273 1.403 . S
C280 C281 1.399 . S
C280 H286 0.929 . S
C281 C261 1.449 . S
C281 C280 1.399 . S
C281 H287 0.930 . S
H282 C262 0.931 . S
H283 C263 0.930 . S
H284 C271 0.931 . S
H285 C272 0.929 . S
H286 C280 0.929 . S
H287 C281 0.930 . S
Mn288 O293 2.095 . S
Mn288 O303 2.162 . S
Mn288 O304 2.297 . S
Mn288 O312 2.385 . S
Mn288 O313 2.209 . S
Mn288 O314 2.094 . S
Mn289 O294 2.121 . S
Mn289 N296 2.257 . S
Mn289 N305 2.282 1_545 S
Mn289 O313 2.215 . S
Mn289 O315 2.117 . S
C290 O312 1.234 . S
C290 O313 1.283 . S
C291 O303 1.281 . S
C291 O304 1.236 . S
C292 O314 1.240 . S
C292 O315 1.264 . S
O293 Mn288 2.095 . S
O293 C302 1.250 . S
O294 Mn289 2.121 . S
O294 C302 1.258 . S
C295 N296 1.326 . S
C295 C299 1.460 . S
C295 H301 0.929 . S
N296 Mn289 2.257 . S
N296 C295 1.326 . S
N296 C300 1.362 1_545 S
C297 C298 1.258 . S
C297 C300 1.431 . S
C297 C317 1.449 . S
C298 C297 1.258 . S
C298 C299 1.477 1_565 S
C298 H318 0.931 . S
C299 C295 1.460 . S
C299 C298 1.477 1_545 S
C299 H319 0.930 . S
C300 N296 1.362 1_565 S
C300 C297 1.431 . S
C300 C310 1.476 . S
H301 C295 0.929 . S
C302 O293 1.250 . S
C302 O294 1.258 . S
O303 Mn288 2.162 . S
O303 C291 1.281 . S
O304 Mn288 2.297 . S
O304 C291 1.236 . S
N305 Mn289 2.282 1_565 S
N305 C306 1.328 . S
N305 C310 1.318 . S
C306 N305 1.328 . S
C306 C307 1.457 . S
C306 H311 0.929 . S
C307 C306 1.457 . S
C307 C308 1.291 . S
C307 H320 0.931 . S
C308 C307 1.291 . S
C308 C309 1.373 . S
C308 H321 0.929 . S
C309 C308 1.373 . S
C309 C310 1.396 . S
C309 C316 1.403 . S
C310 C300 1.476 . S
C310 N305 1.318 . S
C310 C309 1.396 . S
H311 C306 0.929 . S
O312 Mn288 2.385 . S
O312 C290 1.234 . S
O313 Mn288 2.209 . S
O313 Mn289 2.215 . S
O313 C290 1.283 . S
O314 Mn288 2.094 . S
O314 C292 1.240 . S
O315 Mn289 2.117 . S
O315 C292 1.264 . S
C316 C309 1.403 . S
C316 C317 1.399 . S
C316 H322 0.929 . S
C317 C297 1.449 . S
C317 C316 1.399 . S
C317 H323 0.930 . S
H318 C298 0.931 . S
H319 C299 0.930 . S
H320 C307 0.931 . S
H321 C308 0.929 . S
H322 C316 0.929 . S
H323 C317 0.930 . S
Mn324 O329 2.095 . S
Mn324 O339 2.162 . S
Mn324 O340 2.297 . S
Mn324 O348 2.385 . S
Mn324 O349 2.209 . S
Mn324 O350 2.094 1_556 S
Mn325 O330 2.121 . S
Mn325 N332 2.257 . S
Mn325 N341 2.282 . S
Mn325 O349 2.215 . S
Mn325 O351 2.117 . S
C326 O348 1.234 . S
C326 O349 1.283 . S
C327 O339 1.281 . S
C327 O340 1.236 . S
C328 O350 1.240 . S
C328 O351 1.264 1_554 S
O329 Mn324 2.095 . S
O329 C338 1.250 . S
O330 Mn325 2.121 . S
O330 C338 1.258 . S
C331 N332 1.326 . S
C331 C335 1.460 . S
C331 H337 0.929 . S
N332 Mn325 2.257 . S
N332 C331 1.326 . S
N332 C336 1.362 . S
C333 C334 1.258 . S
C333 C336 1.431 . S
C333 C353 1.449 . S
C334 C333 1.258 . S
C334 C335 1.477 . S
C334 H354 0.931 . S
C335 C331 1.460 . S
C335 C334 1.477 . S
C335 H355 0.930 . S
C336 N332 1.362 . S
C336 C333 1.431 . S
C336 C346 1.476 . S
H337 C331 0.929 . S
C338 O329 1.250 . S
C338 O330 1.258 . S
O339 Mn324 2.162 . S
O339 C327 1.281 . S
O340 Mn324 2.297 . S
O340 C327 1.236 . S
N341 Mn325 2.282 . S
N341 C342 1.328 . S
N341 C346 1.318 . S
C342 N341 1.328 . S
C342 C343 1.457 . S
C342 H347 0.929 . S
C343 C342 1.457 . S
C343 C344 1.291 . S
C343 H356 0.931 . S
C344 C343 1.291 . S
C344 C345 1.373 . S
C344 H357 0.929 . S
C345 C344 1.373 . S
C345 C346 1.396 . S
C345 C352 1.403 . S
C346 C336 1.476 . S
C346 N341 1.318 . S
C346 C345 1.396 . S
H347 C342 0.929 . S
O348 Mn324 2.385 . S
O348 C326 1.234 . S
O349 Mn324 2.209 . S
O349 Mn325 2.215 . S
O349 C326 1.283 . S
O350 Mn324 2.094 1_554 S
O350 C328 1.240 . S
O351 Mn325 2.117 . S
O351 C328 1.264 1_556 S
C352 C345 1.403 . S
C352 C353 1.399 . S
C352 H358 0.929 . S
C353 C333 1.449 . S
C353 C352 1.399 . S
C353 H359 0.930 . S
H354 C334 0.931 . S
H355 C335 0.930 . S
H356 C343 0.931 . S
H357 C344 0.929 . S
H358 C352 0.929 . S
H359 C353 0.930 . S
Mn360 O365 2.095 . S
Mn360 O375 2.162 . S
Mn360 O376 2.297 1_554 S
Mn360 O384 2.385 1_554 S
Mn360 O385 2.209 1_554 S
Mn360 O386 2.094 . S
Mn361 O366 2.121 . S
Mn361 N368 2.257 1_554 S
Mn361 N377 2.282 1_655 S
Mn361 O385 2.215 1_554 S
Mn361 O387 2.117 . S
C362 O384 1.234 . S
C362 O385 1.283 . S
C363 O375 1.281 . S
C363 O376 1.236 1_554 S
C364 O386 1.240 . S
C364 O387 1.264 . S
O365 Mn360 2.095 . S
O365 C374 1.250 . S
O366 Mn361 2.121 . S
O366 C374 1.258 . S
C367 N368 1.326 . S
C367 C371 1.460 . S
C367 H373 0.929 . S
N368 Mn361 2.257 1_556 S
N368 C367 1.326 . S
N368 C372 1.362 1_655 S
C369 C370 1.258 . S
C369 C372 1.431 . S
C369 C389 1.449 . S
C370 C369 1.258 . S
C370 C371 1.477 1_455 S
C370 H390 0.931 . S
C371 C367 1.460 . S
C371 C370 1.477 1_655 S
C371 H391 0.930 . S
C372 N368 1.362 1_455 S
C372 C369 1.431 . S
C372 C382 1.476 . S
H373 C367 0.929 . S
C374 O365 1.250 . S
C374 O366 1.258 . S
O375 Mn360 2.162 . S
O375 C363 1.281 . S
O376 Mn360 2.297 1_556 S
O376 C363 1.236 1_556 S
N377 Mn361 2.282 1_455 S
N377 C378 1.328 . S
N377 C382 1.318 1_554 S
C378 N377 1.328 . S
C378 C379 1.457 . S
C378 H383 0.929 . S
C379 C378 1.457 . S
C379 C380 1.291 1_554 S
C379 H392 0.931 . S
C380 C379 1.291 1_556 S
C380 C381 1.373 . S
C380 H393 0.929 . S
C381 C380 1.373 . S
C381 C382 1.396 . S
C381 C388 1.403 . S
C382 C372 1.476 . S
C382 N377 1.318 1_556 S
C382 C381 1.396 . S
H383 C378 0.929 . S
O384 Mn360 2.385 1_556 S
O384 C362 1.234 . S
O385 Mn360 2.209 1_556 S
O385 Mn361 2.215 1_556 S
O385 C362 1.283 . S
O386 Mn360 2.094 . S
O386 C364 1.240 . S
O387 Mn361 2.117 . S
O387 C364 1.264 . S
C388 C381 1.403 . S
C388 C389 1.399 . S
C388 H394 0.929 . S
C389 C369 1.449 . S
C389 C388 1.399 . S
C389 H395 0.930 . S
H390 C370 0.931 . S
H391 C371 0.930 . S
H392 C379 0.931 . S
H393 C380 0.929 . S
H394 C388 0.929 . S
H395 C389 0.930 . S
Mn396 O401 2.095 . S
Mn396 O411 2.162 . S
Mn396 O412 2.297 . S
Mn396 O420 2.385 . S
Mn396 O421 2.209 . S
Mn396 O422 2.094 . S
Mn397 O402 2.121 . S
Mn397 N404 2.257 . S
Mn397 N413 2.282 1_565 S
Mn397 O421 2.215 . S
Mn397 O423 2.117 . S
C398 O420 1.234 . S
C398 O421 1.283 . S
C399 O411 1.281 . S
C399 O412 1.236 . S
C400 O422 1.240 . S
C400 O423 1.264 . S
O401 Mn396 2.095 . S
O401 C410 1.250 . S
O402 Mn397 2.121 . S
O402 C410 1.258 . S
C403 N404 1.326 . S
C403 C407 1.460 . S
C403 H409 0.929 . S
N404 Mn397 2.257 . S
N404 C403 1.326 . S
N404 C408 1.362 1_565 S
C405 C406 1.258 . S
C405 C408 1.431 . S
C405 C425 1.449 . S
C406 C405 1.258 . S
C406 C407 1.477 1_545 S
C406 H426 0.931 1_554 S
C407 C403 1.460 . S
C407 C406 1.477 1_565 S
C407 H427 0.930 . S
C408 N404 1.362 1_545 S
C408 C405 1.431 . S
C408 C418 1.476 . S
H409 C403 0.929 . S
C410 O401 1.250 . S
C410 O402 1.258 . S
O411 Mn396 2.162 . S
O411 C399 1.281 . S
O412 Mn396 2.297 . S
O412 C399 1.236 . S
N413 Mn397 2.282 1_545 S
N413 C414 1.328 . S
N413 C418 1.318 . S
C414 N413 1.328 . S
C414 C415 1.457 . S
C414 H419 0.929 . S
C415 C414 1.457 . S
C415 C416 1.291 . S
C415 H428 0.931 . S
C416 C415 1.291 . S
C416 C417 1.373 . S
C416 H429 0.929 . S
C417 C416 1.373 . S
C417 C418 1.396 . S
C417 C424 1.403 . S
C418 C408 1.476 . S
C418 N413 1.318 . S
C418 C417 1.396 . S
H419 C414 0.929 . S
O420 Mn396 2.385 . S
O420 C398 1.234 . S
O421 Mn396 2.209 . S
O421 Mn397 2.215 . S
O421 C398 1.283 . S
O422 Mn396 2.094 . S
O422 C400 1.240 . S
O423 Mn397 2.117 . S
O423 C400 1.264 . S
C424 C417 1.403 . S
C424 C425 1.399 . S
C424 H430 0.929 . S
C425 C405 1.449 . S
C425 C424 1.399 . S
C425 H431 0.930 1_554 S
H426 C406 0.931 1_556 S
H427 C407 0.930 . S
H428 C415 0.931 . S
H429 C416 0.929 . S
H430 C424 0.929 . S
H431 C425 0.930 1_556 S
C432 C433 1.170 . S
C432 C434 1.380 . S
C433 C432 1.170 . S
C434 C432 1.380 . S
C434 C435 1.170 . S
C435 C434 1.170 . S
C436 C437 1.170 . S
C436 C438 1.380 1_455 S
C437 C436 1.170 . S
C438 C436 1.380 1_655 S
C438 C439 1.170 . S
C439 C438 1.170 . S
C440 C441 1.170 . S
C440 C442 1.380 1_565 S
C441 C440 1.170 . S
C442 C440 1.380 1_545 S
C442 C443 1.170 . S
C443 C442 1.170 . S
C444 C445 1.170 . S
C444 C446 1.380 . S
C445 C444 1.170 . S
C446 C444 1.380 . S
C446 C447 1.170 . S
C447 C446 1.170 . S
C448 C449 1.170 . S
C448 C450 1.380 1_455 S
C449 C448 1.170 . S
C450 C448 1.380 1_655 S
C450 C451 1.170 . S
C451 C450 1.170 . S
C452 C453 1.170 . S
C452 C454 1.380 1_546 S
C453 C452 1.170 . S
C454 C452 1.380 1_564 S
C454 C455 1.170 . S
C455 C454 1.170 . S
C456 C457 1.170 . S
C456 C458 1.380 . S
C457 C456 1.170 . S
C458 C456 1.380 . S
C458 C459 1.170 . S
C459 C458 1.170 . S
C460 C461 1.170 . S
C460 C462 1.380 . S
C461 C460 1.170 . S
C462 C460 1.380 . S
C462 C463 1.170 . S
C463 C462 1.170 . S
C464 C465 1.170 . S
C464 C466 1.380 . S
C465 C464 1.170 . S
C466 C464 1.380 . S
C466 C467 1.170 . S
C467 C466 1.170 . S
C468 C469 1.170 . S
C468 C470 1.380 . S
C469 C468 1.170 . S
C470 C468 1.380 . S
C470 C471 1.170 . S
C471 C470 1.170 . S
C472 C473 1.170 . S
C472 C474 1.380 . S
C473 C472 1.170 . S
C474 C472 1.380 . S
C474 C475 1.170 . S
C475 C474 1.170 . S
C476 C477 1.170 . S
C476 C478 1.380 . S
C477 C476 1.170 . S
C478 C476 1.380 . S
C478 C479 1.170 . S
C479 C478 1.170 . S
C480 C481 1.170 . S
C480 C482 1.380 . S
C481 C480 1.170 . S
C482 C480 1.380 . S
C482 C483 1.170 . S
C483 C482 1.170 . S
C484 C485 1.170 . S
C484 C486 1.380 1_655 S
C485 C484 1.170 . S
C486 C484 1.380 1_455 S
C486 C487 1.170 . S
C487 C486 1.170 . S
C488 C489 1.170 . S
C488 C490 1.380 1_564 S
C489 C488 1.170 . S
C490 C488 1.380 1_546 S
C490 C491 1.170 . S
C491 C490 1.170 . S
C492 C493 1.170 . S
C492 C494 1.380 . S
C493 C492 1.170 . S
C494 C492 1.380 . S
C494 C495 1.170 . S
C495 C494 1.170 . S
C496 C497 1.170 . S
C496 C498 1.380 1_455 S
C497 C496 1.170 . S
C498 C496 1.380 1_655 S
C498 C499 1.170 . S
C499 C498 1.170 . S
C500 C501 1.170 . S
C500 C502 1.380 1_565 S
C501 C500 1.170 . S
C502 C500 1.380 1_545 S
C502 C503 1.170 . S
C503 C502 1.170 . S
C504 C505 1.170 . S
C504 C506 1.380 . S
C505 C504 1.170 . S
C506 C504 1.380 . S
C506 C507 1.170 . S
C507 C506 1.170 . S
C508 C509 1.170 . S
C508 C510 1.380 . S
C509 C508 1.170 . S
C510 C508 1.380 . S
C510 C511 1.170 . S
C511 C510 1.170 . S
C512 C513 1.170 . S
C512 C514 1.380 . S
C513 C512 1.170 . S
C514 C512 1.380 . S
C514 C515 1.170 . S
C515 C514 1.170 . S
C516 C517 1.170 . S
C516 C518 1.380 . S
C517 C516 1.170 . S
C518 C516 1.380 . S
C518 C519 1.170 . S
C519 C518 1.170 . S
C520 C521 1.170 . S
C520 C522 1.380 . S
C521 C520 1.170 . S
C522 C520 1.380 . S
C522 C523 1.170 . S
C523 C522 1.170 . S
C524 C525 1.170 . S
C524 C526 1.380 . S
C525 C524 1.170 . S
C526 C524 1.380 . S
C526 C527 1.170 . S
C527 C526 1.170 . S
C433 C328 1.470 . S
C435 C4 1.452 . S
C437 C40 1.471 . S
C439 C364 1.452 . S
C441 C400 1.440 . S
C443 C76 1.469 . S
C445 C220 1.455 . S
C447 C112 1.469 . S
C449 C256 1.472 . S
C451 C148 1.443 . S
C453 C292 1.470 . S
C455 C184 1.452 . S
C457 C230 1.416 . S
C459 C14 1.427 . S
C461 C50 1.443 . S
C463 C266 1.442 . S
C465 C302 1.417 . S
C467 C86 1.406 . S
C469 C122 1.433 . S
C471 C338 1.440 . S
C473 C374 1.422 . S
C475 C158 1.432 . S
C477 C194 1.443 . S
C479 C410 1.442 . S
C481 C326 1.466 . S
C483 C2 1.466 . S
C485 C362 1.466 . S
C487 C38 1.466 . S
C489 C398 1.467 . S
C491 C74 1.467 . S
C493 C110 1.467 . S
C495 C218 1.467 . S
C497 C254 1.466 . S
C499 C146 1.466 . S
C501 C182 1.466 . S
C503 C290 1.466 . S
C505 C3 1.281 . S
C507 C291 1.296 . S
C509 C327 1.288 . S
C511 C39 1.290 . S
C513 C363 1.293 1_556 S
C515 C75 1.285 . S
C517 C399 1.277 . S
C519 C111 1.290 1_554 S
C521 C219 1.295 . S
C523 C147 1.282 . S
C525 C255 1.283 . S
C527 C183 1.295 . S
