# Generated by pormake.
# Topology uof, (4)-cn, num edge types: 1
# Building blocks:
#     Node 0, Type 0, BuildingBlock: ICAMEG_clean_sbu_1, # of connection points: 4
#     Node 1, Type 0, BuildingBlock: ICAMEG_clean_sbu_1, # of connection points: 4
#     Node 2, Type 0, BuildingBlock: ICAMEG_clean_sbu_1, # of connection points: 4
#     Node 3, Type 0, BuildingBlock: ICAMEG_clean_sbu_1, # of connection points: 4
#     Node 4, Type 0, BuildingBlock: ICAMEG_clean_sbu_1, # of connection points: 4
#     Node 5, Type 0, BuildingBlock: ICAMEG_clean_sbu_1, # of connection points: 4
#     Node 6, Type 0, BuildingBlock: ICAMEG_clean_sbu_1, # of connection points: 4
#     Node 7, Type 0, BuildingBlock: ICAMEG_clean_sbu_1, # of connection points: 4
#     Node 8, Type 0, BuildingBlock: ICAMEG_clean_sbu_1, # of connection points: 4
#     Node 9, Type 0, BuildingBlock: ICAMEG_clean_sbu_1, # of connection points: 4
#     Node 10, Type 0, BuildingBlock: ICAMEG_clean_sbu_1, # of connection points: 4
#     Node 11, Type 0, BuildingBlock: ICAMEG_clean_sbu_1, # of connection points: 4
#     Edge 12, Type (0, 0), BuildingBlock: OJICUG_clean_linker_0, # of connection points: 2
#     Edge 13, Type (0, 0), BuildingBlock: OJICUG_clean_linker_0, # of connection points: 2
#     Edge 14, Type (0, 0), BuildingBlock: OJICUG_clean_linker_0, # of connection points: 2
#     Edge 15, Type (0, 0), BuildingBlock: OJICUG_clean_linker_0, # of connection points: 2
#     Edge 16, Type (0, 0), BuildingBlock: OJICUG_clean_linker_0, # of connection points: 2
#     Edge 17, Type (0, 0), BuildingBlock: OJICUG_clean_linker_0, # of connection points: 2
#     Edge 18, Type (0, 0), BuildingBlock: OJICUG_clean_linker_0, # of connection points: 2
#     Edge 19, Type (0, 0), BuildingBlock: OJICUG_clean_linker_0, # of connection points: 2
#     Edge 20, Type (0, 0), BuildingBlock: OJICUG_clean_linker_0, # of connection points: 2
#     Edge 21, Type (0, 0), BuildingBlock: OJICUG_clean_linker_0, # of connection points: 2
#     Edge 22, Type (0, 0), BuildingBlock: OJICUG_clean_linker_0, # of connection points: 2
#     Edge 23, Type (0, 0), BuildingBlock: OJICUG_clean_linker_0, # of connection points: 2
#     Edge 24, Type (0, 0), BuildingBlock: OJICUG_clean_linker_0, # of connection points: 2
#     Edge 25, Type (0, 0), BuildingBlock: OJICUG_clean_linker_0, # of connection points: 2
#     Edge 26, Type (0, 0), BuildingBlock: OJICUG_clean_linker_0, # of connection points: 2
#     Edge 27, Type (0, 0), BuildingBlock: OJICUG_clean_linker_0, # of connection points: 2
#     Edge 28, Type (0, 0), BuildingBlock: OJICUG_clean_linker_0, # of connection points: 2
#     Edge 29, Type (0, 0), BuildingBlock: OJICUG_clean_linker_0, # of connection points: 2
#     Edge 30, Type (0, 0), BuildingBlock: OJICUG_clean_linker_0, # of connection points: 2
#     Edge 31, Type (0, 0), BuildingBlock: OJICUG_clean_linker_0, # of connection points: 2
#     Edge 32, Type (0, 0), BuildingBlock: OJICUG_clean_linker_0, # of connection points: 2
#     Edge 33, Type (0, 0), BuildingBlock: OJICUG_clean_linker_0, # of connection points: 2
#     Edge 34, Type (0, 0), BuildingBlock: OJICUG_clean_linker_0, # of connection points: 2
#     Edge 35, Type (0, 0), BuildingBlock: OJICUG_clean_linker_0, # of connection points: 2
# Relax obj value: 0.215
# Max RMSD: 0.165
# Mean RMSD: 0.165
data_MOF--net-uof--node1-ICAMEG_clean_sbu_1--edge1-OJICUG_clean_linker_0
_symmetry_space_group_name_H-M    P1
_symmetry_Int_Tables_number       1
_symmetry_cell_setting            triclinic
loop_
_symmetry_equiv_pos_as_xyz
'x, y, z'
_cell_length_a     24.404752
_cell_length_b     24.440585
_cell_length_c     54.34889
_cell_angle_alpha  89.990195
_cell_angle_beta   90.007873
_cell_angle_gamma 119.93985
loop_
_atom_site_label
_atom_site_type_symbol
_atom_site_fract_x
_atom_site_fract_y
_atom_site_fract_z
_atom_type_partial_charge
Co0 Co 0.2469 0.32584 0.21076 0.0
Co1 Co 0.17244 0.19453 0.24786 0.0
O2 O 0.2248 0.28637 0.2434 0.0
C3 C 0.37806 0.38605 0.2315 0.0
O4 O 0.37032 0.32941 0.23478 0.0
C5 C 0.16236 0.25032 0.2949 0.0
O6 O 0.19408 0.30894 0.28713 0.0
O7 O 0.10404 0.19512 0.22713 0.0
O8 O 0.16255 0.26085 0.19684 0.0
H9 H 0.03849 0.9737 0.21567 0.0
H10 H 0.26131 0.40626 0.25376 0.0
O11 O 0.33244 0.39254 0.22344 0.0
H12 H 0.10941 0.42355 0.19906 0.0
H13 H 0.34359 0.50941 0.15189 0.0
H14 H 0.23159 0.27751 0.15971 0.0
H15 H 0.15589 0.35797 0.18729 0.0
H16 H 0.31291 0.45895 0.19272 0.0
O17 O 0.13425 0.20591 0.27923 0.0
H18 H 0.10432 0.08911 0.21264 0.0
H19 H 0.12152 0.10318 0.29047 0.0
H20 H 0.26095 0.32594 0.11852 0.0
H21 H 0.21636 0.47284 0.2662 0.0
H22 H 0.31739 0.44275 0.11442 0.0
H23 H 0.13975 0.48171 0.23875 0.0
O24 O 0.28271 0.27174 0.2015 0.0
H25 H 0.37056 0.28998 0.30048 0.0
H26 H 0.21453 0.09892 0.25693 0.0
H27 H 0.29922 0.09688 0.27996 0.0
H28 H 0.37826 0.19263 0.30223 0.0
H29 H 0.28489 0.29039 0.27769 0.0
H30 H 0.05205 0.98829 0.29437 0.0
H31 H 0.01116 0.92234 0.25674 0.0
O32 O 0.21086 0.17956 0.21826 0.0
C33 C 0.10971 0.21745 0.20531 0.0
C34 C 0.05641 1.00179 0.23221 0.0
C35 C 0.06363 0.01007 0.27635 0.0
N36 N 0.11761 0.1034 0.25136 0.0
C37 C 0.09407 0.06736 0.23062 0.0
C38 C 0.10213 0.07545 0.27405 0.0
C39 C 0.04096 0.97305 0.25525 0.0
C40 C 0.22812 0.41005 0.24172 0.0
N41 N 0.21117 0.37821 0.21988 0.0
C42 C 0.20277 0.44774 0.24886 0.0
C43 C 0.15976 0.45266 0.23346 0.0
C44 C 0.14267 0.41999 0.2112 0.0
C45 C 0.16896 0.38273 0.20467 0.0
C46 C 0.3189 0.45847 0.15343 0.0
C47 C 0.25577 0.32833 0.15807 0.0
C48 C 0.3015 0.42962 0.17651 0.0
N49 N 0.27005 0.3653 0.17858 0.0
C50 C 0.27244 0.3555 0.1347 0.0
C51 C 0.30417 0.42104 0.13241 0.0
C52 C 0.25953 0.21281 0.20507 0.0
C53 C 0.33558 0.24741 0.29134 0.0
C54 C 0.2466 0.14057 0.2671 0.0
C55 C 0.29552 0.13921 0.27991 0.0
C56 C 0.33999 0.19292 0.29228 0.0
N57 N 0.24046 0.19337 0.26701 0.0
C58 C 0.28588 0.24695 0.2784 0.0
Co59 Co 0.96406 0.26393 0.53845 0.0
Co60 Co 0.99623 0.17718 0.57862 0.0
O61 O 0.96892 0.23927 0.57231 0.0
C62 C 0.03645 0.39611 0.55892 0.0
O63 O 0.08504 0.38845 0.56344 0.0
C64 C 0.93575 0.18378 0.62481 0.0
O65 O 0.91627 0.22141 0.61625 0.0
O66 O 0.92263 0.11487 0.55832 0.0
O67 O 0.94005 0.17719 0.52564 0.0
H68 H 0.03687 1.00428 0.55119 0.0
H69 H 0.89001 0.28254 0.57727 0.0
O70 O 0.98545 0.35083 0.55008 0.0
H71 H 0.7334 0.1474 0.51514 0.0
H72 H 0.91239 0.374 0.47162 0.0
H73 H 1.01027 0.24465 0.49073 0.0
H74 H 0.84677 0.18449 0.50916 0.0
H75 H 0.91414 0.34011 0.51425 0.0
O76 O 0.94434 0.14841 0.60987 0.0
H77 H 0.01207 0.08936 0.5457 0.0
H78 H 0.02956 0.12423 0.6225 0.0
H79 H 1.00918 0.27708 0.44786 0.0
H80 H 0.77706 0.24688 0.58391 0.0
H81 H 0.9599 0.34221 0.43808 0.0
H82 H 0.69789 0.17875 0.5527 0.0
O83 O 0.0552 0.29215 0.53445 0.0
H84 H 0.12223 0.37818 0.62802 0.0
H85 H 0.12771 0.19941 0.58919 0.0
H86 H 0.22054 0.27855 0.61127 0.0
H87 H 0.21865 0.36889 0.63122 0.0
H88 H 0.03006 0.29824 0.60602 0.0
H89 H 0.05134 0.03716 0.62905 0.0
H90 H 0.05595 0.97687 0.59309 0.0
O91 O 0.05125 0.205 0.5489 0.0
C92 C 0.91503 0.12238 0.53548 0.0
C93 C 0.03477 0.02994 0.56701 0.0
C94 C 0.04262 0.04823 0.61069 0.0
N95 N 0.01873 0.11181 0.58386 0.0
C96 C 0.02107 0.07859 0.56402 0.0
C97 C 0.02911 0.09686 0.60697 0.0
C98 C 0.04539 0.01456 0.59052 0.0
C99 C 0.85582 0.25306 0.56359 0.0
N100 N 0.87496 0.23569 0.54287 0.0
C101 C 0.79194 0.23295 0.56746 0.0
C102 C 0.74755 0.19469 0.54995 0.0
C103 C 0.76743 0.17706 0.52887 0.0
C104 C 0.83169 0.19807 0.52562 0.0
C105 C 0.93384 0.34549 0.47565 0.0
C106 C 0.9884 0.27266 0.4866 0.0
C107 C 0.93507 0.32627 0.49975 0.0
N108 N 0.96175 0.28995 0.50493 0.0
C109 C 0.98808 0.29103 0.4623 0.0
C110 C 0.9605 0.32763 0.45683 0.0
C111 C 0.08139 0.25943 0.53906 0.0
C112 C 0.12327 0.33829 0.61988 0.0
C113 C 0.12457 0.23689 0.59821 0.0
C114 C 0.17828 0.28241 0.61055 0.0
C115 C 0.17734 0.33317 0.62164 0.0
N116 N 0.07018 0.24028 0.59733 0.0
C117 C 0.07042 0.29181 0.6074 0.0
Co118 Co 0.67092 0.92175 0.87588 0.0
Co119 Co 0.80944 0.9937 0.90937 0.0
O120 O 0.71662 0.94787 0.90733 0.0
C121 C 0.60916 0.99043 0.89688 0.0
O122 O 0.66572 0.04009 0.89921 0.0
C123 C 0.76656 0.93355 0.9583 0.0
O124 O 0.70629 0.90239 0.95253 0.0
O125 O 0.8117 0.92515 0.88938 0.0
O126 O 0.73706 0.90509 0.86105 0.0
H127 H 0.02613 0.08503 0.8721 0.0
H128 H 0.60085 0.86206 0.92167 0.0
O129 O 0.60311 0.93817 0.88933 0.0
H130 H 0.58617 0.6872 0.87144 0.0
H131 H 0.47593 0.81252 0.82297 0.0
H132 H 0.70827 0.94478 0.8233 0.0
H133 H 0.64287 0.79659 0.8559 0.0
H134 H 0.53479 0.84452 0.86213 0.0
O135 O 0.80777 0.94989 0.94124 0.0
H136 H 0.90987 0.03117 0.87172 0.0
H137 H 0.90757 0.0488 0.94935 0.0
H138 H 0.65142 0.91353 0.78371 0.0
H139 H 0.54318 0.75325 0.93787 0.0
H140 H 0.53434 0.84688 0.78339 0.0
H141 H 0.53568 0.66495 0.91269 0.0
O142 O 0.7182 0.00974 0.8636 0.0
H143 H 0.71236 0.09045 0.96443 0.0
H144 H 0.89672 0.13418 0.91376 0.0
H145 H 0.89645 0.22038 0.93637 0.0
H146 H 0.80406 0.19925 0.96219 0.0
H147 H 0.71446 1.00524 0.94199 0.0
H148 H 0.02353 0.0995 0.95074 0.0
H149 H 0.08377 0.11855 0.91196 0.0
O150 O 0.81492 0.04153 0.87912 0.0
C151 C 0.78556 0.90279 0.8685 0.0
C152 C 1.00048 0.07731 0.88917 0.0
C153 C 0.99896 0.08491 0.93331 0.0
N154 N 0.90152 0.03656 0.91054 0.0
C155 C 0.9345 0.04686 0.88908 0.0
C156 C 0.93307 0.05505 0.93247 0.0
C157 C 0.03278 0.09604 0.91149 0.0
C158 C 0.59755 0.82381 0.91059 0.0
N159 N 0.62521 0.83563 0.88791 0.0
C160 C 0.56495 0.76234 0.91987 0.0
C161 C 0.5608 0.71282 0.90573 0.0
C162 C 0.58916 0.72528 0.8826 0.0
C163 C 0.62142 0.78735 0.87393 0.0
C164 C 0.52695 0.84152 0.82287 0.0
C165 C 0.6574 0.91562 0.8233 0.0
C166 C 0.56053 0.85993 0.84499 0.0
N167 N 0.62498 0.89629 0.84499 0.0
C168 C 0.62543 0.89814 0.80083 0.0
C169 C 0.55974 0.86079 0.80067 0.0
C170 C 0.7766 0.05016 0.86602 0.0
C171 C 0.75371 0.10008 0.95378 0.0
C172 C 0.85713 0.12299 0.92565 0.0
C173 C 0.85692 0.17283 0.93813 0.0
C174 C 0.80502 0.16107 0.95248 0.0
N175 N 0.80793 0.06226 0.92783 0.0
C176 C 0.75571 0.05139 0.94109 0.0
Co177 Co 0.75903 0.66841 0.20938 0.0
Co178 Co 0.81959 0.80755 0.2421 0.0
O179 O 0.77534 0.715 0.24047 0.0
C180 C 0.62851 0.60707 0.22989 0.0
O181 O 0.63565 0.66377 0.23191 0.0
C182 C 0.83848 0.76696 0.29138 0.0
O183 O 0.81201 0.70691 0.2856 0.0
O184 O 0.89273 0.81203 0.22305 0.0
O185 O 0.84229 0.73517 0.1951 0.0
H186 H 0.94418 0.02442 0.20513 0.0
H187 H 0.74641 0.60018 0.25595 0.0
O188 O 0.67452 0.60047 0.2224 0.0
H189 H 0.91314 0.58819 0.2091 0.0
H190 H 0.67993 0.47157 0.15817 0.0
H191 H 0.77754 0.70332 0.1565 0.0
H192 H 0.85971 0.64254 0.19176 0.0
H193 H 0.70298 0.53208 0.1968 0.0
O194 O 0.86122 0.80845 0.2744 0.0
H195 H 0.88435 0.90812 0.2046 0.0
H196 H 0.85298 0.90488 0.2815 0.0
H197 H 0.75574 0.64483 0.11742 0.0
H198 H 0.79824 0.54485 0.27393 0.0
H199 H 0.70654 0.52801 0.1181 0.0
H200 H 0.88235 0.53872 0.25046 0.0
O201 O 0.71755 0.71359 0.19548 0.0
H202 H 0.62769 0.71034 0.29814 0.0
H203 H 0.75865 0.88794 0.24296 0.0
H204 H 0.66953 0.88568 0.26456 0.0
H205 H 0.6034 0.79683 0.29271 0.0
H206 H 0.71666 0.71395 0.27624 0.0
H207 H 0.9152 0.02084 0.28316 0.0
H208 H 0.96114 0.08144 0.24489 0.0
O209 O 0.77814 0.81078 0.21125 0.0
C210 C 0.89138 0.78526 0.20259 0.0
C211 C 0.92433 0.99854 0.22201 0.0
C212 C 0.9085 0.9965 0.26582 0.0
N213 N 0.86561 0.89945 0.24309 0.0
C214 C 0.89037 0.9326 0.22183 0.0
C215 C 0.87427 0.93071 0.26487 0.0
C216 C 0.93382 0.03053 0.24424 0.0
C217 C 0.78282 0.59749 0.24561 0.0
N218 N 0.8001 0.62464 0.22288 0.0
C219 C 0.81206 0.5662 0.25589 0.0
C220 C 0.85929 0.56282 0.24272 0.0
C221 C 0.87663 0.59062 0.21952 0.0
C222 C 0.84638 0.62156 0.20984 0.0
C223 C 0.70138 0.52245 0.15763 0.0
C224 C 0.7563 0.6526 0.15694 0.0
C225 C 0.71438 0.55696 0.17944 0.0
N226 N 0.74172 0.62126 0.1789 0.0
C227 C 0.74398 0.61968 0.13476 0.0
C228 C 0.71635 0.55415 0.13515 0.0
C229 C 0.73349 0.77152 0.19753 0.0
C230 C 0.65719 0.75029 0.28648 0.0
C231 C 0.73196 0.84991 0.25572 0.0
C232 C 0.68065 0.84855 0.26768 0.0
C233 C 0.64344 0.79864 0.28337 0.0
N234 N 0.74738 0.80384 0.25966 0.0
C235 C 0.7089 0.75329 0.2742 0.0
Co236 Co 0.13196 0.77922 0.54395 0.0
Co237 Co 0.02137 0.81352 0.56899 0.0
O238 O 0.08103 0.78189 0.57147 0.0
C239 C 0.0603 0.64429 0.55835 0.0
O240 O 1.00936 0.64946 0.55724 0.0
C241 C 0.0679 0.83977 0.62122 0.0
O242 O 0.10794 0.81961 0.61743 0.0
O243 O 0.08788 0.8943 0.55277 0.0
O244 O 0.14944 0.8646 0.5324 0.0
H245 H 0.90346 0.90219 0.52375 0.0
H246 H 0.15964 0.7529 0.59427 0.0
O247 O 0.11446 0.69273 0.55453 0.0
H248 H 0.35567 0.94044 0.56631 0.0
H249 H 0.29042 0.73159 0.50472 0.0
H250 H 0.14652 0.81581 0.49126 0.0
H251 H 0.26229 0.88929 0.5392 0.0
H252 H 0.22619 0.73611 0.53886 0.0
O253 O 0.04358 0.8528 0.60298 0.0
H254 H 0.98122 0.86688 0.52823 0.0
H255 H 0.93344 0.82626 0.60383 0.0
H256 H 0.21031 0.81271 0.45668 0.0
H257 H 0.25211 0.80199 0.62193 0.0
H258 H 0.28287 0.77031 0.4633 0.0
H259 H 0.35097 0.89661 0.60801 0.0
O260 O 0.05726 0.73907 0.52163 0.0
H261 H 0.93176 0.62001 0.62381 0.0
H262 H 0.88429 0.7296 0.55844 0.0
H263 H 0.79897 0.62981 0.57493 0.0
H264 H 0.82199 0.57444 0.60816 0.0
H265 H 0.01567 0.7188 0.60646 0.0
H266 H 0.85661 0.86297 0.60031 0.0
H267 H 0.83976 0.89956 0.56014 0.0
O268 O 0.99498 0.77476 0.53645 0.0
C269 C 0.13108 0.90434 0.5369 0.0
C270 C 0.91009 0.88617 0.54146 0.0
C271 C 0.88403 0.86432 0.58444 0.0
N272 N 0.96248 0.84495 0.56629 0.0
C273 C 0.95419 0.86608 0.5441 0.0
C274 C 0.92826 0.84428 0.58636 0.0
C275 C 0.87472 0.88502 0.56181 0.0
C276 C 0.20257 0.79394 0.58808 0.0
N277 N 0.20545 0.81857 0.56524 0.0
C278 C 0.25473 0.8216 0.60383 0.0
C279 C 0.31016 0.87472 0.59601 0.0
C280 C 0.3128 0.8994 0.57264 0.0
C281 C 0.25966 0.87052 0.55742 0.0
C282 C 0.25903 0.75024 0.50162 0.0
C283 C 0.17826 0.79765 0.49433 0.0
C284 C 0.22243 0.75277 0.52086 0.0
N285 N 0.1829 0.77653 0.51709 0.0
C286 C 0.21414 0.79585 0.47466 0.0
C287 C 0.2548 0.772 0.47838 0.0
C288 C 1.00798 0.74427 0.52093 0.0
C289 C 0.92064 0.64461 0.60987 0.0
C290 C 0.89493 0.70715 0.57334 0.0
C291 C 0.84624 0.64999 0.58242 0.0
C292 C 0.85918 0.61889 0.601 0.0
N293 N 0.95484 0.73387 0.58286 0.0
C294 C 0.96811 0.70184 0.60031 0.0
Co295 Co 0.32656 0.08973 0.87566 0.0
Co296 Co 0.19133 0.02374 0.91099 0.0
O297 O 0.28377 0.0663 0.9077 0.0
C298 C 0.3869 0.01858 0.89591 0.0
O299 O 0.33011 0.9693 0.89834 0.0
C300 C 0.24109 0.08512 0.95925 0.0
O301 O 0.30061 0.11434 0.95239 0.0
O302 O 0.19075 0.09361 0.8914 0.0
O303 O 0.26108 0.10879 0.86179 0.0
H304 H 0.97274 0.9376 0.87631 0.0
H305 H 0.40196 0.15006 0.9204 0.0
O306 O 0.39354 0.07105 0.88832 0.0
H307 H 0.41928 0.32521 0.86959 0.0
H308 H 0.51675 0.1892 0.81995 0.0
H309 H 0.28399 0.0657 0.82367 0.0
H310 H 0.35738 0.21515 0.85511 0.0
H311 H 0.46164 0.16167 0.85994 0.0
O312 O 0.19799 0.06906 0.94299 0.0
H313 H 0.08861 0.98883 0.87467 0.0
H314 H 0.09614 0.97366 0.95226 0.0
H315 H 0.33709 0.0925 0.78329 0.0
H316 H 0.46483 0.25952 0.93554 0.0
H317 H 0.45436 0.15469 0.78125 0.0
H318 H 0.4737 0.34798 0.91005 0.0
O319 O 0.27555 1.00144 0.86409 0.0
H320 H 0.28672 0.92158 0.96396 0.0
H321 H 0.09972 0.88426 0.91643 0.0
H322 H 0.09833 0.79664 0.93857 0.0
H323 H 0.19202 0.81454 0.96282 0.0
H324 H 0.2864 0.00827 0.94197 0.0
H325 H 0.98052 0.92578 0.95491 0.0
H326 H 0.91769 0.9063 0.91669 0.0
O327 O 0.18095 0.97446 0.88058 0.0
C328 C 0.21507 0.11427 0.87013 0.0
C329 C 0.9994 0.94527 0.8931 0.0
C330 C 1.00388 0.9392 0.93721 0.0
N331 N 0.09958 0.98423 0.91336 0.0
C332 C 0.06523 0.97422 0.89229 0.0
C333 C 0.06961 0.96746 0.93565 0.0
C334 C 0.96862 0.92794 0.91575 0.0
C335 C 0.40576 0.18836 0.90921 0.0
N336 N 0.37596 0.17626 0.88695 0.0
C337 C 0.44134 0.25021 0.91788 0.0
C338 C 0.44626 0.29981 0.90358 0.0
C339 C 0.41569 0.28707 0.88088 0.0
C340 C 0.3805 0.22462 0.87282 0.0
C341 C 0.46563 0.16212 0.82059 0.0
C342 C 0.33498 0.09298 0.82293 0.0
C343 C 0.43416 0.14626 0.84319 0.0
N344 N 0.3696 0.11227 0.84414 0.0
C345 C 0.36481 0.10793 0.80001 0.0
C346 C 0.4306 0.14277 0.79888 0.0
C347 C 0.21671 0.96332 0.86695 0.0
C348 C 0.24491 0.91339 0.95398 0.0
C349 C 0.14018 0.8941 0.92756 0.0
C350 C 0.13932 0.84344 0.93981 0.0
C351 C 0.19191 0.85339 0.9533 0.0
N352 N 0.19125 0.95394 0.92913 0.0
C353 C 0.24397 0.96295 0.94154 0.0
Co354 Co 0.71289 0.76196 0.46736 0.0
Co355 Co 0.83109 0.84841 0.42691 0.0
O356 O 0.74193 0.78618 0.43346 0.0
C357 C 0.6534 0.6296 0.4471 0.0
O358 O 0.7097 0.63739 0.44259 0.0
C359 C 0.76253 0.84039 0.38095 0.0
O360 O 0.70566 0.80353 0.38987 0.0
O361 O 0.81984 0.91095 0.44713 0.0
O362 O 0.77552 0.84891 0.47994 0.0
H363 H 0.04503 0.02239 0.45344 0.0
H364 H 0.61944 0.74225 0.42871 0.0
O365 O 0.64755 0.67483 0.45591 0.0
H366 H 0.5984 0.87822 0.49057 0.0
H367 H 0.55209 0.65237 0.5345 0.0
H368 H 0.77899 0.78207 0.51499 0.0
H369 H 0.6751 0.84163 0.49652 0.0
H370 H 0.58717 0.68578 0.49179 0.0
O371 O 0.80712 0.8762 0.39558 0.0
H372 H 0.93539 0.93716 0.45941 0.0
H373 H 0.91605 0.90086 0.38269 0.0
H374 H 0.74603 0.75009 0.55793 0.0
H375 H 0.54173 0.77739 0.42209 0.0
H376 H 0.63178 0.6848 0.56792 0.0
H377 H 0.5309 0.84594 0.45316 0.0
O378 O 0.77617 0.73422 0.47134 0.0
H379 H 0.75637 0.64642 0.37823 0.0
H380 H 0.94049 0.82647 0.41654 0.0
H381 H 0.95443 0.74709 0.39473 0.0
H382 H 0.86225 0.6561 0.37506 0.0
H383 H 0.74395 0.72671 0.39991 0.0
H384 H 0.02464 0.9879 0.37569 0.0
H385 H 0.09038 0.04899 0.41136 0.0
O386 O 0.85901 0.82135 0.45667 0.0
C387 C 0.80515 0.90364 0.47002 0.0
C388 C 0.0169 0.99633 0.43775 0.0
C389 C 1.00535 0.97712 0.39413 0.0
N390 N 0.9187 0.91392 0.42134 0.0
C391 C 0.95469 0.94761 0.44101 0.0
C392 C 0.94339 0.92846 0.39811 0.0
C393 C 0.04226 0.01126 0.41414 0.0
C394 C 0.61484 0.77192 0.44232 0.0
N395 N 0.65171 0.78981 0.46295 0.0
C396 C 0.57083 0.79174 0.43847 0.0
C397 C 0.56481 0.83023 0.45591 0.0
C398 C 0.60268 0.84838 0.47689 0.0
C399 C 0.64617 0.82765 0.48012 0.0
C400 C 0.60197 0.68096 0.53038 0.0
C401 C 0.72918 0.75398 0.51921 0.0
C402 C 0.62211 0.69991 0.50623 0.0
N403 N 0.68502 0.73634 0.50095 0.0
C404 C 0.71081 0.73588 0.54355 0.0
C405 C 0.64672 0.69919 0.54913 0.0
C406 C 0.83503 0.76714 0.46668 0.0
C407 C 0.79728 0.68661 0.38623 0.0
C408 C 0.89993 0.78876 0.40757 0.0
C409 C 0.90824 0.74308 0.39541 0.0
C410 C 0.85656 0.69194 0.38449 0.0
N411 N 0.84205 0.78516 0.40839 0.0
C412 C 0.79079 0.73327 0.39851 0.0
Co413 Co 0.91253 0.67907 0.79472 0.0
Co414 Co 0.98346 0.81594 0.76028 0.0
O415 O 0.93866 0.72344 0.76304 0.0
C416 C 0.98338 0.61834 0.77482 0.0
O417 O 0.0328 0.67504 0.77252 0.0
C418 C 0.92195 0.76936 0.71161 0.0
O419 O 0.89205 0.70976 0.71826 0.0
O420 O 0.91427 0.81832 0.77987 0.0
O421 O 0.89453 0.74495 0.80873 0.0
H422 H 0.07491 0.03395 0.79577 0.0
H423 H 0.85421 0.60629 0.74927 0.0
O424 O 0.93058 0.61178 0.78203 0.0
H425 H 0.67707 0.59128 0.79822 0.0
H426 H 0.80504 0.48602 0.84858 0.0
H427 H 0.93347 0.71831 0.84714 0.0
H428 H 0.78634 0.65026 0.81394 0.0
H429 H 0.83698 0.54348 0.80914 0.0
O430 O 0.93969 0.81212 0.72808 0.0
H431 H 0.02075 0.91804 0.79702 0.0
H432 H 0.0364 0.91178 0.71934 0.0
H433 H 0.90225 0.66287 0.887 0.0
H434 H 0.74556 0.54632 0.73291 0.0
H435 H 0.83753 0.5458 0.88789 0.0
H436 H 0.6561 0.53864 0.75744 0.0
O437 O 1.00025 0.728 0.80728 0.0
H438 H 0.08263 0.71874 0.70665 0.0
H439 H 0.12392 0.90372 0.75625 0.0
H440 H 0.21126 0.90337 0.73443 0.0
H441 H 0.19132 0.81069 0.70913 0.0
H442 H 0.99641 0.72078 0.72846 0.0
H443 H 0.08759 0.02756 0.71716 0.0
H444 H 0.1081 0.08971 0.75556 0.0
O445 O 0.03134 0.82353 0.79081 0.0
C446 C 0.89209 0.79302 0.80091 0.0
C447 C 0.06679 0.00757 0.77889 0.0
C448 C 0.07338 1.00387 0.73478 0.0
N449 N 0.0255 0.90773 0.75829 0.0
C450 C 0.03617 0.94173 0.77948 0.0
C451 C 0.04339 0.93809 0.73609 0.0
C452 C 0.0852 0.03875 0.75635 0.0
C453 C 0.81547 0.60296 0.76006 0.0
N454 N 0.82658 0.63181 0.78248 0.0
C455 C 0.75408 0.56904 0.7507 0.0
C456 C 0.70392 0.56479 0.76447 0.0
C457 C 0.71565 0.59436 0.78734 0.0
C458 C 0.77767 0.62791 0.7961 0.0
C459 C 0.83321 0.53703 0.84844 0.0
C460 C 0.90517 0.66746 0.84738 0.0
C461 C 0.85159 0.56983 0.82616 0.0
N462 N 0.88694 0.63428 0.82584 0.0
C463 C 0.8877 0.63627 0.87 0.0
C464 C 0.85143 0.5706 0.87049 0.0
C465 C 0.03997 0.78649 0.80468 0.0
C466 C 0.09175 0.7602 0.71706 0.0
C467 C 0.11335 0.8639 0.74463 0.0
C468 C 0.16378 0.86368 0.73257 0.0
C469 C 0.15268 0.81164 0.7185 0.0
N470 N 0.05273 0.81449 0.74231 0.0
C471 C 0.04247 0.76217 0.72935 0.0
Co472 Co 0.24459 0.91173 0.1309 0.0
Co473 Co 0.18415 0.99075 0.09825 0.0
O474 O 0.22931 0.94324 0.09991 0.0
C475 C 0.37622 0.9825 0.11142 0.0
O476 O 0.36912 0.03221 0.10994 0.0
C477 C 0.16887 0.93454 0.04844 0.0
O478 O 0.19742 0.90275 0.05408 0.0
O479 O 0.11048 0.92085 0.11659 0.0
O480 O 0.16049 0.89414 0.14472 0.0
H481 H 0.05708 0.08109 0.13475 0.0
H482 H 0.26006 0.85886 0.0841 0.0
O483 O 0.32996 0.92949 0.1183 0.0
H484 H 0.09253 0.67751 0.12934 0.0
H485 H 0.32395 0.79335 0.18176 0.0
H486 H 0.22281 0.92457 0.1838 0.0
H487 H 0.14407 0.78429 0.14742 0.0
H488 H 0.30175 0.83214 0.14326 0.0
O489 O 0.14463 0.95151 0.0655 0.0
H490 H 0.11785 0.0255 0.13551 0.0
H491 H 0.14965 0.0534 0.05856 0.0
H492 H 0.24374 0.88654 0.22274 0.0
H493 H 0.21015 0.75276 0.06538 0.0
H494 H 0.29473 0.8204 0.22187 0.0
H495 H 0.12566 0.6612 0.08805 0.0
O496 O 0.28443 0.99745 0.14545 0.0
H497 H 0.38047 0.09071 0.04455 0.0
H498 H 0.24293 0.13165 0.09842 0.0
H499 H 0.3328 0.22026 0.07802 0.0
H500 H 0.4023 0.20045 0.05055 0.0
H501 H 0.29055 1.00354 0.06521 0.0
H502 H 0.08641 0.10621 0.05674 0.0
H503 H 0.03975 0.12059 0.09489 0.0
O504 O 0.22353 0.03387 0.1296 0.0
C505 C 0.11145 0.8951 0.13703 0.0
C506 C 0.07732 0.07533 0.11793 0.0
C507 C 0.09334 0.08893 0.07413 0.0
N508 N 0.13717 0.03577 0.09707 0.0
C509 C 0.11188 0.04387 0.11825 0.0
C510 C 0.1283 0.058 0.0752 0.0
C511 C 0.06758 0.09743 0.09564 0.0
C512 C 0.22346 0.81918 0.09408 0.0
N513 N 0.20491 0.82774 0.11678 0.0
C514 C 0.19531 0.75925 0.08339 0.0
C515 C 0.14787 0.70791 0.09611 0.0
C516 C 0.12922 0.71704 0.11927 0.0
C517 C 0.1584 0.77766 0.12937 0.0
C518 C 0.30174 0.82216 0.18238 0.0
C519 C 0.24488 0.89579 0.18327 0.0
C520 C 0.28923 0.84443 0.16064 0.0
N521 N 0.26098 0.88065 0.16128 0.0
C522 C 0.25667 0.87439 0.20538 0.0
C523 C 0.28531 0.83732 0.20488 0.0
C524 C 0.26748 0.03881 0.14368 0.0
C525 C 0.34947 0.09991 0.05588 0.0
C526 C 0.27095 0.12153 0.08585 0.0
C527 C 0.32274 0.17249 0.07461 0.0
C528 C 0.36185 0.16142 0.05931 0.0
N529 N 0.25686 0.06061 0.08153 0.0
C530 C 0.2972 0.05014 0.06743 0.0
Co531 Co 0.36631 0.24692 0.46266 0.0
Co532 Co 0.22114 0.21202 0.43778 0.0
O533 O 0.31235 0.2435 0.43515 0.0
C534 C 0.42938 0.38137 0.44767 0.0
O535 O 0.37323 0.37615 0.44868 0.0
C536 C 0.24039 0.18416 0.3857 0.0
O537 O 0.30068 0.20442 0.3893 0.0
O538 O 0.20706 0.13172 0.45438 0.0
O539 O 0.29856 0.16195 0.47461 0.0
H540 H 0.01477 0.12417 0.48317 0.0
H541 H 0.41956 0.27175 0.41224 0.0
O542 O 0.43518 0.33306 0.45172 0.0
H543 H 0.42798 0.08467 0.44095 0.0
H544 H 0.57287 0.29526 0.50165 0.0
H545 H 0.3451 0.21195 0.51552 0.0
H546 H 0.38636 0.13675 0.46787 0.0
H547 H 0.50365 0.28992 0.46755 0.0
O548 O 0.20349 0.17153 0.40405 0.0
H549 H 0.12791 0.15935 0.47869 0.0
H550 H 0.1204 0.1989 0.40299 0.0
H551 H 0.41247 0.21588 0.55007 0.0
H552 H 0.46231 0.22169 0.38477 0.0
H553 H 0.52727 0.25783 0.54324 0.0
H554 H 0.46651 0.12731 0.39907 0.0
O555 O 0.33218 0.28785 0.48479 0.0
H556 H 0.32388 0.40356 0.38187 0.0
H557 H 0.16849 0.29651 0.44799 0.0
H558 H 0.18273 0.39581 0.43102 0.0
H559 H 0.26025 0.44987 0.39742 0.0
H560 H 0.30935 0.30537 0.3997 0.0
H561 H 1.00692 0.16229 0.40651 0.0
H562 H 0.95366 0.12627 0.44668 0.0
O563 O 0.23402 0.25185 0.47011 0.0
C564 C 0.2404 0.1221 0.4703 0.0
C565 C 0.03741 0.13995 0.46544 0.0
C566 C 0.03306 0.16119 0.42241 0.0
N567 N 0.1309 0.18078 0.44058 0.0
C568 C 0.1016 0.15998 0.46281 0.0
C569 C 0.09729 0.18117 0.42049 0.0
C570 C 1.00314 0.14081 0.44506 0.0
C571 C 0.42145 0.23082 0.41861 0.0
N572 N 0.40004 0.20685 0.44155 0.0
C573 C 0.44559 0.20261 0.40296 0.0
C574 C 0.44788 0.14962 0.41099 0.0
C575 C 0.42617 0.12561 0.43447 0.0
C576 C 0.40227 0.15502 0.44958 0.0
C577 C 0.52291 0.27682 0.50485 0.0
C578 C 0.39492 0.22991 0.51236 0.0
C579 C 0.48351 0.27383 0.48563 0.0
N580 N 0.42032 0.25032 0.48951 0.0
C581 C 0.43288 0.23218 0.53202 0.0
C582 C 0.49729 0.25578 0.52818 0.0
C583 C 0.27779 0.28287 0.48547 0.0
C584 C 0.28854 0.37951 0.39599 0.0
C585 C 0.20124 0.31841 0.43294 0.0
C586 C 0.20956 0.37528 0.42358 0.0
C587 C 0.25312 0.40565 0.4048 0.0
N588 N 0.2341 0.29125 0.4235 0.0
C589 C 0.27895 0.32259 0.40583 0.0
Co590 Co 0.08257 0.33672 0.79793 0.0
Co591 Co 0.01614 0.20117 0.76286 0.0
O592 O 0.05986 0.29361 0.76592 0.0
C593 C 0.0132 0.39738 0.77642 0.0
O594 O 0.96429 0.34064 0.77341 0.0
C595 C 0.08162 0.24996 0.71521 0.0
O596 O 0.11299 0.30927 0.72218 0.0
O597 O 0.08439 0.19956 0.78321 0.0
O598 O 0.10045 0.27101 0.81238 0.0
H599 H 0.9283 0.98343 0.7984 0.0
H600 H 0.14509 0.4113 0.75328 0.0
O601 O 0.06515 0.40402 0.78476 0.0
H602 H 0.31785 0.42671 0.80529 0.0
H603 H 0.18263 0.52707 0.85341 0.0
H604 H 0.05575 0.29478 0.84993 0.0
H605 H 0.20711 0.36632 0.8193 0.0
H606 H 0.15564 0.47167 0.81349 0.0
O607 O 0.06294 0.20649 0.73143 0.0
H608 H 0.98003 0.09932 0.79962 0.0
H609 H 0.96345 0.10507 0.72213 0.0
H610 H 0.08198 0.34816 0.89024 0.0
H611 H 0.25528 0.47268 0.73861 0.0
H612 H 0.14589 0.46519 0.89216 0.0
H613 H 0.34254 0.48057 0.7647 0.0
O614 O 0.99358 0.28686 0.80904 0.0
H615 H 0.92111 0.29756 0.7066 0.0
H616 H 0.87621 0.11223 0.75674 0.0
H617 H 0.79084 0.11207 0.73319 0.0
H618 H 0.81264 0.20489 0.70759 0.0
H619 H 1.00536 0.29615 0.73017 0.0
H620 H 0.9151 0.9895 0.7198 0.0
H621 H 0.8963 0.92765 0.75817 0.0
O622 O 0.96541 0.19202 0.79267 0.0
C623 C 0.10524 0.22436 0.80438 0.0
C624 C 0.93592 0.00974 0.78151 0.0
C625 C 0.92906 0.01323 0.73741 0.0
N626 N 0.97527 0.10939 0.76088 0.0
C627 C 0.96522 0.07554 0.78208 0.0
C628 C 0.95775 0.07891 0.73874 0.0
C629 C 0.9181 0.97851 0.75897 0.0
C630 C 0.18286 0.4147 0.76474 0.0
N631 N 0.1697 0.38516 0.78706 0.0
C632 C 0.24513 0.44943 0.75634 0.0
C633 C 0.29406 0.4538 0.77097 0.0
C634 C 0.28024 0.42355 0.79374 0.0
C635 C 0.2174 0.38919 0.80153 0.0
C636 C 0.15482 0.47606 0.85282 0.0
C637 C 0.08379 0.34566 0.85061 0.0
C638 C 0.13927 0.44443 0.83027 0.0
N639 N 0.1044 0.38 0.82939 0.0
C640 C 0.0984 0.37565 0.87349 0.0
C641 C 0.13421 0.44131 0.87455 0.0
C642 C 0.95445 0.22843 0.80595 0.0
C643 C 0.91121 0.25614 0.71721 0.0
C644 C 0.88757 0.15234 0.74517 0.0
C645 C 0.83826 0.15217 0.73206 0.0
C646 C 0.8504 0.20428 0.71781 0.0
N647 N 0.94813 0.20225 0.74377 0.0
C648 C 0.95933 0.25457 0.73055 0.0
Co649 Co 0.75717 0.08075 0.13115 0.0
Co650 Co 0.83163 0.02119 0.09534 0.0
O651 O 0.77997 0.06194 0.09885 0.0
C652 C 0.62669 0.01109 0.10981 0.0
O653 O 0.63411 0.9619 0.10678 0.0
C654 C 0.84354 0.08443 0.0476 0.0
O655 O 0.81216 0.11259 0.05442 0.0
O656 O 0.89961 0.09021 0.11609 0.0
O657 O 0.84069 0.09919 0.14577 0.0
H658 H 0.96375 0.93473 0.13029 0.0
H659 H 0.74571 0.14628 0.08735 0.0
O660 O 0.67241 0.06301 0.11785 0.0
H661 H 0.89692 0.31551 0.14202 0.0
H662 H 0.66101 0.172 0.18832 0.0
H663 H 0.77004 0.04846 0.18261 0.0
H664 H 0.84842 0.20383 0.15443 0.0
H665 H 0.69227 0.1502 0.14796 0.0
O666 O 0.8715 0.06965 0.06396 0.0
H667 H 0.89762 0.98438 0.13186 0.0
H668 H 0.88353 0.97793 0.05397 0.0
H669 H 0.74008 0.06954 0.22334 0.0
H670 H 0.79273 0.25745 0.07427 0.0
H671 H 0.68514 0.13176 0.22639 0.0
H672 H 0.869 0.34294 0.1017 0.0
O673 O 0.7198 0.99102 0.14082 0.0
H674 H 0.63475 0.91907 0.042 0.0
H675 H 0.7895 0.88331 0.08645 0.0
H676 H 0.70572 0.79713 0.06306 0.0
H677 H 0.6272 0.81411 0.04039 0.0
H678 H 0.71991 1.00487 0.06492 0.0
H679 H 0.95329 0.93235 0.05146 0.0
H680 H 0.99277 0.90893 0.08987 0.0
O681 O 0.79144 0.96884 0.12498 0.0
C682 C 0.89361 0.10785 0.13767 0.0
C683 C 0.94639 0.94411 0.11341 0.0
C684 C 0.94098 0.94333 0.06919 0.0
N685 N 0.88599 0.98389 0.09298 0.0
C686 C 0.9086 0.9721 0.11416 0.0
C687 C 0.90243 0.97043 0.07067 0.0
C688 C 0.96283 0.92987 0.09074 0.0
C689 C 0.77872 0.18328 0.09939 0.0
N690 N 0.79435 0.16861 0.12158 0.0
C691 C 0.80525 0.24611 0.09189 0.0
C692 C 0.84808 0.29404 0.10728 0.0
C693 C 0.86381 0.27869 0.1299 0.0
C694 C 0.83636 0.21534 0.13678 0.0
C695 C 0.68504 0.14494 0.18724 0.0
C696 C 0.74649 0.07587 0.18378 0.0
C697 C 0.70274 0.13234 0.16443 0.0
N698 N 0.73339 0.09848 0.16294 0.0
C699 C 0.72948 0.08752 0.2069 0.0
C700 C 0.6986 0.12237 0.20859 0.0
C701 C 0.742 0.95425 0.13757 0.0
C702 C 0.66948 0.91134 0.05134 0.0
C703 C 0.75793 0.8932 0.07601 0.0
C704 C 0.7094 0.84313 0.06304 0.0
C705 C 0.66519 0.85251 0.05046 0.0
N706 N 0.76401 0.9521 0.07606 0.0
C707 C 0.71885 0.96039 0.06442 0.0
C708 C 0.94 0.13522 0.1806 0.0
C709 C 0.94916 0.13732 0.15488 0.0
H710 H 0.98265 0.15957 0.2165 0.0
C711 C 0.0116 0.16789 0.14609 0.0
H712 H 0.8927 0.11267 0.18821 0.0
C713 C 0.06319 0.19405 0.16243 0.0
C714 C 0.05403 0.19049 0.18817 0.0
H715 H 0.02068 0.17223 0.12653 0.0
H716 H 0.11048 0.21654 0.15482 0.0
C717 C 0.99162 0.16137 0.19696 0.0
C718 C 0.88288 0.0739 0.49313 0.0
C719 C 0.88177 0.06618 0.51889 0.0
H720 H 0.86083 0.02944 0.45754 0.0
C721 C 0.85017 1.00446 0.52829 0.0
H722 H 0.90496 0.12071 0.48518 0.0
C723 C 0.82308 0.95215 0.51239 0.0
C724 C 0.82839 0.95988 0.4866 0.0
H725 H 0.84676 0.9966 0.54796 0.0
H726 H 0.79928 0.90536 0.52038 0.0
C727 C 0.85743 0.02159 0.47721 0.0
C728 C 0.80629 0.87706 0.82557 0.0
C729 C 0.81329 0.87488 0.85131 0.0
H730 H 0.8256 0.8538 0.78959 0.0
C731 C 0.84651 0.84565 0.8601 0.0
H732 H 0.78125 0.89936 0.81801 0.0
C733 C 0.87148 0.81904 0.84372 0.0
C734 C 0.86497 0.82171 0.81799 0.0
H735 H 0.8525 0.84254 0.87969 0.0
H736 H 0.89669 0.79691 0.85128 0.0
C737 C 0.83219 0.85136 0.80917 0.0
C738 C 1.00984 0.84818 0.19529 0.0
C739 C 0.94799 0.8143 0.18592 0.0
H740 H 0.1093 0.8991 0.18732 0.0
C741 C 0.94036 0.80814 0.16011 0.0
H742 H 0.01769 0.85403 0.21496 0.0
C743 C 0.99289 0.8351 0.14418 0.0
C744 C 0.05473 0.86769 0.15359 0.0
H745 H 0.89349 0.78299 0.15214 0.0
H746 H 0.9851 0.82947 0.12451 0.0
C747 C 0.0624 0.87375 0.17938 0.0
C748 C 0.14726 0.03714 0.49443 0.0
C749 C 0.21038 0.0642 0.4863 0.0
H750 H 0.07319 0.96704 0.51713 0.0
C751 C 0.24732 0.03976 0.49599 0.0
H752 H 0.11765 0.05541 0.48791 0.0
C753 C 0.22196 0.98941 0.5128 0.0
C754 C 0.15915 0.9626 0.52114 0.0
H755 H 0.29622 0.0595 0.49052 0.0
H756 H 0.25188 0.97146 0.51932 0.0
C757 C 0.12213 0.98731 0.51171 0.0
C758 C 0.1879 0.13608 0.82774 0.0
C759 C 0.18739 0.14321 0.85349 0.0
H760 H 0.16267 0.15547 0.79221 0.0
C761 C 0.16061 0.17822 0.86281 0.0
H762 H 0.20807 0.10942 0.81981 0.0
C763 C 0.13481 0.20497 0.84689 0.0
C764 C 0.13429 0.19689 0.82114 0.0
H765 H 0.16041 0.18576 0.88242 0.0
H766 H 0.11447 0.23142 0.85485 0.0
C767 C 0.1614 0.16212 0.81184 0.0
C768 C 0.51058 0.55697 0.23395 0.0
C769 C 0.5648 0.55062 0.23328 0.0
H770 H 0.40927 0.51025 0.23381 0.0
C771 C 0.55693 0.48959 0.23407 0.0
H772 H 0.51477 0.60321 0.23335 0.0
C773 C 0.49629 0.43621 0.23469 0.0
C774 C 0.44204 0.44255 0.23413 0.0
H775 H 0.59762 0.48296 0.23364 0.0
H776 H 0.492 0.38992 0.23462 0.0
C777 C 0.44997 0.50362 0.23417 0.0
C778 C 0.99428 0.5261 0.56011 0.0
C779 C 0.05413 0.58092 0.56128 0.0
H780 H 0.94178 0.4251 0.55843 0.0
C781 C 0.10789 0.57418 0.56364 0.0
H782 H 0.9518 0.52936 0.55833 0.0
C783 C 0.10204 0.51409 0.56396 0.0
C784 C 0.04237 0.4594 0.56163 0.0
H785 H 0.15469 0.61536 0.56468 0.0
H786 H 0.14453 0.51067 0.56513 0.0
C787 C 0.98851 0.46617 0.56013 0.0
C788 C 0.50456 0.0646 0.89987 0.0
C789 C 0.44355 0.01139 0.89916 0.0
H790 H 0.60442 0.09977 0.90023 0.0
C791 C 0.43751 0.95102 0.89976 0.0
H792 H 0.51099 0.11178 0.89951 0.0
C793 C 0.49118 0.94407 0.89984 0.0
C794 C 0.55223 0.99732 0.89973 0.0
H795 H 0.39128 0.90894 0.8992 0.0
H796 H 0.4848 0.89692 0.89942 0.0
C797 C 0.5582 0.05765 0.90035 0.0
C798 C 0.53548 0.55946 0.44574 0.0
C799 C 0.59614 0.56628 0.44438 0.0
H800 H 0.4356 0.49621 0.44742 0.0
C801 C 0.60123 0.51162 0.44215 0.0
H802 H 0.52974 0.60051 0.44735 0.0
C803 C 0.54705 0.45151 0.44246 0.0
C804 C 0.4865 0.44472 0.44469 0.0
H805 H 0.64718 0.5151 0.44109 0.0
H806 H 0.55274 0.41035 0.44152 0.0
C807 C 0.48138 0.49951 0.44574 0.0
C808 C 0.93792 0.50073 0.7716 0.0
C809 C 0.99096 0.56185 0.77221 0.0
H810 H 0.9033 0.40109 0.77195 0.0
C811 C 0.05159 0.56825 0.77225 0.0
H812 H 0.89056 0.49404 0.77151 0.0
C813 C 0.05893 0.51492 0.77286 0.0
C814 C 1.00585 0.45382 0.77305 0.0
H815 H 0.09355 0.61454 0.77277 0.0
H816 H 0.10625 0.52162 0.77374 0.0
C817 C 0.94528 0.44739 0.7718 0.0
C818 C 0.49427 0.05016 0.10768 0.0
C819 C 0.44002 0.98975 0.108 0.0
H820 H 0.59558 0.10437 0.10806 0.0
C821 C 0.4479 0.9366 0.10682 0.0
H822 H 0.49007 0.09219 0.10858 0.0
C823 C 0.50853 0.94366 0.10618 0.0
C824 C 0.56279 1.00402 0.10709 0.0
H825 H 0.4072 0.8894 0.10696 0.0
H826 H 0.51277 0.90162 0.10596 0.0
C827 C 0.55488 0.0572 0.10742 0.0
C828 C 0.28214 0.07897 0.1859 0.0
C829 C 0.29272 0.09163 0.16078 0.0
H830 H 0.26336 0.10895 0.21993 0.0
C831 C 0.30938 0.15186 0.1518 0.0
H832 H 0.2697 0.03303 0.19322 0.0
C833 C 0.30563 0.19558 0.1671 0.0
C834 C 0.28466 0.17864 0.19135 0.0
H835 H 0.31931 0.16284 0.13249 0.0
H836 H 0.31264 0.23938 0.15928 0.0
C837 C 0.27773 0.12226 0.20111 0.0
C838 C 0.17694 0.3323 0.51425 0.0
C839 C 0.14618 0.2809 0.53039 0.0
H840 H 0.25034 0.37707 0.48742 0.0
C841 C 0.17651 0.24699 0.53712 0.0
H842 H 0.15536 0.36002 0.50902 0.0
C843 C 0.2328 0.25957 0.52595 0.0
C844 C 0.25732 0.30347 0.50682 0.0
H845 H 0.15425 0.20689 0.54935 0.0
H846 H 0.25061 0.22749 0.52927 0.0
C847 C 0.23238 0.34343 0.50244 0.0
C848 C 0.89902 0.20919 0.84578 0.0
C849 C 0.89645 0.19798 0.8205 0.0
H850 H 0.8589 0.16973 0.88061 0.0
C851 C 0.84197 0.14704 0.81025 0.0
H852 H 0.9398 0.249 0.85405 0.0
C853 C 0.79605 0.10141 0.82543 0.0
C854 C 0.80483 0.10695 0.85087 0.0
H855 H 0.8378 0.13913 0.79067 0.0
H856 H 0.75837 0.05879 0.81725 0.0
C857 C 0.85306 0.16355 0.86096 0.0
C858 C 0.71878 0.84383 0.14079 0.0
C859 C 0.71471 0.8945 0.15101 0.0
H860 H 0.72516 0.76138 0.14803 0.0
C861 C 0.69544 0.89109 0.17546 0.0
H862 H 0.73135 0.84429 0.12178 0.0
C863 C 0.69127 0.84297 0.19047 0.0
C864 C 0.70634 0.79858 0.18102 0.0
H865 H 0.69049 0.92882 0.18362 0.0
H866 H 0.68278 0.84435 0.2099 0.0
C867 C 0.71431 0.7957 0.15574 0.0
C868 C 0.94292 0.7804 0.46899 0.0
C869 C 0.87859 0.74614 0.47555 0.0
H870 H 0.03658 0.80061 0.47724 0.0
C871 C 0.85798 0.69481 0.49173 0.0
H872 H 0.96067 0.82034 0.45668 0.0
C873 C 0.90228 0.68401 0.50372 0.0
C874 C 0.96718 0.72423 0.4995 0.0
H875 H 0.80861 0.66682 0.49683 0.0
H876 H 0.88651 0.65029 0.51872 0.0
C877 C 0.98669 0.76829 0.48042 0.0
C878 C 0.13348 0.85198 0.86147 0.0
C879 C 0.18528 0.90658 0.85175 0.0
H880 H 0.046 0.76831 0.85365 0.0
C881 C 0.19752 0.91047 0.8265 0.0
H882 H 0.12449 0.84701 0.881 0.0
C883 C 0.15253 0.86538 0.81086 0.0
C884 C 0.09574 0.81621 0.82045 0.0
H885 H 0.2379 0.95145 0.81864 0.0
H886 H 0.15962 0.8722 0.79126 0.0
C887 C 0.08883 0.80659 0.84585 0.0
C888 C 0.26054 0.25452 0.34954 0.0
C889 C 0.21988 0.19817 0.36195 0.0
H890 H 0.27247 0.3177 0.32026 0.0
C891 C 0.1578 0.16069 0.35311 0.0
H892 H 0.30828 0.28519 0.35605 0.0
C893 C 0.13797 0.17806 0.33164 0.0
C894 C 0.17897 0.23459 0.31926 0.0
H895 H 0.12489 0.11778 0.36266 0.0
H896 H 0.09062 0.14741 0.32475 0.0
C897 C 0.23966 0.27354 0.32908 0.0
C898 C 0.9817 0.15509 0.66074 0.0
C899 C 0.96921 0.19885 0.64891 0.0
H900 H 0.03144 0.13833 0.68961 0.0
C901 C 0.99568 0.26006 0.65877 0.0
H902 H 0.96092 0.10715 0.65398 0.0
C903 C 0.03563 0.27777 0.67926 0.0
C904 C 0.04828 0.23405 0.69108 0.0
H905 H 0.98732 0.29522 0.65018 0.0
H906 H 0.05482 0.32529 0.68633 0.0
C907 C 0.02168 0.1728 0.68128 0.0
C908 C 0.76697 0.02898 0.0133 0.0
C909 C 0.82683 0.0496 0.02377 0.0
H910 H 0.69907 0.97191 0.98617 0.0
C911 C 0.86676 0.03064 0.01266 0.0
H912 H 0.73485 0.04267 0.0212 0.0
C913 C 0.84665 0.99097 0.99193 0.0
C914 C 0.786 0.96904 0.98196 0.0
H915 H 0.91357 0.0465 0.02001 0.0
H916 H 0.87859 0.97751 0.98367 0.0
C917 C 0.74604 0.98753 0.9933 0.0
C918 C 0.85645 0.84744 0.32401 0.0
C919 C 0.82177 0.78519 0.31515 0.0
H920 H 0.86278 0.91505 0.35071 0.0
C921 C 0.76592 0.74247 0.32748 0.0
H922 H 0.89973 0.88153 0.31497 0.0
C923 C 0.74448 0.76184 0.34773 0.0
C924 C 0.77977 0.82372 0.35693 0.0
H925 H 0.73744 0.69435 0.32105 0.0
H926 H 0.70134 0.72737 0.35674 0.0
C927 C 0.83535 0.86662 0.3445 0.0
C928 C 1.01003 0.86295 0.65449 0.0
C929 C 0.03329 0.82493 0.64497 0.0
H930 H 0.95728 0.87591 0.68345 0.0
C931 C 0.01637 0.76747 0.65674 0.0
H932 H 0.02127 0.90691 0.64551 0.0
C933 C 0.97607 0.74762 0.67708 0.0
C934 C 0.95525 0.78673 0.68747 0.0
H935 H 0.03269 0.73657 0.64979 0.0
H936 H 0.96347 0.70248 0.6853 0.0
C937 C 0.9727 0.84478 0.67594 0.0
C938 C 0.24337 0.98927 0.01357 0.0
C939 C 0.18466 0.96995 0.02482 0.0
H940 H 0.30932 0.04483 0.98563 0.0
C941 C 0.14548 0.99145 0.01494 0.0
H942 H 0.27512 0.9742 0.02075 0.0
C943 C 0.16451 0.03088 0.99416 0.0
C944 C 0.22363 0.05062 0.98312 0.0
H945 H 0.10016 0.97781 0.02331 0.0
H946 H 0.13297 0.04588 0.9867 0.0
C947 C 0.26343 0.03065 0.99356 0.0
loop_
_geom_bond_atom_site_label_1
_geom_bond_atom_site_label_2
_geom_bond_distance
_geom_bond_site_symmetry_2
_ccdc_geom_bond_type
Co0 O2 2.143 . S
Co0 O8 2.074 . S
Co0 O11 2.093 . S
Co0 O24 2.097 . S
Co0 N41 2.151 . S
Co0 N49 2.214 . S
Co1 O2 2.160 . S
Co1 O7 2.058 . S
Co1 O17 2.057 . S
Co1 O32 2.037 . S
Co1 N36 2.145 . S
Co1 N57 2.257 . S
O2 Co0 2.143 . S
O2 Co1 2.160 . S
C3 O4 1.278 . S
C3 O11 1.224 . S
O4 C3 1.278 . S
C5 O6 1.245 . S
C5 O17 1.232 . S
O6 C5 1.245 . S
O7 Co1 2.058 . S
O7 C33 1.269 . S
O8 Co0 2.074 . S
O8 C33 1.257 . S
H9 C34 0.930 . S
H10 C40 0.930 . S
O11 Co0 2.093 . S
O11 C3 1.224 . S
H12 C44 0.929 . S
H13 C46 0.930 . S
H14 C47 0.930 . S
H15 C45 0.929 . S
H16 C48 0.928 . S
O17 Co1 2.057 . S
O17 C5 1.232 . S
H18 C37 0.929 . S
H19 C38 0.929 . S
H20 C50 0.931 . S
H21 C42 0.929 . S
H22 C51 0.930 . S
H23 C43 0.931 . S
O24 Co0 2.097 . S
O24 C52 1.214 . S
H25 C53 0.929 . S
H26 C54 0.929 . S
H27 C55 0.930 . S
H28 C56 0.929 . S
H29 C58 0.930 . S
H30 C35 0.930 1_565 S
H31 C39 0.930 . S
O32 Co1 2.037 . S
O32 C52 1.234 . S
C33 O7 1.269 . S
C33 O8 1.257 . S
C34 H9 0.930 . S
C34 C37 1.388 1_565 S
C34 C39 1.418 . S
C35 H30 0.930 1_545 S
C35 C38 1.404 . S
C35 C39 1.353 1_545 S
N36 Co1 2.145 . S
N36 C37 1.397 . S
N36 C38 1.334 . S
C37 H18 0.929 . S
C37 C34 1.388 1_545 S
C37 N36 1.397 . S
C38 H19 0.929 . S
C38 C35 1.404 . S
C38 N36 1.334 . S
C39 H31 0.930 . S
C39 C34 1.418 . S
C39 C35 1.353 1_565 S
C40 H10 0.930 . S
C40 N41 1.330 . S
C40 C42 1.446 . S
N41 Co0 2.151 . S
N41 C40 1.330 . S
N41 C45 1.418 . S
C42 H21 0.929 . S
C42 C40 1.446 . S
C42 C43 1.332 . S
C43 H23 0.931 . S
C43 C42 1.332 . S
C43 C44 1.267 . S
C44 H12 0.929 . S
C44 C43 1.267 . S
C44 C45 1.251 . S
C45 H15 0.929 . S
C45 N41 1.418 . S
C45 C44 1.251 . S
C46 H13 0.930 . S
C46 C48 1.406 . S
C46 C51 1.261 . S
C47 H14 0.930 . S
C47 N49 1.325 . S
C47 C50 1.357 . S
C48 H16 0.928 . S
C48 C46 1.406 . S
C48 N49 1.261 . S
N49 Co0 2.214 . S
N49 C47 1.325 . S
N49 C48 1.261 . S
C50 H20 0.931 . S
C50 C47 1.357 . S
C50 C51 1.312 . S
C51 H22 0.930 . S
C51 C46 1.261 . S
C51 C50 1.312 . S
C52 O24 1.214 . S
C52 O32 1.234 . S
C53 H25 0.929 . S
C53 C56 1.391 . S
C53 C58 1.391 . S
C54 H26 0.929 . S
C54 C55 1.390 . S
C54 N57 1.391 . S
C55 H27 0.930 . S
C55 C54 1.390 . S
C55 C56 1.392 . S
C56 H28 0.929 . S
C56 C53 1.391 . S
C56 C55 1.392 . S
N57 Co1 2.257 . S
N57 C54 1.391 . S
N57 C58 1.388 . S
C58 H29 0.930 . S
C58 C53 1.391 . S
C58 N57 1.388 . S
Co59 O61 2.143 . S
Co59 O67 2.074 . S
Co59 O70 2.093 . S
Co59 O83 2.097 1_655 S
Co59 N100 2.151 . S
Co59 N108 2.214 . S
Co60 O61 2.160 1_455 S
Co60 O66 2.058 1_455 S
Co60 O76 2.057 1_455 S
Co60 O91 2.037 . S
Co60 N95 2.145 . S
Co60 N116 2.257 . S
O61 Co59 2.143 . S
O61 Co60 2.160 1_655 S
C62 O63 1.278 1_655 S
C62 O70 1.224 . S
O63 C62 1.278 1_455 S
C64 O65 1.245 . S
C64 O76 1.232 . S
O65 C64 1.245 . S
O66 Co60 2.058 1_655 S
O66 C92 1.269 . S
O67 Co59 2.074 . S
O67 C92 1.257 . S
H68 C93 0.930 . S
H69 C99 0.930 . S
O70 Co59 2.093 . S
O70 C62 1.224 . S
H71 C103 0.929 . S
H72 C105 0.930 . S
H73 C106 0.930 . S
H74 C104 0.929 . S
H75 C107 0.928 . S
O76 Co60 2.057 1_655 S
O76 C64 1.232 . S
H77 C96 0.929 . S
H78 C97 0.929 . S
H79 C109 0.931 . S
H80 C101 0.929 . S
H81 C110 0.930 . S
H82 C102 0.931 . S
O83 Co59 2.097 1_455 S
O83 C111 1.214 . S
H84 C112 0.929 . S
H85 C113 0.929 . S
H86 C114 0.930 . S
H87 C115 0.929 . S
H88 C117 0.930 . S
H89 C94 0.930 . S
H90 C98 0.930 . S
O91 Co60 2.037 . S
O91 C111 1.234 . S
C92 O66 1.269 . S
C92 O67 1.257 . S
C93 H68 0.930 . S
C93 C96 1.388 . S
C93 C98 1.418 . S
C94 H89 0.930 . S
C94 C97 1.404 . S
C94 C98 1.353 . S
N95 Co60 2.145 . S
N95 C96 1.397 . S
N95 C97 1.334 . S
C96 H77 0.929 . S
C96 C93 1.388 . S
C96 N95 1.397 . S
C97 H78 0.929 . S
C97 C94 1.404 . S
C97 N95 1.334 . S
C98 H90 0.930 . S
C98 C93 1.418 . S
C98 C94 1.353 . S
C99 H69 0.930 . S
C99 N100 1.330 . S
C99 C101 1.446 . S
N100 Co59 2.151 . S
N100 C99 1.330 . S
N100 C104 1.418 . S
C101 H80 0.929 . S
C101 C99 1.446 . S
C101 C102 1.332 . S
C102 H82 0.931 . S
C102 C101 1.332 . S
C102 C103 1.267 . S
C103 H71 0.929 . S
C103 C102 1.267 . S
C103 C104 1.251 . S
C104 H74 0.929 . S
C104 N100 1.418 . S
C104 C103 1.251 . S
C105 H72 0.930 . S
C105 C107 1.406 . S
C105 C110 1.261 . S
C106 H73 0.930 . S
C106 N108 1.325 . S
C106 C109 1.357 . S
C107 H75 0.928 . S
C107 C105 1.406 . S
C107 N108 1.261 . S
N108 Co59 2.214 . S
N108 C106 1.325 . S
N108 C107 1.261 . S
C109 H79 0.931 . S
C109 C106 1.357 . S
C109 C110 1.312 . S
C110 H81 0.930 . S
C110 C105 1.261 . S
C110 C109 1.312 . S
C111 O83 1.214 . S
C111 O91 1.234 . S
C112 H84 0.929 . S
C112 C115 1.391 . S
C112 C117 1.391 . S
C113 H85 0.929 . S
C113 C114 1.390 . S
C113 N116 1.391 . S
C114 H86 0.930 . S
C114 C113 1.390 . S
C114 C115 1.392 . S
C115 H87 0.929 . S
C115 C112 1.391 . S
C115 C114 1.392 . S
N116 Co60 2.257 . S
N116 C113 1.391 . S
N116 C117 1.388 . S
C117 H88 0.930 . S
C117 C112 1.391 . S
C117 N116 1.388 . S
Co118 O120 2.143 . S
Co118 O126 2.074 . S
Co118 O129 2.093 . S
Co118 O142 2.097 1_565 S
Co118 N159 2.151 . S
Co118 N167 2.214 . S
Co119 O120 2.160 1_545 S
Co119 O125 2.058 1_545 S
Co119 O135 2.057 1_545 S
Co119 O150 2.037 . S
Co119 N154 2.145 . S
Co119 N175 2.257 . S
O120 Co118 2.143 . S
O120 Co119 2.160 1_565 S
C121 O122 1.278 1_565 S
C121 O129 1.224 . S
O122 C121 1.278 1_545 S
C123 O124 1.245 . S
C123 O135 1.232 . S
O124 C123 1.245 . S
O125 Co119 2.058 1_565 S
O125 C151 1.269 . S
O126 Co118 2.074 . S
O126 C151 1.257 . S
H127 C152 0.930 . S
H128 C158 0.930 . S
O129 Co118 2.093 . S
O129 C121 1.224 . S
H130 C162 0.929 . S
H131 C164 0.930 . S
H132 C165 0.930 . S
H133 C163 0.929 . S
H134 C166 0.928 . S
O135 Co119 2.057 1_565 S
O135 C123 1.232 . S
H136 C155 0.929 . S
H137 C156 0.929 . S
H138 C168 0.931 . S
H139 C160 0.929 . S
H140 C169 0.930 . S
H141 C161 0.931 . S
O142 Co118 2.097 1_545 S
O142 C170 1.214 . S
H143 C171 0.929 . S
H144 C172 0.929 . S
H145 C173 0.930 . S
H146 C174 0.929 . S
H147 C176 0.930 . S
H148 C153 0.930 1_455 S
H149 C157 0.930 . S
O150 Co119 2.037 . S
O150 C170 1.234 . S
C151 O125 1.269 . S
C151 O126 1.257 . S
C152 H127 0.930 . S
C152 C155 1.388 1_455 S
C152 C157 1.418 . S
C153 H148 0.930 1_655 S
C153 C156 1.404 . S
C153 C157 1.353 1_655 S
N154 Co119 2.145 . S
N154 C155 1.397 . S
N154 C156 1.334 . S
C155 H136 0.929 . S
C155 C152 1.388 1_655 S
C155 N154 1.397 . S
C156 H137 0.929 . S
C156 C153 1.404 . S
C156 N154 1.334 . S
C157 H149 0.930 . S
C157 C152 1.418 . S
C157 C153 1.353 1_455 S
C158 H128 0.930 . S
C158 N159 1.330 . S
C158 C160 1.446 . S
N159 Co118 2.151 . S
N159 C158 1.330 . S
N159 C163 1.418 . S
C160 H139 0.929 . S
C160 C158 1.446 . S
C160 C161 1.332 . S
C161 H141 0.931 . S
C161 C160 1.332 . S
C161 C162 1.267 . S
C162 H130 0.929 . S
C162 C161 1.267 . S
C162 C163 1.251 . S
C163 H133 0.929 . S
C163 N159 1.418 . S
C163 C162 1.251 . S
C164 H131 0.930 . S
C164 C166 1.406 . S
C164 C169 1.261 . S
C165 H132 0.930 . S
C165 N167 1.325 . S
C165 C168 1.357 . S
C166 H134 0.928 . S
C166 C164 1.406 . S
C166 N167 1.261 . S
N167 Co118 2.214 . S
N167 C165 1.325 . S
N167 C166 1.261 . S
C168 H138 0.931 . S
C168 C165 1.357 . S
C168 C169 1.312 . S
C169 H140 0.930 . S
C169 C164 1.261 . S
C169 C168 1.312 . S
C170 O142 1.214 . S
C170 O150 1.234 . S
C171 H143 0.929 . S
C171 C174 1.391 . S
C171 C176 1.391 . S
C172 H144 0.929 . S
C172 C173 1.390 . S
C172 N175 1.391 . S
C173 H145 0.930 . S
C173 C172 1.390 . S
C173 C174 1.392 . S
C174 H146 0.929 . S
C174 C171 1.391 . S
C174 C173 1.392 . S
N175 Co119 2.257 . S
N175 C172 1.391 . S
N175 C176 1.388 . S
C176 H147 0.930 . S
C176 C171 1.391 . S
C176 N175 1.388 . S
Co177 O179 2.143 . S
Co177 O185 2.074 . S
Co177 O188 2.093 . S
Co177 O201 2.097 . S
Co177 N218 2.151 . S
Co177 N226 2.214 . S
Co178 O179 2.160 . S
Co178 O184 2.058 . S
Co178 O194 2.057 . S
Co178 O209 2.037 . S
Co178 N213 2.145 . S
Co178 N234 2.257 . S
O179 Co177 2.143 . S
O179 Co178 2.160 . S
C180 O181 1.278 . S
C180 O188 1.224 . S
O181 C180 1.278 . S
C182 O183 1.245 . S
C182 O194 1.232 . S
O183 C182 1.245 . S
O184 Co178 2.058 . S
O184 C210 1.269 . S
O185 Co177 2.074 . S
O185 C210 1.257 . S
H186 C211 0.930 . S
H187 C217 0.930 . S
O188 Co177 2.093 . S
O188 C180 1.224 . S
H189 C221 0.929 . S
H190 C223 0.930 . S
H191 C224 0.930 . S
H192 C222 0.929 . S
H193 C225 0.928 . S
O194 Co178 2.057 . S
O194 C182 1.232 . S
H195 C214 0.929 . S
H196 C215 0.929 . S
H197 C227 0.931 . S
H198 C219 0.929 . S
H199 C228 0.930 . S
H200 C220 0.931 . S
O201 Co177 2.097 . S
O201 C229 1.214 . S
H202 C230 0.929 . S
H203 C231 0.929 . S
H204 C232 0.930 . S
H205 C233 0.929 . S
H206 C235 0.930 . S
H207 C212 0.930 1_545 S
H208 C216 0.930 . S
O209 Co178 2.037 . S
O209 C229 1.234 . S
C210 O184 1.269 . S
C210 O185 1.257 . S
C211 H186 0.930 . S
C211 C214 1.388 1_545 S
C211 C216 1.418 . S
C212 H207 0.930 1_565 S
C212 C215 1.404 . S
C212 C216 1.353 1_565 S
N213 Co178 2.145 . S
N213 C214 1.397 . S
N213 C215 1.334 . S
C214 H195 0.929 . S
C214 C211 1.388 1_565 S
C214 N213 1.397 . S
C215 H196 0.929 . S
C215 C212 1.404 . S
C215 N213 1.334 . S
C216 H208 0.930 . S
C216 C211 1.418 . S
C216 C212 1.353 1_545 S
C217 H187 0.930 . S
C217 N218 1.330 . S
C217 C219 1.446 . S
N218 Co177 2.151 . S
N218 C217 1.330 . S
N218 C222 1.418 . S
C219 H198 0.929 . S
C219 C217 1.446 . S
C219 C220 1.332 . S
C220 H200 0.931 . S
C220 C219 1.332 . S
C220 C221 1.267 . S
C221 H189 0.929 . S
C221 C220 1.267 . S
C221 C222 1.251 . S
C222 H192 0.929 . S
C222 N218 1.418 . S
C222 C221 1.251 . S
C223 H190 0.930 . S
C223 C225 1.406 . S
C223 C228 1.261 . S
C224 H191 0.930 . S
C224 N226 1.325 . S
C224 C227 1.357 . S
C225 H193 0.928 . S
C225 C223 1.406 . S
C225 N226 1.261 . S
N226 Co177 2.214 . S
N226 C224 1.325 . S
N226 C225 1.261 . S
C227 H197 0.931 . S
C227 C224 1.357 . S
C227 C228 1.312 . S
C228 H199 0.930 . S
C228 C223 1.261 . S
C228 C227 1.312 . S
C229 O201 1.214 . S
C229 O209 1.234 . S
C230 H202 0.929 . S
C230 C233 1.391 . S
C230 C235 1.391 . S
C231 H203 0.929 . S
C231 C232 1.390 . S
C231 N234 1.391 . S
C232 H204 0.930 . S
C232 C231 1.390 . S
C232 C233 1.392 . S
C233 H205 0.929 . S
C233 C230 1.391 . S
C233 C232 1.392 . S
N234 Co178 2.257 . S
N234 C231 1.391 . S
N234 C235 1.388 . S
C235 H206 0.930 . S
C235 C230 1.391 . S
C235 N234 1.388 . S
Co236 O238 2.143 . S
Co236 O244 2.074 . S
Co236 O247 2.093 . S
Co236 O260 2.097 1_455 S
Co236 N277 2.151 . S
Co236 N285 2.214 . S
Co237 O238 2.160 1_655 S
Co237 O243 2.058 1_655 S
Co237 O253 2.057 1_655 S
Co237 O268 2.037 . S
Co237 N272 2.145 . S
Co237 N293 2.257 . S
O238 Co236 2.143 . S
O238 Co237 2.160 1_455 S
C239 O240 1.278 1_455 S
C239 O247 1.224 . S
O240 C239 1.278 1_655 S
C241 O242 1.245 . S
C241 O253 1.232 . S
O242 C241 1.245 . S
O243 Co237 2.058 1_455 S
O243 C269 1.269 . S
O244 Co236 2.074 . S
O244 C269 1.257 . S
H245 C270 0.930 . S
H246 C276 0.930 . S
O247 Co236 2.093 . S
O247 C239 1.224 . S
H248 C280 0.929 . S
H249 C282 0.930 . S
H250 C283 0.930 . S
H251 C281 0.929 . S
H252 C284 0.928 . S
O253 Co237 2.057 1_455 S
O253 C241 1.232 . S
H254 C273 0.929 . S
H255 C274 0.929 . S
H256 C286 0.931 . S
H257 C278 0.929 . S
H258 C287 0.930 . S
H259 C279 0.931 . S
O260 Co236 2.097 1_655 S
O260 C288 1.214 . S
H261 C289 0.929 . S
H262 C290 0.929 . S
H263 C291 0.930 . S
H264 C292 0.929 . S
H265 C294 0.930 . S
H266 C271 0.930 . S
H267 C275 0.930 . S
O268 Co237 2.037 . S
O268 C288 1.234 . S
C269 O243 1.269 . S
C269 O244 1.257 . S
C270 H245 0.930 . S
C270 C273 1.388 . S
C270 C275 1.418 . S
C271 H266 0.930 . S
C271 C274 1.404 . S
C271 C275 1.353 . S
N272 Co237 2.145 . S
N272 C273 1.397 . S
N272 C274 1.334 . S
C273 H254 0.929 . S
C273 C270 1.388 . S
C273 N272 1.397 . S
C274 H255 0.929 . S
C274 C271 1.404 . S
C274 N272 1.334 . S
C275 H267 0.930 . S
C275 C270 1.418 . S
C275 C271 1.353 . S
C276 H246 0.930 . S
C276 N277 1.330 . S
C276 C278 1.446 . S
N277 Co236 2.151 . S
N277 C276 1.330 . S
N277 C281 1.418 . S
C278 H257 0.929 . S
C278 C276 1.446 . S
C278 C279 1.332 . S
C279 H259 0.931 . S
C279 C278 1.332 . S
C279 C280 1.267 . S
C280 H248 0.929 . S
C280 C279 1.267 . S
C280 C281 1.251 . S
C281 H251 0.929 . S
C281 N277 1.418 . S
C281 C280 1.251 . S
C282 H249 0.930 . S
C282 C284 1.406 . S
C282 C287 1.261 . S
C283 H250 0.930 . S
C283 N285 1.325 . S
C283 C286 1.357 . S
C284 H252 0.928 . S
C284 C282 1.406 . S
C284 N285 1.261 . S
N285 Co236 2.214 . S
N285 C283 1.325 . S
N285 C284 1.261 . S
C286 H256 0.931 . S
C286 C283 1.357 . S
C286 C287 1.312 . S
C287 H258 0.930 . S
C287 C282 1.261 . S
C287 C286 1.312 . S
C288 O260 1.214 . S
C288 O268 1.234 . S
C289 H261 0.929 . S
C289 C292 1.391 . S
C289 C294 1.391 . S
C290 H262 0.929 . S
C290 C291 1.390 . S
C290 N293 1.391 . S
C291 H263 0.930 . S
C291 C290 1.390 . S
C291 C292 1.392 . S
C292 H264 0.929 . S
C292 C289 1.391 . S
C292 C291 1.392 . S
N293 Co237 2.257 . S
N293 C290 1.391 . S
N293 C294 1.388 . S
C294 H265 0.930 . S
C294 C289 1.391 . S
C294 N293 1.388 . S
Co295 O297 2.143 . S
Co295 O303 2.074 . S
Co295 O306 2.093 . S
Co295 O319 2.097 1_545 S
Co295 N336 2.151 . S
Co295 N344 2.214 . S
Co296 O297 2.160 1_565 S
Co296 O302 2.058 1_565 S
Co296 O312 2.057 1_565 S
Co296 O327 2.037 . S
Co296 N331 2.145 . S
Co296 N352 2.257 . S
O297 Co295 2.143 . S
O297 Co296 2.160 1_545 S
C298 O299 1.278 1_545 S
C298 O306 1.224 . S
O299 C298 1.278 1_565 S
C300 O301 1.245 . S
C300 O312 1.232 . S
O301 C300 1.245 . S
O302 Co296 2.058 1_545 S
O302 C328 1.269 . S
O303 Co295 2.074 . S
O303 C328 1.257 . S
H304 C329 0.930 . S
H305 C335 0.930 . S
O306 Co295 2.093 . S
O306 C298 1.224 . S
H307 C339 0.929 . S
H308 C341 0.930 . S
H309 C342 0.930 . S
H310 C340 0.929 . S
H311 C343 0.928 . S
O312 Co296 2.057 1_545 S
O312 C300 1.232 . S
H313 C332 0.929 . S
H314 C333 0.929 . S
H315 C345 0.931 . S
H316 C337 0.929 . S
H317 C346 0.930 . S
H318 C338 0.931 . S
O319 Co295 2.097 1_565 S
O319 C347 1.214 . S
H320 C348 0.929 . S
H321 C349 0.929 . S
H322 C350 0.930 . S
H323 C351 0.929 . S
H324 C353 0.930 . S
H325 C330 0.930 1_655 S
H326 C334 0.930 . S
O327 Co296 2.037 . S
O327 C347 1.234 . S
C328 O302 1.269 . S
C328 O303 1.257 . S
C329 H304 0.930 . S
C329 C332 1.388 1_655 S
C329 C334 1.418 . S
C330 H325 0.930 1_455 S
C330 C333 1.404 . S
C330 C334 1.353 1_455 S
N331 Co296 2.145 . S
N331 C332 1.397 . S
N331 C333 1.334 . S
C332 H313 0.929 . S
C332 C329 1.388 1_455 S
C332 N331 1.397 . S
C333 H314 0.929 . S
C333 C330 1.404 . S
C333 N331 1.334 . S
C334 H326 0.930 . S
C334 C329 1.418 . S
C334 C330 1.353 1_655 S
C335 H305 0.930 . S
C335 N336 1.330 . S
C335 C337 1.446 . S
N336 Co295 2.151 . S
N336 C335 1.330 . S
N336 C340 1.418 . S
C337 H316 0.929 . S
C337 C335 1.446 . S
C337 C338 1.332 . S
C338 H318 0.931 . S
C338 C337 1.332 . S
C338 C339 1.267 . S
C339 H307 0.929 . S
C339 C338 1.267 . S
C339 C340 1.251 . S
C340 H310 0.929 . S
C340 N336 1.418 . S
C340 C339 1.251 . S
C341 H308 0.930 . S
C341 C343 1.406 . S
C341 C346 1.261 . S
C342 H309 0.930 . S
C342 N344 1.325 . S
C342 C345 1.357 . S
C343 H311 0.928 . S
C343 C341 1.406 . S
C343 N344 1.261 . S
N344 Co295 2.214 . S
N344 C342 1.325 . S
N344 C343 1.261 . S
C345 H315 0.931 . S
C345 C342 1.357 . S
C345 C346 1.312 . S
C346 H317 0.930 . S
C346 C341 1.261 . S
C346 C345 1.312 . S
C347 O319 1.214 . S
C347 O327 1.234 . S
C348 H320 0.929 . S
C348 C351 1.391 . S
C348 C353 1.391 . S
C349 H321 0.929 . S
C349 C350 1.390 . S
C349 N352 1.391 . S
C350 H322 0.930 . S
C350 C349 1.390 . S
C350 C351 1.392 . S
C351 H323 0.929 . S
C351 C348 1.391 . S
C351 C350 1.392 . S
N352 Co296 2.257 . S
N352 C349 1.391 . S
N352 C353 1.388 . S
C353 H324 0.930 . S
C353 C348 1.391 . S
C353 N352 1.388 . S
Co354 O356 2.143 . S
Co354 O362 2.074 . S
Co354 O365 2.093 . S
Co354 O378 2.097 . S
Co354 N395 2.151 . S
Co354 N403 2.214 . S
Co355 O356 2.160 . S
Co355 O361 2.058 . S
Co355 O371 2.057 . S
Co355 O386 2.037 . S
Co355 N390 2.145 . S
Co355 N411 2.257 . S
O356 Co354 2.143 . S
O356 Co355 2.160 . S
C357 O358 1.278 . S
C357 O365 1.224 . S
O358 C357 1.278 . S
C359 O360 1.245 . S
C359 O371 1.232 . S
O360 C359 1.245 . S
O361 Co355 2.058 . S
O361 C387 1.269 . S
O362 Co354 2.074 . S
O362 C387 1.257 . S
H363 C388 0.930 . S
H364 C394 0.930 . S
O365 Co354 2.093 . S
O365 C357 1.224 . S
H366 C398 0.929 . S
H367 C400 0.930 . S
H368 C401 0.930 . S
H369 C399 0.929 . S
H370 C402 0.928 . S
O371 Co355 2.057 . S
O371 C359 1.232 . S
H372 C391 0.929 . S
H373 C392 0.929 . S
H374 C404 0.931 . S
H375 C396 0.929 . S
H376 C405 0.930 . S
H377 C397 0.931 . S
O378 Co354 2.097 . S
O378 C406 1.214 . S
H379 C407 0.929 . S
H380 C408 0.929 . S
H381 C409 0.930 . S
H382 C410 0.929 . S
H383 C412 0.930 . S
H384 C389 0.930 1_455 S
H385 C393 0.930 . S
O386 Co355 2.037 . S
O386 C406 1.234 . S
C387 O361 1.269 . S
C387 O362 1.257 . S
C388 H363 0.930 . S
C388 C391 1.388 1_455 S
C388 C393 1.418 . S
C389 H384 0.930 1_655 S
C389 C392 1.404 . S
C389 C393 1.353 1_655 S
N390 Co355 2.145 . S
N390 C391 1.397 . S
N390 C392 1.334 . S
C391 H372 0.929 . S
C391 C388 1.388 1_655 S
C391 N390 1.397 . S
C392 H373 0.929 . S
C392 C389 1.404 . S
C392 N390 1.334 . S
C393 H385 0.930 . S
C393 C388 1.418 . S
C393 C389 1.353 1_455 S
C394 H364 0.930 . S
C394 N395 1.330 . S
C394 C396 1.446 . S
N395 Co354 2.151 . S
N395 C394 1.330 . S
N395 C399 1.418 . S
C396 H375 0.929 . S
C396 C394 1.446 . S
C396 C397 1.332 . S
C397 H377 0.931 . S
C397 C396 1.332 . S
C397 C398 1.267 . S
C398 H366 0.929 . S
C398 C397 1.267 . S
C398 C399 1.251 . S
C399 H369 0.929 . S
C399 N395 1.418 . S
C399 C398 1.251 . S
C400 H367 0.930 . S
C400 C402 1.406 . S
C400 C405 1.261 . S
C401 H368 0.930 . S
C401 N403 1.325 . S
C401 C404 1.357 . S
C402 H370 0.928 . S
C402 C400 1.406 . S
C402 N403 1.261 . S
N403 Co354 2.214 . S
N403 C401 1.325 . S
N403 C402 1.261 . S
C404 H374 0.931 . S
C404 C401 1.357 . S
C404 C405 1.312 . S
C405 H376 0.930 . S
C405 C400 1.261 . S
C405 C404 1.312 . S
C406 O378 1.214 . S
C406 O386 1.234 . S
C407 H379 0.929 . S
C407 C410 1.391 . S
C407 C412 1.391 . S
C408 H380 0.929 . S
C408 C409 1.390 . S
C408 N411 1.391 . S
C409 H381 0.930 . S
C409 C408 1.390 . S
C409 C410 1.392 . S
C410 H382 0.929 . S
C410 C407 1.391 . S
C410 C409 1.392 . S
N411 Co355 2.257 . S
N411 C408 1.391 . S
N411 C412 1.388 . S
C412 H383 0.930 . S
C412 C407 1.391 . S
C412 N411 1.388 . S
Co413 O415 2.143 . S
Co413 O421 2.074 . S
Co413 O424 2.093 . S
Co413 O437 2.097 1_655 S
Co413 N454 2.151 . S
Co413 N462 2.214 . S
Co414 O415 2.160 1_455 S
Co414 O420 2.058 1_455 S
Co414 O430 2.057 1_455 S
Co414 O445 2.037 . S
Co414 N449 2.145 . S
Co414 N470 2.257 . S
O415 Co413 2.143 . S
O415 Co414 2.160 1_655 S
C416 O417 1.278 1_655 S
C416 O424 1.224 . S
O417 C416 1.278 1_455 S
C418 O419 1.245 . S
C418 O430 1.232 . S
O419 C418 1.245 . S
O420 Co414 2.058 1_655 S
O420 C446 1.269 . S
O421 Co413 2.074 . S
O421 C446 1.257 . S
H422 C447 0.930 . S
H423 C453 0.930 . S
O424 Co413 2.093 . S
O424 C416 1.224 . S
H425 C457 0.929 . S
H426 C459 0.930 . S
H427 C460 0.930 . S
H428 C458 0.929 . S
H429 C461 0.928 . S
O430 Co414 2.057 1_655 S
O430 C418 1.232 . S
H431 C450 0.929 . S
H432 C451 0.929 . S
H433 C463 0.931 . S
H434 C455 0.929 . S
H435 C464 0.930 . S
H436 C456 0.931 . S
O437 Co413 2.097 1_455 S
O437 C465 1.214 . S
H438 C466 0.929 . S
H439 C467 0.929 . S
H440 C468 0.930 . S
H441 C469 0.929 . S
H442 C471 0.930 . S
H443 C448 0.930 1_545 S
H444 C452 0.930 . S
O445 Co414 2.037 . S
O445 C465 1.234 . S
C446 O420 1.269 . S
C446 O421 1.257 . S
C447 H422 0.930 . S
C447 C450 1.388 1_545 S
C447 C452 1.418 . S
C448 H443 0.930 1_565 S
C448 C451 1.404 . S
C448 C452 1.353 1_565 S
N449 Co414 2.145 . S
N449 C450 1.397 . S
N449 C451 1.334 . S
C450 H431 0.929 . S
C450 C447 1.388 1_565 S
C450 N449 1.397 . S
C451 H432 0.929 . S
C451 C448 1.404 . S
C451 N449 1.334 . S
C452 H444 0.930 . S
C452 C447 1.418 . S
C452 C448 1.353 1_545 S
C453 H423 0.930 . S
C453 N454 1.330 . S
C453 C455 1.446 . S
N454 Co413 2.151 . S
N454 C453 1.330 . S
N454 C458 1.418 . S
C455 H434 0.929 . S
C455 C453 1.446 . S
C455 C456 1.332 . S
C456 H436 0.931 . S
C456 C455 1.332 . S
C456 C457 1.267 . S
C457 H425 0.929 . S
C457 C456 1.267 . S
C457 C458 1.251 . S
C458 H428 0.929 . S
C458 N454 1.418 . S
C458 C457 1.251 . S
C459 H426 0.930 . S
C459 C461 1.406 . S
C459 C464 1.261 . S
C460 H427 0.930 . S
C460 N462 1.325 . S
C460 C463 1.357 . S
C461 H429 0.928 . S
C461 C459 1.406 . S
C461 N462 1.261 . S
N462 Co413 2.214 . S
N462 C460 1.325 . S
N462 C461 1.261 . S
C463 H433 0.931 . S
C463 C460 1.357 . S
C463 C464 1.312 . S
C464 H435 0.930 . S
C464 C459 1.261 . S
C464 C463 1.312 . S
C465 O437 1.214 . S
C465 O445 1.234 . S
C466 H438 0.929 . S
C466 C469 1.391 . S
C466 C471 1.391 . S
C467 H439 0.929 . S
C467 C468 1.390 . S
C467 N470 1.391 . S
C468 H440 0.930 . S
C468 C467 1.390 . S
C468 C469 1.392 . S
C469 H441 0.929 . S
C469 C466 1.391 . S
C469 C468 1.392 . S
N470 Co414 2.257 . S
N470 C467 1.391 . S
N470 C471 1.388 . S
C471 H442 0.930 . S
C471 C466 1.391 . S
C471 N470 1.388 . S
Co472 O474 2.143 . S
Co472 O480 2.074 . S
Co472 O483 2.093 . S
Co472 O496 2.097 1_565 S
Co472 N513 2.151 . S
Co472 N521 2.214 . S
Co473 O474 2.160 1_545 S
Co473 O479 2.058 1_545 S
Co473 O489 2.057 1_545 S
Co473 O504 2.037 . S
Co473 N508 2.145 . S
Co473 N529 2.257 . S
O474 Co472 2.143 . S
O474 Co473 2.160 1_565 S
C475 O476 1.278 1_565 S
C475 O483 1.224 . S
O476 C475 1.278 1_545 S
C477 O478 1.245 . S
C477 O489 1.232 . S
O478 C477 1.245 . S
O479 Co473 2.058 1_565 S
O479 C505 1.269 . S
O480 Co472 2.074 . S
O480 C505 1.257 . S
H481 C506 0.930 . S
H482 C512 0.930 . S
O483 Co472 2.093 . S
O483 C475 1.224 . S
H484 C516 0.929 . S
H485 C518 0.930 . S
H486 C519 0.930 . S
H487 C517 0.929 . S
H488 C520 0.928 . S
O489 Co473 2.057 1_565 S
O489 C477 1.232 . S
H490 C509 0.929 . S
H491 C510 0.929 . S
H492 C522 0.931 . S
H493 C514 0.929 . S
H494 C523 0.930 . S
H495 C515 0.931 . S
O496 Co472 2.097 1_545 S
O496 C524 1.214 . S
H497 C525 0.929 . S
H498 C526 0.929 . S
H499 C527 0.930 . S
H500 C528 0.929 . S
H501 C530 0.930 . S
H502 C507 0.930 . S
H503 C511 0.930 . S
O504 Co473 2.037 . S
O504 C524 1.234 . S
C505 O479 1.269 . S
C505 O480 1.257 . S
C506 H481 0.930 . S
C506 C509 1.388 . S
C506 C511 1.418 . S
C507 H502 0.930 . S
C507 C510 1.404 . S
C507 C511 1.353 . S
N508 Co473 2.145 . S
N508 C509 1.397 . S
N508 C510 1.334 . S
C509 H490 0.929 . S
C509 C506 1.388 . S
C509 N508 1.397 . S
C510 H491 0.929 . S
C510 C507 1.404 . S
C510 N508 1.334 . S
C511 H503 0.930 . S
C511 C506 1.418 . S
C511 C507 1.353 . S
C512 H482 0.930 . S
C512 N513 1.330 . S
C512 C514 1.446 . S
N513 Co472 2.151 . S
N513 C512 1.330 . S
N513 C517 1.418 . S
C514 H493 0.929 . S
C514 C512 1.446 . S
C514 C515 1.332 . S
C515 H495 0.931 . S
C515 C514 1.332 . S
C515 C516 1.267 . S
C516 H484 0.929 . S
C516 C515 1.267 . S
C516 C517 1.251 . S
C517 H487 0.929 . S
C517 N513 1.418 . S
C517 C516 1.251 . S
C518 H485 0.930 . S
C518 C520 1.406 . S
C518 C523 1.261 . S
C519 H486 0.930 . S
C519 N521 1.325 . S
C519 C522 1.357 . S
C520 H488 0.928 . S
C520 C518 1.406 . S
C520 N521 1.261 . S
N521 Co472 2.214 . S
N521 C519 1.325 . S
N521 C520 1.261 . S
C522 H492 0.931 . S
C522 C519 1.357 . S
C522 C523 1.312 . S
C523 H494 0.930 . S
C523 C518 1.261 . S
C523 C522 1.312 . S
C524 O496 1.214 . S
C524 O504 1.234 . S
C525 H497 0.929 . S
C525 C528 1.391 . S
C525 C530 1.391 . S
C526 H498 0.929 . S
C526 C527 1.390 . S
C526 N529 1.391 . S
C527 H499 0.930 . S
C527 C526 1.390 . S
C527 C528 1.392 . S
C528 H500 0.929 . S
C528 C525 1.391 . S
C528 C527 1.392 . S
N529 Co473 2.257 . S
N529 C526 1.391 . S
N529 C530 1.388 . S
C530 H501 0.930 . S
C530 C525 1.391 . S
C530 N529 1.388 . S
Co531 O533 2.143 . S
Co531 O539 2.074 . S
Co531 O542 2.093 . S
Co531 O555 2.097 . S
Co531 N572 2.151 . S
Co531 N580 2.214 . S
Co532 O533 2.160 . S
Co532 O538 2.058 . S
Co532 O548 2.057 . S
Co532 O563 2.037 . S
Co532 N567 2.145 . S
Co532 N588 2.257 . S
O533 Co531 2.143 . S
O533 Co532 2.160 . S
C534 O535 1.278 . S
C534 O542 1.224 . S
O535 C534 1.278 . S
C536 O537 1.245 . S
C536 O548 1.232 . S
O537 C536 1.245 . S
O538 Co532 2.058 . S
O538 C564 1.269 . S
O539 Co531 2.074 . S
O539 C564 1.257 . S
H540 C565 0.930 . S
H541 C571 0.930 . S
O542 Co531 2.093 . S
O542 C534 1.224 . S
H543 C575 0.929 . S
H544 C577 0.930 . S
H545 C578 0.930 . S
H546 C576 0.929 . S
H547 C579 0.928 . S
O548 Co532 2.057 . S
O548 C536 1.232 . S
H549 C568 0.929 . S
H550 C569 0.929 . S
H551 C581 0.931 . S
H552 C573 0.929 . S
H553 C582 0.930 . S
H554 C574 0.931 . S
O555 Co531 2.097 . S
O555 C583 1.214 . S
H556 C584 0.929 . S
H557 C585 0.929 . S
H558 C586 0.930 . S
H559 C587 0.929 . S
H560 C589 0.930 . S
H561 C566 0.930 1_655 S
H562 C570 0.930 . S
O563 Co532 2.037 . S
O563 C583 1.234 . S
C564 O538 1.269 . S
C564 O539 1.257 . S
C565 H540 0.930 . S
C565 C568 1.388 1_655 S
C565 C570 1.418 . S
C566 H561 0.930 1_455 S
C566 C569 1.404 . S
C566 C570 1.353 1_455 S
N567 Co532 2.145 . S
N567 C568 1.397 . S
N567 C569 1.334 . S
C568 H549 0.929 . S
C568 C565 1.388 1_455 S
C568 N567 1.397 . S
C569 H550 0.929 . S
C569 C566 1.404 . S
C569 N567 1.334 . S
C570 H562 0.930 . S
C570 C565 1.418 . S
C570 C566 1.353 1_655 S
C571 H541 0.930 . S
C571 N572 1.330 . S
C571 C573 1.446 . S
N572 Co531 2.151 . S
N572 C571 1.330 . S
N572 C576 1.418 . S
C573 H552 0.929 . S
C573 C571 1.446 . S
C573 C574 1.332 . S
C574 H554 0.931 . S
C574 C573 1.332 . S
C574 C575 1.267 . S
C575 H543 0.929 . S
C575 C574 1.267 . S
C575 C576 1.251 . S
C576 H546 0.929 . S
C576 N572 1.418 . S
C576 C575 1.251 . S
C577 H544 0.930 . S
C577 C579 1.406 . S
C577 C582 1.261 . S
C578 H545 0.930 . S
C578 N580 1.325 . S
C578 C581 1.357 . S
C579 H547 0.928 . S
C579 C577 1.406 . S
C579 N580 1.261 . S
N580 Co531 2.214 . S
N580 C578 1.325 . S
N580 C579 1.261 . S
C581 H551 0.931 . S
C581 C578 1.357 . S
C581 C582 1.312 . S
C582 H553 0.930 . S
C582 C577 1.261 . S
C582 C581 1.312 . S
C583 O555 1.214 . S
C583 O563 1.234 . S
C584 H556 0.929 . S
C584 C587 1.391 . S
C584 C589 1.391 . S
C585 H557 0.929 . S
C585 C586 1.390 . S
C585 N588 1.391 . S
C586 H558 0.930 . S
C586 C585 1.390 . S
C586 C587 1.392 . S
C587 H559 0.929 . S
C587 C584 1.391 . S
C587 C586 1.392 . S
N588 Co532 2.257 . S
N588 C585 1.391 . S
N588 C589 1.388 . S
C589 H560 0.930 . S
C589 C584 1.391 . S
C589 N588 1.388 . S
Co590 O592 2.143 . S
Co590 O598 2.074 . S
Co590 O601 2.093 . S
Co590 O614 2.097 1_455 S
Co590 N631 2.151 . S
Co590 N639 2.214 . S
Co591 O592 2.160 1_655 S
Co591 O597 2.058 1_655 S
Co591 O607 2.057 1_655 S
Co591 O622 2.037 . S
Co591 N626 2.145 . S
Co591 N647 2.257 . S
O592 Co590 2.143 . S
O592 Co591 2.160 1_455 S
C593 O594 1.278 1_455 S
C593 O601 1.224 . S
O594 C593 1.278 1_655 S
C595 O596 1.245 . S
C595 O607 1.232 . S
O596 C595 1.245 . S
O597 Co591 2.058 1_455 S
O597 C623 1.269 . S
O598 Co590 2.074 . S
O598 C623 1.257 . S
H599 C624 0.930 . S
H600 C630 0.930 . S
O601 Co590 2.093 . S
O601 C593 1.224 . S
H602 C634 0.929 . S
H603 C636 0.930 . S
H604 C637 0.930 . S
H605 C635 0.929 . S
H606 C638 0.928 . S
O607 Co591 2.057 1_455 S
O607 C595 1.232 . S
H608 C627 0.929 . S
H609 C628 0.929 . S
H610 C640 0.931 . S
H611 C632 0.929 . S
H612 C641 0.930 . S
H613 C633 0.931 . S
O614 Co590 2.097 1_655 S
O614 C642 1.214 . S
H615 C643 0.929 . S
H616 C644 0.929 . S
H617 C645 0.930 . S
H618 C646 0.929 . S
H619 C648 0.930 . S
H620 C625 0.930 1_565 S
H621 C629 0.930 . S
O622 Co591 2.037 . S
O622 C642 1.234 . S
C623 O597 1.269 . S
C623 O598 1.257 . S
C624 H599 0.930 . S
C624 C627 1.388 1_565 S
C624 C629 1.418 . S
C625 H620 0.930 1_545 S
C625 C628 1.404 . S
C625 C629 1.353 1_545 S
N626 Co591 2.145 . S
N626 C627 1.397 . S
N626 C628 1.334 . S
C627 H608 0.929 . S
C627 C624 1.388 1_545 S
C627 N626 1.397 . S
C628 H609 0.929 . S
C628 C625 1.404 . S
C628 N626 1.334 . S
C629 H621 0.930 . S
C629 C624 1.418 . S
C629 C625 1.353 1_565 S
C630 H600 0.930 . S
C630 N631 1.330 . S
C630 C632 1.446 . S
N631 Co590 2.151 . S
N631 C630 1.330 . S
N631 C635 1.418 . S
C632 H611 0.929 . S
C632 C630 1.446 . S
C632 C633 1.332 . S
C633 H613 0.931 . S
C633 C632 1.332 . S
C633 C634 1.267 . S
C634 H602 0.929 . S
C634 C633 1.267 . S
C634 C635 1.251 . S
C635 H605 0.929 . S
C635 N631 1.418 . S
C635 C634 1.251 . S
C636 H603 0.930 . S
C636 C638 1.406 . S
C636 C641 1.261 . S
C637 H604 0.930 . S
C637 N639 1.325 . S
C637 C640 1.357 . S
C638 H606 0.928 . S
C638 C636 1.406 . S
C638 N639 1.261 . S
N639 Co590 2.214 . S
N639 C637 1.325 . S
N639 C638 1.261 . S
C640 H610 0.931 . S
C640 C637 1.357 . S
C640 C641 1.312 . S
C641 H612 0.930 . S
C641 C636 1.261 . S
C641 C640 1.312 . S
C642 O614 1.214 . S
C642 O622 1.234 . S
C643 H615 0.929 . S
C643 C646 1.391 . S
C643 C648 1.391 . S
C644 H616 0.929 . S
C644 C645 1.390 . S
C644 N647 1.391 . S
C645 H617 0.930 . S
C645 C644 1.390 . S
C645 C646 1.392 . S
C646 H618 0.929 . S
C646 C643 1.391 . S
C646 C645 1.392 . S
N647 Co591 2.257 . S
N647 C644 1.391 . S
N647 C648 1.388 . S
C648 H619 0.930 . S
C648 C643 1.391 . S
C648 N647 1.388 . S
Co649 O651 2.143 . S
Co649 O657 2.074 . S
Co649 O660 2.093 . S
Co649 O673 2.097 1_545 S
Co649 N690 2.151 . S
Co649 N698 2.214 . S
Co650 O651 2.160 1_565 S
Co650 O656 2.058 1_565 S
Co650 O666 2.057 1_565 S
Co650 O681 2.037 . S
Co650 N685 2.145 . S
Co650 N706 2.257 . S
O651 Co649 2.143 . S
O651 Co650 2.160 1_545 S
C652 O653 1.278 1_545 S
C652 O660 1.224 . S
O653 C652 1.278 1_565 S
C654 O655 1.245 . S
C654 O666 1.232 . S
O655 C654 1.245 . S
O656 Co650 2.058 1_545 S
O656 C682 1.269 . S
O657 Co649 2.074 . S
O657 C682 1.257 . S
H658 C683 0.930 . S
H659 C689 0.930 . S
O660 Co649 2.093 . S
O660 C652 1.224 . S
H661 C693 0.929 . S
H662 C695 0.930 . S
H663 C696 0.930 . S
H664 C694 0.929 . S
H665 C697 0.928 . S
O666 Co650 2.057 1_545 S
O666 C654 1.232 . S
H667 C686 0.929 . S
H668 C687 0.929 . S
H669 C699 0.931 . S
H670 C691 0.929 . S
H671 C700 0.930 . S
H672 C692 0.931 . S
O673 Co649 2.097 1_565 S
O673 C701 1.214 . S
H674 C702 0.929 . S
H675 C703 0.929 . S
H676 C704 0.930 . S
H677 C705 0.929 . S
H678 C707 0.930 . S
H679 C684 0.930 . S
H680 C688 0.930 . S
O681 Co650 2.037 . S
O681 C701 1.234 . S
C682 O656 1.269 . S
C682 O657 1.257 . S
C683 H658 0.930 . S
C683 C686 1.388 . S
C683 C688 1.418 . S
C684 H679 0.930 . S
C684 C687 1.404 . S
C684 C688 1.353 . S
N685 Co650 2.145 . S
N685 C686 1.397 . S
N685 C687 1.334 . S
C686 H667 0.929 . S
C686 C683 1.388 . S
C686 N685 1.397 . S
C687 H668 0.929 . S
C687 C684 1.404 . S
C687 N685 1.334 . S
C688 H680 0.930 . S
C688 C683 1.418 . S
C688 C684 1.353 . S
C689 H659 0.930 . S
C689 N690 1.330 . S
C689 C691 1.446 . S
N690 Co649 2.151 . S
N690 C689 1.330 . S
N690 C694 1.418 . S
C691 H670 0.929 . S
C691 C689 1.446 . S
C691 C692 1.332 . S
C692 H672 0.931 . S
C692 C691 1.332 . S
C692 C693 1.267 . S
C693 H661 0.929 . S
C693 C692 1.267 . S
C693 C694 1.251 . S
C694 H664 0.929 . S
C694 N690 1.418 . S
C694 C693 1.251 . S
C695 H662 0.930 . S
C695 C697 1.406 . S
C695 C700 1.261 . S
C696 H663 0.930 . S
C696 N698 1.325 . S
C696 C699 1.357 . S
C697 H665 0.928 . S
C697 C695 1.406 . S
C697 N698 1.261 . S
N698 Co649 2.214 . S
N698 C696 1.325 . S
N698 C697 1.261 . S
C699 H669 0.931 . S
C699 C696 1.357 . S
C699 C700 1.312 . S
C700 H671 0.930 . S
C700 C695 1.261 . S
C700 C699 1.312 . S
C701 O673 1.214 . S
C701 O681 1.234 . S
C702 H674 0.929 . S
C702 C705 1.391 . S
C702 C707 1.391 . S
C703 H675 0.929 . S
C703 C704 1.390 . S
C703 N706 1.391 . S
C704 H676 0.930 . S
C704 C703 1.390 . S
C704 C705 1.392 . S
C705 H677 0.929 . S
C705 C702 1.391 . S
C705 C704 1.392 . S
N706 Co650 2.257 . S
N706 C703 1.391 . S
N706 C707 1.388 . S
C707 H678 0.930 . S
C707 C702 1.391 . S
C707 N706 1.388 . S
C708 C709 1.387 . S
C708 H712 0.950 . S
C708 C717 1.390 . S
C709 C708 1.387 . S
C709 C711 1.387 1_655 S
H710 C717 0.950 . S
C711 C709 1.387 1_455 S
C711 C713 1.390 . S
C711 H715 0.950 . S
H712 C708 0.950 . S
C713 C711 1.390 . S
C713 C714 1.387 . S
C713 H716 0.950 . S
C714 C713 1.387 . S
C714 C717 1.387 1_455 S
H715 C711 0.950 . S
H716 C713 0.950 . S
C717 C708 1.390 . S
C717 H710 0.950 . S
C717 C714 1.387 1_655 S
C718 C719 1.387 . S
C718 H722 0.950 . S
C718 C727 1.390 1_545 S
C719 C718 1.387 . S
C719 C721 1.387 . S
H720 C727 0.950 . S
C721 C719 1.387 . S
C721 C723 1.390 1_545 S
C721 H725 0.950 . S
H722 C718 0.950 . S
C723 C721 1.390 1_565 S
C723 C724 1.387 . S
C723 H726 0.950 . S
C724 C723 1.387 . S
C724 C727 1.387 . S
H725 C721 0.950 . S
H726 C723 0.950 . S
C727 C718 1.390 1_565 S
C727 H720 0.950 . S
C727 C724 1.387 . S
C728 C729 1.387 . S
C728 H732 0.950 . S
C728 C737 1.390 . S
C729 C728 1.387 . S
C729 C731 1.387 . S
H730 C737 0.950 . S
C731 C729 1.387 . S
C731 C733 1.390 . S
C731 H735 0.950 . S
H732 C728 0.950 . S
C733 C731 1.390 . S
C733 C734 1.387 . S
C733 H736 0.950 . S
C734 C733 1.387 . S
C734 C737 1.387 . S
H735 C731 0.950 . S
H736 C733 0.950 . S
C737 C728 1.390 . S
C737 H730 0.950 . S
C737 C734 1.387 . S
C738 C739 1.387 . S
C738 H742 0.950 . S
C738 C747 1.390 1_655 S
C739 C738 1.387 . S
C739 C741 1.387 . S
H740 C747 0.950 . S
C741 C739 1.387 . S
C741 C743 1.390 1_655 S
C741 H745 0.950 . S
H742 C738 0.950 . S
C743 C741 1.390 1_455 S
C743 C744 1.387 . S
C743 H746 0.950 . S
C744 C743 1.387 . S
C744 C747 1.387 . S
H745 C741 0.950 . S
H746 C743 0.950 . S
C747 C738 1.390 1_455 S
C747 H740 0.950 . S
C747 C744 1.387 . S
C748 C749 1.387 . S
C748 H752 0.950 . S
C748 C757 1.390 1_545 S
C749 C748 1.387 . S
C749 C751 1.387 . S
H750 C757 0.950 . S
C751 C749 1.387 . S
C751 C753 1.390 1_545 S
C751 H755 0.950 . S
H752 C748 0.950 . S
C753 C751 1.390 1_565 S
C753 C754 1.387 . S
C753 H756 0.950 . S
C754 C753 1.387 . S
C754 C757 1.387 . S
H755 C751 0.950 . S
H756 C753 0.950 . S
C757 C748 1.390 1_565 S
C757 H750 0.950 . S
C757 C754 1.387 . S
C758 C759 1.387 . S
C758 H762 0.950 . S
C758 C767 1.390 . S
C759 C758 1.387 . S
C759 C761 1.387 . S
H760 C767 0.950 . S
C761 C759 1.387 . S
C761 C763 1.390 . S
C761 H765 0.950 . S
H762 C758 0.950 . S
C763 C761 1.390 . S
C763 C764 1.387 . S
C763 H766 0.950 . S
C764 C763 1.387 . S
C764 C767 1.387 . S
H765 C761 0.950 . S
H766 C763 0.950 . S
C767 C758 1.390 . S
C767 H760 0.950 . S
C767 C764 1.387 . S
C768 C769 1.387 . S
C768 H772 0.950 . S
C768 C777 1.390 . S
C769 C768 1.387 . S
C769 C771 1.387 . S
H770 C777 0.950 . S
C771 C769 1.387 . S
C771 C773 1.390 . S
C771 H775 0.950 . S
H772 C768 0.950 . S
C773 C771 1.390 . S
C773 C774 1.387 . S
C773 H776 0.950 . S
C774 C773 1.387 . S
C774 C777 1.387 . S
H775 C771 0.950 . S
H776 C773 0.950 . S
C777 C768 1.390 . S
C777 H770 0.950 . S
C777 C774 1.387 . S
C778 C779 1.387 . S
C778 H782 0.950 . S
C778 C787 1.390 1_455 S
C779 C778 1.387 . S
C779 C781 1.387 . S
H780 C787 0.950 . S
C781 C779 1.387 . S
C781 C783 1.390 1_455 S
C781 H785 0.950 . S
H782 C778 0.950 . S
C783 C781 1.390 1_655 S
C783 C784 1.387 . S
C783 H786 0.950 . S
C784 C783 1.387 . S
C784 C787 1.387 . S
H785 C781 0.950 . S
H786 C783 0.950 . S
C787 C778 1.390 1_655 S
C787 H780 0.950 . S
C787 C784 1.387 . S
C788 C789 1.387 . S
C788 H792 0.950 . S
C788 C797 1.390 1_545 S
C789 C788 1.387 . S
C789 C791 1.387 . S
H790 C797 0.950 . S
C791 C789 1.387 . S
C791 C793 1.390 1_545 S
C791 H795 0.950 . S
H792 C788 0.950 . S
C793 C791 1.390 1_565 S
C793 C794 1.387 . S
C793 H796 0.950 . S
C794 C793 1.387 . S
C794 C797 1.387 . S
H795 C791 0.950 . S
H796 C793 0.950 . S
C797 C788 1.390 1_565 S
C797 H790 0.950 . S
C797 C794 1.387 . S
C798 C799 1.387 . S
C798 H802 0.950 . S
C798 C807 1.390 . S
C799 C798 1.387 . S
C799 C801 1.387 . S
H800 C807 0.950 . S
C801 C799 1.387 . S
C801 C803 1.390 . S
C801 H805 0.950 . S
H802 C798 0.950 . S
C803 C801 1.390 . S
C803 C804 1.387 . S
C803 H806 0.950 . S
C804 C803 1.387 . S
C804 C807 1.387 . S
H805 C801 0.950 . S
H806 C803 0.950 . S
C807 C798 1.390 . S
C807 H800 0.950 . S
C807 C804 1.387 . S
C808 C809 1.387 . S
C808 H812 0.950 . S
C808 C817 1.390 1_655 S
C809 C808 1.387 . S
C809 C811 1.387 . S
H810 C817 0.950 . S
C811 C809 1.387 . S
C811 C813 1.390 1_655 S
C811 H815 0.950 . S
H812 C808 0.950 . S
C813 C811 1.390 1_455 S
C813 C814 1.387 . S
C813 H816 0.950 . S
C814 C813 1.387 . S
C814 C817 1.387 . S
H815 C811 0.950 . S
H816 C813 0.950 . S
C817 C808 1.390 1_455 S
C817 H810 0.950 . S
C817 C814 1.387 . S
C818 C819 1.387 . S
C818 H822 0.950 . S
C818 C827 1.390 1_565 S
C819 C818 1.387 . S
C819 C821 1.387 . S
H820 C827 0.950 . S
C821 C819 1.387 . S
C821 C823 1.390 1_565 S
C821 H825 0.950 . S
H822 C818 0.950 . S
C823 C821 1.390 1_545 S
C823 C824 1.387 . S
C823 H826 0.950 . S
C824 C823 1.387 . S
C824 C827 1.387 . S
H825 C821 0.950 . S
H826 C823 0.950 . S
C827 C818 1.390 1_545 S
C827 H820 0.950 . S
C827 C824 1.387 . S
C828 C829 1.387 . S
C828 H832 0.950 . S
C828 C837 1.390 . S
C829 C828 1.387 . S
C829 C831 1.387 . S
H830 C837 0.950 . S
C831 C829 1.387 . S
C831 C833 1.390 . S
C831 H835 0.950 . S
H832 C828 0.950 . S
C833 C831 1.390 . S
C833 C834 1.387 . S
C833 H836 0.950 . S
C834 C833 1.387 . S
C834 C837 1.387 . S
H835 C831 0.950 . S
H836 C833 0.950 . S
C837 C828 1.390 . S
C837 H830 0.950 . S
C837 C834 1.387 . S
C838 C839 1.387 . S
C838 H842 0.950 . S
C838 C847 1.390 . S
C839 C838 1.387 . S
C839 C841 1.387 . S
H840 C847 0.950 . S
C841 C839 1.387 . S
C841 C843 1.390 . S
C841 H845 0.950 . S
H842 C838 0.950 . S
C843 C841 1.390 . S
C843 C844 1.387 . S
C843 H846 0.950 . S
C844 C843 1.387 . S
C844 C847 1.387 . S
H845 C841 0.950 . S
H846 C843 0.950 . S
C847 C838 1.390 . S
C847 H840 0.950 . S
C847 C844 1.387 . S
C848 C849 1.387 . S
C848 H852 0.950 . S
C848 C857 1.390 . S
C849 C848 1.387 . S
C849 C851 1.387 . S
H850 C857 0.950 . S
C851 C849 1.387 . S
C851 C853 1.390 . S
C851 H855 0.950 . S
H852 C848 0.950 . S
C853 C851 1.390 . S
C853 C854 1.387 . S
C853 H856 0.950 . S
C854 C853 1.387 . S
C854 C857 1.387 . S
H855 C851 0.950 . S
H856 C853 0.950 . S
C857 C848 1.390 . S
C857 H850 0.950 . S
C857 C854 1.387 . S
C858 C859 1.387 . S
C858 H862 0.950 . S
C858 C867 1.390 . S
C859 C858 1.387 . S
C859 C861 1.387 . S
H860 C867 0.950 . S
C861 C859 1.387 . S
C861 C863 1.390 . S
C861 H865 0.950 . S
H862 C858 0.950 . S
C863 C861 1.390 . S
C863 C864 1.387 . S
C863 H866 0.950 . S
C864 C863 1.387 . S
C864 C867 1.387 . S
H865 C861 0.950 . S
H866 C863 0.950 . S
C867 C858 1.390 . S
C867 H860 0.950 . S
C867 C864 1.387 . S
C868 C869 1.387 . S
C868 H872 0.950 . S
C868 C877 1.390 . S
C869 C868 1.387 . S
C869 C871 1.387 . S
H870 C877 0.950 . S
C871 C869 1.387 . S
C871 C873 1.390 . S
C871 H875 0.950 . S
H872 C868 0.950 . S
C873 C871 1.390 . S
C873 C874 1.387 . S
C873 H876 0.950 . S
C874 C873 1.387 . S
C874 C877 1.387 . S
H875 C871 0.950 . S
H876 C873 0.950 . S
C877 C868 1.390 . S
C877 H870 0.950 . S
C877 C874 1.387 . S
C878 C879 1.387 . S
C878 H882 0.950 . S
C878 C887 1.390 . S
C879 C878 1.387 . S
C879 C881 1.387 . S
H880 C887 0.950 . S
C881 C879 1.387 . S
C881 C883 1.390 . S
C881 H885 0.950 . S
H882 C878 0.950 . S
C883 C881 1.390 . S
C883 C884 1.387 . S
C883 H886 0.950 . S
C884 C883 1.387 . S
C884 C887 1.387 . S
H885 C881 0.950 . S
H886 C883 0.950 . S
C887 C878 1.390 . S
C887 H880 0.950 . S
C887 C884 1.387 . S
C888 C889 1.387 . S
C888 H892 0.950 . S
C888 C897 1.390 . S
C889 C888 1.387 . S
C889 C891 1.387 . S
H890 C897 0.950 . S
C891 C889 1.387 . S
C891 C893 1.390 . S
C891 H895 0.950 . S
H892 C888 0.950 . S
C893 C891 1.390 . S
C893 C894 1.387 . S
C893 H896 0.950 . S
C894 C893 1.387 . S
C894 C897 1.387 . S
H895 C891 0.950 . S
H896 C893 0.950 . S
C897 C888 1.390 . S
C897 H890 0.950 . S
C897 C894 1.387 . S
C898 C899 1.387 . S
C898 H902 0.950 . S
C898 C907 1.390 . S
C899 C898 1.387 . S
C899 C901 1.387 1_655 S
H900 C907 0.950 . S
C901 C899 1.387 1_455 S
C901 C903 1.390 . S
C901 H905 0.950 . S
H902 C898 0.950 . S
C903 C901 1.390 . S
C903 C904 1.387 . S
C903 H906 0.950 . S
C904 C903 1.387 . S
C904 C907 1.387 1_455 S
H905 C901 0.950 . S
H906 C903 0.950 . S
C907 C898 1.390 . S
C907 H900 0.950 . S
C907 C904 1.387 1_655 S
C908 C909 1.387 . S
C908 H912 0.950 . S
C908 C917 1.390 1_544 S
C909 C908 1.387 . S
C909 C911 1.387 . S
H910 C917 0.950 . S
C911 C909 1.387 . S
C911 C913 1.390 1_544 S
C911 H915 0.950 . S
H912 C908 0.950 . S
C913 C911 1.390 1_566 S
C913 C914 1.387 . S
C913 H916 0.950 . S
C914 C913 1.387 . S
C914 C917 1.387 . S
H915 C911 0.950 . S
H916 C913 0.950 . S
C917 C908 1.390 1_566 S
C917 H910 0.950 . S
C917 C914 1.387 . S
C918 C919 1.387 . S
C918 H922 0.950 . S
C918 C927 1.390 . S
C919 C918 1.387 . S
C919 C921 1.387 . S
H920 C927 0.950 . S
C921 C919 1.387 . S
C921 C923 1.390 . S
C921 H925 0.950 . S
H922 C918 0.950 . S
C923 C921 1.390 . S
C923 C924 1.387 . S
C923 H926 0.950 . S
C924 C923 1.387 . S
C924 C927 1.387 . S
H925 C921 0.950 . S
H926 C923 0.950 . S
C927 C918 1.390 . S
C927 H920 0.950 . S
C927 C924 1.387 . S
C928 C929 1.387 . S
C928 H932 0.950 . S
C928 C937 1.390 . S
C929 C928 1.387 . S
C929 C931 1.387 1_455 S
H930 C937 0.950 . S
C931 C929 1.387 1_655 S
C931 C933 1.390 . S
C931 H935 0.950 . S
H932 C928 0.950 . S
C933 C931 1.390 . S
C933 C934 1.387 . S
C933 H936 0.950 . S
C934 C933 1.387 . S
C934 C937 1.387 1_655 S
H935 C931 0.950 . S
H936 C933 0.950 . S
C937 C928 1.390 . S
C937 H930 0.950 . S
C937 C934 1.387 1_455 S
C938 C939 1.387 . S
C938 H942 0.950 . S
C938 C947 1.390 1_564 S
C939 C938 1.387 . S
C939 C941 1.387 . S
H940 C947 0.950 . S
C941 C939 1.387 . S
C941 C943 1.390 1_564 S
C941 H945 0.950 . S
H942 C938 0.950 . S
C943 C941 1.390 1_546 S
C943 C944 1.387 . S
C943 H946 0.950 . S
C944 C943 1.387 . S
C944 C947 1.387 . S
H945 C941 0.950 . S
H946 C943 0.950 . S
C947 C938 1.390 1_546 S
C947 H940 0.950 . S
C947 C944 1.387 . S
C709 C682 1.815 . S
C714 C33 1.814 . S
C719 C92 1.817 . S
C724 C387 1.817 . S
C729 C151 1.815 . S
C734 C446 1.815 . S
C739 C210 1.814 . S
C744 C505 1.815 . S
C749 C564 1.814 . S
C754 C269 1.814 . S
C759 C328 1.815 . S
C764 C623 1.815 . S
C769 C180 1.430 . S
C774 C3 1.430 . S
C779 C239 1.430 . S
C784 C62 1.430 . S
C789 C298 1.430 . S
C794 C121 1.430 . S
C799 C357 1.429 . S
C804 C534 1.429 . S
C809 C416 1.430 . S
C814 C593 1.430 . S
C819 C475 1.429 . S
C824 C652 1.429 . S
C829 C524 0.642 . S
C834 C52 0.643 . S
C839 C111 0.647 . S
C844 C583 0.647 . S
C849 C642 0.645 . S
C854 C170 0.645 . S
C859 C701 0.644 . S
C864 C229 0.644 . S
C869 C406 0.639 . S
C874 C288 0.639 . S
C879 C347 0.641 . S
C884 C465 0.641 . S
C889 C536 1.689 . S
C894 C5 1.689 . S
C899 C64 1.691 . S
C904 C595 1.691 . S
C909 C654 1.688 . S
C914 C123 1.688 . S
C919 C182 1.691 . S
C924 C359 1.691 . S
C929 C241 1.691 . S
C934 C418 1.691 . S
C939 C477 1.688 . S
C944 C300 1.688 . S
