# Generated by pormake.
# Topology snl, (6)-cn, num edge types: 1
# Building blocks:
#     Node 0, Type 0, BuildingBlock: BETFEN_clean_sbu_0, # of connection points: 6
#     Node 1, Type 0, BuildingBlock: BETFEN_clean_sbu_0, # of connection points: 6
#     Node 2, Type 0, BuildingBlock: BETFEN_clean_sbu_0, # of connection points: 6
#     Node 3, Type 0, BuildingBlock: BETFEN_clean_sbu_0, # of connection points: 6
#     Node 4, Type 0, BuildingBlock: BETFEN_clean_sbu_0, # of connection points: 6
#     Node 5, Type 0, BuildingBlock: BETFEN_clean_sbu_0, # of connection points: 6
#     Node 6, Type 0, BuildingBlock: BETFEN_clean_sbu_0, # of connection points: 6
#     Node 7, Type 0, BuildingBlock: BETFEN_clean_sbu_0, # of connection points: 6
#     Node 8, Type 0, BuildingBlock: BETFEN_clean_sbu_0, # of connection points: 6
#     Node 9, Type 0, BuildingBlock: BETFEN_clean_sbu_0, # of connection points: 6
#     Node 10, Type 0, BuildingBlock: BETFEN_clean_sbu_0, # of connection points: 6
#     Node 11, Type 0, BuildingBlock: BETFEN_clean_sbu_0, # of connection points: 6
#     Node 12, Type 0, BuildingBlock: BETFEN_clean_sbu_0, # of connection points: 6
#     Node 13, Type 0, BuildingBlock: BETFEN_clean_sbu_0, # of connection points: 6
#     Node 14, Type 0, BuildingBlock: BETFEN_clean_sbu_0, # of connection points: 6
#     Node 15, Type 0, BuildingBlock: BETFEN_clean_sbu_0, # of connection points: 6
#     Edge 16, Type (0, 0), BuildingBlock: OJICUG_clean_linker_0, # of connection points: 2
#     Edge 17, Type (0, 0), BuildingBlock: OJICUG_clean_linker_0, # of connection points: 2
#     Edge 18, Type (0, 0), BuildingBlock: OJICUG_clean_linker_0, # of connection points: 2
#     Edge 19, Type (0, 0), BuildingBlock: OJICUG_clean_linker_0, # of connection points: 2
#     Edge 20, Type (0, 0), BuildingBlock: OJICUG_clean_linker_0, # of connection points: 2
#     Edge 21, Type (0, 0), BuildingBlock: OJICUG_clean_linker_0, # of connection points: 2
#     Edge 22, Type (0, 0), BuildingBlock: OJICUG_clean_linker_0, # of connection points: 2
#     Edge 23, Type (0, 0), BuildingBlock: OJICUG_clean_linker_0, # of connection points: 2
#     Edge 24, Type (0, 0), BuildingBlock: OJICUG_clean_linker_0, # of connection points: 2
#     Edge 25, Type (0, 0), BuildingBlock: OJICUG_clean_linker_0, # of connection points: 2
#     Edge 26, Type (0, 0), BuildingBlock: OJICUG_clean_linker_0, # of connection points: 2
#     Edge 27, Type (0, 0), BuildingBlock: OJICUG_clean_linker_0, # of connection points: 2
#     Edge 28, Type (0, 0), BuildingBlock: OJICUG_clean_linker_0, # of connection points: 2
#     Edge 29, Type (0, 0), BuildingBlock: OJICUG_clean_linker_0, # of connection points: 2
#     Edge 30, Type (0, 0), BuildingBlock: OJICUG_clean_linker_0, # of connection points: 2
#     Edge 31, Type (0, 0), BuildingBlock: OJICUG_clean_linker_0, # of connection points: 2
#     Edge 32, Type (0, 0), BuildingBlock: OJICUG_clean_linker_0, # of connection points: 2
#     Edge 33, Type (0, 0), BuildingBlock: OJICUG_clean_linker_0, # of connection points: 2
#     Edge 34, Type (0, 0), BuildingBlock: OJICUG_clean_linker_0, # of connection points: 2
#     Edge 35, Type (0, 0), BuildingBlock: OJICUG_clean_linker_0, # of connection points: 2
#     Edge 36, Type (0, 0), BuildingBlock: OJICUG_clean_linker_0, # of connection points: 2
#     Edge 37, Type (0, 0), BuildingBlock: OJICUG_clean_linker_0, # of connection points: 2
#     Edge 38, Type (0, 0), BuildingBlock: OJICUG_clean_linker_0, # of connection points: 2
#     Edge 39, Type (0, 0), BuildingBlock: OJICUG_clean_linker_0, # of connection points: 2
#     Edge 40, Type (0, 0), BuildingBlock: OJICUG_clean_linker_0, # of connection points: 2
#     Edge 41, Type (0, 0), BuildingBlock: OJICUG_clean_linker_0, # of connection points: 2
#     Edge 42, Type (0, 0), BuildingBlock: OJICUG_clean_linker_0, # of connection points: 2
#     Edge 43, Type (0, 0), BuildingBlock: OJICUG_clean_linker_0, # of connection points: 2
#     Edge 44, Type (0, 0), BuildingBlock: OJICUG_clean_linker_0, # of connection points: 2
#     Edge 45, Type (0, 0), BuildingBlock: OJICUG_clean_linker_0, # of connection points: 2
#     Edge 46, Type (0, 0), BuildingBlock: OJICUG_clean_linker_0, # of connection points: 2
#     Edge 47, Type (0, 0), BuildingBlock: OJICUG_clean_linker_0, # of connection points: 2
#     Edge 48, Type (0, 0), BuildingBlock: OJICUG_clean_linker_0, # of connection points: 2
#     Edge 49, Type (0, 0), BuildingBlock: OJICUG_clean_linker_0, # of connection points: 2
#     Edge 50, Type (0, 0), BuildingBlock: OJICUG_clean_linker_0, # of connection points: 2
#     Edge 51, Type (0, 0), BuildingBlock: OJICUG_clean_linker_0, # of connection points: 2
#     Edge 52, Type (0, 0), BuildingBlock: OJICUG_clean_linker_0, # of connection points: 2
#     Edge 53, Type (0, 0), BuildingBlock: OJICUG_clean_linker_0, # of connection points: 2
#     Edge 54, Type (0, 0), BuildingBlock: OJICUG_clean_linker_0, # of connection points: 2
#     Edge 55, Type (0, 0), BuildingBlock: OJICUG_clean_linker_0, # of connection points: 2
#     Edge 56, Type (0, 0), BuildingBlock: OJICUG_clean_linker_0, # of connection points: 2
#     Edge 57, Type (0, 0), BuildingBlock: OJICUG_clean_linker_0, # of connection points: 2
#     Edge 58, Type (0, 0), BuildingBlock: OJICUG_clean_linker_0, # of connection points: 2
#     Edge 59, Type (0, 0), BuildingBlock: OJICUG_clean_linker_0, # of connection points: 2
#     Edge 60, Type (0, 0), BuildingBlock: OJICUG_clean_linker_0, # of connection points: 2
#     Edge 61, Type (0, 0), BuildingBlock: OJICUG_clean_linker_0, # of connection points: 2
#     Edge 62, Type (0, 0), BuildingBlock: OJICUG_clean_linker_0, # of connection points: 2
#     Edge 63, Type (0, 0), BuildingBlock: OJICUG_clean_linker_0, # of connection points: 2
# Relax obj value: 0.197
# Max RMSD: 0.239
# Mean RMSD: 0.239
data_MOF--net-snl--node1-BETFEN_clean_sbu_0--edge1-OJICUG_clean_linker_0
_symmetry_space_group_name_H-M    P1
_symmetry_Int_Tables_number       1
_symmetry_cell_setting            triclinic
loop_
_symmetry_equiv_pos_as_xyz
'x, y, z'
_cell_length_a     40.310758
_cell_length_b     42.759171
_cell_length_c     22.1068
_cell_angle_alpha  89.884502
_cell_angle_beta   90.082015
_cell_angle_gamma 89.938038
loop_
_atom_site_label
_atom_site_type_symbol
_atom_site_fract_x
_atom_site_fract_y
_atom_site_fract_z
_atom_type_partial_charge
Pr0 Pr 0.16255 0.62387 0.03346 0.0
Pr1 Pr 0.13653 0.61132 0.15812 0.0
C2 C 0.17047 0.61666 0.9058 0.0
C3 C 0.15605 0.62241 0.84415 0.0
C4 C 0.16229 0.65006 0.8116 0.0
C5 C 0.15652 0.65154 0.74927 0.0
C6 C 0.14457 0.62529 0.7178 0.0
C7 C 0.13399 0.59945 0.75191 0.0
C8 C 0.1399 0.59795 0.81387 0.0
C9 C 0.14932 0.68293 0.07837 0.0
C10 C 0.07879 0.62149 0.06223 0.0
C11 C 0.13325 0.62048 0.27635 0.0
C12 C 0.14998 0.61613 0.33432 0.0
C13 C 0.14465 0.58886 0.3675 0.0
C14 C 0.15011 0.58872 0.4291 0.0
C15 C 0.16124 0.61586 0.4586 0.0
C16 C 0.17165 0.64134 0.42339 0.0
C17 C 0.16581 0.64157 0.3617 0.0
C18 C 0.14397 0.55713 0.08908 0.0
C19 C 0.21363 0.61615 0.16092 0.0
O20 O 0.15617 0.59598 0.94045 0.0
O21 O 0.18406 0.63952 0.93618 0.0
O22 O 0.14478 0.65748 0.10669 0.0
O23 O 0.15975 0.67743 0.02455 0.0
O24 O 0.08528 0.62289 0.1199 0.0
O25 O 0.10308 0.61881 0.02231 0.0
O26 O 0.14599 0.64095 0.23931 0.0
O27 O 0.11965 0.59624 0.25003 0.0
O28 O 0.16483 0.57932 0.09034 0.0
O29 O 0.11943 0.56213 0.1259 0.0
O30 O 0.21166 0.62819 0.10427 0.0
O31 O 0.18935 0.59926 0.18013 0.0
H32 H 0.17389 0.66978 0.83342 0.0
H33 H 0.16429 0.67238 0.72572 0.0
H34 H 0.12248 0.57952 0.73069 0.0
H35 H 0.13364 0.57662 0.83746 0.0
H36 H 0.13328 0.56858 0.34717 0.0
H37 H 0.1423 0.56818 0.45344 0.0
H38 H 0.18247 0.66188 0.44361 0.0
H39 H 0.17124 0.66262 0.33652 0.0
Pr40 Pr 0.65998 0.87302 0.50417 0.0
Pr41 Pr 0.63456 0.88562 0.3816 0.0
C42 C 0.66839 0.88044 0.62511 0.0
C43 C 0.65383 0.87455 0.68673 0.0
C44 C 0.66002 0.84683 0.71913 0.0
C45 C 0.65416 0.8452 0.7814 0.0
C46 C 0.64203 0.87133 0.81312 0.0
C47 C 0.63126 0.89715 0.77894 0.0
C48 C 0.63743 0.89886 0.71709 0.0
C49 C 0.64534 0.81418 0.46034 0.0
C50 C 0.57655 0.87529 0.47589 0.0
C51 C 0.6312 0.87632 0.26285 0.0
C52 C 0.64763 0.8805 0.2045 0.0
C53 C 0.64227 0.90776 0.17137 0.0
C54 C 0.64766 0.90797 0.10978 0.0
C55 C 0.65882 0.88088 0.07999 0.0
C56 C 0.66937 0.85541 0.11528 0.0
C57 C 0.66344 0.85508 0.17697 0.0
C58 C 0.64148 0.94009 0.44961 0.0
C59 C 0.7113 0.88107 0.37805 0.0
O60 O 0.654 0.90107 0.5904 0.0
O61 O 0.6822 0.85771 0.59464 0.0
O62 O 0.64685 0.83802 0.42634 0.0
O63 O 0.65304 0.82045 0.51532 0.0
O64 O 0.58347 0.87387 0.41856 0.0
O65 O 0.6006 0.87817 0.51608 0.0
O66 O 0.64417 0.85608 0.30001 0.0
O67 O 0.61755 0.9005 0.28918 0.0
O68 O 0.66248 0.91801 0.44885 0.0
O69 O 0.617 0.93484 0.4128 0.0
O70 O 0.70925 0.86864 0.43432 0.0
O71 O 0.68708 0.89828 0.35932 0.0
H72 H 0.67169 0.82717 0.69724 0.0
H73 H 0.66198 0.82425 0.80451 0.0
H74 H 0.61927 0.9169 0.7998 0.0
H75 H 0.63106 0.9202 0.6936 0.0
H76 H 0.63097 0.92806 0.1918 0.0
H77 H 0.63982 0.92865 0.08596 0.0
H78 H 0.68051 0.83495 0.09538 0.0
H79 H 0.66898 0.83403 0.20212 0.0
Pr80 Pr 0.34999 0.37161 0.52818 0.0
Pr81 Pr 0.376 0.38544 0.654 0.0
C82 C 0.34387 0.37945 0.40685 0.0
C83 C 0.35897 0.3744 0.34537 0.0
C84 C 0.35369 0.34663 0.31279 0.0
C85 C 0.35958 0.34543 0.25057 0.0
C86 C 0.37084 0.37189 0.21934 0.0
C87 C 0.38035 0.39822 0.25261 0.0
C88 C 0.37438 0.39947 0.3149 0.0
C89 C 0.36319 0.31359 0.57692 0.0
C90 C 0.43379 0.37327 0.55894 0.0
C91 C 0.37867 0.37657 0.77278 0.0
C92 C 0.3623 0.38084 0.83128 0.0
C93 C 0.36739 0.40834 0.86405 0.0
C94 C 0.36212 0.40861 0.92584 0.0
C95 C 0.35157 0.3815 0.95545 0.0
C96 C 0.3417 0.35552 0.92161 0.0
C97 C 0.34717 0.35515 0.85963 0.0
C98 C 0.36993 0.43904 0.58267 0.0
C99 C 0.29913 0.38107 0.65511 0.0
O100 O 0.35734 0.40005 0.44261 0.0
O101 O 0.33014 0.35623 0.43622 0.0
O102 O 0.36759 0.33944 0.60345 0.0
O103 O 0.3507 0.31742 0.5239 0.0
O104 O 0.42661 0.37262 0.61638 0.0
O105 O 0.40986 0.37493 0.51791 0.0
O106 O 0.36585 0.35615 0.73581 0.0
O107 O 0.39242 0.40071 0.74622 0.0
O108 O 0.34877 0.41697 0.58377 0.0
O109 O 0.3939 0.43418 0.62097 0.0
O110 O 0.30093 0.36834 0.5991 0.0
O111 O 0.32327 0.3985 0.67301 0.0
H112 H 0.3427 0.32653 0.33446 0.0
H113 H 0.35294 0.3245 0.22614 0.0
H114 H 0.38963 0.41881 0.22991 0.0
H115 H 0.37949 0.42106 0.33836 0.0
H116 H 0.37824 0.42875 0.84319 0.0
H117 H 0.36887 0.4292 0.95122 0.0
H118 H 0.33284 0.33456 0.94363 0.0
H119 H 0.34237 0.3338 0.83511 0.0
Pr120 Pr 0.84776 0.12693 1.00132 0.0
Pr121 Pr 0.87458 0.11284 0.87777 0.0
C122 C 0.84093 0.11897 0.12922 0.0
C123 C 0.85539 0.12428 0.19094 0.0
C124 C 0.84929 0.15179 0.22381 0.0
C125 C 0.85506 0.15292 0.28612 0.0
C126 C 0.8669 0.12647 0.31736 0.0
C127 C 0.87731 0.1007 0.28296 0.0
C128 C 0.87139 0.09954 0.22096 0.0
C129 C 0.86111 0.1851 0.95388 0.0
C130 C 0.93221 0.1247 0.97314 0.0
C131 C 0.8781 0.12149 0.7592 0.0
C132 C 0.86145 0.11718 0.70112 0.0
C133 C 0.86689 0.08991 0.66815 0.0
C134 C 0.86144 0.08969 0.60654 0.0
C135 C 0.8502 0.11677 0.57673 0.0
C136 C 0.8397 0.14227 0.61173 0.0
C137 C 0.84556 0.14258 0.67344 0.0
C138 C 0.86734 0.0591 0.94835 0.0
C139 C 0.79725 0.11743 0.87407 0.0
O140 O 0.85537 0.09869 0.09398 0.0
O141 O 0.82687 0.1419 0.09947 0.0
O142 O 0.86589 0.1594 0.92686 0.0
O143 O 0.84803 0.18089 1.00632 0.0
O144 O 0.92609 0.12311 0.91538 0.0
O145 O 0.9076 0.12475 1.0129 0.0
O146 O 0.86568 0.1423 0.79579 0.0
O147 O 0.89124 0.09715 0.78611 0.0
O148 O 0.84634 0.08132 0.94665 0.0
O149 O 0.8917 0.0639 0.91103 0.0
O150 O 0.79884 0.12993 0.93025 0.0
O151 O 0.82178 0.10057 0.85565 0.0
H152 H 0.8378 0.17169 0.20221 0.0
H153 H 0.84738 0.17371 0.30975 0.0
H154 H 0.88874 0.0806 0.30391 0.0
H155 H 0.87752 0.0783 0.19711 0.0
H156 H 0.87833 0.06966 0.68867 0.0
H157 H 0.86931 0.06913 0.58246 0.0
H158 H 0.82876 0.16277 0.59136 0.0
H159 H 0.84003 0.16363 0.6984 0.0
Pr160 Pr 0.16436 0.37251 1.00177 0.0
Pr161 Pr 0.13861 0.38663 0.87734 0.0
C162 C 0.17203 0.37956 0.12981 0.0
C163 C 0.15698 0.37423 0.19112 0.0
C164 C 0.16271 0.34663 0.22415 0.0
C165 C 0.15657 0.34542 0.28634 0.0
C166 C 0.14472 0.37189 0.31725 0.0
C167 C 0.13454 0.39772 0.28261 0.0
C168 C 0.14084 0.39896 0.22073 0.0
C169 C 0.15125 0.31443 0.95406 0.0
C170 C 0.08049 0.37479 0.97246 0.0
C171 C 0.13425 0.37755 0.75914 0.0
C172 C 0.15047 0.38152 0.70071 0.0
C173 C 0.14495 0.40871 0.66738 0.0
C174 C 0.15019 0.40876 0.60577 0.0
C175 C 0.1613 0.3816 0.57636 0.0
C176 C 0.17174 0.3561 0.61158 0.0
C177 C 0.16607 0.35594 0.67331 0.0
C178 C 0.14484 0.44 0.94797 0.0
C179 C 0.21519 0.38172 0.87466 0.0
O180 O 0.15865 0.40061 0.09469 0.0
O181 O 0.18519 0.35633 0.09982 0.0
O182 O 0.14676 0.34012 0.92679 0.0
O183 O 0.16341 0.31851 1.00721 0.0
O184 O 0.08782 0.376 0.91519 0.0
O185 O 0.10437 0.37541 1.01369 0.0
O186 O 0.14682 0.3568 0.79589 0.0
O187 O 0.12156 0.40212 0.78579 0.0
O188 O 0.16607 0.418 0.94684 0.0
O189 O 0.12074 0.43523 0.91005 0.0
O190 O 0.21325 0.36879 0.93057 0.0
O191 O 0.19119 0.39941 0.85686 0.0
H192 H 0.17425 0.32672 0.20287 0.0
H193 H 0.16403 0.32458 0.31024 0.0
H194 H 0.12312 0.41783 0.30335 0.0
H195 H 0.13493 0.42026 0.19674 0.0
H196 H 0.13366 0.42905 0.68766 0.0
H197 H 0.14229 0.42927 0.58136 0.0
H198 H 0.18249 0.33551 0.59137 0.0
H199 H 0.17157 0.33492 0.69856 0.0
Pr200 Pr 0.84749 0.87072 0.03412 0.0
Pr201 Pr 0.87513 0.88476 0.15704 0.0
C202 C 0.84049 0.87885 0.9063 0.0
C203 C 0.8552 0.87349 0.84497 0.0
C204 C 0.85032 0.84563 0.81287 0.0
C205 C 0.85648 0.84422 0.75082 0.0
C206 C 0.86702 0.87092 0.71847 0.0
C207 C 0.8766 0.89709 0.75293 0.0
C208 C 0.87053 0.89838 0.81473 0.0
C209 C 0.86123 0.81257 0.08121 0.0
C210 C 0.93215 0.873 0.06113 0.0
C211 C 0.8789 0.8759 0.27541 0.0
C212 C 0.86184 0.88014 0.33293 0.0
C213 C 0.86569 0.90783 0.36507 0.0
C214 C 0.85943 0.90841 0.42634 0.0
C215 C 0.84997 0.88096 0.45724 0.0
C216 C 0.84045 0.85501 0.42212 0.0
C217 C 0.84662 0.85456 0.36067 0.0
C218 C 0.86767 0.93852 0.08671 0.0
C219 C 0.79753 0.8801 0.16149 0.0
O220 O 0.85489 0.89904 0.94175 0.0
O221 O 0.82624 0.85596 0.93573 0.0
O222 O 0.86617 0.83826 0.10814 0.0
O223 O 0.84765 0.81666 0.02913 0.0
O224 O 0.92672 0.87491 0.11902 0.0
O225 O 0.90717 0.87275 0.02213 0.0
O226 O 0.8668 0.85499 0.23867 0.0
O227 O 0.89181 0.90037 0.2487 0.0
O228 O 0.84658 0.9164 0.08865 0.0
O229 O 0.89212 0.93367 0.12388 0.0
O230 O 0.79876 0.86793 0.10506 0.0
O231 O 0.82228 0.89664 0.18013 0.0
H232 H 0.83984 0.82541 0.83499 0.0
H233 H 0.85097 0.82236 0.72922 0.0
H234 H 0.88747 0.91766 0.7334 0.0
H235 H 0.87598 0.91988 0.83827 0.0
H236 H 0.87589 0.9285 0.34401 0.0
H237 H 0.86403 0.93031 0.44837 0.0
H238 H 0.83004 0.83407 0.44101 0.0
H239 H 0.84192 0.83323 0.33602 0.0
Pr240 Pr 0.35095 0.6256 0.50502 0.0
Pr241 Pr 0.37722 0.61166 0.38062 0.0
C242 C 0.34417 0.61815 0.62634 0.0
C243 C 0.35866 0.62336 0.68835 0.0
C244 C 0.35306 0.651 0.72147 0.0
C245 C 0.35918 0.65206 0.78388 0.0
C246 C 0.37031 0.62533 0.81467 0.0
C247 C 0.37958 0.59914 0.7808 0.0
C248 C 0.37405 0.59826 0.71856 0.0
C249 C 0.36402 0.68404 0.4578 0.0
C250 C 0.43492 0.62305 0.47596 0.0
C251 C 0.38032 0.61972 0.26161 0.0
C252 C 0.3637 0.61584 0.20316 0.0
C253 C 0.36862 0.5886 0.16942 0.0
C254 C 0.36275 0.58876 0.10768 0.0
C255 C 0.35239 0.6163 0.07898 0.0
C256 C 0.34312 0.64208 0.11388 0.0
C257 C 0.34853 0.64179 0.17578 0.0
C258 C 0.37034 0.55794 0.4516 0.0
C259 C 0.30007 0.61651 0.37804 0.0
O260 O 0.35833 0.59769 0.59111 0.0
O261 O 0.33018 0.64106 0.59642 0.0
O262 O 0.36869 0.65831 0.43051 0.0
O263 O 0.35239 0.67925 0.51119 0.0
O264 O 0.42889 0.62159 0.41813 0.0
O265 O 0.41045 0.62296 0.51578 0.0
O266 O 0.36845 0.64082 0.29821 0.0
O267 O 0.39302 0.59522 0.28866 0.0
O268 O 0.34932 0.58014 0.45008 0.0
O269 O 0.39455 0.56273 0.41397 0.0
O270 O 0.30193 0.62922 0.43405 0.0
O271 O 0.32432 0.59921 0.36001 0.0
H272 H 0.34191 0.67109 0.69996 0.0
H273 H 0.35239 0.67285 0.80861 0.0
H274 H 0.38915 0.57849 0.803 0.0
H275 H 0.3795 0.57682 0.69484 0.0
H276 H 0.37965 0.56804 0.18952 0.0
H277 H 0.3694 0.56832 0.08177 0.0
H278 H 0.33398 0.6632 0.09277 0.0
H279 H 0.3437 0.6629 0.201 0.0
Pr280 Pr 0.6602 0.12553 0.52982 0.0
Pr281 Pr 0.63329 0.11253 0.65481 0.0
C282 C 0.66719 0.11775 0.4088 0.0
C283 C 0.65254 0.12305 0.34706 0.0
C284 C 0.65719 0.1512 0.31523 0.0
C285 C 0.6515 0.15274 0.25295 0.0
C286 C 0.64158 0.1261 0.22062 0.0
C287 C 0.63259 0.09935 0.25357 0.0
C288 C 0.63802 0.0979 0.31587 0.0
C289 C 0.64679 0.18412 0.57608 0.0
C290 C 0.57603 0.12313 0.55834 0.0
C291 C 0.63073 0.12177 0.77328 0.0
C292 C 0.64791 0.11761 0.83104 0.0
C293 C 0.64434 0.08976 0.86342 0.0
C294 C 0.65006 0.08937 0.92507 0.0
C295 C 0.65906 0.11689 0.95521 0.0
C296 C 0.66786 0.14328 0.9211 0.0
C297 C 0.66231 0.1436 0.85925 0.0
C298 C 0.64096 0.0586 0.58528 0.0
C299 C 0.71084 0.11723 0.65723 0.0
O300 O 0.65324 0.0972 0.44418 0.0
O301 O 0.6809 0.14081 0.43845 0.0
O302 O 0.64203 0.15855 0.60373 0.0
O303 O 0.65888 0.17936 0.52314 0.0
O304 O 0.58188 0.12386 0.61631 0.0
O305 O 0.60069 0.12124 0.51899 0.0
O306 O 0.64292 0.14238 0.73588 0.0
O307 O 0.61719 0.09742 0.74726 0.0
O308 O 0.66177 0.08088 0.58671 0.0
O309 O 0.61656 0.06331 0.62253 0.0
O310 O 0.70927 0.12904 0.60039 0.0
O311 O 0.68629 0.10067 0.67659 0.0
H312 H 0.66724 0.17147 0.33771 0.0
H313 H 0.65685 0.1744 0.22974 0.0
H314 H 0.6241 0.07848 0.23101 0.0
H315 H 0.63326 0.07605 0.33885 0.0
H316 H 0.63443 0.06899 0.84238 0.0
H317 H 0.64506 0.06806 0.9497 0.0
H318 H 0.67578 0.16468 0.94246 0.0
H319 H 0.6662 0.16519 0.83481 0.0
Pr320 Pr 0.87307 0.38661 0.87789 0.0
Pr321 Pr 0.84764 0.37236 1.00215 0.0
C322 C 0.87713 0.37734 0.75975 0.0
C323 C 0.86096 0.38144 0.70127 0.0
C324 C 0.86657 0.40863 0.66807 0.0
C325 C 0.86141 0.40873 0.60643 0.0
C326 C 0.85025 0.38164 0.57682 0.0
C327 C 0.83966 0.35618 0.61199 0.0
C328 C 0.84531 0.35596 0.67373 0.0
C329 C 0.86653 0.4401 0.94816 0.0
C330 C 0.79656 0.38145 0.87503 0.0
C331 C 0.84024 0.37967 0.12994 0.0
C332 C 0.85501 0.37426 0.19138 0.0
C333 C 0.84907 0.3467 0.22427 0.0
C334 C 0.85502 0.34545 0.2865 0.0
C335 C 0.86693 0.37185 0.3176 0.0
C336 C 0.87733 0.39761 0.28305 0.0
C337 C 0.87116 0.39891 0.22115 0.0
C338 C 0.86137 0.31423 0.95464 0.0
C339 C 0.93142 0.37503 0.9727 0.0
O340 O 0.86428 0.35683 0.79657 0.0
O341 O 0.8902 0.40177 0.78626 0.0
O342 O 0.84552 0.41795 0.94739 0.0
O343 O 0.89057 0.43539 0.91015 0.0
O344 O 0.79873 0.36838 0.9308 0.0
O345 O 0.8204 0.39934 0.85745 0.0
O346 O 0.85412 0.40042 0.09493 0.0
O347 O 0.82681 0.35658 0.09996 0.0
O348 O 0.86552 0.33998 0.92738 0.0
O349 O 0.84892 0.31832 1.00756 0.0
O350 O 0.92399 0.37634 0.91546 0.0
O351 O 0.90788 0.37539 0.02099 0.0
H352 H 0.87788 0.42892 0.68848 0.0
H353 H 0.86942 0.42926 0.58231 0.0
H354 H 0.82875 0.33568 0.59183 0.0
H355 H 0.83971 0.33495 0.69892 0.0
H356 H 0.83751 0.32685 0.20281 0.0
H357 H 0.84739 0.32462 0.31015 0.0
H358 H 0.88893 0.41763 0.30377 0.0
H359 H 0.87724 0.42017 0.19722 0.0
Pr360 Pr 0.3778 0.11251 0.65406 0.0
Pr361 Pr 0.35018 0.12618 0.53002 0.0
C362 C 0.38113 0.1215 0.77241 0.0
C363 C 0.36417 0.11715 0.83012 0.0
C364 C 0.36931 0.0898 0.86307 0.0
C365 C 0.36376 0.0895 0.92459 0.0
C366 C 0.35262 0.11659 0.95442 0.0
C367 C 0.34209 0.14208 0.91912 0.0
C368 C 0.34821 0.14251 0.85752 0.0
C369 C 0.37012 0.05874 0.5842 0.0
C370 C 0.30011 0.11715 0.65733 0.0
C371 C 0.34299 0.11868 0.40908 0.0
C372 C 0.35774 0.12407 0.34766 0.0
C373 C 0.35179 0.15165 0.31482 0.0
C374 C 0.35761 0.15291 0.25259 0.0
C375 C 0.36948 0.12652 0.22129 0.0
C376 C 0.37999 0.10076 0.25594 0.0
C377 C 0.37384 0.09943 0.31782 0.0
C378 C 0.36407 0.1844 0.57718 0.0
C379 C 0.43464 0.12365 0.55754 0.0
O380 O 0.36879 0.14226 0.73542 0.0
O381 O 0.39442 0.09714 0.74597 0.0
O382 O 0.34921 0.08099 0.58582 0.0
O383 O 0.39461 0.06346 0.62131 0.0
O384 O 0.30135 0.12911 0.60065 0.0
O385 O 0.32487 0.10073 0.67651 0.0
O386 O 0.35687 0.09798 0.44432 0.0
O387 O 0.3294 0.14177 0.43885 0.0
O388 O 0.36884 0.15862 0.60397 0.0
O389 O 0.35082 0.18036 0.52491 0.0
O390 O 0.42905 0.1239 0.61554 0.0
O391 O 0.40977 0.12221 0.51841 0.0
H392 H 0.38065 0.06951 0.84267 0.0
H393 H 0.37149 0.06875 0.94828 0.0
H394 H 0.33084 0.1625 0.93894 0.0
H395 H 0.34277 0.1636 0.83243 0.0
H396 H 0.34031 0.17153 0.33635 0.0
H397 H 0.34996 0.17384 0.22928 0.0
H398 H 0.3918 0.08079 0.23551 0.0
H399 H 0.37998 0.07816 0.34174 0.0
Pr400 Pr 0.63456 0.61169 0.38192 0.0
Pr401 Pr 0.6595 0.62487 0.50351 0.0
C402 C 0.63113 0.62058 0.2629 0.0
C403 C 0.64756 0.61627 0.20452 0.0
C404 C 0.64212 0.58902 0.17154 0.0
C405 C 0.64758 0.58876 0.10992 0.0
C406 C 0.65883 0.6158 0.07999 0.0
C407 C 0.66937 0.64127 0.11506 0.0
C408 C 0.66346 0.64162 0.17677 0.0
C409 C 0.64109 0.55738 0.45044 0.0
C410 C 0.71118 0.61609 0.37789 0.0
C411 C 0.66749 0.61659 0.62461 0.0
C412 C 0.65343 0.62236 0.68665 0.0
C413 C 0.6598 0.64997 0.71909 0.0
C414 C 0.65404 0.6515 0.78142 0.0
C415 C 0.64192 0.62535 0.81318 0.0
C416 C 0.63117 0.59957 0.77912 0.0
C417 C 0.63716 0.59799 0.71718 0.0
C418 C 0.64761 0.68376 0.46078 0.0
C419 C 0.57616 0.62254 0.47613 0.0
O420 O 0.64395 0.64103 0.29969 0.0
O421 O 0.61763 0.59644 0.28971 0.0
O422 O 0.66227 0.57937 0.44972 0.0
O423 O 0.61666 0.56275 0.41347 0.0
O424 O 0.70889 0.62895 0.43361 0.0
O425 O 0.68703 0.59883 0.3597 0.0
O426 O 0.65228 0.59677 0.58957 0.0
O427 O 0.68206 0.63904 0.59452 0.0
O428 O 0.64119 0.65998 0.42821 0.0
O429 O 0.65902 0.6771 0.51351 0.0
O430 O 0.58251 0.62144 0.41844 0.0
O431 O 0.60047 0.62194 0.51606 0.0
H432 H 0.63073 0.56879 0.1921 0.0
H433 H 0.6397 0.56816 0.08606 0.0
H434 H 0.68045 0.6617 0.09485 0.0
H435 H 0.66905 0.66266 0.20174 0.0
H436 H 0.67144 0.66966 0.69712 0.0
H437 H 0.66191 0.67236 0.80461 0.0
H438 H 0.61937 0.57975 0.80024 0.0
H439 H 0.63074 0.57672 0.69372 0.0
Pr440 Pr 0.13646 0.8847 0.15787 0.0
Pr441 Pr 0.16278 0.87178 0.03322 0.0
C442 C 0.13336 0.87619 0.27632 0.0
C443 C 0.15011 0.88047 0.33429 0.0
C444 C 0.14479 0.90773 0.36746 0.0
C445 C 0.15031 0.90781 0.42911 0.0
C446 C 0.16134 0.88059 0.4586 0.0
C447 C 0.17154 0.85504 0.42358 0.0
C448 C 0.16582 0.85493 0.36183 0.0
C449 C 0.14377 0.93903 0.08795 0.0
C450 C 0.21363 0.88023 0.16064 0.0
C451 C 0.17006 0.87969 0.90568 0.0
C452 C 0.15584 0.87401 0.84392 0.0
C453 C 0.16209 0.84639 0.81139 0.0
C454 C 0.15633 0.84502 0.74903 0.0
C455 C 0.14452 0.87138 0.71756 0.0
C456 C 0.13413 0.89729 0.75148 0.0
C457 C 0.13986 0.89862 0.81351 0.0
C458 C 0.14962 0.8129 0.07865 0.0
C459 C 0.07868 0.87395 0.06182 0.0
O460 O 0.14568 0.85533 0.23964 0.0
O461 O 0.12013 0.90055 0.24955 0.0
O462 O 0.1646 0.91674 0.08926 0.0
O463 O 0.11941 0.934 0.12511 0.0
O464 O 0.21172 0.86773 0.10447 0.0
O465 O 0.1893 0.89731 0.17908 0.0
O466 O 0.15511 0.8998 0.9406 0.0
O467 O 0.18448 0.85705 0.93573 0.0
O468 O 0.14503 0.8387 0.10585 0.0
O469 O 0.16103 0.81803 0.02551 0.0
O470 O 0.08454 0.87531 0.11979 0.0
O471 O 0.10329 0.87431 0.02226 0.0
H472 H 0.13344 0.92807 0.34708 0.0
H473 H 0.14267 0.92832 0.45369 0.0
H474 H 0.18203 0.83436 0.44413 0.0
H475 H 0.17117 0.83387 0.33676 0.0
H476 H 0.1736 0.82659 0.83329 0.0
H477 H 0.16396 0.82421 0.72531 0.0
H478 H 0.12302 0.91739 0.72989 0.0
H479 H 0.13369 0.91995 0.83702 0.0
Pr480 Pr 0.87477 0.61132 0.1578 0.0
Pr481 Pr 0.84753 0.62513 0.03332 0.0
C482 C 0.87847 0.62016 0.27616 0.0
C483 C 0.86169 0.61603 0.3341 0.0
C484 C 0.86693 0.58877 0.36744 0.0
C485 C 0.86143 0.5887 0.42901 0.0
C486 C 0.85034 0.61589 0.45833 0.0
C487 C 0.84005 0.64141 0.42303 0.0
C488 C 0.84593 0.64157 0.36135 0.0
C489 C 0.86742 0.55773 0.08759 0.0
C490 C 0.79724 0.61629 0.16094 0.0
C491 C 0.8401 0.61809 0.90519 0.0
C492 C 0.85498 0.62334 0.84372 0.0
C493 C 0.84915 0.65091 0.81062 0.0
C494 C 0.8551 0.65205 0.74836 0.0
C495 C 0.86685 0.62556 0.71744 0.0
C496 C 0.87705 0.59972 0.75204 0.0
C497 C 0.87098 0.59856 0.81401 0.0
C498 C 0.86158 0.68324 0.08078 0.0
C499 C 0.93181 0.62254 0.06151 0.0
O500 O 0.86626 0.64105 0.23929 0.0
O501 O 0.89141 0.59567 0.24957 0.0
O502 O 0.84645 0.57993 0.08911 0.0
O503 O 0.89183 0.56242 0.1249 0.0
O504 O 0.79864 0.62827 0.10421 0.0
O505 O 0.82184 0.59969 0.1801 0.0
O506 O 0.85352 0.59708 0.94035 0.0
O507 O 0.82692 0.64132 0.93512 0.0
O508 O 0.86615 0.65743 0.10755 0.0
O509 O 0.84851 0.67932 0.02834 0.0
O510 O 0.92576 0.62302 0.11935 0.0
O511 O 0.90722 0.62083 0.02183 0.0
H512 H 0.87827 0.56843 0.34726 0.0
H513 H 0.86915 0.56817 0.45357 0.0
H514 H 0.82936 0.66203 0.44323 0.0
H515 H 0.84057 0.66263 0.33609 0.0
H516 H 0.83767 0.67085 0.83194 0.0
H517 H 0.8476 0.67287 0.72438 0.0
H518 H 0.8883 0.57956 0.73115 0.0
H519 H 0.87692 0.57727 0.83801 0.0
Pr520 Pr 0.137 0.11284 0.87749 0.0
Pr521 Pr 0.1641 0.12687 1.00109 0.0
C522 C 0.13327 0.12127 0.75885 0.0
C523 C 0.14994 0.11706 0.7008 0.0
C524 C 0.14454 0.08982 0.66772 0.0
C525 C 0.14999 0.08965 0.60613 0.0
C526 C 0.16118 0.11675 0.57645 0.0
C527 C 0.17162 0.14223 0.61153 0.0
C528 C 0.16576 0.14249 0.67323 0.0
C529 C 0.14376 0.05915 0.94822 0.0
C530 C 0.21437 0.11712 0.87419 0.0
C531 C 0.17121 0.11907 0.12915 0.0
C532 C 0.15651 0.12434 0.19071 0.0
C533 C 0.16243 0.15184 0.22369 0.0
C534 C 0.15651 0.15296 0.28594 0.0
C535 C 0.14467 0.12649 0.31703 0.0
C536 C 0.1344 0.10073 0.2825 0.0
C537 C 0.14048 0.09959 0.22054 0.0
C538 C 0.15135 0.18496 0.95327 0.0
C539 C 0.07955 0.12497 0.97304 0.0
O540 O 0.14538 0.14228 0.79535 0.0
O541 O 0.12053 0.09681 0.7859 0.0
O542 O 0.16493 0.08119 0.94662 0.0
O543 O 0.11946 0.0641 0.91076 0.0
O544 O 0.21295 0.12957 0.93037 0.0
O545 O 0.18977 0.10038 0.85569 0.0
O546 O 0.15717 0.09861 0.0938 0.0
O547 O 0.18509 0.14208 0.09948 0.0
O548 O 0.14625 0.15931 0.92634 0.0
O549 O 0.16415 0.18083 1.00596 0.0
O550 O 0.08559 0.12343 0.91526 0.0
O551 O 0.10424 0.12491 1.01273 0.0
H552 H 0.13314 0.06955 0.68813 0.0
H553 H 0.14214 0.06912 0.58194 0.0
H554 H 0.18249 0.16275 0.59122 0.0
H555 H 0.17124 0.16353 0.69827 0.0
H556 H 0.17392 0.17176 0.20225 0.0
H557 H 0.16408 0.17375 0.30969 0.0
H558 H 0.123 0.08061 0.30334 0.0
H559 H 0.13447 0.07835 0.19661 0.0
Pr560 Pr 0.63505 0.38532 0.65315 0.0
Pr561 Pr 0.66077 0.37175 0.52913 0.0
C562 C 0.63152 0.37662 0.77164 0.0
C563 C 0.64771 0.38108 0.83003 0.0
C564 C 0.64199 0.40834 0.86291 0.0
C565 C 0.64727 0.40859 0.92459 0.0
C566 C 0.65854 0.38155 0.95446 0.0
C567 C 0.66914 0.35604 0.91968 0.0
C568 C 0.66352 0.35571 0.85794 0.0
C569 C 0.64132 0.43924 0.58291 0.0
C570 C 0.7118 0.38087 0.65605 0.0
C571 C 0.66834 0.37962 0.40836 0.0
C572 C 0.65379 0.37424 0.34677 0.0
C573 C 0.65985 0.3467 0.31398 0.0
C574 C 0.65395 0.34551 0.25171 0.0
C575 C 0.64207 0.37195 0.22053 0.0
C576 C 0.6317 0.39774 0.25484 0.0
C577 C 0.63771 0.39895 0.3168 0.0
C578 C 0.64774 0.31325 0.57594 0.0
C579 C 0.57707 0.37355 0.55859 0.0
O580 O 0.64471 0.3562 0.73512 0.0
O581 O 0.61783 0.4007 0.74471 0.0
O582 O 0.66249 0.4172 0.58399 0.0
O583 O 0.61706 0.4341 0.62029 0.0
O584 O 0.70983 0.36807 0.60015 0.0
O585 O 0.68763 0.39823 0.674 0.0
O586 O 0.65396 0.39999 0.44346 0.0
O587 O 0.68223 0.35666 0.43825 0.0
O588 O 0.64323 0.33887 0.60337 0.0
O589 O 0.6595 0.31794 0.52266 0.0
O590 O 0.58433 0.37279 0.61595 0.0
O591 O 0.60098 0.37533 0.5177 0.0
H592 H 0.63055 0.42854 0.8422 0.0
H593 H 0.63929 0.42911 0.94872 0.0
H594 H 0.67999 0.33555 0.94028 0.0
H595 H 0.66919 0.33466 0.83309 0.0
H596 H 0.67139 0.32683 0.33557 0.0
H597 H 0.6616 0.32472 0.228 0.0
H598 H 0.62032 0.41784 0.23378 0.0
H599 H 0.63162 0.42021 0.3406 0.0
Pr600 Pr 0.3769 0.8856 0.38077 0.0
Pr601 Pr 0.35102 0.87217 0.50499 0.0
C602 C 0.38057 0.87645 0.26249 0.0
C603 C 0.36412 0.88058 0.20419 0.0
C604 C 0.36954 0.90779 0.17085 0.0
C605 C 0.36417 0.90785 0.10922 0.0
C606 C 0.35309 0.88067 0.07984 0.0
C607 C 0.34274 0.85518 0.11505 0.0
C608 C 0.34845 0.85505 0.1768 0.0
C609 C 0.36994 0.93952 0.45043 0.0
C610 C 0.29997 0.8805 0.37779 0.0
C611 C 0.34326 0.87932 0.62594 0.0
C612 C 0.35789 0.87379 0.68756 0.0
C613 C 0.35184 0.8462 0.7204 0.0
C614 C 0.35772 0.84488 0.78271 0.0
C615 C 0.36958 0.87125 0.81387 0.0
C616 C 0.37995 0.89709 0.77956 0.0
C617 C 0.37397 0.89841 0.71758 0.0
C618 C 0.36465 0.81349 0.45886 0.0
C619 C 0.43462 0.87479 0.47617 0.0
O620 O 0.36784 0.85593 0.29943 0.0
O621 O 0.39384 0.90081 0.28893 0.0
O622 O 0.34898 0.91735 0.44942 0.0
O623 O 0.39423 0.93459 0.41304 0.0
O624 O 0.30196 0.86809 0.43413 0.0
O625 O 0.32411 0.89773 0.35917 0.0
O626 O 0.3572 0.90011 0.59108 0.0
O627 O 0.32981 0.85633 0.59571 0.0
O628 O 0.369 0.83912 0.43112 0.0
O629 O 0.35325 0.81841 0.51225 0.0
O630 O 0.42793 0.87418 0.41857 0.0
O631 O 0.4105 0.8768 0.51652 0.0
H632 H 0.38084 0.92812 0.19113 0.0
H633 H 0.37197 0.92834 0.08468 0.0
H634 H 0.3321 0.83457 0.09475 0.0
H635 H 0.34301 0.83402 0.20204 0.0
H636 H 0.34029 0.82638 0.69882 0.0
H637 H 0.3501 0.82408 0.80652 0.0
H638 H 0.39125 0.91714 0.80071 0.0
H639 H 0.38007 0.91971 0.69379 0.0
C640 C 0.15193 0.59408 0.62284 0.0
C641 C 0.14682 0.62323 0.65061 0.0
H642 H 0.16307 0.56898 0.54349 0.0
C643 C 0.14703 0.65012 0.6141 0.0
H644 H 0.15313 0.57272 0.6487 0.0
C645 C 0.15268 0.64788 0.55232 0.0
C646 C 0.15827 0.61867 0.52505 0.0
H647 H 0.14243 0.67298 0.63286 0.0
H648 H 0.1515 0.66914 0.52611 0.0
C649 C 0.15792 0.59189 0.5615 0.0
C650 C 0.65263 0.90496 0.9702 0.0
C651 C 0.65557 0.87817 1.00634 0.0
H652 H 0.64592 0.92415 0.88373 0.0
C653 C 0.65258 0.84876 0.97843 0.0
H654 H 0.65587 0.92817 0.98808 0.0
C655 C 0.64693 0.84638 0.91668 0.0
C656 C 0.64415 0.87328 0.88051 0.0
H657 H 0.65334 0.82729 1.00397 0.0
H658 H 0.64429 0.82327 0.89789 0.0
C659 C 0.64664 0.90258 0.90891 0.0
C660 C 0.39314 0.38168 0.11479 0.0
C661 C 0.36686 0.37367 0.15291 0.0
H662 H 0.40868 0.38991 0.024 0.0
C663 C 0.33552 0.36819 0.12766 0.0
H664 H 0.41751 0.38594 0.13299 0.0
C665 C 0.33038 0.37063 0.06573 0.0
C666 C 0.35653 0.37881 0.02792 0.0
H667 H 0.31476 0.36238 0.15619 0.0
H668 H 0.30597 0.36649 0.04752 0.0
C669 C 0.388 0.38405 0.05272 0.0
C670 C 0.8541 0.09275 0.47393 0.0
C671 C 0.85322 0.11953 0.51022 0.0
H672 H 0.85928 0.07365 0.38686 0.0
C673 C 0.85836 0.1488 0.48275 0.0
H674 H 0.84933 0.06976 0.49205 0.0
C675 C 0.86408 0.1511 0.42102 0.0
C676 C 0.86473 0.12425 0.38461 0.0
H677 H 0.8592 0.17008 0.50876 0.0
H678 H 0.8684 0.17405 0.40229 0.0
C679 C 0.8601 0.09503 0.41255 0.0
C680 C 0.1468 0.34729 0.42111 0.0
C681 C 0.14675 0.37412 0.38445 0.0
H682 H 0.15123 0.32834 0.50915 0.0
C683 C 0.15195 0.40329 0.41208 0.0
H684 H 0.14207 0.32442 0.40251 0.0
C685 C 0.15796 0.40553 0.47343 0.0
C686 C 0.15825 0.37877 0.50996 0.0
H687 H 0.15321 0.42461 0.38611 0.0
H688 H 0.1632 0.42843 0.49139 0.0
C689 C 0.15251 0.34956 0.48285 0.0
C690 C 0.87182 0.90056 0.61954 0.0
C691 C 0.86491 0.87261 0.65065 0.0
H692 H 0.87226 0.92578 0.53917 0.0
C693 C 0.85292 0.84737 0.61636 0.0
H694 H 0.88124 0.9211 0.64137 0.0
C695 C 0.84716 0.85027 0.55492 0.0
C696 C 0.85338 0.87849 0.52429 0.0
H697 H 0.84729 0.82498 0.63586 0.0
H698 H 0.83805 0.82968 0.53279 0.0
C699 C 0.86608 0.90346 0.55829 0.0
C700 C 0.3792 0.64629 0.91968 0.0
C701 C 0.36721 0.62289 0.88127 0.0
H702 H 0.38354 0.66253 1.01047 0.0
C703 C 0.34972 0.59764 0.90632 0.0
H704 H 0.3929 0.66589 0.9017 0.0
C705 C 0.34389 0.59596 0.96804 0.0
C706 C 0.3556 0.61941 1.00622 0.0
H707 H 0.33978 0.57946 0.87779 0.0
H708 H 0.3302 0.57631 0.98592 0.0
C709 C 0.37348 0.64453 0.98165 0.0
C710 C 0.6287 0.10365 0.05654 0.0
C711 C 0.65519 0.11905 0.02828 0.0
H712 H 0.60287 0.09436 0.13832 0.0
C713 C 0.67596 0.13792 0.06313 0.0
H714 H 0.61136 0.0898 0.0309 0.0
C715 C 0.67074 0.14087 0.12485 0.0
C716 C 0.64464 0.12503 0.15359 0.0
H717 H 0.69671 0.14998 0.04312 0.0
H718 H 0.68808 0.15477 0.15032 0.0
C719 C 0.62355 0.1065 0.11832 0.0
C720 C 0.86078 0.40331 0.41268 0.0
C721 C 0.86484 0.37404 0.38482 0.0
H722 H 0.85033 0.42869 0.49188 0.0
C723 C 0.86364 0.34716 0.4213 0.0
H724 H 0.86036 0.42475 0.387 0.0
C725 C 0.85791 0.34951 0.48298 0.0
C726 C 0.85332 0.37884 0.51036 0.0
H727 H 0.86755 0.32416 0.40272 0.0
H728 H 0.85833 0.32817 0.50899 0.0
C729 C 0.85475 0.40563 0.47399 0.0
C730 C 0.36541 0.09505 0.12554 0.0
C731 C 0.36741 0.12439 0.15389 0.0
H732 H 0.35656 0.06929 0.04647 0.0
C733 C 0.36419 0.15122 0.11763 0.0
H734 H 0.36655 0.07349 0.15068 0.0
C735 C 0.35847 0.14873 0.05596 0.0
C736 C 0.35591 0.11929 0.02808 0.0
H737 H 0.36656 0.1744 0.13617 0.0
H738 H 0.35735 0.17021 0.03048 0.0
C739 C 0.3594 0.09256 0.06425 0.0
C740 C 0.6536 0.59178 0.97028 0.0
C741 C 0.65558 0.61859 1.00635 0.0
H742 H 0.64759 0.57258 0.88362 0.0
C743 C 0.65159 0.64795 0.97846 0.0
H744 H 0.65757 0.56867 0.98842 0.0
C745 C 0.64591 0.65027 0.91667 0.0
C746 C 0.64409 0.62335 0.88055 0.0
H747 H 0.65161 0.66935 1.00411 0.0
H748 H 0.6425 0.67331 0.89773 0.0
C749 C 0.64759 0.59409 0.90892 0.0
C750 C 0.15073 0.8489 0.552 0.0
C751 C 0.15836 0.87779 0.52498 0.0
H752 H 0.13899 0.82422 0.63272 0.0
C753 C 0.16002 0.90441 0.56152 0.0
H754 H 0.14806 0.82791 0.52545 0.0
C755 C 0.15406 0.90236 0.62296 0.0
C756 C 0.14689 0.8735 0.65046 0.0
H757 H 0.16657 0.92698 0.54324 0.0
H758 H 0.15672 0.92345 0.64918 0.0
C759 C 0.14508 0.84679 0.61384 0.0
C760 C 0.8653 0.6501 0.61352 0.0
C761 C 0.86472 0.62331 0.65027 0.0
H762 H 0.8614 0.66901 0.52529 0.0
C763 C 0.85889 0.59422 0.62277 0.0
H764 H 0.87049 0.67288 0.63214 0.0
C765 C 0.85294 0.59203 0.56136 0.0
C766 C 0.85331 0.61874 0.52473 0.0
H767 H 0.85715 0.57298 0.64889 0.0
H768 H 0.84728 0.56922 0.54336 0.0
C769 C 0.85965 0.64786 0.55174 0.0
C770 C 0.1528 0.14878 0.48252 0.0
C771 C 0.15819 0.11953 0.50994 0.0
H772 H 0.14264 0.17402 0.40202 0.0
C773 C 0.15755 0.09276 0.4736 0.0
H774 H 0.15177 0.17004 0.5086 0.0
C775 C 0.15158 0.09504 0.41219 0.0
C776 C 0.14674 0.12426 0.38429 0.0
H777 H 0.1625 0.0698 0.49173 0.0
H778 H 0.1526 0.07369 0.38644 0.0
C779 C 0.14712 0.15109 0.42076 0.0
C780 C 0.64418 0.34733 0.11692 0.0
C781 C 0.64423 0.37416 0.15336 0.0
H782 H 0.64851 0.32836 0.02903 0.0
C783 C 0.64958 0.40331 0.12557 0.0
H784 H 0.63934 0.32448 0.13569 0.0
C785 C 0.65555 0.40552 0.06418 0.0
C786 C 0.65573 0.37876 0.02787 0.0
H787 H 0.65094 0.42462 0.15142 0.0
H788 H 0.66082 0.4284 0.04596 0.0
C789 C 0.64988 0.34958 0.05519 0.0
C790 C 0.35534 0.90463 0.96989 0.0
C791 C 0.35583 0.8779 1.00647 0.0
H792 H 0.35953 0.92373 0.88241 0.0
C793 C 0.36231 0.8488 0.97946 0.0
H794 H 0.34956 0.92741 0.98792 0.0
C795 C 0.368 0.84661 0.91769 0.0
C796 C 0.36734 0.87342 0.88102 0.0
H797 H 0.36412 0.82765 1.0059 0.0
H798 H 0.37327 0.82385 0.89901 0.0
C799 C 0.36135 0.90248 0.90853 0.0
C800 C 0.181 0.73151 0.08171 0.0
C801 C 0.15374 0.71477 0.10345 0.0
H802 H 0.20141 0.77574 0.05967 0.0
C803 C 0.12857 0.73134 0.13323 0.0
H804 H 0.20098 0.71957 0.05887 0.0
C805 C 0.12879 0.76448 0.13369 0.0
C806 C 0.15424 0.78105 0.10472 0.0
H807 H 0.10714 0.71905 0.15003 0.0
H808 H 0.10746 0.77688 0.1506 0.0
C809 C 0.18126 0.76396 0.08231 0.0
C810 C 0.52314 0.89015 0.53311 0.0
C811 C 0.54086 0.87114 0.49227 0.0
H812 H 0.47473 0.90634 0.5614 0.0
C813 C 0.52283 0.84994 0.45736 0.0
H814 H 0.53621 0.90664 0.56122 0.0
C815 C 0.48848 0.84976 0.45751 0.0
C816 C 0.47031 0.87076 0.4926 0.0
H817 H 0.53542 0.83438 0.42661 0.0
H818 H 0.47598 0.8341 0.42682 0.0
C819 C 0.48792 0.88996 0.53325 0.0
C820 C 0.33725 0.26525 0.6159 0.0
C821 C 0.36621 0.28209 0.60332 0.0
H822 H 0.31425 0.22014 0.61972 0.0
C823 C 0.39581 0.26559 0.59551 0.0
H824 H 0.31384 0.27734 0.61967 0.0
C825 C 0.39605 0.2328 0.59549 0.0
C826 C 0.36669 0.21596 0.6033 0.0
H827 H 0.41813 0.27794 0.58311 0.0
H828 H 0.41854 0.22074 0.5831 0.0
C829 C 0.33749 0.23248 0.61592 0.0
C830 C 0.98592 0.1432 0.03281 0.0
C831 C 0.96794 0.12135 0.99087 0.0
H832 H 0.03936 0.16174 0.05597 0.0
C833 C 0.98611 0.09771 0.9624 0.0
H834 H 0.97279 0.1616 0.056 0.0
C835 C 0.0258 0.09777 0.9624 0.0
C836 C 0.04386 0.12149 0.99085 0.0
H837 H 0.97349 0.08 0.93634 0.0
H838 H 0.03849 0.08011 0.93634 0.0
C839 C 0.02633 0.14328 0.03279 0.0
C840 C 0.16776 0.26629 0.89783 0.0
C841 C 0.14418 0.28276 0.93175 0.0
H842 H 0.18801 0.22109 0.87623 0.0
C843 C 0.11966 0.26592 0.96193 0.0
H844 H 0.18795 0.27867 0.87661 0.0
C845 C 0.11966 0.23334 0.96163 0.0
C846 C 0.14418 0.21668 0.93116 0.0
H847 H 0.10219 0.27795 0.99061 0.0
H848 H 0.1022 0.22115 0.99012 0.0
C849 C 0.16779 0.23335 0.89759 0.0
C850 C 0.02505 0.90264 0.05778 0.0
C851 C 0.04323 0.87589 0.04241 0.0
H852 H 0.97219 0.92279 0.0738 0.0
C853 C 0.02547 0.85003 1.01263 0.0
H854 H 0.03767 0.92314 0.07459 0.0
C855 C 0.98524 0.84981 1.01221 0.0
C856 C 0.96749 0.87547 0.04142 0.0
H857 H 0.03871 0.82909 0.99993 0.0
H858 H 0.97242 0.82867 0.99936 0.0
C859 C 0.98521 0.90244 0.05724 0.0
C860 C 0.33283 0.73265 0.4453 0.0
C861 C 0.36156 0.71575 0.43161 0.0
H862 H 0.31136 0.77721 0.46253 0.0
C863 C 0.38944 0.7322 0.41123 0.0
H864 H 0.31101 0.7207 0.46159 0.0
C865 C 0.38962 0.76523 0.4117 0.0
C866 C 0.36196 0.78182 0.43265 0.0
H867 H 0.41209 0.71977 0.4015 0.0
H868 H 0.4124 0.77748 0.40219 0.0
C869 C 0.33303 0.76516 0.44588 0.0
C870 C 0.52281 0.09966 0.51687 0.0
C871 C 0.54065 0.12559 0.53874 0.0
H872 H 0.47471 0.0787 0.50434 0.0
C873 C 0.52276 0.15258 0.55372 0.0
H874 H 0.53578 0.07844 0.50488 0.0
C875 C 0.48807 0.15275 0.55329 0.0
C876 C 0.47002 0.12593 0.53789 0.0
H877 H 0.53564 0.17301 0.57017 0.0
H878 H 0.47528 0.17329 0.56953 0.0
C879 C 0.48777 0.09982 0.5165 0.0
C880 C 0.83247 0.23344 0.92328 0.0
C881 C 0.86221 0.21666 0.92728 0.0
H882 H 0.80915 0.27834 0.92669 0.0
C883 C 0.8921 0.23319 0.92589 0.0
H884 H 0.80905 0.22132 0.92617 0.0
C885 C 0.89216 0.26605 0.92621 0.0
C886 C 0.86233 0.28273 0.92788 0.0
H887 H 0.91528 0.22086 0.9312 0.0
H888 H 0.91538 0.27823 0.9317 0.0
C889 C 0.83253 0.26612 0.92359 0.0
C890 C 0.62781 0.76529 0.40403 0.0
C891 C 0.65119 0.78195 0.43831 0.0
H892 H 0.60809 0.71959 0.38315 0.0
C893 C 0.67783 0.7656 0.46318 0.0
H894 H 0.60734 0.77749 0.38323 0.0
C895 C 0.67838 0.73319 0.46273 0.0
C896 C 0.65206 0.71612 0.43808 0.0
H897 H 0.69683 0.77778 0.48817 0.0
H898 H 0.69794 0.72149 0.48726 0.0
C899 C 0.62823 0.73221 0.40392 0.0
C900 C 0.83628 0.7314 0.12213 0.0
C901 C 0.86499 0.7148 0.10654 0.0
H902 H 0.81297 0.77636 0.12846 0.0
C903 C 0.89407 0.73157 0.09541 0.0
H904 H 0.81316 0.71911 0.12837 0.0
C905 C 0.89396 0.76434 0.09549 0.0
C906 C 0.86477 0.78093 0.10665 0.0
H907 H 0.91607 0.71944 0.08059 0.0
H908 H 0.91589 0.77661 0.08073 0.0
C909 C 0.83617 0.76418 0.12218 0.0
C910 C 0.67832 0.23218 0.59357 0.0
C911 C 0.64883 0.21566 0.6028 0.0
H912 H 0.70098 0.27662 0.57991 0.0
C913 C 0.62035 0.23239 0.61911 0.0
H914 H 0.70058 0.21995 0.58025 0.0
C915 C 0.62059 0.26536 0.61896 0.0
C916 C 0.64932 0.28165 0.60254 0.0
H917 H 0.59716 0.22025 0.62519 0.0
H918 H 0.59759 0.27786 0.62497 0.0
C919 C 0.67855 0.26473 0.59337 0.0
C920 C 0.98595 0.38223 0.04327 0.0
C921 C 0.96784 0.37103 0.98576 0.0
H922 H 0.03981 0.39241 0.08059 0.0
C923 C 0.98624 0.35754 0.93927 0.0
H924 H 0.97282 0.39253 0.08066 0.0
C925 C 0.02555 0.35745 0.93926 0.0
C926 C 0.04407 0.37087 0.9857 0.0
H927 H 0.9742 0.34739 0.90047 0.0
H928 H 0.0375 0.34724 0.90045 0.0
C929 C 0.0266 0.38216 0.04324 0.0
C930 C 0.48808 0.64349 0.52462 0.0
C931 C 0.47035 0.61988 0.49435 0.0
H932 H 0.53632 0.66294 0.54381 0.0
C933 C 0.4882 0.59458 0.47094 0.0
H934 H 0.47507 0.66319 0.54376 0.0
C935 C 0.52273 0.59446 0.47092 0.0
C936 C 0.54072 0.61963 0.49428 0.0
H937 H 0.47537 0.57571 0.44852 0.0
H938 H 0.53544 0.5755 0.44851 0.0
C939 C 0.52316 0.64335 0.52463 0.0
C940 C 0.4883 0.39391 0.58763 0.0
C941 C 0.47001 0.3772 0.54498 0.0
H942 H 0.53481 0.40644 0.62354 0.0
C943 C 0.48772 0.36325 0.49701 0.0
H944 H 0.47603 0.40629 0.62371 0.0
C945 C 0.5231 0.36336 0.49689 0.0
C946 C 0.54082 0.37741 0.54473 0.0
H947 H 0.47456 0.35075 0.46224 0.0
H948 H 0.53627 0.35091 0.46206 0.0
C949 C 0.52253 0.39401 0.58752 0.0
C950 C 0.02508 0.60315 1.00334 0.0
C951 C 0.04321 0.62527 0.04437 0.0
H952 H 0.97154 0.58479 0.98077 0.0
C953 C 0.02531 0.64937 0.07187 0.0
H954 H 0.03804 0.58426 0.9813 0.0
C955 C 0.98561 0.64974 0.0714 0.0
C956 C 0.96738 0.626 0.04347 0.0
H957 H 0.0381 0.66712 0.09753 0.0
H958 H 0.97302 0.66771 0.09684 0.0
C959 C 0.98473 0.60349 1.00297 0.0
C960 C 0.11729 0.51253 0.03712 0.0
C961 C 0.14666 0.52768 0.05311 0.0
H962 H 0.09385 0.47376 0.9875 0.0
C963 C 0.17687 0.51335 0.03718 0.0
H964 H 0.09363 0.52278 0.04835 0.0
C965 C 0.17689 0.48418 1.00007 0.0
C966 C 0.14698 0.46943 0.98392 0.0
H967 H 0.20004 0.52431 0.0491 0.0
H968 H 0.20027 0.47355 0.98838 0.0
C969 C 0.11731 0.48427 0.99922 0.0
C970 C 0.7459 0.84933 0.29877 0.0
C971 C 0.73824 0.87765 0.32946 0.0
H972 H 0.76976 0.82701 0.22203 0.0
C973 C 0.74694 0.90517 0.29815 0.0
H974 H 0.73841 0.8273 0.31838 0.0
C975 C 0.76236 0.90501 0.24118 0.0
C976 C 0.77059 0.87731 0.21022 0.0
H977 H 0.74067 0.92764 0.31731 0.0
H978 H 0.76899 0.92734 0.22173 0.0
C979 C 0.76257 0.84917 0.24135 0.0
C980 C 0.39709 0.48409 0.53237 0.0
C981 C 0.36755 0.46892 0.54737 0.0
H982 H 0.42078 0.5232 0.49128 0.0
C983 C 0.33755 0.4838 0.53168 0.0
H984 H 0.42062 0.47356 0.54368 0.0
C985 C 0.33763 0.5134 0.50243 0.0
C986 C 0.36772 0.5281 0.48694 0.0
H987 H 0.31423 0.47297 0.54306 0.0
H988 H 0.31438 0.52436 0.49086 0.0
C989 C 0.39718 0.51279 0.50232 0.0
C990 C 0.76241 0.14857 0.79409 0.0
C991 C 0.77034 0.12038 0.82516 0.0
H992 H 0.73833 0.17062 0.71707 0.0
C993 C 0.76196 0.09274 0.79407 0.0
H994 H 0.76967 0.17068 0.81349 0.0
C995 C 0.74649 0.0927 0.73704 0.0
C996 C 0.73796 0.1203 0.70571 0.0
H997 H 0.76848 0.07035 0.8135 0.0
H998 H 0.74003 0.07029 0.71786 0.0
C999 C 0.74574 0.14853 0.7366 0.0
C1000 C 0.89424 0.51308 0.03624 0.0
C1001 C 0.86479 0.52824 0.05182 0.0
H1002 H 0.91733 0.47415 0.98748 0.0
C1003 C 0.83465 0.5137 0.03623 0.0
H1004 H 0.91785 0.52343 0.04737 0.0
C1005 C 0.83424 0.48438 0.99965 0.0
C1006 C 0.86422 0.46965 0.98378 0.0
H1007 H 0.81144 0.52462 0.048 0.0
H1008 H 0.81091 0.4736 0.98814 0.0
C1009 C 0.89382 0.48464 0.99892 0.0
C1010 C 0.24947 0.09243 0.79416 0.0
C1011 C 0.24117 0.12007 0.82534 0.0
H1012 H 0.27119 0.07005 0.71772 0.0
C1013 C 0.24893 0.14828 0.79433 0.0
H1014 H 0.24301 0.07004 0.81357 0.0
C1015 C 0.2654 0.14828 0.73677 0.0
C1016 C 0.27314 0.12007 0.70586 0.0
H1017 H 0.24167 0.17038 0.81382 0.0
H1018 H 0.27271 0.17038 0.71723 0.0
C1019 C 0.26475 0.09243 0.73706 0.0
C1020 C 0.61399 0.5126 0.50148 0.0
C1021 C 0.64347 0.52767 0.48584 0.0
H1022 H 0.59055 0.47368 0.54365 0.0
C1023 C 0.67356 0.51307 0.50175 0.0
H1024 H 0.5904 0.52304 0.49021 0.0
C1025 C 0.67365 0.48368 0.53156 0.0
C1026 C 0.64364 0.46899 0.54748 0.0
H1027 H 0.69681 0.52395 0.49009 0.0
H1028 H 0.69696 0.47285 0.54317 0.0
C1029 C 0.61407 0.48411 0.53217 0.0
C1030 C 0.26452 0.90481 0.29755 0.0
C1031 C 0.27304 0.87723 0.32895 0.0
H1032 H 0.2426 0.92717 0.22109 0.0
C1033 C 0.26528 0.84899 0.29807 0.0
H1034 H 0.27092 0.92724 0.31671 0.0
C1035 C 0.24856 0.84894 0.24058 0.0
C1036 C 0.24061 0.87714 0.20948 0.0
H1037 H 0.27269 0.82691 0.31763 0.0
H1038 H 0.24128 0.82683 0.22122 0.0
C1039 C 0.24908 0.90477 0.24052 0.0
C1040 C 0.61433 0.98442 0.50142 0.0
C1041 C 0.64387 0.96953 0.48556 0.0
H1042 H 0.59047 0.02461 0.54443 0.0
C1043 C 0.67391 0.98401 0.50197 0.0
H1044 H 0.59079 0.97406 0.4898 0.0
C1045 C 0.67363 0.01485 0.53258 0.0
C1046 C 0.64353 0.0293 0.5488 0.0
H1047 H 0.69721 0.97325 0.49014 0.0
H1048 H 0.69689 0.0256 0.54465 0.0
C1049 C 0.61405 0.01433 0.53282 0.0
C1050 C 0.24898 0.34994 0.79415 0.0
C1051 C 0.24161 0.37824 0.8251 0.0
H1052 H 0.27215 0.32764 0.71663 0.0
C1053 C 0.24986 0.40576 0.79338 0.0
H1054 H 0.24178 0.3279 0.81408 0.0
C1055 C 0.26447 0.40562 0.73575 0.0
C1056 C 0.27256 0.37794 0.70453 0.0
H1057 H 0.24379 0.42824 0.81273 0.0
H1058 H 0.2707 0.42799 0.716 0.0
C1059 C 0.26504 0.34979 0.73609 0.0
C1060 C 0.89459 0.98349 0.03599 0.0
C1061 C 0.86508 0.96834 0.05125 0.0
H1062 H 0.91773 0.02435 0.9878 0.0
C1063 C 0.83505 0.98318 0.03561 0.0
H1064 H 0.91816 0.97299 0.04715 0.0
C1065 C 0.83459 0.01454 0.99926 0.0
C1066 C 0.86467 0.02926 0.98367 0.0
H1067 H 0.81175 0.97235 0.04713 0.0
H1068 H 0.81133 0.02549 0.98773 0.0
C1069 C 0.89414 0.01395 0.99893 0.0
C1070 C 0.24937 0.59184 0.24083 0.0
C1071 C 0.24075 0.61941 0.20946 0.0
H1072 H 0.27133 0.56953 0.31731 0.0
C1073 C 0.24854 0.64766 0.2403 0.0
H1074 H 0.24297 0.56941 0.2217 0.0
C1075 C 0.26527 0.64774 0.29779 0.0
C1076 C 0.27321 0.61957 0.32895 0.0
H1077 H 0.2411 0.66973 0.22074 0.0
H1078 H 0.27252 0.66987 0.31713 0.0
C1079 C 0.26482 0.59192 0.29787 0.0
C1080 C 0.39711 0.984 0.50185 0.0
C1081 C 0.36756 0.96902 0.48636 0.0
H1082 H 0.42055 0.02447 0.54388 0.0
C1083 C 0.33754 0.98366 0.50245 0.0
H1084 H 0.42064 0.97358 0.49038 0.0
C1085 C 0.33738 0.01469 0.53243 0.0
C1086 C 0.36749 0.02924 0.54825 0.0
H1087 H 0.31423 0.97288 0.4908 0.0
H1088 H 0.31414 0.02553 0.54429 0.0
C1089 C 0.39696 0.01413 0.53257 0.0
C1090 C 0.76245 0.6475 0.24054 0.0
C1091 C 0.77025 0.61929 0.20959 0.0
H1092 H 0.73852 0.66959 0.31748 0.0
C1093 C 0.76186 0.59167 0.24085 0.0
H1094 H 0.76977 0.6696 0.22105 0.0
C1095 C 0.7465 0.59166 0.29789 0.0
C1096 C 0.73804 0.61927 0.32905 0.0
H1097 H 0.76835 0.56927 0.2216 0.0
H1098 H 0.74012 0.56924 0.31728 0.0
C1099 C 0.74583 0.64749 0.29804 0.0
C1100 C 0.17614 0.0146 0.99967 0.0
C1101 C 0.14615 0.02942 0.98379 0.0
H1102 H 0.19975 0.97241 0.04811 0.0
C1103 C 0.11658 0.01435 0.99904 0.0
H1104 H 0.19946 0.02535 0.98809 0.0
C1105 C 0.11696 0.98402 0.03657 0.0
C1106 C 0.14639 0.96878 0.05223 0.0
H1107 H 0.09305 0.02486 0.98758 0.0
H1108 H 0.09335 0.97368 0.04776 0.0
C1109 C 0.17651 0.98336 0.03641 0.0
C1110 C 0.74619 0.34956 0.73673 0.0
C1111 C 0.73851 0.37773 0.7053 0.0
H1112 H 0.76978 0.32762 0.81447 0.0
C1113 C 0.74676 0.40539 0.7364 0.0
H1114 H 0.73901 0.32743 0.71733 0.0
C1115 C 0.76169 0.4055 0.79381 0.0
C1116 C 0.77006 0.37797 0.82548 0.0
H1117 H 0.74043 0.42777 0.71673 0.0
H1118 H 0.76785 0.42797 0.81307 0.0
C1119 C 0.76252 0.34967 0.79461 0.0
loop_
_geom_bond_atom_site_label_1
_geom_bond_atom_site_label_2
_geom_bond_distance
_geom_bond_site_symmetry_2
_ccdc_geom_bond_type
Pr0 C2 2.880 . S
Pr0 O20 2.562 . S
Pr0 O21 2.490 . S
Pr0 O22 2.695 1_556 S
Pr0 O23 2.512 1_556 S
Pr0 O25 2.437 . S
Pr0 O28 2.436 1_556 S
Pr0 O30 2.438 1_556 S
Pr1 C11 2.880 . S
Pr1 O22 2.436 . S
Pr1 O24 2.438 . S
Pr1 O26 2.562 . S
Pr1 O27 2.490 . S
Pr1 O28 2.695 . S
Pr1 O29 2.512 . S
Pr1 O31 2.437 . S
C2 Pr0 2.880 . S
C2 C3 1.491 . S
C2 O20 1.254 . S
C2 O21 1.225 . S
C3 C2 1.491 . S
C3 C4 1.392 . S
C3 C8 1.356 . S
C4 C3 1.392 . S
C4 C5 1.368 . S
C4 H32 0.929 . S
C5 C4 1.368 . S
C5 C6 1.386 . S
C5 H33 0.929 . S
C6 C5 1.386 . S
C6 C7 1.373 . S
C7 C6 1.373 . S
C7 C8 1.409 . S
C7 H34 0.931 . S
C8 C3 1.356 . S
C8 C7 1.409 . S
C8 H35 0.930 . S
C9 O22 1.270 . S
C9 O23 1.248 . S
C10 O24 1.267 . S
C10 O25 1.278 1_554 S
C11 Pr1 2.880 . S
C11 C12 1.491 . S
C11 O26 1.254 . S
C11 O27 1.225 . S
C12 C11 1.491 . S
C12 C13 1.392 . S
C12 C17 1.356 . S
C13 C12 1.392 . S
C13 C14 1.368 . S
C13 H36 0.929 . S
C14 C13 1.368 . S
C14 C15 1.386 . S
C14 H37 0.929 . S
C15 C14 1.386 . S
C15 C16 1.373 . S
C16 C15 1.373 . S
C16 C17 1.409 . S
C16 H38 0.931 . S
C17 C12 1.356 . S
C17 C16 1.409 . S
C17 H39 0.930 . S
C18 O28 1.270 . S
C18 O29 1.248 . S
C19 O30 1.267 . S
C19 O31 1.278 . S
O20 Pr0 2.562 . S
O20 C2 1.254 . S
O21 Pr0 2.490 . S
O21 C2 1.225 . S
O22 Pr0 2.695 1_554 S
O22 Pr1 2.436 . S
O22 C9 1.270 . S
O23 Pr0 2.512 1_554 S
O23 C9 1.248 . S
O24 Pr1 2.438 . S
O24 C10 1.267 . S
O25 Pr0 2.437 . S
O25 C10 1.278 1_556 S
O26 Pr1 2.562 . S
O26 C11 1.254 . S
O27 Pr1 2.490 . S
O27 C11 1.225 . S
O28 Pr0 2.436 1_554 S
O28 Pr1 2.695 . S
O28 C18 1.270 . S
O29 Pr1 2.512 . S
O29 C18 1.248 . S
O30 Pr0 2.438 1_554 S
O30 C19 1.267 . S
O31 Pr1 2.437 . S
O31 C19 1.278 . S
H32 C4 0.929 . S
H33 C5 0.929 . S
H34 C7 0.931 . S
H35 C8 0.930 . S
H36 C13 0.929 . S
H37 C14 0.929 . S
H38 C16 0.931 . S
H39 C17 0.930 . S
Pr40 C42 2.880 . S
Pr40 O60 2.562 . S
Pr40 O61 2.490 . S
Pr40 O62 2.695 . S
Pr40 O63 2.512 . S
Pr40 O65 2.437 . S
Pr40 O68 2.436 . S
Pr40 O70 2.438 . S
Pr41 C51 2.880 . S
Pr41 O62 2.436 . S
Pr41 O64 2.438 . S
Pr41 O66 2.562 . S
Pr41 O67 2.490 . S
Pr41 O68 2.695 . S
Pr41 O69 2.512 . S
Pr41 O71 2.437 . S
C42 Pr40 2.880 . S
C42 C43 1.491 . S
C42 O60 1.254 . S
C42 O61 1.225 . S
C43 C42 1.491 . S
C43 C44 1.392 . S
C43 C48 1.356 . S
C44 C43 1.392 . S
C44 C45 1.368 . S
C44 H72 0.929 . S
C45 C44 1.368 . S
C45 C46 1.386 . S
C45 H73 0.929 . S
C46 C45 1.386 . S
C46 C47 1.373 . S
C47 C46 1.373 . S
C47 C48 1.409 . S
C47 H74 0.931 . S
C48 C43 1.356 . S
C48 C47 1.409 . S
C48 H75 0.930 . S
C49 O62 1.270 . S
C49 O63 1.248 . S
C50 O64 1.267 . S
C50 O65 1.278 . S
C51 Pr41 2.880 . S
C51 C52 1.491 . S
C51 O66 1.254 . S
C51 O67 1.225 . S
C52 C51 1.491 . S
C52 C53 1.392 . S
C52 C57 1.356 . S
C53 C52 1.392 . S
C53 C54 1.368 . S
C53 H76 0.929 . S
C54 C53 1.368 . S
C54 C55 1.386 . S
C54 H77 0.929 . S
C55 C54 1.386 . S
C55 C56 1.373 . S
C56 C55 1.373 . S
C56 C57 1.409 . S
C56 H78 0.931 . S
C57 C52 1.356 . S
C57 C56 1.409 . S
C57 H79 0.930 . S
C58 O68 1.270 . S
C58 O69 1.248 . S
C59 O70 1.267 . S
C59 O71 1.278 . S
O60 Pr40 2.562 . S
O60 C42 1.254 . S
O61 Pr40 2.490 . S
O61 C42 1.225 . S
O62 Pr40 2.695 . S
O62 Pr41 2.436 . S
O62 C49 1.270 . S
O63 Pr40 2.512 . S
O63 C49 1.248 . S
O64 Pr41 2.438 . S
O64 C50 1.267 . S
O65 Pr40 2.437 . S
O65 C50 1.278 . S
O66 Pr41 2.562 . S
O66 C51 1.254 . S
O67 Pr41 2.490 . S
O67 C51 1.225 . S
O68 Pr40 2.436 . S
O68 Pr41 2.695 . S
O68 C58 1.270 . S
O69 Pr41 2.512 . S
O69 C58 1.248 . S
O70 Pr40 2.438 . S
O70 C59 1.267 . S
O71 Pr41 2.437 . S
O71 C59 1.278 . S
H72 C44 0.929 . S
H73 C45 0.929 . S
H74 C47 0.931 . S
H75 C48 0.930 . S
H76 C53 0.929 . S
H77 C54 0.929 . S
H78 C56 0.931 . S
H79 C57 0.930 . S
Pr80 C82 2.880 . S
Pr80 O100 2.562 . S
Pr80 O101 2.490 . S
Pr80 O102 2.695 . S
Pr80 O103 2.512 . S
Pr80 O105 2.437 . S
Pr80 O108 2.436 . S
Pr80 O110 2.438 . S
Pr81 C91 2.880 . S
Pr81 O102 2.436 . S
Pr81 O104 2.438 . S
Pr81 O106 2.562 . S
Pr81 O107 2.490 . S
Pr81 O108 2.695 . S
Pr81 O109 2.512 . S
Pr81 O111 2.437 . S
C82 Pr80 2.880 . S
C82 C83 1.491 . S
C82 O100 1.254 . S
C82 O101 1.225 . S
C83 C82 1.491 . S
C83 C84 1.392 . S
C83 C88 1.356 . S
C84 C83 1.392 . S
C84 C85 1.368 . S
C84 H112 0.929 . S
C85 C84 1.368 . S
C85 C86 1.386 . S
C85 H113 0.929 . S
C86 C85 1.386 . S
C86 C87 1.373 . S
C87 C86 1.373 . S
C87 C88 1.409 . S
C87 H114 0.931 . S
C88 C83 1.356 . S
C88 C87 1.409 . S
C88 H115 0.930 . S
C89 O102 1.270 . S
C89 O103 1.248 . S
C90 O104 1.267 . S
C90 O105 1.278 . S
C91 Pr81 2.880 . S
C91 C92 1.491 . S
C91 O106 1.254 . S
C91 O107 1.225 . S
C92 C91 1.491 . S
C92 C93 1.392 . S
C92 C97 1.356 . S
C93 C92 1.392 . S
C93 C94 1.368 . S
C93 H116 0.929 . S
C94 C93 1.368 . S
C94 C95 1.386 . S
C94 H117 0.929 . S
C95 C94 1.386 . S
C95 C96 1.373 . S
C96 C95 1.373 . S
C96 C97 1.409 . S
C96 H118 0.931 . S
C97 C92 1.356 . S
C97 C96 1.409 . S
C97 H119 0.930 . S
C98 O108 1.270 . S
C98 O109 1.248 . S
C99 O110 1.267 . S
C99 O111 1.278 . S
O100 Pr80 2.562 . S
O100 C82 1.254 . S
O101 Pr80 2.490 . S
O101 C82 1.225 . S
O102 Pr80 2.695 . S
O102 Pr81 2.436 . S
O102 C89 1.270 . S
O103 Pr80 2.512 . S
O103 C89 1.248 . S
O104 Pr81 2.438 . S
O104 C90 1.267 . S
O105 Pr80 2.437 . S
O105 C90 1.278 . S
O106 Pr81 2.562 . S
O106 C91 1.254 . S
O107 Pr81 2.490 . S
O107 C91 1.225 . S
O108 Pr80 2.436 . S
O108 Pr81 2.695 . S
O108 C98 1.270 . S
O109 Pr81 2.512 . S
O109 C98 1.248 . S
O110 Pr80 2.438 . S
O110 C99 1.267 . S
O111 Pr81 2.437 . S
O111 C99 1.278 . S
H112 C84 0.929 . S
H113 C85 0.929 . S
H114 C87 0.931 . S
H115 C88 0.930 . S
H116 C93 0.929 . S
H117 C94 0.929 . S
H118 C96 0.931 . S
H119 C97 0.930 . S
Pr120 C122 2.880 . S
Pr120 O140 2.562 . S
Pr120 O141 2.490 . S
Pr120 O142 2.695 1_554 S
Pr120 O143 2.512 1_554 S
Pr120 O145 2.437 . S
Pr120 O148 2.436 1_554 S
Pr120 O150 2.438 1_554 S
Pr121 C131 2.880 . S
Pr121 O142 2.436 . S
Pr121 O144 2.438 . S
Pr121 O146 2.562 . S
Pr121 O147 2.490 . S
Pr121 O148 2.695 . S
Pr121 O149 2.512 . S
Pr121 O151 2.437 . S
C122 Pr120 2.880 . S
C122 C123 1.491 . S
C122 O140 1.254 . S
C122 O141 1.225 . S
C123 C122 1.491 . S
C123 C124 1.392 . S
C123 C128 1.356 . S
C124 C123 1.392 . S
C124 C125 1.368 . S
C124 H152 0.929 . S
C125 C124 1.368 . S
C125 C126 1.386 . S
C125 H153 0.929 . S
C126 C125 1.386 . S
C126 C127 1.373 . S
C127 C126 1.373 . S
C127 C128 1.409 . S
C127 H154 0.931 . S
C128 C123 1.356 . S
C128 C127 1.409 . S
C128 H155 0.930 . S
C129 O142 1.270 . S
C129 O143 1.248 . S
C130 O144 1.267 . S
C130 O145 1.278 1_556 S
C131 Pr121 2.880 . S
C131 C132 1.491 . S
C131 O146 1.254 . S
C131 O147 1.225 . S
C132 C131 1.491 . S
C132 C133 1.392 . S
C132 C137 1.356 . S
C133 C132 1.392 . S
C133 C134 1.368 . S
C133 H156 0.929 . S
C134 C133 1.368 . S
C134 C135 1.386 . S
C134 H157 0.929 . S
C135 C134 1.386 . S
C135 C136 1.373 . S
C136 C135 1.373 . S
C136 C137 1.409 . S
C136 H158 0.931 . S
C137 C132 1.356 . S
C137 C136 1.409 . S
C137 H159 0.930 . S
C138 O148 1.270 . S
C138 O149 1.248 . S
C139 O150 1.267 . S
C139 O151 1.278 . S
O140 Pr120 2.562 . S
O140 C122 1.254 . S
O141 Pr120 2.490 . S
O141 C122 1.225 . S
O142 Pr120 2.695 1_556 S
O142 Pr121 2.436 . S
O142 C129 1.270 . S
O143 Pr120 2.512 1_556 S
O143 C129 1.248 . S
O144 Pr121 2.438 . S
O144 C130 1.267 . S
O145 Pr120 2.437 . S
O145 C130 1.278 1_554 S
O146 Pr121 2.562 . S
O146 C131 1.254 . S
O147 Pr121 2.490 . S
O147 C131 1.225 . S
O148 Pr120 2.436 1_556 S
O148 Pr121 2.695 . S
O148 C138 1.270 . S
O149 Pr121 2.512 . S
O149 C138 1.248 . S
O150 Pr120 2.438 1_556 S
O150 C139 1.267 . S
O151 Pr121 2.437 . S
O151 C139 1.278 . S
H152 C124 0.929 . S
H153 C125 0.929 . S
H154 C127 0.931 . S
H155 C128 0.930 . S
H156 C133 0.929 . S
H157 C134 0.929 . S
H158 C136 0.931 . S
H159 C137 0.930 . S
Pr160 C162 2.880 . S
Pr160 O180 2.562 . S
Pr160 O181 2.490 . S
Pr160 O182 2.695 1_554 S
Pr160 O183 2.512 1_554 S
Pr160 O185 2.437 . S
Pr160 O188 2.436 1_554 S
Pr160 O190 2.438 1_554 S
Pr161 C171 2.880 . S
Pr161 O182 2.436 . S
Pr161 O184 2.438 . S
Pr161 O186 2.562 . S
Pr161 O187 2.490 . S
Pr161 O188 2.695 . S
Pr161 O189 2.512 . S
Pr161 O191 2.437 . S
C162 Pr160 2.880 . S
C162 C163 1.491 . S
C162 O180 1.254 . S
C162 O181 1.225 . S
C163 C162 1.491 . S
C163 C164 1.392 . S
C163 C168 1.356 . S
C164 C163 1.392 . S
C164 C165 1.368 . S
C164 H192 0.929 . S
C165 C164 1.368 . S
C165 C166 1.386 . S
C165 H193 0.929 . S
C166 C165 1.386 . S
C166 C167 1.373 . S
C167 C166 1.373 . S
C167 C168 1.409 . S
C167 H194 0.931 . S
C168 C163 1.356 . S
C168 C167 1.409 . S
C168 H195 0.930 . S
C169 O182 1.270 . S
C169 O183 1.248 . S
C170 O184 1.267 . S
C170 O185 1.278 1_556 S
C171 Pr161 2.880 . S
C171 C172 1.491 . S
C171 O186 1.254 . S
C171 O187 1.225 . S
C172 C171 1.491 . S
C172 C173 1.392 . S
C172 C177 1.356 . S
C173 C172 1.392 . S
C173 C174 1.368 . S
C173 H196 0.929 . S
C174 C173 1.368 . S
C174 C175 1.386 . S
C174 H197 0.929 . S
C175 C174 1.386 . S
C175 C176 1.373 . S
C176 C175 1.373 . S
C176 C177 1.409 . S
C176 H198 0.931 . S
C177 C172 1.356 . S
C177 C176 1.409 . S
C177 H199 0.930 . S
C178 O188 1.270 . S
C178 O189 1.248 . S
C179 O190 1.267 . S
C179 O191 1.278 . S
O180 Pr160 2.562 . S
O180 C162 1.254 . S
O181 Pr160 2.490 . S
O181 C162 1.225 . S
O182 Pr160 2.695 1_556 S
O182 Pr161 2.436 . S
O182 C169 1.270 . S
O183 Pr160 2.512 1_556 S
O183 C169 1.248 . S
O184 Pr161 2.438 . S
O184 C170 1.267 . S
O185 Pr160 2.437 . S
O185 C170 1.278 1_554 S
O186 Pr161 2.562 . S
O186 C171 1.254 . S
O187 Pr161 2.490 . S
O187 C171 1.225 . S
O188 Pr160 2.436 1_556 S
O188 Pr161 2.695 . S
O188 C178 1.270 . S
O189 Pr161 2.512 . S
O189 C178 1.248 . S
O190 Pr160 2.438 1_556 S
O190 C179 1.267 . S
O191 Pr161 2.437 . S
O191 C179 1.278 . S
H192 C164 0.929 . S
H193 C165 0.929 . S
H194 C167 0.931 . S
H195 C168 0.930 . S
H196 C173 0.929 . S
H197 C174 0.929 . S
H198 C176 0.931 . S
H199 C177 0.930 . S
Pr200 C202 2.880 . S
Pr200 O220 2.562 . S
Pr200 O221 2.490 . S
Pr200 O222 2.695 1_556 S
Pr200 O223 2.512 1_556 S
Pr200 O225 2.437 . S
Pr200 O228 2.436 1_556 S
Pr200 O230 2.438 1_556 S
Pr201 C211 2.880 . S
Pr201 O222 2.436 . S
Pr201 O224 2.438 . S
Pr201 O226 2.562 . S
Pr201 O227 2.490 . S
Pr201 O228 2.695 . S
Pr201 O229 2.512 . S
Pr201 O231 2.437 . S
C202 Pr200 2.880 . S
C202 C203 1.491 . S
C202 O220 1.254 . S
C202 O221 1.225 . S
C203 C202 1.491 . S
C203 C204 1.392 . S
C203 C208 1.356 . S
C204 C203 1.392 . S
C204 C205 1.368 . S
C204 H232 0.929 . S
C205 C204 1.368 . S
C205 C206 1.386 . S
C205 H233 0.929 . S
C206 C205 1.386 . S
C206 C207 1.373 . S
C207 C206 1.373 . S
C207 C208 1.409 . S
C207 H234 0.931 . S
C208 C203 1.356 . S
C208 C207 1.409 . S
C208 H235 0.930 . S
C209 O222 1.270 . S
C209 O223 1.248 . S
C210 O224 1.267 . S
C210 O225 1.278 1_554 S
C211 Pr201 2.880 . S
C211 C212 1.491 . S
C211 O226 1.254 . S
C211 O227 1.225 . S
C212 C211 1.491 . S
C212 C213 1.392 . S
C212 C217 1.356 . S
C213 C212 1.392 . S
C213 C214 1.368 . S
C213 H236 0.929 . S
C214 C213 1.368 . S
C214 C215 1.386 . S
C214 H237 0.929 . S
C215 C214 1.386 . S
C215 C216 1.373 . S
C216 C215 1.373 . S
C216 C217 1.409 . S
C216 H238 0.931 . S
C217 C212 1.356 . S
C217 C216 1.409 . S
C217 H239 0.930 . S
C218 O228 1.270 . S
C218 O229 1.248 . S
C219 O230 1.267 . S
C219 O231 1.278 . S
O220 Pr200 2.562 . S
O220 C202 1.254 . S
O221 Pr200 2.490 . S
O221 C202 1.225 . S
O222 Pr200 2.695 1_554 S
O222 Pr201 2.436 . S
O222 C209 1.270 . S
O223 Pr200 2.512 1_554 S
O223 C209 1.248 . S
O224 Pr201 2.438 . S
O224 C210 1.267 . S
O225 Pr200 2.437 . S
O225 C210 1.278 1_556 S
O226 Pr201 2.562 . S
O226 C211 1.254 . S
O227 Pr201 2.490 . S
O227 C211 1.225 . S
O228 Pr200 2.436 1_554 S
O228 Pr201 2.695 . S
O228 C218 1.270 . S
O229 Pr201 2.512 . S
O229 C218 1.248 . S
O230 Pr200 2.438 1_554 S
O230 C219 1.267 . S
O231 Pr201 2.437 . S
O231 C219 1.278 . S
H232 C204 0.929 . S
H233 C205 0.929 . S
H234 C207 0.931 . S
H235 C208 0.930 . S
H236 C213 0.929 . S
H237 C214 0.929 . S
H238 C216 0.931 . S
H239 C217 0.930 . S
Pr240 C242 2.880 . S
Pr240 O260 2.562 . S
Pr240 O261 2.490 . S
Pr240 O262 2.695 . S
Pr240 O263 2.512 . S
Pr240 O265 2.437 . S
Pr240 O268 2.436 . S
Pr240 O270 2.438 . S
Pr241 C251 2.880 . S
Pr241 O262 2.436 . S
Pr241 O264 2.438 . S
Pr241 O266 2.562 . S
Pr241 O267 2.490 . S
Pr241 O268 2.695 . S
Pr241 O269 2.512 . S
Pr241 O271 2.437 . S
C242 Pr240 2.880 . S
C242 C243 1.491 . S
C242 O260 1.254 . S
C242 O261 1.225 . S
C243 C242 1.491 . S
C243 C244 1.392 . S
C243 C248 1.356 . S
C244 C243 1.392 . S
C244 C245 1.368 . S
C244 H272 0.929 . S
C245 C244 1.368 . S
C245 C246 1.386 . S
C245 H273 0.929 . S
C246 C245 1.386 . S
C246 C247 1.373 . S
C247 C246 1.373 . S
C247 C248 1.409 . S
C247 H274 0.931 . S
C248 C243 1.356 . S
C248 C247 1.409 . S
C248 H275 0.930 . S
C249 O262 1.270 . S
C249 O263 1.248 . S
C250 O264 1.267 . S
C250 O265 1.278 . S
C251 Pr241 2.880 . S
C251 C252 1.491 . S
C251 O266 1.254 . S
C251 O267 1.225 . S
C252 C251 1.491 . S
C252 C253 1.392 . S
C252 C257 1.356 . S
C253 C252 1.392 . S
C253 C254 1.368 . S
C253 H276 0.929 . S
C254 C253 1.368 . S
C254 C255 1.386 . S
C254 H277 0.929 . S
C255 C254 1.386 . S
C255 C256 1.373 . S
C256 C255 1.373 . S
C256 C257 1.409 . S
C256 H278 0.931 . S
C257 C252 1.356 . S
C257 C256 1.409 . S
C257 H279 0.930 . S
C258 O268 1.270 . S
C258 O269 1.248 . S
C259 O270 1.267 . S
C259 O271 1.278 . S
O260 Pr240 2.562 . S
O260 C242 1.254 . S
O261 Pr240 2.490 . S
O261 C242 1.225 . S
O262 Pr240 2.695 . S
O262 Pr241 2.436 . S
O262 C249 1.270 . S
O263 Pr240 2.512 . S
O263 C249 1.248 . S
O264 Pr241 2.438 . S
O264 C250 1.267 . S
O265 Pr240 2.437 . S
O265 C250 1.278 . S
O266 Pr241 2.562 . S
O266 C251 1.254 . S
O267 Pr241 2.490 . S
O267 C251 1.225 . S
O268 Pr240 2.436 . S
O268 Pr241 2.695 . S
O268 C258 1.270 . S
O269 Pr241 2.512 . S
O269 C258 1.248 . S
O270 Pr240 2.438 . S
O270 C259 1.267 . S
O271 Pr241 2.437 . S
O271 C259 1.278 . S
H272 C244 0.929 . S
H273 C245 0.929 . S
H274 C247 0.931 . S
H275 C248 0.930 . S
H276 C253 0.929 . S
H277 C254 0.929 . S
H278 C256 0.931 . S
H279 C257 0.930 . S
Pr280 C282 2.880 . S
Pr280 O300 2.562 . S
Pr280 O301 2.490 . S
Pr280 O302 2.695 . S
Pr280 O303 2.512 . S
Pr280 O305 2.437 . S
Pr280 O308 2.436 . S
Pr280 O310 2.438 . S
Pr281 C291 2.880 . S
Pr281 O302 2.436 . S
Pr281 O304 2.438 . S
Pr281 O306 2.562 . S
Pr281 O307 2.490 . S
Pr281 O308 2.695 . S
Pr281 O309 2.512 . S
Pr281 O311 2.437 . S
C282 Pr280 2.880 . S
C282 C283 1.491 . S
C282 O300 1.254 . S
C282 O301 1.225 . S
C283 C282 1.491 . S
C283 C284 1.392 . S
C283 C288 1.356 . S
C284 C283 1.392 . S
C284 C285 1.368 . S
C284 H312 0.929 . S
C285 C284 1.368 . S
C285 C286 1.386 . S
C285 H313 0.929 . S
C286 C285 1.386 . S
C286 C287 1.373 . S
C287 C286 1.373 . S
C287 C288 1.409 . S
C287 H314 0.931 . S
C288 C283 1.356 . S
C288 C287 1.409 . S
C288 H315 0.930 . S
C289 O302 1.270 . S
C289 O303 1.248 . S
C290 O304 1.267 . S
C290 O305 1.278 . S
C291 Pr281 2.880 . S
C291 C292 1.491 . S
C291 O306 1.254 . S
C291 O307 1.225 . S
C292 C291 1.491 . S
C292 C293 1.392 . S
C292 C297 1.356 . S
C293 C292 1.392 . S
C293 C294 1.368 . S
C293 H316 0.929 . S
C294 C293 1.368 . S
C294 C295 1.386 . S
C294 H317 0.929 . S
C295 C294 1.386 . S
C295 C296 1.373 . S
C296 C295 1.373 . S
C296 C297 1.409 . S
C296 H318 0.931 . S
C297 C292 1.356 . S
C297 C296 1.409 . S
C297 H319 0.930 . S
C298 O308 1.270 . S
C298 O309 1.248 . S
C299 O310 1.267 . S
C299 O311 1.278 . S
O300 Pr280 2.562 . S
O300 C282 1.254 . S
O301 Pr280 2.490 . S
O301 C282 1.225 . S
O302 Pr280 2.695 . S
O302 Pr281 2.436 . S
O302 C289 1.270 . S
O303 Pr280 2.512 . S
O303 C289 1.248 . S
O304 Pr281 2.438 . S
O304 C290 1.267 . S
O305 Pr280 2.437 . S
O305 C290 1.278 . S
O306 Pr281 2.562 . S
O306 C291 1.254 . S
O307 Pr281 2.490 . S
O307 C291 1.225 . S
O308 Pr280 2.436 . S
O308 Pr281 2.695 . S
O308 C298 1.270 . S
O309 Pr281 2.512 . S
O309 C298 1.248 . S
O310 Pr280 2.438 . S
O310 C299 1.267 . S
O311 Pr281 2.437 . S
O311 C299 1.278 . S
H312 C284 0.929 . S
H313 C285 0.929 . S
H314 C287 0.931 . S
H315 C288 0.930 . S
H316 C293 0.929 . S
H317 C294 0.929 . S
H318 C296 0.931 . S
H319 C297 0.930 . S
Pr320 C322 2.880 . S
Pr320 O340 2.562 . S
Pr320 O341 2.490 . S
Pr320 O342 2.695 . S
Pr320 O343 2.512 . S
Pr320 O345 2.437 . S
Pr320 O348 2.436 . S
Pr320 O350 2.438 . S
Pr321 C331 2.880 . S
Pr321 O342 2.436 1_554 S
Pr321 O344 2.438 1_554 S
Pr321 O346 2.562 . S
Pr321 O347 2.490 . S
Pr321 O348 2.695 1_554 S
Pr321 O349 2.512 1_554 S
Pr321 O351 2.437 . S
C322 Pr320 2.880 . S
C322 C323 1.491 . S
C322 O340 1.254 . S
C322 O341 1.225 . S
C323 C322 1.491 . S
C323 C324 1.392 . S
C323 C328 1.356 . S
C324 C323 1.392 . S
C324 C325 1.368 . S
C324 H352 0.929 . S
C325 C324 1.368 . S
C325 C326 1.386 . S
C325 H353 0.929 . S
C326 C325 1.386 . S
C326 C327 1.373 . S
C327 C326 1.373 . S
C327 C328 1.409 . S
C327 H354 0.931 . S
C328 C323 1.356 . S
C328 C327 1.409 . S
C328 H355 0.930 . S
C329 O342 1.270 . S
C329 O343 1.248 . S
C330 O344 1.267 . S
C330 O345 1.278 . S
C331 Pr321 2.880 . S
C331 C332 1.491 . S
C331 O346 1.254 . S
C331 O347 1.225 . S
C332 C331 1.491 . S
C332 C333 1.392 . S
C332 C337 1.356 . S
C333 C332 1.392 . S
C333 C334 1.368 . S
C333 H356 0.929 . S
C334 C333 1.368 . S
C334 C335 1.386 . S
C334 H357 0.929 . S
C335 C334 1.386 . S
C335 C336 1.373 . S
C336 C335 1.373 . S
C336 C337 1.409 . S
C336 H358 0.931 . S
C337 C332 1.356 . S
C337 C336 1.409 . S
C337 H359 0.930 . S
C338 O348 1.270 . S
C338 O349 1.248 . S
C339 O350 1.267 . S
C339 O351 1.278 1_556 S
O340 Pr320 2.562 . S
O340 C322 1.254 . S
O341 Pr320 2.490 . S
O341 C322 1.225 . S
O342 Pr320 2.695 . S
O342 Pr321 2.436 1_556 S
O342 C329 1.270 . S
O343 Pr320 2.512 . S
O343 C329 1.248 . S
O344 Pr321 2.438 1_556 S
O344 C330 1.267 . S
O345 Pr320 2.437 . S
O345 C330 1.278 . S
O346 Pr321 2.562 . S
O346 C331 1.254 . S
O347 Pr321 2.490 . S
O347 C331 1.225 . S
O348 Pr320 2.436 . S
O348 Pr321 2.695 1_556 S
O348 C338 1.270 . S
O349 Pr321 2.512 1_556 S
O349 C338 1.248 . S
O350 Pr320 2.438 . S
O350 C339 1.267 . S
O351 Pr321 2.437 . S
O351 C339 1.278 1_554 S
H352 C324 0.929 . S
H353 C325 0.929 . S
H354 C327 0.931 . S
H355 C328 0.930 . S
H356 C333 0.929 . S
H357 C334 0.929 . S
H358 C336 0.931 . S
H359 C337 0.930 . S
Pr360 C362 2.880 . S
Pr360 O380 2.562 . S
Pr360 O381 2.490 . S
Pr360 O382 2.695 . S
Pr360 O383 2.512 . S
Pr360 O385 2.437 . S
Pr360 O388 2.436 . S
Pr360 O390 2.438 . S
Pr361 C371 2.880 . S
Pr361 O382 2.436 . S
Pr361 O384 2.438 . S
Pr361 O386 2.562 . S
Pr361 O387 2.490 . S
Pr361 O388 2.695 . S
Pr361 O389 2.512 . S
Pr361 O391 2.437 . S
C362 Pr360 2.880 . S
C362 C363 1.491 . S
C362 O380 1.254 . S
C362 O381 1.225 . S
C363 C362 1.491 . S
C363 C364 1.392 . S
C363 C368 1.356 . S
C364 C363 1.392 . S
C364 C365 1.368 . S
C364 H392 0.929 . S
C365 C364 1.368 . S
C365 C366 1.386 . S
C365 H393 0.929 . S
C366 C365 1.386 . S
C366 C367 1.373 . S
C367 C366 1.373 . S
C367 C368 1.409 . S
C367 H394 0.931 . S
C368 C363 1.356 . S
C368 C367 1.409 . S
C368 H395 0.930 . S
C369 O382 1.270 . S
C369 O383 1.248 . S
C370 O384 1.267 . S
C370 O385 1.278 . S
C371 Pr361 2.880 . S
C371 C372 1.491 . S
C371 O386 1.254 . S
C371 O387 1.225 . S
C372 C371 1.491 . S
C372 C373 1.392 . S
C372 C377 1.356 . S
C373 C372 1.392 . S
C373 C374 1.368 . S
C373 H396 0.929 . S
C374 C373 1.368 . S
C374 C375 1.386 . S
C374 H397 0.929 . S
C375 C374 1.386 . S
C375 C376 1.373 . S
C376 C375 1.373 . S
C376 C377 1.409 . S
C376 H398 0.931 . S
C377 C372 1.356 . S
C377 C376 1.409 . S
C377 H399 0.930 . S
C378 O388 1.270 . S
C378 O389 1.248 . S
C379 O390 1.267 . S
C379 O391 1.278 . S
O380 Pr360 2.562 . S
O380 C362 1.254 . S
O381 Pr360 2.490 . S
O381 C362 1.225 . S
O382 Pr360 2.695 . S
O382 Pr361 2.436 . S
O382 C369 1.270 . S
O383 Pr360 2.512 . S
O383 C369 1.248 . S
O384 Pr361 2.438 . S
O384 C370 1.267 . S
O385 Pr360 2.437 . S
O385 C370 1.278 . S
O386 Pr361 2.562 . S
O386 C371 1.254 . S
O387 Pr361 2.490 . S
O387 C371 1.225 . S
O388 Pr360 2.436 . S
O388 Pr361 2.695 . S
O388 C378 1.270 . S
O389 Pr361 2.512 . S
O389 C378 1.248 . S
O390 Pr360 2.438 . S
O390 C379 1.267 . S
O391 Pr361 2.437 . S
O391 C379 1.278 . S
H392 C364 0.929 . S
H393 C365 0.929 . S
H394 C367 0.931 . S
H395 C368 0.930 . S
H396 C373 0.929 . S
H397 C374 0.929 . S
H398 C376 0.931 . S
H399 C377 0.930 . S
Pr400 C402 2.880 . S
Pr400 O420 2.562 . S
Pr400 O421 2.490 . S
Pr400 O422 2.695 . S
Pr400 O423 2.512 . S
Pr400 O425 2.437 . S
Pr400 O428 2.436 . S
Pr400 O430 2.438 . S
Pr401 C411 2.880 . S
Pr401 O422 2.436 . S
Pr401 O424 2.438 . S
Pr401 O426 2.562 . S
Pr401 O427 2.490 . S
Pr401 O428 2.695 . S
Pr401 O429 2.512 . S
Pr401 O431 2.437 . S
C402 Pr400 2.880 . S
C402 C403 1.491 . S
C402 O420 1.254 . S
C402 O421 1.225 . S
C403 C402 1.491 . S
C403 C404 1.392 . S
C403 C408 1.356 . S
C404 C403 1.392 . S
C404 C405 1.368 . S
C404 H432 0.929 . S
C405 C404 1.368 . S
C405 C406 1.386 . S
C405 H433 0.929 . S
C406 C405 1.386 . S
C406 C407 1.373 . S
C407 C406 1.373 . S
C407 C408 1.409 . S
C407 H434 0.931 . S
C408 C403 1.356 . S
C408 C407 1.409 . S
C408 H435 0.930 . S
C409 O422 1.270 . S
C409 O423 1.248 . S
C410 O424 1.267 . S
C410 O425 1.278 . S
C411 Pr401 2.880 . S
C411 C412 1.491 . S
C411 O426 1.254 . S
C411 O427 1.225 . S
C412 C411 1.491 . S
C412 C413 1.392 . S
C412 C417 1.356 . S
C413 C412 1.392 . S
C413 C414 1.368 . S
C413 H436 0.929 . S
C414 C413 1.368 . S
C414 C415 1.386 . S
C414 H437 0.929 . S
C415 C414 1.386 . S
C415 C416 1.373 . S
C416 C415 1.373 . S
C416 C417 1.409 . S
C416 H438 0.931 . S
C417 C412 1.356 . S
C417 C416 1.409 . S
C417 H439 0.930 . S
C418 O428 1.270 . S
C418 O429 1.248 . S
C419 O430 1.267 . S
C419 O431 1.278 . S
O420 Pr400 2.562 . S
O420 C402 1.254 . S
O421 Pr400 2.490 . S
O421 C402 1.225 . S
O422 Pr400 2.695 . S
O422 Pr401 2.436 . S
O422 C409 1.270 . S
O423 Pr400 2.512 . S
O423 C409 1.248 . S
O424 Pr401 2.438 . S
O424 C410 1.267 . S
O425 Pr400 2.437 . S
O425 C410 1.278 . S
O426 Pr401 2.562 . S
O426 C411 1.254 . S
O427 Pr401 2.490 . S
O427 C411 1.225 . S
O428 Pr400 2.436 . S
O428 Pr401 2.695 . S
O428 C418 1.270 . S
O429 Pr401 2.512 . S
O429 C418 1.248 . S
O430 Pr400 2.438 . S
O430 C419 1.267 . S
O431 Pr401 2.437 . S
O431 C419 1.278 . S
H432 C404 0.929 . S
H433 C405 0.929 . S
H434 C407 0.931 . S
H435 C408 0.930 . S
H436 C413 0.929 . S
H437 C414 0.929 . S
H438 C416 0.931 . S
H439 C417 0.930 . S
Pr440 C442 2.880 . S
Pr440 O460 2.562 . S
Pr440 O461 2.490 . S
Pr440 O462 2.695 . S
Pr440 O463 2.512 . S
Pr440 O465 2.437 . S
Pr440 O468 2.436 . S
Pr440 O470 2.438 . S
Pr441 C451 2.880 . S
Pr441 O462 2.436 1_556 S
Pr441 O464 2.438 1_556 S
Pr441 O466 2.562 . S
Pr441 O467 2.490 . S
Pr441 O468 2.695 1_556 S
Pr441 O469 2.512 1_556 S
Pr441 O471 2.437 . S
C442 Pr440 2.880 . S
C442 C443 1.491 . S
C442 O460 1.254 . S
C442 O461 1.225 . S
C443 C442 1.491 . S
C443 C444 1.392 . S
C443 C448 1.356 . S
C444 C443 1.392 . S
C444 C445 1.368 . S
C444 H472 0.929 . S
C445 C444 1.368 . S
C445 C446 1.386 . S
C445 H473 0.929 . S
C446 C445 1.386 . S
C446 C447 1.373 . S
C447 C446 1.373 . S
C447 C448 1.409 . S
C447 H474 0.931 . S
C448 C443 1.356 . S
C448 C447 1.409 . S
C448 H475 0.930 . S
C449 O462 1.270 . S
C449 O463 1.248 . S
C450 O464 1.267 . S
C450 O465 1.278 . S
C451 Pr441 2.880 . S
C451 C452 1.491 . S
C451 O466 1.254 . S
C451 O467 1.225 . S
C452 C451 1.491 . S
C452 C453 1.392 . S
C452 C457 1.356 . S
C453 C452 1.392 . S
C453 C454 1.368 . S
C453 H476 0.929 . S
C454 C453 1.368 . S
C454 C455 1.386 . S
C454 H477 0.929 . S
C455 C454 1.386 . S
C455 C456 1.373 . S
C456 C455 1.373 . S
C456 C457 1.409 . S
C456 H478 0.931 . S
C457 C452 1.356 . S
C457 C456 1.409 . S
C457 H479 0.930 . S
C458 O468 1.270 . S
C458 O469 1.248 . S
C459 O470 1.267 . S
C459 O471 1.278 1_554 S
O460 Pr440 2.562 . S
O460 C442 1.254 . S
O461 Pr440 2.490 . S
O461 C442 1.225 . S
O462 Pr440 2.695 . S
O462 Pr441 2.436 1_554 S
O462 C449 1.270 . S
O463 Pr440 2.512 . S
O463 C449 1.248 . S
O464 Pr441 2.438 1_554 S
O464 C450 1.267 . S
O465 Pr440 2.437 . S
O465 C450 1.278 . S
O466 Pr441 2.562 . S
O466 C451 1.254 . S
O467 Pr441 2.490 . S
O467 C451 1.225 . S
O468 Pr440 2.436 . S
O468 Pr441 2.695 1_554 S
O468 C458 1.270 . S
O469 Pr441 2.512 1_554 S
O469 C458 1.248 . S
O470 Pr440 2.438 . S
O470 C459 1.267 . S
O471 Pr441 2.437 . S
O471 C459 1.278 1_556 S
H472 C444 0.929 . S
H473 C445 0.929 . S
H474 C447 0.931 . S
H475 C448 0.930 . S
H476 C453 0.929 . S
H477 C454 0.929 . S
H478 C456 0.931 . S
H479 C457 0.930 . S
Pr480 C482 2.880 . S
Pr480 O500 2.562 . S
Pr480 O501 2.490 . S
Pr480 O502 2.695 . S
Pr480 O503 2.512 . S
Pr480 O505 2.437 . S
Pr480 O508 2.436 . S
Pr480 O510 2.438 . S
Pr481 C491 2.880 . S
Pr481 O502 2.436 1_556 S
Pr481 O504 2.438 1_556 S
Pr481 O506 2.562 . S
Pr481 O507 2.490 . S
Pr481 O508 2.695 1_556 S
Pr481 O509 2.512 1_556 S
Pr481 O511 2.437 . S
C482 Pr480 2.880 . S
C482 C483 1.491 . S
C482 O500 1.254 . S
C482 O501 1.225 . S
C483 C482 1.491 . S
C483 C484 1.392 . S
C483 C488 1.356 . S
C484 C483 1.392 . S
C484 C485 1.368 . S
C484 H512 0.929 . S
C485 C484 1.368 . S
C485 C486 1.386 . S
C485 H513 0.929 . S
C486 C485 1.386 . S
C486 C487 1.373 . S
C487 C486 1.373 . S
C487 C488 1.409 . S
C487 H514 0.931 . S
C488 C483 1.356 . S
C488 C487 1.409 . S
C488 H515 0.930 . S
C489 O502 1.270 . S
C489 O503 1.248 . S
C490 O504 1.267 . S
C490 O505 1.278 . S
C491 Pr481 2.880 . S
C491 C492 1.491 . S
C491 O506 1.254 . S
C491 O507 1.225 . S
C492 C491 1.491 . S
C492 C493 1.392 . S
C492 C497 1.356 . S
C493 C492 1.392 . S
C493 C494 1.368 . S
C493 H516 0.929 . S
C494 C493 1.368 . S
C494 C495 1.386 . S
C494 H517 0.929 . S
C495 C494 1.386 . S
C495 C496 1.373 . S
C496 C495 1.373 . S
C496 C497 1.409 . S
C496 H518 0.931 . S
C497 C492 1.356 . S
C497 C496 1.409 . S
C497 H519 0.930 . S
C498 O508 1.270 . S
C498 O509 1.248 . S
C499 O510 1.267 . S
C499 O511 1.278 1_554 S
O500 Pr480 2.562 . S
O500 C482 1.254 . S
O501 Pr480 2.490 . S
O501 C482 1.225 . S
O502 Pr480 2.695 . S
O502 Pr481 2.436 1_554 S
O502 C489 1.270 . S
O503 Pr480 2.512 . S
O503 C489 1.248 . S
O504 Pr481 2.438 1_554 S
O504 C490 1.267 . S
O505 Pr480 2.437 . S
O505 C490 1.278 . S
O506 Pr481 2.562 . S
O506 C491 1.254 . S
O507 Pr481 2.490 . S
O507 C491 1.225 . S
O508 Pr480 2.436 . S
O508 Pr481 2.695 1_554 S
O508 C498 1.270 . S
O509 Pr481 2.512 1_554 S
O509 C498 1.248 . S
O510 Pr480 2.438 . S
O510 C499 1.267 . S
O511 Pr481 2.437 . S
O511 C499 1.278 1_556 S
H512 C484 0.929 . S
H513 C485 0.929 . S
H514 C487 0.931 . S
H515 C488 0.930 . S
H516 C493 0.929 . S
H517 C494 0.929 . S
H518 C496 0.931 . S
H519 C497 0.930 . S
Pr520 C522 2.880 . S
Pr520 O540 2.562 . S
Pr520 O541 2.490 . S
Pr520 O542 2.695 . S
Pr520 O543 2.512 . S
Pr520 O545 2.437 . S
Pr520 O548 2.436 . S
Pr520 O550 2.438 . S
Pr521 C531 2.880 . S
Pr521 O542 2.436 1_554 S
Pr521 O544 2.438 1_554 S
Pr521 O546 2.562 . S
Pr521 O547 2.490 . S
Pr521 O548 2.695 1_554 S
Pr521 O549 2.512 1_554 S
Pr521 O551 2.437 . S
C522 Pr520 2.880 . S
C522 C523 1.491 . S
C522 O540 1.254 . S
C522 O541 1.225 . S
C523 C522 1.491 . S
C523 C524 1.392 . S
C523 C528 1.356 . S
C524 C523 1.392 . S
C524 C525 1.368 . S
C524 H552 0.929 . S
C525 C524 1.368 . S
C525 C526 1.386 . S
C525 H553 0.929 . S
C526 C525 1.386 . S
C526 C527 1.373 . S
C527 C526 1.373 . S
C527 C528 1.409 . S
C527 H554 0.931 . S
C528 C523 1.356 . S
C528 C527 1.409 . S
C528 H555 0.930 . S
C529 O542 1.270 . S
C529 O543 1.248 . S
C530 O544 1.267 . S
C530 O545 1.278 . S
C531 Pr521 2.880 . S
C531 C532 1.491 . S
C531 O546 1.254 . S
C531 O547 1.225 . S
C532 C531 1.491 . S
C532 C533 1.392 . S
C532 C537 1.356 . S
C533 C532 1.392 . S
C533 C534 1.368 . S
C533 H556 0.929 . S
C534 C533 1.368 . S
C534 C535 1.386 . S
C534 H557 0.929 . S
C535 C534 1.386 . S
C535 C536 1.373 . S
C536 C535 1.373 . S
C536 C537 1.409 . S
C536 H558 0.931 . S
C537 C532 1.356 . S
C537 C536 1.409 . S
C537 H559 0.930 . S
C538 O548 1.270 . S
C538 O549 1.248 . S
C539 O550 1.267 . S
C539 O551 1.278 1_556 S
O540 Pr520 2.562 . S
O540 C522 1.254 . S
O541 Pr520 2.490 . S
O541 C522 1.225 . S
O542 Pr520 2.695 . S
O542 Pr521 2.436 1_556 S
O542 C529 1.270 . S
O543 Pr520 2.512 . S
O543 C529 1.248 . S
O544 Pr521 2.438 1_556 S
O544 C530 1.267 . S
O545 Pr520 2.437 . S
O545 C530 1.278 . S
O546 Pr521 2.562 . S
O546 C531 1.254 . S
O547 Pr521 2.490 . S
O547 C531 1.225 . S
O548 Pr520 2.436 . S
O548 Pr521 2.695 1_556 S
O548 C538 1.270 . S
O549 Pr521 2.512 1_556 S
O549 C538 1.248 . S
O550 Pr520 2.438 . S
O550 C539 1.267 . S
O551 Pr521 2.437 . S
O551 C539 1.278 1_554 S
H552 C524 0.929 . S
H553 C525 0.929 . S
H554 C527 0.931 . S
H555 C528 0.930 . S
H556 C533 0.929 . S
H557 C534 0.929 . S
H558 C536 0.931 . S
H559 C537 0.930 . S
Pr560 C562 2.880 . S
Pr560 O580 2.562 . S
Pr560 O581 2.490 . S
Pr560 O582 2.695 . S
Pr560 O583 2.512 . S
Pr560 O585 2.437 . S
Pr560 O588 2.436 . S
Pr560 O590 2.438 . S
Pr561 C571 2.880 . S
Pr561 O582 2.436 . S
Pr561 O584 2.438 . S
Pr561 O586 2.562 . S
Pr561 O587 2.490 . S
Pr561 O588 2.695 . S
Pr561 O589 2.512 . S
Pr561 O591 2.437 . S
C562 Pr560 2.880 . S
C562 C563 1.491 . S
C562 O580 1.254 . S
C562 O581 1.225 . S
C563 C562 1.491 . S
C563 C564 1.392 . S
C563 C568 1.356 . S
C564 C563 1.392 . S
C564 C565 1.368 . S
C564 H592 0.929 . S
C565 C564 1.368 . S
C565 C566 1.386 . S
C565 H593 0.929 . S
C566 C565 1.386 . S
C566 C567 1.373 . S
C567 C566 1.373 . S
C567 C568 1.409 . S
C567 H594 0.931 . S
C568 C563 1.356 . S
C568 C567 1.409 . S
C568 H595 0.930 . S
C569 O582 1.270 . S
C569 O583 1.248 . S
C570 O584 1.267 . S
C570 O585 1.278 . S
C571 Pr561 2.880 . S
C571 C572 1.491 . S
C571 O586 1.254 . S
C571 O587 1.225 . S
C572 C571 1.491 . S
C572 C573 1.392 . S
C572 C577 1.356 . S
C573 C572 1.392 . S
C573 C574 1.368 . S
C573 H596 0.929 . S
C574 C573 1.368 . S
C574 C575 1.386 . S
C574 H597 0.929 . S
C575 C574 1.386 . S
C575 C576 1.373 . S
C576 C575 1.373 . S
C576 C577 1.409 . S
C576 H598 0.931 . S
C577 C572 1.356 . S
C577 C576 1.409 . S
C577 H599 0.930 . S
C578 O588 1.270 . S
C578 O589 1.248 . S
C579 O590 1.267 . S
C579 O591 1.278 . S
O580 Pr560 2.562 . S
O580 C562 1.254 . S
O581 Pr560 2.490 . S
O581 C562 1.225 . S
O582 Pr560 2.695 . S
O582 Pr561 2.436 . S
O582 C569 1.270 . S
O583 Pr560 2.512 . S
O583 C569 1.248 . S
O584 Pr561 2.438 . S
O584 C570 1.267 . S
O585 Pr560 2.437 . S
O585 C570 1.278 . S
O586 Pr561 2.562 . S
O586 C571 1.254 . S
O587 Pr561 2.490 . S
O587 C571 1.225 . S
O588 Pr560 2.436 . S
O588 Pr561 2.695 . S
O588 C578 1.270 . S
O589 Pr561 2.512 . S
O589 C578 1.248 . S
O590 Pr560 2.438 . S
O590 C579 1.267 . S
O591 Pr561 2.437 . S
O591 C579 1.278 . S
H592 C564 0.929 . S
H593 C565 0.929 . S
H594 C567 0.931 . S
H595 C568 0.930 . S
H596 C573 0.929 . S
H597 C574 0.929 . S
H598 C576 0.931 . S
H599 C577 0.930 . S
Pr600 C602 2.880 . S
Pr600 O620 2.562 . S
Pr600 O621 2.490 . S
Pr600 O622 2.695 . S
Pr600 O623 2.512 . S
Pr600 O625 2.437 . S
Pr600 O628 2.436 . S
Pr600 O630 2.438 . S
Pr601 C611 2.880 . S
Pr601 O622 2.436 . S
Pr601 O624 2.438 . S
Pr601 O626 2.562 . S
Pr601 O627 2.490 . S
Pr601 O628 2.695 . S
Pr601 O629 2.512 . S
Pr601 O631 2.437 . S
C602 Pr600 2.880 . S
C602 C603 1.491 . S
C602 O620 1.254 . S
C602 O621 1.225 . S
C603 C602 1.491 . S
C603 C604 1.392 . S
C603 C608 1.356 . S
C604 C603 1.392 . S
C604 C605 1.368 . S
C604 H632 0.929 . S
C605 C604 1.368 . S
C605 C606 1.386 . S
C605 H633 0.929 . S
C606 C605 1.386 . S
C606 C607 1.373 . S
C607 C606 1.373 . S
C607 C608 1.409 . S
C607 H634 0.931 . S
C608 C603 1.356 . S
C608 C607 1.409 . S
C608 H635 0.930 . S
C609 O622 1.270 . S
C609 O623 1.248 . S
C610 O624 1.267 . S
C610 O625 1.278 . S
C611 Pr601 2.880 . S
C611 C612 1.491 . S
C611 O626 1.254 . S
C611 O627 1.225 . S
C612 C611 1.491 . S
C612 C613 1.392 . S
C612 C617 1.356 . S
C613 C612 1.392 . S
C613 C614 1.368 . S
C613 H636 0.929 . S
C614 C613 1.368 . S
C614 C615 1.386 . S
C614 H637 0.929 . S
C615 C614 1.386 . S
C615 C616 1.373 . S
C616 C615 1.373 . S
C616 C617 1.409 . S
C616 H638 0.931 . S
C617 C612 1.356 . S
C617 C616 1.409 . S
C617 H639 0.930 . S
C618 O628 1.270 . S
C618 O629 1.248 . S
C619 O630 1.267 . S
C619 O631 1.278 . S
O620 Pr600 2.562 . S
O620 C602 1.254 . S
O621 Pr600 2.490 . S
O621 C602 1.225 . S
O622 Pr600 2.695 . S
O622 Pr601 2.436 . S
O622 C609 1.270 . S
O623 Pr600 2.512 . S
O623 C609 1.248 . S
O624 Pr601 2.438 . S
O624 C610 1.267 . S
O625 Pr600 2.437 . S
O625 C610 1.278 . S
O626 Pr601 2.562 . S
O626 C611 1.254 . S
O627 Pr601 2.490 . S
O627 C611 1.225 . S
O628 Pr600 2.436 . S
O628 Pr601 2.695 . S
O628 C618 1.270 . S
O629 Pr601 2.512 . S
O629 C618 1.248 . S
O630 Pr600 2.438 . S
O630 C619 1.267 . S
O631 Pr601 2.437 . S
O631 C619 1.278 . S
H632 C604 0.929 . S
H633 C605 0.929 . S
H634 C607 0.931 . S
H635 C608 0.930 . S
H636 C613 0.929 . S
H637 C614 0.929 . S
H638 C616 0.931 . S
H639 C617 0.930 . S
C640 C641 1.387 . S
C640 H644 0.950 . S
C640 C649 1.390 . S
C641 C640 1.387 . S
C641 C643 1.387 . S
H642 C649 0.950 . S
C643 C641 1.387 . S
C643 C645 1.390 . S
C643 H647 0.950 . S
H644 C640 0.950 . S
C645 C643 1.390 . S
C645 C646 1.387 . S
C645 H648 0.950 . S
C646 C645 1.387 . S
C646 C649 1.387 . S
H647 C643 0.950 . S
H648 C645 0.950 . S
C649 C640 1.390 . S
C649 H642 0.950 . S
C649 C646 1.387 . S
C650 C651 1.387 . S
C650 H654 0.950 . S
C650 C659 1.390 . S
C651 C650 1.387 . S
C651 C653 1.387 . S
H652 C659 0.950 . S
C653 C651 1.387 . S
C653 C655 1.390 . S
C653 H657 0.950 . S
H654 C650 0.950 . S
C655 C653 1.390 . S
C655 C656 1.387 . S
C655 H658 0.950 . S
C656 C655 1.387 . S
C656 C659 1.387 . S
H657 C653 0.950 . S
H658 C655 0.950 . S
C659 C650 1.390 . S
C659 H652 0.950 . S
C659 C656 1.387 . S
C660 C661 1.387 . S
C660 H664 0.950 . S
C660 C669 1.390 . S
C661 C660 1.387 . S
C661 C663 1.387 . S
H662 C669 0.950 1_556 S
C663 C661 1.387 . S
C663 C665 1.390 . S
C663 H667 0.950 . S
H664 C660 0.950 . S
C665 C663 1.390 . S
C665 C666 1.387 . S
C665 H668 0.950 . S
C666 C665 1.387 . S
C666 C669 1.387 . S
H667 C663 0.950 . S
H668 C665 0.950 . S
C669 C660 1.390 . S
C669 H662 0.950 1_554 S
C669 C666 1.387 . S
C670 C671 1.387 . S
C670 H674 0.950 . S
C670 C679 1.390 . S
C671 C670 1.387 . S
C671 C673 1.387 . S
H672 C679 0.950 . S
C673 C671 1.387 . S
C673 C675 1.390 . S
C673 H677 0.950 . S
H674 C670 0.950 . S
C675 C673 1.390 . S
C675 C676 1.387 . S
C675 H678 0.950 . S
C676 C675 1.387 . S
C676 C679 1.387 . S
H677 C673 0.950 . S
H678 C675 0.950 . S
C679 C670 1.390 . S
C679 H672 0.950 . S
C679 C676 1.387 . S
C680 C681 1.387 . S
C680 H684 0.950 . S
C680 C689 1.390 . S
C681 C680 1.387 . S
C681 C683 1.387 . S
H682 C689 0.950 . S
C683 C681 1.387 . S
C683 C685 1.390 . S
C683 H687 0.950 . S
H684 C680 0.950 . S
C685 C683 1.390 . S
C685 C686 1.387 . S
C685 H688 0.950 . S
C686 C685 1.387 . S
C686 C689 1.387 . S
H687 C683 0.950 . S
H688 C685 0.950 . S
C689 C680 1.390 . S
C689 H682 0.950 . S
C689 C686 1.387 . S
C690 C691 1.387 . S
C690 H694 0.950 . S
C690 C699 1.390 . S
C691 C690 1.387 . S
C691 C693 1.387 . S
H692 C699 0.950 . S
C693 C691 1.387 . S
C693 C695 1.390 . S
C693 H697 0.950 . S
H694 C690 0.950 . S
C695 C693 1.390 . S
C695 C696 1.387 . S
C695 H698 0.950 . S
C696 C695 1.387 . S
C696 C699 1.387 . S
H697 C693 0.950 . S
H698 C695 0.950 . S
C699 C690 1.390 . S
C699 H692 0.950 . S
C699 C696 1.387 . S
C700 C701 1.387 . S
C700 H704 0.950 . S
C700 C709 1.390 . S
C701 C700 1.387 . S
C701 C703 1.387 . S
H702 C709 0.950 1_554 S
C703 C701 1.387 . S
C703 C705 1.390 . S
C703 H707 0.950 . S
H704 C700 0.950 . S
C705 C703 1.390 . S
C705 C706 1.387 . S
C705 H708 0.950 . S
C706 C705 1.387 . S
C706 C709 1.387 . S
H707 C703 0.950 . S
H708 C705 0.950 . S
C709 C700 1.390 . S
C709 H702 0.950 1_556 S
C709 C706 1.387 . S
C710 C711 1.387 . S
C710 H714 0.950 1_554 S
C710 C719 1.390 . S
C711 C710 1.387 . S
C711 C713 1.387 . S
H712 C719 0.950 . S
C713 C711 1.387 . S
C713 C715 1.390 . S
C713 H717 0.950 . S
H714 C710 0.950 1_556 S
C715 C713 1.390 . S
C715 C716 1.387 . S
C715 H718 0.950 . S
C716 C715 1.387 . S
C716 C719 1.387 . S
H717 C713 0.950 . S
H718 C715 0.950 . S
C719 C710 1.390 . S
C719 H712 0.950 . S
C719 C716 1.387 . S
C720 C721 1.387 . S
C720 H724 0.950 . S
C720 C729 1.390 . S
C721 C720 1.387 . S
C721 C723 1.387 . S
H722 C729 0.950 . S
C723 C721 1.387 . S
C723 C725 1.390 . S
C723 H727 0.950 . S
H724 C720 0.950 . S
C725 C723 1.390 . S
C725 C726 1.387 . S
C725 H728 0.950 . S
C726 C725 1.387 . S
C726 C729 1.387 . S
H727 C723 0.950 . S
H728 C725 0.950 . S
C729 C720 1.390 . S
C729 H722 0.950 . S
C729 C726 1.387 . S
C730 C731 1.387 . S
C730 H734 0.950 . S
C730 C739 1.390 . S
C731 C730 1.387 . S
C731 C733 1.387 . S
H732 C739 0.950 . S
C733 C731 1.387 . S
C733 C735 1.390 . S
C733 H737 0.950 . S
H734 C730 0.950 . S
C735 C733 1.390 . S
C735 C736 1.387 . S
C735 H738 0.950 . S
C736 C735 1.387 . S
C736 C739 1.387 . S
H737 C733 0.950 . S
H738 C735 0.950 . S
C739 C730 1.390 . S
C739 H732 0.950 . S
C739 C736 1.387 . S
C740 C741 1.387 . S
C740 H744 0.950 . S
C740 C749 1.390 . S
C741 C740 1.387 . S
C741 C743 1.387 . S
H742 C749 0.950 . S
C743 C741 1.387 . S
C743 C745 1.390 . S
C743 H747 0.950 . S
H744 C740 0.950 . S
C745 C743 1.390 . S
C745 C746 1.387 . S
C745 H748 0.950 . S
C746 C745 1.387 . S
C746 C749 1.387 . S
H747 C743 0.950 . S
H748 C745 0.950 . S
C749 C740 1.390 . S
C749 H742 0.950 . S
C749 C746 1.387 . S
C750 C751 1.387 . S
C750 H754 0.950 . S
C750 C759 1.390 . S
C751 C750 1.387 . S
C751 C753 1.387 . S
H752 C759 0.950 . S
C753 C751 1.387 . S
C753 C755 1.390 . S
C753 H757 0.950 . S
H754 C750 0.950 . S
C755 C753 1.390 . S
C755 C756 1.387 . S
C755 H758 0.950 . S
C756 C755 1.387 . S
C756 C759 1.387 . S
H757 C753 0.950 . S
H758 C755 0.950 . S
C759 C750 1.390 . S
C759 H752 0.950 . S
C759 C756 1.387 . S
C760 C761 1.387 . S
C760 H764 0.950 . S
C760 C769 1.390 . S
C761 C760 1.387 . S
C761 C763 1.387 . S
H762 C769 0.950 . S
C763 C761 1.387 . S
C763 C765 1.390 . S
C763 H767 0.950 . S
H764 C760 0.950 . S
C765 C763 1.390 . S
C765 C766 1.387 . S
C765 H768 0.950 . S
C766 C765 1.387 . S
C766 C769 1.387 . S
H767 C763 0.950 . S
H768 C765 0.950 . S
C769 C760 1.390 . S
C769 H762 0.950 . S
C769 C766 1.387 . S
C770 C771 1.387 . S
C770 H774 0.950 . S
C770 C779 1.390 . S
C771 C770 1.387 . S
C771 C773 1.387 . S
H772 C779 0.950 . S
C773 C771 1.387 . S
C773 C775 1.390 . S
C773 H777 0.950 . S
H774 C770 0.950 . S
C775 C773 1.390 . S
C775 C776 1.387 . S
C775 H778 0.950 . S
C776 C775 1.387 . S
C776 C779 1.387 . S
H777 C773 0.950 . S
H778 C775 0.950 . S
C779 C770 1.390 . S
C779 H772 0.950 . S
C779 C776 1.387 . S
C780 C781 1.387 . S
C780 H784 0.950 . S
C780 C789 1.390 . S
C781 C780 1.387 . S
C781 C783 1.387 . S
H782 C789 0.950 . S
C783 C781 1.387 . S
C783 C785 1.390 . S
C783 H787 0.950 . S
H784 C780 0.950 . S
C785 C783 1.390 . S
C785 C786 1.387 . S
C785 H788 0.950 . S
C786 C785 1.387 . S
C786 C789 1.387 . S
H787 C783 0.950 . S
H788 C785 0.950 . S
C789 C780 1.390 . S
C789 H782 0.950 . S
C789 C786 1.387 . S
C790 C791 1.387 . S
C790 H794 0.950 . S
C790 C799 1.390 . S
C791 C790 1.387 . S
C791 C793 1.387 . S
H792 C799 0.950 . S
C793 C791 1.387 . S
C793 C795 1.390 . S
C793 H797 0.950 . S
H794 C790 0.950 . S
C795 C793 1.390 . S
C795 C796 1.387 . S
C795 H798 0.950 . S
C796 C795 1.387 . S
C796 C799 1.387 . S
H797 C793 0.950 . S
H798 C795 0.950 . S
C799 C790 1.390 . S
C799 H792 0.950 . S
C799 C796 1.387 . S
C800 C801 1.387 . S
C800 H804 0.950 . S
C800 C809 1.390 . S
C801 C800 1.387 . S
C801 C803 1.387 . S
H802 C809 0.950 . S
C803 C801 1.387 . S
C803 C805 1.390 . S
C803 H807 0.950 . S
H804 C800 0.950 . S
C805 C803 1.390 . S
C805 C806 1.387 . S
C805 H808 0.950 . S
C806 C805 1.387 . S
C806 C809 1.387 . S
H807 C803 0.950 . S
H808 C805 0.950 . S
C809 C800 1.390 . S
C809 H802 0.950 . S
C809 C806 1.387 . S
C810 C811 1.387 . S
C810 H814 0.950 . S
C810 C819 1.390 . S
C811 C810 1.387 . S
C811 C813 1.387 . S
H812 C819 0.950 . S
C813 C811 1.387 . S
C813 C815 1.390 . S
C813 H817 0.950 . S
H814 C810 0.950 . S
C815 C813 1.390 . S
C815 C816 1.387 . S
C815 H818 0.950 . S
C816 C815 1.387 . S
C816 C819 1.387 . S
H817 C813 0.950 . S
H818 C815 0.950 . S
C819 C810 1.390 . S
C819 H812 0.950 . S
C819 C816 1.387 . S
C820 C821 1.387 . S
C820 H824 0.950 . S
C820 C829 1.390 . S
C821 C820 1.387 . S
C821 C823 1.387 . S
H822 C829 0.950 . S
C823 C821 1.387 . S
C823 C825 1.390 . S
C823 H827 0.950 . S
H824 C820 0.950 . S
C825 C823 1.390 . S
C825 C826 1.387 . S
C825 H828 0.950 . S
C826 C825 1.387 . S
C826 C829 1.387 . S
H827 C823 0.950 . S
H828 C825 0.950 . S
C829 C820 1.390 . S
C829 H822 0.950 . S
C829 C826 1.387 . S
C830 C831 1.387 . S
C830 H834 0.950 . S
C830 C839 1.390 1_655 S
C831 C830 1.387 . S
C831 C833 1.387 1_554 S
H832 C839 0.950 . S
C833 C831 1.387 1_556 S
C833 C835 1.390 1_655 S
C833 H837 0.950 . S
H834 C830 0.950 . S
C835 C833 1.390 1_455 S
C835 C836 1.387 1_556 S
C835 H838 0.950 . S
C836 C835 1.387 1_554 S
C836 C839 1.387 . S
H837 C833 0.950 . S
H838 C835 0.950 . S
C839 C830 1.390 1_455 S
C839 H832 0.950 . S
C839 C836 1.387 . S
C840 C841 1.387 . S
C840 H844 0.950 . S
C840 C849 1.390 . S
C841 C840 1.387 . S
C841 C843 1.387 . S
H842 C849 0.950 . S
C843 C841 1.387 . S
C843 C845 1.390 . S
C843 H847 0.950 . S
H844 C840 0.950 . S
C845 C843 1.390 . S
C845 C846 1.387 . S
C845 H848 0.950 . S
C846 C845 1.387 . S
C846 C849 1.387 . S
H847 C843 0.950 . S
H848 C845 0.950 . S
C849 C840 1.390 . S
C849 H842 0.950 . S
C849 C846 1.387 . S
C850 C851 1.387 1_554 S
C850 H854 0.950 . S
C850 C859 1.390 1_455 S
C851 C850 1.387 1_556 S
C851 C853 1.387 . S
H852 C859 0.950 . S
C853 C851 1.387 . S
C853 C855 1.390 1_455 S
C853 H857 0.950 . S
H854 C850 0.950 . S
C855 C853 1.390 1_655 S
C855 C856 1.387 . S
C855 H858 0.950 . S
C856 C855 1.387 . S
C856 C859 1.387 1_556 S
H857 C853 0.950 . S
H858 C855 0.950 . S
C859 C850 1.390 1_655 S
C859 H852 0.950 . S
C859 C856 1.387 1_554 S
C860 C861 1.387 . S
C860 H864 0.950 . S
C860 C869 1.390 . S
C861 C860 1.387 . S
C861 C863 1.387 . S
H862 C869 0.950 . S
C863 C861 1.387 . S
C863 C865 1.390 . S
C863 H867 0.950 . S
H864 C860 0.950 . S
C865 C863 1.390 . S
C865 C866 1.387 . S
C865 H868 0.950 . S
C866 C865 1.387 . S
C866 C869 1.387 . S
H867 C863 0.950 . S
H868 C865 0.950 . S
C869 C860 1.390 . S
C869 H862 0.950 . S
C869 C866 1.387 . S
C870 C871 1.387 . S
C870 H874 0.950 . S
C870 C879 1.390 . S
C871 C870 1.387 . S
C871 C873 1.387 . S
H872 C879 0.950 . S
C873 C871 1.387 . S
C873 C875 1.390 . S
C873 H877 0.950 . S
H874 C870 0.950 . S
C875 C873 1.390 . S
C875 C876 1.387 . S
C875 H878 0.950 . S
C876 C875 1.387 . S
C876 C879 1.387 . S
H877 C873 0.950 . S
H878 C875 0.950 . S
C879 C870 1.390 . S
C879 H872 0.950 . S
C879 C876 1.387 . S
C880 C881 1.387 . S
C880 H884 0.950 . S
C880 C889 1.390 . S
C881 C880 1.387 . S
C881 C883 1.387 . S
H882 C889 0.950 . S
C883 C881 1.387 . S
C883 C885 1.390 . S
C883 H887 0.950 . S
H884 C880 0.950 . S
C885 C883 1.390 . S
C885 C886 1.387 . S
C885 H888 0.950 . S
C886 C885 1.387 . S
C886 C889 1.387 . S
H887 C883 0.950 . S
H888 C885 0.950 . S
C889 C880 1.390 . S
C889 H882 0.950 . S
C889 C886 1.387 . S
C890 C891 1.387 . S
C890 H894 0.950 . S
C890 C899 1.390 . S
C891 C890 1.387 . S
C891 C893 1.387 . S
H892 C899 0.950 . S
C893 C891 1.387 . S
C893 C895 1.390 . S
C893 H897 0.950 . S
H894 C890 0.950 . S
C895 C893 1.390 . S
C895 C896 1.387 . S
C895 H898 0.950 . S
C896 C895 1.387 . S
C896 C899 1.387 . S
H897 C893 0.950 . S
H898 C895 0.950 . S
C899 C890 1.390 . S
C899 H892 0.950 . S
C899 C896 1.387 . S
C900 C901 1.387 . S
C900 H904 0.950 . S
C900 C909 1.390 . S
C901 C900 1.387 . S
C901 C903 1.387 . S
H902 C909 0.950 . S
C903 C901 1.387 . S
C903 C905 1.390 . S
C903 H907 0.950 . S
H904 C900 0.950 . S
C905 C903 1.390 . S
C905 C906 1.387 . S
C905 H908 0.950 . S
C906 C905 1.387 . S
C906 C909 1.387 . S
H907 C903 0.950 . S
H908 C905 0.950 . S
C909 C900 1.390 . S
C909 H902 0.950 . S
C909 C906 1.387 . S
C910 C911 1.387 . S
C910 H914 0.950 . S
C910 C919 1.390 . S
C911 C910 1.387 . S
C911 C913 1.387 . S
H912 C919 0.950 . S
C913 C911 1.387 . S
C913 C915 1.390 . S
C913 H917 0.950 . S
H914 C910 0.950 . S
C915 C913 1.390 . S
C915 C916 1.387 . S
C915 H918 0.950 . S
C916 C915 1.387 . S
C916 C919 1.387 . S
H917 C913 0.950 . S
H918 C915 0.950 . S
C919 C910 1.390 . S
C919 H912 0.950 . S
C919 C916 1.387 . S
C920 C921 1.387 . S
C920 H924 0.950 . S
C920 C929 1.390 1_655 S
C921 C920 1.387 . S
C921 C923 1.387 1_554 S
H922 C929 0.950 . S
C923 C921 1.387 1_556 S
C923 C925 1.390 1_655 S
C923 H927 0.950 . S
H924 C920 0.950 . S
C925 C923 1.390 1_455 S
C925 C926 1.387 1_556 S
C925 H928 0.950 . S
C926 C925 1.387 1_554 S
C926 C929 1.387 . S
H927 C923 0.950 . S
H928 C925 0.950 . S
C929 C920 1.390 1_455 S
C929 H922 0.950 . S
C929 C926 1.387 . S
C930 C931 1.387 . S
C930 H934 0.950 . S
C930 C939 1.390 . S
C931 C930 1.387 . S
C931 C933 1.387 . S
H932 C939 0.950 . S
C933 C931 1.387 . S
C933 C935 1.390 . S
C933 H937 0.950 . S
H934 C930 0.950 . S
C935 C933 1.390 . S
C935 C936 1.387 . S
C935 H938 0.950 . S
C936 C935 1.387 . S
C936 C939 1.387 . S
H937 C933 0.950 . S
H938 C935 0.950 . S
C939 C930 1.390 . S
C939 H932 0.950 . S
C939 C936 1.387 . S
C940 C941 1.387 . S
C940 H944 0.950 . S
C940 C949 1.390 . S
C941 C940 1.387 . S
C941 C943 1.387 . S
H942 C949 0.950 . S
C943 C941 1.387 . S
C943 C945 1.390 . S
C943 H947 0.950 . S
H944 C940 0.950 . S
C945 C943 1.390 . S
C945 C946 1.387 . S
C945 H948 0.950 . S
C946 C945 1.387 . S
C946 C949 1.387 . S
H947 C943 0.950 . S
H948 C945 0.950 . S
C949 C940 1.390 . S
C949 H942 0.950 . S
C949 C946 1.387 . S
C950 C951 1.387 . S
C950 H954 0.950 . S
C950 C959 1.390 1_455 S
C951 C950 1.387 . S
C951 C953 1.387 1_556 S
H952 C959 0.950 . S
C953 C951 1.387 1_554 S
C953 C955 1.390 1_455 S
C953 H957 0.950 . S
H954 C950 0.950 . S
C955 C953 1.390 1_655 S
C955 C956 1.387 1_554 S
C955 H958 0.950 . S
C956 C955 1.387 1_556 S
C956 C959 1.387 . S
H957 C953 0.950 . S
H958 C955 0.950 . S
C959 C950 1.390 1_655 S
C959 H952 0.950 . S
C959 C956 1.387 . S
C960 C961 1.387 . S
C960 H964 0.950 . S
C960 C969 1.390 1_554 S
C961 C960 1.387 . S
C961 C963 1.387 . S
H962 C969 0.950 . S
C963 C961 1.387 . S
C963 C965 1.390 1_554 S
C963 H967 0.950 . S
H964 C960 0.950 . S
C965 C963 1.390 1_556 S
C965 C966 1.387 . S
C965 H968 0.950 . S
C966 C965 1.387 . S
C966 C969 1.387 . S
H967 C963 0.950 . S
H968 C965 0.950 . S
C969 C960 1.390 1_556 S
C969 H962 0.950 . S
C969 C966 1.387 . S
C970 C971 1.387 . S
C970 H974 0.950 . S
C970 C979 1.390 . S
C971 C970 1.387 . S
C971 C973 1.387 . S
H972 C979 0.950 . S
C973 C971 1.387 . S
C973 C975 1.390 . S
C973 H977 0.950 . S
H974 C970 0.950 . S
C975 C973 1.390 . S
C975 C976 1.387 . S
C975 H978 0.950 . S
C976 C975 1.387 . S
C976 C979 1.387 . S
H977 C973 0.950 . S
H978 C975 0.950 . S
C979 C970 1.390 . S
C979 H972 0.950 . S
C979 C976 1.387 . S
C980 C981 1.387 . S
C980 H984 0.950 . S
C980 C989 1.390 . S
C981 C980 1.387 . S
C981 C983 1.387 . S
H982 C989 0.950 . S
C983 C981 1.387 . S
C983 C985 1.390 . S
C983 H987 0.950 . S
H984 C980 0.950 . S
C985 C983 1.390 . S
C985 C986 1.387 . S
C985 H988 0.950 . S
C986 C985 1.387 . S
C986 C989 1.387 . S
H987 C983 0.950 . S
H988 C985 0.950 . S
C989 C980 1.390 . S
C989 H982 0.950 . S
C989 C986 1.387 . S
C990 C991 1.387 . S
C990 H994 0.950 . S
C990 C999 1.390 . S
C991 C990 1.387 . S
C991 C993 1.387 . S
H992 C999 0.950 . S
C993 C991 1.387 . S
C993 C995 1.390 . S
C993 H997 0.950 . S
H994 C990 0.950 . S
C995 C993 1.390 . S
C995 C996 1.387 . S
C995 H998 0.950 . S
C996 C995 1.387 . S
C996 C999 1.387 . S
H997 C993 0.950 . S
H998 C995 0.950 . S
C999 C990 1.390 . S
C999 H992 0.950 . S
C999 C996 1.387 . S
C1000 C1001 1.387 . S
C1000 H1004 0.950 . S
C1000 C1009 1.390 1_554 S
C1001 C1000 1.387 . S
C1001 C1003 1.387 . S
H1002 C1009 0.950 . S
C1003 C1001 1.387 . S
C1003 C1005 1.390 1_554 S
C1003 H1007 0.950 . S
H1004 C1000 0.950 . S
C1005 C1003 1.390 1_556 S
C1005 C1006 1.387 . S
C1005 H1008 0.950 . S
C1006 C1005 1.387 . S
C1006 C1009 1.387 . S
H1007 C1003 0.950 . S
H1008 C1005 0.950 . S
C1009 C1000 1.390 1_556 S
C1009 H1002 0.950 . S
C1009 C1006 1.387 . S
C1010 C1011 1.387 . S
C1010 H1014 0.950 . S
C1010 C1019 1.390 . S
C1011 C1010 1.387 . S
C1011 C1013 1.387 . S
H1012 C1019 0.950 . S
C1013 C1011 1.387 . S
C1013 C1015 1.390 . S
C1013 H1017 0.950 . S
H1014 C1010 0.950 . S
C1015 C1013 1.390 . S
C1015 C1016 1.387 . S
C1015 H1018 0.950 . S
C1016 C1015 1.387 . S
C1016 C1019 1.387 . S
H1017 C1013 0.950 . S
H1018 C1015 0.950 . S
C1019 C1010 1.390 . S
C1019 H1012 0.950 . S
C1019 C1016 1.387 . S
C1020 C1021 1.387 . S
C1020 H1024 0.950 . S
C1020 C1029 1.390 . S
C1021 C1020 1.387 . S
C1021 C1023 1.387 . S
H1022 C1029 0.950 . S
C1023 C1021 1.387 . S
C1023 C1025 1.390 . S
C1023 H1027 0.950 . S
H1024 C1020 0.950 . S
C1025 C1023 1.390 . S
C1025 C1026 1.387 . S
C1025 H1028 0.950 . S
C1026 C1025 1.387 . S
C1026 C1029 1.387 . S
H1027 C1023 0.950 . S
H1028 C1025 0.950 . S
C1029 C1020 1.390 . S
C1029 H1022 0.950 . S
C1029 C1026 1.387 . S
C1030 C1031 1.387 . S
C1030 H1034 0.950 . S
C1030 C1039 1.390 . S
C1031 C1030 1.387 . S
C1031 C1033 1.387 . S
H1032 C1039 0.950 . S
C1033 C1031 1.387 . S
C1033 C1035 1.390 . S
C1033 H1037 0.950 . S
H1034 C1030 0.950 . S
C1035 C1033 1.390 . S
C1035 C1036 1.387 . S
C1035 H1038 0.950 . S
C1036 C1035 1.387 . S
C1036 C1039 1.387 . S
H1037 C1033 0.950 . S
H1038 C1035 0.950 . S
C1039 C1030 1.390 . S
C1039 H1032 0.950 . S
C1039 C1036 1.387 . S
C1040 C1041 1.387 . S
C1040 H1044 0.950 . S
C1040 C1049 1.390 1_565 S
C1041 C1040 1.387 . S
C1041 C1043 1.387 . S
H1042 C1049 0.950 . S
C1043 C1041 1.387 . S
C1043 C1045 1.390 1_565 S
C1043 H1047 0.950 . S
H1044 C1040 0.950 . S
C1045 C1043 1.390 1_545 S
C1045 C1046 1.387 . S
C1045 H1048 0.950 . S
C1046 C1045 1.387 . S
C1046 C1049 1.387 . S
H1047 C1043 0.950 . S
H1048 C1045 0.950 . S
C1049 C1040 1.390 1_545 S
C1049 H1042 0.950 . S
C1049 C1046 1.387 . S
C1050 C1051 1.387 . S
C1050 H1054 0.950 . S
C1050 C1059 1.390 . S
C1051 C1050 1.387 . S
C1051 C1053 1.387 . S
H1052 C1059 0.950 . S
C1053 C1051 1.387 . S
C1053 C1055 1.390 . S
C1053 H1057 0.950 . S
H1054 C1050 0.950 . S
C1055 C1053 1.390 . S
C1055 C1056 1.387 . S
C1055 H1058 0.950 . S
C1056 C1055 1.387 . S
C1056 C1059 1.387 . S
H1057 C1053 0.950 . S
H1058 C1055 0.950 . S
C1059 C1050 1.390 . S
C1059 H1052 0.950 . S
C1059 C1056 1.387 . S
C1060 C1061 1.387 . S
C1060 H1064 0.950 . S
C1060 C1069 1.390 1_564 S
C1061 C1060 1.387 . S
C1061 C1063 1.387 . S
H1062 C1069 0.950 . S
C1063 C1061 1.387 . S
C1063 C1065 1.390 1_564 S
C1063 H1067 0.950 . S
H1064 C1060 0.950 . S
C1065 C1063 1.390 1_546 S
C1065 C1066 1.387 . S
C1065 H1068 0.950 . S
C1066 C1065 1.387 . S
C1066 C1069 1.387 . S
H1067 C1063 0.950 . S
H1068 C1065 0.950 . S
C1069 C1060 1.390 1_546 S
C1069 H1062 0.950 . S
C1069 C1066 1.387 . S
C1070 C1071 1.387 . S
C1070 H1074 0.950 . S
C1070 C1079 1.390 . S
C1071 C1070 1.387 . S
C1071 C1073 1.387 . S
H1072 C1079 0.950 . S
C1073 C1071 1.387 . S
C1073 C1075 1.390 . S
C1073 H1077 0.950 . S
H1074 C1070 0.950 . S
C1075 C1073 1.390 . S
C1075 C1076 1.387 . S
C1075 H1078 0.950 . S
C1076 C1075 1.387 . S
C1076 C1079 1.387 . S
H1077 C1073 0.950 . S
H1078 C1075 0.950 . S
C1079 C1070 1.390 . S
C1079 H1072 0.950 . S
C1079 C1076 1.387 . S
C1080 C1081 1.387 . S
C1080 H1084 0.950 . S
C1080 C1089 1.390 1_565 S
C1081 C1080 1.387 . S
C1081 C1083 1.387 . S
H1082 C1089 0.950 . S
C1083 C1081 1.387 . S
C1083 C1085 1.390 1_565 S
C1083 H1087 0.950 . S
H1084 C1080 0.950 . S
C1085 C1083 1.390 1_545 S
C1085 C1086 1.387 . S
C1085 H1088 0.950 . S
C1086 C1085 1.387 . S
C1086 C1089 1.387 . S
H1087 C1083 0.950 . S
H1088 C1085 0.950 . S
C1089 C1080 1.390 1_545 S
C1089 H1082 0.950 . S
C1089 C1086 1.387 . S
C1090 C1091 1.387 . S
C1090 H1094 0.950 . S
C1090 C1099 1.390 . S
C1091 C1090 1.387 . S
C1091 C1093 1.387 . S
H1092 C1099 0.950 . S
C1093 C1091 1.387 . S
C1093 C1095 1.390 . S
C1093 H1097 0.950 . S
H1094 C1090 0.950 . S
C1095 C1093 1.390 . S
C1095 C1096 1.387 . S
C1095 H1098 0.950 . S
C1096 C1095 1.387 . S
C1096 C1099 1.387 . S
H1097 C1093 0.950 . S
H1098 C1095 0.950 . S
C1099 C1090 1.390 . S
C1099 H1092 0.950 . S
C1099 C1096 1.387 . S
C1100 C1101 1.387 . S
C1100 H1104 0.950 . S
C1100 C1109 1.390 1_546 S
C1101 C1100 1.387 . S
C1101 C1103 1.387 . S
H1102 C1109 0.950 . S
C1103 C1101 1.387 . S
C1103 C1105 1.390 1_546 S
C1103 H1107 0.950 . S
H1104 C1100 0.950 . S
C1105 C1103 1.390 1_564 S
C1105 C1106 1.387 . S
C1105 H1108 0.950 . S
C1106 C1105 1.387 . S
C1106 C1109 1.387 . S
H1107 C1103 0.950 . S
H1108 C1105 0.950 . S
C1109 C1100 1.390 1_564 S
C1109 H1102 0.950 . S
C1109 C1106 1.387 . S
C1110 C1111 1.387 . S
C1110 H1114 0.950 . S
C1110 C1119 1.390 . S
C1111 C1110 1.387 . S
C1111 C1113 1.387 . S
H1112 C1119 0.950 . S
C1113 C1111 1.387 . S
C1113 C1115 1.390 . S
C1113 H1117 0.950 . S
H1114 C1110 0.950 . S
C1115 C1113 1.390 . S
C1115 C1116 1.387 . S
C1115 H1118 0.950 . S
C1116 C1115 1.387 . S
C1116 C1119 1.387 . S
H1117 C1113 0.950 . S
H1118 C1115 0.950 . S
C1119 C1110 1.390 . S
C1119 H1112 0.950 . S
C1119 C1116 1.387 . S
C641 C6 1.598 . S
C646 C15 1.598 . S
C651 C55 1.598 1_556 S
C656 C46 1.598 . S
C661 C86 1.599 . S
C666 C95 1.599 1_554 S
C671 C135 1.598 . S
C676 C126 1.598 . S
C681 C166 1.601 . S
C686 C175 1.601 . S
C691 C206 1.598 . S
C696 C215 1.598 . S
C701 C246 1.601 . S
C706 C255 1.601 1_556 S
C711 C295 1.598 1_554 S
C716 C286 1.598 . S
C721 C335 1.601 . S
C726 C326 1.601 . S
C731 C375 1.601 . S
C736 C366 1.601 1_554 S
C741 C406 1.601 1_556 S
C746 C415 1.601 . S
C751 C446 1.598 . S
C756 C455 1.598 . S
C761 C495 1.598 . S
C766 C486 1.598 . S
C771 C526 1.598 . S
C776 C535 1.598 . S
C781 C575 1.598 . S
C786 C566 1.598 1_554 S
C791 C606 1.601 1_556 S
C796 C615 1.601 . S
C801 C9 1.482 . S
C806 C458 1.481 . S
C811 C50 2.056 . S
C816 C619 2.055 . S
C821 C89 1.483 . S
C826 C378 1.480 . S
C831 C130 2.055 1_554 S
C836 C539 2.057 1_554 S
C841 C169 1.483 . S
C846 C538 1.480 . S
C851 C459 2.054 1_556 S
C856 C210 2.057 1_556 S
C861 C249 1.482 . S
C866 C618 1.480 . S
C871 C290 2.057 . S
C876 C379 2.055 . S
C881 C129 1.483 . S
C886 C338 1.480 . S
C891 C49 1.481 . S
C896 C418 1.482 . S
C901 C498 1.480 . S
C906 C209 1.483 . S
C911 C289 1.483 . S
C916 C578 1.480 . S
C921 C339 2.056 1_554 S
C926 C170 2.056 1_554 S
C931 C250 2.054 . S
C936 C419 2.057 . S
C941 C90 2.057 . S
C946 C579 2.055 . S
C951 C10 2.056 1_556 S
C956 C499 2.055 1_556 S
C961 C18 1.628 . S
C966 C178 1.628 . S
C971 C59 2.110 . S
C976 C219 2.110 . S
C981 C98 1.628 . S
C986 C258 1.628 . S
C991 C139 2.110 . S
C996 C299 2.110 . S
C1001 C489 1.628 . S
C1006 C329 1.628 . S
C1011 C530 2.110 . S
C1016 C370 2.110 . S
C1021 C409 1.628 . S
C1026 C569 1.628 . S
C1031 C610 2.110 . S
C1036 C450 2.110 . S
C1041 C58 1.628 . S
C1046 C298 1.628 . S
C1051 C179 2.110 . S
C1056 C99 2.110 . S
C1061 C218 1.628 . S
C1066 C138 1.628 . S
C1071 C19 2.108 . S
C1076 C259 2.108 . S
C1081 C609 1.628 . S
C1086 C369 1.628 . S
C1091 C490 2.108 . S
C1096 C410 2.108 . S
C1101 C529 1.628 . S
C1106 C449 1.628 . S
C1111 C570 2.108 . S
C1116 C330 2.108 . S
