# Generated by pormake.
# Topology wls, (5)-cn, num edge types: 1
# Building blocks:
#     Node 0, Type 0, BuildingBlock: BEQFEK_clean_sbu_0, # of connection points: 5
#     Node 1, Type 0, BuildingBlock: BEQFEK_clean_sbu_0, # of connection points: 5
#     Node 2, Type 0, BuildingBlock: BEQFEK_clean_sbu_0, # of connection points: 5
#     Node 3, Type 0, BuildingBlock: BEQFEK_clean_sbu_0, # of connection points: 5
#     Node 4, Type 0, BuildingBlock: BEQFEK_clean_sbu_0, # of connection points: 5
#     Node 5, Type 0, BuildingBlock: BEQFEK_clean_sbu_0, # of connection points: 5
#     Node 6, Type 0, BuildingBlock: BEQFEK_clean_sbu_0, # of connection points: 5
#     Node 7, Type 0, BuildingBlock: BEQFEK_clean_sbu_0, # of connection points: 5
#     Node 8, Type 0, BuildingBlock: BEQFEK_clean_sbu_0, # of connection points: 5
#     Node 9, Type 0, BuildingBlock: BEQFEK_clean_sbu_0, # of connection points: 5
#     Node 10, Type 0, BuildingBlock: BEQFEK_clean_sbu_0, # of connection points: 5
#     Node 11, Type 0, BuildingBlock: BEQFEK_clean_sbu_0, # of connection points: 5
#     Node 12, Type 0, BuildingBlock: BEQFEK_clean_sbu_0, # of connection points: 5
#     Node 13, Type 0, BuildingBlock: BEQFEK_clean_sbu_0, # of connection points: 5
#     Node 14, Type 0, BuildingBlock: BEQFEK_clean_sbu_0, # of connection points: 5
#     Node 15, Type 0, BuildingBlock: BEQFEK_clean_sbu_0, # of connection points: 5
#     Node 16, Type 0, BuildingBlock: BEQFEK_clean_sbu_0, # of connection points: 5
#     Node 17, Type 0, BuildingBlock: BEQFEK_clean_sbu_0, # of connection points: 5
#     Node 18, Type 0, BuildingBlock: BEQFEK_clean_sbu_0, # of connection points: 5
#     Node 19, Type 0, BuildingBlock: BEQFEK_clean_sbu_0, # of connection points: 5
#     Node 20, Type 0, BuildingBlock: BEQFEK_clean_sbu_0, # of connection points: 5
#     Node 21, Type 0, BuildingBlock: BEQFEK_clean_sbu_0, # of connection points: 5
#     Node 22, Type 0, BuildingBlock: BEQFEK_clean_sbu_0, # of connection points: 5
#     Node 23, Type 0, BuildingBlock: BEQFEK_clean_sbu_0, # of connection points: 5
#     Node 24, Type 0, BuildingBlock: BEQFEK_clean_sbu_0, # of connection points: 5
#     Node 25, Type 0, BuildingBlock: BEQFEK_clean_sbu_0, # of connection points: 5
#     Node 26, Type 0, BuildingBlock: BEQFEK_clean_sbu_0, # of connection points: 5
#     Node 27, Type 0, BuildingBlock: BEQFEK_clean_sbu_0, # of connection points: 5
#     Node 28, Type 0, BuildingBlock: BEQFEK_clean_sbu_0, # of connection points: 5
#     Node 29, Type 0, BuildingBlock: BEQFEK_clean_sbu_0, # of connection points: 5
#     Node 30, Type 0, BuildingBlock: BEQFEK_clean_sbu_0, # of connection points: 5
#     Node 31, Type 0, BuildingBlock: BEQFEK_clean_sbu_0, # of connection points: 5
#     Node 32, Type 0, BuildingBlock: BEQFEK_clean_sbu_0, # of connection points: 5
#     Node 33, Type 0, BuildingBlock: BEQFEK_clean_sbu_0, # of connection points: 5
#     Node 34, Type 0, BuildingBlock: BEQFEK_clean_sbu_0, # of connection points: 5
#     Node 35, Type 0, BuildingBlock: BEQFEK_clean_sbu_0, # of connection points: 5
#     Edge 36, Type (0, 0), BuildingBlock: OJICUG_clean_linker_0, # of connection points: 2
#     Edge 37, Type (0, 0), BuildingBlock: OJICUG_clean_linker_0, # of connection points: 2
#     Edge 38, Type (0, 0), BuildingBlock: OJICUG_clean_linker_0, # of connection points: 2
#     Edge 39, Type (0, 0), BuildingBlock: OJICUG_clean_linker_0, # of connection points: 2
#     Edge 40, Type (0, 0), BuildingBlock: OJICUG_clean_linker_0, # of connection points: 2
#     Edge 41, Type (0, 0), BuildingBlock: OJICUG_clean_linker_0, # of connection points: 2
#     Edge 42, Type (0, 0), BuildingBlock: OJICUG_clean_linker_0, # of connection points: 2
#     Edge 43, Type (0, 0), BuildingBlock: OJICUG_clean_linker_0, # of connection points: 2
#     Edge 44, Type (0, 0), BuildingBlock: OJICUG_clean_linker_0, # of connection points: 2
#     Edge 45, Type (0, 0), BuildingBlock: OJICUG_clean_linker_0, # of connection points: 2
#     Edge 46, Type (0, 0), BuildingBlock: OJICUG_clean_linker_0, # of connection points: 2
#     Edge 47, Type (0, 0), BuildingBlock: OJICUG_clean_linker_0, # of connection points: 2
#     Edge 48, Type (0, 0), BuildingBlock: OJICUG_clean_linker_0, # of connection points: 2
#     Edge 49, Type (0, 0), BuildingBlock: OJICUG_clean_linker_0, # of connection points: 2
#     Edge 50, Type (0, 0), BuildingBlock: OJICUG_clean_linker_0, # of connection points: 2
#     Edge 51, Type (0, 0), BuildingBlock: OJICUG_clean_linker_0, # of connection points: 2
#     Edge 52, Type (0, 0), BuildingBlock: OJICUG_clean_linker_0, # of connection points: 2
#     Edge 53, Type (0, 0), BuildingBlock: OJICUG_clean_linker_0, # of connection points: 2
#     Edge 54, Type (0, 0), BuildingBlock: OJICUG_clean_linker_0, # of connection points: 2
#     Edge 55, Type (0, 0), BuildingBlock: OJICUG_clean_linker_0, # of connection points: 2
#     Edge 56, Type (0, 0), BuildingBlock: OJICUG_clean_linker_0, # of connection points: 2
#     Edge 57, Type (0, 0), BuildingBlock: OJICUG_clean_linker_0, # of connection points: 2
#     Edge 58, Type (0, 0), BuildingBlock: OJICUG_clean_linker_0, # of connection points: 2
#     Edge 59, Type (0, 0), BuildingBlock: OJICUG_clean_linker_0, # of connection points: 2
#     Edge 60, Type (0, 0), BuildingBlock: OJICUG_clean_linker_0, # of connection points: 2
#     Edge 61, Type (0, 0), BuildingBlock: OJICUG_clean_linker_0, # of connection points: 2
#     Edge 62, Type (0, 0), BuildingBlock: OJICUG_clean_linker_0, # of connection points: 2
#     Edge 63, Type (0, 0), BuildingBlock: OJICUG_clean_linker_0, # of connection points: 2
#     Edge 64, Type (0, 0), BuildingBlock: OJICUG_clean_linker_0, # of connection points: 2
#     Edge 65, Type (0, 0), BuildingBlock: OJICUG_clean_linker_0, # of connection points: 2
#     Edge 66, Type (0, 0), BuildingBlock: OJICUG_clean_linker_0, # of connection points: 2
#     Edge 67, Type (0, 0), BuildingBlock: OJICUG_clean_linker_0, # of connection points: 2
#     Edge 68, Type (0, 0), BuildingBlock: OJICUG_clean_linker_0, # of connection points: 2
#     Edge 69, Type (0, 0), BuildingBlock: OJICUG_clean_linker_0, # of connection points: 2
#     Edge 70, Type (0, 0), BuildingBlock: OJICUG_clean_linker_0, # of connection points: 2
#     Edge 71, Type (0, 0), BuildingBlock: OJICUG_clean_linker_0, # of connection points: 2
#     Edge 72, Type (0, 0), BuildingBlock: OJICUG_clean_linker_0, # of connection points: 2
#     Edge 73, Type (0, 0), BuildingBlock: OJICUG_clean_linker_0, # of connection points: 2
#     Edge 74, Type (0, 0), BuildingBlock: OJICUG_clean_linker_0, # of connection points: 2
#     Edge 75, Type (0, 0), BuildingBlock: OJICUG_clean_linker_0, # of connection points: 2
#     Edge 76, Type (0, 0), BuildingBlock: OJICUG_clean_linker_0, # of connection points: 2
#     Edge 77, Type (0, 0), BuildingBlock: OJICUG_clean_linker_0, # of connection points: 2
#     Edge 78, Type (0, 0), BuildingBlock: OJICUG_clean_linker_0, # of connection points: 2
#     Edge 79, Type (0, 0), BuildingBlock: OJICUG_clean_linker_0, # of connection points: 2
#     Edge 80, Type (0, 0), BuildingBlock: OJICUG_clean_linker_0, # of connection points: 2
#     Edge 81, Type (0, 0), BuildingBlock: OJICUG_clean_linker_0, # of connection points: 2
#     Edge 82, Type (0, 0), BuildingBlock: OJICUG_clean_linker_0, # of connection points: 2
#     Edge 83, Type (0, 0), BuildingBlock: OJICUG_clean_linker_0, # of connection points: 2
#     Edge 84, Type (0, 0), BuildingBlock: OJICUG_clean_linker_0, # of connection points: 2
#     Edge 85, Type (0, 0), BuildingBlock: OJICUG_clean_linker_0, # of connection points: 2
#     Edge 86, Type (0, 0), BuildingBlock: OJICUG_clean_linker_0, # of connection points: 2
#     Edge 87, Type (0, 0), BuildingBlock: OJICUG_clean_linker_0, # of connection points: 2
#     Edge 88, Type (0, 0), BuildingBlock: OJICUG_clean_linker_0, # of connection points: 2
#     Edge 89, Type (0, 0), BuildingBlock: OJICUG_clean_linker_0, # of connection points: 2
#     Edge 90, Type (0, 0), BuildingBlock: OJICUG_clean_linker_0, # of connection points: 2
#     Edge 91, Type (0, 0), BuildingBlock: OJICUG_clean_linker_0, # of connection points: 2
#     Edge 92, Type (0, 0), BuildingBlock: OJICUG_clean_linker_0, # of connection points: 2
#     Edge 93, Type (0, 0), BuildingBlock: OJICUG_clean_linker_0, # of connection points: 2
#     Edge 94, Type (0, 0), BuildingBlock: OJICUG_clean_linker_0, # of connection points: 2
#     Edge 95, Type (0, 0), BuildingBlock: OJICUG_clean_linker_0, # of connection points: 2
#     Edge 96, Type (0, 0), BuildingBlock: OJICUG_clean_linker_0, # of connection points: 2
#     Edge 97, Type (0, 0), BuildingBlock: OJICUG_clean_linker_0, # of connection points: 2
#     Edge 98, Type (0, 0), BuildingBlock: OJICUG_clean_linker_0, # of connection points: 2
#     Edge 99, Type (0, 0), BuildingBlock: OJICUG_clean_linker_0, # of connection points: 2
#     Edge 100, Type (0, 0), BuildingBlock: OJICUG_clean_linker_0, # of connection points: 2
#     Edge 101, Type (0, 0), BuildingBlock: OJICUG_clean_linker_0, # of connection points: 2
#     Edge 102, Type (0, 0), BuildingBlock: OJICUG_clean_linker_0, # of connection points: 2
#     Edge 103, Type (0, 0), BuildingBlock: OJICUG_clean_linker_0, # of connection points: 2
#     Edge 104, Type (0, 0), BuildingBlock: OJICUG_clean_linker_0, # of connection points: 2
#     Edge 105, Type (0, 0), BuildingBlock: OJICUG_clean_linker_0, # of connection points: 2
#     Edge 106, Type (0, 0), BuildingBlock: OJICUG_clean_linker_0, # of connection points: 2
#     Edge 107, Type (0, 0), BuildingBlock: OJICUG_clean_linker_0, # of connection points: 2
#     Edge 108, Type (0, 0), BuildingBlock: OJICUG_clean_linker_0, # of connection points: 2
#     Edge 109, Type (0, 0), BuildingBlock: OJICUG_clean_linker_0, # of connection points: 2
#     Edge 110, Type (0, 0), BuildingBlock: OJICUG_clean_linker_0, # of connection points: 2
#     Edge 111, Type (0, 0), BuildingBlock: OJICUG_clean_linker_0, # of connection points: 2
#     Edge 112, Type (0, 0), BuildingBlock: OJICUG_clean_linker_0, # of connection points: 2
#     Edge 113, Type (0, 0), BuildingBlock: OJICUG_clean_linker_0, # of connection points: 2
#     Edge 114, Type (0, 0), BuildingBlock: OJICUG_clean_linker_0, # of connection points: 2
#     Edge 115, Type (0, 0), BuildingBlock: OJICUG_clean_linker_0, # of connection points: 2
#     Edge 116, Type (0, 0), BuildingBlock: OJICUG_clean_linker_0, # of connection points: 2
#     Edge 117, Type (0, 0), BuildingBlock: OJICUG_clean_linker_0, # of connection points: 2
#     Edge 118, Type (0, 0), BuildingBlock: OJICUG_clean_linker_0, # of connection points: 2
#     Edge 119, Type (0, 0), BuildingBlock: OJICUG_clean_linker_0, # of connection points: 2
#     Edge 120, Type (0, 0), BuildingBlock: OJICUG_clean_linker_0, # of connection points: 2
#     Edge 121, Type (0, 0), BuildingBlock: OJICUG_clean_linker_0, # of connection points: 2
#     Edge 122, Type (0, 0), BuildingBlock: OJICUG_clean_linker_0, # of connection points: 2
#     Edge 123, Type (0, 0), BuildingBlock: OJICUG_clean_linker_0, # of connection points: 2
#     Edge 124, Type (0, 0), BuildingBlock: OJICUG_clean_linker_0, # of connection points: 2
#     Edge 125, Type (0, 0), BuildingBlock: OJICUG_clean_linker_0, # of connection points: 2
# Relax obj value: 0.144
# Max RMSD: 0.107
# Mean RMSD: 0.107
data_MOF--net-wls--node1-BEQFEK_clean_sbu_0--edge1-OJICUG_clean_linker_0
_symmetry_space_group_name_H-M    P1
_symmetry_Int_Tables_number       1
_symmetry_cell_setting            triclinic
loop_
_symmetry_equiv_pos_as_xyz
'x, y, z'
_cell_length_a     61.441215
_cell_length_b     61.193045
_cell_length_c     26.084783
_cell_angle_alpha  89.531102
_cell_angle_beta   90.046421
_cell_angle_gamma 120.14261
loop_
_atom_site_label
_atom_site_type_symbol
_atom_site_fract_x
_atom_site_fract_y
_atom_site_fract_z
_atom_type_partial_charge
Co0 Co 0.24548 0.23788 0.06199 0.0
Co1 Co 0.22046 0.17969 0.06751 0.0
C2 C 0.224 0.20854 0.16167 0.0
O3 O 0.23471 0.2282 0.13348 0.0
O4 O 0.21768 0.18687 0.14313 0.0
C5 C 0.28529 0.28456 0.09152 0.0
O6 O 0.29254 0.2705 0.11613 0.0
C7 C 0.21057 0.12665 0.07949 0.0
C8 C 0.18285 0.10821 1.01755 0.0
C9 C 0.19585 0.1035 0.05532 0.0
N10 N 0.20648 0.14408 0.0565 0.0
N11 N 0.18975 0.13277 1.01982 0.0
C12 C 0.22709 0.13188 0.12529 0.0
H13 H 0.22986 0.14903 0.14525 0.0
H14 H 0.24576 0.13519 0.11299 0.0
H15 H 0.21873 0.1154 0.15195 0.0
C16 C 0.28654 0.23446 1.011 0.0
N17 N 0.26409 0.22367 0.03525 0.0
N18 N 0.25452 0.19902 0.03787 0.0
C19 C 0.27115 0.19355 1.01511 0.0
C20 C 0.29223 0.21599 0.99833 0.0
C21 C 0.30132 0.26169 0.99497 0.0
H22 H 0.28863 0.26939 0.98838 0.0
H23 H 0.31504 0.27267 0.02535 0.0
H24 H 0.31208 0.26397 0.95921 0.0
O25 O 0.21568 0.22944 1.02164 0.0
O26 O 0.19635 0.18786 0.03073 0.0
H27 H 0.24709 0.15434 0.99784 0.0
H28 H 0.27965 0.16714 0.97872 0.0
C29 C 0.26693 0.16748 1.00847 0.0
H30 H 0.27085 0.16098 0.04525 0.0
H31 H 0.18321 0.14191 0.99572 0.0
O32 O 0.26569 0.27431 0.06406 0.0
C33 C 0.19659 0.20776 1.01478 0.0
Co34 Co 0.77445 0.01373 0.06982 0.0
Co35 Co 0.83237 0.0476 0.07228 0.0
C36 C 0.80283 0.02261 0.16883 0.0
O37 O 0.78285 0.01307 0.1423 0.0
O38 O 0.82426 0.03744 0.14821 0.0
C39 C 0.7251 0.99759 0.10225 0.0
O40 O 0.73633 0.01033 0.1437 0.0
C41 C 0.88329 0.0938 0.08133 0.0
C42 C 0.90526 0.08288 0.03155 0.0
C43 C 0.90729 0.10247 0.06119 0.0
N44 N 0.86787 0.07032 0.06364 0.0
N45 N 0.88129 0.06392 0.03435 0.0
C46 C 0.8754 0.10687 0.11889 0.0
H47 H 0.85741 0.09309 0.13773 0.0
H48 H 0.87265 0.12131 0.09886 0.0
H49 H 0.89032 0.11667 0.14805 0.0
C50 C 0.77681 0.05807 1.0195 0.0
N51 N 0.78819 0.04675 0.04286 0.0
N52 N 0.81279 0.06164 0.041 0.0
C53 C 0.81764 0.08291 1.01446 0.0
C54 C 0.79492 0.08149 1.00108 0.0
C55 C 0.74896 0.04597 1.01193 0.0
H56 H 0.73964 0.04281 0.04981 0.0
H57 H 0.74393 0.05787 0.98813 0.0
H58 H 0.74178 0.0274 0.99317 0.0
O59 O 0.78442 0.99279 0.03103 0.0
O60 O 0.82586 0.01585 0.03642 0.0
H61 H 0.85649 0.09609 0.99627 0.0
H62 H 0.84217 0.11072 0.95942 0.0
C63 C 0.84317 0.10327 0.99777 0.0
H64 H 0.85012 0.11914 0.02508 0.0
H65 H 0.874 0.0467 1.01544 0.0
O66 O 0.7381 0.9967 0.06555 0.0
C67 C 0.80609 0.99578 1.02241 0.0
Co68 Co 0.99157 0.76105 0.08686 0.0
Co69 Co 0.959 0.78596 0.07814 0.0
C70 C 0.9823 0.78193 0.17981 0.0
O71 O 0.99165 0.7703 0.15722 0.0
O72 O 0.96871 0.78902 0.15545 0.0
C73 C 0.02625 0.74594 0.11288 0.0
O74 O 0.03495 0.76537 0.14381 0.0
C75 C 0.91264 0.78986 0.08318 0.0
C76 C 0.92531 0.82553 0.04021 0.0
C77 C 0.90475 0.80646 0.06605 0.0
N78 N 0.93657 0.79882 0.06772 0.0
N79 N 0.94399 0.82018 0.04229 0.0
C80 C 0.89852 0.76669 0.11584 0.0
H81 H 0.91185 0.76266 0.13686 0.0
H82 H 0.88674 0.7503 0.09102 0.0
H83 H 0.88607 0.76902 0.14334 0.0
C84 C 0.94768 0.71773 0.04457 0.0
N85 N 0.9586 0.7414 0.06224 0.0
N86 N 0.94537 0.75198 0.04945 0.0
C87 C 0.92649 0.73565 1.01808 0.0
C88 C 0.92747 0.7132 1.01314 0.0
C89 C 0.95549 0.69923 0.0619 0.0
H90 H 0.96174 0.7029 0.10243 0.0
H91 H 0.93972 0.67947 0.05872 0.0
H92 H 0.9716 0.70165 0.03844 0.0
O93 O 0.01327 0.7918 0.04548 0.0
O94 O 0.99027 0.81022 0.04076 0.0
H95 H 0.90817 0.73651 0.94863 0.0
H96 H 0.89044 0.73198 1.00628 0.0
C97 C 0.90958 0.74234 0.98924 0.0
H98 H 0.91667 0.76293 0.99104 0.0
H99 H 0.96186 0.83118 0.0262 0.0
O100 O 0.00771 0.74091 0.08428 0.0
C101 C 0.0105 0.81011 0.0309 0.0
Co102 Co 0.23568 0.24682 0.4646 0.0
Co103 Co 0.17839 0.22243 0.47316 0.0
C104 C 0.20553 0.22662 0.37125 0.0
O105 O 0.22653 0.23812 0.39387 0.0
O106 O 0.1849 0.21951 0.39575 0.0
C107 C 0.28503 0.26078 0.43897 0.0
O108 O 0.27393 0.24104 0.4089 0.0
C109 C 0.12839 0.21892 0.46755 0.0
C110 C 0.10508 0.18325 0.51029 0.0
C111 C 0.10382 0.20239 0.48421 0.0
N112 N 0.1432 0.20983 0.48343 0.0
N113 N 0.12908 0.18848 0.50876 0.0
C114 C 0.13768 0.24213 0.4349 0.0
H115 H 0.15508 0.24606 0.41417 0.0
H116 H 0.14235 0.25853 0.45973 0.0
H117 H 0.12302 0.23993 0.40715 0.0
C118 C 0.23581 0.28999 0.50979 0.0
N119 N 0.22284 0.26663 0.49052 0.0
N120 N 0.19897 0.25621 0.50273 0.0
C121 C 0.19653 0.2723 0.53495 0.0
C122 C 0.22013 0.29441 0.5413 0.0
C123 C 0.26251 0.30829 0.49458 0.0
H124 H 0.26557 0.30537 0.45387 0.0
H125 H 0.26698 0.32813 0.49932 0.0
H126 H 0.27553 0.30491 0.51831 0.0
O127 O 0.22641 0.21583 0.50519 0.0
O128 O 0.18503 0.19778 0.51005 0.0
H129 H 0.17705 0.27135 0.604 0.0
H130 H 0.16419 0.2761 0.54599 0.0
C131 C 0.17283 0.26563 0.56328 0.0
H132 H 0.15926 0.24506 0.56113 0.0
H133 H 0.1358 0.17739 0.52505 0.0
O134 O 0.27187 0.26646 0.46704 0.0
C135 C 0.20524 0.19761 0.51968 0.0
Co136 Co 0.76692 0.99618 0.48014 0.0
Co137 Co 0.78946 0.96111 0.47617 0.0
C138 C 0.7853 0.98654 0.3803 0.0
O139 O 0.77562 0.99658 0.40757 0.0
O140 O 0.79137 0.97117 0.40024 0.0
C141 C 0.73485 0.01334 0.44787 0.0
O142 O 0.73023 0.99739 0.41038 0.0
C143 C 0.79331 0.91441 0.46655 0.0
C144 C 0.82607 0.92479 0.51655 0.0
C145 C 0.80846 0.90546 0.48647 0.0
N146 N 0.80157 0.93785 0.48472 0.0
N147 N 0.82128 0.9439 0.51417 0.0
C148 C 0.77242 0.90169 0.4287 0.0
H149 H 0.76799 0.91556 0.41099 0.0
H150 H 0.7553 0.8868 0.44816 0.0
H151 H 0.77774 0.89246 0.39868 0.0
C152 C 0.72444 0.95253 0.53098 0.0
N153 N 0.74696 0.96332 0.5071 0.0
N154 N 0.75597 0.94782 0.50792 0.0
C155 C 0.73917 0.92657 0.53399 0.0
C156 C 0.71843 0.92875 0.54849 0.0
C157 C 0.70946 0.96539 0.53934 0.0
H158 H 0.70281 0.96833 0.5018 0.0
H159 H 0.69285 0.95409 0.56438 0.0
H160 H 0.72159 0.98414 0.55686 0.0
O161 O 0.79784 0.01624 0.51882 0.0
O162 O 0.81556 0.99269 0.51161 0.0
H163 H 0.76384 0.91207 0.55118 0.0
H164 H 0.73448 0.89728 0.58661 0.0
C165 C 0.74346 0.90542 0.54899 0.0
H166 H 0.73458 0.89023 0.52019 0.0
H167 H 0.83134 0.96102 0.5334 0.0
O168 O 0.74943 0.01497 0.48379 0.0
C169 C 0.81632 0.01286 0.52647 0.0
Co170 Co 0.01118 0.76953 0.48795 0.0
Co171 Co 0.0443 0.8278 0.48355 0.0
C172 C 0.01932 0.79946 0.38895 0.0
O173 O 0.01033 0.77972 0.41687 0.0
O174 O 0.03471 0.82104 0.40776 0.0
C175 C 0.00538 0.72375 0.45608 0.0
O176 O 0.02699 0.73858 0.43315 0.0
C177 C 0.08767 0.88063 0.47251 0.0
C178 C 0.07798 0.89939 0.53302 0.0
C179 C 0.096 0.90387 0.4962 0.0
N180 N 0.06588 0.86337 0.49486 0.0
N181 N 0.06021 0.87485 0.53068 0.0
C182 C 0.09927 0.87515 0.42765 0.0
H183 H 0.08492 0.85813 0.40726 0.0
H184 H 0.11422 0.87145 0.44113 0.0
H185 H 0.10795 0.89163 0.40103 0.0
C186 C 0.05517 0.77293 0.54111 0.0
N187 N 0.04384 0.78372 0.51554 0.0
N188 N 0.05888 0.80839 0.51345 0.0
C189 C 0.08062 0.81387 0.53787 0.0
C190 C 0.07905 0.79144 0.55527 0.0
C191 C 0.04266 0.74555 0.55606 0.0
H192 H 0.02219 0.73773 0.56175 0.0
H193 H 0.04572 0.73494 0.52536 0.0
H194 H 0.0508 0.74284 0.5919 0.0
O195 O 0.98953 0.77766 0.52812 0.0
O196 O 0.01184 0.81931 0.51956 0.0
H197 H 0.09455 0.85267 0.55717 0.0
H198 H 0.11407 0.84001 0.57897 0.0
C199 C 0.1019 0.83997 0.54745 0.0
H200 H 0.11348 0.84724 0.51219 0.0
H201 H 0.04428 0.86586 0.55412 0.0
O202 O 0.99532 0.73314 0.48398 0.0
C203 C 0.99209 0.79935 0.53503 0.0
Co204 Co 0.76071 0.77035 0.9863 0.0
Co205 Co 0.78549 0.8286 0.9814 0.0
C206 C 0.78284 0.80015 0.88726 0.0
O207 O 0.77213 0.78043 0.9153 0.0
O208 O 0.78867 0.8217 0.90577 0.0
C209 C 0.72101 0.72372 0.95569 0.0
O210 O 0.71381 0.73788 0.93137 0.0
C211 C 0.79465 0.88146 0.97017 0.0
C212 C 0.82264 0.90011 0.03156 0.0
C213 C 0.80926 0.90462 0.99434 0.0
N214 N 0.79916 0.86419 0.99263 0.0
N215 N 0.81605 0.87564 0.029 0.0
C216 C 0.77791 0.87613 0.92471 0.0
H217 H 0.7746 0.85863 0.90541 0.0
H218 H 0.75951 0.87346 0.93717 0.0
H219 H 0.78645 0.89235 0.89743 0.0
C220 C 0.71934 0.77343 0.03676 0.0
N221 N 0.74184 0.78437 1.01267 0.0
N222 N 0.75135 0.80902 1.01049 0.0
C223 C 0.73465 0.81434 0.03345 0.0
C224 C 0.71358 0.7918 0.04981 0.0
C225 C 0.70466 0.74615 0.05253 0.0
H226 H 0.71742 0.73852 0.05898 0.0
H227 H 0.69097 0.7352 1.02206 0.0
H228 H 0.69385 0.74372 0.08829 0.0
O229 O 0.7903 0.77882 0.02743 0.0
O230 O 0.80957 0.82043 1.01844 0.0
H231 H 0.75867 0.85342 0.05177 0.0
H232 H 0.72608 0.8405 0.07078 0.0
C233 C 0.73885 0.84035 0.04089 0.0
H234 H 0.73496 0.84708 1.00437 0.0
H235 H 0.8229 0.86664 0.05268 0.0
O236 O 0.74056 0.73386 0.98336 0.0
C237 C 0.80935 0.80054 0.03444 0.0
Co238 Co 0.23161 0.9956 0.98119 0.0
Co239 Co 0.17385 0.96066 0.97771 0.0
C240 C 0.20334 0.98598 0.8816 0.0
O241 O 0.22315 0.99594 0.90864 0.0
O242 O 0.18191 0.97074 0.90177 0.0
C243 C 0.28098 0.01277 0.94887 0.0
O244 O 0.26969 0.99705 0.91101 0.0
C245 C 0.12301 0.9141 0.96855 0.0
C246 C 0.10105 0.92471 1.01914 0.0
C247 C 0.09901 0.90531 0.98887 0.0
N248 N 0.13842 0.93751 0.98666 0.0
N249 N 0.12501 0.94369 1.01648 0.0
C250 C 0.13084 0.90126 0.93034 0.0
H251 H 0.14918 0.91499 0.91265 0.0
H252 H 0.13282 0.88614 0.94947 0.0
H253 H 0.11621 0.89229 0.90034 0.0
C254 C 0.23027 0.95179 0.03182 0.0
N255 N 0.21857 0.9627 1.00817 0.0
N256 N 0.19404 0.94728 1.00912 0.0
C257 C 0.18955 0.92598 0.03502 0.0
C258 C 0.21243 0.92802 0.04928 0.0
C259 C 0.25811 0.96452 0.03998 0.0
H260 H 0.26762 0.96746 1.00237 0.0
H261 H 0.26339 0.95312 0.06486 0.0
H262 H 0.26487 0.98326 0.05763 0.0
O263 O 0.22092 0.01579 1.01995 0.0
O264 O 0.1796 0.99227 1.01335 0.0
H265 H 0.15047 0.91164 0.05277 0.0
H266 H 0.16495 0.89645 0.08723 0.0
C267 C 0.16408 0.90487 0.04995 0.0
H268 H 0.15758 0.88985 1.02072 0.0
H269 H 0.13228 0.96081 0.03576 0.0
O270 O 0.26797 0.01428 0.98479 0.0
C271 C 0.19909 0.01243 0.028 0.0
Co272 Co 0.01417 0.24694 0.96187 0.0
Co273 Co 0.04695 0.22227 0.97083 0.0
C274 C 0.02377 0.22618 0.86899 0.0
O275 O 0.01431 0.23774 0.89146 0.0
O276 O 0.03738 0.21917 0.89349 0.0
C277 C 0.97969 0.26223 0.93472 0.0
O278 O 0.97138 0.24314 0.90298 0.0
C279 C 0.09333 0.21843 0.96604 0.0
C280 C 0.08069 0.18285 1.0093 0.0
C281 C 0.10122 0.20187 0.98331 0.0
N282 N 0.0694 0.2095 0.98153 0.0
N283 N 0.06201 0.18818 1.00715 0.0
C284 C 0.10742 0.24155 0.9332 0.0
H285 H 0.09407 0.24552 0.91207 0.0
H286 H 0.11919 0.25799 0.9579 0.0
H287 H 0.11988 0.23917 0.9058 0.0
C288 C 0.05786 0.29032 1.00486 0.0
N289 N 0.04707 0.2667 0.98692 0.0
N290 N 0.0604 0.25621 0.99959 0.0
C291 C 0.07923 0.27253 0.03107 0.0
C292 C 0.0781 0.2949 0.03625 0.0
C293 C 0.04988 0.30873 0.9879 0.0
H294 H 0.04366 0.30518 0.94734 0.0
H295 H 0.06553 0.32852 0.99133 0.0
H296 H 0.0337 0.30609 1.01144 0.0
O297 O 0.99248 0.21613 1.00316 0.0
O298 O 0.01568 0.19794 1.00803 0.0
H299 H 0.09767 0.27176 0.1004 0.0
H300 H 0.11532 0.27627 0.0426 0.0
C301 C 0.09621 0.2659 0.05979 0.0
H302 H 0.08914 0.24531 0.05803 0.0
H303 H 0.04415 0.17721 1.02329 0.0
O304 O 0.99788 0.26695 0.96417 0.0
C305 C 0.99538 0.1979 1.0178 0.0
Co306 Co 0.77079 0.7615 0.58674 0.0
Co307 Co 0.82819 0.78566 0.57589 0.0
C308 C 0.80262 0.7832 0.67822 0.0
O309 O 0.78145 0.77208 0.65627 0.0
O310 O 0.82291 0.78927 0.6534 0.0
C311 C 0.72164 0.73264 0.62744 0.0
O312 O 0.73316 0.73648 0.67169 0.0
C313 C 0.87811 0.78906 0.58001 0.0
C314 C 0.90109 0.82417 0.53536 0.0
C315 C 0.90253 0.80535 0.56234 0.0
N316 N 0.8632 0.79798 0.5639 0.0
N317 N 0.87711 0.81899 0.53738 0.0
C318 C 0.86909 0.76627 0.61386 0.0
H319 H 0.85189 0.76262 0.63499 0.0
H320 H 0.86421 0.74955 0.58987 0.0
H321 H 0.884 0.76882 0.64128 0.0
C322 C 0.77035 0.71779 0.54216 0.0
N323 N 0.78339 0.74125 0.56104 0.0
N324 N 0.80716 0.75167 0.54789 0.0
C325 C 0.80942 0.7355 0.5156 0.0
C326 C 0.78584 0.71331 0.51012 0.0
C327 C 0.74387 0.69936 0.55837 0.0
H328 H 0.74144 0.70188 0.59961 0.0
H329 H 0.73929 0.67955 0.55254 0.0
H330 H 0.73054 0.70294 0.53622 0.0
O331 O 0.77967 0.79182 0.54406 0.0
O332 O 0.82109 0.80997 0.53901 0.0
H333 H 0.82827 0.73599 0.44591 0.0
H334 H 0.842 0.73222 0.50366 0.0
C335 C 0.83288 0.7422 0.48629 0.0
H336 H 0.84622 0.76284 0.48731 0.0
H337 H 0.87027 0.8299 0.52071 0.0
O338 O 0.73432 0.74186 0.58669 0.0
C339 C 0.80081 0.80997 0.52915 0.0
Co340 Co 0.23998 0.01177 0.57057 0.0
Co341 Co 0.21716 0.04666 0.57324 0.0
C342 C 0.22135 0.02153 0.66979 0.0
O343 O 0.2313 0.01157 0.6431 0.0
O344 O 0.2151 0.03666 0.64925 0.0
C345 C 0.27194 0.99423 0.6029 0.0
O346 O 0.27626 0.00965 0.64127 0.0
C347 C 0.21304 0.09327 0.58209 0.0
C348 C 0.18035 0.08265 0.53172 0.0
C349 C 0.19784 0.10209 0.56178 0.0
N350 N 0.20492 0.06982 0.56415 0.0
N351 N 0.18525 0.06363 0.53447 0.0
C352 C 0.23385 0.10614 0.62006 0.0
H353 H 0.23812 0.09231 0.63848 0.0
H354 H 0.25107 0.12082 0.60049 0.0
H355 H 0.22856 0.11565 0.64951 0.0
C356 C 0.28247 0.05547 0.51975 0.0
N357 N 0.25986 0.04461 0.54331 0.0
N358 N 0.25071 0.05999 0.54186 0.0
C359 C 0.26748 0.08119 0.51563 0.0
C360 C 0.28836 0.07915 0.50175 0.0
C361 C 0.29762 0.04275 0.51208 0.0
H362 H 0.30395 0.03969 0.5499 0.0
H363 H 0.31443 0.05419 0.48763 0.0
H364 H 0.28572 0.02405 0.49415 0.0
O365 O 0.20901 0.99148 0.532 0.0
O366 O 0.19126 0.01506 0.53774 0.0
H367 H 0.24264 0.09541 0.4977 0.0
H368 H 0.27198 0.11012 0.46222 0.0
C369 C 0.26304 0.10216 0.49996 0.0
H370 H 0.27187 0.11753 0.52841 0.0
H371 H 0.1753 0.04647 0.51535 0.0
O372 O 0.2576 0.99305 0.56687 0.0
C373 C 0.19056 0.99483 0.52359 0.0
Co374 Co 0.99561 0.23843 0.56033 0.0
Co375 Co 0.9622 0.18029 0.5648 0.0
C376 C 0.98733 0.20845 0.65937 0.0
O377 O 0.99646 0.22816 0.63135 0.0
O378 O 0.97181 0.18689 0.64064 0.0
C379 C 1.0016 0.28407 0.59293 0.0
O380 O 0.98003 0.26918 0.61594 0.0
C381 C 0.91907 0.12728 0.57612 0.0
C382 C 0.92822 0.10898 0.51375 0.0
C383 C 0.91063 0.10418 0.55178 0.0
N384 N 0.94051 0.14477 0.55302 0.0
N385 N 0.94586 0.13356 0.51605 0.0
C386 C 0.90791 0.13242 0.62218 0.0
H387 H 0.92237 0.14946 0.64234 0.0
H388 H 0.89263 0.13592 0.61009 0.0
H389 H 0.89973 0.11585 0.6486 0.0
C390 C 0.95147 0.23554 0.50905 0.0
N391 N 0.96292 0.2245 0.53317 0.0
N392 N 0.94767 0.19988 0.53545 0.0
C393 C 0.92565 0.19468 0.51264 0.0
C394 C 0.92726 0.21728 0.49611 0.0
C395 C 0.96417 0.26287 0.49358 0.0
H396 H 0.9846 0.2705 0.48763 0.0
H397 H 0.9613 0.27374 0.52399 0.0
H398 H 0.95596 0.26539 0.45763 0.0
O399 O 0.01705 0.23028 0.51976 0.0
O400 O 0.99465 0.18867 0.52854 0.0
H401 H 0.91011 0.15548 0.4949 0.0
H402 H 0.89052 0.1686 0.47643 0.0
C403 C 0.90361 0.16872 0.50591 0.0
H404 H 0.8933 0.1622 0.5428 0.0
H405 H 0.96148 0.14276 0.49188 0.0
O406 O 0.0116 0.27477 0.56463 0.0
C407 C 0.0144 0.20857 0.51285 0.0
Co408 Co 0.91208 0.57114 0.39499 0.0
Co409 Co 0.88697 0.51289 0.39986 0.0
C410 C 0.8902 0.54134 0.49411 0.0
O411 O 0.90092 0.56103 0.46604 0.0
O412 O 0.8841 0.51974 0.47555 0.0
C413 C 0.95204 0.61697 0.42684 0.0
O414 O 0.9588 0.60217 0.45001 0.0
C415 C 0.87748 0.46004 0.41115 0.0
C416 C 0.84902 0.44126 0.35061 0.0
C417 C 0.86258 0.4368 0.38749 0.0
N418 N 0.87296 0.4773 0.38872 0.0
N419 N 0.85578 0.46579 0.35289 0.0
C420 C 0.89459 0.46555 0.45604 0.0
H421 H 0.89729 0.48259 0.47636 0.0
H422 H 0.91324 0.46923 0.44262 0.0
H423 H 0.88679 0.44909 0.48271 0.0
C424 C 0.95276 0.5677 0.34248 0.0
N425 N 0.9306 0.55693 0.36785 0.0
N426 N 0.92096 0.53226 0.37006 0.0
C427 C 0.93724 0.52676 0.34587 0.0
C428 C 0.95814 0.54917 0.32856 0.0
C429 C 0.96764 0.59505 0.32734 0.0
H430 H 0.955 0.60286 0.3214 0.0
H431 H 0.9813 0.60572 0.35805 0.0
H432 H 0.9785 0.59769 0.29158 0.0
O433 O 0.88233 0.56295 0.35451 0.0
O434 O 0.863 0.52133 0.36363 0.0
H435 H 0.91238 0.48791 0.32688 0.0
H436 H 0.94453 0.50058 0.30498 0.0
C437 C 0.93244 0.50065 0.3365 0.0
H438 H 0.93684 0.49348 0.37181 0.0
H439 H 0.84885 0.47477 0.3294 0.0
O440 O 0.93261 0.60754 0.39881 0.0
C441 C 0.8632 0.54124 0.34783 0.0
Co442 Co 0.44097 0.34404 0.40213 0.0
Co443 Co 0.49852 0.37946 0.40622 0.0
C444 C 0.46902 0.35405 0.50209 0.0
O445 O 0.44933 0.34384 0.47472 0.0
O446 O 0.49044 0.36952 0.48223 0.0
C447 C 0.39192 0.32691 0.43471 0.0
O448 O 0.40343 0.34323 0.47154 0.0
C449 C 0.54908 0.42625 0.41611 0.0
C450 C 0.57154 0.41591 0.3664 0.0
C451 C 0.57325 0.4352 0.39657 0.0
N452 N 0.5339 0.40286 0.3977 0.0
N453 N 0.5476 0.39684 0.36838 0.0
C454 C 0.54083 0.43895 0.45381 0.0
H455 H 0.52276 0.42496 0.47212 0.0
H456 H 0.53806 0.45342 0.43396 0.0
H457 H 0.55555 0.44865 0.48338 0.0
C458 C 0.44172 0.38726 0.35041 0.0
N459 N 0.45363 0.37678 0.37483 0.0
N460 N 0.4781 0.39247 0.37413 0.0
C461 C 0.48236 0.41357 0.34772 0.0
C462 C 0.45935 0.41106 0.3327 0.0
C463 C 0.41388 0.3741 0.34185 0.0
H464 H 0.40422 0.3712 0.37927 0.0
H465 H 0.40841 0.38516 0.31645 0.0
H466 H 0.40746 0.35532 0.32468 0.0
O467 O 0.45195 0.32412 0.36362 0.0
O468 O 0.49321 0.34786 0.37102 0.0
H469 H 0.52164 0.42845 0.33117 0.0
H470 H 0.50689 0.44292 0.29515 0.0
C471 C 0.50773 0.43488 0.33292 0.0
H472 H 0.51382 0.45008 0.36164 0.0
H473 H 0.54057 0.37975 0.34908 0.0
O474 O 0.40469 0.32504 0.39878 0.0
C475 C 0.47387 0.32764 0.3561 0.0
Co476 Co 0.6593 0.09427 0.41945 0.0
Co477 Co 0.62649 0.11877 0.41058 0.0
C478 C 0.64964 0.11484 0.51246 0.0
O479 O 0.65909 0.10327 0.48999 0.0
O480 O 0.63607 0.12188 0.48792 0.0
C481 C 0.69419 0.0796 0.44591 0.0
O482 O 0.70267 0.09898 0.4769 0.0
C483 C 0.58002 0.12225 0.41632 0.0
C484 C 0.5922 0.15777 0.37312 0.0
C485 C 0.57188 0.13868 0.39947 0.0
N486 N 0.60388 0.13134 0.40027 0.0
N487 N 0.61101 0.15261 0.37468 0.0
C488 C 0.56623 0.09914 0.44928 0.0
H489 H 0.57978 0.09534 0.47008 0.0
H490 H 0.55448 0.08264 0.42469 0.0
H491 H 0.55379 0.10138 0.47697 0.0
C492 C 0.61584 0.05088 0.37584 0.0
N493 N 0.62649 0.07442 0.39416 0.0
N494 N 0.6131 0.08487 0.38164 0.0
C495 C 0.59434 0.06858 0.34998 0.0
C496 C 0.59561 0.04631 0.34445 0.0
C497 C 0.624 0.03253 0.39221 0.0
H498 H 0.63017 0.03589 0.43281 0.0
H499 H 0.60845 0.01271 0.38839 0.0
H500 H 0.64024 0.03542 0.36856 0.0
O501 O 0.68096 0.12512 0.37836 0.0
O502 O 0.6577 0.14325 0.37331 0.0
H503 H 0.57576 0.06932 0.28082 0.0
H504 H 0.55821 0.06479 0.33877 0.0
C505 C 0.57729 0.07518 0.32144 0.0
H506 H 0.58432 0.09576 0.32325 0.0
H507 H 0.62877 0.16367 0.3582 0.0
O508 O 0.6757 0.07444 0.41707 0.0
C509 C 0.67803 0.14333 0.36365 0.0
Co510 Co 0.90064 0.57998 0.79567 0.0
Co511 Co 0.84314 0.5551 0.80443 0.0
C512 C 0.87045 0.55906 0.70278 0.0
O513 O 0.89146 0.57073 0.72531 0.0
O514 O 0.84979 0.552 0.72715 0.0
C515 C 0.95037 0.59471 0.77024 0.0
O516 O 0.93954 0.57504 0.73994 0.0
C517 C 0.79294 0.55147 0.79948 0.0
C518 C 0.76978 0.51564 0.84179 0.0
C519 C 0.76841 0.53488 0.81636 0.0
N520 N 0.80783 0.54235 0.81468 0.0
N521 N 0.79378 0.52088 0.83973 0.0
C522 C 0.80212 0.57479 0.76723 0.0
H523 H 0.8195 0.57887 0.74628 0.0
H524 H 0.80674 0.59109 0.79234 0.0
H525 H 0.78739 0.57262 0.7397 0.0
C526 C 0.90017 0.62332 0.83794 0.0
N527 N 0.88737 0.59966 0.82023 0.0
N528 N 0.86357 0.58909 0.83312 0.0
C529 C 0.8611 0.60542 0.8646 0.0
C530 C 0.88456 0.62785 0.8695 0.0
C531 C 0.92648 0.64179 0.82062 0.0
H532 H 0.92903 0.63815 0.78007 0.0
H533 H 0.93052 0.66156 0.82389 0.0
H534 H 0.94017 0.63933 0.84405 0.0
O535 O 0.89154 0.54922 0.83705 0.0
O536 O 0.85011 0.5308 0.84189 0.0
H537 H 0.84209 0.60447 0.93428 0.0
H538 H 0.82881 0.60917 0.87687 0.0
C539 C 0.83757 0.59873 0.89363 0.0
H540 H 0.82402 0.57815 0.8917 0.0
H541 H 0.80056 0.50975 0.85556 0.0
O542 O 0.93694 0.60007 0.79827 0.0
C543 C 0.87046 0.5309 0.85169 0.0
Co544 Co 0.43062 0.3268 0.81263 0.0
Co545 Co 0.45462 0.29286 0.80997 0.0
C546 C 0.44994 0.31788 0.71349 0.0
O547 O 0.43954 0.32744 0.74005 0.0
O548 O 0.45651 0.303 0.73408 0.0
C549 C 0.39783 0.34368 0.7809 0.0
O550 O 0.39619 0.33114 0.73909 0.0
C551 C 0.45936 0.24663 0.80121 0.0
C552 C 0.49249 0.25779 0.85055 0.0
C553 C 0.47483 0.23808 0.82126 0.0
N554 N 0.46746 0.27017 0.81862 0.0
N555 N 0.48741 0.2767 0.84764 0.0
C556 C 0.43825 0.2334 0.76399 0.0
H557 H 0.43394 0.24709 0.74502 0.0
H558 H 0.42114 0.21903 0.78434 0.0
H559 H 0.44325 0.22349 0.73491 0.0
C560 C 0.38873 0.28254 0.86314 0.0
N561 N 0.41138 0.29381 0.83967 0.0
N562 N 0.42108 0.27892 0.84156 0.0
C563 C 0.40471 0.2577 0.86827 0.0
C564 C 0.38345 0.25915 0.88172 0.0
C565 C 0.373 0.29466 0.87058 0.0
H566 H 0.36708 0.29808 0.83263 0.0
H567 H 0.35592 0.28266 0.89391 0.0
H568 H 0.38433 0.31312 0.8898 0.0
O569 O 0.46165 0.3477 0.85107 0.0
O570 O 0.48006 0.3247 0.84529 0.0
H571 H 0.43038 0.24448 0.88619 0.0
H572 H 0.4016 0.23004 0.92352 0.0
C573 C 0.40989 0.23735 0.88502 0.0
H574 H 0.4008 0.22139 0.85794 0.0
H575 H 0.49739 0.29398 0.86629 0.0
O576 O 0.41153 0.34407 0.81756 0.0
C577 C 0.4804 0.34478 0.85929 0.0
Co578 Co 0.67823 0.1031 0.8213 0.0
Co579 Co 0.71136 0.16131 0.81647 0.0
C580 C 0.68616 0.13283 0.72208 0.0
O581 O 0.67719 0.11314 0.75015 0.0
O582 O 0.70157 0.15446 0.74072 0.0
C583 C 0.67198 0.05711 0.78951 0.0
O584 O 0.69341 0.07176 0.76584 0.0
C585 C 0.75446 0.21436 0.80491 0.0
C586 C 0.7452 0.23271 0.86699 0.0
C587 C 0.76287 0.23747 0.82918 0.0
N588 N 0.73296 0.19689 0.82788 0.0
N589 N 0.72755 0.20814 0.86465 0.0
C590 C 0.76571 0.2092 0.75902 0.0
H591 H 0.75132 0.19208 0.73898 0.0
H592 H 0.78107 0.20586 0.77124 0.0
H593 H 0.77382 0.22571 0.73246 0.0
C594 C 0.72272 0.10643 0.87214 0.0
N595 N 0.71104 0.11727 0.84813 0.0
N596 N 0.7261 0.14193 0.84583 0.0
C597 C 0.7482 0.14736 0.86863 0.0
C598 C 0.74686 0.12488 0.88505 0.0
C599 C 0.71028 0.07912 0.88759 0.0
H600 H 0.68986 0.07132 0.8939 0.0
H601 H 0.71315 0.06833 0.857 0.0
H602 H 0.71869 0.07669 0.92334 0.0
O603 O 0.65676 0.11127 0.8619 0.0
O604 O 0.67898 0.15289 0.85304 0.0
H605 H 0.76328 0.1865 0.88641 0.0
H606 H 0.78306 0.17368 0.9054 0.0
C607 C 0.77002 0.17342 0.87563 0.0
H608 H 0.78049 0.18005 0.83894 0.0
H609 H 0.71188 0.19896 0.88873 0.0
O610 O 0.66223 0.06669 0.81773 0.0
C611 C 0.65932 0.13294 0.86884 0.0
Co612 Co 0.42755 0.10213 0.32274 0.0
Co613 Co 0.45217 0.16023 0.3181 0.0
C614 C 0.44933 0.13211 0.2237 0.0
O615 O 0.43879 0.11242 0.25177 0.0
O616 O 0.45525 0.15366 0.24231 0.0
C617 C 0.3879 0.0565 0.29005 0.0
O618 O 0.38122 0.07139 0.26705 0.0
C619 C 0.46221 0.21328 0.30665 0.0
C620 C 0.48944 0.23146 0.36949 0.0
C621 C 0.47684 0.23635 0.33113 0.0
N622 N 0.46599 0.19572 0.32997 0.0
N623 N 0.48243 0.20687 0.36722 0.0
C624 C 0.44607 0.20822 0.26028 0.0
H625 H 0.44362 0.19125 0.24006 0.0
H626 H 0.42723 0.20463 0.27204 0.0
H627 H 0.45453 0.22485 0.23403 0.0
C628 C 0.38621 0.10494 0.37373 0.0
N629 N 0.40871 0.11601 0.34966 0.0
N630 N 0.41803 0.14062 0.34726 0.0
C631 C 0.40117 0.14579 0.36991 0.0
C632 C 0.38021 0.12318 0.38649 0.0
C633 C 0.37167 0.07764 0.38935 0.0
H634 H 0.3845 0.07006 0.39536 0.0
H635 H 0.35789 0.0667 0.35901 0.0
H636 H 0.36097 0.07514 0.42532 0.0
O637 O 0.45709 0.1103 0.36362 0.0
O638 O 0.47622 0.1519 0.35457 0.0
H639 H 0.42472 0.18498 0.38785 0.0
H640 H 0.3919 0.17185 0.40539 0.0
C641 C 0.40504 0.17173 0.37636 0.0
H642 H 0.40149 0.17828 0.33923 0.0
H643 H 0.48871 0.1976 0.3916 0.0
O644 O 0.40722 0.06579 0.31838 0.0
C645 C 0.47611 0.13205 0.37047 0.0
Co646 Co 0.89875 0.32907 0.31284 0.0
Co647 Co 0.84098 0.29419 0.30969 0.0
C648 C 0.87044 0.31956 0.21346 0.0
O649 O 0.89031 0.32945 0.24032 0.0
O650 O 0.84903 0.30437 0.23377 0.0
C651 C 0.94828 0.34649 0.28078 0.0
O652 O 0.93716 0.33111 0.24236 0.0
C653 C 0.7902 0.24757 0.30064 0.0
C654 C 0.76814 0.2582 0.3509 0.0
C655 C 0.76618 0.23875 0.3209 0.0
N656 N 0.80555 0.27103 0.31855 0.0
N657 N 0.79208 0.27723 0.34817 0.0
C658 C 0.79811 0.23469 0.26269 0.0
H659 H 0.81634 0.24847 0.24464 0.0
H660 H 0.80038 0.21982 0.28215 0.0
H661 H 0.7834 0.22541 0.23293 0.0
C662 C 0.8974 0.2852 0.36325 0.0
N663 N 0.8857 0.29614 0.33976 0.0
N664 N 0.86116 0.28079 0.34102 0.0
C665 C 0.85667 0.25952 0.36707 0.0
C666 C 0.87957 0.26149 0.381 0.0
C667 C 0.92526 0.29787 0.37116 0.0
H668 H 0.9347 0.30092 0.33342 0.0
H669 H 0.93056 0.28639 0.3957 0.0
H670 H 0.93207 0.31656 0.3891 0.0
O671 O 0.88806 0.34928 0.35157 0.0
O672 O 0.84672 0.32574 0.34543 0.0
H673 H 0.81762 0.24533 0.38492 0.0
H674 H 0.83218 0.23048 0.42021 0.0
C675 C 0.83123 0.23855 0.38255 0.0
H676 H 0.82468 0.22325 0.35395 0.0
H677 H 0.79929 0.29438 0.36728 0.0
O678 O 0.93512 0.34772 0.31671 0.0
C679 C 0.86625 0.34593 0.35984 0.0
Co680 Co 0.67871 0.57768 0.2939 0.0
Co681 Co 0.71276 0.5546 0.30649 0.0
C682 C 0.68789 0.55399 0.20464 0.0
O683 O 0.67679 0.5643 0.22565 0.0
O684 O 0.70383 0.55034 0.22939 0.0
C685 C 0.65743 0.60562 0.25196 0.0
O686 O 0.66385 0.60061 0.20745 0.0
C687 C 0.75937 0.55135 0.30284 0.0
C688 C 0.74759 0.51683 0.34937 0.0
C689 C 0.76764 0.5353 0.32133 0.0
N690 N 0.73566 0.54263 0.31946 0.0
N691 N 0.72878 0.52199 0.34714 0.0
C692 C 0.77289 0.57367 0.26775 0.0
H693 H 0.75919 0.57705 0.24645 0.0
H694 H 0.78493 0.59071 0.2908 0.0
H695 H 0.78504 0.57075 0.24047 0.0
C696 C 0.72263 0.62269 0.33428 0.0
N697 N 0.7121 0.59884 0.31735 0.0
N698 N 0.72558 0.58879 0.33196 0.0
C699 C 0.74419 0.60557 0.36313 0.0
C700 C 0.74285 0.62786 0.36645 0.0
C701 C 0.71453 0.64075 0.31569 0.0
H702 H 0.70899 0.63705 0.27481 0.0
H703 H 0.72993 0.66066 0.31919 0.0
H704 H 0.69795 0.63793 0.33803 0.0
O705 O 0.65812 0.54865 0.34 0.0
O706 O 0.68139 0.53048 0.34405 0.0
H707 H 0.76261 0.606 0.43346 0.0
H708 H 0.78014 0.60916 0.37606 0.0
C709 C 0.76105 0.59934 0.39345 0.0
H710 H 0.75381 0.5787 0.39362 0.0
H711 H 0.71115 0.51128 0.36437 0.0
O712 O 0.66187 0.59728 0.29288 0.0
C713 C 0.66124 0.53059 0.35491 0.0
Co714 Co 0.43774 0.09382 0.92147 0.0
Co715 Co 0.49515 0.11852 0.91217 0.0
C716 C 0.46823 0.11461 1.01419 0.0
O717 O 0.44716 0.10301 0.99186 0.0
O718 O 0.4888 0.12164 0.98955 0.0
C719 C 0.38804 0.07869 0.94857 0.0
O720 O 0.3989 0.09789 0.98 0.0
C721 C 0.54533 0.12225 0.9169 0.0
C722 C 0.56832 0.15787 0.87378 0.0
C723 C 0.5698 0.1388 0.8997 0.0
N724 N 0.53037 0.13124 0.90144 0.0
N725 N 0.54432 0.15257 0.87589 0.0
C726 C 0.53628 0.09911 0.94965 0.0
H727 H 0.51896 0.09513 0.97073 0.0
H728 H 0.53159 0.08268 0.9249 0.0
H729 H 0.55111 0.10144 0.9771 0.0
C730 C 0.43796 0.05043 0.8784 0.0
N731 N 0.45083 0.07406 0.89632 0.0
N732 N 0.47462 0.08456 0.88349 0.0
C733 C 0.47706 0.06823 0.85195 0.0
C734 C 0.45355 0.04586 0.84688 0.0
C735 C 0.41159 0.03202 0.89547 0.0
H736 H 0.409 0.03558 0.93606 0.0
H737 H 0.40744 0.01223 0.89202 0.0
H738 H 0.39801 0.03465 0.87202 0.0
O739 O 0.44678 0.12461 0.88017 0.0
O740 O 0.48817 0.14284 0.87496 0.0
H741 H 0.49613 0.06901 0.78246 0.0
H742 H 0.50939 0.06451 0.84013 0.0
C743 C 0.50061 0.07487 0.82306 0.0
H744 H 0.51414 0.09546 0.82479 0.0
H745 H 0.53746 0.16358 0.8598 0.0
O746 O 0.40143 0.07382 0.91929 0.0
C747 C 0.46787 0.14285 0.86535 0.0
Co748 Co 0.90661 0.34563 0.90243 0.0
Co749 Co 0.88379 0.38059 0.90554 0.0
C750 C 0.88804 0.3554 1.00185 0.0
O751 O 0.8979 0.34541 0.97493 0.0
O752 O 0.88182 0.3706 0.98155 0.0
C753 C 0.93872 0.32829 0.93493 0.0
O754 O 0.94312 0.3439 0.97297 0.0
C755 C 0.87943 0.42715 0.91424 0.0
C756 C 0.84676 0.41635 0.86371 0.0
C757 C 0.86413 0.43583 0.89383 0.0
N758 N 0.87147 0.40372 0.89633 0.0
N759 N 0.85182 0.39743 0.86652 0.0
C760 C 0.90016 0.44012 0.95235 0.0
H761 H 0.90474 0.42643 0.97039 0.0
H762 H 0.91726 0.45511 0.93301 0.0
H763 H 0.89458 0.44926 0.9821 0.0
C764 C 0.94902 0.38933 0.85157 0.0
N765 N 0.92644 0.37848 0.87524 0.0
N766 N 0.91733 0.3939 0.8741 0.0
C767 C 0.93412 0.41514 0.84803 0.0
C768 C 0.95495 0.41307 0.83386 0.0
C769 C 0.96412 0.37658 0.84363 0.0
H770 H 0.9706 0.37359 0.88133 0.0
H771 H 0.98084 0.38798 0.81892 0.0
H772 H 0.95214 0.35786 0.82589 0.0
O773 O 0.87567 0.32538 0.86381 0.0
O774 O 0.85788 0.3489 0.87015 0.0
H775 H 0.90938 0.42948 0.83019 0.0
H776 H 0.93896 0.44454 0.79551 0.0
C777 C 0.92977 0.43624 0.8329 0.0
H778 H 0.93837 0.45133 0.86195 0.0
H779 H 0.84198 0.38027 0.84738 0.0
O780 O 0.92427 0.32692 0.89893 0.0
C781 C 0.85719 0.32871 0.85571 0.0
Co782 Co 0.66114 0.57053 0.90033 0.0
Co783 Co 0.62671 0.5125 0.90038 0.0
C784 C 0.65273 0.5383 0.996 0.0
O785 O 0.66302 0.55866 0.96987 0.0
O786 O 0.63567 0.51771 0.97629 0.0
C787 C 0.66782 0.61638 0.93553 0.0
O788 O 0.64604 0.60171 0.95798 0.0
C789 C 0.58299 0.45963 0.90917 0.0
C790 C 0.59172 0.44196 0.8449 0.0
C791 C 0.57429 0.43685 0.88346 0.0
N792 N 0.60448 0.47728 0.88641 0.0
N793 N 0.60953 0.46644 0.84822 0.0
C794 C 0.57209 0.46419 0.9564 0.0
H795 H 0.58641 0.48147 0.97611 0.0
H796 H 0.55608 0.46682 0.94588 0.0
H797 H 0.56489 0.44762 0.98269 0.0
C798 C 0.617 0.56906 0.85038 0.0
N799 N 0.62819 0.5575 0.87367 0.0
N800 N 0.61286 0.53288 0.87351 0.0
C801 C 0.59115 0.52816 0.85006 0.0
C802 C 0.59293 0.55107 0.83554 0.0
C803 C 0.63005 0.59659 0.83647 0.0
H804 H 0.65049 0.60411 0.83109 0.0
H805 H 0.62708 0.60712 0.86746 0.0
H806 H 0.62223 0.59973 0.80059 0.0
O807 O 0.68194 0.56278 0.8566 0.0
O808 O 0.65932 0.5211 0.86403 0.0
H809 H 0.57616 0.49011 0.82448 0.0
H810 H 0.55548 0.50289 0.81437 0.0
C811 C 0.56937 0.50232 0.84071 0.0
H812 H 0.55992 0.49394 0.87772 0.0
H813 H 0.62514 0.47583 0.82406 0.0
O814 O 0.67763 0.60689 0.9072 0.0
C815 C 0.67911 0.54106 0.84861 0.0
Co816 Co 0.57857 0.90472 0.72729 0.0
Co817 Co 0.55441 0.84661 0.73134 0.0
C818 C 0.55634 0.87426 0.82576 0.0
O819 O 0.56677 0.89401 0.79783 0.0
O820 O 0.551 0.85287 0.80715 0.0
C821 C 0.61801 0.95032 0.76094 0.0
O822 O 0.62472 0.93538 0.78361 0.0
C823 C 0.5452 0.7938 0.74202 0.0
C824 C 0.5177 0.77537 0.67971 0.0
C825 C 0.5307 0.77071 0.71755 0.0
N826 N 0.54097 0.81117 0.71919 0.0
N827 N 0.52439 0.79988 0.68224 0.0
C828 C 0.56157 0.79897 0.78805 0.0
H829 H 0.56451 0.81626 0.8077 0.0
H830 H 0.58017 0.80198 0.77607 0.0
H831 H 0.55297 0.78257 0.81486 0.0
C832 C 0.62028 0.90244 0.67667 0.0
N833 N 0.59773 0.89115 0.70057 0.0
N834 N 0.58858 0.86656 0.70262 0.0
C835 C 0.6056 0.86163 0.6799 0.0
C836 C 0.62649 0.88438 0.66367 0.0
C837 C 0.63464 0.92979 0.66128 0.0
H838 H 0.62167 0.93722 0.65542 0.0
H839 H 0.64837 0.94074 0.69168 0.0
H840 H 0.64536 0.93244 0.62529 0.0
O841 O 0.54918 0.89644 0.68579 0.0
O842 O 0.53022 0.85484 0.69482 0.0
H843 H 0.58231 0.82248 0.66142 0.0
H844 H 0.61516 0.83589 0.6439 0.0
C845 C 0.60196 0.8358 0.67301 0.0
H846 H 0.60558 0.8292 0.70999 0.0
H847 H 0.51777 0.80898 0.65827 0.0
O848 O 0.59873 0.94109 0.73248 0.0
C849 C 0.53023 0.87465 0.6789 0.0
Co850 Co 0.10677 0.67786 0.73628 0.0
Co851 Co 0.16449 0.71322 0.73935 0.0
C852 C 0.13541 0.68782 0.8356 0.0
O853 O 0.11557 0.67767 0.80863 0.0
O854 O 0.15677 0.70326 0.81539 0.0
C855 C 0.05744 0.66067 0.76918 0.0
O856 O 0.06878 0.67679 0.80641 0.0
C857 C 0.21549 0.75975 0.74797 0.0
C858 C 0.23686 0.74952 0.6948 0.0
C859 C 0.23927 0.76864 0.72643 0.0
N860 N 0.19983 0.73652 0.7293 0.0
N861 N 0.21289 0.73058 0.69788 0.0
C862 C 0.20816 0.77226 0.78793 0.0
H863 H 0.18927 0.75881 0.80388 0.0
H864 H 0.2077 0.78869 0.7711 0.0
H865 H 0.22237 0.77943 0.81902 0.0
C866 C 0.10757 0.72176 0.6871 0.0
N867 N 0.11947 0.71074 0.70944 0.0
N868 N 0.14397 0.72631 0.7084 0.0
C869 C 0.14826 0.74781 0.68367 0.0
C870 C 0.12525 0.74576 0.67037 0.0
C871 C 0.07972 0.70884 0.6788 0.0
H872 H 0.07292 0.68967 0.66327 0.0
H873 H 0.07021 0.70689 0.71607 0.0
H874 H 0.07451 0.71957 0.65185 0.0
O875 O 0.11753 0.65787 0.69715 0.0
O876 O 0.15881 0.68159 0.70397 0.0
H877 H 0.18738 0.76321 0.66522 0.0
H878 H 0.17297 0.77992 0.63664 0.0
C879 C 0.17369 0.76969 0.67135 0.0
H880 H 0.18004 0.78307 0.70375 0.0
H881 H 0.20538 0.71365 0.67784 0.0
O882 O 0.07039 0.6589 0.73348 0.0
C883 C 0.13941 0.66137 0.68923 0.0
Co884 Co 0.32762 0.43022 0.75604 0.0
Co885 Co 0.29347 0.45324 0.7443 0.0
C886 C 0.31889 0.45414 0.84552 0.0
O887 O 0.33002 0.44395 0.82412 0.0
O888 O 0.30265 0.45753 0.82127 0.0
C889 C 0.34922 0.40241 0.79742 0.0
O890 O 0.34314 0.40759 0.84211 0.0
C891 C 0.24694 0.45666 0.74856 0.0
C892 C 0.25864 0.49104 0.70163 0.0
C893 C 0.23865 0.47269 0.73002 0.0
N894 N 0.27059 0.46527 0.73163 0.0
N895 N 0.27741 0.48584 0.70373 0.0
C896 C 0.23351 0.43443 0.78393 0.0
H897 H 0.24727 0.43112 0.80516 0.0
H898 H 0.22143 0.41733 0.7611 0.0
H899 H 0.22144 0.43743 0.81127 0.0
C900 C 0.28343 0.38509 0.71701 0.0
N901 N 0.29406 0.409 0.73353 0.0
N902 N 0.28056 0.41904 0.71898 0.0
C903 C 0.26184 0.40218 0.68812 0.0
C904 C 0.26312 0.37984 0.685 0.0
C905 C 0.29147 0.36705 0.73608 0.0
H906 H 0.2972 0.37104 0.77682 0.0
H907 H 0.27597 0.34716 0.73319 0.0
H908 H 0.30793 0.36962 0.71365 0.0
O909 O 0.34792 0.45906 0.70936 0.0
O910 O 0.32472 0.47731 0.70633 0.0
H911 H 0.24333 0.40173 0.61791 0.0
H912 H 0.22583 0.39849 0.67541 0.0
C913 C 0.2449 0.40836 0.65795 0.0
H914 H 0.25209 0.42899 0.65783 0.0
H915 H 0.29499 0.49646 0.68621 0.0
O916 O 0.34446 0.41058 0.75665 0.0
C917 C 0.34476 0.47714 0.69481 0.0
Co918 Co 0.56819 0.91258 0.12589 0.0
Co919 Co 0.51072 0.88806 0.13743 0.0
C920 C 0.53629 0.89041 0.03495 0.0
O921 O 0.55756 0.90175 0.05651 0.0
O922 O 0.51604 0.8843 0.06001 0.0
C923 C 0.61769 0.94128 0.08582 0.0
O924 O 0.60649 0.93679 0.04109 0.0
C925 C 0.4606 0.88425 0.13337 0.0
C926 C 0.43795 0.8494 0.17899 0.0
C927 C 0.43627 0.86798 0.15158 0.0
N928 N 0.47568 0.87556 0.14962 0.0
N929 N 0.46196 0.8547 0.17671 0.0
C930 C 0.4694 0.90682 0.09897 0.0
H931 H 0.48653 0.9104 0.07765 0.0
H932 H 0.47433 0.92367 0.12256 0.0
H933 H 0.45436 0.90404 0.0717 0.0
C934 C 0.56823 0.95645 0.16827 0.0
N935 N 0.5553 0.93272 0.15079 0.0
N936 N 0.53162 0.92221 0.1646 0.0
C937 C 0.52936 0.9386 0.19621 0.0
C938 C 0.55283 0.96107 0.2004 0.0
C939 C 0.59432 0.97499 0.15003 0.0
H940 H 0.59626 0.97167 0.10898 0.0
H941 H 0.5985 0.99476 0.15427 0.0
H942 H 0.60826 0.97229 0.17202 0.0
O943 O 0.55949 0.88241 0.16907 0.0
O944 O 0.51809 0.86409 0.17481 0.0
H945 H 0.51083 0.93826 0.26623 0.0
H946 H 0.49678 0.94183 0.20873 0.0
C947 C 0.50602 0.93194 0.22595 0.0
H948 H 0.49273 0.91128 0.22527 0.0
H949 H 0.46895 0.84398 0.19364 0.0
O950 O 0.60471 0.93248 0.12637 0.0
C951 C 0.53847 0.86426 0.1845 0.0
Co952 Co 0.099 0.66231 0.14641 0.0
Co953 Co 0.12157 0.62713 0.14398 0.0
C954 C 0.11769 0.6523 0.04738 0.0
O955 O 0.10789 0.66241 0.07408 0.0
O956 O 0.12375 0.63702 0.06786 0.0
C957 C 0.06694 0.67964 0.11338 0.0
O958 O 0.0623 0.66375 0.07577 0.0
C959 C 0.12605 0.58062 0.13566 0.0
C960 C 0.15794 0.59107 0.18826 0.0
C961 C 0.14107 0.57183 0.15702 0.0
N962 N 0.1337 0.60391 0.15405 0.0
N963 N 0.15288 0.60998 0.18513 0.0
C964 C 0.10597 0.56794 0.09613 0.0
H965 H 0.10072 0.58143 0.07961 0.0
H966 H 0.08904 0.55185 0.11362 0.0
H967 H 0.11267 0.56028 0.06541 0.0
C968 C 0.05601 0.61843 0.19579 0.0
N969 N 0.07892 0.62946 0.17346 0.0
N970 N 0.08797 0.614 0.17493 0.0
C971 C 0.07086 0.59258 0.20003 0.0
C972 C 0.04983 0.59454 0.21305 0.0
C973 C 0.04096 0.63125 0.20358 0.0
H974 H 0.05319 0.65036 0.21951 0.0
H975 H 0.03367 0.63333 0.16606 0.0
H976 H 0.02483 0.6204 0.23001 0.0
O977 O 0.12982 0.68245 0.1854 0.0
O978 O 0.14749 0.65881 0.17927 0.0
H979 H 0.09486 0.57749 0.21856 0.0
H980 H 0.06411 0.56118 0.24869 0.0
C981 C 0.07461 0.5709 0.21323 0.0
H982 H 0.06716 0.55703 0.1817 0.0
H983 H 0.1624 0.62699 0.20489 0.0
O984 O 0.08152 0.68119 0.14925 0.0
C985 C 0.14824 0.67904 0.19363 0.0
Co986 Co 0.34421 0.43712 0.14965 0.0
Co987 Co 0.37923 0.49495 0.15061 0.0
C988 C 0.35345 0.46985 0.0545 0.0
O989 O 0.34269 0.44942 0.08033 0.0
O990 O 0.37073 0.4902 0.07454 0.0
C991 C 0.33772 0.39175 0.11311 0.0
O992 O 0.35967 0.40669 0.09156 0.0
C993 C 0.42316 0.54764 0.14228 0.0
C994 C 0.41461 0.56534 0.20678 0.0
C995 C 0.43194 0.57042 0.16803 0.0
N996 N 0.4017 0.53003 0.16516 0.0
N997 N 0.39676 0.54087 0.20351 0.0
C998 C 0.43395 0.54307 0.09492 0.0
H999 H 0.41956 0.52587 0.07511 0.0
H1000 H 0.44987 0.54026 0.10533 0.0
H1001 H 0.44126 0.55969 0.06874 0.0
C1002 C 0.38773 0.43764 0.2002 0.0
N1003 N 0.37696 0.4496 0.1769 0.0
N1004 N 0.3926 0.47415 0.17736 0.0
C1005 C 0.41415 0.47842 0.20087 0.0
C1006 C 0.4119 0.45528 0.21527 0.0
C1007 C 0.37421 0.41008 0.21386 0.0
H1008 H 0.3538 0.40286 0.21878 0.0
H1009 H 0.37713 0.39945 0.18298 0.0
H1010 H 0.3817 0.40669 0.24994 0.0
O1011 O 0.32351 0.44486 0.19347 0.0
O1012 O 0.3465 0.48654 0.18641 0.0
H1013 H 0.42987 0.51648 0.22688 0.0
H1014 H 0.45018 0.50318 0.2359 0.0
C1015 C 0.43628 0.50407 0.2101 0.0
H1016 H 0.44556 0.51244 0.17294 0.0
H1017 H 0.38117 0.5315 0.22772 0.0
O1018 O 0.32762 0.40087 0.14162 0.0
C1019 C 0.32655 0.46665 0.20157 0.0
Co1020 Co 0.09448 0.43637 0.65578 0.0
Co1021 Co 0.11886 0.49445 0.65067 0.0
C1022 C 0.11637 0.4663 0.55665 0.0
O1023 O 0.10592 0.44667 0.5849 0.0
O1024 O 0.12202 0.48783 0.57497 0.0
C1025 C 0.05493 0.39071 0.62302 0.0
O1026 O 0.04824 0.40559 0.59999 0.0
C1027 C 0.12848 0.54734 0.63913 0.0
C1028 C 0.15586 0.56576 0.70163 0.0
C1029 C 0.14302 0.57045 0.66349 0.0
N1030 N 0.13253 0.52993 0.66233 0.0
N1031 N 0.14906 0.54122 0.69936 0.0
C1032 C 0.11218 0.54212 0.59296 0.0
H1033 H 0.10964 0.52507 0.57295 0.0
H1034 H 0.0934 0.53862 0.60489 0.0
H1035 H 0.12058 0.55866 0.56648 0.0
C1036 C 0.053 0.43905 0.70641 0.0
N1037 N 0.07551 0.45017 0.68238 0.0
N1038 N 0.08473 0.47476 0.67982 0.0
C1039 C 0.0678 0.47987 0.70236 0.0
C1040 C 0.0469 0.45723 0.719 0.0
C1041 C 0.03855 0.41177 0.72221 0.0
H1042 H 0.05144 0.40427 0.72831 0.0
H1043 H 0.02478 0.40074 0.69191 0.0
H1044 H 0.02785 0.40929 0.75816 0.0
O1045 O 0.12396 0.44468 0.69696 0.0
O1046 O 0.14302 0.48624 0.68715 0.0
H1047 H 0.09125 0.51914 0.71978 0.0
H1048 H 0.0585 0.50587 0.738 0.0
C1049 C 0.07154 0.50577 0.7087 0.0
H1050 H 0.06772 0.51215 0.67166 0.0
H1051 H 0.15554 0.53209 0.72362 0.0
O1052 O 0.07422 0.40002 0.65141 0.0
C1053 C 0.14298 0.46647 0.7034 0.0
Co1054 Co 0.56534 0.66141 0.64621 0.0
Co1055 Co 0.50758 0.62732 0.64268 0.0
C1056 C 0.53735 0.6523 0.54659 0.0
O1057 O 0.55715 0.662 0.57363 0.0
O1058 O 0.51586 0.63731 0.56674 0.0
C1059 C 0.61427 0.67678 0.61386 0.0
O1060 O 0.6027 0.6633 0.57339 0.0
C1061 C 0.45678 0.58117 0.63248 0.0
C1062 C 0.43444 0.59196 0.68146 0.0
C1063 C 0.43261 0.57247 0.65174 0.0
N1064 N 0.47207 0.60456 0.6507 0.0
N1065 N 0.45845 0.61089 0.67952 0.0
C1066 C 0.46498 0.56821 0.59533 0.0
H1067 H 0.48272 0.58217 0.57591 0.0
H1068 H 0.46843 0.55436 0.61593 0.0
H1069 H 0.45 0.55779 0.56661 0.0
C1070 C 0.56315 0.61753 0.698 0.0
N1071 N 0.55172 0.62852 0.67358 0.0
N1072 N 0.52715 0.61346 0.67487 0.0
C1073 C 0.52235 0.59233 0.70193 0.0
C1074 C 0.5451 0.5941 0.71647 0.0
C1075 C 0.59097 0.62993 0.70645 0.0
H1076 H 0.60054 0.63278 0.66896 0.0
H1077 H 0.59601 0.61837 0.73133 0.0
H1078 H 0.59788 0.64865 0.72433 0.0
O1079 O 0.55524 0.68228 0.68454 0.0
O1080 O 0.51384 0.65915 0.67799 0.0
H1081 H 0.48328 0.57879 0.7186 0.0
H1082 H 0.49758 0.56453 0.75673 0.0
C1083 C 0.49678 0.57182 0.71808 0.0
H1084 H 0.49019 0.5559 0.69096 0.0
H1085 H 0.46561 0.62804 0.6986 0.0
O1086 O 0.60162 0.67846 0.65032 0.0
C1087 C 0.5335 0.67924 0.69238 0.0
Co1088 Co 0.34711 0.91259 0.62843 0.0
Co1089 Co 0.3797 0.8878 0.63815 0.0
C1090 C 0.35669 0.89171 0.53594 0.0
O1091 O 0.3473 0.90341 0.55805 0.0
O1092 O 0.37016 0.88463 0.56077 0.0
C1093 C 0.31283 0.92812 0.60107 0.0
O1094 O 0.30463 0.90924 0.56883 0.0
C1095 C 0.42617 0.88426 0.63278 0.0
C1096 C 0.41398 0.84883 0.67633 0.0
C1097 C 0.43432 0.86787 0.64991 0.0
N1098 N 0.4023 0.8752 0.64875 0.0
N1099 N 0.39517 0.85399 0.67455 0.0
C1100 C 0.43997 0.90731 0.59966 0.0
H1101 H 0.42643 0.91108 0.57876 0.0
H1102 H 0.45174 0.92385 0.62413 0.0
H1103 H 0.45239 0.905 0.57202 0.0
C1104 C 0.39076 0.95598 0.67138 0.0
N1105 N 0.37996 0.93233 0.65361 0.0
N1106 N 0.39318 0.92178 0.66668 0.0
C1107 C 0.41196 0.93812 0.69824 0.0
C1108 C 0.4109 0.96054 0.70308 0.0
C1109 C 0.38292 0.97443 0.65394 0.0
H1110 H 0.37676 0.97079 0.61335 0.0
H1111 H 0.39863 0.99421 0.65727 0.0
H1112 H 0.36673 0.97193 0.67725 0.0
O1113 O 0.32536 0.88181 0.66968 0.0
O1114 O 0.34841 0.86347 0.67541 0.0
H1115 H 0.43029 0.9374 0.7678 0.0
H1116 H 0.44798 0.94175 0.71014 0.0
C1117 C 0.42885 0.93147 0.72725 0.0
H1118 H 0.42173 0.91086 0.72568 0.0
H1119 H 0.3774 0.84296 0.69104 0.0
O1120 O 0.33086 0.93262 0.63078 0.0
C1121 C 0.32812 0.86354 0.68474 0.0
Co1122 Co 0.10521 0.42793 0.25531 0.0
Co1123 Co 0.16267 0.45283 0.24535 0.0
C1124 C 0.13586 0.4489 0.34765 0.0
O1125 O 0.11473 0.43716 0.32561 0.0
O1126 O 0.15639 0.45599 0.32276 0.0
C1127 C 0.05538 0.41221 0.2832 0.0
O1128 O 0.06611 0.43099 0.31565 0.0
C1129 C 0.21285 0.45656 0.25001 0.0
C1130 C 0.23586 0.4921 0.20668 0.0
C1131 C 0.23732 0.47306 0.23272 0.0
N1132 N 0.1979 0.46556 0.23448 0.0
N1133 N 0.21186 0.48684 0.20881 0.0
C1134 C 0.20377 0.43346 0.2829 0.0
H1135 H 0.18648 0.42956 0.30401 0.0
H1136 H 0.19901 0.41699 0.25823 0.0
H1137 H 0.2186 0.43579 0.31034 0.0
C1138 C 0.1055 0.38462 0.21216 0.0
N1139 N 0.11836 0.40826 0.23001 0.0
N1140 N 0.14212 0.41884 0.21683 0.0
C1141 C 0.14451 0.40254 0.18512 0.0
C1142 C 0.12104 0.38011 0.1803 0.0
C1143 C 0.07922 0.36614 0.2296 0.0
H1144 H 0.07675 0.36972 0.27024 0.0
H1145 H 0.07516 0.34637 0.22612 0.0
H1146 H 0.0655 0.36866 0.20641 0.0
O1147 O 0.11414 0.45869 0.21405 0.0
O1148 O 0.15554 0.47709 0.20822 0.0
H1149 H 0.16342 0.40337 0.11535 0.0
H1150 H 0.1769 0.39895 0.1728 0.0
C1151 C 0.168 0.40925 0.15591 0.0
H1152 H 0.18148 0.42985 0.15757 0.0
H1153 H 0.20501 0.49785 0.19263 0.0
O1154 O 0.06889 0.40784 0.25318 0.0
C1155 C 0.13515 0.47698 0.19896 0.0
Co1156 Co 0.57566 0.68064 0.23607 0.0
Co1157 Co 0.55164 0.71448 0.23991 0.0
C1158 C 0.55646 0.68925 0.33574 0.0
O1159 O 0.56676 0.67974 0.30873 0.0
O1160 O 0.54992 0.70425 0.31565 0.0
C1161 C 0.60884 0.66434 0.26729 0.0
O1162 O 0.61072 0.67726 0.30866 0.0
C1163 C 0.54696 0.76066 0.24949 0.0
C1164 C 0.51359 0.74954 0.20093 0.0
C1165 C 0.53143 0.76923 0.23 0.0
N1166 N 0.53874 0.73712 0.23197 0.0
N1167 N 0.51864 0.7306 0.20344 0.0
C1168 C 0.56827 0.77386 0.2863 0.0
H1169 H 0.57271 0.76017 0.30482 0.0
H1170 H 0.58526 0.78829 0.26574 0.0
H1171 H 0.5634 0.78371 0.31577 0.0
C1172 C 0.61741 0.725 0.18554 0.0
N1173 N 0.59483 0.71368 0.20932 0.0
N1174 N 0.58511 0.72855 0.20789 0.0
C1175 C 0.60138 0.74982 0.18118 0.0
C1176 C 0.62261 0.74841 0.16726 0.0
C1177 C 0.63312 0.7129 0.17746 0.0
H1178 H 0.63938 0.70965 0.21517 0.0
H1179 H 0.65 0.72486 0.15358 0.0
H1180 H 0.62167 0.69438 0.15856 0.0
O1181 O 0.54463 0.6598 0.19771 0.0
O1182 O 0.52614 0.68268 0.20463 0.0
H1183 H 0.57561 0.76301 0.16406 0.0
H1184 H 0.60416 0.77738 0.12604 0.0
C1185 C 0.5961 0.77014 0.16472 0.0
H1186 H 0.60537 0.78615 0.19164 0.0
H1187 H 0.50855 0.71332 0.18482 0.0
O1188 O 0.59481 0.66349 0.23088 0.0
C1189 C 0.52581 0.66267 0.19014 0.0
Co1190 Co 0.32835 0.90419 0.2274 0.0
Co1191 Co 0.29463 0.84611 0.23228 0.0
C1192 C 0.32011 0.87423 0.32654 0.0
O1193 O 0.32934 0.89389 0.29835 0.0
O1194 O 0.30432 0.8527 0.30806 0.0
C1195 C 0.33452 0.94986 0.26009 0.0
O1196 O 0.31295 0.93499 0.28308 0.0
C1197 C 0.25126 0.79325 0.24366 0.0
C1198 C 0.26034 0.77473 0.18161 0.0
C1199 C 0.24272 0.7701 0.21947 0.0
N1200 N 0.27279 0.81061 0.22064 0.0
N1201 N 0.27809 0.79927 0.18387 0.0
C1202 C 0.24009 0.79853 0.28953 0.0
H1203 H 0.25454 0.81565 0.30948 0.0
H1204 H 0.22478 0.80194 0.27726 0.0
H1205 H 0.23194 0.78205 0.31617 0.0
C1206 C 0.28428 0.90158 0.17643 0.0
N1207 N 0.29563 0.89042 0.20051 0.0
N1208 N 0.28024 0.86583 0.20298 0.0
C1209 C 0.25821 0.86077 0.18035 0.0
C1210 C 0.25999 0.88344 0.16375 0.0
C1211 C 0.29714 0.92889 0.16076 0.0
H1212 H 0.31754 0.93637 0.15472 0.0
H1213 H 0.29441 0.93989 0.19108 0.0
H1214 H 0.28894 0.93141 0.12479 0.0
O1215 O 0.34956 0.89586 0.18652 0.0
O1216 O 0.32703 0.85429 0.19596 0.0
H1217 H 0.24231 0.82145 0.16333 0.0
H1218 H 0.22301 0.83482 0.14425 0.0
C1219 C 0.236 0.8349 0.17393 0.0
H1220 H 0.22565 0.82863 0.2108 0.0
H1221 H 0.29376 0.80836 0.15979 0.0
O1222 O 0.34449 0.94054 0.23174 0.0
C1223 C 0.34679 0.87409 0.17993 0.0
C1224 C 0.21852 0.0564 0.06278 0.0
C1225 C 0.19688 0.03405 0.04718 0.0
H1226 H 0.23534 0.09591 0.07729 0.0
C1227 C 0.1741 0.03406 0.04275 0.0
H1228 H 0.23641 0.05709 0.0667 0.0
C1229 C 0.1735 0.05643 0.04927 0.0
C1230 C 0.19556 0.0792 0.06092 0.0
H1231 H 0.15706 0.01724 0.03092 0.0
H1232 H 0.15598 0.05619 0.04253 0.0
C1233 C 0.21788 0.07873 0.06946 0.0
C1234 C 0.92845 0.14983 0.05653 0.0
C1235 C 0.93011 0.12788 0.06253 0.0
H1236 H 0.94787 0.18935 0.03818 0.0
C1237 C 0.95395 0.12999 0.06084 0.0
H1238 H 0.91037 0.14882 0.05629 0.0
C1239 C 0.97548 0.15319 0.05008 0.0
C1240 C 0.97365 0.17483 0.04015 0.0
H1241 H 0.95579 0.11337 0.06529 0.0
H1242 H 0.99334 0.15379 0.04662 0.0
C1243 C 0.95001 0.17309 0.04553 0.0
C1244 C 0.83416 0.78 0.06098 0.0
C1245 C 0.83288 0.80217 0.05371 0.0
H1246 H 0.8576 0.76373 0.0692 0.0
C1247 C 0.85511 0.82564 0.0578 0.0
H1248 H 0.81745 0.76154 0.05793 0.0
C1249 C 0.87824 0.82686 0.06523 0.0
C1250 C 0.87974 0.80467 0.06875 0.0
H1251 H 0.85486 0.8431 0.0526 0.0
H1252 H 0.89515 0.84527 0.06592 0.0
C1253 C 0.85733 0.78123 0.06801 0.0
C1254 C 0.03503 0.18342 0.49014 0.0
C1255 C 0.03636 0.20693 0.49422 0.0
H1256 H 0.05538 0.1637 0.48278 0.0
C1257 C 0.05989 0.22907 0.48766 0.0
H1258 H 0.01726 0.16599 0.49479 0.0
C1259 C 0.08182 0.22777 0.48138 0.0
C1260 C 0.08068 0.20428 0.4807 0.0
H1261 H 0.0617 0.24755 0.49073 0.0
H1262 H 0.09964 0.24523 0.48075 0.0
C1263 C 0.05694 0.18213 0.48346 0.0
C1264 C 0.78028 0.83484 0.50157 0.0
C1265 C 0.80213 0.83299 0.50653 0.0
H1266 H 0.76504 0.85926 0.49145 0.0
C1267 C 0.82561 0.85452 0.49615 0.0
H1268 H 0.76187 0.81864 0.50926 0.0
C1269 C 0.82735 0.87777 0.48554 0.0
C1270 C 0.80569 0.88 0.48446 0.0
H1271 H 0.84284 0.85384 0.49925 0.0
H1272 H 0.84584 0.89433 0.48085 0.0
C1273 C 0.78205 0.85814 0.49073 0.0
C1274 C 0.12095 0.95096 0.50175 0.0
C1275 C 0.12014 0.92807 0.49091 0.0
H1276 H 0.14382 0.99023 0.51937 0.0
C1277 C 0.1429 0.92836 0.48323 0.0
H1278 H 0.1037 0.95134 0.5078 0.0
C1279 C 0.16592 0.95067 0.48985 0.0
C1280 C 0.16672 0.97316 0.50456 0.0
H1281 H 0.1431 0.9111 0.47606 0.0
H1282 H 0.18307 0.94985 0.48656 0.0
C1283 C 0.14397 0.97329 0.50822 0.0
C1284 C 0.78672 0.92905 0.98241 0.0
C1285 C 0.80927 0.92879 0.98904 0.0
H1286 H 0.76807 0.95056 0.98694 0.0
C1287 C 0.83145 0.9517 0.99913 0.0
H1288 H 0.76919 0.91174 0.97586 0.0
C1289 C 0.83085 0.97405 1.00584 0.0
C1290 C 0.80794 0.97393 1.00325 0.0
H1291 H 0.84914 0.95209 1.00442 0.0
H1292 H 0.84807 0.99102 1.01631 0.0
C1293 C 0.78607 0.95138 0.98936 0.0
C1294 C 0.05234 0.87803 0.98839 0.0
C1295 C 0.07611 0.87998 0.98689 0.0
H1296 H 0.01288 0.85441 1.00223 0.0
C1297 C 0.07759 0.85792 0.99267 0.0
H1298 H 0.05064 0.89474 0.98411 0.0
C1299 C 0.05591 0.83471 1.00335 0.0
C1300 C 0.03233 0.83313 1.00863 0.0
H1301 H 0.09562 0.85881 0.99306 0.0
H1302 H 0.05791 0.81836 1.0106 0.0
C1303 C 0.03068 0.85488 0.99883 0.0
C1304 C 0.14863 0.2271 0.9814 0.0
C1305 C 0.12622 0.20366 0.98059 0.0
H1306 H 0.1885 0.24679 0.99153 0.0
C1307 C 0.12771 0.18146 0.98405 0.0
H1308 H 0.14834 0.2446 0.98024 0.0
C1309 C 0.15084 0.18268 0.99147 0.0
C1310 C 0.17306 0.20615 0.99563 0.0
H1311 H 0.1108 0.16306 0.98331 0.0
H1312 H 0.15109 0.16522 0.9966 0.0
C1313 C 0.17178 0.22833 0.98843 0.0
C1314 C 0.94655 0.77879 0.56002 0.0
C1315 C 0.97007 0.80094 0.55337 0.0
H1316 H 0.90677 0.76258 0.56678 0.0
C1317 C 0.97133 0.82444 0.55699 0.0
H1318 H 0.94481 0.76032 0.5573 0.0
C1319 C 0.94939 0.8257 0.56324 0.0
C1320 C 0.92568 0.80353 0.56614 0.0
H1321 H 0.98908 0.84189 0.55226 0.0
H1322 H 0.9509 0.84411 0.56354 0.0
C1323 C 0.9246 0.78006 0.56597 0.0
C1324 C 0.18037 0.15281 0.55131 0.0
C1325 C 0.20386 0.17447 0.54175 0.0
H1326 H 0.16022 0.11294 0.56593 0.0
C1327 C 0.22575 0.17273 0.54723 0.0
H1328 H 0.16311 0.15341 0.54775 0.0
C1329 C 0.22405 0.14945 0.55795 0.0
C1330 C 0.20044 0.12748 0.56355 0.0
H1331 H 0.24417 0.18903 0.54018 0.0
H1332 H 0.24112 0.14845 0.55777 0.0
C1333 C 0.17869 0.12958 0.56179 0.0
C1334 C 0.86394 0.0792 0.56729 0.0
C1335 C 0.88672 0.07981 0.55774 0.0
H1336 H 0.82376 0.05738 0.56595 0.0
C1337 C 0.88604 0.0571 0.54567 0.0
H1338 H 0.86363 0.09632 0.57548 0.0
C1339 C 0.86306 0.03464 0.53976 0.0
C1340 C 0.84024 0.0345 0.54522 0.0
H1341 H 0.90331 0.05696 0.53818 0.0
H1342 H 0.86326 0.01787 0.52755 0.0
C1343 C 0.84097 0.05679 0.56124 0.0
C1344 C 0.88575 0.39005 0.39377 0.0
C1345 C 0.86406 0.36756 0.37899 0.0
H1346 H 0.90248 0.42961 0.40767 0.0
C1347 C 0.84116 0.3674 0.37536 0.0
H1348 H 0.90373 0.39089 0.39705 0.0
C1349 C 0.84046 0.38972 0.38191 0.0
C1350 C 0.86254 0.41261 0.39279 0.0
H1351 H 0.82407 0.35046 0.36417 0.0
H1352 H 0.82281 0.38932 0.37586 0.0
C1353 C 0.88501 0.41234 0.40047 0.0
C1354 C 0.64147 0.48595 0.38744 0.0
C1355 C 0.63966 0.50763 0.37797 0.0
H1356 H 0.62171 0.44604 0.40153 0.0
C1357 C 0.61604 0.5059 0.38364 0.0
H1358 H 0.65932 0.48654 0.38377 0.0
C1359 C 0.59443 0.48259 0.39405 0.0
C1360 C 0.59605 0.46059 0.39918 0.0
H1361 H 0.61391 0.5222 0.37668 0.0
H1362 H 0.57636 0.48161 0.39382 0.0
C1363 C 0.61989 0.4627 0.39764 0.0
C1364 C 0.50124 0.11173 0.39601 0.0
C1365 C 0.49975 0.13381 0.38928 0.0
H1366 H 0.52496 0.09572 0.40314 0.0
C1367 C 0.52188 0.15737 0.3933 0.0
H1368 H 0.4846 0.09321 0.39299 0.0
C1369 C 0.54513 0.15877 0.40006 0.0
C1370 C 0.54682 0.13668 0.40298 0.0
H1371 H 0.52147 0.17476 0.38852 0.0
H1372 H 0.56196 0.17724 0.40067 0.0
C1373 C 0.52452 0.11315 0.40238 0.0
C1374 C 0.69962 0.51594 0.82442 0.0
C1375 C 0.70097 0.53944 0.82906 0.0
H1376 H 0.71991 0.49621 0.8158 0.0
C1377 C 0.72449 0.56158 0.82218 0.0
H1378 H 0.68187 0.4985 0.82931 0.0
C1379 C 0.74637 0.56028 0.81502 0.0
C1380 C 0.74524 0.53679 0.81378 0.0
H1381 H 0.72632 0.58006 0.82565 0.0
H1382 H 0.7642 0.57774 0.81413 0.0
C1383 C 0.72149 0.51465 0.81689 0.0
C1384 C 0.49252 0.18752 0.83279 0.0
C1385 C 0.46909 0.16586 0.84291 0.0
H1386 H 0.51251 0.22731 0.81722 0.0
C1387 C 0.44714 0.16751 0.83757 0.0
H1388 H 0.50982 0.18699 0.83622 0.0
C1389 C 0.44874 0.19071 0.82638 0.0
C1390 C 0.4723 0.21269 0.82016 0.0
H1391 H 0.42877 0.15122 0.84506 0.0
H1392 H 0.43163 0.19165 0.82664 0.0
C1393 C 0.49408 0.21066 0.82184 0.0
C1394 C 0.81051 0.30697 0.84143 0.0
C1395 C 0.83333 0.30704 0.83676 0.0
H1396 H 0.77025 0.28476 0.84205 0.0
C1397 C 0.83262 0.2847 0.8212 0.0
H1398 H 0.81029 0.32379 0.85326 0.0
C1399 C 0.80965 0.26233 0.81475 0.0
C1400 C 0.78685 0.26181 0.8235 0.0
H1401 H 0.84983 0.28405 0.81711 0.0
H1402 H 0.80995 0.24517 0.80692 0.0
C1403 C 0.78754 0.28456 0.83516 0.0
C1404 C 0.49939 0.28342 0.33764 0.0
C1405 C 0.47741 0.26076 0.32504 0.0
H1406 H 0.51579 0.3226 0.35615 0.0
C1407 C 0.45532 0.26144 0.31483 0.0
H1408 H 0.51674 0.2835 0.34564 0.0
C1409 C 0.45477 0.28385 0.32079 0.0
C1410 C 0.47626 0.30607 0.33739 0.0
H1411 H 0.43791 0.24436 0.30621 0.0
H1412 H 0.43701 0.2833 0.31557 0.0
C1413 C 0.49888 0.30588 0.34348 0.0
C1414 C 0.71954 0.21126 0.32079 0.0
C1415 C 0.74337 0.21334 0.31921 0.0
H1416 H 0.68012 0.18747 0.33485 0.0
C1417 C 0.74501 0.19139 0.32515 0.0
H1418 H 0.71772 0.22789 0.31639 0.0
C1419 C 0.72342 0.16813 0.33603 0.0
C1420 C 0.69978 0.1664 0.34135 0.0
H1421 H 0.76308 0.19239 0.3255 0.0
H1422 H 0.72554 0.15185 0.34337 0.0
C1423 C 0.69797 0.18805 0.33143 0.0
C1424 C 0.81723 0.51608 0.32674 0.0
C1425 C 0.83953 0.53958 0.3295 0.0
H1426 H 0.77708 0.49644 0.32116 0.0
C1427 C 0.83821 0.56171 0.32214 0.0
H1428 H 0.81751 0.49864 0.33202 0.0
C1429 C 0.81497 0.56045 0.31639 0.0
C1430 C 0.79255 0.53701 0.31718 0.0
H1431 H 0.85498 0.58018 0.32417 0.0
H1432 H 0.81465 0.57794 0.315 0.0
C1433 C 0.79403 0.51483 0.32073 0.0
C1434 C 0.61669 0.15918 0.89938 0.0
C1435 C 0.593 0.13699 0.90255 0.0
H1436 H 0.65633 0.17544 0.88725 0.0
C1437 C 0.59194 0.11354 0.90161 0.0
H1438 H 0.6182 0.17759 0.90023 0.0
C1439 C 0.61388 0.11232 0.89473 0.0
C1440 C 0.63735 0.1345 0.88785 0.0
H1441 H 0.57415 0.09605 0.90254 0.0
H1442 H 0.61213 0.09386 0.89151 0.0
C1443 C 0.63861 0.15797 0.89214 0.0
C1444 C 0.88995 0.48325 0.89014 0.0
C1445 C 0.86645 0.46113 0.89569 0.0
H1446 H 0.90972 0.52284 0.87239 0.0
C1447 C 0.84456 0.46296 0.89393 0.0
H1448 H 0.90713 0.48246 0.88997 0.0
C1449 C 0.84597 0.48608 0.88348 0.0
C1450 C 0.86934 0.5079 0.87393 0.0
H1451 H 0.82618 0.4462 0.89805 0.0
H1452 H 0.8286 0.48647 0.87989 0.0
C1453 C 0.89138 0.50642 0.87945 0.0
C1454 C 0.52759 0.41163 0.89862 0.0
C1455 C 0.55047 0.4124 0.88943 0.0
H1456 H 0.48739 0.38948 0.89717 0.0
C1457 C 0.55002 0.38976 0.87791 0.0
H1458 H 0.52715 0.42873 0.9064 0.0
C1459 C 0.52716 0.36716 0.87239 0.0
C1460 C 0.50421 0.36678 0.87755 0.0
H1461 H 0.56739 0.38978 0.87066 0.0
H1462 H 0.52756 0.35041 0.86074 0.0
C1463 C 0.5047 0.38906 0.89279 0.0
C1464 C 0.55329 0.72353 0.72566 0.0
C1465 C 0.53153 0.7011 0.71089 0.0
H1466 H 0.57026 0.76317 0.73907 0.0
C1467 C 0.50876 0.70117 0.70661 0.0
H1468 H 0.57117 0.7242 0.72941 0.0
C1469 C 0.50826 0.72362 0.71251 0.0
C1470 C 0.53041 0.74643 0.72345 0.0
H1471 H 0.49163 0.68429 0.6954 0.0
H1472 H 0.49073 0.72339 0.70594 0.0
C1473 C 0.55275 0.74596 0.73179 0.0
C1474 C 0.30771 0.81872 0.71658 0.0
C1475 C 0.30622 0.84057 0.70696 0.0
H1476 H 0.28751 0.77883 0.73107 0.0
C1477 C 0.28272 0.83915 0.71238 0.0
H1478 H 0.32544 0.81907 0.71304 0.0
C1479 C 0.26095 0.81601 0.72304 0.0
C1480 C 0.26227 0.79387 0.72868 0.0
H1481 H 0.28084 0.85559 0.70525 0.0
H1482 H 0.24298 0.81524 0.72264 0.0
C1483 C 0.28596 0.79563 0.72699 0.0
C1484 C 0.21225 0.49316 0.72996 0.0
C1485 C 0.21376 0.47101 0.73424 0.0
H1486 H 0.18871 0.50925 0.71799 0.0
C1487 C 0.19134 0.44758 0.73577 0.0
H1488 H 0.22919 0.51155 0.72895 0.0
C1489 C 0.16808 0.44627 0.73002 0.0
C1490 C 0.16672 0.46834 0.72187 0.0
H1491 H 0.19165 0.43009 0.73771 0.0
H1492 H 0.15131 0.42777 0.72858 0.0
C1493 C 0.18902 0.49186 0.72391 0.0
C1494 C 0.38937 0.8475 0.15226 0.0
C1495 C 0.41303 0.86967 0.14807 0.0
H1496 H 0.34975 0.83136 0.16456 0.0
C1497 C 0.41404 0.8931 0.14723 0.0
H1498 H 0.38791 0.8291 0.15279 0.0
C1499 C 0.3921 0.89438 0.1534 0.0
C1500 C 0.36867 0.87228 0.16134 0.0
H1501 H 0.43181 0.9106 0.14545 0.0
H1502 H 0.39382 0.91286 0.15526 0.0
C1503 C 0.36744 0.84877 0.15878 0.0
C1504 C 0.16079 0.54487 0.15662 0.0
C1505 C 0.13885 0.5466 0.15494 0.0
H1506 H 0.17689 0.52148 0.17059 0.0
C1507 C 0.1154 0.52444 0.16064 0.0
H1508 H 0.17914 0.56168 0.15248 0.0
C1509 C 0.11406 0.50132 0.17134 0.0
C1510 C 0.13615 0.49993 0.17674 0.0
H1511 H 0.09819 0.52519 0.16099 0.0
H1512 H 0.09575 0.48487 0.17851 0.0
C1513 C 0.15948 0.52179 0.16707 0.0
C1514 C 0.47854 0.59574 0.15163 0.0
C1515 C 0.45569 0.5949 0.16163 0.0
H1516 H 0.51874 0.618 0.15188 0.0
C1517 C 0.45613 0.61751 0.17331 0.0
H1518 H 0.479 0.57866 0.14368 0.0
C1519 C 0.47898 0.64017 0.17824 0.0
C1520 C 0.50194 0.64063 0.1723 0.0
H1521 H 0.43878 0.61745 0.18113 0.0
H1522 H 0.4786 0.65691 0.19006 0.0
C1523 C 0.50142 0.61837 0.15685 0.0
C1524 C 0.12027 0.61745 0.65447 0.0
C1525 C 0.1418 0.63983 0.67031 0.0
H1526 H 0.10359 0.57793 0.64023 0.0
C1527 C 0.16459 0.63987 0.67543 0.0
H1528 H 0.10238 0.61671 0.65002 0.0
C1529 C 0.16527 0.61752 0.66939 0.0
C1530 C 0.14329 0.59472 0.65752 0.0
H1531 H 0.18154 0.65672 0.68748 0.0
H1532 H 0.18277 0.6178 0.67666 0.0
C1533 C 0.12099 0.59513 0.64826 0.0
C1534 C 0.38982 0.50178 0.66527 0.0
C1535 C 0.36624 0.50007 0.67142 0.0
H1536 H 0.42944 0.52603 0.65442 0.0
C1537 C 0.3644 0.52175 0.66215 0.0
H1538 H 0.39197 0.48548 0.67207 0.0
C1539 C 0.38594 0.54499 0.65164 0.0
C1540 C 0.40977 0.54708 0.64961 0.0
H1541 H 0.34657 0.52117 0.66619 0.0
H1542 H 0.38411 0.56165 0.64786 0.0
C1543 C 0.41139 0.52507 0.65458 0.0
C1544 C 0.4611 0.84778 0.64989 0.0
C1545 C 0.45939 0.86985 0.64653 0.0
H1546 H 0.48479 0.83184 0.66172 0.0
C1547 C 0.48171 0.89339 0.64669 0.0
H1548 H 0.44426 0.8293 0.64963 0.0
C1549 C 0.505 0.89483 0.653 0.0
C1550 C 0.50652 0.87278 0.66013 0.0
H1551 H 0.48128 0.91081 0.64559 0.0
H1552 H 0.52165 0.91336 0.65565 0.0
C1553 C 0.48437 0.8492 0.65659 0.0
C1554 C 0.28125 0.44635 0.22826 0.0
C1555 C 0.30476 0.46844 0.22088 0.0
H1556 H 0.24156 0.43024 0.23639 0.0
C1557 C 0.30611 0.49198 0.22469 0.0
H1558 H 0.27941 0.42785 0.22545 0.0
C1559 C 0.28425 0.49331 0.23192 0.0
C1560 C 0.26051 0.47119 0.23555 0.0
H1561 H 0.32385 0.50938 0.21937 0.0
H1562 H 0.28583 0.51176 0.23237 0.0
C1563 C 0.25938 0.4477 0.23511 0.0
C1564 C 0.55929 0.83972 0.2124 0.0
C1565 C 0.53736 0.84144 0.20766 0.0
H1566 H 0.57472 0.81549 0.22307 0.0
C1567 C 0.51399 0.81994 0.2189 0.0
H1568 H 0.57763 0.85589 0.20406 0.0
C1569 C 0.51239 0.79682 0.2302 0.0
C1570 C 0.53412 0.79468 0.23112 0.0
H1571 H 0.49671 0.82054 0.216 0.0
H1572 H 0.49397 0.78025 0.23559 0.0
C1573 C 0.55768 0.81654 0.22393 0.0
C1574 C 0.21792 0.72302 0.21396 0.0
C1575 C 0.2187 0.74584 0.22537 0.0
H1576 H 0.19505 0.68376 0.19623 0.0
C1577 C 0.19596 0.74543 0.23411 0.0
H1578 H 0.23517 0.72274 0.20709 0.0
C1579 C 0.17294 0.72309 0.22788 0.0
C1580 C 0.17214 0.70067 0.21253 0.0
H1581 H 0.19574 0.76265 0.24177 0.0
H1582 H 0.15577 0.72382 0.23193 0.0
C1583 C 0.1949 0.70064 0.2079 0.0
C1584 C 0.23095 0.23642 0.23666 0.0
C1585 C 0.21814 0.212 0.21569 0.0
H1586 H 0.23636 0.26002 0.30095 0.0
C1587 C 0.19897 0.1924 0.24534 0.0
H1588 H 0.24574 0.25212 0.21531 0.0
C1589 C 0.19316 0.19723 0.29497 0.0
C1590 C 0.20655 0.22168 0.31579 0.0
H1591 H 0.18849 0.17345 0.23022 0.0
H1592 H 0.17905 0.18171 0.31778 0.0
C1593 C 0.22535 0.24111 0.28575 0.0
C1594 C 0.81704 0.00928 0.24892 0.0
C1595 C 0.80007 0.01493 0.22395 0.0
H1596 H 0.82534 0.99489 0.3176 0.0
C1597 C 0.77812 0.01009 0.25026 0.0
H1598 H 0.8339 0.01235 0.22934 0.0
C1599 C 0.77326 1.00019 0.30006 0.0
C1600 C 0.78992 0.99426 0.32517 0.0
H1601 H 0.76453 0.01398 0.23219 0.0
H1602 H 0.75629 0.99716 0.31908 0.0
C1603 C 0.81189 0.99882 0.29898 0.0
C1604 C 0.99987 0.81131 0.25599 0.0
C1605 C 0.98835 0.78683 0.23521 0.0
H1606 H 0.01944 0.83494 0.32065 0.0
C1607 C 0.98742 0.76722 0.26515 0.0
H1608 H 1.00152 0.82695 0.23322 0.0
C1609 C 0.99787 0.77176 0.31407 0.0
C1610 C 0.00992 0.79619 0.33502 0.0
H1611 H 0.97917 0.74828 0.24994 0.0
H1612 H 0.99675 0.75592 0.33531 0.0
C1613 C 0.01064 0.81597 0.30551 0.0
C1614 C 0.78514 0.76808 0.76499 0.0
C1615 C 0.80211 0.78821 0.73371 0.0
H1616 H 0.76559 0.75605 0.8362 0.0
C1617 C 0.81319 0.81293 0.75316 0.0
H1618 H 0.77579 0.74891 0.75066 0.0
C1619 C 0.80692 0.81727 0.80276 0.0
C1620 C 0.78946 0.79695 0.83362 0.0
H1621 H 0.82571 0.8289 0.72923 0.0
H1622 H 0.81555 0.83645 0.81671 0.0
C1623 C 0.77902 0.77231 0.81399 0.0
C1624 C 0.23359 0.00884 0.75101 0.0
C1625 C 0.21661 0.01402 0.725 0.0
H1626 H 0.24249 0.99578 0.81973 0.0
C1627 C 0.19424 0.00883 0.75037 0.0
H1628 H 0.25086 0.01236 0.7326 0.0
C1629 C 0.18902 0.99848 0.80052 0.0
C1630 C 0.20629 0.99359 0.82642 0.0
H1631 H 0.18055 0.01216 0.73101 0.0
H1632 H 0.17184 0.9949 0.81944 0.0
C1633 C 0.22865 0.99908 0.80093 0.0
C1634 C 0.99594 0.19206 0.74306 0.0
C1635 C 0.99659 0.21177 0.71342 0.0
H1636 H 0.00501 0.1812 0.81556 0.0
C1637 C 0.00836 0.23618 0.73442 0.0
H1638 H 0.98734 0.1731 0.7279 0.0
C1639 C 0.01864 0.24078 0.7835 0.0
C1640 C 0.01783 0.22125 0.81354 0.0
H1641 H 0.0094 0.25195 0.71309 0.0
H1642 H 0.0267 0.2597 0.79872 0.0
C1643 C 0.00656 0.19679 0.79273 0.0
C1644 C 0.89604 0.56919 0.5685 0.0
C1645 C 0.88395 0.54468 0.54789 0.0
H1646 H 0.90052 0.59276 0.63227 0.0
C1647 C 0.86506 0.52485 0.57758 0.0
H1648 H 0.9106 0.58506 0.54712 0.0
C1649 C 0.85887 0.52953 0.62696 0.0
C1650 C 0.87155 0.55409 0.64741 0.0
H1651 H 0.85512 0.50581 0.56272 0.0
H1652 H 0.84505 0.51386 0.64992 0.0
C1653 C 0.89003 0.57375 0.61728 0.0
C1654 C 0.48297 0.34138 0.58344 0.0
C1655 C 0.46589 0.34647 0.5573 0.0
H1656 H 0.491 0.32737 0.65299 0.0
C1657 C 0.44346 0.34104 0.58241 0.0
H1658 H 0.50019 0.34489 0.56479 0.0
C1659 C 0.43825 0.3311 0.63219 0.0
C1660 C 0.45501 0.3257 0.65844 0.0
H1661 H 0.42977 0.34447 0.56337 0.0
H1662 H 0.4209 0.32759 0.65024 0.0
C1663 C 0.47747 0.33087 0.63346 0.0
C1664 C 0.66515 0.10499 0.6471 0.0
C1665 C 0.67686 0.12942 0.66804 0.0
H1666 H 0.64687 0.08141 0.58285 0.0
C1667 C 0.6774 0.14907 0.63834 0.0
H1668 H 0.66417 0.08927 0.66849 0.0
C1669 C 0.66678 0.14427 0.58867 0.0
C1670 C 0.65561 0.1198 0.56791 0.0
H1671 H 0.68595 0.16803 0.65344 0.0
H1672 H 0.66826 0.15982 0.5658 0.0
C1673 C 0.65487 0.10033 0.59801 0.0
C1674 C 0.44323 0.10434 0.14902 0.0
C1675 C 0.45541 0.12882 0.16974 0.0
H1676 H 0.43844 0.08084 0.08492 0.0
C1677 C 0.47413 0.1487 0.13986 0.0
H1678 H 0.42878 0.08844 0.17053 0.0
C1679 C 0.48009 0.14407 0.0902 0.0
C1680 C 0.46732 0.11953 0.06966 0.0
H1681 H 0.48412 0.16772 0.15477 0.0
H1682 H 0.4938 0.15977 0.06715 0.0
C1683 C 0.44899 0.09983 0.09995 0.0
C1684 C 0.86108 0.34259 0.08266 0.0
C1685 C 0.88341 0.34783 0.05704 0.0
H1686 H 0.83881 0.32855 0.15187 0.0
C1687 C 0.90044 0.34263 0.08274 0.0
H1688 H 0.84735 0.34593 0.06354 0.0
C1689 C 0.8956 0.33278 0.1326 0.0
C1690 C 0.87328 0.32724 0.15832 0.0
H1691 H 0.91769 0.34618 0.06414 0.0
H1692 H 0.90948 0.32947 0.15115 0.0
C1693 C 0.85595 0.33216 0.13275 0.0
C1694 C 0.68765 0.55732 0.06038 0.0
C1695 C 0.66245 0.53923 0.04889 0.0
H1696 H 0.71582 0.57549 0.11858 0.0
C1697 C 0.64698 0.52355 0.08868 0.0
H1698 H 0.7002 0.56958 0.03055 0.0
C1699 C 0.65603 0.52717 0.13928 0.0
C1700 C 0.68093 0.54591 0.15082 0.0
H1701 H 0.62755 0.50951 0.08124 0.0
H1702 H 0.64321 0.51606 0.16988 0.0
C1703 C 0.69681 0.56052 0.11066 0.0
C1704 C 0.52647 0.86071 0.96037 0.0
C1705 C 0.53663 0.8854 0.97947 0.0
H1706 H 0.52496 0.83747 0.897 0.0
C1707 C 0.55276 0.90577 0.94777 0.0
H1708 H 0.51464 0.84459 0.98467 0.0
C1709 C 0.55899 0.9018 0.89867 0.0
C1710 C 0.54951 0.87721 0.87938 0.0
H1711 H 0.56143 0.92495 0.96186 0.0
H1712 H 0.57179 0.91826 0.87614 0.0
C1713 C 0.53284 0.85663 0.91066 0.0
C1714 C 0.10529 0.6648 0.96619 0.0
C1715 C 0.12237 0.65977 0.99215 0.0
H1716 H 0.09624 0.67777 0.89754 0.0
C1717 C 0.14478 0.6651 0.96676 0.0
H1718 H 0.08798 0.66117 0.98464 0.0
C1719 C 0.14994 0.67547 0.91661 0.0
C1720 C 0.13255 0.68023 0.89078 0.0
H1721 H 0.15855 0.6619 0.98609 0.0
H1722 H 0.16715 0.67917 0.89765 0.0
C1723 C 0.11016 0.67459 0.9163 0.0
C1724 C 0.3185 0.45278 0.99015 0.0
C1725 C 0.34414 0.4693 1.00146 0.0
H1726 H 0.2901 0.43576 0.93195 0.0
C1727 C 0.36043 0.48345 0.96125 0.0
H1728 H 0.30538 0.44173 1.02038 0.0
C1729 C 0.35162 0.47972 0.9105 0.0
C1730 C 0.3262 0.46245 0.89914 0.0
H1731 H 0.38022 0.49622 0.96859 0.0
H1732 H 0.36493 0.48954 0.87972 0.0
C1733 C 0.30959 0.44955 0.93964 0.0
C1734 C 0.14704 0.47856 0.42301 0.0
C1735 C 0.13509 0.4539 0.40308 0.0
H1736 H 0.15021 0.50223 0.48692 0.0
C1737 C 0.11739 0.43399 0.43388 0.0
H1738 H 0.16021 0.4944 0.39951 0.0
C1739 C 0.11141 0.43841 0.48284 0.0
C1740 C 0.12274 0.46301 0.50291 0.0
H1741 H 0.10743 0.41489 0.41927 0.0
H1742 H 0.09743 0.42234 0.50471 0.0
C1743 C 0.14088 0.4831 0.47255 0.0
C1744 C 0.56776 0.67495 0.41615 0.0
C1745 C 0.55138 0.68116 0.39066 0.0
H1746 H 0.57589 0.66075 0.48418 0.0
C1747 C 0.52926 0.6766 0.41625 0.0
H1748 H 0.58484 0.67798 0.39763 0.0
C1749 C 0.52372 0.66591 0.46612 0.0
C1750 C 0.54042 0.66002 0.49149 0.0
H1751 H 0.51603 0.68073 0.39734 0.0
H1752 H 0.50679 0.6629 0.48528 0.0
C1753 C 0.5625 0.66481 0.46576 0.0
C1754 C 0.3386 0.86212 0.4603 0.0
C1755 C 0.35088 0.88674 0.48049 0.0
H1756 H 0.31852 0.83844 0.39604 0.0
C1757 C 0.35273 0.90655 0.44986 0.0
H1758 H 0.33623 0.84635 0.48364 0.0
C1759 C 0.34243 0.90208 0.4008 0.0
C1760 C 0.32959 0.87753 0.38044 0.0
H1761 H 0.36156 0.92561 0.46465 0.0
H1762 H 0.34425 0.91808 0.37904 0.0
C1763 C 0.32797 0.85753 0.41066 0.0
C1764 C 0.31567 0.21422 0.92047 0.0
C1765 C 0.31585 0.22078 0.97207 0.0
H1766 H 0.33734 0.22114 0.8512 0.0
C1767 C 0.33919 0.23684 0.99526 0.0
H1768 H 0.29796 0.20244 0.90124 0.0
C1769 C 0.36166 0.24734 0.96687 0.0
C1770 C 0.36134 0.24213 0.91447 0.0
H1771 H 0.33986 0.24264 0.03464 0.0
H1772 H 0.37907 0.26104 0.98492 0.0
C1773 C 0.33821 0.22492 0.89187 0.0
C1774 C 0.77196 0.1264 0.96298 0.0
C1775 C 0.76569 0.12005 0.91126 0.0
H1776 H 0.78664 0.11926 0.03217 0.0
C1777 C 0.77306 0.10413 0.88782 0.0
H1778 H 0.76594 0.13806 0.98239 0.0
C1779 C 0.78505 0.09359 0.91607 0.0
C1780 C 0.78984 0.09859 0.96856 0.0
H1781 H 0.76801 0.09849 0.84834 0.0
H1782 H 0.78885 0.08001 0.89782 0.0
C1783 C 0.78381 0.11565 0.99144 0.0
C1784 C 0.88979 0.68094 0.95856 0.0
C1785 C 0.91499 0.69173 0.97536 0.0
H1786 H 0.86026 0.65281 0.91089 0.0
C1787 C 0.92905 0.6812 0.95642 0.0
H1788 H 0.87814 0.68836 0.97193 0.0
C1789 C 0.91825 0.65971 0.92632 0.0
C1790 C 0.89365 0.64928 0.90738 0.0
H1791 H 0.94881 0.68941 0.96474 0.0
H1792 H 0.92972 0.65142 0.91794 0.0
C1793 C 0.87934 0.66016 0.92424 0.0
C1794 C 0.26415 0.34641 0.63142 0.0
C1795 C 0.25051 0.35777 0.64846 0.0
H1796 H 0.26437 0.31624 0.59323 0.0
C1797 C 0.2256 0.34757 0.63014 0.0
H1798 H 0.2837 0.35402 0.64105 0.0
C1799 C 0.21515 0.32688 0.59568 0.0
C1800 C 0.2291 0.31543 0.58011 0.0
H1801 H 0.21418 0.35548 0.64219 0.0
H1802 H 0.19638 0.32012 0.58098 0.0
C1803 C 0.25327 0.32502 0.60088 0.0
C1804 C 0.69611 0.91745 0.63307 0.0
C1805 C 0.69618 0.91183 0.58102 0.0
H1806 H 0.67388 0.91264 0.70018 0.0
C1807 C 0.67335 0.89392 0.55842 0.0
H1808 H 0.71329 0.93161 0.6511 0.0
C1809 C 0.65067 0.88292 0.58666 0.0
C1810 C 0.65044 0.88982 0.63786 0.0
H1811 H 0.67278 0.88974 0.51801 0.0
H1812 H 0.63314 0.87054 0.56737 0.0
C1813 C 0.67353 0.90661 0.66109 0.0
C1814 C 0.10595 0.77341 0.66741 0.0
C1815 C 0.1196 0.76376 0.64251 0.0
H1816 H 0.083 0.79061 0.65914 0.0
C1817 C 0.12313 0.76718 0.5892 0.0
H1818 H 0.10248 0.77054 0.7083 0.0
C1819 C 0.1118 0.77852 0.56102 0.0
C1820 C 0.09701 0.78694 0.58567 0.0
H1821 H 0.13302 0.7594 0.56888 0.0
H1822 H 0.11317 0.77915 0.51958 0.0
C1823 C 0.09486 0.78497 0.63933 0.0
C1824 C 0.66777 0.78272 0.15679 0.0
C1825 C 0.64461 0.76548 0.13434 0.0
H1826 H 0.70799 0.80526 0.14711 0.0
C1827 C 0.6442 0.76027 0.08192 0.0
H1828 H 0.66871 0.7865 0.19747 0.0
C1829 C 0.66661 0.77079 0.05334 0.0
C1830 C 0.68998 0.78689 0.07638 0.0
H1831 H 0.62676 0.74654 0.064 0.0
H1832 H 0.66588 0.765 1.01394 0.0
C1833 C 0.69025 0.79345 0.128 0.0
C1834 C 0.22316 0.91626 0.13374 0.0
C1835 C 0.21772 0.91097 0.08152 0.0
H1836 H 0.2404 0.91114 0.20088 0.0
C1837 C 0.22284 0.89328 0.05856 0.0
H1838 H 0.21999 0.93025 0.15205 0.0
C1839 C 0.23447 0.88218 0.08666 0.0
C1840 C 0.24136 0.88876 0.13809 0.0
H1841 H 0.21942 0.88937 1.01802 0.0
H1842 H 0.23979 0.87 0.06715 0.0
C1843 C 0.23487 0.90533 0.16164 0.0
C1844 C 0.08725 0.34821 0.12364 0.0
C1845 C 0.1119 0.35869 0.14236 0.0
H1846 H 0.05669 0.31853 0.08511 0.0
C1847 C 0.12624 0.3479 0.12519 0.0
H1848 H 0.07574 0.35642 0.1323 0.0
C1849 C 0.11579 0.32718 0.09076 0.0
C1850 C 0.09056 0.31634 0.07412 0.0
H1851 H 0.14535 0.35529 0.13838 0.0
H1852 H 0.12748 0.31983 0.07717 0.0
C1853 C 0.07647 0.32677 0.09335 0.0
C1854 C 0.75236 0.68225 0.45157 0.0
C1855 C 0.77671 0.69213 0.47163 0.0
H1856 H 0.72193 0.6531 0.41152 0.0
C1857 C 0.79079 0.68092 0.45549 0.0
H1858 H 0.74109 0.6908 0.45985 0.0
C1859 C 0.78035 0.66023 0.42106 0.0
C1860 C 0.75534 0.64981 0.40324 0.0
H1861 H 0.80967 0.68788 0.46969 0.0
H1862 H 0.79187 0.65251 0.40854 0.0
C1863 C 0.74153 0.6609 0.42089 0.0
C1864 C 0.33356 0.1137 0.49203 0.0
C1865 C 0.31065 0.09605 0.46929 0.0
H1866 H 0.37379 0.13682 0.4831 0.0
C1867 C 0.31063 0.09066 0.41709 0.0
H1868 H 0.33419 0.11769 0.53255 0.0
C1869 C 0.3332 0.10145 0.38901 0.0
C1870 C 0.35636 0.11798 0.41234 0.0
H1871 H 0.29339 0.07669 0.39894 0.0
H1872 H 0.33278 0.09556 0.34979 0.0
C1873 C 0.35621 0.12467 0.46374 0.0
C1874 C 0.88999 0.24958 0.46564 0.0
C1875 C 0.88488 0.24447 0.41327 0.0
H1876 H 0.90702 0.24443 0.53308 0.0
C1877 C 0.89038 0.22705 0.3903 0.0
H1878 H 0.88654 0.26338 0.48396 0.0
C1879 C 0.90203 0.21603 0.41857 0.0
C1880 C 0.90859 0.22244 0.47017 0.0
H1881 H 0.88723 0.22329 0.34966 0.0
H1882 H 0.90764 0.20407 0.39908 0.0
C1883 C 0.90174 0.23874 0.4937 0.0
C1884 C 0.02659 0.57403 0.29491 0.0
C1885 C 0.02633 0.57666 0.24139 0.0
H1886 H 0.00483 0.56277 0.36468 0.0
C1887 C 1.00294 0.56633 0.2165 0.0
H1888 H 0.04433 0.58235 0.31519 0.0
C1889 C 0.98035 0.55486 0.2447 0.0
C1890 C 0.98067 0.55366 0.29848 0.0
H1891 H 1.00221 0.5686 0.17541 0.0
H1892 H 0.96275 0.54867 0.22479 0.0
C1893 C 0.00398 0.56279 0.3232 0.0
C1894 C 0.43768 0.45689 0.29249 0.0
C1895 C 0.42988 0.44925 0.24182 0.0
H1896 H 0.45362 0.4509 0.36117 0.0
C1897 C 0.43557 0.43185 0.21947 0.0
H1898 H 0.43308 0.46982 0.31112 0.0
C1899 C 0.44739 0.4212 0.24787 0.0
C1900 C 0.4538 0.42762 0.29944 0.0
H1901 H 0.42952 0.42536 0.18075 0.0
H1902 H 0.44999 0.40663 0.23055 0.0
C1903 C 0.44944 0.44608 0.32111 0.0
C1904 C 0.59754 0.01486 0.2865 0.0
C1905 C 0.58327 0.02498 0.30631 0.0
H1906 H 0.59854 0.9855 0.24689 0.0
C1907 C 0.55796 0.0139 0.29012 0.0
H1908 H 0.61737 0.02332 0.29448 0.0
C1909 C 0.54758 0.99319 0.25567 0.0
C1910 C 0.56207 0.98265 0.23799 0.0
H1911 H 0.54616 0.02102 0.30416 0.0
H1912 H 0.52837 0.98559 0.24293 0.0
C1913 C 0.58686 0.99346 0.25608 0.0
C1914 C 0.45883 0.01355 0.79229 0.0
C1915 C 0.4445 0.02442 0.809 0.0
H1916 H 0.46014 0.98538 0.74469 0.0
C1917 C 0.41993 0.014 0.78989 0.0
H1918 H 0.47788 0.02088 0.80579 0.0
C1919 C 0.40919 0.99254 0.75966 0.0
C1920 C 0.42329 0.98201 0.74089 0.0
H1921 H 0.40843 0.02227 0.7982 0.0
H1922 H 0.38945 0.98435 0.75112 0.0
C1923 C 0.44845 0.99279 0.75792 0.0
C1924 C 0.97729 0.42455 0.74931 0.0
C1925 C 0.97723 0.43001 0.80145 0.0
H1926 H 0.99952 0.42942 0.68217 0.0
C1927 C 1.0001 0.44775 0.82422 0.0
H1928 H 0.96008 0.41051 0.73115 0.0
C1929 C 0.02278 0.45873 0.79603 0.0
C1930 C 0.02299 0.45198 0.74471 0.0
H1931 H 1.00067 0.45179 0.8647 0.0
H1932 H 0.04033 0.47096 0.81542 0.0
C1933 C 0.99988 0.43536 0.72133 0.0
C1934 C 0.5555 0.55953 0.72856 0.0
C1935 C 0.55026 0.5774 0.75015 0.0
H1936 H 0.57276 0.53663 0.73904 0.0
C1937 C 0.55601 0.58358 0.80201 0.0
H1938 H 0.55193 0.55498 0.68827 0.0
C1939 C 0.5681 0.57332 0.8308 0.0
C1940 C 0.57466 0.55653 0.80855 0.0
H1941 H 0.55282 0.59779 0.81924 0.0
H1942 H 0.57373 0.57971 0.86973 0.0
C1943 C 0.56747 0.54907 0.75757 0.0
C1944 C 0.33836 0.35162 0.10445 0.0
C1945 C 0.32487 0.36451 0.10561 0.0
H1946 H 0.33601 0.31547 0.10039 0.0
C1947 C 0.29859 0.3511 0.10165 0.0
H1948 H 0.35867 0.36178 0.10784 0.0
C1949 C 0.28586 0.32503 0.09632 0.0
C1950 C 0.29918 0.31199 0.09636 0.0
H1951 H 0.28792 0.3608 0.10239 0.0
H1952 H 0.26552 0.31502 0.09319 0.0
C1953 C 0.32548 0.32532 0.10063 0.0
C1954 C 0.65652 0.96555 0.13748 0.0
C1955 C 0.64513 0.95668 0.08955 0.0
H1956 H 0.69095 0.98576 0.179 0.0
C1957 C 0.66019 0.9623 0.04561 0.0
H1958 H 0.6453 0.96163 0.17198 0.0
C1959 C 0.68628 0.97594 0.04975 0.0
C1960 C 0.69765 0.98438 0.09782 0.0
H1961 H 0.65186 0.95575 1.00821 0.0
H1962 H 0.69752 0.97973 1.01533 0.0
C1963 C 0.6826 0.97943 0.14154 0.0
C1964 C 0.06384 0.71526 0.15069 0.0
C1965 C 0.05628 0.69636 0.11341 0.0
H1966 H 0.06041 0.74599 0.17944 0.0
C1967 C 0.03903 0.69408 0.07568 0.0
H1968 H 0.07722 0.71752 0.18018 0.0
C1969 C 0.02942 0.71039 0.07534 0.0
C1970 C 0.037 0.7293 0.1126 0.0
H1971 H 0.03294 0.67973 0.04643 0.0
H1972 H 0.0161 0.70819 0.04578 0.0
C1973 C 0.05434 0.73166 0.15017 0.0
C1974 C 0.32408 0.29641 0.47506 0.0
C1975 C 0.31243 0.27721 0.43848 0.0
H1976 H 0.35848 0.32733 0.50244 0.0
C1977 C 0.32705 0.27449 0.40068 0.0
H1978 H 0.31322 0.29887 0.50481 0.0
C1979 C 0.35294 0.2909 0.39917 0.0
C1980 C 0.36457 0.31014 0.43569 0.0
H1981 H 0.31851 0.25992 0.37193 0.0
H1982 H 0.3638 0.28841 0.3695 0.0
C1983 C 0.34997 0.31272 0.47373 0.0
C1984 C 0.70718 0.02785 0.4094 0.0
C1985 C 0.72419 0.03005 0.4476 0.0
H1986 H 0.68448 0.04205 0.37872 0.0
C1987 C 0.73156 0.04889 0.48495 0.0
H1988 H 0.70125 0.01355 0.38007 0.0
C1989 C 0.7221 0.06531 0.48404 0.0
C1990 C 0.705 0.06302 0.446 0.0
H1991 H 0.74477 0.05108 0.5148 0.0
H1992 H 0.728 0.0796 0.51338 0.0
C1993 C 0.69762 0.04418 0.40865 0.0
C1994 C 0.99243 0.65727 0.43855 0.0
C1995 C 0.96611 0.64423 0.43449 0.0
H1996 H 0.02585 0.69343 0.44736 0.0
C1997 C 0.95297 0.6574 0.43741 0.0
H1998 H 1.00281 0.64731 0.43613 0.0
C1999 C 0.96592 0.68332 0.44503 0.0
C2000 C 0.99223 0.6965 0.44834 0.0
H2001 H 0.93263 0.64759 0.43458 0.0
H2002 H 0.95538 0.69313 0.44758 0.0
C2003 C 0.00551 0.68346 0.44463 0.0
C2004 C 0.68064 0.68307 0.94718 0.0
C2005 C 0.70698 0.69628 0.95077 0.0
H2006 H 0.64725 0.6467 0.94097 0.0
C2007 C 0.72015 0.68309 0.95031 0.0
H2008 H 0.67022 0.69303 0.94782 0.0
C2009 C 0.70722 0.657 0.9453 0.0
C2010 C 0.68091 0.6437 0.94219 0.0
H2011 H 0.7405 0.69301 0.95292 0.0
H2012 H 0.71778 0.64718 0.94428 0.0
C2013 C 0.66759 0.65675 0.9437 0.0
C2014 C 0.34576 0.0643 0.98634 0.0
C2015 C 0.36064 0.0621 0.94837 0.0
H2016 H 0.30879 0.05014 1.01658 0.0
C2017 C 0.3492 0.04341 0.91072 0.0
H2018 H 0.35411 0.07847 1.01592 0.0
C2019 C 0.32326 0.02719 0.91101 0.0
C2020 C 0.30839 0.02934 0.94909 0.0
H2021 H 0.36024 0.04133 0.88084 0.0
H2022 H 0.31491 0.01303 0.88142 0.0
C2023 C 0.31984 0.04799 0.98681 0.0
C2024 C 0.95191 0.2768 0.89697 0.0
C2025 C 0.96892 0.27885 0.93505 0.0
H2026 H 0.92921 0.29112 0.86677 0.0
C2027 C 0.97612 0.29741 0.97295 0.0
H2028 H 0.94614 0.26274 0.8672 0.0
C2029 C 0.96645 0.31367 0.97279 0.0
C2030 C 0.94951 0.31168 0.9346 0.0
H2031 H 0.98918 0.29938 1.00291 0.0
H2032 H 0.97223 0.32773 1.00256 0.0
C2033 C 0.94235 0.29315 0.89664 0.0
C2034 C 0.67948 0.71177 0.66882 0.0
C2035 C 0.69421 0.71732 0.62442 0.0
H2036 H 0.64235 0.69451 0.70011 0.0
C2037 C 0.68252 0.70849 0.57674 0.0
H2038 H 0.68806 0.71832 0.70602 0.0
C2039 C 0.65642 0.69468 0.57339 0.0
C2040 C 0.6417 0.68983 0.61756 0.0
H2041 H 0.69351 0.71237 0.54192 0.0
H2042 H 0.64781 0.68836 0.53613 0.0
C2043 C 0.65337 0.69825 0.66537 0.0
C2044 C 0.28529 0.94303 0.56351 0.0
C2045 C 0.30209 0.94477 0.60177 0.0
H2046 H 0.26278 0.95761 0.53358 0.0
C2047 C 0.30911 0.96303 0.64027 0.0
H2048 H 0.27967 0.92921 0.53329 0.0
C2049 C 0.29946 0.9793 0.64051 0.0
C2050 C 0.28272 0.97762 0.60216 0.0
H2051 H 0.322 0.96473 0.67038 0.0
H2052 H 0.30509 0.99312 0.67074 0.0
C2053 C 0.27575 0.95939 0.5636 0.0
C2054 C 1.00146 0.3243 0.60485 0.0
C2055 C 0.01474 0.31128 0.60091 0.0
H2056 H 0.00417 0.36044 0.61372 0.0
C2057 C 0.04105 0.32444 0.60411 0.0
H2058 H 0.98111 0.31434 0.6022 0.0
C2059 C 0.054 0.35035 0.61186 0.0
C2060 C 0.04086 0.3635 0.61503 0.0
H2061 H 0.05158 0.31464 0.60135 0.0
H2062 H 0.07435 0.36016 0.61463 0.0
C2063 C 0.01455 0.35048 0.61108 0.0
C2064 C 0.01515 0.64666 0.80664 0.0
C2065 C 0.03004 0.644 0.76935 0.0
H2066 H 0.97815 0.63294 0.83632 0.0
C2067 C 0.01861 0.62481 0.73267 0.0
H2068 H 0.02349 0.66124 0.83542 0.0
C2069 C 0.99269 0.6085 0.73333 0.0
C2070 C 0.97778 0.61125 0.77043 0.0
H2071 H 0.02967 0.62225 0.70354 0.0
H2072 H 0.98435 0.59394 0.70452 0.0
C2073 C 0.98921 0.63044 0.80711 0.0
C2074 C 0.37426 0.36275 0.74187 0.0
C2075 C 0.38426 0.35756 0.78549 0.0
H2076 H 0.35548 0.38128 0.71147 0.0
C2077 C 0.38193 0.36647 0.8335 0.0
H2078 H 0.37582 0.3561 0.70445 0.0
C2079 C 0.37016 0.38077 0.83766 0.0
C2080 C 0.36078 0.38656 0.7938 0.0
H2081 H 0.38933 0.36254 0.86785 0.0
H2082 H 0.36881 0.38763 0.87499 0.0
C2083 C 0.36273 0.37726 0.74594 0.0
C2084 C 0.67179 0.01668 0.77797 0.0
C2085 C 0.65864 0.02983 0.78224 0.0
H2086 H 0.66882 0.98043 0.76913 0.0
C2087 C 0.63231 0.01674 0.7799 0.0
H2088 H 0.69215 0.02657 0.77996 0.0
C2089 C 0.61919 0.99081 0.77253 0.0
C2090 C 0.63221 0.97753 0.76891 0.0
H2091 H 0.62187 0.02664 0.78293 0.0
H2092 H 0.59883 0.98106 0.77031 0.0
C2093 C 0.65854 0.99047 0.77214 0.0
C2094 C 0.34751 0.01627 0.27817 0.0
C2095 C 0.37382 0.02929 0.28206 0.0
H2096 H 0.31406 0.98013 0.26937 0.0
C2097 C 0.38696 0.01612 0.27886 0.0
H2098 H 0.33714 0.02625 0.28083 0.0
C2099 C 0.37399 0.99022 0.27115 0.0
C2100 C 0.34768 0.97706 0.26803 0.0
H2101 H 0.4073 0.02593 0.28159 0.0
H2102 H 0.38452 0.98041 0.26838 0.0
C2103 C 0.33441 0.9901 0.27198 0.0
C2104 C 0.01295 0.39734 0.32072 0.0
C2105 C 0.02798 0.3956 0.28245 0.0
H2106 H 0.97585 0.38288 0.35048 0.0
C2107 C 0.01668 0.37741 0.24383 0.0
H2108 H 0.02119 0.4111 0.35104 0.0
C2109 C 0.99074 0.36125 0.24342 0.0
C2110 C 0.97571 0.36296 0.28174 0.0
H2111 H 0.02784 0.37569 0.21371 0.0
H2112 H 0.9825 0.3475 0.21308 0.0
C2113 C 0.98702 0.38109 0.32047 0.0
C2114 C 0.63241 0.6454 0.30675 0.0
C2115 C 0.62249 0.65054 0.26296 0.0
H2116 H 0.65108 0.62685 0.33759 0.0
C2117 C 0.6249 0.6416 0.21507 0.0
H2118 H 0.63077 0.65208 0.34409 0.0
C2119 C 0.63667 0.62729 0.2112 0.0
C2120 C 0.64593 0.62152 0.25525 0.0
H2121 H 0.61755 0.64551 0.1806 0.0
H2122 H 0.63808 0.62039 0.17395 0.0
C2123 C 0.64391 0.63087 0.30298 0.0
loop_
_geom_bond_atom_site_label_1
_geom_bond_atom_site_label_2
_geom_bond_distance
_geom_bond_site_symmetry_2
_ccdc_geom_bond_type
Co0 O3 1.970 . S
Co0 N17 1.989 . S
Co0 O25 1.967 . S
Co0 O32 1.920 . S
Co1 O4 1.966 . S
Co1 N10 2.022 . S
Co1 N18 1.993 . S
Co1 O26 1.941 . S
C2 O3 1.258 . S
C2 O4 1.263 . S
O3 Co0 1.970 . S
O3 C2 1.258 . S
O4 Co1 1.966 . S
O4 C2 1.263 . S
C5 O6 1.235 . S
C5 O32 1.289 . S
O6 C5 1.235 . S
C7 C9 1.400 . S
C7 N10 1.351 . S
C7 C12 1.501 . S
C8 C9 1.387 1_556 S
C8 N11 1.341 . S
C9 C7 1.400 . S
C9 C8 1.387 1_554 S
N10 Co1 2.022 . S
N10 C7 1.351 . S
N10 N11 1.365 1_554 S
N11 C8 1.341 . S
N11 N10 1.365 1_556 S
N11 H31 0.862 . S
C12 C7 1.501 . S
C12 H13 0.961 . S
C12 H14 0.961 . S
C12 H15 0.960 . S
H13 C12 0.961 . S
H14 C12 0.961 . S
H15 C12 0.960 . S
C16 N17 1.342 1_556 S
C16 C20 1.401 . S
C16 C21 1.499 . S
N17 Co0 1.989 . S
N17 C16 1.342 1_554 S
N17 N18 1.388 . S
N18 Co1 1.993 . S
N18 N17 1.388 . S
N18 C19 1.346 1_554 S
C19 N18 1.346 1_556 S
C19 C20 1.396 . S
C19 C29 1.510 . S
C20 C16 1.401 . S
C20 C19 1.396 . S
C21 C16 1.499 . S
C21 H22 0.959 1_556 S
C21 H23 0.960 . S
C21 H24 0.961 . S
H22 C21 0.959 1_554 S
H23 C21 0.960 . S
H24 C21 0.961 . S
O25 Co0 1.967 . S
O25 C33 1.258 . S
O26 Co1 1.941 . S
O26 C33 1.266 . S
H27 C29 0.959 . S
H28 C29 0.961 . S
C29 C19 1.510 . S
C29 H27 0.959 . S
C29 H28 0.961 . S
C29 H30 0.960 . S
H30 C29 0.960 . S
H31 N11 0.862 . S
O32 Co0 1.920 . S
O32 C5 1.289 . S
C33 O25 1.258 . S
C33 O26 1.266 . S
Co34 O37 1.970 1_565 S
Co34 N51 1.989 1_565 S
Co34 O59 1.967 . S
Co34 O66 1.920 . S
Co35 O38 1.966 . S
Co35 N44 2.022 . S
Co35 N52 1.993 . S
Co35 O60 1.949 . S
C36 O37 1.258 . S
C36 O38 1.263 . S
O37 Co34 1.970 1_545 S
O37 C36 1.258 . S
O38 Co35 1.966 . S
O38 C36 1.263 . S
C39 O40 1.235 1_565 S
C39 O66 1.289 . S
O40 C39 1.235 1_545 S
C41 C43 1.400 . S
C41 N44 1.351 . S
C41 C46 1.501 . S
C42 C43 1.387 1_556 S
C42 N45 1.341 . S
C43 C41 1.400 . S
C43 C42 1.387 1_554 S
N44 Co35 2.022 . S
N44 C41 1.351 . S
N44 N45 1.365 1_554 S
N45 C42 1.341 . S
N45 N44 1.365 1_556 S
N45 H65 0.862 . S
C46 C41 1.501 . S
C46 H47 0.961 . S
C46 H48 0.961 . S
C46 H49 0.960 . S
H47 C46 0.961 . S
H48 C46 0.961 . S
H49 C46 0.960 . S
C50 N51 1.342 1_556 S
C50 C54 1.401 . S
C50 C55 1.499 . S
N51 Co34 1.989 1_545 S
N51 C50 1.342 1_554 S
N51 N52 1.388 . S
N52 Co35 1.993 . S
N52 N51 1.388 . S
N52 C53 1.346 1_554 S
C53 N52 1.346 1_556 S
C53 C54 1.396 . S
C53 C63 1.510 . S
C54 C50 1.401 . S
C54 C53 1.396 . S
C55 C50 1.499 . S
C55 H56 0.959 1_556 S
C55 H57 0.960 . S
C55 H58 0.961 . S
H56 C55 0.959 1_554 S
H57 C55 0.960 . S
H58 C55 0.961 . S
O59 Co34 1.967 . S
O59 C67 1.258 . S
O60 Co35 1.949 . S
O60 C67 1.262 1_545 S
H61 C63 0.959 . S
H62 C63 0.961 . S
C63 C53 1.510 . S
C63 H61 0.959 . S
C63 H62 0.961 . S
C63 H64 0.960 . S
H64 C63 0.960 . S
H65 N45 0.862 . S
O66 Co34 1.920 . S
O66 C39 1.289 . S
C67 O59 1.258 . S
C67 O60 1.262 1_565 S
Co68 O71 1.970 1_455 S
Co68 N85 1.989 1_455 S
Co68 O93 1.967 . S
Co68 O100 1.920 . S
Co69 O72 1.966 . S
Co69 N78 2.022 . S
Co69 N86 1.993 . S
Co69 O94 1.946 . S
C70 O71 1.258 . S
C70 O72 1.263 . S
O71 Co68 1.970 1_655 S
O71 C70 1.258 . S
O72 Co69 1.966 . S
O72 C70 1.263 . S
C73 O74 1.235 1_455 S
C73 O100 1.289 . S
O74 C73 1.235 1_655 S
C75 C77 1.400 . S
C75 N78 1.351 . S
C75 C80 1.501 . S
C76 C77 1.387 1_556 S
C76 N79 1.341 . S
C77 C75 1.400 . S
C77 C76 1.387 1_554 S
N78 Co69 2.022 . S
N78 C75 1.351 . S
N78 N79 1.365 1_554 S
N79 C76 1.341 . S
N79 N78 1.365 1_556 S
N79 H99 0.862 . S
C80 C75 1.501 . S
C80 H81 0.961 . S
C80 H82 0.961 . S
C80 H83 0.960 . S
H81 C80 0.961 . S
H82 C80 0.961 . S
H83 C80 0.960 . S
C84 N85 1.342 1_556 S
C84 C88 1.401 . S
C84 C89 1.499 . S
N85 Co68 1.989 1_655 S
N85 C84 1.342 1_554 S
N85 N86 1.388 . S
N86 Co69 1.993 . S
N86 N85 1.388 . S
N86 C87 1.346 1_554 S
C87 N86 1.346 1_556 S
C87 C88 1.396 . S
C87 C97 1.510 . S
C88 C84 1.401 . S
C88 C87 1.396 . S
C89 C84 1.499 . S
C89 H90 0.959 1_556 S
C89 H91 0.960 . S
C89 H92 0.961 . S
H90 C89 0.959 1_554 S
H91 C89 0.960 . S
H92 C89 0.961 . S
O93 Co68 1.967 . S
O93 C101 1.258 . S
O94 Co69 1.946 . S
O94 C101 1.258 1_655 S
H95 C97 0.959 . S
H96 C97 0.961 . S
C97 C87 1.510 . S
C97 H95 0.959 . S
C97 H96 0.961 . S
C97 H98 0.960 . S
H98 C97 0.960 . S
H99 N79 0.862 . S
O100 Co68 1.920 . S
O100 C73 1.289 . S
C101 O93 1.258 . S
C101 O94 1.258 1_455 S
Co102 O105 1.970 . S
Co102 N119 1.989 . S
Co102 O127 1.967 . S
Co102 O134 1.920 . S
Co103 O106 1.966 . S
Co103 N112 2.022 . S
Co103 N120 1.993 . S
Co103 O128 1.941 . S
C104 O105 1.258 . S
C104 O106 1.263 . S
O105 Co102 1.970 . S
O105 C104 1.258 . S
O106 Co103 1.966 . S
O106 C104 1.263 . S
C107 O108 1.235 . S
C107 O134 1.289 . S
O108 C107 1.235 . S
C109 C111 1.400 . S
C109 N112 1.351 . S
C109 C114 1.501 . S
C110 C111 1.387 . S
C110 N113 1.341 . S
C111 C109 1.400 . S
C111 C110 1.387 . S
N112 Co103 2.022 . S
N112 C109 1.351 . S
N112 N113 1.365 . S
N113 C110 1.341 . S
N113 N112 1.365 . S
N113 H133 0.862 . S
C114 C109 1.501 . S
C114 H115 0.961 . S
C114 H116 0.961 . S
C114 H117 0.960 . S
H115 C114 0.961 . S
H116 C114 0.961 . S
H117 C114 0.960 . S
C118 N119 1.342 . S
C118 C122 1.401 . S
C118 C123 1.499 . S
N119 Co102 1.989 . S
N119 C118 1.342 . S
N119 N120 1.388 . S
N120 Co103 1.993 . S
N120 N119 1.388 . S
N120 C121 1.346 . S
C121 N120 1.346 . S
C121 C122 1.396 . S
C121 C131 1.510 . S
C122 C118 1.401 . S
C122 C121 1.396 . S
C123 C118 1.499 . S
C123 H124 0.959 . S
C123 H125 0.960 . S
C123 H126 0.961 . S
H124 C123 0.959 . S
H125 C123 0.960 . S
H126 C123 0.961 . S
O127 Co102 1.967 . S
O127 C135 1.258 . S
O128 Co103 1.941 . S
O128 C135 1.266 . S
H129 C131 0.959 . S
H130 C131 0.961 . S
C131 C121 1.510 . S
C131 H129 0.959 . S
C131 H130 0.961 . S
C131 H132 0.960 . S
H132 C131 0.960 . S
H133 N113 0.862 . S
O134 Co102 1.920 . S
O134 C107 1.289 . S
C135 O127 1.258 . S
C135 O128 1.266 . S
Co136 O139 1.970 1_545 S
Co136 N153 1.989 1_545 S
Co136 O161 1.967 . S
Co136 O168 1.920 . S
Co137 O140 1.966 . S
Co137 N146 2.022 . S
Co137 N154 1.993 . S
Co137 O162 1.946 . S
C138 O139 1.258 . S
C138 O140 1.263 . S
O139 Co136 1.970 1_565 S
O139 C138 1.258 . S
O140 Co137 1.966 . S
O140 C138 1.263 . S
C141 O142 1.235 1_545 S
C141 O168 1.289 . S
O142 C141 1.235 1_565 S
C143 C145 1.400 . S
C143 N146 1.351 . S
C143 C148 1.501 . S
C144 C145 1.387 . S
C144 N147 1.341 . S
C145 C143 1.400 . S
C145 C144 1.387 . S
N146 Co137 2.022 . S
N146 C143 1.351 . S
N146 N147 1.365 . S
N147 C144 1.341 . S
N147 N146 1.365 . S
N147 H167 0.862 . S
C148 C143 1.501 . S
C148 H149 0.961 . S
C148 H150 0.961 . S
C148 H151 0.960 . S
H149 C148 0.961 . S
H150 C148 0.961 . S
H151 C148 0.960 . S
C152 N153 1.342 . S
C152 C156 1.401 . S
C152 C157 1.499 . S
N153 Co136 1.989 1_565 S
N153 C152 1.342 . S
N153 N154 1.388 . S
N154 Co137 1.993 . S
N154 N153 1.388 . S
N154 C155 1.346 . S
C155 N154 1.346 . S
C155 C156 1.396 . S
C155 C165 1.510 . S
C156 C152 1.401 . S
C156 C155 1.396 . S
C157 C152 1.499 . S
C157 H158 0.959 . S
C157 H159 0.960 . S
C157 H160 0.961 . S
H158 C157 0.959 . S
H159 C157 0.960 . S
H160 C157 0.961 . S
O161 Co136 1.967 . S
O161 C169 1.258 . S
O162 Co137 1.946 . S
O162 C169 1.258 1_565 S
H163 C165 0.959 . S
H164 C165 0.961 . S
C165 C155 1.510 . S
C165 H163 0.959 . S
C165 H164 0.961 . S
C165 H166 0.960 . S
H166 C165 0.960 . S
H167 N147 0.862 . S
O168 Co136 1.920 . S
O168 C141 1.289 . S
C169 O161 1.258 . S
C169 O162 1.258 1_545 S
Co170 O173 1.970 1_655 S
Co170 N187 1.989 1_655 S
Co170 O195 1.967 . S
Co170 O202 1.920 . S
Co171 O174 1.966 . S
Co171 N180 2.022 . S
Co171 N188 1.993 . S
Co171 O196 1.949 . S
C172 O173 1.258 . S
C172 O174 1.263 . S
O173 Co170 1.970 1_455 S
O173 C172 1.258 . S
O174 Co171 1.966 . S
O174 C172 1.263 . S
C175 O176 1.235 1_655 S
C175 O202 1.289 . S
O176 C175 1.235 1_455 S
C177 C179 1.400 . S
C177 N180 1.351 . S
C177 C182 1.501 . S
C178 C179 1.387 . S
C178 N181 1.341 . S
C179 C177 1.400 . S
C179 C178 1.387 . S
N180 Co171 2.022 . S
N180 C177 1.351 . S
N180 N181 1.365 . S
N181 C178 1.341 . S
N181 N180 1.365 . S
N181 H201 0.862 . S
C182 C177 1.501 . S
C182 H183 0.961 . S
C182 H184 0.961 . S
C182 H185 0.960 . S
H183 C182 0.961 . S
H184 C182 0.961 . S
H185 C182 0.960 . S
C186 N187 1.342 . S
C186 C190 1.401 . S
C186 C191 1.499 . S
N187 Co170 1.989 1_455 S
N187 C186 1.342 . S
N187 N188 1.388 . S
N188 Co171 1.993 . S
N188 N187 1.388 . S
N188 C189 1.346 . S
C189 N188 1.346 . S
C189 C190 1.396 . S
C189 C199 1.510 . S
C190 C186 1.401 . S
C190 C189 1.396 . S
C191 C186 1.499 . S
C191 H192 0.959 . S
C191 H193 0.960 . S
C191 H194 0.961 . S
H192 C191 0.959 . S
H193 C191 0.960 . S
H194 C191 0.961 . S
O195 Co170 1.967 . S
O195 C203 1.258 . S
O196 Co171 1.949 . S
O196 C203 1.262 1_455 S
H197 C199 0.959 . S
H198 C199 0.961 . S
C199 C189 1.510 . S
C199 H197 0.959 . S
C199 H198 0.961 . S
C199 H200 0.960 . S
H200 C199 0.960 . S
H201 N181 0.862 . S
O202 Co170 1.920 . S
O202 C175 1.289 . S
C203 O195 1.258 . S
C203 O196 1.262 1_655 S
Co204 O207 1.970 . S
Co204 N221 1.989 . S
Co204 O229 1.967 . S
Co204 O236 1.920 . S
Co205 O208 1.966 . S
Co205 N214 2.022 . S
Co205 N222 1.993 . S
Co205 O230 1.941 . S
C206 O207 1.258 . S
C206 O208 1.263 . S
O207 Co204 1.970 . S
O207 C206 1.258 . S
O208 Co205 1.966 . S
O208 C206 1.263 . S
C209 O210 1.235 . S
C209 O236 1.289 . S
O210 C209 1.235 . S
C211 C213 1.400 . S
C211 N214 1.351 . S
C211 C216 1.501 . S
C212 C213 1.387 1_554 S
C212 N215 1.341 . S
C213 C211 1.400 . S
C213 C212 1.387 1_556 S
N214 Co205 2.022 . S
N214 C211 1.351 . S
N214 N215 1.365 1_556 S
N215 C212 1.341 . S
N215 N214 1.365 1_554 S
N215 H235 0.862 . S
C216 C211 1.501 . S
C216 H217 0.961 . S
C216 H218 0.961 . S
C216 H219 0.960 . S
H217 C216 0.961 . S
H218 C216 0.961 . S
H219 C216 0.960 . S
C220 N221 1.342 1_554 S
C220 C224 1.401 . S
C220 C225 1.499 . S
N221 Co204 1.989 . S
N221 C220 1.342 1_556 S
N221 N222 1.388 . S
N222 Co205 1.993 . S
N222 N221 1.388 . S
N222 C223 1.346 1_556 S
C223 N222 1.346 1_554 S
C223 C224 1.396 . S
C223 C233 1.510 . S
C224 C220 1.401 . S
C224 C223 1.396 . S
C225 C220 1.499 . S
C225 H226 0.959 1_554 S
C225 H227 0.960 . S
C225 H228 0.961 . S
H226 C225 0.959 1_556 S
H227 C225 0.960 . S
H228 C225 0.961 . S
O229 Co204 1.967 . S
O229 C237 1.258 . S
O230 Co205 1.941 . S
O230 C237 1.266 . S
H231 C233 0.959 . S
H232 C233 0.961 . S
C233 C223 1.510 . S
C233 H231 0.959 . S
C233 H232 0.961 . S
C233 H234 0.960 . S
H234 C233 0.960 . S
H235 N215 0.862 . S
O236 Co204 1.920 . S
O236 C209 1.289 . S
C237 O229 1.258 . S
C237 O230 1.266 . S
Co238 O241 1.970 1_545 S
Co238 N255 1.989 1_545 S
Co238 O263 1.967 . S
Co238 O270 1.920 . S
Co239 O242 1.966 . S
Co239 N248 2.022 . S
Co239 N256 1.993 . S
Co239 O264 1.949 . S
C240 O241 1.258 . S
C240 O242 1.263 . S
O241 Co238 1.970 1_565 S
O241 C240 1.258 . S
O242 Co239 1.966 . S
O242 C240 1.263 . S
C243 O244 1.235 1_545 S
C243 O270 1.289 . S
O244 C243 1.235 1_565 S
C245 C247 1.400 . S
C245 N248 1.351 . S
C245 C250 1.501 . S
C246 C247 1.387 1_554 S
C246 N249 1.341 . S
C247 C245 1.400 . S
C247 C246 1.387 1_556 S
N248 Co239 2.022 . S
N248 C245 1.351 . S
N248 N249 1.365 1_556 S
N249 C246 1.341 . S
N249 N248 1.365 1_554 S
N249 H269 0.862 . S
C250 C245 1.501 . S
C250 H251 0.961 . S
C250 H252 0.961 . S
C250 H253 0.960 . S
H251 C250 0.961 . S
H252 C250 0.961 . S
H253 C250 0.960 . S
C254 N255 1.342 1_554 S
C254 C258 1.401 . S
C254 C259 1.499 . S
N255 Co238 1.989 1_565 S
N255 C254 1.342 1_556 S
N255 N256 1.388 . S
N256 Co239 1.993 . S
N256 N255 1.388 . S
N256 C257 1.346 1_556 S
C257 N256 1.346 1_554 S
C257 C258 1.396 . S
C257 C267 1.510 . S
C258 C254 1.401 . S
C258 C257 1.396 . S
C259 C254 1.499 . S
C259 H260 0.959 1_554 S
C259 H261 0.960 . S
C259 H262 0.961 . S
H260 C259 0.959 1_556 S
H261 C259 0.960 . S
H262 C259 0.961 . S
O263 Co238 1.967 . S
O263 C271 1.258 . S
O264 Co239 1.949 . S
O264 C271 1.262 1_565 S
H265 C267 0.959 . S
H266 C267 0.961 . S
C267 C257 1.510 . S
C267 H265 0.959 . S
C267 H266 0.961 . S
C267 H268 0.960 . S
H268 C267 0.960 . S
H269 N249 0.862 . S
O270 Co238 1.920 . S
O270 C243 1.289 . S
C271 O263 1.258 . S
C271 O264 1.262 1_545 S
Co272 O275 1.970 1_655 S
Co272 N289 1.989 1_655 S
Co272 O297 1.967 . S
Co272 O304 1.920 . S
Co273 O276 1.966 . S
Co273 N282 2.022 . S
Co273 N290 1.993 . S
Co273 O298 1.946 . S
C274 O275 1.258 . S
C274 O276 1.263 . S
O275 Co272 1.970 1_455 S
O275 C274 1.258 . S
O276 Co273 1.966 . S
O276 C274 1.263 . S
C277 O278 1.235 1_655 S
C277 O304 1.289 . S
O278 C277 1.235 1_455 S
C279 C281 1.400 . S
C279 N282 1.351 . S
C279 C284 1.501 . S
C280 C281 1.387 1_554 S
C280 N283 1.341 . S
C281 C279 1.400 . S
C281 C280 1.387 1_556 S
N282 Co273 2.022 . S
N282 C279 1.351 . S
N282 N283 1.365 1_556 S
N283 C280 1.341 . S
N283 N282 1.365 1_554 S
N283 H303 0.862 . S
C284 C279 1.501 . S
C284 H285 0.961 . S
C284 H286 0.961 . S
C284 H287 0.960 . S
H285 C284 0.961 . S
H286 C284 0.961 . S
H287 C284 0.960 . S
C288 N289 1.342 1_554 S
C288 C292 1.401 . S
C288 C293 1.499 . S
N289 Co272 1.989 1_455 S
N289 C288 1.342 1_556 S
N289 N290 1.388 . S
N290 Co273 1.993 . S
N290 N289 1.388 . S
N290 C291 1.346 1_556 S
C291 N290 1.346 1_554 S
C291 C292 1.396 . S
C291 C301 1.510 . S
C292 C288 1.401 . S
C292 C291 1.396 . S
C293 C288 1.499 . S
C293 H294 0.959 1_554 S
C293 H295 0.960 . S
C293 H296 0.961 . S
H294 C293 0.959 1_556 S
H295 C293 0.960 . S
H296 C293 0.961 . S
O297 Co272 1.967 . S
O297 C305 1.258 . S
O298 Co273 1.946 . S
O298 C305 1.258 1_455 S
H299 C301 0.959 . S
H300 C301 0.961 . S
C301 C291 1.510 . S
C301 H299 0.959 . S
C301 H300 0.961 . S
C301 H302 0.960 . S
H302 C301 0.960 . S
H303 N283 0.862 . S
O304 Co272 1.920 . S
O304 C277 1.289 . S
C305 O297 1.258 . S
C305 O298 1.258 1_655 S
Co306 O309 1.970 . S
Co306 N323 1.989 . S
Co306 O331 1.967 . S
Co306 O338 1.920 . S
Co307 O310 1.966 . S
Co307 N316 2.022 . S
Co307 N324 1.993 . S
Co307 O332 1.941 . S
C308 O309 1.258 . S
C308 O310 1.263 . S
O309 Co306 1.970 . S
O309 C308 1.258 . S
O310 Co307 1.966 . S
O310 C308 1.263 . S
C311 O312 1.235 . S
C311 O338 1.289 . S
O312 C311 1.235 . S
C313 C315 1.400 . S
C313 N316 1.351 . S
C313 C318 1.501 . S
C314 C315 1.387 . S
C314 N317 1.341 . S
C315 C313 1.400 . S
C315 C314 1.387 . S
N316 Co307 2.022 . S
N316 C313 1.351 . S
N316 N317 1.365 . S
N317 C314 1.341 . S
N317 N316 1.365 . S
N317 H337 0.862 . S
C318 C313 1.501 . S
C318 H319 0.961 . S
C318 H320 0.961 . S
C318 H321 0.960 . S
H319 C318 0.961 . S
H320 C318 0.961 . S
H321 C318 0.960 . S
C322 N323 1.342 . S
C322 C326 1.401 . S
C322 C327 1.499 . S
N323 Co306 1.989 . S
N323 C322 1.342 . S
N323 N324 1.388 . S
N324 Co307 1.993 . S
N324 N323 1.388 . S
N324 C325 1.346 . S
C325 N324 1.346 . S
C325 C326 1.396 . S
C325 C335 1.510 . S
C326 C322 1.401 . S
C326 C325 1.396 . S
C327 C322 1.499 . S
C327 H328 0.959 . S
C327 H329 0.960 . S
C327 H330 0.961 . S
H328 C327 0.959 . S
H329 C327 0.960 . S
H330 C327 0.961 . S
O331 Co306 1.967 . S
O331 C339 1.258 . S
O332 Co307 1.941 . S
O332 C339 1.266 . S
H333 C335 0.959 . S
H334 C335 0.961 . S
C335 C325 1.510 . S
C335 H333 0.959 . S
C335 H334 0.961 . S
C335 H336 0.960 . S
H336 C335 0.960 . S
H337 N317 0.862 . S
O338 Co306 1.920 . S
O338 C311 1.289 . S
C339 O331 1.258 . S
C339 O332 1.266 . S
Co340 O343 1.970 1_565 S
Co340 N357 1.989 1_565 S
Co340 O365 1.967 . S
Co340 O372 1.920 . S
Co341 O344 1.966 . S
Co341 N350 2.022 . S
Co341 N358 1.993 . S
Co341 O366 1.946 . S
C342 O343 1.258 . S
C342 O344 1.263 . S
O343 Co340 1.970 1_545 S
O343 C342 1.258 . S
O344 Co341 1.966 . S
O344 C342 1.263 . S
C345 O346 1.235 1_565 S
C345 O372 1.289 . S
O346 C345 1.235 1_545 S
C347 C349 1.400 . S
C347 N350 1.351 . S
C347 C352 1.501 . S
C348 C349 1.387 . S
C348 N351 1.341 . S
C349 C347 1.400 . S
C349 C348 1.387 . S
N350 Co341 2.022 . S
N350 C347 1.351 . S
N350 N351 1.365 . S
N351 C348 1.341 . S
N351 N350 1.365 . S
N351 H371 0.862 . S
C352 C347 1.501 . S
C352 H353 0.961 . S
C352 H354 0.961 . S
C352 H355 0.960 . S
H353 C352 0.961 . S
H354 C352 0.961 . S
H355 C352 0.960 . S
C356 N357 1.342 . S
C356 C360 1.401 . S
C356 C361 1.499 . S
N357 Co340 1.989 1_545 S
N357 C356 1.342 . S
N357 N358 1.388 . S
N358 Co341 1.993 . S
N358 N357 1.388 . S
N358 C359 1.346 . S
C359 N358 1.346 . S
C359 C360 1.396 . S
C359 C369 1.510 . S
C360 C356 1.401 . S
C360 C359 1.396 . S
C361 C356 1.499 . S
C361 H362 0.959 . S
C361 H363 0.960 . S
C361 H364 0.961 . S
H362 C361 0.959 . S
H363 C361 0.960 . S
H364 C361 0.961 . S
O365 Co340 1.967 . S
O365 C373 1.258 . S
O366 Co341 1.946 . S
O366 C373 1.258 1_545 S
H367 C369 0.959 . S
H368 C369 0.961 . S
C369 C359 1.510 . S
C369 H367 0.959 . S
C369 H368 0.961 . S
C369 H370 0.960 . S
H370 C369 0.960 . S
H371 N351 0.862 . S
O372 Co340 1.920 . S
O372 C345 1.289 . S
C373 O365 1.258 . S
C373 O366 1.258 1_565 S
Co374 O377 1.970 1_455 S
Co374 N391 1.989 1_455 S
Co374 O399 1.967 . S
Co374 O406 1.920 . S
Co375 O378 1.966 . S
Co375 N384 2.022 . S
Co375 N392 1.993 . S
Co375 O400 1.949 . S
C376 O377 1.258 . S
C376 O378 1.263 . S
O377 Co374 1.970 1_655 S
O377 C376 1.258 . S
O378 Co375 1.966 . S
O378 C376 1.263 . S
C379 O380 1.235 1_455 S
C379 O406 1.289 . S
O380 C379 1.235 1_655 S
C381 C383 1.400 . S
C381 N384 1.351 . S
C381 C386 1.501 . S
C382 C383 1.387 . S
C382 N385 1.341 . S
C383 C381 1.400 . S
C383 C382 1.387 . S
N384 Co375 2.022 . S
N384 C381 1.351 . S
N384 N385 1.365 . S
N385 C382 1.341 . S
N385 N384 1.365 . S
N385 H405 0.862 . S
C386 C381 1.501 . S
C386 H387 0.961 . S
C386 H388 0.961 . S
C386 H389 0.960 . S
H387 C386 0.961 . S
H388 C386 0.961 . S
H389 C386 0.960 . S
C390 N391 1.342 . S
C390 C394 1.401 . S
C390 C395 1.499 . S
N391 Co374 1.989 1_655 S
N391 C390 1.342 . S
N391 N392 1.388 . S
N392 Co375 1.993 . S
N392 N391 1.388 . S
N392 C393 1.346 . S
C393 N392 1.346 . S
C393 C394 1.396 . S
C393 C403 1.510 . S
C394 C390 1.401 . S
C394 C393 1.396 . S
C395 C390 1.499 . S
C395 H396 0.959 . S
C395 H397 0.960 . S
C395 H398 0.961 . S
H396 C395 0.959 . S
H397 C395 0.960 . S
H398 C395 0.961 . S
O399 Co374 1.967 . S
O399 C407 1.258 . S
O400 Co375 1.949 . S
O400 C407 1.262 1_655 S
H401 C403 0.959 . S
H402 C403 0.961 . S
C403 C393 1.510 . S
C403 H401 0.959 . S
C403 H402 0.961 . S
C403 H404 0.960 . S
H404 C403 0.960 . S
H405 N385 0.862 . S
O406 Co374 1.920 . S
O406 C379 1.289 . S
C407 O399 1.258 . S
C407 O400 1.262 1_455 S
Co408 O411 1.970 . S
Co408 N425 1.989 . S
Co408 O433 1.967 . S
Co408 O440 1.920 . S
Co409 O412 1.966 . S
Co409 N418 2.022 . S
Co409 N426 1.993 . S
Co409 O434 1.941 . S
C410 O411 1.258 . S
C410 O412 1.263 . S
O411 Co408 1.970 . S
O411 C410 1.258 . S
O412 Co409 1.966 . S
O412 C410 1.263 . S
C413 O414 1.235 . S
C413 O440 1.289 . S
O414 C413 1.235 . S
C415 C417 1.400 . S
C415 N418 1.351 . S
C415 C420 1.501 . S
C416 C417 1.387 . S
C416 N419 1.341 . S
C417 C415 1.400 . S
C417 C416 1.387 . S
N418 Co409 2.022 . S
N418 C415 1.351 . S
N418 N419 1.365 . S
N419 C416 1.341 . S
N419 N418 1.365 . S
N419 H439 0.862 . S
C420 C415 1.501 . S
C420 H421 0.961 . S
C420 H422 0.961 . S
C420 H423 0.960 . S
H421 C420 0.961 . S
H422 C420 0.961 . S
H423 C420 0.960 . S
C424 N425 1.342 . S
C424 C428 1.401 . S
C424 C429 1.499 . S
N425 Co408 1.989 . S
N425 C424 1.342 . S
N425 N426 1.388 . S
N426 Co409 1.993 . S
N426 N425 1.388 . S
N426 C427 1.346 . S
C427 N426 1.346 . S
C427 C428 1.396 . S
C427 C437 1.510 . S
C428 C424 1.401 . S
C428 C427 1.396 . S
C429 C424 1.499 . S
C429 H430 0.959 . S
C429 H431 0.960 . S
C429 H432 0.961 . S
H430 C429 0.959 . S
H431 C429 0.960 . S
H432 C429 0.961 . S
O433 Co408 1.967 . S
O433 C441 1.258 . S
O434 Co409 1.941 . S
O434 C441 1.266 . S
H435 C437 0.959 . S
H436 C437 0.961 . S
C437 C427 1.510 . S
C437 H435 0.959 . S
C437 H436 0.961 . S
C437 H438 0.960 . S
H438 C437 0.960 . S
H439 N419 0.862 . S
O440 Co408 1.920 . S
O440 C413 1.289 . S
C441 O433 1.258 . S
C441 O434 1.266 . S
Co442 O445 1.970 . S
Co442 N459 1.989 . S
Co442 O467 1.967 . S
Co442 O474 1.920 . S
Co443 O446 1.966 . S
Co443 N452 2.022 . S
Co443 N460 1.993 . S
Co443 O468 1.941 . S
C444 O445 1.258 . S
C444 O446 1.263 . S
O445 Co442 1.970 . S
O445 C444 1.258 . S
O446 Co443 1.966 . S
O446 C444 1.263 . S
C447 O448 1.235 . S
C447 O474 1.289 . S
O448 C447 1.235 . S
C449 C451 1.400 . S
C449 N452 1.351 . S
C449 C454 1.501 . S
C450 C451 1.387 . S
C450 N453 1.341 . S
C451 C449 1.400 . S
C451 C450 1.387 . S
N452 Co443 2.022 . S
N452 C449 1.351 . S
N452 N453 1.365 . S
N453 C450 1.341 . S
N453 N452 1.365 . S
N453 H473 0.862 . S
C454 C449 1.501 . S
C454 H455 0.961 . S
C454 H456 0.961 . S
C454 H457 0.960 . S
H455 C454 0.961 . S
H456 C454 0.961 . S
H457 C454 0.960 . S
C458 N459 1.342 . S
C458 C462 1.401 . S
C458 C463 1.499 . S
N459 Co442 1.989 . S
N459 C458 1.342 . S
N459 N460 1.388 . S
N460 Co443 1.993 . S
N460 N459 1.388 . S
N460 C461 1.346 . S
C461 N460 1.346 . S
C461 C462 1.396 . S
C461 C471 1.510 . S
C462 C458 1.401 . S
C462 C461 1.396 . S
C463 C458 1.499 . S
C463 H464 0.959 . S
C463 H465 0.960 . S
C463 H466 0.961 . S
H464 C463 0.959 . S
H465 C463 0.960 . S
H466 C463 0.961 . S
O467 Co442 1.967 . S
O467 C475 1.258 . S
O468 Co443 1.941 . S
O468 C475 1.266 . S
H469 C471 0.959 . S
H470 C471 0.961 . S
C471 C461 1.510 . S
C471 H469 0.959 . S
C471 H470 0.961 . S
C471 H472 0.960 . S
H472 C471 0.960 . S
H473 N453 0.862 . S
O474 Co442 1.920 . S
O474 C447 1.289 . S
C475 O467 1.258 . S
C475 O468 1.266 . S
Co476 O479 1.970 . S
Co476 N493 1.989 . S
Co476 O501 1.967 . S
Co476 O508 1.920 . S
Co477 O480 1.966 . S
Co477 N486 2.022 . S
Co477 N494 1.993 . S
Co477 O502 1.941 . S
C478 O479 1.258 . S
C478 O480 1.263 . S
O479 Co476 1.970 . S
O479 C478 1.258 . S
O480 Co477 1.966 . S
O480 C478 1.263 . S
C481 O482 1.235 . S
C481 O508 1.289 . S
O482 C481 1.235 . S
C483 C485 1.400 . S
C483 N486 1.351 . S
C483 C488 1.501 . S
C484 C485 1.387 . S
C484 N487 1.341 . S
C485 C483 1.400 . S
C485 C484 1.387 . S
N486 Co477 2.022 . S
N486 C483 1.351 . S
N486 N487 1.365 . S
N487 C484 1.341 . S
N487 N486 1.365 . S
N487 H507 0.862 . S
C488 C483 1.501 . S
C488 H489 0.961 . S
C488 H490 0.961 . S
C488 H491 0.960 . S
H489 C488 0.961 . S
H490 C488 0.961 . S
H491 C488 0.960 . S
C492 N493 1.342 . S
C492 C496 1.401 . S
C492 C497 1.499 . S
N493 Co476 1.989 . S
N493 C492 1.342 . S
N493 N494 1.388 . S
N494 Co477 1.993 . S
N494 N493 1.388 . S
N494 C495 1.346 . S
C495 N494 1.346 . S
C495 C496 1.396 . S
C495 C505 1.510 . S
C496 C492 1.401 . S
C496 C495 1.396 . S
C497 C492 1.499 . S
C497 H498 0.959 . S
C497 H499 0.960 . S
C497 H500 0.961 . S
H498 C497 0.959 . S
H499 C497 0.960 . S
H500 C497 0.961 . S
O501 Co476 1.967 . S
O501 C509 1.258 . S
O502 Co477 1.941 . S
O502 C509 1.266 . S
H503 C505 0.959 . S
H504 C505 0.961 . S
C505 C495 1.510 . S
C505 H503 0.959 . S
C505 H504 0.961 . S
C505 H506 0.960 . S
H506 C505 0.960 . S
H507 N487 0.862 . S
O508 Co476 1.920 . S
O508 C481 1.289 . S
C509 O501 1.258 . S
C509 O502 1.266 . S
Co510 O513 1.970 . S
Co510 N527 1.989 . S
Co510 O535 1.967 . S
Co510 O542 1.920 . S
Co511 O514 1.966 . S
Co511 N520 2.022 . S
Co511 N528 1.993 . S
Co511 O536 1.941 . S
C512 O513 1.258 . S
C512 O514 1.263 . S
O513 Co510 1.970 . S
O513 C512 1.258 . S
O514 Co511 1.966 . S
O514 C512 1.263 . S
C515 O516 1.235 . S
C515 O542 1.289 . S
O516 C515 1.235 . S
C517 C519 1.400 . S
C517 N520 1.351 . S
C517 C522 1.501 . S
C518 C519 1.387 . S
C518 N521 1.341 . S
C519 C517 1.400 . S
C519 C518 1.387 . S
N520 Co511 2.022 . S
N520 C517 1.351 . S
N520 N521 1.365 . S
N521 C518 1.341 . S
N521 N520 1.365 . S
N521 H541 0.862 . S
C522 C517 1.501 . S
C522 H523 0.961 . S
C522 H524 0.961 . S
C522 H525 0.960 . S
H523 C522 0.961 . S
H524 C522 0.961 . S
H525 C522 0.960 . S
C526 N527 1.342 . S
C526 C530 1.401 . S
C526 C531 1.499 . S
N527 Co510 1.989 . S
N527 C526 1.342 . S
N527 N528 1.388 . S
N528 Co511 1.993 . S
N528 N527 1.388 . S
N528 C529 1.346 . S
C529 N528 1.346 . S
C529 C530 1.396 . S
C529 C539 1.510 . S
C530 C526 1.401 . S
C530 C529 1.396 . S
C531 C526 1.499 . S
C531 H532 0.959 . S
C531 H533 0.960 . S
C531 H534 0.961 . S
H532 C531 0.959 . S
H533 C531 0.960 . S
H534 C531 0.961 . S
O535 Co510 1.967 . S
O535 C543 1.258 . S
O536 Co511 1.941 . S
O536 C543 1.266 . S
H537 C539 0.959 . S
H538 C539 0.961 . S
C539 C529 1.510 . S
C539 H537 0.959 . S
C539 H538 0.961 . S
C539 H540 0.960 . S
H540 C539 0.960 . S
H541 N521 0.862 . S
O542 Co510 1.920 . S
O542 C515 1.289 . S
C543 O535 1.258 . S
C543 O536 1.266 . S
Co544 O547 1.970 . S
Co544 N561 1.989 . S
Co544 O569 1.967 . S
Co544 O576 1.920 . S
Co545 O548 1.966 . S
Co545 N554 2.022 . S
Co545 N562 1.993 . S
Co545 O570 1.941 . S
C546 O547 1.258 . S
C546 O548 1.263 . S
O547 Co544 1.970 . S
O547 C546 1.258 . S
O548 Co545 1.966 . S
O548 C546 1.263 . S
C549 O550 1.235 . S
C549 O576 1.289 . S
O550 C549 1.235 . S
C551 C553 1.400 . S
C551 N554 1.351 . S
C551 C556 1.501 . S
C552 C553 1.387 . S
C552 N555 1.341 . S
C553 C551 1.400 . S
C553 C552 1.387 . S
N554 Co545 2.022 . S
N554 C551 1.351 . S
N554 N555 1.365 . S
N555 C552 1.341 . S
N555 N554 1.365 . S
N555 H575 0.862 . S
C556 C551 1.501 . S
C556 H557 0.961 . S
C556 H558 0.961 . S
C556 H559 0.960 . S
H557 C556 0.961 . S
H558 C556 0.961 . S
H559 C556 0.960 . S
C560 N561 1.342 . S
C560 C564 1.401 . S
C560 C565 1.499 . S
N561 Co544 1.989 . S
N561 C560 1.342 . S
N561 N562 1.388 . S
N562 Co545 1.993 . S
N562 N561 1.388 . S
N562 C563 1.346 . S
C563 N562 1.346 . S
C563 C564 1.396 . S
C563 C573 1.510 . S
C564 C560 1.401 . S
C564 C563 1.396 . S
C565 C560 1.499 . S
C565 H566 0.959 . S
C565 H567 0.960 . S
C565 H568 0.961 . S
H566 C565 0.959 . S
H567 C565 0.960 . S
H568 C565 0.961 . S
O569 Co544 1.967 . S
O569 C577 1.258 . S
O570 Co545 1.941 . S
O570 C577 1.266 . S
H571 C573 0.959 . S
H572 C573 0.961 . S
C573 C563 1.510 . S
C573 H571 0.959 . S
C573 H572 0.961 . S
C573 H574 0.960 . S
H574 C573 0.960 . S
H575 N555 0.862 . S
O576 Co544 1.920 . S
O576 C549 1.289 . S
C577 O569 1.258 . S
C577 O570 1.266 . S
Co578 O581 1.970 . S
Co578 N595 1.989 . S
Co578 O603 1.967 . S
Co578 O610 1.920 . S
Co579 O582 1.966 . S
Co579 N588 2.022 . S
Co579 N596 1.993 . S
Co579 O604 1.941 . S
C580 O581 1.258 . S
C580 O582 1.263 . S
O581 Co578 1.970 . S
O581 C580 1.258 . S
O582 Co579 1.966 . S
O582 C580 1.263 . S
C583 O584 1.235 . S
C583 O610 1.289 . S
O584 C583 1.235 . S
C585 C587 1.400 . S
C585 N588 1.351 . S
C585 C590 1.501 . S
C586 C587 1.387 . S
C586 N589 1.341 . S
C587 C585 1.400 . S
C587 C586 1.387 . S
N588 Co579 2.022 . S
N588 C585 1.351 . S
N588 N589 1.365 . S
N589 C586 1.341 . S
N589 N588 1.365 . S
N589 H609 0.862 . S
C590 C585 1.501 . S
C590 H591 0.961 . S
C590 H592 0.961 . S
C590 H593 0.960 . S
H591 C590 0.961 . S
H592 C590 0.961 . S
H593 C590 0.960 . S
C594 N595 1.342 . S
C594 C598 1.401 . S
C594 C599 1.499 . S
N595 Co578 1.989 . S
N595 C594 1.342 . S
N595 N596 1.388 . S
N596 Co579 1.993 . S
N596 N595 1.388 . S
N596 C597 1.346 . S
C597 N596 1.346 . S
C597 C598 1.396 . S
C597 C607 1.510 . S
C598 C594 1.401 . S
C598 C597 1.396 . S
C599 C594 1.499 . S
C599 H600 0.959 . S
C599 H601 0.960 . S
C599 H602 0.961 . S
H600 C599 0.959 . S
H601 C599 0.960 . S
H602 C599 0.961 . S
O603 Co578 1.967 . S
O603 C611 1.258 . S
O604 Co579 1.941 . S
O604 C611 1.266 . S
H605 C607 0.959 . S
H606 C607 0.961 . S
C607 C597 1.510 . S
C607 H605 0.959 . S
C607 H606 0.961 . S
C607 H608 0.960 . S
H608 C607 0.960 . S
H609 N589 0.862 . S
O610 Co578 1.920 . S
O610 C583 1.289 . S
C611 O603 1.258 . S
C611 O604 1.266 . S
Co612 O615 1.970 . S
Co612 N629 1.989 . S
Co612 O637 1.967 . S
Co612 O644 1.920 . S
Co613 O616 1.966 . S
Co613 N622 2.022 . S
Co613 N630 1.993 . S
Co613 O638 1.941 . S
C614 O615 1.258 . S
C614 O616 1.263 . S
O615 Co612 1.970 . S
O615 C614 1.258 . S
O616 Co613 1.966 . S
O616 C614 1.263 . S
C617 O618 1.235 . S
C617 O644 1.289 . S
O618 C617 1.235 . S
C619 C621 1.400 . S
C619 N622 1.351 . S
C619 C624 1.501 . S
C620 C621 1.387 . S
C620 N623 1.341 . S
C621 C619 1.400 . S
C621 C620 1.387 . S
N622 Co613 2.022 . S
N622 C619 1.351 . S
N622 N623 1.365 . S
N623 C620 1.341 . S
N623 N622 1.365 . S
N623 H643 0.862 . S
C624 C619 1.501 . S
C624 H625 0.961 . S
C624 H626 0.961 . S
C624 H627 0.960 . S
H625 C624 0.961 . S
H626 C624 0.961 . S
H627 C624 0.960 . S
C628 N629 1.342 . S
C628 C632 1.401 . S
C628 C633 1.499 . S
N629 Co612 1.989 . S
N629 C628 1.342 . S
N629 N630 1.388 . S
N630 Co613 1.993 . S
N630 N629 1.388 . S
N630 C631 1.346 . S
C631 N630 1.346 . S
C631 C632 1.396 . S
C631 C641 1.510 . S
C632 C628 1.401 . S
C632 C631 1.396 . S
C633 C628 1.499 . S
C633 H634 0.959 . S
C633 H635 0.960 . S
C633 H636 0.961 . S
H634 C633 0.959 . S
H635 C633 0.960 . S
H636 C633 0.961 . S
O637 Co612 1.967 . S
O637 C645 1.258 . S
O638 Co613 1.941 . S
O638 C645 1.266 . S
H639 C641 0.959 . S
H640 C641 0.961 . S
C641 C631 1.510 . S
C641 H639 0.959 . S
C641 H640 0.961 . S
C641 H642 0.960 . S
H642 C641 0.960 . S
H643 N623 0.862 . S
O644 Co612 1.920 . S
O644 C617 1.289 . S
C645 O637 1.258 . S
C645 O638 1.266 . S
Co646 O649 1.970 . S
Co646 N663 1.989 . S
Co646 O671 1.967 . S
Co646 O678 1.920 . S
Co647 O650 1.966 . S
Co647 N656 2.022 . S
Co647 N664 1.993 . S
Co647 O672 1.941 . S
C648 O649 1.258 . S
C648 O650 1.263 . S
O649 Co646 1.970 . S
O649 C648 1.258 . S
O650 Co647 1.966 . S
O650 C648 1.263 . S
C651 O652 1.235 . S
C651 O678 1.289 . S
O652 C651 1.235 . S
C653 C655 1.400 . S
C653 N656 1.351 . S
C653 C658 1.501 . S
C654 C655 1.387 . S
C654 N657 1.341 . S
C655 C653 1.400 . S
C655 C654 1.387 . S
N656 Co647 2.022 . S
N656 C653 1.351 . S
N656 N657 1.365 . S
N657 C654 1.341 . S
N657 N656 1.365 . S
N657 H677 0.862 . S
C658 C653 1.501 . S
C658 H659 0.961 . S
C658 H660 0.961 . S
C658 H661 0.960 . S
H659 C658 0.961 . S
H660 C658 0.961 . S
H661 C658 0.960 . S
C662 N663 1.342 . S
C662 C666 1.401 . S
C662 C667 1.499 . S
N663 Co646 1.989 . S
N663 C662 1.342 . S
N663 N664 1.388 . S
N664 Co647 1.993 . S
N664 N663 1.388 . S
N664 C665 1.346 . S
C665 N664 1.346 . S
C665 C666 1.396 . S
C665 C675 1.510 . S
C666 C662 1.401 . S
C666 C665 1.396 . S
C667 C662 1.499 . S
C667 H668 0.959 . S
C667 H669 0.960 . S
C667 H670 0.961 . S
H668 C667 0.959 . S
H669 C667 0.960 . S
H670 C667 0.961 . S
O671 Co646 1.967 . S
O671 C679 1.258 . S
O672 Co647 1.941 . S
O672 C679 1.266 . S
H673 C675 0.959 . S
H674 C675 0.961 . S
C675 C665 1.510 . S
C675 H673 0.959 . S
C675 H674 0.961 . S
C675 H676 0.960 . S
H676 C675 0.960 . S
H677 N657 0.862 . S
O678 Co646 1.920 . S
O678 C651 1.289 . S
C679 O671 1.258 . S
C679 O672 1.266 . S
Co680 O683 1.970 . S
Co680 N697 1.989 . S
Co680 O705 1.967 . S
Co680 O712 1.920 . S
Co681 O684 1.966 . S
Co681 N690 2.022 . S
Co681 N698 1.993 . S
Co681 O706 1.941 . S
C682 O683 1.258 . S
C682 O684 1.263 . S
O683 Co680 1.970 . S
O683 C682 1.258 . S
O684 Co681 1.966 . S
O684 C682 1.263 . S
C685 O686 1.235 . S
C685 O712 1.289 . S
O686 C685 1.235 . S
C687 C689 1.400 . S
C687 N690 1.351 . S
C687 C692 1.501 . S
C688 C689 1.387 . S
C688 N691 1.341 . S
C689 C687 1.400 . S
C689 C688 1.387 . S
N690 Co681 2.022 . S
N690 C687 1.351 . S
N690 N691 1.365 . S
N691 C688 1.341 . S
N691 N690 1.365 . S
N691 H711 0.862 . S
C692 C687 1.501 . S
C692 H693 0.961 . S
C692 H694 0.961 . S
C692 H695 0.960 . S
H693 C692 0.961 . S
H694 C692 0.961 . S
H695 C692 0.960 . S
C696 N697 1.342 . S
C696 C700 1.401 . S
C696 C701 1.499 . S
N697 Co680 1.989 . S
N697 C696 1.342 . S
N697 N698 1.388 . S
N698 Co681 1.993 . S
N698 N697 1.388 . S
N698 C699 1.346 . S
C699 N698 1.346 . S
C699 C700 1.396 . S
C699 C709 1.510 . S
C700 C696 1.401 . S
C700 C699 1.396 . S
C701 C696 1.499 . S
C701 H702 0.959 . S
C701 H703 0.960 . S
C701 H704 0.961 . S
H702 C701 0.959 . S
H703 C701 0.960 . S
H704 C701 0.961 . S
O705 Co680 1.967 . S
O705 C713 1.258 . S
O706 Co681 1.941 . S
O706 C713 1.266 . S
H707 C709 0.959 . S
H708 C709 0.961 . S
C709 C699 1.510 . S
C709 H707 0.959 . S
C709 H708 0.961 . S
C709 H710 0.960 . S
H710 C709 0.960 . S
H711 N691 0.862 . S
O712 Co680 1.920 . S
O712 C685 1.289 . S
C713 O705 1.258 . S
C713 O706 1.266 . S
Co714 O717 1.970 . S
Co714 N731 1.989 . S
Co714 O739 1.967 . S
Co714 O746 1.920 . S
Co715 O718 1.966 . S
Co715 N724 2.022 . S
Co715 N732 1.993 . S
Co715 O740 1.941 . S
C716 O717 1.258 . S
C716 O718 1.263 . S
O717 Co714 1.970 . S
O717 C716 1.258 . S
O718 Co715 1.966 . S
O718 C716 1.263 . S
C719 O720 1.235 . S
C719 O746 1.289 . S
O720 C719 1.235 . S
C721 C723 1.400 . S
C721 N724 1.351 . S
C721 C726 1.501 . S
C722 C723 1.387 . S
C722 N725 1.341 . S
C723 C721 1.400 . S
C723 C722 1.387 . S
N724 Co715 2.022 . S
N724 C721 1.351 . S
N724 N725 1.365 . S
N725 C722 1.341 . S
N725 N724 1.365 . S
N725 H745 0.862 . S
C726 C721 1.501 . S
C726 H727 0.961 . S
C726 H728 0.961 . S
C726 H729 0.960 . S
H727 C726 0.961 . S
H728 C726 0.961 . S
H729 C726 0.960 . S
C730 N731 1.342 . S
C730 C734 1.401 . S
C730 C735 1.499 . S
N731 Co714 1.989 . S
N731 C730 1.342 . S
N731 N732 1.388 . S
N732 Co715 1.993 . S
N732 N731 1.388 . S
N732 C733 1.346 . S
C733 N732 1.346 . S
C733 C734 1.396 . S
C733 C743 1.510 . S
C734 C730 1.401 . S
C734 C733 1.396 . S
C735 C730 1.499 . S
C735 H736 0.959 . S
C735 H737 0.960 . S
C735 H738 0.961 . S
H736 C735 0.959 . S
H737 C735 0.960 . S
H738 C735 0.961 . S
O739 Co714 1.967 . S
O739 C747 1.258 . S
O740 Co715 1.941 . S
O740 C747 1.266 . S
H741 C743 0.959 . S
H742 C743 0.961 . S
C743 C733 1.510 . S
C743 H741 0.959 . S
C743 H742 0.961 . S
C743 H744 0.960 . S
H744 C743 0.960 . S
H745 N725 0.862 . S
O746 Co714 1.920 . S
O746 C719 1.289 . S
C747 O739 1.258 . S
C747 O740 1.266 . S
Co748 O751 1.970 . S
Co748 N765 1.989 . S
Co748 O773 1.967 . S
Co748 O780 1.920 . S
Co749 O752 1.966 . S
Co749 N758 2.022 . S
Co749 N766 1.993 . S
Co749 O774 1.941 . S
C750 O751 1.258 . S
C750 O752 1.263 . S
O751 Co748 1.970 . S
O751 C750 1.258 . S
O752 Co749 1.966 . S
O752 C750 1.263 . S
C753 O754 1.235 . S
C753 O780 1.289 . S
O754 C753 1.235 . S
C755 C757 1.400 . S
C755 N758 1.351 . S
C755 C760 1.501 . S
C756 C757 1.387 . S
C756 N759 1.341 . S
C757 C755 1.400 . S
C757 C756 1.387 . S
N758 Co749 2.022 . S
N758 C755 1.351 . S
N758 N759 1.365 . S
N759 C756 1.341 . S
N759 N758 1.365 . S
N759 H779 0.862 . S
C760 C755 1.501 . S
C760 H761 0.961 . S
C760 H762 0.961 . S
C760 H763 0.960 . S
H761 C760 0.961 . S
H762 C760 0.961 . S
H763 C760 0.960 . S
C764 N765 1.342 . S
C764 C768 1.401 . S
C764 C769 1.499 . S
N765 Co748 1.989 . S
N765 C764 1.342 . S
N765 N766 1.388 . S
N766 Co749 1.993 . S
N766 N765 1.388 . S
N766 C767 1.346 . S
C767 N766 1.346 . S
C767 C768 1.396 . S
C767 C777 1.510 . S
C768 C764 1.401 . S
C768 C767 1.396 . S
C769 C764 1.499 . S
C769 H770 0.959 . S
C769 H771 0.960 . S
C769 H772 0.961 . S
H770 C769 0.959 . S
H771 C769 0.960 . S
H772 C769 0.961 . S
O773 Co748 1.967 . S
O773 C781 1.258 . S
O774 Co749 1.941 . S
O774 C781 1.266 . S
H775 C777 0.959 . S
H776 C777 0.961 . S
C777 C767 1.510 . S
C777 H775 0.959 . S
C777 H776 0.961 . S
C777 H778 0.960 . S
H778 C777 0.960 . S
H779 N759 0.862 . S
O780 Co748 1.920 . S
O780 C753 1.289 . S
C781 O773 1.258 . S
C781 O774 1.266 . S
Co782 O785 1.970 . S
Co782 N799 1.989 . S
Co782 O807 1.967 . S
Co782 O814 1.920 . S
Co783 O786 1.966 . S
Co783 N792 2.022 . S
Co783 N800 1.993 . S
Co783 O808 1.941 . S
C784 O785 1.258 . S
C784 O786 1.263 . S
O785 Co782 1.970 . S
O785 C784 1.258 . S
O786 Co783 1.966 . S
O786 C784 1.263 . S
C787 O788 1.235 . S
C787 O814 1.289 . S
O788 C787 1.235 . S
C789 C791 1.400 . S
C789 N792 1.351 . S
C789 C794 1.501 . S
C790 C791 1.387 . S
C790 N793 1.341 . S
C791 C789 1.400 . S
C791 C790 1.387 . S
N792 Co783 2.022 . S
N792 C789 1.351 . S
N792 N793 1.365 . S
N793 C790 1.341 . S
N793 N792 1.365 . S
N793 H813 0.862 . S
C794 C789 1.501 . S
C794 H795 0.961 . S
C794 H796 0.961 . S
C794 H797 0.960 . S
H795 C794 0.961 . S
H796 C794 0.961 . S
H797 C794 0.960 . S
C798 N799 1.342 . S
C798 C802 1.401 . S
C798 C803 1.499 . S
N799 Co782 1.989 . S
N799 C798 1.342 . S
N799 N800 1.388 . S
N800 Co783 1.993 . S
N800 N799 1.388 . S
N800 C801 1.346 . S
C801 N800 1.346 . S
C801 C802 1.396 . S
C801 C811 1.510 . S
C802 C798 1.401 . S
C802 C801 1.396 . S
C803 C798 1.499 . S
C803 H804 0.959 . S
C803 H805 0.960 . S
C803 H806 0.961 . S
H804 C803 0.959 . S
H805 C803 0.960 . S
H806 C803 0.961 . S
O807 Co782 1.967 . S
O807 C815 1.258 . S
O808 Co783 1.941 . S
O808 C815 1.266 . S
H809 C811 0.959 . S
H810 C811 0.961 . S
C811 C801 1.510 . S
C811 H809 0.959 . S
C811 H810 0.961 . S
C811 H812 0.960 . S
H812 C811 0.960 . S
H813 N793 0.862 . S
O814 Co782 1.920 . S
O814 C787 1.289 . S
C815 O807 1.258 . S
C815 O808 1.266 . S
Co816 O819 1.970 . S
Co816 N833 1.989 . S
Co816 O841 1.967 . S
Co816 O848 1.920 . S
Co817 O820 1.966 . S
Co817 N826 2.022 . S
Co817 N834 1.993 . S
Co817 O842 1.941 . S
C818 O819 1.258 . S
C818 O820 1.263 . S
O819 Co816 1.970 . S
O819 C818 1.258 . S
O820 Co817 1.966 . S
O820 C818 1.263 . S
C821 O822 1.235 . S
C821 O848 1.289 . S
O822 C821 1.235 . S
C823 C825 1.400 . S
C823 N826 1.351 . S
C823 C828 1.501 . S
C824 C825 1.387 . S
C824 N827 1.341 . S
C825 C823 1.400 . S
C825 C824 1.387 . S
N826 Co817 2.022 . S
N826 C823 1.351 . S
N826 N827 1.365 . S
N827 C824 1.341 . S
N827 N826 1.365 . S
N827 H847 0.862 . S
C828 C823 1.501 . S
C828 H829 0.961 . S
C828 H830 0.961 . S
C828 H831 0.960 . S
H829 C828 0.961 . S
H830 C828 0.961 . S
H831 C828 0.960 . S
C832 N833 1.342 . S
C832 C836 1.401 . S
C832 C837 1.499 . S
N833 Co816 1.989 . S
N833 C832 1.342 . S
N833 N834 1.388 . S
N834 Co817 1.993 . S
N834 N833 1.388 . S
N834 C835 1.346 . S
C835 N834 1.346 . S
C835 C836 1.396 . S
C835 C845 1.510 . S
C836 C832 1.401 . S
C836 C835 1.396 . S
C837 C832 1.499 . S
C837 H838 0.959 . S
C837 H839 0.960 . S
C837 H840 0.961 . S
H838 C837 0.959 . S
H839 C837 0.960 . S
H840 C837 0.961 . S
O841 Co816 1.967 . S
O841 C849 1.258 . S
O842 Co817 1.941 . S
O842 C849 1.266 . S
H843 C845 0.959 . S
H844 C845 0.961 . S
C845 C835 1.510 . S
C845 H843 0.959 . S
C845 H844 0.961 . S
C845 H846 0.960 . S
H846 C845 0.960 . S
H847 N827 0.862 . S
O848 Co816 1.920 . S
O848 C821 1.289 . S
C849 O841 1.258 . S
C849 O842 1.266 . S
Co850 O853 1.970 . S
Co850 N867 1.989 . S
Co850 O875 1.967 . S
Co850 O882 1.920 . S
Co851 O854 1.966 . S
Co851 N860 2.022 . S
Co851 N868 1.993 . S
Co851 O876 1.941 . S
C852 O853 1.258 . S
C852 O854 1.263 . S
O853 Co850 1.970 . S
O853 C852 1.258 . S
O854 Co851 1.966 . S
O854 C852 1.263 . S
C855 O856 1.235 . S
C855 O882 1.289 . S
O856 C855 1.235 . S
C857 C859 1.400 . S
C857 N860 1.351 . S
C857 C862 1.501 . S
C858 C859 1.387 . S
C858 N861 1.341 . S
C859 C857 1.400 . S
C859 C858 1.387 . S
N860 Co851 2.022 . S
N860 C857 1.351 . S
N860 N861 1.365 . S
N861 C858 1.341 . S
N861 N860 1.365 . S
N861 H881 0.862 . S
C862 C857 1.501 . S
C862 H863 0.961 . S
C862 H864 0.961 . S
C862 H865 0.960 . S
H863 C862 0.961 . S
H864 C862 0.961 . S
H865 C862 0.960 . S
C866 N867 1.342 . S
C866 C870 1.401 . S
C866 C871 1.499 . S
N867 Co850 1.989 . S
N867 C866 1.342 . S
N867 N868 1.388 . S
N868 Co851 1.993 . S
N868 N867 1.388 . S
N868 C869 1.346 . S
C869 N868 1.346 . S
C869 C870 1.396 . S
C869 C879 1.510 . S
C870 C866 1.401 . S
C870 C869 1.396 . S
C871 C866 1.499 . S
C871 H872 0.959 . S
C871 H873 0.960 . S
C871 H874 0.961 . S
H872 C871 0.959 . S
H873 C871 0.960 . S
H874 C871 0.961 . S
O875 Co850 1.967 . S
O875 C883 1.258 . S
O876 Co851 1.941 . S
O876 C883 1.266 . S
H877 C879 0.959 . S
H878 C879 0.961 . S
C879 C869 1.510 . S
C879 H877 0.959 . S
C879 H878 0.961 . S
C879 H880 0.960 . S
H880 C879 0.960 . S
H881 N861 0.862 . S
O882 Co850 1.920 . S
O882 C855 1.289 . S
C883 O875 1.258 . S
C883 O876 1.266 . S
Co884 O887 1.970 . S
Co884 N901 1.989 . S
Co884 O909 1.967 . S
Co884 O916 1.920 . S
Co885 O888 1.966 . S
Co885 N894 2.022 . S
Co885 N902 1.993 . S
Co885 O910 1.941 . S
C886 O887 1.258 . S
C886 O888 1.263 . S
O887 Co884 1.970 . S
O887 C886 1.258 . S
O888 Co885 1.966 . S
O888 C886 1.263 . S
C889 O890 1.235 . S
C889 O916 1.289 . S
O890 C889 1.235 . S
C891 C893 1.400 . S
C891 N894 1.351 . S
C891 C896 1.501 . S
C892 C893 1.387 . S
C892 N895 1.341 . S
C893 C891 1.400 . S
C893 C892 1.387 . S
N894 Co885 2.022 . S
N894 C891 1.351 . S
N894 N895 1.365 . S
N895 C892 1.341 . S
N895 N894 1.365 . S
N895 H915 0.862 . S
C896 C891 1.501 . S
C896 H897 0.961 . S
C896 H898 0.961 . S
C896 H899 0.960 . S
H897 C896 0.961 . S
H898 C896 0.961 . S
H899 C896 0.960 . S
C900 N901 1.342 . S
C900 C904 1.401 . S
C900 C905 1.499 . S
N901 Co884 1.989 . S
N901 C900 1.342 . S
N901 N902 1.388 . S
N902 Co885 1.993 . S
N902 N901 1.388 . S
N902 C903 1.346 . S
C903 N902 1.346 . S
C903 C904 1.396 . S
C903 C913 1.510 . S
C904 C900 1.401 . S
C904 C903 1.396 . S
C905 C900 1.499 . S
C905 H906 0.959 . S
C905 H907 0.960 . S
C905 H908 0.961 . S
H906 C905 0.959 . S
H907 C905 0.960 . S
H908 C905 0.961 . S
O909 Co884 1.967 . S
O909 C917 1.258 . S
O910 Co885 1.941 . S
O910 C917 1.266 . S
H911 C913 0.959 . S
H912 C913 0.961 . S
C913 C903 1.510 . S
C913 H911 0.959 . S
C913 H912 0.961 . S
C913 H914 0.960 . S
H914 C913 0.960 . S
H915 N895 0.862 . S
O916 Co884 1.920 . S
O916 C889 1.289 . S
C917 O909 1.258 . S
C917 O910 1.266 . S
Co918 O921 1.970 . S
Co918 N935 1.989 . S
Co918 O943 1.967 . S
Co918 O950 1.920 . S
Co919 O922 1.966 . S
Co919 N928 2.022 . S
Co919 N936 1.993 . S
Co919 O944 1.941 . S
C920 O921 1.258 . S
C920 O922 1.263 . S
O921 Co918 1.970 . S
O921 C920 1.258 . S
O922 Co919 1.966 . S
O922 C920 1.263 . S
C923 O924 1.235 . S
C923 O950 1.289 . S
O924 C923 1.235 . S
C925 C927 1.400 . S
C925 N928 1.351 . S
C925 C930 1.501 . S
C926 C927 1.387 . S
C926 N929 1.341 . S
C927 C925 1.400 . S
C927 C926 1.387 . S
N928 Co919 2.022 . S
N928 C925 1.351 . S
N928 N929 1.365 . S
N929 C926 1.341 . S
N929 N928 1.365 . S
N929 H949 0.862 . S
C930 C925 1.501 . S
C930 H931 0.961 . S
C930 H932 0.961 . S
C930 H933 0.960 . S
H931 C930 0.961 . S
H932 C930 0.961 . S
H933 C930 0.960 . S
C934 N935 1.342 . S
C934 C938 1.401 . S
C934 C939 1.499 . S
N935 Co918 1.989 . S
N935 C934 1.342 . S
N935 N936 1.388 . S
N936 Co919 1.993 . S
N936 N935 1.388 . S
N936 C937 1.346 . S
C937 N936 1.346 . S
C937 C938 1.396 . S
C937 C947 1.510 . S
C938 C934 1.401 . S
C938 C937 1.396 . S
C939 C934 1.499 . S
C939 H940 0.959 . S
C939 H941 0.960 . S
C939 H942 0.961 . S
H940 C939 0.959 . S
H941 C939 0.960 . S
H942 C939 0.961 . S
O943 Co918 1.967 . S
O943 C951 1.258 . S
O944 Co919 1.941 . S
O944 C951 1.266 . S
H945 C947 0.959 . S
H946 C947 0.961 . S
C947 C937 1.510 . S
C947 H945 0.959 . S
C947 H946 0.961 . S
C947 H948 0.960 . S
H948 C947 0.960 . S
H949 N929 0.862 . S
O950 Co918 1.920 . S
O950 C923 1.289 . S
C951 O943 1.258 . S
C951 O944 1.266 . S
Co952 O955 1.970 . S
Co952 N969 1.989 . S
Co952 O977 1.967 . S
Co952 O984 1.920 . S
Co953 O956 1.966 . S
Co953 N962 2.022 . S
Co953 N970 1.993 . S
Co953 O978 1.941 . S
C954 O955 1.258 . S
C954 O956 1.263 . S
O955 Co952 1.970 . S
O955 C954 1.258 . S
O956 Co953 1.966 . S
O956 C954 1.263 . S
C957 O958 1.235 . S
C957 O984 1.289 . S
O958 C957 1.235 . S
C959 C961 1.400 . S
C959 N962 1.351 . S
C959 C964 1.501 . S
C960 C961 1.387 . S
C960 N963 1.341 . S
C961 C959 1.400 . S
C961 C960 1.387 . S
N962 Co953 2.022 . S
N962 C959 1.351 . S
N962 N963 1.365 . S
N963 C960 1.341 . S
N963 N962 1.365 . S
N963 H983 0.862 . S
C964 C959 1.501 . S
C964 H965 0.961 . S
C964 H966 0.961 . S
C964 H967 0.960 . S
H965 C964 0.961 . S
H966 C964 0.961 . S
H967 C964 0.960 . S
C968 N969 1.342 . S
C968 C972 1.401 . S
C968 C973 1.499 . S
N969 Co952 1.989 . S
N969 C968 1.342 . S
N969 N970 1.388 . S
N970 Co953 1.993 . S
N970 N969 1.388 . S
N970 C971 1.346 . S
C971 N970 1.346 . S
C971 C972 1.396 . S
C971 C981 1.510 . S
C972 C968 1.401 . S
C972 C971 1.396 . S
C973 C968 1.499 . S
C973 H974 0.959 . S
C973 H975 0.960 . S
C973 H976 0.961 . S
H974 C973 0.959 . S
H975 C973 0.960 . S
H976 C973 0.961 . S
O977 Co952 1.967 . S
O977 C985 1.258 . S
O978 Co953 1.941 . S
O978 C985 1.266 . S
H979 C981 0.959 . S
H980 C981 0.961 . S
C981 C971 1.510 . S
C981 H979 0.959 . S
C981 H980 0.961 . S
C981 H982 0.960 . S
H982 C981 0.960 . S
H983 N963 0.862 . S
O984 Co952 1.920 . S
O984 C957 1.289 . S
C985 O977 1.258 . S
C985 O978 1.266 . S
Co986 O989 1.970 . S
Co986 N1003 1.989 . S
Co986 O1011 1.967 . S
Co986 O1018 1.920 . S
Co987 O990 1.966 . S
Co987 N996 2.022 . S
Co987 N1004 1.993 . S
Co987 O1012 1.941 . S
C988 O989 1.258 . S
C988 O990 1.263 . S
O989 Co986 1.970 . S
O989 C988 1.258 . S
O990 Co987 1.966 . S
O990 C988 1.263 . S
C991 O992 1.235 . S
C991 O1018 1.289 . S
O992 C991 1.235 . S
C993 C995 1.400 . S
C993 N996 1.351 . S
C993 C998 1.501 . S
C994 C995 1.387 . S
C994 N997 1.341 . S
C995 C993 1.400 . S
C995 C994 1.387 . S
N996 Co987 2.022 . S
N996 C993 1.351 . S
N996 N997 1.365 . S
N997 C994 1.341 . S
N997 N996 1.365 . S
N997 H1017 0.862 . S
C998 C993 1.501 . S
C998 H999 0.961 . S
C998 H1000 0.961 . S
C998 H1001 0.960 . S
H999 C998 0.961 . S
H1000 C998 0.961 . S
H1001 C998 0.960 . S
C1002 N1003 1.342 . S
C1002 C1006 1.401 . S
C1002 C1007 1.499 . S
N1003 Co986 1.989 . S
N1003 C1002 1.342 . S
N1003 N1004 1.388 . S
N1004 Co987 1.993 . S
N1004 N1003 1.388 . S
N1004 C1005 1.346 . S
C1005 N1004 1.346 . S
C1005 C1006 1.396 . S
C1005 C1015 1.510 . S
C1006 C1002 1.401 . S
C1006 C1005 1.396 . S
C1007 C1002 1.499 . S
C1007 H1008 0.959 . S
C1007 H1009 0.960 . S
C1007 H1010 0.961 . S
H1008 C1007 0.959 . S
H1009 C1007 0.960 . S
H1010 C1007 0.961 . S
O1011 Co986 1.967 . S
O1011 C1019 1.258 . S
O1012 Co987 1.941 . S
O1012 C1019 1.266 . S
H1013 C1015 0.959 . S
H1014 C1015 0.961 . S
C1015 C1005 1.510 . S
C1015 H1013 0.959 . S
C1015 H1014 0.961 . S
C1015 H1016 0.960 . S
H1016 C1015 0.960 . S
H1017 N997 0.862 . S
O1018 Co986 1.920 . S
O1018 C991 1.289 . S
C1019 O1011 1.258 . S
C1019 O1012 1.266 . S
Co1020 O1023 1.970 . S
Co1020 N1037 1.989 . S
Co1020 O1045 1.967 . S
Co1020 O1052 1.920 . S
Co1021 O1024 1.966 . S
Co1021 N1030 2.022 . S
Co1021 N1038 1.993 . S
Co1021 O1046 1.941 . S
C1022 O1023 1.258 . S
C1022 O1024 1.263 . S
O1023 Co1020 1.970 . S
O1023 C1022 1.258 . S
O1024 Co1021 1.966 . S
O1024 C1022 1.263 . S
C1025 O1026 1.235 . S
C1025 O1052 1.289 . S
O1026 C1025 1.235 . S
C1027 C1029 1.400 . S
C1027 N1030 1.351 . S
C1027 C1032 1.501 . S
C1028 C1029 1.387 . S
C1028 N1031 1.341 . S
C1029 C1027 1.400 . S
C1029 C1028 1.387 . S
N1030 Co1021 2.022 . S
N1030 C1027 1.351 . S
N1030 N1031 1.365 . S
N1031 C1028 1.341 . S
N1031 N1030 1.365 . S
N1031 H1051 0.862 . S
C1032 C1027 1.501 . S
C1032 H1033 0.961 . S
C1032 H1034 0.961 . S
C1032 H1035 0.960 . S
H1033 C1032 0.961 . S
H1034 C1032 0.961 . S
H1035 C1032 0.960 . S
C1036 N1037 1.342 . S
C1036 C1040 1.401 . S
C1036 C1041 1.499 . S
N1037 Co1020 1.989 . S
N1037 C1036 1.342 . S
N1037 N1038 1.388 . S
N1038 Co1021 1.993 . S
N1038 N1037 1.388 . S
N1038 C1039 1.346 . S
C1039 N1038 1.346 . S
C1039 C1040 1.396 . S
C1039 C1049 1.510 . S
C1040 C1036 1.401 . S
C1040 C1039 1.396 . S
C1041 C1036 1.499 . S
C1041 H1042 0.959 . S
C1041 H1043 0.960 . S
C1041 H1044 0.961 . S
H1042 C1041 0.959 . S
H1043 C1041 0.960 . S
H1044 C1041 0.961 . S
O1045 Co1020 1.967 . S
O1045 C1053 1.258 . S
O1046 Co1021 1.941 . S
O1046 C1053 1.266 . S
H1047 C1049 0.959 . S
H1048 C1049 0.961 . S
C1049 C1039 1.510 . S
C1049 H1047 0.959 . S
C1049 H1048 0.961 . S
C1049 H1050 0.960 . S
H1050 C1049 0.960 . S
H1051 N1031 0.862 . S
O1052 Co1020 1.920 . S
O1052 C1025 1.289 . S
C1053 O1045 1.258 . S
C1053 O1046 1.266 . S
Co1054 O1057 1.970 . S
Co1054 N1071 1.989 . S
Co1054 O1079 1.967 . S
Co1054 O1086 1.920 . S
Co1055 O1058 1.966 . S
Co1055 N1064 2.022 . S
Co1055 N1072 1.993 . S
Co1055 O1080 1.941 . S
C1056 O1057 1.258 . S
C1056 O1058 1.263 . S
O1057 Co1054 1.970 . S
O1057 C1056 1.258 . S
O1058 Co1055 1.966 . S
O1058 C1056 1.263 . S
C1059 O1060 1.235 . S
C1059 O1086 1.289 . S
O1060 C1059 1.235 . S
C1061 C1063 1.400 . S
C1061 N1064 1.351 . S
C1061 C1066 1.501 . S
C1062 C1063 1.387 . S
C1062 N1065 1.341 . S
C1063 C1061 1.400 . S
C1063 C1062 1.387 . S
N1064 Co1055 2.022 . S
N1064 C1061 1.351 . S
N1064 N1065 1.365 . S
N1065 C1062 1.341 . S
N1065 N1064 1.365 . S
N1065 H1085 0.862 . S
C1066 C1061 1.501 . S
C1066 H1067 0.961 . S
C1066 H1068 0.961 . S
C1066 H1069 0.960 . S
H1067 C1066 0.961 . S
H1068 C1066 0.961 . S
H1069 C1066 0.960 . S
C1070 N1071 1.342 . S
C1070 C1074 1.401 . S
C1070 C1075 1.499 . S
N1071 Co1054 1.989 . S
N1071 C1070 1.342 . S
N1071 N1072 1.388 . S
N1072 Co1055 1.993 . S
N1072 N1071 1.388 . S
N1072 C1073 1.346 . S
C1073 N1072 1.346 . S
C1073 C1074 1.396 . S
C1073 C1083 1.510 . S
C1074 C1070 1.401 . S
C1074 C1073 1.396 . S
C1075 C1070 1.499 . S
C1075 H1076 0.959 . S
C1075 H1077 0.960 . S
C1075 H1078 0.961 . S
H1076 C1075 0.959 . S
H1077 C1075 0.960 . S
H1078 C1075 0.961 . S
O1079 Co1054 1.967 . S
O1079 C1087 1.258 . S
O1080 Co1055 1.941 . S
O1080 C1087 1.266 . S
H1081 C1083 0.959 . S
H1082 C1083 0.961 . S
C1083 C1073 1.510 . S
C1083 H1081 0.959 . S
C1083 H1082 0.961 . S
C1083 H1084 0.960 . S
H1084 C1083 0.960 . S
H1085 N1065 0.862 . S
O1086 Co1054 1.920 . S
O1086 C1059 1.289 . S
C1087 O1079 1.258 . S
C1087 O1080 1.266 . S
Co1088 O1091 1.970 . S
Co1088 N1105 1.989 . S
Co1088 O1113 1.967 . S
Co1088 O1120 1.920 . S
Co1089 O1092 1.966 . S
Co1089 N1098 2.022 . S
Co1089 N1106 1.993 . S
Co1089 O1114 1.941 . S
C1090 O1091 1.258 . S
C1090 O1092 1.263 . S
O1091 Co1088 1.970 . S
O1091 C1090 1.258 . S
O1092 Co1089 1.966 . S
O1092 C1090 1.263 . S
C1093 O1094 1.235 . S
C1093 O1120 1.289 . S
O1094 C1093 1.235 . S
C1095 C1097 1.400 . S
C1095 N1098 1.351 . S
C1095 C1100 1.501 . S
C1096 C1097 1.387 . S
C1096 N1099 1.341 . S
C1097 C1095 1.400 . S
C1097 C1096 1.387 . S
N1098 Co1089 2.022 . S
N1098 C1095 1.351 . S
N1098 N1099 1.365 . S
N1099 C1096 1.341 . S
N1099 N1098 1.365 . S
N1099 H1119 0.862 . S
C1100 C1095 1.501 . S
C1100 H1101 0.961 . S
C1100 H1102 0.961 . S
C1100 H1103 0.960 . S
H1101 C1100 0.961 . S
H1102 C1100 0.961 . S
H1103 C1100 0.960 . S
C1104 N1105 1.342 . S
C1104 C1108 1.401 . S
C1104 C1109 1.499 . S
N1105 Co1088 1.989 . S
N1105 C1104 1.342 . S
N1105 N1106 1.388 . S
N1106 Co1089 1.993 . S
N1106 N1105 1.388 . S
N1106 C1107 1.346 . S
C1107 N1106 1.346 . S
C1107 C1108 1.396 . S
C1107 C1117 1.510 . S
C1108 C1104 1.401 . S
C1108 C1107 1.396 . S
C1109 C1104 1.499 . S
C1109 H1110 0.959 . S
C1109 H1111 0.960 . S
C1109 H1112 0.961 . S
H1110 C1109 0.959 . S
H1111 C1109 0.960 . S
H1112 C1109 0.961 . S
O1113 Co1088 1.967 . S
O1113 C1121 1.258 . S
O1114 Co1089 1.941 . S
O1114 C1121 1.266 . S
H1115 C1117 0.959 . S
H1116 C1117 0.961 . S
C1117 C1107 1.510 . S
C1117 H1115 0.959 . S
C1117 H1116 0.961 . S
C1117 H1118 0.960 . S
H1118 C1117 0.960 . S
H1119 N1099 0.862 . S
O1120 Co1088 1.920 . S
O1120 C1093 1.289 . S
C1121 O1113 1.258 . S
C1121 O1114 1.266 . S
Co1122 O1125 1.970 . S
Co1122 N1139 1.989 . S
Co1122 O1147 1.967 . S
Co1122 O1154 1.920 . S
Co1123 O1126 1.966 . S
Co1123 N1132 2.022 . S
Co1123 N1140 1.993 . S
Co1123 O1148 1.941 . S
C1124 O1125 1.258 . S
C1124 O1126 1.263 . S
O1125 Co1122 1.970 . S
O1125 C1124 1.258 . S
O1126 Co1123 1.966 . S
O1126 C1124 1.263 . S
C1127 O1128 1.235 . S
C1127 O1154 1.289 . S
O1128 C1127 1.235 . S
C1129 C1131 1.400 . S
C1129 N1132 1.351 . S
C1129 C1134 1.501 . S
C1130 C1131 1.387 . S
C1130 N1133 1.341 . S
C1131 C1129 1.400 . S
C1131 C1130 1.387 . S
N1132 Co1123 2.022 . S
N1132 C1129 1.351 . S
N1132 N1133 1.365 . S
N1133 C1130 1.341 . S
N1133 N1132 1.365 . S
N1133 H1153 0.862 . S
C1134 C1129 1.501 . S
C1134 H1135 0.961 . S
C1134 H1136 0.961 . S
C1134 H1137 0.960 . S
H1135 C1134 0.961 . S
H1136 C1134 0.961 . S
H1137 C1134 0.960 . S
C1138 N1139 1.342 . S
C1138 C1142 1.401 . S
C1138 C1143 1.499 . S
N1139 Co1122 1.989 . S
N1139 C1138 1.342 . S
N1139 N1140 1.388 . S
N1140 Co1123 1.993 . S
N1140 N1139 1.388 . S
N1140 C1141 1.346 . S
C1141 N1140 1.346 . S
C1141 C1142 1.396 . S
C1141 C1151 1.510 . S
C1142 C1138 1.401 . S
C1142 C1141 1.396 . S
C1143 C1138 1.499 . S
C1143 H1144 0.959 . S
C1143 H1145 0.960 . S
C1143 H1146 0.961 . S
H1144 C1143 0.959 . S
H1145 C1143 0.960 . S
H1146 C1143 0.961 . S
O1147 Co1122 1.967 . S
O1147 C1155 1.258 . S
O1148 Co1123 1.941 . S
O1148 C1155 1.266 . S
H1149 C1151 0.959 . S
H1150 C1151 0.961 . S
C1151 C1141 1.510 . S
C1151 H1149 0.959 . S
C1151 H1150 0.961 . S
C1151 H1152 0.960 . S
H1152 C1151 0.960 . S
H1153 N1133 0.862 . S
O1154 Co1122 1.920 . S
O1154 C1127 1.289 . S
C1155 O1147 1.258 . S
C1155 O1148 1.266 . S
Co1156 O1159 1.970 . S
Co1156 N1173 1.989 . S
Co1156 O1181 1.967 . S
Co1156 O1188 1.920 . S
Co1157 O1160 1.966 . S
Co1157 N1166 2.022 . S
Co1157 N1174 1.993 . S
Co1157 O1182 1.941 . S
C1158 O1159 1.258 . S
C1158 O1160 1.263 . S
O1159 Co1156 1.970 . S
O1159 C1158 1.258 . S
O1160 Co1157 1.966 . S
O1160 C1158 1.263 . S
C1161 O1162 1.235 . S
C1161 O1188 1.289 . S
O1162 C1161 1.235 . S
C1163 C1165 1.400 . S
C1163 N1166 1.351 . S
C1163 C1168 1.501 . S
C1164 C1165 1.387 . S
C1164 N1167 1.341 . S
C1165 C1163 1.400 . S
C1165 C1164 1.387 . S
N1166 Co1157 2.022 . S
N1166 C1163 1.351 . S
N1166 N1167 1.365 . S
N1167 C1164 1.341 . S
N1167 N1166 1.365 . S
N1167 H1187 0.862 . S
C1168 C1163 1.501 . S
C1168 H1169 0.961 . S
C1168 H1170 0.961 . S
C1168 H1171 0.960 . S
H1169 C1168 0.961 . S
H1170 C1168 0.961 . S
H1171 C1168 0.960 . S
C1172 N1173 1.342 . S
C1172 C1176 1.401 . S
C1172 C1177 1.499 . S
N1173 Co1156 1.989 . S
N1173 C1172 1.342 . S
N1173 N1174 1.388 . S
N1174 Co1157 1.993 . S
N1174 N1173 1.388 . S
N1174 C1175 1.346 . S
C1175 N1174 1.346 . S
C1175 C1176 1.396 . S
C1175 C1185 1.510 . S
C1176 C1172 1.401 . S
C1176 C1175 1.396 . S
C1177 C1172 1.499 . S
C1177 H1178 0.959 . S
C1177 H1179 0.960 . S
C1177 H1180 0.961 . S
H1178 C1177 0.959 . S
H1179 C1177 0.960 . S
H1180 C1177 0.961 . S
O1181 Co1156 1.967 . S
O1181 C1189 1.258 . S
O1182 Co1157 1.941 . S
O1182 C1189 1.266 . S
H1183 C1185 0.959 . S
H1184 C1185 0.961 . S
C1185 C1175 1.510 . S
C1185 H1183 0.959 . S
C1185 H1184 0.961 . S
C1185 H1186 0.960 . S
H1186 C1185 0.960 . S
H1187 N1167 0.862 . S
O1188 Co1156 1.920 . S
O1188 C1161 1.289 . S
C1189 O1181 1.258 . S
C1189 O1182 1.266 . S
Co1190 O1193 1.970 . S
Co1190 N1207 1.989 . S
Co1190 O1215 1.967 . S
Co1190 O1222 1.920 . S
Co1191 O1194 1.966 . S
Co1191 N1200 2.022 . S
Co1191 N1208 1.993 . S
Co1191 O1216 1.941 . S
C1192 O1193 1.258 . S
C1192 O1194 1.263 . S
O1193 Co1190 1.970 . S
O1193 C1192 1.258 . S
O1194 Co1191 1.966 . S
O1194 C1192 1.263 . S
C1195 O1196 1.235 . S
C1195 O1222 1.289 . S
O1196 C1195 1.235 . S
C1197 C1199 1.400 . S
C1197 N1200 1.351 . S
C1197 C1202 1.501 . S
C1198 C1199 1.387 . S
C1198 N1201 1.341 . S
C1199 C1197 1.400 . S
C1199 C1198 1.387 . S
N1200 Co1191 2.022 . S
N1200 C1197 1.351 . S
N1200 N1201 1.365 . S
N1201 C1198 1.341 . S
N1201 N1200 1.365 . S
N1201 H1221 0.862 . S
C1202 C1197 1.501 . S
C1202 H1203 0.961 . S
C1202 H1204 0.961 . S
C1202 H1205 0.960 . S
H1203 C1202 0.961 . S
H1204 C1202 0.961 . S
H1205 C1202 0.960 . S
C1206 N1207 1.342 . S
C1206 C1210 1.401 . S
C1206 C1211 1.499 . S
N1207 Co1190 1.989 . S
N1207 C1206 1.342 . S
N1207 N1208 1.388 . S
N1208 Co1191 1.993 . S
N1208 N1207 1.388 . S
N1208 C1209 1.346 . S
C1209 N1208 1.346 . S
C1209 C1210 1.396 . S
C1209 C1219 1.510 . S
C1210 C1206 1.401 . S
C1210 C1209 1.396 . S
C1211 C1206 1.499 . S
C1211 H1212 0.959 . S
C1211 H1213 0.960 . S
C1211 H1214 0.961 . S
H1212 C1211 0.959 . S
H1213 C1211 0.960 . S
H1214 C1211 0.961 . S
O1215 Co1190 1.967 . S
O1215 C1223 1.258 . S
O1216 Co1191 1.941 . S
O1216 C1223 1.266 . S
H1217 C1219 0.959 . S
H1218 C1219 0.961 . S
C1219 C1209 1.510 . S
C1219 H1217 0.959 . S
C1219 H1218 0.961 . S
C1219 H1220 0.960 . S
H1220 C1219 0.960 . S
H1221 N1201 0.862 . S
O1222 Co1190 1.920 . S
O1222 C1195 1.289 . S
C1223 O1215 1.258 . S
C1223 O1216 1.266 . S
C1224 C1225 1.387 1_554 S
C1224 H1228 0.950 . S
C1224 C1233 1.390 . S
C1225 C1224 1.387 1_556 S
C1225 C1227 1.387 . S
H1226 C1233 0.950 . S
C1227 C1225 1.387 . S
C1227 C1229 1.390 . S
C1227 H1231 0.950 . S
H1228 C1224 0.950 . S
C1229 C1227 1.390 . S
C1229 C1230 1.387 1_556 S
C1229 H1232 0.950 . S
C1230 C1229 1.387 1_554 S
C1230 C1233 1.387 . S
H1231 C1227 0.950 . S
H1232 C1229 0.950 . S
C1233 C1224 1.390 . S
C1233 H1226 0.950 . S
C1233 C1230 1.387 . S
C1234 C1235 1.387 . S
C1234 H1238 0.950 . S
C1234 C1243 1.390 . S
C1235 C1234 1.387 . S
C1235 C1237 1.387 1_554 S
H1236 C1243 0.950 . S
C1237 C1235 1.387 1_556 S
C1237 C1239 1.390 . S
C1237 H1241 0.950 . S
H1238 C1234 0.950 . S
C1239 C1237 1.390 . S
C1239 C1240 1.387 . S
C1239 H1242 0.950 . S
C1240 C1239 1.387 . S
C1240 C1243 1.387 1_556 S
H1241 C1237 0.950 . S
H1242 C1239 0.950 . S
C1243 C1234 1.390 . S
C1243 H1236 0.950 . S
C1243 C1240 1.387 1_554 S
C1244 C1245 1.389 . S
C1244 H1248 0.953 . S
C1244 C1253 1.385 1_556 S
C1245 C1244 1.389 . S
C1245 C1247 1.387 1_556 S
H1246 C1253 0.950 . S
C1247 C1245 1.387 1_554 S
C1247 C1249 1.390 . S
C1247 H1251 0.952 . S
H1248 C1244 0.953 . S
C1249 C1247 1.390 . S
C1249 C1250 1.387 . S
C1249 H1252 0.950 . S
C1250 C1249 1.387 . S
C1250 C1253 1.387 . S
H1251 C1247 0.952 . S
H1252 C1249 0.950 . S
C1253 C1244 1.385 1_554 S
C1253 H1246 0.950 . S
C1253 C1250 1.387 . S
C1254 C1255 1.387 . S
C1254 H1258 0.950 . S
C1254 C1263 1.390 . S
C1255 C1254 1.387 . S
C1255 C1257 1.387 . S
H1256 C1263 0.950 . S
C1257 C1255 1.387 . S
C1257 C1259 1.390 . S
C1257 H1261 0.950 . S
H1258 C1254 0.950 . S
C1259 C1257 1.390 . S
C1259 C1260 1.387 . S
C1259 H1262 0.950 . S
C1260 C1259 1.387 . S
C1260 C1263 1.387 . S
H1261 C1257 0.950 . S
H1262 C1259 0.950 . S
C1263 C1254 1.390 . S
C1263 H1256 0.950 . S
C1263 C1260 1.387 . S
C1264 C1265 1.387 . S
C1264 H1268 0.950 . S
C1264 C1273 1.390 . S
C1265 C1264 1.387 . S
C1265 C1267 1.387 . S
H1266 C1273 0.950 . S
C1267 C1265 1.387 . S
C1267 C1269 1.390 . S
C1267 H1271 0.950 . S
H1268 C1264 0.950 . S
C1269 C1267 1.390 . S
C1269 C1270 1.387 . S
C1269 H1272 0.950 . S
C1270 C1269 1.387 . S
C1270 C1273 1.387 . S
H1271 C1267 0.950 . S
H1272 C1269 0.950 . S
C1273 C1264 1.390 . S
C1273 H1266 0.950 . S
C1273 C1270 1.387 . S
C1274 C1275 1.387 . S
C1274 H1278 0.950 . S
C1274 C1283 1.390 . S
C1275 C1274 1.387 . S
C1275 C1277 1.387 . S
H1276 C1283 0.950 . S
C1277 C1275 1.387 . S
C1277 C1279 1.390 . S
C1277 H1281 0.950 . S
H1278 C1274 0.950 . S
C1279 C1277 1.390 . S
C1279 C1280 1.387 . S
C1279 H1282 0.950 . S
C1280 C1279 1.387 . S
C1280 C1283 1.387 . S
H1281 C1277 0.950 . S
H1282 C1279 0.950 . S
C1283 C1274 1.390 . S
C1283 H1276 0.950 . S
C1283 C1280 1.387 . S
C1284 C1285 1.387 . S
C1284 H1288 0.950 . S
C1284 C1293 1.390 . S
C1285 C1284 1.387 . S
C1285 C1287 1.387 1_556 S
H1286 C1293 0.950 . S
C1287 C1285 1.387 1_554 S
C1287 C1289 1.390 . S
C1287 H1291 0.950 . S
H1288 C1284 0.950 . S
C1289 C1287 1.390 . S
C1289 C1290 1.387 . S
C1289 H1292 0.950 . S
C1290 C1289 1.387 . S
C1290 C1293 1.387 1_554 S
H1291 C1287 0.950 . S
H1292 C1289 0.950 . S
C1293 C1284 1.390 . S
C1293 H1286 0.950 . S
C1293 C1290 1.387 1_556 S
C1294 C1295 1.387 . S
C1294 H1298 0.950 . S
C1294 C1303 1.390 . S
C1295 C1294 1.387 . S
C1295 C1297 1.387 1_556 S
H1296 C1303 0.950 . S
C1297 C1295 1.387 1_554 S
C1297 C1299 1.390 . S
C1297 H1301 0.950 . S
H1298 C1294 0.950 . S
C1299 C1297 1.390 . S
C1299 C1300 1.387 . S
C1299 H1302 0.950 . S
C1300 C1299 1.387 . S
C1300 C1303 1.387 1_554 S
H1301 C1297 0.950 . S
H1302 C1299 0.950 . S
C1303 C1294 1.390 . S
C1303 H1296 0.950 . S
C1303 C1300 1.387 1_556 S
C1304 C1305 1.387 . S
C1304 H1308 0.950 . S
C1304 C1313 1.397 . S
C1305 C1304 1.387 . S
C1305 C1307 1.387 . S
H1306 C1313 0.946 1_554 S
C1307 C1305 1.387 . S
C1307 C1309 1.390 . S
C1307 H1311 0.950 . S
H1308 C1304 0.950 . S
C1309 C1307 1.390 . S
C1309 C1310 1.387 1_556 S
C1309 H1312 0.950 1_556 S
C1310 C1309 1.387 1_554 S
C1310 C1313 1.384 1_554 S
H1311 C1307 0.950 . S
H1312 C1309 0.950 1_554 S
C1313 C1304 1.397 . S
C1313 H1306 0.946 1_556 S
C1313 C1310 1.384 1_556 S
C1314 C1315 1.387 . S
C1314 H1318 0.950 . S
C1314 C1323 1.390 . S
C1315 C1314 1.387 . S
C1315 C1317 1.387 . S
H1316 C1323 0.950 . S
C1317 C1315 1.387 . S
C1317 C1319 1.390 . S
C1317 H1321 0.950 . S
H1318 C1314 0.950 . S
C1319 C1317 1.390 . S
C1319 C1320 1.387 . S
C1319 H1322 0.950 . S
C1320 C1319 1.387 . S
C1320 C1323 1.387 . S
H1321 C1317 0.950 . S
H1322 C1319 0.950 . S
C1323 C1314 1.390 . S
C1323 H1316 0.950 . S
C1323 C1320 1.387 . S
C1324 C1325 1.387 . S
C1324 H1328 0.950 . S
C1324 C1333 1.390 . S
C1325 C1324 1.387 . S
C1325 C1327 1.387 . S
H1326 C1333 0.950 . S
C1327 C1325 1.387 . S
C1327 C1329 1.390 . S
C1327 H1331 0.950 . S
H1328 C1324 0.950 . S
C1329 C1327 1.390 . S
C1329 C1330 1.387 . S
C1329 H1332 0.950 . S
C1330 C1329 1.387 . S
C1330 C1333 1.387 . S
H1331 C1327 0.950 . S
H1332 C1329 0.950 . S
C1333 C1324 1.390 . S
C1333 H1326 0.950 . S
C1333 C1330 1.387 . S
C1334 C1335 1.387 . S
C1334 H1338 0.950 . S
C1334 C1343 1.390 . S
C1335 C1334 1.387 . S
C1335 C1337 1.387 . S
H1336 C1343 0.950 . S
C1337 C1335 1.387 . S
C1337 C1339 1.390 . S
C1337 H1341 0.950 . S
H1338 C1334 0.950 . S
C1339 C1337 1.390 . S
C1339 C1340 1.387 . S
C1339 H1342 0.950 . S
C1340 C1339 1.387 . S
C1340 C1343 1.387 . S
H1341 C1337 0.950 . S
H1342 C1339 0.950 . S
C1343 C1334 1.390 . S
C1343 H1336 0.950 . S
C1343 C1340 1.387 . S
C1344 C1345 1.387 . S
C1344 H1348 0.950 . S
C1344 C1353 1.390 . S
C1345 C1344 1.387 . S
C1345 C1347 1.387 . S
H1346 C1353 0.950 . S
C1347 C1345 1.387 . S
C1347 C1349 1.390 . S
C1347 H1351 0.950 . S
H1348 C1344 0.950 . S
C1349 C1347 1.390 . S
C1349 C1350 1.387 . S
C1349 H1352 0.950 . S
C1350 C1349 1.387 . S
C1350 C1353 1.387 . S
H1351 C1347 0.950 . S
H1352 C1349 0.950 . S
C1353 C1344 1.390 . S
C1353 H1346 0.950 . S
C1353 C1350 1.387 . S
C1354 C1355 1.387 . S
C1354 H1358 0.950 . S
C1354 C1363 1.390 . S
C1355 C1354 1.387 . S
C1355 C1357 1.387 . S
H1356 C1363 0.950 . S
C1357 C1355 1.387 . S
C1357 C1359 1.390 . S
C1357 H1361 0.950 . S
H1358 C1354 0.950 . S
C1359 C1357 1.390 . S
C1359 C1360 1.387 . S
C1359 H1362 0.950 . S
C1360 C1359 1.387 . S
C1360 C1363 1.387 . S
H1361 C1357 0.950 . S
H1362 C1359 0.950 . S
C1363 C1354 1.390 . S
C1363 H1356 0.950 . S
C1363 C1360 1.387 . S
C1364 C1365 1.387 . S
C1364 H1368 0.950 . S
C1364 C1373 1.390 . S
C1365 C1364 1.387 . S
C1365 C1367 1.387 . S
H1366 C1373 0.950 . S
C1367 C1365 1.387 . S
C1367 C1369 1.390 . S
C1367 H1371 0.950 . S
H1368 C1364 0.950 . S
C1369 C1367 1.390 . S
C1369 C1370 1.387 . S
C1369 H1372 0.950 . S
C1370 C1369 1.387 . S
C1370 C1373 1.387 . S
H1371 C1367 0.950 . S
H1372 C1369 0.950 . S
C1373 C1364 1.390 . S
C1373 H1366 0.950 . S
C1373 C1370 1.387 . S
C1374 C1375 1.387 . S
C1374 H1378 0.950 . S
C1374 C1383 1.390 . S
C1375 C1374 1.387 . S
C1375 C1377 1.387 . S
H1376 C1383 0.950 . S
C1377 C1375 1.387 . S
C1377 C1379 1.390 . S
C1377 H1381 0.950 . S
H1378 C1374 0.950 . S
C1379 C1377 1.390 . S
C1379 C1380 1.387 . S
C1379 H1382 0.950 . S
C1380 C1379 1.387 . S
C1380 C1383 1.387 . S
H1381 C1377 0.950 . S
H1382 C1379 0.950 . S
C1383 C1374 1.390 . S
C1383 H1376 0.950 . S
C1383 C1380 1.387 . S
C1384 C1385 1.387 . S
C1384 H1388 0.950 . S
C1384 C1393 1.390 . S
C1385 C1384 1.387 . S
C1385 C1387 1.387 . S
H1386 C1393 0.950 . S
C1387 C1385 1.387 . S
C1387 C1389 1.390 . S
C1387 H1391 0.950 . S
H1388 C1384 0.950 . S
C1389 C1387 1.390 . S
C1389 C1390 1.387 . S
C1389 H1392 0.950 . S
C1390 C1389 1.387 . S
C1390 C1393 1.387 . S
H1391 C1387 0.950 . S
H1392 C1389 0.950 . S
C1393 C1384 1.390 . S
C1393 H1386 0.950 . S
C1393 C1390 1.387 . S
C1394 C1395 1.387 . S
C1394 H1398 0.950 . S
C1394 C1403 1.390 . S
C1395 C1394 1.387 . S
C1395 C1397 1.387 . S
H1396 C1403 0.950 . S
C1397 C1395 1.387 . S
C1397 C1399 1.390 . S
C1397 H1401 0.950 . S
H1398 C1394 0.950 . S
C1399 C1397 1.390 . S
C1399 C1400 1.387 . S
C1399 H1402 0.950 . S
C1400 C1399 1.387 . S
C1400 C1403 1.387 . S
H1401 C1397 0.950 . S
H1402 C1399 0.950 . S
C1403 C1394 1.390 . S
C1403 H1396 0.950 . S
C1403 C1400 1.387 . S
C1404 C1405 1.387 . S
C1404 H1408 0.950 . S
C1404 C1413 1.390 . S
C1405 C1404 1.387 . S
C1405 C1407 1.387 . S
H1406 C1413 0.950 . S
C1407 C1405 1.387 . S
C1407 C1409 1.390 . S
C1407 H1411 0.950 . S
H1408 C1404 0.950 . S
C1409 C1407 1.390 . S
C1409 C1410 1.387 . S
C1409 H1412 0.950 . S
C1410 C1409 1.387 . S
C1410 C1413 1.387 . S
H1411 C1407 0.950 . S
H1412 C1409 0.950 . S
C1413 C1404 1.390 . S
C1413 H1406 0.950 . S
C1413 C1410 1.387 . S
C1414 C1415 1.387 . S
C1414 H1418 0.950 . S
C1414 C1423 1.390 . S
C1415 C1414 1.387 . S
C1415 C1417 1.387 . S
H1416 C1423 0.950 . S
C1417 C1415 1.387 . S
C1417 C1419 1.390 . S
C1417 H1421 0.950 . S
H1418 C1414 0.950 . S
C1419 C1417 1.390 . S
C1419 C1420 1.387 . S
C1419 H1422 0.950 . S
C1420 C1419 1.387 . S
C1420 C1423 1.387 . S
H1421 C1417 0.950 . S
H1422 C1419 0.950 . S
C1423 C1414 1.390 . S
C1423 H1416 0.950 . S
C1423 C1420 1.387 . S
C1424 C1425 1.387 . S
C1424 H1428 0.950 . S
C1424 C1433 1.390 . S
C1425 C1424 1.387 . S
C1425 C1427 1.387 . S
H1426 C1433 0.950 . S
C1427 C1425 1.387 . S
C1427 C1429 1.390 . S
C1427 H1431 0.950 . S
H1428 C1424 0.950 . S
C1429 C1427 1.390 . S
C1429 C1430 1.387 . S
C1429 H1432 0.950 . S
C1430 C1429 1.387 . S
C1430 C1433 1.387 . S
H1431 C1427 0.950 . S
H1432 C1429 0.950 . S
C1433 C1424 1.390 . S
C1433 H1426 0.950 . S
C1433 C1430 1.387 . S
C1434 C1435 1.387 . S
C1434 H1438 0.950 . S
C1434 C1443 1.390 . S
C1435 C1434 1.387 . S
C1435 C1437 1.387 . S
H1436 C1443 0.950 . S
C1437 C1435 1.387 . S
C1437 C1439 1.390 . S
C1437 H1441 0.950 . S
H1438 C1434 0.950 . S
C1439 C1437 1.390 . S
C1439 C1440 1.387 . S
C1439 H1442 0.950 . S
C1440 C1439 1.387 . S
C1440 C1443 1.387 . S
H1441 C1437 0.950 . S
H1442 C1439 0.950 . S
C1443 C1434 1.390 . S
C1443 H1436 0.950 . S
C1443 C1440 1.387 . S
C1444 C1445 1.387 . S
C1444 H1448 0.950 . S
C1444 C1453 1.390 . S
C1445 C1444 1.387 . S
C1445 C1447 1.387 . S
H1446 C1453 0.950 . S
C1447 C1445 1.387 . S
C1447 C1449 1.390 . S
C1447 H1451 0.950 . S
H1448 C1444 0.950 . S
C1449 C1447 1.390 . S
C1449 C1450 1.387 . S
C1449 H1452 0.950 . S
C1450 C1449 1.387 . S
C1450 C1453 1.387 . S
H1451 C1447 0.950 . S
H1452 C1449 0.950 . S
C1453 C1444 1.390 . S
C1453 H1446 0.950 . S
C1453 C1450 1.387 . S
C1454 C1455 1.387 . S
C1454 H1458 0.950 . S
C1454 C1463 1.390 . S
C1455 C1454 1.387 . S
C1455 C1457 1.387 . S
H1456 C1463 0.950 . S
C1457 C1455 1.387 . S
C1457 C1459 1.390 . S
C1457 H1461 0.950 . S
H1458 C1454 0.950 . S
C1459 C1457 1.390 . S
C1459 C1460 1.387 . S
C1459 H1462 0.950 . S
C1460 C1459 1.387 . S
C1460 C1463 1.387 . S
H1461 C1457 0.950 . S
H1462 C1459 0.950 . S
C1463 C1454 1.390 . S
C1463 H1456 0.950 . S
C1463 C1460 1.387 . S
C1464 C1465 1.387 . S
C1464 H1468 0.950 . S
C1464 C1473 1.390 . S
C1465 C1464 1.387 . S
C1465 C1467 1.387 . S
H1466 C1473 0.950 . S
C1467 C1465 1.387 . S
C1467 C1469 1.390 . S
C1467 H1471 0.950 . S
H1468 C1464 0.950 . S
C1469 C1467 1.390 . S
C1469 C1470 1.387 . S
C1469 H1472 0.950 . S
C1470 C1469 1.387 . S
C1470 C1473 1.387 . S
H1471 C1467 0.950 . S
H1472 C1469 0.950 . S
C1473 C1464 1.390 . S
C1473 H1466 0.950 . S
C1473 C1470 1.387 . S
C1474 C1475 1.387 . S
C1474 H1478 0.950 . S
C1474 C1483 1.390 . S
C1475 C1474 1.387 . S
C1475 C1477 1.387 . S
H1476 C1483 0.950 . S
C1477 C1475 1.387 . S
C1477 C1479 1.390 . S
C1477 H1481 0.950 . S
H1478 C1474 0.950 . S
C1479 C1477 1.390 . S
C1479 C1480 1.387 . S
C1479 H1482 0.950 . S
C1480 C1479 1.387 . S
C1480 C1483 1.387 . S
H1481 C1477 0.950 . S
H1482 C1479 0.950 . S
C1483 C1474 1.390 . S
C1483 H1476 0.950 . S
C1483 C1480 1.387 . S
C1484 C1485 1.387 . S
C1484 H1488 0.950 . S
C1484 C1493 1.390 . S
C1485 C1484 1.387 . S
C1485 C1487 1.387 . S
H1486 C1493 0.950 . S
C1487 C1485 1.387 . S
C1487 C1489 1.390 . S
C1487 H1491 0.950 . S
H1488 C1484 0.950 . S
C1489 C1487 1.390 . S
C1489 C1490 1.387 . S
C1489 H1492 0.950 . S
C1490 C1489 1.387 . S
C1490 C1493 1.387 . S
H1491 C1487 0.950 . S
H1492 C1489 0.950 . S
C1493 C1484 1.390 . S
C1493 H1486 0.950 . S
C1493 C1490 1.387 . S
C1494 C1495 1.387 . S
C1494 H1498 0.950 . S
C1494 C1503 1.390 . S
C1495 C1494 1.387 . S
C1495 C1497 1.387 . S
H1496 C1503 0.950 . S
C1497 C1495 1.387 . S
C1497 C1499 1.390 . S
C1497 H1501 0.950 . S
H1498 C1494 0.950 . S
C1499 C1497 1.390 . S
C1499 C1500 1.387 . S
C1499 H1502 0.950 . S
C1500 C1499 1.387 . S
C1500 C1503 1.387 . S
H1501 C1497 0.950 . S
H1502 C1499 0.950 . S
C1503 C1494 1.390 . S
C1503 H1496 0.950 . S
C1503 C1500 1.387 . S
C1504 C1505 1.387 . S
C1504 H1508 0.950 . S
C1504 C1513 1.390 . S
C1505 C1504 1.387 . S
C1505 C1507 1.387 . S
H1506 C1513 0.950 . S
C1507 C1505 1.387 . S
C1507 C1509 1.390 . S
C1507 H1511 0.950 . S
H1508 C1504 0.950 . S
C1509 C1507 1.390 . S
C1509 C1510 1.387 . S
C1509 H1512 0.950 . S
C1510 C1509 1.387 . S
C1510 C1513 1.387 . S
H1511 C1507 0.950 . S
H1512 C1509 0.950 . S
C1513 C1504 1.390 . S
C1513 H1506 0.950 . S
C1513 C1510 1.387 . S
C1514 C1515 1.387 . S
C1514 H1518 0.950 . S
C1514 C1523 1.390 . S
C1515 C1514 1.387 . S
C1515 C1517 1.387 . S
H1516 C1523 0.950 . S
C1517 C1515 1.387 . S
C1517 C1519 1.390 . S
C1517 H1521 0.950 . S
H1518 C1514 0.950 . S
C1519 C1517 1.390 . S
C1519 C1520 1.387 . S
C1519 H1522 0.950 . S
C1520 C1519 1.387 . S
C1520 C1523 1.387 . S
H1521 C1517 0.950 . S
H1522 C1519 0.950 . S
C1523 C1514 1.390 . S
C1523 H1516 0.950 . S
C1523 C1520 1.387 . S
C1524 C1525 1.387 . S
C1524 H1528 0.950 . S
C1524 C1533 1.390 . S
C1525 C1524 1.387 . S
C1525 C1527 1.387 . S
H1526 C1533 0.950 . S
C1527 C1525 1.387 . S
C1527 C1529 1.390 . S
C1527 H1531 0.950 . S
H1528 C1524 0.950 . S
C1529 C1527 1.390 . S
C1529 C1530 1.387 . S
C1529 H1532 0.950 . S
C1530 C1529 1.387 . S
C1530 C1533 1.387 . S
H1531 C1527 0.950 . S
H1532 C1529 0.950 . S
C1533 C1524 1.390 . S
C1533 H1526 0.950 . S
C1533 C1530 1.387 . S
C1534 C1535 1.387 . S
C1534 H1538 0.950 . S
C1534 C1543 1.390 . S
C1535 C1534 1.387 . S
C1535 C1537 1.387 . S
H1536 C1543 0.950 . S
C1537 C1535 1.387 . S
C1537 C1539 1.390 . S
C1537 H1541 0.950 . S
H1538 C1534 0.950 . S
C1539 C1537 1.390 . S
C1539 C1540 1.387 . S
C1539 H1542 0.950 . S
C1540 C1539 1.387 . S
C1540 C1543 1.387 . S
H1541 C1537 0.950 . S
H1542 C1539 0.950 . S
C1543 C1534 1.390 . S
C1543 H1536 0.950 . S
C1543 C1540 1.387 . S
C1544 C1545 1.387 . S
C1544 H1548 0.950 . S
C1544 C1553 1.390 . S
C1545 C1544 1.387 . S
C1545 C1547 1.387 . S
H1546 C1553 0.950 . S
C1547 C1545 1.387 . S
C1547 C1549 1.390 . S
C1547 H1551 0.950 . S
H1548 C1544 0.950 . S
C1549 C1547 1.390 . S
C1549 C1550 1.387 . S
C1549 H1552 0.950 . S
C1550 C1549 1.387 . S
C1550 C1553 1.387 . S
H1551 C1547 0.950 . S
H1552 C1549 0.950 . S
C1553 C1544 1.390 . S
C1553 H1546 0.950 . S
C1553 C1550 1.387 . S
C1554 C1555 1.387 . S
C1554 H1558 0.950 . S
C1554 C1563 1.390 . S
C1555 C1554 1.387 . S
C1555 C1557 1.387 . S
H1556 C1563 0.950 . S
C1557 C1555 1.387 . S
C1557 C1559 1.390 . S
C1557 H1561 0.950 . S
H1558 C1554 0.950 . S
C1559 C1557 1.390 . S
C1559 C1560 1.387 . S
C1559 H1562 0.950 . S
C1560 C1559 1.387 . S
C1560 C1563 1.387 . S
H1561 C1557 0.950 . S
H1562 C1559 0.950 . S
C1563 C1554 1.390 . S
C1563 H1556 0.950 . S
C1563 C1560 1.387 . S
C1564 C1565 1.387 . S
C1564 H1568 0.950 . S
C1564 C1573 1.390 . S
C1565 C1564 1.387 . S
C1565 C1567 1.387 . S
H1566 C1573 0.950 . S
C1567 C1565 1.387 . S
C1567 C1569 1.390 . S
C1567 H1571 0.950 . S
H1568 C1564 0.950 . S
C1569 C1567 1.390 . S
C1569 C1570 1.387 . S
C1569 H1572 0.950 . S
C1570 C1569 1.387 . S
C1570 C1573 1.387 . S
H1571 C1567 0.950 . S
H1572 C1569 0.950 . S
C1573 C1564 1.390 . S
C1573 H1566 0.950 . S
C1573 C1570 1.387 . S
C1574 C1575 1.387 . S
C1574 H1578 0.950 . S
C1574 C1583 1.390 . S
C1575 C1574 1.387 . S
C1575 C1577 1.387 . S
H1576 C1583 0.950 . S
C1577 C1575 1.387 . S
C1577 C1579 1.390 . S
C1577 H1581 0.950 . S
H1578 C1574 0.950 . S
C1579 C1577 1.390 . S
C1579 C1580 1.387 . S
C1579 H1582 0.950 . S
C1580 C1579 1.387 . S
C1580 C1583 1.387 . S
H1581 C1577 0.950 . S
H1582 C1579 0.950 . S
C1583 C1574 1.390 . S
C1583 H1576 0.950 . S
C1583 C1580 1.387 . S
C1584 C1585 1.387 . S
C1584 H1588 0.950 . S
C1584 C1593 1.390 . S
C1585 C1584 1.387 . S
C1585 C1587 1.387 . S
H1586 C1593 0.950 . S
C1587 C1585 1.387 . S
C1587 C1589 1.390 . S
C1587 H1591 0.950 . S
H1588 C1584 0.950 . S
C1589 C1587 1.390 . S
C1589 C1590 1.387 . S
C1589 H1592 0.950 . S
C1590 C1589 1.387 . S
C1590 C1593 1.387 . S
H1591 C1587 0.950 . S
H1592 C1589 0.950 . S
C1593 C1584 1.390 . S
C1593 H1586 0.950 . S
C1593 C1590 1.387 . S
C1594 C1595 1.387 . S
C1594 H1598 0.950 . S
C1594 C1603 1.390 1_545 S
C1595 C1594 1.387 . S
C1595 C1597 1.387 . S
H1596 C1603 0.950 . S
C1597 C1595 1.387 . S
C1597 C1599 1.390 1_545 S
C1597 H1601 0.950 . S
H1598 C1594 0.950 . S
C1599 C1597 1.390 1_565 S
C1599 C1600 1.387 . S
C1599 H1602 0.950 . S
C1600 C1599 1.387 . S
C1600 C1603 1.387 . S
H1601 C1597 0.950 . S
H1602 C1599 0.950 . S
C1603 C1594 1.390 1_565 S
C1603 H1596 0.950 . S
C1603 C1600 1.387 . S
C1604 C1605 1.387 1_455 S
C1604 H1608 0.950 . S
C1604 C1613 1.390 . S
C1605 C1604 1.387 1_655 S
C1605 C1607 1.387 . S
H1606 C1613 0.950 . S
C1607 C1605 1.387 . S
C1607 C1609 1.390 . S
C1607 H1611 0.950 . S
H1608 C1604 0.950 . S
C1609 C1607 1.390 . S
C1609 C1610 1.387 1_655 S
C1609 H1612 0.950 . S
C1610 C1609 1.387 1_455 S
C1610 C1613 1.387 . S
H1611 C1607 0.950 . S
H1612 C1609 0.950 . S
C1613 C1604 1.390 . S
C1613 H1606 0.950 . S
C1613 C1610 1.387 . S
C1614 C1615 1.387 . S
C1614 H1618 0.950 . S
C1614 C1623 1.390 . S
C1615 C1614 1.387 . S
C1615 C1617 1.387 . S
H1616 C1623 0.950 . S
C1617 C1615 1.387 . S
C1617 C1619 1.390 . S
C1617 H1621 0.950 . S
H1618 C1614 0.950 . S
C1619 C1617 1.390 . S
C1619 C1620 1.387 . S
C1619 H1622 0.950 . S
C1620 C1619 1.387 . S
C1620 C1623 1.387 . S
H1621 C1617 0.950 . S
H1622 C1619 0.950 . S
C1623 C1614 1.390 . S
C1623 H1616 0.950 . S
C1623 C1620 1.387 . S
C1624 C1625 1.387 . S
C1624 H1628 0.950 . S
C1624 C1633 1.390 1_545 S
C1625 C1624 1.387 . S
C1625 C1627 1.387 . S
H1626 C1633 0.950 . S
C1627 C1625 1.387 . S
C1627 C1629 1.390 1_545 S
C1627 H1631 0.950 . S
H1628 C1624 0.950 . S
C1629 C1627 1.390 1_565 S
C1629 C1630 1.387 . S
C1629 H1632 0.950 . S
C1630 C1629 1.387 . S
C1630 C1633 1.387 . S
H1631 C1627 0.950 . S
H1632 C1629 0.950 . S
C1633 C1624 1.390 1_565 S
C1633 H1626 0.950 . S
C1633 C1630 1.387 . S
C1634 C1635 1.387 . S
C1634 H1638 0.950 . S
C1634 C1643 1.379 1_655 S
C1635 C1634 1.387 . S
C1635 C1637 1.384 . S
H1636 C1643 0.965 . S
C1637 C1635 1.384 . S
C1637 C1639 1.379 1_655 S
C1637 H1641 0.965 . S
H1638 C1634 0.950 . S
C1639 C1637 1.379 1_455 S
C1639 C1640 1.387 . S
C1639 H1642 0.950 . S
C1640 C1639 1.387 . S
C1640 C1643 1.384 . S
H1641 C1637 0.965 . S
H1642 C1639 0.950 . S
C1643 C1634 1.379 1_455 S
C1643 H1636 0.965 . S
C1643 C1640 1.384 . S
C1644 C1645 1.387 . S
C1644 H1648 0.950 . S
C1644 C1653 1.390 . S
C1645 C1644 1.387 . S
C1645 C1647 1.387 . S
H1646 C1653 0.950 . S
C1647 C1645 1.387 . S
C1647 C1649 1.390 . S
C1647 H1651 0.950 . S
H1648 C1644 0.950 . S
C1649 C1647 1.390 . S
C1649 C1650 1.387 . S
C1649 H1652 0.950 . S
C1650 C1649 1.387 . S
C1650 C1653 1.387 . S
H1651 C1647 0.950 . S
H1652 C1649 0.950 . S
C1653 C1644 1.390 . S
C1653 H1646 0.950 . S
C1653 C1650 1.387 . S
C1654 C1655 1.387 . S
C1654 H1658 0.950 . S
C1654 C1663 1.390 . S
C1655 C1654 1.387 . S
C1655 C1657 1.387 . S
H1656 C1663 0.950 . S
C1657 C1655 1.387 . S
C1657 C1659 1.390 . S
C1657 H1661 0.950 . S
H1658 C1654 0.950 . S
C1659 C1657 1.390 . S
C1659 C1660 1.387 . S
C1659 H1662 0.950 . S
C1660 C1659 1.387 . S
C1660 C1663 1.387 . S
H1661 C1657 0.950 . S
H1662 C1659 0.950 . S
C1663 C1654 1.390 . S
C1663 H1656 0.950 . S
C1663 C1660 1.387 . S
C1664 C1665 1.387 . S
C1664 H1668 0.950 . S
C1664 C1673 1.390 . S
C1665 C1664 1.387 . S
C1665 C1667 1.387 . S
H1666 C1673 0.950 . S
C1667 C1665 1.387 . S
C1667 C1669 1.390 . S
C1667 H1671 0.950 . S
H1668 C1664 0.950 . S
C1669 C1667 1.390 . S
C1669 C1670 1.387 . S
C1669 H1672 0.950 . S
C1670 C1669 1.387 . S
C1670 C1673 1.387 . S
H1671 C1667 0.950 . S
H1672 C1669 0.950 . S
C1673 C1664 1.390 . S
C1673 H1666 0.950 . S
C1673 C1670 1.387 . S
C1674 C1675 1.387 . S
C1674 H1678 0.950 . S
C1674 C1683 1.390 . S
C1675 C1674 1.387 . S
C1675 C1677 1.387 . S
H1676 C1683 0.950 . S
C1677 C1675 1.387 . S
C1677 C1679 1.390 . S
C1677 H1681 0.950 . S
H1678 C1674 0.950 . S
C1679 C1677 1.390 . S
C1679 C1680 1.387 . S
C1679 H1682 0.950 . S
C1680 C1679 1.387 . S
C1680 C1683 1.387 . S
H1681 C1677 0.950 . S
H1682 C1679 0.950 . S
C1683 C1674 1.390 . S
C1683 H1676 0.950 . S
C1683 C1680 1.387 . S
C1684 C1685 1.387 . S
C1684 H1688 0.950 . S
C1684 C1693 1.390 . S
C1685 C1684 1.387 . S
C1685 C1687 1.387 . S
H1686 C1693 0.950 . S
C1687 C1685 1.387 . S
C1687 C1689 1.390 . S
C1687 H1691 0.950 . S
H1688 C1684 0.950 . S
C1689 C1687 1.390 . S
C1689 C1690 1.387 . S
C1689 H1692 0.950 . S
C1690 C1689 1.387 . S
C1690 C1693 1.387 . S
H1691 C1687 0.950 . S
H1692 C1689 0.950 . S
C1693 C1684 1.390 . S
C1693 H1686 0.950 . S
C1693 C1690 1.387 . S
C1694 C1695 1.387 . S
C1694 H1698 0.950 . S
C1694 C1703 1.390 . S
C1695 C1694 1.387 . S
C1695 C1697 1.387 . S
H1696 C1703 0.950 . S
C1697 C1695 1.387 . S
C1697 C1699 1.390 . S
C1697 H1701 0.950 . S
H1698 C1694 0.950 . S
C1699 C1697 1.390 . S
C1699 C1700 1.387 . S
C1699 H1702 0.950 . S
C1700 C1699 1.387 . S
C1700 C1703 1.387 . S
H1701 C1697 0.950 . S
H1702 C1699 0.950 . S
C1703 C1694 1.390 . S
C1703 H1696 0.950 . S
C1703 C1700 1.387 . S
C1704 C1705 1.387 . S
C1704 H1708 0.950 . S
C1704 C1713 1.390 . S
C1705 C1704 1.387 . S
C1705 C1707 1.387 . S
H1706 C1713 0.950 . S
C1707 C1705 1.387 . S
C1707 C1709 1.390 . S
C1707 H1711 0.950 . S
H1708 C1704 0.950 . S
C1709 C1707 1.390 . S
C1709 C1710 1.387 . S
C1709 H1712 0.950 . S
C1710 C1709 1.387 . S
C1710 C1713 1.387 . S
H1711 C1707 0.950 . S
H1712 C1709 0.950 . S
C1713 C1704 1.390 . S
C1713 H1706 0.950 . S
C1713 C1710 1.387 . S
C1714 C1715 1.387 . S
C1714 H1718 0.950 . S
C1714 C1723 1.390 . S
C1715 C1714 1.387 . S
C1715 C1717 1.387 . S
H1716 C1723 0.950 . S
C1717 C1715 1.387 . S
C1717 C1719 1.390 . S
C1717 H1721 0.950 . S
H1718 C1714 0.950 . S
C1719 C1717 1.390 . S
C1719 C1720 1.387 . S
C1719 H1722 0.950 . S
C1720 C1719 1.387 . S
C1720 C1723 1.387 . S
H1721 C1717 0.950 . S
H1722 C1719 0.950 . S
C1723 C1714 1.390 . S
C1723 H1716 0.950 . S
C1723 C1720 1.387 . S
C1724 C1725 1.387 . S
C1724 H1728 0.950 . S
C1724 C1733 1.390 . S
C1725 C1724 1.387 . S
C1725 C1727 1.387 . S
H1726 C1733 0.950 . S
C1727 C1725 1.387 . S
C1727 C1729 1.390 . S
C1727 H1731 0.950 . S
H1728 C1724 0.950 . S
C1729 C1727 1.390 . S
C1729 C1730 1.387 . S
C1729 H1732 0.950 . S
C1730 C1729 1.387 . S
C1730 C1733 1.387 . S
H1731 C1727 0.950 . S
H1732 C1729 0.950 . S
C1733 C1724 1.390 . S
C1733 H1726 0.950 . S
C1733 C1730 1.387 . S
C1734 C1735 1.387 . S
C1734 H1738 0.950 . S
C1734 C1743 1.390 . S
C1735 C1734 1.387 . S
C1735 C1737 1.387 . S
H1736 C1743 0.950 . S
C1737 C1735 1.387 . S
C1737 C1739 1.390 . S
C1737 H1741 0.950 . S
H1738 C1734 0.950 . S
C1739 C1737 1.390 . S
C1739 C1740 1.387 . S
C1739 H1742 0.950 . S
C1740 C1739 1.387 . S
C1740 C1743 1.387 . S
H1741 C1737 0.950 . S
H1742 C1739 0.950 . S
C1743 C1734 1.390 . S
C1743 H1736 0.950 . S
C1743 C1740 1.387 . S
C1744 C1745 1.387 . S
C1744 H1748 0.950 . S
C1744 C1753 1.390 . S
C1745 C1744 1.387 . S
C1745 C1747 1.387 . S
H1746 C1753 0.950 . S
C1747 C1745 1.387 . S
C1747 C1749 1.390 . S
C1747 H1751 0.950 . S
H1748 C1744 0.950 . S
C1749 C1747 1.390 . S
C1749 C1750 1.387 . S
C1749 H1752 0.950 . S
C1750 C1749 1.387 . S
C1750 C1753 1.387 . S
H1751 C1747 0.950 . S
H1752 C1749 0.950 . S
C1753 C1744 1.390 . S
C1753 H1746 0.950 . S
C1753 C1750 1.387 . S
C1754 C1755 1.387 . S
C1754 H1758 0.950 . S
C1754 C1763 1.390 . S
C1755 C1754 1.387 . S
C1755 C1757 1.387 . S
H1756 C1763 0.950 . S
C1757 C1755 1.387 . S
C1757 C1759 1.390 . S
C1757 H1761 0.950 . S
H1758 C1754 0.950 . S
C1759 C1757 1.390 . S
C1759 C1760 1.387 . S
C1759 H1762 0.950 . S
C1760 C1759 1.387 . S
C1760 C1763 1.387 . S
H1761 C1757 0.950 . S
H1762 C1759 0.950 . S
C1763 C1754 1.390 . S
C1763 H1756 0.950 . S
C1763 C1760 1.387 . S
C1764 C1765 1.387 . S
C1764 H1768 0.950 . S
C1764 C1773 1.390 . S
C1765 C1764 1.387 . S
C1765 C1767 1.387 . S
H1766 C1773 0.950 . S
C1767 C1765 1.387 . S
C1767 C1769 1.390 . S
C1767 H1771 0.950 . S
H1768 C1764 0.950 . S
C1769 C1767 1.390 . S
C1769 C1770 1.387 . S
C1769 H1772 0.950 . S
C1770 C1769 1.387 . S
C1770 C1773 1.387 . S
H1771 C1767 0.950 . S
H1772 C1769 0.950 . S
C1773 C1764 1.390 . S
C1773 H1766 0.950 . S
C1773 C1770 1.387 . S
C1774 C1775 1.387 . S
C1774 H1778 0.950 . S
C1774 C1783 1.390 . S
C1775 C1774 1.387 . S
C1775 C1777 1.387 . S
H1776 C1783 0.950 . S
C1777 C1775 1.387 . S
C1777 C1779 1.390 . S
C1777 H1781 0.950 . S
H1778 C1774 0.950 . S
C1779 C1777 1.390 . S
C1779 C1780 1.387 . S
C1779 H1782 0.950 . S
C1780 C1779 1.387 . S
C1780 C1783 1.387 . S
H1781 C1777 0.950 . S
H1782 C1779 0.950 . S
C1783 C1774 1.390 . S
C1783 H1776 0.950 . S
C1783 C1780 1.387 . S
C1784 C1785 1.387 . S
C1784 H1788 0.950 . S
C1784 C1793 1.390 . S
C1785 C1784 1.387 . S
C1785 C1787 1.387 . S
H1786 C1793 0.950 . S
C1787 C1785 1.387 . S
C1787 C1789 1.390 . S
C1787 H1791 0.950 . S
H1788 C1784 0.950 . S
C1789 C1787 1.390 . S
C1789 C1790 1.387 . S
C1789 H1792 0.950 . S
C1790 C1789 1.387 . S
C1790 C1793 1.387 . S
H1791 C1787 0.950 . S
H1792 C1789 0.950 . S
C1793 C1784 1.390 . S
C1793 H1786 0.950 . S
C1793 C1790 1.387 . S
C1794 C1795 1.387 . S
C1794 H1798 0.950 . S
C1794 C1803 1.390 . S
C1795 C1794 1.387 . S
C1795 C1797 1.387 . S
H1796 C1803 0.950 . S
C1797 C1795 1.387 . S
C1797 C1799 1.390 . S
C1797 H1801 0.950 . S
H1798 C1794 0.950 . S
C1799 C1797 1.390 . S
C1799 C1800 1.387 . S
C1799 H1802 0.950 . S
C1800 C1799 1.387 . S
C1800 C1803 1.387 . S
H1801 C1797 0.950 . S
H1802 C1799 0.950 . S
C1803 C1794 1.390 . S
C1803 H1796 0.950 . S
C1803 C1800 1.387 . S
C1804 C1805 1.387 . S
C1804 H1808 0.950 . S
C1804 C1813 1.390 . S
C1805 C1804 1.387 . S
C1805 C1807 1.387 . S
H1806 C1813 0.950 . S
C1807 C1805 1.387 . S
C1807 C1809 1.390 . S
C1807 H1811 0.950 . S
H1808 C1804 0.950 . S
C1809 C1807 1.390 . S
C1809 C1810 1.387 . S
C1809 H1812 0.950 . S
C1810 C1809 1.387 . S
C1810 C1813 1.387 . S
H1811 C1807 0.950 . S
H1812 C1809 0.950 . S
C1813 C1804 1.390 . S
C1813 H1806 0.950 . S
C1813 C1810 1.387 . S
C1814 C1815 1.387 . S
C1814 H1818 0.950 . S
C1814 C1823 1.390 . S
C1815 C1814 1.387 . S
C1815 C1817 1.387 . S
H1816 C1823 0.950 . S
C1817 C1815 1.387 . S
C1817 C1819 1.390 . S
C1817 H1821 0.950 . S
H1818 C1814 0.950 . S
C1819 C1817 1.390 . S
C1819 C1820 1.387 . S
C1819 H1822 0.950 . S
C1820 C1819 1.387 . S
C1820 C1823 1.387 . S
H1821 C1817 0.950 . S
H1822 C1819 0.950 . S
C1823 C1814 1.390 . S
C1823 H1816 0.950 . S
C1823 C1820 1.387 . S
C1824 C1825 1.387 . S
C1824 H1828 0.950 . S
C1824 C1833 1.390 . S
C1825 C1824 1.387 . S
C1825 C1827 1.387 . S
H1826 C1833 0.950 . S
C1827 C1825 1.387 . S
C1827 C1829 1.390 . S
C1827 H1831 0.950 . S
H1828 C1824 0.950 . S
C1829 C1827 1.390 . S
C1829 C1830 1.387 . S
C1829 H1832 0.950 . S
C1830 C1829 1.387 . S
C1830 C1833 1.387 . S
H1831 C1827 0.950 . S
H1832 C1829 0.950 . S
C1833 C1824 1.390 . S
C1833 H1826 0.950 . S
C1833 C1830 1.387 . S
C1834 C1835 1.387 . S
C1834 H1838 0.950 . S
C1834 C1843 1.390 . S
C1835 C1834 1.387 . S
C1835 C1837 1.387 . S
H1836 C1843 0.950 . S
C1837 C1835 1.387 . S
C1837 C1839 1.390 . S
C1837 H1841 0.950 . S
H1838 C1834 0.950 . S
C1839 C1837 1.390 . S
C1839 C1840 1.387 . S
C1839 H1842 0.950 . S
C1840 C1839 1.387 . S
C1840 C1843 1.387 . S
H1841 C1837 0.950 . S
H1842 C1839 0.950 . S
C1843 C1834 1.390 . S
C1843 H1836 0.950 . S
C1843 C1840 1.387 . S
C1844 C1845 1.387 . S
C1844 H1848 0.950 . S
C1844 C1853 1.390 . S
C1845 C1844 1.387 . S
C1845 C1847 1.387 . S
H1846 C1853 0.950 . S
C1847 C1845 1.387 . S
C1847 C1849 1.390 . S
C1847 H1851 0.950 . S
H1848 C1844 0.950 . S
C1849 C1847 1.390 . S
C1849 C1850 1.387 . S
C1849 H1852 0.950 . S
C1850 C1849 1.387 . S
C1850 C1853 1.387 . S
H1851 C1847 0.950 . S
H1852 C1849 0.950 . S
C1853 C1844 1.390 . S
C1853 H1846 0.950 . S
C1853 C1850 1.387 . S
C1854 C1855 1.387 . S
C1854 H1858 0.950 . S
C1854 C1863 1.390 . S
C1855 C1854 1.387 . S
C1855 C1857 1.387 . S
H1856 C1863 0.950 . S
C1857 C1855 1.387 . S
C1857 C1859 1.390 . S
C1857 H1861 0.950 . S
H1858 C1854 0.950 . S
C1859 C1857 1.390 . S
C1859 C1860 1.387 . S
C1859 H1862 0.950 . S
C1860 C1859 1.387 . S
C1860 C1863 1.387 . S
H1861 C1857 0.950 . S
H1862 C1859 0.950 . S
C1863 C1854 1.390 . S
C1863 H1856 0.950 . S
C1863 C1860 1.387 . S
C1864 C1865 1.387 . S
C1864 H1868 0.950 . S
C1864 C1873 1.390 . S
C1865 C1864 1.387 . S
C1865 C1867 1.387 . S
H1866 C1873 0.950 . S
C1867 C1865 1.387 . S
C1867 C1869 1.390 . S
C1867 H1871 0.950 . S
H1868 C1864 0.950 . S
C1869 C1867 1.390 . S
C1869 C1870 1.387 . S
C1869 H1872 0.950 . S
C1870 C1869 1.387 . S
C1870 C1873 1.387 . S
H1871 C1867 0.950 . S
H1872 C1869 0.950 . S
C1873 C1864 1.390 . S
C1873 H1866 0.950 . S
C1873 C1870 1.387 . S
C1874 C1875 1.387 . S
C1874 H1878 0.950 . S
C1874 C1883 1.390 . S
C1875 C1874 1.387 . S
C1875 C1877 1.387 . S
H1876 C1883 0.950 . S
C1877 C1875 1.387 . S
C1877 C1879 1.390 . S
C1877 H1881 0.950 . S
H1878 C1874 0.950 . S
C1879 C1877 1.390 . S
C1879 C1880 1.387 . S
C1879 H1882 0.950 . S
C1880 C1879 1.387 . S
C1880 C1883 1.387 . S
H1881 C1877 0.950 . S
H1882 C1879 0.950 . S
C1883 C1874 1.390 . S
C1883 H1876 0.950 . S
C1883 C1880 1.387 . S
C1884 C1885 1.387 . S
C1884 H1888 0.950 . S
C1884 C1893 1.390 1_455 S
C1885 C1884 1.387 . S
C1885 C1887 1.387 . S
H1886 C1893 0.950 . S
C1887 C1885 1.387 . S
C1887 C1889 1.390 1_455 S
C1887 H1891 0.950 . S
H1888 C1884 0.950 . S
C1889 C1887 1.390 1_655 S
C1889 C1890 1.387 . S
C1889 H1892 0.950 . S
C1890 C1889 1.387 . S
C1890 C1893 1.387 . S
H1891 C1887 0.950 . S
H1892 C1889 0.950 . S
C1893 C1884 1.390 1_655 S
C1893 H1886 0.950 . S
C1893 C1890 1.387 . S
C1894 C1895 1.387 . S
C1894 H1898 0.950 . S
C1894 C1903 1.390 . S
C1895 C1894 1.387 . S
C1895 C1897 1.387 . S
H1896 C1903 0.950 . S
C1897 C1895 1.387 . S
C1897 C1899 1.390 . S
C1897 H1901 0.950 . S
H1898 C1894 0.950 . S
C1899 C1897 1.390 . S
C1899 C1900 1.387 . S
C1899 H1902 0.950 . S
C1900 C1899 1.387 . S
C1900 C1903 1.387 . S
H1901 C1897 0.950 . S
H1902 C1899 0.950 . S
C1903 C1894 1.390 . S
C1903 H1896 0.950 . S
C1903 C1900 1.387 . S
C1904 C1905 1.387 . S
C1904 H1908 0.950 . S
C1904 C1913 1.390 1_545 S
C1905 C1904 1.387 . S
C1905 C1907 1.387 . S
H1906 C1913 0.950 . S
C1907 C1905 1.387 . S
C1907 C1909 1.390 1_545 S
C1907 H1911 0.950 . S
H1908 C1904 0.950 . S
C1909 C1907 1.390 1_565 S
C1909 C1910 1.387 . S
C1909 H1912 0.950 . S
C1910 C1909 1.387 . S
C1910 C1913 1.387 . S
H1911 C1907 0.950 . S
H1912 C1909 0.950 . S
C1913 C1904 1.390 1_565 S
C1913 H1906 0.950 . S
C1913 C1910 1.387 . S
C1914 C1915 1.387 . S
C1914 H1918 0.950 . S
C1914 C1923 1.390 1_545 S
C1915 C1914 1.387 . S
C1915 C1917 1.387 . S
H1916 C1923 0.950 . S
C1917 C1915 1.387 . S
C1917 C1919 1.390 1_545 S
C1917 H1921 0.950 . S
H1918 C1914 0.950 . S
C1919 C1917 1.390 1_565 S
C1919 C1920 1.387 . S
C1919 H1922 0.950 . S
C1920 C1919 1.387 . S
C1920 C1923 1.387 . S
H1921 C1917 0.950 . S
H1922 C1919 0.950 . S
C1923 C1914 1.390 1_565 S
C1923 H1916 0.950 . S
C1923 C1920 1.387 . S
C1924 C1925 1.387 . S
C1924 H1928 0.950 . S
C1924 C1933 1.390 1_655 S
C1925 C1924 1.387 . S
C1925 C1927 1.387 . S
H1926 C1933 0.950 . S
C1927 C1925 1.387 . S
C1927 C1929 1.390 1_655 S
C1927 H1931 0.950 . S
H1928 C1924 0.950 . S
C1929 C1927 1.390 1_455 S
C1929 C1930 1.387 . S
C1929 H1932 0.950 . S
C1930 C1929 1.387 . S
C1930 C1933 1.387 . S
H1931 C1927 0.950 . S
H1932 C1929 0.950 . S
C1933 C1924 1.390 1_455 S
C1933 H1926 0.950 . S
C1933 C1930 1.387 . S
C1934 C1935 1.387 . S
C1934 H1938 0.950 . S
C1934 C1943 1.390 . S
C1935 C1934 1.387 . S
C1935 C1937 1.387 . S
H1936 C1943 0.950 . S
C1937 C1935 1.387 . S
C1937 C1939 1.390 . S
C1937 H1941 0.950 . S
H1938 C1934 0.950 . S
C1939 C1937 1.390 . S
C1939 C1940 1.387 . S
C1939 H1942 0.950 . S
C1940 C1939 1.387 . S
C1940 C1943 1.387 . S
H1941 C1937 0.950 . S
H1942 C1939 0.950 . S
C1943 C1934 1.390 . S
C1943 H1936 0.950 . S
C1943 C1940 1.387 . S
C1944 C1945 1.387 . S
C1944 H1948 0.950 . S
C1944 C1953 1.390 . S
C1945 C1944 1.387 . S
C1945 C1947 1.387 . S
H1946 C1953 0.950 . S
C1947 C1945 1.387 . S
C1947 C1949 1.390 . S
C1947 H1951 0.950 . S
H1948 C1944 0.950 . S
C1949 C1947 1.390 . S
C1949 C1950 1.387 . S
C1949 H1952 0.950 . S
C1950 C1949 1.387 . S
C1950 C1953 1.387 . S
H1951 C1947 0.950 . S
H1952 C1949 0.950 . S
C1953 C1944 1.390 . S
C1953 H1946 0.950 . S
C1953 C1950 1.387 . S
C1954 C1955 1.387 . S
C1954 H1958 0.950 . S
C1954 C1963 1.390 . S
C1955 C1954 1.387 . S
C1955 C1957 1.387 . S
H1956 C1963 0.950 . S
C1957 C1955 1.387 . S
C1957 C1959 1.390 . S
C1957 H1961 0.950 . S
H1958 C1954 0.950 . S
C1959 C1957 1.390 . S
C1959 C1960 1.387 . S
C1959 H1962 0.950 . S
C1960 C1959 1.387 . S
C1960 C1963 1.387 . S
H1961 C1957 0.950 . S
H1962 C1959 0.950 . S
C1963 C1954 1.390 . S
C1963 H1956 0.950 . S
C1963 C1960 1.387 . S
C1964 C1965 1.387 . S
C1964 H1968 0.950 . S
C1964 C1973 1.390 . S
C1965 C1964 1.387 . S
C1965 C1967 1.387 . S
H1966 C1973 0.950 . S
C1967 C1965 1.387 . S
C1967 C1969 1.390 . S
C1967 H1971 0.950 . S
H1968 C1964 0.950 . S
C1969 C1967 1.390 . S
C1969 C1970 1.387 . S
C1969 H1972 0.950 . S
C1970 C1969 1.387 . S
C1970 C1973 1.387 . S
H1971 C1967 0.950 . S
H1972 C1969 0.950 . S
C1973 C1964 1.390 . S
C1973 H1966 0.950 . S
C1973 C1970 1.387 . S
C1974 C1975 1.387 . S
C1974 H1978 0.950 . S
C1974 C1983 1.390 . S
C1975 C1974 1.387 . S
C1975 C1977 1.387 . S
H1976 C1983 0.950 . S
C1977 C1975 1.387 . S
C1977 C1979 1.390 . S
C1977 H1981 0.950 . S
H1978 C1974 0.950 . S
C1979 C1977 1.390 . S
C1979 C1980 1.387 . S
C1979 H1982 0.950 . S
C1980 C1979 1.387 . S
C1980 C1983 1.387 . S
H1981 C1977 0.950 . S
H1982 C1979 0.950 . S
C1983 C1974 1.390 . S
C1983 H1976 0.950 . S
C1983 C1980 1.387 . S
C1984 C1985 1.387 . S
C1984 H1988 0.950 . S
C1984 C1993 1.390 . S
C1985 C1984 1.387 . S
C1985 C1987 1.387 . S
H1986 C1993 0.950 . S
C1987 C1985 1.387 . S
C1987 C1989 1.390 . S
C1987 H1991 0.950 . S
H1988 C1984 0.950 . S
C1989 C1987 1.390 . S
C1989 C1990 1.387 . S
C1989 H1992 0.950 . S
C1990 C1989 1.387 . S
C1990 C1993 1.387 . S
H1991 C1987 0.950 . S
H1992 C1989 0.950 . S
C1993 C1984 1.390 . S
C1993 H1986 0.950 . S
C1993 C1990 1.387 . S
C1994 C1995 1.387 . S
C1994 H1998 0.950 . S
C1994 C2003 1.390 . S
C1995 C1994 1.387 . S
C1995 C1997 1.387 . S
H1996 C2003 0.950 . S
C1997 C1995 1.387 . S
C1997 C1999 1.390 . S
C1997 H2001 0.950 . S
H1998 C1994 0.950 . S
C1999 C1997 1.390 . S
C1999 C2000 1.387 . S
C1999 H2002 0.950 . S
C2000 C1999 1.387 . S
C2000 C2003 1.387 . S
H2001 C1997 0.950 . S
H2002 C1999 0.950 . S
C2003 C1994 1.390 . S
C2003 H1996 0.950 . S
C2003 C2000 1.387 . S
C2004 C2005 1.387 . S
C2004 H2008 0.950 . S
C2004 C2013 1.390 . S
C2005 C2004 1.387 . S
C2005 C2007 1.387 . S
H2006 C2013 0.950 . S
C2007 C2005 1.387 . S
C2007 C2009 1.390 . S
C2007 H2011 0.950 . S
H2008 C2004 0.950 . S
C2009 C2007 1.390 . S
C2009 C2010 1.387 . S
C2009 H2012 0.950 . S
C2010 C2009 1.387 . S
C2010 C2013 1.387 . S
H2011 C2007 0.950 . S
H2012 C2009 0.950 . S
C2013 C2004 1.390 . S
C2013 H2006 0.950 . S
C2013 C2010 1.387 . S
C2014 C2015 1.387 . S
C2014 H2018 0.950 . S
C2014 C2023 1.390 . S
C2015 C2014 1.387 . S
C2015 C2017 1.387 . S
H2016 C2023 0.950 . S
C2017 C2015 1.387 . S
C2017 C2019 1.390 . S
C2017 H2021 0.950 . S
H2018 C2014 0.950 . S
C2019 C2017 1.390 . S
C2019 C2020 1.387 . S
C2019 H2022 0.950 . S
C2020 C2019 1.387 . S
C2020 C2023 1.387 . S
H2021 C2017 0.950 . S
H2022 C2019 0.950 . S
C2023 C2014 1.390 . S
C2023 H2016 0.950 . S
C2023 C2020 1.387 . S
C2024 C2025 1.387 . S
C2024 H2028 0.950 . S
C2024 C2033 1.390 . S
C2025 C2024 1.387 . S
C2025 C2027 1.387 . S
H2026 C2033 0.950 . S
C2027 C2025 1.387 . S
C2027 C2029 1.390 . S
C2027 H2031 0.950 . S
H2028 C2024 0.950 . S
C2029 C2027 1.390 . S
C2029 C2030 1.387 . S
C2029 H2032 0.950 . S
C2030 C2029 1.387 . S
C2030 C2033 1.387 . S
H2031 C2027 0.950 . S
H2032 C2029 0.950 . S
C2033 C2024 1.390 . S
C2033 H2026 0.950 . S
C2033 C2030 1.387 . S
C2034 C2035 1.387 . S
C2034 H2038 0.950 . S
C2034 C2043 1.390 . S
C2035 C2034 1.387 . S
C2035 C2037 1.387 . S
H2036 C2043 0.950 . S
C2037 C2035 1.387 . S
C2037 C2039 1.390 . S
C2037 H2041 0.950 . S
H2038 C2034 0.950 . S
C2039 C2037 1.390 . S
C2039 C2040 1.387 . S
C2039 H2042 0.950 . S
C2040 C2039 1.387 . S
C2040 C2043 1.387 . S
H2041 C2037 0.950 . S
H2042 C2039 0.950 . S
C2043 C2034 1.390 . S
C2043 H2036 0.950 . S
C2043 C2040 1.387 . S
C2044 C2045 1.387 . S
C2044 H2048 0.950 . S
C2044 C2053 1.390 . S
C2045 C2044 1.387 . S
C2045 C2047 1.387 . S
H2046 C2053 0.950 . S
C2047 C2045 1.387 . S
C2047 C2049 1.390 . S
C2047 H2051 0.950 . S
H2048 C2044 0.950 . S
C2049 C2047 1.390 . S
C2049 C2050 1.387 . S
C2049 H2052 0.950 . S
C2050 C2049 1.387 . S
C2050 C2053 1.387 . S
H2051 C2047 0.950 . S
H2052 C2049 0.950 . S
C2053 C2044 1.390 . S
C2053 H2046 0.950 . S
C2053 C2050 1.387 . S
C2054 C2055 1.387 . S
C2054 H2058 0.950 . S
C2054 C2063 1.390 . S
C2055 C2054 1.387 . S
C2055 C2057 1.387 . S
H2056 C2063 0.950 . S
C2057 C2055 1.387 . S
C2057 C2059 1.390 . S
C2057 H2061 0.950 . S
H2058 C2054 0.950 . S
C2059 C2057 1.390 . S
C2059 C2060 1.387 . S
C2059 H2062 0.950 . S
C2060 C2059 1.387 . S
C2060 C2063 1.387 . S
H2061 C2057 0.950 . S
H2062 C2059 0.950 . S
C2063 C2054 1.390 . S
C2063 H2056 0.950 . S
C2063 C2060 1.387 . S
C2064 C2065 1.387 . S
C2064 H2068 0.950 . S
C2064 C2073 1.390 1_455 S
C2065 C2064 1.387 . S
C2065 C2067 1.387 . S
H2066 C2073 0.950 . S
C2067 C2065 1.387 . S
C2067 C2069 1.390 1_455 S
C2067 H2071 0.950 . S
H2068 C2064 0.950 . S
C2069 C2067 1.390 1_655 S
C2069 C2070 1.387 . S
C2069 H2072 0.950 . S
C2070 C2069 1.387 . S
C2070 C2073 1.387 . S
H2071 C2067 0.950 . S
H2072 C2069 0.950 . S
C2073 C2064 1.390 1_655 S
C2073 H2066 0.950 . S
C2073 C2070 1.387 . S
C2074 C2075 1.387 . S
C2074 H2078 0.950 . S
C2074 C2083 1.390 . S
C2075 C2074 1.387 . S
C2075 C2077 1.387 . S
H2076 C2083 0.950 . S
C2077 C2075 1.387 . S
C2077 C2079 1.390 . S
C2077 H2081 0.950 . S
H2078 C2074 0.950 . S
C2079 C2077 1.390 . S
C2079 C2080 1.387 . S
C2079 H2082 0.950 . S
C2080 C2079 1.387 . S
C2080 C2083 1.387 . S
H2081 C2077 0.950 . S
H2082 C2079 0.950 . S
C2083 C2074 1.390 . S
C2083 H2076 0.950 . S
C2083 C2080 1.387 . S
C2084 C2085 1.387 . S
C2084 H2088 0.950 . S
C2084 C2093 1.390 1_545 S
C2085 C2084 1.387 . S
C2085 C2087 1.387 . S
H2086 C2093 0.950 . S
C2087 C2085 1.387 . S
C2087 C2089 1.390 1_545 S
C2087 H2091 0.950 . S
H2088 C2084 0.950 . S
C2089 C2087 1.390 1_565 S
C2089 C2090 1.387 . S
C2089 H2092 0.950 . S
C2090 C2089 1.387 . S
C2090 C2093 1.387 . S
H2091 C2087 0.950 . S
H2092 C2089 0.950 . S
C2093 C2084 1.390 1_565 S
C2093 H2086 0.950 . S
C2093 C2090 1.387 . S
C2094 C2095 1.387 . S
C2094 H2098 0.950 . S
C2094 C2103 1.390 1_545 S
C2095 C2094 1.387 . S
C2095 C2097 1.387 . S
H2096 C2103 0.950 . S
C2097 C2095 1.387 . S
C2097 C2099 1.390 1_545 S
C2097 H2101 0.950 . S
H2098 C2094 0.950 . S
C2099 C2097 1.390 1_565 S
C2099 C2100 1.387 . S
C2099 H2102 0.950 . S
C2100 C2099 1.387 . S
C2100 C2103 1.387 . S
H2101 C2097 0.950 . S
H2102 C2099 0.950 . S
C2103 C2094 1.390 1_565 S
C2103 H2096 0.950 . S
C2103 C2100 1.387 . S
C2104 C2105 1.387 . S
C2104 H2108 0.950 . S
C2104 C2113 1.390 1_455 S
C2105 C2104 1.387 . S
C2105 C2107 1.387 . S
H2106 C2113 0.950 . S
C2107 C2105 1.387 . S
C2107 C2109 1.390 1_455 S
C2107 H2111 0.950 . S
H2108 C2104 0.950 . S
C2109 C2107 1.390 1_655 S
C2109 C2110 1.387 . S
C2109 H2112 0.950 . S
C2110 C2109 1.387 . S
C2110 C2113 1.387 . S
H2111 C2107 0.950 . S
H2112 C2109 0.950 . S
C2113 C2104 1.390 1_655 S
C2113 H2106 0.950 . S
C2113 C2110 1.387 . S
C2114 C2115 1.387 . S
C2114 H2118 0.950 . S
C2114 C2123 1.390 . S
C2115 C2114 1.387 . S
C2115 C2117 1.387 . S
H2116 C2123 0.950 . S
C2117 C2115 1.387 . S
C2117 C2119 1.390 . S
C2117 H2121 0.950 . S
H2118 C2114 0.950 . S
C2119 C2117 1.390 . S
C2119 C2120 1.387 . S
C2119 H2122 0.950 . S
C2120 C2119 1.387 . S
C2120 C2123 1.387 . S
H2121 C2117 0.950 . S
H2122 C2119 0.950 . S
C2123 C2114 1.390 . S
C2123 H2116 0.950 . S
C2123 C2120 1.387 . S
C1225 C271 1.440 . S
C1230 C9 1.364 . S
C1235 C43 1.364 . S
C1240 C305 1.440 . S
C1245 C237 1.440 . S
C1250 C77 1.362 . S
C1255 C407 1.440 . S
C1260 C111 1.366 . S
C1265 C339 1.440 . S
C1270 C145 1.363 . S
C1275 C179 1.365 . S
C1280 C373 1.440 . S
C1285 C213 1.363 . S
C1290 C67 1.440 . S
C1295 C247 1.363 . S
C1300 C101 1.440 . S
C1305 C281 1.366 . S
C1310 C33 1.440 . S
C1315 C203 1.440 . S
C1320 C315 1.366 . S
C1325 C135 1.440 . S
C1330 C349 1.363 . S
C1335 C383 1.365 . S
C1340 C169 1.440 . S
C1345 C679 1.440 . S
C1350 C417 1.362 . S
C1355 C713 1.440 . S
C1360 C451 1.363 . S
C1365 C645 1.440 . S
C1370 C485 1.362 . S
C1375 C815 1.440 . S
C1380 C519 1.366 . S
C1385 C747 1.440 . S
C1390 C553 1.364 . S
C1395 C781 1.440 . S
C1400 C587 1.365 . S
C1405 C621 1.362 . S
C1410 C475 1.440 . S
C1415 C655 1.363 . S
C1420 C509 1.440 . S
C1425 C441 1.440 . S
C1430 C689 1.362 . S
C1435 C723 1.362 . S
C1440 C611 1.440 . S
C1445 C757 1.365 . S
C1450 C543 1.440 . S
C1455 C791 1.363 . S
C1460 C577 1.440 . S
C1465 C1087 1.440 . S
C1470 C825 1.362 . S
C1475 C1121 1.440 . S
C1480 C859 1.365 . S
C1485 C893 1.366 . S
C1490 C1053 1.440 . S
C1495 C927 1.366 . S
C1500 C1223 1.440 . S
C1505 C961 1.364 . S
C1510 C1155 1.440 . S
C1515 C995 1.364 . S
C1520 C1189 1.440 . S
C1525 C883 1.440 . S
C1530 C1029 1.363 . S
C1535 C917 1.440 . S
C1540 C1063 1.364 . S
C1545 C1097 1.362 . S
C1550 C849 1.440 . S
C1555 C1019 1.440 . S
C1560 C1131 1.366 . S
C1565 C951 1.440 . S
C1570 C1165 1.365 . S
C1575 C1199 1.362 . S
C1580 C985 1.440 . S
C1585 C2 1.774 . S
C1590 C104 1.774 . S
C1595 C36 1.772 . S
C1600 C138 1.772 . S
C1605 C70 1.772 . S
C1610 C172 1.773 . S
C1615 C308 1.772 . S
C1620 C206 1.772 . S
C1625 C342 1.772 . S
C1630 C240 1.772 . S
C1635 C376 1.774 . S
C1640 C274 1.774 . S
C1645 C410 1.774 . S
C1650 C512 1.774 . S
C1655 C444 1.772 . S
C1660 C546 1.772 . S
C1665 C580 1.774 . S
C1670 C478 1.774 . S
C1675 C614 1.772 . S
C1680 C716 1.772 1_554 S
C1685 C750 1.774 1_554 S
C1690 C648 1.774 . S
C1695 C784 1.773 1_554 S
C1700 C682 1.772 . S
C1705 C920 1.772 1_556 S
C1710 C818 1.773 . S
C1715 C954 1.774 1_556 S
C1720 C852 1.774 . S
C1725 C988 1.772 1_556 S
C1730 C886 1.773 . S
C1735 C1124 1.774 . S
C1740 C1022 1.773 . S
C1745 C1158 1.772 . S
C1750 C1056 1.772 . S
C1755 C1090 1.774 . S
C1760 C1192 1.773 . S
C1765 C20 1.841 . S
C1770 C564 1.841 . S
C1775 C598 1.842 . S
C1780 C54 1.841 . S
C1785 C88 1.841 . S
C1790 C530 1.841 . S
C1795 C904 1.843 . S
C1800 C122 1.843 . S
C1805 C156 1.843 . S
C1810 C836 1.842 . S
C1815 C870 1.842 . S
C1820 C190 1.843 . S
C1825 C1176 1.843 . S
C1830 C224 1.842 . S
C1835 C258 1.841 . S
C1840 C1210 1.842 . S
C1845 C1142 1.841 . S
C1850 C292 1.841 . S
C1855 C326 1.841 . S
C1860 C700 1.841 . S
C1865 C360 1.843 . S
C1870 C632 1.842 . S
C1875 C666 1.841 . S
C1880 C394 1.842 . S
C1885 C972 1.841 . S
C1890 C428 1.841 . S
C1895 C1006 1.842 . S
C1900 C462 1.841 . S
C1905 C496 1.843 . S
C1910 C938 1.843 . S
C1915 C734 1.843 . S
C1920 C1108 1.843 . S
C1925 C768 1.841 . S
C1930 C1040 1.841 . S
C1935 C1074 1.843 . S
C1940 C802 1.842 . S
C1945 C991 1.097 . S
C1950 C5 1.097 . S
C1955 C923 1.096 . S
C1960 C39 1.098 . S
C1965 C957 1.096 . S
C1970 C73 1.099 . S
C1975 C107 1.096 . S
C1980 C447 1.098 . S
C1985 C141 1.098 . S
C1990 C481 1.096 . S
C1995 C413 1.097 . S
C2000 C175 1.097 . S
C2005 C209 1.096 . S
C2010 C787 1.096 . S
C2015 C719 1.096 . S
C2020 C243 1.098 . S
C2025 C277 1.096 . S
C2030 C753 1.098 . S
C2035 C311 1.096 . S
C2040 C1059 1.098 . S
C2045 C1093 1.096 . S
C2050 C345 1.098 . S
C2055 C379 1.096 . S
C2060 C1025 1.096 . S
C2065 C855 1.098 . S
C2070 C515 1.096 . S
C2075 C549 1.098 . S
C2080 C889 1.096 . S
C2085 C583 1.097 . S
C2090 C821 1.098 . S
C2095 C617 1.096 . S
C2100 C1195 1.096 . S
C2105 C1127 1.096 . S
C2110 C651 1.098 . S
C2115 C1161 1.096 . S
C2120 C685 1.098 . S
