# Generated by pormake.
# Topology cdt, (3)-cn, num edge types: 1
# Building blocks:
#     Node 0, Type 0, BuildingBlock: OLANEW_clean_sbu_2, # of connection points: 3
#     Node 1, Type 0, BuildingBlock: OLANEW_clean_sbu_2, # of connection points: 3
#     Node 2, Type 0, BuildingBlock: OLANEW_clean_sbu_2, # of connection points: 3
#     Node 3, Type 0, BuildingBlock: OLANEW_clean_sbu_2, # of connection points: 3
#     Node 4, Type 0, BuildingBlock: OLANEW_clean_sbu_2, # of connection points: 3
#     Node 5, Type 0, BuildingBlock: OLANEW_clean_sbu_2, # of connection points: 3
#     Node 6, Type 0, BuildingBlock: OLANEW_clean_sbu_2, # of connection points: 3
#     Node 7, Type 0, BuildingBlock: OLANEW_clean_sbu_2, # of connection points: 3
#     Edge 8, Type (0, 0), BuildingBlock: XUDNAN_clean_linker_2, # of connection points: 2
#     Edge 9, Type (0, 0), BuildingBlock: XUDNAN_clean_linker_2, # of connection points: 2
#     Edge 10, Type (0, 0), BuildingBlock: XUDNAN_clean_linker_2, # of connection points: 2
#     Edge 11, Type (0, 0), BuildingBlock: XUDNAN_clean_linker_2, # of connection points: 2
#     Edge 12, Type (0, 0), BuildingBlock: XUDNAN_clean_linker_2, # of connection points: 2
#     Edge 13, Type (0, 0), BuildingBlock: XUDNAN_clean_linker_2, # of connection points: 2
#     Edge 14, Type (0, 0), BuildingBlock: XUDNAN_clean_linker_2, # of connection points: 2
#     Edge 15, Type (0, 0), BuildingBlock: XUDNAN_clean_linker_2, # of connection points: 2
#     Edge 16, Type (0, 0), BuildingBlock: XUDNAN_clean_linker_2, # of connection points: 2
#     Edge 17, Type (0, 0), BuildingBlock: XUDNAN_clean_linker_2, # of connection points: 2
#     Edge 18, Type (0, 0), BuildingBlock: XUDNAN_clean_linker_2, # of connection points: 2
#     Edge 19, Type (0, 0), BuildingBlock: XUDNAN_clean_linker_2, # of connection points: 2
# Relax obj value: 0.002
# Max RMSD: 0.035
# Mean RMSD: 0.035
data_MOF--net-cdt--node1-OLANEW_clean_sbu_2--edge1-XUDNAN_clean_linker_2
_symmetry_space_group_name_H-M    P1
_symmetry_Int_Tables_number       1
_symmetry_cell_setting            triclinic
loop_
_symmetry_equiv_pos_as_xyz
'x, y, z'
_cell_length_a     42.569087
_cell_length_b     21.534692
_cell_length_c     48.318154
_cell_angle_alpha  89.990967
_cell_angle_beta   90.00893
_cell_angle_gamma 89.976575
loop_
_atom_site_label
_atom_site_type_symbol
_atom_site_fract_x
_atom_site_fract_y
_atom_site_fract_z
_atom_type_partial_charge
O0 O 0.45663 0.25043 0.1394 0.0
Cd1 Cd 0.44162 0.2306 0.09133 0.0
O2 O 0.43799 0.1612 0.15428 0.0
Cd3 Cd 0.41587 0.13327 0.11543 0.0
O4 O 0.37362 0.09323 0.09689 0.0
C5 C 0.35329 0.07721 0.11479 0.0
O6 O 0.35976 0.08592 0.1411 0.0
C7 C 0.45214 0.21208 0.15902 0.0
C8 C 0.4501 0.33596 0.05847 0.0
O9 O 0.42394 0.32571 0.07078 0.0
O10 O 0.47224 0.29621 0.06162 0.0
O11 O 0.07374 0.73633 0.13948 0.0
Cd12 Cd 0.09523 0.73749 0.09253 0.0
O13 O 0.05119 0.8278 0.13558 0.0
Cd14 Cd 0.07812 0.84836 0.09823 0.0
O15 O 0.12356 0.88314 0.08396 0.0
C16 C 0.14179 0.89722 0.10383 0.0
O17 O 0.1317 0.88926 0.12929 0.0
C18 C 0.05616 0.77858 0.14946 0.0
C19 C 0.05905 0.66379 0.05728 0.0
O20 O 0.08282 0.64121 0.0701 0.0
O21 O 0.05256 0.72132 0.06098 0.0
O22 O 0.43227 0.2321 0.36928 0.0
Cd23 Cd 0.41263 0.22964 0.41684 0.0
O24 O 0.44227 0.33228 0.36967 0.0
Cd25 Cd 0.41501 0.34787 0.40735 0.0
O26 O 0.37042 0.38537 0.42246 0.0
C27 C 0.35487 0.41306 0.40369 0.0
O28 O 0.36698 0.41634 0.3787 0.0
C29 C 0.44346 0.28002 0.35747 0.0
C30 C 0.43191 0.12125 0.44371 0.0
O31 O 0.40591 0.12337 0.43037 0.0
O32 O 0.44873 0.17058 0.44452 0.0
O33 O 0.03387 0.75624 0.36751 0.0
Cd34 Cd 0.04762 0.74408 0.41634 0.0
O35 O 0.06019 0.67315 0.3546 0.0
Cd36 Cd 0.08115 0.65037 0.39462 0.0
O37 O 0.12349 0.61077 0.41325 0.0
C38 C 0.1458 0.60474 0.39597 0.0
O39 O 0.1412 0.62323 0.37036 0.0
C40 C 0.04263 0.71901 0.34861 0.0
C41 C 0.04123 0.85622 0.44483 0.0
O42 O 0.01827 0.81791 0.44313 0.0
O43 O 0.06721 0.84132 0.43319 0.0
O44 O 0.54668 0.7575 0.86213 0.0
Cd45 Cd 0.55416 0.77314 0.91185 0.0
O46 O 0.59123 0.80436 0.85223 0.0
Cd47 Cd 0.60578 0.82989 0.89406 0.0
O48 O 0.64074 0.88071 0.91818 0.0
C49 C 0.63492 0.93392 0.92835 0.0
O50 O 0.60633 0.95649 0.92633 0.0
C51 C 0.56661 0.77602 0.84436 0.0
C52 C 0.52242 0.68436 0.94337 0.0
O53 O 0.50902 0.73518 0.93619 0.0
O54 O 0.55086 0.67543 0.93559 0.0
O55 O 0.95282 0.2385 0.86878 0.0
Cd56 Cd 0.93724 0.23353 0.91743 0.0
O57 O 0.91108 0.18657 0.85514 0.0
Cd58 Cd 0.88981 0.17011 0.89563 0.0
O59 O 0.85023 0.13184 0.91881 0.0
C60 C 0.82912 0.16646 0.9292 0.0
O61 O 0.83249 0.22703 0.92787 0.0
C62 C 0.93645 0.21496 0.84944 0.0
C63 C 0.9567 0.33928 0.94613 0.0
O64 O 0.97401 0.29061 0.94515 0.0
O65 O 0.93014 0.3378 0.93364 0.0
O66 O 0.56119 0.70904 0.62449 0.0
Cd67 Cd 0.57442 0.70231 0.57534 0.0
O68 O 0.60832 0.74275 0.63557 0.0
Cd69 Cd 0.6299 0.72543 0.59527 0.0
O70 O 0.66873 0.6852 0.57168 0.0
C71 C 0.67273 0.62689 0.57377 0.0
O72 O 0.65225 0.59436 0.58804 0.0
C73 C 0.58033 0.72928 0.64256 0.0
C74 C 0.5366 0.78186 0.5441 0.0
O75 O 0.52837 0.72557 0.54874 0.0
O76 O 0.56286 0.80048 0.55409 0.0
O77 O 0.96212 0.29944 0.63296 0.0
Cd78 Cd 0.95115 0.31749 0.58392 0.0
O79 O 0.91664 0.25329 0.63947 0.0
Cd80 Cd 0.89672 0.28125 0.59971 0.0
O81 O 0.85977 0.3335 0.57864 0.0
C82 C 0.86505 0.38542 0.56702 0.0
O83 O 0.89405 0.40611 0.56572 0.0
C84 C 0.94332 0.27004 0.64865 0.0
C85 C 0.97874 0.22551 0.55123 0.0
O86 O 0.99362 0.27538 0.55736 0.0
O87 O 0.95066 0.21929 0.56042 0.0
H88 H 0.30613 0.0394 0.14902 0.0
H89 H 0.33136 0.05288 0.06219 0.0
H90 H 0.2799 0.00744 0.04939 0.0
H91 H 0.26569 0.89387 0.14479 0.0
H92 H 0.23619 0.91587 0.16969 0.0
H93 H 0.27494 0.94907 0.17163 0.0
H94 H 0.25094 0.05967 0.16952 0.0
H95 H 0.21213 0.02682 0.16757 0.0
H96 H 0.22531 0.08004 0.14123 0.0
H97 H 0.22471 0.96079 0.04652 0.0
H98 H 0.17149 0.91723 0.0539 0.0
H99 H 0.18403 0.93529 0.14269 0.0
C100 C 0.30097 0.03281 0.12727 0.0
C101 C 0.3228 0.04971 0.1066 0.0
C102 C 0.31499 0.04026 0.0784 0.0
C103 C 0.28584 0.01449 0.07094 0.0
C104 C 0.26484 0.99846 0.09193 0.0
C105 C 0.27216 0.0073 0.11952 0.0
C106 C 0.24571 0.98667 0.13823 0.0
C107 C 0.25627 0.93319 0.15719 0.0
C108 C 0.23276 0.04158 0.15513 0.0
C109 C 0.22224 0.96477 0.11692 0.0
C110 C 0.23355 0.97185 0.0903 0.0
C111 C 0.21568 0.95499 0.06729 0.0
C112 C 0.18549 0.93033 0.07168 0.0
C113 C 0.17358 0.92277 0.09886 0.0
C114 C 0.19238 0.94027 0.12164 0.0
H115 H 0.31721 0.47432 0.3671 0.0
H116 H 0.32154 0.41331 0.45264 0.0
H117 H 0.26864 0.45778 0.46079 0.0
H118 H 0.27733 0.61901 0.37954 0.0
H119 H 0.25422 0.6137 0.34837 0.0
H120 H 0.2925 0.57822 0.34982 0.0
H121 H 0.26819 0.4723 0.33594 0.0
H122 H 0.22986 0.50743 0.33446 0.0
H123 H 0.23645 0.44069 0.35622 0.0
H124 H 0.21413 0.50793 0.4588 0.0
H125 H 0.16359 0.55847 0.44685 0.0
H126 H 0.19657 0.58533 0.36269 0.0
C127 C 0.3072 0.47039 0.38763 0.0
C128 C 0.32355 0.44035 0.40925 0.0
C129 C 0.30946 0.43621 0.43576 0.0
C130 C 0.27944 0.46133 0.44057 0.0
C131 C 0.26393 0.49046 0.41868 0.0
C132 C 0.27745 0.49507 0.39275 0.0
C133 C 0.25599 0.52763 0.37249 0.0
C134 C 0.2709 0.58824 0.36195 0.0
C135 C 0.2471 0.48442 0.34837 0.0
C136 C 0.22811 0.54049 0.39096 0.0
C137 C 0.23302 0.51894 0.41755 0.0
C138 C 0.21013 0.52512 0.43805 0.0
C139 C 0.18152 0.55388 0.43108 0.0
C140 C 0.17611 0.57594 0.40385 0.0
C141 C 0.1999 0.56918 0.38372 0.0
H142 H 0.81165 0.04417 0.92749 0.0
H143 H 0.77819 0.22693 0.95128 0.0
H144 H 0.72562 0.18305 0.96043 0.0
H145 H 0.74714 0.00265 0.89012 0.0
H146 H 0.74704 0.92184 0.89985 0.0
H147 H 0.78318 0.96486 0.9002 0.0
H148 H 0.79183 0.93565 0.95169 0.0
H149 H 0.75567 0.89211 0.95146 0.0
H150 H 0.76162 0.95257 0.97672 0.0
H151 H 0.67511 0.12259 0.96022 0.0
H152 H 0.63117 0.05089 0.95065 0.0
H153 H 0.69786 0.90784 0.92708 0.0
C154 C 0.79357 0.07473 0.93542 0.0
C155 C 0.79911 0.13899 0.93877 0.0
C156 C 0.77458 0.17749 0.94868 0.0
C157 C 0.74464 0.15294 0.95402 0.0
C158 C 0.73969 0.08971 0.94959 0.0
C159 C 0.7636 0.05103 0.94076 0.0
C160 C 0.75154 0.98626 0.9348 0.0
C161 C 0.75757 0.96789 0.90445 0.0
C162 C 0.76603 0.93885 0.95487 0.0
C163 C 0.71688 0.99522 0.94046 0.0
C164 C 0.71054 0.05486 0.94944 0.0
C165 C 0.67986 0.07541 0.95373 0.0
C166 C 0.65503 0.03436 0.94818 0.0
C167 C 0.66103 0.97361 0.93823 0.0
C168 C 0.69244 0.95361 0.93504 0.0
H169 H 0.68999 0.50516 0.57902 0.0
H170 H 0.72215 0.68207 0.54665 0.0
H171 H 0.7736 0.63501 0.53565 0.0
H172 H 0.75796 0.46702 0.61303 0.0
H173 H 0.75638 0.38492 0.60592 0.0
H174 H 0.72072 0.42951 0.60702 0.0
H175 H 0.7066 0.39273 0.55748 0.0
H176 H 0.74226 0.34764 0.55626 0.0
H177 H 0.73427 0.40431 0.52971 0.0
H178 H 0.82361 0.57234 0.53404 0.0
H179 H 0.86761 0.49949 0.54174 0.0
H180 H 0.80231 0.3638 0.5749 0.0
C181 C 0.70752 0.53371 0.56895 0.0
C182 C 0.70197 0.59728 0.56362 0.0
C183 C 0.72578 0.63317 0.55081 0.0
C184 C 0.75507 0.6068 0.54442 0.0
C185 C 0.76007 0.54438 0.55072 0.0
C186 C 0.73681 0.50817 0.56248 0.0
C187 C 0.74887 0.44394 0.5695 0.0
C188 C 0.74581 0.43063 0.60071 0.0
C189 C 0.73199 0.39422 0.5522 0.0
C190 C 0.78288 0.45037 0.5609 0.0
C191 C 0.78883 0.50829 0.54974 0.0
C192 C 0.8191 0.52647 0.54228 0.0
C193 C 0.84397 0.4848 0.54679 0.0
C194 C 0.83843 0.42578 0.5588 0.0
C195 C 0.80733 0.40816 0.56532 0.0
H196 H 0.5032 0.37118 0.0303 0.0
H197 H 0.40743 0.42823 0.04795 0.0
H198 H 0.41526 0.52283 0.01991 0.0
H199 H 0.53751 0.52263 0.0337 0.0
H200 H 0.56476 0.50888 0.00582 0.0
H201 H 0.55141 0.44506 0.02682 0.0
H202 H 0.53225 0.3875 0.98285 0.0
H203 H 0.54556 0.45115 0.9617 0.0
H204 H 0.50528 0.42574 0.95965 0.0
H205 H 0.43379 0.61205 0.99053 0.0
H206 H 0.46164 0.68929 0.96183 0.0
H207 H 0.54526 0.57377 0.96333 0.0
C208 C 0.48382 0.40343 0.02822 0.0
C209 C 0.45468 0.39224 0.04133 0.0
C210 C 0.42996 0.43575 0.03811 0.0
C211 C 0.43417 0.48963 0.02221 0.0
C212 C 0.46322 0.4993 0.00965 0.0
C213 C 0.48761 0.45741 0.01244 0.0
C214 C 0.51659 0.47908 0.99703 0.0
C215 C 0.54419 0.48954 0.01704 0.0
C216 C 0.52543 0.43313 0.97394 0.0
C217 C 0.50472 0.53985 0.98522 0.0
C218 C 0.47387 0.55063 0.99271 0.0
C219 C 0.45793 0.60405 0.98448 0.0
C220 C 0.47397 0.64767 0.96819 0.0
C221 C 0.50563 0.63762 0.9603 0.0
C222 C 0.52106 0.58281 0.96895 0.0
H223 H 0.00944 0.35334 0.97821 0.0
H224 H 0.92754 0.45261 0.94795 0.0
H225 H 0.94509 0.5468 0.97266 0.0
H226 H 0.01034 0.42215 0.04594 0.0
H227 H 0.05259 0.42521 0.04794 0.0
H228 H 0.03377 0.36592 0.02755 0.0
H229 H 0.06561 0.40059 0.98452 0.0
H230 H 0.0845 0.46004 0.00477 0.0
H231 H 0.0639 0.48049 0.97347 0.0
H232 H 0.97175 0.63039 0.00048 0.0
H233 H 0.0049 0.6965 0.03033 0.0
H234 H 0.06891 0.542 0.04291 0.0
C235 C 0.99519 0.39488 0.97673 0.0
C236 C 0.96713 0.39562 0.9611 0.0
C237 C 0.94911 0.4509 0.95981 0.0
C238 C 0.9589 0.50467 0.97374 0.0
C239 C 0.98669 0.50235 0.98895 0.0
C240 C 0.00453 0.44884 0.9906 0.0
C241 C 0.03324 0.45841 0.00861 0.0
C242 C 0.03242 0.41537 0.03402 0.0
C243 C 0.0636 0.44936 0.99183 0.0
C244 C 0.02879 0.52568 0.01682 0.0
C245 C 0.00186 0.55025 0.00519 0.0
C246 C 0.99288 0.61164 0.00973 0.0
C247 C 0.01189 0.64884 0.0267 0.0
C248 C 0.03949 0.62446 0.039 0.0
C249 C 0.04795 0.56203 0.03387 0.0
H250 H 0.48619 0.10201 0.47325 0.0
H251 H 0.40124 0.00955 0.44541 0.0
H252 H 0.4188 0.91272 0.468 0.0
H253 H 0.53818 0.97254 0.46363 0.0
H254 H 0.56123 0.98904 0.49404 0.0
H255 H 0.54187 0.05127 0.47589 0.0
H256 H 0.51364 0.08385 0.52114 0.0
H257 H 0.53295 0.02177 0.53944 0.0
H258 H 0.49071 0.02736 0.53984 0.0
H259 H 0.44569 0.8258 0.49344 0.0
H260 H 0.47987 0.75516 0.52017 0.0
H261 H 0.54728 0.90439 0.53135 0.0
C262 C 0.47123 0.06147 0.47192 0.0
C263 C 0.44231 0.06341 0.45755 0.0
C264 C 0.42347 0.00924 0.4563 0.0
C265 C 0.43324 0.95399 0.46906 0.0
C266 C 0.4619 0.95365 0.48299 0.0
C267 C 0.48061 0.00595 0.48453 0.0
C268 C 0.51039 0.99319 0.50074 0.0
C269 C 0.53964 0.00202 0.48248 0.0
C270 C 0.512 0.03396 0.52684 0.0
C271 C 0.50551 0.92549 0.50806 0.0
C272 C 0.4774 0.90357 0.49763 0.0
C273 C 0.46776 0.84244 0.50172 0.0
C274 C 0.48735 0.80267 0.51692 0.0
C275 C 0.51627 0.82416 0.52785 0.0
C276 C 0.52535 0.88646 0.52326 0.0
H277 H 0.95295 0.11497 0.53427 0.0
H278 H 0.03833 0.22481 0.52992 0.0
H279 H 0.06354 0.14243 0.50218 0.0
H280 H 0.99042 0.96652 0.54091 0.0
H281 H 0.96198 0.92646 0.51982 0.0
H282 H 0.95051 0.99434 0.5391 0.0
H283 H 0.93063 0.04621 0.49397 0.0
H284 H 0.942 0.97846 0.47455 0.0
H285 H 0.95691 0.05374 0.46491 0.0
H286 H 0.07967 0.04769 0.47531 0.0
H287 H 0.08535 0.94777 0.45076 0.0
H288 H 0.98937 0.89998 0.47251 0.0
C289 C 0.97693 0.12181 0.52745 0.0
C290 C 0.99366 0.1764 0.53428 0.0
C291 C 0.02502 0.18344 0.52495 0.0
C292 C 0.03956 0.1369 0.50919 0.0
C293 C 0.02243 0.08363 0.5029 0.0
C294 C 0.9918 0.07587 0.51169 0.0
C295 C 0.97861 0.01415 0.50214 0.0
C296 C 0.96988 0.97294 0.52697 0.0
C297 C 0.95037 0.02374 0.48274 0.0
C298 C 0.00666 0.98834 0.48666 0.0
C299 C 0.03169 0.02913 0.48735 0.0
C300 C 0.06021 0.0154 0.47459 0.0
C301 C 0.06321 0.95849 0.46072 0.0
C302 C 0.03782 0.916 0.45969 0.0
C303 C 0.00922 0.93141 0.47288 0.0
H304 H 0.4385 0.18168 0.32182 0.0
H305 H 0.4733 0.37068 0.32744 0.0
H306 H 0.48588 0.36888 0.27757 0.0
H307 H 0.49471 0.12639 0.26772 0.0
H308 H 0.46484 0.08016 0.25117 0.0
H309 H 0.46353 0.09277 0.28803 0.0
H310 H 0.40696 0.13612 0.28347 0.0
H311 H 0.40814 0.12402 0.24669 0.0
H312 H 0.39956 0.2001 0.26029 0.0
H313 H 0.48833 0.35121 0.22614 0.0
H314 H 0.47999 0.31945 0.17756 0.0
H315 H 0.44313 0.14246 0.20577 0.0
C316 C 0.44962 0.2221 0.31278 0.0
C317 C 0.45509 0.27618 0.32861 0.0
C318 C 0.46903 0.32857 0.31579 0.0
C319 C 0.47635 0.32793 0.28747 0.0
C320 C 0.46976 0.27447 0.27228 0.0
C321 C 0.45689 0.22235 0.28455 0.0
C322 C 0.44918 0.17308 0.26327 0.0
C323 C 0.46928 0.11464 0.26782 0.0
C324 C 0.41387 0.15747 0.26345 0.0
C325 C 0.45859 0.20651 0.237 0.0
C326 C 0.47089 0.26451 0.24262 0.0
C327 C 0.47921 0.30548 0.22151 0.0
C328 C 0.47433 0.28705 0.19396 0.0
C329 C 0.46099 0.22838 0.18779 0.0
C330 C 0.45368 0.18735 0.20971 0.0
H331 H 0.06119 0.65249 0.30322 0.0
H332 H 0.0068 0.81418 0.32744 0.0
H333 H 0.99882 0.8404 0.27814 0.0
H334 H 0.10201 0.72307 0.25042 0.0
H335 H 0.10247 0.65669 0.2277 0.0
H336 H 0.09986 0.64564 0.2645 0.0
H337 H 0.04881 0.58163 0.25811 0.0
H338 H 0.05132 0.59232 0.22118 0.0
H339 H 0.01622 0.61492 0.23945 0.0
H340 H 0.00224 0.85563 0.22645 0.0
H341 H 0.01686 0.85871 0.177 0.0
H342 H 0.06891 0.68678 0.18704 0.0
C343 C 0.04695 0.69264 0.29824 0.0
C344 C 0.03452 0.73113 0.31926 0.0
C345 C 0.01644 0.78377 0.31174 0.0
C346 C 0.01171 0.79897 0.28377 0.0
C347 C 0.025 0.76081 0.2636 0.0
C348 C 0.04207 0.70846 0.27053 0.0
C349 C 0.05615 0.678 0.24517 0.0
C350 C 0.09225 0.67577 0.24707 0.0
C351 C 0.04229 0.61286 0.24072 0.0
C352 C 0.04528 0.72257 0.22295 0.0
C353 C 0.02699 0.76958 0.23389 0.0
C354 C 0.01611 0.81849 0.21759 0.0
C355 C 0.02459 0.81989 0.18952 0.0
C356 C 0.04393 0.77284 0.17806 0.0
C357 C 0.05377 0.72302 0.19501 0.0
H358 H 0.61463 0.77764 0.68529 0.0
H359 H 0.52461 0.69289 0.66645 0.0
H360 H 0.51042 0.69708 0.71607 0.0
H361 H 0.62836 0.6981 0.74815 0.0
H362 H 0.64628 0.76362 0.76515 0.0
H363 H 0.64857 0.7563 0.7281 0.0
H364 H 0.62356 0.86535 0.72237 0.0
H365 H 0.62134 0.87316 0.75943 0.0
H366 H 0.5864 0.88185 0.7387 0.0
H367 H 0.50736 0.70665 0.76858 0.0
H368 H 0.51504 0.72407 0.81878 0.0
H369 H 0.60691 0.80311 0.80204 0.0
C370 C 0.5918 0.76033 0.69148 0.0
C371 C 0.57074 0.73491 0.67194 0.0
C372 C 0.54112 0.71275 0.68101 0.0
C373 C 0.53287 0.71484 0.70916 0.0
C374 C 0.55442 0.73952 0.72791 0.0
C375 C 0.58319 0.76223 0.71935 0.0
C376 C 0.60243 0.78559 0.7435 0.0
C377 C 0.63322 0.74868 0.74639 0.0
C378 C 0.60879 0.85565 0.74083 0.0
C379 C 0.58017 0.77192 0.76708 0.0
C380 C 0.55257 0.7454 0.75778 0.0
C381 C 0.52882 0.72774 0.77605 0.0
C382 C 0.53341 0.73769 0.80452 0.0
C383 C 0.56153 0.7651 0.8144 0.0
C384 C 0.58507 0.78232 0.79526 0.0
H385 H 0.90869 0.20654 0.68704 0.0
H386 H 0.99547 0.31002 0.67715 0.0
H387 H 0.00551 0.30063 0.72738 0.0
H388 H 0.88524 0.27527 0.74867 0.0
H389 H 0.8688 0.20572 0.76352 0.0
H390 H 0.8703 0.21469 0.72655 0.0
H391 H 0.90113 0.1113 0.72225 0.0
H392 H 0.89957 0.10177 0.75927 0.0
H393 H 0.9369 0.10087 0.74169 0.0
H394 H 0.00327 0.2882 0.7796 0.0
H395 H 0.98956 0.27147 0.82881 0.0
H396 H 0.9045 0.17574 0.80357 0.0
C397 C 0.93012 0.22634 0.69527 0.0
C398 C 0.95131 0.25897 0.6781 0.0
C399 C 0.97894 0.28455 0.68985 0.0
C400 C 0.98485 0.27946 0.71837 0.0
C401 C 0.96305 0.24819 0.73479 0.0
C402 C 0.93639 0.22159 0.72357 0.0
C403 C 0.91576 0.19336 0.74572 0.0
C404 C 0.88311 0.22413 0.74613 0.0
C405 C 0.91321 0.12262 0.74201 0.0
C406 C 0.93452 0.20967 0.77127 0.0
C407 C 0.96185 0.24084 0.76462 0.0
C408 C 0.98212 0.26313 0.78502 0.0
C409 C 0.9741 0.25353 0.81291 0.0
C410 C 0.94601 0.22212 0.82011 0.0
C411 C 0.92627 0.1995 0.79887 0.0
loop_
_geom_bond_atom_site_label_1
_geom_bond_atom_site_label_2
_geom_bond_distance
_geom_bond_site_symmetry_2
_ccdc_geom_bond_type
O0 Cd1 2.300 . S
O0 C7 1.275 . S
Cd1 O0 2.300 . S
Cd1 O9 2.381 . S
Cd1 O10 2.378 . S
O2 Cd3 2.385 . S
O2 C7 1.255 . S
Cd3 O2 2.385 . S
Cd3 O4 2.317 . S
O4 Cd3 2.317 . S
O4 C5 1.232 . S
C5 O4 1.232 . S
C5 O6 1.218 . S
O6 C5 1.218 . S
C7 O0 1.275 . S
C7 O2 1.255 . S
C8 O9 1.258 . S
C8 O10 1.256 . S
O9 Cd1 2.381 . S
O9 C8 1.258 . S
O10 Cd1 2.378 . S
O10 C8 1.256 . S
O11 Cd12 2.300 . S
O11 C18 1.275 . S
Cd12 O11 2.300 . S
Cd12 O20 2.381 . S
Cd12 O21 2.378 . S
O13 Cd14 2.385 . S
O13 C18 1.255 . S
Cd14 O13 2.385 . S
Cd14 O15 2.317 . S
O15 Cd14 2.317 . S
O15 C16 1.232 . S
C16 O15 1.232 . S
C16 O17 1.218 . S
O17 C16 1.218 . S
C18 O11 1.275 . S
C18 O13 1.255 . S
C19 O20 1.258 . S
C19 O21 1.256 . S
O20 Cd12 2.381 . S
O20 C19 1.258 . S
O21 Cd12 2.378 . S
O21 C19 1.256 . S
O22 Cd23 2.300 . S
O22 C29 1.275 . S
Cd23 O22 2.300 . S
Cd23 O31 2.381 . S
Cd23 O32 2.378 . S
O24 Cd25 2.385 . S
O24 C29 1.255 . S
Cd25 O24 2.385 . S
Cd25 O26 2.317 . S
O26 Cd25 2.317 . S
O26 C27 1.232 . S
C27 O26 1.232 . S
C27 O28 1.218 . S
O28 C27 1.218 . S
C29 O22 1.275 . S
C29 O24 1.255 . S
C30 O31 1.258 . S
C30 O32 1.256 . S
O31 Cd23 2.381 . S
O31 C30 1.258 . S
O32 Cd23 2.378 . S
O32 C30 1.256 . S
O33 Cd34 2.300 . S
O33 C40 1.275 . S
Cd34 O33 2.300 . S
Cd34 O42 2.381 . S
Cd34 O43 2.378 . S
O35 Cd36 2.385 . S
O35 C40 1.255 . S
Cd36 O35 2.385 . S
Cd36 O37 2.317 . S
O37 Cd36 2.317 . S
O37 C38 1.232 . S
C38 O37 1.232 . S
C38 O39 1.218 . S
O39 C38 1.218 . S
C40 O33 1.275 . S
C40 O35 1.255 . S
C41 O42 1.258 . S
C41 O43 1.256 . S
O42 Cd34 2.381 . S
O42 C41 1.258 . S
O43 Cd34 2.378 . S
O43 C41 1.256 . S
O44 Cd45 2.300 . S
O44 C51 1.275 . S
Cd45 O44 2.300 . S
Cd45 O53 2.381 . S
Cd45 O54 2.378 . S
O46 Cd47 2.385 . S
O46 C51 1.255 . S
Cd47 O46 2.385 . S
Cd47 O48 2.317 . S
O48 Cd47 2.317 . S
O48 C49 1.232 . S
C49 O48 1.232 . S
C49 O50 1.218 . S
O50 C49 1.218 . S
C51 O44 1.275 . S
C51 O46 1.255 . S
C52 O53 1.258 . S
C52 O54 1.256 . S
O53 Cd45 2.381 . S
O53 C52 1.258 . S
O54 Cd45 2.378 . S
O54 C52 1.256 . S
O55 Cd56 2.300 . S
O55 C62 1.275 . S
Cd56 O55 2.300 . S
Cd56 O64 2.381 . S
Cd56 O65 2.378 . S
O57 Cd58 2.385 . S
O57 C62 1.255 . S
Cd58 O57 2.385 . S
Cd58 O59 2.317 . S
O59 Cd58 2.317 . S
O59 C60 1.232 . S
C60 O59 1.232 . S
C60 O61 1.218 . S
O61 C60 1.218 . S
C62 O55 1.275 . S
C62 O57 1.255 . S
C63 O64 1.258 . S
C63 O65 1.256 . S
O64 Cd56 2.381 . S
O64 C63 1.258 . S
O65 Cd56 2.378 . S
O65 C63 1.256 . S
O66 Cd67 2.300 . S
O66 C73 1.275 . S
Cd67 O66 2.300 . S
Cd67 O75 2.381 . S
Cd67 O76 2.378 . S
O68 Cd69 2.385 . S
O68 C73 1.255 . S
Cd69 O68 2.385 . S
Cd69 O70 2.317 . S
O70 Cd69 2.317 . S
O70 C71 1.232 . S
C71 O70 1.232 . S
C71 O72 1.218 . S
O72 C71 1.218 . S
C73 O66 1.275 . S
C73 O68 1.255 . S
C74 O75 1.258 . S
C74 O76 1.256 . S
O75 Cd67 2.381 . S
O75 C74 1.258 . S
O76 Cd67 2.378 . S
O76 C74 1.256 . S
O77 Cd78 2.300 . S
O77 C84 1.275 . S
Cd78 O77 2.300 . S
Cd78 O86 2.381 . S
Cd78 O87 2.378 . S
O79 Cd80 2.385 . S
O79 C84 1.255 . S
Cd80 O79 2.385 . S
Cd80 O81 2.317 . S
O81 Cd80 2.317 . S
O81 C82 1.232 . S
C82 O81 1.232 . S
C82 O83 1.218 . S
O83 C82 1.218 . S
C84 O77 1.275 . S
C84 O79 1.255 . S
C85 O86 1.258 . S
C85 O87 1.256 . S
O86 Cd78 2.381 . S
O86 C85 1.258 . S
O87 Cd78 2.378 . S
O87 C85 1.256 . S
H88 C100 0.930 . S
H89 C102 0.930 . S
H90 C103 0.930 . S
H91 C107 0.959 . S
H92 C107 0.959 . S
H93 C107 0.961 . S
H94 C108 0.960 . S
H95 C108 0.961 . S
H96 C108 0.959 . S
H97 C111 0.929 . S
H98 C112 0.931 . S
H99 C114 0.930 . S
C100 H88 0.930 . S
C100 C101 1.399 . S
C100 C105 1.399 . S
C101 C100 1.399 . S
C101 C102 1.376 . S
C102 H89 0.930 . S
C102 C101 1.376 . S
C102 C103 1.388 . S
C103 H90 0.930 . S
C103 C102 1.388 . S
C103 C104 1.390 . S
C104 C103 1.390 . S
C104 C105 1.394 . S
C104 C110 1.465 1_545 S
C105 C100 1.399 . S
C105 C104 1.394 . S
C105 C106 1.516 1_545 S
C106 C105 1.516 1_565 S
C106 C107 1.502 . S
C106 C108 1.561 1_565 S
C106 C109 1.526 . S
C107 H91 0.959 . S
C107 H92 0.959 . S
C107 H93 0.961 . S
C107 C106 1.502 . S
C108 H94 0.960 . S
C108 H95 0.961 . S
C108 H96 0.959 . S
C108 C106 1.561 1_545 S
C109 C106 1.526 . S
C109 C110 1.396 . S
C109 C114 1.390 . S
C110 C104 1.465 1_565 S
C110 C109 1.396 . S
C110 C111 1.399 . S
C111 H97 0.929 . S
C111 C110 1.399 . S
C111 C112 1.385 . S
C112 H98 0.931 . S
C112 C111 1.385 . S
C112 C113 1.389 . S
C113 C112 1.389 . S
C113 C114 1.387 . S
C114 H99 0.930 . S
C114 C109 1.390 . S
C114 C113 1.387 . S
H115 C127 0.930 . S
H116 C129 0.930 . S
H117 C130 0.930 . S
H118 C134 0.959 . S
H119 C134 0.959 . S
H120 C134 0.961 . S
H121 C135 0.960 . S
H122 C135 0.961 . S
H123 C135 0.959 . S
H124 C138 0.929 . S
H125 C139 0.931 . S
H126 C141 0.930 . S
C127 H115 0.930 . S
C127 C128 1.399 . S
C127 C132 1.399 . S
C128 C127 1.399 . S
C128 C129 1.376 . S
C129 H116 0.930 . S
C129 C128 1.376 . S
C129 C130 1.388 . S
C130 H117 0.930 . S
C130 C129 1.388 . S
C130 C131 1.390 . S
C131 C130 1.390 . S
C131 C132 1.394 . S
C131 C137 1.465 . S
C132 C127 1.399 . S
C132 C131 1.394 . S
C132 C133 1.516 . S
C133 C132 1.516 . S
C133 C134 1.502 . S
C133 C135 1.561 . S
C133 C136 1.526 . S
C134 H118 0.959 . S
C134 H119 0.959 . S
C134 H120 0.961 . S
C134 C133 1.502 . S
C135 H121 0.960 . S
C135 H122 0.961 . S
C135 H123 0.959 . S
C135 C133 1.561 . S
C136 C133 1.526 . S
C136 C137 1.396 . S
C136 C141 1.390 . S
C137 C131 1.465 . S
C137 C136 1.396 . S
C137 C138 1.399 . S
C138 H124 0.929 . S
C138 C137 1.399 . S
C138 C139 1.385 . S
C139 H125 0.931 . S
C139 C138 1.385 . S
C139 C140 1.389 . S
C140 C139 1.389 . S
C140 C141 1.387 . S
C141 H126 0.930 . S
C141 C136 1.390 . S
C141 C140 1.387 . S
H142 C154 0.930 . S
H143 C156 0.930 . S
H144 C157 0.930 . S
H145 C161 0.959 . S
H146 C161 0.959 . S
H147 C161 0.961 . S
H148 C162 0.960 1_545 S
H149 C162 0.961 . S
H150 C162 0.959 1_545 S
H151 C165 0.929 . S
H152 C166 0.931 . S
H153 C168 0.930 . S
C154 H142 0.930 . S
C154 C155 1.399 . S
C154 C159 1.399 . S
C155 C154 1.399 . S
C155 C156 1.376 . S
C156 H143 0.930 . S
C156 C155 1.376 . S
C156 C157 1.388 . S
C157 H144 0.930 . S
C157 C156 1.388 . S
C157 C158 1.390 . S
C158 C157 1.390 . S
C158 C159 1.394 . S
C158 C164 1.465 . S
C159 C154 1.399 . S
C159 C158 1.394 . S
C159 C160 1.516 1_545 S
C160 C159 1.516 1_565 S
C160 C161 1.502 . S
C160 C162 1.561 . S
C160 C163 1.526 . S
C161 H145 0.959 . S
C161 H146 0.959 . S
C161 H147 0.961 . S
C161 C160 1.502 . S
C162 H148 0.960 1_565 S
C162 H149 0.961 . S
C162 H150 0.959 1_565 S
C162 C160 1.561 . S
C163 C160 1.526 . S
C163 C164 1.396 1_565 S
C163 C168 1.390 . S
C164 C158 1.465 . S
C164 C163 1.396 1_545 S
C164 C165 1.399 . S
C165 H151 0.929 . S
C165 C164 1.399 . S
C165 C166 1.385 1_545 S
C166 H152 0.931 . S
C166 C165 1.385 1_565 S
C166 C167 1.389 . S
C167 C166 1.389 . S
C167 C168 1.387 . S
C168 H153 0.930 . S
C168 C163 1.390 . S
C168 C167 1.387 . S
H169 C181 0.930 . S
H170 C183 0.930 . S
H171 C184 0.930 . S
H172 C188 0.959 . S
H173 C188 0.959 . S
H174 C188 0.961 . S
H175 C189 0.960 . S
H176 C189 0.961 . S
H177 C189 0.959 . S
H178 C192 0.929 . S
H179 C193 0.931 . S
H180 C195 0.930 . S
C181 H169 0.930 . S
C181 C182 1.399 . S
C181 C186 1.399 . S
C182 C181 1.399 . S
C182 C183 1.376 . S
C183 H170 0.930 . S
C183 C182 1.376 . S
C183 C184 1.388 . S
C184 H171 0.930 . S
C184 C183 1.388 . S
C184 C185 1.390 . S
C185 C184 1.390 . S
C185 C186 1.394 . S
C185 C191 1.465 . S
C186 C181 1.399 . S
C186 C185 1.394 . S
C186 C187 1.516 . S
C187 C186 1.516 . S
C187 C188 1.502 . S
C187 C189 1.561 . S
C187 C190 1.526 . S
C188 H172 0.959 . S
C188 H173 0.959 . S
C188 H174 0.961 . S
C188 C187 1.502 . S
C189 H175 0.960 . S
C189 H176 0.961 . S
C189 H177 0.959 . S
C189 C187 1.561 . S
C190 C187 1.526 . S
C190 C191 1.396 . S
C190 C195 1.390 . S
C191 C185 1.465 . S
C191 C190 1.396 . S
C191 C192 1.399 . S
C192 H178 0.929 . S
C192 C191 1.399 . S
C192 C193 1.385 . S
C193 H179 0.931 . S
C193 C192 1.385 . S
C193 C194 1.389 . S
C194 C193 1.389 . S
C194 C195 1.387 . S
C195 H180 0.930 . S
C195 C190 1.390 . S
C195 C194 1.387 . S
H196 C208 0.930 . S
H197 C210 0.930 . S
H198 C211 0.958 . S
H199 C215 0.959 . S
H200 C215 0.959 . S
H201 C215 0.961 . S
H202 C216 0.953 1_554 S
H203 C216 0.962 . S
H204 C216 0.969 . S
H205 C219 0.929 . S
H206 C220 0.931 . S
H207 C222 0.930 . S
C208 H196 0.930 . S
C208 C209 1.399 . S
C208 C213 1.399 . S
C209 C208 1.399 . S
C209 C210 1.376 . S
C210 H197 0.930 . S
C210 C209 1.376 . S
C210 C211 1.361 1_554 S
C211 H198 0.958 . S
C211 C210 1.361 1_556 S
C211 C212 1.390 . S
C212 C211 1.390 . S
C212 C213 1.375 1_556 S
C212 C218 1.481 . S
C213 C208 1.399 . S
C213 C212 1.375 1_554 S
C213 C214 1.516 . S
C214 C213 1.516 . S
C214 C215 1.502 . S
C214 C216 1.557 1_554 S
C214 C217 1.526 1_554 S
C215 H199 0.959 . S
C215 H200 0.959 . S
C215 H201 0.961 . S
C215 C214 1.502 . S
C216 H202 0.953 1_556 S
C216 H203 0.962 . S
C216 H204 0.969 . S
C216 C214 1.557 1_556 S
C217 C214 1.526 1_556 S
C217 C218 1.396 . S
C217 C222 1.390 . S
C218 C212 1.481 . S
C218 C217 1.396 . S
C218 C219 1.399 . S
C219 H205 0.929 . S
C219 C218 1.399 . S
C219 C220 1.385 . S
C220 H206 0.931 . S
C220 C219 1.385 . S
C220 C221 1.389 . S
C221 C220 1.389 . S
C221 C222 1.387 . S
C222 H207 0.930 . S
C222 C217 1.390 . S
C222 C221 1.387 . S
H223 C235 0.930 . S
H224 C237 0.930 . S
H225 C238 0.930 . S
H226 C242 0.959 . S
H227 C242 0.959 . S
H228 C242 0.961 . S
H229 C243 0.960 . S
H230 C243 0.961 . S
H231 C243 0.959 . S
H232 C246 0.929 . S
H233 C247 0.931 . S
H234 C249 0.930 . S
C235 H223 0.930 . S
C235 C236 1.399 . S
C235 C240 1.399 . S
C236 C235 1.399 . S
C236 C237 1.376 . S
C237 H224 0.930 . S
C237 C236 1.376 . S
C237 C238 1.388 . S
C238 H225 0.930 . S
C238 C237 1.388 . S
C238 C239 1.390 . S
C239 C238 1.390 . S
C239 C240 1.394 . S
C239 C245 1.465 1_655 S
C240 C235 1.399 . S
C240 C239 1.394 . S
C240 C241 1.516 1_656 S
C241 C240 1.516 1_454 S
C241 C242 1.502 1_455 S
C241 C243 1.561 . S
C241 C244 1.526 . S
C242 H226 0.959 . S
C242 H227 0.959 . S
C242 H228 0.961 . S
C242 C241 1.502 1_655 S
C243 H229 0.960 . S
C243 H230 0.961 . S
C243 H231 0.959 . S
C243 C241 1.561 . S
C244 C241 1.526 . S
C244 C245 1.396 1_554 S
C244 C249 1.390 . S
C245 C239 1.465 1_455 S
C245 C244 1.396 1_556 S
C245 C246 1.399 . S
C246 H232 0.929 . S
C246 C245 1.399 . S
C246 C247 1.385 1_556 S
C247 H233 0.931 . S
C247 C246 1.385 1_554 S
C247 C248 1.389 . S
C248 C247 1.389 . S
C248 C249 1.387 . S
C249 H234 0.930 . S
C249 C244 1.390 . S
C249 C248 1.387 . S
H250 C262 0.930 . S
H251 C264 0.930 . S
H252 C265 0.930 1_565 S
H253 C269 0.959 . S
H254 C269 0.959 . S
H255 C269 0.961 . S
H256 C270 0.960 . S
H257 C270 0.961 . S
H258 C270 0.959 . S
H259 C273 0.929 . S
H260 C274 0.931 . S
H261 C276 0.930 . S
C262 H250 0.930 . S
C262 C263 1.399 . S
C262 C267 1.399 . S
C263 C262 1.399 . S
C263 C264 1.376 . S
C264 H251 0.930 . S
C264 C263 1.376 . S
C264 C265 1.388 . S
C265 H252 0.930 1_545 S
C265 C264 1.388 . S
C265 C266 1.390 . S
C266 C265 1.390 . S
C266 C267 1.394 . S
C266 C272 1.465 1_545 S
C267 C262 1.399 . S
C267 C266 1.394 . S
C267 C268 1.516 . S
C268 C267 1.516 . S
C268 C269 1.502 . S
C268 C270 1.561 . S
C268 C271 1.526 1_545 S
C269 H253 0.959 . S
C269 H254 0.959 . S
C269 H255 0.961 . S
C269 C268 1.502 . S
C270 H256 0.960 . S
C270 H257 0.961 . S
C270 H258 0.959 . S
C270 C268 1.561 . S
C271 C268 1.526 1_565 S
C271 C272 1.396 . S
C271 C276 1.390 . S
C272 C266 1.465 1_565 S
C272 C271 1.396 . S
C272 C273 1.399 . S
C273 H259 0.929 . S
C273 C272 1.399 . S
C273 C274 1.385 . S
C274 H260 0.931 . S
C274 C273 1.385 . S
C274 C275 1.389 . S
C275 C274 1.389 . S
C275 C276 1.387 . S
C276 H261 0.930 . S
C276 C271 1.390 . S
C276 C275 1.387 . S
H277 C289 0.930 . S
H278 C291 0.930 1_455 S
H279 C292 0.930 . S
H280 C296 0.959 1_565 S
H281 C296 0.959 1_565 S
H282 C296 0.961 . S
H283 C297 0.960 . S
H284 C297 0.961 . S
H285 C297 0.959 1_455 S
H286 C300 0.929 . S
H287 C301 0.931 . S
H288 C303 0.926 1_655 S
C289 H277 0.930 . S
C289 C290 1.399 . S
C289 C294 1.399 . S
C290 C289 1.399 . S
C290 C291 1.376 . S
C291 H278 0.930 1_655 S
C291 C290 1.376 . S
C291 C292 1.388 1_655 S
C292 H279 0.930 . S
C292 C291 1.388 1_455 S
C292 C293 1.390 . S
C293 C292 1.390 . S
C293 C294 1.394 1_455 S
C293 C299 1.465 1_545 S
C294 C289 1.399 . S
C294 C293 1.394 1_655 S
C294 C295 1.516 . S
C295 C294 1.516 . S
C295 C296 1.502 . S
C295 C297 1.561 . S
C295 C298 1.526 1_645 S
C296 H280 0.959 1_545 S
C296 H281 0.959 1_545 S
C296 H282 0.961 . S
C296 C295 1.502 . S
C297 H283 0.960 . S
C297 H284 0.961 . S
C297 H285 0.959 1_655 S
C297 C295 1.561 . S
C298 C295 1.526 1_465 S
C298 C299 1.396 . S
C298 C303 1.390 . S
C299 C293 1.465 1_565 S
C299 C298 1.396 . S
C299 C300 1.399 . S
C300 H286 0.929 . S
C300 C299 1.399 . S
C300 C301 1.385 . S
C301 H287 0.931 . S
C301 C300 1.385 . S
C301 C302 1.389 . S
C302 C301 1.389 . S
C302 C303 1.387 . S
C303 H288 0.926 1_455 S
C303 C298 1.390 . S
C303 C302 1.387 . S
H304 C316 0.930 . S
H305 C318 0.930 . S
H306 C319 0.930 . S
H307 C323 0.959 . S
H308 C323 0.959 . S
H309 C323 0.961 . S
H310 C324 0.960 . S
H311 C324 0.961 . S
H312 C324 0.959 . S
H313 C327 0.929 . S
H314 C328 0.931 . S
H315 C330 0.930 . S
C316 H304 0.930 . S
C316 C317 1.399 . S
C316 C321 1.399 . S
C317 C316 1.399 . S
C317 C318 1.376 . S
C318 H305 0.930 . S
C318 C317 1.376 . S
C318 C319 1.388 . S
C319 H306 0.930 . S
C319 C318 1.388 . S
C319 C320 1.390 . S
C320 C319 1.390 . S
C320 C321 1.394 . S
C320 C326 1.465 . S
C321 C316 1.399 . S
C321 C320 1.394 . S
C321 C322 1.516 . S
C322 C321 1.516 . S
C322 C323 1.502 . S
C322 C324 1.561 . S
C322 C325 1.526 . S
C323 H307 0.959 . S
C323 H308 0.959 . S
C323 H309 0.961 . S
C323 C322 1.502 . S
C324 H310 0.960 . S
C324 H311 0.961 . S
C324 H312 0.959 . S
C324 C322 1.561 . S
C325 C322 1.526 . S
C325 C326 1.396 . S
C325 C330 1.390 . S
C326 C320 1.465 . S
C326 C325 1.396 . S
C326 C327 1.399 . S
C327 H313 0.929 . S
C327 C326 1.399 . S
C327 C328 1.385 . S
C328 H314 0.931 . S
C328 C327 1.385 . S
C328 C329 1.389 . S
C329 C328 1.389 . S
C329 C330 1.387 . S
C330 H315 0.930 . S
C330 C325 1.390 . S
C330 C329 1.387 . S
H331 C343 0.930 . S
H332 C345 0.930 . S
H333 C346 0.930 . S
H334 C350 0.959 . S
H335 C350 0.959 . S
H336 C350 0.961 . S
H337 C351 0.960 . S
H338 C351 0.961 . S
H339 C351 0.959 . S
H340 C354 0.929 . S
H341 C355 0.931 . S
H342 C357 0.930 . S
C343 H331 0.930 . S
C343 C344 1.399 . S
C343 C348 1.399 . S
C344 C343 1.399 . S
C344 C345 1.376 . S
C345 H332 0.930 . S
C345 C344 1.376 . S
C345 C346 1.388 . S
C346 H333 0.930 . S
C346 C345 1.388 . S
C346 C347 1.390 . S
C347 C346 1.390 . S
C347 C348 1.394 . S
C347 C353 1.465 . S
C348 C343 1.399 . S
C348 C347 1.394 . S
C348 C349 1.516 . S
C349 C348 1.516 . S
C349 C350 1.502 . S
C349 C351 1.561 . S
C349 C352 1.526 . S
C350 H334 0.959 . S
C350 H335 0.959 . S
C350 H336 0.961 . S
C350 C349 1.502 . S
C351 H337 0.960 . S
C351 H338 0.961 . S
C351 H339 0.959 . S
C351 C349 1.561 . S
C352 C349 1.526 . S
C352 C353 1.396 . S
C352 C357 1.390 . S
C353 C347 1.465 . S
C353 C352 1.396 . S
C353 C354 1.399 . S
C354 H340 0.929 . S
C354 C353 1.399 . S
C354 C355 1.385 . S
C355 H341 0.931 . S
C355 C354 1.385 . S
C355 C356 1.389 . S
C356 C355 1.389 . S
C356 C357 1.387 . S
C357 H342 0.930 . S
C357 C352 1.390 . S
C357 C356 1.387 . S
H358 C370 0.930 . S
H359 C372 0.930 . S
H360 C373 0.930 . S
H361 C377 0.959 . S
H362 C377 0.959 . S
H363 C377 0.961 . S
H364 C378 0.960 . S
H365 C378 0.961 . S
H366 C378 0.959 . S
H367 C381 0.929 . S
H368 C382 0.931 . S
H369 C384 0.930 . S
C370 H358 0.930 . S
C370 C371 1.399 . S
C370 C375 1.399 . S
C371 C370 1.399 . S
C371 C372 1.376 . S
C372 H359 0.930 . S
C372 C371 1.376 . S
C372 C373 1.388 . S
C373 H360 0.930 . S
C373 C372 1.388 . S
C373 C374 1.390 . S
C374 C373 1.390 . S
C374 C375 1.394 . S
C374 C380 1.465 . S
C375 C370 1.399 . S
C375 C374 1.394 . S
C375 C376 1.516 . S
C376 C375 1.516 . S
C376 C377 1.502 . S
C376 C378 1.561 . S
C376 C379 1.526 . S
C377 H361 0.959 . S
C377 H362 0.959 . S
C377 H363 0.961 . S
C377 C376 1.502 . S
C378 H364 0.960 . S
C378 H365 0.961 . S
C378 H366 0.959 . S
C378 C376 1.561 . S
C379 C376 1.526 . S
C379 C380 1.396 . S
C379 C384 1.390 . S
C380 C374 1.465 . S
C380 C379 1.396 . S
C380 C381 1.399 . S
C381 H367 0.929 . S
C381 C380 1.399 . S
C381 C382 1.385 . S
C382 H368 0.931 . S
C382 C381 1.385 . S
C382 C383 1.389 . S
C383 C382 1.389 . S
C383 C384 1.387 . S
C384 H369 0.930 . S
C384 C379 1.390 . S
C384 C383 1.387 . S
H385 C397 0.930 . S
H386 C399 0.930 . S
H387 C400 0.930 . S
H388 C404 0.959 . S
H389 C404 0.959 . S
H390 C404 0.961 . S
H391 C405 0.960 . S
H392 C405 0.961 . S
H393 C405 0.959 . S
H394 C408 0.929 . S
H395 C409 0.931 . S
H396 C411 0.930 . S
C397 H385 0.930 . S
C397 C398 1.399 . S
C397 C402 1.399 . S
C398 C397 1.399 . S
C398 C399 1.376 . S
C399 H386 0.930 . S
C399 C398 1.376 . S
C399 C400 1.388 . S
C400 H387 0.930 . S
C400 C399 1.388 . S
C400 C401 1.390 . S
C401 C400 1.390 . S
C401 C402 1.394 . S
C401 C407 1.465 . S
C402 C397 1.399 . S
C402 C401 1.394 . S
C402 C403 1.516 . S
C403 C402 1.516 . S
C403 C404 1.502 . S
C403 C405 1.561 . S
C403 C406 1.526 . S
C404 H388 0.959 . S
C404 H389 0.959 . S
C404 H390 0.961 . S
C404 C403 1.502 . S
C405 H391 0.960 . S
C405 H392 0.961 . S
C405 H393 0.959 . S
C405 C403 1.561 . S
C406 C403 1.526 . S
C406 C407 1.396 . S
C406 C411 1.390 . S
C407 C401 1.465 . S
C407 C406 1.396 . S
C407 C408 1.399 . S
C408 H394 0.929 . S
C408 C407 1.399 . S
C408 C409 1.385 . S
C409 H395 0.931 . S
C409 C408 1.385 . S
C409 C410 1.389 . S
C410 C409 1.389 . S
C410 C411 1.387 . S
C411 H396 0.930 . S
C411 C406 1.390 . S
C411 C410 1.387 . S
C101 C5 1.510 . S
C113 C16 1.473 . S
C128 C27 1.516 . S
C140 C38 1.462 . S
C155 C60 1.175 . S
C167 C49 1.288 . S
C182 C71 1.175 . S
C194 C82 1.286 . S
C209 C8 1.627 . S
C221 C52 1.586 . S
C236 C63 1.561 . S
C248 C19 1.630 . S
C263 C30 1.614 . S
C275 C74 1.601 . S
C290 C85 1.586 . S
C302 C41 1.627 . S
C317 C29 1.572 . S
C329 C7 1.555 . S
C344 C40 1.523 . S
C356 C18 1.548 . S
C371 C73 1.521 . S
C383 C51 1.459 . S
C398 C84 1.527 . S
C410 C62 1.452 . S
