# Generated by pormake.
# Topology atn, (4)-cn, num edge types: 1
# Building blocks:
#     Node 0, Type 0, BuildingBlock: KUFVIS_clean_sbu_0, # of connection points: 4
#     Node 1, Type 0, BuildingBlock: KUFVIS_clean_sbu_0, # of connection points: 4
#     Node 2, Type 0, BuildingBlock: KUFVIS_clean_sbu_0, # of connection points: 4
#     Node 3, Type 0, BuildingBlock: KUFVIS_clean_sbu_0, # of connection points: 4
#     Node 4, Type 0, BuildingBlock: KUFVIS_clean_sbu_0, # of connection points: 4
#     Node 5, Type 0, BuildingBlock: KUFVIS_clean_sbu_0, # of connection points: 4
#     Node 6, Type 0, BuildingBlock: KUFVIS_clean_sbu_0, # of connection points: 4
#     Node 7, Type 0, BuildingBlock: KUFVIS_clean_sbu_0, # of connection points: 4
#     Node 8, Type 0, BuildingBlock: KUFVIS_clean_sbu_0, # of connection points: 4
#     Node 9, Type 0, BuildingBlock: KUFVIS_clean_sbu_0, # of connection points: 4
#     Node 10, Type 0, BuildingBlock: KUFVIS_clean_sbu_0, # of connection points: 4
#     Node 11, Type 0, BuildingBlock: KUFVIS_clean_sbu_0, # of connection points: 4
#     Node 12, Type 0, BuildingBlock: KUFVIS_clean_sbu_0, # of connection points: 4
#     Node 13, Type 0, BuildingBlock: KUFVIS_clean_sbu_0, # of connection points: 4
#     Node 14, Type 0, BuildingBlock: KUFVIS_clean_sbu_0, # of connection points: 4
#     Node 15, Type 0, BuildingBlock: KUFVIS_clean_sbu_0, # of connection points: 4
#     Edge 16, Type (0, 0), BuildingBlock: UVAHIK_clean_linker_0, # of connection points: 2
#     Edge 17, Type (0, 0), BuildingBlock: UVAHIK_clean_linker_0, # of connection points: 2
#     Edge 18, Type (0, 0), BuildingBlock: UVAHIK_clean_linker_0, # of connection points: 2
#     Edge 19, Type (0, 0), BuildingBlock: UVAHIK_clean_linker_0, # of connection points: 2
#     Edge 20, Type (0, 0), BuildingBlock: UVAHIK_clean_linker_0, # of connection points: 2
#     Edge 21, Type (0, 0), BuildingBlock: UVAHIK_clean_linker_0, # of connection points: 2
#     Edge 22, Type (0, 0), BuildingBlock: UVAHIK_clean_linker_0, # of connection points: 2
#     Edge 23, Type (0, 0), BuildingBlock: UVAHIK_clean_linker_0, # of connection points: 2
#     Edge 24, Type (0, 0), BuildingBlock: UVAHIK_clean_linker_0, # of connection points: 2
#     Edge 25, Type (0, 0), BuildingBlock: UVAHIK_clean_linker_0, # of connection points: 2
#     Edge 26, Type (0, 0), BuildingBlock: UVAHIK_clean_linker_0, # of connection points: 2
#     Edge 27, Type (0, 0), BuildingBlock: UVAHIK_clean_linker_0, # of connection points: 2
#     Edge 28, Type (0, 0), BuildingBlock: UVAHIK_clean_linker_0, # of connection points: 2
#     Edge 29, Type (0, 0), BuildingBlock: UVAHIK_clean_linker_0, # of connection points: 2
#     Edge 30, Type (0, 0), BuildingBlock: UVAHIK_clean_linker_0, # of connection points: 2
#     Edge 31, Type (0, 0), BuildingBlock: UVAHIK_clean_linker_0, # of connection points: 2
#     Edge 32, Type (0, 0), BuildingBlock: UVAHIK_clean_linker_0, # of connection points: 2
#     Edge 33, Type (0, 0), BuildingBlock: UVAHIK_clean_linker_0, # of connection points: 2
#     Edge 34, Type (0, 0), BuildingBlock: UVAHIK_clean_linker_0, # of connection points: 2
#     Edge 35, Type (0, 0), BuildingBlock: UVAHIK_clean_linker_0, # of connection points: 2
#     Edge 36, Type (0, 0), BuildingBlock: UVAHIK_clean_linker_0, # of connection points: 2
#     Edge 37, Type (0, 0), BuildingBlock: UVAHIK_clean_linker_0, # of connection points: 2
#     Edge 38, Type (0, 0), BuildingBlock: UVAHIK_clean_linker_0, # of connection points: 2
#     Edge 39, Type (0, 0), BuildingBlock: UVAHIK_clean_linker_0, # of connection points: 2
#     Edge 40, Type (0, 0), BuildingBlock: UVAHIK_clean_linker_0, # of connection points: 2
#     Edge 41, Type (0, 0), BuildingBlock: UVAHIK_clean_linker_0, # of connection points: 2
#     Edge 42, Type (0, 0), BuildingBlock: UVAHIK_clean_linker_0, # of connection points: 2
#     Edge 43, Type (0, 0), BuildingBlock: UVAHIK_clean_linker_0, # of connection points: 2
#     Edge 44, Type (0, 0), BuildingBlock: UVAHIK_clean_linker_0, # of connection points: 2
#     Edge 45, Type (0, 0), BuildingBlock: UVAHIK_clean_linker_0, # of connection points: 2
#     Edge 46, Type (0, 0), BuildingBlock: UVAHIK_clean_linker_0, # of connection points: 2
#     Edge 47, Type (0, 0), BuildingBlock: UVAHIK_clean_linker_0, # of connection points: 2
# Relax obj value: 0.055
# Max RMSD: 0.082
# Mean RMSD: 0.082
data_MOF--net-atn--node1-KUFVIS_clean_sbu_0--edge1-UVAHIK_clean_linker_0
_symmetry_space_group_name_H-M    P1
_symmetry_Int_Tables_number       1
_symmetry_cell_setting            triclinic
loop_
_symmetry_equiv_pos_as_xyz
'x, y, z'
_cell_length_a     78.577734
_cell_length_b     78.55935
_cell_length_c     34.483397
_cell_angle_alpha  90.011736
_cell_angle_beta   90.008061
_cell_angle_gamma 90.005438
loop_
_atom_site_label
_atom_site_type_symbol
_atom_site_fract_x
_atom_site_fract_y
_atom_site_fract_z
_atom_type_partial_charge
Mn0 Mn 0.20077 0.37345 0.01214 0.0
Mn1 Mn 0.15893 0.38294 0.01763 0.0
C2 C 0.18724 0.37371 0.0714 0.0
C3 C 0.2225 0.35365 0.00424 0.0
C4 C 0.18644 0.40948 0.0055 0.0
O5 O 0.1927 0.37035 0.95661 0.0
O6 O 0.16465 0.37561 0.96402 0.0
C7 C 0.1445 0.34859 0.00469 0.0
N8 N 0.14598 0.36278 0.02714 0.0
C9 C 0.1265 0.35147 0.0744 0.0
C10 C 0.12467 0.33678 0.05167 0.0
C11 C 0.13375 0.33532 0.01672 0.0
C12 C 0.13732 0.36431 0.06083 0.0
H13 H 0.15147 0.34742 0.97783 0.0
C14 C 0.17756 0.37137 0.94344 0.0
O15 O 0.22495 0.3697 -0.00291 0.0
O16 O 0.20734 0.34912 0.01499 0.0
N17 N 0.15169 0.39002 0.06809 0.0
C18 C 0.15585 0.40443 0.08796 0.0
C19 C 0.14843 0.40748 0.12435 0.0
C20 C 0.13672 0.39579 0.13975 0.0
C21 C 0.13254 0.38112 0.11862 0.0
C22 C 0.14031 0.37877 0.08248 0.0
H23 H 0.16484 0.41346 0.07624 0.0
O24 O 0.20364 0.37548 0.06939 0.0
O25 O 0.17926 0.37182 0.03867 0.0
O26 O 0.19913 0.39938 0.00696 0.0
O27 O 0.17103 0.40453 0.00858 0.0
C28 C 0.12121 0.36859 0.13232 0.0
C29 C 0.11824 0.35374 0.1103 0.0
H30 H 0.11647 0.32648 0.06093 0.0
H31 H 0.13247 0.32399 -0.00089 0.0
H32 H 0.15175 0.41881 0.14052 0.0
H33 H 0.13111 0.39813 0.16795 0.0
H34 H 0.1149 0.37013 0.16002 0.0
H35 H 0.10975 0.34406 0.12149 0.0
Mn36 Mn 0.62568 0.20135 0.00584 0.0
Mn37 Mn 0.61554 0.15966 0.01139 0.0
C38 C 0.62508 0.18794 0.06527 0.0
C39 C 0.64589 0.22271 -0.00261 0.0
C40 C 0.58961 0.18759 -0.0024 0.0
O41 O 0.62862 0.19303 0.95031 0.0
O42 O 0.62378 0.16491 0.95833 0.0
C43 C 0.64969 0.14436 0.00176 0.0
N44 N 0.63521 0.14632 0.02298 0.0
C45 C 0.64528 0.12684 0.07169 0.0
C46 C 0.66026 0.12453 0.05024 0.0
C47 C 0.66249 0.13336 0.01518 0.0
C48 C 0.63294 0.1379 0.05676 0.0
H49 H 0.65145 0.15114 0.97481 0.0
C50 C 0.62792 0.17778 0.93753 0.0
O51 O 0.62988 0.22542 0.99038 0.0
O52 O 0.65016 0.20752 0.00847 0.0
N53 N 0.60752 0.15295 0.0615 0.0
C54 C 0.59296 0.15764 0.08011 0.0
C55 C 0.58917 0.15055 0.11648 0.0
C56 C 0.60029 0.13862 0.13314 0.0
C57 C 0.61515 0.13391 0.11332 0.0
C58 C 0.61825 0.14139 0.07715 0.0
H59 H 0.58436 0.1668 0.06742 0.0
O60 O 0.62374 0.20438 0.06311 0.0
O61 O 0.62683 0.17988 0.03259 0.0
O62 O 0.59973 0.20019 0.00087 0.0
O63 O 0.59434 0.17209 -7e-05 0.0
C64 C 0.62715 0.12235 0.12835 0.0
C65 C 0.64224 0.11887 0.10764 0.0
H66 H 0.6702 0.11612 0.06059 0.0
H67 H 0.67406 0.13171 -0.00143 0.0
H68 H 0.5777 0.15428 0.13164 0.0
H69 H 0.59738 0.13325 0.16131 0.0
H70 H 0.62503 0.11627 0.15612 0.0
H71 H 0.65153 0.1102 0.11986 0.0
Mn72 Mn 0.79352 0.62658 0.00803 0.0
Mn73 Mn 0.83541 0.61743 0.01469 0.0
C74 C 0.80703 0.62757 0.06735 0.0
C75 C 0.77186 0.64637 -0.00177 0.0
C76 C 0.80804 0.59053 0.00409 0.0
O77 O 0.8017 0.6287 0.95227 0.0
O78 O 0.82985 0.6241 0.96055 0.0
C79 C 0.84978 0.65166 2e-05 0.0
N80 N 0.84824 0.63775 0.02331 0.0
C81 C 0.86719 0.64987 0.07071 0.0
C82 C 0.86907 0.66428 0.0471 0.0
C83 C 0.8603 0.66519 0.01165 0.0
C84 C 0.85664 0.63673 0.05746 0.0
H85 H 0.84302 0.65243 0.97281 0.0
C86 C 0.81692 0.62777 0.93943 0.0
O87 O 0.7693 0.63022 0.99258 0.0
O88 O 0.78704 0.65097 0.00856 0.0
N89 N 0.84245 0.61098 0.06577 0.0
C90 C 0.8383 0.59677 0.08635 0.0
C91 C 0.84544 0.59425 0.12324 0.0
C92 C 0.85683 0.60629 0.13848 0.0
C93 C 0.86102 0.62075 0.11663 0.0
C94 C 0.8536 0.62253 0.07993 0.0
H95 H 0.82951 0.58749 0.07482 0.0
O96 O 0.79064 0.62569 0.06558 0.0
O97 O 0.81497 0.62873 0.03443 0.0
O98 O 0.79524 0.60052 0.00518 0.0
O99 O 0.82341 0.59569 0.00666 0.0
C100 C 0.87196 0.63366 0.13021 0.0
C101 C 0.87504 0.6482 0.10726 0.0
H102 H 0.87706 0.67479 0.0561 0.0
H103 H 0.86161 0.67631 0.99337 0.0
H104 H 0.84211 0.58308 0.13997 0.0
H105 H 0.86217 0.6044 0.16713 0.0
H106 H 0.87782 0.63267 0.15855 0.0
H107 H 0.88324 0.65817 0.11829 0.0
Mn108 Mn 0.37215 0.79578 0.00529 0.0
Mn109 Mn 0.37849 0.83775 0.01995 0.0
C110 C 0.37222 0.80673 0.0674 0.0
C111 C 0.35326 0.77363 0.99288 0.0
C112 C 0.4069 0.81291 0.00026 0.0
O113 O 0.3682 0.806 0.95177 0.0
O114 O 0.37018 0.83388 0.96641 0.0
C115 C 0.34273 0.84942 0.0147 0.0
N116 N 0.35757 0.84827 0.03496 0.0
C117 C 0.34573 0.86401 0.08839 0.0
C118 C 0.33036 0.86547 0.06799 0.0
C119 C 0.32885 0.85809 0.03104 0.0
C120 C 0.35912 0.8552 0.07066 0.0
H121 H 0.34149 0.84374 0.98632 0.0
C122 C 0.367 0.82172 0.94276 0.0
O123 O 0.36937 0.7721 0.98503 0.0
O124 O 0.34822 0.78802 0.00719 0.0
N125 N 0.38626 0.84332 0.07103 0.0
C126 C 0.40173 0.84026 0.08746 0.0
C127 C 0.40523 0.84659 0.12471 0.0
C128 C 0.39286 0.85612 0.14452 0.0
C129 C 0.37709 0.85925 0.12689 0.0
C130 C 0.37436 0.8527 0.08964 0.0
H131 H 0.41134 0.83303 0.0723 0.0
O132 O 0.37472 0.79059 0.06186 0.0
O133 O 0.36955 0.81579 0.0366 0.0
O134 O 0.39786 0.7994 9e-05 0.0
O135 O 0.40074 0.82779 0.00582 0.0
C136 C 0.36392 0.8685 0.14493 0.0
C137 C 0.34822 0.87079 0.12581 0.0
H138 H 0.31961 0.87212 0.08052 0.0
H139 H 0.317 0.85909 0.01519 0.0
H140 H 0.41744 0.84413 0.13811 0.0
H141 H 0.39559 0.86092 0.17331 0.0
H142 H 0.36568 0.8738 0.17365 0.0
H143 H 0.33811 0.87771 0.14021 0.0
Mn144 Mn 0.20086 0.62677 0.98916 0.0
Mn145 Mn 0.15898 0.61781 0.98028 0.0
C146 C 0.1881 0.6272 0.92897 0.0
C147 C 0.22284 0.64616 -0.00103 0.0
C148 C 0.18604 0.59075 0.99122 0.0
O149 O 0.19221 0.62951 0.04433 0.0
O150 O 0.16437 0.6239 0.03485 0.0
C151 C 0.14507 0.6521 -0.00345 0.0
N152 N 0.14641 0.63836 0.97267 0.0
C153 C 0.12709 0.65081 0.92657 0.0
C154 C 0.12542 0.66506 0.95078 0.0
C155 C 0.13449 0.66572 0.98586 0.0
C156 C 0.13779 0.63761 0.93879 0.0
H157 H 0.15201 0.65266 0.02355 0.0
C158 C 0.17695 0.62805 0.05652 0.0
O159 O 0.22495 0.63004 0.00571 0.0
O160 O 0.20784 0.65102 0.98779 0.0
N161 N 0.15187 0.61191 0.92893 0.0
C162 C 0.15579 0.59781 0.90769 0.0
C163 C 0.14831 0.59553 0.87108 0.0
C164 C 0.13671 0.60764 0.8569 0.0
C165 C 0.13274 0.62195 0.87946 0.0
C166 C 0.14061 0.62355 0.91571 0.0
H167 H 0.16466 0.58845 0.91849 0.0
O168 O 0.20443 0.62519 0.9321 0.0
O169 O 0.17967 0.62899 0.96118 0.0
O170 O 0.19878 0.60079 0.99286 0.0
O171 O 0.17074 0.5959 0.98699 0.0
C172 C 0.1215 0.63483 0.86713 0.0
C173 C 0.11875 0.64929 0.89056 0.0
H174 H 0.1173 0.67561 0.94259 0.0
H175 H 0.13333 0.67671 0.00461 0.0
H176 H 0.15146 0.58447 0.85381 0.0
H177 H 0.13104 0.60589 0.82855 0.0
H178 H 0.11506 0.63385 0.83945 0.0
H179 H 0.11031 0.65925 0.88044 0.0
Mn180 Mn 0.37161 0.20368 0.99154 0.0
Mn181 Mn 0.37992 0.16177 0.98161 0.0
C182 C 0.36934 0.19098 0.93158 0.0
C183 C 0.35235 0.22532 0.00531 0.0
C184 C 0.40724 0.1887 0.99282 0.0
O185 O 0.37065 0.19471 0.04694 0.0
O186 O 0.37305 0.1665 0.03583 0.0
C187 C 0.34561 0.1473 0.99448 0.0
N188 N 0.35957 0.14922 0.97151 0.0
C189 C 0.34765 0.13092 0.92256 0.0
C190 C 0.33317 0.12868 0.94578 0.0
C191 C 0.33213 0.13694 0.98185 0.0
C192 C 0.36071 0.14132 0.93677 0.0
H193 H 0.34476 0.15364 0.02221 0.0
C194 C 0.37043 0.17923 0.05832 0.0
O195 O 0.36863 0.22766 0.00915 0.0
O196 O 0.34733 0.21035 0.99438 0.0
N197 N 0.38646 0.15564 0.92997 0.0
C198 C 0.40071 0.16013 0.90991 0.0
C199 C 0.40335 0.15354 0.87253 0.0
C200 C 0.39138 0.14233 0.85627 0.0
C201 C 0.37687 0.13781 0.87757 0.0
C202 C 0.37497 0.14471 0.91477 0.0
H203 H 0.40995 0.16874 0.92224 0.0
O204 O 0.37127 0.20734 0.93417 0.0
O205 O 0.36877 0.18265 0.96403 0.0
O206 O 0.39758 0.2017 0.99107 0.0
O207 O 0.40179 0.1734 0.99124 0.0
C208 C 0.36404 0.12703 0.863 0.0
C209 C 0.34944 0.12358 0.88548 0.0
H210 H 0.3227 0.12079 0.93604 0.0
H211 H 0.32097 0.13534 -0.00015 0.0
H212 H 0.41456 0.15712 0.85623 0.0
H213 H 0.39338 0.1374 0.82729 0.0
H214 H 0.36514 0.12156 0.83426 0.0
H215 H 0.33953 0.11551 0.8737 0.0
Mn216 Mn 0.79628 0.37255 0.9862 0.0
Mn217 Mn 0.83804 0.38222 0.97874 0.0
C218 C 0.80975 0.37101 0.92688 0.0
C219 C 0.7749 0.35262 -0.00252 0.0
C220 C 0.81027 0.40888 0.98667 0.0
O221 O 0.80448 0.37124 0.04202 0.0
O222 O 0.8325 0.37633 0.03338 0.0
C223 C 0.85282 0.34845 -0.00346 0.0
N224 N 0.85116 0.36195 0.97206 0.0
C225 C 0.87042 0.34933 0.92604 0.0
C226 C 0.87242 0.33535 0.95088 0.0
C227 C 0.86355 0.33489 0.98624 0.0
C228 C 0.85965 0.36253 0.93798 0.0
H229 H 0.84598 0.34802 0.02369 0.0
C230 C 0.81968 0.37259 0.05476 0.0
O231 O 0.77214 0.36881 0.00197 0.0
O232 O 0.79013 0.34808 0.98738 0.0
N233 N 0.84513 0.38791 0.92723 0.0
C234 C 0.84088 0.40173 0.90539 0.0
C235 C 0.84813 0.40376 0.86846 0.0
C236 C 0.85975 0.39164 0.85447 0.0
C237 C 0.86405 0.37761 0.8776 0.0
C238 C 0.8565 0.37631 0.91428 0.0
H239 H 0.83191 0.41106 0.91591 0.0
O240 O 0.79334 0.37267 0.92867 0.0
O241 O 0.81776 0.37034 0.9598 0.0
O242 O 0.79764 0.39866 0.98716 0.0
O243 O 0.82572 0.40391 0.98449 0.0
C244 C 0.87521 0.36464 0.86532 0.0
C245 C 0.87839 0.35052 0.88952 0.0
H246 H 0.8806 0.32481 0.94293 0.0
H247 H 0.86496 0.3241 0.00547 0.0
H248 H 0.84471 0.4146 0.85074 0.0
H249 H 0.86517 0.39315 0.82579 0.0
H250 H 0.88118 0.36527 0.83705 0.0
H251 H 0.88678 0.3405 0.8795 0.0
Mn252 Mn 0.62517 0.79956 0.98709 0.0
Mn253 Mn 0.61721 0.84167 0.97926 0.0
C254 C 0.62624 0.81262 0.92727 0.0
C255 C 0.64422 0.77732 -0.00235 0.0
C256 C 0.58952 0.81517 0.98985 0.0
O257 O 0.62769 0.80794 0.04256 0.0
O258 O 0.62343 0.83607 0.03362 0.0
C259 C 0.65181 0.85493 0.99481 0.0
N260 N 0.63794 0.85387 0.97124 0.0
C261 C 0.65056 0.87299 0.92494 0.0
C262 C 0.66493 0.87438 0.94883 0.0
C263 C 0.66558 0.86526 0.98385 0.0
C264 C 0.63721 0.86253 0.93742 0.0
H265 H 0.65235 0.84795 0.02176 0.0
C266 C 0.62695 0.82321 0.05505 0.0
O267 O 0.628 0.77535 0.00339 0.0
O268 O 0.64932 0.79224 0.98656 0.0
N269 N 0.61123 0.84892 0.92807 0.0
C270 C 0.59701 0.8452 0.90707 0.0
C271 C 0.59474 0.85272 0.87048 0.0
C272 C 0.60699 0.86411 0.85609 0.0
C273 C 0.62143 0.86785 0.87839 0.0
C274 C 0.62302 0.85996 0.91461 0.0
H275 H 0.58753 0.8365 0.91807 0.0
O276 O 0.62395 0.7963 0.92982 0.0
O277 O 0.62792 0.82081 0.95981 0.0
O278 O 0.59919 0.80211 0.99005 0.0
O279 O 0.59509 0.83037 0.9866 0.0
C280 C 0.63445 0.87887 0.86583 0.0
C281 C 0.64905 0.88137 0.88897 0.0
H282 H 0.6756 0.88229 0.94043 0.0
H283 H 0.67667 0.8662 0.00236 0.0
H284 H 0.58357 0.84974 0.85342 0.0
H285 H 0.60523 0.86981 0.82777 0.0
H286 H 0.63348 0.88532 0.83817 0.0
H287 H 0.65912 0.88962 0.87865 0.0
Mn288 Mn 0.70468 0.8725 0.50424 0.0
Mn289 Mn 0.66292 0.88154 0.51455 0.0
C290 C 0.69214 0.87113 0.56455 0.0
C291 C 0.72609 0.85278 0.4917 0.0
C292 C 0.6901 0.90852 0.50251 0.0
O293 O 0.69561 0.87078 0.44917 0.0
O294 O 0.66758 0.87507 0.45984 0.0
C295 C 0.64834 0.84735 0.50045 0.0
N296 N 0.65026 0.86118 0.52387 0.0
C297 C 0.63215 0.84886 0.57264 0.0
C298 C 0.62989 0.83453 0.54893 0.0
C299 C 0.63805 0.83377 0.51271 0.0
C300 C 0.64246 0.86206 0.55875 0.0
H301 H 0.65464 0.84669 0.47265 0.0
C302 C 0.68019 0.87161 0.4376 0.0
O303 O 0.7286 0.86897 0.48661 0.0
O304 O 0.7111 0.84811 0.50322 0.0
N305 N 0.65674 0.8878 0.56634 0.0
C306 C 0.66119 0.90195 0.5868 0.0
C307 C 0.65466 0.90434 0.62432 0.0
C308 C 0.64355 0.89221 0.6403 0.0
C309 C 0.63904 0.87782 0.61856 0.0
C310 C 0.64585 0.87618 0.58122 0.0
H311 H 0.66976 0.91129 0.5747 0.0
O312 O 0.7085 0.87298 0.56151 0.0
O313 O 0.68368 0.87018 0.53227 0.0
O314 O 0.70293 0.89855 0.50253 0.0
O315 O 0.67478 0.90333 0.50593 0.0
C316 C 0.62836 0.86484 0.63283 0.0
C317 C 0.62492 0.85037 0.60988 0.0
H318 H 0.62206 0.82397 0.5584 0.0
H319 H 0.63644 0.82271 0.49434 0.0
H320 H 0.65824 0.91546 0.64095 0.0
H321 H 0.63869 0.894 0.66941 0.0
H322 H 0.62296 0.86573 0.66167 0.0
H323 H 0.61691 0.84035 0.62142 0.0
Mn324 Mn 0.12591 0.70372 0.50575 0.0
Mn325 Mn 0.11815 0.66161 0.51483 0.0
C326 C 0.12883 0.69068 0.56517 0.0
C327 C 0.14464 0.72589 0.49225 0.0
C328 C 0.09026 0.6882 0.50867 0.0
O329 O 0.12669 0.69532 0.45009 0.0
O330 O 0.12289 0.66716 0.45961 0.0
C331 C 0.15227 0.64834 0.49454 0.0
N332 N 0.13909 0.64945 0.52005 0.0
C333 C 0.15325 0.6309 0.56525 0.0
C334 C 0.16693 0.62947 0.53933 0.0
C335 C 0.16644 0.63826 0.50387 0.0
C336 C 0.13942 0.64105 0.55427 0.0
H337 H 0.15197 0.65512 0.4673 0.0
C338 C 0.12574 0.68004 0.43773 0.0
O339 O 0.12829 0.72791 0.48905 0.0
O340 O 0.15003 0.71094 0.50241 0.0
N341 N 0.11358 0.65442 0.56686 0.0
C342 C 0.09986 0.658 0.58963 0.0
C343 C 0.09867 0.65068 0.62667 0.0
C344 C 0.11151 0.63966 0.63982 0.0
C345 C 0.12541 0.63602 0.61572 0.0
C346 C 0.12586 0.64361 0.57898 0.0
H347 H 0.08996 0.66649 0.57973 0.0
O348 O 0.12651 0.70701 0.56308 0.0
O349 O 0.12942 0.68249 0.53246 0.0
O350 O 0.09994 0.70122 0.50697 0.0
O351 O 0.09586 0.67297 0.51073 0.0
C352 C 0.13904 0.62549 0.62707 0.0
C353 C 0.15295 0.62294 0.60186 0.0
H354 H 0.17793 0.62178 0.54652 0.0
H355 H 0.17699 0.63729 0.48381 0.0
H356 H 0.08791 0.65357 0.64513 0.0
H357 H 0.11064 0.63418 0.66858 0.0
H358 H 0.13908 0.61951 0.65538 0.0
H359 H 0.16347 0.61502 0.61115 0.0
Mn360 Mn 0.29873 0.12558 0.5103 0.0
Mn361 Mn 0.34038 0.11602 0.51919 0.0
C362 C 0.31107 0.12427 0.57095 0.0
C363 C 0.27734 0.14572 0.50169 0.0
C364 C 0.31311 0.09005 0.49945 0.0
O365 O 0.30813 0.12944 0.45583 0.0
O366 O 0.3362 0.126 0.46735 0.0
C367 C 0.35569 0.15044 0.51687 0.0
N368 N 0.35329 0.13534 0.5355 0.0
C369 C 0.37175 0.14383 0.58772 0.0
C370 C 0.37449 0.15944 0.56901 0.0
C371 C 0.36638 0.16277 0.53349 0.0
C372 C 0.36101 0.13201 0.5697 0.0
H373 H 0.34949 0.15304 0.48955 0.0
C374 C 0.32372 0.1301 0.44531 0.0
O375 O 0.27491 0.12982 0.49298 0.0
O376 O 0.29231 0.14994 0.51429 0.0
N377 N 0.34591 0.10653 0.56871 0.0
C378 C 0.34076 0.0915 0.58455 0.0
C379 C 0.34703 0.08662 0.62103 0.0
C380 C 0.35862 0.09716 0.64066 0.0
C381 C 0.36376 0.11255 0.62371 0.0
C382 C 0.35708 0.11675 0.58732 0.0
H383 H 0.33189 0.08332 0.56956 0.0
O384 O 0.2947 0.12278 0.56721 0.0
O385 O 0.31961 0.12655 0.53918 0.0
O386 O 0.30028 0.09978 0.50355 0.0
O387 O 0.32848 0.09508 0.50286 0.0
C388 C 0.37504 0.124 0.64179 0.0
C389 C 0.37897 0.13967 0.6239 0.0
H390 H 0.38266 0.16902 0.58182 0.0
H391 H 0.36837 0.17481 0.51896 0.0
H392 H 0.34296 0.07475 0.63397 0.0
H393 H 0.36337 0.09339 0.66887 0.0
H394 H 0.38054 0.12102 0.66978 0.0
H395 H 0.38738 0.14853 0.63849 0.0
Mn396 Mn 0.87297 0.29755 0.50494 0.0
Mn397 Mn 0.88354 0.33914 0.51012 0.0
C398 C 0.8739 0.31104 0.5643 0.0
C399 C 0.8526 0.27629 0.49725 0.0
C400 C 0.90915 0.31095 0.49601 0.0
O401 O 0.86987 0.30584 0.44941 0.0
O402 O 0.87505 0.33392 0.45723 0.0
C403 C 0.84951 0.35478 0.50103 0.0
N404 N 0.86404 0.35268 0.52202 0.0
C405 C 0.8543 0.37223 0.57095 0.0
C406 C 0.83927 0.37469 0.54974 0.0
C407 C 0.83685 0.36589 0.51469 0.0
C408 C 0.8665 0.36108 0.55579 0.0
H409 H 0.8476 0.34803 0.4741 0.0
C410 C 0.87068 0.32108 0.43656 0.0
O411 O 0.86856 0.27349 0.48977 0.0
O412 O 0.84846 0.29154 0.50817 0.0
N413 N 0.8918 0.3458 0.56008 0.0
C414 C 0.90636 0.34096 0.57846 0.0
C415 C 0.91033 0.348 0.6148 0.0
C416 C 0.89936 0.36002 0.63168 0.0
C417 C 0.88449 0.36486 0.61209 0.0
C418 C 0.88122 0.35745 0.57593 0.0
H419 H 0.91484 0.33173 0.56562 0.0
O420 O 0.87512 0.29459 0.5622 0.0
O421 O 0.8721 0.31906 0.5316 0.0
O422 O 0.89891 0.29846 0.49947 0.0
O423 O 0.90459 0.3265 0.49834 0.0
C424 C 0.87262 0.37651 0.62738 0.0
C425 C 0.85751 0.38015 0.60689 0.0
H426 H 0.82943 0.38317 0.56028 0.0
H427 H 0.82525 0.36766 0.49826 0.0
H428 H 0.9218 0.34415 0.62978 0.0
H429 H 0.9024 0.36533 0.65983 0.0
H430 H 0.87487 0.38254 0.65516 0.0
H431 H 0.84834 0.38888 0.61931 0.0
Mn432 Mn 0.70251 0.12648 0.48757 0.0
Mn433 Mn 0.66071 0.11713 0.47915 0.0
C434 C 0.6893 0.12825 0.42802 0.0
C435 C 0.72398 0.1462 0.49977 0.0
C436 C 0.68826 0.09027 0.48741 0.0
O437 O 0.6941 0.12769 0.54321 0.0
O438 O 0.66606 0.12295 0.53393 0.0
C439 C 0.64607 0.15099 0.49675 0.0
N440 N 0.64775 0.13749 0.47225 0.0
C441 C 0.62872 0.15023 0.4259 0.0
C442 C 0.62671 0.16421 0.45075 0.0
C443 C 0.63545 0.16461 0.48628 0.0
C444 C 0.63939 0.13697 0.438 0.0
H445 H 0.65281 0.15136 0.52404 0.0
C446 C 0.67884 0.1265 0.55561 0.0
O447 O 0.7266 0.12997 0.50399 0.0
O448 O 0.70885 0.1509 0.48932 0.0
N449 N 0.6538 0.11151 0.42746 0.0
C450 C 0.65805 0.09768 0.40567 0.0
C451 C 0.65092 0.0957 0.3686 0.0
C452 C 0.63942 0.10789 0.35442 0.0
C453 C 0.63512 0.12194 0.3775 0.0
C454 C 0.64255 0.12318 0.41432 0.0
H455 H 0.66692 0.08829 0.41635 0.0
O456 O 0.70569 0.1265 0.43012 0.0
O457 O 0.68115 0.1289 0.46076 0.0
O458 O 0.70096 0.10039 0.48809 0.0
O459 O 0.67286 0.09535 0.4851 0.0
C460 C 0.62407 0.13496 0.36505 0.0
C461 C 0.62088 0.1491 0.38923 0.0
H462 H 0.61861 0.1748 0.44267 0.0
H463 H 0.63402 0.1754 0.50552 0.0
H464 H 0.65433 0.08484 0.35093 0.0
H465 H 0.63409 0.10641 0.32564 0.0
H466 H 0.6182 0.13438 0.33666 0.0
H467 H 0.61258 0.15916 0.37908 0.0
Mn468 Mn 0.87276 0.69946 0.48893 0.0
Mn469 Mn 0.88255 0.6577 0.48273 0.0
C470 C 0.87347 0.68616 0.42929 0.0
C471 C 0.85286 0.72116 0.49647 0.0
C472 C 0.9088 0.68531 0.49695 0.0
O473 O 0.86922 0.69106 0.54417 0.0
O474 O 0.8746 0.66305 0.53606 0.0
C475 C 0.84825 0.64284 0.49335 0.0
N476 N 0.86263 0.64461 0.47171 0.0
C477 C 0.85203 0.62528 0.42326 0.0
C478 C 0.83714 0.62316 0.44513 0.0
C479 C 0.83523 0.63202 0.48027 0.0
C480 C 0.86461 0.63617 0.43785 0.0
H481 H 0.84672 0.64963 0.52036 0.0
C482 C 0.87012 0.67582 0.55687 0.0
O483 O 0.86884 0.72357 0.5044 0.0
O484 O 0.84842 0.70604 0.48522 0.0
N485 N 0.89021 0.65086 0.43241 0.0
C486 C 0.90473 0.65535 0.41339 0.0
C487 C 0.90822 0.64821 0.37691 0.0
C488 C 0.89684 0.63644 0.36055 0.0
C489 C 0.88203 0.63195 0.38079 0.0
C490 C 0.87923 0.63946 0.41705 0.0
H491 H 0.91353 0.66438 0.42585 0.0
O492 O 0.87519 0.70255 0.43175 0.0
O493 O 0.87143 0.67805 0.46181 0.0
O494 O 0.89864 0.69793 0.49517 0.0
O495 O 0.90397 0.66988 0.49337 0.0
C496 C 0.86978 0.62055 0.36608 0.0
C497 C 0.85476 0.61727 0.38722 0.0
H498 H 0.82703 0.6149 0.43505 0.0
H499 H 0.82373 0.63051 0.49722 0.0
H500 H 0.91966 0.65178 0.36143 0.0
H501 H 0.89952 0.63104 0.33229 0.0
H502 H 0.87167 0.61443 0.33827 0.0
H503 H 0.84529 0.60874 0.37525 0.0
Mn504 Mn 0.29732 0.87234 0.48617 0.0
Mn505 Mn 0.3396 0.87936 0.48081 0.0
C506 C 0.31117 0.87075 0.42734 0.0
C507 C 0.27479 0.85354 0.49539 0.0
C508 C 0.3135 0.90752 0.49044 0.0
O509 O 0.30505 0.87017 0.5424 0.0
O510 O 0.33342 0.87265 0.53432 0.0
C511 C 0.3518 0.84423 0.49457 0.0
N512 N 0.35117 0.85834 0.47168 0.0
C513 C 0.36917 0.84522 0.42378 0.0
C514 C 0.3701 0.83058 0.44695 0.0
C515 C 0.36134 0.83008 0.48245 0.0
C516 C 0.35949 0.85894 0.4374 0.0
H517 H 0.34505 0.84377 0.52183 0.0
C518 C 0.32028 0.86991 0.5554 0.0
O519 O 0.27287 0.8698 0.50079 0.0
O520 O 0.28986 0.84828 0.48586 0.0
N521 N 0.34722 0.88571 0.4301 0.0
C522 C 0.34443 0.9005 0.41044 0.0
C523 C 0.35203 0.9029 0.37398 0.0
C524 C 0.36249 0.89015 0.35825 0.0
C525 C 0.3653 0.87511 0.37919 0.0
C526 C 0.35749 0.87348 0.41548 0.0
H527 H 0.33643 0.91036 0.42242 0.0
O528 O 0.29484 0.87314 0.42843 0.0
O529 O 0.31874 0.86927 0.46054 0.0
O530 O 0.30025 0.89819 0.48819 0.0
O531 O 0.32869 0.90171 0.48935 0.0
C532 C 0.37539 0.86161 0.36527 0.0
C533 C 0.37726 0.84664 0.38747 0.0
H534 H 0.37739 0.81962 0.43765 0.0
H535 H 0.36193 0.8188 0.50041 0.0
H536 H 0.34979 0.91454 0.358 0.0
H537 H 0.36821 0.892 0.32999 0.0
H538 H 0.38165 0.86252 0.33737 0.0
H539 H 0.38486 0.83625 0.37621 0.0
Mn540 Mn 0.12729 0.29523 0.49369 0.0
Mn541 Mn 0.11818 0.33704 0.48456 0.0
C542 C 0.12879 0.30808 0.43377 0.0
C543 C 0.14695 0.27377 0.50621 0.0
C544 C 0.09134 0.3097 0.49578 0.0
O545 O 0.12873 0.30406 0.54912 0.0
O546 O 0.12493 0.33221 0.53891 0.0
C547 C 0.15233 0.35179 0.49807 0.0
N548 N 0.13841 0.34986 0.47496 0.0
C549 C 0.15033 0.3683 0.42631 0.0
C550 C 0.16475 0.37057 0.4497 0.0
C551 C 0.16576 0.36225 0.4857 0.0
C552 C 0.13729 0.35782 0.44029 0.0
H553 H 0.15317 0.34538 0.52571 0.0
C554 C 0.12817 0.31946 0.56093 0.0
O555 O 0.13074 0.27124 0.51081 0.0
O556 O 0.15169 0.28882 0.49522 0.0
N557 N 0.11164 0.34335 0.43304 0.0
C558 C 0.09745 0.33882 0.41279 0.0
C559 C 0.09484 0.34548 0.37547 0.0
C560 C 0.10678 0.35678 0.35944 0.0
C561 C 0.12122 0.36135 0.38095 0.0
C562 C 0.12309 0.3544 0.41811 0.0
H563 H 0.08825 0.33012 0.42492 0.0
O564 O 0.12709 0.29169 0.43634 0.0
O565 O 0.1296 0.31639 0.46628 0.0
O566 O 0.10126 0.29686 0.4945 0.0
O567 O 0.09648 0.32509 0.49365 0.0
C568 C 0.13403 0.3722 0.36661 0.0
C569 C 0.14857 0.37568 0.38927 0.0
H570 H 0.1752 0.37853 0.44014 0.0
H571 H 0.17689 0.36387 0.50382 0.0
H572 H 0.08369 0.34186 0.35901 0.0
H573 H 0.10482 0.36174 0.33048 0.0
H574 H 0.13297 0.37771 0.3379 0.0
H575 H 0.15847 0.38382 0.37767 0.0
C576 C 0.20531 0.56525 -0.00168 0.0
C577 C 0.18896 0.57211 0.99231 0.0
C578 C 0.20789 0.5476 -0.00271 0.0
C579 C 0.18856 0.50859 0.95794 0.0
H580 H 0.21231 0.48472 0.04016 0.0
C581 C 0.17584 0.4388 0.99153 0.0
C582 C 0.18952 0.42794 0.00029 0.0
C583 C 0.17839 0.45624 0.9873 0.0
C584 C 0.20592 0.49124 0.01662 0.0
H585 H 0.1625 0.56566 0.98115 0.0
H586 H 0.16703 0.53519 0.97948 0.0
H587 H 0.21209 0.51592 0.03935 0.0
H588 H 0.21669 0.42698 0.01151 0.0
H589 H 0.2211 0.45771 0.00433 0.0
H590 H 0.18195 0.48406 0.93577 0.0
C591 C 0.17788 0.54341 0.98451 0.0
C592 C 0.20579 0.50906 0.01619 0.0
C593 C 0.17528 0.56093 0.9858 0.0
C594 C 0.20588 0.43499 0.00463 0.0
C595 C 0.20841 0.45256 0.00071 0.0
C596 C 0.18869 0.49086 0.95837 0.0
C597 C 0.19421 0.53655 0.98981 0.0
C598 C 0.19662 0.51787 0.98751 0.0
C599 C 0.19467 0.46333 0.99188 0.0
C600 C 0.1969 0.482 0.98838 0.0
H601 H 0.21612 0.57349 0.00346 0.0
H602 H 0.22061 0.54263 0.00151 0.0
H603 H 0.18172 0.51506 0.93499 0.0
H604 H 0.16306 0.43387 0.98798 0.0
H605 H 0.1675 0.46425 0.98113 0.0
C606 C 0.43577 0.17895 0.01491 0.0
C607 C 0.4258 0.19119 0.9959 0.0
C608 C 0.45344 0.18035 0.01544 0.0
C609 C 0.48969 0.20963 0.99438 0.0
H610 H 0.51392 0.1668 0.98685 0.0
C611 C 0.56305 0.20411 0.01147 0.0
C612 C 0.57131 0.19081 0.99189 0.0
C613 C 0.5453 0.20562 0.00975 0.0
C614 C 0.50744 0.17894 0.98827 0.0
H615 H 0.42643 0.21474 0.96327 0.0
H616 H 0.45747 0.21688 0.9627 0.0
H617 H 0.48324 0.16676 0.98838 0.0
H618 H 0.56785 0.16947 0.95295 0.0
H619 H 0.53716 0.17261 0.94809 0.0
H620 H 0.51407 0.22179 0.99238 0.0
C621 C 0.45162 0.2064 0.97812 0.0
C622 C 0.48974 0.1789 0.99 0.0
C623 C 0.43384 0.20516 0.97829 0.0
C624 C 0.56172 0.17968 0.9688 0.0
C625 C 0.5441 0.18142 0.96633 0.0
C626 C 0.50749 0.20969 0.99203 0.0
C627 C 0.46166 0.19382 0.99613 0.0
C628 C 0.48059 0.1942 0.99353 0.0
C629 C 0.53557 0.19404 0.98782 0.0
C630 C 0.5166 0.19431 0.98909 0.0
H631 H 0.42988 0.16818 0.02925 0.0
H632 H 0.46066 0.17072 0.0307 0.0
H633 H 0.48311 0.22166 -0.00266 0.0
H634 H 0.5702 0.2128 0.02964 0.0
H635 H 0.53922 0.21542 0.02693 0.0
C636 C 0.82077 0.43883 0.98145 0.0
C637 C 0.80712 0.42752 0.9872 0.0
C638 C 0.81807 0.45634 0.98051 0.0
C639 C 0.78958 0.49035 0.0123 0.0
H640 H 0.81438 0.51623 0.93496 0.0
C641 C 0.78892 0.56469 0.00284 0.0
C642 C 0.80523 0.57196 -0.00051 0.0
C643 C 0.78666 0.54706 -0.00121 0.0
C644 C 0.80737 0.50919 0.95674 0.0
H645 H 0.77989 0.42592 -0.00292 0.0
H646 H 0.77522 0.45679 0.9957 0.0
H647 H 0.81483 0.48526 0.93268 0.0
H648 H 0.83192 0.56629 0.98913 0.0
H649 H 0.82794 0.53587 0.98206 0.0
H650 H 0.78252 0.51445 0.0369 0.0
C651 C 0.788 0.45191 0.99186 0.0
C652 C 0.80763 0.49146 0.95545 0.0
C653 C 0.79068 0.43426 0.99253 0.0
C654 C 0.81916 0.56122 0.99186 0.0
C655 C 0.81688 0.54374 0.98751 0.0
C656 C 0.78931 0.50818 0.01358 0.0
C657 C 0.80167 0.46311 0.98539 0.0
C658 C 0.7992 0.48183 0.9839 0.0
C659 C 0.80063 0.53645 0.99082 0.0
C660 C 0.79866 0.51775 0.98648 0.0
H661 H 0.83362 0.4342 0.9773 0.0
H662 H 0.82893 0.46464 0.97623 0.0
H663 H 0.78299 0.48325 0.03465 0.0
H664 H 0.77793 0.57258 0.00883 0.0
H665 H 0.77399 0.54177 0.00146 0.0
C666 C 0.56335 0.79657 0.99187 0.0
C667 C 0.57083 0.81285 0.99292 0.0
C668 C 0.54562 0.79474 0.99386 0.0
C669 C 0.50702 0.81769 0.02534 0.0
H670 H 0.48301 0.78874 0.95247 0.0
C671 C 0.43591 0.82601 -0.0023 0.0
C672 C 0.42564 0.81136 0.9963 0.0
C673 C 0.4536 0.82467 -0.00246 0.0
C674 C 0.48956 0.79671 0.97331 0.0
H675 H 0.56543 0.83993 -0.00304 0.0
H676 H 0.53483 0.83669 0.00032 0.0
H677 H 0.51419 0.78885 0.95326 0.0
H678 H 0.42607 0.78378 0.99221 0.0
H679 H 0.45711 0.7815 0.99189 0.0
H680 H 0.48255 0.82578 0.04505 0.0
C681 C 0.5426 0.82534 -0.00162 0.0
C682 C 0.50739 0.79675 0.97382 0.0
C683 C 0.5602 0.82718 0.9962 0.0
C684 C 0.43357 0.79533 0.99337 0.0
C685 C 0.45135 0.79401 0.9931 0.0
C686 C 0.48929 0.81767 0.02481 0.0
C687 C 0.53509 0.80913 -0.00271 0.0
C688 C 0.51628 0.80754 -0.00071 0.0
C689 C 0.46153 0.80867 0.99595 0.0
C690 C 0.48035 0.80747 -0.00176 0.0
H691 H 0.57115 0.78526 0.98924 0.0
H692 H 0.54018 0.78208 0.9931 0.0
H693 H 0.51351 0.82586 0.04589 0.0
H694 H 0.43033 0.83859 -0.0003 0.0
H695 H 0.4611 0.83623 -0.00108 0.0
C696 C 0.7077 0.06476 0.49266 0.0
C697 C 0.69127 0.07161 0.48786 0.0
C698 C 0.71026 0.04709 0.49178 0.0
C699 C 0.69014 0.00773 0.45571 0.0
H700 H 0.71587 0.98448 0.53573 0.0
C701 C 0.67884 0.93787 0.49155 0.0
C702 C 0.69284 0.92711 0.4982 0.0
C703 C 0.68108 0.95537 0.48746 0.0
C704 C 0.70889 0.99082 0.51281 0.0
H705 H 0.66467 0.06511 0.47876 0.0
H706 H 0.66916 0.03464 0.4774 0.0
H707 H 0.71547 0.01568 0.53394 0.0
H708 H 0.72024 0.92646 0.50611 0.0
H709 H 0.7241 0.9573 0.49921 0.0
H710 H 0.68314 0.98302 0.43518 0.0
C711 C 0.6801 0.04287 0.48138 0.0
C712 C 0.70866 0.00865 0.51179 0.0
C713 C 0.67752 0.06039 0.48249 0.0
C714 C 0.70919 0.93437 0.50087 0.0
C715 C 0.71141 0.95201 0.49709 0.0
C716 C 0.69035 0.99 0.45675 0.0
C717 C 0.69648 0.036 0.48568 0.0
C718 C 0.69884 0.01726 0.48391 0.0
C719 C 0.69736 0.96265 0.49008 0.0
C720 C 0.6993 0.98135 0.48598 0.0
H721 H 0.71858 0.07302 0.4969 0.0
H722 H 0.72304 0.04214 0.49517 0.0
H723 H 0.68278 0.01401 0.43332 0.0
H724 H 0.66606 0.93281 0.48938 0.0
H725 H 0.66996 0.96326 0.48275 0.0
C726 C 0.93817 0.67484 0.51136 0.0
C727 C 0.92721 0.6885 0.50295 0.0
C728 C 0.95557 0.67751 0.51602 0.0
C729 C 0.99027 0.70587 0.48824 0.0
H730 H 0.0146 0.68098 0.56801 0.0
C731 C 0.06417 0.70684 0.50473 0.0
C732 C 0.07155 0.69065 0.50973 0.0
C733 C 0.04648 0.70891 0.5068 0.0
C734 C 0.00799 0.688 0.54554 0.0
H735 H 0.92606 0.71576 0.49301 0.0
H736 H 0.95669 0.72038 0.50098 0.0
H737 H 0.9836 0.68057 0.56717 0.0
H738 H 0.06598 0.66398 0.52069 0.0
H739 H 0.03541 0.66762 0.52408 0.0
H740 H 0.01478 0.71288 0.46601 0.0
C741 C 0.95166 0.70761 0.50393 0.0
C742 C 0.99025 0.68777 0.54508 0.0
C743 C 0.93413 0.70496 0.49956 0.0
C744 C 0.06083 0.67664 0.5167 0.0
C745 C 0.04326 0.67874 0.519 0.0
C746 C 0.00809 0.70609 0.48869 0.0
C747 C 0.96254 0.69389 0.51223 0.0
C748 C 0.9812 0.69628 0.51578 0.0
C749 C 0.03587 0.69488 0.5143 0.0
C750 C 0.01711 0.69673 0.51669 0.0
H751 H 0.93333 0.66199 0.51419 0.0
H752 H 0.96366 0.66663 0.52178 0.0
H753 H 0.98363 0.71248 0.4652 0.0
H754 H 0.07204 0.7179 0.49931 0.0
H755 H 0.04112 0.72151 0.5031 0.0
C756 C 0.29697 0.0631 0.51093 0.0
C757 C 0.31032 0.07176 0.49248 0.0
C758 C 0.29584 0.04535 0.50856 0.0
C759 C 0.32336 0.00803 0.48713 0.0
H760 H 0.28088 0.98318 0.49435 0.0
C761 C 0.29745 0.93426 0.47553 0.0
C762 C 0.31135 0.92614 0.4932 0.0
C763 C 0.29631 0.95203 0.47532 0.0
C764 C 0.29287 0.98989 0.49185 0.0
H765 H 0.33221 0.06899 0.4549 0.0
H766 H 0.32973 0.03826 0.44876 0.0
H767 H 0.28041 0.0141 0.48984 0.0
H768 H 0.33444 0.93008 0.52631 0.0
H769 H 0.33206 0.96091 0.5278 0.0
H770 H 0.33582 0.98396 0.4871 0.0
C771 C 0.32057 0.04491 0.46666 0.0
C772 C 0.2926 0.00769 0.48981 0.0
C773 C 0.32192 0.06255 0.46981 0.0
C774 C 0.32371 0.93604 0.512 0.0
C775 C 0.32239 0.95374 0.51253 0.0
C776 C 0.32361 0.99031 0.48848 0.0
C777 C 0.30787 0.03598 0.48704 0.0
C778 C 0.30787 0.01701 0.48764 0.0
C779 C 0.3089 0.96202 0.4934 0.0
C780 C 0.3084 0.98097 0.49129 0.0
H781 H 0.28794 0.06993 0.52884 0.0
H782 H 0.28598 0.03898 0.52498 0.0
H783 H 0.33543 0.01467 0.4863 0.0
H784 H 0.28779 0.92692 0.46058 0.0
H785 H 0.28584 0.95791 0.45991 0.0
C786 C 0.06267 0.31905 0.51763 0.0
C787 C 0.07282 0.30691 0.4988 0.0
C788 C 0.045 0.31754 0.51757 0.0
C789 C 0.00895 0.2883 0.49487 0.0
H790 H 0.98488 0.33118 0.48597 0.0
C791 C 0.93554 0.2942 0.51009 0.0
C792 C 0.92742 0.30753 0.49031 0.0
C793 C 0.95327 0.29254 0.50858 0.0
C794 C 0.99131 0.31902 0.48776 0.0
H795 H 0.07254 0.28339 0.46602 0.0
H796 H 0.0415 0.28105 0.46449 0.0
H797 H 0.01554 0.33114 0.48876 0.0
H798 H 0.93112 0.32875 0.45117 0.0
H799 H 0.9618 0.32535 0.44668 0.0
H800 H 0.98454 0.27619 0.49207 0.0
C801 C 0.0472 0.29154 0.48017 0.0
C802 C 0.009 0.31902 0.49022 0.0
C803 C 0.06498 0.29289 0.48092 0.0
C804 C 0.93714 0.31852 0.46717 0.0
C805 C 0.95475 0.31663 0.46491 0.0
C806 C 0.99116 0.28828 0.49183 0.0
C807 C 0.03698 0.30407 0.49783 0.0
C808 C 0.01808 0.30371 0.49431 0.0
C809 C 0.96315 0.30401 0.48667 0.0
C810 C 0.98211 0.30367 0.48842 0.0
H811 H 0.0684 0.32986 0.53217 0.0
H812 H 0.03763 0.32713 0.53261 0.0
H813 H 0.01549 0.27626 0.4982 0.0
H814 H 0.92829 0.28561 0.52829 0.0
H815 H 0.95925 0.28275 0.52596 0.0
C816 C 0.25348 0.34647 -0.00128 0.0
C817 C 0.2365 0.34113 0.00257 0.0
C818 C 0.26676 0.33464 0.00053 0.0
C819 C 0.27606 0.29115 0.03635 0.0
H820 H 0.31559 0.29435 0.96945 0.0
C821 C 0.32249 0.23564 0.01198 0.0
C822 C 0.33999 0.23925 0.01089 0.0
C823 C 0.3106 0.24879 0.01411 0.0
C824 C 0.30473 0.29345 0.98868 0.0
H825 H 0.22006 0.31919 0.0098 0.0
H826 H 0.2431 0.29856 0.01191 0.0
H827 H 0.29325 0.31588 0.96509 0.0
H828 H 0.3588 0.25944 0.01189 0.0
H829 H 0.33791 0.28253 0.01532 0.0
H830 H 0.28735 0.26848 0.05921 0.0
C831 C 0.24626 0.3119 0.0086 0.0
C832 C 0.29193 0.30576 0.98619 0.0
C833 C 0.23302 0.32372 0.00705 0.0
C834 C 0.34539 0.25628 0.01278 0.0
C835 C 0.33346 0.26948 0.01448 0.0
C836 C 0.28878 0.2788 0.03863 0.0
C837 C 0.2633 0.31723 0.00602 0.0
C838 C 0.27733 0.30463 0.00966 0.0
C839 C 0.31594 0.26585 0.01484 0.0
C840 C 0.30315 0.27971 0.01452 0.0
H841 H 0.25655 0.35983 0.99538 0.0
H842 H 0.27975 0.33919 -0.0013 0.0
H843 H 0.2652 0.29011 0.05553 0.0
H844 H 0.31794 0.22264 0.01057 0.0
H845 H 0.29719 0.24561 0.01397 0.0
C846 C 0.74403 0.34482 0.0026 0.0
C847 C 0.76119 0.33986 0.00127 0.0
C848 C 0.73109 0.33256 0.00237 0.0
C849 C 0.72369 0.28751 0.97504 0.0
H850 H 0.68214 0.29267 0.03453 0.0
C851 C 0.67608 0.23268 -0.00186 0.0
C852 C 0.65867 0.23646 0.99464 0.0
C853 C 0.68819 0.24569 -0.00241 0.0
C854 C 0.69361 0.29116 0.01744 0.0
H855 H 0.7783 0.31821 0.00049 0.0
H856 H 0.75587 0.2969 0.00124 0.0
H857 H 0.70411 0.31462 0.03815 0.0
H858 H 0.64029 0.25681 0.98753 0.0
H859 H 0.66152 0.2796 0.98679 0.0
H860 H 0.71331 0.26391 0.95492 0.0
C861 C 0.7523 0.31021 0.00126 0.0
C862 C 0.70619 0.30373 0.01948 0.0
C863 C 0.76519 0.32244 0.00116 0.0
C864 C 0.65362 0.25351 0.9902 0.0
C865 C 0.66574 0.26656 0.99004 0.0
C866 C 0.71118 0.27491 0.97325 0.0
C867 C 0.73509 0.3151 0.00108 0.0
C868 C 0.72146 0.30199 -0.00148 0.0
C869 C 0.68314 0.26277 0.99387 0.0
C870 C 0.69606 0.27654 0.9946 0.0
H871 H 0.74057 0.35817 0.00255 0.0
H872 H 0.71798 0.33679 0.00197 0.0
H873 H 0.73508 0.28592 0.95775 0.0
H874 H 0.68037 0.21967 0.00165 0.0
H875 H 0.70149 0.2424 0.00097 0.0
C876 C 0.76174 0.67646 -0.00236 0.0
C877 C 0.75798 0.65901 0.99548 0.0
C878 C 0.74871 0.6885 -0.0015 0.0
C879 C 0.70282 0.69503 0.9786 0.0
H880 H 0.70916 0.73364 0.04724 0.0
C881 C 0.65071 0.74621 0.00507 0.0
C882 C 0.65641 0.76311 0.00184 0.0
C883 C 0.6624 0.73277 0.0063 0.0
C884 C 0.70723 0.72296 0.02784 0.0
H885 H 0.7376 0.6405 0.99154 0.0
H886 H 0.71472 0.66158 0.99364 0.0
H887 H 0.73081 0.71152 0.04428 0.0
H888 H 0.67878 0.77922 -0.00171 0.0
H889 H 0.6991 0.75585 0.00085 0.0
H890 H 0.67914 0.70659 0.96239 0.0
C891 C 0.72779 0.66595 0.99421 0.0
C892 C 0.71967 0.71031 0.02598 0.0
C893 C 0.74088 0.65387 0.99309 0.0
C894 C 0.67398 0.76634 0.00079 0.0
C895 C 0.68564 0.75295 0.00244 0.0
C896 C 0.6903 0.70766 0.98068 0.0
C897 C 0.73155 0.68341 -0.00244 0.0
C898 C 0.71778 0.69633 0.00084 0.0
C899 C 0.67998 0.73602 0.00484 0.0
C900 C 0.69252 0.72189 0.00488 0.0
H901 H 0.7748 0.68084 -0.00082 0.0
H902 H 0.7521 0.70185 8e-05 0.0
H903 H 0.701 0.6845 0.95874 0.0
H904 H 0.63723 0.74334 0.00584 0.0
H905 H 0.6577 0.71984 0.00844 0.0
C906 C 0.25401 0.6527 0.00379 0.0
C907 C 0.2371 0.65839 0.00091 0.0
C908 C 0.26752 0.66426 0.00136 0.0
C909 C 0.27711 0.70756 0.96475 0.0
H910 H 0.31756 0.70387 0.02865 0.0
C911 C 0.32353 0.7629 0.98831 0.0
C912 C 0.34107 0.75952 0.98757 0.0
C913 C 0.31177 0.74964 0.98642 0.0
C914 C 0.30644 0.70489 0.01022 0.0
H915 H 0.22105 0.68069 0.99507 0.0
H916 H 0.24449 0.70085 0.99194 0.0
H917 H 0.29504 0.68253 0.03451 0.0
H918 H 0.36011 0.73963 0.98368 0.0
H919 H 0.3394 0.71627 0.98085 0.0
H920 H 0.28829 0.73017 0.94131 0.0
C921 C 0.2474 0.68744 0.99489 0.0
C922 C 0.29354 0.6927 0.01358 0.0
C923 C 0.23394 0.67589 -0.00295 0.0
C924 C 0.34665 0.7426 0.98416 0.0
C925 C 0.33484 0.72925 0.9828 0.0
C926 C 0.28992 0.71977 0.96161 0.0
C927 C 0.26436 0.68175 0.99619 0.0
C928 C 0.27858 0.69406 0.99134 0.0
C929 C 0.31728 0.73267 0.98416 0.0
C930 C 0.30459 0.71872 0.98473 0.0
H931 H 0.25683 0.63926 0.00663 0.0
H932 H 0.28042 0.65944 0.00228 0.0
H933 H 0.26599 0.70876 0.9464 0.0
H934 H 0.31884 0.77582 0.99089 0.0
H935 H 0.29833 0.75266 0.98792 0.0
C936 C 0.82298 0.73185 0.49263 0.0
C937 C 0.84038 0.73521 0.49779 0.0
C938 C 0.81124 0.74516 0.49085 0.0
C939 C 0.80542 0.79098 0.51334 0.0
H940 H 0.76824 0.78674 0.43994 0.0
C941 C 0.75694 0.84521 0.48478 0.0
C942 C 0.73982 0.84013 0.48669 0.0
C943 C 0.76993 0.83302 0.48358 0.0
C944 C 0.77854 0.78808 0.46062 0.0
H945 H 0.85913 0.75516 0.5058 0.0
H946 H 0.83867 0.77847 0.50198 0.0
H947 H 0.78956 0.7643 0.44412 0.0
H948 H 0.72282 0.81838 0.48754 0.0
H949 H 0.74541 0.79719 0.48494 0.0
H950 H 0.79433 0.81487 0.52958 0.0
C951 C 0.83404 0.76552 0.49989 0.0
C952 C 0.7907 0.77518 0.46322 0.0
C953 C 0.84577 0.75217 0.50198 0.0
C954 C 0.7359 0.82269 0.48612 0.0
C955 C 0.74883 0.81054 0.48445 0.0
C956 C 0.7933 0.80396 0.51051 0.0
C957 C 0.81664 0.76219 0.49382 0.0
C958 C 0.80416 0.77634 0.49002 0.0
C959 C 0.76598 0.81556 0.48371 0.0
C960 C 0.77961 0.80252 0.4845 0.0
H961 H 0.81841 0.71891 0.48958 0.0
H962 H 0.79791 0.74209 0.48707 0.0
H963 H 0.8155 0.79223 0.53457 0.0
H964 H 0.76034 0.85857 0.48528 0.0
H965 H 0.78305 0.83723 0.48273 0.0
C966 C 0.2435 0.84735 0.49982 0.0
C967 C 0.26036 0.84151 0.49718 0.0
C968 C 0.22989 0.83587 0.49751 0.0
C969 C 0.21995 0.79272 0.46104 0.0
H970 H 0.18029 0.79582 0.52755 0.0
C971 C 0.17426 0.73681 0.4851 0.0
C972 C 0.1567 0.74009 0.48669 0.0
C973 C 0.18589 0.75018 0.48287 0.0
C974 C 0.19118 0.79496 0.50837 0.0
H975 H 0.27622 0.81903 0.49176 0.0
H976 H 0.25264 0.79909 0.48856 0.0
H977 H 0.20266 0.81737 0.53229 0.0
H978 H 0.13752 0.75993 0.4865 0.0
H979 H 0.15799 0.78342 0.48281 0.0
H980 H 0.2087 0.77012 0.43777 0.0
C981 C 0.24984 0.81253 0.49139 0.0
C982 C 0.20399 0.80728 0.51111 0.0
C983 C 0.26337 0.82396 0.49356 0.0
C984 C 0.15099 0.75703 0.48522 0.0
C985 C 0.16268 0.77046 0.48337 0.0
C986 C 0.20722 0.7804 0.45843 0.0
C987 C 0.23294 0.81836 0.49256 0.0
C988 C 0.21868 0.80609 0.48799 0.0
C989 C 0.18025 0.76715 0.48246 0.0
C990 C 0.19284 0.78121 0.48254 0.0
H991 H 0.24079 0.86082 0.5025 0.0
H992 H 0.21702 0.84077 0.4984 0.0
H993 H 0.23089 0.79167 0.44209 0.0
H994 H 0.17906 0.72389 0.48619 0.0
H995 H 0.19936 0.74722 0.48264 0.0
C996 C 0.26699 0.17571 0.50545 0.0
C997 C 0.26345 0.15837 0.49988 0.0
C998 C 0.25381 0.1876 0.50703 0.0
C999 C 0.20818 0.19407 0.48358 0.0
H1000 H 0.21255 0.23089 0.55789 0.0
C1001 C 0.15432 0.24285 0.51255 0.0
C1002 C 0.15952 0.25996 0.51106 0.0
C1003 C 0.16642 0.22978 0.51359 0.0
C1004 C 0.21118 0.22071 0.53694 0.0
H1005 H 0.24335 0.13988 0.49087 0.0
H1006 H 0.22026 0.16061 0.49435 0.0
H1007 H 0.23476 0.20934 0.55369 0.0
H1008 H 0.18137 0.27683 0.51082 0.0
H1009 H 0.20241 0.25407 0.51318 0.0
H1010 H 0.18448 0.20549 0.46714 0.0
C1011 C 0.23324 0.16509 0.49691 0.0
C1012 C 0.22394 0.2084 0.53434 0.0
C1013 C 0.24647 0.15319 0.49501 0.0
C1014 C 0.17698 0.26377 0.51191 0.0
C1015 C 0.18903 0.25074 0.51344 0.0
C1016 C 0.19533 0.20632 0.48643 0.0
C1017 C 0.23675 0.18242 0.50347 0.0
C1018 C 0.22274 0.19506 0.50722 0.0
C1019 C 0.18389 0.23361 0.51373 0.0
C1020 C 0.19683 0.21989 0.51278 0.0
H1021 H 0.27996 0.18012 0.50903 0.0
H1022 H 0.25703 0.20089 0.51116 0.0
H1023 H 0.2069 0.18409 0.46211 0.0
H1024 H 0.14095 0.23955 0.51183 0.0
H1025 H 0.16212 0.21669 0.51411 0.0
C1026 C 0.82246 0.26626 0.50053 0.0
C1027 C 0.8398 0.26252 0.49569 0.0
C1028 C 0.81042 0.2532 0.50187 0.0
C1029 C 0.80376 0.20756 0.47847 0.0
H1030 H 0.76636 0.2122 0.55111 0.0
C1031 C 0.75487 0.15371 0.50628 0.0
C1032 C 0.73775 0.15883 0.50456 0.0
C1033 C 0.76788 0.16586 0.50746 0.0
C1034 C 0.7767 0.21076 0.5306 0.0
H1035 H 0.85813 0.24217 0.48787 0.0
H1036 H 0.83715 0.21932 0.49093 0.0
H1037 H 0.78799 0.23437 0.54753 0.0
H1038 H 0.72081 0.18063 0.50397 0.0
H1039 H 0.74348 0.20177 0.50647 0.0
H1040 H 0.79242 0.18384 0.46184 0.0
C1041 C 0.83279 0.23236 0.49308 0.0
C1042 C 0.78906 0.2235 0.52837 0.0
C1043 C 0.84483 0.24546 0.49144 0.0
C1044 C 0.73388 0.17629 0.50525 0.0
C1045 C 0.74686 0.1884 0.50686 0.0
C1046 C 0.79145 0.19474 0.48094 0.0
C1047 C 0.81544 0.23607 0.49874 0.0
C1048 C 0.80264 0.22217 0.50193 0.0
C1049 C 0.764 0.18333 0.50745 0.0
C1050 C 0.77769 0.19632 0.50672 0.0
H1051 H 0.81817 0.27929 0.50364 0.0
H1052 H 0.79714 0.25656 0.50538 0.0
H1053 H 0.81391 0.20619 0.45748 0.0
H1054 H 0.75823 0.14034 0.50572 0.0
H1055 H 0.78099 0.1616 0.50823 0.0
C1056 C 0.1491 0.32524 0.39547 0.0
C1057 C 0.13406 0.31572 0.39696 0.0
C1058 C 0.15435 0.33266 0.36081 0.0
C1059 C 0.1384 0.34404 0.26241 0.0
H1060 H 0.18659 0.34894 0.2406 0.0
C1061 C 0.1694 0.35473 0.11188 0.0
C1062 C 0.17939 0.36946 0.10872 0.0
C1063 C 0.16281 0.34982 0.14768 0.0
C1064 C 0.1731 0.34779 0.24663 0.0
H1065 H 0.11351 0.3049 0.36336 0.0
H1066 H 0.1229 0.31738 0.302 0.0
H1067 H 0.17755 0.3359 0.30126 0.0
H1068 H 0.19144 0.38997 0.14036 0.0
H1069 H 0.18034 0.38096 0.20386 0.0
H1070 H 0.13421 0.355 0.20627 0.0
C1071 C 0.13022 0.31996 0.32793 0.0
C1072 C 0.16787 0.3404 0.28141 0.0
C1073 C 0.12489 0.31268 0.36286 0.0
C1074 C 0.18336 0.37883 0.14214 0.0
C1075 C 0.17705 0.37371 0.1782 0.0
C1076 C 0.14368 0.35106 0.22721 0.0
C1077 C 0.1449 0.33026 0.32659 0.0
C1078 C 0.15044 0.33836 0.28973 0.0
C1079 C 0.16672 0.35919 0.18109 0.0
C1080 C 0.16105 0.35296 0.21916 0.0
H1081 H 0.15669 0.32715 0.42134 0.0
H1082 H 0.16562 0.34058 0.36119 0.0
H1083 H 0.12489 0.34307 0.26812 0.0
H1084 H 0.16692 0.34686 0.08672 0.0
H1085 H 0.15516 0.33838 0.14952 0.0
C1086 C 0.68466 0.12472 0.35701 0.0
C1087 C 0.68147 0.1336 0.39144 0.0
C1088 C 0.67729 0.13015 0.32226 0.0
C1089 C 0.65619 0.16777 0.27698 0.0
H1090 H 0.64324 0.13445 0.1995 0.0
C1091 C 0.61945 0.18407 0.13584 0.0
C1092 C 0.62898 0.18 0.10272 0.0
C1093 C 0.62423 0.17764 0.17205 0.0
C1094 C 0.64668 0.14383 0.22109 0.0
H1095 H 0.66961 0.15586 0.41656 0.0
H1096 H 0.65597 0.16489 0.35673 0.0
H1097 H 0.65472 0.12486 0.2615 0.0
H1098 H 0.65152 0.16721 0.08144 0.0
H1099 H 0.65941 0.15526 0.14445 0.0
H1100 H 0.64761 0.18666 0.2366 0.0
C1101 C 0.6641 0.15378 0.35595 0.0
C1102 C 0.65347 0.1384 0.25641 0.0
C1103 C 0.67164 0.14846 0.39045 0.0
C1104 C 0.64352 0.16979 0.10634 0.0
C1105 C 0.6481 0.16309 0.14229 0.0
C1106 C 0.64901 0.17314 0.24206 0.0
C1107 C 0.6667 0.14463 0.32138 0.0
C1108 C 0.65862 0.15032 0.28457 0.0
C1109 C 0.63857 0.16708 0.17541 0.0
C1110 C 0.64445 0.16123 0.21369 0.0
H1111 H 0.69268 0.1135 0.3571 0.0
H1112 H 0.68006 0.12306 0.29609 0.0
H1113 H 0.66027 0.17739 0.29746 0.0
H1114 H 0.60844 0.19231 0.1337 0.0
H1115 H 0.61684 0.181 0.19744 0.0
C1116 C 0.85457 0.66839 0.3884 0.0
C1117 C 0.86924 0.67844 0.39175 0.0
C1118 C 0.8497 0.66184 0.35251 0.0
C1119 C 0.84781 0.6721 0.25332 0.0
H1120 H 0.84286 0.62384 0.23254 0.0
C1121 C 0.82449 0.64788 0.1051 0.0
C1122 C 0.81497 0.63282 0.1039 0.0
C1123 C 0.83215 0.65314 0.1395 0.0
C1124 C 0.84388 0.63737 0.23802 0.0
H1125 H 0.8897 0.69066 0.36029 0.0
H1126 H 0.88076 0.67964 0.29662 0.0
H1127 H 0.85478 0.63328 0.29425 0.0
H1128 H 0.80443 0.61226 0.1379 0.0
H1129 H 0.81728 0.6217 0.19882 0.0
H1130 H 0.83591 0.67645 0.19866 0.0
C1131 C 0.87352 0.67627 0.32221 0.0
C1132 C 0.85093 0.64272 0.27316 0.0
C1133 C 0.87859 0.68254 0.35838 0.0
C1134 C 0.8122 0.62365 0.13812 0.0
C1135 C 0.8197 0.62901 0.17281 0.0
C1136 C 0.84038 0.6668 0.2186 0.0
C1137 C 0.85906 0.66584 0.31915 0.0
C1138 C 0.8529 0.66011 0.28101 0.0
C1139 C 0.82998 0.64372 0.17384 0.0
C1140 C 0.83823 0.64935 0.21052 0.0
H1141 H 0.84669 0.66581 0.4135 0.0
H1142 H 0.83831 0.65412 0.35058 0.0
H1143 H 0.84901 0.6856 0.25917 0.0
H1144 H 0.82619 0.6555 0.07919 0.0
H1145 H 0.84004 0.66443 0.13882 0.0
C1146 C 0.31891 0.87466 0.35782 0.0
C1147 C 0.31913 0.86475 0.39158 0.0
C1148 C 0.32621 0.86839 0.32372 0.0
C1149 C 0.33163 0.83078 0.26978 0.0
H1150 H 0.37181 0.85011 0.22142 0.0
C1151 C 0.35111 0.81945 0.11151 0.0
C1152 C 0.36752 0.81292 0.10588 0.0
C1153 C 0.34613 0.8252 0.14794 0.0
C1154 C 0.36061 0.84464 0.23477 0.0
H1155 H 0.32594 0.84035 0.41635 0.0
H1156 H 0.33824 0.82916 0.35628 0.0
H1157 H 0.36078 0.86253 0.28186 0.0
H1158 H 0.39138 0.8064 0.13338 0.0
H1159 H 0.38279 0.81714 0.19768 0.0
H1160 H 0.33087 0.81349 0.22179 0.0
C1161 C 0.333 0.84192 0.35653 0.0
C1162 C 0.35433 0.85171 0.26907 0.0
C1163 C 0.32605 0.84831 0.39067 0.0
C1164 C 0.37877 0.81169 0.13728 0.0
C1165 C 0.3739 0.81781 0.17373 0.0
C1166 C 0.33759 0.82405 0.23497 0.0
C1167 C 0.33318 0.85194 0.32295 0.0
C1168 C 0.33983 0.84477 0.28671 0.0
C1169 C 0.35753 0.82456 0.17916 0.0
C1170 C 0.35208 0.83096 0.21723 0.0
H1171 H 0.31332 0.88727 0.35801 0.0
H1172 H 0.3261 0.87618 0.2978 0.0
H1173 H 0.32041 0.8253 0.28313 0.0
H1174 H 0.34216 0.82014 0.08765 0.0
H1175 H 0.33346 0.8304 0.15161 0.0
C1176 C 0.12557 0.686 0.63611 0.0
C1177 C 0.13453 0.68307 0.60168 0.0
C1178 C 0.13123 0.67881 0.67083 0.0
C1179 C 0.16938 0.65924 0.7167 0.0
H1180 H 0.13617 0.64398 0.79218 0.0
C1181 C 0.18526 0.62198 0.85803 0.0
C1182 C 0.18077 0.63138 0.89106 0.0
C1183 C 0.17925 0.62685 0.82153 0.0
C1184 C 0.14552 0.64813 0.77119 0.0
H1185 H 0.15716 0.67198 0.57651 0.0
H1186 H 0.16674 0.65875 0.63652 0.0
H1187 H 0.1265 0.65534 0.7301 0.0
H1188 H 0.16778 0.65389 0.91194 0.0
H1189 H 0.15651 0.66193 0.84832 0.0
H1190 H 0.18835 0.65153 0.75785 0.0
C1191 C 0.15534 0.66647 0.63718 0.0
C1192 C 0.14004 0.6548 0.73583 0.0
C1193 C 0.14972 0.67378 0.60265 0.0
C1194 C 0.17065 0.64598 0.88706 0.0
C1195 C 0.16437 0.65065 0.85079 0.0
C1196 C 0.17484 0.65223 0.75175 0.0
C1197 C 0.14606 0.66873 0.67169 0.0
C1198 C 0.1519 0.66075 0.70842 0.0
C1199 C 0.16869 0.64116 0.81781 0.0
C1200 C 0.16293 0.6469 0.77941 0.0
H1201 H 0.11407 0.69361 0.63602 0.0
H1202 H 0.12404 0.68129 0.69701 0.0
H1203 H 0.17891 0.6639 0.69666 0.0
H1204 H 0.19344 0.61093 0.86049 0.0
H1205 H 0.18285 0.61951 0.79623 0.0
C1206 C 0.3142 0.11859 0.6418 0.0
C1207 C 0.31833 0.12829 0.60898 0.0
C1208 C 0.32022 0.12347 0.67833 0.0
C1209 C 0.35334 0.14582 0.72869 0.0
H1210 H 0.31946 0.16224 0.80127 0.0
C1211 C 0.37258 0.18597 0.86069 0.0
C1212 C 0.36357 0.1834 0.89516 0.0
C1213 C 0.36696 0.17838 0.82636 0.0
C1214 C 0.32913 0.15739 0.78184 0.0
H1215 H 0.33071 0.15122 0.5885 0.0
H1216 H 0.34195 0.15925 0.65196 0.0
H1217 H 0.31042 0.14853 0.7413 0.0
H1218 H 0.34089 0.17259 0.92081 0.0
H1219 H 0.33142 0.15868 0.86166 0.0
H1220 H 0.37212 0.15418 0.76916 0.0
C1221 C 0.3344 0.14776 0.64937 0.0
C1222 C 0.3239 0.14958 0.74751 0.0
C1223 C 0.32811 0.1431 0.61319 0.0
C1224 C 0.34834 0.17415 0.89461 0.0
C1225 C 0.34279 0.16644 0.86053 0.0
C1226 C 0.35861 0.15324 0.76341 0.0
C1227 C 0.33042 0.13804 0.68217 0.0
C1228 C 0.33598 0.14403 0.72048 0.0
C1229 C 0.35217 0.16822 0.82605 0.0
C1230 C 0.34656 0.15947 0.79006 0.0
H1231 H 0.30628 0.10737 0.63916 0.0
H1232 H 0.31686 0.11597 0.70356 0.0
H1233 H 0.36283 0.14167 0.70804 0.0
H1234 H 0.38411 0.19353 0.86049 0.0
H1235 H 0.37421 0.18052 0.80012 0.0
C1236 C 0.82766 0.35093 0.88954 0.0
C1237 C 0.81774 0.36573 0.89041 0.0
C1238 C 0.83529 0.34563 0.85512 0.0
C1239 C 0.84582 0.36087 0.75537 0.0
H1240 H 0.85184 0.3126 0.73599 0.0
C1241 C 0.85563 0.32935 0.60542 0.0
C1242 C 0.87011 0.31904 0.60175 0.0
C1243 C 0.85113 0.3361 0.64137 0.0
C1244 C 0.8504 0.32612 0.74132 0.0
H1245 H 0.80648 0.38574 0.85593 0.0
H1246 H 0.81924 0.37621 0.79504 0.0
H1247 H 0.83926 0.32195 0.79685 0.0
H1248 H 0.8906 0.30662 0.63268 0.0
H1249 H 0.88234 0.31804 0.69642 0.0
H1250 H 0.85593 0.36475 0.69832 0.0
C1251 C 0.82202 0.36916 0.82126 0.0
C1252 C 0.84326 0.33154 0.77625 0.0
C1253 C 0.81457 0.37457 0.85594 0.0
C1254 C 0.87964 0.31494 0.63484 0.0
C1255 C 0.87495 0.32143 0.67106 0.0
C1256 C 0.85256 0.3554 0.72004 0.0
C1257 C 0.83267 0.35472 0.82048 0.0
C1258 C 0.84077 0.34899 0.78369 0.0
C1259 C 0.86067 0.33208 0.67447 0.0
C1260 C 0.85485 0.33799 0.71277 0.0
H1261 H 0.82968 0.34354 0.91567 0.0
H1262 H 0.84348 0.33456 0.85599 0.0
H1263 H 0.84452 0.37442 0.76032 0.0
H1264 H 0.84762 0.33195 0.58056 0.0
H1265 H 0.83986 0.34399 0.64355 0.0
C1266 C 0.6218 0.81612 0.85618 0.0
C1267 C 0.631 0.8201 0.88985 0.0
C1268 C 0.62724 0.82221 0.82017 0.0
C1269 C 0.65001 0.85543 0.7716 0.0
H1270 H 0.66548 0.82174 0.69742 0.0
C1271 C 0.68791 0.87477 0.63568 0.0
C1272 C 0.68477 0.86568 0.60152 0.0
C1273 C 0.68087 0.86927 0.67072 0.0
C1274 C 0.66092 0.83136 0.71735 0.0
H1275 H 0.65366 0.83228 0.91235 0.0
H1276 H 0.66272 0.84368 0.84958 0.0
H1277 H 0.65254 0.81254 0.75813 0.0
H1278 H 0.67341 0.843 0.57712 0.0
H1279 H 0.66041 0.83376 0.63752 0.0
H1280 H 0.65781 0.87432 0.73075 0.0
C1281 C 0.65117 0.83617 0.85118 0.0
C1282 C 0.65359 0.82604 0.75214 0.0
C1283 C 0.64592 0.82981 0.88697 0.0
C1284 C 0.6754 0.85054 0.60305 0.0
C1285 C 0.66822 0.84511 0.63784 0.0
C1286 C 0.65699 0.86079 0.73644 0.0
C1287 C 0.64192 0.83233 0.81756 0.0
C1288 C 0.64829 0.83803 0.77963 0.0
C1289 C 0.67071 0.85449 0.67212 0.0
C1290 C 0.66277 0.84882 0.70906 0.0
H1291 H 0.6105 0.80826 0.85777 0.0
H1292 H 0.62008 0.81897 0.79436 0.0
H1293 H 0.64595 0.86484 0.7925 0.0
H1294 H 0.69558 0.88622 0.63514 0.0
H1295 H 0.68349 0.87655 0.6967 0.0
C1296 C 0.85293 0.68268 0.61611 0.0
C1297 C 0.8649 0.6723 0.59723 0.0
C1298 C 0.84667 0.67816 0.65268 0.0
C1299 C 0.84294 0.64048 0.71758 0.0
H1300 H 0.83199 0.67416 0.79591 0.0
C1301 C 0.83451 0.62505 0.87954 0.0
C1302 C 0.82015 0.63182 0.89828 0.0
C1303 C 0.83842 0.62977 0.84159 0.0
C1304 C 0.83482 0.66466 0.77407 0.0
H1305 H 0.88037 0.64957 0.60262 0.0
H1306 H 0.87009 0.64211 0.6668 0.0
H1307 H 0.84271 0.68341 0.73282 0.0
H1308 H 0.79855 0.64877 0.89192 0.0
H1309 H 0.80566 0.65734 0.82546 0.0
H1310 H 0.8357 0.62174 0.75958 0.0
C1311 C 0.86496 0.65336 0.65295 0.0
C1312 C 0.84093 0.66992 0.73791 0.0
C1313 C 0.87099 0.65772 0.61625 0.0
C1314 C 0.80963 0.64326 0.87808 0.0
C1315 C 0.81374 0.64825 0.84026 0.0
C1316 C 0.83709 0.63523 0.75385 0.0
C1317 C 0.85243 0.66329 0.67131 0.0
C1318 C 0.84527 0.65788 0.70934 0.0
C1319 C 0.82822 0.64159 0.82182 0.0
C1320 C 0.83313 0.64726 0.78251 0.0
H1321 H 0.8479 0.69393 0.602 0.0
H1322 H 0.83693 0.68605 0.66574 0.0
H1323 H 0.84567 0.63084 0.69601 0.0
H1324 H 0.84284 0.61618 0.89435 0.0
H1325 H 0.84971 0.62454 0.82805 0.0
C1326 C 0.33991 0.86651 0.61174 0.0
C1327 C 0.32329 0.86569 0.59669 0.0
C1328 C 0.3432 0.86195 0.64997 0.0
C1329 C 0.34522 0.86145 0.73685 0.0
H1330 H 0.32642 0.82001 0.78042 0.0
C1331 C 0.35679 0.84347 0.89539 0.0
C1332 C 0.3609 0.82642 0.90357 0.0
C1333 C 0.35081 0.84816 0.85893 0.0
C1334 C 0.33183 0.83156 0.76852 0.0
H1335 H 0.29707 0.8594 0.61034 0.0
H1336 H 0.3029 0.85151 0.67777 0.0
H1337 H 0.31837 0.82875 0.71478 0.0
H1338 H 0.36167 0.80086 0.87975 0.0
H1339 H 0.35155 0.80918 0.81543 0.0
H1340 H 0.35909 0.86409 0.78968 0.0
C1341 C 0.31334 0.85561 0.65953 0.0
C1342 C 0.32705 0.83667 0.73119 0.0
C1343 C 0.31 0.86025 0.62105 0.0
C1344 C 0.35869 0.81411 0.87438 0.0
C1345 C 0.35276 0.81885 0.83765 0.0
C1346 C 0.34999 0.85637 0.77397 0.0
C1347 C 0.33 0.85645 0.67431 0.0
C1348 C 0.33387 0.85157 0.71486 0.0
C1349 C 0.34888 0.83596 0.82951 0.0
C1350 C 0.34343 0.84132 0.79018 0.0
H1351 H 0.35051 0.87057 0.59393 0.0
H1352 H 0.35622 0.86246 0.6603 0.0
H1353 H 0.35055 0.8731 0.72521 0.0
H1354 H 0.35806 0.85329 0.91726 0.0
H1355 H 0.34762 0.86138 0.85385 0.0
C1356 C 0.14383 0.31278 0.62234 0.0
C1357 C 0.13244 0.32318 0.60172 0.0
C1358 C 0.14945 0.31758 0.65926 0.0
C1359 C 0.15282 0.35601 0.7218 0.0
H1360 H 0.16228 0.32322 0.80302 0.0
C1361 C 0.16023 0.37347 0.88302 0.0
C1362 C 0.1744 0.36676 0.90258 0.0
C1363 C 0.15643 0.36827 0.84534 0.0
C1364 C 0.15984 0.33246 0.78038 0.0
H1365 H 0.11724 0.34617 0.60431 0.0
H1366 H 0.12637 0.35413 0.66912 0.0
H1367 H 0.15206 0.31331 0.73999 0.0
H1368 H 0.19578 0.34941 0.89803 0.0
H1369 H 0.18885 0.34001 0.83206 0.0
H1370 H 0.15998 0.37517 0.76288 0.0
C1371 C 0.13156 0.34266 0.6564 0.0
C1372 C 0.15402 0.32682 0.74427 0.0
C1373 C 0.12619 0.33801 0.61936 0.0
C1374 C 0.18484 0.35488 0.88352 0.0
C1375 C 0.18084 0.34942 0.846 0.0
C1376 C 0.15837 0.36164 0.75801 0.0
C1377 C 0.1436 0.33275 0.67646 0.0
C1378 C 0.15027 0.33855 0.71463 0.0
C1379 C 0.16655 0.35603 0.82672 0.0
C1380 C 0.16181 0.34993 0.78767 0.0
H1381 H 0.14896 0.30134 0.60929 0.0
H1382 H 0.15882 0.3097 0.67366 0.0
H1383 H 0.15054 0.3654 0.69942 0.0
H1384 H 0.15198 0.38267 0.89697 0.0
H1385 H 0.1453 0.37348 0.83111 0.0
C1386 C 0.62576 0.16025 0.87751 0.0
C1387 C 0.6326 0.17444 0.8968 0.0
C1388 C 0.63092 0.15625 0.83993 0.0
C1389 C 0.66668 0.15901 0.77475 0.0
H1390 H 0.63351 0.14947 0.69438 0.0
C1391 C 0.68585 0.14206 0.61694 0.0
C1392 C 0.67531 0.13071 0.59656 0.0
C1393 C 0.6812 0.14781 0.65385 0.0
C1394 C 0.64296 0.15181 0.71661 0.0
H1395 H 0.65013 0.19565 0.89187 0.0
H1396 H 0.65948 0.18836 0.82601 0.0
H1397 H 0.62396 0.15945 0.75757 0.0
H1398 H 0.65221 0.11568 0.59966 0.0
H1399 H 0.64451 0.12504 0.66451 0.0
H1400 H 0.68567 0.15075 0.73448 0.0
C1401 C 0.65 0.18048 0.8401 0.0
C1402 C 0.63746 0.15768 0.75266 0.0
C1403 C 0.64458 0.1847 0.87755 0.0
C1404 C 0.66049 0.12458 0.61451 0.0
C1405 C 0.656 0.13009 0.65156 0.0
C1406 C 0.67219 0.15288 0.73881 0.0
C1407 C 0.64324 0.16618 0.8211 0.0
C1408 C 0.64925 0.1612 0.78211 0.0
C1409 C 0.66604 0.14213 0.67132 0.0
C1410 C 0.66038 0.14904 0.70939 0.0
H1411 H 0.61648 0.15214 0.89159 0.0
H1412 H 0.62561 0.1451 0.82594 0.0
H1413 H 0.67599 0.16149 0.79723 0.0
H1414 H 0.69728 0.14712 0.60368 0.0
H1415 H 0.68919 0.15717 0.66799 0.0
C1416 C 0.85384 0.31421 0.37674 0.0
C1417 C 0.86589 0.32444 0.39588 0.0
C1418 C 0.84835 0.31845 0.33934 0.0
C1419 C 0.86086 0.34132 0.25187 0.0
H1420 H 0.81263 0.34803 0.23352 0.0
C1421 C 0.83783 0.37456 0.11397 0.0
C1422 C 0.8231 0.36835 0.09575 0.0
C1423 C 0.84227 0.36901 0.15103 0.0
C1424 C 0.82612 0.34597 0.2379 0.0
H1425 H 0.88204 0.34672 0.39054 0.0
H1426 H 0.87278 0.35379 0.32502 0.0
H1427 H 0.82233 0.33728 0.29627 0.0
H1428 H 0.80123 0.35178 0.10245 0.0
H1429 H 0.80924 0.34169 0.16679 0.0
H1430 H 0.86481 0.34962 0.19367 0.0
C1431 C 0.86747 0.34265 0.33903 0.0
C1432 C 0.83164 0.33983 0.27384 0.0
C1433 C 0.8727 0.33863 0.37655 0.0
C1434 C 0.8126 0.3569 0.11591 0.0
C1435 C 0.81719 0.35113 0.15283 0.0
C1436 C 0.85536 0.34721 0.21584 0.0
C1437 C 0.8551 0.33274 0.32028 0.0
C1438 C 0.84908 0.33771 0.28128 0.0
C1439 C 0.83228 0.35687 0.17054 0.0
C1440 C 0.83794 0.34991 0.20857 0.0
H1441 H 0.8483 0.30327 0.39108 0.0
H1442 H 0.83883 0.31059 0.32531 0.0
H1443 H 0.87437 0.3396 0.25682 0.0
H1444 H 0.84608 0.38354 0.09933 0.0
H1445 H 0.8537 0.37412 0.16417 0.0
C1446 C 0.64314 0.81629 0.11555 0.0
C1447 C 0.63142 0.82665 0.09587 0.0
C1448 C 0.64894 0.82084 0.15249 0.0
C1449 C 0.65191 0.85866 0.21719 0.0
H1450 H 0.66336 0.82512 0.29544 0.0
C1451 C 0.66166 0.87415 0.37911 0.0
C1452 C 0.67638 0.86756 0.39672 0.0
C1453 C 0.65727 0.86939 0.34145 0.0
C1454 C 0.66035 0.83458 0.27364 0.0
H1455 H 0.61582 0.84932 0.10014 0.0
H1456 H 0.62522 0.85681 0.16507 0.0
H1457 H 0.65251 0.81574 0.23258 0.0
H1458 H 0.6981 0.85089 0.38867 0.0
H1459 H 0.69014 0.84226 0.3228 0.0
H1460 H 0.65914 0.87748 0.25904 0.0
C1461 C 0.63056 0.84557 0.15157 0.0
C1462 C 0.65418 0.82924 0.23761 0.0
C1463 C 0.62502 0.84119 0.11447 0.0
C1464 C 0.68675 0.85627 0.37571 0.0
C1465 C 0.68215 0.85123 0.33823 0.0
C1466 C 0.6578 0.86398 0.25338 0.0
C1467 C 0.64292 0.83571 0.17071 0.0
C1468 C 0.64976 0.84123 0.20897 0.0
C1469 C 0.66733 0.85771 0.32092 0.0
C1470 C 0.662 0.852 0.28195 0.0
H1471 H 0.64841 0.80507 0.10174 0.0
H1472 H 0.65857 0.813 0.16609 0.0
H1473 H 0.64911 0.86827 0.1956 0.0
H1474 H 0.65344 0.8829 0.39459 0.0
H1475 H 0.64573 0.87448 0.32873 0.0
C1476 C 0.1402 0.68747 0.37533 0.0
C1477 C 0.12933 0.67669 0.39641 0.0
C1478 C 0.14525 0.68313 0.33773 0.0
C1479 C 0.13371 0.65805 0.25282 0.0
H1480 H 0.18223 0.65464 0.23362 0.0
C1481 C 0.15874 0.62556 0.11545 0.0
C1482 C 0.17312 0.6325 0.09718 0.0
C1483 C 0.15387 0.6311 0.15224 0.0
C1484 C 0.16864 0.65578 0.23818 0.0
H1485 H 0.11463 0.65334 0.39415 0.0
H1486 H 0.12308 0.64604 0.32805 0.0
H1487 H 0.17205 0.66536 0.29589 0.0
H1488 H 0.19389 0.65043 0.10334 0.0
H1489 H 0.18512 0.66056 0.16713 0.0
H1490 H 0.13013 0.64891 0.19512 0.0
C1491 C 0.12783 0.65772 0.34081 0.0
C1492 C 0.16285 0.66189 0.27388 0.0
C1493 C 0.12304 0.66187 0.37861 0.0
C1494 C 0.18284 0.64475 0.11691 0.0
C1495 C 0.17779 0.65053 0.15352 0.0
C1496 C 0.13948 0.65221 0.21693 0.0
C1497 C 0.13923 0.66813 0.32035 0.0
C1498 C 0.14534 0.66287 0.28163 0.0
C1499 C 0.16307 0.64396 0.17139 0.0
C1500 C 0.15703 0.65075 0.2093 0.0
H1501 H 0.14535 0.69891 0.38841 0.0
H1502 H 0.154 0.69138 0.32236 0.0
H1503 H 0.12014 0.65885 0.25804 0.0
H1504 H 0.15109 0.61597 0.10108 0.0
H1505 H 0.14277 0.62537 0.16549 0.0
C1506 C 0.34502 0.1399 0.39653 0.0
C1507 C 0.32797 0.1364 0.40603 0.0
C1508 C 0.34936 0.14574 0.35977 0.0
C1509 C 0.3324 0.16567 0.27112 0.0
H1510 H 0.37247 0.14528 0.22463 0.0
C1511 C 0.36635 0.15855 0.11251 0.0
C1512 C 0.36621 0.17548 0.09928 0.0
C1513 C 0.36165 0.15467 0.15039 0.0
C1514 C 0.36121 0.15105 0.23711 0.0
H1515 H 0.30204 0.13669 0.38436 0.0
H1516 H 0.30975 0.14665 0.31945 0.0
H1517 H 0.36367 0.13658 0.28915 0.0
H1518 H 0.36102 0.20164 0.11581 0.0
H1519 H 0.35297 0.19479 0.18252 0.0
H1520 H 0.32978 0.17983 0.2183 0.0
C1521 C 0.31969 0.14501 0.34088 0.0
C1522 C 0.35626 0.14619 0.27426 0.0
C1523 C 0.3153 0.13919 0.37793 0.0
C1524 C 0.36134 0.18847 0.12508 0.0
C1525 C 0.35659 0.18455 0.16316 0.0
C1526 C 0.33737 0.17055 0.23378 0.0
C1527 C 0.33681 0.14816 0.33136 0.0
C1528 C 0.34181 0.15343 0.2917 0.0
C1529 C 0.35672 0.16759 0.17614 0.0
C1530 C 0.35177 0.16319 0.21635 0.0
H1531 H 0.35513 0.13817 0.41753 0.0
H1532 H 0.36262 0.1484 0.35361 0.0
H1533 H 0.32129 0.17156 0.28398 0.0
H1534 H 0.36993 0.14817 0.09351 0.0
H1535 H 0.36163 0.14145 0.15934 0.0
loop_
_geom_bond_atom_site_label_1
_geom_bond_atom_site_label_2
_geom_bond_distance
_geom_bond_site_symmetry_2
_ccdc_geom_bond_type
Mn0 O5 2.095 1_554 S
Mn0 O15 2.162 1_554 S
Mn0 O16 2.297 . S
Mn0 O24 2.385 . S
Mn0 O25 2.209 . S
Mn0 O26 2.094 . S
Mn1 O6 2.121 1_554 S
Mn1 N8 2.257 . S
Mn1 N17 2.282 . S
Mn1 O25 2.215 . S
Mn1 O27 2.117 . S
C2 O24 1.234 . S
C2 O25 1.283 . S
C3 O15 1.281 1_554 S
C3 O16 1.236 . S
C4 O26 1.240 . S
C4 O27 1.264 . S
O5 Mn0 2.095 1_556 S
O5 C14 1.250 . S
O6 Mn1 2.121 1_556 S
O6 C14 1.258 . S
C7 N8 1.326 1_556 S
C7 C11 1.460 1_556 S
C7 H13 0.929 . S
N8 Mn1 2.257 . S
N8 C7 1.326 1_554 S
N8 C12 1.362 . S
C9 C10 1.258 . S
C9 C12 1.431 . S
C9 C29 1.449 . S
C10 C9 1.258 . S
C10 C11 1.477 . S
C10 H30 0.931 . S
C11 C7 1.460 1_554 S
C11 C10 1.477 . S
C11 H31 0.930 1_554 S
C12 N8 1.362 . S
C12 C9 1.431 . S
C12 C22 1.476 . S
H13 C7 0.929 . S
C14 O5 1.250 . S
C14 O6 1.258 . S
O15 Mn0 2.162 1_556 S
O15 C3 1.281 1_556 S
O16 Mn0 2.297 . S
O16 C3 1.236 . S
N17 Mn1 2.282 . S
N17 C18 1.328 . S
N17 C22 1.318 . S
C18 N17 1.328 . S
C18 C19 1.457 . S
C18 H23 0.929 . S
C19 C18 1.457 . S
C19 C20 1.291 . S
C19 H32 0.931 . S
C20 C19 1.291 . S
C20 C21 1.373 . S
C20 H33 0.929 . S
C21 C20 1.373 . S
C21 C22 1.396 . S
C21 C28 1.403 . S
C22 C12 1.476 . S
C22 N17 1.318 . S
C22 C21 1.396 . S
H23 C18 0.929 . S
O24 Mn0 2.385 . S
O24 C2 1.234 . S
O25 Mn0 2.209 . S
O25 Mn1 2.215 . S
O25 C2 1.283 . S
O26 Mn0 2.094 . S
O26 C4 1.240 . S
O27 Mn1 2.117 . S
O27 C4 1.264 . S
C28 C21 1.403 . S
C28 C29 1.399 . S
C28 H34 0.929 . S
C29 C9 1.449 . S
C29 C28 1.399 . S
C29 H35 0.930 . S
H30 C10 0.931 . S
H31 C11 0.930 1_556 S
H32 C19 0.931 . S
H33 C20 0.929 . S
H34 C28 0.929 . S
H35 C29 0.930 . S
Mn36 O41 2.095 1_554 S
Mn36 O51 2.162 1_554 S
Mn36 O52 2.297 . S
Mn36 O60 2.385 . S
Mn36 O61 2.209 . S
Mn36 O62 2.094 . S
Mn37 O42 2.121 1_554 S
Mn37 N44 2.257 . S
Mn37 N53 2.282 . S
Mn37 O61 2.215 . S
Mn37 O63 2.117 . S
C38 O60 1.234 . S
C38 O61 1.283 . S
C39 O51 1.281 1_554 S
C39 O52 1.236 . S
C40 O62 1.240 . S
C40 O63 1.264 . S
O41 Mn36 2.095 1_556 S
O41 C50 1.250 . S
O42 Mn37 2.121 1_556 S
O42 C50 1.258 . S
C43 N44 1.326 1_556 S
C43 C47 1.460 1_556 S
C43 H49 0.929 . S
N44 Mn37 2.257 . S
N44 C43 1.326 1_554 S
N44 C48 1.362 . S
C45 C46 1.258 . S
C45 C48 1.431 . S
C45 C65 1.449 . S
C46 C45 1.258 . S
C46 C47 1.477 . S
C46 H66 0.931 . S
C47 C43 1.460 1_554 S
C47 C46 1.477 . S
C47 H67 0.930 1_554 S
C48 N44 1.362 . S
C48 C45 1.431 . S
C48 C58 1.476 . S
H49 C43 0.929 . S
C50 O41 1.250 . S
C50 O42 1.258 . S
O51 Mn36 2.162 1_556 S
O51 C39 1.281 1_556 S
O52 Mn36 2.297 . S
O52 C39 1.236 . S
N53 Mn37 2.282 . S
N53 C54 1.328 . S
N53 C58 1.318 . S
C54 N53 1.328 . S
C54 C55 1.457 . S
C54 H59 0.929 . S
C55 C54 1.457 . S
C55 C56 1.291 . S
C55 H68 0.931 . S
C56 C55 1.291 . S
C56 C57 1.373 . S
C56 H69 0.929 . S
C57 C56 1.373 . S
C57 C58 1.396 . S
C57 C64 1.403 . S
C58 C48 1.476 . S
C58 N53 1.318 . S
C58 C57 1.396 . S
H59 C54 0.929 . S
O60 Mn36 2.385 . S
O60 C38 1.234 . S
O61 Mn36 2.209 . S
O61 Mn37 2.215 . S
O61 C38 1.283 . S
O62 Mn36 2.094 . S
O62 C40 1.240 . S
O63 Mn37 2.117 . S
O63 C40 1.264 . S
C64 C57 1.403 . S
C64 C65 1.399 . S
C64 H70 0.929 . S
C65 C45 1.449 . S
C65 C64 1.399 . S
C65 H71 0.930 . S
H66 C46 0.931 . S
H67 C47 0.930 1_556 S
H68 C55 0.931 . S
H69 C56 0.929 . S
H70 C64 0.929 . S
H71 C65 0.930 . S
Mn72 O77 2.095 1_554 S
Mn72 O87 2.162 1_554 S
Mn72 O88 2.297 . S
Mn72 O96 2.385 . S
Mn72 O97 2.209 . S
Mn72 O98 2.094 . S
Mn73 O78 2.121 1_554 S
Mn73 N80 2.257 . S
Mn73 N89 2.282 . S
Mn73 O97 2.215 . S
Mn73 O99 2.117 . S
C74 O96 1.234 . S
C74 O97 1.283 . S
C75 O87 1.281 1_554 S
C75 O88 1.236 . S
C76 O98 1.240 . S
C76 O99 1.264 . S
O77 Mn72 2.095 1_556 S
O77 C86 1.250 . S
O78 Mn73 2.121 1_556 S
O78 C86 1.258 . S
C79 N80 1.326 1_556 S
C79 C83 1.460 1_556 S
C79 H85 0.929 . S
N80 Mn73 2.257 . S
N80 C79 1.326 1_554 S
N80 C84 1.362 . S
C81 C82 1.258 . S
C81 C84 1.431 . S
C81 C101 1.449 . S
C82 C81 1.258 . S
C82 C83 1.477 . S
C82 H102 0.931 . S
C83 C79 1.460 1_554 S
C83 C82 1.477 . S
C83 H103 0.930 1_554 S
C84 N80 1.362 . S
C84 C81 1.431 . S
C84 C94 1.476 . S
H85 C79 0.929 . S
C86 O77 1.250 . S
C86 O78 1.258 . S
O87 Mn72 2.162 1_556 S
O87 C75 1.281 1_556 S
O88 Mn72 2.297 . S
O88 C75 1.236 . S
N89 Mn73 2.282 . S
N89 C90 1.328 . S
N89 C94 1.318 . S
C90 N89 1.328 . S
C90 C91 1.457 . S
C90 H95 0.929 . S
C91 C90 1.457 . S
C91 C92 1.291 . S
C91 H104 0.931 . S
C92 C91 1.291 . S
C92 C93 1.373 . S
C92 H105 0.929 . S
C93 C92 1.373 . S
C93 C94 1.396 . S
C93 C100 1.403 . S
C94 C84 1.476 . S
C94 N89 1.318 . S
C94 C93 1.396 . S
H95 C90 0.929 . S
O96 Mn72 2.385 . S
O96 C74 1.234 . S
O97 Mn72 2.209 . S
O97 Mn73 2.215 . S
O97 C74 1.283 . S
O98 Mn72 2.094 . S
O98 C76 1.240 . S
O99 Mn73 2.117 . S
O99 C76 1.264 . S
C100 C93 1.403 . S
C100 C101 1.399 . S
C100 H106 0.929 . S
C101 C81 1.449 . S
C101 C100 1.399 . S
C101 H107 0.930 . S
H102 C82 0.931 . S
H103 C83 0.930 1_556 S
H104 C91 0.931 . S
H105 C92 0.929 . S
H106 C100 0.929 . S
H107 C101 0.930 . S
Mn108 O113 2.095 1_554 S
Mn108 O123 2.162 1_554 S
Mn108 O124 2.297 . S
Mn108 O132 2.385 . S
Mn108 O133 2.209 . S
Mn108 O134 2.094 . S
Mn109 O114 2.121 1_554 S
Mn109 N116 2.257 . S
Mn109 N125 2.282 . S
Mn109 O133 2.215 . S
Mn109 O135 2.117 . S
C110 O132 1.234 . S
C110 O133 1.283 . S
C111 O123 1.281 1_554 S
C111 O124 1.236 . S
C112 O134 1.240 . S
C112 O135 1.264 . S
O113 Mn108 2.095 1_556 S
O113 C122 1.250 . S
O114 Mn109 2.121 1_556 S
O114 C122 1.258 . S
C115 N116 1.326 1_556 S
C115 C119 1.460 1_556 S
C115 H121 0.929 . S
N116 Mn109 2.257 . S
N116 C115 1.326 1_554 S
N116 C120 1.362 . S
C117 C118 1.258 . S
C117 C120 1.431 . S
C117 C137 1.449 . S
C118 C117 1.258 . S
C118 C119 1.477 . S
C118 H138 0.931 . S
C119 C115 1.460 1_554 S
C119 C118 1.477 . S
C119 H139 0.930 1_554 S
C120 N116 1.362 . S
C120 C117 1.431 . S
C120 C130 1.476 . S
H121 C115 0.929 . S
C122 O113 1.250 . S
C122 O114 1.258 . S
O123 Mn108 2.162 1_556 S
O123 C111 1.281 1_556 S
O124 Mn108 2.297 . S
O124 C111 1.236 . S
N125 Mn109 2.282 . S
N125 C126 1.328 . S
N125 C130 1.318 . S
C126 N125 1.328 . S
C126 C127 1.457 . S
C126 H131 0.929 . S
C127 C126 1.457 . S
C127 C128 1.291 . S
C127 H140 0.931 . S
C128 C127 1.291 . S
C128 C129 1.373 . S
C128 H141 0.929 . S
C129 C128 1.373 . S
C129 C130 1.396 . S
C129 C136 1.403 . S
C130 C120 1.476 . S
C130 N125 1.318 . S
C130 C129 1.396 . S
H131 C126 0.929 . S
O132 Mn108 2.385 . S
O132 C110 1.234 . S
O133 Mn108 2.209 . S
O133 Mn109 2.215 . S
O133 C110 1.283 . S
O134 Mn108 2.094 . S
O134 C112 1.240 . S
O135 Mn109 2.117 . S
O135 C112 1.264 . S
C136 C129 1.403 . S
C136 C137 1.399 . S
C136 H142 0.929 . S
C137 C117 1.449 . S
C137 C136 1.399 . S
C137 H143 0.930 . S
H138 C118 0.931 . S
H139 C119 0.930 1_556 S
H140 C127 0.931 . S
H141 C128 0.929 . S
H142 C136 0.929 . S
H143 C137 0.930 . S
Mn144 O149 2.091 1_556 S
Mn144 O159 2.161 1_556 S
Mn144 O160 2.297 . S
Mn144 O168 2.390 . S
Mn144 O169 2.211 . S
Mn144 O170 2.094 . S
Mn145 O150 2.121 1_556 S
Mn145 N152 2.257 . S
Mn145 N161 2.282 . S
Mn145 O169 2.215 . S
Mn145 O171 2.117 . S
C146 O168 1.234 . S
C146 O169 1.283 . S
C147 O159 1.282 . S
C147 O160 1.235 1_554 S
C148 O170 1.240 1_554 S
C148 O171 1.264 1_554 S
O149 Mn144 2.091 1_554 S
O149 C158 1.250 . S
O150 Mn145 2.121 1_554 S
O150 C158 1.258 . S
C151 N152 1.326 1_554 S
C151 C155 1.460 1_554 S
C151 H157 0.929 . S
N152 Mn145 2.257 . S
N152 C151 1.326 1_556 S
N152 C156 1.362 . S
C153 C154 1.258 . S
C153 C156 1.431 . S
C153 C173 1.449 . S
C154 C153 1.258 . S
C154 C155 1.477 . S
C154 H174 0.931 . S
C155 C151 1.460 1_556 S
C155 C154 1.477 . S
C155 H175 0.930 1_556 S
C156 N152 1.362 . S
C156 C153 1.431 . S
C156 C166 1.476 . S
H157 C151 0.929 . S
C158 O149 1.250 . S
C158 O150 1.258 . S
O159 Mn144 2.161 1_554 S
O159 C147 1.282 . S
O160 Mn144 2.297 . S
O160 C147 1.235 1_556 S
N161 Mn145 2.282 . S
N161 C162 1.328 . S
N161 C166 1.318 . S
C162 N161 1.328 . S
C162 C163 1.457 . S
C162 H167 0.929 . S
C163 C162 1.457 . S
C163 C164 1.291 . S
C163 H176 0.931 . S
C164 C163 1.291 . S
C164 C165 1.373 . S
C164 H177 0.929 . S
C165 C164 1.373 . S
C165 C166 1.396 . S
C165 C172 1.403 . S
C166 C156 1.476 . S
C166 N161 1.318 . S
C166 C165 1.396 . S
H167 C162 0.929 . S
O168 Mn144 2.390 . S
O168 C146 1.234 . S
O169 Mn144 2.211 . S
O169 Mn145 2.215 . S
O169 C146 1.283 . S
O170 Mn144 2.094 . S
O170 C148 1.240 1_556 S
O171 Mn145 2.117 . S
O171 C148 1.264 1_556 S
C172 C165 1.403 . S
C172 C173 1.399 . S
C172 H178 0.929 . S
C173 C153 1.449 . S
C173 C172 1.399 . S
C173 H179 0.930 . S
H174 C154 0.931 . S
H175 C155 0.930 1_554 S
H176 C163 0.931 . S
H177 C164 0.929 . S
H178 C172 0.929 . S
H179 C173 0.930 . S
Mn180 O185 2.091 1_556 S
Mn180 O195 2.161 1_556 S
Mn180 O196 2.297 . S
Mn180 O204 2.390 . S
Mn180 O205 2.211 . S
Mn180 O206 2.094 . S
Mn181 O186 2.121 1_556 S
Mn181 N188 2.257 . S
Mn181 N197 2.282 . S
Mn181 O205 2.215 . S
Mn181 O207 2.117 . S
C182 O204 1.234 . S
C182 O205 1.283 . S
C183 O195 1.282 . S
C183 O196 1.235 1_554 S
C184 O206 1.240 1_554 S
C184 O207 1.264 1_554 S
O185 Mn180 2.091 1_554 S
O185 C194 1.250 . S
O186 Mn181 2.121 1_554 S
O186 C194 1.258 . S
C187 N188 1.326 1_554 S
C187 C191 1.460 1_554 S
C187 H193 0.929 . S
N188 Mn181 2.257 . S
N188 C187 1.326 1_556 S
N188 C192 1.362 . S
C189 C190 1.258 . S
C189 C192 1.431 . S
C189 C209 1.449 . S
C190 C189 1.258 . S
C190 C191 1.477 . S
C190 H210 0.931 . S
C191 C187 1.460 1_556 S
C191 C190 1.477 . S
C191 H211 0.930 1_556 S
C192 N188 1.362 . S
C192 C189 1.431 . S
C192 C202 1.476 . S
H193 C187 0.929 . S
C194 O185 1.250 . S
C194 O186 1.258 . S
O195 Mn180 2.161 1_554 S
O195 C183 1.282 . S
O196 Mn180 2.297 . S
O196 C183 1.235 1_556 S
N197 Mn181 2.282 . S
N197 C198 1.328 . S
N197 C202 1.318 . S
C198 N197 1.328 . S
C198 C199 1.457 . S
C198 H203 0.929 . S
C199 C198 1.457 . S
C199 C200 1.291 . S
C199 H212 0.931 . S
C200 C199 1.291 . S
C200 C201 1.373 . S
C200 H213 0.929 . S
C201 C200 1.373 . S
C201 C202 1.396 . S
C201 C208 1.403 . S
C202 C192 1.476 . S
C202 N197 1.318 . S
C202 C201 1.396 . S
H203 C198 0.929 . S
O204 Mn180 2.390 . S
O204 C182 1.234 . S
O205 Mn180 2.211 . S
O205 Mn181 2.215 . S
O205 C182 1.283 . S
O206 Mn180 2.094 . S
O206 C184 1.240 1_556 S
O207 Mn181 2.117 . S
O207 C184 1.264 1_556 S
C208 C201 1.403 . S
C208 C209 1.399 . S
C208 H214 0.929 . S
C209 C189 1.449 . S
C209 C208 1.399 . S
C209 H215 0.930 . S
H210 C190 0.931 . S
H211 C191 0.930 1_554 S
H212 C199 0.931 . S
H213 C200 0.929 . S
H214 C208 0.929 . S
H215 C209 0.930 . S
Mn216 O221 2.091 1_556 S
Mn216 O231 2.161 1_556 S
Mn216 O232 2.297 . S
Mn216 O240 2.390 . S
Mn216 O241 2.211 . S
Mn216 O242 2.094 . S
Mn217 O222 2.121 1_556 S
Mn217 N224 2.257 . S
Mn217 N233 2.282 . S
Mn217 O241 2.215 . S
Mn217 O243 2.117 . S
C218 O240 1.234 . S
C218 O241 1.283 . S
C219 O231 1.282 . S
C219 O232 1.235 1_554 S
C220 O242 1.240 1_554 S
C220 O243 1.264 1_554 S
O221 Mn216 2.091 1_554 S
O221 C230 1.250 . S
O222 Mn217 2.121 1_554 S
O222 C230 1.258 . S
C223 N224 1.326 1_554 S
C223 C227 1.460 1_554 S
C223 H229 0.929 . S
N224 Mn217 2.257 . S
N224 C223 1.326 1_556 S
N224 C228 1.362 . S
C225 C226 1.258 . S
C225 C228 1.431 . S
C225 C245 1.449 . S
C226 C225 1.258 . S
C226 C227 1.477 . S
C226 H246 0.931 . S
C227 C223 1.460 1_556 S
C227 C226 1.477 . S
C227 H247 0.930 1_556 S
C228 N224 1.362 . S
C228 C225 1.431 . S
C228 C238 1.476 . S
H229 C223 0.929 . S
C230 O221 1.250 . S
C230 O222 1.258 . S
O231 Mn216 2.161 1_554 S
O231 C219 1.282 . S
O232 Mn216 2.297 . S
O232 C219 1.235 1_556 S
N233 Mn217 2.282 . S
N233 C234 1.328 . S
N233 C238 1.318 . S
C234 N233 1.328 . S
C234 C235 1.457 . S
C234 H239 0.929 . S
C235 C234 1.457 . S
C235 C236 1.291 . S
C235 H248 0.931 . S
C236 C235 1.291 . S
C236 C237 1.373 . S
C236 H249 0.929 . S
C237 C236 1.373 . S
C237 C238 1.396 . S
C237 C244 1.403 . S
C238 C228 1.476 . S
C238 N233 1.318 . S
C238 C237 1.396 . S
H239 C234 0.929 . S
O240 Mn216 2.390 . S
O240 C218 1.234 . S
O241 Mn216 2.211 . S
O241 Mn217 2.215 . S
O241 C218 1.283 . S
O242 Mn216 2.094 . S
O242 C220 1.240 1_556 S
O243 Mn217 2.117 . S
O243 C220 1.264 1_556 S
C244 C237 1.403 . S
C244 C245 1.399 . S
C244 H250 0.929 . S
C245 C225 1.449 . S
C245 C244 1.399 . S
C245 H251 0.930 . S
H246 C226 0.931 . S
H247 C227 0.930 1_554 S
H248 C235 0.931 . S
H249 C236 0.929 . S
H250 C244 0.929 . S
H251 C245 0.930 . S
Mn252 O257 2.091 1_556 S
Mn252 O267 2.161 1_556 S
Mn252 O268 2.297 . S
Mn252 O276 2.390 . S
Mn252 O277 2.211 . S
Mn252 O278 2.094 . S
Mn253 O258 2.121 1_556 S
Mn253 N260 2.257 . S
Mn253 N269 2.282 . S
Mn253 O277 2.215 . S
Mn253 O279 2.117 . S
C254 O276 1.234 . S
C254 O277 1.283 . S
C255 O267 1.282 . S
C255 O268 1.235 1_554 S
C256 O278 1.240 1_554 S
C256 O279 1.264 1_554 S
O257 Mn252 2.091 1_554 S
O257 C266 1.250 . S
O258 Mn253 2.121 1_554 S
O258 C266 1.258 . S
C259 N260 1.326 1_554 S
C259 C263 1.460 1_554 S
C259 H265 0.929 . S
N260 Mn253 2.257 . S
N260 C259 1.326 1_556 S
N260 C264 1.362 . S
C261 C262 1.258 . S
C261 C264 1.431 . S
C261 C281 1.449 . S
C262 C261 1.258 . S
C262 C263 1.477 . S
C262 H282 0.931 . S
C263 C259 1.460 1_556 S
C263 C262 1.477 . S
C263 H283 0.930 1_556 S
C264 N260 1.362 . S
C264 C261 1.431 . S
C264 C274 1.476 . S
H265 C259 0.929 . S
C266 O257 1.250 . S
C266 O258 1.258 . S
O267 Mn252 2.161 1_554 S
O267 C255 1.282 . S
O268 Mn252 2.297 . S
O268 C255 1.235 1_556 S
N269 Mn253 2.282 . S
N269 C270 1.328 . S
N269 C274 1.318 . S
C270 N269 1.328 . S
C270 C271 1.457 . S
C270 H275 0.929 . S
C271 C270 1.457 . S
C271 C272 1.291 . S
C271 H284 0.931 . S
C272 C271 1.291 . S
C272 C273 1.373 . S
C272 H285 0.929 . S
C273 C272 1.373 . S
C273 C274 1.396 . S
C273 C280 1.403 . S
C274 C264 1.476 . S
C274 N269 1.318 . S
C274 C273 1.396 . S
H275 C270 0.929 . S
O276 Mn252 2.390 . S
O276 C254 1.234 . S
O277 Mn252 2.211 . S
O277 Mn253 2.215 . S
O277 C254 1.283 . S
O278 Mn252 2.094 . S
O278 C256 1.240 1_556 S
O279 Mn253 2.117 . S
O279 C256 1.264 1_556 S
C280 C273 1.403 . S
C280 C281 1.399 . S
C280 H286 0.929 . S
C281 C261 1.449 . S
C281 C280 1.399 . S
C281 H287 0.930 . S
H282 C262 0.931 . S
H283 C263 0.930 1_554 S
H284 C271 0.931 . S
H285 C272 0.929 . S
H286 C280 0.929 . S
H287 C281 0.930 . S
Mn288 O293 2.095 . S
Mn288 O303 2.162 . S
Mn288 O304 2.297 . S
Mn288 O312 2.385 . S
Mn288 O313 2.209 . S
Mn288 O314 2.094 . S
Mn289 O294 2.121 . S
Mn289 N296 2.257 . S
Mn289 N305 2.282 . S
Mn289 O313 2.215 . S
Mn289 O315 2.117 . S
C290 O312 1.234 . S
C290 O313 1.283 . S
C291 O303 1.281 . S
C291 O304 1.236 . S
C292 O314 1.240 . S
C292 O315 1.264 . S
O293 Mn288 2.095 . S
O293 C302 1.250 . S
O294 Mn289 2.121 . S
O294 C302 1.258 . S
C295 N296 1.326 . S
C295 C299 1.460 . S
C295 H301 0.929 . S
N296 Mn289 2.257 . S
N296 C295 1.326 . S
N296 C300 1.362 . S
C297 C298 1.258 . S
C297 C300 1.431 . S
C297 C317 1.449 . S
C298 C297 1.258 . S
C298 C299 1.477 . S
C298 H318 0.931 . S
C299 C295 1.460 . S
C299 C298 1.477 . S
C299 H319 0.930 . S
C300 N296 1.362 . S
C300 C297 1.431 . S
C300 C310 1.476 . S
H301 C295 0.929 . S
C302 O293 1.250 . S
C302 O294 1.258 . S
O303 Mn288 2.162 . S
O303 C291 1.281 . S
O304 Mn288 2.297 . S
O304 C291 1.236 . S
N305 Mn289 2.282 . S
N305 C306 1.328 . S
N305 C310 1.318 . S
C306 N305 1.328 . S
C306 C307 1.457 . S
C306 H311 0.929 . S
C307 C306 1.457 . S
C307 C308 1.291 . S
C307 H320 0.931 . S
C308 C307 1.291 . S
C308 C309 1.373 . S
C308 H321 0.929 . S
C309 C308 1.373 . S
C309 C310 1.396 . S
C309 C316 1.403 . S
C310 C300 1.476 . S
C310 N305 1.318 . S
C310 C309 1.396 . S
H311 C306 0.929 . S
O312 Mn288 2.385 . S
O312 C290 1.234 . S
O313 Mn288 2.209 . S
O313 Mn289 2.215 . S
O313 C290 1.283 . S
O314 Mn288 2.094 . S
O314 C292 1.240 . S
O315 Mn289 2.117 . S
O315 C292 1.264 . S
C316 C309 1.403 . S
C316 C317 1.399 . S
C316 H322 0.929 . S
C317 C297 1.449 . S
C317 C316 1.399 . S
C317 H323 0.930 . S
H318 C298 0.931 . S
H319 C299 0.930 . S
H320 C307 0.931 . S
H321 C308 0.929 . S
H322 C316 0.929 . S
H323 C317 0.930 . S
Mn324 O329 2.095 . S
Mn324 O339 2.162 . S
Mn324 O340 2.297 . S
Mn324 O348 2.385 . S
Mn324 O349 2.209 . S
Mn324 O350 2.094 . S
Mn325 O330 2.121 . S
Mn325 N332 2.257 . S
Mn325 N341 2.282 . S
Mn325 O349 2.215 . S
Mn325 O351 2.117 . S
C326 O348 1.234 . S
C326 O349 1.283 . S
C327 O339 1.281 . S
C327 O340 1.236 . S
C328 O350 1.240 . S
C328 O351 1.264 . S
O329 Mn324 2.095 . S
O329 C338 1.250 . S
O330 Mn325 2.121 . S
O330 C338 1.258 . S
C331 N332 1.326 . S
C331 C335 1.460 . S
C331 H337 0.929 . S
N332 Mn325 2.257 . S
N332 C331 1.326 . S
N332 C336 1.362 . S
C333 C334 1.258 . S
C333 C336 1.431 . S
C333 C353 1.449 . S
C334 C333 1.258 . S
C334 C335 1.477 . S
C334 H354 0.931 . S
C335 C331 1.460 . S
C335 C334 1.477 . S
C335 H355 0.930 . S
C336 N332 1.362 . S
C336 C333 1.431 . S
C336 C346 1.476 . S
H337 C331 0.929 . S
C338 O329 1.250 . S
C338 O330 1.258 . S
O339 Mn324 2.162 . S
O339 C327 1.281 . S
O340 Mn324 2.297 . S
O340 C327 1.236 . S
N341 Mn325 2.282 . S
N341 C342 1.328 . S
N341 C346 1.318 . S
C342 N341 1.328 . S
C342 C343 1.457 . S
C342 H347 0.929 . S
C343 C342 1.457 . S
C343 C344 1.291 . S
C343 H356 0.931 . S
C344 C343 1.291 . S
C344 C345 1.373 . S
C344 H357 0.929 . S
C345 C344 1.373 . S
C345 C346 1.396 . S
C345 C352 1.403 . S
C346 C336 1.476 . S
C346 N341 1.318 . S
C346 C345 1.396 . S
H347 C342 0.929 . S
O348 Mn324 2.385 . S
O348 C326 1.234 . S
O349 Mn324 2.209 . S
O349 Mn325 2.215 . S
O349 C326 1.283 . S
O350 Mn324 2.094 . S
O350 C328 1.240 . S
O351 Mn325 2.117 . S
O351 C328 1.264 . S
C352 C345 1.403 . S
C352 C353 1.399 . S
C352 H358 0.929 . S
C353 C333 1.449 . S
C353 C352 1.399 . S
C353 H359 0.930 . S
H354 C334 0.931 . S
H355 C335 0.930 . S
H356 C343 0.931 . S
H357 C344 0.929 . S
H358 C352 0.929 . S
H359 C353 0.930 . S
Mn360 O365 2.095 . S
Mn360 O375 2.162 . S
Mn360 O376 2.297 . S
Mn360 O384 2.385 . S
Mn360 O385 2.209 . S
Mn360 O386 2.094 . S
Mn361 O366 2.121 . S
Mn361 N368 2.257 . S
Mn361 N377 2.282 . S
Mn361 O385 2.215 . S
Mn361 O387 2.117 . S
C362 O384 1.234 . S
C362 O385 1.283 . S
C363 O375 1.281 . S
C363 O376 1.236 . S
C364 O386 1.240 . S
C364 O387 1.264 . S
O365 Mn360 2.095 . S
O365 C374 1.250 . S
O366 Mn361 2.121 . S
O366 C374 1.258 . S
C367 N368 1.326 . S
C367 C371 1.460 . S
C367 H373 0.929 . S
N368 Mn361 2.257 . S
N368 C367 1.326 . S
N368 C372 1.362 . S
C369 C370 1.258 . S
C369 C372 1.431 . S
C369 C389 1.449 . S
C370 C369 1.258 . S
C370 C371 1.477 . S
C370 H390 0.931 . S
C371 C367 1.460 . S
C371 C370 1.477 . S
C371 H391 0.930 . S
C372 N368 1.362 . S
C372 C369 1.431 . S
C372 C382 1.476 . S
H373 C367 0.929 . S
C374 O365 1.250 . S
C374 O366 1.258 . S
O375 Mn360 2.162 . S
O375 C363 1.281 . S
O376 Mn360 2.297 . S
O376 C363 1.236 . S
N377 Mn361 2.282 . S
N377 C378 1.328 . S
N377 C382 1.318 . S
C378 N377 1.328 . S
C378 C379 1.457 . S
C378 H383 0.929 . S
C379 C378 1.457 . S
C379 C380 1.291 . S
C379 H392 0.931 . S
C380 C379 1.291 . S
C380 C381 1.373 . S
C380 H393 0.929 . S
C381 C380 1.373 . S
C381 C382 1.396 . S
C381 C388 1.403 . S
C382 C372 1.476 . S
C382 N377 1.318 . S
C382 C381 1.396 . S
H383 C378 0.929 . S
O384 Mn360 2.385 . S
O384 C362 1.234 . S
O385 Mn360 2.209 . S
O385 Mn361 2.215 . S
O385 C362 1.283 . S
O386 Mn360 2.094 . S
O386 C364 1.240 . S
O387 Mn361 2.117 . S
O387 C364 1.264 . S
C388 C381 1.403 . S
C388 C389 1.399 . S
C388 H394 0.929 . S
C389 C369 1.449 . S
C389 C388 1.399 . S
C389 H395 0.930 . S
H390 C370 0.931 . S
H391 C371 0.930 . S
H392 C379 0.931 . S
H393 C380 0.929 . S
H394 C388 0.929 . S
H395 C389 0.930 . S
Mn396 O401 2.095 . S
Mn396 O411 2.162 . S
Mn396 O412 2.297 . S
Mn396 O420 2.385 . S
Mn396 O421 2.209 . S
Mn396 O422 2.094 . S
Mn397 O402 2.121 . S
Mn397 N404 2.257 . S
Mn397 N413 2.282 . S
Mn397 O421 2.215 . S
Mn397 O423 2.117 . S
C398 O420 1.234 . S
C398 O421 1.283 . S
C399 O411 1.281 . S
C399 O412 1.236 . S
C400 O422 1.240 . S
C400 O423 1.264 . S
O401 Mn396 2.095 . S
O401 C410 1.250 . S
O402 Mn397 2.121 . S
O402 C410 1.258 . S
C403 N404 1.326 . S
C403 C407 1.460 . S
C403 H409 0.929 . S
N404 Mn397 2.257 . S
N404 C403 1.326 . S
N404 C408 1.362 . S
C405 C406 1.258 . S
C405 C408 1.431 . S
C405 C425 1.449 . S
C406 C405 1.258 . S
C406 C407 1.477 . S
C406 H426 0.931 . S
C407 C403 1.460 . S
C407 C406 1.477 . S
C407 H427 0.930 . S
C408 N404 1.362 . S
C408 C405 1.431 . S
C408 C418 1.476 . S
H409 C403 0.929 . S
C410 O401 1.250 . S
C410 O402 1.258 . S
O411 Mn396 2.162 . S
O411 C399 1.281 . S
O412 Mn396 2.297 . S
O412 C399 1.236 . S
N413 Mn397 2.282 . S
N413 C414 1.328 . S
N413 C418 1.318 . S
C414 N413 1.328 . S
C414 C415 1.457 . S
C414 H419 0.929 . S
C415 C414 1.457 . S
C415 C416 1.291 . S
C415 H428 0.931 . S
C416 C415 1.291 . S
C416 C417 1.373 . S
C416 H429 0.929 . S
C417 C416 1.373 . S
C417 C418 1.396 . S
C417 C424 1.403 . S
C418 C408 1.476 . S
C418 N413 1.318 . S
C418 C417 1.396 . S
H419 C414 0.929 . S
O420 Mn396 2.385 . S
O420 C398 1.234 . S
O421 Mn396 2.209 . S
O421 Mn397 2.215 . S
O421 C398 1.283 . S
O422 Mn396 2.094 . S
O422 C400 1.240 . S
O423 Mn397 2.117 . S
O423 C400 1.264 . S
C424 C417 1.403 . S
C424 C425 1.399 . S
C424 H430 0.929 . S
C425 C405 1.449 . S
C425 C424 1.399 . S
C425 H431 0.930 . S
H426 C406 0.931 . S
H427 C407 0.930 . S
H428 C415 0.931 . S
H429 C416 0.929 . S
H430 C424 0.929 . S
H431 C425 0.930 . S
Mn432 O437 2.095 . S
Mn432 O447 2.162 . S
Mn432 O448 2.297 . S
Mn432 O456 2.385 . S
Mn432 O457 2.209 . S
Mn432 O458 2.094 . S
Mn433 O438 2.121 . S
Mn433 N440 2.257 . S
Mn433 N449 2.282 . S
Mn433 O457 2.215 . S
Mn433 O459 2.117 . S
C434 O456 1.234 . S
C434 O457 1.283 . S
C435 O447 1.281 . S
C435 O448 1.236 . S
C436 O458 1.240 . S
C436 O459 1.264 . S
O437 Mn432 2.095 . S
O437 C446 1.250 . S
O438 Mn433 2.121 . S
O438 C446 1.258 . S
C439 N440 1.326 . S
C439 C443 1.460 . S
C439 H445 0.929 . S
N440 Mn433 2.257 . S
N440 C439 1.326 . S
N440 C444 1.362 . S
C441 C442 1.258 . S
C441 C444 1.431 . S
C441 C461 1.449 . S
C442 C441 1.258 . S
C442 C443 1.477 . S
C442 H462 0.931 . S
C443 C439 1.460 . S
C443 C442 1.477 . S
C443 H463 0.930 . S
C444 N440 1.362 . S
C444 C441 1.431 . S
C444 C454 1.476 . S
H445 C439 0.929 . S
C446 O437 1.250 . S
C446 O438 1.258 . S
O447 Mn432 2.162 . S
O447 C435 1.281 . S
O448 Mn432 2.297 . S
O448 C435 1.236 . S
N449 Mn433 2.282 . S
N449 C450 1.328 . S
N449 C454 1.318 . S
C450 N449 1.328 . S
C450 C451 1.457 . S
C450 H455 0.929 . S
C451 C450 1.457 . S
C451 C452 1.291 . S
C451 H464 0.931 . S
C452 C451 1.291 . S
C452 C453 1.373 . S
C452 H465 0.929 . S
C453 C452 1.373 . S
C453 C454 1.396 . S
C453 C460 1.403 . S
C454 C444 1.476 . S
C454 N449 1.318 . S
C454 C453 1.396 . S
H455 C450 0.929 . S
O456 Mn432 2.385 . S
O456 C434 1.234 . S
O457 Mn432 2.209 . S
O457 Mn433 2.215 . S
O457 C434 1.283 . S
O458 Mn432 2.094 . S
O458 C436 1.240 . S
O459 Mn433 2.117 . S
O459 C436 1.264 . S
C460 C453 1.403 . S
C460 C461 1.399 . S
C460 H466 0.929 . S
C461 C441 1.449 . S
C461 C460 1.399 . S
C461 H467 0.930 . S
H462 C442 0.931 . S
H463 C443 0.930 . S
H464 C451 0.931 . S
H465 C452 0.929 . S
H466 C460 0.929 . S
H467 C461 0.930 . S
Mn468 O473 2.095 . S
Mn468 O483 2.162 . S
Mn468 O484 2.297 . S
Mn468 O492 2.385 . S
Mn468 O493 2.209 . S
Mn468 O494 2.094 . S
Mn469 O474 2.121 . S
Mn469 N476 2.257 . S
Mn469 N485 2.282 . S
Mn469 O493 2.215 . S
Mn469 O495 2.117 . S
C470 O492 1.234 . S
C470 O493 1.283 . S
C471 O483 1.281 . S
C471 O484 1.236 . S
C472 O494 1.240 . S
C472 O495 1.264 . S
O473 Mn468 2.095 . S
O473 C482 1.250 . S
O474 Mn469 2.121 . S
O474 C482 1.258 . S
C475 N476 1.326 . S
C475 C479 1.460 . S
C475 H481 0.929 . S
N476 Mn469 2.257 . S
N476 C475 1.326 . S
N476 C480 1.362 . S
C477 C478 1.258 . S
C477 C480 1.431 . S
C477 C497 1.449 . S
C478 C477 1.258 . S
C478 C479 1.477 . S
C478 H498 0.931 . S
C479 C475 1.460 . S
C479 C478 1.477 . S
C479 H499 0.930 . S
C480 N476 1.362 . S
C480 C477 1.431 . S
C480 C490 1.476 . S
H481 C475 0.929 . S
C482 O473 1.250 . S
C482 O474 1.258 . S
O483 Mn468 2.162 . S
O483 C471 1.281 . S
O484 Mn468 2.297 . S
O484 C471 1.236 . S
N485 Mn469 2.282 . S
N485 C486 1.328 . S
N485 C490 1.318 . S
C486 N485 1.328 . S
C486 C487 1.457 . S
C486 H491 0.929 . S
C487 C486 1.457 . S
C487 C488 1.291 . S
C487 H500 0.931 . S
C488 C487 1.291 . S
C488 C489 1.373 . S
C488 H501 0.929 . S
C489 C488 1.373 . S
C489 C490 1.396 . S
C489 C496 1.403 . S
C490 C480 1.476 . S
C490 N485 1.318 . S
C490 C489 1.396 . S
H491 C486 0.929 . S
O492 Mn468 2.385 . S
O492 C470 1.234 . S
O493 Mn468 2.209 . S
O493 Mn469 2.215 . S
O493 C470 1.283 . S
O494 Mn468 2.094 . S
O494 C472 1.240 . S
O495 Mn469 2.117 . S
O495 C472 1.264 . S
C496 C489 1.403 . S
C496 C497 1.399 . S
C496 H502 0.929 . S
C497 C477 1.449 . S
C497 C496 1.399 . S
C497 H503 0.930 . S
H498 C478 0.931 . S
H499 C479 0.930 . S
H500 C487 0.931 . S
H501 C488 0.929 . S
H502 C496 0.929 . S
H503 C497 0.930 . S
Mn504 O509 2.095 . S
Mn504 O519 2.162 . S
Mn504 O520 2.297 . S
Mn504 O528 2.385 . S
Mn504 O529 2.209 . S
Mn504 O530 2.094 . S
Mn505 O510 2.121 . S
Mn505 N512 2.257 . S
Mn505 N521 2.282 . S
Mn505 O529 2.215 . S
Mn505 O531 2.117 . S
C506 O528 1.234 . S
C506 O529 1.283 . S
C507 O519 1.281 . S
C507 O520 1.236 . S
C508 O530 1.240 . S
C508 O531 1.264 . S
O509 Mn504 2.095 . S
O509 C518 1.250 . S
O510 Mn505 2.121 . S
O510 C518 1.258 . S
C511 N512 1.326 . S
C511 C515 1.460 . S
C511 H517 0.929 . S
N512 Mn505 2.257 . S
N512 C511 1.326 . S
N512 C516 1.362 . S
C513 C514 1.258 . S
C513 C516 1.431 . S
C513 C533 1.449 . S
C514 C513 1.258 . S
C514 C515 1.477 . S
C514 H534 0.931 . S
C515 C511 1.460 . S
C515 C514 1.477 . S
C515 H535 0.930 . S
C516 N512 1.362 . S
C516 C513 1.431 . S
C516 C526 1.476 . S
H517 C511 0.929 . S
C518 O509 1.250 . S
C518 O510 1.258 . S
O519 Mn504 2.162 . S
O519 C507 1.281 . S
O520 Mn504 2.297 . S
O520 C507 1.236 . S
N521 Mn505 2.282 . S
N521 C522 1.328 . S
N521 C526 1.318 . S
C522 N521 1.328 . S
C522 C523 1.457 . S
C522 H527 0.929 . S
C523 C522 1.457 . S
C523 C524 1.291 . S
C523 H536 0.931 . S
C524 C523 1.291 . S
C524 C525 1.373 . S
C524 H537 0.929 . S
C525 C524 1.373 . S
C525 C526 1.396 . S
C525 C532 1.403 . S
C526 C516 1.476 . S
C526 N521 1.318 . S
C526 C525 1.396 . S
H527 C522 0.929 . S
O528 Mn504 2.385 . S
O528 C506 1.234 . S
O529 Mn504 2.209 . S
O529 Mn505 2.215 . S
O529 C506 1.283 . S
O530 Mn504 2.094 . S
O530 C508 1.240 . S
O531 Mn505 2.117 . S
O531 C508 1.264 . S
C532 C525 1.403 . S
C532 C533 1.399 . S
C532 H538 0.929 . S
C533 C513 1.449 . S
C533 C532 1.399 . S
C533 H539 0.930 . S
H534 C514 0.931 . S
H535 C515 0.930 . S
H536 C523 0.931 . S
H537 C524 0.929 . S
H538 C532 0.929 . S
H539 C533 0.930 . S
Mn540 O545 2.095 . S
Mn540 O555 2.162 . S
Mn540 O556 2.297 . S
Mn540 O564 2.385 . S
Mn540 O565 2.209 . S
Mn540 O566 2.094 . S
Mn541 O546 2.121 . S
Mn541 N548 2.257 . S
Mn541 N557 2.282 . S
Mn541 O565 2.215 . S
Mn541 O567 2.117 . S
C542 O564 1.234 . S
C542 O565 1.283 . S
C543 O555 1.281 . S
C543 O556 1.236 . S
C544 O566 1.240 . S
C544 O567 1.264 . S
O545 Mn540 2.095 . S
O545 C554 1.250 . S
O546 Mn541 2.121 . S
O546 C554 1.258 . S
C547 N548 1.326 . S
C547 C551 1.460 . S
C547 H553 0.929 . S
N548 Mn541 2.257 . S
N548 C547 1.326 . S
N548 C552 1.362 . S
C549 C550 1.258 . S
C549 C552 1.431 . S
C549 C569 1.449 . S
C550 C549 1.258 . S
C550 C551 1.477 . S
C550 H570 0.931 . S
C551 C547 1.460 . S
C551 C550 1.477 . S
C551 H571 0.930 . S
C552 N548 1.362 . S
C552 C549 1.431 . S
C552 C562 1.476 . S
H553 C547 0.929 . S
C554 O545 1.250 . S
C554 O546 1.258 . S
O555 Mn540 2.162 . S
O555 C543 1.281 . S
O556 Mn540 2.297 . S
O556 C543 1.236 . S
N557 Mn541 2.282 . S
N557 C558 1.328 . S
N557 C562 1.318 . S
C558 N557 1.328 . S
C558 C559 1.457 . S
C558 H563 0.929 . S
C559 C558 1.457 . S
C559 C560 1.291 . S
C559 H572 0.931 . S
C560 C559 1.291 . S
C560 C561 1.373 . S
C560 H573 0.929 . S
C561 C560 1.373 . S
C561 C562 1.396 . S
C561 C568 1.403 . S
C562 C552 1.476 . S
C562 N557 1.318 . S
C562 C561 1.396 . S
H563 C558 0.929 . S
O564 Mn540 2.385 . S
O564 C542 1.234 . S
O565 Mn540 2.209 . S
O565 Mn541 2.215 . S
O565 C542 1.283 . S
O566 Mn540 2.094 . S
O566 C544 1.240 . S
O567 Mn541 2.117 . S
O567 C544 1.264 . S
C568 C561 1.403 . S
C568 C569 1.399 . S
C568 H574 0.929 . S
C569 C549 1.449 . S
C569 C568 1.399 . S
C569 H575 0.930 . S
H570 C550 0.931 . S
H571 C551 0.930 . S
H572 C559 0.931 . S
H573 C560 0.929 . S
H574 C568 0.929 . S
H575 C569 0.930 . S
C576 C577 1.349 1_556 S
C576 C578 1.327 . S
C576 H601 0.950 . S
C577 C576 1.349 1_554 S
C577 C593 1.349 . S
C578 C576 1.327 . S
C578 C597 1.429 1_556 S
C578 H602 0.950 . S
C579 C596 1.574 . S
C579 C598 1.368 . S
C579 H603 0.949 . S
H580 C584 0.949 . S
C581 C582 1.349 . S
C581 C583 1.327 . S
C581 H604 0.950 . S
C582 C581 1.349 . S
C582 C594 1.349 1_554 S
C583 C581 1.327 . S
C583 C599 1.429 . S
C583 H605 0.950 . S
C584 H580 0.949 . S
C584 C592 1.574 . S
C584 C600 1.368 1_556 S
H585 C593 0.950 . S
H586 C591 0.950 . S
H587 C592 0.949 . S
H588 C594 0.950 . S
H589 C595 0.950 . S
H590 C596 0.949 . S
C591 H586 0.950 . S
C591 C593 1.327 . S
C591 C597 1.429 . S
C592 C584 1.574 . S
C592 H587 0.949 . S
C592 C598 1.368 1_556 S
C593 C577 1.349 . S
C593 H585 0.950 . S
C593 C591 1.327 . S
C594 C582 1.349 1_556 S
C594 H588 0.950 . S
C594 C595 1.327 . S
C595 H589 0.950 . S
C595 C594 1.327 . S
C595 C599 1.429 1_556 S
C596 C579 1.574 . S
C596 H590 0.949 . S
C596 C600 1.368 . S
C597 C578 1.429 1_554 S
C597 C591 1.429 . S
C597 C598 1.523 . S
C598 C579 1.368 . S
C598 C592 1.368 1_554 S
C598 C597 1.523 . S
C599 C583 1.429 . S
C599 C595 1.429 1_554 S
C599 C600 1.523 . S
C600 C584 1.368 1_554 S
C600 C596 1.368 . S
C600 C599 1.523 . S
H601 C576 0.950 . S
H602 C578 0.950 . S
H603 C579 0.949 . S
H604 C581 0.950 . S
H605 C583 0.950 . S
C606 C607 1.349 1_556 S
C606 C608 1.327 . S
C606 H631 0.950 . S
C607 C606 1.349 1_554 S
C607 C623 1.349 . S
C608 C606 1.327 . S
C608 C627 1.429 1_556 S
C608 H632 0.950 . S
C609 C626 1.574 . S
C609 C628 1.368 . S
C609 H633 0.949 . S
H610 C614 0.949 . S
C611 C612 1.349 . S
C611 C613 1.327 . S
C611 H634 0.950 . S
C612 C611 1.349 . S
C612 C624 1.349 1_554 S
C613 C611 1.327 . S
C613 C629 1.429 . S
C613 H635 0.950 . S
C614 H610 0.949 . S
C614 C622 1.574 . S
C614 C630 1.368 1_556 S
H615 C623 0.950 . S
H616 C621 0.950 . S
H617 C622 0.949 . S
H618 C624 0.950 . S
H619 C625 0.950 . S
H620 C626 0.949 . S
C621 H616 0.950 . S
C621 C623 1.327 . S
C621 C627 1.429 . S
C622 C614 1.574 . S
C622 H617 0.949 . S
C622 C628 1.368 1_556 S
C623 C607 1.349 . S
C623 H615 0.950 . S
C623 C621 1.327 . S
C624 C612 1.349 1_556 S
C624 H618 0.950 . S
C624 C625 1.327 . S
C625 H619 0.950 . S
C625 C624 1.327 . S
C625 C629 1.429 1_556 S
C626 C609 1.574 . S
C626 H620 0.949 . S
C626 C630 1.368 . S
C627 C608 1.429 1_554 S
C627 C621 1.429 . S
C627 C628 1.523 . S
C628 C609 1.368 . S
C628 C622 1.368 1_554 S
C628 C627 1.523 . S
C629 C613 1.429 . S
C629 C625 1.429 1_554 S
C629 C630 1.523 . S
C630 C614 1.368 1_554 S
C630 C626 1.368 . S
C630 C629 1.523 . S
H631 C606 0.950 . S
H632 C608 0.950 . S
H633 C609 0.949 . S
H634 C611 0.950 . S
H635 C613 0.950 . S
C636 C637 1.349 . S
C636 C638 1.327 . S
C636 H661 0.950 . S
C637 C636 1.349 . S
C637 C653 1.349 1_554 S
C638 C636 1.327 . S
C638 C657 1.429 . S
C638 H662 0.950 . S
C639 C656 1.574 . S
C639 C658 1.368 1_556 S
C639 H663 0.949 . S
H640 C644 0.949 . S
C641 C642 1.349 1_556 S
C641 C643 1.327 . S
C641 H664 0.950 . S
C642 C641 1.349 1_554 S
C642 C654 1.349 . S
C643 C641 1.327 . S
C643 C659 1.429 1_556 S
C643 H665 0.950 . S
C644 H640 0.949 . S
C644 C652 1.574 . S
C644 C660 1.368 . S
H645 C653 0.950 . S
H646 C651 0.950 . S
H647 C652 0.949 . S
H648 C654 0.950 . S
H649 C655 0.950 . S
H650 C656 0.949 . S
C651 H646 0.950 . S
C651 C653 1.327 . S
C651 C657 1.429 1_556 S
C652 C644 1.574 . S
C652 H647 0.949 . S
C652 C658 1.368 . S
C653 C637 1.349 1_556 S
C653 H645 0.950 . S
C653 C651 1.327 . S
C654 C642 1.349 . S
C654 H648 0.950 . S
C654 C655 1.327 . S
C655 H649 0.950 . S
C655 C654 1.327 . S
C655 C659 1.429 . S
C656 C639 1.574 . S
C656 H650 0.949 . S
C656 C660 1.368 1_556 S
C657 C638 1.429 . S
C657 C651 1.429 1_554 S
C657 C658 1.523 . S
C658 C639 1.368 1_554 S
C658 C652 1.368 . S
C658 C657 1.523 . S
C659 C643 1.429 1_554 S
C659 C655 1.429 . S
C659 C660 1.523 . S
C660 C644 1.368 . S
C660 C656 1.368 1_554 S
C660 C659 1.523 . S
H661 C636 0.950 . S
H662 C638 0.950 . S
H663 C639 0.949 . S
H664 C641 0.950 . S
H665 C643 0.950 . S
C666 C667 1.349 . S
C666 C668 1.327 . S
C666 H691 0.950 . S
C667 C666 1.349 . S
C667 C683 1.349 1_554 S
C668 C666 1.327 . S
C668 C687 1.429 . S
C668 H692 0.950 . S
C669 C686 1.574 . S
C669 C688 1.368 1_556 S
C669 H693 0.949 . S
H670 C674 0.949 . S
C671 C672 1.349 1_556 S
C671 C673 1.327 . S
C671 H694 0.950 . S
C672 C671 1.349 1_554 S
C672 C684 1.349 . S
C673 C671 1.327 . S
C673 C689 1.429 1_556 S
C673 H695 0.950 . S
C674 H670 0.949 . S
C674 C682 1.574 . S
C674 C690 1.368 . S
H675 C683 0.950 . S
H676 C681 0.950 . S
H677 C682 0.949 . S
H678 C684 0.950 . S
H679 C685 0.950 . S
H680 C686 0.949 . S
C681 H676 0.950 . S
C681 C683 1.327 . S
C681 C687 1.429 1_556 S
C682 C674 1.574 . S
C682 H677 0.949 . S
C682 C688 1.368 . S
C683 C667 1.349 1_556 S
C683 H675 0.950 . S
C683 C681 1.327 . S
C684 C672 1.349 . S
C684 H678 0.950 . S
C684 C685 1.327 . S
C685 H679 0.950 . S
C685 C684 1.327 . S
C685 C689 1.429 . S
C686 C669 1.574 . S
C686 H680 0.949 . S
C686 C690 1.368 1_556 S
C687 C668 1.429 . S
C687 C681 1.429 1_554 S
C687 C688 1.523 . S
C688 C669 1.368 1_554 S
C688 C682 1.368 . S
C688 C687 1.523 . S
C689 C673 1.429 1_554 S
C689 C685 1.429 . S
C689 C690 1.523 . S
C690 C674 1.368 . S
C690 C686 1.368 1_554 S
C690 C689 1.523 . S
H691 C666 0.950 . S
H692 C668 0.950 . S
H693 C669 0.949 . S
H694 C671 0.950 . S
H695 C673 0.950 . S
C696 C697 1.349 . S
C696 C698 1.327 . S
C696 H721 0.950 . S
C697 C696 1.349 . S
C697 C713 1.349 . S
C698 C696 1.327 . S
C698 C717 1.429 . S
C698 H722 0.950 . S
C699 C716 1.574 1_545 S
C699 C718 1.368 . S
C699 H723 0.949 . S
H700 C704 0.949 . S
C701 C702 1.349 . S
C701 C703 1.327 . S
C701 H724 0.950 . S
C702 C701 1.349 . S
C702 C714 1.349 . S
C703 C701 1.327 . S
C703 C719 1.429 . S
C703 H725 0.950 . S
C704 H700 0.949 . S
C704 C712 1.574 1_565 S
C704 C720 1.368 . S
H705 C713 0.950 . S
H706 C711 0.950 . S
H707 C712 0.949 . S
H708 C714 0.950 . S
H709 C715 0.950 . S
H710 C716 0.949 . S
C711 H706 0.950 . S
C711 C713 1.327 . S
C711 C717 1.429 . S
C712 C704 1.574 1_545 S
C712 H707 0.949 . S
C712 C718 1.368 . S
C713 C697 1.349 . S
C713 H705 0.950 . S
C713 C711 1.327 . S
C714 C702 1.349 . S
C714 H708 0.950 . S
C714 C715 1.327 . S
C715 H709 0.950 . S
C715 C714 1.327 . S
C715 C719 1.429 . S
C716 C699 1.574 1_565 S
C716 H710 0.949 . S
C716 C720 1.368 . S
C717 C698 1.429 . S
C717 C711 1.429 . S
C717 C718 1.523 . S
C718 C699 1.368 . S
C718 C712 1.368 . S
C718 C717 1.523 . S
C719 C703 1.429 . S
C719 C715 1.429 . S
C719 C720 1.523 . S
C720 C704 1.368 . S
C720 C716 1.368 . S
C720 C719 1.523 . S
H721 C696 0.950 . S
H722 C698 0.950 . S
H723 C699 0.949 . S
H724 C701 0.950 . S
H725 C703 0.950 . S
C726 C727 1.349 . S
C726 C728 1.327 . S
C726 H751 0.950 . S
C727 C726 1.349 . S
C727 C743 1.349 . S
C728 C726 1.327 . S
C728 C747 1.429 . S
C728 H752 0.950 . S
C729 C746 1.574 1_655 S
C729 C748 1.368 . S
C729 H753 0.949 . S
H730 C734 0.949 . S
C731 C732 1.349 . S
C731 C733 1.327 . S
C731 H754 0.950 . S
C732 C731 1.349 . S
C732 C744 1.349 . S
C733 C731 1.327 . S
C733 C749 1.429 . S
C733 H755 0.950 . S
C734 H730 0.949 . S
C734 C742 1.574 1_455 S
C734 C750 1.368 . S
H735 C743 0.950 . S
H736 C741 0.950 . S
H737 C742 0.949 . S
H738 C744 0.950 . S
H739 C745 0.950 . S
H740 C746 0.949 . S
C741 H736 0.950 . S
C741 C743 1.327 . S
C741 C747 1.429 . S
C742 C734 1.574 1_655 S
C742 H737 0.949 . S
C742 C748 1.368 . S
C743 C727 1.349 . S
C743 H735 0.950 . S
C743 C741 1.327 . S
C744 C732 1.349 . S
C744 H738 0.950 . S
C744 C745 1.327 . S
C745 H739 0.950 . S
C745 C744 1.327 . S
C745 C749 1.429 . S
C746 C729 1.574 1_455 S
C746 H740 0.949 . S
C746 C750 1.368 . S
C747 C728 1.429 . S
C747 C741 1.429 . S
C747 C748 1.523 . S
C748 C729 1.368 . S
C748 C742 1.368 . S
C748 C747 1.523 . S
C749 C733 1.429 . S
C749 C745 1.429 . S
C749 C750 1.523 . S
C750 C734 1.368 . S
C750 C746 1.368 . S
C750 C749 1.523 . S
H751 C726 0.950 . S
H752 C728 0.950 . S
H753 C729 0.949 . S
H754 C731 0.950 . S
H755 C733 0.950 . S
C756 C757 1.349 . S
C756 C758 1.327 . S
C756 H781 0.950 . S
C757 C756 1.349 . S
C757 C773 1.349 . S
C758 C756 1.327 . S
C758 C777 1.429 . S
C758 H782 0.950 . S
C759 C776 1.574 1_545 S
C759 C778 1.368 . S
C759 H783 0.949 . S
H760 C764 0.949 . S
C761 C762 1.349 . S
C761 C763 1.327 . S
C761 H784 0.950 . S
C762 C761 1.349 . S
C762 C774 1.349 . S
C763 C761 1.327 . S
C763 C779 1.429 . S
C763 H785 0.950 . S
C764 H760 0.949 . S
C764 C772 1.574 1_565 S
C764 C780 1.368 . S
H765 C773 0.950 . S
H766 C771 0.950 . S
H767 C772 0.949 . S
H768 C774 0.950 . S
H769 C775 0.950 . S
H770 C776 0.949 . S
C771 H766 0.950 . S
C771 C773 1.327 . S
C771 C777 1.429 . S
C772 C764 1.574 1_545 S
C772 H767 0.949 . S
C772 C778 1.368 . S
C773 C757 1.349 . S
C773 H765 0.950 . S
C773 C771 1.327 . S
C774 C762 1.349 . S
C774 H768 0.950 . S
C774 C775 1.327 . S
C775 H769 0.950 . S
C775 C774 1.327 . S
C775 C779 1.429 . S
C776 C759 1.574 1_565 S
C776 H770 0.949 . S
C776 C780 1.368 . S
C777 C758 1.429 . S
C777 C771 1.429 . S
C777 C778 1.523 . S
C778 C759 1.368 . S
C778 C772 1.368 . S
C778 C777 1.523 . S
C779 C763 1.429 . S
C779 C775 1.429 . S
C779 C780 1.523 . S
C780 C764 1.368 . S
C780 C776 1.368 . S
C780 C779 1.523 . S
H781 C756 0.950 . S
H782 C758 0.950 . S
H783 C759 0.949 . S
H784 C761 0.950 . S
H785 C763 0.950 . S
C786 C787 1.349 . S
C786 C788 1.327 . S
C786 H811 0.950 . S
C787 C786 1.349 . S
C787 C803 1.349 . S
C788 C786 1.327 . S
C788 C807 1.429 . S
C788 H812 0.950 . S
C789 C806 1.574 1_455 S
C789 C808 1.368 . S
C789 H813 0.949 . S
H790 C794 0.949 . S
C791 C792 1.349 . S
C791 C793 1.327 . S
C791 H814 0.950 . S
C792 C791 1.349 . S
C792 C804 1.349 . S
C793 C791 1.327 . S
C793 C809 1.429 . S
C793 H815 0.950 . S
C794 H790 0.949 . S
C794 C802 1.574 1_655 S
C794 C810 1.368 . S
H795 C803 0.950 . S
H796 C801 0.950 . S
H797 C802 0.949 . S
H798 C804 0.950 . S
H799 C805 0.950 . S
H800 C806 0.949 . S
C801 H796 0.950 . S
C801 C803 1.327 . S
C801 C807 1.429 . S
C802 C794 1.574 1_455 S
C802 H797 0.949 . S
C802 C808 1.368 . S
C803 C787 1.349 . S
C803 H795 0.950 . S
C803 C801 1.327 . S
C804 C792 1.349 . S
C804 H798 0.950 . S
C804 C805 1.327 . S
C805 H799 0.950 . S
C805 C804 1.327 . S
C805 C809 1.429 . S
C806 C789 1.574 1_655 S
C806 H800 0.949 . S
C806 C810 1.368 . S
C807 C788 1.429 . S
C807 C801 1.429 . S
C807 C808 1.523 . S
C808 C789 1.368 . S
C808 C802 1.368 . S
C808 C807 1.523 . S
C809 C793 1.429 . S
C809 C805 1.429 . S
C809 C810 1.523 . S
C810 C794 1.368 . S
C810 C806 1.368 . S
C810 C809 1.523 . S
H811 C786 0.950 . S
H812 C788 0.950 . S
H813 C789 0.949 . S
H814 C791 0.950 . S
H815 C793 0.950 . S
C816 C817 1.349 1_556 S
C816 C818 1.327 . S
C816 H841 0.950 . S
C817 C816 1.349 1_554 S
C817 C833 1.349 . S
C818 C816 1.327 . S
C818 C837 1.429 1_556 S
C818 H842 0.950 . S
C819 C836 1.574 . S
C819 C838 1.368 . S
C819 H843 0.949 . S
H820 C824 0.949 . S
C821 C822 1.331 1_554 S
C821 C823 1.327 . S
C821 H844 0.950 . S
C822 C821 1.331 1_556 S
C822 C834 1.367 . S
C823 C821 1.327 . S
C823 C839 1.435 . S
C823 H845 0.950 . S
C824 H820 0.949 . S
C824 C832 1.574 . S
C824 C840 1.368 1_556 S
H825 C833 0.950 . S
H826 C831 0.950 . S
H827 C832 0.949 . S
H828 C834 0.950 . S
H829 C835 0.950 . S
H830 C836 0.949 . S
C831 H826 0.950 . S
C831 C833 1.327 . S
C831 C837 1.429 . S
C832 C824 1.574 . S
C832 H827 0.949 . S
C832 C838 1.368 1_556 S
C833 C817 1.349 . S
C833 H825 0.950 . S
C833 C831 1.327 . S
C834 C822 1.367 . S
C834 H828 0.950 . S
C834 C835 1.327 . S
C835 H829 0.950 . S
C835 C834 1.327 . S
C835 C839 1.422 1_556 S
C836 C819 1.574 . S
C836 H830 0.949 . S
C836 C840 1.368 . S
C837 C818 1.429 1_554 S
C837 C831 1.429 . S
C837 C838 1.523 . S
C838 C819 1.368 . S
C838 C832 1.368 1_554 S
C838 C837 1.523 . S
C839 C823 1.435 . S
C839 C835 1.422 1_554 S
C839 C840 1.523 . S
C840 C824 1.368 1_554 S
C840 C836 1.368 . S
C840 C839 1.523 . S
H841 C816 0.950 . S
H842 C818 0.950 . S
H843 C819 0.949 . S
H844 C821 0.950 . S
H845 C823 0.950 . S
C846 C847 1.332 1_554 S
C846 C848 1.327 . S
C846 H871 0.950 . S
C847 C846 1.332 1_556 S
C847 C863 1.366 . S
C848 C846 1.327 . S
C848 C867 1.435 . S
C848 H872 0.950 . S
C849 C866 1.574 . S
C849 C868 1.368 1_556 S
C849 H873 0.949 . S
H850 C854 0.949 . S
C851 C852 1.349 1_556 S
C851 C853 1.327 . S
C851 H874 0.950 . S
C852 C851 1.349 1_554 S
C852 C864 1.349 . S
C853 C851 1.327 . S
C853 C869 1.429 1_556 S
C853 H875 0.950 . S
C854 H850 0.949 . S
C854 C862 1.574 . S
C854 C870 1.368 . S
H855 C863 0.950 . S
H856 C861 0.950 . S
H857 C862 0.949 . S
H858 C864 0.950 . S
H859 C865 0.950 . S
H860 C866 0.949 . S
C861 H856 0.950 . S
C861 C863 1.327 . S
C861 C867 1.422 1_556 S
C862 C854 1.574 . S
C862 H857 0.949 . S
C862 C868 1.368 . S
C863 C847 1.366 . S
C863 H855 0.950 . S
C863 C861 1.327 . S
C864 C852 1.349 . S
C864 H858 0.950 . S
C864 C865 1.327 . S
C865 H859 0.950 . S
C865 C864 1.327 . S
C865 C869 1.429 . S
C866 C849 1.574 . S
C866 H860 0.949 . S
C866 C870 1.368 1_556 S
C867 C848 1.435 . S
C867 C861 1.422 1_554 S
C867 C868 1.523 . S
C868 C849 1.368 1_554 S
C868 C862 1.368 . S
C868 C867 1.523 . S
C869 C853 1.429 1_554 S
C869 C865 1.429 . S
C869 C870 1.523 . S
C870 C854 1.368 . S
C870 C866 1.368 1_554 S
C870 C869 1.523 . S
H871 C846 0.950 . S
H872 C848 0.950 . S
H873 C849 0.949 . S
H874 C851 0.950 . S
H875 C853 0.950 . S
C876 C877 1.349 . S
C876 C878 1.327 . S
C876 H901 0.950 . S
C877 C876 1.349 . S
C877 C893 1.349 1_554 S
C878 C876 1.327 . S
C878 C897 1.429 . S
C878 H902 0.950 . S
C879 C896 1.574 . S
C879 C898 1.368 1_556 S
C879 H903 0.949 . S
H880 C884 0.949 . S
C881 C882 1.366 . S
C881 C883 1.327 . S
C881 H904 0.950 . S
C882 C881 1.366 . S
C882 C894 1.332 1_556 S
C883 C881 1.327 . S
C883 C899 1.422 1_556 S
C883 H905 0.950 . S
C884 H880 0.949 . S
C884 C892 1.574 . S
C884 C900 1.368 . S
H885 C893 0.950 . S
H886 C891 0.950 . S
H887 C892 0.949 . S
H888 C894 0.950 . S
H889 C895 0.950 . S
H890 C896 0.949 . S
C891 H886 0.950 . S
C891 C893 1.327 . S
C891 C897 1.429 1_556 S
C892 C884 1.574 . S
C892 H887 0.949 . S
C892 C898 1.368 . S
C893 C877 1.349 1_556 S
C893 H885 0.950 . S
C893 C891 1.327 . S
C894 C882 1.332 1_554 S
C894 H888 0.950 . S
C894 C895 1.327 . S
C895 H889 0.950 . S
C895 C894 1.327 . S
C895 C899 1.435 . S
C896 C879 1.574 . S
C896 H890 0.949 . S
C896 C900 1.368 1_556 S
C897 C878 1.429 . S
C897 C891 1.429 1_554 S
C897 C898 1.523 . S
C898 C879 1.368 1_554 S
C898 C892 1.368 . S
C898 C897 1.523 . S
C899 C883 1.422 1_554 S
C899 C895 1.435 . S
C899 C900 1.523 . S
C900 C884 1.368 . S
C900 C896 1.368 1_554 S
C900 C899 1.523 . S
H901 C876 0.950 . S
H902 C878 0.950 . S
H903 C879 0.949 . S
H904 C881 0.950 . S
H905 C883 0.950 . S
C906 C907 1.332 1_554 S
C906 C908 1.327 . S
C906 H931 0.950 . S
C907 C906 1.332 1_556 S
C907 C923 1.366 . S
C908 C906 1.327 . S
C908 C927 1.435 . S
C908 H932 0.950 . S
C909 C926 1.574 . S
C909 C928 1.368 1_556 S
C909 H933 0.949 . S
H910 C914 0.949 . S
C911 C912 1.349 1_556 S
C911 C913 1.327 . S
C911 H934 0.950 . S
C912 C911 1.349 1_554 S
C912 C924 1.349 . S
C913 C911 1.327 . S
C913 C929 1.429 1_556 S
C913 H935 0.950 . S
C914 H910 0.949 . S
C914 C922 1.574 . S
C914 C930 1.368 . S
H915 C923 0.950 . S
H916 C921 0.950 . S
H917 C922 0.949 . S
H918 C924 0.950 . S
H919 C925 0.950 . S
H920 C926 0.949 . S
C921 H916 0.950 . S
C921 C923 1.327 . S
C921 C927 1.422 1_556 S
C922 C914 1.574 . S
C922 H917 0.949 . S
C922 C928 1.368 . S
C923 C907 1.366 . S
C923 H915 0.950 . S
C923 C921 1.327 . S
C924 C912 1.349 . S
C924 H918 0.950 . S
C924 C925 1.327 . S
C925 H919 0.950 . S
C925 C924 1.327 . S
C925 C929 1.429 . S
C926 C909 1.574 . S
C926 H920 0.949 . S
C926 C930 1.368 1_556 S
C927 C908 1.435 . S
C927 C921 1.422 1_554 S
C927 C928 1.523 . S
C928 C909 1.368 1_554 S
C928 C922 1.368 . S
C928 C927 1.523 . S
C929 C913 1.429 1_554 S
C929 C925 1.429 . S
C929 C930 1.523 . S
C930 C914 1.368 . S
C930 C926 1.368 1_554 S
C930 C929 1.523 . S
H931 C906 0.950 . S
H932 C908 0.950 . S
H933 C909 0.949 . S
H934 C911 0.950 . S
H935 C913 0.950 . S
C936 C937 1.349 . S
C936 C938 1.327 . S
C936 H961 0.950 . S
C937 C936 1.349 . S
C937 C953 1.349 . S
C938 C936 1.327 . S
C938 C957 1.429 . S
C938 H962 0.950 . S
C939 C956 1.574 . S
C939 C958 1.368 . S
C939 H963 0.949 . S
H940 C944 0.949 . S
C941 C942 1.349 . S
C941 C943 1.327 . S
C941 H964 0.950 . S
C942 C941 1.349 . S
C942 C954 1.349 . S
C943 C941 1.327 . S
C943 C959 1.429 . S
C943 H965 0.950 . S
C944 H940 0.949 . S
C944 C952 1.574 . S
C944 C960 1.368 . S
H945 C953 0.950 . S
H946 C951 0.950 . S
H947 C952 0.949 . S
H948 C954 0.950 . S
H949 C955 0.950 . S
H950 C956 0.949 . S
C951 H946 0.950 . S
C951 C953 1.327 . S
C951 C957 1.429 . S
C952 C944 1.574 . S
C952 H947 0.949 . S
C952 C958 1.368 . S
C953 C937 1.349 . S
C953 H945 0.950 . S
C953 C951 1.327 . S
C954 C942 1.349 . S
C954 H948 0.950 . S
C954 C955 1.327 . S
C955 H949 0.950 . S
C955 C954 1.327 . S
C955 C959 1.429 . S
C956 C939 1.574 . S
C956 H950 0.949 . S
C956 C960 1.368 . S
C957 C938 1.429 . S
C957 C951 1.429 . S
C957 C958 1.523 . S
C958 C939 1.368 . S
C958 C952 1.368 . S
C958 C957 1.523 . S
C959 C943 1.429 . S
C959 C955 1.429 . S
C959 C960 1.523 . S
C960 C944 1.368 . S
C960 C956 1.368 . S
C960 C959 1.523 . S
H961 C936 0.950 . S
H962 C938 0.950 . S
H963 C939 0.949 . S
H964 C941 0.950 . S
H965 C943 0.950 . S
C966 C967 1.349 . S
C966 C968 1.327 . S
C966 H991 0.950 . S
C967 C966 1.349 . S
C967 C983 1.349 . S
C968 C966 1.327 . S
C968 C987 1.429 . S
C968 H992 0.950 . S
C969 C986 1.574 . S
C969 C988 1.368 . S
C969 H993 0.949 . S
H970 C974 0.949 . S
C971 C972 1.349 . S
C971 C973 1.327 . S
C971 H994 0.950 . S
C972 C971 1.349 . S
C972 C984 1.349 . S
C973 C971 1.327 . S
C973 C989 1.429 . S
C973 H995 0.950 . S
C974 H970 0.949 . S
C974 C982 1.574 . S
C974 C990 1.368 . S
H975 C983 0.950 . S
H976 C981 0.950 . S
H977 C982 0.949 . S
H978 C984 0.950 . S
H979 C985 0.950 . S
H980 C986 0.949 . S
C981 H976 0.950 . S
C981 C983 1.327 . S
C981 C987 1.429 . S
C982 C974 1.574 . S
C982 H977 0.949 . S
C982 C988 1.368 . S
C983 C967 1.349 . S
C983 H975 0.950 . S
C983 C981 1.327 . S
C984 C972 1.349 . S
C984 H978 0.950 . S
C984 C985 1.327 . S
C985 H979 0.950 . S
C985 C984 1.327 . S
C985 C989 1.429 . S
C986 C969 1.574 . S
C986 H980 0.949 . S
C986 C990 1.368 . S
C987 C968 1.429 . S
C987 C981 1.429 . S
C987 C988 1.523 . S
C988 C969 1.368 . S
C988 C982 1.368 . S
C988 C987 1.523 . S
C989 C973 1.429 . S
C989 C985 1.429 . S
C989 C990 1.523 . S
C990 C974 1.368 . S
C990 C986 1.368 . S
C990 C989 1.523 . S
H991 C966 0.950 . S
H992 C968 0.950 . S
H993 C969 0.949 . S
H994 C971 0.950 . S
H995 C973 0.950 . S
C996 C997 1.349 . S
C996 C998 1.327 . S
C996 H1021 0.950 . S
C997 C996 1.349 . S
C997 C1013 1.349 . S
C998 C996 1.327 . S
C998 C1017 1.429 . S
C998 H1022 0.950 . S
C999 C1016 1.574 . S
C999 C1018 1.368 . S
C999 H1023 0.949 . S
H1000 C1004 0.949 . S
C1001 C1002 1.349 . S
C1001 C1003 1.327 . S
C1001 H1024 0.950 . S
C1002 C1001 1.349 . S
C1002 C1014 1.349 . S
C1003 C1001 1.327 . S
C1003 C1019 1.429 . S
C1003 H1025 0.950 . S
C1004 H1000 0.949 . S
C1004 C1012 1.574 . S
C1004 C1020 1.368 . S
H1005 C1013 0.950 . S
H1006 C1011 0.950 . S
H1007 C1012 0.949 . S
H1008 C1014 0.950 . S
H1009 C1015 0.950 . S
H1010 C1016 0.949 . S
C1011 H1006 0.950 . S
C1011 C1013 1.327 . S
C1011 C1017 1.429 . S
C1012 C1004 1.574 . S
C1012 H1007 0.949 . S
C1012 C1018 1.368 . S
C1013 C997 1.349 . S
C1013 H1005 0.950 . S
C1013 C1011 1.327 . S
C1014 C1002 1.349 . S
C1014 H1008 0.950 . S
C1014 C1015 1.327 . S
C1015 H1009 0.950 . S
C1015 C1014 1.327 . S
C1015 C1019 1.429 . S
C1016 C999 1.574 . S
C1016 H1010 0.949 . S
C1016 C1020 1.368 . S
C1017 C998 1.429 . S
C1017 C1011 1.429 . S
C1017 C1018 1.523 . S
C1018 C999 1.368 . S
C1018 C1012 1.368 . S
C1018 C1017 1.523 . S
C1019 C1003 1.429 . S
C1019 C1015 1.429 . S
C1019 C1020 1.523 . S
C1020 C1004 1.368 . S
C1020 C1016 1.368 . S
C1020 C1019 1.523 . S
H1021 C996 0.950 . S
H1022 C998 0.950 . S
H1023 C999 0.949 . S
H1024 C1001 0.950 . S
H1025 C1003 0.950 . S
C1026 C1027 1.349 . S
C1026 C1028 1.327 . S
C1026 H1051 0.950 . S
C1027 C1026 1.349 . S
C1027 C1043 1.349 . S
C1028 C1026 1.327 . S
C1028 C1047 1.429 . S
C1028 H1052 0.950 . S
C1029 C1046 1.574 . S
C1029 C1048 1.368 . S
C1029 H1053 0.949 . S
H1030 C1034 0.949 . S
C1031 C1032 1.349 . S
C1031 C1033 1.327 . S
C1031 H1054 0.950 . S
C1032 C1031 1.349 . S
C1032 C1044 1.349 . S
C1033 C1031 1.327 . S
C1033 C1049 1.429 . S
C1033 H1055 0.950 . S
C1034 H1030 0.949 . S
C1034 C1042 1.574 . S
C1034 C1050 1.368 . S
H1035 C1043 0.950 . S
H1036 C1041 0.950 . S
H1037 C1042 0.949 . S
H1038 C1044 0.950 . S
H1039 C1045 0.950 . S
H1040 C1046 0.949 . S
C1041 H1036 0.950 . S
C1041 C1043 1.327 . S
C1041 C1047 1.429 . S
C1042 C1034 1.574 . S
C1042 H1037 0.949 . S
C1042 C1048 1.368 . S
C1043 C1027 1.349 . S
C1043 H1035 0.950 . S
C1043 C1041 1.327 . S
C1044 C1032 1.349 . S
C1044 H1038 0.950 . S
C1044 C1045 1.327 . S
C1045 H1039 0.950 . S
C1045 C1044 1.327 . S
C1045 C1049 1.429 . S
C1046 C1029 1.574 . S
C1046 H1040 0.949 . S
C1046 C1050 1.368 . S
C1047 C1028 1.429 . S
C1047 C1041 1.429 . S
C1047 C1048 1.523 . S
C1048 C1029 1.368 . S
C1048 C1042 1.368 . S
C1048 C1047 1.523 . S
C1049 C1033 1.429 . S
C1049 C1045 1.429 . S
C1049 C1050 1.523 . S
C1050 C1034 1.368 . S
C1050 C1046 1.368 . S
C1050 C1049 1.523 . S
H1051 C1026 0.950 . S
H1052 C1028 0.950 . S
H1053 C1029 0.949 . S
H1054 C1031 0.950 . S
H1055 C1033 0.950 . S
C1056 C1057 1.349 . S
C1056 C1058 1.327 . S
C1056 H1081 0.950 . S
C1057 C1056 1.349 . S
C1057 C1073 1.349 . S
C1058 C1056 1.327 . S
C1058 C1077 1.429 . S
C1058 H1082 0.950 . S
C1059 C1076 1.574 . S
C1059 C1078 1.368 . S
C1059 H1083 0.949 . S
H1060 C1064 0.949 . S
C1061 C1062 1.349 . S
C1061 C1063 1.327 . S
C1061 H1084 0.950 . S
C1062 C1061 1.349 . S
C1062 C1074 1.349 . S
C1063 C1061 1.327 . S
C1063 C1079 1.429 . S
C1063 H1085 0.950 . S
C1064 H1060 0.949 . S
C1064 C1072 1.574 . S
C1064 C1080 1.368 . S
H1065 C1073 0.950 . S
H1066 C1071 0.950 . S
H1067 C1072 0.949 . S
H1068 C1074 0.950 . S
H1069 C1075 0.950 . S
H1070 C1076 0.949 . S
C1071 H1066 0.950 . S
C1071 C1073 1.327 . S
C1071 C1077 1.429 . S
C1072 C1064 1.574 . S
C1072 H1067 0.949 . S
C1072 C1078 1.368 . S
C1073 C1057 1.349 . S
C1073 H1065 0.950 . S
C1073 C1071 1.327 . S
C1074 C1062 1.349 . S
C1074 H1068 0.950 . S
C1074 C1075 1.327 . S
C1075 H1069 0.950 . S
C1075 C1074 1.327 . S
C1075 C1079 1.429 . S
C1076 C1059 1.574 . S
C1076 H1070 0.949 . S
C1076 C1080 1.368 . S
C1077 C1058 1.429 . S
C1077 C1071 1.429 . S
C1077 C1078 1.523 . S
C1078 C1059 1.368 . S
C1078 C1072 1.368 . S
C1078 C1077 1.523 . S
C1079 C1063 1.429 . S
C1079 C1075 1.429 . S
C1079 C1080 1.523 . S
C1080 C1064 1.368 . S
C1080 C1076 1.368 . S
C1080 C1079 1.523 . S
H1081 C1056 0.950 . S
H1082 C1058 0.950 . S
H1083 C1059 0.949 . S
H1084 C1061 0.950 . S
H1085 C1063 0.950 . S
C1086 C1087 1.349 . S
C1086 C1088 1.327 . S
C1086 H1111 0.950 . S
C1087 C1086 1.349 . S
C1087 C1103 1.349 . S
C1088 C1086 1.327 . S
C1088 C1107 1.429 . S
C1088 H1112 0.950 . S
C1089 C1106 1.574 . S
C1089 C1108 1.368 . S
C1089 H1113 0.949 . S
H1090 C1094 0.949 . S
C1091 C1092 1.349 . S
C1091 C1093 1.327 . S
C1091 H1114 0.950 . S
C1092 C1091 1.349 . S
C1092 C1104 1.349 . S
C1093 C1091 1.327 . S
C1093 C1109 1.429 . S
C1093 H1115 0.950 . S
C1094 H1090 0.949 . S
C1094 C1102 1.574 . S
C1094 C1110 1.368 . S
H1095 C1103 0.950 . S
H1096 C1101 0.950 . S
H1097 C1102 0.949 . S
H1098 C1104 0.950 . S
H1099 C1105 0.950 . S
H1100 C1106 0.949 . S
C1101 H1096 0.950 . S
C1101 C1103 1.327 . S
C1101 C1107 1.429 . S
C1102 C1094 1.574 . S
C1102 H1097 0.949 . S
C1102 C1108 1.368 . S
C1103 C1087 1.349 . S
C1103 H1095 0.950 . S
C1103 C1101 1.327 . S
C1104 C1092 1.349 . S
C1104 H1098 0.950 . S
C1104 C1105 1.327 . S
C1105 H1099 0.950 . S
C1105 C1104 1.327 . S
C1105 C1109 1.429 . S
C1106 C1089 1.574 . S
C1106 H1100 0.949 . S
C1106 C1110 1.368 . S
C1107 C1088 1.429 . S
C1107 C1101 1.429 . S
C1107 C1108 1.523 . S
C1108 C1089 1.368 . S
C1108 C1102 1.368 . S
C1108 C1107 1.523 . S
C1109 C1093 1.429 . S
C1109 C1105 1.429 . S
C1109 C1110 1.523 . S
C1110 C1094 1.368 . S
C1110 C1106 1.368 . S
C1110 C1109 1.523 . S
H1111 C1086 0.950 . S
H1112 C1088 0.950 . S
H1113 C1089 0.949 . S
H1114 C1091 0.950 . S
H1115 C1093 0.950 . S
C1116 C1117 1.349 . S
C1116 C1118 1.327 . S
C1116 H1141 0.950 . S
C1117 C1116 1.349 . S
C1117 C1133 1.349 . S
C1118 C1116 1.327 . S
C1118 C1137 1.429 . S
C1118 H1142 0.950 . S
C1119 C1136 1.574 . S
C1119 C1138 1.368 . S
C1119 H1143 0.949 . S
H1120 C1124 0.949 . S
C1121 C1122 1.349 . S
C1121 C1123 1.327 . S
C1121 H1144 0.950 . S
C1122 C1121 1.349 . S
C1122 C1134 1.349 . S
C1123 C1121 1.327 . S
C1123 C1139 1.429 . S
C1123 H1145 0.950 . S
C1124 H1120 0.949 . S
C1124 C1132 1.574 . S
C1124 C1140 1.368 . S
H1125 C1133 0.950 . S
H1126 C1131 0.950 . S
H1127 C1132 0.949 . S
H1128 C1134 0.950 . S
H1129 C1135 0.950 . S
H1130 C1136 0.949 . S
C1131 H1126 0.950 . S
C1131 C1133 1.327 . S
C1131 C1137 1.429 . S
C1132 C1124 1.574 . S
C1132 H1127 0.949 . S
C1132 C1138 1.368 . S
C1133 C1117 1.349 . S
C1133 H1125 0.950 . S
C1133 C1131 1.327 . S
C1134 C1122 1.349 . S
C1134 H1128 0.950 . S
C1134 C1135 1.327 . S
C1135 H1129 0.950 . S
C1135 C1134 1.327 . S
C1135 C1139 1.429 . S
C1136 C1119 1.574 . S
C1136 H1130 0.949 . S
C1136 C1140 1.368 . S
C1137 C1118 1.429 . S
C1137 C1131 1.429 . S
C1137 C1138 1.523 . S
C1138 C1119 1.368 . S
C1138 C1132 1.368 . S
C1138 C1137 1.523 . S
C1139 C1123 1.429 . S
C1139 C1135 1.429 . S
C1139 C1140 1.523 . S
C1140 C1124 1.368 . S
C1140 C1136 1.368 . S
C1140 C1139 1.523 . S
H1141 C1116 0.950 . S
H1142 C1118 0.950 . S
H1143 C1119 0.949 . S
H1144 C1121 0.950 . S
H1145 C1123 0.950 . S
C1146 C1147 1.349 . S
C1146 C1148 1.327 . S
C1146 H1171 0.950 . S
C1147 C1146 1.349 . S
C1147 C1163 1.349 . S
C1148 C1146 1.327 . S
C1148 C1167 1.429 . S
C1148 H1172 0.950 . S
C1149 C1166 1.574 . S
C1149 C1168 1.368 . S
C1149 H1173 0.949 . S
H1150 C1154 0.949 . S
C1151 C1152 1.349 . S
C1151 C1153 1.327 . S
C1151 H1174 0.950 . S
C1152 C1151 1.349 . S
C1152 C1164 1.349 . S
C1153 C1151 1.327 . S
C1153 C1169 1.429 . S
C1153 H1175 0.950 . S
C1154 H1150 0.949 . S
C1154 C1162 1.574 . S
C1154 C1170 1.368 . S
H1155 C1163 0.950 . S
H1156 C1161 0.950 . S
H1157 C1162 0.949 . S
H1158 C1164 0.950 . S
H1159 C1165 0.950 . S
H1160 C1166 0.949 . S
C1161 H1156 0.950 . S
C1161 C1163 1.327 . S
C1161 C1167 1.429 . S
C1162 C1154 1.574 . S
C1162 H1157 0.949 . S
C1162 C1168 1.368 . S
C1163 C1147 1.349 . S
C1163 H1155 0.950 . S
C1163 C1161 1.327 . S
C1164 C1152 1.349 . S
C1164 H1158 0.950 . S
C1164 C1165 1.327 . S
C1165 H1159 0.950 . S
C1165 C1164 1.327 . S
C1165 C1169 1.429 . S
C1166 C1149 1.574 . S
C1166 H1160 0.949 . S
C1166 C1170 1.368 . S
C1167 C1148 1.429 . S
C1167 C1161 1.429 . S
C1167 C1168 1.523 . S
C1168 C1149 1.368 . S
C1168 C1162 1.368 . S
C1168 C1167 1.523 . S
C1169 C1153 1.429 . S
C1169 C1165 1.429 . S
C1169 C1170 1.523 . S
C1170 C1154 1.368 . S
C1170 C1166 1.368 . S
C1170 C1169 1.523 . S
H1171 C1146 0.950 . S
H1172 C1148 0.950 . S
H1173 C1149 0.949 . S
H1174 C1151 0.950 . S
H1175 C1153 0.950 . S
C1176 C1177 1.349 . S
C1176 C1178 1.327 . S
C1176 H1201 0.950 . S
C1177 C1176 1.349 . S
C1177 C1193 1.349 . S
C1178 C1176 1.327 . S
C1178 C1197 1.429 . S
C1178 H1202 0.950 . S
C1179 C1196 1.574 . S
C1179 C1198 1.368 . S
C1179 H1203 0.949 . S
H1180 C1184 0.949 . S
C1181 C1182 1.349 . S
C1181 C1183 1.327 . S
C1181 H1204 0.950 . S
C1182 C1181 1.349 . S
C1182 C1194 1.349 . S
C1183 C1181 1.327 . S
C1183 C1199 1.429 . S
C1183 H1205 0.950 . S
C1184 H1180 0.949 . S
C1184 C1192 1.574 . S
C1184 C1200 1.368 . S
H1185 C1193 0.950 . S
H1186 C1191 0.950 . S
H1187 C1192 0.949 . S
H1188 C1194 0.950 . S
H1189 C1195 0.950 . S
H1190 C1196 0.949 . S
C1191 H1186 0.950 . S
C1191 C1193 1.327 . S
C1191 C1197 1.429 . S
C1192 C1184 1.574 . S
C1192 H1187 0.949 . S
C1192 C1198 1.368 . S
C1193 C1177 1.349 . S
C1193 H1185 0.950 . S
C1193 C1191 1.327 . S
C1194 C1182 1.349 . S
C1194 H1188 0.950 . S
C1194 C1195 1.327 . S
C1195 H1189 0.950 . S
C1195 C1194 1.327 . S
C1195 C1199 1.429 . S
C1196 C1179 1.574 . S
C1196 H1190 0.949 . S
C1196 C1200 1.368 . S
C1197 C1178 1.429 . S
C1197 C1191 1.429 . S
C1197 C1198 1.523 . S
C1198 C1179 1.368 . S
C1198 C1192 1.368 . S
C1198 C1197 1.523 . S
C1199 C1183 1.429 . S
C1199 C1195 1.429 . S
C1199 C1200 1.523 . S
C1200 C1184 1.368 . S
C1200 C1196 1.368 . S
C1200 C1199 1.523 . S
H1201 C1176 0.950 . S
H1202 C1178 0.950 . S
H1203 C1179 0.949 . S
H1204 C1181 0.950 . S
H1205 C1183 0.950 . S
C1206 C1207 1.349 . S
C1206 C1208 1.327 . S
C1206 H1231 0.950 . S
C1207 C1206 1.349 . S
C1207 C1223 1.349 . S
C1208 C1206 1.327 . S
C1208 C1227 1.429 . S
C1208 H1232 0.950 . S
C1209 C1226 1.574 . S
C1209 C1228 1.368 . S
C1209 H1233 0.949 . S
H1210 C1214 0.949 . S
C1211 C1212 1.349 . S
C1211 C1213 1.327 . S
C1211 H1234 0.950 . S
C1212 C1211 1.349 . S
C1212 C1224 1.349 . S
C1213 C1211 1.327 . S
C1213 C1229 1.429 . S
C1213 H1235 0.950 . S
C1214 H1210 0.949 . S
C1214 C1222 1.574 . S
C1214 C1230 1.368 . S
H1215 C1223 0.950 . S
H1216 C1221 0.950 . S
H1217 C1222 0.949 . S
H1218 C1224 0.950 . S
H1219 C1225 0.950 . S
H1220 C1226 0.949 . S
C1221 H1216 0.950 . S
C1221 C1223 1.327 . S
C1221 C1227 1.429 . S
C1222 C1214 1.574 . S
C1222 H1217 0.949 . S
C1222 C1228 1.368 . S
C1223 C1207 1.349 . S
C1223 H1215 0.950 . S
C1223 C1221 1.327 . S
C1224 C1212 1.349 . S
C1224 H1218 0.950 . S
C1224 C1225 1.327 . S
C1225 H1219 0.950 . S
C1225 C1224 1.327 . S
C1225 C1229 1.429 . S
C1226 C1209 1.574 . S
C1226 H1220 0.949 . S
C1226 C1230 1.368 . S
C1227 C1208 1.429 . S
C1227 C1221 1.429 . S
C1227 C1228 1.523 . S
C1228 C1209 1.368 . S
C1228 C1222 1.368 . S
C1228 C1227 1.523 . S
C1229 C1213 1.429 . S
C1229 C1225 1.429 . S
C1229 C1230 1.523 . S
C1230 C1214 1.368 . S
C1230 C1226 1.368 . S
C1230 C1229 1.523 . S
H1231 C1206 0.950 . S
H1232 C1208 0.950 . S
H1233 C1209 0.949 . S
H1234 C1211 0.950 . S
H1235 C1213 0.950 . S
C1236 C1237 1.349 . S
C1236 C1238 1.327 . S
C1236 H1261 0.950 . S
C1237 C1236 1.349 . S
C1237 C1253 1.349 . S
C1238 C1236 1.327 . S
C1238 C1257 1.429 . S
C1238 H1262 0.950 . S
C1239 C1256 1.574 . S
C1239 C1258 1.368 . S
C1239 H1263 0.949 . S
H1240 C1244 0.949 . S
C1241 C1242 1.349 . S
C1241 C1243 1.327 . S
C1241 H1264 0.950 . S
C1242 C1241 1.349 . S
C1242 C1254 1.349 . S
C1243 C1241 1.327 . S
C1243 C1259 1.429 . S
C1243 H1265 0.950 . S
C1244 H1240 0.949 . S
C1244 C1252 1.574 . S
C1244 C1260 1.368 . S
H1245 C1253 0.950 . S
H1246 C1251 0.950 . S
H1247 C1252 0.949 . S
H1248 C1254 0.950 . S
H1249 C1255 0.950 . S
H1250 C1256 0.949 . S
C1251 H1246 0.950 . S
C1251 C1253 1.327 . S
C1251 C1257 1.429 . S
C1252 C1244 1.574 . S
C1252 H1247 0.949 . S
C1252 C1258 1.368 . S
C1253 C1237 1.349 . S
C1253 H1245 0.950 . S
C1253 C1251 1.327 . S
C1254 C1242 1.349 . S
C1254 H1248 0.950 . S
C1254 C1255 1.327 . S
C1255 H1249 0.950 . S
C1255 C1254 1.327 . S
C1255 C1259 1.429 . S
C1256 C1239 1.574 . S
C1256 H1250 0.949 . S
C1256 C1260 1.368 . S
C1257 C1238 1.429 . S
C1257 C1251 1.429 . S
C1257 C1258 1.523 . S
C1258 C1239 1.368 . S
C1258 C1252 1.368 . S
C1258 C1257 1.523 . S
C1259 C1243 1.429 . S
C1259 C1255 1.429 . S
C1259 C1260 1.523 . S
C1260 C1244 1.368 . S
C1260 C1256 1.368 . S
C1260 C1259 1.523 . S
H1261 C1236 0.950 . S
H1262 C1238 0.950 . S
H1263 C1239 0.949 . S
H1264 C1241 0.950 . S
H1265 C1243 0.950 . S
C1266 C1267 1.349 . S
C1266 C1268 1.327 . S
C1266 H1291 0.950 . S
C1267 C1266 1.349 . S
C1267 C1283 1.349 . S
C1268 C1266 1.327 . S
C1268 C1287 1.429 . S
C1268 H1292 0.950 . S
C1269 C1286 1.574 . S
C1269 C1288 1.368 . S
C1269 H1293 0.949 . S
H1270 C1274 0.949 . S
C1271 C1272 1.349 . S
C1271 C1273 1.327 . S
C1271 H1294 0.950 . S
C1272 C1271 1.349 . S
C1272 C1284 1.349 . S
C1273 C1271 1.327 . S
C1273 C1289 1.429 . S
C1273 H1295 0.950 . S
C1274 H1270 0.949 . S
C1274 C1282 1.574 . S
C1274 C1290 1.368 . S
H1275 C1283 0.950 . S
H1276 C1281 0.950 . S
H1277 C1282 0.949 . S
H1278 C1284 0.950 . S
H1279 C1285 0.950 . S
H1280 C1286 0.949 . S
C1281 H1276 0.950 . S
C1281 C1283 1.327 . S
C1281 C1287 1.429 . S
C1282 C1274 1.574 . S
C1282 H1277 0.949 . S
C1282 C1288 1.368 . S
C1283 C1267 1.349 . S
C1283 H1275 0.950 . S
C1283 C1281 1.327 . S
C1284 C1272 1.349 . S
C1284 H1278 0.950 . S
C1284 C1285 1.327 . S
C1285 H1279 0.950 . S
C1285 C1284 1.327 . S
C1285 C1289 1.429 . S
C1286 C1269 1.574 . S
C1286 H1280 0.949 . S
C1286 C1290 1.368 . S
C1287 C1268 1.429 . S
C1287 C1281 1.429 . S
C1287 C1288 1.523 . S
C1288 C1269 1.368 . S
C1288 C1282 1.368 . S
C1288 C1287 1.523 . S
C1289 C1273 1.429 . S
C1289 C1285 1.429 . S
C1289 C1290 1.523 . S
C1290 C1274 1.368 . S
C1290 C1286 1.368 . S
C1290 C1289 1.523 . S
H1291 C1266 0.950 . S
H1292 C1268 0.950 . S
H1293 C1269 0.949 . S
H1294 C1271 0.950 . S
H1295 C1273 0.950 . S
C1296 C1297 1.349 . S
C1296 C1298 1.327 . S
C1296 H1321 0.950 . S
C1297 C1296 1.349 . S
C1297 C1313 1.349 . S
C1298 C1296 1.327 . S
C1298 C1317 1.429 . S
C1298 H1322 0.950 . S
C1299 C1316 1.574 . S
C1299 C1318 1.368 . S
C1299 H1323 0.949 . S
H1300 C1304 0.949 . S
C1301 C1302 1.349 . S
C1301 C1303 1.327 . S
C1301 H1324 0.950 . S
C1302 C1301 1.349 . S
C1302 C1314 1.349 . S
C1303 C1301 1.327 . S
C1303 C1319 1.429 . S
C1303 H1325 0.950 . S
C1304 H1300 0.949 . S
C1304 C1312 1.574 . S
C1304 C1320 1.368 . S
H1305 C1313 0.950 . S
H1306 C1311 0.950 . S
H1307 C1312 0.949 . S
H1308 C1314 0.950 . S
H1309 C1315 0.950 . S
H1310 C1316 0.949 . S
C1311 H1306 0.950 . S
C1311 C1313 1.327 . S
C1311 C1317 1.429 . S
C1312 C1304 1.574 . S
C1312 H1307 0.949 . S
C1312 C1318 1.368 . S
C1313 C1297 1.349 . S
C1313 H1305 0.950 . S
C1313 C1311 1.327 . S
C1314 C1302 1.349 . S
C1314 H1308 0.950 . S
C1314 C1315 1.327 . S
C1315 H1309 0.950 . S
C1315 C1314 1.327 . S
C1315 C1319 1.429 . S
C1316 C1299 1.574 . S
C1316 H1310 0.949 . S
C1316 C1320 1.368 . S
C1317 C1298 1.429 . S
C1317 C1311 1.429 . S
C1317 C1318 1.523 . S
C1318 C1299 1.368 . S
C1318 C1312 1.368 . S
C1318 C1317 1.523 . S
C1319 C1303 1.429 . S
C1319 C1315 1.429 . S
C1319 C1320 1.523 . S
C1320 C1304 1.368 . S
C1320 C1316 1.368 . S
C1320 C1319 1.523 . S
H1321 C1296 0.950 . S
H1322 C1298 0.950 . S
H1323 C1299 0.949 . S
H1324 C1301 0.950 . S
H1325 C1303 0.950 . S
C1326 C1327 1.349 . S
C1326 C1328 1.327 . S
C1326 H1351 0.950 . S
C1327 C1326 1.349 . S
C1327 C1343 1.349 . S
C1328 C1326 1.327 . S
C1328 C1347 1.429 . S
C1328 H1352 0.950 . S
C1329 C1346 1.574 . S
C1329 C1348 1.368 . S
C1329 H1353 0.949 . S
H1330 C1334 0.949 . S
C1331 C1332 1.349 . S
C1331 C1333 1.327 . S
C1331 H1354 0.950 . S
C1332 C1331 1.349 . S
C1332 C1344 1.349 . S
C1333 C1331 1.327 . S
C1333 C1349 1.429 . S
C1333 H1355 0.950 . S
C1334 H1330 0.949 . S
C1334 C1342 1.574 . S
C1334 C1350 1.368 . S
H1335 C1343 0.950 . S
H1336 C1341 0.950 . S
H1337 C1342 0.949 . S
H1338 C1344 0.950 . S
H1339 C1345 0.950 . S
H1340 C1346 0.949 . S
C1341 H1336 0.950 . S
C1341 C1343 1.327 . S
C1341 C1347 1.429 . S
C1342 C1334 1.574 . S
C1342 H1337 0.949 . S
C1342 C1348 1.368 . S
C1343 C1327 1.349 . S
C1343 H1335 0.950 . S
C1343 C1341 1.327 . S
C1344 C1332 1.349 . S
C1344 H1338 0.950 . S
C1344 C1345 1.327 . S
C1345 H1339 0.950 . S
C1345 C1344 1.327 . S
C1345 C1349 1.429 . S
C1346 C1329 1.574 . S
C1346 H1340 0.949 . S
C1346 C1350 1.368 . S
C1347 C1328 1.429 . S
C1347 C1341 1.429 . S
C1347 C1348 1.523 . S
C1348 C1329 1.368 . S
C1348 C1342 1.368 . S
C1348 C1347 1.523 . S
C1349 C1333 1.429 . S
C1349 C1345 1.429 . S
C1349 C1350 1.523 . S
C1350 C1334 1.368 . S
C1350 C1346 1.368 . S
C1350 C1349 1.523 . S
H1351 C1326 0.950 . S
H1352 C1328 0.950 . S
H1353 C1329 0.949 . S
H1354 C1331 0.950 . S
H1355 C1333 0.950 . S
C1356 C1357 1.349 . S
C1356 C1358 1.327 . S
C1356 H1381 0.950 . S
C1357 C1356 1.349 . S
C1357 C1373 1.349 . S
C1358 C1356 1.327 . S
C1358 C1377 1.429 . S
C1358 H1382 0.950 . S
C1359 C1376 1.574 . S
C1359 C1378 1.368 . S
C1359 H1383 0.949 . S
H1360 C1364 0.949 . S
C1361 C1362 1.349 . S
C1361 C1363 1.327 . S
C1361 H1384 0.950 . S
C1362 C1361 1.349 . S
C1362 C1374 1.349 . S
C1363 C1361 1.327 . S
C1363 C1379 1.429 . S
C1363 H1385 0.950 . S
C1364 H1360 0.949 . S
C1364 C1372 1.574 . S
C1364 C1380 1.368 . S
H1365 C1373 0.950 . S
H1366 C1371 0.950 . S
H1367 C1372 0.949 . S
H1368 C1374 0.950 . S
H1369 C1375 0.950 . S
H1370 C1376 0.949 . S
C1371 H1366 0.950 . S
C1371 C1373 1.327 . S
C1371 C1377 1.429 . S
C1372 C1364 1.574 . S
C1372 H1367 0.949 . S
C1372 C1378 1.368 . S
C1373 C1357 1.349 . S
C1373 H1365 0.950 . S
C1373 C1371 1.327 . S
C1374 C1362 1.349 . S
C1374 H1368 0.950 . S
C1374 C1375 1.327 . S
C1375 H1369 0.950 . S
C1375 C1374 1.327 . S
C1375 C1379 1.429 . S
C1376 C1359 1.574 . S
C1376 H1370 0.949 . S
C1376 C1380 1.368 . S
C1377 C1358 1.429 . S
C1377 C1371 1.429 . S
C1377 C1378 1.523 . S
C1378 C1359 1.368 . S
C1378 C1372 1.368 . S
C1378 C1377 1.523 . S
C1379 C1363 1.429 . S
C1379 C1375 1.429 . S
C1379 C1380 1.523 . S
C1380 C1364 1.368 . S
C1380 C1376 1.368 . S
C1380 C1379 1.523 . S
H1381 C1356 0.950 . S
H1382 C1358 0.950 . S
H1383 C1359 0.949 . S
H1384 C1361 0.950 . S
H1385 C1363 0.950 . S
C1386 C1387 1.349 . S
C1386 C1388 1.327 . S
C1386 H1411 0.950 . S
C1387 C1386 1.349 . S
C1387 C1403 1.349 . S
C1388 C1386 1.327 . S
C1388 C1407 1.429 . S
C1388 H1412 0.950 . S
C1389 C1406 1.574 . S
C1389 C1408 1.368 . S
C1389 H1413 0.949 . S
H1390 C1394 0.949 . S
C1391 C1392 1.349 . S
C1391 C1393 1.327 . S
C1391 H1414 0.950 . S
C1392 C1391 1.349 . S
C1392 C1404 1.349 . S
C1393 C1391 1.327 . S
C1393 C1409 1.429 . S
C1393 H1415 0.950 . S
C1394 H1390 0.949 . S
C1394 C1402 1.574 . S
C1394 C1410 1.368 . S
H1395 C1403 0.950 . S
H1396 C1401 0.950 . S
H1397 C1402 0.949 . S
H1398 C1404 0.950 . S
H1399 C1405 0.950 . S
H1400 C1406 0.949 . S
C1401 H1396 0.950 . S
C1401 C1403 1.327 . S
C1401 C1407 1.429 . S
C1402 C1394 1.574 . S
C1402 H1397 0.949 . S
C1402 C1408 1.368 . S
C1403 C1387 1.349 . S
C1403 H1395 0.950 . S
C1403 C1401 1.327 . S
C1404 C1392 1.349 . S
C1404 H1398 0.950 . S
C1404 C1405 1.327 . S
C1405 H1399 0.950 . S
C1405 C1404 1.327 . S
C1405 C1409 1.429 . S
C1406 C1389 1.574 . S
C1406 H1400 0.949 . S
C1406 C1410 1.368 . S
C1407 C1388 1.429 . S
C1407 C1401 1.429 . S
C1407 C1408 1.523 . S
C1408 C1389 1.368 . S
C1408 C1402 1.368 . S
C1408 C1407 1.523 . S
C1409 C1393 1.429 . S
C1409 C1405 1.429 . S
C1409 C1410 1.523 . S
C1410 C1394 1.368 . S
C1410 C1406 1.368 . S
C1410 C1409 1.523 . S
H1411 C1386 0.950 . S
H1412 C1388 0.950 . S
H1413 C1389 0.949 . S
H1414 C1391 0.950 . S
H1415 C1393 0.950 . S
C1416 C1417 1.349 . S
C1416 C1418 1.327 . S
C1416 H1441 0.950 . S
C1417 C1416 1.349 . S
C1417 C1433 1.349 . S
C1418 C1416 1.327 . S
C1418 C1437 1.429 . S
C1418 H1442 0.950 . S
C1419 C1436 1.574 . S
C1419 C1438 1.368 . S
C1419 H1443 0.949 . S
H1420 C1424 0.949 . S
C1421 C1422 1.349 . S
C1421 C1423 1.327 . S
C1421 H1444 0.950 . S
C1422 C1421 1.349 . S
C1422 C1434 1.349 . S
C1423 C1421 1.327 . S
C1423 C1439 1.429 . S
C1423 H1445 0.950 . S
C1424 H1420 0.949 . S
C1424 C1432 1.574 . S
C1424 C1440 1.368 . S
H1425 C1433 0.950 . S
H1426 C1431 0.950 . S
H1427 C1432 0.949 . S
H1428 C1434 0.950 . S
H1429 C1435 0.950 . S
H1430 C1436 0.949 . S
C1431 H1426 0.950 . S
C1431 C1433 1.327 . S
C1431 C1437 1.429 . S
C1432 C1424 1.574 . S
C1432 H1427 0.949 . S
C1432 C1438 1.368 . S
C1433 C1417 1.349 . S
C1433 H1425 0.950 . S
C1433 C1431 1.327 . S
C1434 C1422 1.349 . S
C1434 H1428 0.950 . S
C1434 C1435 1.327 . S
C1435 H1429 0.950 . S
C1435 C1434 1.327 . S
C1435 C1439 1.429 . S
C1436 C1419 1.574 . S
C1436 H1430 0.949 . S
C1436 C1440 1.368 . S
C1437 C1418 1.429 . S
C1437 C1431 1.429 . S
C1437 C1438 1.523 . S
C1438 C1419 1.368 . S
C1438 C1432 1.368 . S
C1438 C1437 1.523 . S
C1439 C1423 1.429 . S
C1439 C1435 1.429 . S
C1439 C1440 1.523 . S
C1440 C1424 1.368 . S
C1440 C1436 1.368 . S
C1440 C1439 1.523 . S
H1441 C1416 0.950 . S
H1442 C1418 0.950 . S
H1443 C1419 0.949 . S
H1444 C1421 0.950 . S
H1445 C1423 0.950 . S
C1446 C1447 1.349 . S
C1446 C1448 1.327 . S
C1446 H1471 0.950 . S
C1447 C1446 1.349 . S
C1447 C1463 1.349 . S
C1448 C1446 1.327 . S
C1448 C1467 1.429 . S
C1448 H1472 0.950 . S
C1449 C1466 1.574 . S
C1449 C1468 1.368 . S
C1449 H1473 0.949 . S
H1450 C1454 0.949 . S
C1451 C1452 1.349 . S
C1451 C1453 1.327 . S
C1451 H1474 0.950 . S
C1452 C1451 1.349 . S
C1452 C1464 1.349 . S
C1453 C1451 1.327 . S
C1453 C1469 1.429 . S
C1453 H1475 0.950 . S
C1454 H1450 0.949 . S
C1454 C1462 1.574 . S
C1454 C1470 1.368 . S
H1455 C1463 0.950 . S
H1456 C1461 0.950 . S
H1457 C1462 0.949 . S
H1458 C1464 0.950 . S
H1459 C1465 0.950 . S
H1460 C1466 0.949 . S
C1461 H1456 0.950 . S
C1461 C1463 1.327 . S
C1461 C1467 1.429 . S
C1462 C1454 1.574 . S
C1462 H1457 0.949 . S
C1462 C1468 1.368 . S
C1463 C1447 1.349 . S
C1463 H1455 0.950 . S
C1463 C1461 1.327 . S
C1464 C1452 1.349 . S
C1464 H1458 0.950 . S
C1464 C1465 1.327 . S
C1465 H1459 0.950 . S
C1465 C1464 1.327 . S
C1465 C1469 1.429 . S
C1466 C1449 1.574 . S
C1466 H1460 0.949 . S
C1466 C1470 1.368 . S
C1467 C1448 1.429 . S
C1467 C1461 1.429 . S
C1467 C1468 1.523 . S
C1468 C1449 1.368 . S
C1468 C1462 1.368 . S
C1468 C1467 1.523 . S
C1469 C1453 1.429 . S
C1469 C1465 1.429 . S
C1469 C1470 1.523 . S
C1470 C1454 1.368 . S
C1470 C1466 1.368 . S
C1470 C1469 1.523 . S
H1471 C1446 0.950 . S
H1472 C1448 0.950 . S
H1473 C1449 0.949 . S
H1474 C1451 0.950 . S
H1475 C1453 0.950 . S
C1476 C1477 1.349 . S
C1476 C1478 1.327 . S
C1476 H1501 0.950 . S
C1477 C1476 1.349 . S
C1477 C1493 1.349 . S
C1478 C1476 1.327 . S
C1478 C1497 1.429 . S
C1478 H1502 0.950 . S
C1479 C1496 1.574 . S
C1479 C1498 1.368 . S
C1479 H1503 0.949 . S
H1480 C1484 0.949 . S
C1481 C1482 1.349 . S
C1481 C1483 1.327 . S
C1481 H1504 0.950 . S
C1482 C1481 1.349 . S
C1482 C1494 1.349 . S
C1483 C1481 1.327 . S
C1483 C1499 1.429 . S
C1483 H1505 0.950 . S
C1484 H1480 0.949 . S
C1484 C1492 1.574 . S
C1484 C1500 1.368 . S
H1485 C1493 0.950 . S
H1486 C1491 0.950 . S
H1487 C1492 0.949 . S
H1488 C1494 0.950 . S
H1489 C1495 0.950 . S
H1490 C1496 0.949 . S
C1491 H1486 0.950 . S
C1491 C1493 1.327 . S
C1491 C1497 1.429 . S
C1492 C1484 1.574 . S
C1492 H1487 0.949 . S
C1492 C1498 1.368 . S
C1493 C1477 1.349 . S
C1493 H1485 0.950 . S
C1493 C1491 1.327 . S
C1494 C1482 1.349 . S
C1494 H1488 0.950 . S
C1494 C1495 1.327 . S
C1495 H1489 0.950 . S
C1495 C1494 1.327 . S
C1495 C1499 1.429 . S
C1496 C1479 1.574 . S
C1496 H1490 0.949 . S
C1496 C1500 1.368 . S
C1497 C1478 1.429 . S
C1497 C1491 1.429 . S
C1497 C1498 1.523 . S
C1498 C1479 1.368 . S
C1498 C1492 1.368 . S
C1498 C1497 1.523 . S
C1499 C1483 1.429 . S
C1499 C1495 1.429 . S
C1499 C1500 1.523 . S
C1500 C1484 1.368 . S
C1500 C1496 1.368 . S
C1500 C1499 1.523 . S
H1501 C1476 0.950 . S
H1502 C1478 0.950 . S
H1503 C1479 0.949 . S
H1504 C1481 0.950 . S
H1505 C1483 0.950 . S
C1506 C1507 1.349 . S
C1506 C1508 1.327 . S
C1506 H1531 0.950 . S
C1507 C1506 1.349 . S
C1507 C1523 1.349 . S
C1508 C1506 1.327 . S
C1508 C1527 1.429 . S
C1508 H1532 0.950 . S
C1509 C1526 1.574 . S
C1509 C1528 1.368 . S
C1509 H1533 0.949 . S
H1510 C1514 0.949 . S
C1511 C1512 1.349 . S
C1511 C1513 1.327 . S
C1511 H1534 0.950 . S
C1512 C1511 1.349 . S
C1512 C1524 1.349 . S
C1513 C1511 1.327 . S
C1513 C1529 1.429 . S
C1513 H1535 0.950 . S
C1514 H1510 0.949 . S
C1514 C1522 1.574 . S
C1514 C1530 1.368 . S
H1515 C1523 0.950 . S
H1516 C1521 0.950 . S
H1517 C1522 0.949 . S
H1518 C1524 0.950 . S
H1519 C1525 0.950 . S
H1520 C1526 0.949 . S
C1521 H1516 0.950 . S
C1521 C1523 1.327 . S
C1521 C1527 1.429 . S
C1522 C1514 1.574 . S
C1522 H1517 0.949 . S
C1522 C1528 1.368 . S
C1523 C1507 1.349 . S
C1523 H1515 0.950 . S
C1523 C1521 1.327 . S
C1524 C1512 1.349 . S
C1524 H1518 0.950 . S
C1524 C1525 1.327 . S
C1525 H1519 0.950 . S
C1525 C1524 1.327 . S
C1525 C1529 1.429 . S
C1526 C1509 1.574 . S
C1526 H1520 0.949 . S
C1526 C1530 1.368 . S
C1527 C1508 1.429 . S
C1527 C1521 1.429 . S
C1527 C1528 1.523 . S
C1528 C1509 1.368 . S
C1528 C1522 1.368 . S
C1528 C1527 1.523 . S
C1529 C1513 1.429 . S
C1529 C1525 1.429 . S
C1529 C1530 1.523 . S
C1530 C1514 1.368 . S
C1530 C1526 1.368 . S
C1530 C1529 1.523 . S
H1531 C1506 0.950 . S
H1532 C1508 0.950 . S
H1533 C1509 0.949 . S
H1534 C1511 0.950 . S
H1535 C1513 0.950 . S
C577 C148 1.295 . S
C582 C4 1.295 . S
C607 C184 1.295 . S
C612 C40 1.295 . S
C637 C220 1.295 . S
C642 C76 1.295 . S
C667 C256 1.295 . S
C672 C112 1.295 . S
C697 C436 1.295 . S
C702 C292 1.295 . S
C727 C472 1.295 . S
C732 C328 1.295 . S
C757 C364 1.295 . S
C762 C508 1.295 . S
C787 C544 1.295 . S
C792 C400 1.295 . S
C817 C3 1.436 . S
C822 C183 1.435 1_556 S
C847 C219 1.435 1_556 S
C852 C39 1.436 . S
C877 C75 1.436 . S
C882 C255 1.435 1_556 S
C907 C147 1.435 1_556 S
C912 C111 1.436 . S
C937 C471 1.436 . S
C942 C291 1.436 . S
C967 C507 1.436 . S
C972 C327 1.436 . S
C997 C363 1.436 . S
C1002 C543 1.436 . S
C1027 C399 1.436 . S
C1032 C435 1.436 . S
C1057 C542 1.414 . S
C1062 C2 1.414 . S
C1087 C434 1.414 . S
C1092 C38 1.414 . S
C1117 C470 1.414 . S
C1122 C74 1.414 . S
C1147 C506 1.414 . S
C1152 C110 1.414 . S
C1177 C326 1.414 . S
C1182 C146 1.414 . S
C1207 C362 1.414 . S
C1212 C182 1.414 . S
C1237 C218 1.414 . S
C1242 C398 1.414 . S
C1267 C254 1.414 . S
C1272 C290 1.414 . S
C1297 C482 1.268 . S
C1302 C86 1.268 . S
C1327 C518 1.268 . S
C1332 C122 1.268 . S
C1357 C554 1.268 . S
C1362 C14 1.268 . S
C1387 C50 1.268 . S
C1392 C446 1.268 . S
C1417 C410 1.268 . S
C1422 C230 1.268 . S
C1447 C266 1.268 . S
C1452 C302 1.268 . S
C1477 C338 1.268 . S
C1482 C158 1.268 . S
C1507 C374 1.268 . S
C1512 C194 1.268 . S
