# Generated by pormake.
# Topology smc, (6)-cn, num edge types: 1
# Building blocks:
#     Node 0, Type 0, BuildingBlock: HISSIN_clean_sbu_0, # of connection points: 6
#     Node 1, Type 0, BuildingBlock: HISSIN_clean_sbu_0, # of connection points: 6
#     Node 2, Type 0, BuildingBlock: HISSIN_clean_sbu_0, # of connection points: 6
#     Node 3, Type 0, BuildingBlock: HISSIN_clean_sbu_0, # of connection points: 6
#     Node 4, Type 0, BuildingBlock: HISSIN_clean_sbu_0, # of connection points: 6
#     Node 5, Type 0, BuildingBlock: HISSIN_clean_sbu_0, # of connection points: 6
#     Node 6, Type 0, BuildingBlock: HISSIN_clean_sbu_0, # of connection points: 6
#     Node 7, Type 0, BuildingBlock: HISSIN_clean_sbu_0, # of connection points: 6
#     Node 8, Type 0, BuildingBlock: HISSIN_clean_sbu_0, # of connection points: 6
#     Edge 9, Type (0, 0), BuildingBlock: CIFDUS_clean_linker_0, # of connection points: 2
#     Edge 10, Type (0, 0), BuildingBlock: CIFDUS_clean_linker_0, # of connection points: 2
#     Edge 11, Type (0, 0), BuildingBlock: CIFDUS_clean_linker_0, # of connection points: 2
#     Edge 12, Type (0, 0), BuildingBlock: CIFDUS_clean_linker_0, # of connection points: 2
#     Edge 13, Type (0, 0), BuildingBlock: CIFDUS_clean_linker_0, # of connection points: 2
#     Edge 14, Type (0, 0), BuildingBlock: CIFDUS_clean_linker_0, # of connection points: 2
#     Edge 15, Type (0, 0), BuildingBlock: CIFDUS_clean_linker_0, # of connection points: 2
#     Edge 16, Type (0, 0), BuildingBlock: CIFDUS_clean_linker_0, # of connection points: 2
#     Edge 17, Type (0, 0), BuildingBlock: CIFDUS_clean_linker_0, # of connection points: 2
#     Edge 18, Type (0, 0), BuildingBlock: CIFDUS_clean_linker_0, # of connection points: 2
#     Edge 19, Type (0, 0), BuildingBlock: CIFDUS_clean_linker_0, # of connection points: 2
#     Edge 20, Type (0, 0), BuildingBlock: CIFDUS_clean_linker_0, # of connection points: 2
#     Edge 21, Type (0, 0), BuildingBlock: CIFDUS_clean_linker_0, # of connection points: 2
#     Edge 22, Type (0, 0), BuildingBlock: CIFDUS_clean_linker_0, # of connection points: 2
#     Edge 23, Type (0, 0), BuildingBlock: CIFDUS_clean_linker_0, # of connection points: 2
#     Edge 24, Type (0, 0), BuildingBlock: CIFDUS_clean_linker_0, # of connection points: 2
#     Edge 25, Type (0, 0), BuildingBlock: CIFDUS_clean_linker_0, # of connection points: 2
#     Edge 26, Type (0, 0), BuildingBlock: CIFDUS_clean_linker_0, # of connection points: 2
#     Edge 27, Type (0, 0), BuildingBlock: CIFDUS_clean_linker_0, # of connection points: 2
#     Edge 28, Type (0, 0), BuildingBlock: CIFDUS_clean_linker_0, # of connection points: 2
#     Edge 29, Type (0, 0), BuildingBlock: CIFDUS_clean_linker_0, # of connection points: 2
#     Edge 30, Type (0, 0), BuildingBlock: CIFDUS_clean_linker_0, # of connection points: 2
#     Edge 31, Type (0, 0), BuildingBlock: CIFDUS_clean_linker_0, # of connection points: 2
#     Edge 32, Type (0, 0), BuildingBlock: CIFDUS_clean_linker_0, # of connection points: 2
#     Edge 33, Type (0, 0), BuildingBlock: CIFDUS_clean_linker_0, # of connection points: 2
#     Edge 34, Type (0, 0), BuildingBlock: CIFDUS_clean_linker_0, # of connection points: 2
#     Edge 35, Type (0, 0), BuildingBlock: CIFDUS_clean_linker_0, # of connection points: 2
# Relax obj value: 0.362
# Max RMSD: 0.388
# Mean RMSD: 0.334
data_MOF--net-smc--node1-HISSIN_clean_sbu_0--edge1-CIFDUS_clean_linker_0
_symmetry_space_group_name_H-M    P1
_symmetry_Int_Tables_number       1
_symmetry_cell_setting            triclinic
loop_
_symmetry_equiv_pos_as_xyz
'x, y, z'
_cell_length_a     39.408905
_cell_length_b     28.681334
_cell_length_c     34.989874
_cell_angle_alpha  91.899108
_cell_angle_beta   90.371786
_cell_angle_gamma 119.38522
loop_
_atom_site_label
_atom_site_type_symbol
_atom_site_fract_x
_atom_site_fract_y
_atom_site_fract_z
_atom_type_partial_charge
Eu0 Eu 1.0552 0.49353 0.02313 0.0
Eu1 Eu 0.07606 0.40029 1.00308 0.0
C2 C 1.02465 0.42179 0.94349 0.0
C3 C 1.00956 0.57246 0.06588 0.0
C4 C 0.9697 0.5344 0.06488 0.0
C5 C 0.9977 0.6237 0.11547 0.0
C6 C 0.94396 0.54173 0.08811 0.0
C7 C 1.02347 0.61653 0.09194 0.0
C8 C 0.95747 0.58708 0.11308 0.0
C9 C 1.0365 0.56737 0.03922 0.0
O10 O 0.1343 0.47916 1.00412 0.0
O11 O 0.10852 0.53143 0.98749 0.0
C12 C 0.13897 0.52522 0.99251 0.0
O13 O 0.08409 0.48753 0.07894 0.0
O14 O 0.09599 0.361 0.96219 0.0
O15 O 0.07216 0.32363 0.01566 0.0
O16 O 0.09801 0.41996 0.06433 0.0
C17 C 0.09832 0.45602 0.08855 0.0
O18 O 1.01319 0.42523 0.05632 0.0
O19 O 1.01149 0.36013 0.01609 0.0
O20 O 1.05588 0.41697 0.94731 0.0
O21 O 0.06694 0.56767 0.0543 0.0
O22 O 1.0207 0.53179 1.0111 0.0
O23 O 1.01491 0.44393 0.97188 0.0
C24 C 0.13087 0.32947 0.99525 0.0
C25 C 0.15071 0.35851 0.02893 0.0
C26 C 0.1922 0.36318 0.9636 0.0
C27 C 0.19031 0.39504 0.02813 0.0
C28 C 0.15241 0.32707 0.9643 0.0
C29 C 0.21035 0.401 0.99408 0.0
C30 C 0.09327 0.32571 0.98644 0.0
C31 C 0.99496 0.37636 0.04181 0.0
H32 H 0.95805 0.49975 0.04525 0.0
H33 H 1.00913 0.65871 0.13473 0.0
H34 H 0.91317 0.51319 0.08491 0.0
H35 H 1.05415 0.6461 0.09346 0.0
H36 H 0.1349 0.35991 0.05375 0.0
H37 H 0.20768 0.36544 0.93764 0.0
H38 H 0.20373 0.42275 0.05246 0.0
H39 H 0.13773 0.30414 0.93831 0.0
Eu40 Eu 0.5887 0.62031 0.98457 0.0
Eu41 Eu 0.66379 0.66778 0.02727 0.0
C42 C 0.59841 0.62629 0.07682 0.0
C43 C 0.49012 0.59363 0.95554 0.0
C44 C 0.49169 0.6268 0.98671 0.0
C45 C 0.42507 0.57514 0.93961 0.0
C46 C 0.4594 0.63241 0.99521 0.0
C47 C 0.45754 0.57005 0.93095 0.0
C48 C 0.42493 0.60387 0.9731 0.0
C49 C 0.52096 0.58005 0.95083 0.0
O50 O 0.64677 0.57391 0.02184 0.0
O51 O 0.58634 0.53831 0.99433 0.0
C52 C 0.61359 0.5296 1.0093 0.0
O53 O 0.63505 0.64558 0.93585 0.0
O54 O 0.69125 0.7047 0.08303 0.0
O55 O 0.7261 0.70169 0.03638 0.0
O56 O 0.69186 0.67948 0.97021 0.0
C57 C 0.67382 0.66783 0.93705 0.0
O58 O 0.58875 0.70008 0.99254 0.0
O59 O 0.64645 0.73947 0.02527 0.0
O60 O 0.62099 0.60855 0.06527 0.0
O61 O 0.55273 0.61687 0.93592 0.0
O62 O 0.52775 0.5592 0.98061 0.0
O63 O 0.58584 0.64455 0.04913 0.0
C64 C 0.74764 0.699 0.09843 0.0
C65 C 0.7453 0.64875 0.0941 0.0
C66 C 0.80272 0.72834 0.1425 0.0
C67 C 0.77288 0.63937 0.11224 0.0
C68 C 0.77526 0.73781 0.12406 0.0
C69 C 0.80312 0.68008 0.13513 0.0
C70 C 0.72558 0.714 0.0725 0.0
C71 C 0.61565 0.74305 1.01103 0.0
H72 H 0.51677 0.64528 1.00605 0.0
H73 H 0.39892 0.55205 0.92205 0.0
H74 H 0.46025 0.65516 0.0209 0.0
H75 H 0.45617 0.54474 0.90662 0.0
H76 H 0.72392 0.61819 0.07453 0.0
H77 H 0.82515 0.76008 0.16053 0.0
H78 H 0.77235 0.60187 0.10561 0.0
H79 H 0.77716 0.77667 0.12796 0.0
Eu80 Eu 0.57631 0.11164 0.04182 0.0
Eu81 Eu 0.49414 1.05223 0.01337 0.0
C82 C 0.55112 0.10624 0.94939 0.0
C83 C 0.68641 0.19047 0.07736 0.0
C84 C 0.7107 0.17595 0.09694 0.0
C85 C 0.74337 0.2695 0.05589 0.0
C86 C 0.751 0.2071 0.09534 0.0
C87 C 0.70276 0.2377 0.0571 0.0
C88 C 0.76771 0.25362 0.07431 0.0
C89 C 0.64477 0.15166 0.07533 0.0
O90 O 0.51417 0.98505 0.0218 0.0
O91 O 0.57929 1.03619 0.02188 0.0
C92 C 0.5493 0.9876 0.0206 0.0
O93 O 0.53203 0.06872 0.09119 0.0
O94 O 0.44156 1.01538 0.97537 0.0
O95 O 0.43747 0.99651 0.03518 0.0
O96 O 0.4907 0.09181 0.06799 0.0
C97 C 0.50186 0.07626 0.09733 0.0
O98 O 0.57391 0.1898 0.0352 0.0
O99 O 0.51263 0.14754 1.00781 0.0
O100 O 0.5197 0.06236 0.95668 0.0
O101 O 0.61934 0.16637 0.08508 0.0
O102 O 0.63297 0.1171 0.04644 0.0
O103 O 0.57629 0.13514 0.97777 0.0
C104 C 0.3905 0.92726 0.99285 0.0
C105 C 0.38402 0.887 0.01865 0.0
C106 C 0.33462 0.86012 0.95452 0.0
C107 C 0.35272 0.83446 0.01293 0.0
C108 C 0.3658 0.91263 0.96031 0.0
C109 C 0.32675 0.82046 0.98133 0.0
C110 C 0.4192 0.98514 1.00207 0.0
C111 C 0.54518 0.19437 0.01938 0.0
H112 H 0.69843 0.13932 0.11246 0.0
H113 H 0.75575 0.30525 0.03942 0.0
H114 H 0.76916 0.19441 0.11009 0.0
H115 H 0.68428 0.24899 0.04143 0.0
H116 H 0.40221 0.89647 0.04422 0.0
H117 H 0.31596 0.85102 0.92935 0.0
H118 H 0.34776 0.8056 0.0344 0.0
H119 H 0.3697 0.94239 0.93992 0.0
Eu120 Eu 0.69928 0.84815 0.36147 0.0
Eu121 Eu 0.76683 0.79747 0.33752 0.0
C122 C 0.69962 0.78682 0.2756 0.0
C123 C 0.60993 0.88692 0.37248 0.0
C124 C 0.57291 0.85314 0.35498 0.0
C125 C 0.58564 0.94979 0.38923 0.0
C126 C 0.54309 0.86745 0.35438 0.0
C127 C 0.61549 0.93551 0.38971 0.0
C128 C 0.54864 0.91638 0.37128 0.0
C129 C 0.64326 0.87399 0.36913 0.0
O130 O 0.79525 0.88717 0.33148 0.0
O131 O 0.7524 0.92002 0.34159 0.0
C132 C 0.78674 0.92628 0.33295 0.0
O133 O 0.73346 0.853 0.41817 0.0
O134 O 0.81526 0.80795 0.30024 0.0
O135 O 0.80657 0.76386 0.35088 0.0
O136 O 0.77206 0.81447 0.40098 0.0
C137 C 0.75958 0.8371 0.42641 0.0
O138 O 0.68281 0.76985 0.38637 0.0
O139 O 0.6998 0.72739 0.34087 0.0
O140 O 0.72654 0.77389 0.28503 0.0
O141 O 0.67898 0.90479 0.38229 0.0
O142 O 0.63782 0.82811 0.35476 0.0
O143 O 0.68957 0.81608 0.29832 0.0
C144 C 0.87581 0.81112 0.32598 0.0
C145 C 0.89431 0.78549 0.34437 0.0
C146 C 0.94364 0.87813 0.30694 0.0
C147 C 0.93594 0.80552 0.34413 0.0
C148 C 0.90221 0.85813 0.30719 0.0
C149 C 0.96252 0.85282 0.32534 0.0
C150 C 0.82997 0.78596 0.32229 0.0
C151 C 0.6722 0.72818 0.36331 0.0
H152 H 0.56702 0.81556 0.34101 0.0
H153 H 0.59219 0.98812 0.40228 0.0
H154 H 0.51541 0.83958 0.34068 0.0
H155 H 0.64343 0.96336 0.40302 0.0
H156 H 0.87633 0.74878 0.35876 0.0
H157 H 0.96072 0.91362 0.29109 0.0
H158 H 0.94719 0.78334 0.35905 0.0
H159 H 0.89073 0.87965 0.2917 0.0
Eu160 Eu 0.26927 0.8991 0.31778 0.0
Eu161 Eu 0.29791 1.01374 0.32929 0.0
C162 C 0.32822 0.98457 0.25388 0.0
C163 C 0.24743 0.78349 0.25209 0.0
C164 C 0.22011 0.74034 0.22931 0.0
C165 C 0.29961 0.77659 0.22093 0.0
C166 C 0.2324 0.71258 0.20488 0.0
C167 C 0.28728 0.80437 0.24549 0.0
C168 C 0.27213 0.72608 0.20486 0.0
C169 C 0.23429 0.80658 0.28243 0.0
O170 O 0.22979 0.98059 0.31775 0.0
O171 O 0.2128 0.89816 0.33603 0.0
C172 C 0.20139 0.93266 0.32731 0.0
O173 O 0.2812 0.90939 0.38318 0.0
O174 O 0.30496 0.0901 0.3121 0.0
O175 O 0.33067 0.08579 0.36592 0.0
O176 O 0.2769 0.98521 0.38793 0.0
C177 C 0.28164 0.9487 0.40456 0.0
O178 O 0.32602 0.90911 0.33739 0.0
O179 O 0.35344 1.00043 0.33708 0.0
O180 O 0.31807 1.01819 0.26859 0.0
O181 O 0.2514 0.81423 0.31619 0.0
O182 O 0.23049 0.84721 0.27204 0.0
O183 O 0.31477 0.93779 0.2696 0.0
C184 C 0.29891 0.13766 0.36462 0.0
C185 C 0.28402 0.12257 0.40141 0.0
C186 C 0.26208 0.18426 0.35846 0.0
C187 C 0.25795 0.13781 0.41637 0.0
C188 C 0.28847 0.16977 0.34378 0.0
C189 C 0.24597 0.16742 0.39445 0.0
C190 C 0.32009 0.11377 0.34524 0.0
C191 C 0.35705 0.95636 0.34092 0.0
H192 H 0.18921 0.72574 0.23242 0.0
H193 H 0.33052 0.79012 0.21968 0.0
H194 H 0.20995 0.676 0.19094 0.0
H195 H 0.30885 0.83972 0.26142 0.0
H196 H 0.29144 0.09758 0.4181 0.0
H197 H 0.25402 0.20845 0.34152 0.0
H198 H 0.24628 0.12519 0.44445 0.0
H199 H 0.2995 0.18179 0.3154 0.0
Eu200 Eu 0.22508 0.46555 0.38022 0.0
Eu201 Eu 0.12563 0.42361 0.36189 0.0
C202 C 0.17844 0.4267 0.29521 0.0
C203 C 0.34578 0.53019 0.38101 0.0
C204 C 0.37 0.58371 0.39442 0.0
C205 C 0.40692 0.53076 0.36129 0.0
C206 C 0.41134 0.60978 0.3917 0.0
C207 C 0.36539 0.50465 0.36396 0.0
C208 C 0.43132 0.58387 0.37588 0.0
C209 C 0.30162 0.49896 0.38889 0.0
O210 O 0.12675 0.35055 0.38277 0.0
O211 O 0.19313 0.37674 0.3846 0.0
C212 C 0.15603 0.34118 0.3878 0.0
O213 O 0.18783 0.44017 0.43678 0.0
O214 O 0.07649 0.40696 0.32361 0.0
O215 O 0.0683 0.39962 0.38456 0.0
O216 O 0.14629 0.46877 0.41783 0.0
C217 C 0.15752 0.44797 0.44434 0.0
O218 O 0.21348 0.53441 0.37927 0.0
O219 O 0.16269 0.50412 0.33632 0.0
O220 O 0.14758 0.39357 0.31367 0.0
O221 O 0.27747 0.45872 0.36641 0.0
O222 O 0.28352 0.5209 0.40689 0.0
O223 O 0.21093 0.46119 0.31462 0.0
C224 C 1.01688 0.3374 0.34458 0.0
C225 C 1.01954 0.29105 0.34997 0.0
C226 C 0.94759 0.28198 0.33037 0.0
C227 C 0.98639 0.24054 0.34611 0.0
C228 C 0.98083 0.3326 0.33443 0.0
C229 C 0.94988 0.23529 0.33653 0.0
C230 C 1.05136 0.39057 0.3509 0.0
C231 C 0.19742 0.54164 0.34881 0.0
H232 H 0.35705 0.60552 0.40794 0.0
H233 H 0.41993 0.50829 0.34903 0.0
H234 H 0.42775 0.65082 0.40263 0.0
H235 H 0.34858 0.46333 0.35362 0.0
H236 H 1.04717 0.294 0.35789 0.0
H237 H 0.9201 0.27945 0.32248 0.0
H238 H 0.98924 0.20569 0.35168 0.0
H239 H 0.9783 0.36801 0.33005 0.0
Eu240 Eu 0.40353 0.15704 0.69277 0.0
Eu241 Eu 0.41886 1.05751 0.68005 0.0
C242 C 0.37416 0.0806 0.61398 0.0
C243 C 0.35763 0.24588 0.71095 0.0
C244 C 0.31975 0.20666 0.6995 0.0
C245 C 0.33195 0.30027 0.73894 0.0
C246 C 0.28814 0.21454 0.70736 0.0
C247 C 0.36349 0.29247 0.73088 0.0
C248 C 0.2939 0.26162 0.72703 0.0
C249 C 0.39118 0.23814 0.70363 0.0
O250 O 0.47886 0.1352 0.6791 0.0
O251 O 0.45528 0.18672 0.65563 0.0
C252 C 0.48499 0.18034 0.66395 0.0
O253 O 0.44598 0.16546 0.74226 0.0
O254 O 0.44002 1.01339 0.64524 0.0
O255 O 0.40894 0.97935 0.69702 0.0
O256 O 0.43835 0.08086 0.74153 0.0
C257 C 0.4521 0.12864 0.75797 0.0
O258 O 0.35317 0.09214 0.72171 0.0
O259 O 0.3529 1.02239 0.68835 0.0
O260 O 0.40215 0.06987 0.6213 0.0
O261 O 0.40076 0.21673 0.73092 0.0
O262 O 0.39251 0.21841 0.66993 0.0
O263 O 0.36549 0.10773 0.63987 0.0
C264 C 0.45654 0.95718 0.6777 0.0
C265 C 0.48929 0.99036 0.70082 0.0
C266 C 0.48439 0.90041 0.66167 0.0
C267 C 0.52023 0.97992 0.70303 0.0
C268 C 0.45343 0.91098 0.65947 0.0
C269 C 0.5189 0.93627 0.68194 0.0
C270 C 0.42809 0.97399 0.66849 0.0
C271 C 0.33467 1.04239 0.70887 0.0
H272 H 0.31466 0.17012 0.68438 0.0
H273 H 0.33737 0.33647 0.75477 0.0
H274 H 0.25932 0.18419 0.69745 0.0
H275 H 0.39252 0.32278 0.74037 0.0
H276 H 0.49203 1.02625 0.71503 0.0
H277 H 0.48239 0.86629 0.64545 0.0
H278 H 0.54648 1.00889 0.71851 0.0
H279 H 0.42808 0.88489 0.64164 0.0
Eu280 Eu 0.90033 0.29242 0.65054 0.0
Eu281 Eu 0.97505 0.34074 0.69258 0.0
C282 C 0.91036 0.29864 0.74381 0.0
C283 C 0.79697 0.18752 0.63172 0.0
C284 C 0.77412 0.18934 0.66177 0.0
C285 C 0.75807 0.09021 0.62879 0.0
C286 C 0.74403 0.14237 0.67542 0.0
C287 C 0.78857 0.13747 0.61522 0.0
C288 C 0.73572 0.09232 0.65921 0.0
C289 C 0.83092 0.23741 0.6197 0.0
O290 O 0.96031 0.24857 0.68556 0.0
O291 O 0.89689 0.21219 0.66741 0.0
C292 C 0.92576 0.20405 0.67774 0.0
O293 O 0.94777 0.3278 0.6027 0.0
O294 O 1.0074 0.35848 0.74703 0.0
O295 O 1.03686 0.39957 0.69669 0.0
O296 O 0.99968 0.33556 0.63617 0.0
C297 C 0.9846 0.33758 0.60356 0.0
O298 O 0.90577 0.3747 0.64745 0.0
O299 O 0.95319 0.40832 0.69361 0.0
O300 O 0.93486 0.28391 0.73321 0.0
O301 O 0.84162 0.27953 0.64242 0.0
O302 O 0.86067 0.23342 0.60749 0.0
O303 O 0.89553 0.31302 0.71553 0.0
C304 C 0.0719 0.37677 0.739 0.0
C305 C 0.06836 0.32865 0.72387 0.0
C306 C 0.13763 0.40399 0.76136 0.0
C307 C 0.09951 0.3186 0.7269 0.0
C308 C 0.1064 0.414 0.75828 0.0
C309 C 0.13477 0.35659 0.74506 0.0
C310 C 1.04082 0.38971 0.73202 0.0
C311 C 0.9267 0.4142 0.67218 0.0
H312 H 0.7795 0.2271 0.67504 0.0
H313 H 0.75187 1.0521 0.61549 0.0
H314 H 0.72649 0.14539 0.69805 0.0
H315 H 0.8057 0.13485 0.59202 0.0
H316 H 1.04194 0.29964 0.70864 0.0
H317 H 0.16424 0.43372 0.77592 0.0
H318 H 0.09649 0.28208 0.71358 0.0
H319 H 0.10953 0.45136 0.77009 0.0
Eu320 Eu 0.90336 0.80207 0.7001 0.0
Eu321 Eu 0.81646 0.72983 0.68145 0.0
C322 C 0.86042 0.79341 0.61304 0.0
C323 C 1.02163 0.8843 0.71868 0.0
C324 C 1.04437 0.92743 0.69563 0.0
C325 C 0.08147 0.89102 0.74527 0.0
C326 C 0.08519 0.95255 0.6977 0.0
C327 C 1.04056 0.86672 0.74387 0.0
C328 C 0.10427 0.93416 0.7221 0.0
C329 C 0.97866 0.85351 0.71281 0.0
O330 O 0.84146 0.66804 0.68885 0.0
O331 O 0.90554 0.72519 0.68407 0.0
C332 C 0.8777 0.67522 0.68576 0.0
O333 O 0.86742 0.76793 0.75719 0.0
O334 O 0.76128 0.68544 0.648 0.0
O335 O 0.76299 0.67184 0.70818 0.0
O336 O 0.81517 0.77076 0.73554 0.0
C337 C 0.83328 0.76558 0.76452 0.0
O338 O 0.89263 0.87287 0.70348 0.0
O339 O 0.83001 0.82427 0.67905 0.0
O340 O 0.83301 0.74619 0.62147 0.0
O341 O 0.95396 0.84386 0.74028 0.0
O342 O 0.9626 0.83751 0.67878 0.0
O343 O 0.88893 0.82253 0.63883 0.0
C344 C 0.71647 0.59631 0.66957 0.0
C345 C 0.7019 0.56223 0.70064 0.0
C346 C 0.67634 0.51843 0.62681 0.0
C347 C 0.67475 0.50733 0.69493 0.0
C348 C 0.70353 0.5733 0.63252 0.0
C349 C 0.66086 0.48458 0.65795 0.0
C350 C 0.74223 0.65581 0.67642 0.0
C351 C 0.86149 0.87304 0.68994 0.0
H352 H 1.03053 0.94128 0.67558 0.0
H353 H 0.0953 0.8762 0.76452 0.0
H354 H 0.1019 0.98561 0.67944 0.0
H355 H 1.02368 0.83292 0.76147 0.0
H356 H 0.71066 0.57831 0.72969 0.0
H357 H 0.66699 0.50269 0.59779 0.0
H358 H 0.6634 0.48324 0.71974 0.0
H359 H 0.71375 0.59791 0.60783 0.0
H360 H 0.36121 0.59536 0.93604 0.0
H361 H 0.40327 0.58245 0.04718 0.0
H362 H 0.33725 0.52187 0.06588 0.0
H363 H 0.27144 0.45437 0.04437 0.0
H364 H 0.23008 0.46141 0.93133 0.0
H365 H 0.29208 0.54033 0.91907 0.0
C366 C 0.35567 0.58052 0.96475 0.0
C367 C 0.38709 0.59145 0.98945 0.0
C368 C 0.31801 0.54224 0.97427 0.0
C369 C 0.37968 0.57404 0.02718 0.0
C370 C 0.3419 0.53834 0.03773 0.0
C371 C 0.27581 0.47369 0.01732 0.0
C372 C 0.24708 0.45076 0.98818 0.0
C373 C 0.31147 0.51896 1.01041 0.0
C374 C 0.2527 0.4768 0.9535 0.0
C375 C 0.28783 0.52244 0.94668 0.0
H376 H 0.6181 0.9766 0.03333 0.0
H377 H 0.49651 0.87865 1.00221 0.0
H378 H 0.50553 0.79985 0.99628 0.0
H379 H 0.54771 0.75499 0.9989 0.0
H380 H 0.66837 0.85134 0.03385 0.0
H381 H 0.65971 0.93063 0.03899 0.0
C382 C 0.59313 0.93823 0.02525 0.0
C383 C 0.55601 0.93648 0.01816 0.0
C384 C 0.5985 0.89088 0.02239 0.0
C385 C 0.52529 0.88417 1.00806 0.0
C386 C 0.53062 0.83803 1.00455 0.0
C387 C 0.57256 0.79308 1.00777 0.0
C388 C 0.60939 0.79438 0.01562 0.0
C389 C 0.56706 0.84019 1.01147 0.0
C390 C 0.63981 0.84619 0.02731 0.0
C391 C 0.6347 0.89262 0.03027 0.0
H392 H 0.31418 0.71904 0.99904 0.0
H393 H 0.25475 0.80069 0.95722 0.0
H394 H 0.19357 0.71705 0.95418 0.0
H395 H 0.15551 0.62212 0.96629 0.0
H396 H 0.21203 0.53761 1.00941 0.0
H397 H 0.27527 0.62032 1.00865 0.0
C398 C 0.28788 0.71859 0.98921 0.0
C399 C 0.28974 0.76695 0.97809 0.0
C400 C 0.25198 0.66959 0.98779 0.0
C401 C 0.255 0.76472 0.96522 0.0
C402 C 0.21964 0.71667 0.96375 0.0
C403 C 0.18156 0.62128 0.97533 0.0
C404 C 0.17856 0.57321 0.98813 0.0
C405 C 0.21765 0.66905 0.97527 0.0
C406 C 0.2131 0.57365 0.99943 0.0
C407 C 0.24937 0.62122 0.99918 0.0
H408 H 0.61026 0.29905 0.04022 0.0
H409 H 0.49622 0.23085 0.98677 0.0
H410 H 0.5061 0.32167 0.97907 0.0
H411 H 0.54714 0.42453 0.98716 0.0
H412 H 0.66125 0.49162 0.04045 0.0
H413 H 0.65112 0.40093 0.0479 0.0
C414 C 0.58706 0.30309 0.02678 0.0
C415 C 0.55175 0.25413 0.01441 0.0
C416 C 0.59315 0.35758 0.02216 0.0
C417 C 0.52349 0.2645 0.99711 0.0
C418 C 0.52936 0.31784 0.99258 0.0
C419 C 0.57026 0.42018 1.00045 0.0
C420 C 0.60575 0.46897 0.01298 0.0
C421 C 0.56407 0.36547 1.00491 0.0
C422 C 0.63388 0.45819 0.03006 0.0
C423 C 0.6279 0.40492 0.03446 0.0
H424 H 0.81491 0.21465 0.05205 0.0
H425 H 0.81583 0.36037 0.08857 0.0
H426 H 0.88691 0.4101 0.08463 0.0
H427 H 0.94793 0.41206 0.06998 0.0
H428 H 0.94746 0.26817 0.02884 0.0
H429 H 0.87668 0.21712 0.03612 0.0
C430 C 0.83082 0.25729 0.05925 0.0
C431 C 0.81045 0.28401 0.07073 0.0
C432 C 0.87148 0.28556 0.05637 0.0
C433 C 0.83105 0.33926 0.07948 0.0
C434 C 0.87158 0.3675 0.07742 0.0
C435 C 0.93253 0.3694 0.06293 0.0
C436 C 0.95298 0.34377 0.0492 0.0
C437 C 0.892 0.34102 0.06589 0.0
C438 C 0.93239 0.28868 0.03967 0.0
C439 C 0.89197 0.25962 0.04367 0.0
H440 H 0.96131 0.68389 0.12193 0.0
H441 H 0.88908 0.51736 0.14677 0.0
H442 H 0.83561 0.53393 0.16292 0.0
H443 H 0.80648 0.59252 0.15915 0.0
H444 H 0.87907 0.75785 0.13124 0.0
H445 H 0.93569 0.74545 0.12932 0.0
C446 C 0.93443 0.65147 0.13219 0.0
C447 C 0.92899 0.59922 0.13228 0.0
C448 C 0.90368 0.66107 0.14086 0.0
C449 C 0.89372 0.55775 0.14546 0.0
C450 C 0.86313 0.5672 0.15478 0.0
C451 C 0.83484 0.62605 0.15336 0.0
C452 C 0.83822 0.67571 0.14468 0.0
C453 C 0.86723 0.61818 0.15077 0.0
C454 C 0.87539 0.71915 0.13818 0.0
C455 C 0.90786 0.71197 0.13656 0.0
H456 H 1.01069 0.80436 0.34006 0.0
H457 H 1.02319 0.95653 0.30981 0.0
H458 H 0.09334 0.99374 0.30692 0.0
H459 H 0.15511 0.98595 0.31279 0.0
H460 H 0.14147 0.83373 0.34448 0.0
H461 H 0.07139 0.79692 0.34696 0.0
C462 C 1.02818 0.84586 0.33291 0.0
C463 C 1.00862 0.8759 0.32472 0.0
C464 C 0.07039 0.86852 0.33149 0.0
C465 C 1.03458 0.92997 0.31558 0.0
C466 C 0.07594 0.95221 0.31414 0.0
C467 C 0.13718 0.94467 0.32032 0.0
C468 C 0.15614 0.91376 0.3284 0.0
C469 C 0.09482 0.92226 0.32189 0.0
C470 C 0.13004 0.86011 0.33798 0.0
C471 C 0.08891 0.83831 0.33945 0.0
H472 H 0.18198 0.31375 0.44882 0.0
H473 H 0.11571 0.25056 0.3433 0.0
H474 H 0.13154 0.17796 0.34107 0.0
H475 H 0.1796 0.15095 0.35939 0.0
H476 H 0.25071 0.22051 0.46176 0.0
H477 H 0.21718 0.27143 0.47581 0.0
C478 C 0.16945 0.28232 0.42647 0.0
C479 C 0.14835 0.28732 0.39598 0.0
C480 C 0.18055 0.24292 0.4244 0.0
C481 C 0.13199 0.247 0.36703 0.0
C482 C 0.14163 0.20615 0.36547 0.0
C483 C 0.18671 0.17599 0.38539 0.0
C484 C 0.21808 0.18345 0.40904 0.0
C485 C 0.16831 0.20644 0.39241 0.0
C486 C 0.22685 0.21484 0.44306 0.0
C487 C 0.20788 0.24416 0.45091 0.0
H488 H 0.94253 0.14133 0.30712 0.0
H489 H 0.87699 0.20793 0.36171 0.0
H490 H 0.81979 0.11897 0.36232 0.0
H491 H 0.78967 1.02144 0.35153 0.0
H492 H 0.85659 0.95466 0.30006 0.0
H493 H 0.91188 1.04432 0.29451 0.0
C494 C 0.91581 0.13645 0.31931 0.0
C495 C 0.91429 0.18146 0.33449 0.0
C496 C 0.88322 0.08498 0.32035 0.0
C497 C 0.87903 0.17428 0.34941 0.0
C498 C 0.84631 0.12327 0.35006 0.0
C499 C 0.81615 1.02645 0.33866 0.0
C500 C 0.81886 0.98116 0.32638 0.0
C501 C 0.84823 0.07822 0.33611 0.0
C502 C 0.85362 0.98862 0.31 0.0
C503 C 0.88535 1.03997 0.3068 0.0
H504 H 0.32633 0.71562 0.24979 0.0
H505 H 0.24091 0.62821 0.16111 0.0
H506 H 0.20332 0.55712 0.20476 0.0
H507 H 0.18489 0.53903 0.2723 0.0
H508 H 0.27037 0.62684 0.36226 0.0
H509 H 0.31599 0.68396 0.31494 0.0
C510 C 0.29984 0.68033 0.23962 0.0
C511 C 0.28139 0.68136 0.20522 0.0
C512 C 0.27698 0.64305 0.26633 0.0
C513 C 0.25262 0.63131 0.18976 0.0
C514 C 0.23025 0.59142 0.21509 0.0
C515 C 0.21368 0.56961 0.28164 0.0
C516 C 0.22384 0.5791 0.32085 0.0
C517 C 0.24028 0.60022 0.25431 0.0
C518 C 0.26143 0.61958 0.33232 0.0
C519 C 0.2878 0.65149 0.30527 0.0
H520 H 0.48592 0.57497 0.32572 0.0
H521 H 0.48197 0.65537 0.43089 0.0
H522 H 0.55236 0.70208 0.43603 0.0
H523 H 0.61626 0.72315 0.41205 0.0
H524 H 0.62501 0.64717 0.30718 0.0
H525 H 0.55312 0.5961 0.30149 0.0
C526 C 0.50022 0.60252 0.34993 0.0
C527 C 0.47673 0.61135 0.37749 0.0
C528 C 0.54243 0.63033 0.35317 0.0
C529 C 0.49748 0.64776 0.40833 0.0
C530 C 0.53847 0.67459 0.41166 0.0
C531 C 0.60298 0.69516 0.38781 0.0
C532 C 0.6276 0.68963 0.36029 0.0
C533 C 0.56139 0.66662 0.38436 0.0
C534 C 0.60814 0.65267 0.32936 0.0
C535 C 0.5665 0.62351 0.32597 0.0
H536 H 0.42169 0.99742 0.39401 0.0
H537 H 0.37737 0.90609 0.28764 0.0
H538 H 0.43114 0.88732 0.28623 0.0
H539 H 0.48956 0.89157 0.31614 0.0
H540 H 0.53331 0.97788 0.42455 0.0
H541 H 0.4824 1.00306 0.42392 0.0
C542 C 0.42439 0.97478 0.36996 0.0
C543 C 0.39557 0.95548 0.33989 0.0
C544 C 0.45552 0.96196 0.36994 0.0
C545 C 0.39942 0.9239 0.31025 0.0
C546 C 0.43014 0.91217 0.30973 0.0
C547 C 0.4882 0.91568 0.33993 0.0
C548 C 0.51639 0.93232 0.37036 0.0
C549 C 0.45819 0.93013 0.33962 0.0
C550 C 0.51321 0.96446 0.40023 0.0
C551 C 0.48356 0.9789 0.40004 0.0
H552 H 0.67914 1.01473 0.61382 0.0
H553 H 0.71352 0.06238 0.73217 0.0
H554 H 0.64698 1.00269 0.75157 0.0
H555 H 0.57761 0.95668 0.73299 0.0
H556 H 0.54362 0.91696 0.6137 0.0
H557 H 0.61113 0.95082 0.59686 0.0
C558 C 0.67242 1.01027 0.64395 0.0
C559 C 0.70071 1.04386 0.67147 0.0
C560 C 0.63387 0.9775 0.65471 0.0
C561 C 0.69177 1.03768 0.71045 0.0
C562 C 0.65375 1.00372 0.72153 0.0
C563 C 0.58496 0.95398 0.70347 0.0
C564 C 0.55581 0.936 0.67461 0.0
C565 C 0.62415 0.97643 0.69365 0.0
C566 C 0.56544 0.93103 0.63659 0.0
C567 C 0.60424 0.95116 0.62678 0.0
H568 H 0.96909 0.53239 0.6883 0.0
H569 H 0.85301 0.40082 0.6669 0.0
H570 H 0.82705 0.46237 0.66948 0.0
H571 H 0.83507 0.55628 0.67631 0.0
H572 H 0.95157 0.68831 0.69486 0.0
H573 H 0.97715 0.62646 0.69474 0.0
C574 C 0.93798 0.51638 0.68458 0.0
C575 C 0.9138 0.4591 0.67766 0.0
C576 C 0.92224 0.55367 0.68529 0.0
C577 C 0.87355 0.44291 0.67236 0.0
C578 C 0.85817 0.47895 0.67379 0.0
C579 C 0.86613 0.57228 0.68052 0.0
C580 C 0.89045 0.62981 0.68574 0.0
C581 C 0.88186 0.53499 0.67999 0.0
C582 C 0.93078 0.64609 0.69069 0.0
C583 C 0.94601 0.60984 0.69068 0.0
H584 H 0.64754 0.39291 0.69545 0.0
H585 H 0.59926 0.4466 0.60712 0.0
H586 H 0.54408 0.35676 0.59835 0.0
H587 H 0.50647 0.26443 0.6183 0.0
H588 H 0.55193 0.20822 0.70712 0.0
H589 H 0.611 0.29658 0.71264 0.0
C590 C 0.62503 0.38499 0.6742 0.0
C591 C 0.62817 0.42741 0.65192 0.0
C592 C 0.59266 0.33238 0.66923 0.0
C593 C 0.59852 0.41545 0.62433 0.0
C594 C 0.56657 0.3638 0.6194 0.0
C595 C 0.52955 0.271 0.63848 0.0
C596 C 0.52452 0.22918 0.66217 0.0
C597 C 0.56303 0.32214 0.64193 0.0
C598 C 0.55498 0.239 0.68809 0.0
C599 C 0.58865 0.28995 0.69156 0.0
H600 H 0.92619 0.97723 0.70579 0.0
H601 H 0.80769 0.90583 0.66314 0.0
H602 H 0.81615 0.99623 0.656 0.0
H603 H 0.85759 0.09929 0.66146 0.0
H604 H 0.97637 0.16829 0.70317 0.0
H605 H 0.96712 0.07813 0.71055 0.0
C606 C 0.90165 0.98043 0.69496 0.0
C607 C 0.86564 0.93115 0.6855 0.0
C608 C 0.90698 1.03418 0.69049 0.0
C609 C 0.83558 0.94009 0.67124 0.0
C610 C 0.84064 0.99303 0.66702 0.0
C611 C 0.88185 0.09532 0.67221 0.0
C612 C 0.91836 0.14417 0.68161 0.0
C613 C 0.87624 1.04108 0.67647 0.0
C614 C 0.94815 0.13445 0.69538 0.0
C615 C 0.94271 0.08166 0.69972 0.0
H616 H 0.15079 0.88819 0.71256 0.0
H617 H 0.1555 1.04018 0.7341 0.0
H618 H 0.22665 0.08588 0.73423 0.0
H619 H 0.2873 0.08347 0.7263 0.0
H620 H 0.28422 0.93343 0.69989 0.0
H621 H 0.21287 0.88615 0.70379 0.0
C622 C 0.16751 0.93124 0.71759 0.0
C623 C 0.14778 0.96073 0.72347 0.0
C624 C 0.20871 0.95758 0.7167 0.0
C625 C 0.16986 1.01659 0.7294 0.0
C626 C 0.21058 1.04273 0.72953 0.0
C627 C 0.27125 1.04029 0.72174 0.0
C628 C 0.29144 1.01207 0.71319 0.0
C629 C 0.2303 1.01374 0.72296 0.0
C630 C 0.26967 0.95624 0.70672 0.0
C631 C 0.2288 0.92921 0.70888 0.0
H632 H 0.29268 0.35517 0.7221 0.0
H633 H 0.22007 0.1892 0.74822 0.0
H634 H 0.16483 0.20438 0.75769 0.0
H635 H 0.13682 0.26448 0.75709 0.0
H636 H 0.20994 0.43028 0.73086 0.0
H637 H 0.26569 0.41584 0.72442 0.0
C638 C 0.26498 0.32243 0.73049 0.0
C639 C 0.26059 0.27109 0.73431 0.0
C640 C 0.23347 0.3315 0.73617 0.0
C641 C 0.22418 0.22896 0.74448 0.0
C642 C 0.19262 0.23767 0.75016 0.0
C643 C 0.16497 0.29743 0.74997 0.0
C644 C 0.16914 0.34835 0.74443 0.0
C645 C 0.19685 0.28869 0.74574 0.0
C646 C 0.20597 0.39084 0.73579 0.0
C647 C 0.23782 0.38252 0.73174 0.0
H648 H 0.12033 0.4408 0.26669 0.0
H649 H 0.22119 0.43176 0.23079 0.0
H650 H 0.20552 0.43948 0.16369 0.0
H651 H 0.16102 0.44613 0.11473 0.0
H652 H 0.06577 0.46737 0.15398 0.0
H653 H 0.08142 0.4581 0.22005 0.0
C654 C 0.13887 0.44018 0.24427 0.0
C655 C 0.17159 0.43466 0.25405 0.0
C656 C 0.13064 0.44723 0.20617 0.0
C657 C 0.19585 0.43578 0.2244 0.0
C658 C 0.18677 0.44014 0.18594 0.0
C659 C 0.14397 0.44932 0.13783 0.0
C660 C 0.11192 0.45723 0.12907 0.0
C661 C 0.154 0.44558 0.17637 0.0
C662 C 0.09055 0.46171 0.15957 0.0
C663 C 0.09937 0.456 0.19746 0.0
H664 H 0.66646 0.68392 0.24601 0.0
H665 H 0.68214 0.83894 0.22056 0.0
H666 H 0.64811 0.80294 0.15839 0.0
H667 H 0.61738 0.72742 0.1086 0.0
H668 H 0.59871 0.57181 0.13762 0.0
H669 H 0.62891 0.60722 0.20062 0.0
C670 C 0.66235 0.70987 0.22693 0.0
C671 C 0.67766 0.7645 0.23794 0.0
C672 C 0.64146 0.68834 0.19168 0.0
C673 C 0.67113 0.79697 0.21293 0.0
C674 C 0.65149 0.77623 0.17727 0.0
C675 C 0.61848 0.7008 0.12924 0.0
C676 C 0.60495 0.64635 0.11807 0.0
C677 C 0.63666 0.72188 0.166 0.0
C678 C 0.60807 0.61338 0.14525 0.0
C679 C 0.62596 0.63387 0.18131 0.0
H680 H 0.44334 0.09794 0.11628 0.0
H681 H 0.49613 1.00621 0.15397 0.0
H682 H 0.44649 0.96701 0.20321 0.0
H683 H 0.38645 0.95771 0.23562 0.0
H684 H 0.33741 1.05446 0.19874 0.0
H685 H 0.38608 0.09126 0.14938 0.0
C686 C 0.44444 0.06966 0.13537 0.0
C687 C 0.47428 1.05572 0.13092 0.0
C688 C 0.41563 1.04724 0.16381 0.0
C689 C 0.47434 1.01867 0.15641 0.0
C690 C 0.4455 0.99577 0.18457 0.0
C691 C 0.38611 0.98646 0.21671 0.0
C692 C 0.35721 1.00236 0.22134 0.0
C693 C 0.41563 1.00934 0.18851 0.0
C694 C 0.35847 1.04067 0.19631 0.0
C695 C 0.38667 0.06214 0.16793 0.0
H696 H 0.52811 0.17696 0.9264 0.0
H697 H 0.56795 0.07018 0.88367 0.0
H698 H 0.54183 0.06929 0.81988 0.0
H699 H 0.49958 0.08848 0.7783 0.0
H700 H 0.45963 0.19582 0.81989 0.0
H701 H 0.49353 0.20683 0.88156 0.0
C702 C 0.53287 0.15573 0.90268 0.0
C703 C 0.55143 0.12509 0.90992 0.0
C704 C 0.5164 0.15401 0.86595 0.0
C705 C 0.55535 0.09571 0.87894 0.0
C706 C 0.53958 0.09431 0.84248 0.0
C707 C 0.49856 0.11481 0.80068 0.0
C708 C 0.47634 0.14063 0.79432 0.0
C709 C 0.5187 0.12156 0.83598 0.0
C710 C 0.47616 0.17521 0.8237 0.0
C711 C 0.4956 0.18145 0.85912 0.0
H712 H 0.98271 0.4509 0.89294 0.0
H713 H 1.00418 0.32164 0.91957 0.0
H714 H 0.9644 0.26881 0.86452 0.0
H715 H 0.92908 0.26138 0.80532 0.0
H716 H 0.91116 0.39116 0.77252 0.0
H717 H 0.94235 0.44033 0.83317 0.0
C718 C 0.97822 0.41095 0.88687 0.0
C719 C 0.99694 0.39066 0.91062 0.0
C720 C 0.95559 0.38046 0.85386 0.0
C721 C 0.99077 0.33879 0.90188 0.0
C722 C 0.96777 0.30824 0.87032 0.0
C723 C 0.9309 0.29982 0.8118 0.0
C724 C 0.91712 0.32187 0.78421 0.0
C725 C 0.95072 0.32892 0.84568 0.0
C726 C 0.92051 0.37227 0.79322 0.0
C727 C 0.93911 0.40091 0.82781 0.0
H728 H 0.75516 0.73014 0.77371 0.0
H729 H 0.85708 0.75959 0.83971 0.0
H730 H 0.81742 0.73223 0.89751 0.0
H731 H 0.75319 0.70077 0.93001 0.0
H732 H 0.65176 0.66832 0.86178 0.0
H733 H 0.69168 0.69553 0.80478 0.0
C734 C 0.76924 0.73085 0.80059 0.0
C735 C 0.81004 0.74793 0.80151 0.0
C736 C 0.7459 0.71415 0.83375 0.0
C737 C 0.82639 0.74727 0.83728 0.0
C738 C 0.80343 0.73147 0.87058 0.0
C739 C 0.73953 0.69934 0.9027 0.0
C740 C 0.69865 0.68213 0.90105 0.0
C741 C 0.76305 0.71492 0.86932 0.0
C742 C 0.68245 0.68084 0.86477 0.0
C743 C 0.70556 0.69672 0.83191 0.0
H744 H 0.83274 0.8567 0.44733 0.0
H745 H 0.72326 0.82311 0.49617 0.0
H746 H 0.74634 0.81068 0.55846 0.0
H747 H 0.79516 0.80007 0.59752 0.0
H748 H 0.90523 0.83606 0.5492 0.0
H749 H 0.88462 0.85703 0.48858 0.0
C750 C 0.81403 0.84767 0.47174 0.0
C751 C 0.77592 0.84089 0.46653 0.0
C752 C 0.82764 0.84045 0.50764 0.0
C753 C 0.75259 0.82927 0.49889 0.0
C754 C 0.76578 0.82159 0.53457 0.0
C755 C 0.81505 0.81357 0.57395 0.0
C756 C 0.85201 0.8165 0.57828 0.0
C757 C 0.80287 0.82576 0.5391 0.0
C758 C 0.87706 0.83392 0.54721 0.0
C759 C 0.865 0.84552 0.51234 0.0
H760 H 0.27525 1.01766 0.45673 0.0
H761 H 0.31885 0.90629 0.44639 0.0
H762 H 0.35069 0.93697 0.50972 0.0
H763 H 0.37015 0.99986 0.56632 0.0
H764 H 0.32592 0.11049 0.57717 0.0
H765 H 0.2909 0.07618 0.51544 0.0
C766 C 0.29123 0.99937 0.46843 0.0
C767 C 0.29432 0.95922 0.44627 0.0
C768 C 0.31003 1.0179 0.5049 0.0
C769 C 0.31527 0.93643 0.46248 0.0
C770 C 0.33395 0.95455 0.4987 0.0
C771 C 0.35286 1.01666 0.55532 0.0
C772 C 0.35136 0.05865 0.57663 0.0
C773 C 0.33224 0.99605 0.51986 0.0
C774 C 0.32805 0.0787 0.56174 0.0
C775 C 0.30791 0.05891 0.5263 0.0
H776 H 1.05681 0.34311 0.59452 0.0
H777 H 0.97518 0.37581 0.53473 0.0
H778 H 1.02132 0.4137 0.48285 0.0
H779 H 0.08557 0.44058 0.45484 0.0
H780 H 0.16605 0.40252 0.51119 0.0
H781 H 0.12026 0.36502 0.56382 0.0
C782 C 1.04872 0.35804 0.57003 0.0
C783 C 1.01164 0.35602 0.56924 0.0
C784 C 0.07571 0.37969 0.53963 0.0
C785 C 1.00265 0.37594 0.53673 0.0
C786 C 1.02943 0.39811 0.50694 0.0
C787 C 0.09347 0.42389 0.47835 0.0
C788 C 0.13028 0.42528 0.47831 0.0
C789 C 0.06619 0.4007 0.50812 0.0
C790 C 0.13876 0.40298 0.50979 0.0
C791 C 0.11221 0.38117 0.54004 0.0
loop_
_geom_bond_atom_site_label_1
_geom_bond_atom_site_label_2
_geom_bond_distance
_geom_bond_site_symmetry_2
_ccdc_geom_bond_type
Eu0 C9 2.828 . S
Eu0 O11 2.392 1_655 S
Eu0 O13 2.418 . S
Eu0 O18 2.373 . S
Eu0 O21 2.488 . S
Eu0 O22 2.471 1_554 S
Eu0 O23 2.349 1_554 S
Eu1 O10 2.370 1_554 S
Eu1 O14 2.480 1_554 S
Eu1 O15 2.479 . S
Eu1 O16 2.363 . S
Eu1 O19 2.396 1_455 S
Eu1 O20 2.401 1_554 S
Eu1 C30 2.828 . S
C2 O20 1.244 1_655 S
C2 O23 1.265 . S
C3 C4 1.379 1_554 S
C3 C7 1.373 . S
C3 C9 1.505 . S
C4 C3 1.379 1_556 S
C4 C6 1.369 . S
C4 H32 0.930 . S
C5 C7 1.383 . S
C5 C8 1.382 . S
C5 H33 0.930 . S
C6 C4 1.369 . S
C6 C8 1.392 1_556 S
C6 H34 0.930 . S
C7 C3 1.373 . S
C7 C5 1.383 . S
C7 H35 0.931 . S
C8 C5 1.382 . S
C8 C6 1.392 1_554 S
C9 Eu0 2.828 . S
C9 C3 1.505 . S
C9 O21 1.249 . S
C9 O22 1.244 1_554 S
O10 Eu1 2.370 1_556 S
O10 C12 1.258 1_556 S
O11 Eu0 2.392 1_455 S
O11 C12 1.242 . S
C12 O10 1.258 1_554 S
C12 O11 1.242 . S
O13 Eu0 2.418 . S
O13 C17 1.244 1_655 S
O14 Eu1 2.480 1_556 S
O14 C30 1.249 1_556 S
O15 Eu1 2.479 . S
O15 C30 1.244 . S
O16 Eu1 2.363 . S
O16 C17 1.265 . S
C17 O13 1.244 1_455 S
C17 O16 1.265 . S
O18 Eu0 2.373 . S
O18 C31 1.258 . S
O19 Eu1 2.396 1_655 S
O19 C31 1.242 . S
O20 Eu1 2.401 1_556 S
O20 C2 1.244 1_455 S
O21 Eu0 2.488 . S
O21 C9 1.249 . S
O22 Eu0 2.471 1_556 S
O22 C9 1.244 1_556 S
O23 Eu0 2.349 1_556 S
O23 C2 1.265 . S
C24 C25 1.379 . S
C24 C28 1.373 1_554 S
C24 C30 1.505 . S
C25 C24 1.379 . S
C25 C27 1.369 . S
C25 H36 0.930 . S
C26 C28 1.383 . S
C26 C29 1.382 1_556 S
C26 H37 0.930 . S
C27 C25 1.369 . S
C27 C29 1.392 . S
C27 H38 0.930 . S
C28 C24 1.373 1_556 S
C28 C26 1.383 . S
C28 H39 0.931 . S
C29 C26 1.382 1_554 S
C29 C27 1.392 . S
C30 Eu1 2.828 . S
C30 O14 1.249 1_554 S
C30 O15 1.244 . S
C30 C24 1.505 . S
C31 O18 1.258 . S
C31 O19 1.242 . S
H32 C4 0.930 . S
H33 C5 0.930 . S
H34 C6 0.930 . S
H35 C7 0.931 . S
H36 C25 0.930 . S
H37 C26 0.930 . S
H38 C27 0.930 . S
H39 C28 0.931 . S
Eu40 C49 2.828 . S
Eu40 O51 2.392 . S
Eu40 O53 2.418 . S
Eu40 O58 2.373 . S
Eu40 O61 2.488 . S
Eu40 O62 2.471 1_556 S
Eu40 O63 2.349 1_556 S
Eu41 O50 2.373 . S
Eu41 O54 2.488 . S
Eu41 O55 2.471 1_554 S
Eu41 O56 2.349 1_554 S
Eu41 O59 2.392 . S
Eu41 O60 2.418 . S
Eu41 C70 2.828 . S
C42 O60 1.244 . S
C42 O63 1.265 . S
C43 C44 1.379 1_556 S
C43 C47 1.373 . S
C43 C49 1.505 . S
C44 C43 1.379 1_554 S
C44 C46 1.369 . S
C44 H72 0.930 . S
C45 C47 1.383 . S
C45 C48 1.382 . S
C45 H73 0.930 . S
C46 C44 1.369 . S
C46 C48 1.392 1_554 S
C46 H74 0.930 . S
C47 C43 1.373 . S
C47 C45 1.383 . S
C47 H75 0.931 . S
C48 C45 1.382 . S
C48 C46 1.392 1_556 S
C49 Eu40 2.828 . S
C49 C43 1.505 . S
C49 O61 1.249 . S
C49 O62 1.244 1_556 S
O50 Eu41 2.373 . S
O50 C52 1.258 . S
O51 Eu40 2.392 . S
O51 C52 1.242 1_556 S
C52 O50 1.258 . S
C52 O51 1.242 1_554 S
O53 Eu40 2.418 . S
O53 C57 1.244 . S
O54 Eu41 2.488 . S
O54 C70 1.249 . S
O55 Eu41 2.471 1_556 S
O55 C70 1.244 1_556 S
O56 Eu41 2.349 1_556 S
O56 C57 1.265 . S
C57 O53 1.244 . S
C57 O56 1.265 . S
O58 Eu40 2.373 . S
O58 C71 1.258 . S
O59 Eu41 2.392 . S
O59 C71 1.242 1_554 S
O60 Eu41 2.418 . S
O60 C42 1.244 . S
O61 Eu40 2.488 . S
O61 C49 1.249 . S
O62 Eu40 2.471 1_554 S
O62 C49 1.244 1_554 S
O63 Eu40 2.349 1_554 S
O63 C42 1.265 . S
C64 C65 1.379 1_554 S
C64 C68 1.373 . S
C64 C70 1.505 . S
C65 C64 1.379 1_556 S
C65 C67 1.369 . S
C65 H76 0.930 . S
C66 C68 1.383 . S
C66 C69 1.382 . S
C66 H77 0.930 . S
C67 C65 1.369 . S
C67 C69 1.392 1_556 S
C67 H78 0.930 . S
C68 C64 1.373 . S
C68 C66 1.383 . S
C68 H79 0.931 . S
C69 C66 1.382 . S
C69 C67 1.392 1_554 S
C70 Eu41 2.828 . S
C70 O54 1.249 . S
C70 O55 1.244 1_554 S
C70 C64 1.505 . S
C71 O58 1.258 . S
C71 O59 1.242 1_556 S
H72 C44 0.930 . S
H73 C45 0.930 . S
H74 C46 0.930 . S
H75 C47 0.931 . S
H76 C65 0.930 . S
H77 C66 0.930 . S
H78 C67 0.930 . S
H79 C68 0.931 . S
Eu80 C89 2.828 . S
Eu80 O91 2.392 1_545 S
Eu80 O93 2.418 . S
Eu80 O98 2.373 . S
Eu80 O101 2.488 . S
Eu80 O102 2.471 1_554 S
Eu80 O103 2.349 1_554 S
Eu81 O90 2.373 . S
Eu81 O94 2.488 . S
Eu81 O95 2.471 1_556 S
Eu81 O96 2.349 1_556 S
Eu81 O99 2.392 1_566 S
Eu81 O100 2.418 . S
Eu81 C110 2.828 . S
C82 O100 1.244 1_545 S
C82 O103 1.265 . S
C83 C84 1.379 1_554 S
C83 C87 1.373 . S
C83 C89 1.505 . S
C84 C83 1.379 1_556 S
C84 C86 1.369 . S
C84 H112 0.930 . S
C85 C87 1.383 . S
C85 C88 1.382 . S
C85 H113 0.930 . S
C86 C84 1.369 . S
C86 C88 1.392 1_556 S
C86 H114 0.930 . S
C87 C83 1.373 . S
C87 C85 1.383 . S
C87 H115 0.931 . S
C88 C85 1.382 . S
C88 C86 1.392 1_554 S
C89 Eu80 2.828 . S
C89 C83 1.505 . S
C89 O101 1.249 . S
C89 O102 1.244 1_554 S
O90 Eu81 2.373 . S
O90 C92 1.258 1_556 S
O91 Eu80 2.392 1_565 S
O91 C92 1.242 . S
C92 O90 1.258 1_554 S
C92 O91 1.242 . S
O93 Eu80 2.418 . S
O93 C97 1.244 1_545 S
O94 Eu81 2.488 . S
O94 C110 1.249 . S
O95 Eu81 2.471 1_554 S
O95 C110 1.244 1_554 S
O96 Eu81 2.349 1_554 S
O96 C97 1.265 . S
C97 O93 1.244 1_565 S
C97 O96 1.265 . S
O98 Eu80 2.373 . S
O98 C111 1.258 . S
O99 Eu81 2.392 1_544 S
O99 C111 1.242 . S
O100 Eu81 2.418 . S
O100 C82 1.244 1_565 S
O101 Eu80 2.488 . S
O101 C89 1.249 . S
O102 Eu80 2.471 1_556 S
O102 C89 1.244 1_556 S
O103 Eu80 2.349 1_556 S
O103 C82 1.265 . S
C104 C105 1.379 1_556 S
C104 C108 1.373 . S
C104 C110 1.505 . S
C105 C104 1.379 1_554 S
C105 C107 1.369 . S
C105 H116 0.930 . S
C106 C108 1.383 . S
C106 C109 1.382 . S
C106 H117 0.930 . S
C107 C105 1.369 . S
C107 C109 1.392 1_554 S
C107 H118 0.930 . S
C108 C104 1.373 . S
C108 C106 1.383 . S
C108 H119 0.931 . S
C109 C106 1.382 . S
C109 C107 1.392 1_556 S
C110 Eu81 2.828 . S
C110 O94 1.249 . S
C110 O95 1.244 1_556 S
C110 C104 1.505 . S
C111 O98 1.258 . S
C111 O99 1.242 . S
H112 C84 0.930 . S
H113 C85 0.930 . S
H114 C86 0.930 . S
H115 C87 0.931 . S
H116 C105 0.930 . S
H117 C106 0.930 . S
H118 C107 0.930 . S
H119 C108 0.931 . S
Eu120 C129 2.828 . S
Eu120 O131 2.392 . S
Eu120 O133 2.418 . S
Eu120 O138 2.373 . S
Eu120 O141 2.488 . S
Eu120 O142 2.471 . S
Eu120 O143 2.349 . S
Eu121 O130 2.373 . S
Eu121 O134 2.488 . S
Eu121 O135 2.471 . S
Eu121 O136 2.349 . S
Eu121 O139 2.392 . S
Eu121 O140 2.418 . S
Eu121 C150 2.828 . S
C122 O140 1.244 . S
C122 O143 1.265 . S
C123 C124 1.379 . S
C123 C127 1.373 . S
C123 C129 1.505 . S
C124 C123 1.379 . S
C124 C126 1.369 . S
C124 H152 0.930 . S
C125 C127 1.383 . S
C125 C128 1.382 . S
C125 H153 0.930 . S
C126 C124 1.369 . S
C126 C128 1.392 . S
C126 H154 0.930 . S
C127 C123 1.373 . S
C127 C125 1.383 . S
C127 H155 0.931 . S
C128 C125 1.382 . S
C128 C126 1.392 . S
C129 Eu120 2.828 . S
C129 C123 1.505 . S
C129 O141 1.249 . S
C129 O142 1.244 . S
O130 Eu121 2.373 . S
O130 C132 1.258 . S
O131 Eu120 2.392 . S
O131 C132 1.242 . S
C132 O130 1.258 . S
C132 O131 1.242 . S
O133 Eu120 2.418 . S
O133 C137 1.244 . S
O134 Eu121 2.488 . S
O134 C150 1.249 . S
O135 Eu121 2.471 . S
O135 C150 1.244 . S
O136 Eu121 2.349 . S
O136 C137 1.265 . S
C137 O133 1.244 . S
C137 O136 1.265 . S
O138 Eu120 2.373 . S
O138 C151 1.258 . S
O139 Eu121 2.392 . S
O139 C151 1.242 . S
O140 Eu121 2.418 . S
O140 C122 1.244 . S
O141 Eu120 2.488 . S
O141 C129 1.249 . S
O142 Eu120 2.471 . S
O142 C129 1.244 . S
O143 Eu120 2.349 . S
O143 C122 1.265 . S
C144 C145 1.379 . S
C144 C148 1.373 . S
C144 C150 1.505 . S
C145 C144 1.379 . S
C145 C147 1.369 . S
C145 H156 0.930 . S
C146 C148 1.383 . S
C146 C149 1.382 . S
C146 H157 0.930 . S
C147 C145 1.369 . S
C147 C149 1.392 . S
C147 H158 0.930 . S
C148 C144 1.373 . S
C148 C146 1.383 . S
C148 H159 0.931 . S
C149 C146 1.382 . S
C149 C147 1.392 . S
C150 Eu121 2.828 . S
C150 O134 1.249 . S
C150 O135 1.244 . S
C150 C144 1.505 . S
C151 O138 1.258 . S
C151 O139 1.242 . S
H152 C124 0.930 . S
H153 C125 0.930 . S
H154 C126 0.930 . S
H155 C127 0.931 . S
H156 C145 0.930 . S
H157 C146 0.930 . S
H158 C147 0.930 . S
H159 C148 0.931 . S
Eu160 C169 2.828 . S
Eu160 O171 2.392 . S
Eu160 O173 2.418 . S
Eu160 O178 2.373 . S
Eu160 O181 2.488 . S
Eu160 O182 2.471 . S
Eu160 O183 2.349 . S
Eu161 O170 2.373 . S
Eu161 O174 2.488 1_565 S
Eu161 O175 2.471 1_565 S
Eu161 O176 2.349 . S
Eu161 O179 2.392 . S
Eu161 O180 2.418 . S
Eu161 C190 2.828 1_565 S
C162 O180 1.244 . S
C162 O183 1.265 . S
C163 C164 1.379 . S
C163 C167 1.373 . S
C163 C169 1.505 . S
C164 C163 1.379 . S
C164 C166 1.369 . S
C164 H192 0.930 . S
C165 C167 1.383 . S
C165 C168 1.382 . S
C165 H193 0.930 . S
C166 C164 1.369 . S
C166 C168 1.392 . S
C166 H194 0.930 . S
C167 C163 1.373 . S
C167 C165 1.383 . S
C167 H195 0.931 . S
C168 C165 1.382 . S
C168 C166 1.392 . S
C169 Eu160 2.828 . S
C169 C163 1.505 . S
C169 O181 1.249 . S
C169 O182 1.244 . S
O170 Eu161 2.373 . S
O170 C172 1.258 . S
O171 Eu160 2.392 . S
O171 C172 1.242 . S
C172 O170 1.258 . S
C172 O171 1.242 . S
O173 Eu160 2.418 . S
O173 C177 1.244 . S
O174 Eu161 2.488 1_545 S
O174 C190 1.249 . S
O175 Eu161 2.471 1_545 S
O175 C190 1.244 . S
O176 Eu161 2.349 . S
O176 C177 1.265 . S
C177 O173 1.244 . S
C177 O176 1.265 . S
O178 Eu160 2.373 . S
O178 C191 1.258 . S
O179 Eu161 2.392 . S
O179 C191 1.242 . S
O180 Eu161 2.418 . S
O180 C162 1.244 . S
O181 Eu160 2.488 . S
O181 C169 1.249 . S
O182 Eu160 2.471 . S
O182 C169 1.244 . S
O183 Eu160 2.349 . S
O183 C162 1.265 . S
C184 C185 1.379 . S
C184 C188 1.373 . S
C184 C190 1.505 . S
C185 C184 1.379 . S
C185 C187 1.369 . S
C185 H196 0.930 . S
C186 C188 1.383 . S
C186 C189 1.382 . S
C186 H197 0.930 . S
C187 C185 1.369 . S
C187 C189 1.392 . S
C187 H198 0.930 . S
C188 C184 1.373 . S
C188 C186 1.383 . S
C188 H199 0.931 . S
C189 C186 1.382 . S
C189 C187 1.392 . S
C190 Eu161 2.828 1_545 S
C190 O174 1.249 . S
C190 O175 1.244 . S
C190 C184 1.505 . S
C191 O178 1.258 . S
C191 O179 1.242 . S
H192 C164 0.930 . S
H193 C165 0.930 . S
H194 C166 0.930 . S
H195 C167 0.931 . S
H196 C185 0.930 . S
H197 C186 0.930 . S
H198 C187 0.930 . S
H199 C188 0.931 . S
Eu200 C209 2.828 . S
Eu200 O211 2.392 . S
Eu200 O213 2.418 . S
Eu200 O218 2.373 . S
Eu200 O221 2.488 . S
Eu200 O222 2.471 . S
Eu200 O223 2.349 . S
Eu201 O210 2.373 . S
Eu201 O214 2.488 . S
Eu201 O215 2.471 . S
Eu201 O216 2.349 . S
Eu201 O219 2.392 . S
Eu201 O220 2.418 . S
Eu201 C230 2.828 . S
C202 O220 1.244 . S
C202 O223 1.265 . S
C203 C204 1.379 . S
C203 C207 1.373 . S
C203 C209 1.505 . S
C204 C203 1.379 . S
C204 C206 1.369 . S
C204 H232 0.930 . S
C205 C207 1.383 . S
C205 C208 1.382 . S
C205 H233 0.930 . S
C206 C204 1.369 . S
C206 C208 1.392 . S
C206 H234 0.930 . S
C207 C203 1.373 . S
C207 C205 1.383 . S
C207 H235 0.931 . S
C208 C205 1.382 . S
C208 C206 1.392 . S
C209 Eu200 2.828 . S
C209 C203 1.505 . S
C209 O221 1.249 . S
C209 O222 1.244 . S
O210 Eu201 2.373 . S
O210 C212 1.258 . S
O211 Eu200 2.392 . S
O211 C212 1.242 . S
C212 O210 1.258 . S
C212 O211 1.242 . S
O213 Eu200 2.418 . S
O213 C217 1.244 . S
O214 Eu201 2.488 . S
O214 C230 1.249 . S
O215 Eu201 2.471 . S
O215 C230 1.244 . S
O216 Eu201 2.349 . S
O216 C217 1.265 . S
C217 O213 1.244 . S
C217 O216 1.265 . S
O218 Eu200 2.373 . S
O218 C231 1.258 . S
O219 Eu201 2.392 . S
O219 C231 1.242 . S
O220 Eu201 2.418 . S
O220 C202 1.244 . S
O221 Eu200 2.488 . S
O221 C209 1.249 . S
O222 Eu200 2.471 . S
O222 C209 1.244 . S
O223 Eu200 2.349 . S
O223 C202 1.265 . S
C224 C225 1.379 . S
C224 C228 1.373 . S
C224 C230 1.505 1_655 S
C225 C224 1.379 . S
C225 C227 1.369 . S
C225 H236 0.930 . S
C226 C228 1.383 . S
C226 C229 1.382 . S
C226 H237 0.930 . S
C227 C225 1.369 . S
C227 C229 1.392 . S
C227 H238 0.930 . S
C228 C224 1.373 . S
C228 C226 1.383 . S
C228 H239 0.931 . S
C229 C226 1.382 . S
C229 C227 1.392 . S
C230 Eu201 2.828 . S
C230 O214 1.249 . S
C230 O215 1.244 . S
C230 C224 1.505 1_455 S
C231 O218 1.258 . S
C231 O219 1.242 . S
H232 C204 0.930 . S
H233 C205 0.930 . S
H234 C206 0.930 . S
H235 C207 0.931 . S
H236 C225 0.930 . S
H237 C226 0.930 . S
H238 C227 0.930 . S
H239 C228 0.931 . S
Eu240 C249 2.828 . S
Eu240 O251 2.392 . S
Eu240 O253 2.418 . S
Eu240 O258 2.373 . S
Eu240 O261 2.488 . S
Eu240 O262 2.471 . S
Eu240 O263 2.349 . S
Eu241 O250 2.373 . S
Eu241 O254 2.488 . S
Eu241 O255 2.471 . S
Eu241 O256 2.349 . S
Eu241 O259 2.392 . S
Eu241 O260 2.418 . S
Eu241 C270 2.828 . S
C242 O260 1.244 . S
C242 O263 1.265 . S
C243 C244 1.379 . S
C243 C247 1.373 . S
C243 C249 1.505 . S
C244 C243 1.379 . S
C244 C246 1.369 . S
C244 H272 0.930 . S
C245 C247 1.383 . S
C245 C248 1.382 . S
C245 H273 0.930 . S
C246 C244 1.369 . S
C246 C248 1.392 . S
C246 H274 0.930 . S
C247 C243 1.373 . S
C247 C245 1.383 . S
C247 H275 0.931 . S
C248 C245 1.382 . S
C248 C246 1.392 . S
C249 Eu240 2.828 . S
C249 C243 1.505 . S
C249 O261 1.249 . S
C249 O262 1.244 . S
O250 Eu241 2.373 . S
O250 C252 1.258 . S
O251 Eu240 2.392 . S
O251 C252 1.242 . S
C252 O250 1.258 . S
C252 O251 1.242 . S
O253 Eu240 2.418 . S
O253 C257 1.244 . S
O254 Eu241 2.488 . S
O254 C270 1.249 . S
O255 Eu241 2.471 . S
O255 C270 1.244 . S
O256 Eu241 2.349 . S
O256 C257 1.265 . S
C257 O253 1.244 . S
C257 O256 1.265 . S
O258 Eu240 2.373 . S
O258 C271 1.258 . S
O259 Eu241 2.392 . S
O259 C271 1.242 . S
O260 Eu241 2.418 . S
O260 C242 1.244 . S
O261 Eu240 2.488 . S
O261 C249 1.249 . S
O262 Eu240 2.471 . S
O262 C249 1.244 . S
O263 Eu240 2.349 . S
O263 C242 1.265 . S
C264 C265 1.379 . S
C264 C268 1.373 . S
C264 C270 1.505 . S
C265 C264 1.379 . S
C265 C267 1.369 . S
C265 H276 0.930 . S
C266 C268 1.383 . S
C266 C269 1.382 . S
C266 H277 0.930 . S
C267 C265 1.369 . S
C267 C269 1.392 . S
C267 H278 0.930 . S
C268 C264 1.373 . S
C268 C266 1.383 . S
C268 H279 0.931 . S
C269 C266 1.382 . S
C269 C267 1.392 . S
C270 Eu241 2.828 . S
C270 O254 1.249 . S
C270 O255 1.244 . S
C270 C264 1.505 . S
C271 O258 1.258 . S
C271 O259 1.242 . S
H272 C244 0.930 . S
H273 C245 0.930 . S
H274 C246 0.930 . S
H275 C247 0.931 . S
H276 C265 0.930 . S
H277 C266 0.930 . S
H278 C267 0.930 . S
H279 C268 0.931 . S
Eu280 C289 2.828 . S
Eu280 O291 2.392 . S
Eu280 O293 2.418 . S
Eu280 O298 2.373 . S
Eu280 O301 2.488 . S
Eu280 O302 2.471 . S
Eu280 O303 2.349 . S
Eu281 O290 2.373 . S
Eu281 O294 2.488 1_655 S
Eu281 O295 2.471 . S
Eu281 O296 2.349 . S
Eu281 O299 2.392 . S
Eu281 O300 2.418 . S
Eu281 C310 2.828 1_655 S
C282 O300 1.244 . S
C282 O303 1.265 . S
C283 C284 1.379 . S
C283 C287 1.373 . S
C283 C289 1.505 . S
C284 C283 1.379 . S
C284 C286 1.369 . S
C284 H312 0.930 . S
C285 C287 1.383 . S
C285 C288 1.382 . S
C285 H313 0.930 . S
C286 C284 1.369 . S
C286 C288 1.392 . S
C286 H314 0.930 . S
C287 C283 1.373 . S
C287 C285 1.383 . S
C287 H315 0.931 . S
C288 C285 1.382 . S
C288 C286 1.392 . S
C289 Eu280 2.828 . S
C289 C283 1.505 . S
C289 O301 1.249 . S
C289 O302 1.244 . S
O290 Eu281 2.373 . S
O290 C292 1.258 . S
O291 Eu280 2.392 . S
O291 C292 1.242 . S
C292 O290 1.258 . S
C292 O291 1.242 . S
O293 Eu280 2.418 . S
O293 C297 1.244 . S
O294 Eu281 2.488 1_455 S
O294 C310 1.249 . S
O295 Eu281 2.471 . S
O295 C310 1.244 1_655 S
O296 Eu281 2.349 . S
O296 C297 1.265 . S
C297 O293 1.244 . S
C297 O296 1.265 . S
O298 Eu280 2.373 . S
O298 C311 1.258 . S
O299 Eu281 2.392 . S
O299 C311 1.242 . S
O300 Eu281 2.418 . S
O300 C282 1.244 . S
O301 Eu280 2.488 . S
O301 C289 1.249 . S
O302 Eu280 2.471 . S
O302 C289 1.244 . S
O303 Eu280 2.349 . S
O303 C282 1.265 . S
C304 C305 1.379 . S
C304 C308 1.373 . S
C304 C310 1.505 . S
C305 C304 1.379 . S
C305 C307 1.369 . S
C305 H316 0.930 . S
C306 C308 1.383 . S
C306 C309 1.382 . S
C306 H317 0.930 . S
C307 C305 1.369 . S
C307 C309 1.392 . S
C307 H318 0.930 . S
C308 C304 1.373 . S
C308 C306 1.383 . S
C308 H319 0.931 . S
C309 C306 1.382 . S
C309 C307 1.392 . S
C310 Eu281 2.828 1_455 S
C310 O294 1.249 . S
C310 O295 1.244 1_455 S
C310 C304 1.505 . S
C311 O298 1.258 . S
C311 O299 1.242 . S
H312 C284 0.930 . S
H313 C285 0.930 . S
H314 C286 0.930 . S
H315 C287 0.931 . S
H316 C305 0.930 . S
H317 C306 0.930 . S
H318 C307 0.930 . S
H319 C308 0.931 . S
Eu320 C329 2.828 . S
Eu320 O331 2.392 . S
Eu320 O333 2.418 . S
Eu320 O338 2.373 . S
Eu320 O341 2.488 . S
Eu320 O342 2.471 . S
Eu320 O343 2.349 . S
Eu321 O330 2.373 . S
Eu321 O334 2.488 . S
Eu321 O335 2.471 . S
Eu321 O336 2.349 . S
Eu321 O339 2.392 . S
Eu321 O340 2.418 . S
Eu321 C350 2.828 . S
C322 O340 1.244 . S
C322 O343 1.265 . S
C323 C324 1.379 . S
C323 C327 1.373 . S
C323 C329 1.505 . S
C324 C323 1.379 . S
C324 C326 1.369 . S
C324 H352 0.930 . S
C325 C327 1.383 1_455 S
C325 C328 1.382 . S
C325 H353 0.930 . S
C326 C324 1.369 . S
C326 C328 1.392 1_655 S
C326 H354 0.930 . S
C327 C323 1.373 . S
C327 C325 1.383 1_655 S
C327 H355 0.931 . S
C328 C325 1.382 . S
C328 C326 1.392 1_455 S
C329 Eu320 2.828 . S
C329 C323 1.505 . S
C329 O341 1.249 . S
C329 O342 1.244 . S
O330 Eu321 2.373 . S
O330 C332 1.258 . S
O331 Eu320 2.392 . S
O331 C332 1.242 . S
C332 O330 1.258 . S
C332 O331 1.242 . S
O333 Eu320 2.418 . S
O333 C337 1.244 . S
O334 Eu321 2.488 . S
O334 C350 1.249 . S
O335 Eu321 2.471 . S
O335 C350 1.244 . S
O336 Eu321 2.349 . S
O336 C337 1.265 . S
C337 O333 1.244 . S
C337 O336 1.265 . S
O338 Eu320 2.373 . S
O338 C351 1.258 . S
O339 Eu321 2.392 . S
O339 C351 1.242 . S
O340 Eu321 2.418 . S
O340 C322 1.244 . S
O341 Eu320 2.488 . S
O341 C329 1.249 . S
O342 Eu320 2.471 . S
O342 C329 1.244 . S
O343 Eu320 2.349 . S
O343 C322 1.265 . S
C344 C345 1.379 . S
C344 C348 1.373 . S
C344 C350 1.505 . S
C345 C344 1.379 . S
C345 C347 1.369 . S
C345 H356 0.930 . S
C346 C348 1.383 . S
C346 C349 1.382 . S
C346 H357 0.930 . S
C347 C345 1.369 . S
C347 C349 1.392 . S
C347 H358 0.930 . S
C348 C344 1.373 . S
C348 C346 1.383 . S
C348 H359 0.931 . S
C349 C346 1.382 . S
C349 C347 1.392 . S
C350 Eu321 2.828 . S
C350 O334 1.249 . S
C350 O335 1.244 . S
C350 C344 1.505 . S
C351 O338 1.258 . S
C351 O339 1.242 . S
H352 C324 0.930 . S
H353 C325 0.930 . S
H354 C326 0.930 . S
H355 C327 0.931 . S
H356 C345 0.930 . S
H357 C346 0.930 . S
H358 C347 0.930 . S
H359 C348 0.931 . S
H360 C366 0.930 . S
H361 C369 0.930 . S
H362 C370 0.930 . S
H363 C371 0.930 . S
H364 C374 0.930 . S
H365 C375 0.930 . S
C366 H360 0.930 . S
C366 C367 1.355 . S
C366 C368 1.415 . S
C367 C366 1.355 . S
C367 C369 1.419 1_556 S
C368 C366 1.415 . S
C368 C373 1.425 1_556 S
C368 C375 1.409 . S
C369 H361 0.930 . S
C369 C367 1.419 1_554 S
C369 C370 1.362 . S
C370 H362 0.930 . S
C370 C369 1.362 . S
C370 C373 1.409 . S
C371 H363 0.930 . S
C371 C372 1.356 1_554 S
C371 C373 1.415 . S
C372 C371 1.356 1_556 S
C372 C374 1.416 . S
C373 C368 1.425 1_554 S
C373 C370 1.409 . S
C373 C371 1.415 . S
C374 H364 0.930 . S
C374 C372 1.416 . S
C374 C375 1.362 . S
C375 H365 0.930 . S
C375 C368 1.409 . S
C375 C374 1.362 . S
H376 C382 0.930 . S
H377 C385 0.930 . S
H378 C386 0.930 . S
H379 C387 0.930 . S
H380 C390 0.930 . S
H381 C391 0.930 . S
C382 H376 0.930 . S
C382 C383 1.355 1_554 S
C382 C384 1.415 . S
C383 C382 1.355 1_556 S
C383 C385 1.419 . S
C384 C382 1.415 . S
C384 C389 1.425 1_554 S
C384 C391 1.409 . S
C385 H377 0.930 . S
C385 C383 1.419 . S
C385 C386 1.362 . S
C386 H378 0.930 . S
C386 C385 1.362 . S
C386 C389 1.409 . S
C387 H379 0.930 . S
C387 C388 1.355 . S
C387 C389 1.415 . S
C388 C387 1.355 . S
C388 C390 1.419 1_556 S
C389 C384 1.425 1_556 S
C389 C386 1.409 . S
C389 C387 1.415 . S
C390 H380 0.930 . S
C390 C388 1.419 1_554 S
C390 C391 1.362 . S
C391 H381 0.930 . S
C391 C384 1.409 . S
C391 C390 1.362 . S
H392 C398 0.930 . S
H393 C401 0.930 . S
H394 C402 0.930 . S
H395 C403 0.930 . S
H396 C406 0.930 . S
H397 C407 0.930 . S
C398 H392 0.930 . S
C398 C399 1.355 1_554 S
C398 C400 1.415 . S
C399 C398 1.355 1_556 S
C399 C401 1.419 . S
C400 C398 1.415 . S
C400 C405 1.425 1_554 S
C400 C407 1.409 . S
C401 H393 0.930 . S
C401 C399 1.419 . S
C401 C402 1.362 . S
C402 H394 0.930 . S
C402 C401 1.362 . S
C402 C405 1.409 . S
C403 H395 0.930 . S
C403 C404 1.355 1_556 S
C403 C405 1.415 . S
C404 C403 1.355 1_554 S
C404 C406 1.419 . S
C405 C400 1.425 1_556 S
C405 C402 1.409 . S
C405 C403 1.415 . S
C406 H396 0.930 . S
C406 C404 1.419 . S
C406 C407 1.362 . S
C407 H397 0.930 . S
C407 C400 1.409 . S
C407 C406 1.362 . S
H408 C414 0.930 . S
H409 C417 0.928 1_556 S
H410 C418 0.930 1_556 S
H411 C419 0.930 1_556 S
H412 C422 0.930 . S
H413 C423 0.930 . S
C414 H408 0.930 . S
C414 C415 1.355 . S
C414 C416 1.415 . S
C415 C414 1.355 . S
C415 C417 1.419 . S
C416 C414 1.415 . S
C416 C421 1.425 . S
C416 C423 1.409 . S
C417 H409 0.928 1_554 S
C417 C415 1.419 . S
C417 C418 1.362 . S
C418 H410 0.930 1_554 S
C418 C417 1.362 . S
C418 C421 1.409 . S
C419 H411 0.930 1_554 S
C419 C420 1.355 . S
C419 C421 1.415 . S
C420 C419 1.355 . S
C420 C422 1.419 . S
C421 C416 1.425 . S
C421 C418 1.409 . S
C421 C419 1.415 . S
C422 H412 0.930 . S
C422 C420 1.419 . S
C422 C423 1.362 . S
C423 H413 0.930 . S
C423 C416 1.409 . S
C423 C422 1.362 . S
H424 C430 0.930 1_556 S
H425 C433 0.930 . S
H426 C434 0.930 . S
H427 C435 0.930 . S
H428 C438 0.930 . S
H429 C439 0.930 . S
C430 H424 0.930 1_554 S
C430 C431 1.355 . S
C430 C432 1.415 . S
C431 C430 1.355 . S
C431 C433 1.419 . S
C432 C430 1.415 . S
C432 C437 1.425 . S
C432 C439 1.409 1_554 S
C433 H425 0.930 . S
C433 C431 1.419 . S
C433 C434 1.362 . S
C434 H426 0.930 . S
C434 C433 1.362 . S
C434 C437 1.409 . S
C435 H427 0.930 . S
C435 C436 1.355 . S
C435 C437 1.415 . S
C436 C435 1.355 . S
C436 C438 1.419 1_554 S
C437 C432 1.425 . S
C437 C434 1.409 . S
C437 C435 1.415 . S
C438 H428 0.930 . S
C438 C436 1.419 1_556 S
C438 C439 1.362 . S
C439 H429 0.930 . S
C439 C432 1.409 1_556 S
C439 C438 1.362 . S
H440 C446 0.930 . S
H441 C449 0.930 . S
H442 C450 0.930 . S
H443 C451 0.930 1_556 S
H444 C454 0.930 . S
H445 C455 0.930 . S
C446 H440 0.930 . S
C446 C447 1.355 . S
C446 C448 1.415 . S
C447 C446 1.355 . S
C447 C449 1.419 . S
C448 C446 1.415 . S
C448 C453 1.425 . S
C448 C455 1.409 . S
C449 H441 0.930 . S
C449 C447 1.419 . S
C449 C450 1.362 . S
C450 H442 0.930 . S
C450 C449 1.362 . S
C450 C453 1.409 . S
C451 H443 0.930 1_554 S
C451 C452 1.355 . S
C451 C453 1.415 . S
C452 C451 1.355 . S
C452 C454 1.419 . S
C453 C448 1.425 . S
C453 C450 1.409 . S
C453 C451 1.415 . S
C454 H444 0.930 . S
C454 C452 1.419 . S
C454 C455 1.362 . S
C455 H445 0.930 . S
C455 C448 1.409 . S
C455 C454 1.362 . S
H456 C462 0.930 . S
H457 C465 0.930 . S
H458 C466 0.930 . S
H459 C467 0.930 . S
H460 C470 0.930 . S
H461 C471 0.930 . S
C462 H456 0.930 . S
C462 C463 1.355 . S
C462 C464 1.415 1_655 S
C463 C462 1.355 . S
C463 C465 1.419 . S
C464 C462 1.415 1_455 S
C464 C469 1.425 . S
C464 C471 1.409 . S
C465 H457 0.930 . S
C465 C463 1.419 . S
C465 C466 1.362 1_655 S
C466 H458 0.930 . S
C466 C465 1.362 1_455 S
C466 C469 1.409 . S
C467 H459 0.930 . S
C467 C468 1.355 . S
C467 C469 1.415 . S
C468 C467 1.355 . S
C468 C470 1.419 . S
C469 C464 1.425 . S
C469 C466 1.409 . S
C469 C467 1.415 . S
C470 H460 0.930 . S
C470 C468 1.419 . S
C470 C471 1.362 . S
C471 H461 0.930 . S
C471 C464 1.409 . S
C471 C470 1.362 . S
H472 C478 0.930 . S
H473 C481 0.930 . S
H474 C482 0.930 . S
H475 C483 0.930 . S
H476 C486 0.930 . S
H477 C487 0.930 . S
C478 H472 0.930 . S
C478 C479 1.355 . S
C478 C480 1.415 . S
C479 C478 1.355 . S
C479 C481 1.419 . S
C480 C478 1.415 . S
C480 C485 1.425 . S
C480 C487 1.409 . S
C481 H473 0.930 . S
C481 C479 1.419 . S
C481 C482 1.362 . S
C482 H474 0.930 . S
C482 C481 1.362 . S
C482 C485 1.409 . S
C483 H475 0.930 . S
C483 C484 1.355 . S
C483 C485 1.415 . S
C484 C483 1.355 . S
C484 C486 1.419 . S
C485 C480 1.425 . S
C485 C482 1.409 . S
C485 C483 1.415 . S
C486 H476 0.930 . S
C486 C484 1.419 . S
C486 C487 1.362 . S
C487 H477 0.930 . S
C487 C480 1.409 . S
C487 C486 1.362 . S
H488 C494 0.930 . S
H489 C497 0.930 . S
H490 C498 0.931 1_565 S
H491 C499 0.930 . S
H492 C502 0.930 . S
H493 C503 0.930 . S
C494 H488 0.930 . S
C494 C495 1.355 . S
C494 C496 1.415 1_545 S
C495 C494 1.355 . S
C495 C497 1.419 . S
C496 C494 1.415 1_565 S
C496 C501 1.425 . S
C496 C503 1.409 . S
C497 H489 0.930 . S
C497 C495 1.419 . S
C497 C498 1.363 . S
C498 H490 0.931 1_545 S
C498 C497 1.363 . S
C498 C501 1.408 1_545 S
C499 H491 0.930 . S
C499 C500 1.355 . S
C499 C501 1.415 . S
C500 C499 1.355 . S
C500 C502 1.419 . S
C501 C496 1.425 . S
C501 C498 1.408 1_565 S
C501 C499 1.415 . S
C502 H492 0.930 . S
C502 C500 1.419 . S
C502 C503 1.362 . S
C503 H493 0.930 . S
C503 C496 1.409 . S
C503 C502 1.362 . S
H504 C510 0.930 . S
H505 C513 0.930 . S
H506 C514 0.930 . S
H507 C515 0.930 . S
H508 C518 0.930 . S
H509 C519 0.930 . S
C510 H504 0.930 . S
C510 C511 1.355 . S
C510 C512 1.415 . S
C511 C510 1.355 . S
C511 C513 1.419 . S
C512 C510 1.415 . S
C512 C517 1.425 . S
C512 C519 1.409 . S
C513 H505 0.930 . S
C513 C511 1.419 . S
C513 C514 1.362 . S
C514 H506 0.930 . S
C514 C513 1.362 . S
C514 C517 1.409 . S
C515 H507 0.930 . S
C515 C516 1.355 . S
C515 C517 1.415 . S
C516 C515 1.355 . S
C516 C518 1.419 . S
C517 C512 1.425 . S
C517 C514 1.409 . S
C517 C515 1.415 . S
C518 H508 0.930 . S
C518 C516 1.419 . S
C518 C519 1.362 . S
C519 H509 0.930 . S
C519 C512 1.409 . S
C519 C518 1.362 . S
H520 C526 0.930 . S
H521 C529 0.930 . S
H522 C530 0.930 . S
H523 C531 0.930 . S
H524 C534 0.930 . S
H525 C535 0.930 . S
C526 H520 0.930 . S
C526 C527 1.355 . S
C526 C528 1.415 . S
C527 C526 1.355 . S
C527 C529 1.419 . S
C528 C526 1.415 . S
C528 C533 1.425 . S
C528 C535 1.409 . S
C529 H521 0.930 . S
C529 C527 1.419 . S
C529 C530 1.362 . S
C530 H522 0.930 . S
C530 C529 1.362 . S
C530 C533 1.409 . S
C531 H523 0.930 . S
C531 C532 1.355 . S
C531 C533 1.415 . S
C532 C531 1.355 . S
C532 C534 1.419 . S
C533 C528 1.425 . S
C533 C530 1.409 . S
C533 C531 1.415 . S
C534 H524 0.930 . S
C534 C532 1.419 . S
C534 C535 1.362 . S
C535 H525 0.930 . S
C535 C528 1.409 . S
C535 C534 1.362 . S
H536 C542 0.930 . S
H537 C545 0.930 . S
H538 C546 0.930 . S
H539 C547 0.930 . S
H540 C550 0.930 . S
H541 C551 0.930 . S
C542 H536 0.930 . S
C542 C543 1.355 . S
C542 C544 1.415 . S
C543 C542 1.355 . S
C543 C545 1.419 . S
C544 C542 1.415 . S
C544 C549 1.425 . S
C544 C551 1.409 . S
C545 H537 0.930 . S
C545 C543 1.419 . S
C545 C546 1.362 . S
C546 H538 0.930 . S
C546 C545 1.362 . S
C546 C549 1.409 . S
C547 H539 0.930 . S
C547 C548 1.355 . S
C547 C549 1.415 . S
C548 C547 1.355 . S
C548 C550 1.419 . S
C549 C544 1.425 . S
C549 C546 1.409 . S
C549 C547 1.415 . S
C550 H540 0.930 . S
C550 C548 1.419 . S
C550 C551 1.362 . S
C551 H541 0.930 . S
C551 C544 1.409 . S
C551 C550 1.362 . S
H552 C558 0.930 . S
H553 C561 0.930 . S
H554 C562 0.930 . S
H555 C563 0.930 . S
H556 C566 0.930 . S
H557 C567 0.930 . S
C558 H552 0.930 . S
C558 C559 1.355 . S
C558 C560 1.415 . S
C559 C558 1.355 . S
C559 C561 1.419 . S
C560 C558 1.415 . S
C560 C565 1.425 . S
C560 C567 1.409 . S
C561 H553 0.930 . S
C561 C559 1.419 . S
C561 C562 1.362 . S
C562 H554 0.930 . S
C562 C561 1.362 . S
C562 C565 1.409 . S
C563 H555 0.930 . S
C563 C564 1.355 . S
C563 C565 1.415 . S
C564 C563 1.355 . S
C564 C566 1.419 . S
C565 C560 1.425 . S
C565 C562 1.409 . S
C565 C563 1.415 . S
C566 H556 0.930 . S
C566 C564 1.419 . S
C566 C567 1.362 . S
C567 H557 0.930 . S
C567 C560 1.409 . S
C567 C566 1.362 . S
H568 C574 0.930 . S
H569 C577 0.930 . S
H570 C578 0.930 . S
H571 C579 0.930 . S
H572 C582 0.930 . S
H573 C583 0.930 . S
C574 H568 0.930 . S
C574 C575 1.355 . S
C574 C576 1.415 . S
C575 C574 1.355 . S
C575 C577 1.419 . S
C576 C574 1.415 . S
C576 C581 1.425 . S
C576 C583 1.409 . S
C577 H569 0.930 . S
C577 C575 1.419 . S
C577 C578 1.362 . S
C578 H570 0.930 . S
C578 C577 1.362 . S
C578 C581 1.409 . S
C579 H571 0.930 . S
C579 C580 1.355 . S
C579 C581 1.415 . S
C580 C579 1.355 . S
C580 C582 1.419 . S
C581 C576 1.425 . S
C581 C578 1.409 . S
C581 C579 1.415 . S
C582 H572 0.930 . S
C582 C580 1.419 . S
C582 C583 1.362 . S
C583 H573 0.930 . S
C583 C576 1.409 . S
C583 C582 1.362 . S
H584 C590 0.930 . S
H585 C593 0.930 . S
H586 C594 0.930 . S
H587 C595 0.930 . S
H588 C598 0.930 . S
H589 C599 0.930 . S
C590 H584 0.930 . S
C590 C591 1.355 . S
C590 C592 1.415 . S
C591 C590 1.355 . S
C591 C593 1.419 . S
C592 C590 1.415 . S
C592 C597 1.425 . S
C592 C599 1.409 . S
C593 H585 0.930 . S
C593 C591 1.419 . S
C593 C594 1.362 . S
C594 H586 0.930 . S
C594 C593 1.362 . S
C594 C597 1.409 . S
C595 H587 0.930 . S
C595 C596 1.355 . S
C595 C597 1.415 . S
C596 C595 1.355 . S
C596 C598 1.419 . S
C597 C592 1.425 . S
C597 C594 1.409 . S
C597 C595 1.415 . S
C598 H588 0.930 . S
C598 C596 1.419 . S
C598 C599 1.362 . S
C599 H589 0.930 . S
C599 C592 1.409 . S
C599 C598 1.362 . S
H600 C606 0.930 . S
H601 C609 0.930 . S
H602 C610 0.930 . S
H603 C611 0.930 . S
H604 C614 0.930 . S
H605 C615 0.930 . S
C606 H600 0.930 . S
C606 C607 1.355 . S
C606 C608 1.415 . S
C607 C606 1.355 . S
C607 C609 1.419 . S
C608 C606 1.415 . S
C608 C613 1.425 . S
C608 C615 1.409 . S
C609 H601 0.930 . S
C609 C607 1.419 . S
C609 C610 1.362 . S
C610 H602 0.930 . S
C610 C609 1.362 . S
C610 C613 1.409 . S
C611 H603 0.930 . S
C611 C612 1.355 . S
C611 C613 1.415 1_545 S
C612 C611 1.355 . S
C612 C614 1.419 . S
C613 C608 1.425 . S
C613 C610 1.409 . S
C613 C611 1.415 1_565 S
C614 H604 0.930 . S
C614 C612 1.419 . S
C614 C615 1.362 1_545 S
C615 H605 0.930 . S
C615 C608 1.409 . S
C615 C614 1.362 1_565 S
H616 C622 0.930 . S
H617 C625 0.930 . S
H618 C626 0.930 . S
H619 C627 0.930 . S
H620 C630 0.930 . S
H621 C631 0.930 . S
C622 H616 0.930 . S
C622 C623 1.355 . S
C622 C624 1.415 . S
C623 C622 1.355 . S
C623 C625 1.419 1_565 S
C624 C622 1.415 . S
C624 C629 1.425 1_565 S
C624 C631 1.409 . S
C625 H617 0.930 . S
C625 C623 1.419 1_545 S
C625 C626 1.362 . S
C626 H618 0.930 . S
C626 C625 1.362 . S
C626 C629 1.409 . S
C627 H619 0.930 . S
C627 C628 1.355 1_545 S
C627 C629 1.415 . S
C628 C627 1.355 1_565 S
C628 C630 1.419 . S
C629 C624 1.425 1_545 S
C629 C626 1.409 . S
C629 C627 1.415 . S
C630 H620 0.930 . S
C630 C628 1.419 . S
C630 C631 1.362 . S
C631 H621 0.930 . S
C631 C624 1.409 . S
C631 C630 1.362 . S
H632 C638 0.930 . S
H633 C641 0.930 . S
H634 C642 0.930 . S
H635 C643 0.930 . S
H636 C646 0.930 . S
H637 C647 0.930 . S
C638 H632 0.930 . S
C638 C639 1.355 . S
C638 C640 1.415 . S
C639 C638 1.355 . S
C639 C641 1.419 . S
C640 C638 1.415 . S
C640 C645 1.425 . S
C640 C647 1.409 . S
C641 H633 0.930 . S
C641 C639 1.419 . S
C641 C642 1.362 . S
C642 H634 0.930 . S
C642 C641 1.362 . S
C642 C645 1.409 . S
C643 H635 0.930 . S
C643 C644 1.355 . S
C643 C645 1.415 . S
C644 C643 1.355 . S
C644 C646 1.419 . S
C645 C640 1.425 . S
C645 C642 1.409 . S
C645 C643 1.415 . S
C646 H636 0.930 . S
C646 C644 1.419 . S
C646 C647 1.362 . S
C647 H637 0.930 . S
C647 C640 1.409 . S
C647 C646 1.362 . S
H648 C654 0.930 . S
H649 C657 0.930 . S
H650 C658 0.930 . S
H651 C659 0.930 . S
H652 C662 0.930 1_655 S
H653 C663 0.930 . S
C654 H648 0.930 . S
C654 C655 1.355 . S
C654 C656 1.415 . S
C655 C654 1.355 . S
C655 C657 1.419 . S
C656 C654 1.415 . S
C656 C661 1.425 . S
C656 C663 1.409 . S
C657 H649 0.930 . S
C657 C655 1.419 . S
C657 C658 1.362 . S
C658 H650 0.930 . S
C658 C657 1.362 . S
C658 C661 1.409 . S
C659 H651 0.930 . S
C659 C660 1.355 . S
C659 C661 1.415 . S
C660 C659 1.355 . S
C660 C662 1.419 . S
C661 C656 1.425 . S
C661 C658 1.409 . S
C661 C659 1.415 . S
C662 H652 0.930 1_455 S
C662 C660 1.419 . S
C662 C663 1.362 . S
C663 H653 0.930 . S
C663 C656 1.409 . S
C663 C662 1.362 . S
H664 C670 0.930 . S
H665 C673 0.930 . S
H666 C674 0.930 . S
H667 C675 0.930 . S
H668 C678 0.930 . S
H669 C679 0.930 . S
C670 H664 0.930 . S
C670 C671 1.355 . S
C670 C672 1.415 . S
C671 C670 1.355 . S
C671 C673 1.419 . S
C672 C670 1.415 . S
C672 C677 1.425 . S
C672 C679 1.409 . S
C673 H665 0.930 . S
C673 C671 1.419 . S
C673 C674 1.362 . S
C674 H666 0.930 . S
C674 C673 1.362 . S
C674 C677 1.409 . S
C675 H667 0.930 . S
C675 C676 1.355 . S
C675 C677 1.415 . S
C676 C675 1.355 . S
C676 C678 1.419 . S
C677 C672 1.425 . S
C677 C674 1.409 . S
C677 C675 1.415 . S
C678 H668 0.930 . S
C678 C676 1.419 . S
C678 C679 1.362 . S
C679 H669 0.930 . S
C679 C672 1.409 . S
C679 C678 1.362 . S
H680 C686 0.930 . S
H681 C689 0.930 . S
H682 C690 0.930 . S
H683 C691 0.930 . S
H684 C694 0.930 . S
H685 C695 0.930 . S
C686 H680 0.930 . S
C686 C687 1.355 . S
C686 C688 1.415 . S
C687 C686 1.355 . S
C687 C689 1.419 . S
C688 C686 1.415 . S
C688 C693 1.425 . S
C688 C695 1.409 . S
C689 H681 0.930 . S
C689 C687 1.419 . S
C689 C690 1.362 . S
C690 H682 0.930 . S
C690 C689 1.362 . S
C690 C693 1.409 . S
C691 H683 0.930 . S
C691 C692 1.355 . S
C691 C693 1.415 . S
C692 C691 1.355 . S
C692 C694 1.419 . S
C693 C688 1.425 . S
C693 C690 1.409 . S
C693 C691 1.415 . S
C694 H684 0.930 . S
C694 C692 1.419 . S
C694 C695 1.362 . S
C695 H685 0.930 . S
C695 C688 1.409 . S
C695 C694 1.362 . S
H696 C702 0.930 1_565 S
H697 C705 0.930 . S
H698 C706 0.930 . S
H699 C707 0.930 . S
H700 C710 0.930 . S
H701 C711 0.930 1_565 S
C702 H696 0.930 1_545 S
C702 C703 1.355 . S
C702 C704 1.415 . S
C703 C702 1.355 . S
C703 C705 1.419 . S
C704 C702 1.415 . S
C704 C709 1.425 . S
C704 C711 1.409 . S
C705 H697 0.930 . S
C705 C703 1.419 . S
C705 C706 1.362 . S
C706 H698 0.930 . S
C706 C705 1.362 . S
C706 C709 1.409 . S
C707 H699 0.930 . S
C707 C708 1.355 . S
C707 C709 1.415 . S
C708 C707 1.355 . S
C708 C710 1.419 . S
C709 C704 1.425 . S
C709 C706 1.409 . S
C709 C707 1.415 . S
C710 H700 0.930 . S
C710 C708 1.419 . S
C710 C711 1.362 . S
C711 H701 0.930 1_545 S
C711 C704 1.409 . S
C711 C710 1.362 . S
H712 C718 0.930 . S
H713 C721 0.930 1_455 S
H714 C722 0.930 . S
H715 C723 0.930 . S
H716 C726 0.930 . S
H717 C727 0.930 . S
C718 H712 0.930 . S
C718 C719 1.355 . S
C718 C720 1.415 . S
C719 C718 1.355 . S
C719 C721 1.419 . S
C720 C718 1.415 . S
C720 C725 1.425 . S
C720 C727 1.409 . S
C721 H713 0.930 1_655 S
C721 C719 1.419 . S
C721 C722 1.362 . S
C722 H714 0.930 . S
C722 C721 1.362 . S
C722 C725 1.409 . S
C723 H715 0.930 . S
C723 C724 1.355 . S
C723 C725 1.415 . S
C724 C723 1.355 . S
C724 C726 1.419 . S
C725 C720 1.425 . S
C725 C722 1.409 . S
C725 C723 1.415 . S
C726 H716 0.930 . S
C726 C724 1.419 . S
C726 C727 1.362 . S
C727 H717 0.930 . S
C727 C720 1.409 . S
C727 C726 1.362 . S
H728 C734 0.930 . S
H729 C737 0.930 . S
H730 C738 0.930 . S
H731 C739 0.930 . S
H732 C742 0.930 . S
H733 C743 0.930 . S
C734 H728 0.930 . S
C734 C735 1.355 . S
C734 C736 1.415 . S
C735 C734 1.355 . S
C735 C737 1.419 . S
C736 C734 1.415 . S
C736 C741 1.425 . S
C736 C743 1.409 . S
C737 H729 0.930 . S
C737 C735 1.419 . S
C737 C738 1.362 . S
C738 H730 0.930 . S
C738 C737 1.362 . S
C738 C741 1.409 . S
C739 H731 0.930 . S
C739 C740 1.355 . S
C739 C741 1.415 . S
C740 C739 1.355 . S
C740 C742 1.419 . S
C741 C736 1.425 . S
C741 C738 1.409 . S
C741 C739 1.415 . S
C742 H732 0.930 . S
C742 C740 1.419 . S
C742 C743 1.362 . S
C743 H733 0.930 . S
C743 C736 1.409 . S
C743 C742 1.362 . S
H744 C750 0.930 . S
H745 C753 0.930 . S
H746 C754 0.930 . S
H747 C755 0.930 . S
H748 C758 0.930 . S
H749 C759 0.930 . S
C750 H744 0.930 . S
C750 C751 1.355 . S
C750 C752 1.415 . S
C751 C750 1.355 . S
C751 C753 1.419 . S
C752 C750 1.415 . S
C752 C757 1.425 . S
C752 C759 1.409 . S
C753 H745 0.930 . S
C753 C751 1.419 . S
C753 C754 1.362 . S
C754 H746 0.930 . S
C754 C753 1.362 . S
C754 C757 1.409 . S
C755 H747 0.930 . S
C755 C756 1.355 . S
C755 C757 1.415 . S
C756 C755 1.355 . S
C756 C758 1.419 . S
C757 C752 1.425 . S
C757 C754 1.409 . S
C757 C755 1.415 . S
C758 H748 0.930 . S
C758 C756 1.419 . S
C758 C759 1.362 . S
C759 H749 0.930 . S
C759 C752 1.409 . S
C759 C758 1.362 . S
H760 C766 0.930 . S
H761 C769 0.930 . S
H762 C770 0.930 . S
H763 C771 0.930 . S
H764 C774 0.930 . S
H765 C775 0.930 . S
C766 H760 0.930 . S
C766 C767 1.355 . S
C766 C768 1.415 . S
C767 C766 1.355 . S
C767 C769 1.419 . S
C768 C766 1.415 . S
C768 C773 1.425 1_565 S
C768 C775 1.409 . S
C769 H761 0.930 . S
C769 C767 1.419 . S
C769 C770 1.362 1_565 S
C770 H762 0.930 . S
C770 C769 1.362 1_545 S
C770 C773 1.409 . S
C771 H763 0.930 . S
C771 C772 1.355 . S
C771 C773 1.415 . S
C772 C771 1.355 . S
C772 C774 1.419 . S
C773 C768 1.425 1_545 S
C773 C770 1.409 . S
C773 C771 1.415 . S
C774 H764 0.930 . S
C774 C772 1.419 . S
C774 C775 1.362 1_545 S
C775 H765 0.930 . S
C775 C768 1.409 . S
C775 C774 1.362 1_565 S
H776 C782 0.930 . S
H777 C785 0.930 . S
H778 C786 0.930 . S
H779 C787 0.930 . S
H780 C790 0.930 . S
H781 C791 0.930 . S
C782 H776 0.930 . S
C782 C783 1.355 . S
C782 C784 1.415 1_655 S
C783 C782 1.355 . S
C783 C785 1.419 . S
C784 C782 1.415 1_455 S
C784 C789 1.425 . S
C784 C791 1.409 . S
C785 H777 0.930 . S
C785 C783 1.419 . S
C785 C786 1.362 . S
C786 H778 0.930 . S
C786 C785 1.362 . S
C786 C789 1.409 1_655 S
C787 H779 0.930 . S
C787 C788 1.355 . S
C787 C789 1.415 . S
C788 C787 1.355 . S
C788 C790 1.419 . S
C789 C784 1.425 . S
C789 C786 1.409 1_455 S
C789 C787 1.415 . S
C790 H780 0.930 . S
C790 C788 1.419 . S
C790 C791 1.362 . S
C791 H781 0.930 . S
C791 C784 1.409 . S
C791 C790 1.362 . S
C367 C48 0.819 . S
C372 C29 0.856 1_556 S
C383 C92 3.412 1_556 S
C388 C71 3.467 . S
C399 C109 1.097 . S
C404 C12 1.109 . S
C415 C111 3.134 . S
C420 C52 3.113 . S
C431 C88 2.225 . S
C436 C31 2.374 . S
C447 C8 0.825 . S
C452 C69 0.606 . S
C463 C149 2.955 . S
C468 C172 2.899 . S
C479 C212 0.914 . S
C484 C189 0.994 . S
C495 C229 0.933 . S
C500 C132 0.929 . S
C511 C168 0.743 . S
C516 C231 0.696 . S
C527 C208 2.344 . S
C532 C151 2.466 . S
C543 C191 2.449 . S
C548 C128 2.411 . S
C559 C288 0.769 . S
C564 C269 0.787 . S
C575 C311 3.475 . S
C580 C332 3.414 . S
C591 C349 1.103 . S
C596 C252 1.125 . S
C607 C351 3.057 . S
C612 C292 3.040 . S
C623 C328 2.308 . S
C628 C271 2.438 1_565 S
C639 C248 0.806 . S
C644 C309 0.577 . S
C655 C202 2.302 . S
C660 C17 2.658 . S
C671 C122 1.989 . S
C676 C42 1.895 . S
C687 C97 3.119 . S
C692 C162 2.800 . S
C703 C82 2.311 . S
C708 C257 2.658 . S
C719 C2 1.804 . S
C724 C282 1.804 . S
C735 C337 3.038 . S
C740 C57 3.044 . S
C751 C137 2.720 . S
C756 C322 2.299 . S
C767 C177 2.058 . S
C772 C242 1.785 . S
C783 C297 2.969 . S
C788 C217 2.962 . S
