# Generated by pormake.
# Topology afw, (4)-cn, num edge types: 1
# Building blocks:
#     Node 0, Type 0, BuildingBlock: CEKHIL_clean_sbu_0, # of connection points: 4
#     Node 1, Type 0, BuildingBlock: CEKHIL_clean_sbu_0, # of connection points: 4
#     Node 2, Type 0, BuildingBlock: CEKHIL_clean_sbu_0, # of connection points: 4
#     Node 3, Type 0, BuildingBlock: CEKHIL_clean_sbu_0, # of connection points: 4
#     Node 4, Type 0, BuildingBlock: CEKHIL_clean_sbu_0, # of connection points: 4
#     Node 5, Type 0, BuildingBlock: CEKHIL_clean_sbu_0, # of connection points: 4
#     Node 6, Type 0, BuildingBlock: CEKHIL_clean_sbu_0, # of connection points: 4
#     Node 7, Type 0, BuildingBlock: CEKHIL_clean_sbu_0, # of connection points: 4
#     Node 8, Type 0, BuildingBlock: CEKHIL_clean_sbu_0, # of connection points: 4
#     Edge 9, Type (0, 0), BuildingBlock: FUNLAD_clean_linker_1, # of connection points: 2
#     Edge 10, Type (0, 0), BuildingBlock: FUNLAD_clean_linker_1, # of connection points: 2
#     Edge 11, Type (0, 0), BuildingBlock: FUNLAD_clean_linker_1, # of connection points: 2
#     Edge 12, Type (0, 0), BuildingBlock: FUNLAD_clean_linker_1, # of connection points: 2
#     Edge 13, Type (0, 0), BuildingBlock: FUNLAD_clean_linker_1, # of connection points: 2
#     Edge 14, Type (0, 0), BuildingBlock: FUNLAD_clean_linker_1, # of connection points: 2
#     Edge 15, Type (0, 0), BuildingBlock: FUNLAD_clean_linker_1, # of connection points: 2
#     Edge 16, Type (0, 0), BuildingBlock: FUNLAD_clean_linker_1, # of connection points: 2
#     Edge 17, Type (0, 0), BuildingBlock: FUNLAD_clean_linker_1, # of connection points: 2
#     Edge 18, Type (0, 0), BuildingBlock: FUNLAD_clean_linker_1, # of connection points: 2
#     Edge 19, Type (0, 0), BuildingBlock: FUNLAD_clean_linker_1, # of connection points: 2
#     Edge 20, Type (0, 0), BuildingBlock: FUNLAD_clean_linker_1, # of connection points: 2
#     Edge 21, Type (0, 0), BuildingBlock: FUNLAD_clean_linker_1, # of connection points: 2
#     Edge 22, Type (0, 0), BuildingBlock: FUNLAD_clean_linker_1, # of connection points: 2
#     Edge 23, Type (0, 0), BuildingBlock: FUNLAD_clean_linker_1, # of connection points: 2
#     Edge 24, Type (0, 0), BuildingBlock: FUNLAD_clean_linker_1, # of connection points: 2
#     Edge 25, Type (0, 0), BuildingBlock: FUNLAD_clean_linker_1, # of connection points: 2
#     Edge 26, Type (0, 0), BuildingBlock: FUNLAD_clean_linker_1, # of connection points: 2
# Relax obj value: 0.199
# Max RMSD: 0.209
# Mean RMSD: 0.200
data_MOF--net-afw--node1-CEKHIL_clean_sbu_0--edge1-FUNLAD_clean_linker_1
_symmetry_space_group_name_H-M    P1
_symmetry_Int_Tables_number       1
_symmetry_cell_setting            triclinic
loop_
_symmetry_equiv_pos_as_xyz
'x, y, z'
_cell_length_a     44.285922
_cell_length_b     44.900098
_cell_length_c     32.337804
_cell_angle_alpha  90.86087
_cell_angle_beta   90.853751
_cell_angle_gamma 120.06142
loop_
_atom_site_label
_atom_site_type_symbol
_atom_site_fract_x
_atom_site_fract_y
_atom_site_fract_z
_atom_type_partial_charge
Co0 Co 0.02274 0.22518 0.02749 0.0
O1 O 0.05273 0.27003 0.0051 0.0
O2 O 0.99652 0.23664 0.98912 0.0
C3 C 0.05956 0.20454 0.01998 0.0
O4 O 0.98379 0.17715 0.04097 0.0
Co5 Co 0.0423 0.19972 0.10681 0.0
O6 O 0.00385 0.1539 0.0872 0.0
C7 C 0.01855 0.25024 0.11424 0.0
C8 C 0.02553 0.26508 0.98349 0.0
C9 C 0.98082 0.15136 0.06102 0.0
O10 O 0.01042 0.24649 0.07529 0.0
O11 O 0.03416 0.23618 0.13184 0.0
O12 O 0.04079 0.20435 0.98857 0.0
O13 O 0.05796 0.21989 0.05322 0.0
Co14 Co 0.82525 0.81261 0.03709 0.0
O15 O 0.80952 0.76474 0.04519 0.0
O16 O 0.78701 0.79378 0.07503 0.0
C17 C 0.88257 0.83191 0.04482 0.0
O18 O 0.83623 0.86258 0.03821 0.0
Co19 Co 0.87101 0.8501 0.96179 0.0
O20 O 0.87545 0.8918 0.98937 0.0
C21 C 0.79625 0.80115 0.94859 0.0
C22 C 0.78724 0.76506 0.07049 0.0
C23 C 0.85698 0.89056 0.01982 0.0
O24 O 0.7918 0.79986 0.98797 0.0
O25 O 0.82615 0.81739 0.93216 0.0
O26 O 0.86352 0.82586 0.07715 0.0
O27 O 0.86594 0.82255 0.00957 0.0
Co28 Co 0.20355 0.00567 0.98262 0.0
O29 O 0.21718 0.97289 0.96666 0.0
O30 O 0.23706 0.02402 0.93874 0.0
C31 C 0.14607 0.96822 0.98334 0.0
O32 O 0.19317 0.04498 0.98967 0.0
Co33 Co 0.16815 0.99872 0.06707 0.0
O34 O 0.15671 0.03224 0.04283 0.0
C35 C 0.24361 0.02495 0.06545 0.0
C36 C 0.23673 0.99488 0.93969 0.0
C37 C 0.17225 0.05031 0.01176 0.0
O38 O 0.24257 0.02649 0.02581 0.0
O39 O 0.21638 0.0122 0.08755 0.0
O40 O 0.16101 0.98091 0.94866 0.0
O41 O 0.16665 0.97561 0.01534 0.0
Co42 Co 0.64906 0.52679 0.3514 0.0
O43 O 0.62339 0.54382 0.38161 0.0
O44 O 0.67832 0.55807 0.39525 0.0
C45 C 0.60806 0.47072 0.34983 0.0
O46 O 0.68365 0.51355 0.32941 0.0
Co47 Co 0.6246 0.49193 0.26445 0.0
O48 O 0.65979 0.4776 0.27419 0.0
C49 C 0.65889 0.56747 0.2729 0.0
C50 C 0.65144 0.56088 0.4047 0.0
C51 C 0.68354 0.49228 0.3022 0.0
O52 O 0.66494 0.56587 0.31161 0.0
O53 O 0.64136 0.54085 0.24928 0.0
O54 O 0.62796 0.48463 0.38254 0.0
O55 O 0.61073 0.49166 0.3212 0.0
Co56 Co 0.49455 0.1434 0.35562 0.0
O57 O 0.47536 0.09954 0.38161 0.0
O58 O 0.46097 0.13918 0.39614 0.0
C59 C 0.55098 0.15771 0.35934 0.0
O60 O 0.51025 0.1922 0.33695 0.0
Co61 Co 0.53251 0.15599 0.27204 0.0
O62 O 0.55038 0.20498 0.2881 0.0
C63 C 0.45577 0.11633 0.27233 0.0
C64 C 0.45702 0.10903 0.40329 0.0
C65 C 0.53463 0.21381 0.31385 0.0
O66 O 0.4565 0.12285 0.31131 0.0
O67 O 0.48321 0.12534 0.25138 0.0
O68 O 0.53625 0.16223 0.39144 0.0
O69 O 0.5303 0.14098 0.32837 0.0
Co70 Co 0.88991 0.38602 0.3567 0.0
O71 O 0.93768 0.41861 0.37187 0.0
O72 O 0.9074 0.36588 0.396 0.0
C73 C 0.86905 0.42225 0.36367 0.0
O74 O 0.83974 0.34628 0.35081 0.0
Co75 Co 0.85458 0.39565 0.2781 0.0
O76 O 0.81117 0.3589 0.30225 0.0
C77 C 0.90519 0.37195 0.26904 0.0
C78 C 0.93624 0.3954 0.39649 0.0
C79 C 0.81159 0.3402 0.33129 0.0
O80 O 0.90537 0.36793 0.30844 0.0
O81 O 0.88917 0.38559 0.25144 0.0
O82 O 0.87413 0.4084 0.396 0.0
O83 O 0.88032 0.41694 0.32926 0.0
Co84 Co 0.37437 0.88999 0.67166 0.0
O85 O 0.40712 0.93445 0.65149 0.0
O86 O 0.35151 0.90406 0.63112 0.0
C87 C 0.40844 0.86635 0.66673 0.0
O88 O 0.33397 0.84211 0.68407 0.0
Co89 Co 0.39165 0.86655 0.75434 0.0
O90 O 0.35017 0.8216 0.73813 0.0
C91 C 0.37342 0.9207 0.75546 0.0
C92 C 0.38184 0.93179 0.62809 0.0
C93 C 0.32894 0.81778 0.70866 0.0
O94 O 0.36185 0.91244 0.71785 0.0
O95 O 0.39023 0.90839 0.77412 0.0
O96 O 0.39174 0.86784 0.63421 0.0
O97 O 0.40745 0.88284 0.6993 0.0
Co98 Co 0.15838 0.47679 0.70301 0.0
O99 O 0.14446 0.43077 0.71939 0.0
O100 O 0.12143 0.46145 0.7428 0.0
C101 C 0.21615 0.49763 0.70993 0.0
O102 O 0.16794 0.52585 0.69523 0.0
Co103 Co 0.20198 0.50642 0.62396 0.0
O104 O 0.20929 0.55075 0.64744 0.0
C105 C 0.12801 0.45311 0.61643 0.0
C106 C 0.12295 0.43326 0.74398 0.0
C107 C 0.1904 0.55243 0.67577 0.0
O108 O 0.12361 0.45811 0.6547 0.0
O109 O 0.15788 0.46678 0.59978 0.0
O110 O 0.19805 0.49532 0.74215 0.0
O111 O 0.19849 0.48431 0.67592 0.0
Co112 Co 0.54016 0.6622 0.69055 0.0
O113 O 0.55835 0.63414 0.6697 0.0
O114 O 0.57991 0.68939 0.65667 0.0
C115 C 0.48379 0.62483 0.67466 0.0
O116 O 0.52751 0.69892 0.70452 0.0
Co117 Co 0.48866 0.63871 0.76341 0.0
O118 O 0.47934 0.67487 0.74284 0.0
C119 C 0.56391 0.66674 0.78052 0.0
C120 C 0.58069 0.66115 0.6502 0.0
C121 C 0.50139 0.69922 0.72093 0.0
O122 O 0.57062 0.67445 0.74223 0.0
O123 O 0.53299 0.65039 0.79442 0.0
O124 O 0.50443 0.64443 0.64652 0.0
O125 O 0.49842 0.62593 0.70998 0.0
H126 H 0.17328 0.0895 0.96982 0.0
C127 C 0.16414 0.07719 0.9993 0.0
H128 H 0.13353 0.07148 0.05121 0.0
H129 H 0.14303 0.21365 0.98423 0.0
H130 H 0.20575 0.24138 0.99578 0.0
H131 H 0.23358 0.20736 0.01385 0.0
H132 H 0.199 0.14535 0.01969 0.0
C133 C 0.14353 0.08456 0.02233 0.0
C134 C 0.1283 0.10545 0.00716 0.0
C135 C 0.14886 0.14172 0.00479 0.0
C136 C 0.13261 0.1615 0.99597 0.0
C137 C 0.15387 0.19756 0.9923 0.0
C138 C 0.18991 0.21376 0.9986 0.0
C139 C 0.2056 0.19459 0.00867 0.0
C140 C 0.18544 0.15899 0.01183 0.0
H141 H 0.09346 0.1872 0.04805 0.0
C142 C 0.07883 0.18563 0.02 0.0
H143 H 0.06235 0.16282 0.96029 0.0
H144 H 0.08227 0.03614 0.0031 0.0
H145 H 0.01962 0.00833 0.99182 0.0
H146 H 0.99091 0.04242 0.98205 0.0
H147 H 0.0247 0.10503 0.98106 0.0
C148 C 0.07805 0.16589 0.98789 0.0
C149 C 0.09572 0.14508 0.99123 0.0
C150 C 0.0754 0.10865 0.99173 0.0
C151 C 0.09181 0.08886 0.99916 0.0
C152 C 0.07104 0.05248 0.99874 0.0
C153 C 0.03507 0.03615 0.99224 0.0
C154 C 0.01891 0.05546 0.98642 0.0
C155 C 0.03864 0.09129 0.986 0.0
H156 H 0.87526 0.93171 0.06724 0.0
C157 C 0.86272 0.92355 0.03682 0.0
H158 H 0.84596 0.93628 0.98261 0.0
H159 H 0.911 0.06752 0.12682 0.0
H160 H 0.8673 0.02774 0.17336 0.0
H161 H 0.82576 0.96791 0.15061 0.0
H162 H 0.82825 0.94728 0.08157 0.0
C163 C 0.85868 0.94554 0.01277 0.0
C164 C 0.8765 0.98327 0.02314 0.0
C165 C 0.87343 0.9954 0.06279 0.0
C166 C 0.89643 0.03026 0.07531 0.0
C167 C 0.89402 0.0413 0.11575 0.0
C168 C 0.86895 0.01881 0.14264 0.0
C169 C 0.84561 0.98511 0.12987 0.0
C170 C 0.84758 0.97346 0.09037 0.0
H171 H 0.9299 0.11585 0.0305 0.0
C172 C 0.95021 0.11723 0.05112 0.0
H173 H 0.96882 0.08886 0.08346 0.0
H174 H 0.88596 0.97039 0.94192 0.0
H175 H 0.92398 0.01184 0.89333 0.0
H176 H 0.96102 0.07298 0.91392 0.0
H177 H 0.96078 0.09266 0.98364 0.0
C178 C 0.9488 0.08799 0.0628 0.0
C179 C 0.92094 0.05346 0.0474 0.0
C180 C 0.92086 0.0425 0.00598 0.0
C181 C 0.89895 0.00725 0.99393 0.0
C182 C 0.90107 0.99676 0.95297 0.0
C183 C 0.92299 0.02037 0.92451 0.0
C184 C 0.94378 0.05478 0.93606 0.0
C185 C 0.9432 0.06577 0.97635 0.0
H186 H 0.93312 0.85707 0.07896 0.0
C187 C 0.92085 0.85108 0.04828 0.0
H188 H 0.92859 0.85551 0.98389 0.0
H189 H 0.08078 0.98097 0.05898 0.0
H190 H 0.04847 0.00783 0.0839 0.0
H191 H 0.9842 0.97752 0.0776 0.0
H192 H 0.95187 0.92004 0.04693 0.0
C193 C 0.94059 0.86199 0.01471 0.0
C194 C 0.97926 0.88085 0.01824 0.0
C195 C -0.00233 0.91475 0.03566 0.0
C196 C 0.03474 0.93256 0.03842 0.0
C197 C 0.05261 0.96629 0.05609 0.0
C198 C 0.03438 0.98202 0.07051 0.0
C199 C -0.0018 0.96493 0.06702 0.0
C200 C 0.97993 0.9318 0.04957 0.0
H201 H 0.09256 0.94209 0.95716 0.0
C202 C 0.10794 0.94797 0.98575 0.0
H203 H 0.10668 0.94343 0.05081 0.0
H204 H 0.95178 0.8159 0.98407 0.0
H205 H 0.98422 0.78897 0.95991 0.0
H206 H 0.04854 0.81988 0.96505 0.0
H207 H 0.08078 0.87794 0.99424 0.0
C208 C 0.09185 0.9368 0.02174 0.0
C209 C 0.0532 0.91683 0.02269 0.0
C210 C 0.03479 0.88274 0.00603 0.0
C211 C -0.00224 0.86482 0.00351 0.0
C212 C 0.97996 0.83081 0.9866 0.0
C213 C -0.00175 0.81498 0.97271 0.0
C214 C 0.03446 0.83239 0.97556 0.0
C215 C 0.05265 0.86582 0.99213 0.0
H216 H 0.84166 0.44496 0.39605 0.0
C217 C 0.84736 0.43849 0.36573 0.0
H218 H 0.83792 0.43642 0.30133 0.0
H219 H 0.70395 0.44406 0.38192 0.0
H220 H 0.68963 0.39107 0.41633 0.0
H221 H 0.7282 0.3663 0.41158 0.0
H222 H 0.78107 0.39416 0.37251 0.0
C223 C 0.83218 0.44261 0.33176 0.0
C224 C 0.80797 0.45651 0.3341 0.0
C225 C 0.77608 0.43864 0.3554 0.0
C226 C 0.75319 0.45222 0.35697 0.0
C227 C 0.72205 0.4346 0.37939 0.0
C228 C 0.71354 0.40421 0.39934 0.0
C229 C 0.73531 0.39033 0.39676 0.0
C230 C 0.76591 0.40689 0.37457 0.0
H231 H 0.71152 0.46654 0.27928 0.0
C232 C 0.71158 0.4837 0.30342 0.0
H233 H 0.73611 0.51124 0.35921 0.0
H234 H 0.86732 0.49775 0.29175 0.0
H235 H 0.88099 0.55046 0.25719 0.0
H236 H 0.84014 0.57273 0.25814 0.0
H237 H 0.78535 0.54242 0.2939 0.0
C238 C 0.73581 0.49475 0.33409 0.0
C239 C 0.76138 0.48261 0.33574 0.0
C240 C 0.79313 0.50048 0.3146 0.0
C241 C 0.81651 0.48747 0.31384 0.0
C242 C 0.84832 0.50616 0.29291 0.0
C243 C 0.85657 0.53653 0.27303 0.0
C244 C 0.83357 0.54908 0.27357 0.0
C245 C 0.8022 0.5314 0.29411 0.0
H246 H 0.57121 0.26849 0.30413 0.0
C247 C 0.5463 0.25077 0.3175 0.0
H248 H 0.50312 0.24586 0.34977 0.0
H249 H 0.57882 0.3932 0.43533 0.0
H250 H 0.55729 0.35533 0.49348 0.0
H251 H 0.52983 0.29244 0.48329 0.0
H252 H 0.5231 0.26701 0.41488 0.0
C253 C 0.52798 0.26334 0.33618 0.0
C254 C 0.54273 0.3013 0.34181 0.0
C255 C 0.54713 0.31581 0.38226 0.0
C256 C 0.56407 0.35219 0.38831 0.0
C257 C 0.56703 0.36585 0.42894 0.0
C258 C 0.55467 0.34439 0.46267 0.0
C259 C 0.53915 0.30899 0.45692 0.0
C260 C 0.53538 0.29473 0.41733 0.0
H261 H 0.56621 0.42269 0.32042 0.0
C262 C 0.58773 0.43315 0.34295 0.0
H263 H 0.61889 0.42299 0.38364 0.0
H264 H 0.53086 0.28248 0.25945 0.0
H265 H 0.55682 0.32012 0.20166 0.0
H266 H 0.59546 0.38265 0.2133 0.0
H267 H 0.60688 0.40795 0.28239 0.0
C268 C 0.59706 0.41224 0.36147 0.0
C269 C 0.5778 0.37415 0.35414 0.0
C270 C 0.57392 0.3596 0.31373 0.0
C271 C 0.55456 0.32325 0.30737 0.0
C272 C 0.54761 0.30967 0.26629 0.0
C273 C 0.56204 0.33102 0.23279 0.0
C274 C 0.58358 0.36622 0.23932 0.0
C275 C 0.58957 0.38048 0.27921 0.0
H276 H 0.59908 0.17357 0.32526 0.0
C277 C 0.589 0.17726 0.35416 0.0
H278 H 0.60044 0.2076 0.40889 0.0
H279 H 0.75414 0.24508 0.3276 0.0
H280 H 0.73999 0.18772 0.34711 0.0
H281 H 0.68353 0.14837 0.37819 0.0
H282 H 0.64062 0.16608 0.38924 0.0
C283 C 0.61055 0.20238 0.38098 0.0
C284 C 0.64672 0.22771 0.36902 0.0
C285 C 0.67212 0.21758 0.36449 0.0
C286 C 0.70534 0.2409 0.34843 0.0
C287 C 0.72923 0.22918 0.34162 0.0
C288 C 0.7213 0.19613 0.3523 0.0
C289 C 0.68945 0.17393 0.36964 0.0
C290 C 0.66501 0.18435 0.37564 0.0
H291 H 0.77753 0.3 0.37437 0.0
C292 C 0.77808 0.31132 0.34471 0.0
H293 H 0.74882 0.31147 0.29278 0.0
H294 H 0.60435 0.25575 0.37559 0.0
H295 H 0.61852 0.31331 0.35691 0.0
H296 H 0.67593 0.35374 0.32898 0.0
H297 H 0.72011 0.33753 0.32132 0.0
C298 C 0.74833 0.29994 0.32225 0.0
C299 C 0.71356 0.27483 0.33853 0.0
C300 C 0.68816 0.28501 0.34349 0.0
C301 C 0.65486 0.26155 0.35911 0.0
C302 C 0.63004 0.27245 0.36377 0.0
C303 C 0.63778 0.30542 0.35312 0.0
C304 C 0.67013 0.32821 0.33748 0.0
C305 C 0.69522 0.31843 0.33302 0.0
H306 H 0.41402 0.82322 0.64311 0.0
C307 C 0.42182 0.84234 0.66808 0.0
H308 H 0.44876 0.8611 0.72526 0.0
H309 H 0.43829 0.72469 0.78578 0.0
H310 H 0.40776 0.73729 0.83839 0.0
H311 H 0.39439 0.78398 0.82973 0.0
H312 H 0.41265 0.81914 0.76915 0.0
C313 C 0.44149 0.84229 0.70004 0.0
C314 C 0.44967 0.81409 0.70464 0.0
C315 C 0.43778 0.79305 0.73977 0.0
C316 C 0.44407 0.76511 0.74386 0.0
C317 C 0.43334 0.74557 0.78027 0.0
C318 C 0.41589 0.75262 0.81092 0.0
C319 C 0.40845 0.77895 0.8061 0.0
C320 C 0.41919 0.79901 0.77108 0.0
H321 H 0.52015 0.75376 0.70762 0.0
C322 C 0.49724 0.7294 0.71471 0.0
H323 H 0.44303 0.70245 0.72322 0.0
H324 H 0.48216 0.85315 0.63761 0.0
H325 H 0.50833 0.83791 0.58187 0.0
H326 H 0.51014 0.7839 0.58307 0.0
H327 H 0.48719 0.74569 0.64073 0.0
C328 C 0.46576 0.72694 0.7162 0.0
C329 C 0.46078 0.75722 0.71191 0.0
C330 C 0.47173 0.77769 0.67614 0.0
C331 C 0.46784 0.8072 0.67362 0.0
C332 C 0.48233 0.82923 0.63975 0.0
C333 C 0.4977 0.82094 0.60771 0.0
C334 C 0.49892 0.79066 0.60851 0.0
C335 C 0.48602 0.76914 0.64215 0.0
H336 H 0.2916 0.77551 0.66702 0.0
C337 C 0.29974 0.78263 0.69923 0.0
H338 H 0.29493 0.76639 0.7605 0.0
H339 H 0.17754 0.63113 0.64035 0.0
H340 H 0.15296 0.66665 0.61997 0.0
H341 H 0.17888 0.72658 0.64626 0.0
H342 H 0.22993 0.75164 0.69228 0.0
C343 C 0.28673 0.75856 0.72844 0.0
C344 C 0.26681 0.72085 0.71784 0.0
C345 C 0.23589 0.70612 0.69261 0.0
C346 C 0.22005 0.6711 0.67873 0.0
C347 C 0.19028 0.65747 0.65202 0.0
C348 C 0.17587 0.67752 0.64025 0.0
C349 C 0.19052 0.7113 0.65498 0.0
C350 C 0.22006 0.7255 0.68102 0.0
H351 H 0.18255 0.58852 0.71561 0.0
C352 C 0.19651 0.58676 0.68918 0.0
H353 H 0.23634 0.61443 0.64669 0.0
H354 H 0.32468 0.73951 0.76846 0.0
H355 H 0.34474 0.70198 0.79389 0.0
H356 H 0.31441 0.64047 0.77369 0.0
H357 H 0.26367 0.61609 0.72749 0.0
C358 C 0.2215 0.61577 0.67238 0.0
C359 C 0.23405 0.65042 0.69169 0.0
C360 C 0.26286 0.66413 0.71998 0.0
C361 C 0.2797 0.69947 0.73252 0.0
C362 C 0.30987 0.71273 0.75879 0.0
C363 C 0.32198 0.6915 0.77349 0.0
C364 C 0.30488 0.65684 0.76215 0.0
C365 C 0.27578 0.64321 0.73557 0.0
H366 H 0.26769 0.52872 0.74091 0.0
C367 C 0.25449 0.51653 0.71169 0.0
H368 H 0.26048 0.50603 0.64929 0.0
H369 H 0.41475 0.64195 0.69509 0.0
H370 H 0.38446 0.67396 0.6854 0.0
H371 H 0.32088 0.64374 0.67236 0.0
H372 H 0.28677 0.58128 0.67101 0.0
C373 C 0.27323 0.51885 0.67843 0.0
C374 C 0.31187 0.53711 0.68134 0.0
C375 C 0.3313 0.57357 0.68191 0.0
C376 C 0.36816 0.59095 0.68769 0.0
C377 C 0.38683 0.62741 0.68965 0.0
C378 C 0.36976 0.6461 0.68431 0.0
C379 C 0.33389 0.62908 0.67722 0.0
C380 C 0.31467 0.59324 0.67644 0.0
H381 H 0.43528 0.60748 0.63783 0.0
C382 C 0.44572 0.60635 0.66803 0.0
H383 H 0.4339 0.58751 0.72862 0.0
H384 H 0.28231 0.46701 0.67829 0.0
H385 H 0.31288 0.43488 0.68323 0.0
H386 H 0.37699 0.46499 0.69205 0.0
H387 H 0.41092 0.5274 0.69607 0.0
C388 C 0.42389 0.58952 0.69854 0.0
C389 C 0.38548 0.57172 0.6917 0.0
C390 C 0.36611 0.53527 0.68959 0.0
C391 C 0.32923 0.51793 0.68428 0.0
C392 C 0.31043 0.48148 0.68225 0.0
C393 C 0.32764 0.46273 0.68502 0.0
C394 C 0.36373 0.47968 0.69001 0.0
C395 C 0.38288 0.51552 0.69233 0.0
H396 H 0.00326 0.28612 0.93883 0.0
C397 C 0.0275 0.28959 0.95224 0.0
H398 H 0.08245 0.31769 0.95138 0.0
H399 H 0.03862 0.35089 0.76694 0.0
H400 H 0.00821 0.28923 0.75285 0.0
H401 H 0.00335 0.24912 0.8071 0.0
H402 H 0.02779 0.2702 0.87584 0.0
C403 C 0.05817 0.31399 0.93779 0.0
C404 C 0.06067 0.33759 0.90424 0.0
C405 C 0.04764 0.32472 0.86352 0.0
C406 C 0.05251 0.34796 0.83137 0.0
C407 C 0.03724 0.33442 0.79179 0.0
C408 C 0.0195 0.2991 0.78339 0.0
C409 C 0.01662 0.27652 0.81399 0.0
C410 C 0.03054 0.28902 0.85356 0.0
H411 H 0.1096 0.38515 0.77466 0.0
C412 C 0.10431 0.40632 0.77445 0.0
H413 H 0.07993 0.43013 0.80498 0.0
H414 H 0.08574 0.37065 0.97925 0.0
H415 H 0.11763 0.43234 0.99252 0.0
H416 H 0.12982 0.47266 0.93581 0.0
H417 H 0.10986 0.45163 0.86569 0.0
C418 C 0.08436 0.40843 0.80397 0.0
C419 C 0.07269 0.38404 0.83905 0.0
C420 C 0.08466 0.39685 0.87999 0.0
C421 C 0.07836 0.3736 0.91259 0.0
C422 C 0.09038 0.38713 0.9532 0.0
C423 C 0.10863 0.42249 0.9613 0.0
C424 C 0.11544 0.44518 0.92938 0.0
C425 C 0.10375 0.4327 0.88918 0.0
H426 H 0.77073 0.78764 0.88697 0.0
C427 C 0.76586 0.78395 0.91991 0.0
H428 H 0.7273 0.75865 0.96466 0.0
H429 H 0.64026 0.76189 0.79594 0.0
H430 H 0.66606 0.82273 0.81279 0.0
H431 H 0.70894 0.84959 0.87059 0.0
H432 H 0.72633 0.81573 0.91179 0.0
C433 C 0.733 0.76403 0.93217 0.0
C434 C 0.7041 0.74715 0.90072 0.0
C435 C 0.6939 0.76722 0.87724 0.0
C436 C 0.66889 0.75164 0.84426 0.0
C437 C 0.65922 0.77235 0.82128 0.0
C438 C 0.67377 0.80733 0.83068 0.0
C439 C 0.69794 0.82245 0.86318 0.0
C440 C 0.70788 0.80276 0.88639 0.0
H441 H 0.58626 0.67194 0.84327 0.0
C442 C 0.59287 0.67878 0.81121 0.0
H443 H 0.63344 0.70821 0.77039 0.0
H444 H 0.71659 0.70119 0.94121 0.0
H445 H 0.69068 0.64019 0.92465 0.0
H446 H 0.6482 0.61332 0.86646 0.0
H447 H 0.63122 0.64719 0.82465 0.0
C448 C 0.62637 0.69971 0.80187 0.0
C449 C 0.65365 0.71589 0.83529 0.0
C450 C 0.66352 0.69572 0.85915 0.0
C451 C 0.68849 0.71133 0.89222 0.0
C452 C 0.69787 0.69065 0.91562 0.0
C453 C 0.68321 0.65562 0.90644 0.0
C454 C 0.65924 0.64048 0.87373 0.0
C455 C 0.64953 0.66018 0.85015 0.0
H456 H 0.38381 0.95927 0.80465 0.0
C457 C 0.3656 0.94389 0.77974 0.0
H458 H 0.31621 0.92689 0.75166 0.0
H459 H 0.31477 0.9892 0.94163 0.0
H460 H 0.33121 0.94889 0.9683 0.0
H461 H 0.34075 0.91105 0.92075 0.0
H462 H 0.33582 0.91463 0.8467 0.0
C463 C 0.33473 0.94263 0.77615 0.0
C464 C 0.32438 0.96176 0.80553 0.0
C465 C 0.32407 0.95665 0.84888 0.0
C466 C 0.31484 0.97564 0.87634 0.0
C467 C 0.31893 0.97337 0.91951 0.0
C468 C 0.32863 0.95059 0.9352 0.0
C469 C 0.33425 0.9295 0.90845 0.0
C470 C 0.33186 0.93224 0.86582 0.0
H471 H 0.24884 0.95851 0.90927 0.0
C472 C 0.25625 0.98554 0.91099 0.0
H473 H 0.29041 0.03528 0.88946 0.0
H474 H 0.32459 0.97986 0.72498 0.0
H475 H 0.30468 0.01758 0.69884 0.0
H476 H 0.28226 0.04523 0.74609 0.0
H477 H 0.28023 0.03586 0.81986 0.0
C478 C 0.28286 0.00823 0.88842 0.0
C479 C 0.30125 0.99598 0.86048 0.0
C480 C 0.30187 0.00142 0.81736 0.0
C481 C 0.31396 0.98472 0.78995 0.0
C482 C 0.31501 0.99126 0.74711 0.0
C483 C 0.30374 0.01294 0.73168 0.0
C484 C 0.29115 0.02854 0.75829 0.0
C485 C 0.29011 0.02291 0.80063 0.0
H486 H 0.39822 0.09042 0.26903 0.0
C487 C 0.42138 0.09866 0.25074 0.0
H488 H 0.44084 0.10354 0.19038 0.0
H489 H 0.27474 0.98464 0.15767 0.0
H490 H 0.28923 0.94684 0.19503 0.0
H491 H 0.34708 0.96939 0.22911 0.0
H492 H 0.39076 0.02992 0.22609 0.0
C493 C 0.41797 0.09414 0.20941 0.0
C494 C 0.38336 0.08007 0.1881 0.0
C495 C 0.35819 0.04461 0.19008 0.0
C496 C 0.32493 0.03159 0.17021 0.0
C497 C 0.30035 0.99599 0.17242 0.0
C498 C 0.30835 0.97396 0.19366 0.0
C499 C 0.34091 0.98666 0.21287 0.0
C500 C 0.36569 0.02151 0.21107 0.0
H501 H 0.30108 0.04925 0.06713 0.0
C502 C 0.27816 0.03906 0.08622 0.0
H503 H 0.25942 0.02917 0.14713 0.0
H504 H 0.42603 0.14925 0.1779 0.0
H505 H 0.41129 0.18737 0.14176 0.0
H506 H 0.35293 0.16524 0.10929 0.0
H507 H 0.30914 0.10488 0.11241 0.0
C508 C 0.28209 0.04008 0.12763 0.0
C509 C 0.31703 0.05401 0.14814 0.0
C510 C 0.34215 0.08958 0.14649 0.0
C511 C 0.37553 0.10249 0.166 0.0
C512 C 0.40024 0.13805 0.1637 0.0
C513 C 0.3921 0.16026 0.14313 0.0
C514 C 0.35927 0.14779 0.1248 0.0
C515 C 0.33444 0.11296 0.12654 0.0
H516 H 0.01904 0.276 0.17291 0.0
C517 C 0.00859 0.2705 0.14131 0.0
H518 H 0.97284 0.27295 0.09942 0.0
H519 H 0.88443 0.27722 0.25116 0.0
H520 H 0.84878 0.2176 0.22803 0.0
H521 H 0.86928 0.19293 0.17414 0.0
H522 H 0.92553 0.22773 0.14293 0.0
C523 C 0.98528 0.27983 0.12999 0.0
C524 C 0.97249 0.29545 0.16111 0.0
C525 C 0.9395 0.2748 0.17893 0.0
C526 C 0.92775 0.28898 0.21016 0.0
C527 C 0.89469 0.26774 0.22743 0.0
C528 C 0.87396 0.23347 0.21444 0.0
C529 C 0.8855 0.21958 0.18409 0.0
C530 C 0.91785 0.23985 0.16644 0.0
H531 H 0.92459 0.36584 0.20906 0.0
C532 C 0.92307 0.35948 0.24158 0.0
H533 H 0.93257 0.33075 0.28584 0.0
H534 H 0.03625 0.34242 0.13202 0.0
H535 H 0.07237 0.40183 0.15591 0.0
H536 H 0.05266 0.42602 0.2113 0.0
H537 H 0.99661 0.39104 0.24298 0.0
C538 C 0.93535 0.33907 0.25405 0.0
C539 C 0.94885 0.3239 0.22322 0.0
C540 C 0.98192 0.34452 0.20553 0.0
C541 C 0.99364 0.33035 0.17422 0.0
C542 C 0.02642 0.35171 0.15646 0.0
C543 C 0.04734 0.38587 0.16978 0.0
C544 C 0.0362 0.39952 0.2009 0.0
C545 C 0.00392 0.37921 0.2187 0.0
H546 H 0.6853 0.62437 0.27534 0.0
C547 C 0.67415 0.60187 0.25465 0.0
H548 H 0.66535 0.58363 0.1926 0.0
H549 H 0.68151 0.71078 0.0995 0.0
H550 H 0.61958 0.67027 0.08896 0.0
H551 H 0.59074 0.6162 0.12723 0.0
H552 H 0.62358 0.60212 0.17599 0.0
C553 C 0.67668 0.60602 0.21347 0.0
C554 C 0.69366 0.64051 0.19432 0.0
C555 C 0.67386 0.64877 0.16669 0.0
C556 C 0.69034 0.68015 0.14501 0.0
C557 C 0.67017 0.68734 0.11686 0.0
C558 C 0.63463 0.66436 0.11058 0.0
C559 C 0.6184 0.6339 0.1321 0.0
C560 C 0.63761 0.62608 0.1599 0.0
H561 H 0.76754 0.7117 0.08894 0.0
C562 C 0.76516 0.73438 0.09458 0.0
H563 H 0.74147 0.75618 0.1311 0.0
H564 H 0.74079 0.63192 0.24189 0.0
H565 H 0.80167 0.67382 0.25466 0.0
H566 H 0.82869 0.73034 0.22172 0.0
H567 H 0.7949 0.74486 0.17498 0.0
C568 C 0.74462 0.73406 0.12487 0.0
C569 C 0.72649 0.70335 0.15119 0.0
C570 C 0.74597 0.696 0.18031 0.0
C571 C 0.72986 0.66414 0.20102 0.0
C572 C 0.75091 0.65637 0.22705 0.0
C573 C 0.78613 0.68012 0.23436 0.0
C574 C 0.80137 0.71187 0.21569 0.0
C575 C 0.78171 0.71981 0.18882 0.0
H576 H 0.10027 0.41557 0.56578 0.0
C577 C 0.09767 0.43191 0.58892 0.0
H578 H 0.06824 0.45448 0.60816 0.0
H579 H 0.02282 0.40165 0.40986 0.0
H580 H 0.08372 0.43988 0.3947 0.0
H581 H 0.12663 0.47299 0.45072 0.0
H582 H 0.10925 0.4668 0.52204 0.0
C583 C 0.0706 0.4374 0.58592 0.0
C584 C 0.04409 0.42171 0.55132 0.0
C585 C 0.05433 0.42821 0.50941 0.0
C586 C 0.02906 0.41186 0.47678 0.0
C587 C 0.04056 0.41552 0.43554 0.0
C588 C 0.07548 0.4371 0.42645 0.0
C589 C 0.09966 0.45554 0.45799 0.0
C590 C 0.08936 0.45135 0.49898 0.0
H591 H 0.98567 0.43088 0.42874 0.0
C592 C 0.96512 0.40406 0.42627 0.0
H593 H 0.94502 0.3544 0.45004 0.0
H594 H 0.01574 0.40261 0.62765 0.0
H595 H 0.95432 0.36743 0.6424 0.0
H596 H 0.90985 0.34404 0.58592 0.0
H597 H 0.92645 0.35515 0.51442 0.0
C598 C 0.96592 0.38107 0.4518 0.0
C599 C 0.99306 0.39243 0.48574 0.0
C600 C 0.98276 0.38611 0.52757 0.0
C601 C 0.00835 0.40036 0.56029 0.0
C602 C -0.00261 0.39296 0.60166 0.0
C603 C 0.96221 0.37275 0.61059 0.0
C604 C 0.93718 0.35955 0.57878 0.0
C605 C 0.94714 0.36611 0.53776 0.0
H606 H 0.67116 0.5849 0.46652 0.0
C607 C 0.65183 0.58001 0.4423 0.0
H608 H 0.60808 0.58367 0.42401 0.0
H609 H 0.54361 0.57677 0.59545 0.0
H610 H 0.49906 0.52527 0.56006 0.0
H611 H 0.51034 0.50643 0.49293 0.0
H612 H 0.56602 0.5394 0.46051 0.0
C613 C 0.62741 0.58889 0.44838 0.0
C614 C 0.62199 0.60011 0.4899 0.0
C615 C 0.58957 0.57977 0.5092 0.0
C616 C 0.58356 0.58988 0.54869 0.0
C617 C 0.55025 0.56988 0.56619 0.0
C618 C 0.52423 0.54023 0.54609 0.0
C619 C 0.53054 0.52969 0.50827 0.0
C620 C 0.56271 0.54906 0.48991 0.0
H621 H 0.61111 0.67788 0.59342 0.0
C622 C 0.60146 0.65829 0.6168 0.0
H623 H 0.59303 0.60988 0.63437 0.0
H624 H 0.68525 0.64771 0.45958 0.0
H625 H 0.73122 0.69756 0.49674 0.0
H626 H 0.72318 0.71133 0.56844 0.0
H627 H 0.66871 0.6758 0.60299 0.0
C628 C 0.60324 0.62951 0.61103 0.0
C629 C 0.61043 0.61964 0.56967 0.0
C630 C 0.6431 0.6396 0.55079 0.0
C631 C 0.64849 0.63046 0.51031 0.0
C632 C 0.68039 0.65237 0.49101 0.0
C633 C 0.7069 0.68125 0.51188 0.0
C634 C 0.70232 0.68909 0.55218 0.0
C635 C 0.67084 0.66861 0.57156 0.0
H636 H 0.41602 0.97889 0.59553 0.0
C637 C 0.38891 0.95885 0.59831 0.0
H638 H 0.33732 0.93914 0.57545 0.0
H639 H 0.45241 0.10013 0.51261 0.0
H640 H 0.45556 0.1179 0.58425 0.0
H641 H 0.42029 0.07595 0.63666 0.0
H642 H 0.38238 0.01555 0.61757 0.0
C643 C 0.36442 0.9594 0.57383 0.0
C644 C 0.37517 0.98579 0.54115 0.0
C645 C 0.39503 0.02136 0.55201 0.0
C646 C 0.41364 0.04586 0.52127 0.0
C647 C 0.43618 0.0806 0.53398 0.0
C648 C 0.43847 0.09117 0.57521 0.0
C649 C 0.41874 0.06753 0.60476 0.0
C650 C 0.39731 0.03298 0.59348 0.0
H651 H 0.41579 0.09409 0.44961 0.0
C652 C 0.43317 0.08675 0.43512 0.0
H653 H 0.45056 0.05088 0.43201 0.0
H654 H 0.33413 0.92043 0.50889 0.0
H655 H 0.3255 0.90326 0.4363 0.0
H656 H 0.35462 0.94615 0.38244 0.0
H657 H 0.39291 0.00649 0.40094 0.0
C658 C 0.43363 0.05846 0.44724 0.0
C659 C 0.41022 0.03491 0.47916 0.0
C660 C 0.3869 -8e-05 0.46785 0.0
C661 C 0.36955 0.97528 0.49887 0.0
C662 C 0.3477 0.94031 0.48667 0.0
C663 C 0.34248 0.93008 0.44506 0.0
C664 C 0.3589 0.95422 0.41474 0.0
C665 C 0.38092 0.98874 0.4258 0.0
loop_
_geom_bond_atom_site_label_1
_geom_bond_atom_site_label_2
_geom_bond_distance
_geom_bond_site_symmetry_2
_ccdc_geom_bond_type
Co0 O1 2.216 1_554 S
Co0 O2 2.091 1_554 S
Co0 O4 2.004 1_454 S
Co0 O10 2.021 1_455 S
Co0 O12 2.137 1_554 S
Co0 O13 2.244 . S
O1 Co0 2.216 1_556 S
O1 C8 1.247 . S
O2 Co0 2.091 1_556 S
O2 C8 1.261 . S
C3 O12 1.247 1_554 S
C3 O13 1.272 . S
O4 Co0 2.004 1_656 S
O4 C9 1.259 1_556 S
Co5 O6 2.061 1_455 S
Co5 O11 2.052 . S
Co5 O13 2.135 . S
O6 Co5 2.061 1_655 S
O6 C9 1.235 . S
C7 O10 1.238 . S
C7 O11 1.241 1_655 S
C8 O1 1.247 . S
C8 O2 1.261 . S
C9 O4 1.259 1_554 S
C9 O6 1.235 . S
O10 Co0 2.021 1_655 S
O10 C7 1.238 . S
O11 Co5 2.052 . S
O11 C7 1.241 1_455 S
O12 Co0 2.137 1_556 S
O12 C3 1.247 1_556 S
O13 Co0 2.244 . S
O13 C3 1.272 . S
O13 Co5 2.135 . S
Co14 O15 2.216 . S
Co14 O16 2.091 . S
Co14 O18 2.004 . S
Co14 O24 2.021 . S
Co14 O26 2.137 . S
Co14 O27 2.244 1_554 S
O15 Co14 2.216 . S
O15 C22 1.247 . S
O16 Co14 2.091 . S
O16 C22 1.261 . S
C17 O26 1.247 . S
C17 O27 1.272 1_554 S
O18 Co14 2.004 . S
O18 C23 1.259 . S
Co19 O20 2.061 . S
Co19 O25 2.052 . S
Co19 O27 2.135 . S
O20 Co19 2.061 . S
O20 C23 1.235 1_556 S
C21 O24 1.238 1_556 S
C21 O25 1.241 . S
C22 O15 1.247 . S
C22 O16 1.261 . S
C23 O18 1.259 . S
C23 O20 1.235 1_554 S
O24 Co14 2.021 . S
O24 C21 1.238 1_554 S
O25 Co19 2.052 . S
O25 C21 1.241 . S
O26 Co14 2.137 . S
O26 C17 1.247 . S
O27 Co14 2.244 1_556 S
O27 C17 1.272 1_556 S
O27 Co19 2.135 . S
Co28 O29 2.216 1_544 S
Co28 O30 2.091 1_554 S
Co28 O32 2.004 1_554 S
Co28 O38 2.021 . S
Co28 O40 2.137 1_544 S
Co28 O41 2.244 1_545 S
O29 Co28 2.216 1_566 S
O29 C36 1.247 . S
O30 Co28 2.091 1_556 S
O30 C36 1.261 1_545 S
C31 O40 1.247 1_554 S
C31 O41 1.272 . S
O32 Co28 2.004 1_556 S
O32 C37 1.259 1_556 S
Co33 O34 2.061 . S
Co33 O39 2.052 . S
Co33 O41 2.135 1_545 S
O34 Co33 2.061 . S
O34 C37 1.235 . S
C35 O38 1.238 . S
C35 O39 1.241 . S
C36 O29 1.247 . S
C36 O30 1.261 1_565 S
C37 O32 1.259 1_554 S
C37 O34 1.235 . S
O38 Co28 2.021 . S
O38 C35 1.238 . S
O39 Co33 2.052 . S
O39 C35 1.241 . S
O40 Co28 2.137 1_566 S
O40 C31 1.247 1_556 S
O41 Co28 2.244 1_565 S
O41 C31 1.272 . S
O41 Co33 2.135 1_565 S
Co42 O43 2.216 . S
Co42 O44 2.091 . S
Co42 O46 2.004 . S
Co42 O52 2.021 . S
Co42 O54 2.137 . S
Co42 O55 2.244 . S
O43 Co42 2.216 . S
O43 C50 1.247 . S
O44 Co42 2.091 . S
O44 C50 1.261 . S
C45 O54 1.247 . S
C45 O55 1.272 . S
O46 Co42 2.004 . S
O46 C51 1.259 . S
Co47 O48 2.061 . S
Co47 O53 2.052 . S
Co47 O55 2.135 . S
O48 Co47 2.061 . S
O48 C51 1.235 . S
C49 O52 1.238 . S
C49 O53 1.241 . S
C50 O43 1.247 . S
C50 O44 1.261 . S
C51 O46 1.259 . S
C51 O48 1.235 . S
O52 Co42 2.021 . S
O52 C49 1.238 . S
O53 Co47 2.052 . S
O53 C49 1.241 . S
O54 Co42 2.137 . S
O54 C45 1.247 . S
O55 Co42 2.244 . S
O55 C45 1.272 . S
O55 Co47 2.135 . S
Co56 O57 2.216 . S
Co56 O58 2.091 . S
Co56 O60 2.004 . S
Co56 O66 2.021 . S
Co56 O68 2.137 . S
Co56 O69 2.244 . S
O57 Co56 2.216 . S
O57 C64 1.247 . S
O58 Co56 2.091 . S
O58 C64 1.261 . S
C59 O68 1.247 . S
C59 O69 1.272 . S
O60 Co56 2.004 . S
O60 C65 1.259 . S
Co61 O62 2.061 . S
Co61 O67 2.052 . S
Co61 O69 2.135 . S
O62 Co61 2.061 . S
O62 C65 1.235 . S
C63 O66 1.238 . S
C63 O67 1.241 . S
C64 O57 1.247 . S
C64 O58 1.261 . S
C65 O60 1.259 . S
C65 O62 1.235 . S
O66 Co56 2.021 . S
O66 C63 1.238 . S
O67 Co61 2.052 . S
O67 C63 1.241 . S
O68 Co56 2.137 . S
O68 C59 1.247 . S
O69 Co56 2.244 . S
O69 C59 1.272 . S
O69 Co61 2.135 . S
Co70 O71 2.216 . S
Co70 O72 2.091 . S
Co70 O74 2.004 . S
Co70 O80 2.021 . S
Co70 O82 2.137 . S
Co70 O83 2.244 . S
O71 Co70 2.216 . S
O71 C78 1.247 . S
O72 Co70 2.091 . S
O72 C78 1.261 . S
C73 O82 1.247 . S
C73 O83 1.272 . S
O74 Co70 2.004 . S
O74 C79 1.259 . S
Co75 O76 2.061 . S
Co75 O81 2.052 . S
Co75 O83 2.135 . S
O76 Co75 2.061 . S
O76 C79 1.235 . S
C77 O80 1.238 . S
C77 O81 1.241 . S
C78 O71 1.247 . S
C78 O72 1.261 . S
C79 O74 1.259 . S
C79 O76 1.235 . S
O80 Co70 2.021 . S
O80 C77 1.238 . S
O81 Co75 2.052 . S
O81 C77 1.241 . S
O82 Co70 2.137 . S
O82 C73 1.247 . S
O83 Co70 2.244 . S
O83 C73 1.272 . S
O83 Co75 2.135 . S
Co84 O85 2.216 . S
Co84 O86 2.091 . S
Co84 O88 2.004 . S
Co84 O94 2.021 . S
Co84 O96 2.137 . S
Co84 O97 2.244 . S
O85 Co84 2.216 . S
O85 C92 1.247 . S
O86 Co84 2.091 . S
O86 C92 1.261 . S
C87 O96 1.247 . S
C87 O97 1.272 . S
O88 Co84 2.004 . S
O88 C93 1.259 . S
Co89 O90 2.061 . S
Co89 O95 2.052 . S
Co89 O97 2.135 . S
O90 Co89 2.061 . S
O90 C93 1.235 . S
C91 O94 1.238 . S
C91 O95 1.241 . S
C92 O85 1.247 . S
C92 O86 1.261 . S
C93 O88 1.259 . S
C93 O90 1.235 . S
O94 Co84 2.021 . S
O94 C91 1.238 . S
O95 Co89 2.052 . S
O95 C91 1.241 . S
O96 Co84 2.137 . S
O96 C87 1.247 . S
O97 Co84 2.244 . S
O97 C87 1.272 . S
O97 Co89 2.135 . S
Co98 O99 2.216 . S
Co98 O100 2.091 . S
Co98 O102 2.004 . S
Co98 O108 2.021 . S
Co98 O110 2.137 . S
Co98 O111 2.244 . S
O99 Co98 2.216 . S
O99 C106 1.247 . S
O100 Co98 2.091 . S
O100 C106 1.261 . S
C101 O110 1.247 . S
C101 O111 1.272 . S
O102 Co98 2.004 . S
O102 C107 1.259 . S
Co103 O104 2.061 . S
Co103 O109 2.052 . S
Co103 O111 2.135 . S
O104 Co103 2.061 . S
O104 C107 1.235 . S
C105 O108 1.238 . S
C105 O109 1.241 . S
C106 O99 1.247 . S
C106 O100 1.261 . S
C107 O102 1.259 . S
C107 O104 1.235 . S
O108 Co98 2.021 . S
O108 C105 1.238 . S
O109 Co103 2.052 . S
O109 C105 1.241 . S
O110 Co98 2.137 . S
O110 C101 1.247 . S
O111 Co98 2.244 . S
O111 C101 1.272 . S
O111 Co103 2.135 . S
Co112 O113 2.216 . S
Co112 O114 2.091 . S
Co112 O116 2.004 . S
Co112 O122 2.021 . S
Co112 O124 2.137 . S
Co112 O125 2.244 . S
O113 Co112 2.216 . S
O113 C120 1.247 . S
O114 Co112 2.091 . S
O114 C120 1.261 . S
C115 O124 1.247 . S
C115 O125 1.272 . S
O116 Co112 2.004 . S
O116 C121 1.259 . S
Co117 O118 2.061 . S
Co117 O123 2.052 . S
Co117 O125 2.135 . S
O118 Co117 2.061 . S
O118 C121 1.235 . S
C119 O122 1.238 . S
C119 O123 1.241 . S
C120 O113 1.247 . S
C120 O114 1.261 . S
C121 O116 1.259 . S
C121 O118 1.235 . S
O122 Co112 2.021 . S
O122 C119 1.238 . S
O123 Co117 2.052 . S
O123 C119 1.241 . S
O124 Co112 2.137 . S
O124 C115 1.247 . S
O125 Co112 2.244 . S
O125 C115 1.272 . S
O125 Co117 2.135 . S
H126 C127 0.951 1_556 S
C127 H126 0.951 1_554 S
C127 C133 1.265 . S
H128 C133 0.950 . S
H129 C137 0.949 . S
H130 C138 0.950 . S
H131 C139 0.951 . S
H132 C140 0.951 . S
C133 C127 1.265 . S
C133 H128 0.950 . S
C133 C134 1.478 . S
C134 C133 1.478 . S
C134 C135 1.397 . S
C134 C151 1.394 . S
C135 C134 1.397 . S
C135 C136 1.438 . S
C135 C140 1.429 . S
C136 C135 1.438 . S
C136 C137 1.428 1_554 S
C136 C149 1.394 . S
C137 H129 0.949 . S
C137 C136 1.428 1_556 S
C137 C138 1.345 . S
C138 H130 0.950 . S
C138 C137 1.345 . S
C138 C139 1.424 . S
C139 H131 0.951 . S
C139 C138 1.424 . S
C139 C140 1.347 1_556 S
C140 H132 0.951 . S
C140 C135 1.429 . S
C140 C139 1.347 1_554 S
H141 C142 0.951 . S
C142 H141 0.951 . S
C142 C148 1.265 . S
H143 C148 0.950 1_556 S
H144 C152 0.949 . S
H145 C153 0.950 . S
H146 C154 0.951 . S
H147 C155 0.951 . S
C148 C142 1.265 . S
C148 H143 0.950 1_554 S
C148 C149 1.478 . S
C149 C136 1.394 . S
C149 C148 1.478 . S
C149 C150 1.397 . S
C150 C149 1.397 . S
C150 C151 1.438 . S
C150 C155 1.429 . S
C151 C134 1.394 . S
C151 C150 1.438 . S
C151 C152 1.428 . S
C152 H144 0.949 . S
C152 C151 1.428 . S
C152 C153 1.345 . S
C153 H145 0.950 . S
C153 C152 1.345 . S
C153 C154 1.424 . S
C154 H146 0.951 . S
C154 C153 1.424 . S
C154 C155 1.347 . S
C155 H147 0.951 . S
C155 C150 1.429 . S
C155 C154 1.347 . S
H156 C157 0.951 . S
C157 H156 0.951 . S
C157 C163 1.265 . S
H158 C163 0.950 . S
H159 C167 0.949 . S
H160 C168 0.950 . S
H161 C169 0.946 1_565 S
H162 C170 0.951 . S
C163 C157 1.265 . S
C163 H158 0.950 . S
C163 C164 1.478 . S
C164 C163 1.478 . S
C164 C165 1.410 . S
C164 C181 1.394 1_554 S
C165 C164 1.410 . S
C165 C166 1.422 1_565 S
C165 C170 1.432 . S
C166 C165 1.422 1_545 S
C166 C167 1.428 . S
C166 C179 1.394 . S
C167 H159 0.949 . S
C167 C166 1.428 . S
C167 C168 1.345 . S
C168 H160 0.950 . S
C168 C167 1.345 . S
C168 C169 1.424 . S
C169 H161 0.946 1_545 S
C169 C168 1.424 . S
C169 C170 1.347 1_545 S
C170 H162 0.951 . S
C170 C165 1.432 . S
C170 C169 1.347 1_565 S
H171 C172 0.951 . S
C172 H171 0.951 . S
C172 C178 1.265 . S
H173 C178 0.950 . S
H174 C182 0.949 . S
H175 C183 0.950 . S
H176 C184 0.951 . S
H177 C185 0.951 . S
C178 C172 1.265 . S
C178 H173 0.950 . S
C178 C179 1.478 . S
C179 C166 1.394 . S
C179 C178 1.478 . S
C179 C180 1.397 1_554 S
C180 C179 1.397 1_556 S
C180 C181 1.438 1_545 S
C180 C185 1.429 . S
C181 C164 1.394 1_556 S
C181 C180 1.438 1_565 S
C181 C182 1.428 . S
C182 H174 0.949 . S
C182 C181 1.428 . S
C182 C183 1.345 . S
C183 H175 0.950 . S
C183 C182 1.345 . S
C183 C184 1.424 1_565 S
C184 H176 0.951 . S
C184 C183 1.424 1_545 S
C184 C185 1.347 . S
C185 H177 0.951 . S
C185 C180 1.429 . S
C185 C184 1.347 . S
H186 C187 0.951 . S
C187 H186 0.951 . S
C187 C193 1.265 . S
H188 C193 0.950 . S
H189 C197 0.949 . S
H190 C198 0.950 . S
H191 C199 0.951 1_655 S
H192 C200 0.951 . S
C193 C187 1.265 . S
C193 H188 0.950 . S
C193 C194 1.478 . S
C194 C193 1.478 . S
C194 C195 1.397 . S
C194 C211 1.394 1_554 S
C195 C194 1.397 . S
C195 C196 1.438 1_655 S
C195 C200 1.429 . S
C196 C195 1.438 1_455 S
C196 C197 1.428 . S
C196 C209 1.394 . S
C197 H189 0.949 . S
C197 C196 1.428 . S
C197 C198 1.345 . S
C198 H190 0.950 . S
C198 C197 1.345 . S
C198 C199 1.424 . S
C199 H191 0.951 1_455 S
C199 C198 1.424 . S
C199 C200 1.347 1_455 S
C200 H192 0.951 . S
C200 C195 1.429 . S
C200 C199 1.347 1_655 S
H201 C202 0.951 . S
C202 H201 0.951 . S
C202 C208 1.265 . S
H203 C208 0.950 . S
H204 C212 0.949 . S
H205 C213 0.950 . S
H206 C214 0.951 . S
H207 C215 0.951 . S
C208 C202 1.265 . S
C208 H203 0.950 . S
C208 C209 1.478 . S
C209 C196 1.394 . S
C209 C208 1.478 . S
C209 C210 1.397 1_554 S
C210 C209 1.397 1_556 S
C210 C211 1.438 1_455 S
C210 C215 1.429 . S
C211 C194 1.394 1_556 S
C211 C210 1.438 1_655 S
C211 C212 1.428 . S
C212 H204 0.949 . S
C212 C211 1.428 . S
C212 C213 1.345 . S
C213 H205 0.950 . S
C213 C212 1.345 . S
C213 C214 1.424 1_655 S
C214 H206 0.951 . S
C214 C213 1.424 1_455 S
C214 C215 1.347 . S
C215 H207 0.951 . S
C215 C210 1.429 . S
C215 C214 1.347 . S
H216 C217 0.951 . S
C217 H216 0.951 . S
C217 C223 1.265 . S
H218 C223 0.950 . S
H219 C227 0.949 . S
H220 C228 0.950 . S
H221 C229 0.951 . S
H222 C230 0.951 . S
C223 C217 1.265 . S
C223 H218 0.950 . S
C223 C224 1.478 . S
C224 C223 1.478 . S
C224 C225 1.397 . S
C224 C241 1.394 . S
C225 C224 1.397 . S
C225 C226 1.438 . S
C225 C230 1.429 . S
C226 C225 1.438 . S
C226 C227 1.428 . S
C226 C239 1.394 . S
C227 H219 0.949 . S
C227 C226 1.428 . S
C227 C228 1.345 . S
C228 H220 0.950 . S
C228 C227 1.345 . S
C228 C229 1.424 . S
C229 H221 0.951 . S
C229 C228 1.424 . S
C229 C230 1.347 . S
C230 H222 0.951 . S
C230 C225 1.429 . S
C230 C229 1.347 . S
H231 C232 0.951 . S
C232 H231 0.951 . S
C232 C238 1.265 . S
H233 C238 0.950 . S
H234 C242 0.949 . S
H235 C243 0.950 . S
H236 C244 0.951 . S
H237 C245 0.951 . S
C238 C232 1.265 . S
C238 H233 0.950 . S
C238 C239 1.478 . S
C239 C226 1.394 . S
C239 C238 1.478 . S
C239 C240 1.397 . S
C240 C239 1.397 . S
C240 C241 1.438 . S
C240 C245 1.429 . S
C241 C224 1.394 . S
C241 C240 1.438 . S
C241 C242 1.428 . S
C242 H234 0.949 . S
C242 C241 1.428 . S
C242 C243 1.345 . S
C243 H235 0.950 . S
C243 C242 1.345 . S
C243 C244 1.424 . S
C244 H236 0.951 . S
C244 C243 1.424 . S
C244 C245 1.347 . S
C245 H237 0.951 . S
C245 C240 1.429 . S
C245 C244 1.347 . S
H246 C247 0.951 . S
C247 H246 0.951 . S
C247 C253 1.265 . S
H248 C253 0.950 . S
H249 C257 0.949 . S
H250 C258 0.950 . S
H251 C259 0.951 . S
H252 C260 0.951 . S
C253 C247 1.265 . S
C253 H248 0.950 . S
C253 C254 1.478 . S
C254 C253 1.478 . S
C254 C255 1.397 . S
C254 C271 1.394 . S
C255 C254 1.397 . S
C255 C256 1.438 . S
C255 C260 1.429 . S
C256 C255 1.438 . S
C256 C257 1.428 . S
C256 C269 1.394 . S
C257 H249 0.949 . S
C257 C256 1.428 . S
C257 C258 1.345 . S
C258 H250 0.950 . S
C258 C257 1.345 . S
C258 C259 1.424 . S
C259 H251 0.951 . S
C259 C258 1.424 . S
C259 C260 1.347 . S
C260 H252 0.951 . S
C260 C255 1.429 . S
C260 C259 1.347 . S
H261 C262 0.951 . S
C262 H261 0.951 . S
C262 C268 1.265 . S
H263 C268 0.950 . S
H264 C272 0.949 . S
H265 C273 0.950 . S
H266 C274 0.951 . S
H267 C275 0.951 . S
C268 C262 1.265 . S
C268 H263 0.950 . S
C268 C269 1.478 . S
C269 C256 1.394 . S
C269 C268 1.478 . S
C269 C270 1.397 . S
C270 C269 1.397 . S
C270 C271 1.438 . S
C270 C275 1.429 . S
C271 C254 1.394 . S
C271 C270 1.438 . S
C271 C272 1.428 . S
C272 H264 0.949 . S
C272 C271 1.428 . S
C272 C273 1.345 . S
C273 H265 0.950 . S
C273 C272 1.345 . S
C273 C274 1.424 . S
C274 H266 0.951 . S
C274 C273 1.424 . S
C274 C275 1.347 . S
C275 H267 0.951 . S
C275 C270 1.429 . S
C275 C274 1.347 . S
H276 C277 0.951 . S
C277 H276 0.951 . S
C277 C283 1.265 . S
H278 C283 0.950 . S
H279 C287 0.949 . S
H280 C288 0.950 . S
H281 C289 0.951 . S
H282 C290 0.951 . S
C283 C277 1.265 . S
C283 H278 0.950 . S
C283 C284 1.478 . S
C284 C283 1.478 . S
C284 C285 1.397 . S
C284 C301 1.394 . S
C285 C284 1.397 . S
C285 C286 1.438 . S
C285 C290 1.429 . S
C286 C285 1.438 . S
C286 C287 1.428 . S
C286 C299 1.394 . S
C287 H279 0.949 . S
C287 C286 1.428 . S
C287 C288 1.345 . S
C288 H280 0.950 . S
C288 C287 1.345 . S
C288 C289 1.424 . S
C289 H281 0.951 . S
C289 C288 1.424 . S
C289 C290 1.347 . S
C290 H282 0.951 . S
C290 C285 1.429 . S
C290 C289 1.347 . S
H291 C292 0.951 . S
C292 H291 0.951 . S
C292 C298 1.265 . S
H293 C298 0.950 . S
H294 C302 0.949 . S
H295 C303 0.950 . S
H296 C304 0.951 . S
H297 C305 0.951 . S
C298 C292 1.265 . S
C298 H293 0.950 . S
C298 C299 1.478 . S
C299 C286 1.394 . S
C299 C298 1.478 . S
C299 C300 1.397 . S
C300 C299 1.397 . S
C300 C301 1.438 . S
C300 C305 1.429 . S
C301 C284 1.394 . S
C301 C300 1.438 . S
C301 C302 1.428 . S
C302 H294 0.949 . S
C302 C301 1.428 . S
C302 C303 1.345 . S
C303 H295 0.950 . S
C303 C302 1.345 . S
C303 C304 1.424 . S
C304 H296 0.951 . S
C304 C303 1.424 . S
C304 C305 1.347 . S
C305 H297 0.951 . S
C305 C300 1.429 . S
C305 C304 1.347 . S
H306 C307 0.951 . S
C307 H306 0.951 . S
C307 C313 1.265 . S
H308 C313 0.950 . S
H309 C317 0.949 . S
H310 C318 0.950 . S
H311 C319 0.951 . S
H312 C320 0.951 . S
C313 C307 1.265 . S
C313 H308 0.950 . S
C313 C314 1.478 . S
C314 C313 1.478 . S
C314 C315 1.397 . S
C314 C331 1.394 . S
C315 C314 1.397 . S
C315 C316 1.438 . S
C315 C320 1.429 . S
C316 C315 1.438 . S
C316 C317 1.428 . S
C316 C329 1.394 . S
C317 H309 0.949 . S
C317 C316 1.428 . S
C317 C318 1.345 . S
C318 H310 0.950 . S
C318 C317 1.345 . S
C318 C319 1.424 . S
C319 H311 0.951 . S
C319 C318 1.424 . S
C319 C320 1.347 . S
C320 H312 0.951 . S
C320 C315 1.429 . S
C320 C319 1.347 . S
H321 C322 0.951 . S
C322 H321 0.951 . S
C322 C328 1.265 . S
H323 C328 0.950 . S
H324 C332 0.949 . S
H325 C333 0.950 . S
H326 C334 0.951 . S
H327 C335 0.951 . S
C328 C322 1.265 . S
C328 H323 0.950 . S
C328 C329 1.478 . S
C329 C316 1.394 . S
C329 C328 1.478 . S
C329 C330 1.397 . S
C330 C329 1.397 . S
C330 C331 1.438 . S
C330 C335 1.429 . S
C331 C314 1.394 . S
C331 C330 1.438 . S
C331 C332 1.428 . S
C332 H324 0.949 . S
C332 C331 1.428 . S
C332 C333 1.345 . S
C333 H325 0.950 . S
C333 C332 1.345 . S
C333 C334 1.424 . S
C334 H326 0.951 . S
C334 C333 1.424 . S
C334 C335 1.347 . S
C335 H327 0.951 . S
C335 C330 1.429 . S
C335 C334 1.347 . S
H336 C337 0.951 . S
C337 H336 0.951 . S
C337 C343 1.265 . S
H338 C343 0.950 . S
H339 C347 0.949 . S
H340 C348 0.950 . S
H341 C349 0.951 . S
H342 C350 0.951 . S
C343 C337 1.265 . S
C343 H338 0.950 . S
C343 C344 1.478 . S
C344 C343 1.478 . S
C344 C345 1.397 . S
C344 C361 1.394 . S
C345 C344 1.397 . S
C345 C346 1.438 . S
C345 C350 1.429 . S
C346 C345 1.438 . S
C346 C347 1.428 . S
C346 C359 1.394 . S
C347 H339 0.949 . S
C347 C346 1.428 . S
C347 C348 1.345 . S
C348 H340 0.950 . S
C348 C347 1.345 . S
C348 C349 1.424 . S
C349 H341 0.951 . S
C349 C348 1.424 . S
C349 C350 1.347 . S
C350 H342 0.951 . S
C350 C345 1.429 . S
C350 C349 1.347 . S
H351 C352 0.951 . S
C352 H351 0.951 . S
C352 C358 1.265 . S
H353 C358 0.950 . S
H354 C362 0.949 . S
H355 C363 0.950 . S
H356 C364 0.951 . S
H357 C365 0.951 . S
C358 C352 1.265 . S
C358 H353 0.950 . S
C358 C359 1.478 . S
C359 C346 1.394 . S
C359 C358 1.478 . S
C359 C360 1.397 . S
C360 C359 1.397 . S
C360 C361 1.438 . S
C360 C365 1.429 . S
C361 C344 1.394 . S
C361 C360 1.438 . S
C361 C362 1.428 . S
C362 H354 0.949 . S
C362 C361 1.428 . S
C362 C363 1.345 . S
C363 H355 0.950 . S
C363 C362 1.345 . S
C363 C364 1.424 . S
C364 H356 0.951 . S
C364 C363 1.424 . S
C364 C365 1.347 . S
C365 H357 0.951 . S
C365 C360 1.429 . S
C365 C364 1.347 . S
H366 C367 0.951 . S
C367 H366 0.951 . S
C367 C373 1.265 . S
H368 C373 0.950 . S
H369 C377 0.949 . S
H370 C378 0.950 . S
H371 C379 0.951 . S
H372 C380 0.951 . S
C373 C367 1.265 . S
C373 H368 0.950 . S
C373 C374 1.478 . S
C374 C373 1.478 . S
C374 C375 1.397 . S
C374 C391 1.394 . S
C375 C374 1.397 . S
C375 C376 1.438 . S
C375 C380 1.429 . S
C376 C375 1.438 . S
C376 C377 1.428 . S
C376 C389 1.394 . S
C377 H369 0.949 . S
C377 C376 1.428 . S
C377 C378 1.345 . S
C378 H370 0.950 . S
C378 C377 1.345 . S
C378 C379 1.424 . S
C379 H371 0.951 . S
C379 C378 1.424 . S
C379 C380 1.347 . S
C380 H372 0.951 . S
C380 C375 1.429 . S
C380 C379 1.347 . S
H381 C382 0.951 . S
C382 H381 0.951 . S
C382 C388 1.265 . S
H383 C388 0.950 . S
H384 C392 0.949 . S
H385 C393 0.950 . S
H386 C394 0.951 . S
H387 C395 0.951 . S
C388 C382 1.265 . S
C388 H383 0.950 . S
C388 C389 1.478 . S
C389 C376 1.394 . S
C389 C388 1.478 . S
C389 C390 1.397 . S
C390 C389 1.397 . S
C390 C391 1.438 . S
C390 C395 1.429 . S
C391 C374 1.394 . S
C391 C390 1.438 . S
C391 C392 1.428 . S
C392 H384 0.949 . S
C392 C391 1.428 . S
C392 C393 1.345 . S
C393 H385 0.950 . S
C393 C392 1.345 . S
C393 C394 1.424 . S
C394 H386 0.951 . S
C394 C393 1.424 . S
C394 C395 1.347 . S
C395 H387 0.951 . S
C395 C390 1.429 . S
C395 C394 1.347 . S
H396 C397 0.951 . S
C397 H396 0.951 . S
C397 C403 1.265 . S
H398 C403 0.950 . S
H399 C407 0.949 . S
H400 C408 0.950 . S
H401 C409 0.951 . S
H402 C410 0.951 . S
C403 C397 1.265 . S
C403 H398 0.950 . S
C403 C404 1.478 . S
C404 C403 1.478 . S
C404 C405 1.397 . S
C404 C421 1.394 . S
C405 C404 1.397 . S
C405 C406 1.438 . S
C405 C410 1.429 . S
C406 C405 1.438 . S
C406 C407 1.428 . S
C406 C419 1.394 . S
C407 H399 0.949 . S
C407 C406 1.428 . S
C407 C408 1.345 . S
C408 H400 0.950 . S
C408 C407 1.345 . S
C408 C409 1.424 . S
C409 H401 0.951 . S
C409 C408 1.424 . S
C409 C410 1.347 . S
C410 H402 0.951 . S
C410 C405 1.429 . S
C410 C409 1.347 . S
H411 C412 0.951 . S
C412 H411 0.951 . S
C412 C418 1.265 . S
H413 C418 0.950 . S
H414 C422 0.949 . S
H415 C423 0.950 . S
H416 C424 0.951 . S
H417 C425 0.951 . S
C418 C412 1.265 . S
C418 H413 0.950 . S
C418 C419 1.478 . S
C419 C406 1.394 . S
C419 C418 1.478 . S
C419 C420 1.397 . S
C420 C419 1.397 . S
C420 C421 1.438 . S
C420 C425 1.429 . S
C421 C404 1.394 . S
C421 C420 1.438 . S
C421 C422 1.428 . S
C422 H414 0.949 . S
C422 C421 1.428 . S
C422 C423 1.345 . S
C423 H415 0.950 . S
C423 C422 1.345 . S
C423 C424 1.424 . S
C424 H416 0.951 . S
C424 C423 1.424 . S
C424 C425 1.347 . S
C425 H417 0.951 . S
C425 C420 1.429 . S
C425 C424 1.347 . S
H426 C427 0.951 . S
C427 H426 0.951 . S
C427 C433 1.265 . S
H428 C433 0.950 . S
H429 C437 0.949 . S
H430 C438 0.950 . S
H431 C439 0.951 . S
H432 C440 0.951 . S
C433 C427 1.265 . S
C433 H428 0.950 . S
C433 C434 1.478 . S
C434 C433 1.478 . S
C434 C435 1.397 . S
C434 C451 1.394 . S
C435 C434 1.397 . S
C435 C436 1.438 . S
C435 C440 1.429 . S
C436 C435 1.438 . S
C436 C437 1.428 . S
C436 C449 1.394 . S
C437 H429 0.949 . S
C437 C436 1.428 . S
C437 C438 1.345 . S
C438 H430 0.950 . S
C438 C437 1.345 . S
C438 C439 1.424 . S
C439 H431 0.951 . S
C439 C438 1.424 . S
C439 C440 1.347 . S
C440 H432 0.951 . S
C440 C435 1.429 . S
C440 C439 1.347 . S
H441 C442 0.951 . S
C442 H441 0.951 . S
C442 C448 1.265 . S
H443 C448 0.950 . S
H444 C452 0.949 . S
H445 C453 0.950 . S
H446 C454 0.951 . S
H447 C455 0.951 . S
C448 C442 1.265 . S
C448 H443 0.950 . S
C448 C449 1.478 . S
C449 C436 1.394 . S
C449 C448 1.478 . S
C449 C450 1.397 . S
C450 C449 1.397 . S
C450 C451 1.438 . S
C450 C455 1.429 . S
C451 C434 1.394 . S
C451 C450 1.438 . S
C451 C452 1.428 . S
C452 H444 0.949 . S
C452 C451 1.428 . S
C452 C453 1.345 . S
C453 H445 0.950 . S
C453 C452 1.345 . S
C453 C454 1.424 . S
C454 H446 0.951 . S
C454 C453 1.424 . S
C454 C455 1.347 . S
C455 H447 0.951 . S
C455 C450 1.429 . S
C455 C454 1.347 . S
H456 C457 0.951 . S
C457 H456 0.951 . S
C457 C463 1.265 . S
H458 C463 0.950 . S
H459 C467 0.949 . S
H460 C468 0.950 . S
H461 C469 0.951 . S
H462 C470 0.951 . S
C463 C457 1.265 . S
C463 H458 0.950 . S
C463 C464 1.478 . S
C464 C463 1.478 . S
C464 C465 1.397 . S
C464 C481 1.394 . S
C465 C464 1.397 . S
C465 C466 1.438 . S
C465 C470 1.429 . S
C466 C465 1.438 . S
C466 C467 1.428 . S
C466 C479 1.394 . S
C467 H459 0.949 . S
C467 C466 1.428 . S
C467 C468 1.345 . S
C468 H460 0.950 . S
C468 C467 1.345 . S
C468 C469 1.424 . S
C469 H461 0.951 . S
C469 C468 1.424 . S
C469 C470 1.347 . S
C470 H462 0.951 . S
C470 C465 1.429 . S
C470 C469 1.347 . S
H471 C472 0.951 . S
C472 H471 0.951 . S
C472 C478 1.265 . S
H473 C478 0.950 1_545 S
H474 C482 0.949 . S
H475 C483 0.950 1_545 S
H476 C484 0.951 . S
H477 C485 0.951 . S
C478 C472 1.265 . S
C478 H473 0.950 1_565 S
C478 C479 1.478 . S
C479 C466 1.394 . S
C479 C478 1.478 . S
C479 C480 1.397 . S
C480 C479 1.397 . S
C480 C481 1.438 . S
C480 C485 1.429 1_565 S
C481 C464 1.394 . S
C481 C480 1.438 . S
C481 C482 1.428 . S
C482 H474 0.949 . S
C482 C481 1.428 . S
C482 C483 1.345 . S
C483 H475 0.950 1_565 S
C483 C482 1.345 . S
C483 C484 1.424 1_565 S
C484 H476 0.951 . S
C484 C483 1.424 1_545 S
C484 C485 1.347 . S
C485 H477 0.951 . S
C485 C480 1.429 1_545 S
C485 C484 1.347 . S
H486 C487 0.951 . S
C487 H486 0.951 . S
C487 C493 1.265 . S
H488 C493 0.950 . S
H489 C497 0.949 . S
H490 C498 0.950 . S
H491 C499 0.951 1_565 S
H492 C500 0.951 . S
C493 C487 1.265 . S
C493 H488 0.950 . S
C493 C494 1.478 . S
C494 C493 1.478 . S
C494 C495 1.397 . S
C494 C511 1.394 . S
C495 C494 1.397 . S
C495 C496 1.438 . S
C495 C500 1.429 . S
C496 C495 1.438 . S
C496 C497 1.428 . S
C496 C509 1.394 . S
C497 H489 0.949 . S
C497 C496 1.428 . S
C497 C498 1.345 1_545 S
C498 H490 0.950 . S
C498 C497 1.345 1_565 S
C498 C499 1.424 1_565 S
C499 H491 0.951 1_545 S
C499 C498 1.424 1_545 S
C499 C500 1.347 . S
C500 H492 0.951 . S
C500 C495 1.429 . S
C500 C499 1.347 . S
H501 C502 0.951 . S
C502 H501 0.951 . S
C502 C508 1.265 . S
H503 C508 0.950 . S
H504 C512 0.949 . S
H505 C513 0.950 . S
H506 C514 0.951 . S
H507 C515 0.951 . S
C508 C502 1.265 . S
C508 H503 0.950 . S
C508 C509 1.478 . S
C509 C496 1.394 . S
C509 C508 1.478 . S
C509 C510 1.397 . S
C510 C509 1.397 . S
C510 C511 1.438 . S
C510 C515 1.429 . S
C511 C494 1.394 . S
C511 C510 1.438 . S
C511 C512 1.428 . S
C512 H504 0.949 . S
C512 C511 1.428 . S
C512 C513 1.345 . S
C513 H505 0.950 . S
C513 C512 1.345 . S
C513 C514 1.424 . S
C514 H506 0.951 . S
C514 C513 1.424 . S
C514 C515 1.347 . S
C515 H507 0.951 . S
C515 C510 1.429 . S
C515 C514 1.347 . S
H516 C517 0.943 1_455 S
C517 H516 0.943 1_655 S
C517 C523 1.265 . S
H518 C523 0.950 . S
H519 C527 0.949 . S
H520 C528 0.950 . S
H521 C529 0.951 . S
H522 C530 0.951 . S
C523 C517 1.265 . S
C523 H518 0.950 . S
C523 C524 1.478 . S
C524 C523 1.478 . S
C524 C525 1.397 . S
C524 C541 1.394 . S
C525 C524 1.397 . S
C525 C526 1.438 . S
C525 C530 1.429 . S
C526 C525 1.438 . S
C526 C527 1.428 . S
C526 C539 1.394 . S
C527 H519 0.949 . S
C527 C526 1.428 . S
C527 C528 1.345 . S
C528 H520 0.950 . S
C528 C527 1.345 . S
C528 C529 1.424 . S
C529 H521 0.951 . S
C529 C528 1.424 . S
C529 C530 1.347 . S
C530 H522 0.951 . S
C530 C525 1.429 . S
C530 C529 1.347 . S
H531 C532 0.951 . S
C532 H531 0.951 . S
C532 C538 1.265 . S
H533 C538 0.950 . S
H534 C542 0.949 . S
H535 C543 0.950 . S
H536 C544 0.951 . S
H537 C545 0.951 . S
C538 C532 1.265 . S
C538 H533 0.950 . S
C538 C539 1.478 . S
C539 C526 1.394 . S
C539 C538 1.478 . S
C539 C540 1.397 . S
C540 C539 1.397 . S
C540 C541 1.438 . S
C540 C545 1.429 . S
C541 C524 1.394 . S
C541 C540 1.438 . S
C541 C542 1.428 1_655 S
C542 H534 0.949 . S
C542 C541 1.428 1_455 S
C542 C543 1.345 . S
C543 H535 0.950 . S
C543 C542 1.345 . S
C543 C544 1.424 . S
C544 H536 0.951 . S
C544 C543 1.424 . S
C544 C545 1.347 1_455 S
C545 H537 0.951 . S
C545 C540 1.429 . S
C545 C544 1.347 1_655 S
H546 C547 0.951 . S
C547 H546 0.951 . S
C547 C553 1.265 . S
H548 C553 0.950 . S
H549 C557 0.949 . S
H550 C558 0.950 . S
H551 C559 0.951 . S
H552 C560 0.951 . S
C553 C547 1.265 . S
C553 H548 0.950 . S
C553 C554 1.478 . S
C554 C553 1.478 . S
C554 C555 1.397 . S
C554 C571 1.394 . S
C555 C554 1.397 . S
C555 C556 1.438 . S
C555 C560 1.429 . S
C556 C555 1.438 . S
C556 C557 1.428 . S
C556 C569 1.394 . S
C557 H549 0.949 . S
C557 C556 1.428 . S
C557 C558 1.345 . S
C558 H550 0.950 . S
C558 C557 1.345 . S
C558 C559 1.424 . S
C559 H551 0.951 . S
C559 C558 1.424 . S
C559 C560 1.347 . S
C560 H552 0.951 . S
C560 C555 1.429 . S
C560 C559 1.347 . S
H561 C562 0.951 . S
C562 H561 0.951 . S
C562 C568 1.265 . S
H563 C568 0.950 . S
H564 C572 0.949 . S
H565 C573 0.950 . S
H566 C574 0.951 . S
H567 C575 0.951 . S
C568 C562 1.265 . S
C568 H563 0.950 . S
C568 C569 1.478 . S
C569 C556 1.394 . S
C569 C568 1.478 . S
C569 C570 1.397 . S
C570 C569 1.397 . S
C570 C571 1.438 . S
C570 C575 1.429 . S
C571 C554 1.394 . S
C571 C570 1.438 . S
C571 C572 1.428 . S
C572 H564 0.949 . S
C572 C571 1.428 . S
C572 C573 1.345 . S
C573 H565 0.950 . S
C573 C572 1.345 . S
C573 C574 1.424 . S
C574 H566 0.951 . S
C574 C573 1.424 . S
C574 C575 1.347 . S
C575 H567 0.951 . S
C575 C570 1.429 . S
C575 C574 1.347 . S
H576 C577 0.951 . S
C577 H576 0.951 . S
C577 C583 1.265 . S
H578 C583 0.950 . S
H579 C587 0.949 . S
H580 C588 0.950 . S
H581 C589 0.951 . S
H582 C590 0.951 . S
C583 C577 1.265 . S
C583 H578 0.950 . S
C583 C584 1.478 . S
C584 C583 1.478 . S
C584 C585 1.397 . S
C584 C601 1.394 . S
C585 C584 1.397 . S
C585 C586 1.438 . S
C585 C590 1.429 . S
C586 C585 1.438 . S
C586 C587 1.428 . S
C586 C599 1.394 1_455 S
C587 H579 0.949 . S
C587 C586 1.428 . S
C587 C588 1.345 . S
C588 H580 0.950 . S
C588 C587 1.345 . S
C588 C589 1.424 . S
C589 H581 0.951 . S
C589 C588 1.424 . S
C589 C590 1.347 . S
C590 H582 0.951 . S
C590 C585 1.429 . S
C590 C589 1.347 . S
H591 C592 0.951 . S
C592 H591 0.951 . S
C592 C598 1.265 . S
H593 C598 0.950 . S
H594 C602 0.949 . S
H595 C603 0.950 . S
H596 C604 0.951 . S
H597 C605 0.951 . S
C598 C592 1.265 . S
C598 H593 0.950 . S
C598 C599 1.478 . S
C599 C586 1.394 1_655 S
C599 C598 1.478 . S
C599 C600 1.397 . S
C600 C599 1.397 . S
C600 C601 1.438 1_655 S
C600 C605 1.429 . S
C601 C584 1.394 . S
C601 C600 1.438 1_455 S
C601 C602 1.428 . S
C602 H594 0.949 . S
C602 C601 1.428 . S
C602 C603 1.345 1_455 S
C603 H595 0.950 . S
C603 C602 1.345 1_655 S
C603 C604 1.424 . S
C604 H596 0.951 . S
C604 C603 1.424 . S
C604 C605 1.347 . S
C605 H597 0.951 . S
C605 C600 1.429 . S
C605 C604 1.347 . S
H606 C607 0.951 . S
C607 H606 0.951 . S
C607 C613 1.265 . S
H608 C613 0.950 . S
H609 C617 0.949 . S
H610 C618 0.950 . S
H611 C619 0.951 . S
H612 C620 0.951 . S
C613 C607 1.265 . S
C613 H608 0.950 . S
C613 C614 1.478 . S
C614 C613 1.478 . S
C614 C615 1.397 . S
C614 C631 1.394 . S
C615 C614 1.397 . S
C615 C616 1.438 . S
C615 C620 1.429 . S
C616 C615 1.438 . S
C616 C617 1.428 . S
C616 C629 1.394 . S
C617 H609 0.949 . S
C617 C616 1.428 . S
C617 C618 1.345 . S
C618 H610 0.950 . S
C618 C617 1.345 . S
C618 C619 1.424 . S
C619 H611 0.951 . S
C619 C618 1.424 . S
C619 C620 1.347 . S
C620 H612 0.951 . S
C620 C615 1.429 . S
C620 C619 1.347 . S
H621 C622 0.951 . S
C622 H621 0.951 . S
C622 C628 1.265 . S
H623 C628 0.950 . S
H624 C632 0.949 . S
H625 C633 0.950 . S
H626 C634 0.951 . S
H627 C635 0.951 . S
C628 C622 1.265 . S
C628 H623 0.950 . S
C628 C629 1.478 . S
C629 C616 1.394 . S
C629 C628 1.478 . S
C629 C630 1.397 . S
C630 C629 1.397 . S
C630 C631 1.438 . S
C630 C635 1.429 . S
C631 C614 1.394 . S
C631 C630 1.438 . S
C631 C632 1.428 . S
C632 H624 0.949 . S
C632 C631 1.428 . S
C632 C633 1.345 . S
C633 H625 0.950 . S
C633 C632 1.345 . S
C633 C634 1.424 . S
C634 H626 0.951 . S
C634 C633 1.424 . S
C634 C635 1.347 . S
C635 H627 0.951 . S
C635 C630 1.429 . S
C635 C634 1.347 . S
H636 C637 0.951 . S
C637 H636 0.951 . S
C637 C643 1.265 . S
H638 C643 0.950 . S
H639 C647 0.949 . S
H640 C648 0.950 . S
H641 C649 0.951 . S
H642 C650 0.951 . S
C643 C637 1.265 . S
C643 H638 0.950 . S
C643 C644 1.478 . S
C644 C643 1.478 . S
C644 C645 1.397 1_565 S
C644 C661 1.394 . S
C645 C644 1.397 1_545 S
C645 C646 1.438 . S
C645 C650 1.429 . S
C646 C645 1.438 . S
C646 C647 1.428 . S
C646 C659 1.394 . S
C647 H639 0.949 . S
C647 C646 1.428 . S
C647 C648 1.345 . S
C648 H640 0.950 . S
C648 C647 1.345 . S
C648 C649 1.424 . S
C649 H641 0.951 . S
C649 C648 1.424 . S
C649 C650 1.347 . S
C650 H642 0.951 . S
C650 C645 1.429 . S
C650 C649 1.347 . S
H651 C652 0.951 . S
C652 H651 0.951 . S
C652 C658 1.265 . S
H653 C658 0.950 . S
H654 C662 0.949 . S
H655 C663 0.950 . S
H656 C664 0.951 . S
H657 C665 0.951 1_545 S
C658 C652 1.265 . S
C658 H653 0.950 . S
C658 C659 1.478 . S
C659 C646 1.394 . S
C659 C658 1.478 . S
C659 C660 1.397 . S
C660 C659 1.397 . S
C660 C661 1.438 1_545 S
C660 C665 1.429 1_545 S
C661 C644 1.394 . S
C661 C660 1.438 1_565 S
C661 C662 1.428 . S
C662 H654 0.949 . S
C662 C661 1.428 . S
C662 C663 1.345 . S
C663 H655 0.950 . S
C663 C662 1.345 . S
C663 C664 1.424 . S
C664 H656 0.951 . S
C664 C663 1.424 . S
C664 C665 1.347 . S
C665 H657 0.951 1_565 S
C665 C660 1.429 1_565 S
C665 C664 1.347 . S
C127 C37 0.977 . S
C142 C3 1.046 . S
C157 C23 0.936 . S
C172 C9 1.053 . S
C187 C17 1.078 . S
C202 C31 0.997 . S
C217 C73 1.026 . S
C232 C51 0.910 . S
C247 C65 0.910 . S
C262 C45 1.031 . S
C277 C59 1.051 . S
C292 C79 0.985 . S
C307 C87 0.945 . S
C322 C121 1.037 . S
C337 C93 0.875 . S
C352 C107 1.004 . S
C367 C101 1.025 . S
C382 C115 0.939 . S
C397 C8 1.383 . S
C412 C106 1.373 . S
C427 C21 1.361 . S
C442 C119 1.344 . S
C457 C91 1.378 . S
C472 C36 1.382 . S
C487 C63 1.354 . S
C502 C35 1.379 . S
C517 C7 1.345 . S
C532 C77 1.325 . S
C547 C49 1.405 . S
C562 C22 1.396 . S
C577 C105 1.370 . S
C592 C78 1.372 . S
C607 C50 1.377 . S
C622 C120 1.378 . S
C637 C92 1.397 . S
C652 C64 1.409 . S
