# Generated by pormake.
# Topology wjr, (5)-cn, num edge types: 1
# Building blocks:
#     Node 0, Type 0, BuildingBlock: BEQFEK_clean_sbu_0, # of connection points: 5
#     Node 1, Type 0, BuildingBlock: BEQFEK_clean_sbu_0, # of connection points: 5
#     Node 2, Type 0, BuildingBlock: BEQFEK_clean_sbu_0, # of connection points: 5
#     Node 3, Type 0, BuildingBlock: BEQFEK_clean_sbu_0, # of connection points: 5
#     Node 4, Type 0, BuildingBlock: BEQFEK_clean_sbu_0, # of connection points: 5
#     Node 5, Type 0, BuildingBlock: BEQFEK_clean_sbu_0, # of connection points: 5
#     Node 6, Type 0, BuildingBlock: BEQFEK_clean_sbu_0, # of connection points: 5
#     Node 7, Type 0, BuildingBlock: BEQFEK_clean_sbu_0, # of connection points: 5
#     Node 8, Type 0, BuildingBlock: BEQFEK_clean_sbu_0, # of connection points: 5
#     Node 9, Type 0, BuildingBlock: BEQFEK_clean_sbu_0, # of connection points: 5
#     Node 10, Type 0, BuildingBlock: BEQFEK_clean_sbu_0, # of connection points: 5
#     Node 11, Type 0, BuildingBlock: BEQFEK_clean_sbu_0, # of connection points: 5
#     Node 12, Type 0, BuildingBlock: BEQFEK_clean_sbu_0, # of connection points: 5
#     Node 13, Type 0, BuildingBlock: BEQFEK_clean_sbu_0, # of connection points: 5
#     Node 14, Type 0, BuildingBlock: BEQFEK_clean_sbu_0, # of connection points: 5
#     Node 15, Type 0, BuildingBlock: BEQFEK_clean_sbu_0, # of connection points: 5
#     Node 16, Type 0, BuildingBlock: BEQFEK_clean_sbu_0, # of connection points: 5
#     Node 17, Type 0, BuildingBlock: BEQFEK_clean_sbu_0, # of connection points: 5
#     Node 18, Type 0, BuildingBlock: BEQFEK_clean_sbu_0, # of connection points: 5
#     Node 19, Type 0, BuildingBlock: BEQFEK_clean_sbu_0, # of connection points: 5
#     Node 20, Type 0, BuildingBlock: BEQFEK_clean_sbu_0, # of connection points: 5
#     Node 21, Type 0, BuildingBlock: BEQFEK_clean_sbu_0, # of connection points: 5
#     Node 22, Type 0, BuildingBlock: BEQFEK_clean_sbu_0, # of connection points: 5
#     Node 23, Type 0, BuildingBlock: BEQFEK_clean_sbu_0, # of connection points: 5
#     Edge 24, Type (0, 0), BuildingBlock: CIFDUS_clean_linker_0, # of connection points: 2
#     Edge 25, Type (0, 0), BuildingBlock: CIFDUS_clean_linker_0, # of connection points: 2
#     Edge 26, Type (0, 0), BuildingBlock: CIFDUS_clean_linker_0, # of connection points: 2
#     Edge 27, Type (0, 0), BuildingBlock: CIFDUS_clean_linker_0, # of connection points: 2
#     Edge 28, Type (0, 0), BuildingBlock: CIFDUS_clean_linker_0, # of connection points: 2
#     Edge 29, Type (0, 0), BuildingBlock: CIFDUS_clean_linker_0, # of connection points: 2
#     Edge 30, Type (0, 0), BuildingBlock: CIFDUS_clean_linker_0, # of connection points: 2
#     Edge 31, Type (0, 0), BuildingBlock: CIFDUS_clean_linker_0, # of connection points: 2
#     Edge 32, Type (0, 0), BuildingBlock: CIFDUS_clean_linker_0, # of connection points: 2
#     Edge 33, Type (0, 0), BuildingBlock: CIFDUS_clean_linker_0, # of connection points: 2
#     Edge 34, Type (0, 0), BuildingBlock: CIFDUS_clean_linker_0, # of connection points: 2
#     Edge 35, Type (0, 0), BuildingBlock: CIFDUS_clean_linker_0, # of connection points: 2
#     Edge 36, Type (0, 0), BuildingBlock: CIFDUS_clean_linker_0, # of connection points: 2
#     Edge 37, Type (0, 0), BuildingBlock: CIFDUS_clean_linker_0, # of connection points: 2
#     Edge 38, Type (0, 0), BuildingBlock: CIFDUS_clean_linker_0, # of connection points: 2
#     Edge 39, Type (0, 0), BuildingBlock: CIFDUS_clean_linker_0, # of connection points: 2
#     Edge 40, Type (0, 0), BuildingBlock: CIFDUS_clean_linker_0, # of connection points: 2
#     Edge 41, Type (0, 0), BuildingBlock: CIFDUS_clean_linker_0, # of connection points: 2
#     Edge 42, Type (0, 0), BuildingBlock: CIFDUS_clean_linker_0, # of connection points: 2
#     Edge 43, Type (0, 0), BuildingBlock: CIFDUS_clean_linker_0, # of connection points: 2
#     Edge 44, Type (0, 0), BuildingBlock: CIFDUS_clean_linker_0, # of connection points: 2
#     Edge 45, Type (0, 0), BuildingBlock: CIFDUS_clean_linker_0, # of connection points: 2
#     Edge 46, Type (0, 0), BuildingBlock: CIFDUS_clean_linker_0, # of connection points: 2
#     Edge 47, Type (0, 0), BuildingBlock: CIFDUS_clean_linker_0, # of connection points: 2
#     Edge 48, Type (0, 0), BuildingBlock: CIFDUS_clean_linker_0, # of connection points: 2
#     Edge 49, Type (0, 0), BuildingBlock: CIFDUS_clean_linker_0, # of connection points: 2
#     Edge 50, Type (0, 0), BuildingBlock: CIFDUS_clean_linker_0, # of connection points: 2
#     Edge 51, Type (0, 0), BuildingBlock: CIFDUS_clean_linker_0, # of connection points: 2
#     Edge 52, Type (0, 0), BuildingBlock: CIFDUS_clean_linker_0, # of connection points: 2
#     Edge 53, Type (0, 0), BuildingBlock: CIFDUS_clean_linker_0, # of connection points: 2
#     Edge 54, Type (0, 0), BuildingBlock: CIFDUS_clean_linker_0, # of connection points: 2
#     Edge 55, Type (0, 0), BuildingBlock: CIFDUS_clean_linker_0, # of connection points: 2
#     Edge 56, Type (0, 0), BuildingBlock: CIFDUS_clean_linker_0, # of connection points: 2
#     Edge 57, Type (0, 0), BuildingBlock: CIFDUS_clean_linker_0, # of connection points: 2
#     Edge 58, Type (0, 0), BuildingBlock: CIFDUS_clean_linker_0, # of connection points: 2
#     Edge 59, Type (0, 0), BuildingBlock: CIFDUS_clean_linker_0, # of connection points: 2
#     Edge 60, Type (0, 0), BuildingBlock: CIFDUS_clean_linker_0, # of connection points: 2
#     Edge 61, Type (0, 0), BuildingBlock: CIFDUS_clean_linker_0, # of connection points: 2
#     Edge 62, Type (0, 0), BuildingBlock: CIFDUS_clean_linker_0, # of connection points: 2
#     Edge 63, Type (0, 0), BuildingBlock: CIFDUS_clean_linker_0, # of connection points: 2
#     Edge 64, Type (0, 0), BuildingBlock: CIFDUS_clean_linker_0, # of connection points: 2
#     Edge 65, Type (0, 0), BuildingBlock: CIFDUS_clean_linker_0, # of connection points: 2
#     Edge 66, Type (0, 0), BuildingBlock: CIFDUS_clean_linker_0, # of connection points: 2
#     Edge 67, Type (0, 0), BuildingBlock: CIFDUS_clean_linker_0, # of connection points: 2
#     Edge 68, Type (0, 0), BuildingBlock: CIFDUS_clean_linker_0, # of connection points: 2
#     Edge 69, Type (0, 0), BuildingBlock: CIFDUS_clean_linker_0, # of connection points: 2
#     Edge 70, Type (0, 0), BuildingBlock: CIFDUS_clean_linker_0, # of connection points: 2
#     Edge 71, Type (0, 0), BuildingBlock: CIFDUS_clean_linker_0, # of connection points: 2
#     Edge 72, Type (0, 0), BuildingBlock: CIFDUS_clean_linker_0, # of connection points: 2
#     Edge 73, Type (0, 0), BuildingBlock: CIFDUS_clean_linker_0, # of connection points: 2
#     Edge 74, Type (0, 0), BuildingBlock: CIFDUS_clean_linker_0, # of connection points: 2
#     Edge 75, Type (0, 0), BuildingBlock: CIFDUS_clean_linker_0, # of connection points: 2
#     Edge 76, Type (0, 0), BuildingBlock: CIFDUS_clean_linker_0, # of connection points: 2
#     Edge 77, Type (0, 0), BuildingBlock: CIFDUS_clean_linker_0, # of connection points: 2
#     Edge 78, Type (0, 0), BuildingBlock: CIFDUS_clean_linker_0, # of connection points: 2
#     Edge 79, Type (0, 0), BuildingBlock: CIFDUS_clean_linker_0, # of connection points: 2
#     Edge 80, Type (0, 0), BuildingBlock: CIFDUS_clean_linker_0, # of connection points: 2
#     Edge 81, Type (0, 0), BuildingBlock: CIFDUS_clean_linker_0, # of connection points: 2
#     Edge 82, Type (0, 0), BuildingBlock: CIFDUS_clean_linker_0, # of connection points: 2
#     Edge 83, Type (0, 0), BuildingBlock: CIFDUS_clean_linker_0, # of connection points: 2
# Relax obj value: 0.370
# Max RMSD: 0.184
# Mean RMSD: 0.184
data_MOF--net-wjr--node1-BEQFEK_clean_sbu_0--edge1-CIFDUS_clean_linker_0
_symmetry_space_group_name_H-M    P1
_symmetry_Int_Tables_number       1
_symmetry_cell_setting            triclinic
loop_
_symmetry_equiv_pos_as_xyz
'x, y, z'
_cell_length_a     63.612691
_cell_length_b     63.74162
_cell_length_c     42.722676
_cell_angle_alpha  90.065892
_cell_angle_beta   89.954747
_cell_angle_gamma 119.95084
loop_
_atom_site_label
_atom_site_type_symbol
_atom_site_fract_x
_atom_site_fract_y
_atom_site_fract_z
_atom_type_partial_charge
Co0 Co 0.46577 0.07508 0.15748 0.0
Co1 Co 0.46285 0.11625 0.19313 0.0
C2 C 0.50656 0.11101 0.19949 0.0
O3 O 0.49719 0.09307 0.18062 0.0
O4 O 0.49555 0.12246 0.20695 0.0
C5 C 0.48475 0.05173 0.1177 0.0
O6 O 0.50556 0.07207 0.11966 0.0
C7 C 0.46745 0.16232 0.2188 0.0
C8 C 0.42837 0.15047 0.22155 0.0
C9 C 0.45121 0.16988 0.22763 0.0
N10 N 0.45458 0.13942 0.20803 0.0
N11 N 0.4313 0.13261 0.20969 0.0
C12 C 0.49447 0.17606 0.2219 0.0
H13 H 0.50157 0.16347 0.22492 0.0
H14 H 0.50245 0.1867 0.20024 0.0
H15 H 0.5001 0.18876 0.24203 0.0
C16 C 0.45766 0.0981 0.10291 0.0
N17 N 0.45968 0.0962 0.13395 0.0
N18 N 0.45981 0.11454 0.14824 0.0
C19 C 0.45862 0.12921 0.1263 0.0
C20 C 0.4569 0.11905 0.09689 0.0
C21 C 0.45874 0.08134 0.07922 0.0
H22 H 0.44661 0.0623 0.08646 0.0
H23 H 0.47756 0.08462 0.07801 0.0
H24 H 0.45336 0.08415 0.05559 0.0
O25 O 0.43949 0.05651 0.18718 0.0
O26 O 0.43866 0.08555 0.21457 0.0
H27 H 0.44393 0.14999 0.14575 0.0
H28 H 0.46249 0.16339 0.11143 0.0
C29 C 0.46051 0.15309 0.13322 0.0
H30 H 0.47625 0.16381 0.14882 0.0
H31 H 0.41734 0.11558 0.20288 0.0
O32 O 0.46618 0.05015 0.13099 0.0
C33 C 0.43099 0.06321 0.20944 0.0
Co34 Co 0.39731 0.47549 0.15724 0.0
Co35 Co 0.35001 0.45979 0.19545 0.0
C36 C 0.39596 0.50718 0.20774 0.0
O37 O 0.4069 0.50328 0.18552 0.0
O38 O 0.37399 0.49194 0.21472 0.0
C39 C 0.44014 0.50358 0.11955 0.0
O40 O 0.43737 0.52221 0.12602 0.0
C41 C 0.30632 0.46068 0.21801 0.0
C42 C 0.28328 0.42244 0.23196 0.0
C43 C 0.28373 0.44439 0.23056 0.0
N44 N 0.31841 0.44874 0.21227 0.0
N45 N 0.30449 0.42592 0.22066 0.0
C46 C 0.31671 0.48724 0.21263 0.0
H47 H 0.33675 0.49656 0.21114 0.0
H48 H 0.3098 0.49004 0.19012 0.0
H49 H 0.3112 0.49535 0.23168 0.0
C50 C 0.36521 0.46766 0.10406 0.0
N51 N 0.36925 0.46838 0.13499 0.0
N52 N 0.34879 0.46097 0.15031 0.0
C53 C 0.33081 0.4548 0.12912 0.0
C54 C 0.34078 0.45922 0.09918 0.0
C55 C 0.38417 0.47318 0.07963 0.0
H56 H 0.39298 0.46221 0.08408 0.0
H57 H 0.39826 0.49257 0.08123 0.0
H58 H 0.37649 0.46931 0.05564 0.0
O59 O 0.39279 0.44707 0.1812 0.0
O60 O 0.35972 0.43592 0.20961 0.0
H61 H 0.29907 0.42853 0.15333 0.0
H62 H 0.29299 0.43791 0.11596 0.0
C63 C 0.30456 0.44404 0.13721 0.0
H64 H 0.30179 0.4578 0.14949 0.0
H65 H 0.30949 0.41268 0.21867 0.0
O66 O 0.42451 0.48273 0.12927 0.0
C67 C 0.37744 0.4332 0.20134 0.0
Co68 Co 0.92028 0.39109 0.15704 0.0
Co69 Co 0.89084 0.34366 0.19497 0.0
C70 C 0.88933 0.38932 0.21058 0.0
O71 O 0.90322 0.40074 0.18768 0.0
O72 O 0.88295 0.36722 0.2162 0.0
C73 C 0.93657 0.43431 0.11814 0.0
O74 O 0.91698 0.43489 0.1265 0.0
C75 C 0.84762 0.29894 0.21622 0.0
C76 C 0.86369 0.2757 0.22491 0.0
C77 C 0.84192 0.27568 0.22462 0.0
N78 N 0.8717 0.31203 0.2115 0.0
N79 N 0.88121 0.29813 0.2172 0.0
C80 C 0.83041 0.30794 0.20962 0.0
H81 H 0.83918 0.32431 0.19457 0.0
H82 H 0.81373 0.29358 0.19818 0.0
H83 H 0.8251 0.31277 0.23207 0.0
C84 C 0.89446 0.35929 0.10412 0.0
N85 N 0.89874 0.36314 0.13498 0.0
N86 N 0.88684 0.34251 0.15012 0.0
C87 C 0.87496 0.3246 0.12885 0.0
C88 C 0.87915 0.33479 0.0991 0.0
C89 C 0.90666 0.37849 0.07969 0.0
H90 H 0.92661 0.38659 0.0817 0.0
H91 H 0.90215 0.39297 0.08374 0.0
H92 H 0.90104 0.37127 0.05564 0.0
O93 O 0.94521 0.38683 0.17905 0.0
O94 O 0.92466 0.3535 0.20714 0.0
H95 H 0.87182 0.29344 0.15212 0.0
H96 H 0.85592 0.28692 0.11504 0.0
C97 C 0.86092 0.29822 0.13652 0.0
H98 H 0.84409 0.29428 0.14908 0.0
H99 H 0.89957 0.3037 0.21461 0.0
O100 O 0.93987 0.41746 0.12808 0.0
C101 C 0.94466 0.37148 0.19844 0.0
Co102 Co 0.5274 0.92082 0.1608 0.0
Co103 Co 0.53808 0.88387 0.19447 0.0
C104 C 0.49278 0.88554 0.20856 0.0
O105 O 0.49855 0.90233 0.18842 0.0
O106 O 0.50621 0.87621 0.21347 0.0
C107 C 0.5035 0.94089 0.12335 0.0
O108 O 0.48319 0.92047 0.12811 0.0
C109 C 0.53637 0.83833 0.21385 0.0
C110 C 0.57574 0.85139 0.21603 0.0
C111 C 0.55317 0.83085 0.21902 0.0
N112 N 0.54861 0.86223 0.20775 0.0
N113 N 0.57208 0.86991 0.2095 0.0
C114 C 0.50939 0.82287 0.21197 0.0
H115 H 0.50167 0.82036 0.23588 0.0
H116 H 0.50167 0.83175 0.19732 0.0
H117 H 0.50425 0.80477 0.20226 0.0
C118 C 0.53393 0.89796 0.10459 0.0
N119 N 0.53356 0.90026 0.13584 0.0
N120 N 0.5375 0.88405 0.14946 0.0
C121 C 0.54017 0.8706 0.12692 0.0
C122 C 0.53812 0.87914 0.09784 0.0
C123 C 0.5295 0.91299 0.08152 0.0
H124 H 0.54121 0.93245 0.08721 0.0
H125 H 0.51029 0.90847 0.08317 0.0
H126 H 0.53324 0.90971 0.05716 0.0
O127 O 0.55557 0.9419 0.18704 0.0
O128 O 0.56254 0.91577 0.21248 0.0
H129 H 0.56076 0.85572 0.14659 0.0
H130 H 0.54521 0.84125 0.1107 0.0
C131 C 0.54388 0.84957 0.13291 0.0
H132 H 0.52849 0.83579 0.14689 0.0
H133 H 0.58565 0.88772 0.20519 0.0
O134 O 0.52315 0.94368 0.13468 0.0
C135 C 0.56746 0.93738 0.20713 0.0
Co136 Co 0.60348 0.52817 0.16389 0.0
Co137 Co 0.65306 0.54283 0.19529 0.0
C138 C 0.60841 0.49612 0.21165 0.0
O139 O 0.59603 0.50061 0.19212 0.0
O140 O 0.63108 0.51072 0.2156 0.0
C141 C 0.55953 0.49979 0.12795 0.0
O142 O 0.56303 0.48135 0.13228 0.0
C143 C 0.69894 0.54461 0.21331 0.0
C144 C 0.72313 0.58425 0.21648 0.0
C145 C 0.72281 0.56244 0.21901 0.0
N146 N 0.68593 0.55554 0.2075 0.0
N147 N 0.70047 0.57919 0.20973 0.0
C148 C 0.68899 0.51789 0.21083 0.0
H149 H 0.67263 0.50957 0.19569 0.0
H150 H 0.7029 0.51393 0.20133 0.0
H151 H 0.6837 0.50975 0.2345 0.0
C152 C 0.63177 0.53535 0.10634 0.0
N153 N 0.6299 0.53526 0.1377 0.0
N154 N 0.65106 0.54143 0.15036 0.0
C155 C 0.66718 0.54576 0.12707 0.0
C156 C 0.65534 0.5418 0.0985 0.0
C157 C 0.61156 0.53036 0.08418 0.0
H158 H 0.60231 0.54033 0.0918 0.0
H159 H 0.59818 0.5107 0.08443 0.0
H160 H 0.61823 0.53581 0.05989 0.0
O161 O 0.60929 0.5565 0.18933 0.0
O162 O 0.64383 0.566 0.21309 0.0
H163 H 0.70231 0.57047 0.14526 0.0
H164 H 0.70282 0.55562 0.10937 0.0
C165 C 0.69326 0.55323 0.13197 0.0
H166 H 0.69446 0.53924 0.146 0.0
H167 H 0.69501 0.59193 0.20589 0.0
O168 O 0.57461 0.52037 0.13906 0.0
C169 C 0.62606 0.5695 0.20853 0.0
Co170 Co 0.07476 0.60376 0.15985 0.0
Co171 Co 0.1127 0.65123 0.19275 0.0
C172 C 0.11055 0.60354 0.20536 0.0
O173 O 0.09333 0.59243 0.18571 0.0
O174 O 0.11986 0.62625 0.21031 0.0
C175 C 0.05049 0.56051 0.11975 0.0
O176 O 0.07039 0.55908 0.11974 0.0
C177 C 0.15838 0.69323 0.21669 0.0
C178 C 0.1463 0.72024 0.21984 0.0
C179 C 0.1659 0.71696 0.22538 0.0
N180 N 0.13533 0.68307 0.20643 0.0
N181 N 0.12833 0.69937 0.20832 0.0
C182 C 0.17205 0.67988 0.21987 0.0
H183 H 0.17731 0.67687 0.19624 0.0
H184 H 0.18853 0.69001 0.23447 0.0
H185 H 0.16021 0.66191 0.23057 0.0
C186 C 0.09665 0.63308 0.10316 0.0
N187 N 0.09527 0.63025 0.13444 0.0
N188 N 0.11145 0.65056 0.14782 0.0
C189 C 0.12374 0.66703 0.12514 0.0
C190 C 0.11477 0.65636 0.09616 0.0
C191 C 0.08032 0.61407 0.08033 0.0
H192 H 0.06113 0.60688 0.0873 0.0
H193 H 0.08426 0.59898 0.08069 0.0
H194 H 0.0829 0.62124 0.05613 0.0
O195 O 0.05479 0.61151 0.18764 0.0
O196 O 0.08149 0.64479 0.21216 0.0
H197 H 0.13578 0.70253 0.14293 0.0
H198 H 0.15229 0.70178 0.10887 0.0
C199 C 0.14351 0.69243 0.13104 0.0
H200 H 0.15729 0.69229 0.14681 0.0
H201 H 0.11111 0.69611 0.20201 0.0
O202 O 0.04998 0.5775 0.13452 0.0
C203 C 0.05973 0.62813 0.20754 0.0
Co204 Co 0.92562 0.53215 0.35298 0.0
Co205 Co 0.88626 0.53995 0.32075 0.0
C206 C 0.88922 0.49517 0.30821 0.0
O207 O 0.9069 0.50201 0.32732 0.0
O208 O 0.87913 0.50791 0.30347 0.0
C209 C 0.94954 0.51238 0.39129 0.0
O210 O 0.92932 0.4914 0.39026 0.0
C211 C 0.84047 0.53573 0.29635 0.0
C212 C 0.85068 0.57437 0.29747 0.0
C213 C 0.83205 0.55156 0.28943 0.0
N214 N 0.86307 0.54876 0.30803 0.0
N215 N 0.86895 0.57177 0.3087 0.0
C216 C 0.82825 0.50912 0.28998 0.0
H217 H 0.82417 0.49924 0.31255 0.0
H218 H 0.81127 0.50268 0.2764 0.0
H219 H 0.84073 0.50499 0.27668 0.0
C220 C 0.90364 0.53891 0.41007 0.0
N221 N 0.90537 0.53828 0.37874 0.0
N222 N 0.88791 0.54055 0.36569 0.0
C223 C 0.87398 0.54197 0.38864 0.0
C224 C 0.88374 0.54126 0.41749 0.0
C225 C 0.91976 0.53563 0.43262 0.0
H226 H 0.91551 0.51652 0.43184 0.0
H227 H 0.91717 0.54002 0.45696 0.0
H228 H 0.939 0.54742 0.42581 0.0
O229 O 0.94484 0.55939 0.32483 0.0
O230 O 0.91722 0.56459 0.3002 0.0
H231 H 0.84102 0.54022 0.40526 0.0
H232 H 0.83948 0.52815 0.36628 0.0
C233 C 0.8511 0.54259 0.38311 0.0
H234 H 0.85566 0.56026 0.37257 0.0
H235 H 0.88563 0.58578 0.31654 0.0
O236 O 0.9506 0.53055 0.37776 0.0
C237 C 0.93922 0.57025 0.30454 0.0
Co238 Co 0.39084 0.92539 0.3525 0.0
Co239 Co 0.3423 0.88964 0.31974 0.0
C240 C 0.38818 0.88933 0.30455 0.0
O241 O 0.39994 0.90602 0.3246 0.0
O242 O 0.3655 0.88087 0.29999 0.0
C243 C 0.43492 0.94416 0.38968 0.0
O244 O 0.43399 0.92333 0.38506 0.0
C245 C 0.29762 0.84488 0.30048 0.0
C246 C 0.27206 0.85886 0.29873 0.0
C247 C 0.27346 0.83799 0.2953 0.0
N248 N 0.30979 0.86872 0.30693 0.0
N249 N 0.29444 0.87696 0.30549 0.0
C250 C 0.3086 0.82892 0.30197 0.0
H251 H 0.32516 0.83734 0.31674 0.0
H252 H 0.29533 0.81082 0.31136 0.0
H253 H 0.31379 0.82652 0.27799 0.0
C254 C 0.36208 0.90294 0.40926 0.0
N255 N 0.36421 0.90548 0.37798 0.0
N256 N 0.34365 0.88971 0.36472 0.0
C257 C 0.3278 0.8763 0.38752 0.0
C258 C 0.33903 0.88438 0.4164 0.0
C259 C 0.38208 0.9174 0.43199 0.0
H260 H 0.39053 0.93694 0.42638 0.0
H261 H 0.39611 0.912 0.42995 0.0
H262 H 0.37536 0.91442 0.45648 0.0
O263 O 0.38448 0.94715 0.32663 0.0
O264 O 0.35054 0.92185 0.302 0.0
H265 H 0.29219 0.86198 0.36845 0.0
H266 H 0.29332 0.84743 0.40422 0.0
C267 C 0.3028 0.85558 0.38188 0.0
H268 H 0.30394 0.84158 0.36776 0.0
H269 H 0.29915 0.89487 0.31003 0.0
O270 O 0.41855 0.94766 0.37823 0.0
C271 C 0.36791 0.94321 0.30704 0.0
Co272 Co 0.47198 0.39448 0.35992 0.0
Co273 Co 0.45563 0.34641 0.32365 0.0
C274 C 0.50311 0.39147 0.30935 0.0
O275 O 0.49957 0.40327 0.33086 0.0
O276 O 0.48773 0.36926 0.30387 0.0
C277 C 0.49918 0.43779 0.39825 0.0
O278 O 0.51895 0.43723 0.3909 0.0
C279 C 0.45459 0.30165 0.30257 0.0
C280 C 0.41511 0.27764 0.29621 0.0
C281 C 0.43709 0.27809 0.29492 0.0
N282 N 0.44331 0.31436 0.30833 0.0
N283 N 0.41978 0.29995 0.30411 0.0
C284 C 0.48119 0.31143 0.3071 0.0
H285 H 0.48889 0.32751 0.32271 0.0
H286 H 0.48461 0.29733 0.31703 0.0
H287 H 0.49041 0.31703 0.28407 0.0
C288 C 0.46515 0.3637 0.41424 0.0
N289 N 0.46456 0.36682 0.38323 0.0
N290 N 0.45758 0.34616 0.3687 0.0
C291 C 0.45354 0.32911 0.3905 0.0
C292 C 0.45831 0.33982 0.41995 0.0
C293 C 0.47223 0.38335 0.43808 0.0
H294 H 0.46117 0.39219 0.43473 0.0
H295 H 0.49159 0.39716 0.43474 0.0
H296 H 0.46965 0.3763 0.46235 0.0
O297 O 0.4436 0.39004 0.33611 0.0
O298 O 0.43217 0.35656 0.30867 0.0
H299 H 0.42929 0.29548 0.36823 0.0
H300 H 0.44134 0.29237 0.40524 0.0
C301 C 0.44556 0.30322 0.38346 0.0
H302 H 0.46023 0.30224 0.37071 0.0
H303 H 0.4068 0.30518 0.30759 0.0
O304 O 0.47885 0.42155 0.38782 0.0
C305 C 0.42965 0.37449 0.31625 0.0
Co306 Co 0.07864 0.4683 0.35393 0.0
Co307 Co 0.11041 0.45144 0.31863 0.0
C308 C 0.11191 0.49839 0.3024 0.0
O309 O 0.09683 0.4952 0.3241 0.0
O310 O 0.11905 0.48312 0.29747 0.0
C311 C 0.06126 0.49512 0.39115 0.0
O312 O 0.08148 0.5151 0.3843 0.0
C313 C 0.15414 0.44973 0.29856 0.0
C314 C 0.13858 0.41015 0.29394 0.0
C315 C 0.1601 0.43198 0.29207 0.0
N316 N 0.13016 0.43876 0.30422 0.0
N317 N 0.12097 0.41516 0.30099 0.0
C318 C 0.17111 0.4763 0.30232 0.0
H319 H 0.16275 0.48448 0.31717 0.0
H320 H 0.18852 0.4797 0.31274 0.0
H321 H 0.17501 0.485 0.27893 0.0
C322 C 0.10206 0.46166 0.40897 0.0
N323 N 0.09925 0.46171 0.3778 0.0
N324 N 0.11236 0.45379 0.36378 0.0
C325 C 0.12379 0.44806 0.38609 0.0
C326 C 0.11781 0.45317 0.41538 0.0
C327 C 0.0882 0.46764 0.43223 0.0
H328 H 0.06849 0.45621 0.42767 0.0
H329 H 0.09321 0.48687 0.4294 0.0
H330 H 0.09189 0.46467 0.4567 0.0
O331 O 0.05492 0.43937 0.33079 0.0
O332 O 0.07706 0.42767 0.30395 0.0
H333 H 0.12911 0.42039 0.3658 0.0
H334 H 0.14582 0.433 0.40175 0.0
C335 C 0.13946 0.43721 0.37971 0.0
H336 H 0.15541 0.4501 0.36574 0.0
H337 H 0.10275 0.40237 0.30471 0.0
O338 O 0.05789 0.47499 0.38099 0.0
C339 C 0.05658 0.42515 0.31143 0.0
Co340 Co 0.60744 0.07336 0.35455 0.0
Co341 Co 0.65252 0.11183 0.31767 0.0
C342 C 0.60436 0.1094 0.31189 0.0
O343 O 0.59498 0.09207 0.33157 0.0
O344 O 0.62666 0.11919 0.30395 0.0
C345 C 0.56583 0.05197 0.39579 0.0
O346 O 0.56624 0.07275 0.39394 0.0
C347 C 0.69463 0.15774 0.2939 0.0
C348 C 0.71989 0.14417 0.2842 0.0
C349 C 0.71782 0.16477 0.28284 0.0
N350 N 0.68372 0.13408 0.30145 0.0
N351 N 0.69897 0.12619 0.29556 0.0
C352 C 0.68269 0.1728 0.29622 0.0
H353 H 0.6627 0.16125 0.29533 0.0
H354 H 0.6876 0.18258 0.31892 0.0
H355 H 0.6889 0.18631 0.27702 0.0
C356 C 0.64012 0.09494 0.40818 0.0
N357 N 0.63539 0.0938 0.37739 0.0
N358 N 0.65462 0.11045 0.36253 0.0
C359 C 0.67233 0.12292 0.38383 0.0
C360 C 0.66361 0.11341 0.41338 0.0
C361 C 0.62241 0.07853 0.43221 0.0
H362 H 0.61503 0.05941 0.42496 0.0
H363 H 0.60712 0.08218 0.43374 0.0
H364 H 0.63083 0.08125 0.45569 0.0
O365 O 0.61343 0.05335 0.32484 0.0
O366 O 0.64448 0.08054 0.29709 0.0
H367 H 0.70655 0.13643 0.36102 0.0
H368 H 0.70796 0.15147 0.39757 0.0
C369 C 0.69708 0.14329 0.37609 0.0
H370 H 0.69544 0.15731 0.36275 0.0
H371 H 0.69507 0.10844 0.29938 0.0
O372 O 0.58203 0.04946 0.38183 0.0
C373 C 0.62857 0.05867 0.30271 0.0
Co374 Co 0.53495 0.60773 0.36478 0.0
Co375 Co 0.53551 0.65035 0.32886 0.0
C376 C 0.49214 0.60132 0.3256 0.0
O377 O 0.50255 0.5933 0.34363 0.0
O378 O 0.50249 0.62362 0.3178 0.0
C379 C 0.51862 0.56688 0.40654 0.0
O380 O 0.49768 0.56631 0.40672 0.0
C381 C 0.52781 0.68915 0.30203 0.0
C382 C 0.56619 0.71804 0.29773 0.0
C383 C 0.54267 0.7128 0.29192 0.0
N384 N 0.54211 0.6809 0.31326 0.0
N385 N 0.56495 0.69831 0.31073 0.0
C386 C 0.50084 0.67402 0.29913 0.0
H387 H 0.49611 0.65668 0.28741 0.0
H388 H 0.4927 0.66964 0.32288 0.0
H389 H 0.4931 0.6834 0.2856 0.0
C390 C 0.54451 0.64002 0.41866 0.0
N391 N 0.54165 0.6354 0.38777 0.0
N392 N 0.54045 0.65296 0.37333 0.0
C393 C 0.54163 0.669 0.39501 0.0
C394 C 0.54458 0.66145 0.42441 0.0
C395 C 0.54436 0.62282 0.44261 0.0
H396 H 0.55617 0.61563 0.43476 0.0
H397 H 0.5256 0.60746 0.44523 0.0
H398 H 0.55072 0.63165 0.46575 0.0
O399 O 0.55992 0.61487 0.3332 0.0
O400 O 0.55886 0.64359 0.30544 0.0
H401 H 0.55409 0.70378 0.3746 0.0
H402 H 0.53631 0.69851 0.40972 0.0
C403 C 0.53819 0.69006 0.38796 0.0
H404 H 0.52187 0.68402 0.37309 0.0
H405 H 0.57975 0.69656 0.31755 0.0
O406 O 0.53622 0.58334 0.39129 0.0
C407 C 0.56706 0.62927 0.31012 0.0
Co408 Co 0.52645 0.924 0.86352 0.0
Co409 Co 0.54071 0.89247 0.82315 0.0
C410 C 0.49229 0.88968 0.81521 0.0
O411 O 0.49735 0.90511 0.83709 0.0
O412 O 0.50723 0.8828 0.80687 0.0
C413 C 0.50179 0.94035 0.90682 0.0
O414 O 0.48145 0.92009 0.9014 0.0
C415 C 0.54258 0.84958 0.8001 0.0
C416 C 0.58185 0.86653 0.79014 0.0
C417 C 0.56047 0.84451 0.79072 0.0
N418 N 0.55307 0.87356 0.80511 0.0
N419 N 0.57643 0.88358 0.7986 0.0
C420 C 0.51662 0.83182 0.80722 0.0
H421 H 0.50874 0.84015 0.82264 0.0
H422 H 0.51504 0.81539 0.81845 0.0
H423 H 0.50622 0.82622 0.78499 0.0
C424 C 0.53654 0.90028 0.91519 0.0
N425 N 0.53504 0.9037 0.88444 0.0
N426 N 0.54152 0.89029 0.86821 0.0
C427 C 0.54764 0.87795 0.88864 0.0
C428 C 0.54437 0.88376 0.91897 0.0
C429 C 0.53151 0.9134 0.94057 0.0
H430 H 0.54233 0.93319 0.93641 0.0
H431 H 0.51201 0.90794 0.94006 0.0
H432 H 0.536 0.90944 0.96412 0.0
O433 O 0.5535 0.94811 0.83797 0.0
O434 O 0.56317 0.926 0.80778 0.0
H435 H 0.5719 0.8704 0.86275 0.0
H436 H 0.56284 0.85527 0.90029 0.0
C437 C 0.55668 0.86121 0.87953 0.0
H438 H 0.54188 0.84505 0.86785 0.0
H439 H 0.58891 0.90198 0.80124 0.0
O440 O 0.52118 0.94411 0.8935 0.0
C441 C 0.5663 0.94648 0.81635 0.0
Co442 Co 0.60135 0.52539 0.85072 0.0
Co443 Co 0.65114 0.53844 0.82069 0.0
C444 C 0.60626 0.49307 0.80266 0.0
O445 O 0.59402 0.49819 0.82167 0.0
O446 O 0.62913 0.50687 0.79945 0.0
C447 C 0.5561 0.49617 0.88285 0.0
O448 O 0.56004 0.47812 0.87748 0.0
C449 C 0.69559 0.54182 0.79282 0.0
C450 C 0.72219 0.57974 0.8051 0.0
C451 C 0.71976 0.55966 0.78938 0.0
N452 N 0.68436 0.55109 0.8099 0.0
N453 N 0.70041 0.57368 0.81725 0.0
C454 C 0.68275 0.51735 0.77783 0.0
H455 H 0.66728 0.51561 0.76382 0.0
H456 H 0.67521 0.50329 0.79636 0.0
H457 H 0.69493 0.51421 0.76239 0.0
C458 C 0.62787 0.53014 0.90893 0.0
N459 N 0.62695 0.53133 0.87761 0.0
N460 N 0.64788 0.536 0.86555 0.0
C461 C 0.66273 0.53748 0.8892 0.0
C462 C 0.65047 0.53392 0.9174 0.0
C463 C 0.60719 0.52483 0.93042 0.0
H464 H 0.59853 0.53544 0.92321 0.0
H465 H 0.5935 0.5053 0.92887 0.0
H466 H 0.61332 0.52925 0.95508 0.0
O467 O 0.60865 0.55436 0.82628 0.0
O468 O 0.64288 0.56239 0.80267 0.0
H469 H 0.70046 0.56018 0.87994 0.0
H470 H 0.69364 0.53547 0.90621 0.0
C471 C 0.68754 0.54082 0.88486 0.0
H472 H 0.68763 0.52999 0.86457 0.0
H473 H 0.69631 0.58515 0.83001 0.0
O474 O 0.57174 0.51737 0.87419 0.0
C475 C 0.62573 0.56686 0.80727 0.0
Co476 Co 0.07484 0.60328 0.85156 0.0
Co477 Co 0.11503 0.64951 0.81853 0.0
C478 C 0.11086 0.60116 0.80741 0.0
O479 O 0.09304 0.59097 0.82642 0.0
O480 O 0.12151 0.62393 0.80226 0.0
C481 C 0.05106 0.56022 0.89051 0.0
O482 O 0.07133 0.55951 0.88915 0.0
C483 C 0.16148 0.68992 0.79386 0.0
C484 C 0.15208 0.71896 0.79324 0.0
C485 C 0.17045 0.71409 0.7861 0.0
N486 N 0.13882 0.68105 0.80511 0.0
N487 N 0.13343 0.69855 0.80473 0.0
C488 C 0.17327 0.67494 0.78869 0.0
H489 H 0.16073 0.65832 0.77554 0.0
H490 H 0.17682 0.66923 0.81169 0.0
H491 H 0.19049 0.68495 0.77543 0.0
C492 C 0.09708 0.6326 0.90806 0.0
N493 N 0.09548 0.62977 0.87679 0.0
N494 N 0.11322 0.64911 0.86345 0.0
C495 C 0.12716 0.66464 0.88619 0.0
C496 C 0.11716 0.65473 0.91516 0.0
C497 C 0.08053 0.61378 0.93092 0.0
H498 H 0.06139 0.60664 0.92376 0.0
H499 H 0.08438 0.59863 0.93095 0.0
H500 H 0.08306 0.62118 0.95502 0.0
O501 O 0.05606 0.61161 0.82292 0.0
O502 O 0.08429 0.64355 0.79755 0.0
H503 H 0.14586 0.70092 0.86911 0.0
H504 H 0.16015 0.69584 0.9025 0.0
C505 C 0.15019 0.68786 0.88037 0.0
H506 H 0.16184 0.68461 0.86406 0.0
H507 H 0.11682 0.69643 0.81206 0.0
O508 O 0.04976 0.57718 0.87686 0.0
C509 C 0.06212 0.62778 0.80209 0.0
Co510 Co 0.47139 0.07529 0.85912 0.0
Co511 Co 0.465 0.11344 0.82158 0.0
C512 C 0.51061 0.11081 0.81584 0.0
O513 O 0.50253 0.09358 0.83575 0.0
O514 O 0.49826 0.12078 0.80788 0.0
C515 C 0.48927 0.053 0.90389 0.0
O516 O 0.51029 0.0732 0.90404 0.0
C517 C 0.46875 0.15917 0.79819 0.0
C518 C 0.42976 0.14615 0.79051 0.0
C519 C 0.45253 0.1666 0.789 0.0
N520 N 0.45596 0.13541 0.80502 0.0
N521 N 0.43274 0.12777 0.80007 0.0
C522 C 0.49552 0.17453 0.80281 0.0
H523 H 0.502 0.16606 0.82013 0.0
H524 H 0.50025 0.19298 0.81069 0.0
H525 H 0.50481 0.17614 0.78021 0.0
C526 C 0.46083 0.09779 0.91245 0.0
N527 N 0.46413 0.09611 0.88165 0.0
N528 N 0.46168 0.11269 0.86644 0.0
C529 C 0.45684 0.12564 0.8875 0.0
C530 C 0.45627 0.11658 0.91726 0.0
C531 C 0.46162 0.0814 0.93692 0.0
H532 H 0.45025 0.06227 0.9295 0.0
H533 H 0.48059 0.08536 0.93961 0.0
H534 H 0.4551 0.08392 0.95994 0.0
O535 O 0.44531 0.05497 0.82962 0.0
O536 O 0.44163 0.08201 0.80147 0.0
H537 H 0.43655 0.13942 0.86426 0.0
H538 H 0.45016 0.15454 0.90073 0.0
C539 C 0.4528 0.14616 0.87941 0.0
H540 H 0.46863 0.16002 0.8661 0.0
H541 H 0.41883 0.11005 0.80399 0.0
O542 O 0.47211 0.05141 0.8871 0.0
C543 C 0.43555 0.06015 0.80732 0.0
Co544 Co 0.38854 0.46804 0.8535 0.0
Co545 Co 0.33975 0.45674 0.82199 0.0
C546 C 0.38553 0.50222 0.80691 0.0
O547 O 0.39717 0.49642 0.82599 0.0
O548 O 0.36274 0.4887 0.80272 0.0
C549 C 0.43322 0.49552 0.88726 0.0
O550 O 0.4296 0.51389 0.88299 0.0
C551 C 0.29616 0.45728 0.79793 0.0
C552 C 0.2692 0.41824 0.80123 0.0
C553 C 0.27199 0.44032 0.79213 0.0
N554 N 0.30701 0.44559 0.81004 0.0
N555 N 0.29075 0.42232 0.81199 0.0
C556 C 0.3093 0.48366 0.79004 0.0
H557 H 0.32565 0.48803 0.77599 0.0
H558 H 0.31549 0.49438 0.81199 0.0
H559 H 0.29778 0.48893 0.77657 0.0
C560 C 0.36045 0.46147 0.911 0.0
N561 N 0.36229 0.46144 0.87965 0.0
N562 N 0.34187 0.45766 0.86692 0.0
C563 C 0.3265 0.45576 0.8901 0.0
C564 C 0.33776 0.45786 0.91875 0.0
C565 C 0.38062 0.46632 0.93312 0.0
H566 H 0.3892 0.45558 0.9261 0.0
H567 H 0.39455 0.48579 0.93197 0.0
H568 H 0.37403 0.46179 0.9576 0.0
O569 O 0.38147 0.43994 0.82724 0.0
O570 O 0.34783 0.43291 0.80287 0.0
H571 H 0.28962 0.43484 0.87549 0.0
H572 H 0.29441 0.45565 0.90705 0.0
C573 C 0.30208 0.45316 0.88493 0.0
H574 H 0.3035 0.46661 0.86735 0.0
H575 H 0.29449 0.40917 0.82041 0.0
O576 O 0.41744 0.47466 0.87766 0.0
C577 C 0.36479 0.42814 0.80741 0.0
Co578 Co 0.91961 0.38774 0.85893 0.0
Co579 Co 0.88435 0.34045 0.82311 0.0
C580 C 0.88631 0.3878 0.80933 0.0
O581 O 0.90211 0.39877 0.83065 0.0
O582 O 0.87786 0.3653 0.80387 0.0
C583 C 0.9391 0.43157 0.89611 0.0
O584 O 0.91899 0.43171 0.88961 0.0
C585 C 0.83907 0.29904 0.79783 0.0
C586 C 0.85056 0.27163 0.79402 0.0
C587 C 0.83113 0.27527 0.78886 0.0
N588 N 0.86212 0.30883 0.80799 0.0
N589 N 0.8688 0.29232 0.80565 0.0
C590 C 0.82573 0.31276 0.79511 0.0
H591 H 0.83771 0.33072 0.78448 0.0
H592 H 0.82066 0.31579 0.81885 0.0
H593 H 0.80919 0.30298 0.78053 0.0
C594 C 0.89495 0.35765 0.91367 0.0
N595 N 0.89825 0.3607 0.88258 0.0
N596 N 0.88286 0.34057 0.86813 0.0
C597 C 0.86892 0.32405 0.88997 0.0
C598 C 0.87632 0.33438 0.91949 0.0
C599 C 0.90897 0.37699 0.93737 0.0
H600 H 0.92868 0.38445 0.93351 0.0
H601 H 0.90492 0.39188 0.93432 0.0
H602 H 0.90435 0.37006 0.96168 0.0
O603 O 0.94144 0.38083 0.83405 0.0
O604 O 0.917 0.3477 0.80724 0.0
H605 H 0.85608 0.28892 0.8703 0.0
H606 H 0.83933 0.28924 0.9044 0.0
C607 C 0.8487 0.29912 0.88275 0.0
H608 H 0.83548 0.3003 0.867 0.0
H609 H 0.88591 0.29524 0.81192 0.0
O610 O 0.94186 0.41436 0.88613 0.0
C611 C 0.93821 0.36465 0.81422 0.0
Co612 Co 0.07106 0.46439 0.65759 0.0
Co613 Co 0.10163 0.44553 0.69155 0.0
C614 C 0.10445 0.49224 0.71066 0.0
O615 O 0.08965 0.48993 0.68906 0.0
O616 O 0.11096 0.47645 0.7148 0.0
C617 C 0.05861 0.49623 0.62455 0.0
O618 O 0.08021 0.51381 0.63268 0.0
C619 C 0.14439 0.44276 0.71263 0.0
C620 C 0.12873 0.40308 0.71533 0.0
C621 C 0.15016 0.42484 0.71914 0.0
N622 N 0.1207 0.43194 0.70523 0.0
N623 N 0.11144 0.40826 0.70715 0.0
C624 C 0.16124 0.4695 0.71089 0.0
H625 H 0.15366 0.47801 0.6953 0.0
H626 H 0.17935 0.47356 0.70227 0.0
H627 H 0.1634 0.47739 0.73464 0.0
C628 C 0.09602 0.46025 0.60217 0.0
N629 N 0.0915 0.45785 0.63307 0.0
N630 N 0.10481 0.44999 0.6467 0.0
C631 C 0.11839 0.44718 0.62441 0.0
C632 C 0.11323 0.45367 0.59556 0.0
C633 C 0.08419 0.46892 0.57934 0.0
H634 H 0.06426 0.45877 0.58285 0.0
H635 H 0.09077 0.48839 0.58366 0.0
H636 H 0.08831 0.46658 0.55476 0.0
O637 O 0.04624 0.43495 0.6788 0.0
O638 O 0.06759 0.42178 0.70458 0.0
H639 H 0.12757 0.42193 0.64399 0.0
H640 H 0.14385 0.4364 0.6084 0.0
C641 C 0.13638 0.4391 0.63056 0.0
H642 H 0.15146 0.45297 0.64487 0.0
H643 H 0.09339 0.39561 0.70219 0.0
O644 O 0.05229 0.47459 0.63185 0.0
C645 C 0.04733 0.41991 0.69724 0.0
Co646 Co 0.60522 0.07512 0.64871 0.0
Co647 Co 0.65122 0.10851 0.68794 0.0
C648 C 0.60527 0.10997 0.69687 0.0
O649 O 0.595 0.09404 0.67547 0.0
O650 O 0.62737 0.11781 0.70468 0.0
C651 C 0.56309 0.05781 0.60779 0.0
O652 O 0.5632 0.0781 0.61369 0.0
C653 C 0.69618 0.15144 0.71164 0.0
C654 C 0.71933 0.13486 0.71679 0.0
C655 C 0.71953 0.1566 0.71923 0.0
N656 N 0.68295 0.12771 0.70472 0.0
N657 N 0.69685 0.11792 0.7083 0.0
C658 C 0.68721 0.16899 0.70821 0.0
H659 H 0.67088 0.1613 0.69302 0.0
H660 H 0.70166 0.18636 0.69835 0.0
H661 H 0.68226 0.17271 0.73164 0.0
C662 C 0.63812 0.09887 0.59615 0.0
N663 N 0.63372 0.09539 0.62701 0.0
N664 N 0.65337 0.11025 0.64276 0.0
C665 C 0.67099 0.12404 0.62191 0.0
C666 C 0.66181 0.11711 0.59178 0.0
C667 C 0.61957 0.08564 0.57124 0.0
H668 H 0.61098 0.06585 0.57517 0.0
H669 H 0.60528 0.09073 0.57268 0.0
H670 H 0.62763 0.08997 0.54745 0.0
O671 O 0.609 0.0518 0.67444 0.0
O672 O 0.64055 0.07518 0.70432 0.0
H673 H 0.70472 0.13648 0.64568 0.0
H674 H 0.70717 0.15205 0.6093 0.0
C675 C 0.69585 0.14383 0.63044 0.0
H676 H 0.69441 0.15802 0.6437 0.0
H677 H 0.69121 0.09978 0.70379 0.0
O678 O 0.57932 0.0543 0.61969 0.0
C679 C 0.62359 0.05431 0.69623 0.0
Co680 Co 0.52765 0.60805 0.66732 0.0
Co681 Co 0.53919 0.65596 0.70141 0.0
C682 C 0.49295 0.60877 0.71383 0.0
O683 O 0.49821 0.59747 0.69347 0.0
O684 O 0.50706 0.63127 0.71932 0.0
C685 C 0.50534 0.56393 0.62988 0.0
O686 O 0.4846 0.56341 0.63382 0.0
C687 C 0.53576 0.69884 0.72191 0.0
C688 C 0.57438 0.72412 0.73246 0.0
C689 C 0.55169 0.72215 0.73259 0.0
N690 N 0.54862 0.68775 0.71579 0.0
N691 N 0.57166 0.70302 0.72211 0.0
C692 C 0.5088 0.68694 0.71864 0.0
H693 H 0.50037 0.66699 0.7189 0.0
H694 H 0.50441 0.69225 0.69591 0.0
H695 H 0.50104 0.69282 0.73773 0.0
C696 C 0.53555 0.63797 0.61148 0.0
N697 N 0.5342 0.63498 0.64269 0.0
N698 N 0.53962 0.65554 0.65646 0.0
C699 C 0.5449 0.67247 0.63408 0.0
C700 C 0.54222 0.66174 0.6049 0.0
C701 C 0.53177 0.61867 0.58844 0.0
H702 H 0.54395 0.61147 0.59429 0.0
H703 H 0.51277 0.6036 0.59015 0.0
H704 H 0.53538 0.62555 0.56405 0.0
O705 O 0.55524 0.61487 0.69488 0.0
O706 O 0.56335 0.64845 0.72006 0.0
H707 H 0.5692 0.70642 0.65548 0.0
H708 H 0.55681 0.70898 0.61843 0.0
C709 C 0.5528 0.69843 0.64045 0.0
H710 H 0.53825 0.69953 0.65337 0.0
H711 H 0.58557 0.69898 0.71943 0.0
O712 O 0.52456 0.58127 0.64132 0.0
C713 C 0.56749 0.63119 0.71492 0.0
Co714 Co 0.92184 0.52575 0.66284 0.0
Co715 Co 0.88676 0.53952 0.69573 0.0
C716 C 0.88662 0.49347 0.71165 0.0
O717 O 0.90296 0.49796 0.69128 0.0
O718 O 0.87836 0.50784 0.71604 0.0
C719 C 0.93781 0.49824 0.62628 0.0
O720 O 0.91574 0.47992 0.63021 0.0
C721 C 0.84121 0.53688 0.71621 0.0
C722 C 0.85355 0.57566 0.72343 0.0
C723 C 0.83327 0.55274 0.72529 0.0
N724 N 0.865 0.54993 0.70945 0.0
N725 N 0.87224 0.57306 0.71387 0.0
C726 C 0.82642 0.51005 0.7119 0.0
H727 H 0.835 0.50396 0.69418 0.0
H728 H 0.80766 0.50467 0.70455 0.0
H729 H 0.82562 0.50102 0.73441 0.0
C730 C 0.89979 0.53279 0.6061 0.0
N731 N 0.90154 0.53203 0.63741 0.0
N732 N 0.88675 0.5382 0.65073 0.0
C733 C 0.87522 0.54332 0.62795 0.0
C734 C 0.88296 0.53978 0.59898 0.0
C735 C 0.91524 0.52855 0.58341 0.0
H736 H 0.90973 0.50907 0.58365 0.0
H737 H 0.91341 0.53371 0.5592 0.0
H738 H 0.93453 0.53914 0.59062 0.0
O739 O 0.94404 0.55445 0.68808 0.0
O740 O 0.91912 0.56377 0.71269 0.0
H741 H 0.86681 0.56911 0.64757 0.0
H742 H 0.85088 0.55541 0.61148 0.0
C743 C 0.85773 0.55211 0.63375 0.0
H744 H 0.84222 0.53844 0.6477 0.0
H745 H 0.88996 0.5871 0.71019 0.0
O746 O 0.94332 0.51879 0.63749 0.0
C747 C 0.94041 0.56752 0.70737 0.0
Co748 Co 0.39402 0.9249 0.65574 0.0
Co749 Co 0.34855 0.88675 0.69229 0.0
C750 C 0.39606 0.88779 0.69763 0.0
O751 O 0.4057 0.90543 0.67838 0.0
O752 O 0.37371 0.87811 0.70546 0.0
C753 C 0.43524 0.94685 0.6127 0.0
O754 O 0.43545 0.92635 0.61303 0.0
C755 C 0.30455 0.84091 0.71199 0.0
C756 C 0.28019 0.85554 0.72194 0.0
C757 C 0.28095 0.83425 0.72056 0.0
N758 N 0.31702 0.86511 0.70817 0.0
N759 N 0.3024 0.87368 0.71462 0.0
C760 C 0.31441 0.82452 0.70481 0.0
H761 H 0.33087 0.83395 0.68994 0.0
H762 H 0.30044 0.80784 0.69295 0.0
H763 H 0.31937 0.81913 0.72706 0.0
C764 C 0.36142 0.90426 0.60189 0.0
N765 N 0.36594 0.90518 0.63274 0.0
N766 N 0.34649 0.88867 0.64739 0.0
C767 C 0.32883 0.87656 0.62584 0.0
C768 C 0.33788 0.88609 0.59641 0.0
C769 C 0.37932 0.92062 0.57799 0.0
H770 H 0.38741 0.93971 0.58573 0.0
H771 H 0.39403 0.91618 0.57573 0.0
H772 H 0.37079 0.91861 0.55471 0.0
O773 O 0.38871 0.94509 0.68586 0.0
O774 O 0.35756 0.9181 0.71361 0.0
H775 H 0.29501 0.86256 0.64991 0.0
H776 H 0.29269 0.84947 0.61158 0.0
C777 C 0.30394 0.85625 0.63307 0.0
H778 H 0.30529 0.84125 0.64411 0.0
H779 H 0.30736 0.8919 0.71286 0.0
O780 O 0.41944 0.94881 0.62851 0.0
C781 C 0.37379 0.9399 0.70822 0.0
Co782 Co 0.46388 0.38951 0.66299 0.0
Co783 Co 0.45249 0.34144 0.69603 0.0
C784 C 0.49918 0.38773 0.70811 0.0
O785 O 0.4935 0.39932 0.68874 0.0
O786 O 0.48516 0.36516 0.71319 0.0
C787 C 0.4871 0.43409 0.62669 0.0
O788 O 0.50765 0.43429 0.63104 0.0
C789 C 0.45368 0.29975 0.72493 0.0
C790 C 0.41488 0.27195 0.7208 0.0
C791 C 0.43691 0.27587 0.73221 0.0
N792 N 0.44193 0.30937 0.70981 0.0
N793 N 0.41882 0.29263 0.70737 0.0
C794 C 0.47969 0.31401 0.73474 0.0
H795 H 0.49132 0.321 0.7136 0.0
H796 H 0.48529 0.3031 0.74895 0.0
H797 H 0.48247 0.32986 0.74874 0.0
C798 C 0.45482 0.35978 0.60654 0.0
N799 N 0.45647 0.36258 0.6378 0.0
N800 N 0.45178 0.34208 0.6511 0.0
C801 C 0.44714 0.32553 0.62833 0.0
C802 C 0.44889 0.33628 0.59946 0.0
C803 C 0.45865 0.37928 0.58389 0.0
H804 H 0.44663 0.38661 0.59015 0.0
H805 H 0.4777 0.39424 0.58557 0.0
H806 H 0.45492 0.37254 0.55942 0.0
O807 O 0.43664 0.38316 0.69091 0.0
O808 O 0.42907 0.34965 0.71573 0.0
H809 H 0.42228 0.28937 0.64257 0.0
H810 H 0.44291 0.29154 0.6121 0.0
C811 C 0.44121 0.30002 0.63396 0.0
H812 H 0.45345 0.29961 0.65213 0.0
H813 H 0.40561 0.29552 0.69706 0.0
O814 O 0.46759 0.41671 0.63747 0.0
C815 C 0.42479 0.36687 0.71112 0.0
H816 H 0.5225 0.04524 0.10184 0.0
H817 H 0.44437 0.00763 0.10874 0.0
H818 H 0.44296 0.96881 0.10499 0.0
H819 H 0.46438 0.94598 0.11071 0.0
H820 H 0.54261 0.98379 0.10618 0.0
H821 H 0.54344 0.02194 0.09744 0.0
C822 C 0.50513 0.02859 0.10168 0.0
C823 C 0.48367 0.02929 0.10655 0.0
C824 C 0.50446 0.00629 0.10044 0.0
C825 C 0.46125 0.00756 0.10574 0.0
C826 C 0.4604 0.98531 0.1037 0.0
C827 C 0.48156 0.96245 0.10701 0.0
C828 C 0.50339 0.96219 0.11007 0.0
C829 C 0.48197 0.98448 0.1028 0.0
C830 C 0.52552 0.98362 0.1047 0.0
C831 C 0.52605 0.00548 0.09974 0.0
H832 H 0.54914 0.5347 0.1121 0.0
H833 H 0.51839 0.45709 0.11411 0.0
H834 H 0.47813 0.45161 0.10427 0.0
H835 H 0.45132 0.46881 0.10567 0.0
H836 H 0.48192 0.5464 0.10845 0.0
H837 H 0.5227 0.55196 0.10496 0.0
C838 C 0.5337 0.51656 0.10984 0.0
C839 C 0.53659 0.49632 0.11474 0.0
C840 C 0.51058 0.51357 0.10529 0.0
C841 C 0.51657 0.47296 0.11092 0.0
C842 C 0.49353 0.46983 0.10543 0.0
C843 C 0.46688 0.48697 0.10484 0.0
C844 C 0.46366 0.50716 0.10829 0.0
C845 C 0.49023 0.48999 0.10421 0.0
C846 C 0.48392 0.53055 0.10636 0.0
C847 C 0.50725 0.53374 0.10458 0.0
H848 H 0.04161 0.51694 0.09683 0.0
H849 H 0.00727 0.55947 0.11529 0.0
H850 H 0.96745 0.52372 0.10934 0.0
H851 H 0.94295 0.47947 0.11058 0.0
H852 H 0.97727 0.43676 0.09367 0.0
H853 H 0.01628 0.47345 0.08641 0.0
C854 C 0.02544 0.5185 0.09873 0.0
C855 C 0.02738 0.54058 0.10765 0.0
C856 C 0.00249 0.49775 0.09592 0.0
C857 C 0.00627 0.54247 0.10932 0.0
C858 C 0.98342 0.52202 0.10594 0.0
C859 C 0.9588 0.47818 0.10433 0.0
C860 C 0.95743 0.45554 0.10382 0.0
C861 C 0.98134 0.49936 0.10106 0.0
C862 C 0.97802 0.4541 0.09507 0.0
C863 C 0.00038 0.47506 0.09102 0.0
H864 H 0.05604 0.53455 0.39978 0.0
H865 H 0.01923 0.45708 0.41276 0.0
H866 H 0.98082 0.45615 0.4201 0.0
H867 H 0.95684 0.47606 0.41159 0.0
H868 H 0.99358 0.55337 0.39694 0.0
H869 H 0.03274 0.55564 0.40218 0.0
C870 C 0.03976 0.51758 0.40512 0.0
C871 C 0.04031 0.49586 0.40466 0.0
C872 C 0.01757 0.51704 0.4085 0.0
C873 C 0.01914 0.47403 0.41217 0.0
C874 C 0.99712 0.47344 0.4163 0.0
C875 C 0.97339 0.49347 0.41034 0.0
C876 C 0.97232 0.51433 0.40279 0.0
C877 C 0.99592 0.49463 0.41268 0.0
C878 C 0.99391 0.53688 0.40191 0.0
C879 C 0.01637 0.53823 0.40486 0.0
H880 H 0.47836 0.94764 0.40298 0.0
H881 H 0.44009 0.9876 0.40698 0.0
H882 H 0.47805 0.02504 0.41618 0.0
H883 H 0.52232 0.04714 0.41195 0.0
H884 H 0.56072 0.0074 0.40554 0.0
H885 H 0.52258 0.96926 0.40929 0.0
C886 C 0.47826 0.96443 0.40668 0.0
C887 C 0.45661 0.96499 0.40328 0.0
C888 C 0.50024 0.98604 0.41116 0.0
C889 C 0.45666 0.9868 0.40868 0.0
C890 C 0.47837 0.00826 0.41392 0.0
C891 C 0.52242 0.03017 0.41227 0.0
C892 C 0.54418 0.03006 0.40744 0.0
C893 C 0.50037 0.00826 0.41346 0.0
C894 C 0.54408 0.00794 0.40847 0.0
C895 C 0.52227 0.98608 0.4105 0.0
H896 H 0.53926 0.48175 0.4082 0.0
H897 H 0.46169 0.44188 0.42205 0.0
H898 H 0.46165 0.47938 0.43281 0.0
H899 H 0.48222 0.52341 0.42681 0.0
H900 H 0.55951 0.56333 0.41059 0.0
H901 H 0.56113 0.526 0.41308 0.0
C902 C 0.52247 0.48121 0.41445 0.0
C903 C 0.50045 0.45923 0.41329 0.0
C904 C 0.52244 0.50292 0.41976 0.0
C905 C 0.47885 0.45873 0.42197 0.0
C906 C 0.47877 0.48016 0.42809 0.0
C907 C 0.49952 0.52404 0.4247 0.0
C908 C 0.52053 0.54594 0.41744 0.0
C909 C 0.50024 0.50242 0.42523 0.0
C910 C 0.54291 0.54655 0.4154 0.0
C911 C 0.54388 0.52519 0.41672 0.0
H912 H 0.52459 0.0451 0.92687 0.0
H913 H 0.44718 0.01052 0.91278 0.0
H914 H 0.44331 0.97092 0.92045 0.0
H915 H 0.46315 0.94646 0.91801 0.0
H916 H 0.54078 0.98107 0.92946 0.0
H917 H 0.5432 0.02011 0.93695 0.0
C918 C 0.5068 0.02896 0.92644 0.0
C919 C 0.48638 0.03063 0.91805 0.0
C920 C 0.50475 0.00614 0.92996 0.0
C921 C 0.46334 0.00962 0.91825 0.0
C922 C 0.46107 0.98693 0.9226 0.0
C923 C 0.48046 0.96239 0.92324 0.0
C924 C 0.50182 0.96112 0.92202 0.0
C925 C 0.48185 0.98494 0.92641 0.0
C926 C 0.52412 0.98179 0.9294 0.0
C927 C 0.52555 0.00415 0.93356 0.0
H928 H 0.44598 0.46139 0.89752 0.0
H929 H 0.47435 0.53867 0.89919 0.0
H930 H 0.51555 0.54547 0.90354 0.0
H931 H 0.54339 0.52969 0.89768 0.0
H932 H 0.51502 0.4525 0.89247 0.0
H933 H 0.47387 0.44544 0.89924 0.0
C934 C 0.46113 0.47973 0.89941 0.0
C935 C 0.45717 0.49952 0.89724 0.0
C936 C 0.48477 0.48352 0.90091 0.0
C937 C 0.47692 0.52313 0.90037 0.0
C938 C 0.5005 0.52704 0.9027 0.0
C939 C 0.52826 0.51129 0.89855 0.0
C940 C 0.53218 0.49166 0.89379 0.0
C941 C 0.50465 0.5074 0.90152 0.0
C942 C 0.51246 0.46794 0.89565 0.0
C943 C 0.48891 0.46389 0.89938 0.0
H944 H 0.94475 0.47638 0.90424 0.0
H945 H 0.98184 0.43569 0.91534 0.0
H946 H 0.02049 0.47314 0.92057 0.0
H947 H 0.04424 0.51684 0.91094 0.0
H948 H 0.00713 0.55734 0.89777 0.0
H949 H 0.96813 0.52069 0.905 0.0
C950 C 0.96118 0.47569 0.90869 0.0
C951 C 0.96056 0.45338 0.90838 0.0
C952 C 0.98347 0.4973 0.91077 0.0
C953 C 0.98194 0.45273 0.91471 0.0
C954 C 0.00409 0.47414 0.91761 0.0
C955 C 0.02767 0.51775 0.91041 0.0
C956 C 0.02854 0.53958 0.9028 0.0
C957 C 0.00521 0.49649 0.91387 0.0
C958 C 0.00693 0.54059 0.90282 0.0
C959 C 0.98457 0.51963 0.90692 0.0
H960 H 0.98456 0.5325 0.61557 0.0
H961 H 0.93508 0.45545 0.60978 0.0
H962 H 0.96919 0.44857 0.60194 0.0
H963 H 0.01273 0.4638 0.60689 0.0
H964 H 0.06211 0.54055 0.61736 0.0
H965 H 0.02831 0.54824 0.61245 0.0
C966 C 0.98117 0.51421 0.61202 0.0
C967 C 0.95738 0.49444 0.61414 0.0
C968 C 0.00086 0.51034 0.60867 0.0
C969 C 0.95325 0.47094 0.60875 0.0
C970 C 0.97276 0.46699 0.6044 0.0
C971 C 0.01621 0.48228 0.60749 0.0
C972 C 0.0398 0.50153 0.61339 0.0
C973 C 0.99663 0.48646 0.60592 0.0
C974 C 0.04408 0.52538 0.61334 0.0
C975 C 0.02473 0.52977 0.61072 0.0
H976 H 0.51854 0.05257 0.59774 0.0
H977 H 0.5595 0.0157 0.58719 0.0
H978 H 0.52208 0.97715 0.58103 0.0
H979 H 0.47832 0.95337 0.59098 0.0
H980 H 0.43756 0.99025 0.60393 0.0
H981 H 0.47416 0.0292 0.59613 0.0
C982 C 0.51931 0.03623 0.59309 0.0
C983 C 0.54164 0.03682 0.59403 0.0
C984 C 0.4977 0.01398 0.59059 0.0
C985 C 0.54241 0.01558 0.58741 0.0
C986 C 0.52102 0.99348 0.58399 0.0
C987 C 0.47732 0.96987 0.5912 0.0
C988 C 0.4555 0.96901 0.59914 0.0
C989 C 0.49858 0.99231 0.58753 0.0
C990 C 0.45436 0.9905 0.59873 0.0
C991 C 0.47528 0.01282 0.59431 0.0
H992 H 0.52581 0.47869 0.61501 0.0
H993 H 0.44751 0.43829 0.61307 0.0
H994 H 0.44632 0.47572 0.6081 0.0
H995 H 0.46721 0.5198 0.6146 0.0
H996 H 0.54547 0.56016 0.61823 0.0
H997 H 0.54692 0.52297 0.61159 0.0
C998 C 0.50851 0.47803 0.6127 0.0
C999 C 0.48682 0.45583 0.61538 0.0
C1000 C 0.50789 0.49967 0.61059 0.0
C1001 C 0.46453 0.45523 0.61181 0.0
C1002 C 0.46379 0.47664 0.60903 0.0
C1003 C 0.48459 0.52053 0.61318 0.0
C1004 C 0.50612 0.54259 0.61787 0.0
C1005 C 0.48532 0.499 0.61006 0.0
C1006 C 0.52854 0.5433 0.6154 0.0
C1007 C 0.52942 0.52203 0.61167 0.0
H1008 H 0.47178 0.27506 0.26024 0.0
H1009 H 0.40758 0.23285 0.31601 0.0
H1010 H 0.40797 0.19593 0.30247 0.0
H1011 H 0.42427 0.17528 0.27156 0.0
H1012 H 0.48724 0.21633 0.21348 0.0
H1013 H 0.4901 0.25413 0.23179 0.0
C1014 C 0.45826 0.25784 0.26996 0.0
C1015 C 0.43969 0.25665 0.28912 0.0
C1016 C 0.45836 0.23651 0.26163 0.0
C1017 C 0.42195 0.23417 0.30104 0.0
C1018 C 0.42217 0.21306 0.29336 0.0
C1019 C 0.43881 0.19252 0.26316 0.0
C1020 C 0.45557 0.19303 0.24136 0.0
C1021 C 0.43992 0.21396 0.27313 0.0
C1022 C 0.47437 0.21547 0.23075 0.0
C1023 C 0.47583 0.23707 0.24095 0.0
H1024 H 0.25182 0.42038 0.27652 0.0
H1025 H 0.26941 0.47578 0.207 0.0
H1026 H 0.23418 0.47889 0.22257 0.0
H1027 H 0.19614 0.46322 0.25306 0.0
H1028 H 0.17731 0.40542 0.31914 0.0
H1029 H 0.21504 0.40572 0.30766 0.0
C1030 C 0.24808 0.43328 0.26487 0.0
C1031 C 0.26358 0.44811 0.24101 0.0
C1032 C 0.22734 0.43437 0.27319 0.0
C1033 C 0.25838 0.46468 0.22615 0.0
C1034 C 0.23796 0.46624 0.23476 0.0
C1035 C 0.20061 0.45107 0.2653 0.0
C1036 C 0.18414 0.4344 0.28699 0.0
C1037 C 0.2221 0.45091 0.25795 0.0
C1038 C 0.18977 0.41835 0.30228 0.0
C1039 C 0.2113 0.41851 0.29573 0.0
H1040 H 0.80407 0.27117 0.25977 0.0
H1041 H 0.82653 0.23163 0.1995 0.0
H1042 H 0.78866 0.19422 0.20984 0.0
H1043 H 0.75092 0.17234 0.23887 0.0
H1044 H 0.72948 0.21062 0.30296 0.0
H1045 H 0.76476 0.24899 0.28768 0.0
C1046 C 0.80037 0.25441 0.24852 0.0
C1047 C 0.81791 0.25402 0.22889 0.0
C1048 C 0.77876 0.2328 0.25523 0.0
C1049 C 0.81325 0.23221 0.21483 0.0
C1050 C 0.79164 0.21087 0.2207 0.0
C1051 C 0.75381 0.1891 0.24934 0.0
C1052 C 0.73737 0.18858 0.2717 0.0
C1053 C 0.77454 0.21088 0.24135 0.0
C1054 C 0.74138 0.21046 0.28502 0.0
C1055 C 0.7618 0.23243 0.2766 0.0
H1056 H 0.52065 0.79583 0.2584 0.0
H1057 H 0.57784 0.81148 0.19213 0.0
H1058 H 0.57712 0.77411 0.20617 0.0
H1059 H 0.56395 0.73989 0.24152 0.0
H1060 H 0.50837 0.7245 0.31001 0.0
H1061 H 0.50421 0.75847 0.29048 0.0
C1062 C 0.53244 0.79066 0.24653 0.0
C1063 C 0.54934 0.80634 0.22438 0.0
C1064 C 0.5323 0.76931 0.25526 0.0
C1065 C 0.56485 0.79973 0.20946 0.0
C1066 C 0.56445 0.7784 0.21746 0.0
C1067 C 0.55061 0.74374 0.25176 0.0
C1068 C 0.53645 0.72984 0.27701 0.0
C1069 C 0.54884 0.7635 0.241 0.0
C1070 C 0.51919 0.73483 0.29018 0.0
C1071 C 0.51702 0.75438 0.27923 0.0
H1072 H 0.72644 0.5291 0.25564 0.0
H1073 H 0.76796 0.59156 0.19695 0.0
H1074 H 0.80527 0.59218 0.21153 0.0
H1075 H 0.82645 0.57731 0.24417 0.0
H1076 H 0.78592 0.51586 0.30449 0.0
H1077 H 0.74776 0.51203 0.28551 0.0
C1078 C 0.74357 0.54241 0.24544 0.0
C1079 C 0.74446 0.56022 0.22518 0.0
C1080 C 0.7651 0.54288 0.25429 0.0
C1081 C 0.76687 0.57775 0.21274 0.0
C1082 C 0.7882 0.57812 0.22103 0.0
C1083 C 0.80921 0.56288 0.25283 0.0
C1084 C 0.80888 0.54678 0.27542 0.0
C1085 C 0.78758 0.56115 0.24231 0.0
C1086 C 0.78654 0.52816 0.28657 0.0
C1087 C 0.76477 0.52614 0.27596 0.0
H1088 H 0.27077 0.80241 0.2567 0.0
H1089 H 0.22876 0.8198 0.31997 0.0
H1090 H 0.19207 0.78238 0.30601 0.0
H1091 H 0.17136 0.74682 0.27259 0.0
H1092 H 0.2122 0.72953 0.20739 0.0
H1093 H 0.25006 0.76445 0.22582 0.0
C1094 C 0.25369 0.79765 0.26795 0.0
C1095 C 0.25242 0.81377 0.28935 0.0
C1096 C 0.23249 0.77621 0.25939 0.0
C1097 C 0.2301 0.80771 0.30328 0.0
C1098 C 0.20913 0.78633 0.29534 0.0
C1099 C 0.18861 0.75054 0.26272 0.0
C1100 C 0.1891 0.73564 0.2389 0.0
C1101 C 0.21003 0.7708 0.27289 0.0
C1102 C 0.21148 0.74054 0.22623 0.0
C1103 C 0.23306 0.76063 0.23653 0.0
H1104 H 0.52841 0.80665 0.7547 0.0
H1105 H 0.58968 0.83003 0.81652 0.0
H1106 H 0.59075 0.79297 0.80597 0.0
H1107 H 0.57634 0.7556 0.77654 0.0
H1108 H 0.51742 0.73332 0.71094 0.0
H1109 H 0.51295 0.76785 0.72603 0.0
C1110 C 0.54166 0.80331 0.76619 0.0
C1111 C 0.55892 0.82087 0.78636 0.0
C1112 C 0.54259 0.7822 0.75932 0.0
C1113 C 0.57631 0.81671 0.80079 0.0
C1114 C 0.57693 0.79557 0.79478 0.0
C1115 C 0.56238 0.75817 0.76564 0.0
C1116 C 0.54702 0.74164 0.74299 0.0
C1117 C 0.5605 0.77846 0.77361 0.0
C1118 C 0.52904 0.74525 0.72913 0.0
C1119 C 0.52668 0.76524 0.73746 0.0
H1120 H 0.81366 0.58099 0.71563 0.0
H1121 H 0.79882 0.51398 0.7593 0.0
H1122 H 0.76078 0.50879 0.78032 0.0
H1123 H 0.73361 0.52546 0.79044 0.0
H1124 H 0.75031 0.59372 0.749 0.0
H1125 H 0.78584 0.59642 0.72326 0.0
C1126 C 0.80199 0.56511 0.72951 0.0
C1127 C 0.80895 0.54778 0.73551 0.0
C1128 C 0.78055 0.56261 0.74219 0.0
C1129 C 0.79365 0.5273 0.75354 0.0
C1130 C 0.77199 0.52447 0.76593 0.0
C1131 C 0.74475 0.54058 0.77516 0.0
C1132 C 0.73932 0.55926 0.7713 0.0
C1133 C 0.76547 0.54224 0.76087 0.0
C1134 C 0.7542 0.57913 0.7522 0.0
C1135 C 0.77449 0.58069 0.73752 0.0
H1136 H 0.27703 0.79637 0.75512 0.0
H1137 H 0.2368 0.81835 0.69551 0.0
H1138 H 0.19922 0.78131 0.70791 0.0
H1139 H 0.17725 0.7452 0.74002 0.0
H1140 H 0.21618 0.7236 0.80241 0.0
H1141 H 0.25485 0.75758 0.7843 0.0
C1142 C 0.26009 0.79266 0.74434 0.0
C1143 C 0.25956 0.80998 0.72452 0.0
C1144 C 0.23834 0.7715 0.75226 0.0
C1145 C 0.23752 0.80527 0.711 0.0
C1146 C 0.21605 0.78414 0.7181 0.0
C1147 C 0.19425 0.74774 0.74928 0.0
C1148 C 0.19396 0.73192 0.77228 0.0
C1149 C 0.21616 0.76753 0.7394 0.0
C1150 C 0.21602 0.73532 0.78419 0.0
C1151 C 0.23809 0.75489 0.77408 0.0
H1152 H 0.42537 0.18594 0.80583 0.0
H1153 H 0.48882 0.20108 0.75222 0.0
H1154 H 0.49128 0.23825 0.73202 0.0
H1155 H 0.47218 0.26367 0.72506 0.0
H1156 H 0.40792 0.24696 0.77803 0.0
H1157 H 0.4088 0.21301 0.8029 0.0
C1158 C 0.43993 0.19757 0.79003 0.0
C1159 C 0.45685 0.19086 0.78046 0.0
C1160 C 0.44089 0.21846 0.77818 0.0
C1161 C 0.47576 0.20608 0.76021 0.0
C1162 C 0.47701 0.22718 0.74844 0.0
C1163 C 0.45884 0.25298 0.74271 0.0
C1164 C 0.44009 0.25782 0.74993 0.0
C1165 C 0.45928 0.23322 0.75666 0.0
C1166 C 0.42247 0.24348 0.77214 0.0
C1167 C 0.42296 0.2241 0.78635 0.0
H1168 H 0.18649 0.45884 0.75615 0.0
H1169 H 0.1664 0.39496 0.70061 0.0
H1170 H 0.20324 0.3952 0.71673 0.0
H1171 H 0.23978 0.41194 0.74892 0.0
H1172 H 0.26001 0.47517 0.80557 0.0
H1173 H 0.22487 0.47729 0.78606 0.0
C1174 C 0.19049 0.44538 0.74694 0.0
C1175 C 0.17381 0.42701 0.72701 0.0
C1176 C 0.21171 0.44551 0.75652 0.0
C1177 C 0.17892 0.40924 0.71607 0.0
C1178 C 0.19998 0.40936 0.72523 0.0
C1179 C 0.23661 0.42633 0.75671 0.0
C1180 C 0.25253 0.44354 0.77828 0.0
C1181 C 0.21627 0.42715 0.74583 0.0
C1182 C 0.24827 0.46206 0.78836 0.0
C1183 C 0.22806 0.46311 0.77747 0.0
H1184 H 0.72426 0.19314 0.75756 0.0
H1185 H 0.7641 0.17218 0.69546 0.0
H1186 H 0.80194 0.20834 0.70968 0.0
H1187 H 0.8241 0.24399 0.74266 0.0
H1188 H 0.78536 0.26443 0.80725 0.0
H1189 H 0.74667 0.23077 0.78881 0.0
C1190 C 0.74118 0.19684 0.7467 0.0
C1191 C 0.74146 0.18011 0.72549 0.0
C1192 C 0.76305 0.21751 0.75552 0.0
C1193 C 0.76352 0.18479 0.712 0.0
C1194 C 0.78515 0.20543 0.7201 0.0
C1195 C 0.80715 0.24122 0.75246 0.0
C1196 C 0.80751 0.2568 0.77592 0.0
C1197 C 0.78519 0.22159 0.74233 0.0
C1198 C 0.78549 0.25302 0.78855 0.0
C1199 C 0.76339 0.23362 0.77826 0.0
H1200 H 0.3961 0.01701 0.19708 0.0
H1201 H 0.43007 0.06782 0.27267 0.0
H1202 H 0.41084 0.03493 0.31077 0.0
H1203 H 0.38959 0.99106 0.32166 0.0
H1204 H 0.3543 0.94048 0.24615 0.0
H1205 H 0.36841 0.97394 0.20899 0.0
C1206 C 0.39876 0.02092 0.22195 0.0
C1207 C 0.41469 0.0447 0.23209 0.0
C1208 C 0.3876 0.00193 0.24368 0.0
C1209 C 0.41784 0.04964 0.26433 0.0
C1210 C 0.40702 0.03081 0.2861 0.0
C1211 C 0.38451 0.98744 0.29718 0.0
C1212 C 0.37124 0.96335 0.28657 0.0
C1213 C 0.39264 0.00678 0.27594 0.0
C1214 C 0.3645 0.95886 0.25489 0.0
C1215 C 0.37274 0.97798 0.23358 0.0
H1216 H 0.37034 0.42068 0.26269 0.0
H1217 H 0.39606 0.40678 0.17611 0.0
H1218 H 0.41075 0.38313 0.20405 0.0
H1219 H 0.42145 0.37145 0.25386 0.0
H1220 H 0.40046 0.39007 0.34082 0.0
H1221 H 0.37845 0.40639 0.31227 0.0
C1222 C 0.3786 0.41193 0.24992 0.0
C1223 C 0.38209 0.41539 0.21743 0.0
C1224 C 0.38806 0.39936 0.26636 0.0
C1225 C 0.39323 0.40436 0.20116 0.0
C1226 C 0.40169 0.39091 0.21713 0.0
C1227 C 0.41144 0.37845 0.26646 0.0
C1228 C 0.41236 0.37943 0.29932 0.0
C1229 C 0.39995 0.38898 0.24985 0.0
C1230 C 0.39986 0.38907 0.31549 0.0
C1231 C 0.38741 0.39852 0.29917 0.0
H1232 H 0.05115 0.41752 0.24909 0.0
H1233 H 0.01232 0.39496 0.33648 0.0
H1234 H 0.97386 0.37228 0.3083 0.0
H1235 H 0.95101 0.364 0.25914 0.0
H1236 H 0.9896 0.39154 0.17228 0.0
H1237 H 0.02836 0.40687 0.19957 0.0
C1238 C 0.03429 0.40702 0.26184 0.0
C1239 C 0.03445 0.40763 0.29471 0.0
C1240 C 0.01218 0.3952 0.24548 0.0
C1241 C 0.01253 0.39455 0.31112 0.0
C1242 C 0.99057 0.38173 0.29503 0.0
C1243 C 0.96791 0.3728 0.24614 0.0
C1244 C 0.96753 0.37659 0.21379 0.0
C1245 C 0.9901 0.38264 0.26224 0.0
C1246 C 0.98952 0.38844 0.19723 0.0
C1247 C 0.01166 0.39727 0.21283 0.0
H1248 H 0.5961 0.98478 0.19199 0.0
H1249 H 0.5763 0.93454 0.26879 0.0
H1250 H 0.59623 0.96821 0.30564 0.0
H1251 H 0.61373 0.01178 0.31651 0.0
H1252 H 0.63517 0.06212 0.23963 0.0
H1253 H 0.62054 0.02864 0.20226 0.0
C1254 C 0.5967 0.98126 0.21672 0.0
C1255 C 0.58448 0.95727 0.22774 0.0
C1256 C 0.60826 0.00071 0.23776 0.0
C1257 C 0.58559 0.95286 0.25974 0.0
C1258 C 0.59681 0.97211 0.28086 0.0
C1259 C 0.6157 0.01541 0.29156 0.0
C1260 C 0.62516 0.03928 0.28078 0.0
C1261 C 0.60736 0.99609 0.27024 0.0
C1262 C 0.62793 0.04386 0.24845 0.0
C1263 C 0.6194 0.02471 0.22709 0.0
H1264 H 0.60304 0.61899 0.3196 0.0
H1265 H 0.56392 0.63186 0.24686 0.0
H1266 H 0.58094 0.61656 0.20757 0.0
H1267 H 0.60207 0.59388 0.19541 0.0
H1268 H 0.64253 0.58269 0.26805 0.0
H1269 H 0.63019 0.60329 0.30575 0.0
C1270 C 0.59878 0.61903 0.29502 0.0
C1271 C 0.58208 0.62627 0.28612 0.0
C1272 C 0.60863 0.61023 0.27261 0.0
C1273 C 0.57681 0.62645 0.25423 0.0
C1274 C 0.58635 0.61748 0.2318 0.0
C1275 C 0.60858 0.59643 0.21935 0.0
C1276 C 0.62287 0.58644 0.22905 0.0
C1277 C 0.60153 0.60845 0.24092 0.0
C1278 C 0.63148 0.59016 0.26 0.0
C1279 C 0.62431 0.6018 0.28165 0.0
H1280 H 0.9863 0.60208 0.31795 0.0
H1281 H 0.93511 0.57427 0.24177 0.0
H1282 H 0.96841 0.59241 0.20396 0.0
H1283 H 0.01221 0.61047 0.19309 0.0
H1284 H 0.06333 0.63984 0.26927 0.0
H1285 H 0.02999 0.62717 0.30656 0.0
C1286 C 0.98246 0.60062 0.29306 0.0
C1287 C 0.95836 0.58667 0.2826 0.0
C1288 C 0.00169 0.6111 0.2715 0.0
C1289 C 0.95352 0.58501 0.25035 0.0
C1290 C 0.97257 0.59517 0.22873 0.0
C1291 C 0.01602 0.6146 0.21779 0.0
C1292 C 0.04014 0.62574 0.22851 0.0
C1293 C 0.99675 0.60739 0.23907 0.0
C1294 C 0.04491 0.63128 0.26047 0.0
C1295 C 0.02584 0.62388 0.28183 0.0
H1296 H 0.57843 0.95059 0.75483 0.0
H1297 H 0.59172 0.99231 0.83945 0.0
H1298 H 0.61466 0.02988 0.80987 0.0
H1299 H 0.62617 0.05088 0.75912 0.0
H1300 H 0.60853 0.00905 0.67405 0.0
H1301 H 0.59249 0.97165 0.70441 0.0
C1302 C 0.58683 0.96791 0.76684 0.0
C1303 C 0.58338 0.96871 0.79923 0.0
C1304 C 0.59909 0.98946 0.74948 0.0
C1305 C 0.59406 0.99127 0.81448 0.0
C1306 C 0.60713 0.01275 0.79757 0.0
C1307 C 0.61941 0.0336 0.74733 0.0
C1308 C 0.61861 0.03265 0.71447 0.0
C1309 C 0.60911 0.0121 0.76493 0.0
C1310 C 0.60934 0.01016 0.69937 0.0
C1311 C 0.60007 0.98878 0.71671 0.0
H1312 H 0.60955 0.59756 0.82332 0.0
H1313 H 0.63564 0.57414 0.74517 0.0
H1314 H 0.62223 0.59475 0.7089 0.0
H1315 H 0.59744 0.61398 0.69929 0.0
H1316 H 0.57343 0.63944 0.7775 0.0
H1317 H 0.59205 0.62392 0.81393 0.0
C1318 C 0.61284 0.59755 0.7984 0.0
C1319 C 0.62327 0.58416 0.78683 0.0
C1320 C 0.60527 0.60961 0.77772 0.0
C1321 C 0.62769 0.5844 0.75458 0.0
C1322 C 0.61984 0.596 0.73382 0.0
C1323 C 0.59688 0.61667 0.72429 0.0
C1324 C 0.58387 0.62754 0.73577 0.0
C1325 C 0.60778 0.60786 0.74507 0.0
C1326 C 0.58341 0.63117 0.76814 0.0
C1327 C 0.59387 0.62211 0.78899 0.0
H1328 H 0.01587 0.61595 0.81546 0.0
H1329 H 0.06592 0.63292 0.73885 0.0
H1330 H 0.03234 0.61787 0.70146 0.0
H1331 H 0.9882 0.59401 0.69161 0.0
H1332 H 0.93841 0.57895 0.76816 0.0
H1333 H 0.97239 0.59946 0.80446 0.0
C1334 C 0.01944 0.61699 0.7905 0.0
C1335 C 0.04323 0.62529 0.77988 0.0
C1336 C 6e-05 0.60836 0.76919 0.0
C1337 C 0.04774 0.62671 0.74754 0.0
C1338 C 0.02852 0.61787 0.72618 0.0
C1339 C 0.98485 0.59575 0.71612 0.0
C1340 C 0.96085 0.58468 0.72728 0.0
C1341 C 0.00451 0.60776 0.73686 0.0
C1342 C 0.95672 0.5873 0.75899 0.0
C1343 C 0.97614 0.59889 0.77982 0.0
H1344 H 0.40575 0.01254 0.82069 0.0
H1345 H 0.42972 0.06403 0.74487 0.0
H1346 H 0.41019 0.03099 0.70706 0.0
H1347 H 0.39121 0.98743 0.69535 0.0
H1348 H 0.36576 0.9359 0.77112 0.0
H1349 H 0.38058 0.96895 0.80917 0.0
C1350 C 0.40625 0.01651 0.79592 0.0
C1351 C 0.41944 0.04065 0.78554 0.0
C1352 C 0.39489 0.99742 0.77431 0.0
C1353 C 0.4197 0.0456 0.75345 0.0
C1354 C 0.40868 0.0267 0.73179 0.0
C1355 C 0.38847 0.98346 0.72019 0.0
C1356 C 0.37772 0.95932 0.73046 0.0
C1357 C 0.39696 0.00254 0.7419 0.0
C1358 C 0.37397 0.95434 0.76265 0.0
C1359 C 0.38262 0.97325 0.78442 0.0
H1360 H 0.38147 0.39756 0.82173 0.0
H1361 H 0.35543 0.42227 0.74504 0.0
H1362 H 0.36962 0.40298 0.70765 0.0
H1363 H 0.39486 0.38439 0.69683 0.0
H1364 H 0.41889 0.3577 0.77353 0.0
H1365 H 0.39974 0.37207 0.81089 0.0
C1366 C 0.37836 0.39814 0.79686 0.0
C1367 C 0.36769 0.41151 0.78608 0.0
C1368 C 0.38642 0.38688 0.77553 0.0
C1369 C 0.36353 0.41201 0.75387 0.0
C1370 C 0.37184 0.40117 0.73247 0.0
C1371 C 0.39535 0.38122 0.72169 0.0
C1372 C 0.40848 0.3703 0.73249 0.0
C1373 C 0.38412 0.38934 0.74301 0.0
C1374 C 0.40884 0.36603 0.76469 0.0
C1375 C 0.39805 0.37442 0.78607 0.0
H1376 H 0.04216 0.40563 0.75781 0.0
H1377 H 0.00189 0.39533 0.6726 0.0
H1378 H 0.96367 0.37262 0.70118 0.0
H1379 H 0.94194 0.36144 0.75154 0.0
H1380 H 0.98257 0.37676 0.83734 0.0
H1381 H 0.02025 0.3913 0.80769 0.0
C1382 C 0.025 0.39779 0.74542 0.0
C1383 C 0.02479 0.40205 0.71318 0.0
C1384 C 0.00311 0.38584 0.7623 0.0
C1385 C 0.00245 0.39225 0.69745 0.0
C1386 C 0.98061 0.37936 0.7138 0.0
C1387 C 0.95898 0.36725 0.76362 0.0
C1388 C 0.95956 0.36789 0.79649 0.0
C1389 C 0.98071 0.37684 0.74641 0.0
C1390 C 0.98176 0.37602 0.812 0.0
C1391 C 0.0033 0.38447 0.79506 0.0
H1392 H 0.51713 0.11987 0.26121 0.0
H1393 H 0.54665 0.11334 0.17333 0.0
H1394 H 0.58193 0.11625 0.20041 0.0
H1395 H 0.60195 0.11584 0.24963 0.0
H1396 H 0.5693 0.11646 0.33775 0.0
H1397 H 0.53796 0.12096 0.31037 0.0
C1398 C 0.53162 0.11969 0.24801 0.0
C1399 C 0.52949 0.11669 0.21532 0.0
C1400 C 0.55121 0.12009 0.26393 0.0
C1401 C 0.54802 0.1158 0.19849 0.0
C1402 C 0.56812 0.11736 0.21399 0.0
C1403 C 0.58829 0.11758 0.26277 0.0
C1404 C 0.58805 0.11614 0.29563 0.0
C1405 C 0.5696 0.11885 0.24678 0.0
C1406 C 0.5699 0.11771 0.31244 0.0
C1407 C 0.55193 0.12017 0.29678 0.0
H1408 H 0.47668 0.60407 0.26742 0.0
H1409 H 0.45638 0.55842 0.34915 0.0
H1410 H 0.42182 0.52628 0.32088 0.0
H1411 H 0.40057 0.50929 0.27087 0.0
H1412 H 0.42445 0.5533 0.18773 0.0
H1413 H 0.45406 0.58797 0.21841 0.0
C1414 C 0.46435 0.5873 0.27925 0.0
C1415 C 0.46904 0.58366 0.31037 0.0
C1416 C 0.4452 0.5685 0.26239 0.0
C1417 C 0.45315 0.56165 0.3252 0.0
C1418 C 0.43343 0.54324 0.30901 0.0
C1419 C 0.41183 0.5267 0.25976 0.0
C1420 C 0.41021 0.52893 0.22723 0.0
C1421 C 0.4297 0.54617 0.27731 0.0
C1422 C 0.42532 0.55131 0.21281 0.0
C1423 C 0.44232 0.57107 0.23031 0.0
H1424 H 0.8898 0.45367 0.32258 0.0
H1425 H 0.87487 0.48949 0.24747 0.0
H1426 H 0.87167 0.45874 0.21056 0.0
H1427 H 0.87772 0.42422 0.19855 0.0
H1428 H 0.88935 0.38638 0.27405 0.0
H1429 H 0.88888 0.41502 0.31186 0.0
C1430 C 0.88538 0.45444 0.29825 0.0
C1431 C 0.88283 0.47398 0.28774 0.0
C1432 C 0.88311 0.43639 0.27716 0.0
C1433 C 0.87687 0.47463 0.2562 0.0
C1434 C 0.87519 0.45712 0.235 0.0
C1435 C 0.87959 0.42196 0.22337 0.0
C1436 C 0.88372 0.40332 0.23349 0.0
C1437 C 0.87893 0.43829 0.24504 0.0
C1438 C 0.88599 0.40048 0.26571 0.0
C1439 C 0.88593 0.41699 0.28732 0.0
H1440 H 0.4257 0.88193 0.31893 0.0
H1441 H 0.38221 0.88222 0.2418 0.0
H1442 H 0.40988 0.87925 0.20464 0.0
H1443 H 0.44915 0.88139 0.19406 0.0
H1444 H 0.49078 0.87761 0.27118 0.0
H1445 H 0.46107 0.87674 0.30829 0.0
C1446 C 0.42203 0.88079 0.294 0.0
C1447 C 0.40207 0.88247 0.28309 0.0
C1448 C 0.4378 0.87862 0.27276 0.0
C1449 C 0.39739 0.88083 0.25077 0.0
C1450 C 0.41332 0.87932 0.22949 0.0
C1451 C 0.45137 0.87981 0.21896 0.0
C1452 C 0.4722 0.87975 0.22988 0.0
C1453 C 0.43396 0.87889 0.24018 0.0
C1454 C 0.47483 0.87755 0.26218 0.0
C1455 C 0.45794 0.87725 0.28344 0.0
H1456 H 0.57037 0.45168 0.19783 0.0
H1457 H 0.616 0.49462 0.27404 0.0
H1458 H 0.58826 0.46464 0.31169 0.0
H1459 H 0.54816 0.42899 0.32301 0.0
H1460 H 0.50389 0.38475 0.24663 0.0
H1461 H 0.53406 0.41219 0.20901 0.0
C1462 C 0.57453 0.45412 0.22265 0.0
C1463 C 0.59507 0.4754 0.23318 0.0
C1464 C 0.5586 0.43669 0.24414 0.0
C1465 C 0.60037 0.47832 0.26535 0.0
C1466 C 0.58438 0.46129 0.28691 0.0
C1467 C 0.54542 0.4251 0.29815 0.0
C1468 C 0.52371 0.40503 0.28759 0.0
C1469 C 0.56302 0.44081 0.27662 0.0
C1470 C 0.52047 0.40004 0.25535 0.0
C1471 C 0.53764 0.41583 0.2338 0.0
H1472 H 0.11245 0.56274 0.19074 0.0
H1473 H 0.12315 0.61169 0.26672 0.0
H1474 H 0.1267 0.58437 0.30361 0.0
H1475 H 0.12192 0.54427 0.31514 0.0
H1476 H 0.11443 0.49664 0.23898 0.0
H1477 H 0.1149 0.52579 0.20131 0.0
C1478 C 0.11604 0.56761 0.21528 0.0
C1479 C 0.11727 0.58909 0.22601 0.0
C1480 C 0.11853 0.55197 0.23637 0.0
C1481 C 0.12217 0.5953 0.25782 0.0
C1482 C 0.12406 0.5796 0.279 0.0
C1483 C 0.12101 0.54059 0.29023 0.0
C1484 C 0.11802 0.51829 0.27985 0.0
C1485 C 0.12159 0.55758 0.26868 0.0
C1486 C 0.11694 0.51374 0.24753 0.0
C1487 C 0.11696 0.53032 0.226 0.0
H1488 H 0.48559 0.88359 0.75226 0.0
H1489 H 0.44841 0.87949 0.83839 0.0
H1490 H 0.41308 0.87414 0.80902 0.0
H1491 H 0.3951 0.87638 0.759 0.0
H1492 H 0.43443 0.88556 0.6732 0.0
H1493 H 0.46622 0.8828 0.70192 0.0
C1494 C 0.46947 0.88086 0.76453 0.0
C1495 C 0.46954 0.8818 0.79743 0.0
C1496 C 0.44964 0.87896 0.74742 0.0
C1497 C 0.44875 0.87879 0.81306 0.0
C1498 C 0.42858 0.87583 0.79627 0.0
C1499 C 0.41029 0.87707 0.74654 0.0
C1500 C 0.41234 0.881 0.71401 0.0
C1501 C 0.42912 0.87669 0.76344 0.0
C1502 C 0.43242 0.88245 0.69823 0.0
C1503 C 0.45067 0.881 0.71468 0.0
H1504 H 0.54294 0.42663 0.69259 0.0
H1505 H 0.50286 0.38043 0.76989 0.0
H1506 H 0.53397 0.40802 0.80643 0.0
H1507 H 0.56978 0.44803 0.81693 0.0
H1508 H 0.6117 0.49279 0.73966 0.0
H1509 H 0.58299 0.46293 0.70253 0.0
C1510 C 0.54136 0.42237 0.71735 0.0
C1511 C 0.52053 0.40168 0.72858 0.0
C1512 C 0.55957 0.43814 0.73824 0.0
C1513 C 0.51875 0.39621 0.76067 0.0
C1514 C 0.53646 0.41207 0.78162 0.0
C1515 C 0.57294 0.45086 0.79194 0.0
C1516 C 0.59267 0.47257 0.78097 0.0
C1517 C 0.55654 0.43347 0.77077 0.0
C1518 C 0.59669 0.47611 0.74859 0.0
C1519 C 0.58016 0.45915 0.72738 0.0
H1520 H 0.1191 0.53932 0.69854 0.0
H1521 H 0.10422 0.48909 0.77409 0.0
H1522 H 0.10657 0.51915 0.81185 0.0
H1523 H 0.10798 0.55809 0.82229 0.0
H1524 H 0.12603 0.60932 0.74698 0.0
H1525 H 0.1277 0.58076 0.71036 0.0
C1526 C 0.11698 0.53523 0.72338 0.0
C1527 C 0.11137 0.51204 0.73357 0.0
C1528 C 0.11871 0.55272 0.74495 0.0
C1529 C 0.10873 0.5069 0.76576 0.0
C1530 C 0.10986 0.52402 0.78731 0.0
C1531 C 0.11278 0.56315 0.79799 0.0
C1532 C 0.11661 0.58569 0.78732 0.0
C1533 C 0.11412 0.54674 0.77706 0.0
C1534 C 0.12304 0.59212 0.75584 0.0
C1535 C 0.12384 0.57572 0.7348 0.0
H1536 H 0.52072 0.12186 0.7543 0.0
H1537 H 0.55099 0.11215 0.83959 0.0
H1538 H 0.58549 0.11506 0.81045 0.0
H1539 H 0.60431 0.11513 0.75989 0.0
H1540 H 0.57105 0.11957 0.67421 0.0
H1541 H 0.5408 0.12428 0.70404 0.0
C1542 C 0.53521 0.12101 0.76656 0.0
C1543 C 0.53341 0.11697 0.79908 0.0
C1544 C 0.55439 0.12152 0.74942 0.0
C1545 C 0.55202 0.11533 0.81458 0.0
C1546 C 0.5717 0.1169 0.7979 0.0
C1547 C 0.5908 0.11778 0.74784 0.0
C1548 C 0.59002 0.11724 0.71492 0.0
C1549 C 0.57272 0.11925 0.76518 0.0
C1550 C 0.57206 0.12005 0.69954 0.0
C1551 C 0.5547 0.12263 0.7166 0.0
H1552 H 0.4237 0.54609 0.82247 0.0
H1553 H 0.37949 0.50474 0.7444 0.0
H1554 H 0.40813 0.53525 0.70795 0.0
H1555 H 0.44847 0.57113 0.69826 0.0
H1556 H 0.49095 0.61409 0.77652 0.0
H1557 H 0.4602 0.58579 0.81291 0.0
C1558 C 0.42008 0.54412 0.79751 0.0
C1559 C 0.39967 0.52316 0.78607 0.0
C1560 C 0.43644 0.56191 0.77673 0.0
C1561 C 0.39504 0.5208 0.75373 0.0
C1562 C 0.41152 0.53814 0.73287 0.0
C1563 C 0.45066 0.57453 0.72326 0.0
C1564 C 0.47201 0.59451 0.73474 0.0
C1565 C 0.43267 0.55839 0.74407 0.0
C1566 C 0.47462 0.59888 0.76714 0.0
C1567 C 0.45712 0.5826 0.78798 0.0
H1568 H 0.87992 0.44885 0.69808 0.0
H1569 H 0.87965 0.49292 0.77449 0.0
H1570 H 0.87795 0.46321 0.81216 0.0
H1571 H 0.88143 0.42696 0.82326 0.0
H1572 H 0.87843 0.38137 0.74674 0.0
H1573 H 0.87621 0.40916 0.70929 0.0
C1574 C 0.8789 0.45163 0.72297 0.0
C1575 C 0.88008 0.4731 0.73352 0.0
C1576 C 0.87759 0.4343 0.74448 0.0
C1577 C 0.87862 0.47646 0.7658 0.0
C1578 C 0.87787 0.45957 0.78736 0.0
C1579 C 0.87981 0.42291 0.79842 0.0
C1580 C 0.88036 0.40229 0.78776 0.0
C1581 C 0.87808 0.43877 0.77698 0.0
C1582 C 0.878 0.3971 0.75554 0.0
C1583 C 0.87688 0.41307 0.73408 0.0
H1584 H 0.4214 0.10734 0.05433 0.0
H1585 H 0.49815 0.15291 0.06907 0.0
H1586 H 0.50451 0.16037 0.01269 0.0
H1587 H 0.48898 0.147 0.95914 0.0
H1588 H 0.41242 0.10017 0.94442 0.0
H1589 H 0.40492 0.10045 1.00063 0.0
C1590 C 0.43931 0.11972 0.04516 0.0
C1591 C 0.45929 0.12973 0.06554 0.0
C1592 C 0.44282 0.12338 0.01267 0.0
C1593 C 0.48255 0.14534 0.05366 0.0
C1594 C 0.48618 0.14936 0.02143 0.0
C1595 C 0.4706 0.13781 0.96823 0.0
C1596 C 0.45121 0.1238 0.94792 0.0
C1597 C 0.4666 0.13755 1.00064 0.0
C1598 C 0.42749 0.11138 0.95974 0.0
C1599 C 0.42327 0.11131 0.99189 0.0
H1600 H 0.34196 0.49075 0.05644 0.0
H1601 H 0.31489 0.41489 0.0725 0.0
H1602 H 0.30727 0.4067 0.01634 0.0
H1603 H 0.31597 0.42265 0.96223 0.0
H1604 H 0.34443 0.49879 0.94644 0.0
H1605 H 0.34351 0.50552 1.00275 0.0
C1606 C 0.33342 0.47233 0.04764 0.0
C1607 C 0.32878 0.45339 0.0683 0.0
C1608 C 0.32974 0.46796 0.01531 0.0
C1609 C 0.31823 0.42963 0.05689 0.0
C1610 C 0.31418 0.42503 0.02477 0.0
C1611 C 0.321 0.44048 0.97119 0.0
C1612 C 0.33005 0.46021 0.95051 0.0
C1613 C 0.32091 0.44422 1.00365 0.0
C1614 C 0.33709 0.48338 0.9621 0.0
C1615 C 0.33678 0.48723 0.99427 0.0
H1616 H 0.84668 0.33353 0.05755 0.0
H1617 H 0.90006 0.31172 0.07093 0.0
H1618 H 0.90049 0.30478 0.01456 0.0
H1619 H 0.89173 0.31317 0.96112 0.0
H1620 H 0.83954 0.33656 0.94788 0.0
H1621 H 0.83201 0.33417 1.00434 0.0
C1622 C 0.85756 0.32625 0.04813 0.0
C1623 C 0.87321 0.32296 0.06809 0.0
C1624 C 0.85812 0.32295 0.01565 0.0
C1625 C 0.88767 0.31402 0.05586 0.0
C1626 C 0.88811 0.31035 0.02363 0.0
C1627 C 0.87794 0.31665 0.97062 0.0
C1628 C 0.86598 0.32478 0.95063 0.0
C1629 C 0.87427 0.31587 1.00318 0.0
C1630 C 0.8486 0.32989 0.96297 0.0
C1631 C 0.84454 0.32881 0.99525 0.0
H1632 H 0.57529 0.89248 0.05731 0.0
H1633 H 0.49835 0.8451 0.06781 0.0
H1634 H 0.49412 0.83776 0.0113 0.0
H1635 H 0.51122 0.85168 0.95871 0.0
H1636 H 0.58777 0.90075 0.94786 0.0
H1637 H 0.59363 0.90017 1.00449 0.0
C1638 C 0.55784 0.87979 0.0472 0.0
C1639 C 0.53715 0.86916 0.06639 0.0
C1640 C 0.55553 0.87621 0.01459 0.0
C1641 C 0.51448 0.85316 0.0533 0.0
C1642 C 0.51206 0.84917 0.02101 0.0
C1643 C 0.5293 0.86127 0.96874 0.0
C1644 C 0.5491 0.87605 0.94942 0.0
C1645 C 0.53228 0.86149 1.00133 0.0
C1646 C 0.5724 0.88896 0.96242 0.0
C1647 C 0.57566 0.88889 0.99481 0.0
H1648 H 0.64401 0.50575 0.05752 0.0
H1649 H 0.68634 0.58315 0.06758 0.0
H1650 H 0.69251 0.58763 0.0107 0.0
H1651 H 0.6794 0.56957 0.95784 0.0
H1652 H 0.63556 0.49217 0.94857 0.0
H1653 H 0.63674 0.48738 1.00522 0.0
C1654 C 0.65529 0.52349 0.04721 0.0
C1655 C 0.66479 0.5441 0.06637 0.0
C1656 C 0.65822 0.52584 0.0146 0.0
C1657 C 0.67911 0.56708 0.05307 0.0
C1658 C 0.6824 0.56961 0.02059 0.0
C1659 C 0.67097 0.55168 0.96828 0.0
C1660 C 0.65757 0.5312 0.94934 0.0
C1661 C 0.67118 0.54917 1.00102 0.0
C1662 C 0.6462 0.50808 0.96289 0.0
C1663 C 0.64668 0.50538 0.99524 0.0
H1664 H 0.10501 0.67869 0.95704 0.0
H1665 H 0.14988 0.64644 0.94449 0.0
H1666 H 0.15679 0.64792 1.00105 0.0
H1667 H 0.14377 0.65154 0.05425 0.0
H1668 H 0.09792 0.68266 0.06695 0.0
H1669 H 0.09794 0.68903 0.01036 0.0
C1670 C 0.11708 0.67296 0.96673 0.0
C1671 C 0.12717 0.66272 0.94689 0.0
C1672 C 0.12048 0.67339 0.99933 0.0
C1673 C 0.14231 0.65474 0.95948 0.0
C1674 C 0.14602 0.65534 0.9918 0.0
C1675 C 0.13465 0.66061 0.04458 0.0
C1676 C 0.12107 0.66688 0.06446 0.0
C1677 C 0.13436 0.66368 0.01202 0.0
C1678 C 0.10878 0.67809 0.05193 0.0
C1679 C 0.10859 0.68146 0.0196 0.0
H1680 H 0.89573 0.57611 0.46127 0.0
H1681 H 0.85042 0.49966 0.44484 0.0
H1682 H 0.84271 0.49256 0.50109 0.0
H1683 H 0.85495 0.50747 0.55508 0.0
H1684 H 0.90088 0.58379 0.57174 0.0
H1685 H 0.90204 0.59187 0.51547 0.0
C1686 C 0.8834 0.55809 0.47006 0.0
C1687 C 0.87341 0.53842 0.4492 0.0
C1688 C 0.8795 0.55416 0.50249 0.0
C1689 C 0.85793 0.51503 0.46062 0.0
C1690 C 0.85376 0.51097 0.49276 0.0
C1691 C 0.86439 0.52591 0.54634 0.0
C1692 C 0.87766 0.54507 0.56724 0.0
C1693 C 0.86527 0.53027 0.51398 0.0
C1694 C 0.89029 0.56888 0.55592 0.0
C1695 C 0.89114 0.57343 0.52377 0.0
H1696 H 0.31472 0.89615 0.4583 0.0
H1697 H 0.3468 0.85122 0.4451 0.0
H1698 H 0.34472 0.84351 0.50146 0.0
H1699 H 0.34116 0.85621 0.55474 0.0
H1700 H 0.311 0.90278 0.56824 0.0
H1701 H 0.30429 0.90287 0.51176 0.0
C1702 C 0.32027 0.88389 0.4678 0.0
C1703 C 0.33067 0.87403 0.44786 0.0
C1704 C 0.3196 0.88013 0.50033 0.0
C1705 C 0.33842 0.85864 0.46018 0.0
C1706 C 0.33745 0.85446 0.49239 0.0
C1707 C 0.33213 0.86544 0.5453 0.0
C1708 C 0.32627 0.87923 0.56535 0.0
C1709 C 0.32909 0.86598 0.51278 0.0
C1710 C 0.3152 0.89172 0.55309 0.0
C1711 C 0.31168 0.89201 0.5208 0.0
H1712 H 0.42013 0.31758 0.45917 0.0
H1713 H 0.49628 0.34181 0.45069 0.0
H1714 H 0.49934 0.33851 0.50739 0.0
H1715 H 0.48193 0.33662 0.55964 0.0
H1716 H 0.40626 0.31445 0.56824 0.0
H1717 H 0.40107 0.30854 0.51148 0.0
C1718 C 0.43707 0.32103 0.46975 0.0
C1719 C 0.4579 0.32961 0.45105 0.0
C1720 C 0.43878 0.31985 0.50246 0.0
C1721 C 0.47998 0.33475 0.46479 0.0
C1722 C 0.48177 0.33316 0.49721 0.0
C1723 C 0.46416 0.32954 0.54905 0.0
C1724 C 0.44443 0.32572 0.56777 0.0
C1725 C 0.46155 0.32685 0.51637 0.0
C1726 C 0.42155 0.31713 0.55407 0.0
C1727 C 0.41867 0.314 0.52165 0.0
H1728 H 0.14623 0.48551 0.45878 0.0
H1729 H 0.09984 0.40916 0.44296 0.0
H1730 H 0.09776 0.40159 0.49947 0.0
H1731 H 0.10271 0.41801 0.55328 0.0
H1732 H 0.14749 0.49471 0.56839 0.0
H1733 H 0.15715 0.50099 0.51255 0.0
C1734 C 0.13655 0.46715 0.46777 0.0
C1735 C 0.12331 0.44787 0.44702 0.0
C1736 C 0.13489 0.46313 0.50024 0.0
C1737 C 0.11039 0.42417 0.45866 0.0
C1738 C 0.10898 0.41991 0.49096 0.0
C1739 C 0.11535 0.4359 0.54436 0.0
C1740 C 0.1246 0.45589 0.56468 0.0
C1741 C 0.12022 0.43939 0.51202 0.0
C1742 C 0.1405 0.47911 0.55305 0.0
C1743 C 0.1458 0.4827 0.52112 0.0
H1744 H 0.66546 0.14687 0.45371 0.0
H1745 H 0.68649 0.09279 0.4423 0.0
H1746 H 0.69314 0.09291 0.49875 0.0
H1747 H 0.68417 0.10197 0.55161 0.0
H1748 H 0.66103 0.15444 0.5631 0.0
H1749 H 0.66451 0.16199 0.50663 0.0
C1750 C 0.67258 0.13601 0.46358 0.0
C1751 C 0.67573 0.12001 0.44414 0.0
C1752 C 0.67559 0.13566 0.49616 0.0
C1753 C 0.68435 0.10549 0.45697 0.0
C1754 C 0.68785 0.10536 0.48925 0.0
C1755 C 0.68105 0.11586 0.54177 0.0
C1756 C 0.67261 0.12785 0.56123 0.0
C1757 C 0.68234 0.11946 0.50919 0.0
C1758 C 0.66794 0.14536 0.54842 0.0
C1759 C 0.66963 0.14942 0.51612 0.0
H1760 H 0.51023 0.65833 0.56107 0.0
H1761 H 0.58651 0.68786 0.57831 0.0
H1762 H 0.59494 0.69474 0.52212 0.0
H1763 H 0.57936 0.68488 0.46799 0.0
H1764 H 0.50291 0.65428 0.45086 0.0
H1765 H 0.49562 0.65571 0.50693 0.0
C1766 C 0.52875 0.66718 0.55247 0.0
C1767 C 0.5478 0.67277 0.57348 0.0
C1768 C 0.5333 0.67055 0.52014 0.0
C1769 C 0.57171 0.68377 0.56237 0.0
C1770 C 0.57645 0.68743 0.53027 0.0
C1771 C 0.56131 0.6795 0.47657 0.0
C1772 C 0.54168 0.66961 0.45563 0.0
C1773 C 0.55726 0.67988 0.50887 0.0
C1774 C 0.51825 0.66222 0.46672 0.0
C1775 C 0.51408 0.66279 0.49876 0.0
loop_
_geom_bond_atom_site_label_1
_geom_bond_atom_site_label_2
_geom_bond_distance
_geom_bond_site_symmetry_2
_ccdc_geom_bond_type
Co0 O3 1.970 . S
Co0 N17 1.989 . S
Co0 O25 1.967 . S
Co0 O32 1.920 . S
Co1 O4 1.966 . S
Co1 N10 2.022 . S
Co1 N18 1.993 . S
Co1 O26 1.941 . S
C2 O3 1.258 . S
C2 O4 1.263 . S
O3 Co0 1.970 . S
O3 C2 1.258 . S
O4 Co1 1.966 . S
O4 C2 1.263 . S
C5 O6 1.235 . S
C5 O32 1.289 . S
O6 C5 1.235 . S
C7 C9 1.400 . S
C7 N10 1.351 . S
C7 C12 1.501 . S
C8 C9 1.387 . S
C8 N11 1.341 . S
C9 C7 1.400 . S
C9 C8 1.387 . S
N10 Co1 2.022 . S
N10 C7 1.351 . S
N10 N11 1.365 . S
N11 C8 1.341 . S
N11 N10 1.365 . S
N11 H31 0.862 . S
C12 C7 1.501 . S
C12 H13 0.961 . S
C12 H14 0.961 . S
C12 H15 0.960 . S
H13 C12 0.961 . S
H14 C12 0.961 . S
H15 C12 0.960 . S
C16 N17 1.342 . S
C16 C20 1.401 . S
C16 C21 1.499 . S
N17 Co0 1.989 . S
N17 C16 1.342 . S
N17 N18 1.388 . S
N18 Co1 1.993 . S
N18 N17 1.388 . S
N18 C19 1.346 . S
C19 N18 1.346 . S
C19 C20 1.396 . S
C19 C29 1.510 . S
C20 C16 1.401 . S
C20 C19 1.396 . S
C21 C16 1.499 . S
C21 H22 0.959 . S
C21 H23 0.960 . S
C21 H24 0.961 . S
H22 C21 0.959 . S
H23 C21 0.960 . S
H24 C21 0.961 . S
O25 Co0 1.967 . S
O25 C33 1.258 . S
O26 Co1 1.941 . S
O26 C33 1.266 . S
H27 C29 0.959 . S
H28 C29 0.961 . S
C29 C19 1.510 . S
C29 H27 0.959 . S
C29 H28 0.961 . S
C29 H30 0.960 . S
H30 C29 0.960 . S
H31 N11 0.862 . S
O32 Co0 1.920 . S
O32 C5 1.289 . S
C33 O25 1.258 . S
C33 O26 1.266 . S
Co34 O37 1.970 . S
Co34 N51 1.989 . S
Co34 O59 1.967 . S
Co34 O66 1.920 . S
Co35 O38 1.966 . S
Co35 N44 2.022 . S
Co35 N52 1.993 . S
Co35 O60 1.941 . S
C36 O37 1.258 . S
C36 O38 1.263 . S
O37 Co34 1.970 . S
O37 C36 1.258 . S
O38 Co35 1.966 . S
O38 C36 1.263 . S
C39 O40 1.235 . S
C39 O66 1.289 . S
O40 C39 1.235 . S
C41 C43 1.400 . S
C41 N44 1.351 . S
C41 C46 1.501 . S
C42 C43 1.387 . S
C42 N45 1.341 . S
C43 C41 1.400 . S
C43 C42 1.387 . S
N44 Co35 2.022 . S
N44 C41 1.351 . S
N44 N45 1.365 . S
N45 C42 1.341 . S
N45 N44 1.365 . S
N45 H65 0.862 . S
C46 C41 1.501 . S
C46 H47 0.961 . S
C46 H48 0.961 . S
C46 H49 0.960 . S
H47 C46 0.961 . S
H48 C46 0.961 . S
H49 C46 0.960 . S
C50 N51 1.342 . S
C50 C54 1.401 . S
C50 C55 1.499 . S
N51 Co34 1.989 . S
N51 C50 1.342 . S
N51 N52 1.388 . S
N52 Co35 1.993 . S
N52 N51 1.388 . S
N52 C53 1.346 . S
C53 N52 1.346 . S
C53 C54 1.396 . S
C53 C63 1.510 . S
C54 C50 1.401 . S
C54 C53 1.396 . S
C55 C50 1.499 . S
C55 H56 0.959 . S
C55 H57 0.960 . S
C55 H58 0.961 . S
H56 C55 0.959 . S
H57 C55 0.960 . S
H58 C55 0.961 . S
O59 Co34 1.967 . S
O59 C67 1.258 . S
O60 Co35 1.941 . S
O60 C67 1.266 . S
H61 C63 0.959 . S
H62 C63 0.961 . S
C63 C53 1.510 . S
C63 H61 0.959 . S
C63 H62 0.961 . S
C63 H64 0.960 . S
H64 C63 0.960 . S
H65 N45 0.862 . S
O66 Co34 1.920 . S
O66 C39 1.289 . S
C67 O59 1.258 . S
C67 O60 1.266 . S
Co68 O71 1.970 . S
Co68 N85 1.989 . S
Co68 O93 1.967 . S
Co68 O100 1.920 . S
Co69 O72 1.966 . S
Co69 N78 2.022 . S
Co69 N86 1.993 . S
Co69 O94 1.941 . S
C70 O71 1.258 . S
C70 O72 1.263 . S
O71 Co68 1.970 . S
O71 C70 1.258 . S
O72 Co69 1.966 . S
O72 C70 1.263 . S
C73 O74 1.235 . S
C73 O100 1.289 . S
O74 C73 1.235 . S
C75 C77 1.400 . S
C75 N78 1.351 . S
C75 C80 1.501 . S
C76 C77 1.387 . S
C76 N79 1.341 . S
C77 C75 1.400 . S
C77 C76 1.387 . S
N78 Co69 2.022 . S
N78 C75 1.351 . S
N78 N79 1.365 . S
N79 C76 1.341 . S
N79 N78 1.365 . S
N79 H99 0.862 . S
C80 C75 1.501 . S
C80 H81 0.961 . S
C80 H82 0.961 . S
C80 H83 0.960 . S
H81 C80 0.961 . S
H82 C80 0.961 . S
H83 C80 0.960 . S
C84 N85 1.342 . S
C84 C88 1.401 . S
C84 C89 1.499 . S
N85 Co68 1.989 . S
N85 C84 1.342 . S
N85 N86 1.388 . S
N86 Co69 1.993 . S
N86 N85 1.388 . S
N86 C87 1.346 . S
C87 N86 1.346 . S
C87 C88 1.396 . S
C87 C97 1.510 . S
C88 C84 1.401 . S
C88 C87 1.396 . S
C89 C84 1.499 . S
C89 H90 0.959 . S
C89 H91 0.960 . S
C89 H92 0.961 . S
H90 C89 0.959 . S
H91 C89 0.960 . S
H92 C89 0.961 . S
O93 Co68 1.967 . S
O93 C101 1.258 . S
O94 Co69 1.941 . S
O94 C101 1.266 . S
H95 C97 0.959 . S
H96 C97 0.961 . S
C97 C87 1.510 . S
C97 H95 0.959 . S
C97 H96 0.961 . S
C97 H98 0.960 . S
H98 C97 0.960 . S
H99 N79 0.862 . S
O100 Co68 1.920 . S
O100 C73 1.289 . S
C101 O93 1.258 . S
C101 O94 1.266 . S
Co102 O105 1.970 . S
Co102 N119 1.989 . S
Co102 O127 1.967 . S
Co102 O134 1.920 . S
Co103 O106 1.966 . S
Co103 N112 2.022 . S
Co103 N120 1.993 . S
Co103 O128 1.941 . S
C104 O105 1.258 . S
C104 O106 1.263 . S
O105 Co102 1.970 . S
O105 C104 1.258 . S
O106 Co103 1.966 . S
O106 C104 1.263 . S
C107 O108 1.235 . S
C107 O134 1.289 . S
O108 C107 1.235 . S
C109 C111 1.400 . S
C109 N112 1.351 . S
C109 C114 1.501 . S
C110 C111 1.387 . S
C110 N113 1.341 . S
C111 C109 1.400 . S
C111 C110 1.387 . S
N112 Co103 2.022 . S
N112 C109 1.351 . S
N112 N113 1.365 . S
N113 C110 1.341 . S
N113 N112 1.365 . S
N113 H133 0.862 . S
C114 C109 1.501 . S
C114 H115 0.961 . S
C114 H116 0.961 . S
C114 H117 0.960 . S
H115 C114 0.961 . S
H116 C114 0.961 . S
H117 C114 0.960 . S
C118 N119 1.342 . S
C118 C122 1.401 . S
C118 C123 1.499 . S
N119 Co102 1.989 . S
N119 C118 1.342 . S
N119 N120 1.388 . S
N120 Co103 1.993 . S
N120 N119 1.388 . S
N120 C121 1.346 . S
C121 N120 1.346 . S
C121 C122 1.396 . S
C121 C131 1.510 . S
C122 C118 1.401 . S
C122 C121 1.396 . S
C123 C118 1.499 . S
C123 H124 0.959 . S
C123 H125 0.960 . S
C123 H126 0.961 . S
H124 C123 0.959 . S
H125 C123 0.960 . S
H126 C123 0.961 . S
O127 Co102 1.967 . S
O127 C135 1.258 . S
O128 Co103 1.941 . S
O128 C135 1.266 . S
H129 C131 0.959 . S
H130 C131 0.961 . S
C131 C121 1.510 . S
C131 H129 0.959 . S
C131 H130 0.961 . S
C131 H132 0.960 . S
H132 C131 0.960 . S
H133 N113 0.862 . S
O134 Co102 1.920 . S
O134 C107 1.289 . S
C135 O127 1.258 . S
C135 O128 1.266 . S
Co136 O139 1.970 . S
Co136 N153 1.989 . S
Co136 O161 1.967 . S
Co136 O168 1.920 . S
Co137 O140 1.966 . S
Co137 N146 2.022 . S
Co137 N154 1.993 . S
Co137 O162 1.941 . S
C138 O139 1.258 . S
C138 O140 1.263 . S
O139 Co136 1.970 . S
O139 C138 1.258 . S
O140 Co137 1.966 . S
O140 C138 1.263 . S
C141 O142 1.235 . S
C141 O168 1.289 . S
O142 C141 1.235 . S
C143 C145 1.400 . S
C143 N146 1.351 . S
C143 C148 1.501 . S
C144 C145 1.387 . S
C144 N147 1.341 . S
C145 C143 1.400 . S
C145 C144 1.387 . S
N146 Co137 2.022 . S
N146 C143 1.351 . S
N146 N147 1.365 . S
N147 C144 1.341 . S
N147 N146 1.365 . S
N147 H167 0.862 . S
C148 C143 1.501 . S
C148 H149 0.961 . S
C148 H150 0.961 . S
C148 H151 0.960 . S
H149 C148 0.961 . S
H150 C148 0.961 . S
H151 C148 0.960 . S
C152 N153 1.342 . S
C152 C156 1.401 . S
C152 C157 1.499 . S
N153 Co136 1.989 . S
N153 C152 1.342 . S
N153 N154 1.388 . S
N154 Co137 1.993 . S
N154 N153 1.388 . S
N154 C155 1.346 . S
C155 N154 1.346 . S
C155 C156 1.396 . S
C155 C165 1.510 . S
C156 C152 1.401 . S
C156 C155 1.396 . S
C157 C152 1.499 . S
C157 H158 0.959 . S
C157 H159 0.960 . S
C157 H160 0.961 . S
H158 C157 0.959 . S
H159 C157 0.960 . S
H160 C157 0.961 . S
O161 Co136 1.967 . S
O161 C169 1.258 . S
O162 Co137 1.941 . S
O162 C169 1.266 . S
H163 C165 0.959 . S
H164 C165 0.961 . S
C165 C155 1.510 . S
C165 H163 0.959 . S
C165 H164 0.961 . S
C165 H166 0.960 . S
H166 C165 0.960 . S
H167 N147 0.862 . S
O168 Co136 1.920 . S
O168 C141 1.289 . S
C169 O161 1.258 . S
C169 O162 1.266 . S
Co170 O173 1.970 . S
Co170 N187 1.989 . S
Co170 O195 1.967 . S
Co170 O202 1.920 . S
Co171 O174 1.966 . S
Co171 N180 2.022 . S
Co171 N188 1.993 . S
Co171 O196 1.941 . S
C172 O173 1.258 . S
C172 O174 1.263 . S
O173 Co170 1.970 . S
O173 C172 1.258 . S
O174 Co171 1.966 . S
O174 C172 1.263 . S
C175 O176 1.235 . S
C175 O202 1.289 . S
O176 C175 1.235 . S
C177 C179 1.400 . S
C177 N180 1.351 . S
C177 C182 1.501 . S
C178 C179 1.387 . S
C178 N181 1.341 . S
C179 C177 1.400 . S
C179 C178 1.387 . S
N180 Co171 2.022 . S
N180 C177 1.351 . S
N180 N181 1.365 . S
N181 C178 1.341 . S
N181 N180 1.365 . S
N181 H201 0.862 . S
C182 C177 1.501 . S
C182 H183 0.961 . S
C182 H184 0.961 . S
C182 H185 0.960 . S
H183 C182 0.961 . S
H184 C182 0.961 . S
H185 C182 0.960 . S
C186 N187 1.342 . S
C186 C190 1.401 . S
C186 C191 1.499 . S
N187 Co170 1.989 . S
N187 C186 1.342 . S
N187 N188 1.388 . S
N188 Co171 1.993 . S
N188 N187 1.388 . S
N188 C189 1.346 . S
C189 N188 1.346 . S
C189 C190 1.396 . S
C189 C199 1.510 . S
C190 C186 1.401 . S
C190 C189 1.396 . S
C191 C186 1.499 . S
C191 H192 0.959 . S
C191 H193 0.960 . S
C191 H194 0.961 . S
H192 C191 0.959 . S
H193 C191 0.960 . S
H194 C191 0.961 . S
O195 Co170 1.967 . S
O195 C203 1.258 . S
O196 Co171 1.941 . S
O196 C203 1.266 . S
H197 C199 0.959 . S
H198 C199 0.961 . S
C199 C189 1.510 . S
C199 H197 0.959 . S
C199 H198 0.961 . S
C199 H200 0.960 . S
H200 C199 0.960 . S
H201 N181 0.862 . S
O202 Co170 1.920 . S
O202 C175 1.289 . S
C203 O195 1.258 . S
C203 O196 1.266 . S
Co204 O207 1.970 . S
Co204 N221 1.989 . S
Co204 O229 1.967 . S
Co204 O236 1.920 . S
Co205 O208 1.966 . S
Co205 N214 2.022 . S
Co205 N222 1.993 . S
Co205 O230 1.941 . S
C206 O207 1.258 . S
C206 O208 1.263 . S
O207 Co204 1.970 . S
O207 C206 1.258 . S
O208 Co205 1.966 . S
O208 C206 1.263 . S
C209 O210 1.235 . S
C209 O236 1.289 . S
O210 C209 1.235 . S
C211 C213 1.400 . S
C211 N214 1.351 . S
C211 C216 1.501 . S
C212 C213 1.387 . S
C212 N215 1.341 . S
C213 C211 1.400 . S
C213 C212 1.387 . S
N214 Co205 2.022 . S
N214 C211 1.351 . S
N214 N215 1.365 . S
N215 C212 1.341 . S
N215 N214 1.365 . S
N215 H235 0.862 . S
C216 C211 1.501 . S
C216 H217 0.961 . S
C216 H218 0.961 . S
C216 H219 0.960 . S
H217 C216 0.961 . S
H218 C216 0.961 . S
H219 C216 0.960 . S
C220 N221 1.342 . S
C220 C224 1.401 . S
C220 C225 1.499 . S
N221 Co204 1.989 . S
N221 C220 1.342 . S
N221 N222 1.388 . S
N222 Co205 1.993 . S
N222 N221 1.388 . S
N222 C223 1.346 . S
C223 N222 1.346 . S
C223 C224 1.396 . S
C223 C233 1.510 . S
C224 C220 1.401 . S
C224 C223 1.396 . S
C225 C220 1.499 . S
C225 H226 0.959 . S
C225 H227 0.960 . S
C225 H228 0.961 . S
H226 C225 0.959 . S
H227 C225 0.960 . S
H228 C225 0.961 . S
O229 Co204 1.967 . S
O229 C237 1.258 . S
O230 Co205 1.941 . S
O230 C237 1.266 . S
H231 C233 0.959 . S
H232 C233 0.961 . S
C233 C223 1.510 . S
C233 H231 0.959 . S
C233 H232 0.961 . S
C233 H234 0.960 . S
H234 C233 0.960 . S
H235 N215 0.862 . S
O236 Co204 1.920 . S
O236 C209 1.289 . S
C237 O229 1.258 . S
C237 O230 1.266 . S
Co238 O241 1.970 . S
Co238 N255 1.989 . S
Co238 O263 1.967 . S
Co238 O270 1.920 . S
Co239 O242 1.966 . S
Co239 N248 2.022 . S
Co239 N256 1.993 . S
Co239 O264 1.941 . S
C240 O241 1.258 . S
C240 O242 1.263 . S
O241 Co238 1.970 . S
O241 C240 1.258 . S
O242 Co239 1.966 . S
O242 C240 1.263 . S
C243 O244 1.235 . S
C243 O270 1.289 . S
O244 C243 1.235 . S
C245 C247 1.400 . S
C245 N248 1.351 . S
C245 C250 1.501 . S
C246 C247 1.387 . S
C246 N249 1.341 . S
C247 C245 1.400 . S
C247 C246 1.387 . S
N248 Co239 2.022 . S
N248 C245 1.351 . S
N248 N249 1.365 . S
N249 C246 1.341 . S
N249 N248 1.365 . S
N249 H269 0.862 . S
C250 C245 1.501 . S
C250 H251 0.961 . S
C250 H252 0.961 . S
C250 H253 0.960 . S
H251 C250 0.961 . S
H252 C250 0.961 . S
H253 C250 0.960 . S
C254 N255 1.342 . S
C254 C258 1.401 . S
C254 C259 1.499 . S
N255 Co238 1.989 . S
N255 C254 1.342 . S
N255 N256 1.388 . S
N256 Co239 1.993 . S
N256 N255 1.388 . S
N256 C257 1.346 . S
C257 N256 1.346 . S
C257 C258 1.396 . S
C257 C267 1.510 . S
C258 C254 1.401 . S
C258 C257 1.396 . S
C259 C254 1.499 . S
C259 H260 0.959 . S
C259 H261 0.960 . S
C259 H262 0.961 . S
H260 C259 0.959 . S
H261 C259 0.960 . S
H262 C259 0.961 . S
O263 Co238 1.967 . S
O263 C271 1.258 . S
O264 Co239 1.941 . S
O264 C271 1.266 . S
H265 C267 0.959 . S
H266 C267 0.961 . S
C267 C257 1.510 . S
C267 H265 0.959 . S
C267 H266 0.961 . S
C267 H268 0.960 . S
H268 C267 0.960 . S
H269 N249 0.862 . S
O270 Co238 1.920 . S
O270 C243 1.289 . S
C271 O263 1.258 . S
C271 O264 1.266 . S
Co272 O275 1.970 . S
Co272 N289 1.989 . S
Co272 O297 1.967 . S
Co272 O304 1.920 . S
Co273 O276 1.966 . S
Co273 N282 2.022 . S
Co273 N290 1.993 . S
Co273 O298 1.941 . S
C274 O275 1.258 . S
C274 O276 1.263 . S
O275 Co272 1.970 . S
O275 C274 1.258 . S
O276 Co273 1.966 . S
O276 C274 1.263 . S
C277 O278 1.235 . S
C277 O304 1.289 . S
O278 C277 1.235 . S
C279 C281 1.400 . S
C279 N282 1.351 . S
C279 C284 1.501 . S
C280 C281 1.387 . S
C280 N283 1.341 . S
C281 C279 1.400 . S
C281 C280 1.387 . S
N282 Co273 2.022 . S
N282 C279 1.351 . S
N282 N283 1.365 . S
N283 C280 1.341 . S
N283 N282 1.365 . S
N283 H303 0.862 . S
C284 C279 1.501 . S
C284 H285 0.961 . S
C284 H286 0.961 . S
C284 H287 0.960 . S
H285 C284 0.961 . S
H286 C284 0.961 . S
H287 C284 0.960 . S
C288 N289 1.342 . S
C288 C292 1.401 . S
C288 C293 1.499 . S
N289 Co272 1.989 . S
N289 C288 1.342 . S
N289 N290 1.388 . S
N290 Co273 1.993 . S
N290 N289 1.388 . S
N290 C291 1.346 . S
C291 N290 1.346 . S
C291 C292 1.396 . S
C291 C301 1.510 . S
C292 C288 1.401 . S
C292 C291 1.396 . S
C293 C288 1.499 . S
C293 H294 0.959 . S
C293 H295 0.960 . S
C293 H296 0.961 . S
H294 C293 0.959 . S
H295 C293 0.960 . S
H296 C293 0.961 . S
O297 Co272 1.967 . S
O297 C305 1.258 . S
O298 Co273 1.941 . S
O298 C305 1.266 . S
H299 C301 0.959 . S
H300 C301 0.961 . S
C301 C291 1.510 . S
C301 H299 0.959 . S
C301 H300 0.961 . S
C301 H302 0.960 . S
H302 C301 0.960 . S
H303 N283 0.862 . S
O304 Co272 1.920 . S
O304 C277 1.289 . S
C305 O297 1.258 . S
C305 O298 1.266 . S
Co306 O309 1.970 . S
Co306 N323 1.989 . S
Co306 O331 1.967 . S
Co306 O338 1.920 . S
Co307 O310 1.966 . S
Co307 N316 2.022 . S
Co307 N324 1.993 . S
Co307 O332 1.941 . S
C308 O309 1.258 . S
C308 O310 1.263 . S
O309 Co306 1.970 . S
O309 C308 1.258 . S
O310 Co307 1.966 . S
O310 C308 1.263 . S
C311 O312 1.235 . S
C311 O338 1.289 . S
O312 C311 1.235 . S
C313 C315 1.400 . S
C313 N316 1.351 . S
C313 C318 1.501 . S
C314 C315 1.387 . S
C314 N317 1.341 . S
C315 C313 1.400 . S
C315 C314 1.387 . S
N316 Co307 2.022 . S
N316 C313 1.351 . S
N316 N317 1.365 . S
N317 C314 1.341 . S
N317 N316 1.365 . S
N317 H337 0.862 . S
C318 C313 1.501 . S
C318 H319 0.961 . S
C318 H320 0.961 . S
C318 H321 0.960 . S
H319 C318 0.961 . S
H320 C318 0.961 . S
H321 C318 0.960 . S
C322 N323 1.342 . S
C322 C326 1.401 . S
C322 C327 1.499 . S
N323 Co306 1.989 . S
N323 C322 1.342 . S
N323 N324 1.388 . S
N324 Co307 1.993 . S
N324 N323 1.388 . S
N324 C325 1.346 . S
C325 N324 1.346 . S
C325 C326 1.396 . S
C325 C335 1.510 . S
C326 C322 1.401 . S
C326 C325 1.396 . S
C327 C322 1.499 . S
C327 H328 0.959 . S
C327 H329 0.960 . S
C327 H330 0.961 . S
H328 C327 0.959 . S
H329 C327 0.960 . S
H330 C327 0.961 . S
O331 Co306 1.967 . S
O331 C339 1.258 . S
O332 Co307 1.941 . S
O332 C339 1.266 . S
H333 C335 0.959 . S
H334 C335 0.961 . S
C335 C325 1.510 . S
C335 H333 0.959 . S
C335 H334 0.961 . S
C335 H336 0.960 . S
H336 C335 0.960 . S
H337 N317 0.862 . S
O338 Co306 1.920 . S
O338 C311 1.289 . S
C339 O331 1.258 . S
C339 O332 1.266 . S
Co340 O343 1.970 . S
Co340 N357 1.989 . S
Co340 O365 1.967 . S
Co340 O372 1.920 . S
Co341 O344 1.966 . S
Co341 N350 2.022 . S
Co341 N358 1.993 . S
Co341 O366 1.941 . S
C342 O343 1.258 . S
C342 O344 1.263 . S
O343 Co340 1.970 . S
O343 C342 1.258 . S
O344 Co341 1.966 . S
O344 C342 1.263 . S
C345 O346 1.235 . S
C345 O372 1.289 . S
O346 C345 1.235 . S
C347 C349 1.400 . S
C347 N350 1.351 . S
C347 C352 1.501 . S
C348 C349 1.387 . S
C348 N351 1.341 . S
C349 C347 1.400 . S
C349 C348 1.387 . S
N350 Co341 2.022 . S
N350 C347 1.351 . S
N350 N351 1.365 . S
N351 C348 1.341 . S
N351 N350 1.365 . S
N351 H371 0.862 . S
C352 C347 1.501 . S
C352 H353 0.961 . S
C352 H354 0.961 . S
C352 H355 0.960 . S
H353 C352 0.961 . S
H354 C352 0.961 . S
H355 C352 0.960 . S
C356 N357 1.342 . S
C356 C360 1.401 . S
C356 C361 1.499 . S
N357 Co340 1.989 . S
N357 C356 1.342 . S
N357 N358 1.388 . S
N358 Co341 1.993 . S
N358 N357 1.388 . S
N358 C359 1.346 . S
C359 N358 1.346 . S
C359 C360 1.396 . S
C359 C369 1.510 . S
C360 C356 1.401 . S
C360 C359 1.396 . S
C361 C356 1.499 . S
C361 H362 0.959 . S
C361 H363 0.960 . S
C361 H364 0.961 . S
H362 C361 0.959 . S
H363 C361 0.960 . S
H364 C361 0.961 . S
O365 Co340 1.967 . S
O365 C373 1.258 . S
O366 Co341 1.941 . S
O366 C373 1.266 . S
H367 C369 0.959 . S
H368 C369 0.961 . S
C369 C359 1.510 . S
C369 H367 0.959 . S
C369 H368 0.961 . S
C369 H370 0.960 . S
H370 C369 0.960 . S
H371 N351 0.862 . S
O372 Co340 1.920 . S
O372 C345 1.289 . S
C373 O365 1.258 . S
C373 O366 1.266 . S
Co374 O377 1.970 . S
Co374 N391 1.989 . S
Co374 O399 1.967 . S
Co374 O406 1.920 . S
Co375 O378 1.966 . S
Co375 N384 2.022 . S
Co375 N392 1.993 . S
Co375 O400 1.941 . S
C376 O377 1.258 . S
C376 O378 1.263 . S
O377 Co374 1.970 . S
O377 C376 1.258 . S
O378 Co375 1.966 . S
O378 C376 1.263 . S
C379 O380 1.235 . S
C379 O406 1.289 . S
O380 C379 1.235 . S
C381 C383 1.400 . S
C381 N384 1.351 . S
C381 C386 1.501 . S
C382 C383 1.387 . S
C382 N385 1.341 . S
C383 C381 1.400 . S
C383 C382 1.387 . S
N384 Co375 2.022 . S
N384 C381 1.351 . S
N384 N385 1.365 . S
N385 C382 1.341 . S
N385 N384 1.365 . S
N385 H405 0.862 . S
C386 C381 1.501 . S
C386 H387 0.961 . S
C386 H388 0.961 . S
C386 H389 0.960 . S
H387 C386 0.961 . S
H388 C386 0.961 . S
H389 C386 0.960 . S
C390 N391 1.342 . S
C390 C394 1.401 . S
C390 C395 1.499 . S
N391 Co374 1.989 . S
N391 C390 1.342 . S
N391 N392 1.388 . S
N392 Co375 1.993 . S
N392 N391 1.388 . S
N392 C393 1.346 . S
C393 N392 1.346 . S
C393 C394 1.396 . S
C393 C403 1.510 . S
C394 C390 1.401 . S
C394 C393 1.396 . S
C395 C390 1.499 . S
C395 H396 0.959 . S
C395 H397 0.960 . S
C395 H398 0.961 . S
H396 C395 0.959 . S
H397 C395 0.960 . S
H398 C395 0.961 . S
O399 Co374 1.967 . S
O399 C407 1.258 . S
O400 Co375 1.941 . S
O400 C407 1.266 . S
H401 C403 0.959 . S
H402 C403 0.961 . S
C403 C393 1.510 . S
C403 H401 0.959 . S
C403 H402 0.961 . S
C403 H404 0.960 . S
H404 C403 0.960 . S
H405 N385 0.862 . S
O406 Co374 1.920 . S
O406 C379 1.289 . S
C407 O399 1.258 . S
C407 O400 1.266 . S
Co408 O411 1.970 . S
Co408 N425 1.989 . S
Co408 O433 1.967 . S
Co408 O440 1.920 . S
Co409 O412 1.966 . S
Co409 N418 2.022 . S
Co409 N426 1.993 . S
Co409 O434 1.941 . S
C410 O411 1.258 . S
C410 O412 1.263 . S
O411 Co408 1.970 . S
O411 C410 1.258 . S
O412 Co409 1.966 . S
O412 C410 1.263 . S
C413 O414 1.235 . S
C413 O440 1.289 . S
O414 C413 1.235 . S
C415 C417 1.400 . S
C415 N418 1.351 . S
C415 C420 1.501 . S
C416 C417 1.387 . S
C416 N419 1.341 . S
C417 C415 1.400 . S
C417 C416 1.387 . S
N418 Co409 2.022 . S
N418 C415 1.351 . S
N418 N419 1.365 . S
N419 C416 1.341 . S
N419 N418 1.365 . S
N419 H439 0.862 . S
C420 C415 1.501 . S
C420 H421 0.961 . S
C420 H422 0.961 . S
C420 H423 0.960 . S
H421 C420 0.961 . S
H422 C420 0.961 . S
H423 C420 0.960 . S
C424 N425 1.342 . S
C424 C428 1.401 . S
C424 C429 1.499 . S
N425 Co408 1.989 . S
N425 C424 1.342 . S
N425 N426 1.388 . S
N426 Co409 1.993 . S
N426 N425 1.388 . S
N426 C427 1.346 . S
C427 N426 1.346 . S
C427 C428 1.396 . S
C427 C437 1.510 . S
C428 C424 1.401 . S
C428 C427 1.396 . S
C429 C424 1.499 . S
C429 H430 0.959 . S
C429 H431 0.960 . S
C429 H432 0.961 . S
H430 C429 0.959 . S
H431 C429 0.960 . S
H432 C429 0.961 . S
O433 Co408 1.967 . S
O433 C441 1.258 . S
O434 Co409 1.941 . S
O434 C441 1.266 . S
H435 C437 0.959 . S
H436 C437 0.961 . S
C437 C427 1.510 . S
C437 H435 0.959 . S
C437 H436 0.961 . S
C437 H438 0.960 . S
H438 C437 0.960 . S
H439 N419 0.862 . S
O440 Co408 1.920 . S
O440 C413 1.289 . S
C441 O433 1.258 . S
C441 O434 1.266 . S
Co442 O445 1.970 . S
Co442 N459 1.989 . S
Co442 O467 1.967 . S
Co442 O474 1.920 . S
Co443 O446 1.966 . S
Co443 N452 2.022 . S
Co443 N460 1.993 . S
Co443 O468 1.941 . S
C444 O445 1.258 . S
C444 O446 1.263 . S
O445 Co442 1.970 . S
O445 C444 1.258 . S
O446 Co443 1.966 . S
O446 C444 1.263 . S
C447 O448 1.235 . S
C447 O474 1.289 . S
O448 C447 1.235 . S
C449 C451 1.400 . S
C449 N452 1.351 . S
C449 C454 1.501 . S
C450 C451 1.387 . S
C450 N453 1.341 . S
C451 C449 1.400 . S
C451 C450 1.387 . S
N452 Co443 2.022 . S
N452 C449 1.351 . S
N452 N453 1.365 . S
N453 C450 1.341 . S
N453 N452 1.365 . S
N453 H473 0.862 . S
C454 C449 1.501 . S
C454 H455 0.961 . S
C454 H456 0.961 . S
C454 H457 0.960 . S
H455 C454 0.961 . S
H456 C454 0.961 . S
H457 C454 0.960 . S
C458 N459 1.342 . S
C458 C462 1.401 . S
C458 C463 1.499 . S
N459 Co442 1.989 . S
N459 C458 1.342 . S
N459 N460 1.388 . S
N460 Co443 1.993 . S
N460 N459 1.388 . S
N460 C461 1.346 . S
C461 N460 1.346 . S
C461 C462 1.396 . S
C461 C471 1.510 . S
C462 C458 1.401 . S
C462 C461 1.396 . S
C463 C458 1.499 . S
C463 H464 0.959 . S
C463 H465 0.960 . S
C463 H466 0.961 . S
H464 C463 0.959 . S
H465 C463 0.960 . S
H466 C463 0.961 . S
O467 Co442 1.967 . S
O467 C475 1.258 . S
O468 Co443 1.941 . S
O468 C475 1.266 . S
H469 C471 0.959 . S
H470 C471 0.961 . S
C471 C461 1.510 . S
C471 H469 0.959 . S
C471 H470 0.961 . S
C471 H472 0.960 . S
H472 C471 0.960 . S
H473 N453 0.862 . S
O474 Co442 1.920 . S
O474 C447 1.289 . S
C475 O467 1.258 . S
C475 O468 1.266 . S
Co476 O479 1.970 . S
Co476 N493 1.989 . S
Co476 O501 1.967 . S
Co476 O508 1.920 . S
Co477 O480 1.966 . S
Co477 N486 2.022 . S
Co477 N494 1.993 . S
Co477 O502 1.941 . S
C478 O479 1.258 . S
C478 O480 1.263 . S
O479 Co476 1.970 . S
O479 C478 1.258 . S
O480 Co477 1.966 . S
O480 C478 1.263 . S
C481 O482 1.235 . S
C481 O508 1.289 . S
O482 C481 1.235 . S
C483 C485 1.400 . S
C483 N486 1.351 . S
C483 C488 1.501 . S
C484 C485 1.387 . S
C484 N487 1.341 . S
C485 C483 1.400 . S
C485 C484 1.387 . S
N486 Co477 2.022 . S
N486 C483 1.351 . S
N486 N487 1.365 . S
N487 C484 1.341 . S
N487 N486 1.365 . S
N487 H507 0.862 . S
C488 C483 1.501 . S
C488 H489 0.961 . S
C488 H490 0.961 . S
C488 H491 0.960 . S
H489 C488 0.961 . S
H490 C488 0.961 . S
H491 C488 0.960 . S
C492 N493 1.342 . S
C492 C496 1.401 . S
C492 C497 1.499 . S
N493 Co476 1.989 . S
N493 C492 1.342 . S
N493 N494 1.388 . S
N494 Co477 1.993 . S
N494 N493 1.388 . S
N494 C495 1.346 . S
C495 N494 1.346 . S
C495 C496 1.396 . S
C495 C505 1.510 . S
C496 C492 1.401 . S
C496 C495 1.396 . S
C497 C492 1.499 . S
C497 H498 0.959 . S
C497 H499 0.960 . S
C497 H500 0.961 . S
H498 C497 0.959 . S
H499 C497 0.960 . S
H500 C497 0.961 . S
O501 Co476 1.967 . S
O501 C509 1.258 . S
O502 Co477 1.941 . S
O502 C509 1.266 . S
H503 C505 0.959 . S
H504 C505 0.961 . S
C505 C495 1.510 . S
C505 H503 0.959 . S
C505 H504 0.961 . S
C505 H506 0.960 . S
H506 C505 0.960 . S
H507 N487 0.862 . S
O508 Co476 1.920 . S
O508 C481 1.289 . S
C509 O501 1.258 . S
C509 O502 1.266 . S
Co510 O513 1.970 . S
Co510 N527 1.989 . S
Co510 O535 1.967 . S
Co510 O542 1.920 . S
Co511 O514 1.966 . S
Co511 N520 2.022 . S
Co511 N528 1.993 . S
Co511 O536 1.941 . S
C512 O513 1.258 . S
C512 O514 1.263 . S
O513 Co510 1.970 . S
O513 C512 1.258 . S
O514 Co511 1.966 . S
O514 C512 1.263 . S
C515 O516 1.235 . S
C515 O542 1.289 . S
O516 C515 1.235 . S
C517 C519 1.400 . S
C517 N520 1.351 . S
C517 C522 1.501 . S
C518 C519 1.387 . S
C518 N521 1.341 . S
C519 C517 1.400 . S
C519 C518 1.387 . S
N520 Co511 2.022 . S
N520 C517 1.351 . S
N520 N521 1.365 . S
N521 C518 1.341 . S
N521 N520 1.365 . S
N521 H541 0.862 . S
C522 C517 1.501 . S
C522 H523 0.961 . S
C522 H524 0.961 . S
C522 H525 0.960 . S
H523 C522 0.961 . S
H524 C522 0.961 . S
H525 C522 0.960 . S
C526 N527 1.342 . S
C526 C530 1.401 . S
C526 C531 1.499 . S
N527 Co510 1.989 . S
N527 C526 1.342 . S
N527 N528 1.388 . S
N528 Co511 1.993 . S
N528 N527 1.388 . S
N528 C529 1.346 . S
C529 N528 1.346 . S
C529 C530 1.396 . S
C529 C539 1.510 . S
C530 C526 1.401 . S
C530 C529 1.396 . S
C531 C526 1.499 . S
C531 H532 0.959 . S
C531 H533 0.960 . S
C531 H534 0.961 . S
H532 C531 0.959 . S
H533 C531 0.960 . S
H534 C531 0.961 . S
O535 Co510 1.967 . S
O535 C543 1.258 . S
O536 Co511 1.941 . S
O536 C543 1.266 . S
H537 C539 0.959 . S
H538 C539 0.961 . S
C539 C529 1.510 . S
C539 H537 0.959 . S
C539 H538 0.961 . S
C539 H540 0.960 . S
H540 C539 0.960 . S
H541 N521 0.862 . S
O542 Co510 1.920 . S
O542 C515 1.289 . S
C543 O535 1.258 . S
C543 O536 1.266 . S
Co544 O547 1.970 . S
Co544 N561 1.989 . S
Co544 O569 1.967 . S
Co544 O576 1.920 . S
Co545 O548 1.966 . S
Co545 N554 2.022 . S
Co545 N562 1.993 . S
Co545 O570 1.941 . S
C546 O547 1.258 . S
C546 O548 1.263 . S
O547 Co544 1.970 . S
O547 C546 1.258 . S
O548 Co545 1.966 . S
O548 C546 1.263 . S
C549 O550 1.235 . S
C549 O576 1.289 . S
O550 C549 1.235 . S
C551 C553 1.400 . S
C551 N554 1.351 . S
C551 C556 1.501 . S
C552 C553 1.387 . S
C552 N555 1.341 . S
C553 C551 1.400 . S
C553 C552 1.387 . S
N554 Co545 2.022 . S
N554 C551 1.351 . S
N554 N555 1.365 . S
N555 C552 1.341 . S
N555 N554 1.365 . S
N555 H575 0.862 . S
C556 C551 1.501 . S
C556 H557 0.961 . S
C556 H558 0.961 . S
C556 H559 0.960 . S
H557 C556 0.961 . S
H558 C556 0.961 . S
H559 C556 0.960 . S
C560 N561 1.342 . S
C560 C564 1.401 . S
C560 C565 1.499 . S
N561 Co544 1.989 . S
N561 C560 1.342 . S
N561 N562 1.388 . S
N562 Co545 1.993 . S
N562 N561 1.388 . S
N562 C563 1.346 . S
C563 N562 1.346 . S
C563 C564 1.396 . S
C563 C573 1.510 . S
C564 C560 1.401 . S
C564 C563 1.396 . S
C565 C560 1.499 . S
C565 H566 0.959 . S
C565 H567 0.960 . S
C565 H568 0.961 . S
H566 C565 0.959 . S
H567 C565 0.960 . S
H568 C565 0.961 . S
O569 Co544 1.967 . S
O569 C577 1.258 . S
O570 Co545 1.941 . S
O570 C577 1.266 . S
H571 C573 0.959 . S
H572 C573 0.961 . S
C573 C563 1.510 . S
C573 H571 0.959 . S
C573 H572 0.961 . S
C573 H574 0.960 . S
H574 C573 0.960 . S
H575 N555 0.862 . S
O576 Co544 1.920 . S
O576 C549 1.289 . S
C577 O569 1.258 . S
C577 O570 1.266 . S
Co578 O581 1.970 . S
Co578 N595 1.989 . S
Co578 O603 1.967 . S
Co578 O610 1.920 . S
Co579 O582 1.966 . S
Co579 N588 2.022 . S
Co579 N596 1.993 . S
Co579 O604 1.941 . S
C580 O581 1.258 . S
C580 O582 1.263 . S
O581 Co578 1.970 . S
O581 C580 1.258 . S
O582 Co579 1.966 . S
O582 C580 1.263 . S
C583 O584 1.235 . S
C583 O610 1.289 . S
O584 C583 1.235 . S
C585 C587 1.400 . S
C585 N588 1.351 . S
C585 C590 1.501 . S
C586 C587 1.387 . S
C586 N589 1.341 . S
C587 C585 1.400 . S
C587 C586 1.387 . S
N588 Co579 2.022 . S
N588 C585 1.351 . S
N588 N589 1.365 . S
N589 C586 1.341 . S
N589 N588 1.365 . S
N589 H609 0.862 . S
C590 C585 1.501 . S
C590 H591 0.961 . S
C590 H592 0.961 . S
C590 H593 0.960 . S
H591 C590 0.961 . S
H592 C590 0.961 . S
H593 C590 0.960 . S
C594 N595 1.342 . S
C594 C598 1.401 . S
C594 C599 1.499 . S
N595 Co578 1.989 . S
N595 C594 1.342 . S
N595 N596 1.388 . S
N596 Co579 1.993 . S
N596 N595 1.388 . S
N596 C597 1.346 . S
C597 N596 1.346 . S
C597 C598 1.396 . S
C597 C607 1.510 . S
C598 C594 1.401 . S
C598 C597 1.396 . S
C599 C594 1.499 . S
C599 H600 0.959 . S
C599 H601 0.960 . S
C599 H602 0.961 . S
H600 C599 0.959 . S
H601 C599 0.960 . S
H602 C599 0.961 . S
O603 Co578 1.967 . S
O603 C611 1.258 . S
O604 Co579 1.941 . S
O604 C611 1.266 . S
H605 C607 0.959 . S
H606 C607 0.961 . S
C607 C597 1.510 . S
C607 H605 0.959 . S
C607 H606 0.961 . S
C607 H608 0.960 . S
H608 C607 0.960 . S
H609 N589 0.862 . S
O610 Co578 1.920 . S
O610 C583 1.289 . S
C611 O603 1.258 . S
C611 O604 1.266 . S
Co612 O615 1.970 . S
Co612 N629 1.989 . S
Co612 O637 1.967 . S
Co612 O644 1.920 . S
Co613 O616 1.966 . S
Co613 N622 2.022 . S
Co613 N630 1.993 . S
Co613 O638 1.941 . S
C614 O615 1.258 . S
C614 O616 1.263 . S
O615 Co612 1.970 . S
O615 C614 1.258 . S
O616 Co613 1.966 . S
O616 C614 1.263 . S
C617 O618 1.235 . S
C617 O644 1.289 . S
O618 C617 1.235 . S
C619 C621 1.400 . S
C619 N622 1.351 . S
C619 C624 1.501 . S
C620 C621 1.387 . S
C620 N623 1.341 . S
C621 C619 1.400 . S
C621 C620 1.387 . S
N622 Co613 2.022 . S
N622 C619 1.351 . S
N622 N623 1.365 . S
N623 C620 1.341 . S
N623 N622 1.365 . S
N623 H643 0.862 . S
C624 C619 1.501 . S
C624 H625 0.961 . S
C624 H626 0.961 . S
C624 H627 0.960 . S
H625 C624 0.961 . S
H626 C624 0.961 . S
H627 C624 0.960 . S
C628 N629 1.342 . S
C628 C632 1.401 . S
C628 C633 1.499 . S
N629 Co612 1.989 . S
N629 C628 1.342 . S
N629 N630 1.388 . S
N630 Co613 1.993 . S
N630 N629 1.388 . S
N630 C631 1.346 . S
C631 N630 1.346 . S
C631 C632 1.396 . S
C631 C641 1.510 . S
C632 C628 1.401 . S
C632 C631 1.396 . S
C633 C628 1.499 . S
C633 H634 0.959 . S
C633 H635 0.960 . S
C633 H636 0.961 . S
H634 C633 0.959 . S
H635 C633 0.960 . S
H636 C633 0.961 . S
O637 Co612 1.967 . S
O637 C645 1.258 . S
O638 Co613 1.941 . S
O638 C645 1.266 . S
H639 C641 0.959 . S
H640 C641 0.961 . S
C641 C631 1.510 . S
C641 H639 0.959 . S
C641 H640 0.961 . S
C641 H642 0.960 . S
H642 C641 0.960 . S
H643 N623 0.862 . S
O644 Co612 1.920 . S
O644 C617 1.289 . S
C645 O637 1.258 . S
C645 O638 1.266 . S
Co646 O649 1.970 . S
Co646 N663 1.989 . S
Co646 O671 1.967 . S
Co646 O678 1.920 . S
Co647 O650 1.966 . S
Co647 N656 2.022 . S
Co647 N664 1.993 . S
Co647 O672 1.941 . S
C648 O649 1.258 . S
C648 O650 1.263 . S
O649 Co646 1.970 . S
O649 C648 1.258 . S
O650 Co647 1.966 . S
O650 C648 1.263 . S
C651 O652 1.235 . S
C651 O678 1.289 . S
O652 C651 1.235 . S
C653 C655 1.400 . S
C653 N656 1.351 . S
C653 C658 1.501 . S
C654 C655 1.387 . S
C654 N657 1.341 . S
C655 C653 1.400 . S
C655 C654 1.387 . S
N656 Co647 2.022 . S
N656 C653 1.351 . S
N656 N657 1.365 . S
N657 C654 1.341 . S
N657 N656 1.365 . S
N657 H677 0.862 . S
C658 C653 1.501 . S
C658 H659 0.961 . S
C658 H660 0.961 . S
C658 H661 0.960 . S
H659 C658 0.961 . S
H660 C658 0.961 . S
H661 C658 0.960 . S
C662 N663 1.342 . S
C662 C666 1.401 . S
C662 C667 1.499 . S
N663 Co646 1.989 . S
N663 C662 1.342 . S
N663 N664 1.388 . S
N664 Co647 1.993 . S
N664 N663 1.388 . S
N664 C665 1.346 . S
C665 N664 1.346 . S
C665 C666 1.396 . S
C665 C675 1.510 . S
C666 C662 1.401 . S
C666 C665 1.396 . S
C667 C662 1.499 . S
C667 H668 0.959 . S
C667 H669 0.960 . S
C667 H670 0.961 . S
H668 C667 0.959 . S
H669 C667 0.960 . S
H670 C667 0.961 . S
O671 Co646 1.967 . S
O671 C679 1.258 . S
O672 Co647 1.941 . S
O672 C679 1.266 . S
H673 C675 0.959 . S
H674 C675 0.961 . S
C675 C665 1.510 . S
C675 H673 0.959 . S
C675 H674 0.961 . S
C675 H676 0.960 . S
H676 C675 0.960 . S
H677 N657 0.862 . S
O678 Co646 1.920 . S
O678 C651 1.289 . S
C679 O671 1.258 . S
C679 O672 1.266 . S
Co680 O683 1.970 . S
Co680 N697 1.989 . S
Co680 O705 1.967 . S
Co680 O712 1.920 . S
Co681 O684 1.966 . S
Co681 N690 2.022 . S
Co681 N698 1.993 . S
Co681 O706 1.941 . S
C682 O683 1.258 . S
C682 O684 1.263 . S
O683 Co680 1.970 . S
O683 C682 1.258 . S
O684 Co681 1.966 . S
O684 C682 1.263 . S
C685 O686 1.235 . S
C685 O712 1.289 . S
O686 C685 1.235 . S
C687 C689 1.400 . S
C687 N690 1.351 . S
C687 C692 1.501 . S
C688 C689 1.387 . S
C688 N691 1.341 . S
C689 C687 1.400 . S
C689 C688 1.387 . S
N690 Co681 2.022 . S
N690 C687 1.351 . S
N690 N691 1.365 . S
N691 C688 1.341 . S
N691 N690 1.365 . S
N691 H711 0.862 . S
C692 C687 1.501 . S
C692 H693 0.961 . S
C692 H694 0.961 . S
C692 H695 0.960 . S
H693 C692 0.961 . S
H694 C692 0.961 . S
H695 C692 0.960 . S
C696 N697 1.342 . S
C696 C700 1.401 . S
C696 C701 1.499 . S
N697 Co680 1.989 . S
N697 C696 1.342 . S
N697 N698 1.388 . S
N698 Co681 1.993 . S
N698 N697 1.388 . S
N698 C699 1.346 . S
C699 N698 1.346 . S
C699 C700 1.396 . S
C699 C709 1.510 . S
C700 C696 1.401 . S
C700 C699 1.396 . S
C701 C696 1.499 . S
C701 H702 0.959 . S
C701 H703 0.960 . S
C701 H704 0.961 . S
H702 C701 0.959 . S
H703 C701 0.960 . S
H704 C701 0.961 . S
O705 Co680 1.967 . S
O705 C713 1.258 . S
O706 Co681 1.941 . S
O706 C713 1.266 . S
H707 C709 0.959 . S
H708 C709 0.961 . S
C709 C699 1.510 . S
C709 H707 0.959 . S
C709 H708 0.961 . S
C709 H710 0.960 . S
H710 C709 0.960 . S
H711 N691 0.862 . S
O712 Co680 1.920 . S
O712 C685 1.289 . S
C713 O705 1.258 . S
C713 O706 1.266 . S
Co714 O717 1.970 . S
Co714 N731 1.989 . S
Co714 O739 1.967 . S
Co714 O746 1.920 . S
Co715 O718 1.966 . S
Co715 N724 2.022 . S
Co715 N732 1.993 . S
Co715 O740 1.941 . S
C716 O717 1.258 . S
C716 O718 1.263 . S
O717 Co714 1.970 . S
O717 C716 1.258 . S
O718 Co715 1.966 . S
O718 C716 1.263 . S
C719 O720 1.235 . S
C719 O746 1.289 . S
O720 C719 1.235 . S
C721 C723 1.400 . S
C721 N724 1.351 . S
C721 C726 1.501 . S
C722 C723 1.387 . S
C722 N725 1.341 . S
C723 C721 1.400 . S
C723 C722 1.387 . S
N724 Co715 2.022 . S
N724 C721 1.351 . S
N724 N725 1.365 . S
N725 C722 1.341 . S
N725 N724 1.365 . S
N725 H745 0.862 . S
C726 C721 1.501 . S
C726 H727 0.961 . S
C726 H728 0.961 . S
C726 H729 0.960 . S
H727 C726 0.961 . S
H728 C726 0.961 . S
H729 C726 0.960 . S
C730 N731 1.342 . S
C730 C734 1.401 . S
C730 C735 1.499 . S
N731 Co714 1.989 . S
N731 C730 1.342 . S
N731 N732 1.388 . S
N732 Co715 1.993 . S
N732 N731 1.388 . S
N732 C733 1.346 . S
C733 N732 1.346 . S
C733 C734 1.396 . S
C733 C743 1.510 . S
C734 C730 1.401 . S
C734 C733 1.396 . S
C735 C730 1.499 . S
C735 H736 0.959 . S
C735 H737 0.960 . S
C735 H738 0.961 . S
H736 C735 0.959 . S
H737 C735 0.960 . S
H738 C735 0.961 . S
O739 Co714 1.967 . S
O739 C747 1.258 . S
O740 Co715 1.941 . S
O740 C747 1.266 . S
H741 C743 0.959 . S
H742 C743 0.961 . S
C743 C733 1.510 . S
C743 H741 0.959 . S
C743 H742 0.961 . S
C743 H744 0.960 . S
H744 C743 0.960 . S
H745 N725 0.862 . S
O746 Co714 1.920 . S
O746 C719 1.289 . S
C747 O739 1.258 . S
C747 O740 1.266 . S
Co748 O751 1.970 . S
Co748 N765 1.989 . S
Co748 O773 1.967 . S
Co748 O780 1.920 . S
Co749 O752 1.966 . S
Co749 N758 2.022 . S
Co749 N766 1.993 . S
Co749 O774 1.941 . S
C750 O751 1.258 . S
C750 O752 1.263 . S
O751 Co748 1.970 . S
O751 C750 1.258 . S
O752 Co749 1.966 . S
O752 C750 1.263 . S
C753 O754 1.235 . S
C753 O780 1.289 . S
O754 C753 1.235 . S
C755 C757 1.400 . S
C755 N758 1.351 . S
C755 C760 1.501 . S
C756 C757 1.387 . S
C756 N759 1.341 . S
C757 C755 1.400 . S
C757 C756 1.387 . S
N758 Co749 2.022 . S
N758 C755 1.351 . S
N758 N759 1.365 . S
N759 C756 1.341 . S
N759 N758 1.365 . S
N759 H779 0.862 . S
C760 C755 1.501 . S
C760 H761 0.961 . S
C760 H762 0.961 . S
C760 H763 0.960 . S
H761 C760 0.961 . S
H762 C760 0.961 . S
H763 C760 0.960 . S
C764 N765 1.342 . S
C764 C768 1.401 . S
C764 C769 1.499 . S
N765 Co748 1.989 . S
N765 C764 1.342 . S
N765 N766 1.388 . S
N766 Co749 1.993 . S
N766 N765 1.388 . S
N766 C767 1.346 . S
C767 N766 1.346 . S
C767 C768 1.396 . S
C767 C777 1.510 . S
C768 C764 1.401 . S
C768 C767 1.396 . S
C769 C764 1.499 . S
C769 H770 0.959 . S
C769 H771 0.960 . S
C769 H772 0.961 . S
H770 C769 0.959 . S
H771 C769 0.960 . S
H772 C769 0.961 . S
O773 Co748 1.967 . S
O773 C781 1.258 . S
O774 Co749 1.941 . S
O774 C781 1.266 . S
H775 C777 0.959 . S
H776 C777 0.961 . S
C777 C767 1.510 . S
C777 H775 0.959 . S
C777 H776 0.961 . S
C777 H778 0.960 . S
H778 C777 0.960 . S
H779 N759 0.862 . S
O780 Co748 1.920 . S
O780 C753 1.289 . S
C781 O773 1.258 . S
C781 O774 1.266 . S
Co782 O785 1.970 . S
Co782 N799 1.989 . S
Co782 O807 1.967 . S
Co782 O814 1.920 . S
Co783 O786 1.966 . S
Co783 N792 2.022 . S
Co783 N800 1.993 . S
Co783 O808 1.941 . S
C784 O785 1.258 . S
C784 O786 1.263 . S
O785 Co782 1.970 . S
O785 C784 1.258 . S
O786 Co783 1.966 . S
O786 C784 1.263 . S
C787 O788 1.235 . S
C787 O814 1.289 . S
O788 C787 1.235 . S
C789 C791 1.400 . S
C789 N792 1.351 . S
C789 C794 1.501 . S
C790 C791 1.387 . S
C790 N793 1.341 . S
C791 C789 1.400 . S
C791 C790 1.387 . S
N792 Co783 2.022 . S
N792 C789 1.351 . S
N792 N793 1.365 . S
N793 C790 1.341 . S
N793 N792 1.365 . S
N793 H813 0.862 . S
C794 C789 1.501 . S
C794 H795 0.961 . S
C794 H796 0.961 . S
C794 H797 0.960 . S
H795 C794 0.961 . S
H796 C794 0.961 . S
H797 C794 0.960 . S
C798 N799 1.342 . S
C798 C802 1.401 . S
C798 C803 1.499 . S
N799 Co782 1.989 . S
N799 C798 1.342 . S
N799 N800 1.388 . S
N800 Co783 1.993 . S
N800 N799 1.388 . S
N800 C801 1.346 . S
C801 N800 1.346 . S
C801 C802 1.396 . S
C801 C811 1.510 . S
C802 C798 1.401 . S
C802 C801 1.396 . S
C803 C798 1.499 . S
C803 H804 0.959 . S
C803 H805 0.960 . S
C803 H806 0.961 . S
H804 C803 0.959 . S
H805 C803 0.960 . S
H806 C803 0.961 . S
O807 Co782 1.967 . S
O807 C815 1.258 . S
O808 Co783 1.941 . S
O808 C815 1.266 . S
H809 C811 0.959 . S
H810 C811 0.961 . S
C811 C801 1.510 . S
C811 H809 0.959 . S
C811 H810 0.961 . S
C811 H812 0.960 . S
H812 C811 0.960 . S
H813 N793 0.862 . S
O814 Co782 1.920 . S
O814 C787 1.289 . S
C815 O807 1.258 . S
C815 O808 1.266 . S
H816 C822 0.930 . S
H817 C825 0.930 . S
H818 C826 0.930 . S
H819 C827 0.930 . S
H820 C830 0.930 . S
H821 C831 0.930 . S
C822 H816 0.930 . S
C822 C823 1.355 . S
C822 C824 1.415 . S
C823 C822 1.355 . S
C823 C825 1.419 . S
C824 C822 1.415 . S
C824 C829 1.425 1_545 S
C824 C831 1.409 . S
C825 H817 0.930 . S
C825 C823 1.419 . S
C825 C826 1.362 1_545 S
C826 H818 0.930 . S
C826 C825 1.362 1_565 S
C826 C829 1.409 . S
C827 H819 0.930 . S
C827 C828 1.355 . S
C827 C829 1.415 . S
C828 C827 1.355 . S
C828 C830 1.419 . S
C829 C824 1.425 1_565 S
C829 C826 1.409 . S
C829 C827 1.415 . S
C830 H820 0.930 . S
C830 C828 1.419 . S
C830 C831 1.362 1_565 S
C831 H821 0.930 . S
C831 C824 1.409 . S
C831 C830 1.362 1_545 S
H832 C838 0.930 . S
H833 C841 0.930 . S
H834 C842 0.930 . S
H835 C843 0.930 . S
H836 C846 0.930 . S
H837 C847 0.930 . S
C838 H832 0.930 . S
C838 C839 1.355 . S
C838 C840 1.415 . S
C839 C838 1.355 . S
C839 C841 1.419 . S
C840 C838 1.415 . S
C840 C845 1.425 . S
C840 C847 1.409 . S
C841 H833 0.930 . S
C841 C839 1.419 . S
C841 C842 1.362 . S
C842 H834 0.930 . S
C842 C841 1.362 . S
C842 C845 1.409 . S
C843 H835 0.930 . S
C843 C844 1.355 . S
C843 C845 1.415 . S
C844 C843 1.355 . S
C844 C846 1.419 . S
C845 C840 1.425 . S
C845 C842 1.409 . S
C845 C843 1.415 . S
C846 H836 0.930 . S
C846 C844 1.419 . S
C846 C847 1.362 . S
C847 H837 0.930 . S
C847 C840 1.409 . S
C847 C846 1.362 . S
H848 C854 0.930 . S
H849 C857 0.930 . S
H850 C858 0.930 . S
H851 C859 0.930 . S
H852 C862 0.930 . S
H853 C863 0.930 . S
C854 H848 0.930 . S
C854 C855 1.355 . S
C854 C856 1.415 . S
C855 C854 1.355 . S
C855 C857 1.419 . S
C856 C854 1.415 . S
C856 C861 1.425 1_455 S
C856 C863 1.409 . S
C857 H849 0.930 . S
C857 C855 1.419 . S
C857 C858 1.362 1_455 S
C858 H850 0.930 . S
C858 C857 1.362 1_655 S
C858 C861 1.409 . S
C859 H851 0.930 . S
C859 C860 1.355 . S
C859 C861 1.415 . S
C860 C859 1.355 . S
C860 C862 1.419 . S
C861 C856 1.425 1_655 S
C861 C858 1.409 . S
C861 C859 1.415 . S
C862 H852 0.930 . S
C862 C860 1.419 . S
C862 C863 1.362 1_655 S
C863 H853 0.930 . S
C863 C856 1.409 . S
C863 C862 1.362 1_455 S
H864 C870 0.930 . S
H865 C873 0.930 . S
H866 C874 0.930 1_655 S
H867 C875 0.930 . S
H868 C878 0.930 . S
H869 C879 0.930 1_455 S
C870 H864 0.930 . S
C870 C871 1.355 . S
C870 C872 1.415 . S
C871 C870 1.355 . S
C871 C873 1.419 . S
C872 C870 1.415 . S
C872 C877 1.425 1_455 S
C872 C879 1.409 1_455 S
C873 H865 0.930 . S
C873 C871 1.419 . S
C873 C874 1.362 . S
C874 H866 0.930 1_455 S
C874 C873 1.362 . S
C874 C877 1.409 1_455 S
C875 H867 0.930 . S
C875 C876 1.355 . S
C875 C877 1.415 . S
C876 C875 1.355 . S
C876 C878 1.419 . S
C877 C872 1.425 1_655 S
C877 C874 1.409 1_655 S
C877 C875 1.415 . S
C878 H868 0.930 . S
C878 C876 1.419 . S
C878 C879 1.362 . S
C879 H869 0.930 1_655 S
C879 C872 1.409 1_655 S
C879 C878 1.362 . S
H880 C886 0.930 . S
H881 C889 0.930 . S
H882 C890 0.930 . S
H883 C891 0.930 . S
H884 C894 0.930 . S
H885 C895 0.930 . S
C886 H880 0.930 . S
C886 C887 1.355 . S
C886 C888 1.415 . S
C887 C886 1.355 . S
C887 C889 1.419 . S
C888 C886 1.415 . S
C888 C893 1.425 1_565 S
C888 C895 1.409 . S
C889 H881 0.930 . S
C889 C887 1.419 . S
C889 C890 1.362 1_565 S
C890 H882 0.930 . S
C890 C889 1.362 1_545 S
C890 C893 1.409 . S
C891 H883 0.930 . S
C891 C892 1.355 . S
C891 C893 1.415 . S
C892 C891 1.355 . S
C892 C894 1.419 . S
C893 C888 1.425 1_545 S
C893 C890 1.409 . S
C893 C891 1.415 . S
C894 H884 0.930 . S
C894 C892 1.419 . S
C894 C895 1.362 1_545 S
C895 H885 0.930 . S
C895 C888 1.409 . S
C895 C894 1.362 1_565 S
H896 C902 0.930 . S
H897 C905 0.930 . S
H898 C906 0.930 . S
H899 C907 0.930 . S
H900 C910 0.930 . S
H901 C911 0.930 . S
C902 H896 0.930 . S
C902 C903 1.355 . S
C902 C904 1.415 . S
C903 C902 1.355 . S
C903 C905 1.419 . S
C904 C902 1.415 . S
C904 C909 1.425 . S
C904 C911 1.409 . S
C905 H897 0.930 . S
C905 C903 1.419 . S
C905 C906 1.362 . S
C906 H898 0.930 . S
C906 C905 1.362 . S
C906 C909 1.409 . S
C907 H899 0.930 . S
C907 C908 1.355 . S
C907 C909 1.415 . S
C908 C907 1.355 . S
C908 C910 1.419 . S
C909 C904 1.425 . S
C909 C906 1.409 . S
C909 C907 1.415 . S
C910 H900 0.930 . S
C910 C908 1.419 . S
C910 C911 1.362 . S
C911 H901 0.930 . S
C911 C904 1.409 . S
C911 C910 1.362 . S
H912 C918 0.930 . S
H913 C921 0.930 . S
H914 C922 0.930 . S
H915 C923 0.930 . S
H916 C926 0.930 . S
H917 C927 0.930 . S
C918 H912 0.930 . S
C918 C919 1.355 . S
C918 C920 1.415 . S
C919 C918 1.355 . S
C919 C921 1.419 . S
C920 C918 1.415 . S
C920 C925 1.425 1_545 S
C920 C927 1.409 . S
C921 H913 0.930 . S
C921 C919 1.419 . S
C921 C922 1.362 1_545 S
C922 H914 0.930 . S
C922 C921 1.362 1_565 S
C922 C925 1.409 . S
C923 H915 0.930 . S
C923 C924 1.355 . S
C923 C925 1.415 . S
C924 C923 1.355 . S
C924 C926 1.419 . S
C925 C920 1.425 1_565 S
C925 C922 1.409 . S
C925 C923 1.415 . S
C926 H916 0.930 . S
C926 C924 1.419 . S
C926 C927 1.362 1_565 S
C927 H917 0.930 . S
C927 C920 1.409 . S
C927 C926 1.362 1_545 S
H928 C934 0.930 . S
H929 C937 0.930 . S
H930 C938 0.930 . S
H931 C939 0.930 . S
H932 C942 0.930 . S
H933 C943 0.930 . S
C934 H928 0.930 . S
C934 C935 1.355 . S
C934 C936 1.415 . S
C935 C934 1.355 . S
C935 C937 1.419 . S
C936 C934 1.415 . S
C936 C941 1.425 . S
C936 C943 1.409 . S
C937 H929 0.930 . S
C937 C935 1.419 . S
C937 C938 1.362 . S
C938 H930 0.930 . S
C938 C937 1.362 . S
C938 C941 1.409 . S
C939 H931 0.930 . S
C939 C940 1.355 . S
C939 C941 1.415 . S
C940 C939 1.355 . S
C940 C942 1.419 . S
C941 C936 1.425 . S
C941 C938 1.409 . S
C941 C939 1.415 . S
C942 H932 0.930 . S
C942 C940 1.419 . S
C942 C943 1.362 . S
C943 H933 0.930 . S
C943 C936 1.409 . S
C943 C942 1.362 . S
H944 C950 0.930 . S
H945 C953 0.930 . S
H946 C954 0.930 . S
H947 C955 0.930 . S
H948 C958 0.930 . S
H949 C959 0.930 . S
C950 H944 0.930 . S
C950 C951 1.355 . S
C950 C952 1.415 . S
C951 C950 1.355 . S
C951 C953 1.419 . S
C952 C950 1.415 . S
C952 C957 1.425 1_655 S
C952 C959 1.409 . S
C953 H945 0.930 . S
C953 C951 1.419 . S
C953 C954 1.362 1_655 S
C954 H946 0.930 . S
C954 C953 1.362 1_455 S
C954 C957 1.409 . S
C955 H947 0.930 . S
C955 C956 1.355 . S
C955 C957 1.415 . S
C956 C955 1.355 . S
C956 C958 1.419 . S
C957 C952 1.425 1_455 S
C957 C954 1.409 . S
C957 C955 1.415 . S
C958 H948 0.930 . S
C958 C956 1.419 . S
C958 C959 1.362 1_455 S
C959 H949 0.930 . S
C959 C952 1.409 . S
C959 C958 1.362 1_655 S
H960 C966 0.930 . S
H961 C969 0.930 . S
H962 C970 0.930 . S
H963 C971 0.930 . S
H964 C974 0.930 . S
H965 C975 0.930 . S
C966 H960 0.930 . S
C966 C967 1.355 . S
C966 C968 1.415 1_655 S
C967 C966 1.355 . S
C967 C969 1.419 . S
C968 C966 1.415 1_455 S
C968 C973 1.425 1_455 S
C968 C975 1.409 . S
C969 H961 0.930 . S
C969 C967 1.419 . S
C969 C970 1.362 . S
C970 H962 0.930 . S
C970 C969 1.362 . S
C970 C973 1.409 . S
C971 H963 0.930 . S
C971 C972 1.355 . S
C971 C973 1.415 1_455 S
C972 C971 1.355 . S
C972 C974 1.419 . S
C973 C968 1.425 1_655 S
C973 C970 1.409 . S
C973 C971 1.415 1_655 S
C974 H964 0.930 . S
C974 C972 1.419 . S
C974 C975 1.362 . S
C975 H965 0.930 . S
C975 C968 1.409 . S
C975 C974 1.362 . S
H976 C982 0.930 . S
H977 C985 0.930 . S
H978 C986 0.930 . S
H979 C987 0.930 . S
H980 C990 0.930 . S
H981 C991 0.930 . S
C982 H976 0.930 . S
C982 C983 1.355 . S
C982 C984 1.415 . S
C983 C982 1.355 . S
C983 C985 1.419 . S
C984 C982 1.415 . S
C984 C989 1.425 1_545 S
C984 C991 1.409 . S
C985 H977 0.930 . S
C985 C983 1.419 . S
C985 C986 1.362 1_545 S
C986 H978 0.930 . S
C986 C985 1.362 1_565 S
C986 C989 1.409 . S
C987 H979 0.930 . S
C987 C988 1.355 . S
C987 C989 1.415 . S
C988 C987 1.355 . S
C988 C990 1.419 . S
C989 C984 1.425 1_565 S
C989 C986 1.409 . S
C989 C987 1.415 . S
C990 H980 0.930 . S
C990 C988 1.419 . S
C990 C991 1.362 1_565 S
C991 H981 0.930 . S
C991 C984 1.409 . S
C991 C990 1.362 1_545 S
H992 C998 0.930 . S
H993 C1001 0.930 . S
H994 C1002 0.930 . S
H995 C1003 0.930 . S
H996 C1006 0.930 . S
H997 C1007 0.930 . S
C998 H992 0.930 . S
C998 C999 1.355 . S
C998 C1000 1.415 . S
C999 C998 1.355 . S
C999 C1001 1.419 . S
C1000 C998 1.415 . S
C1000 C1005 1.425 . S
C1000 C1007 1.409 . S
C1001 H993 0.930 . S
C1001 C999 1.419 . S
C1001 C1002 1.362 . S
C1002 H994 0.930 . S
C1002 C1001 1.362 . S
C1002 C1005 1.409 . S
C1003 H995 0.930 . S
C1003 C1004 1.355 . S
C1003 C1005 1.415 . S
C1004 C1003 1.355 . S
C1004 C1006 1.419 . S
C1005 C1000 1.425 . S
C1005 C1002 1.409 . S
C1005 C1003 1.415 . S
C1006 H996 0.930 . S
C1006 C1004 1.419 . S
C1006 C1007 1.362 . S
C1007 H997 0.930 . S
C1007 C1000 1.409 . S
C1007 C1006 1.362 . S
H1008 C1014 0.930 . S
H1009 C1017 0.930 . S
H1010 C1018 0.930 . S
H1011 C1019 0.930 . S
H1012 C1022 0.930 . S
H1013 C1023 0.930 . S
C1014 H1008 0.930 . S
C1014 C1015 1.355 . S
C1014 C1016 1.415 . S
C1015 C1014 1.355 . S
C1015 C1017 1.419 . S
C1016 C1014 1.415 . S
C1016 C1021 1.425 . S
C1016 C1023 1.409 . S
C1017 H1009 0.930 . S
C1017 C1015 1.419 . S
C1017 C1018 1.362 . S
C1018 H1010 0.930 . S
C1018 C1017 1.362 . S
C1018 C1021 1.409 . S
C1019 H1011 0.930 . S
C1019 C1020 1.355 . S
C1019 C1021 1.415 . S
C1020 C1019 1.355 . S
C1020 C1022 1.419 . S
C1021 C1016 1.425 . S
C1021 C1018 1.409 . S
C1021 C1019 1.415 . S
C1022 H1012 0.930 . S
C1022 C1020 1.419 . S
C1022 C1023 1.362 . S
C1023 H1013 0.930 . S
C1023 C1016 1.409 . S
C1023 C1022 1.362 . S
H1024 C1030 0.930 . S
H1025 C1033 0.930 . S
H1026 C1034 0.930 . S
H1027 C1035 0.930 . S
H1028 C1038 0.930 . S
H1029 C1039 0.930 . S
C1030 H1024 0.930 . S
C1030 C1031 1.355 . S
C1030 C1032 1.415 . S
C1031 C1030 1.355 . S
C1031 C1033 1.419 . S
C1032 C1030 1.415 . S
C1032 C1037 1.425 . S
C1032 C1039 1.409 . S
C1033 H1025 0.930 . S
C1033 C1031 1.419 . S
C1033 C1034 1.362 . S
C1034 H1026 0.930 . S
C1034 C1033 1.362 . S
C1034 C1037 1.409 . S
C1035 H1027 0.930 . S
C1035 C1036 1.355 . S
C1035 C1037 1.415 . S
C1036 C1035 1.355 . S
C1036 C1038 1.419 . S
C1037 C1032 1.425 . S
C1037 C1034 1.409 . S
C1037 C1035 1.415 . S
C1038 H1028 0.930 . S
C1038 C1036 1.419 . S
C1038 C1039 1.362 . S
C1039 H1029 0.930 . S
C1039 C1032 1.409 . S
C1039 C1038 1.362 . S
H1040 C1046 0.930 . S
H1041 C1049 0.930 . S
H1042 C1050 0.930 . S
H1043 C1051 0.930 . S
H1044 C1054 0.930 . S
H1045 C1055 0.930 . S
C1046 H1040 0.930 . S
C1046 C1047 1.355 . S
C1046 C1048 1.415 . S
C1047 C1046 1.355 . S
C1047 C1049 1.419 . S
C1048 C1046 1.415 . S
C1048 C1053 1.425 . S
C1048 C1055 1.409 . S
C1049 H1041 0.930 . S
C1049 C1047 1.419 . S
C1049 C1050 1.362 . S
C1050 H1042 0.930 . S
C1050 C1049 1.362 . S
C1050 C1053 1.409 . S
C1051 H1043 0.930 . S
C1051 C1052 1.355 . S
C1051 C1053 1.415 . S
C1052 C1051 1.355 . S
C1052 C1054 1.419 . S
C1053 C1048 1.425 . S
C1053 C1050 1.409 . S
C1053 C1051 1.415 . S
C1054 H1044 0.930 . S
C1054 C1052 1.419 . S
C1054 C1055 1.362 . S
C1055 H1045 0.930 . S
C1055 C1048 1.409 . S
C1055 C1054 1.362 . S
H1056 C1062 0.930 . S
H1057 C1065 0.930 . S
H1058 C1066 0.930 . S
H1059 C1067 0.930 . S
H1060 C1070 0.930 . S
H1061 C1071 0.930 . S
C1062 H1056 0.930 . S
C1062 C1063 1.355 . S
C1062 C1064 1.415 . S
C1063 C1062 1.355 . S
C1063 C1065 1.419 . S
C1064 C1062 1.415 . S
C1064 C1069 1.425 . S
C1064 C1071 1.409 . S
C1065 H1057 0.930 . S
C1065 C1063 1.419 . S
C1065 C1066 1.362 . S
C1066 H1058 0.930 . S
C1066 C1065 1.362 . S
C1066 C1069 1.409 . S
C1067 H1059 0.930 . S
C1067 C1068 1.355 . S
C1067 C1069 1.415 . S
C1068 C1067 1.355 . S
C1068 C1070 1.419 . S
C1069 C1064 1.425 . S
C1069 C1066 1.409 . S
C1069 C1067 1.415 . S
C1070 H1060 0.930 . S
C1070 C1068 1.419 . S
C1070 C1071 1.362 . S
C1071 H1061 0.930 . S
C1071 C1064 1.409 . S
C1071 C1070 1.362 . S
H1072 C1078 0.930 . S
H1073 C1081 0.930 . S
H1074 C1082 0.930 . S
H1075 C1083 0.930 . S
H1076 C1086 0.930 . S
H1077 C1087 0.930 . S
C1078 H1072 0.930 . S
C1078 C1079 1.355 . S
C1078 C1080 1.415 . S
C1079 C1078 1.355 . S
C1079 C1081 1.419 . S
C1080 C1078 1.415 . S
C1080 C1085 1.425 . S
C1080 C1087 1.409 . S
C1081 H1073 0.930 . S
C1081 C1079 1.419 . S
C1081 C1082 1.362 . S
C1082 H1074 0.930 . S
C1082 C1081 1.362 . S
C1082 C1085 1.409 . S
C1083 H1075 0.930 . S
C1083 C1084 1.355 . S
C1083 C1085 1.415 . S
C1084 C1083 1.355 . S
C1084 C1086 1.419 . S
C1085 C1080 1.425 . S
C1085 C1082 1.409 . S
C1085 C1083 1.415 . S
C1086 H1076 0.930 . S
C1086 C1084 1.419 . S
C1086 C1087 1.362 . S
C1087 H1077 0.930 . S
C1087 C1080 1.409 . S
C1087 C1086 1.362 . S
H1088 C1094 0.930 . S
H1089 C1097 0.930 . S
H1090 C1098 0.930 . S
H1091 C1099 0.930 . S
H1092 C1102 0.930 . S
H1093 C1103 0.930 . S
C1094 H1088 0.930 . S
C1094 C1095 1.355 . S
C1094 C1096 1.415 . S
C1095 C1094 1.355 . S
C1095 C1097 1.419 . S
C1096 C1094 1.415 . S
C1096 C1101 1.425 . S
C1096 C1103 1.409 . S
C1097 H1089 0.930 . S
C1097 C1095 1.419 . S
C1097 C1098 1.362 . S
C1098 H1090 0.930 . S
C1098 C1097 1.362 . S
C1098 C1101 1.409 . S
C1099 H1091 0.930 . S
C1099 C1100 1.355 . S
C1099 C1101 1.415 . S
C1100 C1099 1.355 . S
C1100 C1102 1.419 . S
C1101 C1096 1.425 . S
C1101 C1098 1.409 . S
C1101 C1099 1.415 . S
C1102 H1092 0.930 . S
C1102 C1100 1.419 . S
C1102 C1103 1.362 . S
C1103 H1093 0.930 . S
C1103 C1096 1.409 . S
C1103 C1102 1.362 . S
H1104 C1110 0.930 . S
H1105 C1113 0.930 . S
H1106 C1114 0.930 . S
H1107 C1115 0.930 . S
H1108 C1118 0.930 . S
H1109 C1119 0.930 . S
C1110 H1104 0.930 . S
C1110 C1111 1.355 . S
C1110 C1112 1.415 . S
C1111 C1110 1.355 . S
C1111 C1113 1.419 . S
C1112 C1110 1.415 . S
C1112 C1117 1.425 . S
C1112 C1119 1.409 . S
C1113 H1105 0.930 . S
C1113 C1111 1.419 . S
C1113 C1114 1.362 . S
C1114 H1106 0.930 . S
C1114 C1113 1.362 . S
C1114 C1117 1.409 . S
C1115 H1107 0.930 . S
C1115 C1116 1.355 . S
C1115 C1117 1.415 . S
C1116 C1115 1.355 . S
C1116 C1118 1.419 . S
C1117 C1112 1.425 . S
C1117 C1114 1.409 . S
C1117 C1115 1.415 . S
C1118 H1108 0.930 . S
C1118 C1116 1.419 . S
C1118 C1119 1.362 . S
C1119 H1109 0.930 . S
C1119 C1112 1.409 . S
C1119 C1118 1.362 . S
H1120 C1126 0.930 . S
H1121 C1129 0.930 . S
H1122 C1130 0.930 . S
H1123 C1131 0.930 . S
H1124 C1134 0.930 . S
H1125 C1135 0.930 . S
C1126 H1120 0.930 . S
C1126 C1127 1.355 . S
C1126 C1128 1.415 . S
C1127 C1126 1.355 . S
C1127 C1129 1.419 . S
C1128 C1126 1.415 . S
C1128 C1133 1.425 . S
C1128 C1135 1.409 . S
C1129 H1121 0.930 . S
C1129 C1127 1.419 . S
C1129 C1130 1.362 . S
C1130 H1122 0.930 . S
C1130 C1129 1.362 . S
C1130 C1133 1.409 . S
C1131 H1123 0.930 . S
C1131 C1132 1.355 . S
C1131 C1133 1.415 . S
C1132 C1131 1.355 . S
C1132 C1134 1.419 . S
C1133 C1128 1.425 . S
C1133 C1130 1.409 . S
C1133 C1131 1.415 . S
C1134 H1124 0.930 . S
C1134 C1132 1.419 . S
C1134 C1135 1.362 . S
C1135 H1125 0.930 . S
C1135 C1128 1.409 . S
C1135 C1134 1.362 . S
H1136 C1142 0.930 . S
H1137 C1145 0.930 . S
H1138 C1146 0.930 . S
H1139 C1147 0.930 . S
H1140 C1150 0.930 . S
H1141 C1151 0.930 . S
C1142 H1136 0.930 . S
C1142 C1143 1.355 . S
C1142 C1144 1.415 . S
C1143 C1142 1.355 . S
C1143 C1145 1.419 . S
C1144 C1142 1.415 . S
C1144 C1149 1.425 . S
C1144 C1151 1.409 . S
C1145 H1137 0.930 . S
C1145 C1143 1.419 . S
C1145 C1146 1.362 . S
C1146 H1138 0.930 . S
C1146 C1145 1.362 . S
C1146 C1149 1.409 . S
C1147 H1139 0.930 . S
C1147 C1148 1.355 . S
C1147 C1149 1.415 . S
C1148 C1147 1.355 . S
C1148 C1150 1.419 . S
C1149 C1144 1.425 . S
C1149 C1146 1.409 . S
C1149 C1147 1.415 . S
C1150 H1140 0.930 . S
C1150 C1148 1.419 . S
C1150 C1151 1.362 . S
C1151 H1141 0.930 . S
C1151 C1144 1.409 . S
C1151 C1150 1.362 . S
H1152 C1158 0.930 . S
H1153 C1161 0.930 . S
H1154 C1162 0.930 . S
H1155 C1163 0.930 . S
H1156 C1166 0.930 . S
H1157 C1167 0.930 . S
C1158 H1152 0.930 . S
C1158 C1159 1.355 . S
C1158 C1160 1.415 . S
C1159 C1158 1.355 . S
C1159 C1161 1.419 . S
C1160 C1158 1.415 . S
C1160 C1165 1.425 . S
C1160 C1167 1.409 . S
C1161 H1153 0.930 . S
C1161 C1159 1.419 . S
C1161 C1162 1.362 . S
C1162 H1154 0.930 . S
C1162 C1161 1.362 . S
C1162 C1165 1.409 . S
C1163 H1155 0.930 . S
C1163 C1164 1.355 . S
C1163 C1165 1.415 . S
C1164 C1163 1.355 . S
C1164 C1166 1.419 . S
C1165 C1160 1.425 . S
C1165 C1162 1.409 . S
C1165 C1163 1.415 . S
C1166 H1156 0.930 . S
C1166 C1164 1.419 . S
C1166 C1167 1.362 . S
C1167 H1157 0.930 . S
C1167 C1160 1.409 . S
C1167 C1166 1.362 . S
H1168 C1174 0.930 . S
H1169 C1177 0.930 . S
H1170 C1178 0.930 . S
H1171 C1179 0.930 . S
H1172 C1182 0.930 . S
H1173 C1183 0.930 . S
C1174 H1168 0.930 . S
C1174 C1175 1.355 . S
C1174 C1176 1.415 . S
C1175 C1174 1.355 . S
C1175 C1177 1.419 . S
C1176 C1174 1.415 . S
C1176 C1181 1.425 . S
C1176 C1183 1.409 . S
C1177 H1169 0.930 . S
C1177 C1175 1.419 . S
C1177 C1178 1.362 . S
C1178 H1170 0.930 . S
C1178 C1177 1.362 . S
C1178 C1181 1.409 . S
C1179 H1171 0.930 . S
C1179 C1180 1.355 . S
C1179 C1181 1.415 . S
C1180 C1179 1.355 . S
C1180 C1182 1.419 . S
C1181 C1176 1.425 . S
C1181 C1178 1.409 . S
C1181 C1179 1.415 . S
C1182 H1172 0.930 . S
C1182 C1180 1.419 . S
C1182 C1183 1.362 . S
C1183 H1173 0.930 . S
C1183 C1176 1.409 . S
C1183 C1182 1.362 . S
H1184 C1190 0.930 . S
H1185 C1193 0.930 . S
H1186 C1194 0.930 . S
H1187 C1195 0.930 . S
H1188 C1198 0.930 . S
H1189 C1199 0.930 . S
C1190 H1184 0.930 . S
C1190 C1191 1.355 . S
C1190 C1192 1.415 . S
C1191 C1190 1.355 . S
C1191 C1193 1.419 . S
C1192 C1190 1.415 . S
C1192 C1197 1.425 . S
C1192 C1199 1.409 . S
C1193 H1185 0.930 . S
C1193 C1191 1.419 . S
C1193 C1194 1.362 . S
C1194 H1186 0.930 . S
C1194 C1193 1.362 . S
C1194 C1197 1.409 . S
C1195 H1187 0.930 . S
C1195 C1196 1.355 . S
C1195 C1197 1.415 . S
C1196 C1195 1.355 . S
C1196 C1198 1.419 . S
C1197 C1192 1.425 . S
C1197 C1194 1.409 . S
C1197 C1195 1.415 . S
C1198 H1188 0.930 . S
C1198 C1196 1.419 . S
C1198 C1199 1.362 . S
C1199 H1189 0.930 . S
C1199 C1192 1.409 . S
C1199 C1198 1.362 . S
H1200 C1206 0.930 . S
H1201 C1209 0.930 . S
H1202 C1210 0.930 . S
H1203 C1211 0.930 . S
H1204 C1214 0.930 . S
H1205 C1215 0.930 . S
C1206 H1200 0.930 . S
C1206 C1207 1.355 . S
C1206 C1208 1.415 1_545 S
C1207 C1206 1.355 . S
C1207 C1209 1.419 . S
C1208 C1206 1.415 1_565 S
C1208 C1213 1.425 1_565 S
C1208 C1215 1.409 . S
C1209 H1201 0.930 . S
C1209 C1207 1.419 . S
C1209 C1210 1.362 . S
C1210 H1202 0.930 . S
C1210 C1209 1.362 . S
C1210 C1213 1.409 . S
C1211 H1203 0.930 . S
C1211 C1212 1.355 . S
C1211 C1213 1.415 1_565 S
C1212 C1211 1.355 . S
C1212 C1214 1.419 . S
C1213 C1208 1.425 1_545 S
C1213 C1210 1.409 . S
C1213 C1211 1.415 1_545 S
C1214 H1204 0.930 . S
C1214 C1212 1.419 . S
C1214 C1215 1.362 . S
C1215 H1205 0.930 . S
C1215 C1208 1.409 . S
C1215 C1214 1.362 . S
H1216 C1222 0.930 . S
H1217 C1225 0.930 . S
H1218 C1226 0.930 . S
H1219 C1227 0.930 . S
H1220 C1230 0.930 . S
H1221 C1231 0.930 . S
C1222 H1216 0.930 . S
C1222 C1223 1.355 . S
C1222 C1224 1.415 . S
C1223 C1222 1.355 . S
C1223 C1225 1.419 . S
C1224 C1222 1.415 . S
C1224 C1229 1.425 . S
C1224 C1231 1.409 . S
C1225 H1217 0.930 . S
C1225 C1223 1.419 . S
C1225 C1226 1.362 . S
C1226 H1218 0.930 . S
C1226 C1225 1.362 . S
C1226 C1229 1.409 . S
C1227 H1219 0.930 . S
C1227 C1228 1.355 . S
C1227 C1229 1.415 . S
C1228 C1227 1.355 . S
C1228 C1230 1.419 . S
C1229 C1224 1.425 . S
C1229 C1226 1.409 . S
C1229 C1227 1.415 . S
C1230 H1220 0.930 . S
C1230 C1228 1.419 . S
C1230 C1231 1.362 . S
C1231 H1221 0.930 . S
C1231 C1224 1.409 . S
C1231 C1230 1.362 . S
H1232 C1238 0.930 . S
H1233 C1241 0.930 . S
H1234 C1242 0.931 1_655 S
H1235 C1243 0.930 . S
H1236 C1246 0.930 . S
H1237 C1247 0.931 1_455 S
C1238 H1232 0.930 . S
C1238 C1239 1.355 . S
C1238 C1240 1.415 . S
C1239 C1238 1.355 . S
C1239 C1241 1.419 . S
C1240 C1238 1.415 . S
C1240 C1245 1.425 1_455 S
C1240 C1247 1.409 1_455 S
C1241 H1233 0.930 . S
C1241 C1239 1.419 . S
C1241 C1242 1.362 . S
C1242 H1234 0.931 1_455 S
C1242 C1241 1.362 . S
C1242 C1245 1.409 1_455 S
C1243 H1235 0.930 . S
C1243 C1244 1.355 . S
C1243 C1245 1.415 . S
C1244 C1243 1.355 . S
C1244 C1246 1.419 . S
C1245 C1240 1.425 1_655 S
C1245 C1242 1.409 1_655 S
C1245 C1243 1.415 . S
C1246 H1236 0.930 . S
C1246 C1244 1.419 . S
C1246 C1247 1.362 . S
C1247 H1237 0.931 1_655 S
C1247 C1240 1.409 1_655 S
C1247 C1246 1.362 . S
H1248 C1254 0.930 . S
H1249 C1257 0.930 . S
H1250 C1258 0.930 . S
H1251 C1259 0.930 . S
H1252 C1262 0.930 . S
H1253 C1263 0.930 . S
C1254 H1248 0.930 . S
C1254 C1255 1.355 . S
C1254 C1256 1.415 1_565 S
C1255 C1254 1.355 . S
C1255 C1257 1.419 . S
C1256 C1254 1.415 1_545 S
C1256 C1261 1.425 1_545 S
C1256 C1263 1.409 . S
C1257 H1249 0.930 . S
C1257 C1255 1.419 . S
C1257 C1258 1.362 . S
C1258 H1250 0.930 . S
C1258 C1257 1.362 . S
C1258 C1261 1.409 . S
C1259 H1251 0.930 . S
C1259 C1260 1.355 . S
C1259 C1261 1.415 1_545 S
C1260 C1259 1.355 . S
C1260 C1262 1.419 . S
C1261 C1256 1.425 1_565 S
C1261 C1258 1.409 . S
C1261 C1259 1.415 1_565 S
C1262 H1252 0.930 . S
C1262 C1260 1.419 . S
C1262 C1263 1.362 . S
C1263 H1253 0.930 . S
C1263 C1256 1.409 . S
C1263 C1262 1.362 . S
H1264 C1270 0.930 . S
H1265 C1273 0.930 . S
H1266 C1274 0.930 . S
H1267 C1275 0.930 . S
H1268 C1278 0.930 . S
H1269 C1279 0.930 . S
C1270 H1264 0.930 . S
C1270 C1271 1.355 . S
C1270 C1272 1.415 . S
C1271 C1270 1.355 . S
C1271 C1273 1.419 . S
C1272 C1270 1.415 . S
C1272 C1277 1.425 . S
C1272 C1279 1.409 . S
C1273 H1265 0.930 . S
C1273 C1271 1.419 . S
C1273 C1274 1.362 . S
C1274 H1266 0.930 . S
C1274 C1273 1.362 . S
C1274 C1277 1.409 . S
C1275 H1267 0.930 . S
C1275 C1276 1.355 . S
C1275 C1277 1.415 . S
C1276 C1275 1.355 . S
C1276 C1278 1.419 . S
C1277 C1272 1.425 . S
C1277 C1274 1.409 . S
C1277 C1275 1.415 . S
C1278 H1268 0.930 . S
C1278 C1276 1.419 . S
C1278 C1279 1.362 . S
C1279 H1269 0.930 . S
C1279 C1272 1.409 . S
C1279 C1278 1.362 . S
H1280 C1286 0.930 . S
H1281 C1289 0.930 . S
H1282 C1290 0.930 . S
H1283 C1291 0.930 . S
H1284 C1294 0.930 . S
H1285 C1295 0.930 . S
C1286 H1280 0.930 . S
C1286 C1287 1.355 . S
C1286 C1288 1.415 1_655 S
C1287 C1286 1.355 . S
C1287 C1289 1.419 . S
C1288 C1286 1.415 1_455 S
C1288 C1293 1.425 1_455 S
C1288 C1295 1.409 . S
C1289 H1281 0.930 . S
C1289 C1287 1.419 . S
C1289 C1290 1.362 . S
C1290 H1282 0.930 . S
C1290 C1289 1.362 . S
C1290 C1293 1.409 . S
C1291 H1283 0.930 . S
C1291 C1292 1.355 . S
C1291 C1293 1.415 1_455 S
C1292 C1291 1.355 . S
C1292 C1294 1.419 . S
C1293 C1288 1.425 1_655 S
C1293 C1290 1.409 . S
C1293 C1291 1.415 1_655 S
C1294 H1284 0.930 . S
C1294 C1292 1.419 . S
C1294 C1295 1.362 . S
C1295 H1285 0.930 . S
C1295 C1288 1.409 . S
C1295 C1294 1.362 . S
H1296 C1302 0.930 . S
H1297 C1305 0.930 . S
H1298 C1306 0.930 1_545 S
H1299 C1307 0.930 . S
H1300 C1310 0.930 . S
H1301 C1311 0.930 1_565 S
C1302 H1296 0.930 . S
C1302 C1303 1.355 . S
C1302 C1304 1.415 . S
C1303 C1302 1.355 . S
C1303 C1305 1.419 . S
C1304 C1302 1.415 . S
C1304 C1309 1.425 1_565 S
C1304 C1311 1.409 1_565 S
C1305 H1297 0.930 . S
C1305 C1303 1.419 . S
C1305 C1306 1.362 . S
C1306 H1298 0.930 1_565 S
C1306 C1305 1.362 . S
C1306 C1309 1.409 1_565 S
C1307 H1299 0.930 . S
C1307 C1308 1.355 . S
C1307 C1309 1.415 . S
C1308 C1307 1.355 . S
C1308 C1310 1.419 . S
C1309 C1304 1.425 1_545 S
C1309 C1306 1.409 1_545 S
C1309 C1307 1.415 . S
C1310 H1300 0.930 . S
C1310 C1308 1.419 . S
C1310 C1311 1.362 . S
C1311 H1301 0.930 1_545 S
C1311 C1304 1.409 1_545 S
C1311 C1310 1.362 . S
H1312 C1318 0.930 . S
H1313 C1321 0.930 . S
H1314 C1322 0.930 . S
H1315 C1323 0.930 . S
H1316 C1326 0.930 . S
H1317 C1327 0.930 . S
C1318 H1312 0.930 . S
C1318 C1319 1.355 . S
C1318 C1320 1.415 . S
C1319 C1318 1.355 . S
C1319 C1321 1.419 . S
C1320 C1318 1.415 . S
C1320 C1325 1.425 . S
C1320 C1327 1.409 . S
C1321 H1313 0.930 . S
C1321 C1319 1.419 . S
C1321 C1322 1.362 . S
C1322 H1314 0.930 . S
C1322 C1321 1.362 . S
C1322 C1325 1.409 . S
C1323 H1315 0.930 . S
C1323 C1324 1.355 . S
C1323 C1325 1.415 . S
C1324 C1323 1.355 . S
C1324 C1326 1.419 . S
C1325 C1320 1.425 . S
C1325 C1322 1.409 . S
C1325 C1323 1.415 . S
C1326 H1316 0.930 . S
C1326 C1324 1.419 . S
C1326 C1327 1.362 . S
C1327 H1317 0.930 . S
C1327 C1320 1.409 . S
C1327 C1326 1.362 . S
H1328 C1334 0.930 . S
H1329 C1337 0.930 . S
H1330 C1338 0.930 . S
H1331 C1339 0.930 . S
H1332 C1342 0.930 . S
H1333 C1343 0.930 . S
C1334 H1328 0.930 . S
C1334 C1335 1.355 . S
C1334 C1336 1.386 1_455 S
C1335 C1334 1.355 . S
C1335 C1337 1.419 . S
C1336 C1334 1.386 1_655 S
C1336 C1341 1.395 1_655 S
C1336 C1343 1.454 . S
C1337 H1329 0.930 . S
C1337 C1335 1.419 . S
C1337 C1338 1.362 . S
C1338 H1330 0.930 . S
C1338 C1337 1.362 . S
C1338 C1341 1.454 . S
C1339 H1331 0.930 . S
C1339 C1340 1.355 . S
C1339 C1341 1.386 1_655 S
C1340 C1339 1.355 . S
C1340 C1342 1.419 . S
C1341 C1336 1.395 1_455 S
C1341 C1338 1.454 . S
C1341 C1339 1.386 1_455 S
C1342 H1332 0.930 . S
C1342 C1340 1.419 . S
C1342 C1343 1.362 . S
C1343 H1333 0.930 . S
C1343 C1336 1.454 . S
C1343 C1342 1.362 . S
H1344 C1350 0.930 . S
H1345 C1353 0.930 . S
H1346 C1354 0.930 . S
H1347 C1355 0.930 . S
H1348 C1358 0.930 . S
H1349 C1359 0.930 . S
C1350 H1344 0.930 . S
C1350 C1351 1.355 . S
C1350 C1352 1.415 1_545 S
C1351 C1350 1.355 . S
C1351 C1353 1.419 . S
C1352 C1350 1.415 1_565 S
C1352 C1357 1.425 1_565 S
C1352 C1359 1.409 . S
C1353 H1345 0.930 . S
C1353 C1351 1.419 . S
C1353 C1354 1.362 . S
C1354 H1346 0.930 . S
C1354 C1353 1.362 . S
C1354 C1357 1.409 . S
C1355 H1347 0.930 . S
C1355 C1356 1.355 . S
C1355 C1357 1.415 1_565 S
C1356 C1355 1.355 . S
C1356 C1358 1.419 . S
C1357 C1352 1.425 1_545 S
C1357 C1354 1.409 . S
C1357 C1355 1.415 1_545 S
C1358 H1348 0.930 . S
C1358 C1356 1.419 . S
C1358 C1359 1.362 . S
C1359 H1349 0.930 . S
C1359 C1352 1.409 . S
C1359 C1358 1.362 . S
H1360 C1366 0.930 . S
H1361 C1369 0.930 . S
H1362 C1370 0.930 . S
H1363 C1371 0.930 . S
H1364 C1374 0.930 . S
H1365 C1375 0.930 . S
C1366 H1360 0.930 . S
C1366 C1367 1.355 . S
C1366 C1368 1.415 . S
C1367 C1366 1.355 . S
C1367 C1369 1.419 . S
C1368 C1366 1.415 . S
C1368 C1373 1.425 . S
C1368 C1375 1.409 . S
C1369 H1361 0.930 . S
C1369 C1367 1.419 . S
C1369 C1370 1.362 . S
C1370 H1362 0.930 . S
C1370 C1369 1.362 . S
C1370 C1373 1.409 . S
C1371 H1363 0.930 . S
C1371 C1372 1.355 . S
C1371 C1373 1.415 . S
C1372 C1371 1.355 . S
C1372 C1374 1.419 . S
C1373 C1368 1.425 . S
C1373 C1370 1.409 . S
C1373 C1371 1.415 . S
C1374 H1364 0.930 . S
C1374 C1372 1.419 . S
C1374 C1375 1.362 . S
C1375 H1365 0.930 . S
C1375 C1368 1.409 . S
C1375 C1374 1.362 . S
H1376 C1382 0.930 . S
H1377 C1385 0.930 . S
H1378 C1386 0.924 1_655 S
H1379 C1387 0.930 . S
H1380 C1390 0.930 . S
H1381 C1391 0.924 1_455 S
C1382 H1376 0.930 . S
C1382 C1383 1.355 . S
C1382 C1384 1.415 . S
C1383 C1382 1.355 . S
C1383 C1385 1.419 . S
C1384 C1382 1.415 . S
C1384 C1389 1.425 1_455 S
C1384 C1391 1.383 1_455 S
C1385 H1377 0.930 . S
C1385 C1383 1.419 . S
C1385 C1386 1.396 . S
C1386 H1378 0.924 1_455 S
C1386 C1385 1.396 . S
C1386 C1389 1.383 1_455 S
C1387 H1379 0.930 . S
C1387 C1388 1.355 . S
C1387 C1389 1.415 . S
C1388 C1387 1.355 . S
C1388 C1390 1.419 . S
C1389 C1384 1.425 1_655 S
C1389 C1386 1.383 1_655 S
C1389 C1387 1.415 . S
C1390 H1380 0.930 . S
C1390 C1388 1.419 . S
C1390 C1391 1.396 . S
C1391 H1381 0.924 1_655 S
C1391 C1384 1.383 1_655 S
C1391 C1390 1.396 . S
H1392 C1398 0.930 . S
H1393 C1401 0.930 . S
H1394 C1402 0.930 . S
H1395 C1403 0.930 . S
H1396 C1406 0.930 . S
H1397 C1407 0.930 . S
C1398 H1392 0.930 . S
C1398 C1399 1.355 . S
C1398 C1400 1.415 . S
C1399 C1398 1.355 . S
C1399 C1401 1.419 . S
C1400 C1398 1.415 . S
C1400 C1405 1.425 . S
C1400 C1407 1.409 . S
C1401 H1393 0.930 . S
C1401 C1399 1.419 . S
C1401 C1402 1.362 . S
C1402 H1394 0.930 . S
C1402 C1401 1.362 . S
C1402 C1405 1.409 . S
C1403 H1395 0.930 . S
C1403 C1404 1.355 . S
C1403 C1405 1.415 . S
C1404 C1403 1.355 . S
C1404 C1406 1.419 . S
C1405 C1400 1.425 . S
C1405 C1402 1.409 . S
C1405 C1403 1.415 . S
C1406 H1396 0.930 . S
C1406 C1404 1.419 . S
C1406 C1407 1.362 . S
C1407 H1397 0.930 . S
C1407 C1400 1.409 . S
C1407 C1406 1.362 . S
H1408 C1414 0.930 . S
H1409 C1417 0.930 . S
H1410 C1418 0.930 . S
H1411 C1419 0.930 . S
H1412 C1422 0.930 . S
H1413 C1423 0.930 . S
C1414 H1408 0.930 . S
C1414 C1415 1.355 . S
C1414 C1416 1.415 . S
C1415 C1414 1.355 . S
C1415 C1417 1.419 . S
C1416 C1414 1.415 . S
C1416 C1421 1.425 . S
C1416 C1423 1.409 . S
C1417 H1409 0.930 . S
C1417 C1415 1.419 . S
C1417 C1418 1.362 . S
C1418 H1410 0.930 . S
C1418 C1417 1.362 . S
C1418 C1421 1.409 . S
C1419 H1411 0.930 . S
C1419 C1420 1.355 . S
C1419 C1421 1.415 . S
C1420 C1419 1.355 . S
C1420 C1422 1.419 . S
C1421 C1416 1.425 . S
C1421 C1418 1.409 . S
C1421 C1419 1.415 . S
C1422 H1412 0.930 . S
C1422 C1420 1.419 . S
C1422 C1423 1.362 . S
C1423 H1413 0.930 . S
C1423 C1416 1.409 . S
C1423 C1422 1.362 . S
H1424 C1430 0.930 . S
H1425 C1433 0.930 . S
H1426 C1434 0.930 . S
H1427 C1435 0.930 . S
H1428 C1438 0.930 . S
H1429 C1439 0.930 . S
C1430 H1424 0.930 . S
C1430 C1431 1.355 . S
C1430 C1432 1.415 . S
C1431 C1430 1.355 . S
C1431 C1433 1.419 . S
C1432 C1430 1.415 . S
C1432 C1437 1.425 . S
C1432 C1439 1.409 . S
C1433 H1425 0.930 . S
C1433 C1431 1.419 . S
C1433 C1434 1.362 . S
C1434 H1426 0.930 . S
C1434 C1433 1.362 . S
C1434 C1437 1.409 . S
C1435 H1427 0.930 . S
C1435 C1436 1.355 . S
C1435 C1437 1.415 . S
C1436 C1435 1.355 . S
C1436 C1438 1.419 . S
C1437 C1432 1.425 . S
C1437 C1434 1.409 . S
C1437 C1435 1.415 . S
C1438 H1428 0.930 . S
C1438 C1436 1.419 . S
C1438 C1439 1.362 . S
C1439 H1429 0.930 . S
C1439 C1432 1.409 . S
C1439 C1438 1.362 . S
H1440 C1446 0.930 . S
H1441 C1449 0.930 . S
H1442 C1450 0.930 . S
H1443 C1451 0.930 . S
H1444 C1454 0.930 . S
H1445 C1455 0.930 . S
C1446 H1440 0.930 . S
C1446 C1447 1.355 . S
C1446 C1448 1.415 . S
C1447 C1446 1.355 . S
C1447 C1449 1.419 . S
C1448 C1446 1.415 . S
C1448 C1453 1.425 . S
C1448 C1455 1.409 . S
C1449 H1441 0.930 . S
C1449 C1447 1.419 . S
C1449 C1450 1.362 . S
C1450 H1442 0.930 . S
C1450 C1449 1.362 . S
C1450 C1453 1.409 . S
C1451 H1443 0.930 . S
C1451 C1452 1.355 . S
C1451 C1453 1.415 . S
C1452 C1451 1.355 . S
C1452 C1454 1.419 . S
C1453 C1448 1.425 . S
C1453 C1450 1.409 . S
C1453 C1451 1.415 . S
C1454 H1444 0.930 . S
C1454 C1452 1.419 . S
C1454 C1455 1.362 . S
C1455 H1445 0.930 . S
C1455 C1448 1.409 . S
C1455 C1454 1.362 . S
H1456 C1462 0.930 . S
H1457 C1465 0.930 . S
H1458 C1466 0.930 . S
H1459 C1467 0.930 . S
H1460 C1470 0.930 . S
H1461 C1471 0.930 . S
C1462 H1456 0.930 . S
C1462 C1463 1.355 . S
C1462 C1464 1.415 . S
C1463 C1462 1.355 . S
C1463 C1465 1.419 . S
C1464 C1462 1.415 . S
C1464 C1469 1.425 . S
C1464 C1471 1.409 . S
C1465 H1457 0.930 . S
C1465 C1463 1.419 . S
C1465 C1466 1.362 . S
C1466 H1458 0.930 . S
C1466 C1465 1.362 . S
C1466 C1469 1.409 . S
C1467 H1459 0.930 . S
C1467 C1468 1.355 . S
C1467 C1469 1.415 . S
C1468 C1467 1.355 . S
C1468 C1470 1.419 . S
C1469 C1464 1.425 . S
C1469 C1466 1.409 . S
C1469 C1467 1.415 . S
C1470 H1460 0.930 . S
C1470 C1468 1.419 . S
C1470 C1471 1.362 . S
C1471 H1461 0.930 . S
C1471 C1464 1.409 . S
C1471 C1470 1.362 . S
H1472 C1478 0.930 . S
H1473 C1481 0.930 . S
H1474 C1482 0.930 . S
H1475 C1483 0.930 . S
H1476 C1486 0.930 . S
H1477 C1487 0.930 . S
C1478 H1472 0.930 . S
C1478 C1479 1.355 . S
C1478 C1480 1.415 . S
C1479 C1478 1.355 . S
C1479 C1481 1.419 . S
C1480 C1478 1.415 . S
C1480 C1485 1.425 . S
C1480 C1487 1.409 . S
C1481 H1473 0.930 . S
C1481 C1479 1.419 . S
C1481 C1482 1.362 . S
C1482 H1474 0.930 . S
C1482 C1481 1.362 . S
C1482 C1485 1.409 . S
C1483 H1475 0.930 . S
C1483 C1484 1.355 . S
C1483 C1485 1.415 . S
C1484 C1483 1.355 . S
C1484 C1486 1.419 . S
C1485 C1480 1.425 . S
C1485 C1482 1.409 . S
C1485 C1483 1.415 . S
C1486 H1476 0.930 . S
C1486 C1484 1.419 . S
C1486 C1487 1.362 . S
C1487 H1477 0.930 . S
C1487 C1480 1.409 . S
C1487 C1486 1.362 . S
H1488 C1494 0.930 . S
H1489 C1497 0.930 . S
H1490 C1498 0.930 . S
H1491 C1499 0.930 . S
H1492 C1502 0.930 . S
H1493 C1503 0.930 . S
C1494 H1488 0.930 . S
C1494 C1495 1.355 . S
C1494 C1496 1.415 . S
C1495 C1494 1.355 . S
C1495 C1497 1.419 . S
C1496 C1494 1.415 . S
C1496 C1501 1.425 . S
C1496 C1503 1.409 . S
C1497 H1489 0.930 . S
C1497 C1495 1.419 . S
C1497 C1498 1.362 . S
C1498 H1490 0.930 . S
C1498 C1497 1.362 . S
C1498 C1501 1.409 . S
C1499 H1491 0.930 . S
C1499 C1500 1.355 . S
C1499 C1501 1.415 . S
C1500 C1499 1.355 . S
C1500 C1502 1.419 . S
C1501 C1496 1.425 . S
C1501 C1498 1.409 . S
C1501 C1499 1.415 . S
C1502 H1492 0.930 . S
C1502 C1500 1.419 . S
C1502 C1503 1.362 . S
C1503 H1493 0.930 . S
C1503 C1496 1.409 . S
C1503 C1502 1.362 . S
H1504 C1510 0.930 . S
H1505 C1513 0.930 . S
H1506 C1514 0.930 . S
H1507 C1515 0.930 . S
H1508 C1518 0.930 . S
H1509 C1519 0.930 . S
C1510 H1504 0.930 . S
C1510 C1511 1.355 . S
C1510 C1512 1.415 . S
C1511 C1510 1.355 . S
C1511 C1513 1.419 . S
C1512 C1510 1.415 . S
C1512 C1517 1.425 . S
C1512 C1519 1.409 . S
C1513 H1505 0.930 . S
C1513 C1511 1.419 . S
C1513 C1514 1.362 . S
C1514 H1506 0.930 . S
C1514 C1513 1.362 . S
C1514 C1517 1.409 . S
C1515 H1507 0.930 . S
C1515 C1516 1.355 . S
C1515 C1517 1.415 . S
C1516 C1515 1.355 . S
C1516 C1518 1.419 . S
C1517 C1512 1.425 . S
C1517 C1514 1.409 . S
C1517 C1515 1.415 . S
C1518 H1508 0.930 . S
C1518 C1516 1.419 . S
C1518 C1519 1.362 . S
C1519 H1509 0.930 . S
C1519 C1512 1.409 . S
C1519 C1518 1.362 . S
H1520 C1526 0.930 . S
H1521 C1529 0.930 . S
H1522 C1530 0.930 . S
H1523 C1531 0.930 . S
H1524 C1534 0.930 . S
H1525 C1535 0.930 . S
C1526 H1520 0.930 . S
C1526 C1527 1.355 . S
C1526 C1528 1.415 . S
C1527 C1526 1.355 . S
C1527 C1529 1.419 . S
C1528 C1526 1.415 . S
C1528 C1533 1.425 . S
C1528 C1535 1.409 . S
C1529 H1521 0.930 . S
C1529 C1527 1.419 . S
C1529 C1530 1.362 . S
C1530 H1522 0.930 . S
C1530 C1529 1.362 . S
C1530 C1533 1.409 . S
C1531 H1523 0.930 . S
C1531 C1532 1.355 . S
C1531 C1533 1.415 . S
C1532 C1531 1.355 . S
C1532 C1534 1.419 . S
C1533 C1528 1.425 . S
C1533 C1530 1.409 . S
C1533 C1531 1.415 . S
C1534 H1524 0.930 . S
C1534 C1532 1.419 . S
C1534 C1535 1.362 . S
C1535 H1525 0.930 . S
C1535 C1528 1.409 . S
C1535 C1534 1.362 . S
H1536 C1542 0.930 . S
H1537 C1545 0.930 . S
H1538 C1546 0.930 . S
H1539 C1547 0.930 . S
H1540 C1550 0.930 . S
H1541 C1551 0.930 . S
C1542 H1536 0.930 . S
C1542 C1543 1.355 . S
C1542 C1544 1.415 . S
C1543 C1542 1.355 . S
C1543 C1545 1.419 . S
C1544 C1542 1.415 . S
C1544 C1549 1.425 . S
C1544 C1551 1.409 . S
C1545 H1537 0.930 . S
C1545 C1543 1.419 . S
C1545 C1546 1.362 . S
C1546 H1538 0.930 . S
C1546 C1545 1.362 . S
C1546 C1549 1.409 . S
C1547 H1539 0.930 . S
C1547 C1548 1.355 . S
C1547 C1549 1.415 . S
C1548 C1547 1.355 . S
C1548 C1550 1.419 . S
C1549 C1544 1.425 . S
C1549 C1546 1.409 . S
C1549 C1547 1.415 . S
C1550 H1540 0.930 . S
C1550 C1548 1.419 . S
C1550 C1551 1.362 . S
C1551 H1541 0.930 . S
C1551 C1544 1.409 . S
C1551 C1550 1.362 . S
H1552 C1558 0.930 . S
H1553 C1561 0.930 . S
H1554 C1562 0.930 . S
H1555 C1563 0.930 . S
H1556 C1566 0.930 . S
H1557 C1567 0.930 . S
C1558 H1552 0.930 . S
C1558 C1559 1.355 . S
C1558 C1560 1.415 . S
C1559 C1558 1.355 . S
C1559 C1561 1.419 . S
C1560 C1558 1.415 . S
C1560 C1565 1.425 . S
C1560 C1567 1.409 . S
C1561 H1553 0.930 . S
C1561 C1559 1.419 . S
C1561 C1562 1.362 . S
C1562 H1554 0.930 . S
C1562 C1561 1.362 . S
C1562 C1565 1.409 . S
C1563 H1555 0.930 . S
C1563 C1564 1.355 . S
C1563 C1565 1.415 . S
C1564 C1563 1.355 . S
C1564 C1566 1.419 . S
C1565 C1560 1.425 . S
C1565 C1562 1.409 . S
C1565 C1563 1.415 . S
C1566 H1556 0.930 . S
C1566 C1564 1.419 . S
C1566 C1567 1.362 . S
C1567 H1557 0.930 . S
C1567 C1560 1.409 . S
C1567 C1566 1.362 . S
H1568 C1574 0.930 . S
H1569 C1577 0.930 . S
H1570 C1578 0.930 . S
H1571 C1579 0.930 . S
H1572 C1582 0.930 . S
H1573 C1583 0.930 . S
C1574 H1568 0.930 . S
C1574 C1575 1.355 . S
C1574 C1576 1.415 . S
C1575 C1574 1.355 . S
C1575 C1577 1.419 . S
C1576 C1574 1.415 . S
C1576 C1581 1.425 . S
C1576 C1583 1.409 . S
C1577 H1569 0.930 . S
C1577 C1575 1.419 . S
C1577 C1578 1.362 . S
C1578 H1570 0.930 . S
C1578 C1577 1.362 . S
C1578 C1581 1.409 . S
C1579 H1571 0.930 . S
C1579 C1580 1.355 . S
C1579 C1581 1.415 . S
C1580 C1579 1.355 . S
C1580 C1582 1.419 . S
C1581 C1576 1.425 . S
C1581 C1578 1.409 . S
C1581 C1579 1.415 . S
C1582 H1572 0.930 . S
C1582 C1580 1.419 . S
C1582 C1583 1.362 . S
C1583 H1573 0.930 . S
C1583 C1576 1.409 . S
C1583 C1582 1.362 . S
H1584 C1590 0.930 . S
H1585 C1593 0.930 . S
H1586 C1594 0.930 . S
H1587 C1595 0.930 . S
H1588 C1598 0.930 . S
H1589 C1599 0.930 . S
C1590 H1584 0.930 . S
C1590 C1591 1.355 . S
C1590 C1592 1.415 . S
C1591 C1590 1.355 . S
C1591 C1593 1.419 . S
C1592 C1590 1.415 . S
C1592 C1597 1.425 1_554 S
C1592 C1599 1.409 1_554 S
C1593 H1585 0.930 . S
C1593 C1591 1.419 . S
C1593 C1594 1.362 . S
C1594 H1586 0.930 . S
C1594 C1593 1.362 . S
C1594 C1597 1.409 1_554 S
C1595 H1587 0.930 . S
C1595 C1596 1.355 . S
C1595 C1597 1.415 . S
C1596 C1595 1.355 . S
C1596 C1598 1.419 . S
C1597 C1592 1.425 1_556 S
C1597 C1594 1.409 1_556 S
C1597 C1595 1.415 . S
C1598 H1588 0.930 . S
C1598 C1596 1.419 . S
C1598 C1599 1.362 . S
C1599 H1589 0.930 . S
C1599 C1592 1.409 1_556 S
C1599 C1598 1.362 . S
H1600 C1606 0.930 . S
H1601 C1609 0.930 . S
H1602 C1610 0.930 . S
H1603 C1611 0.930 . S
H1604 C1614 0.930 . S
H1605 C1615 0.930 . S
C1606 H1600 0.930 . S
C1606 C1607 1.355 . S
C1606 C1608 1.415 . S
C1607 C1606 1.355 . S
C1607 C1609 1.419 . S
C1608 C1606 1.415 . S
C1608 C1613 1.425 1_554 S
C1608 C1615 1.409 1_554 S
C1609 H1601 0.930 . S
C1609 C1607 1.419 . S
C1609 C1610 1.362 . S
C1610 H1602 0.930 . S
C1610 C1609 1.362 . S
C1610 C1613 1.409 1_554 S
C1611 H1603 0.930 . S
C1611 C1612 1.355 . S
C1611 C1613 1.415 . S
C1612 C1611 1.355 . S
C1612 C1614 1.419 . S
C1613 C1608 1.425 1_556 S
C1613 C1610 1.409 1_556 S
C1613 C1611 1.415 . S
C1614 H1604 0.930 . S
C1614 C1612 1.419 . S
C1614 C1615 1.362 . S
C1615 H1605 0.930 . S
C1615 C1608 1.409 1_556 S
C1615 C1614 1.362 . S
H1616 C1622 0.930 . S
H1617 C1625 0.930 . S
H1618 C1626 0.930 . S
H1619 C1627 0.930 . S
H1620 C1630 0.930 . S
H1621 C1631 0.930 . S
C1622 H1616 0.930 . S
C1622 C1623 1.355 . S
C1622 C1624 1.415 . S
C1623 C1622 1.355 . S
C1623 C1625 1.419 . S
C1624 C1622 1.415 . S
C1624 C1629 1.425 1_554 S
C1624 C1631 1.409 1_554 S
C1625 H1617 0.930 . S
C1625 C1623 1.419 . S
C1625 C1626 1.362 . S
C1626 H1618 0.930 . S
C1626 C1625 1.362 . S
C1626 C1629 1.409 1_554 S
C1627 H1619 0.930 . S
C1627 C1628 1.355 . S
C1627 C1629 1.415 . S
C1628 C1627 1.355 . S
C1628 C1630 1.419 . S
C1629 C1624 1.425 1_556 S
C1629 C1626 1.409 1_556 S
C1629 C1627 1.415 . S
C1630 H1620 0.930 . S
C1630 C1628 1.419 . S
C1630 C1631 1.362 . S
C1631 H1621 0.930 . S
C1631 C1624 1.409 1_556 S
C1631 C1630 1.362 . S
H1632 C1638 0.930 . S
H1633 C1641 0.930 . S
H1634 C1642 0.930 . S
H1635 C1643 0.930 . S
H1636 C1646 0.930 . S
H1637 C1647 0.930 . S
C1638 H1632 0.930 . S
C1638 C1639 1.355 . S
C1638 C1640 1.415 . S
C1639 C1638 1.355 . S
C1639 C1641 1.419 . S
C1640 C1638 1.415 . S
C1640 C1645 1.425 1_554 S
C1640 C1647 1.409 1_554 S
C1641 H1633 0.930 . S
C1641 C1639 1.419 . S
C1641 C1642 1.362 . S
C1642 H1634 0.930 . S
C1642 C1641 1.362 . S
C1642 C1645 1.409 1_554 S
C1643 H1635 0.930 . S
C1643 C1644 1.355 . S
C1643 C1645 1.415 . S
C1644 C1643 1.355 . S
C1644 C1646 1.419 . S
C1645 C1640 1.425 1_556 S
C1645 C1642 1.409 1_556 S
C1645 C1643 1.415 . S
C1646 H1636 0.930 . S
C1646 C1644 1.419 . S
C1646 C1647 1.362 . S
C1647 H1637 0.930 . S
C1647 C1640 1.409 1_556 S
C1647 C1646 1.362 . S
H1648 C1654 0.930 . S
H1649 C1657 0.930 . S
H1650 C1658 0.930 . S
H1651 C1659 0.930 . S
H1652 C1662 0.930 . S
H1653 C1663 0.930 . S
C1654 H1648 0.930 . S
C1654 C1655 1.355 . S
C1654 C1656 1.415 . S
C1655 C1654 1.355 . S
C1655 C1657 1.419 . S
C1656 C1654 1.415 . S
C1656 C1661 1.425 1_554 S
C1656 C1663 1.409 1_554 S
C1657 H1649 0.930 . S
C1657 C1655 1.419 . S
C1657 C1658 1.362 . S
C1658 H1650 0.930 . S
C1658 C1657 1.362 . S
C1658 C1661 1.409 1_554 S
C1659 H1651 0.930 . S
C1659 C1660 1.355 . S
C1659 C1661 1.415 . S
C1660 C1659 1.355 . S
C1660 C1662 1.419 . S
C1661 C1656 1.425 1_556 S
C1661 C1658 1.409 1_556 S
C1661 C1659 1.415 . S
C1662 H1652 0.930 . S
C1662 C1660 1.419 . S
C1662 C1663 1.362 . S
C1663 H1653 0.930 . S
C1663 C1656 1.409 1_556 S
C1663 C1662 1.362 . S
H1664 C1670 0.930 . S
H1665 C1673 0.930 . S
H1666 C1674 0.930 . S
H1667 C1675 0.930 . S
H1668 C1678 0.930 . S
H1669 C1679 0.930 . S
C1670 H1664 0.930 . S
C1670 C1671 1.355 . S
C1670 C1672 1.415 . S
C1671 C1670 1.355 . S
C1671 C1673 1.419 . S
C1672 C1670 1.415 . S
C1672 C1677 1.425 1_556 S
C1672 C1679 1.409 1_556 S
C1673 H1665 0.930 . S
C1673 C1671 1.419 . S
C1673 C1674 1.362 . S
C1674 H1666 0.930 . S
C1674 C1673 1.362 . S
C1674 C1677 1.409 1_556 S
C1675 H1667 0.930 . S
C1675 C1676 1.355 . S
C1675 C1677 1.415 . S
C1676 C1675 1.355 . S
C1676 C1678 1.419 . S
C1677 C1672 1.425 1_554 S
C1677 C1674 1.409 1_554 S
C1677 C1675 1.415 . S
C1678 H1668 0.930 . S
C1678 C1676 1.419 . S
C1678 C1679 1.362 . S
C1679 H1669 0.930 . S
C1679 C1672 1.409 1_554 S
C1679 C1678 1.362 . S
H1680 C1686 0.930 . S
H1681 C1689 0.930 . S
H1682 C1690 0.930 . S
H1683 C1691 0.930 . S
H1684 C1694 0.930 . S
H1685 C1695 0.930 . S
C1686 H1680 0.930 . S
C1686 C1687 1.355 . S
C1686 C1688 1.415 . S
C1687 C1686 1.355 . S
C1687 C1689 1.419 . S
C1688 C1686 1.415 . S
C1688 C1693 1.425 . S
C1688 C1695 1.409 . S
C1689 H1681 0.930 . S
C1689 C1687 1.419 . S
C1689 C1690 1.362 . S
C1690 H1682 0.930 . S
C1690 C1689 1.362 . S
C1690 C1693 1.409 . S
C1691 H1683 0.930 . S
C1691 C1692 1.355 . S
C1691 C1693 1.415 . S
C1692 C1691 1.355 . S
C1692 C1694 1.419 . S
C1693 C1688 1.425 . S
C1693 C1690 1.409 . S
C1693 C1691 1.415 . S
C1694 H1684 0.930 . S
C1694 C1692 1.419 . S
C1694 C1695 1.362 . S
C1695 H1685 0.930 . S
C1695 C1688 1.409 . S
C1695 C1694 1.362 . S
H1696 C1702 0.930 . S
H1697 C1705 0.930 . S
H1698 C1706 0.930 . S
H1699 C1707 0.930 . S
H1700 C1710 0.930 . S
H1701 C1711 0.930 . S
C1702 H1696 0.930 . S
C1702 C1703 1.355 . S
C1702 C1704 1.415 . S
C1703 C1702 1.355 . S
C1703 C1705 1.419 . S
C1704 C1702 1.415 . S
C1704 C1709 1.425 . S
C1704 C1711 1.409 . S
C1705 H1697 0.930 . S
C1705 C1703 1.419 . S
C1705 C1706 1.362 . S
C1706 H1698 0.930 . S
C1706 C1705 1.362 . S
C1706 C1709 1.409 . S
C1707 H1699 0.930 . S
C1707 C1708 1.355 . S
C1707 C1709 1.415 . S
C1708 C1707 1.355 . S
C1708 C1710 1.419 . S
C1709 C1704 1.425 . S
C1709 C1706 1.409 . S
C1709 C1707 1.415 . S
C1710 H1700 0.930 . S
C1710 C1708 1.419 . S
C1710 C1711 1.362 . S
C1711 H1701 0.930 . S
C1711 C1704 1.409 . S
C1711 C1710 1.362 . S
H1712 C1718 0.930 . S
H1713 C1721 0.930 . S
H1714 C1722 0.930 . S
H1715 C1723 0.930 . S
H1716 C1726 0.930 . S
H1717 C1727 0.930 . S
C1718 H1712 0.930 . S
C1718 C1719 1.355 . S
C1718 C1720 1.415 . S
C1719 C1718 1.355 . S
C1719 C1721 1.419 . S
C1720 C1718 1.415 . S
C1720 C1725 1.425 . S
C1720 C1727 1.409 . S
C1721 H1713 0.930 . S
C1721 C1719 1.419 . S
C1721 C1722 1.362 . S
C1722 H1714 0.930 . S
C1722 C1721 1.362 . S
C1722 C1725 1.409 . S
C1723 H1715 0.930 . S
C1723 C1724 1.355 . S
C1723 C1725 1.415 . S
C1724 C1723 1.355 . S
C1724 C1726 1.419 . S
C1725 C1720 1.425 . S
C1725 C1722 1.409 . S
C1725 C1723 1.415 . S
C1726 H1716 0.930 . S
C1726 C1724 1.419 . S
C1726 C1727 1.362 . S
C1727 H1717 0.930 . S
C1727 C1720 1.409 . S
C1727 C1726 1.362 . S
H1728 C1734 0.930 . S
H1729 C1737 0.930 . S
H1730 C1738 0.930 . S
H1731 C1739 0.930 . S
H1732 C1742 0.930 . S
H1733 C1743 0.930 . S
C1734 H1728 0.930 . S
C1734 C1735 1.355 . S
C1734 C1736 1.415 . S
C1735 C1734 1.355 . S
C1735 C1737 1.419 . S
C1736 C1734 1.415 . S
C1736 C1741 1.425 . S
C1736 C1743 1.409 . S
C1737 H1729 0.930 . S
C1737 C1735 1.419 . S
C1737 C1738 1.362 . S
C1738 H1730 0.930 . S
C1738 C1737 1.362 . S
C1738 C1741 1.409 . S
C1739 H1731 0.930 . S
C1739 C1740 1.355 . S
C1739 C1741 1.415 . S
C1740 C1739 1.355 . S
C1740 C1742 1.419 . S
C1741 C1736 1.425 . S
C1741 C1738 1.409 . S
C1741 C1739 1.415 . S
C1742 H1732 0.930 . S
C1742 C1740 1.419 . S
C1742 C1743 1.362 . S
C1743 H1733 0.930 . S
C1743 C1736 1.409 . S
C1743 C1742 1.362 . S
H1744 C1750 0.930 . S
H1745 C1753 0.930 . S
H1746 C1754 0.930 . S
H1747 C1755 0.930 . S
H1748 C1758 0.930 . S
H1749 C1759 0.930 . S
C1750 H1744 0.930 . S
C1750 C1751 1.355 . S
C1750 C1752 1.415 . S
C1751 C1750 1.355 . S
C1751 C1753 1.419 . S
C1752 C1750 1.415 . S
C1752 C1757 1.425 . S
C1752 C1759 1.409 . S
C1753 H1745 0.930 . S
C1753 C1751 1.419 . S
C1753 C1754 1.362 . S
C1754 H1746 0.930 . S
C1754 C1753 1.362 . S
C1754 C1757 1.409 . S
C1755 H1747 0.930 . S
C1755 C1756 1.355 . S
C1755 C1757 1.415 . S
C1756 C1755 1.355 . S
C1756 C1758 1.419 . S
C1757 C1752 1.425 . S
C1757 C1754 1.409 . S
C1757 C1755 1.415 . S
C1758 H1748 0.930 . S
C1758 C1756 1.419 . S
C1758 C1759 1.362 . S
C1759 H1749 0.930 . S
C1759 C1752 1.409 . S
C1759 C1758 1.362 . S
H1760 C1766 0.930 . S
H1761 C1769 0.930 . S
H1762 C1770 0.930 . S
H1763 C1771 0.930 . S
H1764 C1774 0.930 . S
H1765 C1775 0.930 . S
C1766 H1760 0.930 . S
C1766 C1767 1.355 . S
C1766 C1768 1.415 . S
C1767 C1766 1.355 . S
C1767 C1769 1.419 . S
C1768 C1766 1.415 . S
C1768 C1773 1.425 . S
C1768 C1775 1.409 . S
C1769 H1761 0.930 . S
C1769 C1767 1.419 . S
C1769 C1770 1.362 . S
C1770 H1762 0.930 . S
C1770 C1769 1.362 . S
C1770 C1773 1.409 . S
C1771 H1763 0.930 . S
C1771 C1772 1.355 . S
C1771 C1773 1.415 . S
C1772 C1771 1.355 . S
C1772 C1774 1.419 . S
C1773 C1768 1.425 . S
C1773 C1770 1.409 . S
C1773 C1771 1.415 . S
C1774 H1764 0.930 . S
C1774 C1772 1.419 . S
C1774 C1775 1.362 . S
C1775 H1765 0.930 . S
C1775 C1768 1.409 . S
C1775 C1774 1.362 . S
C823 C5 0.762 . S
C828 C107 0.757 . S
C839 C141 0.705 . S
C844 C39 0.722 . S
C855 C175 0.756 . S
C860 C73 0.764 . S
C871 C311 0.774 . S
C876 C209 0.703 . S
C887 C243 0.779 . S
C892 C345 0.720 . S
C903 C277 0.752 . S
C908 C379 0.767 . S
C919 C515 0.766 . S
C924 C413 0.753 . S
C935 C549 0.766 . S
C940 C447 0.696 . S
C951 C583 0.773 . S
C956 C481 0.742 . S
C967 C719 0.743 . S
C972 C617 0.694 . S
C983 C651 0.745 . S
C988 C753 0.771 . S
C999 C787 0.707 . S
C1004 C685 0.776 . S
C1015 C281 1.720 . S
C1020 C9 1.742 . S
C1031 C43 1.744 . S
C1036 C315 1.706 . S
C1047 C77 1.671 . S
C1052 C349 1.727 . S
C1063 C111 1.730 . S
C1068 C383 1.736 . S
C1079 C145 1.692 . S
C1084 C213 1.742 . S
C1095 C247 1.688 . S
C1100 C179 1.741 . S
C1111 C417 1.719 . S
C1116 C689 1.742 . S
C1127 C723 1.698 . S
C1132 C451 1.665 . S
C1143 C757 1.714 . S
C1148 C485 1.744 . S
C1159 C519 1.683 . S
C1164 C791 1.671 . S
C1175 C621 1.723 . S
C1180 C553 1.740 . S
C1191 C655 1.736 . S
C1196 C587 1.731 . S
C1207 C33 1.248 . S
C1212 C271 1.221 . S
C1223 C67 1.203 . S
C1228 C305 1.250 . S
C1239 C339 1.256 . S
C1244 C101 1.199 . S
C1255 C135 1.225 . S
C1260 C373 1.244 . S
C1271 C407 1.210 . S
C1276 C169 1.256 . S
C1287 C237 1.234 . S
C1292 C203 1.236 . S
C1303 C441 1.261 . S
C1308 C679 1.196 . S
C1319 C475 1.258 . S
C1324 C713 1.207 . S
C1335 C509 1.202 . S
C1340 C747 1.262 . S
C1351 C543 1.240 . S
C1356 C781 1.229 . S
C1367 C577 1.195 . S
C1372 C815 1.262 . S
C1383 C645 1.260 . S
C1388 C611 1.196 . S
C1399 C2 1.416 . S
C1404 C342 1.374 . S
C1415 C376 1.411 . S
C1420 C36 1.373 . S
C1431 C206 1.429 . S
C1436 C70 1.446 . S
C1447 C240 1.416 . S
C1452 C104 1.448 . S
C1463 C138 1.385 . S
C1468 C274 1.434 . S
C1479 C172 1.448 . S
C1484 C308 1.416 . S
C1495 C410 1.375 . S
C1500 C750 1.420 . S
C1511 C784 1.385 . S
C1516 C444 1.434 . S
C1527 C614 1.389 . S
C1532 C478 1.437 . S
C1543 C512 1.374 . S
C1548 C648 1.391 . S
C1559 C546 1.439 . S
C1564 C682 1.390 . S
C1575 C716 1.389 . S
C1580 C580 1.438 . S
C1591 C20 1.442 . S
C1596 C530 1.479 . S
C1607 C54 1.488 . S
C1612 C564 1.433 . S
C1623 C88 1.486 . S
C1628 C598 1.435 . S
C1639 C122 1.435 . S
C1644 C428 1.486 . S
C1655 C156 1.487 . S
C1660 C462 1.433 . S
C1671 C496 1.433 . S
C1676 C190 1.488 . S
C1687 C224 1.475 . S
C1692 C734 1.446 . S
C1703 C258 1.441 . S
C1708 C768 1.480 . S
C1719 C292 1.441 . S
C1724 C802 1.480 . S
C1735 C326 1.488 . S
C1740 C632 1.433 . S
C1751 C360 1.483 . S
C1756 C666 1.438 . S
C1767 C700 1.488 . S
C1772 C394 1.433 . S
