# Generated by pormake.
# Topology wjd, (6)-cn, num edge types: 1
# Building blocks:
#     Node 0, Type 0, BuildingBlock: FUNLAD_clean_sbu_0, # of connection points: 6
#     Node 1, Type 0, BuildingBlock: FUNLAD_clean_sbu_0, # of connection points: 6
#     Node 2, Type 0, BuildingBlock: FUNLAD_clean_sbu_0, # of connection points: 6
#     Node 3, Type 0, BuildingBlock: FUNLAD_clean_sbu_0, # of connection points: 6
#     Node 4, Type 0, BuildingBlock: FUNLAD_clean_sbu_0, # of connection points: 6
#     Node 5, Type 0, BuildingBlock: FUNLAD_clean_sbu_0, # of connection points: 6
#     Node 6, Type 0, BuildingBlock: FUNLAD_clean_sbu_0, # of connection points: 6
#     Node 7, Type 0, BuildingBlock: FUNLAD_clean_sbu_0, # of connection points: 6
#     Node 8, Type 0, BuildingBlock: FUNLAD_clean_sbu_0, # of connection points: 6
#     Node 9, Type 0, BuildingBlock: FUNLAD_clean_sbu_0, # of connection points: 6
#     Node 10, Type 0, BuildingBlock: FUNLAD_clean_sbu_0, # of connection points: 6
#     Node 11, Type 0, BuildingBlock: FUNLAD_clean_sbu_0, # of connection points: 6
#     Edge 12, Type (0, 0), BuildingBlock: UVAHIK_clean_linker_0, # of connection points: 2
#     Edge 13, Type (0, 0), BuildingBlock: UVAHIK_clean_linker_0, # of connection points: 2
#     Edge 14, Type (0, 0), BuildingBlock: UVAHIK_clean_linker_0, # of connection points: 2
#     Edge 15, Type (0, 0), BuildingBlock: UVAHIK_clean_linker_0, # of connection points: 2
#     Edge 16, Type (0, 0), BuildingBlock: UVAHIK_clean_linker_0, # of connection points: 2
#     Edge 17, Type (0, 0), BuildingBlock: UVAHIK_clean_linker_0, # of connection points: 2
#     Edge 18, Type (0, 0), BuildingBlock: UVAHIK_clean_linker_0, # of connection points: 2
#     Edge 19, Type (0, 0), BuildingBlock: UVAHIK_clean_linker_0, # of connection points: 2
#     Edge 20, Type (0, 0), BuildingBlock: UVAHIK_clean_linker_0, # of connection points: 2
#     Edge 21, Type (0, 0), BuildingBlock: UVAHIK_clean_linker_0, # of connection points: 2
#     Edge 22, Type (0, 0), BuildingBlock: UVAHIK_clean_linker_0, # of connection points: 2
#     Edge 23, Type (0, 0), BuildingBlock: UVAHIK_clean_linker_0, # of connection points: 2
#     Edge 24, Type (0, 0), BuildingBlock: UVAHIK_clean_linker_0, # of connection points: 2
#     Edge 25, Type (0, 0), BuildingBlock: UVAHIK_clean_linker_0, # of connection points: 2
#     Edge 26, Type (0, 0), BuildingBlock: UVAHIK_clean_linker_0, # of connection points: 2
#     Edge 27, Type (0, 0), BuildingBlock: UVAHIK_clean_linker_0, # of connection points: 2
#     Edge 28, Type (0, 0), BuildingBlock: UVAHIK_clean_linker_0, # of connection points: 2
#     Edge 29, Type (0, 0), BuildingBlock: UVAHIK_clean_linker_0, # of connection points: 2
#     Edge 30, Type (0, 0), BuildingBlock: UVAHIK_clean_linker_0, # of connection points: 2
#     Edge 31, Type (0, 0), BuildingBlock: UVAHIK_clean_linker_0, # of connection points: 2
#     Edge 32, Type (0, 0), BuildingBlock: UVAHIK_clean_linker_0, # of connection points: 2
#     Edge 33, Type (0, 0), BuildingBlock: UVAHIK_clean_linker_0, # of connection points: 2
#     Edge 34, Type (0, 0), BuildingBlock: UVAHIK_clean_linker_0, # of connection points: 2
#     Edge 35, Type (0, 0), BuildingBlock: UVAHIK_clean_linker_0, # of connection points: 2
#     Edge 36, Type (0, 0), BuildingBlock: UVAHIK_clean_linker_0, # of connection points: 2
#     Edge 37, Type (0, 0), BuildingBlock: UVAHIK_clean_linker_0, # of connection points: 2
#     Edge 38, Type (0, 0), BuildingBlock: UVAHIK_clean_linker_0, # of connection points: 2
#     Edge 39, Type (0, 0), BuildingBlock: UVAHIK_clean_linker_0, # of connection points: 2
#     Edge 40, Type (0, 0), BuildingBlock: UVAHIK_clean_linker_0, # of connection points: 2
#     Edge 41, Type (0, 0), BuildingBlock: UVAHIK_clean_linker_0, # of connection points: 2
#     Edge 42, Type (0, 0), BuildingBlock: UVAHIK_clean_linker_0, # of connection points: 2
#     Edge 43, Type (0, 0), BuildingBlock: UVAHIK_clean_linker_0, # of connection points: 2
#     Edge 44, Type (0, 0), BuildingBlock: UVAHIK_clean_linker_0, # of connection points: 2
#     Edge 45, Type (0, 0), BuildingBlock: UVAHIK_clean_linker_0, # of connection points: 2
#     Edge 46, Type (0, 0), BuildingBlock: UVAHIK_clean_linker_0, # of connection points: 2
#     Edge 47, Type (0, 0), BuildingBlock: UVAHIK_clean_linker_0, # of connection points: 2
# Relax obj value: 0.187
# Max RMSD: 0.215
# Mean RMSD: 0.215
data_MOF--net-wjd--node1-FUNLAD_clean_sbu_0--edge1-UVAHIK_clean_linker_0
_symmetry_space_group_name_H-M    P1
_symmetry_Int_Tables_number       1
_symmetry_cell_setting            triclinic
loop_
_symmetry_equiv_pos_as_xyz
'x, y, z'
_cell_length_a     35.82042
_cell_length_b     35.818968
_cell_length_c     104.48727
_cell_angle_alpha  90.011929
_cell_angle_beta   89.994145
_cell_angle_gamma 120.00651
loop_
_atom_site_label
_atom_site_type_symbol
_atom_site_fract_x
_atom_site_fract_y
_atom_site_fract_z
_atom_type_partial_charge
C0 C 0.26116 0.97271 0.12955 0.0
N1 N 0.32233 0.0498 0.09768 0.0
C2 C 0.31668 0.01238 0.09258 0.0
C3 C 0.31304 0.00582 0.07939 0.0
C4 C 0.31612 0.0384 0.07121 0.0
C5 C 0.32259 0.07705 0.07674 0.0
C6 C 0.32533 0.08198 0.09006 0.0
Zn7 Zn 0.32542 0.05548 0.11723 0.0
C8 C 0.26647 0.08355 0.12763 0.0
N9 N 0.33032 0.06276 0.15806 0.0
C10 C 0.33079 0.03065 0.16489 0.0
C11 C 0.3314 0.09707 0.16402 0.0
C12 C 0.33279 0.09988 0.17737 0.0
C13 C 0.33305 0.06704 0.18466 0.0
C14 C 0.33217 0.03216 0.17823 0.0
Zn15 Zn 0.32752 0.05851 0.13853 0.0
O16 O 0.2758 0.99086 0.11883 0.0
C17 C 0.38954 0.0346 0.12799 0.0
O18 O 0.27801 0.9935 0.13978 0.0
H19 H 0.33093 0.12222 0.15842 0.0
H20 H 0.31461 0.98723 0.09877 0.0
H21 H 0.33005 0.00373 0.15996 0.0
O22 O 0.37285 0.03721 0.11755 0.0
O23 O 0.37559 0.04078 0.1385 0.0
H24 H 0.32985 0.11151 0.09429 0.0
O25 O 0.37581 0.12381 0.13702 0.0
O26 O 0.37402 0.12071 0.11602 0.0
O27 O 0.28059 0.07776 0.13817 0.0
O28 O 0.27909 0.07543 0.11716 0.0
C29 C 0.38887 0.14238 0.12626 0.0
H30 H 0.30718 0.9751 0.07571 0.0
H31 H 0.32583 0.10342 0.07088 0.0
H32 H 0.33295 0.12711 0.18192 0.0
H33 H 0.33296 0.00644 0.18345 0.0
C34 C 0.74883 0.60054 0.38088 0.0
N35 N 0.72203 0.65282 0.34851 0.0
C36 C 0.75491 0.65148 0.34241 0.0
C37 C 0.75556 0.64947 0.32907 0.0
C38 C 0.72199 0.64871 0.32191 0.0
C39 C 0.68807 0.64935 0.32847 0.0
C40 C 0.68878 0.6515 0.34183 0.0
Zn41 Zn 0.72362 0.65918 0.368 0.0
C42 C 0.64025 0.59973 0.38021 0.0
N43 N 0.72845 0.67306 0.40874 0.0
C44 C 0.75797 0.66985 0.41617 0.0
C45 C 0.69832 0.68094 0.41402 0.0
C46 C 0.69759 0.68681 0.42718 0.0
C47 C 0.72749 0.68356 0.43505 0.0
C48 C 0.75775 0.67457 0.42946 0.0
Zn49 Zn 0.72759 0.66613 0.38923 0.0
O50 O 0.741 0.61106 0.37001 0.0
C51 C 0.81211 0.72212 0.37718 0.0
O52 O 0.74408 0.61771 0.39093 0.0
H53 H 0.67465 0.68266 0.40802 0.0
H54 H 0.78099 0.65245 0.3479 0.0
H55 H 0.78171 0.66366 0.41179 0.0
O56 O 0.78972 0.70583 0.36715 0.0
O57 O 0.79388 0.71209 0.38808 0.0
H58 H 0.66305 0.65278 0.34685 0.0
O59 O 0.7127 0.71577 0.3871 0.0
O60 O 0.70808 0.7086 0.36625 0.0
O61 O 0.6619 0.61868 0.39015 0.0
O62 O 0.65778 0.61141 0.36926 0.0
C63 C 0.70684 0.72804 0.37626 0.0
H64 H 0.78206 0.64847 0.32442 0.0
H65 H 0.6618 0.64931 0.32334 0.0
H66 H 0.67346 0.6932 0.43121 0.0
H67 H 0.78132 0.6719 0.43529 0.0
C68 C 0.01237 0.28379 0.12851 0.0
N69 N 0.93388 0.26539 0.09686 0.0
C70 C 0.96738 0.301 0.09148 0.0
C71 C 0.97335 0.30374 0.07826 0.0
C72 C 0.94492 0.26927 0.07045 0.0
C73 C 0.91066 0.23278 0.07622 0.0
C74 C 0.90553 0.23162 0.08952 0.0
Zn75 Zn 0.92874 0.26353 0.11641 0.0
C76 C 0.90254 0.1771 0.12716 0.0
N77 N 0.92229 0.26198 0.15725 0.0
C78 C 0.95429 0.29483 0.16403 0.0
C79 C 0.88787 0.22898 0.16324 0.0
C80 C 0.88472 0.22821 0.17658 0.0
C81 C 0.91726 0.26175 0.18383 0.0
C82 C 0.95241 0.29536 0.17737 0.0
Zn83 Zn 0.9262 0.26292 0.13771 0.0
O84 O 0.99411 0.28057 0.11782 0.0
C85 C 0.94764 0.34816 0.12721 0.0
O86 O 0.99154 0.27929 0.13878 0.0
H87 H 0.86271 0.20324 0.15767 0.0
H88 H 0.9899 0.32727 0.09747 0.0
H89 H 0.9814 0.3207 0.15908 0.0
O90 O 0.9449 0.32929 0.11666 0.0
O91 O 0.94279 0.328 0.13763 0.0
H92 H 0.87909 0.20362 0.09397 0.0
O93 O 0.86048 0.24478 0.13627 0.0
O94 O 0.86299 0.24476 0.11527 0.0
O95 O 0.90801 0.19751 0.13757 0.0
O96 O 0.91054 0.19725 0.11658 0.0
C97 C 0.84148 0.23803 0.12553 0.0
H98 H 0.0005 0.33219 0.07419 0.0
H99 H 0.88792 0.20565 0.0705 0.0
H100 H 0.8568 0.20191 0.18114 0.0
H101 H 0.97852 0.32155 0.18257 0.0
C102 C 0.38448 0.14615 0.38201 0.0
N103 N 0.33704 0.06791 0.34931 0.0
C104 C 0.33775 0.10178 0.34318 0.0
C105 C 0.33981 0.10435 0.32983 0.0
C106 C 0.34104 0.07168 0.32272 0.0
C107 C 0.34112 0.03757 0.32932 0.0
C108 C 0.33908 0.03631 0.34267 0.0
Zn109 Zn 0.33014 0.06246 0.36876 0.0
C110 C 0.39142 0.0415 0.38103 0.0
N111 N 0.31391 0.05036 0.40938 0.0
C112 C 0.31416 0.08166 0.41685 0.0
C113 C 0.30868 0.0132 0.4146 0.0
C114 C 0.30256 0.00599 0.42773 0.0
C115 C 0.30285 0.03772 0.43563 0.0
C116 C 0.30912 0.07614 0.43012 0.0
Zn117 Zn 0.32135 0.05735 0.38992 0.0
O118 O 0.37712 0.12845 0.37105 0.0
C119 C 0.26332 0.08284 0.37791 0.0
O120 O 0.36597 0.12348 0.39183 0.0
H121 H 0.30925 0.98898 0.40856 0.0
H122 H 0.33595 0.12649 0.34864 0.0
H123 H 0.31823 0.11089 0.41252 0.0
O124 O 0.28198 0.08014 0.36789 0.0
O125 O 0.27238 0.07305 0.3887 0.0
H126 H 0.33854 0.0097 0.34772 0.0
O127 O 0.27508 0.99165 0.38755 0.0
O128 O 0.28203 -0.00302 0.36671 0.0
O129 O 0.372 0.04364 0.39094 0.0
O130 O 0.3791 0.04615 0.37005 0.0
C131 C 0.26337 0.97463 0.37656 0.0
H132 H 0.33924 0.131 0.32513 0.0
H133 H 0.34266 0.01203 0.32424 0.0
H134 H 0.29828 0.97617 0.43171 0.0
H135 H 0.30943 0.10124 0.43598 0.0
C136 C 0.69769 0.72517 0.128 0.0
N137 N 0.72146 0.66737 0.09675 0.0
C138 C 0.68498 0.66324 0.09137 0.0
C139 C 0.68189 0.66599 0.07815 0.0
C140 C 0.71687 0.67364 0.07034 0.0
C141 C 0.75423 0.67786 0.0761 0.0
C142 C 0.75574 0.67431 0.08941 0.0
Zn143 Zn 0.72365 0.66519 0.11631 0.0
C144 C 0.80851 0.73073 0.1268 0.0
N145 N 0.7261 0.66362 0.1572 0.0
C146 C 0.6917 0.65969 0.16387 0.0
C147 C 0.76079 0.66605 0.16331 0.0
C148 C 0.76165 0.66436 0.17666 0.0
C149 C 0.7265 0.66017 0.18381 0.0
C150 C 0.69124 0.65794 0.17722 0.0
Zn151 Zn 0.72488 0.66535 0.13762 0.0
O152 O 0.70365 0.7115 0.11741 0.0
C153 C 0.64133 0.59672 0.12716 0.0
O154 O 0.70217 0.70934 0.13837 0.0
H155 H 0.78779 0.6691 0.15783 0.0
H156 H 0.65831 0.65839 0.09737 0.0
H157 H 0.66449 0.65791 0.15883 0.0
O158 O 0.65952 0.61414 0.11666 0.0
O159 O 0.66133 0.61219 0.13761 0.0
H160 H 0.78445 0.67752 0.09387 0.0
O161 O 0.74976 0.62321 0.13651 0.0
O162 O 0.74538 0.62004 0.11549 0.0
O163 O 0.78861 0.71713 0.13736 0.0
O164 O 0.78853 0.71519 0.11636 0.0
C165 C 0.75583 0.6095 0.12594 0.0
H166 H 0.65276 0.66318 0.0741 0.0
H167 H 0.78181 0.68359 0.07038 0.0
H168 H 0.78929 0.66567 0.18132 0.0
H169 H 0.66373 0.65536 0.18232 0.0
C170 C 0.84618 0.24123 0.38148 0.0
N171 N 0.92221 0.26863 0.3484 0.0
C172 C 0.88734 0.23552 0.3426 0.0
C173 C 0.88325 0.23438 0.32929 0.0
C174 C 0.91533 0.26765 0.32186 0.0
C175 C 0.95065 0.30173 0.32812 0.0
C176 C 0.95347 0.30156 0.34145 0.0
Zn177 Zn 0.92896 0.2682 0.36782 0.0
C178 C 0.95207 0.35176 0.37964 0.0
N179 N 0.94278 0.26625 0.40847 0.0
C180 C 0.91154 0.23581 0.41609 0.0
C181 C 0.98041 0.29798 0.41352 0.0
C182 C 0.98813 0.29951 0.42664 0.0
C183 C 0.95646 0.26872 0.43471 0.0
C184 C 0.91759 0.23674 0.42935 0.0
Zn185 Zn 0.93475 0.26584 0.38901 0.0
O186 O 0.86332 0.2503 0.37042 0.0
C187 C 0.90747 0.18116 0.37722 0.0
O188 O 0.86921 0.24584 0.39124 0.0
H189 H 0.00461 0.32228 0.40736 0.0
H190 H 0.86281 0.20969 0.3483 0.0
H191 H 0.88193 0.21077 0.41191 0.0
O192 O 0.91049 0.20252 0.36719 0.0
O193 O 0.91749 0.20017 0.38801 0.0
H194 H 0.98099 0.32749 0.34624 0.0
O195 O -0.00019 0.28402 0.38637 0.0
O196 O 0.9941 0.28449 0.3655 0.0
O197 O 0.95013 0.33104 0.38973 0.0
O198 O 0.94618 0.33344 0.36882 0.0
C199 C 0.01655 0.28855 0.37536 0.0
H200 H 0.85519 0.20777 0.32488 0.0
H201 H 0.97642 0.32776 0.32278 0.0
H202 H 0.01831 0.32493 0.43048 0.0
H203 H 0.8925 0.21242 0.43532 0.0
C204 C 0.14584 0.39334 0.62554 0.0
N205 N 0.06525 0.3347 0.65722 0.0
C206 C 0.09949 0.33613 0.66334 0.0
C207 C 0.10201 0.3381 0.67669 0.0
C208 C 0.06905 0.33872 0.68382 0.0
C209 C 0.03418 0.3373 0.67723 0.0
C210 C 0.03291 0.33525 0.66389 0.0
Zn211 Zn 0.06157 0.33166 0.63767 0.0
C212 C 0.03792 0.3938 0.6271 0.0
N213 N 0.0541 0.32671 0.59679 0.0
C214 C 0.08663 0.33025 0.58922 0.0
C215 C 0.01654 0.32043 0.59161 0.0
C216 C 0.01019 0.31662 0.57841 0.0
C217 C 0.04314 0.32026 0.57029 0.0
C218 C 0.08194 0.32743 0.57589 0.0
Zn219 Zn 0.05931 0.32993 0.61636 0.0
O220 O 0.12702 0.3801 0.63627 0.0
C221 C 0.08755 0.27127 0.6271 0.0
O222 O 0.12436 0.37874 0.61526 0.0
H223 H 0.99112 0.318 0.59775 0.0
H224 H 0.12493 0.33579 0.65786 0.0
H225 H 0.11628 0.33528 0.59351 0.0
O226 O 0.08086 0.28528 0.63752 0.0
O227 O 0.07996 0.28369 0.6165 0.0
H228 H 0.00592 0.33396 0.65885 0.0
O229 O -0.00529 0.27981 0.61786 0.0
O230 O -0.00341 0.28192 0.63881 0.0
O231 O 0.04061 0.37759 0.61655 0.0
O232 O 0.04382 0.37925 0.63752 0.0
C233 C 0.97625 0.26493 0.62852 0.0
H234 H 0.12971 0.33961 0.68137 0.0
H235 H 0.00777 0.33709 0.68234 0.0
H236 H 0.97934 0.31017 0.57469 0.0
H237 H 0.10861 0.33115 0.57008 0.0
C238 C 0.27989 0.01345 0.87628 0.0
N239 N 0.2662 0.94105 0.90923 0.0
C240 C 0.29574 0.97977 0.91428 0.0
C241 C 0.29718 0.9869 0.92744 0.0
C242 C 0.26859 0.9536 0.93552 0.0
C243 C 0.23893 0.91367 0.93015 0.0
C244 C 0.23798 0.90818 0.91687 0.0
Zn245 Zn 0.26536 0.9339 0.88974 0.0
C246 C 0.17811 0.90011 0.87859 0.0
N247 N 0.2659 0.92248 0.84902 0.0
C248 C 0.29806 0.95492 0.84216 0.0
C249 C 0.23378 0.88711 0.84311 0.0
C250 C 0.23295 0.88365 0.82978 0.0
C251 C 0.26561 0.91681 0.82246 0.0
C252 C 0.29859 0.9527 0.82884 0.0
Zn253 Zn 0.26584 0.92834 0.86851 0.0
O254 O 0.27758 -0.00224 0.88734 0.0
C255 C 0.3522 0.95792 0.87968 0.0
O256 O 0.27717 0.99136 0.86646 0.0
H257 H 0.20858 0.86161 0.84874 0.0
H258 H 0.31833 0.0053 0.9081 0.0
H259 H 0.32317 0.98286 0.84704 0.0
O260 O 0.33211 0.95491 0.89 0.0
O261 O 0.33229 0.95017 0.86908 0.0
H262 H 0.21464 0.87772 0.91267 0.0
O263 O 0.25272 0.86463 0.87075 0.0
O264 O 0.25149 0.8696 0.89168 0.0
O265 O 0.19914 0.90529 0.86832 0.0
O266 O 0.19807 0.91089 0.88923 0.0
C267 C 0.24681 0.84726 0.88173 0.0
H268 H 0.32081 0.01796 0.93128 0.0
H269 H 0.21633 0.88732 0.93613 0.0
H270 H 0.20717 0.85521 0.82525 0.0
H271 H 0.32407 0.97926 0.82357 0.0
C272 C 0.60106 0.74897 0.62553 0.0
N273 N 0.65831 0.72639 0.65738 0.0
C274 C 0.65807 0.76015 0.66327 0.0
C275 C 0.65663 0.76179 0.67661 0.0
C276 C 0.65531 0.7283 0.68396 0.0
C277 C 0.6554 0.69378 0.6776 0.0
C278 C 0.65695 0.6935 0.66426 0.0
Zn279 Zn 0.66128 0.72484 0.63786 0.0
C280 C 0.59833 0.63942 0.62726 0.0
N281 N 0.66691 0.72158 0.59702 0.0
C282 C 0.6647 0.75118 0.58938 0.0
C283 C 0.67222 0.68958 0.59193 0.0
C284 C 0.67644 0.68693 0.57875 0.0
C285 C 0.6743 0.71695 0.57057 0.0
C286 C 0.66802 0.74928 0.57608 0.0
Zn287 Zn 0.66355 0.72412 0.61656 0.0
O288 O 0.61378 0.74296 0.63628 0.0
C289 C 0.72345 0.81062 0.62703 0.0
O290 O 0.6157 0.74191 0.61529 0.0
H291 H 0.67366 0.66616 0.59812 0.0
H292 H 0.65904 0.78592 0.65762 0.0
H293 H 0.66045 0.77638 0.59361 0.0
O294 O 0.70898 0.79066 0.63754 0.0
O295 O 0.71067 0.79008 0.61653 0.0
H296 H 0.65733 0.66705 0.65939 0.0
O297 O 0.71248 0.70805 0.61824 0.0
O298 O 0.70997 0.70828 0.63919 0.0
O299 O 0.61527 0.65867 0.61683 0.0
O300 O 0.61248 0.65939 0.63779 0.0
C301 C 0.72678 0.70415 0.62898 0.0
H302 H 0.65612 0.78877 0.68111 0.0
H303 H 0.655 0.66758 0.68289 0.0
H304 H 0.68211 0.66193 0.57509 0.0
H305 H 0.66544 0.77279 0.57021 0.0
C306 C 0.96847 0.26745 0.87737 0.0
N307 N 0.04891 0.32245 0.90895 0.0
C308 C 0.01636 0.32601 0.91443 0.0
C309 C 0.01049 0.32266 0.92765 0.0
C310 C 0.03797 0.31494 0.93535 0.0
C311 C 0.0711 0.31095 0.92949 0.0
C312 C 0.07623 0.31515 0.91619 0.0
Zn313 Zn 0.05381 0.32694 0.88939 0.0
C314 C 0.07616 0.2658 0.87766 0.0
N315 N 0.05836 0.33493 0.84852 0.0
C316 C 0.02692 0.33703 0.8418 0.0
C317 C 0.09197 0.33492 0.84246 0.0
C318 C 0.09472 0.33674 0.82912 0.0
C319 C 0.06256 0.33856 0.82192 0.0
C320 C 0.0284 0.33888 0.82844 0.0
Zn321 Zn 0.05483 0.33092 0.86807 0.0
O322 O 0.98785 0.28077 0.888 0.0
C323 C 0.03707 0.39548 0.87963 0.0
O324 O 0.98878 0.28408 0.86705 0.0
H325 H 0.11671 0.33335 0.84796 0.0
H326 H -0.00548 0.33111 0.90853 0.0
H327 H 0.00044 0.33692 0.8468 0.0
O328 O 0.04016 0.37775 0.88978 0.0
O329 O 0.04066 0.38127 0.86883 0.0
H330 H 0.10186 0.31237 0.91165 0.0
O331 O 0.12112 0.37576 0.86943 0.0
O332 O 0.12053 0.37242 0.89047 0.0
O333 O 0.07076 0.28228 0.86758 0.0
O334 O 0.06923 0.27697 0.88855 0.0
C335 C 0.1411 0.38677 0.88004 0.0
H336 H 0.98416 0.32528 0.93178 0.0
H337 H 0.09302 0.30512 0.93514 0.0
H338 H 0.12196 0.33705 0.82452 0.0
H339 H 0.00262 0.33973 0.82328 0.0
C340 C 0.23563 0.84654 0.62643 0.0
N341 N 0.263 0.92914 0.65782 0.0
C342 C 0.22872 0.89618 0.66388 0.0
C343 C 0.22795 0.89313 0.67721 0.0
C344 C 0.26275 0.92434 0.68442 0.0
C345 C 0.29758 0.95811 0.67789 0.0
C346 C 0.29706 0.95987 0.66455 0.0
Zn347 Zn 0.26401 0.93276 0.63826 0.0
C348 C 0.34856 0.95054 0.62759 0.0
N349 N 0.26694 0.93872 0.59743 0.0
C350 C 0.23645 0.90669 0.59002 0.0
C351 C 0.29865 0.97581 0.59211 0.0
C352 C 0.29971 0.98243 0.57895 0.0
C353 C 0.26845 0.95021 0.57112 0.0
C354 C 0.23689 0.91163 0.57672 0.0
Zn355 Zn 0.2653 0.93392 0.61697 0.0
O356 O 0.2407 0.86612 0.63698 0.0
C357 C 0.1795 0.91151 0.62753 0.0
O358 O 0.24626 0.86763 0.616 0.0
H359 H 0.32291 0.00068 0.59812 0.0
H360 H 0.20198 0.87204 0.65835 0.0
H361 H 0.21141 0.87756 0.59443 0.0
O362 O 0.19958 0.91899 0.63809 0.0
O363 O 0.19966 0.91618 0.6171 0.0
H364 H 0.32393 0.98585 0.65956 0.0
O365 O 0.28239 -0.00046 0.61835 0.0
O366 O 0.28505 -0.00088 0.63928 0.0
O367 O 0.33028 0.94993 0.61712 0.0
O368 O 0.32826 0.94485 0.63805 0.0
C369 C 0.28829 0.01912 0.62893 0.0
H370 H 0.20066 0.86623 0.68181 0.0
H371 H 0.3248 0.98325 0.68304 0.0
H372 H 0.32475 0.01243 0.5749 0.0
H373 H 0.21222 0.88617 0.57092 0.0
C374 C 0.72559 0.70673 0.87794 0.0
N375 N 0.6648 0.72735 0.90902 0.0
C376 C 0.66096 0.69101 0.91442 0.0
C377 C 0.66331 0.68786 0.92766 0.0
C378 C 0.67024 0.72264 0.93545 0.0
C379 C 0.67407 0.7598 0.92968 0.0
C380 C 0.67095 0.76138 0.91636 0.0
Zn381 Zn 0.66358 0.73007 0.88947 0.0
C382 C 0.72775 0.81613 0.87933 0.0
N383 N 0.66336 0.73388 0.84861 0.0
C384 C 0.66112 0.70021 0.84194 0.0
C385 C 0.6645 0.76798 0.8425 0.0
C386 C 0.66318 0.76895 0.82914 0.0
C387 C 0.6606 0.73446 0.82201 0.0
C388 C 0.65972 0.69984 0.82859 0.0
Zn389 Zn 0.66422 0.73213 0.86817 0.0
O390 O 0.71058 0.7108 0.88853 0.0
C391 C 0.59648 0.64748 0.87814 0.0
O392 O 0.71043 0.71217 0.86756 0.0
H393 H 0.66618 0.79438 0.84799 0.0
H394 H 0.65667 0.66454 0.90842 0.0
H395 H 0.66035 0.67347 0.84698 0.0
O396 O 0.61247 0.66519 0.88882 0.0
O397 O 0.6131 0.66805 0.86786 0.0
H398 H 0.67389 0.78996 0.91189 0.0
O399 O 0.61937 0.75364 0.86911 0.0
O400 O 0.61808 0.75129 0.89012 0.0
O401 O 0.71405 0.79677 0.86871 0.0
O402 O 0.71313 0.7953 0.88971 0.0
C403 C 0.60589 0.76007 0.87968 0.0
H404 H 0.66077 0.65888 0.93173 0.0
H405 H 0.67919 0.7872 0.93539 0.0
H406 H 0.66347 0.79607 0.82447 0.0
H407 H 0.65839 0.67289 0.82349 0.0
C408 C 0.06751 0.2739 0.14029 0.0
C409 C 0.05342 0.28342 0.12884 0.0
C410 C 0.09818 0.26068 0.14004 0.0
C411 C 0.12871 0.2015 0.11823 0.0
H412 H 0.21412 0.21991 0.14398 0.0
C413 C 0.23081 0.11818 0.11593 0.0
C414 C 0.2398 0.10438 0.12753 0.0
C415 C 0.21058 0.14287 0.11592 0.0
C416 C 0.19004 0.21413 0.13679 0.0
H417 H 0.06438 0.29187 0.10834 0.0
H418 H 0.11828 0.26941 0.10796 0.0
H419 H 0.17949 0.26388 0.14425 0.0
H420 H 0.23314 0.10429 0.14817 0.0
H421 H 0.19677 0.1464 0.14811 0.0
H422 H 0.13812 0.15106 0.11096 0.0
C423 C 0.10473 0.27098 0.11708 0.0
C424 C 0.17047 0.23951 0.13691 0.0
C425 C 0.07408 0.28415 0.11732 0.0
C426 C 0.22674 0.11449 0.13907 0.0
C427 C 0.20634 0.13904 0.13905 0.0
C428 C 0.14807 0.17605 0.11814 0.0
C429 C 0.11537 0.25694 0.12833 0.0
C430 C 0.13944 0.23328 0.12766 0.0
C431 C 0.19868 0.15413 0.12749 0.0
C432 C 0.17873 0.18182 0.12748 0.0
H433 H 0.05239 0.27322 0.14934 0.0
H434 H 0.1058 0.25015 0.14888 0.0
H435 H 0.10416 0.19519 0.11114 0.0
H436 H 0.24073 0.11121 0.10687 0.0
H437 H 0.2055 0.15426 0.10684 0.0
C438 C 0.20407 0.91848 0.36315 0.0
C439 C 0.22299 0.9329 0.37525 0.0
C440 C 0.1607 0.88671 0.36212 0.0
C441 C 0.06359 0.80929 0.38075 0.0
H442 H 0.00553 0.85047 0.35834 0.0
C443 C 0.8852 0.75923 0.38729 0.0
C444 C 0.85955 0.74792 0.37621 0.0
C445 C 0.92992 0.77815 0.38632 0.0
C446 C 0.0212 0.83816 0.36451 0.0
H447 H 0.21287 0.92162 0.3957 0.0
H448 H 0.13746 0.86684 0.39391 0.0
H449 H 0.08366 0.88449 0.35768 0.0
H450 H 0.86085 0.74893 0.35544 0.0
H451 H 0.93891 0.78227 0.35378 0.0
H452 H 0.00092 0.76387 0.38786 0.0
C453 C 0.15581 0.87993 0.3852 0.0
C454 C 0.06601 0.85744 0.36408 0.0
C455 C 0.19914 0.91156 0.38623 0.0
C456 C 0.8797 0.7574 0.36416 0.0
C457 C 0.92442 0.77647 0.3632 0.0
C458 C 0.01874 0.79009 0.3812 0.0
C459 C 0.13556 0.86882 0.37317 0.0
C460 C 0.08781 0.84376 0.37235 0.0
C461 C 0.9499 0.7863 0.37426 0.0
C462 C -0.00282 0.80488 0.37325 0.0
H463 H 0.22172 0.93392 0.3545 0.0
H464 H 0.14623 0.87799 0.3527 0.0
H465 H 0.07938 0.79769 0.38713 0.0
H466 H 0.87069 0.75229 0.39672 0.0
H467 H 0.94885 0.78615 0.39501 0.0
C468 C 0.86986 0.10767 0.13918 0.0
C469 C 0.88139 0.12959 0.12741 0.0
C470 C 0.84407 0.06292 0.13957 0.0
C471 C 0.76502 0.97092 0.12027 0.0
H472 H 0.78814 0.90382 0.14479 0.0
C473 C 0.70079 0.7883 0.11688 0.0
C474 C 0.69574 0.76541 0.12829 0.0
C475 C 0.71352 0.83203 0.11726 0.0
C476 C 0.78059 0.92213 0.13807 0.0
H477 H 0.87628 0.12155 0.10679 0.0
H478 H 0.83202 0.04308 0.10746 0.0
H479 H 0.83463 0.98156 0.14415 0.0
H480 H 0.69385 0.76871 0.149 0.0
H481 H 0.7153 0.84483 0.14964 0.0
H482 H 0.71153 0.91098 0.11397 0.0
C483 C 0.84221 0.06073 0.1164 0.0
C484 C 0.80745 0.96672 0.13766 0.0
C485 C 0.86801 0.10561 0.11601 0.0
C486 C 0.69816 0.7856 0.14004 0.0
C487 C 0.7108 0.82931 0.14041 0.0
C488 C 0.73813 0.92616 0.12066 0.0
C489 C 0.82934 0.03899 0.12819 0.0
C490 C 0.80025 0.99161 0.12868 0.0
C491 C 0.72113 0.8535 0.12906 0.0
C492 C 0.74586 0.90126 0.12951 0.0
H493 H 0.87942 0.12516 0.14815 0.0
H494 H 0.83449 0.04723 0.14881 0.0
H495 H 0.75817 0.98933 0.11339 0.0
H496 H 0.69874 0.77357 0.10766 0.0
H497 H 0.72104 0.8497 0.10834 0.0
C498 C 0.22499 0.11302 0.36535 0.0
C499 C 0.23615 0.10299 0.37724 0.0
C500 C 0.20484 0.13776 0.36474 0.0
C501 C 0.1461 0.17751 0.38458 0.0
H502 H 0.18093 0.26425 0.35797 0.0
C503 C 0.08152 0.29244 0.3853 0.0
C504 C 0.05785 0.28905 0.3742 0.0
C505 C 0.11175 0.27879 0.38518 0.0
C506 C 0.17111 0.24024 0.36546 0.0
H507 H 0.23404 0.11017 0.39781 0.0
H508 H 0.19975 0.1538 0.39675 0.0
H509 H 0.21307 0.21796 0.35878 0.0
H510 H 0.05145 0.27437 0.3539 0.0
H511 H 0.10443 0.25056 0.35372 0.0
H512 H 0.10437 0.19979 0.39129 0.0
C513 C 0.20575 0.142 0.38788 0.0
C514 C 0.18911 0.21346 0.36587 0.0
C515 C 0.22547 0.11695 0.3885 0.0
C516 C 0.06895 0.27706 0.36262 0.0
C517 C 0.0993 0.2634 0.36251 0.0
C518 C 0.12857 0.20451 0.38425 0.0
C519 C 0.19576 0.15326 0.376 0.0
C520 C 0.17664 0.18165 0.37542 0.0
C521 C 0.11893 0.26172 0.37396 0.0
C522 C 0.1408 0.23606 0.37469 0.0
H523 H 0.23279 0.10267 0.3565 0.0
H524 H 0.19675 0.14508 0.35544 0.0
H525 H 0.13505 0.15284 0.3919 0.0
H526 H 0.07419 0.30223 0.39433 0.0
H527 H 0.12725 0.27869 0.39407 0.0
C528 C 0.20037 0.91035 0.11849 0.0
C529 C 0.21972 0.93184 0.12996 0.0
C530 C 0.15639 0.8804 0.11811 0.0
C531 C 0.05701 0.81977 0.13747 0.0
H532 H 0.00673 0.85556 0.11064 0.0
C533 C 0.87846 0.77304 0.13837 0.0
C534 C 0.85579 0.7588 0.12677 0.0
C535 C 0.92331 0.79251 0.13857 0.0
C536 C 0.02014 0.84472 0.11808 0.0
H537 H 0.20954 0.93473 0.15032 0.0
H538 H 0.13275 0.88264 0.14963 0.0
H539 H 0.0843 0.88516 0.11128 0.0
H540 H 0.86251 0.75571 0.10621 0.0
H541 H 0.94063 0.78947 0.10657 0.0
H542 H 0.99267 0.77965 0.14434 0.0
C543 C 0.15142 0.88904 0.14092 0.0
C544 C 0.0646 0.8615 0.11842 0.0
C545 C 0.19548 0.91897 0.14132 0.0
C546 C 0.87902 0.7665 0.1153 0.0
C547 C 0.92383 0.78583 0.11551 0.0
C548 C 0.01241 0.80279 0.1371 0.0
C549 C 0.13109 0.87144 0.12918 0.0
C550 C 0.08355 0.8495 0.12817 0.0
C551 C 0.94636 0.79807 0.12718 0.0
C552 C 0.99358 0.81548 0.12747 0.0
H553 H 0.21838 0.91907 0.10961 0.0
H554 H 0.14166 0.86641 0.10898 0.0
H555 H 0.07077 0.80988 0.14507 0.0
H556 H 0.8615 0.76767 0.14737 0.0
H557 H 0.93987 0.80253 0.14768 0.0
C558 C 0.71212 0.78909 0.36327 0.0
C559 C 0.70734 0.76941 0.37526 0.0
C560 C 0.72495 0.83282 0.3625 0.0
C561 C 0.7468 0.92954 0.38164 0.0
H562 H 0.84517 0.98751 0.35891 0.0
C563 C 0.87426 0.10863 0.38763 0.0
C564 C 0.88718 0.1338 0.37645 0.0
C565 C 0.84928 0.06378 0.38684 0.0
C566 C 0.81747 0.97185 0.36519 0.0
H567 H 0.70722 0.77873 0.39579 0.0
H568 H 0.72993 0.85477 0.39443 0.0
H569 H 0.80071 0.90938 0.35819 0.0
H570 H 0.88556 0.13161 0.35568 0.0
H571 H 0.84228 0.05339 0.35434 0.0
H572 H 0.76454 0.9922 0.38887 0.0
C573 C 0.72394 0.83672 0.38562 0.0
C574 C 0.79176 0.92707 0.36472 0.0
C575 C 0.71105 0.79305 0.3864 0.0
C576 C 0.87619 0.11312 0.36448 0.0
C577 C 0.8514 0.06831 0.3637 0.0
C578 C 0.77264 0.97437 0.38213 0.0
C579 C 0.73314 0.85755 0.37368 0.0
C580 C 0.75648 0.90533 0.37307 0.0
C581 C 0.83696 0.04325 0.37487 0.0
C582 C 0.8086 0.99589 0.37403 0.0
H583 H 0.70906 0.77164 0.3545 0.0
H584 H 0.73076 0.8478 0.35315 0.0
H585 H 0.7196 0.91378 0.3881 0.0
H586 H 0.88212 0.12359 0.397 0.0
H587 H 0.83925 0.04517 0.39561 0.0
C588 C 0.28588 0.07808 0.641 0.0
C589 C 0.28932 0.06087 0.62926 0.0
C590 C 0.27336 0.10925 0.64129 0.0
C591 C 0.24942 0.18089 0.62138 0.0
H592 H 0.15163 0.14114 0.64431 0.0
C593 C 0.12282 0.23473 0.61609 0.0
C594 C 0.10891 0.2451 0.62743 0.0
C595 C 0.14804 0.21503 0.61659 0.0
C596 C 0.17919 0.15311 0.63797 0.0
H597 H 0.28784 0.06682 0.60861 0.0
H598 H 0.26575 0.12083 0.60915 0.0
H599 H 0.19645 0.10804 0.64517 0.0
H600 H 0.10959 0.24185 0.64818 0.0
H601 H 0.15352 0.20779 0.64903 0.0
H602 H 0.23146 0.22553 0.61404 0.0
C603 C 0.27244 0.1102 0.61813 0.0
C604 C 0.20508 0.13429 0.63852 0.0
C605 C 0.28501 0.07908 0.61783 0.0
C606 C 0.11956 0.23411 0.63925 0.0
C607 C 0.14475 0.21451 0.63975 0.0
C608 C 0.22351 0.19984 0.62085 0.0
C609 C 0.26416 0.12378 0.62987 0.0
C610 C 0.24026 0.14768 0.63016 0.0
C611 C 0.15979 0.20528 0.62844 0.0
C612 C 0.18785 0.18584 0.62907 0.0
H613 H 0.28951 0.06514 0.64998 0.0
H614 H 0.26827 0.11999 0.65048 0.0
H615 H 0.27642 0.19198 0.61485 0.0
H616 H 0.11524 0.24288 0.60684 0.0
H617 H 0.15852 0.20762 0.60771 0.0
C618 C 0.10882 0.86397 0.86642 0.0
C619 C 0.13051 0.87765 0.8782 0.0
C620 C 0.06398 0.83883 0.86603 0.0
C621 C 0.9699 0.76603 0.88578 0.0
H622 H 0.90635 0.79079 0.8604 0.0
C623 C 0.789 0.71055 0.88913 0.0
C624 C 0.76595 0.70497 0.87772 0.0
C625 C 0.83239 0.72191 0.88873 0.0
C626 C 0.92357 0.78272 0.86737 0.0
H627 H 0.12203 0.87635 0.89878 0.0
H628 H 0.0435 0.83307 0.89806 0.0
H629 H 0.98452 0.83323 0.86077 0.0
H630 H 0.76867 0.70141 0.85704 0.0
H631 H 0.8441 0.72029 0.85639 0.0
H632 H 0.90861 0.71605 0.89255 0.0
C633 C 0.06134 0.84122 0.88915 0.0
C634 C 0.96844 0.80727 0.86762 0.0
C635 C 0.10628 0.86643 0.88956 0.0
C636 C 0.7857 0.7061 0.86599 0.0
C637 C 0.82904 0.71728 0.86561 0.0
C638 C 0.92489 0.74139 0.88552 0.0
C639 C 0.03975 0.82681 0.87739 0.0
C640 C 0.99211 0.79956 0.87691 0.0
C641 C 0.85342 0.72761 0.87693 0.0
C642 C 0.90121 0.74979 0.8764 0.0
H643 H 0.1265 0.8718 0.85749 0.0
H644 H 0.04836 0.82795 0.85681 0.0
H645 H 0.98732 0.75884 0.89292 0.0
H646 H 0.77467 0.70964 0.89834 0.0
H647 H 0.85018 0.72956 0.89764 0.0
C648 C 0.76376 0.88097 0.63858 0.0
C649 C 0.75056 0.85805 0.62699 0.0
C650 C 0.78425 0.92592 0.63863 0.0
C651 C 0.84225 0.02165 0.61791 0.0
H652 H 0.81004 0.07709 0.64412 0.0
C653 C 0.91481 0.20344 0.61733 0.0
C654 C 0.93549 0.22328 0.62885 0.0
C655 C 0.88437 0.15958 0.61705 0.0
C656 C 0.81926 0.062 0.63675 0.0
H657 H 0.74963 0.86435 0.60635 0.0
H658 H 0.78503 0.94264 0.60647 0.0
H659 H 0.77588 -0.00147 0.64372 0.0
H660 H 0.93683 0.21393 0.64933 0.0
H661 H 0.88377 0.13732 0.64881 0.0
H662 H 0.88588 0.08493 0.61101 0.0
C663 C 0.77996 0.92597 0.6155 0.0
C664 C 0.79998 0.01709 0.63656 0.0
C665 C 0.75964 0.88105 0.61544 0.0
C666 C 0.92166 0.19953 0.64028 0.0
C667 C 0.8912 0.15558 0.63999 0.0
C668 C 0.86132 0.06642 0.61807 0.0
C669 C 0.79185 0.94887 0.62711 0.0
C670 C 0.81159 -0.00353 0.6272 0.0
C671 C 0.87401 0.13479 0.62827 0.0
C672 C 0.85028 0.0871 0.62753 0.0
H673 H 0.75731 0.86419 0.64764 0.0
H674 H 0.79385 0.94267 0.64772 0.0
H675 H 0.8524 0.00687 0.6107 0.0
H676 H 0.92433 0.22101 0.60837 0.0
H677 H 0.87079 0.14453 0.60792 0.0
C678 C 0.13012 0.25201 0.86733 0.0
C679 C 0.09815 0.24062 0.87669 0.0
C680 C 0.15541 0.2326 0.8671 0.0
C681 C 0.18542 0.16491 0.887 0.0
H682 H 0.23214 0.15415 0.85466 0.0
C683 C 0.28517 0.08057 0.88527 0.0
C684 C 0.27659 0.0526 0.87488 0.0
C685 C 0.27196 0.11124 0.88496 0.0
C686 C 0.21908 0.15638 0.86378 0.0
H687 H 0.06654 0.19946 0.89296 0.0
H688 H 0.10827 0.16254 0.89196 0.0
H689 H 0.18661 0.18589 0.85511 0.0
H690 H 0.25023 0.03667 0.85568 0.0
H691 H 0.2253 0.08792 0.85535 0.0
H692 H 0.21448 0.13157 0.89547 0.0
C693 C 0.11539 0.18796 0.88513 0.0
C694 C 0.19341 0.17547 0.86409 0.0
C695 C 0.09096 0.20855 0.88562 0.0
C696 C 0.25751 0.05793 0.86383 0.0
C697 C 0.24329 0.08769 0.86364 0.0
C698 C 0.20998 0.14455 0.88663 0.0
C699 C 0.14849 0.20022 0.87597 0.0
C700 C 0.17601 0.17989 0.87569 0.0
C701 C 0.24886 0.11369 0.87439 0.0
C702 C 0.22685 0.13962 0.87499 0.0
H703 H 0.13703 0.27747 0.86052 0.0
H704 H 0.18117 0.24405 0.86014 0.0
H705 H 0.17368 0.16858 0.89619 0.0
H706 H 0.30024 0.07737 0.89387 0.0
H707 H 0.27825 0.13169 0.89325 0.0
C708 C 0.10919 0.87601 0.61592 0.0
C709 C 0.1321 0.89128 0.62745 0.0
C710 C 0.06438 0.85043 0.616 0.0
C711 C 0.97447 0.77868 0.63725 0.0
H712 H 0.90457 0.79179 0.6113 0.0
C713 C 0.79169 0.71457 0.64089 0.0
C714 C 0.76791 0.70406 0.62945 0.0
C715 C 0.83561 0.72801 0.64063 0.0
C716 C 0.92369 0.78707 0.61846 0.0
H717 H 0.12583 0.89346 0.64806 0.0
H718 H 0.04743 0.84978 0.64815 0.0
H719 H 0.98231 0.83865 0.61094 0.0
H720 H 0.76984 0.69349 0.60906 0.0
H721 H 0.8463 0.71632 0.60867 0.0
H722 H 0.91534 0.72779 0.64497 0.0
C723 C 0.06425 0.85667 0.63908 0.0
C724 C 0.96826 0.81411 0.61829 0.0
C725 C 0.10912 0.88215 0.63901 0.0
C726 C 0.7875 0.70211 0.61801 0.0
C727 C 0.83133 0.71544 0.61776 0.0
C728 C 0.92974 0.75169 0.63745 0.0
C729 C 0.04149 0.83976 0.62761 0.0
C730 C -0.00586 0.8105 0.62773 0.0
C731 C 0.85627 0.7309 0.62893 0.0
C732 C 0.9039 0.75582 0.6281 0.0
H733 H 0.12593 0.88223 0.60685 0.0
H734 H 0.04785 0.83769 0.607 0.0
H735 H 0.99365 0.77458 0.64452 0.0
H736 H 0.77744 0.71611 0.64988 0.0
H737 H 0.85398 0.73961 0.6494 0.0
C738 C 0.90544 0.20796 0.88859 0.0
C739 C 0.9266 0.22698 0.87706 0.0
C740 C 0.87481 0.16417 0.88903 0.0
C741 C 0.81275 0.06465 0.8697 0.0
H742 H 0.84919 0.01411 0.89628 0.0
C743 C 0.7686 0.88686 0.86807 0.0
C744 C 0.75479 0.86355 0.87957 0.0
C745 C 0.78715 0.93163 0.86807 0.0
C746 C 0.83813 0.02758 0.88892 0.0
H747 H 0.92806 0.21657 0.85664 0.0
H748 H 0.87487 0.14016 0.85744 0.0
H749 H 0.87853 0.09164 0.89579 0.0
H750 H 0.75141 0.86909 0.90018 0.0
H751 H 0.78363 0.94712 0.90017 0.0
H752 H 0.77283 0.0004 0.86272 0.0
C753 C 0.88202 0.15889 0.86616 0.0
C754 C 0.85476 0.07204 0.88867 0.0
C755 C 0.91257 0.20278 0.8657 0.0
C756 C 0.76192 0.88611 0.89115 0.0
C757 C 0.78034 0.93087 0.89115 0.0
C758 C 0.79596 0.02006 0.86997 0.0
C759 C 0.86487 0.13872 0.87795 0.0
C760 C 0.84264 0.09112 0.87898 0.0
C761 C 0.7922 0.95399 0.87958 0.0
C762 C 0.80895 0.00114 0.87949 0.0
H763 H 0.91503 0.22598 0.89747 0.0
H764 H 0.86118 0.14962 0.8982 0.0
H765 H 0.80271 0.07846 0.86216 0.0
H766 H 0.76367 0.87043 0.85899 0.0
H767 H 0.79692 0.94866 0.85904 0.0
C768 C 0.36586 0.11121 0.30177 0.0
C769 C 0.34099 0.07247 0.3085 0.0
C770 C 0.36527 0.11181 0.28838 0.0
C771 C 0.29946 0.05015 0.26062 0.0
H772 H 0.40579 0.11593 0.24159 0.0
C773 C 0.30872 0.0314 0.20612 0.0
C774 C 0.33388 0.06888 0.19888 0.0
C775 C 0.30961 0.03293 0.21948 0.0
C776 C 0.37574 0.09783 0.24676 0.0
H777 H 0.29561 0.00409 0.30642 0.0
H778 H 0.29516 0.00501 0.28312 0.0
H779 H 0.40746 0.11669 0.26494 0.0
H780 H 0.37992 0.13736 0.20005 0.0
H781 H 0.38086 0.14016 0.22339 0.0
H782 H 0.26772 0.03119 0.24248 0.0
C783 C 0.31487 0.035 0.28818 0.0
C784 C 0.37671 0.09826 0.26014 0.0
C785 C 0.31554 0.03439 0.30154 0.0
C786 C 0.35985 0.10798 0.20533 0.0
C787 C 0.36076 0.10949 0.21871 0.0
C788 C 0.29849 0.04975 0.24726 0.0
C789 C 0.33964 0.07372 0.28144 0.0
C790 C 0.33861 0.07421 0.26722 0.0
C791 C 0.33564 0.07197 0.22594 0.0
C792 C 0.33664 0.07337 0.24016 0.0
H793 H 0.38608 0.14104 0.30684 0.0
H794 H 0.38446 0.14222 0.28348 0.0
H795 H 0.26943 0.03188 0.26579 0.0
H796 H 0.28798 0.00085 0.20146 0.0
H797 H 0.29023 0.00333 0.22475 0.0
C798 C 0.68504 0.62254 0.30066 0.0
C799 C 0.72285 0.64834 0.30769 0.0
C800 C 0.68578 0.623 0.28728 0.0
C801 C 0.7481 0.69011 0.25988 0.0
H802 H 0.68566 0.58372 0.24065 0.0
C803 C 0.76429 0.68435 0.20503 0.0
C804 C 0.72652 0.65809 0.19803 0.0
C805 C 0.76416 0.68265 0.2184 0.0
C806 C 0.70288 0.61378 0.24587 0.0
H807 H 0.79105 0.69506 0.30616 0.0
H808 H 0.79244 0.69544 0.28283 0.0
H809 H 0.68469 0.58157 0.26399 0.0
H810 H 0.65911 0.60891 0.19965 0.0
H811 H 0.65863 0.60672 0.22295 0.0
H812 H 0.76605 0.7224 0.2418 0.0
C813 C 0.76215 0.67506 0.28766 0.0
C814 C 0.70234 0.61252 0.25925 0.0
C815 C 0.76145 0.67446 0.30104 0.0
C816 C 0.68866 0.62997 0.20474 0.0
C817 C 0.68851 0.6283 0.2181 0.0
C818 C 0.74855 0.69138 0.24651 0.0
C819 C 0.7243 0.64944 0.28063 0.0
C820 C 0.72496 0.65067 0.26641 0.0
C821 C 0.72624 0.65468 0.2251 0.0
C822 C 0.72595 0.65324 0.23934 0.0
H823 H 0.65487 0.60178 0.3055 0.0
H824 H 0.65599 0.60317 0.28214 0.0
H825 H 0.76531 0.72015 0.26512 0.0
H826 H 0.79392 0.70669 0.20019 0.0
H827 H 0.79391 0.70306 0.22348 0.0
C828 C 0.90051 0.22325 0.20497 0.0
C829 C 0.91472 0.26165 0.19803 0.0
C830 C 0.89887 0.22332 0.21833 0.0
C831 C 0.89586 0.28652 0.24591 0.0
H832 H 0.93604 0.22037 0.2649 0.0
C833 C 0.92479 0.30411 0.30058 0.0
C834 C 0.91259 0.26633 0.30765 0.0
C835 C 0.92347 0.30302 0.2872 0.0
C836 C 0.92419 0.23858 0.25974 0.0
H837 H 0.93754 0.3301 0.19971 0.0
H838 H 0.93541 0.33035 0.22303 0.0
H839 H 0.93659 0.21935 0.24159 0.0
H840 H 0.88943 0.19776 0.30618 0.0
H841 H 0.88633 0.19573 0.28288 0.0
H842 H 0.88365 0.30589 0.26409 0.0
C843 C 0.9252 0.3001 0.21813 0.0
C844 C 0.92451 0.238 0.24638 0.0
C845 C 0.9269 0.30005 0.20477 0.0
C846 C 0.89863 0.22737 0.30103 0.0
C847 C 0.89735 0.2263 0.28767 0.0
C848 C 0.89554 0.2871 0.25929 0.0
C849 C 0.91133 0.26177 0.22507 0.0
C850 C 0.91041 0.26201 0.2393 0.0
C851 C 0.90998 0.26415 0.28059 0.0
C852 C 0.90976 0.26318 0.26636 0.0
H853 H 0.89127 0.19319 0.20008 0.0
H854 H 0.88759 0.19316 0.22338 0.0
H855 H 0.88421 0.30489 0.24074 0.0
H856 H 0.93529 0.33457 0.30538 0.0
H857 H 0.93378 0.33283 0.28204 0.0
C858 C 0.08408 0.31559 0.70499 0.0
C859 C 0.07068 0.34043 0.69804 0.0
C860 C 0.08441 0.31626 0.71836 0.0
C861 C 0.08512 0.38035 0.7462 0.0
H862 H 0.04166 0.27224 0.76446 0.0
C863 C 0.05296 0.36593 0.80071 0.0
C864 C 0.06441 0.3396 0.80769 0.0
C865 C 0.05449 0.36663 0.78733 0.0
C866 C 0.05439 0.30278 0.75952 0.0
H867 H 0.0481 0.38624 0.69971 0.0
H868 H 0.04807 0.38691 0.72305 0.0
H869 H 0.04356 0.27266 0.74115 0.0
H870 H 0.08604 0.29302 0.80604 0.0
H871 H 0.08956 0.29492 0.78276 0.0
H872 H 0.09593 0.41047 0.76457 0.0
C873 C 0.05857 0.36711 0.71815 0.0
C874 C 0.05548 0.30302 0.74615 0.0
C875 C 0.05814 0.36635 0.70478 0.0
C876 C 0.07747 0.31404 0.80098 0.0
C877 C 0.07899 0.31473 0.78761 0.0
C878 C 0.08408 0.38013 0.75957 0.0
C879 C 0.07147 0.34187 0.7251 0.0
C880 C 0.07083 0.34179 0.73933 0.0
C881 C 0.06745 0.34097 0.78062 0.0
C882 C 0.06868 0.34133 0.7664 0.0
H883 H 0.09359 0.295 0.70009 0.0
H884 H 0.09497 0.2968 0.72343 0.0
H885 H 0.09768 0.41085 0.74123 0.0
H886 H 0.04316 0.38634 0.80558 0.0
H887 H 0.04498 0.38689 0.78224 0.0
C888 C 0.22627 0.90028 0.80148 0.0
C889 C 0.26497 0.91455 0.80826 0.0
C890 C 0.22596 0.89977 0.7881 0.0
C891 C 0.29788 0.94845 0.7602 0.0
H892 H 0.20374 0.85553 0.74151 0.0
C893 C 0.30098 0.93232 0.70529 0.0
C894 C 0.26281 0.92173 0.69863 0.0
C895 C 0.30121 0.93041 0.71865 0.0
C896 C 0.23006 0.8819 0.7466 0.0
H897 H 0.33347 0.9382 0.8063 0.0
H898 H 0.33291 0.93699 0.78297 0.0
H899 H 0.2043 0.85353 0.76484 0.0
H900 H 0.19498 0.90109 0.70087 0.0
H901 H 0.19536 0.89747 0.72417 0.0
H902 H 0.32367 0.97675 0.74195 0.0
C903 C 0.30291 0.92703 0.78798 0.0
C904 C 0.23037 0.88079 0.75997 0.0
C905 C 0.30324 0.92767 0.80135 0.0
C906 C 0.2248 0.90885 0.70566 0.0
C907 C 0.22501 0.9068 0.71902 0.0
C908 C 0.29763 0.94948 0.74684 0.0
C909 C 0.26433 0.91339 0.78118 0.0
C910 C 0.26425 0.91411 0.76694 0.0
C911 C 0.26325 0.91772 0.72567 0.0
C912 C 0.26367 0.91628 0.73988 0.0
H913 H 0.19634 0.89053 0.80651 0.0
H914 H 0.19578 0.88966 0.78318 0.0
H915 H 0.32408 0.97503 0.76526 0.0
H916 H 0.33066 0.94162 0.70018 0.0
H917 H 0.33105 0.93839 0.72347 0.0
C918 C 0.68011 0.76811 0.70484 0.0
C919 C 0.65426 0.72947 0.69817 0.0
C920 C 0.67985 0.76895 0.71821 0.0
C921 C 0.65346 0.69793 0.7464 0.0
H922 H 0.65636 0.79389 0.76449 0.0
C923 C 0.63135 0.69628 0.8011 0.0
C924 C 0.65873 0.73443 0.80779 0.0
C925 C 0.63009 0.69595 0.78774 0.0
C926 C 0.65598 0.76708 0.75958 0.0
H927 H 0.607 0.66166 0.70033 0.0
H928 H 0.60645 0.66315 0.72365 0.0
H929 H 0.65523 0.79277 0.74114 0.0
H930 H 0.70637 0.80213 0.80565 0.0
H931 H 0.70411 0.80156 0.78232 0.0
H932 H 0.65425 0.67225 0.76482 0.0
C933 C 0.62753 0.69265 0.71854 0.0
C934 C 0.65534 0.76643 0.7462 0.0
C935 C 0.62782 0.6918 0.70518 0.0
C936 C 0.68451 0.77234 0.8008 0.0
C937 C 0.68322 0.77202 0.78743 0.0
C938 C 0.65406 0.69856 0.75977 0.0
C939 C 0.65369 0.73119 0.72522 0.0
C940 C 0.65408 0.73184 0.73945 0.0
C941 C 0.65613 0.73376 0.78074 0.0
C942 C 0.65533 0.73313 0.76652 0.0
H943 H 0.70128 0.79756 0.69973 0.0
H944 H 0.70084 0.79904 0.72306 0.0
H945 H 0.65324 0.67116 0.74151 0.0
H946 H 0.6105 0.66669 0.80619 0.0
H947 H 0.60833 0.66612 0.78288 0.0
C948 C 0.26787 0.9961 0.95438 0.0
C949 C 0.2701 0.96079 0.94949 0.0
C950 C 0.27104 0.00407 0.96754 0.0
C951 C 0.26779 0.95361 0.99919 0.0
H952 H 0.32501 0.07243 0.01076 0.0
C953 C 0.32701 0.00631 0.05106 0.0
C954 C 0.31203 0.03158 0.05707 0.0
C955 C 0.32113 -0.00214 0.03794 0.0
C956 C 0.30876 0.03913 0.00763 0.0
H957 H 0.27756 0.9062 0.95438 0.0
H958 H 0.28506 0.92096 0.97731 0.0
H959 H 0.31635 0.05681 0.9879 0.0
H960 H 0.27958 0.06823 0.05372 0.0
H961 H 0.27123 0.05494 0.0307 0.0
H962 H 0.26208 0.93639 0.01904 0.0
C963 C 0.27938 0.94184 0.97112 0.0
C964 C 0.30347 0.03003 0.99453 0.0
C965 C 0.27532 0.9334 0.95797 0.0
C966 C 0.29216 0.04921 0.04947 0.0
C967 C 0.28707 0.0414 0.03629 0.0
C968 C 0.27388 0.9628 0.01227 0.0
C969 C 0.27745 0.97741 0.9761 0.0
C970 C 0.2828 0.9871 0.9901 0.0
C971 C 0.30101 0.01521 0.03046 0.0
C972 C 0.29434 0.00561 0.0166 0.0
H973 H 0.26344 0.01743 0.94801 0.0
H974 H 0.26831 0.03112 0.97097 0.0
H975 H 0.25093 0.92016 0.99623 0.0
H976 H 0.34348 0.99307 0.05646 0.0
H977 H 0.33271 0.97807 0.03361 0.0
C978 C 0.72844 0.7266 0.45397 0.0
C979 C 0.72651 0.68926 0.44903 0.0
C980 C 0.72505 0.73115 0.46713 0.0
C981 C 0.72724 0.68319 0.49877 0.0
H982 H 0.66882 0.74383 0.51012 0.0
C983 C 0.66447 0.67463 0.55033 0.0
C984 C 0.67927 0.71468 0.55644 0.0
C985 C 0.6712 0.6725 0.53725 0.0
C986 C 0.6854 0.72704 0.50706 0.0
H987 H 0.71954 0.62737 0.45384 0.0
H988 H 0.71162 0.63413 0.47678 0.0
H989 H 0.67876 0.73769 0.4873 0.0
H990 H 0.71238 0.78394 0.55331 0.0
H991 H 0.72215 0.77977 0.53034 0.0
H992 H 0.73189 0.67104 0.51864 0.0
C993 C 0.71723 0.66075 0.47062 0.0
C994 C 0.69145 0.72372 0.49398 0.0
C995 C 0.72154 0.65665 0.45747 0.0
C996 C 0.69987 0.75246 0.54898 0.0
C997 C 0.7058 0.7502 0.53583 0.0
C998 C 0.72037 0.68579 0.51183 0.0
C999 C 0.71866 0.69798 0.47565 0.0
C1000 C 0.71257 0.70183 0.48963 0.0
C1001 C 0.692 0.71024 0.5299 0.0
C1002 C 0.69948 0.7078 0.51608 0.0
H1003 H 0.73261 0.75234 0.44762 0.0
H1004 H 0.72745 0.76076 0.47059 0.0
H1005 H 0.7444 0.66685 0.49588 0.0
H1006 H 0.64747 0.64471 0.55561 0.0
H1007 H 0.65973 0.64126 0.53283 0.0
C1008 C 0.0298 0.2757 0.95599 0.0
C1009 C 0.03131 0.31059 0.9494 0.0
C1010 C 0.02016 0.26999 0.96908 0.0
C1011 C 0.97011 0.30304 0.9946 0.0
H1012 H 0.02381 0.25825 0.01739 0.0
C1013 C 0.96059 0.30893 0.04963 0.0
C1014 C 0.95163 0.27148 0.05641 0.0
C1015 C 0.96874 0.31191 0.03649 0.0
C1016 C 0.00826 0.27039 0.0111 0.0
H1017 H 0.02592 0.3679 0.95139 0.0
H1018 H 0.01048 0.35886 0.97423 0.0
H1019 H 0.04297 0.26813 0.99473 0.0
H1020 H 0.94413 0.20777 0.05477 0.0
H1021 H 0.95875 0.21312 0.03173 0.0
H1022 H 0.93626 0.30627 0.01108 0.0
C1023 C 0.01522 0.33497 0.96928 0.0
C1024 C 0.01915 0.27599 0.99811 0.0
C1025 C 0.02434 0.34037 0.9562 0.0
C1026 C 0.95065 0.23689 0.04975 0.0
C1027 C 0.95937 0.24009 0.03662 0.0
C1028 C 0.95961 0.29788 0.0076 0.0
C1029 C 0.01229 0.29934 0.97587 0.0
C1030 C 0.00037 0.29262 0.98969 0.0
C1031 C 0.9686 0.27769 0.02987 0.0
C1032 C 0.97869 0.28167 0.01599 0.0
H1033 H 0.03464 0.25205 0.95094 0.0
H1034 H 0.01773 0.24191 0.97377 0.0
H1035 H 0.95417 0.31493 0.98838 0.0
H1036 H 0.9613 0.33597 0.0545 0.0
H1037 H 0.97605 0.34139 0.03155 0.0
C1038 C 0.2604 0.99374 0.45436 0.0
C1039 C 0.29686 0.03044 0.44958 0.0
C1040 C 0.25559 0.98552 0.4675 0.0
C1041 C 0.30003 0.03672 0.49927 0.0
H1042 H 0.2426 0.91765 0.51048 0.0
C1043 C 0.26669 0.99351 0.5527 0.0
C1044 C 0.26852 0.95761 0.55722 0.0
C1045 C 0.26826 0.00167 0.53959 0.0
C1046 C 0.25927 0.95114 0.50757 0.0
H1047 H 0.357 0.08727 0.45462 0.0
H1048 H 0.34991 0.07215 0.47753 0.0
H1049 H 0.2507 0.93382 0.4878 0.0
H1050 H 0.27358 0.90209 0.55174 0.0
H1051 H 0.27847 0.91721 0.52883 0.0
H1052 H 0.31108 0.0541 0.51901 0.0
C1053 C 0.32409 0.05032 0.47127 0.0
C1054 C 0.26321 0.96047 0.49449 0.0
C1055 C 0.32838 0.05898 0.45814 0.0
C1056 C 0.27177 0.9298 0.54843 0.0
C1057 C 0.27429 0.93844 0.5353 0.0
C1058 C 0.29685 0.0274 0.51235 0.0
C1059 C 0.28768 0.01333 0.47615 0.0
C1060 C 0.28348 0.00341 0.49013 0.0
C1061 C 0.27271 0.97461 0.53068 0.0
C1062 C 0.27623 0.98447 0.5167 0.0
H1063 H 0.23553 0.97145 0.44791 0.0
H1064 H 0.2266 0.95733 0.47084 0.0
H1065 H 0.31531 0.07018 0.49638 0.0
H1066 H 0.26377 0.01516 0.55934 0.0
H1067 H 0.26578 0.02916 0.53647 0.0
C1068 C 0.67727 0.64874 0.04954 0.0
C1069 C 0.71432 0.6781 0.05631 0.0
C1070 C 0.67346 0.65434 0.03648 0.0
C1071 C 0.73651 0.71278 0.00764 0.0
H1072 H 0.62391 0.68533 0.99487 0.0
C1073 C 0.70849 0.7541 0.95619 0.0
C1074 C 0.67432 0.72016 0.94951 0.0
C1075 C 0.71377 0.75049 0.96931 0.0
C1076 C 0.65549 0.69292 0.9983 0.0
H1077 H 0.77662 0.73616 0.05472 0.0
H1078 H 0.76973 0.7466 0.03193 0.0
H1079 H 0.63307 0.67587 0.01752 0.0
H1080 H 0.61823 0.65645 0.95135 0.0
H1081 H 0.62719 0.6503 0.97428 0.0
H1082 H 0.75886 0.73047 0.98836 0.0
C1083 C 0.7439 0.71869 0.03664 0.0
C1084 C 0.66076 0.6873 0.01127 0.0
C1085 C 0.74788 0.71279 0.0497 0.0
C1086 C 0.645 0.68299 0.95625 0.0
C1087 C 0.64996 0.6796 0.96938 0.0
C1088 C 0.73129 0.71881 0.99468 0.0
C1089 C 0.70642 0.68976 0.02989 0.0
C1090 C 0.70124 0.69675 0.0161 0.0
C1091 C 0.68463 0.71312 0.97602 0.0
C1092 C 0.69065 0.70859 0.98986 0.0
H1093 H 0.65115 0.62137 0.05437 0.0
H1094 H 0.6446 0.63081 0.03156 0.0
H1095 H 0.76801 0.71987 0.01097 0.0
H1096 H 0.73174 0.78298 0.9512 0.0
H1097 H 0.74059 0.77694 0.97422 0.0
C1098 C 0.05515 0.297 0.54856 0.0
C1099 C 0.03652 0.31599 0.55613 0.0
C1100 C 0.04743 0.29159 0.53538 0.0
C1101 C 0.96767 0.27414 0.51145 0.0
H1102 H 0.06123 0.32194 0.48687 0.0
C1103 C 0.93549 0.27303 0.45726 0.0
C1104 C 0.96417 0.27049 0.44865 0.0
C1105 C 0.9443 0.27752 0.47039 0.0
C1106 C 0.03462 0.30754 0.49356 0.0
H1107 H -0.00365 0.34564 0.55542 0.0
H1108 H 0.98139 0.33412 0.53259 0.0
H1109 H 0.07729 0.3314 0.50971 0.0
H1110 H 0.02364 0.26909 0.44692 0.0
H1111 H 0.03809 0.27459 0.46984 0.0
H1112 H 0.92485 0.24882 0.4955 0.0
C1113 C 0.00196 0.32354 0.53696 0.0
C1114 C 0.04396 0.31331 0.50665 0.0
C1115 C 0.01037 0.32981 0.55007 0.0
C1116 C 0.00123 0.27137 0.4534 0.0
C1117 C 0.00963 0.27492 0.46653 0.0
C1118 C 0.95829 0.26754 0.49838 0.0
C1119 C 0.02028 0.30426 0.52951 0.0
C1120 C 0.01056 0.297 0.51568 0.0
C1121 C 0.98161 0.27867 0.47523 0.0
C1122 C 0.99161 0.28448 0.48922 0.0
H1123 H 0.07489 0.28531 0.55284 0.0
H1124 H 0.06174 0.27645 0.52981 0.0
H1125 H 0.94138 0.2609 0.51827 0.0
H1126 H 0.90691 0.27288 0.45378 0.0
H1127 H 0.92229 0.28113 0.47667 0.0
C1128 C 0.77204 0.202 0.11339 0.0
C1129 C 0.79401 0.21687 0.12508 0.0
C1130 C 0.72721 0.17606 0.11316 0.0
C1131 C 0.63622 0.10267 0.1338 0.0
H1132 H 0.56687 0.11907 0.10841 0.0
C1133 C 0.45517 0.04265 0.13889 0.0
C1134 C 0.43028 0.03367 0.12771 0.0
C1135 C 0.49875 0.05501 0.1381 0.0
C1136 C 0.5858 0.11336 0.1154 0.0
H1137 H 0.78602 0.2179 0.14565 0.0
H1138 H 0.70778 0.17348 0.14521 0.0
H1139 H 0.64485 0.16465 0.10794 0.0
H1140 H 0.42997 0.02491 0.10714 0.0
H1141 H 0.50586 0.04581 0.10582 0.0
H1142 H 0.57688 0.05208 0.14146 0.0
C1143 C 0.7253 0.18099 0.13625 0.0
C1144 C 0.63051 0.13969 0.11516 0.0
C1145 C 0.77009 0.20687 0.13648 0.0
C1146 C 0.44846 0.0323 0.11592 0.0
C1147 C 0.49201 0.04457 0.11514 0.0
C1148 C 0.59143 0.07632 0.13405 0.0
C1149 C 0.70347 0.16455 0.12462 0.0
C1150 C 0.65616 0.13511 0.12448 0.0
C1151 C 0.51809 0.05835 0.12613 0.0
C1152 C 0.56571 0.08182 0.12496 0.0
H1153 H 0.78954 0.20894 0.10444 0.0
H1154 H 0.71133 0.16377 0.10405 0.0
H1155 H 0.65524 0.09779 0.14096 0.0
H1156 H 0.44205 0.0437 0.14814 0.0
H1157 H 0.51794 0.06535 0.14675 0.0
C1158 C 0.57266 0.53917 0.37087 0.0
C1159 C 0.59903 0.55892 0.38155 0.0
C1160 C 0.54013 0.49591 0.3714 0.0
C1161 C 0.4878 0.39996 0.39358 0.0
H1162 H 0.48116 0.33865 0.36236 0.0
C1163 C 0.39504 0.21399 0.39172 0.0
C1164 C 0.40876 0.19341 0.38304 0.0
C1165 C 0.41355 0.25873 0.39159 0.0
C1166 C 0.48321 0.35507 0.37125 0.0
H1167 H 0.60975 0.55 0.40147 0.0
H1168 H 0.55535 0.47488 0.40224 0.0
H1169 H 0.51844 0.41636 0.36223 0.0
H1170 H 0.4535 0.2031 0.36778 0.0
H1171 H 0.48855 0.2815 0.36821 0.0
H1172 H 0.45624 0.33887 0.40288 0.0
C1173 C 0.55833 0.49235 0.3935 0.0
C1174 C 0.50374 0.40001 0.3711 0.0
C1175 C 0.58996 0.53576 0.39306 0.0
C1176 C 0.44244 0.21836 0.37456 0.0
C1177 C 0.46197 0.26329 0.3747 0.0
C1178 C 0.46843 0.35509 0.39382 0.0
C1179 C 0.53415 0.47124 0.38252 0.0
C1180 C 0.50701 0.42324 0.38231 0.0
C1181 C 0.44715 0.28414 0.38302 0.0
C1182 C 0.46636 0.33196 0.38269 0.0
H1183 H 0.57862 0.55644 0.3619 0.0
H1184 H 0.52114 0.48138 0.36289 0.0
H1185 H 0.48854 0.41633 0.40236 0.0
H1186 H 0.36845 0.19533 0.39819 0.0
H1187 H 0.4004 0.27306 0.39796 0.0
C1188 C 0.9541 0.41306 0.11604 0.0
C1189 C 0.94789 0.38951 0.12736 0.0
C1190 C 0.9443 0.44627 0.11563 0.0
C1191 C 0.90729 0.50785 0.13627 0.0
H1192 H 0.8496 0.50895 0.10504 0.0
C1193 C 0.81769 0.6032 0.13364 0.0
C1194 C 0.78118 0.58758 0.12579 0.0
C1195 C 0.84422 0.58513 0.1331 0.0
C1196 C 0.86495 0.50859 0.11393 0.0
H1197 H 0.92963 0.38439 0.14736 0.0
H1198 H 0.91072 0.44008 0.14653 0.0
H1199 H 0.88724 0.4687 0.10578 0.0
H1200 H 0.74328 0.54095 0.11126 0.0
H1201 H 0.78733 0.50649 0.11103 0.0
H1202 H 0.88153 0.54394 0.14484 0.0
C1203 C 0.92415 0.4343 0.13799 0.0
C1204 C 0.88763 0.48625 0.11425 0.0
C1205 C 0.93483 0.4019 0.13847 0.0
C1206 C 0.77126 0.55329 0.11744 0.0
C1207 C 0.79699 0.53407 0.11721 0.0
C1208 C 0.88353 0.52901 0.13607 0.0
C1209 C 0.92723 0.45595 0.12645 0.0
C1210 C 0.90846 0.48484 0.12552 0.0
C1211 C 0.83407 0.54988 0.125 0.0
C1212 C 0.86144 0.52924 0.12494 0.0
H1213 H 0.96456 0.40451 0.10735 0.0
H1214 H 0.94847 0.46309 0.10667 0.0
H1215 H 0.92376 0.50864 0.14504 0.0
H1216 H 0.82655 0.63043 0.13994 0.0
H1217 H 0.87299 0.59938 0.13895 0.0
C1218 C 0.45276 0.03556 0.37186 0.0
C1219 C 0.43302 0.0428 0.38242 0.0
C1220 C 0.49627 0.04723 0.37236 0.0
C1221 C 0.59283 0.09422 0.3943 0.0
H1222 H 0.65301 0.14542 0.36265 0.0
C1223 C 0.77855 0.18585 0.39174 0.0
C1224 C 0.79903 0.21905 0.38273 0.0
C1225 C 0.73377 0.16012 0.39185 0.0
C1226 C 0.6369 0.13204 0.37165 0.0
H1227 H 0.44233 0.06489 0.40211 0.0
H1228 H 0.51789 0.08726 0.40281 0.0
H1229 H 0.57528 0.1049 0.36278 0.0
H1230 H 0.78917 0.25281 0.36711 0.0
H1231 H 0.71074 0.2104 0.36793 0.0
H1232 H 0.65423 0.12481 0.40342 0.0
C1233 C 0.50022 0.07149 0.3942 0.0
C1234 C 0.59197 0.1076 0.37166 0.0
C1235 C 0.45657 0.05876 0.3938 0.0
C1236 C 0.77398 0.22732 0.37415 0.0
C1237 C 0.72903 0.20246 0.37452 0.0
C1238 C 0.63769 0.11978 0.39437 0.0
C1239 C 0.52118 0.06752 0.38333 0.0
C1240 C 0.56917 0.08879 0.38303 0.0
C1241 C 0.70826 0.16779 0.38318 0.0
C1242 C 0.66041 0.13951 0.38307 0.0
H1243 H 0.43518 0.02283 0.363 0.0
H1244 H 0.51073 0.04211 0.36394 0.0
H1245 H 0.57678 0.07954 0.40321 0.0
H1246 H 0.79726 0.17829 0.3983 0.0
H1247 H 0.71947 0.13337 0.39849 0.0
C1248 C 0.43097 0.21379 0.13707 0.0
C1249 C 0.41645 0.18971 0.12571 0.0
C1250 C 0.45125 0.25867 0.13675 0.0
C1251 C 0.50706 0.35277 0.11549 0.0
H1252 H 0.4746 0.40873 0.14147 0.0
C1253 C 0.58181 0.53528 0.11532 0.0
C1254 C 0.60117 0.55454 0.12703 0.0
C1255 C 0.55134 0.49144 0.11476 0.0
C1256 C 0.48392 0.39352 0.13416 0.0
H1257 H 0.41332 0.19389 0.10505 0.0
H1258 H 0.44873 0.27229 0.10451 0.0
H1259 H 0.44054 0.33023 0.14123 0.0
H1260 H 0.60035 0.5441 0.14751 0.0
H1261 H 0.54742 0.46763 0.14652 0.0
H1262 H 0.55097 0.41593 0.10855 0.0
C1263 C 0.44457 0.25645 0.11365 0.0
C1264 C 0.46466 0.34865 0.13406 0.0
C1265 C 0.42432 0.21153 0.11397 0.0
C1266 C 0.58625 0.53016 0.13833 0.0
C1267 C 0.55579 0.48629 0.13776 0.0
C1268 C 0.52625 0.39757 0.11558 0.0
C1269 C 0.45741 0.28041 0.12507 0.0
C1270 C 0.47652 0.32787 0.12484 0.0
C1271 C 0.53964 0.46612 0.1259 0.0
C1272 C 0.51529 0.41846 0.12501 0.0
H1273 H 0.42552 0.19795 0.14627 0.0
H1274 H 0.46168 0.27633 0.14567 0.0
H1275 H 0.51719 0.33775 0.10835 0.0
H1276 H 0.59222 0.55333 0.10645 0.0
H1277 H 0.53864 0.4769 0.10552 0.0
C1278 C 0.78207 0.56553 0.3936 0.0
C1279 C 0.76928 0.57363 0.38169 0.0
C1280 C 0.80766 0.54631 0.39424 0.0
C1281 C 0.84369 0.48533 0.3926 0.0
H1282 H 0.93743 0.524 0.36816 0.0
C1283 C 0.95014 0.40926 0.39267 0.0
C1284 C 0.95224 0.39298 0.38061 0.0
C1285 C 0.93763 0.44033 0.39369 0.0
C1286 C 0.91144 0.51294 0.37505 0.0
H1287 H 0.77158 0.56605 0.36114 0.0
H1288 H 0.81565 0.53191 0.3623 0.0
H1289 H 0.89156 0.55646 0.36807 0.0
H1290 H 0.94803 0.40024 0.36013 0.0
H1291 H 0.92588 0.45392 0.36192 0.0
H1292 H 0.86253 0.44092 0.39934 0.0
C1293 C 0.8066 0.54124 0.37111 0.0
C1294 C 0.88506 0.53133 0.37496 0.0
C1295 C 0.78093 0.56032 0.37047 0.0
C1296 C 0.94632 0.41181 0.36957 0.0
C1297 C 0.93373 0.44278 0.3706 0.0
C1298 C 0.86997 0.46687 0.39267 0.0
C1299 C 0.82101 0.53492 0.38299 0.0
C1300 C 0.85043 0.51713 0.38358 0.0
C1301 C 0.92708 0.45567 0.38269 0.0
C1302 C 0.90367 0.47993 0.38375 0.0
H1303 H 0.77375 0.57552 0.40243 0.0
H1304 H 0.81832 0.54186 0.40353 0.0
H1305 H 0.81708 0.47354 0.39929 0.0
H1306 H 0.95504 0.3958 0.40136 0.0
H1307 H 0.93381 0.45049 0.40313 0.0
C1308 C 0.17255 0.77883 0.63374 0.0
C1309 C 0.20993 0.7993 0.62623 0.0
C1310 C 0.14539 0.73437 0.63306 0.0
C1311 C 0.12448 0.63686 0.61403 0.0
H1312 H 0.06139 0.57832 0.64466 0.0
C1313 C 0.03195 0.4523 0.61579 0.0
C1314 C 0.03705 0.43459 0.6272 0.0
C1315 C 0.04217 0.49544 0.61536 0.0
C1316 C 0.07902 0.59393 0.63603 0.0
H1317 H 0.2487 0.78995 0.61215 0.0
H1318 H 0.20341 0.71149 0.61173 0.0
H1319 H 0.10536 0.65571 0.64468 0.0
H1320 H 0.05319 0.44707 0.64735 0.0
H1321 H 0.07276 0.52182 0.64652 0.0
H1322 H 0.10152 0.5746 0.60585 0.0
C1323 C 0.19366 0.72972 0.61774 0.0
C1324 C 0.10382 0.63879 0.63594 0.0
C1325 C 0.22009 0.77462 0.61808 0.0
C1326 C 0.04897 0.45968 0.63838 0.0
C1327 C 0.06004 0.50286 0.6379 0.0
C1328 C 0.10072 0.59184 0.61426 0.0
C1329 C 0.1557 0.70892 0.62519 0.0
C1330 C 0.12745 0.66102 0.625 0.0
C1331 C 0.05848 0.52189 0.62627 0.0
C1332 C 0.0783 0.56966 0.62536 0.0
H1333 H 0.16347 0.79747 0.63984 0.0
H1334 H 0.11598 0.72026 0.63863 0.0
H1335 H 0.14104 0.65252 0.60528 0.0
H1336 H 0.02233 0.43358 0.60703 0.0
H1337 H 0.03912 0.50845 0.60632 0.0
C1338 C 0.41568 0.96172 0.86862 0.0
C1339 C 0.39475 0.96075 0.88009 0.0
C1340 C 0.44763 0.95029 0.86853 0.0
C1341 C 0.5144 0.92057 0.88866 0.0
H1342 H 0.48064 0.83025 0.86326 0.0
C1343 C 0.56859 0.79343 0.89131 0.0
C1344 C 0.58058 0.78234 0.87974 0.0
C1345 C 0.5492 0.81898 0.8913 0.0
C1346 C 0.49102 0.85577 0.87029 0.0
H1347 H 0.39484 0.95267 0.90068 0.0
H1348 H 0.45029 0.93239 0.90049 0.0
H1349 H 0.44732 0.87483 0.86312 0.0
H1350 H 0.58097 0.78878 0.85906 0.0
H1351 H 0.54768 0.83342 0.85906 0.0
H1352 H 0.55777 0.90082 0.89592 0.0
C1353 C 0.44198 0.94178 0.89156 0.0
C1354 C 0.47205 0.88152 0.87017 0.0
C1355 C 0.4101 0.95339 0.89166 0.0
C1356 C 0.57184 0.79642 0.86816 0.0
C1357 C 0.55268 0.82203 0.86815 0.0
C1358 C 0.53361 0.89484 0.88874 0.0
C1359 C 0.45915 0.93765 0.8799 0.0
C1360 C 0.48327 0.91401 0.87939 0.0
C1361 C 0.54151 0.83398 0.87971 0.0
C1362 C 0.52184 0.86192 0.87961 0.0
H1363 H 0.40506 0.96794 0.85957 0.0
H1364 H 0.46121 0.9485 0.85944 0.0
H1365 H 0.52369 0.9454 0.89586 0.0
H1366 H 0.57499 0.78317 0.9004 0.0
H1367 H 0.54029 0.82702 0.90036 0.0
C1368 C 0.53848 0.57916 0.61516 0.0
C1369 C 0.55719 0.59813 0.62696 0.0
C1370 C 0.49473 0.54845 0.61444 0.0
C1371 C 0.39561 0.48116 0.63348 0.0
H1372 H 0.34247 0.51836 0.60794 0.0
C1373 C 0.21727 0.43376 0.63645 0.0
C1374 C 0.19324 0.42033 0.62505 0.0
C1375 C 0.26207 0.45286 0.63615 0.0
C1376 C 0.35672 0.50712 0.615 0.0
H1377 H 0.54612 0.59584 0.64744 0.0
H1378 H 0.46989 0.54255 0.64617 0.0
H1379 H 0.42038 0.54987 0.6082 0.0
H1380 H 0.19753 0.41814 0.60437 0.0
H1381 H 0.27573 0.4515 0.60387 0.0
H1382 H 0.33182 0.43903 0.64044 0.0
C1383 C 0.48881 0.55146 0.63746 0.0
C1384 C 0.40138 0.52499 0.61512 0.0
C1385 C 0.53258 0.58213 0.63819 0.0
C1386 C 0.21511 0.42829 0.61332 0.0
C1387 C 0.25994 0.44736 0.61303 0.0
C1388 C 0.35088 0.46323 0.63336 0.0
C1389 C 0.46901 0.53612 0.6255 0.0
C1390 C 0.42137 0.51266 0.62446 0.0
C1391 C 0.28378 0.45893 0.62446 0.0
C1392 C 0.33105 0.47655 0.62424 0.0
H1393 H 0.55673 0.59034 0.60635 0.0
H1394 H 0.48049 0.53632 0.60513 0.0
H1395 H 0.41009 0.47081 0.64074 0.0
H1396 H 0.20141 0.4282 0.64565 0.0
H1397 H 0.27968 0.46237 0.6451 0.0
C1398 C 0.21326 0.77928 0.89458 0.0
C1399 C 0.2277 0.80011 0.88271 0.0
C1400 C 0.18749 0.73446 0.89517 0.0
C1401 C 0.11151 0.64371 0.87528 0.0
H1402 H 0.12781 0.57286 0.90014 0.0
C1403 C 0.04622 0.4625 0.86945 0.0
C1404 C 0.03804 0.43707 0.88046 0.0
C1405 C 0.05982 0.50628 0.87056 0.0
C1406 C 0.12211 0.59225 0.89332 0.0
H1407 H 0.22893 0.79011 0.86225 0.0
H1408 H 0.18454 0.712 0.86333 0.0
H1409 H 0.17519 0.65074 0.9005 0.0
H1410 H 0.03213 0.4361 0.90116 0.0
H1411 H 0.05512 0.51239 0.90305 0.0
H1412 H 0.05894 0.58518 0.86794 0.0
C1413 C 0.1923 0.73039 0.87213 0.0
C1414 C 0.1495 0.63683 0.89349 0.0
C1415 C 0.21812 0.77509 0.87154 0.0
C1416 C 0.03888 0.45504 0.8925 0.0
C1417 C 0.05234 0.4988 0.8936 0.0
C1418 C 0.08402 0.59914 0.87514 0.0
C1419 C 0.17568 0.70979 0.8839 0.0
C1420 C 0.14505 0.66286 0.88429 0.0
C1421 C 0.06518 0.52528 0.8827 0.0
C1422 C 0.08958 0.57284 0.88399 0.0
H1423 H 0.22003 0.79766 0.90336 0.0
H1424 H 0.17518 0.71934 0.90437 0.0
H1425 H 0.10678 0.66319 0.86825 0.0
H1426 H 0.04558 0.44955 0.86003 0.0
H1427 H 0.06945 0.52577 0.86196 0.0
C1428 C 0.40421 0.93949 0.63858 0.0
C1429 C 0.38915 0.94927 0.62737 0.0
C1430 C 0.43489 0.92639 0.63788 0.0
C1431 C 0.46521 0.86873 0.61529 0.0
H1432 H 0.55025 0.88574 0.64102 0.0
C1433 C 0.56673 0.78407 0.61334 0.0
C1434 C 0.57405 0.76938 0.62503 0.0
C1435 C 0.54683 0.80909 0.61311 0.0
C1436 C 0.52634 0.88043 0.63382 0.0
H1437 H 0.39815 0.95796 0.60681 0.0
H1438 H 0.45215 0.93571 0.60564 0.0
H1439 H 0.51604 0.93001 0.64151 0.0
H1440 H 0.56443 0.76772 0.64558 0.0
H1441 H 0.5289 0.81052 0.64512 0.0
H1442 H 0.47463 0.8185 0.60778 0.0
C1443 C 0.43935 0.93702 0.61492 0.0
C1444 C 0.50697 0.90594 0.63406 0.0
C1445 C 0.40865 0.95007 0.61562 0.0
C1446 C 0.55941 0.77866 0.63641 0.0
C1447 C 0.53949 0.8036 0.63617 0.0
C1448 C 0.48452 0.84322 0.61506 0.0
C1449 C 0.45117 0.92301 0.62596 0.0
C1450 C 0.47577 0.89997 0.6249 0.0
C1451 C 0.53379 0.81985 0.62455 0.0
C1452 C 0.5148 0.84834 0.62443 0.0
H1453 H 0.39 0.93877 0.6478 0.0
H1454 H 0.44332 0.91581 0.64656 0.0
H1455 H 0.44065 0.8627 0.60824 0.0
H1456 H 0.57785 0.77768 0.6044 0.0
H1457 H 0.54303 0.82126 0.604 0.0
C1458 C 0.5366 0.58222 0.88875 0.0
C1459 C 0.55433 0.60731 0.8777 0.0
C1460 C 0.49315 0.55003 0.88902 0.0
C1461 C 0.3941 0.49377 0.86831 0.0
H1462 H 0.33622 0.48684 0.90028 0.0
C1463 C 0.20945 0.39597 0.87149 0.0
C1464 C 0.18838 0.40955 0.88 0.0
C1465 C 0.25414 0.41476 0.87177 0.0
C1466 C 0.35166 0.48887 0.8912 0.0
H1467 H 0.54123 0.6166 0.85805 0.0
H1468 H 0.46589 0.56271 0.85867 0.0
H1469 H 0.4141 0.52724 0.89938 0.0
H1470 H 0.19681 0.45321 0.89545 0.0
H1471 H 0.27548 0.48906 0.89527 0.0
H1472 H 0.332 0.45921 0.8598 0.0
C1473 C 0.48514 0.56639 0.86707 0.0
C1474 C 0.39669 0.5113 0.89075 0.0
C1475 C 0.52864 0.59772 0.8667 0.0
C1476 C 0.21263 0.4425 0.88876 0.0
C1477 C 0.25767 0.46251 0.88874 0.0
C1478 C 0.34919 0.47256 0.86866 0.0
C1479 C 0.46635 0.54298 0.87835 0.0
C1480 C 0.41861 0.51464 0.87924 0.0
C1481 C 0.27913 0.44875 0.88027 0.0
C1482 C 0.32718 0.47008 0.88008 0.0
H1483 H 0.55578 0.58869 0.89735 0.0
H1484 H 0.48032 0.53184 0.89777 0.0
H1485 H 0.40951 0.49453 0.85933 0.0
H1486 H 0.19117 0.36973 0.86487 0.0
H1487 H 0.26883 0.402 0.86539 0.0
loop_
_geom_bond_atom_site_label_1
_geom_bond_atom_site_label_2
_geom_bond_distance
_geom_bond_site_symmetry_2
_ccdc_geom_bond_type
C0 O16 1.251 . S
C0 O18 1.254 . S
N1 C2 1.333 . S
N1 C6 1.307 . S
N1 Zn7 2.020 . S
C2 N1 1.333 . S
C2 C3 1.379 . S
C2 H20 0.952 . S
C3 C2 1.379 . S
C3 C4 1.390 . S
C3 H30 0.949 . S
C4 C3 1.390 . S
C4 C5 1.357 . S
C5 C4 1.357 . S
C5 C6 1.370 . S
C5 H31 0.950 . S
C6 N1 1.307 . S
C6 C5 1.370 . S
C6 H24 0.948 . S
Zn7 N1 2.020 . S
Zn7 O16 2.039 . S
Zn7 O22 2.034 . S
Zn7 O26 2.025 . S
Zn7 O28 2.024 . S
C8 O27 1.246 . S
C8 O28 1.249 . S
N9 C10 1.307 . S
N9 C11 1.333 . S
N9 Zn15 2.020 . S
C10 N9 1.307 . S
C10 C14 1.370 . S
C10 H21 0.948 . S
C11 N9 1.333 . S
C11 C12 1.379 . S
C11 H19 0.952 . S
C12 C11 1.379 . S
C12 C13 1.390 . S
C12 H32 0.949 . S
C13 C12 1.390 . S
C13 C14 1.357 . S
C14 C10 1.370 . S
C14 C13 1.357 . S
C14 H33 0.950 . S
Zn15 N9 2.020 . S
Zn15 O18 2.025 . S
Zn15 O23 2.024 . S
Zn15 O25 2.039 . S
Zn15 O27 2.034 . S
O16 C0 1.251 . S
O16 Zn7 2.039 . S
C17 O22 1.246 . S
C17 O23 1.249 . S
O18 C0 1.254 . S
O18 Zn15 2.025 . S
H19 C11 0.952 . S
H20 C2 0.952 . S
H21 C10 0.948 . S
O22 Zn7 2.034 . S
O22 C17 1.246 . S
O23 Zn15 2.024 . S
O23 C17 1.249 . S
H24 C6 0.948 . S
O25 Zn15 2.039 . S
O25 C29 1.251 . S
O26 Zn7 2.025 . S
O26 C29 1.254 . S
O27 C8 1.246 . S
O27 Zn15 2.034 . S
O28 Zn7 2.024 . S
O28 C8 1.249 . S
C29 O25 1.251 . S
C29 O26 1.254 . S
H30 C3 0.949 . S
H31 C5 0.950 . S
H32 C12 0.949 . S
H33 C14 0.950 . S
C34 O50 1.251 . S
C34 O52 1.254 . S
N35 C36 1.333 . S
N35 C40 1.307 . S
N35 Zn41 2.020 . S
C36 N35 1.333 . S
C36 C37 1.379 . S
C36 H54 0.952 . S
C37 C36 1.379 . S
C37 C38 1.390 . S
C37 H64 0.949 . S
C38 C37 1.390 . S
C38 C39 1.357 . S
C39 C38 1.357 . S
C39 C40 1.370 . S
C39 H65 0.950 . S
C40 N35 1.307 . S
C40 C39 1.370 . S
C40 H58 0.948 . S
Zn41 N35 2.020 . S
Zn41 O50 2.039 . S
Zn41 O56 2.034 . S
Zn41 O60 2.025 . S
Zn41 O62 2.024 . S
C42 O61 1.246 . S
C42 O62 1.249 . S
N43 C44 1.307 . S
N43 C45 1.333 . S
N43 Zn49 2.020 . S
C44 N43 1.307 . S
C44 C48 1.370 . S
C44 H55 0.948 . S
C45 N43 1.333 . S
C45 C46 1.379 . S
C45 H53 0.952 . S
C46 C45 1.379 . S
C46 C47 1.390 . S
C46 H66 0.949 . S
C47 C46 1.390 . S
C47 C48 1.357 . S
C48 C44 1.370 . S
C48 C47 1.357 . S
C48 H67 0.950 . S
Zn49 N43 2.020 . S
Zn49 O52 2.025 . S
Zn49 O57 2.024 . S
Zn49 O59 2.039 . S
Zn49 O61 2.034 . S
O50 C34 1.251 . S
O50 Zn41 2.039 . S
C51 O56 1.246 . S
C51 O57 1.249 . S
O52 C34 1.254 . S
O52 Zn49 2.025 . S
H53 C45 0.952 . S
H54 C36 0.952 . S
H55 C44 0.948 . S
O56 Zn41 2.034 . S
O56 C51 1.246 . S
O57 Zn49 2.024 . S
O57 C51 1.249 . S
H58 C40 0.948 . S
O59 Zn49 2.039 . S
O59 C63 1.251 . S
O60 Zn41 2.025 . S
O60 C63 1.254 . S
O61 C42 1.246 . S
O61 Zn49 2.034 . S
O62 Zn41 2.024 . S
O62 C42 1.249 . S
C63 O59 1.251 . S
C63 O60 1.254 . S
H64 C37 0.949 . S
H65 C39 0.950 . S
H66 C46 0.949 . S
H67 C48 0.950 . S
C68 O84 1.251 . S
C68 O86 1.254 . S
N69 C70 1.333 . S
N69 C74 1.307 . S
N69 Zn75 2.020 . S
C70 N69 1.333 . S
C70 C71 1.379 . S
C70 H88 0.952 . S
C71 C70 1.379 . S
C71 C72 1.390 . S
C71 H98 0.949 . S
C72 C71 1.390 . S
C72 C73 1.357 . S
C73 C72 1.357 . S
C73 C74 1.370 . S
C73 H99 0.950 . S
C74 N69 1.307 . S
C74 C73 1.370 . S
C74 H92 0.948 . S
Zn75 N69 2.020 . S
Zn75 O84 2.039 . S
Zn75 O90 2.034 . S
Zn75 O94 2.025 . S
Zn75 O96 2.024 . S
C76 O95 1.246 . S
C76 O96 1.249 . S
N77 C78 1.307 . S
N77 C79 1.333 . S
N77 Zn83 2.020 . S
C78 N77 1.307 . S
C78 C82 1.370 . S
C78 H89 0.948 . S
C79 N77 1.333 . S
C79 C80 1.379 . S
C79 H87 0.952 . S
C80 C79 1.379 . S
C80 C81 1.390 . S
C80 H100 0.949 . S
C81 C80 1.390 . S
C81 C82 1.357 . S
C82 C78 1.370 . S
C82 C81 1.357 . S
C82 H101 0.950 . S
Zn83 N77 2.020 . S
Zn83 O86 2.025 . S
Zn83 O91 2.024 . S
Zn83 O93 2.039 . S
Zn83 O95 2.034 . S
O84 C68 1.251 . S
O84 Zn75 2.039 . S
C85 O90 1.246 . S
C85 O91 1.249 . S
O86 C68 1.254 . S
O86 Zn83 2.025 . S
H87 C79 0.952 . S
H88 C70 0.952 . S
H89 C78 0.948 . S
O90 Zn75 2.034 . S
O90 C85 1.246 . S
O91 Zn83 2.024 . S
O91 C85 1.249 . S
H92 C74 0.948 . S
O93 Zn83 2.039 . S
O93 C97 1.251 . S
O94 Zn75 2.025 . S
O94 C97 1.254 . S
O95 C76 1.246 . S
O95 Zn83 2.034 . S
O96 Zn75 2.024 . S
O96 C76 1.249 . S
C97 O93 1.251 . S
C97 O94 1.254 . S
H98 C71 0.949 . S
H99 C73 0.950 . S
H100 C80 0.949 . S
H101 C82 0.950 . S
C102 O118 1.251 . S
C102 O120 1.254 . S
N103 C104 1.333 . S
N103 C108 1.307 . S
N103 Zn109 2.020 . S
C104 N103 1.333 . S
C104 C105 1.379 . S
C104 H122 0.952 . S
C105 C104 1.379 . S
C105 C106 1.390 . S
C105 H132 0.949 . S
C106 C105 1.390 . S
C106 C107 1.357 . S
C107 C106 1.357 . S
C107 C108 1.370 . S
C107 H133 0.950 . S
C108 N103 1.307 . S
C108 C107 1.370 . S
C108 H126 0.948 . S
Zn109 N103 2.020 . S
Zn109 O118 2.039 . S
Zn109 O124 2.034 . S
Zn109 O128 2.025 . S
Zn109 O130 2.024 . S
C110 O129 1.246 . S
C110 O130 1.249 . S
N111 C112 1.307 . S
N111 C113 1.333 . S
N111 Zn117 2.020 . S
C112 N111 1.307 . S
C112 C116 1.370 . S
C112 H123 0.948 . S
C113 N111 1.333 . S
C113 C114 1.379 . S
C113 H121 0.952 . S
C114 C113 1.379 . S
C114 C115 1.390 . S
C114 H134 0.949 . S
C115 C114 1.390 . S
C115 C116 1.357 . S
C116 C112 1.370 . S
C116 C115 1.357 . S
C116 H135 0.950 . S
Zn117 N111 2.020 . S
Zn117 O120 2.025 . S
Zn117 O125 2.024 . S
Zn117 O127 2.039 . S
Zn117 O129 2.034 . S
O118 C102 1.251 . S
O118 Zn109 2.039 . S
C119 O124 1.246 . S
C119 O125 1.249 . S
O120 C102 1.254 . S
O120 Zn117 2.025 . S
H121 C113 0.952 . S
H122 C104 0.952 . S
H123 C112 0.948 . S
O124 Zn109 2.034 . S
O124 C119 1.246 . S
O125 Zn117 2.024 . S
O125 C119 1.249 . S
H126 C108 0.948 . S
O127 Zn117 2.039 . S
O127 C131 1.251 . S
O128 Zn109 2.025 . S
O128 C131 1.254 . S
O129 C110 1.246 . S
O129 Zn117 2.034 . S
O130 Zn109 2.024 . S
O130 C110 1.249 . S
C131 O127 1.251 . S
C131 O128 1.254 . S
H132 C105 0.949 . S
H133 C107 0.950 . S
H134 C114 0.949 . S
H135 C116 0.950 . S
C136 O152 1.251 . S
C136 O154 1.254 . S
N137 C138 1.333 . S
N137 C142 1.307 . S
N137 Zn143 2.020 . S
C138 N137 1.333 . S
C138 C139 1.379 . S
C138 H156 0.952 . S
C139 C138 1.379 . S
C139 C140 1.390 . S
C139 H166 0.949 . S
C140 C139 1.390 . S
C140 C141 1.357 . S
C141 C140 1.357 . S
C141 C142 1.370 . S
C141 H167 0.950 . S
C142 N137 1.307 . S
C142 C141 1.370 . S
C142 H160 0.948 . S
Zn143 N137 2.020 . S
Zn143 O152 2.039 . S
Zn143 O158 2.034 . S
Zn143 O162 2.025 . S
Zn143 O164 2.024 . S
C144 O163 1.246 . S
C144 O164 1.249 . S
N145 C146 1.307 . S
N145 C147 1.333 . S
N145 Zn151 2.020 . S
C146 N145 1.307 . S
C146 C150 1.370 . S
C146 H157 0.948 . S
C147 N145 1.333 . S
C147 C148 1.379 . S
C147 H155 0.952 . S
C148 C147 1.379 . S
C148 C149 1.390 . S
C148 H168 0.949 . S
C149 C148 1.390 . S
C149 C150 1.357 . S
C150 C146 1.370 . S
C150 C149 1.357 . S
C150 H169 0.950 . S
Zn151 N145 2.020 . S
Zn151 O154 2.025 . S
Zn151 O159 2.024 . S
Zn151 O161 2.039 . S
Zn151 O163 2.034 . S
O152 C136 1.251 . S
O152 Zn143 2.039 . S
C153 O158 1.246 . S
C153 O159 1.249 . S
O154 C136 1.254 . S
O154 Zn151 2.025 . S
H155 C147 0.952 . S
H156 C138 0.952 . S
H157 C146 0.948 . S
O158 Zn143 2.034 . S
O158 C153 1.246 . S
O159 Zn151 2.024 . S
O159 C153 1.249 . S
H160 C142 0.948 . S
O161 Zn151 2.039 . S
O161 C165 1.251 . S
O162 Zn143 2.025 . S
O162 C165 1.254 . S
O163 C144 1.246 . S
O163 Zn151 2.034 . S
O164 Zn143 2.024 . S
O164 C144 1.249 . S
C165 O161 1.251 . S
C165 O162 1.254 . S
H166 C139 0.949 . S
H167 C141 0.950 . S
H168 C148 0.949 . S
H169 C150 0.950 . S
C170 O186 1.251 . S
C170 O188 1.254 . S
N171 C172 1.333 . S
N171 C176 1.307 . S
N171 Zn177 2.020 . S
C172 N171 1.333 . S
C172 C173 1.379 . S
C172 H190 0.952 . S
C173 C172 1.379 . S
C173 C174 1.390 . S
C173 H200 0.949 . S
C174 C173 1.390 . S
C174 C175 1.357 . S
C175 C174 1.357 . S
C175 C176 1.370 . S
C175 H201 0.950 . S
C176 N171 1.307 . S
C176 C175 1.370 . S
C176 H194 0.948 . S
Zn177 N171 2.020 . S
Zn177 O186 2.039 . S
Zn177 O192 2.034 . S
Zn177 O196 2.025 . S
Zn177 O198 2.024 . S
C178 O197 1.246 . S
C178 O198 1.249 . S
N179 C180 1.307 . S
N179 C181 1.333 . S
N179 Zn185 2.020 . S
C180 N179 1.307 . S
C180 C184 1.370 . S
C180 H191 0.948 . S
C181 N179 1.333 . S
C181 C182 1.379 . S
C181 H189 0.952 . S
C182 C181 1.379 . S
C182 C183 1.390 . S
C182 H202 0.949 . S
C183 C182 1.390 . S
C183 C184 1.357 . S
C184 C180 1.370 . S
C184 C183 1.357 . S
C184 H203 0.950 . S
Zn185 N179 2.020 . S
Zn185 O188 2.025 . S
Zn185 O193 2.024 . S
Zn185 O195 2.039 . S
Zn185 O197 2.034 . S
O186 C170 1.251 . S
O186 Zn177 2.039 . S
C187 O192 1.246 . S
C187 O193 1.249 . S
O188 C170 1.254 . S
O188 Zn185 2.025 . S
H189 C181 0.952 . S
H190 C172 0.952 . S
H191 C180 0.948 . S
O192 Zn177 2.034 . S
O192 C187 1.246 . S
O193 Zn185 2.024 . S
O193 C187 1.249 . S
H194 C176 0.948 . S
O195 Zn185 2.039 . S
O195 C199 1.251 . S
O196 Zn177 2.025 . S
O196 C199 1.254 . S
O197 C178 1.246 . S
O197 Zn185 2.034 . S
O198 Zn177 2.024 . S
O198 C178 1.249 . S
C199 O195 1.251 . S
C199 O196 1.254 . S
H200 C173 0.949 . S
H201 C175 0.950 . S
H202 C182 0.949 . S
H203 C184 0.950 . S
C204 O220 1.251 . S
C204 O222 1.254 . S
N205 C206 1.333 . S
N205 C210 1.307 . S
N205 Zn211 2.020 . S
C206 N205 1.333 . S
C206 C207 1.379 . S
C206 H224 0.952 . S
C207 C206 1.379 . S
C207 C208 1.390 . S
C207 H234 0.949 . S
C208 C207 1.390 . S
C208 C209 1.357 . S
C209 C208 1.357 . S
C209 C210 1.370 . S
C209 H235 0.950 . S
C210 N205 1.307 . S
C210 C209 1.370 . S
C210 H228 0.948 . S
Zn211 N205 2.020 . S
Zn211 O220 2.039 . S
Zn211 O226 2.034 . S
Zn211 O230 2.025 . S
Zn211 O232 2.024 . S
C212 O231 1.246 . S
C212 O232 1.249 . S
N213 C214 1.307 . S
N213 C215 1.333 . S
N213 Zn219 2.020 . S
C214 N213 1.307 . S
C214 C218 1.370 . S
C214 H225 0.948 . S
C215 N213 1.333 . S
C215 C216 1.379 . S
C215 H223 0.952 . S
C216 C215 1.379 . S
C216 C217 1.390 . S
C216 H236 0.949 . S
C217 C216 1.390 . S
C217 C218 1.357 . S
C218 C214 1.370 . S
C218 C217 1.357 . S
C218 H237 0.950 . S
Zn219 N213 2.020 . S
Zn219 O222 2.025 . S
Zn219 O227 2.024 . S
Zn219 O229 2.039 . S
Zn219 O231 2.034 . S
O220 C204 1.251 . S
O220 Zn211 2.039 . S
C221 O226 1.246 . S
C221 O227 1.249 . S
O222 C204 1.254 . S
O222 Zn219 2.025 . S
H223 C215 0.952 . S
H224 C206 0.952 . S
H225 C214 0.948 . S
O226 Zn211 2.034 . S
O226 C221 1.246 . S
O227 Zn219 2.024 . S
O227 C221 1.249 . S
H228 C210 0.948 . S
O229 Zn219 2.039 . S
O229 C233 1.251 . S
O230 Zn211 2.025 . S
O230 C233 1.254 . S
O231 C212 1.246 . S
O231 Zn219 2.034 . S
O232 Zn211 2.024 . S
O232 C212 1.249 . S
C233 O229 1.251 . S
C233 O230 1.254 . S
H234 C207 0.949 . S
H235 C209 0.950 . S
H236 C216 0.949 . S
H237 C218 0.950 . S
C238 O254 1.251 . S
C238 O256 1.254 . S
N239 C240 1.333 . S
N239 C244 1.307 . S
N239 Zn245 2.020 . S
C240 N239 1.333 . S
C240 C241 1.379 . S
C240 H258 0.952 . S
C241 C240 1.379 . S
C241 C242 1.390 . S
C241 H268 0.949 . S
C242 C241 1.390 . S
C242 C243 1.357 . S
C243 C242 1.357 . S
C243 C244 1.370 . S
C243 H269 0.950 . S
C244 N239 1.307 . S
C244 C243 1.370 . S
C244 H262 0.948 . S
Zn245 N239 2.020 . S
Zn245 O254 2.039 . S
Zn245 O260 2.034 . S
Zn245 O264 2.025 . S
Zn245 O266 2.024 . S
C246 O265 1.246 . S
C246 O266 1.249 . S
N247 C248 1.307 . S
N247 C249 1.333 . S
N247 Zn253 2.020 . S
C248 N247 1.307 . S
C248 C252 1.370 . S
C248 H259 0.948 . S
C249 N247 1.333 . S
C249 C250 1.379 . S
C249 H257 0.952 . S
C250 C249 1.379 . S
C250 C251 1.390 . S
C250 H270 0.949 . S
C251 C250 1.390 . S
C251 C252 1.357 . S
C252 C248 1.370 . S
C252 C251 1.357 . S
C252 H271 0.950 . S
Zn253 N247 2.020 . S
Zn253 O256 2.025 . S
Zn253 O261 2.024 . S
Zn253 O263 2.039 . S
Zn253 O265 2.034 . S
O254 C238 1.251 . S
O254 Zn245 2.039 . S
C255 O260 1.246 . S
C255 O261 1.249 . S
O256 C238 1.254 . S
O256 Zn253 2.025 . S
H257 C249 0.952 . S
H258 C240 0.952 . S
H259 C248 0.948 . S
O260 Zn245 2.034 . S
O260 C255 1.246 . S
O261 Zn253 2.024 . S
O261 C255 1.249 . S
H262 C244 0.948 . S
O263 Zn253 2.039 . S
O263 C267 1.251 . S
O264 Zn245 2.025 . S
O264 C267 1.254 . S
O265 C246 1.246 . S
O265 Zn253 2.034 . S
O266 Zn245 2.024 . S
O266 C246 1.249 . S
C267 O263 1.251 . S
C267 O264 1.254 . S
H268 C241 0.949 . S
H269 C243 0.950 . S
H270 C250 0.949 . S
H271 C252 0.950 . S
C272 O288 1.251 . S
C272 O290 1.254 . S
N273 C274 1.333 . S
N273 C278 1.307 . S
N273 Zn279 2.020 . S
C274 N273 1.333 . S
C274 C275 1.379 . S
C274 H292 0.952 . S
C275 C274 1.379 . S
C275 C276 1.390 . S
C275 H302 0.949 . S
C276 C275 1.390 . S
C276 C277 1.357 . S
C277 C276 1.357 . S
C277 C278 1.370 . S
C277 H303 0.950 . S
C278 N273 1.307 . S
C278 C277 1.370 . S
C278 H296 0.948 . S
Zn279 N273 2.020 . S
Zn279 O288 2.039 . S
Zn279 O294 2.034 . S
Zn279 O298 2.025 . S
Zn279 O300 2.024 . S
C280 O299 1.246 . S
C280 O300 1.249 . S
N281 C282 1.307 . S
N281 C283 1.333 . S
N281 Zn287 2.020 . S
C282 N281 1.307 . S
C282 C286 1.370 . S
C282 H293 0.948 . S
C283 N281 1.333 . S
C283 C284 1.379 . S
C283 H291 0.952 . S
C284 C283 1.379 . S
C284 C285 1.390 . S
C284 H304 0.949 . S
C285 C284 1.390 . S
C285 C286 1.357 . S
C286 C282 1.370 . S
C286 C285 1.357 . S
C286 H305 0.950 . S
Zn287 N281 2.020 . S
Zn287 O290 2.025 . S
Zn287 O295 2.024 . S
Zn287 O297 2.039 . S
Zn287 O299 2.034 . S
O288 C272 1.251 . S
O288 Zn279 2.039 . S
C289 O294 1.246 . S
C289 O295 1.249 . S
O290 C272 1.254 . S
O290 Zn287 2.025 . S
H291 C283 0.952 . S
H292 C274 0.952 . S
H293 C282 0.948 . S
O294 Zn279 2.034 . S
O294 C289 1.246 . S
O295 Zn287 2.024 . S
O295 C289 1.249 . S
H296 C278 0.948 . S
O297 Zn287 2.039 . S
O297 C301 1.251 . S
O298 Zn279 2.025 . S
O298 C301 1.254 . S
O299 C280 1.246 . S
O299 Zn287 2.034 . S
O300 Zn279 2.024 . S
O300 C280 1.249 . S
C301 O297 1.251 . S
C301 O298 1.254 . S
H302 C275 0.949 . S
H303 C277 0.950 . S
H304 C284 0.949 . S
H305 C286 0.950 . S
C306 O322 1.251 . S
C306 O324 1.254 . S
N307 C308 1.333 . S
N307 C312 1.307 . S
N307 Zn313 2.020 . S
C308 N307 1.333 . S
C308 C309 1.379 . S
C308 H326 0.952 . S
C309 C308 1.379 . S
C309 C310 1.390 . S
C309 H336 0.949 . S
C310 C309 1.390 . S
C310 C311 1.357 . S
C311 C310 1.357 . S
C311 C312 1.370 . S
C311 H337 0.950 . S
C312 N307 1.307 . S
C312 C311 1.370 . S
C312 H330 0.948 . S
Zn313 N307 2.020 . S
Zn313 O322 2.039 . S
Zn313 O328 2.034 . S
Zn313 O332 2.025 . S
Zn313 O334 2.024 . S
C314 O333 1.246 . S
C314 O334 1.249 . S
N315 C316 1.307 . S
N315 C317 1.333 . S
N315 Zn321 2.020 . S
C316 N315 1.307 . S
C316 C320 1.370 . S
C316 H327 0.948 . S
C317 N315 1.333 . S
C317 C318 1.379 . S
C317 H325 0.952 . S
C318 C317 1.379 . S
C318 C319 1.390 . S
C318 H338 0.949 . S
C319 C318 1.390 . S
C319 C320 1.357 . S
C320 C316 1.370 . S
C320 C319 1.357 . S
C320 H339 0.950 . S
Zn321 N315 2.020 . S
Zn321 O324 2.025 . S
Zn321 O329 2.024 . S
Zn321 O331 2.039 . S
Zn321 O333 2.034 . S
O322 C306 1.251 . S
O322 Zn313 2.039 . S
C323 O328 1.246 . S
C323 O329 1.249 . S
O324 C306 1.254 . S
O324 Zn321 2.025 . S
H325 C317 0.952 . S
H326 C308 0.952 . S
H327 C316 0.948 . S
O328 Zn313 2.034 . S
O328 C323 1.246 . S
O329 Zn321 2.024 . S
O329 C323 1.249 . S
H330 C312 0.948 . S
O331 Zn321 2.039 . S
O331 C335 1.251 . S
O332 Zn313 2.025 . S
O332 C335 1.254 . S
O333 C314 1.246 . S
O333 Zn321 2.034 . S
O334 Zn313 2.024 . S
O334 C314 1.249 . S
C335 O331 1.251 . S
C335 O332 1.254 . S
H336 C309 0.949 . S
H337 C311 0.950 . S
H338 C318 0.949 . S
H339 C320 0.950 . S
C340 O356 1.251 . S
C340 O358 1.254 . S
N341 C342 1.333 . S
N341 C346 1.307 . S
N341 Zn347 2.020 . S
C342 N341 1.333 . S
C342 C343 1.379 . S
C342 H360 0.952 . S
C343 C342 1.379 . S
C343 C344 1.390 . S
C343 H370 0.949 . S
C344 C343 1.390 . S
C344 C345 1.357 . S
C345 C344 1.357 . S
C345 C346 1.370 . S
C345 H371 0.950 . S
C346 N341 1.307 . S
C346 C345 1.370 . S
C346 H364 0.948 . S
Zn347 N341 2.020 . S
Zn347 O356 2.039 . S
Zn347 O362 2.034 . S
Zn347 O366 2.025 . S
Zn347 O368 2.024 . S
C348 O367 1.246 . S
C348 O368 1.249 . S
N349 C350 1.307 . S
N349 C351 1.333 . S
N349 Zn355 2.020 . S
C350 N349 1.307 . S
C350 C354 1.370 . S
C350 H361 0.948 . S
C351 N349 1.333 . S
C351 C352 1.379 . S
C351 H359 0.952 . S
C352 C351 1.379 . S
C352 C353 1.390 . S
C352 H372 0.949 . S
C353 C352 1.390 . S
C353 C354 1.357 . S
C354 C350 1.370 . S
C354 C353 1.357 . S
C354 H373 0.950 . S
Zn355 N349 2.020 . S
Zn355 O358 2.025 . S
Zn355 O363 2.024 . S
Zn355 O365 2.039 . S
Zn355 O367 2.034 . S
O356 C340 1.251 . S
O356 Zn347 2.039 . S
C357 O362 1.246 . S
C357 O363 1.249 . S
O358 C340 1.254 . S
O358 Zn355 2.025 . S
H359 C351 0.952 . S
H360 C342 0.952 . S
H361 C350 0.948 . S
O362 Zn347 2.034 . S
O362 C357 1.246 . S
O363 Zn355 2.024 . S
O363 C357 1.249 . S
H364 C346 0.948 . S
O365 Zn355 2.039 . S
O365 C369 1.251 . S
O366 Zn347 2.025 . S
O366 C369 1.254 . S
O367 C348 1.246 . S
O367 Zn355 2.034 . S
O368 Zn347 2.024 . S
O368 C348 1.249 . S
C369 O365 1.251 . S
C369 O366 1.254 . S
H370 C343 0.949 . S
H371 C345 0.950 . S
H372 C352 0.949 . S
H373 C354 0.950 . S
C374 O390 1.251 . S
C374 O392 1.254 . S
N375 C376 1.333 . S
N375 C380 1.307 . S
N375 Zn381 2.020 . S
C376 N375 1.333 . S
C376 C377 1.379 . S
C376 H394 0.952 . S
C377 C376 1.379 . S
C377 C378 1.390 . S
C377 H404 0.949 . S
C378 C377 1.390 . S
C378 C379 1.357 . S
C379 C378 1.357 . S
C379 C380 1.370 . S
C379 H405 0.950 . S
C380 N375 1.307 . S
C380 C379 1.370 . S
C380 H398 0.948 . S
Zn381 N375 2.020 . S
Zn381 O390 2.039 . S
Zn381 O396 2.034 . S
Zn381 O400 2.025 . S
Zn381 O402 2.024 . S
C382 O401 1.246 . S
C382 O402 1.249 . S
N383 C384 1.307 . S
N383 C385 1.333 . S
N383 Zn389 2.020 . S
C384 N383 1.307 . S
C384 C388 1.370 . S
C384 H395 0.948 . S
C385 N383 1.333 . S
C385 C386 1.379 . S
C385 H393 0.952 . S
C386 C385 1.379 . S
C386 C387 1.390 . S
C386 H406 0.949 . S
C387 C386 1.390 . S
C387 C388 1.357 . S
C388 C384 1.370 . S
C388 C387 1.357 . S
C388 H407 0.950 . S
Zn389 N383 2.020 . S
Zn389 O392 2.025 . S
Zn389 O397 2.024 . S
Zn389 O399 2.039 . S
Zn389 O401 2.034 . S
O390 C374 1.251 . S
O390 Zn381 2.039 . S
C391 O396 1.246 . S
C391 O397 1.249 . S
O392 C374 1.254 . S
O392 Zn389 2.025 . S
H393 C385 0.952 . S
H394 C376 0.952 . S
H395 C384 0.948 . S
O396 Zn381 2.034 . S
O396 C391 1.246 . S
O397 Zn389 2.024 . S
O397 C391 1.249 . S
H398 C380 0.948 . S
O399 Zn389 2.039 . S
O399 C403 1.251 . S
O400 Zn381 2.025 . S
O400 C403 1.254 . S
O401 C382 1.246 . S
O401 Zn389 2.034 . S
O402 Zn381 2.024 . S
O402 C382 1.249 . S
C403 O399 1.251 . S
C403 O400 1.254 . S
H404 C377 0.949 . S
H405 C379 0.950 . S
H406 C386 0.949 . S
H407 C388 0.950 . S
C408 C409 1.349 . S
C408 C410 1.327 1_655 S
C408 H433 0.950 . S
C409 C408 1.349 . S
C409 C425 1.349 . S
C410 C408 1.327 1_455 S
C410 C429 1.429 . S
C410 H434 0.950 . S
C411 C428 1.574 . S
C411 C430 1.368 . S
C411 H435 0.949 . S
H412 C416 0.949 . S
C413 C414 1.349 . S
C413 C415 1.327 . S
C413 H436 0.950 . S
C414 C413 1.349 . S
C414 C426 1.349 . S
C415 C413 1.327 . S
C415 C431 1.429 . S
C415 H437 0.950 . S
C416 H412 0.949 . S
C416 C424 1.574 . S
C416 C432 1.368 . S
H417 C425 0.950 . S
H418 C423 0.950 . S
H419 C424 0.949 . S
H420 C426 0.950 . S
H421 C427 0.950 . S
H422 C428 0.949 . S
C423 H418 0.950 . S
C423 C425 1.327 1_455 S
C423 C429 1.429 . S
C424 C416 1.574 . S
C424 H419 0.949 . S
C424 C430 1.368 . S
C425 C409 1.349 . S
C425 H417 0.950 . S
C425 C423 1.327 1_655 S
C426 C414 1.349 . S
C426 H420 0.950 . S
C426 C427 1.327 . S
C427 H421 0.950 . S
C427 C426 1.327 . S
C427 C431 1.429 . S
C428 C411 1.574 . S
C428 H422 0.949 . S
C428 C432 1.368 . S
C429 C410 1.429 . S
C429 C423 1.429 . S
C429 C430 1.523 . S
C430 C411 1.368 . S
C430 C424 1.368 . S
C430 C429 1.523 . S
C431 C415 1.429 . S
C431 C427 1.429 . S
C431 C432 1.523 . S
C432 C416 1.368 . S
C432 C428 1.368 . S
C432 C431 1.523 . S
H433 C408 0.950 . S
H434 C410 0.950 . S
H435 C411 0.949 . S
H436 C413 0.950 . S
H437 C415 0.950 . S
C438 C439 1.349 . S
C438 C440 1.327 1_545 S
C438 H463 0.950 . S
C439 C438 1.349 . S
C439 C455 1.349 . S
C440 C438 1.327 1_565 S
C440 C459 1.429 . S
C440 H464 0.950 . S
C441 C458 1.574 . S
C441 C460 1.368 . S
C441 H465 0.949 . S
H442 C446 0.949 . S
C443 C444 1.349 . S
C443 C445 1.327 . S
C443 H466 0.950 . S
C444 C443 1.349 . S
C444 C456 1.349 . S
C445 C443 1.327 . S
C445 C461 1.429 . S
C445 H467 0.950 . S
C446 H442 0.949 . S
C446 C454 1.574 . S
C446 C462 1.368 . S
H447 C455 0.950 . S
H448 C453 0.944 . S
H449 C454 0.949 . S
H450 C456 0.950 . S
H451 C457 0.950 . S
H452 C458 0.949 . S
C453 H448 0.944 . S
C453 C455 1.321 1_565 S
C453 C459 1.441 . S
C454 C446 1.574 . S
C454 H449 0.949 . S
C454 C460 1.368 . S
C455 C439 1.349 . S
C455 H447 0.950 . S
C455 C453 1.321 1_545 S
C456 C444 1.349 . S
C456 H450 0.950 . S
C456 C457 1.327 . S
C457 H451 0.950 . S
C457 C456 1.327 . S
C457 C461 1.429 . S
C458 C441 1.574 . S
C458 H452 0.949 . S
C458 C462 1.368 . S
C459 C440 1.429 . S
C459 C453 1.441 . S
C459 C460 1.523 . S
C460 C441 1.368 . S
C460 C454 1.368 . S
C460 C459 1.523 . S
C461 C445 1.429 . S
C461 C457 1.429 . S
C461 C462 1.523 1_655 S
C462 C446 1.368 . S
C462 C458 1.368 . S
C462 C461 1.523 1_455 S
H463 C438 0.950 . S
H464 C440 0.950 . S
H465 C441 0.949 . S
H466 C443 0.950 . S
H467 C445 0.950 . S
C468 C469 1.349 . S
C468 C470 1.327 . S
C468 H493 0.950 . S
C469 C468 1.349 . S
C469 C485 1.349 . S
C470 C468 1.327 . S
C470 C489 1.429 . S
C470 H494 0.950 . S
C471 C488 1.574 . S
C471 C490 1.368 . S
C471 H495 0.949 . S
H472 C476 0.949 . S
C473 C474 1.349 . S
C473 C475 1.327 . S
C473 H496 0.950 . S
C474 C473 1.349 . S
C474 C486 1.349 . S
C475 C473 1.327 . S
C475 C491 1.429 . S
C475 H497 0.950 . S
C476 H472 0.949 . S
C476 C484 1.574 . S
C476 C492 1.368 . S
H477 C485 0.950 . S
H478 C483 0.950 . S
H479 C484 0.949 . S
H480 C486 0.950 . S
H481 C487 0.950 . S
H482 C488 0.949 . S
C483 H478 0.950 . S
C483 C485 1.327 . S
C483 C489 1.429 . S
C484 C476 1.574 . S
C484 H479 0.949 . S
C484 C490 1.368 . S
C485 C469 1.349 . S
C485 H477 0.950 . S
C485 C483 1.327 . S
C486 C474 1.349 . S
C486 H480 0.950 . S
C486 C487 1.327 . S
C487 H481 0.950 . S
C487 C486 1.327 . S
C487 C491 1.429 . S
C488 C471 1.574 . S
C488 H482 0.949 . S
C488 C492 1.368 . S
C489 C470 1.429 . S
C489 C483 1.429 . S
C489 C490 1.523 1_545 S
C490 C471 1.368 . S
C490 C484 1.368 . S
C490 C489 1.523 1_565 S
C491 C475 1.429 . S
C491 C487 1.429 . S
C491 C492 1.523 . S
C492 C476 1.368 . S
C492 C488 1.368 . S
C492 C491 1.523 . S
H493 C468 0.950 . S
H494 C470 0.950 . S
H495 C471 0.949 . S
H496 C473 0.950 . S
H497 C475 0.950 . S
C498 C499 1.349 . S
C498 C500 1.327 . S
C498 H523 0.950 . S
C499 C498 1.349 . S
C499 C515 1.349 . S
C500 C498 1.327 . S
C500 C519 1.429 . S
C500 H524 0.950 . S
C501 C518 1.574 . S
C501 C520 1.368 . S
C501 H525 0.949 . S
H502 C506 0.949 . S
C503 C504 1.349 . S
C503 C505 1.327 1_655 S
C503 H526 0.950 . S
C504 C503 1.349 . S
C504 C516 1.349 . S
C505 C503 1.327 1_455 S
C505 C521 1.429 . S
C505 H527 0.950 . S
C506 H502 0.949 . S
C506 C514 1.574 . S
C506 C522 1.368 . S
H507 C515 0.950 . S
H508 C513 0.950 . S
H509 C514 0.949 . S
H510 C516 0.950 . S
H511 C517 0.961 . S
H512 C518 0.949 . S
C513 H508 0.950 . S
C513 C515 1.327 . S
C513 C519 1.429 . S
C514 C506 1.574 . S
C514 H509 0.949 . S
C514 C520 1.368 . S
C515 C499 1.349 . S
C515 H507 0.950 . S
C515 C513 1.327 . S
C516 C504 1.349 . S
C516 H510 0.950 . S
C516 C517 1.299 1_655 S
C517 H511 0.961 . S
C517 C516 1.299 1_455 S
C517 C521 1.446 . S
C518 C501 1.574 . S
C518 H512 0.949 . S
C518 C522 1.368 . S
C519 C500 1.429 . S
C519 C513 1.429 . S
C519 C520 1.523 . S
C520 C501 1.368 . S
C520 C514 1.368 . S
C520 C519 1.523 . S
C521 C505 1.429 . S
C521 C517 1.446 . S
C521 C522 1.523 . S
C522 C506 1.368 . S
C522 C518 1.368 . S
C522 C521 1.523 . S
H523 C498 0.950 . S
H524 C500 0.950 . S
H525 C501 0.949 . S
H526 C503 0.950 . S
H527 C505 0.950 . S
C528 C529 1.349 . S
C528 C530 1.327 1_545 S
C528 H553 0.950 . S
C529 C528 1.349 . S
C529 C545 1.349 . S
C530 C528 1.327 1_565 S
C530 C549 1.429 . S
C530 H554 0.950 . S
C531 C548 1.574 . S
C531 C550 1.368 . S
C531 H555 0.949 . S
H532 C536 0.949 . S
C533 C534 1.349 . S
C533 C535 1.327 . S
C533 H556 0.950 . S
C534 C533 1.349 . S
C534 C546 1.349 . S
C535 C533 1.327 . S
C535 C551 1.429 . S
C535 H557 0.950 . S
C536 H532 0.949 . S
C536 C544 1.574 . S
C536 C552 1.368 . S
H537 C545 0.950 . S
H538 C543 0.950 . S
H539 C544 0.949 . S
H540 C546 0.950 . S
H541 C547 0.950 . S
H542 C548 0.949 . S
C543 H538 0.950 . S
C543 C545 1.327 1_565 S
C543 C549 1.429 . S
C544 C536 1.574 . S
C544 H539 0.949 . S
C544 C550 1.368 . S
C545 C529 1.349 . S
C545 H537 0.950 . S
C545 C543 1.327 1_545 S
C546 C534 1.349 . S
C546 H540 0.950 . S
C546 C547 1.327 . S
C547 H541 0.950 . S
C547 C546 1.327 . S
C547 C551 1.429 . S
C548 C531 1.574 . S
C548 H542 0.949 . S
C548 C552 1.368 . S
C549 C530 1.429 . S
C549 C543 1.429 . S
C549 C550 1.523 . S
C550 C531 1.368 . S
C550 C544 1.368 . S
C550 C549 1.523 . S
C551 C535 1.429 . S
C551 C547 1.429 . S
C551 C552 1.523 1_655 S
C552 C536 1.368 . S
C552 C548 1.368 . S
C552 C551 1.523 1_455 S
H553 C528 0.950 . S
H554 C530 0.950 . S
H555 C531 0.949 . S
H556 C533 0.950 . S
H557 C535 0.950 . S
C558 C559 1.349 . S
C558 C560 1.327 . S
C558 H583 0.950 . S
C559 C558 1.349 . S
C559 C575 1.349 . S
C560 C558 1.327 . S
C560 C579 1.429 . S
C560 H584 0.950 . S
C561 C578 1.574 . S
C561 C580 1.368 . S
C561 H585 0.949 . S
H562 C566 0.949 . S
C563 C564 1.349 . S
C563 C565 1.327 . S
C563 H586 0.950 . S
C564 C563 1.349 . S
C564 C576 1.349 . S
C565 C563 1.327 . S
C565 C581 1.429 . S
C565 H587 0.950 . S
C566 H562 0.949 . S
C566 C574 1.574 . S
C566 C582 1.368 . S
H567 C575 0.950 . S
H568 C573 0.950 . S
H569 C574 0.949 . S
H570 C576 0.950 . S
H571 C577 0.950 . S
H572 C578 0.949 . S
C573 H568 0.950 . S
C573 C575 1.327 . S
C573 C579 1.429 . S
C574 C566 1.574 . S
C574 H569 0.949 . S
C574 C580 1.368 . S
C575 C559 1.349 . S
C575 H567 0.950 . S
C575 C573 1.327 . S
C576 C564 1.349 . S
C576 H570 0.950 . S
C576 C577 1.327 . S
C577 H571 0.950 . S
C577 C576 1.327 . S
C577 C581 1.429 . S
C578 C561 1.574 . S
C578 H572 0.949 . S
C578 C582 1.368 . S
C579 C560 1.429 . S
C579 C573 1.429 . S
C579 C580 1.523 . S
C580 C561 1.368 . S
C580 C574 1.368 . S
C580 C579 1.523 . S
C581 C565 1.429 . S
C581 C577 1.429 . S
C581 C582 1.523 1_545 S
C582 C566 1.368 . S
C582 C578 1.368 . S
C582 C581 1.523 1_565 S
H583 C558 0.950 . S
H584 C560 0.950 . S
H585 C561 0.949 . S
H586 C563 0.950 . S
H587 C565 0.950 . S
C588 C589 1.349 . S
C588 C590 1.327 1_565 S
C588 H613 0.950 . S
C589 C588 1.349 . S
C589 C605 1.349 . S
C590 C588 1.327 1_545 S
C590 C609 1.429 . S
C590 H614 0.950 . S
C591 C608 1.574 . S
C591 C610 1.368 . S
C591 H615 0.949 . S
H592 C596 0.949 . S
C593 C594 1.349 . S
C593 C595 1.327 . S
C593 H616 0.950 . S
C594 C593 1.349 . S
C594 C606 1.349 . S
C595 C593 1.327 . S
C595 C611 1.429 . S
C595 H617 0.950 . S
C596 H592 0.949 . S
C596 C604 1.574 . S
C596 C612 1.368 . S
H597 C605 0.950 . S
H598 C603 0.950 . S
H599 C604 0.949 . S
H600 C606 0.950 . S
H601 C607 0.950 . S
H602 C608 0.949 . S
C603 H598 0.950 . S
C603 C605 1.327 1_545 S
C603 C609 1.429 . S
C604 C596 1.574 . S
C604 H599 0.949 . S
C604 C610 1.368 . S
C605 C589 1.349 . S
C605 H597 0.950 . S
C605 C603 1.327 1_565 S
C606 C594 1.349 . S
C606 H600 0.950 . S
C606 C607 1.327 . S
C607 H601 0.950 . S
C607 C606 1.327 . S
C607 C611 1.429 . S
C608 C591 1.574 . S
C608 H602 0.949 . S
C608 C612 1.368 . S
C609 C590 1.429 . S
C609 C603 1.429 . S
C609 C610 1.523 . S
C610 C591 1.368 . S
C610 C604 1.368 . S
C610 C609 1.523 . S
C611 C595 1.429 . S
C611 C607 1.429 . S
C611 C612 1.523 . S
C612 C596 1.368 . S
C612 C608 1.368 . S
C612 C611 1.523 . S
H613 C588 0.950 . S
H614 C590 0.950 . S
H615 C591 0.949 . S
H616 C593 0.950 . S
H617 C595 0.950 . S
C618 C619 1.349 . S
C618 C620 1.327 . S
C618 H643 0.950 . S
C619 C618 1.349 . S
C619 C635 1.349 . S
C620 C618 1.327 . S
C620 C639 1.429 . S
C620 H644 0.950 . S
C621 C638 1.574 . S
C621 C640 1.368 . S
C621 H645 0.949 . S
H622 C626 0.949 . S
C623 C624 1.349 . S
C623 C625 1.327 . S
C623 H646 0.950 . S
C624 C623 1.349 . S
C624 C636 1.349 . S
C625 C623 1.327 . S
C625 C641 1.429 . S
C625 H647 0.950 . S
C626 H622 0.949 . S
C626 C634 1.574 . S
C626 C642 1.368 . S
H627 C635 0.950 . S
H628 C633 0.950 . S
H629 C634 0.949 . S
H630 C636 0.950 . S
H631 C637 0.950 . S
H632 C638 0.949 . S
C633 H628 0.950 . S
C633 C635 1.327 . S
C633 C639 1.429 . S
C634 C626 1.574 . S
C634 H629 0.949 . S
C634 C640 1.368 . S
C635 C619 1.349 . S
C635 H627 0.950 . S
C635 C633 1.327 . S
C636 C624 1.349 . S
C636 H630 0.950 . S
C636 C637 1.327 . S
C637 H631 0.950 . S
C637 C636 1.327 . S
C637 C641 1.429 . S
C638 C621 1.574 . S
C638 H632 0.949 . S
C638 C642 1.368 . S
C639 C620 1.429 . S
C639 C633 1.429 . S
C639 C640 1.523 1_455 S
C640 C621 1.368 . S
C640 C634 1.368 . S
C640 C639 1.523 1_655 S
C641 C625 1.429 . S
C641 C637 1.429 . S
C641 C642 1.523 . S
C642 C626 1.368 . S
C642 C638 1.368 . S
C642 C641 1.523 . S
H643 C618 0.950 . S
H644 C620 0.950 . S
H645 C621 0.949 . S
H646 C623 0.950 . S
H647 C625 0.950 . S
C648 C649 1.349 . S
C648 C650 1.327 . S
C648 H673 0.950 . S
C649 C648 1.349 . S
C649 C665 1.349 . S
C650 C648 1.327 . S
C650 C669 1.429 . S
C650 H674 0.950 . S
C651 C668 1.574 . S
C651 C670 1.368 . S
C651 H675 0.949 . S
H652 C656 0.949 . S
C653 C654 1.349 . S
C653 C655 1.327 1_455 S
C653 H676 0.950 . S
C654 C653 1.349 . S
C654 C666 1.349 . S
C655 C653 1.327 1_655 S
C655 C671 1.429 . S
C655 H677 0.950 . S
C656 H652 0.949 . S
C656 C664 1.574 . S
C656 C672 1.368 . S
H657 C665 0.950 . S
H658 C663 0.950 . S
H659 C664 0.949 . S
H660 C666 0.950 . S
H661 C667 0.950 . S
H662 C668 0.949 . S
C663 H658 0.950 . S
C663 C665 1.327 . S
C663 C669 1.429 . S
C664 C656 1.574 . S
C664 H659 0.949 . S
C664 C670 1.368 . S
C665 C649 1.349 . S
C665 H657 0.950 . S
C665 C663 1.327 . S
C666 C654 1.349 . S
C666 H660 0.950 . S
C666 C667 1.327 1_455 S
C667 H661 0.950 . S
C667 C666 1.327 1_655 S
C667 C671 1.429 . S
C668 C651 1.574 . S
C668 H662 0.949 . S
C668 C672 1.368 . S
C669 C650 1.429 . S
C669 C663 1.429 . S
C669 C670 1.523 1_565 S
C670 C651 1.368 . S
C670 C664 1.368 . S
C670 C669 1.523 1_545 S
C671 C655 1.429 . S
C671 C667 1.429 . S
C671 C672 1.523 . S
C672 C656 1.368 . S
C672 C668 1.368 . S
C672 C671 1.523 . S
H673 C648 0.950 . S
H674 C650 0.950 . S
H675 C651 0.949 . S
H676 C653 0.950 . S
H677 C655 0.950 . S
C678 C679 1.349 . S
C678 C680 1.327 . S
C678 H703 0.950 . S
C679 C678 1.349 . S
C679 C695 1.349 . S
C680 C678 1.327 . S
C680 C699 1.429 . S
C680 H704 0.950 . S
C681 C698 1.574 . S
C681 C700 1.368 . S
C681 H705 0.949 . S
H682 C686 0.949 . S
C683 C684 1.349 . S
C683 C685 1.327 1_565 S
C683 H706 0.950 . S
C684 C683 1.349 . S
C684 C696 1.349 . S
C685 C683 1.327 1_545 S
C685 C701 1.429 . S
C685 H707 0.950 . S
C686 H682 0.949 . S
C686 C694 1.574 . S
C686 C702 1.368 . S
H687 C695 0.950 . S
H688 C693 0.950 . S
H689 C694 0.949 . S
H690 C696 0.950 . S
H691 C697 0.950 . S
H692 C698 0.949 . S
C693 H688 0.950 . S
C693 C695 1.327 . S
C693 C699 1.429 . S
C694 C686 1.574 . S
C694 H689 0.949 . S
C694 C700 1.368 . S
C695 C679 1.349 . S
C695 H687 0.950 . S
C695 C693 1.327 . S
C696 C684 1.349 . S
C696 H690 0.950 . S
C696 C697 1.327 1_565 S
C697 H691 0.950 . S
C697 C696 1.327 1_545 S
C697 C701 1.429 . S
C698 C681 1.574 . S
C698 H692 0.949 . S
C698 C702 1.368 . S
C699 C680 1.429 . S
C699 C693 1.429 . S
C699 C700 1.523 . S
C700 C681 1.368 . S
C700 C694 1.368 . S
C700 C699 1.523 . S
C701 C685 1.429 . S
C701 C697 1.429 . S
C701 C702 1.523 . S
C702 C686 1.368 . S
C702 C698 1.368 . S
C702 C701 1.523 . S
H703 C678 0.950 . S
H704 C680 0.950 . S
H705 C681 0.949 . S
H706 C683 0.950 . S
H707 C685 0.950 . S
C708 C709 1.349 . S
C708 C710 1.327 . S
C708 H733 0.950 . S
C709 C708 1.349 . S
C709 C725 1.349 . S
C710 C708 1.327 . S
C710 C729 1.429 . S
C710 H734 0.955 . S
C711 C728 1.574 . S
C711 C730 1.368 . S
C711 H735 0.949 . S
H712 C716 0.949 . S
C713 C714 1.349 . S
C713 C715 1.327 . S
C713 H736 0.950 . S
C714 C713 1.349 . S
C714 C726 1.349 . S
C715 C713 1.327 . S
C715 C731 1.429 . S
C715 H737 0.950 . S
C716 H712 0.949 . S
C716 C724 1.574 . S
C716 C732 1.368 . S
H717 C725 0.950 . S
H718 C723 0.950 . S
H719 C724 0.949 . S
H720 C726 0.950 . S
H721 C727 0.950 . S
H722 C728 0.949 . S
C723 H718 0.950 . S
C723 C725 1.327 . S
C723 C729 1.429 . S
C724 C716 1.574 . S
C724 H719 0.949 . S
C724 C730 1.368 . S
C725 C709 1.349 . S
C725 H717 0.950 . S
C725 C723 1.327 . S
C726 C714 1.349 . S
C726 H720 0.950 . S
C726 C727 1.327 . S
C727 H721 0.950 . S
C727 C726 1.327 . S
C727 C731 1.429 . S
C728 C711 1.574 . S
C728 H722 0.949 . S
C728 C732 1.368 . S
C729 C710 1.429 . S
C729 C723 1.429 . S
C729 C730 1.523 1_455 S
C730 C711 1.368 . S
C730 C724 1.368 . S
C730 C729 1.523 1_655 S
C731 C715 1.429 . S
C731 C727 1.429 . S
C731 C732 1.523 . S
C732 C716 1.368 . S
C732 C728 1.368 . S
C732 C731 1.523 . S
H733 C708 0.950 . S
H734 C710 0.955 . S
H735 C711 0.949 . S
H736 C713 0.950 . S
H737 C715 0.950 . S
C738 C739 1.349 . S
C738 C740 1.327 1_455 S
C738 H763 0.950 . S
C739 C738 1.349 . S
C739 C755 1.349 . S
C740 C738 1.327 1_655 S
C740 C759 1.429 . S
C740 H764 0.950 . S
C741 C758 1.574 . S
C741 C760 1.368 . S
C741 H765 0.949 . S
H742 C746 0.949 . S
C743 C744 1.349 . S
C743 C745 1.327 . S
C743 H766 0.950 . S
C744 C743 1.349 . S
C744 C756 1.349 . S
C745 C743 1.327 . S
C745 C761 1.429 . S
C745 H767 0.950 . S
C746 H742 0.949 . S
C746 C754 1.574 . S
C746 C762 1.368 . S
H747 C755 0.950 . S
H748 C753 0.950 . S
H749 C754 0.949 . S
H750 C756 0.950 . S
H751 C757 0.950 . S
H752 C758 0.949 . S
C753 H748 0.950 . S
C753 C755 1.327 1_655 S
C753 C759 1.429 . S
C754 C746 1.574 . S
C754 H749 0.949 . S
C754 C760 1.368 . S
C755 C739 1.349 . S
C755 H747 0.950 . S
C755 C753 1.327 1_455 S
C756 C744 1.349 . S
C756 H750 0.950 . S
C756 C757 1.327 . S
C757 H751 0.950 . S
C757 C756 1.327 . S
C757 C761 1.429 . S
C758 C741 1.574 . S
C758 H752 0.949 . S
C758 C762 1.368 . S
C759 C740 1.429 . S
C759 C753 1.429 . S
C759 C760 1.523 . S
C760 C741 1.368 . S
C760 C754 1.368 . S
C760 C759 1.523 . S
C761 C745 1.429 . S
C761 C757 1.429 . S
C761 C762 1.523 1_565 S
C762 C746 1.368 . S
C762 C758 1.368 . S
C762 C761 1.523 1_545 S
H763 C738 0.950 . S
H764 C740 0.950 . S
H765 C741 0.949 . S
H766 C743 0.950 . S
H767 C745 0.950 . S
C768 C769 1.349 . S
C768 C770 1.327 . S
C768 H793 0.950 . S
C769 C768 1.349 . S
C769 C785 1.349 . S
C770 C768 1.327 . S
C770 C789 1.429 . S
C770 H794 0.950 . S
C771 C788 1.574 . S
C771 C790 1.368 . S
C771 H795 0.949 . S
H772 C776 0.949 . S
C773 C774 1.349 . S
C773 C775 1.327 . S
C773 H796 0.950 . S
C774 C773 1.349 . S
C774 C786 1.349 . S
C775 C773 1.327 . S
C775 C791 1.429 . S
C775 H797 0.950 . S
C776 H772 0.949 . S
C776 C784 1.574 . S
C776 C792 1.368 . S
H777 C785 0.950 . S
H778 C783 0.950 . S
H779 C784 0.949 . S
H780 C786 0.950 . S
H781 C787 0.950 . S
H782 C788 0.949 . S
C783 H778 0.950 . S
C783 C785 1.327 . S
C783 C789 1.429 . S
C784 C776 1.574 . S
C784 H779 0.949 . S
C784 C790 1.368 . S
C785 C769 1.349 . S
C785 H777 0.950 . S
C785 C783 1.327 . S
C786 C774 1.349 . S
C786 H780 0.950 . S
C786 C787 1.327 . S
C787 H781 0.950 . S
C787 C786 1.327 . S
C787 C791 1.429 . S
C788 C771 1.574 . S
C788 H782 0.949 . S
C788 C792 1.368 . S
C789 C770 1.429 . S
C789 C783 1.429 . S
C789 C790 1.523 . S
C790 C771 1.368 . S
C790 C784 1.368 . S
C790 C789 1.523 . S
C791 C775 1.429 . S
C791 C787 1.429 . S
C791 C792 1.523 . S
C792 C776 1.368 . S
C792 C788 1.368 . S
C792 C791 1.523 . S
H793 C768 0.950 . S
H794 C770 0.950 . S
H795 C771 0.949 . S
H796 C773 0.950 . S
H797 C775 0.950 . S
C798 C799 1.349 . S
C798 C800 1.327 . S
C798 H823 0.950 . S
C799 C798 1.349 . S
C799 C815 1.349 . S
C800 C798 1.327 . S
C800 C819 1.429 . S
C800 H824 0.950 . S
C801 C818 1.574 . S
C801 C820 1.368 . S
C801 H825 0.949 . S
H802 C806 0.949 . S
C803 C804 1.349 . S
C803 C805 1.327 . S
C803 H826 0.950 . S
C804 C803 1.349 . S
C804 C816 1.349 . S
C805 C803 1.327 . S
C805 C821 1.429 . S
C805 H827 0.950 . S
C806 H802 0.949 . S
C806 C814 1.574 . S
C806 C822 1.368 . S
H807 C815 0.950 . S
H808 C813 0.950 . S
H809 C814 0.949 . S
H810 C816 0.950 . S
H811 C817 0.950 . S
H812 C818 0.949 . S
C813 H808 0.950 . S
C813 C815 1.327 . S
C813 C819 1.429 . S
C814 C806 1.574 . S
C814 H809 0.949 . S
C814 C820 1.368 . S
C815 C799 1.349 . S
C815 H807 0.950 . S
C815 C813 1.327 . S
C816 C804 1.349 . S
C816 H810 0.950 . S
C816 C817 1.327 . S
C817 H811 0.950 . S
C817 C816 1.327 . S
C817 C821 1.429 . S
C818 C801 1.574 . S
C818 H812 0.949 . S
C818 C822 1.368 . S
C819 C800 1.429 . S
C819 C813 1.429 . S
C819 C820 1.523 . S
C820 C801 1.368 . S
C820 C814 1.368 . S
C820 C819 1.523 . S
C821 C805 1.429 . S
C821 C817 1.429 . S
C821 C822 1.523 . S
C822 C806 1.368 . S
C822 C818 1.368 . S
C822 C821 1.523 . S
H823 C798 0.950 . S
H824 C800 0.950 . S
H825 C801 0.949 . S
H826 C803 0.950 . S
H827 C805 0.950 . S
C828 C829 1.349 . S
C828 C830 1.327 . S
C828 H853 0.950 . S
C829 C828 1.349 . S
C829 C845 1.349 . S
C830 C828 1.327 . S
C830 C849 1.429 . S
C830 H854 0.950 . S
C831 C848 1.574 . S
C831 C850 1.368 . S
C831 H855 0.949 . S
H832 C836 0.949 . S
C833 C834 1.349 . S
C833 C835 1.327 . S
C833 H856 0.950 . S
C834 C833 1.349 . S
C834 C846 1.349 . S
C835 C833 1.327 . S
C835 C851 1.429 . S
C835 H857 0.950 . S
C836 H832 0.949 . S
C836 C844 1.574 . S
C836 C852 1.368 . S
H837 C845 0.950 . S
H838 C843 0.950 . S
H839 C844 0.949 . S
H840 C846 0.950 . S
H841 C847 0.950 . S
H842 C848 0.949 . S
C843 H838 0.950 . S
C843 C845 1.327 . S
C843 C849 1.429 . S
C844 C836 1.574 . S
C844 H839 0.949 . S
C844 C850 1.368 . S
C845 C829 1.349 . S
C845 H837 0.950 . S
C845 C843 1.327 . S
C846 C834 1.349 . S
C846 H840 0.950 . S
C846 C847 1.327 . S
C847 H841 0.950 . S
C847 C846 1.327 . S
C847 C851 1.429 . S
C848 C831 1.574 . S
C848 H842 0.949 . S
C848 C852 1.368 . S
C849 C830 1.429 . S
C849 C843 1.429 . S
C849 C850 1.523 . S
C850 C831 1.368 . S
C850 C844 1.368 . S
C850 C849 1.523 . S
C851 C835 1.429 . S
C851 C847 1.429 . S
C851 C852 1.523 . S
C852 C836 1.368 . S
C852 C848 1.368 . S
C852 C851 1.523 . S
H853 C828 0.950 . S
H854 C830 0.950 . S
H855 C831 0.949 . S
H856 C833 0.950 . S
H857 C835 0.950 . S
C858 C859 1.349 . S
C858 C860 1.327 . S
C858 H883 0.950 . S
C859 C858 1.349 . S
C859 C875 1.349 . S
C860 C858 1.327 . S
C860 C879 1.429 . S
C860 H884 0.950 . S
C861 C878 1.574 . S
C861 C880 1.368 . S
C861 H885 0.949 . S
H862 C866 0.949 . S
C863 C864 1.349 . S
C863 C865 1.327 . S
C863 H886 0.950 . S
C864 C863 1.349 . S
C864 C876 1.349 . S
C865 C863 1.327 . S
C865 C881 1.429 . S
C865 H887 0.950 . S
C866 H862 0.949 . S
C866 C874 1.574 . S
C866 C882 1.368 . S
H867 C875 0.950 . S
H868 C873 0.950 . S
H869 C874 0.949 . S
H870 C876 0.950 . S
H871 C877 0.950 . S
H872 C878 0.949 . S
C873 H868 0.950 . S
C873 C875 1.327 . S
C873 C879 1.429 . S
C874 C866 1.574 . S
C874 H869 0.949 . S
C874 C880 1.368 . S
C875 C859 1.349 . S
C875 H867 0.950 . S
C875 C873 1.327 . S
C876 C864 1.349 . S
C876 H870 0.950 . S
C876 C877 1.327 . S
C877 H871 0.950 . S
C877 C876 1.327 . S
C877 C881 1.429 . S
C878 C861 1.574 . S
C878 H872 0.949 . S
C878 C882 1.368 . S
C879 C860 1.429 . S
C879 C873 1.429 . S
C879 C880 1.523 . S
C880 C861 1.368 . S
C880 C874 1.368 . S
C880 C879 1.523 . S
C881 C865 1.429 . S
C881 C877 1.429 . S
C881 C882 1.523 . S
C882 C866 1.368 . S
C882 C878 1.368 . S
C882 C881 1.523 . S
H883 C858 0.950 . S
H884 C860 0.950 . S
H885 C861 0.949 . S
H886 C863 0.950 . S
H887 C865 0.950 . S
C888 C889 1.349 . S
C888 C890 1.327 . S
C888 H913 0.950 . S
C889 C888 1.349 . S
C889 C905 1.349 . S
C890 C888 1.327 . S
C890 C909 1.429 . S
C890 H914 0.950 . S
C891 C908 1.574 . S
C891 C910 1.368 . S
C891 H915 0.949 . S
H892 C896 0.949 . S
C893 C894 1.349 . S
C893 C895 1.327 . S
C893 H916 0.950 . S
C894 C893 1.349 . S
C894 C906 1.349 . S
C895 C893 1.327 . S
C895 C911 1.429 . S
C895 H917 0.950 . S
C896 H892 0.949 . S
C896 C904 1.574 . S
C896 C912 1.368 . S
H897 C905 0.950 . S
H898 C903 0.950 . S
H899 C904 0.949 . S
H900 C906 0.950 . S
H901 C907 0.950 . S
H902 C908 0.949 . S
C903 H898 0.950 . S
C903 C905 1.327 . S
C903 C909 1.429 . S
C904 C896 1.574 . S
C904 H899 0.949 . S
C904 C910 1.368 . S
C905 C889 1.349 . S
C905 H897 0.950 . S
C905 C903 1.327 . S
C906 C894 1.349 . S
C906 H900 0.950 . S
C906 C907 1.327 . S
C907 H901 0.950 . S
C907 C906 1.327 . S
C907 C911 1.429 . S
C908 C891 1.574 . S
C908 H902 0.949 . S
C908 C912 1.368 . S
C909 C890 1.429 . S
C909 C903 1.429 . S
C909 C910 1.523 . S
C910 C891 1.368 . S
C910 C904 1.368 . S
C910 C909 1.523 . S
C911 C895 1.429 . S
C911 C907 1.429 . S
C911 C912 1.523 . S
C912 C896 1.368 . S
C912 C908 1.368 . S
C912 C911 1.523 . S
H913 C888 0.950 . S
H914 C890 0.950 . S
H915 C891 0.949 . S
H916 C893 0.950 . S
H917 C895 0.950 . S
C918 C919 1.349 . S
C918 C920 1.327 . S
C918 H943 0.950 . S
C919 C918 1.349 . S
C919 C935 1.349 . S
C920 C918 1.327 . S
C920 C939 1.429 . S
C920 H944 0.950 . S
C921 C938 1.574 . S
C921 C940 1.368 . S
C921 H945 0.949 . S
H922 C926 0.949 . S
C923 C924 1.349 . S
C923 C925 1.327 . S
C923 H946 0.950 . S
C924 C923 1.349 . S
C924 C936 1.349 . S
C925 C923 1.327 . S
C925 C941 1.429 . S
C925 H947 0.950 . S
C926 H922 0.949 . S
C926 C934 1.574 . S
C926 C942 1.368 . S
H927 C935 0.950 . S
H928 C933 0.950 . S
H929 C934 0.949 . S
H930 C936 0.950 . S
H931 C937 0.950 . S
H932 C938 0.949 . S
C933 H928 0.950 . S
C933 C935 1.327 . S
C933 C939 1.429 . S
C934 C926 1.574 . S
C934 H929 0.949 . S
C934 C940 1.368 . S
C935 C919 1.349 . S
C935 H927 0.950 . S
C935 C933 1.327 . S
C936 C924 1.349 . S
C936 H930 0.950 . S
C936 C937 1.327 . S
C937 H931 0.950 . S
C937 C936 1.327 . S
C937 C941 1.429 . S
C938 C921 1.574 . S
C938 H932 0.949 . S
C938 C942 1.368 . S
C939 C920 1.429 . S
C939 C933 1.429 . S
C939 C940 1.523 . S
C940 C921 1.368 . S
C940 C934 1.368 . S
C940 C939 1.523 . S
C941 C925 1.429 . S
C941 C937 1.429 . S
C941 C942 1.523 . S
C942 C926 1.368 . S
C942 C938 1.368 . S
C942 C941 1.523 . S
H943 C918 0.950 . S
H944 C920 0.950 . S
H945 C921 0.949 . S
H946 C923 0.950 . S
H947 C925 0.950 . S
C948 C949 1.349 . S
C948 C950 1.327 . S
C948 H973 0.950 . S
C949 C948 1.349 . S
C949 C965 1.349 . S
C950 C948 1.327 . S
C950 C969 1.429 . S
C950 H974 0.950 . S
C951 C968 1.574 1_556 S
C951 C970 1.368 . S
C951 H975 0.949 . S
H952 C956 0.949 . S
C953 C954 1.349 . S
C953 C955 1.327 . S
C953 H976 0.950 . S
C954 C953 1.349 . S
C954 C966 1.349 . S
C955 C953 1.327 . S
C955 C971 1.429 . S
C955 H977 0.950 . S
C956 H952 0.949 . S
C956 C964 1.574 1_554 S
C956 C972 1.368 . S
H957 C965 0.950 . S
H958 C963 0.950 . S
H959 C964 0.949 . S
H960 C966 0.950 . S
H961 C967 0.950 . S
H962 C968 0.949 . S
C963 H958 0.950 . S
C963 C965 1.327 . S
C963 C969 1.429 . S
C964 C956 1.574 1_556 S
C964 H959 0.949 . S
C964 C970 1.368 1_545 S
C965 C949 1.349 . S
C965 H957 0.950 . S
C965 C963 1.327 . S
C966 C954 1.349 . S
C966 H960 0.950 . S
C966 C967 1.327 . S
C967 H961 0.950 . S
C967 C966 1.327 . S
C967 C971 1.429 . S
C968 C951 1.574 1_554 S
C968 H962 0.949 . S
C968 C972 1.368 1_565 S
C969 C950 1.429 . S
C969 C963 1.429 . S
C969 C970 1.523 . S
C970 C951 1.368 . S
C970 C964 1.368 1_565 S
C970 C969 1.523 . S
C971 C955 1.429 . S
C971 C967 1.429 . S
C971 C972 1.523 . S
C972 C956 1.368 . S
C972 C968 1.368 1_545 S
C972 C971 1.523 . S
H973 C948 0.950 . S
H974 C950 0.950 . S
H975 C951 0.949 . S
H976 C953 0.950 . S
H977 C955 0.950 . S
C978 C979 1.349 . S
C978 C980 1.327 . S
C978 H1003 0.950 . S
C979 C978 1.349 . S
C979 C995 1.349 . S
C980 C978 1.327 . S
C980 C999 1.429 . S
C980 H1004 0.950 . S
C981 C998 1.574 . S
C981 C1000 1.368 . S
C981 H1005 0.949 . S
H982 C986 0.949 . S
C983 C984 1.349 . S
C983 C985 1.327 . S
C983 H1006 0.950 . S
C984 C983 1.349 . S
C984 C996 1.349 . S
C985 C983 1.327 . S
C985 C1001 1.429 . S
C985 H1007 0.950 . S
C986 H982 0.949 . S
C986 C994 1.574 . S
C986 C1002 1.368 . S
H987 C995 0.950 . S
H988 C993 0.950 . S
H989 C994 0.949 . S
H990 C996 0.950 . S
H991 C997 0.950 . S
H992 C998 0.949 . S
C993 H988 0.950 . S
C993 C995 1.327 . S
C993 C999 1.429 . S
C994 C986 1.574 . S
C994 H989 0.949 . S
C994 C1000 1.368 . S
C995 C979 1.349 . S
C995 H987 0.950 . S
C995 C993 1.327 . S
C996 C984 1.349 . S
C996 H990 0.950 . S
C996 C997 1.327 . S
C997 H991 0.950 . S
C997 C996 1.327 . S
C997 C1001 1.429 . S
C998 C981 1.574 . S
C998 H992 0.949 . S
C998 C1002 1.368 . S
C999 C980 1.429 . S
C999 C993 1.429 . S
C999 C1000 1.523 . S
C1000 C981 1.368 . S
C1000 C994 1.368 . S
C1000 C999 1.523 . S
C1001 C985 1.429 . S
C1001 C997 1.429 . S
C1001 C1002 1.523 . S
C1002 C986 1.368 . S
C1002 C998 1.368 . S
C1002 C1001 1.523 . S
H1003 C978 0.950 . S
H1004 C980 0.950 . S
H1005 C981 0.949 . S
H1006 C983 0.950 . S
H1007 C985 0.950 . S
C1008 C1009 1.349 . S
C1008 C1010 1.327 . S
C1008 H1033 0.950 . S
C1009 C1008 1.349 . S
C1009 C1025 1.349 . S
C1010 C1008 1.327 . S
C1010 C1029 1.429 . S
C1010 H1034 0.950 . S
C1011 C1028 1.574 1_456 S
C1011 C1030 1.368 . S
C1011 H1035 0.949 . S
H1012 C1016 0.949 . S
C1013 C1014 1.349 . S
C1013 C1015 1.327 . S
C1013 H1036 0.950 . S
C1014 C1013 1.349 . S
C1014 C1026 1.349 . S
C1015 C1013 1.327 . S
C1015 C1031 1.429 . S
C1015 H1037 0.950 . S
C1016 H1012 0.949 . S
C1016 C1024 1.574 1_654 S
C1016 C1032 1.368 . S
H1017 C1025 0.950 . S
H1018 C1023 0.950 . S
H1019 C1024 0.949 . S
H1020 C1026 0.950 . S
H1021 C1027 0.950 . S
H1022 C1028 0.949 . S
C1023 H1018 0.950 . S
C1023 C1025 1.327 . S
C1023 C1029 1.429 . S
C1024 C1016 1.574 1_456 S
C1024 H1019 0.949 . S
C1024 C1030 1.368 . S
C1025 C1009 1.349 . S
C1025 H1017 0.950 . S
C1025 C1023 1.327 . S
C1026 C1014 1.349 . S
C1026 H1020 0.950 . S
C1026 C1027 1.327 . S
C1027 H1021 0.950 . S
C1027 C1026 1.327 . S
C1027 C1031 1.429 . S
C1028 C1011 1.574 1_654 S
C1028 H1022 0.949 . S
C1028 C1032 1.368 . S
C1029 C1010 1.429 . S
C1029 C1023 1.429 . S
C1029 C1030 1.523 . S
C1030 C1011 1.368 . S
C1030 C1024 1.368 . S
C1030 C1029 1.523 . S
C1031 C1015 1.429 . S
C1031 C1027 1.429 . S
C1031 C1032 1.523 . S
C1032 C1016 1.368 . S
C1032 C1028 1.368 . S
C1032 C1031 1.523 . S
H1033 C1008 0.950 . S
H1034 C1010 0.950 . S
H1035 C1011 0.949 . S
H1036 C1013 0.950 . S
H1037 C1015 0.950 . S
C1038 C1039 1.349 . S
C1038 C1040 1.327 . S
C1038 H1063 0.950 . S
C1039 C1038 1.349 . S
C1039 C1055 1.349 . S
C1040 C1038 1.327 . S
C1040 C1059 1.429 . S
C1040 H1064 0.950 1_545 S
C1041 C1058 1.574 . S
C1041 C1060 1.368 . S
C1041 H1065 0.949 . S
H1042 C1046 0.949 . S
C1043 C1044 1.349 . S
C1043 C1045 1.327 . S
C1043 H1066 0.950 . S
C1044 C1043 1.349 . S
C1044 C1056 1.349 . S
C1045 C1043 1.327 . S
C1045 C1061 1.429 . S
C1045 H1067 0.950 1_565 S
C1046 H1042 0.949 . S
C1046 C1054 1.574 . S
C1046 C1062 1.368 . S
H1047 C1055 0.950 . S
H1048 C1053 0.950 . S
H1049 C1054 0.949 . S
H1050 C1056 0.950 . S
H1051 C1057 0.950 . S
H1052 C1058 0.949 . S
C1053 H1048 0.950 . S
C1053 C1055 1.327 . S
C1053 C1059 1.429 . S
C1054 C1046 1.574 . S
C1054 H1049 0.949 . S
C1054 C1060 1.368 1_565 S
C1055 C1039 1.349 . S
C1055 H1047 0.950 . S
C1055 C1053 1.327 . S
C1056 C1044 1.349 . S
C1056 H1050 0.950 . S
C1056 C1057 1.327 . S
C1057 H1051 0.950 . S
C1057 C1056 1.327 . S
C1057 C1061 1.429 . S
C1058 C1041 1.574 . S
C1058 H1052 0.949 . S
C1058 C1062 1.368 1_545 S
C1059 C1040 1.429 . S
C1059 C1053 1.429 . S
C1059 C1060 1.523 . S
C1060 C1041 1.368 . S
C1060 C1054 1.368 1_545 S
C1060 C1059 1.523 . S
C1061 C1045 1.429 . S
C1061 C1057 1.429 . S
C1061 C1062 1.523 . S
C1062 C1046 1.368 . S
C1062 C1058 1.368 1_565 S
C1062 C1061 1.523 . S
H1063 C1038 0.950 . S
H1064 C1040 0.950 1_565 S
H1065 C1041 0.949 . S
H1066 C1043 0.950 . S
H1067 C1045 0.950 1_545 S
C1068 C1069 1.349 . S
C1068 C1070 1.327 . S
C1068 H1093 0.950 . S
C1069 C1068 1.349 . S
C1069 C1085 1.349 . S
C1070 C1068 1.327 . S
C1070 C1089 1.429 . S
C1070 H1094 0.950 . S
C1071 C1088 1.574 1_554 S
C1071 C1090 1.368 . S
C1071 H1095 0.949 . S
H1072 C1076 0.949 . S
C1073 C1074 1.349 . S
C1073 C1075 1.327 . S
C1073 H1096 0.950 . S
C1074 C1073 1.349 . S
C1074 C1086 1.349 . S
C1075 C1073 1.327 . S
C1075 C1091 1.429 . S
C1075 H1097 0.950 . S
C1076 H1072 0.949 . S
C1076 C1084 1.574 1_556 S
C1076 C1092 1.368 . S
H1077 C1085 0.950 . S
H1078 C1083 0.950 . S
H1079 C1084 0.949 . S
H1080 C1086 0.950 . S
H1081 C1087 0.950 . S
H1082 C1088 0.949 . S
C1083 H1078 0.950 . S
C1083 C1085 1.327 . S
C1083 C1089 1.429 . S
C1084 C1076 1.574 1_554 S
C1084 H1079 0.949 . S
C1084 C1090 1.368 . S
C1085 C1069 1.349 . S
C1085 H1077 0.950 . S
C1085 C1083 1.327 . S
C1086 C1074 1.349 . S
C1086 H1080 0.950 . S
C1086 C1087 1.327 . S
C1087 H1081 0.950 . S
C1087 C1086 1.327 . S
C1087 C1091 1.429 . S
C1088 C1071 1.574 1_556 S
C1088 H1082 0.949 . S
C1088 C1092 1.368 . S
C1089 C1070 1.429 . S
C1089 C1083 1.429 . S
C1089 C1090 1.523 . S
C1090 C1071 1.368 . S
C1090 C1084 1.368 . S
C1090 C1089 1.523 . S
C1091 C1075 1.429 . S
C1091 C1087 1.429 . S
C1091 C1092 1.523 . S
C1092 C1076 1.368 . S
C1092 C1088 1.368 . S
C1092 C1091 1.523 . S
H1093 C1068 0.950 . S
H1094 C1070 0.950 . S
H1095 C1071 0.949 . S
H1096 C1073 0.950 . S
H1097 C1075 0.950 . S
C1098 C1099 1.349 . S
C1098 C1100 1.327 . S
C1098 H1123 0.950 . S
C1099 C1098 1.349 . S
C1099 C1115 1.349 . S
C1100 C1098 1.327 . S
C1100 C1119 1.429 . S
C1100 H1124 0.950 . S
C1101 C1118 1.574 . S
C1101 C1120 1.368 1_655 S
C1101 H1125 0.949 . S
H1102 C1106 0.949 . S
C1103 C1104 1.349 . S
C1103 C1105 1.327 . S
C1103 H1126 0.950 . S
C1104 C1103 1.349 . S
C1104 C1116 1.349 . S
C1105 C1103 1.327 . S
C1105 C1121 1.429 . S
C1105 H1127 0.950 . S
C1106 H1102 0.949 . S
C1106 C1114 1.574 . S
C1106 C1122 1.368 1_455 S
H1107 C1115 0.950 . S
H1108 C1113 0.950 . S
H1109 C1114 0.949 . S
H1110 C1116 0.950 . S
H1111 C1117 0.950 . S
H1112 C1118 0.949 . S
C1113 H1108 0.950 . S
C1113 C1115 1.327 . S
C1113 C1119 1.429 . S
C1114 C1106 1.574 . S
C1114 H1109 0.949 . S
C1114 C1120 1.368 . S
C1115 C1099 1.349 . S
C1115 H1107 0.950 . S
C1115 C1113 1.327 . S
C1116 C1104 1.349 . S
C1116 H1110 0.950 . S
C1116 C1117 1.327 . S
C1117 H1111 0.950 . S
C1117 C1116 1.327 . S
C1117 C1121 1.429 . S
C1118 C1101 1.574 . S
C1118 H1112 0.949 . S
C1118 C1122 1.368 . S
C1119 C1100 1.429 . S
C1119 C1113 1.429 . S
C1119 C1120 1.523 . S
C1120 C1101 1.368 1_455 S
C1120 C1114 1.368 . S
C1120 C1119 1.523 . S
C1121 C1105 1.429 . S
C1121 C1117 1.429 . S
C1121 C1122 1.523 . S
C1122 C1106 1.368 1_655 S
C1122 C1118 1.368 . S
C1122 C1121 1.523 . S
H1123 C1098 0.950 . S
H1124 C1100 0.950 . S
H1125 C1101 0.949 . S
H1126 C1103 0.950 . S
H1127 C1105 0.950 . S
C1128 C1129 1.349 . S
C1128 C1130 1.327 . S
C1128 H1153 0.950 . S
C1129 C1128 1.349 . S
C1129 C1145 1.349 . S
C1130 C1128 1.327 . S
C1130 C1149 1.429 . S
C1130 H1154 0.950 . S
C1131 C1148 1.574 . S
C1131 C1150 1.368 . S
C1131 H1155 0.949 . S
H1132 C1136 0.949 . S
C1133 C1134 1.349 . S
C1133 C1135 1.327 . S
C1133 H1156 0.950 . S
C1134 C1133 1.349 . S
C1134 C1146 1.349 . S
C1135 C1133 1.327 . S
C1135 C1151 1.429 . S
C1135 H1157 0.950 . S
C1136 H1132 0.949 . S
C1136 C1144 1.574 . S
C1136 C1152 1.368 . S
H1137 C1145 0.950 . S
H1138 C1143 0.950 . S
H1139 C1144 0.949 . S
H1140 C1146 0.950 . S
H1141 C1147 0.950 . S
H1142 C1148 0.949 . S
C1143 H1138 0.950 . S
C1143 C1145 1.327 . S
C1143 C1149 1.429 . S
C1144 C1136 1.574 . S
C1144 H1139 0.949 . S
C1144 C1150 1.368 . S
C1145 C1129 1.349 . S
C1145 H1137 0.950 . S
C1145 C1143 1.327 . S
C1146 C1134 1.349 . S
C1146 H1140 0.950 . S
C1146 C1147 1.327 . S
C1147 H1141 0.950 . S
C1147 C1146 1.327 . S
C1147 C1151 1.429 . S
C1148 C1131 1.574 . S
C1148 H1142 0.949 . S
C1148 C1152 1.368 . S
C1149 C1130 1.429 . S
C1149 C1143 1.429 . S
C1149 C1150 1.523 . S
C1150 C1131 1.368 . S
C1150 C1144 1.368 . S
C1150 C1149 1.523 . S
C1151 C1135 1.429 . S
C1151 C1147 1.429 . S
C1151 C1152 1.523 . S
C1152 C1136 1.368 . S
C1152 C1148 1.368 . S
C1152 C1151 1.523 . S
H1153 C1128 0.950 . S
H1154 C1130 0.950 . S
H1155 C1131 0.949 . S
H1156 C1133 0.950 . S
H1157 C1135 0.950 . S
C1158 C1159 1.349 . S
C1158 C1160 1.327 . S
C1158 H1183 0.950 . S
C1159 C1158 1.349 . S
C1159 C1175 1.349 . S
C1160 C1158 1.327 . S
C1160 C1179 1.429 . S
C1160 H1184 0.950 . S
C1161 C1178 1.574 . S
C1161 C1180 1.368 . S
C1161 H1185 0.949 . S
H1162 C1166 0.949 . S
C1163 C1164 1.349 . S
C1163 C1165 1.327 . S
C1163 H1186 0.950 . S
C1164 C1163 1.349 . S
C1164 C1176 1.349 . S
C1165 C1163 1.327 . S
C1165 C1181 1.429 . S
C1165 H1187 0.950 . S
C1166 H1162 0.949 . S
C1166 C1174 1.574 . S
C1166 C1182 1.368 . S
H1167 C1175 0.950 . S
H1168 C1173 0.950 . S
H1169 C1174 0.949 . S
H1170 C1176 0.950 . S
H1171 C1177 0.950 . S
H1172 C1178 0.949 . S
C1173 H1168 0.950 . S
C1173 C1175 1.327 . S
C1173 C1179 1.429 . S
C1174 C1166 1.574 . S
C1174 H1169 0.949 . S
C1174 C1180 1.368 . S
C1175 C1159 1.349 . S
C1175 H1167 0.950 . S
C1175 C1173 1.327 . S
C1176 C1164 1.349 . S
C1176 H1170 0.950 . S
C1176 C1177 1.327 . S
C1177 H1171 0.950 . S
C1177 C1176 1.327 . S
C1177 C1181 1.429 . S
C1178 C1161 1.574 . S
C1178 H1172 0.949 . S
C1178 C1182 1.368 . S
C1179 C1160 1.429 . S
C1179 C1173 1.429 . S
C1179 C1180 1.523 . S
C1180 C1161 1.368 . S
C1180 C1174 1.368 . S
C1180 C1179 1.523 . S
C1181 C1165 1.429 . S
C1181 C1177 1.429 . S
C1181 C1182 1.523 . S
C1182 C1166 1.368 . S
C1182 C1178 1.368 . S
C1182 C1181 1.523 . S
H1183 C1158 0.950 . S
H1184 C1160 0.950 . S
H1185 C1161 0.949 . S
H1186 C1163 0.950 . S
H1187 C1165 0.950 . S
C1188 C1189 1.349 . S
C1188 C1190 1.327 . S
C1188 H1213 0.950 . S
C1189 C1188 1.349 . S
C1189 C1205 1.349 . S
C1190 C1188 1.327 . S
C1190 C1209 1.429 . S
C1190 H1214 0.950 . S
C1191 C1208 1.574 . S
C1191 C1210 1.368 . S
C1191 H1215 0.949 . S
H1192 C1196 0.949 . S
C1193 C1194 1.349 . S
C1193 C1195 1.327 . S
C1193 H1216 0.950 . S
C1194 C1193 1.349 . S
C1194 C1206 1.349 . S
C1195 C1193 1.327 . S
C1195 C1211 1.429 . S
C1195 H1217 0.950 . S
C1196 H1192 0.949 . S
C1196 C1204 1.574 . S
C1196 C1212 1.368 . S
H1197 C1205 0.950 . S
H1198 C1203 0.950 . S
H1199 C1204 0.949 . S
H1200 C1206 0.950 . S
H1201 C1207 0.950 . S
H1202 C1208 0.949 . S
C1203 H1198 0.950 . S
C1203 C1205 1.327 . S
C1203 C1209 1.429 . S
C1204 C1196 1.574 . S
C1204 H1199 0.949 . S
C1204 C1210 1.368 . S
C1205 C1189 1.349 . S
C1205 H1197 0.950 . S
C1205 C1203 1.327 . S
C1206 C1194 1.349 . S
C1206 H1200 0.950 . S
C1206 C1207 1.327 . S
C1207 H1201 0.950 . S
C1207 C1206 1.327 . S
C1207 C1211 1.429 . S
C1208 C1191 1.574 . S
C1208 H1202 0.949 . S
C1208 C1212 1.368 . S
C1209 C1190 1.429 . S
C1209 C1203 1.429 . S
C1209 C1210 1.523 . S
C1210 C1191 1.368 . S
C1210 C1204 1.368 . S
C1210 C1209 1.523 . S
C1211 C1195 1.429 . S
C1211 C1207 1.429 . S
C1211 C1212 1.523 . S
C1212 C1196 1.368 . S
C1212 C1208 1.368 . S
C1212 C1211 1.523 . S
H1213 C1188 0.950 . S
H1214 C1190 0.950 . S
H1215 C1191 0.949 . S
H1216 C1193 0.950 . S
H1217 C1195 0.950 . S
C1218 C1219 1.349 . S
C1218 C1220 1.327 . S
C1218 H1243 0.950 . S
C1219 C1218 1.349 . S
C1219 C1235 1.349 . S
C1220 C1218 1.327 . S
C1220 C1239 1.429 . S
C1220 H1244 0.950 . S
C1221 C1238 1.574 . S
C1221 C1240 1.368 . S
C1221 H1245 0.949 . S
H1222 C1226 0.949 . S
C1223 C1224 1.349 . S
C1223 C1225 1.327 . S
C1223 H1246 0.950 . S
C1224 C1223 1.349 . S
C1224 C1236 1.349 . S
C1225 C1223 1.327 . S
C1225 C1241 1.429 . S
C1225 H1247 0.950 . S
C1226 H1222 0.949 . S
C1226 C1234 1.574 . S
C1226 C1242 1.368 . S
H1227 C1235 0.950 . S
H1228 C1233 0.950 . S
H1229 C1234 0.949 . S
H1230 C1236 0.950 . S
H1231 C1237 0.950 . S
H1232 C1238 0.949 . S
C1233 H1228 0.950 . S
C1233 C1235 1.327 . S
C1233 C1239 1.429 . S
C1234 C1226 1.574 . S
C1234 H1229 0.949 . S
C1234 C1240 1.368 . S
C1235 C1219 1.349 . S
C1235 H1227 0.950 . S
C1235 C1233 1.327 . S
C1236 C1224 1.349 . S
C1236 H1230 0.950 . S
C1236 C1237 1.327 . S
C1237 H1231 0.950 . S
C1237 C1236 1.327 . S
C1237 C1241 1.429 . S
C1238 C1221 1.574 . S
C1238 H1232 0.949 . S
C1238 C1242 1.368 . S
C1239 C1220 1.429 . S
C1239 C1233 1.429 . S
C1239 C1240 1.523 . S
C1240 C1221 1.368 . S
C1240 C1234 1.368 . S
C1240 C1239 1.523 . S
C1241 C1225 1.429 . S
C1241 C1237 1.429 . S
C1241 C1242 1.523 . S
C1242 C1226 1.368 . S
C1242 C1238 1.368 . S
C1242 C1241 1.523 . S
H1243 C1218 0.950 . S
H1244 C1220 0.950 . S
H1245 C1221 0.949 . S
H1246 C1223 0.950 . S
H1247 C1225 0.950 . S
C1248 C1249 1.349 . S
C1248 C1250 1.327 . S
C1248 H1273 0.950 . S
C1249 C1248 1.349 . S
C1249 C1265 1.349 . S
C1250 C1248 1.327 . S
C1250 C1269 1.429 . S
C1250 H1274 0.950 . S
C1251 C1268 1.574 . S
C1251 C1270 1.368 . S
C1251 H1275 0.949 . S
H1252 C1256 0.949 . S
C1253 C1254 1.349 . S
C1253 C1255 1.327 . S
C1253 H1276 0.950 . S
C1254 C1253 1.349 . S
C1254 C1266 1.349 . S
C1255 C1253 1.327 . S
C1255 C1271 1.429 . S
C1255 H1277 0.950 . S
C1256 H1252 0.949 . S
C1256 C1264 1.574 . S
C1256 C1272 1.368 . S
H1257 C1265 0.950 . S
H1258 C1263 0.950 . S
H1259 C1264 0.949 . S
H1260 C1266 0.950 . S
H1261 C1267 0.950 . S
H1262 C1268 0.949 . S
C1263 H1258 0.950 . S
C1263 C1265 1.327 . S
C1263 C1269 1.429 . S
C1264 C1256 1.574 . S
C1264 H1259 0.949 . S
C1264 C1270 1.368 . S
C1265 C1249 1.349 . S
C1265 H1257 0.950 . S
C1265 C1263 1.327 . S
C1266 C1254 1.349 . S
C1266 H1260 0.950 . S
C1266 C1267 1.327 . S
C1267 H1261 0.950 . S
C1267 C1266 1.327 . S
C1267 C1271 1.429 . S
C1268 C1251 1.574 . S
C1268 H1262 0.949 . S
C1268 C1272 1.368 . S
C1269 C1250 1.429 . S
C1269 C1263 1.429 . S
C1269 C1270 1.523 . S
C1270 C1251 1.368 . S
C1270 C1264 1.368 . S
C1270 C1269 1.523 . S
C1271 C1255 1.429 . S
C1271 C1267 1.429 . S
C1271 C1272 1.523 . S
C1272 C1256 1.368 . S
C1272 C1268 1.368 . S
C1272 C1271 1.523 . S
H1273 C1248 0.950 . S
H1274 C1250 0.950 . S
H1275 C1251 0.949 . S
H1276 C1253 0.950 . S
H1277 C1255 0.950 . S
C1278 C1279 1.349 . S
C1278 C1280 1.327 . S
C1278 H1303 0.950 . S
C1279 C1278 1.349 . S
C1279 C1295 1.349 . S
C1280 C1278 1.327 . S
C1280 C1299 1.429 . S
C1280 H1304 0.950 . S
C1281 C1298 1.574 . S
C1281 C1300 1.368 . S
C1281 H1305 0.949 . S
H1282 C1286 0.949 . S
C1283 C1284 1.349 . S
C1283 C1285 1.327 . S
C1283 H1306 0.950 . S
C1284 C1283 1.349 . S
C1284 C1296 1.349 . S
C1285 C1283 1.327 . S
C1285 C1301 1.429 . S
C1285 H1307 0.950 . S
C1286 H1282 0.949 . S
C1286 C1294 1.574 . S
C1286 C1302 1.368 . S
H1287 C1295 0.950 . S
H1288 C1293 0.950 . S
H1289 C1294 0.949 . S
H1290 C1296 0.950 . S
H1291 C1297 0.950 . S
H1292 C1298 0.949 . S
C1293 H1288 0.950 . S
C1293 C1295 1.327 . S
C1293 C1299 1.429 . S
C1294 C1286 1.574 . S
C1294 H1289 0.949 . S
C1294 C1300 1.368 . S
C1295 C1279 1.349 . S
C1295 H1287 0.950 . S
C1295 C1293 1.327 . S
C1296 C1284 1.349 . S
C1296 H1290 0.950 . S
C1296 C1297 1.327 . S
C1297 H1291 0.950 . S
C1297 C1296 1.327 . S
C1297 C1301 1.429 . S
C1298 C1281 1.574 . S
C1298 H1292 0.949 . S
C1298 C1302 1.368 . S
C1299 C1280 1.429 . S
C1299 C1293 1.429 . S
C1299 C1300 1.523 . S
C1300 C1281 1.368 . S
C1300 C1294 1.368 . S
C1300 C1299 1.523 . S
C1301 C1285 1.429 . S
C1301 C1297 1.429 . S
C1301 C1302 1.523 . S
C1302 C1286 1.368 . S
C1302 C1298 1.368 . S
C1302 C1301 1.523 . S
H1303 C1278 0.950 . S
H1304 C1280 0.950 . S
H1305 C1281 0.949 . S
H1306 C1283 0.950 . S
H1307 C1285 0.950 . S
C1308 C1309 1.349 . S
C1308 C1310 1.327 . S
C1308 H1333 0.950 . S
C1309 C1308 1.349 . S
C1309 C1325 1.349 . S
C1310 C1308 1.327 . S
C1310 C1329 1.429 . S
C1310 H1334 0.950 . S
C1311 C1328 1.574 . S
C1311 C1330 1.368 . S
C1311 H1335 0.949 . S
H1312 C1316 0.949 . S
C1313 C1314 1.349 . S
C1313 C1315 1.327 . S
C1313 H1336 0.950 . S
C1314 C1313 1.349 . S
C1314 C1326 1.349 . S
C1315 C1313 1.327 . S
C1315 C1331 1.429 . S
C1315 H1337 0.950 . S
C1316 H1312 0.949 . S
C1316 C1324 1.574 . S
C1316 C1332 1.368 . S
H1317 C1325 0.950 . S
H1318 C1323 0.950 . S
H1319 C1324 0.949 . S
H1320 C1326 0.950 . S
H1321 C1327 0.950 . S
H1322 C1328 0.949 . S
C1323 H1318 0.950 . S
C1323 C1325 1.327 . S
C1323 C1329 1.429 . S
C1324 C1316 1.574 . S
C1324 H1319 0.949 . S
C1324 C1330 1.368 . S
C1325 C1309 1.349 . S
C1325 H1317 0.950 . S
C1325 C1323 1.327 . S
C1326 C1314 1.349 . S
C1326 H1320 0.950 . S
C1326 C1327 1.327 . S
C1327 H1321 0.950 . S
C1327 C1326 1.327 . S
C1327 C1331 1.429 . S
C1328 C1311 1.574 . S
C1328 H1322 0.949 . S
C1328 C1332 1.368 . S
C1329 C1310 1.429 . S
C1329 C1323 1.429 . S
C1329 C1330 1.523 . S
C1330 C1311 1.368 . S
C1330 C1324 1.368 . S
C1330 C1329 1.523 . S
C1331 C1315 1.429 . S
C1331 C1327 1.429 . S
C1331 C1332 1.523 . S
C1332 C1316 1.368 . S
C1332 C1328 1.368 . S
C1332 C1331 1.523 . S
H1333 C1308 0.950 . S
H1334 C1310 0.950 . S
H1335 C1311 0.949 . S
H1336 C1313 0.950 . S
H1337 C1315 0.950 . S
C1338 C1339 1.349 . S
C1338 C1340 1.327 . S
C1338 H1363 0.950 . S
C1339 C1338 1.349 . S
C1339 C1355 1.349 . S
C1340 C1338 1.327 . S
C1340 C1359 1.429 . S
C1340 H1364 0.950 . S
C1341 C1358 1.574 . S
C1341 C1360 1.368 . S
C1341 H1365 0.949 . S
H1342 C1346 0.949 . S
C1343 C1344 1.349 . S
C1343 C1345 1.327 . S
C1343 H1366 0.950 . S
C1344 C1343 1.349 . S
C1344 C1356 1.349 . S
C1345 C1343 1.327 . S
C1345 C1361 1.429 . S
C1345 H1367 0.950 . S
C1346 H1342 0.949 . S
C1346 C1354 1.574 . S
C1346 C1362 1.368 . S
H1347 C1355 0.950 . S
H1348 C1353 0.950 . S
H1349 C1354 0.949 . S
H1350 C1356 0.950 . S
H1351 C1357 0.950 . S
H1352 C1358 0.949 . S
C1353 H1348 0.950 . S
C1353 C1355 1.327 . S
C1353 C1359 1.429 . S
C1354 C1346 1.574 . S
C1354 H1349 0.949 . S
C1354 C1360 1.368 . S
C1355 C1339 1.349 . S
C1355 H1347 0.950 . S
C1355 C1353 1.327 . S
C1356 C1344 1.349 . S
C1356 H1350 0.950 . S
C1356 C1357 1.327 . S
C1357 H1351 0.950 . S
C1357 C1356 1.327 . S
C1357 C1361 1.429 . S
C1358 C1341 1.574 . S
C1358 H1352 0.949 . S
C1358 C1362 1.368 . S
C1359 C1340 1.429 . S
C1359 C1353 1.429 . S
C1359 C1360 1.523 . S
C1360 C1341 1.368 . S
C1360 C1354 1.368 . S
C1360 C1359 1.523 . S
C1361 C1345 1.429 . S
C1361 C1357 1.429 . S
C1361 C1362 1.523 . S
C1362 C1346 1.368 . S
C1362 C1358 1.368 . S
C1362 C1361 1.523 . S
H1363 C1338 0.950 . S
H1364 C1340 0.950 . S
H1365 C1341 0.949 . S
H1366 C1343 0.950 . S
H1367 C1345 0.950 . S
C1368 C1369 1.349 . S
C1368 C1370 1.327 . S
C1368 H1393 0.950 . S
C1369 C1368 1.349 . S
C1369 C1385 1.349 . S
C1370 C1368 1.327 . S
C1370 C1389 1.429 . S
C1370 H1394 0.950 . S
C1371 C1388 1.574 . S
C1371 C1390 1.368 . S
C1371 H1395 0.949 . S
H1372 C1376 0.949 . S
C1373 C1374 1.349 . S
C1373 C1375 1.327 . S
C1373 H1396 0.950 . S
C1374 C1373 1.349 . S
C1374 C1386 1.349 . S
C1375 C1373 1.327 . S
C1375 C1391 1.429 . S
C1375 H1397 0.950 . S
C1376 H1372 0.949 . S
C1376 C1384 1.574 . S
C1376 C1392 1.368 . S
H1377 C1385 0.950 . S
H1378 C1383 0.950 . S
H1379 C1384 0.949 . S
H1380 C1386 0.950 . S
H1381 C1387 0.950 . S
H1382 C1388 0.949 . S
C1383 H1378 0.950 . S
C1383 C1385 1.327 . S
C1383 C1389 1.429 . S
C1384 C1376 1.574 . S
C1384 H1379 0.949 . S
C1384 C1390 1.368 . S
C1385 C1369 1.349 . S
C1385 H1377 0.950 . S
C1385 C1383 1.327 . S
C1386 C1374 1.349 . S
C1386 H1380 0.950 . S
C1386 C1387 1.327 . S
C1387 H1381 0.950 . S
C1387 C1386 1.327 . S
C1387 C1391 1.429 . S
C1388 C1371 1.574 . S
C1388 H1382 0.949 . S
C1388 C1392 1.368 . S
C1389 C1370 1.429 . S
C1389 C1383 1.429 . S
C1389 C1390 1.523 . S
C1390 C1371 1.368 . S
C1390 C1384 1.368 . S
C1390 C1389 1.523 . S
C1391 C1375 1.429 . S
C1391 C1387 1.429 . S
C1391 C1392 1.523 . S
C1392 C1376 1.368 . S
C1392 C1388 1.368 . S
C1392 C1391 1.523 . S
H1393 C1368 0.950 . S
H1394 C1370 0.950 . S
H1395 C1371 0.949 . S
H1396 C1373 0.950 . S
H1397 C1375 0.950 . S
C1398 C1399 1.349 . S
C1398 C1400 1.327 . S
C1398 H1423 0.950 . S
C1399 C1398 1.349 . S
C1399 C1415 1.349 . S
C1400 C1398 1.327 . S
C1400 C1419 1.429 . S
C1400 H1424 0.950 . S
C1401 C1418 1.574 . S
C1401 C1420 1.368 . S
C1401 H1425 0.949 . S
H1402 C1406 0.949 . S
C1403 C1404 1.349 . S
C1403 C1405 1.327 . S
C1403 H1426 0.950 . S
C1404 C1403 1.349 . S
C1404 C1416 1.349 . S
C1405 C1403 1.327 . S
C1405 C1421 1.429 . S
C1405 H1427 0.950 . S
C1406 H1402 0.949 . S
C1406 C1414 1.574 . S
C1406 C1422 1.368 . S
H1407 C1415 0.950 . S
H1408 C1413 0.950 . S
H1409 C1414 0.949 . S
H1410 C1416 0.950 . S
H1411 C1417 0.950 . S
H1412 C1418 0.949 . S
C1413 H1408 0.950 . S
C1413 C1415 1.327 . S
C1413 C1419 1.429 . S
C1414 C1406 1.574 . S
C1414 H1409 0.949 . S
C1414 C1420 1.368 . S
C1415 C1399 1.349 . S
C1415 H1407 0.950 . S
C1415 C1413 1.327 . S
C1416 C1404 1.349 . S
C1416 H1410 0.950 . S
C1416 C1417 1.327 . S
C1417 H1411 0.950 . S
C1417 C1416 1.327 . S
C1417 C1421 1.429 . S
C1418 C1401 1.574 . S
C1418 H1412 0.949 . S
C1418 C1422 1.368 . S
C1419 C1400 1.429 . S
C1419 C1413 1.429 . S
C1419 C1420 1.523 . S
C1420 C1401 1.368 . S
C1420 C1414 1.368 . S
C1420 C1419 1.523 . S
C1421 C1405 1.429 . S
C1421 C1417 1.429 . S
C1421 C1422 1.523 . S
C1422 C1406 1.368 . S
C1422 C1418 1.368 . S
C1422 C1421 1.523 . S
H1423 C1398 0.950 . S
H1424 C1400 0.950 . S
H1425 C1401 0.949 . S
H1426 C1403 0.950 . S
H1427 C1405 0.950 . S
C1428 C1429 1.349 . S
C1428 C1430 1.327 . S
C1428 H1453 0.950 . S
C1429 C1428 1.349 . S
C1429 C1445 1.349 . S
C1430 C1428 1.327 . S
C1430 C1449 1.429 . S
C1430 H1454 0.950 . S
C1431 C1448 1.574 . S
C1431 C1450 1.368 . S
C1431 H1455 0.949 . S
H1432 C1436 0.949 . S
C1433 C1434 1.349 . S
C1433 C1435 1.327 . S
C1433 H1456 0.950 . S
C1434 C1433 1.349 . S
C1434 C1446 1.349 . S
C1435 C1433 1.327 . S
C1435 C1451 1.429 . S
C1435 H1457 0.950 . S
C1436 H1432 0.949 . S
C1436 C1444 1.574 . S
C1436 C1452 1.368 . S
H1437 C1445 0.950 . S
H1438 C1443 0.950 . S
H1439 C1444 0.949 . S
H1440 C1446 0.950 . S
H1441 C1447 0.950 . S
H1442 C1448 0.949 . S
C1443 H1438 0.950 . S
C1443 C1445 1.327 . S
C1443 C1449 1.429 . S
C1444 C1436 1.574 . S
C1444 H1439 0.949 . S
C1444 C1450 1.368 . S
C1445 C1429 1.349 . S
C1445 H1437 0.950 . S
C1445 C1443 1.327 . S
C1446 C1434 1.349 . S
C1446 H1440 0.950 . S
C1446 C1447 1.327 . S
C1447 H1441 0.950 . S
C1447 C1446 1.327 . S
C1447 C1451 1.429 . S
C1448 C1431 1.574 . S
C1448 H1442 0.949 . S
C1448 C1452 1.368 . S
C1449 C1430 1.429 . S
C1449 C1443 1.429 . S
C1449 C1450 1.523 . S
C1450 C1431 1.368 . S
C1450 C1444 1.368 . S
C1450 C1449 1.523 . S
C1451 C1435 1.429 . S
C1451 C1447 1.429 . S
C1451 C1452 1.523 . S
C1452 C1436 1.368 . S
C1452 C1448 1.368 . S
C1452 C1451 1.523 . S
H1453 C1428 0.950 . S
H1454 C1430 0.950 . S
H1455 C1431 0.949 . S
H1456 C1433 0.950 . S
H1457 C1435 0.950 . S
C1458 C1459 1.349 . S
C1458 C1460 1.327 . S
C1458 H1483 0.950 . S
C1459 C1458 1.349 . S
C1459 C1475 1.349 . S
C1460 C1458 1.327 . S
C1460 C1479 1.429 . S
C1460 H1484 0.950 . S
C1461 C1478 1.574 . S
C1461 C1480 1.368 . S
C1461 H1485 0.949 . S
H1462 C1466 0.949 . S
C1463 C1464 1.349 . S
C1463 C1465 1.327 . S
C1463 H1486 0.950 . S
C1464 C1463 1.349 . S
C1464 C1476 1.349 . S
C1465 C1463 1.327 . S
C1465 C1481 1.429 . S
C1465 H1487 0.950 . S
C1466 H1462 0.949 . S
C1466 C1474 1.574 . S
C1466 C1482 1.368 . S
H1467 C1475 0.950 . S
H1468 C1473 0.950 . S
H1469 C1474 0.949 . S
H1470 C1476 0.950 . S
H1471 C1477 0.950 . S
H1472 C1478 0.949 . S
C1473 H1468 0.950 . S
C1473 C1475 1.327 . S
C1473 C1479 1.429 . S
C1474 C1466 1.574 . S
C1474 H1469 0.949 . S
C1474 C1480 1.368 . S
C1475 C1459 1.349 . S
C1475 H1467 0.950 . S
C1475 C1473 1.327 . S
C1476 C1464 1.349 . S
C1476 H1470 0.950 . S
C1476 C1477 1.327 . S
C1477 H1471 0.950 . S
C1477 C1476 1.327 . S
C1477 C1481 1.429 . S
C1478 C1461 1.574 . S
C1478 H1472 0.949 . S
C1478 C1482 1.368 . S
C1479 C1460 1.429 . S
C1479 C1473 1.429 . S
C1479 C1480 1.523 . S
C1480 C1461 1.368 . S
C1480 C1474 1.368 . S
C1480 C1479 1.523 . S
C1481 C1465 1.429 . S
C1481 C1477 1.429 . S
C1481 C1482 1.523 . S
C1482 C1466 1.368 . S
C1482 C1478 1.368 . S
C1482 C1481 1.523 . S
H1483 C1458 0.950 . S
H1484 C1460 0.950 . S
H1485 C1461 0.949 . S
H1486 C1463 0.950 . S
H1487 C1465 0.950 . S
C409 C68 0.696 . S
C414 C8 0.693 . S
C439 C131 0.697 . S
C444 C51 0.693 . S
C469 C76 0.693 . S
C474 C136 0.696 . S
C499 C119 0.693 . S
C504 C199 0.697 . S
C529 C0 0.696 . S
C534 C144 0.693 . S
C559 C63 0.696 . S
C564 C187 0.693 . S
C589 C369 0.697 . S
C594 C221 0.693 . S
C619 C246 0.693 . S
C624 C374 0.696 . S
C649 C289 0.693 . S
C654 C233 0.697 . S
C679 C314 0.693 . S
C684 C238 0.696 . S
C709 C357 0.693 . S
C714 C301 0.696 . S
C739 C306 0.696 . S
C744 C382 0.693 . S
C769 C106 1.646 . S
C774 C13 1.646 . S
C799 C38 1.646 . S
C804 C149 1.646 . S
C829 C81 1.646 . S
C834 C174 1.646 . S
C859 C208 1.646 . S
C864 C319 1.646 . S
C889 C251 1.646 . S
C894 C344 1.646 . S
C919 C276 1.646 . S
C924 C387 1.646 . S
C949 C242 1.874 . S
C954 C4 1.874 . S
C979 C47 1.874 . S
C984 C285 1.874 . S
C1009 C310 1.874 . S
C1014 C72 1.874 . S
C1039 C115 1.874 . S
C1044 C353 1.874 . S
C1069 C140 1.874 . S
C1074 C378 1.874 . S
C1099 C217 1.874 . S
C1104 C183 1.874 . S
C1129 C97 1.007 . S
C1134 C17 1.001 . S
C1159 C42 1.001 . S
C1164 C102 1.007 . S
C1189 C85 1.001 . S
C1194 C165 1.007 . S
C1219 C110 1.000 . S
C1224 C170 1.006 . S
C1249 C29 1.007 . S
C1254 C153 1.001 . S
C1279 C34 1.007 . S
C1284 C178 1.001 . S
C1309 C340 1.006 . S
C1314 C212 1.000 . S
C1339 C255 1.001 . S
C1344 C403 1.007 . S
C1369 C280 1.001 . S
C1374 C204 1.007 . S
C1399 C267 1.007 . S
C1404 C323 1.001 . S
C1429 C348 1.001 . S
C1434 C272 1.007 . S
C1459 C391 1.001 . S
C1464 C335 1.007 . S
