# Generated by pormake.
# Topology uou, (4)-cn, num edge types: 1
# Building blocks:
#     Node 0, Type 0, BuildingBlock: CEKHIL_clean_sbu_0, # of connection points: 4
#     Node 1, Type 0, BuildingBlock: CEKHIL_clean_sbu_0, # of connection points: 4
#     Node 2, Type 0, BuildingBlock: CEKHIL_clean_sbu_0, # of connection points: 4
#     Node 3, Type 0, BuildingBlock: CEKHIL_clean_sbu_0, # of connection points: 4
#     Node 4, Type 0, BuildingBlock: CEKHIL_clean_sbu_0, # of connection points: 4
#     Node 5, Type 0, BuildingBlock: CEKHIL_clean_sbu_0, # of connection points: 4
#     Node 6, Type 0, BuildingBlock: CEKHIL_clean_sbu_0, # of connection points: 4
#     Node 7, Type 0, BuildingBlock: CEKHIL_clean_sbu_0, # of connection points: 4
#     Node 8, Type 0, BuildingBlock: CEKHIL_clean_sbu_0, # of connection points: 4
#     Node 9, Type 0, BuildingBlock: CEKHIL_clean_sbu_0, # of connection points: 4
#     Node 10, Type 0, BuildingBlock: CEKHIL_clean_sbu_0, # of connection points: 4
#     Node 11, Type 0, BuildingBlock: CEKHIL_clean_sbu_0, # of connection points: 4
#     Node 12, Type 0, BuildingBlock: CEKHIL_clean_sbu_0, # of connection points: 4
#     Node 13, Type 0, BuildingBlock: CEKHIL_clean_sbu_0, # of connection points: 4
#     Node 14, Type 0, BuildingBlock: CEKHIL_clean_sbu_0, # of connection points: 4
#     Node 15, Type 0, BuildingBlock: CEKHIL_clean_sbu_0, # of connection points: 4
#     Edge 16, Type (0, 0), BuildingBlock: EYOCIG_clean_linker_4, # of connection points: 2
#     Edge 17, Type (0, 0), BuildingBlock: EYOCIG_clean_linker_4, # of connection points: 2
#     Edge 18, Type (0, 0), BuildingBlock: EYOCIG_clean_linker_4, # of connection points: 2
#     Edge 19, Type (0, 0), BuildingBlock: EYOCIG_clean_linker_4, # of connection points: 2
#     Edge 20, Type (0, 0), BuildingBlock: EYOCIG_clean_linker_4, # of connection points: 2
#     Edge 21, Type (0, 0), BuildingBlock: EYOCIG_clean_linker_4, # of connection points: 2
#     Edge 22, Type (0, 0), BuildingBlock: EYOCIG_clean_linker_4, # of connection points: 2
#     Edge 23, Type (0, 0), BuildingBlock: EYOCIG_clean_linker_4, # of connection points: 2
#     Edge 24, Type (0, 0), BuildingBlock: EYOCIG_clean_linker_4, # of connection points: 2
#     Edge 25, Type (0, 0), BuildingBlock: EYOCIG_clean_linker_4, # of connection points: 2
#     Edge 26, Type (0, 0), BuildingBlock: EYOCIG_clean_linker_4, # of connection points: 2
#     Edge 27, Type (0, 0), BuildingBlock: EYOCIG_clean_linker_4, # of connection points: 2
#     Edge 28, Type (0, 0), BuildingBlock: EYOCIG_clean_linker_4, # of connection points: 2
#     Edge 29, Type (0, 0), BuildingBlock: EYOCIG_clean_linker_4, # of connection points: 2
#     Edge 30, Type (0, 0), BuildingBlock: EYOCIG_clean_linker_4, # of connection points: 2
#     Edge 31, Type (0, 0), BuildingBlock: EYOCIG_clean_linker_4, # of connection points: 2
#     Edge 32, Type (0, 0), BuildingBlock: EYOCIG_clean_linker_4, # of connection points: 2
#     Edge 33, Type (0, 0), BuildingBlock: EYOCIG_clean_linker_4, # of connection points: 2
#     Edge 34, Type (0, 0), BuildingBlock: EYOCIG_clean_linker_4, # of connection points: 2
#     Edge 35, Type (0, 0), BuildingBlock: EYOCIG_clean_linker_4, # of connection points: 2
#     Edge 36, Type (0, 0), BuildingBlock: EYOCIG_clean_linker_4, # of connection points: 2
#     Edge 37, Type (0, 0), BuildingBlock: EYOCIG_clean_linker_4, # of connection points: 2
#     Edge 38, Type (0, 0), BuildingBlock: EYOCIG_clean_linker_4, # of connection points: 2
#     Edge 39, Type (0, 0), BuildingBlock: EYOCIG_clean_linker_4, # of connection points: 2
#     Edge 40, Type (0, 0), BuildingBlock: EYOCIG_clean_linker_4, # of connection points: 2
#     Edge 41, Type (0, 0), BuildingBlock: EYOCIG_clean_linker_4, # of connection points: 2
#     Edge 42, Type (0, 0), BuildingBlock: EYOCIG_clean_linker_4, # of connection points: 2
#     Edge 43, Type (0, 0), BuildingBlock: EYOCIG_clean_linker_4, # of connection points: 2
#     Edge 44, Type (0, 0), BuildingBlock: EYOCIG_clean_linker_4, # of connection points: 2
#     Edge 45, Type (0, 0), BuildingBlock: EYOCIG_clean_linker_4, # of connection points: 2
#     Edge 46, Type (0, 0), BuildingBlock: EYOCIG_clean_linker_4, # of connection points: 2
#     Edge 47, Type (0, 0), BuildingBlock: EYOCIG_clean_linker_4, # of connection points: 2
# Relax obj value: 0.039
# Max RMSD: 0.066
# Mean RMSD: 0.066
data_MOF--net-uou--node1-CEKHIL_clean_sbu_0--edge1-EYOCIG_clean_linker_4
_symmetry_space_group_name_H-M    P1
_symmetry_Int_Tables_number       1
_symmetry_cell_setting            triclinic
loop_
_symmetry_equiv_pos_as_xyz
'x, y, z'
_cell_length_a     29.6757
_cell_length_b     31.818968
_cell_length_c     41.906077
_cell_angle_alpha  89.974136
_cell_angle_beta   90.014362
_cell_angle_gamma 89.970752
loop_
_atom_site_label
_atom_site_type_symbol
_atom_site_fract_x
_atom_site_fract_y
_atom_site_fract_z
_atom_type_partial_charge
Co0 Co 0.08689 0.0714 0.12451 0.0
O1 O 0.12264 0.021 0.12929 0.0
O2 O 0.14762 0.08158 0.10991 0.0
C3 C 0.05574 0.06805 0.17364 0.0
O4 O 0.06211 0.13066 0.11688 0.0
Co5 Co 0.98256 0.07051 0.12724 0.0
O6 O 0.98657 0.132 0.1216 0.0
C7 C 0.02938 0.04006 0.06987 0.0
C8 C 0.15586 0.04299 0.11808 0.0
C9 C 0.02403 0.15004 0.11648 0.0
O10 O 0.06755 0.05318 0.08045 0.0
O11 O 0.99279 0.04095 0.08583 0.0
O12 O 0.09546 0.08424 0.16966 0.0
O13 O 0.03709 0.05216 0.14858 0.0
Co14 Co 0.43368 0.9352 0.1246 0.0
O15 O 0.39857 0.98598 0.12936 0.0
O16 O 0.37263 0.92549 0.1105 0.0
C17 C 0.46561 0.93854 0.1735 0.0
O18 O 0.45788 0.87568 0.11712 0.0
Co19 Co 0.53797 0.9357 0.12632 0.0
O20 O 0.53351 0.87417 0.12113 0.0
C21 C 0.49033 0.96561 0.06914 0.0
C22 C 0.36497 0.96427 0.11843 0.0
C23 C 0.4959 0.85618 0.11651 0.0
O24 O 0.45234 0.95287 0.08025 0.0
O25 O 0.52726 0.96472 0.08472 0.0
O26 O 0.42566 0.92273 0.16986 0.0
O27 O 0.48401 0.95424 0.14826 0.0
Co28 Co 0.58732 0.93522 0.36926 0.0
O29 O 0.62249 0.98589 0.36437 0.0
O30 O 0.64811 0.92562 0.38395 0.0
C31 C 0.55643 0.93808 0.32003 0.0
O32 O 0.56313 0.87574 0.37691 0.0
Co33 Co 0.4832 0.93544 0.36653 0.0
O34 O 0.4877 0.87389 0.37156 0.0
C35 C 0.52948 0.96646 0.4239 0.0
C36 C 0.65594 0.96422 0.37562 0.0
C37 C 0.52524 0.85606 0.37686 0.0
O38 O 0.56774 0.95356 0.4133 0.0
O39 O 0.49288 0.96517 0.40796 0.0
O40 O 0.59625 0.92219 0.3242 0.0
O41 O 0.53746 0.95402 0.34498 0.0
Co42 Co 0.9339 0.07114 0.36928 0.0
O43 O 0.89824 0.02081 0.36425 0.0
O44 O 0.8732 0.08119 0.38398 0.0
C45 C 0.96477 0.06827 0.32007 0.0
O46 O 0.95885 0.1303 0.3771 0.0
Co47 Co 0.03808 0.06969 0.36658 0.0
O48 O 0.03434 0.13123 0.37193 0.0
C49 C 0.99134 0.0392 0.42392 0.0
C50 C 0.86501 0.04268 0.37557 0.0
C51 C 0.99704 0.14949 0.37723 0.0
O52 O 0.95324 0.05243 0.41327 0.0
O53 O 0.02799 0.04013 0.40803 0.0
O54 O 0.92512 0.08452 0.32425 0.0
O55 O 0.98353 0.05199 0.34498 0.0
Co56 Co 0.93411 0.9352 0.86921 0.0
O57 O 0.89874 0.98583 0.86449 0.0
O58 O 0.87306 0.92515 0.88322 0.0
C59 C 0.96605 0.93893 0.82033 0.0
O60 O 0.95876 0.87581 0.87661 0.0
Co61 Co 0.03841 0.93649 0.86758 0.0
O62 O 0.03442 0.87493 0.87267 0.0
C63 C 0.99047 0.96551 0.92486 0.0
C64 C 0.86523 0.96393 0.87533 0.0
C65 C 0.99697 0.85662 0.87723 0.0
O66 O 0.95256 0.95275 0.91362 0.0
O67 O 0.02744 0.96493 0.90934 0.0
O68 O 0.92622 0.92286 0.82392 0.0
O69 O 0.98431 0.95465 0.84561 0.0
Co70 Co 0.58734 0.07145 0.86946 0.0
O71 O 0.62299 0.02105 0.86451 0.0
O72 O 0.64798 0.08133 0.88438 0.0
C73 C 0.55667 0.06879 0.82009 0.0
O74 O 0.56259 0.13062 0.87733 0.0
Co75 Co 0.48311 0.07054 0.86628 0.0
O76 O 0.4871 0.13197 0.87223 0.0
C77 C 0.52928 0.04007 0.92392 0.0
C78 C 0.65619 0.04283 0.87595 0.0
C79 C 0.5245 0.14996 0.87764 0.0
O80 O 0.5676 0.05281 0.91337 0.0
O81 O 0.49274 0.04125 0.90789 0.0
O82 O 0.59636 0.08486 0.82442 0.0
O83 O 0.53776 0.05256 0.84494 0.0
Co84 Co 0.43357 0.0712 0.6246 0.0
O85 O 0.39823 0.02053 0.6289 0.0
O86 O 0.37278 0.08133 0.61015 0.0
C87 C 0.46499 0.06753 0.67368 0.0
O88 O 0.45795 0.13064 0.61759 0.0
Co89 Co 0.53784 0.07028 0.62686 0.0
O90 O 0.53349 0.13192 0.62232 0.0
C91 C 0.49083 0.04131 0.56917 0.0
C92 C 0.36487 0.04253 0.61787 0.0
C93 C 0.49598 0.15005 0.61751 0.0
O94 O 0.45273 0.05389 0.58023 0.0
O95 O 0.52761 0.04195 0.58493 0.0
O96 O 0.42505 0.08334 0.66988 0.0
O97 O 0.48358 0.05187 0.64849 0.0
Co98 Co 0.08748 0.93488 0.62447 0.0
O99 O 0.12271 0.98561 0.62876 0.0
O100 O 0.1482 0.92499 0.60977 0.0
C101 C 0.05668 0.93854 0.67374 0.0
O102 O 0.06312 0.87538 0.61734 0.0
Co103 Co 0.98332 0.93553 0.62728 0.0
O104 O 0.98756 0.87403 0.62183 0.0
C105 C 0.02961 0.96478 0.56938 0.0
C106 C 0.15606 0.96377 0.61758 0.0
C107 C 0.02507 0.85596 0.61693 0.0
O108 O 0.06788 0.95236 0.58026 0.0
O109 O 0.99298 0.96393 0.5853 0.0
O110 O 0.09649 0.92259 0.66968 0.0
O111 O 0.03771 0.95414 0.64866 0.0
Co112 Co 0.58693 0.57116 0.12481 0.0
O113 O 0.62248 0.52072 0.12991 0.0
O114 O 0.64797 0.5813 0.11086 0.0
C115 C 0.5549 0.56776 0.17361 0.0
O116 O 0.56216 0.63042 0.11704 0.0
Co117 Co 0.48263 0.56983 0.12635 0.0
O118 O 0.48653 0.63139 0.1212 0.0
C119 C 0.53076 0.5399 0.06939 0.0
C120 C 0.65594 0.54266 0.11904 0.0
C121 C 0.52397 0.64965 0.11647 0.0
O122 O 0.56862 0.55302 0.0805 0.0
O123 O 0.49379 0.54063 0.08491 0.0
O124 O 0.59466 0.58398 0.17001 0.0
O125 O 0.53673 0.55179 0.14839 0.0
Co126 Co 0.93382 0.43511 0.12471 0.0
O127 O 0.89836 0.48562 0.12964 0.0
O128 O 0.87307 0.42532 0.10997 0.0
C129 C 0.9645 0.43806 0.174 0.0
O130 O 0.95846 0.37583 0.11695 0.0
Co131 Co 0.03802 0.43582 0.12778 0.0
O132 O 0.03396 0.37439 0.12197 0.0
C133 C 0.99179 0.46612 0.0701 0.0
C134 C 0.86502 0.46386 0.11838 0.0
C135 C 0.99653 0.35642 0.11664 0.0
O136 O 0.95345 0.45353 0.08073 0.0
O137 O 0.02836 0.46491 0.08609 0.0
O138 O 0.92484 0.42193 0.16975 0.0
O139 O 0.98346 0.45409 0.14909 0.0
Co140 Co 0.08715 0.43513 0.36929 0.0
O141 O 0.12216 0.48594 0.36455 0.0
O142 O 0.14828 0.42534 0.38319 0.0
C143 C 0.05507 0.4388 0.32049 0.0
O144 O 0.0631 0.37556 0.37667 0.0
Co145 Co 0.98284 0.43548 0.36769 0.0
O146 O 0.98747 0.37393 0.37265 0.0
C147 C 0.03056 0.46493 0.42497 0.0
C148 C 0.15586 0.46413 0.37526 0.0
C149 C 0.02514 0.35598 0.37723 0.0
O150 O 0.06861 0.45252 0.41373 0.0
O151 O 0.99359 0.46402 0.40945 0.0
O152 O 0.09503 0.42293 0.32401 0.0
O153 O 0.03671 0.4543 0.34581 0.0
Co154 Co 0.43386 0.57108 0.36935 0.0
O155 O 0.39815 0.52072 0.36462 0.0
O156 O 0.3732 0.58125 0.38411 0.0
C157 C 0.46442 0.56779 0.32007 0.0
O158 O 0.45888 0.63029 0.37683 0.0
Co159 Co 0.53806 0.56963 0.36625 0.0
O160 O 0.53433 0.63121 0.37132 0.0
C161 C 0.49171 0.53974 0.42398 0.0
C162 C 0.36494 0.54271 0.37584 0.0
C163 C 0.49706 0.6495 0.3767 0.0
O164 O 0.45349 0.55273 0.41337 0.0
O165 O 0.52825 0.54058 0.40795 0.0
O166 O 0.42481 0.58409 0.32429 0.0
O167 O 0.48333 0.55172 0.34499 0.0
Co168 Co 0.43403 0.43467 0.86943 0.0
O169 O 0.39841 0.4851 0.86442 0.0
O170 O 0.37327 0.4247 0.88403 0.0
C171 C 0.46515 0.43754 0.82024 0.0
O172 O 0.45874 0.37548 0.87729 0.0
Co173 Co 0.53833 0.43567 0.86672 0.0
O174 O 0.53427 0.37421 0.8725 0.0
C175 C 0.49163 0.46568 0.92426 0.0
C176 C 0.36511 0.46323 0.87565 0.0
C177 C 0.49685 0.35617 0.87772 0.0
O178 O 0.45337 0.45307 0.91349 0.0
O179 O 0.52829 0.46462 0.90839 0.0
O180 O 0.42541 0.42148 0.82433 0.0
O181 O 0.48382 0.45368 0.84521 0.0
Co182 Co 0.08718 0.57084 0.86925 0.0
O183 O 0.12223 0.52004 0.86443 0.0
O184 O 0.14831 0.58059 0.88311 0.0
C185 C 0.05499 0.56729 0.82045 0.0
O186 O 0.06312 0.63043 0.8767 0.0
Co187 Co 0.98293 0.57059 0.86782 0.0
O188 O 0.9875 0.63213 0.87272 0.0
C189 C 0.03078 0.54062 0.9249 0.0
C190 C 0.15592 0.54181 0.87516 0.0
C191 C 0.02517 0.65005 0.87727 0.0
O192 O 0.06875 0.55326 0.91369 0.0
O193 O 0.99378 0.54161 0.90942 0.0
O194 O 0.09493 0.58317 0.82396 0.0
O195 O 0.03669 0.55174 0.84578 0.0
Co196 Co 0.93387 0.57086 0.62454 0.0
O197 O 0.89848 0.52029 0.62916 0.0
O198 O 0.8732 0.5807 0.60962 0.0
C199 C 0.96444 0.56763 0.67387 0.0
O200 O 0.95855 0.63022 0.61703 0.0
Co201 Co 0.03805 0.56992 0.62765 0.0
O202 O 0.03407 0.6314 0.62198 0.0
C203 C 0.99181 0.53946 0.57011 0.0
C204 C 0.86522 0.54204 0.61773 0.0
C205 C 0.99667 0.64954 0.61677 0.0
O206 O 0.95362 0.55266 0.58056 0.0
O207 O 0.02829 0.54031 0.5862 0.0
O208 O 0.92474 0.58375 0.66962 0.0
O209 O 0.98345 0.55173 0.64894 0.0
Co210 Co 0.58757 0.4347 0.62464 0.0
O211 O 0.62343 0.48498 0.62909 0.0
O212 O 0.64822 0.42418 0.60997 0.0
C213 C 0.5566 0.43825 0.67383 0.0
O214 O 0.56231 0.37559 0.61746 0.0
Co215 Co 0.48331 0.43693 0.62724 0.0
O216 O 0.48677 0.37528 0.62248 0.0
C217 C 0.53033 0.46557 0.56946 0.0
C218 C 0.65653 0.46285 0.61787 0.0
C219 C 0.52397 0.35669 0.61747 0.0
O220 O 0.56834 0.45258 0.58042 0.0
O221 O 0.49362 0.46521 0.58529 0.0
O222 O 0.59629 0.42203 0.66982 0.0
O223 O 0.53801 0.45436 0.64879 0.0
C224 C 0.28284 0.99612 0.11532 0.0
C225 C 0.32042 0.98179 0.11681 0.0
C226 C 0.23843 0.01212 0.11522 0.0
C227 C 0.20068 0.02607 0.11657 0.0
C228 C 0.73821 0.99565 0.37818 0.0
C229 C 0.70057 0.98149 0.37695 0.0
C230 C 0.78259 0.01163 0.37818 0.0
C231 C 0.82026 0.0257 0.37696 0.0
C232 C 0.78305 0.99564 0.87841 0.0
C233 C 0.82063 0.98133 0.87696 0.0
C234 C 0.73868 0.01175 0.87859 0.0
C235 C 0.70099 0.02584 0.87735 0.0
C236 C 0.23825 0.99524 0.61424 0.0
C237 C 0.20066 0.98104 0.61582 0.0
C238 C 0.28262 0.01123 0.61433 0.0
C239 C 0.32024 0.02534 0.616 0.0
C240 C 0.78261 0.49513 0.11615 0.0
C241 C 0.82027 0.48094 0.1172 0.0
C242 C 0.73826 0.51125 0.11636 0.0
C243 C 0.70062 0.52544 0.11763 0.0
C244 C 0.28239 0.51186 0.37817 0.0
C245 C 0.3201 0.52587 0.37708 0.0
C246 C 0.23801 0.49584 0.37798 0.0
C247 C 0.20042 0.48158 0.37667 0.0
C248 C 0.23813 0.51012 0.87788 0.0
C249 C 0.2005 0.52434 0.87656 0.0
C250 C 0.28256 0.49417 0.87803 0.0
C251 C 0.3203 0.4802 0.87689 0.0
C252 C 0.73885 0.49404 0.61435 0.0
C253 C 0.70126 0.47983 0.61596 0.0
C254 C 0.78312 0.51031 0.61433 0.0
C255 C 0.82063 0.52472 0.61591 0.0
C256 C 1.00091 0.06467 0.26239 0.0
C257 C 0.98513 0.06592 0.28895 0.0
C258 C 0.01882 0.06461 0.23107 0.0
C259 C 0.03492 0.06578 0.20461 0.0
C260 C 0.50279 0.94199 0.23087 0.0
C261 C 0.48673 0.9409 0.20438 0.0
C262 C 0.52049 0.94183 0.26226 0.0
C263 C 0.53613 0.94053 0.28887 0.0
C264 C 0.02074 0.94261 0.7315 0.0
C265 C 0.03632 0.94118 0.70488 0.0
C266 C 1.00312 0.94273 0.76293 0.0
C267 C 0.98716 0.9415 0.78945 0.0
C268 C 0.50242 0.06496 0.73104 0.0
C269 C 0.48618 0.06569 0.70458 0.0
C270 C 0.52048 0.06534 0.76236 0.0
C271 C 0.53638 0.06658 0.78891 0.0
C272 C 0.51778 0.56394 0.23092 0.0
C273 C 0.5338 0.56518 0.20445 0.0
C274 C 0.50017 0.56399 0.26231 0.0
C275 C 0.48463 0.56531 0.28893 0.0
C276 C 0.01778 0.44245 0.2632 0.0
C277 C 0.03383 0.44129 0.28968 0.0
C278 C 1.00014 0.4422 0.2318 0.0
C279 C 0.98461 0.44071 0.20518 0.0
C280 C 0.51979 0.44102 0.73136 0.0
C281 C 0.53577 0.4402 0.70484 0.0
C282 C 0.50184 0.44079 0.76269 0.0
C283 C 0.4858 0.43969 0.78919 0.0
C284 C 0.01779 0.56338 0.76311 0.0
C285 C 0.03381 0.56466 0.7896 0.0
C286 C 1.00015 0.56353 0.7317 0.0
C287 C 0.9846 0.565 0.70507 0.0
C288 C 0.01582 0.23164 0.10745 0.0
C289 C 0.0229 0.19464 0.11122 0.0
C290 C 1.00485 0.27487 0.10746 0.0
C291 C 0.99769 0.31185 0.11128 0.0
C292 C 0.50405 0.77449 0.10793 0.0
C293 C 0.49687 0.81152 0.11152 0.0
C294 C 0.51526 0.73131 0.1079 0.0
C295 C 0.52262 0.6943 0.11149 0.0
C296 C 0.50604 0.73113 0.38527 0.0
C297 C 0.49859 0.69414 0.38173 0.0
C298 C 0.51726 0.77432 0.38532 0.0
C299 C 0.52438 0.81138 0.38185 0.0
C300 C 0.01721 0.27427 0.38578 0.0
C301 C 0.0243 0.31131 0.3822 0.0
C302 C 1.00598 0.2311 0.38586 0.0
C303 C 0.99852 0.19412 0.38229 0.0
C304 C 0.01717 0.73178 0.88563 0.0
C305 C 0.02433 0.69473 0.88214 0.0
C306 C 1.00585 0.77494 0.88563 0.0
C307 C 0.99838 0.81194 0.88211 0.0
C308 C 0.50517 0.27465 0.88696 0.0
C309 C 0.49804 0.31162 0.88309 0.0
C310 C 0.51616 0.23145 0.88696 0.0
C311 C 0.5233 0.19449 0.88307 0.0
C312 C 0.50395 0.23182 0.60944 0.0
C313 C 0.49701 0.19474 0.6128 0.0
C314 C 0.51489 0.27502 0.6094 0.0
C315 C 0.52222 0.31203 0.61276 0.0
C316 C 0.0167 0.77433 0.60811 0.0
C317 C 0.02396 0.81133 0.61179 0.0
C318 C 1.0054 0.73117 0.60802 0.0
C319 C 0.99798 0.69418 0.61164 0.0
C320 C 1.00211 0.99415 0.98284 0.0
C321 C 0.99285 0.9806 0.95689 0.0
C322 C 0.01651 0.01027 0.01235 0.0
C323 C 0.02618 0.02431 0.03807 0.0
C324 C 0.51622 0.01066 0.98161 0.0
C325 C 0.52585 0.02449 0.9558 0.0
C326 C 0.50201 0.99463 0.01122 0.0
C327 C 0.49285 0.98094 0.03715 0.0
C328 C 0.50284 0.01281 0.51108 0.0
C329 C 0.49362 0.02627 0.53709 0.0
C330 C 0.51687 0.99663 0.48145 0.0
C331 C 0.52627 0.98246 0.45569 0.0
C332 C 0.01725 0.99318 0.51129 0.0
C333 C 0.02649 0.97979 0.53732 0.0
C334 C 1.00343 0.00924 0.48158 0.0
C335 C 0.9943 0.02334 0.45575 0.0
C336 C 0.51909 0.51056 0.01161 0.0
C337 C 0.52838 0.52442 0.03746 0.0
C338 C 0.50461 0.49457 0.98206 0.0
C339 C 0.49486 0.48097 0.95621 0.0
C340 C 1.00487 0.49538 0.01237 0.0
C341 C 0.99519 0.48162 0.03819 0.0
C342 C 0.01916 0.51144 0.98278 0.0
C343 C 0.02837 0.52519 0.95687 0.0
C344 C 1.00461 0.50963 0.51255 0.0
C345 C 0.99511 0.52368 0.5383 0.0
C346 C 0.0188 0.49354 0.48297 0.0
C347 C 0.02804 0.48005 0.457 0.0
C348 C 0.51842 0.49422 0.5114 0.0
C349 C 0.52757 0.48067 0.5374 0.0
C350 C 0.50441 0.51028 0.48173 0.0
C351 C 0.49498 0.52416 0.45588 0.0
loop_
_geom_bond_atom_site_label_1
_geom_bond_atom_site_label_2
_geom_bond_distance
_geom_bond_site_symmetry_2
_ccdc_geom_bond_type
Co0 O1 2.216 . S
Co0 O2 2.091 . S
Co0 O4 2.004 . S
Co0 O10 2.021 . S
Co0 O12 2.137 . S
Co0 O13 2.244 . S
O1 Co0 2.216 . S
O1 C8 1.247 . S
O2 Co0 2.091 . S
O2 C8 1.261 . S
C3 O12 1.247 . S
C3 O13 1.272 . S
O4 Co0 2.004 . S
O4 C9 1.259 . S
Co5 O6 2.061 . S
Co5 O11 2.052 . S
Co5 O13 2.135 1_655 S
O6 Co5 2.061 . S
O6 C9 1.235 1_655 S
C7 O10 1.238 . S
C7 O11 1.241 1_455 S
C8 O1 1.247 . S
C8 O2 1.261 . S
C9 O4 1.259 . S
C9 O6 1.235 1_455 S
O10 Co0 2.021 . S
O10 C7 1.238 . S
O11 Co5 2.052 . S
O11 C7 1.241 1_655 S
O12 Co0 2.137 . S
O12 C3 1.247 . S
O13 Co0 2.244 . S
O13 C3 1.272 . S
O13 Co5 2.135 1_455 S
Co14 O15 2.216 . S
Co14 O16 2.091 . S
Co14 O18 2.004 . S
Co14 O24 2.021 . S
Co14 O26 2.137 . S
Co14 O27 2.244 . S
O15 Co14 2.216 . S
O15 C22 1.247 . S
O16 Co14 2.091 . S
O16 C22 1.261 . S
C17 O26 1.247 . S
C17 O27 1.272 . S
O18 Co14 2.004 . S
O18 C23 1.259 . S
Co19 O20 2.061 . S
Co19 O25 2.052 . S
Co19 O27 2.135 . S
O20 Co19 2.061 . S
O20 C23 1.235 . S
C21 O24 1.238 . S
C21 O25 1.241 . S
C22 O15 1.247 . S
C22 O16 1.261 . S
C23 O18 1.259 . S
C23 O20 1.235 . S
O24 Co14 2.021 . S
O24 C21 1.238 . S
O25 Co19 2.052 . S
O25 C21 1.241 . S
O26 Co14 2.137 . S
O26 C17 1.247 . S
O27 Co14 2.244 . S
O27 C17 1.272 . S
O27 Co19 2.135 . S
Co28 O29 2.216 . S
Co28 O30 2.091 . S
Co28 O32 2.004 . S
Co28 O38 2.021 . S
Co28 O40 2.137 . S
Co28 O41 2.244 . S
O29 Co28 2.216 . S
O29 C36 1.247 . S
O30 Co28 2.091 . S
O30 C36 1.261 . S
C31 O40 1.247 . S
C31 O41 1.272 . S
O32 Co28 2.004 . S
O32 C37 1.259 . S
Co33 O34 2.061 . S
Co33 O39 2.052 . S
Co33 O41 2.135 . S
O34 Co33 2.061 . S
O34 C37 1.235 . S
C35 O38 1.238 . S
C35 O39 1.241 . S
C36 O29 1.247 . S
C36 O30 1.261 . S
C37 O32 1.259 . S
C37 O34 1.235 . S
O38 Co28 2.021 . S
O38 C35 1.238 . S
O39 Co33 2.052 . S
O39 C35 1.241 . S
O40 Co28 2.137 . S
O40 C31 1.247 . S
O41 Co28 2.244 . S
O41 C31 1.272 . S
O41 Co33 2.135 . S
Co42 O43 2.216 . S
Co42 O44 2.091 . S
Co42 O46 2.004 . S
Co42 O52 2.021 . S
Co42 O54 2.137 . S
Co42 O55 2.244 . S
O43 Co42 2.216 . S
O43 C50 1.247 . S
O44 Co42 2.091 . S
O44 C50 1.261 . S
C45 O54 1.247 . S
C45 O55 1.272 . S
O46 Co42 2.004 . S
O46 C51 1.259 . S
Co47 O48 2.061 . S
Co47 O53 2.052 . S
Co47 O55 2.135 1_455 S
O48 Co47 2.061 . S
O48 C51 1.235 1_455 S
C49 O52 1.238 . S
C49 O53 1.241 1_655 S
C50 O43 1.247 . S
C50 O44 1.261 . S
C51 O46 1.259 . S
C51 O48 1.235 1_655 S
O52 Co42 2.021 . S
O52 C49 1.238 . S
O53 Co47 2.052 . S
O53 C49 1.241 1_455 S
O54 Co42 2.137 . S
O54 C45 1.247 . S
O55 Co42 2.244 . S
O55 C45 1.272 . S
O55 Co47 2.135 1_655 S
Co56 O57 2.216 . S
Co56 O58 2.091 . S
Co56 O60 2.004 . S
Co56 O66 2.021 . S
Co56 O68 2.137 . S
Co56 O69 2.244 . S
O57 Co56 2.216 . S
O57 C64 1.247 . S
O58 Co56 2.091 . S
O58 C64 1.261 . S
C59 O68 1.247 . S
C59 O69 1.272 . S
O60 Co56 2.004 . S
O60 C65 1.259 . S
Co61 O62 2.061 . S
Co61 O67 2.052 . S
Co61 O69 2.135 1_455 S
O62 Co61 2.061 . S
O62 C65 1.235 1_455 S
C63 O66 1.238 . S
C63 O67 1.241 1_655 S
C64 O57 1.247 . S
C64 O58 1.261 . S
C65 O60 1.259 . S
C65 O62 1.235 1_655 S
O66 Co56 2.021 . S
O66 C63 1.238 . S
O67 Co61 2.052 . S
O67 C63 1.241 1_455 S
O68 Co56 2.137 . S
O68 C59 1.247 . S
O69 Co56 2.244 . S
O69 C59 1.272 . S
O69 Co61 2.135 1_655 S
Co70 O71 2.216 . S
Co70 O72 2.091 . S
Co70 O74 2.004 . S
Co70 O80 2.021 . S
Co70 O82 2.137 . S
Co70 O83 2.244 . S
O71 Co70 2.216 . S
O71 C78 1.247 . S
O72 Co70 2.091 . S
O72 C78 1.261 . S
C73 O82 1.247 . S
C73 O83 1.272 . S
O74 Co70 2.004 . S
O74 C79 1.259 . S
Co75 O76 2.061 . S
Co75 O81 2.052 . S
Co75 O83 2.135 . S
O76 Co75 2.061 . S
O76 C79 1.235 . S
C77 O80 1.238 . S
C77 O81 1.241 . S
C78 O71 1.247 . S
C78 O72 1.261 . S
C79 O74 1.259 . S
C79 O76 1.235 . S
O80 Co70 2.021 . S
O80 C77 1.238 . S
O81 Co75 2.052 . S
O81 C77 1.241 . S
O82 Co70 2.137 . S
O82 C73 1.247 . S
O83 Co70 2.244 . S
O83 C73 1.272 . S
O83 Co75 2.135 . S
Co84 O85 2.216 . S
Co84 O86 2.091 . S
Co84 O88 2.004 . S
Co84 O94 2.021 . S
Co84 O96 2.137 . S
Co84 O97 2.244 . S
O85 Co84 2.216 . S
O85 C92 1.247 . S
O86 Co84 2.091 . S
O86 C92 1.261 . S
C87 O96 1.247 . S
C87 O97 1.272 . S
O88 Co84 2.004 . S
O88 C93 1.259 . S
Co89 O90 2.061 . S
Co89 O95 2.052 . S
Co89 O97 2.135 . S
O90 Co89 2.061 . S
O90 C93 1.235 . S
C91 O94 1.238 . S
C91 O95 1.241 . S
C92 O85 1.247 . S
C92 O86 1.261 . S
C93 O88 1.259 . S
C93 O90 1.235 . S
O94 Co84 2.021 . S
O94 C91 1.238 . S
O95 Co89 2.052 . S
O95 C91 1.241 . S
O96 Co84 2.137 . S
O96 C87 1.247 . S
O97 Co84 2.244 . S
O97 C87 1.272 . S
O97 Co89 2.135 . S
Co98 O99 2.216 . S
Co98 O100 2.091 . S
Co98 O102 2.004 . S
Co98 O108 2.021 . S
Co98 O110 2.137 . S
Co98 O111 2.244 . S
O99 Co98 2.216 . S
O99 C106 1.247 . S
O100 Co98 2.091 . S
O100 C106 1.261 . S
C101 O110 1.247 . S
C101 O111 1.272 . S
O102 Co98 2.004 . S
O102 C107 1.259 . S
Co103 O104 2.061 . S
Co103 O109 2.052 . S
Co103 O111 2.135 1_655 S
O104 Co103 2.061 . S
O104 C107 1.235 1_655 S
C105 O108 1.238 . S
C105 O109 1.241 1_455 S
C106 O99 1.247 . S
C106 O100 1.261 . S
C107 O102 1.259 . S
C107 O104 1.235 1_455 S
O108 Co98 2.021 . S
O108 C105 1.238 . S
O109 Co103 2.052 . S
O109 C105 1.241 1_655 S
O110 Co98 2.137 . S
O110 C101 1.247 . S
O111 Co98 2.244 . S
O111 C101 1.272 . S
O111 Co103 2.135 1_455 S
Co112 O113 2.216 . S
Co112 O114 2.091 . S
Co112 O116 2.004 . S
Co112 O122 2.021 . S
Co112 O124 2.137 . S
Co112 O125 2.244 . S
O113 Co112 2.216 . S
O113 C120 1.247 . S
O114 Co112 2.091 . S
O114 C120 1.261 . S
C115 O124 1.247 . S
C115 O125 1.272 . S
O116 Co112 2.004 . S
O116 C121 1.259 . S
Co117 O118 2.061 . S
Co117 O123 2.052 . S
Co117 O125 2.135 . S
O118 Co117 2.061 . S
O118 C121 1.235 . S
C119 O122 1.238 . S
C119 O123 1.241 . S
C120 O113 1.247 . S
C120 O114 1.261 . S
C121 O116 1.259 . S
C121 O118 1.235 . S
O122 Co112 2.021 . S
O122 C119 1.238 . S
O123 Co117 2.052 . S
O123 C119 1.241 . S
O124 Co112 2.137 . S
O124 C115 1.247 . S
O125 Co112 2.244 . S
O125 C115 1.272 . S
O125 Co117 2.135 . S
Co126 O127 2.216 . S
Co126 O128 2.091 . S
Co126 O130 2.004 . S
Co126 O136 2.021 . S
Co126 O138 2.137 . S
Co126 O139 2.244 . S
O127 Co126 2.216 . S
O127 C134 1.247 . S
O128 Co126 2.091 . S
O128 C134 1.261 . S
C129 O138 1.247 . S
C129 O139 1.272 . S
O130 Co126 2.004 . S
O130 C135 1.259 . S
Co131 O132 2.061 . S
Co131 O137 2.052 . S
Co131 O139 2.135 1_455 S
O132 Co131 2.061 . S
O132 C135 1.235 1_455 S
C133 O136 1.238 . S
C133 O137 1.241 1_655 S
C134 O127 1.247 . S
C134 O128 1.261 . S
C135 O130 1.259 . S
C135 O132 1.235 1_655 S
O136 Co126 2.021 . S
O136 C133 1.238 . S
O137 Co131 2.052 . S
O137 C133 1.241 1_455 S
O138 Co126 2.137 . S
O138 C129 1.247 . S
O139 Co126 2.244 . S
O139 C129 1.272 . S
O139 Co131 2.135 1_655 S
Co140 O141 2.216 . S
Co140 O142 2.091 . S
Co140 O144 2.004 . S
Co140 O150 2.021 . S
Co140 O152 2.137 . S
Co140 O153 2.244 . S
O141 Co140 2.216 . S
O141 C148 1.247 . S
O142 Co140 2.091 . S
O142 C148 1.261 . S
C143 O152 1.247 . S
C143 O153 1.272 . S
O144 Co140 2.004 . S
O144 C149 1.259 . S
Co145 O146 2.061 . S
Co145 O151 2.052 . S
Co145 O153 2.135 1_655 S
O146 Co145 2.061 . S
O146 C149 1.235 1_655 S
C147 O150 1.238 . S
C147 O151 1.241 1_455 S
C148 O141 1.247 . S
C148 O142 1.261 . S
C149 O144 1.259 . S
C149 O146 1.235 1_455 S
O150 Co140 2.021 . S
O150 C147 1.238 . S
O151 Co145 2.052 . S
O151 C147 1.241 1_655 S
O152 Co140 2.137 . S
O152 C143 1.247 . S
O153 Co140 2.244 . S
O153 C143 1.272 . S
O153 Co145 2.135 1_455 S
Co154 O155 2.216 . S
Co154 O156 2.091 . S
Co154 O158 2.004 . S
Co154 O164 2.021 . S
Co154 O166 2.137 . S
Co154 O167 2.244 . S
O155 Co154 2.216 . S
O155 C162 1.247 . S
O156 Co154 2.091 . S
O156 C162 1.261 . S
C157 O166 1.247 . S
C157 O167 1.272 . S
O158 Co154 2.004 . S
O158 C163 1.259 . S
Co159 O160 2.061 . S
Co159 O165 2.052 . S
Co159 O167 2.135 . S
O160 Co159 2.061 . S
O160 C163 1.235 . S
C161 O164 1.238 . S
C161 O165 1.241 . S
C162 O155 1.247 . S
C162 O156 1.261 . S
C163 O158 1.259 . S
C163 O160 1.235 . S
O164 Co154 2.021 . S
O164 C161 1.238 . S
O165 Co159 2.052 . S
O165 C161 1.241 . S
O166 Co154 2.137 . S
O166 C157 1.247 . S
O167 Co154 2.244 . S
O167 C157 1.272 . S
O167 Co159 2.135 . S
Co168 O169 2.216 . S
Co168 O170 2.091 . S
Co168 O172 2.004 . S
Co168 O178 2.021 . S
Co168 O180 2.137 . S
Co168 O181 2.244 . S
O169 Co168 2.216 . S
O169 C176 1.247 . S
O170 Co168 2.091 . S
O170 C176 1.261 . S
C171 O180 1.247 . S
C171 O181 1.272 . S
O172 Co168 2.004 . S
O172 C177 1.259 . S
Co173 O174 2.061 . S
Co173 O179 2.052 . S
Co173 O181 2.135 . S
O174 Co173 2.061 . S
O174 C177 1.235 . S
C175 O178 1.238 . S
C175 O179 1.241 . S
C176 O169 1.247 . S
C176 O170 1.261 . S
C177 O172 1.259 . S
C177 O174 1.235 . S
O178 Co168 2.021 . S
O178 C175 1.238 . S
O179 Co173 2.052 . S
O179 C175 1.241 . S
O180 Co168 2.137 . S
O180 C171 1.247 . S
O181 Co168 2.244 . S
O181 C171 1.272 . S
O181 Co173 2.135 . S
Co182 O183 2.216 . S
Co182 O184 2.091 . S
Co182 O186 2.004 . S
Co182 O192 2.021 . S
Co182 O194 2.137 . S
Co182 O195 2.244 . S
O183 Co182 2.216 . S
O183 C190 1.247 . S
O184 Co182 2.091 . S
O184 C190 1.261 . S
C185 O194 1.247 . S
C185 O195 1.272 . S
O186 Co182 2.004 . S
O186 C191 1.259 . S
Co187 O188 2.061 . S
Co187 O193 2.052 . S
Co187 O195 2.135 1_655 S
O188 Co187 2.061 . S
O188 C191 1.235 1_655 S
C189 O192 1.238 . S
C189 O193 1.241 1_455 S
C190 O183 1.247 . S
C190 O184 1.261 . S
C191 O186 1.259 . S
C191 O188 1.235 1_455 S
O192 Co182 2.021 . S
O192 C189 1.238 . S
O193 Co187 2.052 . S
O193 C189 1.241 1_655 S
O194 Co182 2.137 . S
O194 C185 1.247 . S
O195 Co182 2.244 . S
O195 C185 1.272 . S
O195 Co187 2.135 1_455 S
Co196 O197 2.216 . S
Co196 O198 2.091 . S
Co196 O200 2.004 . S
Co196 O206 2.021 . S
Co196 O208 2.137 . S
Co196 O209 2.244 . S
O197 Co196 2.216 . S
O197 C204 1.247 . S
O198 Co196 2.091 . S
O198 C204 1.261 . S
C199 O208 1.247 . S
C199 O209 1.272 . S
O200 Co196 2.004 . S
O200 C205 1.259 . S
Co201 O202 2.061 . S
Co201 O207 2.052 . S
Co201 O209 2.135 1_455 S
O202 Co201 2.061 . S
O202 C205 1.235 1_455 S
C203 O206 1.238 . S
C203 O207 1.241 1_655 S
C204 O197 1.247 . S
C204 O198 1.261 . S
C205 O200 1.259 . S
C205 O202 1.235 1_655 S
O206 Co196 2.021 . S
O206 C203 1.238 . S
O207 Co201 2.052 . S
O207 C203 1.241 1_455 S
O208 Co196 2.137 . S
O208 C199 1.247 . S
O209 Co196 2.244 . S
O209 C199 1.272 . S
O209 Co201 2.135 1_655 S
Co210 O211 2.216 . S
Co210 O212 2.091 . S
Co210 O214 2.004 . S
Co210 O220 2.021 . S
Co210 O222 2.137 . S
Co210 O223 2.244 . S
O211 Co210 2.216 . S
O211 C218 1.247 . S
O212 Co210 2.091 . S
O212 C218 1.261 . S
C213 O222 1.247 . S
C213 O223 1.272 . S
O214 Co210 2.004 . S
O214 C219 1.259 . S
Co215 O216 2.061 . S
Co215 O221 2.052 . S
Co215 O223 2.135 . S
O216 Co215 2.061 . S
O216 C219 1.235 . S
C217 O220 1.238 . S
C217 O221 1.241 . S
C218 O211 1.247 . S
C218 O212 1.261 . S
C219 O214 1.259 . S
C219 O216 1.235 . S
O220 Co210 2.021 . S
O220 C217 1.238 . S
O221 Co215 2.052 . S
O221 C217 1.241 . S
O222 Co210 2.137 . S
O222 C213 1.247 . S
O223 Co210 2.244 . S
O223 C213 1.272 . S
O223 Co215 2.135 . S
C224 C225 1.170 . S
C224 C226 1.380 1_565 S
C225 C224 1.170 . S
C226 C224 1.380 1_545 S
C226 C227 1.170 . S
C227 C226 1.170 . S
C228 C229 1.170 . S
C228 C230 1.380 1_565 S
C229 C228 1.170 . S
C230 C228 1.380 1_545 S
C230 C231 1.170 . S
C231 C230 1.170 . S
C232 C233 1.170 . S
C232 C234 1.380 1_565 S
C233 C232 1.170 . S
C234 C232 1.380 1_545 S
C234 C235 1.170 . S
C235 C234 1.170 . S
C236 C237 1.170 . S
C236 C238 1.380 1_565 S
C237 C236 1.170 . S
C238 C236 1.380 1_545 S
C238 C239 1.170 . S
C239 C238 1.170 . S
C240 C241 1.170 . S
C240 C242 1.380 . S
C241 C240 1.170 . S
C242 C240 1.380 . S
C242 C243 1.170 . S
C243 C242 1.170 . S
C244 C245 1.170 . S
C244 C246 1.380 . S
C245 C244 1.170 . S
C246 C244 1.380 . S
C246 C247 1.170 . S
C247 C246 1.170 . S
C248 C249 1.170 . S
C248 C250 1.380 . S
C249 C248 1.170 . S
C250 C248 1.380 . S
C250 C251 1.170 . S
C251 C250 1.170 . S
C252 C253 1.170 . S
C252 C254 1.380 . S
C253 C252 1.170 . S
C254 C252 1.380 . S
C254 C255 1.170 . S
C255 C254 1.170 . S
C256 C257 1.170 . S
C256 C258 1.380 1_655 S
C257 C256 1.170 . S
C258 C256 1.380 1_455 S
C258 C259 1.170 . S
C259 C258 1.170 . S
C260 C261 1.170 . S
C260 C262 1.380 . S
C261 C260 1.170 . S
C262 C260 1.380 . S
C262 C263 1.170 . S
C263 C262 1.170 . S
C264 C265 1.170 . S
C264 C266 1.380 1_455 S
C265 C264 1.170 . S
C266 C264 1.380 1_655 S
C266 C267 1.170 . S
C267 C266 1.170 . S
C268 C269 1.170 . S
C268 C270 1.380 . S
C269 C268 1.170 . S
C270 C268 1.380 . S
C270 C271 1.170 . S
C271 C270 1.170 . S
C272 C273 1.170 . S
C272 C274 1.380 . S
C273 C272 1.170 . S
C274 C272 1.380 . S
C274 C275 1.170 . S
C275 C274 1.170 . S
C276 C277 1.170 . S
C276 C278 1.380 1_455 S
C277 C276 1.170 . S
C278 C276 1.380 1_655 S
C278 C279 1.170 . S
C279 C278 1.170 . S
C280 C281 1.170 . S
C280 C282 1.380 . S
C281 C280 1.170 . S
C282 C280 1.380 . S
C282 C283 1.170 . S
C283 C282 1.170 . S
C284 C285 1.170 . S
C284 C286 1.380 1_455 S
C285 C284 1.170 . S
C286 C284 1.380 1_655 S
C286 C287 1.170 . S
C287 C286 1.170 . S
C288 C289 1.170 . S
C288 C290 1.380 1_455 S
C289 C288 1.170 . S
C290 C288 1.380 1_655 S
C290 C291 1.170 . S
C291 C290 1.170 . S
C292 C293 1.170 . S
C292 C294 1.380 . S
C293 C292 1.170 . S
C294 C292 1.380 . S
C294 C295 1.170 . S
C295 C294 1.170 . S
C296 C297 1.170 . S
C296 C298 1.380 . S
C297 C296 1.170 . S
C298 C296 1.380 . S
C298 C299 1.170 . S
C299 C298 1.170 . S
C300 C301 1.170 . S
C300 C302 1.380 1_455 S
C301 C300 1.170 . S
C302 C300 1.380 1_655 S
C302 C303 1.170 . S
C303 C302 1.170 . S
C304 C305 1.170 . S
C304 C306 1.380 1_455 S
C305 C304 1.170 . S
C306 C304 1.380 1_655 S
C306 C307 1.170 . S
C307 C306 1.170 . S
C308 C309 1.170 . S
C308 C310 1.380 . S
C309 C308 1.170 . S
C310 C308 1.380 . S
C310 C311 1.170 . S
C311 C310 1.170 . S
C312 C313 1.170 . S
C312 C314 1.380 . S
C313 C312 1.170 . S
C314 C312 1.380 . S
C314 C315 1.170 . S
C315 C314 1.170 . S
C316 C317 1.170 . S
C316 C318 1.380 1_455 S
C317 C316 1.170 . S
C318 C316 1.380 1_655 S
C318 C319 1.170 . S
C319 C318 1.170 . S
C320 C321 1.170 . S
C320 C322 1.380 1_666 S
C321 C320 1.170 . S
C322 C320 1.380 1_444 S
C322 C323 1.170 . S
C323 C322 1.170 . S
C324 C325 1.170 . S
C324 C326 1.380 1_546 S
C325 C324 1.170 . S
C326 C324 1.380 1_564 S
C326 C327 1.170 . S
C327 C326 1.170 . S
C328 C329 1.170 . S
C328 C330 1.380 1_545 S
C329 C328 1.170 . S
C330 C328 1.380 1_565 S
C330 C331 1.170 . S
C331 C330 1.170 . S
C332 C333 1.170 . S
C332 C334 1.380 1_465 S
C333 C332 1.170 . S
C334 C332 1.380 1_645 S
C334 C335 1.170 . S
C335 C334 1.170 . S
C336 C337 1.170 . S
C336 C338 1.380 1_554 S
C337 C336 1.170 . S
C338 C336 1.380 1_556 S
C338 C339 1.170 . S
C339 C338 1.170 . S
C340 C341 1.170 . S
C340 C342 1.380 1_654 S
C341 C340 1.170 . S
C342 C340 1.380 1_456 S
C342 C343 1.170 . S
C343 C342 1.170 . S
C344 C345 1.170 . S
C344 C346 1.380 1_655 S
C345 C344 1.170 . S
C346 C344 1.380 1_455 S
C346 C347 1.170 . S
C347 C346 1.170 . S
C348 C349 1.170 . S
C348 C350 1.380 . S
C349 C348 1.170 . S
C350 C348 1.380 . S
C350 C351 1.170 . S
C351 C350 1.170 . S
C225 C22 1.512 . S
C227 C8 1.497 . S
C229 C36 1.506 . S
C231 C50 1.505 . S
C233 C64 1.509 . S
C235 C78 1.497 . S
C237 C106 1.510 . S
C239 C92 1.506 . S
C241 C134 1.505 . S
C243 C120 1.505 . S
C245 C162 1.502 . S
C247 C148 1.508 . S
C249 C190 1.506 . S
C251 C176 1.497 . S
C253 C218 1.502 . S
C255 C204 1.512 . S
C257 C45 1.423 . S
C259 C3 1.435 . S
C261 C17 1.436 . S
C263 C31 1.424 . S
C265 C101 1.432 . S
C267 C59 1.435 . S
C269 C87 1.425 . S
C271 C73 1.423 . S
C273 C115 1.436 . S
C275 C157 1.425 . S
C277 C143 1.438 . S
C279 C129 1.427 . S
C281 C213 1.422 . S
C283 C171 1.424 . S
C285 C185 1.436 . S
C287 C199 1.434 . S
C289 C9 1.500 . S
C291 C135 1.496 . S
C293 C23 1.502 . S
C295 C121 1.493 . S
C297 C163 1.484 . S
C299 C37 1.501 . S
C301 C149 1.505 . S
C303 C51 1.486 . S
C305 C191 1.503 . S
C307 C65 1.492 . S
C309 C177 1.501 . S
C311 C79 1.504 . S
C313 C93 1.493 . S
C315 C219 1.485 . S
C317 C107 1.504 . S
C319 C205 1.497 . S
C321 C63 1.380 . S
C323 C7 1.364 . S
C325 C77 1.368 . S
C327 C21 1.387 . S
C329 C91 1.372 . S
C331 C35 1.370 . S
C333 C105 1.369 . S
C335 C49 1.373 . S
C337 C119 1.387 . S
C339 C175 1.364 . S
C341 C133 1.363 . S
C343 C189 1.383 . S
C345 C203 1.376 . S
C347 C147 1.381 . S
C349 C217 1.380 . S
C351 C161 1.364 . S
