# Generated by pormake.
# Topology whz, (6)-cn, num edge types: 1
# Building blocks:
#     Node 0, Type 0, BuildingBlock: IZENUY_clean_sbu_0, # of connection points: 6
#     Node 1, Type 0, BuildingBlock: IZENUY_clean_sbu_0, # of connection points: 6
#     Node 2, Type 0, BuildingBlock: IZENUY_clean_sbu_0, # of connection points: 6
#     Node 3, Type 0, BuildingBlock: IZENUY_clean_sbu_0, # of connection points: 6
#     Node 4, Type 0, BuildingBlock: IZENUY_clean_sbu_0, # of connection points: 6
#     Node 5, Type 0, BuildingBlock: IZENUY_clean_sbu_0, # of connection points: 6
#     Node 6, Type 0, BuildingBlock: IZENUY_clean_sbu_0, # of connection points: 6
#     Node 7, Type 0, BuildingBlock: IZENUY_clean_sbu_0, # of connection points: 6
#     Node 8, Type 0, BuildingBlock: IZENUY_clean_sbu_0, # of connection points: 6
#     Node 9, Type 0, BuildingBlock: IZENUY_clean_sbu_0, # of connection points: 6
#     Node 10, Type 0, BuildingBlock: IZENUY_clean_sbu_0, # of connection points: 6
#     Node 11, Type 0, BuildingBlock: IZENUY_clean_sbu_0, # of connection points: 6
#     Node 12, Type 0, BuildingBlock: IZENUY_clean_sbu_0, # of connection points: 6
#     Node 13, Type 0, BuildingBlock: IZENUY_clean_sbu_0, # of connection points: 6
#     Node 14, Type 0, BuildingBlock: IZENUY_clean_sbu_0, # of connection points: 6
#     Node 15, Type 0, BuildingBlock: IZENUY_clean_sbu_0, # of connection points: 6
#     Edge 16, Type (0, 0), BuildingBlock: XUDNAN_clean_linker_2, # of connection points: 2
#     Edge 17, Type (0, 0), BuildingBlock: XUDNAN_clean_linker_2, # of connection points: 2
#     Edge 18, Type (0, 0), BuildingBlock: XUDNAN_clean_linker_2, # of connection points: 2
#     Edge 19, Type (0, 0), BuildingBlock: XUDNAN_clean_linker_2, # of connection points: 2
#     Edge 20, Type (0, 0), BuildingBlock: XUDNAN_clean_linker_2, # of connection points: 2
#     Edge 21, Type (0, 0), BuildingBlock: XUDNAN_clean_linker_2, # of connection points: 2
#     Edge 22, Type (0, 0), BuildingBlock: XUDNAN_clean_linker_2, # of connection points: 2
#     Edge 23, Type (0, 0), BuildingBlock: XUDNAN_clean_linker_2, # of connection points: 2
#     Edge 24, Type (0, 0), BuildingBlock: XUDNAN_clean_linker_2, # of connection points: 2
#     Edge 25, Type (0, 0), BuildingBlock: XUDNAN_clean_linker_2, # of connection points: 2
#     Edge 26, Type (0, 0), BuildingBlock: XUDNAN_clean_linker_2, # of connection points: 2
#     Edge 27, Type (0, 0), BuildingBlock: XUDNAN_clean_linker_2, # of connection points: 2
#     Edge 28, Type (0, 0), BuildingBlock: XUDNAN_clean_linker_2, # of connection points: 2
#     Edge 29, Type (0, 0), BuildingBlock: XUDNAN_clean_linker_2, # of connection points: 2
#     Edge 30, Type (0, 0), BuildingBlock: XUDNAN_clean_linker_2, # of connection points: 2
#     Edge 31, Type (0, 0), BuildingBlock: XUDNAN_clean_linker_2, # of connection points: 2
#     Edge 32, Type (0, 0), BuildingBlock: XUDNAN_clean_linker_2, # of connection points: 2
#     Edge 33, Type (0, 0), BuildingBlock: XUDNAN_clean_linker_2, # of connection points: 2
#     Edge 34, Type (0, 0), BuildingBlock: XUDNAN_clean_linker_2, # of connection points: 2
#     Edge 35, Type (0, 0), BuildingBlock: XUDNAN_clean_linker_2, # of connection points: 2
#     Edge 36, Type (0, 0), BuildingBlock: XUDNAN_clean_linker_2, # of connection points: 2
#     Edge 37, Type (0, 0), BuildingBlock: XUDNAN_clean_linker_2, # of connection points: 2
#     Edge 38, Type (0, 0), BuildingBlock: XUDNAN_clean_linker_2, # of connection points: 2
#     Edge 39, Type (0, 0), BuildingBlock: XUDNAN_clean_linker_2, # of connection points: 2
#     Edge 40, Type (0, 0), BuildingBlock: XUDNAN_clean_linker_2, # of connection points: 2
#     Edge 41, Type (0, 0), BuildingBlock: XUDNAN_clean_linker_2, # of connection points: 2
#     Edge 42, Type (0, 0), BuildingBlock: XUDNAN_clean_linker_2, # of connection points: 2
#     Edge 43, Type (0, 0), BuildingBlock: XUDNAN_clean_linker_2, # of connection points: 2
#     Edge 44, Type (0, 0), BuildingBlock: XUDNAN_clean_linker_2, # of connection points: 2
#     Edge 45, Type (0, 0), BuildingBlock: XUDNAN_clean_linker_2, # of connection points: 2
#     Edge 46, Type (0, 0), BuildingBlock: XUDNAN_clean_linker_2, # of connection points: 2
#     Edge 47, Type (0, 0), BuildingBlock: XUDNAN_clean_linker_2, # of connection points: 2
#     Edge 48, Type (0, 0), BuildingBlock: XUDNAN_clean_linker_2, # of connection points: 2
#     Edge 49, Type (0, 0), BuildingBlock: XUDNAN_clean_linker_2, # of connection points: 2
#     Edge 50, Type (0, 0), BuildingBlock: XUDNAN_clean_linker_2, # of connection points: 2
#     Edge 51, Type (0, 0), BuildingBlock: XUDNAN_clean_linker_2, # of connection points: 2
#     Edge 52, Type (0, 0), BuildingBlock: XUDNAN_clean_linker_2, # of connection points: 2
#     Edge 53, Type (0, 0), BuildingBlock: XUDNAN_clean_linker_2, # of connection points: 2
#     Edge 54, Type (0, 0), BuildingBlock: XUDNAN_clean_linker_2, # of connection points: 2
#     Edge 55, Type (0, 0), BuildingBlock: XUDNAN_clean_linker_2, # of connection points: 2
#     Edge 56, Type (0, 0), BuildingBlock: XUDNAN_clean_linker_2, # of connection points: 2
#     Edge 57, Type (0, 0), BuildingBlock: XUDNAN_clean_linker_2, # of connection points: 2
#     Edge 58, Type (0, 0), BuildingBlock: XUDNAN_clean_linker_2, # of connection points: 2
#     Edge 59, Type (0, 0), BuildingBlock: XUDNAN_clean_linker_2, # of connection points: 2
#     Edge 60, Type (0, 0), BuildingBlock: XUDNAN_clean_linker_2, # of connection points: 2
#     Edge 61, Type (0, 0), BuildingBlock: XUDNAN_clean_linker_2, # of connection points: 2
#     Edge 62, Type (0, 0), BuildingBlock: XUDNAN_clean_linker_2, # of connection points: 2
#     Edge 63, Type (0, 0), BuildingBlock: XUDNAN_clean_linker_2, # of connection points: 2
# Relax obj value: 0.407
# Max RMSD: 0.253
# Mean RMSD: 0.253
data_MOF--net-whz--node1-IZENUY_clean_sbu_0--edge1-XUDNAN_clean_linker_2
_symmetry_space_group_name_H-M    P1
_symmetry_Int_Tables_number       1
_symmetry_cell_setting            triclinic
loop_
_symmetry_equiv_pos_as_xyz
'x, y, z'
_cell_length_a     34.245859
_cell_length_b     34.232235
_cell_length_c     51.517728
_cell_angle_alpha  90.092325
_cell_angle_beta   90.160141
_cell_angle_gamma 89.970516
loop_
_atom_site_label
_atom_site_type_symbol
_atom_site_fract_x
_atom_site_fract_y
_atom_site_fract_z
_atom_type_partial_charge
Fe0 Fe 0.33382 0.20272 0.14699 0.0
Fe1 Fe 0.25402 0.18968 0.12221 0.0
O2 O 0.3036 0.17596 0.12546 0.0
Fe3 Fe 0.32293 0.13571 0.1081 0.0
O4 O 0.33817 0.1115 0.1379 0.0
O5 O 0.36666 0.16189 0.15559 0.0
O6 O 0.30479 0.18789 0.174 0.0
C7 C 0.26911 0.19547 0.17616 0.0
C8 C 0.38001 0.19602 0.10436 0.0
O9 O 0.24928 0.20647 0.15654 0.0
C10 C 0.27411 0.16558 0.07045 0.0
O11 O 0.30687 0.24924 0.1433 0.0
O12 O 0.26735 0.23787 0.11065 0.0
O13 O 0.37125 0.15979 0.1029 0.0
O14 O 0.36383 0.21822 0.12057 0.0
C15 C 0.24819 0.11006 0.12534 0.0
O16 O 0.2491 0.17426 0.08771 0.0
O17 O 0.30837 0.15591 0.07694 0.0
C18 C 0.28613 0.26158 0.12461 0.0
O19 O 0.23822 0.14311 0.13367 0.0
O20 O 0.27771 0.10596 0.11059 0.0
C21 C 0.35871 0.1258 0.15584 0.0
Fe22 Fe 0.56323 0.59329 0.39469 0.0
Fe23 Fe 0.58057 0.51234 0.37292 0.0
O24 O 0.59205 0.56256 0.37475 0.0
Fe25 Fe 0.63214 0.58179 0.35719 0.0
O26 O 0.65524 0.59956 0.38677 0.0
O27 O 0.60332 0.6267 0.40378 0.0
O28 O 0.57604 0.56627 0.42321 0.0
C29 C 0.56866 0.53068 0.42598 0.0
C30 C 0.57133 0.63837 0.35147 0.0
O31 O 0.56155 0.50925 0.4064 0.0
C32 C 0.60464 0.52933 0.32109 0.0
O33 O 0.51756 0.56529 0.38985 0.0
O34 O 0.53284 0.52291 0.35948 0.0
O35 O 0.60753 0.62955 0.35044 0.0
O36 O 0.54883 0.62186 0.36722 0.0
C37 C 0.65968 0.50985 0.3779 0.0
O38 O 0.59823 0.50529 0.3393 0.0
O39 O 0.61252 0.56459 0.32625 0.0
C40 C 0.50748 0.54223 0.37171 0.0
O41 O 0.62696 0.49963 0.38647 0.0
O42 O 0.66292 0.53722 0.36131 0.0
C43 C 0.6397 0.61991 0.40434 0.0
Fe44 Fe 0.25302 0.83081 0.62721 0.0
Fe45 Fe 0.18694 0.88371 0.60697 0.0
O46 O 0.20313 0.84272 0.62513 0.0
Fe47 Fe 0.16908 0.81404 0.64231 0.0
O48 O 0.19088 0.82717 0.67283 0.0
O49 O 0.25052 0.81204 0.661 0.0
O50 O 0.26414 0.87758 0.64133 0.0
C51 C 0.25626 0.91026 0.63153 0.0
C52 C 0.22308 0.75793 0.6239 0.0
O53 O 0.23122 0.91354 0.61341 0.0
C54 C 0.13062 0.82345 0.59685 0.0
O55 O 0.26438 0.84761 0.59406 0.0
O56 O 0.20791 0.86492 0.57672 0.0
O57 O 0.19756 0.76828 0.64028 0.0
O58 O 0.24457 0.78298 0.61326 0.0
C59 C 0.14276 0.88982 0.65147 0.0
O60 O 0.13953 0.85979 0.59744 0.0
O61 O 0.146 0.79984 0.6125 0.0
C62 C 0.24336 0.85484 0.57424 0.0
O63 O 0.16666 0.90606 0.63637 0.0
O64 O 0.13424 0.85423 0.64794 0.0
C65 C 0.22575 0.81982 0.67861 0.0
Fe66 Fe 0.95628 0.42727 0.89467 0.0
Fe67 Fe 0.93498 0.50384 0.86715 0.0
O68 O 0.92559 0.45377 0.87315 0.0
Fe69 Fe 0.88501 0.4301 0.8586 0.0
O70 O 0.87531 0.39791 0.88668 0.0
O71 O 0.91583 0.41884 0.91675 0.0
O72 O 0.96972 0.46879 0.91483 0.0
C73 C 0.95114 0.49973 0.91923 0.0
C74 C 0.94213 0.37399 0.85484 0.0
O75 O 0.93072 0.51558 0.90176 0.0
C76 C 0.91289 0.48072 0.81825 0.0
O77 O 0.99859 0.43501 0.87416 0.0
O78 O 0.98818 0.49817 0.86926 0.0
O79 O 0.91704 0.39422 0.84277 0.0
O80 O 0.94886 0.38056 0.87852 0.0
C81 C 0.85345 0.50115 0.87225 0.0
O82 O 0.93902 0.4963 0.83224 0.0
O83 O 0.88709 0.45865 0.82819 0.0
C84 C 0.01069 0.46869 0.86814 0.0
O85 O 0.88377 0.5177 0.86386 0.0
O86 O 0.85105 0.46442 0.8737 0.0
C87 C 0.88377 0.40321 0.91049 0.0
Fe88 Fe 0.69099 0.80799 0.87357 0.0
Fe89 Fe 0.76833 0.82635 0.89902 0.0
O90 O 0.71877 0.83766 0.89424 0.0
Fe91 Fe 0.69629 0.87799 0.9101 0.0
O92 O 0.68399 0.90049 0.87898 0.0
O93 O 0.65767 0.84742 0.86294 0.0
O94 O 0.72067 0.81998 0.84585 0.0
C95 C 0.75621 0.81061 0.845 0.0
C96 C 0.63782 0.81775 0.91069 0.0
O97 O 0.77565 0.80667 0.86591 0.0
C98 C 0.74286 0.84986 0.94932 0.0
O99 O 0.71844 0.76287 0.87961 0.0
O100 O 0.75722 0.77801 0.91188 0.0
O101 O 0.64667 0.85395 0.91232 0.0
O102 O 0.66194 0.79458 0.90095 0.0
C103 C 0.77102 0.90584 0.89512 0.0
O104 O 0.76953 0.84389 0.93273 0.0
O105 O 0.70843 0.85882 0.94234 0.0
C106 C 0.73936 0.75261 0.89865 0.0
O107 O 0.78217 0.87327 0.88643 0.0
O108 O 0.74114 0.90843 0.9097 0.0
C109 C 0.6639 0.88385 0.86165 0.0
Fe110 Fe 0.38403 0.44234 0.66439 0.0
Fe111 Fe 0.45036 0.42196 0.62775 0.0
O112 O 0.42629 0.45628 0.64718 0.0
Fe113 Fe 0.44399 0.50474 0.64852 0.0
O114 O 0.39904 0.52256 0.63459 0.0
O115 O 0.36029 0.49086 0.66143 0.0
O116 O 0.35853 0.42943 0.63463 0.0
C117 C 0.37092 0.40615 0.61756 0.0
C118 C 0.41779 0.48983 0.70041 0.0
O119 O 0.40598 0.39419 0.61855 0.0
C120 C 0.51288 0.46628 0.64986 0.0
O121 O 0.40066 0.39087 0.66949 0.0
O122 O 0.46098 0.39214 0.65561 0.0
O123 O 0.42655 0.51353 0.68227 0.0
O124 O 0.40674 0.45544 0.69508 0.0
C125 C 0.45751 0.48237 0.59585 0.0
O126 O 0.49938 0.44362 0.6325 0.0
O127 O 0.49037 0.48887 0.6622 0.0
C128 C 0.43487 0.37613 0.66892 0.0
O129 O 0.44023 0.45074 0.59962 0.0
O130 O 0.46495 0.50462 0.61503 0.0
C131 C 0.36572 0.51679 0.64415 0.0
Fe132 Fe 0.82252 0.13355 0.41068 0.0
Fe133 Fe 0.82685 0.20504 0.37604 0.0
O134 O 0.79905 0.17354 0.39519 0.0
Fe135 Fe 0.74888 0.18282 0.39903 0.0
O136 O 0.73748 0.13594 0.38543 0.0
O137 O 0.77889 0.10119 0.40878 0.0
O138 O 0.83644 0.11275 0.37935 0.0
C139 C 0.85619 0.1309 0.36267 0.0
C140 C 0.77327 0.15753 0.44953 0.0
O141 O 0.86222 0.16719 0.36559 0.0
C142 C 0.77474 0.25774 0.39996 0.0
O143 O 0.87135 0.15945 0.41428 0.0
O144 O 0.8531 0.21843 0.40477 0.0
O145 O 0.74703 0.16399 0.43255 0.0
O146 O 0.80844 0.15133 0.44283 0.0
C147 C 0.76347 0.19833 0.34572 0.0
O148 O 0.79721 0.24864 0.38158 0.0
O149 O 0.75737 0.23146 0.41263 0.0
C150 C 0.87856 0.19615 0.41383 0.0
O151 O 0.7997 0.19294 0.34747 0.0
O152 O 0.74235 0.20237 0.36581 0.0
C153 C 0.75014 0.10348 0.39313 0.0
Fe154 Fe 0.06753 0.51094 0.14672 0.0
Fe155 Fe 0.12172 0.57787 0.16374 0.0
O156 O 0.08237 0.56047 0.14452 0.0
Fe157 Fe 0.05784 0.59163 0.1225 0.0
O158 O 0.07004 0.56052 0.09527 0.0
O159 O 0.04766 0.50769 0.11331 0.0
O160 O 0.11398 0.49523 0.13414 0.0
C161 C 0.14658 0.50418 0.14395 0.0
C162 C 0.99706 0.54679 0.14592 0.0
O163 O 0.14988 0.53157 0.16065 0.0
C164 C 0.06458 0.63874 0.16552 0.0
O165 O 0.08426 0.50334 0.18067 0.0
O166 O 0.09858 0.5624 0.19377 0.0
O167 O 0.01001 0.56814 0.12766 0.0
O168 O 0.02001 0.52537 0.15899 0.0
C169 C 0.13695 0.61369 0.11645 0.0
O170 O 0.09937 0.6269 0.16962 0.0
O171 O 0.04377 0.62417 0.14794 0.0
C172 C 0.09076 0.52729 0.19897 0.0
O173 O 0.14875 0.59397 0.13552 0.0
O174 O 0.10093 0.62094 0.11361 0.0
C175 C 0.05536 0.52712 0.09306 0.0
Fe176 Fe 0.8454 0.68748 0.64635 0.0
Fe177 Fe 0.76275 0.67802 0.62534 0.0
O178 O 0.8126 0.6644 0.62479 0.0
Fe179 Fe 0.82953 0.62714 0.6038 0.0
O180 O 0.84676 0.59805 0.63118 0.0
O181 O 0.87793 0.6452 0.65061 0.0
O182 O 0.8189 0.66932 0.67375 0.0
C183 C 0.78448 0.6793 0.67864 0.0
C184 C 0.88929 0.68633 0.60257 0.0
O185 O 0.76223 0.69104 0.66045 0.0
C186 C 0.77678 0.66234 0.57135 0.0
O187 O 0.81929 0.73452 0.64642 0.0
O188 O 0.77453 0.72783 0.61615 0.0
O189 O 0.87825 0.65112 0.59832 0.0
O190 O 0.87327 0.70642 0.61997 0.0
C191 C 0.75691 0.59862 0.62294 0.0
O192 O 0.75377 0.66698 0.59045 0.0
O193 O 0.81207 0.65293 0.57514 0.0
C194 C 0.7958 0.7495 0.63017 0.0
O195 O 0.74863 0.62959 0.63489 0.0
O196 O 0.7839 0.59761 0.60597 0.0
C197 C 0.86854 0.60958 0.64938 0.0
Fe198 Fe 0.07716 0.0135 0.87237 0.0
Fe199 Fe 0.13717 0.07452 0.85357 0.0
O200 O 0.09518 0.06189 0.872 0.0
Fe201 Fe 0.07145 0.09774 0.89115 0.0
O202 O 0.08253 0.0715 0.92044 0.0
O203 O 0.06029 0.01517 0.90645 0.0
O204 O 0.1227 0.9952 0.88482 0.0
C205 C 0.15611 1.00053 0.87533 0.0
C206 C 0.00807 0.05191 0.87242 0.0
O207 O 0.16222 0.02734 0.8588 0.0
C208 C 0.08371 0.1378 0.8464 0.0
O209 O 0.091 1.00266 0.83865 0.0
O210 O 0.11574 0.05716 0.82296 0.0
O211 O 0.02264 0.07559 0.88867 0.0
O212 O 0.02995 0.02885 0.86008 0.0
C213 C 0.1502 0.11518 0.89942 0.0
O214 O 0.11842 0.12427 0.8455 0.0
O215 O 0.05942 0.12547 0.86272 0.0
C216 C 0.10134 0.02343 0.81949 0.0
O217 O 0.16274 0.09129 0.88274 0.0
O218 O 0.11532 0.12704 0.89799 0.0
C219 C 0.07126 0.03723 0.92487 0.0
Fe220 Fe 0.66842 0.31463 0.14408 0.0
Fe221 Fe 0.74967 0.32906 0.12267 0.0
O222 O 0.69971 0.34204 0.12409 0.0
Fe223 Fe 0.68196 0.38265 0.10646 0.0
O224 O 0.66495 0.40668 0.13579 0.0
O225 O 0.63722 0.35603 0.154 0.0
O226 O 0.69721 0.32647 0.17214 0.0
C227 C 0.73071 0.31284 0.17515 0.0
C228 C 0.62187 0.32485 0.10159 0.0
O229 O 0.75179 0.30664 0.15543 0.0
C230 C 0.73422 0.35457 0.07112 0.0
O231 O 0.69415 0.26772 0.1378 0.0
O232 O 0.73773 0.28242 0.10804 0.0
O233 O 0.63332 0.36019 0.09957 0.0
O234 O 0.63796 0.30185 0.11726 0.0
C235 C 0.75483 0.40784 0.12769 0.0
O236 O 0.75773 0.34843 0.08971 0.0
O237 O 0.69876 0.36212 0.0757 0.0
C238 C 0.71699 0.25739 0.11957 0.0
O239 O 0.76316 0.37491 0.13725 0.0
O240 O 0.72752 0.41137 0.11094 0.0
C241 C 0.64473 0.39228 0.15378 0.0
Fe242 Fe 0.45045 0.9263 0.3955 0.0
Fe243 Fe 0.43404 0.00825 0.37548 0.0
O244 O 0.42164 0.95824 0.37661 0.0
Fe245 Fe 0.38045 0.93959 0.35996 0.0
O246 O 0.3587 0.92247 0.3905 0.0
O247 O 0.41099 0.89154 0.40271 0.0
O248 O 0.43665 0.95153 0.42437 0.0
C249 C 0.4427 0.98721 0.42836 0.0
C250 C 0.44111 0.88232 0.35253 0.0
O251 O 0.45198 0.00979 0.40971 0.0
C252 C 0.40802 0.99164 0.32347 0.0
O253 O 0.49605 0.95445 0.39252 0.0
O254 O 0.4821 0.99728 0.36245 0.0
O255 O 0.40476 0.89149 0.35256 0.0
O256 O 0.46475 0.90013 0.36706 0.0
C257 C 0.35444 0.01308 0.37973 0.0
O258 O 0.41716 0.01546 0.3415 0.0
O259 O 0.39854 0.95675 0.32875 0.0
C260 C 0.50692 0.97712 0.3746 0.0
O261 O 0.38753 0.02229 0.38841 0.0
O262 O 0.35032 0.98425 0.36434 0.0
C263 C 0.37541 0.89968 0.40619 0.0
Fe264 Fe 0.17241 0.31476 0.37716 0.0
Fe265 Fe 0.25376 0.3224 0.40068 0.0
O266 O 0.20577 0.34063 0.39677 0.0
Fe267 Fe 0.19123 0.38474 0.41202 0.0
O268 O 0.17947 0.40744 0.38102 0.0
O269 O 0.14582 0.3583 0.36529 0.0
O270 O 0.20305 0.32027 0.34904 0.0
C271 C 0.23638 0.30511 0.34779 0.0
C272 C 0.12485 0.33464 0.41699 0.0
O273 O 0.25597 0.29906 0.36833 0.0
C274 C 0.23632 0.35376 0.45086 0.0
O275 O 0.19269 0.26637 0.38477 0.0
O276 O 0.23631 0.27729 0.41525 0.0
O277 O 0.13969 0.36877 0.41677 0.0
O278 O 0.14051 0.3075 0.40438 0.0
C279 C 0.26741 0.40018 0.39345 0.0
O280 O 0.2606 0.34243 0.43382 0.0
O281 O 0.2027 0.36544 0.44413 0.0
C282 C 0.21417 0.25397 0.40308 0.0
O283 O 0.27347 0.36572 0.38586 0.0
O284 O 0.23995 0.40812 0.40917 0.0
C285 C 0.15707 0.39352 0.36385 0.0
Fe286 Fe 0.93794 0.00868 0.14661 0.0
Fe287 Fe 0.87952 0.94424 0.1618 0.0
O288 O 0.92202 0.95972 0.14485 0.0
Fe289 Fe 0.94868 0.92648 0.12539 0.0
O290 O 0.94023 0.95481 0.09611 0.0
O291 O 0.95899 0.00964 0.11405 0.0
O292 O 0.89292 0.02527 0.13222 0.0
C293 C 0.85905 0.01801 0.14039 0.0
C294 C 0.00821 0.97196 0.14903 0.0
O295 O 0.85285 0.99096 0.1568 0.0
C296 C 0.93514 0.88193 0.16824 0.0
O297 O 0.91993 0.01742 0.17952 0.0
O298 O 0.89843 0.96069 0.19341 0.0
O299 O 0.99608 0.94971 0.1311 0.0
O300 O 0.98466 0.99436 0.16074 0.0
C301 C 0.87092 0.90491 0.11511 0.0
O302 O 0.89998 0.89456 0.16937 0.0
O303 O 0.95934 0.89714 0.15306 0.0
C304 C 0.91056 0.99499 0.19795 0.0
O305 O 0.85627 0.92786 0.13158 0.0
O306 O 0.90669 0.89616 0.11626 0.0
C307 C 0.95361 0.98894 0.094 0.0
Fe308 Fe 0.32391 0.63193 0.91427 0.0
Fe309 Fe 0.33825 0.70204 0.87856 0.0
O310 O 0.30691 0.6751 0.89892 0.0
Fe311 Fe 0.25846 0.69138 0.90367 0.0
O312 O 0.23965 0.64695 0.88959 0.0
O313 O 0.27625 0.60668 0.91242 0.0
O314 O 0.33495 0.60919 0.88323 0.0
C315 C 0.35575 0.62358 0.86547 0.0
C316 C 0.27941 0.66212 0.95361 0.0
O317 O 0.36546 0.6593 0.86619 0.0
C318 C 0.29591 0.76117 0.90544 0.0
O319 O 0.37496 0.64961 0.91788 0.0
O320 O 0.37153 0.71048 0.9051 0.0
O321 O 0.25416 0.67186 0.93679 0.0
O322 O 0.31319 0.65131 0.9466 0.0
C323 C 0.27199 0.70896 0.8505 0.0
O324 O 0.31683 0.74961 0.88669 0.0
O325 O 0.27478 0.73728 0.91774 0.0
C326 C 0.38891 0.68402 0.91736 0.0
O327 O 0.30626 0.69576 0.85091 0.0
O328 O 0.25342 0.71401 0.87146 0.0
C329 C 0.24738 0.61291 0.89741 0.0
Fe330 Fe 0.56303 0.07775 0.62523 0.0
Fe331 Fe 0.57627 0.99978 0.65099 0.0
O332 O 0.58988 0.04888 0.64692 0.0
Fe333 Fe 0.62992 0.06929 0.66432 0.0
O334 O 0.65509 0.08087 0.63432 0.0
O335 O 0.60496 0.10837 0.6152 0.0
O336 O 0.57545 0.04695 0.5982 0.0
C337 C 0.56334 0.01242 0.5969 0.0
C338 C 0.57279 0.13088 0.66288 0.0
O339 O 0.55723 0.99335 0.61761 0.0
C340 C 0.59807 0.02313 0.70208 0.0
O341 O 0.516 0.05275 0.63053 0.0
O342 O 0.52835 0.01336 0.66304 0.0
O343 O 0.60817 0.11996 0.6661 0.0
O344 O 0.54927 0.10848 0.65174 0.0
C345 C 0.65541 0.99338 0.64925 0.0
O346 O 0.59241 0.99719 0.6849 0.0
O347 O 0.60809 0.05756 0.69585 0.0
C348 C 0.5043 0.03258 0.64957 0.0
O349 O 0.62307 0.98412 0.63921 0.0
O350 O 0.65826 0.0229 0.66429 0.0
C351 C 0.64112 0.10027 0.6157 0.0
H352 H 0.22668 0.25578 0.1969 0.0
H353 H 0.28344 0.14606 0.21557 0.0
H354 H 0.2793 0.16157 0.26221 0.0
H355 H 0.27532 0.31232 0.24276 0.0
H356 H 0.23374 0.34267 0.25024 0.0
H357 H 0.23739 0.31915 0.21912 0.0
H358 H 0.16861 0.2894 0.22754 0.0
H359 H 0.16663 0.30972 0.2598 0.0
H360 H 0.1617 0.25791 0.25519 0.0
H361 H 0.28166 0.19429 0.3052 0.0
H362 H 0.27632 0.2364 0.34398 0.0
H363 H 0.2158 0.32402 0.29817 0.0
C364 C 0.2364 0.23429 0.21092 0.0
C365 C 0.25488 0.19957 0.20284 0.0
C366 C 0.2687 0.17261 0.22157 0.0
C367 C 0.26685 0.18129 0.24804 0.0
C368 C 0.25086 0.21692 0.25541 0.0
C369 C 0.23486 0.24257 0.23755 0.0
C370 C 0.22147 0.27982 0.25069 0.0
C371 C 0.24326 0.31563 0.24009 0.0
C372 C 0.17697 0.2845 0.24815 0.0
C373 C 0.23357 0.27153 0.27839 0.0
C374 C 0.25084 0.23525 0.28064 0.0
C375 C 0.26741 0.22244 0.30385 0.0
C376 C 0.2649 0.24684 0.32563 0.0
C377 C 0.24577 0.28344 0.32396 0.0
C378 C 0.23043 0.29607 0.29994 0.0
H379 H 0.48392 0.5474 0.5689 0.0
H380 H 0.48459 0.42039 0.56894 0.0
H381 H 0.52098 0.41982 0.52834 0.0
H382 H 0.46595 0.5567 0.50266 0.0
H383 H 0.49661 0.59873 0.49748 0.0
H384 H 0.47563 0.59025 0.52893 0.0
H385 H 0.5449 0.59092 0.55025 0.0
H386 H 0.56474 0.60134 0.51868 0.0
H387 H 0.58254 0.56003 0.53691 0.0
H388 H 0.54865 0.43098 0.48564 0.0
H389 H 0.56751 0.45494 0.44228 0.0
H390 H 0.55139 0.57436 0.46883 0.0
C391 C 0.4924 0.51966 0.5605 0.0
C392 C 0.48093 0.48411 0.57193 0.0
C393 C 0.49231 0.44819 0.56033 0.0
C394 C 0.51349 0.44738 0.53737 0.0
C395 C 0.52344 0.48269 0.52614 0.0
C396 C 0.51354 0.51824 0.5372 0.0
C397 C 0.5247 0.55161 0.51946 0.0
C398 C 0.48857 0.57571 0.51167 0.0
C399 C 0.55612 0.57749 0.53209 0.0
C400 C 0.54097 0.52894 0.49657 0.0
C401 C 0.54034 0.48925 0.50103 0.0
C402 C 0.5502 0.46205 0.48197 0.0
C403 C 0.56062 0.47582 0.45741 0.0
C404 C 0.56112 0.51632 0.45233 0.0
C405 C 0.55195 0.54318 0.47234 0.0
H406 H 0.27222 0.76271 0.69979 0.0
H407 H 0.19609 0.85972 0.71931 0.0
H408 H 0.19925 0.84131 0.76555 0.0
H409 H 0.22954 0.69523 0.7452 0.0
H410 H 0.27571 0.67182 0.75181 0.0
H411 H 0.26712 0.69509 0.72103 0.0
H412 H 0.3308 0.73565 0.72928 0.0
H413 H 0.33679 0.71407 0.7609 0.0
H414 H 0.33363 0.76636 0.75771 0.0
H415 H 0.20484 0.80879 0.80852 0.0
H416 H 0.2203 0.76938 0.84719 0.0
H417 H 0.29405 0.69399 0.80035 0.0
C418 C 0.25729 0.78071 0.71395 0.0
C419 C 0.23427 0.81284 0.70618 0.0
C420 C 0.21407 0.83511 0.72505 0.0
C421 C 0.21551 0.82479 0.75128 0.0
C422 C 0.23718 0.79205 0.75826 0.0
C423 C 0.25811 0.77057 0.74028 0.0
C424 C 0.2778 0.73581 0.75296 0.0
C425 C 0.26161 0.69718 0.74212 0.0
C426 C 0.3224 0.73813 0.75004 0.0
C427 C 0.2652 0.74157 0.78082 0.0
C428 C 0.24114 0.77373 0.78333 0.0
C429 C 0.224 0.78376 0.80689 0.0
C430 C 0.23258 0.7609 0.82867 0.0
C431 C 0.25839 0.72865 0.82673 0.0
C432 C 0.27442 0.71863 0.80239 0.0
H433 H 0.01498 0.53299 0.9407 0.0
H434 H 0.89662 0.49649 0.95703 0.0
H435 H 0.91062 0.49956 1.0042 0.0
H436 H 0.06035 0.4782 0.98673 0.0
H437 H 0.09686 0.51337 0.99624 0.0
H438 H 0.07629 0.51497 0.96408 0.0
H439 H 0.05475 0.58678 0.97073 0.0
H440 H 0.07659 0.58571 1.00255 0.0
H441 H 0.02616 0.59967 0.99883 0.0
H442 H 0.94147 0.49463 0.04863 0.0
H443 H 0.98211 0.49703 0.08831 0.0
H444 H 0.07971 0.54025 0.04321 0.0
C445 C 0.99151 0.5278 0.95432 0.0
C446 C 0.95439 0.51581 0.94549 0.0
C447 C 0.92473 0.5072 0.96361 0.0
C448 C 0.93268 0.50819 0.99037 0.0
C449 C 0.97032 0.51814 0.99847 0.0
C450 C 0.99888 0.52908 0.98102 0.0
C451 C 0.03739 0.53689 0.99461 0.0
C452 C 0.0696 0.5092 0.98482 0.0
C453 C 0.04939 0.57985 0.99149 0.0
C454 C 0.02638 0.52774 0.02237 0.0
C455 C 0.98771 0.51644 0.02414 0.0
C456 C 0.97155 0.50417 0.04755 0.0
C457 C 0.99504 0.50504 0.0699 0.0
C458 C 0.03411 0.51858 0.06873 0.0
C459 C 0.04998 0.52967 0.04459 0.0
H460 H 0.7299 0.82131 0.79517 0.0
H461 H 0.81169 0.75369 0.84152 0.0
H462 H 0.82273 0.70969 0.80443 0.0
H463 H 0.68578 0.74353 0.76214 0.0
H464 H 0.68223 0.7674 0.73106 0.0
H465 H 0.68222 0.79601 0.76044 0.0
H466 H 0.74151 0.83614 0.74426 0.0
H467 H 0.74081 0.80858 0.71445 0.0
H468 H 0.78485 0.81092 0.73361 0.0
H469 H 0.81882 0.66859 0.76496 0.0
H470 H 0.81499 0.64248 0.72046 0.0
H471 H 0.73811 0.73781 0.69844 0.0
C472 C 0.75081 0.79775 0.79729 0.0
C473 C 0.76988 0.79089 0.82124 0.0
C474 C 0.79701 0.75979 0.82332 0.0
C475 C 0.80301 0.73423 0.8025 0.0
C476 C 0.78198 0.74043 0.77972 0.0
C477 C 0.75753 0.77217 0.77658 0.0
C478 C 0.73954 0.77268 0.74965 0.0
C479 C 0.69478 0.76973 0.75092 0.0
C480 C 0.75246 0.80924 0.7346 0.0
C481 C 0.75727 0.73586 0.73834 0.0
C482 C 0.78109 0.71745 0.75626 0.0
C483 C 0.80071 0.68295 0.7506 0.0
C484 C 0.79801 0.66816 0.72538 0.0
C485 C 0.77628 0.68818 0.70606 0.0
C486 C 0.75439 0.72159 0.7129 0.0
H487 H 0.77695 0.32549 0.21789 0.0
H488 H 0.69088 0.24714 0.1846 0.0
H489 H 0.68882 0.20949 0.22501 0.0
H490 H 0.82852 0.25279 0.25742 0.0
H491 H 0.83514 0.28598 0.28427 0.0
H492 H 0.83242 0.30458 0.25164 0.0
H493 H 0.77577 0.35031 0.26565 0.0
H494 H 0.77767 0.331 0.29812 0.0
H495 H 0.73258 0.32956 0.28004 0.0
H496 H 0.69242 0.18274 0.26962 0.0
H497 H 0.70762 0.16465 0.31525 0.0
H498 H 0.78927 0.26111 0.32009 0.0
C499 C 0.75869 0.29972 0.21904 0.0
C500 C 0.73528 0.28811 0.19797 0.0
C501 C 0.71033 0.25532 0.20024 0.0
C502 C 0.70844 0.23412 0.22324 0.0
C503 C 0.73116 0.24663 0.24395 0.0
C504 C 0.75606 0.2784 0.24211 0.0
C505 C 0.77616 0.28632 0.2677 0.0
C506 C 0.8207 0.28214 0.2651 0.0
C507 C 0.76484 0.3267 0.2785 0.0
C508 C 0.75891 0.25385 0.2839 0.0
C509 C 0.73266 0.23154 0.26995 0.0
C510 C 0.71297 0.19987 0.28085 0.0
C511 C 0.72139 0.18999 0.30665 0.0
C512 C 0.74928 0.21171 0.3207 0.0
C513 C 0.76768 0.24431 0.30944 0.0
H514 H 0.94225 0.96287 0.04362 0.0
H515 H 0.0148 0.03885 0.09125 0.0
H516 H 0.05637 0.05261 0.05382 0.0
H517 H 0.01973 0.92371 1.00324 0.0
H518 H 0.99141 0.92465 0.9737 0.0
H519 H 0.96738 0.91849 1.00452 0.0
H520 H 0.92336 0.97845 0.9951 0.0
H521 H 0.94679 0.98434 0.96411 0.0
H522 H 0.94566 0.02445 0.9868 0.0
H523 H 0.09044 0.05846 0.01263 0.0
H524 H 0.10987 0.06473 0.96686 0.0
H525 H 0.0151 0.9876 0.94408 0.0
C526 C 0.96678 0.98251 0.04603 0.0
C527 C 0.97516 0.99978 0.07035 0.0
C528 C 0.00742 0.02552 0.07279 0.0
C529 C 0.0316 0.03322 0.05171 0.0
C530 C 0.02303 0.01533 0.02819 0.0
C531 C 0.99106 0.99118 0.02492 0.0
C532 C 0.98732 0.97814 0.99686 0.0
C533 C 0.99173 0.93359 0.99445 0.0
C534 C 0.94849 0.9922 0.98502 0.0
C535 C 0.02196 0.99917 0.98501 0.0
C536 C 0.04244 0.01977 1.00368 0.0
C537 C 0.07474 0.04259 0.99773 0.0
C538 C 0.08554 0.04591 0.97174 0.0
C539 C 0.06392 0.02672 0.95206 0.0
C540 C 0.03245 1.00209 0.95883 0.0
H541 H 0.4956 0.0383 0.45023 0.0
H542 H 0.4008 0.9588 0.46815 0.0
H543 H 0.42163 0.95698 0.5138 0.0
H544 H 0.56484 0.99874 0.48463 0.0
H545 H 0.5879 0.04054 0.49944 0.0
H546 H 0.56169 0.04618 0.46941 0.0
H547 H 0.51614 0.09828 0.48731 0.0
H548 H 0.54324 0.09691 0.51734 0.0
H549 H 0.49108 0.09007 0.51753 0.0
H550 H 0.46081 0.95139 0.55393 0.0
H551 H 0.50539 0.95802 0.59132 0.0
H552 H 0.57348 0.04335 0.54851 0.0
C553 C 0.47808 0.02231 0.46408 0.0
C554 C 0.44694 0.99841 0.45576 0.0
C555 C 0.42499 0.9771 0.47425 0.0
C556 C 0.43664 0.97571 0.50018 0.0
C557 C 0.46954 0.99679 0.50742 0.0
C558 C 0.48887 0.02124 0.49035 0.0
C559 C 0.52422 0.03955 0.50326 0.0
C560 C 0.56192 0.03062 0.4883 0.0
C561 C 0.51831 0.08382 0.50656 0.0
C562 C 0.52342 0.01895 0.52922 0.0
C563 C 0.49147 0.99467 0.53128 0.0
C564 C 0.48537 0.97121 0.55295 0.0
C565 C 0.51131 0.97457 0.57387 0.0
C566 C 0.54289 1.00122 0.57284 0.0
C567 C 0.54958 0.02274 0.54987 0.0
H568 H 0.12827 0.14343 0.94767 0.0
H569 H 0.23015 0.11286 0.90207 0.0
H570 H 0.27246 0.12667 0.9399 0.0
H571 H 0.17442 0.22176 0.9867 0.0
H572 H 0.14879 0.2084 0.01588 0.0
H573 H 0.12669 0.19977 0.9846 0.0
H574 H 0.11806 0.12714 0.99628 0.0
H575 H 0.14078 0.13483 0.0274 0.0
H576 H 0.16003 0.09847 1.00555 0.0
H577 H 0.30379 0.14061 0.98321 0.0
H578 H 0.32185 0.15152 0.02892 0.0
H579 H 0.19998 0.17144 0.04792 0.0
C580 C 0.15957 0.14056 0.94545 0.0
C581 C 0.17584 0.12764 0.92156 0.0
C582 C 0.2169 0.12308 0.9199 0.0
C583 C 0.24122 0.13087 0.94136 0.0
C584 C 0.22426 0.14299 0.96463 0.0
C585 C 0.18436 0.1478 0.96687 0.0
C586 C 0.17352 0.15886 0.99462 0.0
C587 C 0.15474 0.19962 0.9955 0.0
C588 C 0.14652 0.12797 1.00667 0.0
C589 C 0.21348 0.15898 1.0077 0.0
C590 C 0.24231 0.15013 0.9899 0.0
C591 C 0.28143 0.1477 0.99726 0.0
C592 C 0.29141 0.15398 0.02342 0.0
C593 C 0.26253 0.16247 0.04235 0.0
C594 C 0.22296 0.16535 0.0341 0.0
H595 H 0.60875 0.45303 0.30286 0.0
H596 H 0.60558 0.57349 0.27673 0.0
H597 H 0.61109 0.55106 0.23132 0.0
H598 H 0.68009 0.42048 0.2568 0.0
H599 H 0.65845 0.37303 0.25205 0.0
H600 H 0.65225 0.39824 0.28247 0.0
H601 H 0.57717 0.39249 0.27775 0.0
H602 H 0.58314 0.36736 0.24725 0.0
H603 H 0.55361 0.41089 0.24892 0.0
H604 H 0.62001 0.51605 0.18871 0.0
H605 H 0.63285 0.47118 0.15217 0.0
H606 H 0.62976 0.37269 0.20502 0.0
C607 C 0.60875 0.47471 0.28758 0.0
C608 C 0.60647 0.51521 0.29356 0.0
C609 C 0.60722 0.54243 0.27285 0.0
C610 C 0.61027 0.52992 0.24691 0.0
C611 C 0.61268 0.48996 0.24173 0.0
C612 C 0.61205 0.4627 0.26147 0.0
C613 C 0.61668 0.42155 0.25058 0.0
C614 C 0.65408 0.4022 0.2611 0.0
C615 C 0.58049 0.3966 0.25648 0.0
C616 C 0.61997 0.42996 0.22165 0.0
C617 C 0.61757 0.46967 0.21704 0.0
C618 C 0.62155 0.48489 0.19209 0.0
C619 C 0.62877 0.4591 0.17139 0.0
C620 C 0.63171 0.41825 0.17549 0.0
C621 C 0.6267 0.4036 0.20104 0.0
H622 H 0.23263 0.90292 0.53096 0.0
H623 H 0.29847 0.8031 0.55885 0.0
H624 H 0.33511 0.80106 0.51776 0.0
H625 H 0.22842 0.87429 0.46187 0.0
H626 H 0.23577 0.92332 0.45015 0.0
H627 H 0.21196 0.91538 0.48086 0.0
H628 H 0.26286 0.95981 0.50361 0.0
H629 H 0.28668 0.9679 0.47296 0.0
H630 H 0.31414 0.94911 0.5001 0.0
H631 H 0.36761 0.81149 0.47511 0.0
H632 H 0.39521 0.8348 0.43384 0.0
H633 H 0.31038 0.92899 0.43217 0.0
C634 C 0.25419 0.88018 0.52813 0.0
C635 C 0.26229 0.85279 0.54813 0.0
C636 C 0.29156 0.82423 0.54389 0.0
C637 C 0.31254 0.82279 0.52053 0.0
C638 C 0.30439 0.85037 0.5014 0.0
C639 C 0.27606 0.87868 0.50486 0.0
C640 C 0.27525 0.90633 0.48165 0.0
C641 C 0.23548 0.90473 0.46781 0.0
C642 C 0.28533 0.94827 0.49009 0.0
C643 C 0.30742 0.88905 0.46472 0.0
C644 C 0.32364 0.85669 0.47658 0.0
C645 C 0.35488 0.83658 0.46553 0.0
C646 C 0.37038 0.85007 0.44199 0.0
C647 C 0.35478 0.88343 0.42939 0.0
C648 C 0.32245 0.90286 0.4409 0.0
H649 H 0.90404 0.62676 0.69644 0.0
H650 H 0.8559 0.53053 0.65169 0.0
H651 H 0.86561 0.48662 0.68908 0.0
H652 H 0.97771 0.56956 0.73237 0.0
H653 H 0.97065 0.5967 0.76201 0.0
H654 H 0.96273 0.62002 0.73109 0.0
H655 H 0.89254 0.63892 0.74511 0.0
H656 H 0.90035 0.61569 0.77602 0.0
H657 H 0.85964 0.60128 0.75596 0.0
H658 H 0.87453 0.45434 0.73274 0.0
H659 H 0.88544 0.43549 0.77852 0.0
H660 H 0.93022 0.55138 0.79502 0.0
C661 C 0.89645 0.59623 0.69423 0.0
C662 C 0.87962 0.58216 0.67079 0.0
C663 C 0.86922 0.54212 0.66917 0.0
C664 C 0.87452 0.51688 0.69041 0.0
C665 C 0.89044 0.53184 0.71331 0.0
C666 C 0.90159 0.57052 0.71531 0.0
C667 C 0.91639 0.57955 0.74254 0.0
C668 C 0.95944 0.5922 0.74196 0.0
C669 C 0.89071 0.61071 0.75568 0.0
C670 C 0.9117 0.53998 0.75556 0.0
C671 C 0.89644 0.51295 0.73835 0.0
C672 C 0.88708 0.47511 0.74624 0.0
C673 C 0.89332 0.46466 0.77232 0.0
C674 C 0.90929 0.49165 0.79031 0.0
C675 C 0.9189 0.52974 0.78163 0.0
H676 H 0.81335 0.93964 0.0853 0.0
H677 H 0.87577 0.83076 0.09657 0.0
H678 H 0.84256 0.80265 0.05829 0.0
H679 H 0.72064 0.89719 0.05908 0.0
H680 H 0.71474 0.93553 0.03545 0.0
H681 H 0.73885 0.94556 0.0659 0.0
H682 H 0.79932 0.97116 0.0412 0.0
H683 H 0.77551 0.9612 0.01072 0.0
H684 H 0.8227 0.9402 0.01754 0.0
H685 H 0.80892 0.78841 0.01658 0.0
H686 H 0.77813 0.78943 0.97321 0.0
H687 H 0.73682 0.90723 0.98718 0.0
C688 C 0.81894 0.90947 0.08015 0.0
C689 C 0.84658 0.88705 0.09427 0.0
C690 C 0.8544 0.84825 0.08628 0.0
C691 C 0.8356 0.83202 0.06456 0.0
C692 C 0.80916 0.855 0.05072 0.0
C693 C 0.80077 0.89293 0.0581 0.0
C694 C 0.77418 0.9124 0.03819 0.0
C695 C 0.73475 0.92331 0.05039 0.0
C696 C 0.79413 0.94836 0.02621 0.0
C697 C 0.76947 0.87971 0.01832 0.0
C698 C 0.78969 0.84678 0.02619 0.0
C699 C 0.79239 0.81373 0.01045 0.0
C700 C 0.77472 0.81451 0.98586 0.0
C701 C 0.75424 0.84792 0.97712 0.0
C702 C 0.75106 0.88078 0.99377 0.0
H703 H 0.37538 0.64413 0.81524 0.0
H704 H 0.36607 0.54447 0.86678 0.0
H705 H 0.38497 0.50059 0.83088 0.0
H706 H 0.33357 0.59578 0.75983 0.0
H707 H 0.36444 0.62009 0.73665 0.0
H708 H 0.35272 0.64362 0.76693 0.0
H709 H 0.42672 0.65165 0.77648 0.0
H710 H 0.43837 0.6274 0.7464 0.0
H711 H 0.45779 0.60911 0.77658 0.0
H712 H 0.40208 0.46691 0.78923 0.0
H713 H 0.41426 0.44535 0.7443 0.0
H714 H 0.41159 0.56603 0.71859 0.0
C715 C 0.37804 0.61314 0.81906 0.0
C716 C 0.36972 0.59783 0.84402 0.0
C717 C 0.37248 0.55697 0.84796 0.0
C718 C 0.38327 0.53177 0.82766 0.0
C719 C 0.3909 0.54767 0.8033 0.0
C720 C 0.38825 0.58738 0.79881 0.0
C721 C 0.39573 0.59645 0.77033 0.0
C722 C 0.35947 0.61508 0.75769 0.0
C723 C 0.43181 0.62271 0.76727 0.0
C724 C 0.4032 0.55568 0.75959 0.0
C725 C 0.40032 0.52806 0.77903 0.0
C726 C 0.40463 0.48831 0.77389 0.0
C727 C 0.41155 0.47632 0.74823 0.0
C728 C 0.41423 0.50386 0.72779 0.0
C729 C 0.4104 0.5442 0.73375 0.0
H730 H 0.69851 0.15615 0.46943 0.0
H731 H 0.82016 0.14628 0.49249 0.0
H732 H 0.79957 0.13417 0.53775 0.0
H733 H 0.6635 0.2043 0.52809 0.0
H734 H 0.6179 0.17802 0.52825 0.0
H735 H 0.6422 0.1878 0.49797 0.0
H736 H 0.64163 0.11391 0.48715 0.0
H737 H 0.6176 0.10394 0.51746 0.0
H738 H 0.6629 0.07983 0.50979 0.0
H739 H 0.76545 0.11973 0.58029 0.0
H740 H 0.72102 0.10425 0.61648 0.0
H741 H 0.62127 0.12403 0.56604 0.0
C742 C 0.72097 0.15194 0.484 0.0
C743 C 0.76116 0.15243 0.47722 0.0
C744 C 0.7893 0.14621 0.49703 0.0
C745 C 0.77783 0.13931 0.52285 0.0
C746 C 0.73805 0.13868 0.52874 0.0
C747 C 0.71003 0.14488 0.50985 0.0
C748 C 0.66916 0.14135 0.52109 0.0
C749 C 0.64688 0.18019 0.51871 0.0
C750 C 0.64651 0.10776 0.50809 0.0
C751 C 0.67849 0.13204 0.54926 0.0
C752 C 0.71842 0.13066 0.55324 0.0
C753 C 0.73417 0.1211 0.57739 0.0
C754 C 0.70861 0.11235 0.59789 0.0
C755 C 0.66751 0.11333 0.59434 0.0
C756 C 0.65244 0.12373 0.56963 0.0
H757 H 0.13994 0.37343 0.31305 0.0
H758 H 0.14389 0.47226 0.36574 0.0
H759 H 0.12381 0.5161 0.33003 0.0
H760 H 0.18097 0.42707 0.25822 0.0
H761 H 0.15253 0.39977 0.23497 0.0
H762 H 0.16601 0.37798 0.26552 0.0
H763 H 0.09193 0.36373 0.27312 0.0
H764 H 0.07926 0.388 0.24325 0.0
H765 H 0.05789 0.40395 0.2734 0.0
H766 H 0.10521 0.54985 0.28824 0.0
H767 H 0.09202 0.57137 0.24337 0.0
H768 H 0.10157 0.4514 0.21672 0.0
C769 C 0.13587 0.40421 0.31714 0.0
C770 C 0.14286 0.41928 0.34241 0.0
C771 C 0.13844 0.45994 0.3467 0.0
C772 C 0.12699 0.48509 0.32649 0.0
C773 C 0.12056 0.46943 0.30182 0.0
C774 C 0.12519 0.42997 0.29697 0.0
C775 C 0.11901 0.42118 0.26826 0.0
C776 C 0.15686 0.40556 0.256 0.0
C777 C 0.08499 0.39252 0.26428 0.0
C778 C 0.10913 0.46161 0.25787 0.0
C779 C 0.11041 0.48902 0.27758 0.0
C780 C 0.10394 0.52857 0.2727 0.0
C781 C 0.09644 0.54055 0.24707 0.0
C782 C 0.09531 0.51322 0.22635 0.0
C783 C 0.10145 0.47308 0.23205 0.0
H784 H 0.70098 0.64933 0.55403 0.0
H785 H 0.81788 0.67511 0.52672 0.0
H786 H 0.79445 0.67151 0.4814 0.0
H787 H 0.68111 0.57901 0.50496 0.0
H788 H 0.63035 0.59069 0.50047 0.0
H789 H 0.65329 0.59879 0.53157 0.0
H790 H 0.63416 0.67143 0.53151 0.0
H791 H 0.60905 0.66425 0.5011 0.0
H792 H 0.64605 0.70148 0.50393 0.0
H793 H 0.75958 0.66068 0.43878 0.0
H794 H 0.71573 0.64383 0.40222 0.0
H795 H 0.6206 0.62606 0.45626 0.0
C796 C 0.72147 0.65506 0.53853 0.0
C797 C 0.76134 0.66307 0.5441 0.0
C798 C 0.78728 0.66916 0.5231 0.0
C799 C 0.77419 0.66721 0.49722 0.0
C800 C 0.73495 0.65886 0.49239 0.0
C801 C 0.70892 0.65281 0.51244 0.0
C802 C 0.66886 0.64174 0.50178 0.0
C803 C 0.65774 0.60012 0.51023 0.0
C804 C 0.63769 0.67152 0.51008 0.0
C805 C 0.67622 0.64346 0.47267 0.0
C806 C 0.7147 0.653 0.46772 0.0
C807 C 0.72926 0.65378 0.44245 0.0
C808 C 0.7041 0.64422 0.42175 0.0
C809 C 0.66447 0.63454 0.42621 0.0
C810 C 0.65038 0.63459 0.4521 0.0
H811 H 0.15069 0.03167 0.77669 0.0
H812 H 0.04554 0.97319 0.8027 0.0
H813 H 0.04217 0.93695 0.76139 0.0
H814 H 0.12401 0.03815 0.70703 0.0
H815 H 0.17282 0.02764 0.69601 0.0
H816 H 0.16543 0.05199 0.72666 0.0
H817 H 0.20591 0.99837 0.74984 0.0
H818 H 0.21336 0.97399 0.71925 0.0
H819 H 0.19208 0.94785 0.74605 0.0
H820 H 0.05247 0.90281 0.71897 0.0
H821 H 0.07579 0.8734 0.67806 0.0
H822 H 0.17444 0.95286 0.67806 0.0
C823 C 0.12647 0.01196 0.77337 0.0
C824 C 0.09806 1.00571 0.79298 0.0
C825 C 0.06752 0.97871 0.78807 0.0
C826 C 0.06532 0.95794 0.76459 0.0
C827 C 0.09403 0.96407 0.74592 0.0
C828 C 0.12407 0.99042 0.74993 0.0
C829 C 0.15241 0.98939 0.72714 0.0
C830 C 0.15373 0.02917 0.7134 0.0
C831 C 0.19336 0.97664 0.73612 0.0
C832 C 0.13364 0.95836 0.70989 0.0
C833 C 0.09995 0.94425 0.72117 0.0
C834 C 0.07854 0.91402 0.70979 0.0
C835 C 0.09202 0.89745 0.68649 0.0
C836 C 0.12656 0.91112 0.67445 0.0
C837 C 0.14735 0.94238 0.68631 0.0
H838 H 0.80981 0.36965 0.05638 0.0
H839 H 0.69402 0.34866 0.02498 0.0
H840 H 0.72014 0.35592 0.98044 0.0
H841 H 0.83641 0.44413 0.01067 0.0
H842 H 0.88682 0.42914 1.00918 0.0
H843 H 0.85896 0.42063 0.0382 0.0
H844 H 0.87626 0.34694 0.03547 0.0
H845 H 0.90368 0.35552 1.00624 0.0
H846 H 0.86482 0.32004 1.00631 0.0
H847 H 0.7595 0.3655 0.93904 0.0
H848 H 0.80724 0.38091 0.90467 0.0
H849 H 0.89668 0.39878 0.96336 0.0
C850 C 0.78995 0.36618 0.04015 0.0
C851 C 0.74982 0.35816 0.04422 0.0
C852 C 0.72482 0.35465 0.02239 0.0
C853 C 0.73945 0.35865 0.99701 0.0
C854 C 0.77913 0.36663 0.99371 0.0
C855 C 0.80394 0.37072 0.01473 0.0
C856 C 0.84501 0.38098 1.00602 0.0
C857 C 0.8575 0.42111 0.01665 0.0
C858 C 0.87416 0.34895 0.01399 0.0
C859 C 0.8395 0.38207 0.97679 0.0
C860 C 0.80139 0.37331 0.97005 0.0
C861 C 0.78939 0.37239 0.94416 0.0
C862 C 0.81683 0.38105 0.92472 0.0
C863 C 0.8559 0.39093 0.93116 0.0
C864 C 0.86717 0.39123 0.95766 0.0
H865 H 0.37897 0.14636 0.20638 0.0
H866 H 0.36642 0.04634 0.15521 0.0
H867 H 0.38091 1.00222 0.19179 0.0
H868 H 0.45801 0.10594 0.24738 0.0
H869 H 0.43857 0.12658 0.27685 0.0
H870 H 0.43038 0.15075 0.24626 0.0
H871 H 0.35593 0.14904 0.25432 0.0
H872 H 0.3637 0.12462 0.28483 0.0
H873 H 0.33234 0.10297 0.26062 0.0
H874 H 0.39288 0.96823 0.23429 0.0
H875 H 0.40174 0.94681 0.27958 0.0
H876 H 0.40641 0.06794 0.3045 0.0
C877 C 0.38025 0.11522 0.20275 0.0
C878 C 0.37209 0.09999 0.17762 0.0
C879 C 0.37286 0.05891 0.17404 0.0
C880 C 0.38106 0.03352 0.19478 0.0
C881 C 0.38832 0.04934 0.21929 0.0
C882 C 0.3881 0.08925 0.22343 0.0
C883 C 0.39488 0.09832 0.25208 0.0
C884 C 0.43272 0.12179 0.25586 0.0
C885 C 0.35962 0.12002 0.26364 0.0
C886 C 0.39872 0.05734 0.26336 0.0
C887 C 0.39492 0.0296 0.24401 0.0
C888 C 0.39616 0.98975 0.24956 0.0
C889 C 0.40118 0.97782 0.27546 0.0
C890 C 0.40504 1.00547 0.29586 0.0
C891 C 0.40405 0.04589 0.28949 0.0
H892 H 0.38986 0.37786 0.56871 0.0
H893 H 0.29112 0.408 0.6174 0.0
H894 H 0.24626 0.39435 0.58097 0.0
H895 H 0.35315 0.42286 0.51158 0.0
H896 H 0.37168 0.38648 0.48949 0.0
H897 H 0.39613 0.39513 0.51995 0.0
H898 H 0.38921 0.32196 0.53176 0.0
H899 H 0.36485 0.31304 0.50127 0.0
H900 H 0.34158 0.29955 0.53128 0.0
H901 H 0.21193 0.38134 0.53855 0.0
H902 H 0.19081 0.36992 0.49332 0.0
H903 H 0.31123 0.34867 0.47124 0.0
C904 C 0.35874 0.38069 0.57187 0.0
C905 C 0.3441 0.39355 0.59618 0.0
C906 C 0.30317 0.39795 0.59916 0.0
C907 C 0.27737 0.39025 0.57852 0.0
C908 C 0.29271 0.37831 0.55475 0.0
C909 C 0.33244 0.37347 0.55128 0.0
C910 C 0.34132 0.36243 0.52327 0.0
C911 C 0.36709 0.39358 0.51032 0.0
C912 C 0.36037 0.32183 0.52182 0.0
C913 C 0.30044 0.36201 0.51158 0.0
C914 C 0.27286 0.37114 0.53014 0.0
C915 C 0.23328 0.37387 0.52391 0.0
C916 C 0.22153 0.36735 0.49808 0.0
C917 C 0.24915 0.35814 0.47854 0.0
C918 C 0.28917 0.35518 0.48563 0.0
H919 H 0.85892 0.98539 0.23946 0.0
H920 H 0.96537 0.04436 0.2164 0.0
H921 H 0.96539 0.08149 0.25734 0.0
H922 H 0.81424 0.06809 0.26756 0.0
H923 H 0.79169 0.04285 0.29428 0.0
H924 H 0.80178 0.01712 0.26453 0.0
H925 H 0.84191 0.96562 0.28992 0.0
H926 H 0.83169 0.99111 0.31979 0.0
H927 H 0.88149 0.98135 0.31057 0.0
H928 H 0.95062 0.11793 0.2979 0.0
H929 H 0.92355 0.14891 0.33725 0.0
H930 H 0.8273 0.06658 0.33627 0.0
C931 C 0.88281 1.00522 0.24347 0.0
C932 C 0.91244 0.0116 0.22474 0.0
C933 C 0.9425 0.03879 0.23041 0.0
C934 C 0.94278 0.06009 0.25366 0.0
C935 C 0.91274 0.05412 0.27136 0.0
C936 C 0.88342 0.02715 0.26678 0.0
C937 C 0.85345 0.02848 0.2886 0.0
C938 C 0.8129 0.03981 0.27811 0.0
C939 C 0.85206 0.9893 0.30308 0.0
C940 C 0.87029 0.06068 0.30578 0.0
C941 C 0.90452 0.07498 0.29535 0.0
C942 C 0.92422 0.10651 0.30652 0.0
C943 C 0.90857 0.12402 0.32887 0.0
C944 C 0.87372 0.10985 0.34016 0.0
C945 C 0.85457 0.07744 0.3285 0.0
H946 H 0.12293 0.64803 0.06859 0.0
H947 H 0.21659 0.6057 0.11807 0.0
H948 H 0.2639 0.61768 0.08304 0.0
H949 H 0.15522 0.60516 0.01137 0.0
H950 H 0.14224 0.64497 0.99016 0.0
H951 H 0.11605 0.63791 0.02001 0.0
H952 H 0.13165 0.7082 0.03455 0.0
H953 H 0.15753 0.71622 1.00461 0.0
H954 H 0.18166 0.72459 0.03526 0.0
H955 H 0.30072 0.62884 0.04102 0.0
H956 H 0.32344 0.63956 0.99603 0.0
H957 H 0.20625 0.67508 0.97397 0.0
C958 C 0.15351 0.64218 0.07232 0.0
C959 C 0.16583 0.62615 0.09635 0.0
C960 C 0.20618 0.61822 0.10004 0.0
C961 C 0.23343 0.62491 0.08019 0.0
C962 C 0.22021 0.63986 0.05661 0.0
C963 C 0.18124 0.6488 0.05268 0.0
C964 C 0.17439 0.66278 0.02507 0.0
C965 C 0.14529 0.63608 0.0108 0.0
C966 C 0.16049 0.70549 0.02487 0.0
C967 C 0.21524 0.65911 0.01391 0.0
C968 C 0.24138 0.64624 0.03246 0.0
C969 C 0.28053 0.63934 0.02642 0.0
C970 C 0.29322 0.64549 1.00075 0.0
C971 C 0.26686 0.65832 0.98129 0.0
C972 C 0.22742 0.66555 0.98827 0.0
H973 H 0.65415 0.03116 0.74068 0.0
H974 H 0.54023 0.98186 0.72421 0.0
H975 H 0.54228 0.94575 0.76557 0.0
H976 H 0.69485 0.9464 0.76559 0.0
H977 H 0.72361 0.9689 0.79086 0.0
H978 H 0.71112 0.99621 0.76219 0.0
H979 H 0.67961 0.0502 0.79049 0.0
H980 H 0.69245 0.02322 0.81932 0.0
H981 H 0.64242 0.03727 0.81363 0.0
H982 H 0.56049 0.90705 0.80452 0.0
H983 H 0.59165 0.87212 0.84102 0.0
H984 H 0.69339 0.94677 0.83451 0.0
C985 C 0.62899 0.01415 0.74644 0.0
C986 C 0.59653 0.01003 0.72952 0.0
C987 C 0.56496 0.98598 0.7371 0.0
C988 C 0.56595 0.96523 0.76053 0.0
C989 C 0.59881 0.96866 0.77636 0.0
C990 C 0.62961 0.9929 0.76991 0.0
C991 C 0.66272 0.98855 0.78952 0.0
C992 C 0.70028 0.97416 0.77624 0.0
C993 C 0.6697 0.02711 0.80411 0.0
C994 C 0.64605 0.95749 0.80748 0.0
C995 C 0.60912 0.94651 0.79944 0.0
C996 C 0.58901 0.91603 0.81137 0.0
C997 C 0.60699 0.89622 0.83204 0.0
C998 C 0.64459 0.90714 0.84092 0.0
C999 C 0.66416 0.93851 0.82859 0.0
H1000 H 0.45546 0.16996 0.0996 0.0
H1001 H 0.37719 0.26382 0.07813 0.0
H1002 H 0.43324 0.30458 0.06546 0.0
H1003 H 0.51949 0.22431 0.13072 0.0
H1004 H 0.56367 0.19966 0.12106 0.0
H1005 H 0.51821 0.1737 0.12096 0.0
H1006 H 0.52747 0.156 0.07246 0.0
H1007 H 0.57346 0.18166 0.07247 0.0
H1008 H 0.53621 0.1942 0.04914 0.0
H1009 H 0.49668 0.3407 0.06628 0.0
H1010 H 0.5618 0.36669 0.0784 0.0
H1011 H 0.59956 0.24908 0.09725 0.0
C1012 C 0.45025 0.19813 0.09071 0.0
C1013 C 0.41215 0.21353 0.08933 0.0
C1014 C 0.40627 0.25134 0.07887 0.0
C1015 C 0.43795 0.27474 0.07164 0.0
C1016 C 0.47549 0.25983 0.07471 0.0
C1017 C 0.4818 0.222 0.08346 0.0
C1018 C 0.52478 0.21507 0.08867 0.0
C1019 C 0.53191 0.20249 0.11702 0.0
C1020 C 0.54146 0.18495 0.06954 0.0
C1021 C 0.541 0.25549 0.0834 0.0
C1022 C 0.51241 0.28081 0.07485 0.0
C1023 C 0.51966 0.32087 0.07217 0.0
C1024 C 0.55674 0.33548 0.07908 0.0
C1025 C 0.58586 0.31006 0.08876 0.0
C1026 C 0.57808 0.26942 0.08978 0.0
H1027 H 0.59679 0.71438 0.34975 0.0
H1028 H 0.50449 0.63726 0.32385 0.0
H1029 H 0.46325 0.69405 0.31309 0.0
H1030 H 0.54047 0.77566 0.38246 0.0
H1031 H 0.5651 0.82069 0.37477 0.0
H1032 H 0.5914 0.77538 0.37365 0.0
H1033 H 0.6108 0.78841 0.32588 0.0
H1034 H 0.58493 0.83428 0.32695 0.0
H1035 H 0.57342 0.79885 0.30218 0.0
H1036 H 0.4264 0.7576 0.31564 0.0
H1037 H 0.4001 0.82244 0.32823 0.0
H1038 H 0.517 0.85881 0.35023 0.0
C1039 C 0.56892 0.70969 0.34027 0.0
C1040 C 0.55416 0.67154 0.33704 0.0
C1041 C 0.51661 0.66635 0.32592 0.0
C1042 C 0.49288 0.69847 0.31984 0.0
C1043 C 0.50717 0.73583 0.32472 0.0
C1044 C 0.54476 0.74166 0.3341 0.0
C1045 C 0.55121 0.78427 0.34086 0.0
C1046 C 0.56269 0.78925 0.36963 0.0
C1047 C 0.58191 0.80253 0.32289 0.0
C1048 C 0.51089 0.80079 0.3354 0.0
C1049 C 0.48592 0.77268 0.32575 0.0
C1050 C 0.446 0.78022 0.32243 0.0
C1051 C 0.4312 0.81715 0.32963 0.0
C1052 C 0.45628 0.84597 0.34015 0.0
C1053 C 0.49683 0.83775 0.34206 0.0
H1054 H 0.91287 0.76212 0.60616 0.0
H1055 H 0.94675 0.65105 0.5723 0.0
H1056 H 0.0095 0.68074 0.55845 0.0
H1057 H 0.96334 0.82789 0.55936 0.0
H1058 H 0.97681 0.86133 0.58491 0.0
H1059 H 0.93213 0.83372 0.58722 0.0
H1060 H 0.95415 0.8064 0.6318 0.0
H1061 H 0.99856 0.83403 0.62971 0.0
H1062 H 1.00062 0.7819 0.6344 0.0
H1063 H 0.07236 0.71994 0.55477 0.0
H1064 H 0.12948 0.76166 0.56422 0.0
H1065 H 0.05453 0.84653 0.6014 0.0
C1066 C 0.93292 0.744 0.59526 0.0
C1067 C 0.9246 0.70403 0.59028 0.0
C1068 C 0.9521 0.68169 0.57616 0.0
C1069 C 0.98782 0.69844 0.5682 0.0
C1070 C 0.99546 0.73763 0.5743 0.0
C1071 C 0.96854 0.76006 0.58749 0.0
C1072 C 0.98512 0.79973 0.59476 0.0
C1073 C 0.96303 0.83261 0.58072 0.0
C1074 C 0.9846 0.80583 0.62441 0.0
C1075 C 0.0264 0.79584 0.58459 0.0
C1076 C 0.03155 0.76015 0.57229 0.0
C1077 C 0.06827 0.74825 0.56374 0.0
C1078 C 0.10057 0.77235 0.56897 0.0
C1079 C 0.09624 0.808 0.58271 0.0
C1080 C 0.05842 0.82048 0.58973 0.0
H1081 H 0.01408 0.34888 0.86811 0.0
H1082 H 0.91952 0.32542 0.81424 0.0
H1083 H 0.95482 0.26636 0.79873 0.0
H1084 H 0.09548 0.31108 0.82645 0.0
H1085 H 0.12067 0.2917 0.85437 0.0
H1086 H 0.09124 0.33516 0.85746 0.0
H1087 H 0.05137 0.30252 0.89423 0.0
H1088 H 0.0808 0.25938 0.89141 0.0
H1089 H 0.02846 0.25592 0.88831 0.0
H1090 H 0.99469 0.20375 0.79575 0.0
H1091 H 0.03345 0.14469 0.80596 0.0
H1092 H 0.10328 0.21117 0.86023 0.0
C1093 C 1.00107 0.33179 0.85263 0.0
C1094 C 0.96393 0.34153 0.84246 0.0
C1095 C 0.94799 0.31855 0.82221 0.0
C1096 C 0.96795 0.28506 0.81328 0.0
C1097 C 1.00415 0.27568 0.82438 0.0
C1098 C 0.02068 0.29884 0.84343 0.0
C1099 C 0.0577 0.28091 0.85427 0.0
C1100 C 0.09339 0.30622 0.84774 0.0
C1101 C 0.05434 0.27427 0.88378 0.0
C1102 C 0.05853 0.24273 0.83946 0.0
C1103 C 0.02783 0.24045 0.82191 0.0
C1104 C 0.01956 0.2058 0.80869 0.0
C1105 C 0.04195 0.17244 0.81439 0.0
C1106 C 0.07241 0.17399 0.83297 0.0
C1107 C 0.08164 0.2099 0.84487 0.0
H1108 H 0.57591 0.81751 0.94713 0.0
H1109 H 0.60763 0.78458 0.86842 0.0
H1110 H 0.55312 0.73883 0.86661 0.0
H1111 H 0.53847 0.72803 0.96965 0.0
H1112 H 0.49501 0.74654 0.98504 0.0
H1113 H 0.53736 0.77741 0.98186 0.0
H1114 H 0.49662 0.82969 0.95757 0.0
H1115 H 0.4539 0.79965 0.96166 0.0
H1116 H 0.46801 0.81549 0.92968 0.0
H1117 H 0.50534 0.68784 0.87575 0.0
H1118 H 0.44291 0.65572 0.88546 0.0
H1119 H 0.42842 0.7305 0.9528 0.0
C1120 C 0.57048 0.80167 0.92928 0.0
C1121 C 0.59702 0.80368 0.90826 0.0
C1122 C 0.5884 0.78285 0.88506 0.0
C1123 C 0.55778 0.75629 0.88388 0.0
C1124 C 0.53427 0.7523 0.90551 0.0
C1125 C 0.53804 0.77624 0.92702 0.0
C1126 C 0.50451 0.76872 0.94577 0.0
C1127 C 0.51977 0.75433 0.97215 0.0
C1128 C 0.47925 0.80557 0.94885 0.0
C1129 C 0.48249 0.73637 0.93147 0.0
C1130 C 0.50173 0.7263 0.90897 0.0
C1131 C 0.48925 0.69595 0.89298 0.0
C1132 C 0.45414 0.67736 0.89892 0.0
C1133 C 0.43112 0.6904 0.91992 0.0
C1134 C 0.44595 0.71949 0.93693 0.0
H1135 H 0.47699 0.33593 0.70664 0.0
H1136 H 0.40959 0.32207 0.63579 0.0
H1137 H 0.44547 0.26185 0.62587 0.0
H1138 H 0.56493 0.30016 0.68827 0.0
H1139 H 0.57638 0.26967 0.71576 0.0
H1140 H 0.54416 0.31089 0.7196 0.0
H1141 H 0.4896 0.26649 0.73773 0.0
H1142 H 0.52226 0.22536 0.73513 0.0
H1143 H 0.47498 0.22373 0.7197 0.0
H1144 H 0.50151 0.21897 0.6172 0.0
H1145 H 0.54875 0.16568 0.61968 0.0
H1146 H 0.56755 0.18974 0.70163 0.0
C1147 C 0.46817 0.31883 0.68993 0.0
C1148 C 0.44063 0.33379 0.67183 0.0
C1149 C 0.43034 0.31111 0.64992 0.0
C1150 C 0.45107 0.27721 0.64388 0.0
C1151 C 0.48022 0.26504 0.66087 0.0
C1152 C 0.48664 0.28291 0.68449 0.0
C1153 C 0.51776 0.26065 0.69984 0.0
C1154 C 0.55288 0.28694 0.70624 0.0
C1155 C 0.5001 0.24299 0.72457 0.0
C1156 C 0.52895 0.22893 0.68039 0.0
C1157 C 0.50804 0.23393 0.65766 0.0
C1158 C 0.51641 0.21303 0.63533 0.0
C1159 C 0.54391 0.18323 0.6369 0.0
C1160 C 0.56082 0.17243 0.66106 0.0
C1161 C 0.55475 0.19681 0.68299 0.0
H1162 H 0.08907 0.28616 0.45254 0.0
H1163 H 0.06751 0.36596 0.3888 0.0
H1164 H 1.00422 0.33427 0.38064 0.0
H1165 H 0.04935 0.20354 0.42818 0.0
H1166 H 0.02353 0.18613 0.45633 0.0
H1167 H 0.06559 0.21717 0.46027 0.0
H1168 H 0.02536 0.26706 0.48683 0.0
H1169 H 0.98352 0.23537 0.48402 0.0
H1170 H 0.98014 0.28556 0.47373 0.0
H1171 H 0.95686 0.28285 0.37116 0.0
H1172 H 0.90457 0.2347 0.37241 0.0
H1173 H 0.94331 0.19601 0.44862 0.0
C1174 C 0.06979 0.29845 0.43799 0.0
C1175 C 0.08288 0.32886 0.42143 0.0
C1176 C 0.05764 0.34343 0.40201 0.0
C1177 C 0.02198 0.32509 0.39693 0.0
C1178 C 0.01123 0.29345 0.41229 0.0
C1179 C 0.03275 0.28182 0.43355 0.0
C1180 C 0.01277 0.24762 0.44719 0.0
C1181 C 0.03942 0.21149 0.44804 0.0
C1182 C 0.99965 0.25962 0.47457 0.0
C1183 C 0.97783 0.24081 0.42935 0.0
C1184 C 0.97902 0.26688 0.40888 0.0
C1185 C 0.95411 0.26379 0.38779 0.0
C1186 C 0.92476 0.2358 0.38864 0.0
C1187 C 0.91862 0.21247 0.41109 0.0
C1188 C 0.94664 0.21378 0.4314 0.0
H1189 H 0.08991 0.71457 0.17227 0.0
H1190 H 0.9951 0.6353 0.1894 0.0
H1191 H 0.95278 0.69089 0.20087 0.0
H1192 H 0.06103 0.79303 0.22332 0.0
H1193 H 0.07539 0.83143 0.20144 0.0
H1194 H 0.10111 0.78543 0.20126 0.0
H1195 H 0.08741 0.77855 0.15199 0.0
H1196 H 0.06145 0.82407 0.15207 0.0
H1197 H 0.0377 0.78043 0.14041 0.0
H1198 H 0.91613 0.7547 0.19949 0.0
H1199 H 0.8912 0.8207 0.1883 0.0
H1200 H 0.01025 0.85907 0.17533 0.0
C1201 C 0.06109 0.70899 0.18001 0.0
C1202 C 0.04607 0.67065 0.18053 0.0
C1203 C 0.00741 0.66447 0.18943 0.0
C1204 C 0.98305 0.69592 0.19591 0.0
C1205 C 0.9978 0.73365 0.19379 0.0
C1206 C 0.03631 0.74031 0.1867 0.0
C1207 C 0.04348 0.78359 0.18282 0.0
C1208 C 0.07194 0.7993 0.20345 0.0
C1209 C 0.05835 0.79212 0.15519 0.0
C1210 C 1.00264 0.79965 0.18699 0.0
C1211 C 0.97666 0.77064 0.19369 0.0
C1212 C 0.93643 0.77796 0.19508 0.0
C1213 C 0.9224 0.81558 0.18876 0.0
C1214 C 0.94858 0.84526 0.18103 0.0
C1215 C 0.98927 0.83724 0.18134 0.0
H1216 H 0.26371 0.30844 0.16454 0.0
H1217 H 0.28236 0.30741 0.08143 0.0
H1218 H 0.25816 0.37557 0.07871 0.0
H1219 H 0.1719 0.35862 0.15969 0.0
H1220 H 0.17927 0.38158 0.1908 0.0
H1221 H 0.20182 0.33531 0.18366 0.0
H1222 H 0.27005 0.37024 0.19604 0.0
H1223 H 0.24377 0.41524 0.20115 0.0
H1224 H 0.28353 0.41336 0.17831 0.0
H1225 H 0.22451 0.44004 0.08431 0.0
H1226 H 0.18062 0.49409 0.09723 0.0
H1227 H 0.18256 0.45307 0.17664 0.0
C1228 C 0.2639 0.32316 0.14594 0.0
C1229 C 0.27581 0.30333 0.12325 0.0
C1230 C 0.27393 0.32256 0.09902 0.0
C1231 C 0.26036 0.36121 0.09736 0.0
C1232 C 0.24825 0.37989 0.12007 0.0
C1233 C 0.2495 0.36133 0.14387 0.0
C1234 C 0.22962 0.38554 0.16465 0.0
C1235 C 0.1936 0.36402 0.17538 0.0
C1236 C 0.25843 0.39675 0.18634 0.0
C1237 C 0.21742 0.42091 0.149 0.0
C1238 C 0.2285 0.4171 0.1233 0.0
C1239 C 0.21655 0.4438 0.10447 0.0
C1240 C 0.19179 0.47443 0.11196 0.0
C1241 C 0.17955 0.47826 0.13802 0.0
C1242 C 0.19315 0.4517 0.15686 0.0
H1243 H 0.30877 0.453 0.42296 0.0
H1244 H 0.28951 0.41294 0.34414 0.0
H1245 H 0.34346 0.45462 0.32887 0.0
H1246 H 0.34316 0.55541 0.40622 0.0
H1247 H 0.37967 0.55454 0.43148 0.0
H1248 H 0.33451 0.52821 0.43558 0.0
H1249 H 0.37348 0.46465 0.44425 0.0
H1250 H 0.4186 0.49067 0.44005 0.0
H1251 H 0.40846 0.44807 0.42056 0.0
H1252 H 0.40522 0.49039 0.32314 0.0
H1253 H 0.47107 0.51914 0.3273 0.0
H1254 H 0.45176 0.53732 0.40959 0.0
C1255 C 0.31502 0.45445 0.40238 0.0
C1256 C 0.29472 0.4305 0.38456 0.0
C1257 C 0.30457 0.43157 0.35794 0.0
C1258 C 0.33506 0.45521 0.3491 0.0
C1259 C 0.35555 0.47755 0.36717 0.0
C1260 C 0.34591 0.47765 0.39326 0.0
C1261 C 0.37581 0.50044 0.40895 0.0
C1262 C 0.35717 0.53682 0.42128 0.0
C1263 C 0.39523 0.4744 0.42966 0.0
C1264 C 0.40442 0.51165 0.38778 0.0
C1265 C 0.39181 0.49859 0.36378 0.0
C1266 C 0.41501 0.50168 0.34168 0.0
C1267 C 0.45237 0.51792 0.34421 0.0
C1268 C 0.46611 0.53102 0.36862 0.0
C1269 C 0.44144 0.52865 0.39054 0.0
H1270 H 0.24184 0.70938 0.66361 0.0
H1271 H 0.23335 0.71537 0.57983 0.0
H1272 H 0.2604 0.64838 0.57646 0.0
H1273 H 0.3362 0.66209 0.6624 0.0
H1274 H 0.32561 0.63754 0.69249 0.0
H1275 H 0.30278 0.68358 0.68496 0.0
H1276 H 0.23505 0.64588 0.69322 0.0
H1277 H 0.2614 0.60082 0.69791 0.0
H1278 H 0.22407 0.60404 0.67326 0.0
H1279 H 0.29589 0.58525 0.58197 0.0
H1280 H 0.33923 0.53125 0.59576 0.0
H1281 H 0.3255 0.56604 0.67606 0.0
C1282 C 0.24444 0.69588 0.64465 0.0
C1283 C 0.23455 0.71668 0.62196 0.0
C1284 C 0.24012 0.69928 0.59737 0.0
C1285 C 0.25537 0.66135 0.59532 0.0
C1286 C 0.26546 0.64166 0.61808 0.0
C1287 C 0.26059 0.65848 0.64227 0.0
C1288 C 0.27879 0.63358 0.66338 0.0
C1289 C 0.31278 0.65545 0.67663 0.0
C1290 C 0.248 0.6203 0.68312 0.0
C1291 C 0.2939 0.59966 0.64743 0.0
C1292 C 0.28609 0.60503 0.62129 0.0
C1293 C 0.30133 0.58021 0.6024 0.0
C1294 C 0.32584 0.5497 0.61036 0.0
C1295 C 0.33451 0.54409 0.63694 0.0
C1296 C 0.31778 0.56885 0.65574 0.0
H1297 H 0.04561 0.53218 0.84708 0.0
H1298 H 0.07102 0.42341 0.88671 0.0
H1299 H 0.13905 0.44525 0.89383 0.0
H1300 H 0.14585 0.54732 0.81798 0.0
H1301 H 0.14228 0.59927 0.82322 0.0
H1302 H 0.09897 0.57118 0.81628 0.0
H1303 H 0.06722 0.59791 0.85833 0.0
H1304 H 0.1105 0.62536 0.86573 0.0
H1305 H 0.09174 0.59092 0.889 0.0
H1306 H 0.20005 0.48476 0.90404 0.0
H1307 H 0.24929 0.53593 0.9133 0.0
H1308 H 0.18262 0.618 0.86674 0.0
C1309 C 0.06589 0.51229 0.85637 0.0
C1310 C 0.05309 0.47615 0.86631 0.0
C1311 C 0.08032 0.45109 0.87867 0.0
C1312 C 0.119 0.46334 0.88289 0.0
C1313 C 0.13002 0.50031 0.87419 0.0
C1314 C 0.10436 0.52403 0.86067 0.0
C1315 C 0.12156 0.56397 0.85578 0.0
C1316 C 0.12753 0.57082 0.82658 0.0
C1317 C 0.09625 0.59641 0.86795 0.0
C1318 C 0.16013 0.55982 0.86976 0.0
C1319 C 0.16491 0.52284 0.87999 0.0
C1320 C 0.19698 0.51353 0.8956 0.0
C1321 C 0.22469 0.54283 0.90088 0.0
C1322 C 0.21987 0.58102 0.89077 0.0
C1323 C 0.18742 0.58912 0.87469 0.0
H1324 H 0.74105 0.69814 0.86041 0.0
H1325 H 0.76123 0.7132 0.94293 0.0
H1326 H 0.78044 0.64343 0.94622 0.0
H1327 H 0.70736 0.59477 0.86159 0.0
H1328 H 0.73324 0.5835 0.83209 0.0
H1329 H 0.71412 0.63196 0.83728 0.0
H1330 H 0.78258 0.66097 0.82979 0.0
H1331 H 0.80235 0.61306 0.8246 0.0
H1332 H 0.82323 0.64435 0.84918 0.0
H1333 H 0.80289 0.57366 0.93948 0.0
H1334 H 0.83646 0.51482 0.92259 0.0
H1335 H 0.80575 0.548 0.84417 0.0
C1336 C 0.74841 0.6865 0.87935 0.0
C1337 C 0.74894 0.71075 0.90156 0.0
C1338 C 0.76028 0.6949 0.92577 0.0
C1339 C 0.77088 0.65529 0.92781 0.0
C1340 C 0.77024 0.63218 0.90541 0.0
C1341 C 0.75973 0.64748 0.88158 0.0
C1342 C 0.76675 0.6186 0.85981 0.0
C1343 C 0.72805 0.60649 0.84694 0.0
C1344 C 0.79548 0.63522 0.83969 0.0
C1345 C 0.78438 0.58507 0.87491 0.0
C1346 C 0.78486 0.59281 0.9013 0.0
C1347 C 0.80201 0.56704 0.91894 0.0
C1348 C 0.82063 0.53351 0.90924 0.0
C1349 C 0.82251 0.52661 0.88222 0.0
C1350 C 0.80332 0.55209 0.86496 0.0
H1351 H 0.70177 0.56586 0.59105 0.0
H1352 H 0.75259 0.5593 0.66793 0.0
H1353 H 0.69853 0.51677 0.68219 0.0
H1354 H 0.60834 0.57689 0.61103 0.0
H1355 H 0.58447 0.54811 0.58636 0.0
H1356 H 0.6308 0.57064 0.57967 0.0
H1357 H 0.66106 0.50404 0.56755 0.0
H1358 H 0.61442 0.48119 0.57315 0.0
H1359 H 0.65734 0.46362 0.58982 0.0
H1360 H 0.63298 0.48763 0.69063 0.0
H1361 H 0.56353 0.46693 0.69101 0.0
H1362 H 0.55588 0.48867 0.60836 0.0
C1363 C 0.70251 0.55352 0.61039 0.0
C1364 C 0.73188 0.56461 0.62823 0.0
C1365 C 0.73086 0.55003 0.65388 0.0
C1366 C 0.70016 0.52608 0.66216 0.0
C1367 C 0.67064 0.51689 0.64451 0.0
C1368 C 0.67187 0.52947 0.61897 0.0
C1369 C 0.63434 0.51901 0.60481 0.0
C1370 C 0.61328 0.55587 0.59489 0.0
C1371 C 0.64228 0.49023 0.58252 0.0
C1372 C 0.6116 0.49968 0.62652 0.0
C1373 C 0.63298 0.49885 0.6493 0.0
C1374 C 0.61638 0.48687 0.67273 0.0
C1375 C 0.57699 0.47532 0.67286 0.0
C1376 C 0.55498 0.47523 0.64965 0.0
C1377 C 0.57266 0.48716 0.6262 0.0
H1378 H 0.76705 0.31052 0.3611 0.0
H1379 H 0.75653 0.2981 0.44453 0.0
H1380 H 0.73887 0.36828 0.44794 0.0
H1381 H 0.8032 0.41262 0.35944 0.0
H1382 H 0.77432 0.42381 0.3311 0.0
H1383 H 0.7923 0.37488 0.33612 0.0
H1384 H 0.72122 0.34819 0.33255 0.0
H1385 H 0.70393 0.3971 0.32727 0.0
H1386 H 0.68405 0.36832 0.35336 0.0
H1387 H 0.71808 0.43768 0.44184 0.0
H1388 H 0.68379 0.49677 0.42667 0.0
H1389 H 0.70456 0.46318 0.34686 0.0
C1390 C 0.76178 0.32279 0.38017 0.0
C1391 C 0.76373 0.29923 0.40268 0.0
C1392 C 0.75537 0.31584 0.42715 0.0
C1393 C 0.74578 0.35567 0.42924 0.0
C1394 C 0.74437 0.37819 0.40662 0.0
C1395 C 0.75146 0.36212 0.3825 0.0
C1396 C 0.74298 0.39098 0.3609 0.0
C1397 C 0.78043 0.40117 0.34601 0.0
C1398 C 0.71115 0.37522 0.34245 0.0
C1399 C 0.72864 0.4256 0.37656 0.0
C1400 C 0.73094 0.41799 0.40294 0.0
C1401 C 0.71674 0.44419 0.42131 0.0
C1402 C 0.69767 0.47787 0.41253 0.0
C1403 C 0.69259 0.48489 0.38565 0.0
C1404 C 0.70962 0.45927 0.36745 0.0
H1405 H 0.81622 0.4081 0.16151 0.0
H1406 H 0.75594 0.48095 0.10531 0.0
H1407 H 0.80754 0.53101 0.11007 0.0
H1408 H 0.85778 0.48862 0.20251 0.0
H1409 H 0.90268 0.462 0.20719 0.0
H1410 H 0.85725 0.43598 0.20335 0.0
H1411 H 0.88683 0.39676 0.16506 0.0
H1412 H 0.93212 0.42261 0.16871 0.0
H1413 H 0.9072 0.42271 0.13784 0.0
H1414 H 0.87043 0.56778 0.11578 0.0
H1415 H 0.93931 0.58724 0.12081 0.0
H1416 H 0.95858 0.48941 0.17281 0.0
C1417 C 0.81315 0.43501 0.15068 0.0
C1418 C 0.78195 0.44059 0.13303 0.0
C1419 C 0.77943 0.47609 0.11905 0.0
C1420 C 0.80856 0.50473 0.12171 0.0
C1421 C 0.83968 0.49757 0.13861 0.0
C1422 C 0.84194 0.46362 0.15299 0.0
C1423 C 0.88045 0.46052 0.16734 0.0
C1424 C 0.87415 0.46188 0.19685 0.0
C1425 C 0.90296 0.42348 0.15923 0.0
C1426 C 0.90041 0.49716 0.15784 0.0
C1427 C 0.87615 0.51859 0.14173 0.0
C1428 C 0.88939 0.55166 0.12875 0.0
C1429 C 0.92866 0.56241 0.1317 0.0
C1430 C 0.95442 0.53989 0.14726 0.0
C1431 C 0.93959 0.50762 0.16112 0.0
H1432 H 0.74096 0.79125 0.60288 0.0
H1433 H 0.83042 0.80344 0.6622 0.0
H1434 H 0.80965 0.87143 0.66989 0.0
H1435 H 0.74511 0.89406 0.57855 0.0
H1436 H 0.69296 0.89549 0.57381 0.0
H1437 H 0.71904 0.85007 0.57013 0.0
H1438 H 0.67354 0.81777 0.60403 0.0
H1439 H 0.64753 0.86298 0.6079 0.0
H1440 H 0.66896 0.83947 0.63579 0.0
H1441 H 0.77302 0.93523 0.67532 0.0
H1442 H 0.72396 0.9884 0.6775 0.0
H1443 H 0.65992 0.93409 0.61421 0.0
C1444 C 0.75696 0.8085 0.61697 0.0
C1445 C 0.78737 0.79192 0.63185 0.0
C1446 C 0.80711 0.81545 0.65042 0.0
C1447 C 0.79558 0.85421 0.65492 0.0
C1448 C 0.76462 0.86926 0.64048 0.0
C1449 C 0.74589 0.8472 0.62167 0.0
C1450 C 0.71123 0.86877 0.61045 0.0
C1451 C 0.71748 0.87763 0.58152 0.0
C1452 C 0.67309 0.84589 0.61482 0.0
C1453 C 0.71247 0.90571 0.62657 0.0
C1454 C 0.74371 0.90587 0.64356 0.0
C1455 C 0.74885 0.93577 0.66175 0.0
C1456 C 0.72089 0.96587 0.66286 0.0
C1457 C 0.68811 0.96546 0.64606 0.0
C1458 C 0.68468 0.93543 0.62731 0.0
H1459 H 0.82831 0.91129 0.859 0.0
H1460 H 0.77296 0.97651 0.92112 0.0
H1461 H 0.82313 0.02822 0.91665 0.0
H1462 H 0.92157 0.92545 0.879 0.0
H1463 H 0.94269 0.92917 0.84709 0.0
H1464 H 0.89845 0.90194 0.85164 0.0
H1465 H 0.86365 0.94439 0.81694 0.0
H1466 H 0.908 0.97181 0.81221 0.0
H1467 H 0.86333 0.9968 0.82036 0.0
H1468 H 0.88508 0.0671 0.90982 0.0
H1469 H 0.95281 0.08862 0.9023 0.0
H1470 H 0.9672 0.99679 0.84491 0.0
C1471 C 0.82605 0.93688 0.8713 0.0
C1472 C 0.79673 0.93987 0.89045 0.0
C1473 C 0.795 0.97374 0.90619 0.0
C1474 C 0.82335 1.00325 0.90374 0.0
C1475 C 0.85275 0.99858 0.88523 0.0
C1476 C 0.85396 0.9663 0.86913 0.0
C1477 C 0.89066 0.96562 0.85285 0.0
C1478 C 0.91475 0.92836 0.85798 0.0
C1479 C 0.88081 0.96993 0.82387 0.0
C1480 C 0.91102 1.0016 0.86315 0.0
C1481 C 0.88842 0.02074 0.88141 0.0
C1482 C 0.90266 0.05277 0.89521 0.0
C1483 C 0.94127 0.06476 0.89078 0.0
C1484 C 0.96543 0.04442 0.87296 0.0
C1485 C 0.94945 0.01328 0.85842 0.0
H1486 H 0.80525 0.05797 0.16988 0.0
H1487 H 0.84437 0.0389 0.09098 0.0
H1488 H 0.80195 0.09244 0.07576 0.0
H1489 H 0.70184 0.09179 0.15284 0.0
H1490 H 0.70263 0.12805 0.17825 0.0
H1491 H 0.729 0.08283 0.18226 0.0
H1492 H 0.7924 0.12182 0.19134 0.0
H1493 H 0.7663 0.16694 0.18721 0.0
H1494 H 0.80896 0.15707 0.16785 0.0
H1495 H 0.76682 0.15493 0.07027 0.0
H1496 H 0.73906 0.22122 0.07483 0.0
H1497 H 0.72055 0.20044 0.15682 0.0
C1498 C 0.80334 0.06404 0.14929 0.0
C1499 C 0.8274 0.044 0.13146 0.0
C1500 C 0.82568 0.0537 0.1048 0.0
C1501 C 0.80164 0.084 0.09599 0.0
C1502 C 0.77938 0.1044 0.11408 0.0
C1503 C 0.7796 0.09466 0.14017 0.0
C1504 C 0.75675 0.12442 0.1559 0.0
C1505 C 0.72039 0.10564 0.16802 0.0
C1506 C 0.78266 0.14369 0.17679 0.0
C1507 C 0.74549 0.15326 0.13479 0.0
C1508 C 0.75836 0.14082 0.11077 0.0
C1509 C 0.75555 0.1645 0.08882 0.0
C1510 C 0.73986 0.20213 0.09158 0.0
C1511 C 0.72694 0.21567 0.11604 0.0
C1512 C 0.72893 0.19045 0.13773 0.0
H1513 H 0.5645 0.97608 0.41146 0.0
H1514 H 0.54356 0.9978 0.32976 0.0
H1515 H 0.61254 0.01726 0.32442 0.0
H1516 H 0.61619 0.05741 0.42263 0.0
H1517 H 0.6509 0.03743 0.44547 0.0
H1518 H 0.60414 0.01466 0.4414 0.0
H1519 H 0.63657 0.94888 0.43133 0.0
H1520 H 0.68407 0.97095 0.43513 0.0
H1521 H 0.67182 0.94563 0.40551 0.0
H1522 H 0.67908 0.04362 0.32896 0.0
H1523 H 0.73428 0.08395 0.34385 0.0
H1524 H 0.71235 0.04941 0.42327 0.0
C1525 C 0.57493 0.98357 0.39228 0.0
C1526 C 0.54899 0.98489 0.37089 0.0
C1527 C 0.56311 0.99633 0.3463 0.0
C1528 C 0.60232 0.00702 0.34306 0.0
C1529 C 0.62706 1.00627 0.36464 0.0
C1530 C 0.61389 0.99505 0.38885 0.0
C1531 C 0.6444 1.00322 0.40962 0.0
C1532 C 0.62797 0.02989 0.43102 0.0
C1533 C 0.66015 0.96488 0.42107 0.0
C1534 C 0.67543 0.02361 0.39369 0.0
C1535 C 0.66557 0.02329 0.36758 0.0
C1536 C 0.68751 0.04333 0.34922 0.0
C1537 C 0.71892 0.06605 0.35784 0.0
C1538 C 0.72784 0.06904 0.3846 0.0
C1539 C 0.70694 0.0463 0.40265 0.0
H1540 H 0.27364 0.21561 0.42835 0.0
H1541 H 0.17157 0.19581 0.38002 0.0
H1542 H 0.19157 0.12733 0.37366 0.0
H1543 H 0.33729 0.16671 0.39087 0.0
H1544 H 0.36624 0.14574 0.41659 0.0
H1545 H 0.33988 0.19031 0.42215 0.0
H1546 H 0.30443 0.1591 0.46135 0.0
H1547 H 0.33115 0.11438 0.45614 0.0
H1548 H 0.27854 0.11367 0.45712 0.0
H1549 H 0.22924 0.06488 0.36571 0.0
H1550 H 0.27967 0.01386 0.35908 0.0
H1551 H 0.35558 0.07438 0.41347 0.0
C1552 C 0.2546 0.1965 0.41734 0.0
C1553 C 0.221 0.21121 0.40476 0.0
C1554 C 0.19742 0.1853 0.38996 0.0
C1555 C 0.20851 0.14623 0.38622 0.0
C1556 C 0.24295 0.1332 0.39775 0.0
C1557 C 0.26525 0.15741 0.41343 0.0
C1558 C 0.30306 0.1378 0.42127 0.0
C1559 C 0.33868 0.16155 0.41216 0.0
C1560 C 0.30435 0.13082 0.45072 0.0
C1561 C 0.29941 0.09968 0.40654 0.0
C1562 C 0.26438 0.09714 0.39335 0.0
C1563 C 0.2564 0.06611 0.37646 0.0
C1564 C 0.28522 0.03727 0.37275 0.0
C1565 C 0.32162 0.03995 0.38572 0.0
C1566 C 0.32805 0.07114 0.40331 0.0
H1567 H 0.04684 0.03104 0.1745 0.0
H1568 H 0.06592 0.92822 0.12682 0.0
H1569 H 0.1346 0.94718 0.12085 0.0
H1570 H 0.09616 0.09369 0.13753 0.0
H1571 H 0.11765 0.12247 0.16318 0.0
H1572 H 0.07294 0.09659 0.16885 0.0
H1573 H 0.1042 0.06079 0.20804 0.0
H1574 H 0.14909 0.08707 0.20273 0.0
H1575 H 0.14933 0.03444 0.20378 0.0
H1576 H 0.19666 0.98454 0.11225 0.0
H1577 H 0.24731 0.03509 0.10482 0.0
H1578 H 0.18826 0.11117 0.15964 0.0
C1579 C 0.06584 0.01166 0.16372 0.0
C1580 C 0.05088 0.97832 0.15105 0.0
C1581 C 0.07663 0.95407 0.13668 0.0
C1582 C 0.11583 0.96449 0.13321 0.0
C1583 C 0.12915 0.99882 0.14468 0.0
C1584 C 0.10512 0.02157 0.16017 0.0
C1585 C 0.12508 0.05917 0.16793 0.0
C1586 C 0.10156 0.09505 0.15881 0.0
C1587 C 0.13237 0.06042 0.19737 0.0
C1588 C 0.16296 0.05504 0.15315 0.0
C1589 C 0.16523 0.01988 0.14013 0.0
C1590 C 0.19574 0.01177 0.12293 0.0
C1591 C 0.22432 0.04063 0.11874 0.0
C1592 C 0.2218 0.07712 0.13155 0.0
C1593 C 0.19127 0.08359 0.14951 0.0
H1594 H 0.14921 0.9364 0.90633 0.0
H1595 H 0.23318 1.00028 0.85983 0.0
H1596 H 0.28303 0.94998 0.86964 0.0
H1597 H 0.21843 0.89811 0.95569 0.0
H1598 H 0.19326 0.85194 0.95722 0.0
H1599 H 0.16649 0.89602 0.95005 0.0
H1600 H 0.14011 0.86474 0.90757 0.0
H1601 H 0.16642 0.82066 0.91476 0.0
H1602 H 0.17419 0.84522 0.88429 0.0
H1603 H 0.32063 0.88882 0.88001 0.0
H1604 H 0.34118 0.82061 0.8871 0.0
H1605 H 0.23204 0.79713 0.92665 0.0
C1606 C 0.17829 0.94043 0.89858 0.0
C1607 C 0.1873 0.97242 0.88233 0.0
C1608 C 0.22561 0.9761 0.87236 0.0
C1609 C 0.25416 0.9478 0.87798 0.0
C1610 C 0.24396 0.91628 0.89375 0.0
C1611 C 0.20688 0.91253 0.90388 0.0
C1612 C 0.20173 0.87398 0.91779 0.0
C1613 C 0.19456 0.88042 0.94692 0.0
C1614 C 0.16868 0.84974 0.90534 0.0
C1615 C 0.24128 0.85576 0.91305 0.0
C1616 C 0.26553 0.88091 0.89962 0.0
C1617 C 0.30216 0.86917 0.8909 0.0
C1618 C 0.31358 0.83034 0.89505 0.0
C1619 C 0.28828 0.80358 0.90756 0.0
C1620 C 0.25239 0.81703 0.91757 0.0
H1621 H 0.29932 0.95796 0.60011 0.0
H1622 H 0.27303 0.93242 0.68046 0.0
H1623 H 0.32949 0.97185 0.69451 0.0
H1624 H 0.39561 0.94482 0.60424 0.0
H1625 H 0.41086 0.98365 0.58296 0.0
H1626 H 0.36321 0.96257 0.57923 0.0
H1627 H 0.33185 0.03107 0.58424 0.0
H1628 H 0.37981 0.05222 0.58772 0.0
H1629 H 0.34335 0.06048 0.6123 0.0
H1630 H 0.39603 0.99869 0.69928 0.0
H1631 H 0.4653 0.01772 0.69458 0.0
H1632 H 0.44897 0.02854 0.61143 0.0
C1633 C 0.30429 0.96271 0.62065 0.0
C1634 C 0.28158 0.94297 0.63929 0.0
C1635 C 0.28985 0.94799 0.666 0.0
C1636 C 0.32188 0.97026 0.67414 0.0
C1637 C 0.34526 0.98754 0.6553 0.0
C1638 C 0.33648 0.98481 0.62909 0.0
C1639 C 0.36914 1.00183 0.61279 0.0
C1640 C 0.38565 0.97136 0.59371 0.0
C1641 C 0.3552 0.0386 0.59842 0.0
C1642 C 0.39854 0.01205 0.63379 0.0
C1643 C 0.38396 1.00408 0.6582 0.0
C1644 C 0.40736 0.00635 0.68038 0.0
C1645 C 0.44669 0.01689 0.67755 0.0
C1646 C 0.46212 0.02529 0.65276 0.0
C1647 C 0.4375 0.02351 0.63071 0.0
loop_
_geom_bond_atom_site_label_1
_geom_bond_atom_site_label_2
_geom_bond_distance
_geom_bond_site_symmetry_2
_ccdc_geom_bond_type
Fe0 O2 1.918 . S
Fe0 O5 1.997 . S
Fe0 O6 2.002 . S
Fe0 O11 1.976 . S
Fe0 O14 1.996 . S
Fe1 O2 1.918 . S
Fe1 O9 1.997 . S
Fe1 O12 1.996 . S
Fe1 O16 1.976 . S
Fe1 O19 2.002 . S
O2 Fe0 1.918 . S
O2 Fe1 1.918 . S
O2 Fe3 1.918 . S
Fe3 O2 1.918 . S
Fe3 O4 2.002 . S
Fe3 O13 1.976 . S
Fe3 O17 1.996 . S
Fe3 O20 1.997 . S
O4 Fe3 2.002 . S
O4 C21 1.295 . S
O5 Fe0 1.997 . S
O5 C21 1.235 . S
O6 Fe0 2.002 . S
O6 C7 1.295 . S
C7 O6 1.295 . S
C7 O9 1.235 . S
C8 O13 1.287 . S
C8 O14 1.255 . S
O9 Fe1 1.997 . S
O9 C7 1.235 . S
C10 O16 1.287 . S
C10 O17 1.255 . S
O11 Fe0 1.976 . S
O11 C18 1.287 . S
O12 Fe1 1.996 . S
O12 C18 1.255 . S
O13 Fe3 1.976 . S
O13 C8 1.287 . S
O14 Fe0 1.996 . S
O14 C8 1.255 . S
C15 O19 1.295 . S
C15 O20 1.235 . S
O16 Fe1 1.976 . S
O16 C10 1.287 . S
O17 Fe3 1.996 . S
O17 C10 1.255 . S
C18 O11 1.287 . S
C18 O12 1.255 . S
O19 Fe1 2.002 . S
O19 C15 1.295 . S
O20 Fe3 1.997 . S
O20 C15 1.235 . S
C21 O4 1.295 . S
C21 O5 1.235 . S
Fe22 O24 1.918 . S
Fe22 O27 1.997 . S
Fe22 O28 2.002 . S
Fe22 O33 1.976 . S
Fe22 O36 1.996 . S
Fe23 O24 1.918 . S
Fe23 O31 1.997 . S
Fe23 O34 1.996 . S
Fe23 O38 1.976 . S
Fe23 O41 2.002 . S
O24 Fe22 1.918 . S
O24 Fe23 1.918 . S
O24 Fe25 1.918 . S
Fe25 O24 1.918 . S
Fe25 O26 2.002 . S
Fe25 O35 1.976 . S
Fe25 O39 1.996 . S
Fe25 O42 1.997 . S
O26 Fe25 2.002 . S
O26 C43 1.295 . S
O27 Fe22 1.997 . S
O27 C43 1.235 . S
O28 Fe22 2.002 . S
O28 C29 1.295 . S
C29 O28 1.295 . S
C29 O31 1.235 . S
C30 O35 1.287 . S
C30 O36 1.255 . S
O31 Fe23 1.997 . S
O31 C29 1.235 . S
C32 O38 1.287 . S
C32 O39 1.255 . S
O33 Fe22 1.976 . S
O33 C40 1.287 . S
O34 Fe23 1.996 . S
O34 C40 1.255 . S
O35 Fe25 1.976 . S
O35 C30 1.287 . S
O36 Fe22 1.996 . S
O36 C30 1.255 . S
C37 O41 1.295 . S
C37 O42 1.235 . S
O38 Fe23 1.976 . S
O38 C32 1.287 . S
O39 Fe25 1.996 . S
O39 C32 1.255 . S
C40 O33 1.287 . S
C40 O34 1.255 . S
O41 Fe23 2.002 . S
O41 C37 1.295 . S
O42 Fe25 1.997 . S
O42 C37 1.235 . S
C43 O26 1.295 . S
C43 O27 1.235 . S
Fe44 O46 1.918 . S
Fe44 O49 1.997 . S
Fe44 O50 2.002 . S
Fe44 O55 1.976 . S
Fe44 O58 1.996 . S
Fe45 O46 1.918 . S
Fe45 O53 1.997 . S
Fe45 O56 1.996 . S
Fe45 O60 1.976 . S
Fe45 O63 2.002 . S
O46 Fe44 1.918 . S
O46 Fe45 1.918 . S
O46 Fe47 1.918 . S
Fe47 O46 1.918 . S
Fe47 O48 2.002 . S
Fe47 O57 1.976 . S
Fe47 O61 1.996 . S
Fe47 O64 1.997 . S
O48 Fe47 2.002 . S
O48 C65 1.295 . S
O49 Fe44 1.997 . S
O49 C65 1.235 . S
O50 Fe44 2.002 . S
O50 C51 1.295 . S
C51 O50 1.295 . S
C51 O53 1.235 . S
C52 O57 1.287 . S
C52 O58 1.255 . S
O53 Fe45 1.997 . S
O53 C51 1.235 . S
C54 O60 1.287 . S
C54 O61 1.255 . S
O55 Fe44 1.976 . S
O55 C62 1.287 . S
O56 Fe45 1.996 . S
O56 C62 1.255 . S
O57 Fe47 1.976 . S
O57 C52 1.287 . S
O58 Fe44 1.996 . S
O58 C52 1.255 . S
C59 O63 1.295 . S
C59 O64 1.235 . S
O60 Fe45 1.976 . S
O60 C54 1.287 . S
O61 Fe47 1.996 . S
O61 C54 1.255 . S
C62 O55 1.287 . S
C62 O56 1.255 . S
O63 Fe45 2.002 . S
O63 C59 1.295 . S
O64 Fe47 1.997 . S
O64 C59 1.235 . S
C65 O48 1.295 . S
C65 O49 1.235 . S
Fe66 O68 1.918 . S
Fe66 O71 1.997 . S
Fe66 O72 2.002 . S
Fe66 O77 1.976 1_655 S
Fe66 O80 1.996 . S
Fe67 O68 1.918 . S
Fe67 O75 1.997 . S
Fe67 O78 1.996 . S
Fe67 O82 1.976 . S
Fe67 O85 2.002 . S
O68 Fe66 1.918 . S
O68 Fe67 1.918 . S
O68 Fe69 1.918 . S
Fe69 O68 1.918 . S
Fe69 O70 2.002 . S
Fe69 O79 1.976 . S
Fe69 O83 1.996 . S
Fe69 O86 1.997 . S
O70 Fe69 2.002 . S
O70 C87 1.295 . S
O71 Fe66 1.997 . S
O71 C87 1.235 . S
O72 Fe66 2.002 . S
O72 C73 1.295 . S
C73 O72 1.295 . S
C73 O75 1.235 . S
C74 O79 1.287 . S
C74 O80 1.255 . S
O75 Fe67 1.997 . S
O75 C73 1.235 . S
C76 O82 1.287 . S
C76 O83 1.255 . S
O77 Fe66 1.976 1_455 S
O77 C84 1.287 . S
O78 Fe67 1.996 . S
O78 C84 1.255 1_655 S
O79 Fe69 1.976 . S
O79 C74 1.287 . S
O80 Fe66 1.996 . S
O80 C74 1.255 . S
C81 O85 1.295 . S
C81 O86 1.235 . S
O82 Fe67 1.976 . S
O82 C76 1.287 . S
O83 Fe69 1.996 . S
O83 C76 1.255 . S
C84 O77 1.287 . S
C84 O78 1.255 1_455 S
O85 Fe67 2.002 . S
O85 C81 1.295 . S
O86 Fe69 1.997 . S
O86 C81 1.235 . S
C87 O70 1.295 . S
C87 O71 1.235 . S
Fe88 O90 1.918 . S
Fe88 O93 1.997 . S
Fe88 O94 2.002 . S
Fe88 O99 1.976 . S
Fe88 O102 1.996 . S
Fe89 O90 1.918 . S
Fe89 O97 1.997 . S
Fe89 O100 1.996 . S
Fe89 O104 1.976 . S
Fe89 O107 2.002 . S
O90 Fe88 1.918 . S
O90 Fe89 1.918 . S
O90 Fe91 1.918 . S
Fe91 O90 1.918 . S
Fe91 O92 2.002 . S
Fe91 O101 1.976 . S
Fe91 O105 1.996 . S
Fe91 O108 1.997 . S
O92 Fe91 2.002 . S
O92 C109 1.295 . S
O93 Fe88 1.997 . S
O93 C109 1.235 . S
O94 Fe88 2.002 . S
O94 C95 1.295 . S
C95 O94 1.295 . S
C95 O97 1.235 . S
C96 O101 1.287 . S
C96 O102 1.255 . S
O97 Fe89 1.997 . S
O97 C95 1.235 . S
C98 O104 1.287 . S
C98 O105 1.255 . S
O99 Fe88 1.976 . S
O99 C106 1.287 . S
O100 Fe89 1.996 . S
O100 C106 1.255 . S
O101 Fe91 1.976 . S
O101 C96 1.287 . S
O102 Fe88 1.996 . S
O102 C96 1.255 . S
C103 O107 1.295 . S
C103 O108 1.235 . S
O104 Fe89 1.976 . S
O104 C98 1.287 . S
O105 Fe91 1.996 . S
O105 C98 1.255 . S
C106 O99 1.287 . S
C106 O100 1.255 . S
O107 Fe89 2.002 . S
O107 C103 1.295 . S
O108 Fe91 1.997 . S
O108 C103 1.235 . S
C109 O92 1.295 . S
C109 O93 1.235 . S
Fe110 O112 1.918 . S
Fe110 O115 1.997 . S
Fe110 O116 2.002 . S
Fe110 O121 1.976 . S
Fe110 O124 1.996 . S
Fe111 O112 1.918 . S
Fe111 O119 1.997 . S
Fe111 O122 1.996 . S
Fe111 O126 1.976 . S
Fe111 O129 2.002 . S
O112 Fe110 1.918 . S
O112 Fe111 1.918 . S
O112 Fe113 1.918 . S
Fe113 O112 1.918 . S
Fe113 O114 2.002 . S
Fe113 O123 1.976 . S
Fe113 O127 1.996 . S
Fe113 O130 1.997 . S
O114 Fe113 2.002 . S
O114 C131 1.295 . S
O115 Fe110 1.997 . S
O115 C131 1.235 . S
O116 Fe110 2.002 . S
O116 C117 1.295 . S
C117 O116 1.295 . S
C117 O119 1.235 . S
C118 O123 1.287 . S
C118 O124 1.255 . S
O119 Fe111 1.997 . S
O119 C117 1.235 . S
C120 O126 1.287 . S
C120 O127 1.255 . S
O121 Fe110 1.976 . S
O121 C128 1.287 . S
O122 Fe111 1.996 . S
O122 C128 1.255 . S
O123 Fe113 1.976 . S
O123 C118 1.287 . S
O124 Fe110 1.996 . S
O124 C118 1.255 . S
C125 O129 1.295 . S
C125 O130 1.235 . S
O126 Fe111 1.976 . S
O126 C120 1.287 . S
O127 Fe113 1.996 . S
O127 C120 1.255 . S
C128 O121 1.287 . S
C128 O122 1.255 . S
O129 Fe111 2.002 . S
O129 C125 1.295 . S
O130 Fe113 1.997 . S
O130 C125 1.235 . S
C131 O114 1.295 . S
C131 O115 1.235 . S
Fe132 O134 1.918 . S
Fe132 O137 1.997 . S
Fe132 O138 2.002 . S
Fe132 O143 1.976 . S
Fe132 O146 1.996 . S
Fe133 O134 1.918 . S
Fe133 O141 1.997 . S
Fe133 O144 1.996 . S
Fe133 O148 1.976 . S
Fe133 O151 2.002 . S
O134 Fe132 1.918 . S
O134 Fe133 1.918 . S
O134 Fe135 1.918 . S
Fe135 O134 1.918 . S
Fe135 O136 2.002 . S
Fe135 O145 1.976 . S
Fe135 O149 1.996 . S
Fe135 O152 1.997 . S
O136 Fe135 2.002 . S
O136 C153 1.295 . S
O137 Fe132 1.997 . S
O137 C153 1.235 . S
O138 Fe132 2.002 . S
O138 C139 1.295 . S
C139 O138 1.295 . S
C139 O141 1.235 . S
C140 O145 1.287 . S
C140 O146 1.255 . S
O141 Fe133 1.997 . S
O141 C139 1.235 . S
C142 O148 1.287 . S
C142 O149 1.255 . S
O143 Fe132 1.976 . S
O143 C150 1.287 . S
O144 Fe133 1.996 . S
O144 C150 1.255 . S
O145 Fe135 1.976 . S
O145 C140 1.287 . S
O146 Fe132 1.996 . S
O146 C140 1.255 . S
C147 O151 1.295 . S
C147 O152 1.235 . S
O148 Fe133 1.976 . S
O148 C142 1.287 . S
O149 Fe135 1.996 . S
O149 C142 1.255 . S
C150 O143 1.287 . S
C150 O144 1.255 . S
O151 Fe133 2.002 . S
O151 C147 1.295 . S
O152 Fe135 1.997 . S
O152 C147 1.235 . S
C153 O136 1.295 . S
C153 O137 1.235 . S
Fe154 O156 1.918 . S
Fe154 O159 1.997 . S
Fe154 O160 2.002 . S
Fe154 O165 1.976 . S
Fe154 O168 1.996 . S
Fe155 O156 1.918 . S
Fe155 O163 1.997 . S
Fe155 O166 1.996 . S
Fe155 O170 1.976 . S
Fe155 O173 2.002 . S
O156 Fe154 1.918 . S
O156 Fe155 1.918 . S
O156 Fe157 1.918 . S
Fe157 O156 1.918 . S
Fe157 O158 2.002 . S
Fe157 O167 1.976 1_455 S
Fe157 O171 1.996 . S
Fe157 O174 1.997 . S
O158 Fe157 2.002 . S
O158 C175 1.295 . S
O159 Fe154 1.997 . S
O159 C175 1.235 . S
O160 Fe154 2.002 . S
O160 C161 1.295 . S
C161 O160 1.295 . S
C161 O163 1.235 . S
C162 O167 1.287 . S
C162 O168 1.255 1_655 S
O163 Fe155 1.997 . S
O163 C161 1.235 . S
C164 O170 1.287 . S
C164 O171 1.255 . S
O165 Fe154 1.976 . S
O165 C172 1.287 . S
O166 Fe155 1.996 . S
O166 C172 1.255 . S
O167 Fe157 1.976 1_655 S
O167 C162 1.287 . S
O168 Fe154 1.996 . S
O168 C162 1.255 1_455 S
C169 O173 1.295 . S
C169 O174 1.235 . S
O170 Fe155 1.976 . S
O170 C164 1.287 . S
O171 Fe157 1.996 . S
O171 C164 1.255 . S
C172 O165 1.287 . S
C172 O166 1.255 . S
O173 Fe155 2.002 . S
O173 C169 1.295 . S
O174 Fe157 1.997 . S
O174 C169 1.235 . S
C175 O158 1.295 . S
C175 O159 1.235 . S
Fe176 O178 1.918 . S
Fe176 O181 1.997 . S
Fe176 O182 2.002 . S
Fe176 O187 1.976 . S
Fe176 O190 1.996 . S
Fe177 O178 1.918 . S
Fe177 O185 1.997 . S
Fe177 O188 1.996 . S
Fe177 O192 1.976 . S
Fe177 O195 2.002 . S
O178 Fe176 1.918 . S
O178 Fe177 1.918 . S
O178 Fe179 1.918 . S
Fe179 O178 1.918 . S
Fe179 O180 2.002 . S
Fe179 O189 1.976 . S
Fe179 O193 1.996 . S
Fe179 O196 1.997 . S
O180 Fe179 2.002 . S
O180 C197 1.295 . S
O181 Fe176 1.997 . S
O181 C197 1.235 . S
O182 Fe176 2.002 . S
O182 C183 1.295 . S
C183 O182 1.295 . S
C183 O185 1.235 . S
C184 O189 1.287 . S
C184 O190 1.255 . S
O185 Fe177 1.997 . S
O185 C183 1.235 . S
C186 O192 1.287 . S
C186 O193 1.255 . S
O187 Fe176 1.976 . S
O187 C194 1.287 . S
O188 Fe177 1.996 . S
O188 C194 1.255 . S
O189 Fe179 1.976 . S
O189 C184 1.287 . S
O190 Fe176 1.996 . S
O190 C184 1.255 . S
C191 O195 1.295 . S
C191 O196 1.235 . S
O192 Fe177 1.976 . S
O192 C186 1.287 . S
O193 Fe179 1.996 . S
O193 C186 1.255 . S
C194 O187 1.287 . S
C194 O188 1.255 . S
O195 Fe177 2.002 . S
O195 C191 1.295 . S
O196 Fe179 1.997 . S
O196 C191 1.235 . S
C197 O180 1.295 . S
C197 O181 1.235 . S
Fe198 O200 1.918 . S
Fe198 O203 2.001 . S
Fe198 O204 2.002 1_545 S
Fe198 O209 1.976 . S
Fe198 O212 1.996 . S
Fe199 O200 1.918 . S
Fe199 O207 1.997 . S
Fe199 O210 1.996 . S
Fe199 O214 1.976 . S
Fe199 O217 2.002 . S
O200 Fe198 1.918 . S
O200 Fe199 1.918 . S
O200 Fe201 1.918 . S
Fe201 O200 1.918 . S
Fe201 O202 2.002 . S
Fe201 O211 1.976 1_455 S
Fe201 O215 1.996 . S
Fe201 O218 1.997 . S
O202 Fe201 2.002 . S
O202 C219 1.295 . S
O203 Fe198 2.001 . S
O203 C219 1.248 . S
O204 Fe198 2.002 1_565 S
O204 C205 1.295 1_565 S
C205 O204 1.295 1_545 S
C205 O207 1.235 . S
C206 O211 1.287 . S
C206 O212 1.255 1_655 S
O207 Fe199 1.997 . S
O207 C205 1.235 . S
C208 O214 1.287 . S
C208 O215 1.255 . S
O209 Fe198 1.976 . S
O209 C216 1.287 . S
O210 Fe199 1.996 . S
O210 C216 1.255 . S
O211 Fe201 1.976 1_655 S
O211 C206 1.287 . S
O212 Fe198 1.996 . S
O212 C206 1.255 1_455 S
C213 O217 1.295 . S
C213 O218 1.235 . S
O214 Fe199 1.976 . S
O214 C208 1.287 . S
O215 Fe201 1.996 . S
O215 C208 1.255 . S
C216 O209 1.287 . S
C216 O210 1.255 . S
O217 Fe199 2.002 . S
O217 C213 1.295 . S
O218 Fe201 1.997 . S
O218 C213 1.235 . S
C219 O202 1.295 . S
C219 O203 1.248 . S
Fe220 O222 1.918 . S
Fe220 O225 1.997 . S
Fe220 O226 2.002 . S
Fe220 O231 1.976 . S
Fe220 O234 1.996 . S
Fe221 O222 1.918 . S
Fe221 O229 1.997 . S
Fe221 O232 1.996 . S
Fe221 O236 1.976 . S
Fe221 O239 2.002 . S
O222 Fe220 1.918 . S
O222 Fe221 1.918 . S
O222 Fe223 1.918 . S
Fe223 O222 1.918 . S
Fe223 O224 2.002 . S
Fe223 O233 1.976 . S
Fe223 O237 1.996 . S
Fe223 O240 1.997 . S
O224 Fe223 2.002 . S
O224 C241 1.295 . S
O225 Fe220 1.997 . S
O225 C241 1.235 . S
O226 Fe220 2.002 . S
O226 C227 1.295 . S
C227 O226 1.295 . S
C227 O229 1.235 . S
C228 O233 1.287 . S
C228 O234 1.255 . S
O229 Fe221 1.997 . S
O229 C227 1.235 . S
C230 O236 1.287 . S
C230 O237 1.255 . S
O231 Fe220 1.976 . S
O231 C238 1.287 . S
O232 Fe221 1.996 . S
O232 C238 1.255 . S
O233 Fe223 1.976 . S
O233 C228 1.287 . S
O234 Fe220 1.996 . S
O234 C228 1.255 . S
C235 O239 1.295 . S
C235 O240 1.235 . S
O236 Fe221 1.976 . S
O236 C230 1.287 . S
O237 Fe223 1.996 . S
O237 C230 1.255 . S
C238 O231 1.287 . S
C238 O232 1.255 . S
O239 Fe221 2.002 . S
O239 C235 1.295 . S
O240 Fe223 1.997 . S
O240 C235 1.235 . S
C241 O224 1.295 . S
C241 O225 1.235 . S
Fe242 O244 1.918 . S
Fe242 O247 1.997 . S
Fe242 O248 2.002 . S
Fe242 O253 1.976 . S
Fe242 O256 1.996 . S
Fe243 O244 1.918 . S
Fe243 O251 2.001 . S
Fe243 O254 1.996 . S
Fe243 O258 1.976 . S
Fe243 O261 2.002 1_565 S
O244 Fe242 1.918 . S
O244 Fe243 1.918 . S
O244 Fe245 1.918 . S
Fe245 O244 1.918 . S
Fe245 O246 2.002 . S
Fe245 O255 1.976 . S
Fe245 O259 1.996 . S
Fe245 O262 1.997 . S
O246 Fe245 2.002 . S
O246 C263 1.295 . S
O247 Fe242 1.997 . S
O247 C263 1.235 . S
O248 Fe242 2.002 . S
O248 C249 1.295 . S
C249 O248 1.295 . S
C249 O251 1.248 . S
C250 O255 1.287 . S
C250 O256 1.255 . S
O251 Fe243 2.001 . S
O251 C249 1.248 . S
C252 O258 1.287 . S
C252 O259 1.255 . S
O253 Fe242 1.976 . S
O253 C260 1.287 . S
O254 Fe243 1.996 . S
O254 C260 1.255 . S
O255 Fe245 1.976 . S
O255 C250 1.287 . S
O256 Fe242 1.996 . S
O256 C250 1.255 . S
C257 O261 1.295 1_565 S
C257 O262 1.235 . S
O258 Fe243 1.976 . S
O258 C252 1.287 . S
O259 Fe245 1.996 . S
O259 C252 1.255 . S
C260 O253 1.287 . S
C260 O254 1.255 . S
O261 Fe243 2.002 1_545 S
O261 C257 1.295 1_545 S
O262 Fe245 1.997 . S
O262 C257 1.235 . S
C263 O246 1.295 . S
C263 O247 1.235 . S
Fe264 O266 1.918 . S
Fe264 O269 1.997 . S
Fe264 O270 2.002 . S
Fe264 O275 1.976 . S
Fe264 O278 1.996 . S
Fe265 O266 1.918 . S
Fe265 O273 1.997 . S
Fe265 O276 1.996 . S
Fe265 O280 1.976 . S
Fe265 O283 2.002 . S
O266 Fe264 1.918 . S
O266 Fe265 1.918 . S
O266 Fe267 1.918 . S
Fe267 O266 1.918 . S
Fe267 O268 2.002 . S
Fe267 O277 1.976 . S
Fe267 O281 1.996 . S
Fe267 O284 1.997 . S
O268 Fe267 2.002 . S
O268 C285 1.295 . S
O269 Fe264 1.997 . S
O269 C285 1.235 . S
O270 Fe264 2.002 . S
O270 C271 1.295 . S
C271 O270 1.295 . S
C271 O273 1.235 . S
C272 O277 1.287 . S
C272 O278 1.255 . S
O273 Fe265 1.997 . S
O273 C271 1.235 . S
C274 O280 1.287 . S
C274 O281 1.255 . S
O275 Fe264 1.976 . S
O275 C282 1.287 . S
O276 Fe265 1.996 . S
O276 C282 1.255 . S
O277 Fe267 1.976 . S
O277 C272 1.287 . S
O278 Fe264 1.996 . S
O278 C272 1.255 . S
C279 O283 1.295 . S
C279 O284 1.235 . S
O280 Fe265 1.976 . S
O280 C274 1.287 . S
O281 Fe267 1.996 . S
O281 C274 1.255 . S
C282 O275 1.287 . S
C282 O276 1.255 . S
O283 Fe265 2.002 . S
O283 C279 1.295 . S
O284 Fe267 1.997 . S
O284 C279 1.235 . S
C285 O268 1.295 . S
C285 O269 1.235 . S
Fe286 O288 1.918 . S
Fe286 O291 2.001 . S
Fe286 O292 2.002 1_565 S
Fe286 O297 1.976 . S
Fe286 O300 1.996 . S
Fe287 O288 1.918 . S
Fe287 O295 1.997 . S
Fe287 O298 1.996 . S
Fe287 O302 1.976 . S
Fe287 O305 2.002 . S
O288 Fe286 1.918 . S
O288 Fe287 1.918 . S
O288 Fe289 1.918 . S
Fe289 O288 1.918 . S
Fe289 O290 2.002 . S
Fe289 O299 1.976 1_655 S
Fe289 O303 1.996 . S
Fe289 O306 1.997 . S
O290 Fe289 2.002 . S
O290 C307 1.295 . S
O291 Fe286 2.001 . S
O291 C307 1.248 . S
O292 Fe286 2.002 1_545 S
O292 C293 1.295 1_545 S
C293 O292 1.295 1_565 S
C293 O295 1.235 . S
C294 O299 1.287 . S
C294 O300 1.255 1_455 S
O295 Fe287 1.997 . S
O295 C293 1.235 . S
C296 O302 1.287 . S
C296 O303 1.255 . S
O297 Fe286 1.976 . S
O297 C304 1.287 . S
O298 Fe287 1.996 . S
O298 C304 1.255 . S
O299 Fe289 1.976 1_455 S
O299 C294 1.287 . S
O300 Fe286 1.996 . S
O300 C294 1.255 1_655 S
C301 O305 1.295 . S
C301 O306 1.235 . S
O302 Fe287 1.976 . S
O302 C296 1.287 . S
O303 Fe289 1.996 . S
O303 C296 1.255 . S
C304 O297 1.287 . S
C304 O298 1.255 . S
O305 Fe287 2.002 . S
O305 C301 1.295 . S
O306 Fe289 1.997 . S
O306 C301 1.235 . S
C307 O290 1.295 . S
C307 O291 1.248 . S
Fe308 O310 1.918 . S
Fe308 O313 1.997 . S
Fe308 O314 2.002 . S
Fe308 O319 1.976 . S
Fe308 O322 1.996 . S
Fe309 O310 1.918 . S
Fe309 O317 1.997 . S
Fe309 O320 1.996 . S
Fe309 O324 1.976 . S
Fe309 O327 2.002 . S
O310 Fe308 1.918 . S
O310 Fe309 1.918 . S
O310 Fe311 1.918 . S
Fe311 O310 1.918 . S
Fe311 O312 2.002 . S
Fe311 O321 1.976 . S
Fe311 O325 1.996 . S
Fe311 O328 1.997 . S
O312 Fe311 2.002 . S
O312 C329 1.295 . S
O313 Fe308 1.997 . S
O313 C329 1.235 . S
O314 Fe308 2.002 . S
O314 C315 1.295 . S
C315 O314 1.295 . S
C315 O317 1.235 . S
C316 O321 1.287 . S
C316 O322 1.255 . S
O317 Fe309 1.997 . S
O317 C315 1.235 . S
C318 O324 1.287 . S
C318 O325 1.255 . S
O319 Fe308 1.976 . S
O319 C326 1.287 . S
O320 Fe309 1.996 . S
O320 C326 1.255 . S
O321 Fe311 1.976 . S
O321 C316 1.287 . S
O322 Fe308 1.996 . S
O322 C316 1.255 . S
C323 O327 1.295 . S
C323 O328 1.235 . S
O324 Fe309 1.976 . S
O324 C318 1.287 . S
O325 Fe311 1.996 . S
O325 C318 1.255 . S
C326 O319 1.287 . S
C326 O320 1.255 . S
O327 Fe309 2.002 . S
O327 C323 1.295 . S
O328 Fe311 1.997 . S
O328 C323 1.235 . S
C329 O312 1.295 . S
C329 O313 1.235 . S
Fe330 O332 1.918 . S
Fe330 O335 1.997 . S
Fe330 O336 2.002 . S
Fe330 O341 1.976 . S
Fe330 O344 1.996 . S
Fe331 O332 1.918 . S
Fe331 O339 2.001 . S
Fe331 O342 1.996 . S
Fe331 O346 1.976 . S
Fe331 O349 2.002 1_545 S
O332 Fe330 1.918 . S
O332 Fe331 1.918 . S
O332 Fe333 1.918 . S
Fe333 O332 1.918 . S
Fe333 O334 2.002 . S
Fe333 O343 1.976 . S
Fe333 O347 1.996 . S
Fe333 O350 1.997 . S
O334 Fe333 2.002 . S
O334 C351 1.295 . S
O335 Fe330 1.997 . S
O335 C351 1.235 . S
O336 Fe330 2.002 . S
O336 C337 1.295 . S
C337 O336 1.295 . S
C337 O339 1.248 . S
C338 O343 1.287 . S
C338 O344 1.255 . S
O339 Fe331 2.001 . S
O339 C337 1.248 . S
C340 O346 1.287 . S
C340 O347 1.255 . S
O341 Fe330 1.976 . S
O341 C348 1.287 . S
O342 Fe331 1.996 . S
O342 C348 1.255 . S
O343 Fe333 1.976 . S
O343 C338 1.287 . S
O344 Fe330 1.996 . S
O344 C338 1.255 . S
C345 O349 1.295 1_545 S
C345 O350 1.235 . S
O346 Fe331 1.976 . S
O346 C340 1.287 . S
O347 Fe333 1.996 . S
O347 C340 1.255 . S
C348 O341 1.287 . S
C348 O342 1.255 . S
O349 Fe331 2.002 1_565 S
O349 C345 1.295 1_565 S
O350 Fe333 1.997 . S
O350 C345 1.235 . S
C351 O334 1.295 . S
C351 O335 1.235 . S
H352 C364 0.930 . S
H353 C366 0.930 . S
H354 C367 0.930 . S
H355 C371 0.959 . S
H356 C371 0.959 . S
H357 C371 0.961 . S
H358 C372 0.960 . S
H359 C372 0.961 . S
H360 C372 0.959 . S
H361 C375 0.929 . S
H362 C376 0.931 . S
H363 C378 0.930 . S
C364 H352 0.930 . S
C364 C365 1.399 . S
C364 C369 1.399 . S
C365 C364 1.399 . S
C365 C366 1.376 . S
C366 H353 0.930 . S
C366 C365 1.376 . S
C366 C367 1.388 . S
C367 H354 0.930 . S
C367 C366 1.388 . S
C367 C368 1.390 . S
C368 C367 1.390 . S
C368 C369 1.394 . S
C368 C374 1.465 . S
C369 C364 1.399 . S
C369 C368 1.394 . S
C369 C370 1.516 . S
C370 C369 1.516 . S
C370 C371 1.502 . S
C370 C372 1.561 . S
C370 C373 1.526 . S
C371 H355 0.959 . S
C371 H356 0.959 . S
C371 H357 0.961 . S
C371 C370 1.502 . S
C372 H358 0.960 . S
C372 H359 0.961 . S
C372 H360 0.959 . S
C372 C370 1.561 . S
C373 C370 1.526 . S
C373 C374 1.396 . S
C373 C378 1.390 . S
C374 C368 1.465 . S
C374 C373 1.396 . S
C374 C375 1.399 . S
C375 H361 0.929 . S
C375 C374 1.399 . S
C375 C376 1.385 . S
C376 H362 0.931 . S
C376 C375 1.385 . S
C376 C377 1.389 . S
C377 C376 1.389 . S
C377 C378 1.387 . S
C378 H363 0.930 . S
C378 C373 1.390 . S
C378 C377 1.387 . S
H379 C391 0.930 . S
H380 C393 0.930 . S
H381 C394 0.930 . S
H382 C398 0.959 . S
H383 C398 0.959 . S
H384 C398 0.961 . S
H385 C399 0.960 . S
H386 C399 0.961 . S
H387 C399 0.959 . S
H388 C402 0.929 . S
H389 C403 0.931 . S
H390 C405 0.930 . S
C391 H379 0.930 . S
C391 C392 1.399 . S
C391 C396 1.399 . S
C392 C391 1.399 . S
C392 C393 1.376 . S
C393 H380 0.930 . S
C393 C392 1.376 . S
C393 C394 1.388 . S
C394 H381 0.930 . S
C394 C393 1.388 . S
C394 C395 1.390 . S
C395 C394 1.390 . S
C395 C396 1.394 . S
C395 C401 1.465 . S
C396 C391 1.399 . S
C396 C395 1.394 . S
C396 C397 1.516 . S
C397 C396 1.516 . S
C397 C398 1.502 . S
C397 C399 1.561 . S
C397 C400 1.526 . S
C398 H382 0.959 . S
C398 H383 0.959 . S
C398 H384 0.961 . S
C398 C397 1.502 . S
C399 H385 0.960 . S
C399 H386 0.961 . S
C399 H387 0.959 . S
C399 C397 1.561 . S
C400 C397 1.526 . S
C400 C401 1.396 . S
C400 C405 1.390 . S
C401 C395 1.465 . S
C401 C400 1.396 . S
C401 C402 1.399 . S
C402 H388 0.929 . S
C402 C401 1.399 . S
C402 C403 1.385 . S
C403 H389 0.931 . S
C403 C402 1.385 . S
C403 C404 1.389 . S
C404 C403 1.389 . S
C404 C405 1.387 . S
C405 H390 0.930 . S
C405 C400 1.390 . S
C405 C404 1.387 . S
H406 C418 0.930 . S
H407 C420 0.930 . S
H408 C421 0.930 . S
H409 C425 0.959 . S
H410 C425 0.959 . S
H411 C425 0.961 . S
H412 C426 0.960 . S
H413 C426 0.961 . S
H414 C426 0.959 . S
H415 C429 0.929 . S
H416 C430 0.931 . S
H417 C432 0.930 . S
C418 H406 0.930 . S
C418 C419 1.399 . S
C418 C423 1.399 . S
C419 C418 1.399 . S
C419 C420 1.376 . S
C420 H407 0.930 . S
C420 C419 1.376 . S
C420 C421 1.388 . S
C421 H408 0.930 . S
C421 C420 1.388 . S
C421 C422 1.390 . S
C422 C421 1.390 . S
C422 C423 1.394 . S
C422 C428 1.465 . S
C423 C418 1.399 . S
C423 C422 1.394 . S
C423 C424 1.516 . S
C424 C423 1.516 . S
C424 C425 1.502 . S
C424 C426 1.561 . S
C424 C427 1.526 . S
C425 H409 0.959 . S
C425 H410 0.959 . S
C425 H411 0.961 . S
C425 C424 1.502 . S
C426 H412 0.960 . S
C426 H413 0.961 . S
C426 H414 0.959 . S
C426 C424 1.561 . S
C427 C424 1.526 . S
C427 C428 1.396 . S
C427 C432 1.390 . S
C428 C422 1.465 . S
C428 C427 1.396 . S
C428 C429 1.399 . S
C429 H415 0.929 . S
C429 C428 1.399 . S
C429 C430 1.385 . S
C430 H416 0.931 . S
C430 C429 1.385 . S
C430 C431 1.389 . S
C431 C430 1.389 . S
C431 C432 1.387 . S
C432 H417 0.930 . S
C432 C427 1.390 . S
C432 C431 1.387 . S
H433 C445 0.930 1_455 S
H434 C447 0.930 . S
H435 C448 0.930 . S
H436 C452 0.959 . S
H437 C452 0.959 . S
H438 C452 0.961 . S
H439 C453 0.960 . S
H440 C453 0.961 . S
H441 C453 0.959 . S
H442 C456 0.929 . S
H443 C457 0.939 . S
H444 C459 0.930 . S
C445 H433 0.930 1_655 S
C445 C446 1.399 . S
C445 C450 1.396 1_655 S
C446 C445 1.399 . S
C446 C447 1.376 . S
C447 H434 0.930 . S
C447 C446 1.376 . S
C447 C448 1.388 . S
C448 H435 0.930 . S
C448 C447 1.388 . S
C448 C449 1.390 . S
C449 C448 1.390 . S
C449 C450 1.385 1_655 S
C449 C455 1.465 1_556 S
C450 C445 1.396 1_455 S
C450 C449 1.385 1_455 S
C450 C451 1.526 . S
C451 C450 1.526 . S
C451 C452 1.502 . S
C451 C453 1.561 . S
C451 C454 1.526 1_556 S
C452 H436 0.959 . S
C452 H437 0.959 . S
C452 H438 0.961 . S
C452 C451 1.502 . S
C453 H439 0.960 . S
C453 H440 0.961 . S
C453 H441 0.959 . S
C453 C451 1.561 . S
C454 C451 1.526 1_554 S
C454 C455 1.396 1_455 S
C454 C459 1.390 . S
C455 C449 1.465 1_554 S
C455 C454 1.396 1_655 S
C455 C456 1.399 . S
C456 H442 0.929 . S
C456 C455 1.399 . S
C456 C457 1.399 . S
C457 H443 0.939 . S
C457 C456 1.399 . S
C457 C458 1.367 1_655 S
C458 C457 1.367 1_455 S
C458 C459 1.387 . S
C459 H444 0.930 . S
C459 C454 1.390 . S
C459 C458 1.387 . S
H460 C472 0.930 . S
H461 C474 0.930 . S
H462 C475 0.930 . S
H463 C479 0.959 . S
H464 C479 0.959 . S
H465 C479 0.961 . S
H466 C480 0.960 . S
H467 C480 0.961 . S
H468 C480 0.959 . S
H469 C483 0.929 . S
H470 C484 0.931 . S
H471 C486 0.930 . S
C472 H460 0.930 . S
C472 C473 1.399 . S
C472 C477 1.399 . S
C473 C472 1.399 . S
C473 C474 1.376 . S
C474 H461 0.930 . S
C474 C473 1.376 . S
C474 C475 1.388 . S
C475 H462 0.930 . S
C475 C474 1.388 . S
C475 C476 1.390 . S
C476 C475 1.390 . S
C476 C477 1.394 . S
C476 C482 1.465 . S
C477 C472 1.399 . S
C477 C476 1.394 . S
C477 C478 1.516 . S
C478 C477 1.516 . S
C478 C479 1.502 . S
C478 C480 1.561 . S
C478 C481 1.526 . S
C479 H463 0.959 . S
C479 H464 0.959 . S
C479 H465 0.961 . S
C479 C478 1.502 . S
C480 H466 0.960 . S
C480 H467 0.961 . S
C480 H468 0.959 . S
C480 C478 1.561 . S
C481 C478 1.526 . S
C481 C482 1.396 . S
C481 C486 1.390 . S
C482 C476 1.465 . S
C482 C481 1.396 . S
C482 C483 1.399 . S
C483 H469 0.929 . S
C483 C482 1.399 . S
C483 C484 1.385 . S
C484 H470 0.931 . S
C484 C483 1.385 . S
C484 C485 1.389 . S
C485 C484 1.389 . S
C485 C486 1.387 . S
C486 H471 0.930 . S
C486 C481 1.390 . S
C486 C485 1.387 . S
H487 C499 0.930 . S
H488 C501 0.930 . S
H489 C502 0.930 . S
H490 C506 0.959 . S
H491 C506 0.959 . S
H492 C506 0.961 . S
H493 C507 0.960 . S
H494 C507 0.961 . S
H495 C507 0.959 . S
H496 C510 0.929 . S
H497 C511 0.931 . S
H498 C513 0.930 . S
C499 H487 0.930 . S
C499 C500 1.399 . S
C499 C504 1.399 . S
C500 C499 1.399 . S
C500 C501 1.376 . S
C501 H488 0.930 . S
C501 C500 1.376 . S
C501 C502 1.388 . S
C502 H489 0.930 . S
C502 C501 1.388 . S
C502 C503 1.390 . S
C503 C502 1.390 . S
C503 C504 1.394 . S
C503 C509 1.465 . S
C504 C499 1.399 . S
C504 C503 1.394 . S
C504 C505 1.516 . S
C505 C504 1.516 . S
C505 C506 1.502 . S
C505 C507 1.561 . S
C505 C508 1.526 . S
C506 H490 0.959 . S
C506 H491 0.959 . S
C506 H492 0.961 . S
C506 C505 1.502 . S
C507 H493 0.960 . S
C507 H494 0.961 . S
C507 H495 0.959 . S
C507 C505 1.561 . S
C508 C505 1.526 . S
C508 C509 1.396 . S
C508 C513 1.390 . S
C509 C503 1.465 . S
C509 C508 1.396 . S
C509 C510 1.399 . S
C510 H496 0.929 . S
C510 C509 1.399 . S
C510 C511 1.385 . S
C511 H497 0.931 . S
C511 C510 1.385 . S
C511 C512 1.389 . S
C512 C511 1.389 . S
C512 C513 1.387 . S
C513 H498 0.930 . S
C513 C508 1.390 . S
C513 C512 1.387 . S
H514 C526 0.930 . S
H515 C528 0.930 . S
H516 C529 0.930 . S
H517 C533 0.959 . S
H518 C533 0.943 1_556 S
H519 C533 0.961 . S
H520 C534 0.960 1_554 S
H521 C534 0.961 1_455 S
H522 C534 0.959 . S
H523 C537 0.929 . S
H524 C538 0.931 . S
H525 C540 0.930 . S
C526 H514 0.930 . S
C526 C527 1.399 . S
C526 C531 1.399 . S
C527 C526 1.399 . S
C527 C528 1.376 1_565 S
C528 H515 0.930 . S
C528 C527 1.376 1_545 S
C528 C529 1.388 . S
C529 H516 0.930 . S
C529 C528 1.388 . S
C529 C530 1.390 . S
C530 C529 1.390 . S
C530 C531 1.394 1_545 S
C530 C536 1.465 1_554 S
C531 C526 1.399 . S
C531 C530 1.394 1_565 S
C531 C532 1.516 1_655 S
C532 C531 1.516 1_455 S
C532 C533 1.502 . S
C532 C534 1.561 1_454 S
C532 C535 1.526 1_554 S
C533 H517 0.959 . S
C533 H518 0.943 1_554 S
C533 H519 0.961 . S
C533 C532 1.502 . S
C534 H520 0.960 1_556 S
C534 H521 0.961 1_655 S
C534 H522 0.959 . S
C534 C532 1.561 1_656 S
C535 C532 1.526 1_556 S
C535 C536 1.396 1_465 S
C535 C540 1.390 . S
C536 C530 1.465 1_556 S
C536 C535 1.396 1_645 S
C536 C537 1.399 . S
C537 H523 0.929 . S
C537 C536 1.399 . S
C537 C538 1.385 1_655 S
C538 H524 0.931 . S
C538 C537 1.385 1_455 S
C538 C539 1.389 . S
C539 C538 1.389 . S
C539 C540 1.387 1_545 S
C540 H525 0.930 . S
C540 C535 1.390 . S
C540 C539 1.387 1_565 S
H541 C553 0.930 . S
H542 C555 0.930 . S
H543 C556 0.930 . S
H544 C560 0.959 . S
H545 C560 0.959 . S
H546 C560 0.961 . S
H547 C561 0.960 . S
H548 C561 0.961 . S
H549 C561 0.959 . S
H550 C564 0.929 . S
H551 C565 0.931 . S
H552 C567 0.930 . S
C553 H541 0.930 . S
C553 C554 1.399 1_545 S
C553 C558 1.399 . S
C554 C553 1.399 1_565 S
C554 C555 1.376 . S
C555 H542 0.930 . S
C555 C554 1.376 . S
C555 C556 1.388 . S
C556 H543 0.930 . S
C556 C555 1.388 . S
C556 C557 1.390 . S
C557 C556 1.390 . S
C557 C558 1.394 1_565 S
C557 C563 1.465 . S
C558 C553 1.399 . S
C558 C557 1.394 1_545 S
C558 C559 1.516 . S
C559 C558 1.516 . S
C559 C560 1.502 . S
C559 C561 1.561 . S
C559 C562 1.526 . S
C560 H544 0.959 . S
C560 H545 0.959 . S
C560 H546 0.961 . S
C560 C559 1.502 . S
C561 H547 0.960 . S
C561 H548 0.961 . S
C561 H549 0.959 . S
C561 C559 1.561 . S
C562 C559 1.526 . S
C562 C563 1.396 1_545 S
C562 C567 1.390 . S
C563 C557 1.465 . S
C563 C562 1.396 1_565 S
C563 C564 1.399 . S
C564 H550 0.929 . S
C564 C563 1.399 . S
C564 C565 1.385 . S
C565 H551 0.931 . S
C565 C564 1.385 . S
C565 C566 1.389 1_565 S
C566 C565 1.389 1_545 S
C566 C567 1.387 . S
C567 H552 0.930 . S
C567 C562 1.390 . S
C567 C566 1.387 . S
H568 C580 0.930 . S
H569 C582 0.930 . S
H570 C583 0.930 . S
H571 C587 0.959 . S
H572 C587 0.959 . S
H573 C587 0.961 . S
H574 C588 0.960 . S
H575 C588 0.961 . S
H576 C588 0.959 1_554 S
H577 C591 0.929 . S
H578 C592 0.931 . S
H579 C594 0.930 . S
C580 H568 0.930 . S
C580 C581 1.399 . S
C580 C585 1.399 . S
C581 C580 1.399 . S
C581 C582 1.376 . S
C582 H569 0.930 . S
C582 C581 1.376 . S
C582 C583 1.388 . S
C583 H570 0.930 . S
C583 C582 1.388 . S
C583 C584 1.390 . S
C584 C583 1.390 . S
C584 C585 1.394 . S
C584 C590 1.465 1_556 S
C585 C580 1.399 . S
C585 C584 1.394 . S
C585 C586 1.516 . S
C586 C585 1.516 . S
C586 C587 1.502 . S
C586 C588 1.561 . S
C586 C589 1.526 1_556 S
C587 H571 0.959 . S
C587 H572 0.959 . S
C587 H573 0.961 . S
C587 C586 1.502 . S
C588 H574 0.960 . S
C588 H575 0.961 . S
C588 H576 0.959 1_556 S
C588 C586 1.561 . S
C589 C586 1.526 1_554 S
C589 C590 1.396 . S
C589 C594 1.390 . S
C590 C584 1.465 1_554 S
C590 C589 1.396 . S
C590 C591 1.399 . S
C591 H577 0.929 . S
C591 C590 1.399 . S
C591 C592 1.385 . S
C592 H578 0.931 . S
C592 C591 1.385 . S
C592 C593 1.389 . S
C593 C592 1.389 . S
C593 C594 1.387 . S
C594 H579 0.930 . S
C594 C589 1.390 . S
C594 C593 1.387 . S
H595 C607 0.930 . S
H596 C609 0.930 . S
H597 C610 0.930 . S
H598 C614 0.959 . S
H599 C614 0.959 . S
H600 C614 0.961 . S
H601 C615 0.960 . S
H602 C615 0.961 . S
H603 C615 0.959 . S
H604 C618 0.929 . S
H605 C619 0.931 . S
H606 C621 0.930 . S
C607 H595 0.930 . S
C607 C608 1.399 . S
C607 C612 1.399 . S
C608 C607 1.399 . S
C608 C609 1.376 . S
C609 H596 0.930 . S
C609 C608 1.376 . S
C609 C610 1.388 . S
C610 H597 0.930 . S
C610 C609 1.388 . S
C610 C611 1.390 . S
C611 C610 1.390 . S
C611 C612 1.394 . S
C611 C617 1.465 . S
C612 C607 1.399 . S
C612 C611 1.394 . S
C612 C613 1.516 . S
C613 C612 1.516 . S
C613 C614 1.502 . S
C613 C615 1.561 . S
C613 C616 1.526 . S
C614 H598 0.959 . S
C614 H599 0.959 . S
C614 H600 0.961 . S
C614 C613 1.502 . S
C615 H601 0.960 . S
C615 H602 0.961 . S
C615 H603 0.959 . S
C615 C613 1.561 . S
C616 C613 1.526 . S
C616 C617 1.396 . S
C616 C621 1.390 . S
C617 C611 1.465 . S
C617 C616 1.396 . S
C617 C618 1.399 . S
C618 H604 0.929 . S
C618 C617 1.399 . S
C618 C619 1.385 . S
C619 H605 0.931 . S
C619 C618 1.385 . S
C619 C620 1.389 . S
C620 C619 1.389 . S
C620 C621 1.387 . S
C621 H606 0.930 . S
C621 C616 1.390 . S
C621 C620 1.387 . S
H622 C634 0.930 . S
H623 C636 0.930 . S
H624 C637 0.930 . S
H625 C641 0.959 . S
H626 C641 0.959 . S
H627 C641 0.961 . S
H628 C642 0.960 . S
H629 C642 0.961 . S
H630 C642 0.959 . S
H631 C645 0.929 . S
H632 C646 0.931 . S
H633 C648 0.930 . S
C634 H622 0.930 . S
C634 C635 1.399 . S
C634 C639 1.399 . S
C635 C634 1.399 . S
C635 C636 1.376 . S
C636 H623 0.930 . S
C636 C635 1.376 . S
C636 C637 1.388 . S
C637 H624 0.930 . S
C637 C636 1.388 . S
C637 C638 1.390 . S
C638 C637 1.390 . S
C638 C639 1.394 . S
C638 C644 1.465 . S
C639 C634 1.399 . S
C639 C638 1.394 . S
C639 C640 1.516 . S
C640 C639 1.516 . S
C640 C641 1.502 . S
C640 C642 1.561 . S
C640 C643 1.526 . S
C641 H625 0.959 . S
C641 H626 0.959 . S
C641 H627 0.961 . S
C641 C640 1.502 . S
C642 H628 0.960 . S
C642 H629 0.961 . S
C642 H630 0.959 . S
C642 C640 1.561 . S
C643 C640 1.526 . S
C643 C644 1.396 . S
C643 C648 1.390 . S
C644 C638 1.465 . S
C644 C643 1.396 . S
C644 C645 1.399 . S
C645 H631 0.929 . S
C645 C644 1.399 . S
C645 C646 1.385 . S
C646 H632 0.931 . S
C646 C645 1.385 . S
C646 C647 1.389 . S
C647 C646 1.389 . S
C647 C648 1.387 . S
C648 H633 0.930 . S
C648 C643 1.390 . S
C648 C647 1.387 . S
H649 C661 0.930 . S
H650 C663 0.930 . S
H651 C664 0.930 . S
H652 C668 0.959 . S
H653 C668 0.959 . S
H654 C668 0.961 . S
H655 C669 0.960 . S
H656 C669 0.961 . S
H657 C669 0.959 . S
H658 C672 0.929 . S
H659 C673 0.931 . S
H660 C675 0.930 . S
C661 H649 0.930 . S
C661 C662 1.399 . S
C661 C666 1.399 . S
C662 C661 1.399 . S
C662 C663 1.376 . S
C663 H650 0.930 . S
C663 C662 1.376 . S
C663 C664 1.388 . S
C664 H651 0.930 . S
C664 C663 1.388 . S
C664 C665 1.390 . S
C665 C664 1.390 . S
C665 C666 1.394 . S
C665 C671 1.465 . S
C666 C661 1.399 . S
C666 C665 1.394 . S
C666 C667 1.516 . S
C667 C666 1.516 . S
C667 C668 1.502 . S
C667 C669 1.561 . S
C667 C670 1.526 . S
C668 H652 0.959 . S
C668 H653 0.959 . S
C668 H654 0.961 . S
C668 C667 1.502 . S
C669 H655 0.960 . S
C669 H656 0.961 . S
C669 H657 0.959 . S
C669 C667 1.561 . S
C670 C667 1.526 . S
C670 C671 1.396 . S
C670 C675 1.390 . S
C671 C665 1.465 . S
C671 C670 1.396 . S
C671 C672 1.399 . S
C672 H658 0.929 . S
C672 C671 1.399 . S
C672 C673 1.385 . S
C673 H659 0.931 . S
C673 C672 1.385 . S
C673 C674 1.389 . S
C674 C673 1.389 . S
C674 C675 1.387 . S
C675 H660 0.930 . S
C675 C670 1.390 . S
C675 C674 1.387 . S
H676 C688 0.930 . S
H677 C690 0.930 . S
H678 C691 0.930 . S
H679 C695 0.959 . S
H680 C695 0.959 . S
H681 C695 0.961 . S
H682 C696 0.960 1_554 S
H683 C696 0.961 . S
H684 C696 0.959 . S
H685 C699 0.929 . S
H686 C700 0.931 . S
H687 C702 0.930 . S
C688 H676 0.930 . S
C688 C689 1.399 . S
C688 C693 1.399 . S
C689 C688 1.399 . S
C689 C690 1.376 . S
C690 H677 0.930 . S
C690 C689 1.376 . S
C690 C691 1.388 . S
C691 H678 0.930 . S
C691 C690 1.388 . S
C691 C692 1.390 . S
C692 C691 1.390 . S
C692 C693 1.394 . S
C692 C698 1.465 . S
C693 C688 1.399 . S
C693 C692 1.394 . S
C693 C694 1.516 . S
C694 C693 1.516 . S
C694 C695 1.502 . S
C694 C696 1.561 1_554 S
C694 C697 1.526 1_554 S
C695 H679 0.959 . S
C695 H680 0.959 . S
C695 H681 0.961 . S
C695 C694 1.502 . S
C696 H682 0.960 1_556 S
C696 H683 0.961 . S
C696 H684 0.959 . S
C696 C694 1.561 1_556 S
C697 C694 1.526 1_556 S
C697 C698 1.396 1_556 S
C697 C702 1.390 . S
C698 C692 1.465 . S
C698 C697 1.396 1_554 S
C698 C699 1.399 1_554 S
C699 H685 0.929 . S
C699 C698 1.399 1_556 S
C699 C700 1.385 . S
C700 H686 0.931 . S
C700 C699 1.385 . S
C700 C701 1.389 . S
C701 C700 1.389 . S
C701 C702 1.387 . S
C702 H687 0.930 . S
C702 C697 1.390 . S
C702 C701 1.387 . S
H703 C715 0.930 . S
H704 C717 0.930 . S
H705 C718 0.930 . S
H706 C722 0.959 . S
H707 C722 0.959 . S
H708 C722 0.961 . S
H709 C723 0.960 . S
H710 C723 0.961 . S
H711 C723 0.959 . S
H712 C726 0.929 . S
H713 C727 0.931 . S
H714 C729 0.930 . S
C715 H703 0.930 . S
C715 C716 1.399 . S
C715 C720 1.399 . S
C716 C715 1.399 . S
C716 C717 1.376 . S
C717 H704 0.930 . S
C717 C716 1.376 . S
C717 C718 1.388 . S
C718 H705 0.930 . S
C718 C717 1.388 . S
C718 C719 1.390 . S
C719 C718 1.390 . S
C719 C720 1.394 . S
C719 C725 1.465 . S
C720 C715 1.399 . S
C720 C719 1.394 . S
C720 C721 1.516 . S
C721 C720 1.516 . S
C721 C722 1.502 . S
C721 C723 1.561 . S
C721 C724 1.526 . S
C722 H706 0.959 . S
C722 H707 0.959 . S
C722 H708 0.961 . S
C722 C721 1.502 . S
C723 H709 0.960 . S
C723 H710 0.961 . S
C723 H711 0.959 . S
C723 C721 1.561 . S
C724 C721 1.526 . S
C724 C725 1.396 . S
C724 C729 1.390 . S
C725 C719 1.465 . S
C725 C724 1.396 . S
C725 C726 1.399 . S
C726 H712 0.929 . S
C726 C725 1.399 . S
C726 C727 1.385 . S
C727 H713 0.931 . S
C727 C726 1.385 . S
C727 C728 1.389 . S
C728 C727 1.389 . S
C728 C729 1.387 . S
C729 H714 0.930 . S
C729 C724 1.390 . S
C729 C728 1.387 . S
H730 C742 0.930 . S
H731 C744 0.930 . S
H732 C745 0.930 . S
H733 C749 0.959 . S
H734 C749 0.959 . S
H735 C749 0.961 . S
H736 C750 0.960 . S
H737 C750 0.961 . S
H738 C750 0.959 . S
H739 C753 0.929 . S
H740 C754 0.931 . S
H741 C756 0.930 . S
C742 H730 0.930 . S
C742 C743 1.399 . S
C742 C747 1.399 . S
C743 C742 1.399 . S
C743 C744 1.376 . S
C744 H731 0.930 . S
C744 C743 1.376 . S
C744 C745 1.388 . S
C745 H732 0.930 . S
C745 C744 1.388 . S
C745 C746 1.390 . S
C746 C745 1.390 . S
C746 C747 1.394 . S
C746 C752 1.465 . S
C747 C742 1.399 . S
C747 C746 1.394 . S
C747 C748 1.516 . S
C748 C747 1.516 . S
C748 C749 1.502 . S
C748 C750 1.561 . S
C748 C751 1.526 . S
C749 H733 0.959 . S
C749 H734 0.959 . S
C749 H735 0.961 . S
C749 C748 1.502 . S
C750 H736 0.960 . S
C750 H737 0.961 . S
C750 H738 0.959 . S
C750 C748 1.561 . S
C751 C748 1.526 . S
C751 C752 1.396 . S
C751 C756 1.390 . S
C752 C746 1.465 . S
C752 C751 1.396 . S
C752 C753 1.399 . S
C753 H739 0.929 . S
C753 C752 1.399 . S
C753 C754 1.385 . S
C754 H740 0.931 . S
C754 C753 1.385 . S
C754 C755 1.389 . S
C755 C754 1.389 . S
C755 C756 1.387 . S
C756 H741 0.930 . S
C756 C751 1.390 . S
C756 C755 1.387 . S
H757 C769 0.930 . S
H758 C771 0.930 . S
H759 C772 0.930 . S
H760 C776 0.959 . S
H761 C776 0.959 . S
H762 C776 0.961 . S
H763 C777 0.960 . S
H764 C777 0.961 . S
H765 C777 0.959 . S
H766 C780 0.929 . S
H767 C781 0.931 . S
H768 C783 0.930 . S
C769 H757 0.930 . S
C769 C770 1.399 . S
C769 C774 1.399 . S
C770 C769 1.399 . S
C770 C771 1.376 . S
C771 H758 0.930 . S
C771 C770 1.376 . S
C771 C772 1.388 . S
C772 H759 0.930 . S
C772 C771 1.388 . S
C772 C773 1.390 . S
C773 C772 1.390 . S
C773 C774 1.394 . S
C773 C779 1.465 . S
C774 C769 1.399 . S
C774 C773 1.394 . S
C774 C775 1.516 . S
C775 C774 1.516 . S
C775 C776 1.502 . S
C775 C777 1.561 . S
C775 C778 1.526 . S
C776 H760 0.959 . S
C776 H761 0.959 . S
C776 H762 0.961 . S
C776 C775 1.502 . S
C777 H763 0.960 . S
C777 H764 0.961 . S
C777 H765 0.959 . S
C777 C775 1.561 . S
C778 C775 1.526 . S
C778 C779 1.396 . S
C778 C783 1.390 . S
C779 C773 1.465 . S
C779 C778 1.396 . S
C779 C780 1.399 . S
C780 H766 0.929 . S
C780 C779 1.399 . S
C780 C781 1.385 . S
C781 H767 0.931 . S
C781 C780 1.385 . S
C781 C782 1.389 . S
C782 C781 1.389 . S
C782 C783 1.387 . S
C783 H768 0.930 . S
C783 C778 1.390 . S
C783 C782 1.387 . S
H784 C796 0.930 . S
H785 C798 0.930 . S
H786 C799 0.930 . S
H787 C803 0.959 . S
H788 C803 0.959 . S
H789 C803 0.961 . S
H790 C804 0.960 . S
H791 C804 0.961 . S
H792 C804 0.959 . S
H793 C807 0.929 . S
H794 C808 0.931 . S
H795 C810 0.930 . S
C796 H784 0.930 . S
C796 C797 1.399 . S
C796 C801 1.399 . S
C797 C796 1.399 . S
C797 C798 1.376 . S
C798 H785 0.930 . S
C798 C797 1.376 . S
C798 C799 1.388 . S
C799 H786 0.930 . S
C799 C798 1.388 . S
C799 C800 1.390 . S
C800 C799 1.390 . S
C800 C801 1.394 . S
C800 C806 1.465 . S
C801 C796 1.399 . S
C801 C800 1.394 . S
C801 C802 1.516 . S
C802 C801 1.516 . S
C802 C803 1.502 . S
C802 C804 1.561 . S
C802 C805 1.526 . S
C803 H787 0.959 . S
C803 H788 0.959 . S
C803 H789 0.961 . S
C803 C802 1.502 . S
C804 H790 0.960 . S
C804 H791 0.961 . S
C804 H792 0.959 . S
C804 C802 1.561 . S
C805 C802 1.526 . S
C805 C806 1.396 . S
C805 C810 1.390 . S
C806 C800 1.465 . S
C806 C805 1.396 . S
C806 C807 1.399 . S
C807 H793 0.929 . S
C807 C806 1.399 . S
C807 C808 1.385 . S
C808 H794 0.931 . S
C808 C807 1.385 . S
C808 C809 1.389 . S
C809 C808 1.389 . S
C809 C810 1.387 . S
C810 H795 0.930 . S
C810 C805 1.390 . S
C810 C809 1.387 . S
H811 C823 0.930 . S
H812 C825 0.930 . S
H813 C826 0.930 . S
H814 C830 0.959 . S
H815 C830 0.959 . S
H816 C830 0.961 1_545 S
H817 C831 0.960 . S
H818 C831 0.961 . S
H819 C831 0.959 . S
H820 C834 0.929 . S
H821 C835 0.931 . S
H822 C837 0.930 . S
C823 H811 0.930 . S
C823 C824 1.399 . S
C823 C828 1.399 1_545 S
C824 C823 1.399 . S
C824 C825 1.376 1_545 S
C825 H812 0.930 . S
C825 C824 1.376 1_565 S
C825 C826 1.388 . S
C826 H813 0.930 . S
C826 C825 1.388 . S
C826 C827 1.390 . S
C827 C826 1.390 . S
C827 C828 1.394 . S
C827 C833 1.465 . S
C828 C823 1.399 1_565 S
C828 C827 1.394 . S
C828 C829 1.516 . S
C829 C828 1.516 . S
C829 C830 1.502 . S
C829 C831 1.561 1_565 S
C829 C832 1.526 . S
C830 H814 0.959 . S
C830 H815 0.959 . S
C830 H816 0.961 1_565 S
C830 C829 1.502 . S
C831 H817 0.960 . S
C831 H818 0.961 . S
C831 H819 0.959 . S
C831 C829 1.561 1_545 S
C832 C829 1.526 . S
C832 C833 1.396 . S
C832 C837 1.390 . S
C833 C827 1.465 . S
C833 C832 1.396 . S
C833 C834 1.399 . S
C834 H820 0.929 . S
C834 C833 1.399 . S
C834 C835 1.385 . S
C835 H821 0.931 . S
C835 C834 1.385 . S
C835 C836 1.389 . S
C836 C835 1.389 . S
C836 C837 1.387 . S
C837 H822 0.930 . S
C837 C832 1.390 . S
C837 C836 1.387 . S
H838 C850 0.930 . S
H839 C852 0.930 . S
H840 C853 0.930 . S
H841 C857 0.959 . S
H842 C857 0.959 . S
H843 C857 0.961 . S
H844 C858 0.963 . S
H845 C858 0.958 1_556 S
H846 C858 0.961 . S
H847 C861 0.929 . S
H848 C862 0.931 . S
H849 C864 0.930 . S
C850 H838 0.930 . S
C850 C851 1.399 . S
C850 C855 1.399 . S
C851 C850 1.399 . S
C851 C852 1.376 . S
C852 H839 0.930 . S
C852 C851 1.376 . S
C852 C853 1.388 . S
C853 H840 0.930 . S
C853 C852 1.388 . S
C853 C854 1.391 1_554 S
C854 C853 1.391 1_556 S
C854 C855 1.394 1_556 S
C854 C860 1.463 . S
C855 C850 1.399 . S
C855 C854 1.394 1_554 S
C855 C856 1.516 1_554 S
C856 C855 1.516 1_556 S
C856 C857 1.502 . S
C856 C858 1.559 1_556 S
C856 C859 1.526 . S
C857 H841 0.959 . S
C857 H842 0.959 . S
C857 H843 0.961 . S
C857 C856 1.502 . S
C858 H844 0.963 . S
C858 H845 0.958 1_554 S
C858 H846 0.961 . S
C858 C856 1.559 1_554 S
C859 C856 1.526 . S
C859 C860 1.396 . S
C859 C864 1.390 . S
C860 C854 1.463 . S
C860 C859 1.396 . S
C860 C861 1.399 . S
C861 H847 0.929 . S
C861 C860 1.399 . S
C861 C862 1.385 . S
C862 H848 0.931 . S
C862 C861 1.385 . S
C862 C863 1.389 . S
C863 C862 1.389 . S
C863 C864 1.387 . S
C864 H849 0.930 . S
C864 C859 1.390 . S
C864 C863 1.387 . S
H865 C877 0.930 . S
H866 C879 0.930 . S
H867 C880 0.930 . S
H868 C884 0.959 . S
H869 C884 0.959 . S
H870 C884 0.961 . S
H871 C885 0.960 . S
H872 C885 0.961 . S
H873 C885 0.959 . S
H874 C888 0.929 . S
H875 C889 0.931 . S
H876 C891 0.930 . S
C877 H865 0.930 . S
C877 C878 1.399 . S
C877 C882 1.399 . S
C878 C877 1.399 . S
C878 C879 1.376 . S
C879 H866 0.930 . S
C879 C878 1.376 . S
C879 C880 1.388 . S
C880 H867 0.930 . S
C880 C879 1.388 . S
C880 C881 1.390 . S
C881 C880 1.390 . S
C881 C882 1.394 . S
C881 C887 1.465 . S
C882 C877 1.399 . S
C882 C881 1.394 . S
C882 C883 1.516 . S
C883 C882 1.516 . S
C883 C884 1.502 . S
C883 C885 1.561 . S
C883 C886 1.526 . S
C884 H868 0.959 . S
C884 H869 0.959 . S
C884 H870 0.961 . S
C884 C883 1.502 . S
C885 H871 0.960 . S
C885 H872 0.961 . S
C885 H873 0.959 . S
C885 C883 1.561 . S
C886 C883 1.526 . S
C886 C887 1.396 . S
C886 C891 1.390 . S
C887 C881 1.465 . S
C887 C886 1.396 . S
C887 C888 1.399 1_545 S
C888 H874 0.929 . S
C888 C887 1.399 1_565 S
C888 C889 1.385 . S
C889 H875 0.931 . S
C889 C888 1.385 . S
C889 C890 1.389 . S
C890 C889 1.389 . S
C890 C891 1.387 1_565 S
C891 H876 0.930 . S
C891 C886 1.390 . S
C891 C890 1.387 1_545 S
H892 C904 0.930 . S
H893 C906 0.930 . S
H894 C907 0.930 . S
H895 C911 0.959 . S
H896 C911 0.959 . S
H897 C911 0.961 . S
H898 C912 0.960 . S
H899 C912 0.961 . S
H900 C912 0.959 . S
H901 C915 0.929 . S
H902 C916 0.931 . S
H903 C918 0.930 . S
C904 H892 0.930 . S
C904 C905 1.399 . S
C904 C909 1.399 . S
C905 C904 1.399 . S
C905 C906 1.376 . S
C906 H893 0.930 . S
C906 C905 1.376 . S
C906 C907 1.388 . S
C907 H894 0.930 . S
C907 C906 1.388 . S
C907 C908 1.390 . S
C908 C907 1.390 . S
C908 C909 1.394 . S
C908 C914 1.465 . S
C909 C904 1.399 . S
C909 C908 1.394 . S
C909 C910 1.516 . S
C910 C909 1.516 . S
C910 C911 1.502 . S
C910 C912 1.561 . S
C910 C913 1.526 . S
C911 H895 0.959 . S
C911 H896 0.959 . S
C911 H897 0.961 . S
C911 C910 1.502 . S
C912 H898 0.960 . S
C912 H899 0.961 . S
C912 H900 0.959 . S
C912 C910 1.561 . S
C913 C910 1.526 . S
C913 C914 1.396 . S
C913 C918 1.390 . S
C914 C908 1.465 . S
C914 C913 1.396 . S
C914 C915 1.399 . S
C915 H901 0.929 . S
C915 C914 1.399 . S
C915 C916 1.385 . S
C916 H902 0.931 . S
C916 C915 1.385 . S
C916 C917 1.389 . S
C917 C916 1.389 . S
C917 C918 1.387 . S
C918 H903 0.930 . S
C918 C913 1.390 . S
C918 C917 1.387 . S
H919 C931 0.930 . S
H920 C933 0.930 . S
H921 C934 0.930 . S
H922 C938 0.959 . S
H923 C938 0.959 . S
H924 C938 0.961 . S
H925 C939 0.960 . S
H926 C939 0.961 . S
H927 C939 0.959 . S
H928 C942 0.929 . S
H929 C943 0.931 . S
H930 C945 0.930 . S
C931 H919 0.930 . S
C931 C932 1.399 1_545 S
C931 C936 1.399 . S
C932 C931 1.399 1_565 S
C932 C933 1.376 . S
C933 H920 0.930 . S
C933 C932 1.376 . S
C933 C934 1.388 . S
C934 H921 0.930 . S
C934 C933 1.388 . S
C934 C935 1.390 1_565 S
C935 C934 1.390 1_545 S
C935 C936 1.394 . S
C935 C941 1.465 . S
C936 C931 1.399 . S
C936 C935 1.394 . S
C936 C937 1.516 . S
C937 C936 1.516 . S
C937 C938 1.502 . S
C937 C939 1.561 . S
C937 C940 1.526 . S
C938 H922 0.959 . S
C938 H923 0.959 . S
C938 H924 0.961 . S
C938 C937 1.502 . S
C939 H925 0.960 . S
C939 H926 0.961 . S
C939 H927 0.959 . S
C939 C937 1.561 . S
C940 C937 1.526 . S
C940 C941 1.396 . S
C940 C945 1.390 . S
C941 C935 1.465 . S
C941 C940 1.396 . S
C941 C942 1.399 . S
C942 H928 0.929 . S
C942 C941 1.399 . S
C942 C943 1.385 . S
C943 H929 0.931 . S
C943 C942 1.385 . S
C943 C944 1.389 . S
C944 C943 1.389 . S
C944 C945 1.387 . S
C945 H930 0.930 . S
C945 C940 1.390 . S
C945 C944 1.387 . S
H946 C958 0.930 . S
H947 C960 0.930 . S
H948 C961 0.930 . S
H949 C965 0.959 . S
H950 C965 0.959 . S
H951 C965 0.961 1_554 S
H952 C966 0.960 . S
H953 C966 0.961 . S
H954 C966 0.959 . S
H955 C969 0.929 1_554 S
H956 C970 0.931 . S
H957 C972 0.930 . S
C958 H946 0.930 . S
C958 C959 1.399 . S
C958 C963 1.399 . S
C959 C958 1.399 . S
C959 C960 1.376 . S
C960 H947 0.930 . S
C960 C959 1.376 . S
C960 C961 1.388 . S
C961 H948 0.930 . S
C961 C960 1.388 . S
C961 C962 1.390 . S
C962 C961 1.390 . S
C962 C963 1.394 . S
C962 C968 1.465 . S
C963 C958 1.399 . S
C963 C962 1.394 . S
C963 C964 1.516 . S
C964 C963 1.516 . S
C964 C965 1.502 1_554 S
C964 C966 1.561 . S
C964 C967 1.526 1_554 S
C965 H949 0.959 . S
C965 H950 0.959 . S
C965 H951 0.961 1_556 S
C965 C964 1.502 1_556 S
C966 H952 0.960 . S
C966 H953 0.961 . S
C966 H954 0.959 . S
C966 C964 1.561 . S
C967 C964 1.526 1_556 S
C967 C968 1.396 1_556 S
C967 C972 1.390 . S
C968 C962 1.465 . S
C968 C967 1.396 1_554 S
C968 C969 1.399 1_554 S
C969 H955 0.929 1_556 S
C969 C968 1.399 1_556 S
C969 C970 1.385 . S
C970 H956 0.931 . S
C970 C969 1.385 . S
C970 C971 1.389 . S
C971 C970 1.389 . S
C971 C972 1.387 . S
C972 H957 0.930 . S
C972 C967 1.390 . S
C972 C971 1.387 . S
H973 C985 0.930 . S
H974 C987 0.930 . S
H975 C988 0.930 . S
H976 C992 0.959 . S
H977 C992 0.959 . S
H978 C992 0.961 . S
H979 C993 0.960 . S
H980 C993 0.961 . S
H981 C993 0.959 . S
H982 C996 0.929 . S
H983 C997 0.931 . S
H984 C999 0.930 . S
C985 H973 0.930 . S
C985 C986 1.399 . S
C985 C990 1.399 1_545 S
C986 C985 1.399 . S
C986 C987 1.376 1_545 S
C987 H974 0.930 . S
C987 C986 1.376 1_565 S
C987 C988 1.388 . S
C988 H975 0.930 . S
C988 C987 1.388 . S
C988 C989 1.390 . S
C989 C988 1.390 . S
C989 C990 1.394 . S
C989 C995 1.465 . S
C990 C985 1.399 1_565 S
C990 C989 1.394 . S
C990 C991 1.516 . S
C991 C990 1.516 . S
C991 C992 1.502 1_565 S
C991 C993 1.561 1_565 S
C991 C994 1.526 . S
C992 H976 0.959 . S
C992 H977 0.959 . S
C992 H978 0.961 . S
C992 C991 1.502 1_545 S
C993 H979 0.960 . S
C993 H980 0.961 . S
C993 H981 0.959 . S
C993 C991 1.561 1_545 S
C994 C991 1.526 . S
C994 C995 1.396 . S
C994 C999 1.390 . S
C995 C989 1.465 . S
C995 C994 1.396 . S
C995 C996 1.399 . S
C996 H982 0.929 . S
C996 C995 1.399 . S
C996 C997 1.385 . S
C997 H983 0.931 . S
C997 C996 1.385 . S
C997 C998 1.389 . S
C998 C997 1.389 . S
C998 C999 1.387 . S
C999 H984 0.930 . S
C999 C994 1.390 . S
C999 C998 1.387 . S
H1000 C1012 0.930 . S
H1001 C1014 0.930 . S
H1002 C1015 0.930 . S
H1003 C1019 0.959 . S
H1004 C1019 0.959 . S
H1005 C1019 0.961 . S
H1006 C1020 0.960 . S
H1007 C1020 0.961 . S
H1008 C1020 0.959 . S
H1009 C1023 0.929 . S
H1010 C1024 0.931 . S
H1011 C1026 0.930 . S
C1012 H1000 0.930 . S
C1012 C1013 1.399 . S
C1012 C1017 1.399 . S
C1013 C1012 1.399 . S
C1013 C1014 1.376 . S
C1014 H1001 0.930 . S
C1014 C1013 1.376 . S
C1014 C1015 1.388 . S
C1015 H1002 0.930 . S
C1015 C1014 1.388 . S
C1015 C1016 1.390 . S
C1016 C1015 1.390 . S
C1016 C1017 1.394 . S
C1016 C1022 1.465 . S
C1017 C1012 1.399 . S
C1017 C1016 1.394 . S
C1017 C1018 1.516 . S
C1018 C1017 1.516 . S
C1018 C1019 1.502 . S
C1018 C1020 1.561 . S
C1018 C1021 1.526 . S
C1019 H1003 0.959 . S
C1019 H1004 0.959 . S
C1019 H1005 0.961 . S
C1019 C1018 1.502 . S
C1020 H1006 0.960 . S
C1020 H1007 0.961 . S
C1020 H1008 0.959 . S
C1020 C1018 1.561 . S
C1021 C1018 1.526 . S
C1021 C1022 1.396 . S
C1021 C1026 1.390 . S
C1022 C1016 1.465 . S
C1022 C1021 1.396 . S
C1022 C1023 1.399 . S
C1023 H1009 0.929 . S
C1023 C1022 1.399 . S
C1023 C1024 1.385 . S
C1024 H1010 0.931 . S
C1024 C1023 1.385 . S
C1024 C1025 1.389 . S
C1025 C1024 1.389 . S
C1025 C1026 1.387 . S
C1026 H1011 0.930 . S
C1026 C1021 1.390 . S
C1026 C1025 1.387 . S
H1027 C1039 0.930 . S
H1028 C1041 0.930 . S
H1029 C1042 0.930 . S
H1030 C1046 0.959 . S
H1031 C1046 0.959 . S
H1032 C1046 0.961 . S
H1033 C1047 0.960 . S
H1034 C1047 0.961 . S
H1035 C1047 0.959 . S
H1036 C1050 0.929 . S
H1037 C1051 0.931 . S
H1038 C1053 0.930 . S
C1039 H1027 0.930 . S
C1039 C1040 1.399 . S
C1039 C1044 1.399 . S
C1040 C1039 1.399 . S
C1040 C1041 1.376 . S
C1041 H1028 0.930 . S
C1041 C1040 1.376 . S
C1041 C1042 1.388 . S
C1042 H1029 0.930 . S
C1042 C1041 1.388 . S
C1042 C1043 1.390 . S
C1043 C1042 1.390 . S
C1043 C1044 1.394 . S
C1043 C1049 1.465 . S
C1044 C1039 1.399 . S
C1044 C1043 1.394 . S
C1044 C1045 1.516 . S
C1045 C1044 1.516 . S
C1045 C1046 1.502 . S
C1045 C1047 1.561 . S
C1045 C1048 1.526 . S
C1046 H1030 0.959 . S
C1046 H1031 0.959 . S
C1046 H1032 0.961 . S
C1046 C1045 1.502 . S
C1047 H1033 0.960 . S
C1047 H1034 0.961 . S
C1047 H1035 0.959 . S
C1047 C1045 1.561 . S
C1048 C1045 1.526 . S
C1048 C1049 1.396 . S
C1048 C1053 1.390 . S
C1049 C1043 1.465 . S
C1049 C1048 1.396 . S
C1049 C1050 1.399 . S
C1050 H1036 0.929 . S
C1050 C1049 1.399 . S
C1050 C1051 1.385 . S
C1051 H1037 0.931 . S
C1051 C1050 1.385 . S
C1051 C1052 1.389 . S
C1052 C1051 1.389 . S
C1052 C1053 1.387 . S
C1053 H1038 0.930 . S
C1053 C1048 1.390 . S
C1053 C1052 1.387 . S
H1054 C1066 0.930 . S
H1055 C1068 0.930 . S
H1056 C1069 0.930 . S
H1057 C1073 0.959 . S
H1058 C1073 0.959 . S
H1059 C1073 0.961 . S
H1060 C1074 0.960 . S
H1061 C1074 0.961 . S
H1062 C1074 0.959 . S
H1063 C1077 0.929 . S
H1064 C1078 0.931 . S
H1065 C1080 0.930 . S
C1066 H1054 0.930 . S
C1066 C1067 1.399 . S
C1066 C1071 1.399 . S
C1067 C1066 1.399 . S
C1067 C1068 1.376 . S
C1068 H1055 0.930 . S
C1068 C1067 1.376 . S
C1068 C1069 1.388 . S
C1069 H1056 0.930 . S
C1069 C1068 1.388 . S
C1069 C1070 1.390 . S
C1070 C1069 1.390 . S
C1070 C1071 1.394 . S
C1070 C1076 1.465 1_655 S
C1071 C1066 1.399 . S
C1071 C1070 1.394 . S
C1071 C1072 1.521 . S
C1072 C1071 1.521 . S
C1072 C1073 1.506 . S
C1072 C1074 1.557 1_655 S
C1072 C1075 1.520 1_655 S
C1073 H1057 0.959 . S
C1073 H1058 0.959 . S
C1073 H1059 0.961 . S
C1073 C1072 1.506 . S
C1074 H1060 0.960 . S
C1074 H1061 0.961 . S
C1074 H1062 0.959 . S
C1074 C1072 1.557 1_455 S
C1075 C1072 1.520 1_455 S
C1075 C1076 1.396 . S
C1075 C1080 1.390 . S
C1076 C1070 1.465 1_455 S
C1076 C1075 1.396 . S
C1076 C1077 1.399 . S
C1077 H1063 0.929 . S
C1077 C1076 1.399 . S
C1077 C1078 1.385 . S
C1078 H1064 0.931 . S
C1078 C1077 1.385 . S
C1078 C1079 1.389 . S
C1079 C1078 1.389 . S
C1079 C1080 1.387 . S
C1080 H1065 0.930 . S
C1080 C1075 1.390 . S
C1080 C1079 1.387 . S
H1081 C1093 0.930 . S
H1082 C1095 0.930 . S
H1083 C1096 0.930 . S
H1084 C1100 0.959 . S
H1085 C1100 0.959 . S
H1086 C1100 0.961 . S
H1087 C1101 0.960 . S
H1088 C1101 0.961 . S
H1089 C1101 0.959 . S
H1090 C1104 0.929 . S
H1091 C1105 0.931 . S
H1092 C1107 0.930 . S
C1093 H1081 0.930 . S
C1093 C1094 1.399 . S
C1093 C1098 1.399 . S
C1094 C1093 1.399 . S
C1094 C1095 1.376 . S
C1095 H1082 0.930 . S
C1095 C1094 1.376 . S
C1095 C1096 1.388 . S
C1096 H1083 0.930 . S
C1096 C1095 1.388 . S
C1096 C1097 1.390 . S
C1097 C1096 1.390 . S
C1097 C1098 1.394 . S
C1097 C1103 1.465 . S
C1098 C1093 1.399 . S
C1098 C1097 1.394 . S
C1098 C1099 1.516 1_655 S
C1099 C1098 1.516 1_455 S
C1099 C1100 1.502 . S
C1099 C1101 1.561 . S
C1099 C1102 1.526 . S
C1100 H1084 0.959 . S
C1100 H1085 0.959 . S
C1100 H1086 0.961 . S
C1100 C1099 1.502 . S
C1101 H1087 0.960 . S
C1101 H1088 0.961 . S
C1101 H1089 0.959 . S
C1101 C1099 1.561 . S
C1102 C1099 1.526 . S
C1102 C1103 1.396 1_455 S
C1102 C1107 1.390 . S
C1103 C1097 1.465 . S
C1103 C1102 1.396 1_655 S
C1103 C1104 1.399 . S
C1104 H1090 0.929 . S
C1104 C1103 1.399 . S
C1104 C1105 1.385 1_655 S
C1105 H1091 0.931 . S
C1105 C1104 1.385 1_455 S
C1105 C1106 1.389 . S
C1106 C1105 1.389 . S
C1106 C1107 1.387 . S
C1107 H1092 0.930 . S
C1107 C1102 1.390 . S
C1107 C1106 1.387 . S
H1108 C1120 0.930 . S
H1109 C1122 0.930 . S
H1110 C1123 0.930 . S
H1111 C1127 0.959 . S
H1112 C1127 0.959 . S
H1113 C1127 0.961 . S
H1114 C1128 0.960 . S
H1115 C1128 0.961 . S
H1116 C1128 0.959 . S
H1117 C1131 0.929 . S
H1118 C1132 0.931 . S
H1119 C1134 0.930 . S
C1120 H1108 0.930 . S
C1120 C1121 1.399 . S
C1120 C1125 1.399 . S
C1121 C1120 1.399 . S
C1121 C1122 1.376 . S
C1122 H1109 0.930 . S
C1122 C1121 1.376 . S
C1122 C1123 1.388 . S
C1123 H1110 0.930 . S
C1123 C1122 1.388 . S
C1123 C1124 1.390 . S
C1124 C1123 1.390 . S
C1124 C1125 1.394 . S
C1124 C1130 1.465 . S
C1125 C1120 1.399 . S
C1125 C1124 1.394 . S
C1125 C1126 1.516 . S
C1126 C1125 1.516 . S
C1126 C1127 1.502 . S
C1126 C1128 1.561 . S
C1126 C1129 1.526 . S
C1127 H1111 0.959 . S
C1127 H1112 0.959 . S
C1127 H1113 0.961 . S
C1127 C1126 1.502 . S
C1128 H1114 0.960 . S
C1128 H1115 0.961 . S
C1128 H1116 0.959 . S
C1128 C1126 1.561 . S
C1129 C1126 1.526 . S
C1129 C1130 1.396 . S
C1129 C1134 1.390 . S
C1130 C1124 1.465 . S
C1130 C1129 1.396 . S
C1130 C1131 1.399 . S
C1131 H1117 0.929 . S
C1131 C1130 1.399 . S
C1131 C1132 1.385 . S
C1132 H1118 0.931 . S
C1132 C1131 1.385 . S
C1132 C1133 1.389 . S
C1133 C1132 1.389 . S
C1133 C1134 1.387 . S
C1134 H1119 0.930 . S
C1134 C1129 1.390 . S
C1134 C1133 1.387 . S
H1135 C1147 0.930 . S
H1136 C1149 0.930 . S
H1137 C1150 0.930 . S
H1138 C1154 0.959 . S
H1139 C1154 0.959 . S
H1140 C1154 0.961 . S
H1141 C1155 0.960 . S
H1142 C1155 0.961 . S
H1143 C1155 0.959 . S
H1144 C1158 0.929 . S
H1145 C1159 0.931 . S
H1146 C1161 0.930 . S
C1147 H1135 0.930 . S
C1147 C1148 1.399 . S
C1147 C1152 1.399 . S
C1148 C1147 1.399 . S
C1148 C1149 1.376 . S
C1149 H1136 0.930 . S
C1149 C1148 1.376 . S
C1149 C1150 1.388 . S
C1150 H1137 0.930 . S
C1150 C1149 1.388 . S
C1150 C1151 1.390 . S
C1151 C1150 1.390 . S
C1151 C1152 1.394 . S
C1151 C1157 1.465 . S
C1152 C1147 1.399 . S
C1152 C1151 1.394 . S
C1152 C1153 1.516 . S
C1153 C1152 1.516 . S
C1153 C1154 1.502 . S
C1153 C1155 1.561 . S
C1153 C1156 1.526 . S
C1154 H1138 0.959 . S
C1154 H1139 0.959 . S
C1154 H1140 0.961 . S
C1154 C1153 1.502 . S
C1155 H1141 0.960 . S
C1155 H1142 0.961 . S
C1155 H1143 0.959 . S
C1155 C1153 1.561 . S
C1156 C1153 1.526 . S
C1156 C1157 1.396 . S
C1156 C1161 1.390 . S
C1157 C1151 1.465 . S
C1157 C1156 1.396 . S
C1157 C1158 1.399 . S
C1158 H1144 0.929 . S
C1158 C1157 1.399 . S
C1158 C1159 1.385 . S
C1159 H1145 0.931 . S
C1159 C1158 1.385 . S
C1159 C1160 1.389 . S
C1160 C1159 1.389 . S
C1160 C1161 1.387 . S
C1161 H1146 0.930 . S
C1161 C1156 1.390 . S
C1161 C1160 1.387 . S
H1162 C1174 0.930 . S
H1163 C1176 0.930 . S
H1164 C1177 0.930 . S
H1165 C1181 0.959 . S
H1166 C1181 0.959 . S
H1167 C1181 0.961 . S
H1168 C1182 0.960 . S
H1169 C1182 0.961 . S
H1170 C1182 0.959 . S
H1171 C1185 0.929 . S
H1172 C1186 0.931 . S
H1173 C1188 0.930 . S
C1174 H1162 0.930 . S
C1174 C1175 1.399 . S
C1174 C1179 1.399 . S
C1175 C1174 1.399 . S
C1175 C1176 1.376 . S
C1176 H1163 0.930 . S
C1176 C1175 1.376 . S
C1176 C1177 1.388 . S
C1177 H1164 0.930 . S
C1177 C1176 1.388 . S
C1177 C1178 1.390 . S
C1178 C1177 1.390 . S
C1178 C1179 1.394 . S
C1178 C1184 1.465 1_455 S
C1179 C1174 1.399 . S
C1179 C1178 1.394 . S
C1179 C1180 1.515 1_455 S
C1180 C1179 1.515 1_655 S
C1180 C1181 1.500 1_655 S
C1180 C1182 1.563 . S
C1180 C1183 1.527 . S
C1181 H1165 0.959 . S
C1181 H1166 0.959 . S
C1181 H1167 0.961 . S
C1181 C1180 1.500 1_455 S
C1182 H1168 0.960 . S
C1182 H1169 0.961 . S
C1182 H1170 0.959 . S
C1182 C1180 1.563 . S
C1183 C1180 1.527 . S
C1183 C1184 1.396 . S
C1183 C1188 1.390 . S
C1184 C1178 1.465 1_655 S
C1184 C1183 1.396 . S
C1184 C1185 1.399 . S
C1185 H1171 0.929 . S
C1185 C1184 1.399 . S
C1185 C1186 1.385 . S
C1186 H1172 0.931 . S
C1186 C1185 1.385 . S
C1186 C1187 1.389 . S
C1187 C1186 1.389 . S
C1187 C1188 1.387 . S
C1188 H1173 0.930 . S
C1188 C1183 1.390 . S
C1188 C1187 1.387 . S
H1189 C1201 0.930 . S
H1190 C1203 0.930 . S
H1191 C1204 0.930 . S
H1192 C1208 0.959 . S
H1193 C1208 0.959 . S
H1194 C1208 0.961 . S
H1195 C1209 0.960 . S
H1196 C1209 0.961 1_655 S
H1197 C1209 0.959 . S
H1198 C1212 0.929 1_455 S
H1199 C1213 0.931 . S
H1200 C1215 0.930 . S
C1201 H1189 0.930 . S
C1201 C1202 1.399 . S
C1201 C1206 1.399 . S
C1202 C1201 1.399 . S
C1202 C1203 1.376 . S
C1203 H1190 0.930 . S
C1203 C1202 1.376 . S
C1203 C1204 1.388 . S
C1204 H1191 0.930 . S
C1204 C1203 1.388 . S
C1204 C1205 1.390 . S
C1205 C1204 1.390 . S
C1205 C1206 1.394 . S
C1205 C1211 1.465 1_455 S
C1206 C1201 1.399 . S
C1206 C1205 1.394 . S
C1206 C1207 1.516 1_455 S
C1207 C1206 1.516 1_655 S
C1207 C1208 1.502 . S
C1207 C1209 1.561 1_655 S
C1207 C1210 1.526 . S
C1208 H1192 0.959 . S
C1208 H1193 0.959 . S
C1208 H1194 0.961 . S
C1208 C1207 1.502 . S
C1209 H1195 0.960 . S
C1209 H1196 0.961 1_455 S
C1209 H1197 0.959 . S
C1209 C1207 1.561 1_455 S
C1210 C1207 1.526 . S
C1210 C1211 1.396 . S
C1210 C1215 1.390 . S
C1211 C1205 1.465 1_655 S
C1211 C1210 1.396 . S
C1211 C1212 1.399 . S
C1212 H1198 0.929 1_655 S
C1212 C1211 1.399 . S
C1212 C1213 1.385 . S
C1213 H1199 0.931 . S
C1213 C1212 1.385 . S
C1213 C1214 1.389 . S
C1214 C1213 1.389 . S
C1214 C1215 1.387 . S
C1215 H1200 0.930 . S
C1215 C1210 1.390 . S
C1215 C1214 1.387 . S
H1216 C1228 0.930 . S
H1217 C1230 0.930 . S
H1218 C1231 0.930 . S
H1219 C1235 0.959 . S
H1220 C1235 0.959 . S
H1221 C1235 0.961 . S
H1222 C1236 0.960 . S
H1223 C1236 0.961 . S
H1224 C1236 0.959 . S
H1225 C1239 0.929 . S
H1226 C1240 0.931 . S
H1227 C1242 0.930 . S
C1228 H1216 0.930 . S
C1228 C1229 1.399 . S
C1228 C1233 1.399 . S
C1229 C1228 1.399 . S
C1229 C1230 1.376 . S
C1230 H1217 0.930 . S
C1230 C1229 1.376 . S
C1230 C1231 1.388 . S
C1231 H1218 0.930 . S
C1231 C1230 1.388 . S
C1231 C1232 1.390 . S
C1232 C1231 1.390 . S
C1232 C1233 1.394 . S
C1232 C1238 1.465 . S
C1233 C1228 1.399 . S
C1233 C1232 1.394 . S
C1233 C1234 1.516 . S
C1234 C1233 1.516 . S
C1234 C1235 1.502 . S
C1234 C1236 1.561 . S
C1234 C1237 1.526 . S
C1235 H1219 0.959 . S
C1235 H1220 0.959 . S
C1235 H1221 0.961 . S
C1235 C1234 1.502 . S
C1236 H1222 0.960 . S
C1236 H1223 0.961 . S
C1236 H1224 0.959 . S
C1236 C1234 1.561 . S
C1237 C1234 1.526 . S
C1237 C1238 1.396 . S
C1237 C1242 1.390 . S
C1238 C1232 1.465 . S
C1238 C1237 1.396 . S
C1238 C1239 1.399 . S
C1239 H1225 0.929 . S
C1239 C1238 1.399 . S
C1239 C1240 1.385 . S
C1240 H1226 0.931 . S
C1240 C1239 1.385 . S
C1240 C1241 1.389 . S
C1241 C1240 1.389 . S
C1241 C1242 1.387 . S
C1242 H1227 0.930 . S
C1242 C1237 1.390 . S
C1242 C1241 1.387 . S
H1243 C1255 0.930 . S
H1244 C1257 0.930 . S
H1245 C1258 0.930 . S
H1246 C1262 0.959 . S
H1247 C1262 0.959 . S
H1248 C1262 0.961 . S
H1249 C1263 0.960 . S
H1250 C1263 0.961 . S
H1251 C1263 0.959 . S
H1252 C1266 0.929 . S
H1253 C1267 0.931 . S
H1254 C1269 0.930 . S
C1255 H1243 0.930 . S
C1255 C1256 1.399 . S
C1255 C1260 1.399 . S
C1256 C1255 1.399 . S
C1256 C1257 1.376 . S
C1257 H1244 0.930 . S
C1257 C1256 1.376 . S
C1257 C1258 1.388 . S
C1258 H1245 0.930 . S
C1258 C1257 1.388 . S
C1258 C1259 1.390 . S
C1259 C1258 1.390 . S
C1259 C1260 1.394 . S
C1259 C1265 1.465 . S
C1260 C1255 1.399 . S
C1260 C1259 1.394 . S
C1260 C1261 1.516 . S
C1261 C1260 1.516 . S
C1261 C1262 1.502 . S
C1261 C1263 1.561 . S
C1261 C1264 1.526 . S
C1262 H1246 0.959 . S
C1262 H1247 0.959 . S
C1262 H1248 0.961 . S
C1262 C1261 1.502 . S
C1263 H1249 0.960 . S
C1263 H1250 0.961 . S
C1263 H1251 0.959 . S
C1263 C1261 1.561 . S
C1264 C1261 1.526 . S
C1264 C1265 1.396 . S
C1264 C1269 1.390 . S
C1265 C1259 1.465 . S
C1265 C1264 1.396 . S
C1265 C1266 1.399 . S
C1266 H1252 0.929 . S
C1266 C1265 1.399 . S
C1266 C1267 1.385 . S
C1267 H1253 0.931 . S
C1267 C1266 1.385 . S
C1267 C1268 1.389 . S
C1268 C1267 1.389 . S
C1268 C1269 1.387 . S
C1269 H1254 0.930 . S
C1269 C1264 1.390 . S
C1269 C1268 1.387 . S
H1270 C1282 0.930 . S
H1271 C1284 0.930 . S
H1272 C1285 0.930 . S
H1273 C1289 0.959 . S
H1274 C1289 0.959 . S
H1275 C1289 0.961 . S
H1276 C1290 0.960 . S
H1277 C1290 0.961 . S
H1278 C1290 0.959 . S
H1279 C1293 0.929 . S
H1280 C1294 0.931 . S
H1281 C1296 0.930 . S
C1282 H1270 0.930 . S
C1282 C1283 1.399 . S
C1282 C1287 1.399 . S
C1283 C1282 1.399 . S
C1283 C1284 1.376 . S
C1284 H1271 0.930 . S
C1284 C1283 1.376 . S
C1284 C1285 1.388 . S
C1285 H1272 0.930 . S
C1285 C1284 1.388 . S
C1285 C1286 1.390 . S
C1286 C1285 1.390 . S
C1286 C1287 1.394 . S
C1286 C1292 1.465 . S
C1287 C1282 1.399 . S
C1287 C1286 1.394 . S
C1287 C1288 1.516 . S
C1288 C1287 1.516 . S
C1288 C1289 1.502 . S
C1288 C1290 1.561 . S
C1288 C1291 1.526 . S
C1289 H1273 0.959 . S
C1289 H1274 0.959 . S
C1289 H1275 0.961 . S
C1289 C1288 1.502 . S
C1290 H1276 0.960 . S
C1290 H1277 0.961 . S
C1290 H1278 0.959 . S
C1290 C1288 1.561 . S
C1291 C1288 1.526 . S
C1291 C1292 1.396 . S
C1291 C1296 1.390 . S
C1292 C1286 1.465 . S
C1292 C1291 1.396 . S
C1292 C1293 1.399 . S
C1293 H1279 0.929 . S
C1293 C1292 1.399 . S
C1293 C1294 1.385 . S
C1294 H1280 0.931 . S
C1294 C1293 1.385 . S
C1294 C1295 1.389 . S
C1295 C1294 1.389 . S
C1295 C1296 1.387 . S
C1296 H1281 0.930 . S
C1296 C1291 1.390 . S
C1296 C1295 1.387 . S
H1297 C1309 0.930 . S
H1298 C1311 0.930 . S
H1299 C1312 0.930 . S
H1300 C1316 0.959 . S
H1301 C1316 0.959 . S
H1302 C1316 0.961 . S
H1303 C1317 0.960 . S
H1304 C1317 0.961 . S
H1305 C1317 0.959 . S
H1306 C1320 0.929 . S
H1307 C1321 0.931 . S
H1308 C1323 0.930 . S
C1309 H1297 0.930 . S
C1309 C1310 1.399 . S
C1309 C1314 1.399 . S
C1310 C1309 1.399 . S
C1310 C1311 1.376 . S
C1311 H1298 0.930 . S
C1311 C1310 1.376 . S
C1311 C1312 1.388 . S
C1312 H1299 0.930 . S
C1312 C1311 1.388 . S
C1312 C1313 1.390 . S
C1313 C1312 1.390 . S
C1313 C1314 1.394 . S
C1313 C1319 1.465 . S
C1314 C1309 1.399 . S
C1314 C1313 1.394 . S
C1314 C1315 1.516 . S
C1315 C1314 1.516 . S
C1315 C1316 1.502 . S
C1315 C1317 1.561 . S
C1315 C1318 1.526 . S
C1316 H1300 0.959 . S
C1316 H1301 0.959 . S
C1316 H1302 0.961 . S
C1316 C1315 1.502 . S
C1317 H1303 0.960 . S
C1317 H1304 0.961 . S
C1317 H1305 0.959 . S
C1317 C1315 1.561 . S
C1318 C1315 1.526 . S
C1318 C1319 1.396 . S
C1318 C1323 1.390 . S
C1319 C1313 1.465 . S
C1319 C1318 1.396 . S
C1319 C1320 1.399 . S
C1320 H1306 0.929 . S
C1320 C1319 1.399 . S
C1320 C1321 1.385 . S
C1321 H1307 0.931 . S
C1321 C1320 1.385 . S
C1321 C1322 1.389 . S
C1322 C1321 1.389 . S
C1322 C1323 1.387 . S
C1323 H1308 0.930 . S
C1323 C1318 1.390 . S
C1323 C1322 1.387 . S
H1324 C1336 0.930 . S
H1325 C1338 0.930 . S
H1326 C1339 0.930 . S
H1327 C1343 0.959 . S
H1328 C1343 0.959 . S
H1329 C1343 0.961 . S
H1330 C1344 0.960 . S
H1331 C1344 0.961 . S
H1332 C1344 0.959 . S
H1333 C1347 0.929 . S
H1334 C1348 0.931 . S
H1335 C1350 0.930 . S
C1336 H1324 0.930 . S
C1336 C1337 1.399 . S
C1336 C1341 1.399 . S
C1337 C1336 1.399 . S
C1337 C1338 1.376 . S
C1338 H1325 0.930 . S
C1338 C1337 1.376 . S
C1338 C1339 1.388 . S
C1339 H1326 0.930 . S
C1339 C1338 1.388 . S
C1339 C1340 1.390 . S
C1340 C1339 1.390 . S
C1340 C1341 1.394 . S
C1340 C1346 1.465 . S
C1341 C1336 1.399 . S
C1341 C1340 1.394 . S
C1341 C1342 1.516 . S
C1342 C1341 1.516 . S
C1342 C1343 1.502 . S
C1342 C1344 1.561 . S
C1342 C1345 1.526 . S
C1343 H1327 0.959 . S
C1343 H1328 0.959 . S
C1343 H1329 0.961 . S
C1343 C1342 1.502 . S
C1344 H1330 0.960 . S
C1344 H1331 0.961 . S
C1344 H1332 0.959 . S
C1344 C1342 1.561 . S
C1345 C1342 1.526 . S
C1345 C1346 1.396 . S
C1345 C1350 1.390 . S
C1346 C1340 1.465 . S
C1346 C1345 1.396 . S
C1346 C1347 1.399 . S
C1347 H1333 0.929 . S
C1347 C1346 1.399 . S
C1347 C1348 1.385 . S
C1348 H1334 0.931 . S
C1348 C1347 1.385 . S
C1348 C1349 1.389 . S
C1349 C1348 1.389 . S
C1349 C1350 1.387 . S
C1350 H1335 0.930 . S
C1350 C1345 1.390 . S
C1350 C1349 1.387 . S
H1351 C1363 0.930 . S
H1352 C1365 0.930 . S
H1353 C1366 0.930 . S
H1354 C1370 0.959 . S
H1355 C1370 0.959 . S
H1356 C1370 0.961 . S
H1357 C1371 0.960 . S
H1358 C1371 0.961 . S
H1359 C1371 0.959 . S
H1360 C1374 0.929 . S
H1361 C1375 0.931 . S
H1362 C1377 0.930 . S
C1363 H1351 0.930 . S
C1363 C1364 1.399 . S
C1363 C1368 1.399 . S
C1364 C1363 1.399 . S
C1364 C1365 1.376 . S
C1365 H1352 0.930 . S
C1365 C1364 1.376 . S
C1365 C1366 1.388 . S
C1366 H1353 0.930 . S
C1366 C1365 1.388 . S
C1366 C1367 1.390 . S
C1367 C1366 1.390 . S
C1367 C1368 1.394 . S
C1367 C1373 1.465 . S
C1368 C1363 1.399 . S
C1368 C1367 1.394 . S
C1368 C1369 1.516 . S
C1369 C1368 1.516 . S
C1369 C1370 1.502 . S
C1369 C1371 1.561 . S
C1369 C1372 1.526 . S
C1370 H1354 0.959 . S
C1370 H1355 0.959 . S
C1370 H1356 0.961 . S
C1370 C1369 1.502 . S
C1371 H1357 0.960 . S
C1371 H1358 0.961 . S
C1371 H1359 0.959 . S
C1371 C1369 1.561 . S
C1372 C1369 1.526 . S
C1372 C1373 1.396 . S
C1372 C1377 1.390 . S
C1373 C1367 1.465 . S
C1373 C1372 1.396 . S
C1373 C1374 1.399 . S
C1374 H1360 0.929 . S
C1374 C1373 1.399 . S
C1374 C1375 1.385 . S
C1375 H1361 0.931 . S
C1375 C1374 1.385 . S
C1375 C1376 1.389 . S
C1376 C1375 1.389 . S
C1376 C1377 1.387 . S
C1377 H1362 0.930 . S
C1377 C1372 1.390 . S
C1377 C1376 1.387 . S
H1378 C1390 0.930 . S
H1379 C1392 0.930 . S
H1380 C1393 0.930 . S
H1381 C1397 0.959 . S
H1382 C1397 0.959 . S
H1383 C1397 0.961 . S
H1384 C1398 0.960 . S
H1385 C1398 0.961 . S
H1386 C1398 0.959 . S
H1387 C1401 0.929 . S
H1388 C1402 0.931 . S
H1389 C1404 0.930 . S
C1390 H1378 0.930 . S
C1390 C1391 1.399 . S
C1390 C1395 1.399 . S
C1391 C1390 1.399 . S
C1391 C1392 1.376 . S
C1392 H1379 0.930 . S
C1392 C1391 1.376 . S
C1392 C1393 1.388 . S
C1393 H1380 0.930 . S
C1393 C1392 1.388 . S
C1393 C1394 1.390 . S
C1394 C1393 1.390 . S
C1394 C1395 1.394 . S
C1394 C1400 1.465 . S
C1395 C1390 1.399 . S
C1395 C1394 1.394 . S
C1395 C1396 1.516 . S
C1396 C1395 1.516 . S
C1396 C1397 1.502 . S
C1396 C1398 1.561 . S
C1396 C1399 1.526 . S
C1397 H1381 0.959 . S
C1397 H1382 0.959 . S
C1397 H1383 0.961 . S
C1397 C1396 1.502 . S
C1398 H1384 0.960 . S
C1398 H1385 0.961 . S
C1398 H1386 0.959 . S
C1398 C1396 1.561 . S
C1399 C1396 1.526 . S
C1399 C1400 1.396 . S
C1399 C1404 1.390 . S
C1400 C1394 1.465 . S
C1400 C1399 1.396 . S
C1400 C1401 1.399 . S
C1401 H1387 0.929 . S
C1401 C1400 1.399 . S
C1401 C1402 1.385 . S
C1402 H1388 0.931 . S
C1402 C1401 1.385 . S
C1402 C1403 1.389 . S
C1403 C1402 1.389 . S
C1403 C1404 1.387 . S
C1404 H1389 0.930 . S
C1404 C1399 1.390 . S
C1404 C1403 1.387 . S
H1405 C1417 0.930 . S
H1406 C1419 0.930 . S
H1407 C1420 0.930 . S
H1408 C1424 0.959 . S
H1409 C1424 0.959 . S
H1410 C1424 0.961 . S
H1411 C1425 0.960 . S
H1412 C1425 0.961 . S
H1413 C1425 0.959 . S
H1414 C1428 0.929 . S
H1415 C1429 0.931 . S
H1416 C1431 0.930 . S
C1417 H1405 0.930 . S
C1417 C1418 1.399 . S
C1417 C1422 1.399 . S
C1418 C1417 1.399 . S
C1418 C1419 1.376 . S
C1419 H1406 0.930 . S
C1419 C1418 1.376 . S
C1419 C1420 1.388 . S
C1420 H1407 0.930 . S
C1420 C1419 1.388 . S
C1420 C1421 1.390 . S
C1421 C1420 1.390 . S
C1421 C1422 1.394 . S
C1421 C1427 1.465 . S
C1422 C1417 1.399 . S
C1422 C1421 1.394 . S
C1422 C1423 1.516 . S
C1423 C1422 1.516 . S
C1423 C1424 1.502 . S
C1423 C1425 1.561 . S
C1423 C1426 1.526 . S
C1424 H1408 0.959 . S
C1424 H1409 0.959 . S
C1424 H1410 0.961 . S
C1424 C1423 1.502 . S
C1425 H1411 0.960 . S
C1425 H1412 0.961 . S
C1425 H1413 0.959 . S
C1425 C1423 1.561 . S
C1426 C1423 1.526 . S
C1426 C1427 1.396 . S
C1426 C1431 1.390 . S
C1427 C1421 1.465 . S
C1427 C1426 1.396 . S
C1427 C1428 1.399 . S
C1428 H1414 0.929 . S
C1428 C1427 1.399 . S
C1428 C1429 1.385 . S
C1429 H1415 0.931 . S
C1429 C1428 1.385 . S
C1429 C1430 1.389 . S
C1430 C1429 1.389 . S
C1430 C1431 1.387 . S
C1431 H1416 0.930 . S
C1431 C1426 1.390 . S
C1431 C1430 1.387 . S
H1432 C1444 0.930 . S
H1433 C1446 0.930 . S
H1434 C1447 0.930 . S
H1435 C1451 0.959 . S
H1436 C1451 0.959 . S
H1437 C1451 0.961 . S
H1438 C1452 0.960 . S
H1439 C1452 0.961 . S
H1440 C1452 0.959 . S
H1441 C1455 0.929 . S
H1442 C1456 0.931 . S
H1443 C1458 0.930 . S
C1444 H1432 0.930 . S
C1444 C1445 1.399 . S
C1444 C1449 1.399 . S
C1445 C1444 1.399 . S
C1445 C1446 1.376 . S
C1446 H1433 0.930 . S
C1446 C1445 1.376 . S
C1446 C1447 1.388 . S
C1447 H1434 0.930 . S
C1447 C1446 1.388 . S
C1447 C1448 1.390 . S
C1448 C1447 1.390 . S
C1448 C1449 1.394 . S
C1448 C1454 1.465 . S
C1449 C1444 1.399 . S
C1449 C1448 1.394 . S
C1449 C1450 1.516 . S
C1450 C1449 1.516 . S
C1450 C1451 1.502 . S
C1450 C1452 1.561 . S
C1450 C1453 1.526 . S
C1451 H1435 0.959 . S
C1451 H1436 0.959 . S
C1451 H1437 0.961 . S
C1451 C1450 1.502 . S
C1452 H1438 0.960 . S
C1452 H1439 0.961 . S
C1452 H1440 0.959 . S
C1452 C1450 1.561 . S
C1453 C1450 1.526 . S
C1453 C1454 1.396 . S
C1453 C1458 1.390 . S
C1454 C1448 1.465 . S
C1454 C1453 1.396 . S
C1454 C1455 1.399 . S
C1455 H1441 0.929 . S
C1455 C1454 1.399 . S
C1455 C1456 1.385 . S
C1456 H1442 0.931 . S
C1456 C1455 1.385 . S
C1456 C1457 1.389 . S
C1457 C1456 1.389 . S
C1457 C1458 1.387 . S
C1458 H1443 0.930 . S
C1458 C1453 1.390 . S
C1458 C1457 1.387 . S
H1459 C1471 0.930 . S
H1460 C1473 0.930 . S
H1461 C1474 0.930 . S
H1462 C1478 0.959 . S
H1463 C1478 0.959 . S
H1464 C1478 0.961 . S
H1465 C1479 0.960 1_565 S
H1466 C1479 0.961 . S
H1467 C1479 0.959 . S
H1468 C1482 0.929 . S
H1469 C1483 0.931 . S
H1470 C1485 0.930 . S
C1471 H1459 0.930 . S
C1471 C1472 1.399 . S
C1471 C1476 1.399 . S
C1472 C1471 1.399 . S
C1472 C1473 1.376 . S
C1473 H1460 0.930 . S
C1473 C1472 1.376 . S
C1473 C1474 1.388 . S
C1474 H1461 0.930 . S
C1474 C1473 1.388 . S
C1474 C1475 1.390 . S
C1475 C1474 1.390 . S
C1475 C1476 1.394 . S
C1475 C1481 1.468 . S
C1476 C1471 1.399 . S
C1476 C1475 1.394 . S
C1476 C1477 1.516 . S
C1477 C1476 1.516 . S
C1477 C1478 1.502 . S
C1477 C1479 1.561 1_565 S
C1477 C1480 1.538 . S
C1478 H1462 0.959 . S
C1478 H1463 0.959 . S
C1478 H1464 0.961 . S
C1478 C1477 1.502 . S
C1479 H1465 0.960 1_545 S
C1479 H1466 0.961 . S
C1479 H1467 0.959 . S
C1479 C1477 1.561 1_545 S
C1480 C1477 1.538 . S
C1480 C1481 1.396 . S
C1480 C1485 1.378 1_565 S
C1481 C1475 1.468 . S
C1481 C1480 1.396 . S
C1481 C1482 1.396 1_565 S
C1482 H1468 0.929 . S
C1482 C1481 1.396 1_545 S
C1482 C1483 1.385 . S
C1483 H1469 0.931 . S
C1483 C1482 1.385 . S
C1483 C1484 1.389 . S
C1484 C1483 1.389 . S
C1484 C1485 1.387 . S
C1485 H1470 0.930 . S
C1485 C1480 1.378 1_545 S
C1485 C1484 1.387 . S
H1486 C1498 0.930 . S
H1487 C1500 0.930 . S
H1488 C1501 0.930 . S
H1489 C1505 0.959 . S
H1490 C1505 0.959 . S
H1491 C1505 0.961 . S
H1492 C1506 0.960 . S
H1493 C1506 0.961 . S
H1494 C1506 0.959 . S
H1495 C1509 0.929 . S
H1496 C1510 0.931 . S
H1497 C1512 0.930 . S
C1498 H1486 0.930 . S
C1498 C1499 1.399 . S
C1498 C1503 1.399 . S
C1499 C1498 1.399 . S
C1499 C1500 1.376 . S
C1500 H1487 0.930 . S
C1500 C1499 1.376 . S
C1500 C1501 1.388 . S
C1501 H1488 0.930 . S
C1501 C1500 1.388 . S
C1501 C1502 1.390 . S
C1502 C1501 1.390 . S
C1502 C1503 1.394 . S
C1502 C1508 1.465 . S
C1503 C1498 1.399 . S
C1503 C1502 1.394 . S
C1503 C1504 1.516 . S
C1504 C1503 1.516 . S
C1504 C1505 1.502 . S
C1504 C1506 1.561 . S
C1504 C1507 1.526 . S
C1505 H1489 0.959 . S
C1505 H1490 0.959 . S
C1505 H1491 0.961 . S
C1505 C1504 1.502 . S
C1506 H1492 0.960 . S
C1506 H1493 0.961 . S
C1506 H1494 0.959 . S
C1506 C1504 1.561 . S
C1507 C1504 1.526 . S
C1507 C1508 1.396 . S
C1507 C1512 1.390 . S
C1508 C1502 1.465 . S
C1508 C1507 1.396 . S
C1508 C1509 1.399 . S
C1509 H1495 0.929 . S
C1509 C1508 1.399 . S
C1509 C1510 1.385 . S
C1510 H1496 0.931 . S
C1510 C1509 1.385 . S
C1510 C1511 1.389 . S
C1511 C1510 1.389 . S
C1511 C1512 1.387 . S
C1512 H1497 0.930 . S
C1512 C1507 1.390 . S
C1512 C1511 1.387 . S
H1513 C1525 0.930 . S
H1514 C1527 0.930 . S
H1515 C1528 0.930 . S
H1516 C1532 0.959 . S
H1517 C1532 0.959 . S
H1518 C1532 0.961 . S
H1519 C1533 0.960 . S
H1520 C1533 0.961 1_545 S
H1521 C1533 0.959 . S
H1522 C1536 0.929 . S
H1523 C1537 0.931 . S
H1524 C1539 0.930 . S
C1525 H1513 0.930 . S
C1525 C1526 1.399 . S
C1525 C1530 1.405 . S
C1526 C1525 1.399 . S
C1526 C1527 1.376 . S
C1527 H1514 0.930 . S
C1527 C1526 1.376 . S
C1527 C1528 1.388 . S
C1528 H1515 0.930 . S
C1528 C1527 1.388 . S
C1528 C1529 1.377 1_565 S
C1529 C1528 1.377 1_545 S
C1529 C1530 1.393 1_545 S
C1529 C1535 1.482 . S
C1530 C1525 1.405 . S
C1530 C1529 1.393 1_565 S
C1530 C1531 1.510 1_565 S
C1531 C1530 1.510 1_545 S
C1531 C1532 1.502 . S
C1531 C1533 1.561 1_545 S
C1531 C1534 1.526 . S
C1532 H1516 0.959 . S
C1532 H1517 0.959 . S
C1532 H1518 0.961 . S
C1532 C1531 1.502 . S
C1533 H1519 0.960 . S
C1533 H1520 0.961 1_565 S
C1533 H1521 0.959 . S
C1533 C1531 1.561 1_565 S
C1534 C1531 1.526 . S
C1534 C1535 1.396 . S
C1534 C1539 1.390 . S
C1535 C1529 1.482 . S
C1535 C1534 1.396 . S
C1535 C1536 1.399 . S
C1536 H1522 0.929 . S
C1536 C1535 1.399 . S
C1536 C1537 1.385 . S
C1537 H1523 0.931 . S
C1537 C1536 1.385 . S
C1537 C1538 1.389 . S
C1538 C1537 1.389 . S
C1538 C1539 1.387 . S
C1539 H1524 0.930 . S
C1539 C1534 1.390 . S
C1539 C1538 1.387 . S
H1540 C1552 0.930 . S
H1541 C1554 0.930 . S
H1542 C1555 0.930 . S
H1543 C1559 0.959 . S
H1544 C1559 0.959 . S
H1545 C1559 0.961 . S
H1546 C1560 0.960 . S
H1547 C1560 0.961 . S
H1548 C1560 0.959 . S
H1549 C1563 0.929 . S
H1550 C1564 0.931 . S
H1551 C1566 0.930 . S
C1552 H1540 0.930 . S
C1552 C1553 1.399 . S
C1552 C1557 1.399 . S
C1553 C1552 1.399 . S
C1553 C1554 1.376 . S
C1554 H1541 0.930 . S
C1554 C1553 1.376 . S
C1554 C1555 1.388 . S
C1555 H1542 0.930 . S
C1555 C1554 1.388 . S
C1555 C1556 1.390 . S
C1556 C1555 1.390 . S
C1556 C1557 1.394 . S
C1556 C1562 1.465 . S
C1557 C1552 1.399 . S
C1557 C1556 1.394 . S
C1557 C1558 1.516 . S
C1558 C1557 1.516 . S
C1558 C1559 1.502 . S
C1558 C1560 1.561 . S
C1558 C1561 1.526 . S
C1559 H1543 0.959 . S
C1559 H1544 0.959 . S
C1559 H1545 0.961 . S
C1559 C1558 1.502 . S
C1560 H1546 0.960 . S
C1560 H1547 0.961 . S
C1560 H1548 0.959 . S
C1560 C1558 1.561 . S
C1561 C1558 1.526 . S
C1561 C1562 1.396 . S
C1561 C1566 1.390 . S
C1562 C1556 1.465 . S
C1562 C1561 1.396 . S
C1562 C1563 1.399 . S
C1563 H1549 0.929 . S
C1563 C1562 1.399 . S
C1563 C1564 1.385 . S
C1564 H1550 0.931 . S
C1564 C1563 1.385 . S
C1564 C1565 1.389 . S
C1565 C1564 1.389 . S
C1565 C1566 1.387 . S
C1566 H1551 0.930 . S
C1566 C1561 1.390 . S
C1566 C1565 1.387 . S
H1567 C1579 0.930 . S
H1568 C1581 0.930 . S
H1569 C1582 0.930 . S
H1570 C1586 0.959 . S
H1571 C1586 0.959 . S
H1572 C1586 0.961 . S
H1573 C1587 0.960 . S
H1574 C1587 0.961 1_545 S
H1575 C1587 0.959 . S
H1576 C1590 0.929 . S
H1577 C1591 0.931 . S
H1578 C1593 0.930 . S
C1579 H1567 0.930 . S
C1579 C1580 1.399 . S
C1579 C1584 1.399 1_565 S
C1580 C1579 1.399 . S
C1580 C1581 1.376 . S
C1581 H1568 0.930 . S
C1581 C1580 1.376 . S
C1581 C1582 1.388 . S
C1582 H1569 0.930 . S
C1582 C1581 1.388 . S
C1582 C1583 1.390 . S
C1583 C1582 1.390 . S
C1583 C1584 1.394 1_565 S
C1583 C1589 1.465 1_565 S
C1584 C1579 1.399 1_545 S
C1584 C1583 1.394 1_545 S
C1584 C1585 1.516 . S
C1585 C1584 1.516 . S
C1585 C1586 1.502 . S
C1585 C1587 1.561 1_545 S
C1585 C1588 1.526 . S
C1586 H1570 0.959 . S
C1586 H1571 0.959 . S
C1586 H1572 0.961 . S
C1586 C1585 1.502 . S
C1587 H1573 0.960 . S
C1587 H1574 0.961 1_565 S
C1587 H1575 0.959 . S
C1587 C1585 1.561 1_565 S
C1588 C1585 1.526 . S
C1588 C1589 1.396 . S
C1588 C1593 1.390 . S
C1589 C1583 1.465 1_545 S
C1589 C1588 1.396 . S
C1589 C1590 1.399 . S
C1590 H1576 0.929 . S
C1590 C1589 1.399 . S
C1590 C1591 1.385 . S
C1591 H1577 0.931 . S
C1591 C1590 1.385 . S
C1591 C1592 1.389 . S
C1592 C1591 1.389 . S
C1592 C1593 1.387 . S
C1593 H1578 0.930 . S
C1593 C1588 1.390 . S
C1593 C1592 1.387 . S
H1594 C1606 0.930 . S
H1595 C1608 0.928 . S
H1596 C1609 0.930 . S
H1597 C1613 0.959 . S
H1598 C1613 0.959 . S
H1599 C1613 0.961 . S
H1600 C1614 0.960 . S
H1601 C1614 0.961 . S
H1602 C1614 0.959 . S
H1603 C1617 0.929 . S
H1604 C1618 0.931 . S
H1605 C1620 0.930 . S
C1606 H1594 0.930 . S
C1606 C1607 1.399 . S
C1606 C1611 1.399 . S
C1607 C1606 1.399 . S
C1607 C1608 1.376 . S
C1608 H1595 0.928 . S
C1608 C1607 1.376 . S
C1608 C1609 1.388 . S
C1609 H1596 0.930 . S
C1609 C1608 1.388 . S
C1609 C1610 1.390 . S
C1610 C1609 1.390 . S
C1610 C1611 1.394 . S
C1610 C1616 1.465 . S
C1611 C1606 1.399 . S
C1611 C1610 1.394 . S
C1611 C1612 1.516 . S
C1612 C1611 1.516 . S
C1612 C1613 1.502 . S
C1612 C1614 1.561 . S
C1612 C1615 1.526 . S
C1613 H1597 0.959 . S
C1613 H1598 0.959 . S
C1613 H1599 0.961 . S
C1613 C1612 1.502 . S
C1614 H1600 0.960 . S
C1614 H1601 0.961 . S
C1614 H1602 0.959 . S
C1614 C1612 1.561 . S
C1615 C1612 1.526 . S
C1615 C1616 1.396 . S
C1615 C1620 1.390 . S
C1616 C1610 1.465 . S
C1616 C1615 1.396 . S
C1616 C1617 1.399 . S
C1617 H1603 0.929 . S
C1617 C1616 1.399 . S
C1617 C1618 1.385 . S
C1618 H1604 0.931 . S
C1618 C1617 1.385 . S
C1618 C1619 1.389 . S
C1619 C1618 1.389 . S
C1619 C1620 1.387 . S
C1620 H1605 0.930 . S
C1620 C1615 1.390 . S
C1620 C1619 1.387 . S
H1621 C1633 0.930 . S
H1622 C1635 0.930 . S
H1623 C1636 0.930 . S
H1624 C1640 0.959 . S
H1625 C1640 0.959 . S
H1626 C1640 0.961 . S
H1627 C1641 0.960 1_565 S
H1628 C1641 0.961 . S
H1629 C1641 0.959 . S
H1630 C1644 0.929 . S
H1631 C1645 0.931 . S
H1632 C1647 0.930 . S
C1633 H1621 0.930 . S
C1633 C1634 1.399 . S
C1633 C1638 1.399 . S
C1634 C1633 1.399 . S
C1634 C1635 1.376 . S
C1635 H1622 0.930 . S
C1635 C1634 1.376 . S
C1635 C1636 1.388 . S
C1636 H1623 0.930 . S
C1636 C1635 1.388 . S
C1636 C1637 1.390 . S
C1637 C1636 1.390 . S
C1637 C1638 1.394 . S
C1637 C1643 1.459 1_565 S
C1638 C1633 1.399 . S
C1638 C1637 1.394 . S
C1638 C1639 1.516 . S
C1639 C1638 1.516 . S
C1639 C1640 1.502 . S
C1639 C1641 1.561 1_565 S
C1639 C1642 1.526 . S
C1640 H1624 0.959 . S
C1640 H1625 0.959 . S
C1640 H1626 0.961 . S
C1640 C1639 1.502 . S
C1641 H1627 0.960 1_545 S
C1641 H1628 0.961 . S
C1641 H1629 0.959 . S
C1641 C1639 1.561 1_545 S
C1642 C1639 1.526 . S
C1642 C1643 1.396 1_565 S
C1642 C1647 1.390 1_565 S
C1643 C1637 1.459 1_545 S
C1643 C1642 1.396 1_545 S
C1643 C1644 1.405 . S
C1644 H1630 0.929 . S
C1644 C1643 1.405 . S
C1644 C1645 1.385 . S
C1645 H1631 0.931 . S
C1645 C1644 1.385 . S
C1645 C1646 1.389 . S
C1646 C1645 1.389 . S
C1646 C1647 1.387 . S
C1647 H1632 0.930 . S
C1647 C1642 1.390 1_545 S
C1647 C1646 1.387 . S
C365 C7 1.074 . S
C377 C271 0.978 . S
C392 C125 0.971 . S
C404 C29 1.075 . S
C419 C65 1.075 . S
C431 C323 0.972 . S
C446 C73 1.052 . S
C458 C175 1.009 . S
C473 C95 1.036 . S
C485 C183 1.026 . S
C500 C227 0.969 . S
C512 C147 1.074 . S
C527 C307 1.072 . S
C539 C219 0.969 . S
C554 C249 1.002 . S
C566 C337 1.056 . S
C581 C213 1.550 . S
C593 C10 1.526 . S
C608 C32 1.558 . S
C620 C241 1.576 . S
C635 C62 1.528 . S
C647 C263 1.577 . S
C662 C197 1.548 . S
C674 C76 1.530 . S
C689 C301 1.576 . S
C701 C98 1.542 . S
C716 C315 1.547 . S
C728 C118 1.521 . S
C743 C140 1.517 . S
C755 C351 1.550 . S
C770 C285 1.579 . S
C782 C172 1.553 . S
C797 C186 1.555 . S
C809 C43 1.548 . S
C824 C216 1.523 . S
C836 C59 1.551 . S
C851 C230 1.529 . S
C863 C87 1.577 . S
C878 C21 1.547 . S
C890 C252 1.554 . S
C905 C117 1.579 . S
C917 C274 1.562 . S
C932 C304 1.567 . S
C944 C139 1.577 . S
C959 C169 1.553 . S
C971 C316 1.551 . S
C986 C340 1.526 . S
C998 C109 1.568 . S
C1013 C8 0.719 . S
C1025 C228 0.777 . S
C1040 C30 0.719 . S
C1052 C250 0.775 . S
C1067 C184 0.885 . S
C1079 C54 0.846 . S
C1094 C74 0.820 . S
C1106 C208 0.728 . S
C1121 C96 0.807 . S
C1133 C326 0.726 . S
C1148 C128 0.825 . S
C1160 C338 0.721 . S
C1175 C272 0.789 . S
C1187 C150 0.734 . S
C1202 C164 0.825 . S
C1214 C296 0.721 . S
C1229 C18 1.543 . S
C1241 C161 1.563 . S
C1256 C279 1.550 . S
C1268 C40 1.532 . S
C1283 C52 1.543 . S
C1295 C131 1.561 . S
C1310 C84 1.516 . S
C1322 C329 1.555 . S
C1337 C106 1.475 . S
C1349 C81 1.525 . S
C1364 C191 1.566 . S
C1376 C120 1.539 . S
C1391 C142 1.503 . S
C1403 C37 1.545 . S
C1418 C235 1.510 . S
C1430 C162 1.470 . S
C1445 C194 1.465 . S
C1457 C345 1.517 1_565 S
C1472 C103 1.542 . S
C1484 C206 1.495 . S
C1499 C293 1.524 1_545 S
C1511 C238 1.498 . S
C1526 C260 1.540 . S
C1538 C153 1.558 . S
C1553 C282 1.525 . S
C1565 C257 1.546 1_545 S
C1580 C294 1.510 . S
C1592 C15 1.535 . S
C1607 C205 1.566 1_565 S
C1619 C318 1.541 . S
C1634 C51 1.565 . S
C1646 C348 1.536 . S
