# Generated by pormake.
# Topology cag, (4)-cn, num edge types: 1
# Building blocks:
#     Node 0, Type 0, BuildingBlock: UXUYUI_clean_sbu_0, # of connection points: 4
#     Node 1, Type 0, BuildingBlock: UXUYUI_clean_sbu_0, # of connection points: 4
#     Node 2, Type 0, BuildingBlock: UXUYUI_clean_sbu_0, # of connection points: 4
#     Node 3, Type 0, BuildingBlock: UXUYUI_clean_sbu_0, # of connection points: 4
#     Node 4, Type 0, BuildingBlock: UXUYUI_clean_sbu_0, # of connection points: 4
#     Node 5, Type 0, BuildingBlock: UXUYUI_clean_sbu_0, # of connection points: 4
#     Node 6, Type 0, BuildingBlock: UXUYUI_clean_sbu_0, # of connection points: 4
#     Node 7, Type 0, BuildingBlock: UXUYUI_clean_sbu_0, # of connection points: 4
#     Node 8, Type 0, BuildingBlock: UXUYUI_clean_sbu_0, # of connection points: 4
#     Node 9, Type 0, BuildingBlock: UXUYUI_clean_sbu_0, # of connection points: 4
#     Node 10, Type 0, BuildingBlock: UXUYUI_clean_sbu_0, # of connection points: 4
#     Node 11, Type 0, BuildingBlock: UXUYUI_clean_sbu_0, # of connection points: 4
#     Node 12, Type 0, BuildingBlock: UXUYUI_clean_sbu_0, # of connection points: 4
#     Node 13, Type 0, BuildingBlock: UXUYUI_clean_sbu_0, # of connection points: 4
#     Node 14, Type 0, BuildingBlock: UXUYUI_clean_sbu_0, # of connection points: 4
#     Node 15, Type 0, BuildingBlock: UXUYUI_clean_sbu_0, # of connection points: 4
#     Edge 16, Type (0, 0), BuildingBlock: KIFKEQ_clean_linker_1, # of connection points: 2
#     Edge 17, Type (0, 0), BuildingBlock: KIFKEQ_clean_linker_1, # of connection points: 2
#     Edge 18, Type (0, 0), BuildingBlock: KIFKEQ_clean_linker_1, # of connection points: 2
#     Edge 19, Type (0, 0), BuildingBlock: KIFKEQ_clean_linker_1, # of connection points: 2
#     Edge 20, Type (0, 0), BuildingBlock: KIFKEQ_clean_linker_1, # of connection points: 2
#     Edge 21, Type (0, 0), BuildingBlock: KIFKEQ_clean_linker_1, # of connection points: 2
#     Edge 22, Type (0, 0), BuildingBlock: KIFKEQ_clean_linker_1, # of connection points: 2
#     Edge 23, Type (0, 0), BuildingBlock: KIFKEQ_clean_linker_1, # of connection points: 2
#     Edge 24, Type (0, 0), BuildingBlock: KIFKEQ_clean_linker_1, # of connection points: 2
#     Edge 25, Type (0, 0), BuildingBlock: KIFKEQ_clean_linker_1, # of connection points: 2
#     Edge 26, Type (0, 0), BuildingBlock: KIFKEQ_clean_linker_1, # of connection points: 2
#     Edge 27, Type (0, 0), BuildingBlock: KIFKEQ_clean_linker_1, # of connection points: 2
#     Edge 28, Type (0, 0), BuildingBlock: KIFKEQ_clean_linker_1, # of connection points: 2
#     Edge 29, Type (0, 0), BuildingBlock: KIFKEQ_clean_linker_1, # of connection points: 2
#     Edge 30, Type (0, 0), BuildingBlock: KIFKEQ_clean_linker_1, # of connection points: 2
#     Edge 31, Type (0, 0), BuildingBlock: KIFKEQ_clean_linker_1, # of connection points: 2
#     Edge 32, Type (0, 0), BuildingBlock: KIFKEQ_clean_linker_1, # of connection points: 2
#     Edge 33, Type (0, 0), BuildingBlock: KIFKEQ_clean_linker_1, # of connection points: 2
#     Edge 34, Type (0, 0), BuildingBlock: KIFKEQ_clean_linker_1, # of connection points: 2
#     Edge 35, Type (0, 0), BuildingBlock: KIFKEQ_clean_linker_1, # of connection points: 2
#     Edge 36, Type (0, 0), BuildingBlock: KIFKEQ_clean_linker_1, # of connection points: 2
#     Edge 37, Type (0, 0), BuildingBlock: KIFKEQ_clean_linker_1, # of connection points: 2
#     Edge 38, Type (0, 0), BuildingBlock: KIFKEQ_clean_linker_1, # of connection points: 2
#     Edge 39, Type (0, 0), BuildingBlock: KIFKEQ_clean_linker_1, # of connection points: 2
#     Edge 40, Type (0, 0), BuildingBlock: KIFKEQ_clean_linker_1, # of connection points: 2
#     Edge 41, Type (0, 0), BuildingBlock: KIFKEQ_clean_linker_1, # of connection points: 2
#     Edge 42, Type (0, 0), BuildingBlock: KIFKEQ_clean_linker_1, # of connection points: 2
#     Edge 43, Type (0, 0), BuildingBlock: KIFKEQ_clean_linker_1, # of connection points: 2
#     Edge 44, Type (0, 0), BuildingBlock: KIFKEQ_clean_linker_1, # of connection points: 2
#     Edge 45, Type (0, 0), BuildingBlock: KIFKEQ_clean_linker_1, # of connection points: 2
#     Edge 46, Type (0, 0), BuildingBlock: KIFKEQ_clean_linker_1, # of connection points: 2
#     Edge 47, Type (0, 0), BuildingBlock: KIFKEQ_clean_linker_1, # of connection points: 2
# Relax obj value: 0.065
# Max RMSD: 0.090
# Mean RMSD: 0.089
data_MOF--net-cag--node1-UXUYUI_clean_sbu_0--edge1-KIFKEQ_clean_linker_1
_symmetry_space_group_name_H-M    P1
_symmetry_Int_Tables_number       1
_symmetry_cell_setting            triclinic
loop_
_symmetry_equiv_pos_as_xyz
'x, y, z'
_cell_length_a     62.107753
_cell_length_b     73.455567
_cell_length_c     64.559668
_cell_angle_alpha  89.978757
_cell_angle_beta   89.976758
_cell_angle_gamma 90.006729
loop_
_atom_site_label
_atom_site_type_symbol
_atom_site_fract_x
_atom_site_fract_y
_atom_site_fract_z
_atom_type_partial_charge
Li0 Li 0.31543 0.15182 0.08015 0.0
Li1 Li 0.34806 0.13879 0.09574 0.0
Li2 Li 0.31968 0.11812 0.08223 0.0
Li3 Li 0.31483 0.13519 0.11485 0.0
C4 C 0.33626 0.13505 0.04576 0.0
N5 N 0.33347 0.13225 1.00318 0.0
C6 C 0.35457 0.1376 0.03351 0.0
C7 C 0.31658 0.13096 0.03639 0.0
C8 C 0.35281 0.13617 0.012 0.0
C9 C 0.31548 0.12962 0.01484 0.0
C10 C 0.34473 0.17049 0.1131 0.0
C11 C 0.37144 0.18032 0.13774 0.0
N12 N 0.37719 0.19405 0.12471 0.0
C13 C 0.35079 0.18473 0.09999 0.0
C14 C 0.35502 0.16829 0.13217 0.0
C15 C 0.36727 0.19649 0.10613 0.0
C16 C 0.2856 0.17992 0.07211 0.0
N17 N 0.30369 0.17175 0.06477 0.0
C18 C 0.30479 0.19227 0.03601 0.0
C19 C 0.31348 0.17776 0.04722 0.0
C20 C 0.28604 0.20103 0.04312 0.0
C21 C 0.27651 0.19466 0.06155 0.0
H22 H 0.27829 0.17502 0.08627 0.0
H23 H 0.32812 0.17137 0.04189 0.0
C24 C 0.3901 0.13229 0.11154 0.0
N25 N 0.37854 0.14202 0.09751 0.0
C26 C 0.41248 0.13394 0.11235 0.0
C27 C 0.41071 0.15562 0.08425 0.0
C28 C 0.38834 0.15356 0.08401 0.0
C29 C 0.42312 0.14564 0.09849 0.0
H30 H 0.38201 0.12297 0.12185 0.0
H31 H 0.37875 0.16106 0.07292 0.0
C32 C 0.27428 0.12754 0.08678 0.0
N33 N 0.23266 0.11617 0.07889 0.0
C34 C 0.26385 0.11578 0.10053 0.0
C35 C 0.26341 0.13374 0.06917 0.0
C36 C 0.24284 0.11012 0.09622 0.0
C37 C 0.24242 0.12777 0.06541 0.0
C38 C 0.33709 0.10438 0.12449 0.0
C39 C 0.32896 0.08674 0.12232 0.0
C40 C 0.34559 0.10992 0.14353 0.0
C41 C 0.32934 0.07495 0.1393 0.0
C42 C 0.34565 0.09774 0.16014 0.0
N43 N 0.33759 0.08065 0.15771 0.0
C44 C 0.33328 0.08981 0.0569 0.0
C45 C 0.29716 0.08586 0.06771 0.0
C46 C 0.33255 0.07364 0.0456 0.0
N47 N 0.31573 0.09567 0.06755 0.0
C48 C 0.29575 0.06948 0.05674 0.0
C49 C 0.31362 0.06313 0.04545 0.0
H50 H 0.34793 0.09777 0.05716 0.0
H51 H 0.28349 0.09055 0.07649 0.0
C52 C 0.29977 0.15147 0.15177 0.0
N53 N 0.30173 0.13521 0.14189 0.0
C54 C 0.29078 0.15237 0.17161 0.0
C55 C 0.28604 0.11977 0.17086 0.0
C56 C 0.29476 0.11955 0.15092 0.0
C57 C 0.2839 0.13634 0.18159 0.0
H58 H 0.30516 0.16379 0.14419 0.0
H59 H 0.29617 0.10677 0.14278 0.0
O60 O 0.33776 0.13635 0.06685 0.0
O61 O 0.32905 0.15855 0.10711 0.0
O62 O 0.29474 0.13346 0.0909 0.0
O63 O 0.33686 0.11608 0.10802 0.0
H64 H 0.36996 0.14067 0.04055 0.0
H65 H 0.30238 0.12868 0.04567 0.0
H66 H 0.36683 0.13815 1.00231 0.0
H67 H 0.30035 0.12646 0.00738 0.0
H68 H 0.37965 0.17873 0.15241 0.0
H69 H 0.343 0.18656 0.08514 0.0
H70 H 0.35048 0.15732 0.14248 0.0
H71 H 0.37223 0.20752 0.0961 0.0
H72 H 0.31265 0.19642 0.02181 0.0
H73 H 0.26235 0.20113 0.06796 0.0
H74 H 0.42139 0.12574 0.12334 0.0
H75 H 0.4182 0.16492 0.0734 0.0
H76 H 0.27196 0.11086 0.11421 0.0
H77 H 0.27103 0.14313 0.05855 0.0
H78 H 0.23465 0.1009 0.10665 0.0
H79 H 0.23386 0.13241 0.05181 0.0
H80 H 0.32238 0.0822 0.1077 0.0
H81 H 0.35177 0.12357 0.14554 0.0
H82 H 0.32306 0.06127 0.13786 0.0
H83 H 0.35204 0.10188 0.175 0.0
H84 H 0.34665 0.06953 0.03691 0.0
H85 H 0.28093 0.06174 0.0574 0.0
H86 H 0.28909 0.16555 0.17892 0.0
H87 H 0.28135 0.10697 0.17785 0.0
Li88 Li 0.18674 0.89083 0.58032 0.0
Li89 Li 0.19155 0.87432 0.61335 0.0
Li90 Li 0.19112 0.85717 0.57909 0.0
Li91 Li 0.1583 0.87022 0.5943 0.0
C92 C 0.23164 0.88272 0.58435 0.0
N93 N 0.27189 0.89625 0.57444 0.0
C94 C 0.24237 0.8943 0.59806 0.0
C95 C 0.24159 0.87774 0.56576 0.0
C96 C 0.26265 0.90108 0.59273 0.0
C97 C 0.26188 0.8848 0.56098 0.0
C98 C 0.16888 0.90481 0.62265 0.0
C99 C 0.15998 0.91109 0.65832 0.0
N100 N 0.16783 0.92827 0.6561 0.0
C101 C 0.17676 0.92256 0.62069 0.0
C102 C 0.16031 0.89905 0.64158 0.0
C103 C 0.17611 0.9342 0.63779 0.0
C104 C 0.17489 0.9175 0.55161 0.0
N105 N 0.19069 0.91322 0.56534 0.0
C106 C 0.20906 0.94109 0.55764 0.0
C107 C 0.20756 0.92468 0.56858 0.0
C108 C 0.19306 0.94576 0.54315 0.0
C109 C 0.17589 0.93357 0.54015 0.0
H110 H 0.16136 0.90842 0.54961 0.0
H111 H 0.21959 0.92138 0.58002 0.0
C112 C 0.20575 0.85861 0.65083 0.0
N113 N 0.20435 0.87471 0.64051 0.0
C114 C 0.21425 0.85796 0.67087 0.0
C115 C 0.21985 0.89047 0.66934 0.0
C116 C 0.21151 0.89045 0.64924 0.0
C117 C 0.22124 0.87408 0.68045 0.0
H118 H 0.20012 0.84624 0.64355 0.0
H119 H 0.21058 0.90307 0.64071 0.0
C120 C 0.17 0.87127 0.54423 0.0
N121 N 0.17248 0.86902 0.50157 0.0
C122 C 0.15231 0.8652 0.53279 0.0
C123 C 0.18886 0.87637 0.53397 0.0
C124 C 0.1539 0.8641 0.51124 0.0
C125 C 0.18983 0.8751 0.5124 0.0
C126 C 0.16192 0.83887 0.61274 0.0
C127 C 0.15596 0.82415 0.6003 0.0
C128 C 0.15179 0.84153 0.63183 0.0
C129 C 0.13972 0.81241 0.60709 0.0
C130 C 0.13561 0.8295 0.63805 0.0
N131 N 0.12994 0.81533 0.62565 0.0
C132 C 0.2232 0.8314 0.56837 0.0
C133 C 0.19081 0.82866 0.54925 0.0
C134 C 0.23225 0.81678 0.55757 0.0
N135 N 0.2029 0.83712 0.56394 0.0
C136 C 0.19926 0.81408 0.53799 0.0
C137 C 0.22027 0.80796 0.54206 0.0
H138 H 0.23239 0.83824 0.58028 0.0
H139 H 0.1745 0.83308 0.54641 0.0
C140 C 0.11626 0.87764 0.60936 0.0
N141 N 0.12782 0.86699 0.59623 0.0
C142 C 0.09388 0.87606 0.61032 0.0
C143 C 0.09563 0.85263 0.58411 0.0
C144 C 0.11802 0.85459 0.58376 0.0
C145 C 0.08325 0.86353 0.59746 0.0
H146 H 0.12433 0.88763 0.61882 0.0
H147 H 0.12759 0.84633 0.57341 0.0
O148 O 0.21187 0.87577 0.58946 0.0
O149 O 0.16945 0.89322 0.60607 0.0
O150 O 0.16877 0.87226 0.56537 0.0
O151 O 0.1774 0.85077 0.60613 0.0
H152 H 0.23504 0.89821 0.61255 0.0
H153 H 0.23385 0.86841 0.55517 0.0
H154 H 0.27103 0.91019 0.60313 0.0
H155 H 0.26971 0.88111 0.54662 0.0
H156 H 0.15353 0.90677 0.67309 0.0
H157 H 0.18332 0.92729 0.60615 0.0
H158 H 0.15421 0.88536 0.64341 0.0
H159 H 0.18221 0.94795 0.63651 0.0
H160 H 0.22237 0.95017 0.56087 0.0
H161 H 0.16329 0.93634 0.529 0.0
H162 H 0.21496 0.84504 0.67894 0.0
H163 H 0.22533 0.90316 0.67605 0.0
H164 H 0.13752 0.86132 0.54046 0.0
H165 H 0.20249 0.88146 0.54254 0.0
H166 H 0.14036 0.85935 0.50219 0.0
H167 H 0.20434 0.87901 0.50427 0.0
H168 H 0.16364 0.82192 0.58548 0.0
H169 H 0.15631 0.8528 0.64168 0.0
H170 H 0.13484 0.80102 0.59757 0.0
H171 H 0.12754 0.83145 0.65274 0.0
H172 H 0.24854 0.81256 0.56115 0.0
H173 H 0.18931 0.80746 0.52646 0.0
H174 H 0.08494 0.88493 0.6206 0.0
H175 H 0.0881 0.8427 0.57405 0.0
Li176 Li 0.31181 0.87318 0.89326 0.0
Li177 Li 0.31667 0.8909 0.92588 0.0
Li178 Li 0.34387 0.8703 0.91394 0.0
Li179 Li 0.31119 0.85811 0.92724 0.0
C180 C 0.35135 0.89802 0.88984 0.0
N181 N 0.38944 0.90807 0.87089 0.0
C182 C 0.36357 0.91235 0.89785 0.0
C183 C 0.35842 0.88888 0.8721 0.0
C184 C 0.38281 0.9172 0.88808 0.0
C185 C 0.37773 0.89416 0.86276 0.0
C186 C 0.27413 0.88757 0.9103 0.0
C187 C 0.23629 0.89488 0.90966 0.0
N188 N 0.24057 0.90945 0.89732 0.0
C189 C 0.27816 0.90261 0.89759 0.0
C190 C 0.25304 0.88363 0.91636 0.0
C191 C 0.26097 0.9135 0.8912 0.0
C192 C 0.2857 0.8599 0.86067 0.0
N193 N 0.29965 0.87334 0.86607 0.0
C194 C 0.29612 0.8871 0.83266 0.0
C195 C 0.30481 0.88689 0.85261 0.0
C196 C 0.28167 0.87337 0.82651 0.0
C197 C 0.27643 0.85968 0.84092 0.0
H198 H 0.28171 0.84939 0.87178 0.0
H199 H 0.3157 0.89758 0.85736 0.0
C200 C 0.33142 0.92022 0.9487 0.0
N201 N 0.31295 0.91344 0.94049 0.0
C202 C 0.3312 0.93639 0.96003 0.0
C203 C 0.29279 0.93827 0.95466 0.0
C204 C 0.29374 0.92193 0.94356 0.0
C205 C 0.31173 0.94579 0.96302 0.0
H206 H 0.34637 0.9129 0.94662 0.0
H207 H 0.27908 0.91608 0.93758 0.0
C208 C 0.33543 0.83361 0.90466 0.0
N209 N 0.35303 0.79952 0.91104 0.0
C210 C 0.34788 0.83019 0.92227 0.0
C211 C 0.33193 0.8197 0.8903 0.0
C212 C 0.35664 0.81287 0.92521 0.0
C213 C 0.34097 0.80255 0.8938 0.0
C214 C 0.32698 0.87458 0.96271 0.0
C215 C 0.34259 0.87395 0.97827 0.0
C216 C 0.30536 0.87711 0.96803 0.0
C217 C 0.33631 0.87582 0.99894 0.0
C218 C 0.29973 0.87893 0.98888 0.0
N219 N 0.31519 0.87825 1.00377 0.0
C220 C 0.38612 0.87667 0.92729 0.0
C221 C 0.3842 0.85723 0.89805 0.0
C222 C 0.40856 0.8758 0.92714 0.0
N223 N 0.37447 0.86749 0.91288 0.0
C224 C 0.40664 0.85599 0.89731 0.0
C225 C 0.41915 0.86538 0.91199 0.0
H226 H 0.37792 0.88488 0.93875 0.0
H227 H 0.37454 0.85016 0.88668 0.0
C228 C 0.27915 0.83177 0.93638 0.0
N229 N 0.29855 0.83844 0.9425 0.0
C230 C 0.2697 0.8172 0.947 0.0
C231 C 0.30031 0.81674 0.97009 0.0
C232 C 0.30922 0.83118 0.95895 0.0
C233 C 0.28029 0.80953 0.96415 0.0
H234 H 0.27106 0.83775 0.92319 0.0
H235 H 0.32477 0.8365 0.96337 0.0
O236 O 0.33277 0.89271 0.8995 0.0
O237 O 0.29059 0.87648 0.91653 0.0
O238 O 0.32653 0.85041 0.90143 0.0
O239 O 0.33305 0.87286 0.94242 0.0
H240 H 0.35832 0.91962 0.9115 0.0
H241 H 0.34929 0.8776 0.86585 0.0
H242 H 0.39248 0.92821 0.89417 0.0
H243 H 0.38348 0.88711 0.84913 0.0
H244 H 0.21988 0.89201 0.91425 0.0
H245 H 0.29437 0.90594 0.89283 0.0
H246 H 0.24966 0.87199 0.92613 0.0
H247 H 0.26386 0.9252 0.88139 0.0
H248 H 0.30093 0.89782 0.82212 0.0
H249 H 0.2651 0.84899 0.83712 0.0
H250 H 0.34613 0.94131 0.96663 0.0
H251 H 0.2774 0.94499 0.95649 0.0
H252 H 0.35078 0.84077 0.93357 0.0
H253 H 0.32229 0.82214 0.8766 0.0
H254 H 0.36629 0.81003 0.93878 0.0
H255 H 0.33838 0.79166 0.88281 0.0
H256 H 0.3594 0.87203 0.97439 0.0
H257 H 0.29301 0.87767 0.95626 0.0
H258 H 0.34823 0.87535 0.01114 0.0
H259 H 0.28306 0.8809 0.99321 0.0
H260 H 0.41754 0.88349 0.93856 0.0
H261 H 0.4141 0.84767 0.88547 0.0
H262 H 0.25419 0.81213 0.94198 0.0
H263 H 0.30919 0.81106 0.983 0.0
Li264 Li 0.19375 0.1517 0.42783 0.0
Li265 Li 0.16033 0.13983 0.41456 0.0
Li266 Li 0.18856 0.11915 0.42609 0.0
Li267 Li 0.19298 0.13648 0.39438 0.0
C268 C 0.17741 0.13477 0.46326 0.0
N269 N 0.18825 0.13015 0.50443 0.0
C270 C 0.16134 0.13414 0.47839 0.0
C271 C 0.199 0.13303 0.46905 0.0
C272 C 0.16715 0.13181 0.49913 0.0
C273 C 0.20415 0.13071 0.48994 0.0
C274 C 0.16939 0.17627 0.4054 0.0
C275 C 0.16378 0.20735 0.39463 0.0
N276 N 0.15173 0.21031 0.4119 0.0
C277 C 0.15695 0.17961 0.42304 0.0
C278 C 0.17286 0.19023 0.39107 0.0
C279 C 0.14816 0.19691 0.42605 0.0
C280 C 0.22547 0.17831 0.43681 0.0
N281 N 0.20625 0.17139 0.44314 0.0
C282 C 0.20453 0.19293 0.47088 0.0
C283 C 0.19568 0.17845 0.45976 0.0
C284 C 0.22435 0.20038 0.46474 0.0
C285 C 0.23483 0.19292 0.4474 0.0
H286 H 0.23347 0.17249 0.42347 0.0
H287 H 0.18027 0.17293 0.46434 0.0
C288 C 0.11836 0.13138 0.42641 0.0
N289 N 0.12977 0.14216 0.41329 0.0
C290 C 0.09589 0.13146 0.42592 0.0
C291 C 0.09728 0.15387 0.39852 0.0
C292 C 0.11977 0.1533 0.39947 0.0
C293 C 0.08504 0.14274 0.41178 0.0
H294 H 0.12678 0.12258 0.43712 0.0
H295 H 0.12922 0.16154 0.38898 0.0
C296 C 0.23033 0.12178 0.41043 0.0
N297 N 0.26247 0.09875 0.39669 0.0
C298 C 0.22506 0.10568 0.40005 0.0
C299 C 0.25193 0.12616 0.41381 0.0
C300 C 0.24154 0.09422 0.39322 0.0
C301 C 0.26795 0.11434 0.40676 0.0
C302 C 0.15779 0.11354 0.38436 0.0
C303 C 0.14921 0.09605 0.38234 0.0
C304 C 0.15248 0.12696 0.36988 0.0
C305 C 0.1355 0.09223 0.36575 0.0
C306 C 0.1387 0.1226 0.35351 0.0
N307 N 0.13057 0.10548 0.35181 0.0
C308 C 0.17424 0.0865 0.44273 0.0
C309 C 0.2117 0.09072 0.44767 0.0
C310 C 0.17489 0.07001 0.45345 0.0
N311 N 0.19246 0.09644 0.44001 0.0
C312 C 0.21315 0.07416 0.4583 0.0
C313 C 0.19456 0.06353 0.46138 0.0
H314 H 0.1591 0.09157 0.43679 0.0
H315 H 0.22591 0.09903 0.44569 0.0
C316 C 0.21611 0.15126 0.36065 0.0
N317 N 0.20515 0.13625 0.36707 0.0
C318 C 0.22514 0.15187 0.3408 0.0
C319 C 0.21137 0.1216 0.33452 0.0
C320 C 0.20294 0.12145 0.35458 0.0
C321 C 0.22259 0.13696 0.3274 0.0
H322 H 0.21775 0.16279 0.37095 0.0
H323 H 0.19461 0.1095 0.36014 0.0
O324 O 0.17186 0.1369 0.4429 0.0
O325 O 0.17835 0.15951 0.40212 0.0
O326 O 0.21455 0.13335 0.41717 0.0
O327 O 0.17098 0.11751 0.4007 0.0
H328 H 0.14455 0.13543 0.47414 0.0
H329 H 0.21168 0.13346 0.45758 0.0
H330 H 0.15488 0.1313 0.51101 0.0
H331 H 0.22079 0.12934 0.49464 0.0
H332 H 0.16634 0.21828 0.38368 0.0
H333 H 0.15407 0.16899 0.4343 0.0
H334 H 0.18249 0.18784 0.37736 0.0
H335 H 0.1385 0.19969 0.43963 0.0
H336 H 0.19574 0.19844 0.48394 0.0
H337 H 0.25021 0.19818 0.44222 0.0
H338 H 0.08711 0.12282 0.43658 0.0
H339 H 0.08958 0.1626 0.38722 0.0
H340 H 0.20845 0.102 0.39734 0.0
H341 H 0.25626 0.13859 0.4218 0.0
H342 H 0.23769 0.08172 0.38518 0.0
H343 H 0.28475 0.11755 0.40927 0.0
H344 H 0.15311 0.08555 0.3935 0.0
H345 H 0.1589 0.14059 0.37125 0.0
H346 H 0.12874 0.07875 0.36398 0.0
H347 H 0.13446 0.13285 0.34219 0.0
H348 H 0.16001 0.06262 0.45582 0.0
H349 H 0.22871 0.06973 0.46392 0.0
H350 H 0.23367 0.16397 0.33584 0.0
H351 H 0.20933 0.10975 0.32474 0.0
Li352 Li 0.68617 0.89185 0.9291 0.0
Li353 Li 0.69049 0.85854 0.92986 0.0
Li354 Li 0.69022 0.87548 0.89551 0.0
Li355 Li 0.6572 0.87088 0.91616 0.0
C356 C 0.73059 0.88541 0.92148 0.0
N357 N 0.7703 0.90188 0.92626 0.0
C358 C 0.74313 0.88174 0.93896 0.0
C359 C 0.73847 0.89716 0.90621 0.0
C360 C 0.76309 0.89029 0.94117 0.0
C361 C 0.75852 0.90543 0.90897 0.0
C362 C 0.66763 0.86648 0.96408 0.0
C363 C 0.65783 0.84201 0.98716 0.0
N364 N 0.66603 0.85159 1.00336 0.0
C365 C 0.67581 0.87614 0.98098 0.0
C366 C 0.65842 0.84933 0.96719 0.0
C367 C 0.67489 0.86836 1.00071 0.0
C368 C 0.67579 0.92767 0.94057 0.0
N369 N 0.69062 0.91434 0.94369 0.0
C370 C 0.70862 0.93269 0.96899 0.0
C371 C 0.70685 0.91655 0.9576 0.0
C372 C 0.69352 0.94675 0.96604 0.0
C373 C 0.6771 0.94408 0.95137 0.0
H374 H 0.66265 0.92547 0.9299 0.0
H375 H 0.71799 0.90556 0.96045 0.0
C376 C 0.70264 0.82175 0.93563 0.0
N377 N 0.70305 0.83847 0.94462 0.0
C378 C 0.71085 0.80659 0.94609 0.0
C379 C 0.7199 0.82613 0.97487 0.0
C380 C 0.71173 0.84093 0.96375 0.0
C381 C 0.71949 0.8086 0.96611 0.0
H382 H 0.6959 0.82015 0.9203 0.0
H383 H 0.71203 0.85435 0.97057 0.0
C384 C 0.66745 0.90886 0.89124 0.0
N385 N 0.66617 0.93943 0.86632 0.0
C386 C 0.6489 0.91293 0.8799 0.0
C387 C 0.68525 0.92046 0.8901 0.0
C388 C 0.6486 0.92841 0.86733 0.0
C389 C 0.68431 0.93582 0.87737 0.0
C390 C 0.66131 0.8409 0.89398 0.0
C391 C 0.65721 0.8425 0.87277 0.0
C392 C 0.65006 0.82801 0.90568 0.0
C393 C 0.64167 0.83134 0.86366 0.0
C394 C 0.63462 0.81712 0.896 0.0
N395 N 0.63076 0.819 0.87537 0.0
C396 C 0.72122 0.86793 0.86459 0.0
C397 C 0.69099 0.88432 0.85232 0.0
C398 C 0.73019 0.86765 0.84471 0.0
N399 N 0.702 0.87624 0.86804 0.0
C400 C 0.69946 0.88455 0.83227 0.0
C401 C 0.7193 0.87606 0.82814 0.0
H402 H 0.72951 0.86136 0.8773 0.0
H403 H 0.67548 0.8904 0.85521 0.0
C404 C 0.61509 0.86593 0.93193 0.0
N405 N 0.62668 0.86793 0.91422 0.0
C406 C 0.5927 0.86436 0.93115 0.0
C407 C 0.5945 0.86708 0.89389 0.0
C408 C 0.61689 0.86859 0.8954 0.0
C409 C 0.58208 0.86498 0.91194 0.0
H410 H 0.62315 0.86587 0.94673 0.0
H411 H 0.62644 0.87046 0.88157 0.0
O412 O 0.71109 0.877 0.91898 0.0
O413 O 0.66858 0.87382 0.94461 0.0
O414 O 0.66804 0.89369 0.90352 0.0
O415 O 0.67622 0.85191 0.90324 0.0
H416 H 0.73743 0.87251 0.95079 0.0
H417 H 0.72933 0.89975 0.89228 0.0
H418 H 0.77286 0.88769 0.95472 0.0
H419 H 0.76476 0.91461 0.89732 0.0
H420 H 0.65088 0.8287 0.98976 0.0
H421 H 0.68285 0.88947 0.9789 0.0
H422 H 0.65194 0.84171 0.95431 0.0
H423 H 0.68125 0.87565 0.01392 0.0
H424 H 0.72129 0.93388 0.98042 0.0
H425 H 0.66522 0.95452 0.94828 0.0
H426 H 0.71055 0.79348 0.93845 0.0
H427 H 0.7261 0.82841 0.99032 0.0
H428 H 0.63491 0.90419 0.88073 0.0
H429 H 0.6995 0.91777 0.89916 0.0
H430 H 0.63439 0.93168 0.85838 0.0
H431 H 0.69798 0.9449 0.87634 0.0
H432 H 0.6658 0.85237 0.86348 0.0
H433 H 0.65317 0.82648 0.92206 0.0
H434 H 0.63824 0.83251 0.84729 0.0
H435 H 0.6257 0.80716 0.90489 0.0
H436 H 0.74529 0.8606 0.84233 0.0
H437 H 0.69051 0.89141 0.82019 0.0
H438 H 0.58378 0.86314 0.94549 0.0
H439 H 0.58703 0.86751 0.87874 0.0
Li440 Li 0.81301 0.15022 0.42995 0.0
Li441 Li 0.8179 0.11731 0.4291 0.0
Li442 Li 0.84654 0.13799 0.41636 0.0
Li443 Li 0.8134 0.13398 0.39608 0.0
C444 C 0.83994 0.1437 0.46296 0.0
N445 N 0.84969 0.16085 0.49987 0.0
C446 C 0.83505 0.1353 0.48183 0.0
C447 C 0.84997 0.16073 0.46289 0.0
C448 C 0.84006 0.14422 0.50032 0.0
C449 C 0.85472 0.1692 0.4817 0.0
C450 C 0.77489 0.13016 0.4324 0.0
C451 C 0.73654 0.13124 0.43812 0.0
N452 N 0.73982 0.12798 0.45862 0.0
C453 C 0.77787 0.12679 0.4535 0.0
C454 C 0.75407 0.13238 0.42461 0.0
C455 C 0.75995 0.12575 0.46651 0.0
C456 C 0.79624 0.18587 0.43399 0.0
N457 N 0.80034 0.17032 0.44474 0.0
C458 C 0.78759 0.18406 0.47604 0.0
C459 C 0.79586 0.16911 0.46533 0.0
C460 C 0.78351 0.20038 0.46543 0.0
C461 C 0.78772 0.20112 0.44406 0.0
H462 H 0.79975 0.18648 0.4176 0.0
H463 H 0.79879 0.15658 0.47357 0.0
C464 C 0.83031 0.08914 0.45549 0.0
N465 N 0.81376 0.09473 0.44328 0.0
C466 C 0.82877 0.07294 0.46669 0.0
C467 C 0.79331 0.06826 0.45225 0.0
C468 C 0.7955 0.08464 0.44137 0.0
C469 C 0.81005 0.06226 0.46524 0.0
H470 H 0.84473 0.09735 0.45653 0.0
H471 H 0.7826 0.08934 0.43147 0.0
C472 C 0.84062 0.16953 0.39436 0.0
N473 N 0.86671 0.19479 0.37493 0.0
C474 C 0.84576 0.16755 0.3734 0.0
C475 C 0.84846 0.18453 0.40534 0.0
C476 C 0.85906 0.18041 0.36388 0.0
C477 C 0.8617 0.1971 0.39527 0.0
C478 C 0.83129 0.09897 0.39386 0.0
C479 C 0.84822 0.0877 0.38766 0.0
C480 C 0.81002 0.09338 0.39072 0.0
C481 C 0.84358 0.07099 0.37835 0.0
C482 C 0.80605 0.07657 0.38137 0.0
N483 N 0.82277 0.06581 0.37543 0.0
C484 C 0.88891 0.13931 0.43231 0.0
C485 C 0.88706 0.1422 0.39583 0.0
C486 C 0.91134 0.14016 0.43173 0.0
N487 N 0.87722 0.14054 0.41456 0.0
C488 C 0.90953 0.14311 0.39452 0.0
C489 C 0.922 0.14199 0.41265 0.0
H490 H 0.8809 0.13728 0.44695 0.0
H491 H 0.87753 0.14237 0.38184 0.0
C492 C 0.78226 0.14111 0.36506 0.0
N493 N 0.80184 0.13345 0.3686 0.0
C494 C 0.77355 0.1413 0.34508 0.0
C495 C 0.80529 0.12567 0.33276 0.0
C496 C 0.81341 0.12584 0.35295 0.0
C497 C 0.78511 0.1335 0.32857 0.0
H498 H 0.77346 0.14717 0.37777 0.0
H499 H 0.8291 0.12008 0.3561 0.0
O500 O 0.83497 0.13525 0.44469 0.0
O501 O 0.7922 0.13127 0.41934 0.0
O502 O 0.82754 0.15712 0.40392 0.0
O503 O 0.83562 0.11531 0.40312 0.0
H504 H 0.82732 0.1221 0.48219 0.0
H505 H 0.8541 0.16728 0.44844 0.0
H506 H 0.83627 0.13792 0.51503 0.0
H507 H 0.86242 0.18241 0.48185 0.0
H508 H 0.72033 0.13295 0.43231 0.0
H509 H 0.79385 0.12502 0.45978 0.0
H510 H 0.75148 0.13495 0.40829 0.0
H511 H 0.76204 0.12318 0.48289 0.0
H512 H 0.78424 0.18281 0.49245 0.0
H513 H 0.78485 0.21347 0.43531 0.0
H514 H 0.84223 0.06871 0.4762 0.0
H515 H 0.77854 0.06053 0.45077 0.0
H516 H 0.83973 0.15611 0.36463 0.0
H517 H 0.84422 0.18654 0.42142 0.0
H518 H 0.8633 0.17896 0.34771 0.0
H519 H 0.86794 0.20873 0.4036 0.0
H520 H 0.86477 0.09184 0.39002 0.0
H521 H 0.7967 0.10192 0.39543 0.0
H522 H 0.85652 0.06212 0.37346 0.0
H523 H 0.78967 0.07208 0.37885 0.0
H524 H 0.92023 0.13932 0.44612 0.0
H525 H 0.91705 0.14413 0.37943 0.0
H526 H 0.75785 0.14733 0.34264 0.0
H527 H 0.81493 0.11976 0.3205 0.0
Li528 Li 0.66131 0.13981 0.09694 0.0
Li529 Li 0.69459 0.13624 0.11575 0.0
Li530 Li 0.69417 0.15254 0.08291 0.0
Li531 Li 0.68935 0.11979 0.0837 0.0
C532 C 0.67046 0.16637 0.12674 0.0
N533 N 0.6526 0.18031 0.16259 0.0
C534 C 0.65765 0.15535 0.13939 0.0
C535 C 0.67417 0.18447 0.13231 0.0
C536 C 0.64877 0.16265 0.15745 0.0
C537 C 0.665 0.19127 0.15049 0.0
C538 C 0.67786 0.1011 0.11895 0.0
C539 C 0.70437 0.07909 0.12981 0.0
N540 N 0.68836 0.06834 0.13739 0.0
C541 C 0.66168 0.08984 0.12682 0.0
C542 C 0.6994 0.0957 0.12044 0.0
C543 C 0.66732 0.07333 0.1361 0.0
C544 C 0.61905 0.12686 0.09606 0.0
N545 N 0.63077 0.14233 0.09844 0.0
C546 C 0.59864 0.1601 0.10125 0.0
C547 C 0.62109 0.15878 0.10101 0.0
C548 C 0.58606 0.14434 0.09869 0.0
C549 C 0.59658 0.12754 0.09615 0.0
H550 H 0.62721 0.11398 0.09394 0.0
H551 H 0.63079 0.17093 0.10263 0.0
C552 C 0.72658 0.14311 0.14623 0.0
N553 N 0.70691 0.13549 0.14301 0.0
C554 C 0.73579 0.143 0.16602 0.0
C555 C 0.70437 0.12719 0.17878 0.0
C556 C 0.69575 0.12765 0.15881 0.0
C557 C 0.72467 0.13493 0.18264 0.0
H558 H 0.73509 0.1493 0.13341 0.0
H559 H 0.68005 0.12184 0.15597 0.0
C560 C 0.65939 0.14799 0.05535 0.0
N561 N 0.63329 0.16837 0.02961 0.0
C562 C 0.65098 0.14029 0.0373 0.0
C563 C 0.6545 0.16604 0.06035 0.0
C564 C 0.63783 0.15082 0.02448 0.0
C565 C 0.64128 0.17612 0.04713 0.0
C566 C 0.73144 0.13245 0.07798 0.0
C567 C 0.72643 0.1308 0.05696 0.0
C568 C 0.75298 0.1328 0.08421 0.0
C569 C 0.74309 0.12952 0.0425 0.0
C570 C 0.76919 0.13148 0.06927 0.0
N571 N 0.76395 0.12988 0.0489 0.0
C572 C 0.71564 0.18632 0.07821 0.0
C573 C 0.7057 0.17243 0.04652 0.0
C574 C 0.7245 0.20116 0.06761 0.0
N575 N 0.70641 0.17239 0.06758 0.0
C576 C 0.71421 0.18702 0.03532 0.0
C577 C 0.72379 0.20171 0.04582 0.0
H578 H 0.71613 0.18588 0.09495 0.0
H579 H 0.69838 0.16118 0.03836 0.0
C580 C 0.6749 0.0903 0.06074 0.0
N581 N 0.69306 0.09721 0.06944 0.0
C582 C 0.67547 0.07369 0.05026 0.0
C583 C 0.71354 0.07163 0.05768 0.0
C584 C 0.71216 0.0882 0.06829 0.0
C585 C 0.69499 0.06415 0.04858 0.0
H586 H 0.6599 0.09771 0.06205 0.0
H587 H 0.72631 0.09378 0.07569 0.0
O588 O 0.67947 0.15956 0.10902 0.0
O589 O 0.67249 0.11725 0.10974 0.0
O590 O 0.67211 0.13775 0.06812 0.0
O591 O 0.71547 0.13387 0.0925 0.0
H592 H 0.65455 0.14131 0.13534 0.0
H593 H 0.68406 0.19318 0.12267 0.0
H594 H 0.63884 0.15427 0.16739 0.0
H595 H 0.66775 0.20527 0.155 0.0
H596 H 0.72096 0.07474 0.13107 0.0
H597 H 0.64494 0.09383 0.12577 0.0
H598 H 0.71216 0.10421 0.11445 0.0
H599 H 0.65496 0.06447 0.14226 0.0
H600 H 0.59122 0.17335 0.10298 0.0
H601 H 0.58755 0.11503 0.09438 0.0
H602 H 0.75156 0.14899 0.16822 0.0
H603 H 0.69505 0.12108 0.19114 0.0
H604 H 0.65459 0.12632 0.03327 0.0
H605 H 0.66082 0.17222 0.07428 0.0
H606 H 0.63121 0.14505 0.01044 0.0
H607 H 0.63737 0.1901 0.0508 0.0
H608 H 0.70987 0.13042 0.05183 0.0
H609 H 0.75712 0.13409 0.10043 0.0
H610 H 0.73944 0.12822 0.02618 0.0
H611 H 0.78593 0.13172 0.07387 0.0
H612 H 0.732 0.21198 0.07641 0.0
H613 H 0.71296 0.18689 0.0186 0.0
H614 H 0.66085 0.06845 0.04334 0.0
H615 H 0.72884 0.06458 0.05692 0.0
Li616 Li 0.8122 0.87335 0.61593 0.0
Li617 Li 0.84451 0.86943 0.59621 0.0
Li618 Li 0.81676 0.89008 0.58404 0.0
Li619 Li 0.81174 0.85603 0.58169 0.0
C620 C 0.83505 0.90109 0.62786 0.0
N621 N 0.83584 0.91865 0.66572 0.0
C622 C 0.85195 0.89798 0.64172 0.0
C623 C 0.81858 0.91316 0.63326 0.0
C624 C 0.85207 0.907 0.66077 0.0
C625 C 0.81925 0.92188 0.65248 0.0
C626 C 0.83974 0.83646 0.61481 0.0
C627 C 0.85372 0.80594 0.61186 0.0
N628 N 0.86725 0.80927 0.62799 0.0
C629 C 0.85373 0.83956 0.63139 0.0
C630 C 0.83969 0.81952 0.60496 0.0
C631 C 0.86754 0.82565 0.6378 0.0
C632 C 0.77809 0.87637 0.64543 0.0
N633 N 0.7996 0.87356 0.64322 0.0
C634 C 0.80378 0.87112 0.67996 0.0
C635 C 0.8124 0.87076 0.66 0.0
C636 C 0.78159 0.87398 0.68284 0.0
C637 C 0.7687 0.87659 0.66515 0.0
H638 H 0.76815 0.87832 0.63186 0.0
H639 H 0.8294 0.86844 0.65796 0.0
C640 C 0.88709 0.88197 0.60037 0.0
N641 N 0.8754 0.86663 0.59687 0.0
C642 C 0.90955 0.88134 0.60057 0.0
C643 C 0.90771 0.8492 0.59293 0.0
C644 C 0.88527 0.85049 0.59276 0.0
C645 C 0.92021 0.86476 0.59697 0.0
H646 H 0.87894 0.89481 0.60273 0.0
H647 H 0.87578 0.83862 0.58907 0.0
C648 C 0.77487 0.88423 0.58309 0.0
N649 N 0.7426 0.90338 0.56328 0.0
C650 C 0.76645 0.87789 0.56436 0.0
C651 C 0.76675 0.90022 0.59184 0.0
C652 C 0.75016 0.88778 0.55457 0.0
C653 C 0.75048 0.90974 0.58156 0.0
C654 C 0.85122 0.87291 0.55617 0.0
C655 C 0.86109 0.8898 0.55314 0.0
C656 C 0.8609 0.85716 0.54835 0.0
C657 C 0.88057 0.89065 0.54235 0.0
C658 C 0.88039 0.85859 0.53765 0.0
N659 N 0.88974 0.87516 0.53491 0.0
C660 C 0.81797 0.92838 0.57795 0.0
C661 C 0.80361 0.9117 0.54978 0.0
C662 C 0.81581 0.94466 0.56697 0.0
N663 N 0.81181 0.91234 0.5693 0.0
C664 C 0.80111 0.92767 0.53824 0.0
C665 C 0.80737 0.94448 0.54676 0.0
H666 H 0.82512 0.92851 0.59319 0.0
H667 H 0.79932 0.89872 0.54305 0.0
C668 C 0.78483 0.82537 0.576 0.0
N669 N 0.79935 0.83641 0.56648 0.0
C670 C 0.77573 0.8107 0.56532 0.0
C671 C 0.79665 0.81909 0.53524 0.0
C672 C 0.80519 0.83367 0.54644 0.0
C673 C 0.7817 0.80729 0.54465 0.0
H674 H 0.78036 0.82797 0.59193 0.0
H675 H 0.81655 0.84279 0.53915 0.0
O676 O 0.83449 0.89223 0.60921 0.0
O677 O 0.826 0.84985 0.60832 0.0
O678 O 0.79109 0.87491 0.59271 0.0
O679 O 0.8325 0.87175 0.56724 0.0
H680 H 0.86466 0.88847 0.638 0.0
H681 H 0.80531 0.91565 0.62282 0.0
H682 H 0.86499 0.90464 0.67167 0.0
H683 H 0.80655 0.93119 0.65688 0.0
H684 H 0.85389 0.79278 0.60436 0.0
H685 H 0.85431 0.85269 0.63891 0.0
H686 H 0.82899 0.81688 0.59209 0.0
H687 H 0.87857 0.82791 0.6505 0.0
H688 H 0.81453 0.86936 0.693 0.0
H689 H 0.75147 0.87852 0.66644 0.0
H690 H 0.91846 0.89381 0.60316 0.0
H691 H 0.91515 0.83612 0.59005 0.0
H692 H 0.77257 0.86556 0.55734 0.0
H693 H 0.77303 0.90528 0.60636 0.0
H694 H 0.74357 0.88309 0.54001 0.0
H695 H 0.74413 0.92219 0.58809 0.0
H696 H 0.85394 0.90209 0.55927 0.0
H697 H 0.85369 0.84394 0.55089 0.0
H698 H 0.88844 0.90362 0.53997 0.0
H699 H 0.88815 0.84651 0.53165 0.0
H700 H 0.82132 0.9572 0.57402 0.0
H701 H 0.79443 0.92684 0.52278 0.0
H702 H 0.764 0.80225 0.57316 0.0
H703 H 0.80199 0.81696 0.51946 0.0
Li704 Li 0.80881 0.65051 0.07996 0.0
Li705 Li 0.84369 0.6388 0.09335 0.0
Li706 Li 0.81592 0.61833 0.08206 0.0
Li707 Li 0.81086 0.63484 0.1135 0.0
C708 C 0.83066 0.62902 0.04603 0.0
N709 N 0.82836 0.61175 0.00809 0.0
C710 C 0.84913 0.6214 0.03722 0.0
C711 C 0.81105 0.62799 0.03547 0.0
C712 C 0.84762 0.61268 0.01804 0.0
C713 C 0.81021 0.61918 0.01632 0.0
C714 C 0.83263 0.67535 0.10298 0.0
C715 C 0.83835 0.70582 0.11571 0.0
N716 N 0.84821 0.71026 0.09758 0.0
C717 C 0.8428 0.68021 0.08446 0.0
C718 C 0.83033 0.68825 0.11872 0.0
C719 C 0.85057 0.69793 0.08203 0.0
C720 C 0.77994 0.68 0.07437 0.0
N721 N 0.79578 0.67015 0.06511 0.0
C722 C 0.79437 0.68922 0.0351 0.0
C723 C 0.80318 0.67454 0.04592 0.0
C724 C 0.778 0.69968 0.04424 0.0
C725 C 0.77082 0.69495 0.06419 0.0
H726 H 0.77454 0.67632 0.08975 0.0
H727 H 0.81618 0.66681 0.0391 0.0
C728 C 0.88591 0.62786 0.08635 0.0
N729 N 0.8743 0.64167 0.09479 0.0
C730 C 0.90837 0.62827 0.08672 0.0
C731 C 0.90664 0.65694 0.10496 0.0
C732 C 0.88417 0.65591 0.10434 0.0
C733 C 0.9191 0.64304 0.09597 0.0
H734 H 0.87764 0.61638 0.07954 0.0
H735 H 0.87472 0.66643 0.11164 0.0
C736 C 0.77382 0.61946 0.09759 0.0
N737 N 0.74249 0.59571 0.1115 0.0
C738 C 0.77967 0.60318 0.10731 0.0
C739 C 0.75206 0.62366 0.09496 0.0
C740 C 0.76359 0.59136 0.11423 0.0
C741 C 0.73645 0.61147 0.10209 0.0
C742 C 0.84605 0.6135 0.12446 0.0
C743 C 0.8535 0.59599 0.12892 0.0
C744 C 0.85161 0.62797 0.13747 0.0
C745 C 0.86633 0.59321 0.1464 0.0
C746 C 0.86448 0.62464 0.1548 0.0
N747 N 0.87152 0.60747 0.15887 0.0
C748 C 0.83073 0.58524 0.06635 0.0
C749 C 0.79378 0.59019 0.05906 0.0
C750 C 0.83053 0.56909 0.05497 0.0
N751 N 0.81259 0.59549 0.06802 0.0
C752 C 0.79278 0.57396 0.04777 0.0
C753 C 0.81141 0.56331 0.04542 0.0
H754 H 0.8455 0.58988 0.07349 0.0
H755 H 0.77967 0.59876 0.06026 0.0
C756 C 0.78922 0.6497 0.14813 0.0
N757 N 0.799 0.6344 0.14093 0.0
C758 C 0.78055 0.65012 0.16813 0.0
C759 C 0.79221 0.61902 0.17296 0.0
C760 C 0.80044 0.61915 0.15282 0.0
C761 C 0.78214 0.63466 0.18088 0.0
H762 H 0.78823 0.66162 0.13832 0.0
H763 H 0.80798 0.60704 0.1467 0.0
O764 O 0.83161 0.63709 0.06511 0.0
O765 O 0.82454 0.65819 0.10565 0.0
O766 O 0.78921 0.63138 0.09078 0.0
O767 O 0.83358 0.61633 0.10729 0.0
H768 H 0.86445 0.62214 0.04511 0.0
H769 H 0.79656 0.63367 0.04218 0.0
H770 H 0.86176 0.60665 0.01108 0.0
H771 H 0.79511 0.61815 0.00806 0.0
H772 H 0.8367 0.71594 0.12777 0.0
H773 H 0.84476 0.67042 0.0721 0.0
H774 H 0.82243 0.6847 0.13312 0.0
H775 H 0.85849 0.70187 0.06779 0.0
H776 H 0.80062 0.69259 0.01991 0.0
H777 H 0.75819 0.70263 0.07175 0.0
H778 H 0.91722 0.61698 0.0801 0.0
H779 H 0.91414 0.66861 0.11224 0.0
H780 H 0.79641 0.59966 0.10946 0.0
H781 H 0.74729 0.63623 0.08749 0.0
H782 H 0.76788 0.57872 0.12177 0.0
H783 H 0.71954 0.61455 0.10015 0.0
H784 H 0.84937 0.58466 0.11895 0.0
H785 H 0.84605 0.64163 0.1343 0.0
H786 H 0.87219 0.57972 0.15005 0.0
H787 H 0.86889 0.63571 0.165 0.0
H788 H 0.8452 0.5612 0.05364 0.0
H789 H 0.77779 0.57005 0.04046 0.0
H790 H 0.77302 0.66248 0.17368 0.0
H791 H 0.7935 0.60674 0.18216 0.0
Li792 Li 0.68905 0.3903 0.58282 0.0
Li793 Li 0.69394 0.37302 0.6143 0.0
Li794 Li 0.69395 0.35771 0.58088 0.0
Li795 Li 0.66082 0.36987 0.59489 0.0
C796 C 0.73116 0.38739 0.5975 0.0
N797 N 0.76387 0.41018 0.61048 0.0
C798 C 0.72629 0.40389 0.60721 0.0
C799 C 0.75265 0.38248 0.59438 0.0
C800 C 0.74306 0.41522 0.61367 0.0
C801 C 0.76896 0.39419 0.60106 0.0
C802 C 0.65972 0.39569 0.62575 0.0
C803 C 0.64166 0.38567 0.65681 0.0
N804 N 0.6347 0.40297 0.66015 0.0
C805 C 0.65237 0.41336 0.62947 0.0
C806 C 0.65432 0.3817 0.6395 0.0
C807 C 0.63975 0.41678 0.64696 0.0
C808 C 0.67591 0.42431 0.56853 0.0
N809 N 0.69316 0.41295 0.56884 0.0
C810 C 0.71355 0.43376 0.54813 0.0
C811 C 0.71178 0.4173 0.55891 0.0
C812 C 0.69595 0.4458 0.54749 0.0
C813 C 0.67694 0.44085 0.55792 0.0
H814 H 0.6612 0.42035 0.57631 0.0
H815 H 0.72521 0.40794 0.55919 0.0
C816 C 0.71558 0.35769 0.64875 0.0
N817 N 0.70643 0.37325 0.64148 0.0
C818 C 0.72453 0.35718 0.66862 0.0
C819 C 0.71448 0.3887 0.67317 0.0
C820 C 0.70593 0.38866 0.65316 0.0
C821 C 0.72389 0.37281 0.68118 0.0
H822 H 0.71581 0.34565 0.63911 0.0
H823 H 0.69883 0.40095 0.64699 0.0
C824 C 0.67653 0.37506 0.54584 0.0
N825 N 0.68571 0.38024 0.50439 0.0
C826 C 0.65983 0.37682 0.5315 0.0
C827 C 0.69791 0.37597 0.53913 0.0
C828 C 0.6648 0.37941 0.5106 0.0
C829 C 0.70221 0.37859 0.5181 0.0
C830 C 0.66982 0.33333 0.60372 0.0
C831 C 0.65745 0.32996 0.58604 0.0
C832 C 0.67299 0.31945 0.6182 0.0
C833 C 0.64845 0.31273 0.58315 0.0
C834 C 0.6637 0.30239 0.61475 0.0
N835 N 0.65174 0.29941 0.59744 0.0
C836 C 0.72472 0.33034 0.57196 0.0
C837 C 0.69539 0.3312 0.54856 0.0
C838 C 0.73367 0.31552 0.5614 0.0
N839 N 0.70592 0.33785 0.5654 0.0
C840 C 0.70384 0.31656 0.53744 0.0
C841 C 0.72322 0.3084 0.54383 0.0
H842 H 0.73265 0.33576 0.58554 0.0
H843 H 0.68032 0.33722 0.54374 0.0
C844 C 0.6188 0.37955 0.5848 0.0
N845 N 0.63024 0.3677 0.59663 0.0
C846 C 0.59633 0.37952 0.58545 0.0
C847 C 0.59777 0.35492 0.61029 0.0
C848 C 0.62026 0.35558 0.60937 0.0
C849 C 0.58554 0.36707 0.59829 0.0
H850 H 0.6272 0.38914 0.57496 0.0
H851 H 0.6297 0.34655 0.61896 0.0
O852 O 0.71509 0.37597 0.59108 0.0
O853 O 0.67195 0.39219 0.60858 0.0
O854 O 0.67185 0.37271 0.56638 0.0
O855 O 0.67901 0.35002 0.60686 0.0
H856 H 0.70978 0.40797 0.60971 0.0
H857 H 0.75667 0.36974 0.58689 0.0
H858 H 0.73952 0.42803 0.6212 0.0
H859 H 0.78567 0.39056 0.59875 0.0
H860 H 0.63737 0.37498 0.66759 0.0
H861 H 0.65639 0.42432 0.61894 0.0
H862 H 0.65984 0.36794 0.6369 0.0
H863 H 0.63396 0.4304 0.65004 0.0
H864 H 0.72858 0.43705 0.54049 0.0
H865 H 0.66281 0.44948 0.55755 0.0
H866 H 0.73153 0.34462 0.67425 0.0
H867 H 0.71392 0.40112 0.6822 0.0
H868 H 0.6432 0.37619 0.53649 0.0
H869 H 0.71106 0.37467 0.55 0.0
H870 H 0.65203 0.38079 0.49931 0.0
H871 H 0.71867 0.37932 0.51268 0.0
H872 H 0.65476 0.34053 0.57468 0.0
H873 H 0.68255 0.32184 0.63195 0.0
H874 H 0.63885 0.30994 0.56954 0.0
H875 H 0.66603 0.29152 0.62583 0.0
H876 H 0.74843 0.30955 0.56718 0.0
H877 H 0.6953 0.3118 0.52387 0.0
H878 H 0.58748 0.38903 0.57586 0.0
H879 H 0.59005 0.34527 0.62058 0.0
Li880 Li 0.81568 0.37343 0.89297 0.0
Li881 Li 0.82149 0.39007 0.92708 0.0
Li882 Li 0.84758 0.36988 0.91354 0.0
Li883 Li 0.81556 0.35667 0.92794 0.0
C884 C 0.85556 0.40017 0.89385 0.0
N885 N 0.89463 0.41445 0.88135 0.0
C886 C 0.86782 0.41064 0.90754 0.0
C887 C 0.86311 0.39705 0.87376 0.0
C888 C 0.88755 0.4177 0.90095 0.0
C889 C 0.88291 0.40438 0.86774 0.0
C890 C 0.77623 0.38458 0.91672 0.0
C891 C 0.74053 0.38967 0.93025 0.0
N892 N 0.73675 0.40184 0.91479 0.0
C893 C 0.77194 0.39704 0.90089 0.0
C894 C 0.76036 0.38075 0.93145 0.0
C895 C 0.75191 0.40567 0.90022 0.0
C896 C 0.79034 0.35966 0.8602 0.0
N897 N 0.80307 0.37382 0.866 0.0
C898 C 0.79854 0.38796 0.83291 0.0
C899 C 0.80714 0.38792 0.85292 0.0
C900 C 0.78544 0.37346 0.82639 0.0
C901 C 0.78124 0.35923 0.84039 0.0
H902 H 0.7874 0.34862 0.87094 0.0
H903 H 0.81703 0.39916 0.85804 0.0
C904 C 0.83222 0.4164 0.95707 0.0
N905 N 0.8177 0.41273 0.94186 0.0
C906 C 0.83103 0.43257 0.96835 0.0
C907 C 0.80039 0.44143 0.94772 0.0
C908 C 0.80204 0.42494 0.93696 0.0
C909 C 0.81503 0.44547 0.9637 0.0
H910 H 0.84499 0.40685 0.96036 0.0
H911 H 0.79105 0.42214 0.92446 0.0
C912 C 0.84334 0.3369 0.8954 0.0
N913 N 0.87187 0.31003 0.88358 0.0
C914 C 0.85457 0.32701 0.91039 0.0
C915 C 0.84642 0.33304 0.87441 0.0
C916 C 0.86899 0.31351 0.90409 0.0
C917 C 0.86097 0.31942 0.86875 0.0
C918 C 0.83215 0.37153 0.96323 0.0
C919 C 0.84735 0.36764 0.97857 0.0
C920 C 0.81099 0.37566 0.96893 0.0
C921 C 0.84113 0.36803 0.99937 0.0
C922 C 0.80541 0.37592 0.98989 0.0
N923 N 0.82047 0.37212 1.00455 0.0
C924 C 0.89009 0.37056 0.92853 0.0
C925 C 0.88798 0.36196 0.89325 0.0
C926 C 0.91254 0.36955 0.92798 0.0
N927 N 0.87829 0.36676 0.91134 0.0
C928 C 0.9104 0.36075 0.892 0.0
C929 C 0.92302 0.36462 0.90952 0.0
H930 H 0.88207 0.37476 0.94259 0.0
H931 H 0.87835 0.35941 0.87963 0.0
C932 C 0.78245 0.33159 0.93863 0.0
N933 N 0.80299 0.33682 0.9428 0.0
C934 C 0.77308 0.31716 0.94956 0.0
C935 C 0.80618 0.31383 0.96887 0.0
C936 C 0.81494 0.32819 0.95746 0.0
C937 C 0.78496 0.30814 0.965 0.0
H938 H 0.77333 0.33864 0.92682 0.0
H939 H 0.83133 0.33244 0.96031 0.0
O940 O 0.83645 0.3928 0.9002 0.0
O941 O 0.79558 0.37569 0.9174 0.0
O942 O 0.82928 0.35025 0.90121 0.0
O943 O 0.83803 0.37096 0.94278 0.0
H944 H 0.86228 0.4131 0.92317 0.0
H945 H 0.85401 0.38874 0.86306 0.0
H946 H 0.89727 0.42573 0.91143 0.0
H947 H 0.88903 0.40196 0.8523 0.0
H948 H 0.72812 0.38687 0.94158 0.0
H949 H 0.78407 0.40027 0.88946 0.0
H950 H 0.76328 0.37095 0.94365 0.0
H951 H 0.74844 0.41544 0.88813 0.0
H952 H 0.80193 0.39933 0.82272 0.0
H953 H 0.77136 0.34773 0.83595 0.0
H954 H 0.84257 0.43486 0.98064 0.0
H955 H 0.78806 0.45106 0.9432 0.0
H956 H 0.85237 0.32989 0.92669 0.0
H957 H 0.83778 0.34059 0.86265 0.0
H958 H 0.87793 0.30582 0.91551 0.0
H959 H 0.86362 0.31633 0.85257 0.0
H960 H 0.86376 0.36427 0.97446 0.0
H961 H 0.79902 0.37873 0.95736 0.0
H962 H 0.85274 0.36504 0.01139 0.0
H963 H 0.7891 0.37913 0.99449 0.0
H964 H 0.92158 0.37301 0.94176 0.0
H965 H 0.91774 0.35679 0.87747 0.0
H966 H 0.75663 0.31328 0.94618 0.0
H967 H 0.81602 0.30709 0.98039 0.0
Li968 Li 0.69121 0.65098 0.42812 0.0
Li969 Li 0.65785 0.6383 0.41349 0.0
Li970 Li 0.68713 0.61794 0.42785 0.0
Li971 Li 0.69192 0.63363 0.39419 0.0
C972 C 0.6671 0.64351 0.4617 0.0
N973 N 0.66406 0.65883 0.50068 0.0
C974 C 0.64849 0.6529 0.46753 0.0
C975 C 0.68403 0.64169 0.4758 0.0
C976 C 0.64729 0.6606 0.48728 0.0
C977 C 0.68223 0.6496 0.4954 0.0
C978 C 0.6652 0.66916 0.39008 0.0
C979 C 0.64659 0.6776 0.35873 0.0
N980 N 0.6408 0.69365 0.36761 0.0
C981 C 0.65932 0.68585 0.39879 0.0
C982 C 0.65901 0.66508 0.3698 0.0
C983 C 0.64688 0.698 0.38723 0.0
C984 C 0.72478 0.67307 0.44428 0.0
N985 N 0.70303 0.6713 0.44293 0.0
C986 C 0.69796 0.69824 0.46318 0.0
C987 C 0.68961 0.68362 0.45192 0.0
C988 C 0.72036 0.70038 0.46495 0.0
C989 C 0.73383 0.68762 0.45521 0.0
H990 H 0.73511 0.66316 0.43688 0.0
H991 H 0.67239 0.68209 0.4504 0.0
C992 C 0.61531 0.62652 0.40559 0.0
N993 N 0.62727 0.6412 0.41128 0.0
C994 C 0.59291 0.62775 0.40445 0.0
C995 C 0.59534 0.65902 0.4158 0.0
C996 C 0.61776 0.65726 0.41642 0.0
C997 C 0.58265 0.64413 0.4097 0.0
H998 H 0.6231 0.6137 0.40233 0.0
H999 H 0.62751 0.66858 0.4215 0.0
C1000 C 0.7298 0.62188 0.42278 0.0
N1001 N 0.76466 0.60008 0.43238 0.0
C1002 C 0.73928 0.61103 0.40753 0.0
C1003 C 0.73823 0.62184 0.44285 0.0
C1004 C 0.75685 0.60006 0.4127 0.0
C1005 C 0.7558 0.61066 0.44742 0.0
C1006 C 0.66428 0.60426 0.38581 0.0
C1007 C 0.67039 0.58594 0.38563 0.0
C1008 C 0.65234 0.61129 0.3693 0.0
C1009 C 0.66477 0.57505 0.36874 0.0
C1010 C 0.64703 0.59997 0.35269 0.0
N1011 N 0.65332 0.58223 0.35275 0.0
C1012 C 0.68103 0.59421 0.46151 0.0
C1013 C 0.70393 0.58196 0.43572 0.0
C1014 C 0.68254 0.57824 0.47313 0.0
N1015 N 0.69166 0.59583 0.44319 0.0
C1016 C 0.70583 0.56567 0.44682 0.0
C1017 C 0.69488 0.56357 0.46575 0.0
H1018 H 0.67102 0.6052 0.46699 0.0
H1019 H 0.71184 0.58334 0.4209 0.0
C1020 C 0.7111 0.64899 0.3587 0.0
N1021 N 0.70455 0.63289 0.36697 0.0
C1022 C 0.71992 0.64964 0.33878 0.0
C1023 C 0.71542 0.61707 0.33628 0.0
C1024 C 0.70686 0.61704 0.35631 0.0
C1025 C 0.72205 0.63354 0.32715 0.0
H1026 H 0.7094 0.66139 0.36758 0.0
H1027 H 0.70215 0.60432 0.36331 0.0
O1028 O 0.6687 0.63608 0.44232 0.0
O1029 O 0.67735 0.65707 0.40121 0.0
O1030 O 0.71251 0.63263 0.41803 0.0
O1031 O 0.66982 0.61515 0.40216 0.0
H1032 H 0.63514 0.65428 0.45692 0.0
H1033 H 0.69842 0.63429 0.47162 0.0
H1034 H 0.63304 0.668 0.49196 0.0
H1035 H 0.69528 0.64839 0.50641 0.0
H1036 H 0.64163 0.67457 0.34304 0.0
H1037 H 0.66417 0.68933 0.41437 0.0
H1038 H 0.66389 0.65247 0.36259 0.0
H1039 H 0.64206 0.7109 0.39386 0.0
H1040 H 0.687 0.7079 0.47019 0.0
H1041 H 0.75119 0.68871 0.45628 0.0
H1042 H 0.58367 0.61585 0.40009 0.0
H1043 H 0.58802 0.67187 0.42004 0.0
H1044 H 0.73304 0.61095 0.39191 0.0
H1045 H 0.73133 0.63036 0.45476 0.0
H1046 H 0.76426 0.5915 0.40107 0.0
H1047 H 0.76242 0.61043 0.46291 0.0
H1048 H 0.67945 0.58021 0.39834 0.0
H1049 H 0.64704 0.62529 0.3694 0.0
H1050 H 0.6695 0.56088 0.36835 0.0
H1051 H 0.63784 0.60526 0.3398 0.0
H1052 H 0.67403 0.57741 0.48773 0.0
H1053 H 0.71526 0.55466 0.44034 0.0
H1054 H 0.7252 0.66262 0.33267 0.0
H1055 H 0.71652 0.6043 0.32798 0.0
Li1056 Li 0.18888 0.39082 0.92944 0.0
Li1057 Li 0.19357 0.35815 0.92911 0.0
Li1058 Li 0.19452 0.37402 0.89562 0.0
Li1059 Li 0.16105 0.36981 0.91549 0.0
C1060 C 0.23266 0.37208 0.9303 0.0
N1061 N 0.26839 0.36054 0.95222 0.0
C1062 C 0.23823 0.38052 0.94896 0.0
C1063 C 0.24521 0.35768 0.92288 0.0
C1064 C 0.25639 0.37453 0.95976 0.0
C1065 C 0.2632 0.35205 0.93418 0.0
C1066 C 0.17163 0.36565 0.96388 0.0
C1067 C 0.16361 0.34161 0.98817 0.0
N1068 N 0.1724 0.35171 1.00366 0.0
C1069 C 0.18057 0.3758 0.98006 0.0
C1070 C 0.16304 0.34842 0.96797 0.0
C1071 C 0.18079 0.36852 1.00005 0.0
C1072 C 0.1749 0.41968 0.95418 0.0
N1073 N 0.19209 0.41373 0.94305 0.0
C1074 C 0.21212 0.44039 0.95207 0.0
C1075 C 0.21037 0.42383 0.9415 0.0
C1076 C 0.19482 0.44665 0.96422 0.0
C1077 C 0.17595 0.43611 0.96499 0.0
H1078 H 0.16042 0.41151 0.95481 0.0
H1079 H 0.22368 0.41894 0.93223 0.0
C1080 C 0.20664 0.32135 0.93437 0.0
N1081 N 0.2062 0.33784 0.94394 0.0
C1082 C 0.21536 0.30617 0.94443 0.0
C1083 C 0.22313 0.3252 0.974 0.0
C1084 C 0.21459 0.34003 0.96326 0.0
C1085 C 0.22351 0.30798 0.96461 0.0
H1086 H 0.20021 0.31995 0.9189 0.0
H1087 H 0.21466 0.35328 0.97043 0.0
C1088 C 0.17487 0.40938 0.89452 0.0
N1089 N 0.18035 0.44392 0.87846 0.0
C1090 C 0.15698 0.42035 0.89054 0.0
C1091 C 0.19555 0.41596 0.89041 0.0
C1092 C 0.16009 0.43778 0.88239 0.0
C1093 C 0.19798 0.43346 0.88227 0.0
C1094 C 0.16421 0.34051 0.89406 0.0
C1095 C 0.15832 0.34322 0.8734 0.0
C1096 C 0.15334 0.32755 0.90598 0.0
C1097 C 0.14146 0.333 0.86504 0.0
C1098 C 0.13655 0.31762 0.89706 0.0
N1099 N 0.13099 0.32054 0.87695 0.0
C1100 C 0.22585 0.36816 0.86408 0.0
C1101 C 0.1944 0.3834 0.85277 0.0
C1102 C 0.23439 0.3686 0.84405 0.0
N1103 N 0.20618 0.37547 0.86808 0.0
C1104 C 0.20239 0.38427 0.83253 0.0
C1105 C 0.22266 0.37674 0.82787 0.0
H1106 H 0.23485 0.3618 0.87638 0.0
H1107 H 0.1787 0.38898 0.85625 0.0
C1108 C 0.11883 0.36051 0.92861 0.0
N1109 N 0.13056 0.36716 0.91252 0.0
C1110 C 0.09649 0.35903 0.92707 0.0
C1111 C 0.09857 0.37143 0.89245 0.0
C1112 C 0.12094 0.3726 0.89464 0.0
C1113 C 0.08603 0.36461 0.90885 0.0
H1114 H 0.12676 0.35661 0.94278 0.0
H1115 H 0.13066 0.37796 0.88213 0.0
O1116 O 0.21481 0.37767 0.91959 0.0
O1117 O 0.17116 0.37262 0.94421 0.0
O1118 O 0.1721 0.3924 0.90278 0.0
O1119 O 0.18022 0.35076 0.90271 0.0
H1120 H 0.22847 0.39135 0.95526 0.0
H1121 H 0.24084 0.35061 0.90884 0.0
H1122 H 0.26083 0.38092 0.97424 0.0
H1123 H 0.27296 0.34086 0.92867 0.0
H1124 H 0.15716 0.32824 0.99151 0.0
H1125 H 0.18751 0.38906 0.97721 0.0
H1126 H 0.15635 0.34024 0.95564 0.0
H1127 H 0.18774 0.3762 0.01269 0.0
H1128 H 0.22701 0.44802 0.95107 0.0
H1129 H 0.16204 0.44055 0.97375 0.0
H1130 H 0.21539 0.29311 0.93667 0.0
H1131 H 0.22959 0.32722 0.98941 0.0
H1132 H 0.14088 0.41546 0.89375 0.0
H1133 H 0.20959 0.40768 0.89355 0.0
H1134 H 0.14639 0.44644 0.87921 0.0
H1135 H 0.21389 0.43874 0.87902 0.0
H1136 H 0.16652 0.35323 0.86399 0.0
H1137 H 0.15771 0.32529 0.92199 0.0
H1138 H 0.13664 0.33502 0.84911 0.0
H1139 H 0.1279 0.30762 0.90614 0.0
H1140 H 0.24988 0.3623 0.84125 0.0
H1141 H 0.19282 0.39089 0.82072 0.0
H1142 H 0.08746 0.35401 0.94023 0.0
H1143 H 0.0912 0.37576 0.87808 0.0
Li1144 Li 0.31186 0.65114 0.42714 0.0
Li1145 Li 0.31713 0.61857 0.42723 0.0
Li1146 Li 0.34494 0.63854 0.41346 0.0
Li1147 Li 0.31162 0.63423 0.39468 0.0
C1148 C 0.34639 0.64813 0.45465 0.0
N1149 N 0.37125 0.67038 0.4795 0.0
C1150 C 0.35384 0.64183 0.47377 0.0
C1151 C 0.3516 0.66575 0.44815 0.0
C1152 C 0.36638 0.65329 0.48612 0.0
C1153 C 0.36419 0.67679 0.46094 0.0
C1154 C 0.27484 0.63077 0.4325 0.0
C1155 C 0.23709 0.62964 0.44114 0.0
N1156 N 0.24229 0.62825 0.46154 0.0
C1157 C 0.27982 0.62931 0.45355 0.0
C1158 C 0.25332 0.63094 0.42622 0.0
C1159 C 0.26314 0.62805 0.46799 0.0
C1160 C 0.29014 0.6849 0.43094 0.0
N1161 N 0.29934 0.67115 0.44191 0.0
C1162 C 0.29105 0.68612 0.47383 0.0
C1163 C 0.29981 0.67145 0.46297 0.0
C1164 C 0.28149 0.70062 0.46298 0.0
C1165 C 0.28106 0.69981 0.4412 0.0
H1166 H 0.28985 0.68425 0.41421 0.0
H1167 H 0.3071 0.66034 0.4714 0.0
C1168 C 0.33008 0.59078 0.454 0.0
N1169 N 0.31321 0.59638 0.44223 0.0
C1170 C 0.32874 0.57466 0.46539 0.0
C1171 C 0.29269 0.57025 0.45224 0.0
C1172 C 0.29474 0.58648 0.44107 0.0
C1173 C 0.30983 0.56414 0.46467 0.0
H1174 H 0.34465 0.59884 0.45443 0.0
H1175 H 0.28158 0.59118 0.4315 0.0
C1176 C 0.33512 0.6644 0.38288 0.0
N1177 N 0.35225 0.6779 0.34648 0.0
C1178 C 0.34744 0.65316 0.37005 0.0
C1179 C 0.33149 0.6825 0.37719 0.0
C1180 C 0.35597 0.66024 0.35171 0.0
C1181 C 0.3403 0.68907 0.35873 0.0
C1182 C 0.32927 0.59906 0.39277 0.0
C1183 C 0.34591 0.58745 0.38668 0.0
C1184 C 0.30787 0.59356 0.39032 0.0
C1185 C 0.34087 0.57049 0.37815 0.0
C1186 C 0.30349 0.5765 0.38174 0.0
N1187 N 0.31994 0.56542 0.37589 0.0
C1188 C 0.38729 0.6265 0.41749 0.0
C1189 C 0.38511 0.65719 0.40633 0.0
C1190 C 0.40975 0.62729 0.41746 0.0
N1191 N 0.37549 0.64129 0.41193 0.0
C1192 C 0.40756 0.6585 0.40575 0.0
C1193 C 0.42015 0.64342 0.41144 0.0
H1194 H 0.37917 0.6141 0.42208 0.0
H1195 H 0.37542 0.66892 0.40245 0.0
C1196 C 0.28044 0.64207 0.36395 0.0
N1197 N 0.29931 0.63322 0.36744 0.0
C1198 C 0.27137 0.64232 0.34411 0.0
C1199 C 0.30124 0.62421 0.33187 0.0
C1200 C 0.30977 0.62441 0.35188 0.0
C1201 C 0.28182 0.63334 0.32767 0.0
H1202 H 0.27258 0.64914 0.37655 0.0
H1203 H 0.32489 0.61763 0.35491 0.0
O1204 O 0.33419 0.63698 0.4424 0.0
O1205 O 0.29083 0.63208 0.41799 0.0
O1206 O 0.32635 0.65778 0.4008 0.0
O1207 O 0.33404 0.61561 0.4013 0.0
H1208 H 0.34994 0.62822 0.479 0.0
H1209 H 0.34598 0.6709 0.43343 0.0
H1210 H 0.37224 0.64859 0.50096 0.0
H1211 H 0.36833 0.69045 0.45611 0.0
H1212 H 0.22036 0.62976 0.4365 0.0
H1213 H 0.29637 0.6291 0.45872 0.0
H1214 H 0.24921 0.63206 0.40997 0.0
H1215 H 0.26676 0.62692 0.48433 0.0
H1216 H 0.29209 0.6862 0.49057 0.0
H1217 H 0.27359 0.71049 0.43214 0.0
H1218 H 0.34251 0.57035 0.47444 0.0
H1219 H 0.27774 0.56271 0.45134 0.0
H1220 H 0.35047 0.63913 0.3742 0.0
H1221 H 0.32195 0.69136 0.38695 0.0
H1222 H 0.36553 0.65169 0.34164 0.0
H1223 H 0.33763 0.70305 0.35414 0.0
H1224 H 0.36256 0.5915 0.38854 0.0
H1225 H 0.29476 0.60235 0.39496 0.0
H1226 H 0.35359 0.56137 0.37336 0.0
H1227 H 0.287 0.57208 0.37975 0.0
H1228 H 0.41891 0.61535 0.42186 0.0
H1229 H 0.415 0.67124 0.40129 0.0
H1230 H 0.25657 0.64979 0.34162 0.0
H1231 H 0.30976 0.61688 0.31985 0.0
Li1232 Li 0.15758 0.63941 0.09501 0.0
Li1233 Li 0.19116 0.63552 0.11475 0.0
Li1234 Li 0.19139 0.65228 0.08039 0.0
Li1235 Li 0.18741 0.61891 0.08249 0.0
C1236 C 0.16577 0.67408 0.11271 0.0
N1237 N 0.14425 0.70533 0.12459 0.0
C1238 C 0.16119 0.67723 0.13361 0.0
C1239 C 0.15977 0.68701 0.09792 0.0
C1240 C 0.15019 0.69305 0.13929 0.0
C1241 C 0.14882 0.70267 0.10421 0.0
C1242 C 0.16648 0.6071 0.12553 0.0
C1243 C 0.17973 0.58574 0.15087 0.0
N1244 N 0.16143 0.58808 0.16214 0.0
C1245 C 0.14773 0.60919 0.13727 0.0
C1246 C 0.18254 0.59517 0.13228 0.0
C1247 C 0.14551 0.59949 0.15576 0.0
C1248 C 0.11542 0.63439 0.08057 0.0
N1249 N 0.12692 0.64186 0.09634 0.0
C1250 C 0.09446 0.65127 0.11321 0.0
C1251 C 0.11692 0.65005 0.11261 0.0
C1252 C 0.0822 0.64398 0.09691 0.0
C1253 C 0.09298 0.63544 0.08044 0.0
H1254 H 0.12368 0.62749 0.0681 0.0
H1255 H 0.12631 0.65538 0.12528 0.0
C1256 C 0.22471 0.63429 0.14471 0.0
N1257 N 0.20298 0.63511 0.14223 0.0
C1258 C 0.23371 0.63399 0.16457 0.0
C1259 C 0.19785 0.63531 0.17898 0.0
C1260 C 0.18956 0.63575 0.15887 0.0
C1261 C 0.22021 0.63445 0.18205 0.0
H1262 H 0.23506 0.6339 0.13126 0.0
H1263 H 0.17237 0.63662 0.15655 0.0
C1264 C 0.16128 0.64342 0.04864 0.0
N1265 N 0.14429 0.65733 0.01237 0.0
C1266 C 0.16598 0.63518 0.02965 0.0
C1267 C 0.14767 0.65855 0.04919 0.0
C1268 C 0.15732 0.64247 0.01148 0.0
C1269 C 0.13931 0.66542 0.03069 0.0
C1270 C 0.22946 0.62467 0.08368 0.0
C1271 C 0.23962 0.63064 0.0656 0.0
C1272 C 0.2367 0.60889 0.09355 0.0
C1273 C 0.25672 0.62053 0.0575 0.0
C1274 C 0.25383 0.59915 0.08496 0.0
N1275 N 0.26339 0.60511 0.06725 0.0
C1276 C 0.21036 0.68706 0.07572 0.0
C1277 C 0.20511 0.67136 0.0441 0.0
C1278 C 0.2188 0.70209 0.06517 0.0
N1279 N 0.20347 0.67219 0.06508 0.0
C1280 C 0.21334 0.68608 0.03292 0.0
C1281 C 0.22026 0.70181 0.04342 0.0
H1282 H 0.2092 0.68728 0.09243 0.0
H1283 H 0.20011 0.65924 0.03599 0.0
C1284 C 0.1848 0.58087 0.0761 0.0
N1285 N 0.19278 0.59658 0.06806 0.0
C1286 C 0.18706 0.56447 0.06536 0.0
C1287 C 0.20582 0.58068 0.03824 0.0
C1288 C 0.20322 0.59676 0.04954 0.0
C1289 C 0.19752 0.56424 0.04604 0.0
H1290 H 0.17619 0.5811 0.09064 0.0
H1291 H 0.20918 0.60946 0.04333 0.0
O1292 O 0.17662 0.65867 0.10691 0.0
O1293 O 0.16905 0.61665 0.1075 0.0
O1294 O 0.16972 0.63647 0.06658 0.0
O1295 O 0.21251 0.63425 0.09169 0.0
H1296 H 0.16594 0.66753 0.14532 0.0
H1297 H 0.16374 0.68514 0.08178 0.0
H1298 H 0.14639 0.69558 0.15539 0.0
H1299 H 0.14404 0.71276 0.0929 0.0
H1300 H 0.1921 0.57656 0.15635 0.0
H1301 H 0.13508 0.61828 0.13222 0.0
H1302 H 0.19708 0.59331 0.12331 0.0
H1303 H 0.13113 0.60105 0.16506 0.0
H1304 H 0.08678 0.65793 0.12622 0.0
H1305 H 0.08415 0.62931 0.06778 0.0
H1306 H 0.25104 0.63319 0.16622 0.0
H1307 H 0.18686 0.63595 0.19199 0.0
H1308 H 0.17627 0.62334 0.02892 0.0
H1309 H 0.14331 0.66476 0.06375 0.0
H1310 H 0.16094 0.63629 0.99667 0.0
H1311 H 0.12877 0.67715 0.03092 0.0
H1312 H 0.23428 0.64286 0.05782 0.0
H1313 H 0.22914 0.60418 0.10765 0.0
H1314 H 0.26466 0.62493 0.04345 0.0
H1315 H 0.25952 0.58685 0.09237 0.0
H1316 H 0.22432 0.71371 0.074 0.0
H1317 H 0.21398 0.68522 0.01619 0.0
H1318 H 0.18007 0.55221 0.07182 0.0
H1319 H 0.21416 0.58113 0.02352 0.0
Li1320 Li 0.31315 0.37483 0.61476 0.0
Li1321 Li 0.34677 0.37098 0.59498 0.0
Li1322 Li 0.31689 0.39145 0.58238 0.0
Li1323 Li 0.31304 0.35803 0.58039 0.0
C1324 C 0.33739 0.40376 0.62515 0.0
N1325 N 0.34171 0.42381 0.66111 0.0
C1326 C 0.35617 0.40241 0.63697 0.0
C1327 C 0.32093 0.41547 0.63148 0.0
C1328 C 0.35802 0.41262 0.65514 0.0
C1329 C 0.32337 0.42544 0.64975 0.0
C1330 C 0.33931 0.33673 0.61312 0.0
C1331 C 0.35706 0.30832 0.60537 0.0
N1332 N 0.36223 0.30643 0.62573 0.0
C1333 C 0.34452 0.33436 0.634 0.0
C1334 C 0.34539 0.32349 0.59872 0.0
C1335 C 0.35622 0.31901 0.64006 0.0
C1336 C 0.27946 0.3755 0.64463 0.0
N1337 N 0.30121 0.37529 0.64222 0.0
C1338 C 0.30619 0.37574 0.67897 0.0
C1339 C 0.31457 0.37529 0.6589 0.0
C1340 C 0.28376 0.37595 0.68204 0.0
C1341 C 0.27036 0.37581 0.66447 0.0
H1342 H 0.26915 0.37529 0.63115 0.0
H1343 H 0.3318 0.375 0.65664 0.0
C1344 C 0.38902 0.37484 0.57996 0.0
N1345 N 0.37749 0.36866 0.59642 0.0
C1346 C 0.41147 0.37412 0.58011 0.0
C1347 C 0.40998 0.36125 0.6145 0.0
C1348 C 0.38749 0.36203 0.61357 0.0
C1349 C 0.42234 0.36738 0.59761 0.0
H1350 H 0.38078 0.38053 0.56672 0.0
H1351 H 0.37808 0.35782 0.62679 0.0
C1352 C 0.27474 0.38543 0.58367 0.0
N1353 N 0.24042 0.40459 0.56736 0.0
C1354 C 0.26484 0.37952 0.56544 0.0
C1355 C 0.26701 0.40094 0.59375 0.0
C1356 C 0.24755 0.38943 0.5574 0.0
C1357 C 0.2497 0.41049 0.58522 0.0
C1358 C 0.34249 0.36681 0.5484 0.0
C1359 C 0.3376 0.37518 0.52953 0.0
C1360 C 0.35561 0.35136 0.54862 0.0
C1361 C 0.34558 0.36773 0.51116 0.0
C1362 C 0.3633 0.34432 0.52994 0.0
N1363 N 0.35814 0.35257 0.51174 0.0
C1364 C 0.31984 0.42945 0.57597 0.0
C1365 C 0.30084 0.41382 0.54962 0.0
C1366 C 0.31763 0.4459 0.56533 0.0
N1367 N 0.31153 0.41383 0.568 0.0
C1368 C 0.2983 0.42997 0.53841 0.0
C1369 C 0.3069 0.4463 0.54617 0.0
H1370 H 0.3287 0.42909 0.59035 0.0
H1371 H 0.29466 0.40119 0.54342 0.0
C1372 C 0.29462 0.323 0.57583 0.0
N1373 N 0.30103 0.33802 0.56516 0.0
C1374 C 0.2862 0.30793 0.56536 0.0
C1375 C 0.29075 0.32415 0.53311 0.0
C1376 C 0.29895 0.33892 0.54422 0.0
C1377 C 0.28429 0.3083 0.54365 0.0
H1378 H 0.29611 0.32272 0.59252 0.0
H1379 H 0.30356 0.35114 0.53607 0.0
O1380 O 0.33519 0.3937 0.60744 0.0
O1381 O 0.32778 0.35167 0.60695 0.0
O1382 O 0.29186 0.37604 0.59163 0.0
O1383 O 0.33467 0.37388 0.56652 0.0
H1384 H 0.36914 0.39353 0.63223 0.0
H1385 H 0.30639 0.41679 0.62242 0.0
H1386 H 0.37242 0.41164 0.6645 0.0
H1387 H 0.3107 0.43447 0.65489 0.0
H1388 H 0.36192 0.29801 0.59437 0.0
H1389 H 0.33972 0.34431 0.64542 0.0
H1390 H 0.34096 0.32476 0.58261 0.0
H1391 H 0.36051 0.3171 0.65615 0.0
H1392 H 0.31723 0.37611 0.69194 0.0
H1393 H 0.253 0.37566 0.66597 0.0
H1394 H 0.42017 0.37882 0.5666 0.0
H1395 H 0.41755 0.35634 0.62853 0.0
H1396 H 0.27054 0.36751 0.55749 0.0
H1397 H 0.27431 0.40557 0.608 0.0
H1398 H 0.23982 0.38508 0.54323 0.0
H1399 H 0.24363 0.42258 0.5928 0.0
H1400 H 0.32767 0.38725 0.52904 0.0
H1401 H 0.3601 0.34504 0.56308 0.0
H1402 H 0.34181 0.374 0.49644 0.0
H1403 H 0.37345 0.33236 0.52991 0.0
H1404 H 0.32487 0.45807 0.57174 0.0
H1405 H 0.28978 0.42965 0.52379 0.0
H1406 H 0.28105 0.29621 0.57424 0.0
H1407 H 0.28976 0.3251 0.5164 0.0
H1408 H 0.30734 0.22766 0.02115 0.0
H1409 H 0.2433 0.21021 0.03855 0.0
H1410 H 0.29193 0.25288 1.00167 0.0
H1411 H 0.22812 0.236 0.01978 0.0
H1412 H 0.21438 0.29714 1.00406 0.0
H1413 H 0.22926 0.27109 0.0229 0.0
H1414 H 0.26757 0.25691 0.96949 0.0
H1415 H 0.25258 0.28292 0.95059 0.0
C1416 C 0.29 0.22904 0.02075 0.0
C1417 C 0.27663 0.21672 0.03147 0.0
C1418 C 0.2812 0.24359 0.00964 0.0
C1419 C 0.25885 0.24639 0.00922 0.0
C1420 C 0.24544 0.23426 0.02002 0.0
C1421 C 0.2542 0.21953 0.03088 0.0
C1422 C 0.226 0.28845 0.99638 0.0
C1423 C 0.23235 0.29204 0.97588 0.0
C1424 C 0.23439 0.2735 0.0071 0.0
C1425 C 0.24957 0.26201 0.99765 0.0
C1426 C 0.25598 0.26562 0.97717 0.0
C1427 C 0.24732 0.2804 0.96633 0.0
H1428 H 0.28258 0.73677 0.45202 0.0
H1429 H 0.25928 0.7005 0.49978 0.0
H1430 H 0.26778 0.76266 0.47089 0.0
H1431 H 0.24494 0.72646 0.51878 0.0
H1432 H 0.24356 0.77924 0.55718 0.0
H1433 H 0.25841 0.75351 0.53792 0.0
H1434 H 0.2323 0.77551 0.48121 0.0
H1435 H 0.21779 0.80141 0.5004 0.0
C1436 C 0.27416 0.73426 0.46643 0.0
C1437 C 0.27219 0.71648 0.47434 0.0
C1438 C 0.26573 0.74914 0.47728 0.0
C1439 C 0.25525 0.74663 0.49637 0.0
C1440 C 0.25322 0.72888 0.50427 0.0
C1441 C 0.2615 0.71399 0.49336 0.0
C1442 C 0.24115 0.77866 0.54058 0.0
C1443 C 0.2295 0.79237 0.53032 0.0
C1444 C 0.24947 0.76383 0.52958 0.0
C1445 C 0.24649 0.76245 0.50804 0.0
C1446 C 0.23501 0.77625 0.49776 0.0
C1447 C 0.22653 0.79099 0.50878 0.0
H1448 H 0.26083 0.7791 0.94837 0.0
H1449 H 0.27821 0.80482 0.00613 0.0
H1450 H 0.24589 0.75327 0.96745 0.0
H1451 H 0.26363 0.77887 0.02518 0.0
H1452 H 0.21432 0.73814 0.05169 0.0
H1453 H 0.22842 0.76419 0.03261 0.0
H1454 H 0.25945 0.72785 0.98938 0.0
H1455 H 0.24578 0.70175 0.00864 0.0
C1456 C 0.26135 0.77928 0.96513 0.0
C1457 C 0.27072 0.794 0.97573 0.0
C1458 C 0.25298 0.76441 0.97605 0.0
C1459 C 0.25362 0.764 0.99783 0.0
C1460 C 0.26274 0.77883 0.00842 0.0
C1461 C 0.27126 0.79362 0.99751 0.0
C1462 C 0.22436 0.73565 0.03827 0.0
C1463 C 0.22889 0.71777 0.03176 0.0
C1464 C 0.23239 0.75062 0.0273 0.0
C1465 C 0.24501 0.74809 0.00945 0.0
C1466 C 0.2495 0.73025 1.00288 0.0
C1467 C 0.24161 0.71528 0.01393 0.0
H1468 H 0.29081 0.27198 0.55163 0.0
H1469 H 0.25813 0.30827 0.50933 0.0
H1470 H 0.27668 0.24588 0.53267 0.0
H1471 H 0.24445 0.28215 0.49016 0.0
H1472 H 0.24313 0.2311 0.44886 0.0
H1473 H 0.25802 0.25697 0.46787 0.0
H1474 H 0.2415 0.23091 0.5257 0.0
H1475 H 0.22696 0.20492 0.50671 0.0
C1476 C 0.2805 0.27443 0.5384 0.0
C1477 C 0.27564 0.29231 0.53207 0.0
C1478 C 0.27245 0.25945 0.52749 0.0
C1479 C 0.25949 0.26194 0.50988 0.0
C1480 C 0.25466 0.27977 0.50349 0.0
C1481 C 0.26257 0.29476 0.51448 0.0
C1482 C 0.24287 0.23083 0.46563 0.0
C1483 C 0.23385 0.21596 0.47627 0.0
C1484 C 0.2512 0.24572 0.47651 0.0
C1485 C 0.25089 0.24601 0.49829 0.0
C1486 C 0.24212 0.23105 0.50893 0.0
C1487 C 0.23362 0.21623 0.49805 0.0
H1488 H 0.76524 0.70145 1.00379 0.0
H1489 H 0.76997 0.73378 0.05944 0.0
H1490 H 0.75096 0.72776 0.9851 0.0
H1491 H 0.75552 0.76008 0.04077 0.0
H1492 H 0.75421 0.80704 0.99251 0.0
H1493 H 0.76758 0.78084 0.0118 0.0
H1494 H 0.71767 0.74735 0.98518 0.0
H1495 H 0.70379 0.7736 0.96635 0.0
C1496 C 0.76323 0.71419 0.01201 0.0
C1497 C 0.76874 0.71556 0.03308 0.0
C1498 C 0.7549 0.7292 1.00136 0.0
C1499 C 0.75213 0.74599 0.01147 0.0
C1500 C 0.75763 0.74736 0.03254 0.0
C1501 C 0.76571 0.73228 0.04326 0.0
C1502 C 0.74585 0.79418 0.99095 0.0
C1503 C 0.72787 0.79253 0.97779 0.0
C1504 C 0.75358 0.77915 1.00199 0.0
C1505 C 0.74369 0.76203 1.0 0.0
C1506 C 0.7258 0.76031 0.98683 0.0
C1507 C 0.71791 0.77538 0.97596 0.0
H1508 H 0.79706 0.21412 0.50252 0.0
H1509 H 0.75072 0.22303 0.45373 0.0
H1510 H 0.78266 0.24028 0.52139 0.0
H1511 H 0.73641 0.2493 0.47254 0.0
H1512 H 0.70135 0.28029 0.52522 0.0
H1513 H 0.71613 0.25473 0.50586 0.0
H1514 H 0.78048 0.27441 0.51741 0.0
H1515 H 0.76578 0.30037 0.53627 0.0
C1516 C 0.78377 0.22166 0.49586 0.0
C1517 C 0.77498 0.2165 0.47667 0.0
C1518 C 0.77566 0.23672 0.50657 0.0
C1519 C 0.7584 0.24683 0.49846 0.0
C1520 C 0.74961 0.24168 0.47926 0.0
C1521 C 0.75791 0.22675 0.46842 0.0
C1522 C 0.71864 0.27939 0.52342 0.0
C1523 C 0.73232 0.29254 0.53231 0.0
C1524 C 0.7271 0.26467 0.51235 0.0
C1525 C 0.74946 0.26258 0.51008 0.0
C1526 C 0.76318 0.27557 0.51909 0.0
C1527 C 0.75472 0.29041 0.52997 0.0
H1528 H 0.76088 0.27969 0.95034 0.0
H1529 H 0.78754 0.30189 0.0067 0.0
H1530 H 0.74585 0.25421 0.96994 0.0
H1531 H 0.77282 0.27626 0.02624 0.0
H1532 H 0.72271 0.23797 0.05631 0.0
H1533 H 0.73726 0.26371 0.03697 0.0
H1534 H 0.75945 0.22713 0.9892 0.0
H1535 H 0.7454 0.20132 0.00868 0.0
C1536 C 0.76343 0.27918 0.96692 0.0
C1537 C 0.77542 0.2928 0.97696 0.0
C1538 C 0.755 0.26449 0.97812 0.0
C1539 C 0.75819 0.26319 0.99964 0.0
C1540 C 0.76995 0.27694 0.00971 0.0
C1541 C 0.77854 0.29153 0.99849 0.0
C1542 C 0.73094 0.23534 0.04182 0.0
C1543 C 0.73283 0.21749 0.03411 0.0
C1544 C 0.73921 0.25013 0.0307 0.0
C1545 C 0.74944 0.24747 0.01151 0.0
C1546 C 0.75136 0.22966 1.00378 0.0
C1547 C 0.74324 0.21486 0.01496 0.0
H1548 H 0.77175 0.77318 0.55938 0.0
H1549 H 0.77079 0.80552 0.50341 0.0
H1550 H 0.75684 0.74747 0.54032 0.0
H1551 H 0.75648 0.77959 0.48433 0.0
H1552 H 0.75364 0.72274 0.45377 0.0
H1553 H 0.7685 0.74844 0.47313 0.0
H1554 H 0.72254 0.73891 0.52214 0.0
H1555 H 0.70783 0.7131 0.50289 0.0
C1556 C 0.76822 0.77491 0.54308 0.0
C1557 C 0.77252 0.79153 0.53301 0.0
C1558 C 0.75974 0.76011 0.53214 0.0
C1559 C 0.75554 0.76148 0.51081 0.0
C1560 C 0.75984 0.77803 0.5007 0.0
C1561 C 0.76811 0.79289 0.51167 0.0
C1562 C 0.74681 0.72607 0.46874 0.0
C1563 C 0.72955 0.7159 0.4768 0.0
C1564 C 0.75519 0.74088 0.47973 0.0
C1565 C 0.74666 0.74572 0.49914 0.0
C1566 C 0.72955 0.73544 0.5073 0.0
C1567 C 0.72101 0.72076 0.4962 0.0
H1568 H 0.34553 0.03764 0.04078 0.0
H1569 H 0.2796 0.04887 0.02351 0.0
H1570 H 0.34454 0.00965 0.02064 0.0
H1571 H 0.27854 0.02052 1.0038 0.0
H1572 H 0.2806 0.95815 0.98993 0.0
H1573 H 0.28043 0.98648 0.00968 0.0
H1574 H 0.34183 1.0011 0.98313 0.0
H1575 H 0.34183 0.97311 0.96295 0.0
C1576 C 0.33085 0.03425 0.0326 0.0
C1577 C 0.31269 0.04567 0.0337 0.0
C1578 C 0.33029 0.01814 0.0211 0.0
C1579 C 0.3115 0.01293 0.01056 0.0
C1580 C 0.29319 0.02411 0.01191 0.0
C1581 C 0.29381 0.04033 0.02327 0.0
C1582 C 0.29393 0.9675 0.98804 0.0
C1583 C 0.31128 0.96323 0.97486 0.0
C1584 C 0.29384 0.98371 0.99943 0.0
C1585 C 0.31117 0.99595 0.99805 0.0
C1586 C 0.32841 0.99179 0.98478 0.0
C1587 C 0.32841 0.97569 0.97326 0.0
H1588 H 0.2288 0.9638 0.52828 0.0
H1589 H 0.15939 0.96773 0.53152 0.0
H1590 H 0.22993 0.99227 0.50874 0.0
H1591 H 0.16064 0.99568 0.51133 0.0
H1592 H 0.17136 0.03232 0.45424 0.0
H1593 H 0.17142 1.00423 0.47427 0.0
H1594 H 0.22044 0.02623 0.51443 0.0
H1595 H 0.21988 0.05473 0.49496 0.0
C1596 C 0.2138 0.97072 0.52499 0.0
C1597 C 0.19398 0.96329 0.53144 0.0
C1598 C 0.21448 0.987 0.51371 0.0
C1599 C 0.19536 0.99609 0.50839 0.0
C1600 C 0.17561 0.98879 0.51492 0.0
C1601 C 0.17492 0.97269 0.52642 0.0
C1602 C 0.18199 0.03135 0.46748 0.0
C1603 C 0.19548 0.04597 0.47301 0.0
C1604 C 0.18208 0.01518 0.47889 0.0
C1605 C 0.19587 0.01309 0.49595 0.0
C1606 C 0.20977 0.02744 0.50124 0.0
C1607 C 0.20948 0.04374 0.48999 0.0
H1608 H 0.72925 0.96544 0.97974 0.0
H1609 H 0.65968 0.96679 0.98109 0.0
H1610 H 0.73035 0.99297 1.00074 0.0
H1611 H 0.66079 0.99489 1.00067 0.0
H1612 H 0.66765 0.03533 0.05256 0.0
H1613 H 0.66812 0.0067 0.03357 0.0
H1614 H 0.72436 0.02475 0.99979 0.0
H1615 H 0.72423 0.05314 0.01946 0.0
C1616 C 0.71418 0.97158 0.98446 0.0
C1617 C 0.69438 0.96381 0.9786 0.0
C1618 C 0.71481 0.98755 0.99629 0.0
C1619 C 0.69567 0.99625 1.00247 0.0
C1620 C 0.6759 0.98849 0.99654 0.0
C1621 C 0.67527 0.97246 0.98492 0.0
C1622 C 0.68011 0.03314 0.04107 0.0
C1623 C 0.69584 0.04649 0.03742 0.0
C1624 C 0.68035 0.01675 0.03009 0.0
C1625 C 0.69616 0.01338 0.01492 0.0
C1626 C 0.71209 0.0267 0.0115 0.0
C1627 C 0.712 0.04302 0.02271 0.0
H1628 H 0.82233 0.05596 0.50529 0.0
H1629 H 0.79347 0.02954 0.45238 0.0
H1630 H 0.82061 0.0275 0.52461 0.0
H1631 H 0.79113 1.00114 0.47197 0.0
H1632 H 0.8161 0.94945 0.50548 0.0
H1633 H 0.81535 0.97778 0.48582 0.0
H1634 H 0.7948 0.00676 0.54055 0.0
H1635 H 0.79541 0.97842 0.56022 0.0
C1636 C 0.81559 0.04407 0.49778 0.0
C1637 C 0.80813 0.04502 0.47724 0.0
C1638 C 0.81437 0.02779 0.50895 0.0
C1639 C 0.80571 0.01202 0.49986 0.0
C1640 C 0.79807 0.01299 0.47937 0.0
C1641 C 0.79921 0.02932 0.46822 0.0
C1642 C 0.81109 0.9618 0.51327 0.0
C1643 C 0.80587 0.96162 0.53448 0.0
C1644 C 0.81068 0.97806 0.50198 0.0
C1645 C 0.8051 0.99457 0.51161 0.0
C1646 C 0.79952 0.99435 0.53273 0.0
C1647 C 0.79988 0.97809 0.54401 0.0
H1648 H 0.77911 0.46502 0.97518 0.0
H1649 H 0.84862 0.46609 0.97825 0.0
H1650 H 0.77767 0.49387 0.99367 0.0
H1651 H 0.84712 0.49412 0.99797 0.0
H1652 H 0.84005 0.55316 0.01561 0.0
H1653 H 0.84023 0.52533 0.99513 0.0
H1654 H 0.78258 0.50727 0.02662 0.0
H1655 H 0.78209 0.53552 0.04653 0.0
C1656 C 0.7941 0.47136 0.97977 0.0
C1657 C 0.81398 0.4631 0.97518 0.0
C1658 C 0.79326 0.48783 0.99068 0.0
C1659 C 0.81227 0.49642 0.99742 0.0
C1660 C 0.83212 0.48813 0.99282 0.0
C1661 C 0.83297 0.4718 0.98176 0.0
C1662 C 0.82744 0.5432 0.01814 0.0
C1663 C 0.81113 0.54645 0.03274 0.0
C1664 C 0.82757 0.52719 0.00647 0.0
C1665 C 0.81152 0.51387 0.00927 0.0
C1666 C 0.79504 0.51726 0.02377 0.0
C1667 C 0.79478 0.53342 0.03527 0.0
H1668 H 0.6792 0.47893 0.55849 0.0
H1669 H 0.71542 0.45236 0.50999 0.0
H1670 H 0.67957 0.50715 0.5387 0.0
H1671 H 0.71601 0.48075 0.49031 0.0
H1672 H 0.72947 0.5407 0.47142 0.0
H1673 H 0.7306 0.51231 0.49116 0.0
H1674 H 0.66333 0.51859 0.50643 0.0
H1675 H 0.66205 0.5467 0.48656 0.0
C1676 C 0.68717 0.47906 0.54357 0.0
C1677 C 0.69715 0.46329 0.53581 0.0
C1678 C 0.6874 0.49527 0.53223 0.0
C1679 C 0.6977 0.49617 0.51287 0.0
C1680 C 0.70811 0.48055 0.50527 0.0
C1681 C 0.7078 0.46428 0.51659 0.0
C1682 C 0.71487 0.53594 0.47882 0.0
C1683 C 0.69571 0.54611 0.47751 0.0
C1684 C 0.71554 0.51968 0.49016 0.0
C1685 C 0.6971 0.51327 0.50051 0.0
C1686 C 0.67793 0.52334 0.499 0.0
C1687 C 0.67723 0.5395 0.48762 0.0
H1688 H 0.20626 0.52983 0.06017 0.0
H1689 H 0.19188 0.55977 1.00426 0.0
H1690 H 0.2068 0.50154 0.04042 0.0
H1691 H 0.19236 0.53149 0.98453 0.0
H1692 H 0.21322 0.479 0.95226 0.0
H1693 H 0.21557 0.50726 0.97202 0.0
H1694 H 0.18168 0.48178 0.02279 0.0
H1695 H 0.1801 0.4534 1.00342 0.0
C1696 C 0.20315 0.53038 0.04367 0.0
C1697 C 0.19897 0.54708 0.03383 0.0
C1698 C 0.20344 0.51415 0.03235 0.0
C1699 C 0.19953 0.51421 0.01088 0.0
C1700 C 0.19573 0.53096 1.00097 0.0
C1701 C 0.19547 0.54719 0.0123 0.0
C1702 C 0.2065 0.47937 0.96774 0.0
C1703 C 0.19643 0.46392 0.97622 0.0
C1704 C 0.20764 0.49563 0.97898 0.0
C1705 C 0.1988 0.49682 0.99901 0.0
C1706 C 0.18888 0.48132 0.00752 0.0
C1707 C 0.18773 0.46509 0.99629 0.0
H1708 H 0.32447 0.55738 0.50395 0.0
H1709 H 0.29133 0.53185 0.4528 0.0
H1710 H 0.3229 0.52895 0.52328 0.0
H1711 H 0.28892 0.5036 0.47254 0.0
H1712 H 0.31228 0.45094 0.50438 0.0
H1713 H 0.31192 0.47932 0.48482 0.0
H1714 H 0.29807 0.50907 0.54098 0.0
H1715 H 0.29855 0.48068 0.56056 0.0
C1716 C 0.31682 0.54571 0.49682 0.0
C1717 C 0.30812 0.54691 0.47675 0.0
C1718 C 0.31567 0.52945 0.50803 0.0
C1719 C 0.30575 0.51396 0.49951 0.0
C1720 C 0.29687 0.5152 0.47951 0.0
C1721 C 0.29803 0.53147 0.46828 0.0
C1722 C 0.30886 0.46351 0.51252 0.0
C1723 C 0.30549 0.46352 0.53406 0.0
C1724 C 0.30865 0.4798 0.50129 0.0
C1725 C 0.30505 0.49653 0.51132 0.0
C1726 C 0.30129 0.49649 0.53281 0.0
C1727 C 0.30153 0.48021 0.54404 0.0
H1728 H 0.55818 0.12637 0.07304 0.0
H1729 H 0.55977 0.1647 0.12374 0.0
H1730 H 0.51898 0.12744 0.0731 0.0
H1731 H 0.5205 0.16624 0.12335 0.0
H1732 H 0.4503 0.14684 0.1319 0.0
H1733 H 0.48958 0.14703 0.13177 0.0
H1734 H 0.48935 0.1479 0.06486 0.0
H1735 H 0.4501 0.14707 0.06498 0.0
C1736 C 0.55016 0.13502 0.08422 0.0
C1737 C 0.56213 0.14539 0.09845 0.0
C1738 C 0.52768 0.13581 0.08408 0.0
C1739 C 0.51658 0.14696 0.09821 0.0
C1740 C 0.52854 0.15739 0.11238 0.0
C1741 C 0.55106 0.15665 0.11247 0.0
C1742 C 0.45863 0.147 0.11716 0.0
C1743 C 0.44704 0.14688 0.09845 0.0
C1744 C 0.48115 0.14731 0.11709 0.0
C1745 C 0.49262 0.14744 0.0983 0.0
C1746 C 0.48102 0.14759 0.0796 0.0
C1747 C 0.45851 0.14734 0.07967 0.0
H1748 H 0.94677 0.84481 0.57163 0.0
H1749 H 0.94803 0.88251 0.62299 0.0
H1750 H 0.98593 0.84318 0.57231 0.0
H1751 H 0.98716 0.88168 0.62289 0.0
H1752 H 0.05629 0.86323 0.63097 0.0
H1753 H 0.01704 0.86261 0.63108 0.0
H1754 H 0.01698 0.86101 0.56415 0.0
H1755 H 0.05623 0.86128 0.56414 0.0
C1756 C 0.95537 0.85273 0.58311 0.0
C1757 C 0.94417 0.86378 0.59727 0.0
C1758 C 0.97787 0.85197 0.58331 0.0
C1759 C 0.98978 0.86232 0.59763 0.0
C1760 C 0.97857 0.87334 0.61182 0.0
C1761 C 0.95608 0.87402 0.61168 0.0
C1762 C 0.04787 0.86275 0.6163 0.0
C1763 C 0.05936 0.86233 0.59755 0.0
C1764 C 0.02536 0.86245 0.61634 0.0
C1765 C 0.01377 0.86185 0.59762 0.0
C1766 C 0.02532 0.86119 0.57888 0.0
C1767 C 0.04784 0.86137 0.57885 0.0
H1768 H 0.44681 0.86223 0.94478 0.0
H1769 H 0.44564 0.86645 0.87804 0.0
H1770 H 0.48603 0.8617 0.9441 0.0
H1771 H 0.4849 0.86524 0.87731 0.0
H1772 H 0.55486 0.88482 0.88731 0.0
H1773 H 0.51562 0.88417 0.88679 0.0
H1774 H 0.51589 0.84232 0.93382 0.0
H1775 H 0.55513 0.84295 0.93432 0.0
C1776 C 0.45492 0.86303 0.92995 0.0
C1777 C 0.44307 0.86443 0.91147 0.0
C1778 C 0.47741 0.8625 0.92954 0.0
C1779 C 0.48863 0.86339 0.91064 0.0
C1780 C 0.47678 0.86469 0.89214 0.0
C1781 C 0.45426 0.86518 0.89255 0.0
C1782 C 0.54657 0.8753 0.89733 0.0
C1783 C 0.55817 0.86398 0.9109 0.0
C1784 C 0.52405 0.87493 0.89704 0.0
C1785 C 0.51259 0.86325 0.91032 0.0
C1786 C 0.5242 0.85171 0.92364 0.0
C1787 C 0.5467 0.85207 0.92393 0.0
H1788 H 0.05809 0.11337 0.41323 0.0
H1789 H 0.05789 0.17197 0.4079 0.0
H1790 H 0.01889 0.11318 0.41251 0.0
H1791 H 0.01858 0.17183 0.40736 0.0
H1792 H 0.94822 0.16306 0.38815 0.0
H1793 H 0.98753 0.16307 0.38679 0.0
H1794 H 0.98918 0.12165 0.4343 0.0
H1795 H 0.95006 0.12108 0.435 0.0
C1796 C 0.04965 0.12623 0.41206 0.0
C1797 C 0.06112 0.1427 0.41076 0.0
C1798 C 0.02716 0.12613 0.41165 0.0
C1799 C 0.01553 0.1425 0.41001 0.0
C1800 C 0.02701 0.15895 0.40839 0.0
C1801 C 0.04954 0.15905 0.40873 0.0
C1802 C 0.95699 0.15382 0.39813 0.0
C1803 C 0.94596 0.14211 0.41172 0.0
C1804 C 0.97953 0.15397 0.39753 0.0
C1805 C 0.99155 0.14236 0.41044 0.0
C1806 C 0.98048 0.13062 0.42395 0.0
C1807 C 0.958 0.13047 0.42456 0.0
H1808 H 0.05503 0.63734 0.12945 0.0
H1809 H 0.05537 0.65271 0.0649 0.0
H1810 H 0.01575 0.63756 0.12937 0.0
H1811 H 0.01614 0.65331 0.06485 0.0
H1812 H 0.94714 0.63261 0.06542 0.0
H1813 H 0.98626 0.63307 0.06613 0.0
H1814 H 0.98469 0.65672 0.12739 0.0
H1815 H 0.9455 0.65528 0.12716 0.0
C1816 C 0.0467 0.64101 0.11531 0.0
C1817 C 0.0583 0.64493 0.09716 0.0
C1818 C 0.02417 0.64117 0.11526 0.0
C1819 C 0.01271 0.64538 0.09707 0.0
C1820 C 0.02438 0.64964 0.07903 0.0
C1821 C 0.04688 0.64935 0.07905 0.0
C1822 C 0.9551 0.63771 0.07916 0.0
C1823 C 0.94308 0.64384 0.09626 0.0
C1824 C 0.97759 0.63822 0.07945 0.0
C1825 C 0.98871 0.645 0.09679 0.0
C1826 C 0.9767 0.65123 0.11386 0.0
C1827 C 0.95418 0.65063 0.11361 0.0
H1828 H 0.55858 0.39615 0.60232 0.0
H1829 H 0.55864 0.33764 0.59645 0.0
H1830 H 0.51938 0.39613 0.60323 0.0
H1831 H 0.51934 0.33755 0.59663 0.0
H1832 H 0.44894 0.34189 0.61553 0.0
H1833 H 0.48811 0.34197 0.61703 0.0
H1834 H 0.48937 0.39194 0.58168 0.0
H1835 H 0.45036 0.39255 0.58147 0.0
C1836 C 0.55015 0.38329 0.60104 0.0
C1837 C 0.56166 0.36691 0.59924 0.0
C1838 C 0.52766 0.38326 0.60148 0.0
C1839 C 0.51606 0.36685 0.59985 0.0
C1840 C 0.52765 0.35043 0.59823 0.0
C1841 C 0.55018 0.35046 0.59805 0.0
C1842 C 0.45755 0.35305 0.60835 0.0
C1843 C 0.44635 0.3672 0.59835 0.0
C1844 C 0.48009 0.35296 0.60895 0.0
C1845 C 0.49203 0.36695 0.59946 0.0
C1846 C 0.48081 0.38106 0.58945 0.0
C1847 C 0.45832 0.38125 0.58902 0.0
H1848 H 0.05872 0.39015 0.89255 0.0
H1849 H 0.05926 0.33729 0.92187 0.0
H1850 H 0.01947 0.3896 0.89195 0.0
H1851 H 0.02003 0.33666 0.92113 0.0
H1852 H 0.95092 0.35167 0.93889 0.0
H1853 H 0.99011 0.35145 0.93786 0.0
H1854 H 0.98861 0.37491 0.87649 0.0
H1855 H 0.94939 0.37589 0.87791 0.0
C1856 C 0.05047 0.37828 0.89858 0.0
C1857 C 0.06214 0.3638 0.90733 0.0
C1858 C 0.02795 0.37796 0.89824 0.0
C1859 C 0.01655 0.36312 0.90659 0.0
C1860 C 0.02825 0.34846 0.91493 0.0
C1861 C 0.05076 0.34881 0.91532 0.0
C1862 C 0.95894 0.35692 0.92523 0.0
C1863 C 0.94696 0.36384 0.90851 0.0
C1864 C 0.98143 0.35658 0.92453 0.0
C1865 C 0.99256 0.36313 0.90707 0.0
C1866 C 0.98058 0.36992 0.89027 0.0
C1867 C 0.95807 0.37028 0.89098 0.0
H1868 H 0.55637 0.65779 0.43985 0.0
H1869 H 0.55517 0.63309 0.37919 0.0
H1870 H 0.51696 0.65846 0.44022 0.0
H1871 H 0.51577 0.63379 0.37955 0.0
H1872 H 0.44599 0.65638 0.38054 0.0
H1873 H 0.48541 0.65753 0.37987 0.0
H1874 H 0.48742 0.63405 0.44116 0.0
H1875 H 0.44805 0.63285 0.44179 0.0
C1876 C 0.54767 0.65268 0.42652 0.0
C1877 C 0.55881 0.64538 0.40949 0.0
C1878 C 0.52515 0.65294 0.4268 0.0
C1879 C 0.51333 0.64615 0.40992 0.0
C1880 C 0.52448 0.63921 0.39271 0.0
C1881 C 0.54699 0.63871 0.39256 0.0
C1882 C 0.45489 0.65158 0.39389 0.0
C1883 C 0.444 0.6445 0.4112 0.0
C1884 C 0.4774 0.65212 0.39346 0.0
C1885 C 0.48945 0.64589 0.41047 0.0
C1886 C 0.47853 0.63907 0.4279 0.0
C1887 C 0.45604 0.63826 0.4282 0.0
H1888 H 0.2945 0.15925 0.21381 0.0
H1889 H 0.25216 0.1146 0.19817 0.0
H1890 H 0.27911 0.16028 0.24833 0.0
H1891 H 0.23822 0.11455 0.2332 0.0
H1892 H 0.20173 0.12897 0.29144 0.0
H1893 H 0.21603 0.12963 0.25631 0.0
H1894 H 0.27821 0.14576 0.28031 0.0
H1895 H 0.26337 0.14597 0.3153 0.0
C1896 C 0.28192 0.14963 0.21765 0.0
C1897 C 0.27463 0.13686 0.20298 0.0
C1898 C 0.27332 0.15001 0.23769 0.0
C1899 C 0.25739 0.13746 0.24378 0.0
C1900 C 0.25018 0.12465 0.22913 0.0
C1901 C 0.25852 0.12446 0.20901 0.0
C1902 C 0.21844 0.13267 0.28912 0.0
C1903 C 0.23145 0.13741 0.30606 0.0
C1904 C 0.22674 0.13294 0.26898 0.0
C1905 C 0.24839 0.13765 0.26529 0.0
C1906 C 0.26138 0.14239 0.28236 0.0
C1907 C 0.25294 0.14242 0.30248 0.0
H1908 H 0.26963 0.90276 0.8028 0.0
H1909 H 0.27224 0.84396 0.80175 0.0
H1910 H 0.2557 0.90281 0.76768 0.0
H1911 H 0.2568 0.84398 0.76717 0.0
H1912 H 0.25049 0.85045 0.69718 0.0
H1913 H 0.26493 0.85029 0.73229 0.0
H1914 H 0.22509 0.89666 0.74757 0.0
H1915 H 0.2113 0.89711 0.71224 0.0
C1916 C 0.26723 0.88981 0.79513 0.0
C1917 C 0.27223 0.87335 0.80522 0.0
C1918 C 0.25887 0.88983 0.77502 0.0
C1919 C 0.25503 0.8734 0.76445 0.0
C1920 C 0.2598 0.85693 0.77462 0.0
C1921 C 0.26837 0.85691 0.79467 0.0
C1922 C 0.2448 0.86055 0.7081 0.0
C1923 C 0.22982 0.87382 0.70194 0.0
C1924 C 0.253 0.86043 0.72829 0.0
C1925 C 0.24622 0.87346 0.74291 0.0
C1926 C 0.23105 0.88663 0.73671 0.0
C1927 C 0.22306 0.88687 0.71646 0.0
H1928 H 0.6975 0.87354 0.79114 0.0
H1929 H 0.76183 0.87796 0.81627 0.0
H1930 H 0.71234 0.87347 0.7562 0.0
H1931 H 0.77657 0.87715 0.78127 0.0
H1932 H 0.79334 0.85338 0.71658 0.0
H1933 H 0.77857 0.85431 0.75151 0.0
H1934 H 0.73292 0.89526 0.7324 0.0
H1935 H 0.74816 0.89496 0.69756 0.0
C1936 C 0.71477 0.87465 0.7893 0.0
C1937 C 0.7284 0.87581 0.8067 0.0
C1938 C 0.72326 0.87452 0.76923 0.0
C1939 C 0.7456 0.87529 0.76601 0.0
C1940 C 0.75928 0.87633 0.7833 0.0
C1941 C 0.75079 0.87671 0.80338 0.0
C1942 C 0.78038 0.86282 0.71979 0.0
C1943 C 0.77209 0.87417 0.70411 0.0
C1944 C 0.77187 0.86327 0.73984 0.0
C1945 C 0.75463 0.87487 0.74469 0.0
C1946 C 0.74609 0.88605 0.72905 0.0
C1947 C 0.75479 0.88579 0.70904 0.0
H1948 H 0.76384 0.16122 0.30878 0.0
H1949 H 0.78642 0.10619 0.29968 0.0
H1950 H 0.74933 0.16145 0.27367 0.0
H1951 H 0.77253 0.10663 0.26435 0.0
H1952 H 0.72401 0.107 0.21077 0.0
H1953 H 0.73833 0.10677 0.24592 0.0
H1954 H 0.76142 0.16176 0.23765 0.0
H1955 H 0.74647 0.1622 0.20269 0.0
C1956 C 0.76566 0.14915 0.29932 0.0
C1957 C 0.77628 0.13367 0.3071 0.0
C1958 C 0.75756 0.14936 0.27909 0.0
C1959 C 0.75979 0.13407 0.26615 0.0
C1960 C 0.77035 0.11858 0.27394 0.0
C1961 C 0.77852 0.1184 0.29414 0.0
C1962 C 0.732 0.1191 0.21649 0.0
C1963 C 0.73403 0.13463 0.20389 0.0
C1964 C 0.74042 0.11889 0.23658 0.0
C1965 C 0.75104 0.13425 0.24464 0.0
C1966 C 0.75314 0.14977 0.23203 0.0
C1967 C 0.74479 0.14995 0.21189 0.0
H1968 H 0.74792 0.60811 0.30824 0.0
H1969 H 0.71669 0.6598 0.29722 0.0
H1970 H 0.76171 0.60828 0.27303 0.0
H1971 H 0.73175 0.66057 0.26247 0.0
H1972 H 0.74322 0.64766 0.19419 0.0
H1973 H 0.72871 0.64734 0.2293 0.0
H1974 H 0.78734 0.62218 0.25129 0.0
H1975 H 0.80146 0.62204 0.21608 0.0
C1976 C 0.74397 0.61954 0.29835 0.0
C1977 C 0.73107 0.63391 0.30569 0.0
C1978 C 0.7522 0.61977 0.27818 0.0
C1979 C 0.74796 0.63447 0.26479 0.0
C1980 C 0.73517 0.64889 0.27217 0.0
C1981 C 0.72678 0.64858 0.29229 0.0
C1982 C 0.75302 0.64214 0.20657 0.0
C1983 C 0.77345 0.63482 0.20236 0.0
C1984 C 0.74474 0.642 0.22675 0.0
C1985 C 0.7568 0.63471 0.24326 0.0
C1986 C 0.77736 0.62757 0.23899 0.0
C1987 C 0.78552 0.62754 0.21879 0.0
H1988 H 0.70581 0.38666 0.71643 0.0
H1989 H 0.76222 0.35838 0.69422 0.0
H1990 H 0.72069 0.38667 0.75146 0.0
H1991 H 0.77701 0.35822 0.72933 0.0
H1992 H 0.80602 0.3813 0.79 0.0
H1993 H 0.7911 0.38093 0.75498 0.0
H1994 H 0.72948 0.36428 0.77953 0.0
H1995 H 0.74435 0.36484 0.81459 0.0
C1996 C 0.72141 0.38048 0.71903 0.0
C1997 C 0.73286 0.37255 0.70254 0.0
C1998 C 0.72984 0.38034 0.73912 0.0
C1999 C 0.75002 0.37244 0.74316 0.0
C2000 C 0.76149 0.36453 0.72668 0.0
C2001 C 0.75295 0.36449 0.70661 0.0
C2002 C 0.78926 0.37765 0.78792 0.0
C2003 C 0.77636 0.37312 0.80507 0.0
C2004 C 0.78077 0.37728 0.76785 0.0
C2005 C 0.75912 0.37257 0.76448 0.0
C2006 C 0.74619 0.3681 0.78164 0.0
C2007 C 0.75474 0.36827 0.80169 0.0
H2008 H 0.29871 0.35836 0.71672 0.0
H2009 H 0.24771 0.39399 0.69592 0.0
H2010 H 0.28398 0.35909 0.75168 0.0
H2011 H 0.23274 0.39432 0.73087 0.0
H2012 H 0.20063 0.37293 0.79116 0.0
H2013 H 0.21512 0.37315 0.75605 0.0
H2014 H 0.27909 0.38127 0.78047 0.0
H2015 H 0.26464 0.38151 0.81555 0.0
C2016 C 0.28447 0.36648 0.71958 0.0
C2017 C 0.2745 0.37618 0.7034 0.0
C2018 C 0.27599 0.36685 0.73965 0.0
C2019 C 0.25721 0.37679 0.74407 0.0
C2020 C 0.2471 0.38636 0.72792 0.0
C2021 C 0.25567 0.38612 0.70785 0.0
C2022 C 0.21774 0.37504 0.7891 0.0
C2023 C 0.23142 0.37716 0.80632 0.0
C2024 C 0.22605 0.3751 0.76893 0.0
C2025 C 0.24827 0.37715 0.76547 0.0
C2026 C 0.26194 0.37938 0.78262 0.0
C2027 C 0.25363 0.37946 0.80277 0.0
H2028 H 0.30361 0.63574 0.29076 0.0
H2029 H 0.23931 0.63165 0.31593 0.0
H2030 H 0.28892 0.63542 0.25587 0.0
H2031 H 0.22453 0.63243 0.28103 0.0
H2032 H 0.20621 0.61488 0.21553 0.0
H2033 H 0.22103 0.61455 0.25049 0.0
H2034 H 0.26948 0.6535 0.23182 0.0
H2035 H 0.25487 0.65349 0.19678 0.0
C2036 C 0.28633 0.63475 0.28889 0.0
C2037 C 0.2727 0.63362 0.30627 0.0
C2038 C 0.27786 0.63484 0.26882 0.0
C2039 C 0.25549 0.63393 0.26553 0.0
C2040 C 0.24184 0.63291 0.2829 0.0
C2041 C 0.25033 0.63272 0.30299 0.0
C2042 C 0.21997 0.62343 0.21894 0.0
C2043 C 0.22936 0.6342 0.20336 0.0
C2044 C 0.22845 0.62329 0.23902 0.0
C2045 C 0.24648 0.63402 0.24408 0.0
C2046 C 0.25584 0.64481 0.22846 0.0
C2047 C 0.24744 0.64484 0.20835 0.0
loop_
_geom_bond_atom_site_label_1
_geom_bond_atom_site_label_2
_geom_bond_distance
_geom_bond_site_symmetry_2
_ccdc_geom_bond_type
Li0 N17 1.990 . S
Li0 O60 1.956 . S
Li0 O61 1.970 . S
Li0 O62 1.961 . S
Li1 N25 1.990 . S
Li1 O60 1.970 . S
Li1 O61 1.956 . S
Li1 O63 1.961 . S
Li2 N47 1.990 . S
Li2 O60 1.961 . S
Li2 O62 1.956 . S
Li2 O63 1.970 . S
Li3 N53 1.990 . S
Li3 O61 1.961 . S
Li3 O62 1.970 . S
Li3 O63 1.956 . S
C4 C6 1.348 . S
C4 C7 1.356 . S
C4 O60 1.325 . S
N5 C8 1.314 . S
N5 C9 1.279 . S
C6 C4 1.348 . S
C6 C8 1.353 . S
C6 H64 0.929 . S
C7 C4 1.356 . S
C7 C9 1.358 . S
C7 H65 0.930 . S
C8 N5 1.314 . S
C8 C6 1.353 . S
C8 H66 0.930 . S
C9 N5 1.279 . S
C9 C7 1.358 . S
C9 H67 0.886 1_554 S
C10 C13 1.348 . S
C10 C14 1.356 . S
C10 O61 1.325 . S
C11 N12 1.279 . S
C11 C14 1.358 . S
C11 H68 0.930 . S
N12 C11 1.279 . S
N12 C15 1.314 . S
C13 C10 1.348 . S
C13 C15 1.353 . S
C13 H69 0.929 . S
C14 C10 1.356 . S
C14 C11 1.358 . S
C14 H70 0.930 . S
C15 N12 1.314 . S
C15 C13 1.353 . S
C15 H71 0.930 . S
C16 N17 1.314 . S
C16 C21 1.353 . S
C16 H22 0.930 . S
N17 Li0 1.990 . S
N17 C16 1.314 . S
N17 C19 1.279 . S
C18 C19 1.358 . S
C18 C20 1.356 . S
C18 H72 0.930 . S
C19 N17 1.279 . S
C19 C18 1.358 . S
C19 H23 0.930 . S
C20 C18 1.356 . S
C20 C21 1.348 . S
C21 C16 1.353 . S
C21 C20 1.348 . S
C21 H73 0.929 . S
H22 C16 0.930 . S
H23 C19 0.930 . S
C24 N25 1.314 . S
C24 C26 1.353 . S
C24 H30 0.930 . S
N25 Li1 1.990 . S
N25 C24 1.314 . S
N25 C28 1.279 . S
C26 C24 1.353 . S
C26 C29 1.348 . S
C26 H74 0.929 . S
C27 C28 1.358 . S
C27 C29 1.356 . S
C27 H75 0.930 . S
C28 N25 1.279 . S
C28 C27 1.358 . S
C28 H31 0.930 . S
C29 C26 1.348 . S
C29 C27 1.356 . S
H30 C24 0.930 . S
H31 C28 0.930 . S
C32 C34 1.348 . S
C32 C35 1.356 . S
C32 O62 1.325 . S
N33 C36 1.314 . S
N33 C37 1.279 . S
C34 C32 1.348 . S
C34 C36 1.353 . S
C34 H76 0.929 . S
C35 C32 1.356 . S
C35 C37 1.358 . S
C35 H77 0.930 . S
C36 N33 1.314 . S
C36 C34 1.353 . S
C36 H78 0.930 . S
C37 N33 1.279 . S
C37 C35 1.358 . S
C37 H79 0.930 . S
C38 C39 1.348 . S
C38 C40 1.356 . S
C38 O63 1.325 . S
C39 C38 1.348 . S
C39 C41 1.353 . S
C39 H80 0.929 . S
C40 C38 1.356 . S
C40 C42 1.358 . S
C40 H81 0.930 . S
C41 C39 1.353 . S
C41 N43 1.314 . S
C41 H82 0.930 . S
C42 C40 1.358 . S
C42 N43 1.279 . S
C42 H83 0.930 . S
N43 C41 1.314 . S
N43 C42 1.279 . S
C44 C46 1.353 . S
C44 N47 1.314 . S
C44 H50 0.930 . S
C45 N47 1.279 . S
C45 C48 1.358 . S
C45 H51 0.930 . S
C46 C44 1.353 . S
C46 C49 1.348 . S
C46 H84 0.929 . S
N47 Li2 1.990 . S
N47 C44 1.314 . S
N47 C45 1.279 . S
C48 C45 1.358 . S
C48 C49 1.356 . S
C48 H85 0.930 . S
C49 C46 1.348 . S
C49 C48 1.356 . S
H50 C44 0.930 . S
H51 C45 0.930 . S
C52 N53 1.314 . S
C52 C54 1.353 . S
C52 H58 0.930 . S
N53 Li3 1.990 . S
N53 C52 1.314 . S
N53 C56 1.279 . S
C54 C52 1.353 . S
C54 C57 1.348 . S
C54 H86 0.929 . S
C55 C56 1.358 . S
C55 C57 1.356 . S
C55 H87 0.930 . S
C56 N53 1.279 . S
C56 C55 1.358 . S
C56 H59 0.930 . S
C57 C54 1.348 . S
C57 C55 1.356 . S
H58 C52 0.930 . S
H59 C56 0.930 . S
O60 Li0 1.956 . S
O60 Li1 1.970 . S
O60 Li2 1.961 . S
O60 C4 1.325 . S
O61 Li0 1.970 . S
O61 Li1 1.956 . S
O61 Li3 1.961 . S
O61 C10 1.325 . S
O62 Li0 1.961 . S
O62 Li2 1.956 . S
O62 Li3 1.970 . S
O62 C32 1.325 . S
O63 Li1 1.961 . S
O63 Li2 1.970 . S
O63 Li3 1.956 . S
O63 C38 1.325 . S
H64 C6 0.929 . S
H65 C7 0.930 . S
H66 C8 0.930 . S
H67 C9 0.886 1_556 S
H68 C11 0.930 . S
H69 C13 0.929 . S
H70 C14 0.930 . S
H71 C15 0.930 . S
H72 C18 0.930 . S
H73 C21 0.929 . S
H74 C26 0.929 . S
H75 C27 0.930 . S
H76 C34 0.929 . S
H77 C35 0.930 . S
H78 C36 0.930 . S
H79 C37 0.930 . S
H80 C39 0.929 . S
H81 C40 0.930 . S
H82 C41 0.930 . S
H83 C42 0.930 . S
H84 C46 0.929 . S
H85 C48 0.930 . S
H86 C54 0.929 . S
H87 C55 0.930 . S
Li88 N105 1.990 . S
Li88 O148 1.956 . S
Li88 O149 1.970 . S
Li88 O150 1.961 . S
Li89 N113 1.990 . S
Li89 O148 1.970 . S
Li89 O149 1.956 . S
Li89 O151 1.961 . S
Li90 N135 1.990 . S
Li90 O148 1.961 . S
Li90 O150 1.956 . S
Li90 O151 1.970 . S
Li91 N141 1.990 . S
Li91 O149 1.961 . S
Li91 O150 1.970 . S
Li91 O151 1.956 . S
C92 C94 1.348 . S
C92 C95 1.356 . S
C92 O148 1.325 . S
N93 C96 1.314 . S
N93 C97 1.279 . S
C94 C92 1.348 . S
C94 C96 1.353 . S
C94 H152 0.929 . S
C95 C92 1.356 . S
C95 C97 1.358 . S
C95 H153 0.930 . S
C96 N93 1.314 . S
C96 C94 1.353 . S
C96 H154 0.930 . S
C97 N93 1.279 . S
C97 C95 1.358 . S
C97 H155 0.930 . S
C98 C101 1.348 . S
C98 C102 1.356 . S
C98 O149 1.325 . S
C99 N100 1.279 . S
C99 C102 1.358 . S
C99 H156 0.930 . S
N100 C99 1.279 . S
N100 C103 1.314 . S
C101 C98 1.348 . S
C101 C103 1.353 . S
C101 H157 0.929 . S
C102 C98 1.356 . S
C102 C99 1.358 . S
C102 H158 0.930 . S
C103 N100 1.314 . S
C103 C101 1.353 . S
C103 H159 0.930 . S
C104 N105 1.314 . S
C104 C109 1.353 . S
C104 H110 0.930 . S
N105 Li88 1.990 . S
N105 C104 1.314 . S
N105 C107 1.279 . S
C106 C107 1.358 . S
C106 C108 1.356 . S
C106 H160 0.930 . S
C107 N105 1.279 . S
C107 C106 1.358 . S
C107 H111 0.930 . S
C108 C106 1.356 . S
C108 C109 1.348 . S
C109 C104 1.353 . S
C109 C108 1.348 . S
C109 H161 0.929 . S
H110 C104 0.930 . S
H111 C107 0.930 . S
C112 N113 1.314 . S
C112 C114 1.353 . S
C112 H118 0.930 . S
N113 Li89 1.990 . S
N113 C112 1.314 . S
N113 C116 1.279 . S
C114 C112 1.353 . S
C114 C117 1.348 . S
C114 H162 0.929 . S
C115 C116 1.358 . S
C115 C117 1.356 . S
C115 H163 0.930 . S
C116 N113 1.279 . S
C116 C115 1.358 . S
C116 H119 0.930 . S
C117 C114 1.348 . S
C117 C115 1.356 . S
H118 C112 0.930 . S
H119 C116 0.930 . S
C120 C122 1.348 . S
C120 C123 1.356 . S
C120 O150 1.325 . S
N121 C124 1.314 . S
N121 C125 1.279 . S
C122 C120 1.348 . S
C122 C124 1.353 . S
C122 H164 0.929 . S
C123 C120 1.356 . S
C123 C125 1.358 . S
C123 H165 0.930 . S
C124 N121 1.314 . S
C124 C122 1.353 . S
C124 H166 0.930 . S
C125 N121 1.279 . S
C125 C123 1.358 . S
C125 H167 0.930 . S
C126 C127 1.348 . S
C126 C128 1.356 . S
C126 O151 1.325 . S
C127 C126 1.348 . S
C127 C129 1.353 . S
C127 H168 0.929 . S
C128 C126 1.356 . S
C128 C130 1.358 . S
C128 H169 0.930 . S
C129 C127 1.353 . S
C129 N131 1.314 . S
C129 H170 0.930 . S
C130 C128 1.358 . S
C130 N131 1.279 . S
C130 H171 0.930 . S
N131 C129 1.314 . S
N131 C130 1.279 . S
C132 C134 1.353 . S
C132 N135 1.314 . S
C132 H138 0.930 . S
C133 N135 1.279 . S
C133 C136 1.358 . S
C133 H139 0.930 . S
C134 C132 1.353 . S
C134 C137 1.348 . S
C134 H172 0.929 . S
N135 Li90 1.990 . S
N135 C132 1.314 . S
N135 C133 1.279 . S
C136 C133 1.358 . S
C136 C137 1.356 . S
C136 H173 0.930 . S
C137 C134 1.348 . S
C137 C136 1.356 . S
H138 C132 0.930 . S
H139 C133 0.930 . S
C140 N141 1.314 . S
C140 C142 1.353 . S
C140 H146 0.930 . S
N141 Li91 1.990 . S
N141 C140 1.314 . S
N141 C144 1.279 . S
C142 C140 1.353 . S
C142 C145 1.348 . S
C142 H174 0.929 . S
C143 C144 1.358 . S
C143 C145 1.356 . S
C143 H175 0.930 . S
C144 N141 1.279 . S
C144 C143 1.358 . S
C144 H147 0.930 . S
C145 C142 1.348 . S
C145 C143 1.356 . S
H146 C140 0.930 . S
H147 C144 0.930 . S
O148 Li88 1.956 . S
O148 Li89 1.970 . S
O148 Li90 1.961 . S
O148 C92 1.325 . S
O149 Li88 1.970 . S
O149 Li89 1.956 . S
O149 Li91 1.961 . S
O149 C98 1.325 . S
O150 Li88 1.961 . S
O150 Li90 1.956 . S
O150 Li91 1.970 . S
O150 C120 1.325 . S
O151 Li89 1.961 . S
O151 Li90 1.970 . S
O151 Li91 1.956 . S
O151 C126 1.325 . S
H152 C94 0.929 . S
H153 C95 0.930 . S
H154 C96 0.930 . S
H155 C97 0.930 . S
H156 C99 0.930 . S
H157 C101 0.929 . S
H158 C102 0.930 . S
H159 C103 0.930 . S
H160 C106 0.930 . S
H161 C109 0.929 . S
H162 C114 0.929 . S
H163 C115 0.930 . S
H164 C122 0.929 . S
H165 C123 0.930 . S
H166 C124 0.930 . S
H167 C125 0.930 . S
H168 C127 0.929 . S
H169 C128 0.930 . S
H170 C129 0.930 . S
H171 C130 0.930 . S
H172 C134 0.929 . S
H173 C136 0.930 . S
H174 C142 0.929 . S
H175 C143 0.930 . S
Li176 N193 1.990 . S
Li176 O236 1.956 . S
Li176 O237 1.970 . S
Li176 O238 1.961 . S
Li177 N201 1.990 . S
Li177 O236 1.970 . S
Li177 O237 1.956 . S
Li177 O239 1.961 . S
Li178 N223 1.990 . S
Li178 O236 1.961 . S
Li178 O238 1.956 . S
Li178 O239 1.970 . S
Li179 N229 1.990 . S
Li179 O237 1.961 . S
Li179 O238 1.970 . S
Li179 O239 1.956 . S
C180 C182 1.348 . S
C180 C183 1.356 . S
C180 O236 1.325 . S
N181 C184 1.314 . S
N181 C185 1.279 . S
C182 C180 1.348 . S
C182 C184 1.353 . S
C182 H240 0.929 . S
C183 C180 1.356 . S
C183 C185 1.358 . S
C183 H241 0.930 . S
C184 N181 1.314 . S
C184 C182 1.353 . S
C184 H242 0.930 . S
C185 N181 1.279 . S
C185 C183 1.358 . S
C185 H243 0.930 . S
C186 C189 1.348 . S
C186 C190 1.356 . S
C186 O237 1.325 . S
C187 N188 1.279 . S
C187 C190 1.358 . S
C187 H244 0.930 . S
N188 C187 1.279 . S
N188 C191 1.314 . S
C189 C186 1.348 . S
C189 C191 1.353 . S
C189 H245 0.929 . S
C190 C186 1.356 . S
C190 C187 1.358 . S
C190 H246 0.930 . S
C191 N188 1.314 . S
C191 C189 1.353 . S
C191 H247 0.930 . S
C192 N193 1.314 . S
C192 C197 1.353 . S
C192 H198 0.930 . S
N193 Li176 1.990 . S
N193 C192 1.314 . S
N193 C195 1.279 . S
C194 C195 1.358 . S
C194 C196 1.356 . S
C194 H248 0.930 . S
C195 N193 1.279 . S
C195 C194 1.358 . S
C195 H199 0.930 . S
C196 C194 1.356 . S
C196 C197 1.348 . S
C197 C192 1.353 . S
C197 C196 1.348 . S
C197 H249 0.929 . S
H198 C192 0.930 . S
H199 C195 0.930 . S
C200 N201 1.314 . S
C200 C202 1.353 . S
C200 H206 0.930 . S
N201 Li177 1.990 . S
N201 C200 1.314 . S
N201 C204 1.279 . S
C202 C200 1.353 . S
C202 C205 1.348 . S
C202 H250 0.929 . S
C203 C204 1.358 . S
C203 C205 1.356 . S
C203 H251 0.930 . S
C204 N201 1.279 . S
C204 C203 1.358 . S
C204 H207 0.930 . S
C205 C202 1.348 . S
C205 C203 1.356 . S
H206 C200 0.930 . S
H207 C204 0.930 . S
C208 C210 1.348 . S
C208 C211 1.356 . S
C208 O238 1.325 . S
N209 C212 1.314 . S
N209 C213 1.279 . S
C210 C208 1.348 . S
C210 C212 1.353 . S
C210 H252 0.929 . S
C211 C208 1.356 . S
C211 C213 1.358 . S
C211 H253 0.930 . S
C212 N209 1.314 . S
C212 C210 1.353 . S
C212 H254 0.930 . S
C213 N209 1.279 . S
C213 C211 1.358 . S
C213 H255 0.930 . S
C214 C215 1.348 . S
C214 C216 1.356 . S
C214 O239 1.325 . S
C215 C214 1.348 . S
C215 C217 1.353 . S
C215 H256 0.929 . S
C216 C214 1.356 . S
C216 C218 1.358 . S
C216 H257 0.930 . S
C217 C215 1.353 . S
C217 N219 1.314 . S
C217 H258 0.930 . S
C218 C216 1.358 . S
C218 N219 1.279 . S
C218 H259 0.886 1_556 S
N219 C217 1.314 . S
N219 C218 1.279 . S
C220 C222 1.353 . S
C220 N223 1.314 . S
C220 H226 0.930 . S
C221 N223 1.279 . S
C221 C224 1.358 . S
C221 H227 0.930 . S
C222 C220 1.353 . S
C222 C225 1.348 . S
C222 H260 0.929 . S
N223 Li178 1.990 . S
N223 C220 1.314 . S
N223 C221 1.279 . S
C224 C221 1.358 . S
C224 C225 1.356 . S
C224 H261 0.930 . S
C225 C222 1.348 . S
C225 C224 1.356 . S
H226 C220 0.930 . S
H227 C221 0.930 . S
C228 N229 1.314 . S
C228 C230 1.353 . S
C228 H234 0.930 . S
N229 Li179 1.990 . S
N229 C228 1.314 . S
N229 C232 1.279 . S
C230 C228 1.353 . S
C230 C233 1.348 . S
C230 H262 0.929 . S
C231 C232 1.358 . S
C231 C233 1.356 . S
C231 H263 0.930 . S
C232 N229 1.279 . S
C232 C231 1.358 . S
C232 H235 0.930 . S
C233 C230 1.348 . S
C233 C231 1.356 . S
H234 C228 0.930 . S
H235 C232 0.930 . S
O236 Li176 1.956 . S
O236 Li177 1.970 . S
O236 Li178 1.961 . S
O236 C180 1.325 . S
O237 Li176 1.970 . S
O237 Li177 1.956 . S
O237 Li179 1.961 . S
O237 C186 1.325 . S
O238 Li176 1.961 . S
O238 Li178 1.956 . S
O238 Li179 1.970 . S
O238 C208 1.325 . S
O239 Li177 1.961 . S
O239 Li178 1.970 . S
O239 Li179 1.956 . S
O239 C214 1.325 . S
H240 C182 0.929 . S
H241 C183 0.930 . S
H242 C184 0.930 . S
H243 C185 0.930 . S
H244 C187 0.930 . S
H245 C189 0.929 . S
H246 C190 0.930 . S
H247 C191 0.930 . S
H248 C194 0.930 . S
H249 C197 0.929 . S
H250 C202 0.929 . S
H251 C203 0.930 . S
H252 C210 0.929 . S
H253 C211 0.930 . S
H254 C212 0.930 . S
H255 C213 0.930 . S
H256 C215 0.929 . S
H257 C216 0.930 . S
H258 C217 0.930 . S
H259 C218 0.886 1_554 S
H260 C222 0.929 . S
H261 C224 0.930 . S
H262 C230 0.929 . S
H263 C231 0.930 . S
Li264 N281 1.990 . S
Li264 O324 1.956 . S
Li264 O325 1.970 . S
Li264 O326 1.961 . S
Li265 N289 1.990 . S
Li265 O324 1.970 . S
Li265 O325 1.956 . S
Li265 O327 1.961 . S
Li266 N311 1.990 . S
Li266 O324 1.961 . S
Li266 O326 1.956 . S
Li266 O327 1.970 . S
Li267 N317 1.990 . S
Li267 O325 1.961 . S
Li267 O326 1.970 . S
Li267 O327 1.956 . S
C268 C270 1.348 . S
C268 C271 1.356 . S
C268 O324 1.325 . S
N269 C272 1.314 . S
N269 C273 1.279 . S
C270 C268 1.348 . S
C270 C272 1.353 . S
C270 H328 0.929 . S
C271 C268 1.356 . S
C271 C273 1.358 . S
C271 H329 0.930 . S
C272 N269 1.314 . S
C272 C270 1.353 . S
C272 H330 0.930 . S
C273 N269 1.279 . S
C273 C271 1.358 . S
C273 H331 0.930 . S
C274 C277 1.348 . S
C274 C278 1.356 . S
C274 O325 1.325 . S
C275 N276 1.279 . S
C275 C278 1.358 . S
C275 H332 0.930 . S
N276 C275 1.279 . S
N276 C279 1.314 . S
C277 C274 1.348 . S
C277 C279 1.353 . S
C277 H333 0.929 . S
C278 C274 1.356 . S
C278 C275 1.358 . S
C278 H334 0.930 . S
C279 N276 1.314 . S
C279 C277 1.353 . S
C279 H335 0.930 . S
C280 N281 1.314 . S
C280 C285 1.353 . S
C280 H286 0.930 . S
N281 Li264 1.990 . S
N281 C280 1.314 . S
N281 C283 1.279 . S
C282 C283 1.358 . S
C282 C284 1.356 . S
C282 H336 0.930 . S
C283 N281 1.279 . S
C283 C282 1.358 . S
C283 H287 0.930 . S
C284 C282 1.356 . S
C284 C285 1.348 . S
C285 C280 1.353 . S
C285 C284 1.348 . S
C285 H337 0.929 . S
H286 C280 0.930 . S
H287 C283 0.930 . S
C288 N289 1.314 . S
C288 C290 1.353 . S
C288 H294 0.930 . S
N289 Li265 1.990 . S
N289 C288 1.314 . S
N289 C292 1.279 . S
C290 C288 1.353 . S
C290 C293 1.348 . S
C290 H338 0.929 . S
C291 C292 1.358 . S
C291 C293 1.356 . S
C291 H339 0.930 . S
C292 N289 1.279 . S
C292 C291 1.358 . S
C292 H295 0.930 . S
C293 C290 1.348 . S
C293 C291 1.356 . S
H294 C288 0.930 . S
H295 C292 0.930 . S
C296 C298 1.348 . S
C296 C299 1.356 . S
C296 O326 1.325 . S
N297 C300 1.314 . S
N297 C301 1.279 . S
C298 C296 1.348 . S
C298 C300 1.353 . S
C298 H340 0.929 . S
C299 C296 1.356 . S
C299 C301 1.358 . S
C299 H341 0.930 . S
C300 N297 1.314 . S
C300 C298 1.353 . S
C300 H342 0.930 . S
C301 N297 1.279 . S
C301 C299 1.358 . S
C301 H343 0.930 . S
C302 C303 1.348 . S
C302 C304 1.356 . S
C302 O327 1.325 . S
C303 C302 1.348 . S
C303 C305 1.353 . S
C303 H344 0.929 . S
C304 C302 1.356 . S
C304 C306 1.358 . S
C304 H345 0.930 . S
C305 C303 1.353 . S
C305 N307 1.314 . S
C305 H346 0.930 . S
C306 C304 1.358 . S
C306 N307 1.279 . S
C306 H347 0.930 . S
N307 C305 1.314 . S
N307 C306 1.279 . S
C308 C310 1.353 . S
C308 N311 1.314 . S
C308 H314 0.930 . S
C309 N311 1.279 . S
C309 C312 1.358 . S
C309 H315 0.930 . S
C310 C308 1.353 . S
C310 C313 1.348 . S
C310 H348 0.929 . S
N311 Li266 1.990 . S
N311 C308 1.314 . S
N311 C309 1.279 . S
C312 C309 1.358 . S
C312 C313 1.356 . S
C312 H349 0.930 . S
C313 C310 1.348 . S
C313 C312 1.356 . S
H314 C308 0.930 . S
H315 C309 0.930 . S
C316 N317 1.314 . S
C316 C318 1.353 . S
C316 H322 0.930 . S
N317 Li267 1.990 . S
N317 C316 1.314 . S
N317 C320 1.279 . S
C318 C316 1.353 . S
C318 C321 1.348 . S
C318 H350 0.929 . S
C319 C320 1.358 . S
C319 C321 1.356 . S
C319 H351 0.930 . S
C320 N317 1.279 . S
C320 C319 1.358 . S
C320 H323 0.930 . S
C321 C318 1.348 . S
C321 C319 1.356 . S
H322 C316 0.930 . S
H323 C320 0.930 . S
O324 Li264 1.956 . S
O324 Li265 1.970 . S
O324 Li266 1.961 . S
O324 C268 1.325 . S
O325 Li264 1.970 . S
O325 Li265 1.956 . S
O325 Li267 1.961 . S
O325 C274 1.325 . S
O326 Li264 1.961 . S
O326 Li266 1.956 . S
O326 Li267 1.970 . S
O326 C296 1.325 . S
O327 Li265 1.961 . S
O327 Li266 1.970 . S
O327 Li267 1.956 . S
O327 C302 1.325 . S
H328 C270 0.929 . S
H329 C271 0.930 . S
H330 C272 0.930 . S
H331 C273 0.930 . S
H332 C275 0.930 . S
H333 C277 0.929 . S
H334 C278 0.930 . S
H335 C279 0.930 . S
H336 C282 0.930 . S
H337 C285 0.929 . S
H338 C290 0.929 . S
H339 C291 0.930 . S
H340 C298 0.929 . S
H341 C299 0.930 . S
H342 C300 0.930 . S
H343 C301 0.930 . S
H344 C303 0.929 . S
H345 C304 0.930 . S
H346 C305 0.930 . S
H347 C306 0.930 . S
H348 C310 0.929 . S
H349 C312 0.930 . S
H350 C318 0.929 . S
H351 C319 0.930 . S
Li352 N369 1.990 . S
Li352 O412 1.956 . S
Li352 O413 1.970 . S
Li352 O414 1.961 . S
Li353 N377 1.990 . S
Li353 O412 1.970 . S
Li353 O413 1.956 . S
Li353 O415 1.961 . S
Li354 N399 1.990 . S
Li354 O412 1.961 . S
Li354 O414 1.956 . S
Li354 O415 1.970 . S
Li355 N405 1.990 . S
Li355 O413 1.961 . S
Li355 O414 1.970 . S
Li355 O415 1.956 . S
C356 C358 1.348 . S
C356 C359 1.356 . S
C356 O412 1.325 . S
N357 C360 1.314 . S
N357 C361 1.279 . S
C358 C356 1.348 . S
C358 C360 1.353 . S
C358 H416 0.929 . S
C359 C356 1.356 . S
C359 C361 1.358 . S
C359 H417 0.930 . S
C360 N357 1.314 . S
C360 C358 1.353 . S
C360 H418 0.930 . S
C361 N357 1.279 . S
C361 C359 1.358 . S
C361 H419 0.930 . S
C362 C365 1.348 . S
C362 C366 1.356 . S
C362 O413 1.325 . S
C363 N364 1.279 . S
C363 C366 1.358 . S
C363 H420 0.930 . S
N364 C363 1.279 . S
N364 C367 1.314 . S
C365 C362 1.348 . S
C365 C367 1.353 . S
C365 H421 0.929 . S
C366 C362 1.356 . S
C366 C363 1.358 . S
C366 H422 0.930 . S
C367 N364 1.314 . S
C367 C365 1.353 . S
C367 H423 0.930 . S
C368 N369 1.314 . S
C368 C373 1.353 . S
C368 H374 0.930 . S
N369 Li352 1.990 . S
N369 C368 1.314 . S
N369 C371 1.279 . S
C370 C371 1.358 . S
C370 C372 1.356 . S
C370 H424 0.930 . S
C371 N369 1.279 . S
C371 C370 1.358 . S
C371 H375 0.930 . S
C372 C370 1.356 . S
C372 C373 1.348 . S
C373 C368 1.353 . S
C373 C372 1.348 . S
C373 H425 0.929 . S
H374 C368 0.930 . S
H375 C371 0.930 . S
C376 N377 1.314 . S
C376 C378 1.353 . S
C376 H382 0.930 . S
N377 Li353 1.990 . S
N377 C376 1.314 . S
N377 C380 1.279 . S
C378 C376 1.353 . S
C378 C381 1.348 . S
C378 H426 0.929 . S
C379 C380 1.358 . S
C379 C381 1.356 . S
C379 H427 0.930 . S
C380 N377 1.279 . S
C380 C379 1.358 . S
C380 H383 0.930 . S
C381 C378 1.348 . S
C381 C379 1.356 . S
H382 C376 0.930 . S
H383 C380 0.930 . S
C384 C386 1.348 . S
C384 C387 1.356 . S
C384 O414 1.325 . S
N385 C388 1.314 . S
N385 C389 1.279 . S
C386 C384 1.348 . S
C386 C388 1.353 . S
C386 H428 0.929 . S
C387 C384 1.356 . S
C387 C389 1.358 . S
C387 H429 0.930 . S
C388 N385 1.314 . S
C388 C386 1.353 . S
C388 H430 0.930 . S
C389 N385 1.279 . S
C389 C387 1.358 . S
C389 H431 0.930 . S
C390 C391 1.348 . S
C390 C392 1.356 . S
C390 O415 1.325 . S
C391 C390 1.348 . S
C391 C393 1.353 . S
C391 H432 0.929 . S
C392 C390 1.356 . S
C392 C394 1.358 . S
C392 H433 0.930 . S
C393 C391 1.353 . S
C393 N395 1.314 . S
C393 H434 0.930 . S
C394 C392 1.358 . S
C394 N395 1.279 . S
C394 H435 0.930 . S
N395 C393 1.314 . S
N395 C394 1.279 . S
C396 C398 1.353 . S
C396 N399 1.314 . S
C396 H402 0.930 . S
C397 N399 1.279 . S
C397 C400 1.358 . S
C397 H403 0.930 . S
C398 C396 1.353 . S
C398 C401 1.348 . S
C398 H436 0.929 . S
N399 Li354 1.990 . S
N399 C396 1.314 . S
N399 C397 1.279 . S
C400 C397 1.358 . S
C400 C401 1.356 . S
C400 H437 0.930 . S
C401 C398 1.348 . S
C401 C400 1.356 . S
H402 C396 0.930 . S
H403 C397 0.930 . S
C404 N405 1.314 . S
C404 C406 1.353 . S
C404 H410 0.930 . S
N405 Li355 1.990 . S
N405 C404 1.314 . S
N405 C408 1.279 . S
C406 C404 1.353 . S
C406 C409 1.348 . S
C406 H438 0.929 . S
C407 C408 1.358 . S
C407 C409 1.356 . S
C407 H439 0.930 . S
C408 N405 1.279 . S
C408 C407 1.358 . S
C408 H411 0.930 . S
C409 C406 1.348 . S
C409 C407 1.356 . S
H410 C404 0.930 . S
H411 C408 0.930 . S
O412 Li352 1.956 . S
O412 Li353 1.970 . S
O412 Li354 1.961 . S
O412 C356 1.325 . S
O413 Li352 1.970 . S
O413 Li353 1.956 . S
O413 Li355 1.961 . S
O413 C362 1.325 . S
O414 Li352 1.961 . S
O414 Li354 1.956 . S
O414 Li355 1.970 . S
O414 C384 1.325 . S
O415 Li353 1.961 . S
O415 Li354 1.970 . S
O415 Li355 1.956 . S
O415 C390 1.325 . S
H416 C358 0.929 . S
H417 C359 0.930 . S
H418 C360 0.930 . S
H419 C361 0.930 . S
H420 C363 0.930 . S
H421 C365 0.929 . S
H422 C366 0.930 . S
H423 C367 0.930 . S
H424 C370 0.930 . S
H425 C373 0.929 . S
H426 C378 0.929 . S
H427 C379 0.930 . S
H428 C386 0.929 . S
H429 C387 0.930 . S
H430 C388 0.930 . S
H431 C389 0.930 . S
H432 C391 0.929 . S
H433 C392 0.930 . S
H434 C393 0.930 . S
H435 C394 0.930 . S
H436 C398 0.929 . S
H437 C400 0.930 . S
H438 C406 0.929 . S
H439 C407 0.930 . S
Li440 N457 1.990 . S
Li440 O500 1.956 . S
Li440 O501 1.970 . S
Li440 O502 1.961 . S
Li441 N465 1.990 . S
Li441 O500 1.970 . S
Li441 O501 1.956 . S
Li441 O503 1.961 . S
Li442 N487 1.990 . S
Li442 O500 1.961 . S
Li442 O502 1.956 . S
Li442 O503 1.970 . S
Li443 N493 1.990 . S
Li443 O501 1.961 . S
Li443 O502 1.970 . S
Li443 O503 1.956 . S
C444 C446 1.348 . S
C444 C447 1.356 . S
C444 O500 1.325 . S
N445 C448 1.314 . S
N445 C449 1.279 . S
C446 C444 1.348 . S
C446 C448 1.353 . S
C446 H504 0.929 . S
C447 C444 1.356 . S
C447 C449 1.358 . S
C447 H505 0.930 . S
C448 N445 1.314 . S
C448 C446 1.353 . S
C448 H506 0.930 . S
C449 N445 1.279 . S
C449 C447 1.358 . S
C449 H507 0.930 . S
C450 C453 1.348 . S
C450 C454 1.356 . S
C450 O501 1.325 . S
C451 N452 1.279 . S
C451 C454 1.358 . S
C451 H508 0.930 . S
N452 C451 1.279 . S
N452 C455 1.314 . S
C453 C450 1.348 . S
C453 C455 1.353 . S
C453 H509 0.929 . S
C454 C450 1.356 . S
C454 C451 1.358 . S
C454 H510 0.930 . S
C455 N452 1.314 . S
C455 C453 1.353 . S
C455 H511 0.930 . S
C456 N457 1.314 . S
C456 C461 1.353 . S
C456 H462 0.930 . S
N457 Li440 1.990 . S
N457 C456 1.314 . S
N457 C459 1.279 . S
C458 C459 1.358 . S
C458 C460 1.356 . S
C458 H512 0.930 . S
C459 N457 1.279 . S
C459 C458 1.358 . S
C459 H463 0.930 . S
C460 C458 1.356 . S
C460 C461 1.348 . S
C461 C456 1.353 . S
C461 C460 1.348 . S
C461 H513 0.929 . S
H462 C456 0.930 . S
H463 C459 0.930 . S
C464 N465 1.314 . S
C464 C466 1.353 . S
C464 H470 0.930 . S
N465 Li441 1.990 . S
N465 C464 1.314 . S
N465 C468 1.279 . S
C466 C464 1.353 . S
C466 C469 1.348 . S
C466 H514 0.929 . S
C467 C468 1.358 . S
C467 C469 1.356 . S
C467 H515 0.930 . S
C468 N465 1.279 . S
C468 C467 1.358 . S
C468 H471 0.930 . S
C469 C466 1.348 . S
C469 C467 1.356 . S
H470 C464 0.930 . S
H471 C468 0.930 . S
C472 C474 1.348 . S
C472 C475 1.356 . S
C472 O502 1.325 . S
N473 C476 1.314 . S
N473 C477 1.279 . S
C474 C472 1.348 . S
C474 C476 1.353 . S
C474 H516 0.929 . S
C475 C472 1.356 . S
C475 C477 1.358 . S
C475 H517 0.930 . S
C476 N473 1.314 . S
C476 C474 1.353 . S
C476 H518 0.930 . S
C477 N473 1.279 . S
C477 C475 1.358 . S
C477 H519 0.930 . S
C478 C479 1.348 . S
C478 C480 1.356 . S
C478 O503 1.325 . S
C479 C478 1.348 . S
C479 C481 1.353 . S
C479 H520 0.929 . S
C480 C478 1.356 . S
C480 C482 1.358 . S
C480 H521 0.930 . S
C481 C479 1.353 . S
C481 N483 1.314 . S
C481 H522 0.930 . S
C482 C480 1.358 . S
C482 N483 1.279 . S
C482 H523 0.930 . S
N483 C481 1.314 . S
N483 C482 1.279 . S
C484 C486 1.353 . S
C484 N487 1.314 . S
C484 H490 0.930 . S
C485 N487 1.279 . S
C485 C488 1.358 . S
C485 H491 0.930 . S
C486 C484 1.353 . S
C486 C489 1.348 . S
C486 H524 0.929 . S
N487 Li442 1.990 . S
N487 C484 1.314 . S
N487 C485 1.279 . S
C488 C485 1.358 . S
C488 C489 1.356 . S
C488 H525 0.930 . S
C489 C486 1.348 . S
C489 C488 1.356 . S
H490 C484 0.930 . S
H491 C485 0.930 . S
C492 N493 1.314 . S
C492 C494 1.353 . S
C492 H498 0.930 . S
N493 Li443 1.990 . S
N493 C492 1.314 . S
N493 C496 1.279 . S
C494 C492 1.353 . S
C494 C497 1.348 . S
C494 H526 0.929 . S
C495 C496 1.358 . S
C495 C497 1.356 . S
C495 H527 0.930 . S
C496 N493 1.279 . S
C496 C495 1.358 . S
C496 H499 0.930 . S
C497 C494 1.348 . S
C497 C495 1.356 . S
H498 C492 0.930 . S
H499 C496 0.930 . S
O500 Li440 1.956 . S
O500 Li441 1.970 . S
O500 Li442 1.961 . S
O500 C444 1.325 . S
O501 Li440 1.970 . S
O501 Li441 1.956 . S
O501 Li443 1.961 . S
O501 C450 1.325 . S
O502 Li440 1.961 . S
O502 Li442 1.956 . S
O502 Li443 1.970 . S
O502 C472 1.325 . S
O503 Li441 1.961 . S
O503 Li442 1.970 . S
O503 Li443 1.956 . S
O503 C478 1.325 . S
H504 C446 0.929 . S
H505 C447 0.930 . S
H506 C448 0.930 . S
H507 C449 0.930 . S
H508 C451 0.930 . S
H509 C453 0.929 . S
H510 C454 0.930 . S
H511 C455 0.930 . S
H512 C458 0.930 . S
H513 C461 0.929 . S
H514 C466 0.929 . S
H515 C467 0.930 . S
H516 C474 0.929 . S
H517 C475 0.930 . S
H518 C476 0.930 . S
H519 C477 0.930 . S
H520 C479 0.929 . S
H521 C480 0.930 . S
H522 C481 0.930 . S
H523 C482 0.930 . S
H524 C486 0.929 . S
H525 C488 0.930 . S
H526 C494 0.929 . S
H527 C495 0.930 . S
Li528 N545 1.990 . S
Li528 O588 1.956 . S
Li528 O589 1.970 . S
Li528 O590 1.961 . S
Li529 N553 1.990 . S
Li529 O588 1.970 . S
Li529 O589 1.956 . S
Li529 O591 1.961 . S
Li530 N575 1.990 . S
Li530 O588 1.961 . S
Li530 O590 1.956 . S
Li530 O591 1.970 . S
Li531 N581 1.990 . S
Li531 O589 1.961 . S
Li531 O590 1.970 . S
Li531 O591 1.956 . S
C532 C534 1.348 . S
C532 C535 1.356 . S
C532 O588 1.325 . S
N533 C536 1.314 . S
N533 C537 1.279 . S
C534 C532 1.348 . S
C534 C536 1.353 . S
C534 H592 0.929 . S
C535 C532 1.356 . S
C535 C537 1.358 . S
C535 H593 0.930 . S
C536 N533 1.314 . S
C536 C534 1.353 . S
C536 H594 0.930 . S
C537 N533 1.279 . S
C537 C535 1.358 . S
C537 H595 0.930 . S
C538 C541 1.348 . S
C538 C542 1.356 . S
C538 O589 1.325 . S
C539 N540 1.279 . S
C539 C542 1.358 . S
C539 H596 0.930 . S
N540 C539 1.279 . S
N540 C543 1.314 . S
C541 C538 1.348 . S
C541 C543 1.353 . S
C541 H597 0.929 . S
C542 C538 1.356 . S
C542 C539 1.358 . S
C542 H598 0.930 . S
C543 N540 1.314 . S
C543 C541 1.353 . S
C543 H599 0.930 . S
C544 N545 1.314 . S
C544 C549 1.353 . S
C544 H550 0.930 . S
N545 Li528 1.990 . S
N545 C544 1.314 . S
N545 C547 1.279 . S
C546 C547 1.358 . S
C546 C548 1.356 . S
C546 H600 0.930 . S
C547 N545 1.279 . S
C547 C546 1.358 . S
C547 H551 0.930 . S
C548 C546 1.356 . S
C548 C549 1.348 . S
C549 C544 1.353 . S
C549 C548 1.348 . S
C549 H601 0.929 . S
H550 C544 0.930 . S
H551 C547 0.930 . S
C552 N553 1.314 . S
C552 C554 1.353 . S
C552 H558 0.930 . S
N553 Li529 1.990 . S
N553 C552 1.314 . S
N553 C556 1.279 . S
C554 C552 1.353 . S
C554 C557 1.348 . S
C554 H602 0.929 . S
C555 C556 1.358 . S
C555 C557 1.356 . S
C555 H603 0.930 . S
C556 N553 1.279 . S
C556 C555 1.358 . S
C556 H559 0.930 . S
C557 C554 1.348 . S
C557 C555 1.356 . S
H558 C552 0.930 . S
H559 C556 0.930 . S
C560 C562 1.348 . S
C560 C563 1.356 . S
C560 O590 1.325 . S
N561 C564 1.314 . S
N561 C565 1.279 . S
C562 C560 1.348 . S
C562 C564 1.353 . S
C562 H604 0.929 . S
C563 C560 1.356 . S
C563 C565 1.358 . S
C563 H605 0.930 . S
C564 N561 1.314 . S
C564 C562 1.353 . S
C564 H606 0.930 . S
C565 N561 1.279 . S
C565 C563 1.358 . S
C565 H607 0.930 . S
C566 C567 1.348 . S
C566 C568 1.356 . S
C566 O591 1.325 . S
C567 C566 1.348 . S
C567 C569 1.353 . S
C567 H608 0.929 . S
C568 C566 1.356 . S
C568 C570 1.358 . S
C568 H609 0.930 . S
C569 C567 1.353 . S
C569 N571 1.314 . S
C569 H610 0.930 . S
C570 C568 1.358 . S
C570 N571 1.279 . S
C570 H611 0.930 . S
N571 C569 1.314 . S
N571 C570 1.279 . S
C572 C574 1.353 . S
C572 N575 1.314 . S
C572 H578 0.930 . S
C573 N575 1.279 . S
C573 C576 1.358 . S
C573 H579 0.930 . S
C574 C572 1.353 . S
C574 C577 1.348 . S
C574 H612 0.929 . S
N575 Li530 1.990 . S
N575 C572 1.314 . S
N575 C573 1.279 . S
C576 C573 1.358 . S
C576 C577 1.356 . S
C576 H613 0.930 . S
C577 C574 1.348 . S
C577 C576 1.356 . S
H578 C572 0.930 . S
H579 C573 0.930 . S
C580 N581 1.314 . S
C580 C582 1.353 . S
C580 H586 0.930 . S
N581 Li531 1.990 . S
N581 C580 1.314 . S
N581 C584 1.279 . S
C582 C580 1.353 . S
C582 C585 1.348 . S
C582 H614 0.929 . S
C583 C584 1.358 . S
C583 C585 1.356 . S
C583 H615 0.930 . S
C584 N581 1.279 . S
C584 C583 1.358 . S
C584 H587 0.930 . S
C585 C582 1.348 . S
C585 C583 1.356 . S
H586 C580 0.930 . S
H587 C584 0.930 . S
O588 Li528 1.956 . S
O588 Li529 1.970 . S
O588 Li530 1.961 . S
O588 C532 1.325 . S
O589 Li528 1.970 . S
O589 Li529 1.956 . S
O589 Li531 1.961 . S
O589 C538 1.325 . S
O590 Li528 1.961 . S
O590 Li530 1.956 . S
O590 Li531 1.970 . S
O590 C560 1.325 . S
O591 Li529 1.961 . S
O591 Li530 1.970 . S
O591 Li531 1.956 . S
O591 C566 1.325 . S
H592 C534 0.929 . S
H593 C535 0.930 . S
H594 C536 0.930 . S
H595 C537 0.930 . S
H596 C539 0.930 . S
H597 C541 0.929 . S
H598 C542 0.930 . S
H599 C543 0.930 . S
H600 C546 0.930 . S
H601 C549 0.929 . S
H602 C554 0.929 . S
H603 C555 0.930 . S
H604 C562 0.929 . S
H605 C563 0.930 . S
H606 C564 0.930 . S
H607 C565 0.930 . S
H608 C567 0.929 . S
H609 C568 0.930 . S
H610 C569 0.930 . S
H611 C570 0.930 . S
H612 C574 0.929 . S
H613 C576 0.930 . S
H614 C582 0.929 . S
H615 C583 0.930 . S
Li616 N633 1.990 . S
Li616 O676 1.956 . S
Li616 O677 1.970 . S
Li616 O678 1.961 . S
Li617 N641 1.990 . S
Li617 O676 1.970 . S
Li617 O677 1.956 . S
Li617 O679 1.961 . S
Li618 N663 1.990 . S
Li618 O676 1.961 . S
Li618 O678 1.956 . S
Li618 O679 1.970 . S
Li619 N669 1.990 . S
Li619 O677 1.961 . S
Li619 O678 1.970 . S
Li619 O679 1.956 . S
C620 C622 1.348 . S
C620 C623 1.356 . S
C620 O676 1.325 . S
N621 C624 1.314 . S
N621 C625 1.279 . S
C622 C620 1.348 . S
C622 C624 1.353 . S
C622 H680 0.929 . S
C623 C620 1.356 . S
C623 C625 1.358 . S
C623 H681 0.930 . S
C624 N621 1.314 . S
C624 C622 1.353 . S
C624 H682 0.930 . S
C625 N621 1.279 . S
C625 C623 1.358 . S
C625 H683 0.930 . S
C626 C629 1.348 . S
C626 C630 1.356 . S
C626 O677 1.325 . S
C627 N628 1.279 . S
C627 C630 1.358 . S
C627 H684 0.930 . S
N628 C627 1.279 . S
N628 C631 1.314 . S
C629 C626 1.348 . S
C629 C631 1.353 . S
C629 H685 0.929 . S
C630 C626 1.356 . S
C630 C627 1.358 . S
C630 H686 0.930 . S
C631 N628 1.314 . S
C631 C629 1.353 . S
C631 H687 0.930 . S
C632 N633 1.314 . S
C632 C637 1.353 . S
C632 H638 0.930 . S
N633 Li616 1.990 . S
N633 C632 1.314 . S
N633 C635 1.279 . S
C634 C635 1.358 . S
C634 C636 1.356 . S
C634 H688 0.930 . S
C635 N633 1.279 . S
C635 C634 1.358 . S
C635 H639 0.930 . S
C636 C634 1.356 . S
C636 C637 1.348 . S
C637 C632 1.353 . S
C637 C636 1.348 . S
C637 H689 0.929 . S
H638 C632 0.930 . S
H639 C635 0.930 . S
C640 N641 1.314 . S
C640 C642 1.353 . S
C640 H646 0.930 . S
N641 Li617 1.990 . S
N641 C640 1.314 . S
N641 C644 1.279 . S
C642 C640 1.353 . S
C642 C645 1.348 . S
C642 H690 0.929 . S
C643 C644 1.358 . S
C643 C645 1.356 . S
C643 H691 0.930 . S
C644 N641 1.279 . S
C644 C643 1.358 . S
C644 H647 0.930 . S
C645 C642 1.348 . S
C645 C643 1.356 . S
H646 C640 0.930 . S
H647 C644 0.930 . S
C648 C650 1.348 . S
C648 C651 1.356 . S
C648 O678 1.325 . S
N649 C652 1.314 . S
N649 C653 1.279 . S
C650 C648 1.348 . S
C650 C652 1.353 . S
C650 H692 0.929 . S
C651 C648 1.356 . S
C651 C653 1.358 . S
C651 H693 0.930 . S
C652 N649 1.314 . S
C652 C650 1.353 . S
C652 H694 0.930 . S
C653 N649 1.279 . S
C653 C651 1.358 . S
C653 H695 0.930 . S
C654 C655 1.348 . S
C654 C656 1.356 . S
C654 O679 1.325 . S
C655 C654 1.348 . S
C655 C657 1.353 . S
C655 H696 0.929 . S
C656 C654 1.356 . S
C656 C658 1.358 . S
C656 H697 0.930 . S
C657 C655 1.353 . S
C657 N659 1.314 . S
C657 H698 0.930 . S
C658 C656 1.358 . S
C658 N659 1.279 . S
C658 H699 0.930 . S
N659 C657 1.314 . S
N659 C658 1.279 . S
C660 C662 1.353 . S
C660 N663 1.314 . S
C660 H666 0.930 . S
C661 N663 1.279 . S
C661 C664 1.358 . S
C661 H667 0.930 . S
C662 C660 1.353 . S
C662 C665 1.348 . S
C662 H700 0.929 . S
N663 Li618 1.990 . S
N663 C660 1.314 . S
N663 C661 1.279 . S
C664 C661 1.358 . S
C664 C665 1.356 . S
C664 H701 0.930 . S
C665 C662 1.348 . S
C665 C664 1.356 . S
H666 C660 0.930 . S
H667 C661 0.930 . S
C668 N669 1.314 . S
C668 C670 1.353 . S
C668 H674 0.930 . S
N669 Li619 1.990 . S
N669 C668 1.314 . S
N669 C672 1.279 . S
C670 C668 1.353 . S
C670 C673 1.348 . S
C670 H702 0.929 . S
C671 C672 1.358 . S
C671 C673 1.356 . S
C671 H703 0.930 . S
C672 N669 1.279 . S
C672 C671 1.358 . S
C672 H675 0.930 . S
C673 C670 1.348 . S
C673 C671 1.356 . S
H674 C668 0.930 . S
H675 C672 0.930 . S
O676 Li616 1.956 . S
O676 Li617 1.970 . S
O676 Li618 1.961 . S
O676 C620 1.325 . S
O677 Li616 1.970 . S
O677 Li617 1.956 . S
O677 Li619 1.961 . S
O677 C626 1.325 . S
O678 Li616 1.961 . S
O678 Li618 1.956 . S
O678 Li619 1.970 . S
O678 C648 1.325 . S
O679 Li617 1.961 . S
O679 Li618 1.970 . S
O679 Li619 1.956 . S
O679 C654 1.325 . S
H680 C622 0.929 . S
H681 C623 0.930 . S
H682 C624 0.930 . S
H683 C625 0.930 . S
H684 C627 0.930 . S
H685 C629 0.929 . S
H686 C630 0.930 . S
H687 C631 0.930 . S
H688 C634 0.930 . S
H689 C637 0.929 . S
H690 C642 0.929 . S
H691 C643 0.930 . S
H692 C650 0.929 . S
H693 C651 0.930 . S
H694 C652 0.930 . S
H695 C653 0.930 . S
H696 C655 0.929 . S
H697 C656 0.930 . S
H698 C657 0.930 . S
H699 C658 0.930 . S
H700 C662 0.929 . S
H701 C664 0.930 . S
H702 C670 0.929 . S
H703 C671 0.930 . S
Li704 N721 1.990 . S
Li704 O764 1.956 . S
Li704 O765 1.970 . S
Li704 O766 1.961 . S
Li705 N729 1.990 . S
Li705 O764 1.970 . S
Li705 O765 1.956 . S
Li705 O767 1.961 . S
Li706 N751 1.990 . S
Li706 O764 1.961 . S
Li706 O766 1.956 . S
Li706 O767 1.970 . S
Li707 N757 1.990 . S
Li707 O765 1.961 . S
Li707 O766 1.970 . S
Li707 O767 1.956 . S
C708 C710 1.348 . S
C708 C711 1.356 . S
C708 O764 1.325 . S
N709 C712 1.314 . S
N709 C713 1.279 . S
C710 C708 1.348 . S
C710 C712 1.353 . S
C710 H768 0.929 . S
C711 C708 1.356 . S
C711 C713 1.358 . S
C711 H769 0.930 . S
C712 N709 1.314 . S
C712 C710 1.353 . S
C712 H770 0.930 . S
C713 N709 1.279 . S
C713 C711 1.358 . S
C713 H771 0.886 1_554 S
C714 C717 1.348 . S
C714 C718 1.356 . S
C714 O765 1.325 . S
C715 N716 1.279 . S
C715 C718 1.358 . S
C715 H772 0.930 . S
N716 C715 1.279 . S
N716 C719 1.314 . S
C717 C714 1.348 . S
C717 C719 1.353 . S
C717 H773 0.929 . S
C718 C714 1.356 . S
C718 C715 1.358 . S
C718 H774 0.930 . S
C719 N716 1.314 . S
C719 C717 1.353 . S
C719 H775 0.930 . S
C720 N721 1.314 . S
C720 C725 1.353 . S
C720 H726 0.930 . S
N721 Li704 1.990 . S
N721 C720 1.314 . S
N721 C723 1.279 . S
C722 C723 1.358 . S
C722 C724 1.356 . S
C722 H776 0.930 . S
C723 N721 1.279 . S
C723 C722 1.358 . S
C723 H727 0.930 . S
C724 C722 1.356 . S
C724 C725 1.348 . S
C725 C720 1.353 . S
C725 C724 1.348 . S
C725 H777 0.929 . S
H726 C720 0.930 . S
H727 C723 0.930 . S
C728 N729 1.314 . S
C728 C730 1.353 . S
C728 H734 0.930 . S
N729 Li705 1.990 . S
N729 C728 1.314 . S
N729 C732 1.279 . S
C730 C728 1.353 . S
C730 C733 1.348 . S
C730 H778 0.929 . S
C731 C732 1.358 . S
C731 C733 1.356 . S
C731 H779 0.930 . S
C732 N729 1.279 . S
C732 C731 1.358 . S
C732 H735 0.930 . S
C733 C730 1.348 . S
C733 C731 1.356 . S
H734 C728 0.930 . S
H735 C732 0.930 . S
C736 C738 1.348 . S
C736 C739 1.356 . S
C736 O766 1.325 . S
N737 C740 1.314 . S
N737 C741 1.279 . S
C738 C736 1.348 . S
C738 C740 1.353 . S
C738 H780 0.929 . S
C739 C736 1.356 . S
C739 C741 1.358 . S
C739 H781 0.930 . S
C740 N737 1.314 . S
C740 C738 1.353 . S
C740 H782 0.930 . S
C741 N737 1.279 . S
C741 C739 1.358 . S
C741 H783 0.930 . S
C742 C743 1.348 . S
C742 C744 1.356 . S
C742 O767 1.325 . S
C743 C742 1.348 . S
C743 C745 1.353 . S
C743 H784 0.929 . S
C744 C742 1.356 . S
C744 C746 1.358 . S
C744 H785 0.930 . S
C745 C743 1.353 . S
C745 N747 1.314 . S
C745 H786 0.930 . S
C746 C744 1.358 . S
C746 N747 1.279 . S
C746 H787 0.930 . S
N747 C745 1.314 . S
N747 C746 1.279 . S
C748 C750 1.353 . S
C748 N751 1.314 . S
C748 H754 0.930 . S
C749 N751 1.279 . S
C749 C752 1.358 . S
C749 H755 0.930 . S
C750 C748 1.353 . S
C750 C753 1.348 . S
C750 H788 0.929 . S
N751 Li706 1.990 . S
N751 C748 1.314 . S
N751 C749 1.279 . S
C752 C749 1.358 . S
C752 C753 1.356 . S
C752 H789 0.930 . S
C753 C750 1.348 . S
C753 C752 1.356 . S
H754 C748 0.930 . S
H755 C749 0.930 . S
C756 N757 1.314 . S
C756 C758 1.353 . S
C756 H762 0.930 . S
N757 Li707 1.990 . S
N757 C756 1.314 . S
N757 C760 1.279 . S
C758 C756 1.353 . S
C758 C761 1.348 . S
C758 H790 0.929 . S
C759 C760 1.358 . S
C759 C761 1.356 . S
C759 H791 0.930 . S
C760 N757 1.279 . S
C760 C759 1.358 . S
C760 H763 0.930 . S
C761 C758 1.348 . S
C761 C759 1.356 . S
H762 C756 0.930 . S
H763 C760 0.930 . S
O764 Li704 1.956 . S
O764 Li705 1.970 . S
O764 Li706 1.961 . S
O764 C708 1.325 . S
O765 Li704 1.970 . S
O765 Li705 1.956 . S
O765 Li707 1.961 . S
O765 C714 1.325 . S
O766 Li704 1.961 . S
O766 Li706 1.956 . S
O766 Li707 1.970 . S
O766 C736 1.325 . S
O767 Li705 1.961 . S
O767 Li706 1.970 . S
O767 Li707 1.956 . S
O767 C742 1.325 . S
H768 C710 0.929 . S
H769 C711 0.930 . S
H770 C712 0.930 . S
H771 C713 0.886 1_556 S
H772 C715 0.930 . S
H773 C717 0.929 . S
H774 C718 0.930 . S
H775 C719 0.930 . S
H776 C722 0.930 . S
H777 C725 0.929 . S
H778 C730 0.929 . S
H779 C731 0.930 . S
H780 C738 0.929 . S
H781 C739 0.930 . S
H782 C740 0.930 . S
H783 C741 0.930 . S
H784 C743 0.929 . S
H785 C744 0.930 . S
H786 C745 0.930 . S
H787 C746 0.930 . S
H788 C750 0.929 . S
H789 C752 0.930 . S
H790 C758 0.929 . S
H791 C759 0.930 . S
Li792 N809 1.990 . S
Li792 O852 1.956 . S
Li792 O853 1.970 . S
Li792 O854 1.961 . S
Li793 N817 1.990 . S
Li793 O852 1.970 . S
Li793 O853 1.956 . S
Li793 O855 1.961 . S
Li794 N839 1.990 . S
Li794 O852 1.961 . S
Li794 O854 1.956 . S
Li794 O855 1.970 . S
Li795 N845 1.990 . S
Li795 O853 1.961 . S
Li795 O854 1.970 . S
Li795 O855 1.956 . S
C796 C798 1.348 . S
C796 C799 1.356 . S
C796 O852 1.325 . S
N797 C800 1.314 . S
N797 C801 1.279 . S
C798 C796 1.348 . S
C798 C800 1.353 . S
C798 H856 0.929 . S
C799 C796 1.356 . S
C799 C801 1.358 . S
C799 H857 0.930 . S
C800 N797 1.314 . S
C800 C798 1.353 . S
C800 H858 0.930 . S
C801 N797 1.279 . S
C801 C799 1.358 . S
C801 H859 0.930 . S
C802 C805 1.348 . S
C802 C806 1.356 . S
C802 O853 1.325 . S
C803 N804 1.279 . S
C803 C806 1.358 . S
C803 H860 0.930 . S
N804 C803 1.279 . S
N804 C807 1.314 . S
C805 C802 1.348 . S
C805 C807 1.353 . S
C805 H861 0.929 . S
C806 C802 1.356 . S
C806 C803 1.358 . S
C806 H862 0.930 . S
C807 N804 1.314 . S
C807 C805 1.353 . S
C807 H863 0.930 . S
C808 N809 1.314 . S
C808 C813 1.353 . S
C808 H814 0.930 . S
N809 Li792 1.990 . S
N809 C808 1.314 . S
N809 C811 1.279 . S
C810 C811 1.358 . S
C810 C812 1.356 . S
C810 H864 0.930 . S
C811 N809 1.279 . S
C811 C810 1.358 . S
C811 H815 0.930 . S
C812 C810 1.356 . S
C812 C813 1.348 . S
C813 C808 1.353 . S
C813 C812 1.348 . S
C813 H865 0.929 . S
H814 C808 0.930 . S
H815 C811 0.930 . S
C816 N817 1.314 . S
C816 C818 1.353 . S
C816 H822 0.930 . S
N817 Li793 1.990 . S
N817 C816 1.314 . S
N817 C820 1.279 . S
C818 C816 1.353 . S
C818 C821 1.348 . S
C818 H866 0.929 . S
C819 C820 1.358 . S
C819 C821 1.356 . S
C819 H867 0.930 . S
C820 N817 1.279 . S
C820 C819 1.358 . S
C820 H823 0.930 . S
C821 C818 1.348 . S
C821 C819 1.356 . S
H822 C816 0.930 . S
H823 C820 0.930 . S
C824 C826 1.348 . S
C824 C827 1.356 . S
C824 O854 1.325 . S
N825 C828 1.314 . S
N825 C829 1.279 . S
C826 C824 1.348 . S
C826 C828 1.353 . S
C826 H868 0.929 . S
C827 C824 1.356 . S
C827 C829 1.358 . S
C827 H869 0.930 . S
C828 N825 1.314 . S
C828 C826 1.353 . S
C828 H870 0.930 . S
C829 N825 1.279 . S
C829 C827 1.358 . S
C829 H871 0.930 . S
C830 C831 1.348 . S
C830 C832 1.356 . S
C830 O855 1.325 . S
C831 C830 1.348 . S
C831 C833 1.353 . S
C831 H872 0.929 . S
C832 C830 1.356 . S
C832 C834 1.358 . S
C832 H873 0.930 . S
C833 C831 1.353 . S
C833 N835 1.314 . S
C833 H874 0.930 . S
C834 C832 1.358 . S
C834 N835 1.279 . S
C834 H875 0.930 . S
N835 C833 1.314 . S
N835 C834 1.279 . S
C836 C838 1.353 . S
C836 N839 1.314 . S
C836 H842 0.930 . S
C837 N839 1.279 . S
C837 C840 1.358 . S
C837 H843 0.930 . S
C838 C836 1.353 . S
C838 C841 1.348 . S
C838 H876 0.929 . S
N839 Li794 1.990 . S
N839 C836 1.314 . S
N839 C837 1.279 . S
C840 C837 1.358 . S
C840 C841 1.356 . S
C840 H877 0.930 . S
C841 C838 1.348 . S
C841 C840 1.356 . S
H842 C836 0.930 . S
H843 C837 0.930 . S
C844 N845 1.314 . S
C844 C846 1.353 . S
C844 H850 0.930 . S
N845 Li795 1.990 . S
N845 C844 1.314 . S
N845 C848 1.279 . S
C846 C844 1.353 . S
C846 C849 1.348 . S
C846 H878 0.929 . S
C847 C848 1.358 . S
C847 C849 1.356 . S
C847 H879 0.930 . S
C848 N845 1.279 . S
C848 C847 1.358 . S
C848 H851 0.930 . S
C849 C846 1.348 . S
C849 C847 1.356 . S
H850 C844 0.930 . S
H851 C848 0.930 . S
O852 Li792 1.956 . S
O852 Li793 1.970 . S
O852 Li794 1.961 . S
O852 C796 1.325 . S
O853 Li792 1.970 . S
O853 Li793 1.956 . S
O853 Li795 1.961 . S
O853 C802 1.325 . S
O854 Li792 1.961 . S
O854 Li794 1.956 . S
O854 Li795 1.970 . S
O854 C824 1.325 . S
O855 Li793 1.961 . S
O855 Li794 1.970 . S
O855 Li795 1.956 . S
O855 C830 1.325 . S
H856 C798 0.929 . S
H857 C799 0.930 . S
H858 C800 0.930 . S
H859 C801 0.930 . S
H860 C803 0.930 . S
H861 C805 0.929 . S
H862 C806 0.930 . S
H863 C807 0.930 . S
H864 C810 0.930 . S
H865 C813 0.929 . S
H866 C818 0.929 . S
H867 C819 0.930 . S
H868 C826 0.929 . S
H869 C827 0.930 . S
H870 C828 0.930 . S
H871 C829 0.930 . S
H872 C831 0.929 . S
H873 C832 0.930 . S
H874 C833 0.930 . S
H875 C834 0.930 . S
H876 C838 0.929 . S
H877 C840 0.930 . S
H878 C846 0.929 . S
H879 C847 0.930 . S
Li880 N897 1.990 . S
Li880 O940 1.956 . S
Li880 O941 1.970 . S
Li880 O942 1.961 . S
Li881 N905 1.990 . S
Li881 O940 1.970 . S
Li881 O941 1.956 . S
Li881 O943 1.961 . S
Li882 N927 1.990 . S
Li882 O940 1.961 . S
Li882 O942 1.956 . S
Li882 O943 1.970 . S
Li883 N933 1.990 . S
Li883 O941 1.961 . S
Li883 O942 1.970 . S
Li883 O943 1.956 . S
C884 C886 1.348 . S
C884 C887 1.356 . S
C884 O940 1.325 . S
N885 C888 1.314 . S
N885 C889 1.279 . S
C886 C884 1.348 . S
C886 C888 1.353 . S
C886 H944 0.929 . S
C887 C884 1.356 . S
C887 C889 1.358 . S
C887 H945 0.930 . S
C888 N885 1.314 . S
C888 C886 1.353 . S
C888 H946 0.930 . S
C889 N885 1.279 . S
C889 C887 1.358 . S
C889 H947 0.930 . S
C890 C893 1.348 . S
C890 C894 1.356 . S
C890 O941 1.325 . S
C891 N892 1.279 . S
C891 C894 1.358 . S
C891 H948 0.930 . S
N892 C891 1.279 . S
N892 C895 1.314 . S
C893 C890 1.348 . S
C893 C895 1.353 . S
C893 H949 0.929 . S
C894 C890 1.356 . S
C894 C891 1.358 . S
C894 H950 0.930 . S
C895 N892 1.314 . S
C895 C893 1.353 . S
C895 H951 0.930 . S
C896 N897 1.314 . S
C896 C901 1.353 . S
C896 H902 0.930 . S
N897 Li880 1.990 . S
N897 C896 1.314 . S
N897 C899 1.279 . S
C898 C899 1.358 . S
C898 C900 1.356 . S
C898 H952 0.930 . S
C899 N897 1.279 . S
C899 C898 1.358 . S
C899 H903 0.930 . S
C900 C898 1.356 . S
C900 C901 1.348 . S
C901 C896 1.353 . S
C901 C900 1.348 . S
C901 H953 0.929 . S
H902 C896 0.930 . S
H903 C899 0.930 . S
C904 N905 1.314 . S
C904 C906 1.353 . S
C904 H910 0.930 . S
N905 Li881 1.990 . S
N905 C904 1.314 . S
N905 C908 1.279 . S
C906 C904 1.353 . S
C906 C909 1.348 . S
C906 H954 0.929 . S
C907 C908 1.358 . S
C907 C909 1.356 . S
C907 H955 0.930 . S
C908 N905 1.279 . S
C908 C907 1.358 . S
C908 H911 0.930 . S
C909 C906 1.348 . S
C909 C907 1.356 . S
H910 C904 0.930 . S
H911 C908 0.930 . S
C912 C914 1.348 . S
C912 C915 1.356 . S
C912 O942 1.325 . S
N913 C916 1.314 . S
N913 C917 1.279 . S
C914 C912 1.348 . S
C914 C916 1.353 . S
C914 H956 0.929 . S
C915 C912 1.356 . S
C915 C917 1.358 . S
C915 H957 0.930 . S
C916 N913 1.314 . S
C916 C914 1.353 . S
C916 H958 0.930 . S
C917 N913 1.279 . S
C917 C915 1.358 . S
C917 H959 0.930 . S
C918 C919 1.348 . S
C918 C920 1.356 . S
C918 O943 1.325 . S
C919 C918 1.348 . S
C919 C921 1.353 . S
C919 H960 0.929 . S
C920 C918 1.356 . S
C920 C922 1.358 . S
C920 H961 0.930 . S
C921 C919 1.353 . S
C921 N923 1.314 . S
C921 H962 0.930 . S
C922 C920 1.358 . S
C922 N923 1.279 . S
C922 H963 0.886 1_556 S
N923 C921 1.314 . S
N923 C922 1.279 . S
C924 C926 1.353 . S
C924 N927 1.314 . S
C924 H930 0.930 . S
C925 N927 1.279 . S
C925 C928 1.358 . S
C925 H931 0.930 . S
C926 C924 1.353 . S
C926 C929 1.348 . S
C926 H964 0.929 . S
N927 Li882 1.990 . S
N927 C924 1.314 . S
N927 C925 1.279 . S
C928 C925 1.358 . S
C928 C929 1.356 . S
C928 H965 0.930 . S
C929 C926 1.348 . S
C929 C928 1.356 . S
H930 C924 0.930 . S
H931 C925 0.930 . S
C932 N933 1.314 . S
C932 C934 1.353 . S
C932 H938 0.930 . S
N933 Li883 1.990 . S
N933 C932 1.314 . S
N933 C936 1.279 . S
C934 C932 1.353 . S
C934 C937 1.348 . S
C934 H966 0.929 . S
C935 C936 1.358 . S
C935 C937 1.356 . S
C935 H967 0.930 . S
C936 N933 1.279 . S
C936 C935 1.358 . S
C936 H939 0.930 . S
C937 C934 1.348 . S
C937 C935 1.356 . S
H938 C932 0.930 . S
H939 C936 0.930 . S
O940 Li880 1.956 . S
O940 Li881 1.970 . S
O940 Li882 1.961 . S
O940 C884 1.325 . S
O941 Li880 1.970 . S
O941 Li881 1.956 . S
O941 Li883 1.961 . S
O941 C890 1.325 . S
O942 Li880 1.961 . S
O942 Li882 1.956 . S
O942 Li883 1.970 . S
O942 C912 1.325 . S
O943 Li881 1.961 . S
O943 Li882 1.970 . S
O943 Li883 1.956 . S
O943 C918 1.325 . S
H944 C886 0.929 . S
H945 C887 0.930 . S
H946 C888 0.930 . S
H947 C889 0.930 . S
H948 C891 0.930 . S
H949 C893 0.929 . S
H950 C894 0.930 . S
H951 C895 0.930 . S
H952 C898 0.930 . S
H953 C901 0.929 . S
H954 C906 0.929 . S
H955 C907 0.930 . S
H956 C914 0.929 . S
H957 C915 0.930 . S
H958 C916 0.930 . S
H959 C917 0.930 . S
H960 C919 0.929 . S
H961 C920 0.930 . S
H962 C921 0.930 . S
H963 C922 0.886 1_554 S
H964 C926 0.929 . S
H965 C928 0.930 . S
H966 C934 0.929 . S
H967 C935 0.930 . S
Li968 N985 1.990 . S
Li968 O1028 1.956 . S
Li968 O1029 1.970 . S
Li968 O1030 1.961 . S
Li969 N993 1.990 . S
Li969 O1028 1.970 . S
Li969 O1029 1.956 . S
Li969 O1031 1.961 . S
Li970 N1015 1.990 . S
Li970 O1028 1.961 . S
Li970 O1030 1.956 . S
Li970 O1031 1.970 . S
Li971 N1021 1.990 . S
Li971 O1029 1.961 . S
Li971 O1030 1.970 . S
Li971 O1031 1.956 . S
C972 C974 1.348 . S
C972 C975 1.356 . S
C972 O1028 1.325 . S
N973 C976 1.314 . S
N973 C977 1.279 . S
C974 C972 1.348 . S
C974 C976 1.353 . S
C974 H1032 0.929 . S
C975 C972 1.356 . S
C975 C977 1.358 . S
C975 H1033 0.930 . S
C976 N973 1.314 . S
C976 C974 1.353 . S
C976 H1034 0.930 . S
C977 N973 1.279 . S
C977 C975 1.358 . S
C977 H1035 0.930 . S
C978 C981 1.348 . S
C978 C982 1.356 . S
C978 O1029 1.325 . S
C979 N980 1.279 . S
C979 C982 1.358 . S
C979 H1036 0.930 . S
N980 C979 1.279 . S
N980 C983 1.314 . S
C981 C978 1.348 . S
C981 C983 1.353 . S
C981 H1037 0.929 . S
C982 C978 1.356 . S
C982 C979 1.358 . S
C982 H1038 0.930 . S
C983 N980 1.314 . S
C983 C981 1.353 . S
C983 H1039 0.930 . S
C984 N985 1.314 . S
C984 C989 1.353 . S
C984 H990 0.930 . S
N985 Li968 1.990 . S
N985 C984 1.314 . S
N985 C987 1.279 . S
C986 C987 1.358 . S
C986 C988 1.356 . S
C986 H1040 0.930 . S
C987 N985 1.279 . S
C987 C986 1.358 . S
C987 H991 0.930 . S
C988 C986 1.356 . S
C988 C989 1.348 . S
C989 C984 1.353 . S
C989 C988 1.348 . S
C989 H1041 0.929 . S
H990 C984 0.930 . S
H991 C987 0.930 . S
C992 N993 1.314 . S
C992 C994 1.353 . S
C992 H998 0.930 . S
N993 Li969 1.990 . S
N993 C992 1.314 . S
N993 C996 1.279 . S
C994 C992 1.353 . S
C994 C997 1.348 . S
C994 H1042 0.929 . S
C995 C996 1.358 . S
C995 C997 1.356 . S
C995 H1043 0.930 . S
C996 N993 1.279 . S
C996 C995 1.358 . S
C996 H999 0.930 . S
C997 C994 1.348 . S
C997 C995 1.356 . S
H998 C992 0.930 . S
H999 C996 0.930 . S
C1000 C1002 1.348 . S
C1000 C1003 1.356 . S
C1000 O1030 1.325 . S
N1001 C1004 1.314 . S
N1001 C1005 1.279 . S
C1002 C1000 1.348 . S
C1002 C1004 1.353 . S
C1002 H1044 0.929 . S
C1003 C1000 1.356 . S
C1003 C1005 1.358 . S
C1003 H1045 0.930 . S
C1004 N1001 1.314 . S
C1004 C1002 1.353 . S
C1004 H1046 0.930 . S
C1005 N1001 1.279 . S
C1005 C1003 1.358 . S
C1005 H1047 0.930 . S
C1006 C1007 1.348 . S
C1006 C1008 1.356 . S
C1006 O1031 1.325 . S
C1007 C1006 1.348 . S
C1007 C1009 1.353 . S
C1007 H1048 0.929 . S
C1008 C1006 1.356 . S
C1008 C1010 1.358 . S
C1008 H1049 0.930 . S
C1009 C1007 1.353 . S
C1009 N1011 1.314 . S
C1009 H1050 0.930 . S
C1010 C1008 1.358 . S
C1010 N1011 1.279 . S
C1010 H1051 0.930 . S
N1011 C1009 1.314 . S
N1011 C1010 1.279 . S
C1012 C1014 1.353 . S
C1012 N1015 1.314 . S
C1012 H1018 0.930 . S
C1013 N1015 1.279 . S
C1013 C1016 1.358 . S
C1013 H1019 0.930 . S
C1014 C1012 1.353 . S
C1014 C1017 1.348 . S
C1014 H1052 0.929 . S
N1015 Li970 1.990 . S
N1015 C1012 1.314 . S
N1015 C1013 1.279 . S
C1016 C1013 1.358 . S
C1016 C1017 1.356 . S
C1016 H1053 0.930 . S
C1017 C1014 1.348 . S
C1017 C1016 1.356 . S
H1018 C1012 0.930 . S
H1019 C1013 0.930 . S
C1020 N1021 1.314 . S
C1020 C1022 1.353 . S
C1020 H1026 0.930 . S
N1021 Li971 1.990 . S
N1021 C1020 1.314 . S
N1021 C1024 1.279 . S
C1022 C1020 1.353 . S
C1022 C1025 1.348 . S
C1022 H1054 0.929 . S
C1023 C1024 1.358 . S
C1023 C1025 1.356 . S
C1023 H1055 0.930 . S
C1024 N1021 1.279 . S
C1024 C1023 1.358 . S
C1024 H1027 0.930 . S
C1025 C1022 1.348 . S
C1025 C1023 1.356 . S
H1026 C1020 0.930 . S
H1027 C1024 0.930 . S
O1028 Li968 1.956 . S
O1028 Li969 1.970 . S
O1028 Li970 1.961 . S
O1028 C972 1.325 . S
O1029 Li968 1.970 . S
O1029 Li969 1.956 . S
O1029 Li971 1.961 . S
O1029 C978 1.325 . S
O1030 Li968 1.961 . S
O1030 Li970 1.956 . S
O1030 Li971 1.970 . S
O1030 C1000 1.325 . S
O1031 Li969 1.961 . S
O1031 Li970 1.970 . S
O1031 Li971 1.956 . S
O1031 C1006 1.325 . S
H1032 C974 0.929 . S
H1033 C975 0.930 . S
H1034 C976 0.930 . S
H1035 C977 0.930 . S
H1036 C979 0.930 . S
H1037 C981 0.929 . S
H1038 C982 0.930 . S
H1039 C983 0.930 . S
H1040 C986 0.930 . S
H1041 C989 0.929 . S
H1042 C994 0.929 . S
H1043 C995 0.930 . S
H1044 C1002 0.929 . S
H1045 C1003 0.930 . S
H1046 C1004 0.930 . S
H1047 C1005 0.930 . S
H1048 C1007 0.929 . S
H1049 C1008 0.930 . S
H1050 C1009 0.930 . S
H1051 C1010 0.930 . S
H1052 C1014 0.929 . S
H1053 C1016 0.930 . S
H1054 C1022 0.929 . S
H1055 C1023 0.930 . S
Li1056 N1073 1.990 . S
Li1056 O1116 1.956 . S
Li1056 O1117 1.970 . S
Li1056 O1118 1.961 . S
Li1057 N1081 1.990 . S
Li1057 O1116 1.970 . S
Li1057 O1117 1.956 . S
Li1057 O1119 1.961 . S
Li1058 N1103 1.990 . S
Li1058 O1116 1.961 . S
Li1058 O1118 1.956 . S
Li1058 O1119 1.970 . S
Li1059 N1109 1.990 . S
Li1059 O1117 1.961 . S
Li1059 O1118 1.970 . S
Li1059 O1119 1.956 . S
C1060 C1062 1.348 . S
C1060 C1063 1.356 . S
C1060 O1116 1.325 . S
N1061 C1064 1.314 . S
N1061 C1065 1.279 . S
C1062 C1060 1.348 . S
C1062 C1064 1.353 . S
C1062 H1120 0.929 . S
C1063 C1060 1.356 . S
C1063 C1065 1.358 . S
C1063 H1121 0.930 . S
C1064 N1061 1.314 . S
C1064 C1062 1.353 . S
C1064 H1122 0.930 . S
C1065 N1061 1.279 . S
C1065 C1063 1.358 . S
C1065 H1123 0.930 . S
C1066 C1069 1.348 . S
C1066 C1070 1.356 . S
C1066 O1117 1.325 . S
C1067 N1068 1.279 . S
C1067 C1070 1.358 . S
C1067 H1124 0.930 . S
N1068 C1067 1.279 . S
N1068 C1071 1.314 . S
C1069 C1066 1.348 . S
C1069 C1071 1.353 . S
C1069 H1125 0.929 . S
C1070 C1066 1.356 . S
C1070 C1067 1.358 . S
C1070 H1126 0.930 . S
C1071 N1068 1.314 . S
C1071 C1069 1.353 . S
C1071 H1127 0.930 . S
C1072 N1073 1.314 . S
C1072 C1077 1.353 . S
C1072 H1078 0.930 . S
N1073 Li1056 1.990 . S
N1073 C1072 1.314 . S
N1073 C1075 1.279 . S
C1074 C1075 1.358 . S
C1074 C1076 1.356 . S
C1074 H1128 0.930 . S
C1075 N1073 1.279 . S
C1075 C1074 1.358 . S
C1075 H1079 0.930 . S
C1076 C1074 1.356 . S
C1076 C1077 1.348 . S
C1077 C1072 1.353 . S
C1077 C1076 1.348 . S
C1077 H1129 0.929 . S
H1078 C1072 0.930 . S
H1079 C1075 0.930 . S
C1080 N1081 1.314 . S
C1080 C1082 1.353 . S
C1080 H1086 0.930 . S
N1081 Li1057 1.990 . S
N1081 C1080 1.314 . S
N1081 C1084 1.279 . S
C1082 C1080 1.353 . S
C1082 C1085 1.348 . S
C1082 H1130 0.929 . S
C1083 C1084 1.358 . S
C1083 C1085 1.356 . S
C1083 H1131 0.930 . S
C1084 N1081 1.279 . S
C1084 C1083 1.358 . S
C1084 H1087 0.930 . S
C1085 C1082 1.348 . S
C1085 C1083 1.356 . S
H1086 C1080 0.930 . S
H1087 C1084 0.930 . S
C1088 C1090 1.348 . S
C1088 C1091 1.356 . S
C1088 O1118 1.325 . S
N1089 C1092 1.314 . S
N1089 C1093 1.279 . S
C1090 C1088 1.348 . S
C1090 C1092 1.353 . S
C1090 H1132 0.929 . S
C1091 C1088 1.356 . S
C1091 C1093 1.358 . S
C1091 H1133 0.930 . S
C1092 N1089 1.314 . S
C1092 C1090 1.353 . S
C1092 H1134 0.930 . S
C1093 N1089 1.279 . S
C1093 C1091 1.358 . S
C1093 H1135 0.930 . S
C1094 C1095 1.348 . S
C1094 C1096 1.356 . S
C1094 O1119 1.325 . S
C1095 C1094 1.348 . S
C1095 C1097 1.353 . S
C1095 H1136 0.929 . S
C1096 C1094 1.356 . S
C1096 C1098 1.358 . S
C1096 H1137 0.930 . S
C1097 C1095 1.353 . S
C1097 N1099 1.314 . S
C1097 H1138 0.930 . S
C1098 C1096 1.358 . S
C1098 N1099 1.279 . S
C1098 H1139 0.930 . S
N1099 C1097 1.314 . S
N1099 C1098 1.279 . S
C1100 C1102 1.353 . S
C1100 N1103 1.314 . S
C1100 H1106 0.930 . S
C1101 N1103 1.279 . S
C1101 C1104 1.358 . S
C1101 H1107 0.930 . S
C1102 C1100 1.353 . S
C1102 C1105 1.348 . S
C1102 H1140 0.929 . S
N1103 Li1058 1.990 . S
N1103 C1100 1.314 . S
N1103 C1101 1.279 . S
C1104 C1101 1.358 . S
C1104 C1105 1.356 . S
C1104 H1141 0.930 . S
C1105 C1102 1.348 . S
C1105 C1104 1.356 . S
H1106 C1100 0.930 . S
H1107 C1101 0.930 . S
C1108 N1109 1.314 . S
C1108 C1110 1.353 . S
C1108 H1114 0.930 . S
N1109 Li1059 1.990 . S
N1109 C1108 1.314 . S
N1109 C1112 1.279 . S
C1110 C1108 1.353 . S
C1110 C1113 1.348 . S
C1110 H1142 0.929 . S
C1111 C1112 1.358 . S
C1111 C1113 1.356 . S
C1111 H1143 0.930 . S
C1112 N1109 1.279 . S
C1112 C1111 1.358 . S
C1112 H1115 0.930 . S
C1113 C1110 1.348 . S
C1113 C1111 1.356 . S
H1114 C1108 0.930 . S
H1115 C1112 0.930 . S
O1116 Li1056 1.956 . S
O1116 Li1057 1.970 . S
O1116 Li1058 1.961 . S
O1116 C1060 1.325 . S
O1117 Li1056 1.970 . S
O1117 Li1057 1.956 . S
O1117 Li1059 1.961 . S
O1117 C1066 1.325 . S
O1118 Li1056 1.961 . S
O1118 Li1058 1.956 . S
O1118 Li1059 1.970 . S
O1118 C1088 1.325 . S
O1119 Li1057 1.961 . S
O1119 Li1058 1.970 . S
O1119 Li1059 1.956 . S
O1119 C1094 1.325 . S
H1120 C1062 0.929 . S
H1121 C1063 0.930 . S
H1122 C1064 0.930 . S
H1123 C1065 0.930 . S
H1124 C1067 0.930 . S
H1125 C1069 0.929 . S
H1126 C1070 0.930 . S
H1127 C1071 0.930 . S
H1128 C1074 0.930 . S
H1129 C1077 0.929 . S
H1130 C1082 0.929 . S
H1131 C1083 0.930 . S
H1132 C1090 0.929 . S
H1133 C1091 0.930 . S
H1134 C1092 0.930 . S
H1135 C1093 0.930 . S
H1136 C1095 0.929 . S
H1137 C1096 0.930 . S
H1138 C1097 0.930 . S
H1139 C1098 0.930 . S
H1140 C1102 0.929 . S
H1141 C1104 0.930 . S
H1142 C1110 0.929 . S
H1143 C1111 0.930 . S
Li1144 N1161 1.990 . S
Li1144 O1204 1.956 . S
Li1144 O1205 1.970 . S
Li1144 O1206 1.961 . S
Li1145 N1169 1.990 . S
Li1145 O1204 1.970 . S
Li1145 O1205 1.956 . S
Li1145 O1207 1.961 . S
Li1146 N1191 1.990 . S
Li1146 O1204 1.961 . S
Li1146 O1206 1.956 . S
Li1146 O1207 1.970 . S
Li1147 N1197 1.990 . S
Li1147 O1205 1.961 . S
Li1147 O1206 1.970 . S
Li1147 O1207 1.956 . S
C1148 C1150 1.348 . S
C1148 C1151 1.356 . S
C1148 O1204 1.325 . S
N1149 C1152 1.314 . S
N1149 C1153 1.279 . S
C1150 C1148 1.348 . S
C1150 C1152 1.353 . S
C1150 H1208 0.929 . S
C1151 C1148 1.356 . S
C1151 C1153 1.358 . S
C1151 H1209 0.930 . S
C1152 N1149 1.314 . S
C1152 C1150 1.353 . S
C1152 H1210 0.930 . S
C1153 N1149 1.279 . S
C1153 C1151 1.358 . S
C1153 H1211 0.930 . S
C1154 C1157 1.348 . S
C1154 C1158 1.356 . S
C1154 O1205 1.325 . S
C1155 N1156 1.279 . S
C1155 C1158 1.358 . S
C1155 H1212 0.930 . S
N1156 C1155 1.279 . S
N1156 C1159 1.314 . S
C1157 C1154 1.348 . S
C1157 C1159 1.353 . S
C1157 H1213 0.929 . S
C1158 C1154 1.356 . S
C1158 C1155 1.358 . S
C1158 H1214 0.930 . S
C1159 N1156 1.314 . S
C1159 C1157 1.353 . S
C1159 H1215 0.930 . S
C1160 N1161 1.314 . S
C1160 C1165 1.353 . S
C1160 H1166 0.930 . S
N1161 Li1144 1.990 . S
N1161 C1160 1.314 . S
N1161 C1163 1.279 . S
C1162 C1163 1.358 . S
C1162 C1164 1.356 . S
C1162 H1216 0.930 . S
C1163 N1161 1.279 . S
C1163 C1162 1.358 . S
C1163 H1167 0.930 . S
C1164 C1162 1.356 . S
C1164 C1165 1.348 . S
C1165 C1160 1.353 . S
C1165 C1164 1.348 . S
C1165 H1217 0.929 . S
H1166 C1160 0.930 . S
H1167 C1163 0.930 . S
C1168 N1169 1.314 . S
C1168 C1170 1.353 . S
C1168 H1174 0.930 . S
N1169 Li1145 1.990 . S
N1169 C1168 1.314 . S
N1169 C1172 1.279 . S
C1170 C1168 1.353 . S
C1170 C1173 1.348 . S
C1170 H1218 0.929 . S
C1171 C1172 1.358 . S
C1171 C1173 1.356 . S
C1171 H1219 0.930 . S
C1172 N1169 1.279 . S
C1172 C1171 1.358 . S
C1172 H1175 0.930 . S
C1173 C1170 1.348 . S
C1173 C1171 1.356 . S
H1174 C1168 0.930 . S
H1175 C1172 0.930 . S
C1176 C1178 1.348 . S
C1176 C1179 1.356 . S
C1176 O1206 1.325 . S
N1177 C1180 1.314 . S
N1177 C1181 1.279 . S
C1178 C1176 1.348 . S
C1178 C1180 1.353 . S
C1178 H1220 0.929 . S
C1179 C1176 1.356 . S
C1179 C1181 1.358 . S
C1179 H1221 0.930 . S
C1180 N1177 1.314 . S
C1180 C1178 1.353 . S
C1180 H1222 0.930 . S
C1181 N1177 1.279 . S
C1181 C1179 1.358 . S
C1181 H1223 0.930 . S
C1182 C1183 1.348 . S
C1182 C1184 1.356 . S
C1182 O1207 1.325 . S
C1183 C1182 1.348 . S
C1183 C1185 1.353 . S
C1183 H1224 0.929 . S
C1184 C1182 1.356 . S
C1184 C1186 1.358 . S
C1184 H1225 0.930 . S
C1185 C1183 1.353 . S
C1185 N1187 1.314 . S
C1185 H1226 0.930 . S
C1186 C1184 1.358 . S
C1186 N1187 1.279 . S
C1186 H1227 0.930 . S
N1187 C1185 1.314 . S
N1187 C1186 1.279 . S
C1188 C1190 1.353 . S
C1188 N1191 1.314 . S
C1188 H1194 0.930 . S
C1189 N1191 1.279 . S
C1189 C1192 1.358 . S
C1189 H1195 0.930 . S
C1190 C1188 1.353 . S
C1190 C1193 1.348 . S
C1190 H1228 0.929 . S
N1191 Li1146 1.990 . S
N1191 C1188 1.314 . S
N1191 C1189 1.279 . S
C1192 C1189 1.358 . S
C1192 C1193 1.356 . S
C1192 H1229 0.930 . S
C1193 C1190 1.348 . S
C1193 C1192 1.356 . S
H1194 C1188 0.930 . S
H1195 C1189 0.930 . S
C1196 N1197 1.314 . S
C1196 C1198 1.353 . S
C1196 H1202 0.930 . S
N1197 Li1147 1.990 . S
N1197 C1196 1.314 . S
N1197 C1200 1.279 . S
C1198 C1196 1.353 . S
C1198 C1201 1.348 . S
C1198 H1230 0.929 . S
C1199 C1200 1.358 . S
C1199 C1201 1.356 . S
C1199 H1231 0.930 . S
C1200 N1197 1.279 . S
C1200 C1199 1.358 . S
C1200 H1203 0.930 . S
C1201 C1198 1.348 . S
C1201 C1199 1.356 . S
H1202 C1196 0.930 . S
H1203 C1200 0.930 . S
O1204 Li1144 1.956 . S
O1204 Li1145 1.970 . S
O1204 Li1146 1.961 . S
O1204 C1148 1.325 . S
O1205 Li1144 1.970 . S
O1205 Li1145 1.956 . S
O1205 Li1147 1.961 . S
O1205 C1154 1.325 . S
O1206 Li1144 1.961 . S
O1206 Li1146 1.956 . S
O1206 Li1147 1.970 . S
O1206 C1176 1.325 . S
O1207 Li1145 1.961 . S
O1207 Li1146 1.970 . S
O1207 Li1147 1.956 . S
O1207 C1182 1.325 . S
H1208 C1150 0.929 . S
H1209 C1151 0.930 . S
H1210 C1152 0.930 . S
H1211 C1153 0.930 . S
H1212 C1155 0.930 . S
H1213 C1157 0.929 . S
H1214 C1158 0.930 . S
H1215 C1159 0.930 . S
H1216 C1162 0.930 . S
H1217 C1165 0.929 . S
H1218 C1170 0.929 . S
H1219 C1171 0.930 . S
H1220 C1178 0.929 . S
H1221 C1179 0.930 . S
H1222 C1180 0.930 . S
H1223 C1181 0.930 . S
H1224 C1183 0.929 . S
H1225 C1184 0.930 . S
H1226 C1185 0.930 . S
H1227 C1186 0.930 . S
H1228 C1190 0.929 . S
H1229 C1192 0.930 . S
H1230 C1198 0.929 . S
H1231 C1199 0.930 . S
Li1232 N1249 1.990 . S
Li1232 O1292 1.956 . S
Li1232 O1293 1.970 . S
Li1232 O1294 1.961 . S
Li1233 N1257 1.990 . S
Li1233 O1292 1.970 . S
Li1233 O1293 1.956 . S
Li1233 O1295 1.961 . S
Li1234 N1279 1.990 . S
Li1234 O1292 1.961 . S
Li1234 O1294 1.956 . S
Li1234 O1295 1.970 . S
Li1235 N1285 1.990 . S
Li1235 O1293 1.961 . S
Li1235 O1294 1.970 . S
Li1235 O1295 1.956 . S
C1236 C1238 1.348 . S
C1236 C1239 1.356 . S
C1236 O1292 1.325 . S
N1237 C1240 1.314 . S
N1237 C1241 1.279 . S
C1238 C1236 1.348 . S
C1238 C1240 1.353 . S
C1238 H1296 0.929 . S
C1239 C1236 1.356 . S
C1239 C1241 1.358 . S
C1239 H1297 0.930 . S
C1240 N1237 1.314 . S
C1240 C1238 1.353 . S
C1240 H1298 0.930 . S
C1241 N1237 1.279 . S
C1241 C1239 1.358 . S
C1241 H1299 0.930 . S
C1242 C1245 1.348 . S
C1242 C1246 1.356 . S
C1242 O1293 1.325 . S
C1243 N1244 1.279 . S
C1243 C1246 1.358 . S
C1243 H1300 0.930 . S
N1244 C1243 1.279 . S
N1244 C1247 1.314 . S
C1245 C1242 1.348 . S
C1245 C1247 1.353 . S
C1245 H1301 0.929 . S
C1246 C1242 1.356 . S
C1246 C1243 1.358 . S
C1246 H1302 0.930 . S
C1247 N1244 1.314 . S
C1247 C1245 1.353 . S
C1247 H1303 0.930 . S
C1248 N1249 1.314 . S
C1248 C1253 1.353 . S
C1248 H1254 0.930 . S
N1249 Li1232 1.990 . S
N1249 C1248 1.314 . S
N1249 C1251 1.279 . S
C1250 C1251 1.358 . S
C1250 C1252 1.356 . S
C1250 H1304 0.930 . S
C1251 N1249 1.279 . S
C1251 C1250 1.358 . S
C1251 H1255 0.930 . S
C1252 C1250 1.356 . S
C1252 C1253 1.348 . S
C1253 C1248 1.353 . S
C1253 C1252 1.348 . S
C1253 H1305 0.929 . S
H1254 C1248 0.930 . S
H1255 C1251 0.930 . S
C1256 N1257 1.314 . S
C1256 C1258 1.353 . S
C1256 H1262 0.930 . S
N1257 Li1233 1.990 . S
N1257 C1256 1.314 . S
N1257 C1260 1.279 . S
C1258 C1256 1.353 . S
C1258 C1261 1.348 . S
C1258 H1306 0.929 . S
C1259 C1260 1.358 . S
C1259 C1261 1.356 . S
C1259 H1307 0.930 . S
C1260 N1257 1.279 . S
C1260 C1259 1.358 . S
C1260 H1263 0.930 . S
C1261 C1258 1.348 . S
C1261 C1259 1.356 . S
H1262 C1256 0.930 . S
H1263 C1260 0.930 . S
C1264 C1266 1.348 . S
C1264 C1267 1.356 . S
C1264 O1294 1.325 . S
N1265 C1268 1.314 . S
N1265 C1269 1.279 . S
C1266 C1264 1.348 . S
C1266 C1268 1.353 . S
C1266 H1308 0.929 . S
C1267 C1264 1.356 . S
C1267 C1269 1.358 . S
C1267 H1309 0.930 . S
C1268 N1265 1.314 . S
C1268 C1266 1.353 . S
C1268 H1310 0.930 . S
C1269 N1265 1.279 . S
C1269 C1267 1.358 . S
C1269 H1311 0.930 . S
C1270 C1271 1.348 . S
C1270 C1272 1.356 . S
C1270 O1295 1.325 . S
C1271 C1270 1.348 . S
C1271 C1273 1.353 . S
C1271 H1312 0.929 . S
C1272 C1270 1.356 . S
C1272 C1274 1.358 . S
C1272 H1313 0.930 . S
C1273 C1271 1.353 . S
C1273 N1275 1.314 . S
C1273 H1314 0.930 . S
C1274 C1272 1.358 . S
C1274 N1275 1.279 . S
C1274 H1315 0.930 . S
N1275 C1273 1.314 . S
N1275 C1274 1.279 . S
C1276 C1278 1.353 . S
C1276 N1279 1.314 . S
C1276 H1282 0.930 . S
C1277 N1279 1.279 . S
C1277 C1280 1.358 . S
C1277 H1283 0.930 . S
C1278 C1276 1.353 . S
C1278 C1281 1.348 . S
C1278 H1316 0.929 . S
N1279 Li1234 1.990 . S
N1279 C1276 1.314 . S
N1279 C1277 1.279 . S
C1280 C1277 1.358 . S
C1280 C1281 1.356 . S
C1280 H1317 0.930 . S
C1281 C1278 1.348 . S
C1281 C1280 1.356 . S
H1282 C1276 0.930 . S
H1283 C1277 0.930 . S
C1284 N1285 1.314 . S
C1284 C1286 1.353 . S
C1284 H1290 0.930 . S
N1285 Li1235 1.990 . S
N1285 C1284 1.314 . S
N1285 C1288 1.279 . S
C1286 C1284 1.353 . S
C1286 C1289 1.348 . S
C1286 H1318 0.929 . S
C1287 C1288 1.358 . S
C1287 C1289 1.356 . S
C1287 H1319 0.930 . S
C1288 N1285 1.279 . S
C1288 C1287 1.358 . S
C1288 H1291 0.930 . S
C1289 C1286 1.348 . S
C1289 C1287 1.356 . S
H1290 C1284 0.930 . S
H1291 C1288 0.930 . S
O1292 Li1232 1.956 . S
O1292 Li1233 1.970 . S
O1292 Li1234 1.961 . S
O1292 C1236 1.325 . S
O1293 Li1232 1.970 . S
O1293 Li1233 1.956 . S
O1293 Li1235 1.961 . S
O1293 C1242 1.325 . S
O1294 Li1232 1.961 . S
O1294 Li1234 1.956 . S
O1294 Li1235 1.970 . S
O1294 C1264 1.325 . S
O1295 Li1233 1.961 . S
O1295 Li1234 1.970 . S
O1295 Li1235 1.956 . S
O1295 C1270 1.325 . S
H1296 C1238 0.929 . S
H1297 C1239 0.930 . S
H1298 C1240 0.930 . S
H1299 C1241 0.930 . S
H1300 C1243 0.930 . S
H1301 C1245 0.929 . S
H1302 C1246 0.930 . S
H1303 C1247 0.930 . S
H1304 C1250 0.930 . S
H1305 C1253 0.929 . S
H1306 C1258 0.929 . S
H1307 C1259 0.930 . S
H1308 C1266 0.929 . S
H1309 C1267 0.930 . S
H1310 C1268 0.930 . S
H1311 C1269 0.930 . S
H1312 C1271 0.929 . S
H1313 C1272 0.930 . S
H1314 C1273 0.930 . S
H1315 C1274 0.930 . S
H1316 C1278 0.929 . S
H1317 C1280 0.930 . S
H1318 C1286 0.929 . S
H1319 C1287 0.930 . S
Li1320 N1337 1.990 . S
Li1320 O1380 1.956 . S
Li1320 O1381 1.970 . S
Li1320 O1382 1.961 . S
Li1321 N1345 1.990 . S
Li1321 O1380 1.970 . S
Li1321 O1381 1.956 . S
Li1321 O1383 1.961 . S
Li1322 N1367 1.990 . S
Li1322 O1380 1.961 . S
Li1322 O1382 1.956 . S
Li1322 O1383 1.970 . S
Li1323 N1373 1.990 . S
Li1323 O1381 1.961 . S
Li1323 O1382 1.970 . S
Li1323 O1383 1.956 . S
C1324 C1326 1.348 . S
C1324 C1327 1.356 . S
C1324 O1380 1.325 . S
N1325 C1328 1.314 . S
N1325 C1329 1.279 . S
C1326 C1324 1.348 . S
C1326 C1328 1.353 . S
C1326 H1384 0.929 . S
C1327 C1324 1.356 . S
C1327 C1329 1.358 . S
C1327 H1385 0.930 . S
C1328 N1325 1.314 . S
C1328 C1326 1.353 . S
C1328 H1386 0.930 . S
C1329 N1325 1.279 . S
C1329 C1327 1.358 . S
C1329 H1387 0.930 . S
C1330 C1333 1.348 . S
C1330 C1334 1.356 . S
C1330 O1381 1.325 . S
C1331 N1332 1.279 . S
C1331 C1334 1.358 . S
C1331 H1388 0.930 . S
N1332 C1331 1.279 . S
N1332 C1335 1.314 . S
C1333 C1330 1.348 . S
C1333 C1335 1.353 . S
C1333 H1389 0.929 . S
C1334 C1330 1.356 . S
C1334 C1331 1.358 . S
C1334 H1390 0.930 . S
C1335 N1332 1.314 . S
C1335 C1333 1.353 . S
C1335 H1391 0.930 . S
C1336 N1337 1.314 . S
C1336 C1341 1.353 . S
C1336 H1342 0.930 . S
N1337 Li1320 1.990 . S
N1337 C1336 1.314 . S
N1337 C1339 1.279 . S
C1338 C1339 1.358 . S
C1338 C1340 1.356 . S
C1338 H1392 0.930 . S
C1339 N1337 1.279 . S
C1339 C1338 1.358 . S
C1339 H1343 0.930 . S
C1340 C1338 1.356 . S
C1340 C1341 1.348 . S
C1341 C1336 1.353 . S
C1341 C1340 1.348 . S
C1341 H1393 0.929 . S
H1342 C1336 0.930 . S
H1343 C1339 0.930 . S
C1344 N1345 1.314 . S
C1344 C1346 1.353 . S
C1344 H1350 0.930 . S
N1345 Li1321 1.990 . S
N1345 C1344 1.314 . S
N1345 C1348 1.279 . S
C1346 C1344 1.353 . S
C1346 C1349 1.348 . S
C1346 H1394 0.929 . S
C1347 C1348 1.358 . S
C1347 C1349 1.356 . S
C1347 H1395 0.930 . S
C1348 N1345 1.279 . S
C1348 C1347 1.358 . S
C1348 H1351 0.930 . S
C1349 C1346 1.348 . S
C1349 C1347 1.356 . S
H1350 C1344 0.930 . S
H1351 C1348 0.930 . S
C1352 C1354 1.348 . S
C1352 C1355 1.356 . S
C1352 O1382 1.325 . S
N1353 C1356 1.314 . S
N1353 C1357 1.279 . S
C1354 C1352 1.348 . S
C1354 C1356 1.353 . S
C1354 H1396 0.929 . S
C1355 C1352 1.356 . S
C1355 C1357 1.358 . S
C1355 H1397 0.930 . S
C1356 N1353 1.314 . S
C1356 C1354 1.353 . S
C1356 H1398 0.930 . S
C1357 N1353 1.279 . S
C1357 C1355 1.358 . S
C1357 H1399 0.930 . S
C1358 C1359 1.348 . S
C1358 C1360 1.356 . S
C1358 O1383 1.325 . S
C1359 C1358 1.348 . S
C1359 C1361 1.353 . S
C1359 H1400 0.929 . S
C1360 C1358 1.356 . S
C1360 C1362 1.358 . S
C1360 H1401 0.930 . S
C1361 C1359 1.353 . S
C1361 N1363 1.314 . S
C1361 H1402 0.930 . S
C1362 C1360 1.358 . S
C1362 N1363 1.279 . S
C1362 H1403 0.930 . S
N1363 C1361 1.314 . S
N1363 C1362 1.279 . S
C1364 C1366 1.353 . S
C1364 N1367 1.314 . S
C1364 H1370 0.930 . S
C1365 N1367 1.279 . S
C1365 C1368 1.358 . S
C1365 H1371 0.930 . S
C1366 C1364 1.353 . S
C1366 C1369 1.348 . S
C1366 H1404 0.929 . S
N1367 Li1322 1.990 . S
N1367 C1364 1.314 . S
N1367 C1365 1.279 . S
C1368 C1365 1.358 . S
C1368 C1369 1.356 . S
C1368 H1405 0.930 . S
C1369 C1366 1.348 . S
C1369 C1368 1.356 . S
H1370 C1364 0.930 . S
H1371 C1365 0.930 . S
C1372 N1373 1.314 . S
C1372 C1374 1.353 . S
C1372 H1378 0.930 . S
N1373 Li1323 1.990 . S
N1373 C1372 1.314 . S
N1373 C1376 1.279 . S
C1374 C1372 1.353 . S
C1374 C1377 1.348 . S
C1374 H1406 0.929 . S
C1375 C1376 1.358 . S
C1375 C1377 1.356 . S
C1375 H1407 0.930 . S
C1376 N1373 1.279 . S
C1376 C1375 1.358 . S
C1376 H1379 0.930 . S
C1377 C1374 1.348 . S
C1377 C1375 1.356 . S
H1378 C1372 0.930 . S
H1379 C1376 0.930 . S
O1380 Li1320 1.956 . S
O1380 Li1321 1.970 . S
O1380 Li1322 1.961 . S
O1380 C1324 1.325 . S
O1381 Li1320 1.970 . S
O1381 Li1321 1.956 . S
O1381 Li1323 1.961 . S
O1381 C1330 1.325 . S
O1382 Li1320 1.961 . S
O1382 Li1322 1.956 . S
O1382 Li1323 1.970 . S
O1382 C1352 1.325 . S
O1383 Li1321 1.961 . S
O1383 Li1322 1.970 . S
O1383 Li1323 1.956 . S
O1383 C1358 1.325 . S
H1384 C1326 0.929 . S
H1385 C1327 0.930 . S
H1386 C1328 0.930 . S
H1387 C1329 0.930 . S
H1388 C1331 0.930 . S
H1389 C1333 0.929 . S
H1390 C1334 0.930 . S
H1391 C1335 0.930 . S
H1392 C1338 0.930 . S
H1393 C1341 0.929 . S
H1394 C1346 0.929 . S
H1395 C1347 0.930 . S
H1396 C1354 0.929 . S
H1397 C1355 0.930 . S
H1398 C1356 0.930 . S
H1399 C1357 0.930 . S
H1400 C1359 0.929 . S
H1401 C1360 0.930 . S
H1402 C1361 0.930 . S
H1403 C1362 0.930 . S
H1404 C1366 0.929 . S
H1405 C1368 0.930 . S
H1406 C1374 0.929 . S
H1407 C1375 0.930 . S
H1408 C1416 0.950 . S
H1409 C1421 0.950 . S
H1410 C1418 0.950 1_556 S
H1411 C1420 0.950 . S
H1412 C1422 0.950 . S
H1413 C1424 0.950 1_554 S
H1414 C1426 0.950 . S
H1415 C1427 0.950 . S
C1416 H1408 0.950 . S
C1416 C1417 1.386 . S
C1416 C1418 1.391 . S
C1417 C1416 1.386 . S
C1417 C1421 1.393 . S
C1418 H1410 0.950 1_554 S
C1418 C1416 1.391 . S
C1418 C1419 1.400 . S
C1419 C1418 1.400 . S
C1419 C1420 1.398 . S
C1419 C1425 1.491 1_554 S
C1420 H1411 0.950 . S
C1420 C1419 1.398 . S
C1420 C1421 1.391 . S
C1421 H1409 0.950 . S
C1421 C1417 1.393 . S
C1421 C1420 1.391 . S
C1422 H1412 0.950 . S
C1422 C1423 1.386 . S
C1422 C1424 1.391 . S
C1423 C1422 1.386 . S
C1423 C1427 1.393 . S
C1424 H1413 0.950 1_556 S
C1424 C1422 1.391 . S
C1424 C1425 1.400 . S
C1425 C1419 1.491 1_556 S
C1425 C1424 1.400 . S
C1425 C1426 1.398 . S
C1426 H1414 0.950 . S
C1426 C1425 1.398 . S
C1426 C1427 1.391 . S
C1427 H1415 0.950 . S
C1427 C1423 1.393 . S
C1427 C1426 1.391 . S
H1428 C1436 0.950 . S
H1429 C1441 0.950 . S
H1430 C1438 0.950 . S
H1431 C1440 0.950 . S
H1432 C1442 0.950 . S
H1433 C1444 0.950 . S
H1434 C1446 0.950 . S
H1435 C1447 0.950 . S
C1436 H1428 0.950 . S
C1436 C1437 1.386 . S
C1436 C1438 1.391 . S
C1437 C1436 1.386 . S
C1437 C1441 1.393 . S
C1438 H1430 0.950 . S
C1438 C1436 1.391 . S
C1438 C1439 1.400 . S
C1439 C1438 1.400 . S
C1439 C1440 1.398 . S
C1439 C1445 1.491 . S
C1440 H1431 0.950 . S
C1440 C1439 1.398 . S
C1440 C1441 1.391 . S
C1441 H1429 0.950 . S
C1441 C1437 1.393 . S
C1441 C1440 1.391 . S
C1442 H1432 0.950 . S
C1442 C1443 1.386 . S
C1442 C1444 1.391 . S
C1443 C1442 1.386 . S
C1443 C1447 1.393 . S
C1444 H1433 0.950 . S
C1444 C1442 1.391 . S
C1444 C1445 1.400 . S
C1445 C1439 1.491 . S
C1445 C1444 1.400 . S
C1445 C1446 1.398 . S
C1446 H1434 0.950 . S
C1446 C1445 1.398 . S
C1446 C1447 1.391 . S
C1447 H1435 0.950 . S
C1447 C1443 1.393 . S
C1447 C1446 1.391 . S
H1448 C1456 0.950 . S
H1449 C1461 0.956 . S
H1450 C1458 0.950 . S
H1451 C1460 0.950 . S
H1452 C1462 0.950 . S
H1453 C1464 0.950 . S
H1454 C1466 0.950 . S
H1455 C1467 0.951 1_556 S
C1456 H1448 0.950 . S
C1456 C1457 1.386 . S
C1456 C1458 1.391 . S
C1457 C1456 1.386 . S
C1457 C1461 1.393 . S
C1458 H1450 0.950 . S
C1458 C1456 1.391 . S
C1458 C1459 1.400 . S
C1459 C1458 1.400 . S
C1459 C1460 1.398 1_556 S
C1459 C1465 1.491 1_556 S
C1460 H1451 0.950 . S
C1460 C1459 1.398 1_554 S
C1460 C1461 1.391 1_554 S
C1461 H1449 0.956 . S
C1461 C1457 1.393 . S
C1461 C1460 1.391 1_556 S
C1462 H1452 0.950 . S
C1462 C1463 1.386 . S
C1462 C1464 1.391 . S
C1463 C1462 1.386 . S
C1463 C1467 1.393 . S
C1464 H1453 0.950 . S
C1464 C1462 1.391 . S
C1464 C1465 1.400 . S
C1465 C1459 1.491 1_554 S
C1465 C1464 1.400 . S
C1465 C1466 1.398 1_554 S
C1466 H1454 0.950 . S
C1466 C1465 1.398 1_556 S
C1466 C1467 1.391 1_556 S
C1467 H1455 0.951 1_554 S
C1467 C1463 1.393 . S
C1467 C1466 1.391 1_554 S
H1468 C1476 0.950 . S
H1469 C1481 0.950 . S
H1470 C1478 0.950 . S
H1471 C1480 0.950 . S
H1472 C1482 0.950 . S
H1473 C1484 0.950 . S
H1474 C1486 0.950 . S
H1475 C1487 0.950 . S
C1476 H1468 0.950 . S
C1476 C1477 1.386 . S
C1476 C1478 1.391 . S
C1477 C1476 1.386 . S
C1477 C1481 1.393 . S
C1478 H1470 0.950 . S
C1478 C1476 1.391 . S
C1478 C1479 1.400 . S
C1479 C1478 1.400 . S
C1479 C1480 1.398 . S
C1479 C1485 1.491 . S
C1480 H1471 0.950 . S
C1480 C1479 1.398 . S
C1480 C1481 1.391 . S
C1481 H1469 0.950 . S
C1481 C1477 1.393 . S
C1481 C1480 1.391 . S
C1482 H1472 0.950 . S
C1482 C1483 1.386 . S
C1482 C1484 1.391 . S
C1483 C1482 1.386 . S
C1483 C1487 1.393 . S
C1484 H1473 0.950 . S
C1484 C1482 1.391 . S
C1484 C1485 1.400 . S
C1485 C1479 1.491 . S
C1485 C1484 1.400 . S
C1485 C1486 1.398 . S
C1486 H1474 0.950 . S
C1486 C1485 1.398 . S
C1486 C1487 1.391 . S
C1487 H1475 0.950 . S
C1487 C1483 1.393 . S
C1487 C1486 1.391 . S
H1488 C1496 0.950 . S
H1489 C1501 0.950 . S
H1490 C1498 0.950 . S
H1491 C1500 0.950 . S
H1492 C1502 0.950 . S
H1493 C1504 0.971 . S
H1494 C1506 0.950 . S
H1495 C1507 0.950 . S
C1496 H1488 0.950 . S
C1496 C1497 1.386 . S
C1496 C1498 1.391 1_554 S
C1497 C1496 1.386 . S
C1497 C1501 1.393 . S
C1498 H1490 0.950 . S
C1498 C1496 1.391 1_556 S
C1498 C1499 1.400 1_556 S
C1499 C1498 1.400 1_554 S
C1499 C1500 1.398 . S
C1499 C1505 1.491 1_554 S
C1500 H1491 0.950 . S
C1500 C1499 1.398 . S
C1500 C1501 1.391 . S
C1501 H1489 0.950 . S
C1501 C1497 1.393 . S
C1501 C1500 1.391 . S
C1502 H1492 0.950 . S
C1502 C1503 1.386 . S
C1502 C1504 1.378 1_556 S
C1503 C1502 1.386 . S
C1503 C1507 1.393 . S
C1504 H1493 0.971 . S
C1504 C1502 1.378 1_554 S
C1504 C1505 1.393 1_554 S
C1505 C1499 1.491 1_556 S
C1505 C1504 1.393 1_556 S
C1505 C1506 1.398 . S
C1506 H1494 0.950 . S
C1506 C1505 1.398 . S
C1506 C1507 1.391 . S
C1507 H1495 0.950 . S
C1507 C1503 1.393 . S
C1507 C1506 1.391 . S
H1508 C1516 0.950 . S
H1509 C1521 0.950 . S
H1510 C1518 0.950 . S
H1511 C1520 0.950 . S
H1512 C1522 0.950 . S
H1513 C1524 0.950 . S
H1514 C1526 0.950 . S
H1515 C1527 0.950 . S
C1516 H1508 0.950 . S
C1516 C1517 1.386 . S
C1516 C1518 1.391 . S
C1517 C1516 1.386 . S
C1517 C1521 1.393 . S
C1518 H1510 0.950 . S
C1518 C1516 1.391 . S
C1518 C1519 1.400 . S
C1519 C1518 1.400 . S
C1519 C1520 1.398 . S
C1519 C1525 1.491 . S
C1520 H1511 0.950 . S
C1520 C1519 1.398 . S
C1520 C1521 1.391 . S
C1521 H1509 0.950 . S
C1521 C1517 1.393 . S
C1521 C1520 1.391 . S
C1522 H1512 0.950 . S
C1522 C1523 1.386 . S
C1522 C1524 1.391 . S
C1523 C1522 1.386 . S
C1523 C1527 1.393 . S
C1524 H1513 0.950 . S
C1524 C1522 1.391 . S
C1524 C1525 1.400 . S
C1525 C1519 1.491 . S
C1525 C1524 1.400 . S
C1525 C1526 1.398 . S
C1526 H1514 0.950 . S
C1526 C1525 1.398 . S
C1526 C1527 1.391 . S
C1527 H1515 0.950 . S
C1527 C1523 1.393 . S
C1527 C1526 1.391 . S
H1528 C1536 0.950 . S
H1529 C1541 0.950 . S
H1530 C1538 0.950 . S
H1531 C1540 0.950 . S
H1532 C1542 0.950 . S
H1533 C1544 0.950 . S
H1534 C1546 0.950 . S
H1535 C1547 0.974 . S
C1536 H1528 0.950 . S
C1536 C1537 1.386 . S
C1536 C1538 1.391 . S
C1537 C1536 1.386 . S
C1537 C1541 1.393 . S
C1538 H1530 0.950 . S
C1538 C1536 1.391 . S
C1538 C1539 1.400 . S
C1539 C1538 1.400 . S
C1539 C1540 1.398 1_556 S
C1539 C1545 1.491 1_556 S
C1540 H1531 0.950 . S
C1540 C1539 1.398 1_554 S
C1540 C1541 1.391 1_554 S
C1541 H1529 0.950 . S
C1541 C1537 1.393 . S
C1541 C1540 1.391 1_556 S
C1542 H1532 0.950 . S
C1542 C1543 1.386 . S
C1542 C1544 1.391 . S
C1543 C1542 1.386 . S
C1543 C1547 1.393 . S
C1544 H1533 0.950 . S
C1544 C1542 1.391 . S
C1544 C1545 1.400 . S
C1545 C1539 1.491 1_554 S
C1545 C1544 1.400 . S
C1545 C1546 1.398 1_554 S
C1546 H1534 0.950 . S
C1546 C1545 1.398 1_556 S
C1546 C1547 1.391 1_556 S
C1547 H1535 0.974 . S
C1547 C1543 1.393 . S
C1547 C1546 1.391 1_554 S
H1548 C1556 0.950 . S
H1549 C1561 0.950 . S
H1550 C1558 0.950 . S
H1551 C1560 0.950 . S
H1552 C1562 0.950 . S
H1553 C1564 0.950 . S
H1554 C1566 0.950 . S
H1555 C1567 0.950 . S
C1556 H1548 0.950 . S
C1556 C1557 1.386 . S
C1556 C1558 1.391 . S
C1557 C1556 1.386 . S
C1557 C1561 1.393 . S
C1558 H1550 0.950 . S
C1558 C1556 1.391 . S
C1558 C1559 1.400 . S
C1559 C1558 1.400 . S
C1559 C1560 1.398 . S
C1559 C1565 1.491 . S
C1560 H1551 0.950 . S
C1560 C1559 1.398 . S
C1560 C1561 1.391 . S
C1561 H1549 0.950 . S
C1561 C1557 1.393 . S
C1561 C1560 1.391 . S
C1562 H1552 0.950 . S
C1562 C1563 1.386 . S
C1562 C1564 1.391 . S
C1563 C1562 1.386 . S
C1563 C1567 1.393 . S
C1564 H1553 0.950 . S
C1564 C1562 1.391 . S
C1564 C1565 1.400 . S
C1565 C1559 1.491 . S
C1565 C1564 1.400 . S
C1565 C1566 1.398 . S
C1566 H1554 0.950 . S
C1566 C1565 1.398 . S
C1566 C1567 1.391 . S
C1567 H1555 0.950 . S
C1567 C1563 1.393 . S
C1567 C1566 1.391 . S
H1568 C1576 0.950 . S
H1569 C1581 0.950 . S
H1570 C1578 0.950 . S
H1571 C1580 0.950 . S
H1572 C1582 0.950 . S
H1573 C1584 0.950 . S
H1574 C1586 0.950 . S
H1575 C1587 0.950 . S
C1576 H1568 0.950 . S
C1576 C1577 1.386 . S
C1576 C1578 1.391 . S
C1577 C1576 1.386 . S
C1577 C1581 1.393 . S
C1578 H1570 0.950 . S
C1578 C1576 1.391 . S
C1578 C1579 1.400 . S
C1579 C1578 1.400 . S
C1579 C1580 1.398 . S
C1579 C1585 1.491 1_544 S
C1580 H1571 0.950 . S
C1580 C1579 1.398 . S
C1580 C1581 1.391 . S
C1581 H1569 0.950 . S
C1581 C1577 1.393 . S
C1581 C1580 1.391 . S
C1582 H1572 0.950 . S
C1582 C1583 1.386 . S
C1582 C1584 1.391 . S
C1583 C1582 1.386 . S
C1583 C1587 1.393 . S
C1584 H1573 0.950 . S
C1584 C1582 1.391 . S
C1584 C1585 1.400 . S
C1585 C1579 1.491 1_566 S
C1585 C1584 1.400 . S
C1585 C1586 1.398 . S
C1586 H1574 0.950 . S
C1586 C1585 1.398 . S
C1586 C1587 1.391 . S
C1587 H1575 0.950 . S
C1587 C1583 1.393 . S
C1587 C1586 1.391 . S
H1588 C1596 0.950 . S
H1589 C1601 0.950 . S
H1590 C1598 0.950 . S
H1591 C1600 0.950 . S
H1592 C1602 0.950 . S
H1593 C1604 0.950 . S
H1594 C1606 0.950 . S
H1595 C1607 0.950 . S
C1596 H1588 0.950 . S
C1596 C1597 1.386 . S
C1596 C1598 1.391 . S
C1597 C1596 1.386 . S
C1597 C1601 1.393 . S
C1598 H1590 0.950 . S
C1598 C1596 1.391 . S
C1598 C1599 1.400 . S
C1599 C1598 1.400 . S
C1599 C1600 1.398 . S
C1599 C1605 1.491 1_565 S
C1600 H1591 0.950 . S
C1600 C1599 1.398 . S
C1600 C1601 1.391 . S
C1601 H1589 0.950 . S
C1601 C1597 1.393 . S
C1601 C1600 1.391 . S
C1602 H1592 0.950 . S
C1602 C1603 1.386 . S
C1602 C1604 1.391 . S
C1603 C1602 1.386 . S
C1603 C1607 1.393 . S
C1604 H1593 0.950 . S
C1604 C1602 1.391 . S
C1604 C1605 1.400 . S
C1605 C1599 1.491 1_545 S
C1605 C1604 1.400 . S
C1605 C1606 1.398 . S
C1606 H1594 0.950 . S
C1606 C1605 1.398 . S
C1606 C1607 1.391 . S
C1607 H1595 0.950 . S
C1607 C1603 1.393 . S
C1607 C1606 1.391 . S
H1608 C1616 0.950 . S
H1609 C1621 0.950 . S
H1610 C1618 0.950 . S
H1611 C1620 0.950 1_554 S
H1612 C1622 0.950 . S
H1613 C1624 0.950 . S
H1614 C1626 0.950 1_556 S
H1615 C1627 0.950 . S
C1616 H1608 0.950 . S
C1616 C1617 1.386 . S
C1616 C1618 1.391 . S
C1617 C1616 1.386 . S
C1617 C1621 1.393 . S
C1618 H1610 0.950 . S
C1618 C1616 1.391 . S
C1618 C1619 1.400 . S
C1619 C1618 1.400 . S
C1619 C1620 1.398 . S
C1619 C1625 1.491 1_566 S
C1620 H1611 0.950 1_556 S
C1620 C1619 1.398 . S
C1620 C1621 1.391 . S
C1621 H1609 0.950 . S
C1621 C1617 1.393 . S
C1621 C1620 1.391 . S
C1622 H1612 0.950 . S
C1622 C1623 1.386 . S
C1622 C1624 1.391 . S
C1623 C1622 1.386 . S
C1623 C1627 1.393 . S
C1624 H1613 0.950 . S
C1624 C1622 1.391 . S
C1624 C1625 1.400 . S
C1625 C1619 1.491 1_544 S
C1625 C1624 1.400 . S
C1625 C1626 1.398 . S
C1626 H1614 0.950 1_554 S
C1626 C1625 1.398 . S
C1626 C1627 1.391 . S
C1627 H1615 0.950 . S
C1627 C1623 1.393 . S
C1627 C1626 1.391 . S
H1628 C1636 0.950 . S
H1629 C1641 0.950 . S
H1630 C1638 0.950 . S
H1631 C1640 0.950 . S
H1632 C1642 0.950 . S
H1633 C1644 0.950 . S
H1634 C1646 0.950 . S
H1635 C1647 0.950 . S
C1636 H1628 0.950 . S
C1636 C1637 1.386 . S
C1636 C1638 1.391 . S
C1637 C1636 1.386 . S
C1637 C1641 1.393 . S
C1638 H1630 0.950 . S
C1638 C1636 1.391 . S
C1638 C1639 1.400 . S
C1639 C1638 1.400 . S
C1639 C1640 1.398 . S
C1639 C1645 1.491 1_545 S
C1640 H1631 0.950 . S
C1640 C1639 1.398 . S
C1640 C1641 1.391 . S
C1641 H1629 0.950 . S
C1641 C1637 1.393 . S
C1641 C1640 1.391 . S
C1642 H1632 0.950 . S
C1642 C1643 1.386 . S
C1642 C1644 1.391 . S
C1643 C1642 1.386 . S
C1643 C1647 1.393 . S
C1644 H1633 0.950 . S
C1644 C1642 1.391 . S
C1644 C1645 1.400 . S
C1645 C1639 1.491 1_565 S
C1645 C1644 1.400 . S
C1645 C1646 1.398 . S
C1646 H1634 0.950 . S
C1646 C1645 1.398 . S
C1646 C1647 1.391 . S
C1647 H1635 0.950 . S
C1647 C1643 1.393 . S
C1647 C1646 1.391 . S
H1648 C1656 0.950 . S
H1649 C1661 0.950 . S
H1650 C1658 0.950 1_554 S
H1651 C1660 0.950 . S
H1652 C1662 0.950 . S
H1653 C1664 0.950 1_556 S
H1654 C1666 0.950 . S
H1655 C1667 0.950 . S
C1656 H1648 0.950 . S
C1656 C1657 1.386 . S
C1656 C1658 1.391 . S
C1657 C1656 1.386 . S
C1657 C1661 1.393 . S
C1658 H1650 0.950 1_556 S
C1658 C1656 1.391 . S
C1658 C1659 1.400 . S
C1659 C1658 1.400 . S
C1659 C1660 1.398 . S
C1659 C1665 1.491 1_556 S
C1660 H1651 0.950 . S
C1660 C1659 1.398 . S
C1660 C1661 1.391 . S
C1661 H1649 0.950 . S
C1661 C1657 1.393 . S
C1661 C1660 1.391 . S
C1662 H1652 0.950 . S
C1662 C1663 1.386 . S
C1662 C1664 1.391 . S
C1663 C1662 1.386 . S
C1663 C1667 1.393 . S
C1664 H1653 0.950 1_554 S
C1664 C1662 1.391 . S
C1664 C1665 1.400 . S
C1665 C1659 1.491 1_554 S
C1665 C1664 1.400 . S
C1665 C1666 1.398 . S
C1666 H1654 0.950 . S
C1666 C1665 1.398 . S
C1666 C1667 1.391 . S
C1667 H1655 0.950 . S
C1667 C1663 1.393 . S
C1667 C1666 1.391 . S
H1668 C1676 0.950 . S
H1669 C1681 0.950 . S
H1670 C1678 0.950 . S
H1671 C1680 0.950 . S
H1672 C1682 0.950 . S
H1673 C1684 0.950 . S
H1674 C1686 0.950 . S
H1675 C1687 0.950 . S
C1676 H1668 0.950 . S
C1676 C1677 1.386 . S
C1676 C1678 1.391 . S
C1677 C1676 1.386 . S
C1677 C1681 1.393 . S
C1678 H1670 0.950 . S
C1678 C1676 1.391 . S
C1678 C1679 1.400 . S
C1679 C1678 1.400 . S
C1679 C1680 1.398 . S
C1679 C1685 1.491 . S
C1680 H1671 0.950 . S
C1680 C1679 1.398 . S
C1680 C1681 1.391 . S
C1681 H1669 0.950 . S
C1681 C1677 1.393 . S
C1681 C1680 1.391 . S
C1682 H1672 0.950 . S
C1682 C1683 1.386 . S
C1682 C1684 1.391 . S
C1683 C1682 1.386 . S
C1683 C1687 1.393 . S
C1684 H1673 0.950 . S
C1684 C1682 1.391 . S
C1684 C1685 1.400 . S
C1685 C1679 1.491 . S
C1685 C1684 1.400 . S
C1685 C1686 1.398 . S
C1686 H1674 0.950 . S
C1686 C1685 1.398 . S
C1686 C1687 1.391 . S
C1687 H1675 0.950 . S
C1687 C1683 1.393 . S
C1687 C1686 1.391 . S
H1688 C1696 0.950 . S
H1689 C1701 0.950 . S
H1690 C1698 0.950 . S
H1691 C1700 0.984 . S
H1692 C1702 0.950 . S
H1693 C1704 0.950 . S
H1694 C1706 0.984 . S
H1695 C1707 0.950 . S
C1696 H1688 0.950 . S
C1696 C1697 1.386 . S
C1696 C1698 1.391 . S
C1697 C1696 1.386 . S
C1697 C1701 1.393 . S
C1698 H1690 0.950 . S
C1698 C1696 1.391 . S
C1698 C1699 1.400 . S
C1699 C1698 1.400 . S
C1699 C1700 1.387 1_554 S
C1699 C1705 1.491 1_554 S
C1700 H1691 0.984 . S
C1700 C1699 1.387 1_556 S
C1700 C1701 1.370 1_556 S
C1701 H1689 0.950 . S
C1701 C1697 1.393 . S
C1701 C1700 1.370 1_554 S
C1702 H1692 0.950 . S
C1702 C1703 1.386 . S
C1702 C1704 1.391 . S
C1703 C1702 1.386 . S
C1703 C1707 1.393 . S
C1704 H1693 0.950 . S
C1704 C1702 1.391 . S
C1704 C1705 1.400 . S
C1705 C1699 1.491 1_556 S
C1705 C1704 1.400 . S
C1705 C1706 1.387 1_556 S
C1706 H1694 0.984 . S
C1706 C1705 1.387 1_554 S
C1706 C1707 1.370 1_554 S
C1707 H1695 0.950 . S
C1707 C1703 1.393 . S
C1707 C1706 1.370 1_556 S
H1708 C1716 0.950 . S
H1709 C1721 0.950 . S
H1710 C1718 0.950 . S
H1711 C1720 0.950 . S
H1712 C1722 0.950 . S
H1713 C1724 0.950 . S
H1714 C1726 0.950 . S
H1715 C1727 0.950 . S
C1716 H1708 0.950 . S
C1716 C1717 1.386 . S
C1716 C1718 1.391 . S
C1717 C1716 1.386 . S
C1717 C1721 1.393 . S
C1718 H1710 0.950 . S
C1718 C1716 1.391 . S
C1718 C1719 1.400 . S
C1719 C1718 1.400 . S
C1719 C1720 1.398 . S
C1719 C1725 1.491 . S
C1720 H1711 0.950 . S
C1720 C1719 1.398 . S
C1720 C1721 1.391 . S
C1721 H1709 0.950 . S
C1721 C1717 1.393 . S
C1721 C1720 1.391 . S
C1722 H1712 0.950 . S
C1722 C1723 1.386 . S
C1722 C1724 1.391 . S
C1723 C1722 1.386 . S
C1723 C1727 1.393 . S
C1724 H1713 0.950 . S
C1724 C1722 1.391 . S
C1724 C1725 1.400 . S
C1725 C1719 1.491 . S
C1725 C1724 1.400 . S
C1725 C1726 1.398 . S
C1726 H1714 0.950 . S
C1726 C1725 1.398 . S
C1726 C1727 1.391 . S
C1727 H1715 0.950 . S
C1727 C1723 1.393 . S
C1727 C1726 1.391 . S
H1728 C1736 0.950 . S
H1729 C1741 0.950 . S
H1730 C1738 0.950 . S
H1731 C1740 0.950 . S
H1732 C1742 0.950 . S
H1733 C1744 0.950 . S
H1734 C1746 0.950 . S
H1735 C1747 0.950 . S
C1736 H1728 0.950 . S
C1736 C1737 1.386 . S
C1736 C1738 1.391 . S
C1737 C1736 1.386 . S
C1737 C1741 1.393 . S
C1738 H1730 0.950 . S
C1738 C1736 1.391 . S
C1738 C1739 1.400 . S
C1739 C1738 1.400 . S
C1739 C1740 1.398 . S
C1739 C1745 1.491 . S
C1740 H1731 0.950 . S
C1740 C1739 1.398 . S
C1740 C1741 1.391 . S
C1741 H1729 0.950 . S
C1741 C1737 1.393 . S
C1741 C1740 1.391 . S
C1742 H1732 0.950 . S
C1742 C1743 1.386 . S
C1742 C1744 1.391 . S
C1743 C1742 1.386 . S
C1743 C1747 1.393 . S
C1744 H1733 0.950 . S
C1744 C1742 1.391 . S
C1744 C1745 1.400 . S
C1745 C1739 1.491 . S
C1745 C1744 1.400 . S
C1745 C1746 1.398 . S
C1746 H1734 0.950 . S
C1746 C1745 1.398 . S
C1746 C1747 1.391 . S
C1747 H1735 0.950 . S
C1747 C1743 1.393 . S
C1747 C1746 1.391 . S
H1748 C1756 0.950 . S
H1749 C1761 0.950 . S
H1750 C1758 0.950 . S
H1751 C1760 0.950 . S
H1752 C1762 0.950 . S
H1753 C1764 0.950 . S
H1754 C1766 0.950 . S
H1755 C1767 0.950 . S
C1756 H1748 0.950 . S
C1756 C1757 1.386 . S
C1756 C1758 1.391 . S
C1757 C1756 1.386 . S
C1757 C1761 1.393 . S
C1758 H1750 0.950 . S
C1758 C1756 1.391 . S
C1758 C1759 1.400 . S
C1759 C1758 1.400 . S
C1759 C1760 1.398 . S
C1759 C1765 1.491 1_655 S
C1760 H1751 0.950 . S
C1760 C1759 1.398 . S
C1760 C1761 1.391 . S
C1761 H1749 0.950 . S
C1761 C1757 1.393 . S
C1761 C1760 1.391 . S
C1762 H1752 0.950 . S
C1762 C1763 1.386 . S
C1762 C1764 1.391 . S
C1763 C1762 1.386 . S
C1763 C1767 1.393 . S
C1764 H1753 0.950 . S
C1764 C1762 1.391 . S
C1764 C1765 1.400 . S
C1765 C1759 1.491 1_455 S
C1765 C1764 1.400 . S
C1765 C1766 1.398 . S
C1766 H1754 0.950 . S
C1766 C1765 1.398 . S
C1766 C1767 1.391 . S
C1767 H1755 0.950 . S
C1767 C1763 1.393 . S
C1767 C1766 1.391 . S
H1768 C1776 0.950 . S
H1769 C1781 0.950 . S
H1770 C1778 0.950 . S
H1771 C1780 0.950 . S
H1772 C1782 0.950 . S
H1773 C1784 0.950 . S
H1774 C1786 0.950 . S
H1775 C1787 0.950 . S
C1776 H1768 0.950 . S
C1776 C1777 1.386 . S
C1776 C1778 1.391 . S
C1777 C1776 1.386 . S
C1777 C1781 1.393 . S
C1778 H1770 0.950 . S
C1778 C1776 1.391 . S
C1778 C1779 1.400 . S
C1779 C1778 1.400 . S
C1779 C1780 1.398 . S
C1779 C1785 1.491 . S
C1780 H1771 0.950 . S
C1780 C1779 1.398 . S
C1780 C1781 1.391 . S
C1781 H1769 0.950 . S
C1781 C1777 1.393 . S
C1781 C1780 1.391 . S
C1782 H1772 0.950 . S
C1782 C1783 1.386 . S
C1782 C1784 1.391 . S
C1783 C1782 1.386 . S
C1783 C1787 1.393 . S
C1784 H1773 0.950 . S
C1784 C1782 1.391 . S
C1784 C1785 1.400 . S
C1785 C1779 1.491 . S
C1785 C1784 1.400 . S
C1785 C1786 1.398 . S
C1786 H1774 0.950 . S
C1786 C1785 1.398 . S
C1786 C1787 1.391 . S
C1787 H1775 0.950 . S
C1787 C1783 1.393 . S
C1787 C1786 1.391 . S
H1788 C1796 0.950 . S
H1789 C1801 0.950 . S
H1790 C1798 0.950 . S
H1791 C1800 0.950 . S
H1792 C1802 0.950 . S
H1793 C1804 0.950 . S
H1794 C1806 0.950 . S
H1795 C1807 0.950 . S
C1796 H1788 0.950 . S
C1796 C1797 1.386 . S
C1796 C1798 1.391 . S
C1797 C1796 1.386 . S
C1797 C1801 1.393 . S
C1798 H1790 0.950 . S
C1798 C1796 1.391 . S
C1798 C1799 1.400 . S
C1799 C1798 1.400 . S
C1799 C1800 1.398 . S
C1799 C1805 1.491 1_455 S
C1800 H1791 0.950 . S
C1800 C1799 1.398 . S
C1800 C1801 1.391 . S
C1801 H1789 0.950 . S
C1801 C1797 1.393 . S
C1801 C1800 1.391 . S
C1802 H1792 0.950 . S
C1802 C1803 1.386 . S
C1802 C1804 1.391 . S
C1803 C1802 1.386 . S
C1803 C1807 1.393 . S
C1804 H1793 0.950 . S
C1804 C1802 1.391 . S
C1804 C1805 1.400 . S
C1805 C1799 1.491 1_655 S
C1805 C1804 1.400 . S
C1805 C1806 1.398 . S
C1806 H1794 0.950 . S
C1806 C1805 1.398 . S
C1806 C1807 1.391 . S
C1807 H1795 0.950 . S
C1807 C1803 1.393 . S
C1807 C1806 1.391 . S
H1808 C1816 0.950 . S
H1809 C1821 0.950 . S
H1810 C1818 0.950 . S
H1811 C1820 0.950 . S
H1812 C1822 0.950 . S
H1813 C1824 0.950 . S
H1814 C1826 0.950 . S
H1815 C1827 0.950 . S
C1816 H1808 0.950 . S
C1816 C1817 1.386 . S
C1816 C1818 1.391 . S
C1817 C1816 1.386 . S
C1817 C1821 1.393 . S
C1818 H1810 0.950 . S
C1818 C1816 1.391 . S
C1818 C1819 1.400 . S
C1819 C1818 1.400 . S
C1819 C1820 1.398 . S
C1819 C1825 1.491 1_455 S
C1820 H1811 0.950 . S
C1820 C1819 1.398 . S
C1820 C1821 1.391 . S
C1821 H1809 0.950 . S
C1821 C1817 1.393 . S
C1821 C1820 1.391 . S
C1822 H1812 0.950 . S
C1822 C1823 1.386 . S
C1822 C1824 1.391 . S
C1823 C1822 1.386 . S
C1823 C1827 1.393 . S
C1824 H1813 0.950 . S
C1824 C1822 1.391 . S
C1824 C1825 1.400 . S
C1825 C1819 1.491 1_655 S
C1825 C1824 1.400 . S
C1825 C1826 1.398 . S
C1826 H1814 0.950 . S
C1826 C1825 1.398 . S
C1826 C1827 1.391 . S
C1827 H1815 0.950 . S
C1827 C1823 1.393 . S
C1827 C1826 1.391 . S
H1828 C1836 0.950 . S
H1829 C1841 0.950 . S
H1830 C1838 0.950 . S
H1831 C1840 0.950 . S
H1832 C1842 0.950 . S
H1833 C1844 0.950 . S
H1834 C1846 0.950 . S
H1835 C1847 0.950 . S
C1836 H1828 0.950 . S
C1836 C1837 1.386 . S
C1836 C1838 1.391 . S
C1837 C1836 1.386 . S
C1837 C1841 1.393 . S
C1838 H1830 0.950 . S
C1838 C1836 1.391 . S
C1838 C1839 1.400 . S
C1839 C1838 1.400 . S
C1839 C1840 1.398 . S
C1839 C1845 1.491 . S
C1840 H1831 0.950 . S
C1840 C1839 1.398 . S
C1840 C1841 1.391 . S
C1841 H1829 0.950 . S
C1841 C1837 1.393 . S
C1841 C1840 1.391 . S
C1842 H1832 0.950 . S
C1842 C1843 1.386 . S
C1842 C1844 1.391 . S
C1843 C1842 1.386 . S
C1843 C1847 1.393 . S
C1844 H1833 0.950 . S
C1844 C1842 1.391 . S
C1844 C1845 1.400 . S
C1845 C1839 1.491 . S
C1845 C1844 1.400 . S
C1845 C1846 1.398 . S
C1846 H1834 0.950 . S
C1846 C1845 1.398 . S
C1846 C1847 1.391 . S
C1847 H1835 0.950 . S
C1847 C1843 1.393 . S
C1847 C1846 1.391 . S
H1848 C1856 0.950 . S
H1849 C1861 0.950 . S
H1850 C1858 0.950 . S
H1851 C1860 0.950 . S
H1852 C1862 0.950 . S
H1853 C1864 0.950 . S
H1854 C1866 0.950 . S
H1855 C1867 0.950 . S
C1856 H1848 0.950 . S
C1856 C1857 1.386 . S
C1856 C1858 1.391 . S
C1857 C1856 1.386 . S
C1857 C1861 1.393 . S
C1858 H1850 0.950 . S
C1858 C1856 1.391 . S
C1858 C1859 1.400 . S
C1859 C1858 1.400 . S
C1859 C1860 1.398 . S
C1859 C1865 1.491 1_455 S
C1860 H1851 0.950 . S
C1860 C1859 1.398 . S
C1860 C1861 1.391 . S
C1861 H1849 0.950 . S
C1861 C1857 1.393 . S
C1861 C1860 1.391 . S
C1862 H1852 0.950 . S
C1862 C1863 1.386 . S
C1862 C1864 1.391 . S
C1863 C1862 1.386 . S
C1863 C1867 1.393 . S
C1864 H1853 0.950 . S
C1864 C1862 1.391 . S
C1864 C1865 1.400 . S
C1865 C1859 1.491 1_655 S
C1865 C1864 1.400 . S
C1865 C1866 1.398 . S
C1866 H1854 0.950 . S
C1866 C1865 1.398 . S
C1866 C1867 1.391 . S
C1867 H1855 0.950 . S
C1867 C1863 1.393 . S
C1867 C1866 1.391 . S
H1868 C1876 0.950 . S
H1869 C1881 0.950 . S
H1870 C1878 0.950 . S
H1871 C1880 0.950 . S
H1872 C1882 0.950 . S
H1873 C1884 0.950 . S
H1874 C1886 0.950 . S
H1875 C1887 0.950 . S
C1876 H1868 0.950 . S
C1876 C1877 1.386 . S
C1876 C1878 1.391 . S
C1877 C1876 1.386 . S
C1877 C1881 1.393 . S
C1878 H1870 0.950 . S
C1878 C1876 1.391 . S
C1878 C1879 1.400 . S
C1879 C1878 1.400 . S
C1879 C1880 1.398 . S
C1879 C1885 1.491 . S
C1880 H1871 0.950 . S
C1880 C1879 1.398 . S
C1880 C1881 1.391 . S
C1881 H1869 0.950 . S
C1881 C1877 1.393 . S
C1881 C1880 1.391 . S
C1882 H1872 0.950 . S
C1882 C1883 1.386 . S
C1882 C1884 1.391 . S
C1883 C1882 1.386 . S
C1883 C1887 1.393 . S
C1884 H1873 0.950 . S
C1884 C1882 1.391 . S
C1884 C1885 1.400 . S
C1885 C1879 1.491 . S
C1885 C1884 1.400 . S
C1885 C1886 1.398 . S
C1886 H1874 0.950 . S
C1886 C1885 1.398 . S
C1886 C1887 1.391 . S
C1887 H1875 0.950 . S
C1887 C1883 1.393 . S
C1887 C1886 1.391 . S
H1888 C1896 0.950 . S
H1889 C1901 0.950 . S
H1890 C1898 0.950 . S
H1891 C1900 0.950 . S
H1892 C1902 0.950 . S
H1893 C1904 0.950 . S
H1894 C1906 0.950 . S
H1895 C1907 0.950 . S
C1896 H1888 0.950 . S
C1896 C1897 1.386 . S
C1896 C1898 1.391 . S
C1897 C1896 1.386 . S
C1897 C1901 1.393 . S
C1898 H1890 0.950 . S
C1898 C1896 1.391 . S
C1898 C1899 1.400 . S
C1899 C1898 1.400 . S
C1899 C1900 1.398 . S
C1899 C1905 1.491 . S
C1900 H1891 0.950 . S
C1900 C1899 1.398 . S
C1900 C1901 1.391 . S
C1901 H1889 0.950 . S
C1901 C1897 1.393 . S
C1901 C1900 1.391 . S
C1902 H1892 0.950 . S
C1902 C1903 1.386 . S
C1902 C1904 1.391 . S
C1903 C1902 1.386 . S
C1903 C1907 1.393 . S
C1904 H1893 0.950 . S
C1904 C1902 1.391 . S
C1904 C1905 1.400 . S
C1905 C1899 1.491 . S
C1905 C1904 1.400 . S
C1905 C1906 1.398 . S
C1906 H1894 0.950 . S
C1906 C1905 1.398 . S
C1906 C1907 1.391 . S
C1907 H1895 0.950 . S
C1907 C1903 1.393 . S
C1907 C1906 1.391 . S
H1908 C1916 0.950 . S
H1909 C1921 0.950 . S
H1910 C1918 0.950 . S
H1911 C1920 0.950 . S
H1912 C1922 0.950 . S
H1913 C1924 0.950 . S
H1914 C1926 0.950 . S
H1915 C1927 0.950 . S
C1916 H1908 0.950 . S
C1916 C1917 1.386 . S
C1916 C1918 1.391 . S
C1917 C1916 1.386 . S
C1917 C1921 1.393 . S
C1918 H1910 0.950 . S
C1918 C1916 1.391 . S
C1918 C1919 1.400 . S
C1919 C1918 1.400 . S
C1919 C1920 1.398 . S
C1919 C1925 1.491 . S
C1920 H1911 0.950 . S
C1920 C1919 1.398 . S
C1920 C1921 1.391 . S
C1921 H1909 0.950 . S
C1921 C1917 1.393 . S
C1921 C1920 1.391 . S
C1922 H1912 0.950 . S
C1922 C1923 1.386 . S
C1922 C1924 1.391 . S
C1923 C1922 1.386 . S
C1923 C1927 1.393 . S
C1924 H1913 0.950 . S
C1924 C1922 1.391 . S
C1924 C1925 1.400 . S
C1925 C1919 1.491 . S
C1925 C1924 1.400 . S
C1925 C1926 1.398 . S
C1926 H1914 0.950 . S
C1926 C1925 1.398 . S
C1926 C1927 1.391 . S
C1927 H1915 0.950 . S
C1927 C1923 1.393 . S
C1927 C1926 1.391 . S
H1928 C1936 0.950 . S
H1929 C1941 0.950 . S
H1930 C1938 0.950 . S
H1931 C1940 0.950 . S
H1932 C1942 0.950 . S
H1933 C1944 0.950 . S
H1934 C1946 0.950 . S
H1935 C1947 0.950 . S
C1936 H1928 0.950 . S
C1936 C1937 1.386 . S
C1936 C1938 1.391 . S
C1937 C1936 1.386 . S
C1937 C1941 1.393 . S
C1938 H1930 0.950 . S
C1938 C1936 1.391 . S
C1938 C1939 1.400 . S
C1939 C1938 1.400 . S
C1939 C1940 1.398 . S
C1939 C1945 1.491 . S
C1940 H1931 0.950 . S
C1940 C1939 1.398 . S
C1940 C1941 1.391 . S
C1941 H1929 0.950 . S
C1941 C1937 1.393 . S
C1941 C1940 1.391 . S
C1942 H1932 0.950 . S
C1942 C1943 1.386 . S
C1942 C1944 1.391 . S
C1943 C1942 1.386 . S
C1943 C1947 1.393 . S
C1944 H1933 0.950 . S
C1944 C1942 1.391 . S
C1944 C1945 1.400 . S
C1945 C1939 1.491 . S
C1945 C1944 1.400 . S
C1945 C1946 1.398 . S
C1946 H1934 0.950 . S
C1946 C1945 1.398 . S
C1946 C1947 1.391 . S
C1947 H1935 0.950 . S
C1947 C1943 1.393 . S
C1947 C1946 1.391 . S
H1948 C1956 0.950 . S
H1949 C1961 0.950 . S
H1950 C1958 0.950 . S
H1951 C1960 0.950 . S
H1952 C1962 0.950 . S
H1953 C1964 0.950 . S
H1954 C1966 0.950 . S
H1955 C1967 0.950 . S
C1956 H1948 0.950 . S
C1956 C1957 1.386 . S
C1956 C1958 1.391 . S
C1957 C1956 1.386 . S
C1957 C1961 1.393 . S
C1958 H1950 0.950 . S
C1958 C1956 1.391 . S
C1958 C1959 1.400 . S
C1959 C1958 1.400 . S
C1959 C1960 1.398 . S
C1959 C1965 1.491 . S
C1960 H1951 0.950 . S
C1960 C1959 1.398 . S
C1960 C1961 1.391 . S
C1961 H1949 0.950 . S
C1961 C1957 1.393 . S
C1961 C1960 1.391 . S
C1962 H1952 0.950 . S
C1962 C1963 1.386 . S
C1962 C1964 1.391 . S
C1963 C1962 1.386 . S
C1963 C1967 1.393 . S
C1964 H1953 0.950 . S
C1964 C1962 1.391 . S
C1964 C1965 1.400 . S
C1965 C1959 1.491 . S
C1965 C1964 1.400 . S
C1965 C1966 1.398 . S
C1966 H1954 0.950 . S
C1966 C1965 1.398 . S
C1966 C1967 1.391 . S
C1967 H1955 0.950 . S
C1967 C1963 1.393 . S
C1967 C1966 1.391 . S
H1968 C1976 0.950 . S
H1969 C1981 0.950 . S
H1970 C1978 0.950 . S
H1971 C1980 0.950 . S
H1972 C1982 0.950 . S
H1973 C1984 0.950 . S
H1974 C1986 0.950 . S
H1975 C1987 0.950 . S
C1976 H1968 0.950 . S
C1976 C1977 1.386 . S
C1976 C1978 1.391 . S
C1977 C1976 1.386 . S
C1977 C1981 1.393 . S
C1978 H1970 0.950 . S
C1978 C1976 1.391 . S
C1978 C1979 1.400 . S
C1979 C1978 1.400 . S
C1979 C1980 1.398 . S
C1979 C1985 1.491 . S
C1980 H1971 0.950 . S
C1980 C1979 1.398 . S
C1980 C1981 1.391 . S
C1981 H1969 0.950 . S
C1981 C1977 1.393 . S
C1981 C1980 1.391 . S
C1982 H1972 0.950 . S
C1982 C1983 1.386 . S
C1982 C1984 1.391 . S
C1983 C1982 1.386 . S
C1983 C1987 1.393 . S
C1984 H1973 0.950 . S
C1984 C1982 1.391 . S
C1984 C1985 1.400 . S
C1985 C1979 1.491 . S
C1985 C1984 1.400 . S
C1985 C1986 1.398 . S
C1986 H1974 0.950 . S
C1986 C1985 1.398 . S
C1986 C1987 1.391 . S
C1987 H1975 0.950 . S
C1987 C1983 1.393 . S
C1987 C1986 1.391 . S
H1988 C1996 0.950 . S
H1989 C2001 0.950 . S
H1990 C1998 0.950 . S
H1991 C2000 0.950 . S
H1992 C2002 0.950 . S
H1993 C2004 0.950 . S
H1994 C2006 0.950 . S
H1995 C2007 0.950 . S
C1996 H1988 0.950 . S
C1996 C1997 1.386 . S
C1996 C1998 1.391 . S
C1997 C1996 1.386 . S
C1997 C2001 1.393 . S
C1998 H1990 0.950 . S
C1998 C1996 1.391 . S
C1998 C1999 1.400 . S
C1999 C1998 1.400 . S
C1999 C2000 1.398 . S
C1999 C2005 1.491 . S
C2000 H1991 0.950 . S
C2000 C1999 1.398 . S
C2000 C2001 1.391 . S
C2001 H1989 0.950 . S
C2001 C1997 1.393 . S
C2001 C2000 1.391 . S
C2002 H1992 0.950 . S
C2002 C2003 1.386 . S
C2002 C2004 1.391 . S
C2003 C2002 1.386 . S
C2003 C2007 1.393 . S
C2004 H1993 0.950 . S
C2004 C2002 1.391 . S
C2004 C2005 1.400 . S
C2005 C1999 1.491 . S
C2005 C2004 1.400 . S
C2005 C2006 1.398 . S
C2006 H1994 0.950 . S
C2006 C2005 1.398 . S
C2006 C2007 1.391 . S
C2007 H1995 0.950 . S
C2007 C2003 1.393 . S
C2007 C2006 1.391 . S
H2008 C2016 0.950 . S
H2009 C2021 0.950 . S
H2010 C2018 0.950 . S
H2011 C2020 0.950 . S
H2012 C2022 0.950 . S
H2013 C2024 0.950 . S
H2014 C2026 0.950 . S
H2015 C2027 0.950 . S
C2016 H2008 0.950 . S
C2016 C2017 1.386 . S
C2016 C2018 1.391 . S
C2017 C2016 1.386 . S
C2017 C2021 1.393 . S
C2018 H2010 0.950 . S
C2018 C2016 1.391 . S
C2018 C2019 1.400 . S
C2019 C2018 1.400 . S
C2019 C2020 1.398 . S
C2019 C2025 1.491 . S
C2020 H2011 0.950 . S
C2020 C2019 1.398 . S
C2020 C2021 1.391 . S
C2021 H2009 0.950 . S
C2021 C2017 1.393 . S
C2021 C2020 1.391 . S
C2022 H2012 0.950 . S
C2022 C2023 1.386 . S
C2022 C2024 1.391 . S
C2023 C2022 1.386 . S
C2023 C2027 1.393 . S
C2024 H2013 0.950 . S
C2024 C2022 1.391 . S
C2024 C2025 1.400 . S
C2025 C2019 1.491 . S
C2025 C2024 1.400 . S
C2025 C2026 1.398 . S
C2026 H2014 0.950 . S
C2026 C2025 1.398 . S
C2026 C2027 1.391 . S
C2027 H2015 0.950 . S
C2027 C2023 1.393 . S
C2027 C2026 1.391 . S
H2028 C2036 0.950 . S
H2029 C2041 0.950 . S
H2030 C2038 0.950 . S
H2031 C2040 0.950 . S
H2032 C2042 0.950 . S
H2033 C2044 0.950 . S
H2034 C2046 0.950 . S
H2035 C2047 0.950 . S
C2036 H2028 0.950 . S
C2036 C2037 1.386 . S
C2036 C2038 1.391 . S
C2037 C2036 1.386 . S
C2037 C2041 1.393 . S
C2038 H2030 0.950 . S
C2038 C2036 1.391 . S
C2038 C2039 1.400 . S
C2039 C2038 1.400 . S
C2039 C2040 1.398 . S
C2039 C2045 1.491 . S
C2040 H2031 0.950 . S
C2040 C2039 1.398 . S
C2040 C2041 1.391 . S
C2041 H2029 0.950 . S
C2041 C2037 1.393 . S
C2041 C2040 1.391 . S
C2042 H2032 0.950 . S
C2042 C2043 1.386 . S
C2042 C2044 1.391 . S
C2043 C2042 1.386 . S
C2043 C2047 1.393 . S
C2044 H2033 0.950 . S
C2044 C2042 1.391 . S
C2044 C2045 1.400 . S
C2045 C2039 1.491 . S
C2045 C2044 1.400 . S
C2045 C2046 1.398 . S
C2046 H2034 0.950 . S
C2046 C2045 1.398 . S
C2046 C2047 1.391 . S
C2047 H2035 0.950 . S
C2047 C2043 1.393 . S
C2047 C2046 1.391 . S
C1417 C20 1.324 . S
C1423 C1085 1.324 . S
C1437 C1164 1.326 . S
C1443 C137 1.326 . S
C1457 C233 1.322 . S
C1463 C1281 1.320 . S
C1477 C1377 1.326 . S
C1483 C284 1.326 . S
C1497 C724 1.326 . S
C1503 C381 1.326 . S
C1517 C460 1.323 . S
C1523 C841 1.325 . S
C1537 C937 1.322 . S
C1543 C577 1.320 . S
C1557 C673 1.326 . S
C1563 C988 1.326 . S
C1577 C49 1.486 . S
C1583 C205 1.486 . S
C1597 C108 1.481 . S
C1603 C313 1.481 . S
C1617 C372 1.478 . S
C1623 C585 1.483 . S
C1637 C469 1.482 . S
C1643 C665 1.476 . S
C1657 C909 1.479 . S
C1663 C753 1.484 . S
C1677 C812 1.486 . S
C1683 C1017 1.486 . S
C1697 C1289 1.476 . S
C1703 C1076 1.482 . S
C1717 C1173 1.482 . S
C1723 C1369 1.476 . S
C1737 C548 1.516 . S
C1743 C29 1.521 . S
C1757 C645 1.515 . S
C1763 C145 1.521 . S
C1777 C225 1.521 . S
C1783 C409 1.516 . S
C1797 C293 1.517 . S
C1803 C489 1.520 . S
C1817 C1252 1.520 . S
C1823 C733 1.516 . S
C1837 C849 1.516 . S
C1843 C1349 1.521 . S
C1857 C1113 1.518 . S
C1863 C929 1.517 . S
C1877 C997 1.521 . S
C1883 C1193 1.516 . S
C1897 C57 1.323 . S
C1903 C321 1.324 . S
C1917 C196 1.317 . S
C1923 C117 1.317 . S
C1937 C401 1.305 . S
C1943 C636 1.305 . S
C1957 C497 1.301 . S
C1963 C557 1.301 . S
C1977 C1025 1.319 . S
C1983 C761 1.318 . S
C1997 C821 1.321 . S
C2003 C900 1.322 . S
C2017 C1340 1.305 . S
C2023 C1105 1.306 . S
C2037 C1201 1.302 . S
C2043 C1261 1.302 . S
