# Generated by pormake.
# Topology pbz, (3)-cn, num edge types: 1
# Building blocks:
#     Node 0, Type 0, BuildingBlock: OLANEW_clean_sbu_2, # of connection points: 3
#     Node 1, Type 0, BuildingBlock: OLANEW_clean_sbu_2, # of connection points: 3
#     Node 2, Type 0, BuildingBlock: OLANEW_clean_sbu_2, # of connection points: 3
#     Node 3, Type 0, BuildingBlock: OLANEW_clean_sbu_2, # of connection points: 3
#     Node 4, Type 0, BuildingBlock: OLANEW_clean_sbu_2, # of connection points: 3
#     Node 5, Type 0, BuildingBlock: OLANEW_clean_sbu_2, # of connection points: 3
#     Node 6, Type 0, BuildingBlock: OLANEW_clean_sbu_2, # of connection points: 3
#     Node 7, Type 0, BuildingBlock: OLANEW_clean_sbu_2, # of connection points: 3
#     Node 8, Type 0, BuildingBlock: OLANEW_clean_sbu_2, # of connection points: 3
#     Node 9, Type 0, BuildingBlock: OLANEW_clean_sbu_2, # of connection points: 3
#     Node 10, Type 0, BuildingBlock: OLANEW_clean_sbu_2, # of connection points: 3
#     Node 11, Type 0, BuildingBlock: OLANEW_clean_sbu_2, # of connection points: 3
#     Node 12, Type 0, BuildingBlock: OLANEW_clean_sbu_2, # of connection points: 3
#     Node 13, Type 0, BuildingBlock: OLANEW_clean_sbu_2, # of connection points: 3
#     Node 14, Type 0, BuildingBlock: OLANEW_clean_sbu_2, # of connection points: 3
#     Node 15, Type 0, BuildingBlock: OLANEW_clean_sbu_2, # of connection points: 3
#     Node 16, Type 0, BuildingBlock: OLANEW_clean_sbu_2, # of connection points: 3
#     Node 17, Type 0, BuildingBlock: OLANEW_clean_sbu_2, # of connection points: 3
#     Node 18, Type 0, BuildingBlock: OLANEW_clean_sbu_2, # of connection points: 3
#     Node 19, Type 0, BuildingBlock: OLANEW_clean_sbu_2, # of connection points: 3
#     Node 20, Type 0, BuildingBlock: OLANEW_clean_sbu_2, # of connection points: 3
#     Node 21, Type 0, BuildingBlock: OLANEW_clean_sbu_2, # of connection points: 3
#     Node 22, Type 0, BuildingBlock: OLANEW_clean_sbu_2, # of connection points: 3
#     Node 23, Type 0, BuildingBlock: OLANEW_clean_sbu_2, # of connection points: 3
#     Edge 24, Type (0, 0), BuildingBlock: XUDNAN_clean_linker_2, # of connection points: 2
#     Edge 25, Type (0, 0), BuildingBlock: XUDNAN_clean_linker_2, # of connection points: 2
#     Edge 26, Type (0, 0), BuildingBlock: XUDNAN_clean_linker_2, # of connection points: 2
#     Edge 27, Type (0, 0), BuildingBlock: XUDNAN_clean_linker_2, # of connection points: 2
#     Edge 28, Type (0, 0), BuildingBlock: XUDNAN_clean_linker_2, # of connection points: 2
#     Edge 29, Type (0, 0), BuildingBlock: XUDNAN_clean_linker_2, # of connection points: 2
#     Edge 30, Type (0, 0), BuildingBlock: XUDNAN_clean_linker_2, # of connection points: 2
#     Edge 31, Type (0, 0), BuildingBlock: XUDNAN_clean_linker_2, # of connection points: 2
#     Edge 32, Type (0, 0), BuildingBlock: XUDNAN_clean_linker_2, # of connection points: 2
#     Edge 33, Type (0, 0), BuildingBlock: XUDNAN_clean_linker_2, # of connection points: 2
#     Edge 34, Type (0, 0), BuildingBlock: XUDNAN_clean_linker_2, # of connection points: 2
#     Edge 35, Type (0, 0), BuildingBlock: XUDNAN_clean_linker_2, # of connection points: 2
#     Edge 36, Type (0, 0), BuildingBlock: XUDNAN_clean_linker_2, # of connection points: 2
#     Edge 37, Type (0, 0), BuildingBlock: XUDNAN_clean_linker_2, # of connection points: 2
#     Edge 38, Type (0, 0), BuildingBlock: XUDNAN_clean_linker_2, # of connection points: 2
#     Edge 39, Type (0, 0), BuildingBlock: XUDNAN_clean_linker_2, # of connection points: 2
#     Edge 40, Type (0, 0), BuildingBlock: XUDNAN_clean_linker_2, # of connection points: 2
#     Edge 41, Type (0, 0), BuildingBlock: XUDNAN_clean_linker_2, # of connection points: 2
#     Edge 42, Type (0, 0), BuildingBlock: XUDNAN_clean_linker_2, # of connection points: 2
#     Edge 43, Type (0, 0), BuildingBlock: XUDNAN_clean_linker_2, # of connection points: 2
#     Edge 44, Type (0, 0), BuildingBlock: XUDNAN_clean_linker_2, # of connection points: 2
#     Edge 45, Type (0, 0), BuildingBlock: XUDNAN_clean_linker_2, # of connection points: 2
#     Edge 46, Type (0, 0), BuildingBlock: XUDNAN_clean_linker_2, # of connection points: 2
#     Edge 47, Type (0, 0), BuildingBlock: XUDNAN_clean_linker_2, # of connection points: 2
#     Edge 48, Type (0, 0), BuildingBlock: XUDNAN_clean_linker_2, # of connection points: 2
#     Edge 49, Type (0, 0), BuildingBlock: XUDNAN_clean_linker_2, # of connection points: 2
#     Edge 50, Type (0, 0), BuildingBlock: XUDNAN_clean_linker_2, # of connection points: 2
#     Edge 51, Type (0, 0), BuildingBlock: XUDNAN_clean_linker_2, # of connection points: 2
#     Edge 52, Type (0, 0), BuildingBlock: XUDNAN_clean_linker_2, # of connection points: 2
#     Edge 53, Type (0, 0), BuildingBlock: XUDNAN_clean_linker_2, # of connection points: 2
#     Edge 54, Type (0, 0), BuildingBlock: XUDNAN_clean_linker_2, # of connection points: 2
#     Edge 55, Type (0, 0), BuildingBlock: XUDNAN_clean_linker_2, # of connection points: 2
#     Edge 56, Type (0, 0), BuildingBlock: XUDNAN_clean_linker_2, # of connection points: 2
#     Edge 57, Type (0, 0), BuildingBlock: XUDNAN_clean_linker_2, # of connection points: 2
#     Edge 58, Type (0, 0), BuildingBlock: XUDNAN_clean_linker_2, # of connection points: 2
#     Edge 59, Type (0, 0), BuildingBlock: XUDNAN_clean_linker_2, # of connection points: 2
# Relax obj value: 0.055
# Max RMSD: 0.148
# Mean RMSD: 0.109
data_MOF--net-pbz--node1-OLANEW_clean_sbu_2--edge1-XUDNAN_clean_linker_2
_symmetry_space_group_name_H-M    P1
_symmetry_Int_Tables_number       1
_symmetry_cell_setting            triclinic
loop_
_symmetry_equiv_pos_as_xyz
'x, y, z'
_cell_length_a     66.700344
_cell_length_b     65.065065
_cell_length_c     63.49709
_cell_angle_alpha  90.861147
_cell_angle_beta   90.035934
_cell_angle_gamma 94.691521
loop_
_atom_site_label
_atom_site_type_symbol
_atom_site_fract_x
_atom_site_fract_y
_atom_site_fract_z
_atom_type_partial_charge
O0 O 0.02159 0.29551 0.7622 0.0
Cd1 Cd 0.01386 0.26091 0.7473 0.0
O2 O 0.03491 0.30797 0.73288 0.0
Cd3 Cd 0.02844 0.27884 0.71581 0.0
O4 O 0.01288 0.2535 0.69783 0.0
C5 C 0.99381 0.25178 0.69915 0.0
O6 O 0.98497 0.26474 0.71141 0.0
C7 C 0.03002 0.31055 0.75204 0.0
C8 C 0.04167 0.23345 0.75889 0.0
O9 O 0.04471 0.24505 0.74288 0.0
O10 O 0.0255 0.23493 0.76951 0.0
O11 O 0.90502 0.56368 0.22916 0.0
Cd12 Cd 0.87561 0.53865 0.22991 0.0
O13 O 0.89933 0.56835 0.26271 0.0
Cd14 Cd 0.90242 0.58314 0.29382 0.0
O15 O 0.89471 0.5937 0.32536 0.0
C16 C 0.88291 0.60799 0.32727 0.0
O17 O 0.87652 0.61662 0.31021 0.0
C18 C 0.9099 0.57275 0.24649 0.0
C19 C 0.87462 0.50962 0.19712 0.0
O20 O 0.86606 0.52644 0.19528 0.0
O21 O 0.88383 0.50664 0.21439 0.0
O22 O 0.51576 0.31181 0.77362 0.0
Cd23 Cd 0.51063 0.32209 0.73724 0.0
O24 O 0.48485 0.29796 0.7778 0.0
Cd25 Cd 0.4748 0.31132 0.74869 0.0
O26 O 0.46182 0.3358 0.73138 0.0
C27 C 0.46904 0.35415 0.73527 0.0
O28 O 0.48433 0.35712 0.74833 0.0
C29 C 0.50262 0.30186 0.78487 0.0
C30 C 0.54506 0.31768 0.71315 0.0
O31 O 0.5424 0.33467 0.72283 0.0
O32 O 0.53135 0.30279 0.71475 0.0
O33 O 0.78309 0.08336 0.26226 0.0
Cd34 Cd 0.75449 0.06785 0.24191 0.0
O35 O 0.78559 0.05498 0.28014 0.0
Cd36 Cd 0.75765 0.03918 0.26829 0.0
O37 O 0.72849 0.02132 0.2686 0.0
C38 C 0.7239 0.01218 0.28569 0.0
O39 O 0.73682 0.01389 0.30138 0.0
C40 C 0.79224 0.07329 0.27575 0.0
C41 C 0.75562 0.0826 0.20093 0.0
O42 O 0.74439 0.09023 0.21489 0.0
O43 O 0.76614 0.0679 0.20629 0.0
O44 O 0.01693 0.43042 0.85725 0.0
Cd45 Cd 0.00929 0.45325 0.8867 0.0
O46 O 0.01302 0.45217 0.83159 0.0
Cd47 Cd 0.99816 0.47221 0.85329 0.0
O48 O 0.97537 0.47547 0.87743 0.0
C49 C 0.96319 0.45951 0.87905 0.0
O50 O 0.9652 0.44384 0.86613 0.0
C51 C 0.01805 0.43481 0.83779 0.0
C52 C 0.04031 0.48419 0.89314 0.0
O53 O 0.04117 0.46632 0.90113 0.0
O54 O 0.0247 0.48751 0.88235 0.0
O55 O 0.85047 0.61002 0.48633 0.0
Cd56 Cd 0.84072 0.60532 0.52311 0.0
O57 O 0.82035 0.62001 0.48122 0.0
Cd58 Cd 0.79432 0.62888 0.46344 0.0
O59 O 0.76534 0.63644 0.45089 0.0
C60 C 0.76349 0.64381 0.43264 0.0
O61 O 0.77952 0.64705 0.42074 0.0
C62 C 0.83751 0.61647 0.4739 0.0
C63 C 0.82058 0.56668 0.52975 0.0
O64 O 0.8112 0.58177 0.52317 0.0
O65 O 0.83953 0.56983 0.53317 0.0
O66 O 0.56007 0.31904 0.93311 0.0
Cd67 Cd 0.57555 0.32799 0.96718 0.0
O68 O 0.54812 0.28941 0.94577 0.0
Cd69 Cd 0.53257 0.25846 0.94496 0.0
O70 O 0.51534 0.22869 0.94843 0.0
C71 C 0.49966 0.22426 0.93736 0.0
O72 O 0.49428 0.23765 0.92358 0.0
C73 C 0.54995 0.3018 0.93045 0.0
C74 C 0.60192 0.29897 0.97845 0.0
O75 O 0.58349 0.29713 0.98435 0.0
O76 O 0.60785 0.31461 0.96736 0.0
O77 O 0.9888 0.07515 0.43395 0.0
Cd78 Cd 0.01007 0.05636 0.41028 0.0
O79 O 0.97207 0.08007 0.40508 0.0
Cd80 Cd 0.94641 0.08928 0.38711 0.0
O81 O 0.91933 0.09099 0.36819 0.0
C82 C 0.91589 0.10672 0.35755 0.0
O83 O 0.92896 0.12296 0.35804 0.0
C84 C 0.97427 0.08287 0.42483 0.0
C85 C 0.02193 0.01925 0.42556 0.0
O86 O 0.03356 0.03589 0.42714 0.0
O87 O 0.00456 0.02024 0.41717 0.0
O88 O 0.29485 0.66312 0.13452 0.0
Cd89 Cd 0.27007 0.63326 0.13475 0.0
O90 O 0.28457 0.67455 0.16512 0.0
Cd91 Cd 0.25983 0.65092 0.16962 0.0
O92 O 0.23088 0.64 0.18314 0.0
C93 C 0.2293 0.62604 0.19696 0.0
O94 O 0.24536 0.61691 0.20234 0.0
C95 C 0.29639 0.67641 0.14944 0.0
C96 C 0.25811 0.62074 0.0941 0.0
O97 O 0.2491 0.63446 0.10423 0.0
O98 O 0.2728 0.61291 0.10321 0.0
O99 O 0.28156 0.81437 0.71629 0.0
Cd100 Cd 0.26506 0.82285 0.74924 0.0
O101 O 0.26205 0.83262 0.6976 0.0
Cd102 Cd 0.25059 0.8463 0.66914 0.0
O103 O 0.23541 0.85656 0.64115 0.0
C104 C 0.22346 0.84355 0.63133 0.0
O105 O 0.22094 0.82459 0.63827 0.0
C106 C 0.27624 0.82071 0.69845 0.0
C107 C 0.25151 0.86221 0.75031 0.0
O108 O 0.26925 0.85912 0.75665 0.0
O109 O 0.24029 0.84671 0.74322 0.0
O110 O 0.40679 0.68026 0.5721 0.0
Cd111 Cd 0.40373 0.71265 0.55379 0.0
O112 O 0.37658 0.68032 0.58601 0.0
Cd113 Cd 0.36917 0.71048 0.57517 0.0
O114 O 0.35247 0.73706 0.58313 0.0
C115 C 0.35708 0.74622 0.6005 0.0
O116 O 0.37227 0.74023 0.61137 0.0
C117 C 0.39282 0.67167 0.58333 0.0
C118 C 0.42419 0.71284 0.51546 0.0
O119 O 0.43311 0.71935 0.53246 0.0
O120 O 0.40555 0.70639 0.51656 0.0
O121 O 0.38787 0.92197 0.16843 0.0
Cd122 Cd 0.35819 0.93118 0.14912 0.0
O123 O 0.38141 0.89095 0.15515 0.0
Cd124 Cd 0.38305 0.8576 0.15163 0.0
O125 O 0.3776 0.82441 0.1461 0.0
C126 C 0.36753 0.81378 0.15967 0.0
O127 O 0.36145 0.82303 0.17677 0.0
C128 C 0.39215 0.90331 0.16706 0.0
C129 C 0.36592 0.9506 0.11077 0.0
O130 O 0.36392 0.96116 0.12773 0.0
O131 O 0.3647 0.93089 0.11204 0.0
O132 O 0.1387 0.86896 0.49202 0.0
Cd133 Cd 0.11921 0.86578 0.45935 0.0
O134 O 0.13236 0.8363 0.50011 0.0
Cd135 Cd 0.11435 0.82742 0.47218 0.0
O136 O 0.10039 0.80716 0.4476 0.0
C137 C 0.08294 0.79818 0.45023 0.0
O138 O 0.07295 0.80214 0.46746 0.0
C139 C 0.14077 0.85412 0.50443 0.0
C140 C 0.09266 0.89656 0.45578 0.0
O141 O 0.11108 0.8997 0.45008 0.0
O142 O 0.0868 0.87889 0.46325 0.0
O143 O 0.25723 0.5444 0.89143 0.0
Cd144 Cd 0.23079 0.53351 0.91673 0.0
O145 O 0.2437 0.5728 0.88253 0.0
Cd146 Cd 0.21527 0.56394 0.89805 0.0
O147 O 0.18396 0.55329 0.90404 0.0
C148 C 0.17036 0.56519 0.89987 0.0
O149 O 0.17569 0.5838 0.89302 0.0
C150 C 0.25807 0.56116 0.88129 0.0
C151 C 0.23319 0.55676 0.95424 0.0
O152 O 0.24329 0.54096 0.95185 0.0
O153 O 0.22204 0.56156 0.93896 0.0
O154 O 0.6011 0.71751 0.32692 0.0
Cd155 Cd 0.6132 0.68301 0.32531 0.0
O156 O 0.57407 0.70426 0.34296 0.0
Cd157 Cd 0.54565 0.70612 0.35988 0.0
O158 O 0.51898 0.70673 0.37979 0.0
C159 C 0.52099 0.71275 0.39887 0.0
O160 O 0.53906 0.71872 0.406 0.0
C161 C 0.58402 0.7198 0.33511 0.0
C162 C 0.64282 0.67631 0.35493 0.0
O163 O 0.64756 0.683 0.33655 0.0
O164 O 0.62409 0.67311 0.35937 0.0
O165 O 0.39308 0.09356 0.95596 0.0
Cd166 Cd 0.36342 0.06889 0.95616 0.0
O167 O 0.38195 0.1118 0.93014 0.0
Cd168 Cd 0.35394 0.09278 0.9242 0.0
O169 O 0.32601 0.08388 0.90715 0.0
C170 C 0.32003 0.09745 0.89494 0.0
O171 O 0.3306 0.11535 0.89387 0.0
C172 C 0.3954 0.10885 0.94371 0.0
C173 C 0.36711 0.03872 0.98644 0.0
O174 O 0.37259 0.03586 0.96734 0.0
O175 O 0.35981 0.0558 0.9912 0.0
O176 O 0.09977 0.65945 0.27084 0.0
Cd177 Cd 0.07262 0.67665 0.28788 0.0
O178 O 0.10479 0.63934 0.29753 0.0
Cd179 Cd 0.08558 0.65664 0.31781 0.0
O180 O 0.07924 0.68197 0.33908 0.0
C181 C 0.06288 0.68314 0.34912 0.0
O182 O 0.04833 0.66842 0.34668 0.0
C183 C 0.10879 0.6449 0.27878 0.0
C184 C 0.03514 0.65875 0.27482 0.0
O185 O 0.04443 0.67332 0.26441 0.0
O186 O 0.04349 0.65275 0.29159 0.0
O187 O 0.40512 0.54779 0.68994 0.0
Cd188 Cd 0.40023 0.52641 0.72115 0.0
O189 O 0.37705 0.56225 0.69656 0.0
Cd190 Cd 0.3701 0.54803 0.72691 0.0
O191 O 0.3561 0.54931 0.75796 0.0
C192 C 0.35402 0.56739 0.76503 0.0
O193 O 0.36094 0.58322 0.7538 0.0
C194 C 0.39226 0.56024 0.68486 0.0
C195 C 0.41287 0.48684 0.71574 0.0
O196 O 0.39508 0.49088 0.71043 0.0
O197 O 0.42474 0.50158 0.72337 0.0
O198 O 0.56974 0.87544 0.35174 0.0
Cd199 Cd 0.56934 0.91281 0.35544 0.0
O200 O 0.54603 0.87632 0.32804 0.0
Cd201 Cd 0.5252 0.86478 0.30309 0.0
O202 O 0.50447 0.86263 0.27629 0.0
C203 C 0.49196 0.87627 0.27491 0.0
O204 O 0.49177 0.89055 0.28976 0.0
C205 C 0.55767 0.86595 0.33874 0.0
C206 C 0.60077 0.93368 0.33354 0.0
O207 O 0.60289 0.92855 0.35278 0.0
O208 O 0.58375 0.9289 0.32462 0.0
O209 O 0.20505 0.11396 0.78906 0.0
Cd210 Cd 0.18188 0.11682 0.75961 0.0
O211 O 0.20173 0.08121 0.78069 0.0
Cd212 Cd 0.20769 0.04868 0.7803 0.0
O213 O 0.20877 0.01587 0.77338 0.0
C214 C 0.2245 0.00657 0.77655 0.0
O215 O 0.24052 0.01691 0.7846 0.0
C216 C 0.20956 0.09571 0.79246 0.0
C217 C 0.15012 0.14098 0.76794 0.0
O218 O 0.14921 0.122 0.77327 0.0
O219 O 0.16621 0.14863 0.759 0.0
O220 O 0.86046 0.42215 0.00453 0.0
Cd221 Cd 0.8396 0.40466 0.03145 0.0
O222 O 0.86247 0.39417 0.98499 0.0
Cd223 Cd 0.84435 0.37277 0.00481 0.0
O224 O 0.83045 0.34204 0.01162 0.0
C225 C 0.81511 0.3354 0.0009 0.0
O226 O 0.80761 0.34774 0.98729 0.0
C227 C 0.86689 0.41334 0.98817 0.0
C228 C 0.84966 0.4222 0.07077 0.0
O229 O 0.85805 0.40639 0.0639 0.0
O230 O 0.83628 0.42949 0.05917 0.0
O231 O 0.89418 0.16962 0.59067 0.0
Cd232 Cd 0.86838 0.15875 0.56466 0.0
O233 O 0.87596 0.18931 0.61017 0.0
Cd234 Cd 0.84884 0.18807 0.59075 0.0
O235 O 0.8245 0.20767 0.58415 0.0
C236 C 0.8297 0.22683 0.58625 0.0
O237 O 0.84854 0.23258 0.59096 0.0
C238 C 0.8924 0.18125 0.60671 0.0
C239 C 0.88734 0.14508 0.52848 0.0
O240 O 0.8821 0.16356 0.53 0.0
O241 O 0.88323 0.13294 0.54387 0.0
O242 O 0.7661 0.36579 0.59526 0.0
Cd243 Cd 0.75401 0.39865 0.60667 0.0
O244 O 0.73696 0.35191 0.60568 0.0
Cd245 Cd 0.71307 0.3289 0.61531 0.0
O246 O 0.68439 0.31693 0.62883 0.0
C247 C 0.67508 0.32966 0.63972 0.0
O248 O 0.68326 0.34861 0.64223 0.0
C249 C 0.75433 0.3497 0.5981 0.0
C250 C 0.7659 0.43255 0.58195 0.0
O251 O 0.77711 0.42706 0.59692 0.0
O252 O 0.7493 0.4217 0.57835 0.0
O253 O 0.80838 0.17732 0.01492 0.0
Cd254 Cd 0.80632 0.13998 0.01923 0.0
O255 O 0.77547 0.17351 0.01392 0.0
Cd256 Cd 0.74538 0.18464 0.01289 0.0
O257 O 0.7164 0.19802 0.0121 0.0
C258 C 0.71377 0.21213 0.999 0.0
O259 O 0.72842 0.21799 0.98608 0.0
C260 C 0.79169 0.18521 0.01299 0.0
C261 C 0.78946 0.12879 0.05794 0.0
O262 O 0.80858 0.13049 0.05542 0.0
O263 O 0.77832 0.13228 0.04216 0.0
H264 H 0.01829 0.39333 0.84355 0.0
H265 H 0.0306 0.4409 0.79704 0.0
H266 H 0.03828 0.41424 0.77074 0.0
H267 H 0.05607 0.3587 0.82594 0.0
H268 H 0.03965 0.33588 0.83084 0.0
H269 H 0.03752 0.35888 0.84657 0.0
H270 H 0.99975 0.35831 0.83678 0.0
H271 H 0.00176 0.33537 0.82102 0.0
H272 H 0.99248 0.35786 0.80941 0.0
H273 H 0.04257 0.38215 0.74902 0.0
H274 H 0.04123 0.34725 0.73302 0.0
H275 H 0.02477 0.32082 0.7936 0.0
C276 C 0.02302 0.39821 0.82796 0.0
C277 C 0.02406 0.41921 0.82238 0.0
C278 C 0.0298 0.4249 0.80167 0.0
C279 C 0.03426 0.40988 0.78666 0.0
C280 C 0.0328 0.38927 0.79262 0.0
C281 C 0.02725 0.38344 0.81277 0.0
C282 C 0.02511 0.36021 0.81472 0.0
C283 C 0.04051 0.353 0.83045 0.0
C284 C 0.00349 0.35249 0.82083 0.0
C285 C 0.02996 0.35384 0.79242 0.0
C286 C 0.03467 0.37081 0.77999 0.0
C287 C 0.03904 0.36876 0.75864 0.0
C288 C 0.03826 0.34885 0.7497 0.0
C289 C 0.03289 0.33128 0.76205 0.0
C290 C 0.02898 0.33391 0.78374 0.0
H291 H 0.86325 0.5951 0.45042 0.0
H292 H 0.82341 0.64438 0.44665 0.0
H293 H 0.83125 0.64814 0.40883 0.0
H294 H 0.90135 0.61768 0.4152 0.0
H295 H 0.90659 0.59322 0.40366 0.0
H296 H 0.89786 0.59451 0.43045 0.0
H297 H 0.86824 0.56747 0.42152 0.0
H298 H 0.87691 0.56605 0.39474 0.0
H299 H 0.85152 0.57214 0.40011 0.0
H300 H 0.84316 0.6461 0.37124 0.0
H301 H 0.85774 0.63807 0.33663 0.0
H302 H 0.89038 0.5906 0.36531 0.0
C303 C 0.85622 0.60672 0.44164 0.0
C304 C 0.84233 0.6191 0.45134 0.0
C305 C 0.83349 0.63419 0.43937 0.0
C306 C 0.83808 0.63664 0.41795 0.0
C307 C 0.85167 0.624 0.40881 0.0
C308 C 0.86064 0.60936 0.42029 0.0
C309 C 0.8745 0.59752 0.40668 0.0
C310 C 0.89637 0.60094 0.41447 0.0
C311 C 0.86736 0.57443 0.4057 0.0
C312 C 0.87182 0.60768 0.3857 0.0
C313 C 0.85868 0.62298 0.38726 0.0
C314 C 0.85354 0.63421 0.36984 0.0
C315 C 0.86191 0.62953 0.35025 0.0
C316 C 0.87523 0.61373 0.34824 0.0
C317 C 0.88034 0.60285 0.36631 0.0
H318 H 0.537 0.31348 0.80706 0.0
H319 H 0.47922 0.27804 0.8122 0.0
H320 H 0.48626 0.27164 0.84964 0.0
H321 H 0.56499 0.28254 0.84346 0.0
H322 H 0.57934 0.30501 0.85407 0.0
H323 H 0.57072 0.30469 0.82715 0.0
H324 H 0.55309 0.33812 0.83442 0.0
H325 H 0.56152 0.33849 0.86134 0.0
H326 H 0.53509 0.33873 0.85554 0.0
H327 H 0.49824 0.27196 0.88737 0.0
H328 H 0.51427 0.27898 0.92211 0.0
H329 H 0.56414 0.31401 0.89208 0.0
C330 C 0.52599 0.304 0.8159 0.0
C331 C 0.5076 0.29618 0.80664 0.0
C332 C 0.49345 0.28414 0.81892 0.0
C333 C 0.49733 0.28038 0.84019 0.0
C334 C 0.51542 0.28872 0.84893 0.0
C335 C 0.52956 0.3002 0.83712 0.0
C336 C 0.54718 0.30867 0.85055 0.0
C337 C 0.56671 0.29968 0.84338 0.0
C338 C 0.54933 0.3324 0.85045 0.0
C339 C 0.54053 0.30059 0.87186 0.0
C340 C 0.5223 0.28891 0.87059 0.0
C341 C 0.51273 0.28069 0.88847 0.0
C342 C 0.52205 0.28456 0.90813 0.0
C343 C 0.5407 0.29653 0.90971 0.0
C344 C 0.54999 0.30459 0.8913 0.0
H345 H 0.88653 0.0751 0.35276 0.0
H346 H 0.90397 0.13733 0.33214 0.0
H347 H 0.87385 0.13597 0.30926 0.0
H348 H 0.86857 0.05519 0.30319 0.0
H349 H 0.84809 0.03908 0.31425 0.0
H350 H 0.87064 0.04531 0.3294 0.0
H351 H 0.84955 0.05992 0.35958 0.0
H352 H 0.82691 0.0537 0.34454 0.0
H353 H 0.83301 0.07973 0.35397 0.0
H354 H 0.84197 0.12727 0.28795 0.0
H355 H 0.81105 0.11207 0.27029 0.0
H356 H 0.81509 0.05567 0.30522 0.0
C357 C 0.88402 0.08852 0.34353 0.0
C358 C 0.89762 0.10633 0.34426 0.0
C359 C 0.89375 0.12351 0.33186 0.0
C360 C 0.87669 0.12289 0.31882 0.0
C361 C 0.86366 0.105 0.3184 0.0
C362 C 0.86714 0.08816 0.33048 0.0
C363 C 0.85107 0.07065 0.32703 0.0
C364 C 0.86014 0.05143 0.31792 0.0
C365 C 0.83945 0.06572 0.3475 0.0
C366 C 0.83803 0.08021 0.31101 0.0
C367 C 0.84547 0.10003 0.30623 0.0
C368 C 0.83598 0.11178 0.29163 0.0
C369 C 0.81844 0.10301 0.28167 0.0
C370 C 0.81061 0.08268 0.28636 0.0
C371 C 0.82062 0.07125 0.30127 0.0
H372 H 0.30253 0.70788 0.17837 0.0
H373 H 0.32336 0.68651 0.11773 0.0
H374 H 0.346 0.71839 0.1149 0.0
H375 H 0.30047 0.75945 0.16488 0.0
H376 H 0.30882 0.76982 0.19017 0.0
H377 H 0.29586 0.7445 0.18833 0.0
H378 H 0.3257 0.72908 0.20691 0.0
H379 H 0.33876 0.7544 0.20888 0.0
H380 H 0.35071 0.73361 0.1963 0.0
H381 H 0.36439 0.75395 0.11758 0.0
H382 H 0.37693 0.79004 0.1255 0.0
H383 H 0.34379 0.78769 0.18436 0.0
C384 C 0.31206 0.70969 0.16461 0.0
C385 C 0.31118 0.69464 0.14829 0.0
C386 C 0.3238 0.69778 0.13048 0.0
C387 C 0.33673 0.71583 0.12874 0.0
C388 C 0.33694 0.7305 0.145 0.0
C389 C 0.32499 0.72755 0.16263 0.0
C390 C 0.32713 0.74609 0.17737 0.0
C391 C 0.30687 0.75552 0.18035 0.0
C392 C 0.33611 0.74045 0.19862 0.0
C393 C 0.3418 0.76019 0.16506 0.0
C394 C 0.34745 0.75088 0.14652 0.0
C395 C 0.36023 0.76129 0.13215 0.0
C396 C 0.36725 0.7818 0.13678 0.0
C397 C 0.36138 0.7917 0.15557 0.0
C398 C 0.34869 0.78056 0.16994 0.0
H399 H 0.36204 0.76667 0.63829 0.0
H400 H 0.32225 0.75937 0.58411 0.0
H401 H 0.29844 0.78102 0.60195 0.0
H402 H 0.32511 0.76158 0.67617 0.0
H403 H 0.33693 0.78033 0.6944 0.0
H404 H 0.35208 0.76687 0.67625 0.0
H405 H 0.36769 0.80171 0.66198 0.0
H406 H 0.35265 0.81532 0.68023 0.0
H407 H 0.35143 0.82035 0.65243 0.0
H408 H 0.277 0.79947 0.62771 0.0
H409 H 0.26036 0.81387 0.65865 0.0
H410 H 0.31467 0.80996 0.69542 0.0
C411 C 0.34855 0.77 0.62992 0.0
C412 C 0.34404 0.76135 0.60977 0.0
C413 C 0.32609 0.7659 0.59951 0.0
C414 C 0.31247 0.7782 0.60952 0.0
C415 C 0.31713 0.78599 0.62967 0.0
C416 C 0.33486 0.78222 0.63966 0.0
C417 C 0.33569 0.79101 0.66187 0.0
C418 C 0.33755 0.77393 0.67812 0.0
C419 C 0.35289 0.80812 0.66426 0.0
C420 C 0.31538 0.79972 0.6631 0.0
C421 C 0.30496 0.7969 0.64432 0.0
C422 C 0.28526 0.80232 0.64228 0.0
C423 C 0.27598 0.81076 0.6599 0.0
C424 C 0.28644 0.81376 0.67926 0.0
C425 C 0.30642 0.80822 0.68072 0.0
H426 H 0.10164 0.78334 0.4154 0.0
H427 H 0.04611 0.7761 0.45115 0.0
H428 H 0.03385 0.74716 0.42766 0.0
H429 H 0.07942 0.7702 0.36344 0.0
H430 H 0.10065 0.75665 0.35517 0.0
H431 H 0.10417 0.77796 0.37362 0.0
H432 H 0.12078 0.75448 0.4 0.0
H433 H 0.11723 0.73311 0.38172 0.0
H434 H 0.10728 0.73076 0.40804 0.0
H435 H 0.02869 0.71735 0.40168 0.0
H436 H 0.0311 0.68928 0.37535 0.0
H437 H 0.09014 0.71615 0.35704 0.0
C438 C 0.08675 0.77592 0.41811 0.0
C439 C 0.07481 0.78205 0.43509 0.0
C440 C 0.05552 0.77174 0.4382 0.0
C441 C 0.0484 0.75528 0.42493 0.0
C442 C 0.06073 0.74939 0.40857 0.0
C443 C 0.07946 0.75948 0.40506 0.0
C444 C 0.09022 0.74949 0.38713 0.0
C445 C 0.09382 0.76447 0.36875 0.0
C446 C 0.11004 0.74148 0.39468 0.0
C447 C 0.07482 0.73193 0.38138 0.0
C448 C 0.05782 0.73222 0.39377 0.0
C449 C 0.04186 0.71709 0.39176 0.0
C450 C 0.04337 0.70119 0.37678 0.0
C451 C 0.06079 0.70049 0.36411 0.0
C452 C 0.07658 0.71623 0.3664 0.0
H453 H 0.33739 0.53821 0.79229 0.0
H454 H 0.34451 0.60422 0.78185 0.0
H455 H 0.32311 0.60998 0.81263 0.0
H456 H 0.28665 0.53547 0.80618 0.0
H457 H 0.28828 0.51638 0.82626 0.0
H458 H 0.30579 0.51748 0.80469 0.0
H459 H 0.33559 0.52119 0.83104 0.0
H460 H 0.31814 0.52006 0.85274 0.0
H461 H 0.33678 0.5416 0.85063 0.0
H462 H 0.29796 0.60841 0.84173 0.0
H463 H 0.27179 0.59957 0.86835 0.0
H464 H 0.28198 0.53483 0.86114 0.0
C465 C 0.33473 0.5539 0.79669 0.0
C466 C 0.34264 0.57076 0.78463 0.0
C467 C 0.33867 0.59104 0.79084 0.0
C468 C 0.32655 0.5945 0.80834 0.0
C469 C 0.31869 0.57754 0.81965 0.0
C470 C 0.32277 0.55765 0.81424 0.0
C471 C 0.31162 0.54208 0.82844 0.0
C472 C 0.29723 0.52697 0.81562 0.0
C473 C 0.32642 0.53055 0.84149 0.0
C474 C 0.30018 0.55629 0.84223 0.0
C475 C 0.30455 0.57669 0.83694 0.0
C476 C 0.29469 0.59253 0.84631 0.0
C477 C 0.27982 0.58737 0.86134 0.0
C478 C 0.27506 0.56657 0.86696 0.0
C479 C 0.28564 0.55091 0.8575 0.0
H480 H 0.58951 0.84258 0.34266 0.0
H481 H 0.52537 0.83832 0.33012 0.0
H482 H 0.52507 0.80031 0.32777 0.0
H483 H 0.60121 0.801 0.30735 0.0
H484 H 0.62009 0.79213 0.32456 0.0
H485 H 0.61515 0.81894 0.32489 0.0
H486 H 0.6084 0.8172 0.36504 0.0
H487 H 0.61319 0.79036 0.36482 0.0
H488 H 0.5897 0.7982 0.37493 0.0
H489 H 0.53167 0.76267 0.32822 0.0
H490 H 0.54504 0.72836 0.32905 0.0
H491 H 0.60497 0.75733 0.34072 0.0
C492 C 0.57543 0.83363 0.3393 0.0
C493 C 0.5575 0.84335 0.33626 0.0
C494 C 0.53936 0.83119 0.33194 0.0
C495 C 0.53902 0.8096 0.3308 0.0
C496 C 0.55697 0.80048 0.33392 0.0
C497 C 0.57488 0.81212 0.33788 0.0
C498 C 0.59211 0.7986 0.34048 0.0
C499 C 0.60808 0.80292 0.32329 0.0
C500 C 0.60139 0.80125 0.36263 0.0
C501 C 0.58109 0.77749 0.33751 0.0
C502 C 0.56081 0.77889 0.3339 0.0
C503 C 0.54752 0.7614 0.33106 0.0
C504 C 0.5552 0.74198 0.33179 0.0
C505 C 0.57595 0.74024 0.33529 0.0
C506 C 0.58903 0.75825 0.33805 0.0
H507 H 0.30403 0.12346 0.86724 0.0
H508 H 0.29506 0.0617 0.89238 0.0
H509 H 0.26535 0.05455 0.86928 0.0
H510 H 0.25154 0.13247 0.86266 0.0
H511 H 0.25505 0.14648 0.83849 0.0
H512 H 0.27526 0.14675 0.85734 0.0
H513 H 0.29866 0.13341 0.82851 0.0
H514 H 0.27853 0.13306 0.80958 0.0
H515 H 0.29096 0.10996 0.81416 0.0
H516 H 0.23676 0.05415 0.84291 0.0
H517 H 0.21167 0.06059 0.81566 0.0
H518 H 0.24002 0.12237 0.80762 0.0
C519 C 0.2958 0.10844 0.86801 0.0
C520 C 0.30188 0.09314 0.88164 0.0
C521 C 0.29067 0.07368 0.88208 0.0
C522 C 0.27378 0.06947 0.86902 0.0
C523 C 0.2683 0.08489 0.85567 0.0
C524 C 0.27896 0.104 0.85513 0.0
C525 C 0.27017 0.11786 0.83923 0.0
C526 C 0.26255 0.13702 0.85008 0.0
C527 C 0.28549 0.12392 0.82184 0.0
C528 C 0.25292 0.10355 0.83078 0.0
C529 C 0.25206 0.08461 0.84045 0.0
C530 C 0.23741 0.06887 0.83512 0.0
C531 C 0.22337 0.07257 0.81942 0.0
C532 C 0.22418 0.0918 0.80915 0.0
C533 C 0.23905 0.10749 0.81514 0.0
H534 H 0.81719 0.21644 0.02958 0.0
H535 H 0.76604 0.20424 0.98783 0.0
H536 H 0.76502 0.24165 0.98218 0.0
H537 H 0.80185 0.26396 0.05328 0.0
H538 H 0.82703 0.27632 0.05398 0.0
H539 H 0.82306 0.24867 0.05571 0.0
H540 H 0.84653 0.24453 0.02367 0.0
H541 H 0.85063 0.27214 0.0219 0.0
H542 H 0.84139 0.25707 0.99935 0.0
H543 H 0.77005 0.28006 0.98031 0.0
H544 H 0.78193 0.31697 0.98081 0.0
H545 H 0.83031 0.30432 0.02331 0.0
C546 C 0.80567 0.22171 0.01941 0.0
C547 C 0.79121 0.20757 0.00969 0.0
C548 C 0.77662 0.21492 0.99618 0.0
C549 C 0.77606 0.23609 0.99273 0.0
C550 C 0.79026 0.24968 0.00285 0.0
C551 C 0.80488 0.24281 0.01583 0.0
C552 C 0.81891 0.26062 0.02407 0.0
C553 C 0.81763 0.2625 0.04819 0.0
C554 C 0.84064 0.25846 0.01681 0.0
C555 C 0.81002 0.27853 0.0135 0.0
C556 C 0.79343 0.27188 0.00144 0.0
C557 C 0.78298 0.28548 0.98976 0.0
C558 C 0.78984 0.30643 0.99016 0.0
C559 C 0.80703 0.31357 0.00212 0.0
C560 C 0.81704 0.2994 0.01414 0.0
H561 H 0.79312 0.33967 0.59783 0.0
H562 H 0.73189 0.31322 0.58846 0.0
H563 H 0.74442 0.27879 0.58309 0.0
H564 H 0.81627 0.30794 0.55876 0.0
H565 H 0.83858 0.30602 0.5744 0.0
H566 H 0.82466 0.32852 0.57681 0.0
H567 H 0.82121 0.32286 0.61702 0.0
H568 H 0.83512 0.30037 0.61474 0.0
H569 H 0.81044 0.29839 0.62644 0.0
H570 H 0.76405 0.24685 0.57984 0.0
H571 H 0.78882 0.22049 0.57951 0.0
H572 H 0.83687 0.26858 0.59055 0.0
C573 C 0.78232 0.32668 0.59447 0.0
C574 C 0.76148 0.32908 0.59393 0.0
C575 C 0.74786 0.31167 0.58957 0.0
C576 C 0.75488 0.29209 0.58625 0.0
C577 C 0.77554 0.29023 0.58722 0.0
C578 C 0.78904 0.30712 0.59118 0.0
C579 C 0.81043 0.30107 0.59202 0.0
C580 C 0.82323 0.31151 0.57445 0.0
C581 C 0.81984 0.30596 0.61385 0.0
C582 C 0.8069 0.27808 0.58813 0.0
C583 C 0.78672 0.27207 0.58526 0.0
C584 C 0.7799 0.25142 0.58195 0.0
C585 C 0.79408 0.23656 0.58177 0.0
C586 C 0.8148 0.24245 0.58497 0.0
C587 C 0.82117 0.26353 0.58797 0.0
H588 H 0.1432 0.17738 0.74928 0.0
H589 H 0.1177 0.1324 0.79365 0.0
H590 H 0.08787 0.15229 0.79771 0.0
H591 H 0.12451 0.22303 0.7742 0.0
H592 H 0.11937 0.23461 0.74937 0.0
H593 H 0.13939 0.21776 0.75135 0.0
H594 H 0.12341 0.19492 0.72097 0.0
H595 H 0.10332 0.21165 0.71894 0.0
H596 H 0.09763 0.18446 0.72313 0.0
H597 H 0.06034 0.1765 0.79598 0.0
H598 H 0.03657 0.2024 0.78751 0.0
H599 H 0.07963 0.23066 0.7432 0.0
C600 C 0.13149 0.17188 0.76011 0.0
C601 C 0.13281 0.15344 0.77129 0.0
C602 C 0.117 0.14653 0.78498 0.0
C603 C 0.10003 0.15775 0.78743 0.0
C604 C 0.09909 0.17574 0.77597 0.0
C605 C 0.11437 0.18273 0.76253 0.0
C606 C 0.10915 0.20183 0.75108 0.0
C607 C 0.12399 0.22041 0.75686 0.0
C608 C 0.10832 0.19797 0.72711 0.0
C609 C 0.08846 0.20438 0.76 0.0
C610 C 0.08301 0.18933 0.77452 0.0
C611 C 0.06446 0.1884 0.78469 0.0
C612 C 0.05107 0.20318 0.77978 0.0
C613 C 0.05623 0.21852 0.76467 0.0
C614 C 0.07523 0.21911 0.75479 0.0
H615 H 0.00949 0.63084 0.29569 0.0
H616 H 0.01664 0.66419 0.2371 0.0
H617 H 0.98474 0.64669 0.22399 0.0
H618 H 0.98934 0.58319 0.27349 0.0
H619 H 0.9718 0.57743 0.29459 0.0
H620 H 0.99481 0.59315 0.2997 0.0
H621 H 0.9744 0.62216 0.31491 0.0
H622 H 0.95129 0.60654 0.30979 0.0
H623 H 0.955 0.63206 0.2991 0.0
H624 H 0.95325 0.62397 0.21636 0.0
H625 H 0.92339 0.59879 0.21547 0.0
H626 H 0.93628 0.58094 0.27928 0.0
C627 C 0.00428 0.63457 0.28016 0.0
C628 C 0.01558 0.64887 0.2674 0.0
C629 C 0.00823 0.65333 0.24718 0.0
C630 C 0.99013 0.64346 0.23958 0.0
C631 C 0.97945 0.62932 0.25248 0.0
C632 C 0.98615 0.62499 0.2724 0.0
C633 C 0.97193 0.60898 0.28297 0.0
C634 C 0.98261 0.58954 0.28797 0.0
C635 C 0.9626 0.61798 0.30287 0.0
C636 C 0.95635 0.60476 0.26575 0.0
C637 C 0.96098 0.61664 0.24829 0.0
C638 C 0.94932 0.61478 0.23004 0.0
C639 C 0.93245 0.60042 0.22965 0.0
C640 C 0.92731 0.58828 0.24746 0.0
C641 C 0.93945 0.59052 0.26571 0.0
H642 H 0.48017 0.39513 0.74214 0.0
H643 H 0.4354 0.35356 0.71022 0.0
H644 H 0.41731 0.38338 0.69948 0.0
H645 H 0.44685 0.42862 0.76306 0.0
H646 H 0.46327 0.45175 0.75974 0.0
H647 H 0.47376 0.4274 0.76305 0.0
H648 H 0.49345 0.43251 0.72809 0.0
H649 H 0.48309 0.45698 0.72471 0.0
H650 H 0.48006 0.43745 0.70426 0.0
H651 H 0.4025 0.41751 0.69506 0.0
H652 H 0.39264 0.45329 0.69648 0.0
H653 H 0.44739 0.47237 0.731 0.0
C654 C 0.46675 0.39227 0.73258 0.0
C655 C 0.45922 0.37199 0.727 0.0
C656 C 0.4415 0.36895 0.71463 0.0
C657 C 0.43113 0.3858 0.70844 0.0
C658 C 0.43875 0.40556 0.71461 0.0
C659 C 0.45625 0.40887 0.72626 0.0
C660 C 0.46074 0.43149 0.73181 0.0
C661 C 0.46117 0.43501 0.75584 0.0
C662 C 0.48051 0.44011 0.7216 0.0
C663 C 0.44277 0.44036 0.72189 0.0
C664 C 0.43032 0.42519 0.71194 0.0
C665 C 0.41227 0.42955 0.70257 0.0
C666 C 0.40677 0.44991 0.70352 0.0
C667 C 0.41929 0.46565 0.71376 0.0
C668 C 0.4376 0.46075 0.72285 0.0
H669 H 0.70979 0.99175 0.32069 0.0
H670 H 0.69346 0.00569 0.25657 0.0
H671 H 0.66032 0.98639 0.26147 0.0
H672 H 0.68533 0.94011 0.32155 0.0
H673 H 0.67744 0.94238 0.34857 0.0
H674 H 0.69999 0.95678 0.3397 0.0
H675 H 0.68604 0.99074 0.3528 0.0
H676 H 0.66344 0.97646 0.36167 0.0
H677 H 0.66185 0.99731 0.34353 0.0
H678 H 0.62859 0.96619 0.27385 0.0
H679 H 0.60088 0.94673 0.29265 0.0
H680 H 0.63835 0.9463 0.34856 0.0
C681 C 0.69932 0.99069 0.3076 0.0
C682 C 0.70423 0.00022 0.28823 0.0
C683 C 0.69004 0.99849 0.27155 0.0
C684 C 0.67119 0.98756 0.27418 0.0
C685 C 0.66681 0.97844 0.29355 0.0
C686 C 0.6805 0.97988 0.30995 0.0
C687 C 0.67205 0.96904 0.32932 0.0
C688 C 0.68444 0.95101 0.33512 0.0
C689 C 0.67077 0.9843 0.34792 0.0
C690 C 0.65137 0.96139 0.32133 0.0
C691 C 0.64863 0.9669 0.30065 0.0
C692 C 0.63059 0.96174 0.29002 0.0
C693 C 0.61494 0.9507 0.30084 0.0
C694 C 0.61744 0.94498 0.32207 0.0
C695 C 0.63596 0.95039 0.33233 0.0
H696 H 0.07836 0.47962 0.90766 0.0
H697 H 0.04034 0.52509 0.88376 0.0
H698 H 0.06898 0.55161 0.88585 0.0
H699 H 0.1089 0.51438 0.94356 0.0
H700 H 0.13165 0.50226 0.93774 0.0
H701 H 0.10766 0.48738 0.93642 0.0
H702 H 0.11505 0.47657 0.89792 0.0
H703 H 0.13901 0.49141 0.89912 0.0
H704 H 0.12124 0.49621 0.87872 0.0
H705 H 0.10218 0.57256 0.88832 0.0
H706 H 0.13779 0.58618 0.88986 0.0
H707 H 0.15429 0.52684 0.91152 0.0
C708 C 0.07596 0.49524 0.90322 0.0
C709 C 0.05709 0.50034 0.89568 0.0
C710 C 0.05466 0.52086 0.88964 0.0
C711 C 0.07081 0.53604 0.89084 0.0
C712 C 0.08929 0.53044 0.89808 0.0
C713 C 0.09196 0.51054 0.90416 0.0
C714 C 0.11367 0.5082 0.90996 0.0
C715 C 0.11557 0.50274 0.93331 0.0
C716 C 0.12277 0.49215 0.89557 0.0
C717 C 0.12288 0.52979 0.90578 0.0
C718 C 0.10852 0.54245 0.89919 0.0
C719 C 0.11354 0.56285 0.89363 0.0
C720 C 0.13382 0.57044 0.89454 0.0
C721 C 0.14885 0.5576 0.90083 0.0
C722 C 0.14317 0.5371 0.90678 0.0
H723 H 0.6837 0.67819 0.34892 0.0
H724 H 0.63737 0.66397 0.3957 0.0
H725 H 0.66331 0.65503 0.42096 0.0
H726 H 0.7136 0.63718 0.36129 0.0
H727 H 0.7373 0.6519 0.35706 0.0
H728 H 0.71522 0.65815 0.34297 0.0
H729 H 0.72015 0.69578 0.35715 0.0
H730 H 0.74229 0.68966 0.37125 0.0
H731 H 0.72201 0.70054 0.38516 0.0
H732 H 0.6941 0.64656 0.44071 0.0
H733 H 0.72762 0.63928 0.4537 0.0
H734 H 0.75392 0.65885 0.39398 0.0
C735 C 0.67901 0.67338 0.36454 0.0
C736 C 0.65849 0.67183 0.37035 0.0
C737 C 0.65299 0.66531 0.39089 0.0
C738 C 0.66762 0.6602 0.40536 0.0
C739 C 0.68768 0.66171 0.39905 0.0
C740 C 0.69341 0.66817 0.37916 0.0
C741 C 0.71592 0.66794 0.37616 0.0
C742 C 0.72079 0.65289 0.35831 0.0
C743 C 0.72566 0.68978 0.3722 0.0
C744 C 0.72194 0.66018 0.39743 0.0
C745 C 0.70543 0.65675 0.41042 0.0
C746 C 0.70716 0.64926 0.43072 0.0
C747 C 0.72628 0.64515 0.43794 0.0
C748 C 0.74343 0.6485 0.42488 0.0
C749 C 0.74114 0.65617 0.40438 0.0
H750 H 0.46463 0.2108 0.91709 0.0
H751 H 0.50629 0.19353 0.96504 0.0
H752 H 0.48468 0.16154 0.97127 0.0
H753 H 0.41985 0.19302 0.94359 0.0
H754 H 0.40678 0.18385 0.91999 0.0
H755 H 0.42598 0.2049 0.91869 0.0
H756 H 0.445 0.18484 0.8905 0.0
H757 H 0.42581 0.16373 0.89168 0.0
H758 H 0.45178 0.15922 0.89609 0.0
H759 H 0.45775 0.13196 0.97312 0.0
H760 H 0.42783 0.10703 0.97016 0.0
H761 H 0.4041 0.14389 0.92094 0.0
C762 C 0.46932 0.20024 0.9288 0.0
C763 C 0.48718 0.20468 0.94056 0.0
C764 C 0.49269 0.19047 0.9558 0.0
C765 C 0.48052 0.17225 0.95946 0.0
C766 C 0.46292 0.16845 0.94771 0.0
C767 C 0.45738 0.18202 0.93264 0.0
C768 C 0.43753 0.17457 0.92247 0.0
C769 C 0.4216 0.19001 0.92643 0.0
C770 C 0.4402 0.17033 0.89878 0.0
C771 C 0.43267 0.15479 0.9343 0.0
C772 C 0.4475 0.15146 0.94875 0.0
C773 C 0.44608 0.13436 0.96178 0.0
C774 C 0.42902 0.12029 0.96 0.0
C775 C 0.41361 0.12345 0.9453 0.0
C776 C 0.41561 0.14094 0.93228 0.0
H777 H 0.06059 0.00935 0.43165 0.0
H778 H 0.99843 0.98402 0.43444 0.0
H779 H 0.00974 0.95019 0.44426 0.0
H780 H 0.0793 0.96534 0.4076 0.0
H781 H 0.10291 0.9677 0.42161 0.0
H782 H 0.0899 0.99031 0.4166 0.0
H783 H 0.09013 0.99919 0.45653 0.0
H784 H 0.1032 0.97662 0.46166 0.0
H785 H 0.0798 0.98025 0.47484 0.0
H786 H 0.02791 0.91895 0.45304 0.0
H787 H 0.05157 0.89216 0.45829 0.0
H788 H 0.10183 0.93758 0.44795 0.0
C789 C 0.04935 0.99677 0.43465 0.0
C790 C 0.02862 0.99933 0.43249 0.0
C791 C 0.01438 0.98239 0.43608 0.0
C792 C 0.02066 0.96315 0.44172 0.0
C793 C 0.04122 0.96108 0.44349 0.0
C794 C 0.05535 0.9774 0.43995 0.0
C795 C 0.07655 0.9708 0.44163 0.0
C796 C 0.08782 0.97371 0.42061 0.0
C797 C 0.08809 0.9824 0.45975 0.0
C798 C 0.07213 0.94819 0.44652 0.0
C799 C 0.05168 0.94293 0.44778 0.0
C800 C 0.04396 0.92289 0.4521 0.0
C801 C 0.05751 0.90779 0.45508 0.0
C802 C 0.07853 0.91277 0.45346 0.0
C803 C 0.08585 0.93328 0.4492 0.0
H804 H 0.78635 0.08054 0.17274 0.0
H805 H 0.72737 0.10318 0.18057 0.0
H806 H 0.72921 0.1168 0.14438 0.0
H807 H 0.80767 0.12426 0.14437 0.0
H808 H 0.82283 0.10929 0.12751 0.0
H809 H 0.81639 0.10046 0.15358 0.0
H810 H 0.80097 0.0657 0.13787 0.0
H811 H 0.80736 0.07442 0.11175 0.0
H812 H 0.78172 0.06573 0.11793 0.0
H813 H 0.73726 0.12716 0.10702 0.0
H814 H 0.75201 0.13601 0.07227 0.0
H815 H 0.80666 0.10865 0.08996 0.0
C816 C 0.77376 0.08823 0.16677 0.0
C817 C 0.75663 0.09067 0.17932 0.0
C818 C 0.74061 0.10114 0.17115 0.0
C819 C 0.7415 0.10886 0.15062 0.0
C820 C 0.75864 0.10622 0.13865 0.0
C821 C 0.77457 0.09636 0.1465 0.0
C822 C 0.79164 0.09637 0.13079 0.0
C823 C 0.81076 0.10831 0.13959 0.0
C824 C 0.79565 0.07424 0.1242 0.0
C825 C 0.78279 0.1077 0.11282 0.0
C826 C 0.76365 0.11305 0.11756 0.0
C827 C 0.75228 0.12317 0.10318 0.0
C828 C 0.76075 0.12808 0.08349 0.0
C829 C 0.7805 0.12312 0.07852 0.0
C830 C 0.7916 0.11281 0.09342 0.0
H831 H 0.95285 0.2474 0.69547 0.0
H832 H 0.00714 0.2221 0.67257 0.0
H833 H 0.98662 0.19869 0.64852 0.0
H834 H 0.91976 0.1992 0.69219 0.0
H835 H 0.89854 0.21243 0.68367 0.0
H836 H 0.91733 0.22545 0.70066 0.0
H837 H 0.92273 0.25494 0.67374 0.0
H838 H 0.90404 0.24202 0.65668 0.0
H839 H 0.92902 0.24884 0.64687 0.0
H840 H 0.96032 0.1802 0.62482 0.0
H841 H 0.9306 0.16859 0.60321 0.0
H842 H 0.89384 0.20636 0.64177 0.0
C843 C 0.96044 0.23669 0.68569 0.0
C844 C 0.9816 0.23654 0.68595 0.0
C845 C 0.99093 0.22246 0.67268 0.0
C846 C 0.9794 0.20906 0.65901 0.0
C847 C 0.95858 0.20989 0.65889 0.0
C848 C 0.9492 0.2233 0.67196 0.0
C849 C 0.92679 0.22223 0.66783 0.0
C850 C 0.91491 0.21435 0.68724 0.0
C851 C 0.92028 0.24325 0.66086 0.0
C852 C 0.92508 0.20653 0.64999 0.0
C853 C 0.94351 0.19938 0.6452 0.0
C854 C 0.94577 0.18552 0.62859 0.0
C855 C 0.9288 0.17902 0.61639 0.0
C856 C 0.90985 0.18652 0.62079 0.0
C857 C 0.90804 0.2002 0.63804 0.0
H858 H 0.85311 0.50976 0.1603 0.0
H859 H 0.89378 0.47397 0.19512 0.0
H860 H 0.89171 0.44757 0.16667 0.0
H861 H 0.82114 0.46675 0.14056 0.0
H862 H 0.81728 0.47817 0.11535 0.0
H863 H 0.82223 0.4944 0.13829 0.0
H864 H 0.85252 0.51358 0.11936 0.0
H865 H 0.84763 0.49745 0.09634 0.0
H866 H 0.87209 0.49902 0.10862 0.0
H867 H 0.88532 0.42516 0.13429 0.0
H868 H 0.87489 0.40828 0.10047 0.0
H869 H 0.83791 0.45849 0.08728 0.0
C870 C 0.86164 0.49642 0.16194 0.0
C871 C 0.87365 0.49395 0.17993 0.0
C872 C 0.88449 0.4762 0.18149 0.0
C873 C 0.88341 0.46111 0.16541 0.0
C874 C 0.87137 0.46399 0.14794 0.0
C875 C 0.86066 0.48118 0.14612 0.0
C876 C 0.84869 0.4805 0.12581 0.0
C877 C 0.82599 0.47991 0.13028 0.0
C878 C 0.85566 0.49872 0.1117 0.0
C879 C 0.85436 0.46024 0.11648 0.0
C880 C 0.86749 0.45097 0.12945 0.0
C881 C 0.87501 0.43225 0.12402 0.0
C882 C 0.869 0.42278 0.10478 0.0
C883 C 0.85554 0.43202 0.09126 0.0
C884 C 0.84812 0.45096 0.09731 0.0
H885 H 0.57652 0.34667 0.70659 0.0
H886 H 0.55535 0.28327 0.69155 0.0
H887 H 0.58635 0.27925 0.67112 0.0
H888 H 0.59929 0.35834 0.65641 0.0
H889 H 0.62015 0.3742 0.66761 0.0
H890 H 0.59629 0.37199 0.68098 0.0
H891 H 0.61368 0.35994 0.71462 0.0
H892 H 0.63759 0.36208 0.70134 0.0
H893 H 0.62853 0.33802 0.71305 0.0
H894 H 0.61996 0.28219 0.65246 0.0
H895 H 0.65324 0.29202 0.63678 0.0
H896 H 0.65203 0.35346 0.66415 0.0
C897 C 0.57836 0.33193 0.69899 0.0
C898 C 0.56349 0.31528 0.70068 0.0
C899 C 0.56652 0.29626 0.69047 0.0
C900 C 0.58408 0.29381 0.67884 0.0
C901 C 0.59845 0.31054 0.67755 0.0
C902 C 0.59575 0.32923 0.68733 0.0
C903 C 0.61345 0.34481 0.68353 0.0
C904 C 0.6069 0.36343 0.67141 0.0
C905 C 0.62393 0.3516 0.70438 0.0
C906 C 0.62656 0.33196 0.67011 0.0
C907 C 0.61769 0.31223 0.66683 0.0
C908 C 0.62704 0.2976 0.65491 0.0
C909 C 0.64595 0.30332 0.64609 0.0
C910 C 0.65526 0.32351 0.64922 0.0
C911 C 0.64535 0.33792 0.66143 0.0
H912 H 0.83344 0.53501 0.55285 0.0
H913 H 0.78312 0.55259 0.51569 0.0
H914 H 0.76455 0.51904 0.52304 0.0
H915 H 0.8291 0.48021 0.53861 0.0
H916 H 0.83543 0.47232 0.56472 0.0
H917 H 0.84539 0.49702 0.55516 0.0
H918 H 0.8305 0.5151 0.58754 0.0
H919 H 0.82052 0.49049 0.59719 0.0
H920 H 0.80401 0.51066 0.5931 0.0
H921 H 0.75106 0.48409 0.53535 0.0
H922 H 0.74281 0.45112 0.55336 0.0
H923 H 0.80148 0.45691 0.58352 0.0
C924 C 0.81862 0.53169 0.54603 0.0
C925 C 0.80976 0.54634 0.53358 0.0
C926 C 0.7902 0.54157 0.52525 0.0
C927 C 0.77957 0.52254 0.52927 0.0
C928 C 0.78867 0.5085 0.54173 0.0
C929 C 0.80771 0.51287 0.55009 0.0
C930 C 0.81358 0.49566 0.56404 0.0
C931 C 0.83196 0.48572 0.55509 0.0
C932 C 0.81736 0.50345 0.58681 0.0
C933 C 0.79477 0.48103 0.56244 0.0
C934 C 0.78069 0.48859 0.54928 0.0
C935 C 0.76199 0.47797 0.54563 0.0
C936 C 0.75745 0.45924 0.55592 0.0
C937 C 0.77148 0.45143 0.56986 0.0
C938 C 0.79044 0.46244 0.57294 0.0
H939 H 0.64068 0.29674 0.96499 0.0
H940 H 0.59483 0.26615 0.00475 0.0
H941 H 0.61838 0.24037 0.01428 0.0
H942 H 0.66089 0.25063 0.94533 0.0
H943 H 0.68649 0.26191 0.94519 0.0
H944 H 0.66604 0.27798 0.94165 0.0
H945 H 0.67907 0.30116 0.97314 0.0
H946 H 0.69956 0.28518 0.97677 0.0
H947 H 0.68283 0.28966 0.99834 0.0
H948 H 0.64725 0.21825 0.01989 0.0
H949 H 0.67897 0.20111 0.02054 0.0
H950 H 0.70544 0.24597 0.97652 0.0
C951 C 0.63557 0.28465 0.97573 0.0
C952 C 0.61594 0.28349 0.98418 0.0
C953 C 0.60982 0.26735 0.99809 0.0
C954 C 0.62308 0.25264 0.0036 0.0
C955 C 0.64235 0.25425 0.99499 0.0
C956 C 0.64855 0.26981 0.9813 0.0
C957 C 0.66997 0.26805 0.97411 0.0
C958 C 0.67089 0.26442 0.95015 0.0
C959 C 0.68366 0.28714 0.98101 0.0
C960 C 0.6749 0.24911 0.98597 0.0
C961 C 0.65881 0.24139 0.99797 0.0
C962 C 0.65993 0.22412 0.0105 0.0
C963 C 0.67801 0.21451 0.01078 0.0
C964 C 0.69466 0.22215 0.99853 0.0
C965 C 0.69297 0.23966 0.98597 0.0
H966 H 0.90894 0.11115 0.52486 0.0
H967 H 0.89108 0.16366 0.49015 0.0
H968 H 0.91063 0.15285 0.45944 0.0
H969 H 0.95933 0.11381 0.50606 0.0
H970 H 0.96068 0.08627 0.5048 0.0
H971 H 0.94428 0.09736 0.52356 0.0
H972 H 0.91394 0.07425 0.50859 0.0
H973 H 0.93026 0.06303 0.48982 0.0
H974 H 0.90832 0.07481 0.48084 0.0
H975 H 0.9326 0.13668 0.43279 0.0
H976 H 0.95632 0.11693 0.41247 0.0
H977 H 0.96071 0.07559 0.46491 0.0
C978 C 0.90895 0.12025 0.51071 0.0
C979 C 0.89837 0.13817 0.50982 0.0
C980 C 0.89904 0.14985 0.49115 0.0
C981 C 0.91007 0.14382 0.47363 0.0
C982 C 0.92047 0.12617 0.4751 0.0
C983 C 0.92008 0.11459 0.49319 0.0
C984 C 0.93327 0.09679 0.49101 0.0
C985 C 0.9504 0.09868 0.50733 0.0
C986 C 0.92069 0.07599 0.49266 0.0
C987 C 0.9412 0.1002 0.46889 0.0
C988 C 0.93348 0.11712 0.45992 0.0
C989 C 0.93862 0.12333 0.43959 0.0
C990 C 0.95195 0.11192 0.42811 0.0
C991 C 0.96004 0.09457 0.43701 0.0
C992 C 0.95469 0.08878 0.45773 0.0
H993 H 0.93695 0.42629 0.88743 0.0
H994 H 0.9551 0.48867 0.90904 0.0
H995 H 0.93079 0.48454 0.93842 0.0
H996 H 0.88375 0.42642 0.90079 0.0
H997 H 0.88209 0.39991 0.9089 0.0
H998 H 0.89975 0.40852 0.8888 0.0
H999 H 0.92882 0.39521 0.91054 0.0
H1000 H 0.91129 0.38661 0.93071 0.0
H1001 H 0.93277 0.40413 0.93736 0.0
H1002 H 0.90566 0.47258 0.96664 0.0
H1003 H 0.88228 0.45383 0.9913 0.0
H1004 H 0.88137 0.39939 0.9508 0.0
C1005 C 0.93568 0.43923 0.89815 0.0
C1006 C 0.94788 0.45783 0.8959 0.0
C1007 C 0.94584 0.47428 0.91042 0.0
C1008 C 0.93207 0.47209 0.92713 0.0
C1009 C 0.92045 0.45339 0.92902 0.0
C1010 C 0.92211 0.43728 0.91485 0.0
C1011 C 0.9087 0.41842 0.92082 0.0
C1012 C 0.89262 0.41301 0.90382 0.0
C1013 C 0.92114 0.40002 0.92512 0.0
C1014 C 0.89945 0.42626 0.94079 0.0
C1015 C 0.90624 0.44651 0.94522 0.0
C1016 C 0.90014 0.45677 0.96324 0.0
C1017 C 0.88687 0.44599 0.97716 0.0
C1018 C 0.87999 0.42513 0.97301 0.0
C1019 C 0.8863 0.41532 0.95445 0.0
H1020 H 0.19483 0.64579 0.1928 0.0
H1021 H 0.2209 0.59803 0.22828 0.0
H1022 H 0.19066 0.59475 0.25081 0.0
H1023 H 0.17554 0.67087 0.23533 0.0
H1024 H 0.1529 0.67744 0.22242 0.0
H1025 H 0.17504 0.67381 0.20715 0.0
H1026 H 0.15492 0.64609 0.18409 0.0
H1027 H 0.13262 0.64972 0.19927 0.0
H1028 H 0.14146 0.62437 0.19649 0.0
H1029 H 0.15955 0.59976 0.2721 0.0
H1030 H 0.13011 0.61246 0.29021 0.0
H1031 H 0.12454 0.65688 0.24063 0.0
C1032 C 0.194 0.63426 0.20496 0.0
C1033 C 0.21023 0.62211 0.20872 0.0
C1034 C 0.20864 0.60745 0.22503 0.0
C1035 C 0.19149 0.60544 0.23789 0.0
C1036 C 0.17601 0.61808 0.23411 0.0
C1037 C 0.17706 0.63209 0.21792 0.0
C1038 C 0.15924 0.64508 0.21824 0.0
C1039 C 0.1661 0.66815 0.22096 0.0
C1040 C 0.14629 0.64107 0.19834 0.0
C1041 C 0.14836 0.63672 0.23759 0.0
C1042 C 0.15811 0.62097 0.24638 0.0
C1043 C 0.15161 0.61184 0.26516 0.0
C1044 C 0.13489 0.6192 0.27536 0.0
C1045 C 0.12493 0.63561 0.26681 0.0
C1046 C 0.13162 0.64414 0.24746 0.0
H1047 H 0.14874 0.82537 0.53371 0.0
H1048 H 0.16187 0.88986 0.51826 0.0
H1049 H 0.18421 0.89444 0.54935 0.0
H1050 H 0.14815 0.83242 0.59026 0.0
H1051 H 0.15976 0.80888 0.59509 0.0
H1052 H 0.14444 0.81097 0.57199 0.0
H1053 H 0.17407 0.80129 0.54843 0.0
H1054 H 0.18951 0.79923 0.57144 0.0
H1055 H 0.198 0.8162 0.55051 0.0
H1056 H 0.2059 0.89158 0.58179 0.0
H1057 H 0.22466 0.88168 0.61315 0.0
H1058 H 0.19708 0.81909 0.60691 0.0
C1059 C 0.15618 0.84052 0.53688 0.0
C1060 C 0.15351 0.85726 0.52352 0.0
C1061 C 0.16364 0.87679 0.52827 0.0
C1062 C 0.17637 0.87955 0.54589 0.0
C1063 C 0.17878 0.86264 0.5586 0.0
C1064 C 0.16891 0.84353 0.55434 0.0
C1065 C 0.17423 0.82775 0.57023 0.0
C1066 C 0.15553 0.81953 0.58263 0.0
C1067 C 0.18457 0.81008 0.55951 0.0
C1068 C 0.18876 0.84092 0.58408 0.0
C1069 C 0.19119 0.861 0.57716 0.0
C1070 C 0.20406 0.87591 0.58738 0.0
C1071 C 0.21467 0.87013 0.60516 0.0
C1072 C 0.21234 0.84961 0.61252 0.0
C1073 C 0.19919 0.8349 0.60175 0.0
H1074 H 0.27214 0.5897 0.06986 0.0
H1075 H 0.22955 0.63673 0.06964 0.0
H1076 H 0.21878 0.62567 0.03373 0.0
H1077 H 0.2867 0.59398 0.01538 0.0
H1078 H 0.28852 0.56668 0.01171 0.0
H1079 H 0.29304 0.57845 0.03731 0.0
H1080 H 0.26569 0.55274 0.05335 0.0
H1081 H 0.26108 0.54089 0.0278 0.0
H1082 H 0.24065 0.55071 0.04239 0.0
H1083 H 0.2127 0.60957 0.99785 0.0
H1084 H 0.21127 0.58914 0.96474 0.0
H1085 H 0.25748 0.55226 0.98858 0.0
C1086 C 0.26058 0.59772 0.06226 0.0
C1087 C 0.25171 0.61411 0.07256 0.0
C1088 C 0.23656 0.62413 0.06207 0.0
C1089 C 0.23035 0.61797 0.04167 0.0
C1090 C 0.23939 0.60175 0.03199 0.0
C1091 C 0.25414 0.59172 0.04194 0.0
C1092 C 0.26126 0.57457 0.02814 0.0
C1093 C 0.28371 0.57868 0.02282 0.0
C1094 C 0.2569 0.55348 0.03854 0.0
C1095 C 0.24819 0.57651 0.00888 0.0
C1096 C 0.23574 0.59233 0.0114 0.0
C1097 C 0.22237 0.59714 0.99571 0.0
C1098 C 0.22168 0.58544 0.97695 0.0
C1099 C 0.23424 0.56908 0.97406 0.0
C1100 C 0.24765 0.56463 0.9903 0.0
H1101 H 0.46428 0.72347 0.5086 0.0
H1102 H 0.40901 0.70121 0.47657 0.0
H1103 H 0.42755 0.69974 0.44299 0.0
H1104 H 0.48518 0.75527 0.46629 0.0
H1105 H 0.51059 0.74906 0.47116 0.0
H1106 H 0.49282 0.74902 0.49251 0.0
H1107 H 0.49957 0.71134 0.50092 0.0
H1108 H 0.51735 0.71125 0.47961 0.0
H1109 H 0.4965 0.69183 0.48046 0.0
H1110 H 0.45234 0.69981 0.41306 0.0
H1111 H 0.48155 0.70127 0.38909 0.0
H1112 H 0.52053 0.72338 0.44083 0.0
C1113 C 0.45603 0.71841 0.49452 0.0
C1114 C 0.43518 0.71249 0.49522 0.0
C1115 C 0.42498 0.70585 0.47643 0.0
C1116 C 0.43537 0.70497 0.45727 0.0
C1117 C 0.45594 0.71081 0.45716 0.0
C1118 C 0.46616 0.71741 0.47529 0.0
C1119 C 0.48835 0.72236 0.47102 0.0
C1120 C 0.49459 0.74529 0.47551 0.0
C1121 C 0.50119 0.70836 0.48376 0.0
C1122 C 0.48905 0.71736 0.44769 0.0
C1123 C 0.4702 0.7108 0.43997 0.0
C1124 C 0.46716 0.70501 0.41892 0.0
C1125 C 0.48386 0.70587 0.40542 0.0
C1126 C 0.50334 0.71245 0.41305 0.0
C1127 C 0.50585 0.71834 0.43447 0.0
H1128 H 0.36088 0.04196 0.02904 0.0
H1129 H 0.37776 0.99932 0.98016 0.0
H1130 H 0.38044 0.97245 0.00685 0.0
H1131 H 0.39416 0.02513 0.0694 0.0
H1132 H 0.37643 0.02831 0.09038 0.0
H1133 H 0.37622 0.0443 0.06749 0.0
H1134 H 0.33854 0.03268 0.06138 0.0
H1135 H 0.33863 0.01668 0.08426 0.0
H1136 H 0.33072 0.00555 0.05914 0.0
H1137 H 0.37984 0.94977 0.03865 0.0
H1138 H 0.37669 0.93318 0.07337 0.0
H1139 H 0.3612 0.99096 0.10157 0.0
C1140 C 0.3652 0.02699 0.02393 0.0
C1141 C 0.36907 0.02273 0.00249 0.0
C1142 C 0.37474 0.00296 0.9965 0.0
C1143 C 0.37631 0.98759 0.01154 0.0
C1144 C 0.37233 0.99229 0.03253 0.0
C1145 C 0.36699 0.01154 0.03875 0.0
C1146 C 0.36334 0.01257 0.06227 0.0
C1147 C 0.37844 0.02852 0.07301 0.0
C1148 C 0.34151 0.01713 0.06704 0.0
C1149 C 0.36721 0.99081 0.06827 0.0
C1150 C 0.37237 0.97935 0.05089 0.0
C1151 C 0.37597 0.95863 0.0524 0.0
C1152 C 0.37412 0.94934 0.07218 0.0
C1153 C 0.36882 0.9608 0.09019 0.0
C1154 C 0.3655 0.98185 0.08815 0.0
H1155 H 0.46299 0.90294 0.26809 0.0
H1156 H 0.48989 0.85041 0.24025 0.0
H1157 H 0.46746 0.85167 0.20936 0.0
H1158 H 0.41229 0.88848 0.25085 0.0
H1159 H 0.40675 0.91465 0.24603 0.0
H1160 H 0.42487 0.90945 0.26589 0.0
H1161 H 0.45159 0.93437 0.24774 0.0
H1162 H 0.43358 0.93958 0.22778 0.0
H1163 H 0.45736 0.93035 0.22033 0.0
H1164 H 0.44248 0.85928 0.18109 0.0
H1165 H 0.4163 0.87199 0.15826 0.0
H1166 H 0.4054 0.91894 0.20514 0.0
C1167 C 0.46417 0.89165 0.25554 0.0
C1168 C 0.47822 0.87658 0.2566 0.0
C1169 C 0.47924 0.86209 0.23981 0.0
C1170 C 0.46658 0.8627 0.22219 0.0
C1171 C 0.45298 0.87786 0.22162 0.0
C1172 C 0.45167 0.89202 0.23789 0.0
C1173 C 0.43577 0.90673 0.2335 0.0
C1174 C 0.41892 0.9047 0.25005 0.0
C1175 C 0.44514 0.92908 0.23226 0.0
C1176 C 0.42837 0.89868 0.21216 0.0
C1177 C 0.43847 0.88203 0.20555 0.0
C1178 C 0.43429 0.87213 0.18624 0.0
C1179 C 0.41923 0.87931 0.17347 0.0
C1180 C 0.40845 0.8961 0.18015 0.0
C1181 C 0.41333 0.90601 0.19964 0.0
H1182 H 0.25533 0.98164 0.78203 0.0
H1183 H 0.19433 0.98149 0.75801 0.0
H1184 H 0.19487 0.94475 0.74806 0.0
H1185 H 0.27358 0.94801 0.74211 0.0
H1186 H 0.289 0.93501 0.76011 0.0
H1187 H 0.2839 0.96138 0.76524 0.0
H1188 H 0.26975 0.95131 0.80201 0.0
H1189 H 0.27485 0.92492 0.79702 0.0
H1190 H 0.2498 0.931 0.80401 0.0
H1191 H 0.20193 0.90799 0.74085 0.0
H1192 H 0.21486 0.8736 0.73752 0.0
H1193 H 0.2712 0.89775 0.76626 0.0
C1194 C 0.24208 0.9739 0.77466 0.0
C1195 C 0.2248 0.98447 0.77079 0.0
C1196 C 0.20776 0.97374 0.76116 0.0
C1197 C 0.20792 0.95287 0.75541 0.0
C1198 C 0.22521 0.94294 0.7594 0.0
C1199 C 0.24196 0.95307 0.76885 0.0
C1200 C 0.25854 0.93876 0.77161 0.0
C1201 C 0.27736 0.94624 0.75901 0.0
C1202 C 0.26352 0.93636 0.79505 0.0
C1203 C 0.24847 0.919 0.76227 0.0
C1204 C 0.22926 0.92174 0.75529 0.0
C1205 C 0.21696 0.90565 0.74624 0.0
C1206 C 0.22444 0.88618 0.74441 0.0
C1207 C 0.24404 0.88298 0.75162 0.0
C1208 C 0.25618 0.89969 0.76055 0.0
H1209 H 0.36628 0.58637 0.66893 0.0
H1210 H 0.4251 0.56409 0.65846 0.0
H1211 H 0.43082 0.58844 0.62907 0.0
H1212 H 0.3543 0.59503 0.61346 0.0
H1213 H 0.34187 0.61791 0.61978 0.0
H1214 H 0.34183 0.59733 0.63847 0.0
H1215 H 0.35728 0.62311 0.66675 0.0
H1216 H 0.35744 0.64371 0.64817 0.0
H1217 H 0.38044 0.63829 0.66112 0.0
H1218 H 0.43108 0.61768 0.60281 0.0
H1219 H 0.42569 0.64862 0.58198 0.0
H1220 H 0.36657 0.6509 0.61008 0.0
C1221 C 0.38027 0.58632 0.66029 0.0
C1222 C 0.39524 0.57329 0.66601 0.0
C1223 C 0.41336 0.57386 0.65432 0.0
C1224 C 0.41674 0.58764 0.6376 0.0
C1225 C 0.40177 0.60057 0.63268 0.0
C1226 C 0.38384 0.59987 0.64363 0.0
C1227 C 0.37056 0.61604 0.63614 0.0
C1228 C 0.35099 0.60597 0.62638 0.0
C1229 C 0.36619 0.63118 0.65411 0.0
C1230 C 0.384 0.62635 0.61959 0.0
C1231 C 0.40189 0.61717 0.61765 0.0
C1232 C 0.41702 0.62482 0.60403 0.0
C1233 C 0.41383 0.64241 0.59229 0.0
C1234 C 0.39568 0.65218 0.59432 0.0
C1235 C 0.38055 0.64376 0.60798 0.0
loop_
_geom_bond_atom_site_label_1
_geom_bond_atom_site_label_2
_geom_bond_distance
_geom_bond_site_symmetry_2
_ccdc_geom_bond_type
O0 Cd1 2.300 . S
O0 C7 1.274 . S
Cd1 O0 2.300 . S
Cd1 O9 2.381 . S
Cd1 O10 2.378 . S
O2 Cd3 2.385 . S
O2 C7 1.256 1_655 S
Cd3 O2 2.385 . S
Cd3 O4 2.317 . S
O4 Cd3 2.317 . S
O4 C5 1.232 . S
C5 O4 1.232 . S
C5 O6 1.218 . S
O6 C5 1.218 . S
C7 O0 1.274 . S
C7 O2 1.256 1_455 S
C8 O9 1.258 . S
C8 O10 1.256 . S
O9 Cd1 2.381 . S
O9 C8 1.258 . S
O10 Cd1 2.378 . S
O10 C8 1.256 . S
O11 Cd12 2.300 . S
O11 C18 1.275 . S
Cd12 O11 2.300 . S
Cd12 O20 2.381 . S
Cd12 O21 2.378 . S
O13 Cd14 2.385 . S
O13 C18 1.255 . S
Cd14 O13 2.385 . S
Cd14 O15 2.317 . S
O15 Cd14 2.317 . S
O15 C16 1.232 . S
C16 O15 1.232 . S
C16 O17 1.218 . S
O17 C16 1.218 . S
C18 O11 1.275 . S
C18 O13 1.255 . S
C19 O20 1.258 . S
C19 O21 1.256 . S
O20 Cd12 2.381 . S
O20 C19 1.258 . S
O21 Cd12 2.378 . S
O21 C19 1.256 . S
O22 Cd23 2.300 . S
O22 C29 1.275 . S
Cd23 O22 2.300 . S
Cd23 O31 2.381 . S
Cd23 O32 2.378 . S
O24 Cd25 2.385 . S
O24 C29 1.255 . S
Cd25 O24 2.385 . S
Cd25 O26 2.317 . S
O26 Cd25 2.317 . S
O26 C27 1.232 . S
C27 O26 1.232 . S
C27 O28 1.218 . S
O28 C27 1.218 . S
C29 O22 1.275 . S
C29 O24 1.255 . S
C30 O31 1.258 . S
C30 O32 1.256 . S
O31 Cd23 2.381 . S
O31 C30 1.258 . S
O32 Cd23 2.378 . S
O32 C30 1.256 . S
O33 Cd34 2.300 . S
O33 C40 1.275 . S
Cd34 O33 2.300 . S
Cd34 O42 2.381 . S
Cd34 O43 2.378 . S
O35 Cd36 2.385 1_545 S
O35 C40 1.255 . S
Cd36 O35 2.385 1_565 S
Cd36 O37 2.317 1_565 S
O37 Cd36 2.317 1_545 S
O37 C38 1.232 . S
C38 O37 1.232 . S
C38 O39 1.218 1_545 S
O39 C38 1.218 1_565 S
C40 O33 1.275 . S
C40 O35 1.255 . S
C41 O42 1.258 . S
C41 O43 1.256 . S
O42 Cd34 2.381 . S
O42 C41 1.258 . S
O43 Cd34 2.378 . S
O43 C41 1.256 . S
O44 Cd45 2.300 . S
O44 C51 1.275 1_455 S
Cd45 O44 2.300 . S
Cd45 O53 2.381 . S
Cd45 O54 2.378 . S
O46 Cd47 2.385 . S
O46 C51 1.255 . S
Cd47 O46 2.385 . S
Cd47 O48 2.317 . S
O48 Cd47 2.317 . S
O48 C49 1.232 . S
C49 O48 1.232 . S
C49 O50 1.218 . S
O50 C49 1.218 . S
C51 O44 1.275 1_655 S
C51 O46 1.255 . S
C52 O53 1.258 . S
C52 O54 1.256 . S
O53 Cd45 2.381 . S
O53 C52 1.258 . S
O54 Cd45 2.378 . S
O54 C52 1.256 . S
O55 Cd56 2.300 . S
O55 C62 1.275 . S
Cd56 O55 2.300 . S
Cd56 O64 2.381 . S
Cd56 O65 2.378 . S
O57 Cd58 2.385 . S
O57 C62 1.255 . S
Cd58 O57 2.385 . S
Cd58 O59 2.317 . S
O59 Cd58 2.317 . S
O59 C60 1.232 . S
C60 O59 1.232 . S
C60 O61 1.218 . S
O61 C60 1.218 . S
C62 O55 1.275 . S
C62 O57 1.255 . S
C63 O64 1.258 . S
C63 O65 1.256 . S
O64 Cd56 2.381 . S
O64 C63 1.258 . S
O65 Cd56 2.378 . S
O65 C63 1.256 . S
O66 Cd67 2.300 . S
O66 C73 1.275 . S
Cd67 O66 2.300 . S
Cd67 O75 2.381 . S
Cd67 O76 2.378 . S
O68 Cd69 2.385 . S
O68 C73 1.255 . S
Cd69 O68 2.385 . S
Cd69 O70 2.317 . S
O70 Cd69 2.317 . S
O70 C71 1.232 . S
C71 O70 1.232 . S
C71 O72 1.218 . S
O72 C71 1.218 . S
C73 O66 1.275 . S
C73 O68 1.255 . S
C74 O75 1.258 . S
C74 O76 1.256 . S
O75 Cd67 2.381 . S
O75 C74 1.258 . S
O76 Cd67 2.378 . S
O76 C74 1.256 . S
O77 Cd78 2.300 . S
O77 C84 1.275 . S
Cd78 O77 2.300 . S
Cd78 O86 2.381 . S
Cd78 O87 2.378 . S
O79 Cd80 2.385 . S
O79 C84 1.255 . S
Cd80 O79 2.385 . S
Cd80 O81 2.317 . S
O81 Cd80 2.317 . S
O81 C82 1.232 . S
C82 O81 1.232 . S
C82 O83 1.218 . S
O83 C82 1.218 . S
C84 O77 1.275 . S
C84 O79 1.255 . S
C85 O86 1.258 . S
C85 O87 1.256 . S
O86 Cd78 2.381 . S
O86 C85 1.258 . S
O87 Cd78 2.378 . S
O87 C85 1.256 . S
O88 Cd89 2.300 . S
O88 C95 1.275 . S
Cd89 O88 2.300 . S
Cd89 O97 2.381 . S
Cd89 O98 2.378 . S
O90 Cd91 2.385 . S
O90 C95 1.255 . S
Cd91 O90 2.385 . S
Cd91 O92 2.317 . S
O92 Cd91 2.317 . S
O92 C93 1.232 . S
C93 O92 1.232 . S
C93 O94 1.218 . S
O94 C93 1.218 . S
C95 O88 1.275 . S
C95 O90 1.255 . S
C96 O97 1.258 . S
C96 O98 1.256 . S
O97 Cd89 2.381 . S
O97 C96 1.258 . S
O98 Cd89 2.378 . S
O98 C96 1.256 . S
O99 Cd100 2.300 . S
O99 C106 1.275 . S
Cd100 O99 2.300 . S
Cd100 O108 2.381 . S
Cd100 O109 2.378 . S
O101 Cd102 2.385 . S
O101 C106 1.255 . S
Cd102 O101 2.385 . S
Cd102 O103 2.317 . S
O103 Cd102 2.317 . S
O103 C104 1.232 . S
C104 O103 1.232 . S
C104 O105 1.218 . S
O105 C104 1.218 . S
C106 O99 1.275 . S
C106 O101 1.255 . S
C107 O108 1.258 . S
C107 O109 1.256 . S
O108 Cd100 2.381 . S
O108 C107 1.258 . S
O109 Cd100 2.378 . S
O109 C107 1.256 . S
O110 Cd111 2.300 . S
O110 C117 1.275 . S
Cd111 O110 2.300 . S
Cd111 O119 2.381 . S
Cd111 O120 2.378 . S
O112 Cd113 2.385 . S
O112 C117 1.255 . S
Cd113 O112 2.385 . S
Cd113 O114 2.317 . S
O114 Cd113 2.317 . S
O114 C115 1.232 . S
C115 O114 1.232 . S
C115 O116 1.218 . S
O116 C115 1.218 . S
C117 O110 1.275 . S
C117 O112 1.255 . S
C118 O119 1.258 . S
C118 O120 1.256 . S
O119 Cd111 2.381 . S
O119 C118 1.258 . S
O120 Cd111 2.378 . S
O120 C118 1.256 . S
O121 Cd122 2.300 . S
O121 C128 1.275 . S
Cd122 O121 2.300 . S
Cd122 O130 2.381 . S
Cd122 O131 2.378 . S
O123 Cd124 2.385 . S
O123 C128 1.255 . S
Cd124 O123 2.385 . S
Cd124 O125 2.317 . S
O125 Cd124 2.317 . S
O125 C126 1.232 . S
C126 O125 1.232 . S
C126 O127 1.218 . S
O127 C126 1.218 . S
C128 O121 1.275 . S
C128 O123 1.255 . S
C129 O130 1.258 . S
C129 O131 1.256 . S
O130 Cd122 2.381 . S
O130 C129 1.258 . S
O131 Cd122 2.378 . S
O131 C129 1.256 . S
O132 Cd133 2.300 . S
O132 C139 1.275 . S
Cd133 O132 2.300 . S
Cd133 O141 2.381 . S
Cd133 O142 2.378 . S
O134 Cd135 2.385 . S
O134 C139 1.255 . S
Cd135 O134 2.385 . S
Cd135 O136 2.317 . S
O136 Cd135 2.317 . S
O136 C137 1.232 . S
C137 O136 1.232 . S
C137 O138 1.218 . S
O138 C137 1.218 . S
C139 O132 1.275 . S
C139 O134 1.255 . S
C140 O141 1.258 . S
C140 O142 1.256 . S
O141 Cd133 2.381 . S
O141 C140 1.258 . S
O142 Cd133 2.378 . S
O142 C140 1.256 . S
O143 Cd144 2.300 . S
O143 C150 1.275 . S
Cd144 O143 2.300 . S
Cd144 O152 2.381 . S
Cd144 O153 2.378 . S
O145 Cd146 2.385 . S
O145 C150 1.255 . S
Cd146 O145 2.385 . S
Cd146 O147 2.317 . S
O147 Cd146 2.317 . S
O147 C148 1.232 . S
C148 O147 1.232 . S
C148 O149 1.218 . S
O149 C148 1.218 . S
C150 O143 1.275 . S
C150 O145 1.255 . S
C151 O152 1.258 . S
C151 O153 1.256 . S
O152 Cd144 2.381 . S
O152 C151 1.258 . S
O153 Cd144 2.378 . S
O153 C151 1.256 . S
O154 Cd155 2.300 . S
O154 C161 1.275 . S
Cd155 O154 2.300 . S
Cd155 O163 2.381 . S
Cd155 O164 2.378 . S
O156 Cd157 2.385 . S
O156 C161 1.255 . S
Cd157 O156 2.385 . S
Cd157 O158 2.317 . S
O158 Cd157 2.317 . S
O158 C159 1.232 . S
C159 O158 1.232 . S
C159 O160 1.218 . S
O160 C159 1.218 . S
C161 O154 1.275 . S
C161 O156 1.255 . S
C162 O163 1.258 . S
C162 O164 1.256 . S
O163 Cd155 2.381 . S
O163 C162 1.258 . S
O164 Cd155 2.378 . S
O164 C162 1.256 . S
O165 Cd166 2.276 1_556 S
O165 C172 1.275 . S
Cd166 O165 2.276 1_554 S
Cd166 O174 2.403 . S
Cd166 O175 2.414 . S
O167 Cd168 2.385 . S
O167 C172 1.255 . S
Cd168 O167 2.385 . S
Cd168 O169 2.317 . S
O169 Cd168 2.317 . S
O169 C170 1.232 . S
C170 O169 1.232 . S
C170 O171 1.218 . S
O171 C170 1.218 . S
C172 O165 1.275 . S
C172 O167 1.255 . S
C173 O174 1.258 . S
C173 O175 1.256 . S
O174 Cd166 2.403 . S
O174 C173 1.258 . S
O175 Cd166 2.414 . S
O175 C173 1.256 . S
O176 Cd177 2.300 . S
O176 C183 1.275 . S
Cd177 O176 2.300 . S
Cd177 O185 2.381 . S
Cd177 O186 2.378 . S
O178 Cd179 2.385 . S
O178 C183 1.255 . S
Cd179 O178 2.385 . S
Cd179 O180 2.317 . S
O180 Cd179 2.317 . S
O180 C181 1.232 . S
C181 O180 1.232 . S
C181 O182 1.218 . S
O182 C181 1.218 . S
C183 O176 1.275 . S
C183 O178 1.255 . S
C184 O185 1.258 . S
C184 O186 1.256 . S
O185 Cd177 2.381 . S
O185 C184 1.258 . S
O186 Cd177 2.378 . S
O186 C184 1.256 . S
O187 Cd188 2.300 . S
O187 C194 1.275 . S
Cd188 O187 2.300 . S
Cd188 O196 2.381 . S
Cd188 O197 2.378 . S
O189 Cd190 2.385 . S
O189 C194 1.255 . S
Cd190 O189 2.385 . S
Cd190 O191 2.317 . S
O191 Cd190 2.317 . S
O191 C192 1.232 . S
C192 O191 1.232 . S
C192 O193 1.218 . S
O193 C192 1.218 . S
C194 O187 1.275 . S
C194 O189 1.255 . S
C195 O196 1.258 . S
C195 O197 1.256 . S
O196 Cd188 2.381 . S
O196 C195 1.258 . S
O197 Cd188 2.378 . S
O197 C195 1.256 . S
O198 Cd199 2.300 . S
O198 C205 1.275 . S
Cd199 O198 2.300 . S
Cd199 O207 2.381 . S
Cd199 O208 2.378 . S
O200 Cd201 2.385 . S
O200 C205 1.255 . S
Cd201 O200 2.385 . S
Cd201 O202 2.317 . S
O202 Cd201 2.317 . S
O202 C203 1.232 . S
C203 O202 1.232 . S
C203 O204 1.218 . S
O204 C203 1.218 . S
C205 O198 1.275 . S
C205 O200 1.255 . S
C206 O207 1.258 . S
C206 O208 1.256 . S
O207 Cd199 2.381 . S
O207 C206 1.258 . S
O208 Cd199 2.378 . S
O208 C206 1.256 . S
O209 Cd210 2.300 . S
O209 C216 1.275 . S
Cd210 O209 2.300 . S
Cd210 O218 2.381 . S
Cd210 O219 2.378 . S
O211 Cd212 2.385 . S
O211 C216 1.255 . S
Cd212 O211 2.385 . S
Cd212 O213 2.317 . S
O213 Cd212 2.317 . S
O213 C214 1.232 . S
C214 O213 1.232 . S
C214 O215 1.218 . S
O215 C214 1.218 . S
C216 O209 1.275 . S
C216 O211 1.255 . S
C217 O218 1.258 . S
C217 O219 1.256 . S
O218 Cd210 2.381 . S
O218 C217 1.258 . S
O219 Cd210 2.378 . S
O219 C217 1.256 . S
O220 Cd221 2.316 . S
O220 C227 1.254 1_554 S
Cd221 O220 2.316 . S
Cd221 O229 2.381 . S
Cd221 O230 2.378 . S
O222 Cd223 2.385 . S
O222 C227 1.255 . S
Cd223 O222 2.385 . S
Cd223 O224 2.317 1_556 S
O224 Cd223 2.317 1_554 S
O224 C225 1.232 1_554 S
C225 O224 1.232 1_556 S
C225 O226 1.218 . S
O226 C225 1.218 . S
C227 O220 1.254 1_556 S
C227 O222 1.255 . S
C228 O229 1.258 . S
C228 O230 1.256 . S
O229 Cd221 2.381 . S
O229 C228 1.258 . S
O230 Cd221 2.378 . S
O230 C228 1.256 . S
O231 Cd232 2.300 . S
O231 C238 1.275 . S
Cd232 O231 2.300 . S
Cd232 O240 2.381 . S
Cd232 O241 2.378 . S
O233 Cd234 2.385 . S
O233 C238 1.255 . S
Cd234 O233 2.385 . S
Cd234 O235 2.317 . S
O235 Cd234 2.317 . S
O235 C236 1.232 . S
C236 O235 1.232 . S
C236 O237 1.218 . S
O237 C236 1.218 . S
C238 O231 1.275 . S
C238 O233 1.255 . S
C239 O240 1.258 . S
C239 O241 1.256 . S
O240 Cd232 2.381 . S
O240 C239 1.258 . S
O241 Cd232 2.378 . S
O241 C239 1.256 . S
O242 Cd243 2.300 . S
O242 C249 1.275 . S
Cd243 O242 2.300 . S
Cd243 O251 2.381 . S
Cd243 O252 2.378 . S
O244 Cd245 2.385 . S
O244 C249 1.255 . S
Cd245 O244 2.385 . S
Cd245 O246 2.317 . S
O246 Cd245 2.317 . S
O246 C247 1.232 . S
C247 O246 1.232 . S
C247 O248 1.218 . S
O248 C247 1.218 . S
C249 O242 1.275 . S
C249 O244 1.255 . S
C250 O251 1.258 . S
C250 O252 1.256 . S
O251 Cd243 2.381 . S
O251 C250 1.258 . S
O252 Cd243 2.378 . S
O252 C250 1.256 . S
O253 Cd254 2.300 . S
O253 C260 1.275 1_554 S
Cd254 O253 2.300 . S
Cd254 O262 2.381 . S
Cd254 O263 2.378 . S
O255 Cd256 2.385 . S
O255 C260 1.255 1_554 S
Cd256 O255 2.385 . S
Cd256 O257 2.317 1_554 S
O257 Cd256 2.317 1_556 S
O257 C258 1.232 . S
C258 O257 1.232 . S
C258 O259 1.218 . S
O259 C258 1.218 . S
C260 O253 1.275 1_556 S
C260 O255 1.255 1_556 S
C261 O262 1.258 . S
C261 O263 1.256 . S
O262 Cd254 2.381 . S
O262 C261 1.258 . S
O263 Cd254 2.378 . S
O263 C261 1.256 . S
H264 C276 0.930 . S
H265 C278 0.930 . S
H266 C279 0.930 . S
H267 C283 0.959 . S
H268 C283 0.959 . S
H269 C283 0.961 . S
H270 C284 0.960 . S
H271 C284 0.961 . S
H272 C284 0.959 . S
H273 C287 0.929 . S
H274 C288 0.931 . S
H275 C290 0.930 . S
C276 H264 0.930 . S
C276 C277 1.399 1_455 S
C276 C281 1.398 1_455 S
C277 C276 1.399 1_655 S
C277 C278 1.376 . S
C278 H265 0.930 . S
C278 C277 1.376 . S
C278 C279 1.388 . S
C279 H266 0.930 . S
C279 C278 1.388 . S
C279 C280 1.390 . S
C280 C279 1.390 . S
C280 C281 1.409 . S
C280 C286 1.465 . S
C281 C276 1.398 1_655 S
C281 C280 1.409 . S
C281 C282 1.505 1_655 S
C282 C281 1.505 1_455 S
C282 C283 1.502 . S
C282 C284 1.561 1_455 S
C282 C285 1.526 1_455 S
C283 H267 0.959 . S
C283 H268 0.959 . S
C283 H269 0.961 . S
C283 C282 1.502 . S
C284 H270 0.960 . S
C284 H271 0.961 . S
C284 H272 0.959 . S
C284 C282 1.561 1_655 S
C285 C282 1.526 1_655 S
C285 C286 1.394 . S
C285 C290 1.390 1_655 S
C286 C280 1.465 . S
C286 C285 1.394 . S
C286 C287 1.399 . S
C287 H273 0.929 . S
C287 C286 1.399 . S
C287 C288 1.385 . S
C288 H274 0.931 . S
C288 C287 1.385 . S
C288 C289 1.389 . S
C289 C288 1.389 . S
C289 C290 1.387 1_655 S
C290 H275 0.930 . S
C290 C285 1.390 1_455 S
C290 C289 1.387 1_455 S
H291 C303 0.930 . S
H292 C305 0.930 . S
H293 C306 0.930 . S
H294 C310 0.959 . S
H295 C310 0.959 . S
H296 C310 0.961 . S
H297 C311 0.960 . S
H298 C311 0.961 . S
H299 C311 0.959 . S
H300 C314 0.929 . S
H301 C315 0.931 . S
H302 C317 0.930 . S
C303 H291 0.930 . S
C303 C304 1.399 . S
C303 C308 1.399 . S
C304 C303 1.399 . S
C304 C305 1.376 . S
C305 H292 0.930 . S
C305 C304 1.376 . S
C305 C306 1.388 . S
C306 H293 0.930 . S
C306 C305 1.388 . S
C306 C307 1.390 . S
C307 C306 1.390 . S
C307 C308 1.394 . S
C307 C313 1.465 . S
C308 C303 1.399 . S
C308 C307 1.394 . S
C308 C309 1.516 . S
C309 C308 1.516 . S
C309 C310 1.502 . S
C309 C311 1.561 . S
C309 C312 1.526 . S
C310 H294 0.959 . S
C310 H295 0.959 . S
C310 H296 0.961 . S
C310 C309 1.502 . S
C311 H297 0.960 . S
C311 H298 0.961 . S
C311 H299 0.959 . S
C311 C309 1.561 . S
C312 C309 1.526 . S
C312 C313 1.396 . S
C312 C317 1.390 . S
C313 C307 1.465 . S
C313 C312 1.396 . S
C313 C314 1.399 . S
C314 H300 0.929 . S
C314 C313 1.399 . S
C314 C315 1.385 . S
C315 H301 0.931 . S
C315 C314 1.385 . S
C315 C316 1.389 . S
C316 C315 1.389 . S
C316 C317 1.387 . S
C317 H302 0.930 . S
C317 C312 1.390 . S
C317 C316 1.387 . S
H318 C330 0.930 . S
H319 C332 0.930 . S
H320 C333 0.930 . S
H321 C337 0.959 . S
H322 C337 0.959 . S
H323 C337 0.961 . S
H324 C338 0.960 . S
H325 C338 0.961 . S
H326 C338 0.959 . S
H327 C341 0.929 . S
H328 C342 0.931 . S
H329 C344 0.930 . S
C330 H318 0.930 . S
C330 C331 1.399 . S
C330 C335 1.399 . S
C331 C330 1.399 . S
C331 C332 1.376 . S
C332 H319 0.930 . S
C332 C331 1.376 . S
C332 C333 1.388 . S
C333 H320 0.930 . S
C333 C332 1.388 . S
C333 C334 1.390 . S
C334 C333 1.390 . S
C334 C335 1.394 . S
C334 C340 1.465 . S
C335 C330 1.399 . S
C335 C334 1.394 . S
C335 C336 1.516 . S
C336 C335 1.516 . S
C336 C337 1.502 . S
C336 C338 1.561 . S
C336 C339 1.526 . S
C337 H321 0.959 . S
C337 H322 0.959 . S
C337 H323 0.961 . S
C337 C336 1.502 . S
C338 H324 0.960 . S
C338 H325 0.961 . S
C338 H326 0.959 . S
C338 C336 1.561 . S
C339 C336 1.526 . S
C339 C340 1.396 . S
C339 C344 1.390 . S
C340 C334 1.465 . S
C340 C339 1.396 . S
C340 C341 1.399 . S
C341 H327 0.929 . S
C341 C340 1.399 . S
C341 C342 1.385 . S
C342 H328 0.931 . S
C342 C341 1.385 . S
C342 C343 1.389 . S
C343 C342 1.389 . S
C343 C344 1.387 . S
C344 H329 0.930 . S
C344 C339 1.390 . S
C344 C343 1.387 . S
H345 C357 0.930 . S
H346 C359 0.930 . S
H347 C360 0.930 . S
H348 C364 0.959 . S
H349 C364 0.959 . S
H350 C364 0.961 . S
H351 C365 0.960 . S
H352 C365 0.961 . S
H353 C365 0.959 . S
H354 C368 0.929 . S
H355 C369 0.931 . S
H356 C371 0.930 . S
C357 H345 0.930 . S
C357 C358 1.399 . S
C357 C362 1.399 . S
C358 C357 1.399 . S
C358 C359 1.376 . S
C359 H346 0.930 . S
C359 C358 1.376 . S
C359 C360 1.388 . S
C360 H347 0.930 . S
C360 C359 1.388 . S
C360 C361 1.390 . S
C361 C360 1.390 . S
C361 C362 1.394 . S
C361 C367 1.465 . S
C362 C357 1.399 . S
C362 C361 1.394 . S
C362 C363 1.516 . S
C363 C362 1.516 . S
C363 C364 1.502 . S
C363 C365 1.561 . S
C363 C366 1.526 . S
C364 H348 0.959 . S
C364 H349 0.959 . S
C364 H350 0.961 . S
C364 C363 1.502 . S
C365 H351 0.960 . S
C365 H352 0.961 . S
C365 H353 0.959 . S
C365 C363 1.561 . S
C366 C363 1.526 . S
C366 C367 1.396 . S
C366 C371 1.390 . S
C367 C361 1.465 . S
C367 C366 1.396 . S
C367 C368 1.399 . S
C368 H354 0.929 . S
C368 C367 1.399 . S
C368 C369 1.385 . S
C369 H355 0.931 . S
C369 C368 1.385 . S
C369 C370 1.389 . S
C370 C369 1.389 . S
C370 C371 1.387 . S
C371 H356 0.930 . S
C371 C366 1.390 . S
C371 C370 1.387 . S
H372 C384 0.930 . S
H373 C386 0.930 . S
H374 C387 0.930 . S
H375 C391 0.959 . S
H376 C391 0.959 . S
H377 C391 0.961 . S
H378 C392 0.960 . S
H379 C392 0.961 . S
H380 C392 0.959 . S
H381 C395 0.929 . S
H382 C396 0.931 . S
H383 C398 0.930 . S
C384 H372 0.930 . S
C384 C385 1.399 . S
C384 C389 1.399 . S
C385 C384 1.399 . S
C385 C386 1.376 . S
C386 H373 0.930 . S
C386 C385 1.376 . S
C386 C387 1.388 . S
C387 H374 0.930 . S
C387 C386 1.388 . S
C387 C388 1.390 . S
C388 C387 1.390 . S
C388 C389 1.394 . S
C388 C394 1.465 . S
C389 C384 1.399 . S
C389 C388 1.394 . S
C389 C390 1.516 . S
C390 C389 1.516 . S
C390 C391 1.502 . S
C390 C392 1.561 . S
C390 C393 1.526 . S
C391 H375 0.959 . S
C391 H376 0.959 . S
C391 H377 0.961 . S
C391 C390 1.502 . S
C392 H378 0.960 . S
C392 H379 0.961 . S
C392 H380 0.959 . S
C392 C390 1.561 . S
C393 C390 1.526 . S
C393 C394 1.396 . S
C393 C398 1.390 . S
C394 C388 1.465 . S
C394 C393 1.396 . S
C394 C395 1.399 . S
C395 H381 0.929 . S
C395 C394 1.399 . S
C395 C396 1.385 . S
C396 H382 0.931 . S
C396 C395 1.385 . S
C396 C397 1.389 . S
C397 C396 1.389 . S
C397 C398 1.387 . S
C398 H383 0.930 . S
C398 C393 1.390 . S
C398 C397 1.387 . S
H399 C411 0.930 . S
H400 C413 0.930 . S
H401 C414 0.930 . S
H402 C418 0.959 . S
H403 C418 0.959 . S
H404 C418 0.961 . S
H405 C419 0.960 . S
H406 C419 0.961 . S
H407 C419 0.959 . S
H408 C422 0.929 . S
H409 C423 0.931 . S
H410 C425 0.930 . S
C411 H399 0.930 . S
C411 C412 1.399 . S
C411 C416 1.399 . S
C412 C411 1.399 . S
C412 C413 1.376 . S
C413 H400 0.930 . S
C413 C412 1.376 . S
C413 C414 1.388 . S
C414 H401 0.930 . S
C414 C413 1.388 . S
C414 C415 1.390 . S
C415 C414 1.390 . S
C415 C416 1.394 . S
C415 C421 1.465 . S
C416 C411 1.399 . S
C416 C415 1.394 . S
C416 C417 1.516 . S
C417 C416 1.516 . S
C417 C418 1.502 . S
C417 C419 1.561 . S
C417 C420 1.526 . S
C418 H402 0.959 . S
C418 H403 0.959 . S
C418 H404 0.961 . S
C418 C417 1.502 . S
C419 H405 0.960 . S
C419 H406 0.961 . S
C419 H407 0.959 . S
C419 C417 1.561 . S
C420 C417 1.526 . S
C420 C421 1.396 . S
C420 C425 1.390 . S
C421 C415 1.465 . S
C421 C420 1.396 . S
C421 C422 1.399 . S
C422 H408 0.929 . S
C422 C421 1.399 . S
C422 C423 1.385 . S
C423 H409 0.931 . S
C423 C422 1.385 . S
C423 C424 1.389 . S
C424 C423 1.389 . S
C424 C425 1.387 . S
C425 H410 0.930 . S
C425 C420 1.390 . S
C425 C424 1.387 . S
H426 C438 0.930 . S
H427 C440 0.930 . S
H428 C441 0.930 . S
H429 C445 0.959 . S
H430 C445 0.959 . S
H431 C445 0.961 . S
H432 C446 0.960 . S
H433 C446 0.961 . S
H434 C446 0.959 . S
H435 C449 0.929 . S
H436 C450 0.931 . S
H437 C452 0.930 . S
C438 H426 0.930 . S
C438 C439 1.399 . S
C438 C443 1.399 . S
C439 C438 1.399 . S
C439 C440 1.376 . S
C440 H427 0.930 . S
C440 C439 1.376 . S
C440 C441 1.388 . S
C441 H428 0.930 . S
C441 C440 1.388 . S
C441 C442 1.390 . S
C442 C441 1.390 . S
C442 C443 1.394 . S
C442 C448 1.465 . S
C443 C438 1.399 . S
C443 C442 1.394 . S
C443 C444 1.516 . S
C444 C443 1.516 . S
C444 C445 1.502 . S
C444 C446 1.561 . S
C444 C447 1.526 . S
C445 H429 0.959 . S
C445 H430 0.959 . S
C445 H431 0.961 . S
C445 C444 1.502 . S
C446 H432 0.960 . S
C446 H433 0.961 . S
C446 H434 0.959 . S
C446 C444 1.561 . S
C447 C444 1.526 . S
C447 C448 1.396 . S
C447 C452 1.390 . S
C448 C442 1.465 . S
C448 C447 1.396 . S
C448 C449 1.399 . S
C449 H435 0.929 . S
C449 C448 1.399 . S
C449 C450 1.385 . S
C450 H436 0.931 . S
C450 C449 1.385 . S
C450 C451 1.389 . S
C451 C450 1.389 . S
C451 C452 1.387 . S
C452 H437 0.930 . S
C452 C447 1.390 . S
C452 C451 1.387 . S
H453 C465 0.930 . S
H454 C467 0.930 . S
H455 C468 0.930 . S
H456 C472 0.959 . S
H457 C472 0.959 . S
H458 C472 0.961 . S
H459 C473 0.960 . S
H460 C473 0.961 . S
H461 C473 0.959 . S
H462 C476 0.929 . S
H463 C477 0.931 . S
H464 C479 0.930 . S
C465 H453 0.930 . S
C465 C466 1.399 . S
C465 C470 1.399 . S
C466 C465 1.399 . S
C466 C467 1.376 . S
C467 H454 0.930 . S
C467 C466 1.376 . S
C467 C468 1.388 . S
C468 H455 0.930 . S
C468 C467 1.388 . S
C468 C469 1.390 . S
C469 C468 1.390 . S
C469 C470 1.394 . S
C469 C475 1.465 . S
C470 C465 1.399 . S
C470 C469 1.394 . S
C470 C471 1.516 . S
C471 C470 1.516 . S
C471 C472 1.502 . S
C471 C473 1.561 . S
C471 C474 1.526 . S
C472 H456 0.959 . S
C472 H457 0.959 . S
C472 H458 0.961 . S
C472 C471 1.502 . S
C473 H459 0.960 . S
C473 H460 0.961 . S
C473 H461 0.959 . S
C473 C471 1.561 . S
C474 C471 1.526 . S
C474 C475 1.396 . S
C474 C479 1.390 . S
C475 C469 1.465 . S
C475 C474 1.396 . S
C475 C476 1.399 . S
C476 H462 0.929 . S
C476 C475 1.399 . S
C476 C477 1.385 . S
C477 H463 0.931 . S
C477 C476 1.385 . S
C477 C478 1.389 . S
C478 C477 1.389 . S
C478 C479 1.387 . S
C479 H464 0.930 . S
C479 C474 1.390 . S
C479 C478 1.387 . S
H480 C492 0.930 . S
H481 C494 0.930 . S
H482 C495 0.930 . S
H483 C499 0.959 . S
H484 C499 0.959 . S
H485 C499 0.961 . S
H486 C500 0.960 . S
H487 C500 0.961 . S
H488 C500 0.959 . S
H489 C503 0.929 . S
H490 C504 0.931 . S
H491 C506 0.930 . S
C492 H480 0.930 . S
C492 C493 1.399 . S
C492 C497 1.399 . S
C493 C492 1.399 . S
C493 C494 1.376 . S
C494 H481 0.930 . S
C494 C493 1.376 . S
C494 C495 1.388 . S
C495 H482 0.930 . S
C495 C494 1.388 . S
C495 C496 1.390 . S
C496 C495 1.390 . S
C496 C497 1.394 . S
C496 C502 1.465 . S
C497 C492 1.399 . S
C497 C496 1.394 . S
C497 C498 1.516 . S
C498 C497 1.516 . S
C498 C499 1.502 . S
C498 C500 1.561 . S
C498 C501 1.526 . S
C499 H483 0.959 . S
C499 H484 0.959 . S
C499 H485 0.961 . S
C499 C498 1.502 . S
C500 H486 0.960 . S
C500 H487 0.961 . S
C500 H488 0.959 . S
C500 C498 1.561 . S
C501 C498 1.526 . S
C501 C502 1.396 . S
C501 C506 1.390 . S
C502 C496 1.465 . S
C502 C501 1.396 . S
C502 C503 1.399 . S
C503 H489 0.929 . S
C503 C502 1.399 . S
C503 C504 1.385 . S
C504 H490 0.931 . S
C504 C503 1.385 . S
C504 C505 1.389 . S
C505 C504 1.389 . S
C505 C506 1.387 . S
C506 H491 0.930 . S
C506 C501 1.390 . S
C506 C505 1.387 . S
H507 C519 0.930 . S
H508 C521 0.930 . S
H509 C522 0.930 . S
H510 C526 0.959 . S
H511 C526 0.959 . S
H512 C526 0.961 . S
H513 C527 0.960 . S
H514 C527 0.961 . S
H515 C527 0.959 . S
H516 C530 0.929 . S
H517 C531 0.931 . S
H518 C533 0.930 . S
C519 H507 0.930 . S
C519 C520 1.399 . S
C519 C524 1.399 . S
C520 C519 1.399 . S
C520 C521 1.376 . S
C521 H508 0.930 . S
C521 C520 1.376 . S
C521 C522 1.388 . S
C522 H509 0.930 . S
C522 C521 1.388 . S
C522 C523 1.390 . S
C523 C522 1.390 . S
C523 C524 1.394 . S
C523 C529 1.465 . S
C524 C519 1.399 . S
C524 C523 1.394 . S
C524 C525 1.516 . S
C525 C524 1.516 . S
C525 C526 1.502 . S
C525 C527 1.561 . S
C525 C528 1.526 . S
C526 H510 0.959 . S
C526 H511 0.959 . S
C526 H512 0.961 . S
C526 C525 1.502 . S
C527 H513 0.960 . S
C527 H514 0.961 . S
C527 H515 0.959 . S
C527 C525 1.561 . S
C528 C525 1.526 . S
C528 C529 1.396 . S
C528 C533 1.390 . S
C529 C523 1.465 . S
C529 C528 1.396 . S
C529 C530 1.399 . S
C530 H516 0.929 . S
C530 C529 1.399 . S
C530 C531 1.385 . S
C531 H517 0.931 . S
C531 C530 1.385 . S
C531 C532 1.389 . S
C532 C531 1.389 . S
C532 C533 1.387 . S
C533 H518 0.930 . S
C533 C528 1.390 . S
C533 C532 1.387 . S
H534 C546 0.930 . S
H535 C548 0.930 . S
H536 C549 0.930 . S
H537 C553 0.959 . S
H538 C553 0.959 . S
H539 C553 0.961 . S
H540 C554 0.960 . S
H541 C554 0.961 . S
H542 C554 0.959 . S
H543 C557 0.929 . S
H544 C558 0.931 . S
H545 C560 0.930 . S
C546 H534 0.930 . S
C546 C547 1.399 1_554 S
C546 C551 1.399 . S
C547 C546 1.399 1_556 S
C547 C548 1.376 . S
C548 H535 0.930 . S
C548 C547 1.376 . S
C548 C549 1.388 . S
C549 H536 0.930 . S
C549 C548 1.388 . S
C549 C550 1.390 . S
C550 C549 1.390 . S
C550 C551 1.394 1_556 S
C550 C556 1.465 . S
C551 C546 1.399 . S
C551 C550 1.394 1_554 S
C551 C552 1.516 . S
C552 C551 1.516 . S
C552 C553 1.502 . S
C552 C554 1.561 . S
C552 C555 1.526 . S
C553 H537 0.959 . S
C553 H538 0.959 . S
C553 H539 0.961 . S
C553 C552 1.502 . S
C554 H540 0.960 . S
C554 H541 0.961 . S
C554 H542 0.959 . S
C554 C552 1.561 . S
C555 C552 1.526 . S
C555 C556 1.396 1_554 S
C555 C560 1.390 . S
C556 C550 1.465 . S
C556 C555 1.396 1_556 S
C556 C557 1.399 . S
C557 H543 0.929 . S
C557 C556 1.399 . S
C557 C558 1.385 . S
C558 H544 0.931 . S
C558 C557 1.385 . S
C558 C559 1.389 . S
C559 C558 1.389 . S
C559 C560 1.387 1_556 S
C560 H545 0.930 . S
C560 C555 1.390 . S
C560 C559 1.387 1_554 S
H561 C573 0.930 . S
H562 C575 0.930 . S
H563 C576 0.930 . S
H564 C580 0.959 . S
H565 C580 0.959 . S
H566 C580 0.961 . S
H567 C581 0.960 . S
H568 C581 0.961 . S
H569 C581 0.959 . S
H570 C584 0.929 . S
H571 C585 0.931 . S
H572 C587 0.930 . S
C573 H561 0.930 . S
C573 C574 1.399 . S
C573 C578 1.399 . S
C574 C573 1.399 . S
C574 C575 1.376 . S
C575 H562 0.930 . S
C575 C574 1.376 . S
C575 C576 1.388 . S
C576 H563 0.930 . S
C576 C575 1.388 . S
C576 C577 1.390 . S
C577 C576 1.390 . S
C577 C578 1.394 . S
C577 C583 1.465 . S
C578 C573 1.399 . S
C578 C577 1.394 . S
C578 C579 1.516 . S
C579 C578 1.516 . S
C579 C580 1.502 . S
C579 C581 1.561 . S
C579 C582 1.526 . S
C580 H564 0.959 . S
C580 H565 0.959 . S
C580 H566 0.961 . S
C580 C579 1.502 . S
C581 H567 0.960 . S
C581 H568 0.961 . S
C581 H569 0.959 . S
C581 C579 1.561 . S
C582 C579 1.526 . S
C582 C583 1.396 . S
C582 C587 1.390 . S
C583 C577 1.465 . S
C583 C582 1.396 . S
C583 C584 1.399 . S
C584 H570 0.929 . S
C584 C583 1.399 . S
C584 C585 1.385 . S
C585 H571 0.931 . S
C585 C584 1.385 . S
C585 C586 1.389 . S
C586 C585 1.389 . S
C586 C587 1.387 . S
C587 H572 0.930 . S
C587 C582 1.390 . S
C587 C586 1.387 . S
H588 C600 0.930 . S
H589 C602 0.930 . S
H590 C603 0.930 . S
H591 C607 0.959 . S
H592 C607 0.959 . S
H593 C607 0.961 . S
H594 C608 0.960 . S
H595 C608 0.961 . S
H596 C608 0.959 . S
H597 C611 0.929 . S
H598 C612 0.931 . S
H599 C614 0.930 . S
C600 H588 0.930 . S
C600 C601 1.399 . S
C600 C605 1.399 . S
C601 C600 1.399 . S
C601 C602 1.376 . S
C602 H589 0.930 . S
C602 C601 1.376 . S
C602 C603 1.388 . S
C603 H590 0.930 . S
C603 C602 1.388 . S
C603 C604 1.390 . S
C604 C603 1.390 . S
C604 C605 1.394 . S
C604 C610 1.465 . S
C605 C600 1.399 . S
C605 C604 1.394 . S
C605 C606 1.516 . S
C606 C605 1.516 . S
C606 C607 1.502 . S
C606 C608 1.561 . S
C606 C609 1.526 . S
C607 H591 0.959 . S
C607 H592 0.959 . S
C607 H593 0.961 . S
C607 C606 1.502 . S
C608 H594 0.960 . S
C608 H595 0.961 . S
C608 H596 0.959 . S
C608 C606 1.561 . S
C609 C606 1.526 . S
C609 C610 1.396 . S
C609 C614 1.390 . S
C610 C604 1.465 . S
C610 C609 1.396 . S
C610 C611 1.399 . S
C611 H597 0.929 . S
C611 C610 1.399 . S
C611 C612 1.385 . S
C612 H598 0.931 . S
C612 C611 1.385 . S
C612 C613 1.389 . S
C613 C612 1.389 . S
C613 C614 1.387 . S
C614 H599 0.930 . S
C614 C609 1.390 . S
C614 C613 1.387 . S
H615 C627 0.930 . S
H616 C629 0.930 . S
H617 C630 0.930 . S
H618 C634 0.959 1_455 S
H619 C634 0.959 . S
H620 C634 0.961 1_455 S
H621 C635 0.960 . S
H622 C635 0.961 . S
H623 C635 0.959 . S
H624 C638 0.929 . S
H625 C639 0.931 . S
H626 C641 0.930 . S
C627 H615 0.930 . S
C627 C628 1.399 . S
C627 C632 1.399 . S
C628 C627 1.399 . S
C628 C629 1.376 . S
C629 H616 0.930 . S
C629 C628 1.376 . S
C629 C630 1.388 . S
C630 H617 0.930 . S
C630 C629 1.388 . S
C630 C631 1.390 . S
C631 C630 1.390 . S
C631 C632 1.394 . S
C631 C637 1.465 1_455 S
C632 C627 1.399 . S
C632 C631 1.394 . S
C632 C633 1.516 1_455 S
C633 C632 1.516 1_655 S
C633 C634 1.502 . S
C633 C635 1.561 . S
C633 C636 1.526 . S
C634 H618 0.959 1_655 S
C634 H619 0.959 . S
C634 H620 0.961 1_655 S
C634 C633 1.502 . S
C635 H621 0.960 . S
C635 H622 0.961 . S
C635 H623 0.959 . S
C635 C633 1.561 . S
C636 C633 1.526 . S
C636 C637 1.396 . S
C636 C641 1.390 . S
C637 C631 1.465 1_655 S
C637 C636 1.396 . S
C637 C638 1.399 . S
C638 H624 0.929 . S
C638 C637 1.399 . S
C638 C639 1.385 . S
C639 H625 0.931 . S
C639 C638 1.385 . S
C639 C640 1.389 . S
C640 C639 1.389 . S
C640 C641 1.387 . S
C641 H626 0.930 . S
C641 C636 1.390 . S
C641 C640 1.387 . S
H642 C654 0.930 . S
H643 C656 0.930 . S
H644 C657 0.930 . S
H645 C661 0.959 . S
H646 C661 0.959 . S
H647 C661 0.961 . S
H648 C662 0.960 . S
H649 C662 0.961 . S
H650 C662 0.959 . S
H651 C665 0.929 . S
H652 C666 0.931 . S
H653 C668 0.930 . S
C654 H642 0.930 . S
C654 C655 1.399 . S
C654 C659 1.399 . S
C655 C654 1.399 . S
C655 C656 1.376 . S
C656 H643 0.930 . S
C656 C655 1.376 . S
C656 C657 1.388 . S
C657 H644 0.930 . S
C657 C656 1.388 . S
C657 C658 1.390 . S
C658 C657 1.390 . S
C658 C659 1.394 . S
C658 C664 1.465 . S
C659 C654 1.399 . S
C659 C658 1.394 . S
C659 C660 1.516 . S
C660 C659 1.516 . S
C660 C661 1.502 . S
C660 C662 1.561 . S
C660 C663 1.526 . S
C661 H645 0.959 . S
C661 H646 0.959 . S
C661 H647 0.961 . S
C661 C660 1.502 . S
C662 H648 0.960 . S
C662 H649 0.961 . S
C662 H650 0.959 . S
C662 C660 1.561 . S
C663 C660 1.526 . S
C663 C664 1.396 . S
C663 C668 1.390 . S
C664 C658 1.465 . S
C664 C663 1.396 . S
C664 C665 1.399 . S
C665 H651 0.929 . S
C665 C664 1.399 . S
C665 C666 1.385 . S
C666 H652 0.931 . S
C666 C665 1.385 . S
C666 C667 1.389 . S
C667 C666 1.389 . S
C667 C668 1.387 . S
C668 H653 0.930 . S
C668 C663 1.390 . S
C668 C667 1.387 . S
H669 C681 0.930 . S
H670 C683 0.930 . S
H671 C684 0.930 . S
H672 C688 0.959 . S
H673 C688 0.959 . S
H674 C688 0.961 . S
H675 C689 0.960 . S
H676 C689 0.961 . S
H677 C689 0.959 . S
H678 C692 0.929 . S
H679 C693 0.931 . S
H680 C695 0.930 . S
C681 H669 0.930 . S
C681 C682 1.399 1_565 S
C681 C686 1.399 . S
C682 C681 1.399 1_545 S
C682 C683 1.376 . S
C683 H670 0.930 . S
C683 C682 1.376 . S
C683 C684 1.388 . S
C684 H671 0.930 . S
C684 C683 1.388 . S
C684 C685 1.390 1_545 S
C685 C684 1.390 1_565 S
C685 C686 1.394 . S
C685 C691 1.465 . S
C686 C681 1.399 . S
C686 C685 1.394 . S
C686 C687 1.516 . S
C687 C686 1.516 . S
C687 C688 1.502 . S
C687 C689 1.561 . S
C687 C690 1.526 . S
C688 H672 0.959 . S
C688 H673 0.959 . S
C688 H674 0.961 . S
C688 C687 1.502 . S
C689 H675 0.960 . S
C689 H676 0.961 . S
C689 H677 0.959 . S
C689 C687 1.561 . S
C690 C687 1.526 . S
C690 C691 1.396 . S
C690 C695 1.390 . S
C691 C685 1.465 . S
C691 C690 1.396 . S
C691 C692 1.399 . S
C692 H678 0.929 . S
C692 C691 1.399 . S
C692 C693 1.385 . S
C693 H679 0.931 . S
C693 C692 1.385 . S
C693 C694 1.389 . S
C694 C693 1.389 . S
C694 C695 1.387 . S
C695 H680 0.930 . S
C695 C690 1.390 . S
C695 C694 1.387 . S
H696 C708 0.930 . S
H697 C710 0.930 . S
H698 C711 0.930 . S
H699 C715 0.959 . S
H700 C715 0.959 . S
H701 C715 0.961 . S
H702 C716 0.960 . S
H703 C716 0.961 . S
H704 C716 0.959 . S
H705 C719 0.929 . S
H706 C720 0.931 . S
H707 C722 0.930 . S
C708 H696 0.930 . S
C708 C709 1.399 . S
C708 C713 1.399 . S
C709 C708 1.399 . S
C709 C710 1.376 . S
C710 H697 0.930 . S
C710 C709 1.376 . S
C710 C711 1.388 . S
C711 H698 0.930 . S
C711 C710 1.388 . S
C711 C712 1.390 . S
C712 C711 1.390 . S
C712 C713 1.394 . S
C712 C718 1.465 . S
C713 C708 1.399 . S
C713 C712 1.394 . S
C713 C714 1.516 . S
C714 C713 1.516 . S
C714 C715 1.502 . S
C714 C716 1.561 . S
C714 C717 1.526 . S
C715 H699 0.959 . S
C715 H700 0.959 . S
C715 H701 0.961 . S
C715 C714 1.502 . S
C716 H702 0.960 . S
C716 H703 0.961 . S
C716 H704 0.959 . S
C716 C714 1.561 . S
C717 C714 1.526 . S
C717 C718 1.396 . S
C717 C722 1.390 . S
C718 C712 1.465 . S
C718 C717 1.396 . S
C718 C719 1.399 . S
C719 H705 0.929 . S
C719 C718 1.399 . S
C719 C720 1.385 . S
C720 H706 0.931 . S
C720 C719 1.385 . S
C720 C721 1.389 . S
C721 C720 1.389 . S
C721 C722 1.387 . S
C722 H707 0.930 . S
C722 C717 1.390 . S
C722 C721 1.387 . S
H723 C735 0.930 . S
H724 C737 0.930 . S
H725 C738 0.930 . S
H726 C742 0.959 . S
H727 C742 0.959 . S
H728 C742 0.961 . S
H729 C743 0.960 . S
H730 C743 0.961 . S
H731 C743 0.959 . S
H732 C746 0.929 . S
H733 C747 0.931 . S
H734 C749 0.930 . S
C735 H723 0.930 . S
C735 C736 1.399 . S
C735 C740 1.399 . S
C736 C735 1.399 . S
C736 C737 1.376 . S
C737 H724 0.930 . S
C737 C736 1.376 . S
C737 C738 1.388 . S
C738 H725 0.930 . S
C738 C737 1.388 . S
C738 C739 1.390 . S
C739 C738 1.390 . S
C739 C740 1.394 . S
C739 C745 1.465 . S
C740 C735 1.399 . S
C740 C739 1.394 . S
C740 C741 1.516 . S
C741 C740 1.516 . S
C741 C742 1.502 . S
C741 C743 1.561 . S
C741 C744 1.526 . S
C742 H726 0.959 . S
C742 H727 0.959 . S
C742 H728 0.961 . S
C742 C741 1.502 . S
C743 H729 0.960 . S
C743 H730 0.961 . S
C743 H731 0.959 . S
C743 C741 1.561 . S
C744 C741 1.526 . S
C744 C745 1.396 . S
C744 C749 1.390 . S
C745 C739 1.465 . S
C745 C744 1.396 . S
C745 C746 1.399 . S
C746 H732 0.929 . S
C746 C745 1.399 . S
C746 C747 1.385 . S
C747 H733 0.931 . S
C747 C746 1.385 . S
C747 C748 1.389 . S
C748 C747 1.389 . S
C748 C749 1.387 . S
C749 H734 0.930 . S
C749 C744 1.390 . S
C749 C748 1.387 . S
H750 C762 0.930 . S
H751 C764 0.930 . S
H752 C765 0.930 . S
H753 C769 0.959 . S
H754 C769 0.959 . S
H755 C769 0.961 . S
H756 C770 0.960 . S
H757 C770 0.961 . S
H758 C770 0.959 . S
H759 C773 0.929 . S
H760 C774 0.931 . S
H761 C776 0.930 . S
C762 H750 0.930 . S
C762 C763 1.399 . S
C762 C767 1.399 . S
C763 C762 1.399 . S
C763 C764 1.376 . S
C764 H751 0.930 . S
C764 C763 1.376 . S
C764 C765 1.388 . S
C765 H752 0.930 . S
C765 C764 1.388 . S
C765 C766 1.390 . S
C766 C765 1.390 . S
C766 C767 1.394 . S
C766 C772 1.465 . S
C767 C762 1.399 . S
C767 C766 1.394 . S
C767 C768 1.516 . S
C768 C767 1.516 . S
C768 C769 1.502 . S
C768 C770 1.561 . S
C768 C771 1.526 . S
C769 H753 0.959 . S
C769 H754 0.959 . S
C769 H755 0.961 . S
C769 C768 1.502 . S
C770 H756 0.960 . S
C770 H757 0.961 . S
C770 H758 0.959 . S
C770 C768 1.561 . S
C771 C768 1.526 . S
C771 C772 1.396 . S
C771 C776 1.390 . S
C772 C766 1.465 . S
C772 C771 1.396 . S
C772 C773 1.399 . S
C773 H759 0.929 . S
C773 C772 1.399 . S
C773 C774 1.385 . S
C774 H760 0.931 . S
C774 C773 1.385 . S
C774 C775 1.389 . S
C775 C774 1.389 . S
C775 C776 1.387 . S
C776 H761 0.930 . S
C776 C771 1.390 . S
C776 C775 1.387 . S
H777 C789 0.930 . S
H778 C791 0.910 1_655 S
H779 C792 0.930 . S
H780 C796 0.959 . S
H781 C796 0.959 . S
H782 C796 0.961 . S
H783 C797 0.960 1_545 S
H784 C797 0.961 . S
H785 C797 0.959 . S
H786 C800 0.929 . S
H787 C801 0.931 . S
H788 C803 0.930 . S
C789 H777 0.930 . S
C789 C790 1.399 . S
C789 C794 1.399 1_545 S
C790 C789 1.399 . S
C790 C791 1.381 1_545 S
C791 H778 0.910 1_455 S
C791 C790 1.381 1_565 S
C791 C792 1.404 . S
C792 H779 0.930 . S
C792 C791 1.404 . S
C792 C793 1.390 . S
C793 C792 1.390 . S
C793 C794 1.394 . S
C793 C799 1.465 . S
C794 C789 1.399 1_565 S
C794 C793 1.394 . S
C794 C795 1.516 . S
C795 C794 1.516 . S
C795 C796 1.502 1_565 S
C795 C797 1.561 . S
C795 C798 1.526 . S
C796 H780 0.959 . S
C796 H781 0.959 . S
C796 H782 0.961 . S
C796 C795 1.502 1_545 S
C797 H783 0.960 1_565 S
C797 H784 0.961 . S
C797 H785 0.959 . S
C797 C795 1.561 . S
C798 C795 1.526 . S
C798 C799 1.396 . S
C798 C803 1.390 . S
C799 C793 1.465 . S
C799 C798 1.396 . S
C799 C800 1.399 . S
C800 H786 0.929 . S
C800 C799 1.399 . S
C800 C801 1.385 . S
C801 H787 0.931 . S
C801 C800 1.385 . S
C801 C802 1.389 . S
C802 C801 1.389 . S
C802 C803 1.387 . S
C803 H788 0.930 . S
C803 C798 1.390 . S
C803 C802 1.387 . S
H804 C816 0.930 . S
H805 C818 0.930 . S
H806 C819 0.930 . S
H807 C823 0.959 . S
H808 C823 0.959 . S
H809 C823 0.961 . S
H810 C824 0.960 . S
H811 C824 0.961 . S
H812 C824 0.959 . S
H813 C827 0.929 . S
H814 C828 0.931 . S
H815 C830 0.930 . S
C816 H804 0.930 . S
C816 C817 1.399 . S
C816 C821 1.399 . S
C817 C816 1.399 . S
C817 C818 1.376 . S
C818 H805 0.930 . S
C818 C817 1.376 . S
C818 C819 1.388 . S
C819 H806 0.930 . S
C819 C818 1.388 . S
C819 C820 1.390 . S
C820 C819 1.390 . S
C820 C821 1.394 . S
C820 C826 1.465 . S
C821 C816 1.399 . S
C821 C820 1.394 . S
C821 C822 1.516 . S
C822 C821 1.516 . S
C822 C823 1.502 . S
C822 C824 1.561 . S
C822 C825 1.526 . S
C823 H807 0.959 . S
C823 H808 0.959 . S
C823 H809 0.961 . S
C823 C822 1.502 . S
C824 H810 0.960 . S
C824 H811 0.961 . S
C824 H812 0.959 . S
C824 C822 1.561 . S
C825 C822 1.526 . S
C825 C826 1.396 . S
C825 C830 1.390 . S
C826 C820 1.465 . S
C826 C825 1.396 . S
C826 C827 1.399 . S
C827 H813 0.929 . S
C827 C826 1.399 . S
C827 C828 1.385 . S
C828 H814 0.931 . S
C828 C827 1.385 . S
C828 C829 1.389 . S
C829 C828 1.389 . S
C829 C830 1.387 . S
C830 H815 0.930 . S
C830 C825 1.390 . S
C830 C829 1.387 . S
H831 C843 0.930 . S
H832 C845 0.930 . S
H833 C846 0.930 . S
H834 C850 0.959 . S
H835 C850 0.959 . S
H836 C850 0.961 . S
H837 C851 0.960 . S
H838 C851 0.961 . S
H839 C851 0.959 . S
H840 C854 0.929 . S
H841 C855 0.931 . S
H842 C857 0.930 . S
C843 H831 0.930 . S
C843 C844 1.399 . S
C843 C848 1.399 . S
C844 C843 1.399 . S
C844 C845 1.376 . S
C845 H832 0.930 . S
C845 C844 1.376 . S
C845 C846 1.388 . S
C846 H833 0.930 . S
C846 C845 1.388 . S
C846 C847 1.390 . S
C847 C846 1.390 . S
C847 C848 1.394 . S
C847 C853 1.465 . S
C848 C843 1.399 . S
C848 C847 1.394 . S
C848 C849 1.516 . S
C849 C848 1.516 . S
C849 C850 1.502 . S
C849 C851 1.561 . S
C849 C852 1.526 . S
C850 H834 0.959 . S
C850 H835 0.959 . S
C850 H836 0.961 . S
C850 C849 1.502 . S
C851 H837 0.960 . S
C851 H838 0.961 . S
C851 H839 0.959 . S
C851 C849 1.561 . S
C852 C849 1.526 . S
C852 C853 1.396 . S
C852 C857 1.390 . S
C853 C847 1.465 . S
C853 C852 1.396 . S
C853 C854 1.399 . S
C854 H840 0.929 . S
C854 C853 1.399 . S
C854 C855 1.385 . S
C855 H841 0.931 . S
C855 C854 1.385 . S
C855 C856 1.389 . S
C856 C855 1.389 . S
C856 C857 1.387 . S
C857 H842 0.930 . S
C857 C852 1.390 . S
C857 C856 1.387 . S
H858 C870 0.930 . S
H859 C872 0.930 . S
H860 C873 0.930 . S
H861 C877 0.959 . S
H862 C877 0.959 . S
H863 C877 0.961 . S
H864 C878 0.960 . S
H865 C878 0.961 . S
H866 C878 0.959 . S
H867 C881 0.929 . S
H868 C882 0.931 . S
H869 C884 0.930 . S
C870 H858 0.930 . S
C870 C871 1.399 . S
C870 C875 1.399 . S
C871 C870 1.399 . S
C871 C872 1.376 . S
C872 H859 0.930 . S
C872 C871 1.376 . S
C872 C873 1.388 . S
C873 H860 0.930 . S
C873 C872 1.388 . S
C873 C874 1.390 . S
C874 C873 1.390 . S
C874 C875 1.394 . S
C874 C880 1.465 . S
C875 C870 1.399 . S
C875 C874 1.394 . S
C875 C876 1.516 . S
C876 C875 1.516 . S
C876 C877 1.502 . S
C876 C878 1.561 . S
C876 C879 1.526 . S
C877 H861 0.959 . S
C877 H862 0.959 . S
C877 H863 0.961 . S
C877 C876 1.502 . S
C878 H864 0.960 . S
C878 H865 0.961 . S
C878 H866 0.959 . S
C878 C876 1.561 . S
C879 C876 1.526 . S
C879 C880 1.396 . S
C879 C884 1.390 . S
C880 C874 1.465 . S
C880 C879 1.396 . S
C880 C881 1.399 . S
C881 H867 0.929 . S
C881 C880 1.399 . S
C881 C882 1.385 . S
C882 H868 0.931 . S
C882 C881 1.385 . S
C882 C883 1.389 . S
C883 C882 1.389 . S
C883 C884 1.387 . S
C884 H869 0.930 . S
C884 C879 1.390 . S
C884 C883 1.387 . S
H885 C897 0.930 . S
H886 C899 0.930 . S
H887 C900 0.930 . S
H888 C904 0.959 . S
H889 C904 0.959 . S
H890 C904 0.961 . S
H891 C905 0.960 . S
H892 C905 0.961 . S
H893 C905 0.959 . S
H894 C908 0.929 . S
H895 C909 0.931 . S
H896 C911 0.930 . S
C897 H885 0.930 . S
C897 C898 1.399 . S
C897 C902 1.399 . S
C898 C897 1.399 . S
C898 C899 1.376 . S
C899 H886 0.930 . S
C899 C898 1.376 . S
C899 C900 1.388 . S
C900 H887 0.930 . S
C900 C899 1.388 . S
C900 C901 1.390 . S
C901 C900 1.390 . S
C901 C902 1.394 . S
C901 C907 1.465 . S
C902 C897 1.399 . S
C902 C901 1.394 . S
C902 C903 1.516 . S
C903 C902 1.516 . S
C903 C904 1.502 . S
C903 C905 1.561 . S
C903 C906 1.526 . S
C904 H888 0.959 . S
C904 H889 0.959 . S
C904 H890 0.961 . S
C904 C903 1.502 . S
C905 H891 0.960 . S
C905 H892 0.961 . S
C905 H893 0.959 . S
C905 C903 1.561 . S
C906 C903 1.526 . S
C906 C907 1.396 . S
C906 C911 1.390 . S
C907 C901 1.465 . S
C907 C906 1.396 . S
C907 C908 1.399 . S
C908 H894 0.929 . S
C908 C907 1.399 . S
C908 C909 1.385 . S
C909 H895 0.931 . S
C909 C908 1.385 . S
C909 C910 1.389 . S
C910 C909 1.389 . S
C910 C911 1.387 . S
C911 H896 0.930 . S
C911 C906 1.390 . S
C911 C910 1.387 . S
H912 C924 0.930 . S
H913 C926 0.930 . S
H914 C927 0.930 . S
H915 C931 0.959 . S
H916 C931 0.959 . S
H917 C931 0.961 . S
H918 C932 0.960 . S
H919 C932 0.961 . S
H920 C932 0.959 . S
H921 C935 0.929 . S
H922 C936 0.931 . S
H923 C938 0.930 . S
C924 H912 0.930 . S
C924 C925 1.399 . S
C924 C929 1.399 . S
C925 C924 1.399 . S
C925 C926 1.376 . S
C926 H913 0.930 . S
C926 C925 1.376 . S
C926 C927 1.388 . S
C927 H914 0.930 . S
C927 C926 1.388 . S
C927 C928 1.390 . S
C928 C927 1.390 . S
C928 C929 1.394 . S
C928 C934 1.465 . S
C929 C924 1.399 . S
C929 C928 1.394 . S
C929 C930 1.516 . S
C930 C929 1.516 . S
C930 C931 1.502 . S
C930 C932 1.561 . S
C930 C933 1.526 . S
C931 H915 0.959 . S
C931 H916 0.959 . S
C931 H917 0.961 . S
C931 C930 1.502 . S
C932 H918 0.960 . S
C932 H919 0.961 . S
C932 H920 0.959 . S
C932 C930 1.561 . S
C933 C930 1.526 . S
C933 C934 1.396 . S
C933 C938 1.390 . S
C934 C928 1.465 . S
C934 C933 1.396 . S
C934 C935 1.399 . S
C935 H921 0.929 . S
C935 C934 1.399 . S
C935 C936 1.385 . S
C936 H922 0.931 . S
C936 C935 1.385 . S
C936 C937 1.389 . S
C937 C936 1.389 . S
C937 C938 1.387 . S
C938 H923 0.930 . S
C938 C933 1.390 . S
C938 C937 1.387 . S
H939 C951 0.930 . S
H940 C953 0.930 . S
H941 C954 0.930 . S
H942 C958 0.959 . S
H943 C958 0.959 . S
H944 C958 0.961 . S
H945 C959 0.960 . S
H946 C959 0.961 . S
H947 C959 0.959 . S
H948 C962 0.929 . S
H949 C963 0.931 . S
H950 C965 0.930 . S
C951 H939 0.930 . S
C951 C952 1.399 . S
C951 C956 1.399 . S
C952 C951 1.399 . S
C952 C953 1.376 . S
C953 H940 0.930 . S
C953 C952 1.376 . S
C953 C954 1.388 . S
C954 H941 0.930 . S
C954 C953 1.388 . S
C954 C955 1.390 . S
C955 C954 1.390 . S
C955 C956 1.394 . S
C955 C961 1.465 . S
C956 C951 1.399 . S
C956 C955 1.394 . S
C956 C957 1.516 . S
C957 C956 1.516 . S
C957 C958 1.502 . S
C957 C959 1.561 . S
C957 C960 1.526 . S
C958 H942 0.959 . S
C958 H943 0.959 . S
C958 H944 0.961 . S
C958 C957 1.502 . S
C959 H945 0.960 . S
C959 H946 0.961 . S
C959 H947 0.959 . S
C959 C957 1.561 . S
C960 C957 1.526 . S
C960 C961 1.396 . S
C960 C965 1.390 . S
C961 C955 1.465 . S
C961 C960 1.396 . S
C961 C962 1.399 . S
C962 H948 0.929 . S
C962 C961 1.399 . S
C962 C963 1.385 . S
C963 H949 0.931 . S
C963 C962 1.385 . S
C963 C964 1.389 . S
C964 C963 1.389 . S
C964 C965 1.387 . S
C965 H950 0.930 . S
C965 C960 1.390 . S
C965 C964 1.387 . S
H966 C978 0.930 . S
H967 C980 0.930 . S
H968 C981 0.930 . S
H969 C985 0.959 . S
H970 C985 0.959 . S
H971 C985 0.961 . S
H972 C986 0.960 . S
H973 C986 0.961 . S
H974 C986 0.959 . S
H975 C989 0.929 . S
H976 C990 0.931 . S
H977 C992 0.930 . S
C978 H966 0.930 . S
C978 C979 1.399 . S
C978 C983 1.399 . S
C979 C978 1.399 . S
C979 C980 1.376 . S
C980 H967 0.930 . S
C980 C979 1.376 . S
C980 C981 1.388 . S
C981 H968 0.930 . S
C981 C980 1.388 . S
C981 C982 1.390 . S
C982 C981 1.390 . S
C982 C983 1.394 . S
C982 C988 1.465 . S
C983 C978 1.399 . S
C983 C982 1.394 . S
C983 C984 1.516 . S
C984 C983 1.516 . S
C984 C985 1.502 . S
C984 C986 1.561 . S
C984 C987 1.526 . S
C985 H969 0.959 . S
C985 H970 0.959 . S
C985 H971 0.961 . S
C985 C984 1.502 . S
C986 H972 0.960 . S
C986 H973 0.961 . S
C986 H974 0.959 . S
C986 C984 1.561 . S
C987 C984 1.526 . S
C987 C988 1.396 . S
C987 C992 1.390 . S
C988 C982 1.465 . S
C988 C987 1.396 . S
C988 C989 1.399 . S
C989 H975 0.929 . S
C989 C988 1.399 . S
C989 C990 1.385 . S
C990 H976 0.931 . S
C990 C989 1.385 . S
C990 C991 1.389 . S
C991 C990 1.389 . S
C991 C992 1.387 . S
C992 H977 0.930 . S
C992 C987 1.390 . S
C992 C991 1.387 . S
H993 C1005 0.930 . S
H994 C1007 0.930 . S
H995 C1008 0.930 . S
H996 C1012 0.959 . S
H997 C1012 0.959 . S
H998 C1012 0.961 . S
H999 C1013 0.960 . S
H1000 C1013 0.961 . S
H1001 C1013 0.959 . S
H1002 C1016 0.929 . S
H1003 C1017 0.931 . S
H1004 C1019 0.930 . S
C1005 H993 0.930 . S
C1005 C1006 1.399 . S
C1005 C1010 1.399 . S
C1006 C1005 1.399 . S
C1006 C1007 1.376 . S
C1007 H994 0.930 . S
C1007 C1006 1.376 . S
C1007 C1008 1.388 . S
C1008 H995 0.930 . S
C1008 C1007 1.388 . S
C1008 C1009 1.390 . S
C1009 C1008 1.390 . S
C1009 C1010 1.394 . S
C1009 C1015 1.465 . S
C1010 C1005 1.399 . S
C1010 C1009 1.394 . S
C1010 C1011 1.516 . S
C1011 C1010 1.516 . S
C1011 C1012 1.502 . S
C1011 C1013 1.561 . S
C1011 C1014 1.526 . S
C1012 H996 0.959 . S
C1012 H997 0.959 . S
C1012 H998 0.961 . S
C1012 C1011 1.502 . S
C1013 H999 0.960 . S
C1013 H1000 0.961 . S
C1013 H1001 0.959 . S
C1013 C1011 1.561 . S
C1014 C1011 1.526 . S
C1014 C1015 1.396 . S
C1014 C1019 1.390 . S
C1015 C1009 1.465 . S
C1015 C1014 1.396 . S
C1015 C1016 1.399 . S
C1016 H1002 0.929 . S
C1016 C1015 1.399 . S
C1016 C1017 1.385 . S
C1017 H1003 0.931 . S
C1017 C1016 1.385 . S
C1017 C1018 1.389 . S
C1018 C1017 1.389 . S
C1018 C1019 1.387 . S
C1019 H1004 0.930 . S
C1019 C1014 1.390 . S
C1019 C1018 1.387 . S
H1020 C1032 0.930 . S
H1021 C1034 0.930 . S
H1022 C1035 0.930 . S
H1023 C1039 0.959 . S
H1024 C1039 0.959 . S
H1025 C1039 0.961 . S
H1026 C1040 0.960 . S
H1027 C1040 0.961 . S
H1028 C1040 0.959 . S
H1029 C1043 0.929 . S
H1030 C1044 0.931 . S
H1031 C1046 0.930 . S
C1032 H1020 0.930 . S
C1032 C1033 1.399 . S
C1032 C1037 1.399 . S
C1033 C1032 1.399 . S
C1033 C1034 1.376 . S
C1034 H1021 0.930 . S
C1034 C1033 1.376 . S
C1034 C1035 1.388 . S
C1035 H1022 0.930 . S
C1035 C1034 1.388 . S
C1035 C1036 1.390 . S
C1036 C1035 1.390 . S
C1036 C1037 1.394 . S
C1036 C1042 1.465 . S
C1037 C1032 1.399 . S
C1037 C1036 1.394 . S
C1037 C1038 1.516 . S
C1038 C1037 1.516 . S
C1038 C1039 1.502 . S
C1038 C1040 1.561 . S
C1038 C1041 1.526 . S
C1039 H1023 0.959 . S
C1039 H1024 0.959 . S
C1039 H1025 0.961 . S
C1039 C1038 1.502 . S
C1040 H1026 0.960 . S
C1040 H1027 0.961 . S
C1040 H1028 0.959 . S
C1040 C1038 1.561 . S
C1041 C1038 1.526 . S
C1041 C1042 1.396 . S
C1041 C1046 1.390 . S
C1042 C1036 1.465 . S
C1042 C1041 1.396 . S
C1042 C1043 1.399 . S
C1043 H1029 0.929 . S
C1043 C1042 1.399 . S
C1043 C1044 1.385 . S
C1044 H1030 0.931 . S
C1044 C1043 1.385 . S
C1044 C1045 1.389 . S
C1045 C1044 1.389 . S
C1045 C1046 1.387 . S
C1046 H1031 0.930 . S
C1046 C1041 1.390 . S
C1046 C1045 1.387 . S
H1047 C1059 0.930 . S
H1048 C1061 0.930 . S
H1049 C1062 0.930 . S
H1050 C1066 0.959 . S
H1051 C1066 0.959 . S
H1052 C1066 0.961 . S
H1053 C1067 0.960 . S
H1054 C1067 0.961 . S
H1055 C1067 0.959 . S
H1056 C1070 0.929 . S
H1057 C1071 0.931 . S
H1058 C1073 0.930 . S
C1059 H1047 0.930 . S
C1059 C1060 1.399 . S
C1059 C1064 1.399 . S
C1060 C1059 1.399 . S
C1060 C1061 1.376 . S
C1061 H1048 0.930 . S
C1061 C1060 1.376 . S
C1061 C1062 1.388 . S
C1062 H1049 0.930 . S
C1062 C1061 1.388 . S
C1062 C1063 1.390 . S
C1063 C1062 1.390 . S
C1063 C1064 1.394 . S
C1063 C1069 1.465 . S
C1064 C1059 1.399 . S
C1064 C1063 1.394 . S
C1064 C1065 1.516 . S
C1065 C1064 1.516 . S
C1065 C1066 1.502 . S
C1065 C1067 1.561 . S
C1065 C1068 1.526 . S
C1066 H1050 0.959 . S
C1066 H1051 0.959 . S
C1066 H1052 0.961 . S
C1066 C1065 1.502 . S
C1067 H1053 0.960 . S
C1067 H1054 0.961 . S
C1067 H1055 0.959 . S
C1067 C1065 1.561 . S
C1068 C1065 1.526 . S
C1068 C1069 1.396 . S
C1068 C1073 1.390 . S
C1069 C1063 1.465 . S
C1069 C1068 1.396 . S
C1069 C1070 1.399 . S
C1070 H1056 0.929 . S
C1070 C1069 1.399 . S
C1070 C1071 1.385 . S
C1071 H1057 0.931 . S
C1071 C1070 1.385 . S
C1071 C1072 1.389 . S
C1072 C1071 1.389 . S
C1072 C1073 1.387 . S
C1073 H1058 0.930 . S
C1073 C1068 1.390 . S
C1073 C1072 1.387 . S
H1074 C1086 0.930 . S
H1075 C1088 0.930 . S
H1076 C1089 0.930 . S
H1077 C1093 0.959 . S
H1078 C1093 0.959 . S
H1079 C1093 0.961 . S
H1080 C1094 0.960 . S
H1081 C1094 0.961 . S
H1082 C1094 0.959 . S
H1083 C1097 0.929 . S
H1084 C1098 0.931 . S
H1085 C1100 0.930 . S
C1086 H1074 0.930 . S
C1086 C1087 1.399 . S
C1086 C1091 1.399 . S
C1087 C1086 1.399 . S
C1087 C1088 1.376 . S
C1088 H1075 0.930 . S
C1088 C1087 1.376 . S
C1088 C1089 1.388 . S
C1089 H1076 0.930 . S
C1089 C1088 1.388 . S
C1089 C1090 1.390 . S
C1090 C1089 1.390 . S
C1090 C1091 1.394 . S
C1090 C1096 1.465 . S
C1091 C1086 1.399 . S
C1091 C1090 1.394 . S
C1091 C1092 1.516 . S
C1092 C1091 1.516 . S
C1092 C1093 1.502 . S
C1092 C1094 1.561 . S
C1092 C1095 1.526 . S
C1093 H1077 0.959 . S
C1093 H1078 0.959 . S
C1093 H1079 0.961 . S
C1093 C1092 1.502 . S
C1094 H1080 0.960 . S
C1094 H1081 0.961 . S
C1094 H1082 0.959 . S
C1094 C1092 1.561 . S
C1095 C1092 1.526 . S
C1095 C1096 1.396 . S
C1095 C1100 1.390 1_554 S
C1096 C1090 1.465 . S
C1096 C1095 1.396 . S
C1096 C1097 1.399 . S
C1097 H1083 0.929 . S
C1097 C1096 1.399 . S
C1097 C1098 1.385 1_554 S
C1098 H1084 0.931 . S
C1098 C1097 1.385 1_556 S
C1098 C1099 1.389 . S
C1099 C1098 1.389 . S
C1099 C1100 1.387 . S
C1100 H1085 0.930 . S
C1100 C1095 1.390 1_556 S
C1100 C1099 1.387 . S
H1101 C1113 0.930 . S
H1102 C1115 0.930 . S
H1103 C1116 0.930 . S
H1104 C1120 0.959 . S
H1105 C1120 0.959 . S
H1106 C1120 0.961 . S
H1107 C1121 0.960 . S
H1108 C1121 0.961 . S
H1109 C1121 0.959 . S
H1110 C1124 0.929 . S
H1111 C1125 0.931 . S
H1112 C1127 0.930 . S
C1113 H1101 0.930 . S
C1113 C1114 1.399 . S
C1113 C1118 1.399 . S
C1114 C1113 1.399 . S
C1114 C1115 1.376 . S
C1115 H1102 0.930 . S
C1115 C1114 1.376 . S
C1115 C1116 1.388 . S
C1116 H1103 0.930 . S
C1116 C1115 1.388 . S
C1116 C1117 1.390 . S
C1117 C1116 1.390 . S
C1117 C1118 1.394 . S
C1117 C1123 1.465 . S
C1118 C1113 1.399 . S
C1118 C1117 1.394 . S
C1118 C1119 1.516 . S
C1119 C1118 1.516 . S
C1119 C1120 1.502 . S
C1119 C1121 1.561 . S
C1119 C1122 1.526 . S
C1120 H1104 0.959 . S
C1120 H1105 0.959 . S
C1120 H1106 0.961 . S
C1120 C1119 1.502 . S
C1121 H1107 0.960 . S
C1121 H1108 0.961 . S
C1121 H1109 0.959 . S
C1121 C1119 1.561 . S
C1122 C1119 1.526 . S
C1122 C1123 1.396 . S
C1122 C1127 1.390 . S
C1123 C1117 1.465 . S
C1123 C1122 1.396 . S
C1123 C1124 1.399 . S
C1124 H1110 0.929 . S
C1124 C1123 1.399 . S
C1124 C1125 1.385 . S
C1125 H1111 0.931 . S
C1125 C1124 1.385 . S
C1125 C1126 1.389 . S
C1126 C1125 1.389 . S
C1126 C1127 1.387 . S
C1127 H1112 0.930 . S
C1127 C1122 1.390 . S
C1127 C1126 1.387 . S
H1128 C1140 0.930 . S
H1129 C1142 0.930 . S
H1130 C1143 0.930 . S
H1131 C1147 0.959 1_565 S
H1132 C1147 0.959 . S
H1133 C1147 0.961 . S
H1134 C1148 0.960 . S
H1135 C1148 0.961 . S
H1136 C1148 0.959 . S
H1137 C1151 0.929 . S
H1138 C1152 0.931 . S
H1139 C1154 0.930 . S
C1140 H1128 0.930 . S
C1140 C1141 1.399 . S
C1140 C1145 1.399 . S
C1141 C1140 1.399 . S
C1141 C1142 1.376 . S
C1142 H1129 0.930 . S
C1142 C1141 1.376 . S
C1142 C1143 1.388 1_545 S
C1143 H1130 0.930 . S
C1143 C1142 1.388 1_565 S
C1143 C1144 1.390 . S
C1144 C1143 1.390 . S
C1144 C1145 1.394 1_565 S
C1144 C1150 1.465 . S
C1145 C1140 1.399 . S
C1145 C1144 1.394 1_545 S
C1145 C1146 1.516 . S
C1146 C1145 1.516 . S
C1146 C1147 1.502 . S
C1146 C1148 1.561 . S
C1146 C1149 1.526 1_545 S
C1147 H1131 0.959 1_545 S
C1147 H1132 0.959 . S
C1147 H1133 0.961 . S
C1147 C1146 1.502 . S
C1148 H1134 0.960 . S
C1148 H1135 0.961 . S
C1148 H1136 0.959 . S
C1148 C1146 1.561 . S
C1149 C1146 1.526 1_565 S
C1149 C1150 1.396 . S
C1149 C1154 1.390 . S
C1150 C1144 1.465 . S
C1150 C1149 1.396 . S
C1150 C1151 1.399 . S
C1151 H1137 0.929 . S
C1151 C1150 1.399 . S
C1151 C1152 1.385 . S
C1152 H1138 0.931 . S
C1152 C1151 1.385 . S
C1152 C1153 1.389 . S
C1153 C1152 1.389 . S
C1153 C1154 1.387 . S
C1154 H1139 0.930 . S
C1154 C1149 1.390 . S
C1154 C1153 1.387 . S
H1155 C1167 0.930 . S
H1156 C1169 0.930 . S
H1157 C1170 0.930 . S
H1158 C1174 0.959 . S
H1159 C1174 0.959 . S
H1160 C1174 0.961 . S
H1161 C1175 0.960 . S
H1162 C1175 0.961 . S
H1163 C1175 0.959 . S
H1164 C1178 0.929 . S
H1165 C1179 0.931 . S
H1166 C1181 0.930 . S
C1167 H1155 0.930 . S
C1167 C1168 1.399 . S
C1167 C1172 1.399 . S
C1168 C1167 1.399 . S
C1168 C1169 1.376 . S
C1169 H1156 0.930 . S
C1169 C1168 1.376 . S
C1169 C1170 1.388 . S
C1170 H1157 0.930 . S
C1170 C1169 1.388 . S
C1170 C1171 1.390 . S
C1171 C1170 1.390 . S
C1171 C1172 1.394 . S
C1171 C1177 1.465 . S
C1172 C1167 1.399 . S
C1172 C1171 1.394 . S
C1172 C1173 1.516 . S
C1173 C1172 1.516 . S
C1173 C1174 1.502 . S
C1173 C1175 1.561 . S
C1173 C1176 1.526 . S
C1174 H1158 0.959 . S
C1174 H1159 0.959 . S
C1174 H1160 0.961 . S
C1174 C1173 1.502 . S
C1175 H1161 0.960 . S
C1175 H1162 0.961 . S
C1175 H1163 0.959 . S
C1175 C1173 1.561 . S
C1176 C1173 1.526 . S
C1176 C1177 1.396 . S
C1176 C1181 1.390 . S
C1177 C1171 1.465 . S
C1177 C1176 1.396 . S
C1177 C1178 1.399 . S
C1178 H1164 0.929 . S
C1178 C1177 1.399 . S
C1178 C1179 1.385 . S
C1179 H1165 0.931 . S
C1179 C1178 1.385 . S
C1179 C1180 1.389 . S
C1180 C1179 1.389 . S
C1180 C1181 1.387 . S
C1181 H1166 0.930 . S
C1181 C1176 1.390 . S
C1181 C1180 1.387 . S
H1182 C1194 0.930 . S
H1183 C1196 0.930 . S
H1184 C1197 0.931 . S
H1185 C1201 0.959 . S
H1186 C1201 0.959 . S
H1187 C1201 0.961 . S
H1188 C1202 0.960 . S
H1189 C1202 0.961 . S
H1190 C1202 0.959 . S
H1191 C1205 0.929 . S
H1192 C1206 0.931 . S
H1193 C1208 0.930 . S
C1194 H1182 0.930 . S
C1194 C1195 1.399 . S
C1194 C1199 1.399 1_545 S
C1195 C1194 1.399 . S
C1195 C1196 1.376 . S
C1196 H1183 0.930 . S
C1196 C1195 1.376 . S
C1196 C1197 1.423 . S
C1197 H1184 0.931 . S
C1197 C1196 1.423 . S
C1197 C1198 1.354 1_545 S
C1198 C1197 1.354 1_565 S
C1198 C1199 1.394 . S
C1198 C1204 1.465 . S
C1199 C1194 1.399 1_565 S
C1199 C1198 1.394 . S
C1199 C1200 1.516 . S
C1200 C1199 1.516 . S
C1200 C1201 1.502 . S
C1200 C1202 1.561 . S
C1200 C1203 1.526 . S
C1201 H1185 0.959 . S
C1201 H1186 0.959 . S
C1201 H1187 0.961 . S
C1201 C1200 1.502 . S
C1202 H1188 0.960 . S
C1202 H1189 0.961 . S
C1202 H1190 0.959 . S
C1202 C1200 1.561 . S
C1203 C1200 1.526 . S
C1203 C1204 1.396 . S
C1203 C1208 1.390 . S
C1204 C1198 1.465 . S
C1204 C1203 1.396 . S
C1204 C1205 1.399 . S
C1205 H1191 0.929 . S
C1205 C1204 1.399 . S
C1205 C1206 1.385 . S
C1206 H1192 0.931 . S
C1206 C1205 1.385 . S
C1206 C1207 1.389 . S
C1207 C1206 1.389 . S
C1207 C1208 1.387 . S
C1208 H1193 0.930 . S
C1208 C1203 1.390 . S
C1208 C1207 1.387 . S
H1209 C1221 0.930 . S
H1210 C1223 0.930 . S
H1211 C1224 0.930 . S
H1212 C1228 0.959 . S
H1213 C1228 0.959 . S
H1214 C1228 0.961 . S
H1215 C1229 0.960 . S
H1216 C1229 0.961 . S
H1217 C1229 0.959 . S
H1218 C1232 0.929 . S
H1219 C1233 0.931 . S
H1220 C1235 0.930 . S
C1221 H1209 0.930 . S
C1221 C1222 1.399 . S
C1221 C1226 1.399 . S
C1222 C1221 1.399 . S
C1222 C1223 1.376 . S
C1223 H1210 0.930 . S
C1223 C1222 1.376 . S
C1223 C1224 1.388 . S
C1224 H1211 0.930 . S
C1224 C1223 1.388 . S
C1224 C1225 1.390 . S
C1225 C1224 1.390 . S
C1225 C1226 1.394 . S
C1225 C1231 1.465 . S
C1226 C1221 1.399 . S
C1226 C1225 1.394 . S
C1226 C1227 1.516 . S
C1227 C1226 1.516 . S
C1227 C1228 1.502 . S
C1227 C1229 1.561 . S
C1227 C1230 1.526 . S
C1228 H1212 0.959 . S
C1228 H1213 0.959 . S
C1228 H1214 0.961 . S
C1228 C1227 1.502 . S
C1229 H1215 0.960 . S
C1229 H1216 0.961 . S
C1229 H1217 0.959 . S
C1229 C1227 1.561 . S
C1230 C1227 1.526 . S
C1230 C1231 1.396 . S
C1230 C1235 1.390 . S
C1231 C1225 1.465 . S
C1231 C1230 1.396 . S
C1231 C1232 1.399 . S
C1232 H1218 0.929 . S
C1232 C1231 1.399 . S
C1232 C1233 1.385 . S
C1233 H1219 0.931 . S
C1233 C1232 1.385 . S
C1233 C1234 1.389 . S
C1234 C1233 1.389 . S
C1234 C1235 1.387 . S
C1235 H1220 0.930 . S
C1235 C1230 1.390 . S
C1235 C1234 1.387 . S
C277 C51 1.717 . S
C289 C7 1.721 1_655 S
C304 C62 1.507 . S
C316 C16 1.306 . S
C331 C29 1.688 . S
C343 C73 1.686 . S
C358 C82 1.252 . S
C370 C40 1.449 . S
C385 C95 1.842 . S
C397 C126 1.412 . S
C412 C115 1.412 . S
C424 C106 1.523 . S
C439 C137 1.594 . S
C451 C181 1.621 . S
C466 C192 1.229 . S
C478 C150 1.425 . S
C493 C205 1.472 . S
C505 C161 1.437 . S
C520 C170 1.249 . S
C532 C216 1.308 . S
C547 C260 1.514 . S
C559 C225 1.460 . S
C574 C249 1.305 . S
C586 C236 1.366 . S
C601 C217 1.665 . S
C613 C8 1.675 . S
C628 C184 1.928 . S
C640 C18 1.890 . S
C655 C27 1.911 . S
C667 C195 1.980 . S
C682 C38 1.611 . S
C694 C206 1.678 . S
C709 C52 1.813 . S
C721 C148 1.616 . S
C736 C162 1.804 . S
C748 C60 1.845 . S
C763 C71 1.754 . S
C775 C172 1.805 . S
C790 C85 1.798 1_455 S
C802 C140 1.817 . S
C817 C41 1.686 . S
C829 C261 1.559 . S
C844 C5 1.677 . S
C856 C238 1.766 . S
C871 C19 1.579 . S
C883 C228 1.597 . S
C898 C30 1.927 . S
C910 C247 1.480 . S
C925 C63 1.599 . S
C937 C250 1.551 . S
C952 C74 1.861 . S
C964 C258 1.318 . S
C979 C239 1.798 . S
C991 C84 1.745 . S
C1006 C49 1.754 . S
C1018 C227 1.781 . S
C1033 C93 1.862 . S
C1045 C183 1.975 . S
C1060 C139 1.846 . S
C1072 C104 1.415 . S
C1087 C96 1.909 . S
C1099 C151 1.942 . S
C1114 C118 1.808 . S
C1126 C159 1.480 . S
C1141 C173 1.824 . S
C1153 C129 1.796 . S
C1168 C203 1.632 . S
C1180 C128 1.899 . S
C1195 C214 1.801 . S
C1207 C107 1.773 . S
C1222 C194 2.027 . S
C1234 C117 2.058 . S
