# Generated by pormake.
# Topology afw, (4)-cn, num edge types: 1
# Building blocks:
#     Node 0, Type 0, BuildingBlock: KUFVIS_clean_sbu_0, # of connection points: 4
#     Node 1, Type 0, BuildingBlock: KUFVIS_clean_sbu_0, # of connection points: 4
#     Node 2, Type 0, BuildingBlock: KUFVIS_clean_sbu_0, # of connection points: 4
#     Node 3, Type 0, BuildingBlock: KUFVIS_clean_sbu_0, # of connection points: 4
#     Node 4, Type 0, BuildingBlock: KUFVIS_clean_sbu_0, # of connection points: 4
#     Node 5, Type 0, BuildingBlock: KUFVIS_clean_sbu_0, # of connection points: 4
#     Node 6, Type 0, BuildingBlock: KUFVIS_clean_sbu_0, # of connection points: 4
#     Node 7, Type 0, BuildingBlock: KUFVIS_clean_sbu_0, # of connection points: 4
#     Node 8, Type 0, BuildingBlock: KUFVIS_clean_sbu_0, # of connection points: 4
#     Edge 9, Type (0, 0), BuildingBlock: ZUJKAS_clean_linker_0, # of connection points: 2
#     Edge 10, Type (0, 0), BuildingBlock: ZUJKAS_clean_linker_0, # of connection points: 2
#     Edge 11, Type (0, 0), BuildingBlock: ZUJKAS_clean_linker_0, # of connection points: 2
#     Edge 12, Type (0, 0), BuildingBlock: ZUJKAS_clean_linker_0, # of connection points: 2
#     Edge 13, Type (0, 0), BuildingBlock: ZUJKAS_clean_linker_0, # of connection points: 2
#     Edge 14, Type (0, 0), BuildingBlock: ZUJKAS_clean_linker_0, # of connection points: 2
#     Edge 15, Type (0, 0), BuildingBlock: ZUJKAS_clean_linker_0, # of connection points: 2
#     Edge 16, Type (0, 0), BuildingBlock: ZUJKAS_clean_linker_0, # of connection points: 2
#     Edge 17, Type (0, 0), BuildingBlock: ZUJKAS_clean_linker_0, # of connection points: 2
#     Edge 18, Type (0, 0), BuildingBlock: ZUJKAS_clean_linker_0, # of connection points: 2
#     Edge 19, Type (0, 0), BuildingBlock: ZUJKAS_clean_linker_0, # of connection points: 2
#     Edge 20, Type (0, 0), BuildingBlock: ZUJKAS_clean_linker_0, # of connection points: 2
#     Edge 21, Type (0, 0), BuildingBlock: ZUJKAS_clean_linker_0, # of connection points: 2
#     Edge 22, Type (0, 0), BuildingBlock: ZUJKAS_clean_linker_0, # of connection points: 2
#     Edge 23, Type (0, 0), BuildingBlock: ZUJKAS_clean_linker_0, # of connection points: 2
#     Edge 24, Type (0, 0), BuildingBlock: ZUJKAS_clean_linker_0, # of connection points: 2
#     Edge 25, Type (0, 0), BuildingBlock: ZUJKAS_clean_linker_0, # of connection points: 2
#     Edge 26, Type (0, 0), BuildingBlock: ZUJKAS_clean_linker_0, # of connection points: 2
# Relax obj value: 0.208
# Max RMSD: 0.224
# Mean RMSD: 0.211
data_MOF--net-afw--node1-KUFVIS_clean_sbu_0--edge1-ZUJKAS_clean_linker_0
_symmetry_space_group_name_H-M    P1
_symmetry_Int_Tables_number       1
_symmetry_cell_setting            triclinic
loop_
_symmetry_equiv_pos_as_xyz
'x, y, z'
_cell_length_a     54.024615
_cell_length_b     55.607914
_cell_length_c     42.188521
_cell_angle_alpha  90.817325
_cell_angle_beta   90.275248
_cell_angle_gamma 119.4901
loop_
_atom_site_label
_atom_site_type_symbol
_atom_site_fract_x
_atom_site_fract_y
_atom_site_fract_z
_atom_type_partial_charge
Mn0 Mn 0.00769 0.19803 0.01573 0.0
Mn1 Mn 0.07304 0.24201 0.04499 0.0
C2 C 0.04599 0.1927 0.00163 0.0
C3 C 0.96445 0.15775 0.02188 0.0
C4 C 0.04376 0.25675 0.99305 0.0
O5 O -3e-05 0.21727 0.05259 0.0
O6 O 0.04403 0.24125 0.07433 0.0
C7 C 0.07267 0.21205 0.1026 0.0
N8 N 0.08477 0.22378 0.07463 0.0
C9 C 0.12147 0.21163 0.08153 0.0
C10 C 0.10962 0.19976 0.11061 0.0
C11 C 0.08505 0.19989 0.12113 0.0
C12 C 0.10831 0.22363 0.06419 0.0
H13 H 0.05361 0.21183 0.11059 0.0
C14 C 0.01717 0.23241 0.07457 0.0
O15 O 0.96653 0.17702 0.00318 0.0
O16 O 0.98716 0.16221 0.03728 0.0
N17 N 0.10287 0.24403 0.01885 0.0
C18 C 0.11037 0.25444 0.98921 0.0
C19 C 0.13382 0.25472 0.97462 0.0
C20 C 0.14939 0.24443 0.99068 0.0
C21 C 0.14137 0.23397 0.02123 0.0
C22 C 0.11794 0.2344 0.03467 0.0
H23 H 0.09849 0.26235 0.97672 0.0
O24 O 0.02299 0.18147 0.98431 0.0
O25 O 0.04555 0.20625 0.02668 0.0
O26 O 0.02203 0.2328 0.9894 0.0
O27 O 0.06315 0.26251 0.01404 0.0
C28 C 0.15541 0.22268 0.03864 0.0
C29 C 0.14541 0.21143 0.06872 0.0
H30 H 0.11897 0.19016 0.12486 0.0
H31 H 0.07561 0.19052 0.1434 0.0
H32 H 0.13983 0.26276 0.95101 0.0
H33 H 0.1673 0.24445 0.97924 0.0
H34 H 0.17368 0.22219 0.02894 0.0
H35 H 0.15606 0.20234 0.0816 0.0
Mn36 Mn 0.81886 0.82935 0.00788 0.0
Mn37 Mn 0.83447 0.78145 0.97914 0.0
C38 C 0.86121 0.83146 0.02165 0.0
C39 C 0.81958 0.87128 0.00213 0.0
C40 C 0.79363 0.77085 0.03315 0.0
O41 O 0.79054 0.81149 0.97157 0.0
O42 O 0.80473 0.78233 0.9522 0.0
C43 C 0.86035 0.80798 0.91861 0.0
N44 N 0.86227 0.79725 0.94674 0.0
C45 C 0.90952 0.806 0.93513 0.0
C46 C 0.90798 0.81698 0.90594 0.0
C47 C 0.88332 0.81804 0.8977 0.0
C48 C 0.88594 0.79623 0.95497 0.0
H49 H 0.84145 0.80887 0.91221 0.0
C50 C 0.789 0.7936 0.95122 0.0
O51 O 0.80153 0.85245 0.02074 0.0
O52 O 0.83651 0.86537 0.98641 0.0
N53 N 0.86326 0.7786 0.00271 0.0
C54 C 0.8619 0.7687 0.0324 0.0
C55 C 0.88523 0.76706 0.04464 0.0
C56 C 0.90956 0.77531 0.02613 0.0
C57 C 0.91031 0.78508 0.9955 0.0
C58 C 0.88639 0.78618 0.98453 0.0
H59 H 0.84324 0.76227 0.0467 0.0
O60 O 0.85121 0.84411 0.03893 0.0
O61 O 0.84644 0.81844 -0.0035 0.0
O62 O 0.79651 0.79505 0.03474 0.0
O63 O 0.80631 0.7636 0.01284 0.0
C64 C 0.93401 0.79414 0.97559 0.0
C65 C 0.93367 0.80472 0.9455 0.0
H66 H 0.92569 0.82484 0.88979 0.0
H67 H 0.88202 0.82661 0.87528 0.0
H68 H 0.88448 0.75949 0.0683 0.0
H69 H 0.92759 0.77419 0.03575 0.0
H70 H 0.95273 0.79333 0.9833 0.0
H71 H 0.95219 0.81202 0.93062 0.0
Mn72 Mn 0.19662 0.00287 0.00403 0.0
Mn73 Mn 0.19611 0.94869 0.03969 0.0
C74 C 0.15479 0.96164 0.00811 0.0
C75 C 0.19325 0.0429 0.00577 0.0
C76 C 0.21798 0.96661 0.97337 0.0
O77 O 0.23384 0.02084 0.02891 0.0
O78 O 0.23015 0.98359 0.05384 0.0
C79 C 0.18793 0.96107 0.10606 0.0
N80 N 0.17903 0.94356 0.08041 0.0
C81 C 0.13863 0.90947 0.10863 0.0
C82 C 0.14747 0.92707 0.13542 0.0
C83 C 0.1722 0.953 0.1341 0.0
C84 C 0.15529 0.91854 0.08143 0.0
H85 H 0.20685 0.98108 0.10513 0.0
C86 C 0.24293 0.0096 0.04852 0.0
O87 O 0.20622 0.03804 0.98284 0.0
O88 O 0.18315 0.02495 0.02819 0.0
N89 N 0.16381 0.91386 0.02829 0.0
C90 C 0.15722 0.9001 -0.00018 0.0
C91 C 0.13259 0.87415 -0.00317 0.0
C92 C 0.11507 0.86259 0.02313 0.0
C93 C 0.12232 0.87711 0.05222 0.0
C94 C 0.14727 0.90277 0.05386 0.0
H95 H 0.17056 0.90891 0.97949 0.0
O96 O 0.15744 0.97912 0.98651 0.0
O97 O 0.17668 0.96885 0.02662 0.0
O98 O 0.21241 0.98631 0.97214 0.0
O99 O 0.21344 0.95171 -0.00227 0.0
C100 C 0.10551 0.86734 0.07949 0.0
C101 C 0.11364 0.88353 0.10766 0.0
H102 H 0.13528 0.921 0.15702 0.0
H103 H 0.17908 0.96676 0.15462 0.0
H104 H 0.12708 0.86312 0.97428 0.0
H105 H 0.09601 0.84264 0.02067 0.0
H106 H 0.0861 0.84757 0.07895 0.0
H107 H 0.10033 0.87596 0.12833 0.0
Mn108 Mn 0.67783 0.53536 0.32497 0.0
Mn109 Mn 0.73886 0.5888 0.35368 0.0
C110 C 0.72066 0.53716 0.31517 0.0
C111 C 0.63865 0.49171 0.33225 0.0
C112 C 0.70724 0.59257 0.29595 0.0
O113 O 0.66418 0.55283 0.358 0.0
O114 O 0.70618 0.58587 0.37816 0.0
C115 C 0.7399 0.56743 0.41725 0.0
N116 N 0.75258 0.57733 0.38894 0.0
C117 C 0.7942 0.57519 0.40511 0.0
C118 C 0.78169 0.56515 0.43455 0.0
C119 C 0.75437 0.56116 0.44059 0.0
C120 C 0.77877 0.58111 0.38281 0.0
H121 H 0.71892 0.56434 0.42199 0.0
C122 C 0.67893 0.57237 0.37776 0.0
O123 O 0.63788 0.50848 0.31162 0.0
O124 O 0.66181 0.50064 0.34897 0.0
N125 N 0.77221 0.59373 0.33242 0.0
C126 C 0.78035 0.60159 0.30207 0.0
C127 C 0.80666 0.60532 0.29172 0.0
C128 C 0.82444 0.60126 0.31277 0.0
C129 C 0.81568 0.59336 0.34395 0.0
C130 C 0.78921 0.58987 0.3529 0.0
H131 H 0.76682 0.60486 0.28584 0.0
O132 O 0.69855 0.52201 0.29737 0.0
O133 O 0.71689 0.55044 0.33856 0.0
O134 O 0.68744 0.56741 0.29513 0.0
O135 O 0.72689 0.60256 0.31716 0.0
C136 C 0.83201 0.58848 0.3664 0.0
C137 C 0.82121 0.57921 0.39689 0.0
H138 H 0.79275 0.56023 0.45257 0.0
H139 H 0.74451 0.55329 0.46318 0.0
H140 H 0.81325 0.61137 0.26759 0.0
H141 H 0.84469 0.60408 0.30467 0.0
H142 H 0.85277 0.59143 0.36033 0.0
H143 H 0.83373 0.575 0.41371 0.0
Mn144 Mn 0.49254 0.16051 0.34007 0.0
Mn145 Mn 0.49725 0.10675 0.30869 0.0
C146 C 0.53398 0.15843 0.3457 0.0
C147 C 0.4973 0.20425 0.33474 0.0
C148 C 0.4655 0.10314 0.36911 0.0
O149 O 0.45953 0.14356 0.30859 0.0
O150 O 0.46597 0.10961 0.28741 0.0
C151 C 0.5155 0.12789 0.24407 0.0
N152 N 0.52017 0.11825 0.27166 0.0
C153 C 0.56357 0.12182 0.25199 0.0
C154 C 0.55913 0.13162 0.22328 0.0
C155 C 0.53502 0.13473 0.21934 0.0
C156 C 0.54331 0.1152 0.27572 0.0
H157 H 0.49704 0.13038 0.24097 0.0
C158 C 0.45293 0.12359 0.28897 0.0
O159 O 0.48075 0.18733 0.35595 0.0
O160 O 0.5105 0.1955 0.31641 0.0
N161 N 0.52703 0.10205 0.32698 0.0
C162 C 0.52909 0.09401 0.35679 0.0
C163 C 0.55248 0.09075 0.36496 0.0
C164 C 0.57338 0.09561 0.34238 0.0
C165 C 0.57076 0.10379 0.31183 0.0
C166 C 0.5469 0.10653 0.30499 0.0
H167 H 0.51307 0.09022 0.37423 0.0
O168 O 0.52852 0.17348 0.36513 0.0
O169 O 0.51506 0.14519 0.32363 0.0
O170 O 0.47115 0.12829 0.37018 0.0
O171 O 0.47386 0.09305 0.34694 0.0
C172 C 0.59108 0.1097 0.28803 0.0
C173 C 0.58754 0.1188 0.25818 0.0
H174 H 0.57421 0.13706 0.20421 0.0
H175 H 0.53152 0.14241 0.19731 0.0
H176 H 0.5544 0.08451 0.38861 0.0
H177 H 0.59142 0.09314 0.34883 0.0
H178 H 0.60968 0.10762 0.29254 0.0
H179 H 0.60353 0.12369 0.24025 0.0
Mn180 Mn 0.86958 0.34881 0.34365 0.0
Mn181 Mn 0.92197 0.40873 0.31539 0.0
C182 C 0.86278 0.38636 0.33945 0.0
C183 C 0.83002 0.30549 0.33577 0.0
C184 C 0.92225 0.38868 0.38179 0.0
O185 O 0.89596 0.33735 0.32258 0.0
O186 O 0.92718 0.37752 0.30022 0.0
C187 C 0.90749 0.39918 0.24691 0.0
N188 N 0.91231 0.41483 0.27377 0.0
C189 C 0.90433 0.4479 0.24587 0.0
C190 C 0.89954 0.43228 0.21785 0.0
C191 C 0.90106 0.40778 0.2184 0.0
C192 C 0.91087 0.43842 0.27352 0.0
H193 H 0.90844 0.38025 0.24728 0.0
C194 C 0.9171 0.35162 0.30481 0.0
O195 O 0.84575 0.31145 0.36118 0.0
O196 O 0.838 0.32435 0.31438 0.0
N197 N 0.91906 0.44046 0.32796 0.0
C198 C 0.92241 0.45217 0.35739 0.0
C199 C 0.92046 0.47631 0.36116 0.0
C200 C 0.91527 0.48825 0.33464 0.0
C201 C 0.91216 0.47598 0.30456 0.0
C202 C 0.91457 0.45206 0.30221 0.0
H203 H 0.92635 0.44307 0.37788 0.0
O204 O 0.84721 0.36647 0.35836 0.0
O205 O 0.88157 0.3835 0.3232 0.0
O206 O 0.89778 0.36725 0.38005 0.0
O207 O 0.93381 0.40486 0.35864 0.0
C208 C 0.90614 0.48619 0.27692 0.0
C209 C 0.90221 0.47215 0.2476 0.0
H210 H 0.89436 0.43872 0.19585 0.0
H211 H 0.8972 0.39551 0.19691 0.0
H212 H 0.92284 0.48563 0.38447 0.0
H213 H 0.91349 0.50671 0.33769 0.0
H214 H 0.90402 0.50457 0.27804 0.0
H215 H 0.89715 0.47996 0.22661 0.0
Mn216 Mn 0.34359 0.86568 0.65998 0.0
Mn217 Mn 0.40533 0.91737 0.68956 0.0
C218 C 0.38534 0.86459 0.65295 0.0
C219 C 0.30275 0.82335 0.66811 0.0
C220 C 0.37581 0.92242 0.63051 0.0
O221 O 0.33094 0.88547 0.69124 0.0
O222 O 0.37314 0.91607 0.71354 0.0
C223 C 0.40483 0.89575 0.75339 0.0
N224 N 0.41776 0.90486 0.72502 0.0
C225 C 0.45669 0.89798 0.74066 0.0
C226 C 0.4439 0.88872 0.77014 0.0
C227 C 0.41784 0.88758 0.77651 0.0
C228 C 0.44289 0.90614 0.71867 0.0
H229 H 0.3847 0.89464 0.7583 0.0
C230 C 0.34592 0.90421 0.7118 0.0
O231 O 0.30345 0.83972 0.64599 0.0
O232 O 0.3254 0.83188 0.68559 0.0
N233 N 0.438 0.9203 0.6685 0.0
C234 C 0.44656 0.92796 0.63819 0.0
C235 C 0.47174 0.92916 0.62761 0.0
C236 C 0.48788 0.92254 0.64828 0.0
C237 C 0.47874 0.91489 0.67942 0.0
C238 C 0.45363 0.91435 0.68875 0.0
H239 H 0.43417 0.93292 0.62214 0.0
O240 O 0.36349 0.8498 0.63465 0.0
O241 O 0.38184 0.87918 0.67491 0.0
O242 O 0.35578 0.89735 0.62881 0.0
O243 O 0.39455 0.93198 0.65276 0.0
C244 C 0.49324 0.90721 0.70134 0.0
C245 C 0.48223 0.89877 0.73194 0.0
H246 H 0.45372 0.88215 0.78793 0.0
H247 H 0.40775 0.8803 0.79914 0.0
H248 H 0.47862 0.93501 0.60352 0.0
H249 H 0.50711 0.92317 0.63991 0.0
H250 H 0.51266 0.90733 0.69476 0.0
H251 H 0.49335 0.89252 0.74842 0.0
Mn252 Mn 0.14502 0.49141 0.69796 0.0
Mn253 Mn 0.15071 0.43695 0.67111 0.0
C254 C 0.18795 0.49197 0.70174 0.0
C255 C 0.14758 0.53372 0.68785 0.0
C256 C 0.1223 0.43722 0.73305 0.0
O257 O 0.10972 0.47025 0.67017 0.0
O258 O 0.11792 0.43711 0.64983 0.0
C259 C 0.16562 0.45301 0.60435 0.0
N260 N 0.17194 0.44596 0.63282 0.0
C261 C 0.21514 0.44946 0.61254 0.0
C262 C 0.20898 0.45657 0.58294 0.0
C263 C 0.18413 0.4584 0.57886 0.0
C264 C 0.19578 0.44411 0.63701 0.0
H265 H 0.14662 0.45458 0.60116 0.0
C266 C 0.10347 0.44972 0.65148 0.0
O267 O 0.13328 0.51891 0.71168 0.0
O268 O 0.15945 0.5235 0.66961 0.0
N269 N 0.18202 0.4349 0.68963 0.0
C270 C 0.18583 0.42969 0.72021 0.0
C271 C 0.21017 0.42811 0.72855 0.0
C272 C 0.23026 0.43178 0.70539 0.0
C273 C 0.22588 0.43711 0.67407 0.0
C274 C 0.20109 0.4382 0.66709 0.0
H275 H 0.17048 0.42687 0.73813 0.0
O276 O 0.18296 0.50816 0.71976 0.0
O277 O 0.16776 0.47618 0.68197 0.0
O278 O 0.12749 0.46222 0.73233 0.0
O279 O 0.12922 0.42584 0.7109 0.0
C280 C 0.24536 0.44183 0.64963 0.0
C281 C 0.24002 0.44806 0.61891 0.0
H282 H 0.22331 0.46093 0.56327 0.0
H283 H 0.17932 0.46403 0.55613 0.0
H284 H 0.21346 0.4241 0.7528 0.0
H285 H 0.24904 0.43062 0.71197 0.0
H286 H 0.2647 0.44109 0.6543 0.0
H287 H 0.25538 0.45208 0.60045 0.0
Mn288 Mn 0.52941 0.67378 0.66685 0.0
Mn289 Mn 0.52052 0.61509 0.69971 0.0
C290 C 0.48527 0.63491 0.66614 0.0
C291 C 0.53101 0.71618 0.6715 0.0
C292 C 0.54721 0.63501 0.63554 0.0
O293 O 0.56501 0.68701 0.6938 0.0
O294 O 0.55559 0.64729 0.71729 0.0
C295 C 0.50976 0.62574 0.76577 0.0
N296 N 0.5012 0.6095 0.73904 0.0
C297 C 0.45769 0.57648 0.76352 0.0
C298 C 0.46613 0.59276 0.79137 0.0
C299 C 0.49225 0.61751 0.79247 0.0
C300 C 0.47611 0.58564 0.73772 0.0
H301 H 0.52976 0.64484 0.76668 0.0
C302 C 0.57109 0.67338 0.71339 0.0
O303 O 0.54384 0.71107 0.64858 0.0
O304 O 0.51805 0.69696 0.69209 0.0
N305 N 0.48711 0.58244 0.68511 0.0
C306 C 0.48143 0.56987 0.65595 0.0
C307 C 0.45569 0.54525 0.65059 0.0
C308 C 0.43618 0.53372 0.6753 0.0
C309 C 0.44264 0.54684 0.70521 0.0
C310 C 0.46871 0.57123 0.70921 0.0
H311 H 0.49632 0.57866 0.63685 0.0
O312 O 0.49112 0.65451 0.64622 0.0
O313 O 0.50526 0.63887 0.68629 0.0
O314 O 0.5441 0.65627 0.63476 0.0
O315 O 0.53992 0.61872 0.65899 0.0
C316 C 0.42403 0.53696 0.73104 0.0
C317 C 0.43151 0.5518 0.76015 0.0
H318 H 0.45261 0.58658 0.81196 0.0
H319 H 0.49885 0.63026 0.81383 0.0
H320 H 0.45085 0.53526 0.62743 0.0
H321 H 0.41622 0.51488 0.67098 0.0
H322 H 0.40374 0.51813 0.72868 0.0
H323 H 0.41684 0.54419 0.7797 0.0
H324 H 0.20449 0.07931 0.95773 0.0
H325 H 0.18631 0.11167 0.9522 0.0
H326 H 0.14993 0.09072 0.04528 0.0
H327 H 0.16778 0.05831 0.05098 0.0
H328 H 0.11113 0.08094 0.9917 0.0
H329 H 0.20423 0.18756 -0.00367 0.0
H330 H 0.20656 0.16168 0.97235 0.0
H331 H 0.20515 0.15881 0.01463 0.0
C332 C 0.19325 0.08214 0.97734 0.0
C333 C 0.18729 0.06608 0.00467 0.0
C334 C 0.18298 0.10069 0.97416 0.0
C335 C 0.16687 0.10353 -0.00164 0.0
C336 C 0.16242 0.08879 0.0264 0.0
H337 H 0.05995 0.16736 0.04612 0.0
H338 H 0.09152 0.14775 0.04092 0.0
C339 C 0.1726 0.07027 0.02959 0.0
C340 C 0.15131 0.11875 0.99309 0.0
H341 H 0.15882 0.18329 0.98929 0.0
C342 C 0.12157 0.10331 0.99095 0.0
C343 C 0.1651 0.14787 0.99165 0.0
C344 C 0.19703 0.16514 0.99397 0.0
C345 C 0.1051 0.11629 0.98866 0.0
C346 C 0.11876 0.14542 0.98886 0.0
C347 C 0.14856 0.16093 0.98939 0.0
C348 C 0.10209 0.15973 0.99214 0.0
C349 C 0.07313 0.09879 0.98694 0.0
C350 C 0.09799 0.17321 0.96646 0.0
C351 C 0.07995 0.18449 0.96946 0.0
C352 C 0.06656 0.18293 -0.00162 0.0
C353 C 0.0708 0.16949 0.02393 0.0
C354 C 0.08864 0.1582 0.02093 0.0
H355 H 0.0663 0.07713 0.97955 0.0
H356 H 0.06424 0.09847 0.0107 0.0
H357 H 0.06396 0.10755 0.97006 0.0
H358 H 0.10809 0.17431 0.944 0.0
H359 H 0.07641 0.19436 0.94934 0.0
H360 H 0.84928 0.91091 0.95912 0.0
H361 H 0.86327 0.95983 0.96313 0.0
H362 H 0.81281 0.94451 0.04703 0.0
H363 H 0.79838 0.89521 0.04306 0.0
H364 H 0.81587 0.98844 -0.00096 0.0
H365 H 0.91825 -0.00041 0.04315 0.0
H366 H 0.90495 0.98049 0.00644 0.0
H367 H 0.88561 0.96689 0.04232 0.0
C368 C 0.84057 0.91777 0.97801 0.0
C369 C 0.82307 0.89932 0.00106 0.0
C370 C 0.84851 0.94571 0.98017 0.0
C371 C 0.83925 0.9557 0.00552 0.0
C372 C 0.82006 0.93707 0.02725 0.0
H373 H 0.94709 0.12324 0.07164 0.0
H374 H 0.91064 0.07455 0.07097 0.0
C375 C 0.81192 0.90897 0.02499 0.0
C376 C 0.85308 0.9858 0.01173 0.0
H377 H 0.91731 0.04064 0.03263 0.0
C378 C 0.83796 -4e-05 0.00666 0.0
C379 C 0.88174 0.00056 0.02209 0.0
C380 C 0.89862 0.98617 0.02911 0.0
C381 C 0.85121 0.02886 0.01084 0.0
C382 C 0.88029 0.04374 0.01993 0.0
C383 C 0.89501 0.02929 0.02572 0.0
C384 C 0.89668 0.07435 0.02273 0.0
C385 C 0.83397 0.0431 0.00566 0.0
C386 C 0.90006 0.09081 -0.00366 0.0
C387 C 0.92062 0.11889 -0.00308 0.0
C388 C 0.93844 0.13063 0.02363 0.0
C389 C 0.93372 0.11461 0.05068 0.0
C390 C 0.91289 0.0868 0.05032 0.0
H391 H 0.8109 0.02869 0.00881 0.0
H392 H 0.84079 0.06105 0.02218 0.0
H393 H 0.83702 0.05072 0.98103 0.0
H394 H 0.88828 0.08161 0.97455 0.0
H395 H 0.92405 0.13077 0.97566 0.0
H396 H 0.88616 0.82754 0.07607 0.0
H397 H 0.93687 0.84202 0.08427 0.0
H398 H 0.95295 0.8659 0.98647 0.0
H399 H 0.9027 0.85194 0.97842 0.0
H400 H 0.97741 0.82786 0.02577 0.0
H401 H 0.00066 0.9326 0.06761 0.0
H402 H 0.96842 0.90182 0.07834 0.0
H403 H 0.97266 0.9141 0.03862 0.0
C404 C 0.9006 0.83554 0.05636 0.0
C405 C 0.89069 0.83785 0.02638 0.0
C406 C 0.92933 0.84365 0.061 0.0
C407 C 0.94829 0.85455 0.0358 0.0
C408 C 0.9384 0.85707 0.00598 0.0
H409 H 0.1141 0.92341 0.96875 0.0
H410 H 0.06414 0.89237 0.98159 0.0
C411 C 0.90981 0.84903 0.00138 0.0
C412 C 0.97899 0.86574 0.04069 0.0
H413 H 0.03959 0.92702 0.05348 0.0
C414 C 0.99113 0.8494 0.03227 0.0
C415 C -0.00346 0.89367 0.04973 0.0
C416 C 0.98411 0.91174 0.05922 0.0
C417 C 0.02076 0.86085 0.03095 0.0
C418 C 0.03836 0.88936 0.03777 0.0
C419 C 0.02608 0.90517 0.04816 0.0
C420 C 0.06919 0.90406 0.03142 0.0
C421 C 0.03289 0.84251 0.0217 0.0
C422 C 0.08848 0.92107 0.05505 0.0
C423 C 0.11675 0.93906 0.04755 0.0
C424 C 0.12629 0.93987 0.01652 0.0
C425 C 0.10723 0.9225 0.993 0.0
C426 C 0.07885 0.90461 0.00043 0.0
H427 H 0.01811 0.82062 0.02757 0.0
H428 H 0.03625 0.84351 0.99572 0.0
H429 H 0.05362 0.84929 0.0338 0.0
H430 H 0.08137 0.92131 0.07896 0.0
H431 H 0.1309 0.95311 0.06575 0.0
H432 H 0.85432 0.4188 0.38144 0.0
H433 H 0.83746 0.45145 0.36967 0.0
H434 H 0.83547 0.43259 0.26974 0.0
H435 H 0.85105 0.39906 0.28174 0.0
H436 H 0.85969 0.49802 0.33391 0.0
H437 H 0.75559 0.41754 0.28383 0.0
H438 H 0.77938 0.409 0.30459 0.0
H439 H 0.78609 0.41999 0.26414 0.0
C440 C 0.85036 0.42183 0.35702 0.0
C441 C 0.85471 0.40727 0.33235 0.0
C442 C 0.84088 0.44046 0.35029 0.0
C443 C 0.83512 0.44433 0.31884 0.0
C444 C 0.83945 0.42967 0.29418 0.0
H445 H 0.74879 0.53584 0.26259 0.0
H446 H 0.78303 0.51887 0.25911 0.0
C447 C 0.8487 0.41088 0.30097 0.0
C448 C 0.82349 0.46289 0.31229 0.0
H449 H 0.76403 0.46318 0.2852 0.0
C450 C 0.8389 0.4905 0.32296 0.0
C451 C 0.79638 0.45299 0.2979 0.0
C452 C 0.77824 0.42322 0.28718 0.0
C453 C 0.82742 0.5082 0.3207 0.0
C454 C 0.8 0.49801 0.30735 0.0
C455 C 0.78521 0.47089 0.2952 0.0
C456 C 0.78445 0.51353 0.30964 0.0
C457 C 0.84421 0.53735 0.33352 0.0
C458 C 0.77421 0.5162 0.33919 0.0
C459 C 0.75438 0.52529 0.34109 0.0
C460 C 0.74519 0.53265 0.31361 0.0
C461 C 0.75619 0.5309 0.28415 0.0
C462 C 0.77572 0.52135 0.28216 0.0
H463 H 0.86729 0.54427 0.33521 0.0
H464 H 0.84108 0.55183 0.31837 0.0
H465 H 0.83663 0.53824 0.35768 0.0
H466 H 0.78011 0.50953 0.36054 0.0
H467 H 0.74508 0.52513 0.36383 0.0
H468 H 0.46866 0.22743 0.36429 0.0
H469 H 0.47968 0.2758 0.36257 0.0
H470 H 0.54943 0.29395 0.29995 0.0
H471 H 0.53788 0.24585 0.30054 0.0
H472 H 0.52448 0.31969 0.38305 0.0
H473 H 0.51635 0.33401 0.25563 0.0
H474 H 0.50266 0.30012 0.27222 0.0
H475 H 0.53951 0.31989 0.26109 0.0
C476 C 0.486 0.24169 0.34971 0.0
C477 C 0.50232 0.23281 0.33243 0.0
C478 C 0.49228 0.26931 0.34873 0.0
C479 C 0.51501 0.28849 0.33055 0.0
C480 C 0.53115 0.27948 0.31322 0.0
H481 H 0.63913 0.45112 0.36675 0.0
H482 H 0.6031 0.40267 0.368 0.0
C483 C 0.52468 0.25193 0.31385 0.0
C484 C 0.52394 0.31841 0.33192 0.0
H485 H 0.55069 0.37538 0.28562 0.0
C486 C 0.52956 0.33178 0.36171 0.0
C487 C 0.52979 0.33432 0.30422 0.0
C488 C 0.52139 0.3212 0.27156 0.0
C489 C 0.54316 0.3607 0.36447 0.0
C490 C 0.55232 0.37669 0.33674 0.0
C491 C 0.54436 0.36326 0.30698 0.0
C492 C 0.57282 0.40685 0.33802 0.0
C493 C 0.5481 0.37373 0.39716 0.0
C494 C 0.56829 0.42548 0.32003 0.0
C495 C 0.58933 0.45335 0.31869 0.0
C496 C 0.61519 0.46301 0.33537 0.0
C497 C 0.61934 0.44445 0.35387 0.0
C498 C 0.59856 0.41668 0.35489 0.0
H499 H 0.53057 0.36042 0.41323 0.0
H500 H 0.56808 0.37588 0.40736 0.0
H501 H 0.54978 0.39444 0.39663 0.0
H502 H 0.54873 0.41835 0.30655 0.0
H503 H 0.58556 0.46716 0.30418 0.0
H504 H 0.5657 0.17281 0.29315 0.0
H505 H 0.61621 0.18739 0.28907 0.0
H506 H 0.61974 0.17408 0.38911 0.0
H507 H 0.5686 0.15836 0.39292 0.0
H508 H 0.65474 0.23344 0.32347 0.0
H509 H 0.6691 0.14349 0.35062 0.0
H510 H 0.63536 0.13982 0.33823 0.0
H511 H 0.64795 0.15041 0.37816 0.0
C512 C 0.57703 0.17193 0.31397 0.0
C513 C 0.56327 0.16364 0.34311 0.0
C514 C 0.60587 0.18041 0.31167 0.0
C515 C 0.6216 0.18136 0.33866 0.0
C516 C 0.6078 0.17274 0.36783 0.0
H517 H 0.80047 0.27017 0.38305 0.0
H518 H 0.74987 0.23581 0.38184 0.0
C519 C 0.57877 0.16405 0.37007 0.0
C520 C 0.65295 0.19544 0.337 0.0
H521 H 0.71111 0.18727 0.3473 0.0
C522 C 0.66705 0.22326 0.32838 0.0
C523 C 0.66888 0.18219 0.34397 0.0
C524 C 0.65463 0.15226 0.35308 0.0
C525 C 0.69669 0.23836 0.32675 0.0
C526 C 0.7127 0.22504 0.33307 0.0
C527 C 0.69869 0.19724 0.34199 0.0
C528 C 0.74409 0.24045 0.33197 0.0
C529 C 0.7106 0.26872 0.31923 0.0
C530 C 0.75784 0.25316 0.3039 0.0
C531 C 0.78661 0.27308 0.3046 0.0
C532 C 0.80211 0.28016 0.33329 0.0
C533 C 0.78901 0.26524 0.36063 0.0
C534 C 0.76011 0.24557 0.35999 0.0
H535 H 0.6959 0.2771 0.32281 0.0
H536 H 0.72989 0.28098 0.33424 0.0
H537 H 0.71707 0.27163 0.29403 0.0
H538 H 0.74589 0.249 0.2819 0.0
H539 H 0.79628 0.284 0.28309 0.0
H540 H 0.4188 0.86448 0.60485 0.0
H541 H 0.45322 0.84755 0.60721 0.0
H542 H 0.43619 0.83124 0.70666 0.0
H543 H 0.40168 0.84759 0.70423 0.0
H544 H 0.50425 0.86186 0.65731 0.0
H545 H 0.41112 0.75544 0.65338 0.0
H546 H 0.40929 0.78495 0.63893 0.0
H547 H 0.40923 0.77957 0.68077 0.0
C548 C 0.42297 0.85778 0.62725 0.0
C549 C 0.40839 0.85796 0.65458 0.0
C550 C 0.44263 0.84832 0.62862 0.0
C551 C 0.44732 0.83848 0.65719 0.0
C552 C 0.43304 0.83909 0.68454 0.0
H553 H 0.51023 0.73409 0.71932 0.0
H554 H 0.49561 0.76911 0.71614 0.0
C555 C 0.41347 0.84848 0.68316 0.0
C556 C 0.46405 0.82413 0.65785 0.0
H557 H 0.45592 0.75968 0.66445 0.0
C558 C 0.49386 0.83952 0.65858 0.0
C559 C 0.4502 0.79505 0.65943 0.0
C560 C 0.41819 0.77765 0.65787 0.0
C561 C 0.51025 0.82635 0.66185 0.0
C562 C 0.49627 0.79729 0.66433 0.0
C563 C 0.4665 0.78202 0.66283 0.0
C564 C 0.51161 0.78176 0.66887 0.0
C565 C 0.5422 0.84342 0.66356 0.0
C566 C 0.52637 0.77807 0.64373 0.0
C567 C 0.53478 0.75801 0.64546 0.0
C568 C 0.52821 0.74126 0.67223 0.0
C569 C 0.51537 0.74652 0.69828 0.0
C570 C 0.5071 0.76658 0.69657 0.0
H571 H 0.54958 0.86588 0.6658 0.0
H572 H 0.55059 0.83713 0.68402 0.0
H573 H 0.5513 0.83974 0.6417 0.0
H574 H 0.52966 0.78934 0.62199 0.0
H575 H 0.54465 0.75439 0.62503 0.0
H576 H 0.25904 0.79248 0.62612 0.0
H577 H 0.22396 0.74321 0.62995 0.0
H578 H 0.25663 0.74179 0.72298 0.0
H579 H 0.29188 0.79057 0.71907 0.0
H580 H 0.25758 0.70408 0.68159 0.0
H581 H 0.15096 0.69606 0.67991 0.0
H582 H 0.17423 0.71629 0.64882 0.0
H583 H 0.18316 0.72797 0.68932 0.0
C584 C 0.25823 0.78178 0.64768 0.0
C585 C 0.27835 0.79529 0.67217 0.0
C586 C 0.2381 0.75367 0.64991 0.0
C587 C 0.2376 0.73885 0.67683 0.0
C588 C 0.25662 0.75281 0.70201 0.0
H589 H 0.13807 0.56665 0.72939 0.0
H590 H 0.15628 0.61658 0.72522 0.0
C591 C 0.2768 0.7807 0.69969 0.0
C592 C 0.22016 0.70828 0.67733 0.0
H593 H 0.15217 0.65389 0.67436 0.0
C594 C 0.23453 0.69316 0.68015 0.0
C595 C 0.19009 0.69407 0.67551 0.0
C596 C 0.1736 0.70937 0.67349 0.0
C597 C 0.21976 0.66427 0.68104 0.0
C598 C 0.18976 0.64999 0.67852 0.0
C599 C 0.1752 0.66498 0.67603 0.0
C600 C 0.17365 0.61942 0.67847 0.0
C601 C 0.2364 0.6492 0.68489 0.0
C602 C 0.17645 0.60447 0.65305 0.0
C603 C 0.16629 0.57614 0.65542 0.0
C604 C 0.153 0.56221 0.68322 0.0
C605 C 0.14824 0.57683 0.7077 0.0
C606 C 0.15858 0.60531 0.70534 0.0
H607 H 0.25863 0.66326 0.69298 0.0
H608 H 0.22601 0.63231 0.70218 0.0
H609 H 0.23709 0.63981 0.66176 0.0
H610 H 0.18787 0.61501 0.63204 0.0
H611 H 0.17006 0.56542 0.63602 0.0
H612 H 0.21625 0.50229 0.64686 0.0
H613 H 0.26666 0.5177 0.6397 0.0
H614 H 0.27722 0.51493 0.74084 0.0
H615 H 0.22616 0.49788 0.74773 0.0
H616 H 0.30656 0.56559 0.66303 0.0
H617 H 0.32563 0.48307 0.70895 0.0
H618 H 0.29053 0.47735 0.69937 0.0
H619 H 0.30744 0.49374 0.73639 0.0
C620 C 0.22914 0.50382 0.66736 0.0
C621 C 0.21734 0.49793 0.69767 0.0
C622 C 0.25794 0.51287 0.66332 0.0
C623 C 0.27563 0.517 0.68966 0.0
C624 C 0.26382 0.51103 0.72008 0.0
H625 H 0.45471 0.62252 0.71979 0.0
H626 H 0.40368 0.59027 0.72515 0.0
C627 C 0.23481 0.50159 0.72405 0.0
C628 C 0.30681 0.53115 0.68555 0.0
H629 H 0.36682 0.52721 0.70102 0.0
C630 C 0.31964 0.55699 0.67099 0.0
C631 C 0.32388 0.52 0.69619 0.0
C632 C 0.31117 0.4919 0.71085 0.0
C633 C 0.3491 0.57219 0.66722 0.0
C634 C 0.36613 0.56122 0.67821 0.0
C635 C 0.35349 0.53539 0.69263 0.0
C636 C 0.39726 0.57718 0.67585 0.0
C637 C 0.36199 0.60019 0.65213 0.0
C638 C 0.4103 0.58009 0.64642 0.0
C639 C 0.43937 0.59832 0.64339 0.0
C640 C 0.45567 0.61337 0.6699 0.0
C641 C 0.44261 0.61025 0.69936 0.0
C642 C 0.41359 0.592 0.70241 0.0
H643 H 0.34609 0.60704 0.64809 0.0
H644 H 0.37952 0.61588 0.66733 0.0
H645 H 0.37118 0.59934 0.62895 0.0
H646 H 0.3978 0.56897 0.62565 0.0
H647 H 0.44905 0.601 0.62035 0.0
H648 H 0.08307 0.3118 -0.00292 0.0
H649 H 0.09235 0.34717 0.95811 0.0
H650 H 0.02337 0.28702 0.89945 0.0
H651 H 0.01349 0.2516 0.93858 0.0
H652 H 0.10896 0.34571 0.89896 0.0
H653 H 0.01016 0.35241 0.89427 0.0
H654 H 0.01811 0.3359 0.92623 0.0
H655 H 0.00336 0.31758 0.88933 0.0
C656 C 0.06953 0.30613 0.97616 0.0
C657 C 0.04759 0.27877 0.97093 0.0
C658 C 0.07484 0.32643 0.95394 0.0
C659 C 0.05834 0.31985 0.92605 0.0
C660 C 0.03593 0.29277 0.92115 0.0
H661 H 0.1058 0.38287 0.74182 0.0
H662 H 0.08931 0.35686 0.7904 0.0
C663 C 0.03046 0.27246 0.94347 0.0
C664 C 0.06667 0.34036 0.90053 0.0
H665 H 0.04116 0.37034 0.84933 0.0
C666 C 0.09425 0.35142 0.8885 0.0
C667 C 0.04756 0.348 0.88702 0.0
C668 C 0.01824 0.33807 0.9001 0.0
C669 C 0.10281 0.36888 0.86242 0.0
C670 C 0.08316 0.37514 0.84773 0.0
C671 C 0.05602 0.36521 0.86054 0.0
C672 C 0.09014 0.3904 0.81778 0.0
C673 C 0.13266 0.38007 0.8503 0.0
C674 C 0.09516 0.41764 0.81693 0.0
C675 C 0.10468 0.43276 0.78905 0.0
C676 C 0.10922 0.42073 0.76166 0.0
C677 C 0.10282 0.39296 0.76244 0.0
C678 C 0.09338 0.37799 0.7902 0.0
H679 H 0.147 0.37882 0.86838 0.0
H680 H 0.13219 0.36776 0.82914 0.0
H681 H 0.14167 0.40191 0.84315 0.0
H682 H 0.09266 0.42748 0.83809 0.0
H683 H 0.10932 0.45405 0.78929 0.0
H684 H 0.75058 0.81141 0.93977 0.0
H685 H 0.71531 0.79636 0.89664 0.0
H686 H 0.74475 0.74216 0.86014 0.0
H687 H 0.7802 0.75719 0.90261 0.0
H688 H 0.7355 0.77299 0.81319 0.0
H689 H 0.64366 0.71908 0.89392 0.0
H690 H 0.66766 0.75494 0.90301 0.0
H691 H 0.67978 0.73024 0.90638 0.0
C692 C 0.74961 0.79633 0.92253 0.0
C693 C 0.76804 0.78529 0.92488 0.0
C694 C 0.72943 0.78776 0.89798 0.0
C695 C 0.72732 0.76796 0.87553 0.0
C696 C 0.74609 0.75745 0.87732 0.0
H697 H 0.59192 0.65209 0.7574 0.0
H698 H 0.63112 0.67748 0.79486 0.0
C699 C 0.76625 0.76599 0.90175 0.0
C700 C 0.70495 0.75724 0.85069 0.0
H701 H 0.63335 0.71711 0.83943 0.0
C702 C 0.71312 0.76098 0.81882 0.0
C703 C 0.67588 0.74137 0.85833 0.0
C704 C 0.66608 0.73591 0.89223 0.0
C705 C 0.69291 0.74878 0.79424 0.0
C706 C 0.66389 0.73276 0.80193 0.0
C707 C 0.65569 0.72951 0.83377 0.0
C708 C 0.64169 0.7178 0.7775 0.0
C709 C 0.70278 0.75224 0.76038 0.0
C710 C 0.63495 0.73215 0.75515 0.0
C711 C 0.61255 0.7177 0.73355 0.0
C712 C 0.59645 0.68866 0.73416 0.0
C713 C 0.60379 0.67441 0.75622 0.0
C714 C 0.62616 0.68887 0.77771 0.0
H715 H 0.72615 0.76078 0.75889 0.0
H716 H 0.69195 0.73215 0.74724 0.0
H717 H 0.69727 0.76666 0.74841 0.0
H718 H 0.6465 0.75452 0.75496 0.0
H719 H 0.60742 0.72935 0.71698 0.0
H720 H 0.28959 0.89013 0.7128 0.0
H721 H 0.26533 0.90208 0.75371 0.0
H722 H 0.34421 0.9469 0.80638 0.0
H723 H 0.36875 0.93571 0.7655 0.0
H724 H 0.25902 0.88875 0.81556 0.0
H725 H 0.3168 0.00249 0.80524 0.0
H726 H 0.3189 0.97987 0.77558 0.0
H727 H 0.34064 0.98913 0.81101 0.0
C728 C 0.30185 0.90277 0.73293 0.0
C729 C 0.33117 0.9121 0.73575 0.0
C730 C 0.28794 0.90956 0.75626 0.0
C731 C 0.30309 0.92579 0.78276 0.0
C732 C 0.33228 0.93501 0.78569 0.0
H733 H 0.24172 0.93313 0.96835 0.0
H734 H 0.26064 0.92275 0.92082 0.0
C735 C 0.34623 0.92843 0.76233 0.0
C736 C 0.28824 0.93191 0.80829 0.0
H737 H 0.29115 0.98463 0.85341 0.0
C738 C 0.26579 0.90972 0.82362 0.0
C739 C 0.29682 0.95929 0.81841 0.0
C740 C 0.31941 0.98405 0.80146 0.0
C741 C 0.25236 0.91414 0.84962 0.0
C742 C 0.26221 0.94145 0.86103 0.0
C743 C 0.28393 0.96368 0.84493 0.0
C744 C 0.25052 0.94748 0.88978 0.0
C745 C 0.22769 0.88953 0.86446 0.0
C746 C 0.23942 0.96554 0.88831 0.0
C747 C 0.22907 0.97191 0.91551 0.0
C748 C 0.22956 0.96027 0.94475 0.0
C749 C 0.24083 0.94228 0.94618 0.0
C750 C 0.25144 0.93614 0.91898 0.0
H751 H 0.21731 0.87182 0.8474 0.0
H752 H 0.23558 0.88278 0.88492 0.0
H753 H 0.21147 0.89473 0.87309 0.0
H754 H 0.23867 0.97463 0.86603 0.0
H755 H 0.22044 0.98577 0.91351 0.0
H756 H 0.4298 0.15557 0.27059 0.0
H757 H 0.39331 0.14435 0.22924 0.0
H758 H 0.38747 0.06492 0.21378 0.0
H759 H 0.42377 0.0758 0.25455 0.0
H760 H 0.39825 0.12171 0.15932 0.0
H761 H 0.30322 0.05608 0.23133 0.0
H762 H 0.33562 0.08399 0.2484 0.0
H763 H 0.33385 0.05185 0.23755 0.0
C764 C 0.42052 0.13562 0.25857 0.0
C765 C 0.42967 0.11656 0.26581 0.0
C766 C 0.39986 0.12936 0.23493 0.0
C767 C 0.38789 0.10387 0.21869 0.0
C768 C 0.39657 0.08469 0.22623 0.0
H769 H 0.27383 0.99393 0.08548 0.0
H770 H 0.31004 0.02196 0.12501 0.0
C771 C 0.41731 0.09097 0.2495 0.0
C772 C 0.36661 0.09689 0.19323 0.0
H773 H 0.29747 0.05082 0.17522 0.0
C774 C 0.37602 0.10675 0.16273 0.0
C775 C 0.33781 0.07737 0.19806 0.0
C776 C 0.32682 0.06676 0.23063 0.0
C777 C 0.35754 0.09605 0.13638 0.0
C778 C 0.32913 0.07523 0.14103 0.0
C779 C 0.31938 0.0667 0.17182 0.0
C780 C 0.30986 0.05979 0.1143 0.0
C781 C 0.36884 0.10566 0.10364 0.0
C782 C 0.2984 0.07209 0.09466 0.0
C783 C 0.27768 0.0561 0.07182 0.0
C784 C 0.26802 0.02758 0.0686 0.0
C785 C 0.28061 0.01576 0.08744 0.0
C786 C 0.30129 0.03172 0.11007 0.0
H787 H 0.39216 0.12002 0.10389 0.0
H788 H 0.36405 0.08764 0.08794 0.0
H789 H 0.35814 0.11644 0.09328 0.0
H790 H 0.30464 0.09371 0.09784 0.0
H791 H 0.2683 0.06581 0.0578 0.0
H792 H 0.0386 0.24365 0.13479 0.0
H793 H 0.02066 0.25752 0.18036 0.0
H794 H 0.9531 0.25405 0.12193 0.0
H795 H 0.97006 0.23856 0.07665 0.0
H796 H 0.01879 0.30185 0.18893 0.0
H797 H 0.90855 0.21621 0.19751 0.0
H798 H 0.93434 0.2139 0.17255 0.0
H799 H 0.91474 0.23025 0.15856 0.0
C800 C 0.01967 0.24545 0.13176 0.0
C801 C 0.00567 0.23998 0.10219 0.0
C802 C 0.00941 0.25335 0.15785 0.0
C803 C 0.98524 0.2564 0.15479 0.0
C804 C 0.97121 0.25095 0.12522 0.0
H805 H 0.95187 0.37066 0.25383 0.0
H806 H 0.96937 0.34597 0.2213 0.0
C807 C 0.98108 0.24238 0.09925 0.0
C808 C 0.9763 0.26766 0.18172 0.0
H809 H 0.91825 0.25968 0.2221 0.0
C810 C -0.00313 0.29232 0.19651 0.0
C811 C 0.94786 0.255 0.19224 0.0
C812 C 0.92523 0.22721 0.17959 0.0
C813 C 0.98955 0.30535 0.22036 0.0
C814 C 0.96068 0.29403 0.22876 0.0
C815 C 0.94033 0.26863 0.21524 0.0
C816 C 0.9509 0.30917 0.24971 0.0
C817 C 0.01289 0.33117 0.23617 0.0
C818 C 0.93394 0.29641 0.27605 0.0
C819 C 0.92333 0.31033 0.29447 0.0
C820 C 0.92963 0.3373 0.28687 0.0
C821 C 0.94691 0.35007 0.26067 0.0
C822 C 0.95712 0.33603 0.2421 0.0
H823 H 0.03338 0.33103 0.23615 0.0
H824 H 0.01603 0.34947 0.22278 0.0
H825 H 0.00761 0.33347 0.26104 0.0
H826 H 0.9287 0.27559 0.28218 0.0
H827 H 0.91004 0.2999 0.31446 0.0
H828 H 0.74149 0.64848 0.29337 0.0
H829 H 0.7487 0.67812 0.24841 0.0
H830 H 0.68487 0.60844 0.19452 0.0
H831 H 0.67715 0.57846 0.23966 0.0
H832 H 0.76756 0.6691 0.19095 0.0
H833 H 0.66594 0.67032 0.17576 0.0
H834 H 0.67564 0.66007 0.21214 0.0
H835 H 0.66253 0.63659 0.1787 0.0
C836 C 0.72858 0.63943 0.27219 0.0
C837 C 0.70887 0.61099 0.27007 0.0
C838 C 0.73272 0.65646 0.24654 0.0
C839 C 0.71721 0.6455 0.21825 0.0
C840 C 0.6967 0.61739 0.21636 0.0
H841 H 0.7783 0.71613 0.03483 0.0
H842 H 0.75631 0.68456 0.07849 0.0
C843 C 0.69243 0.60027 0.24213 0.0
C844 C 0.72496 0.66293 0.18987 0.0
H845 H 0.7 0.69058 0.13492 0.0
C846 C 0.7528 0.67384 0.17875 0.0
C847 C 0.70566 0.66913 0.17416 0.0
C848 C 0.67582 0.65864 0.18587 0.0
C849 C 0.76191 0.69074 0.15223 0.0
C850 C 0.74248 0.69648 0.13606 0.0
C851 C 0.71468 0.68583 0.14727 0.0
C852 C 0.75125 0.71402 0.10781 0.0
C853 C 0.7924 0.70265 0.14197 0.0
C854 C 0.75448 0.74062 0.10939 0.0
C855 C 0.76701 0.7588 0.0844 0.0
C856 C 0.77653 0.7506 0.0575 0.0
C857 C 0.77157 0.72329 0.05531 0.0
C858 C 0.75898 0.70517 0.08022 0.0
H859 H 0.80603 0.70122 0.16082 0.0
H860 H 0.79321 0.69101 0.12078 0.0
H861 H 0.80146 0.72466 0.13546 0.0
H862 H 0.74856 0.74774 0.13056 0.0
H863 H 0.77038 0.77962 0.08684 0.0
H864 H 0.06294 0.46591 0.65043 0.0
H865 H 0.0255 0.45379 0.61036 0.0
H866 H 0.05318 0.403 0.56076 0.0
H867 H 0.08984 0.4142 0.60085 0.0
H868 H 0.03206 0.46515 0.54903 0.0
H869 H 0.96908 0.35201 0.56086 0.0
H870 H -0.00493 0.3739 0.59035 0.0
H871 H 0.00588 0.36253 0.55548 0.0
C872 C 0.06074 0.45179 0.63127 0.0
C873 C 0.07935 0.44095 0.62895 0.0
C874 C 0.03935 0.44491 0.6084 0.0
C875 C 0.03623 0.4271 0.58289 0.0
C876 C 0.0546 0.4161 0.58074 0.0
H877 H 0.97911 0.42283 0.3929 0.0
H878 H 0.00453 0.43295 0.44366 0.0
C879 C 0.07574 0.42272 0.60365 0.0
C880 C 0.01546 0.42171 0.557 0.0
H881 H 0.96543 0.36997 0.51017 0.0
C882 C 0.01711 0.44434 0.54085 0.0
C883 C -0.00439 0.39457 0.54669 0.0
C884 C 0.99109 0.36942 0.56452 0.0
C885 C 0.00051 0.44055 0.51363 0.0
C886 C 0.98245 0.41342 0.50177 0.0
C887 C 0.97968 0.39079 0.51892 0.0
C888 C 0.96692 0.40798 0.47116 0.0
C889 C 0.00258 0.46566 0.49788 0.0
C890 C 0.9375 0.38987 0.46959 0.0
C891 C 0.92303 0.38356 0.44052 0.0
C892 C 0.93771 0.39537 0.41247 0.0
C893 C 0.96717 0.4136 0.41412 0.0
C894 C 0.98169 0.4196 0.44316 0.0
H895 H 0.00905 0.48306 0.51517 0.0
H896 H 0.01903 0.4726 0.47928 0.0
H897 H 0.98205 0.46106 0.48665 0.0
H898 H 0.92571 0.38056 0.49087 0.0
H899 H 0.90029 0.36955 0.4401 0.0
H900 H 0.62262 0.55806 0.37846 0.0
H901 H 0.59807 0.56985 0.41918 0.0
H902 H 0.67639 0.61355 0.47313 0.0
H903 H 0.70123 0.60262 0.4323 0.0
H904 H 0.5902 0.5564 0.48033 0.0
H905 H 0.65076 0.67021 0.47154 0.0
H906 H 0.65309 0.64754 0.44215 0.0
H907 H 0.67377 0.65606 0.47833 0.0
C908 C 0.63466 0.57036 0.39889 0.0
C909 C 0.66393 0.57959 0.40202 0.0
C910 C 0.6206 0.57708 0.4221 0.0
C911 C 0.63554 0.59304 0.44884 0.0
C912 C 0.66464 0.60192 0.45223 0.0
H913 H 0.56906 0.59996 0.63164 0.0
H914 H 0.58896 0.58941 0.58511 0.0
C915 C 0.67876 0.5955 0.42892 0.0
C916 C 0.62055 0.59942 0.47397 0.0
H917 H 0.62364 0.65237 0.51879 0.0
C918 C 0.59729 0.5774 0.48853 0.0
C919 C 0.62951 0.62685 0.48423 0.0
C920 C 0.65295 0.65151 0.468 0.0
C921 C 0.58335 0.58202 0.51386 0.0
C922 C 0.59353 0.60932 0.52546 0.0
C923 C 0.61614 0.6314 0.51017 0.0
C924 C 0.58126 0.61551 0.55361 0.0
C925 C 0.55775 0.55761 0.52769 0.0
C926 C 0.57127 0.63442 0.5516 0.0
C927 C 0.56042 0.64093 0.57829 0.0
C928 C 0.55926 0.62853 0.60748 0.0
C929 C 0.56941 0.60967 0.60945 0.0
C930 C 0.58058 0.60344 0.58281 0.0
H931 H 0.54746 0.54021 0.51022 0.0
H932 H 0.5646 0.55016 0.54841 0.0
H933 H 0.54173 0.56331 0.5357 0.0
H934 H 0.57176 0.64409 0.52931 0.0
H935 H 0.55266 0.65546 0.57593 0.0
H936 H 0.40437 0.9787 0.63308 0.0
H937 H 0.41284 0.01035 0.58982 0.0
H938 H 0.36313 0.94119 0.52649 0.0
H939 H 0.35383 0.90931 0.57 0.0
H940 H 0.44137 0.01285 0.53782 0.0
H941 H 0.33371 0.99263 0.50281 0.0
H942 H 0.34065 0.98068 0.53959 0.0
H943 H 0.33665 0.96188 0.5031 0.0
C944 C 0.39485 0.97019 0.61007 0.0
C945 C 0.37849 0.94147 0.60494 0.0
C946 C 0.39968 0.98834 0.58538 0.0
C947 C 0.3884 0.9782 0.55498 0.0
C948 C 0.37147 0.94955 0.54991 0.0
H949 H 0.44359 0.04723 0.37201 0.0
H950 H 0.42224 0.01777 0.41756 0.0
C951 C 0.36632 0.93133 0.57477 0.0
C952 C 0.39682 0.99747 0.52812 0.0
H953 H 0.37117 0.01811 0.46614 0.0
C954 C 0.42598 0.01421 0.52243 0.0
C955 C 0.37673 -0.00075 0.50802 0.0
C956 C 0.3452 0.98285 0.51384 0.0
C957 C 0.43559 0.03217 0.49681 0.0
C958 C 0.41554 0.03334 0.47629 0.0
C959 C 0.3864 0.01702 0.48205 0.0
C960 C 0.42489 0.0506 0.4479 0.0
C961 C 0.46711 0.04946 0.4913 0.0
C962 C 0.43294 0.0787 0.44993 0.0
C963 C 0.4452 0.09571 0.42392 0.0
C964 C 0.44975 0.08484 0.3956 0.0
C965 C 0.4406 0.05637 0.39346 0.0
C966 C 0.42826 0.03943 0.41939 0.0
H967 H 0.48 0.04624 0.5096 0.0
H968 H 0.47234 0.04428 0.46764 0.0
H969 H 0.47327 0.07168 0.49139 0.0
H970 H 0.4306 0.08761 0.47195 0.0
H971 H 0.45201 0.11751 0.42642 0.0
loop_
_geom_bond_atom_site_label_1
_geom_bond_atom_site_label_2
_geom_bond_distance
_geom_bond_site_symmetry_2
_ccdc_geom_bond_type
Mn0 O5 2.095 1_455 S
Mn0 O15 2.162 1_454 S
Mn0 O16 2.297 1_455 S
Mn0 O24 2.385 1_554 S
Mn0 O25 2.209 . S
Mn0 O26 2.094 1_554 S
Mn1 O6 2.121 . S
Mn1 N8 2.257 . S
Mn1 N17 2.282 . S
Mn1 O25 2.215 . S
Mn1 O27 2.117 1_554 S
C2 O24 1.234 1_554 S
C2 O25 1.283 . S
C3 O15 1.281 1_554 S
C3 O16 1.236 . S
C4 O26 1.240 . S
C4 O27 1.264 . S
O5 Mn0 2.095 1_655 S
O5 C14 1.250 1_655 S
O6 Mn1 2.121 . S
O6 C14 1.258 . S
C7 N8 1.326 . S
C7 C11 1.460 . S
C7 H13 0.929 . S
N8 Mn1 2.257 . S
N8 C7 1.326 . S
N8 C12 1.362 . S
C9 C10 1.258 . S
C9 C12 1.431 . S
C9 C29 1.449 . S
C10 C9 1.258 . S
C10 C11 1.477 . S
C10 H30 0.931 . S
C11 C7 1.460 . S
C11 C10 1.477 . S
C11 H31 0.930 . S
C12 N8 1.362 . S
C12 C9 1.431 . S
C12 C22 1.476 . S
H13 C7 0.929 . S
C14 O5 1.250 1_455 S
C14 O6 1.258 . S
O15 Mn0 2.162 1_656 S
O15 C3 1.281 1_556 S
O16 Mn0 2.297 1_655 S
O16 C3 1.236 . S
N17 Mn1 2.282 . S
N17 C18 1.328 1_554 S
N17 C22 1.318 . S
C18 N17 1.328 1_556 S
C18 C19 1.457 . S
C18 H23 0.929 . S
C19 C18 1.457 . S
C19 C20 1.291 . S
C19 H32 0.931 . S
C20 C19 1.291 . S
C20 C21 1.373 1_556 S
C20 H33 0.929 . S
C21 C20 1.373 1_554 S
C21 C22 1.396 . S
C21 C28 1.403 . S
C22 C12 1.476 . S
C22 N17 1.318 . S
C22 C21 1.396 . S
H23 C18 0.929 . S
O24 Mn0 2.385 1_556 S
O24 C2 1.234 1_556 S
O25 Mn0 2.209 . S
O25 Mn1 2.215 . S
O25 C2 1.283 . S
O26 Mn0 2.094 1_556 S
O26 C4 1.240 . S
O27 Mn1 2.117 1_556 S
O27 C4 1.264 . S
C28 C21 1.403 . S
C28 C29 1.399 . S
C28 H34 0.929 . S
C29 C9 1.449 . S
C29 C28 1.399 . S
C29 H35 0.930 . S
H30 C10 0.931 . S
H31 C11 0.930 . S
H32 C19 0.931 . S
H33 C20 0.929 . S
H34 C28 0.929 . S
H35 C29 0.930 . S
Mn36 O41 2.095 1_554 S
Mn36 O51 2.162 . S
Mn36 O52 2.297 1_554 S
Mn36 O60 2.385 . S
Mn36 O61 2.209 1_554 S
Mn36 O62 2.094 . S
Mn37 O42 2.121 . S
Mn37 N44 2.257 . S
Mn37 N53 2.282 1_556 S
Mn37 O61 2.215 . S
Mn37 O63 2.117 1_556 S
C38 O60 1.234 . S
C38 O61 1.283 1_554 S
C39 O51 1.281 . S
C39 O52 1.236 1_554 S
C40 O62 1.240 . S
C40 O63 1.264 . S
O41 Mn36 2.095 1_556 S
O41 C50 1.250 . S
O42 Mn37 2.121 . S
O42 C50 1.258 . S
C43 N44 1.326 . S
C43 C47 1.460 . S
C43 H49 0.929 . S
N44 Mn37 2.257 . S
N44 C43 1.326 . S
N44 C48 1.362 . S
C45 C46 1.258 . S
C45 C48 1.431 . S
C45 C65 1.449 . S
C46 C45 1.258 . S
C46 C47 1.477 . S
C46 H66 0.931 . S
C47 C43 1.460 . S
C47 C46 1.477 . S
C47 H67 0.930 . S
C48 N44 1.362 . S
C48 C45 1.431 . S
C48 C58 1.476 . S
H49 C43 0.929 . S
C50 O41 1.250 . S
C50 O42 1.258 . S
O51 Mn36 2.162 . S
O51 C39 1.281 . S
O52 Mn36 2.297 1_556 S
O52 C39 1.236 1_556 S
N53 Mn37 2.282 1_554 S
N53 C54 1.328 . S
N53 C58 1.318 1_554 S
C54 N53 1.328 . S
C54 C55 1.457 . S
C54 H59 0.929 . S
C55 C54 1.457 . S
C55 C56 1.291 . S
C55 H68 0.931 . S
C56 C55 1.291 . S
C56 C57 1.373 1_554 S
C56 H69 0.929 . S
C57 C56 1.373 1_556 S
C57 C58 1.396 . S
C57 C64 1.403 . S
C58 C48 1.476 . S
C58 N53 1.318 1_556 S
C58 C57 1.396 . S
H59 C54 0.929 . S
O60 Mn36 2.385 . S
O60 C38 1.234 . S
O61 Mn36 2.209 1_556 S
O61 Mn37 2.215 . S
O61 C38 1.283 1_556 S
O62 Mn36 2.094 . S
O62 C40 1.240 . S
O63 Mn37 2.117 1_554 S
O63 C40 1.264 . S
C64 C57 1.403 . S
C64 C65 1.399 . S
C64 H70 0.929 . S
C65 C45 1.449 . S
C65 C64 1.399 . S
C65 H71 0.930 . S
H66 C46 0.931 . S
H67 C47 0.930 . S
H68 C55 0.931 . S
H69 C56 0.929 . S
H70 C64 0.929 . S
H71 C65 0.930 . S
Mn72 O77 2.095 . S
Mn72 O87 2.162 1_554 S
Mn72 O88 2.297 . S
Mn72 O96 2.385 1_544 S
Mn72 O97 2.209 1_545 S
Mn72 O98 2.094 1_554 S
Mn73 O78 2.149 . S
Mn73 N80 2.257 . S
Mn73 N89 2.282 . S
Mn73 O97 2.215 . S
Mn73 O99 2.117 1_554 S
C74 O96 1.234 1_554 S
C74 O97 1.283 . S
C75 O87 1.281 1_554 S
C75 O88 1.236 . S
C76 O98 1.240 1_565 S
C76 O99 1.264 . S
O77 Mn72 2.095 . S
O77 C86 1.250 . S
O78 Mn73 2.149 . S
O78 C86 1.216 1_565 S
C79 N80 1.326 . S
C79 C83 1.460 . S
C79 H85 0.929 . S
N80 Mn73 2.257 . S
N80 C79 1.326 . S
N80 C84 1.362 . S
C81 C82 1.258 . S
C81 C84 1.431 . S
C81 C101 1.449 . S
C82 C81 1.258 . S
C82 C83 1.477 . S
C82 H102 0.931 . S
C83 C79 1.460 . S
C83 C82 1.477 . S
C83 H103 0.930 . S
C84 N80 1.362 . S
C84 C81 1.431 . S
C84 C94 1.476 . S
H85 C79 0.929 . S
C86 O77 1.250 . S
C86 O78 1.216 1_545 S
O87 Mn72 2.162 1_556 S
O87 C75 1.281 1_556 S
O88 Mn72 2.297 . S
O88 C75 1.236 . S
N89 Mn73 2.282 . S
N89 C90 1.328 1_554 S
N89 C94 1.318 . S
C90 N89 1.328 1_556 S
C90 C91 1.457 . S
C90 H95 0.929 . S
C91 C90 1.457 . S
C91 C92 1.291 . S
C91 H104 0.931 . S
C92 C91 1.291 . S
C92 C93 1.373 1_556 S
C92 H105 0.929 . S
C93 C92 1.373 1_554 S
C93 C94 1.396 . S
C93 C100 1.403 . S
C94 C84 1.476 . S
C94 N89 1.318 . S
C94 C93 1.396 . S
H95 C90 0.929 . S
O96 Mn72 2.385 1_566 S
O96 C74 1.234 1_556 S
O97 Mn72 2.209 1_565 S
O97 Mn73 2.215 . S
O97 C74 1.283 . S
O98 Mn72 2.094 1_556 S
O98 C76 1.240 1_545 S
O99 Mn73 2.117 1_556 S
O99 C76 1.264 . S
C100 C93 1.403 . S
C100 C101 1.399 . S
C100 H106 0.929 . S
C101 C81 1.449 . S
C101 C100 1.399 . S
C101 H107 0.930 . S
H102 C82 0.931 . S
H103 C83 0.930 . S
H104 C91 0.931 . S
H105 C92 0.929 . S
H106 C100 0.929 . S
H107 C101 0.930 . S
Mn108 O113 2.095 . S
Mn108 O123 2.162 . S
Mn108 O124 2.297 . S
Mn108 O132 2.385 . S
Mn108 O133 2.209 . S
Mn108 O134 2.094 . S
Mn109 O114 2.121 . S
Mn109 N116 2.257 . S
Mn109 N125 2.282 . S
Mn109 O133 2.215 . S
Mn109 O135 2.117 . S
C110 O132 1.234 . S
C110 O133 1.283 . S
C111 O123 1.281 . S
C111 O124 1.236 . S
C112 O134 1.240 . S
C112 O135 1.264 . S
O113 Mn108 2.095 . S
O113 C122 1.250 . S
O114 Mn109 2.121 . S
O114 C122 1.258 . S
C115 N116 1.326 . S
C115 C119 1.460 . S
C115 H121 0.929 . S
N116 Mn109 2.257 . S
N116 C115 1.326 . S
N116 C120 1.362 . S
C117 C118 1.258 . S
C117 C120 1.431 . S
C117 C137 1.449 . S
C118 C117 1.258 . S
C118 C119 1.477 . S
C118 H138 0.931 . S
C119 C115 1.460 . S
C119 C118 1.477 . S
C119 H139 0.930 . S
C120 N116 1.362 . S
C120 C117 1.431 . S
C120 C130 1.476 . S
H121 C115 0.929 . S
C122 O113 1.250 . S
C122 O114 1.258 . S
O123 Mn108 2.162 . S
O123 C111 1.281 . S
O124 Mn108 2.297 . S
O124 C111 1.236 . S
N125 Mn109 2.282 . S
N125 C126 1.328 . S
N125 C130 1.318 . S
C126 N125 1.328 . S
C126 C127 1.457 . S
C126 H131 0.929 . S
C127 C126 1.457 . S
C127 C128 1.291 . S
C127 H140 0.931 . S
C128 C127 1.291 . S
C128 C129 1.373 . S
C128 H141 0.929 . S
C129 C128 1.373 . S
C129 C130 1.396 . S
C129 C136 1.403 . S
C130 C120 1.476 . S
C130 N125 1.318 . S
C130 C129 1.396 . S
H131 C126 0.929 . S
O132 Mn108 2.385 . S
O132 C110 1.234 . S
O133 Mn108 2.209 . S
O133 Mn109 2.215 . S
O133 C110 1.283 . S
O134 Mn108 2.094 . S
O134 C112 1.240 . S
O135 Mn109 2.117 . S
O135 C112 1.264 . S
C136 C129 1.403 . S
C136 C137 1.399 . S
C136 H142 0.929 . S
C137 C117 1.449 . S
C137 C136 1.399 . S
C137 H143 0.930 . S
H138 C118 0.931 . S
H139 C119 0.930 . S
H140 C127 0.931 . S
H141 C128 0.929 . S
H142 C136 0.929 . S
H143 C137 0.930 . S
Mn144 O149 2.095 . S
Mn144 O159 2.162 . S
Mn144 O160 2.297 . S
Mn144 O168 2.385 . S
Mn144 O169 2.209 . S
Mn144 O170 2.094 . S
Mn145 O150 2.121 . S
Mn145 N152 2.257 . S
Mn145 N161 2.282 . S
Mn145 O169 2.215 . S
Mn145 O171 2.117 . S
C146 O168 1.234 . S
C146 O169 1.283 . S
C147 O159 1.281 . S
C147 O160 1.236 . S
C148 O170 1.240 . S
C148 O171 1.264 . S
O149 Mn144 2.095 . S
O149 C158 1.250 . S
O150 Mn145 2.121 . S
O150 C158 1.258 . S
C151 N152 1.326 . S
C151 C155 1.460 . S
C151 H157 0.929 . S
N152 Mn145 2.257 . S
N152 C151 1.326 . S
N152 C156 1.362 . S
C153 C154 1.258 . S
C153 C156 1.431 . S
C153 C173 1.449 . S
C154 C153 1.258 . S
C154 C155 1.477 . S
C154 H174 0.931 . S
C155 C151 1.460 . S
C155 C154 1.477 . S
C155 H175 0.930 . S
C156 N152 1.362 . S
C156 C153 1.431 . S
C156 C166 1.476 . S
H157 C151 0.929 . S
C158 O149 1.250 . S
C158 O150 1.258 . S
O159 Mn144 2.162 . S
O159 C147 1.281 . S
O160 Mn144 2.297 . S
O160 C147 1.236 . S
N161 Mn145 2.282 . S
N161 C162 1.328 . S
N161 C166 1.318 . S
C162 N161 1.328 . S
C162 C163 1.457 . S
C162 H167 0.929 . S
C163 C162 1.457 . S
C163 C164 1.291 . S
C163 H176 0.931 . S
C164 C163 1.291 . S
C164 C165 1.373 . S
C164 H177 0.929 . S
C165 C164 1.373 . S
C165 C166 1.396 . S
C165 C172 1.403 . S
C166 C156 1.476 . S
C166 N161 1.318 . S
C166 C165 1.396 . S
H167 C162 0.929 . S
O168 Mn144 2.385 . S
O168 C146 1.234 . S
O169 Mn144 2.209 . S
O169 Mn145 2.215 . S
O169 C146 1.283 . S
O170 Mn144 2.094 . S
O170 C148 1.240 . S
O171 Mn145 2.117 . S
O171 C148 1.264 . S
C172 C165 1.403 . S
C172 C173 1.399 . S
C172 H178 0.929 . S
C173 C153 1.449 . S
C173 C172 1.399 . S
C173 H179 0.930 . S
H174 C154 0.931 . S
H175 C155 0.930 . S
H176 C163 0.931 . S
H177 C164 0.929 . S
H178 C172 0.929 . S
H179 C173 0.930 . S
Mn180 O185 2.095 . S
Mn180 O195 2.162 . S
Mn180 O196 2.297 . S
Mn180 O204 2.385 . S
Mn180 O205 2.209 . S
Mn180 O206 2.094 . S
Mn181 O186 2.121 . S
Mn181 N188 2.257 . S
Mn181 N197 2.282 . S
Mn181 O205 2.215 . S
Mn181 O207 2.117 . S
C182 O204 1.234 . S
C182 O205 1.283 . S
C183 O195 1.281 . S
C183 O196 1.236 . S
C184 O206 1.240 . S
C184 O207 1.264 . S
O185 Mn180 2.095 . S
O185 C194 1.250 . S
O186 Mn181 2.121 . S
O186 C194 1.258 . S
C187 N188 1.326 . S
C187 C191 1.460 . S
C187 H193 0.929 . S
N188 Mn181 2.257 . S
N188 C187 1.326 . S
N188 C192 1.362 . S
C189 C190 1.258 . S
C189 C192 1.431 . S
C189 C209 1.449 . S
C190 C189 1.258 . S
C190 C191 1.477 . S
C190 H210 0.931 . S
C191 C187 1.460 . S
C191 C190 1.477 . S
C191 H211 0.930 . S
C192 N188 1.362 . S
C192 C189 1.431 . S
C192 C202 1.476 . S
H193 C187 0.929 . S
C194 O185 1.250 . S
C194 O186 1.258 . S
O195 Mn180 2.162 . S
O195 C183 1.281 . S
O196 Mn180 2.297 . S
O196 C183 1.236 . S
N197 Mn181 2.282 . S
N197 C198 1.328 . S
N197 C202 1.318 . S
C198 N197 1.328 . S
C198 C199 1.457 . S
C198 H203 0.929 . S
C199 C198 1.457 . S
C199 C200 1.291 . S
C199 H212 0.931 . S
C200 C199 1.291 . S
C200 C201 1.373 . S
C200 H213 0.929 . S
C201 C200 1.373 . S
C201 C202 1.396 . S
C201 C208 1.403 . S
C202 C192 1.476 . S
C202 N197 1.318 . S
C202 C201 1.396 . S
H203 C198 0.929 . S
O204 Mn180 2.385 . S
O204 C182 1.234 . S
O205 Mn180 2.209 . S
O205 Mn181 2.215 . S
O205 C182 1.283 . S
O206 Mn180 2.094 . S
O206 C184 1.240 . S
O207 Mn181 2.117 . S
O207 C184 1.264 . S
C208 C201 1.403 . S
C208 C209 1.399 . S
C208 H214 0.929 . S
C209 C189 1.449 . S
C209 C208 1.399 . S
C209 H215 0.930 . S
H210 C190 0.931 . S
H211 C191 0.930 . S
H212 C199 0.931 . S
H213 C200 0.929 . S
H214 C208 0.929 . S
H215 C209 0.930 . S
Mn216 O221 2.095 . S
Mn216 O231 2.162 . S
Mn216 O232 2.297 . S
Mn216 O240 2.385 . S
Mn216 O241 2.209 . S
Mn216 O242 2.094 . S
Mn217 O222 2.121 . S
Mn217 N224 2.257 . S
Mn217 N233 2.282 . S
Mn217 O241 2.215 . S
Mn217 O243 2.117 . S
C218 O240 1.234 . S
C218 O241 1.283 . S
C219 O231 1.281 . S
C219 O232 1.236 . S
C220 O242 1.240 . S
C220 O243 1.264 . S
O221 Mn216 2.095 . S
O221 C230 1.250 . S
O222 Mn217 2.121 . S
O222 C230 1.258 . S
C223 N224 1.326 . S
C223 C227 1.460 . S
C223 H229 0.929 . S
N224 Mn217 2.257 . S
N224 C223 1.326 . S
N224 C228 1.362 . S
C225 C226 1.258 . S
C225 C228 1.431 . S
C225 C245 1.449 . S
C226 C225 1.258 . S
C226 C227 1.477 . S
C226 H246 0.931 . S
C227 C223 1.460 . S
C227 C226 1.477 . S
C227 H247 0.930 . S
C228 N224 1.362 . S
C228 C225 1.431 . S
C228 C238 1.476 . S
H229 C223 0.929 . S
C230 O221 1.250 . S
C230 O222 1.258 . S
O231 Mn216 2.162 . S
O231 C219 1.281 . S
O232 Mn216 2.297 . S
O232 C219 1.236 . S
N233 Mn217 2.282 . S
N233 C234 1.328 . S
N233 C238 1.318 . S
C234 N233 1.328 . S
C234 C235 1.457 . S
C234 H239 0.929 . S
C235 C234 1.457 . S
C235 C236 1.291 . S
C235 H248 0.931 . S
C236 C235 1.291 . S
C236 C237 1.373 . S
C236 H249 0.929 . S
C237 C236 1.373 . S
C237 C238 1.396 . S
C237 C244 1.403 . S
C238 C228 1.476 . S
C238 N233 1.318 . S
C238 C237 1.396 . S
H239 C234 0.929 . S
O240 Mn216 2.385 . S
O240 C218 1.234 . S
O241 Mn216 2.209 . S
O241 Mn217 2.215 . S
O241 C218 1.283 . S
O242 Mn216 2.094 . S
O242 C220 1.240 . S
O243 Mn217 2.117 . S
O243 C220 1.264 . S
C244 C237 1.403 . S
C244 C245 1.399 . S
C244 H250 0.929 . S
C245 C225 1.449 . S
C245 C244 1.399 . S
C245 H251 0.930 . S
H246 C226 0.931 . S
H247 C227 0.930 . S
H248 C235 0.931 . S
H249 C236 0.929 . S
H250 C244 0.929 . S
H251 C245 0.930 . S
Mn252 O257 2.095 . S
Mn252 O267 2.162 . S
Mn252 O268 2.297 . S
Mn252 O276 2.385 . S
Mn252 O277 2.209 . S
Mn252 O278 2.094 . S
Mn253 O258 2.121 . S
Mn253 N260 2.257 . S
Mn253 N269 2.282 . S
Mn253 O277 2.215 . S
Mn253 O279 2.117 . S
C254 O276 1.234 . S
C254 O277 1.283 . S
C255 O267 1.281 . S
C255 O268 1.236 . S
C256 O278 1.240 . S
C256 O279 1.264 . S
O257 Mn252 2.095 . S
O257 C266 1.250 . S
O258 Mn253 2.121 . S
O258 C266 1.258 . S
C259 N260 1.326 . S
C259 C263 1.460 . S
C259 H265 0.929 . S
N260 Mn253 2.257 . S
N260 C259 1.326 . S
N260 C264 1.362 . S
C261 C262 1.258 . S
C261 C264 1.431 . S
C261 C281 1.449 . S
C262 C261 1.258 . S
C262 C263 1.477 . S
C262 H282 0.931 . S
C263 C259 1.460 . S
C263 C262 1.477 . S
C263 H283 0.930 . S
C264 N260 1.362 . S
C264 C261 1.431 . S
C264 C274 1.476 . S
H265 C259 0.929 . S
C266 O257 1.250 . S
C266 O258 1.258 . S
O267 Mn252 2.162 . S
O267 C255 1.281 . S
O268 Mn252 2.297 . S
O268 C255 1.236 . S
N269 Mn253 2.282 . S
N269 C270 1.328 . S
N269 C274 1.318 . S
C270 N269 1.328 . S
C270 C271 1.457 . S
C270 H275 0.929 . S
C271 C270 1.457 . S
C271 C272 1.291 . S
C271 H284 0.931 . S
C272 C271 1.291 . S
C272 C273 1.373 . S
C272 H285 0.929 . S
C273 C272 1.373 . S
C273 C274 1.396 . S
C273 C280 1.403 . S
C274 C264 1.476 . S
C274 N269 1.318 . S
C274 C273 1.396 . S
H275 C270 0.929 . S
O276 Mn252 2.385 . S
O276 C254 1.234 . S
O277 Mn252 2.209 . S
O277 Mn253 2.215 . S
O277 C254 1.283 . S
O278 Mn252 2.094 . S
O278 C256 1.240 . S
O279 Mn253 2.117 . S
O279 C256 1.264 . S
C280 C273 1.403 . S
C280 C281 1.399 . S
C280 H286 0.929 . S
C281 C261 1.449 . S
C281 C280 1.399 . S
C281 H287 0.930 . S
H282 C262 0.931 . S
H283 C263 0.930 . S
H284 C271 0.931 . S
H285 C272 0.929 . S
H286 C280 0.929 . S
H287 C281 0.930 . S
Mn288 O293 2.095 . S
Mn288 O303 2.162 . S
Mn288 O304 2.297 . S
Mn288 O312 2.385 . S
Mn288 O313 2.209 . S
Mn288 O314 2.094 . S
Mn289 O294 2.121 . S
Mn289 N296 2.257 . S
Mn289 N305 2.282 . S
Mn289 O313 2.215 . S
Mn289 O315 2.117 . S
C290 O312 1.234 . S
C290 O313 1.283 . S
C291 O303 1.281 . S
C291 O304 1.236 . S
C292 O314 1.240 . S
C292 O315 1.264 . S
O293 Mn288 2.095 . S
O293 C302 1.250 . S
O294 Mn289 2.121 . S
O294 C302 1.258 . S
C295 N296 1.326 . S
C295 C299 1.460 . S
C295 H301 0.929 . S
N296 Mn289 2.257 . S
N296 C295 1.326 . S
N296 C300 1.362 . S
C297 C298 1.258 . S
C297 C300 1.431 . S
C297 C317 1.449 . S
C298 C297 1.258 . S
C298 C299 1.477 . S
C298 H318 0.931 . S
C299 C295 1.460 . S
C299 C298 1.477 . S
C299 H319 0.930 . S
C300 N296 1.362 . S
C300 C297 1.431 . S
C300 C310 1.476 . S
H301 C295 0.929 . S
C302 O293 1.250 . S
C302 O294 1.258 . S
O303 Mn288 2.162 . S
O303 C291 1.281 . S
O304 Mn288 2.297 . S
O304 C291 1.236 . S
N305 Mn289 2.282 . S
N305 C306 1.328 . S
N305 C310 1.318 . S
C306 N305 1.328 . S
C306 C307 1.457 . S
C306 H311 0.929 . S
C307 C306 1.457 . S
C307 C308 1.291 . S
C307 H320 0.931 . S
C308 C307 1.291 . S
C308 C309 1.373 . S
C308 H321 0.929 . S
C309 C308 1.373 . S
C309 C310 1.396 . S
C309 C316 1.403 . S
C310 C300 1.476 . S
C310 N305 1.318 . S
C310 C309 1.396 . S
H311 C306 0.929 . S
O312 Mn288 2.385 . S
O312 C290 1.234 . S
O313 Mn288 2.209 . S
O313 Mn289 2.215 . S
O313 C290 1.283 . S
O314 Mn288 2.094 . S
O314 C292 1.240 . S
O315 Mn289 2.117 . S
O315 C292 1.264 . S
C316 C309 1.403 . S
C316 C317 1.399 . S
C316 H322 0.929 . S
C317 C297 1.449 . S
C317 C316 1.399 . S
C317 H323 0.930 . S
H318 C298 0.931 . S
H319 C299 0.930 . S
H320 C307 0.931 . S
H321 C308 0.929 . S
H322 C316 0.929 . S
H323 C317 0.930 . S
H324 C332 0.929 . S
H325 C334 0.930 . S
H326 C336 0.930 . S
H327 C339 0.929 . S
H328 C342 0.930 . S
H329 C344 0.960 . S
H330 C344 0.960 1_556 S
H331 C344 0.960 . S
C332 H324 0.929 . S
C332 C333 1.377 1_556 S
C332 C334 1.384 . S
C333 C332 1.377 1_554 S
C333 C339 1.390 . S
C334 H325 0.930 . S
C334 C332 1.384 . S
C334 C335 1.372 1_556 S
C335 C334 1.372 1_554 S
C335 C336 1.400 . S
C335 C340 1.490 . S
C336 H326 0.930 . S
C336 C335 1.400 . S
C336 C339 1.386 . S
H337 C353 0.930 . S
H338 C354 0.931 . S
C339 H327 0.929 . S
C339 C333 1.390 . S
C339 C336 1.386 . S
C340 C335 1.490 . S
C340 C342 1.395 . S
C340 C343 1.403 . S
H341 C347 0.930 . S
C342 H328 0.930 . S
C342 C340 1.395 . S
C342 C345 1.403 . S
C343 C340 1.403 . S
C343 C344 1.524 . S
C343 C347 1.400 . S
C344 H329 0.960 . S
C344 H330 0.960 1_554 S
C344 H331 0.960 . S
C344 C343 1.524 . S
C345 C342 1.403 . S
C345 C346 1.392 . S
C345 C349 1.495 . S
C346 C345 1.392 . S
C346 C347 1.385 . S
C346 C348 1.478 . S
C347 H341 0.930 . S
C347 C343 1.400 . S
C347 C346 1.385 . S
C348 C346 1.478 . S
C348 C350 1.381 1_554 S
C348 C354 1.383 . S
C349 C345 1.495 . S
C349 H355 0.959 . S
C349 H356 0.961 . S
C349 H357 0.960 1_554 S
C350 C348 1.381 1_556 S
C350 C351 1.394 . S
C350 H358 0.930 . S
C351 C350 1.394 . S
C351 C352 1.383 1_556 S
C351 H359 0.929 . S
C352 C351 1.383 1_554 S
C352 C353 1.377 . S
C353 H337 0.930 . S
C353 C352 1.377 . S
C353 C354 1.379 . S
C354 H338 0.931 . S
C354 C348 1.383 . S
C354 C353 1.379 . S
H355 C349 0.959 . S
H356 C349 0.961 . S
H357 C349 0.960 1_556 S
H358 C350 0.930 . S
H359 C351 0.929 . S
H360 C368 0.929 . S
H361 C370 0.930 . S
H362 C372 0.930 . S
H363 C375 0.929 . S
H364 C378 0.930 . S
H365 C380 0.960 1_545 S
H366 C380 0.960 . S
H367 C380 0.960 . S
C368 H360 0.929 . S
C368 C369 1.377 1_556 S
C368 C370 1.384 . S
C369 C368 1.377 1_554 S
C369 C375 1.390 . S
C370 H361 0.930 . S
C370 C368 1.384 . S
C370 C371 1.372 1_556 S
C371 C370 1.372 1_554 S
C371 C372 1.400 . S
C371 C376 1.490 . S
C372 H362 0.930 . S
C372 C371 1.400 . S
C372 C375 1.386 . S
H373 C389 0.930 . S
H374 C390 0.931 . S
C375 H363 0.929 . S
C375 C369 1.390 . S
C375 C372 1.386 . S
C376 C371 1.490 . S
C376 C378 1.395 1_554 S
C376 C379 1.403 1_565 S
H377 C383 0.930 . S
C378 H364 0.930 . S
C378 C376 1.395 1_556 S
C378 C381 1.403 1_565 S
C379 C376 1.403 1_545 S
C379 C380 1.524 1_545 S
C379 C383 1.400 . S
C380 H365 0.960 1_565 S
C380 H366 0.960 . S
C380 H367 0.960 . S
C380 C379 1.524 1_565 S
C381 C378 1.403 1_545 S
C381 C382 1.392 1_556 S
C381 C385 1.495 . S
C382 C381 1.392 1_554 S
C382 C383 1.385 . S
C382 C384 1.478 . S
C383 H377 0.930 . S
C383 C379 1.400 . S
C383 C382 1.385 . S
C384 C382 1.478 . S
C384 C386 1.381 1_554 S
C384 C390 1.383 . S
C385 C381 1.495 . S
C385 H391 0.959 . S
C385 H392 0.961 . S
C385 H393 0.960 . S
C386 C384 1.381 1_556 S
C386 C387 1.394 . S
C386 H394 0.930 . S
C387 C386 1.394 . S
C387 C388 1.383 1_556 S
C387 H395 0.929 . S
C388 C387 1.383 1_554 S
C388 C389 1.377 . S
C389 H373 0.930 . S
C389 C388 1.377 . S
C389 C390 1.379 . S
C390 H374 0.931 . S
C390 C384 1.383 . S
C390 C389 1.379 . S
H391 C385 0.959 . S
H392 C385 0.961 . S
H393 C385 0.960 . S
H394 C386 0.930 . S
H395 C387 0.929 . S
H396 C404 0.929 . S
H397 C406 0.930 . S
H398 C408 0.930 . S
H399 C411 0.929 . S
H400 C414 0.926 1_655 S
H401 C416 0.960 1_455 S
H402 C416 0.960 . S
H403 C416 0.960 . S
C404 H396 0.929 . S
C404 C405 1.377 . S
C404 C406 1.384 . S
C405 C404 1.377 . S
C405 C411 1.390 1_554 S
C406 H397 0.930 . S
C406 C404 1.384 . S
C406 C407 1.372 . S
C407 C406 1.372 . S
C407 C408 1.400 1_554 S
C407 C412 1.490 . S
C408 H398 0.930 . S
C408 C407 1.400 1_556 S
C408 C411 1.386 . S
H409 C425 0.930 . S
H410 C426 0.931 . S
C411 H399 0.929 . S
C411 C405 1.390 1_556 S
C411 C408 1.386 . S
C412 C407 1.490 . S
C412 C414 1.377 1_655 S
C412 C415 1.403 1_654 S
H413 C419 0.930 . S
C414 H400 0.926 1_455 S
C414 C412 1.377 1_455 S
C414 C417 1.425 . S
C415 C412 1.403 1_456 S
C415 C416 1.524 1_455 S
C415 C419 1.400 . S
C416 H401 0.960 1_655 S
C416 H402 0.960 . S
C416 H403 0.960 . S
C416 C415 1.524 1_655 S
C417 C414 1.425 . S
C417 C418 1.392 . S
C417 C421 1.495 . S
C418 C417 1.392 . S
C418 C419 1.385 1_554 S
C418 C420 1.478 . S
C419 H413 0.930 . S
C419 C415 1.400 . S
C419 C418 1.385 1_556 S
C420 C418 1.478 . S
C420 C422 1.381 . S
C420 C426 1.383 1_554 S
C421 C417 1.495 . S
C421 H427 0.959 . S
C421 H428 0.961 . S
C421 H429 0.960 . S
C422 C420 1.381 . S
C422 C423 1.394 . S
C422 H430 0.930 . S
C423 C422 1.394 . S
C423 C424 1.383 . S
C423 H431 0.929 . S
C424 C423 1.383 . S
C424 C425 1.377 1_554 S
C425 H409 0.930 . S
C425 C424 1.377 1_556 S
C425 C426 1.379 . S
C426 H410 0.931 . S
C426 C420 1.383 1_556 S
C426 C425 1.379 . S
H427 C421 0.959 . S
H428 C421 0.961 . S
H429 C421 0.960 . S
H430 C422 0.930 . S
H431 C423 0.929 . S
H432 C440 0.929 . S
H433 C442 0.930 . S
H434 C444 0.930 . S
H435 C447 0.929 . S
H436 C450 0.930 . S
H437 C452 0.960 . S
H438 C452 0.960 . S
H439 C452 0.960 . S
C440 H432 0.929 . S
C440 C441 1.377 . S
C440 C442 1.384 . S
C441 C440 1.377 . S
C441 C447 1.390 . S
C442 H433 0.930 . S
C442 C440 1.384 . S
C442 C443 1.372 . S
C443 C442 1.372 . S
C443 C444 1.400 . S
C443 C448 1.490 . S
C444 H434 0.930 . S
C444 C443 1.400 . S
C444 C447 1.386 . S
H445 C461 0.930 . S
H446 C462 0.931 . S
C447 H435 0.929 . S
C447 C441 1.390 . S
C447 C444 1.386 . S
C448 C443 1.490 . S
C448 C450 1.395 . S
C448 C451 1.403 . S
H449 C455 0.930 . S
C450 H436 0.930 . S
C450 C448 1.395 . S
C450 C453 1.403 . S
C451 C448 1.403 . S
C451 C452 1.524 . S
C451 C455 1.400 . S
C452 H437 0.960 . S
C452 H438 0.960 . S
C452 H439 0.960 . S
C452 C451 1.524 . S
C453 C450 1.403 . S
C453 C454 1.392 . S
C453 C457 1.495 . S
C454 C453 1.392 . S
C454 C455 1.385 . S
C454 C456 1.478 . S
C455 H449 0.930 . S
C455 C451 1.400 . S
C455 C454 1.385 . S
C456 C454 1.478 . S
C456 C458 1.381 . S
C456 C462 1.383 . S
C457 C453 1.495 . S
C457 H463 0.959 . S
C457 H464 0.961 . S
C457 H465 0.960 . S
C458 C456 1.381 . S
C458 C459 1.394 . S
C458 H466 0.930 . S
C459 C458 1.394 . S
C459 C460 1.383 . S
C459 H467 0.929 . S
C460 C459 1.383 . S
C460 C461 1.377 . S
C461 H445 0.930 . S
C461 C460 1.377 . S
C461 C462 1.379 . S
C462 H446 0.931 . S
C462 C456 1.383 . S
C462 C461 1.379 . S
H463 C457 0.959 . S
H464 C457 0.961 . S
H465 C457 0.960 . S
H466 C458 0.930 . S
H467 C459 0.929 . S
H468 C476 0.929 . S
H469 C478 0.930 . S
H470 C480 0.930 . S
H471 C483 0.929 . S
H472 C486 0.930 . S
H473 C488 0.960 . S
H474 C488 0.960 . S
H475 C488 0.960 . S
C476 H468 0.929 . S
C476 C477 1.377 . S
C476 C478 1.384 . S
C477 C476 1.377 . S
C477 C483 1.390 . S
C478 H469 0.930 . S
C478 C476 1.384 . S
C478 C479 1.372 . S
C479 C478 1.372 . S
C479 C480 1.400 . S
C479 C484 1.490 . S
C480 H470 0.930 . S
C480 C479 1.400 . S
C480 C483 1.386 . S
H481 C497 0.930 . S
H482 C498 0.931 . S
C483 H471 0.929 . S
C483 C477 1.390 . S
C483 C480 1.386 . S
C484 C479 1.490 . S
C484 C486 1.395 . S
C484 C487 1.403 . S
H485 C491 0.930 . S
C486 H472 0.930 . S
C486 C484 1.395 . S
C486 C489 1.403 . S
C487 C484 1.403 . S
C487 C488 1.524 . S
C487 C491 1.400 . S
C488 H473 0.960 . S
C488 H474 0.960 . S
C488 H475 0.960 . S
C488 C487 1.524 . S
C489 C486 1.403 . S
C489 C490 1.392 . S
C489 C493 1.495 . S
C490 C489 1.392 . S
C490 C491 1.385 . S
C490 C492 1.478 . S
C491 H485 0.930 . S
C491 C487 1.400 . S
C491 C490 1.385 . S
C492 C490 1.478 . S
C492 C494 1.381 . S
C492 C498 1.383 . S
C493 C489 1.495 . S
C493 H499 0.959 . S
C493 H500 0.961 . S
C493 H501 0.960 . S
C494 C492 1.381 . S
C494 C495 1.394 . S
C494 H502 0.930 . S
C495 C494 1.394 . S
C495 C496 1.383 . S
C495 H503 0.929 . S
C496 C495 1.383 . S
C496 C497 1.377 . S
C497 H481 0.930 . S
C497 C496 1.377 . S
C497 C498 1.379 . S
C498 H482 0.931 . S
C498 C492 1.383 . S
C498 C497 1.379 . S
H499 C493 0.959 . S
H500 C493 0.961 . S
H501 C493 0.960 . S
H502 C494 0.930 . S
H503 C495 0.929 . S
H504 C512 0.929 . S
H505 C514 0.930 . S
H506 C516 0.930 . S
H507 C519 0.929 . S
H508 C522 0.930 . S
H509 C524 0.960 . S
H510 C524 0.960 . S
H511 C524 0.960 . S
C512 H504 0.929 . S
C512 C513 1.377 . S
C512 C514 1.384 . S
C513 C512 1.377 . S
C513 C519 1.390 . S
C514 H505 0.930 . S
C514 C512 1.384 . S
C514 C515 1.372 . S
C515 C514 1.372 . S
C515 C516 1.400 . S
C515 C520 1.490 . S
C516 H506 0.930 . S
C516 C515 1.400 . S
C516 C519 1.386 . S
H517 C533 0.930 . S
H518 C534 0.931 . S
C519 H507 0.929 . S
C519 C513 1.390 . S
C519 C516 1.386 . S
C520 C515 1.490 . S
C520 C522 1.395 . S
C520 C523 1.403 . S
H521 C527 0.930 . S
C522 H508 0.930 . S
C522 C520 1.395 . S
C522 C525 1.403 . S
C523 C520 1.403 . S
C523 C524 1.524 . S
C523 C527 1.400 . S
C524 H509 0.960 . S
C524 H510 0.960 . S
C524 H511 0.960 . S
C524 C523 1.524 . S
C525 C522 1.403 . S
C525 C526 1.392 . S
C525 C529 1.495 . S
C526 C525 1.392 . S
C526 C527 1.385 . S
C526 C528 1.478 . S
C527 H521 0.930 . S
C527 C523 1.400 . S
C527 C526 1.385 . S
C528 C526 1.478 . S
C528 C530 1.381 . S
C528 C534 1.383 . S
C529 C525 1.495 . S
C529 H535 0.959 . S
C529 H536 0.961 . S
C529 H537 0.960 . S
C530 C528 1.381 . S
C530 C531 1.394 . S
C530 H538 0.930 . S
C531 C530 1.394 . S
C531 C532 1.383 . S
C531 H539 0.929 . S
C532 C531 1.383 . S
C532 C533 1.377 . S
C533 H517 0.930 . S
C533 C532 1.377 . S
C533 C534 1.379 . S
C534 H518 0.931 . S
C534 C528 1.383 . S
C534 C533 1.379 . S
H535 C529 0.959 . S
H536 C529 0.961 . S
H537 C529 0.960 . S
H538 C530 0.930 . S
H539 C531 0.929 . S
H540 C548 0.929 . S
H541 C550 0.930 . S
H542 C552 0.930 . S
H543 C555 0.929 . S
H544 C558 0.930 . S
H545 C560 0.960 . S
H546 C560 0.960 . S
H547 C560 0.960 . S
C548 H540 0.929 . S
C548 C549 1.377 . S
C548 C550 1.384 . S
C549 C548 1.377 . S
C549 C555 1.390 . S
C550 H541 0.930 . S
C550 C548 1.384 . S
C550 C551 1.372 . S
C551 C550 1.372 . S
C551 C552 1.400 . S
C551 C556 1.490 . S
C552 H542 0.930 . S
C552 C551 1.400 . S
C552 C555 1.386 . S
H553 C569 0.930 . S
H554 C570 0.931 . S
C555 H543 0.929 . S
C555 C549 1.390 . S
C555 C552 1.386 . S
C556 C551 1.490 . S
C556 C558 1.395 . S
C556 C559 1.403 . S
H557 C563 0.930 . S
C558 H544 0.930 . S
C558 C556 1.395 . S
C558 C561 1.403 . S
C559 C556 1.403 . S
C559 C560 1.524 . S
C559 C563 1.400 . S
C560 H545 0.960 . S
C560 H546 0.960 . S
C560 H547 0.960 . S
C560 C559 1.524 . S
C561 C558 1.403 . S
C561 C562 1.392 . S
C561 C565 1.495 . S
C562 C561 1.392 . S
C562 C563 1.385 . S
C562 C564 1.478 . S
C563 H557 0.930 . S
C563 C559 1.400 . S
C563 C562 1.385 . S
C564 C562 1.478 . S
C564 C566 1.381 . S
C564 C570 1.383 . S
C565 C561 1.495 . S
C565 H571 0.959 . S
C565 H572 0.961 . S
C565 H573 0.960 . S
C566 C564 1.381 . S
C566 C567 1.394 . S
C566 H574 0.930 . S
C567 C566 1.394 . S
C567 C568 1.383 . S
C567 H575 0.929 . S
C568 C567 1.383 . S
C568 C569 1.377 . S
C569 H553 0.930 . S
C569 C568 1.377 . S
C569 C570 1.379 . S
C570 H554 0.931 . S
C570 C564 1.383 . S
C570 C569 1.379 . S
H571 C565 0.959 . S
H572 C565 0.961 . S
H573 C565 0.960 . S
H574 C566 0.930 . S
H575 C567 0.929 . S
H576 C584 0.929 . S
H577 C586 0.930 . S
H578 C588 0.930 . S
H579 C591 0.929 . S
H580 C594 0.930 . S
H581 C596 0.960 . S
H582 C596 0.960 . S
H583 C596 0.960 . S
C584 H576 0.929 . S
C584 C585 1.377 . S
C584 C586 1.384 . S
C585 C584 1.377 . S
C585 C591 1.390 . S
C586 H577 0.930 . S
C586 C584 1.384 . S
C586 C587 1.372 . S
C587 C586 1.372 . S
C587 C588 1.400 . S
C587 C592 1.490 . S
C588 H578 0.930 . S
C588 C587 1.400 . S
C588 C591 1.386 . S
H589 C605 0.930 . S
H590 C606 0.931 . S
C591 H579 0.929 . S
C591 C585 1.390 . S
C591 C588 1.386 . S
C592 C587 1.490 . S
C592 C594 1.395 . S
C592 C595 1.403 . S
H593 C599 0.930 . S
C594 H580 0.930 . S
C594 C592 1.395 . S
C594 C597 1.403 . S
C595 C592 1.403 . S
C595 C596 1.524 . S
C595 C599 1.400 . S
C596 H581 0.960 . S
C596 H582 0.960 . S
C596 H583 0.960 . S
C596 C595 1.524 . S
C597 C594 1.403 . S
C597 C598 1.392 . S
C597 C601 1.495 . S
C598 C597 1.392 . S
C598 C599 1.385 . S
C598 C600 1.478 . S
C599 H593 0.930 . S
C599 C595 1.400 . S
C599 C598 1.385 . S
C600 C598 1.478 . S
C600 C602 1.381 . S
C600 C606 1.383 . S
C601 C597 1.495 . S
C601 H607 0.959 . S
C601 H608 0.961 . S
C601 H609 0.960 . S
C602 C600 1.381 . S
C602 C603 1.394 . S
C602 H610 0.930 . S
C603 C602 1.394 . S
C603 C604 1.383 . S
C603 H611 0.929 . S
C604 C603 1.383 . S
C604 C605 1.377 . S
C605 H589 0.930 . S
C605 C604 1.377 . S
C605 C606 1.379 . S
C606 H590 0.931 . S
C606 C600 1.383 . S
C606 C605 1.379 . S
H607 C601 0.959 . S
H608 C601 0.961 . S
H609 C601 0.960 . S
H610 C602 0.930 . S
H611 C603 0.929 . S
H612 C620 0.929 . S
H613 C622 0.930 . S
H614 C624 0.930 . S
H615 C627 0.929 . S
H616 C630 0.930 . S
H617 C632 0.960 . S
H618 C632 0.960 . S
H619 C632 0.960 . S
C620 H612 0.929 . S
C620 C621 1.377 . S
C620 C622 1.384 . S
C621 C620 1.377 . S
C621 C627 1.390 . S
C622 H613 0.930 . S
C622 C620 1.384 . S
C622 C623 1.372 . S
C623 C622 1.372 . S
C623 C624 1.400 . S
C623 C628 1.490 . S
C624 H614 0.930 . S
C624 C623 1.400 . S
C624 C627 1.386 . S
H625 C641 0.930 . S
H626 C642 0.931 . S
C627 H615 0.929 . S
C627 C621 1.390 . S
C627 C624 1.386 . S
C628 C623 1.490 . S
C628 C630 1.395 . S
C628 C631 1.403 . S
H629 C635 0.930 . S
C630 H616 0.930 . S
C630 C628 1.395 . S
C630 C633 1.403 . S
C631 C628 1.403 . S
C631 C632 1.524 . S
C631 C635 1.400 . S
C632 H617 0.960 . S
C632 H618 0.960 . S
C632 H619 0.960 . S
C632 C631 1.524 . S
C633 C630 1.403 . S
C633 C634 1.392 . S
C633 C637 1.495 . S
C634 C633 1.392 . S
C634 C635 1.385 . S
C634 C636 1.478 . S
C635 H629 0.930 . S
C635 C631 1.400 . S
C635 C634 1.385 . S
C636 C634 1.478 . S
C636 C638 1.381 . S
C636 C642 1.383 . S
C637 C633 1.495 . S
C637 H643 0.959 . S
C637 H644 0.961 . S
C637 H645 0.960 . S
C638 C636 1.381 . S
C638 C639 1.394 . S
C638 H646 0.930 . S
C639 C638 1.394 . S
C639 C640 1.383 . S
C639 H647 0.929 . S
C640 C639 1.383 . S
C640 C641 1.377 . S
C641 H625 0.930 . S
C641 C640 1.377 . S
C641 C642 1.379 . S
C642 H626 0.931 . S
C642 C636 1.383 . S
C642 C641 1.379 . S
H643 C637 0.959 . S
H644 C637 0.961 . S
H645 C637 0.960 . S
H646 C638 0.930 . S
H647 C639 0.929 . S
H648 C656 0.929 . S
H649 C658 0.930 . S
H650 C660 0.930 . S
H651 C663 0.929 . S
H652 C666 0.930 . S
H653 C668 0.960 . S
H654 C668 0.960 . S
H655 C668 0.960 . S
C656 H648 0.929 . S
C656 C657 1.377 . S
C656 C658 1.384 . S
C657 C656 1.377 . S
C657 C663 1.390 . S
C658 H649 0.930 . S
C658 C656 1.384 . S
C658 C659 1.372 . S
C659 C658 1.372 . S
C659 C660 1.400 . S
C659 C664 1.490 . S
C660 H650 0.930 . S
C660 C659 1.400 . S
C660 C663 1.386 . S
H661 C677 0.930 . S
H662 C678 0.931 . S
C663 H651 0.929 . S
C663 C657 1.390 . S
C663 C660 1.386 . S
C664 C659 1.490 . S
C664 C666 1.395 . S
C664 C667 1.403 . S
H665 C671 0.930 . S
C666 H652 0.930 . S
C666 C664 1.395 . S
C666 C669 1.403 . S
C667 C664 1.403 . S
C667 C668 1.524 . S
C667 C671 1.400 . S
C668 H653 0.960 . S
C668 H654 0.960 . S
C668 H655 0.960 . S
C668 C667 1.524 . S
C669 C666 1.403 . S
C669 C670 1.392 . S
C669 C673 1.495 . S
C670 C669 1.392 . S
C670 C671 1.385 . S
C670 C672 1.478 . S
C671 H665 0.930 . S
C671 C667 1.400 . S
C671 C670 1.385 . S
C672 C670 1.478 . S
C672 C674 1.381 . S
C672 C678 1.383 . S
C673 C669 1.495 . S
C673 H679 0.959 . S
C673 H680 0.961 . S
C673 H681 0.960 . S
C674 C672 1.381 . S
C674 C675 1.394 . S
C674 H682 0.930 . S
C675 C674 1.394 . S
C675 C676 1.383 . S
C675 H683 0.929 . S
C676 C675 1.383 . S
C676 C677 1.377 . S
C677 H661 0.930 . S
C677 C676 1.377 . S
C677 C678 1.379 . S
C678 H662 0.931 . S
C678 C672 1.383 . S
C678 C677 1.379 . S
H679 C673 0.959 . S
H680 C673 0.961 . S
H681 C673 0.960 . S
H682 C674 0.930 . S
H683 C675 0.929 . S
H684 C692 0.929 . S
H685 C694 0.930 . S
H686 C696 0.930 . S
H687 C699 0.929 . S
H688 C702 0.930 . S
H689 C704 0.960 . S
H690 C704 0.960 . S
H691 C704 0.960 . S
C692 H684 0.929 . S
C692 C693 1.377 . S
C692 C694 1.384 . S
C693 C692 1.377 . S
C693 C699 1.390 . S
C694 H685 0.930 . S
C694 C692 1.384 . S
C694 C695 1.372 . S
C695 C694 1.372 . S
C695 C696 1.400 . S
C695 C700 1.490 . S
C696 H686 0.930 . S
C696 C695 1.400 . S
C696 C699 1.386 . S
H697 C713 0.930 . S
H698 C714 0.931 . S
C699 H687 0.929 . S
C699 C693 1.390 . S
C699 C696 1.386 . S
C700 C695 1.490 . S
C700 C702 1.395 . S
C700 C703 1.403 . S
H701 C707 0.930 . S
C702 H688 0.930 . S
C702 C700 1.395 . S
C702 C705 1.403 . S
C703 C700 1.403 . S
C703 C704 1.524 . S
C703 C707 1.400 . S
C704 H689 0.960 . S
C704 H690 0.960 . S
C704 H691 0.960 . S
C704 C703 1.524 . S
C705 C702 1.403 . S
C705 C706 1.392 . S
C705 C709 1.495 . S
C706 C705 1.392 . S
C706 C707 1.385 . S
C706 C708 1.478 . S
C707 H701 0.930 . S
C707 C703 1.400 . S
C707 C706 1.385 . S
C708 C706 1.478 . S
C708 C710 1.381 . S
C708 C714 1.383 . S
C709 C705 1.495 . S
C709 H715 0.959 . S
C709 H716 0.961 . S
C709 H717 0.960 . S
C710 C708 1.381 . S
C710 C711 1.394 . S
C710 H718 0.930 . S
C711 C710 1.394 . S
C711 C712 1.383 . S
C711 H719 0.929 . S
C712 C711 1.383 . S
C712 C713 1.377 . S
C713 H697 0.930 . S
C713 C712 1.377 . S
C713 C714 1.379 . S
C714 H698 0.931 . S
C714 C708 1.383 . S
C714 C713 1.379 . S
H715 C709 0.959 . S
H716 C709 0.961 . S
H717 C709 0.960 . S
H718 C710 0.930 . S
H719 C711 0.929 . S
H720 C728 0.929 . S
H721 C730 0.930 . S
H722 C732 0.930 . S
H723 C735 0.929 . S
H724 C738 0.930 . S
H725 C740 0.960 . S
H726 C740 0.960 . S
H727 C740 0.960 . S
C728 H720 0.929 . S
C728 C729 1.377 . S
C728 C730 1.384 . S
C729 C728 1.377 . S
C729 C735 1.390 . S
C730 H721 0.930 . S
C730 C728 1.384 . S
C730 C731 1.372 . S
C731 C730 1.372 . S
C731 C732 1.400 . S
C731 C736 1.490 . S
C732 H722 0.930 . S
C732 C731 1.400 . S
C732 C735 1.386 . S
H733 C749 0.930 . S
H734 C750 0.931 . S
C735 H723 0.929 . S
C735 C729 1.390 . S
C735 C732 1.386 . S
C736 C731 1.490 . S
C736 C738 1.395 . S
C736 C739 1.403 . S
H737 C743 0.930 . S
C738 H724 0.930 . S
C738 C736 1.395 . S
C738 C741 1.403 . S
C739 C736 1.403 . S
C739 C740 1.524 . S
C739 C743 1.400 . S
C740 H725 0.960 . S
C740 H726 0.960 . S
C740 H727 0.960 . S
C740 C739 1.524 . S
C741 C738 1.403 . S
C741 C742 1.392 . S
C741 C745 1.495 . S
C742 C741 1.392 . S
C742 C743 1.385 . S
C742 C744 1.478 . S
C743 H737 0.930 . S
C743 C739 1.400 . S
C743 C742 1.385 . S
C744 C742 1.478 . S
C744 C746 1.381 . S
C744 C750 1.383 . S
C745 C741 1.495 . S
C745 H751 0.959 . S
C745 H752 0.961 . S
C745 H753 0.960 . S
C746 C744 1.381 . S
C746 C747 1.394 . S
C746 H754 0.930 . S
C747 C746 1.394 . S
C747 C748 1.383 . S
C747 H755 0.929 1_565 S
C748 C747 1.383 . S
C748 C749 1.377 . S
C749 H733 0.930 . S
C749 C748 1.377 . S
C749 C750 1.379 . S
C750 H734 0.931 . S
C750 C744 1.383 . S
C750 C749 1.379 . S
H751 C745 0.959 . S
H752 C745 0.961 . S
H753 C745 0.960 . S
H754 C746 0.930 . S
H755 C747 0.929 1_545 S
H756 C764 0.929 . S
H757 C766 0.930 . S
H758 C768 0.930 . S
H759 C771 0.929 . S
H760 C774 0.930 . S
H761 C776 0.960 . S
H762 C776 0.960 . S
H763 C776 0.960 . S
C764 H756 0.929 . S
C764 C765 1.377 . S
C764 C766 1.384 . S
C765 C764 1.377 . S
C765 C771 1.390 . S
C766 H757 0.930 . S
C766 C764 1.384 . S
C766 C767 1.372 . S
C767 C766 1.372 . S
C767 C768 1.400 . S
C767 C772 1.490 . S
C768 H758 0.930 . S
C768 C767 1.400 . S
C768 C771 1.386 . S
H769 C785 0.930 . S
H770 C786 0.931 . S
C771 H759 0.929 . S
C771 C765 1.390 . S
C771 C768 1.386 . S
C772 C767 1.490 . S
C772 C774 1.395 . S
C772 C775 1.403 . S
H773 C779 0.930 . S
C774 H760 0.930 . S
C774 C772 1.395 . S
C774 C777 1.403 . S
C775 C772 1.403 . S
C775 C776 1.524 . S
C775 C779 1.400 . S
C776 H761 0.960 . S
C776 H762 0.960 . S
C776 H763 0.960 . S
C776 C775 1.524 . S
C777 C774 1.403 . S
C777 C778 1.392 . S
C777 C781 1.495 . S
C778 C777 1.392 . S
C778 C779 1.385 . S
C778 C780 1.478 . S
C779 H773 0.930 . S
C779 C775 1.400 . S
C779 C778 1.385 . S
C780 C778 1.478 . S
C780 C782 1.381 . S
C780 C786 1.383 . S
C781 C777 1.495 . S
C781 H787 0.959 . S
C781 H788 0.961 . S
C781 H789 0.960 . S
C782 C780 1.381 . S
C782 C783 1.394 . S
C782 H790 0.930 . S
C783 C782 1.394 . S
C783 C784 1.383 . S
C783 H791 0.929 . S
C784 C783 1.383 . S
C784 C785 1.377 . S
C785 H769 0.930 . S
C785 C784 1.377 . S
C785 C786 1.379 . S
C786 H770 0.931 . S
C786 C780 1.383 . S
C786 C785 1.379 . S
H787 C781 0.959 . S
H788 C781 0.961 . S
H789 C781 0.960 . S
H790 C782 0.930 . S
H791 C783 0.929 . S
H792 C800 0.929 1_455 S
H793 C802 0.930 . S
H794 C804 0.930 . S
H795 C807 0.929 . S
H796 C810 0.930 . S
H797 C812 0.960 . S
H798 C812 0.960 . S
H799 C812 0.960 . S
C800 H792 0.929 1_655 S
C800 C801 1.377 . S
C800 C802 1.384 . S
C801 C800 1.377 . S
C801 C807 1.390 . S
C802 H793 0.930 . S
C802 C800 1.384 . S
C802 C803 1.372 . S
C803 C802 1.372 . S
C803 C804 1.400 . S
C803 C808 1.490 . S
C804 H794 0.930 . S
C804 C803 1.400 . S
C804 C807 1.386 . S
H805 C821 0.930 . S
H806 C822 0.931 . S
C807 H795 0.929 . S
C807 C801 1.390 . S
C807 C804 1.386 . S
C808 C803 1.490 . S
C808 C810 1.395 . S
C808 C811 1.403 . S
H809 C815 0.930 . S
C810 H796 0.930 . S
C810 C808 1.395 . S
C810 C813 1.403 . S
C811 C808 1.403 . S
C811 C812 1.524 . S
C811 C815 1.400 . S
C812 H797 0.960 . S
C812 H798 0.960 . S
C812 H799 0.960 . S
C812 C811 1.524 . S
C813 C810 1.403 . S
C813 C814 1.392 . S
C813 C817 1.495 . S
C814 C813 1.392 . S
C814 C815 1.385 . S
C814 C816 1.478 . S
C815 H809 0.930 . S
C815 C811 1.400 . S
C815 C814 1.385 . S
C816 C814 1.478 . S
C816 C818 1.381 . S
C816 C822 1.383 . S
C817 C813 1.495 . S
C817 H823 0.959 1_655 S
C817 H824 0.961 . S
C817 H825 0.960 . S
C818 C816 1.381 . S
C818 C819 1.394 . S
C818 H826 0.930 . S
C819 C818 1.394 . S
C819 C820 1.383 . S
C819 H827 0.929 . S
C820 C819 1.383 . S
C820 C821 1.377 . S
C821 H805 0.930 . S
C821 C820 1.377 . S
C821 C822 1.379 . S
C822 H806 0.931 . S
C822 C816 1.383 . S
C822 C821 1.379 . S
H823 C817 0.959 1_455 S
H824 C817 0.961 . S
H825 C817 0.960 . S
H826 C818 0.930 . S
H827 C819 0.929 . S
H828 C836 0.929 . S
H829 C838 0.930 . S
H830 C840 0.930 . S
H831 C843 0.929 . S
H832 C846 0.930 . S
H833 C848 0.960 . S
H834 C848 0.960 . S
H835 C848 0.960 . S
C836 H828 0.929 . S
C836 C837 1.377 . S
C836 C838 1.384 . S
C837 C836 1.377 . S
C837 C843 1.390 . S
C838 H829 0.930 . S
C838 C836 1.384 . S
C838 C839 1.372 . S
C839 C838 1.372 . S
C839 C840 1.400 . S
C839 C844 1.490 . S
C840 H830 0.930 . S
C840 C839 1.400 . S
C840 C843 1.386 . S
H841 C857 0.930 . S
H842 C858 0.931 . S
C843 H831 0.929 . S
C843 C837 1.390 . S
C843 C840 1.386 . S
C844 C839 1.490 . S
C844 C846 1.395 . S
C844 C847 1.403 . S
H845 C851 0.930 . S
C846 H832 0.930 . S
C846 C844 1.395 . S
C846 C849 1.403 . S
C847 C844 1.403 . S
C847 C848 1.524 . S
C847 C851 1.400 . S
C848 H833 0.960 . S
C848 H834 0.960 . S
C848 H835 0.960 . S
C848 C847 1.524 . S
C849 C846 1.403 . S
C849 C850 1.392 . S
C849 C853 1.495 . S
C850 C849 1.392 . S
C850 C851 1.385 . S
C850 C852 1.478 . S
C851 H845 0.930 . S
C851 C847 1.400 . S
C851 C850 1.385 . S
C852 C850 1.478 . S
C852 C854 1.381 . S
C852 C858 1.383 . S
C853 C849 1.495 . S
C853 H859 0.959 . S
C853 H860 0.961 . S
C853 H861 0.960 . S
C854 C852 1.381 . S
C854 C855 1.394 . S
C854 H862 0.930 . S
C855 C854 1.394 . S
C855 C856 1.383 . S
C855 H863 0.929 . S
C856 C855 1.383 . S
C856 C857 1.377 . S
C857 H841 0.930 . S
C857 C856 1.377 . S
C857 C858 1.379 . S
C858 H842 0.931 . S
C858 C852 1.383 . S
C858 C857 1.379 . S
H859 C853 0.959 . S
H860 C853 0.961 . S
H861 C853 0.960 . S
H862 C854 0.930 . S
H863 C855 0.929 . S
H864 C872 0.929 . S
H865 C874 0.930 . S
H866 C876 0.930 . S
H867 C879 0.929 . S
H868 C882 0.930 . S
H869 C884 0.960 1_655 S
H870 C884 0.960 . S
H871 C884 0.960 . S
C872 H864 0.929 . S
C872 C873 1.377 . S
C872 C874 1.384 . S
C873 C872 1.377 . S
C873 C879 1.390 . S
C874 H865 0.930 . S
C874 C872 1.384 . S
C874 C875 1.372 . S
C875 C874 1.372 . S
C875 C876 1.400 . S
C875 C880 1.490 . S
C876 H866 0.930 . S
C876 C875 1.400 . S
C876 C879 1.386 . S
H877 C893 0.930 . S
H878 C894 0.931 . S
C879 H867 0.929 . S
C879 C873 1.390 . S
C879 C876 1.386 . S
C880 C875 1.490 . S
C880 C882 1.395 . S
C880 C883 1.403 . S
H881 C887 0.930 . S
C882 H868 0.930 . S
C882 C880 1.395 . S
C882 C885 1.403 . S
C883 C880 1.403 . S
C883 C884 1.524 . S
C883 C887 1.400 1_455 S
C884 H869 0.960 1_455 S
C884 H870 0.960 . S
C884 H871 0.960 . S
C884 C883 1.524 . S
C885 C882 1.403 . S
C885 C886 1.392 . S
C885 C889 1.495 . S
C886 C885 1.392 . S
C886 C887 1.385 1_455 S
C886 C888 1.478 1_455 S
C887 H881 0.930 . S
C887 C883 1.400 1_655 S
C887 C886 1.385 1_655 S
C888 C886 1.478 1_655 S
C888 C890 1.381 . S
C888 C894 1.383 . S
C889 C885 1.495 . S
C889 H895 0.959 . S
C889 H896 0.961 . S
C889 H897 0.960 . S
C890 C888 1.381 . S
C890 C891 1.394 . S
C890 H898 0.930 . S
C891 C890 1.394 . S
C891 C892 1.383 . S
C891 H899 0.929 . S
C892 C891 1.383 . S
C892 C893 1.377 . S
C893 H877 0.930 . S
C893 C892 1.377 . S
C893 C894 1.379 . S
C894 H878 0.931 . S
C894 C888 1.383 . S
C894 C893 1.379 . S
H895 C889 0.959 . S
H896 C889 0.961 . S
H897 C889 0.960 . S
H898 C890 0.930 . S
H899 C891 0.929 . S
H900 C908 0.929 . S
H901 C910 0.930 . S
H902 C912 0.930 . S
H903 C915 0.929 . S
H904 C918 0.930 . S
H905 C920 0.960 . S
H906 C920 0.960 . S
H907 C920 0.960 . S
C908 H900 0.929 . S
C908 C909 1.377 . S
C908 C910 1.384 . S
C909 C908 1.377 . S
C909 C915 1.390 . S
C910 H901 0.930 . S
C910 C908 1.384 . S
C910 C911 1.372 . S
C911 C910 1.372 . S
C911 C912 1.400 . S
C911 C916 1.490 . S
C912 H902 0.930 . S
C912 C911 1.400 . S
C912 C915 1.386 . S
H913 C929 0.930 . S
H914 C930 0.931 . S
C915 H903 0.929 . S
C915 C909 1.390 . S
C915 C912 1.386 . S
C916 C911 1.490 . S
C916 C918 1.395 . S
C916 C919 1.403 . S
H917 C923 0.930 . S
C918 H904 0.930 . S
C918 C916 1.395 . S
C918 C921 1.403 . S
C919 C916 1.403 . S
C919 C920 1.524 . S
C919 C923 1.400 . S
C920 H905 0.960 . S
C920 H906 0.960 . S
C920 H907 0.960 . S
C920 C919 1.524 . S
C921 C918 1.403 . S
C921 C922 1.392 . S
C921 C925 1.495 . S
C922 C921 1.392 . S
C922 C923 1.385 . S
C922 C924 1.478 . S
C923 H917 0.930 . S
C923 C919 1.400 . S
C923 C922 1.385 . S
C924 C922 1.478 . S
C924 C926 1.381 . S
C924 C930 1.383 . S
C925 C921 1.495 . S
C925 H931 0.959 . S
C925 H932 0.961 . S
C925 H933 0.960 . S
C926 C924 1.381 . S
C926 C927 1.394 . S
C926 H934 0.930 . S
C927 C926 1.394 . S
C927 C928 1.383 . S
C927 H935 0.929 . S
C928 C927 1.383 . S
C928 C929 1.377 . S
C929 H913 0.930 . S
C929 C928 1.377 . S
C929 C930 1.379 . S
C930 H914 0.931 . S
C930 C924 1.383 . S
C930 C929 1.379 . S
H931 C925 0.959 . S
H932 C925 0.961 . S
H933 C925 0.960 . S
H934 C926 0.930 . S
H935 C927 0.929 . S
H936 C944 0.929 . S
H937 C946 0.930 . S
H938 C948 0.930 . S
H939 C951 0.929 . S
H940 C954 0.930 . S
H941 C956 0.960 . S
H942 C956 0.960 . S
H943 C956 0.960 . S
C944 H936 0.929 . S
C944 C945 1.377 . S
C944 C946 1.384 . S
C945 C944 1.377 . S
C945 C951 1.390 . S
C946 H937 0.930 . S
C946 C944 1.384 . S
C946 C947 1.372 . S
C947 C946 1.372 . S
C947 C948 1.400 . S
C947 C952 1.490 . S
C948 H938 0.930 . S
C948 C947 1.400 . S
C948 C951 1.386 . S
H949 C965 0.930 . S
H950 C966 0.931 . S
C951 H939 0.929 . S
C951 C945 1.390 . S
C951 C948 1.386 . S
C952 C947 1.490 . S
C952 C954 1.395 1_565 S
C952 C955 1.403 . S
H953 C959 0.930 . S
C954 H940 0.930 . S
C954 C952 1.395 1_545 S
C954 C957 1.403 . S
C955 C952 1.403 . S
C955 C956 1.524 . S
C955 C959 1.400 1_565 S
C956 H941 0.960 . S
C956 H942 0.960 . S
C956 H943 0.960 . S
C956 C955 1.524 . S
C957 C954 1.403 . S
C957 C958 1.392 . S
C957 C961 1.495 . S
C958 C957 1.392 . S
C958 C959 1.385 . S
C958 C960 1.478 . S
C959 H953 0.930 . S
C959 C955 1.400 1_545 S
C959 C958 1.385 . S
C960 C958 1.478 . S
C960 C962 1.381 . S
C960 C966 1.383 . S
C961 C957 1.495 . S
C961 H967 0.959 . S
C961 H968 0.961 . S
C961 H969 0.960 . S
C962 C960 1.381 . S
C962 C963 1.394 . S
C962 H970 0.930 . S
C963 C962 1.394 . S
C963 C964 1.383 . S
C963 H971 0.929 . S
C964 C963 1.383 . S
C964 C965 1.377 . S
C965 H949 0.930 . S
C965 C964 1.377 . S
C965 C966 1.379 . S
C966 H950 0.931 . S
C966 C960 1.383 . S
C966 C965 1.379 . S
H967 C961 0.959 . S
H968 C961 0.961 . S
H969 C961 0.960 . S
H970 C962 0.930 . S
H971 C963 0.929 . S
C333 C75 0.800 . S
C352 C2 0.752 . S
C369 C39 0.820 . S
C388 C3 0.838 . S
C405 C38 0.838 . S
C424 C74 0.891 . S
C441 C182 0.857 . S
C460 C110 0.907 . S
C477 C147 0.774 . S
C496 C111 0.781 . S
C513 C146 0.808 . S
C532 C183 0.781 . S
C549 C218 0.804 . S
C568 C291 0.844 . S
C585 C219 0.719 . S
C604 C255 0.702 . S
C621 C254 0.877 . S
C640 C290 0.837 . S
C657 C4 1.352 . S
C676 C256 1.351 . S
C693 C50 1.340 . S
C712 C302 1.325 . S
C729 C230 1.281 . S
C748 C76 1.299 . S
C765 C158 1.271 . S
C784 C86 1.270 . S
C801 C14 1.303 1_655 S
C820 C194 1.272 . S
C837 C112 1.366 . S
C856 C40 1.352 . S
C873 C266 1.325 . S
C892 C184 1.333 . S
C909 C122 1.350 . S
C928 C292 1.362 . S
C945 C220 1.336 . S
C964 C148 1.331 . S
