# Generated by pormake.
# Topology vbm, (6)-cn, num edge types: 1
# Building blocks:
#     Node 0, Type 0, BuildingBlock: BETFEN_clean_sbu_0, # of connection points: 6
#     Node 1, Type 0, BuildingBlock: BETFEN_clean_sbu_0, # of connection points: 6
#     Node 2, Type 0, BuildingBlock: BETFEN_clean_sbu_0, # of connection points: 6
#     Node 3, Type 0, BuildingBlock: BETFEN_clean_sbu_0, # of connection points: 6
#     Node 4, Type 0, BuildingBlock: BETFEN_clean_sbu_0, # of connection points: 6
#     Node 5, Type 0, BuildingBlock: BETFEN_clean_sbu_0, # of connection points: 6
#     Node 6, Type 0, BuildingBlock: BETFEN_clean_sbu_0, # of connection points: 6
#     Node 7, Type 0, BuildingBlock: BETFEN_clean_sbu_0, # of connection points: 6
#     Node 8, Type 0, BuildingBlock: BETFEN_clean_sbu_0, # of connection points: 6
#     Node 9, Type 0, BuildingBlock: BETFEN_clean_sbu_0, # of connection points: 6
#     Node 10, Type 0, BuildingBlock: BETFEN_clean_sbu_0, # of connection points: 6
#     Node 11, Type 0, BuildingBlock: BETFEN_clean_sbu_0, # of connection points: 6
#     Node 12, Type 0, BuildingBlock: BETFEN_clean_sbu_0, # of connection points: 6
#     Node 13, Type 0, BuildingBlock: BETFEN_clean_sbu_0, # of connection points: 6
#     Node 14, Type 0, BuildingBlock: BETFEN_clean_sbu_0, # of connection points: 6
#     Node 15, Type 0, BuildingBlock: BETFEN_clean_sbu_0, # of connection points: 6
#     Edge 16, Type (0, 0), BuildingBlock: XIVTED_clean_linker_0, # of connection points: 2
#     Edge 17, Type (0, 0), BuildingBlock: XIVTED_clean_linker_0, # of connection points: 2
#     Edge 18, Type (0, 0), BuildingBlock: XIVTED_clean_linker_0, # of connection points: 2
#     Edge 19, Type (0, 0), BuildingBlock: XIVTED_clean_linker_0, # of connection points: 2
#     Edge 20, Type (0, 0), BuildingBlock: XIVTED_clean_linker_0, # of connection points: 2
#     Edge 21, Type (0, 0), BuildingBlock: XIVTED_clean_linker_0, # of connection points: 2
#     Edge 22, Type (0, 0), BuildingBlock: XIVTED_clean_linker_0, # of connection points: 2
#     Edge 23, Type (0, 0), BuildingBlock: XIVTED_clean_linker_0, # of connection points: 2
#     Edge 24, Type (0, 0), BuildingBlock: XIVTED_clean_linker_0, # of connection points: 2
#     Edge 25, Type (0, 0), BuildingBlock: XIVTED_clean_linker_0, # of connection points: 2
#     Edge 26, Type (0, 0), BuildingBlock: XIVTED_clean_linker_0, # of connection points: 2
#     Edge 27, Type (0, 0), BuildingBlock: XIVTED_clean_linker_0, # of connection points: 2
#     Edge 28, Type (0, 0), BuildingBlock: XIVTED_clean_linker_0, # of connection points: 2
#     Edge 29, Type (0, 0), BuildingBlock: XIVTED_clean_linker_0, # of connection points: 2
#     Edge 30, Type (0, 0), BuildingBlock: XIVTED_clean_linker_0, # of connection points: 2
#     Edge 31, Type (0, 0), BuildingBlock: XIVTED_clean_linker_0, # of connection points: 2
#     Edge 32, Type (0, 0), BuildingBlock: XIVTED_clean_linker_0, # of connection points: 2
#     Edge 33, Type (0, 0), BuildingBlock: XIVTED_clean_linker_0, # of connection points: 2
#     Edge 34, Type (0, 0), BuildingBlock: XIVTED_clean_linker_0, # of connection points: 2
#     Edge 35, Type (0, 0), BuildingBlock: XIVTED_clean_linker_0, # of connection points: 2
#     Edge 36, Type (0, 0), BuildingBlock: XIVTED_clean_linker_0, # of connection points: 2
#     Edge 37, Type (0, 0), BuildingBlock: XIVTED_clean_linker_0, # of connection points: 2
#     Edge 38, Type (0, 0), BuildingBlock: XIVTED_clean_linker_0, # of connection points: 2
#     Edge 39, Type (0, 0), BuildingBlock: XIVTED_clean_linker_0, # of connection points: 2
#     Edge 40, Type (0, 0), BuildingBlock: XIVTED_clean_linker_0, # of connection points: 2
#     Edge 41, Type (0, 0), BuildingBlock: XIVTED_clean_linker_0, # of connection points: 2
#     Edge 42, Type (0, 0), BuildingBlock: XIVTED_clean_linker_0, # of connection points: 2
#     Edge 43, Type (0, 0), BuildingBlock: XIVTED_clean_linker_0, # of connection points: 2
#     Edge 44, Type (0, 0), BuildingBlock: XIVTED_clean_linker_0, # of connection points: 2
#     Edge 45, Type (0, 0), BuildingBlock: XIVTED_clean_linker_0, # of connection points: 2
#     Edge 46, Type (0, 0), BuildingBlock: XIVTED_clean_linker_0, # of connection points: 2
#     Edge 47, Type (0, 0), BuildingBlock: XIVTED_clean_linker_0, # of connection points: 2
#     Edge 48, Type (0, 0), BuildingBlock: XIVTED_clean_linker_0, # of connection points: 2
#     Edge 49, Type (0, 0), BuildingBlock: XIVTED_clean_linker_0, # of connection points: 2
#     Edge 50, Type (0, 0), BuildingBlock: XIVTED_clean_linker_0, # of connection points: 2
#     Edge 51, Type (0, 0), BuildingBlock: XIVTED_clean_linker_0, # of connection points: 2
#     Edge 52, Type (0, 0), BuildingBlock: XIVTED_clean_linker_0, # of connection points: 2
#     Edge 53, Type (0, 0), BuildingBlock: XIVTED_clean_linker_0, # of connection points: 2
#     Edge 54, Type (0, 0), BuildingBlock: XIVTED_clean_linker_0, # of connection points: 2
#     Edge 55, Type (0, 0), BuildingBlock: XIVTED_clean_linker_0, # of connection points: 2
#     Edge 56, Type (0, 0), BuildingBlock: XIVTED_clean_linker_0, # of connection points: 2
#     Edge 57, Type (0, 0), BuildingBlock: XIVTED_clean_linker_0, # of connection points: 2
#     Edge 58, Type (0, 0), BuildingBlock: XIVTED_clean_linker_0, # of connection points: 2
#     Edge 59, Type (0, 0), BuildingBlock: XIVTED_clean_linker_0, # of connection points: 2
#     Edge 60, Type (0, 0), BuildingBlock: XIVTED_clean_linker_0, # of connection points: 2
#     Edge 61, Type (0, 0), BuildingBlock: XIVTED_clean_linker_0, # of connection points: 2
#     Edge 62, Type (0, 0), BuildingBlock: XIVTED_clean_linker_0, # of connection points: 2
#     Edge 63, Type (0, 0), BuildingBlock: XIVTED_clean_linker_0, # of connection points: 2
# Relax obj value: 0.067
# Max RMSD: 0.141
# Mean RMSD: 0.141
data_MOF--net-vbm--node1-BETFEN_clean_sbu_0--edge1-XIVTED_clean_linker_0
_symmetry_space_group_name_H-M    P1
_symmetry_Int_Tables_number       1
_symmetry_cell_setting            triclinic
loop_
_symmetry_equiv_pos_as_xyz
'x, y, z'
_cell_length_a     56.698424
_cell_length_b     26.173776
_cell_length_c     56.304653
_cell_angle_alpha  90.075483
_cell_angle_beta   90.027402
_cell_angle_gamma 89.951551
loop_
_atom_site_label
_atom_site_type_symbol
_atom_site_fract_x
_atom_site_fract_y
_atom_site_fract_z
_atom_type_partial_charge
Pr0 Pr 0.12653 0.09579 0.1509 0.0
Pr1 Pr 0.10109 0.19632 0.15282 0.0
C2 C 0.14162 0.99848 0.15701 0.0
C3 C 0.13442 0.94394 0.15586 0.0
C4 C 0.13267 0.91786 0.13406 0.0
C5 C 0.12788 0.86534 0.13346 0.0
C6 C 0.12478 0.83753 0.15462 0.0
C7 C 0.12616 0.86389 0.17638 0.0
C8 C 0.131 0.91633 0.17698 0.0
C9 C 0.12701 0.14641 0.10719 0.0
C10 C 0.06827 0.10083 0.14089 0.0
C11 C 0.0851 0.29369 0.15009 0.0
C12 C 0.09242 0.34824 0.15092 0.0
C13 C 0.09395 0.37467 0.17264 0.0
C14 C 0.09875 0.42718 0.17314 0.0
C15 C 0.10205 0.45471 0.15193 0.0
C16 C 0.10088 0.42804 0.13024 0.0
C17 C 0.09604 0.37558 0.12974 0.0
C18 C 0.1009 0.13991 0.19535 0.0
C19 C 0.1589 0.19613 0.15955 0.0
O20 O 0.13295 0.02646 0.17416 0.0
O21 O 0.14408 0.02371 0.13713 0.0
O22 O 0.10912 0.14335 0.12065 0.0
O23 O 0.14519 0.1238 0.11655 0.0
O24 O 0.0704 0.15014 0.1374 0.0
O25 O 0.08619 0.07289 0.14855 0.0
O26 O 0.09121 0.26666 0.13154 0.0
O27 O 0.08552 0.26737 0.16981 0.0
O28 O 0.11855 0.14777 0.18226 0.0
O29 O 0.08224 0.16196 0.18672 0.0
O30 O 0.15782 0.1467 0.16399 0.0
O31 O 0.1404 0.22138 0.15175 0.0
H32 H 0.13534 0.93779 0.11744 0.0
H33 H 0.12665 0.8465 0.11637 0.0
H34 H 0.12422 0.84374 0.19304 0.0
H35 H 0.13257 0.9351 0.19407 0.0
H36 H 0.09105 0.35503 0.1893 0.0
H37 H 0.09981 0.44624 0.19019 0.0
H38 H 0.10297 0.44798 0.11354 0.0
H39 H 0.09462 0.35667 0.11268 0.0
Pr40 Pr 0.84809 0.96117 0.15112 0.0
Pr41 Pr 0.87351 0.86032 0.15339 0.0
C42 C 0.83259 0.05845 0.15627 0.0
C43 C 0.83893 0.11323 0.15431 0.0
C44 C 0.82414 0.14605 0.1414 0.0
C45 C 0.82841 0.1987 0.14085 0.0
C46 C 0.84757 0.21999 0.15331 0.0
C47 C 0.86272 0.18683 0.16581 0.0
C48 C 0.85844 0.13404 0.16633 0.0
C49 C 0.84687 0.90821 0.10797 0.0
C50 C 0.90614 0.95567 0.14069 0.0
C51 C 0.88968 0.76312 0.15063 0.0
C52 C 0.88326 0.70852 0.15318 0.0
C53 C 0.89832 0.676 0.16591 0.0
C54 C 0.89396 0.62341 0.16694 0.0
C55 C 0.87444 0.60191 0.15514 0.0
C56 C 0.85898 0.63488 0.1429 0.0
C57 C 0.86334 0.6876 0.14192 0.0
C58 C 0.87379 0.91757 0.19571 0.0
C59 C 0.81581 0.86156 0.16164 0.0
O60 O 0.84196 0.03181 0.1735 0.0
O61 O 0.83002 0.03229 0.13665 0.0
O62 O 0.86502 0.91216 0.12102 0.0
O63 O 0.82885 0.93124 0.1174 0.0
O64 O 0.90386 0.90637 0.13717 0.0
O65 O 0.88839 0.98379 0.14857 0.0
O66 O 0.88105 0.78823 0.13253 0.0
O67 O 0.89122 0.79081 0.16989 0.0
O68 O 0.85615 0.9097 0.18261 0.0
O69 O 0.89242 0.89509 0.18723 0.0
O70 O 0.81702 0.91129 0.16528 0.0
O71 O 0.83413 0.83542 0.15401 0.0
H72 H 0.80896 0.13101 0.13202 0.0
H73 H 0.8166 0.22275 0.13068 0.0
H74 H 0.87753 0.20177 0.17578 0.0
H75 H 0.87015 0.10973 0.17651 0.0
H76 H 0.91379 0.69119 0.17475 0.0
H77 H 0.90601 0.59957 0.17693 0.0
H78 H 0.84387 0.61981 0.13343 0.0
H79 H 0.85139 0.71176 0.13196 0.0
Pr80 Pr 0.12597 0.97202 0.37895 0.0
Pr81 Pr 0.10222 0.86266 0.38401 0.0
C82 C 0.13821 0.06247 0.35963 0.0
C83 C 0.13527 0.11803 0.36302 0.0
C84 C 0.12909 0.1389 0.38514 0.0
C85 C 0.12601 0.19183 0.3877 0.0
C86 C 0.12892 0.22483 0.36815 0.0
C87 C 0.13514 0.20345 0.34605 0.0
C88 C 0.13825 0.15067 0.34355 0.0
C89 C 0.12132 0.95294 0.42762 0.0
C90 C 0.06887 0.95951 0.39257 0.0
C91 C 0.08887 0.76576 0.39376 0.0
C92 C 0.09564 0.71146 0.39082 0.0
C93 C 0.10332 0.69171 0.36892 0.0
C94 C 0.10832 0.63946 0.36646 0.0
C95 C 0.10584 0.6059 0.38585 0.0
C96 C 0.09853 0.62617 0.40782 0.0
C97 C 0.09347 0.67827 0.41023 0.0
C98 C 0.10121 0.90925 0.33905 0.0
C99 C 0.16028 0.86925 0.37572 0.0
O100 O 0.11935 0.03698 0.35329 0.0
O101 O 0.15148 0.03796 0.37494 0.0
O102 O 0.11493 0.9223 0.41136 0.0
O103 O 0.13077 0.99374 0.41866 0.0
O104 O 0.07318 0.91291 0.40007 0.0
O105 O 0.08485 0.98671 0.38096 0.0
O106 O 0.1015 0.7935 0.40833 0.0
O107 O 0.08187 0.79086 0.37493 0.0
O108 O 0.11847 0.90736 0.35309 0.0
O109 O 0.0832 0.88515 0.34793 0.0
O110 O 0.15921 0.91955 0.37334 0.0
O111 O 0.14163 0.84105 0.38041 0.0
H112 H 0.12651 0.11427 0.40037 0.0
H113 H 0.12095 0.20679 0.4049 0.0
H114 H 0.13787 0.22756 0.33069 0.0
H115 H 0.14299 0.13528 0.32632 0.0
H116 H 0.10528 0.71651 0.35366 0.0
H117 H 0.11421 0.62537 0.34937 0.0
H118 H 0.09611 0.60155 0.42307 0.0
H119 H 0.08747 0.69256 0.42727 0.0
Pr120 Pr 0.84654 0.07278 0.38137 0.0
Pr121 Pr 0.86909 0.18316 0.38801 0.0
C122 C 0.83502 0.98247 0.36141 0.0
C123 C 0.83773 0.92707 0.36526 0.0
C124 C 0.8435 0.90722 0.38767 0.0
C125 C 0.84612 0.85438 0.39082 0.0
C126 C 0.84306 0.82042 0.37161 0.0
C127 C 0.83738 0.8408 0.34919 0.0
C128 C 0.83477 0.89354 0.34608 0.0
C129 C 0.85008 0.09057 0.43034 0.0
C130 C 0.90339 0.08731 0.39515 0.0
C131 C 0.88159 0.27972 0.39945 0.0
C132 C 0.87526 0.33418 0.39654 0.0
C133 C 0.8684 0.35446 0.3745 0.0
C134 C 0.86404 0.40696 0.37207 0.0
C135 C 0.86645 0.44023 0.39163 0.0
C136 C 0.87279 0.41935 0.41376 0.0
C137 C 0.87716 0.367 0.41615 0.0
C138 C 0.87103 0.13907 0.34251 0.0
C139 C 0.81131 0.17397 0.37782 0.0
O140 O 0.8542 1.00776 0.35596 0.0
O141 O 0.82108 1.00727 0.37601 0.0
O142 O 0.85646 0.12183 0.41441 0.0
O143 O 0.84126 0.0496 0.42086 0.0
O144 O 0.8986 0.13308 0.4035 0.0
O145 O 0.88771 0.06021 0.38309 0.0
O146 O 0.86789 0.25163 0.41282 0.0
O147 O 0.88986 0.25528 0.38094 0.0
O148 O 0.85368 0.13911 0.35642 0.0
O149 O 0.8886 0.16411 0.35175 0.0
O150 O 0.8131 0.12388 0.37506 0.0
O151 O 0.82945 0.20315 0.38335 0.0
H152 H 0.84595 0.93255 0.4027 0.0
H153 H 0.85026 0.84012 0.40838 0.0
H154 H 0.8353 0.81607 0.3339 0.0
H155 H 0.83049 0.9082 0.3286 0.0
H156 H 0.86678 0.32993 0.35908 0.0
H157 H 0.85938 0.42164 0.35472 0.0
H158 H 0.87439 0.44348 0.42932 0.0
H159 H 0.88236 0.35219 0.43334 0.0
Pr160 Pr 0.87161 0.85964 0.88473 0.0
Pr161 Pr 0.84596 0.9686 0.88515 0.0
C162 C 0.88673 0.76197 0.88763 0.0
C163 C 0.87918 0.70832 0.89076 0.0
C164 C 0.85964 0.68814 0.87859 0.0
C165 C 0.85445 0.63584 0.87993 0.0
C166 C 0.86869 0.60267 0.89346 0.0
C167 C 0.8877 0.62359 0.90629 0.0
C168 C 0.89289 0.67575 0.9049 0.0
C169 C 0.87319 0.91796 0.84296 0.0
C170 C 0.81338 0.86489 0.87884 0.0
C171 C 0.83199 0.06181 0.87034 0.0
C172 C 0.83422 0.11652 0.87615 0.0
C173 C 0.85188 0.13429 0.89154 0.0
C174 C 0.85473 0.18683 0.89548 0.0
C175 C 0.83997 0.22258 0.88409 0.0
C176 C 0.82202 0.20426 0.86903 0.0
C177 C 0.81921 0.15181 0.86511 0.0
C178 C 0.84809 0.93368 0.93206 0.0
C179 C 0.90353 0.95699 0.8988 0.0
O180 O 0.88577 0.79246 0.90606 0.0
O181 O 0.88121 0.78446 0.86763 0.0
O182 O 0.85551 0.91157 0.85615 0.0
O183 O 0.89136 0.8932 0.85111 0.0
O184 O 0.81438 0.91483 0.87522 0.0
O185 O 0.83195 0.83773 0.88513 0.0
O186 O 0.85114 0.03901 0.86271 0.0
O187 O 0.81931 0.03343 0.88463 0.0
O188 O 0.85601 0.91014 0.91411 0.0
O189 O 0.83827 0.97647 0.92581 0.0
O190 O 0.9008 0.90759 0.90204 0.0
O191 O 0.88658 0.98646 0.89003 0.0
H192 H 0.84874 0.71247 0.86755 0.0
H193 H 0.83977 0.62117 0.86967 0.0
H194 H 0.89877 0.59954 0.91727 0.0
H195 H 0.90801 0.69047 0.91448 0.0
H196 H 0.86367 0.10758 0.90024 0.0
H197 H 0.86853 0.19943 0.90742 0.0
H198 H 0.81053 0.23051 0.85969 0.0
H199 H 0.80558 0.13882 0.85304 0.0
Pr200 Pr 0.09991 0.18715 0.88491 0.0
Pr201 Pr 0.12525 0.07762 0.88365 0.0
C202 C 0.08515 0.28469 0.89014 0.0
C203 C 0.09332 0.33828 0.89081 0.0
C204 C 0.11095 0.35618 0.87541 0.0
C205 C 0.11687 0.40816 0.87501 0.0
C206 C 0.10535 0.44323 0.89008 0.0
C207 C 0.0882 0.42471 0.90594 0.0
C208 C 0.08224 0.37284 0.90625 0.0
C209 C 0.09856 0.13186 0.84219 0.0
C210 C 0.15812 0.18138 0.87758 0.0
C211 C 0.13889 0.98565 0.86692 0.0
C212 C 0.13682 0.93033 0.87118 0.0
C213 C 0.12169 0.91079 0.88866 0.0
C214 C 0.11899 0.85782 0.89133 0.0
C215 C 0.13129 0.82356 0.87649 0.0
C216 C 0.14671 0.84365 0.85928 0.0
C217 C 0.14941 0.89645 0.85667 0.0
C218 C 0.12343 0.10985 0.93104 0.0
C219 C 0.06788 0.08934 0.89789 0.0
O220 O 0.0905 0.25532 0.90816 0.0
O221 O 0.08602 0.26102 0.86968 0.0
O222 O 0.11611 0.1371 0.85567 0.0
O223 O 0.08034 0.1562 0.85055 0.0
O224 O 0.15714 0.13121 0.87466 0.0
O225 O 0.13953 0.20918 0.8832 0.0
O226 O 0.1197 1.00915 0.85991 0.0
O227 O 0.15159 1.0124 0.88191 0.0
O228 O 0.11547 0.1344 0.9134 0.0
O229 O 0.133 0.06717 0.92419 0.0
O230 O 0.07088 0.13841 0.90195 0.0
O231 O 0.0846 0.06019 0.88844 0.0
H232 H 0.11988 0.33018 0.86342 0.0
H233 H 0.1304 0.42094 0.86283 0.0
H234 H 0.07878 0.45056 0.9176 0.0
H235 H 0.06853 0.35988 0.91821 0.0
H236 H 0.1117 0.93646 0.89994 0.0
H237 H 0.1068 0.84378 0.90461 0.0
H238 H 0.15676 0.81855 0.8478 0.0
H239 H 0.16116 0.91086 0.84306 0.0
Pr240 Pr 0.87009 0.18602 0.65168 0.0
Pr241 Pr 0.84634 0.07665 0.65787 0.0
C242 C 0.88339 0.28262 0.64111 0.0
C243 C 0.87693 0.33709 0.64368 0.0
C244 C 0.86436 0.35535 0.66344 0.0
C245 C 0.85966 0.40779 0.6659 0.0
C246 C 0.86746 0.44297 0.64865 0.0
C247 C 0.87959 0.42405 0.62866 0.0
C248 C 0.88427 0.3718 0.62625 0.0
C249 C 0.8723 0.1405 0.69677 0.0
C250 C 0.81229 0.17961 0.66227 0.0
C251 C 0.83454 0.98599 0.67734 0.0
C252 C 0.83726 0.93064 0.67311 0.0
C253 C 0.8486 0.912 0.65271 0.0
C254 C 0.85158 0.85925 0.64938 0.0
C255 C 0.84331 0.8241 0.66641 0.0
C256 C 0.83188 0.84327 0.68677 0.0
C257 C 0.82892 0.89593 0.69006 0.0
C258 C 0.84889 0.09593 0.60902 0.0
C259 C 0.90322 0.08862 0.643 0.0
O260 O 0.87052 0.25453 0.62691 0.0
O261 O 0.89032 0.25828 0.66016 0.0
O262 O 0.85467 0.14181 0.6832 0.0
O263 O 0.89006 0.16447 0.68733 0.0
O264 O 0.81353 0.12941 0.66504 0.0
O265 O 0.8307 0.2077 0.65649 0.0
O266 O 0.85375 1.01108 0.68292 0.0
O267 O 0.82067 1.01118 0.66284 0.0
O268 O 0.85607 0.12632 0.62504 0.0
O269 O 0.83975 0.05525 0.61839 0.0
O270 O 0.89894 0.13523 0.63545 0.0
O271 O 0.88734 0.06175 0.6549 0.0
H272 H 0.85847 0.32923 0.67711 0.0
H273 H 0.85043 0.42086 0.6816 0.0
H274 H 0.88546 0.44963 0.61478 0.0
H275 H 0.89389 0.3585 0.6108 0.0
H276 H 0.8552 0.93825 0.63942 0.0
H277 H 0.86022 0.84602 0.63336 0.0
H278 H 0.8256 0.81763 0.70046 0.0
H279 H 0.82027 0.90961 0.70602 0.0
Pr280 Pr 0.10273 0.86647 0.64941 0.0
Pr281 Pr 0.12655 0.97623 0.65458 0.0
C282 C 0.08864 0.76995 0.63958 0.0
C283 C 0.09529 0.71555 0.64126 0.0
C284 C 0.08154 0.67914 0.62938 0.0
C285 C 0.08691 0.62709 0.63103 0.0
C286 C 0.10624 0.61015 0.64462 0.0
C287 C 0.12011 0.64697 0.65646 0.0
C288 C 0.11469 0.69923 0.65478 0.0
C289 C 0.10061 0.91398 0.69412 0.0
C290 C 0.16061 0.87326 0.65926 0.0
C291 C 0.13912 0.0675 0.67297 0.0
C292 C 0.13685 0.12289 0.6685 0.0
C293 C 0.15284 0.15671 0.67914 0.0
C294 C 0.15044 0.20955 0.6761 0.0
C295 C 0.13193 0.22983 0.66232 0.0
C296 C 0.11611 0.19558 0.65136 0.0
C297 C 0.11854 0.14264 0.65443 0.0
C298 C 0.12302 0.95496 0.60587 0.0
C299 C 0.06938 0.9639 0.64107 0.0
O300 O 0.1003 0.79836 0.62452 0.0
O301 O 0.08357 0.7937 0.65937 0.0
O302 O 0.11826 0.91225 0.68056 0.0
O303 O 0.0829 0.88939 0.6849 0.0
O304 O 0.15925 0.92344 0.66201 0.0
O305 O 0.14224 0.84493 0.65352 0.0
O306 O 0.11982 0.04317 0.679 0.0
O307 O 0.15274 0.04126 0.65863 0.0
O308 O 0.11625 0.92534 0.6223 0.0
O309 O 0.13231 0.99607 0.61473 0.0
O310 O 0.07346 0.917 0.63372 0.0
O311 O 0.08553 0.99123 0.65239 0.0
H312 H 0.06642 0.69096 0.61895 0.0
H313 H 0.07558 0.60005 0.62199 0.0
H314 H 0.13526 0.63548 0.66688 0.0
H315 H 0.12555 0.72681 0.66406 0.0
H316 H 0.16713 0.14224 0.69002 0.0
H317 H 0.1632 0.23452 0.68448 0.0
H318 H 0.10151 0.20967 0.64083 0.0
H319 H 0.10595 0.11718 0.64608 0.0
Pr320 Pr 0.62996 0.56678 0.15805 0.0
Pr321 Pr 0.60662 0.67713 0.152 0.0
C322 C 0.64193 0.47619 0.17744 0.0
C323 C 0.63944 0.42081 0.17336 0.0
C324 C 0.63043 0.40157 0.15193 0.0
C325 C 0.62778 0.34874 0.14866 0.0
C326 C 0.63408 0.31418 0.16678 0.0
C327 C 0.64312 0.33396 0.18821 0.0
C328 C 0.64574 0.38668 0.19143 0.0
C329 C 0.62662 0.58648 0.10921 0.0
C330 C 0.57298 0.58066 0.14436 0.0
C331 C 0.59345 0.77354 0.14104 0.0
C332 C 0.59982 0.82805 0.14349 0.0
C333 C 0.61009 0.84761 0.16431 0.0
C334 C 0.6146 0.90012 0.16652 0.0
C335 C 0.60892 0.93407 0.14795 0.0
C336 C 0.59915 0.91387 0.12695 0.0
C337 C 0.59464 0.86154 0.12479 0.0
C338 C 0.60473 0.63145 0.19711 0.0
C339 C 0.66437 0.66909 0.16245 0.0
O340 O 0.62263 0.50103 0.18301 0.0
O341 O 0.65571 0.50144 0.16291 0.0
O342 O 0.61995 0.6167 0.12548 0.0
O343 O 0.63564 0.54531 0.1183 0.0
O344 O 0.57766 0.62643 0.13603 0.0
O345 O 0.58879 0.55373 0.15636 0.0
O346 O 0.60651 0.74529 0.12707 0.0
O347 O 0.58624 0.74944 0.16005 0.0
O348 O 0.62214 0.63244 0.1833 0.0
O349 O 0.58702 0.65626 0.18798 0.0
O350 O 0.66292 0.61892 0.16511 0.0
O351 O 0.6461 0.69779 0.15675 0.0
H352 H 0.62541 0.42739 0.13777 0.0
H353 H 0.62101 0.33497 0.13185 0.0
H354 H 0.64778 0.30875 0.2027 0.0
H355 H 0.65255 0.40086 0.20817 0.0
H356 H 0.6143 0.82247 0.17899 0.0
H357 H 0.62198 0.91425 0.183 0.0
H358 H 0.59496 0.93852 0.1121 0.0
H359 H 0.58681 0.84724 0.10853 0.0
Pr360 Pr 0.34817 0.4824 0.15104 0.0
Pr361 Pr 0.36977 0.36552 0.14974 0.0
C362 C 0.32868 0.57306 0.16228 0.0
C363 C 0.33317 0.62818 0.15991 0.0
C364 C 0.34788 0.64736 0.14198 0.0
C365 C 0.35211 0.69995 0.1403 0.0
C366 C 0.34182 0.7342 0.15661 0.0
C367 C 0.32716 0.71455 0.17457 0.0
C368 C 0.3229 0.66207 0.17617 0.0
C369 C 0.36127 0.44703 0.10638 0.0
C370 C 0.40553 0.46421 0.14671 0.0
C371 C 0.38457 0.27309 0.1347 0.0
C372 C 0.38036 0.21821 0.13819 0.0
C373 C 0.36579 0.2003 0.1565 0.0
C374 C 0.36138 0.14785 0.15883 0.0
C375 C 0.37135 0.11261 0.14277 0.0
C376 C 0.38607 0.13102 0.12459 0.0
C377 C 0.3905 0.18329 0.12234 0.0
C378 C 0.36857 0.40843 0.19604 0.0
C379 C 0.31308 0.3786 0.15971 0.0
O380 O 0.34274 0.54801 0.17663 0.0
O381 O 0.32341 0.54779 0.14285 0.0
O382 O 0.35144 0.41946 0.12213 0.0
O383 O 0.36292 0.49446 0.11316 0.0
O384 O 0.40122 0.41722 0.13934 0.0
O385 O 0.38892 0.49514 0.15504 0.0
O386 O 0.36761 0.29878 0.12436 0.0
O387 O 0.39472 0.2981 0.1521 0.0
O388 O 0.36207 0.4261 0.17659 0.0
O389 O 0.37601 0.36196 0.19238 0.0
O390 O 0.31506 0.42915 0.1583 0.0
O391 O 0.3309 0.3469 0.15676 0.0
H392 H 0.35616 0.62168 0.12938 0.0
H393 H 0.36372 0.7137 0.12644 0.0
H394 H 0.31872 0.73981 0.18723 0.0
H395 H 0.31153 0.6479 0.19016 0.0
H396 H 0.35766 0.22687 0.1688 0.0
H397 H 0.34979 0.13502 0.17289 0.0
H398 H 0.39432 0.10498 0.11214 0.0
H399 H 0.40177 0.19651 0.10807 0.0
Pr400 Pr 0.6239 0.45704 0.38761 0.0
Pr401 Pr 0.59994 0.35528 0.38661 0.0
C402 C 0.63842 0.5543 0.38064 0.0
C403 C 0.63261 0.60899 0.38366 0.0
C404 C 0.65038 0.64266 0.39107 0.0
C405 C 0.64614 0.69524 0.39231 0.0
C406 C 0.62398 0.71546 0.38609 0.0
C407 C 0.60602 0.68145 0.37907 0.0
C408 C 0.61027 0.62872 0.37789 0.0
C409 C 0.62531 0.40808 0.43174 0.0
C410 C 0.56615 0.44895 0.39913 0.0
C411 C 0.58448 0.25796 0.39079 0.0
C412 C 0.59054 0.20363 0.38706 0.0
C413 C 0.57289 0.16988 0.37945 0.0
C414 C 0.57739 0.11746 0.37772 0.0
C415 C 0.59969 0.09752 0.38362 0.0
C416 C 0.61756 0.13169 0.39072 0.0
C417 C 0.61304 0.18425 0.3924 0.0
C418 C 0.59937 0.40929 0.3434 0.0
C419 C 0.65746 0.35864 0.37794 0.0
O420 O 0.62641 0.5281 0.36498 0.0
O421 O 0.6438 0.52797 0.39959 0.0
O422 O 0.60731 0.40969 0.41839 0.0
O423 O 0.64307 0.43161 0.42215 0.0
O424 O 0.5695 0.40023 0.40332 0.0
O425 O 0.58327 0.47789 0.39054 0.0
O426 O 0.5956 0.28249 0.40765 0.0
O427 O 0.58035 0.28609 0.37208 0.0
O428 O 0.61698 0.40312 0.35671 0.0
O429 O 0.5809 0.38683 0.35216 0.0
O430 O 0.65548 0.40802 0.37373 0.0
O431 O 0.63953 0.33183 0.38591 0.0
H432 H 0.6678 0.62834 0.39542 0.0
H433 H 0.66049 0.72017 0.39747 0.0
H434 H 0.58865 0.69559 0.37446 0.0
H435 H 0.59622 0.60352 0.37217 0.0
H436 H 0.55537 0.18396 0.37539 0.0
H437 H 0.56312 0.09237 0.37247 0.0
H438 H 0.63503 0.1178 0.39508 0.0
H439 H 0.627 0.20956 0.39824 0.0
Pr440 Pr 0.34441 0.56943 0.38793 0.0
Pr441 Pr 0.36883 0.67861 0.38727 0.0
C442 C 0.33094 0.4755 0.37364 0.0
C443 C 0.33218 0.42119 0.38033 0.0
C444 C 0.34859 0.4037 0.39712 0.0
C445 C 0.35087 0.3513 0.40168 0.0
C446 C 0.33678 0.31546 0.38952 0.0
C447 C 0.31997 0.33353 0.37313 0.0
C448 C 0.31774 0.38585 0.36859 0.0
C449 C 0.34629 0.60352 0.43496 0.0
C450 C 0.40207 0.58344 0.40045 0.0
C451 C 0.38297 0.77695 0.38971 0.0
C452 C 0.37513 0.83012 0.39391 0.0
C453 C 0.35587 0.8513 0.38164 0.0
C454 C 0.35058 0.90341 0.38382 0.0
C455 C 0.36443 0.93542 0.39833 0.0
C456 C 0.38308 0.91347 0.41132 0.0
C457 C 0.38838 0.86149 0.40907 0.0
C458 C 0.37022 0.62084 0.34512 0.0
C459 C 0.31097 0.67196 0.38221 0.0
O460 O 0.35087 0.49687 0.36735 0.0
O461 O 0.31739 0.50546 0.3864 0.0
O462 O 0.35401 0.62826 0.41726 0.0
O463 O 0.337 0.56049 0.42836 0.0
O464 O 0.39881 0.63253 0.40405 0.0
O465 O 0.38532 0.55339 0.39178 0.0
O466 O 0.38395 0.74589 0.4079 0.0
O467 O 0.37612 0.75472 0.37006 0.0
O468 O 0.35279 0.62626 0.35871 0.0
O469 O 0.38816 0.64684 0.35291 0.0
O470 O 0.31246 0.62237 0.37772 0.0
O471 O 0.32921 0.69899 0.38937 0.0
H472 H 0.35992 0.43048 0.40637 0.0
H473 H 0.36377 0.33886 0.41464 0.0
H474 H 0.30905 0.30715 0.36319 0.0
H475 H 0.3051 0.39863 0.35543 0.0
H476 H 0.34529 0.82799 0.36982 0.0
H477 H 0.33621 0.91891 0.37341 0.0
H478 H 0.39383 0.93662 0.42304 0.0
H479 H 0.4033 0.84603 0.41873 0.0
Pr480 Pr 0.37123 0.35661 0.88572 0.0
Pr481 Pr 0.3469 0.46702 0.88275 0.0
C482 C 0.38489 0.25948 0.89406 0.0
C483 C 0.37718 0.20562 0.89127 0.0
C484 C 0.38163 0.17862 0.87012 0.0
C485 C 0.37585 0.12682 0.86819 0.0
C486 C 0.36563 0.10064 0.8874 0.0
C487 C 0.36095 0.1278 0.90845 0.0
C488 C 0.36671 0.17961 0.91038 0.0
C489 C 0.3718 0.40674 0.84174 0.0
C490 C 0.31293 0.36388 0.87838 0.0
C491 C 0.3336 0.55799 0.86498 0.0
C492 C 0.33621 0.61354 0.86874 0.0
C493 C 0.332 0.63646 0.89092 0.0
C494 C 0.33437 0.6894 0.89373 0.0
C495 C 0.34106 0.72043 0.87445 0.0
C496 C 0.34542 0.69709 0.85236 0.0
C497 C 0.34296 0.64431 0.84955 0.0
C498 C 0.3525 0.44218 0.93081 0.0
C499 C 0.40439 0.45404 0.89493 0.0
O500 O 0.3739 0.28765 0.9098 0.0
O501 O 0.39071 0.28479 0.87489 0.0
O502 O 0.35464 0.40416 0.8559 0.0
O503 O 0.38982 0.3814 0.84988 0.0
O504 O 0.31396 0.4143 0.87663 0.0
O505 O 0.33165 0.33526 0.88247 0.0
O506 O 0.3524 0.53338 0.85771 0.0
O507 O 0.32076 0.5321 0.88018 0.0
O508 O 0.3584 0.4144 0.91341 0.0
O509 O 0.34323 0.48469 0.9234 0.0
O510 O 0.40049 0.40665 0.90161 0.0
O511 O 0.388 0.48215 0.88433 0.0
H512 H 0.38999 0.1972 0.85516 0.0
H513 H 0.38002 0.10694 0.85184 0.0
H514 H 0.35286 0.10899 0.9235 0.0
H515 H 0.36324 0.19911 0.927 0.0
H516 H 0.32681 0.61359 0.90605 0.0
H517 H 0.33063 0.70607 0.91094 0.0
H518 H 0.35101 0.7195 0.83723 0.0
H519 H 0.34639 0.62742 0.8323 0.0
Pr520 Pr 0.60338 0.68021 0.88828 0.0
Pr521 Pr 0.62649 0.57058 0.88165 0.0
C522 C 0.59064 0.77698 0.89931 0.0
C523 C 0.59706 0.83137 0.89625 0.0
C524 C 0.60579 0.85041 0.87465 0.0
C525 C 0.61037 0.90278 0.87198 0.0
C526 C 0.60631 0.93718 0.89084 0.0
C527 C 0.59806 0.91752 0.91257 0.0
C528 C 0.59348 0.8653 0.9152 0.0
C529 C 0.60126 0.63595 0.84286 0.0
C530 C 0.66123 0.67242 0.87821 0.0
C531 C 0.63802 0.48007 0.86175 0.0
C532 C 0.63521 0.4247 0.86576 0.0
C533 C 0.62774 0.40549 0.88776 0.0
C534 C 0.62484 0.35274 0.89103 0.0
C535 C 0.62933 0.31816 0.87233 0.0
C536 C 0.6368 0.33789 0.85032 0.0
C537 C 0.63968 0.39055 0.8471 0.0
C538 C 0.62309 0.58783 0.93061 0.0
C539 C 0.56957 0.584 0.89587 0.0
O540 O 0.60417 0.74902 0.91293 0.0
O541 O 0.58264 0.75229 0.88076 0.0
O542 O 0.6188 0.6364 0.85656 0.0
O543 O 0.5836 0.66035 0.85231 0.0
O544 O 0.65979 0.62227 0.87541 0.0
O545 O 0.64287 0.70099 0.8837 0.0
O546 O 0.61886 0.50548 0.85627 0.0
O547 O 0.65197 0.50491 0.87632 0.0
O548 O 0.61641 0.6193 0.91484 0.0
O549 O 0.63214 0.54726 0.92098 0.0
O550 O 0.57417 0.62997 0.90407 0.0
O551 O 0.58535 0.55715 0.88377 0.0
H552 H 0.60875 0.82497 0.85976 0.0
H553 H 0.61653 0.91646 0.85493 0.0
H554 H 0.59516 0.94248 0.92763 0.0
H555 H 0.58685 0.85145 0.93205 0.0
H556 H 0.62413 0.43128 0.90238 0.0
H557 H 0.61932 0.33904 0.90829 0.0
H558 H 0.64004 0.31271 0.8354 0.0
H559 H 0.64528 0.40468 0.82992 0.0
Pr560 Pr 0.37155 0.69049 0.65529 0.0
Pr561 Pr 0.34713 0.5805 0.65904 0.0
C562 C 0.38536 0.78762 0.64709 0.0
C563 C 0.37788 0.84153 0.64924 0.0
C564 C 0.36656 0.86008 0.66971 0.0
C565 C 0.36117 0.91215 0.67186 0.0
C566 C 0.36687 0.94663 0.65355 0.0
C567 C 0.37769 0.92752 0.63288 0.0
C568 C 0.38316 0.87558 0.63079 0.0
C569 C 0.37356 0.63962 0.6991 0.0
C570 C 0.31355 0.68388 0.66486 0.0
C571 C 0.33464 0.48953 0.67757 0.0
C572 C 0.33705 0.4341 0.6738 0.0
C573 C 0.34571 0.41405 0.65239 0.0
C574 C 0.34849 0.36113 0.6496 0.0
C575 C 0.34277 0.32741 0.66822 0.0
C576 C 0.33398 0.34799 0.68958 0.0
C577 C 0.33119 0.40075 0.69231 0.0
C578 C 0.34854 0.60738 0.61099 0.0
C579 C 0.40403 0.59294 0.64361 0.0
O580 O 0.37479 0.7595 0.63108 0.0
O581 O 0.39013 0.76282 0.66669 0.0
O582 O 0.35594 0.64305 0.68561 0.0
O583 O 0.39153 0.66385 0.6902 0.0
O584 O 0.31471 0.63357 0.6672 0.0
O585 O 0.33205 0.71222 0.65957 0.0
O586 O 0.35384 0.51403 0.68372 0.0
O587 O 0.32133 0.51495 0.66262 0.0
O588 O 0.35638 0.63428 0.62794 0.0
O589 O 0.33935 0.56525 0.61891 0.0
O590 O 0.40015 0.64092 0.6379 0.0
O591 O 0.38797 0.5645 0.65447 0.0
H592 H 0.36216 0.83451 0.68415 0.0
H593 H 0.35253 0.92542 0.68787 0.0
H594 H 0.38258 0.95294 0.61854 0.0
H595 H 0.39196 0.86212 0.61488 0.0
H596 H 0.3505 0.43932 0.63795 0.0
H597 H 0.35555 0.34673 0.63302 0.0
H598 H 0.32906 0.32328 0.70417 0.0
H599 H 0.32452 0.41558 0.70899 0.0
Pr600 Pr 0.60034 0.35994 0.6532 0.0
Pr601 Pr 0.62559 0.46993 0.6559 0.0
C602 C 0.58604 0.26279 0.64583 0.0
C603 C 0.59392 0.20898 0.64675 0.0
C604 C 0.60786 0.1904 0.66549 0.0
C605 C 0.61359 0.13836 0.66677 0.0
C606 C 0.60561 0.10392 0.64928 0.0
C607 C 0.59217 0.12308 0.63024 0.0
C608 C 0.58638 0.17499 0.62904 0.0
C609 C 0.59904 0.41283 0.69658 0.0
C610 C 0.65843 0.36556 0.66225 0.0
C611 C 0.63887 0.5613 0.67358 0.0
C612 C 0.6366 0.61673 0.66975 0.0
C613 C 0.62531 0.6366 0.64959 0.0
C614 C 0.62246 0.68956 0.64698 0.0
C615 C 0.63074 0.72349 0.66457 0.0
C616 C 0.64227 0.70308 0.68459 0.0
C617 C 0.64513 0.65031 0.68713 0.0
C618 C 0.6235 0.4402 0.60816 0.0
C619 C 0.56825 0.45825 0.64151 0.0
O620 O 0.59464 0.29159 0.62894 0.0
O621 O 0.58339 0.28693 0.66602 0.0
O622 O 0.61649 0.40853 0.68292 0.0
O623 O 0.58089 0.38837 0.68813 0.0
O624 O 0.65754 0.41592 0.66466 0.0
O625 O 0.63983 0.3377 0.65672 0.0
O626 O 0.61973 0.53731 0.6803 0.0
O627 O 0.65168 0.53528 0.6584 0.0
O628 O 0.61572 0.41487 0.62559 0.0
O629 O 0.6331 0.48252 0.61542 0.0
O630 O 0.57163 0.40981 0.63626 0.0
O631 O 0.58476 0.4868 0.65169 0.0
H632 H 0.61406 0.21593 0.6793 0.0
H633 H 0.62425 0.12508 0.68149 0.0
H634 H 0.5855 0.0977 0.61661 0.0
H635 H 0.57555 0.18846 0.61446 0.0
H636 H 0.61846 0.61116 0.63605 0.0
H637 H 0.61329 0.70383 0.63147 0.0
H638 H 0.6492 0.72793 0.6983 0.0
H639 H 0.65386 0.63563 0.70283 0.0
H640 H 0.16577 0.29871 0.15446 0.0
H641 H 0.3046 0.2818 0.17497 0.0
H642 H 0.20254 0.15935 0.17237 0.0
H643 H 0.26878 0.42076 0.15469 0.0
H644 H 0.26681 0.2389 0.17812 0.0
H645 H 0.20259 0.34566 0.15814 0.0
C646 C 0.18158 0.27787 0.15924 0.0
C647 C 0.18109 0.22475 0.16289 0.0
C648 C 0.26712 0.27883 0.17312 0.0
C649 C 0.2234 0.2787 0.16717 0.0
C650 C 0.28874 0.30349 0.17128 0.0
C651 C 0.28989 0.3549 0.1642 0.0
C652 C 0.24638 0.30553 0.16775 0.0
C653 C 0.26871 0.38108 0.16008 0.0
C654 C 0.20262 0.30488 0.16138 0.0
C655 C 0.20212 0.20014 0.16925 0.0
N656 N 0.24778 0.3559 0.16168 0.0
N657 N 0.22246 0.22731 0.17105 0.0
H658 H 0.77195 0.90084 0.17148 0.0
H659 H 0.70877 0.62725 0.1661 0.0
H660 H 0.80913 0.75843 0.16104 0.0
H661 H 0.67159 0.77139 0.16747 0.0
H662 H 0.74609 0.67386 0.16953 0.0
H663 H 0.73512 0.85291 0.17537 0.0
C664 C 0.7724 0.85956 0.17017 0.0
C665 C 0.79358 0.83369 0.16566 0.0
C666 C 0.72971 0.69514 0.16921 0.0
C667 C 0.75164 0.77868 0.17006 0.0
C668 C 0.70843 0.66855 0.16729 0.0
C669 C 0.68707 0.69544 0.16618 0.0
C670 C 0.72951 0.74885 0.17013 0.0
C671 C 0.68765 0.749 0.1679 0.0
C672 C 0.75139 0.8322 0.17235 0.0
C673 C 0.79316 0.78008 0.16422 0.0
N674 N 0.70851 0.7739 0.16967 0.0
N675 N 0.77251 0.7544 0.16629 0.0
H676 H 0.26681 0.63308 0.37255 0.0
H677 H 0.20519 0.90918 0.37476 0.0
H678 H 0.30422 0.77494 0.38358 0.0
H679 H 0.16693 0.76674 0.37074 0.0
H680 H 0.24222 0.86089 0.37367 0.0
H681 H 0.23019 0.68191 0.36785 0.0
C682 C 0.26735 0.67434 0.37393 0.0
C683 C 0.28857 0.6998 0.37871 0.0
C684 C 0.22567 0.84032 0.37292 0.0
C685 C 0.24693 0.75582 0.37325 0.0
C686 C 0.20457 0.86791 0.37346 0.0
C687 C 0.18296 0.84202 0.37314 0.0
C688 C 0.22507 0.78659 0.37196 0.0
C689 C 0.18318 0.78841 0.37138 0.0
C690 C 0.24648 0.70222 0.37124 0.0
C691 C 0.28826 0.75345 0.38019 0.0
N692 N 0.20387 0.76252 0.37098 0.0
N693 N 0.2678 0.77958 0.37754 0.0
H694 H 0.76742 0.13025 0.37344 0.0
H695 H 0.70091 0.40039 0.36864 0.0
H696 H 0.80292 0.27625 0.37416 0.0
H697 H 0.66547 0.25594 0.37849 0.0
H698 H 0.73841 0.35459 0.36524 0.0
H699 H 0.72963 0.17503 0.37 0.0
C700 C 0.76729 0.1716 0.37273 0.0
C701 C 0.78833 0.19949 0.37436 0.0
C702 C 0.72238 0.33297 0.36803 0.0
C703 C 0.7453 0.25087 0.3704 0.0
C704 C 0.70098 0.3591 0.36991 0.0
C705 C 0.68009 0.33203 0.37412 0.0
C706 C 0.7228 0.27947 0.37027 0.0
C707 C 0.68119 0.27848 0.37554 0.0
C708 C 0.74574 0.19715 0.37081 0.0
C709 C 0.78713 0.25308 0.37327 0.0
N710 N 0.7022 0.254 0.37374 0.0
N711 N 0.766 0.27697 0.37145 0.0
H712 H 0.70575 0.63082 0.87472 0.0
H713 H 0.76908 0.90469 0.8713 0.0
H714 H 0.66854 0.77494 0.87435 0.0
H715 H 0.80637 0.76172 0.87939 0.0
H716 H 0.73208 0.85705 0.86817 0.0
H717 H 0.74309 0.67763 0.87211 0.0
C718 C 0.70541 0.67216 0.87393 0.0
C719 C 0.68401 0.69893 0.87503 0.0
C720 C 0.74841 0.83617 0.87055 0.0
C721 C 0.72651 0.75264 0.87205 0.0
C722 C 0.76952 0.86338 0.87231 0.0
C723 C 0.79083 0.8373 0.87584 0.0
C724 C 0.74866 0.78255 0.87225 0.0
C725 C 0.79035 0.78362 0.87693 0.0
C726 C 0.7267 0.69888 0.8725 0.0
C727 C 0.68461 0.75258 0.87387 0.0
N728 N 0.76961 0.75809 0.87523 0.0
N729 N 0.70548 0.77759 0.87255 0.0
H730 H 0.30546 0.26111 0.87522 0.0
H731 H 0.16532 0.28446 0.87601 0.0
H732 H 0.26843 0.40549 0.87498 0.0
H733 H 0.20255 0.14054 0.87257 0.0
H734 H 0.20277 0.32934 0.87373 0.0
H735 H 0.26796 0.21676 0.87241 0.0
C736 C 0.28944 0.28365 0.87453 0.0
C737 C 0.29012 0.33728 0.87553 0.0
C738 C 0.20278 0.28797 0.87335 0.0
C739 C 0.24696 0.28626 0.87231 0.0
C740 C 0.18137 0.26217 0.87471 0.0
C741 C 0.18078 0.20848 0.8747 0.0
C742 C 0.22384 0.26003 0.87209 0.0
C743 C 0.20217 0.18189 0.87272 0.0
C744 C 0.26799 0.25812 0.87286 0.0
C745 C 0.26875 0.36416 0.87434 0.0
N746 N 0.22286 0.20798 0.87166 0.0
N747 N 0.248 0.33831 0.87293 0.0
H748 H 0.66517 0.2625 0.66538 0.0
H749 H 0.80536 0.28243 0.66581 0.0
H750 H 0.70304 0.40565 0.66713 0.0
H751 H 0.76771 0.13901 0.66681 0.0
H752 H 0.76811 0.32779 0.66888 0.0
H753 H 0.70239 0.21686 0.66848 0.0
C754 C 0.68132 0.28448 0.66649 0.0
C755 C 0.68097 0.33816 0.66574 0.0
C756 C 0.76794 0.28642 0.66856 0.0
C757 C 0.72378 0.28569 0.6693 0.0
C758 C 0.78925 0.26032 0.66674 0.0
C759 C 0.78967 0.20666 0.66578 0.0
C760 C 0.74679 0.25883 0.66931 0.0
C761 C 0.76821 0.18034 0.66738 0.0
C762 C 0.70259 0.25823 0.66832 0.0
C763 C 0.70246 0.36432 0.66754 0.0
N764 N 0.74759 0.20674 0.66888 0.0
N765 N 0.72303 0.33778 0.66905 0.0
H766 H 0.20455 0.91484 0.66701 0.0
H767 H 0.26917 0.64221 0.66828 0.0
H768 H 0.16834 0.77034 0.66024 0.0
H769 H 0.30599 0.78666 0.66811 0.0
H770 H 0.23171 0.68861 0.66979 0.0
H771 H 0.24178 0.86842 0.67161 0.0
C772 C 0.20439 0.87347 0.66658 0.0
C773 C 0.1833 0.84657 0.66302 0.0
C774 C 0.24802 0.71008 0.66955 0.0
C775 C 0.22574 0.79325 0.66832 0.0
C776 C 0.2694 0.68357 0.66877 0.0
C777 C 0.29074 0.71051 0.66781 0.0
C778 C 0.24803 0.76383 0.66945 0.0
C779 C 0.28997 0.76419 0.66853 0.0
C780 C 0.22563 0.84697 0.6692 0.0
C781 C 0.18415 0.79287 0.66272 0.0
N782 N 0.26899 0.78903 0.66918 0.0
N783 N 0.205 0.76807 0.66524 0.0
H784 H 0.06286 0.93746 0.31217 0.0
H785 H 0.13907 0.09686 0.21748 0.0
H786 H 0.13833 0.955 0.31655 0.0
H787 H 0.06324 0.10545 0.22146 0.0
H788 H 0.13911 0.03994 0.25201 0.0
H789 H 0.06254 0.99354 0.2772 0.0
C790 C 0.07937 0.95287 0.30569 0.0
C791 C 0.10065 0.94148 0.3173 0.0
C792 C 0.12244 0.05433 0.2454 0.0
C793 C 0.10045 1.00573 0.27724 0.0
C794 C 0.12241 0.08684 0.22566 0.0
C795 C 0.10113 0.10614 0.2166 0.0
C796 C 0.10099 0.04048 0.25616 0.0
C797 C 0.08008 0.09169 0.22791 0.0
C798 C 0.07918 0.98506 0.28579 0.0
C799 C 0.12151 0.96273 0.30817 0.0
N800 N 0.08053 0.05967 0.24701 0.0
N801 N 0.12089 0.99365 0.28873 0.0
H802 H 0.90977 0.11526 0.31524 0.0
H803 H 0.83539 0.95918 0.21784 0.0
H804 H 0.83462 0.09209 0.31947 0.0
H805 H 0.9112 0.95116 0.22255 0.0
H806 H 0.83485 1.0139 0.25315 0.0
H807 H 0.9108 0.0615 0.27941 0.0
C808 C 0.89348 0.09911 0.30856 0.0
C809 C 0.87207 0.10823 0.32035 0.0
C810 C 0.85163 1.00013 0.24653 0.0
C811 C 0.87309 0.04676 0.27935 0.0
C812 C 0.85194 0.9689 0.22634 0.0
C813 C 0.87336 0.95035 0.21729 0.0
C814 C 0.87292 1.01352 0.25773 0.0
C815 C 0.89427 0.96438 0.22901 0.0
C816 C 0.89409 0.06825 0.28817 0.0
C817 C 0.85151 0.0861 0.31095 0.0
N818 N 0.89354 0.99521 0.24855 0.0
N819 N 0.85252 0.05659 0.29104 0.0
H820 H 0.9111 0.11381 0.72344 0.0
H821 H 0.83547 0.96389 0.82167 0.0
H822 H 0.83556 0.09634 0.72033 0.0
H823 H 0.91099 0.94899 0.81595 0.0
H824 H 0.83551 1.01904 0.78662 0.0
H825 H 0.91181 0.06013 0.75926 0.0
C826 C 0.89467 0.09893 0.73036 0.0
C827 C 0.87323 0.10963 0.71889 0.0
C828 C 0.8521 1.00371 0.79296 0.0
C829 C 0.87389 0.04833 0.75989 0.0
C830 C 0.85209 0.97223 0.81301 0.0
C831 C 0.87325 0.95161 0.82171 0.0
C832 C 0.87347 1.0152 0.78149 0.0
C833 C 0.89426 0.96389 0.80979 0.0
C834 C 0.89509 0.06813 0.75075 0.0
C835 C 0.85248 0.08912 0.72859 0.0
N836 N 0.89385 0.99497 0.79034 0.0
N837 N 0.85333 0.05967 0.74848 0.0
H838 H 0.13651 0.0879 0.82043 0.0
H839 H 0.0618 0.93946 0.7209 0.0
H840 H 0.06098 0.10188 0.81448 0.0
H841 H 0.13717 0.95974 0.71756 0.0
H842 H 0.06082 0.99251 0.75695 0.0
H843 H 0.13683 0.03457 0.78471 0.0
C844 C 0.11996 0.07976 0.81158 0.0
C845 C 0.09868 0.09956 0.82043 0.0
C846 C 0.07757 0.98532 0.74833 0.0
C847 C 0.09889 0.03802 0.77944 0.0
C848 C 0.07815 0.95489 0.72781 0.0
C849 C 0.09961 0.94506 0.71622 0.0
C850 C 0.09865 1.00564 0.75753 0.0
C851 C 0.12024 0.96626 0.72591 0.0
C852 C 0.12016 0.04933 0.79114 0.0
C853 C 0.07779 0.08759 0.80822 0.0
N854 N 0.11925 0.9953 0.74598 0.0
N855 N 0.07839 0.05748 0.78841 0.0
H856 H 0.56168 0.44079 0.31643 0.0
H857 H 0.64142 0.58483 0.21976 0.0
H858 H 0.63741 0.45152 0.32096 0.0
H859 H 0.56611 0.60552 0.22418 0.0
H860 H 0.63997 0.53076 0.25514 0.0
H861 H 0.56255 0.49565 0.28104 0.0
C862 C 0.57849 0.4545 0.30992 0.0
C863 C 0.59951 0.44143 0.32164 0.0
C864 C 0.62374 0.54723 0.24848 0.0
C865 C 0.60066 0.50416 0.28112 0.0
C866 C 0.62456 0.57813 0.22825 0.0
C867 C 0.60386 0.59991 0.21904 0.0
C868 C 0.60202 0.53747 0.2596 0.0
C869 C 0.58251 0.58972 0.23075 0.0
C870 C 0.57897 0.48598 0.28978 0.0
C871 C 0.62078 0.46054 0.31249 0.0
N872 N 0.58212 0.55908 0.25035 0.0
N873 N 0.62082 0.49069 0.29279 0.0
H874 H 0.33647 0.55258 0.33071 0.0
H875 H 0.38143 0.50768 0.20142 0.0
H876 H 0.40372 0.6151 0.31004 0.0
H877 H 0.35854 0.37679 0.24156 0.0
H878 H 0.38283 0.55793 0.2382 0.0
H879 H 0.33725 0.49716 0.29543 0.0
C880 C 0.35147 0.55442 0.31886 0.0
C881 C 0.37028 0.5879 0.32358 0.0
C882 C 0.37755 0.5182 0.23893 0.0
C883 C 0.37071 0.52624 0.28273 0.0
C884 C 0.3766 0.48958 0.21798 0.0
C885 C 0.36983 0.43804 0.21847 0.0
C886 C 0.37091 0.49565 0.26048 0.0
C887 C 0.36395 0.41638 0.24048 0.0
C888 C 0.35186 0.52283 0.29877 0.0
C889 C 0.38897 0.58956 0.30723 0.0
N890 N 0.36426 0.44553 0.26062 0.0
N891 N 0.38857 0.55967 0.28737 0.0
H892 H 0.33451 0.45407 0.8204 0.0
H893 H 0.41207 0.6078 0.72501 0.0
H894 H 0.4099 0.43639 0.81483 0.0
H895 H 0.33631 0.59572 0.72186 0.0
H896 H 0.41211 0.55064 0.75967 0.0
H897 H 0.33521 0.51131 0.78609 0.0
C898 C 0.35122 0.46212 0.81188 0.0
C899 C 0.37217 0.44028 0.82046 0.0
C900 C 0.39549 0.56056 0.75139 0.0
C901 C 0.37316 0.50628 0.78112 0.0
C902 C 0.39546 0.59334 0.73168 0.0
C903 C 0.37416 0.60657 0.72054 0.0
C904 C 0.37403 0.54129 0.76018 0.0
C905 C 0.35315 0.58655 0.72988 0.0
C906 C 0.35162 0.49484 0.79227 0.0
C907 C 0.39333 0.45222 0.80874 0.0
N908 N 0.35362 0.55512 0.74911 0.0
N909 N 0.39331 0.48455 0.78974 0.0
H910 H 0.56224 0.6099 0.81637 0.0
H911 H 0.6369 0.45679 0.71828 0.0
H912 H 0.63769 0.59032 0.81931 0.0
H913 H 0.56131 0.44391 0.72393 0.0
H914 H 0.63715 0.51175 0.7534 0.0
H915 H 0.56111 0.55543 0.78074 0.0
C916 C 0.57857 0.5944 0.80944 0.0
C917 C 0.6001 0.60476 0.8208 0.0
C918 C 0.62048 0.49688 0.74706 0.0
C919 C 0.59896 0.5425 0.78005 0.0
C920 C 0.62032 0.46547 0.72696 0.0
C921 C 0.59905 0.44556 0.71818 0.0
C922 C 0.59918 0.50903 0.75851 0.0
C923 C 0.57812 0.45826 0.73016 0.0
C924 C 0.57791 0.56313 0.78918 0.0
C925 C 0.6207 0.58342 0.81112 0.0
N926 N 0.57868 0.48932 0.74965 0.0
N927 N 0.61963 0.55352 0.79135 0.0
H928 H 0.15795 0.0903 0.96243 0.0
H929 H 0.08791 0.16508 0.07887 0.0
H930 H 0.09096 0.16724 0.95673 0.0
H931 H 0.16348 0.14723 0.07603 0.0
H932 H 0.08694 0.16605 0.03503 0.0
H933 H 0.15885 0.1093 1.0047 0.0
C934 C 0.14347 0.11172 0.97012 0.0
C935 C 0.12439 0.12732 0.95606 0.0
C936 C 0.10372 0.16276 0.04409 0.0
C937 C 0.12501 0.14848 1.00493 0.0
C938 C 0.1043 0.16224 0.06908 0.0
C939 C 0.1258 0.15541 0.08115 0.0
C940 C 0.12475 0.15587 0.03122 0.0
C941 C 0.14647 0.15193 0.06755 0.0
C942 C 0.144 0.12269 0.99431 0.0
C943 C 0.10609 0.15492 0.96698 0.0
N944 N 0.14539 0.15153 0.04346 0.0
N945 N 0.10665 0.16401 0.99093 0.0
H946 H 0.88224 0.87908 0.9566 0.0
H947 H 0.8094 0.90019 0.07835 0.0
H948 H 0.8139 0.94932 0.96432 0.0
H949 H 0.88534 0.89061 0.07861 0.0
H950 H 0.80969 0.89504 0.03516 0.0
H951 H 0.88259 0.86203 0.99989 0.0
C952 C 0.86716 0.88989 0.9673 0.0
C953 C 0.848 0.91566 0.95697 0.0
C954 C 0.82633 0.89357 0.0446 0.0
C955 C 0.84818 0.89612 1.00599 0.0
C956 C 0.82617 0.89637 0.06932 0.0
C957 C 0.84739 0.89662 0.08213 0.0
C958 C 0.84786 0.89094 0.03235 0.0
C959 C 0.86858 0.89091 0.06939 0.0
C960 C 0.86744 0.88055 0.99194 0.0
C961 C 0.82904 0.92952 0.97159 0.0
N962 N 0.86832 0.88885 0.04512 0.0
N963 N 0.8296 0.91954 0.99522 0.0
H964 H 0.11915 0.0299 0.45883 0.0
H965 H 0.10875 0.86906 0.57957 0.0
H966 H 0.11467 0.86556 0.45575 0.0
H967 H 0.13114 0.02581 0.57253 0.0
H968 H 0.10561 0.86379 0.53559 0.0
H969 H 0.1169 0.02647 0.50155 0.0
C970 C 0.11767 0.99279 0.46721 0.0
C971 C 0.11745 0.94794 0.45362 0.0
C972 C 0.11118 0.89915 0.54386 0.0
C973 C 0.11521 0.94347 0.50342 0.0
C974 C 0.11292 0.9022 0.56888 0.0
C975 C 0.12027 0.94794 0.57979 0.0
C976 C 0.1165 0.94239 0.52996 0.0
C977 C 0.12548 0.98965 0.56511 0.0
C978 C 0.11642 0.99081 0.49179 0.0
C979 C 0.11502 0.90107 0.46562 0.0
N980 N 0.12345 0.98581 0.54124 0.0
N981 N 0.11424 0.89991 0.48998 0.0
H982 H 0.86804 0.17573 0.58181 0.0
H983 H 0.84286 1.01709 0.46259 0.0
H984 H 0.83278 0.03017 0.5763 0.0
H985 H 0.86242 0.17602 0.45795 0.0
H986 H 0.84405 1.02243 0.50523 0.0
H987 H 0.86998 0.17902 0.53773 0.0
C988 C 0.86069 0.14473 0.57143 0.0
C989 C 0.85029 0.10251 0.58282 0.0
C990 C 0.84804 0.05656 0.49515 0.0
C991 C 0.8526 0.1058 0.53287 0.0
C992 C 0.8474 0.05347 0.47058 0.0
C993 C 0.85228 0.09629 0.45653 0.0
C994 C 0.85351 0.10303 0.50634 0.0
C995 C 0.85839 0.14212 0.46815 0.0
C996 C 0.86179 0.14663 0.54636 0.0
C997 C 0.84104 0.06345 0.56853 0.0
N998 N 0.85873 0.14445 0.4925 0.0
N999 N 0.8425 0.06608 0.54459 0.0
H1000 H 0.60886 0.66907 0.08289 0.0
H1001 H 0.62803 0.51199 0.96207 0.0
H1002 H 0.6398 0.51917 0.07578 0.0
H1003 H 0.61268 0.67332 0.95905 0.0
H1004 H 0.62714 0.51552 1.00476 0.0
H1005 H 0.60605 0.67395 0.0389 0.0
C1006 C 0.61506 0.6374 0.07218 0.0
C1007 C 0.62455 0.59358 0.08308 0.0
C1008 C 0.624 0.55054 0.99504 0.0
C1009 C 0.62124 0.59869 0.03322 0.0
C1010 C 0.62447 0.54851 0.97044 0.0
C1011 C 0.62071 0.59254 0.95683 0.0
C1012 C 0.61989 0.59714 1.00669 0.0
C1013 C 0.6158 0.63849 0.96891 0.0
C1014 C 0.61347 0.64022 0.04715 0.0
C1015 C 0.63232 0.55373 0.06838 0.0
N1016 N 0.61568 0.63976 0.99328 0.0
N1017 N 0.63043 0.55728 0.04449 0.0
H1018 H 0.35162 0.35138 0.95639 0.0
H1019 H 0.3898 0.49535 0.07567 0.0
H1020 H 0.36506 0.51284 0.96297 0.0
H1021 H 0.34184 0.36789 0.07957 0.0
H1022 H 0.39131 0.48579 0.03272 0.0
H1023 H 0.35699 0.34271 0.99997 0.0
C1024 C 0.35605 0.38467 0.96692 0.0
C1025 C 0.35785 0.43295 0.95618 0.0
C1026 C 0.38065 0.45941 0.04292 0.0
C1027 C 0.36435 0.42325 1.00538 0.0
C1028 C 0.37983 0.46472 0.06748 0.0
C1029 C 0.36536 0.43293 0.08119 0.0
C1030 C 0.36687 0.42204 0.03169 0.0
C1031 C 0.3531 0.3934 0.06959 0.0
C1032 C 0.35894 0.37978 0.99168 0.0
C1033 C 0.36339 0.475 0.97055 0.0
N1034 N 0.35385 0.38944 0.04535 0.0
N1035 N 0.36653 0.46912 0.99425 0.0
H1036 H 0.58682 0.38644 0.46038 0.0
H1037 H 0.65713 0.46352 0.57639 0.0
H1038 H 0.66209 0.40973 0.46251 0.0
H1039 H 0.5915 0.38162 0.58248 0.0
H1040 H 0.65769 0.44592 0.53401 0.0
H1041 H 0.58637 0.38466 0.50423 0.0
C1042 C 0.60326 0.39034 0.47002 0.0
C1043 C 0.6245 0.3989 0.45776 0.0
C1044 C 0.64323 0.43117 0.54451 0.0
C1045 C 0.62405 0.39749 0.50767 0.0
C1046 C 0.64288 0.44134 0.56876 0.0
C1047 C 0.62428 0.42393 0.58297 0.0
C1048 C 0.62452 0.40429 0.53398 0.0
C1049 C 0.60626 0.39538 0.57211 0.0
C1050 C 0.60298 0.38935 0.495 0.0
C1051 C 0.64526 0.40369 0.47114 0.0
N1052 N 0.60662 0.38704 0.54811 0.0
N1053 N 0.64445 0.40357 0.49524 0.0
H1054 H 0.31295 0.58525 0.58149 0.0
H1055 H 0.37896 0.66071 0.46073 0.0
H1056 H 0.38034 0.66117 0.58277 0.0
H1057 H 0.3123 0.58271 0.46648 0.0
H1058 H 0.37887 0.67302 0.50441 0.0
H1059 H 0.3111 0.5965 0.53886 0.0
C1060 C 0.32734 0.60484 0.57271 0.0
C1061 C 0.34685 0.62203 0.58565 0.0
C1062 C 0.36413 0.65398 0.49596 0.0
C1063 C 0.34527 0.63407 0.53616 0.0
C1064 C 0.36412 0.64728 0.47109 0.0
C1065 C 0.34566 0.62039 0.46007 0.0
C1066 C 0.34544 0.63401 0.5096 0.0
C1067 C 0.32699 0.60325 0.47424 0.0
C1068 C 0.32633 0.61123 0.54824 0.0
C1069 C 0.36493 0.64749 0.57335 0.0
N1070 N 0.32744 0.61013 0.49808 0.0
N1071 N 0.36391 0.65208 0.54913 0.0
H1072 H 0.91843 0.05697 0.14255 0.0
H1073 H 0.05606 0.99943 0.1429 0.0
H1074 H 0.94731 0.90609 0.13106 0.0
H1075 H 0.02706 0.15007 0.1312 0.0
H1076 H 0.01621 0.96398 0.13993 0.0
H1077 H 0.95829 0.09221 0.13974 0.0
C1078 C 0.93309 0.03135 0.13926 0.0
C1079 C 0.92957 0.97857 0.13715 0.0
C1080 C 0.01868 1.00474 0.13781 0.0
C1081 C 0.97504 1.01835 0.13416 0.0
C1082 C 0.04138 0.02494 0.13955 0.0
C1083 C 0.04486 0.07773 0.13742 0.0
C1084 C -0.00057 0.03773 0.13423 0.0
C1085 C 0.02522 0.1091 0.13303 0.0
C1086 C 0.9558 0.05144 0.13762 0.0
C1087 C 0.94919 0.94707 0.13285 0.0
N1088 N 0.00332 0.08867 0.13179 0.0
N1089 N 0.97112 0.9674 0.13173 0.0
H1090 H 0.94267 0.14279 0.40568 0.0
H1091 H 0.02969 0.90535 0.40441 0.0
H1092 H 0.91952 0.9893 0.38976 0.0
H1093 H 0.05302 0.05815 0.38746 0.0
H1094 H -0.01067 0.93646 0.40707 0.0
H1095 H 0.98336 0.11247 0.40693 0.0
C1096 C 0.9461 0.10258 0.40269 0.0
C1097 C 0.9277 0.06839 0.39757 0.0
C1098 C 0.00331 0.96315 0.40285 0.0
C1099 C 0.97413 0.03383 0.39905 0.0
C1100 C 0.02639 0.94561 0.40145 0.0
C1101 C 0.04476 0.9793 0.39563 0.0
C1102 C -0.00144 1.01484 0.39871 0.0
C1103 C 0.03935 0.03092 0.39188 0.0
C1104 C 0.96933 0.08551 0.40326 0.0
C1105 C 0.93321 1.01688 0.39367 0.0
N1106 N 0.01664 0.04724 0.39353 0.0
N1107 N 0.956 1.00106 0.39456 0.0
H1108 H 0.05376 0.98898 0.89597 0.0
H1109 H 0.91751 0.0575 0.8973 0.0
H1110 H 0.02789 0.14164 0.90947 0.0
H1111 H 0.9437 0.90476 0.90982 0.0
H1112 H 0.95793 0.08962 0.90056 0.0
H1113 H 0.01338 0.95693 0.89977 0.0
C1114 C 0.03968 1.01565 0.89992 0.0
C1115 C 0.04421 0.06805 0.90226 0.0
C1116 C 0.95471 0.04915 0.90283 0.0
C1117 C -0.00189 0.03189 0.90635 0.0
C1118 C 0.93167 0.03083 0.90094 0.0
C1119 C 0.92721 0.97838 0.90311 0.0
C1120 C 0.97335 1.01463 0.90657 0.0
C1121 C 0.94626 0.94552 0.90791 0.0
C1122 C 0.01666 0.99737 0.90213 0.0
C1123 C 0.02526 0.10091 0.90745 0.0
N1124 N 0.96852 0.96412 0.9092 0.0
N1125 N 0.00302 0.08236 0.90906 0.0
H1126 H 0.91855 0.98974 0.64801 0.0
H1127 H 0.0542 0.06299 0.6457 0.0
H1128 H 0.94274 0.14202 0.63135 0.0
H1129 H 0.02954 0.91006 0.63094 0.0
H1130 H 0.01329 0.09323 0.64403 0.0
H1131 H 0.95939 0.9594 0.64536 0.0
C1132 C 0.9324 1.01665 0.64366 0.0
C1133 C 0.92727 0.0684 0.63989 0.0
C1134 C 0.01696 0.05315 0.64096 0.0
C1135 C 0.97378 0.03429 0.63718 0.0
C1136 C 0.04023 0.03591 0.64197 0.0
C1137 C 0.04525 0.98402 0.63845 0.0
C1138 C -0.00133 1.01802 0.63686 0.0
C1139 C 0.0265 0.95048 0.63366 0.0
C1140 C 0.95563 0.99936 0.6421 0.0
C1141 C 0.94587 0.10171 0.63429 0.0
N1142 N 0.004 0.96798 0.63324 0.0
N1143 N 0.96834 0.08418 0.63334 0.0
H1144 H 0.44462 0.40446 0.14437 0.0
H1145 H 0.53441 0.63454 0.12988 0.0
H1146 H 0.42264 0.56243 0.14717 0.0
H1147 H 0.55575 0.48537 0.15477 0.0
H1148 H 0.49349 0.60645 0.13004 0.0
H1149 H 0.48555 0.43191 0.14252 0.0
C1150 C 0.44839 0.44503 0.1445 0.0
C1151 C 0.4302 0.48135 0.14584 0.0
C1152 C 0.50715 0.5799 0.13541 0.0
C1153 C 0.47705 0.51276 0.14367 0.0
C1154 C 0.53055 0.59566 0.13516 0.0
C1155 C 0.54855 0.56217 0.14238 0.0
C1156 C 0.50172 0.53016 0.14264 0.0
C1157 C 0.54243 0.51242 0.14914 0.0
C1158 C 0.47178 0.46054 0.14357 0.0
C1159 C 0.43616 0.53327 0.14621 0.0
N1160 N 0.51945 0.49783 0.14908 0.0
N1161 N 0.45917 0.54752 0.14498 0.0
H1162 H 0.44184 0.63778 0.41062 0.0
H1163 H 0.52668 0.39602 0.41128 0.0
H1164 H 0.41713 0.48366 0.39875 0.0
H1165 H 0.55118 0.5487 0.39576 0.0
H1166 H 0.48667 0.42854 0.41471 0.0
H1167 H 0.48204 0.60578 0.41323 0.0
C1168 C 0.44478 0.59708 0.40879 0.0
C1169 C 0.42605 0.56329 0.40427 0.0
C1170 C 0.50081 0.45492 0.41066 0.0
C1171 C 0.47212 0.52675 0.4073 0.0
C1172 C 0.52372 0.43655 0.40878 0.0
C1173 C 0.54233 0.46975 0.40305 0.0
C1174 C 0.49644 0.50692 0.40703 0.0
C1175 C 0.53734 0.52179 0.40007 0.0
C1176 C 0.4678 0.57901 0.41018 0.0
C1177 C 0.43104 0.51105 0.40209 0.0
N1178 N 0.51478 0.53885 0.40206 0.0
N1179 N 0.45368 0.49433 0.40359 0.0
H1180 H 0.44404 0.39966 0.90516 0.0
H1181 H 0.53021 0.63844 0.90737 0.0
H1182 H 0.41984 0.5532 0.89091 0.0
H1183 H 0.55372 0.48586 0.89001 0.0
H1184 H 0.48968 0.60746 0.90902 0.0
H1185 H 0.48435 0.4311 0.90736 0.0
C1186 C 0.44714 0.44014 0.90269 0.0
C1187 C 0.42852 0.47394 0.89776 0.0
C1188 C 0.50375 0.58082 0.90495 0.0
C1189 C 0.47469 0.50988 0.90033 0.0
C1190 C 0.5269 0.59827 0.90414 0.0
C1191 C 0.54537 0.56457 0.8985 0.0
C1192 C 0.49908 0.52921 0.90044 0.0
C1193 C 0.53999 0.5131 0.89433 0.0
C1194 C 0.4702 0.45788 0.90383 0.0
C1195 C 0.43369 0.52586 0.89464 0.0
N1196 N 0.51727 0.4969 0.89544 0.0
N1197 N 0.45638 0.54235 0.89602 0.0
H1198 H 0.44345 0.64667 0.6317 0.0
H1199 H 0.52853 0.40539 0.62964 0.0
H1200 H 0.4193 0.49344 0.64651 0.0
H1201 H 0.55326 0.55794 0.64527 0.0
H1202 H 0.48839 0.43786 0.6273 0.0
H1203 H 0.48362 0.61456 0.62825 0.0
C1204 C 0.44651 0.60612 0.63399 0.0
C1205 C 0.42795 0.57262 0.63953 0.0
C1206 C 0.50263 0.46421 0.63111 0.0
C1207 C 0.47396 0.53594 0.63551 0.0
C1208 C 0.52561 0.44588 0.63234 0.0
C1209 C 0.54434 0.47903 0.63783 0.0
C1210 C 0.4983 0.51614 0.6351 0.0
C1211 C 0.53935 0.53102 0.64114 0.0
C1212 C 0.4695 0.58801 0.63212 0.0
C1213 C 0.43308 0.52059 0.64235 0.0
N1214 N 0.51674 0.54804 0.63974 0.0
N1215 N 0.45568 0.50378 0.6403 0.0
H1216 H 0.09516 0.78015 0.18267 0.0
H1217 H 0.13179 0.51199 0.12395 0.0
H1218 H 0.14541 0.76577 0.12549 0.0
H1219 H 0.08116 0.52664 0.18077 0.0
H1220 H 0.13699 0.60472 0.12422 0.0
H1221 H 0.08992 0.68746 0.18232 0.0
C1222 C 0.10517 0.75757 0.17007 0.0
C1223 C 0.12079 0.78109 0.1541 0.0
C1224 C 0.12476 0.58766 0.13665 0.0
C1225 C 0.11472 0.67448 0.1535 0.0
C1226 C 0.12169 0.53463 0.13644 0.0
C1227 C 0.10599 0.51117 0.15236 0.0
C1228 C 0.11202 0.6178 0.15287 0.0
C1229 C 0.0937 0.54271 0.16838 0.0
C1230 C 0.10208 0.70456 0.16982 0.0
C1231 C 0.13295 0.74963 0.13795 0.0
N1232 N 0.09694 0.59424 0.16819 0.0
N1233 N 0.1297 0.6981 0.13811 0.0
H1234 H 0.8142 0.29616 0.15598 0.0
H1235 H 0.90775 0.52565 0.15219 0.0
H1236 H 0.88948 0.27339 0.15163 0.0
H1237 H 0.83255 0.54851 0.15777 0.0
H1238 H 0.90139 0.43344 0.15213 0.0
H1239 H 0.82055 0.38842 0.15631 0.0
C1240 C 0.83208 0.31045 0.15492 0.0
C1241 C 0.85132 0.27657 0.15366 0.0
C1242 C 0.88626 0.45858 0.15339 0.0
C1243 C 0.85874 0.38285 0.15437 0.0
C1244 C 0.88988 0.51142 0.1536 0.0
C1245 C 0.87067 0.54532 0.1551 0.0
C1246 C 0.86323 0.43904 0.15466 0.0
C1247 C 0.84791 0.52415 0.15634 0.0
C1248 C 0.8357 0.36329 0.15528 0.0
C1249 C 0.87409 0.29774 0.15286 0.0
N1250 N 0.84485 0.47253 0.15611 0.0
N1251 N 0.87715 0.34936 0.15318 0.0
H1252 H 0.10778 0.29094 0.33672 0.0
H1253 H 0.12751 0.54038 0.41727 0.0
H1254 H 0.14196 0.28773 0.4052 0.0
H1255 H 0.09416 0.5432 0.34837 0.0
H1256 H 0.13308 0.44814 0.41318 0.0
H1257 H 0.10291 0.38327 0.34063 0.0
C1258 C 0.1144 0.3096 0.35254 0.0
C1259 C 0.1254 0.28121 0.37062 0.0
C1260 C 0.12458 0.46892 0.39893 0.0
C1261 C 0.11961 0.38749 0.37533 0.0
C1262 C 0.12129 0.52167 0.40129 0.0
C1263 C 0.11027 0.54988 0.38317 0.0
C1264 C 0.11677 0.44383 0.3783 0.0
C1265 C 0.10298 0.52337 0.36271 0.0
C1266 C 0.11149 0.36243 0.35482 0.0
C1267 C 0.13316 0.30772 0.39091 0.0
N1268 N 0.10628 0.47198 0.36088 0.0
N1269 N 0.13016 0.35923 0.39268 0.0
H1270 H 0.89183 0.51805 0.41217 0.0
H1271 H 0.81689 0.74292 0.35165 0.0
H1272 H 0.83317 0.49127 0.36489 0.0
H1273 H 0.87567 0.76896 0.39887 0.0
H1274 H 0.82242 0.6509 0.35635 0.0
H1275 H 0.88579 0.60989 0.40787 0.0
C1276 C 0.87755 0.53137 0.401 0.0
C1277 C 0.86293 0.49653 0.38896 0.0
C1278 C 0.8341 0.67672 0.36571 0.0
C1279 C 0.8561 0.60231 0.38369 0.0
C1280 C 0.83104 0.72939 0.36293 0.0
C1281 C 0.84588 0.76407 0.37481 0.0
C1282 C 0.85215 0.65822 0.38049 0.0
C1283 C 0.86361 0.74394 0.38955 0.0
C1284 C 0.8742 0.58398 0.39843 0.0
C1285 C 0.84504 0.51646 0.37434 0.0
N1286 N 0.86627 0.6925 0.39191 0.0
N1287 N 0.84213 0.5679 0.37215 0.0
H1288 H 0.80657 0.29868 0.88812 0.0
H1289 H 0.90148 0.52541 0.89263 0.0
H1290 H 0.88191 0.27494 0.88693 0.0
H1291 H 0.82626 0.55093 0.89387 0.0
H1292 H 0.89446 0.43356 0.89187 0.0
H1293 H 0.81324 0.39077 0.89118 0.0
C1294 C 0.82453 0.31273 0.88847 0.0
C1295 C 0.8437 0.27871 0.88719 0.0
C1296 C 0.87946 0.45917 0.89238 0.0
C1297 C 0.85146 0.38449 0.8909 0.0
C1298 C 0.88345 0.5118 0.89299 0.0
C1299 C 0.86444 0.54632 0.89342 0.0
C1300 C 0.85625 0.44044 0.89214 0.0
C1301 C 0.84149 0.526 0.8933 0.0
C1302 C 0.82831 0.3654 0.89034 0.0
C1303 C 0.86655 0.29939 0.88814 0.0
N1304 N 0.83805 0.47451 0.89267 0.0
N1305 N 0.86977 0.35078 0.88985 0.0
H1306 H 0.1093 0.51267 0.92665 0.0
H1307 H 0.12793 0.75304 0.8405 0.0
H1308 H 0.11279 0.50153 0.85025 0.0
H1309 H 0.12647 0.76521 0.91694 0.0
H1310 H 0.12268 0.66085 0.84392 0.0
H1311 H 0.11575 0.60486 0.92363 0.0
C1312 C 0.1114 0.52955 0.90923 0.0
C1313 C 0.11046 0.49908 0.88867 0.0
C1314 C 0.12355 0.68359 0.85997 0.0
C1315 C 0.11796 0.60491 0.8851 0.0
C1316 C 0.12668 0.73635 0.85805 0.0
C1317 C 0.12778 0.76718 0.87847 0.0
C1318 C 0.12145 0.66107 0.8825 0.0
C1319 C 0.12552 0.74319 0.90068 0.0
C1320 C 0.11517 0.58224 0.90753 0.0
C1321 C 0.11366 0.5232 0.86662 0.0
N1322 N 0.1225 0.69166 0.9021 0.0
N1323 N 0.11716 0.57455 0.86543 0.0
H1324 H 0.88195 0.77373 0.64818 0.0
H1325 H 0.82823 0.49264 0.66635 0.0
H1326 H 0.81282 0.74559 0.67742 0.0
H1327 H 0.89748 0.52199 0.63765 0.0
H1328 H 0.82218 0.58481 0.67064 0.0
H1329 H 0.88759 0.68169 0.64369 0.0
C1330 C 0.86785 0.74833 0.65351 0.0
C1331 C 0.84684 0.76783 0.66321 0.0
C1332 C 0.83869 0.57107 0.66338 0.0
C1333 C 0.85337 0.6617 0.65837 0.0
C1334 C 0.84223 0.51832 0.66105 0.0
C1335 C 0.86339 0.49916 0.65154 0.0
C1336 C 0.85645 0.60521 0.65621 0.0
C1337 C 0.88071 0.53469 0.6447 0.0
C1338 C 0.87117 0.6956 0.65108 0.0
C1339 C 0.82944 0.73257 0.67015 0.0
N1340 N 0.87686 0.58575 0.64718 0.0
N1341 N 0.83308 0.68141 0.6676 0.0
H1342 H 0.13839 0.30456 0.69615 0.0
H1343 H 0.10332 0.53627 0.6099 0.0
H1344 H 0.11867 0.28457 0.62267 0.0
H1345 H 0.12115 0.55606 0.68387 0.0
H1346 H 0.10995 0.4445 0.61399 0.0
H1347 H 0.13349 0.39678 0.69165 0.0
C1348 C 0.13319 0.31947 0.67899 0.0
C1349 C 0.12899 0.28638 0.65975 0.0
C1350 C 0.11247 0.46888 0.62933 0.0
C1351 C 0.12306 0.39254 0.65456 0.0
C1352 C 0.10857 0.52141 0.62705 0.0
C1353 C 0.11151 0.55428 0.64661 0.0
C1354 C 0.1194 0.44861 0.65134 0.0
C1355 C 0.11884 0.53254 0.66822 0.0
C1356 C 0.13026 0.37226 0.67649 0.0
C1357 C 0.12185 0.30827 0.63811 0.0
N1358 N 0.12243 0.48121 0.67002 0.0
N1359 N 0.11914 0.3598 0.63611 0.0
H1360 H 0.5803 1.01213 0.13257 0.0
H1361 H 0.66343 0.23657 0.18156 0.0
H1362 H 0.64594 0.98487 0.16931 0.0
H1363 H 0.59777 0.26286 0.14471 0.0
H1364 H 0.6575 0.14456 0.17715 0.0
H1365 H 0.58673 0.10391 0.13648 0.0
C1366 C 0.59618 0.02534 0.14132 0.0
C1367 C 0.61265 0.99036 0.15051 0.0
C1368 C 0.6444 0.17044 0.16999 0.0
C1369 C 0.61998 0.09612 0.15535 0.0
C1370 C 0.6477 0.2231 0.17262 0.0
C1371 C 0.63104 0.25785 0.16356 0.0
C1372 C 0.62426 0.15202 0.15824 0.0
C1373 C 0.61125 0.23781 0.15175 0.0
C1374 C 0.59976 0.07792 0.14368 0.0
C1375 C 0.63262 1.01016 0.16214 0.0
N1376 N 0.6084 0.18638 0.1495 0.0
N1377 N 0.63573 0.06159 0.16418 0.0
H1378 H 0.34981 0.80234 0.19288 0.0
H1379 H 0.36243 0.04447 0.10684 0.0
H1380 H 0.34396 0.79384 0.11655 0.0
H1381 H 0.36879 0.05362 0.18311 0.0
H1382 H 0.35539 0.95277 0.11016 0.0
H1383 H 0.35637 0.89437 0.18978 0.0
C1384 C 0.34978 0.81983 0.17546 0.0
C1385 C 0.34627 0.79017 0.15494 0.0
C1386 C 0.35832 0.97477 0.12619 0.0
C1387 C 0.35399 0.89573 0.15125 0.0
C1388 C 0.36247 0.02717 0.1243 0.0
C1389 C 0.36635 0.0569 0.14472 0.0
C1390 C 0.35805 0.95161 0.14867 0.0
C1391 C 0.36569 0.03239 0.1669 0.0
C1392 C 0.35365 0.8724 0.1737 0.0
C1393 C 0.34685 0.81495 0.13283 0.0
N1394 N 0.3617 0.98121 0.16827 0.0
N1395 N 0.35058 0.8662 0.13159 0.0
H1396 H 0.58417 0.02714 0.3508 0.0
H1397 H 0.6396 0.78604 0.41874 0.0
H1398 H 0.62466 0.0391 0.41549 0.0
H1399 H 0.59939 0.77387 0.35387 0.0
H1400 H 0.63436 0.87867 0.41778 0.0
H1401 H 0.58961 0.93451 0.35155 0.0
C1402 C 0.59418 1.01035 0.3652 0.0
C1403 C 0.60392 0.04121 0.38314 0.0
C1404 C 0.62664 0.85577 0.40376 0.0
C1405 C 0.61034 0.93477 0.38404 0.0
C1406 C 0.62971 0.80279 0.40424 0.0
C1407 C 0.61997 0.77186 0.38633 0.0
C1408 C 0.61375 0.87835 0.38522 0.0
C1409 C 0.60699 0.79592 0.36823 0.0
C1410 C 0.59735 0.95738 0.36556 0.0
C1411 C 0.61705 1.01712 0.40112 0.0
N1412 N 0.60432 0.84762 0.36811 0.0
N1413 N 0.6198 0.96545 0.40114 0.0
H1414 H 0.39732 1.01228 0.3998 0.0
H1415 H 0.30306 0.23991 0.39183 0.0
H1416 H 0.32206 0.98754 0.39805 0.0
H1417 H 0.37837 0.26287 0.39505 0.0
H1418 H 0.30941 0.14776 0.39526 0.0
H1419 H 0.39045 0.10419 0.39964 0.0
C1420 C 0.37931 0.02606 0.39966 0.0
C1421 C 0.36025 0.99176 0.39901 0.0
C1422 C 0.32454 0.17298 0.39533 0.0
C1423 C 0.35225 0.0977 0.39838 0.0
C1424 C 0.32094 0.22566 0.39326 0.0
C1425 C 0.3402 0.25944 0.39308 0.0
C1426 C 0.3476 0.15367 0.39716 0.0
C1427 C 0.36294 0.23857 0.39538 0.0
C1428 C 0.3754 0.07873 0.39939 0.0
C1429 C 0.33733 1.01232 0.39828 0.0
N1430 N 0.36598 0.18717 0.39721 0.0
N1431 N 0.33399 0.06385 0.39795 0.0
H1432 H 0.35912 0.77389 0.91246 0.0
H1433 H 0.34721 0.04729 0.84964 0.0
H1434 H 0.32876 0.79597 0.84289 0.0
H1435 H 0.37262 0.02671 0.92126 0.0
H1436 H 0.34043 0.95527 0.84682 0.0
H1437 H 0.36385 0.86633 0.91621 0.0
C1438 C 0.35327 0.79809 0.89803 0.0
C1439 C 0.34359 0.77683 0.87728 0.0
C1440 C 0.3474 0.97088 0.8632 0.0
C1441 C 0.34928 0.88301 0.88135 0.0
C1442 C 0.35141 0.02344 0.86477 0.0
C1443 C 0.36055 0.04491 0.88571 0.0
C1444 C 0.35267 0.9393 0.88266 0.0
C1445 C 0.3653 1.01206 0.90486 0.0
C1446 C 0.35611 0.85095 0.90014 0.0
C1447 C 0.33669 0.81035 0.85905 0.0
N1448 N 0.3614 0.96098 0.90284 0.0
N1449 N 0.33971 0.86162 0.86149 0.0
H1450 H 0.59455 0.2682 0.89728 0.0
H1451 H 0.64179 0.98652 0.86641 0.0
H1452 H 0.6565 0.23929 0.85481 0.0
H1453 H 0.57959 1.01649 0.90836 0.0
H1454 H 0.64754 0.07867 0.8619 0.0
H1455 H 0.58923 0.17615 0.90199 0.0
C1456 C 0.60716 0.24261 0.88907 0.0
C1457 C 0.62603 0.26189 0.87561 0.0
C1458 C 0.63265 0.06507 0.87212 0.0
C1459 C 0.61982 0.15582 0.88071 0.0
C1460 C 0.62926 1.01234 0.8746 0.0
C1461 C 0.61019 0.99336 0.88786 0.0
C1462 C 0.61684 0.09936 0.88293 0.0
C1463 C 0.59477 0.02904 0.8983 0.0
C1464 C 0.604 0.1899 0.89164 0.0
C1465 C 0.64151 0.22645 0.86508 0.0
N1466 N 0.59842 0.08009 0.89561 0.0
N1467 N 0.63807 0.17531 0.86785 0.0
H1468 H 0.37304 1.00659 0.69313 0.0
H1469 H 0.33388 0.26701 0.62914 0.0
H1470 H 0.35047 1.01437 0.62001 0.0
H1471 H 0.35925 0.25906 0.70133 0.0
H1472 H 0.3392 0.17453 0.62554 0.0
H1473 H 0.36681 0.09864 0.69677 0.0
C1474 C 0.36656 0.02753 0.67788 0.0
C1475 C 0.36228 1.00249 0.65622 0.0
C1476 C 0.3436 0.19303 0.64217 0.0
C1477 C 0.35537 0.10844 0.66019 0.0
C1478 C 0.3407 0.24595 0.6442 0.0
C1479 C 0.34608 0.27109 0.6656 0.0
C1480 C 0.35198 0.16482 0.66166 0.0
C1481 C 0.35452 0.24143 0.6846 0.0
C1482 C 0.36316 0.08025 0.67993 0.0
C1483 C 0.35428 0.03201 0.63698 0.0
N1484 N 0.3572 0.19005 0.68218 0.0
N1485 N 0.35109 0.0833 0.63942 0.0
H1486 H 0.61885 0.79197 0.69958 0.0
H1487 H 0.61756 0.03629 0.61377 0.0
H1488 H 0.63424 0.78379 0.62461 0.0
H1489 H 0.60464 0.04376 0.68922 0.0
H1490 H 0.62373 0.94406 0.61722 0.0
H1491 H 0.61368 0.88418 0.69598 0.0
C1492 C 0.62131 0.80954 0.68236 0.0
C1493 C 0.62713 0.77982 0.66239 0.0
C1494 C 0.6196 0.96588 0.63303 0.0
C1495 C 0.62093 0.88595 0.65808 0.0
C1496 C 0.61598 1.01859 0.63106 0.0
C1497 C 0.61053 0.04804 0.65123 0.0
C1498 C 0.61768 0.94216 0.65532 0.0
C1499 C 0.60908 0.0229 0.67322 0.0
C1500 C 0.61822 0.86231 0.68029 0.0
C1501 C 0.62955 0.8049 0.64046 0.0
N1502 N 0.61254 0.97154 0.67465 0.0
N1503 N 0.62648 0.85642 0.6389 0.0
loop_
_geom_bond_atom_site_label_1
_geom_bond_atom_site_label_2
_geom_bond_distance
_geom_bond_site_symmetry_2
_ccdc_geom_bond_type
Pr0 C2 2.880 1_545 S
Pr0 O20 2.562 1_545 S
Pr0 O21 2.490 1_545 S
Pr0 O22 2.695 . S
Pr0 O23 2.512 . S
Pr0 O25 2.437 . S
Pr0 O28 2.436 . S
Pr0 O30 2.438 . S
Pr1 C11 2.880 . S
Pr1 O22 2.436 . S
Pr1 O24 2.438 . S
Pr1 O26 2.562 . S
Pr1 O27 2.490 . S
Pr1 O28 2.695 . S
Pr1 O29 2.512 . S
Pr1 O31 2.437 . S
C2 Pr0 2.880 1_565 S
C2 C3 1.491 . S
C2 O20 1.254 . S
C2 O21 1.225 . S
C3 C2 1.491 . S
C3 C4 1.392 . S
C3 C8 1.356 . S
C4 C3 1.392 . S
C4 C5 1.368 . S
C4 H32 0.929 . S
C5 C4 1.368 . S
C5 C6 1.386 . S
C5 H33 0.929 . S
C6 C5 1.386 . S
C6 C7 1.373 . S
C7 C6 1.373 . S
C7 C8 1.409 . S
C7 H34 0.931 . S
C8 C3 1.356 . S
C8 C7 1.409 . S
C8 H35 0.930 . S
C9 O22 1.270 . S
C9 O23 1.248 . S
C10 O24 1.267 . S
C10 O25 1.278 . S
C11 Pr1 2.880 . S
C11 C12 1.491 . S
C11 O26 1.254 . S
C11 O27 1.225 . S
C12 C11 1.491 . S
C12 C13 1.392 . S
C12 C17 1.356 . S
C13 C12 1.392 . S
C13 C14 1.368 . S
C13 H36 0.929 . S
C14 C13 1.368 . S
C14 C15 1.386 . S
C14 H37 0.929 . S
C15 C14 1.386 . S
C15 C16 1.373 . S
C16 C15 1.373 . S
C16 C17 1.409 . S
C16 H38 0.931 . S
C17 C12 1.356 . S
C17 C16 1.409 . S
C17 H39 0.930 . S
C18 O28 1.270 . S
C18 O29 1.248 . S
C19 O30 1.267 . S
C19 O31 1.278 . S
O20 Pr0 2.562 1_565 S
O20 C2 1.254 . S
O21 Pr0 2.490 1_565 S
O21 C2 1.225 . S
O22 Pr0 2.695 . S
O22 Pr1 2.436 . S
O22 C9 1.270 . S
O23 Pr0 2.512 . S
O23 C9 1.248 . S
O24 Pr1 2.438 . S
O24 C10 1.267 . S
O25 Pr0 2.437 . S
O25 C10 1.278 . S
O26 Pr1 2.562 . S
O26 C11 1.254 . S
O27 Pr1 2.490 . S
O27 C11 1.225 . S
O28 Pr0 2.436 . S
O28 Pr1 2.695 . S
O28 C18 1.270 . S
O29 Pr1 2.512 . S
O29 C18 1.248 . S
O30 Pr0 2.438 . S
O30 C19 1.267 . S
O31 Pr1 2.437 . S
O31 C19 1.278 . S
H32 C4 0.929 . S
H33 C5 0.929 . S
H34 C7 0.931 . S
H35 C8 0.930 . S
H36 C13 0.929 . S
H37 C14 0.929 . S
H38 C16 0.931 . S
H39 C17 0.930 . S
Pr40 C42 2.880 1_565 S
Pr40 O60 2.562 1_565 S
Pr40 O61 2.490 1_565 S
Pr40 O62 2.695 . S
Pr40 O63 2.512 . S
Pr40 O65 2.437 . S
Pr40 O68 2.436 . S
Pr40 O70 2.438 . S
Pr41 C51 2.880 . S
Pr41 O62 2.436 . S
Pr41 O64 2.438 . S
Pr41 O66 2.562 . S
Pr41 O67 2.490 . S
Pr41 O68 2.695 . S
Pr41 O69 2.512 . S
Pr41 O71 2.437 . S
C42 Pr40 2.880 1_545 S
C42 C43 1.491 . S
C42 O60 1.254 . S
C42 O61 1.225 . S
C43 C42 1.491 . S
C43 C44 1.392 . S
C43 C48 1.356 . S
C44 C43 1.392 . S
C44 C45 1.368 . S
C44 H72 0.929 . S
C45 C44 1.368 . S
C45 C46 1.386 . S
C45 H73 0.929 . S
C46 C45 1.386 . S
C46 C47 1.373 . S
C47 C46 1.373 . S
C47 C48 1.409 . S
C47 H74 0.931 . S
C48 C43 1.356 . S
C48 C47 1.409 . S
C48 H75 0.930 . S
C49 O62 1.270 . S
C49 O63 1.248 . S
C50 O64 1.267 . S
C50 O65 1.278 . S
C51 Pr41 2.880 . S
C51 C52 1.491 . S
C51 O66 1.254 . S
C51 O67 1.225 . S
C52 C51 1.491 . S
C52 C53 1.392 . S
C52 C57 1.356 . S
C53 C52 1.392 . S
C53 C54 1.368 . S
C53 H76 0.929 . S
C54 C53 1.368 . S
C54 C55 1.386 . S
C54 H77 0.929 . S
C55 C54 1.386 . S
C55 C56 1.373 . S
C56 C55 1.373 . S
C56 C57 1.409 . S
C56 H78 0.931 . S
C57 C52 1.356 . S
C57 C56 1.409 . S
C57 H79 0.930 . S
C58 O68 1.270 . S
C58 O69 1.248 . S
C59 O70 1.267 . S
C59 O71 1.278 . S
O60 Pr40 2.562 1_545 S
O60 C42 1.254 . S
O61 Pr40 2.490 1_545 S
O61 C42 1.225 . S
O62 Pr40 2.695 . S
O62 Pr41 2.436 . S
O62 C49 1.270 . S
O63 Pr40 2.512 . S
O63 C49 1.248 . S
O64 Pr41 2.438 . S
O64 C50 1.267 . S
O65 Pr40 2.437 . S
O65 C50 1.278 . S
O66 Pr41 2.562 . S
O66 C51 1.254 . S
O67 Pr41 2.490 . S
O67 C51 1.225 . S
O68 Pr40 2.436 . S
O68 Pr41 2.695 . S
O68 C58 1.270 . S
O69 Pr41 2.512 . S
O69 C58 1.248 . S
O70 Pr40 2.438 . S
O70 C59 1.267 . S
O71 Pr41 2.437 . S
O71 C59 1.278 . S
H72 C44 0.929 . S
H73 C45 0.929 . S
H74 C47 0.931 . S
H75 C48 0.930 . S
H76 C53 0.929 . S
H77 C54 0.929 . S
H78 C56 0.931 . S
H79 C57 0.930 . S
Pr80 C82 2.880 1_565 S
Pr80 O100 2.562 1_565 S
Pr80 O101 2.490 1_565 S
Pr80 O102 2.695 . S
Pr80 O103 2.512 . S
Pr80 O105 2.437 . S
Pr80 O108 2.436 . S
Pr80 O110 2.438 . S
Pr81 C91 2.880 . S
Pr81 O102 2.436 . S
Pr81 O104 2.438 . S
Pr81 O106 2.562 . S
Pr81 O107 2.490 . S
Pr81 O108 2.695 . S
Pr81 O109 2.512 . S
Pr81 O111 2.437 . S
C82 Pr80 2.880 1_545 S
C82 C83 1.491 . S
C82 O100 1.254 . S
C82 O101 1.225 . S
C83 C82 1.491 . S
C83 C84 1.392 . S
C83 C88 1.356 . S
C84 C83 1.392 . S
C84 C85 1.368 . S
C84 H112 0.929 . S
C85 C84 1.368 . S
C85 C86 1.386 . S
C85 H113 0.929 . S
C86 C85 1.386 . S
C86 C87 1.373 . S
C87 C86 1.373 . S
C87 C88 1.409 . S
C87 H114 0.931 . S
C88 C83 1.356 . S
C88 C87 1.409 . S
C88 H115 0.930 . S
C89 O102 1.270 . S
C89 O103 1.248 . S
C90 O104 1.267 . S
C90 O105 1.278 . S
C91 Pr81 2.880 . S
C91 C92 1.491 . S
C91 O106 1.254 . S
C91 O107 1.225 . S
C92 C91 1.491 . S
C92 C93 1.392 . S
C92 C97 1.356 . S
C93 C92 1.392 . S
C93 C94 1.368 . S
C93 H116 0.929 . S
C94 C93 1.368 . S
C94 C95 1.386 . S
C94 H117 0.929 . S
C95 C94 1.386 . S
C95 C96 1.373 . S
C96 C95 1.373 . S
C96 C97 1.409 . S
C96 H118 0.931 . S
C97 C92 1.356 . S
C97 C96 1.409 . S
C97 H119 0.930 . S
C98 O108 1.270 . S
C98 O109 1.248 . S
C99 O110 1.267 . S
C99 O111 1.278 . S
O100 Pr80 2.562 1_545 S
O100 C82 1.254 . S
O101 Pr80 2.490 1_545 S
O101 C82 1.225 . S
O102 Pr80 2.695 . S
O102 Pr81 2.436 . S
O102 C89 1.270 . S
O103 Pr80 2.512 . S
O103 C89 1.248 . S
O104 Pr81 2.438 . S
O104 C90 1.267 . S
O105 Pr80 2.437 . S
O105 C90 1.278 . S
O106 Pr81 2.562 . S
O106 C91 1.254 . S
O107 Pr81 2.490 . S
O107 C91 1.225 . S
O108 Pr80 2.436 . S
O108 Pr81 2.695 . S
O108 C98 1.270 . S
O109 Pr81 2.512 . S
O109 C98 1.248 . S
O110 Pr80 2.438 . S
O110 C99 1.267 . S
O111 Pr81 2.437 . S
O111 C99 1.278 . S
H112 C84 0.929 . S
H113 C85 0.929 . S
H114 C87 0.931 . S
H115 C88 0.930 . S
H116 C93 0.929 . S
H117 C94 0.929 . S
H118 C96 0.931 . S
H119 C97 0.930 . S
Pr120 C122 2.880 1_545 S
Pr120 O140 2.562 1_545 S
Pr120 O141 2.490 1_545 S
Pr120 O142 2.695 . S
Pr120 O143 2.512 . S
Pr120 O145 2.437 . S
Pr120 O148 2.436 . S
Pr120 O150 2.438 . S
Pr121 C131 2.880 . S
Pr121 O142 2.436 . S
Pr121 O144 2.438 . S
Pr121 O146 2.562 . S
Pr121 O147 2.490 . S
Pr121 O148 2.695 . S
Pr121 O149 2.512 . S
Pr121 O151 2.437 . S
C122 Pr120 2.880 1_565 S
C122 C123 1.491 . S
C122 O140 1.254 . S
C122 O141 1.225 . S
C123 C122 1.491 . S
C123 C124 1.392 . S
C123 C128 1.356 . S
C124 C123 1.392 . S
C124 C125 1.368 . S
C124 H152 0.929 . S
C125 C124 1.368 . S
C125 C126 1.386 . S
C125 H153 0.929 . S
C126 C125 1.386 . S
C126 C127 1.373 . S
C127 C126 1.373 . S
C127 C128 1.409 . S
C127 H154 0.931 . S
C128 C123 1.356 . S
C128 C127 1.409 . S
C128 H155 0.930 . S
C129 O142 1.270 . S
C129 O143 1.248 . S
C130 O144 1.267 . S
C130 O145 1.278 . S
C131 Pr121 2.880 . S
C131 C132 1.491 . S
C131 O146 1.254 . S
C131 O147 1.225 . S
C132 C131 1.491 . S
C132 C133 1.392 . S
C132 C137 1.356 . S
C133 C132 1.392 . S
C133 C134 1.368 . S
C133 H156 0.929 . S
C134 C133 1.368 . S
C134 C135 1.386 . S
C134 H157 0.929 . S
C135 C134 1.386 . S
C135 C136 1.373 . S
C136 C135 1.373 . S
C136 C137 1.409 . S
C136 H158 0.931 . S
C137 C132 1.356 . S
C137 C136 1.409 . S
C137 H159 0.930 . S
C138 O148 1.270 . S
C138 O149 1.248 . S
C139 O150 1.267 . S
C139 O151 1.278 . S
O140 Pr120 2.562 1_565 S
O140 C122 1.254 . S
O141 Pr120 2.490 1_565 S
O141 C122 1.225 . S
O142 Pr120 2.695 . S
O142 Pr121 2.436 . S
O142 C129 1.270 . S
O143 Pr120 2.512 . S
O143 C129 1.248 . S
O144 Pr121 2.438 . S
O144 C130 1.267 . S
O145 Pr120 2.437 . S
O145 C130 1.278 . S
O146 Pr121 2.562 . S
O146 C131 1.254 . S
O147 Pr121 2.490 . S
O147 C131 1.225 . S
O148 Pr120 2.436 . S
O148 Pr121 2.695 . S
O148 C138 1.270 . S
O149 Pr121 2.512 . S
O149 C138 1.248 . S
O150 Pr120 2.438 . S
O150 C139 1.267 . S
O151 Pr121 2.437 . S
O151 C139 1.278 . S
H152 C124 0.929 . S
H153 C125 0.929 . S
H154 C127 0.931 . S
H155 C128 0.930 . S
H156 C133 0.929 . S
H157 C134 0.929 . S
H158 C136 0.931 . S
H159 C137 0.930 . S
Pr160 C162 2.880 . S
Pr160 O180 2.562 . S
Pr160 O181 2.490 . S
Pr160 O182 2.695 . S
Pr160 O183 2.512 . S
Pr160 O185 2.437 . S
Pr160 O188 2.436 . S
Pr160 O190 2.438 . S
Pr161 C171 2.880 1_565 S
Pr161 O182 2.436 . S
Pr161 O184 2.438 . S
Pr161 O186 2.562 1_565 S
Pr161 O187 2.490 1_565 S
Pr161 O188 2.695 . S
Pr161 O189 2.512 . S
Pr161 O191 2.437 . S
C162 Pr160 2.880 . S
C162 C163 1.491 . S
C162 O180 1.254 . S
C162 O181 1.225 . S
C163 C162 1.491 . S
C163 C164 1.392 . S
C163 C168 1.356 . S
C164 C163 1.392 . S
C164 C165 1.368 . S
C164 H192 0.929 . S
C165 C164 1.368 . S
C165 C166 1.386 . S
C165 H193 0.929 . S
C166 C165 1.386 . S
C166 C167 1.373 . S
C167 C166 1.373 . S
C167 C168 1.409 . S
C167 H194 0.931 . S
C168 C163 1.356 . S
C168 C167 1.409 . S
C168 H195 0.930 . S
C169 O182 1.270 . S
C169 O183 1.248 . S
C170 O184 1.267 . S
C170 O185 1.278 . S
C171 Pr161 2.880 1_545 S
C171 C172 1.491 . S
C171 O186 1.254 . S
C171 O187 1.225 . S
C172 C171 1.491 . S
C172 C173 1.392 . S
C172 C177 1.356 . S
C173 C172 1.392 . S
C173 C174 1.368 . S
C173 H196 0.929 . S
C174 C173 1.368 . S
C174 C175 1.386 . S
C174 H197 0.929 . S
C175 C174 1.386 . S
C175 C176 1.373 . S
C176 C175 1.373 . S
C176 C177 1.409 . S
C176 H198 0.931 . S
C177 C172 1.356 . S
C177 C176 1.409 . S
C177 H199 0.930 . S
C178 O188 1.270 . S
C178 O189 1.248 . S
C179 O190 1.267 . S
C179 O191 1.278 . S
O180 Pr160 2.562 . S
O180 C162 1.254 . S
O181 Pr160 2.490 . S
O181 C162 1.225 . S
O182 Pr160 2.695 . S
O182 Pr161 2.436 . S
O182 C169 1.270 . S
O183 Pr160 2.512 . S
O183 C169 1.248 . S
O184 Pr161 2.438 . S
O184 C170 1.267 . S
O185 Pr160 2.437 . S
O185 C170 1.278 . S
O186 Pr161 2.562 1_545 S
O186 C171 1.254 . S
O187 Pr161 2.490 1_545 S
O187 C171 1.225 . S
O188 Pr160 2.436 . S
O188 Pr161 2.695 . S
O188 C178 1.270 . S
O189 Pr161 2.512 . S
O189 C178 1.248 . S
O190 Pr160 2.438 . S
O190 C179 1.267 . S
O191 Pr161 2.437 . S
O191 C179 1.278 . S
H192 C164 0.929 . S
H193 C165 0.929 . S
H194 C167 0.931 . S
H195 C168 0.930 . S
H196 C173 0.929 . S
H197 C174 0.929 . S
H198 C176 0.931 . S
H199 C177 0.930 . S
Pr200 C202 2.880 . S
Pr200 O220 2.562 . S
Pr200 O221 2.490 . S
Pr200 O222 2.695 . S
Pr200 O223 2.512 . S
Pr200 O225 2.437 . S
Pr200 O228 2.436 . S
Pr200 O230 2.438 . S
Pr201 C211 2.880 1_545 S
Pr201 O222 2.436 . S
Pr201 O224 2.438 . S
Pr201 O226 2.562 1_545 S
Pr201 O227 2.490 1_545 S
Pr201 O228 2.695 . S
Pr201 O229 2.512 . S
Pr201 O231 2.437 . S
C202 Pr200 2.880 . S
C202 C203 1.491 . S
C202 O220 1.254 . S
C202 O221 1.225 . S
C203 C202 1.491 . S
C203 C204 1.392 . S
C203 C208 1.356 . S
C204 C203 1.392 . S
C204 C205 1.368 . S
C204 H232 0.929 . S
C205 C204 1.368 . S
C205 C206 1.386 . S
C205 H233 0.929 . S
C206 C205 1.386 . S
C206 C207 1.373 . S
C207 C206 1.373 . S
C207 C208 1.409 . S
C207 H234 0.931 . S
C208 C203 1.356 . S
C208 C207 1.409 . S
C208 H235 0.930 . S
C209 O222 1.270 . S
C209 O223 1.248 . S
C210 O224 1.267 . S
C210 O225 1.278 . S
C211 Pr201 2.880 1_565 S
C211 C212 1.491 . S
C211 O226 1.254 . S
C211 O227 1.225 . S
C212 C211 1.491 . S
C212 C213 1.392 . S
C212 C217 1.356 . S
C213 C212 1.392 . S
C213 C214 1.368 . S
C213 H236 0.929 . S
C214 C213 1.368 . S
C214 C215 1.386 . S
C214 H237 0.929 . S
C215 C214 1.386 . S
C215 C216 1.373 . S
C216 C215 1.373 . S
C216 C217 1.409 . S
C216 H238 0.931 . S
C217 C212 1.356 . S
C217 C216 1.409 . S
C217 H239 0.930 . S
C218 O228 1.270 . S
C218 O229 1.248 . S
C219 O230 1.267 . S
C219 O231 1.278 . S
O220 Pr200 2.562 . S
O220 C202 1.254 . S
O221 Pr200 2.490 . S
O221 C202 1.225 . S
O222 Pr200 2.695 . S
O222 Pr201 2.436 . S
O222 C209 1.270 . S
O223 Pr200 2.512 . S
O223 C209 1.248 . S
O224 Pr201 2.438 . S
O224 C210 1.267 . S
O225 Pr200 2.437 . S
O225 C210 1.278 . S
O226 Pr201 2.562 1_565 S
O226 C211 1.254 . S
O227 Pr201 2.490 1_565 S
O227 C211 1.225 . S
O228 Pr200 2.436 . S
O228 Pr201 2.695 . S
O228 C218 1.270 . S
O229 Pr201 2.512 . S
O229 C218 1.248 . S
O230 Pr200 2.438 . S
O230 C219 1.267 . S
O231 Pr201 2.437 . S
O231 C219 1.278 . S
H232 C204 0.929 . S
H233 C205 0.929 . S
H234 C207 0.931 . S
H235 C208 0.930 . S
H236 C213 0.929 . S
H237 C214 0.929 . S
H238 C216 0.931 . S
H239 C217 0.930 . S
Pr240 C242 2.880 . S
Pr240 O260 2.562 . S
Pr240 O261 2.490 . S
Pr240 O262 2.695 . S
Pr240 O263 2.512 . S
Pr240 O265 2.437 . S
Pr240 O268 2.436 . S
Pr240 O270 2.438 . S
Pr241 C251 2.880 1_545 S
Pr241 O262 2.436 . S
Pr241 O264 2.438 . S
Pr241 O266 2.562 1_545 S
Pr241 O267 2.490 1_545 S
Pr241 O268 2.695 . S
Pr241 O269 2.512 . S
Pr241 O271 2.437 . S
C242 Pr240 2.880 . S
C242 C243 1.491 . S
C242 O260 1.254 . S
C242 O261 1.225 . S
C243 C242 1.491 . S
C243 C244 1.392 . S
C243 C248 1.356 . S
C244 C243 1.392 . S
C244 C245 1.368 . S
C244 H272 0.929 . S
C245 C244 1.368 . S
C245 C246 1.386 . S
C245 H273 0.929 . S
C246 C245 1.386 . S
C246 C247 1.373 . S
C247 C246 1.373 . S
C247 C248 1.409 . S
C247 H274 0.931 . S
C248 C243 1.356 . S
C248 C247 1.409 . S
C248 H275 0.930 . S
C249 O262 1.270 . S
C249 O263 1.248 . S
C250 O264 1.267 . S
C250 O265 1.278 . S
C251 Pr241 2.880 1_565 S
C251 C252 1.491 . S
C251 O266 1.254 . S
C251 O267 1.225 . S
C252 C251 1.491 . S
C252 C253 1.392 . S
C252 C257 1.356 . S
C253 C252 1.392 . S
C253 C254 1.368 . S
C253 H276 0.929 . S
C254 C253 1.368 . S
C254 C255 1.386 . S
C254 H277 0.929 . S
C255 C254 1.386 . S
C255 C256 1.373 . S
C256 C255 1.373 . S
C256 C257 1.409 . S
C256 H278 0.931 . S
C257 C252 1.356 . S
C257 C256 1.409 . S
C257 H279 0.930 . S
C258 O268 1.270 . S
C258 O269 1.248 . S
C259 O270 1.267 . S
C259 O271 1.278 . S
O260 Pr240 2.562 . S
O260 C242 1.254 . S
O261 Pr240 2.490 . S
O261 C242 1.225 . S
O262 Pr240 2.695 . S
O262 Pr241 2.436 . S
O262 C249 1.270 . S
O263 Pr240 2.512 . S
O263 C249 1.248 . S
O264 Pr241 2.438 . S
O264 C250 1.267 . S
O265 Pr240 2.437 . S
O265 C250 1.278 . S
O266 Pr241 2.562 1_565 S
O266 C251 1.254 . S
O267 Pr241 2.490 1_565 S
O267 C251 1.225 . S
O268 Pr240 2.436 . S
O268 Pr241 2.695 . S
O268 C258 1.270 . S
O269 Pr241 2.512 . S
O269 C258 1.248 . S
O270 Pr240 2.438 . S
O270 C259 1.267 . S
O271 Pr241 2.437 . S
O271 C259 1.278 . S
H272 C244 0.929 . S
H273 C245 0.929 . S
H274 C247 0.931 . S
H275 C248 0.930 . S
H276 C253 0.929 . S
H277 C254 0.929 . S
H278 C256 0.931 . S
H279 C257 0.930 . S
Pr280 C282 2.880 . S
Pr280 O300 2.562 . S
Pr280 O301 2.490 . S
Pr280 O302 2.695 . S
Pr280 O303 2.512 . S
Pr280 O305 2.437 . S
Pr280 O308 2.436 . S
Pr280 O310 2.438 . S
Pr281 C291 2.880 1_565 S
Pr281 O302 2.436 . S
Pr281 O304 2.438 . S
Pr281 O306 2.562 1_565 S
Pr281 O307 2.490 1_565 S
Pr281 O308 2.695 . S
Pr281 O309 2.512 . S
Pr281 O311 2.437 . S
C282 Pr280 2.880 . S
C282 C283 1.491 . S
C282 O300 1.254 . S
C282 O301 1.225 . S
C283 C282 1.491 . S
C283 C284 1.392 . S
C283 C288 1.356 . S
C284 C283 1.392 . S
C284 C285 1.368 . S
C284 H312 0.929 . S
C285 C284 1.368 . S
C285 C286 1.386 . S
C285 H313 0.929 . S
C286 C285 1.386 . S
C286 C287 1.373 . S
C287 C286 1.373 . S
C287 C288 1.409 . S
C287 H314 0.931 . S
C288 C283 1.356 . S
C288 C287 1.409 . S
C288 H315 0.930 . S
C289 O302 1.270 . S
C289 O303 1.248 . S
C290 O304 1.267 . S
C290 O305 1.278 . S
C291 Pr281 2.880 1_545 S
C291 C292 1.491 . S
C291 O306 1.254 . S
C291 O307 1.225 . S
C292 C291 1.491 . S
C292 C293 1.392 . S
C292 C297 1.356 . S
C293 C292 1.392 . S
C293 C294 1.368 . S
C293 H316 0.929 . S
C294 C293 1.368 . S
C294 C295 1.386 . S
C294 H317 0.929 . S
C295 C294 1.386 . S
C295 C296 1.373 . S
C296 C295 1.373 . S
C296 C297 1.409 . S
C296 H318 0.931 . S
C297 C292 1.356 . S
C297 C296 1.409 . S
C297 H319 0.930 . S
C298 O308 1.270 . S
C298 O309 1.248 . S
C299 O310 1.267 . S
C299 O311 1.278 . S
O300 Pr280 2.562 . S
O300 C282 1.254 . S
O301 Pr280 2.490 . S
O301 C282 1.225 . S
O302 Pr280 2.695 . S
O302 Pr281 2.436 . S
O302 C289 1.270 . S
O303 Pr280 2.512 . S
O303 C289 1.248 . S
O304 Pr281 2.438 . S
O304 C290 1.267 . S
O305 Pr280 2.437 . S
O305 C290 1.278 . S
O306 Pr281 2.562 1_545 S
O306 C291 1.254 . S
O307 Pr281 2.490 1_545 S
O307 C291 1.225 . S
O308 Pr280 2.436 . S
O308 Pr281 2.695 . S
O308 C298 1.270 . S
O309 Pr281 2.512 . S
O309 C298 1.248 . S
O310 Pr280 2.438 . S
O310 C299 1.267 . S
O311 Pr281 2.437 . S
O311 C299 1.278 . S
H312 C284 0.929 . S
H313 C285 0.929 . S
H314 C287 0.931 . S
H315 C288 0.930 . S
H316 C293 0.929 . S
H317 C294 0.929 . S
H318 C296 0.931 . S
H319 C297 0.930 . S
Pr320 C322 2.880 . S
Pr320 O340 2.562 . S
Pr320 O341 2.490 . S
Pr320 O342 2.695 . S
Pr320 O343 2.512 . S
Pr320 O345 2.437 . S
Pr320 O348 2.436 . S
Pr320 O350 2.438 . S
Pr321 C331 2.880 . S
Pr321 O342 2.436 . S
Pr321 O344 2.438 . S
Pr321 O346 2.562 . S
Pr321 O347 2.490 . S
Pr321 O348 2.695 . S
Pr321 O349 2.512 . S
Pr321 O351 2.437 . S
C322 Pr320 2.880 . S
C322 C323 1.491 . S
C322 O340 1.254 . S
C322 O341 1.225 . S
C323 C322 1.491 . S
C323 C324 1.392 . S
C323 C328 1.356 . S
C324 C323 1.392 . S
C324 C325 1.368 . S
C324 H352 0.929 . S
C325 C324 1.368 . S
C325 C326 1.386 . S
C325 H353 0.929 . S
C326 C325 1.386 . S
C326 C327 1.373 . S
C327 C326 1.373 . S
C327 C328 1.409 . S
C327 H354 0.931 . S
C328 C323 1.356 . S
C328 C327 1.409 . S
C328 H355 0.930 . S
C329 O342 1.270 . S
C329 O343 1.248 . S
C330 O344 1.267 . S
C330 O345 1.278 . S
C331 Pr321 2.880 . S
C331 C332 1.491 . S
C331 O346 1.254 . S
C331 O347 1.225 . S
C332 C331 1.491 . S
C332 C333 1.392 . S
C332 C337 1.356 . S
C333 C332 1.392 . S
C333 C334 1.368 . S
C333 H356 0.929 . S
C334 C333 1.368 . S
C334 C335 1.386 . S
C334 H357 0.929 . S
C335 C334 1.386 . S
C335 C336 1.373 . S
C336 C335 1.373 . S
C336 C337 1.409 . S
C336 H358 0.931 . S
C337 C332 1.356 . S
C337 C336 1.409 . S
C337 H359 0.930 . S
C338 O348 1.270 . S
C338 O349 1.248 . S
C339 O350 1.267 . S
C339 O351 1.278 . S
O340 Pr320 2.562 . S
O340 C322 1.254 . S
O341 Pr320 2.490 . S
O341 C322 1.225 . S
O342 Pr320 2.695 . S
O342 Pr321 2.436 . S
O342 C329 1.270 . S
O343 Pr320 2.512 . S
O343 C329 1.248 . S
O344 Pr321 2.438 . S
O344 C330 1.267 . S
O345 Pr320 2.437 . S
O345 C330 1.278 . S
O346 Pr321 2.562 . S
O346 C331 1.254 . S
O347 Pr321 2.490 . S
O347 C331 1.225 . S
O348 Pr320 2.436 . S
O348 Pr321 2.695 . S
O348 C338 1.270 . S
O349 Pr321 2.512 . S
O349 C338 1.248 . S
O350 Pr320 2.438 . S
O350 C339 1.267 . S
O351 Pr321 2.437 . S
O351 C339 1.278 . S
H352 C324 0.929 . S
H353 C325 0.929 . S
H354 C327 0.931 . S
H355 C328 0.930 . S
H356 C333 0.929 . S
H357 C334 0.929 . S
H358 C336 0.931 . S
H359 C337 0.930 . S
Pr360 C362 2.880 . S
Pr360 O380 2.562 . S
Pr360 O381 2.490 . S
Pr360 O382 2.695 . S
Pr360 O383 2.512 . S
Pr360 O385 2.437 . S
Pr360 O388 2.436 . S
Pr360 O390 2.438 . S
Pr361 C371 2.880 . S
Pr361 O382 2.436 . S
Pr361 O384 2.438 . S
Pr361 O386 2.562 . S
Pr361 O387 2.490 . S
Pr361 O388 2.695 . S
Pr361 O389 2.512 . S
Pr361 O391 2.437 . S
C362 Pr360 2.880 . S
C362 C363 1.491 . S
C362 O380 1.254 . S
C362 O381 1.225 . S
C363 C362 1.491 . S
C363 C364 1.392 . S
C363 C368 1.356 . S
C364 C363 1.392 . S
C364 C365 1.368 . S
C364 H392 0.929 . S
C365 C364 1.368 . S
C365 C366 1.386 . S
C365 H393 0.929 . S
C366 C365 1.386 . S
C366 C367 1.373 . S
C367 C366 1.373 . S
C367 C368 1.409 . S
C367 H394 0.931 . S
C368 C363 1.356 . S
C368 C367 1.409 . S
C368 H395 0.930 . S
C369 O382 1.270 . S
C369 O383 1.248 . S
C370 O384 1.267 . S
C370 O385 1.278 . S
C371 Pr361 2.880 . S
C371 C372 1.491 . S
C371 O386 1.254 . S
C371 O387 1.225 . S
C372 C371 1.491 . S
C372 C373 1.392 . S
C372 C377 1.356 . S
C373 C372 1.392 . S
C373 C374 1.368 . S
C373 H396 0.929 . S
C374 C373 1.368 . S
C374 C375 1.386 . S
C374 H397 0.929 . S
C375 C374 1.386 . S
C375 C376 1.373 . S
C376 C375 1.373 . S
C376 C377 1.409 . S
C376 H398 0.931 . S
C377 C372 1.356 . S
C377 C376 1.409 . S
C377 H399 0.930 . S
C378 O388 1.270 . S
C378 O389 1.248 . S
C379 O390 1.267 . S
C379 O391 1.278 . S
O380 Pr360 2.562 . S
O380 C362 1.254 . S
O381 Pr360 2.490 . S
O381 C362 1.225 . S
O382 Pr360 2.695 . S
O382 Pr361 2.436 . S
O382 C369 1.270 . S
O383 Pr360 2.512 . S
O383 C369 1.248 . S
O384 Pr361 2.438 . S
O384 C370 1.267 . S
O385 Pr360 2.437 . S
O385 C370 1.278 . S
O386 Pr361 2.562 . S
O386 C371 1.254 . S
O387 Pr361 2.490 . S
O387 C371 1.225 . S
O388 Pr360 2.436 . S
O388 Pr361 2.695 . S
O388 C378 1.270 . S
O389 Pr361 2.512 . S
O389 C378 1.248 . S
O390 Pr360 2.438 . S
O390 C379 1.267 . S
O391 Pr361 2.437 . S
O391 C379 1.278 . S
H392 C364 0.929 . S
H393 C365 0.929 . S
H394 C367 0.931 . S
H395 C368 0.930 . S
H396 C373 0.929 . S
H397 C374 0.929 . S
H398 C376 0.931 . S
H399 C377 0.930 . S
Pr400 C402 2.880 . S
Pr400 O420 2.562 . S
Pr400 O421 2.490 . S
Pr400 O422 2.695 . S
Pr400 O423 2.512 . S
Pr400 O425 2.437 . S
Pr400 O428 2.436 . S
Pr400 O430 2.438 . S
Pr401 C411 2.880 . S
Pr401 O422 2.436 . S
Pr401 O424 2.438 . S
Pr401 O426 2.562 . S
Pr401 O427 2.490 . S
Pr401 O428 2.695 . S
Pr401 O429 2.512 . S
Pr401 O431 2.437 . S
C402 Pr400 2.880 . S
C402 C403 1.491 . S
C402 O420 1.254 . S
C402 O421 1.225 . S
C403 C402 1.491 . S
C403 C404 1.392 . S
C403 C408 1.356 . S
C404 C403 1.392 . S
C404 C405 1.368 . S
C404 H432 0.929 . S
C405 C404 1.368 . S
C405 C406 1.386 . S
C405 H433 0.929 . S
C406 C405 1.386 . S
C406 C407 1.373 . S
C407 C406 1.373 . S
C407 C408 1.409 . S
C407 H434 0.931 . S
C408 C403 1.356 . S
C408 C407 1.409 . S
C408 H435 0.930 . S
C409 O422 1.270 . S
C409 O423 1.248 . S
C410 O424 1.267 . S
C410 O425 1.278 . S
C411 Pr401 2.880 . S
C411 C412 1.491 . S
C411 O426 1.254 . S
C411 O427 1.225 . S
C412 C411 1.491 . S
C412 C413 1.392 . S
C412 C417 1.356 . S
C413 C412 1.392 . S
C413 C414 1.368 . S
C413 H436 0.929 . S
C414 C413 1.368 . S
C414 C415 1.386 . S
C414 H437 0.929 . S
C415 C414 1.386 . S
C415 C416 1.373 . S
C416 C415 1.373 . S
C416 C417 1.409 . S
C416 H438 0.931 . S
C417 C412 1.356 . S
C417 C416 1.409 . S
C417 H439 0.930 . S
C418 O428 1.270 . S
C418 O429 1.248 . S
C419 O430 1.267 . S
C419 O431 1.278 . S
O420 Pr400 2.562 . S
O420 C402 1.254 . S
O421 Pr400 2.490 . S
O421 C402 1.225 . S
O422 Pr400 2.695 . S
O422 Pr401 2.436 . S
O422 C409 1.270 . S
O423 Pr400 2.512 . S
O423 C409 1.248 . S
O424 Pr401 2.438 . S
O424 C410 1.267 . S
O425 Pr400 2.437 . S
O425 C410 1.278 . S
O426 Pr401 2.562 . S
O426 C411 1.254 . S
O427 Pr401 2.490 . S
O427 C411 1.225 . S
O428 Pr400 2.436 . S
O428 Pr401 2.695 . S
O428 C418 1.270 . S
O429 Pr401 2.512 . S
O429 C418 1.248 . S
O430 Pr400 2.438 . S
O430 C419 1.267 . S
O431 Pr401 2.437 . S
O431 C419 1.278 . S
H432 C404 0.929 . S
H433 C405 0.929 . S
H434 C407 0.931 . S
H435 C408 0.930 . S
H436 C413 0.929 . S
H437 C414 0.929 . S
H438 C416 0.931 . S
H439 C417 0.930 . S
Pr440 C442 2.880 . S
Pr440 O460 2.562 . S
Pr440 O461 2.490 . S
Pr440 O462 2.695 . S
Pr440 O463 2.512 . S
Pr440 O465 2.437 . S
Pr440 O468 2.436 . S
Pr440 O470 2.438 . S
Pr441 C451 2.880 . S
Pr441 O462 2.436 . S
Pr441 O464 2.438 . S
Pr441 O466 2.562 . S
Pr441 O467 2.490 . S
Pr441 O468 2.695 . S
Pr441 O469 2.512 . S
Pr441 O471 2.437 . S
C442 Pr440 2.880 . S
C442 C443 1.491 . S
C442 O460 1.254 . S
C442 O461 1.225 . S
C443 C442 1.491 . S
C443 C444 1.392 . S
C443 C448 1.356 . S
C444 C443 1.392 . S
C444 C445 1.368 . S
C444 H472 0.929 . S
C445 C444 1.368 . S
C445 C446 1.386 . S
C445 H473 0.929 . S
C446 C445 1.386 . S
C446 C447 1.373 . S
C447 C446 1.373 . S
C447 C448 1.409 . S
C447 H474 0.931 . S
C448 C443 1.356 . S
C448 C447 1.409 . S
C448 H475 0.930 . S
C449 O462 1.270 . S
C449 O463 1.248 . S
C450 O464 1.267 . S
C450 O465 1.278 . S
C451 Pr441 2.880 . S
C451 C452 1.491 . S
C451 O466 1.254 . S
C451 O467 1.225 . S
C452 C451 1.491 . S
C452 C453 1.392 . S
C452 C457 1.356 . S
C453 C452 1.392 . S
C453 C454 1.368 . S
C453 H476 0.929 . S
C454 C453 1.368 . S
C454 C455 1.386 . S
C454 H477 0.929 . S
C455 C454 1.386 . S
C455 C456 1.373 . S
C456 C455 1.373 . S
C456 C457 1.409 . S
C456 H478 0.931 . S
C457 C452 1.356 . S
C457 C456 1.409 . S
C457 H479 0.930 . S
C458 O468 1.270 . S
C458 O469 1.248 . S
C459 O470 1.267 . S
C459 O471 1.278 . S
O460 Pr440 2.562 . S
O460 C442 1.254 . S
O461 Pr440 2.490 . S
O461 C442 1.225 . S
O462 Pr440 2.695 . S
O462 Pr441 2.436 . S
O462 C449 1.270 . S
O463 Pr440 2.512 . S
O463 C449 1.248 . S
O464 Pr441 2.438 . S
O464 C450 1.267 . S
O465 Pr440 2.437 . S
O465 C450 1.278 . S
O466 Pr441 2.562 . S
O466 C451 1.254 . S
O467 Pr441 2.490 . S
O467 C451 1.225 . S
O468 Pr440 2.436 . S
O468 Pr441 2.695 . S
O468 C458 1.270 . S
O469 Pr441 2.512 . S
O469 C458 1.248 . S
O470 Pr440 2.438 . S
O470 C459 1.267 . S
O471 Pr441 2.437 . S
O471 C459 1.278 . S
H472 C444 0.929 . S
H473 C445 0.929 . S
H474 C447 0.931 . S
H475 C448 0.930 . S
H476 C453 0.929 . S
H477 C454 0.929 . S
H478 C456 0.931 . S
H479 C457 0.930 . S
Pr480 C482 2.880 . S
Pr480 O500 2.562 . S
Pr480 O501 2.490 . S
Pr480 O502 2.695 . S
Pr480 O503 2.512 . S
Pr480 O505 2.437 . S
Pr480 O508 2.436 . S
Pr480 O510 2.438 . S
Pr481 C491 2.880 . S
Pr481 O502 2.436 . S
Pr481 O504 2.438 . S
Pr481 O506 2.562 . S
Pr481 O507 2.490 . S
Pr481 O508 2.695 . S
Pr481 O509 2.512 . S
Pr481 O511 2.437 . S
C482 Pr480 2.880 . S
C482 C483 1.491 . S
C482 O500 1.254 . S
C482 O501 1.225 . S
C483 C482 1.491 . S
C483 C484 1.392 . S
C483 C488 1.356 . S
C484 C483 1.392 . S
C484 C485 1.368 . S
C484 H512 0.929 . S
C485 C484 1.368 . S
C485 C486 1.386 . S
C485 H513 0.929 . S
C486 C485 1.386 . S
C486 C487 1.373 . S
C487 C486 1.373 . S
C487 C488 1.409 . S
C487 H514 0.931 . S
C488 C483 1.356 . S
C488 C487 1.409 . S
C488 H515 0.930 . S
C489 O502 1.270 . S
C489 O503 1.248 . S
C490 O504 1.267 . S
C490 O505 1.278 . S
C491 Pr481 2.880 . S
C491 C492 1.491 . S
C491 O506 1.254 . S
C491 O507 1.225 . S
C492 C491 1.491 . S
C492 C493 1.392 . S
C492 C497 1.356 . S
C493 C492 1.392 . S
C493 C494 1.368 . S
C493 H516 0.929 . S
C494 C493 1.368 . S
C494 C495 1.386 . S
C494 H517 0.929 . S
C495 C494 1.386 . S
C495 C496 1.373 . S
C496 C495 1.373 . S
C496 C497 1.409 . S
C496 H518 0.931 . S
C497 C492 1.356 . S
C497 C496 1.409 . S
C497 H519 0.930 . S
C498 O508 1.270 . S
C498 O509 1.248 . S
C499 O510 1.267 . S
C499 O511 1.278 . S
O500 Pr480 2.562 . S
O500 C482 1.254 . S
O501 Pr480 2.490 . S
O501 C482 1.225 . S
O502 Pr480 2.695 . S
O502 Pr481 2.436 . S
O502 C489 1.270 . S
O503 Pr480 2.512 . S
O503 C489 1.248 . S
O504 Pr481 2.438 . S
O504 C490 1.267 . S
O505 Pr480 2.437 . S
O505 C490 1.278 . S
O506 Pr481 2.562 . S
O506 C491 1.254 . S
O507 Pr481 2.490 . S
O507 C491 1.225 . S
O508 Pr480 2.436 . S
O508 Pr481 2.695 . S
O508 C498 1.270 . S
O509 Pr481 2.512 . S
O509 C498 1.248 . S
O510 Pr480 2.438 . S
O510 C499 1.267 . S
O511 Pr481 2.437 . S
O511 C499 1.278 . S
H512 C484 0.929 . S
H513 C485 0.929 . S
H514 C487 0.931 . S
H515 C488 0.930 . S
H516 C493 0.929 . S
H517 C494 0.929 . S
H518 C496 0.931 . S
H519 C497 0.930 . S
Pr520 C522 2.880 . S
Pr520 O540 2.562 . S
Pr520 O541 2.490 . S
Pr520 O542 2.695 . S
Pr520 O543 2.512 . S
Pr520 O545 2.437 . S
Pr520 O548 2.436 . S
Pr520 O550 2.438 . S
Pr521 C531 2.880 . S
Pr521 O542 2.436 . S
Pr521 O544 2.438 . S
Pr521 O546 2.562 . S
Pr521 O547 2.490 . S
Pr521 O548 2.695 . S
Pr521 O549 2.512 . S
Pr521 O551 2.437 . S
C522 Pr520 2.880 . S
C522 C523 1.491 . S
C522 O540 1.254 . S
C522 O541 1.225 . S
C523 C522 1.491 . S
C523 C524 1.392 . S
C523 C528 1.356 . S
C524 C523 1.392 . S
C524 C525 1.368 . S
C524 H552 0.929 . S
C525 C524 1.368 . S
C525 C526 1.386 . S
C525 H553 0.929 . S
C526 C525 1.386 . S
C526 C527 1.373 . S
C527 C526 1.373 . S
C527 C528 1.409 . S
C527 H554 0.931 . S
C528 C523 1.356 . S
C528 C527 1.409 . S
C528 H555 0.930 . S
C529 O542 1.270 . S
C529 O543 1.248 . S
C530 O544 1.267 . S
C530 O545 1.278 . S
C531 Pr521 2.880 . S
C531 C532 1.491 . S
C531 O546 1.254 . S
C531 O547 1.225 . S
C532 C531 1.491 . S
C532 C533 1.392 . S
C532 C537 1.356 . S
C533 C532 1.392 . S
C533 C534 1.368 . S
C533 H556 0.929 . S
C534 C533 1.368 . S
C534 C535 1.386 . S
C534 H557 0.929 . S
C535 C534 1.386 . S
C535 C536 1.373 . S
C536 C535 1.373 . S
C536 C537 1.409 . S
C536 H558 0.931 . S
C537 C532 1.356 . S
C537 C536 1.409 . S
C537 H559 0.930 . S
C538 O548 1.270 . S
C538 O549 1.248 . S
C539 O550 1.267 . S
C539 O551 1.278 . S
O540 Pr520 2.562 . S
O540 C522 1.254 . S
O541 Pr520 2.490 . S
O541 C522 1.225 . S
O542 Pr520 2.695 . S
O542 Pr521 2.436 . S
O542 C529 1.270 . S
O543 Pr520 2.512 . S
O543 C529 1.248 . S
O544 Pr521 2.438 . S
O544 C530 1.267 . S
O545 Pr520 2.437 . S
O545 C530 1.278 . S
O546 Pr521 2.562 . S
O546 C531 1.254 . S
O547 Pr521 2.490 . S
O547 C531 1.225 . S
O548 Pr520 2.436 . S
O548 Pr521 2.695 . S
O548 C538 1.270 . S
O549 Pr521 2.512 . S
O549 C538 1.248 . S
O550 Pr520 2.438 . S
O550 C539 1.267 . S
O551 Pr521 2.437 . S
O551 C539 1.278 . S
H552 C524 0.929 . S
H553 C525 0.929 . S
H554 C527 0.931 . S
H555 C528 0.930 . S
H556 C533 0.929 . S
H557 C534 0.929 . S
H558 C536 0.931 . S
H559 C537 0.930 . S
Pr560 C562 2.880 . S
Pr560 O580 2.562 . S
Pr560 O581 2.490 . S
Pr560 O582 2.695 . S
Pr560 O583 2.512 . S
Pr560 O585 2.437 . S
Pr560 O588 2.436 . S
Pr560 O590 2.438 . S
Pr561 C571 2.880 . S
Pr561 O582 2.436 . S
Pr561 O584 2.438 . S
Pr561 O586 2.562 . S
Pr561 O587 2.490 . S
Pr561 O588 2.695 . S
Pr561 O589 2.512 . S
Pr561 O591 2.437 . S
C562 Pr560 2.880 . S
C562 C563 1.491 . S
C562 O580 1.254 . S
C562 O581 1.225 . S
C563 C562 1.491 . S
C563 C564 1.392 . S
C563 C568 1.356 . S
C564 C563 1.392 . S
C564 C565 1.368 . S
C564 H592 0.929 . S
C565 C564 1.368 . S
C565 C566 1.386 . S
C565 H593 0.929 . S
C566 C565 1.386 . S
C566 C567 1.373 . S
C567 C566 1.373 . S
C567 C568 1.409 . S
C567 H594 0.931 . S
C568 C563 1.356 . S
C568 C567 1.409 . S
C568 H595 0.930 . S
C569 O582 1.270 . S
C569 O583 1.248 . S
C570 O584 1.267 . S
C570 O585 1.278 . S
C571 Pr561 2.880 . S
C571 C572 1.491 . S
C571 O586 1.254 . S
C571 O587 1.225 . S
C572 C571 1.491 . S
C572 C573 1.392 . S
C572 C577 1.356 . S
C573 C572 1.392 . S
C573 C574 1.368 . S
C573 H596 0.929 . S
C574 C573 1.368 . S
C574 C575 1.386 . S
C574 H597 0.929 . S
C575 C574 1.386 . S
C575 C576 1.373 . S
C576 C575 1.373 . S
C576 C577 1.409 . S
C576 H598 0.931 . S
C577 C572 1.356 . S
C577 C576 1.409 . S
C577 H599 0.930 . S
C578 O588 1.270 . S
C578 O589 1.248 . S
C579 O590 1.267 . S
C579 O591 1.278 . S
O580 Pr560 2.562 . S
O580 C562 1.254 . S
O581 Pr560 2.490 . S
O581 C562 1.225 . S
O582 Pr560 2.695 . S
O582 Pr561 2.436 . S
O582 C569 1.270 . S
O583 Pr560 2.512 . S
O583 C569 1.248 . S
O584 Pr561 2.438 . S
O584 C570 1.267 . S
O585 Pr560 2.437 . S
O585 C570 1.278 . S
O586 Pr561 2.562 . S
O586 C571 1.254 . S
O587 Pr561 2.490 . S
O587 C571 1.225 . S
O588 Pr560 2.436 . S
O588 Pr561 2.695 . S
O588 C578 1.270 . S
O589 Pr561 2.512 . S
O589 C578 1.248 . S
O590 Pr560 2.438 . S
O590 C579 1.267 . S
O591 Pr561 2.437 . S
O591 C579 1.278 . S
H592 C564 0.929 . S
H593 C565 0.929 . S
H594 C567 0.931 . S
H595 C568 0.930 . S
H596 C573 0.929 . S
H597 C574 0.929 . S
H598 C576 0.931 . S
H599 C577 0.930 . S
Pr600 C602 2.880 . S
Pr600 O620 2.562 . S
Pr600 O621 2.490 . S
Pr600 O622 2.695 . S
Pr600 O623 2.512 . S
Pr600 O625 2.437 . S
Pr600 O628 2.436 . S
Pr600 O630 2.438 . S
Pr601 C611 2.880 . S
Pr601 O622 2.436 . S
Pr601 O624 2.438 . S
Pr601 O626 2.562 . S
Pr601 O627 2.490 . S
Pr601 O628 2.695 . S
Pr601 O629 2.512 . S
Pr601 O631 2.437 . S
C602 Pr600 2.880 . S
C602 C603 1.491 . S
C602 O620 1.254 . S
C602 O621 1.225 . S
C603 C602 1.491 . S
C603 C604 1.392 . S
C603 C608 1.356 . S
C604 C603 1.392 . S
C604 C605 1.368 . S
C604 H632 0.929 . S
C605 C604 1.368 . S
C605 C606 1.386 . S
C605 H633 0.929 . S
C606 C605 1.386 . S
C606 C607 1.373 . S
C607 C606 1.373 . S
C607 C608 1.409 . S
C607 H634 0.931 . S
C608 C603 1.356 . S
C608 C607 1.409 . S
C608 H635 0.930 . S
C609 O622 1.270 . S
C609 O623 1.248 . S
C610 O624 1.267 . S
C610 O625 1.278 . S
C611 Pr601 2.880 . S
C611 C612 1.491 . S
C611 O626 1.254 . S
C611 O627 1.225 . S
C612 C611 1.491 . S
C612 C613 1.392 . S
C612 C617 1.356 . S
C613 C612 1.392 . S
C613 C614 1.368 . S
C613 H636 0.929 . S
C614 C613 1.368 . S
C614 C615 1.386 . S
C614 H637 0.929 . S
C615 C614 1.386 . S
C615 C616 1.373 . S
C616 C615 1.373 . S
C616 C617 1.409 . S
C616 H638 0.931 . S
C617 C612 1.356 . S
C617 C616 1.409 . S
C617 H639 0.930 . S
C618 O628 1.270 . S
C618 O629 1.248 . S
C619 O630 1.267 . S
C619 O631 1.278 . S
O620 Pr600 2.562 . S
O620 C602 1.254 . S
O621 Pr600 2.490 . S
O621 C602 1.225 . S
O622 Pr600 2.695 . S
O622 Pr601 2.436 . S
O622 C609 1.270 . S
O623 Pr600 2.512 . S
O623 C609 1.248 . S
O624 Pr601 2.438 . S
O624 C610 1.267 . S
O625 Pr600 2.437 . S
O625 C610 1.278 . S
O626 Pr601 2.562 . S
O626 C611 1.254 . S
O627 Pr601 2.490 . S
O627 C611 1.225 . S
O628 Pr600 2.436 . S
O628 Pr601 2.695 . S
O628 C618 1.270 . S
O629 Pr601 2.512 . S
O629 C618 1.248 . S
O630 Pr600 2.438 . S
O630 C619 1.267 . S
O631 Pr601 2.437 . S
O631 C619 1.278 . S
H632 C604 0.929 . S
H633 C605 0.929 . S
H634 C607 0.931 . S
H635 C608 0.930 . S
H636 C613 0.929 . S
H637 C614 0.929 . S
H638 C616 0.931 . S
H639 C617 0.930 . S
H640 C646 0.930 . S
H641 C650 0.930 . S
H642 C655 0.929 . S
H643 C653 0.929 . S
H644 C648 0.929 . S
H645 C654 0.929 . S
C646 H640 0.930 . S
C646 C647 1.367 . S
C646 C654 1.378 . S
C647 C646 1.367 . S
C647 C655 1.433 . S
C648 H644 0.929 . S
C648 C650 1.378 . S
C648 C652 1.350 . S
C649 C652 1.463 . S
C649 C654 1.350 . S
C649 N657 1.427 . S
C650 H641 0.930 . S
C650 C648 1.378 . S
C650 C651 1.367 . S
C651 C650 1.367 . S
C651 C653 1.433 . S
C652 C648 1.350 . S
C652 C649 1.463 . S
C652 N656 1.427 . S
C653 H643 0.929 . S
C653 C651 1.433 . S
C653 N656 1.384 . S
C654 H645 0.929 . S
C654 C646 1.378 . S
C654 C649 1.350 . S
C655 H642 0.929 . S
C655 C647 1.433 . S
C655 N657 1.384 . S
N656 C652 1.427 . S
N656 C653 1.384 . S
N657 C649 1.427 . S
N657 C655 1.384 . S
H658 C664 0.930 . S
H659 C668 0.930 . S
H660 C673 0.929 . S
H661 C671 0.929 . S
H662 C666 0.929 . S
H663 C672 0.929 . S
C664 H658 0.930 . S
C664 C665 1.367 . S
C664 C672 1.378 . S
C665 C664 1.367 . S
C665 C673 1.433 . S
C666 H662 0.929 . S
C666 C668 1.378 . S
C666 C670 1.350 . S
C667 C670 1.463 . S
C667 C672 1.350 . S
C667 N675 1.427 . S
C668 H659 0.930 . S
C668 C666 1.378 . S
C668 C669 1.367 . S
C669 C668 1.367 . S
C669 C671 1.433 . S
C670 C666 1.350 . S
C670 C667 1.463 . S
C670 N674 1.427 . S
C671 H661 0.929 . S
C671 C669 1.433 . S
C671 N674 1.384 . S
C672 H663 0.929 . S
C672 C664 1.378 . S
C672 C667 1.350 . S
C673 H660 0.929 . S
C673 C665 1.433 . S
C673 N675 1.384 . S
N674 C670 1.427 . S
N674 C671 1.384 . S
N675 C667 1.427 . S
N675 C673 1.384 . S
H676 C682 0.930 . S
H677 C686 0.930 . S
H678 C691 0.929 . S
H679 C689 0.929 . S
H680 C684 0.929 . S
H681 C690 0.929 . S
C682 H676 0.930 . S
C682 C683 1.367 . S
C682 C690 1.378 . S
C683 C682 1.367 . S
C683 C691 1.433 . S
C684 H680 0.929 . S
C684 C686 1.378 . S
C684 C688 1.350 . S
C685 C688 1.463 . S
C685 C690 1.350 . S
C685 N693 1.427 . S
C686 H677 0.930 . S
C686 C684 1.378 . S
C686 C687 1.367 . S
C687 C686 1.367 . S
C687 C689 1.433 . S
C688 C684 1.350 . S
C688 C685 1.463 . S
C688 N692 1.427 . S
C689 H679 0.929 . S
C689 C687 1.433 . S
C689 N692 1.384 . S
C690 H681 0.929 . S
C690 C682 1.378 . S
C690 C685 1.350 . S
C691 H678 0.929 . S
C691 C683 1.433 . S
C691 N693 1.384 . S
N692 C688 1.427 . S
N692 C689 1.384 . S
N693 C685 1.427 . S
N693 C691 1.384 . S
H694 C700 0.930 . S
H695 C704 0.930 . S
H696 C709 0.929 . S
H697 C707 0.929 . S
H698 C702 0.929 . S
H699 C708 0.929 . S
C700 H694 0.930 . S
C700 C701 1.367 . S
C700 C708 1.378 . S
C701 C700 1.367 . S
C701 C709 1.433 . S
C702 H698 0.929 . S
C702 C704 1.378 . S
C702 C706 1.350 . S
C703 C706 1.463 . S
C703 C708 1.350 . S
C703 N711 1.427 . S
C704 H695 0.930 . S
C704 C702 1.378 . S
C704 C705 1.367 . S
C705 C704 1.367 . S
C705 C707 1.433 . S
C706 C702 1.350 . S
C706 C703 1.463 . S
C706 N710 1.427 . S
C707 H697 0.929 . S
C707 C705 1.433 . S
C707 N710 1.384 . S
C708 H699 0.929 . S
C708 C700 1.378 . S
C708 C703 1.350 . S
C709 H696 0.929 . S
C709 C701 1.433 . S
C709 N711 1.384 . S
N710 C706 1.427 . S
N710 C707 1.384 . S
N711 C703 1.427 . S
N711 C709 1.384 . S
H712 C718 0.930 . S
H713 C722 0.930 . S
H714 C727 0.929 . S
H715 C725 0.929 . S
H716 C720 0.929 . S
H717 C726 0.929 . S
C718 H712 0.930 . S
C718 C719 1.367 . S
C718 C726 1.378 . S
C719 C718 1.367 . S
C719 C727 1.433 . S
C720 H716 0.929 . S
C720 C722 1.378 . S
C720 C724 1.350 . S
C721 C724 1.463 . S
C721 C726 1.350 . S
C721 N729 1.427 . S
C722 H713 0.930 . S
C722 C720 1.378 . S
C722 C723 1.367 . S
C723 C722 1.367 . S
C723 C725 1.433 . S
C724 C720 1.350 . S
C724 C721 1.463 . S
C724 N728 1.427 . S
C725 H715 0.929 . S
C725 C723 1.433 . S
C725 N728 1.384 . S
C726 H717 0.929 . S
C726 C718 1.378 . S
C726 C721 1.350 . S
C727 H714 0.929 . S
C727 C719 1.433 . S
C727 N729 1.384 . S
N728 C724 1.427 . S
N728 C725 1.384 . S
N729 C721 1.427 . S
N729 C727 1.384 . S
H730 C736 0.930 . S
H731 C740 0.930 . S
H732 C745 0.929 . S
H733 C743 0.929 . S
H734 C738 0.929 . S
H735 C744 0.929 . S
C736 H730 0.930 . S
C736 C737 1.367 . S
C736 C744 1.378 . S
C737 C736 1.367 . S
C737 C745 1.433 . S
C738 H734 0.929 . S
C738 C740 1.378 . S
C738 C742 1.350 . S
C739 C742 1.463 . S
C739 C744 1.350 . S
C739 N747 1.427 . S
C740 H731 0.930 . S
C740 C738 1.378 . S
C740 C741 1.367 . S
C741 C740 1.367 . S
C741 C743 1.433 . S
C742 C738 1.350 . S
C742 C739 1.463 . S
C742 N746 1.427 . S
C743 H733 0.929 . S
C743 C741 1.433 . S
C743 N746 1.384 . S
C744 H735 0.929 . S
C744 C736 1.378 . S
C744 C739 1.350 . S
C745 H732 0.929 . S
C745 C737 1.433 . S
C745 N747 1.384 . S
N746 C742 1.427 . S
N746 C743 1.384 . S
N747 C739 1.427 . S
N747 C745 1.384 . S
H748 C754 0.930 . S
H749 C758 0.930 . S
H750 C763 0.929 . S
H751 C761 0.929 . S
H752 C756 0.929 . S
H753 C762 0.929 . S
C754 H748 0.930 . S
C754 C755 1.367 . S
C754 C762 1.378 . S
C755 C754 1.367 . S
C755 C763 1.433 . S
C756 H752 0.929 . S
C756 C758 1.378 . S
C756 C760 1.350 . S
C757 C760 1.463 . S
C757 C762 1.350 . S
C757 N765 1.427 . S
C758 H749 0.930 . S
C758 C756 1.378 . S
C758 C759 1.367 . S
C759 C758 1.367 . S
C759 C761 1.433 . S
C760 C756 1.350 . S
C760 C757 1.463 . S
C760 N764 1.427 . S
C761 H751 0.929 . S
C761 C759 1.433 . S
C761 N764 1.384 . S
C762 H753 0.929 . S
C762 C754 1.378 . S
C762 C757 1.350 . S
C763 H750 0.929 . S
C763 C755 1.433 . S
C763 N765 1.384 . S
N764 C760 1.427 . S
N764 C761 1.384 . S
N765 C757 1.427 . S
N765 C763 1.384 . S
H766 C772 0.930 . S
H767 C776 0.930 . S
H768 C781 0.929 . S
H769 C779 0.929 . S
H770 C774 0.929 . S
H771 C780 0.929 . S
C772 H766 0.930 . S
C772 C773 1.367 . S
C772 C780 1.378 . S
C773 C772 1.367 . S
C773 C781 1.433 . S
C774 H770 0.929 . S
C774 C776 1.378 . S
C774 C778 1.350 . S
C775 C778 1.463 . S
C775 C780 1.350 . S
C775 N783 1.427 . S
C776 H767 0.930 . S
C776 C774 1.378 . S
C776 C777 1.367 . S
C777 C776 1.367 . S
C777 C779 1.433 . S
C778 C774 1.350 . S
C778 C775 1.463 . S
C778 N782 1.427 . S
C779 H769 0.929 . S
C779 C777 1.433 . S
C779 N782 1.384 . S
C780 H771 0.929 . S
C780 C772 1.378 . S
C780 C775 1.350 . S
C781 H768 0.929 . S
C781 C773 1.433 . S
C781 N783 1.384 . S
N782 C778 1.427 . S
N782 C779 1.384 . S
N783 C775 1.427 . S
N783 C781 1.384 . S
H784 C790 0.930 . S
H785 C794 0.930 . S
H786 C799 0.929 . S
H787 C797 0.929 . S
H788 C792 0.929 1_565 S
H789 C798 0.929 1_545 S
C790 H784 0.930 . S
C790 C791 1.367 . S
C790 C798 1.378 . S
C791 C790 1.367 . S
C791 C799 1.433 . S
C792 H788 0.929 1_545 S
C792 C794 1.378 . S
C792 C796 1.350 . S
C793 C796 1.463 1_565 S
C793 C798 1.350 . S
C793 N801 1.427 . S
C794 H785 0.930 . S
C794 C792 1.378 . S
C794 C795 1.367 . S
C795 C794 1.367 . S
C795 C797 1.433 . S
C796 C792 1.350 . S
C796 C793 1.463 1_545 S
C796 N800 1.427 . S
C797 H787 0.929 . S
C797 C795 1.433 . S
C797 N800 1.384 . S
C798 H789 0.929 1_565 S
C798 C790 1.378 . S
C798 C793 1.350 . S
C799 H786 0.929 . S
C799 C791 1.433 . S
C799 N801 1.384 . S
N800 C796 1.427 . S
N800 C797 1.384 . S
N801 C793 1.427 . S
N801 C799 1.384 . S
H802 C808 0.930 . S
H803 C812 0.930 . S
H804 C817 0.929 1_565 S
H805 C815 0.929 1_545 S
H806 C810 0.929 . S
H807 C816 0.929 . S
C808 H802 0.930 . S
C808 C809 1.367 . S
C808 C816 1.378 . S
C809 C808 1.367 . S
C809 C817 1.433 . S
C810 H806 0.929 . S
C810 C812 1.378 . S
C810 C814 1.350 . S
C811 C814 1.463 1_545 S
C811 C816 1.350 . S
C811 N819 1.427 1_545 S
C812 H803 0.930 . S
C812 C810 1.378 . S
C812 C813 1.367 . S
C813 C812 1.367 . S
C813 C815 1.433 . S
C814 C810 1.350 . S
C814 C811 1.463 1_565 S
C814 N818 1.427 1_565 S
C815 H805 0.929 1_565 S
C815 C813 1.433 . S
C815 N818 1.384 1_565 S
C816 H807 0.929 . S
C816 C808 1.378 . S
C816 C811 1.350 . S
C817 H804 0.929 1_545 S
C817 C809 1.433 . S
C817 N819 1.384 1_545 S
N818 C814 1.427 1_545 S
N818 C815 1.384 1_545 S
N819 C811 1.427 1_565 S
N819 C817 1.384 1_565 S
H820 C826 0.930 . S
H821 C830 0.930 . S
H822 C835 0.929 . S
H823 C833 0.929 . S
H824 C828 0.929 . S
H825 C834 0.929 . S
C826 H820 0.930 . S
C826 C827 1.367 . S
C826 C834 1.378 . S
C827 C826 1.367 . S
C827 C835 1.433 . S
C828 H824 0.929 . S
C828 C830 1.378 . S
C828 C832 1.350 . S
C829 C832 1.463 1_545 S
C829 C834 1.350 . S
C829 N837 1.427 . S
C830 H821 0.930 . S
C830 C828 1.378 . S
C830 C831 1.367 . S
C831 C830 1.367 . S
C831 C833 1.433 . S
C832 C828 1.350 . S
C832 C829 1.463 1_565 S
C832 N836 1.427 . S
C833 H823 0.929 . S
C833 C831 1.433 . S
C833 N836 1.384 . S
C834 H825 0.929 . S
C834 C826 1.378 . S
C834 C829 1.350 . S
C835 H822 0.929 . S
C835 C827 1.433 . S
C835 N837 1.384 . S
N836 C832 1.427 . S
N836 C833 1.384 . S
N837 C829 1.427 . S
N837 C835 1.384 . S
H838 C844 0.930 . S
H839 C848 0.930 . S
H840 C853 0.929 . S
H841 C851 0.929 . S
H842 C846 0.929 . S
H843 C852 0.929 . S
C844 H838 0.930 . S
C844 C845 1.367 . S
C844 C852 1.378 . S
C845 C844 1.367 . S
C845 C853 1.433 . S
C846 H842 0.929 . S
C846 C848 1.378 . S
C846 C850 1.350 . S
C847 C850 1.463 1_545 S
C847 C852 1.350 . S
C847 N855 1.427 . S
C848 H839 0.930 . S
C848 C846 1.378 . S
C848 C849 1.367 . S
C849 C848 1.367 . S
C849 C851 1.433 . S
C850 C846 1.350 . S
C850 C847 1.463 1_565 S
C850 N854 1.427 . S
C851 H841 0.929 . S
C851 C849 1.433 . S
C851 N854 1.384 . S
C852 H843 0.929 . S
C852 C844 1.378 . S
C852 C847 1.350 . S
C853 H840 0.929 . S
C853 C845 1.433 . S
C853 N855 1.384 . S
N854 C850 1.427 . S
N854 C851 1.384 . S
N855 C847 1.427 . S
N855 C853 1.384 . S
H856 C862 0.930 . S
H857 C866 0.930 . S
H858 C871 0.929 . S
H859 C869 0.929 . S
H860 C864 0.929 . S
H861 C870 0.929 . S
C862 H856 0.930 . S
C862 C863 1.367 . S
C862 C870 1.378 . S
C863 C862 1.367 . S
C863 C871 1.433 . S
C864 H860 0.929 . S
C864 C866 1.378 . S
C864 C868 1.350 . S
C865 C868 1.463 . S
C865 C870 1.350 . S
C865 N873 1.427 . S
C866 H857 0.930 . S
C866 C864 1.378 . S
C866 C867 1.367 . S
C867 C866 1.367 . S
C867 C869 1.433 . S
C868 C864 1.350 . S
C868 C865 1.463 . S
C868 N872 1.427 . S
C869 H859 0.929 . S
C869 C867 1.433 . S
C869 N872 1.384 . S
C870 H861 0.929 . S
C870 C862 1.378 . S
C870 C865 1.350 . S
C871 H858 0.929 . S
C871 C863 1.433 . S
C871 N873 1.384 . S
N872 C868 1.427 . S
N872 C869 1.384 . S
N873 C865 1.427 . S
N873 C871 1.384 . S
H874 C880 0.930 . S
H875 C884 0.930 . S
H876 C889 0.929 . S
H877 C887 0.929 . S
H878 C882 0.929 . S
H879 C888 0.929 . S
C880 H874 0.930 . S
C880 C881 1.367 . S
C880 C888 1.378 . S
C881 C880 1.367 . S
C881 C889 1.433 . S
C882 H878 0.929 . S
C882 C884 1.378 . S
C882 C886 1.350 . S
C883 C886 1.463 . S
C883 C888 1.350 . S
C883 N891 1.427 . S
C884 H875 0.930 . S
C884 C882 1.378 . S
C884 C885 1.367 . S
C885 C884 1.367 . S
C885 C887 1.433 . S
C886 C882 1.350 . S
C886 C883 1.463 . S
C886 N890 1.427 . S
C887 H877 0.929 . S
C887 C885 1.433 . S
C887 N890 1.384 . S
C888 H879 0.929 . S
C888 C880 1.378 . S
C888 C883 1.350 . S
C889 H876 0.929 . S
C889 C881 1.433 . S
C889 N891 1.384 . S
N890 C886 1.427 . S
N890 C887 1.384 . S
N891 C883 1.427 . S
N891 C889 1.384 . S
H892 C898 0.930 . S
H893 C902 0.930 . S
H894 C907 0.929 . S
H895 C905 0.929 . S
H896 C900 0.929 . S
H897 C906 0.929 . S
C898 H892 0.930 . S
C898 C899 1.367 . S
C898 C906 1.378 . S
C899 C898 1.367 . S
C899 C907 1.433 . S
C900 H896 0.929 . S
C900 C902 1.378 . S
C900 C904 1.350 . S
C901 C904 1.463 . S
C901 C906 1.350 . S
C901 N909 1.427 . S
C902 H893 0.930 . S
C902 C900 1.378 . S
C902 C903 1.367 . S
C903 C902 1.367 . S
C903 C905 1.433 . S
C904 C900 1.350 . S
C904 C901 1.463 . S
C904 N908 1.427 . S
C905 H895 0.929 . S
C905 C903 1.433 . S
C905 N908 1.384 . S
C906 H897 0.929 . S
C906 C898 1.378 . S
C906 C901 1.350 . S
C907 H894 0.929 . S
C907 C899 1.433 . S
C907 N909 1.384 . S
N908 C904 1.427 . S
N908 C905 1.384 . S
N909 C901 1.427 . S
N909 C907 1.384 . S
H910 C916 0.930 . S
H911 C920 0.930 . S
H912 C925 0.929 . S
H913 C923 0.929 . S
H914 C918 0.929 . S
H915 C924 0.929 . S
C916 H910 0.930 . S
C916 C917 1.367 . S
C916 C924 1.378 . S
C917 C916 1.367 . S
C917 C925 1.433 . S
C918 H914 0.929 . S
C918 C920 1.378 . S
C918 C922 1.350 . S
C919 C922 1.463 . S
C919 C924 1.350 . S
C919 N927 1.427 . S
C920 H911 0.930 . S
C920 C918 1.378 . S
C920 C921 1.367 . S
C921 C920 1.367 . S
C921 C923 1.433 . S
C922 C918 1.350 . S
C922 C919 1.463 . S
C922 N926 1.427 . S
C923 H913 0.929 . S
C923 C921 1.433 . S
C923 N926 1.384 . S
C924 H915 0.929 . S
C924 C916 1.378 . S
C924 C919 1.350 . S
C925 H912 0.929 . S
C925 C917 1.433 . S
C925 N927 1.384 . S
N926 C922 1.427 . S
N926 C923 1.384 . S
N927 C919 1.427 . S
N927 C925 1.384 . S
H928 C934 0.930 . S
H929 C938 0.930 . S
H930 C943 0.929 . S
H931 C941 0.929 . S
H932 C936 0.929 . S
H933 C942 0.929 . S
C934 H928 0.930 . S
C934 C935 1.367 . S
C934 C942 1.378 . S
C935 C934 1.367 . S
C935 C943 1.433 . S
C936 H932 0.929 . S
C936 C938 1.378 . S
C936 C940 1.350 . S
C937 C940 1.463 1_556 S
C937 C942 1.350 . S
C937 N945 1.427 . S
C938 H929 0.930 . S
C938 C936 1.378 . S
C938 C939 1.367 . S
C939 C938 1.367 . S
C939 C941 1.433 . S
C940 C936 1.350 . S
C940 C937 1.463 1_554 S
C940 N944 1.427 . S
C941 H931 0.929 . S
C941 C939 1.433 . S
C941 N944 1.384 . S
C942 H933 0.929 . S
C942 C934 1.378 . S
C942 C937 1.350 . S
C943 H930 0.929 . S
C943 C935 1.433 . S
C943 N945 1.384 . S
N944 C940 1.427 . S
N944 C941 1.384 . S
N945 C937 1.427 . S
N945 C943 1.384 . S
H946 C952 0.930 . S
H947 C956 0.930 . S
H948 C961 0.929 . S
H949 C959 0.929 . S
H950 C954 0.929 . S
H951 C960 0.929 . S
C952 H946 0.930 . S
C952 C953 1.367 . S
C952 C960 1.378 . S
C953 C952 1.367 . S
C953 C961 1.433 . S
C954 H950 0.929 . S
C954 C956 1.378 . S
C954 C958 1.350 . S
C955 C958 1.463 1_556 S
C955 C960 1.350 . S
C955 N963 1.427 . S
C956 H947 0.930 . S
C956 C954 1.378 . S
C956 C957 1.367 . S
C957 C956 1.367 . S
C957 C959 1.433 . S
C958 C954 1.350 . S
C958 C955 1.463 1_554 S
C958 N962 1.427 . S
C959 H949 0.929 . S
C959 C957 1.433 . S
C959 N962 1.384 . S
C960 H951 0.929 . S
C960 C952 1.378 . S
C960 C955 1.350 . S
C961 H948 0.929 . S
C961 C953 1.433 . S
C961 N963 1.384 . S
N962 C958 1.427 . S
N962 C959 1.384 . S
N963 C955 1.427 . S
N963 C961 1.384 . S
H964 C970 0.930 . S
H965 C974 0.930 . S
H966 C979 0.929 . S
H967 C977 0.929 . S
H968 C972 0.929 . S
H969 C978 0.929 . S
C970 H964 0.930 . S
C970 C971 1.367 . S
C970 C978 1.378 . S
C971 C970 1.367 . S
C971 C979 1.433 . S
C972 H968 0.929 . S
C972 C974 1.378 . S
C972 C976 1.350 . S
C973 C976 1.463 . S
C973 C978 1.350 . S
C973 N981 1.427 . S
C974 H965 0.930 . S
C974 C972 1.378 . S
C974 C975 1.367 . S
C975 C974 1.367 . S
C975 C977 1.433 . S
C976 C972 1.350 . S
C976 C973 1.463 . S
C976 N980 1.427 . S
C977 H967 0.929 . S
C977 C975 1.433 . S
C977 N980 1.384 . S
C978 H969 0.929 . S
C978 C970 1.378 . S
C978 C973 1.350 . S
C979 H966 0.929 . S
C979 C971 1.433 . S
C979 N981 1.384 . S
N980 C976 1.427 . S
N980 C977 1.384 . S
N981 C973 1.427 . S
N981 C979 1.384 . S
H982 C988 0.930 . S
H983 C992 0.930 . S
H984 C997 0.929 . S
H985 C995 0.929 . S
H986 C990 0.929 . S
H987 C996 0.929 . S
C988 H982 0.930 . S
C988 C989 1.367 . S
C988 C996 1.378 . S
C989 C988 1.367 . S
C989 C997 1.433 . S
C990 H986 0.929 . S
C990 C992 1.378 . S
C990 C994 1.350 . S
C991 C994 1.463 . S
C991 C996 1.350 . S
C991 N999 1.427 . S
C992 H983 0.930 . S
C992 C990 1.378 . S
C992 C993 1.367 . S
C993 C992 1.367 . S
C993 C995 1.433 . S
C994 C990 1.350 . S
C994 C991 1.463 . S
C994 N998 1.427 . S
C995 H985 0.929 . S
C995 C993 1.433 . S
C995 N998 1.384 . S
C996 H987 0.929 . S
C996 C988 1.378 . S
C996 C991 1.350 . S
C997 H984 0.929 . S
C997 C989 1.433 . S
C997 N999 1.384 . S
N998 C994 1.427 . S
N998 C995 1.384 . S
N999 C991 1.427 . S
N999 C997 1.384 . S
H1000 C1006 0.930 . S
H1001 C1010 0.930 . S
H1002 C1015 0.929 . S
H1003 C1013 0.929 . S
H1004 C1008 0.929 . S
H1005 C1014 0.929 . S
C1006 H1000 0.930 . S
C1006 C1007 1.367 . S
C1006 C1014 1.378 . S
C1007 C1006 1.367 . S
C1007 C1015 1.433 . S
C1008 H1004 0.929 . S
C1008 C1010 1.378 . S
C1008 C1012 1.350 . S
C1009 C1012 1.463 1_554 S
C1009 C1014 1.350 . S
C1009 N1017 1.427 . S
C1010 H1001 0.930 . S
C1010 C1008 1.378 . S
C1010 C1011 1.367 . S
C1011 C1010 1.367 . S
C1011 C1013 1.433 . S
C1012 C1008 1.350 . S
C1012 C1009 1.463 1_556 S
C1012 N1016 1.427 . S
C1013 H1003 0.929 . S
C1013 C1011 1.433 . S
C1013 N1016 1.384 . S
C1014 H1005 0.929 . S
C1014 C1006 1.378 . S
C1014 C1009 1.350 . S
C1015 H1002 0.929 . S
C1015 C1007 1.433 . S
C1015 N1017 1.384 . S
N1016 C1012 1.427 . S
N1016 C1013 1.384 . S
N1017 C1009 1.427 . S
N1017 C1015 1.384 . S
H1018 C1024 0.930 . S
H1019 C1028 0.930 . S
H1020 C1033 0.929 . S
H1021 C1031 0.929 . S
H1022 C1026 0.929 . S
H1023 C1032 0.929 . S
C1024 H1018 0.930 . S
C1024 C1025 1.367 . S
C1024 C1032 1.378 . S
C1025 C1024 1.367 . S
C1025 C1033 1.433 . S
C1026 H1022 0.929 . S
C1026 C1028 1.378 . S
C1026 C1030 1.350 . S
C1027 C1030 1.463 1_556 S
C1027 C1032 1.350 . S
C1027 N1035 1.427 . S
C1028 H1019 0.930 . S
C1028 C1026 1.378 . S
C1028 C1029 1.367 . S
C1029 C1028 1.367 . S
C1029 C1031 1.433 . S
C1030 C1026 1.350 . S
C1030 C1027 1.463 1_554 S
C1030 N1034 1.427 . S
C1031 H1021 0.929 . S
C1031 C1029 1.433 . S
C1031 N1034 1.384 . S
C1032 H1023 0.929 . S
C1032 C1024 1.378 . S
C1032 C1027 1.350 . S
C1033 H1020 0.929 . S
C1033 C1025 1.433 . S
C1033 N1035 1.384 . S
N1034 C1030 1.427 . S
N1034 C1031 1.384 . S
N1035 C1027 1.427 . S
N1035 C1033 1.384 . S
H1036 C1042 0.930 . S
H1037 C1046 0.930 . S
H1038 C1051 0.929 . S
H1039 C1049 0.929 . S
H1040 C1044 0.929 . S
H1041 C1050 0.929 . S
C1042 H1036 0.930 . S
C1042 C1043 1.367 . S
C1042 C1050 1.378 . S
C1043 C1042 1.367 . S
C1043 C1051 1.433 . S
C1044 H1040 0.929 . S
C1044 C1046 1.378 . S
C1044 C1048 1.350 . S
C1045 C1048 1.463 . S
C1045 C1050 1.350 . S
C1045 N1053 1.427 . S
C1046 H1037 0.930 . S
C1046 C1044 1.378 . S
C1046 C1047 1.367 . S
C1047 C1046 1.367 . S
C1047 C1049 1.433 . S
C1048 C1044 1.350 . S
C1048 C1045 1.463 . S
C1048 N1052 1.427 . S
C1049 H1039 0.929 . S
C1049 C1047 1.433 . S
C1049 N1052 1.384 . S
C1050 H1041 0.929 . S
C1050 C1042 1.378 . S
C1050 C1045 1.350 . S
C1051 H1038 0.929 . S
C1051 C1043 1.433 . S
C1051 N1053 1.384 . S
N1052 C1048 1.427 . S
N1052 C1049 1.384 . S
N1053 C1045 1.427 . S
N1053 C1051 1.384 . S
H1054 C1060 0.930 . S
H1055 C1064 0.930 . S
H1056 C1069 0.929 . S
H1057 C1067 0.929 . S
H1058 C1062 0.929 . S
H1059 C1068 0.929 . S
C1060 H1054 0.930 . S
C1060 C1061 1.367 . S
C1060 C1068 1.378 . S
C1061 C1060 1.367 . S
C1061 C1069 1.433 . S
C1062 H1058 0.929 . S
C1062 C1064 1.378 . S
C1062 C1066 1.350 . S
C1063 C1066 1.463 . S
C1063 C1068 1.350 . S
C1063 N1071 1.427 . S
C1064 H1055 0.930 . S
C1064 C1062 1.378 . S
C1064 C1065 1.367 . S
C1065 C1064 1.367 . S
C1065 C1067 1.433 . S
C1066 C1062 1.350 . S
C1066 C1063 1.463 . S
C1066 N1070 1.427 . S
C1067 H1057 0.929 . S
C1067 C1065 1.433 . S
C1067 N1070 1.384 . S
C1068 H1059 0.929 . S
C1068 C1060 1.378 . S
C1068 C1063 1.350 . S
C1069 H1056 0.929 . S
C1069 C1061 1.433 . S
C1069 N1071 1.384 . S
N1070 C1066 1.427 . S
N1070 C1067 1.384 . S
N1071 C1063 1.427 . S
N1071 C1069 1.384 . S
H1072 C1078 0.930 . S
H1073 C1082 0.930 . S
H1074 C1087 0.929 . S
H1075 C1085 0.929 . S
H1076 C1080 0.929 1_565 S
H1077 C1086 0.929 1_545 S
C1078 H1072 0.930 . S
C1078 C1079 1.367 . S
C1078 C1086 1.378 . S
C1079 C1078 1.367 . S
C1079 C1087 1.433 . S
C1080 H1076 0.929 1_545 S
C1080 C1082 1.378 . S
C1080 C1084 1.350 . S
C1081 C1084 1.463 1_665 S
C1081 C1086 1.350 . S
C1081 N1089 1.427 . S
C1082 H1073 0.930 . S
C1082 C1080 1.378 . S
C1082 C1083 1.367 . S
C1083 C1082 1.367 . S
C1083 C1085 1.433 . S
C1084 C1080 1.350 . S
C1084 C1081 1.463 1_445 S
C1084 N1088 1.427 . S
C1085 H1075 0.929 . S
C1085 C1083 1.433 . S
C1085 N1088 1.384 . S
C1086 H1077 0.929 1_565 S
C1086 C1078 1.378 . S
C1086 C1081 1.350 . S
C1087 H1074 0.929 . S
C1087 C1079 1.433 . S
C1087 N1089 1.384 . S
N1088 C1084 1.427 . S
N1088 C1085 1.384 . S
N1089 C1081 1.427 . S
N1089 C1087 1.384 . S
H1090 C1096 0.930 . S
H1091 C1100 0.930 . S
H1092 C1105 0.929 . S
H1093 C1103 0.929 . S
H1094 C1098 0.929 . S
H1095 C1104 0.929 . S
C1096 H1090 0.930 . S
C1096 C1097 1.367 . S
C1096 C1104 1.378 . S
C1097 C1096 1.367 . S
C1097 C1105 1.433 1_545 S
C1098 H1094 0.929 . S
C1098 C1100 1.378 . S
C1098 C1102 1.350 . S
C1099 C1102 1.463 1_645 S
C1099 C1104 1.350 . S
C1099 N1107 1.427 1_545 S
C1100 H1091 0.930 . S
C1100 C1098 1.378 . S
C1100 C1101 1.367 . S
C1101 C1100 1.367 . S
C1101 C1103 1.433 1_565 S
C1102 C1098 1.350 . S
C1102 C1099 1.463 1_465 S
C1102 N1106 1.427 1_565 S
C1103 H1093 0.929 . S
C1103 C1101 1.433 1_545 S
C1103 N1106 1.384 . S
C1104 H1095 0.929 . S
C1104 C1096 1.378 . S
C1104 C1099 1.350 . S
C1105 H1092 0.929 . S
C1105 C1097 1.433 1_565 S
C1105 N1107 1.384 . S
N1106 C1102 1.427 1_545 S
N1106 C1103 1.384 . S
N1107 C1099 1.427 1_565 S
N1107 C1105 1.384 . S
H1108 C1114 0.930 . S
H1109 C1118 0.930 . S
H1110 C1123 0.929 . S
H1111 C1121 0.929 . S
H1112 C1116 0.929 . S
H1113 C1122 0.929 . S
C1114 H1108 0.930 . S
C1114 C1115 1.367 1_565 S
C1114 C1122 1.378 . S
C1115 C1114 1.367 1_545 S
C1115 C1123 1.433 . S
C1116 H1112 0.929 . S
C1116 C1118 1.378 . S
C1116 C1120 1.350 1_545 S
C1117 C1120 1.463 1_445 S
C1117 C1122 1.350 1_545 S
C1117 N1125 1.427 . S
C1118 H1109 0.930 . S
C1118 C1116 1.378 . S
C1118 C1119 1.367 1_545 S
C1119 C1118 1.367 1_565 S
C1119 C1121 1.433 . S
C1120 C1116 1.350 1_565 S
C1120 C1117 1.463 1_665 S
C1120 N1124 1.427 . S
C1121 H1111 0.929 . S
C1121 C1119 1.433 . S
C1121 N1124 1.384 . S
C1122 H1113 0.929 . S
C1122 C1114 1.378 . S
C1122 C1117 1.350 1_565 S
C1123 H1110 0.929 . S
C1123 C1115 1.433 . S
C1123 N1125 1.384 . S
N1124 C1120 1.427 . S
N1124 C1121 1.384 . S
N1125 C1117 1.427 . S
N1125 C1123 1.384 . S
H1126 C1132 0.930 . S
H1127 C1136 0.930 . S
H1128 C1141 0.929 . S
H1129 C1139 0.929 . S
H1130 C1134 0.929 . S
H1131 C1140 0.929 . S
C1132 H1126 0.930 . S
C1132 C1133 1.367 1_565 S
C1132 C1140 1.378 . S
C1133 C1132 1.367 1_545 S
C1133 C1141 1.433 . S
C1134 H1130 0.929 . S
C1134 C1136 1.378 . S
C1134 C1138 1.350 1_545 S
C1135 C1138 1.463 1_645 S
C1135 C1140 1.350 1_545 S
C1135 N1143 1.427 . S
C1136 H1127 0.930 . S
C1136 C1134 1.378 . S
C1136 C1137 1.367 1_545 S
C1137 C1136 1.367 1_565 S
C1137 C1139 1.433 . S
C1138 C1134 1.350 1_565 S
C1138 C1135 1.463 1_465 S
C1138 N1142 1.427 . S
C1139 H1129 0.929 . S
C1139 C1137 1.433 . S
C1139 N1142 1.384 . S
C1140 H1131 0.929 . S
C1140 C1132 1.378 . S
C1140 C1135 1.350 1_565 S
C1141 H1128 0.929 . S
C1141 C1133 1.433 . S
C1141 N1143 1.384 . S
N1142 C1138 1.427 . S
N1142 C1139 1.384 . S
N1143 C1135 1.427 . S
N1143 C1141 1.384 . S
H1144 C1150 0.930 . S
H1145 C1154 0.930 . S
H1146 C1159 0.929 . S
H1147 C1157 0.929 . S
H1148 C1152 0.929 . S
H1149 C1158 0.929 . S
C1150 H1144 0.930 . S
C1150 C1151 1.367 . S
C1150 C1158 1.378 . S
C1151 C1150 1.367 . S
C1151 C1159 1.433 . S
C1152 H1148 0.929 . S
C1152 C1154 1.378 . S
C1152 C1156 1.350 . S
C1153 C1156 1.463 . S
C1153 C1158 1.350 . S
C1153 N1161 1.427 . S
C1154 H1145 0.930 . S
C1154 C1152 1.378 . S
C1154 C1155 1.367 . S
C1155 C1154 1.367 . S
C1155 C1157 1.433 . S
C1156 C1152 1.350 . S
C1156 C1153 1.463 . S
C1156 N1160 1.427 . S
C1157 H1147 0.929 . S
C1157 C1155 1.433 . S
C1157 N1160 1.384 . S
C1158 H1149 0.929 . S
C1158 C1150 1.378 . S
C1158 C1153 1.350 . S
C1159 H1146 0.929 . S
C1159 C1151 1.433 . S
C1159 N1161 1.384 . S
N1160 C1156 1.427 . S
N1160 C1157 1.384 . S
N1161 C1153 1.427 . S
N1161 C1159 1.384 . S
H1162 C1168 0.930 . S
H1163 C1172 0.930 . S
H1164 C1177 0.929 . S
H1165 C1175 0.929 . S
H1166 C1170 0.929 . S
H1167 C1176 0.929 . S
C1168 H1162 0.930 . S
C1168 C1169 1.367 . S
C1168 C1176 1.378 . S
C1169 C1168 1.367 . S
C1169 C1177 1.433 . S
C1170 H1166 0.929 . S
C1170 C1172 1.378 . S
C1170 C1174 1.350 . S
C1171 C1174 1.463 . S
C1171 C1176 1.350 . S
C1171 N1179 1.427 . S
C1172 H1163 0.930 . S
C1172 C1170 1.378 . S
C1172 C1173 1.367 . S
C1173 C1172 1.367 . S
C1173 C1175 1.433 . S
C1174 C1170 1.350 . S
C1174 C1171 1.463 . S
C1174 N1178 1.427 . S
C1175 H1165 0.929 . S
C1175 C1173 1.433 . S
C1175 N1178 1.384 . S
C1176 H1167 0.929 . S
C1176 C1168 1.378 . S
C1176 C1171 1.350 . S
C1177 H1164 0.929 . S
C1177 C1169 1.433 . S
C1177 N1179 1.384 . S
N1178 C1174 1.427 . S
N1178 C1175 1.384 . S
N1179 C1171 1.427 . S
N1179 C1177 1.384 . S
H1180 C1186 0.930 . S
H1181 C1190 0.930 . S
H1182 C1195 0.929 . S
H1183 C1193 0.929 . S
H1184 C1188 0.929 . S
H1185 C1194 0.929 . S
C1186 H1180 0.930 . S
C1186 C1187 1.367 . S
C1186 C1194 1.378 . S
C1187 C1186 1.367 . S
C1187 C1195 1.433 . S
C1188 H1184 0.929 . S
C1188 C1190 1.378 . S
C1188 C1192 1.350 . S
C1189 C1192 1.463 . S
C1189 C1194 1.350 . S
C1189 N1197 1.427 . S
C1190 H1181 0.930 . S
C1190 C1188 1.378 . S
C1190 C1191 1.367 . S
C1191 C1190 1.367 . S
C1191 C1193 1.433 . S
C1192 C1188 1.350 . S
C1192 C1189 1.463 . S
C1192 N1196 1.427 . S
C1193 H1183 0.929 . S
C1193 C1191 1.433 . S
C1193 N1196 1.384 . S
C1194 H1185 0.929 . S
C1194 C1186 1.378 . S
C1194 C1189 1.350 . S
C1195 H1182 0.929 . S
C1195 C1187 1.433 . S
C1195 N1197 1.384 . S
N1196 C1192 1.427 . S
N1196 C1193 1.384 . S
N1197 C1189 1.427 . S
N1197 C1195 1.384 . S
H1198 C1204 0.930 . S
H1199 C1208 0.930 . S
H1200 C1213 0.929 . S
H1201 C1211 0.929 . S
H1202 C1206 0.929 . S
H1203 C1212 0.929 . S
C1204 H1198 0.930 . S
C1204 C1205 1.367 . S
C1204 C1212 1.378 . S
C1205 C1204 1.367 . S
C1205 C1213 1.433 . S
C1206 H1202 0.929 . S
C1206 C1208 1.378 . S
C1206 C1210 1.350 . S
C1207 C1210 1.463 . S
C1207 C1212 1.350 . S
C1207 N1215 1.427 . S
C1208 H1199 0.930 . S
C1208 C1206 1.378 . S
C1208 C1209 1.367 . S
C1209 C1208 1.367 . S
C1209 C1211 1.433 . S
C1210 C1206 1.350 . S
C1210 C1207 1.463 . S
C1210 N1214 1.427 . S
C1211 H1201 0.929 . S
C1211 C1209 1.433 . S
C1211 N1214 1.384 . S
C1212 H1203 0.929 . S
C1212 C1204 1.378 . S
C1212 C1207 1.350 . S
C1213 H1200 0.929 . S
C1213 C1205 1.433 . S
C1213 N1215 1.384 . S
N1214 C1210 1.427 . S
N1214 C1211 1.384 . S
N1215 C1207 1.427 . S
N1215 C1213 1.384 . S
H1216 C1222 0.930 . S
H1217 C1226 0.930 . S
H1218 C1231 0.929 . S
H1219 C1229 0.929 . S
H1220 C1224 0.929 . S
H1221 C1230 0.929 . S
C1222 H1216 0.930 . S
C1222 C1223 1.367 . S
C1222 C1230 1.378 . S
C1223 C1222 1.367 . S
C1223 C1231 1.433 . S
C1224 H1220 0.929 . S
C1224 C1226 1.378 . S
C1224 C1228 1.350 . S
C1225 C1228 1.463 . S
C1225 C1230 1.350 . S
C1225 N1233 1.427 . S
C1226 H1217 0.930 . S
C1226 C1224 1.378 . S
C1226 C1227 1.367 . S
C1227 C1226 1.367 . S
C1227 C1229 1.433 . S
C1228 C1224 1.350 . S
C1228 C1225 1.463 . S
C1228 N1232 1.427 . S
C1229 H1219 0.929 . S
C1229 C1227 1.433 . S
C1229 N1232 1.384 . S
C1230 H1221 0.929 . S
C1230 C1222 1.378 . S
C1230 C1225 1.350 . S
C1231 H1218 0.929 . S
C1231 C1223 1.433 . S
C1231 N1233 1.384 . S
N1232 C1228 1.427 . S
N1232 C1229 1.384 . S
N1233 C1225 1.427 . S
N1233 C1231 1.384 . S
H1234 C1240 0.930 . S
H1235 C1244 0.930 . S
H1236 C1249 0.929 . S
H1237 C1247 0.929 . S
H1238 C1242 0.929 . S
H1239 C1248 0.929 . S
C1240 H1234 0.930 . S
C1240 C1241 1.367 . S
C1240 C1248 1.378 . S
C1241 C1240 1.367 . S
C1241 C1249 1.433 . S
C1242 H1238 0.929 . S
C1242 C1244 1.378 . S
C1242 C1246 1.350 . S
C1243 C1246 1.463 . S
C1243 C1248 1.350 . S
C1243 N1251 1.427 . S
C1244 H1235 0.930 . S
C1244 C1242 1.378 . S
C1244 C1245 1.367 . S
C1245 C1244 1.367 . S
C1245 C1247 1.433 . S
C1246 C1242 1.350 . S
C1246 C1243 1.463 . S
C1246 N1250 1.427 . S
C1247 H1237 0.929 . S
C1247 C1245 1.433 . S
C1247 N1250 1.384 . S
C1248 H1239 0.929 . S
C1248 C1240 1.378 . S
C1248 C1243 1.350 . S
C1249 H1236 0.929 . S
C1249 C1241 1.433 . S
C1249 N1251 1.384 . S
N1250 C1246 1.427 . S
N1250 C1247 1.384 . S
N1251 C1243 1.427 . S
N1251 C1249 1.384 . S
H1252 C1258 0.930 . S
H1253 C1262 0.930 . S
H1254 C1267 0.929 . S
H1255 C1265 0.929 . S
H1256 C1260 0.929 . S
H1257 C1266 0.929 . S
C1258 H1252 0.930 . S
C1258 C1259 1.367 . S
C1258 C1266 1.378 . S
C1259 C1258 1.367 . S
C1259 C1267 1.433 . S
C1260 H1256 0.929 . S
C1260 C1262 1.378 . S
C1260 C1264 1.350 . S
C1261 C1264 1.463 . S
C1261 C1266 1.350 . S
C1261 N1269 1.427 . S
C1262 H1253 0.930 . S
C1262 C1260 1.378 . S
C1262 C1263 1.367 . S
C1263 C1262 1.367 . S
C1263 C1265 1.433 . S
C1264 C1260 1.350 . S
C1264 C1261 1.463 . S
C1264 N1268 1.427 . S
C1265 H1255 0.929 . S
C1265 C1263 1.433 . S
C1265 N1268 1.384 . S
C1266 H1257 0.929 . S
C1266 C1258 1.378 . S
C1266 C1261 1.350 . S
C1267 H1254 0.929 . S
C1267 C1259 1.433 . S
C1267 N1269 1.384 . S
N1268 C1264 1.427 . S
N1268 C1265 1.384 . S
N1269 C1261 1.427 . S
N1269 C1267 1.384 . S
H1270 C1276 0.930 . S
H1271 C1280 0.930 . S
H1272 C1285 0.929 . S
H1273 C1283 0.929 . S
H1274 C1278 0.929 . S
H1275 C1284 0.929 . S
C1276 H1270 0.930 . S
C1276 C1277 1.367 . S
C1276 C1284 1.378 . S
C1277 C1276 1.367 . S
C1277 C1285 1.433 . S
C1278 H1274 0.929 . S
C1278 C1280 1.378 . S
C1278 C1282 1.350 . S
C1279 C1282 1.463 . S
C1279 C1284 1.350 . S
C1279 N1287 1.427 . S
C1280 H1271 0.930 . S
C1280 C1278 1.378 . S
C1280 C1281 1.367 . S
C1281 C1280 1.367 . S
C1281 C1283 1.433 . S
C1282 C1278 1.350 . S
C1282 C1279 1.463 . S
C1282 N1286 1.427 . S
C1283 H1273 0.929 . S
C1283 C1281 1.433 . S
C1283 N1286 1.384 . S
C1284 H1275 0.929 . S
C1284 C1276 1.378 . S
C1284 C1279 1.350 . S
C1285 H1272 0.929 . S
C1285 C1277 1.433 . S
C1285 N1287 1.384 . S
N1286 C1282 1.427 . S
N1286 C1283 1.384 . S
N1287 C1279 1.427 . S
N1287 C1285 1.384 . S
H1288 C1294 0.930 . S
H1289 C1298 0.930 . S
H1290 C1303 0.929 . S
H1291 C1301 0.929 . S
H1292 C1296 0.929 . S
H1293 C1302 0.929 . S
C1294 H1288 0.930 . S
C1294 C1295 1.367 . S
C1294 C1302 1.378 . S
C1295 C1294 1.367 . S
C1295 C1303 1.433 . S
C1296 H1292 0.929 . S
C1296 C1298 1.378 . S
C1296 C1300 1.350 . S
C1297 C1300 1.463 . S
C1297 C1302 1.350 . S
C1297 N1305 1.427 . S
C1298 H1289 0.930 . S
C1298 C1296 1.378 . S
C1298 C1299 1.367 . S
C1299 C1298 1.367 . S
C1299 C1301 1.433 . S
C1300 C1296 1.350 . S
C1300 C1297 1.463 . S
C1300 N1304 1.427 . S
C1301 H1291 0.929 . S
C1301 C1299 1.433 . S
C1301 N1304 1.384 . S
C1302 H1293 0.929 . S
C1302 C1294 1.378 . S
C1302 C1297 1.350 . S
C1303 H1290 0.929 . S
C1303 C1295 1.433 . S
C1303 N1305 1.384 . S
N1304 C1300 1.427 . S
N1304 C1301 1.384 . S
N1305 C1297 1.427 . S
N1305 C1303 1.384 . S
H1306 C1312 0.930 . S
H1307 C1316 0.930 . S
H1308 C1321 0.929 . S
H1309 C1319 0.929 . S
H1310 C1314 0.929 . S
H1311 C1320 0.929 . S
C1312 H1306 0.930 . S
C1312 C1313 1.367 . S
C1312 C1320 1.378 . S
C1313 C1312 1.367 . S
C1313 C1321 1.433 . S
C1314 H1310 0.929 . S
C1314 C1316 1.378 . S
C1314 C1318 1.350 . S
C1315 C1318 1.463 . S
C1315 C1320 1.350 . S
C1315 N1323 1.427 . S
C1316 H1307 0.930 . S
C1316 C1314 1.378 . S
C1316 C1317 1.367 . S
C1317 C1316 1.367 . S
C1317 C1319 1.433 . S
C1318 C1314 1.350 . S
C1318 C1315 1.463 . S
C1318 N1322 1.427 . S
C1319 H1309 0.929 . S
C1319 C1317 1.433 . S
C1319 N1322 1.384 . S
C1320 H1311 0.929 . S
C1320 C1312 1.378 . S
C1320 C1315 1.350 . S
C1321 H1308 0.929 . S
C1321 C1313 1.433 . S
C1321 N1323 1.384 . S
N1322 C1318 1.427 . S
N1322 C1319 1.384 . S
N1323 C1315 1.427 . S
N1323 C1321 1.384 . S
H1324 C1330 0.930 . S
H1325 C1334 0.930 . S
H1326 C1339 0.929 . S
H1327 C1337 0.929 . S
H1328 C1332 0.929 . S
H1329 C1338 0.929 . S
C1330 H1324 0.930 . S
C1330 C1331 1.367 . S
C1330 C1338 1.378 . S
C1331 C1330 1.367 . S
C1331 C1339 1.433 . S
C1332 H1328 0.929 . S
C1332 C1334 1.378 . S
C1332 C1336 1.350 . S
C1333 C1336 1.463 . S
C1333 C1338 1.350 . S
C1333 N1341 1.427 . S
C1334 H1325 0.930 . S
C1334 C1332 1.378 . S
C1334 C1335 1.367 . S
C1335 C1334 1.367 . S
C1335 C1337 1.433 . S
C1336 C1332 1.350 . S
C1336 C1333 1.463 . S
C1336 N1340 1.427 . S
C1337 H1327 0.929 . S
C1337 C1335 1.433 . S
C1337 N1340 1.384 . S
C1338 H1329 0.929 . S
C1338 C1330 1.378 . S
C1338 C1333 1.350 . S
C1339 H1326 0.929 . S
C1339 C1331 1.433 . S
C1339 N1341 1.384 . S
N1340 C1336 1.427 . S
N1340 C1337 1.384 . S
N1341 C1333 1.427 . S
N1341 C1339 1.384 . S
H1342 C1348 0.930 . S
H1343 C1352 0.930 . S
H1344 C1357 0.929 . S
H1345 C1355 0.929 . S
H1346 C1350 0.929 . S
H1347 C1356 0.929 . S
C1348 H1342 0.930 . S
C1348 C1349 1.367 . S
C1348 C1356 1.378 . S
C1349 C1348 1.367 . S
C1349 C1357 1.433 . S
C1350 H1346 0.929 . S
C1350 C1352 1.378 . S
C1350 C1354 1.350 . S
C1351 C1354 1.463 . S
C1351 C1356 1.350 . S
C1351 N1359 1.427 . S
C1352 H1343 0.930 . S
C1352 C1350 1.378 . S
C1352 C1353 1.367 . S
C1353 C1352 1.367 . S
C1353 C1355 1.433 . S
C1354 C1350 1.350 . S
C1354 C1351 1.463 . S
C1354 N1358 1.427 . S
C1355 H1345 0.929 . S
C1355 C1353 1.433 . S
C1355 N1358 1.384 . S
C1356 H1347 0.929 . S
C1356 C1348 1.378 . S
C1356 C1351 1.350 . S
C1357 H1344 0.929 . S
C1357 C1349 1.433 . S
C1357 N1359 1.384 . S
N1358 C1354 1.427 . S
N1358 C1355 1.384 . S
N1359 C1351 1.427 . S
N1359 C1357 1.384 . S
H1360 C1366 0.930 . S
H1361 C1370 0.930 . S
H1362 C1375 0.929 . S
H1363 C1373 0.929 . S
H1364 C1368 0.929 . S
H1365 C1374 0.929 . S
C1366 H1360 0.930 . S
C1366 C1367 1.367 . S
C1366 C1374 1.378 1_565 S
C1367 C1366 1.367 . S
C1367 C1375 1.433 . S
C1368 H1364 0.929 . S
C1368 C1370 1.378 . S
C1368 C1372 1.350 . S
C1369 C1372 1.463 . S
C1369 C1374 1.350 . S
C1369 N1377 1.427 . S
C1370 H1361 0.930 . S
C1370 C1368 1.378 . S
C1370 C1371 1.367 . S
C1371 C1370 1.367 . S
C1371 C1373 1.433 . S
C1372 C1368 1.350 . S
C1372 C1369 1.463 . S
C1372 N1376 1.427 . S
C1373 H1363 0.929 . S
C1373 C1371 1.433 . S
C1373 N1376 1.384 . S
C1374 H1365 0.929 . S
C1374 C1366 1.378 1_545 S
C1374 C1369 1.350 . S
C1375 H1362 0.929 . S
C1375 C1367 1.433 . S
C1375 N1377 1.384 1_565 S
N1376 C1372 1.427 . S
N1376 C1373 1.384 . S
N1377 C1369 1.427 . S
N1377 C1375 1.384 1_545 S
H1378 C1384 0.930 . S
H1379 C1388 0.930 . S
H1380 C1393 0.929 . S
H1381 C1391 0.929 . S
H1382 C1386 0.929 . S
H1383 C1392 0.929 . S
C1384 H1378 0.930 . S
C1384 C1385 1.367 . S
C1384 C1392 1.378 . S
C1385 C1384 1.367 . S
C1385 C1393 1.433 . S
C1386 H1382 0.929 . S
C1386 C1388 1.378 1_565 S
C1386 C1390 1.350 . S
C1387 C1390 1.463 . S
C1387 C1392 1.350 . S
C1387 N1395 1.427 . S
C1388 H1379 0.930 . S
C1388 C1386 1.378 1_545 S
C1388 C1389 1.367 . S
C1389 C1388 1.367 . S
C1389 C1391 1.433 . S
C1390 C1386 1.350 . S
C1390 C1387 1.463 . S
C1390 N1394 1.427 . S
C1391 H1381 0.929 . S
C1391 C1389 1.433 . S
C1391 N1394 1.384 1_545 S
C1392 H1383 0.929 . S
C1392 C1384 1.378 . S
C1392 C1387 1.350 . S
C1393 H1380 0.929 . S
C1393 C1385 1.433 . S
C1393 N1395 1.384 . S
N1394 C1390 1.427 . S
N1394 C1391 1.384 1_565 S
N1395 C1387 1.427 . S
N1395 C1393 1.384 . S
H1396 C1402 0.930 . S
H1397 C1406 0.930 . S
H1398 C1411 0.929 . S
H1399 C1409 0.929 . S
H1400 C1404 0.929 . S
H1401 C1410 0.929 . S
C1402 H1396 0.930 . S
C1402 C1403 1.367 . S
C1402 C1410 1.378 1_545 S
C1403 C1402 1.367 . S
C1403 C1411 1.433 . S
C1404 H1400 0.929 . S
C1404 C1406 1.378 . S
C1404 C1408 1.350 . S
C1405 C1408 1.463 . S
C1405 C1410 1.350 . S
C1405 N1413 1.427 . S
C1406 H1397 0.930 . S
C1406 C1404 1.378 . S
C1406 C1407 1.367 . S
C1407 C1406 1.367 . S
C1407 C1409 1.433 . S
C1408 C1404 1.350 . S
C1408 C1405 1.463 . S
C1408 N1412 1.427 . S
C1409 H1399 0.929 . S
C1409 C1407 1.433 . S
C1409 N1412 1.384 . S
C1410 H1401 0.929 . S
C1410 C1402 1.378 1_565 S
C1410 C1405 1.350 . S
C1411 H1398 0.929 . S
C1411 C1403 1.433 . S
C1411 N1413 1.384 1_545 S
N1412 C1408 1.427 . S
N1412 C1409 1.384 . S
N1413 C1405 1.427 . S
N1413 C1411 1.384 1_565 S
H1414 C1420 0.930 . S
H1415 C1424 0.930 . S
H1416 C1429 0.929 . S
H1417 C1427 0.929 . S
H1418 C1422 0.929 . S
H1419 C1428 0.929 . S
C1420 H1414 0.930 . S
C1420 C1421 1.367 . S
C1420 C1428 1.378 1_565 S
C1421 C1420 1.367 . S
C1421 C1429 1.433 . S
C1422 H1418 0.929 . S
C1422 C1424 1.378 . S
C1422 C1426 1.350 . S
C1423 C1426 1.463 . S
C1423 C1428 1.350 . S
C1423 N1431 1.427 . S
C1424 H1415 0.930 . S
C1424 C1422 1.378 . S
C1424 C1425 1.367 . S
C1425 C1424 1.367 . S
C1425 C1427 1.433 . S
C1426 C1422 1.350 . S
C1426 C1423 1.463 . S
C1426 N1430 1.427 . S
C1427 H1417 0.929 . S
C1427 C1425 1.433 . S
C1427 N1430 1.384 . S
C1428 H1419 0.929 . S
C1428 C1420 1.378 1_545 S
C1428 C1423 1.350 . S
C1429 H1416 0.929 . S
C1429 C1421 1.433 . S
C1429 N1431 1.384 1_565 S
N1430 C1426 1.427 . S
N1430 C1427 1.384 . S
N1431 C1423 1.427 . S
N1431 C1429 1.384 1_545 S
H1432 C1438 0.930 . S
H1433 C1442 0.930 . S
H1434 C1447 0.929 . S
H1435 C1445 0.929 . S
H1436 C1440 0.929 . S
H1437 C1446 0.929 . S
C1438 H1432 0.930 . S
C1438 C1439 1.367 . S
C1438 C1446 1.378 . S
C1439 C1438 1.367 . S
C1439 C1447 1.433 . S
C1440 H1436 0.929 . S
C1440 C1442 1.378 1_565 S
C1440 C1444 1.350 . S
C1441 C1444 1.463 . S
C1441 C1446 1.350 . S
C1441 N1449 1.427 . S
C1442 H1433 0.930 . S
C1442 C1440 1.378 1_545 S
C1442 C1443 1.367 . S
C1443 C1442 1.367 . S
C1443 C1445 1.433 . S
C1444 C1440 1.350 . S
C1444 C1441 1.463 . S
C1444 N1448 1.427 . S
C1445 H1435 0.929 . S
C1445 C1443 1.433 . S
C1445 N1448 1.384 1_545 S
C1446 H1437 0.929 . S
C1446 C1438 1.378 . S
C1446 C1441 1.350 . S
C1447 H1434 0.929 . S
C1447 C1439 1.433 . S
C1447 N1449 1.384 . S
N1448 C1444 1.427 . S
N1448 C1445 1.384 1_565 S
N1449 C1441 1.427 . S
N1449 C1447 1.384 . S
H1450 C1456 0.930 . S
H1451 C1460 0.937 . S
H1452 C1465 0.929 . S
H1453 C1463 0.929 . S
H1454 C1458 0.929 . S
H1455 C1464 0.929 . S
C1456 H1450 0.930 . S
C1456 C1457 1.367 . S
C1456 C1464 1.378 . S
C1457 C1456 1.367 . S
C1457 C1465 1.433 . S
C1458 H1454 0.929 . S
C1458 C1460 1.359 1_545 S
C1458 C1462 1.350 . S
C1459 C1462 1.463 . S
C1459 C1464 1.350 . S
C1459 N1467 1.427 . S
C1460 H1451 0.937 . S
C1460 C1458 1.359 1_565 S
C1460 C1461 1.379 . S
C1461 C1460 1.379 . S
C1461 C1463 1.433 . S
C1462 C1458 1.350 . S
C1462 C1459 1.463 . S
C1462 N1466 1.427 . S
C1463 H1453 0.929 . S
C1463 C1461 1.433 . S
C1463 N1466 1.384 1_565 S
C1464 H1455 0.929 . S
C1464 C1456 1.378 . S
C1464 C1459 1.350 . S
C1465 H1452 0.929 . S
C1465 C1457 1.433 . S
C1465 N1467 1.384 . S
N1466 C1462 1.427 . S
N1466 C1463 1.384 1_545 S
N1467 C1459 1.427 . S
N1467 C1465 1.384 . S
H1468 C1474 0.930 . S
H1469 C1478 0.930 . S
H1470 C1483 0.929 . S
H1471 C1481 0.929 . S
H1472 C1476 0.929 . S
H1473 C1482 0.929 . S
C1474 H1468 0.930 . S
C1474 C1475 1.367 . S
C1474 C1482 1.378 1_565 S
C1475 C1474 1.367 . S
C1475 C1483 1.433 . S
C1476 H1472 0.929 . S
C1476 C1478 1.378 . S
C1476 C1480 1.350 . S
C1477 C1480 1.463 . S
C1477 C1482 1.350 . S
C1477 N1485 1.427 . S
C1478 H1469 0.930 . S
C1478 C1476 1.378 . S
C1478 C1479 1.367 . S
C1479 C1478 1.367 . S
C1479 C1481 1.433 . S
C1480 C1476 1.350 . S
C1480 C1477 1.463 . S
C1480 N1484 1.427 . S
C1481 H1471 0.929 . S
C1481 C1479 1.433 . S
C1481 N1484 1.384 . S
C1482 H1473 0.929 . S
C1482 C1474 1.378 1_545 S
C1482 C1477 1.350 . S
C1483 H1470 0.929 . S
C1483 C1475 1.433 . S
C1483 N1485 1.384 1_565 S
N1484 C1480 1.427 . S
N1484 C1481 1.384 . S
N1485 C1477 1.427 . S
N1485 C1483 1.384 1_545 S
H1486 C1492 0.930 . S
H1487 C1496 0.930 . S
H1488 C1501 0.929 . S
H1489 C1499 0.929 . S
H1490 C1494 0.929 . S
H1491 C1500 0.929 . S
C1492 H1486 0.930 . S
C1492 C1493 1.367 . S
C1492 C1500 1.378 . S
C1493 C1492 1.367 . S
C1493 C1501 1.433 . S
C1494 H1490 0.929 . S
C1494 C1496 1.378 1_565 S
C1494 C1498 1.350 . S
C1495 C1498 1.463 . S
C1495 C1500 1.350 . S
C1495 N1503 1.427 . S
C1496 H1487 0.930 . S
C1496 C1494 1.378 1_545 S
C1496 C1497 1.367 . S
C1497 C1496 1.367 . S
C1497 C1499 1.433 . S
C1498 C1494 1.350 . S
C1498 C1495 1.463 . S
C1498 N1502 1.427 . S
C1499 H1489 0.929 . S
C1499 C1497 1.433 . S
C1499 N1502 1.384 1_545 S
C1500 H1491 0.929 . S
C1500 C1492 1.378 . S
C1500 C1495 1.350 . S
C1501 H1488 0.929 . S
C1501 C1493 1.433 . S
C1501 N1503 1.384 . S
N1502 C1498 1.427 . S
N1502 C1499 1.384 1_565 S
N1503 C1495 1.427 . S
N1503 C1501 1.384 . S
C647 C19 1.557 . S
C651 C379 1.555 . S
C665 C59 1.557 . S
C669 C339 1.555 . S
C683 C459 1.553 . S
C687 C99 1.558 . S
C701 C139 1.553 . S
C705 C419 1.557 . S
C719 C530 1.557 . S
C723 C170 1.554 . S
C737 C490 1.554 . S
C741 C210 1.557 . S
C755 C610 1.554 . S
C759 C250 1.557 . S
C773 C290 1.554 . S
C777 C570 1.557 . S
C791 C98 1.679 . S
C795 C18 1.685 . S
C809 C138 1.680 . S
C813 C58 1.681 . S
C827 C249 1.678 . S
C831 C169 1.685 . S
C845 C209 1.684 . S
C849 C289 1.678 . S
C863 C418 1.678 . S
C867 C338 1.684 . S
C881 C458 1.683 . S
C885 C378 1.681 . S
C899 C489 1.684 . S
C903 C569 1.680 . S
C917 C529 1.679 . S
C921 C609 1.681 . S
C935 C218 1.522 . S
C939 C9 1.508 . S
C953 C178 1.522 . S
C957 C49 1.508 . S
C971 C89 1.512 . S
C975 C298 1.519 . S
C989 C258 1.517 . S
C993 C129 1.513 . S
C1007 C329 1.517 . S
C1011 C538 1.513 . S
C1025 C498 1.519 . S
C1029 C369 1.511 . S
C1043 C409 1.508 . S
C1047 C618 1.522 . S
C1061 C578 1.507 . S
C1065 C449 1.523 . S
C1079 C50 1.625 . S
C1083 C10 1.630 . S
C1097 C130 1.623 . S
C1101 C90 1.620 . S
C1115 C219 1.632 . S
C1119 C179 1.633 . S
C1133 C259 1.630 . S
C1137 C299 1.633 . S
C1151 C370 1.621 . S
C1155 C330 1.620 . S
C1169 C450 1.620 . S
C1173 C410 1.620 . S
C1187 C499 1.627 . S
C1191 C539 1.622 . S
C1205 C579 1.623 . S
C1209 C619 1.628 . S
C1223 C6 1.628 . S
C1227 C15 1.628 . S
C1241 C46 1.623 . S
C1245 C55 1.623 . S
C1259 C86 1.630 . S
C1263 C95 1.630 . S
C1277 C135 1.624 . S
C1281 C126 1.624 . S
C1295 C175 1.622 . S
C1299 C166 1.622 . S
C1313 C206 1.628 . S
C1317 C215 1.628 . S
C1331 C255 1.629 . S
C1335 C246 1.629 . S
C1349 C295 1.622 . S
C1353 C286 1.622 . S
C1367 C335 1.622 . S
C1371 C326 1.622 . S
C1385 C366 1.629 . S
C1389 C375 1.629 . S
C1403 C415 1.627 . S
C1407 C406 1.627 . S
C1421 C455 1.623 . S
C1425 C446 1.623 . S
C1439 C495 1.626 . S
C1443 C486 1.626 . S
C1457 C535 1.630 . S
C1461 C526 1.630 . S
C1475 C566 1.623 . S
C1479 C575 1.623 . S
C1493 C615 1.629 . S
C1497 C606 1.629 . S
