# Generated by pormake.
# Topology lvt, (4)-cn, num edge types: 1
# Building blocks:
#     Node 0, Type 0, BuildingBlock: NAWXER_clean_sbu_0, # of connection points: 4
#     Node 1, Type 0, BuildingBlock: NAWXER_clean_sbu_0, # of connection points: 4
#     Node 2, Type 0, BuildingBlock: NAWXER_clean_sbu_0, # of connection points: 4
#     Node 3, Type 0, BuildingBlock: NAWXER_clean_sbu_0, # of connection points: 4
#     Node 4, Type 0, BuildingBlock: NAWXER_clean_sbu_0, # of connection points: 4
#     Node 5, Type 0, BuildingBlock: NAWXER_clean_sbu_0, # of connection points: 4
#     Node 6, Type 0, BuildingBlock: NAWXER_clean_sbu_0, # of connection points: 4
#     Node 7, Type 0, BuildingBlock: NAWXER_clean_sbu_0, # of connection points: 4
#     Edge 8, Type (0, 0), BuildingBlock: UVAHIK_clean_linker_0, # of connection points: 2
#     Edge 9, Type (0, 0), BuildingBlock: UVAHIK_clean_linker_0, # of connection points: 2
#     Edge 10, Type (0, 0), BuildingBlock: UVAHIK_clean_linker_0, # of connection points: 2
#     Edge 11, Type (0, 0), BuildingBlock: UVAHIK_clean_linker_0, # of connection points: 2
#     Edge 12, Type (0, 0), BuildingBlock: UVAHIK_clean_linker_0, # of connection points: 2
#     Edge 13, Type (0, 0), BuildingBlock: UVAHIK_clean_linker_0, # of connection points: 2
#     Edge 14, Type (0, 0), BuildingBlock: UVAHIK_clean_linker_0, # of connection points: 2
#     Edge 15, Type (0, 0), BuildingBlock: UVAHIK_clean_linker_0, # of connection points: 2
#     Edge 16, Type (0, 0), BuildingBlock: UVAHIK_clean_linker_0, # of connection points: 2
#     Edge 17, Type (0, 0), BuildingBlock: UVAHIK_clean_linker_0, # of connection points: 2
#     Edge 18, Type (0, 0), BuildingBlock: UVAHIK_clean_linker_0, # of connection points: 2
#     Edge 19, Type (0, 0), BuildingBlock: UVAHIK_clean_linker_0, # of connection points: 2
#     Edge 20, Type (0, 0), BuildingBlock: UVAHIK_clean_linker_0, # of connection points: 2
#     Edge 21, Type (0, 0), BuildingBlock: UVAHIK_clean_linker_0, # of connection points: 2
#     Edge 22, Type (0, 0), BuildingBlock: UVAHIK_clean_linker_0, # of connection points: 2
#     Edge 23, Type (0, 0), BuildingBlock: UVAHIK_clean_linker_0, # of connection points: 2
# Relax obj value: 0.000
# Max RMSD: 0.000
# Mean RMSD: 0.000
data_MOF--net-lvt--node1-NAWXER_clean_sbu_0--edge1-UVAHIK_clean_linker_0
_symmetry_space_group_name_H-M    P1
_symmetry_Int_Tables_number       1
_symmetry_cell_setting            triclinic
loop_
_symmetry_equiv_pos_as_xyz
'x, y, z'
_cell_length_a     50.311385
_cell_length_b     50.289365
_cell_length_c     28.111826
_cell_angle_alpha  90.385804
_cell_angle_beta   89.585081
_cell_angle_gamma 90.261816
loop_
_atom_site_label
_atom_site_type_symbol
_atom_site_fract_x
_atom_site_fract_y
_atom_site_fract_z
_atom_type_partial_charge
C0 C 0.99101 0.96409 0.48337 0.0
C1 C 0.0553 0.02024 0.39843 0.0
O2 O 0.9985 0.96166 0.44026 0.0
Zn3 Zn 0.02293 0.99185 0.43886 0.0
O4 O 1.00006 0.98336 0.50856 0.0
Zn5 Zn 0.02663 0.01622 0.50126 0.0
O6 O 1.00347 0.04684 0.50943 0.0
O7 O 0.99707 0.02524 0.44191 0.0
O8 O 0.05094 0.02761 0.44156 0.0
O9 O 0.0431 1.00009 0.38157 0.0
O10 O 0.05348 0.98035 0.48755 0.0
O11 O 0.05282 0.00802 0.54897 0.0
C12 C 0.99152 0.04467 0.46988 0.0
C13 C 0.06275 0.98788 0.52788 0.0
C14 C 0.23088 0.79542 0.74798 0.0
C15 C 0.28853 0.72716 0.81345 0.0
O16 O 0.25056 0.78421 0.72765 0.0
Zn17 Zn 0.25918 0.76031 0.77852 0.0
O18 O 0.22361 0.78796 0.78971 0.0
Zn19 Zn 0.23568 0.75937 0.84211 0.0
O20 O 0.24453 0.78212 0.89604 0.0
O21 O 0.27099 0.78747 0.83367 0.0
O22 O 0.26938 0.73359 0.84147 0.0
O23 O 0.29004 0.73755 0.77241 0.0
O24 O 0.22675 0.73294 0.77679 0.0
O25 O 0.20564 0.73474 0.84567 0.0
C26 C 0.26417 0.7938 0.87628 0.0
C27 C 0.20788 0.72492 0.80404 0.0
C28 C 0.4749 0.96066 0.03695 0.0
C29 C 0.54855 0.01497 0.09511 0.0
O30 O 0.48182 0.97882 0.0074 0.0
Zn31 Zn 0.51162 0.00971 0.00235 0.0
O32 O 0.4879 0.95795 0.07518 0.0
Zn33 Zn 0.51282 0.98668 0.06473 0.0
O34 O 0.48695 0.02084 0.06758 0.0
O35 O 0.49012 0.04132 0.99857 0.0
O36 O 0.53764 0.995 0.11478 0.0
O37 O 0.54103 0.02202 0.05354 0.0
O38 O 0.5319 0.99944 0.9468 0.0
O39 O 0.53744 0.9721 0.00685 0.0
C40 C 0.48025 0.03998 0.04024 0.0
C41 C 0.54264 0.9788 0.96374 0.0
C42 C 0.28914 0.23416 0.19704 0.0
C43 C 0.22606 0.3007 0.25532 0.0
O44 O 0.27076 0.23925 0.16711 0.0
Zn45 Zn 0.23687 0.26494 0.1615 0.0
O46 O 0.28967 0.24651 0.23665 0.0
Zn47 Zn 0.25807 0.26759 0.22653 0.0
O48 O 0.22752 0.23767 0.22419 0.0
O49 O 0.20833 0.23912 0.15397 0.0
O50 O 0.24591 0.29101 0.27671 0.0
O51 O 0.22082 0.29286 0.21281 0.0
O52 O 0.24726 0.28701 0.10795 0.0
O53 O 0.27142 0.2942 0.172 0.0
C54 C 0.21017 0.22869 0.1949 0.0
C55 C 0.26604 0.29944 0.12855 0.0
C56 C 0.72583 0.28956 0.25201 0.0
C57 C 0.79129 0.22656 0.31087 0.0
O58 O 0.74596 0.28041 0.22981 0.0
Zn59 Zn 0.75831 0.2572 0.27926 0.0
O60 O 0.72052 0.28133 0.29417 0.0
Zn61 Zn 0.73669 0.25397 0.34489 0.0
O62 O 0.7451 0.2773 0.39833 0.0
O63 O 0.7694 0.28487 0.33396 0.0
O64 O 0.7725 0.23133 0.34067 0.0
O65 O 0.79077 0.23706 0.26986 0.0
O66 O 0.72863 0.22699 0.28005 0.0
O67 O 0.70922 0.22653 0.35055 0.0
C68 C 0.76328 0.2905 0.37721 0.0
C69 C 0.71136 0.21708 0.30862 0.0
C70 C 0.76483 0.72731 0.62737 0.0
C71 C 0.71279 0.7974 0.70691 0.0
O72 O 0.74631 0.74058 0.60813 0.0
Zn73 Zn 0.73869 0.76295 0.6638 0.0
O74 O 0.77187 0.73259 0.67012 0.0
Zn75 Zn 0.76218 0.75916 0.72726 0.0
O76 O 0.75176 0.73386 0.77599 0.0
O77 O 0.72517 0.73363 0.71375 0.0
O78 O 0.73127 0.78762 0.73242 0.0
O79 O 0.71003 0.78927 0.66426 0.0
O80 O 0.77394 0.78639 0.66495 0.0
O81 O 0.79463 0.78044 0.73289 0.0
C82 C 0.73167 0.72429 0.75438 0.0
C83 C 0.79364 0.79135 0.69224 0.0
C84 C 0.48489 0.54318 0.9794 0.0
C85 C 0.54598 0.47631 0.04015 0.0
O86 O 0.49293 0.54104 0.02201 0.0
Zn87 Zn 0.51482 0.50975 0.01174 0.0
O88 O 0.49242 0.52622 0.94792 0.0
Zn89 Zn 0.51679 0.49162 0.94253 0.0
O90 O 0.49094 0.46388 0.92611 0.0
O91 O 0.48561 0.4799 0.99868 0.0
O92 O 0.54082 0.47334 0.9958 0.0
O93 O 0.53477 0.49486 0.06372 0.0
O94 O 0.54562 0.52451 0.96584 0.0
O95 O 0.54332 0.50354 0.89667 0.0
C96 C 0.47827 0.464 0.96546 0.0
C97 C 0.55439 0.52081 0.92339 0.0
C98 C 0.96754 0.46716 0.53239 0.0
C99 C 0.03336 0.53073 0.59057 0.0
O100 O 0.976 0.48272 0.49949 0.0
Zn101 Zn 1.00456 0.5148 0.4924 0.0
O102 O 0.97749 0.4689 0.57371 0.0
Zn103 Zn 1.00141 0.49806 0.56042 0.0
O104 O 0.97352 0.52964 0.54518 0.0
O105 O 0.98205 0.5435 0.47237 0.0
O106 O 0.02132 0.51241 0.61301 0.0
O107 O 0.02911 0.53356 0.54591 0.0
O108 O 0.02951 0.50113 0.44648 0.0
O109 O 0.03127 0.47992 0.5147 0.0
C110 C 0.96824 0.54506 0.51028 0.0
C111 C 0.03966 0.48308 0.47182 0.0
C112 C 0.07107 0.03752 0.31919 0.0
C113 C 0.07376 0.03619 0.36887 0.0
C114 C 0.08684 0.0552 0.29265 0.0
C115 C 0.14888 0.09459 0.29771 0.0
H116 H 0.11295 0.14519 0.21721 0.0
C117 C 0.19561 0.1952 0.25493 0.0
C118 C 0.19353 0.20554 0.20879 0.0
C119 C 0.18141 0.17251 0.26809 0.0
C120 C 0.12337 0.13094 0.23885 0.0
H121 H 0.09571 0.05142 0.42939 0.0
H122 H 0.12334 0.08167 0.3833 0.0
H123 H 0.08812 0.1076 0.25058 0.0
H124 H 0.17437 0.20032 0.14048 0.0
H125 H 0.14941 0.1604 0.16366 0.0
H126 H 0.18394 0.118 0.28703 0.0
C127 C 0.10908 0.06926 0.36472 0.0
C128 C 0.10916 0.10941 0.2579 0.0
C129 C 0.09313 0.05202 0.39117 0.0
C130 C 0.17639 0.19288 0.17632 0.0
C131 C 0.16208 0.17004 0.1896 0.0
C132 C 0.16305 0.11595 0.27859 0.0
C133 C 0.10587 0.07138 0.31531 0.0
C134 C 0.12162 0.09149 0.2887 0.0
C135 C 0.16475 0.15941 0.2355 0.0
C136 C 0.1503 0.13488 0.2502 0.0
H137 H 0.05617 0.02566 0.30113 0.0
H138 H 0.08402 0.05639 0.25457 0.0
H139 H 0.15911 0.08084 0.32067 0.0
H140 H 0.20842 0.20449 0.28106 0.0
H141 H 0.18344 0.16529 0.30409 0.0
C142 C 0.08771 0.97225 0.59939 0.0
C143 C 0.08411 0.97219 0.54991 0.0
C144 C 0.10605 0.95503 0.6201 0.0
C145 C 0.14194 0.89217 0.59337 0.0
H146 H 0.18016 0.90972 0.70872 0.0
C147 C 0.2197 0.82194 0.67546 0.0
C148 C 0.21642 0.81718 0.72437 0.0
C149 C 0.20542 0.84216 0.65336 0.0
C150 C 0.16954 0.90457 0.67654 0.0
H151 H 0.09796 0.95532 0.48307 0.0
H152 H 0.13055 0.92621 0.51877 0.0
H153 H 0.15244 0.94333 0.67143 0.0
H154 H 0.19605 0.83033 0.78861 0.0
H155 H 0.1714 0.8657 0.75007 0.0
H156 H 0.15927 0.85349 0.59839 0.0
C157 C 0.1186 0.93869 0.54196 0.0
C158 C 0.15356 0.92376 0.65526 0.0
C159 C 0.10004 0.95555 0.52141 0.0
C160 C 0.19895 0.83338 0.75082 0.0
C161 C 0.18497 0.85379 0.72886 0.0
C162 C 0.15814 0.87313 0.61433 0.0
C163 C 0.12141 0.93768 0.59166 0.0
C164 C 0.13937 0.91776 0.61356 0.0
C165 C 0.18788 0.85825 0.67986 0.0
C166 C 0.17192 0.87904 0.65633 0.0
H167 H 0.07561 0.98478 0.62224 0.0
H168 H 0.10743 0.95467 0.6585 0.0
H169 H 0.1309 0.88654 0.56194 0.0
H170 H 0.23302 0.80981 0.65413 0.0
H171 H 0.20814 0.84529 0.61554 0.0
C172 C 0.44106 0.92617 0.06111 0.0
C173 C 0.45135 0.94378 0.02686 0.0
C174 C 0.41811 0.9112 0.05176 0.0
C175 C 0.35978 0.90915 0.9713 0.0
H176 H 0.35585 0.8347 0.00574 0.0
C177 C 0.29375 0.83348 0.8752 0.0
C178 C 0.28003 0.81413 0.90164 0.0
C179 C 0.31125 0.85108 0.89738 0.0
C180 C 0.35644 0.8556 0.99669 0.0
H181 H 0.44584 0.95901 0.95557 0.0
H182 H 0.40642 0.93264 0.93901 0.0
H183 H 0.39395 0.86152 0.03087 0.0
H184 H 0.27337 0.79837 0.97227 0.0
H185 H 0.30466 0.8291 0.01133 0.0
H186 H 0.32285 0.90292 0.93543 0.0
C187 C 0.4156 0.93081 0.97355 0.0
C188 C 0.37828 0.87097 0.01102 0.0
C189 C 0.4384 0.94579 0.98292 0.0
C190 C 0.28359 0.81322 0.95114 0.0
C191 C 0.30158 0.83063 0.97336 0.0
C192 C 0.33811 0.89377 0.95675 0.0
C193 C 0.40498 0.9135 0.00796 0.0
C194 C 0.38054 0.89778 0.99741 0.0
C195 C 0.31577 0.84955 0.94651 0.0
C196 C 0.33653 0.86668 0.96829 0.0
H197 H 0.45051 0.92422 0.09539 0.0
H198 H 0.4104 0.89817 0.07915 0.0
H199 H 0.3605 0.9299 0.96125 0.0
H200 H 0.29136 0.83469 0.83699 0.0
H201 H 0.32209 0.86524 0.87567 0.0
C202 C 0.33391 0.21308 0.20812 0.0
C203 C 0.30932 0.21388 0.18476 0.0
C204 C 0.35313 0.19435 0.19458 0.0
C205 C 0.3608 0.1291 0.13777 0.0
H206 H 0.43271 0.15182 0.10745 0.0
C207 C 0.44586 0.05529 0.0988 0.0
C208 C 0.46115 0.06018 0.05769 0.0
C209 C 0.42781 0.07419 0.11573 0.0
C210 C 0.41269 0.14524 0.11576 0.0
H211 H 0.28538 0.19535 0.12972 0.0
H212 H 0.31861 0.1625 0.10695 0.0
H213 H 0.40016 0.18447 0.13611 0.0
H214 H 0.46972 0.08892 0.00244 0.0
H215 H 0.43831 0.1222 0.03256 0.0
H216 H 0.37321 0.08993 0.11749 0.0
C217 C 0.32312 0.17641 0.1354 0.0
C218 C 0.39418 0.16384 0.13253 0.0
C219 C 0.30416 0.19533 0.14832 0.0
C220 C 0.45816 0.08453 0.03409 0.0
C221 C 0.44034 0.10363 0.05148 0.0
C222 C 0.37938 0.11047 0.12171 0.0
C223 C 0.34785 0.17582 0.15815 0.0
C224 C 0.36799 0.15597 0.14323 0.0
C225 C 0.4249 0.09856 0.09232 0.0
C226 C 0.40544 0.11839 0.11017 0.0
H227 H 0.33847 0.22717 0.23623 0.0
H228 H 0.37202 0.19419 0.21282 0.0
H229 H 0.34077 0.12249 0.14596 0.0
H230 H 0.44766 0.03672 0.11781 0.0
H231 H 0.41629 0.06984 0.14747 0.0
C232 C 0.96985 0.94401 0.55538 0.0
C233 C 0.97237 0.94485 0.50556 0.0
C234 C 0.95212 0.92639 0.57715 0.0
C235 C 0.91136 0.86566 0.55441 0.0
H236 H 0.87327 0.88943 0.66734 0.0
C237 C 0.81728 0.81364 0.62514 0.0
C238 C 0.8155 0.80847 0.6742 0.0
C239 C 0.83784 0.82922 0.60676 0.0
C240 C 0.88402 0.88241 0.6362 0.0
H241 H 0.95824 0.92771 0.43948 0.0
H242 H 0.92653 0.89743 0.47735 0.0
H243 H 0.90576 0.91883 0.62978 0.0
H244 H 0.83396 0.8158 0.74248 0.0
H245 H 0.86989 0.8438 0.71014 0.0
H246 H 0.88875 0.8296 0.5601 0.0
C247 C 0.93876 0.91 0.49976 0.0
C248 C 0.9027 0.89922 0.61461 0.0
C249 C 0.95682 0.92747 0.47794 0.0
C250 C 0.83479 0.81944 0.70457 0.0
C251 C 0.85527 0.83547 0.68611 0.0
C252 C 0.89246 0.84901 0.57569 0.0
C253 C 0.9361 0.9093 0.54972 0.0
C254 C 0.91654 0.89114 0.57323 0.0
C255 C 0.85705 0.84034 0.63693 0.0
C256 C 0.87846 0.85728 0.6166 0.0
H257 H 0.98177 0.9569 0.57781 0.0
H258 H 0.95115 0.92607 0.61563 0.0
H259 H 0.92197 0.85848 0.52328 0.0
H260 H 0.80286 0.80542 0.60061 0.0
H261 H 0.83851 0.83288 0.56883 0.0
C262 C 0.95989 0.08232 0.48663 0.0
C263 C 0.97202 0.06469 0.4543 0.0
C264 C 0.94113 0.10074 0.47084 0.0
C265 C 0.89687 0.11407 0.36788 0.0
H266 H 0.89183 0.18429 0.42483 0.0
C267 C 0.83045 0.19734 0.29188 0.0
C268 C 0.81355 0.20943 0.32553 0.0
C269 C 0.85085 0.1805 0.30669 0.0
C270 C 0.89303 0.16471 0.40868 0.0
H271 H 0.97473 0.05316 0.37987 0.0
H272 H 0.94301 0.08557 0.35235 0.0
H273 H 0.9253 0.15328 0.45318 0.0
H274 H 0.80525 0.21401 0.40105 0.0
H275 H 0.84097 0.18505 0.42664 0.0
H276 H 0.86484 0.12578 0.32291 0.0
C277 C 0.94707 0.08474 0.39008 0.0
C278 C 0.91206 0.14686 0.42511 0.0
C279 C 0.96544 0.06619 0.40589 0.0
C280 C 0.81782 0.20485 0.37418 0.0
C281 C 0.8384 0.18843 0.38893 0.0
C282 C 0.8781 0.13203 0.35108 0.0
C283 C 0.9344 0.10208 0.42231 0.0
C284 C 0.91417 0.12124 0.40505 0.0
C285 C 0.85497 0.1759 0.35539 0.0
C286 C 0.8759 0.15746 0.37148 0.0
H287 H 0.96455 0.0816 0.52415 0.0
H288 H 0.93157 0.11357 0.49681 0.0
H289 H 0.89745 0.09436 0.35217 0.0
H290 H 0.82763 0.20051 0.25418 0.0
H291 H 0.86347 0.17114 0.28013 0.0
C292 C 0.69432 0.18818 0.2431 0.0
C293 C 0.69452 0.19468 0.29181 0.0
C294 C 0.67958 0.16661 0.2263 0.0
C295 C 0.62394 0.12124 0.25606 0.0
H296 H 0.65383 0.08032 0.15126 0.0
C297 C 0.57033 0.03012 0.1708 0.0
C298 C 0.56833 0.03136 0.12097 0.0
C299 C 0.58707 0.04768 0.19544 0.0
C300 C 0.64522 0.09157 0.1805 0.0
H301 H 0.67896 0.18372 0.36108 0.0
H302 H 0.65331 0.1455 0.33167 0.0
H303 H 0.68017 0.11541 0.18833 0.0
H304 H 0.58303 0.05136 0.05787 0.0
H305 H 0.61254 0.08156 0.10071 0.0
H306 H 0.58893 0.09715 0.24788 0.0
C307 C 0.66446 0.1574 0.30644 0.0
C308 C 0.66024 0.11178 0.20166 0.0
C309 C 0.67919 0.17924 0.32334 0.0
C310 C 0.5841 0.04988 0.09624 0.0
C311 C 0.60109 0.06712 0.12076 0.0
C312 C 0.60897 0.10078 0.2351 0.0
C313 C 0.66472 0.15067 0.2577 0.0
C314 C 0.64957 0.12735 0.2389 0.0
C315 C 0.60247 0.06649 0.17066 0.0
C316 C 0.61926 0.08615 0.19639 0.0
H317 H 0.70561 0.1998 0.21763 0.0
H318 H 0.67971 0.16257 0.18841 0.0
H319 H 0.61501 0.1329 0.28441 0.0
H320 H 0.55833 0.01616 0.19091 0.0
H321 H 0.58788 0.04665 0.23388 0.0
C322 C 0.57705 0.94318 0.9549 0.0
C323 C 0.56062 0.96225 0.93387 0.0
C324 C 0.59379 0.9273 0.92687 0.0
C325 C 0.60224 0.89901 0.80753 0.0
H326 H 0.67532 0.88949 0.84637 0.0
C327 C 0.67724 0.83266 0.7011 0.0
C328 C 0.69485 0.8176 0.72851 0.0
C329 C 0.66098 0.85198 0.72276 0.0
C330 C 0.65489 0.89163 0.83521 0.0
H331 H 0.54872 0.97941 0.86674 0.0
H332 H 0.57773 0.95126 0.8177 0.0
H333 H 0.6467 0.91968 0.89101 0.0
H334 H 0.70854 0.81053 0.8004 0.0
H335 H 0.68006 0.84323 0.83777 0.0
H336 H 0.61017 0.87024 0.75264 0.0
C337 C 0.57769 0.94878 0.85595 0.0
C338 C 0.63854 0.90905 0.86077 0.0
C339 C 0.56122 0.96498 0.88407 0.0
C340 C 0.69551 0.82197 0.77794 0.0
C341 C 0.67923 0.84097 0.79948 0.0
C342 C 0.61857 0.88127 0.78218 0.0
C343 C 0.59423 0.92985 0.8771 0.0
C344 C 0.61193 0.91265 0.84769 0.0
C345 C 0.66193 0.85649 0.77228 0.0
C346 C 0.645 0.87699 0.79624 0.0
H347 H 0.57708 0.94056 0.99311 0.0
H348 H 0.60613 0.91271 0.94415 0.0
H349 H 0.58176 0.90132 0.79674 0.0
H350 H 0.67626 0.82979 0.66293 0.0
H351 H 0.64799 0.86364 0.70062 0.0
C352 C 0.59294 0.55091 0.93905 0.0
C353 C 0.57665 0.53759 0.9061 0.0
C354 C 0.61242 0.56881 0.92379 0.0
C355 C 0.64975 0.59222 0.81688 0.0
H356 H 0.65724 0.65683 0.89196 0.0
C357 C 0.69846 0.68768 0.74459 0.0
C358 C 0.71618 0.70172 0.77411 0.0
C359 C 0.68378 0.66622 0.76203 0.0
C360 C 0.65565 0.63875 0.87099 0.0
H361 H 0.56853 0.53206 0.83112 0.0
H362 H 0.60214 0.56395 0.80427 0.0
H363 H 0.6272 0.62185 0.91888 0.0
H364 H 0.73237 0.70414 0.84526 0.0
H365 H 0.70619 0.66667 0.87615 0.0
H366 H 0.67759 0.60976 0.76815 0.0
C367 C 0.60021 0.56017 0.84201 0.0
C368 C 0.63846 0.61861 0.88641 0.0
C369 C 0.58086 0.54194 0.85733 0.0
C370 C 0.71887 0.69375 0.82166 0.0
C371 C 0.70385 0.67238 0.83934 0.0
C372 C 0.66676 0.6125 0.80125 0.0
C373 C 0.61594 0.57419 0.87515 0.0
C374 C 0.63513 0.59513 0.85942 0.0
C375 C 0.68622 0.65836 0.80958 0.0
C376 C 0.66971 0.63606 0.82794 0.0
H377 H 0.59043 0.54774 0.97691 0.0
H378 H 0.62457 0.57864 0.95031 0.0
H379 H 0.6481 0.57428 0.79559 0.0
H380 H 0.69595 0.69316 0.7077 0.0
H381 H 0.67012 0.65605 0.7384 0.0
C382 C 0.71022 0.31517 0.1811 0.0
C383 C 0.70852 0.30971 0.23 0.0
C384 C 0.69332 0.33385 0.16058 0.0
C385 C 0.6518 0.39197 0.18853 0.0
H386 H 0.61425 0.37256 0.07343 0.0
C387 C 0.56728 0.45673 0.11256 0.0
C388 C 0.5652 0.45824 0.06285 0.0
C389 C 0.58519 0.43907 0.13333 0.0
C390 C 0.62486 0.37854 0.10516 0.0
H391 H 0.68808 0.31997 0.29583 0.0
H392 H 0.65887 0.35266 0.26006 0.0
H393 H 0.64546 0.34141 0.108 0.0
H394 H 0.58081 0.44295 0.99595 0.0
H395 H 0.61238 0.41295 0.03187 0.0
H396 H 0.63158 0.42926 0.18544 0.0
C397 C 0.67322 0.34249 0.23763 0.0
C398 C 0.64271 0.36061 0.12499 0.0
C399 C 0.68986 0.32362 0.25801 0.0
C400 C 0.58167 0.44207 0.0344 0.0
C401 C 0.59971 0.4247 0.05506 0.0
C402 C 0.63415 0.41005 0.16842 0.0
C403 C 0.67465 0.34768 0.18867 0.0
C404 C 0.6563 0.36709 0.16695 0.0
C405 C 0.60157 0.42274 0.10479 0.0
C406 C 0.62039 0.40356 0.12648 0.0
H407 H 0.72439 0.3048 0.15857 0.0
H408 H 0.69497 0.33761 0.12278 0.0
H409 H 0.66221 0.39759 0.22069 0.0
H410 H 0.5548 0.46887 0.13544 0.0
H411 H 0.58581 0.4379 0.17174 0.0
C412 C 0.78207 0.31154 0.45131 0.0
C413 C 0.77849 0.31166 0.40178 0.0
C414 C 0.79947 0.32983 0.47281 0.0
C415 C 0.83472 0.39362 0.45197 0.0
H416 H 0.88975 0.36487 0.53241 0.0
C417 C 0.93397 0.44758 0.47698 0.0
C418 C 0.94527 0.44857 0.52253 0.0
C419 C 0.91185 0.43154 0.46796 0.0
C420 C 0.8743 0.37332 0.51064 0.0
H421 H 0.78919 0.33176 0.3363 0.0
H422 H 0.81902 0.36359 0.37355 0.0
H423 H 0.85251 0.33657 0.50804 0.0
H424 H 0.94243 0.43296 0.59415 0.0
H425 H 0.90365 0.40481 0.57825 0.0
H426 H 0.85666 0.43012 0.4535 0.0
C427 C 0.80859 0.34947 0.39596 0.0
C428 C 0.85294 0.35713 0.4968 0.0
C429 C 0.7916 0.33109 0.37455 0.0
C430 C 0.93423 0.43263 0.55865 0.0
C431 C 0.91204 0.41648 0.54954 0.0
C432 C 0.85598 0.40976 0.4658 0.0
C433 C 0.81313 0.3488 0.44516 0.0
C434 C 0.83332 0.36692 0.46622 0.0
C435 C 0.90039 0.41605 0.50421 0.0
C436 C 0.87641 0.3996 0.49418 0.0
H437 H 0.77232 0.29668 0.47311 0.0
H438 H 0.80251 0.32895 0.51086 0.0
H439 H 0.81967 0.40186 0.42907 0.0
H440 H 0.942 0.45947 0.44822 0.0
H441 H 0.90374 0.43124 0.43237 0.0
C442 C 0.7873 0.68366 0.6286 0.0
C443 C 0.77873 0.70555 0.60218 0.0
C444 C 0.80393 0.66463 0.6082 0.0
C445 C 0.85629 0.65813 0.51971 0.0
H446 H 0.85085 0.58352 0.55259 0.0
C447 C 0.9392 0.58079 0.47624 0.0
C448 C 0.94541 0.56355 0.51376 0.0
C449 C 0.91692 0.59736 0.47922 0.0
C450 C 0.8527 0.6043 0.54317 0.0
H451 H 0.78009 0.72438 0.53318 0.0
H452 H 0.80985 0.69095 0.49716 0.0
H453 H 0.81365 0.61311 0.56928 0.0
H454 H 0.93314 0.55049 0.58402 0.0
H455 H 0.89463 0.57936 0.58929 0.0
H456 H 0.89578 0.64942 0.49516 0.0
C457 C 0.80342 0.68857 0.53375 0.0
C458 C 0.83134 0.62121 0.55252 0.0
C459 C 0.78628 0.70753 0.55413 0.0
C460 C 0.92897 0.56343 0.55439 0.0
C461 C 0.90671 0.57984 0.55725 0.0
C462 C 0.87773 0.64115 0.51032 0.0
C463 C 0.81273 0.66715 0.56093 0.0
C464 C 0.8332 0.64848 0.54234 0.0
C465 C 0.90028 0.59687 0.51962 0.0
C466 C 0.87647 0.61422 0.5234 0.0
H467 H 0.78175 0.68165 0.66574 0.0
H468 H 0.81095 0.64861 0.63034 0.0
H469 H 0.85841 0.67909 0.51182 0.0
H470 H 0.95143 0.58135 0.44438 0.0
H471 H 0.91246 0.61021 0.4496 0.0
C472 C 0.44375 0.43072 0.93752 0.0
C473 C 0.45468 0.44675 0.97371 0.0
C474 C 0.42066 0.41561 0.94617 0.0
C475 C 0.36309 0.41245 0.02937 0.0
H476 H 0.35791 0.33822 0.99235 0.0
C477 C 0.29756 0.33781 0.12861 0.0
C478 C 0.28279 0.31894 0.10276 0.0
C479 C 0.31536 0.35479 0.10553 0.0
C480 C 0.35886 0.35907 1.00217 0.0
H481 H 0.45022 0.45882 0.0477 0.0
H482 H 0.4107 0.43258 0.06259 0.0
H483 H 0.39583 0.36496 0.96501 0.0
H484 H 0.27485 0.30331 0.03221 0.0
H485 H 0.30655 0.33295 0.99166 0.0
H486 H 0.32681 0.40637 0.06807 0.0
C487 C 0.41943 0.43201 0.02726 0.0
C488 C 0.38057 0.37437 0.98653 0.0
C489 C 0.44231 0.44695 0.01873 0.0
C490 C 0.28584 0.31778 0.05301 0.0
C491 C 0.30408 0.33457 0.02987 0.0
C492 C 0.34159 0.39718 0.04513 0.0
C493 C 0.40807 0.41641 0.99106 0.0
C494 C 0.38333 0.40103 1.00126 0.0
C495 C 0.31913 0.35315 0.05603 0.0
C496 C 0.33963 0.37014 0.03289 0.0
H497 H 0.45279 0.43011 0.90246 0.0
H498 H 0.4124 0.40374 0.91755 0.0
H499 H 0.36425 0.43311 0.04036 0.0
H500 H 0.29566 0.33921 0.16696 0.0
H501 H 0.32687 0.36868 0.12674 0.0
C502 C 0.32872 0.69845 0.79952 0.0
C503 C 0.30916 0.70866 0.83043 0.0
C504 C 0.34838 0.68143 0.8166 0.0
C505 C 0.36386 0.63777 0.91911 0.0
H506 H 0.43587 0.64283 0.86986 0.0
C507 C 0.4514 0.5787 0.99887 0.0
C508 C 0.46675 0.56472 0.96516 0.0
C509 C 0.43299 0.59772 0.9841 0.0
C510 C 0.41581 0.64118 0.88386 0.0
H511 H 0.29513 0.70923 0.90366 0.0
H512 H 0.32955 0.6803 0.93341 0.0
H513 H 0.40181 0.67263 0.83987 0.0
H514 H 0.47555 0.56039 0.88979 0.0
H515 H 0.4438 0.59361 0.86434 0.0
H516 H 0.37804 0.60644 0.96338 0.0
C517 C 0.32944 0.68478 0.89579 0.0
C518 C 0.39625 0.65812 0.86647 0.0
C519 C 0.30973 0.70153 0.87869 0.0
C520 C 0.46393 0.57071 0.91667 0.0
C521 C 0.44586 0.58988 0.90204 0.0
C522 C 0.38349 0.62102 0.93679 0.0
C523 C 0.34902 0.67444 0.86503 0.0
C524 C 0.36996 0.65653 0.88365 0.0
C525 C 0.42996 0.60336 0.93548 0.0
C526 C 0.40961 0.62241 0.91909 0.0
H527 H 0.32879 0.70351 0.76213 0.0
H528 H 0.36291 0.67354 0.79172 0.0
H529 H 0.34377 0.63563 0.93264 0.0
H530 H 0.45313 0.57449 0.03645 0.0
H531 H 0.42107 0.60797 0.01064 0.0
C532 C 0.17137 0.691 0.81655 0.0
C533 C 0.18916 0.70437 0.78609 0.0
C534 C 0.15457 0.67097 0.79875 0.0
C535 C 0.14729 0.62561 0.69415 0.0
H536 H 0.0743 0.61861 0.73757 0.0
C537 C 0.06861 0.56609 0.58987 0.0
C538 C 0.05175 0.54906 0.61574 0.0
C539 C 0.08568 0.58372 0.6134 0.0
C540 C 0.09473 0.62016 0.72548 0.0
H541 H 0.20258 0.70773 0.7128 0.0
H542 H 0.17311 0.67368 0.6819 0.0
H543 H 0.10326 0.65209 0.77398 0.0
H544 H 0.03953 0.5373 0.68675 0.0
H545 H 0.06921 0.56839 0.72785 0.0
H546 H 0.13854 0.59421 0.6448 0.0
C547 C 0.17256 0.67791 0.71972 0.0
C548 C 0.11137 0.63929 0.74641 0.0
C549 C 0.18939 0.69765 0.73747 0.0
C550 C 0.05233 0.5501 0.66576 0.0
C551 C 0.06919 0.568 0.68932 0.0
C552 C 0.13063 0.60672 0.673 0.0
C553 C 0.15513 0.66403 0.75009 0.0
C554 C 0.13777 0.64253 0.73049 0.0
C555 C 0.08609 0.58494 0.66336 0.0
C556 C 0.10409 0.604 0.68798 0.0
H557 H 0.17074 0.69568 0.8542 0.0
H558 H 0.14152 0.66061 0.82325 0.0
H559 H 0.16767 0.62699 0.68177 0.0
H560 H 0.06867 0.56582 0.55133 0.0
H561 H 0.09828 0.59672 0.59242 0.0
C562 C 0.19065 0.33557 0.25268 0.0
C563 C 0.20877 0.32061 0.27923 0.0
C564 C 0.17397 0.35404 0.27511 0.0
C565 C 0.14181 0.36947 0.38902 0.0
H566 H 0.13307 0.43984 0.33604 0.0
C567 C 0.0753 0.44864 0.48102 0.0
C568 C 0.06054 0.46548 0.45162 0.0
C569 C 0.09469 0.43177 0.4616 0.0
C570 C 0.13494 0.42017 0.35103 0.0
H571 H 0.22351 0.31333 0.35026 0.0
H572 H 0.19398 0.34536 0.38951 0.0
H573 H 0.16415 0.40885 0.29892 0.0
H574 H 0.05447 0.47761 0.37863 0.0
H575 H 0.08748 0.44775 0.3447 0.0
H576 H 0.11204 0.3803 0.44019 0.0
C577 C 0.19283 0.3428 0.35129 0.0
C578 C 0.15289 0.40246 0.32981 0.0
C579 C 0.20982 0.32458 0.32876 0.0
C580 C 0.06562 0.46506 0.40239 0.0
C581 C 0.08475 0.448 0.38293 0.0
C582 C 0.12359 0.38706 0.40994 0.0
C583 C 0.17474 0.35774 0.32467 0.0
C584 C 0.15642 0.37687 0.3484 0.0
C585 C 0.0996 0.43109 0.4122 0.0
C586 C 0.11976 0.41263 0.39106 0.0
H587 H 0.18935 0.33304 0.21448 0.0
H588 H 0.16007 0.3651 0.25371 0.0
H589 H 0.14391 0.34977 0.40386 0.0
H590 H 0.072 0.44858 0.51913 0.0
H591 H 0.10596 0.41941 0.48546 0.0
loop_
_geom_bond_atom_site_label_1
_geom_bond_atom_site_label_2
_geom_bond_distance
_geom_bond_site_symmetry_2
_ccdc_geom_bond_type
C0 O2 1.247 . S
C0 O4 1.258 . S
C1 O8 1.247 . S
C1 O9 1.258 . S
O2 C0 1.247 . S
O2 Zn3 2.030 1_655 S
Zn3 O2 2.030 1_455 S
Zn3 O7 2.037 1_465 S
Zn3 O9 2.033 1_565 S
Zn3 O10 2.026 . S
O4 C0 1.258 . S
O4 Zn5 2.033 1_665 S
Zn5 O4 2.033 1_445 S
Zn5 O6 2.026 1_455 S
Zn5 O8 2.030 . S
Zn5 O11 2.037 1_545 S
O6 Zn5 2.026 1_655 S
O6 C12 1.247 . S
O7 Zn3 2.037 1_645 S
O7 C12 1.258 . S
O8 C1 1.247 . S
O8 Zn5 2.030 . S
O9 C1 1.258 . S
O9 Zn3 2.033 1_545 S
O10 Zn3 2.026 . S
O10 C13 1.247 . S
O11 Zn5 2.037 1_565 S
O11 C13 1.258 . S
C12 O6 1.247 . S
C12 O7 1.258 . S
C13 O10 1.247 . S
C13 O11 1.258 . S
C14 O16 1.247 . S
C14 O18 1.258 . S
C15 O22 1.247 . S
C15 O23 1.258 . S
O16 C14 1.247 . S
O16 Zn17 2.028 . S
Zn17 O16 2.028 . S
Zn17 O21 2.035 . S
Zn17 O23 2.035 . S
Zn17 O24 2.028 . S
O18 C14 1.258 . S
O18 Zn19 2.035 . S
Zn19 O18 2.035 . S
Zn19 O20 2.028 . S
Zn19 O22 2.028 . S
Zn19 O25 2.035 . S
O20 Zn19 2.028 . S
O20 C26 1.247 . S
O21 Zn17 2.035 . S
O21 C26 1.258 . S
O22 C15 1.247 . S
O22 Zn19 2.028 . S
O23 C15 1.258 . S
O23 Zn17 2.035 . S
O24 Zn17 2.028 . S
O24 C27 1.247 . S
O25 Zn19 2.035 . S
O25 C27 1.258 . S
C26 O20 1.247 . S
C26 O21 1.258 . S
C27 O24 1.247 . S
C27 O25 1.258 . S
C28 O30 1.247 . S
C28 O32 1.258 1_556 S
C29 O36 1.247 . S
C29 O37 1.258 1_554 S
O30 C28 1.247 . S
O30 Zn31 2.028 1_565 S
Zn31 O30 2.028 1_545 S
Zn31 O35 2.035 . S
Zn31 O37 2.035 . S
Zn31 O38 2.028 1_545 S
O32 C28 1.258 1_554 S
O32 Zn33 2.035 . S
Zn33 O32 2.035 . S
Zn33 O34 2.028 1_565 S
Zn33 O36 2.028 1_565 S
Zn33 O39 2.035 . S
O34 Zn33 2.028 1_545 S
O34 C40 1.247 . S
O35 Zn31 2.035 . S
O35 C40 1.258 1_556 S
O36 C29 1.247 . S
O36 Zn33 2.028 1_545 S
O37 C29 1.258 1_556 S
O37 Zn31 2.035 . S
O38 Zn31 2.028 1_565 S
O38 C41 1.247 . S
O39 Zn33 2.035 . S
O39 C41 1.258 1_554 S
C40 O34 1.247 . S
C40 O35 1.258 1_554 S
C41 O38 1.247 . S
C41 O39 1.258 1_556 S
C42 O44 1.247 . S
C42 O46 1.258 . S
C43 O50 1.247 . S
C43 O51 1.258 . S
O44 C42 1.247 . S
O44 Zn45 2.028 . S
Zn45 O44 2.028 . S
Zn45 O49 2.035 . S
Zn45 O51 2.035 . S
Zn45 O52 2.028 . S
O46 C42 1.258 . S
O46 Zn47 2.035 . S
Zn47 O46 2.035 . S
Zn47 O48 2.028 . S
Zn47 O50 2.028 . S
Zn47 O53 2.035 . S
O48 Zn47 2.028 . S
O48 C54 1.247 . S
O49 Zn45 2.035 . S
O49 C54 1.258 . S
O50 C43 1.247 . S
O50 Zn47 2.028 . S
O51 C43 1.258 . S
O51 Zn45 2.035 . S
O52 Zn45 2.028 . S
O52 C55 1.247 . S
O53 Zn47 2.035 . S
O53 C55 1.258 . S
C54 O48 1.247 . S
C54 O49 1.258 . S
C55 O52 1.247 . S
C55 O53 1.258 . S
C56 O58 1.247 . S
C56 O60 1.258 . S
C57 O64 1.247 . S
C57 O65 1.258 . S
O58 C56 1.247 . S
O58 Zn59 2.028 . S
Zn59 O58 2.028 . S
Zn59 O63 2.035 . S
Zn59 O65 2.035 . S
Zn59 O66 2.028 . S
O60 C56 1.258 . S
O60 Zn61 2.035 . S
Zn61 O60 2.035 . S
Zn61 O62 2.028 . S
Zn61 O64 2.028 . S
Zn61 O67 2.035 . S
O62 Zn61 2.028 . S
O62 C68 1.247 . S
O63 Zn59 2.035 . S
O63 C68 1.258 . S
O64 C57 1.247 . S
O64 Zn61 2.028 . S
O65 C57 1.258 . S
O65 Zn59 2.035 . S
O66 Zn59 2.028 . S
O66 C69 1.247 . S
O67 Zn61 2.035 . S
O67 C69 1.258 . S
C68 O62 1.247 . S
C68 O63 1.258 . S
C69 O66 1.247 . S
C69 O67 1.258 . S
C70 O72 1.247 . S
C70 O74 1.258 . S
C71 O78 1.247 . S
C71 O79 1.258 . S
O72 C70 1.247 . S
O72 Zn73 2.028 . S
Zn73 O72 2.028 . S
Zn73 O77 2.035 . S
Zn73 O79 2.035 . S
Zn73 O80 2.028 . S
O74 C70 1.258 . S
O74 Zn75 2.035 . S
Zn75 O74 2.035 . S
Zn75 O76 2.028 . S
Zn75 O78 2.028 . S
Zn75 O81 2.035 . S
O76 Zn75 2.028 . S
O76 C82 1.247 . S
O77 Zn73 2.035 . S
O77 C82 1.258 . S
O78 C71 1.247 . S
O78 Zn75 2.028 . S
O79 C71 1.258 . S
O79 Zn73 2.035 . S
O80 Zn73 2.028 . S
O80 C83 1.247 . S
O81 Zn75 2.035 . S
O81 C83 1.258 . S
C82 O76 1.247 . S
C82 O77 1.258 . S
C83 O80 1.247 . S
C83 O81 1.258 . S
C84 O86 1.247 1_556 S
C84 O88 1.258 . S
C85 O92 1.247 1_554 S
C85 O93 1.258 . S
O86 C84 1.247 1_554 S
O86 Zn87 2.028 . S
Zn87 O86 2.028 . S
Zn87 O91 2.035 . S
Zn87 O93 2.035 . S
Zn87 O94 2.028 . S
O88 C84 1.258 . S
O88 Zn89 2.035 . S
Zn89 O88 2.035 . S
Zn89 O90 2.028 . S
Zn89 O92 2.028 . S
Zn89 O95 2.035 . S
O90 Zn89 2.028 . S
O90 C96 1.247 1_556 S
O91 Zn87 2.035 . S
O91 C96 1.258 . S
O92 C85 1.247 1_556 S
O92 Zn89 2.028 . S
O93 C85 1.258 . S
O93 Zn87 2.035 . S
O94 Zn87 2.028 . S
O94 C97 1.247 1_554 S
O95 Zn89 2.035 . S
O95 C97 1.258 . S
C96 O90 1.247 1_554 S
C96 O91 1.258 . S
C97 O94 1.247 1_556 S
C97 O95 1.258 . S
C98 O100 1.247 . S
C98 O102 1.258 . S
C99 O106 1.247 . S
C99 O107 1.258 . S
O100 C98 1.247 . S
O100 Zn101 2.030 1_655 S
Zn101 O100 2.030 1_455 S
Zn101 O105 2.037 1_455 S
Zn101 O107 2.033 . S
Zn101 O108 2.026 . S
O102 C98 1.258 . S
O102 Zn103 2.033 1_655 S
Zn103 O102 2.033 1_455 S
Zn103 O104 2.026 1_455 S
Zn103 O106 2.030 . S
Zn103 O109 2.037 . S
O104 Zn103 2.026 1_655 S
O104 C110 1.247 . S
O105 Zn101 2.037 1_655 S
O105 C110 1.258 . S
O106 C99 1.247 . S
O106 Zn103 2.030 . S
O107 C99 1.258 . S
O107 Zn101 2.033 . S
O108 Zn101 2.026 . S
O108 C111 1.247 . S
O109 Zn103 2.037 . S
O109 C111 1.258 . S
C110 O104 1.247 . S
C110 O105 1.258 . S
C111 O108 1.247 . S
C111 O109 1.258 . S
C112 C113 1.349 . S
C112 C114 1.327 . S
C112 H137 0.950 . S
C113 C112 1.349 . S
C113 C129 1.349 . S
C114 C112 1.327 . S
C114 C133 1.429 . S
C114 H138 0.950 . S
C115 C132 1.574 . S
C115 C134 1.368 . S
C115 H139 0.949 . S
H116 C120 0.949 . S
C117 C118 1.349 . S
C117 C119 1.327 . S
C117 H140 0.950 . S
C118 C117 1.349 . S
C118 C130 1.349 . S
C119 C117 1.327 . S
C119 C135 1.429 . S
C119 H141 0.950 . S
C120 H116 0.949 . S
C120 C128 1.574 . S
C120 C136 1.368 . S
H121 C129 0.950 . S
H122 C127 0.950 . S
H123 C128 0.949 . S
H124 C130 0.950 . S
H125 C131 0.950 . S
H126 C132 0.949 . S
C127 H122 0.950 . S
C127 C129 1.327 . S
C127 C133 1.429 . S
C128 C120 1.574 . S
C128 H123 0.949 . S
C128 C134 1.368 . S
C129 C113 1.349 . S
C129 H121 0.950 . S
C129 C127 1.327 . S
C130 C118 1.349 . S
C130 H124 0.950 . S
C130 C131 1.327 . S
C131 H125 0.950 . S
C131 C130 1.327 . S
C131 C135 1.429 . S
C132 C115 1.574 . S
C132 H126 0.949 . S
C132 C136 1.368 . S
C133 C114 1.429 . S
C133 C127 1.429 . S
C133 C134 1.523 . S
C134 C115 1.368 . S
C134 C128 1.368 . S
C134 C133 1.523 . S
C135 C119 1.429 . S
C135 C131 1.429 . S
C135 C136 1.523 . S
C136 C120 1.368 . S
C136 C132 1.368 . S
C136 C135 1.523 . S
H137 C112 0.950 . S
H138 C114 0.950 . S
H139 C115 0.949 . S
H140 C117 0.950 . S
H141 C119 0.950 . S
C142 C143 1.349 . S
C142 C144 1.327 . S
C142 H167 0.950 . S
C143 C142 1.349 . S
C143 C159 1.349 . S
C144 C142 1.327 . S
C144 C163 1.429 . S
C144 H168 0.950 . S
C145 C162 1.574 . S
C145 C164 1.368 . S
C145 H169 0.949 . S
H146 C150 0.949 . S
C147 C148 1.349 . S
C147 C149 1.327 . S
C147 H170 0.950 . S
C148 C147 1.349 . S
C148 C160 1.349 . S
C149 C147 1.327 . S
C149 C165 1.429 . S
C149 H171 0.950 . S
C150 H146 0.949 . S
C150 C158 1.574 . S
C150 C166 1.368 . S
H151 C159 0.950 . S
H152 C157 0.950 . S
H153 C158 0.949 . S
H154 C160 0.950 . S
H155 C161 0.950 . S
H156 C162 0.949 . S
C157 H152 0.950 . S
C157 C159 1.327 . S
C157 C163 1.429 . S
C158 C150 1.574 . S
C158 H153 0.949 . S
C158 C164 1.368 . S
C159 C143 1.349 . S
C159 H151 0.950 . S
C159 C157 1.327 . S
C160 C148 1.349 . S
C160 H154 0.950 . S
C160 C161 1.327 . S
C161 H155 0.950 . S
C161 C160 1.327 . S
C161 C165 1.429 . S
C162 C145 1.574 . S
C162 H156 0.949 . S
C162 C166 1.368 . S
C163 C144 1.429 . S
C163 C157 1.429 . S
C163 C164 1.523 . S
C164 C145 1.368 . S
C164 C158 1.368 . S
C164 C163 1.523 . S
C165 C149 1.429 . S
C165 C161 1.429 . S
C165 C166 1.523 . S
C166 C150 1.368 . S
C166 C162 1.368 . S
C166 C165 1.523 . S
H167 C142 0.950 . S
H168 C144 0.950 . S
H169 C145 0.949 . S
H170 C147 0.950 . S
H171 C149 0.950 . S
C172 C173 1.349 . S
C172 C174 1.327 . S
C172 H197 0.950 1_556 S
C173 C172 1.349 . S
C173 C189 1.349 . S
C174 C172 1.327 . S
C174 C193 1.429 . S
C174 H198 0.950 . S
C175 C192 1.574 . S
C175 C194 1.368 . S
C175 H199 0.949 . S
H176 C180 0.949 . S
C177 C178 1.349 . S
C177 C179 1.327 . S
C177 H200 0.950 . S
C178 C177 1.349 . S
C178 C190 1.349 . S
C179 C177 1.327 . S
C179 C195 1.429 . S
C179 H201 0.950 . S
C180 H176 0.949 . S
C180 C188 1.574 . S
C180 C196 1.368 . S
H181 C189 0.950 . S
H182 C187 0.950 . S
H183 C188 0.949 . S
H184 C190 0.950 . S
H185 C191 0.950 . S
H186 C192 0.949 . S
C187 H182 0.950 . S
C187 C189 1.327 . S
C187 C193 1.429 . S
C188 C180 1.574 . S
C188 H183 0.949 . S
C188 C194 1.368 . S
C189 C173 1.349 . S
C189 H181 0.950 . S
C189 C187 1.327 . S
C190 C178 1.349 . S
C190 H184 0.950 . S
C190 C191 1.327 . S
C191 H185 0.950 . S
C191 C190 1.327 . S
C191 C195 1.429 . S
C192 C175 1.574 . S
C192 H186 0.949 . S
C192 C196 1.368 . S
C193 C174 1.429 . S
C193 C187 1.429 . S
C193 C194 1.523 . S
C194 C175 1.368 . S
C194 C188 1.368 . S
C194 C193 1.523 . S
C195 C179 1.429 . S
C195 C191 1.429 . S
C195 C196 1.523 . S
C196 C180 1.368 . S
C196 C192 1.368 . S
C196 C195 1.523 . S
H197 C172 0.950 1_554 S
H198 C174 0.950 . S
H199 C175 0.949 . S
H200 C177 0.950 . S
H201 C179 0.950 . S
C202 C203 1.349 . S
C202 C204 1.327 . S
C202 H227 0.950 . S
C203 C202 1.349 . S
C203 C219 1.349 . S
C204 C202 1.327 . S
C204 C223 1.429 . S
C204 H228 0.950 . S
C205 C222 1.574 . S
C205 C224 1.368 . S
C205 H229 0.949 . S
H206 C210 0.949 . S
C207 C208 1.349 . S
C207 C209 1.327 . S
C207 H230 0.950 . S
C208 C207 1.349 . S
C208 C220 1.349 . S
C209 C207 1.327 . S
C209 C225 1.429 . S
C209 H231 0.950 . S
C210 H206 0.949 . S
C210 C218 1.574 . S
C210 C226 1.368 . S
H211 C219 0.950 . S
H212 C217 0.950 . S
H213 C218 0.949 . S
H214 C220 0.950 . S
H215 C221 0.950 . S
H216 C222 0.949 . S
C217 H212 0.950 . S
C217 C219 1.327 . S
C217 C223 1.429 . S
C218 C210 1.574 . S
C218 H213 0.949 . S
C218 C224 1.368 . S
C219 C203 1.349 . S
C219 H211 0.950 . S
C219 C217 1.327 . S
C220 C208 1.349 . S
C220 H214 0.950 . S
C220 C221 1.327 . S
C221 H215 0.950 . S
C221 C220 1.327 . S
C221 C225 1.429 . S
C222 C205 1.574 . S
C222 H216 0.949 . S
C222 C226 1.368 . S
C223 C204 1.429 . S
C223 C217 1.429 . S
C223 C224 1.523 . S
C224 C205 1.368 . S
C224 C218 1.368 . S
C224 C223 1.523 . S
C225 C209 1.429 . S
C225 C221 1.429 . S
C225 C226 1.523 . S
C226 C210 1.368 . S
C226 C222 1.368 . S
C226 C225 1.523 . S
H227 C202 0.950 . S
H228 C204 0.950 . S
H229 C205 0.949 . S
H230 C207 0.950 . S
H231 C209 0.950 . S
C232 C233 1.349 . S
C232 C234 1.327 . S
C232 H257 0.950 . S
C233 C232 1.349 . S
C233 C249 1.349 . S
C234 C232 1.327 . S
C234 C253 1.429 . S
C234 H258 0.950 . S
C235 C252 1.574 . S
C235 C254 1.368 . S
C235 H259 0.949 . S
H236 C240 0.949 . S
C237 C238 1.349 . S
C237 C239 1.327 . S
C237 H260 0.950 . S
C238 C237 1.349 . S
C238 C250 1.349 . S
C239 C237 1.327 . S
C239 C255 1.429 . S
C239 H261 0.950 . S
C240 H236 0.949 . S
C240 C248 1.574 . S
C240 C256 1.368 . S
H241 C249 0.950 . S
H242 C247 0.950 . S
H243 C248 0.949 . S
H244 C250 0.950 . S
H245 C251 0.950 . S
H246 C252 0.949 . S
C247 H242 0.950 . S
C247 C249 1.327 . S
C247 C253 1.429 . S
C248 C240 1.574 . S
C248 H243 0.949 . S
C248 C254 1.368 . S
C249 C233 1.349 . S
C249 H241 0.950 . S
C249 C247 1.327 . S
C250 C238 1.349 . S
C250 H244 0.950 . S
C250 C251 1.327 . S
C251 H245 0.950 . S
C251 C250 1.327 . S
C251 C255 1.429 . S
C252 C235 1.574 . S
C252 H246 0.949 . S
C252 C256 1.368 . S
C253 C234 1.429 . S
C253 C247 1.429 . S
C253 C254 1.523 . S
C254 C235 1.368 . S
C254 C248 1.368 . S
C254 C253 1.523 . S
C255 C239 1.429 . S
C255 C251 1.429 . S
C255 C256 1.523 . S
C256 C240 1.368 . S
C256 C252 1.368 . S
C256 C255 1.523 . S
H257 C232 0.950 . S
H258 C234 0.950 . S
H259 C235 0.949 . S
H260 C237 0.950 . S
H261 C239 0.950 . S
C262 C263 1.349 . S
C262 C264 1.327 . S
C262 H287 0.950 . S
C263 C262 1.349 . S
C263 C279 1.349 . S
C264 C262 1.327 . S
C264 C283 1.429 . S
C264 H288 0.950 . S
C265 C282 1.574 . S
C265 C284 1.368 . S
C265 H289 0.949 . S
H266 C270 0.949 . S
C267 C268 1.349 . S
C267 C269 1.327 . S
C267 H290 0.950 . S
C268 C267 1.349 . S
C268 C280 1.349 . S
C269 C267 1.327 . S
C269 C285 1.429 . S
C269 H291 0.950 . S
C270 H266 0.949 . S
C270 C278 1.574 . S
C270 C286 1.368 . S
H271 C279 0.950 . S
H272 C277 0.950 . S
H273 C278 0.949 . S
H274 C280 0.950 . S
H275 C281 0.950 . S
H276 C282 0.949 . S
C277 H272 0.950 . S
C277 C279 1.327 . S
C277 C283 1.429 . S
C278 C270 1.574 . S
C278 H273 0.949 . S
C278 C284 1.368 . S
C279 C263 1.349 . S
C279 H271 0.950 . S
C279 C277 1.327 . S
C280 C268 1.349 . S
C280 H274 0.950 . S
C280 C281 1.327 . S
C281 H275 0.950 . S
C281 C280 1.327 . S
C281 C285 1.429 . S
C282 C265 1.574 . S
C282 H276 0.949 . S
C282 C286 1.368 . S
C283 C264 1.429 . S
C283 C277 1.429 . S
C283 C284 1.523 . S
C284 C265 1.368 . S
C284 C278 1.368 . S
C284 C283 1.523 . S
C285 C269 1.429 . S
C285 C281 1.429 . S
C285 C286 1.523 . S
C286 C270 1.368 . S
C286 C282 1.368 . S
C286 C285 1.523 . S
H287 C262 0.950 . S
H288 C264 0.950 . S
H289 C265 0.949 . S
H290 C267 0.950 . S
H291 C269 0.950 . S
C292 C293 1.349 . S
C292 C294 1.327 . S
C292 H317 0.950 . S
C293 C292 1.349 . S
C293 C309 1.349 . S
C294 C292 1.327 . S
C294 C313 1.429 . S
C294 H318 0.950 . S
C295 C312 1.574 . S
C295 C314 1.368 . S
C295 H319 0.949 . S
H296 C300 0.949 . S
C297 C298 1.349 . S
C297 C299 1.327 . S
C297 H320 0.950 . S
C298 C297 1.349 . S
C298 C310 1.349 . S
C299 C297 1.327 . S
C299 C315 1.429 . S
C299 H321 0.950 . S
C300 H296 0.949 . S
C300 C308 1.574 . S
C300 C316 1.368 . S
H301 C309 0.950 . S
H302 C307 0.950 . S
H303 C308 0.949 . S
H304 C310 0.950 1_556 S
H305 C311 0.950 . S
H306 C312 0.949 . S
C307 H302 0.950 . S
C307 C309 1.327 . S
C307 C313 1.429 . S
C308 C300 1.574 . S
C308 H303 0.949 . S
C308 C314 1.368 . S
C309 C293 1.349 . S
C309 H301 0.950 . S
C309 C307 1.327 . S
C310 C298 1.349 . S
C310 H304 0.950 1_554 S
C310 C311 1.327 . S
C311 H305 0.950 . S
C311 C310 1.327 . S
C311 C315 1.429 . S
C312 C295 1.574 . S
C312 H306 0.949 . S
C312 C316 1.368 . S
C313 C294 1.429 . S
C313 C307 1.429 . S
C313 C314 1.523 . S
C314 C295 1.368 . S
C314 C308 1.368 . S
C314 C313 1.523 . S
C315 C299 1.429 . S
C315 C311 1.429 . S
C315 C316 1.523 . S
C316 C300 1.368 . S
C316 C312 1.368 . S
C316 C315 1.523 . S
H317 C292 0.950 . S
H318 C294 0.950 . S
H319 C295 0.949 . S
H320 C297 0.950 . S
H321 C299 0.950 . S
C322 C323 1.349 . S
C322 C324 1.327 . S
C322 H347 0.950 1_556 S
C323 C322 1.349 . S
C323 C339 1.349 . S
C324 C322 1.327 . S
C324 C343 1.429 . S
C324 H348 0.950 . S
C325 C342 1.574 . S
C325 C344 1.368 . S
C325 H349 0.949 . S
H326 C330 0.949 . S
C327 C328 1.349 . S
C327 C329 1.327 . S
C327 H350 0.950 . S
C328 C327 1.349 . S
C328 C340 1.349 . S
C329 C327 1.327 . S
C329 C345 1.429 . S
C329 H351 0.950 . S
C330 H326 0.949 . S
C330 C338 1.574 . S
C330 C346 1.368 . S
H331 C339 0.950 . S
H332 C337 0.950 . S
H333 C338 0.949 . S
H334 C340 0.950 . S
H335 C341 0.950 . S
H336 C342 0.949 . S
C337 H332 0.950 . S
C337 C339 1.327 . S
C337 C343 1.429 . S
C338 C330 1.574 . S
C338 H333 0.949 . S
C338 C344 1.368 . S
C339 C323 1.349 . S
C339 H331 0.950 . S
C339 C337 1.327 . S
C340 C328 1.349 . S
C340 H334 0.950 . S
C340 C341 1.327 . S
C341 H335 0.950 . S
C341 C340 1.327 . S
C341 C345 1.429 . S
C342 C325 1.574 . S
C342 H336 0.949 . S
C342 C346 1.368 . S
C343 C324 1.429 . S
C343 C337 1.429 . S
C343 C344 1.523 . S
C344 C325 1.368 . S
C344 C338 1.368 . S
C344 C343 1.523 . S
C345 C329 1.429 . S
C345 C341 1.429 . S
C345 C346 1.523 . S
C346 C330 1.368 . S
C346 C342 1.368 . S
C346 C345 1.523 . S
H347 C322 0.950 1_554 S
H348 C324 0.950 . S
H349 C325 0.949 . S
H350 C327 0.950 . S
H351 C329 0.950 . S
C352 C353 1.349 . S
C352 C354 1.327 . S
C352 H377 0.950 . S
C353 C352 1.349 . S
C353 C369 1.349 . S
C354 C352 1.327 . S
C354 C373 1.429 . S
C354 H378 0.950 . S
C355 C372 1.574 . S
C355 C374 1.368 . S
C355 H379 0.949 . S
H356 C360 0.949 . S
C357 C358 1.349 . S
C357 C359 1.327 . S
C357 H380 0.950 . S
C358 C357 1.349 . S
C358 C370 1.349 . S
C359 C357 1.327 . S
C359 C375 1.429 . S
C359 H381 0.950 . S
C360 H356 0.949 . S
C360 C368 1.574 . S
C360 C376 1.368 . S
H361 C369 0.950 . S
H362 C367 0.950 . S
H363 C368 0.949 . S
H364 C370 0.950 . S
H365 C371 0.950 . S
H366 C372 0.949 . S
C367 H362 0.950 . S
C367 C369 1.327 . S
C367 C373 1.429 . S
C368 C360 1.574 . S
C368 H363 0.949 . S
C368 C374 1.368 . S
C369 C353 1.349 . S
C369 H361 0.950 . S
C369 C367 1.327 . S
C370 C358 1.349 . S
C370 H364 0.950 . S
C370 C371 1.327 . S
C371 H365 0.950 . S
C371 C370 1.327 . S
C371 C375 1.429 . S
C372 C355 1.574 . S
C372 H366 0.949 . S
C372 C376 1.368 . S
C373 C354 1.429 . S
C373 C367 1.429 . S
C373 C374 1.523 . S
C374 C355 1.368 . S
C374 C368 1.368 . S
C374 C373 1.523 . S
C375 C359 1.429 . S
C375 C371 1.429 . S
C375 C376 1.523 . S
C376 C360 1.368 . S
C376 C372 1.368 . S
C376 C375 1.523 . S
H377 C352 0.950 . S
H378 C354 0.950 . S
H379 C355 0.949 . S
H380 C357 0.950 . S
H381 C359 0.950 . S
C382 C383 1.349 . S
C382 C384 1.327 . S
C382 H407 0.950 . S
C383 C382 1.349 . S
C383 C399 1.349 . S
C384 C382 1.327 . S
C384 C403 1.429 . S
C384 H408 0.950 . S
C385 C402 1.574 . S
C385 C404 1.368 . S
C385 H409 0.949 . S
H386 C390 0.949 . S
C387 C388 1.349 . S
C387 C389 1.327 . S
C387 H410 0.950 . S
C388 C387 1.349 . S
C388 C400 1.349 . S
C389 C387 1.327 . S
C389 C405 1.429 . S
C389 H411 0.950 . S
C390 H386 0.949 . S
C390 C398 1.574 . S
C390 C406 1.368 . S
H391 C399 0.950 . S
H392 C397 0.950 . S
H393 C398 0.949 . S
H394 C400 0.950 1_556 S
H395 C401 0.950 . S
H396 C402 0.949 . S
C397 H392 0.950 . S
C397 C399 1.327 . S
C397 C403 1.429 . S
C398 C390 1.574 . S
C398 H393 0.949 . S
C398 C404 1.368 . S
C399 C383 1.349 . S
C399 H391 0.950 . S
C399 C397 1.327 . S
C400 C388 1.349 . S
C400 H394 0.950 1_554 S
C400 C401 1.327 . S
C401 H395 0.950 . S
C401 C400 1.327 . S
C401 C405 1.429 . S
C402 C385 1.574 . S
C402 H396 0.949 . S
C402 C406 1.368 . S
C403 C384 1.429 . S
C403 C397 1.429 . S
C403 C404 1.523 . S
C404 C385 1.368 . S
C404 C398 1.368 . S
C404 C403 1.523 . S
C405 C389 1.429 . S
C405 C401 1.429 . S
C405 C406 1.523 . S
C406 C390 1.368 . S
C406 C402 1.368 . S
C406 C405 1.523 . S
H407 C382 0.950 . S
H408 C384 0.950 . S
H409 C385 0.949 . S
H410 C387 0.950 . S
H411 C389 0.950 . S
C412 C413 1.349 . S
C412 C414 1.327 . S
C412 H437 0.950 . S
C413 C412 1.349 . S
C413 C429 1.349 . S
C414 C412 1.327 . S
C414 C433 1.429 . S
C414 H438 0.950 . S
C415 C432 1.574 . S
C415 C434 1.368 . S
C415 H439 0.949 . S
H416 C420 0.949 . S
C417 C418 1.349 . S
C417 C419 1.327 . S
C417 H440 0.950 . S
C418 C417 1.349 . S
C418 C430 1.349 . S
C419 C417 1.327 . S
C419 C435 1.429 . S
C419 H441 0.950 . S
C420 H416 0.949 . S
C420 C428 1.574 . S
C420 C436 1.368 . S
H421 C429 0.950 . S
H422 C427 0.950 . S
H423 C428 0.949 . S
H424 C430 0.950 . S
H425 C431 0.950 . S
H426 C432 0.949 . S
C427 H422 0.950 . S
C427 C429 1.327 . S
C427 C433 1.429 . S
C428 C420 1.574 . S
C428 H423 0.949 . S
C428 C434 1.368 . S
C429 C413 1.349 . S
C429 H421 0.950 . S
C429 C427 1.327 . S
C430 C418 1.349 . S
C430 H424 0.950 . S
C430 C431 1.327 . S
C431 H425 0.950 . S
C431 C430 1.327 . S
C431 C435 1.429 . S
C432 C415 1.574 . S
C432 H426 0.949 . S
C432 C436 1.368 . S
C433 C414 1.429 . S
C433 C427 1.429 . S
C433 C434 1.523 . S
C434 C415 1.368 . S
C434 C428 1.368 . S
C434 C433 1.523 . S
C435 C419 1.429 . S
C435 C431 1.429 . S
C435 C436 1.523 . S
C436 C420 1.368 . S
C436 C432 1.368 . S
C436 C435 1.523 . S
H437 C412 0.950 . S
H438 C414 0.950 . S
H439 C415 0.949 . S
H440 C417 0.950 . S
H441 C419 0.950 . S
C442 C443 1.349 . S
C442 C444 1.327 . S
C442 H467 0.950 . S
C443 C442 1.349 . S
C443 C459 1.349 . S
C444 C442 1.327 . S
C444 C463 1.429 . S
C444 H468 0.950 . S
C445 C462 1.574 . S
C445 C464 1.368 . S
C445 H469 0.949 . S
H446 C450 0.949 . S
C447 C448 1.349 . S
C447 C449 1.327 . S
C447 H470 0.950 . S
C448 C447 1.349 . S
C448 C460 1.349 . S
C449 C447 1.327 . S
C449 C465 1.429 . S
C449 H471 0.950 . S
C450 H446 0.949 . S
C450 C458 1.574 . S
C450 C466 1.368 . S
H451 C459 0.950 . S
H452 C457 0.950 . S
H453 C458 0.949 . S
H454 C460 0.950 . S
H455 C461 0.950 . S
H456 C462 0.949 . S
C457 H452 0.950 . S
C457 C459 1.327 . S
C457 C463 1.429 . S
C458 C450 1.574 . S
C458 H453 0.949 . S
C458 C464 1.368 . S
C459 C443 1.349 . S
C459 H451 0.950 . S
C459 C457 1.327 . S
C460 C448 1.349 . S
C460 H454 0.950 . S
C460 C461 1.327 . S
C461 H455 0.950 . S
C461 C460 1.327 . S
C461 C465 1.429 . S
C462 C445 1.574 . S
C462 H456 0.949 . S
C462 C466 1.368 . S
C463 C444 1.429 . S
C463 C457 1.429 . S
C463 C464 1.523 . S
C464 C445 1.368 . S
C464 C458 1.368 . S
C464 C463 1.523 . S
C465 C449 1.429 . S
C465 C461 1.429 . S
C465 C466 1.523 . S
C466 C450 1.368 . S
C466 C462 1.368 . S
C466 C465 1.523 . S
H467 C442 0.950 . S
H468 C444 0.950 . S
H469 C445 0.949 . S
H470 C447 0.950 . S
H471 C449 0.950 . S
C472 C473 1.349 . S
C472 C474 1.327 . S
C472 H497 0.950 . S
C473 C472 1.349 . S
C473 C489 1.349 . S
C474 C472 1.327 . S
C474 C493 1.429 . S
C474 H498 0.950 . S
C475 C492 1.574 . S
C475 C494 1.368 . S
C475 H499 0.949 . S
H476 C480 0.949 . S
C477 C478 1.349 . S
C477 C479 1.327 . S
C477 H500 0.950 . S
C478 C477 1.349 . S
C478 C490 1.349 . S
C479 C477 1.327 . S
C479 C495 1.429 . S
C479 H501 0.950 . S
C480 H476 0.949 . S
C480 C488 1.574 . S
C480 C496 1.368 . S
H481 C489 0.950 . S
H482 C487 0.950 . S
H483 C488 0.949 . S
H484 C490 0.950 . S
H485 C491 0.950 . S
H486 C492 0.949 . S
C487 H482 0.950 . S
C487 C489 1.327 . S
C487 C493 1.429 . S
C488 C480 1.574 . S
C488 H483 0.949 . S
C488 C494 1.368 . S
C489 C473 1.349 . S
C489 H481 0.950 . S
C489 C487 1.327 . S
C490 C478 1.349 . S
C490 H484 0.950 . S
C490 C491 1.327 . S
C491 H485 0.950 . S
C491 C490 1.327 . S
C491 C495 1.429 . S
C492 C475 1.574 . S
C492 H486 0.949 . S
C492 C496 1.368 . S
C493 C474 1.429 . S
C493 C487 1.429 . S
C493 C494 1.523 . S
C494 C475 1.368 . S
C494 C488 1.368 . S
C494 C493 1.523 . S
C495 C479 1.429 . S
C495 C491 1.429 . S
C495 C496 1.523 . S
C496 C480 1.368 . S
C496 C492 1.368 . S
C496 C495 1.523 . S
H497 C472 0.950 . S
H498 C474 0.950 . S
H499 C475 0.949 . S
H500 C477 0.950 . S
H501 C479 0.950 . S
C502 C503 1.349 . S
C502 C504 1.327 . S
C502 H527 0.950 . S
C503 C502 1.349 . S
C503 C519 1.349 . S
C504 C502 1.327 . S
C504 C523 1.429 . S
C504 H528 0.950 . S
C505 C522 1.574 . S
C505 C524 1.368 . S
C505 H529 0.949 . S
H506 C510 0.949 . S
C507 C508 1.349 . S
C507 C509 1.327 . S
C507 H530 0.950 . S
C508 C507 1.349 . S
C508 C520 1.349 . S
C509 C507 1.327 . S
C509 C525 1.429 . S
C509 H531 0.950 . S
C510 H506 0.949 . S
C510 C518 1.574 . S
C510 C526 1.368 . S
H511 C519 0.950 . S
H512 C517 0.950 . S
H513 C518 0.949 . S
H514 C520 0.950 . S
H515 C521 0.950 . S
H516 C522 0.949 . S
C517 H512 0.950 . S
C517 C519 1.327 . S
C517 C523 1.429 . S
C518 C510 1.574 . S
C518 H513 0.949 . S
C518 C524 1.368 . S
C519 C503 1.349 . S
C519 H511 0.950 . S
C519 C517 1.327 . S
C520 C508 1.349 . S
C520 H514 0.950 . S
C520 C521 1.327 . S
C521 H515 0.950 . S
C521 C520 1.327 . S
C521 C525 1.429 . S
C522 C505 1.574 . S
C522 H516 0.949 . S
C522 C526 1.368 . S
C523 C504 1.429 . S
C523 C517 1.429 . S
C523 C524 1.523 . S
C524 C505 1.368 . S
C524 C518 1.368 . S
C524 C523 1.523 . S
C525 C509 1.429 . S
C525 C521 1.429 . S
C525 C526 1.523 . S
C526 C510 1.368 . S
C526 C522 1.368 . S
C526 C525 1.523 . S
H527 C502 0.950 . S
H528 C504 0.950 . S
H529 C505 0.949 . S
H530 C507 0.950 . S
H531 C509 0.950 . S
C532 C533 1.349 . S
C532 C534 1.327 . S
C532 H557 0.950 . S
C533 C532 1.349 . S
C533 C549 1.349 . S
C534 C532 1.327 . S
C534 C553 1.429 . S
C534 H558 0.950 . S
C535 C552 1.574 . S
C535 C554 1.368 . S
C535 H559 0.949 . S
H536 C540 0.949 . S
C537 C538 1.349 . S
C537 C539 1.327 . S
C537 H560 0.950 . S
C538 C537 1.349 . S
C538 C550 1.349 . S
C539 C537 1.327 . S
C539 C555 1.429 . S
C539 H561 0.950 . S
C540 H536 0.949 . S
C540 C548 1.574 . S
C540 C556 1.368 . S
H541 C549 0.950 . S
H542 C547 0.950 . S
H543 C548 0.949 . S
H544 C550 0.950 . S
H545 C551 0.950 . S
H546 C552 0.949 . S
C547 H542 0.950 . S
C547 C549 1.327 . S
C547 C553 1.429 . S
C548 C540 1.574 . S
C548 H543 0.949 . S
C548 C554 1.368 . S
C549 C533 1.349 . S
C549 H541 0.950 . S
C549 C547 1.327 . S
C550 C538 1.349 . S
C550 H544 0.950 . S
C550 C551 1.327 . S
C551 H545 0.950 . S
C551 C550 1.327 . S
C551 C555 1.429 . S
C552 C535 1.574 . S
C552 H546 0.949 . S
C552 C556 1.368 . S
C553 C534 1.429 . S
C553 C547 1.429 . S
C553 C554 1.523 . S
C554 C535 1.368 . S
C554 C548 1.368 . S
C554 C553 1.523 . S
C555 C539 1.429 . S
C555 C551 1.429 . S
C555 C556 1.523 . S
C556 C540 1.368 . S
C556 C552 1.368 . S
C556 C555 1.523 . S
H557 C532 0.950 . S
H558 C534 0.950 . S
H559 C535 0.949 . S
H560 C537 0.950 . S
H561 C539 0.950 . S
C562 C563 1.349 . S
C562 C564 1.327 . S
C562 H587 0.950 . S
C563 C562 1.349 . S
C563 C579 1.349 . S
C564 C562 1.327 . S
C564 C583 1.429 . S
C564 H588 0.950 . S
C565 C582 1.574 . S
C565 C584 1.368 . S
C565 H589 0.949 . S
H566 C570 0.949 . S
C567 C568 1.349 . S
C567 C569 1.327 . S
C567 H590 0.950 . S
C568 C567 1.349 . S
C568 C580 1.349 . S
C569 C567 1.327 . S
C569 C585 1.429 . S
C569 H591 0.950 . S
C570 H566 0.949 . S
C570 C578 1.574 . S
C570 C586 1.368 . S
H571 C579 0.950 . S
H572 C577 0.950 . S
H573 C578 0.949 . S
H574 C580 0.950 . S
H575 C581 0.950 . S
H576 C582 0.949 . S
C577 H572 0.950 . S
C577 C579 1.327 . S
C577 C583 1.429 . S
C578 C570 1.574 . S
C578 H573 0.949 . S
C578 C584 1.368 . S
C579 C563 1.349 . S
C579 H571 0.950 . S
C579 C577 1.327 . S
C580 C568 1.349 . S
C580 H574 0.950 . S
C580 C581 1.327 . S
C581 H575 0.950 . S
C581 C580 1.327 . S
C581 C585 1.429 . S
C582 C565 1.574 . S
C582 H576 0.949 . S
C582 C586 1.368 . S
C583 C564 1.429 . S
C583 C577 1.429 . S
C583 C584 1.523 . S
C584 C565 1.368 . S
C584 C578 1.368 . S
C584 C583 1.523 . S
C585 C569 1.429 . S
C585 C581 1.429 . S
C585 C586 1.523 . S
C586 C570 1.368 . S
C586 C582 1.368 . S
C586 C585 1.523 . S
H587 C562 0.950 . S
H588 C564 0.950 . S
H589 C565 0.949 . S
H590 C567 0.950 . S
H591 C569 0.950 . S
C113 C1 1.498 . S
C118 C54 1.492 . S
C143 C13 1.498 . S
C148 C14 1.498 . S
C173 C28 1.499 . S
C178 C26 1.503 . S
C203 C42 1.499 . S
C208 C40 1.494 . S
C233 C0 1.499 . S
C238 C83 1.505 . S
C263 C12 1.499 . S
C268 C57 1.499 . S
C293 C69 1.498 . S
C298 C29 1.494 . S
C323 C41 1.498 . S
C328 C71 1.503 . S
C353 C97 1.498 . S
C358 C82 1.500 . S
C383 C56 1.498 . S
C388 C85 1.497 . S
C413 C68 1.499 . S
C418 C98 1.502 . S
C443 C70 1.499 . S
C448 C110 1.502 . S
C473 C96 1.499 . S
C478 C55 1.498 . S
C503 C15 1.499 . S
C508 C84 1.500 . S
C533 C27 1.498 . S
C538 C99 1.495 . S
C563 C43 1.498 . S
C568 C111 1.495 . S
