# Generated by pormake.
# Topology wkj, (6)-cn, num edge types: 1
# Building blocks:
#     Node 0, Type 0, BuildingBlock: KUMBUR_clean_sbu_1, # of connection points: 6
#     Node 1, Type 0, BuildingBlock: KUMBUR_clean_sbu_1, # of connection points: 6
#     Node 2, Type 0, BuildingBlock: KUMBUR_clean_sbu_1, # of connection points: 6
#     Node 3, Type 0, BuildingBlock: KUMBUR_clean_sbu_1, # of connection points: 6
#     Node 4, Type 0, BuildingBlock: KUMBUR_clean_sbu_1, # of connection points: 6
#     Node 5, Type 0, BuildingBlock: KUMBUR_clean_sbu_1, # of connection points: 6
#     Node 6, Type 0, BuildingBlock: KUMBUR_clean_sbu_1, # of connection points: 6
#     Node 7, Type 0, BuildingBlock: KUMBUR_clean_sbu_1, # of connection points: 6
#     Node 8, Type 0, BuildingBlock: KUMBUR_clean_sbu_1, # of connection points: 6
#     Node 9, Type 0, BuildingBlock: KUMBUR_clean_sbu_1, # of connection points: 6
#     Node 10, Type 0, BuildingBlock: KUMBUR_clean_sbu_1, # of connection points: 6
#     Node 11, Type 0, BuildingBlock: KUMBUR_clean_sbu_1, # of connection points: 6
#     Edge 12, Type (0, 0), BuildingBlock: EZIPEK_clean_linker_0, # of connection points: 2
#     Edge 13, Type (0, 0), BuildingBlock: EZIPEK_clean_linker_0, # of connection points: 2
#     Edge 14, Type (0, 0), BuildingBlock: EZIPEK_clean_linker_0, # of connection points: 2
#     Edge 15, Type (0, 0), BuildingBlock: EZIPEK_clean_linker_0, # of connection points: 2
#     Edge 16, Type (0, 0), BuildingBlock: EZIPEK_clean_linker_0, # of connection points: 2
#     Edge 17, Type (0, 0), BuildingBlock: EZIPEK_clean_linker_0, # of connection points: 2
#     Edge 18, Type (0, 0), BuildingBlock: EZIPEK_clean_linker_0, # of connection points: 2
#     Edge 19, Type (0, 0), BuildingBlock: EZIPEK_clean_linker_0, # of connection points: 2
#     Edge 20, Type (0, 0), BuildingBlock: EZIPEK_clean_linker_0, # of connection points: 2
#     Edge 21, Type (0, 0), BuildingBlock: EZIPEK_clean_linker_0, # of connection points: 2
#     Edge 22, Type (0, 0), BuildingBlock: EZIPEK_clean_linker_0, # of connection points: 2
#     Edge 23, Type (0, 0), BuildingBlock: EZIPEK_clean_linker_0, # of connection points: 2
#     Edge 24, Type (0, 0), BuildingBlock: EZIPEK_clean_linker_0, # of connection points: 2
#     Edge 25, Type (0, 0), BuildingBlock: EZIPEK_clean_linker_0, # of connection points: 2
#     Edge 26, Type (0, 0), BuildingBlock: EZIPEK_clean_linker_0, # of connection points: 2
#     Edge 27, Type (0, 0), BuildingBlock: EZIPEK_clean_linker_0, # of connection points: 2
#     Edge 28, Type (0, 0), BuildingBlock: EZIPEK_clean_linker_0, # of connection points: 2
#     Edge 29, Type (0, 0), BuildingBlock: EZIPEK_clean_linker_0, # of connection points: 2
#     Edge 30, Type (0, 0), BuildingBlock: EZIPEK_clean_linker_0, # of connection points: 2
#     Edge 31, Type (0, 0), BuildingBlock: EZIPEK_clean_linker_0, # of connection points: 2
#     Edge 32, Type (0, 0), BuildingBlock: EZIPEK_clean_linker_0, # of connection points: 2
#     Edge 33, Type (0, 0), BuildingBlock: EZIPEK_clean_linker_0, # of connection points: 2
#     Edge 34, Type (0, 0), BuildingBlock: EZIPEK_clean_linker_0, # of connection points: 2
#     Edge 35, Type (0, 0), BuildingBlock: EZIPEK_clean_linker_0, # of connection points: 2
#     Edge 36, Type (0, 0), BuildingBlock: EZIPEK_clean_linker_0, # of connection points: 2
#     Edge 37, Type (0, 0), BuildingBlock: EZIPEK_clean_linker_0, # of connection points: 2
#     Edge 38, Type (0, 0), BuildingBlock: EZIPEK_clean_linker_0, # of connection points: 2
#     Edge 39, Type (0, 0), BuildingBlock: EZIPEK_clean_linker_0, # of connection points: 2
#     Edge 40, Type (0, 0), BuildingBlock: EZIPEK_clean_linker_0, # of connection points: 2
#     Edge 41, Type (0, 0), BuildingBlock: EZIPEK_clean_linker_0, # of connection points: 2
#     Edge 42, Type (0, 0), BuildingBlock: EZIPEK_clean_linker_0, # of connection points: 2
#     Edge 43, Type (0, 0), BuildingBlock: EZIPEK_clean_linker_0, # of connection points: 2
#     Edge 44, Type (0, 0), BuildingBlock: EZIPEK_clean_linker_0, # of connection points: 2
#     Edge 45, Type (0, 0), BuildingBlock: EZIPEK_clean_linker_0, # of connection points: 2
#     Edge 46, Type (0, 0), BuildingBlock: EZIPEK_clean_linker_0, # of connection points: 2
#     Edge 47, Type (0, 0), BuildingBlock: EZIPEK_clean_linker_0, # of connection points: 2
# Relax obj value: 0.916
# Max RMSD: 0.198
# Mean RMSD: 0.198
data_MOF--net-wkj--node1-KUMBUR_clean_sbu_1--edge1-EZIPEK_clean_linker_0
_symmetry_space_group_name_H-M    P1
_symmetry_Int_Tables_number       1
_symmetry_cell_setting            triclinic
loop_
_symmetry_equiv_pos_as_xyz
'x, y, z'
_cell_length_a     39.018931
_cell_length_b     38.940638
_cell_length_c     22.698642
_cell_angle_alpha  90.030602
_cell_angle_beta   90.256919
_cell_angle_gamma 120.03504
loop_
_atom_site_label
_atom_site_type_symbol
_atom_site_fract_x
_atom_site_fract_y
_atom_site_fract_z
_atom_type_partial_charge
Tb0 Tb 0.52177 0.11669 0.3536 0.0
C1 C 0.33698 0.03332 0.31214 0.0
N2 N 0.36637 0.069 0.3314 0.0
C3 C 0.33798 0.10164 0.27679 0.0
C4 C 0.30889 0.03057 0.27024 0.0
C5 C 0.36534 0.10272 0.31784 0.0
C6 C 0.31033 0.06549 0.25151 0.0
C7 C 0.3014 0.96197 0.32239 0.0
C8 C 0.33276 -0.00036 0.33921 0.0
C9 C 0.27568 0.95879 0.27648 0.0
C10 C 0.27911 -0.00691 0.25093 0.0
Tb11 Tb 0.41209 0.06756 0.39365 0.0
N12 N 0.35726 0.00424 0.38533 0.0
C13 C 0.29554 0.92883 0.35412 0.0
C14 C 0.34843 0.97219 0.42041 0.0
C15 C 0.31836 0.93409 0.40424 0.0
H16 H 0.38544 0.13063 0.33881 0.0
H17 H 0.31221 0.90862 0.43064 0.0
H18 H 0.56921 0.16231 0.48383 0.0
H19 H 0.50086 0.18585 0.16408 0.0
H20 H 0.36495 0.97544 0.46028 0.0
H21 H 0.27208 0.89933 0.34225 0.0
H22 H 0.48867 0.1299 0.22645 0.0
H23 H 0.33804 0.12862 0.26514 0.0
H24 H 0.25176 0.93004 0.26258 0.0
H25 H 0.25769 -0.00967 0.21796 0.0
H26 H 0.62212 0.22678 0.51294 0.0
H27 H 0.28898 0.06465 0.21999 0.0
H28 H 0.55877 0.25295 0.18415 0.0
N29 N 0.56598 0.17801 0.39379 0.0
C30 C 0.58234 0.20805 0.35428 0.0
C31 C 0.61136 0.22187 0.46793 0.0
C32 C 0.61473 0.24544 0.36911 0.0
C33 C 0.58025 0.18479 0.45063 0.0
C34 C 0.62917 0.25215 0.42678 0.0
N35 N 0.53527 0.16465 0.28564 0.0
C36 C 0.51366 0.15845 0.23573 0.0
C37 C 0.57741 0.23315 0.25977 0.0
C38 C 0.56537 0.20153 0.2991 0.0
C39 C 0.55332 0.22792 0.21138 0.0
C40 C 0.52099 0.19033 0.19976 0.0
H41 H 0.65332 0.28071 0.44042 0.0
H42 H 0.65845 0.30226 0.33423 0.0
H43 H 0.62401 0.2924 0.23914 0.0
O44 O 0.55879 0.1069 0.29771 0.0
O45 O 0.51966 0.10375 0.45313 0.0
O46 O 0.45451 0.07758 0.48225 0.0
O47 O 0.56725 0.1095 0.39113 0.0
O48 O 0.50147 0.1609 0.37101 0.0
O49 O 0.4417 0.12095 0.33308 0.0
O50 O 0.36283 0.06231 0.43589 0.0
O51 O 0.41418 0.04375 0.29773 0.0
O52 O 0.48146 0.07206 0.27359 0.0
O53 O 0.4204 0.11472 0.44885 0.0
O54 O 0.42506 0.02147 0.4183 0.0
O55 O 0.46855 0.0669 0.3699 0.0
C56 C 0.49418 0.09112 0.49866 0.0
C57 C 0.62486 0.14027 0.33334 0.0
C58 C 0.66975 0.18967 0.26519 0.0
C59 C 0.70086 0.18452 0.28545 0.0
C60 C 0.6555 0.13444 0.354 0.0
C61 C 0.69406 0.15813 0.33204 0.0
C62 C 0.6343 0.17214 0.29628 0.0
C63 C 0.46867 0.15772 0.34855 0.0
C64 C 0.58266 0.11017 0.34058 0.0
C65 C 0.63137 0.2748 0.32575 0.0
C66 C 0.61207 0.26907 0.27151 0.0
C67 C 0.44173 0.04628 0.25825 0.0
C68 C 0.37499 0.09317 0.52791 0.0
C69 C 0.34049 0.0512 0.61094 0.0
C70 C 0.36458 0.08238 0.64929 0.0
C71 C 0.39922 0.12427 0.56637 0.0
C72 C 0.34393 0.05798 0.55061 0.0
C73 C 0.39338 0.11905 0.6271 0.0
C74 C 0.45857 0.03354 0.3952 0.0
C75 C 0.38316 0.09558 0.46474 0.0
H76 H 0.72854 0.19743 0.26169 0.0
H77 H 0.64933 0.11059 0.38432 0.0
H78 H 0.71759 0.15311 0.34679 0.0
H79 H 0.61047 0.17505 0.27797 0.0
H80 H 0.36135 0.0783 0.69588 0.0
H81 H 0.42301 0.15204 0.54964 0.0
H82 H 0.32437 0.03389 0.5215 0.0
H83 H 0.41216 0.14283 0.65702 0.0
Tb84 Tb 0.39616 0.53164 0.67598 0.0
C85 C 0.27749 0.3529 0.64401 0.0
N86 N 0.27773 0.38416 0.67157 0.0
C87 C 0.21035 0.35969 0.63962 0.0
C88 C 0.2444 0.32529 0.61048 0.0
C89 C 0.24343 0.38579 0.673 0.0
C90 C 0.21105 0.32967 0.6074 0.0
C91 C 0.31151 0.31692 0.61957 0.0
C92 C 0.31037 0.34815 0.64956 0.0
C93 C 0.27866 0.28958 0.58642 0.0
C94 C 0.2452 0.29373 0.58193 0.0
Tb95 Tb 0.33262 0.42253 0.72996 0.0
N96 N 0.34229 0.37584 0.68092 0.0
C97 C 0.34607 0.31469 0.62207 0.0
C98 C 0.37617 0.3734 0.68326 0.0
C99 C 0.37859 0.34326 0.65341 0.0
H100 H 0.24028 0.40594 0.7019 0.0
H101 H 0.40566 0.34204 0.65417 0.0
H102 H 0.48753 0.58775 0.71566 0.0
H103 H 0.29631 0.58987 0.63605 0.0
H104 H 0.40206 0.39497 0.70641 0.0
H105 H 0.34822 0.29146 0.59905 0.0
H106 H 0.32202 0.54684 0.61768 0.0
H107 H 0.18389 0.3621 0.64016 0.0
H108 H 0.27906 0.26539 0.56339 0.0
H109 H 0.22006 0.27237 0.55614 0.0
H110 H 0.52762 0.64456 0.78195 0.0
H111 H 0.18517 0.30916 0.58211 0.0
H112 H 0.32607 0.64113 0.71269 0.0
N113 N 0.43358 0.58345 0.73694 0.0
C114 C 0.41622 0.60395 0.75703 0.0
C115 C 0.49609 0.63285 0.77695 0.0
C116 C 0.43792 0.63793 0.79306 0.0
C117 C 0.47354 0.59997 0.74084 0.0
C118 C 0.47765 0.65077 0.80567 0.0
N119 N 0.36131 0.56477 0.69315 0.0
C120 C 0.33287 0.56469 0.6567 0.0
C121 C 0.36556 0.62162 0.74408 0.0
C122 C 0.37925 0.59465 0.73411 0.0
C123 C 0.3348 0.61894 0.70945 0.0
C124 C 0.31843 0.59046 0.66564 0.0
H125 H 0.49518 0.67676 0.83281 0.0
H126 H 0.43749 0.68718 0.83645 0.0
H127 H 0.37642 0.67496 0.78928 0.0
O128 O 0.41423 0.58237 0.62359 0.0
O129 O 0.40763 0.53205 0.78057 0.0
O130 O 0.36376 0.46807 0.81503 0.0
O131 O 0.4461 0.55096 0.62157 0.0
O132 O 0.33519 0.49786 0.63798 0.0
O133 O 0.30606 0.46145 0.71824 0.0
O134 O 0.31508 0.37082 0.77874 0.0
O135 O 0.3552 0.425 0.62923 0.0
O136 O 0.39832 0.48976 0.601 0.0
O137 O 0.28166 0.40087 0.78147 0.0
O138 O 0.38935 0.43565 0.76399 0.0
O139 O 0.39252 0.47865 0.70532 0.0
C140 C 0.39246 0.50738 0.82883 0.0
C141 C 0.42166 0.56066 0.532 0.0
C142 C 0.36362 0.52472 0.46806 0.0
C143 C 0.3868 0.5161 0.43025 0.0
C144 C 0.44415 0.55332 0.49223 0.0
C145 C 0.42674 0.5304 0.44213 0.0
C146 C 0.38119 0.54578 0.51966 0.0
C147 C 0.30247 0.47631 0.66789 0.0
C148 C 0.43646 0.57362 0.59233 0.0
C149 C 0.42129 0.66103 0.80903 0.0
C150 C 0.38593 0.65364 0.78295 0.0
C151 C 0.38107 0.45009 0.58721 0.0
C152 C 0.27592 0.36067 0.86199 0.0
C153 C 0.27671 0.32077 0.94268 0.0
C154 C 0.26271 0.33962 0.98025 0.0
C155 C 0.26317 0.38047 0.9 0.0
C156 C 0.28045 0.32959 0.88292 0.0
C157 C 0.25586 0.36929 0.95898 0.0
C158 C 0.41302 0.46769 0.7377 0.0
C159 C 0.28428 0.37087 0.80014 0.0
H160 H 0.37343 0.4966 0.39293 0.0
H161 H 0.47371 0.5612 0.50406 0.0
H162 H 0.4438 0.52231 0.41392 0.0
H163 H 0.3626 0.54769 0.55237 0.0
H164 H 0.25739 0.33177 1.02571 0.0
H165 H 0.25876 0.40426 0.88436 0.0
H166 H 0.29 0.3141 0.85335 0.0
H167 H 0.24567 0.38414 0.98844 0.0
Tb168 Tb 0.86426 0.40385 1.02822 0.0
C169 C 0.95618 0.31248 1.01228 0.0
N170 N 0.91924 0.30572 1.00074 0.0
C171 C 0.91557 0.26705 0.91577 0.0
C172 C 0.97559 0.29949 0.97357 0.0
C173 C 0.8979 0.28115 0.95515 0.0
C174 C 0.95507 0.27741 0.92389 0.0
C175 C 0.01054 0.33522 1.0812 0.0
C176 C 0.97278 0.32908 1.06569 0.0
C177 C 0.03146 0.32519 1.04111 0.0
C178 C 0.01388 0.30709 0.98741 0.0
Tb179 Tb 0.89205 0.33013 1.06657 0.0
N180 N 0.95115 0.33767 1.10345 0.0
C181 C 0.02605 0.35108 0.13653 0.0
C182 C 0.96468 0.34895 0.16003 0.0
C183 C 0.00295 0.35785 0.17609 0.0
H184 H 0.8673 0.27247 0.94878 0.0
H185 H 0.01493 0.37021 0.21875 0.0
H186 H 0.83522 0.44734 1.13097 0.0
H187 H 0.78739 0.31827 0.83345 0.0
H188 H 0.94654 0.35229 0.19264 0.0
H189 H 0.05538 0.35738 0.14958 0.0
H190 H 0.84281 0.34961 0.90485 0.0
H191 H 0.89877 0.24847 0.87895 0.0
H192 H 0.06067 0.33016 1.052 0.0
H193 H 0.02957 0.29794 0.95784 0.0
H194 H 0.77699 0.45253 0.15169 0.0
H195 H 0.96878 0.26667 0.89319 0.0
H196 H 0.72448 0.3161 0.85395 0.0
N197 N 0.8096 0.40774 1.05736 0.0
C198 C 0.77743 0.3898 1.02136 0.0
C199 C 0.77633 0.43393 1.11573 0.0
C200 C 0.74269 0.39115 1.03344 0.0
C201 C 0.8094 0.43028 1.10377 0.0
C202 C 0.74284 0.41421 1.08042 0.0
N203 N 0.81391 0.37086 0.9605 0.0
C204 C 0.81629 0.35094 0.91274 0.0
C205 C 0.74607 0.35027 0.93443 0.0
C206 C 0.77952 0.37068 0.97148 0.0
C207 C 0.74912 0.33135 0.88425 0.0
C208 C 0.78453 0.33226 0.87286 0.0
H209 H 0.71779 0.41799 1.08844 0.0
H210 H 0.68199 0.37031 1.00705 0.0
H211 H 0.68485 0.33434 0.92061 0.0
O212 O 0.87238 0.44791 0.96841 0.0
O213 O 0.86457 0.4076 1.1295 0.0
O214 O 0.87965 0.35973 0.15718 0.0
O215 O 0.88711 0.46279 1.05942 0.0
O216 O 0.81289 0.33914 1.0431 0.0
O217 O 0.84347 0.31056 1.00239 0.0
O218 O 0.88392 0.27389 1.0837 0.0
O219 O 0.92331 0.36159 0.97149 0.0
O220 O 0.90355 0.40628 0.94658 0.0
O221 O 0.84015 0.28777 1.11112 0.0
O222 O 0.9222 0.37952 1.1211 0.0
O223 O 0.92537 0.41623 1.04485 0.0
C224 C 0.87 0.38877 0.17472 0.0
C225 C 0.85852 0.49613 1.00756 0.0
C226 C 0.81222 0.50921 0.95283 0.0
C227 C 0.80754 0.52809 1.00197 0.0
C228 C 0.85528 0.51677 1.05609 0.0
C229 C 0.82965 0.5324 1.05329 0.0
C230 C 0.83824 0.4945 0.95605 0.0
C231 C 0.80949 0.30651 1.01765 0.0
C232 C 0.8814 0.47488 1.0089 0.0
C233 C 0.70914 0.3702 0.99765 0.0
C234 C 0.71076 0.34961 0.94845 0.0
C235 C 0.92555 0.38936 0.93027 0.0
C236 C 0.85063 0.24358 0.17019 0.0
C237 C 0.88704 0.23797 0.25324 0.0
C238 C 0.85137 0.21403 0.28282 0.0
C239 C 0.8149 0.21956 0.19964 0.0
C240 C 0.88625 0.2511 0.19648 0.0
C241 C 0.81533 0.20433 0.25548 0.0
C242 C 0.93994 0.41276 1.09552 0.0
C243 C 0.8515 0.26162 1.11284 0.0
H244 H 0.78748 0.5397 1.0004 0.0
H245 H 0.87146 0.51976 1.09644 0.0
H246 H 0.82658 0.54745 1.09124 0.0
H247 H 0.84276 0.48173 0.9171 0.0
H248 H 0.85158 0.20462 0.32764 0.0
H249 H 0.78693 0.21302 0.17988 0.0
H250 H 0.91415 0.2697 0.17469 0.0
H251 H 0.7878 0.18624 0.27851 0.0
Tb252 Tb 0.45178 0.87753 0.37363 0.0
C253 C 0.64125 0.94715 0.38149 0.0
N254 N 0.60809 0.91803 0.35559 0.0
C255 C 0.6469 0.91717 0.27401 0.0
C256 C 0.67863 0.96296 0.35448 0.0
C257 C 0.61051 0.9027 0.30238 0.0
C258 C 0.68113 0.94761 0.30001 0.0
C259 C 0.67117 -0.00924 0.46481 0.0
C260 C 0.63763 0.96026 0.43594 0.0
C261 C 0.70844 0.00743 0.43785 0.0
C262 C 0.71221 -0.00669 0.38291 0.0
Tb263 Tb 0.54899 0.89736 0.40311 0.0
N264 N 0.6012 0.94278 0.46083 0.0
C265 C 0.66626 0.00371 0.51975 0.0
C266 C 0.59705 0.95357 0.51675 0.0
C267 C 0.62914 0.98474 0.54613 0.0
H268 H 0.58452 0.87917 0.28141 0.0
H269 H 0.62513 -0.00548 0.58881 0.0
H270 H 0.40835 0.92564 0.42984 0.0
H271 H 0.3694 0.71793 0.3202 0.0
H272 H 0.56885 0.93961 0.53836 0.0
H273 H 0.6909 0.02831 0.54195 0.0
H274 H 0.41646 0.78746 0.29995 0.0
H275 H 0.64846 0.90487 0.232 0.0
H276 H 0.73453 0.03088 0.45942 0.0
H277 H 0.74118 0.00598 0.36286 0.0
H278 H 0.35636 0.91145 0.50261 0.0
H279 H 0.70929 0.95883 0.27792 0.0
H280 H 0.33032 0.69909 0.41186 0.0
N281 N 0.4015 0.86792 0.43563 0.0
C282 C 0.37875 0.82998 0.45555 0.0
C283 C 0.3618 0.8881 0.48931 0.0
C284 C 0.34833 0.82064 0.49672 0.0
C285 C 0.39158 0.89627 0.44864 0.0
C286 C 0.34097 0.85064 0.51498 0.0
N287 N 0.4076 0.80933 0.38151 0.0
C288 C 0.39961 0.78037 0.33987 0.0
C289 C 0.35421 0.75978 0.44079 0.0
C290 C 0.38209 0.79979 0.42782 0.0
C291 C 0.35146 0.72999 0.40344 0.0
C292 C 0.37317 0.74048 0.35156 0.0
H293 H 0.31801 0.84472 0.54674 0.0
H294 H 0.30141 0.77369 0.54753 0.0
H295 H 0.30634 0.72028 0.49821 0.0
O296 O 0.44445 0.90078 0.29445 0.0
O297 O 0.45537 0.89276 0.47106 0.0
O298 O 0.51069 0.89023 0.49524 0.0
O299 O 0.39458 0.86399 0.34643 0.0
O300 O 0.46803 0.82861 0.37266 0.0
O301 O 0.52207 0.8605 0.32435 0.0
O302 O 0.57743 0.86428 0.40952 0.0
O303 O 0.55312 0.92918 0.30923 0.0
O304 O 0.49093 0.91857 0.29353 0.0
O305 O 0.52122 0.84415 0.45234 0.0
O306 O 0.55549 0.95224 0.41959 0.0
O307 O 0.48972 0.93644 0.41489 0.0
C308 C 0.47691 0.89085 0.5151 0.0
C309 C 0.39033 0.84575 0.25041 0.0
C310 C 0.40351 0.80197 0.19019 0.0
C311 C 0.36351 0.77246 0.19587 0.0
C312 C 0.34978 0.81778 0.24991 0.0
C313 C 0.33664 0.78073 0.22418 0.0
C314 C 0.41666 0.83696 0.22195 0.0
C315 C 0.49243 0.82556 0.33571 0.0
C316 C 0.40641 0.87718 0.29447 0.0
C317 C 0.32427 0.78125 0.51489 0.0
C318 C 0.32719 0.75082 0.48691 0.0
C319 C 0.52898 0.93633 0.27271 0.0
C320 C 0.56538 0.82433 0.49087 0.0
C321 C 0.60713 0.84252 0.57765 0.0
C322 C 0.60451 0.8053 0.57784 0.0
C323 C 0.56356 0.78745 0.4898 0.0
C324 C 0.58708 0.85153 0.53475 0.0
C325 C 0.58264 0.77775 0.53367 0.0
C326 C 0.52789 0.96024 0.4279 0.0
C327 C 0.54996 0.8368 0.44173 0.0
H328 H 0.35225 0.7435 0.17616 0.0
H329 H 0.32901 0.82334 0.27368 0.0
H330 H 0.30565 0.75827 0.22639 0.0
H331 H 0.44824 0.85682 0.22599 0.0
H332 H 0.61953 0.79791 0.61143 0.0
H333 H 0.54849 0.76683 0.45426 0.0
H334 H 0.58925 0.88034 0.53476 0.0
H335 H 0.58108 0.74921 0.53275 0.0
Tb336 Tb 0.54779 0.43906 0.68309 0.0
C337 C 0.71418 0.57213 0.75771 0.0
N338 N 0.67896 0.5489 0.78503 0.0
C339 C 0.71292 0.5366 0.86375 0.0
C340 C 0.74987 0.577 0.78108 0.0
C341 C 0.67814 0.53201 0.83849 0.0
C342 C 0.74888 0.55916 0.83492 0.0
C343 C 0.7498 0.61458 0.67579 0.0
C344 C 0.71395 0.59035 0.70564 0.0
C345 C 0.78531 0.61861 0.69787 0.0
C346 C 0.78537 0.59986 0.75042 0.0
Tb347 Tb 0.62387 0.546 0.74197 0.0
N348 N 0.67884 0.58524 0.68515 0.0
C349 C 0.74909 0.63477 0.6254 0.0
C350 C 0.67871 0.60689 0.63752 0.0
C351 C 0.71348 0.63133 0.60671 0.0
H352 H 0.65068 0.51444 0.86126 0.0
H353 H 0.71285 0.64796 0.56893 0.0
H354 H 0.45569 0.38849 0.7201 0.0
H355 H 0.64812 0.37838 0.66009 0.0
H356 H 0.65249 0.60716 0.62371 0.0
H357 H 0.77593 0.65393 0.6016 0.0
H358 H 0.62059 0.419 0.63054 0.0
H359 H 0.71202 0.52293 0.90566 0.0
H360 H 0.81296 0.63677 0.67524 0.0
H361 H 0.81307 0.60361 0.76732 0.0
H362 H 0.41096 0.32635 0.77381 0.0
H363 H 0.77579 0.56336 0.8552 0.0
H364 H 0.6209 0.3332 0.74461 0.0
N365 N 0.50705 0.38523 0.73808 0.0
C366 C 0.52251 0.3636 0.76086 0.0
C367 C 0.44234 0.33671 0.77109 0.0
C368 C 0.49872 0.329 0.79383 0.0
C369 C 0.46744 0.37175 0.74099 0.0
C370 C 0.45829 0.31598 0.79941 0.0
N371 N 0.57932 0.40231 0.70238 0.0
C372 C 0.60865 0.40162 0.66976 0.0
C373 C 0.57515 0.34792 0.76074 0.0
C374 C 0.56042 0.37314 0.74369 0.0
C375 C 0.60885 0.35207 0.73314 0.0
C376 C 0.62434 0.37757 0.68553 0.0
H377 H 0.43891 0.28915 0.82343 0.0
H378 H 0.49762 0.28061 0.84243 0.0
H379 H 0.5648 0.29735 0.81387 0.0
O380 O 0.51826 0.3827 0.64502 0.0
O381 O 0.54305 0.44027 0.78775 0.0
O382 O 0.58797 0.50346 0.82455 0.0
O383 O 0.50724 0.42775 0.61327 0.0
O384 O 0.6126 0.47203 0.65251 0.0
O385 O 0.64793 0.50634 0.73238 0.0
O386 O 0.61551 0.57042 0.81902 0.0
O387 O 0.59598 0.54969 0.64579 0.0
O388 O 0.5555 0.48616 0.60638 0.0
O389 O 0.63828 0.60577 0.74135 0.0
O390 O 0.57137 0.50583 0.71084 0.0
O391 O 0.51359 0.46201 0.72771 0.0
C392 C 0.55834 0.4646 0.83595 0.0
C393 C 0.51249 0.38517 0.54573 0.0
C394 C 0.56379 0.38899 0.48104 0.0
C395 C 0.53615 0.37666 0.43496 0.0
C396 C 0.48632 0.37567 0.49871 0.0
C397 C 0.4983 0.3713 0.4431 0.0
C398 C 0.5501 0.3895 0.53703 0.0
C399 C 0.6468 0.48922 0.68277 0.0
C400 C 0.50235 0.39265 0.60377 0.0
C401 C 0.51515 0.30678 0.81595 0.0
C402 C 0.55348 0.31642 0.79978 0.0
C403 C 0.57267 0.52681 0.59808 0.0
C404 C 0.66332 0.63766 0.83168 0.0
C405 C 0.67987 0.69511 0.89149 0.0
C406 C 0.7081 0.68958 0.92227 0.0
C407 C 0.69196 0.63249 0.8617 0.0
C408 C 0.66089 0.67156 0.84203 0.0
C409 C 0.71528 0.65929 0.90551 0.0
C410 C 0.53918 0.4986 0.73504 0.0
C411 C 0.63161 0.60584 0.797 0.0
H412 H 0.54412 0.37185 0.39255 0.0
H413 H 0.4572 0.37215 0.50487 0.0
H414 H 0.4787 0.36496 0.40591 0.0
H415 H 0.56958 0.39537 0.57357 0.0
H416 H 0.72304 0.70727 0.96083 0.0
H417 H 0.6951 0.60706 0.85367 0.0
H418 H 0.63896 0.67561 0.8183 0.0
H419 H 0.73675 0.65475 0.92944 0.0
Tb420 Tb 0.09905 0.57284 1.01091 0.0
C421 C -0.0121 0.65031 1.01634 0.0
N422 N 0.02606 0.66103 1.0051 0.0
C423 C 0.0252 0.69717 0.91992 0.0
C424 C 0.96599 0.66052 0.97794 0.0
C425 C 0.04569 0.68642 0.95974 0.0
C426 C -0.0151 0.68336 0.92824 0.0
C427 C 0.93351 0.62223 1.08514 0.0
C428 C 0.97206 0.63176 1.06907 0.0
C429 C 0.91034 0.62977 1.04533 0.0
C430 C 0.92658 0.64892 0.99174 0.0
Tb431 Tb 0.05283 0.63361 1.06649 0.0
N432 N -0.00415 0.62599 1.10657 0.0
C433 C 0.91998 0.60629 0.14117 0.0
C434 C -0.01554 0.61456 0.1633 0.0
C435 C 0.94571 0.60267 0.18051 0.0
H436 H 0.07668 0.6974 0.95283 0.0
H437 H 0.93562 0.59018 0.22373 0.0
H438 H 0.13674 0.53971 1.11655 0.0
H439 H 0.16979 0.67246 0.82955 0.0
H440 H 0.00459 0.61242 0.19392 0.0
H441 H 0.8902 0.59766 0.15498 0.0
H442 H 0.11358 0.62402 0.88748 0.0
H443 H 0.0405 0.71605 0.88282 0.0
H444 H 0.88039 0.62221 1.0564 0.0
H445 H 0.90892 0.65582 0.96233 0.0
H446 H 0.20096 0.54894 0.14549 0.0
H447 H 0.96914 0.69181 0.89745 0.0
H448 H 0.23778 0.68787 0.85483 0.0
N449 N 0.15826 0.57918 1.04328 0.0
C450 C 0.19051 0.60178 1.00956 0.0
C451 C 0.1986 0.56444 1.1075 0.0
C452 C 0.22821 0.60773 1.0246 0.0
C453 C 0.16194 0.55986 1.09124 0.0
C454 C 0.232 0.58871 1.07426 0.0
N455 N 0.14848 0.61168 0.94617 0.0
C456 C 0.14255 0.62935 0.89844 0.0
C457 C 0.2186 0.6458 0.92652 0.0
C458 C 0.18554 0.61883 0.95942 0.0
C459 C 0.21298 0.66616 0.88042 0.0
C460 C 0.17466 0.65741 0.86589 0.0
H461 H 0.26043 0.59232 1.08703 0.0
H462 H 0.28971 0.63657 1.00013 0.0
H463 H 0.28149 0.67197 0.91538 0.0
O464 O 0.09142 0.51547 1.02427 0.0
O465 O 0.08938 0.55947 1.11266 0.0
O466 O 0.06486 0.59875 0.14912 0.0
O467 O 0.07811 0.5324 0.94127 0.0
O468 O 0.14379 0.63796 1.02879 0.0
O469 O 0.10508 0.6635 1.00374 0.0
O470 O 0.10564 0.67063 1.11298 0.0
O471 O 0.02828 0.61019 0.96824 0.0
O472 O 0.05673 0.57365 0.93405 0.0
O473 O 0.05811 0.68529 1.10516 0.0
O474 O 0.00474 0.57489 1.08738 0.0
O475 O 0.05049 0.57643 1.03919 0.0
C476 C 0.07766 0.5715 0.16131 0.0
C477 C 0.09878 0.4863 0.93655 0.0
C478 C 0.15156 0.50967 0.86721 0.0
C479 C 0.12733 0.47874 0.82878 0.0
C480 C 0.07487 0.45415 0.89881 0.0
C481 C 0.09015 0.44919 0.84641 0.0
C482 C 0.13876 0.51011 0.92399 0.0
C483 C 0.1416 0.66956 1.01201 0.0
C484 C 0.08053 0.50487 0.97001 0.0
C485 C 0.26086 0.63241 0.98961 0.0
C486 C 0.25619 0.65215 0.94141 0.0
C487 C 0.03125 0.588 0.92351 0.0
C488 C 0.11841 0.73328 0.15474 0.0
C489 C 0.12776 0.77208 0.24305 0.0
C490 C 0.16505 0.8013 0.22321 0.0
C491 C 0.15566 0.76245 0.13451 0.0
C492 C 0.1043 0.73875 0.20789 0.0
C493 C 0.17873 0.7966 0.16847 0.0
C494 C 0.01686 0.55333 1.06468 0.0
C495 C 0.09414 0.69644 1.12219 0.0
H496 H 0.13424 0.48112 0.78302 0.0
H497 H 0.04335 0.43603 0.90414 0.0
H498 H 0.07109 0.4262 0.81564 0.0
H499 H 0.15684 0.53521 0.9518 0.0
H500 H 0.1836 0.82699 0.25028 0.0
H501 H 0.16671 0.75889 1.09268 0.0
H502 H 0.07561 0.71585 0.22362 0.0
H503 H 0.20751 0.81901 0.15286 0.0
Tb504 Tb 0.85198 0.45072 0.58194 0.0
C505 C 0.8493 0.60069 0.50273 0.0
N506 N 0.85138 0.56881 0.48285 0.0
C507 C 0.81197 0.5649 0.39832 0.0
C508 C 0.82752 0.61513 0.47196 0.0
C509 C 0.83421 0.552 0.42999 0.0
C510 C 0.8083 0.59641 0.41961 0.0
C511 C 0.86851 0.65279 0.57537 0.0
C512 C 0.86959 0.61932 0.55354 0.0
C513 C 0.84617 0.6666 0.54576 0.0
C514 C 0.82561 0.64775 0.49423 0.0
Tb515 Tb 0.89107 0.55151 0.5359 0.0
N516 N 0.89194 0.60586 0.57993 0.0
C517 C 0.89065 0.67208 0.62551 0.0
C518 C 0.91484 0.62605 0.62787 0.0
C519 C 0.91407 0.65873 0.65165 0.0
H520 H 0.83767 0.52884 0.41116 0.0
H521 H 0.93235 0.67417 0.68948 0.0
H522 H 0.88598 0.38823 0.56518 0.0
H523 H 0.75198 0.46771 0.43156 0.0
H524 H 0.93547 0.61897 0.64715 0.0
H525 H 0.89054 0.69779 0.64359 0.0
H526 H 0.80933 0.49062 0.49615 0.0
H527 H 0.79798 0.5507 0.3571 0.0
H528 H 0.84507 0.69222 0.56195 0.0
H529 H 0.80869 0.65891 0.47155 0.0
H530 H 0.86151 0.32118 0.52535 0.0
H531 H 0.79109 0.6064 0.39495 0.0
H532 H 0.71619 0.39753 0.40115 0.0
N533 N 0.83647 0.39221 0.53586 0.0
C534 C 0.80211 0.37459 0.50451 0.0
C535 C 0.84477 0.33601 0.51841 0.0
C536 C 0.78779 0.33683 0.47864 0.0
C537 C 0.85848 0.37399 0.54143 0.0
C538 C 0.80914 0.31719 0.48713 0.0
N539 N 0.8005 0.43408 0.5159 0.0
C540 C 0.79099 0.4598 0.49008 0.0
C541 C 0.75163 0.38167 0.45391 0.0
C542 C 0.78347 0.39631 0.4942 0.0
C543 C 0.73888 0.4072 0.43408 0.0
C544 C 0.75919 0.44676 0.45109 0.0
H545 H 0.79892 0.28798 0.46854 0.0
H546 H 0.74203 0.29169 0.42316 0.0
H547 H 0.71172 0.33209 0.39909 0.0
O548 O 0.81187 0.39705 0.62159 0.0
O549 O 0.87124 0.44735 0.48732 0.0
O550 O 0.87542 0.50431 0.45259 0.0
O551 O 0.87413 0.42631 0.64304 0.0
O552 O 0.80842 0.46885 0.6121 0.0
O553 O 0.83038 0.53152 0.57619 0.0
O554 O 0.93589 0.60974 0.517 0.0
O555 O 0.91593 0.55424 0.63509 0.0
O556 O 0.89059 0.4903 0.66575 0.0
O557 O 0.92583 0.56053 0.46116 0.0
O558 O 0.93687 0.54573 0.57505 0.0
O559 O 0.90861 0.48326 0.54206 0.0
C560 C 0.87279 0.468 0.43901 0.0
C561 C 0.82942 0.39897 0.71886 0.0
C562 C 0.80457 0.42607 0.79274 0.0
C563 C 0.82656 0.41898 0.83475 0.0
C564 C 0.85292 0.39424 0.76046 0.0
C565 C 0.85232 0.40543 0.81786 0.0
C566 C 0.805 0.41437 0.73522 0.0
C567 C 0.80245 0.49927 0.60385 0.0
C568 C 0.83857 0.39872 0.65754 0.0
C569 C 0.75368 0.32071 0.44323 0.0
C570 C 0.73603 0.34342 0.43016 0.0
C571 C 0.91447 0.52985 0.68025 0.0
C572 C 0.9548 0.62417 0.41803 0.0
C573 C 0.00362 0.68153 0.36414 0.0
C574 C 0.9772 0.67031 0.31611 0.0
C575 C 0.92892 0.61292 0.36963 0.0
C576 C -0.00864 0.65933 0.41606 0.0
C577 C 0.93961 0.63681 0.31972 0.0
C578 C 0.93828 0.51409 0.56541 0.0
C579 C 0.94623 0.59882 0.46953 0.0
H580 H 0.82599 0.42636 0.87999 0.0
H581 H 0.87384 0.38497 0.74777 0.0
H582 H 0.87329 0.40536 0.84875 0.0
H583 H 0.78967 0.42115 0.70234 0.0
H584 H -0.01421 0.68734 0.27571 0.0
H585 H 0.90096 0.58554 0.36977 0.0
H586 H 0.01128 0.66821 0.45369 0.0
H587 H 0.91911 0.62876 0.28316 0.0
Tb588 Tb 0.39458 0.85925 0.92785 0.0
C589 C 0.31378 0.97051 0.92155 0.0
N590 N 0.30632 0.93385 0.93677 0.0
C591 C 0.26792 0.93435 1.01915 0.0
C592 C 0.30007 -0.00859 0.95576 0.0
C593 C 0.28229 0.91491 0.98383 0.0
C594 C 0.27734 0.97302 1.0056 0.0
C595 C 0.34145 0.02382 0.85122 0.0
C596 C 0.33344 0.98609 0.8697 0.0
C597 C 0.3298 0.04589 0.88635 0.0
C598 C 0.3088 0.02954 0.9384 0.0
Tb599 Tb 0.33705 0.9078 0.881 0.0
N600 N 0.34346 0.96356 0.83639 0.0
C601 C 0.3606 0.03814 0.79778 0.0
C602 C 0.35898 0.97605 0.78147 0.0
C603 C 0.36828 0.01373 0.76165 0.0
H604 H 0.27459 0.88514 0.99556 0.0
H605 H 0.38188 0.02408 0.71908 0.0
H606 H 0.34348 0.81676 0.79714 0.0
H607 H 0.32043 0.76248 1.10808 0.0
H608 H 0.36559 0.9576 0.75385 0.0
H609 H 0.36934 0.06802 0.78481 0.0
H610 H 0.357 0.82861 1.06084 0.0
H611 H 0.24969 0.91949 1.05696 0.0
H612 H 0.33596 0.07513 0.87286 0.0
H613 H 0.29894 0.04631 0.96433 0.0
H614 H 0.33175 0.75841 0.73976 0.0
H615 H 0.26622 0.98803 1.03304 0.0
H616 H 0.33091 0.70785 1.07311 0.0
N617 N 0.36654 0.80192 0.8722 0.0
C618 C 0.36796 0.77185 0.89982 0.0
C619 C 0.34304 0.76231 0.78437 0.0
C620 C 0.36024 0.73708 0.86989 0.0
C621 C 0.35075 0.79605 0.81665 0.0
C622 C 0.34936 0.73341 0.81035 0.0
N623 N 0.37087 0.80538 0.98641 0.0
C624 C 0.35703 0.80327 1.04171 0.0
C625 C 0.35856 0.73852 0.99245 0.0
C626 C 0.36849 0.77294 0.9603 0.0
C627 C 0.34312 0.73542 1.04884 0.0
C628 C 0.33881 0.76674 1.0705 0.0
H629 H 0.3424 0.70715 0.78536 0.0
H630 H 0.3559 0.67956 0.88079 0.0
H631 H 0.35486 0.68119 0.98864 0.0
O632 O 0.4413 0.86774 0.98382 0.0
O633 O 0.41069 0.87189 0.82918 0.0
O634 O 0.3729 0.89907 0.79681 0.0
O635 O 0.44752 0.86876 0.88994 0.0
O636 O 0.32924 0.81435 0.92964 0.0
O637 O 0.30946 0.85842 0.94986 0.0
O638 O 0.2799 0.89139 0.85386 0.0
O639 O 0.36012 0.93149 0.97863 0.0
O640 O 0.39575 0.90084 1.00891 0.0
O641 O 0.30624 0.85594 0.8294 0.0
O642 O 0.39679 0.95742 0.86496 0.0
O643 O 0.39221 0.90919 0.90971 0.0
C644 C 0.39975 0.88609 0.78291 0.0
C645 C 0.47882 0.84056 0.94325 0.0
C646 C 0.48699 0.7959 1.00756 0.0
C647 C 0.52115 0.80304 0.97732 0.0
C648 C 0.51313 0.84829 0.9126 0.0
C649 C 0.53321 0.82803 0.928 0.0
C650 C 0.46337 0.81026 0.9845 0.0
C651 C 0.30025 0.82047 0.94558 0.0
C652 C 0.46285 0.86771 0.93996 0.0
C653 C 0.35988 0.70602 0.9022 0.0
C654 C 0.35888 0.70671 0.96399 0.0
C655 C 0.3829 0.92769 1.02131 0.0
C656 C 0.25594 0.85482 0.76801 0.0
C657 C 0.24845 0.89026 0.68634 0.0
C658 C 0.21009 0.85883 0.67559 0.0
C659 C 0.21751 0.8231 0.75771 0.0
C660 C 0.27184 0.88682 0.72973 0.0
C661 C 0.19509 0.82467 0.7104 0.0
C662 C 0.41691 0.94336 0.88774 0.0
C663 C 0.2749 0.86001 0.82558 0.0
H664 H 0.54004 0.79248 0.99477 0.0
H665 H 0.52529 0.87107 0.87909 0.0
H666 H 0.56015 0.83459 0.90534 0.0
H667 H 0.43788 0.8053 1.00964 0.0
H668 H 0.19173 0.86116 0.64172 0.0
H669 H 0.20407 0.79834 0.78783 0.0
H670 H 0.3011 0.91129 0.7379 0.0
H671 H 0.16528 0.80044 0.70295 0.0
Tb672 Tb 0.51015 0.40648 0.24393 0.0
C673 C 0.32192 0.28561 0.25155 0.0
N674 N 0.356 0.28743 0.26876 0.0
C675 C 0.3222 0.24562 0.35168 0.0
C676 C 0.28673 0.26456 0.28428 0.0
C677 C 0.35636 0.26713 0.31798 0.0
C678 C 0.28727 0.24459 0.33506 0.0
C679 C 0.28802 0.30424 0.18089 0.0
C680 C 0.32229 0.30421 0.20011 0.0
C681 C 0.25301 0.28432 0.21376 0.0
C682 C 0.25224 0.26408 0.26512 0.0
Tb683 Tb 0.41175 0.32858 0.21515 0.0
N684 N 0.35634 0.32226 0.16881 0.0
C685 C 0.29012 0.32489 1.12981 0.0
C686 C 0.35693 0.33835 1.11496 0.0
C687 C 0.32457 0.34156 1.096 0.0
H688 H 0.38264 0.26683 0.33174 0.0
H689 H 0.32674 0.35761 1.05609 0.0
H690 H 0.55071 0.49744 0.18215 0.0
H691 H 0.58313 0.31999 0.28859 0.0
H692 H 0.3834 0.35138 1.08876 0.0
H693 H 0.26517 0.32805 1.11719 0.0
H694 H 0.54035 0.34575 0.31166 0.0
H695 H 0.32289 0.2299 0.39056 0.0
H696 H 0.22632 0.28401 0.19946 0.0
H697 H 0.22494 0.24826 0.28969 0.0
H698 H 0.60982 0.54147 1.12467 0.0
H699 H 0.26086 0.22802 0.36135 0.0
H700 H 0.63322 0.35125 0.20957 0.0
N701 N 0.56292 0.44969 0.18532 0.0
C702 C 0.58949 0.43803 0.1715 0.0
C703 C 0.6043 0.51232 0.13694 0.0
C704 C 0.62306 0.46214 0.13657 0.0
C705 C 0.5708 0.48712 0.16979 0.0
C706 C 0.62988 0.49933 1.11872 0.0
N707 N 0.5558 0.38415 0.23691 0.0
C708 C 0.55939 0.3583 0.27462 0.0
C709 C 0.61381 0.39244 0.18622 0.0
C710 C 0.58504 0.40365 0.19667 0.0
C711 C 0.61186 0.3607 0.21726 0.0
C712 C 0.58445 0.34364 0.2621 0.0
H713 H 0.65555 0.51879 1.09261 0.0
H714 H 0.67574 0.46739 1.09622 0.0
H715 H 0.66696 0.40582 0.14024 0.0
O716 O 0.53726 0.41624 0.32618 0.0
O717 O 0.51091 0.41305 0.14484 0.0
O718 O 0.44799 0.36242 1.12294 0.0
O719 O 0.54383 0.46536 0.27601 0.0
O720 O 0.49203 0.34028 0.24007 0.0
O721 O 0.43994 0.31863 0.29249 0.0
O722 O 0.38277 0.2674 0.20162 0.0
O723 O 0.40809 0.35507 0.30814 0.0
O724 O 0.46905 0.40987 0.31753 0.0
O725 O 0.43898 0.30551 0.16015 0.0
O726 O 0.40591 0.37786 0.2018 0.0
O727 O 0.47171 0.42697 0.20444 0.0
C728 C 0.48462 0.39325 1.10255 0.0
C729 C 0.60264 0.47026 0.31395 0.0
C730 C 0.65759 0.46009 0.33981 0.0
C731 C 0.68425 0.49634 0.3134 0.0
C732 C 0.62942 0.50703 0.28877 0.0
C733 C 0.66996 0.51934 0.28683 0.0
C734 C 0.61721 0.44674 0.33525 0.0
C735 C 0.46902 0.31317 0.27904 0.0
C736 C 0.55927 0.45416 0.31658 0.0
C737 C 0.65009 0.44952 1.12337 0.0
C738 C 0.64521 0.41458 0.14801 0.0
C739 C 0.43188 0.38853 0.34009 0.0
C740 C 0.39256 0.24598 1.11221 0.0
C741 C 0.34758 0.23341 1.03091 0.0
C742 C 0.34145 0.19492 1.02471 0.0
C743 C 0.38636 0.20736 1.10686 0.0
C744 C 0.37461 0.25918 1.07244 0.0
C745 C 0.36152 0.1822 1.06219 0.0
C746 C 0.43382 0.4131 0.19157 0.0
C747 C 0.40949 0.26911 0.16588 0.0
H748 H 0.71585 0.5078 0.31633 0.0
H749 H 0.61921 0.52603 0.27055 0.0
H750 H 0.6905 0.54758 0.26722 0.0
H751 H 0.59689 0.41888 0.35429 0.0
H752 H 0.32065 0.17472 0.99233 0.0
H753 H 0.39926 0.1962 0.13846 0.0
H754 H 0.3793 0.2888 1.07687 0.0
H755 H 0.35641 0.15229 1.0584 0.0
Tb756 Tb 0.10759 0.5203 0.57741 0.0
C757 C 0.00167 0.33406 0.59409 0.0
N758 N 0.04006 0.36273 0.60064 0.0
C759 C 0.04829 0.32403 0.67618 0.0
C760 C -0.0155 0.29992 0.62989 0.0
C761 C 0.06387 0.35746 0.63979 0.0
C762 C 0.00827 0.2954 0.67187 0.0
C763 C 0.94137 0.3075 0.53707 0.0
C764 C 0.98068 0.33773 0.54825 0.0
C765 C 0.92313 0.27457 0.57466 0.0
C766 C 0.94473 0.27075 0.62106 0.0
Tb767 Tb 0.06345 0.41666 0.53907 0.0
N768 N -0.00019 0.3695 0.51204 0.0
C769 C 0.92197 0.31066 0.4875 0.0
C770 C 0.9813 0.37152 0.46196 0.0
C771 C 0.94192 0.34299 0.45029 0.0
H772 H 0.09504 0.37861 0.64317 0.0
H773 H 0.92682 0.34574 0.4126 0.0
H774 H 0.04716 0.54516 0.63763 0.0
H775 H 0.22472 0.59505 0.41525 0.0
H776 H -0.00345 0.39533 0.43095 0.0
H777 H 0.89186 0.28803 0.47701 0.0
H778 H 0.18318 0.54147 0.48267 0.0
H779 H 0.06721 0.32037 0.7075 0.0
H780 H 0.89279 0.25137 0.56711 0.0
H781 H 0.9308 0.24459 0.64863 0.0
H782 H 0.03057 0.59798 0.62631 0.0
H783 H -0.00373 0.26955 0.70008 0.0
H784 H 0.2141 0.65179 0.40139 0.0
N785 N 0.0909 0.56841 0.57126 0.0
C786 C 0.11217 0.59883 0.53341 0.0
C787 C 0.05399 0.59907 0.60094 0.0
C788 C 0.10515 0.63084 0.52823 0.0
C789 C 0.0627 0.56855 0.60597 0.0
C790 C 0.07516 0.63038 0.56211 0.0
N791 N 0.14719 0.56635 0.50745 0.0
C792 C 0.17757 0.56571 0.47807 0.0
C793 C 0.16545 0.62971 0.46287 0.0
C794 C 0.14188 0.59826 0.5013 0.0
C795 C 0.19536 0.62823 0.43142 0.0
C796 C 0.20147 0.59619 0.43921 0.0
H797 H 0.06824 0.65402 0.55888 0.0
H798 H 0.12362 0.68722 0.48563 0.0
H799 H 0.1766 0.68621 0.42836 0.0
O800 O 0.14851 0.52558 0.64263 0.0
O801 O 0.09742 0.52152 0.47602 0.0
O802 O 0.06886 0.45616 0.44867 0.0
O803 O 0.13525 0.57239 0.62889 0.0
O804 O 0.14878 0.49699 0.55701 0.0
O805 O 0.11339 0.44097 0.60333 0.0
O806 O 0.06664 0.36779 0.50923 0.0
O807 O 0.03716 0.41708 0.63574 0.0
O808 O 0.06238 0.48309 0.65742 0.0
O809 O 0.11149 0.4264 0.48466 0.0
O810 O 0.03454 0.44379 0.50332 0.0
O811 O 0.04409 0.48441 0.57977 0.0
C812 C 0.08268 0.49567 0.43068 0.0
C813 C 0.20278 0.59129 0.64465 0.0
C814 C 0.25006 0.62134 0.72071 0.0
C815 C 0.26618 0.65871 0.69381 0.0
C816 C 0.21701 0.6283 0.61674 0.0
C817 C 0.25107 0.66162 0.63899 0.0
C818 C 0.22713 0.58766 0.68603 0.0
C819 C 0.14875 0.46805 0.58692 0.0
C820 C 0.16 0.56275 0.65058 0.0
C821 C 0.12848 0.66227 0.49001 0.0
C822 C 0.15862 0.66172 0.45744 0.0
C823 C 0.03828 0.44415 0.67632 0.0
C824 C 0.09158 0.37447 0.41417 0.0
C825 C 0.04742 0.33296 0.33563 0.0
C826 C 0.07906 0.34962 0.29588 0.0
C827 C 0.1232 0.39072 0.37437 0.0
C828 C 0.05409 0.34479 0.39458 0.0
C829 C 0.11694 0.37805 0.3155 0.0
C830 C 0.02152 0.45942 0.53896 0.0
C831 C 0.09686 0.3885 0.47567 0.0
H832 H 0.28509 0.68544 0.71846 0.0
H833 H 0.20005 0.63255 0.58282 0.0
H834 H 0.26135 0.69044 0.61929 0.0
H835 H 0.21622 0.55881 0.70648 0.0
H836 H 0.07425 0.34124 0.24981 0.0
H837 H 0.15247 0.41337 0.38861 0.0
H838 H 0.02905 0.33201 0.42427 0.0
H839 H 0.14132 0.39094 0.28477 0.0
Tb840 Tb 0.55664 0.1029 0.91767 0.0
C841 C 0.72383 0.14403 0.8544 0.0
N842 N 0.68773 0.13347 0.83074 0.0
C843 C 0.71961 0.18068 0.75257 0.0
C844 C 0.75911 0.17373 0.82856 0.0
C845 C 0.6854 0.15166 0.78031 0.0
C846 C 0.75663 0.19157 0.7765 0.0
C847 C 0.76188 0.13606 0.9323 0.0
C848 C 0.72518 0.12509 0.90506 0.0
C849 C 0.79701 0.16648 0.90783 0.0
C850 C 0.79567 0.18492 0.85565 0.0
Tb851 Tb 0.63429 0.07916 0.87321 0.0
N852 N 0.69073 0.09473 0.92613 0.0
C853 C 0.76231 0.11521 0.98213 0.0
C854 C 0.69164 0.07248 0.97204 0.0
C855 C 0.72706 0.08288 1.00157 0.0
H856 H 0.65733 0.14558 0.76306 0.0
H857 H 0.72733 0.06506 1.03795 0.0
H858 H 0.4684 0.07096 0.85278 0.0
H859 H 0.65595 0.26221 0.95794 0.0
H860 H 0.66568 0.0448 0.98274 0.0
H861 H 0.78986 0.12271 1.0043 0.0
H862 H 0.61484 0.19311 0.98819 0.0
H863 H 0.71733 0.19509 0.71318 0.0
H864 H 0.82544 0.17537 0.92819 0.0
H865 H 0.82304 0.20797 0.83679 0.0
H866 H 0.44055 0.0937 0.7735 0.0
H867 H 0.78307 0.21439 0.75523 0.0
H868 H 0.65091 0.28217 0.85624 0.0
N869 N 0.52664 0.12091 0.84541 0.0
C870 C 0.54943 0.15737 0.8211 0.0
C871 C 0.47127 0.11155 0.78605 0.0
C872 C 0.53497 0.1706 0.77441 0.0
C873 C 0.48709 0.09886 0.83078 0.0
C874 C 0.49571 0.14663 0.75597 0.0
N875 N 0.5932 0.17136 0.9011 0.0
C876 C 0.61386 0.20037 0.94264 0.0
C877 C 0.60582 0.22323 0.83086 0.0
C878 C 0.58471 0.18317 0.84907 0.0
C879 C 0.63417 0.2513 0.86882 0.0
C880 C 0.63679 0.24015 0.92617 0.0
H881 H 0.48337 0.15597 0.72077 0.0
H882 H 0.54875 0.21902 0.71438 0.0
H883 H 0.61113 0.26533 0.764 0.0
O884 O 0.52082 0.12692 0.93464 0.0
O885 O 0.54704 0.08724 0.81667 0.0
O886 O 0.60105 0.08462 0.78455 0.0
O887 O 0.51114 0.0762 0.9818 0.0
O888 O 0.61829 0.13687 0.96427 0.0
O889 O 0.6562 0.14215 0.88833 0.0
O890 O 0.6211 0.04325 0.79811 0.0
O891 O 0.6091 0.0526 0.97513 0.0
O892 O 0.55928 0.0657 1.00015 0.0
O893 O 0.66002 0.04315 0.86501 0.0
O894 O 0.58162 0.04102 0.91022 0.0
O895 O 0.53312 0.04553 0.87197 0.0
C896 C 0.56729 0.0861 0.76927 0.0
C897 C 0.51195 0.13085 1.02881 0.0
C898 C 0.56883 0.17885 1.0861 0.0
C899 C 0.55519 0.20599 1.07967 0.0
C900 C 0.4962 0.15623 1.02939 0.0
C901 C 0.51871 0.19442 1.05243 0.0
C902 C 0.54823 0.14285 1.05607 0.0
C903 C 0.65437 0.15571 0.93971 0.0
C904 C 0.50339 0.10497 0.97875 0.0
C905 C 0.5589 0.20865 0.75116 0.0
C906 C 0.59453 0.23496 0.77926 0.0
C907 C 0.58108 0.04863 1.01831 0.0
C908 C 0.67113 0.03043 0.76848 0.0
C909 C 0.68061 -0.01012 0.69733 0.0
C910 C 0.70777 0.02424 0.66687 0.0
C911 C 0.6976 0.06473 0.73765 0.0
C912 C 0.66563 -0.00618 0.75116 0.0
C913 C 0.71686 0.06164 0.6879 0.0
C914 C 0.55273 0.0266 0.87484 0.0
C915 C 0.64467 0.03028 0.81366 0.0
H916 H 0.57127 0.23544 1.09781 0.0
H917 H 0.46914 0.14843 1.00549 0.0
H918 H 0.50786 0.21507 1.04945 0.0
H919 H 0.56182 0.12465 1.05159 0.0
H920 H 0.72074 0.02221 0.62598 0.0
H921 H 0.7026 0.09345 0.75078 0.0
H922 H 0.64536 0.96752 0.77574 0.0
H923 H 0.7372 0.08805 0.66389 0.0
Tb924 Tb 0.44146 0.57877 0.25259 0.0
C925 C 0.63434 0.65368 0.23227 0.0
N926 N 0.60737 0.66096 0.25795 0.0
C927 C 0.65142 0.69189 0.33997 0.0
C928 C 0.67037 0.66358 0.26047 0.0
C929 C 0.61624 0.68175 0.30977 0.0
C930 C 0.67831 0.68209 0.31572 0.0
C931 C 0.65548 0.63448 0.14446 0.0
C932 C 0.62712 0.63966 0.1753 0.0
C933 C 0.69034 0.64159 0.17351 0.0
C934 C 0.69782 0.65622 0.23148 0.0
Tb935 Tb 0.54855 0.63831 0.20864 0.0
N936 N 0.59352 0.63411 0.14878 0.0
C937 C 0.64851 0.62369 1.08493 0.0
C938 C 0.58781 0.62608 1.08977 0.0
C939 C 0.61476 0.62 1.05731 0.0
H940 H 0.59541 0.68921 0.32874 0.0
H941 H 0.60953 0.61251 1.01099 0.0
H942 H 0.42311 0.61119 1.12084 0.0
H943 H 0.42813 0.62933 0.46921 0.0
H944 H 0.56244 0.62391 1.06734 0.0
H945 H 0.66946 0.61926 1.05958 0.0
H946 H 0.45634 0.60465 0.39533 0.0
H947 H 0.65777 0.70724 0.38185 0.0
H948 H 0.71228 0.63724 0.1509 0.0
H949 H 0.72547 0.66303 0.25267 0.0
H950 H 0.37187 0.6235 1.08402 0.0
H951 H 0.70566 0.69021 0.33895 0.0
H952 H 0.37541 0.6437 0.44105 0.0
N953 N 0.40592 0.60594 0.21141 0.0
C954 C 0.38278 0.61185 0.24997 0.0
C955 C 0.37438 0.62001 1.13088 0.0
C956 C 0.35488 0.62243 0.23049 0.0
C957 C 0.40315 0.61182 0.15238 0.0
C958 C 0.34969 0.62478 0.17 0.0
N959 N 0.41915 0.60327 0.32566 0.0
C960 C 0.43251 0.60931 0.38241 0.0
C961 C 0.37325 0.62552 0.35048 0.0
C962 C 0.39077 0.61199 0.30931 0.0
C963 C 0.38698 0.6318 0.40856 0.0
C964 C 0.41674 0.62372 0.42457 0.0
H965 H 0.32834 0.63244 0.15322 0.0
H966 H 0.31285 0.64017 0.25787 0.0
H967 H 0.32965 0.64372 0.36305 0.0
O968 O 0.40016 0.53039 0.30153 0.0
O969 O 0.43961 0.56486 0.15201 0.0
O970 O 0.50411 0.60586 1.1216 0.0
O971 O 0.39942 0.52789 0.20723 0.0
O972 O 0.46258 0.64351 0.24593 0.0
O973 O 0.52451 0.66363 0.27852 0.0
O974 O 0.5922 0.69719 0.19312 0.0
O975 O 0.54838 0.61313 0.30654 0.0
O976 O 0.48187 0.57483 0.33289 0.0
O977 O 0.53157 0.6749 0.16423 0.0
O978 O 0.53886 0.57925 0.1892 0.0
O979 O 0.49457 0.58255 0.23491 0.0
C980 C 0.46474 0.57834 1.10558 0.0
C981 C 0.33738 0.49931 0.25289 0.0
C982 C 0.27919 0.48965 0.30572 0.0
C983 C 0.25491 0.46743 0.2586 0.0
C984 C 0.31305 0.47712 0.20549 0.0
C985 C 0.27206 0.46224 0.20776 0.0
C986 C 0.32041 0.50781 0.30035 0.0
C987 C 0.49499 0.6716 0.2711 0.0
C988 C 0.37983 0.51169 0.25478 0.0
C989 C 0.33454 0.6322 0.2719 0.0
C990 C 0.34415 0.6343 0.33177 0.0
C991 C 0.5216 0.58898 0.34822 0.0
C992 C 0.58175 0.73741 1.12641 0.0
C993 C 0.61446 0.76451 1.03352 0.0
C994 C 0.61357 0.79949 1.04421 0.0
C995 C 0.5836 0.7736 0.13894 0.0
C996 C 0.59768 0.73319 1.07413 0.0
C997 C 0.59842 0.80409 1.09735 0.0
C998 C 0.50451 0.55867 0.21102 0.0
C999 C 0.56683 0.70618 0.171 0.0
H1000 H 0.22299 0.45267 0.26231 0.0
H1001 H 0.32555 0.47066 0.16745 0.0
H1002 H 0.25338 0.4448 0.17143 0.0
H1003 H 0.33909 0.52521 0.33663 0.0
H1004 H 0.62555 0.82337 1.0124 0.0
H1005 H 0.57422 0.77854 0.18128 0.0
H1006 H 0.59796 0.70592 1.06567 0.0
H1007 H 0.59893 0.83158 1.10689 0.0
C1008 C 0.4589 0.20519 0.27184 0.0
C1009 C 0.46672 0.19659 0.33059 0.0
C1010 C 0.46966 0.26143 0.35676 0.0
C1011 C 0.46975 0.27333 0.29651 0.0
N1012 N 0.47613 0.25531 0.19683 0.0
N1013 N 0.48589 0.22463 0.42816 0.0
C1014 C 0.46822 0.24497 0.25446 0.0
C1015 C 0.47465 0.22758 0.37229 0.0
N1016 N 0.44217 0.17632 0.23018 0.0
N1017 N 0.46257 0.28099 0.40029 0.0
H1018 H 0.48697 0.19989 0.44313 0.0
H1019 H 0.49665 0.24808 0.45819 0.0
H1020 H 0.45391 0.30157 0.39074 0.0
H1021 H 0.45955 0.27271 0.44445 0.0
H1022 H 0.43314 0.1466 0.23774 0.0
H1023 H 0.43314 0.1466 0.23774 0.0
H1024 H 0.47499 0.23547 0.16485 0.0
H1025 H 0.48788 0.28449 0.18285 0.0
C1026 C 0.24686 0.46159 0.5899 0.0
C1027 C 0.26261 0.47385 0.64798 0.0
C1028 C 0.19935 0.47323 0.6692 0.0
C1029 C 0.18795 0.46964 0.6085 0.0
N1030 N 0.20644 0.46403 0.50982 0.0
N1031 N 0.2529 0.49723 0.74131 0.0
C1032 C 0.21367 0.4653 0.56867 0.0
C1033 C 0.2385 0.48134 0.68706 0.0
N1034 N 0.26071 0.44227 0.55644 0.0
N1035 N 0.17207 0.46628 0.71109 0.0
H1036 H 0.28122 0.50465 0.75558 0.0
H1037 H 0.23811 0.50671 0.76925 0.0
H1038 H 0.14322 0.45894 0.70042 0.0
H1039 H 0.17715 0.46258 0.75516 0.0
H1040 H 0.24486 0.42534 0.52003 0.0
H1041 H 0.28408 0.43833 0.57002 0.0
H1042 H 0.22483 0.46211 0.47888 0.0
H1043 H 0.18428 0.46839 0.49209 0.0
C1044 C 0.73995 0.24178 1.04153 0.0
C1045 C 0.76872 0.26776 0.99951 0.0
C1046 C 0.71963 0.22404 0.92255 0.0
C1047 C 0.69212 0.19552 0.96319 0.0
N1048 N 0.68686 0.17414 1.06347 0.0
N1049 N 0.78911 0.26364 0.90025 0.0
C1050 C 0.70518 0.20376 1.02355 0.0
C1051 C 0.75964 0.25283 0.94026 0.0
N1052 N 0.7467 0.25213 1.09949 0.0
N1053 N 0.70783 0.22509 0.86635 0.0
H1054 H 0.81886 0.28168 0.91025 0.0
H1055 H 0.78374 0.25259 0.85739 0.0
H1056 H 0.67852 0.2079 0.85249 0.0
H1057 H 0.72624 0.24667 0.83629 0.0
H1058 H 0.72828 0.23458 0.13293 0.0
H1059 H 0.77023 0.27915 1.11383 0.0
H1060 H 0.69963 0.17506 1.10423 0.0
H1061 H 0.66217 0.14689 1.05272 0.0
C1062 C 0.49166 0.72134 0.3486 0.0
C1063 C 0.49692 0.71213 0.28946 0.0
C1064 C 0.50406 0.77866 0.26316 0.0
C1065 C 0.49304 0.78547 0.3206 0.0
N1066 N 0.46744 0.75367 0.415 0.0
N1067 N 0.49746 0.73035 0.18872 0.0
C1068 C 0.48399 0.75382 0.36218 0.0
C1069 C 0.50007 0.74046 0.24662 0.0
N1070 N 0.49504 0.69962 0.3929 0.0
N1071 N 0.51767 0.80835 0.22269 0.0
H1072 H 0.48801 0.70155 0.17468 0.0
H1073 H 0.50203 0.74974 0.15458 0.0
H1074 H 0.51655 0.83428 0.22836 0.0
H1075 H 0.53272 0.80822 0.18504 0.0
H1076 H 0.49343 0.7051 0.43742 0.0
H1077 H 0.50334 0.67843 0.3848 0.0
H1078 H 0.45638 0.72968 0.44378 0.0
H1079 H 0.46108 0.77544 0.42789 0.0
C1080 C 0.70857 0.51625 0.61323 0.0
C1081 C 0.68592 0.49134 0.66073 0.0
C1082 C 0.73453 0.46734 0.66424 0.0
C1083 C 0.76072 0.49527 0.6214 0.0
N1084 N 0.76325 0.53849 0.54425 0.0
N1085 N 0.68797 0.4538 0.7436 0.0
C1086 C 0.7454 0.51835 0.59404 0.0
C1087 C 0.70275 0.47098 0.69041 0.0
N1088 N 0.69475 0.53829 0.5863 0.0
N1089 N 0.73497 0.4331 0.67347 0.0
H1090 H 0.6643 0.45432 0.76382 0.0
H1091 H 0.70126 0.44141 0.76906 0.0
H1092 H 0.74666 0.42232 0.64224 0.0
H1093 H 0.71635 0.41153 0.70334 0.0
H1094 H 0.71067 0.56106 0.55668 0.0
H1095 H 0.66687 0.53449 0.59508 0.0
H1096 H 0.7581 0.55945 0.52436 0.0
H1097 H 0.77945 0.5298 0.51847 0.0
C1098 C 0.2486 0.76947 1.02388 0.0
C1099 C 0.25829 0.78372 0.96448 0.0
C1100 C 0.18802 0.73008 0.94049 0.0
C1101 C 0.18111 0.71063 0.99668 0.0
N1102 N 0.21117 0.7141 1.09135 0.0
N1103 N 0.23656 0.76594 0.86411 0.0
C1104 C 0.21361 0.73092 1.03775 0.0
C1105 C 0.22763 0.76074 0.92249 0.0
N1106 N 0.27168 0.79365 1.06825 0.0
N1107 N 0.15713 0.7194 0.90261 0.0
H1108 H 0.26525 0.78444 0.84928 0.0
H1109 H 0.21676 0.74789 0.83157 0.0
H1110 H 0.1288 0.69603 0.91076 0.0
H1111 H 0.15976 0.73523 0.8642 0.0
H1112 H 0.26493 0.78719 1.11268 0.0
H1113 H 0.29501 0.82219 1.06006 0.0
H1114 H 0.23508 0.72464 1.12047 0.0
H1115 H 0.18602 0.68828 1.10507 0.0
C1116 C 0.60225 0.15189 0.15135 0.0
C1117 C 0.60325 0.18545 1.12411 0.0
C1118 C 0.66354 0.22727 0.18101 0.0
C1119 C 0.66338 0.19313 0.20186 0.0
N1120 N 0.64231 0.12442 0.18327 0.0
N1121 N 0.64705 0.25569 1.10046 0.0
C1122 C 0.63733 0.15633 0.17532 0.0
C1123 C 0.63746 0.22347 0.13447 0.0
N1124 N 0.56754 0.11753 0.16186 0.0
N1125 N 0.68913 0.26298 0.20551 0.0
H1126 H 0.63238 0.25461 1.06141 0.0
H1127 H 0.63238 0.25461 1.06141 0.0
H1128 H 0.69044 0.28935 0.19255 0.0
H1129 H 0.69044 0.28935 0.19255 0.0
H1130 H 0.56659 0.09343 0.1835 0.0
H1131 H 0.53986 0.11518 0.15683 0.0
H1132 H 0.62323 0.09688 0.16417 0.0
H1133 H 0.66767 0.12718 0.20341 0.0
C1134 C 0.26706 0.45536 0.39642 0.0
C1135 C 0.26407 0.48519 0.36621 0.0
C1136 C 0.30408 0.53243 0.44218 0.0
C1137 C 0.32043 0.5076 0.45496 0.0
N1138 N 0.30998 0.4412 0.45604 0.0
N1139 N 0.26296 0.54512 0.37505 0.0
C1140 C 0.29868 0.46719 0.43703 0.0
C1141 C 0.27579 0.52087 0.3961 0.0
N1142 N 0.24213 0.41675 0.38173 0.0
N1143 N 0.31558 0.56737 0.47021 0.0
H1144 H 0.27161 0.57295 0.39314 0.0
H1145 H 0.27161 0.57295 0.39314 0.0
H1146 H 0.33563 0.57825 0.50514 0.0
H1147 H 0.33563 0.57825 0.50514 0.0
H1148 H 0.24149 0.39304 0.40394 0.0
H1149 H 0.21991 0.40918 0.35012 0.0
H1150 H 0.29839 0.41267 0.43901 0.0
H1151 H 0.33144 0.44914 0.48888 0.0
C1152 C 0.75667 0.46503 0.89013 0.0
C1153 C 0.79065 0.50258 0.89639 0.0
C1154 C 0.81318 0.49417 0.80057 0.0
C1155 C 0.78861 0.45264 0.80781 0.0
N1156 N 0.72567 0.40109 0.84281 0.0
N1157 N 0.84404 0.55851 0.84942 0.0
C1158 C 0.75626 0.4389 0.84642 0.0
C1159 C 0.81516 0.51962 0.84687 0.0
N1160 N 0.72696 0.45393 0.92956 0.0
N1161 N 0.83477 0.50872 0.75066 0.0
H1162 H 0.8455 0.57649 0.88469 0.0
H1163 H 0.8665 0.57225 0.81849 0.0
H1164 H 0.83269 0.48997 0.71661 0.0
H1165 H 0.85143 0.53883 0.741 0.0
H1166 H 0.70077 0.42661 0.92745 0.0
H1167 H 0.70077 0.42661 0.92745 0.0
H1168 H 0.72403 0.38118 0.81053 0.0
H1169 H 0.72403 0.38118 0.81053 0.0
C1170 C 0.45093 0.75671 1.09454 0.0
C1171 C 0.48377 0.79131 1.07207 0.0
C1172 C 0.46486 0.8316 1.12611 0.0
C1173 C 0.43251 0.79757 0.15256 0.0
N1174 N 0.41033 0.72948 0.18079 0.0
N1175 N 0.53038 0.86084 1.08972 0.0
C1176 C 0.43001 0.76027 0.14294 0.0
C1177 C 0.49514 0.82768 1.10071 0.0
N1178 N 0.43898 0.72104 1.06846 0.0
N1179 N 0.46516 0.86615 1.11557 0.0
H1180 H 0.5532 0.85999 1.06717 0.0
H1181 H 0.5532 0.85999 1.06717 0.0
H1182 H 0.44061 0.86977 1.12095 0.0
H1183 H 0.44061 0.86977 1.12095 0.0
H1184 H 0.41257 0.69576 1.07987 0.0
H1185 H 0.45495 0.71806 1.03396 0.0
H1186 H 0.41098 0.70318 0.17628 0.0
H1187 H 0.39896 0.7326 0.22059 0.0
C1188 C 0.67019 0.46198 0.4417 0.0
C1189 C 0.66868 0.44253 0.38931 0.0
C1190 C 0.61672 0.38052 0.43148 0.0
C1191 C 0.60685 0.40374 0.46854 0.0
N1192 N 0.63271 0.46841 0.51754 0.0
N1193 N 0.65685 0.38283 0.34655 0.0
C1194 C 0.63656 0.4444 0.47828 0.0
C1195 C 0.64858 0.4009 0.39063 0.0
N1196 N 0.69843 0.50075 0.44793 0.0
N1197 N 0.59362 0.3402 0.43244 0.0
H1198 H 0.6438 0.35229 0.34212 0.0
H1199 H 0.6438 0.35229 0.34212 0.0
H1200 H 0.57049 0.32608 0.4625 0.0
H1201 H 0.5981 0.32091 0.40623 0.0
H1202 H 0.69639 0.51911 0.47912 0.0
H1203 H 0.72307 0.51392 0.42041 0.0
H1204 H 0.60869 0.45959 0.54522 0.0
H1205 H 0.60869 0.45959 0.54522 0.0
C1206 C 0.16722 0.57084 0.81278 0.0
C1207 C 0.18094 0.54794 0.84258 0.0
C1208 C 0.24905 0.59776 0.8211 0.0
C1209 C 0.23496 0.61571 0.78154 0.0
N1210 N 0.18121 0.62692 0.75443 0.0
N1211 N 0.2362 0.54411 0.88501 0.0
C1212 C 0.19471 0.60576 0.78442 0.0
C1213 C 0.22201 0.56293 0.85078 0.0
N1214 N 0.1278 0.55913 0.81012 0.0
N1215 N 0.28859 0.61344 0.82847 0.0
H1216 H 0.2182 0.51797 0.908 0.0
H1217 H 0.2182 0.51797 0.908 0.0
H1218 H 0.30808 0.64049 0.80922 0.0
H1219 H 0.30082 0.60086 0.856 0.0
H1220 H 0.11713 0.5752 0.78741 0.0
H1221 H 0.10579 0.53398 0.83101 0.0
H1222 H 0.19973 0.65403 0.7342 0.0
H1223 H 0.19973 0.65403 0.7342 0.0
C1224 C 0.41454 0.00135 1.08164 0.0
C1225 C 0.39706 0.95802 1.08292 0.0
C1226 C 0.40477 0.97208 0.19833 0.0
C1227 C 0.42619 0.01573 0.19675 0.0
N1228 N 0.43745 0.06727 1.12901 0.0
N1229 N 0.37194 0.90467 0.15152 0.0
C1230 C 0.42684 0.02843 0.13569 0.0
C1231 C 0.3913 0.94478 0.14432 0.0
N1232 N 0.42045 0.0177 1.02689 0.0
N1233 N 0.39536 0.9559 0.25331 0.0
H1234 H 0.36164 0.88515 1.1158 0.0
H1235 H 0.36553 0.89029 0.1917 0.0
H1236 H 0.40437 0.97319 0.29146 0.0
H1237 H 0.37667 0.92608 0.26216 0.0
H1238 H 0.43327 0.04778 1.01858 0.0
H1239 H 0.41371 0.0009 0.98843 0.0
H1240 H 0.43515 0.0799 1.09001 0.0
H1241 H 0.44474 0.08627 0.16499 0.0
C1242 C 0.44399 0.43349 0.44544 0.0
C1243 C 0.41729 0.40304 0.40362 0.0
C1244 C 0.36592 0.39903 0.48541 0.0
C1245 C 0.39273 0.43314 0.52291 0.0
N1246 N 0.46018 0.48594 0.51761 0.0
N1247 N 0.34671 0.36214 0.39023 0.0
C1248 C 0.43201 0.45053 0.49605 0.0
C1249 C 0.37673 0.38748 0.42648 0.0
N1250 N 0.48308 0.44581 0.44111 0.0
N1251 N 0.32827 0.37672 0.50538 0.0
H1252 H 0.35173 0.35356 0.34928 0.0
H1253 H 0.31706 0.353 0.39773 0.0
H1254 H 0.31793 0.38582 0.54084 0.0
H1255 H 0.30816 0.34891 0.48836 0.0
H1256 H 0.50127 0.45773 0.47788 0.0
H1257 H 0.49558 0.43825 0.40697 0.0
H1258 H 0.48679 0.50332 0.49613 0.0
H1259 H 0.45437 0.50056 0.55033 0.0
C1260 C 0.00229 0.45636 0.78192 0.0
C1261 C 0.00959 0.43029 0.7425 0.0
C1262 C 0.95928 0.37732 0.82251 0.0
C1263 C 0.95409 0.40342 0.86408 0.0
N1264 N 0.96977 0.47117 0.86406 0.0
N1265 N -0.00481 0.36254 0.7462 0.0
C1266 C 0.97542 0.44344 0.83695 0.0
C1267 C -0.01243 0.39012 0.76947 0.0
N1268 N 0.02075 0.49535 0.76599 0.0
N1269 N 0.93314 0.338 0.82955 0.0
H1270 H 0.01526 0.36955 0.71235 0.0
H1271 H -0.01413 0.33496 0.76529 0.0
H1272 H 0.91101 0.32822 0.86127 0.0
H1273 H 0.92956 0.31632 0.79928 0.0
H1274 H 0.01446 0.51643 0.78251 0.0
H1275 H 0.04202 0.50708 0.73337 0.0
H1276 H -0.00934 0.50104 0.86309 0.0
H1277 H 0.94726 0.46393 0.89429 0.0
C1278 C 0.5841 0.98666 0.17952 0.0
C1279 C 0.54413 0.96517 0.20682 0.0
C1280 C 0.53227 0.00374 1.11778 0.0
C1281 C 0.5697 0.02062 1.08481 0.0
N1282 N 0.63225 0.0243 1.09951 0.0
N1283 N 0.47918 0.94862 0.17171 0.0
C1284 C 0.59509 0.01002 1.12056 0.0
C1285 C 0.51878 0.97299 0.16693 0.0
N1286 N 0.61369 0.98646 0.2113 0.0
N1287 N 0.50788 0.01821 1.10528 0.0
H1288 H 0.46703 0.92445 0.19944 0.0
H1289 H 0.45974 0.9481 0.13977 0.0
H1290 H 0.51441 0.04056 1.07515 0.0
H1291 H 0.48401 0.01175 1.13223 0.0
H1292 H 0.64361 0.00382 0.20155 0.0
H1293 H 0.60848 0.97113 0.25072 0.0
H1294 H 0.651 0.01374 1.11195 0.0
H1295 H 0.64359 0.04694 1.06864 0.0
C1296 C 0.56252 0.53217 0.47194 0.0
C1297 C 0.5638 0.5465 0.53276 0.0
C1298 C 0.54407 0.59352 0.47119 0.0
C1299 C 0.53731 0.57513 0.41234 0.0
N1300 N 0.56263 0.53855 0.36264 0.0
N1301 N 0.57426 0.60846 0.57145 0.0
C1302 C 0.55277 0.54757 0.41547 0.0
C1303 C 0.55934 0.58199 0.52626 0.0
N1304 N 0.57258 0.50356 0.46665 0.0
N1305 N 0.53623 0.62384 0.47535 0.0
H1306 H 0.58907 0.60439 0.60653 0.0
H1307 H 0.57703 0.63644 0.57061 0.0
H1308 H 0.52779 0.63408 0.43867 0.0
H1309 H 0.53454 0.63613 0.51521 0.0
H1310 H 0.56926 0.48767 0.42818 0.0
H1311 H 0.58143 0.49373 0.50293 0.0
H1312 H 0.58125 0.52683 0.35912 0.0
H1313 H 0.55776 0.54885 0.32284 0.0
C1314 C 0.96003 0.54684 0.85844 0.0
C1315 C 0.00194 0.57594 0.86079 0.0
C1316 C -0.01531 0.58321 0.74925 0.0
C1317 C 0.94477 0.54761 0.74376 0.0
N1318 N 0.90213 0.4945 0.80734 0.0
N1319 N 0.05155 0.62216 0.79528 0.0
C1320 C 0.93547 0.52984 0.80267 0.0
C1321 C 0.01296 0.5937 0.80199 0.0
N1322 N 0.94175 0.53502 0.91128 0.0
N1323 N -0.00383 0.60968 0.70449 0.0
H1324 H 0.07107 0.63274 0.83095 0.0
H1325 H 0.06428 0.63329 0.75437 0.0
H1326 H 0.98046 0.60332 0.66523 0.0
H1327 H 0.02026 0.63839 0.70746 0.0
H1328 H 0.91119 0.52031 0.91401 0.0
H1329 H 0.95679 0.54469 0.95139 0.0
H1330 H 0.89612 0.47831 0.84599 0.0
H1331 H 0.88394 0.48065 0.77128 0.0
C1332 C 0.51317 0.02218 0.37025 0.0
C1333 C 0.48615 0.02057 0.4133 0.0
C1334 C 0.52166 0.00571 0.48833 0.0
C1335 C 0.5421 0.00119 0.44202 0.0
N1336 N 0.57724 0.02815 0.35333 0.0
N1337 N 0.46447 0.00985 0.51631 0.0
C1338 C 0.54659 0.02095 0.38951 0.0
C1339 C 0.49041 0.01262 0.47387 0.0
N1340 N 0.50349 0.01765 0.31204 0.0
N1341 N 0.52961 -0.00155 0.54402 0.0
H1342 H 0.43724 0.00757 0.50845 0.0
H1343 H 0.4692 0.00833 0.56106 0.0
H1344 H 0.55227 -0.00792 0.55152 0.0
H1345 H 0.51584 0.0004 0.58196 0.0
H1346 H 0.52183 0.01717 0.27923 0.0
H1347 H 0.47448 0.00749 0.2987 0.0
H1348 H 0.59996 0.02334 0.36782 0.0
H1349 H 0.58098 0.04088 0.31175 0.0
C1350 C 0.48095 0.51784 0.7129 0.0
C1351 C 0.45416 0.49237 0.75568 0.0
C1352 C 0.51046 0.51173 0.82113 0.0
C1353 C 0.53415 0.52756 0.77097 0.0
N1354 N 0.54432 0.57647 0.69981 0.0
N1355 N 0.44526 0.46665 0.85724 0.0
C1356 C 0.5196 0.54408 0.73151 0.0
C1357 C 0.46897 0.48971 0.81266 0.0
N1358 N 0.47537 0.50712 0.65543 0.0
N1359 N 0.52703 0.52218 0.87574 0.0
H1360 H 0.41458 0.45192 0.85658 0.0
H1361 H 0.45677 0.46144 0.89557 0.0
H1362 H 0.55737 0.54086 0.88144 0.0
H1363 H 0.51041 0.51507 0.91425 0.0
H1364 H 0.4976 0.5226 0.62451 0.0
H1365 H 0.45229 0.47949 0.64229 0.0
H1366 H 0.57377 0.59443 0.71207 0.0
H1367 H 0.53374 0.58609 0.66501 0.0
C1368 C -0.01263 0.46257 0.15814 0.0
C1369 C 0.98148 0.43687 1.11214 0.0
C1370 C 0.00584 0.48721 1.04228 0.0
C1371 C 0.0032 0.51281 1.08364 0.0
N1372 N -0.01238 0.52181 0.18587 0.0
N1373 N 0.0124 0.4287 1.03034 0.0
C1374 C -0.00702 0.50007 0.14367 0.0
C1375 C 0.00398 0.45251 1.06302 0.0
N1376 N -0.00861 0.45236 0.21375 0.0
N1377 N 0.00243 0.49196 0.98405 0.0
H1378 H 0.01069 0.40352 1.04864 0.0
H1379 H 0.02244 0.4348 0.98787 0.0
H1380 H 0.00201 0.47183 0.95374 0.0
H1381 H -0.00396 0.51319 0.9682 0.0
H1382 H -0.00863 0.42591 0.22153 0.0
H1383 H -0.00176 0.47133 0.24981 0.0
H1384 H 0.97674 0.5105 0.22758 0.0
H1385 H -0.00869 0.54964 0.17922 0.0
C1386 C 0.9649 0.44911 0.58143 0.0
C1387 C -0.01644 0.45434 0.52742 0.0
C1388 C -0.0113 0.51741 0.51147 0.0
C1389 C 0.97441 0.51437 0.56897 0.0
N1390 N 0.96556 0.48715 0.66558 0.0
N1391 N -0.0049 0.48073 0.42995 0.0
C1392 C 0.96868 0.48346 0.60684 0.0
C1393 C -0.01196 0.48386 0.48779 0.0
N1394 N 0.95304 0.41499 0.61217 0.0
N1395 N -0.0016 0.55055 0.47933 0.0
H1396 H -0.00409 0.45592 0.41438 0.0
H1397 H -0.00295 0.50065 0.39778 0.0
H1398 H -0.00036 0.57531 0.49923 0.0
H1399 H 0.00572 0.55372 0.43492 0.0
H1400 H 0.93963 0.40955 0.65333 0.0
H1401 H 0.95428 0.39123 0.59304 0.0
H1402 H 0.95738 0.46415 0.69546 0.0
H1403 H 0.97501 0.5151 0.68323 0.0
C1404 C 0.47358 0.96616 0.81527 0.0
C1405 C 0.45834 0.95675 0.87432 0.0
C1406 C 0.52005 0.96168 0.90545 0.0
C1407 C 0.53672 0.98535 0.85638 0.0
N1408 N 0.52944 0.97884 0.7526 0.0
N1409 N 0.47405 0.95734 0.97794 0.0
C1410 C 0.5131 0.97577 0.80653 0.0
C1411 C 0.48263 0.95563 0.92049 0.0
N1412 N 0.45247 0.96886 0.76944 0.0
N1413 N 0.54317 0.95503 0.94338 0.0
H1414 H 0.45413 0.96654 0.98906 0.0
H1415 H 0.49171 0.95753 1.01266 0.0
H1416 H 0.53219 0.93868 0.98201 0.0
H1417 H 0.57255 0.96411 0.9329 0.0
H1418 H 0.46316 0.9755 0.72658 0.0
H1419 H 0.42551 0.96742 0.77417 0.0
H1420 H 0.51316 0.97011 0.71351 0.0
H1421 H 0.55922 0.987 0.74875 0.0
C1422 C 0.45072 0.49313 0.24121 0.0
C1423 C 0.47673 0.51734 0.19617 0.0
C1424 C 0.44114 0.46343 1.12599 0.0
C1425 C 0.42082 0.44032 0.17436 0.0
N1426 N 0.38686 0.43615 0.26287 0.0
N1427 N 0.49527 0.52552 1.09205 0.0
C1428 C 0.41699 0.45785 0.22485 0.0
C1429 C 0.47134 0.50293 0.13676 0.0
N1430 N 0.4619 0.49947 0.2987 0.0
N1431 N 0.43363 0.44575 1.07197 0.0
H1432 H 0.52098 0.55242 1.09803 0.0
H1433 H 0.49024 0.51744 1.04785 0.0
H1434 H 0.41108 0.41644 1.06651 0.0
H1435 H 0.44802 0.4596 1.03324 0.0
H1436 H 0.44456 0.48096 0.33261 0.0
H1437 H 0.49128 0.51835 0.30988 0.0
H1438 H 0.36385 0.40797 0.25108 0.0
H1439 H 0.3838 0.44736 0.30303 0.0
C1440 C 0.29227 0.93955 0.61379 0.0
C1441 C 0.26431 0.92943 0.65869 0.0
C1442 C 0.28312 -0.00076 0.67024 0.0
C1443 C 0.31517 0.00974 0.63124 0.0
N1444 N 0.35624 0.98923 0.57941 0.0
N1445 N 0.23659 0.9481 0.73681 0.0
C1446 C 0.3214 0.97969 0.60651 0.0
C1447 C 0.26052 0.95909 0.68877 0.0
N1448 N 0.29125 0.91074 0.57851 0.0
N1449 N 0.2735 0.02688 0.6878 0.0
H1450 H 0.23447 0.96798 0.76527 0.0
H1451 H 0.23447 0.96798 0.76527 0.0
H1452 H 0.289 0.05634 0.67404 0.0
H1453 H 0.248 0.01978 0.71144 0.0
H1454 H 0.30772 0.91758 0.54005 0.0
H1455 H 0.27045 0.88073 0.58383 0.0
H1456 H 0.36325 0.96784 0.5663 0.0
H1457 H 0.37979 0.01823 0.57637 0.0
C1458 C 0.34481 0.27872 0.95839 0.0
C1459 C 0.32426 0.24765 0.99869 0.0
C1460 C 0.26907 0.26074 0.9975 0.0
C1461 C 0.29275 0.2958 0.9649 0.0
N1462 N 0.35838 0.3439 0.93092 0.0
N1463 N 0.26925 0.21287 1.06517 0.0
C1464 C 0.33214 0.30643 0.94972 0.0
C1465 C 0.28685 0.23944 1.02054 0.0
N1466 N 0.37702 0.2823 0.92956 0.0
N1467 N 0.2297 0.24729 1.00541 0.0
H1468 H 0.2809 0.19601 1.08238 0.0
H1469 H 0.24459 0.2097 1.08763 0.0
H1470 H 0.21542 0.26155 0.98777 0.0
H1471 H 0.21062 0.22004 1.02477 0.0
H1472 H 0.39063 0.30249 0.89542 0.0
H1473 H 0.38711 0.26225 0.93568 0.0
H1474 H 0.38832 0.35367 0.92493 0.0
H1475 H 0.35149 0.36653 0.9287 0.0
C1476 C 0.93925 0.29807 0.30272 0.0
C1477 C 0.92557 0.2585 0.28439 0.0
C1478 C -0.00845 0.26714 0.30037 0.0
C1479 C 0.00588 0.30737 0.31558 0.0
N1480 N -0.00472 0.3629 0.32621 0.0
N1481 N 0.93885 0.20504 0.26564 0.0
C1482 C 0.98007 0.32324 0.31594 0.0
C1483 C 0.95149 0.24294 0.28336 0.0
N1484 N 0.91295 0.31155 0.30561 0.0
N1485 N 0.01613 0.25165 0.30184 0.0
H1486 H 0.90976 0.18511 0.25283 0.0
H1487 H 0.90976 0.18511 0.25283 0.0
H1488 H 0.04578 0.2681 0.31464 0.0
H1489 H 0.00649 0.22215 0.2908 0.0
H1490 H 0.92019 0.33999 0.31741 0.0
H1491 H 0.88262 0.29365 0.2983 0.0
H1492 H 0.97929 0.3775 0.3237 0.0
H1493 H 0.02527 0.38263 0.33335 0.0
C1494 C 0.68801 0.93684 0.64533 0.0
C1495 C 0.66331 0.94976 0.67051 0.0
C1496 C 0.60665 0.88348 0.65824 0.0
C1497 C 0.62938 0.87317 0.6223 0.0
N1498 N 0.69176 0.89111 0.57647 0.0
N1499 N 0.59607 0.93732 0.6822 0.0
C1500 C 0.67043 0.8999 0.61491 0.0
C1501 C 0.62167 0.92359 0.67238 0.0
N1502 N 0.72789 0.96017 0.65184 0.0
N1503 N 0.5697 0.85526 0.67548 0.0
H1504 H 0.6052 0.96739 0.68569 0.0
H1505 H 0.56542 0.91919 0.67901 0.0
H1506 H 0.55775 0.8254 0.66418 0.0
H1507 H 0.55348 0.86124 0.70604 0.0
H1508 H 0.74839 0.95215 0.63804 0.0
H1509 H 0.74839 0.95215 0.63804 0.0
H1510 H 0.72036 0.91172 0.56331 0.0
H1511 H 0.6798 0.86377 0.55506 0.0
C1512 C 0.67423 0.77592 0.97661 0.0
C1513 C 0.63256 0.75888 0.9804 0.0
C1514 C 0.6224 0.7019 0.92494 0.0
C1515 C 0.66398 0.71915 0.91755 0.0
N1516 N 0.72837 0.77846 0.92117 0.0
N1517 N 0.56908 0.7156 0.93675 0.0
C1518 C 0.68968 0.75833 0.93809 0.0
C1519 C 0.60763 0.72593 0.94536 0.0
N1520 N 0.69881 0.80691 1.01217 0.0
N1521 N 0.59731 0.66193 0.91997 0.0
H1522 H 0.55745 0.73252 0.95385 0.0
H1523 H 0.55093 0.69331 0.90712 0.0
H1524 H 0.60685 0.64144 0.91532 0.0
H1525 H 0.56731 0.64875 0.92931 0.0
H1526 H 0.72905 0.81711 1.0158 0.0
H1527 H 0.6886 0.82091 1.04038 0.0
H1528 H 0.74743 0.80813 0.932 0.0
H1529 H 0.74003 0.76664 0.89135 0.0
C1530 C 0.08183 0.77965 0.30777 0.0
C1531 C 0.11323 0.7718 0.30293 0.0
C1532 C 0.07828 0.71218 0.36122 0.0
C1533 C 0.04405 0.71639 0.35853 0.0
N1534 N 0.01827 0.76102 0.3518 0.0
N1535 N 0.14965 0.7449 0.34885 0.0
C1536 C 0.04781 0.75296 0.34018 0.0
C1537 C 0.11453 0.74377 0.34032 0.0
N1538 N 0.0832 0.81003 0.27611 0.0
N1539 N 0.07574 0.6771 0.37674 0.0
H1540 H 0.17577 0.76736 0.33034 0.0
H1541 H 0.1531 0.72627 0.37817 0.0
H1542 H 0.04967 0.65212 0.3897 0.0
H1543 H 0.09924 0.67178 0.37202 0.0
H1544 H 0.05933 0.81481 0.27165 0.0
H1545 H 0.10857 0.82965 0.25278 0.0
H1546 H 0.0202 0.78807 0.34213 0.0
H1547 H -0.00668 0.74163 0.37608 0.0
C1548 C 0.55316 0.09559 0.58184 0.0
C1549 C 0.51293 0.08934 0.56864 0.0
C1550 C 0.50731 0.07306 0.68335 0.0
C1551 C 0.5489 0.08572 0.69838 0.0
N1552 N 0.61076 0.1135 0.64727 0.0
N1553 N 0.45585 0.07725 0.6246 0.0
C1554 C 0.57099 0.09839 0.64298 0.0
C1555 C 0.49193 0.07984 0.62505 0.0
N1556 N 0.57503 0.09561 0.53527 0.0
N1557 N 0.47998 0.05036 0.72404 0.0
H1558 H 0.44362 0.08157 0.58647 0.0
H1559 H 0.44026 0.07493 0.66293 0.0
H1560 H 0.48805 0.04301 0.76368 0.0
H1561 H 0.44965 0.03534 0.71555 0.0
H1562 H 0.60141 0.09521 0.53968 0.0
H1563 H 0.56412 0.08919 0.49279 0.0
H1564 H 0.63038 0.12973 0.61372 0.0
H1565 H 0.62411 0.11168 0.68582 0.0
C1566 C 0.45018 0.55868 0.91658 0.0
C1567 C 0.4108 0.52483 0.90072 0.0
C1568 C 0.40852 0.52245 1.01906 0.0
C1569 C 0.44615 0.55952 1.03421 0.0
N1570 N 0.49423 0.61573 0.98001 0.0
N1571 N 0.3515 0.48037 0.95272 0.0
C1572 C 0.46393 0.57769 0.97755 0.0
C1573 C 0.39038 0.50889 0.95711 0.0
N1574 N 0.47766 0.57225 0.87329 0.0
N1575 N 0.38929 0.49741 1.06446 0.0
H1576 H 0.33745 0.46979 0.91221 0.0
H1577 H 0.33231 0.47042 0.98848 0.0
H1578 H 0.39972 0.50341 1.10736 0.0
H1579 H 0.36598 0.46852 1.05861 0.0
H1580 H 0.50742 0.59285 0.88089 0.0
H1581 H 0.47149 0.55884 0.83215 0.0
H1582 H 0.50372 0.63323 0.94238 0.0
H1583 H 0.50552 0.63082 1.01967 0.0
C1584 C 0.84203 0.41985 0.26422 0.0
C1585 C 0.86905 0.406 0.24504 0.0
C1586 C 0.89405 0.42767 0.355 0.0
C1587 C 0.87215 0.44811 0.3703 0.0
N1588 N 0.82359 0.46067 0.32575 0.0
N1589 N 0.92427 0.40295 0.2838 0.0
C1590 C 0.84633 0.4435 0.32008 0.0
C1591 C 0.89557 0.41189 0.29436 0.0
N1592 N 0.80814 0.40604 0.23205 0.0
N1593 N 0.91319 0.42104 0.39987 0.0
H1594 H 0.92457 0.38863 0.24528 0.0
H1595 H 0.94891 0.41272 0.31115 0.0
H1596 H 0.91487 0.43171 0.44227 0.0
H1597 H 0.92497 0.40241 0.39597 0.0
H1598 H 0.7846 0.40992 0.24429 0.0
H1599 H 0.80158 0.38581 0.19772 0.0
H1600 H 0.808 0.46383 0.29077 0.0
H1601 H 0.82249 0.47371 0.36509 0.0
C1602 C 0.43289 0.90557 0.60156 0.0
C1603 C 0.45995 0.89078 0.58615 0.0
C1604 C 0.45266 0.87849 0.70143 0.0
C1605 C 0.42049 0.88748 0.7143 0.0
N1606 N 0.37708 0.90204 0.65776 0.0
N1607 N 0.48633 0.85428 0.63431 0.0
C1608 C 0.41003 0.89837 0.6584 0.0
C1609 C 0.46661 0.87463 0.64023 0.0
N1610 N 0.43095 0.93081 0.56286 0.0
N1611 N 0.47356 0.87647 0.74806 0.0
H1612 H 0.49762 0.85186 0.5939 0.0
H1613 H 0.48759 0.83674 0.66796 0.0
H1614 H 0.47056 0.88483 0.79009 0.0
H1615 H 0.4984 0.87331 0.74342 0.0
H1616 H 0.41554 0.94567 0.57153 0.0
H1617 H 0.44845 0.93993 0.52554 0.0
H1618 H 0.36485 0.90584 0.61914 0.0
H1619 H 0.35946 0.89678 0.69465 0.0
C1620 C 0.55265 0.46666 0.96167 0.0
C1621 C 0.53865 0.44668 0.90486 0.0
C1622 C 0.48863 0.38926 0.97629 0.0
C1623 C 0.50026 0.41053 1.03212 0.0
N1624 N 0.53371 0.47939 1.05802 0.0
N1625 N 0.47533 0.39414 0.87228 0.0
C1626 C 0.53014 0.45177 1.01866 0.0
C1627 C 0.50206 0.40894 0.91666 0.0
N1628 N 0.58755 0.50159 0.96302 0.0
N1629 N 0.46346 0.34949 0.97833 0.0
H1630 H 0.47859 0.41144 0.83551 0.0
H1631 H 0.44725 0.36962 0.87801 0.0
H1632 H 0.45239 0.33462 1.01808 0.0
H1633 H 0.45697 0.33178 0.9408 0.0
H1634 H 0.60099 0.51599 1.00236 0.0
H1635 H 0.60438 0.51439 0.92565 0.0
H1636 H 0.55057 0.50978 1.04998 0.0
H1637 H 0.51509 0.47132 1.09424 0.0
C1638 C 0.08103 0.49711 0.30281 0.0
C1639 C 0.07958 0.51345 0.36053 0.0
C1640 C 0.07292 0.56518 0.28888 0.0
C1641 C 0.07748 0.55094 0.23095 0.0
N1642 N 0.08328 0.49588 0.19363 0.0
N1643 N 0.07562 0.56932 0.3975 0.0
C1644 C 0.08108 0.5151 0.2423 0.0
C1645 C 0.07618 0.54913 0.34903 0.0
N1646 N 0.08121 0.4622 0.30501 0.0
N1647 N 0.0627 0.59391 0.28788 0.0
H1648 H 0.06886 0.55652 0.43894 0.0
H1649 H 0.08185 0.59862 0.39653 0.0
H1650 H 0.06245 0.60839 0.24967 0.0
H1651 H 0.05078 0.60077 0.32386 0.0
H1652 H 0.07628 0.44374 0.26903 0.0
H1653 H 0.08391 0.45024 0.34463 0.0
H1654 H 0.09431 0.47649 0.19375 0.0
H1655 H 0.07365 0.49917 0.15245 0.0
loop_
_geom_bond_atom_site_label_1
_geom_bond_atom_site_label_2
_geom_bond_distance
_geom_bond_site_symmetry_2
_ccdc_geom_bond_type
Tb0 N29 2.617 . S
Tb0 N35 2.572 . S
Tb0 O44 2.465 . S
Tb0 O45 2.387 . S
Tb0 O47 2.428 . S
Tb0 O48 2.308 . S
Tb0 O52 2.349 . S
Tb0 O55 2.393 . S
Tb0 C64 2.802 . S
C1 N2 1.379 . S
C1 C4 1.416 . S
C1 C8 1.424 . S
N2 C1 1.379 . S
N2 C5 1.334 . S
N2 Tb11 2.617 . S
C3 C5 1.390 . S
C3 C6 1.339 . S
C3 H23 0.930 . S
C4 C1 1.416 . S
C4 C6 1.416 . S
C4 C10 1.448 . S
C5 N2 1.334 . S
C5 C3 1.390 . S
C5 H16 0.930 . S
C6 C3 1.339 . S
C6 C4 1.416 . S
C6 H27 0.930 . S
C7 C8 1.413 . S
C7 C9 1.427 . S
C7 C13 1.416 1_545 S
C8 C1 1.424 . S
C8 C7 1.413 . S
C8 N12 1.361 . S
C9 C7 1.427 . S
C9 C10 1.328 . S
C9 H24 0.929 1_545 S
C10 C4 1.448 . S
C10 C9 1.328 . S
C10 H25 0.930 . S
Tb11 N2 2.617 . S
Tb11 N12 2.572 . S
Tb11 O46 2.349 . S
Tb11 O49 2.393 . S
Tb11 O50 2.465 . S
Tb11 O51 2.387 . S
Tb11 O53 2.428 . S
Tb11 O54 2.308 . S
Tb11 C75 2.802 . S
N12 C8 1.361 . S
N12 Tb11 2.572 . S
N12 C14 1.340 . S
C13 C7 1.416 1_565 S
C13 C15 1.332 . S
C13 H21 0.931 . S
C14 N12 1.340 . S
C14 C15 1.407 1_545 S
C14 H20 0.930 . S
C15 C13 1.332 . S
C15 C14 1.407 1_565 S
C15 H17 0.929 . S
H16 C5 0.930 . S
H17 C15 0.929 . S
H18 C33 0.930 . S
H19 C40 0.929 . S
H20 C14 0.930 . S
H21 C13 0.931 . S
H22 C36 0.930 . S
H23 C3 0.930 . S
H24 C9 0.929 1_565 S
H25 C10 0.930 . S
H26 C31 0.930 . S
H27 C6 0.930 . S
H28 C39 0.931 . S
N29 Tb0 2.617 . S
N29 C30 1.379 . S
N29 C33 1.334 . S
C30 N29 1.379 . S
C30 C32 1.416 . S
C30 C38 1.424 . S
C31 H26 0.930 . S
C31 C33 1.390 . S
C31 C34 1.339 . S
C32 C30 1.416 . S
C32 C34 1.416 . S
C32 C65 1.448 . S
C33 H18 0.930 . S
C33 N29 1.334 . S
C33 C31 1.390 . S
C34 C31 1.339 . S
C34 C32 1.416 . S
C34 H41 0.930 . S
N35 Tb0 2.572 . S
N35 C36 1.340 . S
N35 C38 1.361 . S
C36 H22 0.930 . S
C36 N35 1.340 . S
C36 C40 1.407 . S
C37 C38 1.413 . S
C37 C39 1.416 . S
C37 C66 1.427 . S
C38 C30 1.424 . S
C38 N35 1.361 . S
C38 C37 1.413 . S
C39 H28 0.931 . S
C39 C37 1.416 . S
C39 C40 1.332 . S
C40 H19 0.929 . S
C40 C36 1.407 . S
C40 C39 1.332 . S
H41 C34 0.930 . S
H42 C65 0.930 . S
H43 C66 0.929 . S
O44 Tb0 2.465 . S
O44 C64 1.264 . S
O45 Tb0 2.387 . S
O45 C56 1.264 . S
O46 Tb11 2.349 . S
O46 C56 1.243 . S
O47 Tb0 2.428 . S
O47 C64 1.256 . S
O48 Tb0 2.308 . S
O48 C63 1.266 . S
O49 Tb11 2.393 . S
O49 C63 1.248 . S
O50 Tb11 2.465 . S
O50 C75 1.264 . S
O51 Tb11 2.387 . S
O51 C67 1.264 . S
O52 Tb0 2.349 . S
O52 C67 1.243 . S
O53 Tb11 2.428 . S
O53 C75 1.256 . S
O54 Tb11 2.308 . S
O54 C74 1.266 . S
O55 Tb0 2.393 . S
O55 C74 1.248 . S
C56 O45 1.264 . S
C56 O46 1.243 . S
C57 C60 1.399 . S
C57 C62 1.383 . S
C57 C64 1.496 . S
C58 C59 1.399 1_554 S
C58 C62 1.389 . S
C59 C58 1.399 1_556 S
C59 C61 1.380 1_556 S
C59 H76 0.929 . S
C60 C57 1.399 . S
C60 C61 1.392 . S
C60 H77 0.929 . S
C61 C59 1.380 1_554 S
C61 C60 1.392 . S
C61 H78 0.929 . S
C62 C57 1.383 . S
C62 C58 1.389 . S
C62 H79 0.931 . S
C63 O48 1.266 . S
C63 O49 1.248 . S
C64 Tb0 2.802 . S
C64 O44 1.264 . S
C64 O47 1.256 . S
C64 C57 1.496 . S
C65 C32 1.448 . S
C65 H42 0.930 . S
C65 C66 1.328 . S
C66 C37 1.427 . S
C66 H43 0.929 . S
C66 C65 1.328 . S
C67 O51 1.264 . S
C67 O52 1.243 . S
C68 C71 1.399 . S
C68 C72 1.383 . S
C68 C75 1.496 . S
C69 C70 1.399 . S
C69 C72 1.389 . S
C70 C69 1.399 . S
C70 C73 1.380 . S
C70 H80 0.929 . S
C71 C68 1.399 . S
C71 C73 1.392 . S
C71 H81 0.929 . S
C72 C68 1.383 . S
C72 C69 1.389 . S
C72 H82 0.931 . S
C73 C70 1.380 . S
C73 C71 1.392 . S
C73 H83 0.929 . S
C74 O54 1.266 . S
C74 O55 1.248 . S
C75 Tb11 2.802 . S
C75 O50 1.264 . S
C75 O53 1.256 . S
C75 C68 1.496 . S
H76 C59 0.929 . S
H77 C60 0.929 . S
H78 C61 0.929 . S
H79 C62 0.931 . S
H80 C70 0.929 . S
H81 C71 0.929 . S
H82 C72 0.931 . S
H83 C73 0.929 . S
Tb84 N113 2.617 . S
Tb84 N119 2.572 . S
Tb84 O128 2.465 . S
Tb84 O129 2.387 . S
Tb84 O131 2.428 . S
Tb84 O132 2.308 . S
Tb84 O136 2.349 . S
Tb84 O139 2.393 . S
Tb84 C148 2.802 . S
C85 N86 1.379 . S
C85 C88 1.416 . S
C85 C92 1.424 . S
N86 C85 1.379 . S
N86 C89 1.334 . S
N86 Tb95 2.617 . S
C87 C89 1.390 . S
C87 C90 1.339 . S
C87 H107 0.930 . S
C88 C85 1.416 . S
C88 C90 1.416 . S
C88 C94 1.448 . S
C89 N86 1.334 . S
C89 C87 1.390 . S
C89 H100 0.930 . S
C90 C87 1.339 . S
C90 C88 1.416 . S
C90 H111 0.930 . S
C91 C92 1.413 . S
C91 C93 1.427 . S
C91 C97 1.416 . S
C92 C85 1.424 . S
C92 C91 1.413 . S
C92 N96 1.361 . S
C93 C91 1.427 . S
C93 C94 1.328 . S
C93 H108 0.929 . S
C94 C88 1.448 . S
C94 C93 1.328 . S
C94 H109 0.930 . S
Tb95 N86 2.617 . S
Tb95 N96 2.572 . S
Tb95 O130 2.349 . S
Tb95 O133 2.393 . S
Tb95 O134 2.465 . S
Tb95 O135 2.387 . S
Tb95 O137 2.428 . S
Tb95 O138 2.308 . S
Tb95 C159 2.802 . S
N96 C92 1.361 . S
N96 Tb95 2.572 . S
N96 C98 1.340 . S
C97 C91 1.416 . S
C97 C99 1.332 . S
C97 H105 0.931 . S
C98 N96 1.340 . S
C98 C99 1.407 . S
C98 H104 0.930 . S
C99 C97 1.332 . S
C99 C98 1.407 . S
C99 H101 0.929 . S
H100 C89 0.930 . S
H101 C99 0.929 . S
H102 C117 0.930 . S
H103 C124 0.929 . S
H104 C98 0.930 . S
H105 C97 0.931 . S
H106 C120 0.930 . S
H107 C87 0.930 . S
H108 C93 0.929 . S
H109 C94 0.930 . S
H110 C115 0.930 . S
H111 C90 0.930 . S
H112 C123 0.931 . S
N113 Tb84 2.617 . S
N113 C114 1.379 . S
N113 C117 1.334 . S
C114 N113 1.379 . S
C114 C116 1.416 . S
C114 C122 1.424 . S
C115 H110 0.930 . S
C115 C117 1.390 . S
C115 C118 1.339 . S
C116 C114 1.416 . S
C116 C118 1.416 . S
C116 C149 1.448 . S
C117 H102 0.930 . S
C117 N113 1.334 . S
C117 C115 1.390 . S
C118 C115 1.339 . S
C118 C116 1.416 . S
C118 H125 0.930 . S
N119 Tb84 2.572 . S
N119 C120 1.340 . S
N119 C122 1.361 . S
C120 H106 0.930 . S
C120 N119 1.340 . S
C120 C124 1.407 . S
C121 C122 1.413 . S
C121 C123 1.416 . S
C121 C150 1.427 . S
C122 C114 1.424 . S
C122 N119 1.361 . S
C122 C121 1.413 . S
C123 H112 0.931 . S
C123 C121 1.416 . S
C123 C124 1.332 . S
C124 H103 0.929 . S
C124 C120 1.407 . S
C124 C123 1.332 . S
H125 C118 0.930 . S
H126 C149 0.930 . S
H127 C150 0.929 . S
O128 Tb84 2.465 . S
O128 C148 1.264 . S
O129 Tb84 2.387 . S
O129 C140 1.264 . S
O130 Tb95 2.349 . S
O130 C140 1.243 . S
O131 Tb84 2.428 . S
O131 C148 1.256 . S
O132 Tb84 2.308 . S
O132 C147 1.266 . S
O133 Tb95 2.393 . S
O133 C147 1.248 . S
O134 Tb95 2.465 . S
O134 C159 1.264 . S
O135 Tb95 2.387 . S
O135 C151 1.264 . S
O136 Tb84 2.349 . S
O136 C151 1.243 . S
O137 Tb95 2.428 . S
O137 C159 1.256 . S
O138 Tb95 2.308 . S
O138 C158 1.266 . S
O139 Tb84 2.393 . S
O139 C158 1.248 . S
C140 O129 1.264 . S
C140 O130 1.243 . S
C141 C144 1.399 . S
C141 C146 1.383 . S
C141 C148 1.496 . S
C142 C143 1.399 . S
C142 C146 1.389 . S
C143 C142 1.399 . S
C143 C145 1.380 . S
C143 H160 0.929 . S
C144 C141 1.399 . S
C144 C145 1.392 . S
C144 H161 0.929 . S
C145 C143 1.380 . S
C145 C144 1.392 . S
C145 H162 0.929 . S
C146 C141 1.383 . S
C146 C142 1.389 . S
C146 H163 0.931 . S
C147 O132 1.266 . S
C147 O133 1.248 . S
C148 Tb84 2.802 . S
C148 O128 1.264 . S
C148 O131 1.256 . S
C148 C141 1.496 . S
C149 C116 1.448 . S
C149 H126 0.930 . S
C149 C150 1.328 . S
C150 C121 1.427 . S
C150 H127 0.929 . S
C150 C149 1.328 . S
C151 O135 1.264 . S
C151 O136 1.243 . S
C152 C155 1.399 . S
C152 C156 1.383 . S
C152 C159 1.496 . S
C153 C154 1.399 . S
C153 C156 1.389 . S
C154 C153 1.399 . S
C154 C157 1.380 . S
C154 H164 0.929 . S
C155 C152 1.399 . S
C155 C157 1.392 . S
C155 H165 0.929 . S
C156 C152 1.383 . S
C156 C153 1.389 . S
C156 H166 0.931 . S
C157 C154 1.380 . S
C157 C155 1.392 . S
C157 H167 0.929 . S
C158 O138 1.266 . S
C158 O139 1.248 . S
C159 Tb95 2.802 . S
C159 O134 1.264 . S
C159 O137 1.256 . S
C159 C152 1.496 . S
H160 C143 0.929 . S
H161 C144 0.929 . S
H162 C145 0.929 . S
H163 C146 0.931 . S
H164 C154 0.929 . S
H165 C155 0.929 . S
H166 C156 0.931 . S
H167 C157 0.929 . S
Tb168 N197 2.617 . S
Tb168 N203 2.572 . S
Tb168 O212 2.465 . S
Tb168 O213 2.387 . S
Tb168 O215 2.428 . S
Tb168 O216 2.308 . S
Tb168 O220 2.349 . S
Tb168 O223 2.393 . S
Tb168 C232 2.802 . S
C169 N170 1.379 . S
C169 C172 1.416 . S
C169 C176 1.424 . S
N170 C169 1.379 . S
N170 C173 1.334 . S
N170 Tb179 2.617 . S
C171 C173 1.390 . S
C171 C174 1.339 . S
C171 H191 0.930 . S
C172 C169 1.416 . S
C172 C174 1.416 . S
C172 C178 1.448 . S
C173 N170 1.334 . S
C173 C171 1.390 . S
C173 H184 0.930 . S
C174 C171 1.339 . S
C174 C172 1.416 . S
C174 H195 0.930 . S
C175 C176 1.413 . S
C175 C177 1.427 . S
C175 C181 1.416 1_655 S
C176 C169 1.424 . S
C176 C175 1.413 . S
C176 N180 1.361 . S
C177 C175 1.427 . S
C177 C178 1.328 . S
C177 H192 0.929 1_655 S
C178 C172 1.448 . S
C178 C177 1.328 . S
C178 H193 0.930 . S
Tb179 N170 2.617 . S
Tb179 N180 2.572 . S
Tb179 O214 2.349 . S
Tb179 O217 2.393 . S
Tb179 O218 2.465 1_556 S
Tb179 O219 2.387 . S
Tb179 O221 2.428 1_556 S
Tb179 O222 2.308 . S
Tb179 C243 2.802 1_556 S
N180 C176 1.361 . S
N180 Tb179 2.572 . S
N180 C182 1.340 . S
C181 C175 1.416 1_455 S
C181 C183 1.332 . S
C181 H189 0.931 . S
C182 N180 1.340 . S
C182 C183 1.407 1_655 S
C182 H188 0.930 . S
C183 C181 1.332 . S
C183 C182 1.407 1_455 S
C183 H185 0.929 . S
H184 C173 0.930 . S
H185 C183 0.929 . S
H186 C201 0.930 . S
H187 C208 0.929 . S
H188 C182 0.930 . S
H189 C181 0.931 . S
H190 C204 0.930 . S
H191 C171 0.930 . S
H192 C177 0.929 1_455 S
H193 C178 0.930 . S
H194 C199 0.930 . S
H195 C174 0.930 . S
H196 C207 0.931 . S
N197 Tb168 2.617 . S
N197 C198 1.379 . S
N197 C201 1.334 . S
C198 N197 1.379 . S
C198 C200 1.416 . S
C198 C206 1.424 . S
C199 H194 0.930 . S
C199 C201 1.390 . S
C199 C202 1.339 . S
C200 C198 1.416 . S
C200 C202 1.416 . S
C200 C233 1.448 . S
C201 H186 0.930 . S
C201 N197 1.334 . S
C201 C199 1.390 . S
C202 C199 1.339 . S
C202 C200 1.416 . S
C202 H209 0.930 . S
N203 Tb168 2.572 . S
N203 C204 1.340 . S
N203 C206 1.361 . S
C204 H190 0.930 . S
C204 N203 1.340 . S
C204 C208 1.407 . S
C205 C206 1.413 . S
C205 C207 1.416 . S
C205 C234 1.427 . S
C206 C198 1.424 . S
C206 N203 1.361 . S
C206 C205 1.413 . S
C207 H196 0.931 . S
C207 C205 1.416 . S
C207 C208 1.332 . S
C208 H187 0.929 . S
C208 C204 1.407 . S
C208 C207 1.332 . S
H209 C202 0.930 . S
H210 C233 0.930 . S
H211 C234 0.929 . S
O212 Tb168 2.465 . S
O212 C232 1.264 . S
O213 Tb168 2.387 . S
O213 C224 1.264 . S
O214 Tb179 2.349 . S
O214 C224 1.243 . S
O215 Tb168 2.428 . S
O215 C232 1.256 . S
O216 Tb168 2.308 . S
O216 C231 1.266 . S
O217 Tb179 2.393 . S
O217 C231 1.248 . S
O218 Tb179 2.465 1_554 S
O218 C243 1.264 . S
O219 Tb179 2.387 . S
O219 C235 1.264 . S
O220 Tb168 2.349 . S
O220 C235 1.243 . S
O221 Tb179 2.428 1_554 S
O221 C243 1.256 . S
O222 Tb179 2.308 . S
O222 C242 1.266 . S
O223 Tb168 2.393 . S
O223 C242 1.248 . S
C224 O213 1.264 . S
C224 O214 1.243 . S
C225 C228 1.399 . S
C225 C230 1.383 . S
C225 C232 1.496 . S
C226 C227 1.399 . S
C226 C230 1.389 . S
C227 C226 1.399 . S
C227 C229 1.380 . S
C227 H244 0.929 . S
C228 C225 1.399 . S
C228 C229 1.392 . S
C228 H245 0.929 . S
C229 C227 1.380 . S
C229 C228 1.392 . S
C229 H246 0.929 . S
C230 C225 1.383 . S
C230 C226 1.389 . S
C230 H247 0.931 . S
C231 O216 1.266 . S
C231 O217 1.248 . S
C232 Tb168 2.802 . S
C232 O212 1.264 . S
C232 O215 1.256 . S
C232 C225 1.496 . S
C233 C200 1.448 . S
C233 H210 0.930 . S
C233 C234 1.328 . S
C234 C205 1.427 . S
C234 H211 0.929 . S
C234 C233 1.328 . S
C235 O219 1.264 . S
C235 O220 1.243 . S
C236 C239 1.399 . S
C236 C240 1.383 . S
C236 C243 1.496 . S
C237 C238 1.399 . S
C237 C240 1.389 . S
C238 C237 1.399 . S
C238 C241 1.380 . S
C238 H248 0.929 . S
C239 C236 1.399 . S
C239 C241 1.392 . S
C239 H249 0.929 . S
C240 C236 1.383 . S
C240 C237 1.389 . S
C240 H250 0.931 . S
C241 C238 1.380 . S
C241 C239 1.392 . S
C241 H251 0.929 . S
C242 O222 1.266 . S
C242 O223 1.248 . S
C243 Tb179 2.802 1_554 S
C243 O218 1.264 . S
C243 O221 1.256 . S
C243 C236 1.496 . S
H244 C227 0.929 . S
H245 C228 0.929 . S
H246 C229 0.929 . S
H247 C230 0.931 . S
H248 C238 0.929 . S
H249 C239 0.929 . S
H250 C240 0.931 . S
H251 C241 0.929 . S
Tb252 N281 2.617 . S
Tb252 N287 2.572 . S
Tb252 O296 2.465 . S
Tb252 O297 2.387 . S
Tb252 O299 2.428 . S
Tb252 O300 2.308 . S
Tb252 O304 2.349 . S
Tb252 O307 2.393 . S
Tb252 C316 2.802 . S
C253 N254 1.379 . S
C253 C256 1.416 . S
C253 C260 1.424 . S
N254 C253 1.379 . S
N254 C257 1.334 . S
N254 Tb263 2.617 . S
C255 C257 1.390 . S
C255 C258 1.339 . S
C255 H275 0.930 . S
C256 C253 1.416 . S
C256 C258 1.416 . S
C256 C262 1.448 . S
C257 N254 1.334 . S
C257 C255 1.390 . S
C257 H268 0.930 . S
C258 C255 1.339 . S
C258 C256 1.416 . S
C258 H279 0.930 . S
C259 C260 1.413 . S
C259 C261 1.427 . S
C259 C265 1.416 1_565 S
C260 C253 1.424 . S
C260 C259 1.413 . S
C260 N264 1.361 . S
C261 C259 1.427 . S
C261 C262 1.328 . S
C261 H276 0.929 1_565 S
C262 C256 1.448 . S
C262 C261 1.328 . S
C262 H277 0.930 . S
Tb263 N254 2.617 . S
Tb263 N264 2.572 . S
Tb263 O298 2.349 . S
Tb263 O301 2.393 . S
Tb263 O302 2.465 . S
Tb263 O303 2.387 . S
Tb263 O305 2.428 . S
Tb263 O306 2.308 . S
Tb263 C327 2.802 . S
N264 C260 1.361 . S
N264 Tb263 2.572 . S
N264 C266 1.340 . S
C265 C259 1.416 1_545 S
C265 C267 1.332 . S
C265 H273 0.931 . S
C266 N264 1.340 . S
C266 C267 1.407 1_565 S
C266 H272 0.930 . S
C267 C265 1.332 . S
C267 C266 1.407 1_545 S
C267 H269 0.929 . S
H268 C257 0.930 . S
H269 C267 0.929 . S
H270 C285 0.930 . S
H271 C292 0.929 . S
H272 C266 0.930 . S
H273 C265 0.931 . S
H274 C288 0.930 . S
H275 C255 0.930 . S
H276 C261 0.929 1_545 S
H277 C262 0.930 . S
H278 C283 0.930 . S
H279 C258 0.930 . S
H280 C291 0.931 . S
N281 Tb252 2.617 . S
N281 C282 1.379 . S
N281 C285 1.334 . S
C282 N281 1.379 . S
C282 C284 1.416 . S
C282 C290 1.424 . S
C283 H278 0.930 . S
C283 C285 1.390 . S
C283 C286 1.339 . S
C284 C282 1.416 . S
C284 C286 1.416 . S
C284 C317 1.448 . S
C285 H270 0.930 . S
C285 N281 1.334 . S
C285 C283 1.390 . S
C286 C283 1.339 . S
C286 C284 1.416 . S
C286 H293 0.930 . S
N287 Tb252 2.572 . S
N287 C288 1.340 . S
N287 C290 1.361 . S
C288 H274 0.930 . S
C288 N287 1.340 . S
C288 C292 1.407 . S
C289 C290 1.413 . S
C289 C291 1.416 . S
C289 C318 1.427 . S
C290 C282 1.424 . S
C290 N287 1.361 . S
C290 C289 1.413 . S
C291 H280 0.931 . S
C291 C289 1.416 . S
C291 C292 1.332 . S
C292 H271 0.929 . S
C292 C288 1.407 . S
C292 C291 1.332 . S
H293 C286 0.930 . S
H294 C317 0.930 . S
H295 C318 0.929 . S
O296 Tb252 2.465 . S
O296 C316 1.264 . S
O297 Tb252 2.387 . S
O297 C308 1.264 . S
O298 Tb263 2.349 . S
O298 C308 1.243 . S
O299 Tb252 2.428 . S
O299 C316 1.256 . S
O300 Tb252 2.308 . S
O300 C315 1.266 . S
O301 Tb263 2.393 . S
O301 C315 1.248 . S
O302 Tb263 2.465 . S
O302 C327 1.264 . S
O303 Tb263 2.387 . S
O303 C319 1.264 . S
O304 Tb252 2.349 . S
O304 C319 1.243 . S
O305 Tb263 2.428 . S
O305 C327 1.256 . S
O306 Tb263 2.308 . S
O306 C326 1.266 . S
O307 Tb252 2.393 . S
O307 C326 1.248 . S
C308 O297 1.264 . S
C308 O298 1.243 . S
C309 C312 1.399 . S
C309 C314 1.383 . S
C309 C316 1.496 . S
C310 C311 1.399 1_554 S
C310 C314 1.389 . S
C311 C310 1.399 1_556 S
C311 C313 1.380 1_556 S
C311 H328 0.929 . S
C312 C309 1.399 . S
C312 C313 1.392 . S
C312 H329 0.929 . S
C313 C311 1.380 1_554 S
C313 C312 1.392 . S
C313 H330 0.929 . S
C314 C309 1.383 . S
C314 C310 1.389 . S
C314 H331 0.931 . S
C315 O300 1.266 . S
C315 O301 1.248 . S
C316 Tb252 2.802 . S
C316 O296 1.264 . S
C316 O299 1.256 . S
C316 C309 1.496 . S
C317 C284 1.448 . S
C317 H294 0.930 . S
C317 C318 1.328 . S
C318 C289 1.427 . S
C318 H295 0.929 . S
C318 C317 1.328 . S
C319 O303 1.264 . S
C319 O304 1.243 . S
C320 C323 1.399 . S
C320 C324 1.383 . S
C320 C327 1.496 . S
C321 C322 1.399 . S
C321 C324 1.389 . S
C322 C321 1.399 . S
C322 C325 1.380 . S
C322 H332 0.929 . S
C323 C320 1.399 . S
C323 C325 1.392 . S
C323 H333 0.929 . S
C324 C320 1.383 . S
C324 C321 1.389 . S
C324 H334 0.931 . S
C325 C322 1.380 . S
C325 C323 1.392 . S
C325 H335 0.929 . S
C326 O306 1.266 . S
C326 O307 1.248 . S
C327 Tb263 2.802 . S
C327 O302 1.264 . S
C327 O305 1.256 . S
C327 C320 1.496 . S
H328 C311 0.929 . S
H329 C312 0.929 . S
H330 C313 0.929 . S
H331 C314 0.931 . S
H332 C322 0.929 . S
H333 C323 0.929 . S
H334 C324 0.931 . S
H335 C325 0.929 . S
Tb336 N365 2.617 . S
Tb336 N371 2.572 . S
Tb336 O380 2.465 . S
Tb336 O381 2.387 . S
Tb336 O383 2.428 . S
Tb336 O384 2.308 . S
Tb336 O388 2.349 . S
Tb336 O391 2.393 . S
Tb336 C400 2.802 . S
C337 N338 1.379 . S
C337 C340 1.416 . S
C337 C344 1.424 . S
N338 C337 1.379 . S
N338 C341 1.334 . S
N338 Tb347 2.617 . S
C339 C341 1.390 . S
C339 C342 1.339 . S
C339 H359 0.930 . S
C340 C337 1.416 . S
C340 C342 1.416 . S
C340 C346 1.448 . S
C341 N338 1.334 . S
C341 C339 1.390 . S
C341 H352 0.930 . S
C342 C339 1.339 . S
C342 C340 1.416 . S
C342 H363 0.930 . S
C343 C344 1.413 . S
C343 C345 1.427 . S
C343 C349 1.416 . S
C344 C337 1.424 . S
C344 C343 1.413 . S
C344 N348 1.361 . S
C345 C343 1.427 . S
C345 C346 1.328 . S
C345 H360 0.929 . S
C346 C340 1.448 . S
C346 C345 1.328 . S
C346 H361 0.930 . S
Tb347 N338 2.617 . S
Tb347 N348 2.572 . S
Tb347 O382 2.349 . S
Tb347 O385 2.393 . S
Tb347 O386 2.465 . S
Tb347 O387 2.387 . S
Tb347 O389 2.428 . S
Tb347 O390 2.308 . S
Tb347 C411 2.802 . S
N348 C344 1.361 . S
N348 Tb347 2.572 . S
N348 C350 1.340 . S
C349 C343 1.416 . S
C349 C351 1.332 . S
C349 H357 0.931 . S
C350 N348 1.340 . S
C350 C351 1.407 . S
C350 H356 0.930 . S
C351 C349 1.332 . S
C351 C350 1.407 . S
C351 H353 0.929 . S
H352 C341 0.930 . S
H353 C351 0.929 . S
H354 C369 0.930 . S
H355 C376 0.929 . S
H356 C350 0.930 . S
H357 C349 0.931 . S
H358 C372 0.930 . S
H359 C339 0.930 . S
H360 C345 0.929 . S
H361 C346 0.930 . S
H362 C367 0.930 . S
H363 C342 0.930 . S
H364 C375 0.931 . S
N365 Tb336 2.617 . S
N365 C366 1.379 . S
N365 C369 1.334 . S
C366 N365 1.379 . S
C366 C368 1.416 . S
C366 C374 1.424 . S
C367 H362 0.930 . S
C367 C369 1.390 . S
C367 C370 1.339 . S
C368 C366 1.416 . S
C368 C370 1.416 . S
C368 C401 1.448 . S
C369 H354 0.930 . S
C369 N365 1.334 . S
C369 C367 1.390 . S
C370 C367 1.339 . S
C370 C368 1.416 . S
C370 H377 0.930 . S
N371 Tb336 2.572 . S
N371 C372 1.340 . S
N371 C374 1.361 . S
C372 H358 0.930 . S
C372 N371 1.340 . S
C372 C376 1.407 . S
C373 C374 1.413 . S
C373 C375 1.416 . S
C373 C402 1.427 . S
C374 C366 1.424 . S
C374 N371 1.361 . S
C374 C373 1.413 . S
C375 H364 0.931 . S
C375 C373 1.416 . S
C375 C376 1.332 . S
C376 H355 0.929 . S
C376 C372 1.407 . S
C376 C375 1.332 . S
H377 C370 0.930 . S
H378 C401 0.930 . S
H379 C402 0.929 . S
O380 Tb336 2.465 . S
O380 C400 1.264 . S
O381 Tb336 2.387 . S
O381 C392 1.264 . S
O382 Tb347 2.349 . S
O382 C392 1.243 . S
O383 Tb336 2.428 . S
O383 C400 1.256 . S
O384 Tb336 2.308 . S
O384 C399 1.266 . S
O385 Tb347 2.393 . S
O385 C399 1.248 . S
O386 Tb347 2.465 . S
O386 C411 1.264 . S
O387 Tb347 2.387 . S
O387 C403 1.264 . S
O388 Tb336 2.349 . S
O388 C403 1.243 . S
O389 Tb347 2.428 . S
O389 C411 1.256 . S
O390 Tb347 2.308 . S
O390 C410 1.266 . S
O391 Tb336 2.393 . S
O391 C410 1.248 . S
C392 O381 1.264 . S
C392 O382 1.243 . S
C393 C396 1.399 . S
C393 C398 1.383 . S
C393 C400 1.496 . S
C394 C395 1.399 . S
C394 C398 1.389 . S
C395 C394 1.399 . S
C395 C397 1.380 . S
C395 H412 0.929 . S
C396 C393 1.399 . S
C396 C397 1.392 . S
C396 H413 0.929 . S
C397 C395 1.380 . S
C397 C396 1.392 . S
C397 H414 0.929 . S
C398 C393 1.383 . S
C398 C394 1.389 . S
C398 H415 0.931 . S
C399 O384 1.266 . S
C399 O385 1.248 . S
C400 Tb336 2.802 . S
C400 O380 1.264 . S
C400 O383 1.256 . S
C400 C393 1.496 . S
C401 C368 1.448 . S
C401 H378 0.930 . S
C401 C402 1.328 . S
C402 C373 1.427 . S
C402 H379 0.929 . S
C402 C401 1.328 . S
C403 O387 1.264 . S
C403 O388 1.243 . S
C404 C407 1.399 . S
C404 C408 1.383 . S
C404 C411 1.496 . S
C405 C406 1.399 . S
C405 C408 1.389 . S
C406 C405 1.399 . S
C406 C409 1.380 . S
C406 H416 0.929 . S
C407 C404 1.399 . S
C407 C409 1.392 . S
C407 H417 0.929 . S
C408 C404 1.383 . S
C408 C405 1.389 . S
C408 H418 0.931 . S
C409 C406 1.380 . S
C409 C407 1.392 . S
C409 H419 0.929 . S
C410 O390 1.266 . S
C410 O391 1.248 . S
C411 Tb347 2.802 . S
C411 O386 1.264 . S
C411 O389 1.256 . S
C411 C404 1.496 . S
H412 C395 0.929 . S
H413 C396 0.929 . S
H414 C397 0.929 . S
H415 C398 0.931 . S
H416 C406 0.929 . S
H417 C407 0.929 . S
H418 C408 0.931 . S
H419 C409 0.929 . S
Tb420 N449 2.617 . S
Tb420 N455 2.572 . S
Tb420 O464 2.465 . S
Tb420 O465 2.387 . S
Tb420 O467 2.428 . S
Tb420 O468 2.308 . S
Tb420 O472 2.349 . S
Tb420 O475 2.393 . S
Tb420 C484 2.802 . S
C421 N422 1.379 . S
C421 C424 1.416 . S
C421 C428 1.424 . S
N422 C421 1.379 . S
N422 C425 1.334 . S
N422 Tb431 2.617 . S
C423 C425 1.390 . S
C423 C426 1.339 . S
C423 H443 0.930 . S
C424 C421 1.416 . S
C424 C426 1.416 . S
C424 C430 1.448 . S
C425 N422 1.334 . S
C425 C423 1.390 . S
C425 H436 0.930 . S
C426 C423 1.339 . S
C426 C424 1.416 . S
C426 H447 0.930 . S
C427 C428 1.413 . S
C427 C429 1.427 . S
C427 C433 1.416 1_455 S
C428 C421 1.424 . S
C428 C427 1.413 . S
C428 N432 1.361 . S
C429 C427 1.427 . S
C429 C430 1.328 . S
C429 H444 0.929 1_455 S
C430 C424 1.448 . S
C430 C429 1.328 . S
C430 H445 0.930 . S
Tb431 N422 2.617 . S
Tb431 N432 2.572 . S
Tb431 O466 2.349 . S
Tb431 O469 2.393 . S
Tb431 O470 2.465 1_556 S
Tb431 O471 2.387 . S
Tb431 O473 2.428 1_556 S
Tb431 O474 2.308 . S
Tb431 C495 2.802 1_556 S
N432 C428 1.361 . S
N432 Tb431 2.572 . S
N432 C434 1.340 . S
C433 C427 1.416 1_655 S
C433 C435 1.332 . S
C433 H441 0.931 . S
C434 N432 1.340 . S
C434 C435 1.407 1_455 S
C434 H440 0.930 . S
C435 C433 1.332 . S
C435 C434 1.407 1_655 S
C435 H437 0.929 . S
H436 C425 0.930 . S
H437 C435 0.929 . S
H438 C453 0.930 . S
H439 C460 0.929 . S
H440 C434 0.930 . S
H441 C433 0.931 . S
H442 C456 0.930 . S
H443 C423 0.930 . S
H444 C429 0.929 1_655 S
H445 C430 0.930 . S
H446 C451 0.930 . S
H447 C426 0.930 . S
H448 C459 0.931 . S
N449 Tb420 2.617 . S
N449 C450 1.379 . S
N449 C453 1.334 . S
C450 N449 1.379 . S
C450 C452 1.416 . S
C450 C458 1.424 . S
C451 H446 0.930 . S
C451 C453 1.390 . S
C451 C454 1.339 . S
C452 C450 1.416 . S
C452 C454 1.416 . S
C452 C485 1.448 . S
C453 H438 0.930 . S
C453 N449 1.334 . S
C453 C451 1.390 . S
C454 C451 1.339 . S
C454 C452 1.416 . S
C454 H461 0.930 . S
N455 Tb420 2.572 . S
N455 C456 1.340 . S
N455 C458 1.361 . S
C456 H442 0.930 . S
C456 N455 1.340 . S
C456 C460 1.407 . S
C457 C458 1.413 . S
C457 C459 1.416 . S
C457 C486 1.427 . S
C458 C450 1.424 . S
C458 N455 1.361 . S
C458 C457 1.413 . S
C459 H448 0.931 . S
C459 C457 1.416 . S
C459 C460 1.332 . S
C460 H439 0.929 . S
C460 C456 1.407 . S
C460 C459 1.332 . S
H461 C454 0.930 . S
H462 C485 0.930 . S
H463 C486 0.929 . S
O464 Tb420 2.465 . S
O464 C484 1.264 . S
O465 Tb420 2.387 . S
O465 C476 1.264 . S
O466 Tb431 2.349 . S
O466 C476 1.243 . S
O467 Tb420 2.428 . S
O467 C484 1.256 . S
O468 Tb420 2.308 . S
O468 C483 1.266 . S
O469 Tb431 2.393 . S
O469 C483 1.248 . S
O470 Tb431 2.465 1_554 S
O470 C495 1.264 . S
O471 Tb431 2.387 . S
O471 C487 1.264 . S
O472 Tb420 2.349 . S
O472 C487 1.243 . S
O473 Tb431 2.428 1_554 S
O473 C495 1.256 . S
O474 Tb431 2.308 . S
O474 C494 1.266 . S
O475 Tb420 2.393 . S
O475 C494 1.248 . S
C476 O465 1.264 . S
C476 O466 1.243 . S
C477 C480 1.399 . S
C477 C482 1.383 . S
C477 C484 1.496 . S
C478 C479 1.399 . S
C478 C482 1.389 . S
C479 C478 1.399 . S
C479 C481 1.380 . S
C479 H496 0.929 . S
C480 C477 1.399 . S
C480 C481 1.392 . S
C480 H497 0.929 . S
C481 C479 1.380 . S
C481 C480 1.392 . S
C481 H498 0.929 . S
C482 C477 1.383 . S
C482 C478 1.389 . S
C482 H499 0.931 . S
C483 O468 1.266 . S
C483 O469 1.248 . S
C484 Tb420 2.802 . S
C484 O464 1.264 . S
C484 O467 1.256 . S
C484 C477 1.496 . S
C485 C452 1.448 . S
C485 H462 0.930 . S
C485 C486 1.328 . S
C486 C457 1.427 . S
C486 H463 0.929 . S
C486 C485 1.328 . S
C487 O471 1.264 . S
C487 O472 1.243 . S
C488 C491 1.399 . S
C488 C492 1.383 . S
C488 C495 1.496 . S
C489 C490 1.399 . S
C489 C492 1.389 . S
C490 C489 1.399 . S
C490 C493 1.380 . S
C490 H500 0.929 . S
C491 C488 1.399 . S
C491 C493 1.392 . S
C491 H501 0.929 . S
C492 C488 1.383 . S
C492 C489 1.389 . S
C492 H502 0.931 . S
C493 C490 1.380 . S
C493 C491 1.392 . S
C493 H503 0.929 . S
C494 O474 1.266 . S
C494 O475 1.248 . S
C495 Tb431 2.802 1_554 S
C495 O470 1.264 . S
C495 O473 1.256 . S
C495 C488 1.496 . S
H496 C479 0.929 . S
H497 C480 0.929 . S
H498 C481 0.929 . S
H499 C482 0.931 . S
H500 C490 0.929 . S
H501 C491 0.929 . S
H502 C492 0.931 . S
H503 C493 0.929 . S
Tb504 N533 2.617 . S
Tb504 N539 2.572 . S
Tb504 O548 2.465 . S
Tb504 O549 2.387 . S
Tb504 O551 2.428 . S
Tb504 O552 2.308 . S
Tb504 O556 2.349 . S
Tb504 O559 2.393 . S
Tb504 C568 2.802 . S
C505 N506 1.379 . S
C505 C508 1.416 . S
C505 C512 1.424 . S
N506 C505 1.379 . S
N506 C509 1.334 . S
N506 Tb515 2.617 . S
C507 C509 1.390 . S
C507 C510 1.339 . S
C507 H527 0.930 . S
C508 C505 1.416 . S
C508 C510 1.416 . S
C508 C514 1.448 . S
C509 N506 1.334 . S
C509 C507 1.390 . S
C509 H520 0.930 . S
C510 C507 1.339 . S
C510 C508 1.416 . S
C510 H531 0.930 . S
C511 C512 1.413 . S
C511 C513 1.427 . S
C511 C517 1.416 1_655 S
C512 C505 1.424 . S
C512 C511 1.413 . S
C512 N516 1.361 . S
C513 C511 1.427 . S
C513 C514 1.328 . S
C513 H528 0.929 1_655 S
C514 C508 1.448 . S
C514 C513 1.328 . S
C514 H529 0.930 . S
Tb515 N506 2.617 . S
Tb515 N516 2.572 . S
Tb515 O550 2.349 . S
Tb515 O553 2.393 . S
Tb515 O554 2.465 . S
Tb515 O555 2.387 . S
Tb515 O557 2.428 . S
Tb515 O558 2.308 . S
Tb515 C579 2.802 . S
N516 C512 1.361 . S
N516 Tb515 2.572 . S
N516 C518 1.340 . S
C517 C511 1.416 1_455 S
C517 C519 1.332 . S
C517 H525 0.931 . S
C518 N516 1.340 . S
C518 C519 1.407 1_655 S
C518 H524 0.930 . S
C519 C517 1.332 . S
C519 C518 1.407 1_455 S
C519 H521 0.929 . S
H520 C509 0.930 . S
H521 C519 0.929 . S
H522 C537 0.930 . S
H523 C544 0.929 . S
H524 C518 0.930 . S
H525 C517 0.931 . S
H526 C540 0.930 . S
H527 C507 0.930 . S
H528 C513 0.929 1_455 S
H529 C514 0.930 . S
H530 C535 0.930 . S
H531 C510 0.930 . S
H532 C543 0.931 . S
N533 Tb504 2.617 . S
N533 C534 1.379 . S
N533 C537 1.334 . S
C534 N533 1.379 . S
C534 C536 1.416 . S
C534 C542 1.424 . S
C535 H530 0.930 . S
C535 C537 1.390 . S
C535 C538 1.339 . S
C536 C534 1.416 . S
C536 C538 1.416 . S
C536 C569 1.448 . S
C537 H522 0.930 . S
C537 N533 1.334 . S
C537 C535 1.390 . S
C538 C535 1.339 . S
C538 C536 1.416 . S
C538 H545 0.930 . S
N539 Tb504 2.572 . S
N539 C540 1.340 . S
N539 C542 1.361 . S
C540 H526 0.930 . S
C540 N539 1.340 . S
C540 C544 1.407 . S
C541 C542 1.413 . S
C541 C543 1.416 . S
C541 C570 1.427 . S
C542 C534 1.424 . S
C542 N539 1.361 . S
C542 C541 1.413 . S
C543 H532 0.931 . S
C543 C541 1.416 . S
C543 C544 1.332 . S
C544 H523 0.929 . S
C544 C540 1.407 . S
C544 C543 1.332 . S
H545 C538 0.930 . S
H546 C569 0.930 . S
H547 C570 0.929 . S
O548 Tb504 2.465 . S
O548 C568 1.264 . S
O549 Tb504 2.387 . S
O549 C560 1.264 . S
O550 Tb515 2.349 . S
O550 C560 1.243 . S
O551 Tb504 2.428 . S
O551 C568 1.256 . S
O552 Tb504 2.308 . S
O552 C567 1.266 . S
O553 Tb515 2.393 . S
O553 C567 1.248 . S
O554 Tb515 2.465 . S
O554 C579 1.264 . S
O555 Tb515 2.387 . S
O555 C571 1.264 . S
O556 Tb504 2.349 . S
O556 C571 1.243 . S
O557 Tb515 2.428 . S
O557 C579 1.256 . S
O558 Tb515 2.308 . S
O558 C578 1.266 . S
O559 Tb504 2.393 . S
O559 C578 1.248 . S
C560 O549 1.264 . S
C560 O550 1.243 . S
C561 C564 1.399 . S
C561 C566 1.383 . S
C561 C568 1.496 . S
C562 C563 1.399 . S
C562 C566 1.389 . S
C563 C562 1.399 . S
C563 C565 1.380 . S
C563 H580 0.929 . S
C564 C561 1.399 . S
C564 C565 1.392 . S
C564 H581 0.929 . S
C565 C563 1.380 . S
C565 C564 1.392 . S
C565 H582 0.929 . S
C566 C561 1.383 . S
C566 C562 1.389 . S
C566 H583 0.931 . S
C567 O552 1.266 . S
C567 O553 1.248 . S
C568 Tb504 2.802 . S
C568 O548 1.264 . S
C568 O551 1.256 . S
C568 C561 1.496 . S
C569 C536 1.448 . S
C569 H546 0.930 . S
C569 C570 1.328 . S
C570 C541 1.427 . S
C570 H547 0.929 . S
C570 C569 1.328 . S
C571 O555 1.264 . S
C571 O556 1.243 . S
C572 C575 1.399 . S
C572 C576 1.383 . S
C572 C579 1.496 . S
C573 C574 1.399 . S
C573 C576 1.389 . S
C574 C573 1.399 . S
C574 C577 1.380 . S
C574 H584 0.929 . S
C575 C572 1.399 . S
C575 C577 1.392 . S
C575 H585 0.929 . S
C576 C572 1.383 . S
C576 C573 1.389 . S
C576 H586 0.931 . S
C577 C574 1.380 . S
C577 C575 1.392 . S
C577 H587 0.929 . S
C578 O558 1.266 . S
C578 O559 1.248 . S
C579 Tb515 2.802 . S
C579 O554 1.264 . S
C579 O557 1.256 . S
C579 C572 1.496 . S
H580 C563 0.929 . S
H581 C564 0.929 . S
H582 C565 0.929 . S
H583 C566 0.931 . S
H584 C574 0.929 . S
H585 C575 0.929 . S
H586 C576 0.931 . S
H587 C577 0.929 . S
Tb588 N617 2.617 . S
Tb588 N623 2.572 . S
Tb588 O632 2.465 . S
Tb588 O633 2.387 . S
Tb588 O635 2.428 . S
Tb588 O636 2.308 . S
Tb588 O640 2.349 . S
Tb588 O643 2.393 . S
Tb588 C652 2.802 . S
C589 N590 1.379 . S
C589 C592 1.416 . S
C589 C596 1.424 . S
N590 C589 1.379 . S
N590 C593 1.334 . S
N590 Tb599 2.617 . S
C591 C593 1.390 . S
C591 C594 1.339 . S
C591 H611 0.930 . S
C592 C589 1.416 . S
C592 C594 1.416 . S
C592 C598 1.448 . S
C593 N590 1.334 . S
C593 C591 1.390 . S
C593 H604 0.930 . S
C594 C591 1.339 . S
C594 C592 1.416 . S
C594 H615 0.930 . S
C595 C596 1.413 . S
C595 C597 1.427 . S
C595 C601 1.416 1_565 S
C596 C589 1.424 . S
C596 C595 1.413 . S
C596 N600 1.361 . S
C597 C595 1.427 . S
C597 C598 1.328 . S
C597 H612 0.929 1_565 S
C598 C592 1.448 . S
C598 C597 1.328 . S
C598 H613 0.930 . S
Tb599 N590 2.617 . S
Tb599 N600 2.572 . S
Tb599 O634 2.349 . S
Tb599 O637 2.393 . S
Tb599 O638 2.465 . S
Tb599 O639 2.387 . S
Tb599 O641 2.428 . S
Tb599 O642 2.308 . S
Tb599 C663 2.802 . S
N600 C596 1.361 . S
N600 Tb599 2.572 . S
N600 C602 1.340 . S
C601 C595 1.416 1_545 S
C601 C603 1.332 . S
C601 H609 0.931 . S
C602 N600 1.340 . S
C602 C603 1.407 1_565 S
C602 H608 0.930 . S
C603 C601 1.332 . S
C603 C602 1.407 1_545 S
C603 H605 0.929 . S
H604 C593 0.930 . S
H605 C603 0.929 . S
H606 C621 0.930 . S
H607 C628 0.929 . S
H608 C602 0.930 . S
H609 C601 0.931 . S
H610 C624 0.930 . S
H611 C591 0.930 . S
H612 C597 0.929 1_545 S
H613 C598 0.930 . S
H614 C619 0.930 . S
H615 C594 0.930 . S
H616 C627 0.931 . S
N617 Tb588 2.617 . S
N617 C618 1.379 . S
N617 C621 1.334 . S
C618 N617 1.379 . S
C618 C620 1.416 . S
C618 C626 1.424 . S
C619 H614 0.930 . S
C619 C621 1.390 . S
C619 C622 1.339 . S
C620 C618 1.416 . S
C620 C622 1.416 . S
C620 C653 1.448 . S
C621 H606 0.930 . S
C621 N617 1.334 . S
C621 C619 1.390 . S
C622 C619 1.339 . S
C622 C620 1.416 . S
C622 H629 0.930 . S
N623 Tb588 2.572 . S
N623 C624 1.340 . S
N623 C626 1.361 . S
C624 H610 0.930 . S
C624 N623 1.340 . S
C624 C628 1.407 . S
C625 C626 1.413 . S
C625 C627 1.416 . S
C625 C654 1.427 . S
C626 C618 1.424 . S
C626 N623 1.361 . S
C626 C625 1.413 . S
C627 H616 0.931 . S
C627 C625 1.416 . S
C627 C628 1.332 . S
C628 H607 0.929 . S
C628 C624 1.407 . S
C628 C627 1.332 . S
H629 C622 0.930 . S
H630 C653 0.930 . S
H631 C654 0.929 . S
O632 Tb588 2.465 . S
O632 C652 1.264 . S
O633 Tb588 2.387 . S
O633 C644 1.264 . S
O634 Tb599 2.349 . S
O634 C644 1.243 . S
O635 Tb588 2.428 . S
O635 C652 1.256 . S
O636 Tb588 2.308 . S
O636 C651 1.266 . S
O637 Tb599 2.393 . S
O637 C651 1.248 . S
O638 Tb599 2.465 . S
O638 C663 1.264 . S
O639 Tb599 2.387 . S
O639 C655 1.264 . S
O640 Tb588 2.349 . S
O640 C655 1.243 . S
O641 Tb599 2.428 . S
O641 C663 1.256 . S
O642 Tb599 2.308 . S
O642 C662 1.266 . S
O643 Tb588 2.393 . S
O643 C662 1.248 . S
C644 O633 1.264 . S
C644 O634 1.243 . S
C645 C648 1.399 . S
C645 C650 1.383 . S
C645 C652 1.496 . S
C646 C647 1.399 1_556 S
C646 C650 1.389 . S
C647 C646 1.399 1_554 S
C647 C649 1.380 1_554 S
C647 H664 0.929 . S
C648 C645 1.399 . S
C648 C649 1.392 . S
C648 H665 0.929 . S
C649 C647 1.380 1_556 S
C649 C648 1.392 . S
C649 H666 0.929 . S
C650 C645 1.383 . S
C650 C646 1.389 . S
C650 H667 0.931 . S
C651 O636 1.266 . S
C651 O637 1.248 . S
C652 Tb588 2.802 . S
C652 O632 1.264 . S
C652 O635 1.256 . S
C652 C645 1.496 . S
C653 C620 1.448 . S
C653 H630 0.930 . S
C653 C654 1.328 . S
C654 C625 1.427 . S
C654 H631 0.929 . S
C654 C653 1.328 . S
C655 O639 1.264 . S
C655 O640 1.243 . S
C656 C659 1.399 . S
C656 C660 1.383 . S
C656 C663 1.496 . S
C657 C658 1.399 . S
C657 C660 1.389 . S
C658 C657 1.399 . S
C658 C661 1.380 . S
C658 H668 0.929 . S
C659 C656 1.399 . S
C659 C661 1.392 . S
C659 H669 0.929 . S
C660 C656 1.383 . S
C660 C657 1.389 . S
C660 H670 0.931 . S
C661 C658 1.380 . S
C661 C659 1.392 . S
C661 H671 0.929 . S
C662 O642 1.266 . S
C662 O643 1.248 . S
C663 Tb599 2.802 . S
C663 O638 1.264 . S
C663 O641 1.256 . S
C663 C656 1.496 . S
H664 C647 0.929 . S
H665 C648 0.929 . S
H666 C649 0.929 . S
H667 C650 0.931 . S
H668 C658 0.929 . S
H669 C659 0.929 . S
H670 C660 0.931 . S
H671 C661 0.929 . S
Tb672 N701 2.617 . S
Tb672 N707 2.572 . S
Tb672 O716 2.465 . S
Tb672 O717 2.387 . S
Tb672 O719 2.428 . S
Tb672 O720 2.308 . S
Tb672 O724 2.349 . S
Tb672 O727 2.393 . S
Tb672 C736 2.802 . S
C673 N674 1.379 . S
C673 C676 1.416 . S
C673 C680 1.424 . S
N674 C673 1.379 . S
N674 C677 1.334 . S
N674 Tb683 2.617 . S
C675 C677 1.390 . S
C675 C678 1.339 . S
C675 H695 0.930 . S
C676 C673 1.416 . S
C676 C678 1.416 . S
C676 C682 1.448 . S
C677 N674 1.334 . S
C677 C675 1.390 . S
C677 H688 0.930 . S
C678 C675 1.339 . S
C678 C676 1.416 . S
C678 H699 0.930 . S
C679 C680 1.413 . S
C679 C681 1.427 . S
C679 C685 1.416 . S
C680 C673 1.424 . S
C680 C679 1.413 . S
C680 N684 1.361 . S
C681 C679 1.427 . S
C681 C682 1.328 . S
C681 H696 0.929 . S
C682 C676 1.448 . S
C682 C681 1.328 . S
C682 H697 0.930 . S
Tb683 N674 2.617 . S
Tb683 N684 2.572 . S
Tb683 O718 2.349 . S
Tb683 O721 2.393 . S
Tb683 O722 2.465 1_554 S
Tb683 O723 2.387 . S
Tb683 O725 2.428 1_554 S
Tb683 O726 2.308 . S
Tb683 C747 2.802 1_554 S
N684 C680 1.361 . S
N684 Tb683 2.572 . S
N684 C686 1.340 . S
C685 C679 1.416 . S
C685 C687 1.332 . S
C685 H693 0.931 . S
C686 N684 1.340 . S
C686 C687 1.407 . S
C686 H692 0.930 . S
C687 C685 1.332 . S
C687 C686 1.407 . S
C687 H689 0.929 . S
H688 C677 0.930 . S
H689 C687 0.929 . S
H690 C705 0.930 . S
H691 C712 0.929 . S
H692 C686 0.930 . S
H693 C685 0.931 . S
H694 C708 0.930 . S
H695 C675 0.930 . S
H696 C681 0.929 . S
H697 C682 0.930 . S
H698 C703 0.930 . S
H699 C678 0.930 . S
H700 C711 0.931 . S
N701 Tb672 2.617 . S
N701 C702 1.379 . S
N701 C705 1.334 . S
C702 N701 1.379 . S
C702 C704 1.416 . S
C702 C710 1.424 . S
C703 H698 0.930 . S
C703 C705 1.390 . S
C703 C706 1.339 . S
C704 C702 1.416 . S
C704 C706 1.416 . S
C704 C737 1.448 . S
C705 H690 0.930 . S
C705 N701 1.334 . S
C705 C703 1.390 . S
C706 C703 1.339 . S
C706 C704 1.416 . S
C706 H713 0.930 . S
N707 Tb672 2.572 . S
N707 C708 1.340 . S
N707 C710 1.361 . S
C708 H694 0.930 . S
C708 N707 1.340 . S
C708 C712 1.407 . S
C709 C710 1.413 . S
C709 C711 1.416 . S
C709 C738 1.427 . S
C710 C702 1.424 . S
C710 N707 1.361 . S
C710 C709 1.413 . S
C711 H700 0.931 . S
C711 C709 1.416 . S
C711 C712 1.332 . S
C712 H691 0.929 . S
C712 C708 1.407 . S
C712 C711 1.332 . S
H713 C706 0.930 . S
H714 C737 0.930 . S
H715 C738 0.929 . S
O716 Tb672 2.465 . S
O716 C736 1.264 . S
O717 Tb672 2.387 . S
O717 C728 1.264 . S
O718 Tb683 2.349 . S
O718 C728 1.243 . S
O719 Tb672 2.428 . S
O719 C736 1.256 . S
O720 Tb672 2.308 . S
O720 C735 1.266 . S
O721 Tb683 2.393 . S
O721 C735 1.248 . S
O722 Tb683 2.465 1_556 S
O722 C747 1.264 . S
O723 Tb683 2.387 . S
O723 C739 1.264 . S
O724 Tb672 2.349 . S
O724 C739 1.243 . S
O725 Tb683 2.428 1_556 S
O725 C747 1.256 . S
O726 Tb683 2.308 . S
O726 C746 1.266 . S
O727 Tb672 2.393 . S
O727 C746 1.248 . S
C728 O717 1.264 . S
C728 O718 1.243 . S
C729 C732 1.399 . S
C729 C734 1.383 . S
C729 C736 1.496 . S
C730 C731 1.399 . S
C730 C734 1.389 . S
C731 C730 1.399 . S
C731 C733 1.380 . S
C731 H748 0.929 . S
C732 C729 1.399 . S
C732 C733 1.392 . S
C732 H749 0.929 . S
C733 C731 1.380 . S
C733 C732 1.392 . S
C733 H750 0.929 . S
C734 C729 1.383 . S
C734 C730 1.389 . S
C734 H751 0.931 . S
C735 O720 1.266 . S
C735 O721 1.248 . S
C736 Tb672 2.802 . S
C736 O716 1.264 . S
C736 O719 1.256 . S
C736 C729 1.496 . S
C737 C704 1.448 . S
C737 H714 0.930 . S
C737 C738 1.328 . S
C738 C709 1.427 . S
C738 H715 0.929 . S
C738 C737 1.328 . S
C739 O723 1.264 . S
C739 O724 1.243 . S
C740 C743 1.399 . S
C740 C744 1.383 . S
C740 C747 1.496 . S
C741 C742 1.399 . S
C741 C744 1.389 . S
C742 C741 1.399 . S
C742 C745 1.380 . S
C742 H752 0.929 . S
C743 C740 1.399 . S
C743 C745 1.392 . S
C743 H753 0.929 . S
C744 C740 1.383 . S
C744 C741 1.389 . S
C744 H754 0.931 . S
C745 C742 1.380 . S
C745 C743 1.392 . S
C745 H755 0.929 . S
C746 O726 1.266 . S
C746 O727 1.248 . S
C747 Tb683 2.802 1_556 S
C747 O722 1.264 . S
C747 O725 1.256 . S
C747 C740 1.496 . S
H748 C731 0.929 . S
H749 C732 0.929 . S
H750 C733 0.929 . S
H751 C734 0.931 . S
H752 C742 0.929 . S
H753 C743 0.929 . S
H754 C744 0.931 . S
H755 C745 0.929 . S
Tb756 N785 2.617 . S
Tb756 N791 2.572 . S
Tb756 O800 2.465 . S
Tb756 O801 2.387 . S
Tb756 O803 2.428 . S
Tb756 O804 2.308 . S
Tb756 O808 2.349 . S
Tb756 O811 2.393 . S
Tb756 C820 2.802 . S
C757 N758 1.379 . S
C757 C760 1.416 . S
C757 C764 1.424 . S
N758 C757 1.379 . S
N758 C761 1.334 . S
N758 Tb767 2.617 . S
C759 C761 1.390 . S
C759 C762 1.339 . S
C759 H779 0.930 . S
C760 C757 1.416 . S
C760 C762 1.416 . S
C760 C766 1.448 . S
C761 N758 1.334 . S
C761 C759 1.390 . S
C761 H772 0.930 . S
C762 C759 1.339 . S
C762 C760 1.416 . S
C762 H783 0.930 . S
C763 C764 1.413 . S
C763 C765 1.427 . S
C763 C769 1.416 1_455 S
C764 C757 1.424 . S
C764 C763 1.413 . S
C764 N768 1.361 . S
C765 C763 1.427 . S
C765 C766 1.328 . S
C765 H780 0.929 1_455 S
C766 C760 1.448 . S
C766 C765 1.328 . S
C766 H781 0.930 . S
Tb767 N758 2.617 . S
Tb767 N768 2.572 . S
Tb767 O802 2.349 . S
Tb767 O805 2.393 . S
Tb767 O806 2.465 . S
Tb767 O807 2.387 . S
Tb767 O809 2.428 . S
Tb767 O810 2.308 . S
Tb767 C831 2.802 . S
N768 C764 1.361 . S
N768 Tb767 2.572 . S
N768 C770 1.340 . S
C769 C763 1.416 1_655 S
C769 C771 1.332 . S
C769 H777 0.931 . S
C770 N768 1.340 . S
C770 C771 1.407 1_455 S
C770 H776 0.930 . S
C771 C769 1.332 . S
C771 C770 1.407 1_655 S
C771 H773 0.929 . S
H772 C761 0.930 . S
H773 C771 0.929 . S
H774 C789 0.930 . S
H775 C796 0.929 . S
H776 C770 0.930 . S
H777 C769 0.931 . S
H778 C792 0.930 . S
H779 C759 0.930 . S
H780 C765 0.929 1_655 S
H781 C766 0.930 . S
H782 C787 0.930 . S
H783 C762 0.930 . S
H784 C795 0.931 . S
N785 Tb756 2.617 . S
N785 C786 1.379 . S
N785 C789 1.334 . S
C786 N785 1.379 . S
C786 C788 1.416 . S
C786 C794 1.424 . S
C787 H782 0.930 . S
C787 C789 1.390 . S
C787 C790 1.339 . S
C788 C786 1.416 . S
C788 C790 1.416 . S
C788 C821 1.448 . S
C789 H774 0.930 . S
C789 N785 1.334 . S
C789 C787 1.390 . S
C790 C787 1.339 . S
C790 C788 1.416 . S
C790 H797 0.930 . S
N791 Tb756 2.572 . S
N791 C792 1.340 . S
N791 C794 1.361 . S
C792 H778 0.930 . S
C792 N791 1.340 . S
C792 C796 1.407 . S
C793 C794 1.413 . S
C793 C795 1.416 . S
C793 C822 1.427 . S
C794 C786 1.424 . S
C794 N791 1.361 . S
C794 C793 1.413 . S
C795 H784 0.931 . S
C795 C793 1.416 . S
C795 C796 1.332 . S
C796 H775 0.929 . S
C796 C792 1.407 . S
C796 C795 1.332 . S
H797 C790 0.930 . S
H798 C821 0.930 . S
H799 C822 0.929 . S
O800 Tb756 2.465 . S
O800 C820 1.264 . S
O801 Tb756 2.387 . S
O801 C812 1.264 . S
O802 Tb767 2.349 . S
O802 C812 1.243 . S
O803 Tb756 2.428 . S
O803 C820 1.256 . S
O804 Tb756 2.308 . S
O804 C819 1.266 . S
O805 Tb767 2.393 . S
O805 C819 1.248 . S
O806 Tb767 2.465 . S
O806 C831 1.264 . S
O807 Tb767 2.387 . S
O807 C823 1.264 . S
O808 Tb756 2.349 . S
O808 C823 1.243 . S
O809 Tb767 2.428 . S
O809 C831 1.256 . S
O810 Tb767 2.308 . S
O810 C830 1.266 . S
O811 Tb756 2.393 . S
O811 C830 1.248 . S
C812 O801 1.264 . S
C812 O802 1.243 . S
C813 C816 1.399 . S
C813 C818 1.383 . S
C813 C820 1.496 . S
C814 C815 1.399 . S
C814 C818 1.389 . S
C815 C814 1.399 . S
C815 C817 1.380 . S
C815 H832 0.929 . S
C816 C813 1.399 . S
C816 C817 1.392 . S
C816 H833 0.929 . S
C817 C815 1.380 . S
C817 C816 1.392 . S
C817 H834 0.929 . S
C818 C813 1.383 . S
C818 C814 1.389 . S
C818 H835 0.931 . S
C819 O804 1.266 . S
C819 O805 1.248 . S
C820 Tb756 2.802 . S
C820 O800 1.264 . S
C820 O803 1.256 . S
C820 C813 1.496 . S
C821 C788 1.448 . S
C821 H798 0.930 . S
C821 C822 1.328 . S
C822 C793 1.427 . S
C822 H799 0.929 . S
C822 C821 1.328 . S
C823 O807 1.264 . S
C823 O808 1.243 . S
C824 C827 1.399 . S
C824 C828 1.383 . S
C824 C831 1.496 . S
C825 C826 1.399 . S
C825 C828 1.389 . S
C826 C825 1.399 . S
C826 C829 1.380 . S
C826 H836 0.929 . S
C827 C824 1.399 . S
C827 C829 1.392 . S
C827 H837 0.929 . S
C828 C824 1.383 . S
C828 C825 1.389 . S
C828 H838 0.931 . S
C829 C826 1.380 . S
C829 C827 1.392 . S
C829 H839 0.929 . S
C830 O810 1.266 . S
C830 O811 1.248 . S
C831 Tb767 2.802 . S
C831 O806 1.264 . S
C831 O809 1.256 . S
C831 C824 1.496 . S
H832 C815 0.929 . S
H833 C816 0.929 . S
H834 C817 0.929 . S
H835 C818 0.931 . S
H836 C826 0.929 . S
H837 C827 0.929 . S
H838 C828 0.931 . S
H839 C829 0.929 . S
Tb840 N869 2.617 . S
Tb840 N875 2.572 . S
Tb840 O884 2.465 . S
Tb840 O885 2.387 . S
Tb840 O887 2.428 . S
Tb840 O888 2.308 . S
Tb840 O892 2.349 . S
Tb840 O895 2.393 . S
Tb840 C904 2.802 . S
C841 N842 1.379 . S
C841 C844 1.416 . S
C841 C848 1.424 . S
N842 C841 1.379 . S
N842 C845 1.334 . S
N842 Tb851 2.617 . S
C843 C845 1.390 . S
C843 C846 1.339 . S
C843 H863 0.930 . S
C844 C841 1.416 . S
C844 C846 1.416 . S
C844 C850 1.448 . S
C845 N842 1.334 . S
C845 C843 1.390 . S
C845 H856 0.930 . S
C846 C843 1.339 . S
C846 C844 1.416 . S
C846 H867 0.930 . S
C847 C848 1.413 . S
C847 C849 1.427 . S
C847 C853 1.416 1_545 S
C848 C841 1.424 . S
C848 C847 1.413 . S
C848 N852 1.361 . S
C849 C847 1.427 . S
C849 C850 1.328 . S
C849 H864 0.929 1_545 S
C850 C844 1.448 . S
C850 C849 1.328 . S
C850 H865 0.930 . S
Tb851 N842 2.617 . S
Tb851 N852 2.572 . S
Tb851 O886 2.349 . S
Tb851 O889 2.393 . S
Tb851 O890 2.465 . S
Tb851 O891 2.387 . S
Tb851 O893 2.428 . S
Tb851 O894 2.308 . S
Tb851 C915 2.802 . S
N852 C848 1.361 . S
N852 Tb851 2.572 . S
N852 C854 1.340 . S
C853 C847 1.416 1_565 S
C853 C855 1.332 . S
C853 H861 0.931 . S
C854 N852 1.340 . S
C854 C855 1.407 1_545 S
C854 H860 0.930 . S
C855 C853 1.332 . S
C855 C854 1.407 1_565 S
C855 H857 0.929 . S
H856 C845 0.930 . S
H857 C855 0.929 . S
H858 C873 0.930 . S
H859 C880 0.929 . S
H860 C854 0.930 . S
H861 C853 0.931 . S
H862 C876 0.930 . S
H863 C843 0.930 . S
H864 C849 0.929 1_565 S
H865 C850 0.930 . S
H866 C871 0.930 . S
H867 C846 0.930 . S
H868 C879 0.931 . S
N869 Tb840 2.617 . S
N869 C870 1.379 . S
N869 C873 1.334 . S
C870 N869 1.379 . S
C870 C872 1.416 . S
C870 C878 1.424 . S
C871 H866 0.930 . S
C871 C873 1.390 . S
C871 C874 1.339 . S
C872 C870 1.416 . S
C872 C874 1.416 . S
C872 C905 1.448 . S
C873 H858 0.930 . S
C873 N869 1.334 . S
C873 C871 1.390 . S
C874 C871 1.339 . S
C874 C872 1.416 . S
C874 H881 0.930 . S
N875 Tb840 2.572 . S
N875 C876 1.340 . S
N875 C878 1.361 . S
C876 H862 0.930 . S
C876 N875 1.340 . S
C876 C880 1.407 . S
C877 C878 1.413 . S
C877 C879 1.416 . S
C877 C906 1.427 . S
C878 C870 1.424 . S
C878 N875 1.361 . S
C878 C877 1.413 . S
C879 H868 0.931 . S
C879 C877 1.416 . S
C879 C880 1.332 . S
C880 H859 0.929 . S
C880 C876 1.407 . S
C880 C879 1.332 . S
H881 C874 0.930 . S
H882 C905 0.930 . S
H883 C906 0.929 . S
O884 Tb840 2.465 . S
O884 C904 1.264 . S
O885 Tb840 2.387 . S
O885 C896 1.264 . S
O886 Tb851 2.349 . S
O886 C896 1.243 . S
O887 Tb840 2.428 . S
O887 C904 1.256 . S
O888 Tb840 2.308 . S
O888 C903 1.266 . S
O889 Tb851 2.393 . S
O889 C903 1.248 . S
O890 Tb851 2.465 . S
O890 C915 1.264 . S
O891 Tb851 2.387 . S
O891 C907 1.264 . S
O892 Tb840 2.349 . S
O892 C907 1.243 . S
O893 Tb851 2.428 . S
O893 C915 1.256 . S
O894 Tb851 2.308 . S
O894 C914 1.266 . S
O895 Tb840 2.393 . S
O895 C914 1.248 . S
C896 O885 1.264 . S
C896 O886 1.243 . S
C897 C900 1.399 . S
C897 C902 1.383 . S
C897 C904 1.496 . S
C898 C899 1.399 1_556 S
C898 C902 1.389 . S
C899 C898 1.399 1_554 S
C899 C901 1.380 1_554 S
C899 H916 0.929 . S
C900 C897 1.399 . S
C900 C901 1.392 . S
C900 H917 0.929 . S
C901 C899 1.380 1_556 S
C901 C900 1.392 . S
C901 H918 0.929 . S
C902 C897 1.383 . S
C902 C898 1.389 . S
C902 H919 0.931 . S
C903 O888 1.266 . S
C903 O889 1.248 . S
C904 Tb840 2.802 . S
C904 O884 1.264 . S
C904 O887 1.256 . S
C904 C897 1.496 . S
C905 C872 1.448 . S
C905 H882 0.930 . S
C905 C906 1.328 . S
C906 C877 1.427 . S
C906 H883 0.929 . S
C906 C905 1.328 . S
C907 O891 1.264 . S
C907 O892 1.243 . S
C908 C911 1.399 . S
C908 C912 1.383 . S
C908 C915 1.496 . S
C909 C910 1.399 . S
C909 C912 1.389 . S
C910 C909 1.399 . S
C910 C913 1.380 . S
C910 H920 0.929 . S
C911 C908 1.399 . S
C911 C913 1.392 . S
C911 H921 0.929 . S
C912 C908 1.383 . S
C912 C909 1.389 . S
C912 H922 0.931 . S
C913 C910 1.380 . S
C913 C911 1.392 . S
C913 H923 0.929 . S
C914 O894 1.266 . S
C914 O895 1.248 . S
C915 Tb851 2.802 . S
C915 O890 1.264 . S
C915 O893 1.256 . S
C915 C908 1.496 . S
H916 C899 0.929 . S
H917 C900 0.929 . S
H918 C901 0.929 . S
H919 C902 0.931 . S
H920 C910 0.929 . S
H921 C911 0.929 . S
H922 C912 0.931 . S
H923 C913 0.929 . S
Tb924 N953 2.617 . S
Tb924 N959 2.572 . S
Tb924 O968 2.465 . S
Tb924 O969 2.387 . S
Tb924 O971 2.428 . S
Tb924 O972 2.308 . S
Tb924 O976 2.349 . S
Tb924 O979 2.393 . S
Tb924 C988 2.802 . S
C925 N926 1.379 . S
C925 C928 1.416 . S
C925 C932 1.424 . S
N926 C925 1.379 . S
N926 C929 1.334 . S
N926 Tb935 2.617 . S
C927 C929 1.390 . S
C927 C930 1.339 . S
C927 H947 0.930 . S
C928 C925 1.416 . S
C928 C930 1.416 . S
C928 C934 1.448 . S
C929 N926 1.334 . S
C929 C927 1.390 . S
C929 H940 0.930 . S
C930 C927 1.339 . S
C930 C928 1.416 . S
C930 H951 0.930 . S
C931 C932 1.413 . S
C931 C933 1.427 . S
C931 C937 1.416 . S
C932 C925 1.424 . S
C932 C931 1.413 . S
C932 N936 1.361 . S
C933 C931 1.427 . S
C933 C934 1.328 . S
C933 H948 0.929 . S
C934 C928 1.448 . S
C934 C933 1.328 . S
C934 H949 0.930 . S
Tb935 N926 2.617 . S
Tb935 N936 2.572 . S
Tb935 O970 2.349 . S
Tb935 O973 2.393 . S
Tb935 O974 2.465 1_554 S
Tb935 O975 2.387 . S
Tb935 O977 2.428 1_554 S
Tb935 O978 2.308 . S
Tb935 C999 2.802 1_554 S
N936 C932 1.361 . S
N936 Tb935 2.572 . S
N936 C938 1.340 . S
C937 C931 1.416 . S
C937 C939 1.332 . S
C937 H945 0.931 . S
C938 N936 1.340 . S
C938 C939 1.407 . S
C938 H944 0.930 . S
C939 C937 1.332 . S
C939 C938 1.407 . S
C939 H941 0.929 . S
H940 C929 0.930 . S
H941 C939 0.929 . S
H942 C957 0.930 . S
H943 C964 0.929 . S
H944 C938 0.930 . S
H945 C937 0.931 . S
H946 C960 0.930 . S
H947 C927 0.930 . S
H948 C933 0.929 . S
H949 C934 0.930 . S
H950 C955 0.930 . S
H951 C930 0.930 . S
H952 C963 0.931 . S
N953 Tb924 2.617 . S
N953 C954 1.379 . S
N953 C957 1.334 . S
C954 N953 1.379 . S
C954 C956 1.416 . S
C954 C962 1.424 . S
C955 H950 0.930 . S
C955 C957 1.390 . S
C955 C958 1.339 . S
C956 C954 1.416 . S
C956 C958 1.416 . S
C956 C989 1.448 . S
C957 H942 0.930 . S
C957 N953 1.334 . S
C957 C955 1.390 . S
C958 C955 1.339 . S
C958 C956 1.416 . S
C958 H965 0.930 . S
N959 Tb924 2.572 . S
N959 C960 1.340 . S
N959 C962 1.361 . S
C960 H946 0.930 . S
C960 N959 1.340 . S
C960 C964 1.407 . S
C961 C962 1.413 . S
C961 C963 1.416 . S
C961 C990 1.427 . S
C962 C954 1.424 . S
C962 N959 1.361 . S
C962 C961 1.413 . S
C963 H952 0.931 . S
C963 C961 1.416 . S
C963 C964 1.332 . S
C964 H943 0.929 . S
C964 C960 1.407 . S
C964 C963 1.332 . S
H965 C958 0.930 . S
H966 C989 0.930 . S
H967 C990 0.929 . S
O968 Tb924 2.465 . S
O968 C988 1.264 . S
O969 Tb924 2.387 . S
O969 C980 1.264 . S
O970 Tb935 2.349 . S
O970 C980 1.243 . S
O971 Tb924 2.428 . S
O971 C988 1.256 . S
O972 Tb924 2.308 . S
O972 C987 1.266 . S
O973 Tb935 2.393 . S
O973 C987 1.248 . S
O974 Tb935 2.465 1_556 S
O974 C999 1.264 . S
O975 Tb935 2.387 . S
O975 C991 1.264 . S
O976 Tb924 2.349 . S
O976 C991 1.243 . S
O977 Tb935 2.428 1_556 S
O977 C999 1.256 . S
O978 Tb935 2.308 . S
O978 C998 1.266 . S
O979 Tb924 2.393 . S
O979 C998 1.248 . S
C980 O969 1.264 . S
C980 O970 1.243 . S
C981 C984 1.399 . S
C981 C986 1.383 . S
C981 C988 1.496 . S
C982 C983 1.399 . S
C982 C986 1.389 . S
C983 C982 1.399 . S
C983 C985 1.380 . S
C983 H1000 0.929 . S
C984 C981 1.399 . S
C984 C985 1.392 . S
C984 H1001 0.929 . S
C985 C983 1.380 . S
C985 C984 1.392 . S
C985 H1002 0.929 . S
C986 C981 1.383 . S
C986 C982 1.389 . S
C986 H1003 0.931 . S
C987 O972 1.266 . S
C987 O973 1.248 . S
C988 Tb924 2.802 . S
C988 O968 1.264 . S
C988 O971 1.256 . S
C988 C981 1.496 . S
C989 C956 1.448 . S
C989 H966 0.930 . S
C989 C990 1.328 . S
C990 C961 1.427 . S
C990 H967 0.929 . S
C990 C989 1.328 . S
C991 O975 1.264 . S
C991 O976 1.243 . S
C992 C995 1.399 . S
C992 C996 1.383 . S
C992 C999 1.496 . S
C993 C994 1.399 . S
C993 C996 1.389 . S
C994 C993 1.399 . S
C994 C997 1.380 . S
C994 H1004 0.929 . S
C995 C992 1.399 . S
C995 C997 1.392 . S
C995 H1005 0.929 . S
C996 C992 1.383 . S
C996 C993 1.389 . S
C996 H1006 0.931 . S
C997 C994 1.380 . S
C997 C995 1.392 . S
C997 H1007 0.929 . S
C998 O978 1.266 . S
C998 O979 1.248 . S
C999 Tb935 2.802 1_556 S
C999 O974 1.264 . S
C999 O977 1.256 . S
C999 C992 1.496 . S
H1000 C983 0.929 . S
H1001 C984 0.929 . S
H1002 C985 0.929 . S
H1003 C986 0.931 . S
H1004 C994 0.929 . S
H1005 C995 0.929 . S
H1006 C996 0.931 . S
H1007 C997 0.929 . S
C1008 C1009 1.363 . S
C1008 C1014 1.379 . S
C1008 N1016 1.356 . S
C1009 C1008 1.363 . S
C1009 C1015 1.363 . S
C1010 C1011 1.363 . S
C1010 C1015 1.379 . S
C1010 N1017 1.356 . S
C1011 C1010 1.363 . S
C1011 C1014 1.363 . S
N1012 C1014 1.356 . S
N1012 H1024 0.984 . S
N1012 H1025 0.985 . S
N1013 C1015 1.356 . S
N1013 H1018 0.984 . S
N1013 H1019 0.985 . S
C1014 C1008 1.379 . S
C1014 C1011 1.363 . S
C1014 N1012 1.356 . S
C1015 C1009 1.363 . S
C1015 C1010 1.379 . S
C1015 N1013 1.356 . S
N1016 C1008 1.356 . S
N1016 H1022 0.984 . S
N1016 H1023 0.984 . S
N1017 C1010 1.356 . S
N1017 H1020 0.984 . S
N1017 H1021 0.985 . S
H1018 N1013 0.984 . S
H1019 N1013 0.985 . S
H1020 N1017 0.984 . S
H1021 N1017 0.985 . S
H1022 N1016 0.984 . S
H1023 N1016 0.984 . S
H1024 N1012 0.984 . S
H1025 N1012 0.985 . S
C1026 C1027 1.363 . S
C1026 C1032 1.379 . S
C1026 N1034 1.356 . S
C1027 C1026 1.363 . S
C1027 C1033 1.363 . S
C1028 C1029 1.363 . S
C1028 C1033 1.379 . S
C1028 N1035 1.356 . S
C1029 C1028 1.363 . S
C1029 C1032 1.363 . S
N1030 C1032 1.356 . S
N1030 H1042 0.984 . S
N1030 H1043 0.985 . S
N1031 C1033 1.356 . S
N1031 H1036 0.984 . S
N1031 H1037 0.985 . S
C1032 C1026 1.379 . S
C1032 C1029 1.363 . S
C1032 N1030 1.356 . S
C1033 C1027 1.363 . S
C1033 C1028 1.379 . S
C1033 N1031 1.356 . S
N1034 C1026 1.356 . S
N1034 H1040 0.984 . S
N1034 H1041 0.984 . S
N1035 C1028 1.356 . S
N1035 H1038 0.984 . S
N1035 H1039 0.985 . S
H1036 N1031 0.984 . S
H1037 N1031 0.985 . S
H1038 N1035 0.984 . S
H1039 N1035 0.985 . S
H1040 N1034 0.984 . S
H1041 N1034 0.984 . S
H1042 N1030 0.984 . S
H1043 N1030 0.985 . S
C1044 C1045 1.363 . S
C1044 C1050 1.379 . S
C1044 N1052 1.356 . S
C1045 C1044 1.363 . S
C1045 C1051 1.363 . S
C1046 C1047 1.363 . S
C1046 C1051 1.379 . S
C1046 N1053 1.356 . S
C1047 C1046 1.363 . S
C1047 C1050 1.363 . S
N1048 C1050 1.356 . S
N1048 H1060 0.984 . S
N1048 H1061 0.985 . S
N1049 C1051 1.356 . S
N1049 H1054 0.984 . S
N1049 H1055 0.985 . S
C1050 C1044 1.379 . S
C1050 C1047 1.363 . S
C1050 N1048 1.356 . S
C1051 C1045 1.363 . S
C1051 C1046 1.379 . S
C1051 N1049 1.356 . S
N1052 C1044 1.356 . S
N1052 H1058 0.984 . S
N1052 H1059 0.984 . S
N1053 C1046 1.356 . S
N1053 H1056 0.984 . S
N1053 H1057 0.985 . S
H1054 N1049 0.984 . S
H1055 N1049 0.985 . S
H1056 N1053 0.984 . S
H1057 N1053 0.985 . S
H1058 N1052 0.984 . S
H1059 N1052 0.984 . S
H1060 N1048 0.984 . S
H1061 N1048 0.985 . S
C1062 C1063 1.363 . S
C1062 C1068 1.379 . S
C1062 N1070 1.356 . S
C1063 C1062 1.363 . S
C1063 C1069 1.363 . S
C1064 C1065 1.363 . S
C1064 C1069 1.379 . S
C1064 N1071 1.356 . S
C1065 C1064 1.363 . S
C1065 C1068 1.363 . S
N1066 C1068 1.356 . S
N1066 H1078 0.984 . S
N1066 H1079 0.985 . S
N1067 C1069 1.356 . S
N1067 H1072 0.984 . S
N1067 H1073 0.985 . S
C1068 C1062 1.379 . S
C1068 C1065 1.363 . S
C1068 N1066 1.356 . S
C1069 C1063 1.363 . S
C1069 C1064 1.379 . S
C1069 N1067 1.356 . S
N1070 C1062 1.356 . S
N1070 H1076 0.984 . S
N1070 H1077 0.984 . S
N1071 C1064 1.356 . S
N1071 H1074 0.984 . S
N1071 H1075 0.985 . S
H1072 N1067 0.984 . S
H1073 N1067 0.985 . S
H1074 N1071 0.984 . S
H1075 N1071 0.985 . S
H1076 N1070 0.984 . S
H1077 N1070 0.984 . S
H1078 N1066 0.984 . S
H1079 N1066 0.985 . S
C1080 C1081 1.363 . S
C1080 C1086 1.379 . S
C1080 N1088 1.356 . S
C1081 C1080 1.363 . S
C1081 C1087 1.363 . S
C1082 C1083 1.363 . S
C1082 C1087 1.379 . S
C1082 N1089 1.356 . S
C1083 C1082 1.363 . S
C1083 C1086 1.363 . S
N1084 C1086 1.356 . S
N1084 H1096 0.984 . S
N1084 H1097 0.985 . S
N1085 C1087 1.356 . S
N1085 H1090 0.984 . S
N1085 H1091 0.985 . S
C1086 C1080 1.379 . S
C1086 C1083 1.363 . S
C1086 N1084 1.356 . S
C1087 C1081 1.363 . S
C1087 C1082 1.379 . S
C1087 N1085 1.356 . S
N1088 C1080 1.356 . S
N1088 H1094 0.984 . S
N1088 H1095 0.984 . S
N1089 C1082 1.356 . S
N1089 H1092 0.984 . S
N1089 H1093 0.985 . S
H1090 N1085 0.984 . S
H1091 N1085 0.985 . S
H1092 N1089 0.984 . S
H1093 N1089 0.985 . S
H1094 N1088 0.984 . S
H1095 N1088 0.984 . S
H1096 N1084 0.984 . S
H1097 N1084 0.985 . S
C1098 C1099 1.363 . S
C1098 C1104 1.379 . S
C1098 N1106 1.356 . S
C1099 C1098 1.363 . S
C1099 C1105 1.363 . S
C1100 C1101 1.363 . S
C1100 C1105 1.379 . S
C1100 N1107 1.356 . S
C1101 C1100 1.363 . S
C1101 C1104 1.363 . S
N1102 C1104 1.356 . S
N1102 H1114 0.984 . S
N1102 H1115 0.985 . S
N1103 C1105 1.356 . S
N1103 H1108 0.984 . S
N1103 H1109 0.985 . S
C1104 C1098 1.379 . S
C1104 C1101 1.363 . S
C1104 N1102 1.356 . S
C1105 C1099 1.363 . S
C1105 C1100 1.379 . S
C1105 N1103 1.356 . S
N1106 C1098 1.356 . S
N1106 H1112 0.984 . S
N1106 H1113 0.984 . S
N1107 C1100 1.356 . S
N1107 H1110 0.984 . S
N1107 H1111 0.985 . S
H1108 N1103 0.984 . S
H1109 N1103 0.985 . S
H1110 N1107 0.984 . S
H1111 N1107 0.985 . S
H1112 N1106 0.984 . S
H1113 N1106 0.984 . S
H1114 N1102 0.984 . S
H1115 N1102 0.985 . S
C1116 C1117 1.363 . S
C1116 C1122 1.379 . S
C1116 N1124 1.356 . S
C1117 C1116 1.363 . S
C1117 C1123 1.363 1_554 S
C1118 C1119 1.363 . S
C1118 C1123 1.379 . S
C1118 N1125 1.356 . S
C1119 C1118 1.363 . S
C1119 C1122 1.363 1_556 S
N1120 C1122 1.356 . S
N1120 H1132 0.984 . S
N1120 H1133 0.985 1_554 S
N1121 C1123 1.356 . S
N1121 H1126 0.984 1_556 S
N1121 H1127 0.985 . S
C1122 C1116 1.379 . S
C1122 C1119 1.363 1_554 S
C1122 N1120 1.356 . S
C1123 C1117 1.363 1_556 S
C1123 C1118 1.379 . S
C1123 N1121 1.356 . S
N1124 C1116 1.356 . S
N1124 H1130 0.984 . S
N1124 H1131 0.984 . S
N1125 C1118 1.356 . S
N1125 H1128 0.984 . S
N1125 H1129 0.985 . S
H1126 N1121 0.984 1_554 S
H1127 N1121 0.985 . S
H1128 N1125 0.984 . S
H1129 N1125 0.985 . S
H1130 N1124 0.984 . S
H1131 N1124 0.984 . S
H1132 N1120 0.984 . S
H1133 N1120 0.985 1_556 S
C1134 C1135 1.363 . S
C1134 C1140 1.379 . S
C1134 N1142 1.356 . S
C1135 C1134 1.363 . S
C1135 C1141 1.363 . S
C1136 C1137 1.363 . S
C1136 C1141 1.379 . S
C1136 N1143 1.356 . S
C1137 C1136 1.363 . S
C1137 C1140 1.363 . S
N1138 C1140 1.356 . S
N1138 H1150 0.984 . S
N1138 H1151 0.985 . S
N1139 C1141 1.356 . S
N1139 H1144 0.984 . S
N1139 H1145 0.985 . S
C1140 C1134 1.379 . S
C1140 C1137 1.363 . S
C1140 N1138 1.356 . S
C1141 C1135 1.363 . S
C1141 C1136 1.379 . S
C1141 N1139 1.356 . S
N1142 C1134 1.356 . S
N1142 H1148 0.984 . S
N1142 H1149 0.984 . S
N1143 C1136 1.356 . S
N1143 H1146 0.984 . S
N1143 H1147 0.985 . S
H1144 N1139 0.984 . S
H1145 N1139 0.985 . S
H1146 N1143 0.984 . S
H1147 N1143 0.985 . S
H1148 N1142 0.984 . S
H1149 N1142 0.984 . S
H1150 N1138 0.984 . S
H1151 N1138 0.985 . S
C1152 C1153 1.363 . S
C1152 C1158 1.379 . S
C1152 N1160 1.356 . S
C1153 C1152 1.363 . S
C1153 C1159 1.363 . S
C1154 C1155 1.363 . S
C1154 C1159 1.379 . S
C1154 N1161 1.356 . S
C1155 C1154 1.363 . S
C1155 C1158 1.363 . S
N1156 C1158 1.356 . S
N1156 H1168 0.984 . S
N1156 H1169 0.985 . S
N1157 C1159 1.356 . S
N1157 H1162 0.984 . S
N1157 H1163 0.985 . S
C1158 C1152 1.379 . S
C1158 C1155 1.363 . S
C1158 N1156 1.356 . S
C1159 C1153 1.363 . S
C1159 C1154 1.379 . S
C1159 N1157 1.356 . S
N1160 C1152 1.356 . S
N1160 H1166 0.984 . S
N1160 H1167 0.984 . S
N1161 C1154 1.356 . S
N1161 H1164 0.984 . S
N1161 H1165 0.985 . S
H1162 N1157 0.984 . S
H1163 N1157 0.985 . S
H1164 N1161 0.984 . S
H1165 N1161 0.985 . S
H1166 N1160 0.984 . S
H1167 N1160 0.984 . S
H1168 N1156 0.984 . S
H1169 N1156 0.985 . S
C1170 C1171 1.363 . S
C1170 C1176 1.379 . S
C1170 N1178 1.356 . S
C1171 C1170 1.363 . S
C1171 C1177 1.363 1_554 S
C1172 C1173 1.363 . S
C1172 C1177 1.379 . S
C1172 N1179 1.356 . S
C1173 C1172 1.363 . S
C1173 C1176 1.363 1_556 S
N1174 C1176 1.356 . S
N1174 H1186 0.984 . S
N1174 H1187 0.985 1_554 S
N1175 C1177 1.356 . S
N1175 H1180 0.984 1_556 S
N1175 H1181 0.985 . S
C1176 C1170 1.379 . S
C1176 C1173 1.363 1_554 S
C1176 N1174 1.356 . S
C1177 C1171 1.363 1_556 S
C1177 C1172 1.379 . S
C1177 N1175 1.356 . S
N1178 C1170 1.356 . S
N1178 H1184 0.984 . S
N1178 H1185 0.984 . S
N1179 C1172 1.356 . S
N1179 H1182 0.984 . S
N1179 H1183 0.985 . S
H1180 N1175 0.984 1_554 S
H1181 N1175 0.985 . S
H1182 N1179 0.984 . S
H1183 N1179 0.985 . S
H1184 N1178 0.984 . S
H1185 N1178 0.984 . S
H1186 N1174 0.984 . S
H1187 N1174 0.985 1_556 S
C1188 C1189 1.363 . S
C1188 C1194 1.379 . S
C1188 N1196 1.356 . S
C1189 C1188 1.363 . S
C1189 C1195 1.363 . S
C1190 C1191 1.363 . S
C1190 C1195 1.379 . S
C1190 N1197 1.356 . S
C1191 C1190 1.363 . S
C1191 C1194 1.363 . S
N1192 C1194 1.356 . S
N1192 H1204 0.984 . S
N1192 H1205 0.985 . S
N1193 C1195 1.356 . S
N1193 H1198 0.984 . S
N1193 H1199 0.985 . S
C1194 C1188 1.379 . S
C1194 C1191 1.363 . S
C1194 N1192 1.356 . S
C1195 C1189 1.363 . S
C1195 C1190 1.379 . S
C1195 N1193 1.356 . S
N1196 C1188 1.356 . S
N1196 H1202 0.984 . S
N1196 H1203 0.984 . S
N1197 C1190 1.356 . S
N1197 H1200 0.984 . S
N1197 H1201 0.985 . S
H1198 N1193 0.984 . S
H1199 N1193 0.985 . S
H1200 N1197 0.984 . S
H1201 N1197 0.985 . S
H1202 N1196 0.984 . S
H1203 N1196 0.984 . S
H1204 N1192 0.984 . S
H1205 N1192 0.985 . S
C1206 C1207 1.363 . S
C1206 C1212 1.379 . S
C1206 N1214 1.356 . S
C1207 C1206 1.363 . S
C1207 C1213 1.363 . S
C1208 C1209 1.363 . S
C1208 C1213 1.379 . S
C1208 N1215 1.356 . S
C1209 C1208 1.363 . S
C1209 C1212 1.363 . S
N1210 C1212 1.356 . S
N1210 H1222 0.984 . S
N1210 H1223 0.985 . S
N1211 C1213 1.356 . S
N1211 H1216 0.984 . S
N1211 H1217 0.985 . S
C1212 C1206 1.379 . S
C1212 C1209 1.363 . S
C1212 N1210 1.356 . S
C1213 C1207 1.363 . S
C1213 C1208 1.379 . S
C1213 N1211 1.356 . S
N1214 C1206 1.356 . S
N1214 H1220 0.984 . S
N1214 H1221 0.984 . S
N1215 C1208 1.356 . S
N1215 H1218 0.984 . S
N1215 H1219 0.985 . S
H1216 N1211 0.984 . S
H1217 N1211 0.985 . S
H1218 N1215 0.984 . S
H1219 N1215 0.985 . S
H1220 N1214 0.984 . S
H1221 N1214 0.984 . S
H1222 N1210 0.984 . S
H1223 N1210 0.985 . S
C1224 C1225 1.363 1_545 S
C1224 C1230 1.378 . S
C1224 N1232 1.356 . S
C1225 C1224 1.363 1_565 S
C1225 C1231 1.364 1_556 S
C1226 C1227 1.363 1_565 S
C1226 C1231 1.378 . S
C1226 N1233 1.356 . S
C1227 C1226 1.363 1_545 S
C1227 C1230 1.364 1_554 S
N1228 C1230 1.356 1_554 S
N1228 H1240 0.984 1_554 S
N1228 H1241 0.985 . S
N1229 C1231 1.356 1_556 S
N1229 H1234 0.984 . S
N1229 H1235 0.985 1_556 S
C1230 C1224 1.378 . S
C1230 C1227 1.364 1_556 S
C1230 N1228 1.356 1_556 S
C1231 C1225 1.364 1_554 S
C1231 C1226 1.378 . S
C1231 N1229 1.356 1_554 S
N1232 C1224 1.356 . S
N1232 H1238 0.984 . S
N1232 H1239 0.984 1_545 S
N1233 C1226 1.356 . S
N1233 H1236 0.984 1_565 S
N1233 H1237 0.985 . S
H1234 N1229 0.984 . S
H1235 N1229 0.985 1_554 S
H1236 N1233 0.984 1_545 S
H1237 N1233 0.985 . S
H1238 N1232 0.984 . S
H1239 N1232 0.984 1_565 S
H1240 N1228 0.984 1_556 S
H1241 N1228 0.985 . S
C1242 C1243 1.363 . S
C1242 C1248 1.379 . S
C1242 N1250 1.356 . S
C1243 C1242 1.363 . S
C1243 C1249 1.363 . S
C1244 C1245 1.363 . S
C1244 C1249 1.379 . S
C1244 N1251 1.356 . S
C1245 C1244 1.363 . S
C1245 C1248 1.363 . S
N1246 C1248 1.356 . S
N1246 H1258 0.984 . S
N1246 H1259 0.985 . S
N1247 C1249 1.356 . S
N1247 H1252 0.984 . S
N1247 H1253 0.985 . S
C1248 C1242 1.379 . S
C1248 C1245 1.363 . S
C1248 N1246 1.356 . S
C1249 C1243 1.363 . S
C1249 C1244 1.379 . S
C1249 N1247 1.356 . S
N1250 C1242 1.356 . S
N1250 H1256 0.984 . S
N1250 H1257 0.984 . S
N1251 C1244 1.356 . S
N1251 H1254 0.984 . S
N1251 H1255 0.985 . S
H1252 N1247 0.984 . S
H1253 N1247 0.985 . S
H1254 N1251 0.984 . S
H1255 N1251 0.985 . S
H1256 N1250 0.984 . S
H1257 N1250 0.984 . S
H1258 N1246 0.984 . S
H1259 N1246 0.985 . S
C1260 C1261 1.363 . S
C1260 C1266 1.379 . S
C1260 N1268 1.356 . S
C1261 C1260 1.363 . S
C1261 C1267 1.363 1_455 S
C1262 C1263 1.363 . S
C1262 C1267 1.379 . S
C1262 N1269 1.356 . S
C1263 C1262 1.363 . S
C1263 C1266 1.363 1_655 S
N1264 C1266 1.356 . S
N1264 H1276 0.984 . S
N1264 H1277 0.985 1_455 S
N1265 C1267 1.356 . S
N1265 H1270 0.984 1_655 S
N1265 H1271 0.985 . S
C1266 C1260 1.379 . S
C1266 C1263 1.363 1_455 S
C1266 N1264 1.356 . S
C1267 C1261 1.363 1_655 S
C1267 C1262 1.379 . S
C1267 N1265 1.356 . S
N1268 C1260 1.356 . S
N1268 H1274 0.984 . S
N1268 H1275 0.984 . S
N1269 C1262 1.356 . S
N1269 H1272 0.984 . S
N1269 H1273 0.985 . S
H1270 N1265 0.984 1_455 S
H1271 N1265 0.985 . S
H1272 N1269 0.984 . S
H1273 N1269 0.985 . S
H1274 N1268 0.984 . S
H1275 N1268 0.984 . S
H1276 N1264 0.984 . S
H1277 N1264 0.985 1_655 S
C1278 C1279 1.363 . S
C1278 C1284 1.372 1_564 S
C1278 N1286 1.356 . S
C1279 C1278 1.363 . S
C1279 C1285 1.376 . S
C1280 C1281 1.363 . S
C1280 C1285 1.372 1_546 S
C1280 N1287 1.356 . S
C1281 C1280 1.363 . S
C1281 C1284 1.376 . S
N1282 C1284 1.354 . S
N1282 H1294 0.984 1_545 S
N1282 H1295 0.985 . S
N1283 C1285 1.354 . S
N1283 H1288 0.984 . S
N1283 H1289 0.985 1_565 S
C1284 C1278 1.372 1_546 S
C1284 C1281 1.376 . S
C1284 N1282 1.354 . S
C1285 C1279 1.376 . S
C1285 C1280 1.372 1_564 S
C1285 N1283 1.354 . S
N1286 C1278 1.356 . S
N1286 H1292 0.984 . S
N1286 H1293 0.984 . S
N1287 C1280 1.356 . S
N1287 H1290 0.984 . S
N1287 H1291 0.985 . S
H1288 N1283 0.984 . S
H1289 N1283 0.985 1_545 S
H1290 N1287 0.984 . S
H1291 N1287 0.985 . S
H1292 N1286 0.984 . S
H1293 N1286 0.984 . S
H1294 N1282 0.984 1_565 S
H1295 N1282 0.985 . S
C1296 C1297 1.363 . S
C1296 C1302 1.379 . S
C1296 N1304 1.356 . S
C1297 C1296 1.363 . S
C1297 C1303 1.363 . S
C1298 C1299 1.363 . S
C1298 C1303 1.379 . S
C1298 N1305 1.356 . S
C1299 C1298 1.363 . S
C1299 C1302 1.363 . S
N1300 C1302 1.356 . S
N1300 H1312 0.984 . S
N1300 H1313 0.985 . S
N1301 C1303 1.356 . S
N1301 H1306 0.984 . S
N1301 H1307 0.985 . S
C1302 C1296 1.379 . S
C1302 C1299 1.363 . S
C1302 N1300 1.356 . S
C1303 C1297 1.363 . S
C1303 C1298 1.379 . S
C1303 N1301 1.356 . S
N1304 C1296 1.356 . S
N1304 H1310 0.984 . S
N1304 H1311 0.984 . S
N1305 C1298 1.356 . S
N1305 H1308 0.984 . S
N1305 H1309 0.985 . S
H1306 N1301 0.984 . S
H1307 N1301 0.985 . S
H1308 N1305 0.984 . S
H1309 N1305 0.985 . S
H1310 N1304 0.984 . S
H1311 N1304 0.984 . S
H1312 N1300 0.984 . S
H1313 N1300 0.985 . S
C1314 C1315 1.363 . S
C1314 C1320 1.379 1_455 S
C1314 N1322 1.356 . S
C1315 C1314 1.363 . S
C1315 C1321 1.363 . S
C1316 C1317 1.363 . S
C1316 C1321 1.379 1_655 S
C1316 N1323 1.356 . S
C1317 C1316 1.363 . S
C1317 C1320 1.363 . S
N1318 C1320 1.356 . S
N1318 H1330 0.984 . S
N1318 H1331 0.985 . S
N1319 C1321 1.356 . S
N1319 H1324 0.984 . S
N1319 H1325 0.985 . S
C1320 C1314 1.379 1_655 S
C1320 C1317 1.363 . S
C1320 N1318 1.356 . S
C1321 C1315 1.363 . S
C1321 C1316 1.379 1_455 S
C1321 N1319 1.356 . S
N1322 C1314 1.356 . S
N1322 H1328 0.984 . S
N1322 H1329 0.984 . S
N1323 C1316 1.356 . S
N1323 H1326 0.984 . S
N1323 H1327 0.985 . S
H1324 N1319 0.984 . S
H1325 N1319 0.985 . S
H1326 N1323 0.984 . S
H1327 N1323 0.985 . S
H1328 N1322 0.984 . S
H1329 N1322 0.984 . S
H1330 N1318 0.984 . S
H1331 N1318 0.985 . S
C1332 C1333 1.363 . S
C1332 C1338 1.379 1_545 S
C1332 N1340 1.356 . S
C1333 C1332 1.363 . S
C1333 C1339 1.363 . S
C1334 C1335 1.363 . S
C1334 C1339 1.379 1_565 S
C1334 N1341 1.356 . S
C1335 C1334 1.363 . S
C1335 C1338 1.363 . S
N1336 C1338 1.356 . S
N1336 H1348 0.984 . S
N1336 H1349 0.985 . S
N1337 C1339 1.356 . S
N1337 H1342 0.984 . S
N1337 H1343 0.985 . S
C1338 C1332 1.379 1_565 S
C1338 C1335 1.363 . S
C1338 N1336 1.356 . S
C1339 C1333 1.363 . S
C1339 C1334 1.379 1_545 S
C1339 N1337 1.356 . S
N1340 C1332 1.356 . S
N1340 H1346 0.984 . S
N1340 H1347 0.984 . S
N1341 C1334 1.356 . S
N1341 H1344 0.984 . S
N1341 H1345 0.985 . S
H1342 N1337 0.984 . S
H1343 N1337 0.985 . S
H1344 N1341 0.984 . S
H1345 N1341 0.985 . S
H1346 N1340 0.984 . S
H1347 N1340 0.984 . S
H1348 N1336 0.984 . S
H1349 N1336 0.985 . S
C1350 C1351 1.363 . S
C1350 C1356 1.379 . S
C1350 N1358 1.356 . S
C1351 C1350 1.363 . S
C1351 C1357 1.363 . S
C1352 C1353 1.363 . S
C1352 C1357 1.379 . S
C1352 N1359 1.356 . S
C1353 C1352 1.363 . S
C1353 C1356 1.363 . S
N1354 C1356 1.356 . S
N1354 H1366 0.984 . S
N1354 H1367 0.985 . S
N1355 C1357 1.356 . S
N1355 H1360 0.984 . S
N1355 H1361 0.985 . S
C1356 C1350 1.379 . S
C1356 C1353 1.363 . S
C1356 N1354 1.356 . S
C1357 C1351 1.363 . S
C1357 C1352 1.379 . S
C1357 N1355 1.356 . S
N1358 C1350 1.356 . S
N1358 H1364 0.984 . S
N1358 H1365 0.984 . S
N1359 C1352 1.356 . S
N1359 H1362 0.984 . S
N1359 H1363 0.985 . S
H1360 N1355 0.984 . S
H1361 N1355 0.985 . S
H1362 N1359 0.984 . S
H1363 N1359 0.985 . S
H1364 N1358 0.984 . S
H1365 N1358 0.984 . S
H1366 N1354 0.984 . S
H1367 N1354 0.985 . S
C1368 C1369 1.363 . S
C1368 C1374 1.379 1_655 S
C1368 N1376 1.356 1_556 S
C1369 C1368 1.363 . S
C1369 C1375 1.363 . S
C1370 C1371 1.363 . S
C1370 C1375 1.379 1_455 S
C1370 N1377 1.356 . S
C1371 C1370 1.363 . S
C1371 C1374 1.363 . S
N1372 C1374 1.356 1_554 S
N1372 H1384 0.984 . S
N1372 H1385 0.985 1_554 S
N1373 C1375 1.356 . S
N1373 H1378 0.984 . S
N1373 H1379 0.985 . S
C1374 C1368 1.379 1_455 S
C1374 C1371 1.363 . S
C1374 N1372 1.356 1_556 S
C1375 C1369 1.363 . S
C1375 C1370 1.379 1_655 S
C1375 N1373 1.356 . S
N1376 C1368 1.356 1_554 S
N1376 H1382 0.984 . S
N1376 H1383 0.984 1_554 S
N1377 C1370 1.356 . S
N1377 H1380 0.984 . S
N1377 H1381 0.985 . S
H1378 N1373 0.984 . S
H1379 N1373 0.985 . S
H1380 N1377 0.984 . S
H1381 N1377 0.985 . S
H1382 N1376 0.984 . S
H1383 N1376 0.984 1_556 S
H1384 N1372 0.984 . S
H1385 N1372 0.985 1_556 S
C1386 C1387 1.363 . S
C1386 C1392 1.379 1_455 S
C1386 N1394 1.356 . S
C1387 C1386 1.363 . S
C1387 C1393 1.363 . S
C1388 C1389 1.363 . S
C1388 C1393 1.379 1_655 S
C1388 N1395 1.356 . S
C1389 C1388 1.363 . S
C1389 C1392 1.363 . S
N1390 C1392 1.356 . S
N1390 H1402 0.984 . S
N1390 H1403 0.985 . S
N1391 C1393 1.356 . S
N1391 H1396 0.984 . S
N1391 H1397 0.985 . S
C1392 C1386 1.379 1_655 S
C1392 C1389 1.363 . S
C1392 N1390 1.356 . S
C1393 C1387 1.363 . S
C1393 C1388 1.379 1_455 S
C1393 N1391 1.356 . S
N1394 C1386 1.356 . S
N1394 H1400 0.984 . S
N1394 H1401 0.984 . S
N1395 C1388 1.356 . S
N1395 H1398 0.984 . S
N1395 H1399 0.985 . S
H1396 N1391 0.984 . S
H1397 N1391 0.985 . S
H1398 N1395 0.984 . S
H1399 N1395 0.985 . S
H1400 N1394 0.984 . S
H1401 N1394 0.984 . S
H1402 N1390 0.984 . S
H1403 N1390 0.985 . S
C1404 C1405 1.363 . S
C1404 C1410 1.379 1_565 S
C1404 N1412 1.356 . S
C1405 C1404 1.363 . S
C1405 C1411 1.363 . S
C1406 C1407 1.363 . S
C1406 C1411 1.379 1_545 S
C1406 N1413 1.356 . S
C1407 C1406 1.363 . S
C1407 C1410 1.363 . S
N1408 C1410 1.356 . S
N1408 H1420 0.984 . S
N1408 H1421 0.985 . S
N1409 C1411 1.356 . S
N1409 H1414 0.984 . S
N1409 H1415 0.985 . S
C1410 C1404 1.379 1_545 S
C1410 C1407 1.363 . S
C1410 N1408 1.356 . S
C1411 C1405 1.363 . S
C1411 C1406 1.379 1_565 S
C1411 N1409 1.356 . S
N1412 C1404 1.356 . S
N1412 H1418 0.984 . S
N1412 H1419 0.984 . S
N1413 C1406 1.356 . S
N1413 H1416 0.984 . S
N1413 H1417 0.985 . S
H1414 N1409 0.984 . S
H1415 N1409 0.985 . S
H1416 N1413 0.984 . S
H1417 N1413 0.985 . S
H1418 N1412 0.984 . S
H1419 N1412 0.984 . S
H1420 N1408 0.984 . S
H1421 N1408 0.985 . S
C1422 C1423 1.363 . S
C1422 C1428 1.379 . S
C1422 N1430 1.356 . S
C1423 C1422 1.363 . S
C1423 C1429 1.363 . S
C1424 C1425 1.363 . S
C1424 C1429 1.379 . S
C1424 N1431 1.356 1_554 S
C1425 C1424 1.363 . S
C1425 C1428 1.363 . S
N1426 C1428 1.356 . S
N1426 H1438 0.984 . S
N1426 H1439 0.985 . S
N1427 C1429 1.356 1_556 S
N1427 H1432 0.984 1_556 S
N1427 H1433 0.985 . S
C1428 C1422 1.379 . S
C1428 C1425 1.363 . S
C1428 N1426 1.356 . S
C1429 C1423 1.363 . S
C1429 C1424 1.379 . S
C1429 N1427 1.356 1_554 S
N1430 C1422 1.356 . S
N1430 H1436 0.984 . S
N1430 H1437 0.984 . S
N1431 C1424 1.356 1_556 S
N1431 H1434 0.984 1_556 S
N1431 H1435 0.985 . S
H1432 N1427 0.984 1_554 S
H1433 N1427 0.985 . S
H1434 N1431 0.984 1_554 S
H1435 N1431 0.985 . S
H1436 N1430 0.984 . S
H1437 N1430 0.984 . S
H1438 N1426 0.984 . S
H1439 N1426 0.985 . S
C1440 C1441 1.363 . S
C1440 C1446 1.379 1_565 S
C1440 N1448 1.356 . S
C1441 C1440 1.363 . S
C1441 C1447 1.363 . S
C1442 C1443 1.363 . S
C1442 C1447 1.379 1_545 S
C1442 N1449 1.356 . S
C1443 C1442 1.363 . S
C1443 C1446 1.363 . S
N1444 C1446 1.356 . S
N1444 H1456 0.984 . S
N1444 H1457 0.985 . S
N1445 C1447 1.356 . S
N1445 H1450 0.984 . S
N1445 H1451 0.985 . S
C1446 C1440 1.379 1_545 S
C1446 C1443 1.363 . S
C1446 N1444 1.356 . S
C1447 C1441 1.363 . S
C1447 C1442 1.379 1_565 S
C1447 N1445 1.356 . S
N1448 C1440 1.356 . S
N1448 H1454 0.984 . S
N1448 H1455 0.984 . S
N1449 C1442 1.356 . S
N1449 H1452 0.984 . S
N1449 H1453 0.985 . S
H1450 N1445 0.984 . S
H1451 N1445 0.985 . S
H1452 N1449 0.984 . S
H1453 N1449 0.985 . S
H1454 N1448 0.984 . S
H1455 N1448 0.984 . S
H1456 N1444 0.984 . S
H1457 N1444 0.985 . S
C1458 C1459 1.363 . S
C1458 C1464 1.379 . S
C1458 N1466 1.356 . S
C1459 C1458 1.363 . S
C1459 C1465 1.363 . S
C1460 C1461 1.363 . S
C1460 C1465 1.379 . S
C1460 N1467 1.356 . S
C1461 C1460 1.363 . S
C1461 C1464 1.363 . S
N1462 C1464 1.356 . S
N1462 H1474 0.984 . S
N1462 H1475 0.985 . S
N1463 C1465 1.356 . S
N1463 H1468 0.984 . S
N1463 H1469 0.985 . S
C1464 C1458 1.379 . S
C1464 C1461 1.363 . S
C1464 N1462 1.356 . S
C1465 C1459 1.363 . S
C1465 C1460 1.379 . S
C1465 N1463 1.356 . S
N1466 C1458 1.356 . S
N1466 H1472 0.984 . S
N1466 H1473 0.984 . S
N1467 C1460 1.356 . S
N1467 H1470 0.984 . S
N1467 H1471 0.985 . S
H1468 N1463 0.984 . S
H1469 N1463 0.985 . S
H1470 N1467 0.984 . S
H1471 N1467 0.985 . S
H1472 N1466 0.984 . S
H1473 N1466 0.984 . S
H1474 N1462 0.984 . S
H1475 N1462 0.985 . S
C1476 C1477 1.363 . S
C1476 C1482 1.379 1_655 S
C1476 N1484 1.356 . S
C1477 C1476 1.363 . S
C1477 C1483 1.363 . S
C1478 C1479 1.363 . S
C1478 C1483 1.379 1_455 S
C1478 N1485 1.356 . S
C1479 C1478 1.363 . S
C1479 C1482 1.363 . S
N1480 C1482 1.356 . S
N1480 H1492 0.984 . S
N1480 H1493 0.985 . S
N1481 C1483 1.356 . S
N1481 H1486 0.984 . S
N1481 H1487 0.985 . S
C1482 C1476 1.379 1_455 S
C1482 C1479 1.363 . S
C1482 N1480 1.356 . S
C1483 C1477 1.363 . S
C1483 C1478 1.379 1_655 S
C1483 N1481 1.356 . S
N1484 C1476 1.356 . S
N1484 H1490 0.984 . S
N1484 H1491 0.984 . S
N1485 C1478 1.356 . S
N1485 H1488 0.984 . S
N1485 H1489 0.985 . S
H1486 N1481 0.984 . S
H1487 N1481 0.985 . S
H1488 N1485 0.984 . S
H1489 N1485 0.985 . S
H1490 N1484 0.984 . S
H1491 N1484 0.984 . S
H1492 N1480 0.984 . S
H1493 N1480 0.985 . S
C1494 C1495 1.363 . S
C1494 C1500 1.379 1_545 S
C1494 N1502 1.356 . S
C1495 C1494 1.363 . S
C1495 C1501 1.363 . S
C1496 C1497 1.363 . S
C1496 C1501 1.379 1_565 S
C1496 N1503 1.356 . S
C1497 C1496 1.363 . S
C1497 C1500 1.363 . S
N1498 C1500 1.356 . S
N1498 H1510 0.984 . S
N1498 H1511 0.985 . S
N1499 C1501 1.356 . S
N1499 H1504 0.984 . S
N1499 H1505 0.985 . S
C1500 C1494 1.379 1_565 S
C1500 C1497 1.363 . S
C1500 N1498 1.356 . S
C1501 C1495 1.363 . S
C1501 C1496 1.379 1_545 S
C1501 N1499 1.356 . S
N1502 C1494 1.356 . S
N1502 H1508 0.984 . S
N1502 H1509 0.984 . S
N1503 C1496 1.356 . S
N1503 H1506 0.984 . S
N1503 H1507 0.985 . S
H1504 N1499 0.984 . S
H1505 N1499 0.985 . S
H1506 N1503 0.984 . S
H1507 N1503 0.985 . S
H1508 N1502 0.984 . S
H1509 N1502 0.984 . S
H1510 N1498 0.984 . S
H1511 N1498 0.985 . S
C1512 C1513 1.363 . S
C1512 C1518 1.379 . S
C1512 N1520 1.356 . S
C1513 C1512 1.363 . S
C1513 C1519 1.363 . S
C1514 C1515 1.363 . S
C1514 C1519 1.379 . S
C1514 N1521 1.356 . S
C1515 C1514 1.363 . S
C1515 C1518 1.363 . S
N1516 C1518 1.356 . S
N1516 H1528 0.984 . S
N1516 H1529 0.985 . S
N1517 C1519 1.356 . S
N1517 H1522 0.984 . S
N1517 H1523 0.985 . S
C1518 C1512 1.379 . S
C1518 C1515 1.363 . S
C1518 N1516 1.356 . S
C1519 C1513 1.363 . S
C1519 C1514 1.379 . S
C1519 N1517 1.356 . S
N1520 C1512 1.356 . S
N1520 H1526 0.984 . S
N1520 H1527 0.984 . S
N1521 C1514 1.356 . S
N1521 H1524 0.984 . S
N1521 H1525 0.985 . S
H1522 N1517 0.984 . S
H1523 N1517 0.985 . S
H1524 N1521 0.984 . S
H1525 N1521 0.985 . S
H1526 N1520 0.984 . S
H1527 N1520 0.984 . S
H1528 N1516 0.984 . S
H1529 N1516 0.985 . S
C1530 C1531 1.363 . S
C1530 C1536 1.379 1_455 S
C1530 N1538 1.356 . S
C1531 C1530 1.363 . S
C1531 C1537 1.363 . S
C1532 C1533 1.363 . S
C1532 C1537 1.379 1_655 S
C1532 N1539 1.356 . S
C1533 C1532 1.363 . S
C1533 C1536 1.363 . S
N1534 C1536 1.356 . S
N1534 H1546 0.984 . S
N1534 H1547 0.985 . S
N1535 C1537 1.356 . S
N1535 H1540 0.984 . S
N1535 H1541 0.985 . S
C1536 C1530 1.379 1_655 S
C1536 C1533 1.363 . S
C1536 N1534 1.356 . S
C1537 C1531 1.363 . S
C1537 C1532 1.379 1_455 S
C1537 N1535 1.356 . S
N1538 C1530 1.356 . S
N1538 H1544 0.984 . S
N1538 H1545 0.984 . S
N1539 C1532 1.356 . S
N1539 H1542 0.984 . S
N1539 H1543 0.985 . S
H1540 N1535 0.984 . S
H1541 N1535 0.985 . S
H1542 N1539 0.984 . S
H1543 N1539 0.985 . S
H1544 N1538 0.984 . S
H1545 N1538 0.984 . S
H1546 N1534 0.984 . S
H1547 N1534 0.985 . S
C1548 C1549 1.363 . S
C1548 C1554 1.379 . S
C1548 N1556 1.356 . S
C1549 C1548 1.363 . S
C1549 C1555 1.363 . S
C1550 C1551 1.363 . S
C1550 C1555 1.379 . S
C1550 N1557 1.356 . S
C1551 C1550 1.363 . S
C1551 C1554 1.363 . S
N1552 C1554 1.356 . S
N1552 H1564 0.984 . S
N1552 H1565 0.985 . S
N1553 C1555 1.356 . S
N1553 H1558 0.984 . S
N1553 H1559 0.985 . S
C1554 C1548 1.379 . S
C1554 C1551 1.363 . S
C1554 N1552 1.356 . S
C1555 C1549 1.363 . S
C1555 C1550 1.379 . S
C1555 N1553 1.356 . S
N1556 C1548 1.356 . S
N1556 H1562 0.984 . S
N1556 H1563 0.984 . S
N1557 C1550 1.356 . S
N1557 H1560 0.984 . S
N1557 H1561 0.985 . S
H1558 N1553 0.984 . S
H1559 N1553 0.985 . S
H1560 N1557 0.984 . S
H1561 N1557 0.985 . S
H1562 N1556 0.984 . S
H1563 N1556 0.984 . S
H1564 N1552 0.984 . S
H1565 N1552 0.985 . S
C1566 C1567 1.363 . S
C1566 C1572 1.379 . S
C1566 N1574 1.356 . S
C1567 C1566 1.363 . S
C1567 C1573 1.363 . S
C1568 C1569 1.363 . S
C1568 C1573 1.379 . S
C1568 N1575 1.356 . S
C1569 C1568 1.363 . S
C1569 C1572 1.363 . S
N1570 C1572 1.356 . S
N1570 H1582 0.984 . S
N1570 H1583 0.985 . S
N1571 C1573 1.356 . S
N1571 H1576 0.984 . S
N1571 H1577 0.985 . S
C1572 C1566 1.379 . S
C1572 C1569 1.363 . S
C1572 N1570 1.356 . S
C1573 C1567 1.363 . S
C1573 C1568 1.379 . S
C1573 N1571 1.356 . S
N1574 C1566 1.356 . S
N1574 H1580 0.984 . S
N1574 H1581 0.984 . S
N1575 C1568 1.356 . S
N1575 H1578 0.984 . S
N1575 H1579 0.985 . S
H1576 N1571 0.984 . S
H1577 N1571 0.985 . S
H1578 N1575 0.984 . S
H1579 N1575 0.985 . S
H1580 N1574 0.984 . S
H1581 N1574 0.984 . S
H1582 N1570 0.984 . S
H1583 N1570 0.985 . S
C1584 C1585 1.363 . S
C1584 C1590 1.379 . S
C1584 N1592 1.356 . S
C1585 C1584 1.363 . S
C1585 C1591 1.363 . S
C1586 C1587 1.363 . S
C1586 C1591 1.379 . S
C1586 N1593 1.356 . S
C1587 C1586 1.363 . S
C1587 C1590 1.363 . S
N1588 C1590 1.356 . S
N1588 H1600 0.984 . S
N1588 H1601 0.985 . S
N1589 C1591 1.356 . S
N1589 H1594 0.984 . S
N1589 H1595 0.985 . S
C1590 C1584 1.379 . S
C1590 C1587 1.363 . S
C1590 N1588 1.356 . S
C1591 C1585 1.363 . S
C1591 C1586 1.379 . S
C1591 N1589 1.356 . S
N1592 C1584 1.356 . S
N1592 H1598 0.984 . S
N1592 H1599 0.984 . S
N1593 C1586 1.356 . S
N1593 H1596 0.984 . S
N1593 H1597 0.985 . S
H1594 N1589 0.984 . S
H1595 N1589 0.985 . S
H1596 N1593 0.984 . S
H1597 N1593 0.985 . S
H1598 N1592 0.984 . S
H1599 N1592 0.984 . S
H1600 N1588 0.984 . S
H1601 N1588 0.985 . S
C1602 C1603 1.363 . S
C1602 C1608 1.379 . S
C1602 N1610 1.356 . S
C1603 C1602 1.363 . S
C1603 C1609 1.363 . S
C1604 C1605 1.363 . S
C1604 C1609 1.379 . S
C1604 N1611 1.356 . S
C1605 C1604 1.363 . S
C1605 C1608 1.363 . S
N1606 C1608 1.356 . S
N1606 H1618 0.984 . S
N1606 H1619 0.985 . S
N1607 C1609 1.356 . S
N1607 H1612 0.984 . S
N1607 H1613 0.985 . S
C1608 C1602 1.379 . S
C1608 C1605 1.363 . S
C1608 N1606 1.356 . S
C1609 C1603 1.363 . S
C1609 C1604 1.379 . S
C1609 N1607 1.356 . S
N1610 C1602 1.356 . S
N1610 H1616 0.984 . S
N1610 H1617 0.984 . S
N1611 C1604 1.356 . S
N1611 H1614 0.984 . S
N1611 H1615 0.985 . S
H1612 N1607 0.984 . S
H1613 N1607 0.985 . S
H1614 N1611 0.984 . S
H1615 N1611 0.985 . S
H1616 N1610 0.984 . S
H1617 N1610 0.984 . S
H1618 N1606 0.984 . S
H1619 N1606 0.985 . S
C1620 C1621 1.363 . S
C1620 C1626 1.379 . S
C1620 N1628 1.356 . S
C1621 C1620 1.363 . S
C1621 C1627 1.363 . S
C1622 C1623 1.363 . S
C1622 C1627 1.379 . S
C1622 N1629 1.356 . S
C1623 C1622 1.363 . S
C1623 C1626 1.363 . S
N1624 C1626 1.356 . S
N1624 H1636 0.984 . S
N1624 H1637 0.985 . S
N1625 C1627 1.356 . S
N1625 H1630 0.984 . S
N1625 H1631 0.985 . S
C1626 C1620 1.379 . S
C1626 C1623 1.363 . S
C1626 N1624 1.356 . S
C1627 C1621 1.363 . S
C1627 C1622 1.379 . S
C1627 N1625 1.356 . S
N1628 C1620 1.356 . S
N1628 H1634 0.984 . S
N1628 H1635 0.984 . S
N1629 C1622 1.356 . S
N1629 H1632 0.984 . S
N1629 H1633 0.985 . S
H1630 N1625 0.984 . S
H1631 N1625 0.985 . S
H1632 N1629 0.984 . S
H1633 N1629 0.985 . S
H1634 N1628 0.984 . S
H1635 N1628 0.984 . S
H1636 N1624 0.984 . S
H1637 N1624 0.985 . S
C1638 C1639 1.363 . S
C1638 C1644 1.379 . S
C1638 N1646 1.356 . S
C1639 C1638 1.363 . S
C1639 C1645 1.363 . S
C1640 C1641 1.363 . S
C1640 C1645 1.379 . S
C1640 N1647 1.356 . S
C1641 C1640 1.363 . S
C1641 C1644 1.363 . S
N1642 C1644 1.356 . S
N1642 H1654 0.984 . S
N1642 H1655 0.985 . S
N1643 C1645 1.356 . S
N1643 H1648 0.984 . S
N1643 H1649 0.985 . S
C1644 C1638 1.379 . S
C1644 C1641 1.363 . S
C1644 N1642 1.356 . S
C1645 C1639 1.363 . S
C1645 C1640 1.379 . S
C1645 N1643 1.356 . S
N1646 C1638 1.356 . S
N1646 H1652 0.984 . S
N1646 H1653 0.984 . S
N1647 C1640 1.356 . S
N1647 H1650 0.984 . S
N1647 H1651 0.985 . S
H1648 N1643 0.984 . S
H1649 N1643 0.985 . S
H1650 N1647 0.984 . S
H1651 N1647 0.985 . S
H1652 N1646 0.984 . S
H1653 N1646 0.984 . S
H1654 N1642 0.984 . S
H1655 N1642 0.985 . S
C1009 C63 1.284 . S
C1011 C735 1.284 . S
C1027 C147 1.284 . S
C1029 C819 1.284 . S
C1045 C231 1.284 . S
C1047 C903 1.284 . S
C1063 C987 1.284 . S
C1065 C315 1.284 . S
C1081 C399 1.284 . S
C1083 C567 1.284 . S
C1099 C651 1.284 . S
C1101 C483 1.284 . S
C1117 C898 1.781 1_554 S
C1119 C58 1.781 1_556 S
C1135 C982 1.782 . S
C1137 C142 1.782 . S
C1153 C226 1.781 . S
C1155 C562 1.781 . S
C1171 C646 1.781 1_554 S
C1173 C310 1.781 1_556 S
C1189 C730 1.782 . S
C1191 C394 1.782 . S
C1207 C478 1.781 . S
C1209 C814 1.781 . S
C1225 C655 4.499 . S
C1227 C67 4.499 . S
C1243 C739 4.499 . S
C1245 C151 4.499 . S
C1261 C823 4.499 . S
C1263 C235 4.499 . S
C1279 C319 4.499 . S
C1281 C907 4.499 . S
C1297 C403 4.499 . S
C1299 C991 4.499 . S
C1315 C487 4.499 . S
C1317 C571 4.499 . S
C1333 C74 1.212 . S
C1335 C326 1.212 . S
C1351 C158 1.212 . S
C1353 C410 1.212 . S
C1369 C242 1.212 . S
C1371 C494 1.212 . S
C1387 C830 1.212 . S
C1389 C578 1.212 . S
C1405 C662 1.212 . S
C1407 C914 1.212 . S
C1423 C998 1.212 . S
C1425 C746 1.212 . S
C1441 C657 0.679 . S
C1443 C69 0.679 . S
C1459 C741 0.679 . S
C1461 C153 0.679 . S
C1477 C237 0.679 . S
C1479 C825 0.679 . S
C1495 C909 0.679 . S
C1497 C321 0.679 . S
C1513 C993 0.679 . S
C1515 C405 0.679 . S
C1531 C489 0.679 . S
C1533 C573 0.679 . S
C1549 C56 3.811 . S
C1551 C896 3.811 . S
C1567 C140 3.811 . S
C1569 C980 3.811 1_556 S
C1585 C224 3.811 1_554 S
C1587 C560 3.811 . S
C1603 C308 3.811 . S
C1605 C644 3.811 . S
C1621 C392 3.811 . S
C1623 C728 3.811 1_556 S
C1639 C812 3.811 . S
C1641 C476 3.811 1_554 S
