# Generated by pormake.
# Topology zfn, (5)-cn, num edge types: 1
# Building blocks:
#     Node 0, Type 0, BuildingBlock: XOMCOT_clean_sbu_1, # of connection points: 5
#     Node 1, Type 0, BuildingBlock: XOMCOT_clean_sbu_1, # of connection points: 5
#     Node 2, Type 0, BuildingBlock: XOMCOT_clean_sbu_1, # of connection points: 5
#     Node 3, Type 0, BuildingBlock: XOMCOT_clean_sbu_1, # of connection points: 5
#     Node 4, Type 0, BuildingBlock: XOMCOT_clean_sbu_1, # of connection points: 5
#     Node 5, Type 0, BuildingBlock: XOMCOT_clean_sbu_1, # of connection points: 5
#     Node 6, Type 0, BuildingBlock: XOMCOT_clean_sbu_1, # of connection points: 5
#     Node 7, Type 0, BuildingBlock: XOMCOT_clean_sbu_1, # of connection points: 5
#     Node 8, Type 0, BuildingBlock: XOMCOT_clean_sbu_1, # of connection points: 5
#     Node 9, Type 0, BuildingBlock: XOMCOT_clean_sbu_1, # of connection points: 5
#     Node 10, Type 0, BuildingBlock: XOMCOT_clean_sbu_1, # of connection points: 5
#     Node 11, Type 0, BuildingBlock: XOMCOT_clean_sbu_1, # of connection points: 5
#     Node 12, Type 0, BuildingBlock: XOMCOT_clean_sbu_1, # of connection points: 5
#     Node 13, Type 0, BuildingBlock: XOMCOT_clean_sbu_1, # of connection points: 5
#     Node 14, Type 0, BuildingBlock: XOMCOT_clean_sbu_1, # of connection points: 5
#     Node 15, Type 0, BuildingBlock: XOMCOT_clean_sbu_1, # of connection points: 5
#     Edge 16, Type (0, 0), BuildingBlock: MIFKUJ_clean_linker_0, # of connection points: 2
#     Edge 17, Type (0, 0), BuildingBlock: MIFKUJ_clean_linker_0, # of connection points: 2
#     Edge 18, Type (0, 0), BuildingBlock: MIFKUJ_clean_linker_0, # of connection points: 2
#     Edge 19, Type (0, 0), BuildingBlock: MIFKUJ_clean_linker_0, # of connection points: 2
#     Edge 20, Type (0, 0), BuildingBlock: MIFKUJ_clean_linker_0, # of connection points: 2
#     Edge 21, Type (0, 0), BuildingBlock: MIFKUJ_clean_linker_0, # of connection points: 2
#     Edge 22, Type (0, 0), BuildingBlock: MIFKUJ_clean_linker_0, # of connection points: 2
#     Edge 23, Type (0, 0), BuildingBlock: MIFKUJ_clean_linker_0, # of connection points: 2
#     Edge 24, Type (0, 0), BuildingBlock: MIFKUJ_clean_linker_0, # of connection points: 2
#     Edge 25, Type (0, 0), BuildingBlock: MIFKUJ_clean_linker_0, # of connection points: 2
#     Edge 26, Type (0, 0), BuildingBlock: MIFKUJ_clean_linker_0, # of connection points: 2
#     Edge 27, Type (0, 0), BuildingBlock: MIFKUJ_clean_linker_0, # of connection points: 2
#     Edge 28, Type (0, 0), BuildingBlock: MIFKUJ_clean_linker_0, # of connection points: 2
#     Edge 29, Type (0, 0), BuildingBlock: MIFKUJ_clean_linker_0, # of connection points: 2
#     Edge 30, Type (0, 0), BuildingBlock: MIFKUJ_clean_linker_0, # of connection points: 2
#     Edge 31, Type (0, 0), BuildingBlock: MIFKUJ_clean_linker_0, # of connection points: 2
#     Edge 32, Type (0, 0), BuildingBlock: MIFKUJ_clean_linker_0, # of connection points: 2
#     Edge 33, Type (0, 0), BuildingBlock: MIFKUJ_clean_linker_0, # of connection points: 2
#     Edge 34, Type (0, 0), BuildingBlock: MIFKUJ_clean_linker_0, # of connection points: 2
#     Edge 35, Type (0, 0), BuildingBlock: MIFKUJ_clean_linker_0, # of connection points: 2
#     Edge 36, Type (0, 0), BuildingBlock: MIFKUJ_clean_linker_0, # of connection points: 2
#     Edge 37, Type (0, 0), BuildingBlock: MIFKUJ_clean_linker_0, # of connection points: 2
#     Edge 38, Type (0, 0), BuildingBlock: MIFKUJ_clean_linker_0, # of connection points: 2
#     Edge 39, Type (0, 0), BuildingBlock: MIFKUJ_clean_linker_0, # of connection points: 2
#     Edge 40, Type (0, 0), BuildingBlock: MIFKUJ_clean_linker_0, # of connection points: 2
#     Edge 41, Type (0, 0), BuildingBlock: MIFKUJ_clean_linker_0, # of connection points: 2
#     Edge 42, Type (0, 0), BuildingBlock: MIFKUJ_clean_linker_0, # of connection points: 2
#     Edge 43, Type (0, 0), BuildingBlock: MIFKUJ_clean_linker_0, # of connection points: 2
#     Edge 44, Type (0, 0), BuildingBlock: MIFKUJ_clean_linker_0, # of connection points: 2
#     Edge 45, Type (0, 0), BuildingBlock: MIFKUJ_clean_linker_0, # of connection points: 2
#     Edge 46, Type (0, 0), BuildingBlock: MIFKUJ_clean_linker_0, # of connection points: 2
#     Edge 47, Type (0, 0), BuildingBlock: MIFKUJ_clean_linker_0, # of connection points: 2
#     Edge 48, Type (0, 0), BuildingBlock: MIFKUJ_clean_linker_0, # of connection points: 2
#     Edge 49, Type (0, 0), BuildingBlock: MIFKUJ_clean_linker_0, # of connection points: 2
#     Edge 50, Type (0, 0), BuildingBlock: MIFKUJ_clean_linker_0, # of connection points: 2
#     Edge 51, Type (0, 0), BuildingBlock: MIFKUJ_clean_linker_0, # of connection points: 2
#     Edge 52, Type (0, 0), BuildingBlock: MIFKUJ_clean_linker_0, # of connection points: 2
#     Edge 53, Type (0, 0), BuildingBlock: MIFKUJ_clean_linker_0, # of connection points: 2
#     Edge 54, Type (0, 0), BuildingBlock: MIFKUJ_clean_linker_0, # of connection points: 2
#     Edge 55, Type (0, 0), BuildingBlock: MIFKUJ_clean_linker_0, # of connection points: 2
# Relax obj value: 0.119
# Max RMSD: 0.125
# Mean RMSD: 0.125
data_MOF--net-zfn--node1-XOMCOT_clean_sbu_1--edge1-MIFKUJ_clean_linker_0
_symmetry_space_group_name_H-M    P1
_symmetry_Int_Tables_number       1
_symmetry_cell_setting            triclinic
loop_
_symmetry_equiv_pos_as_xyz
'x, y, z'
_cell_length_a     95.770266
_cell_length_b     95.761753
_cell_length_c     22.080284
_cell_angle_alpha  89.973524
_cell_angle_beta   89.994889
_cell_angle_gamma 89.991501
loop_
_atom_site_label
_atom_site_type_symbol
_atom_site_fract_x
_atom_site_fract_y
_atom_site_fract_z
_atom_type_partial_charge
C0 C 0.00045 0.34449 0.13041 0.0
C1 C 0.99798 0.34429 0.06906 0.0
N2 N 0.01013 0.34672 0.04009 0.0
N3 N 0.01408 0.34709 0.14031 0.0
C4 C 0.01975 0.34831 0.08443 0.0
H5 H 0.99278 0.34298 0.16577 0.0
Co6 Co 0.02182 0.34892 0.21721 0.0
C7 C 0.04624 0.36743 0.20011 0.0
O8 O 0.04268 0.37412 0.24975 0.0
N9 N 0.0296 0.35018 0.29607 0.0
C10 C 0.04503 0.34713 0.37036 0.0
C11 C 0.04301 0.34697 0.30892 0.0
C12 C 0.02357 0.35169 0.35128 0.0
N13 N 0.03276 0.35001 0.39747 0.0
O14 O 0.02953 0.33056 0.21093 0.0
H15 H 0.05082 0.34422 0.27561 0.0
H16 H 0.01254 0.35314 0.35794 0.0
O17 O 0.03885 0.35709 0.18205 0.0
C18 C 0.02109 0.32173 0.2337 0.0
O19 O 0.0091 0.32633 0.2548 0.0
N20 N 0.01298 0.3665 0.22355 0.0
C21 C 0.99531 0.38977 0.22586 0.0
C22 C 0.00702 0.38949 0.18779 0.0
C23 C 0.0155 0.37761 0.18607 0.0
C24 C 0.00132 0.36642 0.25886 0.0
C25 C 0.99251 0.37802 0.26173 0.0
H26 H 0.02355 0.37715 0.15198 0.0
H27 H 0.99831 0.35699 0.28219 0.0
H28 H 0.03064 0.35062 0.07631 0.0
H29 H 0.98801 0.34239 0.04754 0.0
H30 H 0.05481 0.34494 0.39286 0.0
H31 H 0.00917 0.39805 0.1571 0.0
H32 H 0.98337 0.37761 0.29055 0.0
C33 C 0.15335 0.00407 0.59694 0.0
C34 C 0.15345 0.00204 0.53534 0.0
N35 N 0.15194 0.01453 0.50788 0.0
N36 N 0.15173 0.01778 0.60861 0.0
C37 C 0.15097 0.02391 0.55354 0.0
H38 H 0.1542 0.99605 0.63121 0.0
Co39 Co 0.1504 0.02537 0.68607 0.0
C40 C 0.13094 0.04916 0.67293 0.0
O41 O 0.12492 0.04563 0.72421 0.0
N42 N 0.14955 0.03307 0.76499 0.0
C43 C 0.15241 0.04868 0.83887 0.0
C44 C 0.15305 0.04644 0.77754 0.0
C45 C 0.14727 0.02729 0.82021 0.0
N46 N 0.14881 0.03661 0.86572 0.0
O47 O 0.1682 0.03406 0.6759 0.0
H48 H 0.15614 0.05409 0.74405 0.0
H49 H 0.14477 0.01646 0.82773 0.0
O50 O 0.14117 0.04194 0.65288 0.0
C51 C 0.17835 0.0257 0.68396 0.0
O52 O 0.17564 0.01254 0.696 0.0
N53 N 0.13337 0.0157 0.69573 0.0
C54 C 0.11154 0.9963 0.69785 0.0
C55 C 0.1106 0.00839 0.66231 0.0
C56 C 0.12177 0.01778 0.66068 0.0
C57 C 0.13454 0.00382 0.72933 0.0
C58 C 0.12368 0.99413 0.73203 0.0
H59 H 0.12136 0.02611 0.62788 0.0
H60 H 0.14434 0.00137 0.75116 0.0
H61 H 0.14981 0.03504 0.54709 0.0
H62 H 0.15425 0.99204 0.51278 0.0
H63 H 0.15492 0.05832 0.86207 0.0
H64 H 0.1017 0.01016 0.63305 0.0
H65 H 0.12499 0.98478 0.75909 0.0
C66 C 0.49999 0.16057 0.06685 0.0
C67 C 0.50121 0.16276 1.00549 0.0
N68 N 0.48875 0.16015 0.9793 0.0
N69 N 0.48684 0.15662 0.0798 0.0
C70 C 0.48021 0.15648 0.02559 0.0
H71 H 0.50829 0.16142 0.09988 0.0
Co72 Co 0.48083 0.15143 0.15733 0.0
C73 C 0.4516 0.14413 0.13392 0.0
O74 O 0.44765 0.15282 0.17665 0.0
N75 N 0.47507 0.14614 0.23535 0.0
C76 C 0.46722 0.13337 0.31215 0.0
C77 C 0.46915 0.13385 0.25057 0.0
C78 C 0.47682 0.15289 0.2887 0.0
N79 N 0.47204 0.14536 0.33639 0.0
O80 O 0.471 0.16873 0.16496 0.0
H81 H 0.46672 0.12556 0.219 0.0
H82 H 0.48165 0.16306 0.29245 0.0
O83 O 0.46455 0.14255 0.12243 0.0
C84 C 0.47878 0.17911 0.17733 0.0
O85 O 0.49227 0.17704 0.18353 0.0
N86 N 0.4913 0.13509 0.15124 0.0
C87 C 0.51003 0.11283 0.14725 0.0
C88 C 0.4981 0.1129 0.11025 0.0
C89 C 0.48887 0.12424 0.11251 0.0
C90 C 0.50278 0.13517 0.18751 0.0
C91 C 0.51225 0.12413 0.18646 0.0
H92 H 0.48 0.1244 0.08232 0.0
H93 H 0.50464 0.14397 0.21711 0.0
H94 H 0.46937 0.15361 0.02003 0.0
H95 H 0.51071 0.16553 0.9819 0.0
H96 H 0.46304 0.12461 0.33727 0.0
H97 H 0.49611 0.10447 0.07874 0.0
H98 H 0.52124 0.12445 0.21622 0.0
C99 C 0.34647 0.49696 0.6394 0.0
C100 C 0.34605 0.49912 0.57786 0.0
N101 N 0.34802 0.48676 0.5498 0.0
N102 N 0.34876 0.48333 0.65041 0.0
C103 C 0.34957 0.47735 0.59507 0.0
H104 H 0.34541 0.50487 0.67407 0.0
Co105 Co 0.35071 0.47574 0.72749 0.0
C106 C 0.37006 0.45197 0.71209 0.0
O107 O 0.37643 0.45578 0.76215 0.0
N108 N 0.35212 0.46805 0.80647 0.0
C109 C 0.34963 0.45252 0.88101 0.0
C110 C 0.34897 0.45462 0.81958 0.0
C111 C 0.35415 0.47401 0.86151 0.0
N112 N 0.35285 0.46474 0.9074 0.0
O113 O 0.33271 0.4673 0.72039 0.0
H114 H 0.34597 0.44686 0.78648 0.0
H115 H 0.35617 0.48495 0.86866 0.0
O116 O 0.35959 0.45903 0.69302 0.0
C117 C 0.32341 0.47553 0.74089 0.0
O118 O 0.32739 0.48785 0.76072 0.0
N119 N 0.36789 0.48528 0.73449 0.0
C120 C 0.39016 0.5042 0.73619 0.0
C121 C 0.3906 0.4923 0.69919 0.0
C122 C 0.37922 0.48317 0.69782 0.0
C123 C 0.36713 0.49704 0.76901 0.0
C124 C 0.37823 0.50646 0.77162 0.0
H125 H 0.37926 0.47496 0.66439 0.0
H126 H 0.3575 0.49961 0.79186 0.0
H127 H 0.35121 0.4663 0.58814 0.0
H128 H 0.34473 0.50912 0.55574 0.0
H129 H 0.34729 0.44289 0.90462 0.0
H130 H 0.39931 0.4905 0.66886 0.0
H131 H 0.37726 0.51567 0.79976 0.0
C132 C 0.99744 0.14818 0.35877 0.0
C133 C 0.99553 0.14864 0.42042 0.0
N134 N 0.00817 0.1486 0.44739 0.0
N135 N 0.01122 0.14775 0.34663 0.0
C136 C 0.0175 0.14811 0.40142 0.0
H137 H 0.98931 0.14811 0.32482 0.0
Co138 Co 0.01892 0.14711 0.26926 0.0
C139 C 0.04335 0.12834 0.28018 0.0
O140 O 0.04003 0.12266 0.22792 0.0
N141 N 0.02673 0.14705 0.19041 0.0
C142 C 0.04229 0.15105 0.11724 0.0
C143 C 0.03999 0.15106 0.17861 0.0
C144 C 0.02105 0.1451 0.13476 0.0
N145 N 0.03034 0.14733 0.08964 0.0
O146 O 0.02704 0.16511 0.28183 0.0
H147 H 0.04751 0.15411 0.21266 0.0
H148 H 0.0103 0.14239 0.12666 0.0
O149 O 0.03577 0.13814 0.30184 0.0
C150 C 0.01845 0.17512 0.27462 0.0
O151 O 0.0054 0.17214 0.26147 0.0
N152 N 0.00982 0.12981 0.25729 0.0
C153 C 0.99155 0.10702 0.2507 0.0
C154 C 0.00348 0.10651 0.28748 0.0
C155 C 0.01229 0.11811 0.29125 0.0
C156 C 0.99804 0.13061 0.22282 0.0
C157 C 0.98894 0.11928 0.21779 0.0
H158 H 0.02049 0.1179 0.32466 0.0
H159 H 0.9952 0.14042 0.202 0.0
H160 H 0.0287 0.14825 0.40735 0.0
H161 H 0.98556 0.14878 0.44343 0.0
H162 H 0.05185 0.15408 0.09462 0.0
H163 H 0.00555 0.09754 0.31598 0.0
H164 H 0.97971 0.12031 0.18984 0.0
C165 C 0.33046 0.00749 0.92623 0.0
C166 C 0.32857 0.0065 0.98789 0.0
N167 N 0.33755 0.0153 0.01523 0.0
N168 N 0.34046 0.01701 0.91431 0.0
C169 C 0.34466 0.02149 0.9696 0.0
H170 H 0.32506 0.00137 0.89252 0.0
Co171 Co 0.34734 0.02169 0.83731 0.0
C172 C 0.35312 0.05164 0.85205 0.0
O173 O 0.34556 0.05453 0.804 0.0
N174 N 0.35442 0.02616 0.75986 0.0
C175 C 0.36852 0.03356 0.68644 0.0
C176 C 0.36665 0.03261 0.74802 0.0
C177 C 0.34918 0.02308 0.70445 0.0
N178 N 0.35751 0.02753 0.65878 0.0
O179 O 0.32991 0.03053 0.81804 0.0
H180 H 0.37387 0.03632 0.78206 0.0
H181 H 0.33962 0.01733 0.69755 0.0
O182 O 0.35452 0.03902 0.86938 0.0
C183 C 0.32094 0.02257 0.79317 0.0
O184 O 0.32431 0.00945 0.78341 0.0
N185 N 0.36384 0.01222 0.85485 0.0
C186 C 0.38668 0.99468 0.87333 0.0
C187 C 0.38648 0.00819 0.89809 0.0
C188 C 0.37489 0.01683 0.88851 0.0
C189 C 0.36389 0.99921 0.83032 0.0
C190 C 0.3752 0.99028 0.83875 0.0
H191 H 0.37485 0.02711 0.90852 0.0
H192 H 0.35502 0.99578 0.80384 0.0
H193 H 0.35285 0.02907 0.97644 0.0
H194 H 0.32145 -0.00051 0.01081 0.0
H195 H 0.37732 0.0384 0.66404 0.0
H196 H 0.39508 0.01197 0.92541 0.0
H197 H 0.37498 0.98007 0.81775 0.0
C198 C 0.49814 0.33582 0.42418 0.0
C199 C 0.4997 0.33398 0.48563 0.0
N200 N 0.48785 0.33813 0.51334 0.0
N201 N 0.48537 0.34109 0.41273 0.0
C202 C 0.4793 0.34231 0.46797 0.0
H203 H 0.50597 0.33381 0.39 0.0
Co204 Co 0.47942 0.34668 0.33558 0.0
C205 C 0.45039 0.35505 0.36119 0.0
O206 O 0.44574 0.34668 0.3186 0.0
N207 N 0.47372 0.35244 0.25763 0.0
C208 C 0.46686 0.36612 0.18179 0.0
C209 C 0.46814 0.36497 0.24358 0.0
C210 C 0.4758 0.34617 0.20332 0.0
N211 N 0.47172 0.3543 0.15634 0.0
O212 O 0.46922 0.32961 0.32703 0.0
H213 H 0.4656 0.37302 0.27612 0.0
H214 H 0.48082 0.33613 0.19799 0.0
O215 O 0.46347 0.35592 0.37132 0.0
C216 C 0.47711 0.32007 0.30598 0.0
O217 O 0.49026 0.32314 0.29535 0.0
N218 N 0.49034 0.36269 0.34221 0.0
C219 C 0.50944 0.38465 0.34351 0.0
C220 C 0.49761 0.38491 0.38119 0.0
C221 C 0.48819 0.37372 0.38022 0.0
C222 C 0.50179 0.36222 0.30579 0.0
C223 C 0.51142 0.3731 0.30543 0.0
H224 H 0.47933 0.37388 0.41047 0.0
H225 H 0.50341 0.35327 0.27671 0.0
H226 H 0.46903 0.34667 0.47518 0.0
H227 H 0.50892 0.33002 0.50811 0.0
H228 H 0.46284 0.37507 0.15745 0.0
H229 H 0.4958 0.39354 0.41191 0.0
H230 H 0.52029 0.3725 0.2751 0.0
C231 C 0.15462 0.49489 0.8825 0.0
C232 C 0.15471 0.49728 0.94385 0.0
N233 N 0.15145 0.48526 0.97238 0.0
N234 N 0.1513 0.48144 0.87208 0.0
C235 C 0.1495 0.47579 0.92768 0.0
H236 H 0.15675 0.50249 0.84748 0.0
Co237 Co 0.14966 0.47392 0.79476 0.0
C238 C 0.12989 0.45053 0.80631 0.0
O239 O 0.12371 0.4549 0.75665 0.0
N240 N 0.14858 0.46633 0.71567 0.0
C241 C 0.15221 0.45103 0.64134 0.0
C242 C 0.15257 0.45313 0.70274 0.0
C243 C 0.14602 0.47208 0.66065 0.0
N244 N 0.1481 0.46298 0.61454 0.0
O245 O 0.16753 0.46527 0.80377 0.0
H246 H 0.15597 0.44556 0.73598 0.0
H247 H 0.14304 0.4828 0.65395 0.0
O248 O 0.14041 0.45719 0.82739 0.0
C249 C 0.17727 0.47355 0.78796 0.0
O250 O 0.17388 0.48613 0.76929 0.0
N251 N 0.13265 0.48371 0.78641 0.0
C252 C 0.11066 0.50297 0.7836 0.0
C253 C 0.10996 0.49108 0.8206 0.0
C254 C 0.1212 0.48177 0.82249 0.0
C255 C 0.13372 0.49552 0.75232 0.0
C256 C 0.12276 0.50509 0.74897 0.0
H257 H 0.12093 0.47352 0.85576 0.0
H258 H 0.14346 0.49794 0.72995 0.0
H259 H 0.14655 0.46503 0.93525 0.0
H260 H 0.15712 0.5071 0.96566 0.0
H261 H 0.15535 0.44156 0.61841 0.0
H262 H 0.10115 0.48937 0.85043 0.0
H263 H 0.12394 0.51425 0.72071 0.0
C264 C 0.99828 0.65497 0.91279 0.0
C265 C 0.00022 0.65572 0.97441 0.0
N266 N 0.98777 0.65393 1.00198 0.0
N267 N 0.98469 0.65261 0.90124 0.0
C268 C 0.97852 0.65214 0.95627 0.0
H269 H 0.00629 0.65585 0.87847 0.0
Co270 Co 0.97718 0.65026 0.82432 0.0
C271 C 0.95436 0.62989 0.84098 0.0
O272 O 0.95863 0.62335 0.79201 0.0
N273 N 0.96945 0.64842 0.74552 0.0
C274 C 0.95364 0.6502 0.67177 0.0
C275 C 0.95585 0.6509 0.73308 0.0
C276 C 0.97536 0.64673 0.69017 0.0
N277 N 0.96594 0.64762 0.64468 0.0
O278 O 0.96809 0.66797 0.83112 0.0
H279 H 0.94803 0.65353 0.76654 0.0
H280 H 0.98638 0.64531 0.68251 0.0
O281 O 0.96082 0.64082 0.85908 0.0
C282 C 0.97561 0.67745 0.80726 0.0
O283 O 0.98773 0.67382 0.78415 0.0
N284 N 0.98734 0.63341 0.81763 0.0
C285 C 0.00626 0.61117 0.81174 0.0
C286 C 0.99486 0.61074 0.85155 0.0
C287 C 0.98574 0.62212 0.85501 0.0
C288 C 0.99883 0.63431 0.78147 0.0
C289 C 0.00822 0.62323 0.77668 0.0
H290 H 0.97783 0.62203 0.88979 0.0
H291 H 0.00112 0.64398 0.75831 0.0
H292 H 0.96744 0.65055 0.96255 0.0
H293 H 0.01016 0.65714 0.99689 0.0
H294 H 0.94385 0.65214 0.64875 0.0
H295 H 0.99334 0.60195 0.88176 0.0
H296 H 0.01708 0.62422 0.74649 0.0
C297 C 0.84662 0.99411 0.42942 0.0
C298 C 0.84644 0.99592 0.49119 0.0
N299 N 0.8462 0.98324 0.51766 0.0
N300 N 0.84659 0.98034 0.41679 0.0
C301 C 0.84621 0.97397 0.47145 0.0
H302 H 0.84672 0.00232 0.39576 0.0
Co303 Co 0.84691 0.97258 0.33927 0.0
C304 C 0.86685 0.94906 0.34987 0.0
O305 O 0.87238 0.95255 0.29752 0.0
N306 N 0.84669 0.96455 0.26074 0.0
C307 C 0.84258 0.94848 0.18991 0.0
C308 C 0.84343 0.951 0.2509 0.0
C309 C 0.84736 0.97011 0.20429 0.0
N310 N 0.84502 0.96052 0.16033 0.0
O311 O 0.82931 0.96381 0.35362 0.0
H312 H 0.84144 0.94341 0.28615 0.0
H313 H 0.84881 0.98105 0.19508 0.0
O314 O 0.85669 0.95618 0.37133 0.0
C315 C 0.81885 0.972 0.35287 0.0
O316 O 0.82107 0.98553 0.34986 0.0
N317 N 0.86372 0.98228 0.32421 0.0
C318 C 0.88594 0.00085 0.30671 0.0
C319 C 0.88725 0.98946 0.34634 0.0
C320 C 0.87591 0.9805 0.3556 0.0
C321 C 0.8621 0.99367 0.28788 0.0
C322 C 0.87311 0.00288 0.27736 0.0
H323 H 0.87679 0.97262 0.39031 0.0
H324 H 0.85194 0.99604 0.2693 0.0
H325 H 0.84611 0.96275 0.47723 0.0
H326 H 0.8463 0.00583 0.51472 0.0
H327 H 0.84023 0.93852 0.16924 0.0
H328 H 0.89673 0.98787 0.3722 0.0
H329 H 0.87147 0.01169 0.24741 0.0
C330 C 0.49867 0.84189 0.95613 0.0
C331 C 0.49722 0.84062 0.01777 0.0
N332 N 0.50999 0.84122 0.043 0.0
N333 N 0.51229 0.84344 0.94234 0.0
C334 C 0.51901 0.84285 0.99634 0.0
H335 H 0.49028 0.84226 0.9234 0.0
Co336 Co 0.51833 0.84769 0.86399 0.0
C337 C 0.54813 0.85301 0.8831 0.0
O338 O 0.55113 0.84312 0.84395 0.0
N339 N 0.52409 0.85206 0.78498 0.0
C340 C 0.53114 0.86444 0.70548 0.0
C341 C 0.53009 0.86417 0.76751 0.0
C342 C 0.52168 0.84507 0.7327 0.0
N343 N 0.52586 0.85244 0.68368 0.0
O344 O 0.52678 0.82968 0.85749 0.0
H345 H 0.53297 0.87256 0.79782 0.0
H346 H 0.51628 0.83516 0.73034 0.0
O347 O 0.53541 0.8557 0.89567 0.0
C348 C 0.51817 0.81986 0.84713 0.0
O349 O 0.50481 0.8229 0.84338 0.0
N350 N 0.50911 0.86483 0.86915 0.0
C351 C 0.4919 0.88824 0.87576 0.0
C352 C 0.50367 0.88707 0.91328 0.0
C353 C 0.5121 0.87516 0.90974 0.0
C354 C 0.49782 0.86586 0.832 0.0
C355 C 0.48911 0.8775 0.83433 0.0
H356 H 0.52069 0.87405 0.94101 0.0
H357 H 0.49543 0.85742 0.80114 0.0
H358 H 0.53014 0.84431 1.00178 0.0
H359 H 0.48749 0.83966 0.04244 0.0
H360 H 0.53513 0.87296 0.67826 0.0
H361 H 0.50603 0.89503 0.94658 0.0
H362 H 0.48018 0.87802 0.80428 0.0
C363 C 0.66096 0.50466 0.37331 0.0
C364 C 0.66163 0.50226 0.43469 0.0
N365 N 0.65532 0.51296 0.46346 0.0
N366 N 0.65423 0.51677 0.36323 0.0
C367 C 0.65098 0.52165 0.41895 0.0
H368 H 0.66507 0.49798 0.33805 0.0
Co369 Co 0.65082 0.52377 0.28623 0.0
C370 C 0.62945 0.54554 0.30143 0.0
O371 O 0.62295 0.54035 0.25407 0.0
N372 N 0.64794 0.53095 0.20687 0.0
C373 C 0.64919 0.54625 0.13105 0.0
C374 C 0.65024 0.54447 0.19246 0.0
C375 C 0.64574 0.52469 0.15258 0.0
N376 N 0.64638 0.53379 0.10561 0.0
O377 O 0.66806 0.53385 0.29062 0.0
H378 H 0.6531 0.5525 0.22458 0.0
H379 H 0.64422 0.51363 0.14693 0.0
O380 O 0.64079 0.53992 0.32012 0.0
C381 C 0.67792 0.52955 0.25672 0.0
O382 O 0.67554 0.51912 0.21945 0.0
N383 N 0.63445 0.51272 0.28342 0.0
C384 C 0.6131 0.49277 0.28676 0.0
C385 C 0.61264 0.50455 0.32426 0.0
C386 C 0.62357 0.51418 0.32311 0.0
C387 C 0.63543 0.50093 0.24912 0.0
C388 C 0.62475 0.49097 0.24902 0.0
H389 H 0.62351 0.52239 0.3565 0.0
H390 H 0.64486 0.49887 0.22382 0.0
H391 H 0.64528 0.53124 0.42678 0.0
H392 H 0.66653 0.49339 0.45633 0.0
H393 H 0.65111 0.5559 0.107 0.0
H394 H 0.60424 0.50599 0.3565 0.0
H395 H 0.62577 0.48182 0.22056 0.0
C396 C 0.99267 0.83403 0.63802 0.0
C397 C 0.99246 0.83212 0.57644 0.0
N398 N 0.9814 0.83905 0.55379 0.0
N399 N 0.98181 0.84214 0.65445 0.0
C400 C 0.97505 0.84501 0.60198 0.0
H401 H 0.00068 0.83035 0.66856 0.0
Co402 Co 0.98003 0.84898 0.73305 0.0
C403 C 0.95572 0.86881 0.7303 0.0
O404 O 0.96039 0.87583 0.77701 0.0
N405 N 0.97893 0.85574 0.81506 0.0
C406 C 0.9834 0.86827 0.89825 0.0
C407 C 0.98431 0.86789 0.83649 0.0
C408 C 0.97469 0.84899 0.86615 0.0
N409 N 0.97744 0.85636 0.917 0.0
O410 O 0.96982 0.83249 0.75448 0.0
H411 H 0.98865 0.87623 0.80956 0.0
H412 H 0.97028 0.83861 0.86685 0.0
O413 O 0.96246 0.85823 0.71049 0.0
C414 C 0.97781 0.82255 0.77085 0.0
O415 O 0.9912 0.82514 0.77723 0.0
N416 N 0.99099 0.86429 0.70995 0.0
C417 C 0.00991 0.88577 0.68632 0.0
C418 C 0.99621 0.88636 0.66375 0.0
C419 C 0.98693 0.8754 0.67543 0.0
C420 C 0.00451 0.86304 0.72832 0.0
C421 C 0.01409 0.87375 0.7179 0.0
H422 H 0.97657 0.87593 0.65644 0.0
H423 H 0.00769 0.8539 0.75364 0.0
H424 H 0.96622 0.85202 0.59844 0.0
H425 H 0.00013 0.82648 0.54998 0.0
H426 H 0.98705 0.87659 0.92743 0.0
H427 H 0.99268 0.89518 0.63715 0.0
H428 H 0.02453 0.87277 0.73624 0.0
C429 C 0.65658 0.00199 0.03914 0.0
C430 C 0.65679 0.00388 0.97752 0.0
N431 N 0.65757 0.99125 0.95069 0.0
N432 N 0.65706 0.98824 0.05151 0.0
C433 C 0.65773 0.98193 0.99685 0.0
H434 H 0.65619 0.01016 0.0729 0.0
Co435 Co 0.65752 0.98071 0.12908 0.0
C436 C 0.63893 0.95623 0.12674 0.0
O437 O 0.63426 0.95989 0.18043 0.0
N438 N 0.65869 0.97308 0.20821 0.0
C439 C 0.66455 0.95779 0.2801 0.0
C440 C 0.66365 0.96008 0.21894 0.0
C441 C 0.65696 0.97857 0.26432 0.0
N442 N 0.66034 0.96944 0.30871 0.0
O443 O 0.6752 0.97247 0.11243 0.0
H444 H 0.66664 0.95271 0.18419 0.0
H445 H 0.65347 0.98906 0.27319 0.0
O446 O 0.64813 0.96375 0.10015 0.0
C447 C 0.68572 0.98053 0.1151 0.0
O448 O 0.68361 0.99401 0.12169 0.0
N449 N 0.64038 0.98978 0.14531 0.0
C450 C 0.61753 0.00783 0.15698 0.0
C451 C 0.6167 0.9959 0.12036 0.0
C452 C 0.62831 0.98718 0.11415 0.0
C453 C 0.64148 0.00156 0.17961 0.0
C454 C 0.63012 0.01054 0.18723 0.0
H455 H 0.62777 0.97891 0.08108 0.0
H456 H 0.65148 0.00447 0.19838 0.0
H457 H 0.65865 0.97074 0.99129 0.0
H458 H 0.65629 0.01384 0.95454 0.0
H459 H 0.66843 0.94842 0.30174 0.0
H460 H 0.60744 0.99373 0.09384 0.0
H461 H 0.63138 0.01975 0.21512 0.0
C462 C 0.49814 0.65393 0.57635 0.0
C463 C 0.49616 0.65434 0.51477 0.0
N464 N 0.50876 0.65454 0.48752 0.0
N465 N 0.51193 0.65376 0.58825 0.0
C466 C 0.51817 0.65417 0.5333 0.0
H467 H 0.49004 0.65388 0.61045 0.0
Co468 Co 0.51951 0.65394 0.66593 0.0
C469 C 0.54367 0.63491 0.66094 0.0
O470 O 0.53984 0.62981 0.71367 0.0
N471 N 0.52721 0.6548 0.74503 0.0
C472 C 0.54283 0.65971 0.81694 0.0
C473 C 0.5405 0.65892 0.75574 0.0
C474 C 0.52155 0.65365 0.80114 0.0
N475 N 0.53089 0.65642 0.84545 0.0
O476 O 0.52765 0.67172 0.65039 0.0
H477 H 0.54803 0.66147 0.72095 0.0
H478 H 0.5108 0.65108 0.81015 0.0
O479 O 0.53641 0.64459 0.63619 0.0
C480 C 0.51899 0.68159 0.65893 0.0
O481 O 0.50596 0.67835 0.67133 0.0
N482 N 0.51039 0.6368 0.68133 0.0
C483 C 0.49257 0.61387 0.69595 0.0
C484 C 0.50422 0.61307 0.6576 0.0
C485 C 0.51279 0.62474 0.64975 0.0
C486 C 0.49877 0.63791 0.71661 0.0
C487 C 0.48991 0.62653 0.72569 0.0
H488 H 0.52085 0.62423 0.61569 0.0
H489 H 0.4959 0.64794 0.73526 0.0
H490 H 0.52937 0.65455 0.52717 0.0
H491 H 0.48616 0.65439 0.49199 0.0
H492 H 0.55243 0.6629 0.83879 0.0
H493 H 0.50629 0.60374 0.63138 0.0
H494 H 0.48086 0.62778 0.7546 0.0
C495 C 0.83503 0.50986 0.15914 0.0
C496 C 0.83369 0.50782 0.09762 0.0
N497 N 0.8434 0.51562 0.06908 0.0
N498 N 0.8455 0.51894 0.16968 0.0
C499 C 0.85048 0.52214 0.11391 0.0
H500 H 0.82869 0.5051 0.19396 0.0
Co501 Co 0.85113 0.52525 0.24638 0.0
C502 C 0.85392 0.55199 0.18032 0.0
O503 O 0.84045 0.55224 0.16928 0.0
N504 N 0.85683 0.53145 0.32367 0.0
C505 C 0.86762 0.54279 0.39813 0.0
C506 C 0.86623 0.54153 0.33642 0.0
C507 C 0.85286 0.52657 0.3787 0.0
N508 N 0.85915 0.53341 0.42499 0.0
O509 O 0.83355 0.53456 0.25606 0.0
H510 H 0.87197 0.54753 0.30326 0.0
H511 H 0.84553 0.51813 0.38476 0.0
O512 O 0.85921 0.54186 0.21002 0.0
C513 C 0.82399 0.52828 0.28545 0.0
O514 O 0.82655 0.51592 0.30861 0.0
N515 N 0.86777 0.51532 0.23856 0.0
C516 C 0.89036 0.49701 0.2309 0.0
C517 C 0.8906 0.50989 0.20045 0.0
C518 C 0.87915 0.51892 0.20468 0.0
C519 C 0.86741 0.50297 0.26893 0.0
C520 C 0.8786 0.49368 0.26597 0.0
H521 H 0.87939 0.52858 0.17956 0.0
H522 H 0.85826 0.50027 0.29519 0.0
H523 H 0.85923 0.52903 0.10615 0.0
H524 H 0.82595 0.50134 0.07567 0.0
H525 H 0.87458 0.54991 0.42122 0.0
H526 H 0.89938 0.51281 0.17225 0.0
H527 H 0.87802 0.48397 0.29099 0.0
H528 H 0.96681 0.38889 0.22294 0.0
H529 H 0.95054 0.40849 0.21891 0.0
H530 H 0.98509 0.43738 0.21961 0.0
H531 H 0.00151 0.41773 0.2248 0.0
H532 H 0.96398 0.44533 0.29758 0.0
H533 H 0.96834 0.43163 0.09068 0.0
H534 H 0.96862 0.41524 1.0046 0.0
H535 H 0.92575 0.40467 0.03855 0.0
H536 H 0.92528 0.42085 0.12546 0.0
H537 H 0.91853 0.5025 0.23065 0.0
H538 H 0.93771 0.48565 0.2237 0.0
H539 H 0.90795 0.45193 0.21311 0.0
H540 H 0.88879 0.46868 0.21786 0.0
H541 H 0.9286 0.44812 0.1338 0.0
H542 H 0.92493 0.45995 0.34582 0.0
H543 H 0.92456 0.47596 0.43326 0.0
H544 H 0.96603 0.48979 0.39018 0.0
H545 H 0.96658 0.47398 0.30195 0.0
C546 C 0.97097 0.39941 0.22293 0.0
C547 C 0.98546 0.40176 0.22445 0.0
C548 C 0.96165 0.4106 0.22 0.0
C549 C 0.96661 0.42439 0.21828 0.0
C550 C 0.98106 0.42681 0.22065 0.0
C551 C 0.99041 0.41559 0.22328 0.0
C552 C 0.95661 0.43619 0.2144 0.0
C553 C 0.95641 0.4461 0.26118 0.0
C554 C 0.9466 0.43706 0.16741 0.0
C555 C 0.94681 0.42738 0.11491 0.0
C556 C 0.959 0.42573 0.08009 0.0
C557 C 0.95919 0.41649 0.0311 0.0
C558 C 0.94722 0.4089 0.01619 0.0
C559 C 0.93502 0.41056 0.05018 0.0
C560 C 0.93478 0.41977 0.09928 0.0
C561 C 0.91607 0.49151 0.22617 0.0
C562 C 0.90211 0.48693 0.22536 0.0
C563 C 0.92705 0.48188 0.22271 0.0
C564 C 0.92427 0.46751 0.21866 0.0
C565 C 0.91036 0.46296 0.21644 0.0
C566 C 0.89941 0.47255 0.2198 0.0
C567 C 0.93577 0.45709 0.21764 0.0
C568 C 0.93627 0.44745 0.16985 0.0
C569 C 0.94603 0.45645 0.26379 0.0
C570 C 0.94573 0.46591 0.31692 0.0
C571 C 0.93393 0.46649 0.35473 0.0
C572 C 0.93369 0.47551 0.40447 0.0
C573 C 0.94525 0.48392 0.41716 0.0
C574 C 0.95708 0.48329 0.38023 0.0
C575 C 0.95736 0.4743 0.33037 0.0
H576 H 0.94504 0.4909 0.4557 0.0
H577 H 0.94738 0.40175 0.97824 0.0
H578 H 0.08315 -1e-05 0.69961 0.0
H579 H 0.06504 0.98199 0.6922 0.0
H580 H 0.09682 0.95016 0.68211 0.0
H581 H 0.11493 0.96806 0.68831 0.0
H582 H 0.07631 0.94628 0.5976 0.0
H583 H 0.07945 0.95542 0.8119 0.0
H584 H 0.07915 0.97026 0.90315 0.0
H585 H 0.03704 0.98271 0.86366 0.0
H586 H 0.03717 0.96809 0.77165 0.0
H587 H 0.03811 0.88499 0.66391 0.0
H588 H 0.05437 0.90457 0.66103 0.0
H589 H 0.0202 0.93332 0.68679 0.0
H590 H 0.00392 0.91372 0.69285 0.0
H591 H 0.04088 0.93991 0.75918 0.0
H592 H 0.03709 0.92975 0.54799 0.0
H593 H 0.03733 0.91503 0.45639 0.0
H594 H 0.08035 0.90476 0.48827 0.0
H595 H 0.08032 0.91926 0.58057 0.0
C596 C 0.08626 0.98916 0.69568 0.0
C597 C 0.10047 0.98544 0.69511 0.0
C598 C 0.07591 0.97888 0.69175 0.0
C599 C 0.07959 0.96473 0.68705 0.0
C600 C 0.09376 0.96102 0.68584 0.0
C601 C 0.10409 0.97125 0.69005 0.0
C602 C 0.06873 0.95372 0.68351 0.0
C603 C 0.06863 0.94478 0.63315 0.0
C604 C 0.05849 0.95204 0.7291 0.0
C605 C 0.05837 0.96078 0.78455 0.0
C606 C 0.07017 0.96141 0.8224 0.0
C607 C 0.07002 0.96976 0.87431 0.0
C608 C 0.0581 0.97745 0.88909 0.0
C609 C 0.04628 0.97677 0.85209 0.0
C610 C 0.04638 0.96844 0.80008 0.0
C611 C 0.03403 0.89547 0.66916 0.0
C612 C 0.01968 0.89775 0.67884 0.0
C613 C 0.04334 0.90668 0.66675 0.0
C614 C 0.0385 0.92045 0.67302 0.0
C615 C 0.02417 0.92279 0.68165 0.0
C616 C 0.01485 0.91157 0.68447 0.0
C617 C 0.0485 0.93233 0.67339 0.0
C618 C 0.04845 0.94144 0.72324 0.0
C619 C 0.05858 0.9342 0.62716 0.0
C620 C 0.05866 0.92551 0.5715 0.0
C621 C 0.04657 0.92427 0.53573 0.0
C622 C 0.04668 0.91598 0.48363 0.0
C623 C 0.05884 0.90894 0.46659 0.0
C624 C 0.07093 0.91021 0.50155 0.0
C625 C 0.07088 0.91847 0.55372 0.0
H626 H 0.0589 0.90253 0.42625 0.0
H627 H 0.058 0.98391 0.9293 0.0
H628 H 0.5894 0.00227 0.16167 0.0
H629 H 0.57012 0.01906 0.16053 0.0
H630 H 0.59965 0.05304 0.15654 0.0
H631 H 0.61893 0.0364 0.1566 0.0
H632 H 0.57879 0.05773 0.23743 0.0
H633 H 0.583 0.04302 0.02933 0.0
H634 H 0.58375 0.02584 0.94622 0.0
H635 H 0.54229 0.01221 0.99092 0.0
H636 H 0.54138 0.02918 0.07489 0.0
H637 H 0.53843 0.11484 0.14495 0.0
H638 H 0.55549 0.09593 0.14758 0.0
H639 H 0.52214 0.06565 0.14617 0.0
H640 H 0.50492 0.08464 0.14327 0.0
H641 H 0.54348 0.05771 0.0729 0.0
H642 H 0.53868 0.07335 0.27732 0.0
H643 H 0.53787 0.09061 0.36006 0.0
H644 H 0.58031 0.10234 0.32322 0.0
H645 H 0.58131 0.08529 0.23962 0.0
C646 C 0.59179 0.01331 0.1603 0.0
C647 C 0.60574 0.01796 0.15939 0.0
C648 C 0.58076 0.02289 0.15973 0.0
C649 C 0.58345 0.0373 0.15801 0.0
C650 C 0.59734 0.04197 0.15812 0.0
C651 C 0.60836 0.03242 0.15853 0.0
C652 C 0.57187 0.04759 0.15577 0.0
C653 C 0.57114 0.0578 0.20117 0.0
C654 C 0.56166 0.04743 0.10939 0.0
C655 C 0.56218 0.03726 0.05882 0.0
C656 C 0.57409 0.03628 0.02176 0.0
C657 C 0.57453 0.02659 0.97444 0.0
C658 C 0.56309 0.01791 0.96341 0.0
C659 C 0.55116 0.01892 0.99959 0.0
C660 C 0.55067 0.02858 0.04703 0.0
C661 C 0.5347 0.10416 0.1454 0.0
C662 C 0.52032 0.10123 0.14474 0.0
C663 C 0.54447 0.09336 0.14685 0.0
C664 C 0.54008 0.07938 0.14832 0.0
C665 C 0.52575 0.07637 0.14538 0.0
C666 C 0.51593 0.08721 0.14362 0.0
C667 C 0.55054 0.068 0.15404 0.0
C668 C 0.55105 0.05757 0.10944 0.0
C669 C 0.56055 0.06792 0.20127 0.0
C670 C 0.56003 0.07811 0.25189 0.0
C671 C 0.54781 0.07968 0.28659 0.0
C672 C 0.54732 0.08942 0.33368 0.0
C673 C 0.55902 0.09759 0.34681 0.0
C674 C 0.57125 0.09601 0.31297 0.0
C675 C 0.57179 0.0863 0.26577 0.0
H676 H 0.55862 0.10512 0.38328 0.0
H677 H 0.56345 0.01042 0.92674 0.0
H678 H 0.38748 0.53259 0.73222 0.0
H679 H 0.40596 0.55004 0.72532 0.0
H680 H 0.43699 0.5174 0.72528 0.0
H681 H 0.41848 0.49979 0.73371 0.0
H682 H 0.44434 0.53941 0.79912 0.0
H683 H 0.42885 0.53297 0.59537 0.0
H684 H 0.41164 0.53125 0.51269 0.0
H685 H 0.39889 0.57361 0.54447 0.0
H686 H 0.41589 0.57552 0.628 0.0
H687 H 0.49876 0.58597 0.70526 0.0
H688 H 0.48237 0.56638 0.71113 0.0
H689 H 0.44777 0.59519 0.70542 0.0
H690 H 0.46402 0.61473 0.69758 0.0
H691 H 0.44351 0.57367 0.63049 0.0
H692 H 0.45796 0.57963 0.83791 0.0
H693 H 0.47497 0.58136 0.92137 0.0
H694 H 0.48964 0.53994 0.8827 0.0
H695 H 0.47283 0.53803 0.79842 0.0
C696 C 0.39823 0.5291 0.73164 0.0
C697 C 0.40151 0.51478 0.73374 0.0
C698 C 0.40878 0.53909 0.72705 0.0
C699 C 0.42284 0.53501 0.72407 0.0
C700 C 0.4262 0.52076 0.72729 0.0
C701 C 0.41562 0.51072 0.73173 0.0
C702 C 0.43394 0.5457 0.71707 0.0
C703 C 0.44431 0.54676 0.76173 0.0
C704 C 0.43376 0.55543 0.66878 0.0
C705 C 0.42357 0.55435 0.61831 0.0
C706 C 0.4223 0.54189 0.58505 0.0
C707 C 0.4126 0.54088 0.53797 0.0
C708 C 0.40416 0.5523 0.52342 0.0
C709 C 0.40543 0.56476 0.55583 0.0
C710 C 0.41511 0.56582 0.60301 0.0
C711 C 0.48765 0.58812 0.70501 0.0
C712 C 0.48271 0.60193 0.70137 0.0
C713 C 0.4783 0.57692 0.70885 0.0
C714 C 0.46384 0.57933 0.70932 0.0
C715 C 0.45888 0.59309 0.70533 0.0
C716 C 0.4682 0.60426 0.7015 0.0
C717 C 0.45378 0.56755 0.71313 0.0
C718 C 0.44361 0.56627 0.66771 0.0
C719 C 0.45416 0.55764 0.76071 0.0
C720 C 0.46424 0.55875 0.81145 0.0
C721 C 0.46489 0.57093 0.84688 0.0
C722 C 0.47448 0.57194 0.89439 0.0
C723 C 0.48341 0.56078 0.90721 0.0
C724 C 0.48274 0.54858 0.87265 0.0
C725 C 0.47317 0.54753 0.82503 0.0
H726 H 0.49083 0.56158 0.94402 0.0
H727 H 0.39665 0.5515 0.48696 0.0
H728 H 0.88416 0.02933 0.30102 0.0
H729 H 0.90305 0.04608 0.28665 0.0
H730 H 0.93293 0.0124 0.28173 0.0
H731 H 0.91399 0.99547 0.29574 0.0
H732 H 0.94203 0.03398 0.35147 0.0
H733 H 0.92339 0.02848 0.15199 0.0
H734 H 0.90492 0.02761 0.0743 0.0
H735 H 0.89443 0.07039 0.11058 0.0
H736 H 0.91271 0.07146 0.18916 0.0
H737 H 0.99682 0.07885 0.24948 0.0
H738 H 0.97985 0.05976 0.25498 0.0
H739 H 0.9462 0.08969 0.25872 0.0
H740 H 0.96304 0.10876 0.25358 0.0
H741 H 0.94019 0.06851 0.184 0.0
H742 H 0.95751 0.07355 0.38773 0.0
H743 H 0.97563 0.07455 0.46695 0.0
H744 H 0.98839 0.03275 0.42348 0.0
H745 H 0.97045 0.03158 0.34337 0.0
C746 C 0.89472 0.02544 0.29611 0.0
C747 C 0.89753 0.01103 0.29878 0.0
C748 C 0.90552 0.03505 0.28808 0.0
C749 C 0.91938 0.03049 0.28216 0.0
C750 C 0.9223 0.01614 0.286 0.0
C751 C 0.91147 0.00649 0.29412 0.0
C752 C 0.93076 0.04077 0.27236 0.0
C753 C 0.94177 0.04137 0.31423 0.0
C754 C 0.93029 0.05058 0.22441 0.0
C755 C 0.91936 0.05002 0.1768 0.0
C756 C 0.91708 0.03768 0.1437 0.0
C757 C 0.90665 0.03715 0.09946 0.0
C758 C 0.89849 0.04893 0.0876 0.0
C759 C 0.90076 0.06127 0.11985 0.0
C760 C 0.91116 0.06185 0.1642 0.0
C761 C 0.9858 0.08135 0.25157 0.0
C762 C 0.9813 0.09534 0.25096 0.0
C763 C 0.97612 0.07044 0.2547 0.0
C764 C 0.96175 0.0733 0.25781 0.0
C765 C 0.95722 0.08723 0.25612 0.0
C766 C 0.96688 0.09813 0.25289 0.0
C767 C 0.95136 0.06185 0.2636 0.0
C768 C 0.94053 0.06103 0.22092 0.0
C769 C 0.952 0.05186 0.31087 0.0
C770 C 0.96275 0.05254 0.35911 0.0
C771 C 0.96426 0.06462 0.39473 0.0
C772 C 0.97448 0.06521 0.43985 0.0
C773 C 0.98318 0.05374 0.45012 0.0
C774 C 0.98165 0.04164 0.41539 0.0
C775 C 0.97146 0.041 0.37015 0.0
H776 H 0.99109 0.05421 0.48508 0.0
H777 H 0.89042 0.0485 0.05333 0.0
H778 H 0.49829 0.91611 0.88438 0.0
H779 H 0.48193 0.93581 0.88848 0.0
H780 H 0.44727 0.90702 0.88442 0.0
H781 H 0.4635 0.88743 0.87959 0.0
H782 H 0.4432 0.92716 0.80601 0.0
H783 H 0.4575 0.92461 0.01521 0.0
H784 H 0.47442 0.92452 0.09939 0.0
H785 H 0.48827 0.96556 0.04905 0.0
H786 H 0.47154 0.96581 0.96402 0.0
H787 H 0.38586 0.96672 0.89716 0.0
H788 H 0.4054 0.95042 0.90159 0.0
H789 H 0.43432 0.98446 0.87705 0.0
H790 H 0.41471 0.00093 0.87139 0.0
H791 H 0.44301 0.96382 0.9648 0.0
H792 H 0.4273 0.9666 0.75891 0.0
H793 H 0.40974 0.96651 0.67728 0.0
H794 H 0.39815 0.92454 0.72376 0.0
H795 H 0.4155 0.92445 0.80635 0.0
C796 C 0.48718 0.91402 0.88492 0.0
C797 C 0.48217 0.90024 0.88115 0.0
C798 C 0.47784 0.92527 0.88735 0.0
C799 C 0.46336 0.9229 0.88694 0.0
C800 C 0.45839 0.90913 0.88432 0.0
C801 C 0.46768 0.89793 0.88143 0.0
C802 C 0.45324 0.93467 0.88706 0.0
C803 C 0.44311 0.93509 0.84112 0.0
C804 C 0.45335 0.94529 0.93173 0.0
C805 C 0.46339 0.94516 0.98285 0.0
C806 C 0.46424 0.93356 0.02178 0.0
C807 C 0.47378 0.93349 0.06971 0.0
C808 C 0.48245 0.94501 0.07945 0.0
C809 C 0.48157 0.95664 0.04138 0.0
C810 C 0.47205 0.95675 0.99334 0.0
C811 C 0.39636 0.97078 0.89263 0.0
C812 C 0.39871 0.9851 0.88281 0.0
C813 C 0.40752 0.96145 0.89555 0.0
C814 C 0.42127 0.96623 0.88878 0.0
C815 C 0.42376 0.98059 0.88226 0.0
C816 C 0.41255 0.98997 0.87913 0.0
C817 C 0.43284 0.956 0.88479 0.0
C818 C 0.44323 0.95593 0.92959 0.0
C819 C 0.43297 0.94561 0.83926 0.0
C820 C 0.42263 0.94556 0.78912 0.0
C821 C 0.42094 0.95738 0.75201 0.0
C822 C 0.41103 0.95736 0.70553 0.0
C823 C 0.40281 0.94554 0.69541 0.0
C824 C 0.40452 0.93369 0.73168 0.0
C825 C 0.4144 0.93367 0.77829 0.0
H826 H 0.39515 0.94554 0.65941 0.0
H827 H 0.48982 0.94494 0.11658 0.0
H828 H 0.61617 0.46434 0.28827 0.0
H829 H 0.59793 0.44667 0.29801 0.0
H830 H 0.56662 0.47902 0.30477 0.0
H831 H 0.58485 0.4968 0.29496 0.0
H832 H 0.562 0.45967 0.39053 0.0
H833 H 0.5711 0.45942 0.17733 0.0
H834 H 0.5856 0.45817 0.08521 0.0
H835 H 0.59926 0.41702 0.13499 0.0
H836 H 0.58499 0.4181 0.22789 0.0
H837 H 0.50433 0.41284 0.34612 0.0
H838 H 0.52142 0.43181 0.33859 0.0
H839 H 0.55484 0.40163 0.33253 0.0
H840 H 0.53788 0.38269 0.34037 0.0
H841 H 0.55753 0.42065 0.2441 0.0
H842 H 0.54889 0.4212 0.45867 0.0
H843 H 0.5344 0.42248 0.5508 0.0
H844 H 0.51973 0.46307 0.49795 0.0
H845 H 0.53401 0.46195 0.40503 0.0
C846 C 0.60539 0.46771 0.29089 0.0
C847 C 0.60196 0.48198 0.29039 0.0
C848 C 0.59497 0.45759 0.29667 0.0
C849 C 0.58088 0.46151 0.30148 0.0
C850 C 0.57742 0.47575 0.30117 0.0
C851 C 0.58785 0.48589 0.29558 0.0
C852 C 0.56982 0.45074 0.30763 0.0
C853 C 0.56088 0.45125 0.35801 0.0
C854 C 0.56852 0.43961 0.26584 0.0
C855 C 0.57707 0.4389 0.20985 0.0
C856 C 0.57728 0.45014 0.16887 0.0
C857 C 0.58544 0.44946 0.11647 0.0
C858 C 0.59337 0.43754 0.10432 0.0
C859 C 0.59312 0.42626 0.14449 0.0
C860 C 0.58499 0.4269 0.19699 0.0
C861 C 0.51534 0.41027 0.34412 0.0
C862 C 0.51974 0.39626 0.34344 0.0
C863 C 0.52508 0.42111 0.3397 0.0
C864 C 0.53941 0.41814 0.33504 0.0
C865 C 0.54383 0.40417 0.33563 0.0
C866 C 0.53412 0.39335 0.33997 0.0
C867 C 0.54982 0.42949 0.32734 0.0
C868 C 0.55862 0.42909 0.27652 0.0
C869 C 0.55097 0.44072 0.36868 0.0
C870 C 0.5424 0.44142 0.42457 0.0
C871 C 0.54249 0.43035 0.46643 0.0
C872 C 0.53433 0.43106 0.51885 0.0
C873 C 0.52612 0.44283 0.53013 0.0
C874 C 0.52608 0.45395 0.48909 0.0
C875 C 0.53421 0.45328 0.43657 0.0
H876 H 0.51981 0.44336 0.57074 0.0
H877 H 0.59969 0.43702 0.06373 0.0
H878 H 0.03476 0.61284 0.80609 0.0
H879 H 0.05152 0.5937 0.7998 0.0
H880 H 0.01781 0.56387 0.80658 0.0
H881 H 0.00091 0.58304 0.81267 0.0
H882 H 0.03936 0.55603 0.87884 0.0
H883 H 0.03378 0.57103 0.67342 0.0
H884 H 0.03299 0.58806 0.58968 0.0
H885 H 0.07588 0.5988 0.62183 0.0
H886 H 0.07687 0.58198 0.70638 0.0
H887 H 0.08233 0.49865 0.78727 0.0
H888 H 0.06383 0.51628 0.79156 0.0
H889 H 0.09482 0.54894 0.78663 0.0
H890 H 0.11332 0.53145 0.78317 0.0
H891 H 0.07353 0.55439 0.71002 0.0
H892 H 0.07885 0.54025 0.91783 0.0
H893 H 0.07972 0.52345 1.0024 0.0
H894 H 0.03743 0.51116 0.96601 0.0
H895 H 0.03637 0.52776 0.8806 0.0
C896 C 0.03087 0.60222 0.80559 0.0
C897 C 0.01647 0.59947 0.80913 0.0
C898 C 0.04048 0.59128 0.80218 0.0
C899 C 0.03591 0.57735 0.80178 0.0
C900 C 0.02157 0.57454 0.80667 0.0
C901 C 0.01193 0.5855 0.81023 0.0
C902 C 0.04615 0.56578 0.79599 0.0
C903 C 0.04669 0.55553 0.84141 0.0
C904 C 0.05588 0.56528 0.74773 0.0
C905 C 0.05536 0.57532 0.69656 0.0
C906 C 0.04301 0.57709 0.66291 0.0
C907 C 0.04253 0.5867 0.61526 0.0
C908 C 0.05437 0.59453 0.60053 0.0
C909 C 0.06672 0.59274 0.63332 0.0
C910 C 0.06725 0.58316 0.68108 0.0
C911 C 0.0852 0.50958 0.78745 0.0
C912 C 0.09932 0.51361 0.78463 0.0
C913 C 0.07462 0.51965 0.78983 0.0
C914 C 0.07795 0.53393 0.78978 0.0
C915 C 0.09201 0.53798 0.78641 0.0
C916 C 0.10258 0.52795 0.7841 0.0
C917 C 0.06685 0.54472 0.79319 0.0
C918 C 0.06615 0.55483 0.74725 0.0
C919 C 0.05699 0.54509 0.84097 0.0
C920 C 0.05759 0.53513 0.89239 0.0
C921 C 0.06977 0.53388 0.92753 0.0
C922 C 0.07029 0.52441 0.97568 0.0
C923 C 0.05865 0.51621 0.98946 0.0
C924 C 0.04645 0.5175 0.95521 0.0
C925 C 0.04588 0.52694 0.90695 0.0
H926 H 0.05907 0.50889 0.02676 0.0
H927 H 0.05398 0.60196 0.56363 0.0
H928 H 0.05992 0.39215 0.21394 0.0
H929 H 0.07647 0.40298 0.14487 0.0
H930 H 0.07498 0.36658 0.0299 0.0
H931 H 0.05788 0.35584 0.09807 0.0
H932 H 0.10123 0.39839 0.10462 0.0
H933 H 0.07827 0.37609 0.8846 0.0
H934 H 0.05606 0.36666 0.84604 0.0
H935 H 0.03334 0.39161 0.97422 0.0
H936 H 0.05547 0.40121 0.01341 0.0
H937 H 0.14229 0.42968 0.87203 0.0
H938 H 0.13057 0.41174 0.93319 0.0
H939 H 0.09058 0.4297 0.88681 0.0
H940 H 0.1022 0.44675 0.82234 0.0
H941 H 0.08706 0.40404 0.88998 0.0
H942 H 0.11108 0.43611 0.02374 0.0
H943 H 0.13178 0.448 0.06464 0.0
H944 H 0.14931 0.40851 0.11705 0.0
H945 H 0.12876 0.39634 0.07516 0.0
C946 C 0.06317 0.38636 0.17425 0.0
C947 C 0.05744 0.37318 0.16118 0.0
C948 C 0.07271 0.39257 0.13483 0.0
C949 C 0.07686 0.38571 0.08163 0.0
C950 C 0.07173 0.37221 0.07002 0.0
C951 C 0.062 0.36605 0.10913 0.0
C952 C 0.08586 0.39316 0.03714 0.0
C953 C 0.09819 0.39955 0.05755 0.0
C954 C 0.08187 0.39482 0.97585 0.0
C955 C 0.06851 0.38925 0.95219 0.0
C956 C 0.06853 0.37958 0.90438 0.0
C957 C 0.05594 0.37421 0.88244 0.0
C958 C 0.04326 0.37856 0.90758 0.0
C959 C 0.04316 0.38825 0.95484 0.0
C960 C 0.05572 0.39364 0.97699 0.0
C961 C 0.131 0.42963 0.87469 0.0
C962 C 0.12312 0.43956 0.84272 0.0
C963 C 0.12429 0.41944 0.90979 0.0
C964 C 0.10964 0.41945 0.91576 0.0
C965 C 0.10186 0.42933 0.88297 0.0
C966 C 0.10851 0.43915 0.84631 0.0
C967 C 0.10227 0.4097 0.95774 0.0
C968 C 0.09027 0.40277 0.93679 0.0
C969 C 0.1063 0.40797 0.01912 0.0
C970 C 0.11848 0.41531 0.04553 0.0
C971 C 0.11941 0.42995 0.04347 0.0
C972 C 0.13115 0.43674 0.06666 0.0
C973 C 0.14194 0.42901 0.09303 0.0
C974 C 0.14097 0.41448 0.09644 0.0
C975 C 0.12929 0.40763 0.07287 0.0
H976 H 0.15104 0.43424 0.11098 0.0
H977 H 0.03351 0.37448 0.89042 0.0
H978 H 0.10536 0.06119 0.68722 0.0
H979 H 0.09323 0.07659 0.61659 0.0
H980 H 0.1293 0.0769 0.49982 0.0
H981 H 0.14153 0.06119 0.56991 0.0
H982 H 0.11314 0.10478 0.522 0.0
H983 H 0.10912 0.05712 0.45206 0.0
H984 H 0.10479 0.03202 0.46843 0.0
H985 H 0.06316 0.0411 0.52911 0.0
H986 H 0.06736 0.06631 0.51422 0.0
H987 H 0.06085 0.10712 0.24806 0.0
H988 H 0.07839 0.09558 0.31063 0.0
H989 H 0.06907 0.12363 0.458 0.0
H990 H 0.05156 0.13537 0.39537 0.0
H991 H 0.07427 0.08145 0.41301 0.0
H992 H 0.09862 0.12786 0.54421 0.0
H993 H 0.10393 0.1528 0.52822 0.0
H994 H 0.10649 0.14598 0.33635 0.0
H995 H 0.10139 0.12097 0.35124 0.0
C996 C 0.11084 0.06468 0.64708 0.0
C997 C 0.12438 0.05988 0.63393 0.0
C998 C 0.10389 0.07351 0.60685 0.0
C999 C 0.11039 0.07784 0.5532 0.0
C1000 C 0.12417 0.0737 0.54129 0.0
C1001 C 0.13109 0.06468 0.58116 0.0
C1002 C 0.10219 0.08548 0.50718 0.0
C1003 C 0.10467 0.09974 0.49787 0.0
C1004 C 0.09132 0.07876 0.4753 0.0
C1005 C 0.0886 0.0636 0.48255 0.0
C1006 C 0.09908 0.05377 0.46931 0.0
C1007 C 0.09665 0.03953 0.47829 0.0
C1008 C 0.08372 0.03497 0.49994 0.0
C1009 C 0.07318 0.04465 0.51241 0.0
C1010 C 0.07558 0.05892 0.50368 0.0
C1011 C 0.06261 0.11096 0.29357 0.0
C1012 C 0.05475 0.12215 0.31676 0.0
C1013 C 0.07263 0.10431 0.32932 0.0
C1014 C 0.07508 0.10875 0.3889 0.0
C1015 C 0.06748 0.12013 0.41186 0.0
C1016 C 0.05743 0.1268 0.37606 0.0
C1017 C 0.08502 0.10095 0.42793 0.0
C1018 C 0.08281 0.08658 0.4364 0.0
C1019 C 0.09624 0.10758 0.45827 0.0
C1020 C 0.0995 0.12257 0.44886 0.0
C1021 C 0.10037 0.13167 0.49863 0.0
C1022 C 0.10334 0.14582 0.48976 0.0
C1023 C 0.1055 0.15098 0.43129 0.0
C1024 C 0.10476 0.14198 0.38159 0.0
C1025 C 0.10181 0.12782 0.39022 0.0
H1026 H 0.10778 0.16194 0.42451 0.0
H1027 H 0.08185 0.02394 0.50695 0.0
H1028 H 0.45564 0.12794 0.03341 0.0
H1029 H 0.43843 0.11357 0.98059 0.0
H1030 H 0.40679 0.12646 0.10799 0.0
H1031 H 0.42386 0.14108 0.16023 0.0
H1032 H 0.42414 0.09181 0.01531 0.0
H1033 H 0.37512 0.12718 0.04104 0.0
H1034 H 0.36936 0.15227 0.04574 0.0
H1035 H 0.40672 0.16208 0.94699 0.0
H1036 H 0.41261 0.13705 0.94096 0.0
H1037 H 0.36506 0.05086 0.9641 0.0
H1038 H 0.38086 0.06791 0.00895 0.0
H1039 H 0.37658 0.09411 0.85101 0.0
H1040 H 0.3603 0.07726 0.80669 0.0
H1041 H 0.37801 0.10981 0.94876 0.0
H1042 H 0.40456 0.07194 0.86795 0.0
H1043 H 0.41049 0.04711 0.85346 0.0
H1044 H 0.41987 0.04322 0.04287 0.0
H1045 H 0.41375 0.06798 0.05871 0.0
C1046 C 0.44501 0.12775 0.0501 0.0
C1047 C 0.44112 0.13566 0.10107 0.0
C1048 C 0.43518 0.11952 0.01987 0.0
C1049 C 0.42128 0.11901 0.03994 0.0
C1050 C 0.41739 0.12687 0.09093 0.0
C1051 C 0.42718 0.13519 0.12092 0.0
C1052 C 0.41093 0.10998 0.00859 0.0
C1053 C 0.41407 0.09577 1.00066 0.0
C1054 C 0.39789 0.11516 0.98828 0.0
C1055 C 0.39436 0.13024 0.99108 0.0
C1056 C 0.38207 0.13469 0.02011 0.0
C1057 C 0.37879 0.1489 0.02305 0.0
C1058 C 0.38769 0.15876 0.99685 0.0
C1059 C 0.39987 0.15443 0.96747 0.0
C1060 C 0.40319 0.14023 0.96435 0.0
C1061 C 0.36734 0.06031 0.93914 0.0
C1062 C 0.36153 0.06265 0.88158 0.0
C1063 C 0.37643 0.07004 0.96476 0.0
C1064 C 0.38018 0.08214 0.93274 0.0
C1065 C 0.3739 0.08482 0.87642 0.0
C1066 C 0.36461 0.07517 0.85112 0.0
C1067 C 0.39112 0.09162 0.95687 0.0
C1068 C 0.3881 0.10589 0.96333 0.0
C1069 C 0.40443 0.08657 0.9743 0.0
C1070 C 0.4086 0.0718 0.96458 0.0
C1071 C 0.40785 0.06578 0.90655 0.0
C1072 C 0.41123 0.05171 0.8981 0.0
C1073 C 0.41553 0.04358 0.94723 0.0
C1074 C 0.41652 0.04952 1.00486 0.0
C1075 C 0.41311 0.06358 0.0136 0.0
H1076 H 0.4181 0.03268 0.94063 0.0
H1077 H 0.38514 0.16976 0.99921 0.0
H1078 H 0.39437 0.43796 0.73196 0.0
H1079 H 0.40572 0.42099 0.66619 0.0
H1080 H 0.37129 0.42344 0.54088 0.0
H1081 H 0.35978 0.44066 0.60656 0.0
H1082 H 0.38223 0.39502 0.56682 0.0
H1083 H 0.39728 0.44031 0.50129 0.0
H1084 H 0.40623 0.46418 0.51648 0.0
H1085 H 0.44407 0.44766 0.59229 0.0
H1086 H 0.43523 0.42367 0.57857 0.0
H1087 H 0.42272 0.36018 0.33783 0.0
H1088 H 0.40713 0.37612 0.39214 0.0
H1089 H 0.4404 0.38616 0.51646 0.0
H1090 H 0.45605 0.37054 0.46192 0.0
H1091 H 0.42798 0.40914 0.48073 0.0
H1092 H 0.41267 0.36433 0.55503 0.0
H1093 H 0.40374 0.34026 0.5461 0.0
H1094 H 0.36675 0.35549 0.45825 0.0
H1095 H 0.37555 0.37965 0.46598 0.0
C1096 C 0.38909 0.43484 0.69076 0.0
C1097 C 0.3762 0.44076 0.67433 0.0
C1098 C 0.39562 0.42513 0.6532 0.0
C1099 C 0.38938 0.42106 0.59857 0.0
C1100 C 0.37625 0.42647 0.58294 0.0
C1101 C 0.36973 0.43633 0.62038 0.0
C1102 C 0.39709 0.41171 0.55689 0.0
C1103 C 0.39211 0.39814 0.54691 0.0
C1104 C 0.41007 0.41578 0.53202 0.0
C1105 C 0.41554 0.43019 0.53932 0.0
C1106 C 0.40746 0.44176 0.5216 0.0
C1107 C 0.41252 0.45532 0.52991 0.0
C1108 C 0.4257 0.45744 0.55544 0.0
C1109 C 0.43386 0.446 0.57255 0.0
C1110 C 0.42884 0.43242 0.56447 0.0
C1111 C 0.42668 0.36573 0.37694 0.0
C1112 C 0.44065 0.36412 0.39538 0.0
C1113 C 0.41774 0.37481 0.40806 0.0
C1114 C 0.42256 0.3823 0.45864 0.0
C1115 C 0.43645 0.38056 0.47741 0.0
C1116 C 0.4454 0.37159 0.44617 0.0
C1117 C 0.41333 0.39223 0.49152 0.0
C1118 C 0.41803 0.40599 0.49984 0.0
C1119 C 0.40014 0.38828 0.51509 0.0
C1120 C 0.39484 0.37377 0.51043 0.0
C1121 C 0.40269 0.36253 0.53335 0.0
C1122 C 0.39764 0.34888 0.5286 0.0
C1123 C 0.3847 0.34635 0.50145 0.0
C1124 C 0.37677 0.35747 0.47916 0.0
C1125 C 0.38178 0.37114 0.48374 0.0
H1126 H 0.38081 0.33577 0.49782 0.0
H1127 H 0.4296 0.46794 0.56186 0.0
H1128 H 0.8823 0.55423 0.1915 0.0
H1129 H 0.8978 0.57032 0.13861 0.0
H1130 H 0.86223 0.59008 0.0546 0.0
H1131 H 0.84665 0.57372 0.10608 0.0
H1132 H 0.88096 0.58489 0.97311 0.0
H1133 H 0.88163 0.60652 0.16611 0.0
H1134 H 0.88401 0.60832 0.27698 0.0
H1135 H 0.92683 0.59537 0.26473 0.0
H1136 H 0.92467 0.59329 0.15378 0.0
H1137 H 0.93953 0.64216 0.93298 0.0
H1138 H 0.92073 0.63169 0.9932 0.0
H1139 H 0.92546 0.59309 0.89446 0.0
H1140 H 0.94372 0.60362 0.83287 0.0
H1141 H 0.91972 0.61122 0.06875 0.0
H1142 H 0.89565 0.57539 0.88327 0.0
H1143 H 0.89188 0.5754 0.77281 0.0
H1144 H 0.89319 0.62022 0.7709 0.0
H1145 H 0.89672 0.6205 0.88152 0.0
C1146 C 0.87774 0.56204 0.16207 0.0
C1147 C 0.86322 0.56259 0.15267 0.0
C1148 C 0.88663 0.57133 0.13221 0.0
C1149 C 0.88119 0.58151 0.09294 0.0
C1150 C 0.86668 0.58232 0.08466 0.0
C1151 C 0.85777 0.57297 0.11428 0.0
C1152 C 0.89072 0.59062 0.05738 0.0
C1153 C 0.88938 0.59072 0.99409 0.0
C1154 C 0.90156 0.59845 0.08475 0.0
C1155 C 0.90293 0.59963 0.15156 0.0
C1156 C 0.89152 0.60394 0.18706 0.0
C1157 C 0.89284 0.60503 0.24993 0.0
C1158 C 0.90556 0.60193 0.27787 0.0
C1159 C 0.91699 0.59776 0.24298 0.0
C1160 C 0.91572 0.59663 0.18008 0.0
C1161 C 0.93645 0.63148 0.92386 0.0
C1162 C 0.94298 0.62377 0.8777 0.0
C1163 C 0.92574 0.6255 0.9584 0.0
C1164 C 0.92146 0.61167 0.94767 0.0
C1165 C 0.92825 0.60389 0.9025 0.0
C1166 C 0.93875 0.60992 0.86743 0.0
C1167 C 0.91017 0.60518 0.9844 0.0
C1168 C 0.9112 0.60553 0.04784 0.0
C1169 C 0.89885 0.59799 0.95725 0.0
C1170 C 0.89656 0.59795 0.89071 0.0
C1171 C 0.89506 0.58526 0.85936 0.0
C1172 C 0.89298 0.58521 0.79669 0.0
C1173 C 0.89235 0.5978 0.76483 0.0
C1174 C 0.89373 0.61047 0.79561 0.0
C1175 C 0.89578 0.61058 0.85831 0.0
H1176 H 0.89076 0.59774 0.7163 0.0
H1177 H 0.90657 0.60279 0.32655 0.0
H1178 H 0.94846 0.89607 0.7223 0.0
H1179 H 0.93055 0.90655 0.65923 0.0
H1180 H 0.9185 0.8657 0.59504 0.0
H1181 H 0.93729 0.8552 0.65557 0.0
H1182 H 0.91768 0.88144 0.50619 0.0
H1183 H 0.8969 0.88673 0.69949 0.0
H1184 H 0.89484 0.89262 0.80789 0.0
H1185 H 0.90461 0.93543 0.76862 0.0
H1186 H 0.90688 0.92977 0.66011 0.0
H1187 H 0.85628 0.93595 0.45019 0.0
H1188 H 0.86797 0.91869 0.51434 0.0
H1189 H 0.90444 0.92083 0.39968 0.0
H1190 H 0.89259 0.93749 0.33422 0.0
H1191 H 0.88873 0.92065 0.58186 0.0
H1192 H 0.92403 0.89229 0.40388 0.0
H1193 H 0.92245 0.88406 0.2983 0.0
H1194 H 0.87775 0.88269 0.31181 0.0
H1195 H 0.87906 0.89069 0.41775 0.0
C1196 C 0.9419 0.88927 0.69531 0.0
C1197 C 0.94415 0.87479 0.69441 0.0
C1198 C 0.93154 0.89529 0.65949 0.0
C1199 C 0.92279 0.88694 0.62351 0.0
C1200 C 0.925 0.8724 0.62266 0.0
C1201 C 0.9357 0.86639 0.65737 0.0
C1202 C 0.91196 0.8936 0.58448 0.0
C1203 C 0.91122 0.88989 0.52299 0.0
C1204 C 0.90314 0.90438 0.60632 0.0
C1205 C 0.90211 0.9078 0.67172 0.0
C1206 C 0.89871 0.89738 0.71406 0.0
C1207 C 0.89748 0.90068 0.7755 0.0
C1208 C 0.8996 0.91439 0.79514 0.0
C1209 C 0.90299 0.92481 0.75338 0.0
C1210 C 0.90423 0.92157 0.6919 0.0
C1211 C 0.86671 0.93255 0.43822 0.0
C1212 C 0.87348 0.93803 0.38698 0.0
C1213 C 0.8734 0.9227 0.47497 0.0
C1214 C 0.88705 0.91824 0.46156 0.0
C1215 C 0.89378 0.92372 0.41022 0.0
C1216 C 0.88701 0.93336 0.37296 0.0
C1217 C 0.89468 0.90871 0.50341 0.0
C1218 C 0.89489 0.91196 0.56536 0.0
C1219 C 0.90251 0.89712 0.48241 0.0
C1220 C 0.90165 0.8922 0.41872 0.0
C1221 C 0.91387 0.89016 0.38447 0.0
C1222 C 0.91302 0.88555 0.32451 0.0
C1223 C 0.90001 0.88289 0.29832 0.0
C1224 C 0.88782 0.8848 0.33209 0.0
C1225 C 0.88861 0.88939 0.39208 0.0
H1226 H 0.89937 0.87933 0.25188 0.0
H1227 H 0.89861 0.91693 0.8427 0.0
H1228 H 0.6239 0.93531 0.17821 0.0
H1229 H 0.61176 0.91622 0.12751 0.0
H1230 H 0.62712 0.93065 0.95483 0.0
H1231 H 0.63941 0.94988 1.00553 0.0
H1232 H 0.59861 0.92596 0.95524 0.0
H1233 H 0.63986 0.90123 0.00938 0.0
H1234 H 0.65875 0.89321 0.07681 0.0
H1235 H 0.62875 0.87272 0.19086 0.0
H1236 H 0.60965 0.8808 0.12461 0.0
H1237 H 0.57633 0.85085 0.8639 0.0
H1238 H 0.59456 0.86708 0.89718 0.0
H1239 H 0.56359 0.89188 0.98949 0.0
H1240 H 0.54538 0.87578 0.95687 0.0
H1241 H 0.60316 0.876 0.01205 0.0
H1242 H 0.57116 0.92607 0.96317 0.0
H1243 H 0.55248 0.93384 0.89402 0.0
H1244 H 0.56529 0.90335 0.76277 0.0
H1245 H 0.58419 0.89555 0.83067 0.0
C1246 C 0.62482 0.93437 0.12948 0.0
C1247 C 0.63258 0.94411 0.09582 0.0
C1248 C 0.61794 0.9234 0.10062 0.0
C1249 C 0.61862 0.92197 0.03749 0.0
C1250 C 0.62652 0.93156 1.00366 0.0
C1251 C 0.63356 0.94249 0.03267 0.0
C1252 C 0.61032 0.91094 0.00719 0.0
C1253 C 0.59969 0.91502 0.96719 0.0
C1254 C 0.61185 0.89665 0.0223 0.0
C1255 C 0.62331 0.89169 0.06215 0.0
C1256 C 0.63727 0.8951 0.04907 0.0
C1257 C 0.64802 0.89053 0.08705 0.0
C1258 C 0.64495 0.88248 0.13813 0.0
C1259 C 0.63112 0.87896 0.15127 0.0
C1260 C 0.62033 0.88351 0.11345 0.0
C1261 C 0.57341 0.8597 0.89169 0.0
C1262 C 0.55935 0.86208 0.90722 0.0
C1263 C 0.58385 0.86894 0.91069 0.0
C1264 C 0.58038 0.88077 0.94499 0.0
C1265 C 0.56645 0.88291 0.96224 0.0
C1266 C 0.55604 0.87366 0.94362 0.0
C1267 C 0.5912 0.89111 0.96187 0.0
C1268 C 0.60224 0.88691 0.99942 0.0
C1269 C 0.59013 0.90528 0.94416 0.0
C1270 C 0.57903 0.91016 0.90226 0.0
C1271 C 0.57005 0.92109 0.91939 0.0
C1272 C 0.55941 0.92549 0.88043 0.0
C1273 C 0.55768 0.91907 0.8241 0.0
C1274 C 0.56662 0.90829 0.80648 0.0
C1275 C 0.57729 0.90386 0.84521 0.0
H1276 H 0.54942 0.92248 0.79407 0.0
H1277 H 0.65328 0.87895 0.16749 0.0
H1278 H 0.64131 0.56697 0.36545 0.0
H1279 H 0.6291 0.58497 0.42436 0.0
H1280 H 0.58963 0.56553 0.38111 0.0
H1281 H 0.6017 0.54832 0.31921 0.0
H1282 H 0.58567 0.59104 0.37593 0.0
H1283 H 0.60901 0.56161 0.521 0.0
H1284 H 0.62938 0.55023 0.56773 0.0
H1285 H 0.64694 0.5903 0.61013 0.0
H1286 H 0.62683 0.60196 0.56192 0.0
H1287 H 0.557 0.61064 0.68929 0.0
H1288 H 0.57411 0.59805 0.62877 0.0
H1289 H 0.57408 0.63142 0.49731 0.0
H1290 H 0.55643 0.64387 0.55669 0.0
H1291 H 0.5993 0.60106 0.58824 0.0
H1292 H 0.57646 0.61832 0.35808 0.0
H1293 H 0.55412 0.62716 0.31761 0.0
H1294 H 0.53179 0.60559 0.45793 0.0
H1295 H 0.55397 0.59647 0.49868 0.0
C1296 C 0.63002 0.56666 0.3685 0.0
C1297 C 0.62242 0.55633 0.3378 0.0
C1298 C 0.62305 0.57689 0.40233 0.0
C1299 C 0.6084 0.57657 0.40799 0.0
C1300 C 0.60089 0.56615 0.37724 0.0
C1301 C 0.6078 0.55626 0.34202 0.0
C1302 C 0.60072 0.58681 0.44637 0.0
C1303 C 0.58876 0.59325 0.42223 0.0
C1304 C 0.60454 0.58967 0.50719 0.0
C1305 C 0.61651 0.58266 0.53711 0.0
C1306 C 0.61728 0.568 0.53977 0.0
C1307 C 0.62881 0.5615 0.5664 0.0
C1308 C 0.63949 0.56953 0.59175 0.0
C1309 C 0.63867 0.58409 0.5904 0.0
C1310 C 0.62723 0.59066 0.56325 0.0
C1311 C 0.5607 0.61539 0.64778 0.0
C1312 C 0.5552 0.62817 0.62734 0.0
C1313 C 0.57058 0.6082 0.61336 0.0
C1314 C 0.57526 0.61367 0.55802 0.0
C1315 C 0.57042 0.62686 0.53931 0.0
C1316 C 0.56036 0.63397 0.5733 0.0
C1317 C 0.58421 0.60499 0.51794 0.0
C1318 C 0.5964 0.59893 0.54166 0.0
C1319 C 0.58028 0.60194 0.45762 0.0
C1320 C 0.56687 0.60687 0.43177 0.0
C1321 C 0.56677 0.61541 0.38002 0.0
C1322 C 0.55414 0.62049 0.35716 0.0
C1323 C 0.54156 0.61701 0.3855 0.0
C1324 C 0.54155 0.60833 0.43628 0.0
C1325 C 0.55414 0.6032 0.45924 0.0
H1326 H 0.53181 0.62101 0.36807 0.0
H1327 H 0.64839 0.56451 0.61255 0.0
H1328 H 0.04559 0.30814 0.20366 0.0
H1329 H 0.05081 0.28316 0.21676 0.0
H1330 H 0.00949 0.2766 0.28916 0.0
H1331 H 0.0043 0.30124 0.27701 0.0
H1332 H 0.02844 0.26357 0.35707 0.0
H1333 H 0.01816 0.26835 0.14168 0.0
H1334 H 0.02222 0.27762 0.03891 0.0
H1335 H 0.06385 0.26095 0.04054 0.0
H1336 H 0.06008 0.25173 0.1437 0.0
H1337 H 0.00193 0.19737 0.29875 0.0
H1338 H 0.00833 0.222 0.29932 0.0
H1339 H 0.05107 0.21116 0.25955 0.0
H1340 H 0.04471 0.18622 0.25976 0.0
H1341 H 0.03884 0.23267 0.18255 0.0
H1342 H 0.0461 0.22314 0.39125 0.0
H1343 H 0.04066 0.21328 0.49169 0.0
H1344 H 0.00373 0.23858 0.50192 0.0
H1345 H 0.0088 0.24844 0.40111 0.0
C1346 C 0.03764 0.30133 0.22225 0.0
C1347 C 0.02453 0.30669 0.23924 0.0
C1348 C 0.04064 0.28707 0.22972 0.0
C1349 C 0.03054 0.27799 0.25406 0.0
C1350 C 0.01749 0.28339 0.27082 0.0
C1351 C 0.01452 0.29752 0.26349 0.0
C1352 C 0.03315 0.26279 0.26172 0.0
C1353 C 0.03077 0.25682 0.31895 0.0
C1354 C 0.03666 0.25399 0.21249 0.0
C1355 C 0.03891 0.25953 0.15062 0.0
C1356 C 0.02822 0.26677 0.12029 0.0
C1357 C 0.03046 0.27199 0.06196 0.0
C1358 C 0.0433 0.26992 0.0333 0.0
C1359 C 0.05392 0.26258 0.06286 0.0
C1360 C 0.05174 0.25735 0.12124 0.0
C1361 C 0.01273 0.20018 0.29065 0.0
C1362 C 0.02283 0.18988 0.27922 0.0
C1363 C 0.01638 0.21426 0.29119 0.0
C1364 C 0.03018 0.21839 0.27977 0.0
C1365 C 0.04037 0.20816 0.26867 0.0
C1366 C 0.03675 0.19395 0.26911 0.0
C1367 C 0.0335 0.2335 0.27722 0.0
C1368 C 0.03697 0.23944 0.22109 0.0
C1369 C 0.03088 0.2423 0.32736 0.0
C1370 C 0.02782 0.2365 0.38839 0.0
C1371 C 0.03677 0.22654 0.41471 0.0
C1372 C 0.03375 0.22096 0.47175 0.0
C1373 C 0.02185 0.2253 0.50313 0.0
C1374 C 0.01295 0.23524 0.47757 0.0
C1375 C 0.0159 0.24085 0.4205 0.0
H1376 H 0.01954 0.22097 0.54728 0.0
H1377 H 0.04501 0.27397 0.98813 0.0
H1378 H 0.30866 0.04802 0.81729 0.0
H1379 H 0.28494 0.05549 0.78934 0.0
H1380 H 0.27819 0.016 0.69999 0.0
H1381 H 0.30163 0.00861 0.72693 0.0
H1382 H 0.268 0.03717 0.63321 0.0
H1383 H 0.26683 0.02216 0.84506 0.0
H1384 H 0.27372 0.02375 0.9525 0.0
H1385 H 0.25914 0.06614 0.95911 0.0
H1386 H 0.25233 0.06483 0.85139 0.0
H1387 H 0.20106 0.0102 0.65633 0.0
H1388 H 0.22554 0.01689 0.66403 0.0
H1389 H 0.21349 0.05842 0.71853 0.0
H1390 H 0.1887 0.05178 0.70986 0.0
H1391 H 0.23334 0.04484 0.79685 0.0
H1392 H 0.22859 0.05648 0.58964 0.0
H1393 H 0.22105 0.0535 0.48369 0.0
H1394 H 0.24634 0.01665 0.46823 0.0
H1395 H 0.25386 0.01926 0.57439 0.0
C1396 C 0.30212 0.04101 0.7913 0.0
C1397 C 0.30699 0.02768 0.77474 0.0
C1398 C 0.28859 0.04528 0.77543 0.0
C1399 C 0.27977 0.03628 0.74274 0.0
C1400 C 0.28481 0.02316 0.72492 0.0
C1401 C 0.29822 0.0189 0.74081 0.0
C1402 C 0.26502 0.0399 0.72914 0.0
C1403 C 0.26042 0.03895 0.6689 0.0
C1404 C 0.25518 0.0427 0.77546 0.0
C1405 C 0.25926 0.04346 0.84008 0.0
C1406 C 0.2652 0.03185 0.86933 0.0
C1407 C 0.26907 0.03269 0.93026 0.0
C1408 C 0.26692 0.04506 0.96255 0.0
C1409 C 0.26084 0.05658 0.934 0.0
C1410 C 0.25698 0.0558 0.87302 0.0
C1411 C 0.20359 0.02083 0.6691 0.0
C1412 C 0.193 0.03048 0.68252 0.0
C1413 C 0.21759 0.02465 0.67324 0.0
C1414 C 0.22132 0.03817 0.6915 0.0
C1415 C 0.21079 0.04796 0.70403 0.0
C1416 C 0.19668 0.04419 0.69881 0.0
C1417 C 0.23629 0.04141 0.70131 0.0
C1418 C 0.24094 0.04362 0.7608 0.0
C1419 C 0.24617 0.03966 0.65434 0.0
C1420 C 0.24177 0.03806 0.59017 0.0
C1421 C 0.23248 0.04768 0.5638 0.0
C1422 C 0.22821 0.04607 0.50367 0.0
C1423 C 0.23321 0.03489 0.46927 0.0
C1424 C 0.24249 0.02532 0.49492 0.0
C1425 C 0.24678 0.02687 0.55507 0.0
H1426 H 0.22989 0.03366 0.42272 0.0
H1427 H 0.26991 0.04569 0.00973 0.0
H1428 H 0.45254 0.3073 0.34137 0.0
H1429 H 0.44503 0.2833 0.31711 0.0
H1430 H 0.48244 0.27742 0.21127 0.0
H1431 H 0.48991 0.30099 0.23503 0.0
H1432 H 0.45935 0.26743 0.15306 0.0
H1433 H 0.48035 0.26604 0.35545 0.0
H1434 H 0.48147 0.27204 0.46398 0.0
H1435 H 0.44049 0.25493 0.49074 0.0
H1436 H 0.43906 0.24901 0.38208 0.0
H1437 H 0.49243 0.20339 0.15826 0.0
H1438 H 0.48403 0.22706 0.17596 0.0
H1439 H 0.44412 0.21089 0.23301 0.0
H1440 H 0.45245 0.1869 0.21386 0.0
H1441 H 0.45861 0.23155 0.31514 0.0
H1442 H 0.44165 0.22703 0.11441 0.0
H1443 H 0.44238 0.22018 0.00685 0.0
H1444 H 0.47689 0.24796 0.97683 0.0
H1445 H 0.47653 0.25481 0.08442 0.0
C1446 C 0.45907 0.30087 0.31262 0.0
C1447 C 0.47186 0.30599 0.29047 0.0
C1448 C 0.45479 0.28719 0.29889 0.0
C1449 C 0.46319 0.27858 0.26235 0.0
C1450 C 0.47575 0.28388 0.23923 0.0
C1451 C 0.48005 0.29736 0.25328 0.0
C1452 C 0.45958 0.26382 0.24931 0.0
C1453 C 0.45901 0.25959 0.18848 0.0
C1454 C 0.45869 0.25361 0.29555 0.0
C1455 C 0.45951 0.2573 0.36057 0.0
C1456 C 0.47152 0.26371 0.38437 0.0
C1457 C 0.47223 0.26706 0.44591 0.0
C1458 C 0.46103 0.26392 0.48418 0.0
C1459 C 0.44913 0.2574 0.461 0.0
C1460 C 0.44836 0.25405 0.39945 0.0
C1461 C 0.48182 0.20484 0.17408 0.0
C1462 C 0.47309 0.19332 0.18474 0.0
C1463 C 0.47702 0.21837 0.18398 0.0
C1464 C 0.46345 0.2207 0.20554 0.0
C1465 C 0.45461 0.20926 0.21612 0.0
C1466 C 0.45935 0.19562 0.20497 0.0
C1467 C 0.45911 0.23521 0.21895 0.0
C1468 C 0.45827 0.2394 0.27972 0.0
C1469 C 0.45883 0.2454 0.17267 0.0
C1470 C 0.45907 0.24141 0.10766 0.0
C1471 C 0.44946 0.23161 0.08499 0.0
C1472 C 0.4498 0.22774 0.02397 0.0
C1473 C 0.45968 0.23363 0.98504 0.0
C1474 C 0.46923 0.24342 0.00703 0.0
C1475 C 0.46894 0.24732 0.06803 0.0
H1476 H 0.45993 0.23061 0.93781 0.0
H1477 H 0.46161 0.26651 0.53183 0.0
H1478 H 0.31118 0.45005 0.71573 0.0
H1479 H 0.28644 0.44374 0.72867 0.0
H1480 H 0.27751 0.48564 0.78916 0.0
H1481 H 0.3019 0.49191 0.77708 0.0
H1482 H 0.26581 0.46682 0.86292 0.0
H1483 H 0.26989 0.47442 0.64491 0.0
H1484 H 0.27929 0.46933 0.54327 0.0
H1485 H 0.26449 0.4271 0.55636 0.0
H1486 H 0.25515 0.43192 0.65848 0.0
H1487 H 0.19945 0.49088 0.7958 0.0
H1488 H 0.22416 0.48487 0.79401 0.0
H1489 H 0.21376 0.44117 0.78096 0.0
H1490 H 0.18869 0.44715 0.78379 0.0
H1491 H 0.23515 0.45293 0.69216 0.0
H1492 H 0.22632 0.44807 0.90343 0.0
H1493 H 0.2163 0.45466 1.00221 0.0
H1494 H 0.23981 0.49283 1.00025 0.0
H1495 H 0.24981 0.48658 0.90099 0.0
C1496 C 0.30389 0.45789 0.73156 0.0
C1497 C 0.30852 0.47147 0.74549 0.0
C1498 C 0.28978 0.45428 0.73894 0.0
C1499 C 0.28013 0.46421 0.76013 0.0
C1500 C 0.28477 0.47775 0.77336 0.0
C1501 C 0.29876 0.48134 0.76612 0.0
C1502 C 0.26511 0.46087 0.76888 0.0
C1503 C 0.25913 0.46368 0.82565 0.0
C1504 C 0.25642 0.45633 0.72088 0.0
C1505 C 0.262 0.45347 0.65957 0.0
C1506 C 0.26875 0.46402 0.6263 0.0
C1507 C 0.27404 0.46119 0.56858 0.0
C1508 C 0.27254 0.44788 0.54346 0.0
C1509 C 0.26568 0.43739 0.57594 0.0
C1510 C 0.26039 0.44016 0.63372 0.0
C1511 C 0.20237 0.47997 0.79286 0.0
C1512 C 0.19215 0.46947 0.79001 0.0
C1513 C 0.2165 0.47656 0.79192 0.0
C1514 C 0.22076 0.4626 0.78745 0.0
C1515 C 0.21063 0.45201 0.78447 0.0
C1516 C 0.19637 0.45542 0.78647 0.0
C1517 C 0.2359 0.45949 0.78536 0.0
C1518 C 0.2419 0.45553 0.72997 0.0
C1519 C 0.24464 0.46309 0.83448 0.0
C1520 C 0.23878 0.46686 0.89459 0.0
C1521 C 0.22929 0.45791 0.92386 0.0
C1522 C 0.22362 0.46158 0.97998 0.0
C1523 C 0.22741 0.47416 0.00747 0.0
C1524 C 0.23689 0.48308 0.97893 0.0
C1525 C 0.24258 0.47947 0.92277 0.0
H1526 H 0.223 0.47699 0.05091 0.0
H1527 H 0.27664 0.44571 0.49877 0.0
H1528 H 0.99344 0.79905 0.7785 0.0
H1529 H 0.98552 0.77496 0.78497 0.0
H1530 H 0.9427 0.78877 0.78735 0.0
H1531 H 0.95058 0.81324 0.77933 0.0
H1532 H 0.95786 0.76483 0.88465 0.0
H1533 H 0.94237 0.77611 0.68157 0.0
H1534 H 0.94492 0.78737 0.5817 0.0
H1535 H 0.98263 0.76426 0.5498 0.0
H1536 H 0.98043 0.75305 0.65 0.0
H1537 H 0.95166 0.68959 0.85324 0.0
H1538 H 0.94493 0.71436 0.84708 0.0
H1539 H 0.98268 0.72322 0.74759 0.0
H1540 H 0.98931 0.69881 0.75286 0.0
H1541 H 0.96118 0.73641 0.69742 0.0
H1542 H 0.97968 0.72924 0.9014 0.0
H1543 H 0.97969 0.71863 1.00324 0.0
H1544 H 0.93826 0.73416 0.0348 0.0
H1545 H 0.93796 0.74473 0.93277 0.0
C1546 C 0.98232 0.79706 0.78079 0.0
C1547 C 0.97263 0.80808 0.77836 0.0
C1548 C 0.97783 0.78327 0.78444 0.0
C1549 C 0.96356 0.78013 0.78646 0.0
C1550 C 0.95377 0.79104 0.78569 0.0
C1551 C 0.95828 0.80496 0.78105 0.0
C1552 C 0.95935 0.76528 0.78745 0.0
C1553 C 0.95804 0.75859 0.84366 0.0
C1554 C 0.95995 0.7572 0.73401 0.0
C1555 C 0.96129 0.76384 0.67354 0.0
C1556 C 0.95128 0.77354 0.65353 0.0
C1557 C 0.95265 0.77989 0.5968 0.0
C1558 C 0.96395 0.77656 0.55947 0.0
C1559 C 0.97389 0.76684 0.57877 0.0
C1560 C 0.97258 0.76048 0.63552 0.0
C1561 C 0.95846 0.69684 0.82989 0.0
C1562 C 0.97105 0.69223 0.80379 0.0
C1563 C 0.95461 0.71098 0.82643 0.0
C1564 C 0.96331 0.72067 0.79688 0.0
C1565 C 0.97573 0.71596 0.77021 0.0
C1566 C 0.97956 0.70196 0.77366 0.0
C1567 C 0.96007 0.73585 0.7949 0.0
C1568 C 0.96022 0.74259 0.73838 0.0
C1569 C 0.95852 0.74395 0.84814 0.0
C1570 C 0.95872 0.73759 0.90927 0.0
C1571 C 0.97053 0.73029 0.9299 0.0
C1572 C 0.9706 0.7243 0.98766 0.0
C1573 C 0.95896 0.72567 0.02538 0.0
C1574 C 0.94725 0.73307 1.00547 0.0
C1575 C 0.94712 0.73906 0.9477 0.0
H1576 H 0.95904 0.72104 0.0701 0.0
H1577 H 0.96498 0.78148 0.51555 0.0
H1578 H 0.81113 0.94808 0.29415 0.0
H1579 H 0.78786 0.94294 0.25339 0.0
H1580 H 0.77134 0.97917 0.3446 0.0
H1581 H 0.79452 0.98444 0.38464 0.0
H1582 H 0.75206 0.95679 0.33913 0.0
H1583 H 0.78326 0.98387 0.2097 0.0
H1584 H 0.80524 0.98761 0.15362 0.0
H1585 H 0.79777 0.95043 0.05001 0.0
H1586 H 0.7758 0.94638 0.10609 0.0
H1587 H 0.71033 0.99451 0.10545 0.0
H1588 H 0.73319 0.98667 0.14042 0.0
H1589 H 0.71619 0.94598 0.1801 0.0
H1590 H 0.69319 0.95377 0.14508 0.0
H1591 H 0.75217 0.96552 0.11739 0.0
H1592 H 0.72909 0.93772 0.32379 0.0
H1593 H 0.70672 0.93645 0.3792 0.0
H1594 H 0.69758 0.97887 0.33028 0.0
H1595 H 0.72003 0.98049 0.27577 0.0
C1596 C 0.80243 0.95464 0.30727 0.0
C1597 C 0.80461 0.96672 0.34215 0.0
C1598 C 0.78916 0.95172 0.28379 0.0
C1599 C 0.77793 0.96076 0.29557 0.0
C1600 C 0.77986 0.97205 0.33509 0.0
C1601 C 0.79311 0.97508 0.35776 0.0
C1602 C 0.76484 0.95992 0.25998 0.0
C1603 C 0.75207 0.95839 0.29049 0.0
C1604 C 0.76487 0.96227 0.19664 0.0
C1605 C 0.77799 0.96473 0.16252 0.0
C1606 C 0.78636 0.97644 0.17526 0.0
C1607 C 0.7988 0.97862 0.14346 0.0
C1608 C 0.80291 0.96924 0.09841 0.0
C1609 C 0.79458 0.95767 0.085 0.0
C1610 C 0.78213 0.95542 0.11676 0.0
C1611 C 0.71152 0.98378 0.1202 0.0
C1612 C 0.69993 0.97482 0.12329 0.0
C1613 C 0.72461 0.97929 0.13988 0.0
C1614 C 0.72633 0.96581 0.16357 0.0
C1615 C 0.71504 0.95646 0.16235 0.0
C1616 C 0.70192 0.96092 0.14218 0.0
C1617 C 0.73937 0.96238 0.19648 0.0
C1618 C 0.75214 0.9633 0.16559 0.0
C1619 C 0.73932 0.95973 0.25964 0.0
C1620 C 0.72615 0.95914 0.295 0.0
C1621 C 0.72235 0.9468 0.3252 0.0
C1622 C 0.70965 0.94601 0.35637 0.0
C1623 C 0.70069 0.95753 0.3578 0.0
C1624 C 0.7045 0.96993 0.32883 0.0
C1625 C 0.71721 0.97079 0.29787 0.0
H1626 H 0.69084 0.95688 0.38169 0.0
H1627 H 0.81251 0.97099 0.07372 0.0
H1628 H 0.5445 0.81062 0.81752 0.0
H1629 H 0.55118 0.78677 0.78799 0.0
H1630 H 0.50899 0.77288 0.82049 0.0
H1631 H 0.50231 0.79644 0.84987 0.0
H1632 H 0.5279 0.75384 0.86089 0.0
H1633 H 0.51923 0.78183 0.67978 0.0
H1634 H 0.5237 0.80177 0.61168 0.0
H1635 H 0.56628 0.78859 0.59027 0.0
H1636 H 0.56206 0.76863 0.65876 0.0
H1637 H 0.50251 0.70454 0.66583 0.0
H1638 H 0.50938 0.72801 0.69579 0.0
H1639 H 0.55263 0.71559 0.69665 0.0
H1640 H 0.54581 0.69177 0.66714 0.0
H1641 H 0.54079 0.74683 0.64519 0.0
H1642 H 0.5469 0.71557 0.81741 0.0
H1643 H 0.53935 0.69493 0.87587 0.0
H1644 H 0.49972 0.71433 0.91006 0.0
H1645 H 0.50692 0.73496 0.85069 0.0
C1646 C 0.53674 0.8024 0.81923 0.0
C1647 C 0.52286 0.8054 0.83553 0.0
C1648 C 0.54055 0.78882 0.80222 0.0
C1649 C 0.53055 0.77808 0.80175 0.0
C1650 C 0.51688 0.78098 0.8207 0.0
C1651 C 0.51306 0.79449 0.83712 0.0
C1652 C 0.53376 0.76399 0.77747 0.0
C1653 C 0.53099 0.75232 0.81409 0.0
C1654 C 0.53789 0.76197 0.71647 0.0
C1655 C 0.54039 0.77386 0.67492 0.0
C1656 C 0.52957 0.78325 0.66085 0.0
C1657 C 0.53205 0.79454 0.62215 0.0
C1658 C 0.54529 0.79649 0.59688 0.0
C1659 C 0.55604 0.78709 0.61002 0.0
C1660 C 0.55361 0.77579 0.64873 0.0
C1661 C 0.51352 0.7068 0.67111 0.0
C1662 C 0.52361 0.69625 0.66489 0.0
C1663 C 0.51742 0.72025 0.68796 0.0
C1664 C 0.53147 0.72345 0.69869 0.0
C1665 C 0.54173 0.71327 0.68828 0.0
C1666 C 0.53782 0.6997 0.67153 0.0
C1667 C 0.5348 0.73683 0.72853 0.0
C1668 C 0.5385 0.74836 0.69286 0.0
C1669 C 0.53148 0.73876 0.79035 0.0
C1670 C 0.52742 0.72677 0.82924 0.0
C1671 C 0.53655 0.71541 0.8372 0.0
C1672 C 0.53233 0.7037 0.87038 0.0
C1673 C 0.51903 0.70328 0.89626 0.0
C1674 C 0.50999 0.71465 0.88968 0.0
C1675 C 0.51415 0.72636 0.85638 0.0
H1676 H 0.51575 0.69419 0.92173 0.0
H1677 H 0.5472 0.80524 0.56699 0.0
H1678 H 0.8087 0.54009 0.19497 0.0
H1679 H 0.78369 0.54529 0.19694 0.0
H1680 H 0.78238 0.53482 0.38726 0.0
H1681 H 0.80711 0.52859 0.38366 0.0
H1682 H 0.76276 0.52255 0.34044 0.0
H1683 H 0.7771 0.56987 0.32375 0.0
H1684 H 0.78983 0.59023 0.28345 0.0
H1685 H 0.76949 0.58518 0.11155 0.0
H1686 H 0.75679 0.56466 0.15053 0.0
H1687 H 0.69067 0.54021 0.35733 0.0
H1688 H 0.71564 0.54549 0.36893 0.0
H1689 H 0.72221 0.53691 0.17939 0.0
H1690 H 0.69742 0.53125 0.16791 0.0
H1691 H 0.73838 0.56141 0.23598 0.0
H1692 H 0.72732 0.5114 0.25672 0.0
H1693 H 0.714 0.49214 0.30331 0.0
H1694 H 0.72826 0.50464 0.47953 0.0
H1695 H 0.74149 0.52412 0.43392 0.0
C1696 C 0.80308 0.53921 0.23738 0.0
C1697 C 0.80974 0.53396 0.28918 0.0
C1698 C 0.78878 0.54226 0.2387 0.0
C1699 C 0.78103 0.5406 0.29247 0.0
C1700 C 0.788 0.53611 0.34506 0.0
C1701 C 0.80215 0.53263 0.34317 0.0
C1702 C 0.7655 0.54206 0.29254 0.0
C1703 C 0.75755 0.53129 0.31879 0.0
C1704 C 0.75847 0.55329 0.26367 0.0
C1705 C 0.76607 0.56565 0.23999 0.0
C1706 C 0.77542 0.57304 0.27723 0.0
C1707 C 0.78262 0.58462 0.25463 0.0
C1708 C 0.78049 0.58898 0.19495 0.0
C1709 C 0.77114 0.58179 0.15777 0.0
C1710 C 0.76391 0.57019 0.18012 0.0
C1711 C 0.69739 0.53981 0.3179 0.0
C1712 C 0.69219 0.53523 0.26183 0.0
C1713 C 0.71162 0.54282 0.32456 0.0
C1714 C 0.72071 0.54158 0.27495 0.0
C1715 C 0.71532 0.53801 0.21804 0.0
C1716 C 0.7012 0.53469 0.21167 0.0
C1717 C 0.73603 0.54199 0.28373 0.0
C1718 C 0.74381 0.55296 0.25872 0.0
C1719 C 0.74296 0.53115 0.31486 0.0
C1720 C 0.73524 0.51929 0.34204 0.0
C1721 C 0.72752 0.5101 0.30544 0.0
C1722 C 0.72 0.49914 0.33164 0.0
C1723 C 0.72025 0.49719 0.39436 0.0
C1724 C 0.72806 0.50618 0.43097 0.0
C1725 C 0.73557 0.51717 0.40497 0.0
H1726 H 0.71442 0.4887 0.41458 0.0
H1727 H 0.78608 0.59795 0.17754 0.0
H1728 H 0.99117 0.35462 0.95558 0.0
H1729 H 0.99446 0.35563 0.84606 0.0
H1730 H 0.03709 0.34197 0.86748 0.0
H1731 H 0.03388 0.34103 0.97741 0.0
H1732 H 0.03548 0.36294 0.7882 0.0
H1733 H 0.01125 0.31962 0.81767 0.0
H1734 H 0.99234 0.30438 0.8547 0.0
H1735 H 0.96247 0.32757 0.75012 0.0
H1736 H 0.9812 0.34308 0.7131 0.0
H1737 H 0.04968 0.34077 0.48883 0.0
H1738 H 0.04512 0.34142 0.59678 0.0
H1739 H 0.00482 0.35989 0.56383 0.0
H1740 H 0.00939 0.35976 0.45504 0.0
H1741 H 0.00428 0.33742 0.64742 0.0
H1742 H 0.02953 0.37988 0.61399 0.0
H1743 H 0.04887 0.39469 0.57792 0.0
H1744 H 0.07757 0.37236 0.6917 0.0
H1745 H 0.05845 0.35722 0.7276 0.0
C1746 C 0.00122 0.3517 0.93706 0.0
C1747 C 0.01223 0.34761 0.97539 0.0
C1748 C 0.00308 0.35229 0.87431 0.0
C1749 C 0.01595 0.34865 0.84829 0.0
C1750 C 0.02704 0.34476 0.88644 0.0
C1751 C 0.02521 0.34428 0.94934 0.0
C1752 C 0.0179 0.34908 0.7814 0.0
C1753 C 0.02881 0.35717 0.75762 0.0
C1754 C 0.00888 0.34193 0.74106 0.0
C1755 C 0.99761 0.3326 0.76312 0.0
C1756 C 0.00064 0.32154 0.80295 0.0
C1757 C 0.98995 0.31284 0.82387 0.0
C1758 C 0.97621 0.31503 0.80491 0.0
C1759 C 0.97312 0.3259 0.76484 0.0
C1760 C 0.98377 0.33464 0.74384 0.0
C1761 C 0.03989 0.34516 0.50377 0.0
C1762 C 0.02996 0.35027 0.46208 0.0
C1763 C 0.03729 0.34546 0.566 0.0
C1764 C 0.02468 0.35078 0.5884 0.0
C1765 C 0.01463 0.35572 0.54742 0.0
C1766 C 0.01727 0.35558 0.48499 0.0
C1767 C 0.02206 0.35107 0.6547 0.0
C1768 C 0.01098 0.34316 0.67825 0.0
C1769 C 0.03102 0.35828 0.69495 0.0
C1770 C 0.04257 0.36729 0.67293 0.0
C1771 C 0.03999 0.37801 0.63079 0.0
C1772 C 0.05091 0.38649 0.61047 0.0
C1773 C 0.06445 0.38444 0.63234 0.0
C1774 C 0.06709 0.37391 0.67467 0.0
C1775 C 0.05621 0.36538 0.69502 0.0
H1776 H 0.07288 0.39102 0.61661 0.0
H1777 H 0.96795 0.30828 0.82114 0.0
H1778 H 0.15542 0.01289 0.92637 0.0
H1779 H 0.1549 0.00931 0.03605 0.0
H1780 H 0.13918 0.05118 0.06041 0.0
H1781 H 0.14001 0.05486 0.95086 0.0
H1782 H 0.15868 0.04674 0.13891 0.0
H1783 H 0.11819 0.02121 0.07759 0.0
H1784 H 0.1047 0.00397 0.01881 0.0
H1785 H 0.13024 0.97087 0.08913 0.0
H1786 H 0.14402 0.98794 0.14773 0.0
H1787 H 0.14029 0.03694 0.45077 0.0
H1788 H 0.13892 0.041 0.34159 0.0
H1789 H 0.16015 0.00202 0.3089 0.0
H1790 H 0.16188 0.99801 0.41761 0.0
H1791 H 0.13684 0.00544 0.23597 0.0
H1792 H 0.17764 0.03174 0.29484 0.0
H1793 H 0.1905 0.0493 0.35449 0.0
H1794 H 0.16308 0.08146 0.28942 0.0
H1795 H 0.14994 0.06404 0.22998 0.0
C1796 C 0.15168 0.02125 0.95509 0.0
C1797 C 0.14774 0.03415 0.93 0.0
C1798 C 0.15138 0.0192 0.01785 0.0
C1799 C 0.14685 0.02992 0.05674 0.0
C1800 C 0.14275 0.04275 0.03156 0.0
C1801 C 0.14323 0.04486 0.96893 0.0
C1802 C 0.1468 0.02793 0.12369 0.0
C1803 C 0.15369 0.03781 0.16007 0.0
C1804 C 0.14052 0.01618 0.1516 0.0
C1805 C 0.13222 0.00588 0.11663 0.0
C1806 C 0.12099 0.01027 0.08019 0.0
C1807 C 0.11329 0.00053 0.04695 0.0
C1808 C 0.11663 0.98634 0.05011 0.0
C1809 C 0.12767 0.98187 0.08667 0.0
C1810 C 0.13542 0.99157 0.11995 0.0
C1811 C 0.14483 0.0293 0.42056 0.0
C1812 C 0.15122 0.01713 0.44341 0.0
C1813 C 0.14397 0.03161 0.35804 0.0
C1814 C 0.14946 0.02182 0.3171 0.0
C1815 C 0.15576 0.00967 0.33965 0.0
C1816 C 0.1567 0.00739 0.40201 0.0
C1817 C 0.14873 0.0242 0.25069 0.0
C1818 C 0.14172 0.01439 0.21456 0.0
C1819 C 0.15478 0.03608 0.22306 0.0
C1820 C 0.16272 0.04657 0.25847 0.0
C1821 C 0.17429 0.04253 0.29363 0.0
C1822 C 0.18164 0.05246 0.32733 0.0
C1823 C 0.17759 0.06648 0.32588 0.0
C1824 C 0.1662 0.0706 0.29057 0.0
C1825 C 0.1588 0.0607 0.25683 0.0
H1826 H 0.18329 0.07415 0.35199 0.0
H1827 H 0.11065 0.97882 0.02434 0.0
H1828 H 0.46819 0.14592 0.92014 0.0
H1829 H 0.46417 0.14505 0.81098 0.0
H1830 H 0.49863 0.17326 0.78223 0.0
H1831 H 0.50236 0.17464 0.89135 0.0
H1832 H 0.47798 0.1796 0.7069 0.0
H1833 H 0.50217 0.1376 0.76288 0.0
H1834 H 0.50605 0.11588 0.82055 0.0
H1835 H 0.46713 0.09946 0.75544 0.0
H1836 H 0.46292 0.12117 0.69798 0.0
H1837 H 0.49029 0.16276 0.39378 0.0
H1838 H 0.49208 0.16689 0.50303 0.0
H1839 H 0.45693 0.13965 0.53349 0.0
H1840 H 0.45501 0.13559 0.42486 0.0
H1841 H 0.47789 0.13313 0.60776 0.0
H1842 H 0.45416 0.17517 0.54873 0.0
H1843 H 0.4507 0.19687 0.49051 0.0
H1844 H 0.48923 0.21322 0.56008 0.0
H1845 H 0.49303 0.19152 0.61808 0.0
C1846 C 0.47479 0.15213 0.89087 0.0
C1847 C 0.48572 0.16025 0.91498 0.0
C1848 C 0.47256 0.15151 0.82818 0.0
C1849 C 0.48126 0.15889 0.78801 0.0
C1850 C 0.49182 0.1674 0.81205 0.0
C1851 C 0.49403 0.16806 0.87466 0.0
C1852 C 0.47967 0.1574 0.72102 0.0
C1853 C 0.47811 0.16944 0.68517 0.0
C1854 C 0.47963 0.14415 0.69242 0.0
C1855 C 0.48217 0.13106 0.72664 0.0
C1856 C 0.49439 0.12939 0.76121 0.0
C1857 C 0.49665 0.11708 0.79381 0.0
C1858 C 0.48682 0.10631 0.79179 0.0
C1859 C 0.47472 0.10782 0.75703 0.0
C1860 C 0.4724 0.12012 0.72441 0.0
C1861 C 0.48281 0.15782 0.42359 0.0
C1862 C 0.47258 0.14874 0.40027 0.0
C1863 C 0.48385 0.16018 0.48618 0.0
C1864 C 0.47463 0.15358 0.52672 0.0
C1865 C 0.46424 0.14478 0.50335 0.0
C1866 C 0.46319 0.14243 0.44104 0.0
C1867 C 0.47609 0.15531 0.5936 0.0
C1868 C 0.4777 0.1433 0.62944 0.0
C1869 C 0.47623 0.16858 0.622 0.0
C1870 C 0.47395 0.18165 0.58727 0.0
C1871 C 0.46196 0.18334 0.55123 0.0
C1872 C 0.45992 0.19565 0.51833 0.0
C1873 C 0.46976 0.2064 0.52146 0.0
C1874 C 0.48163 0.20488 0.55762 0.0
C1875 C 0.48373 0.19257 0.59056 0.0
H1876 H 0.46816 0.21593 0.49597 0.0
H1877 H 0.48859 0.09679 0.81706 0.0
H1878 H 0.34509 0.48832 0.96654 0.0
H1879 H 0.34501 0.49212 0.07611 0.0
H1880 H 0.3623 0.45097 0.10333 0.0
H1881 H 0.36205 0.44705 0.99389 0.0
H1882 H 0.34233 0.45472 0.18009 0.0
H1883 H 0.38194 0.48192 0.12055 0.0
H1884 H 0.39483 0.4997 0.06222 0.0
H1885 H 0.36762 0.53167 0.13045 0.0
H1886 H 0.35444 0.51405 0.18858 0.0
H1887 H 0.36018 0.4648 0.49148 0.0
H1888 H 0.3615 0.461 0.38225 0.0
H1889 H 0.33913 0.49941 0.35134 0.0
H1890 H 0.33746 0.50317 0.46025 0.0
H1891 H 0.36227 0.49689 0.27761 0.0
H1892 H 0.32258 0.469 0.336 0.0
H1893 H 0.31034 0.45093 0.39534 0.0
H1894 H 0.33891 0.41983 0.32996 0.0
H1895 H 0.35144 0.43776 0.27084 0.0
C1896 C 0.34904 0.48017 0.99588 0.0
C1897 C 0.3536 0.46739 0.97162 0.0
C1898 C 0.34901 0.48234 0.05858 0.0
C1899 C 0.3538 0.47189 0.09826 0.0
C1900 C 0.35851 0.45919 0.07388 0.0
C1901 C 0.35837 0.45695 0.01132 0.0
C1902 C 0.35349 0.47397 0.16516 0.0
C1903 C 0.3469 0.46385 0.20136 0.0
C1904 C 0.35919 0.486 0.19319 0.0
C1905 C 0.36713 0.49664 0.15848 0.0
C1906 C 0.37864 0.49273 0.12278 0.0
C1907 C 0.38601 0.50278 0.0898 0.0
C1908 C 0.38202 0.5168 0.09251 0.0
C1909 C 0.37068 0.52081 0.12834 0.0
C1910 C 0.36327 0.51079 0.16135 0.0
C1911 C 0.35537 0.47237 0.46171 0.0
C1912 C 0.34869 0.48431 0.48518 0.0
C1913 C 0.3562 0.4702 0.39911 0.0
C1914 C 0.35037 0.4799 0.35861 0.0
C1915 C 0.34377 0.49183 0.38173 0.0
C1916 C 0.34286 0.49397 0.44422 0.0
C1917 C 0.35114 0.47765 0.29209 0.0
C1918 C 0.35778 0.48775 0.2561 0.0
C1919 C 0.34561 0.46555 0.26429 0.0
C1920 C 0.33803 0.45475 0.29949 0.0
C1921 C 0.32632 0.45833 0.33465 0.0
C1922 C 0.31932 0.44811 0.36817 0.0
C1923 C 0.32387 0.43425 0.36655 0.0
C1924 C 0.33541 0.43057 0.33124 0.0
C1925 C 0.34245 0.44076 0.29768 0.0
H1926 H 0.31843 0.42635 0.39253 0.0
H1927 H 0.38774 0.52457 0.06694 0.0
H1928 H 0.99108 0.15817 0.5364 0.0
H1929 H 0.99533 0.15776 0.64503 0.0
H1930 H 0.03602 0.13981 0.61445 0.0
H1931 H 0.0316 0.1396 0.50539 0.0
H1932 H 0.0234 0.12678 0.70488 0.0
H1933 H 0.03193 0.17443 0.65397 0.0
H1934 H 0.02698 0.19747 0.60889 0.0
H1935 H 0.99091 0.20182 0.72285 0.0
H1936 H 0.99552 0.1787 0.76799 0.0
H1937 H 0.04896 0.14012 1.00313 0.0
H1938 H 0.04532 0.14022 0.89342 0.0
H1939 H 0.00272 0.15345 0.91998 0.0
H1940 H 0.00635 0.15347 0.02993 0.0
H1941 H 0.01692 0.16902 0.83184 0.0
H1942 H 0.00881 0.12077 0.88141 0.0
H1943 H 0.01456 0.09792 0.92644 0.0
H1944 H 0.05114 0.09515 0.8146 0.0
H1945 H 0.04571 0.1181 0.76949 0.0
C1946 C 0.0009 0.15402 0.55251 0.0
C1947 C 0.01097 0.14889 0.51174 0.0
C1948 C 0.00339 0.15395 0.61484 0.0
C1949 C 0.01607 0.14893 0.63806 0.0
C1950 C 0.02617 0.14379 0.59764 0.0
C1951 C 0.02367 0.1438 0.53514 0.0
C1952 C 0.01861 0.14876 0.70457 0.0
C1953 C 0.0222 0.13607 0.73245 0.0
C1954 C 0.01679 0.16083 0.74089 0.0
C1955 C 0.014 0.17476 0.71398 0.0
C1956 C 0.02288 0.18025 0.66909 0.0
C1957 C 0.02014 0.19333 0.64357 0.0
C1958 C 0.00861 0.20108 0.66289 0.0
C1959 C -0.00018 0.19579 0.70788 0.0
C1960 C 0.0025 0.1827 0.73349 0.0
C1961 C 0.03882 0.14306 0.98558 0.0
C1962 C 0.02794 0.14678 0.02519 0.0
C1963 C 0.03674 0.14303 0.92293 0.0
C1964 C 0.02373 0.14678 0.89854 0.0
C1965 C 0.01283 0.1505 0.93789 0.0
C1966 C 0.01488 0.15039 1.00068 0.0
C1967 C 0.02162 0.14704 0.83191 0.0
C1968 C 0.01814 0.15975 0.8041 0.0
C1969 C 0.02367 0.13504 0.7956 0.0
C1970 C 0.02693 0.12122 0.82252 0.0
C1971 C 0.01815 0.11535 0.86679 0.0
C1972 C 0.02134 0.10237 0.89225 0.0
C1973 C 0.03323 0.09511 0.87351 0.0
C1974 C 0.04194 0.1008 0.82913 0.0
C1975 C 0.03881 0.11379 0.80357 0.0
H1976 H 0.03568 0.08505 0.89327 0.0
H1977 H 0.00651 0.21121 0.64312 0.0
H1978 H 0.31802 0.0122 0.10308 0.0
H1979 H 0.32134 0.0145 0.21241 0.0
H1980 H 0.36461 0.02506 0.18372 0.0
H1981 H 0.36139 0.02257 0.07414 0.0
H1982 H 0.3612 0.00549 0.2741 0.0
H1983 H 0.34164 0.05006 0.22137 0.0
H1984 H 0.32435 0.06599 0.17581 0.0
H1985 H 0.29234 0.04904 0.29049 0.0
H1986 H 0.30941 0.03287 0.33618 0.0
H1987 H 0.3771 0.0288 0.56948 0.0
H1988 H 0.37335 0.027 0.46086 0.0
H1989 H 0.32933 0.02052 0.49081 0.0
H1990 H 0.33288 0.02298 0.59989 0.0
H1991 H 0.33289 0.03784 0.39943 0.0
H1992 H 0.3518 0.99329 0.45218 0.0
H1993 H 0.3686 0.97685 0.49776 0.0
H1994 H 0.40113 0.99287 0.38332 0.0
H1995 H 0.38456 0.00955 0.33761 0.0
C1996 C 0.32825 0.01497 0.11997 0.0
C1997 C 0.33943 0.01719 0.07971 0.0
C1998 C 0.33011 0.01639 0.18253 0.0
C1999 C 0.3432 0.02005 0.20639 0.0
C2000 C 0.3544 0.02226 0.16639 0.0
C2001 C 0.35252 0.02094 0.1037 0.0
C2002 C 0.34524 0.02131 0.27308 0.0
C2003 C 0.35516 0.0127 0.30141 0.0
C2004 C 0.33705 0.03041 0.30906 0.0
C2005 C 0.32678 0.04015 0.28176 0.0
C2006 C 0.33089 0.04965 0.23652 0.0
C2007 C 0.32114 0.05874 0.21074 0.0
C2008 C 0.30725 0.0585 0.23012 0.0
C2009 C 0.3031 0.0492 0.27546 0.0
C2010 C 0.31281 0.04008 0.30135 0.0
C2011 C 0.36657 0.02712 0.55335 0.0
C2012 C 0.3553 0.02605 0.59412 0.0
C2013 C 0.36447 0.02592 0.49088 0.0
C2014 C 0.35108 0.0234 0.46734 0.0
C2015 C 0.33978 0.02239 0.50772 0.0
C2016 C 0.34186 0.02368 0.57034 0.0
C2017 C 0.3489 0.02204 0.40064 0.0
C2018 C 0.33894 0.0306 0.37225 0.0
C2019 C 0.35697 0.01281 0.36463 0.0
C2020 C 0.36696 0.00276 0.39187 0.0
C2021 C 0.36256 0.99338 0.43705 0.0
C2022 C 0.37204 0.984 0.46286 0.0
C2023 C 0.38593 0.98384 0.44356 0.0
C2024 C 0.39037 0.99302 0.39828 0.0
C2025 C 0.38093 0.00243 0.37236 0.0
H2026 H 0.39326 0.97657 0.4636 0.0
H2027 H 0.29971 0.06555 0.21012 0.0
H2028 H 0.50714 0.34121 0.60237 0.0
H2029 H 0.50306 0.34227 0.71117 0.0
H2030 H 0.45879 0.33769 0.68119 0.0
H2031 H 0.46284 0.33678 0.57163 0.0
H2032 H 0.46268 0.35653 0.76373 0.0
H2033 H 0.47932 0.31031 0.73673 0.0
H2034 H 0.49501 0.29164 0.70102 0.0
H2035 H 0.52856 0.30879 0.80642 0.0
H2036 H 0.51311 0.32768 0.84212 0.0
H2037 H 0.47012 0.32916 0.09963 0.0
H2038 H 0.47135 0.3248 0.99014 0.0
H2039 H 0.47805 0.36876 0.9588 0.0
H2040 H 0.47653 0.37314 0.06734 0.0
H2041 H 0.49016 0.32754 0.90692 0.0
H2042 H 0.46428 0.37949 0.82816 0.0
H2043 H 0.44641 0.3961 0.86401 0.0
H2044 H 0.4273 0.36372 0.97003 0.0
H2045 H 0.44494 0.34688 0.93418 0.0
C2046 C 0.49654 0.34026 0.61874 0.0
C2047 C 0.48534 0.33877 0.57797 0.0
C2048 C 0.49421 0.34086 0.68124 0.0
C2049 C 0.48063 0.33981 0.70489 0.0
C2050 C 0.46938 0.3385 0.66431 0.0
C2051 C 0.4717 0.33799 0.60157 0.0
C2052 C 0.47823 0.3404 0.77179 0.0
C2053 C 0.46868 0.35016 0.79493 0.0
C2054 C 0.48574 0.33184 0.81294 0.0
C2055 C 0.49508 0.32048 0.79172 0.0
C2056 C 0.49007 0.31016 0.75196 0.0
C2057 C 0.49892 0.29953 0.73177 0.0
C2058 C 0.51278 0.29904 0.75134 0.0
C2059 C 0.51782 0.30918 0.79126 0.0
C2060 C 0.50901 0.31985 0.81154 0.0
C2061 C 0.47189 0.33786 0.06927 0.0
C2062 C 0.47304 0.35152 0.0922 0.0
C2063 C 0.47257 0.33538 0.00666 0.0
C2064 C 0.4745 0.34648 0.96571 0.0
C2065 C 0.47613 0.36004 0.98893 0.0
C2066 C 0.47528 0.36254 0.05121 0.0
C2067 C 0.47494 0.34399 0.89884 0.0
C2068 C 0.48412 0.33387 0.87571 0.0
C2069 C 0.46679 0.35194 0.85768 0.0
C2070 C 0.45601 0.36195 0.87883 0.0
C2071 C 0.45623 0.3759 0.85888 0.0
C2072 C 0.44614 0.38536 0.87925 0.0
C2073 C 0.43575 0.38097 0.9194 0.0
C2074 C 0.43539 0.36711 0.93909 0.0
C2075 C 0.44543 0.35761 0.9188 0.0
H2076 H 0.42796 0.38831 0.93517 0.0
H2077 H 0.51962 0.2908 0.73566 0.0
H2078 H 0.15483 0.46101 0.03469 0.0
H2079 H 0.15283 0.4577 0.14448 0.0
H2080 H 0.1437 0.5014 0.16681 0.0
H2081 H 0.14532 0.50481 0.05739 0.0
H2082 H 0.16477 0.49069 0.24562 0.0
H2083 H 0.11834 0.48007 0.17894 0.0
H2084 H 0.09959 0.46816 0.12267 0.0
H2085 H 0.11178 0.4289 0.2004 0.0
H2086 H 0.13085 0.44052 0.25598 0.0
H2087 H 0.14751 0.48827 0.55685 0.0
H2088 H 0.14676 0.49244 0.44819 0.0
H2089 H 0.1466 0.44803 0.41567 0.0
H2090 H 0.14645 0.44373 0.52409 0.0
H2091 H 0.1296 0.45967 0.34099 0.0
H2092 H 0.17679 0.46896 0.40089 0.0
H2093 H 0.1956 0.48008 0.45997 0.0
H2094 H 0.18285 0.52041 0.39527 0.0
H2095 H 0.16384 0.50953 0.33641 0.0
C2096 C 0.15218 0.46988 0.06275 0.0
C2097 C 0.15018 0.48317 0.03697 0.0
C2098 C 0.15107 0.46796 0.12542 0.0
C2099 C 0.14796 0.47925 0.16349 0.0
C2100 C 0.14608 0.49254 0.13814 0.0
C2101 C 0.14709 0.49447 0.07553 0.0
C2102 C 0.14711 0.47727 0.23001 0.0
C2103 C 0.15697 0.48406 0.26664 0.0
C2104 C 0.13718 0.46828 0.25704 0.0
C2105 C 0.12614 0.46117 0.22124 0.0
C2106 C 0.11718 0.46887 0.18334 0.0
C2107 C 0.10644 0.46217 0.15177 0.0
C2108 C 0.10444 0.4478 0.15824 0.0
C2109 C 0.11327 0.44006 0.19581 0.0
C2110 C 0.12408 0.44669 0.22714 0.0
C2111 C 0.14711 0.47934 0.52699 0.0
C2112 C 0.14719 0.46562 0.55004 0.0
C2113 C 0.14686 0.48177 0.46449 0.0
C2114 C 0.14693 0.47056 0.42347 0.0
C2115 C 0.14665 0.45688 0.44624 0.0
C2116 C 0.14672 0.45444 0.50862 0.0
C2117 C 0.14735 0.473 0.35686 0.0
C2118 C 0.13743 0.4663 0.3201 0.0
C2119 C 0.15737 0.48188 0.32952 0.0
C2120 C 0.1688 0.48844 0.36476 0.0
C2121 C 0.17793 0.48021 0.39963 0.0
C2122 C 0.18864 0.48647 0.43301 0.0
C2123 C 0.19039 0.50095 0.43151 0.0
C2124 C 0.18146 0.5092 0.39647 0.0
C2125 C 0.17073 0.50299 0.36306 0.0
H2126 H 0.19869 0.50577 0.45738 0.0
H2127 H 0.09611 0.44264 0.13386 0.0
H2128 H 0.9895 0.65547 0.58514 0.0
H2129 H 0.99307 0.65601 0.47538 0.0
H2130 H 0.9516 0.63962 0.44816 0.0
H2131 H 0.94807 0.63881 0.55785 0.0
H2132 H 0.97052 0.62729 0.37267 0.0
H2133 H 0.95748 0.67377 0.43049 0.0
H2134 H 0.95914 0.69561 0.48913 0.0
H2135 H 0.00074 0.70222 0.4225 0.0
H2136 H 0.9994 0.68029 0.36413 0.0
H2137 H 0.96498 0.64311 0.05977 0.0
H2138 H 0.96088 0.64205 0.16853 0.0
H2139 H 0.00054 0.66201 0.20087 0.0
H2140 H 0.0044 0.66385 0.0923 0.0
H2141 H 0.98202 0.67243 0.27421 0.0
H2142 H 0.99531 0.62563 0.21824 0.0
H2143 H 0.99364 0.60377 0.15965 0.0
H2144 H 0.95163 0.59777 0.22238 0.0
H2145 H 0.953 0.61968 0.28097 0.0
C2146 C 0.98122 0.65179 0.55587 0.0
C2147 C 0.96847 0.64717 0.58026 0.0
C2148 C 0.98323 0.65222 0.4931 0.0
C2149 C 0.97253 0.64802 0.45351 0.0
C2150 C 0.95997 0.64297 0.47779 0.0
C2151 C 0.95794 0.64261 0.54047 0.0
C2152 C 0.97429 0.64922 0.38681 0.0
C2153 C 0.97288 0.63719 0.35102 0.0
C2154 C 0.97758 0.66208 0.35864 0.0
C2155 C 0.97839 0.67531 0.39343 0.0
C2156 C 0.96702 0.67982 0.42873 0.0
C2157 C 0.9679 0.69223 0.46185 0.0
C2158 C 0.98005 0.70028 0.45967 0.0
C2159 C 0.99134 0.69596 0.42422 0.0
C2160 C 0.99053 0.68355 0.39107 0.0
C2161 C 0.97279 0.64746 0.08968 0.0
C2162 C 0.98511 0.65349 0.06655 0.0
C2163 C 0.97048 0.64668 0.1522 0.0
C2164 C 0.98052 0.6517 0.19318 0.0
C2165 C 0.99267 0.65797 0.17032 0.0
C2166 C 0.99493 0.65888 0.10789 0.0
C2167 C 0.97842 0.65047 0.25985 0.0
C2168 C 0.9797 0.66251 0.29572 0.0
C2169 C 0.97503 0.63761 0.28808 0.0
C2170 C 0.97423 0.62435 0.25354 0.0
C2171 C 0.98569 0.61969 0.21929 0.0
C2172 C 0.9848 0.60728 0.18614 0.0
C2173 C 0.97252 0.59941 0.18721 0.0
C2174 C 0.96113 0.60389 0.22161 0.0
C2175 C 0.96196 0.61629 0.25486 0.0
H2176 H 0.97185 0.58981 0.16147 0.0
H2177 H 0.98071 0.70989 0.48534 0.0
H2178 H 0.85718 0.98159 0.09648 0.0
H2179 H 0.85672 0.985 0.98684 0.0
H2180 H 0.83189 0.94776 0.96645 0.0
H2181 H 0.83202 0.9444 0.0758 0.0
H2182 H 0.85328 0.94869 0.88431 0.0
H2183 H 0.81667 0.97851 0.9529 0.0
H2184 H 0.80597 0.9969 0.01572 0.0
H2185 H 0.83467 0.02704 0.94334 0.0
H2186 H 0.84569 0.00877 0.88072 0.0
H2187 H 0.83479 0.96078 0.57436 0.0
H2188 H 0.83408 0.95632 0.68356 0.0
H2189 H 0.85659 0.99464 0.71567 0.0
H2190 H 0.85719 0.99918 0.60695 0.0
H2191 H 0.83553 0.9925 0.79234 0.0
H2192 H 0.87177 0.96152 0.72062 0.0
H2193 H 0.88131 0.94252 0.65773 0.0
H2194 H 0.85232 0.91364 0.73712 0.0
H2195 H 0.84228 0.93256 0.79907 0.0
C2196 C 0.85148 0.97419 0.06894 0.0
C2197 C 0.84466 0.9627 0.09548 0.0
C2198 C 0.85128 0.97613 0.00612 0.0
C2199 C 0.84424 0.96665 0.96843 0.0
C2200 C 0.83747 0.95515 0.99458 0.0
C2201 C 0.83762 0.95322 0.05734 0.0
C2202 C 0.84392 0.96873 0.90172 0.0
C2203 C 0.84925 0.95819 0.86403 0.0
C2204 C 0.83879 0.98118 0.87542 0.0
C2205 C 0.8321 0.99224 0.91254 0.0
C2206 C 0.82077 0.98903 0.95071 0.0
C2207 C 0.81464 0.99944 0.98624 0.0
C2208 C 0.81966 0.01312 0.98364 0.0
C2209 C 0.8308 0.01643 0.94536 0.0
C2210 C 0.83699 0.00606 0.90979 0.0
C2211 C 0.83969 0.96818 0.60467 0.0
C2212 C 0.84603 0.98034 0.58186 0.0
C2213 C 0.83927 0.96563 0.66714 0.0
C2214 C 0.84539 0.97509 0.70801 0.0
C2215 C 0.85174 0.98721 0.68521 0.0
C2216 C 0.85206 0.98981 0.62295 0.0
C2217 C 0.84508 0.97253 0.77456 0.0
C2218 C 0.83959 0.98298 0.81238 0.0
C2219 C 0.84996 0.95993 0.80085 0.0
C2220 C 0.85615 0.94852 0.76399 0.0
C2221 C 0.86733 0.95116 0.72426 0.0
C2222 C 0.87282 0.94039 0.68872 0.0
C2223 C 0.86739 0.92689 0.69333 0.0
C2224 C 0.85648 0.92412 0.73349 0.0
C2225 C 0.85086 0.93487 0.7687 0.0
H2226 H 0.87165 0.91855 0.66594 0.0
H2227 H 0.8149 0.02117 0.01119 0.0
H2228 H 0.53196 0.82816 0.6267 0.0
H2229 H 0.52993 0.82346 0.51699 0.0
H2230 H 0.51281 0.86464 0.49011 0.0
H2231 H 0.5152 0.86943 0.59867 0.0
H2232 H 0.49817 0.83897 0.43131 0.0
H2233 H 0.54283 0.86387 0.45572 0.0
H2234 H 0.5663 0.86608 0.50074 0.0
H2235 H 0.57746 0.82576 0.43076 0.0
H2236 H 0.55397 0.82325 0.38603 0.0
H2237 H 0.49678 0.8567 0.12653 0.0
H2238 H 0.50033 0.85635 0.236 0.0
H2239 H 0.53288 0.82554 0.21434 0.0
H2240 H 0.52976 0.82658 0.10365 0.0
H2241 H 0.54023 0.84163 0.30046 0.0
H2242 H 0.49823 0.81711 0.26366 0.0
H2243 H 0.47486 0.81251 0.22135 0.0
H2244 H 0.45839 0.84786 0.31724 0.0
H2245 H 0.48171 0.8528 0.35947 0.0
C2246 C 0.52766 0.83609 0.59714 0.0
C2247 C 0.52377 0.84915 0.62073 0.0
C2248 C 0.52656 0.83345 0.53475 0.0
C2249 C 0.52125 0.84374 0.49558 0.0
C2250 C 0.51694 0.85658 0.51958 0.0
C2251 C 0.51834 0.85933 0.58139 0.0
C2252 C 0.52046 0.84144 0.42919 0.0
C2253 C 0.50733 0.83959 0.40249 0.0
C2254 C 0.53247 0.8417 0.39206 0.0
C2255 C 0.54662 0.84331 0.41817 0.0
C2256 C 0.55025 0.85543 0.45041 0.0
C2257 C 0.56356 0.85675 0.47576 0.0
C2258 C 0.57335 0.84605 0.46877 0.0
C2259 C 0.56986 0.83403 0.43622 0.0
C2260 C 0.55656 0.83266 0.41083 0.0
C2261 C 0.50473 0.84992 0.14528 0.0
C2262 C 0.51291 0.84157 0.10697 0.0
C2263 C 0.50669 0.84961 0.20792 0.0
C2264 C 0.51655 0.84055 0.23413 0.0
C2265 C 0.5251 0.83253 0.19559 0.0
C2266 C 0.52335 0.83311 0.13245 0.0
C2267 C 0.51779 0.83957 0.30157 0.0
C2268 C 0.53102 0.84078 0.32877 0.0
C2269 C 0.50584 0.83834 0.33937 0.0
C2270 C 0.49175 0.83538 0.31442 0.0
C2271 C 0.48964 0.82395 0.27545 0.0
C2272 C 0.4764 0.82128 0.2515 0.0
C2273 C 0.46515 0.8299 0.26651 0.0
C2274 C 0.46711 0.84119 0.30563 0.0
C2275 C 0.48034 0.84392 0.32966 0.0
H2276 H 0.45491 0.82781 0.24791 0.0
H2277 H 0.58365 0.84708 0.48844 0.0
H2278 H 0.64966 0.50857 0.04925 0.0
H2279 H 0.64963 0.5041 0.94059 0.0
H2280 H 0.6421 0.5478 0.9063 0.0
H2281 H 0.64125 0.55223 0.0146 0.0
H2282 H 0.6276 0.53342 0.83076 0.0
H2283 H 0.67545 0.53224 0.89484 0.0
H2284 H 0.69554 0.52438 0.95581 0.0
H2285 H 0.69 0.48251 0.89057 0.0
H2286 H 0.66974 0.49009 0.82981 0.0
H2287 H 0.65214 0.5372 0.52603 0.0
H2288 H 0.64926 0.53981 0.63563 0.0
H2289 H 0.65165 0.49519 0.65756 0.0
H2290 H 0.65441 0.49243 0.54825 0.0
H2291 H 0.66809 0.50907 0.73883 0.0
H2292 H 0.62094 0.51198 0.66607 0.0
H2293 H 0.60133 0.52105 0.60539 0.0
H2294 H 0.6063 0.56146 0.68675 0.0
H2295 H 0.6262 0.55274 0.74669 0.0
C2296 C 0.64777 0.51722 0.01892 0.0
C2297 C 0.64564 0.53083 0.04135 0.0
C2298 C 0.64792 0.51466 0.95647 0.0
C2299 C 0.64617 0.52566 0.91495 0.0
C2300 C 0.64358 0.53914 0.9372 0.0
C2301 C 0.64327 0.54168 0.99948 0.0
C2302 C 0.64725 0.52327 0.8484 0.0
C2303 C 0.63654 0.52824 0.81063 0.0
C2304 C 0.65879 0.51629 0.82197 0.0
C2305 C 0.67099 0.51171 0.85831 0.0
C2306 C 0.67845 0.52134 0.89385 0.0
C2307 C 0.68988 0.51694 0.92832 0.0
C2308 C 0.69402 0.50295 0.9272 0.0
C2309 C 0.68677 0.49334 0.89147 0.0
C2310 C 0.67532 0.49768 0.85699 0.0
C2311 C 0.65188 0.52792 0.55396 0.0
C2312 C 0.65348 0.51459 0.52806 0.0
C2313 C 0.65025 0.52945 0.61662 0.0
C2314 C 0.65007 0.51771 0.65466 0.0
C2315 C 0.65174 0.5044 0.62909 0.0
C2316 C 0.65338 0.50286 0.5665 0.0
C2317 C 0.64849 0.51932 0.72129 0.0
C2318 C 0.65913 0.51421 0.75901 0.0
C2319 C 0.63699 0.52639 0.7475 0.0
C2320 C 0.62517 0.53172 0.71053 0.0
C2321 C 0.61797 0.52284 0.67052 0.0
C2322 C 0.60678 0.52792 0.63631 0.0
C2323 C 0.60256 0.54182 0.64226 0.0
C2324 C 0.60954 0.55068 0.68236 0.0
C2325 C 0.62081 0.54569 0.71628 0.0
H2326 H 0.5939 0.54573 0.61573 0.0
H2327 H 0.70287 0.49956 0.95391 0.0
H2328 H 0.95606 0.83861 0.49899 0.0
H2329 H 0.95147 0.84096 0.38936 0.0
H2330 H 0.9955 0.84683 0.35747 0.0
H2331 H 9e-05 0.84421 0.46582 0.0
H2332 H 0.9765 0.86694 0.29906 0.0
H2333 H 0.98404 0.81697 0.33047 0.0
H2334 H 0.97822 0.79432 0.37734 0.0
H2335 H 0.93688 0.7965 0.30267 0.0
H2336 H 0.94239 0.8193 0.2562 0.0
H2337 H 0.99684 0.85875 1.00367 0.0
H2338 H 0.99379 0.85487 0.11203 0.0
H2339 H 0.95151 0.84109 0.0808 0.0
H2340 H 0.95478 0.84467 0.97088 0.0
H2341 H 0.96398 0.82603 0.17211 0.0
H2342 H 0.95697 0.87399 0.12823 0.0
H2343 H 0.96202 0.89687 0.08187 0.0
H2344 H 0.0005 0.89933 0.18113 0.0
H2345 H 0.99579 0.87636 0.22741 0.0
C2346 C 0.96469 0.84047 0.46831 0.0
C2347 C 0.97843 0.84114 0.49053 0.0
C2348 C 0.96208 0.84175 0.40597 0.0
C2349 C 0.97317 0.84401 0.36544 0.0
C2350 C 0.98682 0.84506 0.38798 0.0
C2351 C 0.98943 0.8435 0.44974 0.0
C2352 C 0.97086 0.84521 0.29922 0.0
C2353 C 0.97374 0.85802 0.27124 0.0
C2354 C 0.96679 0.83367 0.26328 0.0
C2355 C 0.96356 0.81992 0.29059 0.0
C2356 C 0.97366 0.81268 0.32456 0.0
C2357 C 0.97043 0.79981 0.35095 0.0
C2358 C 0.95717 0.794 0.34318 0.0
C2359 C 0.94713 0.80103 0.30879 0.0
C2360 C 0.9503 0.81392 0.28242 0.0
C2361 C 0.98695 0.85475 0.0199 0.0
C2362 C 0.97598 0.85218 0.97928 0.0
C2363 C 0.98519 0.85257 0.08179 0.0
C2364 C 0.97229 0.84808 0.10485 0.0
C2365 C 0.96151 0.8447 0.06409 0.0
C2366 C 0.96337 0.84671 1.00151 0.0
C2367 C 0.97015 0.84768 0.17164 0.0
C2368 C 0.96642 0.83506 0.1998 0.0
C2369 C 0.97325 0.85947 0.20806 0.0
C2370 C 0.97605 0.87341 0.18111 0.0
C2371 C 0.96655 0.87938 0.13997 0.0
C2372 C 0.96935 0.89236 0.11369 0.0
C2373 C 0.98158 0.89954 0.1285 0.0
C2374 C 0.99102 0.89376 0.16973 0.0
C2375 C 0.98828 0.88076 0.19607 0.0
H2376 H 0.98374 0.90959 0.10807 0.0
H2377 H 0.95469 0.78403 0.36367 0.0
H2378 H 0.66517 0.00934 0.86156 0.0
H2379 H 0.66533 0.00507 0.75303 0.0
H2380 H 0.65229 0.96256 0.78328 0.0
H2381 H 0.65166 0.96682 0.89253 0.0
H2382 H 0.67458 0.96559 0.6981 0.0
H2383 H 0.62884 0.98442 0.73654 0.0
H2384 H 0.6121 0.00154 0.77754 0.0
H2385 H 0.63051 0.03378 0.66842 0.0
H2386 H 0.6475 0.01689 0.62742 0.0
H2387 H 0.65632 0.94988 0.39541 0.0
H2388 H 0.65618 0.95339 0.50481 0.0
H2389 H 0.66342 0.99744 0.47869 0.0
H2390 H 0.66355 0.99398 0.36883 0.0
H2391 H 0.64389 0.99335 0.56267 0.0
H2392 H 0.69012 0.97611 0.52828 0.0
H2393 H 0.70806 0.9601 0.48838 0.0
H2394 H 0.6899 0.92615 0.58814 0.0
H2395 H 0.67189 0.94201 0.62903 0.0
C2396 C 0.66216 0.9991 0.84559 0.0
C2397 C 0.65824 0.98848 0.88635 0.0
C2398 C 0.66235 0.99667 0.78329 0.0
C2399 C 0.6587 0.98355 0.76012 0.0
C2400 C 0.65514 0.97278 0.80036 0.0
C2401 C 0.65483 0.97523 0.86289 0.0
C2402 C 0.65846 0.98123 0.69373 0.0
C2403 C 0.66772 0.97149 0.6685 0.0
C2404 C 0.64981 0.98925 0.6551 0.0
C2405 C 0.63953 0.99941 0.67933 0.0
C2406 C 0.62939 0.99518 0.72165 0.0
C2407 C 0.61984 0.00484 0.74482 0.0
C2408 C 0.62026 0.01875 0.72571 0.0
C2409 C 0.63021 0.02301 0.68324 0.0
C2410 C 0.63979 0.01339 0.65997 0.0
C2411 C 0.658 0.9603 0.41288 0.0
C2412 C 0.65999 0.97164 0.37331 0.0
C2413 C 0.65792 0.96229 0.47551 0.0
C2414 C 0.65998 0.97565 0.50008 0.0
C2415 C 0.66181 0.98704 0.46076 0.0
C2416 C 0.66183 0.98506 0.39796 0.0
C2417 C 0.66003 0.97771 0.56679 0.0
C2418 C 0.65074 0.98741 0.59215 0.0
C2419 C 0.66877 0.96978 0.60549 0.0
C2420 C 0.67959 0.96021 0.58126 0.0
C2421 C 0.68991 0.96521 0.54145 0.0
C2422 C 0.7001 0.95617 0.51875 0.0
C2423 C 0.70006 0.9421 0.53535 0.0
C2424 C 0.6899 0.93706 0.57519 0.0
C2425 C 0.67973 0.94608 0.59837 0.0
H2426 H 0.70793 0.9351 0.51751 0.0
H2427 H 0.61286 0.02621 0.74371 0.0
H2428 H 0.5075 0.66427 0.9056 0.0
H2429 H 0.50404 0.66446 0.01582 0.0
H2430 H 0.54577 0.64857 0.04108 0.0
H2431 H 0.54926 0.64841 0.93119 0.0
H2432 H 0.52555 0.6344 0.10926 0.0
H2433 H 0.54033 0.68149 0.06984 0.0
H2434 H 0.5396 0.70459 0.0205 0.0
H2435 H 0.4978 0.71089 0.08531 0.0
H2436 H 0.49824 0.68776 0.13463 0.0
H2437 H 0.53212 0.64608 0.42754 0.0
H2438 H 0.53608 0.64661 0.31791 0.0
H2439 H 0.49541 0.66487 0.29144 0.0
H2440 H 0.4915 0.66472 0.40048 0.0
H2441 H 0.51517 0.67779 0.22331 0.0
H2442 H 0.50024 0.63129 0.26464 0.0
H2443 H 0.49989 0.60769 0.30918 0.0
H2444 H 0.54072 0.59956 0.237 0.0
H2445 H 0.54146 0.62324 0.19315 0.0
C2446 C 0.51587 0.66074 0.93475 0.0
C2447 C 0.52864 0.65631 0.90995 0.0
C2448 C 0.51394 0.66095 0.99761 0.0
C2449 C 0.52469 0.65659 0.03659 0.0
C2450 C 0.53737 0.652 0.01182 0.0
C2451 C 0.53937 0.65198 0.94915 0.0
C2452 C 0.52269 0.65663 0.10324 0.0
C2453 C 0.5235 0.6439 0.1345 0.0
C2454 C 0.51962 0.66899 0.1356 0.0
C2455 C 0.51928 0.68284 0.1055 0.0
C2456 C 0.53094 0.68775 0.07317 0.0
C2457 C 0.5306 0.70087 0.04544 0.0
C2458 C 0.51867 0.70921 0.04987 0.0
C2459 C 0.50705 0.70443 0.08201 0.0
C2460 C 0.50734 0.69132 0.10995 0.0
C2461 C 0.52405 0.6503 0.39851 0.0
C2462 C 0.51141 0.6552 0.42309 0.0
C2463 C 0.52629 0.65047 0.33579 0.0
C2464 C 0.51595 0.65555 0.29642 0.0
C2465 C 0.5035 0.66079 0.32087 0.0
C2466 C 0.50123 0.66058 0.38338 0.0
C2467 C 0.5181 0.65553 0.22974 0.0
C2468 C 0.51729 0.66827 0.19835 0.0
C2469 C 0.52109 0.64313 0.1972 0.0
C2470 C 0.52098 0.62914 0.22628 0.0
C2471 C 0.50925 0.62457 0.25908 0.0
C2472 C 0.50894 0.61114 0.28393 0.0
C2473 C 0.52026 0.60212 0.27583 0.0
C2474 C 0.53193 0.60654 0.24306 0.0
C2475 C 0.53232 0.61998 0.21836 0.0
H2476 H 0.52 0.59173 0.2951 0.0
H2477 H 0.51842 0.71936 0.02829 0.0
H2478 H 0.86428 0.55207 0.51506 0.0
H2479 H 0.86181 0.54847 0.62369 0.0
H2480 H 0.84705 0.50658 0.59198 0.0
H2481 H 0.84965 0.51004 0.48269 0.0
H2482 H 0.83136 0.5199 0.67722 0.0
H2483 H 0.88024 0.51242 0.6413 0.0
H2484 H 0.90369 0.5183 0.60292 0.0
H2485 H 0.90457 0.55486 0.71539 0.0
H2486 H 0.88102 0.54931 0.75382 0.0
H2487 H 0.83698 0.49672 0.9817 0.0
H2488 H 0.83965 0.49946 0.87233 0.0
H2489 H 0.85695 0.54057 0.8993 0.0
H2490 H 0.85434 0.53787 0.00884 0.0
H2491 H 0.87146 0.52725 0.81584 0.0
H2492 H 0.82286 0.53554 0.85029 0.0
H2493 H 0.79918 0.53049 0.88828 0.0
H2494 H 0.79747 0.49349 0.77872 0.0
H2495 H 0.82124 0.49822 0.74068 0.0
C2496 C 0.86066 0.54201 0.53084 0.0
C2497 C 0.85732 0.5313 0.48956 0.0
C2498 C 0.85921 0.53999 0.59328 0.0
C2499 C 0.85443 0.52718 0.6163 0.0
C2500 C 0.85079 0.51655 0.57538 0.0
C2501 C 0.85225 0.51856 0.51274 0.0
C2502 C 0.85321 0.52498 0.68302 0.0
C2503 C 0.84018 0.52129 0.70744 0.0
C2504 C 0.86461 0.52718 0.72282 0.0
C2505 C 0.8788 0.53051 0.7 0.0
C2506 C 0.88538 0.52177 0.6575 0.0
C2507 C 0.8987 0.52504 0.63579 0.0
C2508 C 0.90559 0.53697 0.65658 0.0
C2509 C 0.8992 0.54564 0.69926 0.0
C2510 C 0.88587 0.54243 0.72106 0.0
C2511 C 0.84127 0.50638 0.96446 0.0
C2512 C 0.84538 0.51708 1.00436 0.0
C2513 C 0.84279 0.50795 0.90173 0.0
C2514 C 0.84831 0.52032 0.87718 0.0
C2515 C 0.85266 0.53092 0.91693 0.0
C2516 C 0.8512 0.52934 0.97973 0.0
C2517 C 0.8496 0.52217 0.81019 0.0
C2518 C 0.86264 0.52581 0.78569 0.0
C2519 C 0.83818 0.52004 0.77036 0.0
C2520 C 0.82389 0.51716 0.79314 0.0
C2521 C 0.81748 0.52626 0.83468 0.0
C2522 C 0.80404 0.52347 0.85615 0.0
C2523 C 0.79685 0.51166 0.83606 0.0
C2524 C 0.80307 0.50263 0.79432 0.0
C2525 C 0.81652 0.50536 0.77276 0.0
H2526 H 0.78643 0.50952 0.85272 0.0
H2527 H 0.91591 0.53948 0.63973 0.0
loop_
_geom_bond_atom_site_label_1
_geom_bond_atom_site_label_2
_geom_bond_distance
_geom_bond_site_symmetry_2
_ccdc_geom_bond_type
C0 C1 1.345 1_554 S
C0 N3 1.370 . S
C0 H5 0.930 1_455 S
C1 C0 1.345 1_556 S
C1 N2 1.373 . S
C1 H29 0.930 1_455 S
N2 C1 1.373 . S
N2 C4 1.340 . S
N3 C0 1.370 . S
N3 C4 1.321 1_554 S
N3 Co6 2.135 . S
C4 N2 1.340 . S
C4 N3 1.321 1_556 S
C4 H28 0.930 . S
H5 C0 0.930 1_655 S
Co6 N3 2.135 . S
Co6 N9 2.121 . S
Co6 O14 2.055 . S
Co6 O17 2.039 . S
Co6 N20 2.133 1_455 S
C7 O8 1.227 . S
C7 O17 1.265 . S
O8 C7 1.227 . S
N9 Co6 2.121 . S
N9 C11 1.375 . S
N9 C12 1.313 . S
C10 C11 1.338 . S
C10 N13 1.377 . S
C10 H30 0.930 . S
C11 N9 1.375 . S
C11 C10 1.338 . S
C11 H15 0.931 . S
C12 N9 1.313 . S
C12 N13 1.344 . S
C12 H16 0.930 . S
N13 C10 1.377 . S
N13 C12 1.344 . S
O14 Co6 2.055 . S
O14 C18 1.253 . S
H15 C11 0.931 . S
H16 C12 0.930 . S
O17 Co6 2.039 . S
O17 C7 1.265 . S
C18 O14 1.253 . S
C18 O19 1.227 . S
O19 C18 1.227 . S
N20 Co6 2.133 1_655 S
N20 C23 1.348 . S
N20 C24 1.350 . S
C21 C22 1.387 . S
C21 C25 1.391 . S
C22 C21 1.387 . S
C22 C23 1.369 . S
C22 H31 0.929 . S
C23 N20 1.348 . S
C23 C22 1.369 . S
C23 H26 0.928 1_655 S
C24 N20 1.350 . S
C24 C25 1.371 . S
C24 H27 0.931 . S
C25 C21 1.391 . S
C25 C24 1.371 . S
C25 H32 0.930 . S
H26 C23 0.928 1_455 S
H27 C24 0.931 . S
H28 C4 0.930 . S
H29 C1 0.930 1_655 S
H30 C10 0.930 . S
H31 C22 0.929 . S
H32 C25 0.930 . S
C33 C34 1.351 . S
C33 N36 1.368 . S
C33 H38 0.926 1_545 S
C34 C33 1.351 . S
C34 N35 1.373 . S
C34 H62 0.930 1_545 S
N35 C34 1.373 . S
N35 C37 1.340 . S
N36 C33 1.368 . S
N36 C37 1.321 . S
N36 Co39 2.135 . S
C37 N35 1.340 . S
C37 N36 1.321 . S
C37 H61 0.930 . S
H38 C33 0.926 1_565 S
Co39 N36 2.135 . S
Co39 N42 2.121 . S
Co39 O47 2.055 . S
Co39 O50 2.039 . S
Co39 N53 2.133 1_545 S
C40 O41 1.227 . S
C40 O50 1.265 . S
O41 C40 1.227 . S
N42 Co39 2.121 . S
N42 C44 1.375 . S
N42 C45 1.313 . S
C43 C44 1.338 . S
C43 N46 1.377 . S
C43 H63 0.930 . S
C44 N42 1.375 . S
C44 C43 1.338 . S
C44 H48 0.931 . S
C45 N42 1.313 . S
C45 N46 1.344 . S
C45 H49 0.930 . S
N46 C43 1.377 . S
N46 C45 1.344 . S
O47 Co39 2.055 . S
O47 C51 1.253 . S
H48 C44 0.931 . S
H49 C45 0.930 . S
O50 Co39 2.039 . S
O50 C40 1.265 . S
C51 O47 1.253 . S
C51 O52 1.227 . S
O52 C51 1.227 . S
N53 Co39 2.133 1_565 S
N53 C56 1.348 . S
N53 C57 1.350 . S
C54 C55 1.387 . S
C54 C58 1.391 . S
C55 C54 1.387 . S
C55 C56 1.369 . S
C55 H64 0.929 . S
C56 N53 1.348 . S
C56 C55 1.369 . S
C56 H59 0.928 1_565 S
C57 N53 1.350 . S
C57 C58 1.371 . S
C57 H60 0.931 . S
C58 C54 1.391 . S
C58 C57 1.371 . S
C58 H65 0.930 . S
H59 C56 0.928 1_545 S
H60 C57 0.931 . S
H61 C37 0.930 . S
H62 C34 0.930 1_565 S
H63 C43 0.930 . S
H64 C55 0.929 . S
H65 C58 0.930 . S
C66 C67 1.345 1_554 S
C66 N69 1.370 . S
C66 H71 0.934 . S
C67 C66 1.345 1_556 S
C67 N68 1.373 . S
C67 H95 0.930 . S
N68 C67 1.373 . S
N68 C70 1.340 . S
N69 C66 1.370 . S
N69 C70 1.321 1_554 S
N69 Co72 2.135 . S
C70 N68 1.340 . S
C70 N69 1.321 1_556 S
C70 H94 0.930 . S
H71 C66 0.934 . S
Co72 N69 2.135 . S
Co72 N75 2.121 . S
Co72 O80 2.055 . S
Co72 O83 2.039 . S
Co72 N86 2.140 . S
C73 O74 1.227 . S
C73 O83 1.265 . S
O74 C73 1.227 . S
N75 Co72 2.121 . S
N75 C77 1.375 . S
N75 C78 1.313 . S
C76 C77 1.338 . S
C76 N79 1.377 . S
C76 H96 0.930 . S
C77 N75 1.375 . S
C77 C76 1.338 . S
C77 H81 0.931 . S
C78 N75 1.313 . S
C78 N79 1.344 . S
C78 H82 0.930 . S
N79 C76 1.377 . S
N79 C78 1.344 . S
O80 Co72 2.055 . S
O80 C84 1.253 . S
H81 C77 0.931 . S
H82 C78 0.930 . S
O83 Co72 2.039 . S
O83 C73 1.265 . S
C84 O80 1.253 . S
C84 O85 1.227 . S
O85 C84 1.227 . S
N86 Co72 2.140 . S
N86 C89 1.346 . S
N86 C90 1.345 . S
C87 C88 1.387 . S
C87 C91 1.391 . S
C88 C87 1.387 . S
C88 C89 1.369 . S
C88 H97 0.929 . S
C89 N86 1.346 . S
C89 C88 1.369 . S
C89 H92 0.928 . S
C90 N86 1.345 . S
C90 C91 1.371 . S
C90 H93 0.931 . S
C91 C87 1.391 . S
C91 C90 1.371 . S
C91 H98 0.930 . S
H92 C89 0.928 . S
H93 C90 0.931 . S
H94 C70 0.930 . S
H95 C67 0.930 . S
H96 C76 0.930 . S
H97 C88 0.929 . S
H98 C91 0.930 . S
C99 C100 1.351 . S
C99 N102 1.368 . S
C99 H104 0.931 . S
C100 C99 1.351 . S
C100 N101 1.373 . S
C100 H128 0.930 . S
N101 C100 1.373 . S
N101 C103 1.340 . S
N102 C99 1.368 . S
N102 C103 1.321 . S
N102 Co105 2.135 . S
C103 N101 1.340 . S
C103 N102 1.321 . S
C103 H127 0.930 . S
H104 C99 0.931 . S
Co105 N102 2.135 . S
Co105 N108 2.121 . S
Co105 O113 2.055 . S
Co105 O116 2.039 . S
Co105 N119 2.140 . S
C106 O107 1.227 . S
C106 O116 1.265 . S
O107 C106 1.227 . S
N108 Co105 2.121 . S
N108 C110 1.375 . S
N108 C111 1.313 . S
C109 C110 1.338 . S
C109 N112 1.377 . S
C109 H129 0.930 . S
C110 N108 1.375 . S
C110 C109 1.338 . S
C110 H114 0.931 . S
C111 N108 1.313 . S
C111 N112 1.344 . S
C111 H115 0.930 . S
N112 C109 1.377 . S
N112 C111 1.344 . S
O113 Co105 2.055 . S
O113 C117 1.253 . S
H114 C110 0.931 . S
H115 C111 0.930 . S
O116 Co105 2.039 . S
O116 C106 1.265 . S
C117 O113 1.253 . S
C117 O118 1.227 . S
O118 C117 1.227 . S
N119 Co105 2.140 . S
N119 C122 1.346 . S
N119 C123 1.345 . S
C120 C121 1.387 . S
C120 C124 1.391 . S
C121 C120 1.387 . S
C121 C122 1.369 . S
C121 H130 0.929 . S
C122 N119 1.346 . S
C122 C121 1.369 . S
C122 H125 0.928 . S
C123 N119 1.345 . S
C123 C124 1.371 . S
C123 H126 0.931 . S
C124 C120 1.391 . S
C124 C123 1.371 . S
C124 H131 0.930 . S
H125 C122 0.928 . S
H126 C123 0.931 . S
H127 C103 0.930 . S
H128 C100 0.930 . S
H129 C109 0.930 . S
H130 C121 0.929 . S
H131 C124 0.930 . S
C132 C133 1.351 . S
C132 N135 1.368 . S
C132 H137 0.926 1_455 S
C133 C132 1.351 . S
C133 N134 1.373 . S
C133 H161 0.930 1_455 S
N134 C133 1.373 . S
N134 C136 1.340 . S
N135 C132 1.368 . S
N135 C136 1.321 . S
N135 Co138 2.135 . S
C136 N134 1.340 . S
C136 N135 1.321 . S
C136 H160 0.930 . S
H137 C132 0.926 1_655 S
Co138 N135 2.135 . S
Co138 N141 2.121 . S
Co138 O146 2.055 . S
Co138 O149 2.039 . S
Co138 N152 2.133 1_455 S
C139 O140 1.227 . S
C139 O149 1.265 . S
O140 C139 1.227 . S
N141 Co138 2.121 . S
N141 C143 1.375 . S
N141 C144 1.313 . S
C142 C143 1.338 . S
C142 N145 1.377 . S
C142 H162 0.930 . S
C143 N141 1.375 . S
C143 C142 1.338 . S
C143 H147 0.931 . S
C144 N141 1.313 . S
C144 N145 1.344 . S
C144 H148 0.930 . S
N145 C142 1.377 . S
N145 C144 1.344 . S
O146 Co138 2.055 . S
O146 C150 1.253 . S
H147 C143 0.931 . S
H148 C144 0.930 . S
O149 Co138 2.039 . S
O149 C139 1.265 . S
C150 O146 1.253 . S
C150 O151 1.227 . S
O151 C150 1.227 . S
N152 Co138 2.133 1_655 S
N152 C155 1.348 . S
N152 C156 1.350 . S
C153 C154 1.387 . S
C153 C157 1.391 . S
C154 C153 1.387 . S
C154 C155 1.369 . S
C154 H163 0.929 . S
C155 N152 1.348 . S
C155 C154 1.369 . S
C155 H158 0.928 1_655 S
C156 N152 1.350 . S
C156 C157 1.371 . S
C156 H159 0.931 . S
C157 C153 1.391 . S
C157 C156 1.371 . S
C157 H164 0.930 . S
H158 C155 0.928 1_455 S
H159 C156 0.931 . S
H160 C136 0.930 . S
H161 C133 0.930 1_655 S
H162 C142 0.930 . S
H163 C154 0.929 . S
H164 C157 0.930 . S
C165 C166 1.345 1_556 S
C165 N168 1.370 . S
C165 H170 0.930 1_545 S
C166 C165 1.345 1_554 S
C166 N167 1.373 . S
C166 H194 0.930 1_545 S
N167 C166 1.373 . S
N167 C169 1.340 . S
N168 C165 1.370 . S
N168 C169 1.321 1_556 S
N168 Co171 2.135 . S
C169 N167 1.340 . S
C169 N168 1.321 1_554 S
C169 H193 0.930 . S
H170 C165 0.930 1_565 S
Co171 N168 2.135 . S
Co171 N174 2.121 . S
Co171 O179 2.055 . S
Co171 O182 2.039 . S
Co171 N185 2.133 1_545 S
C172 O173 1.227 . S
C172 O182 1.265 . S
O173 C172 1.227 . S
N174 Co171 2.121 . S
N174 C176 1.375 . S
N174 C177 1.313 . S
C175 C176 1.338 . S
C175 N178 1.377 . S
C175 H195 0.930 . S
C176 N174 1.375 . S
C176 C175 1.338 . S
C176 H180 0.931 . S
C177 N174 1.313 . S
C177 N178 1.344 . S
C177 H181 0.930 . S
N178 C175 1.377 . S
N178 C177 1.344 . S
O179 Co171 2.055 . S
O179 C183 1.253 . S
H180 C176 0.931 . S
H181 C177 0.930 . S
O182 Co171 2.039 . S
O182 C172 1.265 . S
C183 O179 1.253 . S
C183 O184 1.227 . S
O184 C183 1.227 . S
N185 Co171 2.133 1_565 S
N185 C188 1.348 . S
N185 C189 1.350 . S
C186 C187 1.387 . S
C186 C190 1.391 . S
C187 C186 1.387 . S
C187 C188 1.369 . S
C187 H196 0.929 . S
C188 N185 1.348 . S
C188 C187 1.369 . S
C188 H191 0.928 1_565 S
C189 N185 1.350 . S
C189 C190 1.371 . S
C189 H192 0.931 . S
C190 C186 1.391 . S
C190 C189 1.371 . S
C190 H197 0.930 . S
H191 C188 0.928 1_545 S
H192 C189 0.931 . S
H193 C169 0.930 . S
H194 C166 0.930 1_565 S
H195 C175 0.930 . S
H196 C187 0.929 . S
H197 C190 0.930 . S
C198 C199 1.351 . S
C198 N201 1.368 . S
C198 H203 0.931 . S
C199 C198 1.351 . S
C199 N200 1.373 . S
C199 H227 0.930 . S
N200 C199 1.373 . S
N200 C202 1.340 . S
N201 C198 1.368 . S
N201 C202 1.321 . S
N201 Co204 2.135 . S
C202 N200 1.340 . S
C202 N201 1.321 . S
C202 H226 0.930 . S
H203 C198 0.931 . S
Co204 N201 2.135 . S
Co204 N207 2.121 . S
Co204 O212 2.055 . S
Co204 O215 2.039 . S
Co204 N218 2.140 . S
C205 O206 1.227 . S
C205 O215 1.265 . S
O206 C205 1.227 . S
N207 Co204 2.121 . S
N207 C209 1.375 . S
N207 C210 1.313 . S
C208 C209 1.338 . S
C208 N211 1.377 . S
C208 H228 0.930 . S
C209 N207 1.375 . S
C209 C208 1.338 . S
C209 H213 0.931 . S
C210 N207 1.313 . S
C210 N211 1.344 . S
C210 H214 0.930 . S
N211 C208 1.377 . S
N211 C210 1.344 . S
O212 Co204 2.055 . S
O212 C216 1.253 . S
H213 C209 0.931 . S
H214 C210 0.930 . S
O215 Co204 2.039 . S
O215 C205 1.265 . S
C216 O212 1.253 . S
C216 O217 1.227 . S
O217 C216 1.227 . S
N218 Co204 2.140 . S
N218 C221 1.346 . S
N218 C222 1.345 . S
C219 C220 1.387 . S
C219 C223 1.391 . S
C220 C219 1.387 . S
C220 C221 1.369 . S
C220 H229 0.929 . S
C221 N218 1.346 . S
C221 C220 1.369 . S
C221 H224 0.928 . S
C222 N218 1.345 . S
C222 C223 1.371 . S
C222 H225 0.931 . S
C223 C219 1.391 . S
C223 C222 1.371 . S
C223 H230 0.930 . S
H224 C221 0.928 . S
H225 C222 0.931 . S
H226 C202 0.930 . S
H227 C199 0.930 . S
H228 C208 0.930 . S
H229 C220 0.929 . S
H230 C223 0.930 . S
C231 C232 1.345 1_556 S
C231 N234 1.370 . S
C231 H236 0.934 . S
C232 C231 1.345 1_554 S
C232 N233 1.373 . S
C232 H260 0.930 . S
N233 C232 1.373 . S
N233 C235 1.340 . S
N234 C231 1.370 . S
N234 C235 1.321 1_556 S
N234 Co237 2.135 . S
C235 N233 1.340 . S
C235 N234 1.321 1_554 S
C235 H259 0.930 . S
H236 C231 0.934 . S
Co237 N234 2.135 . S
Co237 N240 2.121 . S
Co237 O245 2.055 . S
Co237 O248 2.039 . S
Co237 N251 2.140 . S
C238 O239 1.227 . S
C238 O248 1.265 . S
O239 C238 1.227 . S
N240 Co237 2.121 . S
N240 C242 1.375 . S
N240 C243 1.313 . S
C241 C242 1.338 . S
C241 N244 1.377 . S
C241 H261 0.930 . S
C242 N240 1.375 . S
C242 C241 1.338 . S
C242 H246 0.931 . S
C243 N240 1.313 . S
C243 N244 1.344 . S
C243 H247 0.930 . S
N244 C241 1.377 . S
N244 C243 1.344 . S
O245 Co237 2.055 . S
O245 C249 1.253 . S
H246 C242 0.931 . S
H247 C243 0.930 . S
O248 Co237 2.039 . S
O248 C238 1.265 . S
C249 O245 1.253 . S
C249 O250 1.227 . S
O250 C249 1.227 . S
N251 Co237 2.140 . S
N251 C254 1.346 . S
N251 C255 1.345 . S
C252 C253 1.387 . S
C252 C256 1.391 . S
C253 C252 1.387 . S
C253 C254 1.369 . S
C253 H262 0.929 . S
C254 N251 1.346 . S
C254 C253 1.369 . S
C254 H257 0.928 . S
C255 N251 1.345 . S
C255 C256 1.371 . S
C255 H258 0.931 . S
C256 C252 1.391 . S
C256 C255 1.371 . S
C256 H263 0.930 . S
H257 C254 0.928 . S
H258 C255 0.931 . S
H259 C235 0.930 . S
H260 C232 0.930 . S
H261 C241 0.930 . S
H262 C253 0.929 . S
H263 C256 0.930 . S
C264 C265 1.345 1_556 S
C264 N267 1.370 . S
C264 H269 0.930 1_655 S
C265 C264 1.345 1_554 S
C265 N266 1.373 . S
C265 H293 0.930 1_655 S
N266 C265 1.373 . S
N266 C268 1.340 . S
N267 C264 1.370 . S
N267 C268 1.321 1_556 S
N267 Co270 2.135 . S
C268 N266 1.340 . S
C268 N267 1.321 1_554 S
C268 H292 0.930 . S
H269 C264 0.930 1_455 S
Co270 N267 2.135 . S
Co270 N273 2.121 . S
Co270 O278 2.055 . S
Co270 O281 2.039 . S
Co270 N284 2.133 1_655 S
C271 O272 1.227 . S
C271 O281 1.265 . S
O272 C271 1.227 . S
N273 Co270 2.121 . S
N273 C275 1.375 . S
N273 C276 1.313 . S
C274 C275 1.338 . S
C274 N277 1.377 . S
C274 H294 0.930 . S
C275 N273 1.375 . S
C275 C274 1.338 . S
C275 H279 0.931 . S
C276 N273 1.313 . S
C276 N277 1.344 . S
C276 H280 0.930 . S
N277 C274 1.377 . S
N277 C276 1.344 . S
O278 Co270 2.055 . S
O278 C282 1.253 . S
H279 C275 0.931 . S
H280 C276 0.930 . S
O281 Co270 2.039 . S
O281 C271 1.265 . S
C282 O278 1.253 . S
C282 O283 1.227 . S
O283 C282 1.227 . S
N284 Co270 2.133 1_455 S
N284 C287 1.348 . S
N284 C288 1.350 . S
C285 C286 1.387 . S
C285 C289 1.391 . S
C286 C285 1.387 . S
C286 C287 1.369 . S
C286 H295 0.929 . S
C287 N284 1.348 . S
C287 C286 1.369 . S
C287 H290 0.928 1_455 S
C288 N284 1.350 . S
C288 C289 1.371 . S
C288 H291 0.931 . S
C289 C285 1.391 . S
C289 C288 1.371 . S
C289 H296 0.930 . S
H290 C287 0.928 1_655 S
H291 C288 0.931 . S
H292 C268 0.930 . S
H293 C265 0.930 1_455 S
H294 C274 0.930 . S
H295 C286 0.929 . S
H296 C289 0.930 . S
C297 C298 1.351 . S
C297 N300 1.368 . S
C297 H302 0.926 1_565 S
C298 C297 1.351 . S
C298 N299 1.373 . S
C298 H326 0.930 1_565 S
N299 C298 1.373 . S
N299 C301 1.340 . S
N300 C297 1.368 . S
N300 C301 1.321 . S
N300 Co303 2.135 . S
C301 N299 1.340 . S
C301 N300 1.321 . S
C301 H325 0.930 . S
H302 C297 0.926 1_545 S
Co303 N300 2.135 . S
Co303 N306 2.121 . S
Co303 O311 2.055 . S
Co303 O314 2.039 . S
Co303 N317 2.133 1_565 S
C304 O305 1.227 . S
C304 O314 1.265 . S
O305 C304 1.227 . S
N306 Co303 2.121 . S
N306 C308 1.375 . S
N306 C309 1.313 . S
C307 C308 1.338 . S
C307 N310 1.377 . S
C307 H327 0.930 . S
C308 N306 1.375 . S
C308 C307 1.338 . S
C308 H312 0.931 . S
C309 N306 1.313 . S
C309 N310 1.344 . S
C309 H313 0.930 . S
N310 C307 1.377 . S
N310 C309 1.344 . S
O311 Co303 2.055 . S
O311 C315 1.253 . S
H312 C308 0.931 . S
H313 C309 0.930 . S
O314 Co303 2.039 . S
O314 C304 1.265 . S
C315 O311 1.253 . S
C315 O316 1.227 . S
O316 C315 1.227 . S
N317 Co303 2.133 1_545 S
N317 C320 1.348 . S
N317 C321 1.350 . S
C318 C319 1.387 . S
C318 C322 1.391 . S
C319 C318 1.387 . S
C319 C320 1.369 . S
C319 H328 0.929 . S
C320 N317 1.348 . S
C320 C319 1.369 . S
C320 H323 0.928 1_545 S
C321 N317 1.350 . S
C321 C322 1.371 . S
C321 H324 0.931 . S
C322 C318 1.391 . S
C322 C321 1.371 . S
C322 H329 0.930 . S
H323 C320 0.928 1_565 S
H324 C321 0.931 . S
H325 C301 0.930 . S
H326 C298 0.930 1_545 S
H327 C307 0.930 . S
H328 C319 0.929 . S
H329 C322 0.930 . S
C330 C331 1.345 1_556 S
C330 N333 1.370 . S
C330 H335 0.934 . S
C331 C330 1.345 1_554 S
C331 N332 1.373 . S
C331 H359 0.930 . S
N332 C331 1.373 . S
N332 C334 1.340 . S
N333 C330 1.370 . S
N333 C334 1.321 1_556 S
N333 Co336 2.135 . S
C334 N332 1.340 . S
C334 N333 1.321 1_554 S
C334 H358 0.930 . S
H335 C330 0.934 . S
Co336 N333 2.135 . S
Co336 N339 2.121 . S
Co336 O344 2.055 . S
Co336 O347 2.039 . S
Co336 N350 2.140 . S
C337 O338 1.227 . S
C337 O347 1.265 . S
O338 C337 1.227 . S
N339 Co336 2.121 . S
N339 C341 1.375 . S
N339 C342 1.313 . S
C340 C341 1.338 . S
C340 N343 1.377 . S
C340 H360 0.930 . S
C341 N339 1.375 . S
C341 C340 1.338 . S
C341 H345 0.931 . S
C342 N339 1.313 . S
C342 N343 1.344 . S
C342 H346 0.930 . S
N343 C340 1.377 . S
N343 C342 1.344 . S
O344 Co336 2.055 . S
O344 C348 1.253 . S
H345 C341 0.931 . S
H346 C342 0.930 . S
O347 Co336 2.039 . S
O347 C337 1.265 . S
C348 O344 1.253 . S
C348 O349 1.227 . S
O349 C348 1.227 . S
N350 Co336 2.140 . S
N350 C353 1.346 . S
N350 C354 1.345 . S
C351 C352 1.387 . S
C351 C355 1.391 . S
C352 C351 1.387 . S
C352 C353 1.369 . S
C352 H361 0.929 . S
C353 N350 1.346 . S
C353 C352 1.369 . S
C353 H356 0.928 . S
C354 N350 1.345 . S
C354 C355 1.371 . S
C354 H357 0.931 . S
C355 C351 1.391 . S
C355 C354 1.371 . S
C355 H362 0.930 . S
H356 C353 0.928 . S
H357 C354 0.931 . S
H358 C334 0.930 . S
H359 C331 0.930 . S
H360 C340 0.930 . S
H361 C352 0.929 . S
H362 C355 0.930 . S
C363 C364 1.351 . S
C363 N366 1.368 . S
C363 H368 0.931 . S
C364 C363 1.351 . S
C364 N365 1.373 . S
C364 H392 0.930 . S
N365 C364 1.373 . S
N365 C367 1.340 . S
N366 C363 1.368 . S
N366 C367 1.321 . S
N366 Co369 2.135 . S
C367 N365 1.340 . S
C367 N366 1.321 . S
C367 H391 0.930 . S
H368 C363 0.931 . S
Co369 N366 2.135 . S
Co369 N372 2.121 . S
Co369 O377 2.055 . S
Co369 O380 2.039 . S
Co369 N383 2.140 . S
C370 O371 1.227 . S
C370 O380 1.265 . S
O371 C370 1.227 . S
N372 Co369 2.121 . S
N372 C374 1.375 . S
N372 C375 1.313 . S
C373 C374 1.338 . S
C373 N376 1.377 . S
C373 H393 0.930 . S
C374 N372 1.375 . S
C374 C373 1.338 . S
C374 H378 0.931 . S
C375 N372 1.313 . S
C375 N376 1.344 . S
C375 H379 0.930 . S
N376 C373 1.377 . S
N376 C375 1.344 . S
O377 Co369 2.055 . S
O377 C381 1.253 . S
H378 C374 0.931 . S
H379 C375 0.930 . S
O380 Co369 2.039 . S
O380 C370 1.265 . S
C381 O377 1.253 . S
C381 O382 1.227 . S
O382 C381 1.227 . S
N383 Co369 2.140 . S
N383 C386 1.346 . S
N383 C387 1.345 . S
C384 C385 1.387 . S
C384 C388 1.391 . S
C385 C384 1.387 . S
C385 C386 1.369 . S
C385 H394 0.929 . S
C386 N383 1.346 . S
C386 C385 1.369 . S
C386 H389 0.928 . S
C387 N383 1.345 . S
C387 C388 1.371 . S
C387 H390 0.931 . S
C388 C384 1.391 . S
C388 C387 1.371 . S
C388 H395 0.930 . S
H389 C386 0.928 . S
H390 C387 0.931 . S
H391 C367 0.930 . S
H392 C364 0.930 . S
H393 C373 0.930 . S
H394 C385 0.929 . S
H395 C388 0.930 . S
C396 C397 1.351 . S
C396 N399 1.368 . S
C396 H401 0.926 1_655 S
C397 C396 1.351 . S
C397 N398 1.373 . S
C397 H425 0.930 1_655 S
N398 C397 1.373 . S
N398 C400 1.340 . S
N399 C396 1.368 . S
N399 C400 1.321 . S
N399 Co402 2.135 . S
C400 N398 1.340 . S
C400 N399 1.321 . S
C400 H424 0.930 . S
H401 C396 0.926 1_455 S
Co402 N399 2.135 . S
Co402 N405 2.121 . S
Co402 O410 2.055 . S
Co402 O413 2.039 . S
Co402 N416 2.133 1_655 S
C403 O404 1.227 . S
C403 O413 1.265 . S
O404 C403 1.227 . S
N405 Co402 2.121 . S
N405 C407 1.375 . S
N405 C408 1.313 . S
C406 C407 1.338 . S
C406 N409 1.377 . S
C406 H426 0.930 . S
C407 N405 1.375 . S
C407 C406 1.338 . S
C407 H411 0.931 . S
C408 N405 1.313 . S
C408 N409 1.344 . S
C408 H412 0.930 . S
N409 C406 1.377 . S
N409 C408 1.344 . S
O410 Co402 2.055 . S
O410 C414 1.253 . S
H411 C407 0.931 . S
H412 C408 0.930 . S
O413 Co402 2.039 . S
O413 C403 1.265 . S
C414 O410 1.253 . S
C414 O415 1.227 . S
O415 C414 1.227 . S
N416 Co402 2.133 1_455 S
N416 C419 1.348 . S
N416 C420 1.350 . S
C417 C418 1.387 . S
C417 C421 1.391 . S
C418 C417 1.387 . S
C418 C419 1.369 . S
C418 H427 0.929 . S
C419 N416 1.348 . S
C419 C418 1.369 . S
C419 H422 0.928 1_455 S
C420 N416 1.350 . S
C420 C421 1.371 . S
C420 H423 0.931 . S
C421 C417 1.391 . S
C421 C420 1.371 . S
C421 H428 0.930 . S
H422 C419 0.928 1_655 S
H423 C420 0.931 . S
H424 C400 0.930 . S
H425 C397 0.930 1_455 S
H426 C406 0.930 . S
H427 C418 0.929 . S
H428 C421 0.930 . S
C429 C430 1.345 1_554 S
C429 N432 1.370 . S
C429 H434 0.930 1_565 S
C430 C429 1.345 1_556 S
C430 N431 1.373 . S
C430 H458 0.930 1_565 S
N431 C430 1.373 . S
N431 C433 1.340 . S
N432 C429 1.370 . S
N432 C433 1.321 1_554 S
N432 Co435 2.135 . S
C433 N431 1.340 . S
C433 N432 1.321 1_556 S
C433 H457 0.930 . S
H434 C429 0.930 1_545 S
Co435 N432 2.135 . S
Co435 N438 2.121 . S
Co435 O443 2.055 . S
Co435 O446 2.039 . S
Co435 N449 2.133 1_565 S
C436 O437 1.227 . S
C436 O446 1.265 . S
O437 C436 1.227 . S
N438 Co435 2.121 . S
N438 C440 1.375 . S
N438 C441 1.313 . S
C439 C440 1.338 . S
C439 N442 1.377 . S
C439 H459 0.930 . S
C440 N438 1.375 . S
C440 C439 1.338 . S
C440 H444 0.931 . S
C441 N438 1.313 . S
C441 N442 1.344 . S
C441 H445 0.930 . S
N442 C439 1.377 . S
N442 C441 1.344 . S
O443 Co435 2.055 . S
O443 C447 1.253 . S
H444 C440 0.931 . S
H445 C441 0.930 . S
O446 Co435 2.039 . S
O446 C436 1.265 . S
C447 O443 1.253 . S
C447 O448 1.227 . S
O448 C447 1.227 . S
N449 Co435 2.133 1_545 S
N449 C452 1.348 . S
N449 C453 1.350 . S
C450 C451 1.387 . S
C450 C454 1.391 . S
C451 C450 1.387 . S
C451 C452 1.369 . S
C451 H460 0.929 . S
C452 N449 1.348 . S
C452 C451 1.369 . S
C452 H455 0.928 1_545 S
C453 N449 1.350 . S
C453 C454 1.371 . S
C453 H456 0.931 . S
C454 C450 1.391 . S
C454 C453 1.371 . S
C454 H461 0.930 . S
H455 C452 0.928 1_565 S
H456 C453 0.931 . S
H457 C433 0.930 . S
H458 C430 0.930 1_545 S
H459 C439 0.930 . S
H460 C451 0.929 . S
H461 C454 0.930 . S
C462 C463 1.351 . S
C462 N465 1.368 . S
C462 H467 0.931 . S
C463 C462 1.351 . S
C463 N464 1.373 . S
C463 H491 0.930 . S
N464 C463 1.373 . S
N464 C466 1.340 . S
N465 C462 1.368 . S
N465 C466 1.321 . S
N465 Co468 2.135 . S
C466 N464 1.340 . S
C466 N465 1.321 . S
C466 H490 0.930 . S
H467 C462 0.931 . S
Co468 N465 2.135 . S
Co468 N471 2.121 . S
Co468 O476 2.055 . S
Co468 O479 2.039 . S
Co468 N482 2.140 . S
C469 O470 1.227 . S
C469 O479 1.265 . S
O470 C469 1.227 . S
N471 Co468 2.121 . S
N471 C473 1.375 . S
N471 C474 1.313 . S
C472 C473 1.338 . S
C472 N475 1.377 . S
C472 H492 0.930 . S
C473 N471 1.375 . S
C473 C472 1.338 . S
C473 H477 0.931 . S
C474 N471 1.313 . S
C474 N475 1.344 . S
C474 H478 0.930 . S
N475 C472 1.377 . S
N475 C474 1.344 . S
O476 Co468 2.055 . S
O476 C480 1.253 . S
H477 C473 0.931 . S
H478 C474 0.930 . S
O479 Co468 2.039 . S
O479 C469 1.265 . S
C480 O476 1.253 . S
C480 O481 1.227 . S
O481 C480 1.227 . S
N482 Co468 2.140 . S
N482 C485 1.346 . S
N482 C486 1.345 . S
C483 C484 1.387 . S
C483 C487 1.391 . S
C484 C483 1.387 . S
C484 C485 1.369 . S
C484 H493 0.929 . S
C485 N482 1.346 . S
C485 C484 1.369 . S
C485 H488 0.928 . S
C486 N482 1.345 . S
C486 C487 1.371 . S
C486 H489 0.931 . S
C487 C483 1.391 . S
C487 C486 1.371 . S
C487 H494 0.930 . S
H488 C485 0.928 . S
H489 C486 0.931 . S
H490 C466 0.930 . S
H491 C463 0.930 . S
H492 C472 0.930 . S
H493 C484 0.929 . S
H494 C487 0.930 . S
C495 C496 1.345 1_554 S
C495 N498 1.370 . S
C495 H500 0.934 . S
C496 C495 1.345 1_556 S
C496 N497 1.373 . S
C496 H524 0.930 . S
N497 C496 1.373 . S
N497 C499 1.340 . S
N498 C495 1.370 . S
N498 C499 1.321 1_554 S
N498 Co501 2.135 . S
C499 N497 1.340 . S
C499 N498 1.321 1_556 S
C499 H523 0.930 . S
H500 C495 0.934 . S
Co501 N498 2.135 . S
Co501 N504 2.121 . S
Co501 O509 2.055 . S
Co501 O512 2.039 . S
Co501 N515 2.140 . S
C502 O503 1.227 . S
C502 O512 1.265 . S
O503 C502 1.227 . S
N504 Co501 2.121 . S
N504 C506 1.375 . S
N504 C507 1.313 . S
C505 C506 1.338 . S
C505 N508 1.377 . S
C505 H525 0.930 . S
C506 N504 1.375 . S
C506 C505 1.338 . S
C506 H510 0.931 . S
C507 N504 1.313 . S
C507 N508 1.344 . S
C507 H511 0.930 . S
N508 C505 1.377 . S
N508 C507 1.344 . S
O509 Co501 2.055 . S
O509 C513 1.253 . S
H510 C506 0.931 . S
H511 C507 0.930 . S
O512 Co501 2.039 . S
O512 C502 1.265 . S
C513 O509 1.253 . S
C513 O514 1.227 . S
O514 C513 1.227 . S
N515 Co501 2.140 . S
N515 C518 1.346 . S
N515 C519 1.345 . S
C516 C517 1.387 . S
C516 C520 1.391 . S
C517 C516 1.387 . S
C517 C518 1.369 . S
C517 H526 0.929 . S
C518 N515 1.346 . S
C518 C517 1.369 . S
C518 H521 0.928 . S
C519 N515 1.345 . S
C519 C520 1.371 . S
C519 H522 0.931 . S
C520 C516 1.391 . S
C520 C519 1.371 . S
C520 H527 0.930 . S
H521 C518 0.928 . S
H522 C519 0.931 . S
H523 C499 0.930 . S
H524 C496 0.930 . S
H525 C505 0.930 . S
H526 C517 0.929 . S
H527 C520 0.930 . S
H528 C546 0.951 . S
H529 C548 0.951 . S
H530 C550 0.950 . S
H531 C551 0.950 . S
H532 C553 0.950 . S
H533 C556 0.950 . S
H534 C557 0.950 . S
H535 C559 0.950 . S
H536 C560 0.950 . S
H537 C561 0.951 . S
H538 C563 0.951 . S
H539 C565 0.950 . S
H540 C566 0.950 . S
H541 C568 0.950 . S
H542 C571 0.950 . S
H543 C572 0.950 . S
H544 C574 0.950 . S
H545 C575 0.950 . S
C546 H528 0.951 . S
C546 C547 1.366 . S
C546 C548 1.388 . S
C547 C546 1.366 . S
C547 C551 1.385 . S
C548 H529 0.951 . S
C548 C546 1.388 . S
C548 C549 1.366 . S
C549 C548 1.366 . S
C549 C550 1.414 . S
C549 C552 1.499 . S
C550 H530 0.950 . S
C550 C549 1.414 . S
C550 C551 1.374 . S
C551 H531 0.950 . S
C551 C547 1.385 . S
C551 C550 1.374 . S
C552 C549 1.499 . S
C552 C553 1.373 . S
C552 C554 1.389 . S
C553 H532 0.950 . S
C553 C552 1.373 . S
C553 C569 1.377 . S
C554 C552 1.389 . S
C554 C555 1.524 . S
C554 C568 1.377 . S
C555 C554 1.524 . S
C555 C556 1.397 1_554 S
C555 C560 1.363 . S
C556 H533 0.950 . S
C556 C555 1.397 1_556 S
C556 C557 1.334 . S
C557 H534 0.950 . S
C557 C556 1.334 . S
C557 C558 1.287 . S
C558 C557 1.287 . S
C558 C559 1.524 . S
C558 H577 0.913 . S
C559 H535 0.950 . S
C559 C558 1.524 . S
C559 C560 1.415 1_556 S
C560 H536 0.950 . S
C560 C555 1.363 . S
C560 C559 1.415 1_554 S
C561 H537 0.951 . S
C561 C562 1.366 . S
C561 C563 1.388 . S
C562 C561 1.366 . S
C562 C566 1.385 . S
C563 H538 0.951 . S
C563 C561 1.388 . S
C563 C564 1.366 . S
C564 C563 1.366 . S
C564 C565 1.414 . S
C564 C567 1.499 . S
C565 H539 0.950 . S
C565 C564 1.414 . S
C565 C566 1.374 . S
C566 H540 0.950 . S
C566 C562 1.385 . S
C566 C565 1.374 . S
C567 C564 1.499 . S
C567 C568 1.373 . S
C567 C569 1.389 . S
C568 H541 0.950 . S
C568 C554 1.377 . S
C568 C567 1.373 . S
C569 C553 1.377 . S
C569 C567 1.389 . S
C569 C570 1.524 . S
C570 C569 1.524 . S
C570 C571 1.397 . S
C570 C575 1.363 . S
C571 H542 0.950 . S
C571 C570 1.397 . S
C571 C572 1.334 . S
C572 H543 0.950 . S
C572 C571 1.334 . S
C572 C573 1.287 . S
C573 C572 1.287 . S
C573 C574 1.524 . S
C573 H576 0.999 . S
C574 H544 0.950 . S
C574 C573 1.524 . S
C574 C575 1.415 . S
C575 H545 0.950 . S
C575 C570 1.363 . S
C575 C574 1.415 . S
H576 C573 0.999 . S
H577 C558 0.913 . S
H578 C596 0.951 . S
H579 C598 0.951 . S
H580 C600 0.950 . S
H581 C601 0.950 . S
H582 C603 0.950 . S
H583 C606 0.950 . S
H584 C607 0.950 . S
H585 C609 0.950 . S
H586 C610 0.950 . S
H587 C611 0.951 . S
H588 C613 0.951 . S
H589 C615 0.950 . S
H590 C616 0.950 . S
H591 C618 0.950 . S
H592 C621 0.950 . S
H593 C622 0.950 . S
H594 C624 0.950 . S
H595 C625 0.950 . S
C596 H578 0.951 . S
C596 C597 1.366 . S
C596 C598 1.388 . S
C597 C596 1.366 . S
C597 C601 1.385 . S
C598 H579 0.951 . S
C598 C596 1.388 . S
C598 C599 1.366 . S
C599 C598 1.366 . S
C599 C600 1.414 . S
C599 C602 1.499 . S
C600 H580 0.950 . S
C600 C599 1.414 . S
C600 C601 1.374 . S
C601 H581 0.950 . S
C601 C597 1.385 . S
C601 C600 1.374 . S
C602 C599 1.499 . S
C602 C603 1.373 . S
C602 C604 1.389 . S
C603 H582 0.950 . S
C603 C602 1.373 . S
C603 C619 1.377 . S
C604 C602 1.389 . S
C604 C605 1.524 . S
C604 C618 1.377 . S
C605 C604 1.524 . S
C605 C606 1.397 . S
C605 C610 1.363 . S
C606 H583 0.950 . S
C606 C605 1.397 . S
C606 C607 1.334 . S
C607 H584 0.950 . S
C607 C606 1.334 . S
C607 C608 1.287 . S
C608 C607 1.287 . S
C608 C609 1.524 . S
C608 H627 0.913 . S
C609 H585 0.950 . S
C609 C608 1.524 . S
C609 C610 1.415 . S
C610 H586 0.950 . S
C610 C605 1.363 . S
C610 C609 1.415 . S
C611 H587 0.951 . S
C611 C612 1.366 . S
C611 C613 1.388 . S
C612 C611 1.366 . S
C612 C616 1.385 . S
C613 H588 0.951 . S
C613 C611 1.388 . S
C613 C614 1.366 . S
C614 C613 1.366 . S
C614 C615 1.414 . S
C614 C617 1.499 . S
C615 H589 0.950 . S
C615 C614 1.414 . S
C615 C616 1.374 . S
C616 H590 0.950 . S
C616 C612 1.385 . S
C616 C615 1.374 . S
C617 C614 1.499 . S
C617 C618 1.373 . S
C617 C619 1.389 . S
C618 H591 0.950 . S
C618 C604 1.377 . S
C618 C617 1.373 . S
C619 C603 1.377 . S
C619 C617 1.389 . S
C619 C620 1.524 . S
C620 C619 1.524 . S
C620 C621 1.397 . S
C620 C625 1.363 . S
C621 H592 0.950 . S
C621 C620 1.397 . S
C621 C622 1.334 . S
C622 H593 0.950 . S
C622 C621 1.334 . S
C622 C623 1.287 . S
C623 C622 1.287 . S
C623 C624 1.524 . S
C623 H626 0.999 . S
C624 H594 0.950 . S
C624 C623 1.524 . S
C624 C625 1.415 . S
C625 H595 0.950 . S
C625 C620 1.363 . S
C625 C624 1.415 . S
H626 C623 0.999 . S
H627 C608 0.913 . S
H628 C646 0.951 . S
H629 C648 0.951 . S
H630 C650 0.950 . S
H631 C651 0.950 . S
H632 C653 0.950 . S
H633 C656 0.950 1_554 S
H634 C657 0.950 . S
H635 C659 0.950 . S
H636 C660 0.950 . S
H637 C661 0.951 . S
H638 C663 0.951 . S
H639 C665 0.950 . S
H640 C666 0.950 . S
H641 C668 0.950 . S
H642 C671 0.950 . S
H643 C672 0.950 . S
H644 C674 0.950 . S
H645 C675 0.950 . S
C646 H628 0.951 . S
C646 C647 1.366 . S
C646 C648 1.388 . S
C647 C646 1.366 . S
C647 C651 1.385 . S
C648 H629 0.951 . S
C648 C646 1.388 . S
C648 C649 1.366 . S
C649 C648 1.366 . S
C649 C650 1.414 . S
C649 C652 1.499 . S
C650 H630 0.950 . S
C650 C649 1.414 . S
C650 C651 1.374 . S
C651 H631 0.950 . S
C651 C647 1.385 . S
C651 C650 1.374 . S
C652 C649 1.499 . S
C652 C653 1.373 . S
C652 C654 1.389 . S
C653 H632 0.950 . S
C653 C652 1.373 . S
C653 C669 1.377 . S
C654 C652 1.389 . S
C654 C655 1.524 1_554 S
C654 C668 1.377 . S
C655 C654 1.524 1_556 S
C655 C656 1.397 . S
C655 C660 1.363 . S
C656 H633 0.950 1_556 S
C656 C655 1.397 . S
C656 C657 1.334 . S
C657 H634 0.950 . S
C657 C656 1.334 . S
C657 C658 1.287 . S
C658 C657 1.287 . S
C658 C659 1.524 . S
C658 H677 0.913 . S
C659 H635 0.950 . S
C659 C658 1.524 . S
C659 C660 1.415 . S
C660 H636 0.950 . S
C660 C655 1.363 . S
C660 C659 1.415 . S
C661 H637 0.951 . S
C661 C662 1.366 . S
C661 C663 1.388 . S
C662 C661 1.366 . S
C662 C666 1.385 . S
C663 H638 0.951 . S
C663 C661 1.388 . S
C663 C664 1.366 . S
C664 C663 1.366 . S
C664 C665 1.414 . S
C664 C667 1.499 . S
C665 H639 0.950 . S
C665 C664 1.414 . S
C665 C666 1.374 . S
C666 H640 0.950 . S
C666 C662 1.385 . S
C666 C665 1.374 . S
C667 C664 1.499 . S
C667 C668 1.373 . S
C667 C669 1.389 . S
C668 H641 0.950 . S
C668 C654 1.377 . S
C668 C667 1.373 . S
C669 C653 1.377 . S
C669 C667 1.389 . S
C669 C670 1.524 . S
C670 C669 1.524 . S
C670 C671 1.397 . S
C670 C675 1.363 . S
C671 H642 0.950 . S
C671 C670 1.397 . S
C671 C672 1.334 . S
C672 H643 0.950 . S
C672 C671 1.334 . S
C672 C673 1.287 . S
C673 C672 1.287 . S
C673 C674 1.524 . S
C673 H676 0.999 . S
C674 H644 0.950 . S
C674 C673 1.524 . S
C674 C675 1.415 . S
C675 H645 0.950 . S
C675 C670 1.363 . S
C675 C674 1.415 . S
H676 C673 0.999 . S
H677 C658 0.913 . S
H678 C696 0.951 . S
H679 C698 0.951 . S
H680 C700 0.950 . S
H681 C701 0.950 . S
H682 C703 0.950 . S
H683 C706 0.950 . S
H684 C707 0.950 . S
H685 C709 0.950 . S
H686 C710 0.950 . S
H687 C711 0.951 . S
H688 C713 0.951 . S
H689 C715 0.950 . S
H690 C716 0.950 . S
H691 C718 0.950 . S
H692 C721 0.950 . S
H693 C722 0.950 . S
H694 C724 0.950 . S
H695 C725 0.950 . S
C696 H678 0.951 . S
C696 C697 1.366 . S
C696 C698 1.388 . S
C697 C696 1.366 . S
C697 C701 1.385 . S
C698 H679 0.951 . S
C698 C696 1.388 . S
C698 C699 1.366 . S
C699 C698 1.366 . S
C699 C700 1.414 . S
C699 C702 1.499 . S
C700 H680 0.950 . S
C700 C699 1.414 . S
C700 C701 1.374 . S
C701 H681 0.950 . S
C701 C697 1.385 . S
C701 C700 1.374 . S
C702 C699 1.499 . S
C702 C703 1.373 . S
C702 C704 1.389 . S
C703 H682 0.950 . S
C703 C702 1.373 . S
C703 C719 1.377 . S
C704 C702 1.389 . S
C704 C705 1.524 . S
C704 C718 1.377 . S
C705 C704 1.524 . S
C705 C706 1.397 . S
C705 C710 1.363 . S
C706 H683 0.950 . S
C706 C705 1.397 . S
C706 C707 1.334 . S
C707 H684 0.950 . S
C707 C706 1.334 . S
C707 C708 1.287 . S
C708 C707 1.287 . S
C708 C709 1.524 . S
C708 H727 0.913 . S
C709 H685 0.950 . S
C709 C708 1.524 . S
C709 C710 1.415 . S
C710 H686 0.950 . S
C710 C705 1.363 . S
C710 C709 1.415 . S
C711 H687 0.951 . S
C711 C712 1.366 . S
C711 C713 1.388 . S
C712 C711 1.366 . S
C712 C716 1.385 . S
C713 H688 0.951 . S
C713 C711 1.388 . S
C713 C714 1.366 . S
C714 C713 1.366 . S
C714 C715 1.414 . S
C714 C717 1.499 . S
C715 H689 0.950 . S
C715 C714 1.414 . S
C715 C716 1.374 . S
C716 H690 0.950 . S
C716 C712 1.385 . S
C716 C715 1.374 . S
C717 C714 1.499 . S
C717 C718 1.373 . S
C717 C719 1.389 . S
C718 H691 0.950 . S
C718 C704 1.377 . S
C718 C717 1.373 . S
C719 C703 1.377 . S
C719 C717 1.389 . S
C719 C720 1.524 . S
C720 C719 1.524 . S
C720 C721 1.397 . S
C720 C725 1.363 . S
C721 H692 0.950 . S
C721 C720 1.397 . S
C721 C722 1.334 . S
C722 H693 0.950 . S
C722 C721 1.334 . S
C722 C723 1.287 . S
C723 C722 1.287 . S
C723 C724 1.524 . S
C723 H726 0.999 . S
C724 H694 0.950 . S
C724 C723 1.524 . S
C724 C725 1.415 . S
C725 H695 0.950 . S
C725 C720 1.363 . S
C725 C724 1.415 . S
H726 C723 0.999 . S
H727 C708 0.913 . S
H728 C746 0.951 . S
H729 C748 0.951 . S
H730 C750 0.950 . S
H731 C751 0.950 . S
H732 C753 0.950 . S
H733 C756 0.950 . S
H734 C757 0.950 . S
H735 C759 0.950 . S
H736 C760 0.950 . S
H737 C761 0.951 . S
H738 C763 0.951 . S
H739 C765 0.950 . S
H740 C766 0.950 . S
H741 C768 0.950 . S
H742 C771 0.950 . S
H743 C772 0.950 . S
H744 C774 0.950 . S
H745 C775 0.950 . S
C746 H728 0.951 . S
C746 C747 1.366 . S
C746 C748 1.388 . S
C747 C746 1.366 . S
C747 C751 1.385 . S
C748 H729 0.951 . S
C748 C746 1.388 . S
C748 C749 1.366 . S
C749 C748 1.366 . S
C749 C750 1.414 . S
C749 C752 1.499 . S
C750 H730 0.950 . S
C750 C749 1.414 . S
C750 C751 1.374 . S
C751 H731 0.950 . S
C751 C747 1.385 . S
C751 C750 1.374 . S
C752 C749 1.499 . S
C752 C753 1.373 . S
C752 C754 1.389 . S
C753 H732 0.950 . S
C753 C752 1.373 . S
C753 C769 1.377 . S
C754 C752 1.389 . S
C754 C755 1.524 . S
C754 C768 1.377 . S
C755 C754 1.524 . S
C755 C756 1.397 . S
C755 C760 1.363 . S
C756 H733 0.950 . S
C756 C755 1.397 . S
C756 C757 1.334 . S
C757 H734 0.950 . S
C757 C756 1.334 . S
C757 C758 1.287 . S
C758 C757 1.287 . S
C758 C759 1.524 . S
C758 H777 0.913 . S
C759 H735 0.950 . S
C759 C758 1.524 . S
C759 C760 1.415 . S
C760 H736 0.950 . S
C760 C755 1.363 . S
C760 C759 1.415 . S
C761 H737 0.951 . S
C761 C762 1.366 . S
C761 C763 1.388 . S
C762 C761 1.366 . S
C762 C766 1.385 . S
C763 H738 0.951 . S
C763 C761 1.388 . S
C763 C764 1.366 . S
C764 C763 1.366 . S
C764 C765 1.414 . S
C764 C767 1.499 . S
C765 H739 0.950 . S
C765 C764 1.414 . S
C765 C766 1.374 . S
C766 H740 0.950 . S
C766 C762 1.385 . S
C766 C765 1.374 . S
C767 C764 1.499 . S
C767 C768 1.373 . S
C767 C769 1.389 . S
C768 H741 0.950 . S
C768 C754 1.377 . S
C768 C767 1.373 . S
C769 C753 1.377 . S
C769 C767 1.389 . S
C769 C770 1.524 . S
C770 C769 1.524 . S
C770 C771 1.397 . S
C770 C775 1.363 . S
C771 H742 0.950 . S
C771 C770 1.397 . S
C771 C772 1.334 . S
C772 H743 0.950 . S
C772 C771 1.334 . S
C772 C773 1.287 . S
C773 C772 1.287 . S
C773 C774 1.524 . S
C773 H776 0.999 . S
C774 H744 0.950 . S
C774 C773 1.524 . S
C774 C775 1.415 . S
C775 H745 0.950 . S
C775 C770 1.363 . S
C775 C774 1.415 . S
H776 C773 0.999 . S
H777 C758 0.913 . S
H778 C796 0.951 . S
H779 C798 0.951 . S
H780 C800 0.950 . S
H781 C801 0.950 . S
H782 C803 0.950 . S
H783 C806 0.950 . S
H784 C807 0.950 . S
H785 C809 0.950 . S
H786 C810 0.950 1_556 S
H787 C811 0.951 . S
H788 C813 0.951 . S
H789 C815 0.950 . S
H790 C816 0.950 . S
H791 C818 0.950 . S
H792 C821 0.950 . S
H793 C822 0.950 . S
H794 C824 0.950 . S
H795 C825 0.950 . S
C796 H778 0.951 . S
C796 C797 1.366 . S
C796 C798 1.388 . S
C797 C796 1.366 . S
C797 C801 1.385 . S
C798 H779 0.951 . S
C798 C796 1.388 . S
C798 C799 1.366 . S
C799 C798 1.366 . S
C799 C800 1.414 . S
C799 C802 1.499 . S
C800 H780 0.950 . S
C800 C799 1.414 . S
C800 C801 1.374 . S
C801 H781 0.950 . S
C801 C797 1.385 . S
C801 C800 1.374 . S
C802 C799 1.499 . S
C802 C803 1.373 . S
C802 C804 1.389 . S
C803 H782 0.950 . S
C803 C802 1.373 . S
C803 C819 1.377 . S
C804 C802 1.389 . S
C804 C805 1.524 . S
C804 C818 1.377 . S
C805 C804 1.524 . S
C805 C806 1.397 1_556 S
C805 C810 1.363 1_556 S
C806 H783 0.950 . S
C806 C805 1.397 1_554 S
C806 C807 1.334 . S
C807 H784 0.950 . S
C807 C806 1.334 . S
C807 C808 1.287 . S
C808 C807 1.287 . S
C808 C809 1.524 . S
C808 H827 0.913 . S
C809 H785 0.950 . S
C809 C808 1.524 . S
C809 C810 1.415 . S
C810 H786 0.950 1_554 S
C810 C805 1.363 1_554 S
C810 C809 1.415 . S
C811 H787 0.951 . S
C811 C812 1.366 . S
C811 C813 1.388 . S
C812 C811 1.366 . S
C812 C816 1.385 . S
C813 H788 0.951 . S
C813 C811 1.388 . S
C813 C814 1.366 . S
C814 C813 1.366 . S
C814 C815 1.414 . S
C814 C817 1.499 . S
C815 H789 0.950 . S
C815 C814 1.414 . S
C815 C816 1.374 . S
C816 H790 0.950 . S
C816 C812 1.385 . S
C816 C815 1.374 . S
C817 C814 1.499 . S
C817 C818 1.373 . S
C817 C819 1.389 . S
C818 H791 0.950 . S
C818 C804 1.377 . S
C818 C817 1.373 . S
C819 C803 1.377 . S
C819 C817 1.389 . S
C819 C820 1.524 . S
C820 C819 1.524 . S
C820 C821 1.397 . S
C820 C825 1.363 . S
C821 H792 0.950 . S
C821 C820 1.397 . S
C821 C822 1.334 . S
C822 H793 0.950 . S
C822 C821 1.334 . S
C822 C823 1.287 . S
C823 C822 1.287 . S
C823 C824 1.524 . S
C823 H826 0.999 . S
C824 H794 0.950 . S
C824 C823 1.524 . S
C824 C825 1.415 . S
C825 H795 0.950 . S
C825 C820 1.363 . S
C825 C824 1.415 . S
H826 C823 0.999 . S
H827 C808 0.913 . S
H828 C846 0.951 . S
H829 C848 0.951 . S
H830 C850 0.950 . S
H831 C851 0.950 . S
H832 C853 0.950 . S
H833 C856 0.950 . S
H834 C857 0.950 . S
H835 C859 0.950 . S
H836 C860 0.950 . S
H837 C861 0.951 . S
H838 C863 0.951 . S
H839 C865 0.950 . S
H840 C866 0.950 . S
H841 C868 0.950 . S
H842 C871 0.950 . S
H843 C872 0.950 . S
H844 C874 0.950 . S
H845 C875 0.950 . S
C846 H828 0.951 . S
C846 C847 1.366 . S
C846 C848 1.388 . S
C847 C846 1.366 . S
C847 C851 1.385 . S
C848 H829 0.951 . S
C848 C846 1.388 . S
C848 C849 1.366 . S
C849 C848 1.366 . S
C849 C850 1.414 . S
C849 C852 1.499 . S
C850 H830 0.950 . S
C850 C849 1.414 . S
C850 C851 1.374 . S
C851 H831 0.950 . S
C851 C847 1.385 . S
C851 C850 1.374 . S
C852 C849 1.499 . S
C852 C853 1.373 . S
C852 C854 1.389 . S
C853 H832 0.950 . S
C853 C852 1.373 . S
C853 C869 1.377 . S
C854 C852 1.389 . S
C854 C855 1.524 . S
C854 C868 1.377 . S
C855 C854 1.524 . S
C855 C856 1.397 . S
C855 C860 1.363 . S
C856 H833 0.950 . S
C856 C855 1.397 . S
C856 C857 1.334 . S
C857 H834 0.950 . S
C857 C856 1.334 . S
C857 C858 1.287 . S
C858 C857 1.287 . S
C858 C859 1.524 . S
C858 H877 0.913 . S
C859 H835 0.950 . S
C859 C858 1.524 . S
C859 C860 1.415 . S
C860 H836 0.950 . S
C860 C855 1.363 . S
C860 C859 1.415 . S
C861 H837 0.951 . S
C861 C862 1.366 . S
C861 C863 1.388 . S
C862 C861 1.366 . S
C862 C866 1.385 . S
C863 H838 0.951 . S
C863 C861 1.388 . S
C863 C864 1.366 . S
C864 C863 1.366 . S
C864 C865 1.414 . S
C864 C867 1.499 . S
C865 H839 0.950 . S
C865 C864 1.414 . S
C865 C866 1.374 . S
C866 H840 0.950 . S
C866 C862 1.385 . S
C866 C865 1.374 . S
C867 C864 1.499 . S
C867 C868 1.373 . S
C867 C869 1.389 . S
C868 H841 0.950 . S
C868 C854 1.377 . S
C868 C867 1.373 . S
C869 C853 1.377 . S
C869 C867 1.389 . S
C869 C870 1.524 . S
C870 C869 1.524 . S
C870 C871 1.397 . S
C870 C875 1.363 . S
C871 H842 0.950 . S
C871 C870 1.397 . S
C871 C872 1.334 . S
C872 H843 0.950 . S
C872 C871 1.334 . S
C872 C873 1.287 . S
C873 C872 1.287 . S
C873 C874 1.524 . S
C873 H876 0.999 . S
C874 H844 0.950 . S
C874 C873 1.524 . S
C874 C875 1.415 . S
C875 H845 0.950 . S
C875 C870 1.363 . S
C875 C874 1.415 . S
H876 C873 0.999 . S
H877 C858 0.913 . S
H878 C896 0.951 . S
H879 C898 0.951 . S
H880 C900 0.950 . S
H881 C901 0.950 . S
H882 C903 0.950 . S
H883 C906 0.950 . S
H884 C907 0.950 . S
H885 C909 0.950 . S
H886 C910 0.950 . S
H887 C911 0.951 . S
H888 C913 0.951 . S
H889 C915 0.950 . S
H890 C916 0.950 . S
H891 C918 0.950 . S
H892 C921 0.950 . S
H893 C922 0.950 . S
H894 C924 0.950 . S
H895 C925 0.950 . S
C896 H878 0.951 . S
C896 C897 1.366 . S
C896 C898 1.388 . S
C897 C896 1.366 . S
C897 C901 1.385 . S
C898 H879 0.951 . S
C898 C896 1.388 . S
C898 C899 1.366 . S
C899 C898 1.366 . S
C899 C900 1.414 . S
C899 C902 1.499 . S
C900 H880 0.950 . S
C900 C899 1.414 . S
C900 C901 1.374 . S
C901 H881 0.950 . S
C901 C897 1.385 . S
C901 C900 1.374 . S
C902 C899 1.499 . S
C902 C903 1.373 . S
C902 C904 1.389 . S
C903 H882 0.950 . S
C903 C902 1.373 . S
C903 C919 1.377 . S
C904 C902 1.389 . S
C904 C905 1.524 . S
C904 C918 1.377 . S
C905 C904 1.524 . S
C905 C906 1.397 . S
C905 C910 1.363 . S
C906 H883 0.950 . S
C906 C905 1.397 . S
C906 C907 1.334 . S
C907 H884 0.950 . S
C907 C906 1.334 . S
C907 C908 1.287 . S
C908 C907 1.287 . S
C908 C909 1.524 . S
C908 H927 0.913 . S
C909 H885 0.950 . S
C909 C908 1.524 . S
C909 C910 1.415 . S
C910 H886 0.950 . S
C910 C905 1.363 . S
C910 C909 1.415 . S
C911 H887 0.951 . S
C911 C912 1.366 . S
C911 C913 1.388 . S
C912 C911 1.366 . S
C912 C916 1.385 . S
C913 H888 0.951 . S
C913 C911 1.388 . S
C913 C914 1.366 . S
C914 C913 1.366 . S
C914 C915 1.414 . S
C914 C917 1.499 . S
C915 H889 0.950 . S
C915 C914 1.414 . S
C915 C916 1.374 . S
C916 H890 0.950 . S
C916 C912 1.385 . S
C916 C915 1.374 . S
C917 C914 1.499 . S
C917 C918 1.373 . S
C917 C919 1.389 . S
C918 H891 0.950 . S
C918 C904 1.377 . S
C918 C917 1.373 . S
C919 C903 1.377 . S
C919 C917 1.389 . S
C919 C920 1.526 . S
C920 C919 1.526 . S
C920 C921 1.396 1_556 S
C920 C925 1.362 1_556 S
C921 H892 0.950 . S
C921 C920 1.396 1_554 S
C921 C922 1.334 . S
C922 H893 0.950 . S
C922 C921 1.334 . S
C922 C923 1.287 . S
C923 C922 1.287 . S
C923 C924 1.524 . S
C923 H926 0.999 . S
C924 H894 0.950 . S
C924 C923 1.524 . S
C924 C925 1.415 . S
C925 H895 0.950 . S
C925 C920 1.362 1_554 S
C925 C924 1.415 . S
H926 C923 0.999 . S
H927 C908 0.913 . S
H928 C946 0.951 . S
H929 C948 0.951 1_556 S
H930 C950 0.950 . S
H931 C951 0.950 . S
H932 C953 0.950 . S
H933 C956 0.950 . S
H934 C957 0.950 . S
H935 C959 0.950 . S
H936 C960 0.950 . S
H937 C961 0.951 . S
H938 C963 0.951 1_554 S
H939 C965 0.950 . S
H940 C966 0.950 . S
H941 C968 0.950 . S
H942 C971 0.950 . S
H943 C972 0.950 . S
H944 C974 0.950 . S
H945 C975 0.950 . S
C946 H928 0.951 . S
C946 C947 1.366 . S
C946 C948 1.388 . S
C947 C946 1.366 . S
C947 C951 1.385 . S
C948 H929 0.951 1_554 S
C948 C946 1.388 . S
C948 C949 1.366 . S
C949 C948 1.366 . S
C949 C950 1.414 . S
C949 C952 1.499 . S
C950 H930 0.950 . S
C950 C949 1.414 . S
C950 C951 1.374 . S
C951 H931 0.950 . S
C951 C947 1.385 . S
C951 C950 1.374 . S
C952 C949 1.499 . S
C952 C953 1.373 . S
C952 C954 1.389 1_554 S
C953 H932 0.950 . S
C953 C952 1.373 . S
C953 C969 1.377 . S
C954 C952 1.389 1_556 S
C954 C955 1.524 . S
C954 C968 1.377 . S
C955 C954 1.524 . S
C955 C956 1.397 . S
C955 C960 1.363 . S
C956 H933 0.950 . S
C956 C955 1.397 . S
C956 C957 1.334 . S
C957 H934 0.950 . S
C957 C956 1.334 . S
C957 C958 1.287 . S
C958 C957 1.287 . S
C958 C959 1.524 . S
C958 H977 0.913 . S
C959 H935 0.950 . S
C959 C958 1.524 . S
C959 C960 1.415 . S
C960 H936 0.950 . S
C960 C955 1.363 . S
C960 C959 1.415 . S
C961 H937 0.951 . S
C961 C962 1.366 . S
C961 C963 1.388 . S
C962 C961 1.366 . S
C962 C966 1.385 . S
C963 H938 0.951 1_556 S
C963 C961 1.388 . S
C963 C964 1.366 . S
C964 C963 1.366 . S
C964 C965 1.414 . S
C964 C967 1.499 . S
C965 H939 0.950 . S
C965 C964 1.414 . S
C965 C966 1.374 . S
C966 H940 0.950 . S
C966 C962 1.385 . S
C966 C965 1.374 . S
C967 C964 1.499 . S
C967 C968 1.373 . S
C967 C969 1.389 1_556 S
C968 H941 0.950 . S
C968 C954 1.377 . S
C968 C967 1.373 . S
C969 C953 1.377 . S
C969 C967 1.389 1_554 S
C969 C970 1.524 . S
C970 C969 1.524 . S
C970 C971 1.397 . S
C970 C975 1.363 . S
C971 H942 0.950 . S
C971 C970 1.397 . S
C971 C972 1.334 . S
C972 H943 0.950 . S
C972 C971 1.334 . S
C972 C973 1.287 . S
C973 C972 1.287 . S
C973 C974 1.524 . S
C973 H976 0.999 . S
C974 H944 0.950 . S
C974 C973 1.524 . S
C974 C975 1.415 . S
C975 H945 0.950 . S
C975 C970 1.363 . S
C975 C974 1.415 . S
H976 C973 0.999 . S
H977 C958 0.913 . S
H978 C996 0.951 . S
H979 C998 0.951 . S
H980 C1000 0.950 . S
H981 C1001 0.950 . S
H982 C1003 0.950 . S
H983 C1006 0.950 . S
H984 C1007 0.950 . S
H985 C1009 0.950 . S
H986 C1010 0.950 . S
H987 C1011 0.951 . S
H988 C1013 0.951 . S
H989 C1015 0.950 . S
H990 C1016 0.950 . S
H991 C1018 0.950 . S
H992 C1021 0.950 . S
H993 C1022 0.950 . S
H994 C1024 0.950 . S
H995 C1025 0.950 . S
C996 H978 0.951 . S
C996 C997 1.366 . S
C996 C998 1.388 . S
C997 C996 1.366 . S
C997 C1001 1.385 . S
C998 H979 0.951 . S
C998 C996 1.388 . S
C998 C999 1.366 . S
C999 C998 1.366 . S
C999 C1000 1.414 . S
C999 C1002 1.499 . S
C1000 H980 0.950 . S
C1000 C999 1.414 . S
C1000 C1001 1.374 . S
C1001 H981 0.950 . S
C1001 C997 1.385 . S
C1001 C1000 1.374 . S
C1002 C999 1.499 . S
C1002 C1003 1.373 . S
C1002 C1004 1.389 . S
C1003 H982 0.950 . S
C1003 C1002 1.373 . S
C1003 C1019 1.377 . S
C1004 C1002 1.389 . S
C1004 C1005 1.524 . S
C1004 C1018 1.377 . S
C1005 C1004 1.524 . S
C1005 C1006 1.397 . S
C1005 C1010 1.363 . S
C1006 H983 0.950 . S
C1006 C1005 1.397 . S
C1006 C1007 1.334 . S
C1007 H984 0.950 . S
C1007 C1006 1.334 . S
C1007 C1008 1.287 . S
C1008 C1007 1.287 . S
C1008 C1009 1.524 . S
C1008 H1027 0.913 . S
C1009 H985 0.950 . S
C1009 C1008 1.524 . S
C1009 C1010 1.415 . S
C1010 H986 0.950 . S
C1010 C1005 1.363 . S
C1010 C1009 1.415 . S
C1011 H987 0.951 . S
C1011 C1012 1.366 . S
C1011 C1013 1.388 . S
C1012 C1011 1.366 . S
C1012 C1016 1.385 . S
C1013 H988 0.951 . S
C1013 C1011 1.388 . S
C1013 C1014 1.366 . S
C1014 C1013 1.366 . S
C1014 C1015 1.414 . S
C1014 C1017 1.499 . S
C1015 H989 0.950 . S
C1015 C1014 1.414 . S
C1015 C1016 1.374 . S
C1016 H990 0.950 . S
C1016 C1012 1.385 . S
C1016 C1015 1.374 . S
C1017 C1014 1.499 . S
C1017 C1018 1.373 . S
C1017 C1019 1.389 . S
C1018 H991 0.950 . S
C1018 C1004 1.377 . S
C1018 C1017 1.373 . S
C1019 C1003 1.377 . S
C1019 C1017 1.389 . S
C1019 C1020 1.524 . S
C1020 C1019 1.524 . S
C1020 C1021 1.397 . S
C1020 C1025 1.363 . S
C1021 H992 0.950 . S
C1021 C1020 1.397 . S
C1021 C1022 1.334 . S
C1022 H993 0.950 . S
C1022 C1021 1.334 . S
C1022 C1023 1.287 . S
C1023 C1022 1.287 . S
C1023 C1024 1.524 . S
C1023 H1026 0.999 . S
C1024 H994 0.950 . S
C1024 C1023 1.524 . S
C1024 C1025 1.415 . S
C1025 H995 0.950 . S
C1025 C1020 1.363 . S
C1025 C1024 1.415 . S
H1026 C1023 0.999 . S
H1027 C1008 0.913 . S
H1028 C1046 0.951 1_556 S
H1029 C1048 0.951 . S
H1030 C1050 0.950 . S
H1031 C1051 0.950 . S
H1032 C1053 0.950 . S
H1033 C1056 0.950 . S
H1034 C1057 0.950 . S
H1035 C1059 0.950 . S
H1036 C1060 0.950 . S
H1037 C1061 0.951 1_554 S
H1038 C1063 0.951 . S
H1039 C1065 0.950 . S
H1040 C1066 0.950 . S
H1041 C1068 0.950 . S
H1042 C1071 0.950 . S
H1043 C1072 0.950 . S
H1044 C1074 0.950 . S
H1045 C1075 0.950 . S
C1046 H1028 0.951 1_554 S
C1046 C1047 1.366 . S
C1046 C1048 1.388 1_554 S
C1047 C1046 1.366 . S
C1047 C1051 1.385 . S
C1048 H1029 0.951 . S
C1048 C1046 1.388 1_556 S
C1048 C1049 1.366 1_556 S
C1049 C1048 1.366 1_554 S
C1049 C1050 1.414 . S
C1049 C1052 1.499 . S
C1050 H1030 0.950 . S
C1050 C1049 1.414 . S
C1050 C1051 1.374 . S
C1051 H1031 0.950 . S
C1051 C1047 1.385 . S
C1051 C1050 1.374 . S
C1052 C1049 1.499 . S
C1052 C1053 1.373 . S
C1052 C1054 1.389 1_554 S
C1053 H1032 0.950 . S
C1053 C1052 1.373 . S
C1053 C1069 1.377 . S
C1054 C1052 1.389 1_556 S
C1054 C1055 1.524 . S
C1054 C1068 1.377 . S
C1055 C1054 1.524 . S
C1055 C1056 1.397 1_556 S
C1055 C1060 1.363 . S
C1056 H1033 0.950 . S
C1056 C1055 1.397 1_554 S
C1056 C1057 1.334 . S
C1057 H1034 0.950 . S
C1057 C1056 1.334 . S
C1057 C1058 1.287 1_554 S
C1058 C1057 1.287 1_556 S
C1058 C1059 1.524 . S
C1058 H1077 0.913 . S
C1059 H1035 0.950 . S
C1059 C1058 1.524 . S
C1059 C1060 1.415 . S
C1060 H1036 0.950 . S
C1060 C1055 1.363 . S
C1060 C1059 1.415 . S
C1061 H1037 0.951 1_556 S
C1061 C1062 1.366 . S
C1061 C1063 1.388 1_556 S
C1062 C1061 1.366 . S
C1062 C1066 1.385 . S
C1063 H1038 0.951 . S
C1063 C1061 1.388 1_554 S
C1063 C1064 1.366 1_554 S
C1064 C1063 1.366 1_556 S
C1064 C1065 1.414 . S
C1064 C1067 1.499 . S
C1065 H1039 0.950 . S
C1065 C1064 1.414 . S
C1065 C1066 1.374 . S
C1066 H1040 0.950 . S
C1066 C1062 1.385 . S
C1066 C1065 1.374 . S
C1067 C1064 1.499 . S
C1067 C1068 1.373 . S
C1067 C1069 1.389 1_556 S
C1068 H1041 0.950 . S
C1068 C1054 1.377 . S
C1068 C1067 1.373 . S
C1069 C1053 1.377 . S
C1069 C1067 1.389 1_554 S
C1069 C1070 1.524 . S
C1070 C1069 1.524 . S
C1070 C1071 1.397 1_554 S
C1070 C1075 1.363 . S
C1071 H1042 0.950 . S
C1071 C1070 1.397 1_556 S
C1071 C1072 1.334 . S
C1072 H1043 0.950 . S
C1072 C1071 1.334 . S
C1072 C1073 1.287 1_556 S
C1073 C1072 1.287 1_554 S
C1073 C1074 1.524 . S
C1073 H1076 0.999 . S
C1074 H1044 0.950 . S
C1074 C1073 1.524 . S
C1074 C1075 1.415 . S
C1075 H1045 0.950 . S
C1075 C1070 1.363 . S
C1075 C1074 1.415 . S
H1076 C1073 0.999 . S
H1077 C1058 0.913 . S
H1078 C1096 0.951 . S
H1079 C1098 0.951 . S
H1080 C1100 0.950 . S
H1081 C1101 0.950 . S
H1082 C1103 0.950 . S
H1083 C1106 0.950 . S
H1084 C1107 0.950 . S
H1085 C1109 0.950 . S
H1086 C1110 0.950 . S
H1087 C1111 0.951 . S
H1088 C1113 0.951 . S
H1089 C1115 0.950 . S
H1090 C1116 0.950 . S
H1091 C1118 0.950 . S
H1092 C1121 0.950 . S
H1093 C1122 0.950 . S
H1094 C1124 0.950 . S
H1095 C1125 0.950 . S
C1096 H1078 0.951 . S
C1096 C1097 1.366 . S
C1096 C1098 1.388 . S
C1097 C1096 1.366 . S
C1097 C1101 1.385 . S
C1098 H1079 0.951 . S
C1098 C1096 1.388 . S
C1098 C1099 1.366 . S
C1099 C1098 1.366 . S
C1099 C1100 1.414 . S
C1099 C1102 1.499 . S
C1100 H1080 0.950 . S
C1100 C1099 1.414 . S
C1100 C1101 1.374 . S
C1101 H1081 0.950 . S
C1101 C1097 1.385 . S
C1101 C1100 1.374 . S
C1102 C1099 1.499 . S
C1102 C1103 1.373 . S
C1102 C1104 1.389 . S
C1103 H1082 0.950 . S
C1103 C1102 1.373 . S
C1103 C1119 1.377 . S
C1104 C1102 1.389 . S
C1104 C1105 1.524 . S
C1104 C1118 1.377 . S
C1105 C1104 1.524 . S
C1105 C1106 1.397 . S
C1105 C1110 1.363 . S
C1106 H1083 0.950 . S
C1106 C1105 1.397 . S
C1106 C1107 1.334 . S
C1107 H1084 0.950 . S
C1107 C1106 1.334 . S
C1107 C1108 1.287 . S
C1108 C1107 1.287 . S
C1108 C1109 1.524 . S
C1108 H1127 0.913 . S
C1109 H1085 0.950 . S
C1109 C1108 1.524 . S
C1109 C1110 1.415 . S
C1110 H1086 0.950 . S
C1110 C1105 1.363 . S
C1110 C1109 1.415 . S
C1111 H1087 0.951 . S
C1111 C1112 1.366 . S
C1111 C1113 1.388 . S
C1112 C1111 1.366 . S
C1112 C1116 1.385 . S
C1113 H1088 0.951 . S
C1113 C1111 1.388 . S
C1113 C1114 1.366 . S
C1114 C1113 1.366 . S
C1114 C1115 1.414 . S
C1114 C1117 1.499 . S
C1115 H1089 0.950 . S
C1115 C1114 1.414 . S
C1115 C1116 1.374 . S
C1116 H1090 0.950 . S
C1116 C1112 1.385 . S
C1116 C1115 1.374 . S
C1117 C1114 1.499 . S
C1117 C1118 1.373 . S
C1117 C1119 1.389 . S
C1118 H1091 0.950 . S
C1118 C1104 1.377 . S
C1118 C1117 1.373 . S
C1119 C1103 1.377 . S
C1119 C1117 1.389 . S
C1119 C1120 1.524 . S
C1120 C1119 1.524 . S
C1120 C1121 1.397 . S
C1120 C1125 1.363 . S
C1121 H1092 0.950 . S
C1121 C1120 1.397 . S
C1121 C1122 1.334 . S
C1122 H1093 0.950 . S
C1122 C1121 1.334 . S
C1122 C1123 1.287 . S
C1123 C1122 1.287 . S
C1123 C1124 1.524 . S
C1123 H1126 0.999 . S
C1124 H1094 0.950 . S
C1124 C1123 1.524 . S
C1124 C1125 1.415 . S
C1125 H1095 0.950 . S
C1125 C1120 1.363 . S
C1125 C1124 1.415 . S
H1126 C1123 0.999 . S
H1127 C1108 0.913 . S
H1128 C1146 0.951 . S
H1129 C1148 0.951 . S
H1130 C1150 0.950 1_556 S
H1131 C1151 0.950 . S
H1132 C1153 0.950 . S
H1133 C1156 0.950 . S
H1134 C1157 0.950 . S
H1135 C1159 0.950 . S
H1136 C1160 0.950 . S
H1137 C1161 0.951 . S
H1138 C1163 0.951 . S
H1139 C1165 0.950 1_554 S
H1140 C1166 0.950 . S
H1141 C1168 0.950 . S
H1142 C1171 0.950 . S
H1143 C1172 0.950 . S
H1144 C1174 0.950 . S
H1145 C1175 0.950 . S
C1146 H1128 0.951 . S
C1146 C1147 1.366 . S
C1146 C1148 1.388 . S
C1147 C1146 1.366 . S
C1147 C1151 1.385 . S
C1148 H1129 0.951 . S
C1148 C1146 1.388 . S
C1148 C1149 1.366 . S
C1149 C1148 1.366 . S
C1149 C1150 1.414 . S
C1149 C1152 1.499 . S
C1150 H1130 0.950 1_554 S
C1150 C1149 1.414 . S
C1150 C1151 1.374 . S
C1151 H1131 0.950 . S
C1151 C1147 1.385 . S
C1151 C1150 1.374 . S
C1152 C1149 1.499 . S
C1152 C1153 1.373 1_554 S
C1152 C1154 1.389 . S
C1153 H1132 0.950 . S
C1153 C1152 1.373 1_556 S
C1153 C1169 1.377 . S
C1154 C1152 1.389 . S
C1154 C1155 1.524 . S
C1154 C1168 1.377 . S
C1155 C1154 1.524 . S
C1155 C1156 1.397 . S
C1155 C1160 1.363 . S
C1156 H1133 0.950 . S
C1156 C1155 1.397 . S
C1156 C1157 1.334 . S
C1157 H1134 0.950 . S
C1157 C1156 1.334 . S
C1157 C1158 1.287 . S
C1158 C1157 1.287 . S
C1158 C1159 1.524 . S
C1158 H1177 0.913 . S
C1159 H1135 0.950 . S
C1159 C1158 1.524 . S
C1159 C1160 1.415 . S
C1160 H1136 0.950 . S
C1160 C1155 1.363 . S
C1160 C1159 1.415 . S
C1161 H1137 0.951 . S
C1161 C1162 1.366 . S
C1161 C1163 1.388 . S
C1162 C1161 1.366 . S
C1162 C1166 1.385 . S
C1163 H1138 0.951 . S
C1163 C1161 1.388 . S
C1163 C1164 1.366 . S
C1164 C1163 1.366 . S
C1164 C1165 1.414 . S
C1164 C1167 1.499 . S
C1165 H1139 0.950 1_556 S
C1165 C1164 1.414 . S
C1165 C1166 1.374 . S
C1166 H1140 0.950 . S
C1166 C1162 1.385 . S
C1166 C1165 1.374 . S
C1167 C1164 1.499 . S
C1167 C1168 1.373 1_556 S
C1167 C1169 1.389 . S
C1168 H1141 0.950 . S
C1168 C1154 1.377 . S
C1168 C1167 1.373 1_554 S
C1169 C1153 1.377 . S
C1169 C1167 1.389 . S
C1169 C1170 1.524 . S
C1170 C1169 1.524 . S
C1170 C1171 1.397 . S
C1170 C1175 1.363 . S
C1171 H1142 0.950 . S
C1171 C1170 1.397 . S
C1171 C1172 1.334 . S
C1172 H1143 0.950 . S
C1172 C1171 1.334 . S
C1172 C1173 1.287 . S
C1173 C1172 1.287 . S
C1173 C1174 1.524 . S
C1173 H1176 0.999 . S
C1174 H1144 0.950 . S
C1174 C1173 1.524 . S
C1174 C1175 1.415 . S
C1175 H1145 0.950 . S
C1175 C1170 1.363 . S
C1175 C1174 1.415 . S
H1176 C1173 0.999 . S
H1177 C1158 0.913 . S
H1178 C1196 0.951 . S
H1179 C1198 0.951 . S
H1180 C1200 0.950 . S
H1181 C1201 0.950 . S
H1182 C1203 0.950 . S
H1183 C1206 0.950 . S
H1184 C1207 0.950 . S
H1185 C1209 0.950 . S
H1186 C1210 0.950 . S
H1187 C1211 0.951 . S
H1188 C1213 0.951 . S
H1189 C1215 0.950 . S
H1190 C1216 0.950 . S
H1191 C1218 0.950 . S
H1192 C1221 0.950 . S
H1193 C1222 0.950 . S
H1194 C1224 0.950 . S
H1195 C1225 0.950 . S
C1196 H1178 0.951 . S
C1196 C1197 1.366 . S
C1196 C1198 1.388 . S
C1197 C1196 1.366 . S
C1197 C1201 1.385 . S
C1198 H1179 0.951 . S
C1198 C1196 1.388 . S
C1198 C1199 1.366 . S
C1199 C1198 1.366 . S
C1199 C1200 1.414 . S
C1199 C1202 1.499 . S
C1200 H1180 0.950 . S
C1200 C1199 1.414 . S
C1200 C1201 1.374 . S
C1201 H1181 0.950 . S
C1201 C1197 1.385 . S
C1201 C1200 1.374 . S
C1202 C1199 1.499 . S
C1202 C1203 1.373 . S
C1202 C1204 1.389 . S
C1203 H1182 0.950 . S
C1203 C1202 1.373 . S
C1203 C1219 1.377 . S
C1204 C1202 1.389 . S
C1204 C1205 1.524 . S
C1204 C1218 1.377 . S
C1205 C1204 1.524 . S
C1205 C1206 1.397 . S
C1205 C1210 1.363 . S
C1206 H1183 0.950 . S
C1206 C1205 1.397 . S
C1206 C1207 1.334 . S
C1207 H1184 0.950 . S
C1207 C1206 1.334 . S
C1207 C1208 1.287 . S
C1208 C1207 1.287 . S
C1208 C1209 1.524 . S
C1208 H1227 0.913 . S
C1209 H1185 0.950 . S
C1209 C1208 1.524 . S
C1209 C1210 1.415 . S
C1210 H1186 0.950 . S
C1210 C1205 1.363 . S
C1210 C1209 1.415 . S
C1211 H1187 0.951 . S
C1211 C1212 1.366 . S
C1211 C1213 1.388 . S
C1212 C1211 1.366 . S
C1212 C1216 1.385 . S
C1213 H1188 0.951 . S
C1213 C1211 1.388 . S
C1213 C1214 1.366 . S
C1214 C1213 1.366 . S
C1214 C1215 1.414 . S
C1214 C1217 1.499 . S
C1215 H1189 0.950 . S
C1215 C1214 1.414 . S
C1215 C1216 1.374 . S
C1216 H1190 0.950 . S
C1216 C1212 1.385 . S
C1216 C1215 1.374 . S
C1217 C1214 1.499 . S
C1217 C1218 1.373 . S
C1217 C1219 1.389 . S
C1218 H1191 0.950 . S
C1218 C1204 1.377 . S
C1218 C1217 1.373 . S
C1219 C1203 1.377 . S
C1219 C1217 1.389 . S
C1219 C1220 1.524 . S
C1220 C1219 1.524 . S
C1220 C1221 1.397 . S
C1220 C1225 1.363 . S
C1221 H1192 0.950 . S
C1221 C1220 1.397 . S
C1221 C1222 1.334 . S
C1222 H1193 0.950 . S
C1222 C1221 1.334 . S
C1222 C1223 1.287 . S
C1223 C1222 1.287 . S
C1223 C1224 1.524 . S
C1223 H1226 0.999 . S
C1224 H1194 0.950 . S
C1224 C1223 1.524 . S
C1224 C1225 1.415 . S
C1225 H1195 0.950 . S
C1225 C1220 1.363 . S
C1225 C1224 1.415 . S
H1226 C1223 0.999 . S
H1227 C1208 0.913 . S
H1228 C1246 0.951 . S
H1229 C1248 0.951 . S
H1230 C1250 0.950 . S
H1231 C1251 0.950 1_556 S
H1232 C1253 0.950 . S
H1233 C1256 0.950 1_556 S
H1234 C1257 0.950 . S
H1235 C1259 0.950 . S
H1236 C1260 0.950 . S
H1237 C1261 0.951 . S
H1238 C1263 0.951 . S
H1239 C1265 0.950 . S
H1240 C1266 0.950 1_554 S
H1241 C1268 0.950 . S
H1242 C1271 0.950 1_554 S
H1243 C1272 0.950 . S
H1244 C1274 0.950 . S
H1245 C1275 0.950 . S
C1246 H1228 0.951 . S
C1246 C1247 1.366 . S
C1246 C1248 1.388 . S
C1247 C1246 1.366 . S
C1247 C1251 1.385 . S
C1248 H1229 0.951 . S
C1248 C1246 1.388 . S
C1248 C1249 1.366 . S
C1249 C1248 1.366 . S
C1249 C1250 1.414 1_554 S
C1249 C1252 1.499 . S
C1250 H1230 0.950 . S
C1250 C1249 1.414 1_556 S
C1250 C1251 1.374 1_556 S
C1251 H1231 0.950 1_554 S
C1251 C1247 1.385 . S
C1251 C1250 1.374 1_554 S
C1252 C1249 1.499 . S
C1252 C1253 1.373 1_554 S
C1252 C1254 1.389 . S
C1253 H1232 0.950 . S
C1253 C1252 1.373 1_556 S
C1253 C1269 1.377 . S
C1254 C1252 1.389 . S
C1254 C1255 1.524 . S
C1254 C1268 1.377 . S
C1255 C1254 1.524 . S
C1255 C1256 1.397 . S
C1255 C1260 1.363 . S
C1256 H1233 0.950 1_554 S
C1256 C1255 1.397 . S
C1256 C1257 1.334 . S
C1257 H1234 0.950 . S
C1257 C1256 1.334 . S
C1257 C1258 1.287 . S
C1258 C1257 1.287 . S
C1258 C1259 1.524 . S
C1258 H1277 0.913 . S
C1259 H1235 0.950 . S
C1259 C1258 1.524 . S
C1259 C1260 1.415 . S
C1260 H1236 0.950 . S
C1260 C1255 1.363 . S
C1260 C1259 1.415 . S
C1261 H1237 0.951 . S
C1261 C1262 1.366 . S
C1261 C1263 1.388 . S
C1262 C1261 1.366 . S
C1262 C1266 1.385 . S
C1263 H1238 0.951 . S
C1263 C1261 1.388 . S
C1263 C1264 1.366 . S
C1264 C1263 1.366 . S
C1264 C1265 1.414 1_556 S
C1264 C1267 1.499 . S
C1265 H1239 0.950 . S
C1265 C1264 1.414 1_554 S
C1265 C1266 1.374 1_554 S
C1266 H1240 0.950 1_556 S
C1266 C1262 1.385 . S
C1266 C1265 1.374 1_556 S
C1267 C1264 1.499 . S
C1267 C1268 1.373 1_556 S
C1267 C1269 1.389 . S
C1268 H1241 0.950 . S
C1268 C1254 1.377 . S
C1268 C1267 1.373 1_554 S
C1269 C1253 1.377 . S
C1269 C1267 1.389 . S
C1269 C1270 1.524 . S
C1270 C1269 1.524 . S
C1270 C1271 1.397 . S
C1270 C1275 1.363 . S
C1271 H1242 0.950 1_556 S
C1271 C1270 1.397 . S
C1271 C1272 1.334 . S
C1272 H1243 0.950 . S
C1272 C1271 1.334 . S
C1272 C1273 1.287 . S
C1273 C1272 1.287 . S
C1273 C1274 1.524 . S
C1273 H1276 0.999 . S
C1274 H1244 0.950 . S
C1274 C1273 1.524 . S
C1274 C1275 1.415 . S
C1275 H1245 0.950 . S
C1275 C1270 1.363 . S
C1275 C1274 1.415 . S
H1276 C1273 0.999 . S
H1277 C1258 0.913 . S
H1278 C1296 0.951 . S
H1279 C1298 0.951 . S
H1280 C1300 0.950 . S
H1281 C1301 0.950 . S
H1282 C1303 0.950 . S
H1283 C1306 0.950 . S
H1284 C1307 0.950 . S
H1285 C1309 0.950 . S
H1286 C1310 0.950 . S
H1287 C1311 0.951 . S
H1288 C1313 0.951 . S
H1289 C1315 0.950 . S
H1290 C1316 0.950 . S
H1291 C1318 0.950 . S
H1292 C1321 0.950 . S
H1293 C1322 0.950 . S
H1294 C1324 0.950 . S
H1295 C1325 0.950 . S
C1296 H1278 0.951 . S
C1296 C1297 1.366 . S
C1296 C1298 1.388 . S
C1297 C1296 1.366 . S
C1297 C1301 1.385 . S
C1298 H1279 0.951 . S
C1298 C1296 1.388 . S
C1298 C1299 1.366 . S
C1299 C1298 1.366 . S
C1299 C1300 1.414 . S
C1299 C1302 1.499 . S
C1300 H1280 0.950 . S
C1300 C1299 1.414 . S
C1300 C1301 1.374 . S
C1301 H1281 0.950 . S
C1301 C1297 1.385 . S
C1301 C1300 1.374 . S
C1302 C1299 1.499 . S
C1302 C1303 1.373 . S
C1302 C1304 1.389 . S
C1303 H1282 0.950 . S
C1303 C1302 1.373 . S
C1303 C1319 1.377 . S
C1304 C1302 1.389 . S
C1304 C1305 1.524 . S
C1304 C1318 1.377 . S
C1305 C1304 1.524 . S
C1305 C1306 1.397 . S
C1305 C1310 1.363 . S
C1306 H1283 0.950 . S
C1306 C1305 1.397 . S
C1306 C1307 1.334 . S
C1307 H1284 0.950 . S
C1307 C1306 1.334 . S
C1307 C1308 1.287 . S
C1308 C1307 1.287 . S
C1308 C1309 1.524 . S
C1308 H1327 0.913 . S
C1309 H1285 0.950 . S
C1309 C1308 1.524 . S
C1309 C1310 1.415 . S
C1310 H1286 0.950 . S
C1310 C1305 1.363 . S
C1310 C1309 1.415 . S
C1311 H1287 0.951 . S
C1311 C1312 1.366 . S
C1311 C1313 1.388 . S
C1312 C1311 1.366 . S
C1312 C1316 1.385 . S
C1313 H1288 0.951 . S
C1313 C1311 1.388 . S
C1313 C1314 1.366 . S
C1314 C1313 1.366 . S
C1314 C1315 1.414 . S
C1314 C1317 1.499 . S
C1315 H1289 0.950 . S
C1315 C1314 1.414 . S
C1315 C1316 1.374 . S
C1316 H1290 0.950 . S
C1316 C1312 1.385 . S
C1316 C1315 1.374 . S
C1317 C1314 1.499 . S
C1317 C1318 1.373 . S
C1317 C1319 1.389 . S
C1318 H1291 0.950 . S
C1318 C1304 1.377 . S
C1318 C1317 1.373 . S
C1319 C1303 1.377 . S
C1319 C1317 1.389 . S
C1319 C1320 1.524 . S
C1320 C1319 1.524 . S
C1320 C1321 1.397 . S
C1320 C1325 1.363 . S
C1321 H1292 0.950 . S
C1321 C1320 1.397 . S
C1321 C1322 1.334 . S
C1322 H1293 0.950 . S
C1322 C1321 1.334 . S
C1322 C1323 1.287 . S
C1323 C1322 1.287 . S
C1323 C1324 1.524 . S
C1323 H1326 0.999 . S
C1324 H1294 0.950 . S
C1324 C1323 1.524 . S
C1324 C1325 1.415 . S
C1325 H1295 0.950 . S
C1325 C1320 1.363 . S
C1325 C1324 1.415 . S
H1326 C1323 0.999 . S
H1327 C1308 0.913 . S
H1328 C1346 0.951 . S
H1329 C1348 0.951 . S
H1330 C1350 0.972 . S
H1331 C1351 0.955 . S
H1332 C1353 0.950 . S
H1333 C1356 0.950 . S
H1334 C1357 0.950 . S
H1335 C1359 0.950 . S
H1336 C1360 0.950 . S
H1337 C1361 0.942 1_655 S
H1338 C1363 0.931 1_655 S
H1339 C1365 0.950 . S
H1340 C1366 0.950 . S
H1341 C1368 0.950 . S
H1342 C1371 0.950 . S
H1343 C1372 0.950 . S
H1344 C1374 0.950 . S
H1345 C1375 0.950 . S
C1346 H1328 0.951 . S
C1346 C1347 1.366 . S
C1346 C1348 1.388 . S
C1347 C1346 1.366 . S
C1347 C1351 1.379 1_455 S
C1348 H1329 0.951 . S
C1348 C1346 1.388 . S
C1348 C1349 1.366 . S
C1349 C1348 1.366 . S
C1349 C1350 1.393 1_455 S
C1349 C1352 1.499 . S
C1350 H1330 0.972 . S
C1350 C1349 1.393 1_655 S
C1350 C1351 1.374 . S
C1351 H1331 0.955 . S
C1351 C1347 1.379 1_655 S
C1351 C1350 1.374 . S
C1352 C1349 1.499 . S
C1352 C1353 1.373 . S
C1352 C1354 1.389 . S
C1353 H1332 0.950 . S
C1353 C1352 1.373 . S
C1353 C1369 1.377 . S
C1354 C1352 1.389 . S
C1354 C1355 1.524 . S
C1354 C1368 1.377 . S
C1355 C1354 1.524 . S
C1355 C1356 1.397 . S
C1355 C1360 1.363 . S
C1356 H1333 0.950 . S
C1356 C1355 1.397 . S
C1356 C1357 1.334 . S
C1357 H1334 0.950 . S
C1357 C1356 1.334 . S
C1357 C1358 1.287 . S
C1358 C1357 1.287 . S
C1358 C1359 1.524 . S
C1358 H1377 0.913 1_554 S
C1359 H1335 0.950 . S
C1359 C1358 1.524 . S
C1359 C1360 1.415 . S
C1360 H1336 0.950 . S
C1360 C1355 1.363 . S
C1360 C1359 1.415 . S
C1361 H1337 0.942 1_455 S
C1361 C1362 1.375 . S
C1361 C1363 1.388 . S
C1362 C1361 1.375 . S
C1362 C1366 1.385 . S
C1363 H1338 0.931 1_455 S
C1363 C1361 1.388 . S
C1363 C1364 1.385 . S
C1364 C1363 1.385 . S
C1364 C1365 1.414 . S
C1364 C1367 1.499 . S
C1365 H1339 0.950 . S
C1365 C1364 1.414 . S
C1365 C1366 1.374 . S
C1366 H1340 0.950 . S
C1366 C1362 1.385 . S
C1366 C1365 1.374 . S
C1367 C1364 1.499 . S
C1367 C1368 1.373 . S
C1367 C1369 1.389 . S
C1368 H1341 0.950 . S
C1368 C1354 1.377 . S
C1368 C1367 1.373 . S
C1369 C1353 1.377 . S
C1369 C1367 1.389 . S
C1369 C1370 1.524 . S
C1370 C1369 1.524 . S
C1370 C1371 1.397 . S
C1370 C1375 1.363 1_455 S
C1371 H1342 0.950 . S
C1371 C1370 1.397 . S
C1371 C1372 1.334 . S
C1372 H1343 0.950 . S
C1372 C1371 1.334 . S
C1372 C1373 1.283 1_455 S
C1373 C1372 1.283 1_655 S
C1373 C1374 1.528 . S
C1373 H1376 1.000 . S
C1374 H1344 0.950 . S
C1374 C1373 1.528 . S
C1374 C1375 1.415 . S
C1375 H1345 0.950 . S
C1375 C1370 1.363 1_655 S
C1375 C1374 1.415 . S
H1376 C1373 1.000 . S
H1377 C1358 0.913 1_556 S
H1378 C1396 0.951 . S
H1379 C1398 0.951 . S
H1380 C1400 1.010 . S
H1381 C1401 0.994 . S
H1382 C1403 0.954 . S
H1383 C1406 0.950 . S
H1384 C1407 0.964 . S
H1385 C1409 0.950 . S
H1386 C1410 0.950 . S
H1387 C1411 0.966 . S
H1388 C1413 0.959 . S
H1389 C1415 0.950 . S
H1390 C1416 0.950 . S
H1391 C1418 0.950 . S
H1392 C1421 0.950 . S
H1393 C1422 0.950 . S
H1394 C1424 0.950 . S
H1395 C1425 0.950 . S
C1396 H1378 0.951 . S
C1396 C1397 1.366 . S
C1396 C1398 1.388 . S
C1397 C1396 1.366 . S
C1397 C1401 1.340 1_545 S
C1398 H1379 0.951 . S
C1398 C1396 1.388 . S
C1398 C1399 1.366 . S
C1399 C1398 1.366 . S
C1399 C1400 1.356 1_545 S
C1399 C1402 1.499 . S
C1400 H1380 1.010 . S
C1400 C1399 1.356 1_565 S
C1400 C1401 1.374 . S
C1401 H1381 0.994 . S
C1401 C1397 1.340 1_565 S
C1401 C1400 1.374 . S
C1402 C1399 1.499 . S
C1402 C1403 1.373 . S
C1402 C1404 1.389 . S
C1403 H1382 0.954 . S
C1403 C1402 1.373 . S
C1403 C1419 1.377 . S
C1404 C1402 1.389 . S
C1404 C1405 1.524 . S
C1404 C1418 1.377 . S
C1405 C1404 1.524 . S
C1405 C1406 1.397 . S
C1405 C1410 1.363 . S
C1406 H1383 0.950 . S
C1406 C1405 1.397 . S
C1406 C1407 1.334 . S
C1407 H1384 0.964 . S
C1407 C1406 1.334 . S
C1407 C1408 1.287 . S
C1408 C1407 1.287 . S
C1408 C1409 1.524 . S
C1408 H1427 0.913 1_556 S
C1409 H1385 0.950 . S
C1409 C1408 1.524 . S
C1409 C1410 1.415 . S
C1410 H1386 0.950 . S
C1410 C1405 1.363 . S
C1410 C1409 1.415 . S
C1411 H1387 0.966 . S
C1411 C1412 1.351 1_565 S
C1411 C1413 1.388 . S
C1412 C1411 1.351 1_545 S
C1412 C1416 1.385 . S
C1413 H1388 0.959 . S
C1413 C1411 1.388 . S
C1413 C1414 1.357 1_565 S
C1414 C1413 1.357 1_545 S
C1414 C1415 1.414 . S
C1414 C1417 1.499 . S
C1415 H1389 0.950 . S
C1415 C1414 1.414 . S
C1415 C1416 1.374 . S
C1416 H1390 0.950 . S
C1416 C1412 1.385 . S
C1416 C1415 1.374 . S
C1417 C1414 1.499 . S
C1417 C1418 1.373 . S
C1417 C1419 1.389 . S
C1418 H1391 0.950 . S
C1418 C1404 1.377 . S
C1418 C1417 1.373 . S
C1419 C1403 1.377 . S
C1419 C1417 1.389 . S
C1419 C1420 1.507 1_545 S
C1420 C1419 1.507 1_565 S
C1420 C1421 1.369 1_565 S
C1420 C1425 1.406 . S
C1421 H1392 0.950 . S
C1421 C1420 1.369 1_545 S
C1421 C1422 1.334 . S
C1422 H1393 0.950 . S
C1422 C1421 1.334 . S
C1422 C1423 1.287 1_545 S
C1423 C1422 1.287 1_565 S
C1423 C1424 1.524 . S
C1423 H1426 0.999 . S
C1424 H1394 0.950 . S
C1424 C1423 1.524 . S
C1424 C1425 1.415 . S
C1425 H1395 0.950 . S
C1425 C1420 1.406 . S
C1425 C1424 1.415 . S
H1426 C1423 0.999 . S
H1427 C1408 0.913 1_554 S
H1428 C1446 0.951 . S
H1429 C1448 0.951 . S
H1430 C1450 0.950 . S
H1431 C1451 0.950 . S
H1432 C1453 0.950 . S
H1433 C1456 0.950 . S
H1434 C1457 0.950 . S
H1435 C1459 0.950 . S
H1436 C1460 0.950 . S
H1437 C1461 0.951 . S
H1438 C1463 0.951 . S
H1439 C1465 0.950 . S
H1440 C1466 0.950 . S
H1441 C1468 0.950 . S
H1442 C1471 0.950 . S
H1443 C1472 0.950 . S
H1444 C1474 0.950 . S
H1445 C1475 0.950 . S
C1446 H1428 0.951 . S
C1446 C1447 1.366 . S
C1446 C1448 1.388 . S
C1447 C1446 1.366 . S
C1447 C1451 1.385 . S
C1448 H1429 0.951 . S
C1448 C1446 1.388 . S
C1448 C1449 1.366 . S
C1449 C1448 1.366 . S
C1449 C1450 1.414 . S
C1449 C1452 1.499 . S
C1450 H1430 0.950 . S
C1450 C1449 1.414 . S
C1450 C1451 1.374 . S
C1451 H1431 0.950 . S
C1451 C1447 1.385 . S
C1451 C1450 1.374 . S
C1452 C1449 1.499 . S
C1452 C1453 1.373 . S
C1452 C1454 1.389 . S
C1453 H1432 0.950 . S
C1453 C1452 1.373 . S
C1453 C1469 1.377 . S
C1454 C1452 1.389 . S
C1454 C1455 1.524 . S
C1454 C1468 1.377 . S
C1455 C1454 1.524 . S
C1455 C1456 1.397 . S
C1455 C1460 1.363 . S
C1456 H1433 0.950 . S
C1456 C1455 1.397 . S
C1456 C1457 1.334 . S
C1457 H1434 0.950 . S
C1457 C1456 1.334 . S
C1457 C1458 1.287 . S
C1458 C1457 1.287 . S
C1458 C1459 1.524 . S
C1458 H1477 0.913 . S
C1459 H1435 0.950 . S
C1459 C1458 1.524 . S
C1459 C1460 1.415 . S
C1460 H1436 0.950 . S
C1460 C1455 1.363 . S
C1460 C1459 1.415 . S
C1461 H1437 0.951 . S
C1461 C1462 1.366 . S
C1461 C1463 1.388 . S
C1462 C1461 1.366 . S
C1462 C1466 1.385 . S
C1463 H1438 0.951 . S
C1463 C1461 1.388 . S
C1463 C1464 1.366 . S
C1464 C1463 1.366 . S
C1464 C1465 1.414 . S
C1464 C1467 1.499 . S
C1465 H1439 0.950 . S
C1465 C1464 1.414 . S
C1465 C1466 1.374 . S
C1466 H1440 0.950 . S
C1466 C1462 1.385 . S
C1466 C1465 1.374 . S
C1467 C1464 1.499 . S
C1467 C1468 1.373 . S
C1467 C1469 1.389 . S
C1468 H1441 0.950 . S
C1468 C1454 1.377 . S
C1468 C1467 1.373 . S
C1469 C1453 1.377 . S
C1469 C1467 1.389 . S
C1469 C1470 1.524 . S
C1470 C1469 1.524 . S
C1470 C1471 1.397 . S
C1470 C1475 1.363 . S
C1471 H1442 0.950 . S
C1471 C1470 1.397 . S
C1471 C1472 1.334 . S
C1472 H1443 0.950 . S
C1472 C1471 1.334 . S
C1472 C1473 1.287 . S
C1473 C1472 1.287 . S
C1473 C1474 1.524 . S
C1473 H1476 0.999 . S
C1474 H1444 0.950 . S
C1474 C1473 1.524 . S
C1474 C1475 1.415 . S
C1475 H1445 0.950 . S
C1475 C1470 1.363 . S
C1475 C1474 1.415 . S
H1476 C1473 0.999 . S
H1477 C1458 0.913 . S
H1478 C1496 0.951 . S
H1479 C1498 0.951 . S
H1480 C1500 0.950 . S
H1481 C1501 0.950 . S
H1482 C1503 0.950 . S
H1483 C1506 0.950 . S
H1484 C1507 0.950 . S
H1485 C1509 0.950 . S
H1486 C1510 0.950 . S
H1487 C1511 0.951 . S
H1488 C1513 0.951 . S
H1489 C1515 0.950 . S
H1490 C1516 0.950 . S
H1491 C1518 0.950 . S
H1492 C1521 0.950 . S
H1493 C1522 0.950 . S
H1494 C1524 0.950 . S
H1495 C1525 0.950 . S
C1496 H1478 0.951 . S
C1496 C1497 1.366 . S
C1496 C1498 1.388 . S
C1497 C1496 1.366 . S
C1497 C1501 1.385 . S
C1498 H1479 0.951 . S
C1498 C1496 1.388 . S
C1498 C1499 1.366 . S
C1499 C1498 1.366 . S
C1499 C1500 1.414 . S
C1499 C1502 1.499 . S
C1500 H1480 0.950 . S
C1500 C1499 1.414 . S
C1500 C1501 1.374 . S
C1501 H1481 0.950 . S
C1501 C1497 1.385 . S
C1501 C1500 1.374 . S
C1502 C1499 1.499 . S
C1502 C1503 1.373 . S
C1502 C1504 1.389 . S
C1503 H1482 0.950 . S
C1503 C1502 1.373 . S
C1503 C1519 1.377 . S
C1504 C1502 1.389 . S
C1504 C1505 1.524 . S
C1504 C1518 1.377 . S
C1505 C1504 1.524 . S
C1505 C1506 1.397 . S
C1505 C1510 1.363 . S
C1506 H1483 0.950 . S
C1506 C1505 1.397 . S
C1506 C1507 1.334 . S
C1507 H1484 0.950 . S
C1507 C1506 1.334 . S
C1507 C1508 1.287 . S
C1508 C1507 1.287 . S
C1508 C1509 1.524 . S
C1508 H1527 0.913 . S
C1509 H1485 0.950 . S
C1509 C1508 1.524 . S
C1509 C1510 1.415 . S
C1510 H1486 0.950 . S
C1510 C1505 1.363 . S
C1510 C1509 1.415 . S
C1511 H1487 0.951 . S
C1511 C1512 1.366 . S
C1511 C1513 1.388 . S
C1512 C1511 1.366 . S
C1512 C1516 1.385 . S
C1513 H1488 0.951 . S
C1513 C1511 1.388 . S
C1513 C1514 1.366 . S
C1514 C1513 1.366 . S
C1514 C1515 1.414 . S
C1514 C1517 1.499 . S
C1515 H1489 0.950 . S
C1515 C1514 1.414 . S
C1515 C1516 1.374 . S
C1516 H1490 0.950 . S
C1516 C1512 1.385 . S
C1516 C1515 1.374 . S
C1517 C1514 1.499 . S
C1517 C1518 1.373 . S
C1517 C1519 1.389 . S
C1518 H1491 0.950 . S
C1518 C1504 1.377 . S
C1518 C1517 1.373 . S
C1519 C1503 1.377 . S
C1519 C1517 1.389 . S
C1519 C1520 1.524 . S
C1520 C1519 1.524 . S
C1520 C1521 1.397 . S
C1520 C1525 1.363 . S
C1521 H1492 0.950 . S
C1521 C1520 1.397 . S
C1521 C1522 1.334 . S
C1522 H1493 0.950 . S
C1522 C1521 1.334 . S
C1522 C1523 1.287 . S
C1523 C1522 1.287 . S
C1523 C1524 1.524 . S
C1523 H1526 0.999 . S
C1524 H1494 0.950 . S
C1524 C1523 1.524 . S
C1524 C1525 1.415 . S
C1525 H1495 0.950 . S
C1525 C1520 1.363 . S
C1525 C1524 1.415 . S
H1526 C1523 0.999 . S
H1527 C1508 0.913 . S
H1528 C1546 0.949 . S
H1529 C1548 0.956 1_455 S
H1530 C1550 0.950 . S
H1531 C1551 0.950 . S
H1532 C1553 0.950 . S
H1533 C1556 0.950 . S
H1534 C1557 0.950 . S
H1535 C1559 0.950 . S
H1536 C1560 0.950 . S
H1537 C1561 0.951 . S
H1538 C1563 0.951 . S
H1539 C1565 0.994 . S
H1540 C1566 0.978 . S
H1541 C1568 0.950 . S
H1542 C1571 0.950 . S
H1543 C1572 0.963 . S
H1544 C1574 0.950 . S
H1545 C1575 0.950 . S
C1546 H1528 0.949 . S
C1546 C1547 1.368 1_455 S
C1546 C1548 1.388 1_455 S
C1547 C1546 1.368 1_655 S
C1547 C1551 1.385 . S
C1548 H1529 0.956 1_655 S
C1548 C1546 1.388 1_655 S
C1548 C1549 1.360 . S
C1549 C1548 1.360 . S
C1549 C1550 1.414 . S
C1549 C1552 1.499 . S
C1550 H1530 0.950 . S
C1550 C1549 1.414 . S
C1550 C1551 1.374 . S
C1551 H1531 0.950 . S
C1551 C1547 1.385 . S
C1551 C1550 1.374 . S
C1552 C1549 1.499 . S
C1552 C1553 1.373 . S
C1552 C1554 1.389 . S
C1553 H1532 0.950 . S
C1553 C1552 1.373 . S
C1553 C1569 1.377 . S
C1554 C1552 1.389 . S
C1554 C1555 1.524 . S
C1554 C1568 1.377 . S
C1555 C1554 1.524 . S
C1555 C1556 1.397 . S
C1555 C1560 1.363 1_655 S
C1556 H1533 0.950 . S
C1556 C1555 1.397 . S
C1556 C1557 1.334 . S
C1557 H1534 0.950 . S
C1557 C1556 1.334 . S
C1557 C1558 1.287 1_655 S
C1558 C1557 1.287 1_455 S
C1558 C1559 1.524 . S
C1558 H1577 0.913 . S
C1559 H1535 0.950 . S
C1559 C1558 1.524 . S
C1559 C1560 1.415 . S
C1560 H1536 0.950 . S
C1560 C1555 1.363 1_455 S
C1560 C1559 1.415 . S
C1561 H1537 0.951 . S
C1561 C1562 1.366 . S
C1561 C1563 1.388 . S
C1562 C1561 1.366 . S
C1562 C1566 1.356 1_655 S
C1563 H1538 0.951 . S
C1563 C1561 1.388 . S
C1563 C1564 1.366 . S
C1564 C1563 1.366 . S
C1564 C1565 1.371 1_655 S
C1564 C1567 1.499 . S
C1565 H1539 0.994 . S
C1565 C1564 1.371 1_455 S
C1565 C1566 1.374 . S
C1566 H1540 0.978 . S
C1566 C1562 1.356 1_455 S
C1566 C1565 1.374 . S
C1567 C1564 1.499 . S
C1567 C1568 1.373 . S
C1567 C1569 1.389 . S
C1568 H1541 0.950 . S
C1568 C1554 1.377 . S
C1568 C1567 1.373 . S
C1569 C1553 1.377 . S
C1569 C1567 1.389 . S
C1569 C1570 1.524 . S
C1570 C1569 1.524 . S
C1570 C1571 1.397 . S
C1570 C1575 1.363 . S
C1571 H1542 0.950 . S
C1571 C1570 1.397 . S
C1571 C1572 1.334 . S
C1572 H1543 0.963 . S
C1572 C1571 1.334 . S
C1572 C1573 1.287 . S
C1573 C1572 1.287 . S
C1573 C1574 1.524 . S
C1573 H1576 0.999 1_556 S
C1574 H1544 0.950 . S
C1574 C1573 1.524 . S
C1574 C1575 1.415 . S
C1575 H1545 0.950 . S
C1575 C1570 1.363 . S
C1575 C1574 1.415 . S
H1576 C1573 0.999 1_554 S
H1577 C1558 0.913 . S
H1578 C1596 0.951 . S
H1579 C1598 0.951 . S
H1580 C1600 0.950 . S
H1581 C1601 0.950 . S
H1582 C1603 0.950 . S
H1583 C1606 0.950 . S
H1584 C1607 0.950 . S
H1585 C1609 0.950 . S
H1586 C1610 0.950 1_565 S
H1587 C1611 0.951 . S
H1588 C1613 0.951 . S
H1589 C1615 0.950 . S
H1590 C1616 0.950 . S
H1591 C1618 0.950 . S
H1592 C1621 0.950 . S
H1593 C1622 0.950 . S
H1594 C1624 0.950 . S
H1595 C1625 0.950 . S
C1596 H1578 0.951 . S
C1596 C1597 1.366 . S
C1596 C1598 1.388 . S
C1597 C1596 1.366 . S
C1597 C1601 1.385 . S
C1598 H1579 0.951 . S
C1598 C1596 1.388 . S
C1598 C1599 1.366 . S
C1599 C1598 1.366 . S
C1599 C1600 1.414 . S
C1599 C1602 1.499 . S
C1600 H1580 0.950 . S
C1600 C1599 1.414 . S
C1600 C1601 1.374 . S
C1601 H1581 0.950 . S
C1601 C1597 1.385 . S
C1601 C1600 1.374 . S
C1602 C1599 1.499 . S
C1602 C1603 1.373 . S
C1602 C1604 1.389 . S
C1603 H1582 0.950 . S
C1603 C1602 1.373 . S
C1603 C1619 1.377 . S
C1604 C1602 1.389 . S
C1604 C1605 1.524 1_565 S
C1604 C1618 1.377 . S
C1605 C1604 1.524 1_545 S
C1605 C1606 1.397 . S
C1605 C1610 1.363 . S
C1606 H1583 0.950 . S
C1606 C1605 1.397 . S
C1606 C1607 1.334 . S
C1607 H1584 0.950 . S
C1607 C1606 1.334 . S
C1607 C1608 1.287 . S
C1608 C1607 1.287 . S
C1608 C1609 1.524 . S
C1608 H1627 0.913 . S
C1609 H1585 0.950 . S
C1609 C1608 1.524 . S
C1609 C1610 1.415 . S
C1610 H1586 0.950 1_545 S
C1610 C1605 1.363 . S
C1610 C1609 1.415 . S
C1611 H1587 0.951 . S
C1611 C1612 1.366 . S
C1611 C1613 1.388 . S
C1612 C1611 1.366 . S
C1612 C1616 1.385 . S
C1613 H1588 0.951 . S
C1613 C1611 1.388 . S
C1613 C1614 1.366 . S
C1614 C1613 1.366 . S
C1614 C1615 1.414 . S
C1614 C1617 1.499 . S
C1615 H1589 0.950 . S
C1615 C1614 1.414 . S
C1615 C1616 1.374 . S
C1616 H1590 0.950 . S
C1616 C1612 1.385 . S
C1616 C1615 1.374 . S
C1617 C1614 1.499 . S
C1617 C1618 1.373 . S
C1617 C1619 1.389 . S
C1618 H1591 0.950 . S
C1618 C1604 1.377 . S
C1618 C1617 1.373 . S
C1619 C1603 1.377 . S
C1619 C1617 1.389 . S
C1619 C1620 1.524 . S
C1620 C1619 1.524 . S
C1620 C1621 1.397 . S
C1620 C1625 1.363 . S
C1621 H1592 0.950 . S
C1621 C1620 1.397 . S
C1621 C1622 1.334 . S
C1622 H1593 0.950 . S
C1622 C1621 1.334 . S
C1622 C1623 1.287 . S
C1623 C1622 1.287 . S
C1623 C1624 1.524 . S
C1623 H1626 0.999 . S
C1624 H1594 0.950 . S
C1624 C1623 1.524 . S
C1624 C1625 1.415 . S
C1625 H1595 0.950 . S
C1625 C1620 1.363 . S
C1625 C1624 1.415 . S
H1626 C1623 0.999 . S
H1627 C1608 0.913 . S
H1628 C1646 0.951 . S
H1629 C1648 0.951 . S
H1630 C1650 0.950 . S
H1631 C1651 0.950 . S
H1632 C1653 0.950 . S
H1633 C1656 0.950 . S
H1634 C1657 0.950 . S
H1635 C1659 0.950 . S
H1636 C1660 0.950 . S
H1637 C1661 0.951 . S
H1638 C1663 0.951 . S
H1639 C1665 0.950 . S
H1640 C1666 0.950 . S
H1641 C1668 0.950 . S
H1642 C1671 0.950 . S
H1643 C1672 0.950 . S
H1644 C1674 0.950 . S
H1645 C1675 0.950 . S
C1646 H1628 0.951 . S
C1646 C1647 1.366 . S
C1646 C1648 1.388 . S
C1647 C1646 1.366 . S
C1647 C1651 1.385 . S
C1648 H1629 0.951 . S
C1648 C1646 1.388 . S
C1648 C1649 1.366 . S
C1649 C1648 1.366 . S
C1649 C1650 1.414 . S
C1649 C1652 1.499 . S
C1650 H1630 0.950 . S
C1650 C1649 1.414 . S
C1650 C1651 1.374 . S
C1651 H1631 0.950 . S
C1651 C1647 1.385 . S
C1651 C1650 1.374 . S
C1652 C1649 1.499 . S
C1652 C1653 1.373 . S
C1652 C1654 1.389 . S
C1653 H1632 0.950 . S
C1653 C1652 1.373 . S
C1653 C1669 1.377 . S
C1654 C1652 1.389 . S
C1654 C1655 1.524 . S
C1654 C1668 1.377 . S
C1655 C1654 1.524 . S
C1655 C1656 1.397 . S
C1655 C1660 1.363 . S
C1656 H1633 0.950 . S
C1656 C1655 1.397 . S
C1656 C1657 1.334 . S
C1657 H1634 0.950 . S
C1657 C1656 1.334 . S
C1657 C1658 1.287 . S
C1658 C1657 1.287 . S
C1658 C1659 1.524 . S
C1658 H1677 0.913 . S
C1659 H1635 0.950 . S
C1659 C1658 1.524 . S
C1659 C1660 1.415 . S
C1660 H1636 0.950 . S
C1660 C1655 1.363 . S
C1660 C1659 1.415 . S
C1661 H1637 0.951 . S
C1661 C1662 1.366 . S
C1661 C1663 1.388 . S
C1662 C1661 1.366 . S
C1662 C1666 1.385 . S
C1663 H1638 0.951 . S
C1663 C1661 1.388 . S
C1663 C1664 1.366 . S
C1664 C1663 1.366 . S
C1664 C1665 1.414 . S
C1664 C1667 1.499 . S
C1665 H1639 0.950 . S
C1665 C1664 1.414 . S
C1665 C1666 1.374 . S
C1666 H1640 0.950 . S
C1666 C1662 1.385 . S
C1666 C1665 1.374 . S
C1667 C1664 1.499 . S
C1667 C1668 1.373 . S
C1667 C1669 1.389 . S
C1668 H1641 0.950 . S
C1668 C1654 1.377 . S
C1668 C1667 1.373 . S
C1669 C1653 1.377 . S
C1669 C1667 1.389 . S
C1669 C1670 1.524 . S
C1670 C1669 1.524 . S
C1670 C1671 1.397 . S
C1670 C1675 1.363 . S
C1671 H1642 0.950 . S
C1671 C1670 1.397 . S
C1671 C1672 1.334 . S
C1672 H1643 0.950 . S
C1672 C1671 1.334 . S
C1672 C1673 1.287 . S
C1673 C1672 1.287 . S
C1673 C1674 1.524 . S
C1673 H1676 0.999 . S
C1674 H1644 0.950 . S
C1674 C1673 1.524 . S
C1674 C1675 1.415 . S
C1675 H1645 0.950 . S
C1675 C1670 1.363 . S
C1675 C1674 1.415 . S
H1676 C1673 0.999 . S
H1677 C1658 0.913 . S
H1678 C1696 0.951 . S
H1679 C1698 0.951 . S
H1680 C1700 0.950 . S
H1681 C1701 0.950 . S
H1682 C1703 0.950 . S
H1683 C1706 0.950 . S
H1684 C1707 0.950 . S
H1685 C1709 0.950 . S
H1686 C1710 0.950 . S
H1687 C1711 0.951 . S
H1688 C1713 0.951 . S
H1689 C1715 0.950 . S
H1690 C1716 0.950 . S
H1691 C1718 0.950 . S
H1692 C1721 0.950 . S
H1693 C1722 0.950 . S
H1694 C1724 0.950 . S
H1695 C1725 0.950 . S
C1696 H1678 0.951 . S
C1696 C1697 1.366 . S
C1696 C1698 1.388 . S
C1697 C1696 1.366 . S
C1697 C1701 1.385 . S
C1698 H1679 0.951 . S
C1698 C1696 1.388 . S
C1698 C1699 1.366 . S
C1699 C1698 1.366 . S
C1699 C1700 1.414 . S
C1699 C1702 1.499 . S
C1700 H1680 0.950 . S
C1700 C1699 1.414 . S
C1700 C1701 1.374 . S
C1701 H1681 0.950 . S
C1701 C1697 1.385 . S
C1701 C1700 1.374 . S
C1702 C1699 1.499 . S
C1702 C1703 1.373 . S
C1702 C1704 1.389 . S
C1703 H1682 0.950 . S
C1703 C1702 1.373 . S
C1703 C1719 1.377 . S
C1704 C1702 1.389 . S
C1704 C1705 1.524 . S
C1704 C1718 1.377 . S
C1705 C1704 1.524 . S
C1705 C1706 1.397 . S
C1705 C1710 1.363 . S
C1706 H1683 0.950 . S
C1706 C1705 1.397 . S
C1706 C1707 1.334 . S
C1707 H1684 0.950 . S
C1707 C1706 1.334 . S
C1707 C1708 1.287 . S
C1708 C1707 1.287 . S
C1708 C1709 1.524 . S
C1708 H1727 0.913 . S
C1709 H1685 0.950 . S
C1709 C1708 1.524 . S
C1709 C1710 1.415 . S
C1710 H1686 0.950 . S
C1710 C1705 1.363 . S
C1710 C1709 1.415 . S
C1711 H1687 0.951 . S
C1711 C1712 1.366 . S
C1711 C1713 1.388 . S
C1712 C1711 1.366 . S
C1712 C1716 1.385 . S
C1713 H1688 0.951 . S
C1713 C1711 1.388 . S
C1713 C1714 1.366 . S
C1714 C1713 1.366 . S
C1714 C1715 1.414 . S
C1714 C1717 1.499 . S
C1715 H1689 0.950 . S
C1715 C1714 1.414 . S
C1715 C1716 1.374 . S
C1716 H1690 0.950 . S
C1716 C1712 1.385 . S
C1716 C1715 1.374 . S
C1717 C1714 1.499 . S
C1717 C1718 1.373 . S
C1717 C1719 1.389 . S
C1718 H1691 0.950 . S
C1718 C1704 1.377 . S
C1718 C1717 1.373 . S
C1719 C1703 1.377 . S
C1719 C1717 1.389 . S
C1719 C1720 1.524 . S
C1720 C1719 1.524 . S
C1720 C1721 1.397 . S
C1720 C1725 1.363 . S
C1721 H1692 0.950 . S
C1721 C1720 1.397 . S
C1721 C1722 1.334 . S
C1722 H1693 0.950 . S
C1722 C1721 1.334 . S
C1722 C1723 1.287 . S
C1723 C1722 1.287 . S
C1723 C1724 1.524 . S
C1723 H1726 0.999 . S
C1724 H1694 0.950 . S
C1724 C1723 1.524 . S
C1724 C1725 1.415 . S
C1725 H1695 0.950 . S
C1725 C1720 1.363 . S
C1725 C1724 1.415 . S
H1726 C1723 0.999 . S
H1727 C1708 0.913 . S
H1728 C1746 0.951 1_655 S
H1729 C1748 0.951 1_655 S
H1730 C1750 0.950 . S
H1731 C1751 0.950 . S
H1732 C1753 0.950 . S
H1733 C1756 0.950 1_455 S
H1734 C1757 0.950 . S
H1735 C1759 0.950 . S
H1736 C1760 0.950 . S
H1737 C1761 0.951 . S
H1738 C1763 0.951 . S
H1739 C1765 0.905 1_655 S
H1740 C1766 0.979 . S
H1741 C1768 0.896 1_655 S
H1742 C1771 0.950 . S
H1743 C1772 0.950 . S
H1744 C1774 0.950 . S
H1745 C1775 0.950 . S
C1746 H1728 0.951 1_455 S
C1746 C1747 1.366 . S
C1746 C1748 1.388 . S
C1747 C1746 1.366 . S
C1747 C1751 1.385 . S
C1748 H1729 0.951 1_455 S
C1748 C1746 1.388 . S
C1748 C1749 1.366 . S
C1749 C1748 1.366 . S
C1749 C1750 1.414 . S
C1749 C1752 1.499 . S
C1750 H1730 0.950 . S
C1750 C1749 1.414 . S
C1750 C1751 1.374 . S
C1751 H1731 0.950 . S
C1751 C1747 1.385 . S
C1751 C1750 1.374 . S
C1752 C1749 1.499 . S
C1752 C1753 1.373 . S
C1752 C1754 1.389 . S
C1753 H1732 0.950 . S
C1753 C1752 1.373 . S
C1753 C1769 1.377 . S
C1754 C1752 1.389 . S
C1754 C1755 1.524 1_455 S
C1754 C1768 1.377 . S
C1755 C1754 1.524 1_655 S
C1755 C1756 1.397 . S
C1755 C1760 1.363 . S
C1756 H1733 0.950 1_655 S
C1756 C1755 1.397 . S
C1756 C1757 1.334 . S
C1757 H1734 0.950 . S
C1757 C1756 1.334 . S
C1757 C1758 1.287 . S
C1758 C1757 1.287 . S
C1758 C1759 1.524 . S
C1758 H1777 0.913 . S
C1759 H1735 0.950 . S
C1759 C1758 1.524 . S
C1759 C1760 1.415 . S
C1760 H1736 0.950 . S
C1760 C1755 1.363 . S
C1760 C1759 1.415 . S
C1761 H1737 0.951 . S
C1761 C1762 1.366 . S
C1761 C1763 1.388 . S
C1762 C1761 1.366 . S
C1762 C1766 1.385 . S
C1763 H1738 0.951 . S
C1763 C1761 1.388 . S
C1763 C1764 1.366 . S
C1764 C1763 1.366 . S
C1764 C1765 1.414 . S
C1764 C1767 1.499 . S
C1765 H1739 0.905 1_455 S
C1765 C1764 1.414 . S
C1765 C1766 1.374 . S
C1766 H1740 0.979 . S
C1766 C1762 1.385 . S
C1766 C1765 1.374 . S
C1767 C1764 1.499 . S
C1767 C1768 1.373 . S
C1767 C1769 1.389 . S
C1768 H1741 0.896 1_455 S
C1768 C1754 1.377 . S
C1768 C1767 1.373 . S
C1769 C1753 1.377 . S
C1769 C1767 1.389 . S
C1769 C1770 1.524 . S
C1770 C1769 1.524 . S
C1770 C1771 1.397 . S
C1770 C1775 1.363 . S
C1771 H1742 0.950 . S
C1771 C1770 1.397 . S
C1771 C1772 1.334 . S
C1772 H1743 0.950 . S
C1772 C1771 1.334 . S
C1772 C1773 1.287 . S
C1773 C1772 1.287 . S
C1773 C1774 1.524 . S
C1773 H1776 0.999 . S
C1774 H1744 0.950 . S
C1774 C1773 1.524 . S
C1774 C1775 1.415 . S
C1775 H1745 0.950 . S
C1775 C1770 1.363 . S
C1775 C1774 1.415 . S
H1776 C1773 0.999 . S
H1777 C1758 0.913 . S
H1778 C1796 0.951 . S
H1779 C1798 0.951 . S
H1780 C1800 0.950 . S
H1781 C1801 0.950 . S
H1782 C1803 0.950 . S
H1783 C1806 0.950 . S
H1784 C1807 0.950 . S
H1785 C1809 0.950 . S
H1786 C1810 0.948 1_545 S
H1787 C1811 0.951 . S
H1788 C1813 0.951 . S
H1789 C1815 0.950 . S
H1790 C1816 0.950 . S
H1791 C1818 0.950 . S
H1792 C1821 0.950 . S
H1793 C1822 0.950 . S
H1794 C1824 0.950 . S
H1795 C1825 0.950 . S
C1796 H1778 0.951 . S
C1796 C1797 1.366 . S
C1796 C1798 1.388 . S
C1797 C1796 1.366 . S
C1797 C1801 1.385 . S
C1798 H1779 0.951 . S
C1798 C1796 1.388 . S
C1798 C1799 1.366 . S
C1799 C1798 1.366 . S
C1799 C1800 1.414 . S
C1799 C1802 1.499 1_556 S
C1800 H1780 0.950 . S
C1800 C1799 1.414 . S
C1800 C1801 1.374 . S
C1801 H1781 0.950 . S
C1801 C1797 1.385 . S
C1801 C1800 1.374 . S
C1802 C1799 1.499 1_554 S
C1802 C1803 1.373 . S
C1802 C1804 1.389 . S
C1803 H1782 0.950 . S
C1803 C1802 1.373 . S
C1803 C1819 1.377 . S
C1804 C1802 1.389 . S
C1804 C1805 1.524 1_545 S
C1804 C1818 1.377 . S
C1805 C1804 1.524 1_565 S
C1805 C1806 1.397 . S
C1805 C1810 1.363 . S
C1806 H1783 0.950 . S
C1806 C1805 1.397 . S
C1806 C1807 1.334 1_554 S
C1807 H1784 0.950 . S
C1807 C1806 1.334 1_556 S
C1807 C1808 1.287 . S
C1808 C1807 1.287 . S
C1808 C1809 1.524 1_556 S
C1808 H1827 0.913 . S
C1809 H1785 0.950 . S
C1809 C1808 1.524 1_554 S
C1809 C1810 1.415 . S
C1810 H1786 0.948 1_565 S
C1810 C1805 1.363 . S
C1810 C1809 1.415 . S
C1811 H1787 0.951 . S
C1811 C1812 1.366 . S
C1811 C1813 1.388 . S
C1812 C1811 1.366 . S
C1812 C1816 1.385 . S
C1813 H1788 0.951 . S
C1813 C1811 1.388 . S
C1813 C1814 1.366 . S
C1814 C1813 1.366 . S
C1814 C1815 1.414 . S
C1814 C1817 1.499 . S
C1815 H1789 0.950 . S
C1815 C1814 1.414 . S
C1815 C1816 1.374 . S
C1816 H1790 0.950 . S
C1816 C1812 1.385 . S
C1816 C1815 1.374 . S
C1817 C1814 1.499 . S
C1817 C1818 1.373 . S
C1817 C1819 1.389 . S
C1818 H1791 0.950 . S
C1818 C1804 1.377 . S
C1818 C1817 1.373 . S
C1819 C1803 1.377 . S
C1819 C1817 1.389 . S
C1819 C1820 1.524 . S
C1820 C1819 1.524 . S
C1820 C1821 1.397 . S
C1820 C1825 1.363 . S
C1821 H1792 0.950 . S
C1821 C1820 1.397 . S
C1821 C1822 1.334 . S
C1822 H1793 0.950 . S
C1822 C1821 1.334 . S
C1822 C1823 1.287 . S
C1823 C1822 1.287 . S
C1823 C1824 1.524 . S
C1823 H1826 0.999 . S
C1824 H1794 0.950 . S
C1824 C1823 1.524 . S
C1824 C1825 1.415 . S
C1825 H1795 0.950 . S
C1825 C1820 1.363 . S
C1825 C1824 1.415 . S
H1826 C1823 0.999 . S
H1827 C1808 0.913 . S
H1828 C1846 0.951 . S
H1829 C1848 0.951 . S
H1830 C1850 0.950 . S
H1831 C1851 0.950 . S
H1832 C1853 0.950 . S
H1833 C1856 0.950 . S
H1834 C1857 0.950 . S
H1835 C1859 0.950 . S
H1836 C1860 0.950 . S
H1837 C1861 0.951 . S
H1838 C1863 0.951 . S
H1839 C1865 0.950 . S
H1840 C1866 0.950 . S
H1841 C1868 0.950 . S
H1842 C1871 0.950 . S
H1843 C1872 0.950 . S
H1844 C1874 0.950 . S
H1845 C1875 0.950 . S
C1846 H1828 0.951 . S
C1846 C1847 1.366 . S
C1846 C1848 1.388 . S
C1847 C1846 1.366 . S
C1847 C1851 1.385 . S
C1848 H1829 0.951 . S
C1848 C1846 1.388 . S
C1848 C1849 1.366 . S
C1849 C1848 1.366 . S
C1849 C1850 1.414 . S
C1849 C1852 1.499 . S
C1850 H1830 0.950 . S
C1850 C1849 1.414 . S
C1850 C1851 1.374 . S
C1851 H1831 0.950 . S
C1851 C1847 1.385 . S
C1851 C1850 1.374 . S
C1852 C1849 1.499 . S
C1852 C1853 1.373 . S
C1852 C1854 1.389 . S
C1853 H1832 0.950 . S
C1853 C1852 1.373 . S
C1853 C1869 1.377 . S
C1854 C1852 1.389 . S
C1854 C1855 1.524 . S
C1854 C1868 1.377 . S
C1855 C1854 1.524 . S
C1855 C1856 1.397 . S
C1855 C1860 1.363 . S
C1856 H1833 0.950 . S
C1856 C1855 1.397 . S
C1856 C1857 1.334 . S
C1857 H1834 0.950 . S
C1857 C1856 1.334 . S
C1857 C1858 1.287 . S
C1858 C1857 1.287 . S
C1858 C1859 1.524 . S
C1858 H1877 0.913 . S
C1859 H1835 0.950 . S
C1859 C1858 1.524 . S
C1859 C1860 1.415 . S
C1860 H1836 0.950 . S
C1860 C1855 1.363 . S
C1860 C1859 1.415 . S
C1861 H1837 0.951 . S
C1861 C1862 1.366 . S
C1861 C1863 1.388 . S
C1862 C1861 1.366 . S
C1862 C1866 1.385 . S
C1863 H1838 0.951 . S
C1863 C1861 1.388 . S
C1863 C1864 1.366 . S
C1864 C1863 1.366 . S
C1864 C1865 1.414 . S
C1864 C1867 1.499 . S
C1865 H1839 0.950 . S
C1865 C1864 1.414 . S
C1865 C1866 1.374 . S
C1866 H1840 0.950 . S
C1866 C1862 1.385 . S
C1866 C1865 1.374 . S
C1867 C1864 1.499 . S
C1867 C1868 1.373 . S
C1867 C1869 1.389 . S
C1868 H1841 0.950 . S
C1868 C1854 1.377 . S
C1868 C1867 1.373 . S
C1869 C1853 1.377 . S
C1869 C1867 1.389 . S
C1869 C1870 1.524 . S
C1870 C1869 1.524 . S
C1870 C1871 1.397 . S
C1870 C1875 1.363 . S
C1871 H1842 0.950 . S
C1871 C1870 1.397 . S
C1871 C1872 1.334 . S
C1872 H1843 0.950 . S
C1872 C1871 1.334 . S
C1872 C1873 1.287 . S
C1873 C1872 1.287 . S
C1873 C1874 1.524 . S
C1873 H1876 0.999 . S
C1874 H1844 0.950 . S
C1874 C1873 1.524 . S
C1874 C1875 1.415 . S
C1875 H1845 0.950 . S
C1875 C1870 1.363 . S
C1875 C1874 1.415 . S
H1876 C1873 0.999 . S
H1877 C1858 0.913 . S
H1878 C1896 0.951 . S
H1879 C1898 0.951 . S
H1880 C1900 0.950 . S
H1881 C1901 0.950 . S
H1882 C1903 0.950 . S
H1883 C1906 0.950 . S
H1884 C1907 0.950 . S
H1885 C1909 0.950 . S
H1886 C1910 0.950 . S
H1887 C1911 0.951 . S
H1888 C1913 0.951 . S
H1889 C1915 0.950 . S
H1890 C1916 0.950 . S
H1891 C1918 0.950 . S
H1892 C1921 0.950 . S
H1893 C1922 0.950 . S
H1894 C1924 0.950 . S
H1895 C1925 0.950 . S
C1896 H1878 0.951 . S
C1896 C1897 1.366 . S
C1896 C1898 1.388 . S
C1897 C1896 1.366 . S
C1897 C1901 1.385 . S
C1898 H1879 0.951 . S
C1898 C1896 1.388 . S
C1898 C1899 1.366 . S
C1899 C1898 1.366 . S
C1899 C1900 1.414 . S
C1899 C1902 1.499 1_556 S
C1900 H1880 0.950 . S
C1900 C1899 1.414 . S
C1900 C1901 1.374 . S
C1901 H1881 0.950 . S
C1901 C1897 1.385 . S
C1901 C1900 1.374 . S
C1902 C1899 1.499 1_554 S
C1902 C1903 1.373 . S
C1902 C1904 1.389 . S
C1903 H1882 0.950 . S
C1903 C1902 1.373 . S
C1903 C1919 1.377 . S
C1904 C1902 1.389 . S
C1904 C1905 1.524 . S
C1904 C1918 1.377 . S
C1905 C1904 1.524 . S
C1905 C1906 1.397 . S
C1905 C1910 1.363 . S
C1906 H1883 0.950 . S
C1906 C1905 1.397 . S
C1906 C1907 1.334 1_554 S
C1907 H1884 0.950 . S
C1907 C1906 1.334 1_556 S
C1907 C1908 1.287 . S
C1908 C1907 1.287 . S
C1908 C1909 1.524 1_556 S
C1908 H1927 0.913 . S
C1909 H1885 0.950 . S
C1909 C1908 1.524 1_554 S
C1909 C1910 1.415 . S
C1910 H1886 0.950 . S
C1910 C1905 1.363 . S
C1910 C1909 1.415 . S
C1911 H1887 0.951 . S
C1911 C1912 1.366 . S
C1911 C1913 1.388 . S
C1912 C1911 1.366 . S
C1912 C1916 1.385 . S
C1913 H1888 0.951 . S
C1913 C1911 1.388 . S
C1913 C1914 1.366 . S
C1914 C1913 1.366 . S
C1914 C1915 1.414 . S
C1914 C1917 1.499 . S
C1915 H1889 0.950 . S
C1915 C1914 1.414 . S
C1915 C1916 1.374 . S
C1916 H1890 0.950 . S
C1916 C1912 1.385 . S
C1916 C1915 1.374 . S
C1917 C1914 1.499 . S
C1917 C1918 1.373 . S
C1917 C1919 1.389 . S
C1918 H1891 0.950 . S
C1918 C1904 1.377 . S
C1918 C1917 1.373 . S
C1919 C1903 1.377 . S
C1919 C1917 1.389 . S
C1919 C1920 1.524 . S
C1920 C1919 1.524 . S
C1920 C1921 1.397 . S
C1920 C1925 1.363 . S
C1921 H1892 0.950 . S
C1921 C1920 1.397 . S
C1921 C1922 1.334 . S
C1922 H1893 0.950 . S
C1922 C1921 1.334 . S
C1922 C1923 1.287 . S
C1923 C1922 1.287 . S
C1923 C1924 1.524 . S
C1923 H1926 0.999 . S
C1924 H1894 0.950 . S
C1924 C1923 1.524 . S
C1924 C1925 1.415 . S
C1925 H1895 0.950 . S
C1925 C1920 1.363 . S
C1925 C1924 1.415 . S
H1926 C1923 0.999 . S
H1927 C1908 0.913 . S
H1928 C1946 0.951 1_655 S
H1929 C1948 0.951 1_655 S
H1930 C1950 0.950 . S
H1931 C1951 0.950 . S
H1932 C1953 0.950 . S
H1933 C1956 0.950 . S
H1934 C1957 0.950 . S
H1935 C1959 0.950 . S
H1936 C1960 0.912 1_655 S
H1937 C1961 0.951 . S
H1938 C1963 0.951 . S
H1939 C1965 0.925 1_655 S
H1940 C1966 1.000 . S
H1941 C1968 0.950 . S
H1942 C1971 0.950 . S
H1943 C1972 0.954 . S
H1944 C1974 0.950 . S
H1945 C1975 0.950 . S
C1946 H1928 0.951 1_455 S
C1946 C1947 1.366 . S
C1946 C1948 1.388 . S
C1947 C1946 1.366 . S
C1947 C1951 1.385 . S
C1948 H1929 0.951 1_455 S
C1948 C1946 1.388 . S
C1948 C1949 1.366 . S
C1949 C1948 1.366 . S
C1949 C1950 1.414 . S
C1949 C1952 1.499 . S
C1950 H1930 0.950 . S
C1950 C1949 1.414 . S
C1950 C1951 1.374 . S
C1951 H1931 0.950 . S
C1951 C1947 1.385 . S
C1951 C1950 1.374 . S
C1952 C1949 1.499 . S
C1952 C1953 1.373 . S
C1952 C1954 1.389 . S
C1953 H1932 0.950 . S
C1953 C1952 1.373 . S
C1953 C1969 1.377 . S
C1954 C1952 1.389 . S
C1954 C1955 1.524 . S
C1954 C1968 1.377 . S
C1955 C1954 1.524 . S
C1955 C1956 1.397 . S
C1955 C1960 1.411 . S
C1956 H1933 0.950 . S
C1956 C1955 1.397 . S
C1956 C1957 1.334 . S
C1957 H1934 0.950 . S
C1957 C1956 1.334 . S
C1957 C1958 1.287 . S
C1958 C1957 1.287 . S
C1958 C1959 1.524 1_455 S
C1958 H1977 0.913 . S
C1959 H1935 0.950 . S
C1959 C1958 1.524 1_655 S
C1959 C1960 1.408 1_655 S
C1960 H1936 0.912 1_455 S
C1960 C1955 1.411 . S
C1960 C1959 1.408 1_455 S
C1961 H1937 0.951 . S
C1961 C1962 1.366 . S
C1961 C1963 1.388 . S
C1962 C1961 1.366 . S
C1962 C1966 1.385 . S
C1963 H1938 0.951 . S
C1963 C1961 1.388 . S
C1963 C1964 1.366 . S
C1964 C1963 1.366 . S
C1964 C1965 1.414 . S
C1964 C1967 1.499 1_554 S
C1965 H1939 0.925 1_455 S
C1965 C1964 1.414 . S
C1965 C1966 1.374 . S
C1966 H1940 1.000 . S
C1966 C1962 1.385 . S
C1966 C1965 1.374 . S
C1967 C1964 1.499 1_556 S
C1967 C1968 1.373 . S
C1967 C1969 1.389 . S
C1968 H1941 0.950 . S
C1968 C1954 1.377 . S
C1968 C1967 1.373 . S
C1969 C1953 1.377 . S
C1969 C1967 1.389 . S
C1969 C1970 1.524 . S
C1970 C1969 1.524 . S
C1970 C1971 1.397 . S
C1970 C1975 1.363 . S
C1971 H1942 0.950 . S
C1971 C1970 1.397 . S
C1971 C1972 1.332 1_556 S
C1972 H1943 0.954 . S
C1972 C1971 1.332 1_554 S
C1972 C1973 1.285 1_554 S
C1973 C1972 1.285 1_556 S
C1973 C1974 1.524 . S
C1973 H1976 0.999 1_556 S
C1974 H1944 0.950 . S
C1974 C1973 1.524 . S
C1974 C1975 1.415 . S
C1975 H1945 0.950 . S
C1975 C1970 1.363 . S
C1975 C1974 1.415 . S
H1976 C1973 0.999 1_554 S
H1977 C1958 0.913 . S
H1978 C1996 0.951 . S
H1979 C1998 0.951 . S
H1980 C2000 0.950 . S
H1981 C2001 0.950 . S
H1982 C2003 0.950 1_565 S
H1983 C2006 0.950 . S
H1984 C2007 0.950 . S
H1985 C2009 0.950 . S
H1986 C2010 0.950 . S
H1987 C2011 0.951 . S
H1988 C2013 0.951 . S
H1989 C2015 0.950 . S
H1990 C2016 0.950 . S
H1991 C2018 0.950 . S
H1992 C2021 0.950 . S
H1993 C2022 0.950 . S
H1994 C2024 0.950 . S
H1995 C2025 0.950 . S
C1996 H1978 0.951 . S
C1996 C1997 1.366 . S
C1996 C1998 1.388 . S
C1997 C1996 1.366 . S
C1997 C2001 1.385 . S
C1998 H1979 0.951 . S
C1998 C1996 1.388 . S
C1998 C1999 1.366 . S
C1999 C1998 1.366 . S
C1999 C2000 1.414 . S
C1999 C2002 1.499 . S
C2000 H1980 0.950 . S
C2000 C1999 1.414 . S
C2000 C2001 1.374 . S
C2001 H1981 0.950 . S
C2001 C1997 1.385 . S
C2001 C2000 1.374 . S
C2002 C1999 1.499 . S
C2002 C2003 1.373 . S
C2002 C2004 1.389 . S
C2003 H1982 0.950 1_545 S
C2003 C2002 1.373 . S
C2003 C2019 1.377 . S
C2004 C2002 1.389 . S
C2004 C2005 1.524 . S
C2004 C2018 1.377 . S
C2005 C2004 1.524 . S
C2005 C2006 1.397 . S
C2005 C2010 1.363 . S
C2006 H1983 0.950 . S
C2006 C2005 1.397 . S
C2006 C2007 1.334 . S
C2007 H1984 0.950 . S
C2007 C2006 1.334 . S
C2007 C2008 1.287 . S
C2008 C2007 1.287 . S
C2008 C2009 1.524 . S
C2008 H2027 0.913 . S
C2009 H1985 0.950 . S
C2009 C2008 1.524 . S
C2009 C2010 1.415 . S
C2010 H1986 0.950 . S
C2010 C2005 1.363 . S
C2010 C2009 1.415 . S
C2011 H1987 0.951 . S
C2011 C2012 1.366 . S
C2011 C2013 1.388 . S
C2012 C2011 1.366 . S
C2012 C2016 1.385 . S
C2013 H1988 0.951 . S
C2013 C2011 1.388 . S
C2013 C2014 1.366 . S
C2014 C2013 1.366 . S
C2014 C2015 1.414 . S
C2014 C2017 1.499 . S
C2015 H1989 0.950 . S
C2015 C2014 1.414 . S
C2015 C2016 1.374 . S
C2016 H1990 0.950 . S
C2016 C2012 1.385 . S
C2016 C2015 1.374 . S
C2017 C2014 1.499 . S
C2017 C2018 1.373 . S
C2017 C2019 1.389 . S
C2018 H1991 0.950 . S
C2018 C2004 1.377 . S
C2018 C2017 1.373 . S
C2019 C2003 1.377 . S
C2019 C2017 1.389 . S
C2019 C2020 1.524 1_545 S
C2020 C2019 1.524 1_565 S
C2020 C2021 1.397 . S
C2020 C2025 1.363 . S
C2021 H1992 0.950 . S
C2021 C2020 1.397 . S
C2021 C2022 1.334 . S
C2022 H1993 0.950 . S
C2022 C2021 1.334 . S
C2022 C2023 1.287 . S
C2023 C2022 1.287 . S
C2023 C2024 1.524 . S
C2023 H2026 0.999 . S
C2024 H1994 0.950 . S
C2024 C2023 1.524 . S
C2024 C2025 1.415 . S
C2025 H1995 0.950 . S
C2025 C2020 1.363 . S
C2025 C2024 1.415 . S
H2026 C2023 0.999 . S
H2027 C2008 0.913 . S
H2028 C2046 0.951 . S
H2029 C2048 0.951 . S
H2030 C2050 0.950 . S
H2031 C2051 0.950 . S
H2032 C2053 0.950 . S
H2033 C2056 0.950 . S
H2034 C2057 0.950 . S
H2035 C2059 0.950 . S
H2036 C2060 0.950 . S
H2037 C2061 0.951 . S
H2038 C2063 0.951 . S
H2039 C2065 0.950 . S
H2040 C2066 0.950 . S
H2041 C2068 0.950 . S
H2042 C2071 0.950 . S
H2043 C2072 0.950 1_554 S
H2044 C2074 0.950 . S
H2045 C2075 0.950 . S
C2046 H2028 0.951 . S
C2046 C2047 1.366 . S
C2046 C2048 1.388 . S
C2047 C2046 1.366 . S
C2047 C2051 1.385 . S
C2048 H2029 0.951 . S
C2048 C2046 1.388 . S
C2048 C2049 1.366 . S
C2049 C2048 1.366 . S
C2049 C2050 1.414 . S
C2049 C2052 1.499 . S
C2050 H2030 0.950 . S
C2050 C2049 1.414 . S
C2050 C2051 1.374 . S
C2051 H2031 0.950 . S
C2051 C2047 1.385 . S
C2051 C2050 1.374 . S
C2052 C2049 1.499 . S
C2052 C2053 1.373 . S
C2052 C2054 1.389 . S
C2053 H2032 0.950 . S
C2053 C2052 1.373 . S
C2053 C2069 1.377 . S
C2054 C2052 1.389 . S
C2054 C2055 1.524 . S
C2054 C2068 1.377 . S
C2055 C2054 1.524 . S
C2055 C2056 1.397 . S
C2055 C2060 1.363 . S
C2056 H2033 0.950 . S
C2056 C2055 1.397 . S
C2056 C2057 1.334 . S
C2057 H2034 0.950 . S
C2057 C2056 1.334 . S
C2057 C2058 1.287 . S
C2058 C2057 1.287 . S
C2058 C2059 1.524 . S
C2058 H2077 0.913 . S
C2059 H2035 0.950 . S
C2059 C2058 1.524 . S
C2059 C2060 1.415 . S
C2060 H2036 0.950 . S
C2060 C2055 1.363 . S
C2060 C2059 1.415 . S
C2061 H2037 0.951 . S
C2061 C2062 1.366 . S
C2061 C2063 1.388 . S
C2062 C2061 1.366 . S
C2062 C2066 1.385 . S
C2063 H2038 0.951 . S
C2063 C2061 1.388 . S
C2063 C2064 1.366 . S
C2064 C2063 1.366 . S
C2064 C2065 1.414 . S
C2064 C2067 1.499 1_554 S
C2065 H2039 0.950 . S
C2065 C2064 1.414 . S
C2065 C2066 1.374 . S
C2066 H2040 0.950 . S
C2066 C2062 1.385 . S
C2066 C2065 1.374 . S
C2067 C2064 1.499 1_556 S
C2067 C2068 1.373 . S
C2067 C2069 1.389 . S
C2068 H2041 0.950 . S
C2068 C2054 1.377 . S
C2068 C2067 1.373 . S
C2069 C2053 1.377 . S
C2069 C2067 1.389 . S
C2069 C2070 1.524 . S
C2070 C2069 1.524 . S
C2070 C2071 1.397 . S
C2070 C2075 1.363 . S
C2071 H2042 0.950 . S
C2071 C2070 1.397 . S
C2071 C2072 1.334 . S
C2072 H2043 0.950 1_556 S
C2072 C2071 1.334 . S
C2072 C2073 1.287 . S
C2073 C2072 1.287 . S
C2073 C2074 1.524 . S
C2073 H2076 0.999 . S
C2074 H2044 0.950 . S
C2074 C2073 1.524 . S
C2074 C2075 1.415 . S
C2075 H2045 0.950 . S
C2075 C2070 1.363 . S
C2075 C2074 1.415 . S
H2076 C2073 0.999 . S
H2077 C2058 0.913 . S
H2078 C2096 0.951 . S
H2079 C2098 0.951 . S
H2080 C2100 0.950 . S
H2081 C2101 0.950 . S
H2082 C2103 0.950 . S
H2083 C2106 0.950 . S
H2084 C2107 0.950 . S
H2085 C2109 0.950 . S
H2086 C2110 0.950 . S
H2087 C2111 0.951 . S
H2088 C2113 0.951 . S
H2089 C2115 0.950 . S
H2090 C2116 0.950 . S
H2091 C2118 0.950 . S
H2092 C2121 0.950 . S
H2093 C2122 0.950 . S
H2094 C2124 0.950 . S
H2095 C2125 0.950 . S
C2096 H2078 0.951 . S
C2096 C2097 1.366 . S
C2096 C2098 1.388 . S
C2097 C2096 1.366 . S
C2097 C2101 1.385 . S
C2098 H2079 0.951 . S
C2098 C2096 1.388 . S
C2098 C2099 1.366 . S
C2099 C2098 1.366 . S
C2099 C2100 1.414 . S
C2099 C2102 1.499 . S
C2100 H2080 0.950 . S
C2100 C2099 1.414 . S
C2100 C2101 1.374 . S
C2101 H2081 0.950 . S
C2101 C2097 1.385 . S
C2101 C2100 1.374 . S
C2102 C2099 1.499 . S
C2102 C2103 1.373 . S
C2102 C2104 1.389 . S
C2103 H2082 0.950 . S
C2103 C2102 1.373 . S
C2103 C2119 1.377 . S
C2104 C2102 1.389 . S
C2104 C2105 1.524 . S
C2104 C2118 1.377 . S
C2105 C2104 1.524 . S
C2105 C2106 1.397 . S
C2105 C2110 1.363 . S
C2106 H2083 0.950 . S
C2106 C2105 1.397 . S
C2106 C2107 1.334 . S
C2107 H2084 0.950 . S
C2107 C2106 1.334 . S
C2107 C2108 1.287 . S
C2108 C2107 1.287 . S
C2108 C2109 1.524 . S
C2108 H2127 0.913 . S
C2109 H2085 0.950 . S
C2109 C2108 1.524 . S
C2109 C2110 1.415 . S
C2110 H2086 0.950 . S
C2110 C2105 1.363 . S
C2110 C2109 1.415 . S
C2111 H2087 0.951 . S
C2111 C2112 1.366 . S
C2111 C2113 1.388 . S
C2112 C2111 1.366 . S
C2112 C2116 1.385 . S
C2113 H2088 0.951 . S
C2113 C2111 1.388 . S
C2113 C2114 1.366 . S
C2114 C2113 1.366 . S
C2114 C2115 1.414 . S
C2114 C2117 1.499 . S
C2115 H2089 0.950 . S
C2115 C2114 1.414 . S
C2115 C2116 1.374 . S
C2116 H2090 0.950 . S
C2116 C2112 1.385 . S
C2116 C2115 1.374 . S
C2117 C2114 1.499 . S
C2117 C2118 1.373 . S
C2117 C2119 1.389 . S
C2118 H2091 0.950 . S
C2118 C2104 1.377 . S
C2118 C2117 1.373 . S
C2119 C2103 1.377 . S
C2119 C2117 1.389 . S
C2119 C2120 1.524 . S
C2120 C2119 1.524 . S
C2120 C2121 1.397 . S
C2120 C2125 1.363 . S
C2121 H2092 0.950 . S
C2121 C2120 1.397 . S
C2121 C2122 1.334 . S
C2122 H2093 0.950 . S
C2122 C2121 1.334 . S
C2122 C2123 1.287 . S
C2123 C2122 1.287 . S
C2123 C2124 1.524 . S
C2123 H2126 0.999 . S
C2124 H2094 0.950 . S
C2124 C2123 1.524 . S
C2124 C2125 1.415 . S
C2125 H2095 0.950 . S
C2125 C2120 1.363 . S
C2125 C2124 1.415 . S
H2126 C2123 0.999 . S
H2127 C2108 0.913 . S
H2128 C2146 0.951 . S
H2129 C2148 0.951 . S
H2130 C2150 0.950 . S
H2131 C2151 0.950 . S
H2132 C2153 0.950 . S
H2133 C2156 0.950 . S
H2134 C2157 0.950 . S
H2135 C2159 0.950 . S
H2136 C2160 0.950 . S
H2137 C2161 0.951 . S
H2138 C2163 0.951 . S
H2139 C2165 0.950 . S
H2140 C2166 0.950 . S
H2141 C2168 0.950 . S
H2142 C2171 0.950 . S
H2143 C2172 0.950 . S
H2144 C2174 0.950 . S
H2145 C2175 0.950 . S
C2146 H2128 0.951 . S
C2146 C2147 1.366 . S
C2146 C2148 1.388 . S
C2147 C2146 1.366 . S
C2147 C2151 1.385 . S
C2148 H2129 0.951 . S
C2148 C2146 1.388 . S
C2148 C2149 1.366 . S
C2149 C2148 1.366 . S
C2149 C2150 1.414 . S
C2149 C2152 1.499 . S
C2150 H2130 0.950 . S
C2150 C2149 1.414 . S
C2150 C2151 1.374 . S
C2151 H2131 0.950 . S
C2151 C2147 1.385 . S
C2151 C2150 1.374 . S
C2152 C2149 1.499 . S
C2152 C2153 1.373 . S
C2152 C2154 1.389 . S
C2153 H2132 0.950 . S
C2153 C2152 1.373 . S
C2153 C2169 1.377 . S
C2154 C2152 1.389 . S
C2154 C2155 1.524 . S
C2154 C2168 1.377 . S
C2155 C2154 1.524 . S
C2155 C2156 1.397 . S
C2155 C2160 1.363 . S
C2156 H2133 0.950 . S
C2156 C2155 1.397 . S
C2156 C2157 1.334 . S
C2157 H2134 0.950 . S
C2157 C2156 1.334 . S
C2157 C2158 1.287 . S
C2158 C2157 1.287 . S
C2158 C2159 1.524 . S
C2158 H2177 0.913 . S
C2159 H2135 0.950 . S
C2159 C2158 1.524 . S
C2159 C2160 1.415 . S
C2160 H2136 0.950 . S
C2160 C2155 1.363 . S
C2160 C2159 1.415 . S
C2161 H2137 0.951 . S
C2161 C2162 1.366 . S
C2161 C2163 1.388 . S
C2162 C2161 1.366 . S
C2162 C2166 1.385 . S
C2163 H2138 0.951 . S
C2163 C2161 1.388 . S
C2163 C2164 1.366 . S
C2164 C2163 1.366 . S
C2164 C2165 1.414 . S
C2164 C2167 1.499 . S
C2165 H2139 0.950 . S
C2165 C2164 1.414 . S
C2165 C2166 1.374 . S
C2166 H2140 0.950 . S
C2166 C2162 1.385 . S
C2166 C2165 1.374 . S
C2167 C2164 1.499 . S
C2167 C2168 1.373 . S
C2167 C2169 1.389 . S
C2168 H2141 0.950 . S
C2168 C2154 1.377 . S
C2168 C2167 1.373 . S
C2169 C2153 1.377 . S
C2169 C2167 1.389 . S
C2169 C2170 1.524 . S
C2170 C2169 1.524 . S
C2170 C2171 1.397 1_655 S
C2170 C2175 1.363 . S
C2171 H2142 0.950 . S
C2171 C2170 1.397 1_455 S
C2171 C2172 1.334 . S
C2172 H2143 0.950 . S
C2172 C2171 1.334 . S
C2172 C2173 1.287 . S
C2173 C2172 1.287 . S
C2173 C2174 1.524 1_455 S
C2173 H2176 0.999 . S
C2174 H2144 0.950 . S
C2174 C2173 1.524 1_655 S
C2174 C2175 1.415 . S
C2175 H2145 0.950 . S
C2175 C2170 1.363 . S
C2175 C2174 1.415 . S
H2176 C2173 0.999 . S
H2177 C2158 0.913 . S
H2178 C2196 0.951 . S
H2179 C2198 0.951 . S
H2180 C2200 0.950 . S
H2181 C2201 0.950 . S
H2182 C2203 0.950 . S
H2183 C2206 0.880 1_565 S
H2184 C2207 0.950 . S
H2185 C2209 0.950 . S
H2186 C2210 0.950 . S
H2187 C2211 0.951 . S
H2188 C2213 0.951 . S
H2189 C2215 0.944 1_545 S
H2190 C2216 0.950 1_545 S
H2191 C2218 0.950 1_545 S
H2192 C2221 0.950 . S
H2193 C2222 0.950 . S
H2194 C2224 0.950 . S
H2195 C2225 0.950 . S
C2196 H2178 0.951 . S
C2196 C2197 1.366 . S
C2196 C2198 1.388 . S
C2197 C2196 1.366 . S
C2197 C2201 1.385 . S
C2198 H2179 0.951 . S
C2198 C2196 1.388 . S
C2198 C2199 1.366 . S
C2199 C2198 1.366 . S
C2199 C2200 1.414 . S
C2199 C2202 1.499 1_554 S
C2200 H2180 0.950 . S
C2200 C2199 1.414 . S
C2200 C2201 1.374 . S
C2201 H2181 0.950 . S
C2201 C2197 1.385 . S
C2201 C2200 1.374 . S
C2202 C2199 1.499 1_556 S
C2202 C2203 1.373 . S
C2202 C2204 1.389 . S
C2203 H2182 0.950 . S
C2203 C2202 1.373 . S
C2203 C2219 1.377 . S
C2204 C2202 1.389 . S
C2204 C2205 1.524 1_565 S
C2204 C2218 1.377 . S
C2205 C2204 1.524 1_545 S
C2205 C2206 1.397 . S
C2205 C2210 1.363 . S
C2206 H2183 0.880 1_545 S
C2206 C2205 1.397 . S
C2206 C2207 1.334 1_556 S
C2207 H2184 0.950 . S
C2207 C2206 1.334 1_554 S
C2207 C2208 1.287 . S
C2208 C2207 1.287 . S
C2208 C2209 1.524 1_554 S
C2208 H2227 0.913 . S
C2209 H2185 0.950 . S
C2209 C2208 1.524 1_556 S
C2209 C2210 1.415 . S
C2210 H2186 0.950 . S
C2210 C2205 1.363 . S
C2210 C2209 1.415 . S
C2211 H2187 0.951 . S
C2211 C2212 1.366 . S
C2211 C2213 1.388 . S
C2212 C2211 1.366 . S
C2212 C2216 1.385 . S
C2213 H2188 0.951 . S
C2213 C2211 1.388 . S
C2213 C2214 1.366 . S
C2214 C2213 1.366 . S
C2214 C2215 1.414 . S
C2214 C2217 1.499 . S
C2215 H2189 0.944 1_565 S
C2215 C2214 1.414 . S
C2215 C2216 1.374 . S
C2216 H2190 0.950 1_565 S
C2216 C2212 1.385 . S
C2216 C2215 1.374 . S
C2217 C2214 1.499 . S
C2217 C2218 1.373 . S
C2217 C2219 1.389 . S
C2218 H2191 0.950 1_565 S
C2218 C2204 1.377 . S
C2218 C2217 1.373 . S
C2219 C2203 1.377 . S
C2219 C2217 1.389 . S
C2219 C2220 1.524 . S
C2220 C2219 1.524 . S
C2220 C2221 1.397 . S
C2220 C2225 1.363 . S
C2221 H2192 0.950 . S
C2221 C2220 1.397 . S
C2221 C2222 1.334 . S
C2222 H2193 0.950 . S
C2222 C2221 1.334 . S
C2222 C2223 1.287 . S
C2223 C2222 1.287 . S
C2223 C2224 1.524 . S
C2223 H2226 0.999 . S
C2224 H2194 0.950 . S
C2224 C2223 1.524 . S
C2224 C2225 1.415 . S
C2225 H2195 0.950 . S
C2225 C2220 1.363 . S
C2225 C2224 1.415 . S
H2226 C2223 0.999 . S
H2227 C2208 0.913 . S
H2228 C2246 0.951 . S
H2229 C2248 0.951 . S
H2230 C2250 0.950 . S
H2231 C2251 0.950 . S
H2232 C2253 0.950 . S
H2233 C2256 0.950 . S
H2234 C2257 0.950 . S
H2235 C2259 0.950 . S
H2236 C2260 0.950 . S
H2237 C2261 0.951 . S
H2238 C2263 0.951 . S
H2239 C2265 0.950 . S
H2240 C2266 0.950 . S
H2241 C2268 0.950 . S
H2242 C2271 0.950 . S
H2243 C2272 0.950 . S
H2244 C2274 0.950 . S
H2245 C2275 0.950 . S
C2246 H2228 0.951 . S
C2246 C2247 1.366 . S
C2246 C2248 1.388 . S
C2247 C2246 1.366 . S
C2247 C2251 1.385 . S
C2248 H2229 0.951 . S
C2248 C2246 1.388 . S
C2248 C2249 1.366 . S
C2249 C2248 1.366 . S
C2249 C2250 1.414 . S
C2249 C2252 1.499 . S
C2250 H2230 0.950 . S
C2250 C2249 1.414 . S
C2250 C2251 1.374 . S
C2251 H2231 0.950 . S
C2251 C2247 1.385 . S
C2251 C2250 1.374 . S
C2252 C2249 1.499 . S
C2252 C2253 1.373 . S
C2252 C2254 1.389 . S
C2253 H2232 0.950 . S
C2253 C2252 1.373 . S
C2253 C2269 1.377 . S
C2254 C2252 1.389 . S
C2254 C2255 1.524 . S
C2254 C2268 1.377 . S
C2255 C2254 1.524 . S
C2255 C2256 1.397 . S
C2255 C2260 1.363 . S
C2256 H2233 0.950 . S
C2256 C2255 1.397 . S
C2256 C2257 1.334 . S
C2257 H2234 0.950 . S
C2257 C2256 1.334 . S
C2257 C2258 1.287 . S
C2258 C2257 1.287 . S
C2258 C2259 1.524 . S
C2258 H2277 0.913 . S
C2259 H2235 0.950 . S
C2259 C2258 1.524 . S
C2259 C2260 1.415 . S
C2260 H2236 0.950 . S
C2260 C2255 1.363 . S
C2260 C2259 1.415 . S
C2261 H2237 0.951 . S
C2261 C2262 1.366 . S
C2261 C2263 1.388 . S
C2262 C2261 1.366 . S
C2262 C2266 1.385 . S
C2263 H2238 0.951 . S
C2263 C2261 1.388 . S
C2263 C2264 1.366 . S
C2264 C2263 1.366 . S
C2264 C2265 1.414 . S
C2264 C2267 1.499 . S
C2265 H2239 0.950 . S
C2265 C2264 1.414 . S
C2265 C2266 1.374 . S
C2266 H2240 0.950 . S
C2266 C2262 1.385 . S
C2266 C2265 1.374 . S
C2267 C2264 1.499 . S
C2267 C2268 1.373 . S
C2267 C2269 1.389 . S
C2268 H2241 0.950 . S
C2268 C2254 1.377 . S
C2268 C2267 1.373 . S
C2269 C2253 1.377 . S
C2269 C2267 1.389 . S
C2269 C2270 1.524 . S
C2270 C2269 1.524 . S
C2270 C2271 1.397 . S
C2270 C2275 1.363 . S
C2271 H2242 0.950 . S
C2271 C2270 1.397 . S
C2271 C2272 1.334 . S
C2272 H2243 0.950 . S
C2272 C2271 1.334 . S
C2272 C2273 1.287 . S
C2273 C2272 1.287 . S
C2273 C2274 1.524 . S
C2273 H2276 0.999 . S
C2274 H2244 0.950 . S
C2274 C2273 1.524 . S
C2274 C2275 1.415 . S
C2275 H2245 0.950 . S
C2275 C2270 1.363 . S
C2275 C2274 1.415 . S
H2276 C2273 0.999 . S
H2277 C2258 0.913 . S
H2278 C2296 0.951 . S
H2279 C2298 0.951 . S
H2280 C2300 0.950 . S
H2281 C2301 0.950 . S
H2282 C2303 0.950 . S
H2283 C2306 0.950 . S
H2284 C2307 0.950 1_554 S
H2285 C2309 0.950 . S
H2286 C2310 0.950 . S
H2287 C2311 0.951 . S
H2288 C2313 0.951 . S
H2289 C2315 0.950 . S
H2290 C2316 0.950 . S
H2291 C2318 0.950 . S
H2292 C2321 0.950 . S
H2293 C2322 0.950 . S
H2294 C2324 0.950 . S
H2295 C2325 0.950 . S
C2296 H2278 0.951 . S
C2296 C2297 1.366 . S
C2296 C2298 1.388 . S
C2297 C2296 1.366 . S
C2297 C2301 1.385 . S
C2298 H2279 0.951 . S
C2298 C2296 1.388 . S
C2298 C2299 1.366 . S
C2299 C2298 1.366 . S
C2299 C2300 1.414 . S
C2299 C2302 1.499 1_554 S
C2300 H2280 0.950 . S
C2300 C2299 1.414 . S
C2300 C2301 1.374 . S
C2301 H2281 0.950 . S
C2301 C2297 1.385 . S
C2301 C2300 1.374 . S
C2302 C2299 1.499 1_556 S
C2302 C2303 1.373 . S
C2302 C2304 1.389 . S
C2303 H2282 0.950 . S
C2303 C2302 1.373 . S
C2303 C2319 1.377 . S
C2304 C2302 1.389 . S
C2304 C2305 1.524 . S
C2304 C2318 1.377 . S
C2305 C2304 1.524 . S
C2305 C2306 1.397 . S
C2305 C2310 1.363 . S
C2306 H2283 0.950 . S
C2306 C2305 1.397 . S
C2306 C2307 1.334 . S
C2307 H2284 0.950 1_556 S
C2307 C2306 1.334 . S
C2307 C2308 1.287 . S
C2308 C2307 1.287 . S
C2308 C2309 1.524 . S
C2308 H2327 0.913 1_556 S
C2309 H2285 0.950 . S
C2309 C2308 1.524 . S
C2309 C2310 1.415 . S
C2310 H2286 0.950 . S
C2310 C2305 1.363 . S
C2310 C2309 1.415 . S
C2311 H2287 0.951 . S
C2311 C2312 1.366 . S
C2311 C2313 1.388 . S
C2312 C2311 1.366 . S
C2312 C2316 1.385 . S
C2313 H2288 0.951 . S
C2313 C2311 1.388 . S
C2313 C2314 1.366 . S
C2314 C2313 1.366 . S
C2314 C2315 1.414 . S
C2314 C2317 1.499 . S
C2315 H2289 0.950 . S
C2315 C2314 1.414 . S
C2315 C2316 1.374 . S
C2316 H2290 0.950 . S
C2316 C2312 1.385 . S
C2316 C2315 1.374 . S
C2317 C2314 1.499 . S
C2317 C2318 1.373 . S
C2317 C2319 1.389 . S
C2318 H2291 0.950 . S
C2318 C2304 1.377 . S
C2318 C2317 1.373 . S
C2319 C2303 1.377 . S
C2319 C2317 1.389 . S
C2319 C2320 1.524 . S
C2320 C2319 1.524 . S
C2320 C2321 1.397 . S
C2320 C2325 1.363 . S
C2321 H2292 0.950 . S
C2321 C2320 1.397 . S
C2321 C2322 1.334 . S
C2322 H2293 0.950 . S
C2322 C2321 1.334 . S
C2322 C2323 1.287 . S
C2323 C2322 1.287 . S
C2323 C2324 1.524 . S
C2323 H2326 0.999 . S
C2324 H2294 0.950 . S
C2324 C2323 1.524 . S
C2324 C2325 1.415 . S
C2325 H2295 0.950 . S
C2325 C2320 1.363 . S
C2325 C2324 1.415 . S
H2326 C2323 0.999 . S
H2327 C2308 0.913 1_554 S
H2328 C2346 0.951 . S
H2329 C2348 0.951 . S
H2330 C2350 0.950 . S
H2331 C2351 0.950 . S
H2332 C2353 0.950 . S
H2333 C2356 0.950 . S
H2334 C2357 0.950 . S
H2335 C2359 0.950 . S
H2336 C2360 0.950 . S
H2337 C2361 0.951 . S
H2338 C2363 0.951 . S
H2339 C2365 0.950 . S
H2340 C2366 0.950 . S
H2341 C2368 0.950 . S
H2342 C2371 0.950 . S
H2343 C2372 0.950 1_556 S
H2344 C2374 0.950 . S
H2345 C2375 0.950 . S
C2346 H2328 0.951 . S
C2346 C2347 1.366 . S
C2346 C2348 1.388 . S
C2347 C2346 1.366 . S
C2347 C2351 1.385 . S
C2348 H2329 0.951 . S
C2348 C2346 1.388 . S
C2348 C2349 1.366 . S
C2349 C2348 1.366 . S
C2349 C2350 1.414 . S
C2349 C2352 1.499 . S
C2350 H2330 0.950 . S
C2350 C2349 1.414 . S
C2350 C2351 1.374 . S
C2351 H2331 0.950 . S
C2351 C2347 1.385 . S
C2351 C2350 1.374 . S
C2352 C2349 1.499 . S
C2352 C2353 1.373 . S
C2352 C2354 1.389 . S
C2353 H2332 0.950 . S
C2353 C2352 1.373 . S
C2353 C2369 1.377 . S
C2354 C2352 1.389 . S
C2354 C2355 1.524 . S
C2354 C2368 1.377 . S
C2355 C2354 1.524 . S
C2355 C2356 1.397 1_655 S
C2355 C2360 1.363 . S
C2356 H2333 0.950 . S
C2356 C2355 1.397 1_455 S
C2356 C2357 1.334 . S
C2357 H2334 0.950 . S
C2357 C2356 1.334 . S
C2357 C2358 1.289 . S
C2358 C2357 1.289 . S
C2358 C2359 1.519 1_455 S
C2358 H2377 0.915 . S
C2359 H2335 0.950 . S
C2359 C2358 1.519 1_655 S
C2359 C2360 1.415 . S
C2360 H2336 0.950 . S
C2360 C2355 1.363 . S
C2360 C2359 1.415 . S
C2361 H2337 0.951 . S
C2361 C2362 1.366 . S
C2361 C2363 1.388 . S
C2362 C2361 1.366 . S
C2362 C2366 1.385 . S
C2363 H2338 0.951 . S
C2363 C2361 1.388 . S
C2363 C2364 1.366 . S
C2364 C2363 1.366 . S
C2364 C2365 1.414 . S
C2364 C2367 1.499 1_556 S
C2365 H2339 0.950 . S
C2365 C2364 1.414 . S
C2365 C2366 1.374 . S
C2366 H2340 0.950 . S
C2366 C2362 1.385 . S
C2366 C2365 1.374 . S
C2367 C2364 1.499 1_554 S
C2367 C2368 1.373 . S
C2367 C2369 1.389 . S
C2368 H2341 0.950 . S
C2368 C2354 1.377 . S
C2368 C2367 1.373 . S
C2369 C2353 1.377 . S
C2369 C2367 1.389 . S
C2369 C2370 1.524 . S
C2370 C2369 1.524 . S
C2370 C2371 1.397 . S
C2370 C2375 1.363 . S
C2371 H2342 0.950 . S
C2371 C2370 1.397 . S
C2371 C2372 1.334 . S
C2372 H2343 0.950 1_554 S
C2372 C2371 1.334 . S
C2372 C2373 1.287 . S
C2373 C2372 1.287 . S
C2373 C2374 1.524 . S
C2373 H2376 0.999 . S
C2374 H2344 0.950 . S
C2374 C2373 1.524 . S
C2374 C2375 1.415 . S
C2375 H2345 0.950 . S
C2375 C2370 1.363 . S
C2375 C2374 1.415 . S
H2376 C2373 0.999 . S
H2377 C2358 0.915 . S
H2378 C2396 0.951 . S
H2379 C2398 0.951 . S
H2380 C2400 0.950 . S
H2381 C2401 0.950 . S
H2382 C2403 0.950 . S
H2383 C2406 0.950 . S
H2384 C2407 0.950 . S
H2385 C2409 0.950 . S
H2386 C2410 0.950 . S
H2387 C2411 0.951 . S
H2388 C2413 0.951 . S
H2389 C2415 0.950 . S
H2390 C2416 0.950 . S
H2391 C2418 0.950 . S
H2392 C2421 0.950 . S
H2393 C2422 0.950 . S
H2394 C2424 0.950 . S
H2395 C2425 0.950 . S
C2396 H2378 0.951 . S
C2396 C2397 1.366 . S
C2396 C2398 1.388 . S
C2397 C2396 1.366 . S
C2397 C2401 1.385 . S
C2398 H2379 0.951 . S
C2398 C2396 1.388 . S
C2398 C2399 1.366 . S
C2399 C2398 1.366 . S
C2399 C2400 1.414 . S
C2399 C2402 1.499 . S
C2400 H2380 0.950 . S
C2400 C2399 1.414 . S
C2400 C2401 1.374 . S
C2401 H2381 0.950 . S
C2401 C2397 1.385 . S
C2401 C2400 1.374 . S
C2402 C2399 1.499 . S
C2402 C2403 1.373 . S
C2402 C2404 1.389 . S
C2403 H2382 0.950 . S
C2403 C2402 1.373 . S
C2403 C2419 1.377 . S
C2404 C2402 1.389 . S
C2404 C2405 1.530 1_565 S
C2404 C2418 1.377 . S
C2405 C2404 1.530 1_545 S
C2405 C2406 1.390 . S
C2405 C2410 1.364 1_545 S
C2406 H2383 0.950 . S
C2406 C2405 1.390 . S
C2406 C2407 1.334 . S
C2407 H2384 0.950 . S
C2407 C2406 1.334 . S
C2407 C2408 1.287 . S
C2408 C2407 1.287 . S
C2408 C2409 1.524 . S
C2408 H2427 0.913 . S
C2409 H2385 0.950 . S
C2409 C2408 1.524 . S
C2409 C2410 1.415 1_545 S
C2410 H2386 0.950 . S
C2410 C2405 1.364 1_565 S
C2410 C2409 1.415 1_565 S
C2411 H2387 0.951 . S
C2411 C2412 1.366 . S
C2411 C2413 1.388 . S
C2412 C2411 1.366 . S
C2412 C2416 1.385 . S
C2413 H2388 0.951 . S
C2413 C2411 1.388 . S
C2413 C2414 1.366 . S
C2414 C2413 1.366 . S
C2414 C2415 1.414 . S
C2414 C2417 1.499 . S
C2415 H2389 0.950 . S
C2415 C2414 1.414 . S
C2415 C2416 1.374 . S
C2416 H2390 0.950 . S
C2416 C2412 1.385 . S
C2416 C2415 1.374 . S
C2417 C2414 1.499 . S
C2417 C2418 1.373 . S
C2417 C2419 1.389 . S
C2418 H2391 0.950 . S
C2418 C2404 1.377 . S
C2418 C2417 1.373 . S
C2419 C2403 1.377 . S
C2419 C2417 1.389 . S
C2419 C2420 1.524 . S
C2420 C2419 1.524 . S
C2420 C2421 1.397 . S
C2420 C2425 1.363 . S
C2421 H2392 0.950 . S
C2421 C2420 1.397 . S
C2421 C2422 1.334 . S
C2422 H2393 0.950 . S
C2422 C2421 1.334 . S
C2422 C2423 1.287 . S
C2423 C2422 1.287 . S
C2423 C2424 1.524 . S
C2423 H2426 0.999 . S
C2424 H2394 0.950 . S
C2424 C2423 1.524 . S
C2424 C2425 1.415 . S
C2425 H2395 0.950 . S
C2425 C2420 1.363 . S
C2425 C2424 1.415 . S
H2426 C2423 0.999 . S
H2427 C2408 0.913 . S
H2428 C2446 0.951 . S
H2429 C2448 0.951 . S
H2430 C2450 0.950 . S
H2431 C2451 0.950 . S
H2432 C2453 0.950 . S
H2433 C2456 0.950 . S
H2434 C2457 0.950 . S
H2435 C2459 0.950 . S
H2436 C2460 0.950 . S
H2437 C2461 0.951 . S
H2438 C2463 0.951 . S
H2439 C2465 0.950 . S
H2440 C2466 0.950 . S
H2441 C2468 0.950 . S
H2442 C2471 0.950 . S
H2443 C2472 0.950 . S
H2444 C2474 0.950 . S
H2445 C2475 0.950 . S
C2446 H2428 0.951 . S
C2446 C2447 1.366 . S
C2446 C2448 1.388 . S
C2447 C2446 1.366 . S
C2447 C2451 1.385 . S
C2448 H2429 0.951 . S
C2448 C2446 1.388 . S
C2448 C2449 1.366 . S
C2449 C2448 1.366 . S
C2449 C2450 1.414 . S
C2449 C2452 1.499 1_556 S
C2450 H2430 0.950 . S
C2450 C2449 1.414 . S
C2450 C2451 1.374 . S
C2451 H2431 0.950 . S
C2451 C2447 1.385 . S
C2451 C2450 1.374 . S
C2452 C2449 1.499 1_554 S
C2452 C2453 1.373 . S
C2452 C2454 1.389 . S
C2453 H2432 0.950 . S
C2453 C2452 1.373 . S
C2453 C2469 1.377 . S
C2454 C2452 1.389 . S
C2454 C2455 1.524 . S
C2454 C2468 1.377 . S
C2455 C2454 1.524 . S
C2455 C2456 1.397 . S
C2455 C2460 1.363 . S
C2456 H2433 0.950 . S
C2456 C2455 1.397 . S
C2456 C2457 1.334 1_554 S
C2457 H2434 0.950 . S
C2457 C2456 1.334 1_556 S
C2457 C2458 1.287 . S
C2458 C2457 1.287 . S
C2458 C2459 1.524 1_556 S
C2458 H2477 0.913 . S
C2459 H2435 0.950 . S
C2459 C2458 1.524 1_554 S
C2459 C2460 1.415 . S
C2460 H2436 0.950 . S
C2460 C2455 1.363 . S
C2460 C2459 1.415 . S
C2461 H2437 0.951 . S
C2461 C2462 1.366 . S
C2461 C2463 1.388 . S
C2462 C2461 1.366 . S
C2462 C2466 1.385 . S
C2463 H2438 0.951 . S
C2463 C2461 1.388 . S
C2463 C2464 1.366 . S
C2464 C2463 1.366 . S
C2464 C2465 1.414 . S
C2464 C2467 1.499 . S
C2465 H2439 0.950 . S
C2465 C2464 1.414 . S
C2465 C2466 1.374 . S
C2466 H2440 0.950 . S
C2466 C2462 1.385 . S
C2466 C2465 1.374 . S
C2467 C2464 1.499 . S
C2467 C2468 1.373 . S
C2467 C2469 1.389 . S
C2468 H2441 0.950 . S
C2468 C2454 1.377 . S
C2468 C2467 1.373 . S
C2469 C2453 1.377 . S
C2469 C2467 1.389 . S
C2469 C2470 1.524 . S
C2470 C2469 1.524 . S
C2470 C2471 1.397 . S
C2470 C2475 1.363 . S
C2471 H2442 0.950 . S
C2471 C2470 1.397 . S
C2471 C2472 1.334 . S
C2472 H2443 0.950 . S
C2472 C2471 1.334 . S
C2472 C2473 1.287 . S
C2473 C2472 1.287 . S
C2473 C2474 1.524 . S
C2473 H2476 0.999 . S
C2474 H2444 0.950 . S
C2474 C2473 1.524 . S
C2474 C2475 1.415 . S
C2475 H2445 0.950 . S
C2475 C2470 1.363 . S
C2475 C2474 1.415 . S
H2476 C2473 0.999 . S
H2477 C2458 0.913 . S
H2478 C2496 0.951 . S
H2479 C2498 0.951 . S
H2480 C2500 0.950 . S
H2481 C2501 0.950 . S
H2482 C2503 0.950 . S
H2483 C2506 0.950 . S
H2484 C2507 0.950 . S
H2485 C2509 0.950 . S
H2486 C2510 0.950 . S
H2487 C2511 0.951 . S
H2488 C2513 0.951 . S
H2489 C2515 0.950 . S
H2490 C2516 0.950 . S
H2491 C2518 0.950 . S
H2492 C2521 0.950 . S
H2493 C2522 0.950 . S
H2494 C2524 0.950 . S
H2495 C2525 0.950 . S
C2496 H2478 0.951 . S
C2496 C2497 1.366 . S
C2496 C2498 1.388 . S
C2497 C2496 1.366 . S
C2497 C2501 1.385 . S
C2498 H2479 0.951 . S
C2498 C2496 1.388 . S
C2498 C2499 1.366 . S
C2499 C2498 1.366 . S
C2499 C2500 1.414 . S
C2499 C2502 1.499 . S
C2500 H2480 0.950 . S
C2500 C2499 1.414 . S
C2500 C2501 1.374 . S
C2501 H2481 0.950 . S
C2501 C2497 1.385 . S
C2501 C2500 1.374 . S
C2502 C2499 1.499 . S
C2502 C2503 1.373 . S
C2502 C2504 1.389 . S
C2503 H2482 0.950 . S
C2503 C2502 1.373 . S
C2503 C2519 1.377 . S
C2504 C2502 1.389 . S
C2504 C2505 1.524 . S
C2504 C2518 1.377 . S
C2505 C2504 1.524 . S
C2505 C2506 1.397 . S
C2505 C2510 1.363 . S
C2506 H2483 0.950 . S
C2506 C2505 1.397 . S
C2506 C2507 1.334 . S
C2507 H2484 0.950 . S
C2507 C2506 1.334 . S
C2507 C2508 1.287 . S
C2508 C2507 1.287 . S
C2508 C2509 1.524 . S
C2508 H2527 0.913 . S
C2509 H2485 0.950 . S
C2509 C2508 1.524 . S
C2509 C2510 1.415 . S
C2510 H2486 0.950 . S
C2510 C2505 1.363 . S
C2510 C2509 1.415 . S
C2511 H2487 0.951 . S
C2511 C2512 1.366 . S
C2511 C2513 1.388 . S
C2512 C2511 1.366 . S
C2512 C2516 1.385 . S
C2513 H2488 0.951 . S
C2513 C2511 1.388 . S
C2513 C2514 1.366 . S
C2514 C2513 1.366 . S
C2514 C2515 1.414 . S
C2514 C2517 1.499 . S
C2515 H2489 0.950 . S
C2515 C2514 1.414 . S
C2515 C2516 1.374 . S
C2516 H2490 0.950 . S
C2516 C2512 1.385 . S
C2516 C2515 1.374 . S
C2517 C2514 1.499 . S
C2517 C2518 1.373 . S
C2517 C2519 1.389 . S
C2518 H2491 0.950 . S
C2518 C2504 1.377 . S
C2518 C2517 1.373 . S
C2519 C2503 1.377 . S
C2519 C2517 1.389 . S
C2519 C2520 1.524 . S
C2520 C2519 1.524 . S
C2520 C2521 1.397 . S
C2520 C2525 1.363 . S
C2521 H2492 0.950 . S
C2521 C2520 1.397 . S
C2521 C2522 1.334 . S
C2522 H2493 0.950 . S
C2522 C2521 1.334 . S
C2522 C2523 1.287 . S
C2523 C2522 1.287 . S
C2523 C2524 1.524 . S
C2523 H2526 0.999 . S
C2524 H2494 0.950 . S
C2524 C2523 1.524 . S
C2524 C2525 1.415 . S
C2525 H2495 0.950 . S
C2525 C2520 1.363 . S
C2525 C2524 1.415 . S
H2526 C2523 0.999 . S
H2527 C2508 0.913 . S
C547 C21 1.450 . S
C562 C516 1.450 . S
C597 C54 1.450 . S
C612 C417 1.449 . S
C647 C450 1.450 . S
C662 C87 1.450 . S
C697 C120 1.450 . S
C712 C483 1.450 . S
C747 C318 1.450 . S
C762 C153 1.450 . S
C797 C351 1.450 . S
C812 C186 1.450 . S
C847 C384 1.450 . S
C862 C219 1.450 . S
C897 C285 1.450 . S
C912 C252 1.450 . S
C947 C7 1.349 . S
C962 C238 1.349 . S
C997 C40 1.349 . S
C1012 C139 1.348 . S
C1047 C73 1.348 . S
C1062 C172 1.349 . S
C1097 C106 1.349 . S
C1112 C205 1.348 . S
C1147 C502 1.348 . S
C1162 C271 1.348 . S
C1197 C403 1.348 . S
C1212 C304 1.348 . S
C1247 C436 1.348 . S
C1262 C337 1.349 . S
C1297 C370 1.349 . S
C1312 C469 1.349 . S
C1347 C18 1.014 . S
C1362 C150 1.014 . S
C1397 C183 1.014 . S
C1412 C51 1.014 . S
C1447 C216 1.015 . S
C1462 C84 1.015 . S
C1497 C117 1.015 . S
C1512 C249 1.015 . S
C1547 C414 1.014 . S
C1562 C282 1.014 . S
C1597 C315 1.015 . S
C1612 C447 1.015 . S
C1647 C348 1.015 . S
C1662 C480 1.015 . S
C1697 C513 1.015 . S
C1712 C381 1.015 . S
C1747 N2 1.279 . S
C1762 N13 1.281 . S
C1797 N46 1.280 . S
C1812 N35 1.278 . S
C1847 N68 1.278 . S
C1862 N79 1.280 . S
C1897 N112 1.280 . S
C1912 N101 1.278 . S
C1947 N134 1.279 . S
C1962 N145 1.281 . S
C1997 N167 1.278 . S
C2012 N178 1.280 . S
C2047 N200 1.279 . S
C2062 N211 1.280 . S
C2097 N233 1.278 . S
C2112 N244 1.280 . S
C2147 N277 1.280 . S
C2162 N266 1.278 . S
C2197 N310 1.280 . S
C2212 N299 1.278 . S
C2247 N343 1.280 . S
C2262 N332 1.279 . S
C2297 N376 1.280 . S
C2312 N365 1.279 . S
C2347 N398 1.279 . S
C2362 N409 1.281 . S
C2397 N431 1.279 . S
C2412 N442 1.280 . S
C2447 N475 1.280 . S
C2462 N464 1.278 . S
C2497 N508 1.281 . S
C2512 N497 1.279 . S
