# Generated by pormake.
# Topology fob, (5)-cn, num edge types: 1
# Building blocks:
#     Node 0, Type 0, BuildingBlock: XOMCOT_clean_sbu_0, # of connection points: 5
#     Node 1, Type 0, BuildingBlock: XOMCOT_clean_sbu_0, # of connection points: 5
#     Node 2, Type 0, BuildingBlock: XOMCOT_clean_sbu_0, # of connection points: 5
#     Node 3, Type 0, BuildingBlock: XOMCOT_clean_sbu_0, # of connection points: 5
#     Node 4, Type 0, BuildingBlock: XOMCOT_clean_sbu_0, # of connection points: 5
#     Node 5, Type 0, BuildingBlock: XOMCOT_clean_sbu_0, # of connection points: 5
#     Node 6, Type 0, BuildingBlock: XOMCOT_clean_sbu_0, # of connection points: 5
#     Node 7, Type 0, BuildingBlock: XOMCOT_clean_sbu_0, # of connection points: 5
#     Node 8, Type 0, BuildingBlock: XOMCOT_clean_sbu_0, # of connection points: 5
#     Node 9, Type 0, BuildingBlock: XOMCOT_clean_sbu_0, # of connection points: 5
#     Node 10, Type 0, BuildingBlock: XOMCOT_clean_sbu_0, # of connection points: 5
#     Node 11, Type 0, BuildingBlock: XOMCOT_clean_sbu_0, # of connection points: 5
#     Node 12, Type 0, BuildingBlock: XOMCOT_clean_sbu_0, # of connection points: 5
#     Node 13, Type 0, BuildingBlock: XOMCOT_clean_sbu_0, # of connection points: 5
#     Node 14, Type 0, BuildingBlock: XOMCOT_clean_sbu_0, # of connection points: 5
#     Node 15, Type 0, BuildingBlock: XOMCOT_clean_sbu_0, # of connection points: 5
#     Edge 16, Type (0, 0), BuildingBlock: XIVTED_clean_linker_0, # of connection points: 2
#     Edge 17, Type (0, 0), BuildingBlock: XIVTED_clean_linker_0, # of connection points: 2
#     Edge 18, Type (0, 0), BuildingBlock: XIVTED_clean_linker_0, # of connection points: 2
#     Edge 19, Type (0, 0), BuildingBlock: XIVTED_clean_linker_0, # of connection points: 2
#     Edge 20, Type (0, 0), BuildingBlock: XIVTED_clean_linker_0, # of connection points: 2
#     Edge 21, Type (0, 0), BuildingBlock: XIVTED_clean_linker_0, # of connection points: 2
#     Edge 22, Type (0, 0), BuildingBlock: XIVTED_clean_linker_0, # of connection points: 2
#     Edge 23, Type (0, 0), BuildingBlock: XIVTED_clean_linker_0, # of connection points: 2
#     Edge 24, Type (0, 0), BuildingBlock: XIVTED_clean_linker_0, # of connection points: 2
#     Edge 25, Type (0, 0), BuildingBlock: XIVTED_clean_linker_0, # of connection points: 2
#     Edge 26, Type (0, 0), BuildingBlock: XIVTED_clean_linker_0, # of connection points: 2
#     Edge 27, Type (0, 0), BuildingBlock: XIVTED_clean_linker_0, # of connection points: 2
#     Edge 28, Type (0, 0), BuildingBlock: XIVTED_clean_linker_0, # of connection points: 2
#     Edge 29, Type (0, 0), BuildingBlock: XIVTED_clean_linker_0, # of connection points: 2
#     Edge 30, Type (0, 0), BuildingBlock: XIVTED_clean_linker_0, # of connection points: 2
#     Edge 31, Type (0, 0), BuildingBlock: XIVTED_clean_linker_0, # of connection points: 2
#     Edge 32, Type (0, 0), BuildingBlock: XIVTED_clean_linker_0, # of connection points: 2
#     Edge 33, Type (0, 0), BuildingBlock: XIVTED_clean_linker_0, # of connection points: 2
#     Edge 34, Type (0, 0), BuildingBlock: XIVTED_clean_linker_0, # of connection points: 2
#     Edge 35, Type (0, 0), BuildingBlock: XIVTED_clean_linker_0, # of connection points: 2
#     Edge 36, Type (0, 0), BuildingBlock: XIVTED_clean_linker_0, # of connection points: 2
#     Edge 37, Type (0, 0), BuildingBlock: XIVTED_clean_linker_0, # of connection points: 2
#     Edge 38, Type (0, 0), BuildingBlock: XIVTED_clean_linker_0, # of connection points: 2
#     Edge 39, Type (0, 0), BuildingBlock: XIVTED_clean_linker_0, # of connection points: 2
#     Edge 40, Type (0, 0), BuildingBlock: XIVTED_clean_linker_0, # of connection points: 2
#     Edge 41, Type (0, 0), BuildingBlock: XIVTED_clean_linker_0, # of connection points: 2
#     Edge 42, Type (0, 0), BuildingBlock: XIVTED_clean_linker_0, # of connection points: 2
#     Edge 43, Type (0, 0), BuildingBlock: XIVTED_clean_linker_0, # of connection points: 2
#     Edge 44, Type (0, 0), BuildingBlock: XIVTED_clean_linker_0, # of connection points: 2
#     Edge 45, Type (0, 0), BuildingBlock: XIVTED_clean_linker_0, # of connection points: 2
#     Edge 46, Type (0, 0), BuildingBlock: XIVTED_clean_linker_0, # of connection points: 2
#     Edge 47, Type (0, 0), BuildingBlock: XIVTED_clean_linker_0, # of connection points: 2
#     Edge 48, Type (0, 0), BuildingBlock: XIVTED_clean_linker_0, # of connection points: 2
#     Edge 49, Type (0, 0), BuildingBlock: XIVTED_clean_linker_0, # of connection points: 2
#     Edge 50, Type (0, 0), BuildingBlock: XIVTED_clean_linker_0, # of connection points: 2
#     Edge 51, Type (0, 0), BuildingBlock: XIVTED_clean_linker_0, # of connection points: 2
#     Edge 52, Type (0, 0), BuildingBlock: XIVTED_clean_linker_0, # of connection points: 2
#     Edge 53, Type (0, 0), BuildingBlock: XIVTED_clean_linker_0, # of connection points: 2
#     Edge 54, Type (0, 0), BuildingBlock: XIVTED_clean_linker_0, # of connection points: 2
#     Edge 55, Type (0, 0), BuildingBlock: XIVTED_clean_linker_0, # of connection points: 2
# Relax obj value: 0.074
# Max RMSD: 0.139
# Mean RMSD: 0.139
data_MOF--net-fob--node1-XOMCOT_clean_sbu_0--edge1-XIVTED_clean_linker_0
_symmetry_space_group_name_H-M    P1
_symmetry_Int_Tables_number       1
_symmetry_cell_setting            triclinic
loop_
_symmetry_equiv_pos_as_xyz
'x, y, z'
_cell_length_a     26.936826
_cell_length_b     65.036091
_cell_length_c     50.350773
_cell_angle_alpha  100.47672
_cell_angle_beta   89.959908
_cell_angle_gamma 89.958424
loop_
_atom_site_label
_atom_site_type_symbol
_atom_site_fract_x
_atom_site_fract_y
_atom_site_fract_z
_atom_type_partial_charge
Co0 Co 0.11752 0.13926 0.46507 0.0
C1 C 0.08134 0.09615 0.46235 0.0
C2 C 0.15343 0.09657 0.44429 0.0
C3 C 0.14031 0.07609 0.44431 0.0
N4 N 0.11637 0.10909 0.45556 0.0
N5 N 0.0951 0.07585 0.45586 0.0
H6 H 0.04717 0.10158 0.47258 0.0
H7 H 0.18856 0.10192 0.43772 0.0
C8 C 0.16711 0.1531 0.41831 0.0
O9 O 0.13261 0.16744 0.41852 0.0
N10 N 0.1199 0.16969 0.47541 0.0
C11 C 0.08451 0.18289 0.48751 0.0
C12 C 0.10336 0.20283 0.49307 0.0
C13 C 0.16053 0.18188 0.47501 0.0
N14 N 0.15117 0.20224 0.4851 0.0
C15 C 0.01555 0.14656 0.45436 0.0
C16 C 0.01907 0.13345 0.39914 0.0
C17 C 0.97476 0.14207 0.41102 0.0
C18 C 0.97325 0.14827 0.43914 0.0
C19 C 0.06091 0.13238 0.41523 0.0
N20 N 0.05966 0.14023 0.44229 0.0
H21 H 0.01227 0.15006 0.47599 0.0
H22 H 0.09406 0.12501 0.40588 0.0
H23 H 0.04799 0.17863 0.49319 0.0
H24 H 0.19658 0.17586 0.46798 0.0
O25 O 0.084 0.13758 0.49804 0.0
O26 O 0.166 0.13736 0.4927 0.0
O27 O 0.16512 0.14037 0.43478 0.0
C28 C 0.12788 0.13643 0.50835 0.0
H29 H 0.16352 0.06254 0.43766 0.0
H30 H 0.08319 0.21668 0.50236 0.0
H31 H 0.02139 0.12738 0.37768 0.0
H32 H 0.93991 0.15463 0.44952 0.0
Co33 Co 0.10811 0.14331 0.74957 0.0
C34 C 0.07337 0.18603 0.74649 0.0
C35 C 0.14807 0.18584 0.76132 0.0
C36 C 0.13539 0.20607 0.75974 0.0
N37 N 0.10913 0.17335 0.75316 0.0
N38 N 0.08844 0.20621 0.75038 0.0
H39 H 0.03731 0.18055 0.73881 0.0
H40 H 0.1837 0.18055 0.76734 0.0
C41 C 0.15517 0.13419 0.79956 0.0
O42 O 0.12068 0.1201 0.80074 0.0
N43 N 0.10893 0.11292 0.74541 0.0
C44 C 0.07157 0.099 0.73969 0.0
C45 C 0.0908 0.07909 0.73639 0.0
C46 C 0.15044 0.10114 0.74484 0.0
N47 N 0.14042 0.08044 0.73968 0.0
C48 C 0.00453 0.13996 0.75938 0.0
C49 C 0.0059 0.15523 0.81421 0.0
C50 C 0.96154 0.14709 0.80202 0.0
C51 C 0.96086 0.14021 0.77407 0.0
C52 C 0.04893 0.15483 0.79855 0.0
N53 N 0.04862 0.1457 0.77186 0.0
H54 H 0.00261 0.13474 0.73784 0.0
H55 H 0.08226 0.16181 0.80804 0.0
H56 H 0.03307 0.1026 0.73721 0.0
H57 H 0.1874 0.10768 0.74763 0.0
O58 O 0.07672 0.14091 0.71519 0.0
O59 O 0.15833 0.14117 0.72171 0.0
O60 O 0.15386 0.14543 0.78129 0.0
C61 C 0.12109 0.13963 0.705 0.0
H62 H 0.15958 0.21953 0.76429 0.0
H63 H 0.06971 0.06472 0.73186 0.0
H64 H 0.00771 0.16139 0.83566 0.0
H65 H 0.92685 0.13489 0.76355 0.0
Co66 Co 0.89952 0.88942 0.50116 0.0
C67 C 0.93779 0.93214 0.50175 0.0
C68 C 0.86523 0.93256 0.51949 0.0
C69 C 0.87922 0.95282 0.51891 0.0
N70 N 0.90204 0.91963 0.50886 0.0
N71 N 0.92474 0.95256 0.50763 0.0
H72 H 0.97204 0.92633 0.49189 0.0
H73 H 0.82973 0.92762 0.52608 0.0
C74 C 0.84825 0.87767 0.54884 0.0
O75 O 0.88043 0.86247 0.54888 0.0
N76 N 0.89548 0.85899 0.49283 0.0
C77 C 0.93145 0.84479 0.48457 0.0
C78 C 0.91084 0.82513 0.47969 0.0
C79 C 0.85323 0.84765 0.49196 0.0
N80 N 0.86164 0.8269 0.48443 0.0
C81 C 0.00184 0.88306 0.51153 0.0
C82 C 0.9992 0.89673 0.56671 0.0
C83 C 0.04391 0.88908 0.55444 0.0
C84 C 0.04508 0.88264 0.52641 0.0
C85 C 0.9566 0.89688 0.55093 0.0
N86 N 0.9576 0.88886 0.52388 0.0
H87 H 0.0045 0.879 0.48987 0.0
H88 H 0.9233 0.90385 0.5605 0.0
H89 H 0.96994 0.84807 0.48156 0.0
H90 H 0.81696 0.85455 0.49654 0.0
O91 O 0.93285 0.88946 0.46773 0.0
O92 O 0.851 0.8908 0.47333 0.0
O93 O 0.8521 0.88994 0.53189 0.0
C94 C 0.8891 0.89079 0.4574 0.0
H95 H 0.85646 0.96658 0.5251 0.0
H96 H 0.93083 0.81063 0.47332 0.0
H97 H 0.99706 0.90249 0.58825 0.0
H98 H 0.0794 0.87771 0.51593 0.0
Co99 Co 0.88724 0.89928 0.21921 0.0
C100 C 0.91528 0.85546 0.22401 0.0
C101 C 0.83988 0.85784 0.21162 0.0
C102 C 0.84861 0.83755 0.21467 0.0
N103 N 0.8821 0.86904 0.21667 0.0
N104 N 0.89607 0.83608 0.22252 0.0
H105 H 0.952 0.85964 0.23144 0.0
H106 H 0.80436 0.86416 0.20714 0.0
C107 C 0.83177 0.88625 0.1675 0.0
O108 O 0.865 0.87169 0.15922 0.0
N109 N 0.89063 0.92924 0.22233 0.0
C110 C 0.93118 0.94146 0.22672 0.0
C111 C 0.91647 0.96204 0.2294 0.0
C112 C 0.85193 0.9424 0.22254 0.0
N113 N 0.86658 0.96261 0.22681 0.0
C114 C 0.9865 0.88931 0.20203 0.0
C115 C 0.98113 0.90233 0.1529 0.0
C116 C 0.02519 0.89324 0.16011 0.0
C117 C 0.02781 0.88714 0.18528 0.0
C118 C 0.94041 0.90421 0.17043 0.0
N119 N 0.94252 0.89654 0.19396 0.0
H120 H 0.99085 0.88589 0.22197 0.0
H121 H 0.90755 0.91211 0.16521 0.0
H122 H 0.96867 0.93581 0.22822 0.0
H123 H 0.81372 0.93723 0.22048 0.0
O124 O 0.92448 0.90133 0.25183 0.0
O125 O 0.84211 0.90267 0.24938 0.0
O126 O 0.83636 0.89848 0.19018 0.0
C127 C 0.88188 0.90316 0.26415 0.0
H128 H 0.82143 0.82512 0.21249 0.0
H129 H 0.94073 0.97551 0.23301 0.0
H130 H 0.97809 0.90791 0.13397 0.0
H131 H 0.06203 0.88126 0.1924 0.0
Co132 Co 0.10046 0.6401 0.9651 0.0
C133 C 0.07155 0.59699 0.96919 0.0
C134 C 0.14838 0.59892 0.95851 0.0
C135 C 0.13789 0.57858 0.96074 0.0
N136 N 0.10675 0.61038 0.96374 0.0
N137 N 0.08957 0.57737 0.96751 0.0
H138 H 0.03393 0.6017 0.9749 0.0
H139 H 0.18403 0.60497 0.95373 0.0
C140 C 0.15212 0.64841 0.91602 0.0
O141 O 0.11363 0.65941 0.91075 0.0
N142 N 0.09595 0.6702 0.96694 0.0
C143 C 0.05631 0.68315 0.96974 0.0
C144 C 0.07278 0.70347 0.97217 0.0
C145 C 0.13576 0.68295 0.96829 0.0
N146 N 0.12279 0.70329 0.97118 0.0
C147 C 0.99869 0.63928 0.94949 0.0
C148 C 0.01115 0.61881 0.89684 0.0
C149 C 0.96344 0.62499 0.90611 0.0
C150 C 0.95736 0.63495 0.93293 0.0
C151 C 0.05158 0.62317 0.91435 0.0
N152 N 0.04544 0.63452 0.93981 0.0
H153 H 0.99269 0.64632 0.97031 0.0
H154 H 0.08757 0.61713 0.90746 0.0
H155 H 0.01804 0.67864 0.97066 0.0
H156 H 0.17366 0.67736 0.96777 0.0
O157 O 0.06344 0.64257 -0.002 0.0
O158 O 0.14548 0.64505 -0.0046 0.0
O159 O 0.15159 0.63873 0.9359 0.0
C160 C 0.10587 0.64553 0.01031 0.0
H161 H 0.16394 0.56569 0.95753 0.0
H162 H 0.0496 0.71727 0.97452 0.0
H163 H 0.01696 0.61038 0.87646 0.0
H164 H 0.92096 0.63964 0.94101 0.0
Co165 Co 0.09904 0.6476 0.25195 0.0
C166 C 0.06133 0.6907 0.25717 0.0
C167 C 0.13635 0.69021 0.27141 0.0
C168 C 0.12203 0.71071 0.27269 0.0
N169 N 0.09819 0.67773 0.26174 0.0
N170 N 0.07491 0.71101 0.26358 0.0
H171 H 0.02575 0.68526 0.24873 0.0
H172 H 0.17267 0.68479 0.27615 0.0
C173 C 0.14785 0.6341 0.29898 0.0
O174 O 0.11232 0.62028 0.29906 0.0
N175 N 0.10129 0.61716 0.24105 0.0
C176 C 0.06862 0.60462 0.22544 0.0
C177 C 0.08705 0.58459 0.21998 0.0
C178 C 0.1406 0.60458 0.24324 0.0
N179 N 0.13228 0.58452 0.23133 0.0
C180 C 0.99901 0.6384 0.26508 0.0
C181 C 0.00267 0.65764 0.31869 0.0
C182 C 0.95854 0.64814 0.3082 0.0
C183 C 0.95688 0.6385 0.28107 0.0
C184 C 0.04438 0.65681 0.30204 0.0
N185 N 0.04274 0.64659 0.27579 0.0
H186 H 0.99542 0.63266 0.24383 0.0
H187 H 0.07764 0.66488 0.3101 0.0
H188 H 0.03523 0.60961 0.2167 0.0
H189 H 0.17513 0.61007 0.25288 0.0
O190 O 0.06336 0.64962 0.21972 0.0
O191 O 0.14567 0.64964 0.22348 0.0
O192 O 0.14775 0.64628 0.28175 0.0
C193 C 0.10657 0.65064 0.20854 0.0
H194 H 0.14547 0.72427 0.27864 0.0
H195 H 0.06939 0.57132 0.20747 0.0
H196 H 0.00481 0.66572 0.33946 0.0
H197 H 0.92266 0.63185 0.27199 0.0
Co198 Co 0.88625 0.38879 -0.00094 0.0
C199 C 0.91974 0.43204 -0.00139 0.0
C200 C 0.84384 0.43098 0.01136 0.0
C201 C 0.85581 0.45138 0.01033 0.0
N202 N 0.88393 0.41891 0.00407 0.0
N203 N 0.90348 0.45205 0.0022 0.0
H204 H 0.95622 0.42691 -0.00883 0.0
H205 H 0.80796 0.42529 0.01637 0.0
C206 C 0.83152 0.3776 0.04601 0.0
O207 O 0.86445 0.36295 0.04757 0.0
N208 N 0.88703 0.35839 -0.00657 0.0
C209 C 0.92567 0.34496 -0.01014 0.0
C210 C 0.90765 0.32481 -0.01433 0.0
C211 C 0.84617 0.34615 -0.00934 0.0
N212 N 0.85763 0.3256 -0.01365 0.0
C213 C 0.98858 0.38725 0.01272 0.0
C214 C 0.97947 0.40189 0.06747 0.0
C215 C 0.02695 0.39695 0.05657 0.0
C216 C 0.03098 0.39001 0.02864 0.0
C217 C 0.93794 0.39949 0.05055 0.0
N218 N 0.94245 0.39115 0.02372 0.0
H219 H 0.99338 0.38222 -0.00872 0.0
H220 H 0.90261 0.40489 0.05916 0.0
H221 H 0.96434 0.34911 -0.01002 0.0
H222 H 0.8087 0.35228 -0.00816 0.0
O223 O 0.92225 0.38779 0.96616 0.0
O224 O 0.84009 0.38715 0.96927 0.0
O225 O 0.83625 0.3896 0.02875 0.0
C226 C 0.87948 0.38685 0.9542 0.0
H227 H 0.83105 0.46466 0.015 0.0
H228 H 0.9298 0.31068 0.98278 0.0
H229 H 0.97409 0.40766 0.08882 0.0
H230 H 0.06668 0.38707 0.01881 0.0
Co231 Co 0.89668 0.39599 0.71493 0.0
C232 C 0.93069 0.35271 0.71407 0.0
C233 C 0.85653 0.35353 0.69872 0.0
C234 C 0.86905 0.33304 0.69907 0.0
N235 N 0.89527 0.36579 0.70805 0.0
N236 N 0.91562 0.33253 0.70885 0.0
H237 H 0.96638 0.35796 0.72253 0.0
H238 H 0.82102 0.35913 0.69297 0.0
C239 C 0.84826 0.40808 0.66693 0.0
O240 O 0.88305 0.42216 0.66646 0.0
N241 N 0.89635 0.42649 0.72253 0.0
C242 C 0.93325 0.44005 0.73138 0.0
C243 C 0.91484 0.46011 0.73514 0.0
C244 C 0.85559 0.43862 0.72228 0.0
N245 N 0.86602 0.45922 0.72924 0.0
C246 C 0.99923 0.40053 0.70266 0.0
C247 C 0.99406 0.38249 0.64868 0.0
C248 C 0.03965 0.39 0.65968 0.0
C249 C 0.04211 0.39893 0.68704 0.0
C250 C 0.95173 0.38479 0.66499 0.0
N251 N 0.9542 0.39468 0.69137 0.0
H252 H 0.0029 0.4057 0.72411 0.0
H253 H 0.91742 0.37799 0.65654 0.0
H254 H 0.97067 0.4361 0.73586 0.0
H255 H 0.81908 0.4324 0.71669 0.0
O256 O 0.93056 0.3957 0.74818 0.0
O257 O 0.84856 0.39627 0.74345 0.0
O258 O 0.84918 0.39611 0.68437 0.0
C259 C 0.88685 0.39571 0.75909 0.0
H260 H 0.84482 0.31968 0.69363 0.0
H261 H 0.93573 0.47423 0.74234 0.0
H262 H 0.99121 0.37486 0.62773 0.0
H263 H 0.07725 0.40396 0.6965 0.0
Co264 Co 0.60761 0.13904 0.96402 0.0
C265 C 0.57573 0.09504 0.96438 0.0
C266 C 0.65183 0.09693 0.95296 0.0
C267 C 0.64138 0.07648 0.95461 0.0
N268 N 0.6103 0.10857 0.95837 0.0
N269 N 0.59349 0.07534 0.96193 0.0
H270 H 0.53908 0.09948 0.97172 0.0
H271 H 0.68802 0.10305 0.9493 0.0
C272 C 0.66058 0.12775 0.91125 0.0
O273 O 0.62777 0.11297 0.9033 0.0
N274 N 0.60663 0.16918 0.97021 0.0
C275 C 0.56742 0.18195 0.97665 0.0
C276 C 0.58363 0.20235 0.9796 0.0
C277 C 0.64601 0.18182 0.96949 0.0
N278 N 0.63309 0.20224 0.97506 0.0
C279 C 0.50662 0.13224 0.94815 0.0
C280 C 0.51189 0.14762 0.90062 0.0
C281 C 0.46684 0.13943 0.908 0.0
C282 C 0.46438 0.1321 0.93238 0.0
C283 C 0.55352 0.14747 0.91716 0.0
N284 N 0.55124 0.13871 0.93985 0.0
H285 H 0.50254 0.12788 0.96761 0.0
H286 H 0.58711 0.15485 0.91194 0.0
H287 H 0.52977 0.1768 0.97901 0.0
H288 H 0.68349 0.1761 0.96547 0.0
O289 O 0.57168 0.13943 -0.00319 0.0
O290 O 0.65394 0.13993 -0.00656 0.0
O291 O 0.65706 0.13937 0.93445 0.0
C292 C 0.61467 0.13974 0.0085 0.0
H293 H 0.66774 0.0637 0.95209 0.0
H294 H 0.56057 0.21616 -0.01558 0.0
H295 H 0.51498 0.15408 0.88232 0.0
H296 H 0.42966 0.12682 0.93969 0.0
Co297 Co 0.61775 0.15021 0.25238 0.0
C298 C 0.58385 0.1932 0.24782 0.0
C299 C 0.65997 0.19274 0.2597 0.0
C300 C 0.64797 0.21278 0.25666 0.0
N301 N 0.61934 0.1805 0.2549 0.0
N302 N 0.59995 0.21304 0.24923 0.0
H303 H 0.54808 0.18796 0.23987 0.0
H304 H 0.69647 0.18737 0.2642 0.0
C305 C 0.67362 0.16429 0.3038 0.0
O306 O 0.63912 0.17823 0.31232 0.0
N307 N 0.61733 0.12021 0.24924 0.0
C308 C 0.57755 0.10752 0.24514 0.0
C309 C 0.59361 0.08713 0.24215 0.0
C310 C 0.65702 0.10748 0.24856 0.0
N311 N 0.64362 0.0871 0.24423 0.0
C312 C 0.5178 0.15808 0.27006 0.0
C313 C 0.52645 0.14478 0.31887 0.0
C314 C 0.48075 0.15259 0.31177 0.0
C315 C 0.47662 0.15897 0.28682 0.0
C316 C 0.56697 0.14422 0.30138 0.0
N317 N 0.56303 0.15192 0.27794 0.0
H318 H 0.5123 0.16141 0.25015 0.0
H319 H 0.60106 0.13712 0.30646 0.0
H320 H 0.5396 0.11273 0.24399 0.0
H321 H 0.69493 0.11305 0.2503 0.0
O322 O 0.57983 0.14749 0.21983 0.0
O323 O 0.66228 0.14759 0.22202 0.0
O324 O 0.66952 0.15197 0.28115 0.0
C325 C 0.62227 0.14632 0.20735 0.0
H326 H 0.67298 0.226 0.25934 0.0
H327 H 0.57016 0.0734 0.23868 0.0
H328 H 0.5308 0.13904 0.33762 0.0
H329 H 0.44132 0.16388 0.27977 0.0
Co330 Co 0.38763 0.88766 -0.00016 0.0
C331 C 0.42514 0.92995 -0.00325 0.0
C332 C 0.34836 0.93037 0.0084 0.0
C333 C 0.36258 0.95043 0.00687 0.0
N334 N 0.38763 0.9176 0.00221 0.0
N335 N 0.41085 0.95018 -0.00047 0.0
H336 H 0.46197 0.9242 -0.00914 0.0
H337 H 0.31165 0.92537 0.01314 0.0
C338 C 0.33538 0.88015 0.04917 0.0
O339 O 0.36886 0.86596 0.0518 0.0
N340 N 0.38586 0.85735 -0.00309 0.0
C341 C 0.42325 0.84328 -0.00563 0.0
C342 C 0.40355 0.82348 -0.00915 0.0
C343 C 0.34395 0.84572 -0.00554 0.0
N344 N 0.35367 0.825 -0.00911 0.0
C345 C 0.48981 0.88427 0.01275 0.0
C346 C 0.48452 0.90406 0.06598 0.0
C347 C 0.5303 0.896 0.05551 0.0
C348 C 0.53254 0.88624 0.02837 0.0
C349 C 0.44229 0.90142 0.04961 0.0
N350 N 0.44478 0.89053 0.02374 0.0
H351 H 0.49327 0.87751 -0.00836 0.0
H352 H 0.40804 0.90863 0.05763 0.0
H353 H 0.46231 0.84658 -0.00558 0.0
H354 H 0.30706 0.85236 -0.00525 0.0
O355 O 0.42229 0.88439 0.96628 0.0
O356 O 0.34014 0.8852 0.97072 0.0
O357 O 0.33897 0.89077 0.03033 0.0
C358 C 0.37886 0.88352 0.95499 0.0
H359 H 0.33869 0.96404 0.01016 0.0
H360 H 0.42455 0.80907 -0.01154 0.0
H361 H 0.48139 0.9126 0.08648 0.0
H362 H 0.56685 0.87985 0.01914 0.0
Co363 Co 0.3993 0.89606 0.71826 0.0
C364 C 0.43184 0.8522 0.71987 0.0
C365 C 0.35611 0.85388 0.70766 0.0
C366 C 0.36652 0.83353 0.70981 0.0
N367 N 0.39743 0.86559 0.71323 0.0
N368 N 0.41416 0.83251 0.7176 0.0
H369 H 0.46827 0.85674 0.72745 0.0
H370 H 0.32005 0.8599 0.70352 0.0
C371 C 0.35032 0.88343 0.66462 0.0
O372 O 0.38385 0.86872 0.65786 0.0
N373 N 0.39937 0.92618 0.72385 0.0
C374 C 0.43788 0.9392 0.73087 0.0
C375 C 0.42089 0.9595 0.73371 0.0
C376 C 0.35964 0.93856 0.72265 0.0
N377 N 0.37164 0.95906 0.72852 0.0
C378 C 0.50157 0.88939 0.70475 0.0
C379 C 0.4989 0.90257 0.65567 0.0
C380 C 0.5431 0.89426 0.66398 0.0
C381 C 0.54441 0.88819 0.6892 0.0
C382 C 0.4567 0.90351 0.67201 0.0
N383 N 0.45758 0.89563 0.69539 0.0
H384 H 0.50442 0.88572 0.72466 0.0
H385 H 0.42361 0.91075 0.66588 0.0
H386 H 0.47552 0.93429 0.73386 0.0
H387 H 0.3225 0.9326 0.71821 0.0
O388 O 0.43228 0.89701 0.75199 0.0
O389 O 0.35039 0.89698 0.74643 0.0
O390 O 0.35233 0.89568 0.68743 0.0
C391 C 0.38824 0.89692 0.76249 0.0
H392 H 0.34025 0.82074 0.70725 0.0
H393 H 0.44322 0.97346 0.73903 0.0
H394 H 0.49673 0.9081 0.63668 0.0
H395 H 0.57852 0.88286 0.69712 0.0
Co396 Co 0.59818 0.64352 0.4653 0.0
C397 C 0.56581 0.60031 0.46769 0.0
C398 C 0.64049 0.60136 0.45304 0.0
C399 C 0.62927 0.581 0.4547 0.0
N400 N 0.60072 0.61341 0.46112 0.0
N401 N 0.58239 0.58032 0.46403 0.0
H402 H 0.52978 0.60544 0.47583 0.0
H403 H 0.67568 0.60702 0.44695 0.0
C404 C 0.64681 0.65346 0.41615 0.0
O405 O 0.61183 0.66732 0.41475 0.0
N406 N 0.59773 0.67399 0.47012 0.0
C407 C 0.56017 0.68777 0.47663 0.0
C408 C 0.57877 0.70777 0.47985 0.0
C409 C 0.63879 0.68599 0.47038 0.0
N410 N 0.62822 0.70665 0.47581 0.0
C411 C 0.49553 0.64688 0.4528 0.0
C412 C 0.50103 0.62846 0.39896 0.0
C413 C 0.45576 0.63674 0.40964 0.0
C414 C 0.453 0.6456 0.43701 0.0
C415 C 0.54309 0.63043 0.4155 0.0
N416 N 0.54057 0.64077 0.44168 0.0
H417 H 0.49182 0.65264 0.47415 0.0
H418 H 0.57737 0.62338 0.40726 0.0
H419 H 0.52199 0.68404 0.4797 0.0
H420 H 0.67587 0.67963 0.46704 0.0
O421 O 0.56428 0.64512 0.49894 0.0
O422 O 0.64627 0.64569 0.49417 0.0
O423 O 0.64576 0.6422 0.4344 0.0
C424 C 0.6079 0.64641 0.51006 0.0
H425 H 0.65399 0.56776 0.44954 0.0
H426 H 0.55735 0.72205 0.48478 0.0
H427 H 0.50398 0.62083 0.37802 0.0
H428 H 0.41802 0.65125 0.44622 0.0
Co429 Co 0.60502 0.64251 0.75067 0.0
C430 C 0.57093 0.68585 0.75407 0.0
C431 C 0.64529 0.68484 0.76908 0.0
C432 C 0.63254 0.70542 0.76929 0.0
N433 N 0.60655 0.67266 0.75956 0.0
N434 N 0.58585 0.70602 0.75966 0.0
H435 H 0.53531 0.68066 0.74548 0.0
H436 H 0.68099 0.67915 0.7744 0.0
C437 C 0.65651 0.62762 0.79607 0.0
O438 O 0.62036 0.61417 0.79678 0.0
N439 N 0.60443 0.61213 0.74109 0.0
C440 C 0.56606 0.599 0.7338 0.0
C441 C 0.5836 0.57878 0.72869 0.0
C442 C 0.64492 0.59967 0.73927 0.0
N443 N 0.63321 0.57919 0.73234 0.0
C444 C 0.50226 0.63928 0.7627 0.0
C445 C 0.50899 0.65027 0.81812 0.0
C446 C 0.46223 0.6452 0.80639 0.0
C447 C 0.45934 0.64025 0.77817 0.0
C448 C 0.55102 0.64969 0.80169 0.0
N449 N 0.54782 0.6429 0.77442 0.0
H450 H 0.4983 0.63597 0.74106 0.0
H451 H 0.58579 0.65505 0.81104 0.0
H452 H 0.52794 0.60344 0.73183 0.0
H453 H 0.6821 0.60556 0.74375 0.0
O454 O 0.57038 0.6443 0.71805 0.0
O455 O 0.65238 0.64326 0.72193 0.0
O456 O 0.65426 0.64077 0.78012 0.0
C457 C 0.6137 0.64457 0.70684 0.0
H458 H 0.65678 0.71876 0.77486 0.0
H459 H 0.56138 0.56489 0.7225 0.0
H460 H 0.51342 0.65468 0.83976 0.0
H461 H 0.42408 0.63751 0.76784 0.0
Co462 Co 0.3981 0.38914 0.50014 0.0
C463 C 0.42857 0.43266 0.49863 0.0
C464 C 0.35344 0.43095 0.51233 0.0
C465 C 0.36404 0.45144 0.51101 0.0
N466 N 0.39391 0.41923 0.50463 0.0
N467 N 0.41123 0.45252 0.50229 0.0
H468 H 0.46504 0.42783 0.49087 0.0
H469 H 0.31825 0.42497 0.51794 0.0
C470 C 0.3488 0.37863 0.54896 0.0
O471 O 0.38371 0.36479 0.55054 0.0
N472 N 0.40062 0.35867 0.49495 0.0
C473 C 0.43912 0.34556 0.48751 0.0
C474 C 0.42246 0.32526 0.48394 0.0
C475 C 0.36081 0.34598 0.49486 0.0
N476 N 0.37324 0.32552 0.48867 0.0
C477 C 0.5007 0.38698 0.51318 0.0
C478 C 0.4935 0.4053 0.567 0.0
C479 C 0.53953 0.39791 0.55641 0.0
C480 C 0.54308 0.38904 0.52909 0.0
C481 C 0.45162 0.40257 0.55034 0.0
N482 N 0.45512 0.39235 0.52414 0.0
H483 H 0.50505 0.38144 0.49184 0.0
H484 H 0.41676 0.40908 0.55846 0.0
H485 H 0.4766 0.34996 0.48386 0.0
H486 H 0.32327 0.35167 0.49878 0.0
O487 O 0.43262 0.3882 0.46681 0.0
O488 O 0.35062 0.38671 0.47099 0.0
O489 O 0.34999 0.38985 0.53067 0.0
C490 C 0.38925 0.38673 0.45542 0.0
H491 H 0.33869 0.46449 0.51599 0.0
H492 H 0.44501 0.31137 0.47826 0.0
H493 H 0.4899 0.41293 0.5879 0.0
H494 H 0.5786 0.38409 0.51997 0.0
Co495 Co 0.38556 0.39867 0.217 0.0
C496 C 0.4214 0.35555 0.21467 0.0
C497 C 0.34483 0.35602 0.20294 0.0
C498 C 0.35867 0.3356 0.2029 0.0
N499 N 0.38425 0.36845 0.21029 0.0
N500 N 0.40681 0.33534 0.21036 0.0
H501 H 0.45775 0.36101 0.22188 0.0
H502 H 0.30827 0.36145 0.19862 0.0
C503 C 0.33569 0.40801 0.16772 0.0
O504 O 0.37429 0.41918 0.16309 0.0
N505 N 0.38557 0.42926 0.22477 0.0
C506 C 0.41752 0.44199 0.24067 0.0
C507 C 0.40041 0.46222 0.24421 0.0
C508 C 0.34799 0.44204 0.22029 0.0
N509 N 0.35664 0.46226 0.23134 0.0
C510 C 0.48395 0.407 0.20008 0.0
C511 C 0.47872 0.38182 0.14965 0.0
C512 C 0.52291 0.39241 0.15775 0.0
C513 C 0.52531 0.40509 0.18328 0.0
C514 C 0.43783 0.38445 0.16699 0.0
N515 N 0.44029 0.39743 0.1916 0.0
H516 H 0.48811 0.4154 0.22033 0.0
H517 H 0.40434 0.37574 0.1608 0.0
H518 H 0.44927 0.437 0.25093 0.0
H519 H 0.31391 0.4366 0.21016 0.0
O520 O 0.42343 0.39814 0.24895 0.0
O521 O 0.3409 0.39895 0.24693 0.0
O522 O 0.33457 0.39882 0.18804 0.0
C523 C 0.38092 0.39816 0.26122 0.0
H524 H 0.33485 0.32205 0.19805 0.0
H525 H 0.41751 0.47565 0.25669 0.0
H526 H 0.47584 0.37158 0.13017 0.0
H527 H 0.55954 0.41284 0.19064 0.0
H528 H 0.14568 0.23966 0.51946 0.0
H529 H 0.38505 0.28692 0.45798 0.0
H530 H 0.23292 0.20528 0.45418 0.0
H531 H 0.28807 0.32312 0.51691 0.0
H532 H 0.33191 0.25646 0.45758 0.0
H533 H 0.19946 0.26985 0.52009 0.0
C534 C 0.17603 0.23842 0.50518 0.0
C535 C 0.18447 0.21983 0.48664 0.0
C536 C 0.32216 0.27106 0.47057 0.0
C537 C 0.24677 0.25449 0.48745 0.0
C538 C 0.35265 0.28846 0.4709 0.0
C539 C 0.34109 0.30764 0.48754 0.0
C540 C 0.27983 0.27275 0.48711 0.0
C541 C 0.29814 0.30875 0.50355 0.0
C542 C 0.2069 0.25571 0.50563 0.0
C543 C 0.22517 0.21915 0.46901 0.0
N544 N 0.2692 0.29154 0.50301 0.0
N545 N 0.25468 0.23623 0.46982 0.0
H546 H 0.91734 0.99308 0.53271 0.0
H547 H 0.10407 0.03527 0.43086 0.0
H548 H 0.9923 0.95282 0.46734 0.0
H549 H 0.02856 0.07511 0.49644 0.0
H550 H 0.06396 1.00488 0.44386 0.0
H551 H 0.9583 0.02323 0.51978 0.0
C552 C 0.94236 0.99055 0.51561 0.0
C553 C 0.95114 0.97032 0.50106 0.0
C554 C 0.0561 0.02028 0.45537 0.0
C555 C 0.99858 1.00491 0.48615 0.0
C556 C 0.07913 0.03766 0.448 0.0
C557 C 0.0698 0.05786 0.46254 0.0
C558 C 0.02346 0.02304 0.47751 0.0
C559 C 0.0365 0.05995 0.48437 0.0
C560 C 0.96591 1.0078 0.50827 0.0
C561 C 0.98471 0.96804 0.47934 0.0
N562 N 0.0147 0.04278 0.4912 0.0
N563 N 0.00702 0.98512 0.47249 0.0
H564 H 0.23078 0.0806 0.76386 0.0
H565 H 0.28361 0.96 0.70232 0.0
H566 H 0.1298 0.04103 0.71106 0.0
H567 H 0.38379 0.99862 0.75681 0.0
H568 H 0.2276 0.98976 0.7048 0.0
H569 H 0.28847 0.05117 0.76069 0.0
C570 C 0.22084 0.06579 0.75145 0.0
C571 C 0.17524 0.06333 0.73773 0.0
C572 C 0.26186 0.99175 0.71622 0.0
C573 C 0.24098 0.02946 0.73421 0.0
C574 C 0.29382 0.97468 0.71493 0.0
C575 C 0.33858 0.97669 0.72946 0.0
C576 C 0.27455 1.01107 0.73216 0.0
C577 C 0.35004 0.99632 0.74505 0.0
C578 C 0.25369 0.04894 0.74978 0.0
C579 C 0.16411 0.04363 0.72229 0.0
N580 N 0.31823 1.01271 0.74602 0.0
N581 N 0.19669 0.02751 0.72095 0.0
H582 H 0.98933 0.33159 0.74561 0.0
H583 H 0.01339 0.20663 0.7142 0.0
H584 H 0.9017 0.29185 0.68532 0.0
H585 H 0.10207 0.24694 0.77333 0.0
H586 H 0.9709 0.23746 0.70379 0.0
H587 H 0.0311 0.30068 0.75581 0.0
C588 C 0.97909 0.31641 0.73432 0.0
C589 C 0.94181 0.31442 0.71452 0.0
C590 C -0.00035 0.23955 0.71906 0.0
C591 C 0.98921 0.27876 0.72646 0.0
C592 C 0.02372 0.22191 0.72515 0.0
C593 C 0.0616 0.22413 0.74462 0.0
C594 C 0.0134 0.25958 0.73258 0.0
C595 C 0.07373 0.24443 0.75788 0.0
C596 C 0.00277 0.2987 0.74031 0.0
C597 C 0.9297 0.29419 0.70095 0.0
N598 N 0.04979 0.26131 0.75161 0.0
N599 N 0.95328 0.27718 0.70717 0.0
H600 H 0.77348 0.82699 0.51096 0.0
H601 H 0.71643 0.70672 0.44955 0.0
H602 H 0.8686 0.78805 0.45365 0.0
H603 H 0.61805 0.74616 0.50435 0.0
H604 H 0.77305 0.73627 0.45121 0.0
H605 H 0.71573 0.79773 0.50861 0.0
C606 C 0.78209 0.81238 0.4977 0.0
C607 C 0.82616 0.81004 0.48252 0.0
C608 C 0.73906 0.73847 0.46288 0.0
C609 C 0.76039 0.7763 0.48002 0.0
C610 C 0.70686 0.72154 0.4621 0.0
C611 C 0.66235 0.72389 0.47688 0.0
C612 C 0.72687 0.75796 0.47863 0.0
C613 C 0.65158 0.74363 0.49239 0.0
C614 C 0.74921 0.79561 0.49651 0.0
C615 C 0.83556 0.79055 0.46603 0.0
N616 N 0.6836 0.75986 0.49289 0.0
N617 N 0.80306 0.77448 0.46526 0.0
H618 H 0.88703 1.00204 0.25327 0.0
H619 H 0.62435 0.04775 0.21729 0.0
H620 H 0.77432 0.96519 0.20569 0.0
H621 H 0.73687 0.08503 0.26445 0.0
H622 H 0.67888 1.01741 0.21294 0.0
H623 H 0.83321 0.03266 0.25721 0.0
C624 C 0.85115 1.00037 0.24348 0.0
C625 C 0.83532 0.98091 0.22911 0.0
C626 C 0.6917 0.03222 0.22425 0.0
C627 C 0.77309 1.016 0.23383 0.0
C628 C 0.66038 0.04958 0.2269 0.0
C629 C 0.67583 0.06905 0.24136 0.0
C630 C 0.73899 0.03423 0.23615 0.0
C631 C 0.72348 0.07043 0.25289 0.0
C632 C 0.82026 0.01787 0.24589 0.0
C633 C 0.78796 0.97974 0.21726 0.0
N634 N 0.75328 0.05327 0.25008 0.0
N635 N 0.75861 0.99701 0.21988 0.0
H636 H 0.87505 0.79539 0.20255 0.0
H637 H 0.08758 0.75142 0.28857 0.0
H638 H 0.97264 0.8349 0.25757 0.0
H639 H 0.99843 0.71227 0.22842 0.0
H640 H 0.04313 0.78203 0.27919 0.0
H641 H 0.91669 0.76466 0.21365 0.0
C642 C 0.90504 0.79763 0.21708 0.0
C643 C 0.92034 0.81782 0.22907 0.0
C644 C 0.03322 0.76673 0.26809 0.0
C645 C 0.96857 0.78261 0.24178 0.0
C646 C 0.05876 0.74921 0.27337 0.0
C647 C 0.04706 0.72913 0.25922 0.0
C648 C 0.99552 0.76425 0.24851 0.0
C649 C 0.00858 0.72731 0.24008 0.0
C650 C 0.92901 0.78005 0.22331 0.0
C651 C 0.95996 0.8197 0.2475 0.0
N652 N 0.98437 0.74462 0.23525 0.0
N653 N 0.98262 0.80235 0.25329 0.0
H654 H 0.25832 0.82571 0.00901 0.0
H655 H 0.21635 0.70377 0.95117 0.0
H656 H 0.36867 0.78521 0.96454 0.0
H657 H 0.10458 0.74348 -0.00435 0.0
H658 H 0.27204 0.73372 0.95546 0.0
H659 H 0.20046 0.79621 0.00349 0.0
C660 C 0.27031 0.81068 -0.00206 0.0
C661 C 0.31859 0.80796 -0.01267 0.0
C662 C 0.23532 0.73592 0.96429 0.0
C663 C 0.2527 0.77407 0.98114 0.0
C664 C 0.20355 0.71875 0.96199 0.0
C665 C 0.15569 0.72102 0.97319 0.0
C666 C 0.21931 0.75559 0.97794 0.0
C667 C 0.14092 0.74099 -0.01351 0.0
C668 C 0.23734 0.79381 -0.00508 0.0
C669 C 0.33222 0.78802 0.97346 0.0
N670 N 0.17264 0.75748 -0.01144 0.0
N671 N 0.29953 0.77189 0.9708 0.0
H672 H 0.86454 0.48751 -0.01081 0.0
H673 H 0.12888 0.54241 0.98197 0.0
H674 H 0.00351 0.45819 0.00313 0.0
H675 H 0.98989 0.57029 0.96465 0.0
H676 H 0.08387 0.51161 -0.00993 0.0
H677 H 0.90989 0.51812 0.9809 0.0
C678 C 0.90459 0.48752 -0.0093 0.0
C679 C 0.93014 0.47019 -0.00298 0.0
C680 C 0.06321 0.52446 -0.01551 0.0
C681 C 0.98259 0.50531 -0.01281 0.0
C682 C 0.08895 0.54207 0.97969 0.0
C683 C 0.06328 0.55908 0.97253 0.0
C684 C 0.01128 0.52377 0.98216 0.0
C685 C 0.01132 0.55775 0.97041 0.0
C686 C 0.93054 0.50501 -0.01423 0.0
C687 C 0.98223 0.47106 -0.00189 0.0
N688 N 0.98712 0.54043 0.97518 0.0
N689 N 0.00669 0.48833 -0.00669 0.0
H690 H 0.10598 0.54354 0.22362 0.0
H691 H 0.38371 0.5031 0.23787 0.0
H692 H 0.23293 0.58455 0.23777 0.0
H693 H 0.25633 0.46233 0.22375 0.0
H694 H 0.3293 0.53309 0.23772 0.0
H695 H 0.16077 0.51364 0.22292 0.0
C696 C 0.14539 0.54631 0.22637 0.0
C697 C 0.16469 0.56671 0.23066 0.0
C698 C 0.31326 0.51757 0.23463 0.0
C699 C 0.22785 0.53236 0.23026 0.0
C700 C 0.34431 0.50041 0.23487 0.0
C701 C 0.32474 0.48006 0.23091 0.0
C702 C 0.2621 0.51445 0.2304 0.0
C703 C 0.27337 0.47761 0.2266 0.0
C704 C 0.17669 0.52918 0.22614 0.0
C705 C 0.21613 0.56922 0.23466 0.0
N706 N 0.24391 0.49458 0.22653 0.0
N707 N 0.24586 0.55226 0.23434 0.0
H708 H 0.72234 0.20353 0.95 0.0
H709 H 0.7651 0.32535 0.00791 0.0
H710 H 0.61801 0.24198 0.00214 0.0
H711 H 0.87278 0.28586 0.95968 0.0
H712 H 0.70924 0.29539 0.00459 0.0
H713 H 0.77679 0.23374 0.95232 0.0
C714 C 0.71089 0.21826 0.96208 0.0
C715 C 0.6654 0.22009 0.97599 0.0
C716 C 0.74506 0.29328 -0.00532 0.0
C717 C 0.72762 0.25497 0.97845 0.0
C718 C 0.77686 0.31044 -0.00359 0.0
C719 C 0.82377 0.30817 -0.01598 0.0
C720 C 0.76011 0.27367 0.98039 0.0
C721 C 0.83728 0.28832 0.96981 0.0
C722 C 0.74197 0.23558 0.96326 0.0
C723 C 0.65235 0.2398 -0.00914 0.0
N724 N 0.80564 0.27188 0.96837 0.0
N725 N 0.6833 0.25642 -0.00828 0.0
H726 H 0.60883 0.53934 0.73686 0.0
H727 H 0.89008 0.499 0.72458 0.0
H728 H 0.73345 0.57832 0.7247 0.0
H729 H 0.76523 0.45945 0.73432 0.0
H730 H 0.8333 0.52823 0.72491 0.0
H731 H 0.66529 0.50989 0.73556 0.0
C732 C 0.64795 0.54174 0.73367 0.0
C733 C 0.66619 0.56147 0.73085 0.0
C734 C 0.81828 0.51316 0.72697 0.0
C735 C 0.73142 0.52768 0.72976 0.0
C736 C 0.85079 0.49644 0.72699 0.0
C737 C 0.83261 0.47665 0.72955 0.0
C738 C 0.76702 0.51017 0.72955 0.0
C739 C 0.78105 0.47431 0.73204 0.0
C740 C 0.68029 0.52488 0.73312 0.0
C741 C 0.71758 0.56355 0.72728 0.0
N742 N 0.75014 0.49086 0.73203 0.0
N743 N 0.74831 0.54689 0.72687 0.0
H744 H 0.51587 0.07473 -0.00354 0.0
H745 H 0.49185 0.94983 0.96693 0.0
H746 H 0.61251 0.03442 0.9416 0.0
H747 H 0.39642 0.99109 0.02136 0.0
H748 H 0.5382 0.98027 0.95818 0.0
H749 H 0.47264 0.04405 0.00607 0.0
C750 C 0.52786 0.05946 -0.01377 0.0
C751 C 0.56783 0.05724 0.96801 0.0
C752 C 0.50714 0.98264 0.97207 0.0
C753 C 0.51861 0.02181 0.97929 0.0
C754 C 0.48082 0.96523 0.97721 0.0
C755 C 0.4399 0.96784 -0.00517 0.0
C756 C 0.49256 1.00282 -0.01532 0.0
C757 C 0.42708 0.98827 0.00729 0.0
C758 C 0.5033 0.04187 -0.00809 0.0
C759 C 0.58221 0.0369 0.95593 0.0
N760 N 0.4532 1.00491 0.00195 0.0
N761 N 0.55756 0.01999 0.96172 0.0
H762 H 0.50732 0.33093 0.20863 0.0
H763 H 0.49971 0.21795 0.25073 0.0
H764 H 0.37218 0.29884 0.22242 0.0
H765 H 0.63549 0.24835 0.23378 0.0
H766 H 0.45266 0.24744 0.24016 0.0
H767 H 0.55511 0.301 0.21777 0.0
C768 C 0.48764 0.31765 0.21364 0.0
C769 C 0.43552 0.3175 0.21479 0.0
C770 C 0.49275 0.24767 0.2387 0.0
C771 C 0.49013 0.28305 0.22513 0.0
C772 C 0.51973 0.23073 0.2446 0.0
C773 C 0.57181 0.23053 0.24308 0.0
C774 C 0.51786 0.26467 0.23124 0.0
C775 C 0.59553 0.24784 0.23552 0.0
C776 C 0.51499 0.3005 0.21873 0.0
C777 C 0.41215 0.29964 0.22097 0.0
N778 N 0.5684 0.26418 0.22989 0.0
N779 N 0.43958 0.28321 0.22598 0.0
H780 H 0.49032 0.83192 0.75309 0.0
H781 H 0.51109 0.70696 0.72343 0.0
H782 H 0.39584 0.79168 0.69706 0.0
H783 H 0.60032 0.74678 0.78285 0.0
H784 H 0.4687 0.7378 0.71355 0.0
H785 H 0.53202 0.80106 0.76372 0.0
C786 C 0.47851 0.81663 0.74285 0.0
C787 C 0.43947 0.81445 0.72405 0.0
C788 C 0.49747 0.73981 0.72881 0.0
C789 C 0.48686 0.77893 0.73643 0.0
C790 C 0.52157 0.72213 0.73463 0.0
C791 C 0.55947 0.72415 0.75411 0.0
C792 C 0.51127 0.75976 0.74248 0.0
C793 C 0.57183 0.7444 0.76749 0.0
C794 C 0.50216 0.79897 0.7491 0.0
C795 C 0.42533 0.79414 0.71186 0.0
N796 N 0.54787 0.76138 0.76141 0.0
N797 N 0.44903 0.77721 0.71821 0.0
H798 H 0.48254 0.57411 0.46598 0.0
H799 H 0.51096 0.45918 0.5012 0.0
H800 H 0.62351 0.54481 0.47577 0.0
H801 H 0.36974 0.48811 0.49088 0.0
H802 H 0.55283 0.49045 0.49192 0.0
H803 H 0.44038 0.54298 0.47565 0.0
C804 C 0.50467 0.56122 0.47027 0.0
C805 C 0.55675 0.56214 0.46992 0.0
C806 C 0.51265 0.48996 0.49172 0.0
C807 C 0.50867 0.52629 0.48082 0.0
C808 C 0.48869 0.47202 0.49688 0.0
C809 C 0.43663 0.47092 0.4969 0.0
C810 C 0.48444 0.50697 0.48646 0.0
C811 C 0.40985 0.48828 0.49151 0.0
C812 C 0.48057 0.54337 0.47566 0.0
C813 C 0.58339 0.54476 0.47534 0.0
N814 N 0.43401 0.50552 0.4865 0.0
N815 N 0.5591 0.52762 0.48056 0.0
H816 H 0.19578 0.18222 0.38825 0.0
H817 H 0.44938 0.12264 0.33986 0.0
H818 H 0.23948 0.12333 0.40933 0.0
H819 H 0.41079 0.18338 0.32289 0.0
H820 H 0.37226 0.12259 0.36538 0.0
H821 H 0.27316 0.18247 0.36286 0.0
C822 C 0.22139 0.16926 0.38733 0.0
C823 C 0.21123 0.15276 0.40094 0.0
C824 C 0.38074 0.13597 0.35615 0.0
C825 C 0.29985 0.15303 0.37226 0.0
C826 C 0.42498 0.13608 0.3418 0.0
C827 C 0.4364 0.15301 0.32919 0.0
C828 C 0.34773 0.15291 0.35787 0.0
C829 C 0.40305 0.16988 0.332 0.0
C830 C 0.26567 0.16947 0.37299 0.0
C831 C 0.24586 0.13643 0.39923 0.0
N832 N 0.36013 0.16936 0.34596 0.0
N833 N 0.28865 0.137 0.38521 0.0
H834 H 0.6827 0.17339 0.35889 0.0
H835 H 0.97214 0.15164 0.36009 0.0
H836 H 0.76486 0.15079 0.28576 0.0
H837 H 0.87591 0.13893 0.42397 0.0
H838 H 0.89883 0.15769 0.33408 0.0
H839 H 0.75677 0.16792 0.38532 0.0
C840 C 0.71641 0.16748 0.34846 0.0
C841 C 0.71787 0.16243 0.32022 0.0
C842 C 0.89405 0.15357 0.35382 0.0
C843 C 0.80196 0.15641 0.35 0.0
C844 C 0.9358 0.14992 0.36862 0.0
C845 C 0.93049 0.1448 0.3944 0.0
C846 C 0.84671 0.15247 0.36505 0.0
C847 C 0.88216 0.14331 0.40452 0.0
C848 C 0.75834 0.16424 0.36347 0.0
C849 C 0.76224 0.15471 0.30756 0.0
N850 N 0.84213 0.14729 0.3899 0.0
N851 N 0.80269 0.15203 0.32255 0.0
H852 H 0.18191 0.10799 0.83386 0.0
H853 H 0.43251 0.16984 0.88127 0.0
H854 H 0.2265 0.16448 0.80665 0.0
H855 H 0.39829 0.10825 0.89678 0.0
H856 H 0.35479 0.16943 0.85606 0.0
H857 H 0.25782 0.10961 0.86064 0.0
C858 C 0.2074 0.12085 0.83374 0.0
C859 C 0.19805 0.13606 0.81792 0.0
C860 C 0.36441 0.156 0.86496 0.0
C861 C 0.28505 0.1379 0.84823 0.0
C862 C 0.40892 0.15616 0.87914 0.0
C863 C 0.42175 0.13908 0.89119 0.0
C864 C 0.33263 0.13866 0.86291 0.0
C865 C 0.38945 0.12188 0.88815 0.0
C866 C 0.25087 0.12169 0.84888 0.0
C867 C 0.23243 0.15234 0.81843 0.0
N868 N 0.34633 0.12214 0.87438 0.0
N869 N 0.27453 0.1528 0.83328 0.0
H870 H 0.924 0.17507 0.84495 0.0
H871 H 0.68898 0.10354 0.86327 0.0
H872 H 0.89621 0.11459 0.79565 0.0
H873 H 0.72719 0.15984 0.91922 0.0
H874 H 0.76116 0.10891 0.83587 0.0
H875 H 0.84871 0.17106 0.87075 0.0
C876 C 0.90219 0.16094 0.83962 0.0
C877 C 0.91628 0.14519 0.81807 0.0
C878 C 0.75364 0.12009 0.85413 0.0
C879 C 0.83006 0.14058 0.84721 0.0
C880 C 0.71238 0.11706 0.86971 0.0
C881 C 0.7023 0.13116 0.89364 0.0
C882 C 0.78481 0.13738 0.86253 0.0
C883 C 0.7338 0.14846 0.90103 0.0
C884 C 0.85911 0.1587 0.85423 0.0
C885 C 0.8863 0.1273 0.81181 0.0
N886 N 0.77371 0.15105 0.88557 0.0
N887 N 0.84464 0.12549 0.8263 0.0
H888 H 0.58044 0.92214 0.6343 0.0
H889 H 0.81689 0.85138 0.58232 0.0
H890 H 0.60832 0.86161 0.65501 0.0
H891 H 0.78303 0.91021 0.55811 0.0
H892 H 0.74288 0.85556 0.61104 0.0
H893 H 0.65636 0.91848 0.6073 0.0
C894 C 0.60236 0.90803 0.633 0.0
C895 C 0.58814 0.89217 0.64691 0.0
C896 C 0.75184 0.86757 0.59949 0.0
C897 C 0.67527 0.88797 0.61641 0.0
C898 C 0.79416 0.86523 0.5832 0.0
C899 C 0.80601 0.88042 0.56774 0.0
C900 C 0.7214 0.88524 0.60027 0.0
C901 C 0.77518 0.89803 0.56955 0.0
C902 C 0.64587 0.90599 0.61776 0.0
C903 C 0.61832 0.87433 0.64487 0.0
N904 N 0.73426 0.89992 0.58545 0.0
N905 N 0.66048 0.87271 0.62991 0.0
H906 H 0.28269 0.91508 0.66963 0.0
H907 H 0.1131 0.8579 0.54857 0.0
H908 H 0.32177 0.85634 0.61895 0.0
H909 H 0.07907 0.91835 0.59635 0.0
H910 H 0.19022 0.85721 0.57372 0.0
H911 H 0.20898 0.91689 0.64227 0.0
C912 C 0.27589 0.90258 0.65264 0.0
C913 C 0.30822 0.88542 0.64666 0.0
C914 C 0.16594 0.87064 0.5787 0.0
C915 C 0.22364 0.88738 0.61533 0.0
C916 C 0.12198 0.87107 0.56432 0.0
C917 C 0.0897 0.88824 0.57036 0.0
C918 C 0.17769 0.88747 0.59935 0.0
C919 C 0.1026 0.90471 0.59124 0.0
C920 C 0.23374 0.90364 0.63702 0.0
C921 C 0.29777 0.86982 0.62428 0.0
N922 N 0.14568 0.90392 0.60499 0.0
N923 N 0.2561 0.8711 0.6095 0.0
H924 H 0.74266 0.90262 0.18545 0.0
H925 H 0.62723 0.90151 0.04093 0.0
H926 H 0.82067 0.87511 0.11268 0.0
H927 H 0.53669 0.89337 0.1092 0.0
H928 H 0.7014 0.89931 0.06807 0.0
H929 H 0.66919 0.90668 0.15846 0.0
C930 C 0.74433 0.89749 0.16375 0.0
C931 C 0.78762 0.88846 0.15118 0.0
C932 C 0.66517 0.89807 0.07699 0.0
C933 C 0.7042 0.89335 0.12039 0.0
C934 C 0.62277 0.89923 0.06156 0.0
C935 C 0.57541 0.89726 0.07261 0.0
C936 C 0.66022 0.89541 0.10382 0.0
C937 C 0.57221 0.89512 0.09981 0.0
C938 C 0.70242 0.89976 0.14846 0.0
C939 C 0.78782 0.88201 0.12308 0.0
N940 N 0.61412 0.89425 0.11451 0.0
N941 N 0.74666 0.88472 0.10851 0.0
H942 H 0.08814 0.85988 0.14973 0.0
H943 H 0.26707 0.91161 0.05401 0.0
H944 H 0.06287 0.921 0.13025 0.0
H945 H 0.30308 0.8553 0.08407 0.0
H946 H 0.19061 0.91476 0.08036 0.0
H947 H 0.16483 0.85709 0.12361 0.0
C948 C 0.09877 0.87272 0.13992 0.0
C949 C 0.0693 0.89077 0.14232 0.0
C950 C 0.21533 0.90178 0.0813 0.0
C951 C 0.15691 0.88763 0.11227 0.0
C952 C 0.25903 0.89996 0.06629 0.0
C953 C 0.29141 0.88312 0.06682 0.0
C954 C 0.20376 0.88657 0.09681 0.0
C955 C 0.27922 0.86856 0.08314 0.0
C956 C 0.14253 0.87111 0.12501 0.0
C957 C 0.08429 0.90675 0.12876 0.0
N958 N 0.23615 0.87056 0.0974 0.0
N959 N 0.12724 0.90483 0.11437 0.0
H960 H 0.24651 0.65058 0.93477 0.0
H961 H 0.37868 0.6208 0.7954 0.0
H962 H 0.16091 0.64613 0.86158 0.0
H963 H 0.44055 0.67002 0.85574 0.0
H964 H 0.30227 0.62273 0.82161 0.0
H965 H 0.32303 0.6505 0.90821 0.0
C966 C 0.244 0.64946 0.91307 0.0
C967 C 0.19774 0.64827 0.90016 0.0
C968 C 0.33276 0.63308 0.82893 0.0
C969 C 0.28429 0.64782 0.87001 0.0
C970 C 0.37639 0.63215 0.81396 0.0
C971 C 0.41642 0.64549 0.82304 0.0
C972 C 0.32953 0.64692 0.85358 0.0
C973 C 0.41133 0.65921 0.84794 0.0
C974 C 0.28741 0.64956 0.89808 0.0
C975 C 0.19608 0.64709 0.87213 0.0
N976 N 0.36875 0.65946 0.86248 0.0
N977 N 0.23899 0.64659 0.85782 0.0
H978 H 0.74459 0.6474 0.79171 0.0
H979 H 0.87321 0.60863 0.91574 0.0
H980 H 0.67231 0.60514 0.83639 0.0
H981 H 0.95477 0.63448 0.85579 0.0
H982 H 0.79829 0.60795 0.8881 0.0
H983 H 0.82079 0.64433 0.81673 0.0
C984 C 0.74463 0.63755 0.8069 0.0
C985 C 0.70194 0.62656 0.81208 0.0
C986 C 0.8327 0.61354 0.88084 0.0
C987 C 0.78924 0.62292 0.84068 0.0
C988 C 0.87534 0.61396 0.89659 0.0
C989 C 0.91998 0.62173 0.88801 0.0
C990 C 0.83467 0.62124 0.85658 0.0
C991 C 0.92105 0.62829 0.86301 0.0
C992 C 0.78831 0.63568 0.82102 0.0
C993 C 0.70436 0.61391 0.83182 0.0
N994 N 0.8788 0.62814 0.84829 0.0
N995 N 0.74729 0.61251 0.84554 0.0
H996 H 0.18449 0.60186 0.32121 0.0
H997 H 0.39797 0.66967 0.40367 0.0
H998 H 0.20971 0.66667 0.31677 0.0
H999 H 0.41227 0.603 0.37771 0.0
H1000 H 0.32139 0.66898 0.37743 0.0
H1001 H 0.26061 0.6021 0.34809 0.0
C1002 C 0.20575 0.61618 0.32618 0.0
C1003 C 0.19099 0.63429 0.31686 0.0
C1004 C 0.34138 0.65452 0.37738 0.0
C1005 C 0.27739 0.63465 0.34734 0.0
C1006 C 0.38486 0.6549 0.39233 0.0
C1007 C 0.41118 0.63637 0.39267 0.0
C1008 C 0.3237 0.63541 0.36307 0.0
C1009 C 0.39299 0.61761 0.37768 0.0
C1010 C 0.24925 0.61624 0.34124 0.0
C1011 C 0.22001 0.65237 0.32352 0.0
N1012 N 0.34995 0.61756 0.36358 0.0
N1013 N 0.26176 0.65212 0.33848 0.0
H1014 H 0.70595 0.61959 0.40011 0.0
H1015 H 0.91536 0.68263 0.33835 0.0
H1016 H 0.68646 0.68404 0.39205 0.0
H1017 H 0.89901 0.6158 0.3152 0.0
H1018 H 0.8371 0.68391 0.36363 0.0
H1019 H 0.78235 0.61819 0.37355 0.0
C1020 C 0.71765 0.63339 0.39255 0.0
C1021 C 0.69 0.65193 0.39811 0.0
C1022 C 0.85074 0.66899 0.353 0.0
C1023 C 0.77742 0.65056 0.36832 0.0
C1024 C 0.89543 0.66824 0.33886 0.0
C1025 C 0.91335 0.64908 0.32484 0.0
C1026 C 0.82452 0.65041 0.3534 0.0
C1027 C 0.88612 0.63087 0.32575 0.0
C1028 C 0.7611 0.63257 0.37742 0.0
C1029 C 0.7066 0.66939 0.38792 0.0
N1030 N 0.84308 0.63195 0.33994 0.0
N1031 N 0.74969 0.66836 0.3737 0.0
H1032 H 0.56455 0.35592 0.13173 0.0
H1033 H 0.77491 0.41247 0.06038 0.0
H1034 H 0.58212 0.42292 0.14469 0.0
H1035 H 0.78845 0.34844 0.07153 0.0
H1036 H 0.69907 0.41593 0.08733 0.0
H1037 H 0.64131 0.35208 0.10498 0.0
C1038 C 0.5844 0.36979 0.12869 0.0
C1039 C 0.56726 0.38976 0.14031 0.0
C1040 C 0.71877 0.40116 0.08402 0.0
C1041 C 0.65452 0.38552 0.11009 0.0
C1042 C 0.76196 0.39916 0.06862 0.0
C1043 C 0.78787 0.38015 0.06381 0.0
C1044 C 0.70099 0.38393 0.09434 0.0
C1045 C 0.76965 0.36341 0.075 0.0
C1046 C 0.62827 0.36759 0.1137 0.0
C1047 C 0.59442 0.40726 0.13614 0.0
N1048 N 0.72694 0.36564 0.08962 0.0
N1049 N 0.63668 0.40474 0.12126 0.0
H1050 H 0.04473 0.42539 0.10357 0.0
H1051 H 0.33061 0.40453 0.11304 0.0
H1052 H 0.11343 0.37405 0.04914 0.0
H1053 H 0.24009 0.41078 0.18477 0.0
H1054 H 0.25446 0.4025 0.08559 0.0
H1055 H 0.12023 0.42884 0.13093 0.0
C1056 C 0.07521 0.41476 0.09732 0.0
C1057 C 0.07226 0.39939 0.07379 0.0
C1058 C 0.25162 0.40443 0.10737 0.0
C1059 C 0.15922 0.40408 0.10442 0.0
C1060 C 0.29471 0.40565 0.12292 0.0
C1061 C 0.29114 0.40763 0.151 0.0
C1062 C 0.2052 0.40591 0.12022 0.0
C1063 C 0.24404 0.40901 0.16306 0.0
C1064 C 0.11837 0.41694 0.11286 0.0
C1065 C 0.11398 0.3865 0.06659 0.0
N1066 N 0.20266 0.40829 0.14758 0.0
N1067 N 0.15589 0.38928 0.0817 0.0
H1068 H 0.80792 0.43931 0.64408 0.0
H1069 H 0.60129 0.36636 0.56281 0.0
H1070 H 0.79123 0.37408 0.64882 0.0
H1071 H 0.57945 0.43276 0.58771 0.0
H1072 H 0.67862 0.36895 0.5886 0.0
H1073 H 0.73161 0.43723 0.617 0.0
C1074 C 0.78853 0.42452 0.6391 0.0
C1075 C 0.80561 0.40682 0.6486 0.0
C1076 C 0.65682 0.38294 0.58853 0.0
C1077 C 0.71912 0.40439 0.61797 0.0
C1078 C 0.61289 0.38147 0.57386 0.0
C1079 C 0.58426 0.39937 0.57337 0.0
C1080 C 0.67255 0.40252 0.60242 0.0
C1081 C 0.60055 0.41861 0.58792 0.0
C1082 C 0.74493 0.42341 0.62394 0.0
C1083 C 0.77904 0.38809 0.64195 0.0
N1084 N 0.64405 0.41974 0.60178 0.0
N1085 N 0.73713 0.38734 0.62694 0.0
H1086 H 0.07754 0.35474 0.62843 0.0
H1087 H 0.29377 0.41349 0.56617 0.0
H1088 H 0.10497 0.42069 0.65401 0.0
H1089 H 0.30662 0.34852 0.57305 0.0
H1090 H 0.21857 0.41622 0.5938 0.0
H1091 H 0.1556 0.35176 0.6027 0.0
C1092 C 0.09991 0.36857 0.6284 0.0
C1093 C 0.08512 0.38799 0.64318 0.0
C1094 C 0.23809 0.40142 0.58944 0.0
C1095 C 0.17357 0.38474 0.61407 0.0
C1096 C 0.28083 0.39984 0.57368 0.0
C1097 C 0.30625 0.38077 0.56748 0.0
C1098 C 0.22015 0.38368 0.59853 0.0
C1099 C 0.28815 0.36354 0.57766 0.0
C1100 C 0.14444 0.36684 0.614 0.0
C1101 C 0.11539 0.40545 0.64286 0.0
N1102 N 0.24569 0.36533 0.5925 0.0
N1103 N 0.15812 0.40345 0.62836 0.0
H1104 H 0.05387 0.12262 0.668 0.0
H1105 H 0.21027 0.14314 0.54089 0.0
H1106 H 0.20307 0.14713 0.67563 0.0
H1107 H 0.05737 0.12309 0.53919 0.0
H1108 H 0.21428 0.14044 0.58895 0.0
H1109 H 0.06076 0.11798 0.61937 0.0
C1110 C 0.0882 0.12706 0.65933 0.0
C1111 C 0.12765 0.13564 0.6757 0.0
C1112 C 0.1801 0.13649 0.57789 0.0
C1113 C 0.13578 0.13056 0.6199 0.0
C1114 C 0.17781 0.13801 0.5506 0.0
C1115 C 0.13319 0.13365 0.53638 0.0
C1116 C 0.13754 0.1304 0.59063 0.0
C1117 C 0.09223 0.12697 0.5496 0.0
C1118 C 0.09222 0.12434 0.63152 0.0
C1119 C 0.17171 0.14065 0.66351 0.0
N1120 N 0.09537 0.12565 0.57599 0.0
N1121 N 0.17444 0.1383 0.63614 0.0
H1122 H 0.80372 0.89229 0.42793 0.0
H1123 H 0.95777 0.91201 0.29938 0.0
H1124 H 0.96352 0.89604 0.42334 0.0
H1125 H 0.80102 0.89797 0.29534 0.0
H1126 H 0.95677 0.91108 0.34728 0.0
H1127 H 0.79858 0.89812 0.38111 0.0
C1128 C 0.83757 0.89429 0.41706 0.0
C1129 C 0.8841 0.89356 0.42933 0.0
C1130 C 0.92244 0.90825 0.33603 0.0
C1131 C 0.87852 0.90045 0.37651 0.0
C1132 C 0.92301 0.90882 0.30868 0.0
C1133 C 0.87955 0.90478 0.29346 0.0
C1134 C 0.87816 0.90341 0.34823 0.0
C1135 C 0.83535 0.90105 0.30651 0.0
C1136 C 0.83462 0.89766 0.39049 0.0
C1137 C 0.92688 0.89634 0.41459 0.0
N1138 N 0.83582 0.90023 0.33328 0.0
N1139 N 0.92299 0.89967 0.38899 0.0
H1140 H 0.02892 0.65397 0.04517 0.0
H1141 H 0.18977 0.64798 0.17656 0.0
H1142 H 0.18795 0.64549 0.04251 0.0
H1143 H 0.03136 0.65814 0.17599 0.0
H1144 H 0.19234 0.64949 0.12822 0.0
H1145 H 0.03139 0.65811 0.09399 0.0
C1146 C 0.06446 0.65302 0.05494 0.0
C1147 C 0.10824 0.64917 0.03987 0.0
C1148 C 0.15716 0.65153 0.1388 0.0
C1149 C 0.11143 0.6538 0.09586 0.0
C1150 C 0.15569 0.65066 0.1663 0.0
C1151 C 0.11021 0.6527 0.18009 0.0
C1152 C 0.11284 0.65447 0.12528 0.0
C1153 C 0.06715 0.65624 0.16604 0.0
C1154 C 0.06591 0.65543 0.08286 0.0
C1155 C 0.15335 0.64834 0.05352 0.0
N1156 N 0.06952 0.6569 0.13939 0.0
N1157 N 0.15378 0.65046 0.08087 0.0
H1158 H 0.95515 0.37831 0.91882 0.0
H1159 H 0.80162 0.39652 0.78944 0.0
H1160 H 0.79866 0.39299 0.92313 0.0
H1161 H 0.96108 0.39079 0.79345 0.0
H1162 H 0.79638 0.39257 0.83703 0.0
H1163 H 0.95428 0.37922 0.87101 0.0
C1164 C 0.92045 0.3817 0.90962 0.0
C1165 C 0.87701 0.38583 0.92492 0.0
C1166 C 0.83237 0.3922 0.82737 0.0
C1167 C 0.87577 0.3871 0.87003 0.0
C1168 C 0.8354 0.39448 0.80033 0.0
C1169 C 0.88185 0.39405 0.78762 0.0
C1170 C 0.87612 0.38935 0.84142 0.0
C1171 C 0.92449 0.39132 0.80247 0.0
C1172 C 0.91996 0.38225 0.88227 0.0
C1173 C 0.83296 0.38982 0.91192 0.0
N1174 N 0.92053 0.38905 0.82852 0.0
N1175 N 0.83348 0.39053 0.88508 0.0
H1176 H 0.70417 0.14686 0.17512 0.0
H1177 H 0.53879 0.13426 0.04166 0.0
H1178 H 0.54469 0.14 0.17268 0.0
H1179 H 0.69733 0.14401 0.04091 0.0
H1180 H 0.54252 0.13414 0.08966 0.0
H1181 H 0.70472 0.14377 0.12583 0.0
C1182 C 0.66939 0.14463 0.1642 0.0
C1183 C 0.62428 0.14381 0.17788 0.0
C1184 C 0.57663 0.13632 0.07912 0.0
C1185 C 0.62464 0.14026 0.12199 0.0
C1186 C 0.57449 0.13643 0.05167 0.0
C1187 C 0.61779 0.13935 0.03743 0.0
C1188 C 0.62238 0.13925 0.09255 0.0
C1189 C 0.66309 0.14182 0.05132 0.0
C1190 C 0.66973 0.14288 0.13616 0.0
C1191 C 0.58027 0.14086 0.16293 0.0
N1192 N 0.66424 0.14183 0.0783 0.0
N1193 N 0.58159 0.13924 0.1358 0.0
H1194 H 0.3021 0.8972 0.79184 0.0
H1195 H 0.4499 0.87 0.91821 0.0
H1196 H 0.46136 0.89113 0.79704 0.0
H1197 H 0.29907 0.89284 0.92547 0.0
H1198 H 0.44843 0.8714 0.87042 0.0
H1199 H 0.29507 0.89099 0.83846 0.0
C1200 C 0.33546 0.89469 0.80283 0.0
C1201 C 0.38238 0.89476 0.79074 0.0
C1202 C 0.41549 0.87606 0.88236 0.0
C1203 C 0.37456 0.88731 0.84323 0.0
C1204 C 0.41629 0.8752 0.90962 0.0
C1205 C 0.37483 0.88166 0.92572 0.0
C1206 C 0.3731 0.88364 0.87116 0.0
C1207 C 0.33188 0.88788 0.91358 0.0
C1208 C 0.3314 0.89108 0.82925 0.0
C1209 C 0.42446 0.89132 0.80562 0.0
N1210 N 0.33225 0.88898 0.88688 0.0
N1211 N 0.41949 0.88768 0.83103 0.0
H1212 H 0.53535 0.65747 0.54683 0.0
H1213 H 0.69625 0.63991 0.674 0.0
H1214 H 0.69066 0.64091 0.53998 0.0
H1215 H 0.53986 0.65472 0.6754 0.0
H1216 H 0.69876 0.64277 0.62595 0.0
H1217 H 0.54016 0.65947 0.59521 0.0
C1218 C 0.5706 0.65425 0.55559 0.0
C1219 C 0.61254 0.64877 0.53945 0.0
C1220 C 0.66408 0.64547 0.63693 0.0
C1221 C 0.61838 0.65087 0.59503 0.0
C1222 C 0.66264 0.64384 0.66423 0.0
C1223 C 0.61767 0.64685 0.67848 0.0
C1224 C 0.62029 0.65024 0.62415 0.0
C1225 C 0.5752 0.652 0.66509 0.0
C1226 C 0.5734 0.65543 0.58329 0.0
C1227 C 0.65745 0.64509 0.55187 0.0
N1228 N 0.57758 0.65346 0.63871 0.0
N1229 N 0.65915 0.64601 0.57907 0.0
H1230 H 0.29869 0.39787 0.29342 0.0
H1231 H 0.46348 0.37959 0.41883 0.0
H1232 H 0.45871 0.39361 0.29365 0.0
H1233 H 0.30601 0.39186 0.42581 0.0
H1234 H 0.45933 0.38116 0.37119 0.0
H1235 H 0.29783 0.39312 0.34069 0.0
C1236 C 0.33354 0.39601 0.30344 0.0
C1237 C 0.37885 0.3962 0.28974 0.0
C1238 C 0.42553 0.38349 0.38302 0.0
C1239 C 0.37809 0.39057 0.34323 0.0
C1240 C 0.42788 0.38256 0.41025 0.0
C1241 C 0.38509 0.38584 0.42624 0.0
C1242 C 0.38009 0.38787 0.37164 0.0
C1243 C 0.33985 0.38934 0.41405 0.0
C1244 C 0.333 0.39325 0.3303 0.0
C1245 C 0.42293 0.39365 0.30348 0.0
N1246 N 0.33852 0.39044 0.38735 0.0
N1247 N 0.42139 0.39092 0.32944 0.0
loop_
_geom_bond_atom_site_label_1
_geom_bond_atom_site_label_2
_geom_bond_distance
_geom_bond_site_symmetry_2
_ccdc_geom_bond_type
Co0 N4 2.148 . S
Co0 N10 2.128 . S
Co0 N20 2.194 . S
Co0 O25 2.351 . S
Co0 O26 2.155 . S
Co0 O27 2.096 . S
C1 N4 1.301 . S
C1 N5 1.328 . S
C1 H6 0.930 . S
C2 C3 1.333 . S
C2 N4 1.317 . S
C2 H7 0.930 . S
C3 C2 1.333 . S
C3 N5 1.350 . S
C3 H29 0.931 . S
N4 Co0 2.148 . S
N4 C1 1.301 . S
N4 C2 1.317 . S
N5 C1 1.328 . S
N5 C3 1.350 . S
H6 C1 0.930 . S
H7 C2 0.930 . S
C8 O9 1.224 . S
C8 O27 1.247 . S
O9 C8 1.224 . S
N10 Co0 2.128 . S
N10 C11 1.355 . S
N10 C13 1.311 . S
C11 N10 1.355 . S
C11 C12 1.363 . S
C11 H23 0.929 . S
C12 C11 1.363 . S
C12 N14 1.375 . S
C12 H30 0.931 . S
C13 N10 1.311 . S
C13 N14 1.347 . S
C13 H24 0.929 . S
N14 C12 1.375 . S
N14 C13 1.347 . S
C15 C18 1.365 . S
C15 N20 1.328 1_655 S
C15 H21 0.929 . S
C16 C17 1.362 1_455 S
C16 C19 1.378 . S
C16 H31 0.929 . S
C17 C16 1.362 1_655 S
C17 C18 1.366 . S
C18 C15 1.365 . S
C18 C17 1.366 . S
C18 H32 0.930 . S
C19 C16 1.378 . S
C19 N20 1.315 . S
C19 H22 0.930 . S
N20 Co0 2.194 . S
N20 C15 1.328 1_455 S
N20 C19 1.315 . S
H21 C15 0.929 . S
H22 C19 0.930 . S
H23 C11 0.929 . S
H24 C13 0.929 . S
O25 Co0 2.351 . S
O25 C28 1.244 . S
O26 Co0 2.155 . S
O26 C28 1.240 . S
O27 Co0 2.096 . S
O27 C8 1.247 . S
C28 O25 1.244 . S
C28 O26 1.240 . S
H29 C3 0.931 . S
H30 C12 0.931 . S
H31 C16 0.929 . S
H32 C18 0.930 . S
Co33 N37 2.148 . S
Co33 N43 2.128 . S
Co33 N53 2.194 . S
Co33 O58 2.351 . S
Co33 O59 2.155 . S
Co33 O60 2.096 . S
C34 N37 1.301 . S
C34 N38 1.328 . S
C34 H39 0.930 . S
C35 C36 1.333 . S
C35 N37 1.317 . S
C35 H40 0.930 . S
C36 C35 1.333 . S
C36 N38 1.350 . S
C36 H62 0.931 . S
N37 Co33 2.148 . S
N37 C34 1.301 . S
N37 C35 1.317 . S
N38 C34 1.328 . S
N38 C36 1.350 . S
H39 C34 0.930 . S
H40 C35 0.930 . S
C41 O42 1.224 . S
C41 O60 1.247 . S
O42 C41 1.224 . S
N43 Co33 2.128 . S
N43 C44 1.355 . S
N43 C46 1.311 . S
C44 N43 1.355 . S
C44 C45 1.363 . S
C44 H56 0.929 . S
C45 C44 1.363 . S
C45 N47 1.375 . S
C45 H63 0.931 . S
C46 N43 1.311 . S
C46 N47 1.347 . S
C46 H57 0.929 . S
N47 C45 1.375 . S
N47 C46 1.347 . S
C48 C51 1.365 . S
C48 N53 1.328 1_655 S
C48 H54 0.929 . S
C49 C50 1.362 1_455 S
C49 C52 1.378 . S
C49 H64 0.929 . S
C50 C49 1.362 1_655 S
C50 C51 1.366 . S
C51 C48 1.365 . S
C51 C50 1.366 . S
C51 H65 0.930 . S
C52 C49 1.378 . S
C52 N53 1.315 . S
C52 H55 0.930 . S
N53 Co33 2.194 . S
N53 C48 1.328 1_455 S
N53 C52 1.315 . S
H54 C48 0.929 . S
H55 C52 0.930 . S
H56 C44 0.929 . S
H57 C46 0.929 . S
O58 Co33 2.351 . S
O58 C61 1.244 . S
O59 Co33 2.155 . S
O59 C61 1.240 . S
O60 Co33 2.096 . S
O60 C41 1.247 . S
C61 O58 1.244 . S
C61 O59 1.240 . S
H62 C36 0.931 . S
H63 C45 0.931 . S
H64 C49 0.929 . S
H65 C51 0.930 . S
Co66 N70 2.148 . S
Co66 N76 2.128 . S
Co66 N86 2.194 . S
Co66 O91 2.351 . S
Co66 O92 2.155 . S
Co66 O93 2.096 . S
C67 N70 1.301 . S
C67 N71 1.328 . S
C67 H72 0.930 . S
C68 C69 1.333 . S
C68 N70 1.317 . S
C68 H73 0.930 . S
C69 C68 1.333 . S
C69 N71 1.350 . S
C69 H95 0.931 . S
N70 Co66 2.148 . S
N70 C67 1.301 . S
N70 C68 1.317 . S
N71 C67 1.328 . S
N71 C69 1.350 . S
H72 C67 0.930 . S
H73 C68 0.930 . S
C74 O75 1.224 . S
C74 O93 1.247 . S
O75 C74 1.224 . S
N76 Co66 2.128 . S
N76 C77 1.355 . S
N76 C79 1.311 . S
C77 N76 1.355 . S
C77 C78 1.363 . S
C77 H89 0.929 . S
C78 C77 1.363 . S
C78 N80 1.375 . S
C78 H96 0.931 . S
C79 N76 1.311 . S
C79 N80 1.347 . S
C79 H90 0.929 . S
N80 C78 1.375 . S
N80 C79 1.347 . S
C81 C84 1.365 . S
C81 N86 1.328 1_455 S
C81 H87 0.929 . S
C82 C83 1.362 1_655 S
C82 C85 1.378 . S
C82 H97 0.929 . S
C83 C82 1.362 1_455 S
C83 C84 1.366 . S
C84 C81 1.365 . S
C84 C83 1.366 . S
C84 H98 0.930 . S
C85 C82 1.378 . S
C85 N86 1.315 . S
C85 H88 0.930 . S
N86 Co66 2.194 . S
N86 C81 1.328 1_655 S
N86 C85 1.315 . S
H87 C81 0.929 . S
H88 C85 0.930 . S
H89 C77 0.929 . S
H90 C79 0.929 . S
O91 Co66 2.351 . S
O91 C94 1.244 . S
O92 Co66 2.155 . S
O92 C94 1.240 . S
O93 Co66 2.096 . S
O93 C74 1.247 . S
C94 O91 1.244 . S
C94 O92 1.240 . S
H95 C69 0.931 . S
H96 C78 0.931 . S
H97 C82 0.929 . S
H98 C84 0.930 . S
Co99 N103 2.148 . S
Co99 N109 2.128 . S
Co99 N119 2.194 . S
Co99 O124 2.351 . S
Co99 O125 2.155 . S
Co99 O126 2.096 . S
C100 N103 1.301 . S
C100 N104 1.328 . S
C100 H105 0.930 . S
C101 C102 1.333 . S
C101 N103 1.317 . S
C101 H106 0.930 . S
C102 C101 1.333 . S
C102 N104 1.350 . S
C102 H128 0.931 . S
N103 Co99 2.148 . S
N103 C100 1.301 . S
N103 C101 1.317 . S
N104 C100 1.328 . S
N104 C102 1.350 . S
H105 C100 0.930 . S
H106 C101 0.930 . S
C107 O108 1.224 . S
C107 O126 1.247 . S
O108 C107 1.224 . S
N109 Co99 2.128 . S
N109 C110 1.355 . S
N109 C112 1.311 . S
C110 N109 1.355 . S
C110 C111 1.363 . S
C110 H122 0.929 . S
C111 C110 1.363 . S
C111 N113 1.375 . S
C111 H129 0.931 . S
C112 N109 1.311 . S
C112 N113 1.347 . S
C112 H123 0.929 . S
N113 C111 1.375 . S
N113 C112 1.347 . S
C114 C117 1.365 . S
C114 N119 1.328 1_455 S
C114 H120 0.929 . S
C115 C116 1.362 1_655 S
C115 C118 1.378 . S
C115 H130 0.929 . S
C116 C115 1.362 1_455 S
C116 C117 1.366 . S
C117 C114 1.365 . S
C117 C116 1.366 . S
C117 H131 0.930 . S
C118 C115 1.378 . S
C118 N119 1.315 . S
C118 H121 0.930 . S
N119 Co99 2.194 . S
N119 C114 1.328 1_655 S
N119 C118 1.315 . S
H120 C114 0.929 . S
H121 C118 0.930 . S
H122 C110 0.929 . S
H123 C112 0.929 . S
O124 Co99 2.351 . S
O124 C127 1.244 . S
O125 Co99 2.155 . S
O125 C127 1.240 . S
O126 Co99 2.096 . S
O126 C107 1.247 . S
C127 O124 1.244 . S
C127 O125 1.240 . S
H128 C102 0.931 . S
H129 C111 0.931 . S
H130 C115 0.929 . S
H131 C117 0.930 . S
Co132 N136 2.148 . S
Co132 N142 2.128 . S
Co132 N152 2.194 . S
Co132 O157 2.351 1_556 S
Co132 O158 2.155 1_556 S
Co132 O159 2.096 . S
C133 N136 1.301 . S
C133 N137 1.328 . S
C133 H138 0.930 . S
C134 C135 1.333 . S
C134 N136 1.317 . S
C134 H139 0.930 . S
C135 C134 1.333 . S
C135 N137 1.350 . S
C135 H161 0.931 . S
N136 Co132 2.148 . S
N136 C133 1.301 . S
N136 C134 1.317 . S
N137 C133 1.328 . S
N137 C135 1.350 . S
H138 C133 0.930 . S
H139 C134 0.930 . S
C140 O141 1.224 . S
C140 O159 1.247 . S
O141 C140 1.224 . S
N142 Co132 2.128 . S
N142 C143 1.355 . S
N142 C145 1.311 . S
C143 N142 1.355 . S
C143 C144 1.363 . S
C143 H155 0.929 . S
C144 C143 1.363 . S
C144 N146 1.375 . S
C144 H162 0.931 . S
C145 N142 1.311 . S
C145 N146 1.347 . S
C145 H156 0.929 . S
N146 C144 1.375 . S
N146 C145 1.347 . S
C147 C150 1.365 . S
C147 N152 1.328 1_655 S
C147 H153 0.929 . S
C148 C149 1.362 1_455 S
C148 C151 1.378 . S
C148 H163 0.929 . S
C149 C148 1.362 1_655 S
C149 C150 1.366 . S
C150 C147 1.365 . S
C150 C149 1.366 . S
C150 H164 0.930 . S
C151 C148 1.378 . S
C151 N152 1.315 . S
C151 H154 0.930 . S
N152 Co132 2.194 . S
N152 C147 1.328 1_455 S
N152 C151 1.315 . S
H153 C147 0.929 . S
H154 C151 0.930 . S
H155 C143 0.929 . S
H156 C145 0.929 . S
O157 Co132 2.351 1_554 S
O157 C160 1.244 . S
O158 Co132 2.155 1_554 S
O158 C160 1.240 . S
O159 Co132 2.096 . S
O159 C140 1.247 . S
C160 O157 1.244 . S
C160 O158 1.240 . S
H161 C135 0.931 . S
H162 C144 0.931 . S
H163 C148 0.929 . S
H164 C150 0.930 . S
Co165 N169 2.148 . S
Co165 N175 2.128 . S
Co165 N185 2.194 . S
Co165 O190 2.351 . S
Co165 O191 2.155 . S
Co165 O192 2.096 . S
C166 N169 1.301 . S
C166 N170 1.328 . S
C166 H171 0.930 . S
C167 C168 1.333 . S
C167 N169 1.317 . S
C167 H172 0.930 . S
C168 C167 1.333 . S
C168 N170 1.350 . S
C168 H194 0.931 . S
N169 Co165 2.148 . S
N169 C166 1.301 . S
N169 C167 1.317 . S
N170 C166 1.328 . S
N170 C168 1.350 . S
H171 C166 0.930 . S
H172 C167 0.930 . S
C173 O174 1.224 . S
C173 O192 1.247 . S
O174 C173 1.224 . S
N175 Co165 2.128 . S
N175 C176 1.355 . S
N175 C178 1.311 . S
C176 N175 1.355 . S
C176 C177 1.363 . S
C176 H188 0.929 . S
C177 C176 1.363 . S
C177 N179 1.375 . S
C177 H195 0.931 . S
C178 N175 1.311 . S
C178 N179 1.347 . S
C178 H189 0.929 . S
N179 C177 1.375 . S
N179 C178 1.347 . S
C180 C183 1.365 . S
C180 N185 1.328 1_655 S
C180 H186 0.929 . S
C181 C182 1.362 1_455 S
C181 C184 1.378 . S
C181 H196 0.929 . S
C182 C181 1.362 1_655 S
C182 C183 1.366 . S
C183 C180 1.365 . S
C183 C182 1.366 . S
C183 H197 0.930 . S
C184 C181 1.378 . S
C184 N185 1.315 . S
C184 H187 0.930 . S
N185 Co165 2.194 . S
N185 C180 1.328 1_455 S
N185 C184 1.315 . S
H186 C180 0.929 . S
H187 C184 0.930 . S
H188 C176 0.929 . S
H189 C178 0.929 . S
O190 Co165 2.351 . S
O190 C193 1.244 . S
O191 Co165 2.155 . S
O191 C193 1.240 . S
O192 Co165 2.096 . S
O192 C173 1.247 . S
C193 O190 1.244 . S
C193 O191 1.240 . S
H194 C168 0.931 . S
H195 C177 0.931 . S
H196 C181 0.929 . S
H197 C183 0.930 . S
Co198 N202 2.148 . S
Co198 N208 2.128 . S
Co198 N218 2.194 . S
Co198 O223 2.351 1_554 S
Co198 O224 2.155 1_554 S
Co198 O225 2.096 . S
C199 N202 1.301 . S
C199 N203 1.328 . S
C199 H204 0.930 . S
C200 C201 1.333 . S
C200 N202 1.317 . S
C200 H205 0.930 . S
C201 C200 1.333 . S
C201 N203 1.350 . S
C201 H227 0.931 . S
N202 Co198 2.148 . S
N202 C199 1.301 . S
N202 C200 1.317 . S
N203 C199 1.328 . S
N203 C201 1.350 . S
H204 C199 0.930 . S
H205 C200 0.930 . S
C206 O207 1.224 . S
C206 O225 1.247 . S
O207 C206 1.224 . S
N208 Co198 2.128 . S
N208 C209 1.355 . S
N208 C211 1.311 . S
C209 N208 1.355 . S
C209 C210 1.363 . S
C209 H221 0.929 . S
C210 C209 1.363 . S
C210 N212 1.375 . S
C210 H228 0.931 . S
C211 N208 1.311 . S
C211 N212 1.347 . S
C211 H222 0.929 . S
N212 C210 1.375 . S
N212 C211 1.347 . S
C213 C216 1.365 . S
C213 N218 1.328 1_455 S
C213 H219 0.929 . S
C214 C215 1.362 1_655 S
C214 C217 1.378 . S
C214 H229 0.929 . S
C215 C214 1.362 1_455 S
C215 C216 1.366 . S
C216 C213 1.365 . S
C216 C215 1.366 . S
C216 H230 0.930 . S
C217 C214 1.378 . S
C217 N218 1.315 . S
C217 H220 0.930 . S
N218 Co198 2.194 . S
N218 C213 1.328 1_655 S
N218 C217 1.315 . S
H219 C213 0.929 . S
H220 C217 0.930 . S
H221 C209 0.929 . S
H222 C211 0.929 . S
O223 Co198 2.351 1_556 S
O223 C226 1.244 . S
O224 Co198 2.155 1_556 S
O224 C226 1.240 . S
O225 Co198 2.096 . S
O225 C206 1.247 . S
C226 O223 1.244 . S
C226 O224 1.240 . S
H227 C201 0.931 . S
H228 C210 0.931 . S
H229 C214 0.929 . S
H230 C216 0.930 . S
Co231 N235 2.148 . S
Co231 N241 2.128 . S
Co231 N251 2.194 . S
Co231 O256 2.351 . S
Co231 O257 2.155 . S
Co231 O258 2.096 . S
C232 N235 1.301 . S
C232 N236 1.328 . S
C232 H237 0.930 . S
C233 C234 1.333 . S
C233 N235 1.317 . S
C233 H238 0.930 . S
C234 C233 1.333 . S
C234 N236 1.350 . S
C234 H260 0.931 . S
N235 Co231 2.148 . S
N235 C232 1.301 . S
N235 C233 1.317 . S
N236 C232 1.328 . S
N236 C234 1.350 . S
H237 C232 0.930 . S
H238 C233 0.930 . S
C239 O240 1.224 . S
C239 O258 1.247 . S
O240 C239 1.224 . S
N241 Co231 2.128 . S
N241 C242 1.355 . S
N241 C244 1.311 . S
C242 N241 1.355 . S
C242 C243 1.363 . S
C242 H254 0.929 . S
C243 C242 1.363 . S
C243 N245 1.375 . S
C243 H261 0.931 . S
C244 N241 1.311 . S
C244 N245 1.347 . S
C244 H255 0.929 . S
N245 C243 1.375 . S
N245 C244 1.347 . S
C246 C249 1.365 . S
C246 N251 1.328 1_455 S
C246 H252 0.929 . S
C247 C248 1.362 1_655 S
C247 C250 1.378 . S
C247 H262 0.929 . S
C248 C247 1.362 1_455 S
C248 C249 1.366 . S
C249 C246 1.365 . S
C249 C248 1.366 . S
C249 H263 0.930 . S
C250 C247 1.378 . S
C250 N251 1.315 . S
C250 H253 0.930 . S
N251 Co231 2.194 . S
N251 C246 1.328 1_655 S
N251 C250 1.315 . S
H252 C246 0.929 . S
H253 C250 0.930 . S
H254 C242 0.929 . S
H255 C244 0.929 . S
O256 Co231 2.351 . S
O256 C259 1.244 . S
O257 Co231 2.155 . S
O257 C259 1.240 . S
O258 Co231 2.096 . S
O258 C239 1.247 . S
C259 O256 1.244 . S
C259 O257 1.240 . S
H260 C234 0.931 . S
H261 C243 0.931 . S
H262 C247 0.929 . S
H263 C249 0.930 . S
Co264 N268 2.148 . S
Co264 N274 2.128 . S
Co264 N284 2.194 . S
Co264 O289 2.351 1_556 S
Co264 O290 2.155 1_556 S
Co264 O291 2.096 . S
C265 N268 1.301 . S
C265 N269 1.328 . S
C265 H270 0.930 . S
C266 C267 1.333 . S
C266 N268 1.317 . S
C266 H271 0.930 . S
C267 C266 1.333 . S
C267 N269 1.350 . S
C267 H293 0.931 . S
N268 Co264 2.148 . S
N268 C265 1.301 . S
N268 C266 1.317 . S
N269 C265 1.328 . S
N269 C267 1.350 . S
H270 C265 0.930 . S
H271 C266 0.930 . S
C272 O273 1.224 . S
C272 O291 1.247 . S
O273 C272 1.224 . S
N274 Co264 2.128 . S
N274 C275 1.355 . S
N274 C277 1.311 . S
C275 N274 1.355 . S
C275 C276 1.363 . S
C275 H287 0.929 . S
C276 C275 1.363 . S
C276 N278 1.375 . S
C276 H294 0.931 . S
C277 N274 1.311 . S
C277 N278 1.347 . S
C277 H288 0.929 . S
N278 C276 1.375 . S
N278 C277 1.347 . S
C279 C282 1.365 . S
C279 N284 1.328 . S
C279 H285 0.929 . S
C280 C281 1.362 . S
C280 C283 1.378 . S
C280 H295 0.929 . S
C281 C280 1.362 . S
C281 C282 1.366 . S
C282 C279 1.365 . S
C282 C281 1.366 . S
C282 H296 0.930 . S
C283 C280 1.378 . S
C283 N284 1.315 . S
C283 H286 0.930 . S
N284 Co264 2.194 . S
N284 C279 1.328 . S
N284 C283 1.315 . S
H285 C279 0.929 . S
H286 C283 0.930 . S
H287 C275 0.929 . S
H288 C277 0.929 . S
O289 Co264 2.351 1_554 S
O289 C292 1.244 . S
O290 Co264 2.155 1_554 S
O290 C292 1.240 . S
O291 Co264 2.096 . S
O291 C272 1.247 . S
C292 O289 1.244 . S
C292 O290 1.240 . S
H293 C267 0.931 . S
H294 C276 0.931 . S
H295 C280 0.929 . S
H296 C282 0.930 . S
Co297 N301 2.148 . S
Co297 N307 2.128 . S
Co297 N317 2.194 . S
Co297 O322 2.351 . S
Co297 O323 2.155 . S
Co297 O324 2.096 . S
C298 N301 1.301 . S
C298 N302 1.328 . S
C298 H303 0.930 . S
C299 C300 1.333 . S
C299 N301 1.317 . S
C299 H304 0.930 . S
C300 C299 1.333 . S
C300 N302 1.350 . S
C300 H326 0.931 . S
N301 Co297 2.148 . S
N301 C298 1.301 . S
N301 C299 1.317 . S
N302 C298 1.328 . S
N302 C300 1.350 . S
H303 C298 0.930 . S
H304 C299 0.930 . S
C305 O306 1.224 . S
C305 O324 1.247 . S
O306 C305 1.224 . S
N307 Co297 2.128 . S
N307 C308 1.355 . S
N307 C310 1.311 . S
C308 N307 1.355 . S
C308 C309 1.363 . S
C308 H320 0.929 . S
C309 C308 1.363 . S
C309 N311 1.375 . S
C309 H327 0.931 . S
C310 N307 1.311 . S
C310 N311 1.347 . S
C310 H321 0.929 . S
N311 C309 1.375 . S
N311 C310 1.347 . S
C312 C315 1.365 . S
C312 N317 1.328 . S
C312 H318 0.929 . S
C313 C314 1.362 . S
C313 C316 1.378 . S
C313 H328 0.929 . S
C314 C313 1.362 . S
C314 C315 1.366 . S
C315 C312 1.365 . S
C315 C314 1.366 . S
C315 H329 0.930 . S
C316 C313 1.378 . S
C316 N317 1.315 . S
C316 H319 0.930 . S
N317 Co297 2.194 . S
N317 C312 1.328 . S
N317 C316 1.315 . S
H318 C312 0.929 . S
H319 C316 0.930 . S
H320 C308 0.929 . S
H321 C310 0.929 . S
O322 Co297 2.351 . S
O322 C325 1.244 . S
O323 Co297 2.155 . S
O323 C325 1.240 . S
O324 Co297 2.096 . S
O324 C305 1.247 . S
C325 O322 1.244 . S
C325 O323 1.240 . S
H326 C300 0.931 . S
H327 C309 0.931 . S
H328 C313 0.929 . S
H329 C315 0.930 . S
Co330 N334 2.148 . S
Co330 N340 2.128 . S
Co330 N350 2.194 . S
Co330 O355 2.351 1_554 S
Co330 O356 2.155 1_554 S
Co330 O357 2.096 . S
C331 N334 1.301 . S
C331 N335 1.328 . S
C331 H336 0.930 . S
C332 C333 1.333 . S
C332 N334 1.317 . S
C332 H337 0.930 . S
C333 C332 1.333 . S
C333 N335 1.350 . S
C333 H359 0.931 . S
N334 Co330 2.148 . S
N334 C331 1.301 . S
N334 C332 1.317 . S
N335 C331 1.328 . S
N335 C333 1.350 . S
H336 C331 0.930 . S
H337 C332 0.930 . S
C338 O339 1.224 . S
C338 O357 1.247 . S
O339 C338 1.224 . S
N340 Co330 2.128 . S
N340 C341 1.355 . S
N340 C343 1.311 . S
C341 N340 1.355 . S
C341 C342 1.363 . S
C341 H353 0.929 . S
C342 C341 1.363 . S
C342 N344 1.375 . S
C342 H360 0.931 . S
C343 N340 1.311 . S
C343 N344 1.347 . S
C343 H354 0.929 . S
N344 C342 1.375 . S
N344 C343 1.347 . S
C345 C348 1.365 . S
C345 N350 1.328 . S
C345 H351 0.929 . S
C346 C347 1.362 . S
C346 C349 1.378 . S
C346 H361 0.929 . S
C347 C346 1.362 . S
C347 C348 1.366 . S
C348 C345 1.365 . S
C348 C347 1.366 . S
C348 H362 0.930 . S
C349 C346 1.378 . S
C349 N350 1.315 . S
C349 H352 0.930 . S
N350 Co330 2.194 . S
N350 C345 1.328 . S
N350 C349 1.315 . S
H351 C345 0.929 . S
H352 C349 0.930 . S
H353 C341 0.929 . S
H354 C343 0.929 . S
O355 Co330 2.351 1_556 S
O355 C358 1.244 . S
O356 Co330 2.155 1_556 S
O356 C358 1.240 . S
O357 Co330 2.096 . S
O357 C338 1.247 . S
C358 O355 1.244 . S
C358 O356 1.240 . S
H359 C333 0.931 . S
H360 C342 0.931 . S
H361 C346 0.929 . S
H362 C348 0.930 . S
Co363 N367 2.148 . S
Co363 N373 2.128 . S
Co363 N383 2.194 . S
Co363 O388 2.351 . S
Co363 O389 2.155 . S
Co363 O390 2.096 . S
C364 N367 1.301 . S
C364 N368 1.328 . S
C364 H369 0.930 . S
C365 C366 1.333 . S
C365 N367 1.317 . S
C365 H370 0.930 . S
C366 C365 1.333 . S
C366 N368 1.350 . S
C366 H392 0.931 . S
N367 Co363 2.148 . S
N367 C364 1.301 . S
N367 C365 1.317 . S
N368 C364 1.328 . S
N368 C366 1.350 . S
H369 C364 0.930 . S
H370 C365 0.930 . S
C371 O372 1.224 . S
C371 O390 1.247 . S
O372 C371 1.224 . S
N373 Co363 2.128 . S
N373 C374 1.355 . S
N373 C376 1.311 . S
C374 N373 1.355 . S
C374 C375 1.363 . S
C374 H386 0.929 . S
C375 C374 1.363 . S
C375 N377 1.375 . S
C375 H393 0.931 . S
C376 N373 1.311 . S
C376 N377 1.347 . S
C376 H387 0.929 . S
N377 C375 1.375 . S
N377 C376 1.347 . S
C378 C381 1.365 . S
C378 N383 1.328 . S
C378 H384 0.929 . S
C379 C380 1.362 . S
C379 C382 1.378 . S
C379 H394 0.929 . S
C380 C379 1.362 . S
C380 C381 1.366 . S
C381 C378 1.365 . S
C381 C380 1.366 . S
C381 H395 0.930 . S
C382 C379 1.378 . S
C382 N383 1.315 . S
C382 H385 0.930 . S
N383 Co363 2.194 . S
N383 C378 1.328 . S
N383 C382 1.315 . S
H384 C378 0.929 . S
H385 C382 0.930 . S
H386 C374 0.929 . S
H387 C376 0.929 . S
O388 Co363 2.351 . S
O388 C391 1.244 . S
O389 Co363 2.155 . S
O389 C391 1.240 . S
O390 Co363 2.096 . S
O390 C371 1.247 . S
C391 O388 1.244 . S
C391 O389 1.240 . S
H392 C366 0.931 . S
H393 C375 0.931 . S
H394 C379 0.929 . S
H395 C381 0.930 . S
Co396 N400 2.148 . S
Co396 N406 2.128 . S
Co396 N416 2.194 . S
Co396 O421 2.351 . S
Co396 O422 2.155 . S
Co396 O423 2.096 . S
C397 N400 1.301 . S
C397 N401 1.328 . S
C397 H402 0.930 . S
C398 C399 1.333 . S
C398 N400 1.317 . S
C398 H403 0.930 . S
C399 C398 1.333 . S
C399 N401 1.350 . S
C399 H425 0.931 . S
N400 Co396 2.148 . S
N400 C397 1.301 . S
N400 C398 1.317 . S
N401 C397 1.328 . S
N401 C399 1.350 . S
H402 C397 0.930 . S
H403 C398 0.930 . S
C404 O405 1.224 . S
C404 O423 1.247 . S
O405 C404 1.224 . S
N406 Co396 2.128 . S
N406 C407 1.355 . S
N406 C409 1.311 . S
C407 N406 1.355 . S
C407 C408 1.363 . S
C407 H419 0.929 . S
C408 C407 1.363 . S
C408 N410 1.375 . S
C408 H426 0.931 . S
C409 N406 1.311 . S
C409 N410 1.347 . S
C409 H420 0.929 . S
N410 C408 1.375 . S
N410 C409 1.347 . S
C411 C414 1.365 . S
C411 N416 1.328 . S
C411 H417 0.929 . S
C412 C413 1.362 . S
C412 C415 1.378 . S
C412 H427 0.929 . S
C413 C412 1.362 . S
C413 C414 1.366 . S
C414 C411 1.365 . S
C414 C413 1.366 . S
C414 H428 0.930 . S
C415 C412 1.378 . S
C415 N416 1.315 . S
C415 H418 0.930 . S
N416 Co396 2.194 . S
N416 C411 1.328 . S
N416 C415 1.315 . S
H417 C411 0.929 . S
H418 C415 0.930 . S
H419 C407 0.929 . S
H420 C409 0.929 . S
O421 Co396 2.351 . S
O421 C424 1.244 . S
O422 Co396 2.155 . S
O422 C424 1.240 . S
O423 Co396 2.096 . S
O423 C404 1.247 . S
C424 O421 1.244 . S
C424 O422 1.240 . S
H425 C399 0.931 . S
H426 C408 0.931 . S
H427 C412 0.929 . S
H428 C414 0.930 . S
Co429 N433 2.148 . S
Co429 N439 2.128 . S
Co429 N449 2.194 . S
Co429 O454 2.351 . S
Co429 O455 2.155 . S
Co429 O456 2.096 . S
C430 N433 1.301 . S
C430 N434 1.328 . S
C430 H435 0.930 . S
C431 C432 1.333 . S
C431 N433 1.317 . S
C431 H436 0.930 . S
C432 C431 1.333 . S
C432 N434 1.350 . S
C432 H458 0.931 . S
N433 Co429 2.148 . S
N433 C430 1.301 . S
N433 C431 1.317 . S
N434 C430 1.328 . S
N434 C432 1.350 . S
H435 C430 0.930 . S
H436 C431 0.930 . S
C437 O438 1.224 . S
C437 O456 1.247 . S
O438 C437 1.224 . S
N439 Co429 2.128 . S
N439 C440 1.355 . S
N439 C442 1.311 . S
C440 N439 1.355 . S
C440 C441 1.363 . S
C440 H452 0.929 . S
C441 C440 1.363 . S
C441 N443 1.375 . S
C441 H459 0.931 . S
C442 N439 1.311 . S
C442 N443 1.347 . S
C442 H453 0.929 . S
N443 C441 1.375 . S
N443 C442 1.347 . S
C444 C447 1.365 . S
C444 N449 1.328 . S
C444 H450 0.929 . S
C445 C446 1.362 . S
C445 C448 1.378 . S
C445 H460 0.929 . S
C446 C445 1.362 . S
C446 C447 1.366 . S
C447 C444 1.365 . S
C447 C446 1.366 . S
C447 H461 0.930 . S
C448 C445 1.378 . S
C448 N449 1.315 . S
C448 H451 0.930 . S
N449 Co429 2.194 . S
N449 C444 1.328 . S
N449 C448 1.315 . S
H450 C444 0.929 . S
H451 C448 0.930 . S
H452 C440 0.929 . S
H453 C442 0.929 . S
O454 Co429 2.351 . S
O454 C457 1.244 . S
O455 Co429 2.155 . S
O455 C457 1.240 . S
O456 Co429 2.096 . S
O456 C437 1.247 . S
C457 O454 1.244 . S
C457 O455 1.240 . S
H458 C432 0.931 . S
H459 C441 0.931 . S
H460 C445 0.929 . S
H461 C447 0.930 . S
Co462 N466 2.148 . S
Co462 N472 2.128 . S
Co462 N482 2.194 . S
Co462 O487 2.351 . S
Co462 O488 2.155 . S
Co462 O489 2.096 . S
C463 N466 1.301 . S
C463 N467 1.328 . S
C463 H468 0.930 . S
C464 C465 1.333 . S
C464 N466 1.317 . S
C464 H469 0.930 . S
C465 C464 1.333 . S
C465 N467 1.350 . S
C465 H491 0.931 . S
N466 Co462 2.148 . S
N466 C463 1.301 . S
N466 C464 1.317 . S
N467 C463 1.328 . S
N467 C465 1.350 . S
H468 C463 0.930 . S
H469 C464 0.930 . S
C470 O471 1.224 . S
C470 O489 1.247 . S
O471 C470 1.224 . S
N472 Co462 2.128 . S
N472 C473 1.355 . S
N472 C475 1.311 . S
C473 N472 1.355 . S
C473 C474 1.363 . S
C473 H485 0.929 . S
C474 C473 1.363 . S
C474 N476 1.375 . S
C474 H492 0.931 . S
C475 N472 1.311 . S
C475 N476 1.347 . S
C475 H486 0.929 . S
N476 C474 1.375 . S
N476 C475 1.347 . S
C477 C480 1.365 . S
C477 N482 1.328 . S
C477 H483 0.929 . S
C478 C479 1.362 . S
C478 C481 1.378 . S
C478 H493 0.929 . S
C479 C478 1.362 . S
C479 C480 1.366 . S
C480 C477 1.365 . S
C480 C479 1.366 . S
C480 H494 0.930 . S
C481 C478 1.378 . S
C481 N482 1.315 . S
C481 H484 0.930 . S
N482 Co462 2.194 . S
N482 C477 1.328 . S
N482 C481 1.315 . S
H483 C477 0.929 . S
H484 C481 0.930 . S
H485 C473 0.929 . S
H486 C475 0.929 . S
O487 Co462 2.351 . S
O487 C490 1.244 . S
O488 Co462 2.155 . S
O488 C490 1.240 . S
O489 Co462 2.096 . S
O489 C470 1.247 . S
C490 O487 1.244 . S
C490 O488 1.240 . S
H491 C465 0.931 . S
H492 C474 0.931 . S
H493 C478 0.929 . S
H494 C480 0.930 . S
Co495 N499 2.148 . S
Co495 N505 2.128 . S
Co495 N515 2.194 . S
Co495 O520 2.351 . S
Co495 O521 2.155 . S
Co495 O522 2.096 . S
C496 N499 1.301 . S
C496 N500 1.328 . S
C496 H501 0.930 . S
C497 C498 1.333 . S
C497 N499 1.317 . S
C497 H502 0.930 . S
C498 C497 1.333 . S
C498 N500 1.350 . S
C498 H524 0.931 . S
N499 Co495 2.148 . S
N499 C496 1.301 . S
N499 C497 1.317 . S
N500 C496 1.328 . S
N500 C498 1.350 . S
H501 C496 0.930 . S
H502 C497 0.930 . S
C503 O504 1.224 . S
C503 O522 1.247 . S
O504 C503 1.224 . S
N505 Co495 2.128 . S
N505 C506 1.355 . S
N505 C508 1.311 . S
C506 N505 1.355 . S
C506 C507 1.363 . S
C506 H518 0.929 . S
C507 C506 1.363 . S
C507 N509 1.375 . S
C507 H525 0.931 . S
C508 N505 1.311 . S
C508 N509 1.347 . S
C508 H519 0.929 . S
N509 C507 1.375 . S
N509 C508 1.347 . S
C510 C513 1.365 . S
C510 N515 1.328 . S
C510 H516 0.929 . S
C511 C512 1.362 . S
C511 C514 1.378 . S
C511 H526 0.929 . S
C512 C511 1.362 . S
C512 C513 1.366 . S
C513 C510 1.365 . S
C513 C512 1.366 . S
C513 H527 0.930 . S
C514 C511 1.378 . S
C514 N515 1.315 . S
C514 H517 0.930 . S
N515 Co495 2.194 . S
N515 C510 1.328 . S
N515 C514 1.315 . S
H516 C510 0.929 . S
H517 C514 0.930 . S
H518 C506 0.929 . S
H519 C508 0.929 . S
O520 Co495 2.351 . S
O520 C523 1.244 . S
O521 Co495 2.155 . S
O521 C523 1.240 . S
O522 Co495 2.096 . S
O522 C503 1.247 . S
C523 O520 1.244 . S
C523 O521 1.240 . S
H524 C498 0.931 . S
H525 C507 0.931 . S
H526 C511 0.929 . S
H527 C513 0.930 . S
H528 C534 0.930 . S
H529 C538 0.930 . S
H530 C543 0.929 . S
H531 C541 0.929 . S
H532 C536 0.929 . S
H533 C542 0.929 . S
C534 H528 0.930 . S
C534 C535 1.367 . S
C534 C542 1.378 . S
C535 C534 1.367 . S
C535 C543 1.433 . S
C536 H532 0.929 . S
C536 C538 1.378 . S
C536 C540 1.350 . S
C537 C540 1.463 . S
C537 C542 1.350 . S
C537 N545 1.427 . S
C538 H529 0.930 . S
C538 C536 1.378 . S
C538 C539 1.367 . S
C539 C538 1.367 . S
C539 C541 1.433 . S
C540 C536 1.350 . S
C540 C537 1.463 . S
C540 N544 1.427 . S
C541 H531 0.929 . S
C541 C539 1.433 . S
C541 N544 1.384 . S
C542 H533 0.929 . S
C542 C534 1.378 . S
C542 C537 1.350 . S
C543 H530 0.929 . S
C543 C535 1.433 . S
C543 N545 1.384 . S
N544 C540 1.427 . S
N544 C541 1.384 . S
N545 C537 1.427 . S
N545 C543 1.384 . S
H546 C552 0.930 . S
H547 C556 0.930 . S
H548 C561 0.929 . S
H549 C559 0.929 . S
H550 C554 0.929 . S
H551 C560 0.929 . S
C552 H546 0.930 . S
C552 C553 1.367 . S
C552 C560 1.378 1_655 S
C553 C552 1.367 . S
C553 C561 1.433 . S
C554 H550 0.929 . S
C554 C556 1.378 1_655 S
C554 C558 1.350 1_655 S
C555 C558 1.463 1_665 S
C555 C560 1.350 1_655 S
C555 N563 1.427 . S
C556 H547 0.930 . S
C556 C554 1.378 1_455 S
C556 C557 1.367 . S
C557 C556 1.367 . S
C557 C559 1.433 . S
C558 C554 1.350 1_455 S
C558 C555 1.463 1_445 S
C558 N562 1.427 . S
C559 H549 0.929 . S
C559 C557 1.433 . S
C559 N562 1.384 . S
C560 H551 0.929 . S
C560 C552 1.378 1_455 S
C560 C555 1.350 1_455 S
C561 H548 0.929 . S
C561 C553 1.433 . S
C561 N563 1.384 . S
N562 C558 1.427 . S
N562 C559 1.384 . S
N563 C555 1.427 . S
N563 C561 1.384 . S
H564 C570 0.930 . S
H565 C574 0.930 . S
H566 C579 0.929 . S
H567 C577 0.929 . S
H568 C572 0.929 . S
H569 C578 0.929 . S
C570 H564 0.930 . S
C570 C571 1.367 . S
C570 C578 1.378 . S
C571 C570 1.367 . S
C571 C579 1.433 . S
C572 H568 0.929 . S
C572 C574 1.378 . S
C572 C576 1.350 . S
C573 C576 1.463 1_545 S
C573 C578 1.350 . S
C573 N581 1.427 . S
C574 H565 0.930 . S
C574 C572 1.378 . S
C574 C575 1.367 . S
C575 C574 1.367 . S
C575 C577 1.433 . S
C576 C572 1.350 . S
C576 C573 1.463 1_565 S
C576 N580 1.427 . S
C577 H567 0.929 . S
C577 C575 1.433 . S
C577 N580 1.384 . S
C578 H569 0.929 . S
C578 C570 1.378 . S
C578 C573 1.350 . S
C579 H566 0.929 . S
C579 C571 1.433 . S
C579 N581 1.384 . S
N580 C576 1.427 . S
N580 C577 1.384 . S
N581 C573 1.427 . S
N581 C579 1.384 . S
H582 C588 0.930 . S
H583 C592 0.930 . S
H584 C597 0.929 . S
H585 C595 0.929 . S
H586 C590 0.929 . S
H587 C596 0.929 . S
C588 H582 0.930 . S
C588 C589 1.367 . S
C588 C596 1.378 . S
C589 C588 1.367 . S
C589 C597 1.433 . S
C590 H586 0.929 . S
C590 C592 1.378 . S
C590 C594 1.350 . S
C591 C594 1.463 1_655 S
C591 C596 1.350 . S
C591 N599 1.427 . S
C592 H583 0.930 . S
C592 C590 1.378 . S
C592 C593 1.367 . S
C593 C592 1.367 . S
C593 C595 1.433 . S
C594 C590 1.350 . S
C594 C591 1.463 1_455 S
C594 N598 1.427 . S
C595 H585 0.929 . S
C595 C593 1.433 . S
C595 N598 1.384 . S
C596 H587 0.929 . S
C596 C588 1.378 . S
C596 C591 1.350 . S
C597 H584 0.929 . S
C597 C589 1.433 . S
C597 N599 1.384 . S
N598 C594 1.427 . S
N598 C595 1.384 . S
N599 C591 1.427 . S
N599 C597 1.384 . S
H600 C606 0.930 . S
H601 C610 0.930 . S
H602 C615 0.929 . S
H603 C613 0.929 . S
H604 C608 0.929 . S
H605 C614 0.929 . S
C606 H600 0.930 . S
C606 C607 1.367 . S
C606 C614 1.378 . S
C607 C606 1.367 . S
C607 C615 1.433 . S
C608 H604 0.929 . S
C608 C610 1.378 . S
C608 C612 1.350 . S
C609 C612 1.463 . S
C609 C614 1.350 . S
C609 N617 1.427 . S
C610 H601 0.930 . S
C610 C608 1.378 . S
C610 C611 1.367 . S
C611 C610 1.367 . S
C611 C613 1.433 . S
C612 C608 1.350 . S
C612 C609 1.463 . S
C612 N616 1.427 . S
C613 H603 0.929 . S
C613 C611 1.433 . S
C613 N616 1.384 . S
C614 H605 0.929 . S
C614 C606 1.378 . S
C614 C609 1.350 . S
C615 H602 0.929 . S
C615 C607 1.433 . S
C615 N617 1.384 . S
N616 C612 1.427 . S
N616 C613 1.384 . S
N617 C609 1.427 . S
N617 C615 1.384 . S
H618 C624 0.930 . S
H619 C628 0.930 . S
H620 C633 0.929 . S
H621 C631 0.929 . S
H622 C626 0.929 . S
H623 C632 0.929 . S
C624 H618 0.930 . S
C624 C625 1.367 . S
C624 C632 1.378 . S
C625 C624 1.367 . S
C625 C633 1.433 . S
C626 H622 0.929 . S
C626 C628 1.378 . S
C626 C630 1.350 . S
C627 C630 1.463 1_565 S
C627 C632 1.350 . S
C627 N635 1.427 . S
C628 H619 0.930 . S
C628 C626 1.378 . S
C628 C629 1.367 . S
C629 C628 1.367 . S
C629 C631 1.433 . S
C630 C626 1.350 . S
C630 C627 1.463 1_545 S
C630 N634 1.427 . S
C631 H621 0.929 . S
C631 C629 1.433 . S
C631 N634 1.384 . S
C632 H623 0.929 . S
C632 C624 1.378 . S
C632 C627 1.350 . S
C633 H620 0.929 . S
C633 C625 1.433 . S
C633 N635 1.384 . S
N634 C630 1.427 . S
N634 C631 1.384 . S
N635 C627 1.427 . S
N635 C633 1.384 . S
H636 C642 0.930 . S
H637 C646 0.930 . S
H638 C651 0.929 . S
H639 C649 0.929 . S
H640 C644 0.929 1_655 S
H641 C650 0.929 1_455 S
C642 H636 0.930 . S
C642 C643 1.367 . S
C642 C650 1.378 . S
C643 C642 1.367 . S
C643 C651 1.433 . S
C644 H640 0.929 1_455 S
C644 C646 1.378 . S
C644 C648 1.350 . S
C645 C648 1.463 1_655 S
C645 C650 1.350 . S
C645 N653 1.427 . S
C646 H637 0.930 . S
C646 C644 1.378 . S
C646 C647 1.367 . S
C647 C646 1.367 . S
C647 C649 1.433 . S
C648 C644 1.350 . S
C648 C645 1.463 1_455 S
C648 N652 1.427 . S
C649 H639 0.929 . S
C649 C647 1.433 . S
C649 N652 1.384 . S
C650 H641 0.929 1_655 S
C650 C642 1.378 . S
C650 C645 1.350 . S
C651 H638 0.929 . S
C651 C643 1.433 . S
C651 N653 1.384 . S
N652 C648 1.427 . S
N652 C649 1.384 . S
N653 C645 1.427 . S
N653 C651 1.384 . S
H654 C660 0.930 . S
H655 C664 0.930 . S
H656 C669 0.929 . S
H657 C667 0.929 . S
H658 C662 0.929 . S
H659 C668 0.929 . S
C660 H654 0.930 . S
C660 C661 1.367 . S
C660 C668 1.378 . S
C661 C660 1.367 . S
C661 C669 1.433 1_554 S
C662 H658 0.929 . S
C662 C664 1.378 . S
C662 C666 1.350 . S
C663 C666 1.463 1_554 S
C663 C668 1.350 . S
C663 N671 1.427 1_554 S
C664 H655 0.930 . S
C664 C662 1.378 . S
C664 C665 1.367 . S
C665 C664 1.367 . S
C665 C667 1.433 1_556 S
C666 C662 1.350 . S
C666 C663 1.463 1_556 S
C666 N670 1.427 1_556 S
C667 H657 0.929 . S
C667 C665 1.433 1_554 S
C667 N670 1.384 . S
C668 H659 0.929 . S
C668 C660 1.378 . S
C668 C663 1.350 . S
C669 H656 0.929 . S
C669 C661 1.433 1_556 S
C669 N671 1.384 . S
N670 C666 1.427 1_554 S
N670 C667 1.384 . S
N671 C663 1.427 1_556 S
N671 C669 1.384 . S
H672 C678 0.930 . S
H673 C682 0.930 . S
H674 C687 0.929 1_455 S
H675 C685 0.929 1_655 S
H676 C680 0.929 . S
H677 C686 0.929 . S
C678 H672 0.930 . S
C678 C679 1.367 1_556 S
C678 C686 1.378 . S
C679 C678 1.367 1_554 S
C679 C687 1.433 . S
C680 H676 0.929 . S
C680 C682 1.378 . S
C680 C684 1.350 1_554 S
C681 C684 1.463 1_654 S
C681 C686 1.350 1_554 S
C681 N689 1.427 1_655 S
C682 H673 0.930 . S
C682 C680 1.378 . S
C682 C683 1.367 1_554 S
C683 C682 1.367 1_556 S
C683 C685 1.433 . S
C684 C680 1.350 1_556 S
C684 C681 1.463 1_456 S
C684 N688 1.427 1_455 S
C685 H675 0.929 1_455 S
C685 C683 1.433 . S
C685 N688 1.384 1_455 S
C686 H677 0.929 . S
C686 C678 1.378 . S
C686 C681 1.350 1_556 S
C687 H674 0.929 1_655 S
C687 C679 1.433 . S
C687 N689 1.384 1_655 S
N688 C684 1.427 1_655 S
N688 C685 1.384 1_655 S
N689 C681 1.427 1_455 S
N689 C687 1.384 1_455 S
H690 C696 0.930 . S
H691 C700 0.930 . S
H692 C705 0.929 . S
H693 C703 0.929 . S
H694 C698 0.929 . S
H695 C704 0.929 . S
C696 H690 0.930 . S
C696 C697 1.367 . S
C696 C704 1.378 . S
C697 C696 1.367 . S
C697 C705 1.433 . S
C698 H694 0.929 . S
C698 C700 1.378 . S
C698 C702 1.350 . S
C699 C702 1.463 . S
C699 C704 1.350 . S
C699 N707 1.427 . S
C700 H691 0.930 . S
C700 C698 1.378 . S
C700 C701 1.367 . S
C701 C700 1.367 . S
C701 C703 1.433 . S
C702 C698 1.350 . S
C702 C699 1.463 . S
C702 N706 1.427 . S
C703 H693 0.929 . S
C703 C701 1.433 . S
C703 N706 1.384 . S
C704 H695 0.929 . S
C704 C696 1.378 . S
C704 C699 1.350 . S
C705 H692 0.929 . S
C705 C697 1.433 . S
C705 N707 1.384 . S
N706 C702 1.427 . S
N706 C703 1.384 . S
N707 C699 1.427 . S
N707 C705 1.384 . S
H708 C714 0.930 . S
H709 C718 0.930 . S
H710 C723 0.929 . S
H711 C721 0.929 . S
H712 C716 0.929 . S
H713 C722 0.929 . S
C714 H708 0.930 . S
C714 C715 1.367 . S
C714 C722 1.378 . S
C715 C714 1.367 . S
C715 C723 1.433 1_556 S
C716 H712 0.929 . S
C716 C718 1.378 . S
C716 C720 1.350 . S
C717 C720 1.463 1_556 S
C717 C722 1.350 . S
C717 N725 1.427 1_556 S
C718 H709 0.930 . S
C718 C716 1.378 . S
C718 C719 1.367 . S
C719 C718 1.367 . S
C719 C721 1.433 1_554 S
C720 C716 1.350 . S
C720 C717 1.463 1_554 S
C720 N724 1.427 1_554 S
C721 H711 0.929 . S
C721 C719 1.433 1_556 S
C721 N724 1.384 . S
C722 H713 0.929 . S
C722 C714 1.378 . S
C722 C717 1.350 . S
C723 H710 0.929 . S
C723 C715 1.433 1_554 S
C723 N725 1.384 . S
N724 C720 1.427 1_556 S
N724 C721 1.384 . S
N725 C717 1.427 1_554 S
N725 C723 1.384 . S
H726 C732 0.930 . S
H727 C736 0.930 . S
H728 C741 0.929 . S
H729 C739 0.929 . S
H730 C734 0.929 . S
H731 C740 0.929 . S
C732 H726 0.930 . S
C732 C733 1.367 . S
C732 C740 1.378 . S
C733 C732 1.367 . S
C733 C741 1.433 . S
C734 H730 0.929 . S
C734 C736 1.378 . S
C734 C738 1.350 . S
C735 C738 1.463 . S
C735 C740 1.350 . S
C735 N743 1.427 . S
C736 H727 0.930 . S
C736 C734 1.378 . S
C736 C737 1.367 . S
C737 C736 1.367 . S
C737 C739 1.433 . S
C738 C734 1.350 . S
C738 C735 1.463 . S
C738 N742 1.427 . S
C739 H729 0.929 . S
C739 C737 1.433 . S
C739 N742 1.384 . S
C740 H731 0.929 . S
C740 C732 1.378 . S
C740 C735 1.350 . S
C741 H728 0.929 . S
C741 C733 1.433 . S
C741 N743 1.384 . S
N742 C738 1.427 . S
N742 C739 1.384 . S
N743 C735 1.427 . S
N743 C741 1.384 . S
H744 C750 0.930 . S
H745 C754 0.930 . S
H746 C759 0.929 . S
H747 C757 0.929 . S
H748 C752 0.929 . S
H749 C758 0.929 . S
C750 H744 0.930 . S
C750 C751 1.367 1_554 S
C750 C758 1.378 . S
C751 C750 1.367 1_556 S
C751 C759 1.433 . S
C752 H748 0.929 . S
C752 C754 1.378 . S
C752 C756 1.350 1_556 S
C753 C756 1.463 1_546 S
C753 C758 1.350 1_556 S
C753 N761 1.427 . S
C754 H745 0.930 . S
C754 C752 1.378 . S
C754 C755 1.367 1_556 S
C755 C754 1.367 1_554 S
C755 C757 1.433 . S
C756 C752 1.350 1_554 S
C756 C753 1.463 1_564 S
C756 N760 1.427 . S
C757 H747 0.929 . S
C757 C755 1.433 . S
C757 N760 1.384 . S
C758 H749 0.929 . S
C758 C750 1.378 . S
C758 C753 1.350 1_554 S
C759 H746 0.929 . S
C759 C751 1.433 . S
C759 N761 1.384 . S
N760 C756 1.427 . S
N760 C757 1.384 . S
N761 C753 1.427 . S
N761 C759 1.384 . S
H762 C768 0.930 . S
H763 C772 0.930 . S
H764 C777 0.929 . S
H765 C775 0.929 . S
H766 C770 0.929 . S
H767 C776 0.929 . S
C768 H762 0.930 . S
C768 C769 1.367 . S
C768 C776 1.378 . S
C769 C768 1.367 . S
C769 C777 1.433 . S
C770 H766 0.929 . S
C770 C772 1.378 . S
C770 C774 1.350 . S
C771 C774 1.463 . S
C771 C776 1.350 . S
C771 N779 1.427 . S
C772 H763 0.930 . S
C772 C770 1.378 . S
C772 C773 1.367 . S
C773 C772 1.367 . S
C773 C775 1.433 . S
C774 C770 1.350 . S
C774 C771 1.463 . S
C774 N778 1.427 . S
C775 H765 0.929 . S
C775 C773 1.433 . S
C775 N778 1.384 . S
C776 H767 0.929 . S
C776 C768 1.378 . S
C776 C771 1.350 . S
C777 H764 0.929 . S
C777 C769 1.433 . S
C777 N779 1.384 . S
N778 C774 1.427 . S
N778 C775 1.384 . S
N779 C771 1.427 . S
N779 C777 1.384 . S
H780 C786 0.930 . S
H781 C790 0.930 . S
H782 C795 0.929 . S
H783 C793 0.929 . S
H784 C788 0.929 . S
H785 C794 0.929 . S
C786 H780 0.930 . S
C786 C787 1.367 . S
C786 C794 1.378 . S
C787 C786 1.367 . S
C787 C795 1.433 . S
C788 H784 0.929 . S
C788 C790 1.378 . S
C788 C792 1.350 . S
C789 C792 1.463 . S
C789 C794 1.350 . S
C789 N797 1.427 . S
C790 H781 0.930 . S
C790 C788 1.378 . S
C790 C791 1.367 . S
C791 C790 1.367 . S
C791 C793 1.433 . S
C792 C788 1.350 . S
C792 C789 1.463 . S
C792 N796 1.427 . S
C793 H783 0.929 . S
C793 C791 1.433 . S
C793 N796 1.384 . S
C794 H785 0.929 . S
C794 C786 1.378 . S
C794 C789 1.350 . S
C795 H782 0.929 . S
C795 C787 1.433 . S
C795 N797 1.384 . S
N796 C792 1.427 . S
N796 C793 1.384 . S
N797 C789 1.427 . S
N797 C795 1.384 . S
H798 C804 0.930 . S
H799 C808 0.930 . S
H800 C813 0.929 . S
H801 C811 0.929 . S
H802 C806 0.929 . S
H803 C812 0.929 . S
C804 H798 0.930 . S
C804 C805 1.367 . S
C804 C812 1.378 . S
C805 C804 1.367 . S
C805 C813 1.433 . S
C806 H802 0.929 . S
C806 C808 1.378 . S
C806 C810 1.350 . S
C807 C810 1.463 . S
C807 C812 1.350 . S
C807 N815 1.427 . S
C808 H799 0.930 . S
C808 C806 1.378 . S
C808 C809 1.367 . S
C809 C808 1.367 . S
C809 C811 1.433 . S
C810 C806 1.350 . S
C810 C807 1.463 . S
C810 N814 1.427 . S
C811 H801 0.929 . S
C811 C809 1.433 . S
C811 N814 1.384 . S
C812 H803 0.929 . S
C812 C804 1.378 . S
C812 C807 1.350 . S
C813 H800 0.929 . S
C813 C805 1.433 . S
C813 N815 1.384 . S
N814 C810 1.427 . S
N814 C811 1.384 . S
N815 C807 1.427 . S
N815 C813 1.384 . S
H816 C822 0.930 . S
H817 C826 0.930 . S
H818 C831 0.929 . S
H819 C829 0.929 . S
H820 C824 0.929 . S
H821 C830 0.929 . S
C822 H816 0.930 . S
C822 C823 1.367 . S
C822 C830 1.378 . S
C823 C822 1.367 . S
C823 C831 1.433 . S
C824 H820 0.929 . S
C824 C826 1.378 . S
C824 C828 1.350 . S
C825 C828 1.463 . S
C825 C830 1.350 . S
C825 N833 1.427 . S
C826 H817 0.930 . S
C826 C824 1.378 . S
C826 C827 1.367 . S
C827 C826 1.367 . S
C827 C829 1.433 . S
C828 C824 1.350 . S
C828 C825 1.463 . S
C828 N832 1.427 . S
C829 H819 0.929 . S
C829 C827 1.433 . S
C829 N832 1.384 . S
C830 H821 0.929 . S
C830 C822 1.378 . S
C830 C825 1.350 . S
C831 H818 0.929 . S
C831 C823 1.433 . S
C831 N833 1.384 . S
N832 C828 1.427 . S
N832 C829 1.384 . S
N833 C825 1.427 . S
N833 C831 1.384 . S
H834 C840 0.930 . S
H835 C844 0.930 . S
H836 C849 0.929 . S
H837 C847 0.929 . S
H838 C842 0.929 . S
H839 C848 0.929 . S
C840 H834 0.930 . S
C840 C841 1.367 . S
C840 C848 1.378 . S
C841 C840 1.367 . S
C841 C849 1.433 . S
C842 H838 0.929 . S
C842 C844 1.378 . S
C842 C846 1.350 . S
C843 C846 1.463 . S
C843 C848 1.350 . S
C843 N851 1.427 . S
C844 H835 0.930 . S
C844 C842 1.378 . S
C844 C845 1.367 . S
C845 C844 1.367 . S
C845 C847 1.433 . S
C846 C842 1.350 . S
C846 C843 1.463 . S
C846 N850 1.427 . S
C847 H837 0.929 . S
C847 C845 1.433 . S
C847 N850 1.384 . S
C848 H839 0.929 . S
C848 C840 1.378 . S
C848 C843 1.350 . S
C849 H836 0.929 . S
C849 C841 1.433 . S
C849 N851 1.384 . S
N850 C846 1.427 . S
N850 C847 1.384 . S
N851 C843 1.427 . S
N851 C849 1.384 . S
H852 C858 0.930 . S
H853 C862 0.930 . S
H854 C867 0.929 . S
H855 C865 0.929 . S
H856 C860 0.929 . S
H857 C866 0.929 . S
C858 H852 0.930 . S
C858 C859 1.367 . S
C858 C866 1.378 . S
C859 C858 1.367 . S
C859 C867 1.433 . S
C860 H856 0.929 . S
C860 C862 1.378 . S
C860 C864 1.350 . S
C861 C864 1.463 . S
C861 C866 1.350 . S
C861 N869 1.427 . S
C862 H853 0.930 . S
C862 C860 1.378 . S
C862 C863 1.367 . S
C863 C862 1.367 . S
C863 C865 1.433 . S
C864 C860 1.350 . S
C864 C861 1.463 . S
C864 N868 1.427 . S
C865 H855 0.929 . S
C865 C863 1.433 . S
C865 N868 1.384 . S
C866 H857 0.929 . S
C866 C858 1.378 . S
C866 C861 1.350 . S
C867 H854 0.929 . S
C867 C859 1.433 . S
C867 N869 1.384 . S
N868 C864 1.427 . S
N868 C865 1.384 . S
N869 C861 1.427 . S
N869 C867 1.384 . S
H870 C876 0.930 . S
H871 C880 0.930 . S
H872 C885 0.929 . S
H873 C883 0.929 . S
H874 C878 0.929 . S
H875 C884 0.929 . S
C876 H870 0.930 . S
C876 C877 1.367 . S
C876 C884 1.378 . S
C877 C876 1.367 . S
C877 C885 1.433 . S
C878 H874 0.929 . S
C878 C880 1.378 . S
C878 C882 1.350 . S
C879 C882 1.463 . S
C879 C884 1.350 . S
C879 N887 1.427 . S
C880 H871 0.930 . S
C880 C878 1.378 . S
C880 C881 1.367 . S
C881 C880 1.367 . S
C881 C883 1.433 . S
C882 C878 1.350 . S
C882 C879 1.463 . S
C882 N886 1.427 . S
C883 H873 0.929 . S
C883 C881 1.433 . S
C883 N886 1.384 . S
C884 H875 0.929 . S
C884 C876 1.378 . S
C884 C879 1.350 . S
C885 H872 0.929 . S
C885 C877 1.433 . S
C885 N887 1.384 . S
N886 C882 1.427 . S
N886 C883 1.384 . S
N887 C879 1.427 . S
N887 C885 1.384 . S
H888 C894 0.930 . S
H889 C898 0.930 . S
H890 C903 0.929 . S
H891 C901 0.929 . S
H892 C896 0.929 . S
H893 C902 0.929 . S
C894 H888 0.930 . S
C894 C895 1.367 . S
C894 C902 1.378 . S
C895 C894 1.367 . S
C895 C903 1.433 . S
C896 H892 0.929 . S
C896 C898 1.378 . S
C896 C900 1.350 . S
C897 C900 1.463 . S
C897 C902 1.350 . S
C897 N905 1.427 . S
C898 H889 0.930 . S
C898 C896 1.378 . S
C898 C899 1.367 . S
C899 C898 1.367 . S
C899 C901 1.433 . S
C900 C896 1.350 . S
C900 C897 1.463 . S
C900 N904 1.427 . S
C901 H891 0.929 . S
C901 C899 1.433 . S
C901 N904 1.384 . S
C902 H893 0.929 . S
C902 C894 1.378 . S
C902 C897 1.350 . S
C903 H890 0.929 . S
C903 C895 1.433 . S
C903 N905 1.384 . S
N904 C900 1.427 . S
N904 C901 1.384 . S
N905 C897 1.427 . S
N905 C903 1.384 . S
H906 C912 0.930 . S
H907 C916 0.930 . S
H908 C921 0.929 . S
H909 C919 0.929 . S
H910 C914 0.929 . S
H911 C920 0.929 . S
C912 H906 0.930 . S
C912 C913 1.367 . S
C912 C920 1.378 . S
C913 C912 1.367 . S
C913 C921 1.433 . S
C914 H910 0.929 . S
C914 C916 1.378 . S
C914 C918 1.350 . S
C915 C918 1.463 . S
C915 C920 1.350 . S
C915 N923 1.427 . S
C916 H907 0.930 . S
C916 C914 1.378 . S
C916 C917 1.367 . S
C917 C916 1.367 . S
C917 C919 1.433 . S
C918 C914 1.350 . S
C918 C915 1.463 . S
C918 N922 1.427 . S
C919 H909 0.929 . S
C919 C917 1.433 . S
C919 N922 1.384 . S
C920 H911 0.929 . S
C920 C912 1.378 . S
C920 C915 1.350 . S
C921 H908 0.929 . S
C921 C913 1.433 . S
C921 N923 1.384 . S
N922 C918 1.427 . S
N922 C919 1.384 . S
N923 C915 1.427 . S
N923 C921 1.384 . S
H924 C930 0.930 . S
H925 C934 0.930 . S
H926 C939 0.929 . S
H927 C937 0.929 . S
H928 C932 0.929 . S
H929 C938 0.929 . S
C930 H924 0.930 . S
C930 C931 1.367 . S
C930 C938 1.378 . S
C931 C930 1.367 . S
C931 C939 1.433 . S
C932 H928 0.929 . S
C932 C934 1.378 . S
C932 C936 1.350 . S
C933 C936 1.463 . S
C933 C938 1.350 . S
C933 N941 1.427 . S
C934 H925 0.930 . S
C934 C932 1.378 . S
C934 C935 1.367 . S
C935 C934 1.367 . S
C935 C937 1.433 . S
C936 C932 1.350 . S
C936 C933 1.463 . S
C936 N940 1.427 . S
C937 H927 0.929 . S
C937 C935 1.433 . S
C937 N940 1.384 . S
C938 H929 0.929 . S
C938 C930 1.378 . S
C938 C933 1.350 . S
C939 H926 0.929 . S
C939 C931 1.433 . S
C939 N941 1.384 . S
N940 C936 1.427 . S
N940 C937 1.384 . S
N941 C933 1.427 . S
N941 C939 1.384 . S
H942 C948 0.930 . S
H943 C952 0.930 . S
H944 C957 0.929 . S
H945 C955 0.929 . S
H946 C950 0.929 . S
H947 C956 0.929 . S
C948 H942 0.930 . S
C948 C949 1.367 . S
C948 C956 1.378 . S
C949 C948 1.367 . S
C949 C957 1.433 . S
C950 H946 0.929 . S
C950 C952 1.378 . S
C950 C954 1.350 . S
C951 C954 1.463 . S
C951 C956 1.350 . S
C951 N959 1.427 . S
C952 H943 0.930 . S
C952 C950 1.378 . S
C952 C953 1.367 . S
C953 C952 1.367 . S
C953 C955 1.433 . S
C954 C950 1.350 . S
C954 C951 1.463 . S
C954 N958 1.427 . S
C955 H945 0.929 . S
C955 C953 1.433 . S
C955 N958 1.384 . S
C956 H947 0.929 . S
C956 C948 1.378 . S
C956 C951 1.350 . S
C957 H944 0.929 . S
C957 C949 1.433 . S
C957 N959 1.384 . S
N958 C954 1.427 . S
N958 C955 1.384 . S
N959 C951 1.427 . S
N959 C957 1.384 . S
H960 C966 0.930 . S
H961 C970 0.930 . S
H962 C975 0.929 . S
H963 C973 0.929 . S
H964 C968 0.929 . S
H965 C974 0.929 . S
C966 H960 0.930 . S
C966 C967 1.367 . S
C966 C974 1.378 . S
C967 C966 1.367 . S
C967 C975 1.433 . S
C968 H964 0.929 . S
C968 C970 1.378 . S
C968 C972 1.350 . S
C969 C972 1.463 . S
C969 C974 1.350 . S
C969 N977 1.427 . S
C970 H961 0.930 . S
C970 C968 1.378 . S
C970 C971 1.367 . S
C971 C970 1.367 . S
C971 C973 1.433 . S
C972 C968 1.350 . S
C972 C969 1.463 . S
C972 N976 1.427 . S
C973 H963 0.929 . S
C973 C971 1.433 . S
C973 N976 1.384 . S
C974 H965 0.929 . S
C974 C966 1.378 . S
C974 C969 1.350 . S
C975 H962 0.929 . S
C975 C967 1.433 . S
C975 N977 1.384 . S
N976 C972 1.427 . S
N976 C973 1.384 . S
N977 C969 1.427 . S
N977 C975 1.384 . S
H978 C984 0.930 . S
H979 C988 0.930 . S
H980 C993 0.929 . S
H981 C991 0.929 . S
H982 C986 0.929 . S
H983 C992 0.929 . S
C984 H978 0.930 . S
C984 C985 1.367 . S
C984 C992 1.378 . S
C985 C984 1.367 . S
C985 C993 1.433 . S
C986 H982 0.929 . S
C986 C988 1.378 . S
C986 C990 1.350 . S
C987 C990 1.463 . S
C987 C992 1.350 . S
C987 N995 1.427 . S
C988 H979 0.930 . S
C988 C986 1.378 . S
C988 C989 1.367 . S
C989 C988 1.367 . S
C989 C991 1.433 . S
C990 C986 1.350 . S
C990 C987 1.463 . S
C990 N994 1.427 . S
C991 H981 0.929 . S
C991 C989 1.433 . S
C991 N994 1.384 . S
C992 H983 0.929 . S
C992 C984 1.378 . S
C992 C987 1.350 . S
C993 H980 0.929 . S
C993 C985 1.433 . S
C993 N995 1.384 . S
N994 C990 1.427 . S
N994 C991 1.384 . S
N995 C987 1.427 . S
N995 C993 1.384 . S
H996 C1002 0.930 . S
H997 C1006 0.930 . S
H998 C1011 0.929 . S
H999 C1009 0.929 . S
H1000 C1004 0.929 . S
H1001 C1010 0.929 . S
C1002 H996 0.930 . S
C1002 C1003 1.367 . S
C1002 C1010 1.378 . S
C1003 C1002 1.367 . S
C1003 C1011 1.433 . S
C1004 H1000 0.929 . S
C1004 C1006 1.378 . S
C1004 C1008 1.350 . S
C1005 C1008 1.463 . S
C1005 C1010 1.350 . S
C1005 N1013 1.427 . S
C1006 H997 0.930 . S
C1006 C1004 1.378 . S
C1006 C1007 1.367 . S
C1007 C1006 1.367 . S
C1007 C1009 1.433 . S
C1008 C1004 1.350 . S
C1008 C1005 1.463 . S
C1008 N1012 1.427 . S
C1009 H999 0.929 . S
C1009 C1007 1.433 . S
C1009 N1012 1.384 . S
C1010 H1001 0.929 . S
C1010 C1002 1.378 . S
C1010 C1005 1.350 . S
C1011 H998 0.929 . S
C1011 C1003 1.433 . S
C1011 N1013 1.384 . S
N1012 C1008 1.427 . S
N1012 C1009 1.384 . S
N1013 C1005 1.427 . S
N1013 C1011 1.384 . S
H1014 C1020 0.930 . S
H1015 C1024 0.930 . S
H1016 C1029 0.929 . S
H1017 C1027 0.929 . S
H1018 C1022 0.929 . S
H1019 C1028 0.929 . S
C1020 H1014 0.930 . S
C1020 C1021 1.367 . S
C1020 C1028 1.378 . S
C1021 C1020 1.367 . S
C1021 C1029 1.433 . S
C1022 H1018 0.929 . S
C1022 C1024 1.378 . S
C1022 C1026 1.350 . S
C1023 C1026 1.463 . S
C1023 C1028 1.350 . S
C1023 N1031 1.427 . S
C1024 H1015 0.930 . S
C1024 C1022 1.378 . S
C1024 C1025 1.367 . S
C1025 C1024 1.367 . S
C1025 C1027 1.433 . S
C1026 C1022 1.350 . S
C1026 C1023 1.463 . S
C1026 N1030 1.427 . S
C1027 H1017 0.929 . S
C1027 C1025 1.433 . S
C1027 N1030 1.384 . S
C1028 H1019 0.929 . S
C1028 C1020 1.378 . S
C1028 C1023 1.350 . S
C1029 H1016 0.929 . S
C1029 C1021 1.433 . S
C1029 N1031 1.384 . S
N1030 C1026 1.427 . S
N1030 C1027 1.384 . S
N1031 C1023 1.427 . S
N1031 C1029 1.384 . S
H1032 C1038 0.930 . S
H1033 C1042 0.930 . S
H1034 C1047 0.929 . S
H1035 C1045 0.929 . S
H1036 C1040 0.929 . S
H1037 C1046 0.929 . S
C1038 H1032 0.930 . S
C1038 C1039 1.367 . S
C1038 C1046 1.378 . S
C1039 C1038 1.367 . S
C1039 C1047 1.433 . S
C1040 H1036 0.929 . S
C1040 C1042 1.378 . S
C1040 C1044 1.350 . S
C1041 C1044 1.463 . S
C1041 C1046 1.350 . S
C1041 N1049 1.427 . S
C1042 H1033 0.930 . S
C1042 C1040 1.378 . S
C1042 C1043 1.367 . S
C1043 C1042 1.367 . S
C1043 C1045 1.433 . S
C1044 C1040 1.350 . S
C1044 C1041 1.463 . S
C1044 N1048 1.427 . S
C1045 H1035 0.929 . S
C1045 C1043 1.433 . S
C1045 N1048 1.384 . S
C1046 H1037 0.929 . S
C1046 C1038 1.378 . S
C1046 C1041 1.350 . S
C1047 H1034 0.929 . S
C1047 C1039 1.433 . S
C1047 N1049 1.384 . S
N1048 C1044 1.427 . S
N1048 C1045 1.384 . S
N1049 C1041 1.427 . S
N1049 C1047 1.384 . S
H1050 C1056 0.930 . S
H1051 C1060 0.930 . S
H1052 C1065 0.929 . S
H1053 C1063 0.929 . S
H1054 C1058 0.929 . S
H1055 C1064 0.929 . S
C1056 H1050 0.930 . S
C1056 C1057 1.367 . S
C1056 C1064 1.378 . S
C1057 C1056 1.367 . S
C1057 C1065 1.433 . S
C1058 H1054 0.929 . S
C1058 C1060 1.378 . S
C1058 C1062 1.350 . S
C1059 C1062 1.463 . S
C1059 C1064 1.350 . S
C1059 N1067 1.427 . S
C1060 H1051 0.930 . S
C1060 C1058 1.378 . S
C1060 C1061 1.367 . S
C1061 C1060 1.367 . S
C1061 C1063 1.433 . S
C1062 C1058 1.350 . S
C1062 C1059 1.463 . S
C1062 N1066 1.427 . S
C1063 H1053 0.929 . S
C1063 C1061 1.433 . S
C1063 N1066 1.384 . S
C1064 H1055 0.929 . S
C1064 C1056 1.378 . S
C1064 C1059 1.350 . S
C1065 H1052 0.929 . S
C1065 C1057 1.433 . S
C1065 N1067 1.384 . S
N1066 C1062 1.427 . S
N1066 C1063 1.384 . S
N1067 C1059 1.427 . S
N1067 C1065 1.384 . S
H1068 C1074 0.930 . S
H1069 C1078 0.930 . S
H1070 C1083 0.929 . S
H1071 C1081 0.929 . S
H1072 C1076 0.929 . S
H1073 C1082 0.929 . S
C1074 H1068 0.930 . S
C1074 C1075 1.367 . S
C1074 C1082 1.378 . S
C1075 C1074 1.367 . S
C1075 C1083 1.433 . S
C1076 H1072 0.929 . S
C1076 C1078 1.378 . S
C1076 C1080 1.350 . S
C1077 C1080 1.463 . S
C1077 C1082 1.350 . S
C1077 N1085 1.427 . S
C1078 H1069 0.930 . S
C1078 C1076 1.378 . S
C1078 C1079 1.367 . S
C1079 C1078 1.367 . S
C1079 C1081 1.433 . S
C1080 C1076 1.350 . S
C1080 C1077 1.463 . S
C1080 N1084 1.427 . S
C1081 H1071 0.929 . S
C1081 C1079 1.433 . S
C1081 N1084 1.384 . S
C1082 H1073 0.929 . S
C1082 C1074 1.378 . S
C1082 C1077 1.350 . S
C1083 H1070 0.929 . S
C1083 C1075 1.433 . S
C1083 N1085 1.384 . S
N1084 C1080 1.427 . S
N1084 C1081 1.384 . S
N1085 C1077 1.427 . S
N1085 C1083 1.384 . S
H1086 C1092 0.930 . S
H1087 C1096 0.930 . S
H1088 C1101 0.929 . S
H1089 C1099 0.929 . S
H1090 C1094 0.929 . S
H1091 C1100 0.929 . S
C1092 H1086 0.930 . S
C1092 C1093 1.367 . S
C1092 C1100 1.378 . S
C1093 C1092 1.367 . S
C1093 C1101 1.433 . S
C1094 H1090 0.929 . S
C1094 C1096 1.378 . S
C1094 C1098 1.350 . S
C1095 C1098 1.463 . S
C1095 C1100 1.350 . S
C1095 N1103 1.427 . S
C1096 H1087 0.930 . S
C1096 C1094 1.378 . S
C1096 C1097 1.367 . S
C1097 C1096 1.367 . S
C1097 C1099 1.433 . S
C1098 C1094 1.350 . S
C1098 C1095 1.463 . S
C1098 N1102 1.427 . S
C1099 H1089 0.929 . S
C1099 C1097 1.433 . S
C1099 N1102 1.384 . S
C1100 H1091 0.929 . S
C1100 C1092 1.378 . S
C1100 C1095 1.350 . S
C1101 H1088 0.929 . S
C1101 C1093 1.433 . S
C1101 N1103 1.384 . S
N1102 C1098 1.427 . S
N1102 C1099 1.384 . S
N1103 C1095 1.427 . S
N1103 C1101 1.384 . S
H1104 C1110 0.930 . S
H1105 C1114 0.930 . S
H1106 C1119 0.929 . S
H1107 C1117 0.929 . S
H1108 C1112 0.929 . S
H1109 C1118 0.929 . S
C1110 H1104 0.930 . S
C1110 C1111 1.367 . S
C1110 C1118 1.378 . S
C1111 C1110 1.367 . S
C1111 C1119 1.433 . S
C1112 H1108 0.929 . S
C1112 C1114 1.378 . S
C1112 C1116 1.350 . S
C1113 C1116 1.463 . S
C1113 C1118 1.350 . S
C1113 N1121 1.427 . S
C1114 H1105 0.930 . S
C1114 C1112 1.378 . S
C1114 C1115 1.367 . S
C1115 C1114 1.367 . S
C1115 C1117 1.433 . S
C1116 C1112 1.350 . S
C1116 C1113 1.463 . S
C1116 N1120 1.427 . S
C1117 H1107 0.929 . S
C1117 C1115 1.433 . S
C1117 N1120 1.384 . S
C1118 H1109 0.929 . S
C1118 C1110 1.378 . S
C1118 C1113 1.350 . S
C1119 H1106 0.929 . S
C1119 C1111 1.433 . S
C1119 N1121 1.384 . S
N1120 C1116 1.427 . S
N1120 C1117 1.384 . S
N1121 C1113 1.427 . S
N1121 C1119 1.384 . S
H1122 C1128 0.930 . S
H1123 C1132 0.930 . S
H1124 C1137 0.929 . S
H1125 C1135 0.929 . S
H1126 C1130 0.929 . S
H1127 C1136 0.929 . S
C1128 H1122 0.930 . S
C1128 C1129 1.367 . S
C1128 C1136 1.378 . S
C1129 C1128 1.367 . S
C1129 C1137 1.433 . S
C1130 H1126 0.929 . S
C1130 C1132 1.378 . S
C1130 C1134 1.350 . S
C1131 C1134 1.463 . S
C1131 C1136 1.350 . S
C1131 N1139 1.427 . S
C1132 H1123 0.930 . S
C1132 C1130 1.378 . S
C1132 C1133 1.367 . S
C1133 C1132 1.367 . S
C1133 C1135 1.433 . S
C1134 C1130 1.350 . S
C1134 C1131 1.463 . S
C1134 N1138 1.427 . S
C1135 H1125 0.929 . S
C1135 C1133 1.433 . S
C1135 N1138 1.384 . S
C1136 H1127 0.929 . S
C1136 C1128 1.378 . S
C1136 C1131 1.350 . S
C1137 H1124 0.929 . S
C1137 C1129 1.433 . S
C1137 N1139 1.384 . S
N1138 C1134 1.427 . S
N1138 C1135 1.384 . S
N1139 C1131 1.427 . S
N1139 C1137 1.384 . S
H1140 C1146 0.930 . S
H1141 C1150 0.930 . S
H1142 C1155 0.929 . S
H1143 C1153 0.929 . S
H1144 C1148 0.929 . S
H1145 C1154 0.929 . S
C1146 H1140 0.930 . S
C1146 C1147 1.367 . S
C1146 C1154 1.378 . S
C1147 C1146 1.367 . S
C1147 C1155 1.433 . S
C1148 H1144 0.929 . S
C1148 C1150 1.378 . S
C1148 C1152 1.350 . S
C1149 C1152 1.463 . S
C1149 C1154 1.350 . S
C1149 N1157 1.427 . S
C1150 H1141 0.930 . S
C1150 C1148 1.378 . S
C1150 C1151 1.367 . S
C1151 C1150 1.367 . S
C1151 C1153 1.433 . S
C1152 C1148 1.350 . S
C1152 C1149 1.463 . S
C1152 N1156 1.427 . S
C1153 H1143 0.929 . S
C1153 C1151 1.433 . S
C1153 N1156 1.384 . S
C1154 H1145 0.929 . S
C1154 C1146 1.378 . S
C1154 C1149 1.350 . S
C1155 H1142 0.929 . S
C1155 C1147 1.433 . S
C1155 N1157 1.384 . S
N1156 C1152 1.427 . S
N1156 C1153 1.384 . S
N1157 C1149 1.427 . S
N1157 C1155 1.384 . S
H1158 C1164 0.930 . S
H1159 C1168 0.930 . S
H1160 C1173 0.929 . S
H1161 C1171 0.929 . S
H1162 C1166 0.929 . S
H1163 C1172 0.929 . S
C1164 H1158 0.930 . S
C1164 C1165 1.367 . S
C1164 C1172 1.378 . S
C1165 C1164 1.367 . S
C1165 C1173 1.433 . S
C1166 H1162 0.929 . S
C1166 C1168 1.378 . S
C1166 C1170 1.350 . S
C1167 C1170 1.463 . S
C1167 C1172 1.350 . S
C1167 N1175 1.427 . S
C1168 H1159 0.930 . S
C1168 C1166 1.378 . S
C1168 C1169 1.367 . S
C1169 C1168 1.367 . S
C1169 C1171 1.433 . S
C1170 C1166 1.350 . S
C1170 C1167 1.463 . S
C1170 N1174 1.427 . S
C1171 H1161 0.929 . S
C1171 C1169 1.433 . S
C1171 N1174 1.384 . S
C1172 H1163 0.929 . S
C1172 C1164 1.378 . S
C1172 C1167 1.350 . S
C1173 H1160 0.929 . S
C1173 C1165 1.433 . S
C1173 N1175 1.384 . S
N1174 C1170 1.427 . S
N1174 C1171 1.384 . S
N1175 C1167 1.427 . S
N1175 C1173 1.384 . S
H1176 C1182 0.930 . S
H1177 C1186 0.930 . S
H1178 C1191 0.929 . S
H1179 C1189 0.929 . S
H1180 C1184 0.929 . S
H1181 C1190 0.929 . S
C1182 H1176 0.930 . S
C1182 C1183 1.367 . S
C1182 C1190 1.378 . S
C1183 C1182 1.367 . S
C1183 C1191 1.433 . S
C1184 H1180 0.929 . S
C1184 C1186 1.378 . S
C1184 C1188 1.350 . S
C1185 C1188 1.463 . S
C1185 C1190 1.350 . S
C1185 N1193 1.427 . S
C1186 H1177 0.930 . S
C1186 C1184 1.378 . S
C1186 C1187 1.367 . S
C1187 C1186 1.367 . S
C1187 C1189 1.433 . S
C1188 C1184 1.350 . S
C1188 C1185 1.463 . S
C1188 N1192 1.427 . S
C1189 H1179 0.929 . S
C1189 C1187 1.433 . S
C1189 N1192 1.384 . S
C1190 H1181 0.929 . S
C1190 C1182 1.378 . S
C1190 C1185 1.350 . S
C1191 H1178 0.929 . S
C1191 C1183 1.433 . S
C1191 N1193 1.384 . S
N1192 C1188 1.427 . S
N1192 C1189 1.384 . S
N1193 C1185 1.427 . S
N1193 C1191 1.384 . S
H1194 C1200 0.930 . S
H1195 C1204 0.930 . S
H1196 C1209 0.929 . S
H1197 C1207 0.929 . S
H1198 C1202 0.929 . S
H1199 C1208 0.929 . S
C1200 H1194 0.930 . S
C1200 C1201 1.367 . S
C1200 C1208 1.378 . S
C1201 C1200 1.367 . S
C1201 C1209 1.433 . S
C1202 H1198 0.929 . S
C1202 C1204 1.378 . S
C1202 C1206 1.350 . S
C1203 C1206 1.463 . S
C1203 C1208 1.350 . S
C1203 N1211 1.427 . S
C1204 H1195 0.930 . S
C1204 C1202 1.378 . S
C1204 C1205 1.367 . S
C1205 C1204 1.367 . S
C1205 C1207 1.433 . S
C1206 C1202 1.350 . S
C1206 C1203 1.463 . S
C1206 N1210 1.427 . S
C1207 H1197 0.929 . S
C1207 C1205 1.433 . S
C1207 N1210 1.384 . S
C1208 H1199 0.929 . S
C1208 C1200 1.378 . S
C1208 C1203 1.350 . S
C1209 H1196 0.929 . S
C1209 C1201 1.433 . S
C1209 N1211 1.384 . S
N1210 C1206 1.427 . S
N1210 C1207 1.384 . S
N1211 C1203 1.427 . S
N1211 C1209 1.384 . S
H1212 C1218 0.930 . S
H1213 C1222 0.930 . S
H1214 C1227 0.929 . S
H1215 C1225 0.929 . S
H1216 C1220 0.929 . S
H1217 C1226 0.929 . S
C1218 H1212 0.930 . S
C1218 C1219 1.367 . S
C1218 C1226 1.378 . S
C1219 C1218 1.367 . S
C1219 C1227 1.433 . S
C1220 H1216 0.929 . S
C1220 C1222 1.378 . S
C1220 C1224 1.350 . S
C1221 C1224 1.463 . S
C1221 C1226 1.350 . S
C1221 N1229 1.427 . S
C1222 H1213 0.930 . S
C1222 C1220 1.378 . S
C1222 C1223 1.367 . S
C1223 C1222 1.367 . S
C1223 C1225 1.433 . S
C1224 C1220 1.350 . S
C1224 C1221 1.463 . S
C1224 N1228 1.427 . S
C1225 H1215 0.929 . S
C1225 C1223 1.433 . S
C1225 N1228 1.384 . S
C1226 H1217 0.929 . S
C1226 C1218 1.378 . S
C1226 C1221 1.350 . S
C1227 H1214 0.929 . S
C1227 C1219 1.433 . S
C1227 N1229 1.384 . S
N1228 C1224 1.427 . S
N1228 C1225 1.384 . S
N1229 C1221 1.427 . S
N1229 C1227 1.384 . S
H1230 C1236 0.930 . S
H1231 C1240 0.930 . S
H1232 C1245 0.929 . S
H1233 C1243 0.929 . S
H1234 C1238 0.929 . S
H1235 C1244 0.929 . S
C1236 H1230 0.930 . S
C1236 C1237 1.367 . S
C1236 C1244 1.378 . S
C1237 C1236 1.367 . S
C1237 C1245 1.433 . S
C1238 H1234 0.929 . S
C1238 C1240 1.378 . S
C1238 C1242 1.350 . S
C1239 C1242 1.463 . S
C1239 C1244 1.350 . S
C1239 N1247 1.427 . S
C1240 H1231 0.930 . S
C1240 C1238 1.378 . S
C1240 C1241 1.367 . S
C1241 C1240 1.367 . S
C1241 C1243 1.433 . S
C1242 C1238 1.350 . S
C1242 C1239 1.463 . S
C1242 N1246 1.427 . S
C1243 H1233 0.929 . S
C1243 C1241 1.433 . S
C1243 N1246 1.384 . S
C1244 H1235 0.929 . S
C1244 C1236 1.378 . S
C1244 C1239 1.350 . S
C1245 H1232 0.929 . S
C1245 C1237 1.433 . S
C1245 N1247 1.384 . S
N1246 C1242 1.427 . S
N1246 C1243 1.384 . S
N1247 C1239 1.427 . S
N1247 C1245 1.384 . S
C535 N14 1.647 . S
C539 N476 1.647 . S
C553 N71 1.603 . S
C557 N5 1.603 . S
C571 N47 1.656 . S
C575 N377 1.656 . S
C589 N236 1.601 . S
C593 N38 1.601 . S
C607 N80 1.655 . S
C611 N410 1.655 . S
C625 N113 1.645 . S
C629 N311 1.645 . S
C643 N104 1.603 . S
C647 N170 1.603 . S
C661 N344 1.656 . S
C665 N146 1.656 . S
C679 N203 1.599 . S
C683 N137 1.599 . S
C697 N179 1.653 . S
C701 N509 1.653 . S
C715 N278 1.656 . S
C719 N212 1.656 . S
C733 N443 1.655 . S
C737 N245 1.655 . S
C751 N269 1.601 . S
C755 N335 1.601 . S
C769 N500 1.604 . S
C773 N302 1.604 . S
C787 N368 1.601 . S
C791 N434 1.601 . S
C805 N401 1.604 . S
C809 N467 1.604 . S
C823 C8 1.236 . S
C827 C314 1.238 . S
C841 C305 1.230 . S
C845 C17 1.233 . S
C859 C41 1.234 . S
C863 C281 1.238 . S
C877 C50 1.231 . S
C881 C272 1.239 . S
C895 C380 1.237 . S
C899 C74 1.237 . S
C913 C371 1.232 . S
C917 C83 1.237 . S
C931 C107 1.239 . S
C935 C347 1.232 . S
C949 C116 1.228 . S
C953 C338 1.234 . S
C967 C140 1.238 . S
C971 C446 1.236 . S
C985 C437 1.239 . S
C989 C149 1.234 . S
C1003 C173 1.234 . S
C1007 C413 1.238 . S
C1021 C404 1.235 . S
C1025 C182 1.228 . S
C1039 C512 1.228 . S
C1043 C206 1.234 . S
C1057 C215 1.229 . S
C1061 C503 1.232 . S
C1075 C239 1.236 . S
C1079 C479 1.237 . S
C1093 C248 1.228 . S
C1097 C470 1.235 . S
C1111 C61 0.977 . S
C1115 C28 0.976 . S
C1129 C94 0.977 . S
C1133 C127 0.977 . S
C1147 C160 0.978 . S
C1151 C193 0.976 . S
C1165 C226 0.978 . S
C1169 C259 0.976 . S
C1183 C325 0.976 . S
C1187 C292 0.977 . S
C1201 C391 0.976 . S
C1205 C358 0.977 . S
C1219 C424 0.978 . S
C1223 C457 0.976 . S
C1237 C523 0.976 . S
C1241 C490 0.978 . S
