# Generated by pormake.
# Topology vby, (6)-cn, num edge types: 1
# Building blocks:
#     Node 0, Type 0, BuildingBlock: MIDCAF_clean_sbu_0, # of connection points: 6
#     Node 1, Type 0, BuildingBlock: MIDCAF_clean_sbu_0, # of connection points: 6
#     Node 2, Type 0, BuildingBlock: MIDCAF_clean_sbu_0, # of connection points: 6
#     Node 3, Type 0, BuildingBlock: MIDCAF_clean_sbu_0, # of connection points: 6
#     Node 4, Type 0, BuildingBlock: MIDCAF_clean_sbu_0, # of connection points: 6
#     Node 5, Type 0, BuildingBlock: MIDCAF_clean_sbu_0, # of connection points: 6
#     Node 6, Type 0, BuildingBlock: MIDCAF_clean_sbu_0, # of connection points: 6
#     Node 7, Type 0, BuildingBlock: MIDCAF_clean_sbu_0, # of connection points: 6
#     Edge 8, Type (0, 0), BuildingBlock: ZUJKAS_clean_linker_0, # of connection points: 2
#     Edge 9, Type (0, 0), BuildingBlock: ZUJKAS_clean_linker_0, # of connection points: 2
#     Edge 10, Type (0, 0), BuildingBlock: ZUJKAS_clean_linker_0, # of connection points: 2
#     Edge 11, Type (0, 0), BuildingBlock: ZUJKAS_clean_linker_0, # of connection points: 2
#     Edge 12, Type (0, 0), BuildingBlock: ZUJKAS_clean_linker_0, # of connection points: 2
#     Edge 13, Type (0, 0), BuildingBlock: ZUJKAS_clean_linker_0, # of connection points: 2
#     Edge 14, Type (0, 0), BuildingBlock: ZUJKAS_clean_linker_0, # of connection points: 2
#     Edge 15, Type (0, 0), BuildingBlock: ZUJKAS_clean_linker_0, # of connection points: 2
#     Edge 16, Type (0, 0), BuildingBlock: ZUJKAS_clean_linker_0, # of connection points: 2
#     Edge 17, Type (0, 0), BuildingBlock: ZUJKAS_clean_linker_0, # of connection points: 2
#     Edge 18, Type (0, 0), BuildingBlock: ZUJKAS_clean_linker_0, # of connection points: 2
#     Edge 19, Type (0, 0), BuildingBlock: ZUJKAS_clean_linker_0, # of connection points: 2
#     Edge 20, Type (0, 0), BuildingBlock: ZUJKAS_clean_linker_0, # of connection points: 2
#     Edge 21, Type (0, 0), BuildingBlock: ZUJKAS_clean_linker_0, # of connection points: 2
#     Edge 22, Type (0, 0), BuildingBlock: ZUJKAS_clean_linker_0, # of connection points: 2
#     Edge 23, Type (0, 0), BuildingBlock: ZUJKAS_clean_linker_0, # of connection points: 2
#     Edge 24, Type (0, 0), BuildingBlock: ZUJKAS_clean_linker_0, # of connection points: 2
#     Edge 25, Type (0, 0), BuildingBlock: ZUJKAS_clean_linker_0, # of connection points: 2
#     Edge 26, Type (0, 0), BuildingBlock: ZUJKAS_clean_linker_0, # of connection points: 2
#     Edge 27, Type (0, 0), BuildingBlock: ZUJKAS_clean_linker_0, # of connection points: 2
#     Edge 28, Type (0, 0), BuildingBlock: ZUJKAS_clean_linker_0, # of connection points: 2
#     Edge 29, Type (0, 0), BuildingBlock: ZUJKAS_clean_linker_0, # of connection points: 2
#     Edge 30, Type (0, 0), BuildingBlock: ZUJKAS_clean_linker_0, # of connection points: 2
#     Edge 31, Type (0, 0), BuildingBlock: ZUJKAS_clean_linker_0, # of connection points: 2
# Relax obj value: 0.139
# Max RMSD: 0.180
# Mean RMSD: 0.180
data_MOF--net-vby--node1-MIDCAF_clean_sbu_0--edge1-ZUJKAS_clean_linker_0
_symmetry_space_group_name_H-M    P1
_symmetry_Int_Tables_number       1
_symmetry_cell_setting            triclinic
loop_
_symmetry_equiv_pos_as_xyz
'x, y, z'
_cell_length_a     19.424907
_cell_length_b     75.4913
_cell_length_c     38.969859
_cell_angle_alpha  90.099306
_cell_angle_beta   90.062723
_cell_angle_gamma 89.978239
loop_
_atom_site_label
_atom_site_type_symbol
_atom_site_fract_x
_atom_site_fract_y
_atom_site_fract_z
_atom_type_partial_charge
Zn0 Zn 0.02412 0.37292 0.00892 0.0
Zn1 Zn 0.17919 0.41536 0.98163 0.0
Zn2 Zn 0.10549 0.39354 1.00524 0.0
C3 C 0.09573 0.43326 0.02999 0.0
C4 C 0.10908 0.39941 0.92627 0.0
O5 O 0.15189 0.36787 0.02104 0.0
O6 O 0.07853 0.35351 0.98817 0.0
C7 C 0.02994 0.38938 0.0735 0.0
O8 O 0.06901 0.41767 0.03292 0.0
O9 O 0.14436 0.43585 0.00909 0.0
O10 O 0.15069 0.41189 0.93259 0.0
O11 O 0.08459 0.39036 0.95107 0.0
O12 O 0.02299 0.37369 0.06246 0.0
O13 O 0.0464 0.40147 0.05151 0.0
O14 O 0.00628 0.40645 0.01906 0.0
O15 O 0.95459 0.3882 0.98365 0.0
C16 C 0.95245 0.40225 1.00142 0.0
O17 O 0.20245 0.38409 0.02634 0.0
O18 O 0.26507 0.40392 0.99885 0.0
C19 C 0.13299 0.35346 1.00599 0.0
C20 C 0.26109 0.39088 0.01905 0.0
Zn21 Zn 0.96891 0.62722 0.92984 0.0
Zn22 Zn 0.08778 0.67334 0.00981 0.0
Zn23 Zn 0.02789 0.64989 0.97015 0.0
C24 C 0.16953 0.67057 0.9519 0.0
C25 C 0.0885 0.64143 0.0459 0.0
O26 O 0.92343 0.66015 0.95832 0.0
O27 O 0.88547 0.64131 0.91906 0.0
C28 C 0.08291 0.63817 0.89416 0.0
O29 O 0.12488 0.65841 0.94516 0.0
O30 O 0.16284 0.68021 0.97816 0.0
O31 O 0.1106 0.6571 0.04796 0.0
O32 O 0.05488 0.63621 0.01915 0.0
O33 O 0.03898 0.62587 0.89319 0.0
O34 O 0.08607 0.64844 0.92064 0.0
O35 O 0.02074 0.62392 0.99794 0.0
O36 O 0.95942 0.60736 0.96242 0.0
C37 C 0.98997 0.60919 0.9908 0.0
O38 O 0.95664 0.67276 0.9789 0.0
O39 O 0.01063 0.68991 0.01634 0.0
C40 C 0.87691 0.65514 0.93676 0.0
C41 C 0.95861 0.68676 0.99792 0.0
Zn42 Zn 0.13009 0.59806 0.5035 0.0
Zn43 Zn 0.01203 0.64723 0.43034 0.0
Zn44 Zn 0.07339 0.62303 0.46696 0.0
C45 C 0.91895 0.61984 0.4354 0.0
C46 C 0.1245 0.63622 0.39185 0.0
O47 O 0.17003 0.61523 0.44098 0.0
O48 O 0.20769 0.59276 0.47221 0.0
C49 C 0.13003 0.62839 0.54486 0.0
O50 O 0.96797 0.61366 0.45423 0.0
O51 O 0.92533 0.63457 0.42055 0.0
O52 O 0.07883 0.64812 0.39213 0.0
O53 O 0.131 0.62579 0.41784 0.0
O54 O 0.15022 0.61249 0.54463 0.0
O55 O 0.09906 0.63485 0.51833 0.0
O56 O 0.00262 0.59968 0.4705 0.0
O57 O 0.05442 0.58071 0.50509 0.0
C58 C 0.00411 0.58459 0.48604 0.0
O59 O 0.07097 0.64829 0.49732 0.0
O60 O 0.01049 0.66649 0.46453 0.0
C61 C 0.21477 0.60299 0.4469 0.0
C62 C 0.04303 0.66357 0.49196 0.0
Zn63 Zn 0.96686 0.34989 0.462 0.0
Zn64 Zn 0.85475 0.39507 0.54273 0.0
Zn65 Zn 0.91164 0.37235 0.50248 0.0
C66 C 0.86469 0.41222 0.48081 0.0
C67 C 0.97574 0.3865 0.57483 0.0
O68 O 0.84499 0.34827 0.49872 0.0
O69 O 0.89274 0.33233 0.45754 0.0
C70 C 0.96101 0.38059 0.42418 0.0
O71 O 0.89724 0.39777 0.47368 0.0
O72 O 0.83683 0.41426 0.50974 0.0
O73 O 0.92919 0.39812 0.57673 0.0
O74 O 0.97698 0.37565 0.54922 0.0
O75 O 0.9865 0.36525 0.42261 0.0
O76 O 0.92889 0.38562 0.45153 0.0
O77 O 0.01208 0.3647 0.5254 0.0
O78 O 0.04582 0.3431 0.49102 0.0
C79 C 0.05587 0.35256 0.51725 0.0
O80 O 0.81017 0.36142 0.51803 0.0
O81 O 0.77512 0.38067 0.55706 0.0
C82 C 0.8459 0.3343 0.47958 0.0
C83 C 0.76559 0.36652 0.54048 0.0
Zn84 Zn 0.48338 0.85969 0.06725 0.0
Zn85 Zn 0.56989 0.90964 0.98449 0.0
Zn86 Zn 0.5262 0.88453 0.02481 0.0
C87 C 0.52728 0.92679 0.04335 0.0
C88 C 0.46771 0.89249 0.94804 0.0
O89 O 0.60498 0.86298 0.0274 0.0
O90 O 0.55933 0.84278 0.06156 0.0
C91 C 0.48971 0.89054 0.1057 0.0
O92 O 0.51913 0.91056 0.05295 0.0
O93 O 0.54847 0.93018 0.0135 0.0
O94 O 0.50931 0.9052 0.94507 0.0
O95 O 0.46454 0.88371 0.97639 0.0
O96 O 0.48116 0.8741 0.10952 0.0
O97 O 0.50385 0.89699 0.07587 0.0
O98 O 0.43081 0.87406 1.00247 0.0
O99 O 0.39629 0.855 0.04192 0.0
C100 C 0.38623 0.86287 0.01376 0.0
O101 O 0.63294 0.87786 0.01097 0.0
O102 O 0.66572 0.9009 0.98 0.0
C103 C 0.60732 0.84765 0.04197 0.0
C104 C 0.67914 0.8861 0.99349 0.0
Zn105 Zn 0.38628 0.11431 0.98664 0.0
Zn106 Zn 0.48789 0.1607 0.07164 0.0
Zn107 Zn 0.43862 0.1384 0.02613 0.0
C108 C 0.58119 0.15832 0.01579 0.0
C109 C 0.47699 0.12947 0.10659 0.0
O110 O 0.33484 0.14788 0.01262 0.0
O111 O 0.2961 0.12601 0.98006 0.0
C112 C 0.49646 0.12815 0.95051 0.0
O113 O 0.53572 0.14756 1.00379 0.0
O114 O 0.57263 0.16556 0.04473 0.0
O115 O 0.49241 0.1454 0.11247 0.0
O116 O 0.45788 0.12457 0.07626 0.0
O117 O 0.45127 0.11622 0.94844 0.0
O118 O 0.50118 0.13777 0.97783 0.0
O119 O 0.43621 0.11185 0.05292 0.0
O120 O 0.39377 0.09297 0.01495 0.0
C121 C 0.41883 0.09593 0.04424 0.0
O122 O 0.36742 0.16177 0.03087 0.0
O123 O 0.41554 0.17878 0.07048 0.0
C124 C 0.28709 0.14094 0.994 0.0
C125 C 0.36819 0.17614 0.04893 0.0
Zn126 Zn 0.62658 0.0955 0.55018 0.0
Zn127 Zn 0.5 0.1443 0.48238 0.0
Zn128 Zn 0.56264 0.12113 0.51938 0.0
C129 C 0.42468 0.1414 0.543 0.0
C130 C 0.49875 0.11474 0.44208 0.0
O131 O 0.67076 0.12988 0.52719 0.0
O132 O 0.72047 0.10495 0.54387 0.0
C133 C 0.53422 0.11098 0.59764 0.0
O134 O 0.47087 0.12957 0.54928 0.0
O135 O 0.42717 0.15029 0.51565 0.0
O136 O 0.47459 0.13025 0.44175 0.0
O137 O 0.53217 0.10917 0.46867 0.0
O138 O 0.58159 0.09956 0.59537 0.0
O139 O 0.51556 0.11979 0.57089 0.0
O140 O 0.5518 0.09532 0.49043 0.0
O141 O 0.60053 0.07478 0.52273 0.0
C142 C 0.56722 0.07891 0.49614 0.0
O143 O 0.63374 0.14407 0.51206 0.0
O144 O 0.57489 0.16148 0.4771 0.0
C145 C 0.72505 0.12104 0.53549 0.0
C146 C 0.62829 0.15849 0.49456 0.0
Zn147 Zn 0.40013 0.84875 0.48332 0.0
Zn148 Zn 0.27698 0.89811 0.55607 0.0
Zn149 Zn 0.33938 0.873 0.52114 0.0
C150 C 0.31402 0.91409 0.4958 0.0
C151 C 0.38695 0.88646 0.59646 0.0
O152 O 0.26877 0.84966 0.516 0.0
O153 O 0.32467 0.83129 0.48168 0.0
C154 C 0.39683 0.87916 0.44319 0.0
O155 O 0.33972 0.89845 0.49147 0.0
O156 O 0.27932 0.91756 0.52231 0.0
O157 O 0.34203 0.89854 0.59527 0.0
O158 O 0.39434 0.87577 0.57088 0.0
O159 O 0.41919 0.86346 0.4423 0.0
O160 O 0.36567 0.88494 0.47025 0.0
O161 O 0.43478 0.86524 0.54826 0.0
O162 O 0.47702 0.84389 0.51544 0.0
C163 C 0.48124 0.8535 0.54189 0.0
O164 O 0.23402 0.86355 0.53277 0.0
O165 O 0.18959 0.88532 0.56388 0.0
C166 C 0.27266 0.83473 0.49989 0.0
C167 C 0.18405 0.87022 0.55027 0.0
H168 H 0.35901 0.36992 0.99139 0.0
H169 H 0.48145 0.37207 1.00546 0.0
H170 H 0.43228 0.40357 0.09454 0.0
H171 H 0.30953 0.40121 0.0806 0.0
H172 H 0.51127 0.42099 0.043 0.0
H173 H 0.62647 0.35621 0.07731 0.0
H174 H 0.56848 0.35515 0.04142 0.0
H175 H 0.536 0.36104 0.08309 0.0
C176 C 0.37418 0.37629 0.01517 0.0
C177 C 0.32517 0.3851 0.03533 0.0
C178 C 0.44417 0.37764 0.02309 0.0
C179 C 0.46594 0.38798 0.05107 0.0
C180 C 0.41649 0.39541 0.07303 0.0
H181 H 0.90727 0.41433 0.06358 0.0
H182 H 0.78668 0.41429 0.08221 0.0
C183 C 0.34641 0.39388 0.0653 0.0
C184 C 0.53868 0.39379 0.05297 0.0
H185 H 0.70324 0.37802 0.05333 0.0
C186 C 0.55337 0.41169 0.04619 0.0
C187 C 0.59339 0.38165 0.057 0.0
C188 C 0.58048 0.36246 0.06542 0.0
C189 C 0.62124 0.41748 0.04103 0.0
C190 C 0.6754 0.40511 0.04298 0.0
C191 C 0.66125 0.38747 0.05189 0.0
C192 C 0.7457 0.40951 0.03143 0.0
C193 C 0.63475 0.43654 0.03176 0.0
C194 C 0.76182 0.40772 0.99656 0.0
C195 C 0.83037 0.40755 0.98594 0.0
C196 C 0.88378 0.40928 0.01004 0.0
C197 C 0.8672 0.41304 0.04443 0.0
C198 C 0.79841 0.4129 0.05517 0.0
H199 H 0.58862 0.44501 0.03567 0.0
H200 H 0.67796 0.44184 0.04738 0.0
H201 H 0.65021 0.43731 1.00438 0.0
H202 H 0.72162 0.4051 0.97793 0.0
H203 H 0.84177 0.40458 0.95933 0.0
H204 H 0.23455 0.70051 0.93115 0.0
H205 H 0.35567 0.70303 0.91475 0.0
H206 H 0.37464 0.64605 0.91863 0.0
H207 H 0.25253 0.64359 0.9322 0.0
H208 H 0.45381 0.69644 0.9533 0.0
H209 H 0.4965 0.65386 0.84092 0.0
H210 H 0.41095 0.65988 0.85453 0.0
H211 H 0.45416 0.64095 0.87302 0.0
C212 C 0.26408 0.68853 0.92681 0.0
C213 C 0.23442 0.67186 0.93262 0.0
C214 C 0.33347 0.68996 0.91781 0.0
C215 C 0.37497 0.67475 0.91535 0.0
C216 C 0.34397 0.65801 0.91926 0.0
H217 H 0.78787 0.66415 0.98761 0.0
H218 H 0.66697 0.67234 0.98019 0.0
C219 C 0.27396 0.65658 0.92715 0.0
C220 C 0.45141 0.67644 0.91359 0.0
H221 H 0.5946 0.65709 0.87965 0.0
C222 C 0.48445 0.6881 0.93655 0.0
C223 C 0.49223 0.66595 0.8914 0.0
C224 C 0.46136 0.65464 0.86335 0.0
C225 C 0.55651 0.68887 0.93913 0.0
C226 C 0.59695 0.67699 0.91953 0.0
C227 C 0.56409 0.66602 0.89529 0.0
C228 C 0.6726 0.67491 0.92479 0.0
C229 C 0.58812 0.70251 0.9627 0.0
C230 C 0.71676 0.67362 0.89635 0.0
C231 C 0.78508 0.66829 0.90058 0.0
C232 C 0.81116 0.66463 0.93339 0.0
C233 C 0.76899 0.6672 0.96212 0.0
C234 C 0.69989 0.672 0.95783 0.0
H235 H 0.55533 0.71455 0.96426 0.0
H236 H 0.59199 0.69697 0.98899 0.0
H237 H 0.64025 0.7065 0.95399 0.0
H238 H 0.69747 0.67586 0.87063 0.0
H239 H 0.81683 0.66629 0.87805 0.0
H240 H 0.8282 0.6105 0.48502 0.0
H241 H 0.70816 0.60184 0.47608 0.0
H242 H 0.74383 0.59884 0.36682 0.0
H243 H 0.86232 0.60883 0.37581 0.0
H244 H 0.63951 0.61744 0.37557 0.0
H245 H 0.6002 0.55914 0.45751 0.0
H246 H 0.63483 0.57661 0.48335 0.0
H247 H 0.68514 0.56756 0.44853 0.0
C248 C 0.81061 0.60746 0.45928 0.0
C249 C 0.85385 0.61025 0.43108 0.0
C250 C 0.7421 0.60239 0.45411 0.0
C251 C 0.71659 0.59947 0.42072 0.0
C252 C 0.76186 0.60105 0.39279 0.0
H253 H 0.27943 0.57341 0.42399 0.0
H254 H 0.4004 0.57109 0.40724 0.0
C255 C 0.8296 0.60664 0.3979 0.0
C256 C 0.64141 0.59718 0.41464 0.0
H257 H 0.49815 0.5772 0.44681 0.0
C258 C 0.60888 0.60831 0.39064 0.0
C259 C 0.60093 0.58505 0.43349 0.0
C260 C 0.63241 0.5713 0.45681 0.0
C261 C 0.53711 0.60836 0.38645 0.0
C262 C 0.49617 0.59762 0.40802 0.0
C263 C 0.52895 0.58573 0.43056 0.0
C264 C 0.41983 0.59933 0.40976 0.0
C265 C 0.50642 0.61997 0.3589 0.0
C266 C 0.38903 0.61602 0.41485 0.0
C267 C 0.31914 0.61737 0.42304 0.0
C268 C 0.27963 0.60202 0.42756 0.0
C269 C 0.30903 0.58543 0.42047 0.0
C270 C 0.37829 0.58411 0.41122 0.0
H271 H 0.54179 0.62102 0.33661 0.0
H272 H 0.45613 0.61482 0.34971 0.0
H273 H 0.49898 0.63354 0.36923 0.0
H274 H 0.41982 0.62796 0.41495 0.0
H275 H 0.29783 0.63027 0.42903 0.0
H276 H 0.68765 0.36575 0.59807 0.0
H277 H 0.56669 0.35751 0.60209 0.0
H278 H 0.5716 0.33857 0.49763 0.0
H279 H 0.6929 0.3472 0.4932 0.0
H280 H 0.47704 0.3649 0.50845 0.0
H281 H 0.44714 0.31341 0.60837 0.0
H282 H 0.49882 0.33179 0.62221 0.0
H283 H 0.52848 0.31791 0.58769 0.0
C284 C 0.66357 0.35931 0.57628 0.0
C285 C 0.69956 0.35718 0.54525 0.0
C286 C 0.59449 0.35447 0.57873 0.0
C287 C 0.56015 0.34734 0.55025 0.0
C288 C 0.59736 0.34396 0.51999 0.0
H289 H 0.13274 0.32273 0.52267 0.0
H290 H 0.25485 0.32112 0.53708 0.0
C291 C 0.66675 0.34878 0.51754 0.0
C292 C 0.48396 0.3464 0.55031 0.0
H293 H 0.34534 0.32983 0.5936 0.0
C294 C 0.44828 0.35709 0.52687 0.0
C295 C 0.44658 0.33629 0.57449 0.0
C296 C 0.48218 0.32407 0.59941 0.0
C297 C 0.37632 0.35816 0.52717 0.0
C298 C 0.33893 0.34853 0.55206 0.0
C299 C 0.37434 0.33752 0.57511 0.0
C300 C 0.26275 0.34863 0.55206 0.0
C301 C 0.34082 0.36938 0.50042 0.0
C302 C 0.22588 0.36439 0.55774 0.0
C303 C 0.15581 0.36537 0.54947 0.0
C304 C 0.1221 0.35058 0.53544 0.0
C305 C 0.15768 0.33439 0.53313 0.0
C306 C 0.2274 0.33342 0.54145 0.0
H307 H 0.37604 0.37305 0.47914 0.0
H308 H 0.29578 0.3623 0.48942 0.0
H309 H 0.32199 0.38178 0.51254 0.0
H310 H 0.25232 0.37623 0.56633 0.0
H311 H 0.12983 0.37803 0.55134 0.0
H312 H 0.75257 0.86502 0.03745 0.0
H313 H 0.87295 0.85562 0.03093 0.0
H314 H 0.88162 0.88106 0.93208 0.0
H315 H 0.7617 0.89036 0.93823 0.0
H316 H 0.95531 0.84155 0.94948 0.0
H317 H 0.01616 0.90271 0.02431 0.0
H318 H 0.94497 0.88891 0.03719 0.0
H319 H 0.93977 0.90126 0.99805 0.0
C320 C 0.77958 0.86813 0.01394 0.0
C321 C 0.74813 0.87845 0.9884 0.0
C322 C 0.84811 0.86277 0.01025 0.0
C323 C 0.88551 0.86763 0.98096 0.0
C324 C 0.85311 0.87709 0.95468 0.0
H325 H 0.32234 0.88538 0.96882 0.0
H326 H 0.2013 0.88456 0.95192 0.0
C327 C 0.78498 0.88252 0.95842 0.0
C328 C 0.9607 0.86534 0.97991 0.0
H329 H 0.10891 0.8854 1.00575 0.0
C330 C 0.98921 0.85107 0.96174 0.0
C331 C 0.0041 0.87798 0.99553 0.0
C332 C 0.97522 0.89365 0.01487 0.0
C333 C 0.06098 0.84902 0.95922 0.0
C334 C 0.10443 0.86156 0.97536 0.0
C335 C 0.07544 0.87592 0.99309 0.0
C336 C 0.18005 0.85956 0.97687 0.0
C337 C 0.08973 0.8336 0.9392 0.0
C338 C 0.20871 0.84542 0.9952 0.0
C339 C 0.2779 0.84582 1.00476 0.0
C340 C 0.31942 0.86043 0.9963 0.0
C341 C 0.29206 0.87386 0.97544 0.0
C342 C 0.22274 0.87345 0.96588 0.0
H343 H 0.05159 0.82833 0.92053 0.0
H344 H 0.13713 0.83746 0.92518 0.0
H345 H 0.10319 0.82278 0.95725 0.0
H346 H 0.1765 0.83473 1.00445 0.0
H347 H 0.29768 0.83522 0.02068 0.0
H348 H 0.20458 0.13866 0.93825 0.0
H349 H 0.0852 0.14831 0.93341 0.0
H350 H 0.0981 0.17248 0.03359 0.0
H351 H 0.21808 0.16262 0.03876 0.0
H352 H -0.00298 0.14594 0.02622 0.0
H353 H 0.97761 0.19499 0.9208 0.0
H354 H 0.02794 0.17574 0.91046 0.0
H355 H 0.0571 0.19062 0.94345 0.0
C356 C 0.18252 0.14642 0.9589 0.0
C357 C 0.22033 0.14984 0.98897 0.0
C358 C 0.11454 0.15209 0.95592 0.0
C359 C 0.0831 0.16125 0.98297 0.0
C360 C 0.1219 0.16558 0.01227 0.0
H361 H 0.66069 0.18775 0.01874 0.0
H362 H 0.78237 0.18981 1.0036 0.0
C363 C 0.19037 0.16001 0.01517 0.0
C364 C 0.00751 0.1634 0.98292 0.0
H365 H 0.87254 0.18087 0.93794 0.0
C366 C 0.96985 0.15373 0.00715 0.0
C367 C 0.9724 0.17345 0.95778 0.0
C368 C 0.01076 0.18443 0.93179 0.0
C369 C 0.89786 0.15354 0.00657 0.0
C370 C 0.86268 0.16318 0.98091 0.0
C371 C 0.90003 0.17323 0.9571 0.0
C372 C 0.78683 0.16376 0.98062 0.0
C373 C 0.85966 0.14305 0.03345 0.0
C374 C 0.74858 0.14877 0.97096 0.0
C375 C 0.67876 0.14758 0.97945 0.0
C376 C 0.64711 0.16129 0.99804 0.0
C377 C 0.68414 0.17692 1.0047 0.0
C378 C 0.75349 0.17817 0.99593 0.0
H379 H 0.89439 0.13812 0.054 0.0
H380 H 0.81878 0.15129 0.04537 0.0
H381 H 0.83441 0.13148 0.02116 0.0
H382 H 0.77388 0.13752 0.95917 0.0
H383 H 0.65148 0.13536 0.97414 0.0
H384 H 0.34678 0.11494 0.57016 0.0
H385 H 0.22277 0.11735 0.58089 0.0
H386 H 0.23577 0.17416 0.57195 0.0
H387 H 0.35907 0.17177 0.56033 0.0
H388 H 0.12167 0.13765 0.62193 0.0
H389 H 0.1337 0.15679 0.48404 0.0
H390 H 0.20661 0.14757 0.50644 0.0
H391 H 0.18249 0.17027 0.51328 0.0
C392 C 0.32379 0.12798 0.57224 0.0
C393 C 0.36197 0.14315 0.56393 0.0
C394 C 0.25285 0.12935 0.57816 0.0
C395 C 0.21999 0.14591 0.57624 0.0
C396 C 0.26004 0.16125 0.57293 0.0
H397 H 0.76368 0.15213 0.56621 0.0
H398 H 0.8827 0.16193 0.57742 0.0
C399 C 0.33052 0.15987 0.56655 0.0
C400 C 0.1445 0.14678 0.57095 0.0
H401 H 0.02427 0.15334 0.50812 0.0
C402 C 0.10013 0.14138 0.5973 0.0
C403 C 0.11675 0.15147 0.53854 0.0
C404 C 0.16213 0.15673 0.50879 0.0
C405 C 0.0287 0.14015 0.59178 0.0
C406 C 0.00144 0.14442 0.55915 0.0
C407 C 0.04551 0.15033 0.5332 0.0
C408 C 0.92953 0.14014 0.54985 0.0
C409 C 0.98303 0.1334 0.62016 0.0
C410 C 0.91697 0.12511 0.52967 0.0
C411 C 0.84975 0.11961 0.52323 0.0
C412 C 0.79378 0.12921 0.53638 0.0
C413 C 0.80606 0.14482 0.55507 0.0
C414 C 0.87379 0.15024 0.56189 0.0
H415 H 0.01262 0.12996 0.64363 0.0
H416 H 0.94437 0.14366 0.62685 0.0
H417 H 0.95459 0.12148 0.6113 0.0
H418 H 0.95937 0.11719 0.52009 0.0
H419 H 0.84146 0.10745 0.509 0.0
H420 H 0.54526 0.82395 0.56516 0.0
H421 H 0.66628 0.82166 0.58194 0.0
H422 H 0.68525 0.87855 0.57495 0.0
H423 H 0.5632 0.88082 0.56086 0.0
H424 H 0.76259 0.82789 0.54179 0.0
H425 H 0.81016 0.87151 0.65223 0.0
H426 H 0.72404 0.86534 0.63969 0.0
H427 H 0.76626 0.88408 0.62008 0.0
C428 C 0.57472 0.83598 0.56898 0.0
C429 C 0.54519 0.85257 0.56202 0.0
C430 C 0.64403 0.83468 0.57821 0.0
C431 C 0.68555 0.84991 0.57974 0.0
C432 C 0.65454 0.8666 0.57497 0.0
H433 H 0.09085 0.86142 0.50126 0.0
H434 H 0.97099 0.85289 0.51115 0.0
C435 C 0.58459 0.86792 0.5668 0.0
C436 C 0.76197 0.84821 0.58091 0.0
H437 H 0.90656 0.86798 0.61246 0.0
C438 C 0.79395 0.83639 0.55792 0.0
C439 C 0.80372 0.85893 0.60227 0.0
C440 C 0.77402 0.87049 0.63019 0.0
C441 C 0.86581 0.83573 0.55435 0.0
C442 C 0.90696 0.84783 0.57305 0.0
C443 C 0.87534 0.8589 0.5975 0.0
C444 C 0.98188 0.85014 0.56633 0.0
C445 C 0.89645 0.82207 0.53052 0.0
C446 C 0.02842 0.85146 0.59384 0.0
C447 C 0.09613 0.85691 0.5882 0.0
C448 C 0.119 0.86068 0.55489 0.0
C449 C 0.07435 0.85822 0.52707 0.0
C450 C 0.00595 0.85324 0.53278 0.0
H451 H 0.86416 0.80993 0.52977 0.0
H452 H 0.89805 0.8275 0.50409 0.0
H453 H 0.94942 0.81829 0.53835 0.0
H454 H 0.01146 0.84912 0.61992 0.0
H455 H 0.12991 0.8589 0.61002 0.0
H456 H 0.8917 0.58415 0.99883 0.0
H457 H 0.90424 0.55521 0.02555 0.0
H458 H 0.10715 0.56962 0.06096 0.0
H459 H 0.09535 0.59861 0.03311 0.0
H460 H 0.10798 0.54018 0.0222 0.0
H461 H 0.90286 0.53258 0.11894 0.0
H462 H 0.86892 0.54041 0.07895 0.0
H463 H 0.92871 0.55396 0.10268 0.0
C464 C 0.93824 0.58137 0.0132 0.0
C465 C 0.99249 0.5937 0.01402 0.0
C466 C 0.94506 0.56484 0.02881 0.0
C467 C 0.00625 0.56023 0.04574 0.0
C468 C 0.05908 0.57294 0.0484 0.0
H469 H 0.16493 0.4535 0.07533 0.0
H470 H 0.13941 0.48449 0.08881 0.0
C471 C 0.05215 0.58958 0.03276 0.0
C472 C 0.01891 0.54137 0.05491 0.0
H473 H 0.9467 0.50529 0.09396 0.0
C474 C 0.07366 0.53266 0.03858 0.0
C475 C 0.97354 0.53145 0.07587 0.0
C476 C 0.91563 0.54014 0.09536 0.0
C477 C 0.08235 0.51426 0.04114 0.0
C478 C 0.03587 0.50424 0.06129 0.0
C479 C 0.98225 0.51297 0.07855 0.0
C480 C 0.04105 0.48461 0.06276 0.0
C481 C 0.13931 0.5056 0.02074 0.0
C482 C 0.99148 0.47401 0.04627 0.0
C483 C 0.00535 0.45612 0.03929 0.0
C484 C 0.06904 0.44877 0.04859 0.0
C485 C 0.11523 0.45889 0.06819 0.0
C486 C 0.10096 0.47662 0.07561 0.0
H487 H 0.16078 0.51461 1.00093 0.0
H488 H 0.18179 0.50184 0.03833 0.0
H489 H 0.12054 0.4934 0.00781 0.0
H490 H 0.94481 0.47991 0.03621 0.0
H491 H 0.96948 0.44861 0.02369 0.0
H492 H 0.75427 0.42908 0.45391 0.0
H493 H 0.752 0.45987 0.43457 0.0
H494 H 0.97362 0.46191 0.44247 0.0
H495 H 0.97566 0.43081 0.45941 0.0
H496 H 0.78102 0.48426 0.47515 0.0
H497 H 0.95301 0.49483 0.36548 0.0
H498 H 0.92417 0.47294 0.37725 0.0
H499 H -0.00047 0.48254 0.39713 0.0
C500 C 0.80259 0.43587 0.44952 0.0
C501 C 0.86518 0.42762 0.45774 0.0
C502 C 0.80132 0.45354 0.43883 0.0
C503 C 0.86256 0.46342 0.43707 0.0
C504 C 0.92562 0.45465 0.44264 0.0
H505 H 0.96258 0.55818 0.52811 0.0
H506 H 0.909 0.53043 0.51102 0.0
C507 C 0.92692 0.43681 0.45243 0.0
C508 C 0.85987 0.48319 0.43611 0.0
H509 H 0.94781 0.5194 0.40742 0.0
C510 C 0.81627 0.49191 0.45952 0.0
C511 C 0.90432 0.49348 0.41538 0.0
C512 C 0.94717 0.4854 0.38715 0.0
C513 C 0.8202 0.51028 0.46481 0.0
C514 C 0.8707 0.52018 0.44718 0.0
C515 C 0.90995 0.5118 0.42156 0.0
C516 C 0.89058 0.53832 0.45838 0.0
C517 C 0.77154 0.51877 0.49012 0.0
C518 C 0.8973 0.55225 0.43471 0.0
C519 C 0.9285 0.56824 0.44453 0.0
C520 C 0.9539 0.57045 0.47808 0.0
C521 C 0.94296 0.55693 0.50218 0.0
C522 C 0.91195 0.54105 0.49242 0.0
H523 H 0.72119 0.51178 0.49031 0.0
H524 H 0.79362 0.51776 0.51632 0.0
H525 H 0.76254 0.53296 0.48413 0.0
H526 H 0.88167 0.55043 0.40825 0.0
H527 H 0.93774 0.57822 0.42518 0.0
H528 H 0.45157 0.95428 0.02243 0.0
H529 H 0.42996 0.982 0.05217 0.0
H530 H 0.53221 0.96182 0.1424 0.0
H531 H 0.55543 0.93373 0.11184 0.0
H532 H 0.36451 0.99195 0.1133 0.0
H533 H 0.64649 1.00581 0.11672 0.0
H534 H 0.61298 0.9877 0.09152 0.0
H535 H 0.6132 0.98633 0.13748 0.0
C536 C 0.46856 0.9556 0.04882 0.0
C537 C 0.50544 0.94192 0.0648 0.0
C538 C 0.45582 0.97144 0.06591 0.0
C539 C 0.47999 0.97413 0.09942 0.0
C540 C 0.51366 0.96011 0.1164 0.0
H541 H 0.38109 0.08828 0.11103 0.0
H542 H 0.40058 0.05994 0.14123 0.0
C543 C 0.52631 0.94403 0.09912 0.0
C544 C 0.47517 0.99237 0.11375 0.0
H545 H 0.57201 0.03007 0.11595 0.0
C546 C 0.40978 1.0003 0.1153 0.0
C547 C 0.53434 1.00321 0.1166 0.0
C548 C 0.60592 0.99546 0.11549 0.0
C549 C 0.40204 0.01882 0.11488 0.0
C550 C 0.46143 0.02966 0.11352 0.0
C551 C 0.52658 0.02173 0.11675 0.0
C552 C 0.45796 0.04796 0.09952 0.0
C553 C 0.33063 0.02654 0.11188 0.0
C554 C 0.48607 0.05091 0.06689 0.0
C555 C 0.47554 0.06692 0.05005 0.0
C556 C 0.43709 0.08048 0.06546 0.0
C557 C 0.41152 0.07803 0.09883 0.0
C558 C 0.42212 0.06183 0.11589 0.0
H559 H 0.29008 0.01617 0.11156 0.0
H560 H 0.32072 0.0355 0.13393 0.0
H561 H 0.32623 0.03448 0.088 0.0
H562 H 0.51356 0.04046 0.05361 0.0
H563 H 0.49568 0.0685 0.02431 0.0
H564 H 0.44485 0.07699 0.46099 0.0
H565 H 0.39193 0.04995 0.43783 0.0
H566 H 0.57715 0.02074 0.46058 0.0
H567 H 0.63048 0.04765 0.48298 0.0
H568 H 0.50316 0.00838 0.39969 0.0
H569 H 0.3401 0.01546 0.51658 0.0
H570 H 0.33846 0.03343 0.4864 0.0
H571 H 0.4159 0.02878 0.50994 0.0
C572 C 0.47522 0.06498 0.45967 0.0
C573 C 0.54159 0.06438 0.47401 0.0
C574 C 0.44477 0.04951 0.44668 0.0
C575 C 0.48025 0.03327 0.44804 0.0
C576 C 0.54879 0.03309 0.4593 0.0
H577 H 0.43951 0.92245 0.46925 0.0
H578 H 0.47362 0.95149 0.44733 0.0
C579 C 0.57908 0.04847 0.47226 0.0
C580 C 0.44363 0.01613 0.44382 0.0
H581 H 0.33307 0.98895 0.48655 0.0
C582 C 0.4649 1.00419 0.41822 0.0
C583 C 0.39409 0.01064 0.46816 0.0
C584 C 0.37086 0.02263 0.49701 0.0
C585 C 0.43894 0.98677 0.41682 0.0
C586 C 0.39187 0.98104 0.44222 0.0
C587 C 0.36876 0.99327 0.46689 0.0
C588 C 0.37007 0.96222 0.44627 0.0
C589 C 0.46266 0.97469 0.38833 0.0
C590 C 0.30038 0.95824 0.45215 0.0
C591 C 0.28125 0.94182 0.46557 0.0
C592 C 0.33119 0.92889 0.47267 0.0
C593 C 0.39995 0.93214 0.46358 0.0
C594 C 0.4194 0.94875 0.45084 0.0
H595 H 0.47532 0.98237 0.36487 0.0
H596 H 0.51019 0.96772 0.39655 0.0
H597 H 0.42303 0.96464 0.38177 0.0
H598 H 0.26126 0.96833 0.44878 0.0
H599 H 0.22789 0.93963 0.47242 0.0
H600 H 0.26753 0.34233 0.99776 0.0
H601 H 0.30846 0.31137 1.00098 0.0
H602 H 0.10712 0.29485 0.03488 0.0
H603 H 0.06624 0.32528 0.03064 0.0
H604 H 0.3163 0.28642 0.0511 0.0
H605 H 0.13272 0.26337 0.95252 0.0
H606 H 0.14818 0.28657 0.96069 0.0
H607 H 0.08856 0.27431 0.98691 0.0
C608 C 0.23274 0.33205 0.00636 0.0
C609 C 0.16377 0.33607 0.01374 0.0
C610 C 0.2558 0.31439 0.00796 0.0
C611 C 0.21007 0.30067 0.017 0.0
C612 C 0.14264 0.30503 0.02658 0.0
H613 H 0.30592 0.19746 0.09539 0.0
H614 H 0.26324 0.22742 0.08486 0.0
C615 C 0.11958 0.32247 0.02457 0.0
C616 C 0.23156 0.28173 0.01668 0.0
H617 H 0.18092 0.24072 0.98891 0.0
C618 C 0.28722 0.27646 0.03718 0.0
C619 C 0.19472 0.26871 0.99786 0.0
C620 C 0.13825 0.27356 0.97296 0.0
C621 C 0.30478 0.25849 0.04078 0.0
C622 C 0.2642 0.24536 0.02425 0.0
C623 C 0.2109 0.2507 1.00229 0.0
C624 C 0.27648 0.2261 0.02977 0.0
C625 C 0.36702 0.2538 0.06214 0.0
C626 C 0.29139 0.21476 1.00206 0.0
C627 C 0.31363 0.19734 0.00802 0.0
C628 C 0.32171 0.19115 0.04176 0.0
C629 C 0.3003 0.20194 0.06914 0.0
C630 C 0.27706 0.21917 0.06316 0.0
H631 H 0.40398 0.26501 0.06354 0.0
H632 H 0.35035 0.25075 0.0887 0.0
H633 H 0.39421 0.24206 0.05159 0.0
H634 H 0.29017 0.21971 0.976 0.0
H635 H 0.33041 0.18933 0.98649 0.0
H636 H 0.66621 0.82381 0.0845 0.0
H637 H 0.72577 0.79668 0.06773 0.0
H638 H 0.7214 0.81332 0.9619 0.0
H639 H 0.66291 0.84083 0.97885 0.0
H640 H 0.65917 0.77295 0.02485 0.0
H641 H 0.91458 0.79176 0.97135 0.0
H642 H 0.86529 0.80651 0.99837 0.0
H643 H 0.84103 0.80328 0.95438 0.0
C644 C 0.68023 0.82198 0.05782 0.0
C645 C 0.66008 0.83438 0.03297 0.0
C646 C 0.71382 0.80643 0.04822 0.0
C647 C 0.72752 0.80288 0.01355 0.0
C648 C 0.712 0.81584 0.98885 0.0
H649 H 0.89159 0.69979 0.94153 0.0
H650 H 0.82384 0.72737 0.93925 0.0
C651 C 0.67883 0.83158 0.99855 0.0
C652 C 0.75053 0.78484 1.00356 0.0
H653 H 0.88609 0.76137 0.97116 0.0
C654 C 0.70851 0.77045 0.01275 0.0
C655 C 0.81444 0.78159 0.98739 0.0
C656 C 0.86188 0.79654 0.97744 0.0
C657 C 0.73008 0.75292 0.00774 0.0
C658 C 0.7953 0.74966 0.99318 0.0
C659 C 0.83582 0.76397 0.98217 0.0
C660 C 0.82656 0.73178 0.9941 0.0
C661 C 0.68417 0.73797 0.01931 0.0
C662 C 0.84835 0.72495 0.02572 0.0
C663 C 0.88706 0.70942 0.02703 0.0
C664 C 0.90396 0.70029 0.99677 0.0
C665 C 0.87823 0.70645 0.96524 0.0
C666 C 0.84026 0.72226 0.96388 0.0
H667 H 0.62938 0.74215 0.02059 0.0
H668 H 0.68859 0.7264 1.00183 0.0
H669 H 0.70027 0.73368 0.04534 0.0
H670 H 0.83851 0.73216 0.04928 0.0
H671 H 0.90669 0.70499 0.0516 0.0
H672 H 0.94766 0.68507 0.52104 0.0
H673 H 0.96728 0.71575 0.53904 0.0
H674 H 0.18607 0.70823 0.52691 0.0
H675 H 0.16652 0.67721 0.51105 0.0
H676 H 0.16052 0.73307 0.57492 0.0
H677 H 0.00381 0.74722 0.4587 0.0
H678 H 0.95793 0.73593 0.49201 0.0
H679 H 0.02835 0.72507 0.47054 0.0
C680 C 6e-05 0.68977 0.52388 0.0
C681 C 0.05563 0.67888 0.51458 0.0
C682 C 0.01122 0.70738 0.53364 0.0
C683 C 0.07791 0.71455 0.53286 0.0
C684 C 0.13401 0.70309 0.52729 0.0
H685 H 0.23977 0.80854 0.45533 0.0
H686 H 0.18037 0.78098 0.46809 0.0
C687 C 0.12293 0.68532 0.51844 0.0
C688 C 0.08877 0.7341 0.5329 0.0
H689 H 0.05316 0.77147 0.48662 0.0
C690 C 0.13642 0.74154 0.55592 0.0
C691 C 0.05785 0.74514 0.50777 0.0
C692 C 0.00965 0.73796 0.48064 0.0
C693 C 0.15601 0.75946 0.55366 0.0
C694 C 0.12577 0.77038 0.5282 0.0
C695 C 0.07575 0.76314 0.50632 0.0
C696 C 0.153 0.78833 0.52004 0.0
C697 C 0.21199 0.76623 0.57713 0.0
C698 C 0.15476 0.80208 0.54443 0.0
C699 C 0.18929 0.81799 0.53714 0.0
C700 C 0.22184 0.82038 0.50525 0.0
C701 C 0.21535 0.8071 0.48016 0.0
C702 C 0.18138 0.79129 0.48746 0.0
H703 H 0.23823 0.75534 0.59113 0.0
H704 H 0.2512 0.77372 0.56237 0.0
H705 H 0.18916 0.77534 0.59638 0.0
H706 H 0.13187 0.80028 0.5695 0.0
H707 H 0.19442 0.82783 0.5572 0.0
H708 H 0.79795 0.32267 0.54154 0.0
H709 H 0.75554 0.29265 0.55365 0.0
H710 H 0.75441 0.28102 0.44527 0.0
H711 H 0.79651 0.31082 0.43311 0.0
H712 H 0.64056 0.26629 0.48407 0.0
H713 H 0.8986 0.25151 0.53995 0.0
H714 H 0.85117 0.26993 0.55735 0.0
H715 H 0.88301 0.27096 0.51421 0.0
C716 C 0.7861 0.31391 0.5203 0.0
C717 C 0.80077 0.319 0.48639 0.0
C718 C 0.76279 0.29671 0.52726 0.0
C719 C 0.75348 0.28453 0.50037 0.0
C720 C 0.76186 0.29018 0.46639 0.0
H721 H 0.68634 0.1779 0.44413 0.0
H722 H 0.7246 0.20862 0.45011 0.0
C723 C 0.7856 0.30723 0.45947 0.0
C724 C 0.74124 0.26547 0.50703 0.0
H725 H 0.82365 0.22745 0.53154 0.0
C726 C 0.6801 0.25783 0.49495 0.0
C727 C 0.79316 0.25446 0.52113 0.0
C728 C 0.86048 0.26201 0.53379 0.0
C729 C 0.67019 0.23943 0.49568 0.0
C730 C 0.72345 0.22836 0.50816 0.0
C731 C 0.78334 0.236 0.52173 0.0
C732 C 0.71816 0.20883 0.50551 0.0
C733 C 0.60322 0.23193 0.48242 0.0
C734 C 0.70723 0.19845 0.53484 0.0
C735 C 0.68647 0.18075 0.53145 0.0
C736 C 0.67663 0.17333 0.49871 0.0
C737 C 0.69449 0.18326 0.46963 0.0
C738 C 0.71552 0.20085 0.47302 0.0
H739 H 0.56186 0.2421 0.4819 0.0
H740 H 0.61082 0.22702 0.45583 0.0
H741 H 0.58589 0.22063 0.49845 0.0
H742 H 0.70919 0.2044 0.56014 0.0
H743 H 0.67104 0.17354 0.55418 0.0
H744 H -0.00118 0.36664 0.12555 0.0
H745 H 0.97398 0.37381 0.18526 0.0
H746 H -0.00422 0.42949 0.16316 0.0
H747 H 0.02258 0.42235 0.10327 0.0
H748 H 0.06258 0.42136 0.22037 0.0
H749 H 0.80286 0.39259 0.22942 0.0
H750 H 0.86161 0.37634 0.21311 0.0
H751 H 0.84488 0.39617 0.18872 0.0
C752 C -0.00225 0.38044 0.13324 0.0
C753 C 0.01244 0.39392 0.10953 0.0
C754 C 0.98286 0.38454 0.16742 0.0
C755 C 0.98124 0.40223 0.17868 0.0
C756 C -0.00402 0.41575 0.15507 0.0
H757 H 0.8643 0.40322 0.39674 0.0
H758 H 0.86472 0.41509 0.33794 0.0
C759 C 0.01138 0.41165 0.12082 0.0
C760 C 0.96883 0.40627 0.2156 0.0
H761 H 0.86726 0.39427 0.28309 0.0
C762 C 0.01901 0.41577 0.23395 0.0
C763 C 0.91099 0.39955 0.23343 0.0
C764 C 0.8517 0.39079 0.21501 0.0
C765 C 0.01606 0.41729 0.26989 0.0
C766 C 0.96254 0.4087 0.28804 0.0
C767 C 0.90906 0.40064 0.26941 0.0
C768 C 0.96671 0.40535 0.32566 0.0
C769 C 0.07161 0.42765 0.28806 0.0
C770 C 0.02445 0.39645 0.33872 0.0
C771 C 0.02432 0.38982 0.37206 0.0
C772 C 0.96629 0.3918 0.3932 0.0
C773 C 0.91011 0.40175 0.38119 0.0
C774 C 0.91014 0.40839 0.3475 0.0
H775 H 0.089 0.43897 0.2721 0.0
H776 H 0.05372 0.43279 0.31324 0.0
H777 H 0.11685 0.41894 0.29233 0.0
H778 H 0.06801 0.39348 0.32238 0.0
H779 H 0.06826 0.38214 0.3806 0.0
H780 H -0.0009 0.63694 0.09797 0.0
H781 H 0.0293 0.62777 0.15625 0.0
H782 H 0.23093 0.61205 0.12114 0.0
H783 H 0.20152 0.62215 0.06306 0.0
H784 H 0.07389 0.6 0.1921 0.0
H785 H 0.28136 0.6507 0.18665 0.0
H786 H 0.21934 0.64804 0.15268 0.0
H787 H 0.29014 0.63279 0.15668 0.0
C788 C 0.04889 0.6309 0.10252 0.0
C789 C 0.09787 0.6301 0.07618 0.0
C790 C 0.0664 0.62575 0.13587 0.0
C791 C 0.13322 0.61971 0.1434 0.0
C792 C 0.17981 0.61717 0.11624 0.0
H793 H 0.17656 0.60461 0.36791 0.0
H794 H 0.19844 0.59734 0.30749 0.0
C795 C 0.16267 0.62265 0.08297 0.0
C796 C 0.15536 0.6182 0.17995 0.0
H797 H 0.26085 0.63745 0.23964 0.0
C798 C 0.1155 0.60796 0.20247 0.0
C799 C 0.20948 0.62872 0.19356 0.0
C800 C 0.25226 0.6408 0.17128 0.0
C801 C 0.12538 0.60872 0.23823 0.0
C802 C 0.17818 0.61964 0.25187 0.0
C803 C 0.22084 0.62899 0.22918 0.0
C804 C 0.18181 0.62407 0.28912 0.0
C805 C 0.0758 0.59886 0.26108 0.0
C806 C 0.17157 0.64172 0.29929 0.0
C807 C 0.16076 0.64595 0.33371 0.0
C808 C 0.1596 0.63261 0.35882 0.0
C809 C 0.1772 0.61521 0.34922 0.0
C810 C 0.18848 0.61098 0.31457 0.0
H811 H 0.03103 0.59355 0.24659 0.0
H812 H 0.1028 0.58753 0.27322 0.0
H813 H 0.05624 0.60764 0.28178 0.0
H814 H 0.16697 0.65213 0.2803 0.0
H815 H 0.14794 0.6595 0.34027 0.0
H816 H 0.11987 0.67075 0.86912 0.0
H817 H 0.14232 0.67752 0.80844 0.0
H818 H 0.14835 0.62167 0.78548 0.0
H819 H 0.12535 0.61486 0.84559 0.0
H820 H 0.24474 0.66427 0.75262 0.0
H821 H 0.97204 0.64421 0.7361 0.0
H822 H 0.00793 0.65034 0.77723 0.0
H823 H 0.02335 0.62864 0.75981 0.0
C824 C 0.12891 0.65993 0.85139 0.0
C825 C 0.12016 0.64226 0.86201 0.0
C826 C 0.14121 0.66382 0.81668 0.0
C827 C 0.14547 0.65008 0.79242 0.0
C828 C 0.1443 0.63247 0.80374 0.0
H829 H 0.23413 0.6247 0.5903 0.0
H830 H 0.23932 0.63573 0.64879 0.0
C831 C 0.13155 0.62859 0.83815 0.0
C832 C 0.14198 0.65372 0.75502 0.0
H833 H 0.04041 0.64533 0.68537 0.0
C834 C 0.19974 0.66045 0.73787 0.0
C835 C 0.08257 0.6492 0.73588 0.0
C836 C 0.01761 0.64285 0.75315 0.0
C837 C 0.20127 0.66152 0.70178 0.0
C838 C 0.14406 0.65538 0.68245 0.0
C839 C 0.08455 0.64995 0.69992 0.0
C840 C 0.14778 0.65196 0.64478 0.0
C841 C 0.26473 0.66889 0.68475 0.0
C842 C 0.0948 0.65746 0.62245 0.0
C843 C 0.09131 0.65094 0.58868 0.0
C844 C 0.1404 0.63869 0.57689 0.0
C845 C 0.19548 0.63413 0.5986 0.0
C846 C 0.19898 0.64061 0.63209 0.0
H847 H 0.28905 0.67923 0.70106 0.0
H848 H 0.30294 0.65809 0.68133 0.0
H849 H 0.25279 0.67467 0.65926 0.0
H850 H 0.05424 0.66608 0.63169 0.0
H851 H 0.04771 0.65448 0.57278 0.0
H852 H 0.01965 0.35527 0.6027 0.0
H853 H 0.05889 0.35118 0.66218 0.0
H854 H 0.06691 0.40783 0.67563 0.0
H855 H 0.02701 0.41198 0.6167 0.0
H856 H 0.18059 0.38407 0.70939 0.0
H857 H 0.90621 0.3677 0.73725 0.0
H858 H 0.94995 0.35678 0.70233 0.0
H859 H 0.92986 0.37989 0.69924 0.0
C860 C 0.03249 0.36682 0.61794 0.0
C861 C 0.02004 0.38395 0.60523 0.0
C862 C 0.05427 0.36447 0.65196 0.0
C863 C 0.06475 0.37922 0.67332 0.0
C864 C 0.05885 0.39629 0.65955 0.0
H865 H 0.12684 0.42054 0.87073 0.0
H866 H 0.11797 0.41251 0.81041 0.0
C867 C 0.0363 0.39864 0.62586 0.0
C868 C 0.07314 0.37728 0.7109 0.0
H869 H 0.97806 0.37364 0.78427 0.0
C870 C 0.13676 0.38143 0.72583 0.0
C871 C 0.01585 0.37375 0.73222 0.0
C872 C 0.94634 0.3693 0.7172 0.0
C873 C 0.14393 0.38286 0.76159 0.0
C874 C 0.08537 0.38066 0.78285 0.0
C875 C 0.02273 0.37546 0.76798 0.0
C876 C 0.08671 0.38544 0.81986 0.0
C877 C 0.21401 0.38708 0.7762 0.0
C878 C 0.06791 0.37322 0.84539 0.0
C879 C 0.07183 0.37791 0.88024 0.0
C880 C 0.09456 0.39488 0.88995 0.0
C881 C 0.11004 0.40728 0.86419 0.0
C882 C 0.10567 0.40265 0.82962 0.0
H883 H 0.25565 0.3822 0.75909 0.0
H884 H 0.2197 0.40166 0.77846 0.0
H885 H 0.221 0.38114 0.80202 0.0
H886 H 0.052 0.35995 0.83839 0.0
H887 H 0.05964 0.36807 0.89949 0.0
H888 H 0.39024 0.91449 0.12324 0.0
H889 H 0.3682 0.92569 0.18163 0.0
H890 H 0.5566 0.9013 0.21643 0.0
H891 H 0.57812 0.89023 0.15862 0.0
H892 H 0.34751 0.90209 0.23303 0.0
H893 H 0.55835 0.94642 0.27222 0.0
H894 H 0.53913 0.94188 0.22766 0.0
H895 H 0.59244 0.92694 0.25211 0.0
C896 C 0.42818 0.91226 0.14317 0.0
C897 C 0.4862 0.90171 0.13661 0.0
C898 C 0.41551 0.91857 0.17649 0.0
C899 C 0.46111 0.91453 0.20347 0.0
C900 C 0.5215 0.90503 0.19608 0.0
H901 H 0.5037 0.87842 0.39879 0.0
H902 H 0.51157 0.89264 0.34281 0.0
C903 C 0.53374 0.89863 0.16303 0.0
C904 C 0.44079 0.91705 0.23997 0.0
H905 H 0.50873 0.92809 0.31801 0.0
C906 C 0.38145 0.90831 0.2516 0.0
C907 C 0.48494 0.92518 0.26422 0.0
C908 C 0.54687 0.93579 0.25331 0.0
C909 C 0.36886 0.9059 0.2868 0.0
C910 C 0.41638 0.9127 0.31106 0.0
C911 C 0.47251 0.92277 0.29946 0.0
C912 C 0.41522 0.90683 0.34746 0.0
C913 C 0.30808 0.89478 0.2976 0.0
C914 C 0.35946 0.91053 0.36934 0.0
C915 C 0.35467 0.90227 0.40151 0.0
C916 C 0.40584 0.89032 0.41229 0.0
C917 C 0.46334 0.88751 0.39113 0.0
C918 C 0.4681 0.89572 0.35918 0.0
H919 H 0.2811 0.8887 0.27536 0.0
H920 H 0.32495 0.88404 0.31514 0.0
H921 H 0.27065 0.9032 0.31164 0.0
H922 H 0.31837 0.91921 0.36097 0.0
H923 H 0.30926 0.90446 0.41702 0.0
H924 H 0.39418 0.13197 0.1613 0.0
H925 H 0.40318 0.11579 0.21534 0.0
H926 H 0.56656 0.08382 0.17298 0.0
H927 H 0.55722 0.10016 0.11832 0.0
H928 H 0.40129 0.07798 0.23492 0.0
H929 H 0.65349 0.11183 0.25536 0.0
H930 H 0.59431 0.1193 0.22273 0.0
H931 H 0.64027 0.09889 0.21707 0.0
C932 C 0.43078 0.12118 0.16327 0.0
C933 C 0.47492 0.11723 0.13588 0.0
C934 C 0.43581 0.11191 0.19407 0.0
C935 C 0.48587 0.0987 0.19829 0.0
C936 C 0.52784 0.09404 0.17029 0.0
H937 H 0.59016 0.09046 0.41589 0.0
H938 H 0.59073 0.07867 0.35704 0.0
C939 C 0.52238 0.1033 0.13915 0.0
C940 C 0.49826 0.09176 0.23336 0.0
H941 H 0.59774 0.10056 0.30354 0.0
C942 C 0.44525 0.08243 0.2498 0.0
C943 C 0.55595 0.09739 0.25271 0.0
C944 C 0.61442 0.10745 0.23632 0.0
C945 C 0.44577 0.07988 0.28553 0.0
C946 C 0.49978 0.08726 0.30534 0.0
C947 C 0.55607 0.09499 0.28845 0.0
C948 C 0.49288 0.09034 0.34293 0.0
C949 C 0.38673 0.07006 0.30183 0.0
C950 C 0.43694 0.10035 0.35493 0.0
C951 C 0.43664 0.10706 0.38829 0.0
C952 C 0.49237 0.10397 0.41047 0.0
C953 C 0.5462 0.0929 0.39944 0.0
C954 C 0.54667 0.08622 0.36579 0.0
H955 H 0.36797 0.05935 0.28462 0.0
H956 H 0.40166 0.06418 0.32686 0.0
H957 H 0.34329 0.07936 0.30603 0.0
H958 H 0.39565 0.10415 0.33775 0.0
H959 H 0.39449 0.11557 0.39606 0.0
H960 H 0.56512 0.10531 0.90971 0.0
H961 H 0.57495 0.10844 0.84754 0.0
H962 H 0.5116 0.16301 0.85529 0.0
H963 H 0.50252 0.15995 0.9179 0.0
H964 H 0.43632 0.12025 0.81723 0.0
H965 H 0.6641 0.1591 0.77383 0.0
H966 H 0.668 0.14563 0.81209 0.0
H967 H 0.61787 0.16553 0.81205 0.0
C968 C 0.55731 0.11826 0.89838 0.0
C969 C 0.53331 0.1324 0.91855 0.0
C970 C 0.56222 0.11999 0.86281 0.0
C971 C 0.54328 0.13589 0.84681 0.0
C972 C 0.52688 0.15066 0.8672 0.0
H973 H 0.49334 0.14351 0.6217 0.0
H974 H 0.48332 0.15218 0.68239 0.0
C975 C 0.52245 0.14896 0.90301 0.0
C976 C 0.52814 0.13571 0.80949 0.0
H977 H 0.59321 0.14656 0.73095 0.0
C978 C 0.47016 0.1262 0.79835 0.0
C979 C 0.57164 0.14371 0.78504 0.0
C980 C 0.63411 0.15409 0.79604 0.0
C981 C 0.45619 0.12378 0.76333 0.0
C982 C 0.50202 0.13082 0.73873 0.0
C983 C 0.55805 0.14117 0.74984 0.0
C984 C 0.49775 0.12563 0.70198 0.0
C985 C 0.39327 0.11335 0.75296 0.0
C986 C 0.50712 0.10781 0.69289 0.0
C987 C 0.51282 0.10286 0.65851 0.0
C988 C 0.50919 0.11563 0.63236 0.0
C989 C 0.49534 0.13334 0.64127 0.0
C990 C 0.49041 0.13834 0.67591 0.0
H991 H 0.35291 0.1139 0.77312 0.0
H992 H 0.37125 0.11835 0.72851 0.0
H993 H 0.40783 0.09926 0.74928 0.0
H994 H 0.5138 0.0978 0.71251 0.0
H995 H 0.52391 0.08914 0.65246 0.0
H996 H 0.42389 0.85448 0.6241 0.0
H997 H 0.43792 0.84852 0.68574 0.0
H998 H 0.43395 0.9046 0.70648 0.0
H999 H 0.41956 0.91063 0.64537 0.0
H1000 H 0.53489 0.86737 0.7454 0.0
H1001 H 0.25123 0.87712 0.74873 0.0
H1002 H 0.29621 0.86991 0.71059 0.0
H1003 H 0.29974 0.89271 0.72357 0.0
C1004 C 0.42906 0.86554 0.64166 0.0
C1005 C 0.42 0.88302 0.63 0.0
C1006 C 0.43648 0.86211 0.67687 0.0
C1007 C 0.43567 0.87613 0.70057 0.0
C1008 C 0.43406 0.89361 0.68855 0.0
H1009 H 0.41019 0.91298 0.89895 0.0
H1010 H 0.39192 0.90446 0.83918 0.0
C1011 C 0.42622 0.89703 0.6536 0.0
C1012 C 0.42745 0.87288 0.73781 0.0
H1013 H 0.31009 0.87825 0.80222 0.0
C1014 C 0.48559 0.86927 0.75791 0.0
C1015 C 0.3629 0.87539 0.75388 0.0
C1016 C 0.29864 0.87888 0.73318 0.0
C1017 C 0.48157 0.86924 0.79398 0.0
C1018 C 0.41762 0.87278 0.81012 0.0
C1019 C 0.35887 0.87543 0.78984 0.0
C1020 C 0.41336 0.87666 0.8474 0.0
C1021 C 0.54656 0.86665 0.81462 0.0
C1022 C 0.42685 0.86365 0.87228 0.0
C1023 C 0.43609 0.8685 0.90678 0.0
C1024 C 0.43279 0.88642 0.91652 0.0
C1025 C 0.4128 0.89908 0.8921 0.0
C1026 C 0.4028 0.89423 0.85791 0.0
H1027 H 0.59308 0.86584 0.79812 0.0
H1028 H 0.5533 0.87772 0.83311 0.0
H1029 H 0.54262 0.8542 0.82957 0.0
H1030 H 0.43426 0.84997 0.86472 0.0
H1031 H 0.45215 0.85851 0.92505 0.0
loop_
_geom_bond_atom_site_label_1
_geom_bond_atom_site_label_2
_geom_bond_distance
_geom_bond_site_symmetry_2
_ccdc_geom_bond_type
Zn0 O6 1.920 1_655 S
Zn0 O12 1.898 . S
Zn0 O15 1.905 . S
Zn1 O9 1.905 . S
Zn1 O10 1.898 . S
Zn1 O18 1.920 . S
Zn2 O5 2.080 1_554 S
Zn2 O8 2.114 1_554 S
Zn2 O11 2.120 1_554 S
Zn2 O13 2.120 . S
Zn2 O14 2.114 1_455 S
Zn2 O17 2.080 . S
C3 O8 1.166 . S
C3 O9 1.192 . S
C4 O10 1.167 . S
C4 O11 1.299 . S
O5 Zn2 2.080 1_556 S
O5 C19 1.305 1_556 S
O6 Zn0 1.920 1_455 S
O6 C19 1.234 . S
C7 O12 1.167 1_455 S
C7 O13 1.299 . S
O8 Zn2 2.114 1_556 S
O8 C3 1.166 . S
O9 Zn1 1.905 . S
O9 C3 1.192 . S
O10 Zn1 1.898 . S
O10 C4 1.167 . S
O11 Zn2 2.120 1_556 S
O11 C4 1.299 . S
O12 Zn0 1.898 . S
O12 C7 1.167 1_655 S
O13 Zn2 2.120 . S
O13 C7 1.299 . S
O14 Zn2 2.114 1_655 S
O14 C16 1.166 . S
O15 Zn0 1.905 . S
O15 C16 1.182 . S
C16 O14 1.166 . S
C16 O15 1.182 . S
O17 Zn2 2.080 . S
O17 C20 1.305 1_554 S
O18 Zn1 1.920 . S
O18 C20 1.234 . S
C19 O5 1.305 1_554 S
C19 O6 1.234 . S
C20 O17 1.305 1_556 S
C20 O18 1.234 . S
Zn21 O27 1.920 . S
Zn21 O33 1.898 . S
Zn21 O36 1.905 . S
Zn22 O30 1.905 . S
Zn22 O31 1.898 . S
Zn22 O39 1.920 1_455 S
Zn23 O26 2.080 . S
Zn23 O29 2.114 1_655 S
Zn23 O32 2.120 . S
Zn23 O34 2.120 1_554 S
Zn23 O35 2.114 1_554 S
Zn23 O38 2.080 1_554 S
C24 O29 1.166 . S
C24 O30 1.182 . S
C25 O31 1.167 1_655 S
C25 O32 1.299 . S
O26 Zn23 2.080 . S
O26 C40 1.305 1_554 S
O27 Zn21 1.920 . S
O27 C40 1.234 . S
C28 O33 1.167 . S
C28 O34 1.299 . S
O29 Zn23 2.114 1_455 S
O29 C24 1.166 . S
O30 Zn22 1.905 . S
O30 C24 1.182 . S
O31 Zn22 1.898 . S
O31 C25 1.167 1_455 S
O32 Zn23 2.120 . S
O32 C25 1.299 . S
O33 Zn21 1.898 . S
O33 C28 1.167 . S
O34 Zn23 2.120 1_556 S
O34 C28 1.299 . S
O35 Zn23 2.114 1_556 S
O35 C37 1.166 . S
O36 Zn21 1.905 . S
O36 C37 1.192 . S
C37 O35 1.166 . S
C37 O36 1.192 . S
O38 Zn23 2.080 1_556 S
O38 C41 1.305 1_556 S
O39 Zn22 1.920 1_655 S
O39 C41 1.234 . S
C40 O26 1.305 1_556 S
C40 O27 1.234 . S
C41 O38 1.305 1_554 S
C41 O39 1.234 . S
Zn42 O48 1.920 . S
Zn42 O54 1.898 . S
Zn42 O57 1.905 . S
Zn43 O51 1.905 . S
Zn43 O52 1.898 . S
Zn43 O60 1.920 1_655 S
Zn44 O47 2.080 . S
Zn44 O50 2.114 1_455 S
Zn44 O53 2.120 . S
Zn44 O55 2.120 . S
Zn44 O56 2.114 . S
Zn44 O59 2.080 . S
C45 O50 1.166 . S
C45 O51 1.182 . S
C46 O52 1.167 1_455 S
C46 O53 1.299 . S
O47 Zn44 2.080 . S
O47 C61 1.305 . S
O48 Zn42 1.920 . S
O48 C61 1.234 . S
C49 O54 1.167 . S
C49 O55 1.299 . S
O50 Zn44 2.114 1_655 S
O50 C45 1.166 . S
O51 Zn43 1.905 . S
O51 C45 1.182 . S
O52 Zn43 1.898 . S
O52 C46 1.167 1_655 S
O53 Zn44 2.120 . S
O53 C46 1.299 . S
O54 Zn42 1.898 . S
O54 C49 1.167 . S
O55 Zn44 2.120 . S
O55 C49 1.299 . S
O56 Zn44 2.114 . S
O56 C58 1.166 . S
O57 Zn42 1.905 . S
O57 C58 1.182 . S
C58 O56 1.166 . S
C58 O57 1.182 . S
O59 Zn44 2.080 . S
O59 C62 1.305 . S
O60 Zn43 1.920 1_455 S
O60 C62 1.234 . S
C61 O47 1.305 . S
C61 O48 1.234 . S
C62 O59 1.305 . S
C62 O60 1.234 . S
Zn63 O69 1.920 1_455 S
Zn63 O75 1.898 . S
Zn63 O78 1.905 . S
Zn64 O72 1.905 . S
Zn64 O73 1.898 . S
Zn64 O81 1.920 . S
Zn65 O68 2.080 . S
Zn65 O71 2.114 . S
Zn65 O74 2.120 . S
Zn65 O76 2.120 . S
Zn65 O77 2.114 1_655 S
Zn65 O80 2.080 . S
C66 O71 1.166 . S
C66 O72 1.182 . S
C67 O73 1.167 . S
C67 O74 1.299 . S
O68 Zn65 2.080 . S
O68 C82 1.305 . S
O69 Zn63 1.920 1_655 S
O69 C82 1.234 . S
C70 O75 1.167 1_655 S
C70 O76 1.299 . S
O71 Zn65 2.114 . S
O71 C66 1.166 . S
O72 Zn64 1.905 . S
O72 C66 1.182 . S
O73 Zn64 1.898 . S
O73 C67 1.167 . S
O74 Zn65 2.120 . S
O74 C67 1.299 . S
O75 Zn63 1.898 . S
O75 C70 1.167 1_455 S
O76 Zn65 2.120 . S
O76 C70 1.299 . S
O77 Zn65 2.114 1_455 S
O77 C79 1.166 . S
O78 Zn63 1.905 . S
O78 C79 1.182 . S
C79 O77 1.166 . S
C79 O78 1.182 . S
O80 Zn65 2.080 . S
O80 C83 1.305 . S
O81 Zn64 1.920 . S
O81 C83 1.234 . S
C82 O68 1.305 . S
C82 O69 1.234 . S
C83 O80 1.305 . S
C83 O81 1.234 . S
Zn84 O90 1.920 . S
Zn84 O96 1.898 . S
Zn84 O99 1.905 . S
Zn85 O93 1.905 . S
Zn85 O94 1.898 . S
Zn85 O102 1.920 . S
Zn86 O89 2.080 1_554 S
Zn86 O92 2.114 1_554 S
Zn86 O95 2.120 1_554 S
Zn86 O97 2.120 . S
Zn86 O98 2.114 . S
Zn86 O101 2.080 . S
C87 O92 1.166 . S
C87 O93 1.192 . S
C88 O94 1.167 . S
C88 O95 1.299 . S
O89 Zn86 2.080 1_556 S
O89 C103 1.305 1_556 S
O90 Zn84 1.920 . S
O90 C103 1.234 . S
C91 O96 1.167 . S
C91 O97 1.299 . S
O92 Zn86 2.114 1_556 S
O92 C87 1.166 . S
O93 Zn85 1.905 . S
O93 C87 1.192 . S
O94 Zn85 1.898 . S
O94 C88 1.167 . S
O95 Zn86 2.120 1_556 S
O95 C88 1.299 . S
O96 Zn84 1.898 . S
O96 C91 1.167 . S
O97 Zn86 2.120 . S
O97 C91 1.299 . S
O98 Zn86 2.114 . S
O98 C100 1.166 . S
O99 Zn84 1.905 . S
O99 C100 1.182 . S
C100 O98 1.166 . S
C100 O99 1.182 . S
O101 Zn86 2.080 . S
O101 C104 1.305 1_554 S
O102 Zn85 1.920 . S
O102 C104 1.234 . S
C103 O89 1.305 1_554 S
C103 O90 1.234 . S
C104 O101 1.305 1_556 S
C104 O102 1.234 . S
Zn105 O111 1.920 . S
Zn105 O117 1.898 . S
Zn105 O120 1.905 . S
Zn106 O114 1.905 . S
Zn106 O115 1.898 . S
Zn106 O123 1.920 . S
Zn107 O110 2.080 . S
Zn107 O113 2.114 . S
Zn107 O116 2.120 . S
Zn107 O118 2.120 1_554 S
Zn107 O119 2.114 1_554 S
Zn107 O122 2.080 1_554 S
C108 O113 1.166 . S
C108 O114 1.182 . S
C109 O115 1.167 . S
C109 O116 1.299 . S
O110 Zn107 2.080 . S
O110 C124 1.305 1_554 S
O111 Zn105 1.920 . S
O111 C124 1.234 . S
C112 O117 1.167 . S
C112 O118 1.299 . S
O113 Zn107 2.114 . S
O113 C108 1.166 . S
O114 Zn106 1.905 . S
O114 C108 1.182 . S
O115 Zn106 1.898 . S
O115 C109 1.167 . S
O116 Zn107 2.120 . S
O116 C109 1.299 . S
O117 Zn105 1.898 . S
O117 C112 1.167 . S
O118 Zn107 2.120 1_556 S
O118 C112 1.299 . S
O119 Zn107 2.114 1_556 S
O119 C121 1.166 . S
O120 Zn105 1.905 . S
O120 C121 1.192 . S
C121 O119 1.166 . S
C121 O120 1.192 . S
O122 Zn107 2.080 1_556 S
O122 C125 1.305 1_556 S
O123 Zn106 1.920 . S
O123 C125 1.234 . S
C124 O110 1.305 1_556 S
C124 O111 1.234 . S
C125 O122 1.305 1_554 S
C125 O123 1.234 . S
Zn126 O132 1.920 . S
Zn126 O138 1.898 . S
Zn126 O141 1.905 . S
Zn127 O135 1.905 . S
Zn127 O136 1.898 . S
Zn127 O144 1.920 . S
Zn128 O131 2.080 . S
Zn128 O134 2.114 . S
Zn128 O137 2.120 . S
Zn128 O139 2.120 . S
Zn128 O140 2.114 . S
Zn128 O143 2.080 . S
C129 O134 1.166 . S
C129 O135 1.182 . S
C130 O136 1.167 . S
C130 O137 1.299 . S
O131 Zn128 2.080 . S
O131 C145 1.305 . S
O132 Zn126 1.920 . S
O132 C145 1.234 . S
C133 O138 1.167 . S
C133 O139 1.299 . S
O134 Zn128 2.114 . S
O134 C129 1.166 . S
O135 Zn127 1.905 . S
O135 C129 1.182 . S
O136 Zn127 1.898 . S
O136 C130 1.167 . S
O137 Zn128 2.120 . S
O137 C130 1.299 . S
O138 Zn126 1.898 . S
O138 C133 1.167 . S
O139 Zn128 2.120 . S
O139 C133 1.299 . S
O140 Zn128 2.114 . S
O140 C142 1.166 . S
O141 Zn126 1.905 . S
O141 C142 1.182 . S
C142 O140 1.166 . S
C142 O141 1.182 . S
O143 Zn128 2.080 . S
O143 C146 1.305 . S
O144 Zn127 1.920 . S
O144 C146 1.234 . S
C145 O131 1.305 . S
C145 O132 1.234 . S
C146 O143 1.305 . S
C146 O144 1.234 . S
Zn147 O153 1.920 . S
Zn147 O159 1.898 . S
Zn147 O162 1.905 . S
Zn148 O156 1.905 . S
Zn148 O157 1.898 . S
Zn148 O165 1.920 . S
Zn149 O152 2.080 . S
Zn149 O155 2.114 . S
Zn149 O158 2.120 . S
Zn149 O160 2.120 . S
Zn149 O161 2.114 . S
Zn149 O164 2.080 . S
C150 O155 1.166 . S
C150 O156 1.182 . S
C151 O157 1.167 . S
C151 O158 1.299 . S
O152 Zn149 2.080 . S
O152 C166 1.305 . S
O153 Zn147 1.920 . S
O153 C166 1.234 . S
C154 O159 1.167 . S
C154 O160 1.299 . S
O155 Zn149 2.114 . S
O155 C150 1.166 . S
O156 Zn148 1.905 . S
O156 C150 1.182 . S
O157 Zn148 1.898 . S
O157 C151 1.167 . S
O158 Zn149 2.120 . S
O158 C151 1.299 . S
O159 Zn147 1.898 . S
O159 C154 1.167 . S
O160 Zn149 2.120 . S
O160 C154 1.299 . S
O161 Zn149 2.114 . S
O161 C163 1.166 . S
O162 Zn147 1.905 . S
O162 C163 1.182 . S
C163 O161 1.166 . S
C163 O162 1.182 . S
O164 Zn149 2.080 . S
O164 C167 1.305 . S
O165 Zn148 1.920 . S
O165 C167 1.234 . S
C166 O152 1.305 . S
C166 O153 1.234 . S
C167 O164 1.305 . S
C167 O165 1.234 . S
H168 C176 0.929 . S
H169 C178 0.930 . S
H170 C180 0.930 . S
H171 C183 0.929 . S
H172 C186 0.930 . S
H173 C188 0.960 . S
H174 C188 0.960 . S
H175 C188 0.960 . S
C176 H168 0.929 . S
C176 C177 1.377 . S
C176 C178 1.384 . S
C177 C176 1.377 . S
C177 C183 1.390 1_556 S
C178 H169 0.930 . S
C178 C176 1.384 . S
C178 C179 1.372 . S
C179 C178 1.372 . S
C179 C180 1.400 1_556 S
C179 C184 1.490 . S
C180 H170 0.930 . S
C180 C179 1.400 1_554 S
C180 C183 1.386 . S
H181 C197 0.930 . S
H182 C198 0.931 . S
C183 H171 0.929 . S
C183 C177 1.390 1_554 S
C183 C180 1.386 . S
C184 C179 1.490 . S
C184 C186 1.395 . S
C184 C187 1.403 1_556 S
H185 C191 0.930 . S
C186 H172 0.930 . S
C186 C184 1.395 . S
C186 C189 1.403 . S
C187 C184 1.403 1_554 S
C187 C188 1.524 . S
C187 C191 1.400 . S
C188 H173 0.960 . S
C188 H174 0.960 . S
C188 H175 0.960 . S
C188 C187 1.524 . S
C189 C186 1.403 . S
C189 C190 1.392 . S
C189 C193 1.495 . S
C190 C189 1.392 . S
C190 C191 1.385 1_556 S
C190 C192 1.478 . S
C191 H185 0.930 . S
C191 C187 1.400 . S
C191 C190 1.385 1_554 S
C192 C190 1.478 . S
C192 C194 1.381 . S
C192 C198 1.383 1_556 S
C193 C189 1.495 . S
C193 H199 0.959 . S
C193 H200 0.961 . S
C193 H201 0.960 . S
C194 C192 1.381 . S
C194 C195 1.394 . S
C194 H202 0.930 . S
C195 C194 1.394 . S
C195 C196 1.383 . S
C195 H203 0.929 . S
C196 C195 1.383 . S
C196 C197 1.377 1_556 S
C197 H181 0.930 . S
C197 C196 1.377 1_554 S
C197 C198 1.379 . S
C198 H182 0.931 . S
C198 C192 1.383 1_554 S
C198 C197 1.379 . S
H199 C193 0.959 . S
H200 C193 0.961 . S
H201 C193 0.960 . S
H202 C194 0.930 . S
H203 C195 0.929 . S
H204 C212 0.929 . S
H205 C214 0.930 . S
H206 C216 0.930 . S
H207 C219 0.929 . S
H208 C222 0.930 . S
H209 C224 0.960 . S
H210 C224 0.960 . S
H211 C224 0.960 . S
C212 H204 0.929 . S
C212 C213 1.377 . S
C212 C214 1.384 . S
C213 C212 1.377 . S
C213 C219 1.390 1_556 S
C214 H205 0.930 . S
C214 C212 1.384 . S
C214 C215 1.372 . S
C215 C214 1.372 . S
C215 C216 1.400 1_556 S
C215 C220 1.490 . S
C216 H206 0.930 . S
C216 C215 1.400 1_554 S
C216 C219 1.386 . S
H217 C233 0.930 . S
H218 C234 0.931 . S
C219 H207 0.929 . S
C219 C213 1.390 1_554 S
C219 C216 1.386 . S
C220 C215 1.490 . S
C220 C222 1.395 1_556 S
C220 C223 1.403 . S
H221 C227 0.930 . S
C222 H208 0.930 . S
C222 C220 1.395 1_554 S
C222 C225 1.403 . S
C223 C220 1.403 . S
C223 C224 1.524 . S
C223 C227 1.400 . S
C224 H209 0.960 . S
C224 H210 0.960 . S
C224 H211 0.960 . S
C224 C223 1.524 . S
C225 C222 1.403 . S
C225 C226 1.392 1_554 S
C225 C229 1.495 . S
C226 C225 1.392 1_556 S
C226 C227 1.385 . S
C226 C228 1.478 . S
C227 H221 0.930 . S
C227 C223 1.400 . S
C227 C226 1.385 . S
C228 C226 1.478 . S
C228 C230 1.381 . S
C228 C234 1.383 1_556 S
C229 C225 1.495 . S
C229 H235 0.959 . S
C229 H236 0.961 . S
C229 H237 0.960 . S
C230 C228 1.381 . S
C230 C231 1.394 . S
C230 H238 0.930 . S
C231 C230 1.394 . S
C231 C232 1.383 . S
C231 H239 0.929 . S
C232 C231 1.383 . S
C232 C233 1.377 1_556 S
C233 H217 0.930 . S
C233 C232 1.377 1_554 S
C233 C234 1.379 . S
C234 H218 0.931 . S
C234 C228 1.383 1_554 S
C234 C233 1.379 . S
H235 C229 0.959 . S
H236 C229 0.961 . S
H237 C229 0.960 . S
H238 C230 0.930 . S
H239 C231 0.929 . S
H240 C248 0.929 . S
H241 C250 0.930 . S
H242 C252 0.930 . S
H243 C255 0.929 . S
H244 C258 0.930 . S
H245 C260 0.960 . S
H246 C260 0.960 . S
H247 C260 0.960 . S
C248 H240 0.929 . S
C248 C249 1.377 . S
C248 C250 1.384 . S
C249 C248 1.377 . S
C249 C255 1.390 . S
C250 H241 0.930 . S
C250 C248 1.384 . S
C250 C251 1.372 . S
C251 C250 1.372 . S
C251 C252 1.400 . S
C251 C256 1.490 . S
C252 H242 0.930 . S
C252 C251 1.400 . S
C252 C255 1.386 . S
H253 C269 0.930 . S
H254 C270 0.931 . S
C255 H243 0.929 . S
C255 C249 1.390 . S
C255 C252 1.386 . S
C256 C251 1.490 . S
C256 C258 1.395 . S
C256 C259 1.403 . S
H257 C263 0.930 . S
C258 H244 0.930 . S
C258 C256 1.395 . S
C258 C261 1.403 . S
C259 C256 1.403 . S
C259 C260 1.524 . S
C259 C263 1.400 . S
C260 H245 0.960 . S
C260 H246 0.960 . S
C260 H247 0.960 . S
C260 C259 1.524 . S
C261 C258 1.403 . S
C261 C262 1.392 . S
C261 C265 1.495 . S
C262 C261 1.392 . S
C262 C263 1.385 . S
C262 C264 1.478 . S
C263 H257 0.930 . S
C263 C259 1.400 . S
C263 C262 1.385 . S
C264 C262 1.478 . S
C264 C266 1.381 . S
C264 C270 1.383 . S
C265 C261 1.495 . S
C265 H271 0.959 . S
C265 H272 0.961 . S
C265 H273 0.960 . S
C266 C264 1.381 . S
C266 C267 1.394 . S
C266 H274 0.930 . S
C267 C266 1.394 . S
C267 C268 1.383 . S
C267 H275 0.929 . S
C268 C267 1.383 . S
C268 C269 1.377 . S
C269 H253 0.930 . S
C269 C268 1.377 . S
C269 C270 1.379 . S
C270 H254 0.931 . S
C270 C264 1.383 . S
C270 C269 1.379 . S
H271 C265 0.959 . S
H272 C265 0.961 . S
H273 C265 0.960 . S
H274 C266 0.930 . S
H275 C267 0.929 . S
H276 C284 0.929 . S
H277 C286 0.930 . S
H278 C288 0.930 . S
H279 C291 0.929 . S
H280 C294 0.930 . S
H281 C296 0.960 . S
H282 C296 0.960 . S
H283 C296 0.960 . S
C284 H276 0.929 . S
C284 C285 1.377 . S
C284 C286 1.384 . S
C285 C284 1.377 . S
C285 C291 1.390 . S
C286 H277 0.930 . S
C286 C284 1.384 . S
C286 C287 1.372 . S
C287 C286 1.372 . S
C287 C288 1.400 . S
C287 C292 1.490 . S
C288 H278 0.930 . S
C288 C287 1.400 . S
C288 C291 1.386 . S
H289 C305 0.930 . S
H290 C306 0.931 . S
C291 H279 0.929 . S
C291 C285 1.390 . S
C291 C288 1.386 . S
C292 C287 1.490 . S
C292 C294 1.395 . S
C292 C295 1.403 . S
H293 C299 0.930 . S
C294 H280 0.930 . S
C294 C292 1.395 . S
C294 C297 1.403 . S
C295 C292 1.403 . S
C295 C296 1.524 . S
C295 C299 1.400 . S
C296 H281 0.960 . S
C296 H282 0.960 . S
C296 H283 0.960 . S
C296 C295 1.524 . S
C297 C294 1.403 . S
C297 C298 1.392 . S
C297 C301 1.495 . S
C298 C297 1.392 . S
C298 C299 1.385 . S
C298 C300 1.478 . S
C299 H293 0.930 . S
C299 C295 1.400 . S
C299 C298 1.385 . S
C300 C298 1.478 . S
C300 C302 1.381 . S
C300 C306 1.383 . S
C301 C297 1.495 . S
C301 H307 0.959 . S
C301 H308 0.961 . S
C301 H309 0.960 . S
C302 C300 1.381 . S
C302 C303 1.394 . S
C302 H310 0.930 . S
C303 C302 1.394 . S
C303 C304 1.383 . S
C303 H311 0.929 . S
C304 C303 1.383 . S
C304 C305 1.377 . S
C305 H289 0.930 . S
C305 C304 1.377 . S
C305 C306 1.379 . S
C306 H290 0.931 . S
C306 C300 1.383 . S
C306 C305 1.379 . S
H307 C301 0.959 . S
H308 C301 0.961 . S
H309 C301 0.960 . S
H310 C302 0.930 . S
H311 C303 0.929 . S
H312 C320 0.929 . S
H313 C322 0.930 . S
H314 C324 0.930 . S
H315 C327 0.929 . S
H316 C330 0.930 . S
H317 C332 0.960 . S
H318 C332 0.960 1_655 S
H319 C332 0.960 1_655 S
C320 H312 0.929 . S
C320 C321 1.377 1_554 S
C320 C322 1.384 . S
C321 C320 1.377 1_556 S
C321 C327 1.390 . S
C322 H313 0.930 . S
C322 C320 1.384 . S
C322 C323 1.372 1_554 S
C323 C322 1.372 1_556 S
C323 C324 1.400 . S
C323 C328 1.490 1_655 S
C324 H314 0.930 . S
C324 C323 1.400 . S
C324 C327 1.386 . S
H325 C341 0.930 . S
H326 C342 0.931 . S
C327 H315 0.929 . S
C327 C321 1.390 . S
C327 C324 1.386 . S
C328 C323 1.490 1_455 S
C328 C330 1.395 . S
C328 C331 1.403 1_556 S
H329 C335 0.930 . S
C330 H316 0.930 . S
C330 C328 1.395 . S
C330 C333 1.403 . S
C331 C328 1.403 1_554 S
C331 C332 1.524 . S
C331 C335 1.400 . S
C332 H317 0.960 . S
C332 H318 0.960 1_455 S
C332 H319 0.960 1_455 S
C332 C331 1.524 . S
C333 C330 1.403 . S
C333 C334 1.392 . S
C333 C337 1.495 . S
C334 C333 1.392 . S
C334 C335 1.385 1_556 S
C334 C336 1.478 . S
C335 H329 0.930 . S
C335 C331 1.400 . S
C335 C334 1.385 1_554 S
C336 C334 1.478 . S
C336 C338 1.381 1_556 S
C336 C342 1.383 . S
C337 C333 1.495 . S
C337 H343 0.959 . S
C337 H344 0.961 . S
C337 H345 0.960 . S
C338 C336 1.381 1_554 S
C338 C339 1.394 . S
C338 H346 0.930 . S
C339 C338 1.394 . S
C339 C340 1.383 1_554 S
C339 H347 0.929 . S
C340 C339 1.383 1_556 S
C340 C341 1.377 . S
C341 H325 0.930 . S
C341 C340 1.377 . S
C341 C342 1.379 . S
C342 H326 0.931 . S
C342 C336 1.383 . S
C342 C341 1.379 . S
H343 C337 0.959 . S
H344 C337 0.961 . S
H345 C337 0.960 . S
H346 C338 0.930 . S
H347 C339 0.929 . S
H348 C356 0.929 . S
H349 C358 0.930 . S
H350 C360 0.930 1_554 S
H351 C363 0.929 1_554 S
H352 C366 0.930 . S
H353 C368 0.960 . S
H354 C368 0.960 1_455 S
H355 C368 0.960 1_455 S
C356 H348 0.929 . S
C356 C357 1.377 . S
C356 C358 1.384 . S
C357 C356 1.377 . S
C357 C363 1.390 . S
C358 H349 0.930 . S
C358 C356 1.384 . S
C358 C359 1.372 . S
C359 C358 1.372 . S
C359 C360 1.400 . S
C359 C364 1.490 1_455 S
C360 H350 0.930 1_556 S
C360 C359 1.400 . S
C360 C363 1.386 . S
H361 C377 0.930 . S
H362 C378 0.931 . S
C363 H351 0.929 1_556 S
C363 C357 1.390 . S
C363 C360 1.386 . S
C364 C359 1.490 1_655 S
C364 C366 1.395 1_556 S
C364 C367 1.403 . S
H365 C371 0.930 . S
C366 H352 0.930 . S
C366 C364 1.395 1_554 S
C366 C369 1.403 . S
C367 C364 1.403 . S
C367 C368 1.524 . S
C367 C371 1.400 . S
C368 H353 0.960 . S
C368 H354 0.960 1_655 S
C368 H355 0.960 1_655 S
C368 C367 1.524 . S
C369 C366 1.403 . S
C369 C370 1.392 1_554 S
C369 C373 1.495 . S
C370 C369 1.392 1_556 S
C370 C371 1.385 . S
C370 C372 1.478 . S
C371 H365 0.930 . S
C371 C367 1.400 . S
C371 C370 1.385 . S
C372 C370 1.478 . S
C372 C374 1.381 . S
C372 C378 1.383 1_556 S
C373 C369 1.495 . S
C373 H379 0.959 . S
C373 H380 0.961 . S
C373 H381 0.960 . S
C374 C372 1.381 . S
C374 C375 1.394 . S
C374 H382 0.930 . S
C375 C374 1.394 . S
C375 C376 1.383 . S
C375 H383 0.929 . S
C376 C375 1.383 . S
C376 C377 1.377 1_556 S
C377 H361 0.930 . S
C377 C376 1.377 1_554 S
C377 C378 1.379 . S
C378 H362 0.931 . S
C378 C372 1.383 1_554 S
C378 C377 1.379 . S
H379 C373 0.959 . S
H380 C373 0.961 . S
H381 C373 0.960 . S
H382 C374 0.930 . S
H383 C375 0.929 . S
H384 C392 0.929 . S
H385 C394 0.930 . S
H386 C396 0.930 . S
H387 C399 0.929 . S
H388 C402 0.930 . S
H389 C404 0.960 . S
H390 C404 0.960 . S
H391 C404 0.960 . S
C392 H384 0.929 . S
C392 C393 1.377 . S
C392 C394 1.384 . S
C393 C392 1.377 . S
C393 C399 1.390 . S
C394 H385 0.930 . S
C394 C392 1.384 . S
C394 C395 1.372 . S
C395 C394 1.372 . S
C395 C396 1.400 . S
C395 C400 1.490 . S
C396 H386 0.930 . S
C396 C395 1.400 . S
C396 C399 1.386 . S
H397 C413 0.930 . S
H398 C414 0.931 . S
C399 H387 0.929 . S
C399 C393 1.390 . S
C399 C396 1.386 . S
C400 C395 1.490 . S
C400 C402 1.395 . S
C400 C403 1.403 . S
H401 C407 0.930 . S
C402 H388 0.930 . S
C402 C400 1.395 . S
C402 C405 1.403 . S
C403 C400 1.403 . S
C403 C404 1.524 . S
C403 C407 1.400 . S
C404 H389 0.960 . S
C404 H390 0.960 . S
C404 H391 0.960 . S
C404 C403 1.524 . S
C405 C402 1.403 . S
C405 C406 1.392 . S
C405 C409 1.495 . S
C406 C405 1.392 . S
C406 C407 1.385 . S
C406 C408 1.478 1_455 S
C407 H401 0.930 . S
C407 C403 1.400 . S
C407 C406 1.385 . S
C408 C406 1.478 1_655 S
C408 C410 1.381 . S
C408 C414 1.383 . S
C409 C405 1.495 . S
C409 H415 0.959 . S
C409 H416 0.961 1_455 S
C409 H417 0.960 1_455 S
C410 C408 1.381 . S
C410 C411 1.394 . S
C410 H418 0.930 . S
C411 C410 1.394 . S
C411 C412 1.383 . S
C411 H419 0.929 . S
C412 C411 1.383 . S
C412 C413 1.377 . S
C413 H397 0.930 . S
C413 C412 1.377 . S
C413 C414 1.379 . S
C414 H398 0.931 . S
C414 C408 1.383 . S
C414 C413 1.379 . S
H415 C409 0.959 . S
H416 C409 0.961 1_655 S
H417 C409 0.960 1_655 S
H418 C410 0.930 . S
H419 C411 0.929 . S
H420 C428 0.929 . S
H421 C430 0.930 . S
H422 C432 0.930 . S
H423 C435 0.929 . S
H424 C438 0.930 . S
H425 C440 0.960 . S
H426 C440 0.960 . S
H427 C440 0.960 . S
C428 H420 0.929 . S
C428 C429 1.377 . S
C428 C430 1.384 . S
C429 C428 1.377 . S
C429 C435 1.390 . S
C430 H421 0.930 . S
C430 C428 1.384 . S
C430 C431 1.372 . S
C431 C430 1.372 . S
C431 C432 1.400 . S
C431 C436 1.490 . S
C432 H422 0.930 . S
C432 C431 1.400 . S
C432 C435 1.386 . S
H433 C449 0.930 . S
H434 C450 0.931 . S
C435 H423 0.929 . S
C435 C429 1.390 . S
C435 C432 1.386 . S
C436 C431 1.490 . S
C436 C438 1.395 . S
C436 C439 1.403 . S
H437 C443 0.930 . S
C438 H424 0.930 . S
C438 C436 1.395 . S
C438 C441 1.403 . S
C439 C436 1.403 . S
C439 C440 1.524 . S
C439 C443 1.400 . S
C440 H425 0.960 . S
C440 H426 0.960 . S
C440 H427 0.960 . S
C440 C439 1.524 . S
C441 C438 1.403 . S
C441 C442 1.392 . S
C441 C445 1.495 . S
C442 C441 1.392 . S
C442 C443 1.385 . S
C442 C444 1.478 1_655 S
C443 H437 0.930 . S
C443 C439 1.400 . S
C443 C442 1.385 . S
C444 C442 1.478 1_455 S
C444 C446 1.381 . S
C444 C450 1.383 . S
C445 C441 1.495 . S
C445 H451 0.959 . S
C445 H452 0.961 1_655 S
C445 H453 0.960 1_655 S
C446 C444 1.381 . S
C446 C447 1.394 . S
C446 H454 0.930 . S
C447 C446 1.394 . S
C447 C448 1.383 . S
C447 H455 0.929 . S
C448 C447 1.383 . S
C448 C449 1.377 . S
C449 H433 0.930 . S
C449 C448 1.377 . S
C449 C450 1.379 . S
C450 H434 0.931 . S
C450 C444 1.383 . S
C450 C449 1.379 . S
H451 C445 0.959 . S
H452 C445 0.961 1_455 S
H453 C445 0.960 1_455 S
H454 C446 0.930 . S
H455 C447 0.929 . S
H456 C464 0.929 . S
H457 C466 0.930 . S
H458 C468 0.930 1_455 S
H459 C471 0.929 . S
H460 C474 0.930 . S
H461 C476 0.960 . S
H462 C476 0.960 . S
H463 C476 0.960 . S
C464 H456 0.929 . S
C464 C465 1.377 1_556 S
C464 C466 1.384 . S
C465 C464 1.377 1_554 S
C465 C471 1.390 . S
C466 H457 0.930 . S
C466 C464 1.384 . S
C466 C467 1.372 1_556 S
C467 C466 1.372 1_554 S
C467 C468 1.400 . S
C467 C472 1.490 . S
C468 H458 0.930 1_655 S
C468 C467 1.400 . S
C468 C471 1.386 . S
H469 C485 0.930 . S
H470 C486 0.931 . S
C471 H459 0.929 . S
C471 C465 1.390 . S
C471 C468 1.386 . S
C472 C467 1.490 . S
C472 C474 1.395 1_654 S
C472 C475 1.403 . S
H473 C479 0.930 . S
C474 H460 0.930 . S
C474 C472 1.395 1_456 S
C474 C477 1.403 . S
C475 C472 1.403 . S
C475 C476 1.524 . S
C475 C479 1.400 . S
C476 H461 0.960 . S
C476 H462 0.960 . S
C476 H463 0.960 . S
C476 C475 1.524 . S
C477 C474 1.403 . S
C477 C478 1.392 1_556 S
C477 C481 1.495 . S
C478 C477 1.392 1_554 S
C478 C479 1.385 1_455 S
C478 C480 1.478 . S
C479 H473 0.930 . S
C479 C475 1.400 . S
C479 C478 1.385 1_655 S
C480 C478 1.478 . S
C480 C482 1.381 1_554 S
C480 C486 1.383 . S
C481 C477 1.495 . S
C481 H487 0.959 . S
C481 H488 0.961 . S
C481 H489 0.960 . S
C482 C480 1.381 1_556 S
C482 C483 1.394 . S
C482 H490 0.930 1_455 S
C483 C482 1.394 . S
C483 C484 1.383 1_556 S
C483 H491 0.929 1_455 S
C484 C483 1.383 1_554 S
C484 C485 1.377 . S
C485 H469 0.930 . S
C485 C484 1.377 . S
C485 C486 1.379 . S
C486 H470 0.931 . S
C486 C480 1.383 . S
C486 C485 1.379 . S
H487 C481 0.959 . S
H488 C481 0.961 . S
H489 C481 0.960 . S
H490 C482 0.930 1_655 S
H491 C483 0.929 1_655 S
H492 C500 0.929 . S
H493 C502 0.930 . S
H494 C504 0.930 1_455 S
H495 C507 0.928 1_455 S
H496 C510 0.930 . S
H497 C512 0.960 . S
H498 C512 0.960 . S
H499 C512 0.960 . S
C500 H492 0.929 . S
C500 C501 1.377 . S
C500 C502 1.384 . S
C501 C500 1.377 . S
C501 C507 1.390 . S
C502 H493 0.930 . S
C502 C500 1.384 . S
C502 C503 1.372 . S
C503 C502 1.372 . S
C503 C504 1.400 . S
C503 C508 1.490 . S
C504 H494 0.930 1_655 S
C504 C503 1.400 . S
C504 C507 1.386 . S
H505 C521 0.930 . S
H506 C522 0.931 . S
C507 H495 0.928 1_655 S
C507 C501 1.390 . S
C507 C504 1.386 . S
C508 C503 1.490 . S
C508 C510 1.395 . S
C508 C511 1.403 1_655 S
H509 C515 0.930 . S
C510 H496 0.930 . S
C510 C508 1.395 . S
C510 C513 1.403 . S
C511 C508 1.403 1_455 S
C511 C512 1.524 . S
C511 C515 1.400 . S
C512 H497 0.960 . S
C512 H498 0.960 . S
C512 H499 0.960 . S
C512 C511 1.524 . S
C513 C510 1.403 . S
C513 C514 1.392 1_655 S
C513 C517 1.495 . S
C514 C513 1.392 1_455 S
C514 C515 1.385 . S
C514 C516 1.478 . S
C515 H509 0.930 . S
C515 C511 1.400 . S
C515 C514 1.385 . S
C516 C514 1.478 . S
C516 C518 1.381 1_455 S
C516 C522 1.383 . S
C517 C513 1.495 . S
C517 H523 0.959 . S
C517 H524 0.961 . S
C517 H525 0.960 . S
C518 C516 1.381 1_655 S
C518 C519 1.394 1_655 S
C518 H526 0.930 . S
C519 C518 1.394 1_455 S
C519 C520 1.383 . S
C519 H527 0.929 . S
C520 C519 1.383 . S
C520 C521 1.377 . S
C521 H505 0.930 . S
C521 C520 1.377 . S
C521 C522 1.379 . S
C522 H506 0.931 . S
C522 C516 1.383 . S
C522 C521 1.379 . S
H523 C517 0.959 . S
H524 C517 0.961 . S
H525 C517 0.960 . S
H526 C518 0.930 . S
H527 C519 0.929 . S
H528 C536 0.929 . S
H529 C538 0.930 . S
H530 C540 0.930 . S
H531 C543 0.929 . S
H532 C546 0.930 1_556 S
H533 C548 0.960 1_545 S
H534 C548 0.960 . S
H535 C548 0.960 . S
C536 H528 0.929 . S
C536 C537 1.377 1_556 S
C536 C538 1.384 . S
C537 C536 1.377 1_554 S
C537 C543 1.390 . S
C538 H529 0.930 . S
C538 C536 1.384 . S
C538 C539 1.372 1_556 S
C539 C538 1.372 1_554 S
C539 C540 1.400 . S
C539 C544 1.490 . S
C540 H530 0.930 . S
C540 C539 1.400 . S
C540 C543 1.386 . S
H541 C557 0.930 . S
H542 C558 0.931 . S
C543 H531 0.929 . S
C543 C537 1.390 . S
C543 C540 1.386 . S
C544 C539 1.490 . S
C544 C546 1.395 . S
C544 C547 1.403 . S
H545 C551 0.930 . S
C546 H532 0.930 1_554 S
C546 C544 1.395 . S
C546 C549 1.403 1_565 S
C547 C544 1.403 . S
C547 C548 1.524 . S
C547 C551 1.400 1_565 S
C548 H533 0.960 1_565 S
C548 H534 0.960 . S
C548 H535 0.960 . S
C548 C547 1.524 . S
C549 C546 1.403 1_545 S
C549 C550 1.392 . S
C549 C553 1.495 1_554 S
C550 C549 1.392 . S
C550 C551 1.385 . S
C550 C552 1.478 . S
C551 H545 0.930 . S
C551 C547 1.400 1_545 S
C551 C550 1.385 . S
C552 C550 1.478 . S
C552 C554 1.381 1_554 S
C552 C558 1.383 . S
C553 C549 1.495 1_556 S
C553 H559 0.959 1_545 S
C553 H560 0.961 1_556 S
C553 H561 0.960 . S
C554 C552 1.381 1_556 S
C554 C555 1.394 . S
C554 H562 0.930 . S
C555 C554 1.394 . S
C555 C556 1.383 1_556 S
C555 H563 0.929 . S
C556 C555 1.383 1_554 S
C556 C557 1.377 . S
C557 H541 0.930 . S
C557 C556 1.377 . S
C557 C558 1.379 . S
C558 H542 0.931 . S
C558 C552 1.383 . S
C558 C557 1.379 . S
H559 C553 0.959 1_565 S
H560 C553 0.961 1_554 S
H561 C553 0.960 . S
H562 C554 0.930 . S
H563 C555 0.929 . S
H564 C572 0.929 . S
H565 C574 0.930 . S
H566 C576 0.930 . S
H567 C579 0.929 . S
H568 C582 0.930 . S
H569 C584 0.960 . S
H570 C584 0.960 . S
H571 C584 0.960 . S
C572 H564 0.929 . S
C572 C573 1.377 . S
C572 C574 1.384 . S
C573 C572 1.377 . S
C573 C579 1.390 . S
C574 H565 0.930 . S
C574 C572 1.384 . S
C574 C575 1.372 . S
C575 C574 1.372 . S
C575 C576 1.400 . S
C575 C580 1.490 . S
C576 H566 0.930 . S
C576 C575 1.400 . S
C576 C579 1.386 . S
H577 C593 0.930 . S
H578 C594 0.931 . S
C579 H567 0.929 . S
C579 C573 1.390 . S
C579 C576 1.386 . S
C580 C575 1.490 . S
C580 C582 1.395 . S
C580 C583 1.403 . S
H581 C587 0.930 . S
C582 H568 0.930 . S
C582 C580 1.395 . S
C582 C585 1.403 1_545 S
C583 C580 1.403 . S
C583 C584 1.524 . S
C583 C587 1.400 1_545 S
C584 H569 0.960 . S
C584 H570 0.960 . S
C584 H571 0.960 . S
C584 C583 1.524 . S
C585 C582 1.403 1_565 S
C585 C586 1.392 . S
C585 C589 1.495 . S
C586 C585 1.392 . S
C586 C587 1.385 . S
C586 C588 1.478 . S
C587 H581 0.930 . S
C587 C583 1.400 1_565 S
C587 C586 1.385 . S
C588 C586 1.478 . S
C588 C590 1.381 . S
C588 C594 1.383 . S
C589 C585 1.495 . S
C589 H595 0.959 . S
C589 H596 0.961 . S
C589 H597 0.960 . S
C590 C588 1.381 . S
C590 C591 1.394 . S
C590 H598 0.930 . S
C591 C590 1.394 . S
C591 C592 1.383 . S
C591 H599 0.929 . S
C592 C591 1.383 . S
C592 C593 1.377 . S
C593 H577 0.930 . S
C593 C592 1.377 . S
C593 C594 1.379 . S
C594 H578 0.931 . S
C594 C588 1.383 . S
C594 C593 1.379 . S
H595 C589 0.959 . S
H596 C589 0.961 . S
H597 C589 0.960 . S
H598 C590 0.930 . S
H599 C591 0.929 . S
H600 C608 0.929 . S
H601 C610 0.930 . S
H602 C612 0.930 . S
H603 C615 0.929 . S
H604 C618 0.930 . S
H605 C620 0.960 . S
H606 C620 0.960 . S
H607 C620 0.960 . S
C608 H600 0.929 . S
C608 C609 1.377 . S
C608 C610 1.384 . S
C609 C608 1.377 . S
C609 C615 1.390 . S
C610 H601 0.930 . S
C610 C608 1.384 . S
C610 C611 1.372 . S
C611 C610 1.372 . S
C611 C612 1.400 . S
C611 C616 1.490 . S
C612 H602 0.930 . S
C612 C611 1.400 . S
C612 C615 1.386 . S
H613 C629 0.930 . S
H614 C630 0.931 . S
C615 H603 0.929 . S
C615 C609 1.390 . S
C615 C612 1.386 . S
C616 C611 1.490 . S
C616 C618 1.395 . S
C616 C619 1.403 1_554 S
H617 C623 0.930 . S
C618 H604 0.930 . S
C618 C616 1.395 . S
C618 C621 1.403 . S
C619 C616 1.403 1_556 S
C619 C620 1.524 . S
C619 C623 1.400 . S
C620 H605 0.960 . S
C620 H606 0.960 . S
C620 H607 0.960 . S
C620 C619 1.524 . S
C621 C618 1.403 . S
C621 C622 1.392 . S
C621 C625 1.495 . S
C622 C621 1.392 . S
C622 C623 1.385 1_554 S
C622 C624 1.478 . S
C623 H617 0.930 . S
C623 C619 1.400 . S
C623 C622 1.385 1_556 S
C624 C622 1.478 . S
C624 C626 1.381 . S
C624 C630 1.383 . S
C625 C621 1.495 . S
C625 H631 0.959 . S
C625 H632 0.961 . S
C625 H633 0.960 . S
C626 C624 1.381 . S
C626 C627 1.394 . S
C626 H634 0.930 . S
C627 C626 1.394 . S
C627 C628 1.383 . S
C627 H635 0.929 . S
C628 C627 1.383 . S
C628 C629 1.377 . S
C629 H613 0.930 . S
C629 C628 1.377 . S
C629 C630 1.379 . S
C630 H614 0.931 . S
C630 C624 1.383 . S
C630 C629 1.379 . S
H631 C625 0.959 . S
H632 C625 0.961 . S
H633 C625 0.960 . S
H634 C626 0.930 . S
H635 C627 0.929 . S
H636 C644 0.929 . S
H637 C646 0.930 . S
H638 C648 0.930 . S
H639 C651 0.929 . S
H640 C654 0.930 . S
H641 C656 0.960 . S
H642 C656 0.960 . S
H643 C656 0.960 . S
C644 H636 0.929 . S
C644 C645 1.377 . S
C644 C646 1.384 . S
C645 C644 1.377 . S
C645 C651 1.390 . S
C646 H637 0.930 . S
C646 C644 1.384 . S
C646 C647 1.372 . S
C647 C646 1.372 . S
C647 C648 1.400 . S
C647 C652 1.490 . S
C648 H638 0.930 . S
C648 C647 1.400 . S
C648 C651 1.386 . S
H649 C665 0.930 . S
H650 C666 0.931 . S
C651 H639 0.929 . S
C651 C645 1.390 . S
C651 C648 1.386 . S
C652 C647 1.490 . S
C652 C654 1.395 . S
C652 C655 1.403 1_554 S
H653 C659 0.930 . S
C654 H640 0.930 . S
C654 C652 1.395 . S
C654 C657 1.403 . S
C655 C652 1.403 1_556 S
C655 C656 1.524 . S
C655 C659 1.400 . S
C656 H641 0.960 . S
C656 H642 0.960 . S
C656 H643 0.960 . S
C656 C655 1.524 . S
C657 C654 1.403 . S
C657 C658 1.392 . S
C657 C661 1.495 . S
C658 C657 1.392 . S
C658 C659 1.385 1_554 S
C658 C660 1.478 . S
C659 H653 0.930 . S
C659 C655 1.400 . S
C659 C658 1.385 1_556 S
C660 C658 1.478 . S
C660 C662 1.381 . S
C660 C666 1.383 . S
C661 C657 1.495 . S
C661 H667 0.959 . S
C661 H668 0.961 . S
C661 H669 0.960 . S
C662 C660 1.381 . S
C662 C663 1.394 . S
C662 H670 0.930 . S
C663 C662 1.394 . S
C663 C664 1.383 . S
C663 H671 0.929 . S
C664 C663 1.383 . S
C664 C665 1.377 . S
C665 H649 0.930 . S
C665 C664 1.377 . S
C665 C666 1.379 . S
C666 H650 0.931 . S
C666 C660 1.383 . S
C666 C665 1.379 . S
H667 C661 0.959 . S
H668 C661 0.961 . S
H669 C661 0.960 . S
H670 C662 0.930 . S
H671 C663 0.929 . S
H672 C680 0.929 . S
H673 C682 0.930 . S
H674 C684 0.930 . S
H675 C687 0.929 . S
H676 C690 0.930 . S
H677 C692 0.960 . S
H678 C692 0.960 . S
H679 C692 0.960 . S
C680 H672 0.929 . S
C680 C681 1.377 . S
C680 C682 1.384 . S
C681 C680 1.377 . S
C681 C687 1.390 . S
C682 H673 0.930 . S
C682 C680 1.384 . S
C682 C683 1.372 . S
C683 C682 1.372 . S
C683 C684 1.400 . S
C683 C688 1.490 . S
C684 H674 0.930 . S
C684 C683 1.400 . S
C684 C687 1.386 . S
H685 C701 0.930 . S
H686 C702 0.931 . S
C687 H675 0.929 . S
C687 C681 1.390 . S
C687 C684 1.386 . S
C688 C683 1.490 . S
C688 C690 1.395 . S
C688 C691 1.403 . S
H689 C695 0.930 . S
C690 H676 0.930 . S
C690 C688 1.395 . S
C690 C693 1.403 . S
C691 C688 1.403 . S
C691 C692 1.524 . S
C691 C695 1.400 . S
C692 H677 0.960 . S
C692 H678 0.960 . S
C692 H679 0.960 . S
C692 C691 1.524 . S
C693 C690 1.403 . S
C693 C694 1.392 . S
C693 C697 1.495 . S
C694 C693 1.392 . S
C694 C695 1.385 . S
C694 C696 1.478 . S
C695 H689 0.930 . S
C695 C691 1.400 . S
C695 C694 1.385 . S
C696 C694 1.478 . S
C696 C698 1.381 . S
C696 C702 1.383 . S
C697 C693 1.495 . S
C697 H703 0.959 . S
C697 H704 0.961 . S
C697 H705 0.960 . S
C698 C696 1.381 . S
C698 C699 1.394 . S
C698 H706 0.930 . S
C699 C698 1.394 . S
C699 C700 1.383 . S
C699 H707 0.929 . S
C700 C699 1.383 . S
C700 C701 1.377 . S
C701 H685 0.930 . S
C701 C700 1.377 . S
C701 C702 1.379 . S
C702 H686 0.931 . S
C702 C696 1.383 . S
C702 C701 1.379 . S
H703 C697 0.959 . S
H704 C697 0.961 . S
H705 C697 0.960 . S
H706 C698 0.930 . S
H707 C699 0.929 . S
H708 C716 0.929 . S
H709 C718 0.930 . S
H710 C720 0.930 . S
H711 C723 0.929 . S
H712 C726 0.930 . S
H713 C728 0.960 . S
H714 C728 0.960 . S
H715 C728 0.960 . S
C716 H708 0.929 . S
C716 C717 1.377 . S
C716 C718 1.384 . S
C717 C716 1.377 . S
C717 C723 1.390 . S
C718 H709 0.930 . S
C718 C716 1.384 . S
C718 C719 1.372 . S
C719 C718 1.372 . S
C719 C720 1.400 . S
C719 C724 1.490 . S
C720 H710 0.930 . S
C720 C719 1.400 . S
C720 C723 1.386 . S
H721 C737 0.930 . S
H722 C738 0.931 . S
C723 H711 0.929 . S
C723 C717 1.390 . S
C723 C720 1.386 . S
C724 C719 1.490 . S
C724 C726 1.395 . S
C724 C727 1.403 . S
H725 C731 0.930 . S
C726 H712 0.930 . S
C726 C724 1.395 . S
C726 C729 1.403 . S
C727 C724 1.403 . S
C727 C728 1.524 . S
C727 C731 1.400 . S
C728 H713 0.960 . S
C728 H714 0.960 . S
C728 H715 0.960 . S
C728 C727 1.524 . S
C729 C726 1.403 . S
C729 C730 1.392 . S
C729 C733 1.495 . S
C730 C729 1.392 . S
C730 C731 1.385 . S
C730 C732 1.478 . S
C731 H725 0.930 . S
C731 C727 1.400 . S
C731 C730 1.385 . S
C732 C730 1.478 . S
C732 C734 1.381 . S
C732 C738 1.383 . S
C733 C729 1.495 . S
C733 H739 0.959 . S
C733 H740 0.961 . S
C733 H741 0.960 . S
C734 C732 1.381 . S
C734 C735 1.394 . S
C734 H742 0.930 . S
C735 C734 1.394 . S
C735 C736 1.383 . S
C735 H743 0.929 . S
C736 C735 1.383 . S
C736 C737 1.377 . S
C737 H721 0.930 . S
C737 C736 1.377 . S
C737 C738 1.379 . S
C738 H722 0.931 . S
C738 C732 1.383 . S
C738 C737 1.379 . S
H739 C733 0.959 . S
H740 C733 0.961 . S
H741 C733 0.960 . S
H742 C734 0.930 . S
H743 C735 0.929 . S
H744 C752 0.929 . S
H745 C754 0.930 . S
H746 C756 0.930 . S
H747 C759 0.929 . S
H748 C762 0.930 . S
H749 C764 0.960 . S
H750 C764 0.960 . S
H751 C764 0.960 . S
C752 H744 0.929 . S
C752 C753 1.377 . S
C752 C754 1.384 . S
C753 C752 1.377 . S
C753 C759 1.390 1_455 S
C754 H745 0.930 . S
C754 C752 1.384 . S
C754 C755 1.372 . S
C755 C754 1.372 . S
C755 C756 1.400 1_455 S
C755 C760 1.490 . S
C756 H746 0.930 . S
C756 C755 1.400 1_655 S
C756 C759 1.386 . S
H757 C773 0.930 . S
H758 C774 0.931 . S
C759 H747 0.929 . S
C759 C753 1.390 1_655 S
C759 C756 1.386 . S
C760 C755 1.490 . S
C760 C762 1.395 . S
C760 C763 1.403 1_455 S
H761 C767 0.930 . S
C762 H748 0.930 . S
C762 C760 1.395 . S
C762 C765 1.403 . S
C763 C760 1.403 1_655 S
C763 C764 1.524 . S
C763 C767 1.400 . S
C764 H749 0.960 . S
C764 H750 0.960 . S
C764 H751 0.960 . S
C764 C763 1.524 . S
C765 C762 1.403 . S
C765 C766 1.392 . S
C765 C769 1.495 . S
C766 C765 1.392 . S
C766 C767 1.385 1_455 S
C766 C768 1.478 1_455 S
C767 H761 0.930 . S
C767 C763 1.400 . S
C767 C766 1.385 1_655 S
C768 C766 1.478 1_655 S
C768 C770 1.381 1_655 S
C768 C774 1.383 . S
C769 C765 1.495 . S
C769 H775 0.959 . S
C769 H776 0.961 . S
C769 H777 0.960 . S
C770 C768 1.381 1_455 S
C770 C771 1.394 . S
C770 H778 0.930 . S
C771 C770 1.394 . S
C771 C772 1.383 1_455 S
C771 H779 0.929 . S
C772 C771 1.383 1_655 S
C772 C773 1.377 . S
C773 H757 0.930 . S
C773 C772 1.377 . S
C773 C774 1.379 . S
C774 H758 0.931 . S
C774 C768 1.383 . S
C774 C773 1.379 . S
H775 C769 0.959 . S
H776 C769 0.961 . S
H777 C769 0.960 . S
H778 C770 0.930 . S
H779 C771 0.929 . S
H780 C788 0.929 . S
H781 C790 0.930 . S
H782 C792 0.930 . S
H783 C795 0.929 . S
H784 C798 0.930 . S
H785 C800 0.960 . S
H786 C800 0.960 . S
H787 C800 0.960 . S
C788 H780 0.929 . S
C788 C789 1.377 . S
C788 C790 1.384 . S
C789 C788 1.377 . S
C789 C795 1.390 . S
C790 H781 0.930 . S
C790 C788 1.384 . S
C790 C791 1.372 . S
C791 C790 1.372 . S
C791 C792 1.400 . S
C791 C796 1.490 . S
C792 H782 0.930 . S
C792 C791 1.400 . S
C792 C795 1.386 . S
H793 C809 0.930 . S
H794 C810 0.931 . S
C795 H783 0.929 . S
C795 C789 1.390 . S
C795 C792 1.386 . S
C796 C791 1.490 . S
C796 C798 1.395 . S
C796 C799 1.403 1_655 S
H797 C803 0.930 . S
C798 H784 0.930 . S
C798 C796 1.395 . S
C798 C801 1.403 . S
C799 C796 1.403 1_455 S
C799 C800 1.524 . S
C799 C803 1.400 . S
C800 H785 0.960 . S
C800 H786 0.960 . S
C800 H787 0.960 . S
C800 C799 1.524 . S
C801 C798 1.403 . S
C801 C802 1.392 . S
C801 C805 1.495 . S
C802 C801 1.392 . S
C802 C803 1.385 1_655 S
C802 C804 1.478 1_655 S
C803 H797 0.930 . S
C803 C799 1.400 . S
C803 C802 1.385 1_455 S
C804 C802 1.478 1_455 S
C804 C806 1.381 . S
C804 C810 1.383 . S
C805 C801 1.495 . S
C805 H811 0.959 . S
C805 H812 0.961 . S
C805 H813 0.960 . S
C806 C804 1.381 . S
C806 C807 1.394 . S
C806 H814 0.930 . S
C807 C806 1.394 . S
C807 C808 1.383 . S
C807 H815 0.929 . S
C808 C807 1.383 . S
C808 C809 1.377 . S
C809 H793 0.930 . S
C809 C808 1.377 . S
C809 C810 1.379 . S
C810 H794 0.931 . S
C810 C804 1.383 . S
C810 C809 1.379 . S
H811 C805 0.959 . S
H812 C805 0.961 . S
H813 C805 0.960 . S
H814 C806 0.930 . S
H815 C807 0.929 . S
H816 C824 0.929 . S
H817 C826 0.930 . S
H818 C828 0.930 . S
H819 C831 0.929 1_455 S
H820 C834 0.930 . S
H821 C836 0.960 . S
H822 C836 0.960 . S
H823 C836 0.960 . S
C824 H816 0.929 . S
C824 C825 1.377 . S
C824 C826 1.384 . S
C825 C824 1.377 . S
C825 C831 1.390 . S
C826 H817 0.930 . S
C826 C824 1.384 . S
C826 C827 1.372 . S
C827 C826 1.372 . S
C827 C828 1.400 1_655 S
C827 C832 1.490 . S
C828 H818 0.930 . S
C828 C827 1.400 1_455 S
C828 C831 1.386 1_455 S
H829 C845 0.930 . S
H830 C846 0.931 . S
C831 H819 0.929 1_655 S
C831 C825 1.390 . S
C831 C828 1.386 1_655 S
C832 C827 1.490 . S
C832 C834 1.395 1_655 S
C832 C835 1.403 . S
H833 C839 0.930 . S
C834 H820 0.930 . S
C834 C832 1.395 1_455 S
C834 C837 1.403 . S
C835 C832 1.403 . S
C835 C836 1.524 . S
C835 C839 1.400 . S
C836 H821 0.960 . S
C836 H822 0.960 . S
C836 H823 0.960 . S
C836 C835 1.524 . S
C837 C834 1.403 . S
C837 C838 1.392 . S
C837 C841 1.495 . S
C838 C837 1.392 . S
C838 C839 1.385 1_455 S
C838 C840 1.478 . S
C839 H833 0.930 . S
C839 C835 1.400 . S
C839 C838 1.385 1_655 S
C840 C838 1.478 . S
C840 C842 1.381 1_455 S
C840 C846 1.383 . S
C841 C837 1.495 . S
C841 H847 0.959 . S
C841 H848 0.961 . S
C841 H849 0.960 . S
C842 C840 1.381 1_655 S
C842 C843 1.393 1_655 S
C842 H850 0.930 . S
C843 C842 1.393 1_455 S
C843 C844 1.390 . S
C843 H851 0.924 1_455 S
C844 C843 1.390 . S
C844 C845 1.377 . S
C845 H829 0.930 . S
C845 C844 1.377 . S
C845 C846 1.379 . S
C846 H830 0.931 . S
C846 C840 1.383 . S
C846 C845 1.379 . S
H847 C841 0.959 . S
H848 C841 0.961 . S
H849 C841 0.960 . S
H850 C842 0.930 . S
H851 C843 0.924 1_655 S
H852 C860 0.929 . S
H853 C862 0.930 . S
H854 C864 0.930 . S
H855 C867 0.929 . S
H856 C870 0.930 . S
H857 C872 0.960 . S
H858 C872 0.960 . S
H859 C872 0.960 . S
C860 H852 0.929 . S
C860 C861 1.377 1_455 S
C860 C862 1.384 . S
C861 C860 1.377 1_655 S
C861 C867 1.390 . S
C862 H853 0.930 . S
C862 C860 1.384 . S
C862 C863 1.372 1_455 S
C863 C862 1.372 1_655 S
C863 C864 1.400 . S
C863 C868 1.490 . S
C864 H854 0.930 . S
C864 C863 1.400 . S
C864 C867 1.386 . S
H865 C881 0.930 . S
H866 C882 0.931 . S
C867 H855 0.929 . S
C867 C861 1.390 . S
C867 C864 1.386 . S
C868 C863 1.490 . S
C868 C870 1.395 1_655 S
C868 C871 1.403 . S
H869 C875 0.930 . S
C870 H856 0.930 . S
C870 C868 1.395 1_455 S
C870 C873 1.403 . S
C871 C868 1.403 . S
C871 C872 1.524 . S
C871 C875 1.400 . S
C872 H857 0.960 . S
C872 H858 0.960 . S
C872 H859 0.960 . S
C872 C871 1.524 . S
C873 C870 1.403 . S
C873 C874 1.392 . S
C873 C877 1.495 . S
C874 C873 1.392 . S
C874 C875 1.385 1_455 S
C874 C876 1.478 . S
C875 H869 0.930 . S
C875 C871 1.400 . S
C875 C874 1.385 1_655 S
C876 C874 1.478 . S
C876 C878 1.381 . S
C876 C882 1.383 1_455 S
C877 C873 1.495 . S
C877 H883 0.959 . S
C877 H884 0.961 . S
C877 H885 0.960 . S
C878 C876 1.381 . S
C878 C879 1.394 . S
C878 H886 0.930 . S
C879 C878 1.394 . S
C879 C880 1.383 . S
C879 H887 0.929 . S
C880 C879 1.383 . S
C880 C881 1.377 1_455 S
C881 H865 0.930 . S
C881 C880 1.377 1_655 S
C881 C882 1.379 . S
C882 H866 0.931 . S
C882 C876 1.383 1_655 S
C882 C881 1.379 . S
H883 C877 0.959 . S
H884 C877 0.961 . S
H885 C877 0.960 . S
H886 C878 0.930 . S
H887 C879 0.929 . S
H888 C896 0.929 . S
H889 C898 0.930 . S
H890 C900 0.930 . S
H891 C903 0.929 . S
H892 C906 0.930 . S
H893 C908 0.960 . S
H894 C908 0.960 . S
H895 C908 0.960 . S
C896 H888 0.929 . S
C896 C897 1.377 . S
C896 C898 1.384 . S
C897 C896 1.377 . S
C897 C903 1.390 . S
C898 H889 0.930 . S
C898 C896 1.384 . S
C898 C899 1.372 . S
C899 C898 1.372 . S
C899 C900 1.400 . S
C899 C904 1.490 . S
C900 H890 0.930 . S
C900 C899 1.400 . S
C900 C903 1.386 . S
H901 C917 0.930 . S
H902 C918 0.931 . S
C903 H891 0.929 . S
C903 C897 1.390 . S
C903 C900 1.386 . S
C904 C899 1.490 . S
C904 C906 1.395 . S
C904 C907 1.403 . S
H905 C911 0.930 . S
C906 H892 0.930 . S
C906 C904 1.395 . S
C906 C909 1.403 . S
C907 C904 1.403 . S
C907 C908 1.524 . S
C907 C911 1.400 . S
C908 H893 0.960 . S
C908 H894 0.960 . S
C908 H895 0.960 . S
C908 C907 1.524 . S
C909 C906 1.403 . S
C909 C910 1.392 . S
C909 C913 1.495 . S
C910 C909 1.392 . S
C910 C911 1.385 . S
C910 C912 1.478 . S
C911 H905 0.930 . S
C911 C907 1.400 . S
C911 C910 1.385 . S
C912 C910 1.478 . S
C912 C914 1.381 . S
C912 C918 1.383 . S
C913 C909 1.495 . S
C913 H919 0.959 . S
C913 H920 0.961 . S
C913 H921 0.960 . S
C914 C912 1.381 . S
C914 C915 1.394 . S
C914 H922 0.930 . S
C915 C914 1.394 . S
C915 C916 1.383 . S
C915 H923 0.929 . S
C916 C915 1.383 . S
C916 C917 1.377 . S
C917 H901 0.930 . S
C917 C916 1.377 . S
C917 C918 1.379 . S
C918 H902 0.931 . S
C918 C912 1.383 . S
C918 C917 1.379 . S
H919 C913 0.959 . S
H920 C913 0.961 . S
H921 C913 0.960 . S
H922 C914 0.930 . S
H923 C915 0.929 . S
H924 C932 0.929 . S
H925 C934 0.930 . S
H926 C936 0.930 . S
H927 C939 0.929 . S
H928 C942 0.930 . S
H929 C944 0.960 . S
H930 C944 0.960 . S
H931 C944 0.960 . S
C932 H924 0.929 . S
C932 C933 1.377 . S
C932 C934 1.384 . S
C933 C932 1.377 . S
C933 C939 1.390 . S
C934 H925 0.930 . S
C934 C932 1.384 . S
C934 C935 1.372 . S
C935 C934 1.372 . S
C935 C936 1.400 . S
C935 C940 1.490 . S
C936 H926 0.930 . S
C936 C935 1.400 . S
C936 C939 1.386 . S
H937 C953 0.930 . S
H938 C954 0.931 . S
C939 H927 0.929 . S
C939 C933 1.390 . S
C939 C936 1.386 . S
C940 C935 1.490 . S
C940 C942 1.395 . S
C940 C943 1.403 . S
H941 C947 0.930 . S
C942 H928 0.930 . S
C942 C940 1.395 . S
C942 C945 1.403 . S
C943 C940 1.403 . S
C943 C944 1.524 . S
C943 C947 1.400 . S
C944 H929 0.960 . S
C944 H930 0.960 . S
C944 H931 0.960 . S
C944 C943 1.524 . S
C945 C942 1.403 . S
C945 C946 1.392 . S
C945 C949 1.495 . S
C946 C945 1.392 . S
C946 C947 1.385 . S
C946 C948 1.478 . S
C947 H941 0.930 . S
C947 C943 1.400 . S
C947 C946 1.385 . S
C948 C946 1.478 . S
C948 C950 1.381 . S
C948 C954 1.383 . S
C949 C945 1.495 . S
C949 H955 0.959 . S
C949 H956 0.961 . S
C949 H957 0.960 . S
C950 C948 1.381 . S
C950 C951 1.394 . S
C950 H958 0.930 . S
C951 C950 1.394 . S
C951 C952 1.383 . S
C951 H959 0.929 . S
C952 C951 1.383 . S
C952 C953 1.377 . S
C953 H937 0.930 . S
C953 C952 1.377 . S
C953 C954 1.379 . S
C954 H938 0.931 . S
C954 C948 1.383 . S
C954 C953 1.379 . S
H955 C949 0.959 . S
H956 C949 0.961 . S
H957 C949 0.960 . S
H958 C950 0.930 . S
H959 C951 0.929 . S
H960 C968 0.929 . S
H961 C970 0.930 . S
H962 C972 0.930 . S
H963 C975 0.929 . S
H964 C978 0.930 . S
H965 C980 0.960 . S
H966 C980 0.960 . S
H967 C980 0.960 . S
C968 H960 0.929 . S
C968 C969 1.377 . S
C968 C970 1.384 . S
C969 C968 1.377 . S
C969 C975 1.390 . S
C970 H961 0.930 . S
C970 C968 1.384 . S
C970 C971 1.372 . S
C971 C970 1.372 . S
C971 C972 1.400 . S
C971 C976 1.490 . S
C972 H962 0.930 . S
C972 C971 1.400 . S
C972 C975 1.386 . S
H973 C989 0.930 . S
H974 C990 0.931 . S
C975 H963 0.929 . S
C975 C969 1.390 . S
C975 C972 1.386 . S
C976 C971 1.490 . S
C976 C978 1.395 . S
C976 C979 1.403 . S
H977 C983 0.930 . S
C978 H964 0.930 . S
C978 C976 1.395 . S
C978 C981 1.403 . S
C979 C976 1.403 . S
C979 C980 1.524 . S
C979 C983 1.400 . S
C980 H965 0.960 . S
C980 H966 0.960 . S
C980 H967 0.960 . S
C980 C979 1.524 . S
C981 C978 1.403 . S
C981 C982 1.392 . S
C981 C985 1.495 . S
C982 C981 1.392 . S
C982 C983 1.385 . S
C982 C984 1.478 . S
C983 H977 0.930 . S
C983 C979 1.400 . S
C983 C982 1.385 . S
C984 C982 1.478 . S
C984 C986 1.381 . S
C984 C990 1.383 . S
C985 C981 1.495 . S
C985 H991 0.959 . S
C985 H992 0.961 . S
C985 H993 0.960 . S
C986 C984 1.381 . S
C986 C987 1.394 . S
C986 H994 0.930 . S
C987 C986 1.394 . S
C987 C988 1.383 . S
C987 H995 0.929 . S
C988 C987 1.383 . S
C988 C989 1.377 . S
C989 H973 0.930 . S
C989 C988 1.377 . S
C989 C990 1.379 . S
C990 H974 0.931 . S
C990 C984 1.383 . S
C990 C989 1.379 . S
H991 C985 0.959 . S
H992 C985 0.961 . S
H993 C985 0.960 . S
H994 C986 0.930 . S
H995 C987 0.929 . S
H996 C1004 0.929 . S
H997 C1006 0.930 . S
H998 C1008 0.930 . S
H999 C1011 0.929 . S
H1000 C1014 0.930 . S
H1001 C1016 0.960 . S
H1002 C1016 0.960 . S
H1003 C1016 0.960 . S
C1004 H996 0.929 . S
C1004 C1005 1.377 . S
C1004 C1006 1.384 . S
C1005 C1004 1.377 . S
C1005 C1011 1.390 . S
C1006 H997 0.930 . S
C1006 C1004 1.384 . S
C1006 C1007 1.372 . S
C1007 C1006 1.372 . S
C1007 C1008 1.400 . S
C1007 C1012 1.490 . S
C1008 H998 0.930 . S
C1008 C1007 1.400 . S
C1008 C1011 1.386 . S
H1009 C1025 0.930 . S
H1010 C1026 0.931 . S
C1011 H999 0.929 . S
C1011 C1005 1.390 . S
C1011 C1008 1.386 . S
C1012 C1007 1.490 . S
C1012 C1014 1.395 . S
C1012 C1015 1.403 . S
H1013 C1019 0.930 . S
C1014 H1000 0.930 . S
C1014 C1012 1.395 . S
C1014 C1017 1.403 . S
C1015 C1012 1.403 . S
C1015 C1016 1.524 . S
C1015 C1019 1.400 . S
C1016 H1001 0.960 . S
C1016 H1002 0.960 . S
C1016 H1003 0.960 . S
C1016 C1015 1.524 . S
C1017 C1014 1.403 . S
C1017 C1018 1.392 . S
C1017 C1021 1.495 . S
C1018 C1017 1.392 . S
C1018 C1019 1.385 . S
C1018 C1020 1.478 . S
C1019 H1013 0.930 . S
C1019 C1015 1.400 . S
C1019 C1018 1.385 . S
C1020 C1018 1.478 . S
C1020 C1022 1.381 . S
C1020 C1026 1.383 . S
C1021 C1017 1.495 . S
C1021 H1027 0.959 . S
C1021 H1028 0.961 . S
C1021 H1029 0.960 . S
C1022 C1020 1.381 . S
C1022 C1023 1.394 . S
C1022 H1030 0.930 . S
C1023 C1022 1.394 . S
C1023 C1024 1.383 . S
C1023 H1031 0.929 . S
C1024 C1023 1.383 . S
C1024 C1025 1.377 . S
C1025 H1009 0.930 . S
C1025 C1024 1.377 . S
C1025 C1026 1.379 . S
C1026 H1010 0.931 . S
C1026 C1020 1.383 . S
C1026 C1025 1.379 . S
H1027 C1021 0.959 . S
H1028 C1021 0.961 . S
H1029 C1021 0.960 . S
H1030 C1022 0.930 . S
H1031 C1023 0.929 . S
C177 C20 1.144 . S
C196 C16 1.153 1_556 S
C213 C24 1.129 1_556 S
C232 C40 1.182 . S
C249 C45 1.127 . S
C268 C61 1.165 . S
C285 C83 1.139 . S
C304 C79 1.129 . S
C321 C104 1.146 . S
C340 C100 1.138 1_556 S
C357 C124 1.133 . S
C376 C108 1.090 1_556 S
C393 C129 1.109 . S
C412 C145 1.101 . S
C429 C163 1.129 . S
C448 C167 1.182 . S
C465 C37 1.354 1_554 S
C484 C3 1.313 1_554 S
C501 C66 1.372 . S
C520 C58 1.366 . S
C537 C87 1.348 1_554 S
C556 C121 1.335 1_554 S
C573 C142 1.365 . S
C592 C150 1.403 . S
C609 C19 1.365 . S
C628 C125 1.325 . S
C645 C103 1.365 . S
C664 C41 1.330 . S
C681 C62 1.356 . S
C700 C166 1.335 . S
C717 C82 1.365 . S
C736 C146 1.324 . S
C753 C7 1.275 . S
C772 C70 1.284 . S
C789 C25 1.275 . S
C808 C46 1.247 . S
C825 C28 1.315 . S
C844 C49 1.319 . S
C861 C67 1.327 . S
C880 C4 1.279 . S
C897 C91 1.295 . S
C916 C154 1.280 . S
C933 C109 1.275 . S
C952 C130 1.251 . S
C969 C112 1.326 . S
C988 C133 1.336 . S
C1005 C151 1.316 . S
C1024 C88 1.313 . S
